# Generated by pormake.
# Topology svc, (7)-cn, num edge types: 1
# Building blocks:
#     Node 0, Type 0, BuildingBlock: HICVOG_clean_sbu_0, # of connection points: 7
#     Node 1, Type 0, BuildingBlock: HICVOG_clean_sbu_0, # of connection points: 7
#     Node 2, Type 0, BuildingBlock: HICVOG_clean_sbu_0, # of connection points: 7
#     Node 3, Type 0, BuildingBlock: HICVOG_clean_sbu_0, # of connection points: 7
#     Node 4, Type 0, BuildingBlock: HICVOG_clean_sbu_0, # of connection points: 7
#     Node 5, Type 0, BuildingBlock: HICVOG_clean_sbu_0, # of connection points: 7
#     Node 6, Type 0, BuildingBlock: HICVOG_clean_sbu_0, # of connection points: 7
#     Node 7, Type 0, BuildingBlock: HICVOG_clean_sbu_0, # of connection points: 7
#     Node 8, Type 0, BuildingBlock: HICVOG_clean_sbu_0, # of connection points: 7
#     Node 9, Type 0, BuildingBlock: HICVOG_clean_sbu_0, # of connection points: 7
#     Node 10, Type 0, BuildingBlock: HICVOG_clean_sbu_0, # of connection points: 7
#     Node 11, Type 0, BuildingBlock: HICVOG_clean_sbu_0, # of connection points: 7
#     Node 12, Type 0, BuildingBlock: HICVOG_clean_sbu_0, # of connection points: 7
#     Node 13, Type 0, BuildingBlock: HICVOG_clean_sbu_0, # of connection points: 7
#     Node 14, Type 0, BuildingBlock: HICVOG_clean_sbu_0, # of connection points: 7
#     Node 15, Type 0, BuildingBlock: HICVOG_clean_sbu_0, # of connection points: 7
#     Edge 16, Type (0, 0), BuildingBlock: UVAHIK_clean_linker_0, # of connection points: 2
#     Edge 17, Type (0, 0), BuildingBlock: UVAHIK_clean_linker_0, # of connection points: 2
#     Edge 18, Type (0, 0), BuildingBlock: UVAHIK_clean_linker_0, # of connection points: 2
#     Edge 19, Type (0, 0), BuildingBlock: UVAHIK_clean_linker_0, # of connection points: 2
#     Edge 20, Type (0, 0), BuildingBlock: UVAHIK_clean_linker_0, # of connection points: 2
#     Edge 21, Type (0, 0), BuildingBlock: UVAHIK_clean_linker_0, # of connection points: 2
#     Edge 22, Type (0, 0), BuildingBlock: UVAHIK_clean_linker_0, # of connection points: 2
#     Edge 23, Type (0, 0), BuildingBlock: UVAHIK_clean_linker_0, # of connection points: 2
#     Edge 24, Type (0, 0), BuildingBlock: UVAHIK_clean_linker_0, # of connection points: 2
#     Edge 25, Type (0, 0), BuildingBlock: UVAHIK_clean_linker_0, # of connection points: 2
#     Edge 26, Type (0, 0), BuildingBlock: UVAHIK_clean_linker_0, # of connection points: 2
#     Edge 27, Type (0, 0), BuildingBlock: UVAHIK_clean_linker_0, # of connection points: 2
#     Edge 28, Type (0, 0), BuildingBlock: UVAHIK_clean_linker_0, # of connection points: 2
#     Edge 29, Type (0, 0), BuildingBlock: UVAHIK_clean_linker_0, # of connection points: 2
#     Edge 30, Type (0, 0), BuildingBlock: UVAHIK_clean_linker_0, # of connection points: 2
#     Edge 31, Type (0, 0), BuildingBlock: UVAHIK_clean_linker_0, # of connection points: 2
#     Edge 32, Type (0, 0), BuildingBlock: UVAHIK_clean_linker_0, # of connection points: 2
#     Edge 33, Type (0, 0), BuildingBlock: UVAHIK_clean_linker_0, # of connection points: 2
#     Edge 34, Type (0, 0), BuildingBlock: UVAHIK_clean_linker_0, # of connection points: 2
#     Edge 35, Type (0, 0), BuildingBlock: UVAHIK_clean_linker_0, # of connection points: 2
#     Edge 36, Type (0, 0), BuildingBlock: UVAHIK_clean_linker_0, # of connection points: 2
#     Edge 37, Type (0, 0), BuildingBlock: UVAHIK_clean_linker_0, # of connection points: 2
#     Edge 38, Type (0, 0), BuildingBlock: UVAHIK_clean_linker_0, # of connection points: 2
#     Edge 39, Type (0, 0), BuildingBlock: UVAHIK_clean_linker_0, # of connection points: 2
#     Edge 40, Type (0, 0), BuildingBlock: UVAHIK_clean_linker_0, # of connection points: 2
#     Edge 41, Type (0, 0), BuildingBlock: UVAHIK_clean_linker_0, # of connection points: 2
#     Edge 42, Type (0, 0), BuildingBlock: UVAHIK_clean_linker_0, # of connection points: 2
#     Edge 43, Type (0, 0), BuildingBlock: UVAHIK_clean_linker_0, # of connection points: 2
#     Edge 44, Type (0, 0), BuildingBlock: UVAHIK_clean_linker_0, # of connection points: 2
#     Edge 45, Type (0, 0), BuildingBlock: UVAHIK_clean_linker_0, # of connection points: 2
#     Edge 46, Type (0, 0), BuildingBlock: UVAHIK_clean_linker_0, # of connection points: 2
#     Edge 47, Type (0, 0), BuildingBlock: UVAHIK_clean_linker_0, # of connection points: 2
#     Edge 48, Type (0, 0), BuildingBlock: UVAHIK_clean_linker_0, # of connection points: 2
#     Edge 49, Type (0, 0), BuildingBlock: UVAHIK_clean_linker_0, # of connection points: 2
#     Edge 50, Type (0, 0), BuildingBlock: UVAHIK_clean_linker_0, # of connection points: 2
#     Edge 51, Type (0, 0), BuildingBlock: UVAHIK_clean_linker_0, # of connection points: 2
#     Edge 52, Type (0, 0), BuildingBlock: UVAHIK_clean_linker_0, # of connection points: 2
#     Edge 53, Type (0, 0), BuildingBlock: UVAHIK_clean_linker_0, # of connection points: 2
#     Edge 54, Type (0, 0), BuildingBlock: UVAHIK_clean_linker_0, # of connection points: 2
#     Edge 55, Type (0, 0), BuildingBlock: UVAHIK_clean_linker_0, # of connection points: 2
#     Edge 56, Type (0, 0), BuildingBlock: UVAHIK_clean_linker_0, # of connection points: 2
#     Edge 57, Type (0, 0), BuildingBlock: UVAHIK_clean_linker_0, # of connection points: 2
#     Edge 58, Type (0, 0), BuildingBlock: UVAHIK_clean_linker_0, # of connection points: 2
#     Edge 59, Type (0, 0), BuildingBlock: UVAHIK_clean_linker_0, # of connection points: 2
#     Edge 60, Type (0, 0), BuildingBlock: UVAHIK_clean_linker_0, # of connection points: 2
#     Edge 61, Type (0, 0), BuildingBlock: UVAHIK_clean_linker_0, # of connection points: 2
#     Edge 62, Type (0, 0), BuildingBlock: UVAHIK_clean_linker_0, # of connection points: 2
#     Edge 63, Type (0, 0), BuildingBlock: UVAHIK_clean_linker_0, # of connection points: 2
#     Edge 64, Type (0, 0), BuildingBlock: UVAHIK_clean_linker_0, # of connection points: 2
#     Edge 65, Type (0, 0), BuildingBlock: UVAHIK_clean_linker_0, # of connection points: 2
#     Edge 66, Type (0, 0), BuildingBlock: UVAHIK_clean_linker_0, # of connection points: 2
#     Edge 67, Type (0, 0), BuildingBlock: UVAHIK_clean_linker_0, # of connection points: 2
#     Edge 68, Type (0, 0), BuildingBlock: UVAHIK_clean_linker_0, # of connection points: 2
#     Edge 69, Type (0, 0), BuildingBlock: UVAHIK_clean_linker_0, # of connection points: 2
#     Edge 70, Type (0, 0), BuildingBlock: UVAHIK_clean_linker_0, # of connection points: 2
#     Edge 71, Type (0, 0), BuildingBlock: UVAHIK_clean_linker_0, # of connection points: 2
# Relax obj value: 0.169
# Max RMSD: 0.247
# Mean RMSD: 0.212
data_MOF--net-svc--node1-HICVOG_clean_sbu_0--edge1-UVAHIK_clean_linker_0
_symmetry_space_group_name_H-M    P1
_symmetry_Int_Tables_number       1
_symmetry_cell_setting            triclinic
loop_
_symmetry_equiv_pos_as_xyz
'x, y, z'
_cell_length_a     40.129191
_cell_length_b     37.199601
_cell_length_c     96.485241
_cell_angle_alpha  98.297631
_cell_angle_beta   94.750603
_cell_angle_gamma 90.175371
loop_
_atom_site_label
_atom_site_type_symbol
_atom_site_fract_x
_atom_site_fract_y
_atom_site_fract_z
_atom_type_partial_charge
Zn0 Zn 0.20504 0.42044 0.11233 0.0
C1 C 0.1345 0.37274 0.13006 0.0
N2 N 0.1501 0.34191 0.12551 0.0
C3 C 0.17877 0.35424 0.12147 0.0
N4 N 0.18039 0.39104 0.12327 0.0
N5 N 0.15276 0.40251 0.12897 0.0
C6 C 0.08593 0.46971 0.1293 0.0
O7 O 0.10382 0.46913 0.11846 0.0
O8 O 0.25359 0.40872 0.11377 0.0
Zn9 Zn 0.1478 0.44855 0.14085 0.0
N10 N 0.1859 0.40963 0.09298 0.0
C11 C 0.13676 0.39315 0.07782 0.0
C12 C 0.15295 0.39996 0.09125 0.0
C13 C 0.20343 0.41295 0.08169 0.0
N14 N 0.15404 0.39667 0.06659 0.0
C15 C 0.18703 0.40641 0.06803 0.0
O16 O 0.17069 0.49234 0.13515 0.0
C17 C 0.19052 0.50054 0.1264 0.0
O18 O 0.2033 0.47596 0.11789 0.0
H19 H 0.13917 0.39801 0.10027 0.0
H20 H 0.22941 0.42154 0.08342 0.0
C21 C 0.15022 0.45577 0.17171 0.0
C22 C 0.1633 0.44689 0.18481 0.0
C23 C 0.20515 0.41187 0.17335 0.0
C24 C 0.19201 0.42041 0.16046 0.0
N25 N 0.16484 0.44199 0.15982 0.0
N26 N 0.19045 0.42506 0.18514 0.0
H27 H 0.12824 0.47236 0.17091 0.0
C28 C 0.26826 0.41736 0.12597 0.0
O29 O 0.25012 0.42868 0.13642 0.0
O30 O 0.09945 0.46058 0.14062 0.0
H31 H 0.20307 0.40934 0.15098 0.0
H32 H 0.11054 0.38549 0.07631 0.0
H33 H 0.22666 0.39454 0.17398 0.0
Zn34 Zn 0.86675 0.9741 0.36807 0.0
C35 C 0.91688 0.8989 0.3858 0.0
N36 N 0.94363 0.91543 0.38183 0.0
C37 C 0.9306 0.94609 0.37801 0.0
N38 N 0.89745 0.94806 0.3794 0.0
N39 N 0.88889 0.91865 0.38455 0.0
C40 C 0.81293 0.8608 0.38147 0.0
O41 O 0.81424 0.88315 0.37216 0.0
O42 O 0.8829 0.02497 0.36882 0.0
Zn43 Zn 0.8516 0.91704 0.39597 0.0
N44 N 0.86486 0.94811 0.34906 0.0
C45 C 0.86319 0.8901 0.33493 0.0
C46 C 0.86375 0.91131 0.34804 0.0
C47 C 0.86541 0.96476 0.33738 0.0
N48 N 0.86378 0.90653 0.3233 0.0
C49 C 0.8648 0.94336 0.32401 0.0
O50 O 0.81192 0.94896 0.39175 0.0
C51 C 0.80105 0.97018 0.38321 0.0
O52 O 0.81918 0.97951 0.37406 0.0
H53 H 0.8636 0.89852 0.35739 0.0
H54 H 0.86698 0.99408 0.33859 0.0
C55 C 0.85398 0.91917 0.42637 0.0
C56 C 0.86869 0.92873 0.4402 0.0
C57 C 0.91178 0.96071 0.43145 0.0
C58 C 0.89708 0.9514 0.41782 0.0
N59 N 0.86877 0.93046 0.41548 0.0
N60 N 0.89739 0.9491 0.44227 0.0
H61 H 0.83151 0.90245 0.42422 0.0
C62 C 0.88299 0.04312 0.38102 0.0
O63 O 0.87645 0.02609 0.39153 0.0
O64 O 0.83089 0.86772 0.39304 0.0
H65 H 0.90834 0.96064 0.40916 0.0
H66 H 0.86242 0.86077 0.33398 0.0
H67 H 0.93448 0.97705 0.43343 0.0
Zn68 Zn 0.33057 0.59415 0.62239 0.0
C69 C 0.42021 0.55311 0.63063 0.0
N70 N 0.43099 0.58232 0.62549 0.0
C71 C 0.40319 0.60218 0.62446 0.0
N72 N 0.37656 0.58573 0.62873 0.0
N73 N 0.38743 0.55516 0.63291 0.0
C74 C 0.37688 0.46107 0.62699 0.0
O75 O 0.36979 0.48224 0.61742 0.0
O76 O 0.32226 0.64745 0.62265 0.0
Zn77 Zn 0.36468 0.52663 0.64473 0.0
N78 N 0.32299 0.56809 0.60343 0.0
C79 C 0.31048 0.50935 0.59068 0.0
C80 C 0.31738 0.53204 0.60334 0.0
C81 C 0.32191 0.58268 0.5912 0.0
N82 N 0.3089 0.52373 0.57853 0.0
C83 C 0.31432 0.55979 0.5783 0.0
O84 O 0.31315 0.52779 0.64335 0.0
C85 C 0.28908 0.54734 0.63939 0.0
O86 O 0.29417 0.57381 0.63275 0.0
H87 H 0.31791 0.52111 0.61313 0.0
H88 H 0.32587 0.6116 0.59157 0.0
C89 C 0.37579 0.52655 0.67502 0.0
C90 C 0.38633 0.54248 0.68888 0.0
C91 C 0.40569 0.59443 0.68001 0.0
C92 C 0.39487 0.57882 0.66641 0.0
N93 N 0.38031 0.54518 0.66411 0.0
N94 N 0.40105 0.57608 0.69086 0.0
H95 H 0.3633 0.50029 0.6729 0.0
C96 C 0.31697 0.66604 0.63437 0.0
O97 O 0.31867 0.65002 0.64568 0.0
O98 O 0.37752 0.47438 0.63991 0.0
H99 H 0.39788 0.59368 0.65777 0.0
H100 H 0.30598 0.48059 0.59049 0.0
H101 H 0.41736 0.62113 0.68196 0.0
Zn102 Zn 0.647 0.08517 0.8644 0.0
C103 C 0.69232 0.18286 0.8784 0.0
N104 N 0.6657 0.19408 0.87092 0.0
C105 C 0.64692 0.16377 0.86744 0.0
N106 N 0.66104 0.13498 0.87257 0.0
N107 N 0.68994 0.14692 0.87956 0.0
C108 C 0.77746 0.10427 0.87855 0.0
O109 O 0.75476 0.08474 0.8701 0.0
O110 O 0.5955 0.07722 0.86378 0.0
Zn111 Zn 0.71815 0.12089 0.89241 0.0
N112 N 0.66184 0.08053 0.84544 0.0
C113 C 0.7053 0.09922 0.83254 0.0
C114 C 0.69203 0.09709 0.84524 0.0
C115 C 0.64455 0.06495 0.83323 0.0
N116 N 0.688 0.0844 0.82042 0.0
C117 C 0.65803 0.06711 0.8203 0.0
O118 O 0.7091 0.06598 0.89061 0.0
C119 C 0.69172 0.03959 0.88364 0.0
O120 O 0.66931 0.04478 0.87399 0.0
H121 H 0.70553 0.10923 0.85491 0.0
H122 H 0.6205 0.05199 0.83356 0.0
C123 C 0.72928 0.1374 0.92329 0.0
C124 C 0.72164 0.15555 0.93651 0.0
C125 C 0.67528 0.18281 0.92544 0.0
C126 C 0.68257 0.16454 0.91247 0.0
N127 N 0.70979 0.14286 0.9115 0.0
N128 N 0.69494 0.178 0.9371 0.0
H129 H 0.75055 0.11965 0.92236 0.0
C130 C 0.58315 0.06303 0.87354 0.0
O131 O 0.60359 0.05472 0.88392 0.0
O132 O 0.76794 0.1248 0.8892 0.0
H133 H 0.6665 0.16788 0.90323 0.0
H134 H 0.72913 0.1127 0.8323 0.0
H135 H 0.654 0.20055 0.92626 0.0
Zn136 Zn 0.14824 0.56907 0.37247 0.0
C137 C 0.19286 0.66841 0.38276 0.0
N138 N 0.16223 0.67899 0.37839 0.0
C139 C 0.14426 0.64789 0.37605 0.0
N140 N 0.16282 0.61938 0.37901 0.0
N141 N 0.19339 0.63213 0.38354 0.0
C142 C 0.28099 0.61068 0.37948 0.0
O143 O 0.25747 0.60517 0.36908 0.0
O144 O 0.09679 0.56433 0.37146 0.0
Zn145 Zn 0.22417 0.60737 0.39587 0.0
N146 N 0.16398 0.557 0.35384 0.0
C147 C 0.21305 0.5402 0.34234 0.0
C148 C 0.19739 0.55084 0.35456 0.0
C149 C 0.14532 0.55322 0.34119 0.0
N150 N 0.19458 0.53573 0.3298 0.0
C151 C 0.16114 0.54197 0.3288 0.0
O152 O 0.21754 0.55161 0.39453 0.0
C153 C 0.1972 0.52504 0.3902 0.0
O154 O 0.16976 0.52965 0.38302 0.0
H155 H 0.21168 0.55374 0.36465 0.0
H156 H 0.11867 0.55787 0.34082 0.0
C157 C 0.23836 0.62485 0.42654 0.0
C158 C 0.23048 0.64063 0.4401 0.0
C159 C 0.18024 0.66314 0.42991 0.0
C160 C 0.18776 0.64697 0.41668 0.0
N161 N 0.21679 0.62859 0.41513 0.0
N162 N 0.20158 0.65951 0.44122 0.0
H163 H 0.26115 0.60993 0.425 0.0
C164 C 0.08229 0.55724 0.38205 0.0
O165 O 0.1008 0.55322 0.39359 0.0
O166 O 0.27259 0.61486 0.39204 0.0
H167 H 0.17031 0.64906 0.40774 0.0
H168 H 0.23961 0.53509 0.34282 0.0
H169 H 0.15736 0.6781 0.43123 0.0
Zn170 Zn 0.72484 0.8845 0.61 0.0
C171 C 0.64874 0.83747 0.62451 0.0
N172 N 0.66394 0.80665 0.61967 0.0
C173 C 0.69422 0.81849 0.61716 0.0
N174 N 0.69707 0.8552 0.61988 0.0
N175 N 0.66866 0.86697 0.62488 0.0
C176 C 0.6008 0.931 0.62399 0.0
O177 O 0.61814 0.92643 0.61291 0.0
O178 O 0.77346 0.877 0.61502 0.0
Zn179 Zn 0.66311 0.91321 0.63652 0.0
N180 N 0.71356 0.86921 0.58995 0.0
C181 C 0.67384 0.83935 0.57228 0.0
C182 C 0.68322 0.85256 0.58629 0.0
C183 C 0.73447 0.87453 0.57996 0.0
N184 N 0.6948 0.84407 0.56236 0.0
C185 C 0.72483 0.86161 0.56571 0.0
O186 O 0.68616 0.95724 0.63081 0.0
C187 C 0.70603 0.96498 0.62198 0.0
O188 O 0.71967 0.93999 0.61395 0.0
H189 H 0.6663 0.84944 0.59419 0.0
H190 H 0.75835 0.88816 0.58308 0.0
C191 C 0.66313 0.92133 0.66721 0.0
C192 C 0.67394 0.91182 0.68047 0.0
C193 C 0.71547 0.87444 0.66991 0.0
C194 C 0.70458 0.88364 0.65683 0.0
N195 N 0.67858 0.90666 0.65566 0.0
N196 N 0.69984 0.88847 0.68135 0.0
H197 H 0.6421 0.93909 0.66601 0.0
C198 C 0.78409 0.89159 0.62732 0.0
O199 O 0.76231 0.9057 0.63592 0.0
O200 O 0.61472 0.92529 0.63576 0.0
H201 H 0.71633 0.87182 0.64762 0.0
H202 H 0.64997 0.82564 0.56929 0.0
H203 H 0.73596 0.85592 0.67094 0.0
Zn204 Zn 0.30604 0.41678 0.89298 0.0
C205 C 0.35381 0.3427 0.86749 0.0
N206 N 0.33425 0.31991 0.87299 0.0
C207 C 0.31596 0.34292 0.88117 0.0
N208 N 0.32362 0.37777 0.88063 0.0
N209 N 0.34694 0.37799 0.87172 0.0
C210 C 0.4149 0.44812 0.87203 0.0
O211 O 0.39612 0.45486 0.8826 0.0
O212 O 0.25688 0.40948 0.89392 0.0
Zn213 Zn 0.35393 0.41653 0.86049 0.0
N214 N 0.32946 0.41847 0.91143 0.0
C215 C 0.38195 0.42095 0.92489 0.0
C216 C 0.36334 0.4202 0.91203 0.0
C217 C 0.31321 0.41715 0.92321 0.0
N218 N 0.36588 0.41978 0.93665 0.0
C219 C 0.33189 0.41792 0.93632 0.0
O220 O 0.33174 0.46477 0.8666 0.0
C221 C 0.31674 0.48136 0.87671 0.0
O222 O 0.30856 0.46548 0.88676 0.0
H223 H 0.37573 0.42067 0.90253 0.0
H224 H 0.28625 0.41475 0.9222 0.0
C225 C 0.34568 0.41202 0.82996 0.0
C226 C 0.32963 0.39959 0.81653 0.0
C227 C 0.29398 0.36193 0.82695 0.0
C228 C 0.30953 0.37471 0.84017 0.0
N229 N 0.33519 0.39922 0.84145 0.0
N230 N 0.30423 0.37473 0.81553 0.0
H231 H 0.36543 0.43239 0.8314 0.0
C232 C 0.23935 0.40918 0.88232 0.0
O233 O 0.2547 0.40889 0.87078 0.0
O234 O 0.4026 0.42929 0.86071 0.0
H235 H 0.30082 0.36548 0.84937 0.0
H236 H 0.40898 0.42231 0.92554 0.0
H237 H 0.27358 0.34237 0.82579 0.0
Zn238 Zn 0.82461 0.12551 0.12061 0.0
C239 C 0.90727 0.09468 0.14181 0.0
N240 N 0.91906 0.12766 0.14043 0.0
C241 C 0.8919 0.14356 0.13503 0.0
N242 N 0.86472 0.12133 0.13309 0.0
N243 N 0.87429 0.0909 0.13775 0.0
C244 C 0.85251 0.9956 0.13121 0.0
O245 O 0.83927 0.01577 0.12215 0.0
O246 O 0.81322 0.17845 0.12126 0.0
Zn247 Zn 0.84577 0.06224 0.14716 0.0
N248 N 0.83596 0.10509 0.10178 0.0
C249 C 0.87007 0.06261 0.08876 0.0
C250 C 0.85838 0.07769 0.10144 0.0
C251 C 0.8242 0.11768 0.08971 0.0
N252 N 0.85888 0.07543 0.07681 0.0
C253 C 0.83614 0.10249 0.07681 0.0
O254 O 0.7961 0.06279 0.14099 0.0
C255 C 0.77425 0.07658 0.13305 0.0
O256 O 0.7825 0.09952 0.12524 0.0
H257 H 0.86758 0.06784 0.11098 0.0
H258 H 0.80661 0.13973 0.0902 0.0
C259 C 0.85075 0.06475 0.17804 0.0
C260 C 0.85245 0.08413 0.19181 0.0
C261 C 0.85399 0.1396 0.18235 0.0
C262 C 0.85182 0.12047 0.16884 0.0
N263 N 0.85043 0.08354 0.16688 0.0
N264 N 0.8541 0.12109 0.19344 0.0
H265 H 0.84872 0.03542 0.17615 0.0
C266 C 0.80491 0.19549 0.13282 0.0
O267 O 0.80493 0.17819 0.14378 0.0
O268 O 0.85953 1.01018 0.14387 0.0
H269 H 0.8508 0.13508 0.15993 0.0
H270 H 0.88811 0.04101 0.08842 0.0
H271 H 0.85515 0.16898 0.18402 0.0
Zn272 Zn 0.85661 0.59807 0.87263 0.0
C273 C 0.82669 0.69167 0.8939 0.0
N274 N 0.85753 0.70325 0.89204 0.0
C275 C 0.87217 0.67276 0.88647 0.0
N276 N 0.8513 0.64366 0.88492 0.0
N277 N 0.82291 0.65523 0.89003 0.0
C278 C 0.73514 0.62376 0.88545 0.0
O279 O 0.75501 0.61302 0.87554 0.0
O280 O 0.905 0.58544 0.87281 0.0
Zn281 Zn 0.79716 0.62471 0.90029 0.0
N282 N 0.84046 0.60602 0.85372 0.0
C283 C 0.80363 0.63955 0.83997 0.0
C284 C 0.81498 0.62981 0.85291 0.0
C285 C 0.85484 0.59097 0.84194 0.0
N286 N 0.81822 0.62512 0.82829 0.0
C287 C 0.8435 0.6009 0.82881 0.0
O288 O 0.80027 0.56949 0.89467 0.0
C289 C 0.81347 0.54493 0.88631 0.0
O290 O 0.83368 0.55324 0.87771 0.0
H291 H 0.80388 0.64168 0.86229 0.0
H292 H 0.87539 0.57245 0.84286 0.0
C293 C 0.79619 0.63101 0.93098 0.0
C294 C 0.812 0.63616 0.94478 0.0
C295 C 0.86322 0.64908 0.93566 0.0
C296 C 0.84769 0.64341 0.9221 0.0
N297 N 0.81455 0.6347 0.91996 0.0
N298 N 0.84515 0.64514 0.94661 0.0
H299 H 0.7701 0.62302 0.92896 0.0
C300 C 0.91987 0.57849 0.88424 0.0
O301 O 0.90361 0.58221 0.89562 0.0
O302 O 0.74813 0.63428 0.89784 0.0
H303 H 0.86224 0.64531 0.91331 0.0
H304 H 0.78356 0.6587 0.83921 0.0
H305 H 0.88957 0.65601 0.93747 0.0
Zn306 Zn 0.20975 0.09096 0.61638 0.0
C307 C 0.16363 0.16995 0.63998 0.0
N308 N 0.18172 0.1911 0.63311 0.0
C309 C 0.20065 0.16679 0.6258 0.0
N310 N 0.19457 0.13273 0.62813 0.0
N311 N 0.1717 0.13452 0.6373 0.0
C312 C 0.10372 0.06598 0.63928 0.0
O313 O 0.12254 0.05675 0.62888 0.0
O314 O 0.25905 0.09371 0.61463 0.0
Zn315 Zn 0.16475 0.09893 0.64981 0.0
N316 N 0.18564 0.08786 0.598 0.0
C317 C 0.13314 0.07976 0.58451 0.0
C318 C 0.15198 0.08302 0.59742 0.0
C319 C 0.20134 0.09028 0.58617 0.0
N320 N 0.14872 0.08182 0.57269 0.0
C321 C 0.18239 0.08721 0.57306 0.0
O322 O 0.18605 0.04954 0.64494 0.0
C323 C 0.19806 0.03052 0.63451 0.0
O324 O 0.20456 0.04398 0.62365 0.0
H325 H 0.13997 0.08165 0.60693 0.0
H326 H 0.22822 0.09391 0.58699 0.0
C327 C 0.17373 0.107 0.68026 0.0
C328 C 0.1887 0.12198 0.69362 0.0
C329 C 0.22154 0.16124 0.68265 0.0
C330 C 0.20701 0.14603 0.66952 0.0
N331 N 0.18322 0.11948 0.66855 0.0
N332 N 0.21221 0.14882 0.69431 0.0
H333 H 0.15553 0.08505 0.67905 0.0
C334 C 0.27712 0.08786 0.6255 0.0
O335 O 0.26266 0.08462 0.637 0.0
O336 O 0.11597 0.08705 0.65005 0.0
H337 H 0.21495 0.1551 0.66016 0.0
H338 H 0.10633 0.07566 0.58387 0.0
H339 H 0.24043 0.18246 0.68358 0.0
Zn340 Zn 0.67887 0.4317 0.39369 0.0
C341 C 0.59481 0.45431 0.3728 0.0
N342 N 0.58324 0.42451 0.37732 0.0
C343 C 0.61151 0.40943 0.38215 0.0
N344 N 0.63895 0.42936 0.38087 0.0
N345 N 0.62842 0.45719 0.37469 0.0
C346 C 0.63638 0.55403 0.37716 0.0
O347 O 0.64701 0.53974 0.38838 0.0
O348 O 0.69654 0.38229 0.39435 0.0
Zn349 Zn 0.65508 0.48522 0.36425 0.0
N350 N 0.6664 0.45203 0.41227 0.0
C351 C 0.63046 0.49212 0.42532 0.0
C352 C 0.64237 0.47771 0.41258 0.0
C353 C 0.6794 0.44033 0.42433 0.0
N354 N 0.64301 0.48022 0.4373 0.0
C355 C 0.66732 0.45475 0.43728 0.0
O356 O 0.705 0.49043 0.37056 0.0
C357 C 0.72642 0.48086 0.37979 0.0
O358 O 0.71814 0.46056 0.38855 0.0
H359 H 0.63215 0.48654 0.40295 0.0
H360 H 0.69813 0.41942 0.42377 0.0
C361 C 0.65024 0.48182 0.33393 0.0
C362 C 0.64706 0.46367 0.31998 0.0
C363 C 0.64478 0.40724 0.32878 0.0
C364 C 0.64795 0.42533 0.3425 0.0
N365 N 0.65059 0.46215 0.34483 0.0
N366 N 0.64449 0.42672 0.31791 0.0
H367 H 0.65307 0.51103 0.33622 0.0
C368 C 0.70935 0.36752 0.38338 0.0
O369 O 0.70687 0.38372 0.37211 0.0
O370 O 0.63668 0.53494 0.36517 0.0
H371 H 0.64843 0.41014 0.35126 0.0
H372 H 0.61117 0.51239 0.42568 0.0
H373 H 0.64269 0.37792 0.32675 0.0
Zn374 Zn 0.35817 0.9626 0.14356 0.0
C375 C 0.30751 0.86529 0.13624 0.0
N376 N 0.33357 0.85591 0.14452 0.0
C377 C 0.35321 0.88575 0.14661 0.0
N378 N 0.34015 0.91246 0.13982 0.0
N379 N 0.31111 0.89963 0.13322 0.0
C380 C 0.22412 0.93151 0.13388 0.0
O381 O 0.24725 0.94411 0.14384 0.0
O382 O 0.40974 0.96695 0.14345 0.0
Zn383 Zn 0.28318 0.92166 0.11907 0.0
N384 N 0.34514 0.98183 0.16209 0.0
C385 C 0.30062 1.01057 0.17404 0.0
C386 C 0.31336 0.9944 0.16174 0.0
C387 C 0.36472 0.984 0.17447 0.0
N388 N 0.32018 1.01357 0.18628 0.0
C389 C 0.3519 1.00069 0.18695 0.0
O390 O 0.29069 0.97599 0.11909 0.0
C391 C 0.31113 1.00236 0.12328 0.0
O392 O 0.3372 0.99865 0.1314 0.0
H393 H 0.29811 0.99219 0.15188 0.0
H394 H 0.38996 0.97382 0.17452 0.0
C395 C 0.27506 0.90176 0.08839 0.0
C396 C 0.2839 0.88256 0.07553 0.0
C397 C 0.32817 0.85501 0.08784 0.0
C398 C 0.31981 0.87451 0.10045 0.0
N399 N 0.29298 0.89679 0.10061 0.0
N400 N 0.31008 0.85943 0.07574 0.0
H401 H 0.25422 0.92017 0.08871 0.0
C402 C 0.42246 0.97974 0.13345 0.0
O403 O 0.4023 0.98814 0.12301 0.0
O404 O 0.23336 0.91742 0.122 0.0
H405 H 0.33477 0.87176 0.11005 0.0
H406 H 0.27544 0.02092 0.17386 0.0
H407 H 0.34912 0.83677 0.08765 0.0
Zn408 Zn 0.87198 0.42461 0.64468 0.0
C409 C 0.83007 0.32595 0.62911 0.0
N410 N 0.85697 0.31518 0.63656 0.0
C411 C 0.87459 0.34613 0.6405 0.0
N412 N 0.8596 0.37485 0.6357 0.0
N413 N 0.83129 0.36222 0.62838 0.0
C414 C 0.74228 0.40538 0.63042 0.0
O415 O 0.76418 0.42589 0.63893 0.0
O416 O 0.92343 0.4337 0.64699 0.0
Zn417 Zn 0.80188 0.38905 0.61621 0.0
N418 N 0.85458 0.42779 0.66315 0.0
C419 C 0.81075 0.40662 0.67524 0.0
C420 C 0.82507 0.40951 0.66283 0.0
C421 C 0.8702 0.4442 0.67559 0.0
N422 N 0.82642 0.42231 0.68761 0.0
C423 C 0.85572 0.44122 0.68824 0.0
O424 O 0.81144 0.44365 0.61835 0.0
C425 C 0.82882 0.47018 0.62518 0.0
O426 O 0.85113 0.4654 0.63492 0.0
H427 H 0.81292 0.39661 0.65297 0.0
H428 H 0.89381 0.45842 0.67567 0.0
C429 C 0.78866 0.37967 0.58557 0.0
C430 C 0.79373 0.36358 0.57175 0.0
C431 C 0.83678 0.32776 0.58086 0.0
C432 C 0.83205 0.34406 0.59444 0.0
N433 N 0.80766 0.36905 0.59665 0.0
N434 N 0.81755 0.33777 0.56989 0.0
H435 H 0.76971 0.39999 0.58752 0.0
C436 C 0.93935 0.43843 0.63645 0.0
O437 O 0.92262 0.43609 0.62405 0.0
O438 O 0.75256 0.38496 0.61991 0.0
H439 H 0.84791 0.33675 0.60314 0.0
H440 H 0.78744 0.39182 0.67508 0.0
H441 H 0.85579 0.30747 0.57902 0.0
Zn442 Zn 0.38098 0.07526 0.37449 0.0
C443 C 0.34165 0.17269 0.38892 0.0
N444 N 0.37123 0.18485 0.38578 0.0
C445 C 0.38819 0.15426 0.38238 0.0
N446 N 0.37014 0.12431 0.38356 0.0
N447 N 0.34083 0.13578 0.38792 0.0
C448 C 0.24883 0.09656 0.38391 0.0
O449 O 0.26688 0.07452 0.37578 0.0
O450 O 0.43182 0.0671 0.37442 0.0
Zn451 Zn 0.31328 0.10747 0.39847 0.0
N452 N 0.3623 0.07386 0.35519 0.0
C453 C 0.31407 0.08805 0.34106 0.0
C454 C 0.33014 0.08512 0.35416 0.0
C455 C 0.37918 0.06483 0.34349 0.0
N456 N 0.33089 0.07976 0.32944 0.0
C457 C 0.36302 0.06809 0.33019 0.0
O458 O 0.31852 0.05184 0.39495 0.0
C459 C 0.33536 0.02581 0.389 0.0
O460 O 0.35926 0.03202 0.38167 0.0
H461 H 0.31734 0.09245 0.36353 0.0
H462 H 0.40494 0.05641 0.34455 0.0
C463 C 0.3084 0.11953 0.42901 0.0
C464 C 0.32156 0.13069 0.44304 0.0
C465 C 0.37229 0.1482 0.43458 0.0
C466 C 0.35943 0.13666 0.42086 0.0
N467 N 0.32771 0.12292 0.41825 0.0
N468 N 0.3532 0.14489 0.44527 0.0
H469 H 0.2833 0.10848 0.4266 0.0
C470 C 0.45276 0.07278 0.38522 0.0
O471 O 0.44194 0.08524 0.39746 0.0
O472 O 0.26351 0.11621 0.39459 0.0
H473 H 0.37487 0.13849 0.41235 0.0
H474 H 0.28854 0.09726 0.34013 0.0
H475 H 0.3974 0.15938 0.43677 0.0
Zn476 Zn 0.69105 0.62244 0.11942 0.0
C477 C 0.64406 0.69894 0.14366 0.0
N478 N 0.66238 0.7208 0.13717 0.0
C479 C 0.68209 0.69719 0.12998 0.0
N480 N 0.67629 0.66284 0.132 0.0
N481 N 0.65286 0.66368 0.14089 0.0
C482 C 0.58593 0.59452 0.13955 0.0
O483 O 0.60597 0.58922 0.12939 0.0
O484 O 0.7406 0.62464 0.11844 0.0
Zn485 Zn 0.64542 0.62573 0.15238 0.0
N486 N 0.668 0.62373 0.10103 0.0
C487 C 0.61569 0.62721 0.08786 0.0
C488 C 0.63417 0.62563 0.10059 0.0
C489 C 0.68436 0.62385 0.08919 0.0
N490 N 0.63183 0.62713 0.07606 0.0
C491 C 0.66578 0.62551 0.0762 0.0
O492 O 0.66789 0.57715 0.14674 0.0
C493 C 0.67917 0.55905 0.13592 0.0
O494 O 0.68465 0.57359 0.12518 0.0
H495 H 0.62174 0.62631 0.11013 0.0
H496 H 0.71136 0.62342 0.09007 0.0
C497 C 0.65475 0.62532 0.18256 0.0
C498 C 0.66852 0.63809 0.19635 0.0
C499 C 0.69526 0.68642 0.18767 0.0
C500 C 0.68207 0.67335 0.1741 0.0
N501 N 0.66181 0.64336 0.17177 0.0
N502 N 0.68833 0.66852 0.19839 0.0
H503 H 0.63951 0.60083 0.18026 0.0
C504 C 0.75706 0.6181 0.1296 0.0
O505 O 0.74087 0.6151 0.14068 0.0
O506 O 0.59681 0.61257 0.15125 0.0
H507 H 0.68846 0.68681 0.16547 0.0
H508 H 0.5887 0.62871 0.08736 0.0
H509 H 0.71132 0.71034 0.18967 0.0
Zn510 Zn 0.18271 0.91958 0.89118 0.0
C511 C 0.09769 0.951 0.87238 0.0
N512 N 0.08588 0.91945 0.87538 0.0
C513 C 0.11386 0.90307 0.8797 0.0
N514 N 0.14155 0.9236 0.87943 0.0
N515 N 0.13137 0.95359 0.87456 0.0
C516 C 0.15171 0.04923 0.88253 0.0
O517 O 0.16437 0.02809 0.89134 0.0
O518 O 0.19378 0.86657 0.89043 0.0
Zn519 Zn 0.15866 0.98371 0.86508 0.0
N520 N 0.17272 0.93952 0.91027 0.0
C521 C 0.13832 0.98041 0.92387 0.0
C522 C 0.14953 0.96617 0.911 0.0
C523 C 0.18544 0.92659 0.92214 0.0
N524 N 0.15046 0.96722 0.93561 0.0
C525 C 0.17379 0.9407 0.93522 0.0
O526 O 0.20906 0.98204 0.87006 0.0
C527 C 0.23159 0.96807 0.87765 0.0
O528 O 0.22404 0.94549 0.88573 0.0
H529 H 0.13914 0.97586 0.9016 0.0
H530 H 0.20338 0.90488 0.92134 0.0
C531 C 0.15306 0.98637 0.83462 0.0
C532 C 0.14782 0.96986 0.82046 0.0
C533 C 0.13733 0.91338 0.82821 0.0
C534 C 0.14296 0.92962 0.8421 0.0
N535 N 0.15049 0.96572 0.8451 0.0
N536 N 0.14 0.93373 0.81779 0.0
H537 H 0.15995 0.01479 0.83733 0.0
C538 C 0.2034 0.84966 0.87908 0.0
O539 O 0.20527 0.8672 0.86828 0.0
O540 O 0.14564 0.03592 0.86967 0.0
H541 H 0.14169 0.91332 0.85044 0.0
H542 H 0.11972 1.00144 0.92451 0.0
H543 H 0.13125 0.8847 0.82571 0.0
C544 C 0.08823 0.35667 0.14377 0.0
C545 C 0.09885 0.37256 0.13254 0.0
C546 C 0.05473 0.34599 0.14379 0.0
C547 C 0.99225 0.30302 0.11902 0.0
H548 H 0.93336 0.31474 0.14914 0.0
C549 C 0.89368 0.19299 0.12007 0.0
C550 C 0.89289 0.18219 0.13336 0.0
C551 C 0.90727 0.22712 0.11881 0.0
C552 C 0.94952 0.31085 0.14063 0.0
H553 H 0.0831 0.3907 0.11274 0.0
H554 H 0.02462 0.3713 0.1126 0.0
H555 H 0.98167 0.35548 0.15024 0.0
H556 H 0.90266 0.19899 0.15571 0.0
H557 H 0.92685 0.25724 0.15369 0.0
H558 H 0.96282 0.25644 0.11001 0.0
C559 C 0.0419 0.36803 0.12156 0.0
C560 C 0.97702 0.33453 0.14124 0.0
C561 C 0.07523 0.37937 0.1217 0.0
C562 C 0.90276 0.20702 0.14534 0.0
C563 C 0.91665 0.24068 0.14412 0.0
C564 C 0.96536 0.27875 0.11858 0.0
C565 C 0.03164 0.35008 0.13236 0.0
C566 C 0.99914 0.33014 0.13063 0.0
C567 C 0.92095 0.25051 0.13082 0.0
C568 C 0.94426 0.28137 0.12965 0.0
H569 H 0.10623 0.35038 0.15205 0.0
H570 H 0.04753 0.3318 0.15215 0.0
H571 H 0.00912 0.29887 0.11075 0.0
H572 H 0.88646 0.17405 0.11067 0.0
H573 H 0.90907 0.23402 0.10837 0.0
C574 C 0.94234 0.85093 0.39838 0.0
C575 C 0.91839 0.86073 0.38821 0.0
C576 C 0.95433 0.8154 0.39729 0.0
C577 C 0.98031 0.75216 0.37008 0.0
H578 H 0.99671 0.68563 0.39719 0.0
C579 C 0.08837 0.65347 0.36319 0.0
C580 C 0.10753 0.64895 0.3756 0.0
C581 C 0.05581 0.66696 0.36371 0.0
C582 C 0.9928 0.70403 0.38951 0.0
H583 H 0.88676 0.8409 0.36939 0.0
H584 H 0.90847 0.77895 0.36722 0.0
H585 H 0.95628 0.73413 0.40139 0.0
H586 H 0.1075 0.65288 0.39815 0.0
H587 H 0.05212 0.67792 0.39929 0.0
H588 H 0.01879 0.72547 0.35887 0.0
C589 C 0.91726 0.79844 0.37624 0.0
C590 C 0.96921 0.73154 0.39188 0.0
C591 C 0.90461 0.83376 0.37757 0.0
C592 C 0.09291 0.65559 0.3884 0.0
C593 C 0.06086 0.67004 0.389 0.0
C594 C 1.00456 0.72548 0.3679 0.0
C595 C 0.94325 0.78942 0.38576 0.0
C596 C 0.96326 0.7563 0.38231 0.0
C597 C 0.04233 0.67778 0.37673 0.0
C598 C 0.01203 0.70152 0.37778 0.0
H599 H 0.95388 0.87148 0.40648 0.0
H600 H 0.9746 0.80927 0.40468 0.0
H601 H 0.97652 0.77124 0.36262 0.0
H602 H 0.0993 0.64876 0.3532 0.0
H603 H 0.04212 0.6709 0.35392 0.0
C604 C 0.42115 0.65077 0.61149 0.0
C605 C 0.40579 0.64095 0.62297 0.0
C606 C 0.43617 0.68513 0.61231 0.0
C607 C 0.48494 0.74557 0.63847 0.0
H608 H 0.48898 0.80719 0.60953 0.0
C609 C 0.59999 0.83835 0.6392 0.0
C610 C 0.61251 0.83762 0.62603 0.0
C611 C 0.56704 0.8265 0.64013 0.0
C612 C 0.48844 0.79019 0.61771 0.0
H613 H 0.39264 0.6598 0.64406 0.0
H614 H 0.41923 0.7198 0.6456 0.0
H615 H 0.4436 0.76249 0.60789 0.0
H616 H 0.60045 0.82606 0.60358 0.0
H617 H 0.54397 0.8049 0.60504 0.0
H618 H 0.53106 0.77043 0.64769 0.0
C619 C 0.41911 0.7012 0.63586 0.0
C620 C 0.46216 0.76479 0.61681 0.0
C621 C 0.40346 0.66707 0.6349 0.0
C622 C 0.59108 0.82742 0.61386 0.0
C623 C 0.55848 0.81528 0.61475 0.0
C624 C 0.51161 0.77035 0.63922 0.0
C625 C 0.43688 0.70996 0.6248 0.0
C626 C 0.46062 0.74154 0.62699 0.0
C627 C 0.54632 0.81303 0.62789 0.0
C628 C 0.51446 0.79225 0.6286 0.0
H629 H 0.42401 0.6308 0.60232 0.0
H630 H 0.44989 0.69094 0.60367 0.0
H631 H 0.48467 0.72774 0.6464 0.0
H632 H 0.61629 0.84568 0.64873 0.0
H633 H 0.5585 0.82612 0.65046 0.0
C634 C 0.37649 0.29617 0.84987 0.0
C635 C 0.3813 0.32895 0.85907 0.0
C636 C 0.40384 0.27564 0.84553 0.0
C637 C 0.46129 0.22529 0.85049 0.0
H638 H 0.54894 0.26295 0.84558 0.0
C639 C 0.58519 0.15928 0.86717 0.0
C640 C 0.61345 0.16482 0.86008 0.0
C641 C 0.55424 0.17319 0.8629 0.0
C642 C 0.52454 0.25169 0.84666 0.0
H643 H 0.41832 0.36699 0.87037 0.0
H644 H 0.46623 0.33162 0.86268 0.0
H645 H 0.50077 0.30251 0.84487 0.0
H646 H 0.63141 0.18686 0.84249 0.0
H647 H 0.57728 0.21029 0.83473 0.0
H648 H 0.48521 0.17469 0.85262 0.0
C649 C 0.44139 0.32185 0.8586 0.0
C650 C 0.49696 0.27458 0.84642 0.0
C651 C 0.41392 0.34246 0.8629 0.0
C652 C 0.60978 0.18182 0.84799 0.0
C653 C 0.57891 0.19567 0.84369 0.0
C654 C 0.48888 0.20241 0.85077 0.0
C655 C 0.43661 0.28733 0.85044 0.0
C656 C 0.46511 0.26192 0.84864 0.0
C657 C 0.55119 0.19323 0.85153 0.0
C658 C 0.52099 0.21553 0.84917 0.0
H659 H 0.3515 0.2851 0.84685 0.0
H660 H 0.39927 0.2496 0.839 0.0
H661 H 0.43723 0.21465 0.85242 0.0
H662 H 0.58768 0.14739 0.87681 0.0
H663 H 0.53354 0.17097 0.86926 0.0
C664 C 0.92085 0.66828 0.87158 0.0
C665 C 0.90834 0.67229 0.88484 0.0
C666 C 0.95396 0.67898 0.87026 0.0
C667 C 0.0328 0.71803 0.89179 0.0
H668 H 0.03652 0.77457 0.86123 0.0
C669 C 0.09786 0.85752 0.89438 0.0
C670 C 0.11283 0.86531 0.88251 0.0
C671 C 0.08378 0.82309 0.89454 0.0
C672 C 0.03628 0.75836 0.86969 0.0
H673 H 0.92057 0.68826 0.90712 0.0
H674 H 0.97723 0.70751 0.90497 0.0
H675 H 0.99032 0.73221 0.86099 0.0
H676 H 0.12669 0.84305 0.86186 0.0
H677 H 0.10175 0.78291 0.86204 0.0
H678 H 0.07741 0.74717 0.90104 0.0
C679 C 0.96261 0.69548 0.8955 0.0
C680 C 0.00973 0.73378 0.86954 0.0
C681 C 0.92988 0.68455 0.89678 0.0
C682 C 0.11597 0.83735 0.87128 0.0
C683 C 0.10135 0.80312 0.87131 0.0
C684 C 0.05896 0.74327 0.89208 0.0
C685 C 0.97482 0.69445 0.88219 0.0
C686 C 1.00684 0.71417 0.88085 0.0
C687 C 0.08372 0.79623 0.88267 0.0
C688 C 0.06042 0.76445 0.88123 0.0
H689 H 0.9045 0.65925 0.86221 0.0
H690 H 0.96256 0.6769 0.85984 0.0
H691 H 0.03221 0.70274 0.9005 0.0
H692 H 0.09441 0.87895 0.903 0.0
H693 H 0.07013 0.81869 0.9034 0.0
C694 C 0.10488 0.17189 0.64637 0.0
C695 C 0.13782 0.18523 0.64898 0.0
C696 C 0.07848 0.19298 0.65145 0.0
C697 C 0.06018 0.28987 0.6592 0.0
H698 H 0.97342 0.25311 0.66585 0.0
C699 C 0.91119 0.33163 0.66079 0.0
C700 C 0.90775 0.34622 0.64814 0.0
C701 C 0.9422 0.3193 0.66573 0.0
C702 C 0.9976 0.26419 0.66432 0.0
H703 H 0.16959 0.22932 0.65982 0.0
H704 H 0.1237 0.26574 0.66908 0.0
H705 H 0.02176 0.21388 0.66664 0.0
H706 H 0.93373 0.36042 0.63092 0.0
H707 H 0.98801 0.33965 0.63955 0.0
H708 H 0.03585 0.33987 0.65652 0.0
C709 C 0.118 0.23944 0.6629 0.0
C710 C 0.02527 0.24147 0.6646 0.0
C711 C 0.14429 0.21846 0.65773 0.0
C712 C 0.93612 0.35066 0.641 0.0
C713 C 0.96717 0.33837 0.64591 0.0
C714 C 0.03253 0.31261 0.65894 0.0
C715 C 0.08466 0.22781 0.65921 0.0
C716 C 0.05668 0.25362 0.66158 0.0
C717 C 0.9702 0.32086 0.65796 0.0
C718 C 1.00067 0.29966 0.66102 0.0
H719 H 0.09921 0.14696 0.63926 0.0
H720 H 0.05315 0.18326 0.64826 0.0
H721 H 0.08388 0.30016 0.65669 0.0
H722 H 0.88939 0.32734 0.6663 0.0
H723 H 0.94378 0.30647 0.67514 0.0
C724 C 0.43904 0.155 0.36907 0.0
C725 C 0.42467 0.15602 0.38186 0.0
C726 C 0.47148 0.16913 0.36882 0.0
C727 C 0.54386 0.21576 0.39277 0.0
H728 H 0.54615 0.2745 0.3628 0.0
C729 C 0.62163 0.34381 0.37581 0.0
C730 C 0.61127 0.37224 0.38566 0.0
C731 C 0.60966 0.30829 0.37564 0.0
C732 C 0.54627 0.25778 0.37112 0.0
H733 H 0.433 0.17042 0.40438 0.0
H734 H 0.48842 0.19563 0.40409 0.0
H735 H 0.50422 0.22655 0.36098 0.0
H736 H 0.58254 0.38576 0.40363 0.0
H737 H 0.56316 0.32335 0.40386 0.0
H738 H 0.584 0.25018 0.40345 0.0
C739 C 0.47592 0.18326 0.39418 0.0
C740 C 0.52226 0.22994 0.37007 0.0
C741 C 0.44389 0.1688 0.3944 0.0
C742 C 0.5915 0.36411 0.39616 0.0
C743 C 0.58027 0.32847 0.39622 0.0
C744 C 0.56728 0.24433 0.39397 0.0
C745 C 0.48966 0.1854 0.38135 0.0
C746 C 0.51983 0.20926 0.3811 0.0
C747 C 0.58782 0.30063 0.38552 0.0
C748 C 0.5681 0.26616 0.38331 0.0
H749 H 0.42443 0.1457 0.35924 0.0
H750 H 0.48139 0.16921 0.35873 0.0
H751 H 0.54373 0.19987 0.40132 0.0
H752 H 0.6361 0.34963 0.36738 0.0
H753 H 0.61564 0.28733 0.36724 0.0
C754 C 0.41439 0.88642 0.14457 0.0
C755 C 0.38772 0.88426 0.15294 0.0
C756 C 0.44543 0.87172 0.1482 0.0
C757 C 0.47607 0.79554 0.16541 0.0
H758 H 0.56284 0.82859 0.15709 0.0
C759 C 0.62264 0.74703 0.16095 0.0
C760 C 0.61709 0.71364 0.15219 0.0
C761 C 0.59578 0.76844 0.16522 0.0
C762 C 0.53893 0.8191 0.1597 0.0
H763 H 0.37282 0.86692 0.172 0.0
H764 H 0.42712 0.84173 0.17851 0.0
H765 H 0.51568 0.86977 0.15707 0.0
H766 H 0.57926 0.67544 0.14166 0.0
H767 H 0.5321 0.71246 0.14928 0.0
H768 H 0.49911 0.7445 0.16762 0.0
C769 C 0.42418 0.85467 0.16913 0.0
C770 C 0.51183 0.84266 0.15956 0.0
C771 C 0.39326 0.86954 0.16552 0.0
C772 C 0.58421 0.7005 0.14878 0.0
C773 C 0.55721 0.72201 0.15303 0.0
C774 C 0.50313 0.77189 0.16546 0.0
C775 C 0.45011 0.85402 0.16016 0.0
C776 C 0.47993 0.83098 0.16216 0.0
C777 C 0.56275 0.75703 0.1607 0.0
C778 C 0.53478 0.78317 0.16238 0.0
H779 H 0.41034 0.89611 0.13451 0.0
H780 H 0.46473 0.87141 0.14098 0.0
H781 H 0.45174 0.78545 0.16728 0.0
H782 H 0.64784 0.75783 0.16363 0.0
H783 H 0.60093 0.7949 0.17136 0.0
C784 C 0.26921 0.04823 0.11638 0.0
C785 C 0.30259 0.03938 0.11991 0.0
C786 C 0.26046 0.08389 0.11464 0.0
C787 C 0.2935 0.18034 0.1225 0.0
H788 H 0.21282 0.19786 0.09974 0.0
C789 C 0.22906 0.32049 0.12828 0.0
C790 C 0.20584 0.32889 0.11758 0.0
C791 C 0.24601 0.28738 0.12681 0.0
C792 C 0.23587 0.19393 0.10594 0.0
H793 H 0.35314 0.06119 0.12384 0.0
H794 H 0.33835 0.12273 0.12006 0.0
H795 H 0.23188 0.13644 0.09989 0.0
H796 H 0.18362 0.31038 0.0966 0.0
H797 H 0.21512 0.25416 0.09342 0.0
H798 H 0.29835 0.23803 0.128 0.0
C799 C 0.3185 0.10257 0.11916 0.0
C800 C 0.24651 0.15815 0.10629 0.0
C801 C 0.32715 0.067 0.12119 0.0
C802 C 0.20193 0.30491 0.10491 0.0
C803 C 0.21945 0.27214 0.10327 0.0
C804 C 0.28323 0.21623 0.12193 0.0
C805 C 0.28489 0.11188 0.11607 0.0
C806 C 0.27511 0.15054 0.11481 0.0
C807 C 0.24046 0.26184 0.11448 0.0
C808 C 0.25379 0.22373 0.11387 0.0
H809 H 0.24951 0.02785 0.1155 0.0
H810 H 0.23423 0.08953 0.1126 0.0
H811 H 0.31548 0.17616 0.12933 0.0
H812 H 0.23174 0.33797 0.13833 0.0
H813 H 0.26149 0.28092 0.13581 0.0
C814 C 0.9571 1.00705 0.38477 0.0
C815 C 0.95208 0.97553 0.3749 0.0
C816 C 0.98418 0.03049 0.3843 0.0
C817 C 0.05398 0.05067 0.36317 0.0
H818 H 0.10411 0.07072 0.39963 0.0
C819 C 0.19665 0.07224 0.36964 0.0
C820 C 0.2118 0.09464 0.38148 0.0
C821 C 0.16207 0.0663 0.36803 0.0
C822 C 0.09026 0.0662 0.3894 0.0
H823 H 0.97091 0.94381 0.35672 0.0
H824 H 0.01824 0.98468 0.35577 0.0
H825 H 0.04772 0.04561 0.39786 0.0
H826 H 0.20212 0.13 0.40058 0.0
H827 H 0.14149 0.12 0.3977 0.0
H828 H 0.09699 0.07035 0.35468 0.0
C829 C 1.00087 0.99198 0.36368 0.0
C830 C 0.05779 0.05172 0.38838 0.0
C831 C 0.97376 0.96856 0.36419 0.0
C832 C 0.19128 0.11244 0.39136 0.0
C833 C 0.15654 0.1065 0.38975 0.0
C834 C 0.08644 0.06532 0.3642 0.0
C835 C 1.00714 0.02251 0.37406 0.0
C836 C 0.03953 0.04292 0.37522 0.0
C837 C 0.14157 0.08268 0.37821 0.0
C838 C 0.10537 0.07236 0.37729 0.0
H839 H 0.94173 1.01206 0.39353 0.0
H840 H 0.98816 0.05382 0.3924 0.0
H841 H 0.04045 0.04466 0.3529 0.0
H842 H 0.21162 0.05815 0.36178 0.0
H843 H 0.15167 0.04744 0.35911 0.0
C844 C 0.30404 0.72142 0.623 0.0
C845 C 0.30661 0.70437 0.63512 0.0
C846 C 0.29184 0.75669 0.62352 0.0
C847 C 0.2757 0.84013 0.6478 0.0
H848 H 0.21345 0.8594 0.6169 0.0
C849 C 0.20667 0.97709 0.64769 0.0
C850 C 0.20668 0.99202 0.63511 0.0
C851 C 0.21717 0.94138 0.64824 0.0
C852 C 0.23095 0.85452 0.62557 0.0
H853 H 0.29937 0.71142 0.65739 0.0
H854 H 0.27785 0.77282 0.65825 0.0
H855 H 0.23672 0.79899 0.61678 0.0
H856 H 0.21699 0.98074 0.61316 0.0
H857 H 0.23519 0.91903 0.61416 0.0
H858 H 0.26997 0.89588 0.65653 0.0
C859 C 0.28545 0.75903 0.64837 0.0
C860 C 0.24438 0.81993 0.62548 0.0
C861 C 0.29767 0.72375 0.64785 0.0
C862 C 0.21665 0.97022 0.62305 0.0
C863 C 0.22692 0.93466 0.62358 0.0
C864 C 0.26221 0.8748 0.64789 0.0
C865 C 0.28193 0.77571 0.63617 0.0
C866 C 0.2672 0.81241 0.6365 0.0
C867 C 0.22758 0.91988 0.63619 0.0
C868 C 0.23998 0.88247 0.63669 0.0
H869 H 0.31097 0.70734 0.61305 0.0
H870 H 0.29005 0.76903 0.61399 0.0
H871 H 0.29341 0.8353 0.6564 0.0
H872 H 0.19919 0.99315 0.65718 0.0
H873 H 0.21714 0.9306 0.65809 0.0
C874 C 0.535 0.03431 0.88321 0.0
C875 C 0.54655 0.0547 0.87331 0.0
C876 C 0.50102 0.0255 0.88314 0.0
C877 C 0.41538 0.05163 0.87094 0.0
H878 H 0.39173 0.95549 0.87835 0.0
C879 C 0.27666 1.00126 0.8674 0.0
C880 C 0.26753 0.97836 0.87694 0.0
C881 C 0.3103 1.01076 0.86661 0.0
C882 C 0.39772 0.98267 0.87646 0.0
H883 H 0.53072 0.08231 0.85563 0.0
H884 H 0.47111 0.06695 0.85551 0.0
H885 H 0.45018 0.97173 0.8774 0.0
H886 H 0.28728 0.9479 0.89324 0.0
H887 H 0.34559 0.96487 0.89206 0.0
H888 H 0.36289 0.0627 0.87015 0.0
C889 C 0.4886 0.05779 0.86338 0.0
C890 C 0.43144 0.99199 0.87587 0.0
C891 C 0.52284 0.06644 0.86339 0.0
C892 C 0.29317 0.96542 0.88571 0.0
C893 C 0.32681 0.97502 0.88495 0.0
C894 C 0.38158 0.04235 0.87159 0.0
C895 C 0.47722 0.03687 0.8732 0.0
C896 C 0.44089 0.0267 0.8732 0.0
C897 C 0.33602 0.99779 0.87536 0.0
C898 C 0.37215 1.00774 0.87445 0.0
H899 H 0.55232 0.02483 0.89107 0.0
H900 H 0.49337 1.00997 0.89103 0.0
H901 H 0.42157 0.07873 0.86901 0.0
H902 H 0.2578 1.01174 0.86041 0.0
H903 H 0.31613 0.02786 0.85893 0.0
C904 C 0.30173 0.9796 0.39918 0.0
C905 C 0.3257 0.98724 0.39009 0.0
C906 C 0.29139 0.9437 0.39974 0.0
C907 C 0.31288 0.84524 0.38881 0.0
H908 H 0.22049 0.82933 0.39546 0.0
C909 C 0.245 0.70209 0.37914 0.0
C910 C 0.21958 0.69621 0.3878 0.0
C911 C 0.26207 0.73588 0.38079 0.0
C912 C 0.24655 0.8331 0.3938 0.0
H913 H 0.35761 0.96215 0.37449 0.0
H914 H 0.33916 0.89994 0.3752 0.0
H915 H 0.241 0.89067 0.3953 0.0
H916 H 0.19313 0.72087 0.40529 0.0
H917 H 0.22339 0.77886 0.40853 0.0
H918 H 0.31787 0.78717 0.38692 0.0
C919 C 0.32871 0.92163 0.38216 0.0
C920 C 0.25845 0.86863 0.39372 0.0
C921 C 0.33926 0.95758 0.38169 0.0
C922 C 0.21314 0.72412 0.39867 0.0
C923 C 0.23008 0.75775 0.40033 0.0
C924 C 0.30084 0.80954 0.38878 0.0
C925 C 0.30434 0.91397 0.39112 0.0
C926 C 0.29188 0.87552 0.39126 0.0
C927 C 0.25382 0.76482 0.39104 0.0
C928 C 0.26746 0.80286 0.39134 0.0
H929 H 0.29076 1.00147 0.4059 0.0
H930 H 0.2732 0.93937 0.40703 0.0
H931 H 0.33887 0.84901 0.38705 0.0
H932 H 0.2497 0.68176 0.37033 0.0
H933 H 0.28 0.74009 0.37337 0.0
C934 C 0.54977 0.95438 0.63527 0.0
C935 C 0.56705 0.94662 0.62313 0.0
C936 C 0.51942 0.97251 0.6348 0.0
C937 C 0.4489 0.99509 0.61098 0.0
H938 H 0.43566 0.07241 0.6415 0.0
C939 C 0.32799 0.07803 0.61211 0.0
C940 C 0.3132 0.08101 0.62492 0.0
C941 C 0.36096 0.06641 0.6113 0.0
C942 C 0.43896 0.05083 0.63293 0.0
H943 H 0.56545 0.95053 0.60086 0.0
H944 H 0.51231 0.98218 0.60006 0.0
H945 H 0.48853 0.04029 0.64115 0.0
H946 H 0.32193 0.07635 0.64708 0.0
H947 H 0.37911 0.05593 0.64566 0.0
H948 H 0.39905 1.00508 0.60291 0.0
C949 C 0.5223 0.97423 0.60992 0.0
C950 C 0.46916 0.03237 0.63275 0.0
C951 C 0.55275 0.95617 0.6104 0.0
C952 C 0.33255 0.07416 0.63704 0.0
C953 C 0.36544 0.06266 0.63624 0.0
C954 C 0.41862 1.01351 0.61117 0.0
C955 C 0.50564 0.98314 0.62217 0.0
C956 C 0.47423 1.00392 0.6219 0.0
C957 C 0.37974 0.05778 0.62331 0.0
C958 C 0.41314 0.04117 0.62227 0.0
H959 H 0.56001 0.94716 0.64523 0.0
H960 H 0.50678 0.97837 0.64434 0.0
H961 H 0.45203 0.97312 0.60253 0.0
H962 H 0.31375 0.08334 0.6026 0.0
H963 H 0.37152 0.06341 0.60123 0.0
C964 C 0.14412 0.11291 0.87739 0.0
C965 C 0.14952 0.08869 0.88722 0.0
C966 C 0.14885 0.15025 0.88157 0.0
C967 C 0.20368 0.20771 0.9072 0.0
H968 H 0.16538 0.28336 0.88742 0.0
C969 C 0.28503 0.32835 0.90113 0.0
C970 C 0.28581 0.33096 0.88683 0.0
C971 C 0.25828 0.31024 0.90573 0.0
C972 C 0.17617 0.26271 0.89319 0.0
H973 H 0.16024 0.08479 0.90937 0.0
H974 H 0.16835 0.14995 0.91664 0.0
H975 H 0.13409 0.22669 0.88696 0.0
H976 H 0.25909 0.31978 0.86626 0.0
H977 H 0.2128 0.28803 0.87408 0.0
H978 H 0.2468 0.24211 0.91249 0.0
C979 C 0.16117 0.14007 0.90568 0.0
C980 C 0.15826 0.23027 0.89291 0.0
C981 C 0.15654 0.10274 0.90149 0.0
C982 C 0.25876 0.31786 0.87736 0.0
C983 C 0.23208 0.30006 0.8819 0.0
C984 C 0.22162 0.23999 0.90743 0.0
C985 C 0.15894 0.16406 0.89566 0.0
C986 C 0.17267 0.20167 0.89926 0.0
C987 C 0.23218 0.29456 0.89603 0.0
C988 C 0.20892 0.26694 0.89971 0.0
H989 H 0.13842 0.10293 0.86633 0.0
H990 H 0.14713 0.16791 0.87355 0.0
H991 H 0.21566 0.18624 0.91217 0.0
H992 H 0.30588 0.33835 0.90855 0.0
H993 H 0.25894 0.30672 0.91669 0.0
C994 C 0.16278 0.92962 0.12511 0.0
C995 C 0.18819 0.93829 0.13607 0.0
C996 C 0.12961 0.94014 0.12695 0.0
C997 C 0.08335 1.0108 0.14786 0.0
H998 H 1.00422 0.95221 0.13408 0.0
C999 C 0.95461 0.07157 0.15609 0.0
C1000 C 0.93024 0.0652 0.14471 0.0
C1001 C 0.98321 0.05018 0.15653 0.0
C1002 C 0.02601 0.96909 0.13791 0.0
H1003 H 0.19805 0.9633 0.15779 0.0
H1004 H 0.1407 0.98147 0.16093 0.0
H1005 H 0.05978 0.92631 0.1314 0.0
H1006 H 0.91597 0.03071 0.12508 0.0
H1007 H 0.96604 0.99368 0.12563 0.0
H1008 H 0.05036 0.05399 0.15386 0.0
C1009 C 0.14637 0.96698 0.15085 0.0
C1010 C 0.05789 0.95417 0.13637 0.0
C1011 C 0.17932 0.95635 0.14905 0.0
C1012 C 0.93393 0.03552 0.1342 0.0
C1013 C 0.96291 0.01446 0.13448 0.0
C1014 C 0.05168 0.02578 0.14926 0.0
C1015 C 0.12118 0.95977 0.13975 0.0
C1016 C 0.08698 0.97486 0.14137 0.0
C1017 C 0.98872 0.02256 0.14535 0.0
C1018 C 0.0224 1.00524 0.14436 0.0
H1019 H 0.16867 0.91574 0.11497 0.0
H1020 H 0.11086 0.93424 0.11816 0.0
H1021 H 0.10514 0.02783 0.15157 0.0
H1022 H 0.9525 0.09455 0.16425 0.0
H1023 H 1.00182 0.05661 0.16534 0.0
C1024 C 0.80875 0.74946 0.9072 0.0
C1025 C 0.80018 0.71839 0.89741 0.0
C1026 C 0.79022 0.78132 0.90724 0.0
C1027 C 0.73739 0.82848 0.88236 0.0
H1028 H 0.73165 0.90108 0.91517 0.0
C1029 C 0.68204 0.97153 0.87814 0.0
C1030 C 0.69894 1.00157 0.88635 0.0
C1031 C 0.69004 0.93582 0.8802 0.0
C1032 C 0.73325 0.88126 0.90586 0.0
H1033 H 0.76423 0.6959 0.88041 0.0
H1034 H 0.73102 0.75121 0.88071 0.0
H1035 H 0.7507 0.84019 0.91805 0.0
H1036 H 0.73736 0.01698 0.90337 0.0
H1037 H 0.75128 0.95502 0.9069 0.0
H1038 H 0.72042 0.86973 0.87016 0.0
C1039 C 0.75243 0.75111 0.88831 0.0
C1040 C 0.74415 0.84616 0.90752 0.0
C1041 C 0.77099 0.71903 0.88834 0.0
C1042 C 0.72367 0.99472 0.89684 0.0
C1043 C 0.73157 0.95902 0.89893 0.0
C1044 C 0.72639 0.86356 0.8807 0.0
C1045 C 0.7626 0.78323 0.89739 0.0
C1046 C 0.74697 0.81932 0.89578 0.0
C1047 C 0.71508 0.92894 0.89057 0.0
C1048 C 0.72467 0.89073 0.89241 0.0
H1049 H 0.83147 0.75004 0.91414 0.0
H1050 H 0.79922 0.80524 0.91433 0.0
H1051 H 0.73969 0.809 0.87301 0.0
H1052 H 0.6628 0.97553 0.86998 0.0
H1053 H 0.67644 0.91353 0.87365 0.0
C1054 C 0.058 0.02463 0.62708 0.0
C1055 C 0.07047 0.0486 0.639 0.0
C1056 C 0.02817 1.00536 0.62713 0.0
C1057 C 0.95056 1.00442 0.64482 0.0
H1058 H 0.94641 0.90321 0.62782 0.0
C1059 C 0.83125 0.91884 0.64409 0.0
C1060 C 0.82011 0.89981 0.63085 0.0
C1061 C 0.86381 0.93298 0.64662 0.0
C1062 C 0.94716 0.93146 0.63257 0.0
H1063 H 0.06094 0.07194 0.66021 0.0
H1064 H 1.00865 0.03814 0.66029 0.0
H1065 H 0.99868 0.93767 0.62906 0.0
H1066 H 0.83511 0.87835 0.61022 0.0
H1067 H 0.89183 0.90321 0.61459 0.0
H1068 H 0.89892 0.99846 0.64809 0.0
C1069 C 0.022 0.03438 0.65089 0.0
C1070 C 0.97704 0.95123 0.63325 0.0
C1071 C 0.05194 0.05371 0.65085 0.0
C1072 C 0.8429 0.89296 0.62052 0.0
C1073 C 0.87547 0.90714 0.62305 0.0
C1074 C 0.92068 0.98466 0.64414 0.0
C1075 C 0.01008 1.00959 0.6391 0.0
C1076 C 0.97892 0.98808 0.63919 0.0
C1077 C 0.8859 0.92836 0.63596 0.0
C1078 C 0.91853 0.94809 0.63784 0.0
H1079 H 0.07156 0.02023 0.61774 0.0
H1080 H 0.01928 0.98709 0.61777 0.0
H1081 H 0.9511 0.03285 0.64933 0.0
H1082 H 0.8144 0.92427 0.65233 0.0
H1083 H 0.87135 0.94855 0.65677 0.0
C1084 C 0.73942 0.32341 0.3969 0.0
C1085 C 0.73087 0.3357 0.38399 0.0
C1086 C 0.76239 0.29564 0.39778 0.0
C1087 C 0.82942 0.24705 0.37889 0.0
H1088 H 0.8108 0.17231 0.40143 0.0
C1089 C 0.8788 0.10141 0.37108 0.0
C1090 C 0.88275 0.08311 0.38285 0.0
C1091 C 0.86918 0.13769 0.37262 0.0
C1092 C 0.81685 0.1934 0.39535 0.0
H1093 H 0.73894 0.32796 0.36181 0.0
H1094 H 0.77828 0.27858 0.36326 0.0
H1095 H 0.77366 0.22349 0.40102 0.0
H1096 H 0.88445 0.08956 0.40561 0.0
H1097 H 0.86796 0.15299 0.4083 0.0
H1098 H 0.87193 0.21573 0.37276 0.0
C1099 C 0.76794 0.29112 0.37277 0.0
C1100 C 0.79545 0.2227 0.39507 0.0
C1101 C 0.74512 0.3191 0.37191 0.0
C1102 C 0.8809 0.10279 0.39632 0.0
C1103 C 0.87139 0.13906 0.39786 0.0
C1104 C 0.85079 0.21753 0.3791 0.0
C1105 C 0.77706 0.27934 0.38575 0.0
C1106 C 0.80117 0.24955 0.38668 0.0
C1107 C 0.86357 0.15615 0.38597 0.0
C1108 C 0.84441 0.19017 0.38719 0.0
H1109 H 0.72906 0.33586 0.40642 0.0
H1110 H 0.76911 0.28742 0.40795 0.0
H1111 H 0.83481 0.2677 0.37251 0.0
H1112 H 0.8804 0.08702 0.36057 0.0
H1113 H 0.86337 0.15019 0.36326 0.0
C1114 C 0.71335 0.07795 0.12383 0.0
C1115 C 0.73827 0.06579 0.13314 0.0
C1116 C 0.67963 0.06789 0.12407 0.0
C1117 C 0.62411 1.0007 0.13708 0.0
H1118 H 0.5553 0.06992 0.12969 0.0
C1119 C 0.48231 0.9767 0.14408 0.0
C1120 C 0.45915 0.98731 0.13371 0.0
C1121 C 0.51658 0.98532 0.1443 0.0
C1122 C 0.57413 0.05006 0.13166 0.0
H1123 H 0.7467 0.0334 0.15006 0.0
H1124 H 0.68825 0.0166 0.15065 0.0
H1125 H 0.61385 0.08677 0.12942 0.0
H1126 H 0.45436 0.01493 0.11532 0.0
H1127 H 0.51343 0.02976 0.11572 0.0
H1128 H 0.5841 0.96416 0.13946 0.0
C1129 C 0.6947 0.03335 0.14294 0.0
C1130 C 0.60789 0.05973 0.13146 0.0
C1131 C 0.72839 0.04324 0.14266 0.0
C1132 C 0.47126 1.00635 0.12352 0.0
C1133 C 0.50528 0.01516 0.1238 0.0
C1134 C 0.59028 0.99111 0.13736 0.0
C1135 C 0.66969 0.04551 0.13367 0.0
C1136 C 0.6335 0.03516 0.13406 0.0
C1137 C 0.52849 1.00507 0.13423 0.0
C1138 C 0.56475 0.01555 0.13454 0.0
H1139 H 0.71987 0.09517 0.11629 0.0
H1140 H 0.6614 0.07741 0.11657 0.0
H1141 H 0.64287 0.98072 0.13896 0.0
H1142 H 0.47395 0.96192 0.15207 0.0
H1143 H 0.53365 0.97718 0.15253 0.0
C1144 C 0.8137 0.26978 0.6129 0.0
C1145 C 0.80405 0.29879 0.6227 0.0
C1146 C 0.79692 0.23606 0.61099 0.0
C1147 C 0.74902 0.18015 0.63153 0.0
H1148 H 0.74281 0.11173 0.59706 0.0
C1149 C 0.69827 0.03234 0.62956 0.0
C1150 C 0.71374 1.00412 0.62116 0.0
C1151 C 0.70576 0.06899 0.62895 0.0
C1152 C 0.74465 0.13029 0.60684 0.0
H1153 H 0.76827 0.31535 0.63783 0.0
H1154 H 0.73816 0.25682 0.63428 0.0
H1155 H 0.75936 0.1747 0.59664 0.0
H1156 H 0.74941 0.99307 0.60543 0.0
H1157 H 0.76273 0.05664 0.60449 0.0
H1158 H 0.73499 0.13568 0.6418 0.0
C1159 C 0.75892 0.26004 0.62805 0.0
C1160 C 0.75407 0.16663 0.60658 0.0
C1161 C 0.77566 0.29396 0.62987 0.0
C1162 C 0.73683 1.01384 0.61205 0.0
C1163 C 0.74433 0.05052 0.61144 0.0
C1164 C 0.73964 0.14382 0.6318 0.0
C1165 C 0.77021 0.23008 0.61902 0.0
C1166 C 0.75679 0.19213 0.61895 0.0
C1167 C 0.72901 0.07878 0.61991 0.0
C1168 C 0.73765 0.11811 0.61948 0.0
H1169 H 0.83623 0.27211 0.60761 0.0
H1170 H 0.80676 0.21389 0.60404 0.0
H1171 H 0.7514 0.19852 0.64136 0.0
H1172 H 0.68024 0.02616 0.63667 0.0
H1173 H 0.69297 0.08971 0.6355 0.0
C1174 C 0.74213 0.96413 0.38993 0.0
C1175 C 0.76575 0.98275 0.38349 0.0
C1176 C 0.7086 0.97479 0.38969 0.0
C1177 C 0.6532 0.05249 0.38609 0.0
H1178 H 0.58313 0.97888 0.37665 0.0
C1179 C 0.51302 0.07981 0.39489 0.0
C1180 C 0.48895 0.06486 0.38415 0.0
C1181 C 0.54694 0.07124 0.39425 0.0
C1182 C 0.60236 0.99981 0.37923 0.0
H1183 H 0.77242 0.02772 0.37192 0.0
H1184 H 0.71403 0.04679 0.37178 0.0
H1185 H 0.64179 0.96114 0.37679 0.0
H1186 H 0.48195 0.02954 0.36417 0.0
H1187 H 0.54107 1.01405 0.36318 0.0
H1188 H 0.61371 0.09111 0.38872 0.0
C1189 C 0.72151 0.02375 0.37695 0.0
C1190 C 0.63602 0.9896 0.37943 0.0
C1191 C 0.75497 1.01271 0.37698 0.0
C1192 C 0.49977 0.0415 0.37264 0.0
C1193 C 0.53365 0.03246 0.37211 0.0
C1194 C 0.61951 0.06265 0.3861 0.0
C1195 C 0.6978 1.00472 0.38319 0.0
C1196 C 0.66192 0.01579 0.38287 0.0
C1197 C 0.55768 0.04706 0.38295 0.0
C1198 C 0.59362 0.03644 0.38267 0.0
H1199 H 0.74939 0.94082 0.39498 0.0
H1200 H 0.69113 0.95971 0.39471 0.0
H1201 H 0.67247 0.07334 0.38885 0.0
H1202 H 0.50564 0.0981 0.40386 0.0
H1203 H 0.56468 0.08286 0.4028 0.0
C1204 C 0.83579 0.93929 0.11485 0.0
C1205 C 0.85387 0.95586 0.12721 0.0
C1206 C 0.83127 0.90168 0.11227 0.0
C1207 C 0.82651 0.82775 0.13333 0.0
H1208 H 0.79496 0.77424 0.09707 0.0
C1209 C 0.74328 0.70503 0.13175 0.0
C1210 C 0.71232 0.70925 0.12436 0.0
C1211 C 0.77144 0.72409 0.1291 0.0
C1212 C 0.80409 0.78865 0.10725 0.0
H1213 H 0.8849 0.94596 0.1457 0.0
H1214 H 0.87817 0.87999 0.14093 0.0
H1215 H 0.82868 0.8296 0.09817 0.0
H1216 H 0.68614 0.73585 0.10829 0.0
H1217 H 0.73533 0.77015 0.10377 0.0
H1218 H 0.8011 0.78776 0.14242 0.0
C1219 C 0.86621 0.89612 0.13351 0.0
C1220 C 0.82324 0.82045 0.10791 0.0
C1221 C 0.87021 0.93391 0.13624 0.0
C1222 C 0.71008 0.7316 0.11384 0.0
C1223 C 0.73826 0.751 0.11123 0.0
C1224 C 0.80787 0.79583 0.13266 0.0
C1225 C 0.8452 0.87968 0.12188 0.0
C1226 C 0.83321 0.8414 0.12098 0.0
C1227 C 0.76883 0.74867 0.11931 0.0
C1228 C 0.79518 0.77684 0.11963 0.0
H1229 H 0.8231 0.95545 0.10761 0.0
H1230 H 0.81471 0.89037 0.10326 0.0
H1231 H 0.83317 0.84311 0.1436 0.0
H1232 H 0.74511 0.68938 0.1404 0.0
H1233 H 0.79463 0.72177 0.13548 0.0
C1234 C 0.0702 1.00984 0.87941 0.0
C1235 C 0.07477 0.98006 0.86905 0.0
C1236 C 0.04081 0.03018 0.87884 0.0
C1237 C 0.95262 0.01528 0.86426 0.0
H1238 H 0.94163 0.11578 0.88035 0.0
C1239 C 0.82241 0.07829 0.86376 0.0
C1240 C 0.8135 0.0988 0.87629 0.0
C1241 C 0.85565 0.06885 0.86202 0.0
C1242 C 0.9443 0.08761 0.87589 0.0
H1243 H 0.05351 0.94958 0.84955 0.0
H1244 H 1.00327 0.9861 0.84804 0.0
H1245 H 0.99796 0.09155 0.87804 0.0
H1246 H 0.8331 0.12695 0.89658 0.0
H1247 H 0.89143 0.11019 0.89356 0.0
H1248 H 0.89929 1.011 0.86224 0.0
C1249 C 0.0217 0.99334 0.85687 0.0
C1250 C 0.97663 0.07368 0.87455 0.0
C1251 C 0.05079 0.97278 0.85755 0.0
C1252 C 0.83906 0.11113 0.8868 0.0
C1253 C 0.87253 0.10158 0.88505 0.0
C1254 C 0.92052 0.02917 0.86554 0.0
C1255 C 0.0154 0.02107 0.86789 0.0
C1256 C 0.98126 0.03724 0.8687 0.0
C1257 C 0.8811 0.07949 0.87276 0.0
C1258 C 0.9158 0.0655 0.87136 0.0
H1259 H 0.08781 0.01526 0.88862 0.0
H1260 H 0.03699 0.05111 0.88757 0.0
H1261 H 0.95486 0.98682 0.86013 0.0
H1262 H 0.80353 0.06866 0.85535 0.0
H1263 H 0.86133 0.05256 0.85228 0.0
C1264 C 0.79816 0.5137 0.61103 0.0
C1265 C 0.82137 0.50788 0.62222 0.0
C1266 C 0.78935 0.54897 0.60878 0.0
C1267 C 0.81394 0.64746 0.61832 0.0
H1268 H 0.72028 0.66159 0.60755 0.0
C1269 C 0.7487 0.78899 0.62237 0.0
C1270 C 0.72054 0.79233 0.61299 0.0
C1271 C 0.76605 0.75603 0.62174 0.0
C1272 C 0.74669 0.65824 0.6103 0.0
H1273 H 0.85407 0.53524 0.6396 0.0
H1274 H 0.83833 0.59663 0.63581 0.0
H1275 H 0.73987 0.60119 0.61013 0.0
H1276 H 0.69031 0.76521 0.5949 0.0
H1277 H 0.72135 0.70874 0.59329 0.0
H1278 H 0.82033 0.70506 0.61879 0.0
C1279 C 0.82721 0.57387 0.62863 0.0
C1280 C 0.75799 0.62334 0.6118 0.0
C1281 C 0.83615 0.53852 0.63086 0.0
C1282 C 0.71215 0.76351 0.60217 0.0
C1283 C 0.72959 0.73086 0.60144 0.0
C1284 C 0.80256 0.68258 0.61684 0.0
C1285 C 0.80329 0.57967 0.61767 0.0
C1286 C 0.79178 0.61726 0.61583 0.0
C1287 C 0.75556 0.72585 0.6117 0.0
C1288 C 0.76872 0.68848 0.61277 0.0
H1289 H 0.7864 0.49094 0.60406 0.0
H1290 H 0.77141 0.55212 0.60003 0.0
H1291 H 0.8402 0.64396 0.62131 0.0
H1292 H 0.7552 0.81044 0.63104 0.0
H1293 H 0.78589 0.75335 0.62983 0.0
C1294 C 0.6853 0.60119 0.86929 0.0
C1295 C 0.69884 0.61597 0.88282 0.0
C1296 C 0.65274 0.58702 0.86719 0.0
C1297 C 0.57281 0.58207 0.88349 0.0
H1298 H 0.56662 0.48538 0.86199 0.0
C1299 C 0.46141 0.48607 0.88556 0.0
C1300 C 0.44823 0.46567 0.87289 0.0
C1301 C 0.49142 0.50551 0.88619 0.0
C1302 C 0.56775 0.51254 0.86785 0.0
H1303 H 0.68798 0.62996 0.90458 0.0
H1304 H 0.63112 0.60514 0.90092 0.0
H1305 H 0.6186 0.52029 0.86373 0.0
H1306 H 0.45662 0.44891 0.85099 0.0
H1307 H 0.509 0.48311 0.85206 0.0
H1308 H 0.52202 0.57415 0.88771 0.0
C1309 C 0.64569 0.60451 0.89192 0.0
C1310 C 0.59753 0.5326 0.86883 0.0
C1311 C 0.67831 0.61869 0.89403 0.0
C1312 C 0.46618 0.46429 0.86093 0.0
C1313 C 0.49622 0.48385 0.86155 0.0
C1314 C 0.54298 0.56203 0.88248 0.0
C1315 C 0.63299 0.5874 0.87857 0.0
C1316 C 0.60048 0.56746 0.87676 0.0
C1317 C 0.50893 0.50507 0.87415 0.0
C1318 C 0.54022 0.52688 0.87477 0.0
H1319 H 0.70035 0.59902 0.8604 0.0
H1320 H 0.64337 0.57469 0.85673 0.0
H1321 H 0.57423 0.609 0.88954 0.0
H1322 H 0.44831 0.48751 0.895 0.0
H1323 H 0.50089 0.52092 0.89613 0.0
C1324 C 0.68902 0.50424 0.14829 0.0
C1325 C 0.68897 0.52061 0.13603 0.0
C1326 C 0.70127 0.46903 0.1485 0.0
C1327 C 0.75774 0.40374 0.12996 0.0
H1328 H 0.71418 0.3323 0.14814 0.0
C1329 C 0.7933 0.2523 0.12214 0.0
C1330 C 0.79377 0.23365 0.13383 0.0
C1331 C 0.78129 0.28774 0.12295 0.0
C1332 C 0.7269 0.35209 0.14317 0.0
H1333 H 0.70059 0.51203 0.1142 0.0
H1334 H 0.72138 0.45101 0.11456 0.0
H1335 H 0.69079 0.39297 0.14862 0.0
H1336 H 0.78268 0.23798 0.15563 0.0
H1337 H 0.76206 0.29985 0.15707 0.0
H1338 H 0.79377 0.36299 0.12446 0.0
C1339 C 0.71266 0.46554 0.12411 0.0
C1340 C 0.71346 0.38686 0.14344 0.0
C1341 C 0.70046 0.50053 0.12389 0.0
C1342 C 0.78252 0.25148 0.14641 0.0
C1343 C 0.77047 0.28689 0.14721 0.0
C1344 C 0.77116 0.36906 0.12969 0.0
C1345 C 0.71376 0.44955 0.13646 0.0
C1346 C 0.72855 0.41298 0.13672 0.0
C1347 C 0.76948 0.30537 0.13547 0.0
C1348 C 0.75577 0.34269 0.13619 0.0
H1349 H 0.68042 0.51891 0.15783 0.0
H1350 H 0.70188 0.45752 0.1582 0.0
H1351 H 0.7704 0.42345 0.12492 0.0
H1352 H 0.8018 0.23937 0.11229 0.0
H1353 H 0.78057 0.30103 0.11366 0.0
C1354 C 0.78591 0.48447 0.39077 0.0
C1355 C 0.76227 0.49238 0.38005 0.0
C1356 C 0.81975 0.4941 0.39081 0.0
C1357 C 0.88371 0.51632 0.36753 0.0
H1358 H 0.93439 0.55292 0.40271 0.0
C1359 C 0.02404 0.56115 0.37004 0.0
C1360 C 0.04518 0.55269 0.38147 0.0
C1361 C 0.98917 0.55619 0.36966 0.0
C1362 C 0.92084 0.54232 0.39278 0.0
H1363 H 0.75622 0.51695 0.36094 0.0
H1364 H 0.8152 0.53368 0.36102 0.0
H1365 H 0.8749 0.53962 0.40247 0.0
H1366 H 0.04587 0.53239 0.40147 0.0
H1367 H 0.98582 0.52314 0.40068 0.0
H1368 H 0.9298 0.51842 0.35787 0.0
C1369 C 0.8075 0.5198 0.36938 0.0
C1370 C 0.88655 0.53473 0.39266 0.0
C1371 C 0.77356 0.5104 0.36939 0.0
C1372 C 0.0305 0.53939 0.39251 0.0
C1373 C 0.99582 0.5343 0.3921 0.0
C1374 C 0.91812 0.52372 0.36767 0.0
C1375 C 0.83113 0.51175 0.38008 0.0
C1376 C 0.86749 0.52129 0.38006 0.0
C1377 C 0.9745 0.54258 0.38068 0.0
C1378 C 0.93734 0.5365 0.38033 0.0
H1379 H 0.77835 0.47055 0.39914 0.0
H1380 H 0.83715 0.48701 0.39914 0.0
H1381 H 0.87001 0.50567 0.35764 0.0
H1382 H 0.03442 0.57173 0.36141 0.0
H1383 H 0.97371 0.56339 0.36077 0.0
C1384 C 0.78302 0.49541 0.89598 0.0
C1385 C 0.80549 0.50564 0.88672 0.0
C1386 C 0.77578 0.45861 0.89645 0.0
C1387 C 0.77982 0.36591 0.87561 0.0
H1388 H 0.76375 0.3336 0.91094 0.0
C1389 C 0.74613 0.21518 0.87717 0.0
C1390 C 0.71869 0.20957 0.88479 0.0
C1391 C 0.76254 0.24927 0.87898 0.0
C1392 C 0.768 0.34206 0.90095 0.0
H1393 H 0.83805 0.48438 0.87072 0.0
H1394 H 0.8257 0.42057 0.8716 0.0
H1395 H 0.77934 0.39687 0.91056 0.0
H1396 H 0.68794 0.23499 0.90068 0.0
H1397 H 0.71684 0.29357 0.90421 0.0
H1398 H 0.76795 0.31133 0.86596 0.0
C1399 C 0.81324 0.441 0.87841 0.0
C1400 C 0.77687 0.37858 0.90072 0.0
C1401 C 0.82049 0.4778 0.87795 0.0
C1402 C 0.7098 0.23791 0.89504 0.0
C1403 C 0.72622 0.27185 0.89691 0.0
C1404 C 0.77096 0.32942 0.87584 0.0
C1405 C 0.79075 0.43072 0.88767 0.0
C1406 C 0.78258 0.39126 0.88802 0.0
C1407 C 0.75181 0.27867 0.88844 0.0
C1408 C 0.76454 0.3169 0.88849 0.0
H1409 H 0.77084 0.51589 0.90289 0.0
H1410 H 0.75795 0.45208 0.90357 0.0
H1411 H 0.78348 0.37444 0.86558 0.0
H1412 H 0.75291 0.19433 0.86887 0.0
H1413 H 0.78251 0.25308 0.87242 0.0
C1414 C 0.81005 0.60041 0.142 0.0
C1415 C 0.79295 0.60961 0.12973 0.0
C1416 C 0.84246 0.58717 0.14174 0.0
C1417 C 0.91702 0.57891 0.12184 0.0
H1418 H 0.93132 0.49199 0.13933 0.0
C1419 C 0.03687 0.49464 0.1163 0.0
C1420 C 0.05133 0.48298 0.12862 0.0
C1421 C 1.005 0.50962 0.11598 0.0
C1422 C 0.92786 0.51643 0.13452 0.0
H1423 H 0.79708 0.61427 0.10778 0.0
H1424 H 0.85394 0.59103 0.10735 0.0
H1425 H 0.87742 0.52174 0.14001 0.0
H1426 H 0.04341 0.47689 0.15014 0.0
H1427 H 0.98803 0.50336 0.14963 0.0
H1428 H 0.96763 0.57371 0.11644 0.0
C1429 C 0.84216 0.59405 0.11715 0.0
C1430 C 0.89701 0.5335 0.13492 0.0
C1431 C 0.80961 0.60728 0.11739 0.0
C1432 C 0.03296 0.48566 0.14049 0.0
C1433 C 1.00114 0.50067 0.14017 0.0
C1434 C 0.94799 0.56189 0.12148 0.0
C1435 C 0.85849 0.58292 0.12923 0.0
C1436 C 0.89134 0.56503 0.12867 0.0
C1437 C 0.98696 0.51318 0.12797 0.0
C1438 C 0.95378 0.53057 0.12789 0.0
H1439 H 0.79803 0.60223 0.15172 0.0
H1440 H 0.85475 0.5795 0.15129 0.0
H1441 H 0.91337 0.6033 0.11701 0.0
H1442 H 0.05033 0.49273 0.10695 0.0
H1443 H 0.99451 0.51845 0.10635 0.0
C1444 C 0.77957 0.81464 0.39098 0.0
C1445 C 0.78616 0.83296 0.37973 0.0
C1446 C 0.75171 0.79164 0.38992 0.0
C1447 C 0.696 0.73425 0.3645 0.0
H1448 H 0.64475 0.73101 0.39668 0.0
C1449 C 0.62032 0.60868 0.36606 0.0
C1450 C 0.6311 0.59342 0.37812 0.0
C1451 C 0.62447 0.64585 0.36587 0.0
C1452 C 0.65856 0.73181 0.38755 0.0
H1453 H 0.76917 0.84099 0.35845 0.0
H1454 H 0.72074 0.80022 0.35656 0.0
H1455 H 0.68462 0.78087 0.39682 0.0
H1456 H 0.64982 0.60553 0.40005 0.0
H1457 H 0.65808 0.66983 0.39964 0.0
H1458 H 0.67206 0.68415 0.35557 0.0
C1459 C 0.73702 0.80396 0.36621 0.0
C1460 C 0.68143 0.76021 0.38766 0.0
C1461 C 0.76481 0.82713 0.36728 0.0
C1462 C 0.64186 0.61646 0.39052 0.0
C1463 C 0.64632 0.65353 0.3903 0.0
C1464 C 0.67335 0.70578 0.36442 0.0
C1465 C 0.73001 0.78636 0.37758 0.0
C1466 C 0.70138 0.76074 0.37639 0.0
C1467 C 0.63977 0.66814 0.37771 0.0
C1468 C 0.65554 0.70331 0.37622 0.0
H1469 H 0.79549 0.81864 0.40072 0.0
H1470 H 0.74732 0.77769 0.39873 0.0
H1471 H 0.7111 0.73395 0.35568 0.0
H1472 H 0.61107 0.59159 0.35644 0.0
H1473 H 0.61828 0.65655 0.35613 0.0
C1474 C 0.69575 0.42782 0.64502 0.0
C1475 C 0.70601 0.40971 0.6323 0.0
C1476 C 0.66211 0.43616 0.64643 0.0
C1477 C 0.57499 0.41858 0.62948 0.0
H1478 H 0.56001 0.51458 0.64938 0.0
C1479 C 0.45298 0.49932 0.62216 0.0
C1480 C 0.44316 0.52372 0.63352 0.0
C1481 C 0.4819 0.47874 0.62359 0.0
C1482 C 0.56354 0.48738 0.64403 0.0
H1483 H 0.68856 0.38492 0.61122 0.0
H1484 H 0.62988 0.40014 0.61355 0.0
H1485 H 0.61649 0.49186 0.6486 0.0
H1486 H 0.45521 0.5452 0.6554 0.0
H1487 H 0.50545 0.50878 0.65809 0.0
H1488 H 0.52181 0.41492 0.62452 0.0
C1489 C 0.64778 0.40746 0.62256 0.0
C1490 C 0.59612 0.47426 0.64356 0.0
C1491 C 0.68151 0.39878 0.62119 0.0
C1492 C 0.46176 0.52586 0.64658 0.0
C1493 C 0.49083 0.50541 0.64803 0.0
C1494 C 0.54229 0.43182 0.6299 0.0
C1495 C 0.63769 0.42702 0.63511 0.0
C1496 C 0.60246 0.43979 0.63618 0.0
C1497 C 0.50201 0.48265 0.63639 0.0
C1498 C 0.53616 0.46658 0.63708 0.0
H1499 H 0.71387 0.43629 0.65385 0.0
H1500 H 0.65536 0.45036 0.65639 0.0
H1501 H 0.57871 0.39172 0.62387 0.0
H1502 H 0.43953 0.49798 0.61188 0.0
H1503 H 0.48977 0.46186 0.61437 0.0
C1504 C 0.32575 0.22799 0.40442 0.0
C1505 C 0.31578 0.19923 0.39373 0.0
C1506 C 0.30881 0.2611 0.40567 0.0
C1507 C 0.23291 0.31044 0.39362 0.0
H1508 H 0.29473 0.39243 0.39866 0.0
C1509 C 0.18962 0.45649 0.38489 0.0
C1510 C 0.20713 0.48711 0.39241 0.0
C1511 C 0.20059 0.42096 0.38594 0.0
C1512 C 0.2768 0.3702 0.39751 0.0
H1513 H 0.2789 0.1824 0.37636 0.0
H1514 H 0.24857 0.24001 0.37872 0.0
H1515 H 0.31587 0.33169 0.39946 0.0
H1516 H 0.24963 0.50354 0.40735 0.0
H1517 H 0.26799 0.44213 0.4096 0.0
H1518 H 0.19375 0.34909 0.39175 0.0
C1519 C 0.26956 0.23687 0.38623 0.0
C1520 C 0.28907 0.335 0.39793 0.0
C1521 C 0.28667 0.20354 0.38498 0.0
C1522 C 0.23547 0.48088 0.40132 0.0
C1523 C 0.24624 0.44535 0.40249 0.0
C1524 C 0.22052 0.34584 0.39333 0.0
C1525 C 0.28137 0.26677 0.39619 0.0
C1526 C 0.26742 0.30443 0.39601 0.0
C1527 C 0.22937 0.41462 0.39465 0.0
C1528 C 0.24226 0.37649 0.39525 0.0
H1529 H 0.34841 0.22586 0.41117 0.0
H1530 H 0.31831 0.28295 0.41369 0.0
H1531 H 0.21533 0.28779 0.39216 0.0
H1532 H 0.16785 0.45991 0.37781 0.0
H1533 H 0.18692 0.39853 0.37954 0.0
C1534 C 0.32035 0.43796 0.14096 0.0
C1535 C 0.30489 0.42288 0.1278 0.0
C1536 C 0.35334 0.45071 0.14219 0.0
C1537 C 0.41088 0.48872 0.12053 0.0
H1538 H 0.47402 0.48966 0.15326 0.0
C1539 C 0.54172 0.55576 0.12485 0.0
C1540 C 0.55304 0.57586 0.13786 0.0
C1541 C 0.51228 0.53509 0.12346 0.0
C1542 C 0.45647 0.48985 0.14411 0.0
H1543 H 0.31287 0.40603 0.10585 0.0
H1544 H 0.37072 0.42778 0.10805 0.0
H1545 H 0.42295 0.45264 0.15109 0.0
H1546 H 0.5419 0.59091 0.15954 0.0
H1547 H 0.49012 0.55499 0.15706 0.0
H1548 H 0.4441 0.52624 0.11363 0.0
C1549 C 0.35701 0.43061 0.11735 0.0
C1550 C 0.42735 0.46855 0.14284 0.0
C1551 C 0.32396 0.41791 0.11612 0.0
C1552 C 0.53383 0.57567 0.14938 0.0
C1553 C 0.50438 0.55485 0.14799 0.0
C1554 C 0.43999 0.50992 0.12179 0.0
C1555 C 0.37158 0.44847 0.13028 0.0
C1556 C 0.40409 0.46802 0.13109 0.0
C1557 C 0.49354 0.53402 0.13506 0.0
C1558 C 0.46293 0.51099 0.13365 0.0
H1559 H 0.30641 0.44194 0.1502 0.0
H1560 H 0.36377 0.4644 0.15229 0.0
H1561 H 0.39315 0.48956 0.11149 0.0
H1562 H 0.55597 0.55533 0.11577 0.0
H1563 H 0.50468 0.51914 0.11338 0.0
C1564 C 0.22731 0.79371 0.8661 0.0
C1565 C 0.21341 0.81115 0.87816 0.0
C1566 C 0.23802 0.75781 0.86541 0.0
C1567 C 0.22837 0.67405 0.88124 0.0
H1568 H 0.31369 0.64887 0.86655 0.0
C1569 C 0.29136 0.53846 0.88804 0.0
C1570 C 0.30685 0.51976 0.87662 0.0
C1571 C 0.2802 0.57387 0.8878 0.0
C1572 C 0.28962 0.65532 0.87051 0.0
H1573 H 0.19921 0.80424 0.89883 0.0
H1574 H 0.21799 0.74165 0.89764 0.0
H1575 H 0.29296 0.71057 0.86682 0.0
H1576 H 0.32322 0.52413 0.85605 0.0
H1577 H 0.30344 0.58606 0.85559 0.0
H1578 H 0.22497 0.61891 0.88496 0.0
C1579 C 0.22047 0.75569 0.88868 0.0
C1580 C 0.27774 0.6907 0.87067 0.0
C1581 C 0.20988 0.79165 0.8894 0.0
C1582 C 0.31147 0.53772 0.86504 0.0
C1583 C 0.30021 0.57327 0.86479 0.0
C1584 C 0.24021 0.63871 0.88106 0.0
C1585 C 0.23491 0.73843 0.87672 0.0
C1586 C 0.24708 0.70054 0.87614 0.0
C1587 C 0.28411 0.59161 0.87612 0.0
C1588 C 0.27111 0.62896 0.87581 0.0
H1589 H 0.23027 0.80789 0.85722 0.0
H1590 H 0.24859 0.74515 0.85596 0.0
H1591 H 0.2044 0.68055 0.88529 0.0
H1592 H 0.28754 0.52567 0.8972 0.0
H1593 H 0.26855 0.58741 0.89683 0.0
C1594 C 0.99417 0.45563 0.65112 0.0
C1595 C 0.97609 0.44699 0.6379 0.0
C1596 C 0.02827 0.46575 0.65218 0.0
C1597 C 0.09238 0.50057 0.63101 0.0
H1598 H 0.15589 0.47611 0.66056 0.0
C1599 C 0.24574 0.50429 0.64596 0.0
C1600 C 0.25372 0.53734 0.64138 0.0
C1601 C 0.21223 0.49361 0.64649 0.0
C1602 C 0.13861 0.48301 0.65216 0.0
H1603 H 0.98051 0.44081 0.61544 0.0
H1604 H 0.03941 0.45739 0.61724 0.0
H1605 H 0.09769 0.4555 0.65939 0.0
H1606 H 0.2321 0.58563 0.63434 0.0
H1607 H 0.17427 0.56759 0.63557 0.0
H1608 H 0.13316 0.52709 0.62349 0.0
C1609 C 0.02728 0.45755 0.62686 0.0
C1610 C 0.10497 0.47151 0.65159 0.0
C1611 C 0.99332 0.4477 0.62582 0.0
C1612 C 0.22716 0.55986 0.63781 0.0
C1613 C 0.19377 0.54929 0.63841 0.0
C1614 C 0.12587 0.51195 0.63156 0.0
C1615 C 0.04529 0.46738 0.64004 0.0
C1616 C 0.08128 0.47997 0.64095 0.0
C1617 C 0.18563 0.51569 0.64251 0.0
C1618 C 0.14965 0.50345 0.64213 0.0
H1619 H 0.9818 0.45536 0.66067 0.0
H1620 H 0.04102 0.47326 0.66253 0.0
H1621 H 0.07508 0.5083 0.62277 0.0
H1622 H 0.26538 0.48608 0.64874 0.0
H1623 H 0.20723 0.46743 0.6496 0.0
C1624 C 0.25431 0.83101 0.13685 0.0
C1625 C 0.28249 0.83715 0.12974 0.0
C1626 C 0.2384 0.79663 0.13476 0.0
C1627 C 0.23563 0.70422 0.11268 0.0
H1628 H 0.2182 0.67069 0.14763 0.0
C1629 C 0.22122 0.55037 0.11699 0.0
C1630 C 0.19836 0.53983 0.12603 0.0
C1631 C 0.22829 0.58728 0.11667 0.0
C1632 C 0.2224 0.67954 0.1377 0.0
H1633 H 0.31563 0.81198 0.11473 0.0
H1634 H 0.28749 0.75309 0.11065 0.0
H1635 H 0.23306 0.73413 0.14763 0.0
H1636 H 0.16482 0.56058 0.14173 0.0
H1637 H 0.17677 0.62444 0.14105 0.0
H1638 H 0.22542 0.64943 0.10279 0.0
C1639 C 0.27705 0.77468 0.11767 0.0
C1640 C 0.23088 0.7162 0.1377 0.0
C1641 C 0.293 0.80885 0.11985 0.0
C1642 C 0.18273 0.5674 0.13468 0.0
C1643 C 0.18975 0.60425 0.13434 0.0
C1644 C 0.22708 0.66753 0.11268 0.0
C1645 C 0.25044 0.76749 0.12556 0.0
C1646 C 0.238 0.72912 0.12522 0.0
C1647 C 0.21271 0.61489 0.12536 0.0
C1648 C 0.22067 0.65445 0.12522 0.0
H1649 H 0.24633 0.85181 0.1449 0.0
H1650 H 0.21771 0.79241 0.1409 0.0
H1651 H 0.24051 0.71304 0.10282 0.0
H1652 H 0.23385 0.53007 0.11018 0.0
H1653 H 0.24648 0.59412 0.10975 0.0
C1654 C 0.18764 0.42373 0.89477 0.0
C1655 C 0.2032 0.41674 0.88215 0.0
C1656 C 0.15536 0.43776 0.89484 0.0
C1657 C 0.10115 0.4939 0.87475 0.0
H1658 H 0.03254 0.46844 0.89779 0.0
C1659 C 0.96927 0.55469 0.87179 0.0
C1660 C 0.95357 0.56259 0.88434 0.0
C1661 C 0.99964 0.53648 0.87161 0.0
C1662 C 0.05164 0.47617 0.89144 0.0
H1663 H 0.1961 0.41603 0.85957 0.0
H1664 H 0.13977 0.44018 0.8597 0.0
H1665 H 0.08431 0.43409 0.89701 0.0
H1666 H 0.95804 0.55888 0.90665 0.0
H1667 H 0.01142 0.52774 0.90638 0.0
H1668 H 0.06894 0.53628 0.86934 0.0
C1669 C 0.15279 0.43559 0.86957 0.0
C1670 C 0.08118 0.45637 0.89095 0.0
C1671 C 0.18497 0.42152 0.86949 0.0
C1672 C 0.96942 0.55299 0.89679 0.0
C1673 C 0.99986 0.53487 0.89662 0.0
C1674 C 0.07174 0.51377 0.87529 0.0
C1675 C 0.13811 0.44503 0.88229 0.0
C1676 C 0.10619 0.46498 0.88256 0.0
C1677 C 0.01508 0.52594 0.88398 0.0
C1678 C 0.04661 0.50513 0.88362 0.0
H1679 H 0.20098 0.42017 0.9047 0.0
H1680 H 0.14469 0.44477 0.90481 0.0
H1681 H 0.12029 0.50171 0.86843 0.0
H1682 H 0.95771 0.56169 0.86201 0.0
H1683 H 0.0105 0.52975 0.86167 0.0
C1684 C 0.36039 0.4054 0.61027 0.0
C1685 C 0.3779 0.42145 0.62284 0.0
C1686 C 0.35492 0.3679 0.60764 0.0
C1687 C 0.34677 0.29457 0.62887 0.0
H1688 H 0.31501 0.24112 0.59263 0.0
C1689 C 0.26186 0.17372 0.62758 0.0
C1690 C 0.23108 0.17801 0.62009 0.0
C1691 C 0.29032 0.1921 0.62484 0.0
C1692 C 0.32417 0.25553 0.60281 0.0
H1693 H 0.40717 0.41088 0.64165 0.0
H1694 H 0.39926 0.34508 0.63675 0.0
H1695 H 0.3499 0.29564 0.59371 0.0
H1696 H 0.20547 0.2042 0.60376 0.0
H1697 H 0.25517 0.23752 0.59914 0.0
H1698 H 0.32033 0.25544 0.63798 0.0
C1699 C 0.3882 0.36147 0.62922 0.0
C1700 C 0.344 0.28686 0.60346 0.0
C1701 C 0.39294 0.39913 0.63202 0.0
C1702 C 0.22927 0.19984 0.60939 0.0
C1703 C 0.25774 0.21868 0.60672 0.0
C1704 C 0.32749 0.26313 0.62822 0.0
C1705 C 0.36745 0.34557 0.61741 0.0
C1706 C 0.35419 0.30776 0.61651 0.0
C1707 C 0.28816 0.21627 0.6149 0.0
C1708 C 0.3148 0.24412 0.6152 0.0
H1709 H 0.34863 0.422 0.60296 0.0
H1710 H 0.33864 0.35703 0.59848 0.0
H1711 H 0.35346 0.30991 0.63914 0.0
H1712 H 0.26335 0.15855 0.63638 0.0
H1713 H 0.31338 0.1897 0.6313 0.0
C1714 C 0.56554 0.5111 0.38035 0.0
C1715 C 0.57227 0.48351 0.36948 0.0
C1716 C 0.5376 0.53303 0.37897 0.0
C1717 C 0.45364 0.52679 0.35979 0.0
H1718 H 0.44418 0.62228 0.38116 0.0
C1719 C 0.32521 0.59461 0.36285 0.0
C1720 C 0.31667 0.60665 0.37659 0.0
C1721 C 0.35825 0.58597 0.36028 0.0
C1722 C 0.44648 0.59563 0.37513 0.0
H1723 H 0.55628 0.45789 0.34845 0.0
H1724 H 0.5081 0.49726 0.34565 0.0
H1725 H 0.49986 0.59687 0.37879 0.0
H1726 H 0.33662 0.62105 0.39828 0.0
H1727 H 0.3944 0.60621 0.39375 0.0
H1728 H 0.40029 0.52548 0.35622 0.0
C1729 C 0.52395 0.50169 0.35539 0.0
C1730 C 0.47839 0.58096 0.37378 0.0
C1731 C 0.55179 0.47947 0.35687 0.0
C1732 C 0.3423 0.61175 0.38758 0.0
C1733 C 0.37545 0.60341 0.38498 0.0
C1734 C 0.42187 0.54164 0.36098 0.0
C1735 C 0.5156 0.52771 0.36667 0.0
C1736 C 0.48239 0.54592 0.36637 0.0
C1737 C 0.38364 0.5895 0.37135 0.0
C1738 C 0.41782 0.57587 0.36892 0.0
H1739 H 0.58047 0.51393 0.39034 0.0
H1740 H 0.53202 0.55225 0.38799 0.0
H1741 H 0.45535 0.49949 0.35425 0.0
H1742 H 0.30618 0.59048 0.35411 0.0
H1743 H 0.36383 0.57574 0.34965 0.0
C1744 C 0.2829 0.42668 0.9515 0.0
C1745 C 0.3162 0.41631 0.94972 0.0
C1746 C 0.26933 0.42591 0.96438 0.0
C1747 C 0.29356 0.42727 1.0023 0.0
H1748 H 0.20363 0.38981 1.00309 0.0
C1749 C 0.23793 0.40297 0.05403 0.0
C1750 C 0.20384 0.41047 0.05515 0.0
C1751 C 0.25231 0.40445 0.04135 0.0
C1752 C 0.22864 0.40083 1.00308 0.0
H1753 H 0.36104 0.39686 0.96031 0.0
H1754 H 0.33737 0.39566 0.98261 0.0
H1755 H 0.22679 0.39094 0.9806 0.0
H1756 H 0.15853 0.42658 0.04391 0.0
H1757 H 0.18359 0.42983 0.02207 0.0
H1758 H 0.29534 0.43739 0.02479 0.0
C1759 C 0.32188 0.40466 0.97408 0.0
C1760 C 0.24192 0.40142 0.99016 0.0
C1761 C 0.3354 0.40525 0.96122 0.0
C1762 C 0.18477 0.42024 0.0434 0.0
C1763 C 0.19912 0.42191 0.03082 0.0
C1764 C 0.28022 0.42682 0.01524 0.0
C1765 C 0.28872 0.41506 0.97584 0.0
C1766 C 0.27453 0.41466 0.98961 0.0
C1767 C 0.23294 0.41353 0.02953 0.0
C1768 C 0.24753 0.41368 0.0158 0.0
H1769 H 0.26738 0.43625 0.94312 0.0
H1770 H 0.24382 0.4346 0.96545 0.0
H1771 H 0.31863 0.43807 1.00224 0.0
H1772 H 0.25328 0.39475 0.06276 0.0
H1773 H 0.27836 0.39745 0.04071 0.0
C1774 C 0.86526 0.03189 0.20555 0.0
C1775 C 0.8517 0.06639 0.20465 0.0
C1776 C 0.86674 0.01762 0.21828 0.0
C1777 C 0.86674 0.0476 0.25662 0.0
H1778 H 0.84709 0.94642 0.25841 0.0
C1779 C 0.85228 0.99349 0.30922 0.0
C1780 C 0.86549 0.95912 0.3107 0.0
C1781 C 0.85136 1.00648 0.29627 0.0
C1782 C 0.85305 0.97468 0.25809 0.0
H1783 H 0.82784 0.11213 0.21632 0.0
H1784 H 0.83011 0.08723 0.23825 0.0
H1785 H 0.84375 0.96817 0.23566 0.0
H1786 H 0.88867 0.91192 0.29968 0.0
H1787 H 0.88733 0.93468 0.27728 0.0
H1788 H 0.87601 0.05419 0.27902 0.0
C1789 C 0.8403 0.07149 0.22928 0.0
C1790 C 0.85113 0.98712 0.24503 0.0
C1791 C 0.83887 0.08569 0.21664 0.0
C1792 C 0.87808 0.93839 0.29894 0.0
C1793 C 0.87718 0.95136 0.28604 0.0
C1794 C 0.86867 0.03518 0.26966 0.0
C1795 C 0.85475 0.03759 0.23036 0.0
C1796 C 0.85774 0.0238 0.24415 0.0
C1797 C 0.86354 0.98541 0.28448 0.0
C1798 C 0.86173 0.9986 0.27058 0.0
H1799 H 0.87583 0.01645 0.19662 0.0
H1800 H 0.87823 0.99149 0.21879 0.0
H1801 H 0.87263 0.07589 0.25632 0.0
H1802 H 0.84167 1.00998 0.3179 0.0
H1803 H 0.84027 0.03265 0.29539 0.0
C1804 C 0.33152 0.60058 0.56114 0.0
C1805 C 0.31068 0.57314 0.56447 0.0
C1806 C 0.32943 0.6097 0.54745 0.0
C1807 C 0.29726 0.57205 0.51076 0.0
H1808 H 0.30359 0.67167 0.50379 0.0
C1809 C 0.27179 0.60634 0.45452 0.0
C1810 C 0.25126 0.63654 0.45332 0.0
C1811 C 0.28674 0.60056 0.46768 0.0
C1812 C 0.30165 0.64366 0.50553 0.0
H1813 H 0.27037 0.53506 0.55625 0.0
H1814 H 0.26603 0.55155 0.5328 0.0
H1815 H 0.3127 0.65804 0.52776 0.0
H1816 H 0.23228 0.68541 0.465 0.0
H1817 H 0.25713 0.67479 0.4877 0.0
H1818 H 0.2842 0.55775 0.48875 0.0
C1819 C 0.28484 0.56524 0.54047 0.0
C1820 C 0.30729 0.63581 0.5193 0.0
C1821 C 0.28712 0.55598 0.554 0.0
C1822 C 0.24763 0.66164 0.46547 0.0
C1823 C 0.26231 0.65576 0.47857 0.0
C1824 C 0.29131 0.57991 0.49704 0.0
C1825 C 0.30637 0.59166 0.53688 0.0
C1826 C 0.30425 0.59998 0.52214 0.0
C1827 C 0.28136 0.62465 0.47995 0.0
C1828 C 0.29259 0.61593 0.49425 0.0
H1829 H 0.35021 0.61403 0.56892 0.0
H1830 H 0.34649 0.63013 0.54507 0.0
H1831 H 0.29556 0.54398 0.51246 0.0
H1832 H 0.27509 0.58616 0.4455 0.0
H1833 H 0.30174 0.5766 0.46826 0.0
C1834 C 0.65125 0.96273 0.69705 0.0
C1835 C 0.65816 0.92571 0.69352 0.0
C1836 C 0.64156 0.97614 0.71045 0.0
C1837 C 0.64781 0.95147 0.74662 0.0
H1838 H 0.59447 0.03744 0.75471 0.0
C1839 C 0.63215 1.01417 0.80376 0.0
C1840 C 0.64167 0.05103 0.80648 0.0
C1841 C 0.62502 0.99713 0.78986 0.0
C1842 C 0.60927 1.01327 0.7526 0.0
H1843 H 0.65815 0.87335 0.70082 0.0
H1844 H 0.63982 0.89617 0.72382 0.0
H1845 H 0.5993 1.01062 0.73031 0.0
H1846 H 0.64886 0.09953 0.79702 0.0
H1847 H 0.6358 0.07019 0.77293 0.0
H1848 H 0.65816 0.95442 0.76886 0.0
C1849 C 0.64309 0.9153 0.71656 0.0
C1850 C 0.61225 0.99801 0.7386 0.0
C1851 C 0.65332 0.9021 0.70331 0.0
C1852 C 0.64143 0.0711 0.7952 0.0
C1853 C 0.63386 0.05428 0.78139 0.0
C1854 C 0.64454 0.96648 0.76057 0.0
C1855 C 0.63817 0.95269 0.72053 0.0
C1856 C 0.63212 0.96726 0.73539 0.0
C1857 C 0.62688 0.0168 0.7785 0.0
C1858 C 0.6258 0.99798 0.76375 0.0
H1859 H 0.65514 0.98162 0.68976 0.0
H1860 H 0.63836 1.00513 0.7131 0.0
H1861 H 0.66392 0.92832 0.74468 0.0
H1862 H 0.63257 0.99798 0.81224 0.0
H1863 H 0.61947 0.96824 0.78797 0.0
C1864 C 0.76081 0.6404 0.95861 0.0
C1865 C 0.79452 0.63119 0.95739 0.0
C1866 C 0.74613 0.63855 0.97121 0.0
C1867 C 0.76978 0.63794 0.00928 0.0
H1868 H 0.67781 0.60681 0.01009 0.0
C1869 C 0.71397 0.61322 0.0607 0.0
C1870 C 0.68152 0.6262 0.06273 0.0
C1871 C 0.72754 0.61342 0.04778 0.0
C1872 C 0.70348 0.61586 0.01004 0.0
H1873 H 0.83867 0.61131 0.96824 0.0
H1874 H 0.81307 0.60734 0.98989 0.0
H1875 H 0.70113 0.60734 0.98753 0.0
H1876 H 0.63818 0.6496 0.05253 0.0
H1877 H 0.66181 0.64976 0.03018 0.0
H1878 H 0.77219 0.64626 0.03178 0.0
C1879 C 0.79812 0.61698 0.98134 0.0
C1880 C 0.71682 0.61623 0.9971 0.0
C1881 C 0.81277 0.61907 0.96886 0.0
C1882 C 0.66315 0.63918 0.05144 0.0
C1883 C 0.67663 0.63918 0.03854 0.0
C1884 C 0.7565 0.6374 0.0222 0.0
C1885 C 0.76481 0.62734 0.98281 0.0
C1886 C 0.7502 0.6272 0.99654 0.0
C1887 C 0.70896 0.62627 0.03653 0.0
C1888 C 0.72319 0.62636 0.02275 0.0
H1889 H 0.74613 0.65033 0.95007 0.0
H1890 H 0.72049 0.64703 0.97199 0.0
H1891 H 0.79536 0.6473 0.00931 0.0
H1892 H 0.72881 0.60213 0.06891 0.0
H1893 H 0.75238 0.60281 0.04651 0.0
C1894 C 0.20504 0.1132 0.71849 0.0
C1895 C 0.18097 0.10873 0.70688 0.0
C1896 C 0.19867 0.10119 0.73108 0.0
C1897 C 0.14595 0.03665 0.74546 0.0
H1898 H 0.18046 0.09047 0.78126 0.0
C1899 C 0.1597 0.96985 0.79549 0.0
C1900 C 0.15136 0.98958 0.80827 0.0
C1901 C 0.16123 0.98666 0.78354 0.0
C1902 C 0.17032 0.0753 0.77138 0.0
H1903 H 0.13049 0.08912 0.69979 0.0
H1904 H 0.11952 0.06795 0.72175 0.0
H1905 H 0.18563 0.11626 0.75964 0.0
H1906 H 0.13811 0.04299 0.81838 0.0
H1907 H 0.14104 0.07249 0.79742 0.0
H1908 H 0.13049 0.99579 0.75716 0.0
C1909 C 0.14365 0.08025 0.72096 0.0
C1910 C 0.17361 0.08988 0.75896 0.0
C1911 C 0.15004 0.09228 0.70831 0.0
C1912 C 0.14513 0.02697 0.80882 0.0
C1913 C 0.14667 0.04388 0.79677 0.0
C1914 C 0.14267 0.0221 0.75786 0.0
C1915 C 0.16795 0.08447 0.7325 0.0
C1916 C 0.16196 0.07045 0.74581 0.0
C1917 C 0.15435 0.02375 0.78395 0.0
C1918 C 0.15537 0.04091 0.77095 0.0
H1919 H 0.22922 0.12555 0.71781 0.0
H1920 H 0.21821 0.10433 0.73963 0.0
H1921 H 0.13686 0.0208 0.73555 0.0
H1922 H 0.16509 0.94114 0.79466 0.0
H1923 H 0.16804 0.97048 0.77396 0.0
C1924 C 0.76531 0.34683 0.54769 0.0
C1925 C 0.77474 0.37389 0.55909 0.0
C1926 C 0.75131 0.35602 0.53495 0.0
C1927 C 0.75182 0.42799 0.51309 0.0
H1928 H 0.67443 0.37701 0.49248 0.0
C1929 C 0.71331 0.43532 0.45404 0.0
C1930 C 0.67942 0.44279 0.45085 0.0
C1931 C 0.72444 0.42696 0.46737 0.0
C1932 C 0.69605 0.3915 0.49811 0.0
H1933 H 0.77671 0.43194 0.56608 0.0
H1934 H 0.75255 0.44815 0.54362 0.0
H1935 H 0.69301 0.36378 0.51599 0.0
H1936 H 0.63065 0.44659 0.45904 0.0
H1937 H 0.64993 0.43123 0.48208 0.0
H1938 H 0.75514 0.4553 0.4951 0.0
C1939 C 0.75576 0.41974 0.54467 0.0
C1940 C 0.70673 0.38386 0.51155 0.0
C1941 C 0.76923 0.41047 0.55756 0.0
C1942 C 0.65691 0.44097 0.46116 0.0
C1943 C 0.6679 0.43204 0.47435 0.0
C1944 C 0.74145 0.43521 0.49955 0.0
C1945 C 0.747 0.39258 0.53318 0.0
C1946 C 0.73471 0.40204 0.5192 0.0
C1947 C 0.70183 0.42531 0.47767 0.0
C1948 C 0.71342 0.41707 0.49192 0.0
H1949 H 0.76939 0.31842 0.54855 0.0
H1950 H 0.74504 0.33451 0.52628 0.0
H1951 H 0.77367 0.44214 0.51867 0.0
H1952 H 0.73138 0.43699 0.44642 0.0
H1953 H 0.75072 0.42171 0.46961 0.0
C1954 C 0.37527 0.08472 0.30711 0.0
C1955 C 0.37959 0.06042 0.31695 0.0
C1956 C 0.3858 0.07584 0.29364 0.0
C1957 C 0.39492 0.99759 0.26723 0.0
H1958 H 0.42877 0.07028 0.24672 0.0
C1959 C 0.38736 0.97656 0.20628 0.0
C1960 C 0.3714 1.0057 0.20082 0.0
C1961 C 0.39971 0.98043 0.22049 0.0
C1962 C 0.41951 0.04953 0.25229 0.0
H1963 H 0.39907 1.00805 0.32056 0.0
H1964 H 0.41714 0.99203 0.29671 0.0
H1965 H 0.43013 0.08245 0.2723 0.0
H1966 H 0.35751 0.06203 0.20559 0.0
H1967 H 0.37931 0.06901 0.23008 0.0
H1968 H 0.38249 0.96554 0.24714 0.0
C1969 C 0.40589 0.01819 0.29956 0.0
C1970 C 0.42032 0.05651 0.26695 0.0
C1971 C 0.39582 0.02744 0.31321 0.0
C1972 C 0.36981 0.03918 0.20953 0.0
C1973 C 0.3825 0.0432 0.22356 0.0
C1974 C 0.39402 0.99063 0.25252 0.0
C1975 C 0.40046 0.04212 0.28956 0.0
C1976 C 0.40674 0.03127 0.27454 0.0
C1977 C 0.39677 1.01366 0.22936 0.0
C1978 C 0.40499 0.0172 0.24486 0.0
H1979 H 0.36271 0.11025 0.30972 0.0
H1980 H 0.38078 0.0947 0.28618 0.0
H1981 H 0.38409 0.97767 0.27275 0.0
H1982 H 0.38854 0.95032 0.19981 0.0
H1983 H 0.41066 0.9572 0.22463 0.0
C1984 C 0.81956 0.91815 0.45387 0.0
C1985 C 0.85422 0.91753 0.45261 0.0
C1986 C 0.80678 0.91109 0.46631 0.0
C1987 C 0.82539 0.8664 0.4975 0.0
H1988 H 0.76397 0.93524 0.5153 0.0
C1989 C 0.74707 0.83896 0.54274 0.0
C1990 C 0.74564 0.86687 0.55416 0.0
C1991 C 0.76291 0.84472 0.53088 0.0
C1992 C 0.78127 0.91594 0.51049 0.0
H1993 H 0.90247 0.90813 0.46321 0.0
H1994 H 0.88008 0.89492 0.48473 0.0
H1995 H 0.78492 0.94485 0.49296 0.0
H1996 H 0.75992 0.92272 0.56214 0.0
H1997 H 0.7873 0.93303 0.5412 0.0
H1998 H 0.8213 0.83717 0.5149 0.0
C1999 C 0.86286 0.90109 0.47617 0.0
C2000 C 0.79295 0.92121 0.49764 0.0
C2001 C 0.87566 0.90876 0.46387 0.0
C2002 C 0.76105 0.90055 0.55359 0.0
C2003 C 0.77639 0.90655 0.54157 0.0
C2004 C 0.81327 0.8608 0.51022 0.0
C2005 C 0.82835 0.90269 0.47761 0.0
C2006 C 0.81517 0.89653 0.49103 0.0
C2007 C 0.77711 0.87878 0.53003 0.0
C2008 C 0.79115 0.88555 0.51686 0.0
H2009 H 0.80244 0.92533 0.44546 0.0
H2010 H 0.78003 0.91234 0.46713 0.0
H2011 H 0.84244 0.84691 0.49262 0.0
H2012 H 0.7353 0.81277 0.54288 0.0
H2013 H 0.76289 0.82291 0.52213 0.0
C2014 C 0.3807 0.4869 0.70101 0.0
C2015 C 0.38113 0.52489 0.70147 0.0
C2016 C 0.37734 0.47142 0.71326 0.0
C2017 C 0.38638 0.49427 0.75232 0.0
H2018 H 0.3303 0.40874 0.75112 0.0
C2019 C 0.37069 0.42582 0.80189 0.0
C2020 C 0.33827 0.41345 0.80353 0.0
C2021 C 0.37808 0.43762 0.7893 0.0
C2022 C 0.34593 0.43277 0.75167 0.0
H2023 H 0.37772 0.57618 0.71517 0.0
H2024 H 0.3713 0.54937 0.73627 0.0
H2025 H 0.3384 0.43279 0.72944 0.0
H2026 H 0.28822 0.40428 0.79318 0.0
H2027 H 0.30089 0.42528 0.77153 0.0
H2028 H 0.39287 0.4951 0.77461 0.0
C2029 C 0.37434 0.53144 0.72658 0.0
C2030 C 0.35092 0.44629 0.73918 0.0
C2031 C 0.37782 0.54684 0.71441 0.0
C2032 C 0.31354 0.4133 0.79229 0.0
C2033 C 0.32087 0.42517 0.77979 0.0
C2034 C 0.3813 0.48082 0.76481 0.0
C2035 C 0.37433 0.49355 0.72623 0.0
C2036 C 0.37082 0.47755 0.73936 0.0
C2037 C 0.35324 0.43734 0.77807 0.0
C2038 C 0.36061 0.4502 0.76468 0.0
H2039 H 0.38382 0.46909 0.69131 0.0
H2040 H 0.37779 0.44213 0.71262 0.0
H2041 H 0.40236 0.51802 0.75285 0.0
H2042 H 0.39059 0.42567 0.81017 0.0
H2043 H 0.4034 0.44639 0.78829 0.0
C2044 C 0.84905 0.11712 0.05344 0.0
C2045 C 0.82534 0.11473 0.06321 0.0
C2046 C 0.83917 0.12396 0.03985 0.0
C2047 C 0.76907 0.11017 0.01312 0.0
H2048 H 0.81594 0.1794 0.99497 0.0
C2049 C 0.74859 0.11605 0.95322 0.0
C2050 C 0.74076 0.15077 0.9499 0.0
C2051 C 0.7611 0.11176 0.96689 0.0
C2052 C 0.80269 0.15991 0.99989 0.0
H2053 H 0.7726 0.11798 0.06646 0.0
H2054 H 0.75513 0.12953 0.04251 0.0
H2055 H 0.83161 0.17412 0.01965 0.0
H2056 H 0.74121 0.2082 0.95803 0.0
H2057 H 0.76395 0.20081 0.98169 0.0
H2058 H 0.74033 0.09576 0.99331 0.0
C2059 C 0.78146 0.12636 0.04548 0.0
C2060 C 0.81166 0.15686 0.014 0.0
C2061 C 0.79146 0.12015 0.05921 0.0
C2062 C 0.74719 0.18114 0.96029 0.0
C2063 C 0.76022 0.17692 0.97383 0.0
C2064 C 0.76044 0.11282 0.99894 0.0
C2065 C 0.80523 0.12791 0.03562 0.0
C2066 C 0.79485 0.13208 0.02079 0.0
C2067 C 0.76654 0.14215 0.97739 0.0
C2068 C 0.77707 0.13782 0.99219 0.0
H2069 H 0.87533 0.11296 0.05622 0.0
H2070 H 0.85803 0.12477 0.03249 0.0
H2071 H 0.75594 0.09055 0.01802 0.0
H2072 H 0.74342 0.09214 0.94548 0.0
H2073 H 0.76596 0.08464 0.96934 0.0
C2074 C 0.13153 0.56372 0.30772 0.0
C2075 C 0.14306 0.53497 0.3147 0.0
C2076 C 0.12229 0.55763 0.2932 0.0
C2077 C 0.10372 0.48443 0.26264 0.0
H2078 H 0.14909 0.54841 0.24169 0.0
C2079 C 0.14885 0.43611 0.2085 0.0
C2080 C 0.14847 0.45944 0.19826 0.0
C2081 C 0.13891 0.44819 0.22188 0.0
C2082 C 0.1356 0.53068 0.24732 0.0
H2083 H 0.1529 0.4774 0.31227 0.0
H2084 H 0.13619 0.46648 0.28716 0.0
H2085 H 0.14718 0.56469 0.26705 0.0
H2086 H 0.13665 0.51381 0.19401 0.0
H2087 H 0.11937 0.5352 0.2176 0.0
H2088 H 0.09341 0.44966 0.24303 0.0
C2089 C 0.1339 0.49366 0.29275 0.0
C2090 C 0.13448 0.54002 0.26188 0.0
C2091 C 0.14349 0.49985 0.30715 0.0
C2092 C 0.13689 0.49504 0.20161 0.0
C2093 C 0.12729 0.50737 0.21516 0.0
C2094 C 0.10485 0.4751 0.24811 0.0
C2095 C 0.12417 0.52262 0.28548 0.0
C2096 C 0.11956 0.51637 0.26979 0.0
C2097 C 0.12859 0.48415 0.2255 0.0
C2098 C 0.12185 0.49745 0.24034 0.0
H2099 H 0.13165 0.59117 0.3133 0.0
H2100 H 0.11478 0.58048 0.28793 0.0
H2101 H 0.09147 0.46591 0.26836 0.0
H2102 H 0.15759 0.40852 0.20626 0.0
H2103 H 0.14074 0.42967 0.22959 0.0
C2104 C 0.2256 0.1121 0.55922 0.0
C2105 C 0.1977 0.08949 0.55969 0.0
C2106 C 0.23828 0.11551 0.54637 0.0
C2107 C 0.21454 0.10093 0.50778 0.0
H2108 H 0.3099 0.11246 0.50566 0.0
C2109 C 0.27771 0.10065 0.45533 0.0
C2110 C 0.30303 0.12712 0.45556 0.0
C2111 C 0.26342 0.09571 0.46773 0.0
C2112 C 0.28316 0.10952 0.5061 0.0
H2113 H 0.16168 0.05231 0.54704 0.0
H2114 H 0.18424 0.05751 0.52476 0.0
H2115 H 0.28879 0.10366 0.52789 0.0
H2116 H 0.33195 0.17 0.46904 0.0
H2117 H 0.30727 0.16116 0.49043 0.0
H2118 H 0.20917 0.10638 0.48587 0.0
C2119 C 0.19592 0.07328 0.53423 0.0
C2120 C 0.27102 0.10459 0.51887 0.0
C2121 C 0.18309 0.07012 0.54705 0.0
C2122 C 0.31286 0.14904 0.46841 0.0
C2123 C 0.29879 0.14394 0.48074 0.0
C2124 C 0.22675 0.10557 0.49496 0.0
C2125 C 0.22351 0.09627 0.53368 0.0
C2126 C 0.23651 0.10053 0.51994 0.0
C2127 C 0.27434 0.11684 0.48062 0.0
C2128 C 0.26118 0.1103 0.49402 0.0
H2129 H 0.23704 0.1281 0.56869 0.0
H2130 H 0.25918 0.13399 0.54636 0.0
H2131 H 0.18777 0.09844 0.50821 0.0
H2132 H 0.26976 0.08277 0.44576 0.0
H2133 H 0.2447 0.07446 0.46733 0.0
C2134 C 0.68727 0.62433 0.22038 0.0
C2135 C 0.66347 0.6192 0.20867 0.0
C2136 C 0.683 0.60811 0.2323 0.0
C2137 C 0.63875 0.53334 0.24478 0.0
H2138 H 0.66511 0.58786 0.28146 0.0
C2139 C 0.65709 0.46461 0.29475 0.0
C2140 C 0.64709 0.48308 0.30748 0.0
C2141 C 0.65674 0.48172 0.28276 0.0
C2142 C 0.65728 0.57234 0.27133 0.0
H2143 H 0.61592 0.59299 0.20061 0.0
H2144 H 0.60863 0.56446 0.22144 0.0
H2145 H 0.66789 0.61677 0.26048 0.0
H2146 H 0.62775 0.53419 0.31728 0.0
H2147 H 0.6274 0.56403 0.29639 0.0
H2148 H 0.62785 0.489 0.25567 0.0
C2149 C 0.63091 0.5808 0.22123 0.0
C2150 C 0.65925 0.58879 0.25926 0.0
C2151 C 0.63519 0.59711 0.20924 0.0
C2152 C 0.63648 0.51923 0.30783 0.0
C2153 C 0.63612 0.53637 0.2958 0.0
C2154 C 0.63679 0.51687 0.25686 0.0
C2155 C 0.6547 0.58631 0.23295 0.0
C2156 C 0.65045 0.56937 0.24581 0.0
C2157 C 0.64622 0.51781 0.2831 0.0
C2158 C 0.64643 0.53601 0.27029 0.0
H2159 H 0.70955 0.64082 0.22034 0.0
H2160 H 0.70219 0.61238 0.24097 0.0
H2161 H 0.63192 0.51751 0.23461 0.0
H2162 H 0.66559 0.43685 0.29404 0.0
H2163 H 0.66526 0.46674 0.27326 0.0
C2164 C 0.26204 0.8569 0.05116 0.0
C2165 C 0.26668 0.88718 0.06172 0.0
C2166 C 0.25021 0.86109 0.03747 0.0
C2167 C 0.24953 0.92635 0.01268 0.0
H2168 H 0.18082 0.86331 0.99106 0.0
C2169 C 0.21913 0.92296 0.95252 0.0
C2170 C 0.18508 0.92748 0.94857 0.0
C2171 C 0.22938 0.91573 0.9661 0.0
C2172 C 0.20012 0.88103 0.99696 0.0
H2173 H 0.26226 0.94567 0.0662 0.0
H2174 H 0.24178 0.95308 0.04211 0.0
H2175 H 0.19602 0.85705 0.01568 0.0
H2176 H 0.13506 0.9265 0.95544 0.0
H2177 H 0.15282 0.91295 0.97888 0.0
H2178 H 0.25372 0.9502 0.99392 0.0
C2179 C 0.24714 0.92605 0.04454 0.0
C2180 C 0.20883 0.87742 0.01103 0.0
C2181 C 0.25846 0.92177 0.05835 0.0
C2182 C 0.16148 0.9231 0.9582 0.0
C2183 C 0.17162 0.91524 0.97161 0.0
C2184 C 0.24116 0.92959 0.99853 0.0
C2185 C 0.24331 0.89576 0.03392 0.0
C2186 C 0.23348 0.90019 0.01907 0.0
C2187 C 0.2057 0.91222 0.97583 0.0
C2188 C 0.21621 0.90711 0.99055 0.0
H2189 H 0.26829 0.82993 0.05344 0.0
H2190 H 0.24771 0.83728 0.02952 0.0
H2191 H 0.26889 0.94398 0.01857 0.0
H2192 H 0.23787 0.92664 0.94537 0.0
H2193 H 0.25582 0.91333 0.96906 0.0
C2194 C 0.88027 0.49471 0.70497 0.0
C2195 C 0.87052 0.45791 0.70228 0.0
C2196 C 0.88697 0.51198 0.71885 0.0
C2197 C 0.90265 0.4963 0.7561 0.0
H2198 H 0.8493 0.58223 0.76412 0.0
C2199 C 0.86421 0.54912 0.81203 0.0
C2200 C 0.85795 0.58632 0.81551 0.0
C2201 C 0.87281 0.53516 0.79851 0.0
C2202 C 0.86505 0.55879 0.76215 0.0
H2203 H 0.86231 0.40978 0.71184 0.0
H2204 H 0.87462 0.43952 0.73593 0.0
H2205 H 0.854 0.55546 0.73991 0.0
H2206 H 0.85793 0.63836 0.80795 0.0
H2207 H 0.87438 0.61454 0.78473 0.0
H2208 H 0.91346 0.49937 0.77836 0.0
C2209 C 0.87702 0.4552 0.72743 0.0
C2210 C 0.86769 0.54339 0.74819 0.0
C2211 C 0.86985 0.43818 0.71362 0.0
C2212 C 0.86227 0.60949 0.8055 0.0
C2213 C 0.87143 0.59571 0.79213 0.0
C2214 C 0.90033 0.51195 0.7701 0.0
C2215 C 0.88452 0.49258 0.73025 0.0
C2216 C 0.88597 0.51158 0.74499 0.0
C2217 C 0.87577 0.55818 0.78825 0.0
C2218 C 0.88096 0.54307 0.77335 0.0
H2219 H 0.8806 0.51066 0.69643 0.0
H2220 H 0.89289 0.54079 0.7207 0.0
H2221 H 0.91712 0.47188 0.75396 0.0
H2222 H 0.86067 0.53055 0.81947 0.0
H2223 H 0.87557 0.50608 0.79594 0.0
loop_
_geom_bond_atom_site_label_1
_geom_bond_atom_site_label_2
_geom_bond_distance
_geom_bond_site_symmetry_2
_ccdc_geom_bond_type
Zn0 N4 2.020 . S
Zn0 O8 2.019 . S
Zn0 N10 2.119 . S
Zn0 O18 1.975 . S
C1 N2 1.334 . S
C1 N5 1.336 . S
N2 C1 1.334 . S
N2 C3 1.334 . S
C3 N2 1.334 . S
C3 N4 1.336 . S
N4 Zn0 2.020 . S
N4 C3 1.336 . S
N4 N5 1.354 . S
N5 C1 1.336 . S
N5 N4 1.354 . S
N5 Zn9 2.020 . S
C6 O7 1.244 . S
C6 O30 1.257 . S
O7 C6 1.244 . S
O8 Zn0 2.019 . S
O8 C28 1.257 . S
Zn9 N5 2.020 . S
Zn9 O16 1.975 . S
Zn9 N25 2.119 . S
Zn9 O30 2.019 . S
N10 Zn0 2.119 . S
N10 C12 1.334 . S
N10 C13 1.328 . S
C11 C12 1.391 . S
C11 N14 1.329 . S
C11 H32 0.930 . S
C12 N10 1.334 . S
C12 C11 1.391 . S
C12 H19 0.930 . S
C13 N10 1.328 . S
C13 C15 1.392 . S
C13 H20 0.930 . S
N14 C11 1.329 . S
N14 C15 1.331 . S
C15 C13 1.392 . S
C15 N14 1.331 . S
O16 Zn9 1.975 . S
O16 C17 1.252 . S
C17 O16 1.252 . S
C17 O18 1.252 . S
O18 Zn0 1.975 . S
O18 C17 1.252 . S
H19 C12 0.930 . S
H20 C13 0.930 . S
C21 C22 1.392 . S
C21 N25 1.328 . S
C21 H27 0.930 . S
C22 C21 1.392 . S
C22 N26 1.331 . S
C23 C24 1.391 . S
C23 N26 1.329 . S
C23 H33 0.930 . S
C24 C23 1.391 . S
C24 N25 1.334 . S
C24 H31 0.930 . S
N25 Zn9 2.119 . S
N25 C21 1.328 . S
N25 C24 1.334 . S
N26 C22 1.331 . S
N26 C23 1.329 . S
H27 C21 0.930 . S
C28 O8 1.257 . S
C28 O29 1.244 . S
O29 C28 1.244 . S
O30 C6 1.257 . S
O30 Zn9 2.019 . S
H31 C24 0.930 . S
H32 C11 0.930 . S
H33 C23 0.930 . S
Zn34 N38 2.020 . S
Zn34 O42 2.019 1_565 S
Zn34 N44 2.119 . S
Zn34 O52 1.975 . S
C35 N36 1.334 . S
C35 N39 1.336 . S
N36 C35 1.334 . S
N36 C37 1.334 . S
C37 N36 1.334 . S
C37 N38 1.336 . S
N38 Zn34 2.020 . S
N38 C37 1.336 . S
N38 N39 1.354 . S
N39 C35 1.336 . S
N39 N38 1.354 . S
N39 Zn43 2.020 . S
C40 O41 1.244 . S
C40 O64 1.257 . S
O41 C40 1.244 . S
O42 Zn34 2.019 1_545 S
O42 C62 1.257 . S
Zn43 N39 2.020 . S
Zn43 O50 1.975 . S
Zn43 N59 2.119 . S
Zn43 O64 2.019 . S
N44 Zn34 2.119 . S
N44 C46 1.334 . S
N44 C47 1.328 . S
C45 C46 1.391 . S
C45 N48 1.329 . S
C45 H66 0.930 . S
C46 N44 1.334 . S
C46 C45 1.391 . S
C46 H53 0.930 . S
C47 N44 1.328 . S
C47 C49 1.392 . S
C47 H54 0.930 1_565 S
N48 C45 1.329 . S
N48 C49 1.331 . S
C49 C47 1.392 . S
C49 N48 1.331 . S
O50 Zn43 1.975 . S
O50 C51 1.252 . S
C51 O50 1.252 . S
C51 O52 1.252 . S
O52 Zn34 1.975 . S
O52 C51 1.252 . S
H53 C46 0.930 . S
H54 C47 0.930 1_545 S
C55 C56 1.392 . S
C55 N59 1.328 . S
C55 H61 0.930 . S
C56 C55 1.392 . S
C56 N60 1.331 . S
C57 C58 1.391 . S
C57 N60 1.329 . S
C57 H67 0.930 . S
C58 C57 1.391 . S
C58 N59 1.334 . S
C58 H65 0.930 . S
N59 Zn43 2.119 . S
N59 C55 1.328 . S
N59 C58 1.334 . S
N60 C56 1.331 . S
N60 C57 1.329 . S
H61 C55 0.930 . S
C62 O42 1.257 . S
C62 O63 1.244 . S
O63 C62 1.244 . S
O64 C40 1.257 . S
O64 Zn43 2.019 . S
H65 C58 0.930 . S
H66 C45 0.930 . S
H67 C57 0.930 . S
Zn68 N72 2.020 . S
Zn68 O76 2.019 . S
Zn68 N78 2.119 . S
Zn68 O86 1.975 . S
C69 N70 1.334 . S
C69 N73 1.336 . S
N70 C69 1.334 . S
N70 C71 1.334 . S
C71 N70 1.334 . S
C71 N72 1.336 . S
N72 Zn68 2.020 . S
N72 C71 1.336 . S
N72 N73 1.354 . S
N73 C69 1.336 . S
N73 N72 1.354 . S
N73 Zn77 2.020 . S
C74 O75 1.244 . S
C74 O98 1.257 . S
O75 C74 1.244 . S
O76 Zn68 2.019 . S
O76 C96 1.257 . S
Zn77 N73 2.020 . S
Zn77 O84 1.975 . S
Zn77 N93 2.119 . S
Zn77 O98 2.019 . S
N78 Zn68 2.119 . S
N78 C80 1.334 . S
N78 C81 1.328 . S
C79 C80 1.391 . S
C79 N82 1.329 . S
C79 H100 0.930 . S
C80 N78 1.334 . S
C80 C79 1.391 . S
C80 H87 0.930 . S
C81 N78 1.328 . S
C81 C83 1.392 . S
C81 H88 0.930 . S
N82 C79 1.329 . S
N82 C83 1.331 . S
C83 C81 1.392 . S
C83 N82 1.331 . S
O84 Zn77 1.975 . S
O84 C85 1.252 . S
C85 O84 1.252 . S
C85 O86 1.252 . S
O86 Zn68 1.975 . S
O86 C85 1.252 . S
H87 C80 0.930 . S
H88 C81 0.930 . S
C89 C90 1.392 . S
C89 N93 1.328 . S
C89 H95 0.930 . S
C90 C89 1.392 . S
C90 N94 1.331 . S
C91 C92 1.391 . S
C91 N94 1.329 . S
C91 H101 0.930 . S
C92 C91 1.391 . S
C92 N93 1.334 . S
C92 H99 0.930 . S
N93 Zn77 2.119 . S
N93 C89 1.328 . S
N93 C92 1.334 . S
N94 C90 1.331 . S
N94 C91 1.329 . S
H95 C89 0.930 . S
C96 O76 1.257 . S
C96 O97 1.244 . S
O97 C96 1.244 . S
O98 C74 1.257 . S
O98 Zn77 2.019 . S
H99 C92 0.930 . S
H100 C79 0.930 . S
H101 C91 0.930 . S
Zn102 N106 2.020 . S
Zn102 O110 2.019 . S
Zn102 N112 2.119 . S
Zn102 O120 1.975 . S
C103 N104 1.334 . S
C103 N107 1.336 . S
N104 C103 1.334 . S
N104 C105 1.334 . S
C105 N104 1.334 . S
C105 N106 1.336 . S
N106 Zn102 2.020 . S
N106 C105 1.336 . S
N106 N107 1.354 . S
N107 C103 1.336 . S
N107 N106 1.354 . S
N107 Zn111 2.020 . S
C108 O109 1.244 . S
C108 O132 1.257 . S
O109 C108 1.244 . S
O110 Zn102 2.019 . S
O110 C130 1.257 . S
Zn111 N107 2.020 . S
Zn111 O118 1.975 . S
Zn111 N127 2.119 . S
Zn111 O132 2.019 . S
N112 Zn102 2.119 . S
N112 C114 1.334 . S
N112 C115 1.328 . S
C113 C114 1.391 . S
C113 N116 1.329 . S
C113 H134 0.930 . S
C114 N112 1.334 . S
C114 C113 1.391 . S
C114 H121 0.930 . S
C115 N112 1.328 . S
C115 C117 1.392 . S
C115 H122 0.930 . S
N116 C113 1.329 . S
N116 C117 1.331 . S
C117 C115 1.392 . S
C117 N116 1.331 . S
O118 Zn111 1.975 . S
O118 C119 1.252 . S
C119 O118 1.252 . S
C119 O120 1.252 . S
O120 Zn102 1.975 . S
O120 C119 1.252 . S
H121 C114 0.930 . S
H122 C115 0.930 . S
C123 C124 1.392 . S
C123 N127 1.328 . S
C123 H129 0.930 . S
C124 C123 1.392 . S
C124 N128 1.331 . S
C125 C126 1.391 . S
C125 N128 1.329 . S
C125 H135 0.930 . S
C126 C125 1.391 . S
C126 N127 1.334 . S
C126 H133 0.930 . S
N127 Zn111 2.119 . S
N127 C123 1.328 . S
N127 C126 1.334 . S
N128 C124 1.331 . S
N128 C125 1.329 . S
H129 C123 0.930 . S
C130 O110 1.257 . S
C130 O131 1.244 . S
O131 C130 1.244 . S
O132 C108 1.257 . S
O132 Zn111 2.019 . S
H133 C126 0.930 . S
H134 C113 0.930 . S
H135 C125 0.930 . S
Zn136 N140 2.020 . S
Zn136 O144 2.019 . S
Zn136 N146 2.119 . S
Zn136 O154 1.975 . S
C137 N138 1.334 . S
C137 N141 1.336 . S
N138 C137 1.334 . S
N138 C139 1.334 . S
C139 N138 1.334 . S
C139 N140 1.336 . S
N140 Zn136 2.020 . S
N140 C139 1.336 . S
N140 N141 1.354 . S
N141 C137 1.336 . S
N141 N140 1.354 . S
N141 Zn145 2.020 . S
C142 O143 1.244 . S
C142 O166 1.257 . S
O143 C142 1.244 . S
O144 Zn136 2.019 . S
O144 C164 1.257 . S
Zn145 N141 2.020 . S
Zn145 O152 1.975 . S
Zn145 N161 2.119 . S
Zn145 O166 2.019 . S
N146 Zn136 2.119 . S
N146 C148 1.334 . S
N146 C149 1.328 . S
C147 C148 1.391 . S
C147 N150 1.329 . S
C147 H168 0.930 . S
C148 N146 1.334 . S
C148 C147 1.391 . S
C148 H155 0.930 . S
C149 N146 1.328 . S
C149 C151 1.392 . S
C149 H156 0.930 . S
N150 C147 1.329 . S
N150 C151 1.331 . S
C151 C149 1.392 . S
C151 N150 1.331 . S
O152 Zn145 1.975 . S
O152 C153 1.252 . S
C153 O152 1.252 . S
C153 O154 1.252 . S
O154 Zn136 1.975 . S
O154 C153 1.252 . S
H155 C148 0.930 . S
H156 C149 0.930 . S
C157 C158 1.392 . S
C157 N161 1.328 . S
C157 H163 0.930 . S
C158 C157 1.392 . S
C158 N162 1.331 . S
C159 C160 1.391 . S
C159 N162 1.329 . S
C159 H169 0.930 . S
C160 C159 1.391 . S
C160 N161 1.334 . S
C160 H167 0.930 . S
N161 Zn145 2.119 . S
N161 C157 1.328 . S
N161 C160 1.334 . S
N162 C158 1.331 . S
N162 C159 1.329 . S
H163 C157 0.930 . S
C164 O144 1.257 . S
C164 O165 1.244 . S
O165 C164 1.244 . S
O166 C142 1.257 . S
O166 Zn145 2.019 . S
H167 C160 0.930 . S
H168 C147 0.930 . S
H169 C159 0.930 . S
Zn170 N174 2.020 . S
Zn170 O178 2.019 . S
Zn170 N180 2.119 . S
Zn170 O188 1.975 . S
C171 N172 1.334 . S
C171 N175 1.336 . S
N172 C171 1.334 . S
N172 C173 1.334 . S
C173 N172 1.334 . S
C173 N174 1.336 . S
N174 Zn170 2.020 . S
N174 C173 1.336 . S
N174 N175 1.354 . S
N175 C171 1.336 . S
N175 N174 1.354 . S
N175 Zn179 2.020 . S
C176 O177 1.244 . S
C176 O200 1.257 . S
O177 C176 1.244 . S
O178 Zn170 2.019 . S
O178 C198 1.257 . S
Zn179 N175 2.020 . S
Zn179 O186 1.975 . S
Zn179 N195 2.119 . S
Zn179 O200 2.019 . S
N180 Zn170 2.119 . S
N180 C182 1.334 . S
N180 C183 1.328 . S
C181 C182 1.391 . S
C181 N184 1.329 . S
C181 H202 0.930 . S
C182 N180 1.334 . S
C182 C181 1.391 . S
C182 H189 0.930 . S
C183 N180 1.328 . S
C183 C185 1.392 . S
C183 H190 0.930 . S
N184 C181 1.329 . S
N184 C185 1.331 . S
C185 C183 1.392 . S
C185 N184 1.331 . S
O186 Zn179 1.975 . S
O186 C187 1.252 . S
C187 O186 1.252 . S
C187 O188 1.252 . S
O188 Zn170 1.975 . S
O188 C187 1.252 . S
H189 C182 0.930 . S
H190 C183 0.930 . S
C191 C192 1.392 . S
C191 N195 1.328 . S
C191 H197 0.930 . S
C192 C191 1.392 . S
C192 N196 1.331 . S
C193 C194 1.391 . S
C193 N196 1.329 . S
C193 H203 0.930 . S
C194 C193 1.391 . S
C194 N195 1.334 . S
C194 H201 0.930 . S
N195 Zn179 2.119 . S
N195 C191 1.328 . S
N195 C194 1.334 . S
N196 C192 1.331 . S
N196 C193 1.329 . S
H197 C191 0.930 . S
C198 O178 1.257 . S
C198 O199 1.244 . S
O199 C198 1.244 . S
O200 C176 1.257 . S
O200 Zn179 2.019 . S
H201 C194 0.930 . S
H202 C181 0.930 . S
H203 C193 0.930 . S
Zn204 N208 2.020 . S
Zn204 O212 2.019 . S
Zn204 N214 2.119 . S
Zn204 O222 1.975 . S
C205 N206 1.334 . S
C205 N209 1.336 . S
N206 C205 1.334 . S
N206 C207 1.334 . S
C207 N206 1.334 . S
C207 N208 1.336 . S
N208 Zn204 2.020 . S
N208 C207 1.336 . S
N208 N209 1.354 . S
N209 C205 1.336 . S
N209 N208 1.354 . S
N209 Zn213 2.020 . S
C210 O211 1.244 . S
C210 O234 1.257 . S
O211 C210 1.244 . S
O212 Zn204 2.019 . S
O212 C232 1.257 . S
Zn213 N209 2.020 . S
Zn213 O220 1.975 . S
Zn213 N229 2.119 . S
Zn213 O234 2.019 . S
N214 Zn204 2.119 . S
N214 C216 1.334 . S
N214 C217 1.328 . S
C215 C216 1.391 . S
C215 N218 1.329 . S
C215 H236 0.930 . S
C216 N214 1.334 . S
C216 C215 1.391 . S
C216 H223 0.930 . S
C217 N214 1.328 . S
C217 C219 1.392 . S
C217 H224 0.930 . S
N218 C215 1.329 . S
N218 C219 1.331 . S
C219 C217 1.392 . S
C219 N218 1.331 . S
O220 Zn213 1.975 . S
O220 C221 1.252 . S
C221 O220 1.252 . S
C221 O222 1.252 . S
O222 Zn204 1.975 . S
O222 C221 1.252 . S
H223 C216 0.930 . S
H224 C217 0.930 . S
C225 C226 1.392 . S
C225 N229 1.328 . S
C225 H231 0.930 . S
C226 C225 1.392 . S
C226 N230 1.331 . S
C227 C228 1.391 . S
C227 N230 1.329 . S
C227 H237 0.930 . S
C228 C227 1.391 . S
C228 N229 1.334 . S
C228 H235 0.930 . S
N229 Zn213 2.119 . S
N229 C225 1.328 . S
N229 C228 1.334 . S
N230 C226 1.331 . S
N230 C227 1.329 . S
H231 C225 0.930 . S
C232 O212 1.257 . S
C232 O233 1.244 . S
O233 C232 1.244 . S
O234 C210 1.257 . S
O234 Zn213 2.019 . S
H235 C228 0.930 . S
H236 C215 0.930 . S
H237 C227 0.930 . S
Zn238 N242 2.020 . S
Zn238 O246 2.019 . S
Zn238 N248 2.119 . S
Zn238 O256 1.975 . S
C239 N240 1.334 . S
C239 N243 1.336 . S
N240 C239 1.334 . S
N240 C241 1.334 . S
C241 N240 1.334 . S
C241 N242 1.336 . S
N242 Zn238 2.020 . S
N242 C241 1.336 . S
N242 N243 1.354 . S
N243 C239 1.336 . S
N243 N242 1.354 . S
N243 Zn247 2.020 . S
C244 O245 1.244 . S
C244 O268 1.257 . S
O245 C244 1.244 . S
O246 Zn238 2.019 . S
O246 C266 1.257 . S
Zn247 N243 2.020 . S
Zn247 O254 1.975 . S
Zn247 N263 2.119 . S
Zn247 O268 2.019 1_545 S
N248 Zn238 2.119 . S
N248 C250 1.334 . S
N248 C251 1.328 . S
C249 C250 1.391 . S
C249 N252 1.329 . S
C249 H270 0.930 . S
C250 N248 1.334 . S
C250 C249 1.391 . S
C250 H257 0.930 . S
C251 N248 1.328 . S
C251 C253 1.392 . S
C251 H258 0.930 . S
N252 C249 1.329 . S
N252 C253 1.331 . S
C253 C251 1.392 . S
C253 N252 1.331 . S
O254 Zn247 1.975 . S
O254 C255 1.252 . S
C255 O254 1.252 . S
C255 O256 1.252 . S
O256 Zn238 1.975 . S
O256 C255 1.252 . S
H257 C250 0.930 . S
H258 C251 0.930 . S
C259 C260 1.392 . S
C259 N263 1.328 . S
C259 H265 0.930 . S
C260 C259 1.392 . S
C260 N264 1.331 . S
C261 C262 1.391 . S
C261 N264 1.329 . S
C261 H271 0.930 . S
C262 C261 1.391 . S
C262 N263 1.334 . S
C262 H269 0.930 . S
N263 Zn247 2.119 . S
N263 C259 1.328 . S
N263 C262 1.334 . S
N264 C260 1.331 . S
N264 C261 1.329 . S
H265 C259 0.930 . S
C266 O246 1.257 . S
C266 O267 1.244 . S
O267 C266 1.244 . S
O268 C244 1.257 . S
O268 Zn247 2.019 1_565 S
H269 C262 0.930 . S
H270 C249 0.930 . S
H271 C261 0.930 . S
Zn272 N276 2.020 . S
Zn272 O280 2.019 . S
Zn272 N282 2.119 . S
Zn272 O290 1.975 . S
C273 N274 1.334 . S
C273 N277 1.336 . S
N274 C273 1.334 . S
N274 C275 1.334 . S
C275 N274 1.334 . S
C275 N276 1.336 . S
N276 Zn272 2.020 . S
N276 C275 1.336 . S
N276 N277 1.354 . S
N277 C273 1.336 . S
N277 N276 1.354 . S
N277 Zn281 2.020 . S
C278 O279 1.244 . S
C278 O302 1.257 . S
O279 C278 1.244 . S
O280 Zn272 2.019 . S
O280 C300 1.257 . S
Zn281 N277 2.020 . S
Zn281 O288 1.975 . S
Zn281 N297 2.119 . S
Zn281 O302 2.019 . S
N282 Zn272 2.119 . S
N282 C284 1.334 . S
N282 C285 1.328 . S
C283 C284 1.391 . S
C283 N286 1.329 . S
C283 H304 0.930 . S
C284 N282 1.334 . S
C284 C283 1.391 . S
C284 H291 0.930 . S
C285 N282 1.328 . S
C285 C287 1.392 . S
C285 H292 0.930 . S
N286 C283 1.329 . S
N286 C287 1.331 . S
C287 C285 1.392 . S
C287 N286 1.331 . S
O288 Zn281 1.975 . S
O288 C289 1.252 . S
C289 O288 1.252 . S
C289 O290 1.252 . S
O290 Zn272 1.975 . S
O290 C289 1.252 . S
H291 C284 0.930 . S
H292 C285 0.930 . S
C293 C294 1.392 . S
C293 N297 1.328 . S
C293 H299 0.930 . S
C294 C293 1.392 . S
C294 N298 1.331 . S
C295 C296 1.391 . S
C295 N298 1.329 . S
C295 H305 0.930 . S
C296 C295 1.391 . S
C296 N297 1.334 . S
C296 H303 0.930 . S
N297 Zn281 2.119 . S
N297 C293 1.328 . S
N297 C296 1.334 . S
N298 C294 1.331 . S
N298 C295 1.329 . S
H299 C293 0.930 . S
C300 O280 1.257 . S
C300 O301 1.244 . S
O301 C300 1.244 . S
O302 C278 1.257 . S
O302 Zn281 2.019 . S
H303 C296 0.930 . S
H304 C283 0.930 . S
H305 C295 0.930 . S
Zn306 N310 2.020 . S
Zn306 O314 2.019 . S
Zn306 N316 2.119 . S
Zn306 O324 1.975 . S
C307 N308 1.334 . S
C307 N311 1.336 . S
N308 C307 1.334 . S
N308 C309 1.334 . S
C309 N308 1.334 . S
C309 N310 1.336 . S
N310 Zn306 2.020 . S
N310 C309 1.336 . S
N310 N311 1.354 . S
N311 C307 1.336 . S
N311 N310 1.354 . S
N311 Zn315 2.020 . S
C312 O313 1.244 . S
C312 O336 1.257 . S
O313 C312 1.244 . S
O314 Zn306 2.019 . S
O314 C334 1.257 . S
Zn315 N311 2.020 . S
Zn315 O322 1.975 1_545 S
Zn315 N331 2.119 . S
Zn315 O336 2.019 . S
N316 Zn306 2.119 . S
N316 C318 1.334 . S
N316 C319 1.328 . S
C317 C318 1.391 . S
C317 N320 1.329 . S
C317 H338 0.930 . S
C318 N316 1.334 . S
C318 C317 1.391 . S
C318 H325 0.930 . S
C319 N316 1.328 . S
C319 C321 1.392 . S
C319 H326 0.930 . S
N320 C317 1.329 . S
N320 C321 1.331 . S
C321 C319 1.392 . S
C321 N320 1.331 . S
O322 Zn315 1.975 1_565 S
O322 C323 1.252 . S
C323 O322 1.252 . S
C323 O324 1.252 1_565 S
O324 Zn306 1.975 . S
O324 C323 1.252 1_545 S
H325 C318 0.930 . S
H326 C319 0.930 . S
C327 C328 1.392 . S
C327 N331 1.328 . S
C327 H333 0.930 . S
C328 C327 1.392 . S
C328 N332 1.331 . S
C329 C330 1.391 . S
C329 N332 1.329 . S
C329 H339 0.930 . S
C330 C329 1.391 . S
C330 N331 1.334 . S
C330 H337 0.930 . S
N331 Zn315 2.119 . S
N331 C327 1.328 . S
N331 C330 1.334 . S
N332 C328 1.331 . S
N332 C329 1.329 . S
H333 C327 0.930 . S
C334 O314 1.257 . S
C334 O335 1.244 . S
O335 C334 1.244 . S
O336 C312 1.257 . S
O336 Zn315 2.019 . S
H337 C330 0.930 . S
H338 C317 0.930 . S
H339 C329 0.930 . S
Zn340 N344 2.020 . S
Zn340 O348 2.019 . S
Zn340 N350 2.119 . S
Zn340 O358 1.975 . S
C341 N342 1.334 . S
C341 N345 1.336 . S
N342 C341 1.334 . S
N342 C343 1.334 . S
C343 N342 1.334 . S
C343 N344 1.336 . S
N344 Zn340 2.020 . S
N344 C343 1.336 . S
N344 N345 1.354 . S
N345 C341 1.336 . S
N345 N344 1.354 . S
N345 Zn349 2.020 . S
C346 O347 1.244 . S
C346 O370 1.257 . S
O347 C346 1.244 . S
O348 Zn340 2.019 . S
O348 C368 1.257 . S
Zn349 N345 2.020 . S
Zn349 O356 1.975 . S
Zn349 N365 2.119 . S
Zn349 O370 2.019 . S
N350 Zn340 2.119 . S
N350 C352 1.334 . S
N350 C353 1.328 . S
C351 C352 1.391 . S
C351 N354 1.329 . S
C351 H372 0.930 . S
C352 N350 1.334 . S
C352 C351 1.391 . S
C352 H359 0.930 . S
C353 N350 1.328 . S
C353 C355 1.392 . S
C353 H360 0.930 . S
N354 C351 1.329 . S
N354 C355 1.331 . S
C355 C353 1.392 . S
C355 N354 1.331 . S
O356 Zn349 1.975 . S
O356 C357 1.252 . S
C357 O356 1.252 . S
C357 O358 1.252 . S
O358 Zn340 1.975 . S
O358 C357 1.252 . S
H359 C352 0.930 . S
H360 C353 0.930 . S
C361 C362 1.392 . S
C361 N365 1.328 . S
C361 H367 0.930 . S
C362 C361 1.392 . S
C362 N366 1.331 . S
C363 C364 1.391 . S
C363 N366 1.329 . S
C363 H373 0.930 . S
C364 C363 1.391 . S
C364 N365 1.334 . S
C364 H371 0.930 . S
N365 Zn349 2.119 . S
N365 C361 1.328 . S
N365 C364 1.334 . S
N366 C362 1.331 . S
N366 C363 1.329 . S
H367 C361 0.930 . S
C368 O348 1.257 . S
C368 O369 1.244 . S
O369 C368 1.244 . S
O370 C346 1.257 . S
O370 Zn349 2.019 . S
H371 C364 0.930 . S
H372 C351 0.930 . S
H373 C363 0.930 . S
Zn374 N378 2.020 . S
Zn374 O382 2.019 . S
Zn374 N384 2.119 . S
Zn374 O392 1.975 . S
C375 N376 1.334 . S
C375 N379 1.336 . S
N376 C375 1.334 . S
N376 C377 1.334 . S
C377 N376 1.334 . S
C377 N378 1.336 . S
N378 Zn374 2.020 . S
N378 C377 1.336 . S
N378 N379 1.354 . S
N379 C375 1.336 . S
N379 N378 1.354 . S
N379 Zn383 2.020 . S
C380 O381 1.244 . S
C380 O404 1.257 . S
O381 C380 1.244 . S
O382 Zn374 2.019 . S
O382 C402 1.257 . S
Zn383 N379 2.020 . S
Zn383 O390 1.975 . S
Zn383 N399 2.119 . S
Zn383 O404 2.019 . S
N384 Zn374 2.119 . S
N384 C386 1.334 . S
N384 C387 1.328 . S
C385 C386 1.391 . S
C385 N388 1.329 . S
C385 H406 0.930 . S
C386 N384 1.334 . S
C386 C385 1.391 . S
C386 H393 0.930 . S
C387 N384 1.328 . S
C387 C389 1.392 . S
C387 H394 0.930 . S
N388 C385 1.329 . S
N388 C389 1.331 . S
C389 C387 1.392 . S
C389 N388 1.331 . S
O390 Zn383 1.975 . S
O390 C391 1.252 . S
C391 O390 1.252 . S
C391 O392 1.252 . S
O392 Zn374 1.975 . S
O392 C391 1.252 . S
H393 C386 0.930 . S
H394 C387 0.930 . S
C395 C396 1.392 . S
C395 N399 1.328 . S
C395 H401 0.930 . S
C396 C395 1.392 . S
C396 N400 1.331 . S
C397 C398 1.391 . S
C397 N400 1.329 . S
C397 H407 0.930 . S
C398 C397 1.391 . S
C398 N399 1.334 . S
C398 H405 0.930 . S
N399 Zn383 2.119 . S
N399 C395 1.328 . S
N399 C398 1.334 . S
N400 C396 1.331 . S
N400 C397 1.329 . S
H401 C395 0.930 . S
C402 O382 1.257 . S
C402 O403 1.244 . S
O403 C402 1.244 . S
O404 C380 1.257 . S
O404 Zn383 2.019 . S
H405 C398 0.930 . S
H406 C385 0.930 . S
H407 C397 0.930 . S
Zn408 N412 2.020 . S
Zn408 O416 2.019 . S
Zn408 N418 2.119 . S
Zn408 O426 1.975 . S
C409 N410 1.334 . S
C409 N413 1.336 . S
N410 C409 1.334 . S
N410 C411 1.334 . S
C411 N410 1.334 . S
C411 N412 1.336 . S
N412 Zn408 2.020 . S
N412 C411 1.336 . S
N412 N413 1.354 . S
N413 C409 1.336 . S
N413 N412 1.354 . S
N413 Zn417 2.020 . S
C414 O415 1.244 . S
C414 O438 1.257 . S
O415 C414 1.244 . S
O416 Zn408 2.019 . S
O416 C436 1.257 . S
Zn417 N413 2.020 . S
Zn417 O424 1.975 . S
Zn417 N433 2.119 . S
Zn417 O438 2.019 . S
N418 Zn408 2.119 . S
N418 C420 1.334 . S
N418 C421 1.328 . S
C419 C420 1.391 . S
C419 N422 1.329 . S
C419 H440 0.930 . S
C420 N418 1.334 . S
C420 C419 1.391 . S
C420 H427 0.930 . S
C421 N418 1.328 . S
C421 C423 1.392 . S
C421 H428 0.930 . S
N422 C419 1.329 . S
N422 C423 1.331 . S
C423 C421 1.392 . S
C423 N422 1.331 . S
O424 Zn417 1.975 . S
O424 C425 1.252 . S
C425 O424 1.252 . S
C425 O426 1.252 . S
O426 Zn408 1.975 . S
O426 C425 1.252 . S
H427 C420 0.930 . S
H428 C421 0.930 . S
C429 C430 1.392 . S
C429 N433 1.328 . S
C429 H435 0.930 . S
C430 C429 1.392 . S
C430 N434 1.331 . S
C431 C432 1.391 . S
C431 N434 1.329 . S
C431 H441 0.930 . S
C432 C431 1.391 . S
C432 N433 1.334 . S
C432 H439 0.930 . S
N433 Zn417 2.119 . S
N433 C429 1.328 . S
N433 C432 1.334 . S
N434 C430 1.331 . S
N434 C431 1.329 . S
H435 C429 0.930 . S
C436 O416 1.257 . S
C436 O437 1.244 . S
O437 C436 1.244 . S
O438 C414 1.257 . S
O438 Zn417 2.019 . S
H439 C432 0.930 . S
H440 C419 0.930 . S
H441 C431 0.930 . S
Zn442 N446 2.020 . S
Zn442 O450 2.019 . S
Zn442 N452 2.119 . S
Zn442 O460 1.975 . S
C443 N444 1.334 . S
C443 N447 1.336 . S
N444 C443 1.334 . S
N444 C445 1.334 . S
C445 N444 1.334 . S
C445 N446 1.336 . S
N446 Zn442 2.020 . S
N446 C445 1.336 . S
N446 N447 1.354 . S
N447 C443 1.336 . S
N447 N446 1.354 . S
N447 Zn451 2.020 . S
C448 O449 1.244 . S
C448 O472 1.257 . S
O449 C448 1.244 . S
O450 Zn442 2.019 . S
O450 C470 1.257 . S
Zn451 N447 2.020 . S
Zn451 O458 1.975 . S
Zn451 N467 2.119 . S
Zn451 O472 2.019 . S
N452 Zn442 2.119 . S
N452 C454 1.334 . S
N452 C455 1.328 . S
C453 C454 1.391 . S
C453 N456 1.329 . S
C453 H474 0.930 . S
C454 N452 1.334 . S
C454 C453 1.391 . S
C454 H461 0.930 . S
C455 N452 1.328 . S
C455 C457 1.392 . S
C455 H462 0.930 . S
N456 C453 1.329 . S
N456 C457 1.331 . S
C457 C455 1.392 . S
C457 N456 1.331 . S
O458 Zn451 1.975 . S
O458 C459 1.252 . S
C459 O458 1.252 . S
C459 O460 1.252 . S
O460 Zn442 1.975 . S
O460 C459 1.252 . S
H461 C454 0.930 . S
H462 C455 0.930 . S
C463 C464 1.392 . S
C463 N467 1.328 . S
C463 H469 0.930 . S
C464 C463 1.392 . S
C464 N468 1.331 . S
C465 C466 1.391 . S
C465 N468 1.329 . S
C465 H475 0.930 . S
C466 C465 1.391 . S
C466 N467 1.334 . S
C466 H473 0.930 . S
N467 Zn451 2.119 . S
N467 C463 1.328 . S
N467 C466 1.334 . S
N468 C464 1.331 . S
N468 C465 1.329 . S
H469 C463 0.930 . S
C470 O450 1.257 . S
C470 O471 1.244 . S
O471 C470 1.244 . S
O472 C448 1.257 . S
O472 Zn451 2.019 . S
H473 C466 0.930 . S
H474 C453 0.930 . S
H475 C465 0.930 . S
Zn476 N480 2.020 . S
Zn476 O484 2.019 . S
Zn476 N486 2.119 . S
Zn476 O494 1.975 . S
C477 N478 1.334 . S
C477 N481 1.336 . S
N478 C477 1.334 . S
N478 C479 1.334 . S
C479 N478 1.334 . S
C479 N480 1.336 . S
N480 Zn476 2.020 . S
N480 C479 1.336 . S
N480 N481 1.354 . S
N481 C477 1.336 . S
N481 N480 1.354 . S
N481 Zn485 2.020 . S
C482 O483 1.244 . S
C482 O506 1.257 . S
O483 C482 1.244 . S
O484 Zn476 2.019 . S
O484 C504 1.257 . S
Zn485 N481 2.020 . S
Zn485 O492 1.975 . S
Zn485 N501 2.119 . S
Zn485 O506 2.019 . S
N486 Zn476 2.119 . S
N486 C488 1.334 . S
N486 C489 1.328 . S
C487 C488 1.391 . S
C487 N490 1.329 . S
C487 H508 0.930 . S
C488 N486 1.334 . S
C488 C487 1.391 . S
C488 H495 0.930 . S
C489 N486 1.328 . S
C489 C491 1.392 . S
C489 H496 0.930 . S
N490 C487 1.329 . S
N490 C491 1.331 . S
C491 C489 1.392 . S
C491 N490 1.331 . S
O492 Zn485 1.975 . S
O492 C493 1.252 . S
C493 O492 1.252 . S
C493 O494 1.252 . S
O494 Zn476 1.975 . S
O494 C493 1.252 . S
H495 C488 0.930 . S
H496 C489 0.930 . S
C497 C498 1.392 . S
C497 N501 1.328 . S
C497 H503 0.930 . S
C498 C497 1.392 . S
C498 N502 1.331 . S
C499 C500 1.391 . S
C499 N502 1.329 . S
C499 H509 0.930 . S
C500 C499 1.391 . S
C500 N501 1.334 . S
C500 H507 0.930 . S
N501 Zn485 2.119 . S
N501 C497 1.328 . S
N501 C500 1.334 . S
N502 C498 1.331 . S
N502 C499 1.329 . S
H503 C497 0.930 . S
C504 O484 1.257 . S
C504 O505 1.244 . S
O505 C504 1.244 . S
O506 C482 1.257 . S
O506 Zn485 2.019 . S
H507 C500 0.930 . S
H508 C487 0.930 . S
H509 C499 0.930 . S
Zn510 N514 2.020 . S
Zn510 O518 2.019 . S
Zn510 N520 2.119 . S
Zn510 O528 1.975 . S
C511 N512 1.334 . S
C511 N515 1.336 . S
N512 C511 1.334 . S
N512 C513 1.334 . S
C513 N512 1.334 . S
C513 N514 1.336 . S
N514 Zn510 2.020 . S
N514 C513 1.336 . S
N514 N515 1.354 . S
N515 C511 1.336 . S
N515 N514 1.354 . S
N515 Zn519 2.020 . S
C516 O517 1.244 . S
C516 O540 1.257 . S
O517 C516 1.244 . S
O518 Zn510 2.019 . S
O518 C538 1.257 . S
Zn519 N515 2.020 . S
Zn519 O526 1.975 . S
Zn519 N535 2.119 . S
Zn519 O540 2.019 1_565 S
N520 Zn510 2.119 . S
N520 C522 1.334 . S
N520 C523 1.328 . S
C521 C522 1.391 . S
C521 N524 1.329 . S
C521 H542 0.912 1_565 S
C522 N520 1.334 . S
C522 C521 1.391 . S
C522 H529 0.930 . S
C523 N520 1.328 . S
C523 C525 1.392 . S
C523 H530 0.930 . S
N524 C521 1.329 . S
N524 C525 1.331 . S
C525 C523 1.392 . S
C525 N524 1.331 . S
O526 Zn519 1.975 . S
O526 C527 1.252 . S
C527 O526 1.252 . S
C527 O528 1.252 . S
O528 Zn510 1.975 . S
O528 C527 1.252 . S
H529 C522 0.930 . S
H530 C523 0.930 . S
C531 C532 1.392 . S
C531 N535 1.328 . S
C531 H537 0.930 1_565 S
C532 C531 1.392 . S
C532 N536 1.331 . S
C533 C534 1.391 . S
C533 N536 1.329 . S
C533 H543 0.930 . S
C534 C533 1.391 . S
C534 N535 1.334 . S
C534 H541 0.930 . S
N535 Zn519 2.119 . S
N535 C531 1.328 . S
N535 C534 1.334 . S
N536 C532 1.331 . S
N536 C533 1.329 . S
H537 C531 0.930 1_545 S
C538 O518 1.257 . S
C538 O539 1.244 . S
O539 C538 1.244 . S
O540 C516 1.257 . S
O540 Zn519 2.019 1_545 S
H541 C534 0.930 . S
H542 C521 0.912 1_545 S
H543 C533 0.930 . S
C544 C545 1.349 . S
C544 C546 1.327 . S
C544 H569 0.950 . S
C545 C544 1.349 . S
C545 C561 1.349 . S
C546 C544 1.327 . S
C546 C565 1.429 . S
C546 H570 0.950 . S
C547 C564 1.574 1_455 S
C547 C566 1.368 . S
C547 H571 0.949 . S
H548 C552 0.949 . S
C549 C550 1.349 . S
C549 C551 1.327 . S
C549 H572 0.950 . S
C550 C549 1.349 . S
C550 C562 1.349 . S
C551 C549 1.327 . S
C551 C567 1.429 . S
C551 H573 0.950 . S
C552 H548 0.949 . S
C552 C560 1.574 . S
C552 C568 1.368 . S
H553 C561 0.950 . S
H554 C559 0.950 . S
H555 C560 0.949 . S
H556 C562 0.950 . S
H557 C563 0.950 . S
H558 C564 0.949 . S
C559 H554 0.950 . S
C559 C561 1.327 . S
C559 C565 1.429 . S
C560 C552 1.574 . S
C560 H555 0.949 . S
C560 C566 1.368 1_655 S
C561 C545 1.349 . S
C561 H553 0.950 . S
C561 C559 1.327 . S
C562 C550 1.349 . S
C562 H556 0.950 . S
C562 C563 1.327 . S
C563 H557 0.950 . S
C563 C562 1.327 . S
C563 C567 1.429 . S
C564 C547 1.574 1_655 S
C564 H558 0.949 . S
C564 C568 1.368 . S
C565 C546 1.429 . S
C565 C559 1.429 . S
C565 C566 1.523 . S
C566 C547 1.368 . S
C566 C560 1.368 1_455 S
C566 C565 1.523 . S
C567 C551 1.429 . S
C567 C563 1.429 . S
C567 C568 1.523 . S
C568 C552 1.368 . S
C568 C564 1.368 . S
C568 C567 1.523 . S
H569 C544 0.950 . S
H570 C546 0.950 . S
H571 C547 0.949 . S
H572 C549 0.950 . S
H573 C551 0.950 . S
C574 C575 1.349 . S
C574 C576 1.327 . S
C574 H599 0.950 . S
C575 C574 1.349 . S
C575 C591 1.349 . S
C576 C574 1.327 . S
C576 C595 1.429 . S
C576 H600 0.950 . S
C577 C594 1.574 . S
C577 C596 1.368 1_455 S
C577 H601 0.949 . S
H578 C582 0.949 . S
C579 C580 1.349 . S
C579 C581 1.327 . S
C579 H602 0.950 . S
C580 C579 1.349 . S
C580 C592 1.349 . S
C581 C579 1.327 . S
C581 C597 1.429 . S
C581 H603 0.950 . S
C582 H578 0.949 . S
C582 C590 1.554 1_455 S
C582 C598 1.389 . S
H583 C591 0.950 . S
H584 C589 0.950 . S
H585 C590 0.949 . S
H586 C592 0.950 . S
H587 C593 0.950 . S
H588 C594 0.949 . S
C589 H584 0.950 . S
C589 C591 1.327 . S
C589 C595 1.429 . S
C590 C582 1.554 1_655 S
C590 H585 0.949 . S
C590 C596 1.368 . S
C591 C575 1.349 . S
C591 H583 0.950 . S
C591 C589 1.327 . S
C592 C580 1.349 . S
C592 H586 0.950 . S
C592 C593 1.327 . S
C593 H587 0.950 . S
C593 C592 1.327 . S
C593 C597 1.429 . S
C594 C577 1.574 . S
C594 H588 0.949 . S
C594 C598 1.368 . S
C595 C576 1.429 . S
C595 C589 1.429 . S
C595 C596 1.523 . S
C596 C577 1.368 1_655 S
C596 C590 1.368 . S
C596 C595 1.523 . S
C597 C581 1.429 . S
C597 C593 1.429 . S
C597 C598 1.523 . S
C598 C582 1.389 . S
C598 C594 1.368 . S
C598 C597 1.523 . S
H599 C574 0.950 . S
H600 C576 0.950 . S
H601 C577 0.949 . S
H602 C579 0.950 . S
H603 C581 0.950 . S
C604 C605 1.349 . S
C604 C606 1.327 . S
C604 H629 0.950 . S
C605 C604 1.349 . S
C605 C621 1.349 . S
C606 C604 1.327 . S
C606 C625 1.429 . S
C606 H630 0.950 . S
C607 C624 1.574 . S
C607 C626 1.368 . S
C607 H631 0.949 . S
H608 C612 0.949 . S
C609 C610 1.349 . S
C609 C611 1.327 . S
C609 H632 0.950 . S
C610 C609 1.349 . S
C610 C622 1.349 . S
C611 C609 1.327 . S
C611 C627 1.429 . S
C611 H633 0.950 . S
C612 H608 0.949 . S
C612 C620 1.574 . S
C612 C628 1.368 . S
H613 C621 0.950 . S
H614 C619 0.950 . S
H615 C620 0.949 . S
H616 C622 0.950 . S
H617 C623 0.950 . S
H618 C624 0.949 . S
C619 H614 0.950 . S
C619 C621 1.327 . S
C619 C625 1.429 . S
C620 C612 1.574 . S
C620 H615 0.949 . S
C620 C626 1.368 . S
C621 C605 1.349 . S
C621 H613 0.950 . S
C621 C619 1.327 . S
C622 C610 1.349 . S
C622 H616 0.950 . S
C622 C623 1.327 . S
C623 H617 0.950 . S
C623 C622 1.327 . S
C623 C627 1.429 . S
C624 C607 1.574 . S
C624 H618 0.949 . S
C624 C628 1.368 . S
C625 C606 1.429 . S
C625 C619 1.429 . S
C625 C626 1.523 . S
C626 C607 1.368 . S
C626 C620 1.368 . S
C626 C625 1.523 . S
C627 C611 1.429 . S
C627 C623 1.429 . S
C627 C628 1.523 . S
C628 C612 1.368 . S
C628 C624 1.368 . S
C628 C627 1.523 . S
H629 C604 0.950 . S
H630 C606 0.950 . S
H631 C607 0.949 . S
H632 C609 0.950 . S
H633 C611 0.950 . S
C634 C635 1.349 . S
C634 C636 1.327 . S
C634 H659 0.950 . S
C635 C634 1.349 . S
C635 C651 1.349 . S
C636 C634 1.327 . S
C636 C655 1.429 . S
C636 H660 0.950 . S
C637 C654 1.574 . S
C637 C656 1.368 . S
C637 H661 0.949 . S
H638 C642 0.949 . S
C639 C640 1.349 . S
C639 C641 1.327 . S
C639 H662 0.950 . S
C640 C639 1.349 . S
C640 C652 1.349 . S
C641 C639 1.327 . S
C641 C657 1.429 . S
C641 H663 0.950 . S
C642 H638 0.949 . S
C642 C650 1.574 . S
C642 C658 1.368 . S
H643 C651 0.950 . S
H644 C649 0.950 . S
H645 C650 0.949 . S
H646 C652 0.950 . S
H647 C653 0.950 . S
H648 C654 0.949 . S
C649 H644 0.950 . S
C649 C651 1.327 . S
C649 C655 1.429 . S
C650 C642 1.574 . S
C650 H645 0.949 . S
C650 C656 1.368 . S
C651 C635 1.349 . S
C651 H643 0.950 . S
C651 C649 1.327 . S
C652 C640 1.349 . S
C652 H646 0.950 . S
C652 C653 1.327 . S
C653 H647 0.950 . S
C653 C652 1.327 . S
C653 C657 1.429 . S
C654 C637 1.574 . S
C654 H648 0.949 . S
C654 C658 1.368 . S
C655 C636 1.429 . S
C655 C649 1.429 . S
C655 C656 1.523 . S
C656 C637 1.368 . S
C656 C650 1.368 . S
C656 C655 1.523 . S
C657 C641 1.429 . S
C657 C653 1.429 . S
C657 C658 1.523 . S
C658 C642 1.368 . S
C658 C654 1.368 . S
C658 C657 1.523 . S
H659 C634 0.950 . S
H660 C636 0.950 . S
H661 C637 0.949 . S
H662 C639 0.950 . S
H663 C641 0.950 . S
C664 C665 1.349 . S
C664 C666 1.327 . S
C664 H689 0.950 . S
C665 C664 1.349 . S
C665 C681 1.349 . S
C666 C664 1.327 . S
C666 C685 1.429 . S
C666 H690 0.950 . S
C667 C684 1.574 1_655 S
C667 C686 1.368 . S
C667 H691 0.949 . S
H668 C672 0.949 . S
C669 C670 1.349 . S
C669 C671 1.327 . S
C669 H692 0.950 . S
C670 C669 1.349 . S
C670 C682 1.349 . S
C671 C669 1.327 . S
C671 C687 1.429 . S
C671 H693 0.950 . S
C672 H668 0.949 . S
C672 C680 1.574 . S
C672 C688 1.368 1_655 S
H673 C681 0.950 . S
H674 C679 0.950 . S
H675 C680 0.949 . S
H676 C682 0.950 . S
H677 C683 0.950 . S
H678 C684 0.949 . S
C679 H674 0.950 . S
C679 C681 1.327 . S
C679 C685 1.429 . S
C680 C672 1.574 . S
C680 H675 0.949 . S
C680 C686 1.368 . S
C681 C665 1.349 . S
C681 H673 0.950 . S
C681 C679 1.327 . S
C682 C670 1.349 . S
C682 H676 0.950 . S
C682 C683 1.327 . S
C683 H677 0.950 . S
C683 C682 1.327 . S
C683 C687 1.429 . S
C684 C667 1.574 1_455 S
C684 H678 0.949 . S
C684 C688 1.368 . S
C685 C666 1.429 . S
C685 C679 1.429 . S
C685 C686 1.523 . S
C686 C667 1.368 . S
C686 C680 1.368 . S
C686 C685 1.523 . S
C687 C671 1.429 . S
C687 C683 1.429 . S
C687 C688 1.523 . S
C688 C672 1.368 1_455 S
C688 C684 1.368 . S
C688 C687 1.523 . S
H689 C664 0.950 . S
H690 C666 0.950 . S
H691 C667 0.949 . S
H692 C669 0.950 . S
H693 C671 0.950 . S
C694 C695 1.349 . S
C694 C696 1.327 . S
C694 H719 0.950 . S
C695 C694 1.349 . S
C695 C711 1.349 . S
C696 C694 1.327 . S
C696 C715 1.429 . S
C696 H720 0.950 . S
C697 C714 1.574 . S
C697 C716 1.368 . S
C697 H721 0.949 . S
H698 C702 0.949 . S
C699 C700 1.349 . S
C699 C701 1.327 . S
C699 H722 0.950 . S
C700 C699 1.349 . S
C700 C712 1.349 . S
C701 C699 1.327 . S
C701 C717 1.429 . S
C701 H723 0.950 . S
C702 H698 0.949 . S
C702 C710 1.574 1_655 S
C702 C718 1.368 . S
H703 C711 0.950 . S
H704 C709 0.950 . S
H705 C710 0.949 . S
H706 C712 0.950 . S
H707 C713 0.950 . S
H708 C714 0.949 . S
C709 H704 0.950 . S
C709 C711 1.327 . S
C709 C715 1.429 . S
C710 C702 1.574 1_455 S
C710 H705 0.949 . S
C710 C716 1.368 . S
C711 C695 1.349 . S
C711 H703 0.950 . S
C711 C709 1.327 . S
C712 C700 1.349 . S
C712 H706 0.950 . S
C712 C713 1.327 . S
C713 H707 0.950 . S
C713 C712 1.327 . S
C713 C717 1.429 . S
C714 C697 1.574 . S
C714 H708 0.949 . S
C714 C718 1.368 1_455 S
C715 C696 1.429 . S
C715 C709 1.429 . S
C715 C716 1.523 . S
C716 C697 1.368 . S
C716 C710 1.368 . S
C716 C715 1.523 . S
C717 C701 1.429 . S
C717 C713 1.429 . S
C717 C718 1.523 . S
C718 C702 1.368 . S
C718 C714 1.368 1_655 S
C718 C717 1.523 . S
H719 C694 0.950 . S
H720 C696 0.950 . S
H721 C697 0.949 . S
H722 C699 0.950 . S
H723 C701 0.950 . S
C724 C725 1.349 . S
C724 C726 1.327 . S
C724 H749 0.950 . S
C725 C724 1.349 . S
C725 C741 1.349 . S
C726 C724 1.327 . S
C726 C745 1.429 . S
C726 H750 0.950 . S
C727 C744 1.574 . S
C727 C746 1.368 . S
C727 H751 0.949 . S
H728 C732 0.949 . S
C729 C730 1.349 . S
C729 C731 1.327 . S
C729 H752 0.950 . S
C730 C729 1.349 . S
C730 C742 1.349 . S
C731 C729 1.327 . S
C731 C747 1.429 . S
C731 H753 0.950 . S
C732 H728 0.949 . S
C732 C740 1.574 . S
C732 C748 1.368 . S
H733 C741 0.950 . S
H734 C739 0.950 . S
H735 C740 0.949 . S
H736 C742 0.950 . S
H737 C743 0.950 . S
H738 C744 0.949 . S
C739 H734 0.950 . S
C739 C741 1.327 . S
C739 C745 1.429 . S
C740 C732 1.574 . S
C740 H735 0.949 . S
C740 C746 1.368 . S
C741 C725 1.349 . S
C741 H733 0.950 . S
C741 C739 1.327 . S
C742 C730 1.349 . S
C742 H736 0.950 . S
C742 C743 1.327 . S
C743 H737 0.950 . S
C743 C742 1.327 . S
C743 C747 1.429 . S
C744 C727 1.574 . S
C744 H738 0.949 . S
C744 C748 1.368 . S
C745 C726 1.429 . S
C745 C739 1.429 . S
C745 C746 1.523 . S
C746 C727 1.368 . S
C746 C740 1.368 . S
C746 C745 1.523 . S
C747 C731 1.429 . S
C747 C743 1.429 . S
C747 C748 1.523 . S
C748 C732 1.368 . S
C748 C744 1.368 . S
C748 C747 1.523 . S
H749 C724 0.950 . S
H750 C726 0.950 . S
H751 C727 0.949 . S
H752 C729 0.950 . S
H753 C731 0.950 . S
C754 C755 1.349 . S
C754 C756 1.327 . S
C754 H779 0.950 . S
C755 C754 1.349 . S
C755 C771 1.349 . S
C756 C754 1.327 . S
C756 C775 1.429 . S
C756 H780 0.950 . S
C757 C774 1.574 . S
C757 C776 1.368 . S
C757 H781 0.949 . S
H758 C762 0.949 . S
C759 C760 1.349 . S
C759 C761 1.327 . S
C759 H782 0.950 . S
C760 C759 1.349 . S
C760 C772 1.349 . S
C761 C759 1.327 . S
C761 C777 1.429 . S
C761 H783 0.950 . S
C762 H758 0.949 . S
C762 C770 1.574 . S
C762 C778 1.368 . S
H763 C771 0.950 . S
H764 C769 0.950 . S
H765 C770 0.949 . S
H766 C772 0.950 . S
H767 C773 0.950 . S
H768 C774 0.949 . S
C769 H764 0.950 . S
C769 C771 1.327 . S
C769 C775 1.429 . S
C770 C762 1.574 . S
C770 H765 0.949 . S
C770 C776 1.368 . S
C771 C755 1.349 . S
C771 H763 0.950 . S
C771 C769 1.327 . S
C772 C760 1.349 . S
C772 H766 0.950 . S
C772 C773 1.327 . S
C773 H767 0.950 . S
C773 C772 1.327 . S
C773 C777 1.429 . S
C774 C757 1.574 . S
C774 H768 0.949 . S
C774 C778 1.368 . S
C775 C756 1.429 . S
C775 C769 1.429 . S
C775 C776 1.523 . S
C776 C757 1.368 . S
C776 C770 1.368 . S
C776 C775 1.523 . S
C777 C761 1.429 . S
C777 C773 1.429 . S
C777 C778 1.523 . S
C778 C762 1.368 . S
C778 C774 1.368 . S
C778 C777 1.523 . S
H779 C754 0.950 . S
H780 C756 0.950 . S
H781 C757 0.949 . S
H782 C759 0.950 . S
H783 C761 0.950 . S
C784 C785 1.349 . S
C784 C786 1.327 . S
C784 H809 0.950 . S
C785 C784 1.349 . S
C785 C801 1.349 . S
C786 C784 1.327 . S
C786 C805 1.429 . S
C786 H810 0.950 . S
C787 C804 1.574 . S
C787 C806 1.368 . S
C787 H811 0.949 . S
H788 C792 0.949 . S
C789 C790 1.349 . S
C789 C791 1.327 . S
C789 H812 0.950 . S
C790 C789 1.349 . S
C790 C802 1.349 . S
C791 C789 1.327 . S
C791 C807 1.429 . S
C791 H813 0.950 . S
C792 H788 0.949 . S
C792 C800 1.574 . S
C792 C808 1.368 . S
H793 C801 0.950 . S
H794 C799 0.950 . S
H795 C800 0.949 . S
H796 C802 0.950 . S
H797 C803 0.950 . S
H798 C804 0.949 . S
C799 H794 0.950 . S
C799 C801 1.327 . S
C799 C805 1.429 . S
C800 C792 1.574 . S
C800 H795 0.949 . S
C800 C806 1.368 . S
C801 C785 1.349 . S
C801 H793 0.950 . S
C801 C799 1.327 . S
C802 C790 1.349 . S
C802 H796 0.950 . S
C802 C803 1.327 . S
C803 H797 0.950 . S
C803 C802 1.327 . S
C803 C807 1.429 . S
C804 C787 1.574 . S
C804 H798 0.949 . S
C804 C808 1.368 . S
C805 C786 1.429 . S
C805 C799 1.429 . S
C805 C806 1.523 . S
C806 C787 1.368 . S
C806 C800 1.368 . S
C806 C805 1.523 . S
C807 C791 1.429 . S
C807 C803 1.429 . S
C807 C808 1.523 . S
C808 C792 1.368 . S
C808 C804 1.368 . S
C808 C807 1.523 . S
H809 C784 0.950 . S
H810 C786 0.950 . S
H811 C787 0.949 . S
H812 C789 0.950 . S
H813 C791 0.950 . S
C814 C815 1.349 . S
C814 C816 1.327 . S
C814 H839 0.950 . S
C815 C814 1.349 . S
C815 C831 1.349 . S
C816 C814 1.327 . S
C816 C835 1.429 . S
C816 H840 0.950 . S
C817 C834 1.574 . S
C817 C836 1.368 . S
C817 H841 0.949 . S
H818 C822 0.949 . S
C819 C820 1.349 . S
C819 C821 1.327 . S
C819 H842 0.950 . S
C820 C819 1.349 . S
C820 C832 1.349 . S
C821 C819 1.327 . S
C821 C837 1.429 . S
C821 H843 0.950 . S
C822 H818 0.949 . S
C822 C830 1.576 . S
C822 C838 1.368 . S
H823 C831 0.945 1_545 S
H824 C829 0.950 . S
H825 C830 0.945 1_565 S
H826 C832 0.950 . S
H827 C833 0.950 . S
H828 C834 0.949 . S
C829 H824 0.950 . S
C829 C831 1.327 1_545 S
C829 C835 1.429 1_545 S
C830 C822 1.576 . S
C830 H825 0.945 1_545 S
C830 C836 1.371 . S
C831 C815 1.349 . S
C831 H823 0.945 1_565 S
C831 C829 1.327 1_565 S
C832 C820 1.349 . S
C832 H826 0.950 . S
C832 C833 1.327 . S
C833 H827 0.950 . S
C833 C832 1.327 . S
C833 C837 1.429 . S
C834 C817 1.574 . S
C834 H828 0.949 . S
C834 C838 1.368 . S
C835 C816 1.429 . S
C835 C829 1.429 1_565 S
C835 C836 1.523 1_665 S
C836 C817 1.368 . S
C836 C830 1.371 . S
C836 C835 1.523 1_445 S
C837 C821 1.429 . S
C837 C833 1.429 . S
C837 C838 1.523 . S
C838 C822 1.368 . S
C838 C834 1.368 . S
C838 C837 1.523 . S
H839 C814 0.950 . S
H840 C816 0.950 . S
H841 C817 0.949 . S
H842 C819 0.950 . S
H843 C821 0.950 . S
C844 C845 1.349 . S
C844 C846 1.327 . S
C844 H869 0.950 . S
C845 C844 1.349 . S
C845 C861 1.349 . S
C846 C844 1.327 . S
C846 C865 1.429 . S
C846 H870 0.950 . S
C847 C864 1.574 . S
C847 C866 1.368 . S
C847 H871 0.949 . S
H848 C852 0.949 . S
C849 C850 1.349 . S
C849 C851 1.327 . S
C849 H872 0.950 . S
C850 C849 1.349 . S
C850 C862 1.349 . S
C851 C849 1.327 . S
C851 C867 1.429 . S
C851 H873 0.950 . S
C852 H848 0.949 . S
C852 C860 1.574 . S
C852 C868 1.368 . S
H853 C861 0.950 . S
H854 C859 0.950 . S
H855 C860 0.949 . S
H856 C862 0.950 . S
H857 C863 0.950 . S
H858 C864 0.949 . S
C859 H854 0.950 . S
C859 C861 1.327 . S
C859 C865 1.429 . S
C860 C852 1.574 . S
C860 H855 0.949 . S
C860 C866 1.368 . S
C861 C845 1.349 . S
C861 H853 0.950 . S
C861 C859 1.327 . S
C862 C850 1.349 . S
C862 H856 0.950 . S
C862 C863 1.327 . S
C863 H857 0.950 . S
C863 C862 1.327 . S
C863 C867 1.429 . S
C864 C847 1.574 . S
C864 H858 0.949 . S
C864 C868 1.368 . S
C865 C846 1.429 . S
C865 C859 1.429 . S
C865 C866 1.523 . S
C866 C847 1.368 . S
C866 C860 1.368 . S
C866 C865 1.523 . S
C867 C851 1.429 . S
C867 C863 1.429 . S
C867 C868 1.523 . S
C868 C852 1.368 . S
C868 C864 1.368 . S
C868 C867 1.523 . S
H869 C844 0.950 . S
H870 C846 0.950 . S
H871 C847 0.949 . S
H872 C849 0.950 . S
H873 C851 0.950 . S
C874 C875 1.365 . S
C874 C876 1.322 1_545 S
C874 H899 0.938 1_545 S
C875 C874 1.365 . S
C875 C891 1.349 . S
C876 C874 1.322 1_565 S
C876 C895 1.429 1_565 S
C876 H900 0.950 . S
C877 C894 1.574 . S
C877 C896 1.368 . S
C877 H901 0.949 . S
H878 C882 0.949 . S
C879 C880 1.349 . S
C879 C881 1.327 1_565 S
C879 H902 0.950 1_565 S
C880 C879 1.349 . S
C880 C892 1.349 . S
C881 C879 1.327 1_545 S
C881 C897 1.429 1_545 S
C881 H903 0.950 . S
C882 H878 0.949 . S
C882 C890 1.574 . S
C882 C898 1.368 . S
H883 C891 0.950 . S
H884 C889 0.950 . S
H885 C890 0.949 . S
H886 C892 0.950 . S
H887 C893 0.950 . S
H888 C894 0.949 . S
C889 H884 0.950 . S
C889 C891 1.327 . S
C889 C895 1.429 . S
C890 C882 1.574 . S
C890 H885 0.949 . S
C890 C896 1.368 1_565 S
C891 C875 1.349 . S
C891 H883 0.950 . S
C891 C889 1.327 . S
C892 C880 1.349 . S
C892 H886 0.950 . S
C892 C893 1.327 . S
C893 H887 0.950 . S
C893 C892 1.327 . S
C893 C897 1.429 . S
C894 C877 1.574 . S
C894 H888 0.949 . S
C894 C898 1.368 1_545 S
C895 C876 1.429 1_545 S
C895 C889 1.429 . S
C895 C896 1.523 . S
C896 C877 1.368 . S
C896 C890 1.368 1_545 S
C896 C895 1.523 . S
C897 C881 1.429 1_565 S
C897 C893 1.429 . S
C897 C898 1.523 . S
C898 C882 1.368 . S
C898 C894 1.368 1_565 S
C898 C897 1.523 . S
H899 C874 0.938 1_565 S
H900 C876 0.950 . S
H901 C877 0.949 . S
H902 C879 0.950 1_545 S
H903 C881 0.950 . S
C904 C905 1.349 . S
C904 C906 1.327 . S
C904 H929 0.950 . S
C905 C904 1.349 . S
C905 C921 1.349 . S
C906 C904 1.327 . S
C906 C925 1.429 . S
C906 H930 0.950 . S
C907 C924 1.574 . S
C907 C926 1.368 . S
C907 H931 0.949 . S
H908 C912 0.949 . S
C909 C910 1.349 . S
C909 C911 1.327 . S
C909 H932 0.950 . S
C910 C909 1.349 . S
C910 C922 1.349 . S
C911 C909 1.327 . S
C911 C927 1.429 . S
C911 H933 0.950 . S
C912 H908 0.949 . S
C912 C920 1.574 . S
C912 C928 1.368 . S
H913 C921 0.950 . S
H914 C919 0.950 . S
H915 C920 0.949 . S
H916 C922 0.950 . S
H917 C923 0.950 . S
H918 C924 0.949 . S
C919 H914 0.950 . S
C919 C921 1.327 . S
C919 C925 1.429 . S
C920 C912 1.574 . S
C920 H915 0.949 . S
C920 C926 1.368 . S
C921 C905 1.349 . S
C921 H913 0.950 . S
C921 C919 1.327 . S
C922 C910 1.349 . S
C922 H916 0.950 . S
C922 C923 1.327 . S
C923 H917 0.950 . S
C923 C922 1.327 . S
C923 C927 1.429 . S
C924 C907 1.574 . S
C924 H918 0.949 . S
C924 C928 1.368 . S
C925 C906 1.429 . S
C925 C919 1.429 . S
C925 C926 1.523 . S
C926 C907 1.368 . S
C926 C920 1.368 . S
C926 C925 1.523 . S
C927 C911 1.429 . S
C927 C923 1.429 . S
C927 C928 1.523 . S
C928 C912 1.368 . S
C928 C924 1.368 . S
C928 C927 1.523 . S
H929 C904 0.950 . S
H930 C906 0.950 . S
H931 C907 0.949 . S
H932 C909 0.950 . S
H933 C911 0.950 . S
C934 C935 1.349 . S
C934 C936 1.327 . S
C934 H959 0.950 . S
C935 C934 1.349 . S
C935 C951 1.349 . S
C936 C934 1.327 . S
C936 C955 1.429 . S
C936 H960 0.950 . S
C937 C954 1.574 1_565 S
C937 C956 1.368 . S
C937 H961 0.949 . S
H938 C942 0.949 . S
C939 C940 1.349 . S
C939 C941 1.327 . S
C939 H962 0.950 . S
C940 C939 1.349 . S
C940 C952 1.349 . S
C941 C939 1.327 . S
C941 C957 1.429 . S
C941 H963 0.950 . S
C942 H938 0.949 . S
C942 C950 1.574 1_545 S
C942 C958 1.368 . S
H943 C951 0.950 . S
H944 C949 0.950 . S
H945 C950 0.949 . S
H946 C952 0.950 . S
H947 C953 0.950 . S
H948 C954 0.949 . S
C949 H944 0.950 . S
C949 C951 1.327 . S
C949 C955 1.429 . S
C950 C942 1.574 1_565 S
C950 H945 0.949 . S
C950 C956 1.368 . S
C951 C935 1.349 . S
C951 H943 0.950 . S
C951 C949 1.327 . S
C952 C940 1.349 . S
C952 H946 0.950 . S
C952 C953 1.327 . S
C953 H947 0.950 . S
C953 C952 1.327 . S
C953 C957 1.429 . S
C954 C937 1.574 1_545 S
C954 H948 0.949 . S
C954 C958 1.368 . S
C955 C936 1.429 . S
C955 C949 1.429 . S
C955 C956 1.523 . S
C956 C937 1.368 . S
C956 C950 1.368 . S
C956 C955 1.523 . S
C957 C941 1.429 . S
C957 C953 1.429 . S
C957 C958 1.523 . S
C958 C942 1.368 . S
C958 C954 1.368 . S
C958 C957 1.523 . S
H959 C934 0.950 . S
H960 C936 0.950 . S
H961 C937 0.949 . S
H962 C939 0.950 . S
H963 C941 0.950 . S
C964 C965 1.349 . S
C964 C966 1.327 . S
C964 H989 0.950 . S
C965 C964 1.349 . S
C965 C981 1.349 . S
C966 C964 1.327 . S
C966 C985 1.429 . S
C966 H990 0.950 . S
C967 C984 1.574 . S
C967 C986 1.368 . S
C967 H991 0.949 . S
H968 C972 0.949 . S
C969 C970 1.349 . S
C969 C971 1.327 . S
C969 H992 0.950 . S
C970 C969 1.349 . S
C970 C982 1.349 . S
C971 C969 1.327 . S
C971 C987 1.429 . S
C971 H993 0.950 . S
C972 H968 0.949 . S
C972 C980 1.574 . S
C972 C988 1.368 . S
H973 C981 0.950 . S
H974 C979 0.950 . S
H975 C980 0.949 . S
H976 C982 0.950 . S
H977 C983 0.950 . S
H978 C984 0.949 . S
C979 H974 0.950 . S
C979 C981 1.327 . S
C979 C985 1.429 . S
C980 C972 1.574 . S
C980 H975 0.949 . S
C980 C986 1.368 . S
C981 C965 1.349 . S
C981 H973 0.950 . S
C981 C979 1.327 . S
C982 C970 1.349 . S
C982 H976 0.950 . S
C982 C983 1.327 . S
C983 H977 0.950 . S
C983 C982 1.327 . S
C983 C987 1.429 . S
C984 C967 1.574 . S
C984 H978 0.949 . S
C984 C988 1.368 . S
C985 C966 1.429 . S
C985 C979 1.429 . S
C985 C986 1.523 . S
C986 C967 1.368 . S
C986 C980 1.368 . S
C986 C985 1.523 . S
C987 C971 1.429 . S
C987 C983 1.429 . S
C987 C988 1.523 . S
C988 C972 1.368 . S
C988 C984 1.368 . S
C988 C987 1.523 . S
H989 C964 0.950 . S
H990 C966 0.950 . S
H991 C967 0.949 . S
H992 C969 0.950 . S
H993 C971 0.950 . S
C994 C995 1.349 . S
C994 C996 1.327 . S
C994 H1019 0.950 . S
C995 C994 1.349 . S
C995 C1011 1.349 . S
C996 C994 1.327 . S
C996 C1015 1.429 . S
C996 H1020 0.950 . S
C997 C1014 1.574 . S
C997 C1016 1.368 1_545 S
C997 H1021 0.949 . S
H998 C1002 0.949 . S
C999 C1000 1.349 . S
C999 C1001 1.327 . S
C999 H1022 0.950 . S
C1000 C999 1.349 . S
C1000 C1012 1.349 . S
C1001 C999 1.327 . S
C1001 C1017 1.429 . S
C1001 H1023 0.950 . S
C1002 H998 0.949 . S
C1002 C1010 1.574 . S
C1002 C1018 1.368 1_565 S
H1003 C1011 0.950 . S
H1004 C1009 0.950 . S
H1005 C1010 0.949 . S
H1006 C1012 0.950 . S
H1007 C1013 0.950 1_565 S
H1008 C1014 0.949 . S
C1009 H1004 0.950 . S
C1009 C1011 1.327 . S
C1009 C1015 1.429 . S
C1010 C1002 1.574 . S
C1010 H1005 0.949 . S
C1010 C1016 1.368 . S
C1011 C995 1.349 . S
C1011 H1003 0.950 . S
C1011 C1009 1.327 . S
C1012 C1000 1.349 . S
C1012 H1006 0.950 . S
C1012 C1013 1.327 . S
C1013 H1007 0.950 1_545 S
C1013 C1012 1.327 . S
C1013 C1017 1.429 . S
C1014 C997 1.574 . S
C1014 H1008 0.949 . S
C1014 C1018 1.368 . S
C1015 C996 1.429 . S
C1015 C1009 1.429 . S
C1015 C1016 1.523 . S
C1016 C997 1.368 1_565 S
C1016 C1010 1.368 . S
C1016 C1015 1.523 . S
C1017 C1001 1.429 . S
C1017 C1013 1.429 . S
C1017 C1018 1.523 1_655 S
C1018 C1002 1.368 1_545 S
C1018 C1014 1.368 . S
C1018 C1017 1.523 1_455 S
H1019 C994 0.950 . S
H1020 C996 0.950 . S
H1021 C997 0.949 . S
H1022 C999 0.950 . S
H1023 C1001 0.950 . S
C1024 C1025 1.349 . S
C1024 C1026 1.327 . S
C1024 H1049 0.950 . S
C1025 C1024 1.349 . S
C1025 C1041 1.349 . S
C1026 C1024 1.327 . S
C1026 C1045 1.429 . S
C1026 H1050 0.950 . S
C1027 C1044 1.574 . S
C1027 C1046 1.368 . S
C1027 H1051 0.949 . S
H1028 C1032 0.949 . S
C1029 C1030 1.349 . S
C1029 C1031 1.327 . S
C1029 H1052 0.950 . S
C1030 C1029 1.349 . S
C1030 C1042 1.349 . S
C1031 C1029 1.327 . S
C1031 C1047 1.429 . S
C1031 H1053 0.950 . S
C1032 H1028 0.949 . S
C1032 C1040 1.574 . S
C1032 C1048 1.368 . S
H1033 C1041 0.950 . S
H1034 C1039 0.950 . S
H1035 C1040 0.949 . S
H1036 C1042 0.950 . S
H1037 C1043 0.950 . S
H1038 C1044 0.949 . S
C1039 H1034 0.950 . S
C1039 C1041 1.327 . S
C1039 C1045 1.429 . S
C1040 C1032 1.574 . S
C1040 H1035 0.949 . S
C1040 C1046 1.368 . S
C1041 C1025 1.349 . S
C1041 H1033 0.950 . S
C1041 C1039 1.327 . S
C1042 C1030 1.349 . S
C1042 H1036 0.950 . S
C1042 C1043 1.327 . S
C1043 H1037 0.950 . S
C1043 C1042 1.327 . S
C1043 C1047 1.429 . S
C1044 C1027 1.574 . S
C1044 H1038 0.949 . S
C1044 C1048 1.368 . S
C1045 C1026 1.429 . S
C1045 C1039 1.429 . S
C1045 C1046 1.523 . S
C1046 C1027 1.368 . S
C1046 C1040 1.368 . S
C1046 C1045 1.523 . S
C1047 C1031 1.429 . S
C1047 C1043 1.429 . S
C1047 C1048 1.523 . S
C1048 C1032 1.368 . S
C1048 C1044 1.368 . S
C1048 C1047 1.523 . S
H1049 C1024 0.950 . S
H1050 C1026 0.950 . S
H1051 C1027 0.949 . S
H1052 C1029 0.950 . S
H1053 C1031 0.950 . S
C1054 C1055 1.349 1_565 S
C1054 C1056 1.327 . S
C1054 H1079 0.950 . S
C1055 C1054 1.349 1_545 S
C1055 C1071 1.349 . S
C1056 C1054 1.327 . S
C1056 C1075 1.429 . S
C1056 H1080 0.950 . S
C1057 C1074 1.574 . S
C1057 C1076 1.368 . S
C1057 H1081 0.949 . S
H1058 C1062 0.949 . S
C1059 C1060 1.349 . S
C1059 C1061 1.327 . S
C1059 H1082 0.950 . S
C1060 C1059 1.349 . S
C1060 C1072 1.349 . S
C1061 C1059 1.327 . S
C1061 C1077 1.429 . S
C1061 H1083 0.950 . S
C1062 H1058 0.949 . S
C1062 C1070 1.574 . S
C1062 C1078 1.368 . S
H1063 C1071 0.950 . S
H1064 C1069 0.950 . S
H1065 C1070 0.949 . S
H1066 C1072 0.950 . S
H1067 C1073 0.950 . S
H1068 C1074 0.949 . S
C1069 H1064 0.950 . S
C1069 C1071 1.327 . S
C1069 C1075 1.429 1_545 S
C1070 C1062 1.574 . S
C1070 H1065 0.949 . S
C1070 C1076 1.368 . S
C1071 C1055 1.349 . S
C1071 H1063 0.950 . S
C1071 C1069 1.327 . S
C1072 C1060 1.349 . S
C1072 H1066 0.950 . S
C1072 C1073 1.327 . S
C1073 H1067 0.950 . S
C1073 C1072 1.327 . S
C1073 C1077 1.429 . S
C1074 C1057 1.574 . S
C1074 H1068 0.949 . S
C1074 C1078 1.368 . S
C1075 C1056 1.429 . S
C1075 C1069 1.429 1_565 S
C1075 C1076 1.523 1_455 S
C1076 C1057 1.368 . S
C1076 C1070 1.368 . S
C1076 C1075 1.523 1_655 S
C1077 C1061 1.429 . S
C1077 C1073 1.429 . S
C1077 C1078 1.523 . S
C1078 C1062 1.368 . S
C1078 C1074 1.368 . S
C1078 C1077 1.523 . S
H1079 C1054 0.950 . S
H1080 C1056 0.950 . S
H1081 C1057 0.949 . S
H1082 C1059 0.950 . S
H1083 C1061 0.950 . S
C1084 C1085 1.349 . S
C1084 C1086 1.327 . S
C1084 H1109 0.950 . S
C1085 C1084 1.349 . S
C1085 C1101 1.349 . S
C1086 C1084 1.327 . S
C1086 C1105 1.429 . S
C1086 H1110 0.950 . S
C1087 C1104 1.574 . S
C1087 C1106 1.368 . S
C1087 H1111 0.949 . S
H1088 C1092 0.949 . S
C1089 C1090 1.349 . S
C1089 C1091 1.327 . S
C1089 H1112 0.950 . S
C1090 C1089 1.349 . S
C1090 C1102 1.349 . S
C1091 C1089 1.327 . S
C1091 C1107 1.429 . S
C1091 H1113 0.950 . S
C1092 H1088 0.949 . S
C1092 C1100 1.574 . S
C1092 C1108 1.368 . S
H1093 C1101 0.950 . S
H1094 C1099 0.950 . S
H1095 C1100 0.949 . S
H1096 C1102 0.950 . S
H1097 C1103 0.950 . S
H1098 C1104 0.949 . S
C1099 H1094 0.950 . S
C1099 C1101 1.327 . S
C1099 C1105 1.429 . S
C1100 C1092 1.574 . S
C1100 H1095 0.949 . S
C1100 C1106 1.368 . S
C1101 C1085 1.349 . S
C1101 H1093 0.950 . S
C1101 C1099 1.327 . S
C1102 C1090 1.349 . S
C1102 H1096 0.950 . S
C1102 C1103 1.327 . S
C1103 H1097 0.950 . S
C1103 C1102 1.327 . S
C1103 C1107 1.429 . S
C1104 C1087 1.574 . S
C1104 H1098 0.949 . S
C1104 C1108 1.368 . S
C1105 C1086 1.429 . S
C1105 C1099 1.429 . S
C1105 C1106 1.523 . S
C1106 C1087 1.368 . S
C1106 C1100 1.368 . S
C1106 C1105 1.523 . S
C1107 C1091 1.429 . S
C1107 C1103 1.429 . S
C1107 C1108 1.523 . S
C1108 C1092 1.368 . S
C1108 C1104 1.368 . S
C1108 C1107 1.523 . S
H1109 C1084 0.950 . S
H1110 C1086 0.950 . S
H1111 C1087 0.949 . S
H1112 C1089 0.950 . S
H1113 C1091 0.950 . S
C1114 C1115 1.349 . S
C1114 C1116 1.327 . S
C1114 H1139 0.950 . S
C1115 C1114 1.349 . S
C1115 C1131 1.349 . S
C1116 C1114 1.327 . S
C1116 C1135 1.429 . S
C1116 H1140 0.950 . S
C1117 C1134 1.574 1_545 S
C1117 C1136 1.368 . S
C1117 H1141 0.958 . S
H1118 C1122 0.949 . S
C1119 C1120 1.349 . S
C1119 C1121 1.327 . S
C1119 H1142 0.950 . S
C1120 C1119 1.349 . S
C1120 C1132 1.349 . S
C1121 C1119 1.327 . S
C1121 C1137 1.429 . S
C1121 H1143 0.950 . S
C1122 H1118 0.949 . S
C1122 C1130 1.574 . S
C1122 C1138 1.368 . S
H1123 C1131 0.950 . S
H1124 C1129 0.950 . S
H1125 C1130 0.949 . S
H1126 C1132 0.950 1_545 S
H1127 C1133 0.950 . S
H1128 C1134 0.949 . S
C1129 H1124 0.950 . S
C1129 C1131 1.327 . S
C1129 C1135 1.429 . S
C1130 C1122 1.574 . S
C1130 H1125 0.949 . S
C1130 C1136 1.368 . S
C1131 C1115 1.349 . S
C1131 H1123 0.950 . S
C1131 C1129 1.327 . S
C1132 C1120 1.349 . S
C1132 H1126 0.950 1_565 S
C1132 C1133 1.327 1_565 S
C1133 H1127 0.950 . S
C1133 C1132 1.327 1_545 S
C1133 C1137 1.429 1_545 S
C1134 C1117 1.574 1_565 S
C1134 H1128 0.949 . S
C1134 C1138 1.368 1_565 S
C1135 C1116 1.429 . S
C1135 C1129 1.429 . S
C1135 C1136 1.523 . S
C1136 C1117 1.368 . S
C1136 C1130 1.368 . S
C1136 C1135 1.523 . S
C1137 C1121 1.429 . S
C1137 C1133 1.429 1_565 S
C1137 C1138 1.523 1_565 S
C1138 C1122 1.368 . S
C1138 C1134 1.368 1_545 S
C1138 C1137 1.523 1_545 S
H1139 C1114 0.950 . S
H1140 C1116 0.950 . S
H1141 C1117 0.958 . S
H1142 C1119 0.950 . S
H1143 C1121 0.950 . S
C1144 C1145 1.349 . S
C1144 C1146 1.327 . S
C1144 H1169 0.950 . S
C1145 C1144 1.349 . S
C1145 C1161 1.349 . S
C1146 C1144 1.327 . S
C1146 C1165 1.429 . S
C1146 H1170 0.950 . S
C1147 C1164 1.574 . S
C1147 C1166 1.368 . S
C1147 H1171 0.949 . S
H1148 C1152 0.949 . S
C1149 C1150 1.349 . S
C1149 C1151 1.327 . S
C1149 H1172 0.950 . S
C1150 C1149 1.349 . S
C1150 C1162 1.349 . S
C1151 C1149 1.327 . S
C1151 C1167 1.429 . S
C1151 H1173 0.950 . S
C1152 H1148 0.949 . S
C1152 C1160 1.574 . S
C1152 C1168 1.368 . S
H1153 C1161 0.950 . S
H1154 C1159 0.950 . S
H1155 C1160 0.949 . S
H1156 C1162 0.952 . S
H1157 C1163 0.950 . S
H1158 C1164 0.949 . S
C1159 H1154 0.950 . S
C1159 C1161 1.327 . S
C1159 C1165 1.429 . S
C1160 C1152 1.574 . S
C1160 H1155 0.949 . S
C1160 C1166 1.368 . S
C1161 C1145 1.349 . S
C1161 H1153 0.950 . S
C1161 C1159 1.327 . S
C1162 C1150 1.349 . S
C1162 H1156 0.952 . S
C1162 C1163 1.327 . S
C1163 H1157 0.950 . S
C1163 C1162 1.327 . S
C1163 C1167 1.429 . S
C1164 C1147 1.574 . S
C1164 H1158 0.949 . S
C1164 C1168 1.368 . S
C1165 C1146 1.429 . S
C1165 C1159 1.429 . S
C1165 C1166 1.523 . S
C1166 C1147 1.368 . S
C1166 C1160 1.368 . S
C1166 C1165 1.523 . S
C1167 C1151 1.429 . S
C1167 C1163 1.429 . S
C1167 C1168 1.523 . S
C1168 C1152 1.368 . S
C1168 C1164 1.368 . S
C1168 C1167 1.523 . S
H1169 C1144 0.950 . S
H1170 C1146 0.950 . S
H1171 C1147 0.949 . S
H1172 C1149 0.950 . S
H1173 C1151 0.950 . S
C1174 C1175 1.349 . S
C1174 C1176 1.327 . S
C1174 H1199 0.950 . S
C1175 C1174 1.349 . S
C1175 C1191 1.349 . S
C1176 C1174 1.327 . S
C1176 C1195 1.429 . S
C1176 H1200 0.950 . S
C1177 C1194 1.574 . S
C1177 C1196 1.368 1_545 S
C1177 H1201 0.949 . S
H1178 C1182 0.949 . S
C1179 C1180 1.349 . S
C1179 C1181 1.327 . S
C1179 H1202 0.950 . S
C1180 C1179 1.349 . S
C1180 C1192 1.349 . S
C1181 C1179 1.327 . S
C1181 C1197 1.429 . S
C1181 H1203 0.950 . S
C1182 H1178 0.949 . S
C1182 C1190 1.574 . S
C1182 C1198 1.368 1_565 S
H1183 C1191 0.950 . S
H1184 C1189 0.950 . S
H1185 C1190 0.949 . S
H1186 C1192 0.950 . S
H1187 C1193 0.950 1_565 S
H1188 C1194 0.949 . S
C1189 H1184 0.950 . S
C1189 C1191 1.327 . S
C1189 C1195 1.429 . S
C1190 C1182 1.574 . S
C1190 H1185 0.949 . S
C1190 C1196 1.368 . S
C1191 C1175 1.349 . S
C1191 H1183 0.950 . S
C1191 C1189 1.327 . S
C1192 C1180 1.349 . S
C1192 H1186 0.950 . S
C1192 C1193 1.327 . S
C1193 H1187 0.950 1_545 S
C1193 C1192 1.327 . S
C1193 C1197 1.429 . S
C1194 C1177 1.574 . S
C1194 H1188 0.949 . S
C1194 C1198 1.368 . S
C1195 C1176 1.429 . S
C1195 C1189 1.429 . S
C1195 C1196 1.523 . S
C1196 C1177 1.368 1_565 S
C1196 C1190 1.368 . S
C1196 C1195 1.523 . S
C1197 C1181 1.429 . S
C1197 C1193 1.429 . S
C1197 C1198 1.523 . S
C1198 C1182 1.368 1_545 S
C1198 C1194 1.368 . S
C1198 C1197 1.523 . S
H1199 C1174 0.950 . S
H1200 C1176 0.950 . S
H1201 C1177 0.949 . S
H1202 C1179 0.950 . S
H1203 C1181 0.950 . S
C1204 C1205 1.349 . S
C1204 C1206 1.327 . S
C1204 H1229 0.950 . S
C1205 C1204 1.349 . S
C1205 C1221 1.349 . S
C1206 C1204 1.327 . S
C1206 C1225 1.429 . S
C1206 H1230 0.950 . S
C1207 C1224 1.574 . S
C1207 C1226 1.368 . S
C1207 H1231 0.949 . S
H1208 C1212 0.949 . S
C1209 C1210 1.349 . S
C1209 C1211 1.327 . S
C1209 H1232 0.950 . S
C1210 C1209 1.349 . S
C1210 C1222 1.349 . S
C1211 C1209 1.327 . S
C1211 C1227 1.429 . S
C1211 H1233 0.950 . S
C1212 H1208 0.949 . S
C1212 C1220 1.574 . S
C1212 C1228 1.368 . S
H1213 C1221 0.950 . S
H1214 C1219 0.950 . S
H1215 C1220 0.949 . S
H1216 C1222 0.950 . S
H1217 C1223 0.950 . S
H1218 C1224 0.949 . S
C1219 H1214 0.950 . S
C1219 C1221 1.327 . S
C1219 C1225 1.429 . S
C1220 C1212 1.574 . S
C1220 H1215 0.949 . S
C1220 C1226 1.368 . S
C1221 C1205 1.349 . S
C1221 H1213 0.950 . S
C1221 C1219 1.327 . S
C1222 C1210 1.349 . S
C1222 H1216 0.950 . S
C1222 C1223 1.327 . S
C1223 H1217 0.950 . S
C1223 C1222 1.327 . S
C1223 C1227 1.429 . S
C1224 C1207 1.574 . S
C1224 H1218 0.949 . S
C1224 C1228 1.368 . S
C1225 C1206 1.429 . S
C1225 C1219 1.429 . S
C1225 C1226 1.523 . S
C1226 C1207 1.368 . S
C1226 C1220 1.368 . S
C1226 C1225 1.523 . S
C1227 C1211 1.429 . S
C1227 C1223 1.429 . S
C1227 C1228 1.523 . S
C1228 C1212 1.368 . S
C1228 C1224 1.368 . S
C1228 C1227 1.523 . S
H1229 C1204 0.950 . S
H1230 C1206 0.950 . S
H1231 C1207 0.949 . S
H1232 C1209 0.950 . S
H1233 C1211 0.950 . S
C1234 C1235 1.349 1_545 S
C1234 C1236 1.327 . S
C1234 H1259 0.950 . S
C1235 C1234 1.349 1_565 S
C1235 C1251 1.349 . S
C1236 C1234 1.327 . S
C1236 C1255 1.437 1_455 S
C1236 H1260 0.950 . S
C1237 C1254 1.574 1_565 S
C1237 C1256 1.368 1_565 S
C1237 H1261 0.949 . S
H1238 C1242 0.949 . S
C1239 C1240 1.349 . S
C1239 C1241 1.327 . S
C1239 H1262 0.950 . S
C1240 C1239 1.349 . S
C1240 C1252 1.349 . S
C1241 C1239 1.327 . S
C1241 C1257 1.429 . S
C1241 H1263 0.950 . S
C1242 H1238 0.949 . S
C1242 C1250 1.574 . S
C1242 C1258 1.368 . S
H1243 C1251 0.950 . S
H1244 C1249 0.932 1_655 S
H1245 C1250 0.949 . S
H1246 C1252 0.950 . S
H1247 C1253 0.950 . S
H1248 C1254 0.949 . S
C1249 H1244 0.932 1_455 S
C1249 C1251 1.353 . S
C1249 C1255 1.401 1_465 S
C1250 C1242 1.574 . S
C1250 H1245 0.949 . S
C1250 C1256 1.368 . S
C1251 C1235 1.349 . S
C1251 H1243 0.950 . S
C1251 C1249 1.353 . S
C1252 C1240 1.349 . S
C1252 H1246 0.950 . S
C1252 C1253 1.327 . S
C1253 H1247 0.950 . S
C1253 C1252 1.327 . S
C1253 C1257 1.429 . S
C1254 C1237 1.574 1_545 S
C1254 H1248 0.949 . S
C1254 C1258 1.368 . S
C1255 C1236 1.437 1_655 S
C1255 C1249 1.401 1_645 S
C1255 C1256 1.534 . S
C1256 C1237 1.368 1_545 S
C1256 C1250 1.368 . S
C1256 C1255 1.534 . S
C1257 C1241 1.429 . S
C1257 C1253 1.429 . S
C1257 C1258 1.523 . S
C1258 C1242 1.368 . S
C1258 C1254 1.368 . S
C1258 C1257 1.523 . S
H1259 C1234 0.950 . S
H1260 C1236 0.950 . S
H1261 C1237 0.949 . S
H1262 C1239 0.950 . S
H1263 C1241 0.950 . S
C1264 C1265 1.349 . S
C1264 C1266 1.327 . S
C1264 H1289 0.950 . S
C1265 C1264 1.349 . S
C1265 C1281 1.349 . S
C1266 C1264 1.327 . S
C1266 C1285 1.429 . S
C1266 H1290 0.950 . S
C1267 C1284 1.574 . S
C1267 C1286 1.368 . S
C1267 H1291 0.949 . S
H1268 C1272 0.949 . S
C1269 C1270 1.349 . S
C1269 C1271 1.327 . S
C1269 H1292 0.950 . S
C1270 C1269 1.349 . S
C1270 C1282 1.349 . S
C1271 C1269 1.327 . S
C1271 C1287 1.429 . S
C1271 H1293 0.950 . S
C1272 H1268 0.949 . S
C1272 C1280 1.574 . S
C1272 C1288 1.368 . S
H1273 C1281 0.950 . S
H1274 C1279 0.950 . S
H1275 C1280 0.949 . S
H1276 C1282 0.950 . S
H1277 C1283 0.950 . S
H1278 C1284 0.949 . S
C1279 H1274 0.950 . S
C1279 C1281 1.327 . S
C1279 C1285 1.429 . S
C1280 C1272 1.574 . S
C1280 H1275 0.949 . S
C1280 C1286 1.368 . S
C1281 C1265 1.349 . S
C1281 H1273 0.950 . S
C1281 C1279 1.327 . S
C1282 C1270 1.349 . S
C1282 H1276 0.950 . S
C1282 C1283 1.327 . S
C1283 H1277 0.950 . S
C1283 C1282 1.327 . S
C1283 C1287 1.429 . S
C1284 C1267 1.574 . S
C1284 H1278 0.949 . S
C1284 C1288 1.368 . S
C1285 C1266 1.429 . S
C1285 C1279 1.429 . S
C1285 C1286 1.523 . S
C1286 C1267 1.368 . S
C1286 C1280 1.368 . S
C1286 C1285 1.523 . S
C1287 C1271 1.429 . S
C1287 C1283 1.429 . S
C1287 C1288 1.523 . S
C1288 C1272 1.368 . S
C1288 C1284 1.368 . S
C1288 C1287 1.523 . S
H1289 C1264 0.950 . S
H1290 C1266 0.950 . S
H1291 C1267 0.949 . S
H1292 C1269 0.950 . S
H1293 C1271 0.950 . S
C1294 C1295 1.349 . S
C1294 C1296 1.327 . S
C1294 H1319 0.950 . S
C1295 C1294 1.349 . S
C1295 C1311 1.349 . S
C1296 C1294 1.327 . S
C1296 C1315 1.429 . S
C1296 H1320 0.950 . S
C1297 C1314 1.574 . S
C1297 C1316 1.368 . S
C1297 H1321 0.949 . S
H1298 C1302 0.949 . S
C1299 C1300 1.349 . S
C1299 C1301 1.327 . S
C1299 H1322 0.950 . S
C1300 C1299 1.349 . S
C1300 C1312 1.349 . S
C1301 C1299 1.327 . S
C1301 C1317 1.429 . S
C1301 H1323 0.950 . S
C1302 H1298 0.949 . S
C1302 C1310 1.574 . S
C1302 C1318 1.368 . S
H1303 C1311 0.950 . S
H1304 C1309 0.950 . S
H1305 C1310 0.949 . S
H1306 C1312 0.950 . S
H1307 C1313 0.950 . S
H1308 C1314 0.949 . S
C1309 H1304 0.950 . S
C1309 C1311 1.327 . S
C1309 C1315 1.429 . S
C1310 C1302 1.574 . S
C1310 H1305 0.949 . S
C1310 C1316 1.368 . S
C1311 C1295 1.349 . S
C1311 H1303 0.950 . S
C1311 C1309 1.327 . S
C1312 C1300 1.349 . S
C1312 H1306 0.950 . S
C1312 C1313 1.327 . S
C1313 H1307 0.950 . S
C1313 C1312 1.327 . S
C1313 C1317 1.429 . S
C1314 C1297 1.574 . S
C1314 H1308 0.949 . S
C1314 C1318 1.368 . S
C1315 C1296 1.429 . S
C1315 C1309 1.429 . S
C1315 C1316 1.523 . S
C1316 C1297 1.368 . S
C1316 C1310 1.368 . S
C1316 C1315 1.523 . S
C1317 C1301 1.429 . S
C1317 C1313 1.429 . S
C1317 C1318 1.523 . S
C1318 C1302 1.368 . S
C1318 C1314 1.368 . S
C1318 C1317 1.523 . S
H1319 C1294 0.950 . S
H1320 C1296 0.950 . S
H1321 C1297 0.949 . S
H1322 C1299 0.950 . S
H1323 C1301 0.950 . S
C1324 C1325 1.349 . S
C1324 C1326 1.327 . S
C1324 H1349 0.950 . S
C1325 C1324 1.349 . S
C1325 C1341 1.349 . S
C1326 C1324 1.327 . S
C1326 C1345 1.429 . S
C1326 H1350 0.950 . S
C1327 C1344 1.574 . S
C1327 C1346 1.368 . S
C1327 H1351 0.949 . S
H1328 C1332 0.949 . S
C1329 C1330 1.349 . S
C1329 C1331 1.327 . S
C1329 H1352 0.950 . S
C1330 C1329 1.349 . S
C1330 C1342 1.349 . S
C1331 C1329 1.327 . S
C1331 C1347 1.429 . S
C1331 H1353 0.950 . S
C1332 H1328 0.949 . S
C1332 C1340 1.574 . S
C1332 C1348 1.368 . S
H1333 C1341 0.950 . S
H1334 C1339 0.950 . S
H1335 C1340 0.949 . S
H1336 C1342 0.950 . S
H1337 C1343 0.950 . S
H1338 C1344 0.949 . S
C1339 H1334 0.950 . S
C1339 C1341 1.327 . S
C1339 C1345 1.429 . S
C1340 C1332 1.574 . S
C1340 H1335 0.949 . S
C1340 C1346 1.368 . S
C1341 C1325 1.349 . S
C1341 H1333 0.950 . S
C1341 C1339 1.327 . S
C1342 C1330 1.349 . S
C1342 H1336 0.950 . S
C1342 C1343 1.327 . S
C1343 H1337 0.950 . S
C1343 C1342 1.327 . S
C1343 C1347 1.429 . S
C1344 C1327 1.574 . S
C1344 H1338 0.949 . S
C1344 C1348 1.368 . S
C1345 C1326 1.429 . S
C1345 C1339 1.429 . S
C1345 C1346 1.523 . S
C1346 C1327 1.368 . S
C1346 C1340 1.368 . S
C1346 C1345 1.523 . S
C1347 C1331 1.429 . S
C1347 C1343 1.429 . S
C1347 C1348 1.523 . S
C1348 C1332 1.368 . S
C1348 C1344 1.368 . S
C1348 C1347 1.523 . S
H1349 C1324 0.950 . S
H1350 C1326 0.950 . S
H1351 C1327 0.949 . S
H1352 C1329 0.950 . S
H1353 C1331 0.950 . S
C1354 C1355 1.349 . S
C1354 C1356 1.327 . S
C1354 H1379 0.950 . S
C1355 C1354 1.349 . S
C1355 C1371 1.349 . S
C1356 C1354 1.327 . S
C1356 C1375 1.429 . S
C1356 H1380 0.950 . S
C1357 C1374 1.574 . S
C1357 C1376 1.368 . S
C1357 H1381 0.949 . S
H1358 C1362 0.949 . S
C1359 C1360 1.349 . S
C1359 C1361 1.327 1_455 S
C1359 H1382 0.950 . S
C1360 C1359 1.349 . S
C1360 C1372 1.349 . S
C1361 C1359 1.327 1_655 S
C1361 C1377 1.429 . S
C1361 H1383 0.950 . S
C1362 H1358 0.949 . S
C1362 C1370 1.574 . S
C1362 C1378 1.368 . S
H1363 C1371 0.950 . S
H1364 C1369 0.950 . S
H1365 C1370 0.949 . S
H1366 C1372 0.950 . S
H1367 C1373 0.950 . S
H1368 C1374 0.949 . S
C1369 H1364 0.950 . S
C1369 C1371 1.327 . S
C1369 C1375 1.429 . S
C1370 C1362 1.574 . S
C1370 H1365 0.949 . S
C1370 C1376 1.368 . S
C1371 C1355 1.349 . S
C1371 H1363 0.950 . S
C1371 C1369 1.327 . S
C1372 C1360 1.349 . S
C1372 H1366 0.950 . S
C1372 C1373 1.327 1_455 S
C1373 H1367 0.950 . S
C1373 C1372 1.327 1_655 S
C1373 C1377 1.429 . S
C1374 C1357 1.574 . S
C1374 H1368 0.949 . S
C1374 C1378 1.368 . S
C1375 C1356 1.429 . S
C1375 C1369 1.429 . S
C1375 C1376 1.523 . S
C1376 C1357 1.368 . S
C1376 C1370 1.368 . S
C1376 C1375 1.523 . S
C1377 C1361 1.429 . S
C1377 C1373 1.429 . S
C1377 C1378 1.523 . S
C1378 C1362 1.368 . S
C1378 C1374 1.368 . S
C1378 C1377 1.523 . S
H1379 C1354 0.950 . S
H1380 C1356 0.950 . S
H1381 C1357 0.949 . S
H1382 C1359 0.950 . S
H1383 C1361 0.950 . S
C1384 C1385 1.349 . S
C1384 C1386 1.327 . S
C1384 H1409 0.950 . S
C1385 C1384 1.349 . S
C1385 C1401 1.349 . S
C1386 C1384 1.327 . S
C1386 C1405 1.429 . S
C1386 H1410 0.950 . S
C1387 C1404 1.574 . S
C1387 C1406 1.368 . S
C1387 H1411 0.949 . S
H1388 C1392 0.949 . S
C1389 C1390 1.349 . S
C1389 C1391 1.327 . S
C1389 H1412 0.950 . S
C1390 C1389 1.349 . S
C1390 C1402 1.349 . S
C1391 C1389 1.327 . S
C1391 C1407 1.429 . S
C1391 H1413 0.950 . S
C1392 H1388 0.949 . S
C1392 C1400 1.574 . S
C1392 C1408 1.368 . S
H1393 C1401 0.950 . S
H1394 C1399 0.950 . S
H1395 C1400 0.949 . S
H1396 C1402 0.950 . S
H1397 C1403 0.950 . S
H1398 C1404 0.949 . S
C1399 H1394 0.950 . S
C1399 C1401 1.327 . S
C1399 C1405 1.429 . S
C1400 C1392 1.574 . S
C1400 H1395 0.949 . S
C1400 C1406 1.368 . S
C1401 C1385 1.349 . S
C1401 H1393 0.950 . S
C1401 C1399 1.327 . S
C1402 C1390 1.349 . S
C1402 H1396 0.950 . S
C1402 C1403 1.327 . S
C1403 H1397 0.950 . S
C1403 C1402 1.327 . S
C1403 C1407 1.429 . S
C1404 C1387 1.574 . S
C1404 H1398 0.949 . S
C1404 C1408 1.368 . S
C1405 C1386 1.429 . S
C1405 C1399 1.429 . S
C1405 C1406 1.523 . S
C1406 C1387 1.368 . S
C1406 C1400 1.368 . S
C1406 C1405 1.523 . S
C1407 C1391 1.429 . S
C1407 C1403 1.429 . S
C1407 C1408 1.523 . S
C1408 C1392 1.368 . S
C1408 C1404 1.368 . S
C1408 C1407 1.523 . S
H1409 C1384 0.950 . S
H1410 C1386 0.950 . S
H1411 C1387 0.949 . S
H1412 C1389 0.950 . S
H1413 C1391 0.950 . S
C1414 C1415 1.349 . S
C1414 C1416 1.327 . S
C1414 H1439 0.950 . S
C1415 C1414 1.349 . S
C1415 C1431 1.349 . S
C1416 C1414 1.327 . S
C1416 C1435 1.429 . S
C1416 H1440 0.950 . S
C1417 C1434 1.574 . S
C1417 C1436 1.368 . S
C1417 H1441 0.949 . S
H1418 C1422 0.949 . S
C1419 C1420 1.349 . S
C1419 C1421 1.352 . S
C1419 H1442 0.950 . S
C1420 C1419 1.349 . S
C1420 C1432 1.349 . S
C1421 C1419 1.352 . S
C1421 C1437 1.407 1_455 S
C1421 H1443 0.947 1_455 S
C1422 H1418 0.949 . S
C1422 C1430 1.574 . S
C1422 C1438 1.368 . S
H1423 C1431 0.950 . S
H1424 C1429 0.950 . S
H1425 C1430 0.949 . S
H1426 C1432 0.950 . S
H1427 C1433 0.950 . S
H1428 C1434 0.949 . S
C1429 H1424 0.950 . S
C1429 C1431 1.327 . S
C1429 C1435 1.429 . S
C1430 C1422 1.574 . S
C1430 H1425 0.949 . S
C1430 C1436 1.368 . S
C1431 C1415 1.349 . S
C1431 H1423 0.950 . S
C1431 C1429 1.327 . S
C1432 C1420 1.349 . S
C1432 H1426 0.950 . S
C1432 C1433 1.327 1_455 S
C1433 H1427 0.950 . S
C1433 C1432 1.327 1_655 S
C1433 C1437 1.429 . S
C1434 C1417 1.574 . S
C1434 H1428 0.949 . S
C1434 C1438 1.368 . S
C1435 C1416 1.429 . S
C1435 C1429 1.429 . S
C1435 C1436 1.523 . S
C1436 C1417 1.368 . S
C1436 C1430 1.368 . S
C1436 C1435 1.523 . S
C1437 C1421 1.407 1_655 S
C1437 C1433 1.429 . S
C1437 C1438 1.523 . S
C1438 C1422 1.368 . S
C1438 C1434 1.368 . S
C1438 C1437 1.523 . S
H1439 C1414 0.950 . S
H1440 C1416 0.950 . S
H1441 C1417 0.949 . S
H1442 C1419 0.950 . S
H1443 C1421 0.947 1_655 S
C1444 C1445 1.349 . S
C1444 C1446 1.327 . S
C1444 H1469 0.950 . S
C1445 C1444 1.349 . S
C1445 C1461 1.349 . S
C1446 C1444 1.327 . S
C1446 C1465 1.429 . S
C1446 H1470 0.950 . S
C1447 C1464 1.574 . S
C1447 C1466 1.368 . S
C1447 H1471 0.949 . S
H1448 C1452 0.949 . S
C1449 C1450 1.349 . S
C1449 C1451 1.327 . S
C1449 H1472 0.950 . S
C1450 C1449 1.349 . S
C1450 C1462 1.349 . S
C1451 C1449 1.327 . S
C1451 C1467 1.429 . S
C1451 H1473 0.950 . S
C1452 H1448 0.949 . S
C1452 C1460 1.574 . S
C1452 C1468 1.368 . S
H1453 C1461 0.950 . S
H1454 C1459 0.950 . S
H1455 C1460 0.949 . S
H1456 C1462 0.950 . S
H1457 C1463 0.950 . S
H1458 C1464 0.949 . S
C1459 H1454 0.950 . S
C1459 C1461 1.327 . S
C1459 C1465 1.429 . S
C1460 C1452 1.574 . S
C1460 H1455 0.949 . S
C1460 C1466 1.368 . S
C1461 C1445 1.349 . S
C1461 H1453 0.950 . S
C1461 C1459 1.327 . S
C1462 C1450 1.349 . S
C1462 H1456 0.950 . S
C1462 C1463 1.327 . S
C1463 H1457 0.950 . S
C1463 C1462 1.327 . S
C1463 C1467 1.429 . S
C1464 C1447 1.574 . S
C1464 H1458 0.949 . S
C1464 C1468 1.368 . S
C1465 C1446 1.429 . S
C1465 C1459 1.429 . S
C1465 C1466 1.523 . S
C1466 C1447 1.368 . S
C1466 C1460 1.368 . S
C1466 C1465 1.523 . S
C1467 C1451 1.429 . S
C1467 C1463 1.429 . S
C1467 C1468 1.523 . S
C1468 C1452 1.368 . S
C1468 C1464 1.368 . S
C1468 C1467 1.523 . S
H1469 C1444 0.950 . S
H1470 C1446 0.950 . S
H1471 C1447 0.949 . S
H1472 C1449 0.950 . S
H1473 C1451 0.950 . S
C1474 C1475 1.349 . S
C1474 C1476 1.327 . S
C1474 H1499 0.950 . S
C1475 C1474 1.349 . S
C1475 C1491 1.349 . S
C1476 C1474 1.327 . S
C1476 C1495 1.429 . S
C1476 H1500 0.950 . S
C1477 C1494 1.574 . S
C1477 C1496 1.368 . S
C1477 H1501 0.949 . S
H1478 C1482 0.949 . S
C1479 C1480 1.349 . S
C1479 C1481 1.327 . S
C1479 H1502 0.950 . S
C1480 C1479 1.349 . S
C1480 C1492 1.349 . S
C1481 C1479 1.327 . S
C1481 C1497 1.429 . S
C1481 H1503 0.950 . S
C1482 H1478 0.949 . S
C1482 C1490 1.574 . S
C1482 C1498 1.368 . S
H1483 C1491 0.950 . S
H1484 C1489 0.950 . S
H1485 C1490 0.949 . S
H1486 C1492 0.950 . S
H1487 C1493 0.950 . S
H1488 C1494 0.949 . S
C1489 H1484 0.950 . S
C1489 C1491 1.327 . S
C1489 C1495 1.429 . S
C1490 C1482 1.574 . S
C1490 H1485 0.949 . S
C1490 C1496 1.368 . S
C1491 C1475 1.349 . S
C1491 H1483 0.950 . S
C1491 C1489 1.327 . S
C1492 C1480 1.349 . S
C1492 H1486 0.950 . S
C1492 C1493 1.327 . S
C1493 H1487 0.950 . S
C1493 C1492 1.327 . S
C1493 C1497 1.429 . S
C1494 C1477 1.574 . S
C1494 H1488 0.949 . S
C1494 C1498 1.368 . S
C1495 C1476 1.429 . S
C1495 C1489 1.429 . S
C1495 C1496 1.523 . S
C1496 C1477 1.368 . S
C1496 C1490 1.368 . S
C1496 C1495 1.523 . S
C1497 C1481 1.429 . S
C1497 C1493 1.429 . S
C1497 C1498 1.523 . S
C1498 C1482 1.368 . S
C1498 C1494 1.368 . S
C1498 C1497 1.523 . S
H1499 C1474 0.950 . S
H1500 C1476 0.950 . S
H1501 C1477 0.949 . S
H1502 C1479 0.950 . S
H1503 C1481 0.950 . S
C1504 C1505 1.349 . S
C1504 C1506 1.327 . S
C1504 H1529 0.950 . S
C1505 C1504 1.349 . S
C1505 C1521 1.349 . S
C1506 C1504 1.327 . S
C1506 C1525 1.429 . S
C1506 H1530 0.950 . S
C1507 C1524 1.574 . S
C1507 C1526 1.368 . S
C1507 H1531 0.949 . S
H1508 C1512 0.949 . S
C1509 C1510 1.349 . S
C1509 C1511 1.327 . S
C1509 H1532 0.950 . S
C1510 C1509 1.349 . S
C1510 C1522 1.349 . S
C1511 C1509 1.327 . S
C1511 C1527 1.429 . S
C1511 H1533 0.950 . S
C1512 H1508 0.949 . S
C1512 C1520 1.574 . S
C1512 C1528 1.368 . S
H1513 C1521 0.950 . S
H1514 C1519 0.950 . S
H1515 C1520 0.949 . S
H1516 C1522 0.950 . S
H1517 C1523 0.950 . S
H1518 C1524 0.949 . S
C1519 H1514 0.950 . S
C1519 C1521 1.327 . S
C1519 C1525 1.429 . S
C1520 C1512 1.574 . S
C1520 H1515 0.949 . S
C1520 C1526 1.368 . S
C1521 C1505 1.349 . S
C1521 H1513 0.950 . S
C1521 C1519 1.327 . S
C1522 C1510 1.349 . S
C1522 H1516 0.950 . S
C1522 C1523 1.327 . S
C1523 H1517 0.950 . S
C1523 C1522 1.327 . S
C1523 C1527 1.429 . S
C1524 C1507 1.574 . S
C1524 H1518 0.949 . S
C1524 C1528 1.368 . S
C1525 C1506 1.429 . S
C1525 C1519 1.429 . S
C1525 C1526 1.523 . S
C1526 C1507 1.368 . S
C1526 C1520 1.368 . S
C1526 C1525 1.523 . S
C1527 C1511 1.429 . S
C1527 C1523 1.429 . S
C1527 C1528 1.523 . S
C1528 C1512 1.368 . S
C1528 C1524 1.368 . S
C1528 C1527 1.523 . S
H1529 C1504 0.950 . S
H1530 C1506 0.950 . S
H1531 C1507 0.949 . S
H1532 C1509 0.950 . S
H1533 C1511 0.950 . S
C1534 C1535 1.349 . S
C1534 C1536 1.327 . S
C1534 H1559 0.950 . S
C1535 C1534 1.349 . S
C1535 C1551 1.349 . S
C1536 C1534 1.327 . S
C1536 C1555 1.429 . S
C1536 H1560 0.950 . S
C1537 C1554 1.574 . S
C1537 C1556 1.368 . S
C1537 H1561 0.949 . S
H1538 C1542 0.949 . S
C1539 C1540 1.349 . S
C1539 C1541 1.327 . S
C1539 H1562 0.950 . S
C1540 C1539 1.349 . S
C1540 C1552 1.349 . S
C1541 C1539 1.327 . S
C1541 C1557 1.429 . S
C1541 H1563 0.950 . S
C1542 H1538 0.949 . S
C1542 C1550 1.574 . S
C1542 C1558 1.368 . S
H1543 C1551 0.950 . S
H1544 C1549 0.950 . S
H1545 C1550 0.949 . S
H1546 C1552 0.950 . S
H1547 C1553 0.950 . S
H1548 C1554 0.949 . S
C1549 H1544 0.950 . S
C1549 C1551 1.327 . S
C1549 C1555 1.429 . S
C1550 C1542 1.574 . S
C1550 H1545 0.949 . S
C1550 C1556 1.368 . S
C1551 C1535 1.349 . S
C1551 H1543 0.950 . S
C1551 C1549 1.327 . S
C1552 C1540 1.349 . S
C1552 H1546 0.950 . S
C1552 C1553 1.327 . S
C1553 H1547 0.950 . S
C1553 C1552 1.327 . S
C1553 C1557 1.429 . S
C1554 C1537 1.574 . S
C1554 H1548 0.949 . S
C1554 C1558 1.368 . S
C1555 C1536 1.429 . S
C1555 C1549 1.429 . S
C1555 C1556 1.523 . S
C1556 C1537 1.368 . S
C1556 C1550 1.368 . S
C1556 C1555 1.523 . S
C1557 C1541 1.429 . S
C1557 C1553 1.429 . S
C1557 C1558 1.523 . S
C1558 C1542 1.368 . S
C1558 C1554 1.368 . S
C1558 C1557 1.523 . S
H1559 C1534 0.950 . S
H1560 C1536 0.950 . S
H1561 C1537 0.949 . S
H1562 C1539 0.950 . S
H1563 C1541 0.950 . S
C1564 C1565 1.349 . S
C1564 C1566 1.327 . S
C1564 H1589 0.950 . S
C1565 C1564 1.349 . S
C1565 C1581 1.349 . S
C1566 C1564 1.327 . S
C1566 C1585 1.429 . S
C1566 H1590 0.950 . S
C1567 C1584 1.574 . S
C1567 C1586 1.368 . S
C1567 H1591 0.949 . S
H1568 C1572 0.949 . S
C1569 C1570 1.349 . S
C1569 C1571 1.327 . S
C1569 H1592 0.950 . S
C1570 C1569 1.349 . S
C1570 C1582 1.349 . S
C1571 C1569 1.327 . S
C1571 C1587 1.429 . S
C1571 H1593 0.950 . S
C1572 H1568 0.949 . S
C1572 C1580 1.574 . S
C1572 C1588 1.368 . S
H1573 C1581 0.950 . S
H1574 C1579 0.950 . S
H1575 C1580 0.949 . S
H1576 C1582 0.950 . S
H1577 C1583 0.950 . S
H1578 C1584 0.949 . S
C1579 H1574 0.950 . S
C1579 C1581 1.327 . S
C1579 C1585 1.429 . S
C1580 C1572 1.574 . S
C1580 H1575 0.949 . S
C1580 C1586 1.368 . S
C1581 C1565 1.349 . S
C1581 H1573 0.950 . S
C1581 C1579 1.327 . S
C1582 C1570 1.349 . S
C1582 H1576 0.950 . S
C1582 C1583 1.327 . S
C1583 H1577 0.950 . S
C1583 C1582 1.327 . S
C1583 C1587 1.429 . S
C1584 C1567 1.574 . S
C1584 H1578 0.949 . S
C1584 C1588 1.368 . S
C1585 C1566 1.429 . S
C1585 C1579 1.429 . S
C1585 C1586 1.523 . S
C1586 C1567 1.368 . S
C1586 C1580 1.368 . S
C1586 C1585 1.523 . S
C1587 C1571 1.429 . S
C1587 C1583 1.429 . S
C1587 C1588 1.523 . S
C1588 C1572 1.368 . S
C1588 C1584 1.368 . S
C1588 C1587 1.523 . S
H1589 C1564 0.950 . S
H1590 C1566 0.950 . S
H1591 C1567 0.949 . S
H1592 C1569 0.950 . S
H1593 C1571 0.950 . S
C1594 C1595 1.349 1_455 S
C1594 C1596 1.327 . S
C1594 H1619 0.950 1_455 S
C1595 C1594 1.349 1_655 S
C1595 C1611 1.349 1_655 S
C1596 C1594 1.327 . S
C1596 C1615 1.429 . S
C1596 H1620 0.950 . S
C1597 C1614 1.574 . S
C1597 C1616 1.368 . S
C1597 H1621 0.949 . S
H1598 C1602 0.949 . S
C1599 C1600 1.349 . S
C1599 C1601 1.327 . S
C1599 H1622 0.950 . S
C1600 C1599 1.349 . S
C1600 C1612 1.349 . S
C1601 C1599 1.327 . S
C1601 C1617 1.429 . S
C1601 H1623 0.950 . S
C1602 H1598 0.949 . S
C1602 C1610 1.574 . S
C1602 C1618 1.368 . S
H1603 C1611 0.950 . S
H1604 C1609 0.950 . S
H1605 C1610 0.949 . S
H1606 C1612 0.950 . S
H1607 C1613 0.950 . S
H1608 C1614 0.949 . S
C1609 H1604 0.950 . S
C1609 C1611 1.327 . S
C1609 C1615 1.429 . S
C1610 C1602 1.574 . S
C1610 H1605 0.949 . S
C1610 C1616 1.368 . S
C1611 C1595 1.349 1_455 S
C1611 H1603 0.950 . S
C1611 C1609 1.327 . S
C1612 C1600 1.349 . S
C1612 H1606 0.950 . S
C1612 C1613 1.327 . S
C1613 H1607 0.950 . S
C1613 C1612 1.327 . S
C1613 C1617 1.429 . S
C1614 C1597 1.574 . S
C1614 H1608 0.949 . S
C1614 C1618 1.368 . S
C1615 C1596 1.429 . S
C1615 C1609 1.429 . S
C1615 C1616 1.523 . S
C1616 C1597 1.368 . S
C1616 C1610 1.368 . S
C1616 C1615 1.523 . S
C1617 C1601 1.429 . S
C1617 C1613 1.429 . S
C1617 C1618 1.523 . S
C1618 C1602 1.368 . S
C1618 C1614 1.368 . S
C1618 C1617 1.523 . S
H1619 C1594 0.950 1_655 S
H1620 C1596 0.950 . S
H1621 C1597 0.949 . S
H1622 C1599 0.950 . S
H1623 C1601 0.950 . S
C1624 C1625 1.349 . S
C1624 C1626 1.327 . S
C1624 H1649 0.950 . S
C1625 C1624 1.349 . S
C1625 C1641 1.349 . S
C1626 C1624 1.327 . S
C1626 C1645 1.429 . S
C1626 H1650 0.950 . S
C1627 C1644 1.574 . S
C1627 C1646 1.368 . S
C1627 H1651 0.949 . S
H1628 C1632 0.949 . S
C1629 C1630 1.349 . S
C1629 C1631 1.327 . S
C1629 H1652 0.950 . S
C1630 C1629 1.349 . S
C1630 C1642 1.349 . S
C1631 C1629 1.327 . S
C1631 C1647 1.429 . S
C1631 H1653 0.950 . S
C1632 H1628 0.949 . S
C1632 C1640 1.574 . S
C1632 C1648 1.368 . S
H1633 C1641 0.950 . S
H1634 C1639 0.950 . S
H1635 C1640 0.949 . S
H1636 C1642 0.950 . S
H1637 C1643 0.950 . S
H1638 C1644 0.949 . S
C1639 H1634 0.950 . S
C1639 C1641 1.327 . S
C1639 C1645 1.429 . S
C1640 C1632 1.574 . S
C1640 H1635 0.949 . S
C1640 C1646 1.368 . S
C1641 C1625 1.349 . S
C1641 H1633 0.950 . S
C1641 C1639 1.327 . S
C1642 C1630 1.349 . S
C1642 H1636 0.950 . S
C1642 C1643 1.327 . S
C1643 H1637 0.950 . S
C1643 C1642 1.327 . S
C1643 C1647 1.429 . S
C1644 C1627 1.574 . S
C1644 H1638 0.949 . S
C1644 C1648 1.368 . S
C1645 C1626 1.429 . S
C1645 C1639 1.429 . S
C1645 C1646 1.523 . S
C1646 C1627 1.368 . S
C1646 C1640 1.368 . S
C1646 C1645 1.523 . S
C1647 C1631 1.429 . S
C1647 C1643 1.429 . S
C1647 C1648 1.523 . S
C1648 C1632 1.368 . S
C1648 C1644 1.368 . S
C1648 C1647 1.523 . S
H1649 C1624 0.950 . S
H1650 C1626 0.950 . S
H1651 C1627 0.949 . S
H1652 C1629 0.950 . S
H1653 C1631 0.950 . S
C1654 C1655 1.349 . S
C1654 C1656 1.327 . S
C1654 H1679 0.950 . S
C1655 C1654 1.349 . S
C1655 C1671 1.349 . S
C1656 C1654 1.327 . S
C1656 C1675 1.429 . S
C1656 H1680 0.950 . S
C1657 C1674 1.574 . S
C1657 C1676 1.368 . S
C1657 H1681 0.949 . S
H1658 C1662 0.949 . S
C1659 C1660 1.349 . S
C1659 C1661 1.327 . S
C1659 H1682 0.950 . S
C1660 C1659 1.349 . S
C1660 C1672 1.349 . S
C1661 C1659 1.327 . S
C1661 C1677 1.429 1_655 S
C1661 H1683 0.950 . S
C1662 H1658 0.949 . S
C1662 C1670 1.574 . S
C1662 C1678 1.368 . S
H1663 C1671 0.950 . S
H1664 C1669 0.950 . S
H1665 C1670 0.949 . S
H1666 C1672 0.950 . S
H1667 C1673 0.950 . S
H1668 C1674 0.949 . S
C1669 H1664 0.950 . S
C1669 C1671 1.327 . S
C1669 C1675 1.429 . S
C1670 C1662 1.574 . S
C1670 H1665 0.949 . S
C1670 C1676 1.368 . S
C1671 C1655 1.349 . S
C1671 H1663 0.950 . S
C1671 C1669 1.327 . S
C1672 C1660 1.349 . S
C1672 H1666 0.950 . S
C1672 C1673 1.327 1_655 S
C1673 H1667 0.950 . S
C1673 C1672 1.327 1_455 S
C1673 C1677 1.429 . S
C1674 C1657 1.574 . S
C1674 H1668 0.949 . S
C1674 C1678 1.368 . S
C1675 C1656 1.429 . S
C1675 C1669 1.429 . S
C1675 C1676 1.523 . S
C1676 C1657 1.368 . S
C1676 C1670 1.368 . S
C1676 C1675 1.523 . S
C1677 C1661 1.429 1_455 S
C1677 C1673 1.429 . S
C1677 C1678 1.523 . S
C1678 C1662 1.368 . S
C1678 C1674 1.368 . S
C1678 C1677 1.523 . S
H1679 C1654 0.950 . S
H1680 C1656 0.950 . S
H1681 C1657 0.949 . S
H1682 C1659 0.950 . S
H1683 C1661 0.950 . S
C1684 C1685 1.349 . S
C1684 C1686 1.327 . S
C1684 H1709 0.950 . S
C1685 C1684 1.349 . S
C1685 C1701 1.349 . S
C1686 C1684 1.327 . S
C1686 C1705 1.429 . S
C1686 H1710 0.950 . S
C1687 C1704 1.574 . S
C1687 C1706 1.368 . S
C1687 H1711 0.949 . S
H1688 C1692 0.949 . S
C1689 C1690 1.349 . S
C1689 C1691 1.327 . S
C1689 H1712 0.950 . S
C1690 C1689 1.349 . S
C1690 C1702 1.349 . S
C1691 C1689 1.327 . S
C1691 C1707 1.429 . S
C1691 H1713 0.950 . S
C1692 H1688 0.949 . S
C1692 C1700 1.574 . S
C1692 C1708 1.368 . S
H1693 C1701 0.950 . S
H1694 C1699 0.950 . S
H1695 C1700 0.949 . S
H1696 C1702 0.950 . S
H1697 C1703 0.950 . S
H1698 C1704 0.949 . S
C1699 H1694 0.950 . S
C1699 C1701 1.327 . S
C1699 C1705 1.429 . S
C1700 C1692 1.574 . S
C1700 H1695 0.949 . S
C1700 C1706 1.368 . S
C1701 C1685 1.349 . S
C1701 H1693 0.950 . S
C1701 C1699 1.327 . S
C1702 C1690 1.349 . S
C1702 H1696 0.950 . S
C1702 C1703 1.327 . S
C1703 H1697 0.950 . S
C1703 C1702 1.327 . S
C1703 C1707 1.429 . S
C1704 C1687 1.574 . S
C1704 H1698 0.949 . S
C1704 C1708 1.368 . S
C1705 C1686 1.429 . S
C1705 C1699 1.429 . S
C1705 C1706 1.523 . S
C1706 C1687 1.368 . S
C1706 C1700 1.368 . S
C1706 C1705 1.523 . S
C1707 C1691 1.429 . S
C1707 C1703 1.429 . S
C1707 C1708 1.523 . S
C1708 C1692 1.368 . S
C1708 C1704 1.368 . S
C1708 C1707 1.523 . S
H1709 C1684 0.950 . S
H1710 C1686 0.950 . S
H1711 C1687 0.949 . S
H1712 C1689 0.950 . S
H1713 C1691 0.950 . S
C1714 C1715 1.349 . S
C1714 C1716 1.327 . S
C1714 H1739 0.950 . S
C1715 C1714 1.349 . S
C1715 C1731 1.349 . S
C1716 C1714 1.327 . S
C1716 C1735 1.429 . S
C1716 H1740 0.950 . S
C1717 C1734 1.574 . S
C1717 C1736 1.368 . S
C1717 H1741 0.949 . S
H1718 C1722 0.949 . S
C1719 C1720 1.349 . S
C1719 C1721 1.327 . S
C1719 H1742 0.950 . S
C1720 C1719 1.349 . S
C1720 C1732 1.349 . S
C1721 C1719 1.327 . S
C1721 C1737 1.429 . S
C1721 H1743 0.950 . S
C1722 H1718 0.949 . S
C1722 C1730 1.574 . S
C1722 C1738 1.368 . S
H1723 C1731 0.950 . S
H1724 C1729 0.950 . S
H1725 C1730 0.949 . S
H1726 C1732 0.950 . S
H1727 C1733 0.950 . S
H1728 C1734 0.949 . S
C1729 H1724 0.950 . S
C1729 C1731 1.327 . S
C1729 C1735 1.429 . S
C1730 C1722 1.574 . S
C1730 H1725 0.949 . S
C1730 C1736 1.368 . S
C1731 C1715 1.349 . S
C1731 H1723 0.950 . S
C1731 C1729 1.327 . S
C1732 C1720 1.349 . S
C1732 H1726 0.950 . S
C1732 C1733 1.327 . S
C1733 H1727 0.950 . S
C1733 C1732 1.327 . S
C1733 C1737 1.429 . S
C1734 C1717 1.574 . S
C1734 H1728 0.949 . S
C1734 C1738 1.368 . S
C1735 C1716 1.429 . S
C1735 C1729 1.429 . S
C1735 C1736 1.523 . S
C1736 C1717 1.368 . S
C1736 C1730 1.368 . S
C1736 C1735 1.523 . S
C1737 C1721 1.429 . S
C1737 C1733 1.429 . S
C1737 C1738 1.523 . S
C1738 C1722 1.368 . S
C1738 C1734 1.368 . S
C1738 C1737 1.523 . S
H1739 C1714 0.950 . S
H1740 C1716 0.950 . S
H1741 C1717 0.949 . S
H1742 C1719 0.950 . S
H1743 C1721 0.950 . S
C1744 C1745 1.349 . S
C1744 C1746 1.327 . S
C1744 H1769 0.950 . S
C1745 C1744 1.349 . S
C1745 C1761 1.349 . S
C1746 C1744 1.327 . S
C1746 C1765 1.429 . S
C1746 H1770 0.950 . S
C1747 C1764 1.563 1_556 S
C1747 C1766 1.368 . S
C1747 H1771 0.949 . S
H1748 C1752 0.947 1_554 S
C1749 C1750 1.349 . S
C1749 C1751 1.327 . S
C1749 H1772 0.950 . S
C1750 C1749 1.349 . S
C1750 C1762 1.349 . S
C1751 C1749 1.327 . S
C1751 C1767 1.429 . S
C1751 H1773 0.950 . S
C1752 H1748 0.947 1_556 S
C1752 C1760 1.579 . S
C1752 C1768 1.366 1_556 S
H1753 C1761 0.950 . S
H1754 C1759 0.950 . S
H1755 C1760 0.949 . S
H1756 C1762 0.950 . S
H1757 C1763 0.950 . S
H1758 C1764 0.956 . S
C1759 H1754 0.950 . S
C1759 C1761 1.327 . S
C1759 C1765 1.429 . S
C1760 C1752 1.579 . S
C1760 H1755 0.949 . S
C1760 C1766 1.368 . S
C1761 C1745 1.349 . S
C1761 H1753 0.950 . S
C1761 C1759 1.327 . S
C1762 C1750 1.349 . S
C1762 H1756 0.950 . S
C1762 C1763 1.327 . S
C1763 H1757 0.950 . S
C1763 C1762 1.327 . S
C1763 C1767 1.429 . S
C1764 C1747 1.563 1_554 S
C1764 H1758 0.956 . S
C1764 C1768 1.371 . S
C1765 C1746 1.429 . S
C1765 C1759 1.429 . S
C1765 C1766 1.523 . S
C1766 C1747 1.368 . S
C1766 C1760 1.368 . S
C1766 C1765 1.523 . S
C1767 C1751 1.429 . S
C1767 C1763 1.429 . S
C1767 C1768 1.523 . S
C1768 C1752 1.366 1_554 S
C1768 C1764 1.371 . S
C1768 C1767 1.523 . S
H1769 C1744 0.950 . S
H1770 C1746 0.950 . S
H1771 C1747 0.949 . S
H1772 C1749 0.950 . S
H1773 C1751 0.950 . S
C1774 C1775 1.349 . S
C1774 C1776 1.327 . S
C1774 H1799 0.950 1_545 S
C1775 C1774 1.349 . S
C1775 C1791 1.349 . S
C1776 C1774 1.327 . S
C1776 C1795 1.429 . S
C1776 H1800 0.950 1_545 S
C1777 C1794 1.574 . S
C1777 C1796 1.368 . S
C1777 H1801 0.949 . S
H1778 C1782 0.949 . S
C1779 C1780 1.349 1_545 S
C1779 C1781 1.327 . S
C1779 H1802 0.950 . S
C1780 C1779 1.349 1_565 S
C1780 C1792 1.349 . S
C1781 C1779 1.327 . S
C1781 C1797 1.429 1_545 S
C1781 H1803 0.950 . S
C1782 H1778 0.949 . S
C1782 C1790 1.574 . S
C1782 C1798 1.368 1_565 S
H1783 C1791 0.950 . S
H1784 C1789 0.950 . S
H1785 C1790 0.949 . S
H1786 C1792 0.950 . S
H1787 C1793 0.950 . S
H1788 C1794 0.949 . S
C1789 H1784 0.950 . S
C1789 C1791 1.327 . S
C1789 C1795 1.429 . S
C1790 C1782 1.574 . S
C1790 H1785 0.949 . S
C1790 C1796 1.368 1_565 S
C1791 C1775 1.349 . S
C1791 H1783 0.950 . S
C1791 C1789 1.327 . S
C1792 C1780 1.349 . S
C1792 H1786 0.950 . S
C1792 C1793 1.327 . S
C1793 H1787 0.950 . S
C1793 C1792 1.327 . S
C1793 C1797 1.429 . S
C1794 C1777 1.574 . S
C1794 H1788 0.949 . S
C1794 C1798 1.368 . S
C1795 C1776 1.429 . S
C1795 C1789 1.429 . S
C1795 C1796 1.523 . S
C1796 C1777 1.368 . S
C1796 C1790 1.368 1_545 S
C1796 C1795 1.523 . S
C1797 C1781 1.429 1_565 S
C1797 C1793 1.429 . S
C1797 C1798 1.523 1_565 S
C1798 C1782 1.368 1_545 S
C1798 C1794 1.368 . S
C1798 C1797 1.523 1_545 S
H1799 C1774 0.950 1_565 S
H1800 C1776 0.950 1_565 S
H1801 C1777 0.949 . S
H1802 C1779 0.950 . S
H1803 C1781 0.950 . S
C1804 C1805 1.349 . S
C1804 C1806 1.327 . S
C1804 H1829 0.950 . S
C1805 C1804 1.349 . S
C1805 C1821 1.349 . S
C1806 C1804 1.327 . S
C1806 C1825 1.429 . S
C1806 H1830 0.950 . S
C1807 C1824 1.574 . S
C1807 C1826 1.368 . S
C1807 H1831 0.949 . S
H1808 C1812 0.949 . S
C1809 C1810 1.349 . S
C1809 C1811 1.327 . S
C1809 H1832 0.950 . S
C1810 C1809 1.349 . S
C1810 C1822 1.349 . S
C1811 C1809 1.327 . S
C1811 C1827 1.429 . S
C1811 H1833 0.950 . S
C1812 H1808 0.949 . S
C1812 C1820 1.574 . S
C1812 C1828 1.368 . S
H1813 C1821 0.950 . S
H1814 C1819 0.950 . S
H1815 C1820 0.949 . S
H1816 C1822 0.950 . S
H1817 C1823 0.950 . S
H1818 C1824 0.949 . S
C1819 H1814 0.950 . S
C1819 C1821 1.327 . S
C1819 C1825 1.429 . S
C1820 C1812 1.574 . S
C1820 H1815 0.949 . S
C1820 C1826 1.368 . S
C1821 C1805 1.349 . S
C1821 H1813 0.950 . S
C1821 C1819 1.327 . S
C1822 C1810 1.349 . S
C1822 H1816 0.950 . S
C1822 C1823 1.327 . S
C1823 H1817 0.950 . S
C1823 C1822 1.327 . S
C1823 C1827 1.429 . S
C1824 C1807 1.574 . S
C1824 H1818 0.949 . S
C1824 C1828 1.368 . S
C1825 C1806 1.429 . S
C1825 C1819 1.429 . S
C1825 C1826 1.523 . S
C1826 C1807 1.368 . S
C1826 C1820 1.368 . S
C1826 C1825 1.523 . S
C1827 C1811 1.429 . S
C1827 C1823 1.429 . S
C1827 C1828 1.523 . S
C1828 C1812 1.368 . S
C1828 C1824 1.368 . S
C1828 C1827 1.523 . S
H1829 C1804 0.950 . S
H1830 C1806 0.950 . S
H1831 C1807 0.949 . S
H1832 C1809 0.950 . S
H1833 C1811 0.950 . S
C1834 C1835 1.349 . S
C1834 C1836 1.327 . S
C1834 H1859 0.950 . S
C1835 C1834 1.349 . S
C1835 C1851 1.349 . S
C1836 C1834 1.327 . S
C1836 C1855 1.429 . S
C1836 H1860 0.950 . S
C1837 C1854 1.574 . S
C1837 C1856 1.368 . S
C1837 H1861 0.949 . S
H1838 C1842 0.949 . S
C1839 C1840 1.349 . S
C1839 C1841 1.327 1_545 S
C1839 H1862 0.950 1_545 S
C1840 C1839 1.349 . S
C1840 C1852 1.349 . S
C1841 C1839 1.327 1_565 S
C1841 C1857 1.429 1_565 S
C1841 H1863 0.950 . S
C1842 H1838 0.949 . S
C1842 C1850 1.574 . S
C1842 C1858 1.368 1_545 S
H1843 C1851 0.950 . S
H1844 C1849 0.950 . S
H1845 C1850 0.949 . S
H1846 C1852 0.950 . S
H1847 C1853 0.950 . S
H1848 C1854 0.949 . S
C1849 H1844 0.950 . S
C1849 C1851 1.327 . S
C1849 C1855 1.429 . S
C1850 C1842 1.574 . S
C1850 H1845 0.949 . S
C1850 C1856 1.368 1_545 S
C1851 C1835 1.349 . S
C1851 H1843 0.950 . S
C1851 C1849 1.327 . S
C1852 C1840 1.349 . S
C1852 H1846 0.950 . S
C1852 C1853 1.327 . S
C1853 H1847 0.950 . S
C1853 C1852 1.327 . S
C1853 C1857 1.429 . S
C1854 C1837 1.574 . S
C1854 H1848 0.949 . S
C1854 C1858 1.368 . S
C1855 C1836 1.429 . S
C1855 C1849 1.429 . S
C1855 C1856 1.523 . S
C1856 C1837 1.368 . S
C1856 C1850 1.368 1_565 S
C1856 C1855 1.523 . S
C1857 C1841 1.429 1_545 S
C1857 C1853 1.429 . S
C1857 C1858 1.523 1_545 S
C1858 C1842 1.368 1_565 S
C1858 C1854 1.368 . S
C1858 C1857 1.523 1_565 S
H1859 C1834 0.950 . S
H1860 C1836 0.950 . S
H1861 C1837 0.949 . S
H1862 C1839 0.950 1_565 S
H1863 C1841 0.950 . S
C1864 C1865 1.349 . S
C1864 C1866 1.327 . S
C1864 H1889 0.950 . S
C1865 C1864 1.349 . S
C1865 C1881 1.349 . S
C1866 C1864 1.327 . S
C1866 C1885 1.429 . S
C1866 H1890 0.950 . S
C1867 C1884 1.574 . S
C1867 C1886 1.368 1_554 S
C1867 H1891 0.949 1_554 S
H1868 C1872 0.949 . S
C1869 C1870 1.349 . S
C1869 C1871 1.327 . S
C1869 H1892 0.950 . S
C1870 C1869 1.349 . S
C1870 C1882 1.349 . S
C1871 C1869 1.327 . S
C1871 C1887 1.429 . S
C1871 H1893 0.950 . S
C1872 H1868 0.949 . S
C1872 C1880 1.575 1_554 S
C1872 C1888 1.368 . S
H1873 C1881 0.950 . S
H1874 C1879 0.950 . S
H1875 C1880 0.948 . S
H1876 C1882 0.950 . S
H1877 C1883 0.950 . S
H1878 C1884 0.949 . S
C1879 H1874 0.950 . S
C1879 C1881 1.327 . S
C1879 C1885 1.429 . S
C1880 C1872 1.575 1_556 S
C1880 H1875 0.948 . S
C1880 C1886 1.368 . S
C1881 C1865 1.349 . S
C1881 H1873 0.950 . S
C1881 C1879 1.327 . S
C1882 C1870 1.349 . S
C1882 H1876 0.950 . S
C1882 C1883 1.327 . S
C1883 H1877 0.950 . S
C1883 C1882 1.327 . S
C1883 C1887 1.429 . S
C1884 C1867 1.574 . S
C1884 H1878 0.949 . S
C1884 C1888 1.368 . S
C1885 C1866 1.429 . S
C1885 C1879 1.429 . S
C1885 C1886 1.523 . S
C1886 C1867 1.368 1_556 S
C1886 C1880 1.368 . S
C1886 C1885 1.523 . S
C1887 C1871 1.429 . S
C1887 C1883 1.429 . S
C1887 C1888 1.523 . S
C1888 C1872 1.368 . S
C1888 C1884 1.368 . S
C1888 C1887 1.523 . S
H1889 C1864 0.950 . S
H1890 C1866 0.950 . S
H1891 C1867 0.949 1_556 S
H1892 C1869 0.950 . S
H1893 C1871 0.950 . S
C1894 C1895 1.349 . S
C1894 C1896 1.327 . S
C1894 H1919 0.950 . S
C1895 C1894 1.349 . S
C1895 C1911 1.349 1_545 S
C1896 C1894 1.327 . S
C1896 C1915 1.429 . S
C1896 H1920 0.950 . S
C1897 C1914 1.574 . S
C1897 C1916 1.368 1_565 S
C1897 H1921 0.949 . S
H1898 C1902 0.949 . S
C1899 C1900 1.349 . S
C1899 C1901 1.327 . S
C1899 H1922 0.950 . S
C1900 C1899 1.349 . S
C1900 C1912 1.349 1_565 S
C1901 C1899 1.327 . S
C1901 C1917 1.429 . S
C1901 H1923 0.950 . S
C1902 H1898 0.949 . S
C1902 C1910 1.574 . S
C1902 C1918 1.369 1_545 S
H1903 C1911 0.950 . S
H1904 C1909 0.950 . S
H1905 C1910 0.949 . S
H1906 C1912 0.950 . S
H1907 C1913 0.950 . S
H1908 C1914 0.949 . S
C1909 H1904 0.950 . S
C1909 C1911 1.327 . S
C1909 C1915 1.429 1_565 S
C1910 C1902 1.574 . S
C1910 H1905 0.949 . S
C1910 C1916 1.368 . S
C1911 C1895 1.349 1_565 S
C1911 H1903 0.950 . S
C1911 C1909 1.327 . S
C1912 C1900 1.349 1_545 S
C1912 H1906 0.950 . S
C1912 C1913 1.327 . S
C1913 H1907 0.950 . S
C1913 C1912 1.327 . S
C1913 C1917 1.429 1_545 S
C1914 C1897 1.574 . S
C1914 H1908 0.949 . S
C1914 C1918 1.367 . S
C1915 C1896 1.429 . S
C1915 C1909 1.429 1_545 S
C1915 C1916 1.523 . S
C1916 C1897 1.368 1_545 S
C1916 C1910 1.368 . S
C1916 C1915 1.523 . S
C1917 C1901 1.429 . S
C1917 C1913 1.429 1_565 S
C1917 C1918 1.522 . S
C1918 C1902 1.369 1_565 S
C1918 C1914 1.367 . S
C1918 C1917 1.522 . S
H1919 C1894 0.950 . S
H1920 C1896 0.950 . S
H1921 C1897 0.949 . S
H1922 C1899 0.950 . S
H1923 C1901 0.950 . S
C1924 C1925 1.349 . S
C1924 C1926 1.327 . S
C1924 H1949 0.950 . S
C1925 C1924 1.349 . S
C1925 C1941 1.349 . S
C1926 C1924 1.327 . S
C1926 C1945 1.429 . S
C1926 H1950 0.950 . S
C1927 C1944 1.574 . S
C1927 C1946 1.368 . S
C1927 H1951 0.949 . S
H1928 C1932 0.949 . S
C1929 C1930 1.349 . S
C1929 C1931 1.327 . S
C1929 H1952 0.950 . S
C1930 C1929 1.349 . S
C1930 C1942 1.349 . S
C1931 C1929 1.327 . S
C1931 C1947 1.429 . S
C1931 H1953 0.950 . S
C1932 H1928 0.949 . S
C1932 C1940 1.574 . S
C1932 C1948 1.368 . S
H1933 C1941 0.950 . S
H1934 C1939 0.950 . S
H1935 C1940 0.949 . S
H1936 C1942 0.950 . S
H1937 C1943 0.950 . S
H1938 C1944 0.949 . S
C1939 H1934 0.950 . S
C1939 C1941 1.327 . S
C1939 C1945 1.429 . S
C1940 C1932 1.574 . S
C1940 H1935 0.949 . S
C1940 C1946 1.368 . S
C1941 C1925 1.349 . S
C1941 H1933 0.950 . S
C1941 C1939 1.327 . S
C1942 C1930 1.349 . S
C1942 H1936 0.950 . S
C1942 C1943 1.327 . S
C1943 H1937 0.950 . S
C1943 C1942 1.327 . S
C1943 C1947 1.429 . S
C1944 C1927 1.574 . S
C1944 H1938 0.949 . S
C1944 C1948 1.368 . S
C1945 C1926 1.429 . S
C1945 C1939 1.429 . S
C1945 C1946 1.523 . S
C1946 C1927 1.368 . S
C1946 C1940 1.368 . S
C1946 C1945 1.523 . S
C1947 C1931 1.429 . S
C1947 C1943 1.429 . S
C1947 C1948 1.523 . S
C1948 C1932 1.368 . S
C1948 C1944 1.368 . S
C1948 C1947 1.523 . S
H1949 C1924 0.950 . S
H1950 C1926 0.950 . S
H1951 C1927 0.949 . S
H1952 C1929 0.950 . S
H1953 C1931 0.950 . S
C1954 C1955 1.349 . S
C1954 C1956 1.327 . S
C1954 H1979 0.950 . S
C1955 C1954 1.349 . S
C1955 C1971 1.357 . S
C1956 C1954 1.327 . S
C1956 C1975 1.429 . S
C1956 H1980 0.950 . S
C1957 C1974 1.574 . S
C1957 C1976 1.368 1_565 S
C1957 H1981 0.949 . S
H1958 C1962 0.949 . S
C1959 C1960 1.349 . S
C1959 C1961 1.327 . S
C1959 H1982 0.950 . S
C1960 C1959 1.349 . S
C1960 C1972 1.349 1_565 S
C1961 C1959 1.327 . S
C1961 C1977 1.429 . S
C1961 H1983 0.950 . S
C1962 H1958 0.949 . S
C1962 C1970 1.574 . S
C1962 C1978 1.367 . S
H1963 C1971 0.942 1_565 S
H1964 C1969 0.950 . S
H1965 C1970 0.949 . S
H1966 C1972 0.950 . S
H1967 C1973 0.950 . S
H1968 C1974 0.949 . S
C1969 H1964 0.950 . S
C1969 C1971 1.327 1_565 S
C1969 C1975 1.429 1_565 S
C1970 C1962 1.574 . S
C1970 H1965 0.949 . S
C1970 C1976 1.368 . S
C1971 C1955 1.357 . S
C1971 H1963 0.942 1_545 S
C1971 C1969 1.327 1_545 S
C1972 C1960 1.349 1_545 S
C1972 H1966 0.950 . S
C1972 C1973 1.327 . S
C1973 H1967 0.950 . S
C1973 C1972 1.327 . S
C1973 C1977 1.429 1_545 S
C1974 C1957 1.574 . S
C1974 H1968 0.949 . S
C1974 C1978 1.370 1_565 S
C1975 C1956 1.429 . S
C1975 C1969 1.429 1_545 S
C1975 C1976 1.523 . S
C1976 C1957 1.368 1_545 S
C1976 C1970 1.368 . S
C1976 C1975 1.523 . S
C1977 C1961 1.429 . S
C1977 C1973 1.429 1_565 S
C1977 C1978 1.523 1_565 S
C1978 C1962 1.367 . S
C1978 C1974 1.370 1_545 S
C1978 C1977 1.523 1_545 S
H1979 C1954 0.950 . S
H1980 C1956 0.950 . S
H1981 C1957 0.949 . S
H1982 C1959 0.950 . S
H1983 C1961 0.950 . S
C1984 C1985 1.349 . S
C1984 C1986 1.327 . S
C1984 H2009 0.950 . S
C1985 C1984 1.349 . S
C1985 C2001 1.349 . S
C1986 C1984 1.327 . S
C1986 C2005 1.429 . S
C1986 H2010 0.950 . S
C1987 C2004 1.574 . S
C1987 C2006 1.368 . S
C1987 H2011 0.949 . S
H1988 C1992 0.949 . S
C1989 C1990 1.349 . S
C1989 C1991 1.327 . S
C1989 H2012 0.950 . S
C1990 C1989 1.349 . S
C1990 C2002 1.349 . S
C1991 C1989 1.327 . S
C1991 C2007 1.429 . S
C1991 H2013 0.950 . S
C1992 H1988 0.949 . S
C1992 C2000 1.574 . S
C1992 C2008 1.368 . S
H1993 C2001 0.950 . S
H1994 C1999 0.950 . S
H1995 C2000 0.949 . S
H1996 C2002 0.950 . S
H1997 C2003 0.950 . S
H1998 C2004 0.949 . S
C1999 H1994 0.950 . S
C1999 C2001 1.327 . S
C1999 C2005 1.429 . S
C2000 C1992 1.574 . S
C2000 H1995 0.949 . S
C2000 C2006 1.368 . S
C2001 C1985 1.349 . S
C2001 H1993 0.950 . S
C2001 C1999 1.327 . S
C2002 C1990 1.349 . S
C2002 H1996 0.950 . S
C2002 C2003 1.327 . S
C2003 H1997 0.950 . S
C2003 C2002 1.327 . S
C2003 C2007 1.429 . S
C2004 C1987 1.574 . S
C2004 H1998 0.949 . S
C2004 C2008 1.368 . S
C2005 C1986 1.429 . S
C2005 C1999 1.429 . S
C2005 C2006 1.523 . S
C2006 C1987 1.368 . S
C2006 C2000 1.368 . S
C2006 C2005 1.523 . S
C2007 C1991 1.429 . S
C2007 C2003 1.429 . S
C2007 C2008 1.523 . S
C2008 C1992 1.368 . S
C2008 C2004 1.368 . S
C2008 C2007 1.523 . S
H2009 C1984 0.950 . S
H2010 C1986 0.950 . S
H2011 C1987 0.949 . S
H2012 C1989 0.950 . S
H2013 C1991 0.950 . S
C2014 C2015 1.349 . S
C2014 C2016 1.327 . S
C2014 H2039 0.950 . S
C2015 C2014 1.349 . S
C2015 C2031 1.349 . S
C2016 C2014 1.327 . S
C2016 C2035 1.429 . S
C2016 H2040 0.950 . S
C2017 C2034 1.574 . S
C2017 C2036 1.368 . S
C2017 H2041 0.949 . S
H2018 C2022 0.949 . S
C2019 C2020 1.349 . S
C2019 C2021 1.327 . S
C2019 H2042 0.950 . S
C2020 C2019 1.349 . S
C2020 C2032 1.349 . S
C2021 C2019 1.327 . S
C2021 C2037 1.429 . S
C2021 H2043 0.950 . S
C2022 H2018 0.949 . S
C2022 C2030 1.574 . S
C2022 C2038 1.368 . S
H2023 C2031 0.950 . S
H2024 C2029 0.950 . S
H2025 C2030 0.949 . S
H2026 C2032 0.950 . S
H2027 C2033 0.950 . S
H2028 C2034 0.949 . S
C2029 H2024 0.950 . S
C2029 C2031 1.327 . S
C2029 C2035 1.429 . S
C2030 C2022 1.574 . S
C2030 H2025 0.949 . S
C2030 C2036 1.368 . S
C2031 C2015 1.349 . S
C2031 H2023 0.950 . S
C2031 C2029 1.327 . S
C2032 C2020 1.349 . S
C2032 H2026 0.950 . S
C2032 C2033 1.327 . S
C2033 H2027 0.950 . S
C2033 C2032 1.327 . S
C2033 C2037 1.429 . S
C2034 C2017 1.574 . S
C2034 H2028 0.949 . S
C2034 C2038 1.368 . S
C2035 C2016 1.429 . S
C2035 C2029 1.429 . S
C2035 C2036 1.523 . S
C2036 C2017 1.368 . S
C2036 C2030 1.368 . S
C2036 C2035 1.523 . S
C2037 C2021 1.429 . S
C2037 C2033 1.429 . S
C2037 C2038 1.523 . S
C2038 C2022 1.368 . S
C2038 C2034 1.368 . S
C2038 C2037 1.523 . S
H2039 C2014 0.950 . S
H2040 C2016 0.950 . S
H2041 C2017 0.949 . S
H2042 C2019 0.950 . S
H2043 C2021 0.950 . S
C2044 C2045 1.349 . S
C2044 C2046 1.327 . S
C2044 H2069 0.950 . S
C2045 C2044 1.349 . S
C2045 C2061 1.349 . S
C2046 C2044 1.327 . S
C2046 C2065 1.429 . S
C2046 H2070 0.950 . S
C2047 C2064 1.574 1_554 S
C2047 C2066 1.368 . S
C2047 H2071 0.949 . S
H2048 C2052 0.949 . S
C2049 C2050 1.349 . S
C2049 C2051 1.327 . S
C2049 H2072 0.950 . S
C2050 C2049 1.349 . S
C2050 C2062 1.349 . S
C2051 C2049 1.327 . S
C2051 C2067 1.429 . S
C2051 H2073 0.950 . S
C2052 H2048 0.949 . S
C2052 C2060 1.574 1_556 S
C2052 C2068 1.368 . S
H2053 C2061 0.950 . S
H2054 C2059 0.950 . S
H2055 C2060 0.949 . S
H2056 C2062 0.950 . S
H2057 C2063 0.950 . S
H2058 C2064 0.949 . S
C2059 H2054 0.950 . S
C2059 C2061 1.327 . S
C2059 C2065 1.429 . S
C2060 C2052 1.574 1_554 S
C2060 H2055 0.949 . S
C2060 C2066 1.368 . S
C2061 C2045 1.349 . S
C2061 H2053 0.950 . S
C2061 C2059 1.327 . S
C2062 C2050 1.349 . S
C2062 H2056 0.950 . S
C2062 C2063 1.327 . S
C2063 H2057 0.950 . S
C2063 C2062 1.327 . S
C2063 C2067 1.429 . S
C2064 C2047 1.574 1_556 S
C2064 H2058 0.949 . S
C2064 C2068 1.368 . S
C2065 C2046 1.429 . S
C2065 C2059 1.429 . S
C2065 C2066 1.523 . S
C2066 C2047 1.368 . S
C2066 C2060 1.368 . S
C2066 C2065 1.523 . S
C2067 C2051 1.429 . S
C2067 C2063 1.429 . S
C2067 C2068 1.523 . S
C2068 C2052 1.368 . S
C2068 C2064 1.368 . S
C2068 C2067 1.523 . S
H2069 C2044 0.950 . S
H2070 C2046 0.950 . S
H2071 C2047 0.949 . S
H2072 C2049 0.950 . S
H2073 C2051 0.950 . S
C2074 C2075 1.349 . S
C2074 C2076 1.327 . S
C2074 H2099 0.950 . S
C2075 C2074 1.349 . S
C2075 C2091 1.349 . S
C2076 C2074 1.327 . S
C2076 C2095 1.429 . S
C2076 H2100 0.950 . S
C2077 C2094 1.574 . S
C2077 C2096 1.368 . S
C2077 H2101 0.949 . S
H2078 C2082 0.949 . S
C2079 C2080 1.349 . S
C2079 C2081 1.327 . S
C2079 H2102 0.950 . S
C2080 C2079 1.349 . S
C2080 C2092 1.349 . S
C2081 C2079 1.327 . S
C2081 C2097 1.429 . S
C2081 H2103 0.950 . S
C2082 H2078 0.949 . S
C2082 C2090 1.574 . S
C2082 C2098 1.368 . S
H2083 C2091 0.950 . S
H2084 C2089 0.950 . S
H2085 C2090 0.949 . S
H2086 C2092 0.950 . S
H2087 C2093 0.950 . S
H2088 C2094 0.949 . S
C2089 H2084 0.950 . S
C2089 C2091 1.327 . S
C2089 C2095 1.429 . S
C2090 C2082 1.574 . S
C2090 H2085 0.949 . S
C2090 C2096 1.368 . S
C2091 C2075 1.349 . S
C2091 H2083 0.950 . S
C2091 C2089 1.327 . S
C2092 C2080 1.349 . S
C2092 H2086 0.950 . S
C2092 C2093 1.327 . S
C2093 H2087 0.950 . S
C2093 C2092 1.327 . S
C2093 C2097 1.429 . S
C2094 C2077 1.574 . S
C2094 H2088 0.949 . S
C2094 C2098 1.368 . S
C2095 C2076 1.429 . S
C2095 C2089 1.429 . S
C2095 C2096 1.523 . S
C2096 C2077 1.368 . S
C2096 C2090 1.368 . S
C2096 C2095 1.523 . S
C2097 C2081 1.429 . S
C2097 C2093 1.429 . S
C2097 C2098 1.523 . S
C2098 C2082 1.368 . S
C2098 C2094 1.368 . S
C2098 C2097 1.523 . S
H2099 C2074 0.950 . S
H2100 C2076 0.950 . S
H2101 C2077 0.949 . S
H2102 C2079 0.950 . S
H2103 C2081 0.950 . S
C2104 C2105 1.349 . S
C2104 C2106 1.327 . S
C2104 H2129 0.950 . S
C2105 C2104 1.349 . S
C2105 C2121 1.349 . S
C2106 C2104 1.327 . S
C2106 C2125 1.429 . S
C2106 H2130 0.950 . S
C2107 C2124 1.574 . S
C2107 C2126 1.368 . S
C2107 H2131 0.949 . S
H2108 C2112 0.949 . S
C2109 C2110 1.349 . S
C2109 C2111 1.327 . S
C2109 H2132 0.950 . S
C2110 C2109 1.349 . S
C2110 C2122 1.349 . S
C2111 C2109 1.327 . S
C2111 C2127 1.429 . S
C2111 H2133 0.950 . S
C2112 H2108 0.949 . S
C2112 C2120 1.574 . S
C2112 C2128 1.368 . S
H2113 C2121 0.950 1_565 S
H2114 C2119 0.950 . S
H2115 C2120 0.949 . S
H2116 C2122 0.950 . S
H2117 C2123 0.950 . S
H2118 C2124 0.949 . S
C2119 H2114 0.950 . S
C2119 C2121 1.327 . S
C2119 C2125 1.429 . S
C2120 C2112 1.574 . S
C2120 H2115 0.949 . S
C2120 C2126 1.368 . S
C2121 C2105 1.349 . S
C2121 H2113 0.950 1_545 S
C2121 C2119 1.327 . S
C2122 C2110 1.349 . S
C2122 H2116 0.950 . S
C2122 C2123 1.327 . S
C2123 H2117 0.950 . S
C2123 C2122 1.327 . S
C2123 C2127 1.429 . S
C2124 C2107 1.574 . S
C2124 H2118 0.949 . S
C2124 C2128 1.368 . S
C2125 C2106 1.429 . S
C2125 C2119 1.429 . S
C2125 C2126 1.523 . S
C2126 C2107 1.368 . S
C2126 C2120 1.368 . S
C2126 C2125 1.523 . S
C2127 C2111 1.429 . S
C2127 C2123 1.429 . S
C2127 C2128 1.523 . S
C2128 C2112 1.368 . S
C2128 C2124 1.368 . S
C2128 C2127 1.523 . S
H2129 C2104 0.950 . S
H2130 C2106 0.950 . S
H2131 C2107 0.949 . S
H2132 C2109 0.950 . S
H2133 C2111 0.950 . S
C2134 C2135 1.349 . S
C2134 C2136 1.327 . S
C2134 H2159 0.950 . S
C2135 C2134 1.349 . S
C2135 C2151 1.349 . S
C2136 C2134 1.327 . S
C2136 C2155 1.429 . S
C2136 H2160 0.950 . S
C2137 C2154 1.574 . S
C2137 C2156 1.368 . S
C2137 H2161 0.949 . S
H2138 C2142 0.949 . S
C2139 C2140 1.349 . S
C2139 C2141 1.327 . S
C2139 H2162 0.950 . S
C2140 C2139 1.349 . S
C2140 C2152 1.349 . S
C2141 C2139 1.327 . S
C2141 C2157 1.429 . S
C2141 H2163 0.950 . S
C2142 H2138 0.949 . S
C2142 C2150 1.574 . S
C2142 C2158 1.368 . S
H2143 C2151 0.950 . S
H2144 C2149 0.950 . S
H2145 C2150 0.949 . S
H2146 C2152 0.950 . S
H2147 C2153 0.950 . S
H2148 C2154 0.949 . S
C2149 H2144 0.950 . S
C2149 C2151 1.327 . S
C2149 C2155 1.429 . S
C2150 C2142 1.574 . S
C2150 H2145 0.949 . S
C2150 C2156 1.368 . S
C2151 C2135 1.349 . S
C2151 H2143 0.950 . S
C2151 C2149 1.327 . S
C2152 C2140 1.349 . S
C2152 H2146 0.950 . S
C2152 C2153 1.327 . S
C2153 H2147 0.950 . S
C2153 C2152 1.327 . S
C2153 C2157 1.429 . S
C2154 C2137 1.574 . S
C2154 H2148 0.949 . S
C2154 C2158 1.368 . S
C2155 C2136 1.429 . S
C2155 C2149 1.429 . S
C2155 C2156 1.523 . S
C2156 C2137 1.368 . S
C2156 C2150 1.368 . S
C2156 C2155 1.523 . S
C2157 C2141 1.429 . S
C2157 C2153 1.429 . S
C2157 C2158 1.523 . S
C2158 C2142 1.368 . S
C2158 C2154 1.368 . S
C2158 C2157 1.523 . S
H2159 C2134 0.950 . S
H2160 C2136 0.950 . S
H2161 C2137 0.949 . S
H2162 C2139 0.950 . S
H2163 C2141 0.950 . S
C2164 C2165 1.349 . S
C2164 C2166 1.327 . S
C2164 H2189 0.950 . S
C2165 C2164 1.349 . S
C2165 C2181 1.349 . S
C2166 C2164 1.327 . S
C2166 C2185 1.429 . S
C2166 H2190 0.950 . S
C2167 C2184 1.574 1_554 S
C2167 C2186 1.368 . S
C2167 H2191 0.949 . S
H2168 C2172 0.949 . S
C2169 C2170 1.349 . S
C2169 C2171 1.327 . S
C2169 H2192 0.950 . S
C2170 C2169 1.349 . S
C2170 C2182 1.349 . S
C2171 C2169 1.327 . S
C2171 C2187 1.429 . S
C2171 H2193 0.950 . S
C2172 H2168 0.949 . S
C2172 C2180 1.574 1_556 S
C2172 C2188 1.368 . S
H2173 C2181 0.950 . S
H2174 C2179 0.950 . S
H2175 C2180 0.949 . S
H2176 C2182 0.950 . S
H2177 C2183 0.950 . S
H2178 C2184 0.949 . S
C2179 H2174 0.950 . S
C2179 C2181 1.327 . S
C2179 C2185 1.429 . S
C2180 C2172 1.574 1_554 S
C2180 H2175 0.949 . S
C2180 C2186 1.368 . S
C2181 C2165 1.349 . S
C2181 H2173 0.950 . S
C2181 C2179 1.327 . S
C2182 C2170 1.349 . S
C2182 H2176 0.950 . S
C2182 C2183 1.327 . S
C2183 H2177 0.950 . S
C2183 C2182 1.327 . S
C2183 C2187 1.429 . S
C2184 C2167 1.574 1_556 S
C2184 H2178 0.949 . S
C2184 C2188 1.368 . S
C2185 C2166 1.429 . S
C2185 C2179 1.429 . S
C2185 C2186 1.523 . S
C2186 C2167 1.368 . S
C2186 C2180 1.368 . S
C2186 C2185 1.523 . S
C2187 C2171 1.429 . S
C2187 C2183 1.429 . S
C2187 C2188 1.523 . S
C2188 C2172 1.368 . S
C2188 C2184 1.368 . S
C2188 C2187 1.523 . S
H2189 C2164 0.950 . S
H2190 C2166 0.950 . S
H2191 C2167 0.949 . S
H2192 C2169 0.950 . S
H2193 C2171 0.950 . S
C2194 C2195 1.349 . S
C2194 C2196 1.327 . S
C2194 H2219 0.950 . S
C2195 C2194 1.349 . S
C2195 C2211 1.349 . S
C2196 C2194 1.327 . S
C2196 C2215 1.429 . S
C2196 H2220 0.950 . S
C2197 C2214 1.574 . S
C2197 C2216 1.368 . S
C2197 H2221 0.949 . S
H2198 C2202 0.949 . S
C2199 C2200 1.349 . S
C2199 C2201 1.327 . S
C2199 H2222 0.950 . S
C2200 C2199 1.349 . S
C2200 C2212 1.349 . S
C2201 C2199 1.327 . S
C2201 C2217 1.429 . S
C2201 H2223 0.950 . S
C2202 H2198 0.949 . S
C2202 C2210 1.574 . S
C2202 C2218 1.368 . S
H2203 C2211 0.950 . S
H2204 C2209 0.950 . S
H2205 C2210 0.949 . S
H2206 C2212 0.950 . S
H2207 C2213 0.950 . S
H2208 C2214 0.949 . S
C2209 H2204 0.950 . S
C2209 C2211 1.327 . S
C2209 C2215 1.429 . S
C2210 C2202 1.574 . S
C2210 H2205 0.949 . S
C2210 C2216 1.368 . S
C2211 C2195 1.349 . S
C2211 H2203 0.950 . S
C2211 C2209 1.327 . S
C2212 C2200 1.349 . S
C2212 H2206 0.950 . S
C2212 C2213 1.327 . S
C2213 H2207 0.950 . S
C2213 C2212 1.327 . S
C2213 C2217 1.429 . S
C2214 C2197 1.574 . S
C2214 H2208 0.949 . S
C2214 C2218 1.368 . S
C2215 C2196 1.429 . S
C2215 C2209 1.429 . S
C2215 C2216 1.523 . S
C2216 C2197 1.368 . S
C2216 C2210 1.368 . S
C2216 C2215 1.523 . S
C2217 C2201 1.429 . S
C2217 C2213 1.429 . S
C2217 C2218 1.523 . S
C2218 C2202 1.368 . S
C2218 C2214 1.368 . S
C2218 C2217 1.523 . S
H2219 C2194 0.950 . S
H2220 C2196 0.950 . S
H2221 C2197 0.949 . S
H2222 C2199 0.950 . S
H2223 C2201 0.950 . S
C545 C1 1.525 . S
C550 C241 1.535 . S
C575 C35 1.433 . S
C580 C139 1.458 . S
C605 C71 1.379 . S
C610 C171 1.370 . S
C635 C205 1.523 . S
C640 C105 1.522 . S
C665 C275 1.468 . S
C670 C513 1.505 . S
C695 C307 1.501 . S
C700 C411 1.514 . S
C725 C445 1.443 . S
C730 C343 1.465 . S
C755 C377 1.557 . S
C760 C477 1.541 . S
C785 C391 2.535 1_545 S
C790 C3 2.338 . S
C815 C37 1.848 . S
C820 C448 1.998 . S
C845 C96 1.340 . S
C850 C323 1.335 . S
C875 C130 1.803 . S
C880 C527 1.803 . S
C905 C459 1.924 1_565 S
C910 C137 1.779 . S
C935 C176 0.725 . S
C940 C334 0.728 . S
C965 C516 1.195 . S
C970 C207 1.181 . S
C995 C380 1.768 . S
C1000 C239 1.653 . S
C1025 C273 2.390 . S
C1030 C119 2.585 1_565 S
C1055 C312 1.077 . S
C1060 C198 1.058 . S
C1085 C368 0.669 . S
C1090 C62 0.681 . S
C1115 C255 1.632 . S
C1120 C402 1.634 . S
C1145 C409 1.828 . S
C1150 C187 1.969 1_545 S
C1175 C51 1.271 . S
C1180 C470 1.274 . S
C1205 C244 1.200 . S
C1210 C479 1.170 . S
C1235 C511 1.379 . S
C1240 C108 1.490 . S
C1265 C425 2.288 . S
C1270 C173 2.092 . S
C1295 C278 1.083 . S
C1300 C210 1.098 . S
C1325 C493 1.103 . S
C1330 C266 1.106 . S
C1355 C357 1.674 . S
C1360 C164 1.676 . S
C1385 C289 1.830 . S
C1390 C103 1.718 . S
C1415 C504 0.532 . S
C1420 C6 0.495 . S
C1445 C40 0.381 . S
C1450 C346 0.477 . S
C1475 C414 1.531 . S
C1480 C69 1.423 . S
C1505 C443 2.250 . S
C1510 C153 2.431 . S
C1535 C28 1.097 . S
C1540 C482 1.114 . S
C1565 C538 1.386 . S
C1570 C221 1.379 . S
C1595 C436 1.819 . S
C1600 C85 1.817 . S
C1625 C375 1.659 . S
C1630 C17 1.783 . S
C1655 C232 0.501 . S
C1660 C300 0.461 . S
C1685 C74 1.163 . S
C1690 C309 1.147 . S
C1715 C341 1.520 . S
C1720 C142 1.646 . S
C1745 C219 1.601 . S
C1750 C15 1.595 . S
C1775 C260 1.600 . S
C1780 C49 1.604 . S
C1805 C83 1.419 . S
C1810 C158 1.423 . S
C1835 C192 1.830 . S
C1840 C117 1.737 . S
C1865 C294 1.551 . S
C1870 C491 1.560 . S
C1895 C328 1.574 . S
C1900 C532 1.613 . S
C1925 C430 1.794 . S
C1930 C355 1.786 . S
C1955 C457 1.575 . S
C1960 C389 1.549 . S
C1985 C56 1.493 . S
C1990 C185 1.522 . S
C2015 C90 1.612 . S
C2020 C226 1.570 . S
C2045 C253 1.585 . S
C2050 C124 1.616 . S
C2075 C151 1.964 . S
C2080 C22 1.995 . S
C2105 C321 1.660 . S
C2110 C464 1.647 . S
C2135 C498 1.552 . S
C2140 C362 1.638 . S
C2165 C396 1.574 . S
C2170 C525 1.556 . S
C2195 C423 1.783 . S
C2200 C287 1.857 . S
