# Generated by pormake.
# Topology umw, (4)-cn, num edge types: 1
# Building blocks:
#     Node 0, Type 0, BuildingBlock: NAHDIM_clean_sbu_0, # of connection points: 4
#     Node 1, Type 0, BuildingBlock: NAHDIM_clean_sbu_0, # of connection points: 4
#     Node 2, Type 0, BuildingBlock: NAHDIM_clean_sbu_0, # of connection points: 4
#     Node 3, Type 0, BuildingBlock: NAHDIM_clean_sbu_0, # of connection points: 4
#     Node 4, Type 0, BuildingBlock: NAHDIM_clean_sbu_0, # of connection points: 4
#     Node 5, Type 0, BuildingBlock: NAHDIM_clean_sbu_0, # of connection points: 4
#     Node 6, Type 0, BuildingBlock: NAHDIM_clean_sbu_0, # of connection points: 4
#     Node 7, Type 0, BuildingBlock: NAHDIM_clean_sbu_0, # of connection points: 4
#     Edge 8, Type (0, 0), BuildingBlock: XUDNAN_clean_linker_2, # of connection points: 2
#     Edge 9, Type (0, 0), BuildingBlock: XUDNAN_clean_linker_2, # of connection points: 2
#     Edge 10, Type (0, 0), BuildingBlock: XUDNAN_clean_linker_2, # of connection points: 2
#     Edge 11, Type (0, 0), BuildingBlock: XUDNAN_clean_linker_2, # of connection points: 2
#     Edge 12, Type (0, 0), BuildingBlock: XUDNAN_clean_linker_2, # of connection points: 2
#     Edge 13, Type (0, 0), BuildingBlock: XUDNAN_clean_linker_2, # of connection points: 2
#     Edge 14, Type (0, 0), BuildingBlock: XUDNAN_clean_linker_2, # of connection points: 2
#     Edge 15, Type (0, 0), BuildingBlock: XUDNAN_clean_linker_2, # of connection points: 2
#     Edge 16, Type (0, 0), BuildingBlock: XUDNAN_clean_linker_2, # of connection points: 2
#     Edge 17, Type (0, 0), BuildingBlock: XUDNAN_clean_linker_2, # of connection points: 2
#     Edge 18, Type (0, 0), BuildingBlock: XUDNAN_clean_linker_2, # of connection points: 2
#     Edge 19, Type (0, 0), BuildingBlock: XUDNAN_clean_linker_2, # of connection points: 2
#     Edge 20, Type (0, 0), BuildingBlock: XUDNAN_clean_linker_2, # of connection points: 2
#     Edge 21, Type (0, 0), BuildingBlock: XUDNAN_clean_linker_2, # of connection points: 2
#     Edge 22, Type (0, 0), BuildingBlock: XUDNAN_clean_linker_2, # of connection points: 2
#     Edge 23, Type (0, 0), BuildingBlock: XUDNAN_clean_linker_2, # of connection points: 2
# Relax obj value: 0.144
# Max RMSD: 0.106
# Mean RMSD: 0.106
data_MOF--net-umw--node1-NAHDIM_clean_sbu_0--edge1-XUDNAN_clean_linker_2
_symmetry_space_group_name_H-M    P1
_symmetry_Int_Tables_number       1
_symmetry_cell_setting            triclinic
loop_
_symmetry_equiv_pos_as_xyz
'x, y, z'
_cell_length_a     43.617472
_cell_length_b     43.644862
_cell_length_c     23.443893
_cell_angle_alpha  89.973934
_cell_angle_beta   90.004687
_cell_angle_gamma 89.97343
loop_
_atom_site_label
_atom_site_type_symbol
_atom_site_fract_x
_atom_site_fract_y
_atom_site_fract_z
_atom_type_partial_charge
C0 C 0.37344 0.23955 0.30943 0.0
O1 O 0.40344 0.23966 0.30456 0.0
O2 O 0.39967 0.18406 0.18666 0.0
Zn3 Zn 0.38216 0.17907 0.26622 0.0
O4 O 0.41697 0.17166 0.3205 0.0
C5 C 0.35561 0.12059 0.23373 0.0
O6 O 0.36974 0.12594 0.18526 0.0
O7 O 0.35862 0.21603 0.29336 0.0
C8 C 0.43204 0.1469 0.31531 0.0
O9 O 0.42508 0.12797 0.27374 0.0
C10 C 0.42685 0.19396 0.17962 0.0
O11 O 0.44261 0.20301 0.22429 0.0
O12 O 0.35608 0.14098 0.2724 0.0
C13 C 0.7745 0.34982 0.55968 0.0
O14 O 0.76307 0.37762 0.56266 0.0
O15 O 0.81604 0.4094 0.46474 0.0
Zn16 Zn 0.82886 0.38345 0.53231 0.0
O17 O 0.82578 0.40821 0.60426 0.0
C18 C 0.89206 0.38901 0.50089 0.0
O19 O 0.88188 0.41486 0.47933 0.0
O20 O 0.80221 0.34634 0.54413 0.0
C21 C 0.83661 0.43507 0.60951 0.0
O22 O 0.85032 0.44806 0.5659 0.0
C23 C 0.79751 0.43178 0.46943 0.0
O24 O 0.78423 0.43697 0.51878 0.0
O25 O 0.87316 0.3707 0.52414 0.0
C26 C 0.62932 0.75587 0.77999 0.0
O27 O 0.59937 0.75458 0.77466 0.0
O28 O 0.59854 0.81074 0.6596 0.0
Zn29 Zn 0.61721 0.81559 0.73844 0.0
O30 O 0.58353 0.8197 0.79615 0.0
C31 C 0.6352 0.87707 0.71067 0.0
O32 O 0.61606 0.87255 0.66825 0.0
O33 O 0.64324 0.77987 0.76349 0.0
C34 C 0.56292 0.84017 0.79223 0.0
O35 O 0.56286 0.85869 0.74805 0.0
C36 C 0.57162 0.80009 0.6529 0.0
O37 O 0.55678 0.78941 0.69741 0.0
O38 O 0.64099 0.85505 0.74445 0.0
C39 C 0.23277 0.63582 0.07653 0.0
O40 O 0.23492 0.60579 0.07652 0.0
O41 O 0.18552 0.58758 0.98356 0.0
Zn42 Zn 0.17413 0.61692 0.04752 0.0
O43 O 0.17029 0.59251 0.11934 0.0
C44 C 0.11229 0.61353 0.0277 0.0
O45 O 0.1217 0.58492 0.02879 0.0
O46 O 0.20748 0.64801 0.06185 0.0
C47 C 0.17073 0.60424 0.16882 0.0
O48 O 0.17323 0.63409 0.17436 0.0
C49 C 0.19256 0.55988 0.99475 0.0
O50 O 0.1938 0.55091 0.04815 0.0
O51 O 0.13211 0.63469 0.03319 0.0
C52 C 0.37826 0.78766 0.22656 0.0
O53 O 0.40788 0.78469 0.23502 0.0
O54 O 0.42859 0.84428 0.29188 0.0
Zn55 Zn 0.39557 0.85025 0.23225 0.0
O56 O 0.41601 0.85387 0.15591 0.0
C57 C 0.3609 0.90103 0.28737 0.0
O58 O 0.36017 0.8845 0.33419 0.0
O59 O 0.36661 0.81436 0.22674 0.0
C60 C 0.44092 0.84038 0.14349 0.0
O61 O 0.45446 0.8232 0.18203 0.0
C62 C 0.42508 0.83143 0.34011 0.0
O63 O 0.39782 0.82135 0.35481 0.0
O64 O 0.37364 0.89031 0.24294 0.0
C65 C 0.23813 0.38244 0.51368 0.0
O66 O 0.24287 0.41094 0.52938 0.0
O67 O 0.18804 0.41349 0.63094 0.0
Zn68 Zn 0.17915 0.39975 0.54992 0.0
O69 O 0.1795 0.43686 0.49955 0.0
C70 C 0.11496 0.40122 0.54462 0.0
O71 O 0.12176 0.43043 0.54941 0.0
O72 O 0.21155 0.37101 0.52022 0.0
C73 C 0.17463 0.4363 0.44625 0.0
O74 O 0.16961 0.40995 0.42085 0.0
C75 C 0.19567 0.44119 0.64031 0.0
O76 O 0.19898 0.46 0.59705 0.0
O77 O 0.13659 0.38166 0.54521 0.0
C78 C 0.62515 0.20459 0.7181 0.0
O79 O 0.59734 0.21363 0.70462 0.0
O80 O 0.56322 0.15792 0.80816 0.0
Zn81 Zn 0.5942 0.14825 0.74696 0.0
O82 O 0.57152 0.14751 0.67188 0.0
C83 C 0.63271 0.0957 0.78966 0.0
O84 O 0.64609 0.11381 0.82683 0.0
O85 O 0.62889 0.17826 0.74017 0.0
C86 C 0.56291 0.12203 0.65099 0.0
O87 O 0.56828 0.09662 0.67926 0.0
C88 C 0.56772 0.17069 0.85613 0.0
O89 O 0.59556 0.17931 0.87027 0.0
O90 O 0.61185 0.10614 0.75726 0.0
C91 C 0.76508 0.62498 0.00958 0.0
O92 O 0.76092 0.5965 0.0261 0.0
O93 O 0.81258 0.58895 0.11955 0.0
Zn94 Zn 0.82352 0.60683 0.04219 0.0
O95 O 0.82224 0.5728 0.9848 0.0
C96 C 0.88793 0.6048 0.03901 0.0
O97 O 0.8806 0.57564 0.03725 0.0
O98 O 0.79154 0.63682 0.01528 0.0
C99 C 0.82996 0.57724 0.93327 0.0
O100 O 0.83915 0.60461 0.91738 0.0
C101 C 0.81809 0.56072 0.12872 0.0
O102 O 0.83087 0.54431 0.08827 0.0
O103 O 0.86654 0.62454 0.04237 0.0
H104 H 0.45651 0.18312 0.39934 0.0
H105 H 0.4602 0.09139 0.32789 0.0
H106 H 0.49635 0.07589 0.40348 0.0
H107 H 0.53751 0.1865 0.44259 0.0
H108 H 0.52906 0.20758 0.50679 0.0
H109 H 0.50504 0.21204 0.44479 0.0
H110 H 0.45742 0.19734 0.505 0.0
H111 H 0.48128 0.19269 0.56704 0.0
H112 H 0.45724 0.16157 0.54351 0.0
H113 H 0.52811 0.06905 0.4911 0.0
H114 H 0.55608 0.07211 0.5824 0.0
H115 H 0.53337 0.16874 0.59515 0.0
C116 C 0.46521 0.15987 0.39918 0.0
C117 C 0.45552 0.13844 0.3578 0.0
C118 C 0.46739 0.10823 0.35905 0.0
C119 C 0.48791 0.09919 0.40182 0.0
C120 C 0.4966 0.12074 0.44251 0.0
C121 C 0.48593 0.15054 0.44123 0.0
C122 C 0.49822 0.16894 0.49097 0.0
C123 C 0.51868 0.19533 0.47002 0.0
C124 C 0.47197 0.18082 0.52886 0.0
C125 C 0.51686 0.14459 0.52118 0.0
C126 C 0.51563 0.11697 0.49245 0.0
C127 C 0.52962 0.09064 0.51361 0.0
C128 C 0.54531 0.09259 0.56559 0.0
C129 C 0.547 0.1207 0.59558 0.0
C130 C 0.53279 0.14705 0.57273 0.0
H131 H 0.8525 0.49457 0.6328 0.0
H132 H 0.81308 0.41297 0.7095 0.0
H133 H 0.80739 0.44051 0.80072 0.0
H134 H 0.89514 0.5193 0.75577 0.0
H135 H 0.88791 0.55944 0.74356 0.0
H136 H 0.88912 0.53325 0.68425 0.0
H137 H 0.83476 0.5507 0.65343 0.0
H138 H 0.83338 0.57694 0.71265 0.0
H139 H 0.80364 0.54867 0.70389 0.0
H140 H 0.80615 0.47656 0.88337 0.0
H141 H 0.80865 0.51922 0.95209 0.0
H142 H 0.84826 0.57758 0.82128 0.0
C143 C 0.84273 0.48245 0.66878 0.0
C144 C 0.83329 0.45161 0.66407 0.0
C145 C 0.82048 0.43662 0.71211 0.0
C146 C 0.81717 0.45203 0.76411 0.0
C147 C 0.82669 0.48242 0.76729 0.0
C148 C 0.83915 0.49752 0.72095 0.0
C149 C 0.84726 0.5303 0.73565 0.0
C150 C 0.88192 0.53588 0.72945 0.0
C151 C 0.82864 0.55298 0.69924 0.0
C152 C 0.83743 0.53123 0.79752 0.0
C153 C 0.8257 0.50335 0.81492 0.0
C154 C 0.81525 0.49853 0.87029 0.0
C155 C 0.81679 0.52291 0.90898 0.0
C156 C 0.82861 0.55175 0.89201 0.0
C157 C 0.83904 0.55585 0.8355 0.0
H158 H 0.49116 0.81094 0.09961 0.0
H159 H 0.42127 0.8782 0.0577 0.0
H160 H 0.44414 0.8847 0.96217 0.0
H161 H 0.5532 0.84805 0.02845 0.0
H162 H 0.57041 0.81288 0.00397 0.0
H163 H 0.54817 0.81319 0.06865 0.0
H164 H 0.5134 0.7702 0.02821 0.0
H165 H 0.53552 0.7698 0.96335 0.0
H166 H 0.49465 0.77571 0.96044 0.0
H167 H 0.47552 0.88487 0.87208 0.0
H168 H 0.51285 0.87816 0.79374 0.0
H169 H 0.56135 0.81016 0.89461 0.0
C170 C 0.48061 0.82701 0.07038 0.0
C171 C 0.45446 0.84408 0.08615 0.0
C172 C 0.44132 0.86484 0.04654 0.0
C173 C 0.45412 0.8687 0.99217 0.0
C174 C 0.47994 0.85153 0.97804 0.0
C175 C 0.49298 0.83104 0.01592 0.0
C176 C 0.52078 0.81552 0.99037 0.0
C177 C 0.54985 0.82287 0.02491 0.0
C178 C 0.51577 0.78075 0.98529 0.0
C179 C 0.52147 0.83067 0.93236 0.0
C180 C 0.49774 0.85136 0.92601 0.0
C181 C 0.49412 0.86861 0.87642 0.0
C182 C 0.51543 0.86467 0.83222 0.0
C183 C 0.53994 0.84359 0.838 0.0
C184 C 0.54276 0.82632 0.88869 0.0
H185 H 0.16789 0.44397 0.33074 0.0
H186 H 0.17974 0.49435 0.48898 0.0
H187 H 0.1784 0.543 0.43566 0.0
H188 H 0.21539 0.49228 0.24511 0.0
H189 H 0.19148 0.48932 0.18265 0.0
H190 H 0.19255 0.45843 0.23354 0.0
H191 H 0.13348 0.46159 0.24461 0.0
H192 H 0.13226 0.49255 0.19383 0.0
H193 H 0.11598 0.49756 0.26388 0.0
H194 H 0.17647 0.58622 0.36505 0.0
H195 H 0.17531 0.62075 0.28144 0.0
H196 H 0.1649 0.54193 0.17004 0.0
C197 C 0.17011 0.46522 0.35422 0.0
C198 C 0.1739 0.46534 0.41399 0.0
C199 C 0.17685 0.49366 0.44312 0.0
C200 C 0.17605 0.52145 0.41327 0.0
C201 C 0.17229 0.52052 0.35437 0.0
C202 C 0.16943 0.49317 0.32512 0.0
C203 C 0.16626 0.4985 0.26166 0.0
C204 C 0.19302 0.48376 0.22883 0.0
C205 C 0.13514 0.48686 0.23973 0.0
C206 C 0.16798 0.53309 0.25986 0.0
C207 C 0.17131 0.5454 0.31374 0.0
C208 C 0.17379 0.57688 0.3226 0.0
C209 C 0.17308 0.59629 0.27491 0.0
C210 C 0.17002 0.58406 0.21929 0.0
C211 C 0.16723 0.55204 0.212 0.0
H212 H 0.31287 0.2431 0.3414 0.0
H213 H 0.39824 0.29429 0.34221 0.0
H214 H 0.37283 0.33623 0.39452 0.0
H215 H 0.26221 0.30846 0.32301 0.0
H216 H 0.23304 0.29311 0.36936 0.0
H217 H 0.25769 0.26757 0.33012 0.0
H218 H 0.27356 0.24104 0.42454 0.0
H219 H 0.24914 0.26664 0.46411 0.0
H220 H 0.28927 0.26374 0.48174 0.0
H221 H 0.3387 0.37201 0.44853 0.0
H222 H 0.29771 0.39996 0.49887 0.0
H223 H 0.23454 0.32534 0.46419 0.0
C224 C 0.32616 0.26326 0.35205 0.0
C225 C 0.35756 0.26543 0.33756 0.0
C226 C 0.37417 0.29209 0.35277 0.0
C227 C 0.35995 0.31604 0.38254 0.0
C228 C 0.32912 0.31298 0.39685 0.0
C229 C 0.31236 0.28734 0.38198 0.0
C230 C 0.27966 0.2896 0.40347 0.0
C231 C 0.25681 0.2897 0.35351 0.0
C232 C 0.2725 0.26372 0.44599 0.0
C233 C 0.28071 0.32047 0.43292 0.0
C234 C 0.30945 0.33356 0.42849 0.0
C235 C 0.31608 0.36203 0.45221 0.0
C236 C 0.29263 0.3777 0.48082 0.0
C237 C 0.26291 0.36485 0.48561 0.0
C238 C 0.25703 0.33574 0.46151 0.0
H239 H 0.71294 0.34781 0.58309 0.0
H240 H 0.79563 0.29238 0.58552 0.0
H241 H 0.76667 0.2499 0.62941 0.0
H242 H 0.68243 0.32266 0.71615 0.0
H243 H 0.64315 0.32221 0.69224 0.0
H244 H 0.67016 0.34828 0.66028 0.0
H245 H 0.65774 0.3264 0.56015 0.0
H246 H 0.63042 0.30053 0.59172 0.0
H247 H 0.66098 0.28575 0.54787 0.0
H248 H 0.72939 0.21445 0.67721 0.0
H249 H 0.68509 0.18616 0.71586 0.0
H250 H 0.62617 0.26396 0.67913 0.0
C251 C 0.72492 0.32666 0.59247 0.0
C252 C 0.75657 0.32344 0.581 0.0
C253 C 0.77138 0.29535 0.59372 0.0
C254 C 0.75516 0.27114 0.61896 0.0
C255 C 0.72413 0.2753 0.63069 0.0
C256 C 0.70904 0.30217 0.61712 0.0
C257 C 0.67543 0.30051 0.63318 0.0
C258 C 0.66733 0.32486 0.67814 0.0
C259 C 0.65494 0.30346 0.58006 0.0
C260 C 0.67402 0.26853 0.65812 0.0
C261 C 0.70243 0.25452 0.65681 0.0
C262 C 0.70699 0.2251 0.67815 0.0
C263 C 0.68168 0.20928 0.7003 0.0
C264 C 0.65212 0.22281 0.70039 0.0
C265 C 0.64844 0.25297 0.67954 0.0
H266 H 0.76796 0.68067 0.95423 0.0
H267 H 0.70602 0.60598 0.99554 0.0
H268 H 0.66532 0.63069 0.93904 0.0
H269 H 0.71094 0.74126 0.95958 0.0
H270 H 0.72736 0.76207 0.90061 0.0
H271 H 0.7515 0.73881 0.94547 0.0
H272 H 0.7705 0.7092 0.85643 0.0
H273 H 0.74615 0.73214 0.81137 0.0
H274 H 0.74297 0.69097 0.81021 0.0
H275 H 0.63166 0.66256 0.87686 0.0
H276 H 0.60606 0.70131 0.81697 0.0
H277 H 0.6896 0.75546 0.81509 0.0
C278 C 0.74574 0.66968 0.95188 0.0
C279 C 0.74019 0.64138 0.97941 0.0
C280 C 0.71085 0.62765 0.97489 0.0
C281 C 0.68757 0.64146 0.94276 0.0
C282 C 0.69395 0.66902 0.91535 0.0
C283 C 0.72219 0.68314 0.91983 0.0
C284 C 0.72295 0.71271 0.88589 0.0
C285 C 0.72851 0.74035 0.92524 0.0
C286 C 0.74707 0.71115 0.83815 0.0
C287 C 0.69071 0.71295 0.86174 0.0
C288 C 0.67444 0.68747 0.87918 0.0
C289 C 0.64412 0.68265 0.86294 0.0
C290 C 0.62981 0.70478 0.82878 0.0
C291 C 0.6458 0.73141 0.81121 0.0
C292 C 0.6768 0.73526 0.82744 0.0
H293 H 0.23441 0.6982 0.09579 0.0
H294 H 0.28938 0.61541 0.10772 0.0
H295 H 0.33155 0.64508 0.15021 0.0
H296 H 0.29695 0.74919 0.05924 0.0
H297 H 0.28216 0.78068 0.1007 0.0
H298 H 0.25623 0.75296 0.07055 0.0
H299 H 0.23373 0.74261 0.17102 0.0
H300 H 0.25981 0.77008 0.20156 0.0
H301 H 0.25899 0.73133 0.22818 0.0
H302 H 0.3675 0.68302 0.19237 0.0
H303 H 0.39632 0.72781 0.22713 0.0
H304 H 0.31849 0.7864 0.18852 0.0
C305 C 0.2554 0.68637 0.10694 0.0
C306 C 0.25856 0.65445 0.09838 0.0
C307 C 0.28636 0.63982 0.11383 0.0
C308 C 0.31047 0.65645 0.13816 0.0
C309 C 0.30648 0.68773 0.14681 0.0
C310 C 0.27978 0.70265 0.13139 0.0
C311 C 0.28163 0.73654 0.14521 0.0
C312 C 0.2791 0.75599 0.09068 0.0
C313 C 0.25708 0.74567 0.18911 0.0
C314 C 0.31354 0.73825 0.17065 0.0
C315 C 0.32737 0.70977 0.17132 0.0
C316 C 0.35695 0.70547 0.1921 0.0
C317 C 0.37311 0.73107 0.21186 0.0
C318 C 0.35969 0.76062 0.21065 0.0
C319 C 0.32933 0.7641 0.19039 0.0
H320 H 0.36257 0.94133 0.19835 0.0
H321 H 0.33585 0.93388 0.37615 0.0
H322 H 0.32381 0.98928 0.37742 0.0
H323 H 0.40167 0.0088 0.21107 0.0
H324 H 0.3906 0.02419 0.14274 0.0
H325 H 0.39186 0.98344 0.15319 0.0
H326 H 0.33512 0.97913 0.12118 0.0
H327 H 0.33369 0.02002 0.11054 0.0
H328 H 0.30623 0.00167 0.15672 0.0
H329 H 0.32136 0.0465 0.36248 0.0
H330 H 0.33005 0.10024 0.33388 0.0
H331 H 0.35867 0.06968 0.16597 0.0
C332 C 0.35346 0.9511 0.23727 0.0
C333 C 0.35006 0.93321 0.28714 0.0
C334 C 0.33849 0.94708 0.33733 0.0
C335 C 0.3315 0.97851 0.33838 0.0
C336 C 0.33593 0.99563 0.28876 0.0
C337 C 0.34649 0.98231 0.23905 0.0
C338 C 0.35234 0.00601 0.19321 0.0
C339 C 0.38611 0.00558 0.17398 0.0
C340 C 0.33054 0.00143 0.14241 0.0
C341 C 0.34468 0.03498 0.22556 0.0
C342 C 0.33471 0.02854 0.28026 0.0
C343 C 0.32863 0.05177 0.31945 0.0
C344 C 0.33365 0.08226 0.30278 0.0
C345 C 0.34496 0.08923 0.24757 0.0
C346 C 0.34965 0.06521 0.20818 0.0
H347 H 0.93817 0.43019 0.48441 0.0
H348 H 0.92124 0.33474 0.52552 0.0
H349 H 0.97709 0.32635 0.53663 0.0
H350 H 0.00983 0.41946 0.40685 0.0
H351 H 0.02652 0.45391 0.43566 0.0
H352 H 0.98563 0.45134 0.42599 0.0
H353 H 0.97752 0.46455 0.53275 0.0
H354 H 0.01834 0.46699 0.54284 0.0
H355 H 0.99592 0.44147 0.58659 0.0
H356 H 0.03526 0.32926 0.54628 0.0
H357 H 0.08992 0.34372 0.55721 0.0
H358 H 0.06708 0.4377 0.51405 0.0
C359 C 0.94617 0.40736 0.49475 0.0
C360 C 0.9254 0.38304 0.50359 0.0
C361 C 0.93681 0.35367 0.5183 0.0
C362 C 0.96847 0.34869 0.5246 0.0
C363 C 0.9883 0.37336 0.5164 0.0
C364 C 0.97752 0.40212 0.50192 0.0
C365 C 0.00318 0.42532 0.49898 0.0
C366 C 0.00648 0.43826 0.43825 0.0
C367 C 0.99845 0.45109 0.54291 0.0
C368 C 0.03014 0.40524 0.51462 0.0
C369 C 0.02128 0.37526 0.52387 0.0
C370 C 0.04243 0.35268 0.53906 0.0
C371 C 0.07338 0.36108 0.54516 0.0
C372 C 0.08268 0.39184 0.53685 0.0
C373 C 0.06068 0.41403 0.52116 0.0
H374 H 0.61956 0.92996 0.65591 0.0
H375 H 0.67238 0.89542 0.79906 0.0
H376 H 0.68208 0.94856 0.83074 0.0
H377 H 0.66516 0.00067 0.63089 0.0
H378 H 0.63123 0.02242 0.61386 0.0
H379 H 0.63277 0.98205 0.59805 0.0
H380 H 0.58301 0.97377 0.65657 0.0
H381 H 0.58153 0.01396 0.67304 0.0
H382 H 0.58166 0.98614 0.7299 0.0
H383 H 0.68075 0.00568 0.85271 0.0
H384 H 0.66896 0.06108 0.86156 0.0
H385 H 0.61646 0.05662 0.70452 0.0
C386 C 0.6339 0.93349 0.69304 0.0
C387 C 0.64531 0.90852 0.72484 0.0
C388 C 0.66353 0.91422 0.77379 0.0
C389 C 0.66917 0.94433 0.79212 0.0
C390 C 0.65661 0.96843 0.76083 0.0
C391 C 0.63958 0.96327 0.71199 0.0
C392 C 0.62635 0.99269 0.68855 0.0
C393 C 0.63969 -0.00012 0.62933 0.0
C394 C 0.59106 0.99155 0.68697 0.0
C395 C 0.63773 0.01511 0.73278 0.0
C396 C 0.65549 0.00093 0.7738 0.0
C397 C 0.66718 0.01708 0.82038 0.0
C398 C 0.66034 0.04848 0.82516 0.0
C399 C 0.64169 0.06316 0.78393 0.0
C400 C 0.63069 0.04616 0.73695 0.0
H401 H 0.93693 0.56693 0.02619 0.0
H402 H 0.9129 0.66292 0.04456 0.0
H403 H 0.96803 0.67667 0.03957 0.0
H404 H 0.00369 0.56849 0.11194 0.0
H405 H 0.02431 0.54166 0.06786 0.0
H406 H 0.98313 0.54014 0.07119 0.0
H407 H 0.98029 0.54539 0.96109 0.0
H408 H 0.0215 0.54704 0.95744 0.0
H409 H 0.99881 0.57736 0.92668 0.0
H410 H 0.02699 0.67903 0.03523 0.0
H411 H 0.0831 0.66967 0.03333 0.0
H412 H 0.06618 0.5721 0.01671 0.0
C413 C 0.94309 0.59091 0.02904 0.0
C414 C 0.92059 0.61386 0.03584 0.0
C415 C 0.92978 0.64494 0.03935 0.0
C416 C 0.96102 0.65295 0.03646 0.0
C417 C 0.98262 0.6296 0.02981 0.0
C418 C 0.9739 0.59923 0.0261 0.0
C419 C 0.0012 0.57821 0.02017 0.0
C420 C 0.00319 0.55582 0.07081 0.0
C421 C 0.00039 0.561 0.96294 0.0
C422 C 0.02685 0.60138 0.02164 0.0
C423 C 0.01589 0.63095 0.02701 0.0
C424 C 0.03575 0.65596 0.03071 0.0
C425 C 0.06755 0.65044 0.02951 0.0
C426 C 0.07905 0.62017 0.02477 0.0
C427 C 0.05825 0.59554 0.02017 0.0
H428 H 0.56878 0.19435 0.96507 0.0
H429 H 0.50753 0.15626 0.83741 0.0
H430 H 0.4642 0.16128 0.90416 0.0
H431 H 0.53583 0.15689 0.08382 0.0
H432 H 0.54047 0.18871 0.13203 0.0
H433 H 0.56637 0.1841 0.07292 0.0
H434 H 0.55331 0.23893 0.03798 0.0
H435 H 0.5273 0.24369 0.09704 0.0
H436 H 0.51388 0.2492 0.02505 0.0
H437 H 0.42793 0.16774 0.98629 0.0
H438 H 0.4016 0.17463 0.07867 0.0
H439 H 0.48623 0.20875 0.15271 0.0
C440 C 0.54621 0.18735 0.95092 0.0
C441 C 0.54162 0.17495 0.89589 0.0
C442 C 0.51171 0.16586 0.87928 0.0
C443 C 0.48687 0.16869 0.91685 0.0
C444 C 0.49222 0.18077 0.97088 0.0
C445 C 0.52111 0.19002 0.98791 0.0
C446 C 0.52083 0.20113 0.04913 0.0
C447 C 0.54213 0.18153 0.08667 0.0
C448 C 0.52933 0.23527 0.05247 0.0
C449 C 0.48743 0.19604 0.06415 0.0
C450 C 0.47126 0.18454 0.01827 0.0
C451 C 0.44028 0.177 0.02241 0.0
C452 C 0.42552 0.18101 0.07507 0.0
C453 C 0.44177 0.19235 0.12293 0.0
C454 C 0.47305 0.20028 0.1169 0.0
H455 H 0.83474 0.50372 0.16531 0.0
H456 H 0.78378 0.5846 0.21659 0.0
H457 H 0.77052 0.55927 0.30784 0.0
H458 H 0.78416 0.4475 0.22734 0.0
H459 H 0.81502 0.42268 0.2493 0.0
H460 H 0.81951 0.44683 0.18752 0.0
H461 H 0.8685 0.47068 0.23164 0.0
H462 H 0.86426 0.44652 0.29337 0.0
H463 H 0.86665 0.48749 0.30178 0.0
H464 H 0.76343 0.52493 0.394 0.0
H465 H 0.76548 0.48585 0.47012 0.0
H466 H 0.82194 0.42813 0.36184 0.0
C467 C 0.82065 0.51613 0.1955 0.0
C468 C 0.81018 0.54611 0.18374 0.0
C469 C 0.79205 0.56161 0.22473 0.0
C470 C 0.78432 0.54737 0.27653 0.0
C471 C 0.79498 0.51772 0.28662 0.0
C472 C 0.81291 0.50238 0.24733 0.0
C473 C 0.82244 0.47115 0.26909 0.0
C474 C 0.8095 0.44553 0.23104 0.0
C475 C 0.85754 0.46884 0.27429 0.0
C476 C 0.80723 0.4713 0.32704 0.0
C477 C 0.79129 0.49823 0.33624 0.0
C478 C 0.77579 0.50374 0.38717 0.0
C479 C 0.77704 0.48135 0.43011 0.0
C480 C 0.79385 0.45388 0.42198 0.0
C481 C 0.80879 0.44879 0.36938 0.0
H482 H 0.51153 0.78697 0.62878 0.0
H483 H 0.59529 0.82142 0.55194 0.0
H484 H 0.56725 0.83133 0.46222 0.0
H485 H 0.48046 0.75045 0.50051 0.0
H486 H 0.44158 0.76114 0.51741 0.0
H487 H 0.46883 0.75461 0.5739 0.0
H488 H 0.45764 0.80877 0.61407 0.0
H489 H 0.43056 0.81558 0.55753 0.0
H490 H 0.46202 0.8417 0.56833 0.0
H491 H 0.52939 0.84042 0.38296 0.0
H492 H 0.48488 0.84688 0.31914 0.0
H493 H 0.42575 0.80681 0.44817 0.0
C494 C 0.52416 0.79612 0.59284 0.0
C495 C 0.55569 0.80327 0.59737 0.0
C496 C 0.57119 0.81561 0.54946 0.0
C497 C 0.55545 0.82134 0.49832 0.0
C498 C 0.52425 0.81457 0.49573 0.0
C499 C 0.5088 0.80206 0.5416 0.0
C500 C 0.47501 0.79808 0.52859 0.0
C501 C 0.46595 0.76404 0.53019 0.0
C502 C 0.45515 0.81718 0.56956 0.0
C503 C 0.47375 0.81067 0.46845 0.0
C504 C 0.50241 0.81995 0.4502 0.0
C505 C 0.50688 0.83304 0.39666 0.0
C506 C 0.4814 0.8367 0.36077 0.0
C507 C 0.45176 0.82736 0.37856 0.0
C508 C 0.44806 0.81411 0.43316 0.0
H509 H 0.19502 0.57054 0.87928 0.0
H510 H 0.19971 0.49794 0.00571 0.0
H511 H 0.20356 0.45957 0.9289 0.0
H512 H 0.14881 0.53125 0.78027 0.0
H513 H 0.16797 0.54613 0.71803 0.0
H514 H 0.16748 0.56807 0.78299 0.0
H515 H 0.22686 0.57068 0.78194 0.0
H516 H 0.22752 0.54879 0.7168 0.0
H517 H 0.24875 0.53569 0.7781 0.0
H518 H 0.20279 0.42873 0.83812 0.0
H519 H 0.19991 0.40819 0.73985 0.0
H520 H 0.19752 0.50105 0.67353 0.0
C521 C 0.19721 0.54661 0.89085 0.0
C522 C 0.19704 0.53727 0.94852 0.0
C523 C 0.19986 0.5057 0.96183 0.0
C524 C 0.20206 0.48369 0.91851 0.0
C525 C 0.20172 0.49362 0.86209 0.0
C526 C 0.19966 0.52435 0.84817 0.0
C527 C 0.19903 0.52893 0.78422 0.0
C528 C 0.16904 0.5445 0.76529 0.0
C529 C 0.22722 0.54709 0.7641 0.0
C530 C 0.20044 0.49596 0.76442 0.0
C531 C 0.202 0.4759 0.8099 0.0
C532 C 0.20197 0.44422 0.80209 0.0
C533 C 0.20025 0.43276 0.74622 0.0
C534 C 0.19874 0.45299 0.69908 0.0
C535 C 0.19909 0.48496 0.70859 0.0
loop_
_geom_bond_atom_site_label_1
_geom_bond_atom_site_label_2
_geom_bond_distance
_geom_bond_site_symmetry_2
_ccdc_geom_bond_type
C0 O1 1.160 . S
C0 O7 1.185 . S
O1 C0 1.160 . S
O2 Zn3 1.899 . S
O2 C10 1.284 . S
Zn3 O2 1.899 . S
Zn3 O4 2.032 . S
Zn3 O7 2.086 . S
Zn3 O12 1.977 . S
O4 Zn3 2.032 . S
O4 C8 1.278 . S
C5 O6 1.203 . S
C5 O12 1.267 . S
O6 C5 1.203 . S
O7 C0 1.185 . S
O7 Zn3 2.086 . S
C8 O4 1.278 . S
C8 O9 1.211 . S
O9 C8 1.211 . S
C10 O2 1.284 . S
C10 O11 1.273 . S
O11 C10 1.273 . S
O12 Zn3 1.977 . S
O12 C5 1.267 . S
C13 O14 1.160 . S
C13 O20 1.185 . S
O14 C13 1.160 . S
O15 Zn16 1.899 . S
O15 C23 1.284 . S
Zn16 O15 1.899 . S
Zn16 O17 2.032 . S
Zn16 O20 2.086 . S
Zn16 O25 1.977 . S
O17 Zn16 2.032 . S
O17 C21 1.278 . S
C18 O19 1.203 . S
C18 O25 1.267 . S
O19 C18 1.203 . S
O20 C13 1.185 . S
O20 Zn16 2.086 . S
C21 O17 1.278 . S
C21 O22 1.211 . S
O22 C21 1.211 . S
C23 O15 1.284 . S
C23 O24 1.273 . S
O24 C23 1.273 . S
O25 Zn16 1.977 . S
O25 C18 1.267 . S
C26 O27 1.160 . S
C26 O33 1.185 . S
O27 C26 1.160 . S
O28 Zn29 1.899 . S
O28 C36 1.284 . S
Zn29 O28 1.899 . S
Zn29 O30 2.032 . S
Zn29 O33 2.086 . S
Zn29 O38 1.977 . S
O30 Zn29 2.032 . S
O30 C34 1.278 . S
C31 O32 1.203 . S
C31 O38 1.267 . S
O32 C31 1.203 . S
O33 C26 1.185 . S
O33 Zn29 2.086 . S
C34 O30 1.278 . S
C34 O35 1.211 . S
O35 C34 1.211 . S
C36 O28 1.284 . S
C36 O37 1.273 . S
O37 C36 1.273 . S
O38 Zn29 1.977 . S
O38 C31 1.267 . S
C39 O40 1.160 . S
C39 O46 1.185 . S
O40 C39 1.160 . S
O41 Zn42 1.899 1_556 S
O41 C49 1.284 . S
Zn42 O41 1.899 1_554 S
Zn42 O43 2.032 . S
Zn42 O46 2.086 . S
Zn42 O51 1.977 . S
O43 Zn42 2.032 . S
O43 C47 1.278 . S
C44 O45 1.203 1_554 S
C44 O51 1.267 . S
O45 C44 1.203 1_556 S
O46 C39 1.185 . S
O46 Zn42 2.086 . S
C47 O43 1.278 . S
C47 O48 1.211 . S
O48 C47 1.211 . S
C49 O41 1.284 . S
C49 O50 1.273 . S
O50 C49 1.273 . S
O51 Zn42 1.977 . S
O51 C44 1.267 . S
C52 O53 1.160 . S
C52 O59 1.185 . S
O53 C52 1.160 . S
O54 Zn55 1.899 . S
O54 C62 1.284 . S
Zn55 O54 1.899 . S
Zn55 O56 2.032 . S
Zn55 O59 2.086 . S
Zn55 O64 1.977 . S
O56 Zn55 2.032 . S
O56 C60 1.278 . S
C57 O58 1.203 . S
C57 O64 1.267 . S
O58 C57 1.203 . S
O59 C52 1.185 . S
O59 Zn55 2.086 . S
C60 O56 1.278 . S
C60 O61 1.211 . S
O61 C60 1.211 . S
C62 O54 1.284 . S
C62 O63 1.273 . S
O63 C62 1.273 . S
O64 Zn55 1.977 . S
O64 C57 1.267 . S
C65 O66 1.160 . S
C65 O72 1.185 . S
O66 C65 1.160 . S
O67 Zn68 1.899 . S
O67 C75 1.284 . S
Zn68 O67 1.899 . S
Zn68 O69 2.032 . S
Zn68 O72 2.086 . S
Zn68 O77 1.977 . S
O69 Zn68 2.032 . S
O69 C73 1.278 . S
C70 O71 1.203 . S
C70 O77 1.267 . S
O71 C70 1.203 . S
O72 C65 1.185 . S
O72 Zn68 2.086 . S
C73 O69 1.278 . S
C73 O74 1.211 . S
O74 C73 1.211 . S
C75 O67 1.284 . S
C75 O76 1.273 . S
O76 C75 1.273 . S
O77 Zn68 1.977 . S
O77 C70 1.267 . S
C78 O79 1.160 . S
C78 O85 1.185 . S
O79 C78 1.160 . S
O80 Zn81 1.899 . S
O80 C88 1.284 . S
Zn81 O80 1.899 . S
Zn81 O82 2.032 . S
Zn81 O85 2.086 . S
Zn81 O90 1.977 . S
O82 Zn81 2.032 . S
O82 C86 1.278 . S
C83 O84 1.203 . S
C83 O90 1.267 . S
O84 C83 1.203 . S
O85 C78 1.185 . S
O85 Zn81 2.086 . S
C86 O82 1.278 . S
C86 O87 1.211 . S
O87 C86 1.211 . S
C88 O80 1.284 . S
C88 O89 1.273 . S
O89 C88 1.273 . S
O90 Zn81 1.977 . S
O90 C83 1.267 . S
C91 O92 1.160 1_556 S
C91 O98 1.185 . S
O92 C91 1.160 1_554 S
O93 Zn94 1.899 . S
O93 C101 1.284 . S
Zn94 O93 1.899 . S
Zn94 O95 2.032 1_554 S
Zn94 O98 2.086 1_554 S
Zn94 O103 1.977 1_554 S
O95 Zn94 2.032 1_556 S
O95 C99 1.278 . S
C96 O97 1.203 . S
C96 O103 1.267 1_554 S
O97 C96 1.203 . S
O98 C91 1.185 . S
O98 Zn94 2.086 1_556 S
C99 O95 1.278 . S
C99 O100 1.211 . S
O100 C99 1.211 . S
C101 O93 1.284 . S
C101 O102 1.273 . S
O102 C101 1.273 . S
O103 Zn94 1.977 1_556 S
O103 C96 1.267 1_556 S
H104 C116 0.930 . S
H105 C118 0.930 . S
H106 C119 0.930 . S
H107 C123 0.959 . S
H108 C123 0.959 . S
H109 C123 0.961 . S
H110 C124 0.960 . S
H111 C124 0.961 . S
H112 C124 0.959 . S
H113 C127 0.929 . S
H114 C128 0.931 . S
H115 C130 0.930 . S
C116 H104 0.930 . S
C116 C117 1.399 . S
C116 C121 1.399 . S
C117 C116 1.399 . S
C117 C118 1.376 . S
C118 H105 0.930 . S
C118 C117 1.376 . S
C118 C119 1.388 . S
C119 H106 0.930 . S
C119 C118 1.388 . S
C119 C120 1.390 . S
C120 C119 1.390 . S
C120 C121 1.394 . S
C120 C126 1.465 . S
C121 C116 1.399 . S
C121 C120 1.394 . S
C121 C122 1.516 . S
C122 C121 1.516 . S
C122 C123 1.502 . S
C122 C124 1.561 . S
C122 C125 1.526 . S
C123 H107 0.959 . S
C123 H108 0.959 . S
C123 H109 0.961 . S
C123 C122 1.502 . S
C124 H110 0.960 . S
C124 H111 0.961 . S
C124 H112 0.959 . S
C124 C122 1.561 . S
C125 C122 1.526 . S
C125 C126 1.396 . S
C125 C130 1.390 . S
C126 C120 1.465 . S
C126 C125 1.396 . S
C126 C127 1.399 . S
C127 H113 0.929 . S
C127 C126 1.399 . S
C127 C128 1.385 . S
C128 H114 0.931 . S
C128 C127 1.385 . S
C128 C129 1.389 . S
C129 C128 1.389 . S
C129 C130 1.387 . S
C130 H115 0.930 . S
C130 C125 1.390 . S
C130 C129 1.387 . S
H131 C143 0.930 . S
H132 C145 0.930 . S
H133 C146 0.930 . S
H134 C150 0.959 . S
H135 C150 0.959 . S
H136 C150 0.961 . S
H137 C151 0.960 . S
H138 C151 0.961 . S
H139 C151 0.959 . S
H140 C154 0.929 . S
H141 C155 0.931 . S
H142 C157 0.930 . S
C143 H131 0.930 . S
C143 C144 1.399 . S
C143 C148 1.399 . S
C144 C143 1.399 . S
C144 C145 1.376 . S
C145 H132 0.930 . S
C145 C144 1.376 . S
C145 C146 1.388 . S
C146 H133 0.930 . S
C146 C145 1.388 . S
C146 C147 1.390 . S
C147 C146 1.390 . S
C147 C148 1.394 . S
C147 C153 1.465 . S
C148 C143 1.399 . S
C148 C147 1.394 . S
C148 C149 1.516 . S
C149 C148 1.516 . S
C149 C150 1.502 . S
C149 C151 1.561 . S
C149 C152 1.526 . S
C150 H134 0.959 . S
C150 H135 0.959 . S
C150 H136 0.961 . S
C150 C149 1.502 . S
C151 H137 0.960 . S
C151 H138 0.961 . S
C151 H139 0.959 . S
C151 C149 1.561 . S
C152 C149 1.526 . S
C152 C153 1.396 . S
C152 C157 1.390 . S
C153 C147 1.465 . S
C153 C152 1.396 . S
C153 C154 1.399 . S
C154 H140 0.929 . S
C154 C153 1.399 . S
C154 C155 1.385 . S
C155 H141 0.931 . S
C155 C154 1.385 . S
C155 C156 1.389 . S
C156 C155 1.389 . S
C156 C157 1.387 . S
C157 H142 0.930 . S
C157 C152 1.390 . S
C157 C156 1.387 . S
H158 C170 0.930 . S
H159 C172 0.930 . S
H160 C173 0.930 . S
H161 C177 0.959 . S
H162 C177 0.959 . S
H163 C177 0.961 . S
H164 C178 0.960 1_554 S
H165 C178 0.961 . S
H166 C178 0.959 . S
H167 C181 0.929 . S
H168 C182 0.931 . S
H169 C184 0.930 . S
C170 H158 0.930 . S
C170 C171 1.399 . S
C170 C175 1.399 . S
C171 C170 1.399 . S
C171 C172 1.376 . S
C172 H159 0.930 . S
C172 C171 1.376 . S
C172 C173 1.388 . S
C173 H160 0.930 . S
C173 C172 1.388 . S
C173 C174 1.390 . S
C174 C173 1.390 . S
C174 C175 1.394 . S
C174 C180 1.465 1_554 S
C175 C170 1.399 . S
C175 C174 1.394 . S
C175 C176 1.516 . S
C176 C175 1.516 . S
C176 C177 1.502 . S
C176 C178 1.561 1_554 S
C176 C179 1.526 1_554 S
C177 H161 0.959 . S
C177 H162 0.959 . S
C177 H163 0.961 . S
C177 C176 1.502 . S
C178 H164 0.960 1_556 S
C178 H165 0.961 . S
C178 H166 0.959 . S
C178 C176 1.561 1_556 S
C179 C176 1.526 1_556 S
C179 C180 1.396 . S
C179 C184 1.390 . S
C180 C174 1.465 1_556 S
C180 C179 1.396 . S
C180 C181 1.399 . S
C181 H167 0.929 . S
C181 C180 1.399 . S
C181 C182 1.385 . S
C182 H168 0.931 . S
C182 C181 1.385 . S
C182 C183 1.389 . S
C183 C182 1.389 . S
C183 C184 1.387 . S
C184 H169 0.930 . S
C184 C179 1.390 . S
C184 C183 1.387 . S
H185 C197 0.930 . S
H186 C199 0.930 . S
H187 C200 0.930 . S
H188 C204 0.959 . S
H189 C204 0.959 . S
H190 C204 0.961 . S
H191 C205 0.960 . S
H192 C205 0.961 . S
H193 C205 0.959 . S
H194 C208 0.929 . S
H195 C209 0.931 . S
H196 C211 0.930 . S
C197 H185 0.930 . S
C197 C198 1.399 . S
C197 C202 1.399 . S
C198 C197 1.399 . S
C198 C199 1.376 . S
C199 H186 0.930 . S
C199 C198 1.376 . S
C199 C200 1.388 . S
C200 H187 0.930 . S
C200 C199 1.388 . S
C200 C201 1.390 . S
C201 C200 1.390 . S
C201 C202 1.394 . S
C201 C207 1.465 . S
C202 C197 1.399 . S
C202 C201 1.394 . S
C202 C203 1.516 . S
C203 C202 1.516 . S
C203 C204 1.502 . S
C203 C205 1.561 . S
C203 C206 1.526 . S
C204 H188 0.959 . S
C204 H189 0.959 . S
C204 H190 0.961 . S
C204 C203 1.502 . S
C205 H191 0.960 . S
C205 H192 0.961 . S
C205 H193 0.959 . S
C205 C203 1.561 . S
C206 C203 1.526 . S
C206 C207 1.396 . S
C206 C211 1.390 . S
C207 C201 1.465 . S
C207 C206 1.396 . S
C207 C208 1.399 . S
C208 H194 0.929 . S
C208 C207 1.399 . S
C208 C209 1.385 . S
C209 H195 0.931 . S
C209 C208 1.385 . S
C209 C210 1.389 . S
C210 C209 1.389 . S
C210 C211 1.387 . S
C211 H196 0.930 . S
C211 C206 1.390 . S
C211 C210 1.387 . S
H212 C224 0.930 . S
H213 C226 0.930 . S
H214 C227 0.930 . S
H215 C231 0.959 . S
H216 C231 0.959 . S
H217 C231 0.961 . S
H218 C232 0.960 . S
H219 C232 0.961 . S
H220 C232 0.959 . S
H221 C235 0.929 . S
H222 C236 0.931 . S
H223 C238 0.930 . S
C224 H212 0.930 . S
C224 C225 1.399 . S
C224 C229 1.399 . S
C225 C224 1.399 . S
C225 C226 1.376 . S
C226 H213 0.930 . S
C226 C225 1.376 . S
C226 C227 1.388 . S
C227 H214 0.930 . S
C227 C226 1.388 . S
C227 C228 1.390 . S
C228 C227 1.390 . S
C228 C229 1.394 . S
C228 C234 1.465 . S
C229 C224 1.399 . S
C229 C228 1.394 . S
C229 C230 1.516 . S
C230 C229 1.516 . S
C230 C231 1.502 . S
C230 C232 1.561 . S
C230 C233 1.526 . S
C231 H215 0.959 . S
C231 H216 0.959 . S
C231 H217 0.961 . S
C231 C230 1.502 . S
C232 H218 0.960 . S
C232 H219 0.961 . S
C232 H220 0.959 . S
C232 C230 1.561 . S
C233 C230 1.526 . S
C233 C234 1.396 . S
C233 C238 1.390 . S
C234 C228 1.465 . S
C234 C233 1.396 . S
C234 C235 1.399 . S
C235 H221 0.929 . S
C235 C234 1.399 . S
C235 C236 1.385 . S
C236 H222 0.931 . S
C236 C235 1.385 . S
C236 C237 1.389 . S
C237 C236 1.389 . S
C237 C238 1.387 . S
C238 H223 0.930 . S
C238 C233 1.390 . S
C238 C237 1.387 . S
H239 C251 0.930 . S
H240 C253 0.930 . S
H241 C254 0.930 . S
H242 C258 0.959 . S
H243 C258 0.959 . S
H244 C258 0.961 . S
H245 C259 0.960 . S
H246 C259 0.961 . S
H247 C259 0.959 . S
H248 C262 0.929 . S
H249 C263 0.931 . S
H250 C265 0.930 . S
C251 H239 0.930 . S
C251 C252 1.399 . S
C251 C256 1.399 . S
C252 C251 1.399 . S
C252 C253 1.376 . S
C253 H240 0.930 . S
C253 C252 1.376 . S
C253 C254 1.388 . S
C254 H241 0.930 . S
C254 C253 1.388 . S
C254 C255 1.390 . S
C255 C254 1.390 . S
C255 C256 1.394 . S
C255 C261 1.465 . S
C256 C251 1.399 . S
C256 C255 1.394 . S
C256 C257 1.516 . S
C257 C256 1.516 . S
C257 C258 1.502 . S
C257 C259 1.561 . S
C257 C260 1.526 . S
C258 H242 0.959 . S
C258 H243 0.959 . S
C258 H244 0.961 . S
C258 C257 1.502 . S
C259 H245 0.960 . S
C259 H246 0.961 . S
C259 H247 0.959 . S
C259 C257 1.561 . S
C260 C257 1.526 . S
C260 C261 1.396 . S
C260 C265 1.390 . S
C261 C255 1.465 . S
C261 C260 1.396 . S
C261 C262 1.399 . S
C262 H248 0.929 . S
C262 C261 1.399 . S
C262 C263 1.385 . S
C263 H249 0.931 . S
C263 C262 1.385 . S
C263 C264 1.389 . S
C264 C263 1.389 . S
C264 C265 1.387 . S
C265 H250 0.930 . S
C265 C260 1.390 . S
C265 C264 1.387 . S
H266 C278 0.923 1_554 S
H267 C280 0.930 . S
H268 C281 0.930 . S
H269 C285 0.959 . S
H270 C285 0.959 . S
H271 C285 0.961 1_554 S
H272 C286 0.960 . S
H273 C286 0.961 . S
H274 C286 0.959 . S
H275 C289 0.929 . S
H276 C290 0.931 . S
H277 C292 0.930 . S
C278 H266 0.923 1_556 S
C278 C279 1.399 . S
C278 C283 1.399 . S
C279 C278 1.399 . S
C279 C280 1.376 . S
C280 H267 0.930 . S
C280 C279 1.376 . S
C280 C281 1.388 . S
C281 H268 0.930 . S
C281 C280 1.388 . S
C281 C282 1.390 . S
C282 C281 1.390 . S
C282 C283 1.394 . S
C282 C288 1.465 . S
C283 C278 1.399 . S
C283 C282 1.394 . S
C283 C284 1.516 . S
C284 C283 1.516 . S
C284 C285 1.502 . S
C284 C286 1.561 . S
C284 C287 1.526 . S
C285 H269 0.959 . S
C285 H270 0.959 . S
C285 H271 0.961 1_556 S
C285 C284 1.502 . S
C286 H272 0.960 . S
C286 H273 0.961 . S
C286 H274 0.959 . S
C286 C284 1.561 . S
C287 C284 1.526 . S
C287 C288 1.396 . S
C287 C292 1.390 . S
C288 C282 1.465 . S
C288 C287 1.396 . S
C288 C289 1.399 . S
C289 H275 0.929 . S
C289 C288 1.399 . S
C289 C290 1.385 . S
C290 H276 0.931 . S
C290 C289 1.385 . S
C290 C291 1.389 . S
C291 C290 1.389 . S
C291 C292 1.387 . S
C292 H277 0.930 . S
C292 C287 1.390 . S
C292 C291 1.387 . S
H293 C305 0.930 . S
H294 C307 0.930 . S
H295 C308 0.930 . S
H296 C312 0.959 . S
H297 C312 0.959 . S
H298 C312 0.961 . S
H299 C313 0.960 . S
H300 C313 0.961 . S
H301 C313 0.959 . S
H302 C316 0.929 . S
H303 C317 0.931 . S
H304 C319 0.930 . S
C305 H293 0.930 . S
C305 C306 1.399 . S
C305 C310 1.399 . S
C306 C305 1.399 . S
C306 C307 1.376 . S
C307 H294 0.930 . S
C307 C306 1.376 . S
C307 C308 1.388 . S
C308 H295 0.930 . S
C308 C307 1.388 . S
C308 C309 1.390 . S
C309 C308 1.390 . S
C309 C310 1.394 . S
C309 C315 1.465 . S
C310 C305 1.399 . S
C310 C309 1.394 . S
C310 C311 1.516 . S
C311 C310 1.516 . S
C311 C312 1.502 . S
C311 C313 1.561 . S
C311 C314 1.526 . S
C312 H296 0.959 . S
C312 H297 0.959 . S
C312 H298 0.961 . S
C312 C311 1.502 . S
C313 H299 0.960 . S
C313 H300 0.961 . S
C313 H301 0.959 . S
C313 C311 1.561 . S
C314 C311 1.526 . S
C314 C315 1.396 . S
C314 C319 1.390 . S
C315 C309 1.465 . S
C315 C314 1.396 . S
C315 C316 1.399 . S
C316 H302 0.929 . S
C316 C315 1.399 . S
C316 C317 1.385 . S
C317 H303 0.931 . S
C317 C316 1.385 . S
C317 C318 1.389 . S
C318 C317 1.389 . S
C318 C319 1.387 . S
C319 H304 0.930 . S
C319 C314 1.390 . S
C319 C318 1.387 . S
H320 C332 0.930 . S
H321 C334 0.930 . S
H322 C335 0.930 . S
H323 C339 0.959 . S
H324 C339 0.959 . S
H325 C339 0.961 1_565 S
H326 C340 0.948 1_565 S
H327 C340 0.972 . S
H328 C340 0.960 . S
H329 C343 0.929 . S
H330 C344 0.931 . S
H331 C346 0.930 . S
C332 H320 0.930 . S
C332 C333 1.399 . S
C332 C337 1.399 . S
C333 C332 1.399 . S
C333 C334 1.376 . S
C334 H321 0.930 . S
C334 C333 1.376 . S
C334 C335 1.388 . S
C335 H322 0.930 . S
C335 C334 1.388 . S
C335 C336 1.390 . S
C336 C335 1.390 . S
C336 C337 1.394 . S
C336 C342 1.465 1_565 S
C337 C332 1.399 . S
C337 C336 1.394 . S
C337 C338 1.508 1_565 S
C338 C337 1.508 1_545 S
C338 C339 1.502 . S
C338 C340 1.561 . S
C338 C341 1.534 . S
C339 H323 0.959 . S
C339 H324 0.959 . S
C339 H325 0.961 1_545 S
C339 C338 1.502 . S
C340 H326 0.948 1_545 S
C340 H327 0.972 . S
C340 H328 0.960 . S
C340 C338 1.561 . S
C341 C338 1.534 . S
C341 C342 1.396 . S
C341 C346 1.390 . S
C342 C336 1.465 1_545 S
C342 C341 1.396 . S
C342 C343 1.399 . S
C343 H329 0.929 . S
C343 C342 1.399 . S
C343 C344 1.385 . S
C344 H330 0.931 . S
C344 C343 1.385 . S
C344 C345 1.389 . S
C345 C344 1.389 . S
C345 C346 1.387 . S
C346 H331 0.930 . S
C346 C341 1.390 . S
C346 C345 1.387 . S
H347 C359 0.930 . S
H348 C361 0.930 . S
H349 C362 0.930 . S
H350 C366 0.961 . S
H351 C366 0.976 . S
H352 C366 0.943 1_655 S
H353 C367 0.946 1_655 S
H354 C367 0.974 . S
H355 C367 0.960 . S
H356 C370 0.929 . S
H357 C371 0.931 . S
H358 C373 0.930 . S
C359 H347 0.930 . S
C359 C360 1.399 . S
C359 C364 1.399 . S
C360 C359 1.399 . S
C360 C361 1.376 . S
C361 H348 0.930 . S
C361 C360 1.376 . S
C361 C362 1.388 . S
C362 H349 0.930 . S
C362 C361 1.388 . S
C362 C363 1.390 . S
C363 C362 1.390 . S
C363 C364 1.394 . S
C363 C369 1.465 1_655 S
C364 C359 1.399 . S
C364 C363 1.394 . S
C364 C365 1.514 1_655 S
C365 C364 1.514 1_455 S
C365 C366 1.502 . S
C365 C367 1.561 . S
C365 C368 1.528 . S
C366 H350 0.961 . S
C366 H351 0.976 . S
C366 H352 0.943 1_455 S
C366 C365 1.502 . S
C367 H353 0.946 1_455 S
C367 H354 0.974 . S
C367 H355 0.960 . S
C367 C365 1.561 . S
C368 C365 1.528 . S
C368 C369 1.396 . S
C368 C373 1.390 . S
C369 C363 1.465 1_455 S
C369 C368 1.396 . S
C369 C370 1.399 . S
C370 H356 0.929 . S
C370 C369 1.399 . S
C370 C371 1.385 . S
C371 H357 0.931 . S
C371 C370 1.385 . S
C371 C372 1.389 . S
C372 C371 1.389 . S
C372 C373 1.387 . S
C373 H358 0.930 . S
C373 C368 1.390 . S
C373 C372 1.387 . S
H374 C386 0.930 . S
H375 C388 0.930 . S
H376 C389 0.930 . S
H377 C393 0.961 . S
H378 C393 0.968 . S
H379 C393 0.951 1_565 S
H380 C394 0.966 . S
H381 C394 0.955 1_545 S
H382 C394 0.958 1_545 S
H383 C397 0.929 . S
H384 C398 0.931 . S
H385 C400 0.930 . S
C386 H374 0.930 . S
C386 C387 1.399 . S
C386 C391 1.399 . S
C387 C386 1.399 . S
C387 C388 1.376 . S
C388 H375 0.930 . S
C388 C387 1.376 . S
C388 C389 1.388 . S
C389 H376 0.930 . S
C389 C388 1.388 . S
C389 C390 1.390 . S
C390 C389 1.390 . S
C390 C391 1.394 . S
C390 C396 1.465 1_565 S
C391 C386 1.399 . S
C391 C390 1.394 . S
C391 C392 1.518 . S
C392 C391 1.518 . S
C392 C393 1.502 1_565 S
C392 C394 1.561 . S
C392 C395 1.524 1_565 S
C393 H377 0.961 . S
C393 H378 0.968 . S
C393 H379 0.951 1_545 S
C393 C392 1.502 1_545 S
C394 H380 0.966 . S
C394 H381 0.955 1_565 S
C394 H382 0.958 1_565 S
C394 C392 1.561 . S
C395 C392 1.524 1_545 S
C395 C396 1.396 . S
C395 C400 1.390 . S
C396 C390 1.465 1_545 S
C396 C395 1.396 . S
C396 C397 1.399 . S
C397 H383 0.929 . S
C397 C396 1.399 . S
C397 C398 1.385 . S
C398 H384 0.931 . S
C398 C397 1.385 . S
C398 C399 1.389 . S
C399 C398 1.389 . S
C399 C400 1.387 . S
C400 H385 0.930 . S
C400 C395 1.390 . S
C400 C399 1.387 . S
H401 C413 0.930 . S
H402 C415 0.930 . S
H403 C416 0.930 . S
H404 C420 0.960 . S
H405 C420 0.967 . S
H406 C420 0.953 1_655 S
H407 C421 0.958 1_655 S
H408 C421 0.962 . S
H409 C421 0.959 1_556 S
H410 C424 0.929 . S
H411 C425 0.931 . S
H412 C427 0.930 . S
C413 H401 0.930 . S
C413 C414 1.399 . S
C413 C418 1.399 . S
C414 C413 1.399 . S
C414 C415 1.376 1_554 S
C415 H402 0.930 . S
C415 C414 1.376 1_556 S
C415 C416 1.388 . S
C416 H403 0.930 . S
C416 C415 1.388 . S
C416 C417 1.390 . S
C417 C416 1.390 . S
C417 C418 1.394 1_556 S
C417 C423 1.465 1_655 S
C418 C413 1.399 . S
C418 C417 1.394 1_554 S
C418 C419 1.514 . S
C419 C418 1.514 . S
C419 C420 1.502 1_655 S
C419 C421 1.561 1_655 S
C419 C422 1.528 1_655 S
C420 H404 0.960 . S
C420 H405 0.967 . S
C420 H406 0.953 1_455 S
C420 C419 1.502 1_455 S
C421 H407 0.958 1_455 S
C421 H408 0.962 . S
C421 H409 0.959 1_554 S
C421 C419 1.561 1_455 S
C422 C419 1.528 1_455 S
C422 C423 1.396 1_554 S
C422 C427 1.390 . S
C423 C417 1.465 1_455 S
C423 C422 1.396 1_556 S
C423 C424 1.399 . S
C424 H410 0.929 . S
C424 C423 1.399 . S
C424 C425 1.385 . S
C425 H411 0.931 . S
C425 C424 1.385 . S
C425 C426 1.389 1_556 S
C426 C425 1.389 1_554 S
C426 C427 1.387 . S
C427 H412 0.930 . S
C427 C422 1.390 . S
C427 C426 1.387 . S
H428 C440 0.930 . S
H429 C442 0.930 . S
H430 C443 0.930 . S
H431 C447 0.959 . S
H432 C447 0.959 . S
H433 C447 0.961 . S
H434 C448 0.960 1_556 S
H435 C448 0.961 . S
H436 C448 0.959 1_556 S
H437 C451 0.929 . S
H438 C452 0.931 . S
H439 C454 0.930 . S
C440 H428 0.930 . S
C440 C441 1.399 . S
C440 C445 1.399 . S
C441 C440 1.399 . S
C441 C442 1.376 . S
C442 H429 0.930 . S
C442 C441 1.376 . S
C442 C443 1.388 . S
C443 H430 0.930 . S
C443 C442 1.388 . S
C443 C444 1.390 . S
C444 C443 1.390 . S
C444 C445 1.394 . S
C444 C450 1.465 1_556 S
C445 C440 1.399 . S
C445 C444 1.394 . S
C445 C446 1.516 1_556 S
C446 C445 1.516 1_554 S
C446 C447 1.502 . S
C446 C448 1.561 . S
C446 C449 1.526 . S
C447 H431 0.959 . S
C447 H432 0.959 . S
C447 H433 0.961 . S
C447 C446 1.502 . S
C448 H434 0.960 1_554 S
C448 H435 0.961 . S
C448 H436 0.959 1_554 S
C448 C446 1.561 . S
C449 C446 1.526 . S
C449 C450 1.396 . S
C449 C454 1.390 . S
C450 C444 1.465 1_554 S
C450 C449 1.396 . S
C450 C451 1.399 . S
C451 H437 0.929 . S
C451 C450 1.399 . S
C451 C452 1.385 . S
C452 H438 0.931 . S
C452 C451 1.385 . S
C452 C453 1.389 . S
C453 C452 1.389 . S
C453 C454 1.387 . S
C454 H439 0.930 . S
C454 C449 1.390 . S
C454 C453 1.387 . S
H455 C467 0.930 . S
H456 C469 0.930 . S
H457 C470 0.930 . S
H458 C474 0.959 . S
H459 C474 0.959 . S
H460 C474 0.961 . S
H461 C475 0.960 . S
H462 C475 0.961 . S
H463 C475 0.959 . S
H464 C478 0.929 . S
H465 C479 0.931 . S
H466 C481 0.930 . S
C467 H455 0.930 . S
C467 C468 1.399 . S
C467 C472 1.399 . S
C468 C467 1.399 . S
C468 C469 1.376 . S
C469 H456 0.930 . S
C469 C468 1.376 . S
C469 C470 1.388 . S
C470 H457 0.930 . S
C470 C469 1.388 . S
C470 C471 1.390 . S
C471 C470 1.390 . S
C471 C472 1.394 . S
C471 C477 1.465 . S
C472 C467 1.399 . S
C472 C471 1.394 . S
C472 C473 1.516 . S
C473 C472 1.516 . S
C473 C474 1.502 . S
C473 C475 1.561 . S
C473 C476 1.526 . S
C474 H458 0.959 . S
C474 H459 0.959 . S
C474 H460 0.961 . S
C474 C473 1.502 . S
C475 H461 0.960 . S
C475 H462 0.961 . S
C475 H463 0.959 . S
C475 C473 1.561 . S
C476 C473 1.526 . S
C476 C477 1.396 . S
C476 C481 1.390 . S
C477 C471 1.465 . S
C477 C476 1.396 . S
C477 C478 1.399 . S
C478 H464 0.929 . S
C478 C477 1.399 . S
C478 C479 1.385 . S
C479 H465 0.931 . S
C479 C478 1.385 . S
C479 C480 1.389 . S
C480 C479 1.389 . S
C480 C481 1.387 . S
C481 H466 0.930 . S
C481 C476 1.390 . S
C481 C480 1.387 . S
H482 C494 0.930 . S
H483 C496 0.930 . S
H484 C497 0.930 . S
H485 C501 0.959 . S
H486 C501 0.959 . S
H487 C501 0.961 . S
H488 C502 0.960 . S
H489 C502 0.961 . S
H490 C502 0.959 . S
H491 C505 0.929 . S
H492 C506 0.931 . S
H493 C508 0.930 . S
C494 H482 0.930 . S
C494 C495 1.399 . S
C494 C499 1.399 . S
C495 C494 1.399 . S
C495 C496 1.376 . S
C496 H483 0.930 . S
C496 C495 1.376 . S
C496 C497 1.388 . S
C497 H484 0.930 . S
C497 C496 1.388 . S
C497 C498 1.390 . S
C498 C497 1.390 . S
C498 C499 1.394 . S
C498 C504 1.465 . S
C499 C494 1.399 . S
C499 C498 1.394 . S
C499 C500 1.516 . S
C500 C499 1.516 . S
C500 C501 1.502 . S
C500 C502 1.561 . S
C500 C503 1.526 . S
C501 H485 0.959 . S
C501 H486 0.959 . S
C501 H487 0.961 . S
C501 C500 1.502 . S
C502 H488 0.960 . S
C502 H489 0.961 . S
C502 H490 0.959 . S
C502 C500 1.561 . S
C503 C500 1.526 . S
C503 C504 1.396 . S
C503 C508 1.390 . S
C504 C498 1.465 . S
C504 C503 1.396 . S
C504 C505 1.399 . S
C505 H491 0.929 . S
C505 C504 1.399 . S
C505 C506 1.385 . S
C506 H492 0.931 . S
C506 C505 1.385 . S
C506 C507 1.389 . S
C507 C506 1.389 . S
C507 C508 1.387 . S
C508 H493 0.930 . S
C508 C503 1.390 . S
C508 C507 1.387 . S
H509 C521 0.930 . S
H510 C523 0.930 . S
H511 C524 0.930 . S
H512 C528 0.959 . S
H513 C528 0.959 . S
H514 C528 0.961 . S
H515 C529 0.960 . S
H516 C529 0.961 . S
H517 C529 0.959 . S
H518 C532 0.929 . S
H519 C533 0.931 . S
H520 C535 0.930 . S
C521 H509 0.930 . S
C521 C522 1.399 . S
C521 C526 1.399 . S
C522 C521 1.399 . S
C522 C523 1.376 . S
C523 H510 0.930 . S
C523 C522 1.376 . S
C523 C524 1.388 . S
C524 H511 0.930 . S
C524 C523 1.388 . S
C524 C525 1.390 . S
C525 C524 1.390 . S
C525 C526 1.394 . S
C525 C531 1.465 . S
C526 C521 1.399 . S
C526 C525 1.394 . S
C526 C527 1.516 . S
C527 C526 1.516 . S
C527 C528 1.502 . S
C527 C529 1.561 . S
C527 C530 1.526 . S
C528 H512 0.959 . S
C528 H513 0.959 . S
C528 H514 0.961 . S
C528 C527 1.502 . S
C529 H515 0.960 . S
C529 H516 0.961 . S
C529 H517 0.959 . S
C529 C527 1.561 . S
C530 C527 1.526 . S
C530 C531 1.396 . S
C530 C535 1.390 . S
C531 C525 1.465 . S
C531 C530 1.396 . S
C531 C532 1.399 . S
C532 H518 0.929 . S
C532 C531 1.399 . S
C532 C533 1.385 . S
C533 H519 0.931 . S
C533 C532 1.385 . S
C533 C534 1.389 . S
C534 C533 1.389 . S
C534 C535 1.387 . S
C535 H520 0.930 . S
C535 C530 1.390 . S
C535 C534 1.387 . S
C117 C8 0.972 . S
C129 C86 0.968 . S
C144 C21 1.048 . S
C156 C99 1.041 . S
C171 C60 0.972 . S
C183 C34 0.967 . S
C198 C73 0.961 . S
C210 C47 0.965 . S
C225 C0 1.286 . S
C237 C65 1.289 . S
C252 C13 1.296 . S
C264 C78 1.300 . S
C279 C91 1.296 . S
C291 C26 1.293 . S
C306 C39 1.286 . S
C318 C52 1.289 . S
C333 C57 1.314 . S
C345 C5 1.325 . S
C360 C18 1.372 . S
C372 C70 1.369 . S
C387 C31 1.303 . S
C399 C83 1.296 . S
C414 C96 1.356 . S
C426 C44 1.347 . S
C441 C88 1.462 . S
C453 C10 1.496 . S
C468 C101 1.517 . S
C480 C23 1.461 . S
C495 C36 1.459 . S
C507 C62 1.506 . S
C522 C49 1.472 . S
C534 C75 1.524 . S
