# Generated by pormake.
# Topology yfc, (5)-cn, num edge types: 1
# Building blocks:
#     Node 0, Type 0, BuildingBlock: XOMCOT_clean_sbu_1, # of connection points: 5
#     Node 1, Type 0, BuildingBlock: XOMCOT_clean_sbu_1, # of connection points: 5
#     Node 2, Type 0, BuildingBlock: XOMCOT_clean_sbu_1, # of connection points: 5
#     Node 3, Type 0, BuildingBlock: XOMCOT_clean_sbu_1, # of connection points: 5
#     Node 4, Type 0, BuildingBlock: XOMCOT_clean_sbu_1, # of connection points: 5
#     Node 5, Type 0, BuildingBlock: XOMCOT_clean_sbu_1, # of connection points: 5
#     Node 6, Type 0, BuildingBlock: XOMCOT_clean_sbu_1, # of connection points: 5
#     Node 7, Type 0, BuildingBlock: XOMCOT_clean_sbu_1, # of connection points: 5
#     Node 8, Type 0, BuildingBlock: XOMCOT_clean_sbu_1, # of connection points: 5
#     Node 9, Type 0, BuildingBlock: XOMCOT_clean_sbu_1, # of connection points: 5
#     Node 10, Type 0, BuildingBlock: XOMCOT_clean_sbu_1, # of connection points: 5
#     Node 11, Type 0, BuildingBlock: XOMCOT_clean_sbu_1, # of connection points: 5
#     Node 12, Type 0, BuildingBlock: XOMCOT_clean_sbu_1, # of connection points: 5
#     Node 13, Type 0, BuildingBlock: XOMCOT_clean_sbu_1, # of connection points: 5
#     Node 14, Type 0, BuildingBlock: XOMCOT_clean_sbu_1, # of connection points: 5
#     Node 15, Type 0, BuildingBlock: XOMCOT_clean_sbu_1, # of connection points: 5
#     Edge 16, Type (0, 0), BuildingBlock: CIFDUS_clean_linker_0, # of connection points: 2
#     Edge 17, Type (0, 0), BuildingBlock: CIFDUS_clean_linker_0, # of connection points: 2
#     Edge 18, Type (0, 0), BuildingBlock: CIFDUS_clean_linker_0, # of connection points: 2
#     Edge 19, Type (0, 0), BuildingBlock: CIFDUS_clean_linker_0, # of connection points: 2
#     Edge 20, Type (0, 0), BuildingBlock: CIFDUS_clean_linker_0, # of connection points: 2
#     Edge 21, Type (0, 0), BuildingBlock: CIFDUS_clean_linker_0, # of connection points: 2
#     Edge 22, Type (0, 0), BuildingBlock: CIFDUS_clean_linker_0, # of connection points: 2
#     Edge 23, Type (0, 0), BuildingBlock: CIFDUS_clean_linker_0, # of connection points: 2
#     Edge 24, Type (0, 0), BuildingBlock: CIFDUS_clean_linker_0, # of connection points: 2
#     Edge 25, Type (0, 0), BuildingBlock: CIFDUS_clean_linker_0, # of connection points: 2
#     Edge 26, Type (0, 0), BuildingBlock: CIFDUS_clean_linker_0, # of connection points: 2
#     Edge 27, Type (0, 0), BuildingBlock: CIFDUS_clean_linker_0, # of connection points: 2
#     Edge 28, Type (0, 0), BuildingBlock: CIFDUS_clean_linker_0, # of connection points: 2
#     Edge 29, Type (0, 0), BuildingBlock: CIFDUS_clean_linker_0, # of connection points: 2
#     Edge 30, Type (0, 0), BuildingBlock: CIFDUS_clean_linker_0, # of connection points: 2
#     Edge 31, Type (0, 0), BuildingBlock: CIFDUS_clean_linker_0, # of connection points: 2
#     Edge 32, Type (0, 0), BuildingBlock: CIFDUS_clean_linker_0, # of connection points: 2
#     Edge 33, Type (0, 0), BuildingBlock: CIFDUS_clean_linker_0, # of connection points: 2
#     Edge 34, Type (0, 0), BuildingBlock: CIFDUS_clean_linker_0, # of connection points: 2
#     Edge 35, Type (0, 0), BuildingBlock: CIFDUS_clean_linker_0, # of connection points: 2
#     Edge 36, Type (0, 0), BuildingBlock: CIFDUS_clean_linker_0, # of connection points: 2
#     Edge 37, Type (0, 0), BuildingBlock: CIFDUS_clean_linker_0, # of connection points: 2
#     Edge 38, Type (0, 0), BuildingBlock: CIFDUS_clean_linker_0, # of connection points: 2
#     Edge 39, Type (0, 0), BuildingBlock: CIFDUS_clean_linker_0, # of connection points: 2
#     Edge 40, Type (0, 0), BuildingBlock: CIFDUS_clean_linker_0, # of connection points: 2
#     Edge 41, Type (0, 0), BuildingBlock: CIFDUS_clean_linker_0, # of connection points: 2
#     Edge 42, Type (0, 0), BuildingBlock: CIFDUS_clean_linker_0, # of connection points: 2
#     Edge 43, Type (0, 0), BuildingBlock: CIFDUS_clean_linker_0, # of connection points: 2
#     Edge 44, Type (0, 0), BuildingBlock: CIFDUS_clean_linker_0, # of connection points: 2
#     Edge 45, Type (0, 0), BuildingBlock: CIFDUS_clean_linker_0, # of connection points: 2
#     Edge 46, Type (0, 0), BuildingBlock: CIFDUS_clean_linker_0, # of connection points: 2
#     Edge 47, Type (0, 0), BuildingBlock: CIFDUS_clean_linker_0, # of connection points: 2
#     Edge 48, Type (0, 0), BuildingBlock: CIFDUS_clean_linker_0, # of connection points: 2
#     Edge 49, Type (0, 0), BuildingBlock: CIFDUS_clean_linker_0, # of connection points: 2
#     Edge 50, Type (0, 0), BuildingBlock: CIFDUS_clean_linker_0, # of connection points: 2
#     Edge 51, Type (0, 0), BuildingBlock: CIFDUS_clean_linker_0, # of connection points: 2
#     Edge 52, Type (0, 0), BuildingBlock: CIFDUS_clean_linker_0, # of connection points: 2
#     Edge 53, Type (0, 0), BuildingBlock: CIFDUS_clean_linker_0, # of connection points: 2
#     Edge 54, Type (0, 0), BuildingBlock: CIFDUS_clean_linker_0, # of connection points: 2
#     Edge 55, Type (0, 0), BuildingBlock: CIFDUS_clean_linker_0, # of connection points: 2
# Relax obj value: 0.649
# Max RMSD: 0.269
# Mean RMSD: 0.269
data_MOF--net-yfc--node1-XOMCOT_clean_sbu_1--edge1-CIFDUS_clean_linker_0
_symmetry_space_group_name_H-M    P1
_symmetry_Int_Tables_number       1
_symmetry_cell_setting            triclinic
loop_
_symmetry_equiv_pos_as_xyz
'x, y, z'
_cell_length_a     36.333058
_cell_length_b     36.405024
_cell_length_c     41.842049
_cell_angle_alpha  90.12638
_cell_angle_beta   90.100182
_cell_angle_gamma 90.188077
loop_
_atom_site_label
_atom_site_type_symbol
_atom_site_fract_x
_atom_site_fract_y
_atom_site_fract_z
_atom_type_partial_charge
C0 C 0.72849 0.9639 0.1421 0.0
C1 C 0.70967 0.9339 0.15365 0.0
N2 N 0.68526 0.94542 0.17574 0.0
N3 N 0.71613 0.9945 0.15662 0.0
C4 C 0.68911 0.9824 0.17641 0.0
H5 H 0.75154 0.96308 0.12583 0.0
Co6 Co 0.74094 0.03988 0.15517 0.0
C7 C 0.69123 0.091 0.18787 0.0
O8 O 0.71909 0.10444 0.20422 0.0
N9 N 0.7672 0.08626 0.15298 0.0
C10 C 0.81395 0.12616 0.15198 0.0
C11 C 0.80412 0.08996 0.15515 0.0
C12 C 0.75561 0.12117 0.14666 0.0
N13 N 0.78342 0.14627 0.14715 0.0
O14 O 0.72803 0.04547 0.11136 0.0
H15 H 0.82342 0.0678 0.15785 0.0
H16 H 0.72718 0.12815 0.14218 0.0
O17 O 0.69588 0.06477 0.16805 0.0
C18 C 0.75574 0.03691 0.09429 0.0
O19 O 0.78591 0.02596 0.10875 0.0
N20 N 0.75677 0.03158 0.19747 0.0
C21 C 0.79218 0.02465 0.25613 0.0
C22 C 0.75365 0.02781 0.25457 0.0
C23 C 0.7365 0.03178 0.22495 0.0
C24 C 0.79223 0.01977 0.19852 0.0
C25 C 0.81099 0.01742 0.2275 0.0
H26 H 0.70728 0.03627 0.22461 0.0
H27 H 0.80666 0.014 0.17654 0.0
H28 H 0.67436 0.99993 0.19278 0.0
H29 H 0.71508 0.90555 0.14747 0.0
H30 H 0.84185 0.13658 0.15266 0.0
H31 H 0.73713 0.03022 0.27596 0.0
H32 H 0.8404 0.01302 0.22685 0.0
C33 C 0.5491 0.71428 0.64554 0.0
C34 C 0.5757 0.69443 0.66136 0.0
N35 N 0.55899 0.66832 0.679 0.0
N36 N 0.51564 0.70091 0.6531 0.0
C37 C 0.5226 0.67253 0.67319 0.0
H38 H 0.55373 0.7384 0.63104 0.0
Co39 Co 0.4714 0.72521 0.64413 0.0
C40 C 0.41307 0.67646 0.6678 0.0
O41 O 0.39656 0.70483 0.68081 0.0
N42 N 0.42619 0.75058 0.63442 0.0
C43 C 0.38121 0.79208 0.63164 0.0
C44 C 0.41713 0.78589 0.64049 0.0
C45 C 0.39556 0.73675 0.61992 0.0
N46 N 0.36723 0.76093 0.61911 0.0
O47 O 0.47429 0.711 0.60056 0.0
H48 H 0.43486 0.80626 0.65118 0.0
H49 H 0.39364 0.70879 0.61128 0.0
O50 O 0.44392 0.6803 0.65367 0.0
C51 C 0.4845 0.73803 0.58344 0.0
O52 O 0.49287 0.76919 0.59768 0.0
N53 N 0.47113 0.74201 0.68661 0.0
C54 C 0.46825 0.77885 0.74491 0.0
C55 C 0.46268 0.74063 0.74337 0.0
C56 C 0.46437 0.72264 0.7139 0.0
C57 C 0.4835 0.77723 0.68873 0.0
C58 C 0.4812 0.79663 0.71736 0.0
H59 H 0.45936 0.6935 0.71322 0.0
H60 H 0.49303 0.79109 0.66743 0.0
H61 H 0.5014 0.65696 0.68524 0.0
H62 H 0.60501 0.69982 0.66092 0.0
H63 H 0.36612 0.81723 0.63572 0.0
H64 H 0.45514 0.72502 0.76436 0.0
H65 H 0.48694 0.82581 0.71703 0.0
C66 C 0.79505 0.54428 0.14042 0.0
C67 C 0.81416 0.57299 0.15422 0.0
N68 N 0.83913 0.55918 0.17481 0.0
N69 N 0.80773 0.51233 0.15216 0.0
C70 C 0.83515 0.5223 0.17256 0.0
H71 H 0.77159 0.54665 0.12463 0.0
Co72 Co 0.78297 0.46722 0.14778 0.0
C73 C 0.83215 0.41376 0.17809 0.0
O74 O 0.80407 0.39859 0.19282 0.0
N75 N 0.75698 0.42099 0.14284 0.0
C76 C 0.71179 0.37921 0.14122 0.0
C77 C 0.72034 0.41561 0.14611 0.0
C78 C 0.7696 0.38715 0.13419 0.0
N79 N 0.74288 0.36103 0.13413 0.0
O80 O 0.79722 0.46412 0.1041 0.0
H81 H 0.70044 0.43658 0.15148 0.0
H82 H 0.79803 0.38153 0.12836 0.0
O83 O 0.82772 0.44177 0.1603 0.0
C84 C 0.77048 0.47147 0.08545 0.0
O85 O 0.73864 0.48049 0.09805 0.0
N86 N 0.76619 0.47288 0.18999 0.0
C87 C 0.72927 0.47666 0.24801 0.0
C88 C 0.76766 0.47217 0.24721 0.0
C89 C 0.78565 0.47015 0.21785 0.0
C90 C 0.7309 0.48521 0.19081 0.0
C91 C 0.71142 0.48617 0.21943 0.0
H92 H 0.81482 0.46523 0.2179 0.0
H93 H 0.71712 0.49227 0.16876 0.0
H94 H 0.84992 0.50318 0.18751 0.0
H95 H 0.80862 0.60189 0.15066 0.0
H96 H 0.68478 0.36691 0.14365 0.0
H97 H 0.7833 0.46743 0.26886 0.0
H98 H 0.68212 0.49127 0.21846 0.0
C99 C 0.97903 0.84101 0.62202 0.0
C100 C 0.95467 0.86464 0.63663 0.0
N101 N 0.96842 0.87423 0.66542 0.0
N102 N 1.0083 0.83584 0.64133 0.0
C103 C 1.00094 0.85643 0.66761 0.0
H104 H 0.97529 0.82813 0.59894 0.0
Co105 Co 0.04975 0.80584 0.63427 0.0
C106 C 0.11362 0.85485 0.65387 0.0
O107 O 0.1377 0.8283 0.6566 0.0
N108 N 0.09176 0.77543 0.62686 0.0
C109 C 0.13465 0.73232 0.63198 0.0
C110 C 0.09935 0.74246 0.63993 0.0
C111 C 0.12188 0.78308 0.60889 0.0
N112 N 0.1494 0.75842 0.61302 0.0
O113 O 0.05144 0.82015 0.59044 0.0
H114 H 0.0813 0.72757 0.65583 0.0
H115 H 0.12474 0.80832 0.59552 0.0
O116 O 0.08006 0.84806 0.64687 0.0
C117 C 0.03863 0.79295 0.57461 0.0
O118 O 0.02475 0.76507 0.59053 0.0
N119 N 0.04566 0.78823 0.67598 0.0
C120 C 0.04236 0.73652 0.72452 0.0
C121 C 0.07049 0.76319 0.72415 0.0
C122 C 0.07144 0.78925 0.69969 0.0
C123 C 0.01571 0.76582 0.67841 0.0
C124 C 0.0131 0.74022 0.70291 0.0
H125 H 0.0948 0.80728 0.6983 0.0
H126 H 0.9954 0.76542 0.65948 0.0
H127 H 0.01917 0.85828 0.68804 0.0
H128 H 0.92838 0.87332 0.62711 0.0
H129 H 0.14915 0.70895 0.64168 0.0
H130 H 0.09365 0.76172 0.7404 0.0
H131 H 0.99017 0.72115 0.70292 0.0
C132 C 0.71827 0.55234 0.84959 0.0
C133 C 0.69697 0.58086 0.83872 0.0
N134 N 0.67598 0.56866 0.81427 0.0
N135 N 0.71096 0.52196 0.83228 0.0
C136 C 0.68418 0.53252 0.81156 0.0
H137 H 0.73985 0.55439 0.86734 0.0
Co138 Co 0.74251 0.48108 0.83317 0.0
C139 C 0.70672 0.42201 0.79788 0.0
O140 O 0.738 0.41787 0.78252 0.0
N141 N 0.77545 0.43925 0.83526 0.0
C142 C 0.82422 0.40208 0.83338 0.0
C143 C 0.81185 0.43735 0.82878 0.0
C144 C 0.76707 0.40457 0.84525 0.0
N145 N 0.79597 0.38117 0.8435 0.0
O146 O 0.72898 0.47149 0.87641 0.0
H147 H 0.82911 0.45986 0.82142 0.0
H148 H 0.73997 0.39654 0.85339 0.0
O149 O 0.70304 0.44833 0.81798 0.0
C150 C 0.75473 0.48012 0.89579 0.0
O151 O 0.78522 0.49434 0.88424 0.0
N152 N 0.75805 0.49355 0.79152 0.0
C153 C 0.79404 0.50047 0.73375 0.0
C154 C 0.75566 0.49579 0.7344 0.0
C155 C 0.73825 0.49121 0.76377 0.0
C156 C 0.79204 0.5093 0.79088 0.0
C157 C 0.81132 0.51188 0.76217 0.0
H158 H 0.70987 0.48265 0.76367 0.0
H159 H 0.80567 0.51624 0.81309 0.0
H160 H 0.67281 0.51502 0.79319 0.0
H161 H 0.69865 0.60904 0.8469 0.0
H162 H 0.85191 0.39252 0.82888 0.0
H163 H 0.74032 0.48995 0.71274 0.0
H164 H 0.84045 0.51807 0.76314 0.0
C165 C 0.98243 0.68877 0.34481 0.0
C166 C 0.95512 0.66743 0.33117 0.0
N167 N 0.96996 0.64759 0.30721 0.0
N168 N 0.01441 0.68264 0.32945 0.0
C169 C 1.00602 0.65689 0.30705 0.0
H170 H 0.97855 0.7095 0.36303 0.0
Co171 Co 0.05713 0.71219 0.33132 0.0
C172 C 0.11864 0.65643 0.32437 0.0
O173 O 0.14517 0.67993 0.31864 0.0
N174 N 0.1 0.74308 0.33326 0.0
C175 C 0.13904 0.78811 0.32079 0.0
C176 C 0.10445 0.77384 0.31572 0.0
C177 C 0.13156 0.74107 0.35072 0.0
N178 N 0.15663 0.76707 0.34238 0.0
O179 O 0.05792 0.70863 0.37672 0.0
H180 H 0.08431 0.78459 0.29918 0.0
H181 H 0.13685 0.71957 0.36795 0.0
O182 O 0.08546 0.66702 0.32775 0.0
C183 C 0.04858 0.73855 0.39035 0.0
O184 O 0.03906 0.76661 0.37247 0.0
N185 N 0.05431 0.71838 0.28692 0.0
C186 C 0.05107 0.75393 0.22854 0.0
C187 C 0.0813 0.73152 0.23608 0.0
C188 C 0.08219 0.71345 0.26554 0.0
C189 C 0.02286 0.73594 0.27798 0.0
C190 C 0.02004 0.75251 0.24826 0.0
H191 H 0.10708 0.69967 0.27245 0.0
H192 H 1.00105 0.74023 0.2951 0.0
H193 H 0.02517 0.64797 0.28885 0.0
H194 H 0.9262 0.66795 0.3373 0.0
H195 H 0.151 0.81097 0.30794 0.0
H196 H 0.10589 0.73171 0.22149 0.0
H197 H 0.99584 0.76873 0.24294 0.0
C198 C 0.83763 0.98406 0.85468 0.0
C199 C 0.85876 0.95756 0.84007 0.0
N200 N 0.87462 0.97238 0.81404 0.0
N201 N 0.84031 0.01582 0.83826 0.0
C202 C 0.8631 1.00768 0.81355 0.0
H203 H 0.82074 0.97989 0.87557 0.0
Co204 Co 0.81481 0.06013 0.84661 0.0
C205 C 0.89103 0.08049 0.86133 0.0
O206 O 0.89757 0.04925 0.87586 0.0
N207 N 0.78881 0.10444 0.85405 0.0
C208 C 0.74136 0.14189 0.86178 0.0
C209 C 0.75264 0.1059 0.86099 0.0
C210 C 0.79877 0.14023 0.85023 0.0
N211 N 0.77029 0.16372 0.85487 0.0
O212 O 0.81846 0.05263 0.8916 0.0
H213 H 0.73499 0.08225 0.86399 0.0
H214 H 0.82582 0.14884 0.84251 0.0
O215 O 0.86001 0.08671 0.84818 0.0
C216 C 0.79108 0.03917 0.90654 0.0
O217 O 0.76245 0.02729 0.89028 0.0
N218 N 0.80885 0.0675 0.80332 0.0
C219 C 0.77958 0.0906 0.74553 0.0
C220 C 0.81588 0.10006 0.75418 0.0
C221 C 0.82979 0.08891 0.78372 0.0
C222 C 0.77603 0.05371 0.79339 0.0
C223 C 0.76067 0.06504 0.76466 0.0
H224 H 0.8562 0.09935 0.79147 0.0
H225 H 0.76005 0.03676 0.80946 0.0
H226 H 0.8711 0.02717 0.79538 0.0
H227 H 0.86114 0.92917 0.8474 0.0
H228 H 0.71365 0.15112 0.86665 0.0
H229 H 0.83222 0.1185 0.73968 0.0
H230 H 0.73265 0.05676 0.7596 0.0
C231 C 0.55157 0.79811 0.33929 0.0
C232 C 0.57866 0.81946 0.32564 0.0
N233 N 0.56258 0.84451 0.30652 0.0
N234 N 0.51843 0.80949 0.3289 0.0
C235 C 0.526 0.83827 0.30942 0.0
H236 H 0.5559 0.7741 0.35399 0.0
Co237 Co 0.47515 0.78182 0.33308 0.0
C238 C 0.41622 0.82988 0.3099 0.0
O239 O 0.40248 0.8026 0.29305 0.0
N240 N 0.43093 0.75263 0.33776 0.0
C241 C 0.39073 0.70616 0.33548 0.0
C242 C 0.42638 0.71694 0.32963 0.0
C243 C 0.39761 0.76207 0.35019 0.0
N244 N 0.37227 0.7347 0.34807 0.0
O245 O 0.47408 0.79146 0.37762 0.0
H246 H 0.44734 0.69929 0.31997 0.0
H247 H 0.39183 0.78879 0.36022 0.0
O248 O 0.44574 0.82581 0.32601 0.0
C249 C 0.48369 0.76401 0.39445 0.0
O250 O 0.49352 0.73357 0.37989 0.0
N251 N 0.47897 0.76983 0.28955 0.0
C252 C 0.47914 0.73669 0.22984 0.0
C253 C 0.47155 0.7744 0.23285 0.0
C254 C 0.47168 0.79058 0.26314 0.0
C255 C 0.49458 0.73618 0.28593 0.0
C256 C 0.49411 0.71855 0.2564 0.0
H257 H 0.46424 0.81911 0.26514 0.0
H258 H 0.50456 0.72168 0.30673 0.0
H259 H 0.5054 0.85249 0.29555 0.0
H260 H 0.60803 0.81558 0.32833 0.0
H261 H 0.37906 0.67954 0.32979 0.0
H262 H 0.4623 0.79034 0.21257 0.0
H263 H 0.50172 0.68985 0.25548 0.0
C264 C 0.32559 0.03346 0.86344 0.0
C265 C 0.34733 0.05964 0.84909 0.0
N266 N 0.36036 0.04586 0.8215 0.0
N267 N 0.32435 1.00302 0.84501 0.0
C268 C 0.34637 0.01139 0.81971 0.0
H269 H 0.30921 0.03774 0.88463 0.0
Co270 Co 0.28897 0.96508 0.85099 0.0
C271 C 0.32129 0.89567 0.82888 0.0
O272 O 0.28939 0.88788 0.81556 0.0
N273 N 0.2526 0.92736 0.85798 0.0
C274 C 0.20225 0.8924 0.85581 0.0
C275 C 0.21765 0.92546 0.84709 0.0
C276 C 0.25684 0.89565 0.8748 0.0
N277 N 0.2271 0.87317 0.87287 0.0
O278 O 0.29964 0.96333 0.89577 0.0
H279 H 0.20413 0.94605 0.83286 0.0
H280 H 0.28224 0.88833 0.88669 0.0
O281 O 0.32649 0.92699 0.8423 0.0
C282 C 0.27283 0.97772 0.91097 0.0
O283 O 0.24616 0.99302 0.89447 0.0
N284 N 0.27544 0.96986 0.80778 0.0
C285 C 0.24154 0.97762 0.74851 0.0
C286 C 0.2746 0.95799 0.75152 0.0
C287 C 0.29157 0.95514 0.78127 0.0
C288 C 0.24664 0.99341 0.80446 0.0
C289 C 0.229 0.99753 0.77506 0.0
H290 H 0.31719 0.94046 0.78267 0.0
H291 H 0.23584 1.00726 0.82531 0.0
H292 H 0.34964 0.99408 0.79896 0.0
H293 H 0.35076 0.0878 0.85697 0.0
H294 H 0.17544 0.88253 0.84837 0.0
H295 H 0.28619 0.94278 0.73172 0.0
H296 H 0.20454 0.01437 0.77366 0.0
C297 C 0.47639 0.3183 0.35309 0.0
C298 C 0.45052 0.33856 0.33686 0.0
N299 N 0.46652 0.35346 0.31092 0.0
N300 N 0.50878 0.31991 0.33749 0.0
C301 C 0.50192 0.34195 0.31193 0.0
H302 H 0.47108 0.30115 0.37364 0.0
Co303 Co 0.54838 0.288 0.34668 0.0
C304 C 0.61632 0.32368 0.32491 0.0
O305 O 0.6267 0.29184 0.31315 0.0
N306 N 0.58824 0.25509 0.3568 0.0
C307 C 0.62786 0.20851 0.35717 0.0
C308 C 0.5936 0.22002 0.34739 0.0
C309 C 0.61907 0.26325 0.374 0.0
N310 N 0.64441 0.23598 0.37347 0.0
O311 O 0.54763 0.3022 0.39082 0.0
H312 H 0.57475 0.20389 0.33318 0.0
H313 H 0.62376 0.28986 0.38485 0.0
O314 O 0.58426 0.32729 0.33725 0.0
C315 C 0.53523 0.27596 0.40794 0.0
O316 O 0.52285 0.24625 0.39354 0.0
N317 N 0.54625 0.27112 0.30418 0.0
C318 C 0.54841 0.22915 0.2488 0.0
C319 C 0.56391 0.26458 0.24943 0.0
C320 C 0.56152 0.28567 0.27721 0.0
C321 C 0.5251 0.24029 0.30194 0.0
C322 C 0.52571 0.21875 0.27437 0.0
H323 H 0.57381 0.31263 0.27723 0.0
H324 H 0.51033 0.23067 0.32276 0.0
H325 H 0.52143 0.34705 0.29299 0.0
H326 H 0.42147 0.3401 0.34241 0.0
H327 H 0.64042 0.18261 0.35077 0.0
H328 H 0.58049 0.27487 0.22993 0.0
H329 H 0.51124 0.1927 0.27432 0.0
C330 C 0.21276 0.47267 0.84469 0.0
C331 C 0.19316 0.443 0.8333 0.0
N332 N 0.15866 0.45394 0.82685 0.0
N333 N 0.19138 0.50299 0.84423 0.0
C334 C 0.15789 0.48987 0.83506 0.0
H335 H 0.24166 0.47231 0.85061 0.0
Co336 Co 0.20993 0.55242 0.84594 0.0
C337 C 0.14088 0.57003 0.8059 0.0
O338 O 0.14134 0.54281 0.78519 0.0
N339 N 0.22738 0.60287 0.8468 0.0
C340 C 0.23469 0.65998 0.82802 0.0
C341 C 0.22578 0.6246 0.82055 0.0
C342 C 0.23663 0.62711 0.87054 0.0
N343 N 0.24148 0.66183 0.85937 0.0
O344 O 0.19094 0.5578 0.88844 0.0
H345 H 0.21513 0.61682 0.79761 0.0
H346 H 0.23774 0.6202 0.89562 0.0
O347 O 0.16549 0.57239 0.82755 0.0
C348 C 0.2187 0.54924 0.90568 0.0
O349 O 0.24916 0.53951 0.89119 0.0
N350 N 0.23412 0.54479 0.80654 0.0
C351 C 0.29072 0.54327 0.76155 0.0
C352 C 0.25502 0.55473 0.75288 0.0
C353 C 0.22664 0.55412 0.77559 0.0
C354 C 0.26744 0.53012 0.81404 0.0
C355 C 0.29517 0.52703 0.79157 0.0
H356 H 0.20063 0.56579 0.76894 0.0
H357 H 0.27365 0.5228 0.83835 0.0
H358 H 0.13353 0.50641 0.83274 0.0
H359 H 0.20415 0.41608 0.82791 0.0
H360 H 0.23354 0.68331 0.81202 0.0
H361 H 0.24952 0.56728 0.72997 0.0
H362 H 0.32114 0.51537 0.79905 0.0
C363 C 0.0277 0.19672 0.3662 0.0
C364 C 0.05588 0.17832 0.35127 0.0
N365 N 0.04364 0.16572 0.32285 0.0
N366 N 0.99743 0.19582 0.34754 0.0
C367 C 1.0079 0.17606 0.32148 0.0
H368 H 0.03008 0.21199 0.38828 0.0
Co369 Co 0.95603 0.22626 0.354 0.0
C370 C 0.89026 0.18434 0.3344 0.0
O371 O 0.87655 0.21422 0.32147 0.0
N372 N 0.91468 0.25806 0.36116 0.0
C373 C 0.87464 0.304 0.35706 0.0
C374 C 0.90924 0.29192 0.34902 0.0
C375 C 0.88343 0.25127 0.37813 0.0
N376 N 0.85788 0.27814 0.37495 0.0
O377 O 0.95567 0.21472 0.39851 0.0
H378 H 0.92839 0.30667 0.3341 0.0
H379 H 0.87865 0.22579 0.39074 0.0
O380 O 0.92288 0.18444 0.34599 0.0
C381 C 0.96603 0.24143 0.41614 0.0
O382 O 0.97694 0.27201 0.4024 0.0
N383 N 0.95878 0.24007 0.31086 0.0
C384 C 0.9621 0.27591 0.2523 0.0
C385 C 0.94339 0.24222 0.2553 0.0
C386 C 0.94294 0.22421 0.28462 0.0
C387 C 0.98171 0.2694 0.30722 0.0
C388 C 0.98406 0.28766 0.27805 0.0
H389 H 0.92928 0.19802 0.28591 0.0
H390 H 0.99643 0.28007 0.32775 0.0
H391 H 0.99071 0.17177 0.30072 0.0
H392 H 0.08384 0.17608 0.36001 0.0
H393 H 0.86205 0.32899 0.34842 0.0
H394 H 0.92698 0.23084 0.23608 0.0
H395 H 1.00085 0.31221 0.27653 0.0
C396 C 0.3169 0.47245 0.14038 0.0
C397 C 0.34153 0.44814 0.15379 0.0
N398 N 0.3617 0.46609 0.17601 0.0
N399 N 0.32134 0.50575 0.15395 0.0
C400 C 0.34928 0.50114 0.17516 0.0
H401 H 0.29537 0.46563 0.12348 0.0
Co402 Co 0.28721 0.54446 0.15114 0.0
C403 C 0.32342 0.61026 0.1767 0.0
O404 O 0.29341 0.61694 0.19321 0.0
N405 N 0.25247 0.58423 0.1481 0.0
C406 C 0.20962 0.62608 0.15893 0.0
C407 C 0.22065 0.59027 0.1638 0.0
C408 C 0.2588 0.61633 0.13244 0.0
N409 N 0.23416 0.64304 0.13969 0.0
O410 O 0.29605 0.54955 0.10638 0.0
H411 H 0.2074 0.57102 0.17968 0.0
H412 H 0.28329 0.62071 0.11834 0.0
O413 O 0.3263 0.58053 0.1605 0.0
C414 C 0.2683 0.53793 0.09048 0.0
O415 O 0.24104 0.52235 0.10607 0.0
N416 N 0.27549 0.53592 0.19397 0.0
C417 C 0.24297 0.52118 0.25267 0.0
C418 C 0.2766 0.54049 0.25093 0.0
C419 C 0.29302 0.54658 0.22133 0.0
C420 C 0.24656 0.51216 0.19557 0.0
C421 C 0.23011 0.50395 0.22473 0.0
H422 H 0.31888 0.5611 0.22071 0.0
H423 H 0.23494 0.50115 0.17372 0.0
H424 H 0.35837 0.52229 0.19155 0.0
H425 H 0.34318 0.41907 0.14858 0.0
H426 H 0.18658 0.63899 0.17073 0.0
H427 H 0.28896 0.55339 0.27164 0.0
H428 H 0.20584 0.48664 0.22484 0.0
C429 C 0.03588 0.29788 0.65837 0.0
C430 C 0.06479 0.3182 0.6702 0.0
N431 N 0.05175 0.3429 0.69143 0.0
N432 N 1.00435 0.30945 0.67176 0.0
C433 C 0.01481 0.33725 0.69159 0.0
H434 H 0.03799 0.2745 0.6425 0.0
Co435 Co 0.96044 0.28241 0.66777 0.0
C436 C 0.90128 0.32797 0.69185 0.0
O437 O 0.8898 0.29941 0.70829 0.0
N438 N 0.91576 0.25381 0.66284 0.0
C439 C 0.8731 0.20974 0.66571 0.0
C440 C 0.90872 0.21933 0.67309 0.0
C441 C 0.88392 0.26367 0.64785 0.0
N442 N 0.85708 0.23775 0.65002 0.0
O443 O 0.95882 0.29252 0.62313 0.0
H444 H 0.92775 0.20176 0.68547 0.0
H445 H 0.88026 0.28998 0.63632 0.0
O446 O 0.93115 0.32627 0.67587 0.0
C447 C 0.96664 0.26493 0.60564 0.0
O448 O 0.97537 0.23379 0.61953 0.0
N449 N 0.96477 0.27031 0.71123 0.0
C450 C 0.97232 0.24083 0.77226 0.0
C451 C 0.96324 0.27801 0.76815 0.0
C452 C 0.95975 0.29231 0.73738 0.0
C453 C 0.97973 0.23643 0.71493 0.0
C454 C 0.98261 0.22061 0.74504 0.0
H455 H 0.9523 0.32078 0.73493 0.0
H456 H 0.98755 0.22075 0.69404 0.0
H457 H 0.99598 0.35215 0.70672 0.0
H458 H 0.09352 0.31335 0.66499 0.0
H459 H 0.85976 0.18436 0.67262 0.0
H460 H 0.95734 0.2956 0.78838 0.0
H461 H 0.9905 0.19204 0.74636 0.0
C462 C 0.19608 0.04834 0.15394 0.0
C463 C 0.17609 0.07692 0.16679 0.0
N464 N 0.14592 0.06285 0.18081 0.0
N465 N 0.17967 0.01596 0.16091 0.0
C466 C 0.14804 0.02628 0.17574 0.0
H467 H 0.2225 0.05093 0.14229 0.0
Co468 Co 0.20332 0.96913 0.15475 0.0
C469 C 0.13802 0.94025 0.19018 0.0
O470 O 0.14688 0.95908 0.21595 0.0
N471 N 0.22701 0.9231 0.14794 0.0
C472 C 0.26933 0.87886 0.14739 0.0
C473 C 0.26331 0.91611 0.15096 0.0
C474 C 0.2118 0.88976 0.14183 0.0
N475 N 0.23673 0.8622 0.14196 0.0
O476 O 0.19068 0.97029 0.11059 0.0
H477 H 0.28387 0.9366 0.15685 0.0
H478 H 0.18293 0.88561 0.13758 0.0
O479 O 0.15773 0.94269 0.16501 0.0
C480 C 0.21979 0.97969 0.09561 0.0
O481 O 0.2491 0.98876 0.11235 0.0
N482 N 0.22057 0.96901 0.1973 0.0
C483 C 0.27211 0.96201 0.24616 0.0
C484 C 0.24601 0.93423 0.24066 0.0
C485 C 0.22075 0.93803 0.21574 0.0
C486 C 0.24374 0.99747 0.20446 0.0
C487 C 0.26928 0.9948 0.22913 0.0
H488 H 0.20437 0.91439 0.20909 0.0
H489 H 0.24615 0.02062 0.18874 0.0
H490 H 0.1269 1.00792 0.1837 0.0
H491 H 0.18397 0.10562 0.16701 0.0
H492 H 0.29542 0.86497 0.15023 0.0
H493 H 0.24795 0.90803 0.25277 0.0
H494 H 0.28939 0.01654 0.23237 0.0
C495 C 0.47128 0.20612 0.65429 0.0
C496 C 0.44749 0.18158 0.6685 0.0
N497 N 0.4669 0.15964 0.68821 0.0
N498 N 0.50574 0.19993 0.66479 0.0
C499 C 0.5023 0.17097 0.68501 0.0
H500 H 0.46363 0.22843 0.63864 0.0
Co501 Co 0.54509 0.23263 0.65752 0.0
C502 C 0.61012 0.20051 0.68692 0.0
O503 O 0.61549 0.23269 0.70054 0.0
N504 N 0.5857 0.26614 0.64924 0.0
C505 C 0.62563 0.31285 0.64953 0.0
C506 C 0.5901 0.30215 0.6562 0.0
C507 C 0.61868 0.25664 0.63616 0.0
N508 N 0.64413 0.28396 0.63745 0.0
O509 O 0.54773 0.21767 0.61375 0.0
H510 H 0.56957 0.31991 0.66638 0.0
H511 H 0.62444 0.22924 0.62755 0.0
O512 O 0.58123 0.19491 0.66994 0.0
C513 C 0.53477 0.24328 0.59628 0.0
O514 O 0.52067 0.27231 0.61037 0.0
N515 N 0.53908 0.25006 0.69966 0.0
C516 C 0.54339 0.29037 0.75537 0.0
C517 C 0.54947 0.25231 0.75604 0.0
C518 C 0.54673 0.23231 0.72764 0.0
C519 C 0.52339 0.28392 0.70077 0.0
C520 C 0.52612 0.30526 0.72838 0.0
H521 H 0.55468 0.20382 0.72783 0.0
H522 H 0.5127 0.296 0.67907 0.0
H523 H 0.52489 0.15985 0.69872 0.0
H524 H 0.41793 0.18091 0.66536 0.0
H525 H 0.63725 0.33952 0.65502 0.0
H526 H 0.56101 0.23926 0.77702 0.0
H527 H 0.51946 0.33419 0.72705 0.0
H528 H 0.62164 0.96111 0.20714 0.0
H529 H 0.70551 0.87824 0.19684 0.0
H530 H 0.67515 0.84027 0.23655 0.0
H531 H 0.62526 0.83013 0.27466 0.0
H532 H 0.54013 0.91125 0.28541 0.0
H533 H 0.57034 0.95022 0.24538 0.0
C534 C 0.63322 0.93475 0.21361 0.0
C535 C 0.6658 0.92262 0.19859 0.0
C536 C 0.61546 0.91271 0.23676 0.0
C537 C 0.68021 0.88819 0.20728 0.0
C538 C 0.663 0.86646 0.23032 0.0
C539 C 0.6135 0.85653 0.26859 0.0
C540 C 0.58068 0.86793 0.28339 0.0
C541 C 0.63073 0.87843 0.2453 0.0
C542 C 0.56536 0.90183 0.27444 0.0
C543 C 0.58269 0.92412 0.25156 0.0
H544 H 0.61622 0.55049 0.7781 0.0
H545 H 0.6935 0.63809 0.7973 0.0
H546 H 0.66423 0.67619 0.75714 0.0
H547 H 0.61734 0.68511 0.71598 0.0
H548 H 0.53836 0.59948 0.69647 0.0
H549 H 0.56736 0.56036 0.73704 0.0
C550 C 0.62653 0.57793 0.77348 0.0
C551 C 0.65693 0.59133 0.79111 0.0
C552 C 0.60932 0.60011 0.7501 0.0
C553 C 0.6698 0.62712 0.78479 0.0
C554 C 0.65324 0.64895 0.76152 0.0
C555 C 0.60667 0.65775 0.72033 0.0
C556 C 0.576 0.64509 0.70286 0.0
C557 C 0.62313 0.63575 0.74394 0.0
C558 C 0.56195 0.60988 0.70953 0.0
C559 C 0.57859 0.5875 0.73271 0.0
H560 H 0.90335 0.66261 0.28216 0.0
H561 H 0.99309 0.58589 0.27718 0.0
H562 H 0.96046 0.55091 0.23555 0.0
H563 H 0.90582 0.54237 0.20024 0.0
H564 H 0.8179 0.62152 0.20454 0.0
H565 H 0.85022 0.6552 0.24643 0.0
C566 C 0.91559 0.63801 0.27222 0.0
C567 C 0.95042 0.62659 0.2831 0.0
C568 C 0.89701 0.61858 0.24788 0.0
C569 C 0.9663 0.59518 0.26929 0.0
C570 C 0.94761 0.57519 0.2455 0.0
C571 C 0.89384 0.56699 0.21038 0.0
C572 C 0.85949 0.57943 0.19896 0.0
C573 C 0.91289 0.58664 0.23452 0.0
C574 C 0.84447 0.61157 0.21232 0.0
C575 C 0.86285 0.63076 0.23653 0.0
H576 H 0.97315 0.86836 0.72975 0.0
H577 H 0.92416 0.93246 0.65448 0.0
H578 H 0.89217 0.97015 0.69401 0.0
H579 H 0.87596 0.98344 0.75015 0.0
H580 H 0.92315 0.91786 0.82528 0.0
H581 H 0.95803 0.88252 0.78592 0.0
C582 C 0.95584 0.89085 0.72203 0.0
C583 C 0.95108 0.89748 0.68911 0.0
C584 C 0.93702 0.91214 0.74497 0.0
C585 C 0.92803 0.92646 0.67958 0.0
C586 C 0.90981 0.94814 0.70222 0.0
C587 C 0.89426 0.96175 0.7579 0.0
C588 C 0.89692 0.95335 0.79068 0.0
C589 C 0.91378 0.94104 0.73499 0.0
C590 C 0.92034 0.92469 0.80023 0.0
C591 C 0.94037 0.90451 0.77771 0.0
H592 H 0.42555 0.03812 0.7906 0.0
H593 H 0.32685 0.10303 0.79429 0.0
H594 H 0.35053 0.14331 0.75234 0.0
H595 H 0.40004 0.16177 0.71631 0.0
H596 H 0.50048 0.09925 0.71293 0.0
H597 H 0.47589 0.05676 0.75309 0.0
C598 C 0.40932 0.06094 0.7819 0.0
C599 C 0.37448 0.06769 0.79544 0.0
C600 C 0.42359 0.08459 0.75803 0.0
C601 C 0.35373 0.0975 0.78425 0.0
C602 C 0.36729 0.1205 0.76029 0.0
C603 C 0.41647 0.13859 0.72389 0.0
C604 C 0.45209 0.13373 0.71126 0.0
C605 C 0.40229 0.11456 0.74721 0.0
C606 C 0.47311 0.10387 0.72224 0.0
C607 C 0.45896 0.07946 0.74518 0.0
H608 H 0.47607 0.42019 0.28327 0.0
H609 H 0.41231 0.3205 0.27831 0.0
H610 H 0.37522 0.34587 0.23484 0.0
H611 H 0.35882 0.39724 0.20001 0.0
H612 H 0.41984 0.49874 0.20576 0.0
H613 H 0.4597 0.4723 0.24707 0.0
C614 C 0.45427 0.40409 0.27233 0.0
C615 C 0.44692 0.36846 0.28386 0.0
C616 C 0.43235 0.41935 0.24766 0.0
C617 C 0.41834 0.34794 0.26981 0.0
C618 C 0.39714 0.36247 0.245 0.0
C619 C 0.38116 0.41349 0.20986 0.0
C620 C 0.38635 0.44996 0.19946 0.0
C621 C 0.40359 0.39827 0.23393 0.0
C622 C 0.41503 0.47071 0.2133 0.0
C623 C 0.43793 0.45552 0.23692 0.0
H624 H 0.03339 0.37192 0.74972 0.0
H625 H 0.12074 0.36768 0.67991 0.0
H626 H 0.1614 0.40073 0.71608 0.0
H627 H 0.17359 0.42928 0.7682 0.0
H628 H 0.08665 0.43835 0.83727 0.0
H629 H 0.04436 0.4055 0.80088 0.0
C630 C 0.06109 0.37864 0.74217 0.0
C631 C 0.07392 0.36641 0.71205 0.0
C632 C 0.0846 0.3984 0.76316 0.0
C633 C 0.11013 0.37564 0.70304 0.0
C634 C 0.13352 0.3948 0.72373 0.0
C635 C 0.14538 0.42388 0.77524 0.0
C636 C 0.13332 0.43547 0.80553 0.0
C637 C 0.12131 0.40579 0.75398 0.0
C638 C 0.09651 0.42928 0.81417 0.0
C639 C 0.07244 0.41056 0.79333 0.0
H640 H 0.02344 0.11671 0.2769 0.0
H641 H 0.11468 0.18242 0.31044 0.0
H642 H 0.15355 0.15821 0.26809 0.0
H643 H 0.16282 0.11684 0.22247 0.0
H644 H 0.07326 0.04889 0.1894 0.0
H645 H 0.03268 0.0755 0.23007 0.0
C646 C 0.05177 0.12579 0.27478 0.0
C647 C 0.06609 0.15111 0.2972 0.0
C648 C 0.07436 0.11139 0.25027 0.0
C649 C 0.103 0.16246 0.2941 0.0
C650 C 0.12527 0.14882 0.26965 0.0
C651 C 0.13425 0.10835 0.22377 0.0
C652 C 0.12105 0.08114 0.20266 0.0
C653 C 0.11139 0.12311 0.24771 0.0
C654 C 0.08412 0.06979 0.2053 0.0
C655 C 0.06093 0.08498 0.22861 0.0
H656 H 0.65549 0.14619 0.15869 0.0
H657 H 0.64656 0.0668 0.23446 0.0
H658 H 0.59393 0.09969 0.25669 0.0
H659 H 0.56066 0.15694 0.26061 0.0
H660 H 0.56945 0.23806 0.18572 0.0
H661 H 0.61174 0.19814 0.15667 0.0
C662 C 0.64098 0.13557 0.17936 0.0
C663 C 0.65442 0.10441 0.19512 0.0
C664 C 0.61137 0.15518 0.19239 0.0
C665 C 0.63622 0.09075 0.22207 0.0
C666 C 0.60637 0.10966 0.23482 0.0
C667 C 0.5703 0.16557 0.2373 0.0
C668 C 0.5626 0.20114 0.22596 0.0
C669 C 0.59498 0.14284 0.22106 0.0
C670 C 0.57583 0.21138 0.19564 0.0
C671 C 0.60004 0.18855 0.17897 0.0
H672 H 0.29761 0.55698 0.69679 0.0
H673 H 0.35987 0.55851 0.78527 0.0
H674 H 0.4085 0.59186 0.75993 0.0
H675 H 0.42692 0.63358 0.71766 0.0
H676 H 0.36307 0.63993 0.63128 0.0
H677 H 0.32166 0.59157 0.65074 0.0
C678 C 0.32186 0.56426 0.71055 0.0
C679 C 0.32395 0.55536 0.74327 0.0
C680 C 0.34948 0.58585 0.69633 0.0
C681 C 0.35666 0.56409 0.76007 0.0
C682 C 0.38478 0.58393 0.7457 0.0
C683 C 0.40476 0.62324 0.70268 0.0
C684 C 0.39748 0.64012 0.67345 0.0
C685 C 0.38051 0.59672 0.71455 0.0
C686 C 0.36868 0.62717 0.6541 0.0
C687 C 0.345 0.59974 0.6653 0.0
H688 H 0.95969 0.35075 0.25469 0.0
H689 H 0.94197 0.25964 0.18989 0.0
H690 H 0.90293 0.29824 0.15666 0.0
H691 H 0.86284 0.35285 0.15402 0.0
H692 H 0.88185 0.44326 0.21857 0.0
H693 H 0.93284 0.41012 0.24342 0.0
C694 C 0.94893 0.33935 0.23263 0.0
C695 C 0.95234 0.30156 0.2259 0.0
C696 C 0.92638 0.36158 0.21376 0.0
C697 C 0.93828 0.28809 0.19672 0.0
C698 C 0.916 0.31018 0.17757 0.0
C699 C 0.87922 0.36566 0.1727 0.0
C700 C 0.86885 0.39993 0.18493 0.0
C701 C 0.90794 0.34617 0.18713 0.0
C702 C 0.88975 0.41674 0.20901 0.0
C703 C 0.91862 0.39771 0.2233 0.0
H704 H 0.16684 0.97195 0.74768 0.0
H705 H 0.26161 0.96835 0.68552 0.0
H706 H 0.22597 0.93418 0.64592 0.0
H707 H 0.17352 0.89267 0.63617 0.0
H708 H 0.07903 0.89689 0.6981 0.0
H709 H 0.10864 0.94481 0.73027 0.0
C710 C 0.17947 0.96533 0.72495 0.0
C711 C 0.21744 0.97124 0.72028 0.0
C712 C 0.15896 0.94535 0.70246 0.0
C713 C 0.23288 0.96269 0.69036 0.0
C714 C 0.21252 0.94317 0.66766 0.0
C715 C 0.15895 0.90528 0.65598 0.0
C716 C 0.12466 0.89121 0.66531 0.0
C717 C 0.1764 0.93221 0.67455 0.0
C718 C 0.10555 0.90752 0.69068 0.0
C719 C 0.12264 0.9346 0.70921 0.0
H720 H 0.61428 0.28123 0.76992 0.0
H721 H 0.52395 0.35604 0.78409 0.0
H722 H 0.56724 0.40365 0.80236 0.0
H723 H 0.63194 0.42626 0.80622 0.0
H724 H 0.72024 0.35126 0.78419 0.0
H725 H 0.6766 0.30142 0.77732 0.0
C726 C 0.60367 0.30741 0.77819 0.0
C727 C 0.5659 0.31499 0.77584 0.0
C728 C 0.62864 0.33498 0.78652 0.0
C729 C 0.55295 0.34952 0.78582 0.0
C730 C 0.57773 0.37682 0.79589 0.0
C731 C 0.6414 0.39888 0.80023 0.0
C732 C 0.67915 0.39248 0.79546 0.0
C733 C 0.61583 0.37034 0.79495 0.0
C734 C 0.69127 0.35699 0.78762 0.0
C735 C 0.66637 0.32837 0.78382 0.0
H736 H 0.16752 0.52179 0.25262 0.0
H737 H 0.26055 0.53375 0.31644 0.0
H738 H 0.22437 0.57393 0.35065 0.0
H739 H 0.17426 0.61958 0.3516 0.0
H740 H 0.08214 0.60703 0.28748 0.0
H741 H 0.10984 0.55187 0.26466 0.0
C742 C 0.17987 0.5315 0.27464 0.0
C743 C 0.21789 0.52709 0.28042 0.0
C744 C 0.15913 0.55508 0.29387 0.0
C745 C 0.23215 0.53886 0.31006 0.0
C746 C 0.21144 0.56184 0.32975 0.0
C747 C 0.15963 0.6037 0.3336 0.0
C748 C 0.12695 0.61746 0.32044 0.0
C749 C 0.17614 0.57263 0.32018 0.0
C750 C 0.10757 0.59683 0.29762 0.0
C751 C 0.12359 0.56553 0.28442 0.0
H752 H 1.00642 0.17957 0.79705 0.0
H753 H 0.92051 0.25826 0.81756 0.0
H754 H 0.89366 0.21643 0.85562 0.0
H755 H 0.88366 0.15259 0.87042 0.0
H756 H 0.9625 0.07022 0.84339 0.0
H757 H 1.00239 0.11775 0.82034 0.0
C758 C 0.98193 0.18778 0.80993 0.0
C759 C 0.96476 0.22154 0.80296 0.0
C760 C 0.96455 0.16234 0.83006 0.0
C761 C 0.93445 0.23248 0.82166 0.0
C762 C 0.91848 0.20824 0.84327 0.0
C763 C 0.91005 0.1453 0.86015 0.0
C764 C 0.91992 0.10827 0.85762 0.0
C765 C 0.93161 0.17231 0.84566 0.0
C766 C 0.95444 0.09877 0.84527 0.0
C767 C 0.97699 0.12588 0.83185 0.0
H768 H 0.28155 0.93061 0.30462 0.0
H769 H 0.34075 0.97097 0.22253 0.0
H770 H 0.39576 0.93854 0.23951 0.0
H771 H 0.42152 0.8874 0.2704 0.0
H772 H 0.36335 0.84707 0.35268 0.0
H773 H 0.31357 0.89077 0.34327 0.0
C774 C 0.30693 0.93326 0.29118 0.0
C775 C 0.30702 0.95264 0.26225 0.0
C776 C 0.33838 0.91392 0.30075 0.0
C777 C 0.34004 0.95627 0.24501 0.0
C778 C 0.37146 0.93739 0.25448 0.0
C779 C 0.39866 0.88945 0.28696 0.0
C780 C 0.39528 0.8639 0.31166 0.0
C781 C 0.37023 0.9145 0.28126 0.0
C782 C 0.3658 0.86627 0.33311 0.0
C783 C 0.33738 0.89117 0.32771 0.0
H784 H 0.4098 0.76252 0.7825 0.0
H785 H 0.49355 0.84551 0.76895 0.0
H786 H 0.4569 0.88923 0.79963 0.0
H787 H 0.39516 0.90681 0.82009 0.0
H788 H 0.31218 0.82264 0.83031 0.0
H789 H 0.35519 0.77617 0.8125 0.0
C790 C 0.42116 0.78956 0.78719 0.0
C791 C 0.45391 0.80088 0.77226 0.0
C792 C 0.39972 0.81466 0.80419 0.0
C793 C 0.46769 0.83631 0.779 0.0
C794 C 0.44675 0.86141 0.79662 0.0
C795 C 0.38708 0.87811 0.81936 0.0
C796 C 0.35054 0.86812 0.82608 0.0
C797 C 0.41169 0.85148 0.80767 0.0
C798 C 0.34015 0.83095 0.82503 0.0
C799 C 0.36467 0.80434 0.81466 0.0
H800 H 0.74756 0.42102 0.28757 0.0
H801 H 0.66088 0.49941 0.27013 0.0
H802 H 0.61744 0.46004 0.29872 0.0
H803 H 0.60195 0.39688 0.31705 0.0
H804 H 0.68975 0.31836 0.3281 0.0
H805 H 0.73499 0.36477 0.31482 0.0
C806 C 0.71967 0.4307 0.29099 0.0
C807 C 0.70735 0.46257 0.27545 0.0
C808 C 0.6947 0.40734 0.30609 0.0
C809 C 0.67091 0.47424 0.28071 0.0
C810 C 0.64596 0.45167 0.297 0.0
C811 C 0.63108 0.39046 0.31738 0.0
C812 C 0.64258 0.3543 0.32327 0.0
C813 C 0.65708 0.41698 0.30784 0.0
C814 C 0.68029 0.34603 0.3236 0.0
C815 C 0.70622 0.37253 0.31581 0.0
H816 H 0.07319 0.72582 0.78365 0.0
H817 H 0.02467 0.66746 0.70388 0.0
H818 H 0.04576 0.60963 0.72545 0.0
H819 H 0.08707 0.57673 0.76128 0.0
H820 H 0.13986 0.63496 0.83893 0.0
H821 H 0.10837 0.69126 0.82373 0.0
C822 C 0.06682 0.70042 0.77121 0.0
C823 C 0.04766 0.70138 0.74199 0.0
C824 C 0.08047 0.66704 0.783 0.0
C825 C 0.03893 0.66795 0.72661 0.0
C826 C 0.05147 0.63465 0.73868 0.0
C827 C 0.0912 0.60155 0.77524 0.0
C828 C 0.11638 0.60176 0.80069 0.0
C829 C 0.07364 0.63407 0.76602 0.0
C830 C 0.12096 0.63407 0.81888 0.0
C831 C 0.10303 0.66639 0.81018 0.0
H832 H 0.91226 0.11337 0.32533 0.0
H833 H 0.81706 0.1814 0.34134 0.0
H834 H 0.77649 0.13048 0.32888 0.0
H835 H 0.76891 0.07445 0.30005 0.0
H836 H 0.86275 1.00669 0.27726 0.0
H837 H 0.90283 0.04921 0.30628 0.0
C838 C 0.88264 0.11646 0.32699 0.0
C839 C 0.86752 0.15103 0.33393 0.0
C840 C 0.85924 0.08743 0.31779 0.0
C841 C 0.82921 0.15502 0.33603 0.0
C842 C 0.80597 0.12593 0.3287 0.0
C843 C 0.79778 0.06762 0.30223 0.0
C844 C 0.81286 0.03834 0.28466 0.0
C845 C 0.82073 0.0929 0.31756 0.0
C846 C 0.85046 0.03015 0.28898 0.0
C847 C 0.87351 0.05452 0.30557 0.0
H848 H 0.41472 0.75047 0.20005 0.0
H849 H 0.50367 0.67214 0.20163 0.0
H850 H 0.46274 0.62518 0.17927 0.0
H851 H 0.39822 0.60343 0.17216 0.0
H852 H 0.31027 0.6826 0.17686 0.0
H853 H 0.35435 0.73224 0.18313 0.0
C854 C 0.42599 0.72373 0.19433 0.0
C855 C 0.46192 0.71456 0.20383 0.0
C856 C 0.40197 0.69657 0.18322 0.0
C857 C 0.47567 0.67964 0.19565 0.0
C858 C 0.4522 0.65266 0.18307 0.0
C859 C 0.38903 0.63169 0.17381 0.0
C860 C 0.35121 0.63945 0.1747 0.0
C861 C 0.41464 0.66018 0.17896 0.0
C862 C 0.33932 0.67603 0.17665 0.0
C863 C 0.3645 0.70446 0.18021 0.0
H864 H 0.77405 0.43876 0.70211 0.0
H865 H 0.86455 0.51539 0.71108 0.0
H866 H 0.90712 0.46772 0.69299 0.0
H867 H 0.91954 0.40069 0.68773 0.0
H868 H 0.82776 0.3252 0.68943 0.0
H869 H 0.78476 0.37594 0.69 0.0
C870 C 0.80278 0.44603 0.6991 0.0
C871 C 0.81611 0.48043 0.70936 0.0
C872 C 0.82714 0.41797 0.69136 0.0
C873 C 0.85357 0.48875 0.70444 0.0
C874 C 0.87801 0.46136 0.69441 0.0
C875 C 0.89009 0.39568 0.68762 0.0
C876 C 0.87664 0.35948 0.68869 0.0
C877 C 0.86537 0.42519 0.69011 0.0
C878 C 0.83859 0.35293 0.68866 0.0
C879 C 0.814 0.38192 0.68901 0.0
H880 H 0.03216 0.82322 0.24279 0.0
H881 H 0.0845 0.75839 0.16937 0.0
H882 H 0.10931 0.81461 0.14533 0.0
H883 H 0.12611 0.87968 0.15266 0.0
H884 H 0.08116 0.94049 0.23199 0.0
H885 H 0.04173 0.88862 0.2454 0.0
C886 C 0.04772 0.82119 0.22076 0.0
C887 C 0.05662 0.78656 0.20796 0.0
C888 C 0.06367 0.85304 0.20852 0.0
C889 C 0.0775 0.78472 0.17978 0.0
C890 C 0.09187 0.81681 0.16623 0.0
C891 C 0.10768 0.88166 0.17273 0.0
C892 C 0.10787 0.9132 0.19222 0.0
C893 C 0.08692 0.85081 0.18161 0.0
C894 C 0.08232 0.91604 0.21721 0.0
C895 C 0.05984 0.88638 0.22493 0.0
H896 H 0.7202 0.07046 0.70806 0.0
H897 H 0.79047 0.16324 0.73083 0.0
H898 H 0.7449 0.20474 0.71004 0.0
H899 H 0.68111 0.2159 0.69705 0.0
H900 H 0.60706 0.12546 0.67853 0.0
H901 H 0.65767 0.08192 0.68728 0.0
C902 C 0.72576 0.09973 0.70826 0.0
C903 C 0.75842 0.11337 0.72236 0.0
C904 C 0.69821 0.12404 0.69817 0.0
C905 C 0.76581 0.15135 0.72058 0.0
C906 C 0.73932 0.17547 0.70918 0.0
C907 C 0.67595 0.18665 0.69467 0.0
C908 C 0.64029 0.17371 0.68812 0.0
C909 C 0.70475 0.16221 0.69992 0.0
C910 C 0.63429 0.1359 0.68408 0.0
C911 C 0.66319 0.11113 0.68902 0.0
H912 H 0.80051 0.31908 0.15245 0.0
H913 H 0.69267 0.31339 0.10974 0.0
H914 H 0.69542 0.24628 0.10958 0.0
H915 H 0.72784 0.18864 0.12307 0.0
H916 H 0.83505 0.19538 0.16756 0.0
H917 H 0.83326 0.2618 0.16497 0.0
C918 C 0.77792 0.30319 0.14256 0.0
C919 C 0.74648 0.32148 0.13104 0.0
C920 C 0.77947 0.2644 0.14291 0.0
C921 C 0.71713 0.30019 0.11894 0.0
C922 C 0.71869 0.2617 0.11884 0.0
C923 C 0.75082 0.20449 0.13225 0.0
C924 C 0.7817 0.18622 0.14515 0.0
C925 C 0.74955 0.24337 0.13113 0.0
C926 C 0.81114 0.2079 0.15679 0.0
C927 C 0.81012 0.24628 0.15557 0.0
H928 H 0.31423 0.81034 0.60381 0.0
H929 H 0.33225 0.69478 0.61961 0.0
H930 H 0.2664 0.68315 0.61549 0.0
H931 H 0.20297 0.70645 0.61238 0.0
H932 H 0.18505 0.82277 0.59977 0.0
H933 H 0.25101 0.83309 0.59732 0.0
C934 C 0.30389 0.78256 0.60628 0.0
C935 C 0.32865 0.75356 0.61236 0.0
C936 C 0.26563 0.77612 0.60456 0.0
C937 C 0.31435 0.71768 0.61473 0.0
C938 C 0.27644 0.71102 0.61263 0.0
C939 C 0.21333 0.73409 0.60897 0.0
C940 C 0.18841 0.76368 0.60665 0.0
C941 C 0.2517 0.74014 0.60831 0.0
C942 C 0.20289 0.79917 0.60149 0.0
C943 C 0.24094 0.80526 0.60035 0.0
H944 H 0.827 0.21181 0.86281 0.0
H945 H 0.71159 0.20594 0.83901 0.0
H946 H 0.70879 0.27256 0.83539 0.0
H947 H 0.73891 0.33311 0.83861 0.0
H948 H 0.85476 0.33949 0.86037 0.0
H949 H 0.85746 0.27285 0.86526 0.0
C950 C 0.80137 0.22507 0.85654 0.0
C951 C 0.76957 0.20346 0.85148 0.0
C952 C 0.7999 0.26383 0.85423 0.0
C953 C 0.73645 0.22148 0.84369 0.0
C954 C 0.73479 0.2598 0.84143 0.0
C955 C 0.76473 0.32002 0.84447 0.0
C956 C 0.79661 0.3417 0.84872 0.0
C957 C 0.76627 0.28134 0.84678 0.0
C958 C 0.8298 0.32381 0.85644 0.0
C959 C 0.8314 0.28549 0.8593 0.0
H960 H 0.32758 0.79413 0.34449 0.0
H961 H 0.32732 0.67798 0.36398 0.0
H962 H 0.26021 0.67805 0.36651 0.0
H963 H 0.20115 0.71013 0.35885 0.0
H964 H 0.20155 0.82668 0.34051 0.0
H965 H 0.26865 0.82753 0.34255 0.0
C966 C 0.31301 0.76906 0.35016 0.0
C967 C 0.33286 0.73612 0.35387 0.0
C968 C 0.27414 0.76928 0.35158 0.0
C969 C 0.31303 0.7037 0.36052 0.0
C970 C 0.2745 0.70372 0.36209 0.0
C971 C 0.21574 0.73589 0.35599 0.0
C972 C 0.1959 0.76822 0.34911 0.0
C973 C 0.25465 0.73621 0.35701 0.0
C974 C 0.2158 0.80122 0.34527 0.0
C975 C 0.25433 0.80177 0.34648 0.0
H976 H 0.18714 0.70602 0.87781 0.0
H977 H 0.30476 0.69636 0.87363 0.0
H978 H 0.31148 0.76281 0.88204 0.0
H979 H 0.2831 0.82444 0.8816 0.0
H980 H 0.16476 0.83365 0.88291 0.0
H981 H 0.15898 0.76704 0.88527 0.0
C982 C 0.21418 0.71839 0.88038 0.0
C983 C 0.24547 0.69629 0.87597 0.0
C984 C 0.21759 0.7568 0.88384 0.0
C985 C 0.28042 0.7127 0.87796 0.0
C986 C 0.28415 0.75079 0.8822 0.0
C987 C 0.25605 0.81205 0.88294 0.0
C988 C 0.2244 0.83442 0.88097 0.0
C989 C 0.25285 0.77334 0.88379 0.0
C990 C 0.18964 0.81741 0.88334 0.0
C991 C 0.18626 0.77915 0.88484 0.0
H992 H 0.81576 0.2176 0.38664 0.0
H993 H 0.81078 0.33571 0.3806 0.0
H994 H 0.74383 0.33325 0.38322 0.0
H995 H 0.68637 0.29745 0.38175 0.0
H996 H 0.69122 0.17911 0.38427 0.0
H997 H 0.75809 0.18187 0.38872 0.0
C998 C 0.80021 0.24284 0.386 0.0
C999 C 0.81876 0.2767 0.38233 0.0
C1000 C 0.76135 0.2412 0.38668 0.0
C1001 C 0.79762 0.30911 0.3825 0.0
C1002 C 0.75913 0.30777 0.38409 0.0
C1003 C 0.70182 0.27219 0.38348 0.0
C1004 C 0.68331 0.23807 0.38168 0.0
C1005 C 0.74061 0.27391 0.38522 0.0
C1006 C 0.70437 0.2058 0.3847 0.0
C1007 C 0.74281 0.20733 0.38735 0.0
H1008 H 0.18557 0.69756 0.15539 0.0
H1009 H 0.2913 0.67958 0.11075 0.0
H1010 H 0.30088 0.74523 0.10713 0.0
H1011 H 0.2812 0.80874 0.11888 0.0
H1012 H 0.17601 0.82685 0.16349 0.0
H1013 H 0.16454 0.76071 0.1647 0.0
C1014 C 0.21079 0.70759 0.14481 0.0
C1015 C 0.23781 0.68251 0.13403 0.0
C1016 C 0.21642 0.74596 0.14275 0.0
C1017 C 0.26978 0.69719 0.11966 0.0
C1018 C 0.27552 0.73519 0.11761 0.0
C1019 C 0.25575 0.7982 0.1288 0.0
C1020 C 0.22945 0.82298 0.14094 0.0
C1021 C 0.24935 0.75989 0.12952 0.0
C1022 C 0.19645 0.80867 0.15344 0.0
C1023 C 0.19001 0.77071 0.15437 0.0
H1024 H 0.6858 0.22185 0.63327 0.0
H1025 H 0.69356 0.34021 0.63171 0.0
H1026 H 0.7604 0.33636 0.63295 0.0
H1027 H 0.81697 0.29963 0.63845 0.0
H1028 H 0.80863 0.18141 0.64116 0.0
H1029 H 0.74228 0.18522 0.63454 0.0
C1030 C 0.7018 0.24694 0.63286 0.0
C1031 C 0.68387 0.28132 0.63324 0.0
C1032 C 0.74059 0.24462 0.63387 0.0
C1033 C 0.70595 0.31327 0.63229 0.0
C1034 C 0.74447 0.31114 0.63286 0.0
C1035 C 0.80082 0.27465 0.63765 0.0
C1036 C 0.81829 0.24033 0.64149 0.0
C1037 C 0.76214 0.27698 0.63445 0.0
C1038 C 0.79638 0.20835 0.63932 0.0
C1039 C 0.75818 0.21045 0.63539 0.0
H1040 H 0.73107 0.03733 0.94493 0.0
H1041 H 0.8498 0.04096 0.94698 0.0
H1042 H 0.8489 0.04113 0.00539 0.0
H1043 H 0.81461 0.03979 0.05548 0.0
H1044 H 0.69586 0.03885 0.05423 0.0
H1045 H 0.69644 0.03851 0.99559 0.0
C1046 C 0.75673 0.03793 0.9582 0.0
C1047 C 0.7905 0.03872 0.94176 0.0
C1048 C 0.75595 0.03875 0.99174 0.0
C1049 C 0.82352 0.04021 0.95916 0.0
C1050 C 0.823 0.04034 0.9925 0.0
C1051 C 0.78879 0.0395 0.04242 0.0
C1052 C 0.75521 0.03902 0.05909 0.0
C1053 C 0.78941 0.03957 0.00897 0.0
C1054 C 0.72203 0.03924 0.04186 0.0
C1055 C 0.72239 0.03888 0.00841 0.0
H1056 H 0.48447 0.70639 0.43522 0.0
H1057 H 0.48121 0.82487 0.43264 0.0
H1058 H 0.4817 0.82696 0.49107 0.0
H1059 H 0.4836 0.7952 0.54252 0.0
H1060 H 0.48417 0.67671 0.54543 0.0
H1061 H 0.48418 0.67449 0.4869 0.0
C1062 C 0.48395 0.73269 0.44744 0.0
C1063 C 0.48308 0.76548 0.42968 0.0
C1064 C 0.48379 0.73363 0.48094 0.0
C1065 C 0.48189 0.7993 0.44581 0.0
C1066 C 0.48225 0.80049 0.47917 0.0
C1067 C 0.48389 0.76884 0.53038 0.0
C1068 C 0.48425 0.73613 0.54822 0.0
C1069 C 0.48333 0.76784 0.49692 0.0
C1070 C 0.48398 0.70223 0.53217 0.0
C1071 C 0.48402 0.70098 0.49877 0.0
H1072 H 0.71553 0.4668 0.04196 0.0
H1073 H 0.83383 0.47274 0.05019 0.0
H1074 H 0.83917 0.47468 0.99189 0.0
H1075 H 0.81001 0.47762 0.93901 0.0
H1076 H 0.69182 0.47011 0.93067 0.0
H1077 H 0.68659 0.4656 0.98888 0.0
C1078 C 0.74252 0.46845 0.03101 0.0
C1079 C 0.77427 0.47007 0.05033 0.0
C1080 C 0.74533 0.46932 0.99759 0.0
C1081 C 0.80903 0.47156 0.03581 0.0
C1082 C 0.81206 0.47277 0.00252 0.0
C1083 C 0.78308 0.47491 0.94991 0.0
C1084 C 0.75127 0.47463 0.93063 0.0
C1085 C 0.78037 0.47214 0.98324 0.0
C1086 C 0.71666 0.47048 0.94502 0.0
C1087 C 0.71368 0.46802 0.97827 0.0
H1088 H 0.05041 0.80195 0.42437 0.0
H1089 H 0.04724 0.68407 0.43504 0.0
H1090 H 0.04412 0.69103 0.49313 0.0
H1091 H 0.0405 0.73043 0.54037 0.0
H1092 H 0.04625 0.84825 0.53054 0.0
H1093 H 0.05032 0.84154 0.47224 0.0
C1094 C 0.04904 0.77777 0.43942 0.0
C1095 C 0.04866 0.7425 0.42547 0.0
C1096 C 0.04766 0.78202 0.47275 0.0
C1097 C 0.04751 0.71145 0.44524 0.0
C1098 C 0.04563 0.71544 0.4784 0.0
C1099 C 0.04253 0.75472 0.5255 0.0
C1100 C 0.04252 0.78986 0.53961 0.0
C1101 C 0.04534 0.75056 0.49232 0.0
C1102 C 0.04602 0.82098 0.52013 0.0
C1103 C 0.04828 0.8171 0.48688 0.0
H1104 H 0.28201 0.97204 0.06127 0.0
H1105 H 0.1643 0.98265 0.05119 0.0
H1106 H 0.17076 0.98258 0.99283 0.0
H1107 H 0.21011 0.98141 0.94519 0.0
H1108 H 0.32754 0.96814 0.9553 0.0
H1109 H 0.32095 0.96719 0.01361 0.0
C1110 C 0.25771 0.9744 0.04632 0.0
C1111 C 0.2227 0.97786 0.06045 0.0
C1112 C 0.26166 0.97388 0.01301 0.0
C1113 C 0.19147 0.9801 0.04082 0.0
C1114 C 0.19521 0.98014 0.00754 0.0
C1115 C 0.23432 0.97837 0.96015 0.0
C1116 C 0.26939 0.97535 0.94605 0.0
C1117 C 0.2302 0.97739 0.99344 0.0
C1118 C 0.30035 0.97064 0.96565 0.0
C1119 C 0.29656 0.97018 -0.00108 0.0
H1120 H 0.53588 0.30196 0.55701 0.0
H1121 H 0.5403 0.18354 0.55662 0.0
H1122 H 0.54115 0.18359 0.498 0.0
H1123 H 0.53847 0.21734 0.44723 0.0
H1124 H 0.53708 0.33584 0.44768 0.0
H1125 H 0.53734 0.33581 0.50629 0.0
C1126 C 0.53701 0.27612 0.5441 0.0
C1127 C 0.53751 0.2427 0.56105 0.0
C1128 C 0.53798 0.27647 0.51059 0.0
C1129 C 0.53977 0.20953 0.54407 0.0
C1130 C 0.54016 0.2096 0.51061 0.0
C1131 C 0.53817 0.2432 0.46015 0.0
C1132 C 0.53722 0.27661 0.44322 0.0
C1133 C 0.53887 0.24289 0.49368 0.0
C1134 C 0.53766 0.30985 0.46022 0.0
C1135 C 0.53773 0.30979 0.49367 0.0
H1136 H 0.20564 0.53462 0.05517 0.0
H1137 H 0.32218 0.55664 0.04795 0.0
H1138 H 0.3158 0.56514 0.99022 0.0
H1139 H 0.27802 0.56285 0.94195 0.0
H1140 H 0.16146 0.54134 0.94832 0.0
H1141 H 0.16674 0.53686 0.00679 0.0
C1142 C 0.22969 0.54126 0.04098 0.0
C1143 C 0.26454 0.54441 0.05574 0.0
C1144 C 0.22571 0.54639 0.00789 0.0
C1145 C 0.29521 0.55378 0.03714 0.0
C1146 C 0.29154 0.55866 0.00418 0.0
C1147 C 0.25364 0.55738 0.95612 0.0
C1148 C 0.21942 0.55193 0.94091 0.0
C1149 C 0.25705 0.55454 0.98934 0.0
C1150 C 0.18802 0.54565 0.95955 0.0
C1151 C 0.19115 0.54281 0.99287 0.0
H1152 H 0.96668 0.29823 0.45785 0.0
H1153 H 0.96208 0.17986 0.45338 0.0
H1154 H 0.96172 0.17691 0.51184 0.0
H1155 H 0.96387 0.20801 0.56396 0.0
H1156 H 0.96614 0.32647 0.56831 0.0
H1157 H 0.96613 0.32938 0.50988 0.0
C1158 C 0.96568 0.27175 0.46965 0.0
C1159 C 0.96477 0.23926 0.45136 0.0
C1160 C 0.96504 0.27033 0.50313 0.0
C1161 C 0.96286 0.20521 0.46696 0.0
C1162 C 0.96272 0.20354 0.50035 0.0
C1163 C 0.96441 0.2345 0.55214 0.0
C1164 C 0.96534 0.26701 0.57041 0.0
C1165 C 0.96401 0.23592 0.51864 0.0
C1166 C 0.96547 0.30108 0.55476 0.0
C1167 C 0.96554 0.30274 0.52139 0.0
loop_
_geom_bond_atom_site_label_1
_geom_bond_atom_site_label_2
_geom_bond_distance
_geom_bond_site_symmetry_2
_ccdc_geom_bond_type
C0 C1 1.351 . S
C0 N3 1.379 . S
C0 H5 0.931 . S
C1 C0 1.351 . S
C1 N2 1.373 . S
C1 H29 0.930 . S
N2 C1 1.373 . S
N2 C4 1.340 . S
N3 C0 1.379 . S
N3 C4 1.327 . S
N3 Co6 2.121 1_565 S
C4 N2 1.340 . S
C4 N3 1.327 . S
C4 H28 0.930 . S
H5 C0 0.931 . S
Co6 N3 2.121 1_545 S
Co6 N9 2.121 . S
Co6 O14 2.055 . S
Co6 O17 2.039 . S
Co6 N20 2.140 . S
C7 O8 1.227 . S
C7 O17 1.265 . S
O8 C7 1.227 . S
N9 Co6 2.121 . S
N9 C11 1.375 . S
N9 C12 1.313 . S
C10 C11 1.338 . S
C10 N13 1.377 . S
C10 H30 0.930 . S
C11 N9 1.375 . S
C11 C10 1.338 . S
C11 H15 0.931 . S
C12 N9 1.313 . S
C12 N13 1.344 . S
C12 H16 0.930 . S
N13 C10 1.377 . S
N13 C12 1.344 . S
O14 Co6 2.055 . S
O14 C18 1.253 . S
H15 C11 0.931 . S
H16 C12 0.930 . S
O17 Co6 2.039 . S
O17 C7 1.265 . S
C18 O14 1.253 . S
C18 O19 1.227 . S
O19 C18 1.227 . S
N20 Co6 2.140 . S
N20 C23 1.346 . S
N20 C24 1.345 . S
C21 C22 1.387 . S
C21 C25 1.391 . S
C22 C21 1.387 . S
C22 C23 1.369 . S
C22 H31 0.929 . S
C23 N20 1.346 . S
C23 C22 1.369 . S
C23 H26 0.928 . S
C24 N20 1.345 . S
C24 C25 1.371 . S
C24 H27 0.931 . S
C25 C21 1.391 . S
C25 C24 1.371 . S
C25 H32 0.930 . S
H26 C23 0.928 . S
H27 C24 0.931 . S
H28 C4 0.930 . S
H29 C1 0.930 . S
H30 C10 0.930 . S
H31 C22 0.929 . S
H32 C25 0.930 . S
C33 C34 1.351 . S
C33 N36 1.368 . S
C33 H38 0.931 . S
C34 C33 1.351 . S
C34 N35 1.373 . S
C34 H62 0.930 . S
N35 C34 1.373 . S
N35 C37 1.340 . S
N36 C33 1.368 . S
N36 C37 1.321 . S
N36 Co39 2.135 . S
C37 N35 1.340 . S
C37 N36 1.321 . S
C37 H61 0.930 . S
H38 C33 0.931 . S
Co39 N36 2.135 . S
Co39 N42 2.121 . S
Co39 O47 2.055 . S
Co39 O50 2.039 . S
Co39 N53 2.140 . S
C40 O41 1.227 . S
C40 O50 1.265 . S
O41 C40 1.227 . S
N42 Co39 2.121 . S
N42 C44 1.375 . S
N42 C45 1.313 . S
C43 C44 1.338 . S
C43 N46 1.377 . S
C43 H63 0.930 . S
C44 N42 1.375 . S
C44 C43 1.338 . S
C44 H48 0.931 . S
C45 N42 1.313 . S
C45 N46 1.344 . S
C45 H49 0.930 . S
N46 C43 1.377 . S
N46 C45 1.344 . S
O47 Co39 2.055 . S
O47 C51 1.253 . S
H48 C44 0.931 . S
H49 C45 0.930 . S
O50 Co39 2.039 . S
O50 C40 1.265 . S
C51 O47 1.253 . S
C51 O52 1.227 . S
O52 C51 1.227 . S
N53 Co39 2.140 . S
N53 C56 1.346 . S
N53 C57 1.345 . S
C54 C55 1.387 . S
C54 C58 1.391 . S
C55 C54 1.387 . S
C55 C56 1.369 . S
C55 H64 0.929 . S
C56 N53 1.346 . S
C56 C55 1.369 . S
C56 H59 0.928 . S
C57 N53 1.345 . S
C57 C58 1.371 . S
C57 H60 0.931 . S
C58 C54 1.391 . S
C58 C57 1.371 . S
C58 H65 0.930 . S
H59 C56 0.928 . S
H60 C57 0.931 . S
H61 C37 0.930 . S
H62 C34 0.930 . S
H63 C43 0.930 . S
H64 C55 0.929 . S
H65 C58 0.930 . S
C66 C67 1.351 . S
C66 N69 1.368 . S
C66 H71 0.931 . S
C67 C66 1.351 . S
C67 N68 1.373 . S
C67 H95 0.930 . S
N68 C67 1.373 . S
N68 C70 1.340 . S
N69 C66 1.368 . S
N69 C70 1.321 . S
N69 Co72 2.135 . S
C70 N68 1.340 . S
C70 N69 1.321 . S
C70 H94 0.930 . S
H71 C66 0.931 . S
Co72 N69 2.135 . S
Co72 N75 2.121 . S
Co72 O80 2.055 . S
Co72 O83 2.039 . S
Co72 N86 2.140 . S
C73 O74 1.227 . S
C73 O83 1.265 . S
O74 C73 1.227 . S
N75 Co72 2.121 . S
N75 C77 1.375 . S
N75 C78 1.313 . S
C76 C77 1.338 . S
C76 N79 1.377 . S
C76 H96 0.930 . S
C77 N75 1.375 . S
C77 C76 1.338 . S
C77 H81 0.931 . S
C78 N75 1.313 . S
C78 N79 1.344 . S
C78 H82 0.930 . S
N79 C76 1.377 . S
N79 C78 1.344 . S
O80 Co72 2.055 . S
O80 C84 1.253 . S
H81 C77 0.931 . S
H82 C78 0.930 . S
O83 Co72 2.039 . S
O83 C73 1.265 . S
C84 O80 1.253 . S
C84 O85 1.227 . S
O85 C84 1.227 . S
N86 Co72 2.140 . S
N86 C89 1.346 . S
N86 C90 1.345 . S
C87 C88 1.387 . S
C87 C91 1.391 . S
C88 C87 1.387 . S
C88 C89 1.369 . S
C88 H97 0.929 . S
C89 N86 1.346 . S
C89 C88 1.369 . S
C89 H92 0.928 . S
C90 N86 1.345 . S
C90 C91 1.371 . S
C90 H93 0.931 . S
C91 C87 1.391 . S
C91 C90 1.371 . S
C91 H98 0.930 . S
H92 C89 0.928 . S
H93 C90 0.931 . S
H94 C70 0.930 . S
H95 C67 0.930 . S
H96 C76 0.930 . S
H97 C88 0.929 . S
H98 C91 0.930 . S
C99 C100 1.351 . S
C99 N102 1.379 . S
C99 H104 0.931 . S
C100 C99 1.351 . S
C100 N101 1.373 . S
C100 H128 0.930 . S
N101 C100 1.373 . S
N101 C103 1.340 . S
N102 C99 1.379 . S
N102 C103 1.327 . S
N102 Co105 2.121 1_655 S
C103 N101 1.340 . S
C103 N102 1.327 . S
C103 H127 0.930 . S
H104 C99 0.931 . S
Co105 N102 2.121 1_455 S
Co105 N108 2.121 . S
Co105 O113 2.055 . S
Co105 O116 2.039 . S
Co105 N119 2.140 . S
C106 O107 1.227 . S
C106 O116 1.265 . S
O107 C106 1.227 . S
N108 Co105 2.121 . S
N108 C110 1.375 . S
N108 C111 1.313 . S
C109 C110 1.338 . S
C109 N112 1.377 . S
C109 H129 0.930 . S
C110 N108 1.375 . S
C110 C109 1.338 . S
C110 H114 0.931 . S
C111 N108 1.313 . S
C111 N112 1.344 . S
C111 H115 0.930 . S
N112 C109 1.377 . S
N112 C111 1.344 . S
O113 Co105 2.055 . S
O113 C117 1.253 . S
H114 C110 0.931 . S
H115 C111 0.930 . S
O116 Co105 2.039 . S
O116 C106 1.265 . S
C117 O113 1.253 . S
C117 O118 1.227 . S
O118 C117 1.227 . S
N119 Co105 2.140 . S
N119 C122 1.346 . S
N119 C123 1.345 . S
C120 C121 1.387 . S
C120 C124 1.391 . S
C121 C120 1.387 . S
C121 C122 1.369 . S
C121 H130 0.929 . S
C122 N119 1.346 . S
C122 C121 1.369 . S
C122 H125 0.928 . S
C123 N119 1.345 . S
C123 C124 1.371 . S
C123 H126 0.931 . S
C124 C120 1.391 . S
C124 C123 1.371 . S
C124 H131 0.930 . S
H125 C122 0.928 . S
H126 C123 0.931 . S
H127 C103 0.930 . S
H128 C100 0.930 . S
H129 C109 0.930 . S
H130 C121 0.929 . S
H131 C124 0.930 . S
C132 C133 1.351 . S
C132 N135 1.368 . S
C132 H137 0.931 . S
C133 C132 1.351 . S
C133 N134 1.373 . S
C133 H161 0.930 . S
N134 C133 1.373 . S
N134 C136 1.340 . S
N135 C132 1.368 . S
N135 C136 1.321 . S
N135 Co138 2.135 . S
C136 N134 1.340 . S
C136 N135 1.321 . S
C136 H160 0.930 . S
H137 C132 0.931 . S
Co138 N135 2.135 . S
Co138 N141 2.121 . S
Co138 O146 2.055 . S
Co138 O149 2.039 . S
Co138 N152 2.140 . S
C139 O140 1.227 . S
C139 O149 1.265 . S
O140 C139 1.227 . S
N141 Co138 2.121 . S
N141 C143 1.375 . S
N141 C144 1.313 . S
C142 C143 1.338 . S
C142 N145 1.377 . S
C142 H162 0.930 . S
C143 N141 1.375 . S
C143 C142 1.338 . S
C143 H147 0.931 . S
C144 N141 1.313 . S
C144 N145 1.344 . S
C144 H148 0.930 . S
N145 C142 1.377 . S
N145 C144 1.344 . S
O146 Co138 2.055 . S
O146 C150 1.253 . S
H147 C143 0.931 . S
H148 C144 0.930 . S
O149 Co138 2.039 . S
O149 C139 1.265 . S
C150 O146 1.253 . S
C150 O151 1.227 . S
O151 C150 1.227 . S
N152 Co138 2.140 . S
N152 C155 1.346 . S
N152 C156 1.345 . S
C153 C154 1.387 . S
C153 C157 1.391 . S
C154 C153 1.387 . S
C154 C155 1.369 . S
C154 H163 0.929 . S
C155 N152 1.346 . S
C155 C154 1.369 . S
C155 H158 0.928 . S
C156 N152 1.345 . S
C156 C157 1.371 . S
C156 H159 0.931 . S
C157 C153 1.391 . S
C157 C156 1.371 . S
C157 H164 0.930 . S
H158 C155 0.928 . S
H159 C156 0.931 . S
H160 C136 0.930 . S
H161 C133 0.930 . S
H162 C142 0.930 . S
H163 C154 0.929 . S
H164 C157 0.930 . S
C165 C166 1.351 . S
C165 N168 1.379 . S
C165 H170 0.931 . S
C166 C165 1.351 . S
C166 N167 1.373 . S
C166 H194 0.930 . S
N167 C166 1.373 . S
N167 C169 1.340 . S
N168 C165 1.379 . S
N168 C169 1.327 . S
N168 Co171 2.121 1_655 S
C169 N167 1.340 . S
C169 N168 1.327 . S
C169 H193 0.930 . S
H170 C165 0.931 . S
Co171 N168 2.121 1_455 S
Co171 N174 2.121 . S
Co171 O179 2.055 . S
Co171 O182 2.039 . S
Co171 N185 2.140 . S
C172 O173 1.227 . S
C172 O182 1.265 . S
O173 C172 1.227 . S
N174 Co171 2.121 . S
N174 C176 1.375 . S
N174 C177 1.313 . S
C175 C176 1.338 . S
C175 N178 1.377 . S
C175 H195 0.930 . S
C176 N174 1.375 . S
C176 C175 1.338 . S
C176 H180 0.931 . S
C177 N174 1.313 . S
C177 N178 1.344 . S
C177 H181 0.930 . S
N178 C175 1.377 . S
N178 C177 1.344 . S
O179 Co171 2.055 . S
O179 C183 1.253 . S
H180 C176 0.931 . S
H181 C177 0.930 . S
O182 Co171 2.039 . S
O182 C172 1.265 . S
C183 O179 1.253 . S
C183 O184 1.227 . S
O184 C183 1.227 . S
N185 Co171 2.140 . S
N185 C188 1.346 . S
N185 C189 1.345 . S
C186 C187 1.387 . S
C186 C190 1.391 . S
C187 C186 1.387 . S
C187 C188 1.369 . S
C187 H196 0.929 . S
C188 N185 1.346 . S
C188 C187 1.369 . S
C188 H191 0.928 . S
C189 N185 1.345 . S
C189 C190 1.371 . S
C189 H192 0.931 . S
C190 C186 1.391 . S
C190 C189 1.371 . S
C190 H197 0.930 . S
H191 C188 0.928 . S
H192 C189 0.931 . S
H193 C169 0.930 . S
H194 C166 0.930 . S
H195 C175 0.930 . S
H196 C187 0.929 . S
H197 C190 0.930 . S
C198 C199 1.351 . S
C198 N201 1.379 . S
C198 H203 0.931 . S
C199 C198 1.351 . S
C199 N200 1.373 . S
C199 H227 0.930 . S
N200 C199 1.373 . S
N200 C202 1.340 . S
N201 C198 1.379 . S
N201 C202 1.327 . S
N201 Co204 2.121 1_565 S
C202 N200 1.340 . S
C202 N201 1.327 . S
C202 H226 0.930 . S
H203 C198 0.931 . S
Co204 N201 2.121 1_545 S
Co204 N207 2.121 . S
Co204 O212 2.055 . S
Co204 O215 2.039 . S
Co204 N218 2.140 . S
C205 O206 1.227 . S
C205 O215 1.265 . S
O206 C205 1.227 . S
N207 Co204 2.121 . S
N207 C209 1.375 . S
N207 C210 1.313 . S
C208 C209 1.338 . S
C208 N211 1.377 . S
C208 H228 0.930 . S
C209 N207 1.375 . S
C209 C208 1.338 . S
C209 H213 0.931 . S
C210 N207 1.313 . S
C210 N211 1.344 . S
C210 H214 0.930 . S
N211 C208 1.377 . S
N211 C210 1.344 . S
O212 Co204 2.055 . S
O212 C216 1.253 . S
H213 C209 0.931 . S
H214 C210 0.930 . S
O215 Co204 2.039 . S
O215 C205 1.265 . S
C216 O212 1.253 . S
C216 O217 1.227 . S
O217 C216 1.227 . S
N218 Co204 2.140 . S
N218 C221 1.346 . S
N218 C222 1.345 . S
C219 C220 1.387 . S
C219 C223 1.391 . S
C220 C219 1.387 . S
C220 C221 1.369 . S
C220 H229 0.929 . S
C221 N218 1.346 . S
C221 C220 1.369 . S
C221 H224 0.928 . S
C222 N218 1.345 . S
C222 C223 1.371 . S
C222 H225 0.931 . S
C223 C219 1.391 . S
C223 C222 1.371 . S
C223 H230 0.930 . S
H224 C221 0.928 . S
H225 C222 0.931 . S
H226 C202 0.930 . S
H227 C199 0.930 . S
H228 C208 0.930 . S
H229 C220 0.929 . S
H230 C223 0.930 . S
C231 C232 1.351 . S
C231 N234 1.368 . S
C231 H236 0.931 . S
C232 C231 1.351 . S
C232 N233 1.373 . S
C232 H260 0.930 . S
N233 C232 1.373 . S
N233 C235 1.340 . S
N234 C231 1.368 . S
N234 C235 1.321 . S
N234 Co237 2.135 . S
C235 N233 1.340 . S
C235 N234 1.321 . S
C235 H259 0.930 . S
H236 C231 0.931 . S
Co237 N234 2.135 . S
Co237 N240 2.121 . S
Co237 O245 2.055 . S
Co237 O248 2.039 . S
Co237 N251 2.140 . S
C238 O239 1.227 . S
C238 O248 1.265 . S
O239 C238 1.227 . S
N240 Co237 2.121 . S
N240 C242 1.375 . S
N240 C243 1.313 . S
C241 C242 1.338 . S
C241 N244 1.377 . S
C241 H261 0.930 . S
C242 N240 1.375 . S
C242 C241 1.338 . S
C242 H246 0.931 . S
C243 N240 1.313 . S
C243 N244 1.344 . S
C243 H247 0.930 . S
N244 C241 1.377 . S
N244 C243 1.344 . S
O245 Co237 2.055 . S
O245 C249 1.253 . S
H246 C242 0.931 . S
H247 C243 0.930 . S
O248 Co237 2.039 . S
O248 C238 1.265 . S
C249 O245 1.253 . S
C249 O250 1.227 . S
O250 C249 1.227 . S
N251 Co237 2.140 . S
N251 C254 1.346 . S
N251 C255 1.345 . S
C252 C253 1.387 . S
C252 C256 1.391 . S
C253 C252 1.387 . S
C253 C254 1.369 . S
C253 H262 0.929 . S
C254 N251 1.346 . S
C254 C253 1.369 . S
C254 H257 0.928 . S
C255 N251 1.345 . S
C255 C256 1.371 . S
C255 H258 0.931 . S
C256 C252 1.391 . S
C256 C255 1.371 . S
C256 H263 0.930 . S
H257 C254 0.928 . S
H258 C255 0.931 . S
H259 C235 0.930 . S
H260 C232 0.930 . S
H261 C241 0.930 . S
H262 C253 0.929 . S
H263 C256 0.930 . S
C264 C265 1.351 . S
C264 N267 1.379 . S
C264 H269 0.931 . S
C265 C264 1.351 . S
C265 N266 1.373 . S
C265 H293 0.930 . S
N266 C265 1.373 . S
N266 C268 1.340 . S
N267 C264 1.379 . S
N267 C268 1.327 . S
N267 Co270 2.121 1_545 S
C268 N266 1.340 . S
C268 N267 1.327 . S
C268 H292 0.930 . S
H269 C264 0.931 . S
Co270 N267 2.121 1_565 S
Co270 N273 2.121 . S
Co270 O278 2.055 . S
Co270 O281 2.039 . S
Co270 N284 2.140 . S
C271 O272 1.227 . S
C271 O281 1.265 . S
O272 C271 1.227 . S
N273 Co270 2.121 . S
N273 C275 1.375 . S
N273 C276 1.313 . S
C274 C275 1.338 . S
C274 N277 1.377 . S
C274 H294 0.930 . S
C275 N273 1.375 . S
C275 C274 1.338 . S
C275 H279 0.931 . S
C276 N273 1.313 . S
C276 N277 1.344 . S
C276 H280 0.930 . S
N277 C274 1.377 . S
N277 C276 1.344 . S
O278 Co270 2.055 . S
O278 C282 1.253 . S
H279 C275 0.931 . S
H280 C276 0.930 . S
O281 Co270 2.039 . S
O281 C271 1.265 . S
C282 O278 1.253 . S
C282 O283 1.227 . S
O283 C282 1.227 . S
N284 Co270 2.140 . S
N284 C287 1.346 . S
N284 C288 1.345 . S
C285 C286 1.387 . S
C285 C289 1.391 . S
C286 C285 1.387 . S
C286 C287 1.369 . S
C286 H295 0.929 . S
C287 N284 1.346 . S
C287 C286 1.369 . S
C287 H290 0.928 . S
C288 N284 1.345 . S
C288 C289 1.371 . S
C288 H291 0.931 . S
C289 C285 1.391 . S
C289 C288 1.371 . S
C289 H296 0.930 . S
H290 C287 0.928 . S
H291 C288 0.931 . S
H292 C268 0.930 . S
H293 C265 0.930 . S
H294 C274 0.930 . S
H295 C286 0.929 . S
H296 C289 0.930 . S
C297 C298 1.351 . S
C297 N300 1.368 . S
C297 H302 0.931 . S
C298 C297 1.351 . S
C298 N299 1.373 . S
C298 H326 0.930 . S
N299 C298 1.373 . S
N299 C301 1.340 . S
N300 C297 1.368 . S
N300 C301 1.321 . S
N300 Co303 2.135 . S
C301 N299 1.340 . S
C301 N300 1.321 . S
C301 H325 0.930 . S
H302 C297 0.931 . S
Co303 N300 2.135 . S
Co303 N306 2.121 . S
Co303 O311 2.055 . S
Co303 O314 2.039 . S
Co303 N317 2.140 . S
C304 O305 1.227 . S
C304 O314 1.265 . S
O305 C304 1.227 . S
N306 Co303 2.121 . S
N306 C308 1.375 . S
N306 C309 1.313 . S
C307 C308 1.338 . S
C307 N310 1.377 . S
C307 H327 0.930 . S
C308 N306 1.375 . S
C308 C307 1.338 . S
C308 H312 0.931 . S
C309 N306 1.313 . S
C309 N310 1.344 . S
C309 H313 0.930 . S
N310 C307 1.377 . S
N310 C309 1.344 . S
O311 Co303 2.055 . S
O311 C315 1.253 . S
H312 C308 0.931 . S
H313 C309 0.930 . S
O314 Co303 2.039 . S
O314 C304 1.265 . S
C315 O311 1.253 . S
C315 O316 1.227 . S
O316 C315 1.227 . S
N317 Co303 2.140 . S
N317 C320 1.346 . S
N317 C321 1.345 . S
C318 C319 1.387 . S
C318 C322 1.391 . S
C319 C318 1.387 . S
C319 C320 1.369 . S
C319 H328 0.929 . S
C320 N317 1.346 . S
C320 C319 1.369 . S
C320 H323 0.928 . S
C321 N317 1.345 . S
C321 C322 1.371 . S
C321 H324 0.931 . S
C322 C318 1.391 . S
C322 C321 1.371 . S
C322 H329 0.930 . S
H323 C320 0.928 . S
H324 C321 0.931 . S
H325 C301 0.930 . S
H326 C298 0.930 . S
H327 C307 0.930 . S
H328 C319 0.929 . S
H329 C322 0.930 . S
C330 C331 1.351 . S
C330 N333 1.368 . S
C330 H335 0.931 . S
C331 C330 1.351 . S
C331 N332 1.373 . S
C331 H359 0.930 . S
N332 C331 1.373 . S
N332 C334 1.340 . S
N333 C330 1.368 . S
N333 C334 1.321 . S
N333 Co336 2.135 . S
C334 N332 1.340 . S
C334 N333 1.321 . S
C334 H358 0.930 . S
H335 C330 0.931 . S
Co336 N333 2.135 . S
Co336 N339 2.121 . S
Co336 O344 2.055 . S
Co336 O347 2.039 . S
Co336 N350 2.140 . S
C337 O338 1.227 . S
C337 O347 1.265 . S
O338 C337 1.227 . S
N339 Co336 2.121 . S
N339 C341 1.375 . S
N339 C342 1.313 . S
C340 C341 1.338 . S
C340 N343 1.377 . S
C340 H360 0.930 . S
C341 N339 1.375 . S
C341 C340 1.338 . S
C341 H345 0.931 . S
C342 N339 1.313 . S
C342 N343 1.344 . S
C342 H346 0.930 . S
N343 C340 1.377 . S
N343 C342 1.344 . S
O344 Co336 2.055 . S
O344 C348 1.253 . S
H345 C341 0.931 . S
H346 C342 0.930 . S
O347 Co336 2.039 . S
O347 C337 1.265 . S
C348 O344 1.253 . S
C348 O349 1.227 . S
O349 C348 1.227 . S
N350 Co336 2.140 . S
N350 C353 1.346 . S
N350 C354 1.345 . S
C351 C352 1.387 . S
C351 C355 1.391 . S
C352 C351 1.387 . S
C352 C353 1.369 . S
C352 H361 0.929 . S
C353 N350 1.346 . S
C353 C352 1.369 . S
C353 H356 0.928 . S
C354 N350 1.345 . S
C354 C355 1.371 . S
C354 H357 0.931 . S
C355 C351 1.391 . S
C355 C354 1.371 . S
C355 H362 0.930 . S
H356 C353 0.928 . S
H357 C354 0.931 . S
H358 C334 0.930 . S
H359 C331 0.930 . S
H360 C340 0.930 . S
H361 C352 0.929 . S
H362 C355 0.930 . S
C363 C364 1.351 . S
C363 N366 1.379 . S
C363 H368 0.931 . S
C364 C363 1.351 . S
C364 N365 1.373 . S
C364 H392 0.930 . S
N365 C364 1.373 . S
N365 C367 1.340 . S
N366 C363 1.379 . S
N366 C367 1.327 . S
N366 Co369 2.121 1_455 S
C367 N365 1.340 . S
C367 N366 1.327 . S
C367 H391 0.930 . S
H368 C363 0.931 . S
Co369 N366 2.121 1_655 S
Co369 N372 2.121 . S
Co369 O377 2.055 . S
Co369 O380 2.039 . S
Co369 N383 2.140 . S
C370 O371 1.227 . S
C370 O380 1.265 . S
O371 C370 1.227 . S
N372 Co369 2.121 . S
N372 C374 1.375 . S
N372 C375 1.313 . S
C373 C374 1.338 . S
C373 N376 1.377 . S
C373 H393 0.930 . S
C374 N372 1.375 . S
C374 C373 1.338 . S
C374 H378 0.931 . S
C375 N372 1.313 . S
C375 N376 1.344 . S
C375 H379 0.930 . S
N376 C373 1.377 . S
N376 C375 1.344 . S
O377 Co369 2.055 . S
O377 C381 1.253 . S
H378 C374 0.931 . S
H379 C375 0.930 . S
O380 Co369 2.039 . S
O380 C370 1.265 . S
C381 O377 1.253 . S
C381 O382 1.227 . S
O382 C381 1.227 . S
N383 Co369 2.140 . S
N383 C386 1.346 . S
N383 C387 1.345 . S
C384 C385 1.387 . S
C384 C388 1.391 . S
C385 C384 1.387 . S
C385 C386 1.369 . S
C385 H394 0.929 . S
C386 N383 1.346 . S
C386 C385 1.369 . S
C386 H389 0.928 . S
C387 N383 1.345 . S
C387 C388 1.371 . S
C387 H390 0.931 . S
C388 C384 1.391 . S
C388 C387 1.371 . S
C388 H395 0.930 . S
H389 C386 0.928 . S
H390 C387 0.931 . S
H391 C367 0.930 . S
H392 C364 0.930 . S
H393 C373 0.930 . S
H394 C385 0.929 . S
H395 C388 0.930 . S
C396 C397 1.351 . S
C396 N399 1.368 . S
C396 H401 0.931 . S
C397 C396 1.351 . S
C397 N398 1.373 . S
C397 H425 0.930 . S
N398 C397 1.373 . S
N398 C400 1.340 . S
N399 C396 1.368 . S
N399 C400 1.321 . S
N399 Co402 2.135 . S
C400 N398 1.340 . S
C400 N399 1.321 . S
C400 H424 0.930 . S
H401 C396 0.931 . S
Co402 N399 2.135 . S
Co402 N405 2.121 . S
Co402 O410 2.055 . S
Co402 O413 2.039 . S
Co402 N416 2.140 . S
C403 O404 1.227 . S
C403 O413 1.265 . S
O404 C403 1.227 . S
N405 Co402 2.121 . S
N405 C407 1.375 . S
N405 C408 1.313 . S
C406 C407 1.338 . S
C406 N409 1.377 . S
C406 H426 0.930 . S
C407 N405 1.375 . S
C407 C406 1.338 . S
C407 H411 0.931 . S
C408 N405 1.313 . S
C408 N409 1.344 . S
C408 H412 0.930 . S
N409 C406 1.377 . S
N409 C408 1.344 . S
O410 Co402 2.055 . S
O410 C414 1.253 . S
H411 C407 0.931 . S
H412 C408 0.930 . S
O413 Co402 2.039 . S
O413 C403 1.265 . S
C414 O410 1.253 . S
C414 O415 1.227 . S
O415 C414 1.227 . S
N416 Co402 2.140 . S
N416 C419 1.346 . S
N416 C420 1.345 . S
C417 C418 1.387 . S
C417 C421 1.391 . S
C418 C417 1.387 . S
C418 C419 1.369 . S
C418 H427 0.929 . S
C419 N416 1.346 . S
C419 C418 1.369 . S
C419 H422 0.928 . S
C420 N416 1.345 . S
C420 C421 1.371 . S
C420 H423 0.931 . S
C421 C417 1.391 . S
C421 C420 1.371 . S
C421 H428 0.930 . S
H422 C419 0.928 . S
H423 C420 0.931 . S
H424 C400 0.930 . S
H425 C397 0.930 . S
H426 C406 0.930 . S
H427 C418 0.929 . S
H428 C421 0.930 . S
C429 C430 1.351 . S
C429 N432 1.379 . S
C429 H434 0.931 . S
C430 C429 1.351 . S
C430 N431 1.373 . S
C430 H458 0.930 . S
N431 C430 1.373 . S
N431 C433 1.340 . S
N432 C429 1.379 . S
N432 C433 1.327 . S
N432 Co435 2.121 1_455 S
C433 N431 1.340 . S
C433 N432 1.327 . S
C433 H457 0.930 . S
H434 C429 0.931 . S
Co435 N432 2.121 1_655 S
Co435 N438 2.121 . S
Co435 O443 2.055 . S
Co435 O446 2.039 . S
Co435 N449 2.140 . S
C436 O437 1.227 . S
C436 O446 1.265 . S
O437 C436 1.227 . S
N438 Co435 2.121 . S
N438 C440 1.375 . S
N438 C441 1.313 . S
C439 C440 1.338 . S
C439 N442 1.377 . S
C439 H459 0.930 . S
C440 N438 1.375 . S
C440 C439 1.338 . S
C440 H444 0.931 . S
C441 N438 1.313 . S
C441 N442 1.344 . S
C441 H445 0.930 . S
N442 C439 1.377 . S
N442 C441 1.344 . S
O443 Co435 2.055 . S
O443 C447 1.253 . S
H444 C440 0.931 . S
H445 C441 0.930 . S
O446 Co435 2.039 . S
O446 C436 1.265 . S
C447 O443 1.253 . S
C447 O448 1.227 . S
O448 C447 1.227 . S
N449 Co435 2.140 . S
N449 C452 1.346 . S
N449 C453 1.345 . S
C450 C451 1.387 . S
C450 C454 1.391 . S
C451 C450 1.387 . S
C451 C452 1.369 . S
C451 H460 0.929 . S
C452 N449 1.346 . S
C452 C451 1.369 . S
C452 H455 0.928 . S
C453 N449 1.345 . S
C453 C454 1.371 . S
C453 H456 0.931 . S
C454 C450 1.391 . S
C454 C453 1.371 . S
C454 H461 0.930 . S
H455 C452 0.928 . S
H456 C453 0.931 . S
H457 C433 0.930 . S
H458 C430 0.930 . S
H459 C439 0.930 . S
H460 C451 0.929 . S
H461 C454 0.930 . S
C462 C463 1.351 . S
C462 N465 1.379 . S
C462 H467 0.931 . S
C463 C462 1.351 . S
C463 N464 1.373 . S
C463 H491 0.930 . S
N464 C463 1.373 . S
N464 C466 1.340 . S
N465 C462 1.379 . S
N465 C466 1.327 . S
N465 Co468 2.121 1_545 S
C466 N464 1.340 . S
C466 N465 1.327 . S
C466 H490 0.930 . S
H467 C462 0.931 . S
Co468 N465 2.121 1_565 S
Co468 N471 2.121 . S
Co468 O476 2.055 . S
Co468 O479 2.039 . S
Co468 N482 2.140 . S
C469 O470 1.227 . S
C469 O479 1.265 . S
O470 C469 1.227 . S
N471 Co468 2.121 . S
N471 C473 1.375 . S
N471 C474 1.313 . S
C472 C473 1.338 . S
C472 N475 1.377 . S
C472 H492 0.930 . S
C473 N471 1.375 . S
C473 C472 1.338 . S
C473 H477 0.931 . S
C474 N471 1.313 . S
C474 N475 1.344 . S
C474 H478 0.930 . S
N475 C472 1.377 . S
N475 C474 1.344 . S
O476 Co468 2.055 . S
O476 C480 1.253 . S
H477 C473 0.931 . S
H478 C474 0.930 . S
O479 Co468 2.039 . S
O479 C469 1.265 . S
C480 O476 1.253 . S
C480 O481 1.227 . S
O481 C480 1.227 . S
N482 Co468 2.140 . S
N482 C485 1.346 . S
N482 C486 1.345 . S
C483 C484 1.387 . S
C483 C487 1.391 . S
C484 C483 1.387 . S
C484 C485 1.369 . S
C484 H493 0.929 . S
C485 N482 1.346 . S
C485 C484 1.369 . S
C485 H488 0.928 . S
C486 N482 1.345 . S
C486 C487 1.371 . S
C486 H489 0.931 . S
C487 C483 1.391 . S
C487 C486 1.371 . S
C487 H494 0.930 . S
H488 C485 0.928 . S
H489 C486 0.931 . S
H490 C466 0.930 . S
H491 C463 0.930 . S
H492 C472 0.930 . S
H493 C484 0.929 . S
H494 C487 0.930 . S
C495 C496 1.351 . S
C495 N498 1.368 . S
C495 H500 0.931 . S
C496 C495 1.351 . S
C496 N497 1.373 . S
C496 H524 0.930 . S
N497 C496 1.373 . S
N497 C499 1.340 . S
N498 C495 1.368 . S
N498 C499 1.321 . S
N498 Co501 2.135 . S
C499 N497 1.340 . S
C499 N498 1.321 . S
C499 H523 0.930 . S
H500 C495 0.931 . S
Co501 N498 2.135 . S
Co501 N504 2.121 . S
Co501 O509 2.055 . S
Co501 O512 2.039 . S
Co501 N515 2.140 . S
C502 O503 1.227 . S
C502 O512 1.265 . S
O503 C502 1.227 . S
N504 Co501 2.121 . S
N504 C506 1.375 . S
N504 C507 1.313 . S
C505 C506 1.338 . S
C505 N508 1.377 . S
C505 H525 0.930 . S
C506 N504 1.375 . S
C506 C505 1.338 . S
C506 H510 0.931 . S
C507 N504 1.313 . S
C507 N508 1.344 . S
C507 H511 0.930 . S
N508 C505 1.377 . S
N508 C507 1.344 . S
O509 Co501 2.055 . S
O509 C513 1.253 . S
H510 C506 0.931 . S
H511 C507 0.930 . S
O512 Co501 2.039 . S
O512 C502 1.265 . S
C513 O509 1.253 . S
C513 O514 1.227 . S
O514 C513 1.227 . S
N515 Co501 2.140 . S
N515 C518 1.346 . S
N515 C519 1.345 . S
C516 C517 1.387 . S
C516 C520 1.391 . S
C517 C516 1.387 . S
C517 C518 1.369 . S
C517 H526 0.929 . S
C518 N515 1.346 . S
C518 C517 1.369 . S
C518 H521 0.928 . S
C519 N515 1.345 . S
C519 C520 1.371 . S
C519 H522 0.931 . S
C520 C516 1.391 . S
C520 C519 1.371 . S
C520 H527 0.930 . S
H521 C518 0.928 . S
H522 C519 0.931 . S
H523 C499 0.930 . S
H524 C496 0.930 . S
H525 C505 0.930 . S
H526 C517 0.929 . S
H527 C520 0.930 . S
H528 C534 0.930 . S
H529 C537 0.930 . S
H530 C538 0.930 . S
H531 C539 0.930 . S
H532 C542 0.930 . S
H533 C543 0.930 . S
C534 H528 0.930 . S
C534 C535 1.355 . S
C534 C536 1.415 . S
C535 C534 1.355 . S
C535 C537 1.419 . S
C536 C534 1.415 . S
C536 C541 1.425 . S
C536 C543 1.409 . S
C537 H529 0.930 . S
C537 C535 1.419 . S
C537 C538 1.362 . S
C538 H530 0.930 . S
C538 C537 1.362 . S
C538 C541 1.409 . S
C539 H531 0.930 . S
C539 C540 1.355 . S
C539 C541 1.415 . S
C540 C539 1.355 . S
C540 C542 1.419 . S
C541 C536 1.425 . S
C541 C538 1.409 . S
C541 C539 1.415 . S
C542 H532 0.930 . S
C542 C540 1.419 . S
C542 C543 1.362 . S
C543 H533 0.930 . S
C543 C536 1.409 . S
C543 C542 1.362 . S
H544 C550 0.930 . S
H545 C553 0.930 . S
H546 C554 0.930 . S
H547 C555 0.930 . S
H548 C558 0.930 . S
H549 C559 0.930 . S
C550 H544 0.930 . S
C550 C551 1.355 . S
C550 C552 1.415 . S
C551 C550 1.355 . S
C551 C553 1.419 . S
C552 C550 1.415 . S
C552 C557 1.425 . S
C552 C559 1.409 . S
C553 H545 0.930 . S
C553 C551 1.419 . S
C553 C554 1.362 . S
C554 H546 0.930 . S
C554 C553 1.362 . S
C554 C557 1.409 . S
C555 H547 0.930 . S
C555 C556 1.355 . S
C555 C557 1.415 . S
C556 C555 1.355 . S
C556 C558 1.419 . S
C557 C552 1.425 . S
C557 C554 1.409 . S
C557 C555 1.415 . S
C558 H548 0.930 . S
C558 C556 1.419 . S
C558 C559 1.362 . S
C559 H549 0.930 . S
C559 C552 1.409 . S
C559 C558 1.362 . S
H560 C566 0.930 . S
H561 C569 0.930 . S
H562 C570 0.930 . S
H563 C571 0.930 . S
H564 C574 0.930 . S
H565 C575 0.930 . S
C566 H560 0.930 . S
C566 C567 1.355 . S
C566 C568 1.415 . S
C567 C566 1.355 . S
C567 C569 1.419 . S
C568 C566 1.415 . S
C568 C573 1.425 . S
C568 C575 1.409 . S
C569 H561 0.930 . S
C569 C567 1.419 . S
C569 C570 1.362 . S
C570 H562 0.930 . S
C570 C569 1.362 . S
C570 C573 1.409 . S
C571 H563 0.930 . S
C571 C572 1.355 . S
C571 C573 1.415 . S
C572 C571 1.355 . S
C572 C574 1.419 . S
C573 C568 1.425 . S
C573 C570 1.409 . S
C573 C571 1.415 . S
C574 H564 0.930 . S
C574 C572 1.419 . S
C574 C575 1.362 . S
C575 H565 0.930 . S
C575 C568 1.409 . S
C575 C574 1.362 . S
H576 C582 0.930 . S
H577 C585 0.930 . S
H578 C586 0.930 . S
H579 C587 0.930 . S
H580 C590 0.930 . S
H581 C591 0.930 . S
C582 H576 0.930 . S
C582 C583 1.355 . S
C582 C584 1.415 . S
C583 C582 1.355 . S
C583 C585 1.419 . S
C584 C582 1.415 . S
C584 C589 1.425 . S
C584 C591 1.409 . S
C585 H577 0.930 . S
C585 C583 1.419 . S
C585 C586 1.362 . S
C586 H578 0.930 . S
C586 C585 1.362 . S
C586 C589 1.409 . S
C587 H579 0.930 . S
C587 C588 1.355 . S
C587 C589 1.415 . S
C588 C587 1.355 . S
C588 C590 1.419 . S
C589 C584 1.425 . S
C589 C586 1.409 . S
C589 C587 1.415 . S
C590 H580 0.930 . S
C590 C588 1.419 . S
C590 C591 1.362 . S
C591 H581 0.930 . S
C591 C584 1.409 . S
C591 C590 1.362 . S
H592 C598 0.930 . S
H593 C601 0.930 . S
H594 C602 0.930 . S
H595 C603 0.930 . S
H596 C606 0.930 . S
H597 C607 0.930 . S
C598 H592 0.930 . S
C598 C599 1.355 . S
C598 C600 1.415 . S
C599 C598 1.355 . S
C599 C601 1.419 . S
C600 C598 1.415 . S
C600 C605 1.425 . S
C600 C607 1.409 . S
C601 H593 0.930 . S
C601 C599 1.419 . S
C601 C602 1.362 . S
C602 H594 0.930 . S
C602 C601 1.362 . S
C602 C605 1.409 . S
C603 H595 0.930 . S
C603 C604 1.355 . S
C603 C605 1.415 . S
C604 C603 1.355 . S
C604 C606 1.419 . S
C605 C600 1.425 . S
C605 C602 1.409 . S
C605 C603 1.415 . S
C606 H596 0.930 . S
C606 C604 1.419 . S
C606 C607 1.362 . S
C607 H597 0.930 . S
C607 C600 1.409 . S
C607 C606 1.362 . S
H608 C614 0.930 . S
H609 C617 0.930 . S
H610 C618 0.930 . S
H611 C619 0.930 . S
H612 C622 0.930 . S
H613 C623 0.930 . S
C614 H608 0.930 . S
C614 C615 1.355 . S
C614 C616 1.415 . S
C615 C614 1.355 . S
C615 C617 1.419 . S
C616 C614 1.415 . S
C616 C621 1.425 . S
C616 C623 1.409 . S
C617 H609 0.930 . S
C617 C615 1.419 . S
C617 C618 1.362 . S
C618 H610 0.930 . S
C618 C617 1.362 . S
C618 C621 1.409 . S
C619 H611 0.930 . S
C619 C620 1.355 . S
C619 C621 1.415 . S
C620 C619 1.355 . S
C620 C622 1.419 . S
C621 C616 1.425 . S
C621 C618 1.409 . S
C621 C619 1.415 . S
C622 H612 0.930 . S
C622 C620 1.419 . S
C622 C623 1.362 . S
C623 H613 0.930 . S
C623 C616 1.409 . S
C623 C622 1.362 . S
H624 C630 0.930 . S
H625 C633 0.930 . S
H626 C634 0.930 . S
H627 C635 0.930 . S
H628 C638 0.930 . S
H629 C639 0.930 . S
C630 H624 0.930 . S
C630 C631 1.355 . S
C630 C632 1.415 . S
C631 C630 1.355 . S
C631 C633 1.419 . S
C632 C630 1.415 . S
C632 C637 1.425 . S
C632 C639 1.409 . S
C633 H625 0.930 . S
C633 C631 1.419 . S
C633 C634 1.362 . S
C634 H626 0.930 . S
C634 C633 1.362 . S
C634 C637 1.409 . S
C635 H627 0.930 . S
C635 C636 1.355 . S
C635 C637 1.415 . S
C636 C635 1.355 . S
C636 C638 1.419 . S
C637 C632 1.425 . S
C637 C634 1.409 . S
C637 C635 1.415 . S
C638 H628 0.930 . S
C638 C636 1.419 . S
C638 C639 1.362 . S
C639 H629 0.930 . S
C639 C632 1.409 . S
C639 C638 1.362 . S
H640 C646 0.930 . S
H641 C649 0.930 . S
H642 C650 0.930 . S
H643 C651 0.930 . S
H644 C654 0.930 . S
H645 C655 0.930 . S
C646 H640 0.930 . S
C646 C647 1.355 . S
C646 C648 1.415 . S
C647 C646 1.355 . S
C647 C649 1.419 . S
C648 C646 1.415 . S
C648 C653 1.425 . S
C648 C655 1.409 . S
C649 H641 0.930 . S
C649 C647 1.419 . S
C649 C650 1.362 . S
C650 H642 0.930 . S
C650 C649 1.362 . S
C650 C653 1.409 . S
C651 H643 0.930 . S
C651 C652 1.355 . S
C651 C653 1.415 . S
C652 C651 1.355 . S
C652 C654 1.419 . S
C653 C648 1.425 . S
C653 C650 1.409 . S
C653 C651 1.415 . S
C654 H644 0.930 . S
C654 C652 1.419 . S
C654 C655 1.362 . S
C655 H645 0.930 . S
C655 C648 1.409 . S
C655 C654 1.362 . S
H656 C662 0.930 . S
H657 C665 0.930 . S
H658 C666 0.930 . S
H659 C667 0.930 . S
H660 C670 0.930 . S
H661 C671 0.930 . S
C662 H656 0.930 . S
C662 C663 1.355 . S
C662 C664 1.415 . S
C663 C662 1.355 . S
C663 C665 1.419 . S
C664 C662 1.415 . S
C664 C669 1.425 . S
C664 C671 1.409 . S
C665 H657 0.930 . S
C665 C663 1.419 . S
C665 C666 1.362 . S
C666 H658 0.930 . S
C666 C665 1.362 . S
C666 C669 1.409 . S
C667 H659 0.930 . S
C667 C668 1.355 . S
C667 C669 1.415 . S
C668 C667 1.355 . S
C668 C670 1.419 . S
C669 C664 1.425 . S
C669 C666 1.409 . S
C669 C667 1.415 . S
C670 H660 0.930 . S
C670 C668 1.419 . S
C670 C671 1.362 . S
C671 H661 0.930 . S
C671 C664 1.409 . S
C671 C670 1.362 . S
H672 C678 0.930 . S
H673 C681 0.930 . S
H674 C682 0.930 . S
H675 C683 0.930 . S
H676 C686 0.930 . S
H677 C687 0.930 . S
C678 H672 0.930 . S
C678 C679 1.355 . S
C678 C680 1.415 . S
C679 C678 1.355 . S
C679 C681 1.419 . S
C680 C678 1.415 . S
C680 C685 1.425 . S
C680 C687 1.409 . S
C681 H673 0.930 . S
C681 C679 1.419 . S
C681 C682 1.362 . S
C682 H674 0.930 . S
C682 C681 1.362 . S
C682 C685 1.409 . S
C683 H675 0.930 . S
C683 C684 1.355 . S
C683 C685 1.415 . S
C684 C683 1.355 . S
C684 C686 1.419 . S
C685 C680 1.425 . S
C685 C682 1.409 . S
C685 C683 1.415 . S
C686 H676 0.930 . S
C686 C684 1.419 . S
C686 C687 1.362 . S
C687 H677 0.930 . S
C687 C680 1.409 . S
C687 C686 1.362 . S
H688 C694 0.930 . S
H689 C697 0.930 . S
H690 C698 0.930 . S
H691 C699 0.930 . S
H692 C702 0.930 . S
H693 C703 0.930 . S
C694 H688 0.930 . S
C694 C695 1.355 . S
C694 C696 1.415 . S
C695 C694 1.355 . S
C695 C697 1.419 . S
C696 C694 1.415 . S
C696 C701 1.425 . S
C696 C703 1.409 . S
C697 H689 0.930 . S
C697 C695 1.419 . S
C697 C698 1.362 . S
C698 H690 0.930 . S
C698 C697 1.362 . S
C698 C701 1.409 . S
C699 H691 0.930 . S
C699 C700 1.355 . S
C699 C701 1.415 . S
C700 C699 1.355 . S
C700 C702 1.419 . S
C701 C696 1.425 . S
C701 C698 1.409 . S
C701 C699 1.415 . S
C702 H692 0.930 . S
C702 C700 1.419 . S
C702 C703 1.362 . S
C703 H693 0.930 . S
C703 C696 1.409 . S
C703 C702 1.362 . S
H704 C710 0.930 . S
H705 C713 0.930 . S
H706 C714 0.930 . S
H707 C715 0.930 . S
H708 C718 0.930 . S
H709 C719 0.930 . S
C710 H704 0.930 . S
C710 C711 1.355 . S
C710 C712 1.415 . S
C711 C710 1.355 . S
C711 C713 1.419 . S
C712 C710 1.415 . S
C712 C717 1.425 . S
C712 C719 1.409 . S
C713 H705 0.930 . S
C713 C711 1.419 . S
C713 C714 1.362 . S
C714 H706 0.930 . S
C714 C713 1.362 . S
C714 C717 1.409 . S
C715 H707 0.930 . S
C715 C716 1.355 . S
C715 C717 1.415 . S
C716 C715 1.355 . S
C716 C718 1.419 . S
C717 C712 1.425 . S
C717 C714 1.409 . S
C717 C715 1.415 . S
C718 H708 0.930 . S
C718 C716 1.419 . S
C718 C719 1.362 . S
C719 H709 0.930 . S
C719 C712 1.409 . S
C719 C718 1.362 . S
H720 C726 0.930 . S
H721 C729 0.930 . S
H722 C730 0.930 . S
H723 C731 0.930 . S
H724 C734 0.930 . S
H725 C735 0.930 . S
C726 H720 0.930 . S
C726 C727 1.355 . S
C726 C728 1.415 . S
C727 C726 1.355 . S
C727 C729 1.419 . S
C728 C726 1.415 . S
C728 C733 1.425 . S
C728 C735 1.409 . S
C729 H721 0.930 . S
C729 C727 1.419 . S
C729 C730 1.362 . S
C730 H722 0.930 . S
C730 C729 1.362 . S
C730 C733 1.409 . S
C731 H723 0.930 . S
C731 C732 1.355 . S
C731 C733 1.415 . S
C732 C731 1.355 . S
C732 C734 1.419 . S
C733 C728 1.425 . S
C733 C730 1.409 . S
C733 C731 1.415 . S
C734 H724 0.930 . S
C734 C732 1.419 . S
C734 C735 1.362 . S
C735 H725 0.930 . S
C735 C728 1.409 . S
C735 C734 1.362 . S
H736 C742 0.930 . S
H737 C745 0.930 . S
H738 C746 0.930 . S
H739 C747 0.930 . S
H740 C750 0.930 . S
H741 C751 0.930 . S
C742 H736 0.930 . S
C742 C743 1.355 . S
C742 C744 1.415 . S
C743 C742 1.355 . S
C743 C745 1.419 . S
C744 C742 1.415 . S
C744 C749 1.425 . S
C744 C751 1.409 . S
C745 H737 0.930 . S
C745 C743 1.419 . S
C745 C746 1.362 . S
C746 H738 0.930 . S
C746 C745 1.362 . S
C746 C749 1.409 . S
C747 H739 0.930 . S
C747 C748 1.355 . S
C747 C749 1.415 . S
C748 C747 1.355 . S
C748 C750 1.419 . S
C749 C744 1.425 . S
C749 C746 1.409 . S
C749 C747 1.415 . S
C750 H740 0.930 . S
C750 C748 1.419 . S
C750 C751 1.362 . S
C751 H741 0.930 . S
C751 C744 1.409 . S
C751 C750 1.362 . S
H752 C758 0.930 . S
H753 C761 0.930 . S
H754 C762 0.930 . S
H755 C763 0.930 . S
H756 C766 0.930 . S
H757 C767 0.930 . S
C758 H752 0.930 . S
C758 C759 1.355 . S
C758 C760 1.415 . S
C759 C758 1.355 . S
C759 C761 1.419 . S
C760 C758 1.415 . S
C760 C765 1.425 . S
C760 C767 1.409 . S
C761 H753 0.930 . S
C761 C759 1.419 . S
C761 C762 1.362 . S
C762 H754 0.930 . S
C762 C761 1.362 . S
C762 C765 1.409 . S
C763 H755 0.930 . S
C763 C764 1.355 . S
C763 C765 1.415 . S
C764 C763 1.355 . S
C764 C766 1.419 . S
C765 C760 1.425 . S
C765 C762 1.409 . S
C765 C763 1.415 . S
C766 H756 0.930 . S
C766 C764 1.419 . S
C766 C767 1.362 . S
C767 H757 0.930 . S
C767 C760 1.409 . S
C767 C766 1.362 . S
H768 C774 0.930 . S
H769 C777 0.930 . S
H770 C778 0.930 . S
H771 C779 0.930 . S
H772 C782 0.930 . S
H773 C783 0.930 . S
C774 H768 0.930 . S
C774 C775 1.355 . S
C774 C776 1.415 . S
C775 C774 1.355 . S
C775 C777 1.419 . S
C776 C774 1.415 . S
C776 C781 1.425 . S
C776 C783 1.409 . S
C777 H769 0.930 . S
C777 C775 1.419 . S
C777 C778 1.362 . S
C778 H770 0.930 . S
C778 C777 1.362 . S
C778 C781 1.409 . S
C779 H771 0.930 . S
C779 C780 1.355 . S
C779 C781 1.415 . S
C780 C779 1.355 . S
C780 C782 1.419 . S
C781 C776 1.425 . S
C781 C778 1.409 . S
C781 C779 1.415 . S
C782 H772 0.930 . S
C782 C780 1.419 . S
C782 C783 1.362 . S
C783 H773 0.930 . S
C783 C776 1.409 . S
C783 C782 1.362 . S
H784 C790 0.930 . S
H785 C793 0.930 . S
H786 C794 0.930 . S
H787 C795 0.930 . S
H788 C798 0.930 . S
H789 C799 0.930 . S
C790 H784 0.930 . S
C790 C791 1.355 . S
C790 C792 1.415 . S
C791 C790 1.355 . S
C791 C793 1.419 . S
C792 C790 1.415 . S
C792 C797 1.425 . S
C792 C799 1.409 . S
C793 H785 0.930 . S
C793 C791 1.419 . S
C793 C794 1.362 . S
C794 H786 0.930 . S
C794 C793 1.362 . S
C794 C797 1.409 . S
C795 H787 0.930 . S
C795 C796 1.355 . S
C795 C797 1.415 . S
C796 C795 1.355 . S
C796 C798 1.419 . S
C797 C792 1.425 . S
C797 C794 1.409 . S
C797 C795 1.415 . S
C798 H788 0.930 . S
C798 C796 1.419 . S
C798 C799 1.362 . S
C799 H789 0.930 . S
C799 C792 1.409 . S
C799 C798 1.362 . S
H800 C806 0.930 . S
H801 C809 0.930 . S
H802 C810 0.930 . S
H803 C811 0.930 . S
H804 C814 0.930 . S
H805 C815 0.930 . S
C806 H800 0.930 . S
C806 C807 1.355 . S
C806 C808 1.415 . S
C807 C806 1.355 . S
C807 C809 1.419 . S
C808 C806 1.415 . S
C808 C813 1.425 . S
C808 C815 1.409 . S
C809 H801 0.930 . S
C809 C807 1.419 . S
C809 C810 1.362 . S
C810 H802 0.930 . S
C810 C809 1.362 . S
C810 C813 1.409 . S
C811 H803 0.930 . S
C811 C812 1.355 . S
C811 C813 1.415 . S
C812 C811 1.355 . S
C812 C814 1.419 . S
C813 C808 1.425 . S
C813 C810 1.409 . S
C813 C811 1.415 . S
C814 H804 0.930 . S
C814 C812 1.419 . S
C814 C815 1.362 . S
C815 H805 0.930 . S
C815 C808 1.409 . S
C815 C814 1.362 . S
H816 C822 0.930 . S
H817 C825 0.930 . S
H818 C826 0.930 . S
H819 C827 0.930 . S
H820 C830 0.930 . S
H821 C831 0.930 . S
C822 H816 0.930 . S
C822 C823 1.355 . S
C822 C824 1.415 . S
C823 C822 1.355 . S
C823 C825 1.419 . S
C824 C822 1.415 . S
C824 C829 1.425 . S
C824 C831 1.409 . S
C825 H817 0.930 . S
C825 C823 1.419 . S
C825 C826 1.362 . S
C826 H818 0.930 . S
C826 C825 1.362 . S
C826 C829 1.409 . S
C827 H819 0.930 . S
C827 C828 1.355 . S
C827 C829 1.415 . S
C828 C827 1.355 . S
C828 C830 1.419 . S
C829 C824 1.425 . S
C829 C826 1.409 . S
C829 C827 1.415 . S
C830 H820 0.930 . S
C830 C828 1.419 . S
C830 C831 1.362 . S
C831 H821 0.930 . S
C831 C824 1.409 . S
C831 C830 1.362 . S
H832 C838 0.930 . S
H833 C841 0.930 . S
H834 C842 0.930 . S
H835 C843 0.930 . S
H836 C846 0.930 . S
H837 C847 0.930 . S
C838 H832 0.930 . S
C838 C839 1.355 . S
C838 C840 1.415 . S
C839 C838 1.355 . S
C839 C841 1.419 . S
C840 C838 1.415 . S
C840 C845 1.425 . S
C840 C847 1.409 . S
C841 H833 0.930 . S
C841 C839 1.419 . S
C841 C842 1.362 . S
C842 H834 0.930 . S
C842 C841 1.362 . S
C842 C845 1.409 . S
C843 H835 0.930 . S
C843 C844 1.355 . S
C843 C845 1.415 . S
C844 C843 1.355 . S
C844 C846 1.419 . S
C845 C840 1.425 . S
C845 C842 1.409 . S
C845 C843 1.415 . S
C846 H836 0.930 . S
C846 C844 1.419 . S
C846 C847 1.362 . S
C847 H837 0.930 . S
C847 C840 1.409 . S
C847 C846 1.362 . S
H848 C854 0.930 . S
H849 C857 0.930 . S
H850 C858 0.930 . S
H851 C859 0.930 . S
H852 C862 0.930 . S
H853 C863 0.930 . S
C854 H848 0.930 . S
C854 C855 1.355 . S
C854 C856 1.415 . S
C855 C854 1.355 . S
C855 C857 1.419 . S
C856 C854 1.415 . S
C856 C861 1.425 . S
C856 C863 1.409 . S
C857 H849 0.930 . S
C857 C855 1.419 . S
C857 C858 1.362 . S
C858 H850 0.930 . S
C858 C857 1.362 . S
C858 C861 1.409 . S
C859 H851 0.930 . S
C859 C860 1.355 . S
C859 C861 1.415 . S
C860 C859 1.355 . S
C860 C862 1.419 . S
C861 C856 1.425 . S
C861 C858 1.409 . S
C861 C859 1.415 . S
C862 H852 0.930 . S
C862 C860 1.419 . S
C862 C863 1.362 . S
C863 H853 0.930 . S
C863 C856 1.409 . S
C863 C862 1.362 . S
H864 C870 0.930 . S
H865 C873 0.930 . S
H866 C874 0.930 . S
H867 C875 0.930 . S
H868 C878 0.930 . S
H869 C879 0.930 . S
C870 H864 0.930 . S
C870 C871 1.355 . S
C870 C872 1.415 . S
C871 C870 1.355 . S
C871 C873 1.419 . S
C872 C870 1.415 . S
C872 C877 1.425 . S
C872 C879 1.409 . S
C873 H865 0.930 . S
C873 C871 1.419 . S
C873 C874 1.362 . S
C874 H866 0.930 . S
C874 C873 1.362 . S
C874 C877 1.409 . S
C875 H867 0.930 . S
C875 C876 1.355 . S
C875 C877 1.415 . S
C876 C875 1.355 . S
C876 C878 1.419 . S
C877 C872 1.425 . S
C877 C874 1.409 . S
C877 C875 1.415 . S
C878 H868 0.930 . S
C878 C876 1.419 . S
C878 C879 1.362 . S
C879 H869 0.930 . S
C879 C872 1.409 . S
C879 C878 1.362 . S
H880 C886 0.930 . S
H881 C889 0.930 . S
H882 C890 0.930 . S
H883 C891 0.930 . S
H884 C894 0.930 . S
H885 C895 0.930 . S
C886 H880 0.930 . S
C886 C887 1.355 . S
C886 C888 1.415 . S
C887 C886 1.355 . S
C887 C889 1.419 . S
C888 C886 1.415 . S
C888 C893 1.425 . S
C888 C895 1.409 . S
C889 H881 0.930 . S
C889 C887 1.419 . S
C889 C890 1.362 . S
C890 H882 0.930 . S
C890 C889 1.362 . S
C890 C893 1.409 . S
C891 H883 0.930 . S
C891 C892 1.355 . S
C891 C893 1.415 . S
C892 C891 1.355 . S
C892 C894 1.419 . S
C893 C888 1.425 . S
C893 C890 1.409 . S
C893 C891 1.415 . S
C894 H884 0.930 . S
C894 C892 1.419 . S
C894 C895 1.362 . S
C895 H885 0.930 . S
C895 C888 1.409 . S
C895 C894 1.362 . S
H896 C902 0.930 . S
H897 C905 0.930 . S
H898 C906 0.930 . S
H899 C907 0.930 . S
H900 C910 0.930 . S
H901 C911 0.930 . S
C902 H896 0.930 . S
C902 C903 1.355 . S
C902 C904 1.415 . S
C903 C902 1.355 . S
C903 C905 1.419 . S
C904 C902 1.415 . S
C904 C909 1.425 . S
C904 C911 1.409 . S
C905 H897 0.930 . S
C905 C903 1.419 . S
C905 C906 1.362 . S
C906 H898 0.930 . S
C906 C905 1.362 . S
C906 C909 1.409 . S
C907 H899 0.930 . S
C907 C908 1.355 . S
C907 C909 1.415 . S
C908 C907 1.355 . S
C908 C910 1.419 . S
C909 C904 1.425 . S
C909 C906 1.409 . S
C909 C907 1.415 . S
C910 H900 0.930 . S
C910 C908 1.419 . S
C910 C911 1.362 . S
C911 H901 0.930 . S
C911 C904 1.409 . S
C911 C910 1.362 . S
H912 C918 0.930 . S
H913 C921 0.930 . S
H914 C922 0.930 . S
H915 C923 0.930 . S
H916 C926 0.930 . S
H917 C927 0.930 . S
C918 H912 0.930 . S
C918 C919 1.355 . S
C918 C920 1.415 . S
C919 C918 1.355 . S
C919 C921 1.419 . S
C920 C918 1.415 . S
C920 C925 1.425 . S
C920 C927 1.409 . S
C921 H913 0.930 . S
C921 C919 1.419 . S
C921 C922 1.362 . S
C922 H914 0.930 . S
C922 C921 1.362 . S
C922 C925 1.409 . S
C923 H915 0.930 . S
C923 C924 1.355 . S
C923 C925 1.415 . S
C924 C923 1.355 . S
C924 C926 1.419 . S
C925 C920 1.425 . S
C925 C922 1.409 . S
C925 C923 1.415 . S
C926 H916 0.930 . S
C926 C924 1.419 . S
C926 C927 1.362 . S
C927 H917 0.930 . S
C927 C920 1.409 . S
C927 C926 1.362 . S
H928 C934 0.930 . S
H929 C937 0.930 . S
H930 C938 0.930 . S
H931 C939 0.930 . S
H932 C942 0.930 . S
H933 C943 0.930 . S
C934 H928 0.930 . S
C934 C935 1.355 . S
C934 C936 1.415 . S
C935 C934 1.355 . S
C935 C937 1.419 . S
C936 C934 1.415 . S
C936 C941 1.425 . S
C936 C943 1.409 . S
C937 H929 0.930 . S
C937 C935 1.419 . S
C937 C938 1.362 . S
C938 H930 0.930 . S
C938 C937 1.362 . S
C938 C941 1.409 . S
C939 H931 0.930 . S
C939 C940 1.355 . S
C939 C941 1.415 . S
C940 C939 1.355 . S
C940 C942 1.419 . S
C941 C936 1.425 . S
C941 C938 1.409 . S
C941 C939 1.415 . S
C942 H932 0.930 . S
C942 C940 1.419 . S
C942 C943 1.362 . S
C943 H933 0.930 . S
C943 C936 1.409 . S
C943 C942 1.362 . S
H944 C950 0.930 . S
H945 C953 0.930 . S
H946 C954 0.930 . S
H947 C955 0.930 . S
H948 C958 0.930 . S
H949 C959 0.930 . S
C950 H944 0.930 . S
C950 C951 1.355 . S
C950 C952 1.415 . S
C951 C950 1.355 . S
C951 C953 1.419 . S
C952 C950 1.415 . S
C952 C957 1.425 . S
C952 C959 1.409 . S
C953 H945 0.930 . S
C953 C951 1.419 . S
C953 C954 1.362 . S
C954 H946 0.930 . S
C954 C953 1.362 . S
C954 C957 1.409 . S
C955 H947 0.930 . S
C955 C956 1.355 . S
C955 C957 1.415 . S
C956 C955 1.355 . S
C956 C958 1.419 . S
C957 C952 1.425 . S
C957 C954 1.409 . S
C957 C955 1.415 . S
C958 H948 0.930 . S
C958 C956 1.419 . S
C958 C959 1.362 . S
C959 H949 0.930 . S
C959 C952 1.409 . S
C959 C958 1.362 . S
H960 C966 0.930 . S
H961 C969 0.930 . S
H962 C970 0.930 . S
H963 C971 0.930 . S
H964 C974 0.930 . S
H965 C975 0.930 . S
C966 H960 0.930 . S
C966 C967 1.355 . S
C966 C968 1.415 . S
C967 C966 1.355 . S
C967 C969 1.419 . S
C968 C966 1.415 . S
C968 C973 1.425 . S
C968 C975 1.409 . S
C969 H961 0.930 . S
C969 C967 1.419 . S
C969 C970 1.362 . S
C970 H962 0.930 . S
C970 C969 1.362 . S
C970 C973 1.409 . S
C971 H963 0.930 . S
C971 C972 1.355 . S
C971 C973 1.415 . S
C972 C971 1.355 . S
C972 C974 1.419 . S
C973 C968 1.425 . S
C973 C970 1.409 . S
C973 C971 1.415 . S
C974 H964 0.930 . S
C974 C972 1.419 . S
C974 C975 1.362 . S
C975 H965 0.930 . S
C975 C968 1.409 . S
C975 C974 1.362 . S
H976 C982 0.930 . S
H977 C985 0.930 . S
H978 C986 0.930 . S
H979 C987 0.930 . S
H980 C990 0.930 . S
H981 C991 0.930 . S
C982 H976 0.930 . S
C982 C983 1.355 . S
C982 C984 1.415 . S
C983 C982 1.355 . S
C983 C985 1.419 . S
C984 C982 1.415 . S
C984 C989 1.425 . S
C984 C991 1.409 . S
C985 H977 0.930 . S
C985 C983 1.419 . S
C985 C986 1.362 . S
C986 H978 0.930 . S
C986 C985 1.362 . S
C986 C989 1.409 . S
C987 H979 0.930 . S
C987 C988 1.355 . S
C987 C989 1.415 . S
C988 C987 1.355 . S
C988 C990 1.419 . S
C989 C984 1.425 . S
C989 C986 1.409 . S
C989 C987 1.415 . S
C990 H980 0.930 . S
C990 C988 1.419 . S
C990 C991 1.362 . S
C991 H981 0.930 . S
C991 C984 1.409 . S
C991 C990 1.362 . S
H992 C998 0.930 . S
H993 C1001 0.930 . S
H994 C1002 0.930 . S
H995 C1003 0.930 . S
H996 C1006 0.930 . S
H997 C1007 0.930 . S
C998 H992 0.930 . S
C998 C999 1.355 . S
C998 C1000 1.415 . S
C999 C998 1.355 . S
C999 C1001 1.419 . S
C1000 C998 1.415 . S
C1000 C1005 1.425 . S
C1000 C1007 1.409 . S
C1001 H993 0.930 . S
C1001 C999 1.419 . S
C1001 C1002 1.362 . S
C1002 H994 0.930 . S
C1002 C1001 1.362 . S
C1002 C1005 1.409 . S
C1003 H995 0.930 . S
C1003 C1004 1.355 . S
C1003 C1005 1.415 . S
C1004 C1003 1.355 . S
C1004 C1006 1.419 . S
C1005 C1000 1.425 . S
C1005 C1002 1.409 . S
C1005 C1003 1.415 . S
C1006 H996 0.930 . S
C1006 C1004 1.419 . S
C1006 C1007 1.362 . S
C1007 H997 0.930 . S
C1007 C1000 1.409 . S
C1007 C1006 1.362 . S
H1008 C1014 0.930 . S
H1009 C1017 0.930 . S
H1010 C1018 0.930 . S
H1011 C1019 0.930 . S
H1012 C1022 0.930 . S
H1013 C1023 0.930 . S
C1014 H1008 0.930 . S
C1014 C1015 1.355 . S
C1014 C1016 1.415 . S
C1015 C1014 1.355 . S
C1015 C1017 1.419 . S
C1016 C1014 1.415 . S
C1016 C1021 1.425 . S
C1016 C1023 1.409 . S
C1017 H1009 0.930 . S
C1017 C1015 1.419 . S
C1017 C1018 1.362 . S
C1018 H1010 0.930 . S
C1018 C1017 1.362 . S
C1018 C1021 1.409 . S
C1019 H1011 0.930 . S
C1019 C1020 1.355 . S
C1019 C1021 1.415 . S
C1020 C1019 1.355 . S
C1020 C1022 1.419 . S
C1021 C1016 1.425 . S
C1021 C1018 1.409 . S
C1021 C1019 1.415 . S
C1022 H1012 0.930 . S
C1022 C1020 1.419 . S
C1022 C1023 1.362 . S
C1023 H1013 0.930 . S
C1023 C1016 1.409 . S
C1023 C1022 1.362 . S
H1024 C1030 0.930 . S
H1025 C1033 0.930 . S
H1026 C1034 0.930 . S
H1027 C1035 0.930 . S
H1028 C1038 0.930 . S
H1029 C1039 0.930 . S
C1030 H1024 0.930 . S
C1030 C1031 1.355 . S
C1030 C1032 1.415 . S
C1031 C1030 1.355 . S
C1031 C1033 1.419 . S
C1032 C1030 1.415 . S
C1032 C1037 1.425 . S
C1032 C1039 1.409 . S
C1033 H1025 0.930 . S
C1033 C1031 1.419 . S
C1033 C1034 1.362 . S
C1034 H1026 0.930 . S
C1034 C1033 1.362 . S
C1034 C1037 1.409 . S
C1035 H1027 0.930 . S
C1035 C1036 1.355 . S
C1035 C1037 1.415 . S
C1036 C1035 1.355 . S
C1036 C1038 1.419 . S
C1037 C1032 1.425 . S
C1037 C1034 1.409 . S
C1037 C1035 1.415 . S
C1038 H1028 0.930 . S
C1038 C1036 1.419 . S
C1038 C1039 1.362 . S
C1039 H1029 0.930 . S
C1039 C1032 1.409 . S
C1039 C1038 1.362 . S
H1040 C1046 0.930 . S
H1041 C1049 0.930 . S
H1042 C1050 0.930 . S
H1043 C1051 0.930 1_565 S
H1044 C1054 0.930 . S
H1045 C1055 0.930 . S
C1046 H1040 0.930 . S
C1046 C1047 1.355 . S
C1046 C1048 1.415 . S
C1047 C1046 1.355 . S
C1047 C1049 1.419 1_545 S
C1048 C1046 1.415 . S
C1048 C1053 1.425 1_556 S
C1048 C1055 1.409 1_556 S
C1049 H1041 0.930 . S
C1049 C1047 1.419 1_565 S
C1049 C1050 1.362 . S
C1050 H1042 0.930 . S
C1050 C1049 1.362 . S
C1050 C1053 1.409 1_566 S
C1051 H1043 0.930 1_545 S
C1051 C1052 1.355 . S
C1051 C1053 1.415 . S
C1052 C1051 1.355 . S
C1052 C1054 1.419 . S
C1053 C1048 1.425 1_554 S
C1053 C1050 1.409 1_544 S
C1053 C1051 1.415 . S
C1054 H1044 0.930 . S
C1054 C1052 1.419 . S
C1054 C1055 1.362 . S
C1055 H1045 0.930 . S
C1055 C1048 1.409 1_554 S
C1055 C1054 1.362 . S
H1056 C1062 0.930 . S
H1057 C1065 0.930 . S
H1058 C1066 0.930 . S
H1059 C1067 0.930 . S
H1060 C1070 0.930 . S
H1061 C1071 0.930 . S
C1062 H1056 0.930 . S
C1062 C1063 1.355 . S
C1062 C1064 1.415 . S
C1063 C1062 1.355 . S
C1063 C1065 1.419 . S
C1064 C1062 1.415 . S
C1064 C1069 1.425 . S
C1064 C1071 1.409 . S
C1065 H1057 0.930 . S
C1065 C1063 1.419 . S
C1065 C1066 1.362 . S
C1066 H1058 0.930 . S
C1066 C1065 1.362 . S
C1066 C1069 1.409 . S
C1067 H1059 0.930 . S
C1067 C1068 1.355 . S
C1067 C1069 1.415 . S
C1068 C1067 1.355 . S
C1068 C1070 1.419 . S
C1069 C1064 1.425 . S
C1069 C1066 1.409 . S
C1069 C1067 1.415 . S
C1070 H1060 0.930 . S
C1070 C1068 1.419 . S
C1070 C1071 1.362 . S
C1071 H1061 0.930 . S
C1071 C1064 1.409 . S
C1071 C1070 1.362 . S
H1072 C1078 0.930 . S
H1073 C1081 0.930 . S
H1074 C1082 0.930 . S
H1075 C1083 0.930 . S
H1076 C1086 0.930 . S
H1077 C1087 0.930 . S
C1078 H1072 0.930 . S
C1078 C1079 1.355 . S
C1078 C1080 1.415 . S
C1079 C1078 1.355 . S
C1079 C1081 1.419 . S
C1080 C1078 1.415 . S
C1080 C1085 1.425 1_554 S
C1080 C1087 1.409 1_554 S
C1081 H1073 0.930 . S
C1081 C1079 1.419 . S
C1081 C1082 1.362 . S
C1082 H1074 0.930 . S
C1082 C1081 1.362 . S
C1082 C1085 1.409 1_554 S
C1083 H1075 0.930 . S
C1083 C1084 1.355 . S
C1083 C1085 1.415 . S
C1084 C1083 1.355 . S
C1084 C1086 1.419 . S
C1085 C1080 1.425 1_556 S
C1085 C1082 1.409 1_556 S
C1085 C1083 1.415 . S
C1086 H1076 0.930 . S
C1086 C1084 1.419 . S
C1086 C1087 1.362 . S
C1087 H1077 0.930 . S
C1087 C1080 1.409 1_556 S
C1087 C1086 1.362 . S
H1088 C1094 0.930 1_655 S
H1089 C1097 0.930 . S
H1090 C1098 0.930 . S
H1091 C1099 0.930 . S
H1092 C1102 0.930 . S
H1093 C1103 0.930 . S
C1094 H1088 0.930 1_455 S
C1094 C1095 1.355 . S
C1094 C1096 1.415 . S
C1095 C1094 1.355 . S
C1095 C1097 1.419 . S
C1096 C1094 1.415 . S
C1096 C1101 1.425 . S
C1096 C1103 1.409 1_455 S
C1097 H1089 0.930 . S
C1097 C1095 1.419 . S
C1097 C1098 1.362 . S
C1098 H1090 0.930 . S
C1098 C1097 1.362 . S
C1098 C1101 1.409 . S
C1099 H1091 0.930 . S
C1099 C1100 1.355 . S
C1099 C1101 1.415 . S
C1100 C1099 1.355 . S
C1100 C1102 1.419 1_455 S
C1101 C1096 1.425 . S
C1101 C1098 1.409 . S
C1101 C1099 1.415 . S
C1102 H1092 0.930 . S
C1102 C1100 1.419 1_655 S
C1102 C1103 1.362 . S
C1103 H1093 0.930 . S
C1103 C1096 1.409 1_655 S
C1103 C1102 1.362 . S
H1104 C1110 0.930 1_545 S
H1105 C1113 0.930 . S
H1106 C1114 0.926 1_556 S
H1107 C1115 0.930 . S
H1108 C1118 0.930 1_545 S
H1109 C1119 0.941 1_554 S
C1110 H1104 0.930 1_565 S
C1110 C1111 1.355 . S
C1110 C1112 1.415 . S
C1111 C1110 1.355 . S
C1111 C1113 1.419 . S
C1112 C1110 1.415 . S
C1112 C1117 1.425 1_554 S
C1112 C1119 1.398 1_564 S
C1113 H1105 0.930 . S
C1113 C1111 1.419 . S
C1113 C1114 1.362 . S
C1114 H1106 0.926 1_554 S
C1114 C1113 1.362 . S
C1114 C1117 1.409 1_554 S
C1115 H1107 0.930 . S
C1115 C1116 1.355 . S
C1115 C1117 1.415 . S
C1116 C1115 1.355 . S
C1116 C1118 1.419 . S
C1117 C1112 1.425 1_556 S
C1117 C1114 1.409 1_556 S
C1117 C1115 1.415 . S
C1118 H1108 0.930 1_565 S
C1118 C1116 1.419 . S
C1118 C1119 1.359 1_565 S
C1119 H1109 0.941 1_556 S
C1119 C1112 1.398 1_546 S
C1119 C1118 1.359 1_545 S
H1120 C1126 0.930 . S
H1121 C1129 0.930 . S
H1122 C1130 0.930 . S
H1123 C1131 0.930 . S
H1124 C1134 0.930 . S
H1125 C1135 0.930 . S
C1126 H1120 0.930 . S
C1126 C1127 1.355 . S
C1126 C1128 1.415 . S
C1127 C1126 1.355 . S
C1127 C1129 1.419 . S
C1128 C1126 1.415 . S
C1128 C1133 1.425 . S
C1128 C1135 1.409 . S
C1129 H1121 0.930 . S
C1129 C1127 1.419 . S
C1129 C1130 1.362 . S
C1130 H1122 0.930 . S
C1130 C1129 1.362 . S
C1130 C1133 1.409 . S
C1131 H1123 0.930 . S
C1131 C1132 1.355 . S
C1131 C1133 1.415 . S
C1132 C1131 1.355 . S
C1132 C1134 1.419 . S
C1133 C1128 1.425 . S
C1133 C1130 1.409 . S
C1133 C1131 1.415 . S
C1134 H1124 0.930 . S
C1134 C1132 1.419 . S
C1134 C1135 1.362 . S
C1135 H1125 0.930 . S
C1135 C1128 1.409 . S
C1135 C1134 1.362 . S
H1136 C1142 0.930 . S
H1137 C1145 0.930 . S
H1138 C1146 0.930 . S
H1139 C1147 0.930 . S
H1140 C1150 0.930 . S
H1141 C1151 0.930 . S
C1142 H1136 0.930 . S
C1142 C1143 1.355 . S
C1142 C1144 1.415 . S
C1143 C1142 1.355 . S
C1143 C1145 1.419 . S
C1144 C1142 1.415 . S
C1144 C1149 1.425 1_554 S
C1144 C1151 1.409 1_554 S
C1145 H1137 0.930 . S
C1145 C1143 1.419 . S
C1145 C1146 1.362 . S
C1146 H1138 0.930 . S
C1146 C1145 1.362 . S
C1146 C1149 1.409 1_554 S
C1147 H1139 0.930 . S
C1147 C1148 1.355 . S
C1147 C1149 1.415 . S
C1148 C1147 1.355 . S
C1148 C1150 1.419 . S
C1149 C1144 1.425 1_556 S
C1149 C1146 1.409 1_556 S
C1149 C1147 1.415 . S
C1150 H1140 0.930 . S
C1150 C1148 1.419 . S
C1150 C1151 1.362 . S
C1151 H1141 0.930 . S
C1151 C1144 1.409 1_556 S
C1151 C1150 1.362 . S
H1152 C1158 0.930 . S
H1153 C1161 0.930 . S
H1154 C1162 0.930 . S
H1155 C1163 0.930 . S
H1156 C1166 0.930 . S
H1157 C1167 0.930 . S
C1158 H1152 0.930 . S
C1158 C1159 1.355 . S
C1158 C1160 1.415 . S
C1159 C1158 1.355 . S
C1159 C1161 1.419 . S
C1160 C1158 1.415 . S
C1160 C1165 1.425 . S
C1160 C1167 1.409 . S
C1161 H1153 0.930 . S
C1161 C1159 1.419 . S
C1161 C1162 1.362 . S
C1162 H1154 0.930 . S
C1162 C1161 1.362 . S
C1162 C1165 1.409 . S
C1163 H1155 0.930 . S
C1163 C1164 1.355 . S
C1163 C1165 1.415 . S
C1164 C1163 1.355 . S
C1164 C1166 1.419 . S
C1165 C1160 1.425 . S
C1165 C1162 1.409 . S
C1165 C1163 1.415 . S
C1166 H1156 0.930 . S
C1166 C1164 1.419 . S
C1166 C1167 1.362 . S
C1167 H1157 0.930 . S
C1167 C1160 1.409 . S
C1167 C1166 1.362 . S
C535 N2 1.994 . S
C540 N233 1.983 . S
C551 N134 2.002 . S
C556 N35 1.991 . S
C567 N167 1.983 . S
C572 N68 1.994 . S
C583 N101 1.989 . S
C588 N200 1.985 . S
C599 N266 1.998 . S
C604 N497 1.983 . S
C615 N299 1.988 . S
C620 N398 1.986 . S
C631 N431 1.990 . S
C636 N332 1.984 . S
C647 N365 1.987 . S
C652 N464 1.986 . S
C663 C7 1.035 . S
C668 C318 1.039 . S
C679 C351 0.931 . S
C684 C40 1.062 . S
C695 C384 1.000 . S
C700 C73 1.033 . S
C711 C285 0.873 . S
C716 C106 1.056 . S
C727 C516 1.003 . S
C732 C139 1.033 . S
C743 C417 1.004 . S
C748 C172 1.033 . S
C759 C450 0.873 . S
C764 C205 1.056 . S
C775 C483 0.946 . S
C780 C238 1.062 . S
C791 C54 1.044 . S
C796 C271 1.039 . S
C807 C87 0.934 . S
C812 C304 1.062 . S
C823 C120 0.884 . S
C828 C337 1.061 . S
C839 C370 1.060 . S
C844 C21 0.960 . S
C855 C252 1.018 . S
C860 C403 1.051 . S
C871 C153 1.029 . S
C876 C436 1.048 . S
C887 C186 1.031 . S
C892 C469 1.034 . S
C903 C219 1.022 . S
C908 C502 1.033 . S
C919 N79 1.094 . S
C924 N13 0.974 . S
C935 N46 0.936 . S
C940 N112 1.015 . S
C951 N211 0.959 . S
C956 N145 1.090 . S
C967 N244 1.014 . S
C972 N178 1.090 . S
C983 N343 0.969 . S
C988 N277 1.093 . S
C999 N376 1.027 . S
C1004 N310 1.085 . S
C1015 N409 1.061 . S
C1020 N475 0.932 . S
C1031 N508 0.960 . S
C1036 N442 1.090 . S
C1047 C216 1.317 . S
C1052 C18 1.278 . S
C1063 C249 1.309 . S
C1068 C51 1.326 . S
C1079 C84 1.327 . S
C1084 C150 1.300 . S
C1095 C183 1.273 . S
C1100 C117 1.307 . S
C1111 C480 1.307 . S
C1116 C282 1.325 . S
C1127 C513 1.327 . S
C1132 C315 1.296 . S
C1143 C414 1.273 . S
C1148 C348 1.305 . S
C1159 C381 1.324 . S
C1164 C447 1.312 . S
