# Generated by pormake.
# Topology wmi, (6)-cn, num edge types: 1
# Building blocks:
#     Node 0, Type 0, BuildingBlock: KUMBOL_clean_sbu_0, # of connection points: 6
#     Node 1, Type 0, BuildingBlock: KUMBOL_clean_sbu_0, # of connection points: 6
#     Node 2, Type 0, BuildingBlock: KUMBOL_clean_sbu_0, # of connection points: 6
#     Node 3, Type 0, BuildingBlock: KUMBOL_clean_sbu_0, # of connection points: 6
#     Node 4, Type 0, BuildingBlock: KUMBOL_clean_sbu_0, # of connection points: 6
#     Node 5, Type 0, BuildingBlock: KUMBOL_clean_sbu_0, # of connection points: 6
#     Node 6, Type 0, BuildingBlock: KUMBOL_clean_sbu_0, # of connection points: 6
#     Node 7, Type 0, BuildingBlock: KUMBOL_clean_sbu_0, # of connection points: 6
#     Node 8, Type 0, BuildingBlock: KUMBOL_clean_sbu_0, # of connection points: 6
#     Node 9, Type 0, BuildingBlock: KUMBOL_clean_sbu_0, # of connection points: 6
#     Node 10, Type 0, BuildingBlock: KUMBOL_clean_sbu_0, # of connection points: 6
#     Node 11, Type 0, BuildingBlock: KUMBOL_clean_sbu_0, # of connection points: 6
#     Node 12, Type 0, BuildingBlock: KUMBOL_clean_sbu_0, # of connection points: 6
#     Node 13, Type 0, BuildingBlock: KUMBOL_clean_sbu_0, # of connection points: 6
#     Node 14, Type 0, BuildingBlock: KUMBOL_clean_sbu_0, # of connection points: 6
#     Node 15, Type 0, BuildingBlock: KUMBOL_clean_sbu_0, # of connection points: 6
#     Node 16, Type 0, BuildingBlock: KUMBOL_clean_sbu_0, # of connection points: 6
#     Node 17, Type 0, BuildingBlock: KUMBOL_clean_sbu_0, # of connection points: 6
#     Edge 18, Type (0, 0), BuildingBlock: XUDNAN_clean_linker_2, # of connection points: 2
#     Edge 19, Type (0, 0), BuildingBlock: XUDNAN_clean_linker_2, # of connection points: 2
#     Edge 20, Type (0, 0), BuildingBlock: XUDNAN_clean_linker_2, # of connection points: 2
#     Edge 21, Type (0, 0), BuildingBlock: XUDNAN_clean_linker_2, # of connection points: 2
#     Edge 22, Type (0, 0), BuildingBlock: XUDNAN_clean_linker_2, # of connection points: 2
#     Edge 23, Type (0, 0), BuildingBlock: XUDNAN_clean_linker_2, # of connection points: 2
#     Edge 24, Type (0, 0), BuildingBlock: XUDNAN_clean_linker_2, # of connection points: 2
#     Edge 25, Type (0, 0), BuildingBlock: XUDNAN_clean_linker_2, # of connection points: 2
#     Edge 26, Type (0, 0), BuildingBlock: XUDNAN_clean_linker_2, # of connection points: 2
#     Edge 27, Type (0, 0), BuildingBlock: XUDNAN_clean_linker_2, # of connection points: 2
#     Edge 28, Type (0, 0), BuildingBlock: XUDNAN_clean_linker_2, # of connection points: 2
#     Edge 29, Type (0, 0), BuildingBlock: XUDNAN_clean_linker_2, # of connection points: 2
#     Edge 30, Type (0, 0), BuildingBlock: XUDNAN_clean_linker_2, # of connection points: 2
#     Edge 31, Type (0, 0), BuildingBlock: XUDNAN_clean_linker_2, # of connection points: 2
#     Edge 32, Type (0, 0), BuildingBlock: XUDNAN_clean_linker_2, # of connection points: 2
#     Edge 33, Type (0, 0), BuildingBlock: XUDNAN_clean_linker_2, # of connection points: 2
#     Edge 34, Type (0, 0), BuildingBlock: XUDNAN_clean_linker_2, # of connection points: 2
#     Edge 35, Type (0, 0), BuildingBlock: XUDNAN_clean_linker_2, # of connection points: 2
#     Edge 36, Type (0, 0), BuildingBlock: XUDNAN_clean_linker_2, # of connection points: 2
#     Edge 37, Type (0, 0), BuildingBlock: XUDNAN_clean_linker_2, # of connection points: 2
#     Edge 38, Type (0, 0), BuildingBlock: XUDNAN_clean_linker_2, # of connection points: 2
#     Edge 39, Type (0, 0), BuildingBlock: XUDNAN_clean_linker_2, # of connection points: 2
#     Edge 40, Type (0, 0), BuildingBlock: XUDNAN_clean_linker_2, # of connection points: 2
#     Edge 41, Type (0, 0), BuildingBlock: XUDNAN_clean_linker_2, # of connection points: 2
#     Edge 42, Type (0, 0), BuildingBlock: XUDNAN_clean_linker_2, # of connection points: 2
#     Edge 43, Type (0, 0), BuildingBlock: XUDNAN_clean_linker_2, # of connection points: 2
#     Edge 44, Type (0, 0), BuildingBlock: XUDNAN_clean_linker_2, # of connection points: 2
#     Edge 45, Type (0, 0), BuildingBlock: XUDNAN_clean_linker_2, # of connection points: 2
#     Edge 46, Type (0, 0), BuildingBlock: XUDNAN_clean_linker_2, # of connection points: 2
#     Edge 47, Type (0, 0), BuildingBlock: XUDNAN_clean_linker_2, # of connection points: 2
#     Edge 48, Type (0, 0), BuildingBlock: XUDNAN_clean_linker_2, # of connection points: 2
#     Edge 49, Type (0, 0), BuildingBlock: XUDNAN_clean_linker_2, # of connection points: 2
#     Edge 50, Type (0, 0), BuildingBlock: XUDNAN_clean_linker_2, # of connection points: 2
#     Edge 51, Type (0, 0), BuildingBlock: XUDNAN_clean_linker_2, # of connection points: 2
#     Edge 52, Type (0, 0), BuildingBlock: XUDNAN_clean_linker_2, # of connection points: 2
#     Edge 53, Type (0, 0), BuildingBlock: XUDNAN_clean_linker_2, # of connection points: 2
#     Edge 54, Type (0, 0), BuildingBlock: XUDNAN_clean_linker_2, # of connection points: 2
#     Edge 55, Type (0, 0), BuildingBlock: XUDNAN_clean_linker_2, # of connection points: 2
#     Edge 56, Type (0, 0), BuildingBlock: XUDNAN_clean_linker_2, # of connection points: 2
#     Edge 57, Type (0, 0), BuildingBlock: XUDNAN_clean_linker_2, # of connection points: 2
#     Edge 58, Type (0, 0), BuildingBlock: XUDNAN_clean_linker_2, # of connection points: 2
#     Edge 59, Type (0, 0), BuildingBlock: XUDNAN_clean_linker_2, # of connection points: 2
#     Edge 60, Type (0, 0), BuildingBlock: XUDNAN_clean_linker_2, # of connection points: 2
#     Edge 61, Type (0, 0), BuildingBlock: XUDNAN_clean_linker_2, # of connection points: 2
#     Edge 62, Type (0, 0), BuildingBlock: XUDNAN_clean_linker_2, # of connection points: 2
#     Edge 63, Type (0, 0), BuildingBlock: XUDNAN_clean_linker_2, # of connection points: 2
#     Edge 64, Type (0, 0), BuildingBlock: XUDNAN_clean_linker_2, # of connection points: 2
#     Edge 65, Type (0, 0), BuildingBlock: XUDNAN_clean_linker_2, # of connection points: 2
#     Edge 66, Type (0, 0), BuildingBlock: XUDNAN_clean_linker_2, # of connection points: 2
#     Edge 67, Type (0, 0), BuildingBlock: XUDNAN_clean_linker_2, # of connection points: 2
#     Edge 68, Type (0, 0), BuildingBlock: XUDNAN_clean_linker_2, # of connection points: 2
#     Edge 69, Type (0, 0), BuildingBlock: XUDNAN_clean_linker_2, # of connection points: 2
#     Edge 70, Type (0, 0), BuildingBlock: XUDNAN_clean_linker_2, # of connection points: 2
#     Edge 71, Type (0, 0), BuildingBlock: XUDNAN_clean_linker_2, # of connection points: 2
# Relax obj value: 0.082
# Max RMSD: 0.198
# Mean RMSD: 0.198
data_MOF--net-wmi--node1-KUMBOL_clean_sbu_0--edge1-XUDNAN_clean_linker_2
_symmetry_space_group_name_H-M    P1
_symmetry_Int_Tables_number       1
_symmetry_cell_setting            triclinic
loop_
_symmetry_equiv_pos_as_xyz
'x, y, z'
_cell_length_a     38.541815
_cell_length_b     38.604867
_cell_length_c     82.350367
_cell_angle_alpha  90.000258
_cell_angle_beta   89.990282
_cell_angle_gamma 120.00426
loop_
_atom_site_label
_atom_site_type_symbol
_atom_site_fract_x
_atom_site_fract_y
_atom_site_fract_z
_atom_type_partial_charge
Gd0 Gd 0.44826 0.01621 0.08849 0.0
Gd1 Gd 0.55219 0.05687 0.1041 0.0
C2 C 0.6089 0.9843 0.12186 0.0
C3 C 0.6097 0.99299 0.1511 0.0
C4 C 0.58282 0.02435 0.13339 0.0
C5 C 0.59002 1.00736 0.11997 0.0
C6 C 0.59297 0.01774 0.1491 0.0
C7 C 0.61782 0.97644 0.1375 0.0
C8 C 0.6196 0.97104 0.10796 0.0
C9 C 0.61215 0.98149 0.09269 0.0
N10 N 0.58082 0.01534 0.105 0.0
C11 C 0.59259 1.00362 0.0914 0.0
H12 H 0.58748 1.01148 0.07945 0.0
C13 C 0.56327 0.06918 0.14377 0.0
N14 N 0.56736 0.04873 0.13103 0.0
C15 C 0.57237 0.06313 0.15958 0.0
C16 C 0.58697 0.03702 0.16228 0.0
H17 H 0.55192 0.08935 0.14178 0.0
H18 H 0.63184 0.95838 0.13917 0.0
H19 H 0.39289 0.02202 0.12027 0.0
H20 H 0.63452 0.95363 0.10888 0.0
H21 H 0.62186 0.97282 0.08191 0.0
H22 H 0.61746 0.98733 0.16307 0.0
H23 H 0.43459 0.01549 0.04746 0.0
H24 H 0.38329 0.12626 0.11317 0.0
H25 H 0.3731 0.06942 0.13024 0.0
H26 H 0.4189 0.15802 0.05744 0.0
H27 H 0.56824 0.0787 0.16966 0.0
H28 H 0.59429 0.03263 0.17453 0.0
H29 H 0.4022 0.16035 0.08608 0.0
H30 H 0.43291 0.06055 0.02667 0.0
N31 N 0.42029 0.05491 0.09853 0.0
C32 C 0.39351 0.10635 0.1089 0.0
C33 C 0.38777 0.07433 0.11859 0.0
C34 C 0.40914 0.11014 0.09328 0.0
C35 C 0.42146 0.08296 0.08823 0.0
C36 C 0.40007 0.048 0.11297 0.0
N37 N 0.43794 0.05212 0.06738 0.0
C38 C 0.43089 0.08169 0.07214 0.0
C39 C 0.43341 0.06753 0.03942 0.0
C40 C 0.43133 0.1011 0.04418 0.0
C41 C 0.43527 0.04252 0.05125 0.0
C42 C 0.42824 0.10755 0.06069 0.0
H43 H 0.42937 0.12019 0.03502 0.0
O44 O 0.40306 0.95952 0.09936 0.0
O45 O 0.49505 1.00322 0.09724 0.0
O46 O 0.55153 0.04589 0.07646 0.0
O47 O 0.48797 0.02968 0.06663 0.0
O48 O 0.45874 0.96652 0.07902 0.0
O49 O 0.39009 0.98036 0.07717 0.0
O50 O 0.60182 0.11524 0.11176 0.0
O51 O 0.50723 0.07164 0.09339 0.0
O52 O 0.45321 0.02403 0.11588 0.0
O53 O 0.50632 0.01549 0.12327 0.0
O54 O 0.53823 0.10338 0.11362 0.0
O55 O 0.60548 0.08966 0.08906 0.0
C56 C 0.48736 0.97283 0.08885 0.0
C57 C 0.42006 0.1373 0.06599 0.0
C58 C 0.41051 0.1386 0.08229 0.0
C59 C 0.37846 0.95039 0.08716 0.0
C60 C 0.36334 0.91036 0.07954 0.0
C61 C 0.37891 0.90745 0.06448 0.0
C62 C 0.33299 0.87499 0.08695 0.0
C63 C 0.31862 0.83716 0.07938 0.0
C64 C 0.36571 0.87041 0.0572 0.0
C65 C 0.33611 0.83563 0.06457 0.0
C66 C 0.52531 0.03772 0.06443 0.0
C67 C 0.51263 0.09985 0.1028 0.0
C68 C 0.62454 0.11894 0.09937 0.0
C69 C 0.66743 0.13115 0.10274 0.0
C70 C 0.67742 0.10128 0.10534 0.0
C71 C 0.69884 0.17199 0.10305 0.0
C72 C 0.7392 0.18188 0.10612 0.0
C73 C 0.71681 0.11085 0.10812 0.0
C74 C 0.74733 0.15059 0.10852 0.0
C75 C 0.47091 1.01228 0.12642 0.0
H76 H 0.40149 0.9339 0.05827 0.0
H77 H 0.32021 0.87713 0.09837 0.0
H78 H 0.37849 0.86864 0.04574 0.0
H79 H 0.32719 0.80737 0.05863 0.0
H80 H 0.65484 0.07023 0.10509 0.0
H81 H 0.69191 0.19564 0.10119 0.0
H82 H 0.72374 0.08722 0.11004 0.0
H83 H 0.77766 0.15698 0.11082 0.0
Gd84 Gd 0.08134 0.48212 0.09088 0.0
Gd85 Gd 1.01925 0.521 0.10559 0.0
C86 C 0.09258 0.65625 0.11322 0.0
C87 C 0.10094 0.66153 0.14247 0.0
C88 C 0.06316 0.596 0.12965 0.0
C89 C 0.07088 0.61406 0.11447 0.0
C90 C 0.07689 0.61986 0.14382 0.0
C91 C 0.10862 0.67969 0.1272 0.0
C92 C 0.09653 0.67382 0.09801 0.0
C93 C 0.07849 0.64962 0.08453 0.0
N94 N 0.05565 0.59075 0.101 0.0
C95 C 0.05809 0.60808 0.08623 0.0
H96 H 0.04363 0.59054 0.07564 0.0
C97 C 1.02209 0.5388 0.14537 0.0
N98 N 0.03906 0.55567 0.1307 0.0
C99 C 0.03555 0.56091 0.15972 0.0
C100 C 0.064 0.60145 0.15897 0.0
H101 H 0.99884 0.50771 0.14609 0.0
H102 H 0.12598 0.71202 0.12638 0.0
H103 H 0.08702 0.42504 0.12167 0.0
H104 H 0.11248 0.70605 0.09663 0.0
H105 H 0.08006 0.66295 0.0728 0.0
H106 H 0.11221 0.68013 0.15321 0.0
H107 H 0.06691 0.47344 0.04966 0.0
H108 H 0.99441 0.30447 0.11475 0.0
H109 H 0.0493 0.35618 0.13127 0.0
H110 H 0.94731 0.30469 0.06109 0.0
H111 H 0.02344 0.5468 0.17131 0.0
H112 H 0.07392 0.61873 0.17009 0.0
H113 H 0.956 0.28568 0.08863 0.0
H114 H 1.01909 0.42536 0.03027 0.0
N115 N 0.05162 0.41478 0.10024 0.0
C116 C 1.01049 0.33512 0.11049 0.0
C117 C 0.04123 0.36428 0.1199 0.0
C118 C 1.00227 0.34553 0.09532 0.0
C119 C 0.02414 0.38596 0.09034 0.0
C120 C 0.06209 0.40386 0.11445 0.0
N121 N 0.04207 0.43536 0.0703 0.0
C122 C 1.019 0.39664 0.07493 0.0
C123 C 1.0179 0.41702 0.0429 0.0
C124 C 0.99078 0.37827 0.04796 0.0
C125 C 0.04429 0.44481 0.05416 0.0
C126 C 0.99209 0.36722 0.064 0.0
H127 H 0.97056 0.35662 0.0392 0.0
O128 O 0.12477 0.49721 0.07139 0.0
O129 O 0.07954 0.53903 0.09535 0.0
O130 O 1.01659 0.52154 0.07794 0.0
O131 O 0.07241 0.51683 0.07069 0.0
O132 O 0.1273 0.53549 0.10499 0.0
O133 O 0.13206 0.47192 0.09341 0.0
O134 O 0.96036 0.49414 0.11723 0.0
O135 O 1.02053 0.46392 0.10185 0.0
O136 O 0.09135 0.48606 0.11747 0.0
O137 O 0.03977 0.4956 0.1271 0.0
O138 O 0.97479 0.46865 0.09096 0.0
O139 O 0.98112 0.54739 0.10272 0.0
C140 C 0.11218 0.55836 0.10313 0.0
C141 C 0.96853 0.32749 0.06923 0.0
C142 C 0.97357 0.31666 0.08489 0.0
C143 C 0.14869 0.48953 0.07981 0.0
C144 C 0.19123 0.52219 0.08074 0.0
C145 C 0.19985 0.56192 0.08248 0.0
C146 C 0.22343 0.5144 0.08022 0.0
C147 C 0.26345 0.54605 0.08209 0.0
C148 C 0.23902 0.59285 0.08478 0.0
C149 C 0.27058 0.58503 0.08469 0.0
C150 C 0.04217 0.52238 0.06695 0.0
C151 C 0.98737 0.44427 0.09431 0.0
C152 C 0.95154 0.52008 0.11115 0.0
C153 C 0.91049 0.50535 0.10446 0.0
C154 C 0.88977 0.46811 0.09668 0.0
C155 C 0.89173 0.52893 0.10579 0.0
C156 C 0.85283 0.5155 0.0993 0.0
C157 C 0.85177 0.45485 0.09015 0.0
C158 C 0.83348 0.47814 0.09142 0.0
C159 C 0.0699 0.48827 0.12937 0.0
H160 H 0.17623 0.56914 0.08203 0.0
H161 H 0.21744 0.48409 0.07842 0.0
H162 H 0.24499 0.62312 0.0865 0.0
H163 H 0.30087 0.6098 0.08611 0.0
H164 H 0.90269 0.44898 0.09568 0.0
H165 H 0.90752 0.55769 0.11181 0.0
H166 H 0.83614 0.42603 0.08419 0.0
H167 H 0.80351 0.46617 0.08659 0.0
Gd168 Gd 0.61824 0.64388 0.08663 0.0
Gd169 Gd 0.55983 0.5381 0.09933 0.0
C170 C 0.4244 0.47295 0.1073 0.0
C171 C 0.41932 0.47021 0.13674 0.0
C172 C 0.48465 0.50249 0.12365 0.0
C173 C 0.46655 0.49471 0.10856 0.0
C174 C 0.46125 0.48977 0.13791 0.0
C175 C 0.40093 0.4614 0.12146 0.0
C176 C 0.40713 0.46162 0.09187 0.0
C177 C 0.43177 0.47019 0.0783 0.0
N178 N 0.49011 0.50458 0.09515 0.0
C179 C 0.47342 0.49126 0.0802 0.0
H180 H 0.49218 0.49748 0.06963 0.0
C181 C 0.54381 0.52209 0.13876 0.0
N182 N 0.52507 0.51917 0.12428 0.0
C183 C 0.52202 0.5111 0.15326 0.0
C184 C 0.48059 0.49524 0.15286 0.0
H185 H 0.57582 0.53418 0.13919 0.0
H186 H 0.36852 0.44486 0.12072 0.0
H187 H 0.69057 0.669 0.11443 0.0
H188 H 0.37488 0.44506 0.09038 0.0
H189 H 0.41874 0.46058 0.06635 0.0
H190 H 0.40083 0.46034 0.14755 0.0
H191 H 0.59883 0.67412 0.05102 0.0
H192 H 0.80341 0.72123 0.08988 0.0
H193 H 0.76385 0.69771 0.11522 0.0
H194 H 0.77002 0.73928 0.03572 0.0
H195 H 0.53717 0.51457 0.16472 0.0
H196 H 0.46368 0.48604 0.16409 0.0
H197 H 0.80533 0.73611 0.06007 0.0
H198 H 0.63441 0.70706 0.02593 0.0
N199 N 0.6882 0.67361 0.08878 0.0
C200 C 0.77115 0.70817 0.08944 0.0
C201 C 0.74895 0.69504 0.10377 0.0
C202 C 0.75168 0.70633 0.07485 0.0
C203 C 0.70962 0.68895 0.07496 0.0
C204 C 0.70734 0.67853 0.10325 0.0
N205 N 0.64967 0.67599 0.06222 0.0
C206 C 0.68978 0.69056 0.06126 0.0
C207 C 0.65027 0.70221 0.0357 0.0
C208 C 0.69094 0.71486 0.0341 0.0
C209 C 0.63005 0.68306 0.04997 0.0
C210 C 0.71142 0.70982 0.04708 0.0
H211 H 0.70649 0.72962 0.02302 0.0
O212 O 0.58505 0.67584 0.08809 0.0
O213 O 0.55762 0.59141 0.09115 0.0
O214 O 0.56645 0.54495 0.07104 0.0
O215 O 0.62313 0.60774 0.0666 0.0
O216 O 0.56292 0.62609 0.07122 0.0
O217 O 0.64435 0.70253 0.09822 0.0
O218 O 0.57534 0.49401 0.10788 0.0
O219 O 0.62127 0.5887 0.09356 0.0
O220 O 0.61732 0.63589 0.11363 0.0
O221 O 0.55501 0.58043 0.11792 0.0
O222 O 0.61563 0.55439 0.11363 0.0
O223 O 0.54436 0.48431 0.08516 0.0
C224 C 0.53833 0.59518 0.07954 0.0
C225 C 0.75297 0.72489 0.04658 0.0
C226 C 0.77307 0.72306 0.06044 0.0
C227 C 0.61421 0.70759 0.09466 0.0
C228 C 0.62292 0.74607 0.08724 0.0
C229 C 0.6535 0.76482 0.07567 0.0
C230 C 0.59905 0.76326 0.09112 0.0
C231 C 0.6052 0.79845 0.08323 0.0
C232 C 0.65965 0.79948 0.06782 0.0
C233 C 0.63565 0.81609 0.07148 0.0
C234 C 0.59497 0.57228 0.06131 0.0
C235 C 0.64093 0.58358 0.10479 0.0
C236 C 0.55755 0.46901 0.09598 0.0
C237 C 0.53003 0.42646 0.10067 0.0
C238 C 0.49554 0.41705 0.10963 0.0
C239 C 0.53802 0.39521 0.09675 0.0
C240 C 0.51171 0.35532 0.10207 0.0
C241 C 0.46935 0.37804 0.1146 0.0
C242 C 0.47728 0.3475 0.1109 0.0
C243 C 0.58471 0.61626 0.1224 0.0
H244 H 0.67252 0.75259 0.07261 0.0
H245 H 0.57537 0.7489 0.10005 0.0
H246 H 0.68322 0.81361 0.05886 0.0
H247 H 0.64151 0.84331 0.06535 0.0
H248 H 0.48884 0.43995 0.1129 0.0
H249 H 0.56474 0.40199 0.08994 0.0
H250 H 0.44276 0.37145 0.12145 0.0
H251 H 0.45606 0.31744 0.11487 0.0
Gd252 Gd 1.00471 0.439 0.92176 0.0
Gd253 Gd 0.06761 0.54421 0.91011 0.0
C254 C 0.04083 0.64499 0.92023 0.0
C255 C 0.99562 0.63716 0.89821 0.0
C256 C 1.02082 0.59083 0.90097 0.0
C257 C 0.04212 0.61108 0.91463 0.0
C258 C 0.99741 0.60378 0.89257 0.0
C259 C 1.01721 0.65767 0.91204 0.0
C260 C 0.06375 0.66551 0.93379 0.0
C261 C 0.08812 0.65285 0.94111 0.0
N262 N 0.06427 0.59778 0.92239 0.0
C263 C 0.0887 0.61937 0.93502 0.0
H264 H 0.10876 0.61065 0.94044 0.0
C265 C 1.00146 0.53724 0.88265 0.0
N266 N 1.02265 0.55825 0.89598 0.0
C267 C 0.97813 0.5491 0.87387 0.0
C268 C 0.97643 0.58276 0.87875 0.0
H269 H 1.00221 0.5113 0.87857 0.0
H270 H 1.01569 0.68349 0.91622 0.0
H271 H 0.05618 0.4147 0.89615 0.0
H272 H 0.06353 0.69163 0.93847 0.0
H273 H 0.1069 0.66919 0.95132 0.0
H274 H 0.97766 0.64739 0.89195 0.0
H275 H 0.95695 0.4162 0.95748 0.0
H276 H 0.11608 0.36553 0.92324 0.0
H277 H 0.10166 0.38704 0.897 0.0
H278 H 0.06409 0.355 0.97708 0.0
H279 H 0.96161 0.53232 0.8633 0.0
H280 H 0.95857 0.59205 0.87183 0.0
H281 H 0.10254 0.35448 0.95327 0.0
H282 H 0.96091 0.38903 0.98422 0.0
N283 N 0.04615 0.41034 0.92155 0.0
C284 C 0.0963 0.37789 0.9229 0.0
C285 C 0.0881 0.38983 0.90807 0.0
C286 C 0.07773 0.38076 0.93704 0.0
C287 C 0.05226 0.39708 0.9359 0.0
C288 C 0.06234 0.40555 0.9076 0.0
N289 N 1.00499 0.41127 0.94727 0.0
C290 C 0.03082 0.39741 0.94923 0.0
C291 C 0.98091 0.39141 0.9745 0.0
C292 C 1.00913 0.3793 0.977 0.0
C293 C 0.97863 0.40662 0.95937 0.0
C294 C 0.03398 0.38143 0.96417 0.0
H295 H 1.01069 0.36732 0.9887 0.0
O296 O 0.94048 0.39868 0.92508 0.0
O297 O 1.0056 0.49452 0.91326 0.0
O298 O 0.05382 0.5399 0.9374 0.0
O299 O 0.03252 0.47364 0.94472 0.0
O300 O 0.96376 0.46086 0.93093 0.0
O301 O 0.97269 0.38523 0.90716 0.0
O302 O 0.10142 0.57618 0.88862 0.0
O303 O 0.06628 0.48608 0.91333 0.0
O304 O 1.0073 0.44126 0.89462 0.0
O305 O 0.05945 0.50475 0.88744 0.0
O306 O 0.11039 0.53495 0.92545 0.0
O307 O 0.12969 0.59311 0.91204 0.0
C308 C 0.97748 0.49234 0.92202 0.0
C309 C 0.06085 0.367 0.96565 0.0
C310 C 0.08273 0.36668 0.95209 0.0
C311 C 0.93874 0.37252 0.9147 0.0
C312 C 0.91782 0.3303 0.92006 0.0
C313 C 0.94005 0.31218 0.92474 0.0
C314 C 0.87548 0.30793 0.92069 0.0
C315 C 0.85576 0.26793 0.9262 0.0
C316 C 0.92064 0.27247 0.92985 0.0
C317 C 0.87893 0.25052 0.93061 0.0
C318 C 0.0442 0.51118 0.94838 0.0
C319 C 0.09808 0.49822 0.92165 0.0
C320 C 0.13195 0.6032 0.89687 0.0
C321 C 0.14554 0.64622 0.8934 0.0
C322 C 0.12066 0.656 0.88436 0.0
C323 C 0.18305 0.67787 0.89901 0.0
C324 C 0.19555 0.71838 0.89517 0.0
C325 C 0.13257 0.69568 0.8808 0.0
C326 C 0.16962 0.7265 0.88604 0.0
C327 C 0.03223 0.4668 0.88389 0.0
H328 H 0.97249 0.32871 0.92444 0.0
H329 H 0.85811 0.32189 0.91735 0.0
H330 H 0.93803 0.25872 0.93339 0.0
H331 H 0.86465 0.21981 0.93478 0.0
H332 H 0.09179 0.63293 0.87995 0.0
H333 H 0.2026 0.67099 0.90604 0.0
H334 H 0.11295 0.70261 0.87387 0.0
H335 H 0.1779 0.75703 0.88307 0.0
Gd336 Gd 0.63334 0.57962 0.91919 0.0
Gd337 Gd 0.53019 0.53817 0.90522 0.0
C338 C 0.46419 0.40148 0.90973 0.0
C339 C 0.45856 0.38029 0.88168 0.0
C340 C 0.49323 0.45124 0.88843 0.0
C341 C 0.4863 0.44188 0.90473 0.0
C342 C 0.47867 0.42039 0.87669 0.0
C343 C 0.45129 0.37084 0.89818 0.0
C344 C 0.45373 0.39299 0.92609 0.0
C345 C 0.46358 0.42433 0.93689 0.0
N346 N 0.49785 0.4722 0.91559 0.0
C347 C 0.48494 0.46379 0.93134 0.0
H348 H 0.48935 0.48701 0.93967 0.0
C349 C 0.50954 0.49961 0.86794 0.0
N350 N 0.51027 0.49023 0.88397 0.0
C351 C 0.49713 0.47035 0.85588 0.0
C352 C 0.48232 0.43057 0.86025 0.0
H353 H 0.51811 0.52978 0.86432 0.0
H354 H 0.43455 0.33972 0.90183 0.0
H355 H 0.67162 0.65656 0.89176 0.0
H356 H 0.43677 0.3624 0.93038 0.0
H357 H 0.45408 0.41813 0.94943 0.0
H358 H 0.44723 0.35631 0.87283 0.0
H359 H 0.64672 0.55889 0.95821 0.0
H360 H 0.70654 0.76493 0.91722 0.0
H361 H 0.69768 0.72848 0.89152 0.0
H362 H 0.69957 0.72763 0.97285 0.0
H363 H 0.4979 0.47838 0.84323 0.0
H364 H 0.47167 0.40776 0.85091 0.0
H365 H 0.70634 0.76414 0.94754 0.0
H366 H 0.6682 0.59362 0.98439 0.0
N367 N 0.66235 0.65009 0.91746 0.0
C368 C 0.69449 0.73285 0.91744 0.0
C369 C 0.68966 0.71243 0.90293 0.0
C370 C 0.68589 0.71201 0.93213 0.0
C371 C 0.66995 0.67012 0.93178 0.0
C372 C 0.67437 0.6711 0.90318 0.0
N373 N 0.65277 0.6097 0.94528 0.0
C374 C 0.66552 0.64943 0.94608 0.0
C375 C 0.66738 0.60965 0.97374 0.0
C376 C 0.67821 0.6498 0.97491 0.0
C377 C 0.65509 0.5901 0.9588 0.0
C378 C 0.67776 0.67032 0.96099 0.0
H379 H 0.68763 0.66487 0.98652 0.0
O380 O 0.67344 0.56191 0.93041 0.0
O381 O 0.57426 0.52295 0.91553 0.0
O382 O 0.53674 0.55463 0.93229 0.0
O383 O 0.59098 0.54809 0.94004 0.0
O384 O 0.62357 0.52219 0.90742 0.0
O385 O 0.69085 0.59705 0.90832 0.0
O386 O 0.47806 0.53408 0.89276 0.0
O387 O 0.58397 0.59425 0.91408 0.0
O388 O 0.63757 0.5875 0.89247 0.0
O389 O 0.57216 0.55901 0.88264 0.0
O390 O 0.55465 0.59843 0.89363 0.0
O391 O 0.48402 0.54396 0.91833 0.0
C392 C 0.58554 0.50044 0.90914 0.0
C393 C 0.69086 0.71137 0.96147 0.0
C394 C 0.69471 0.73215 0.94706 0.0
C395 C 0.70185 0.58136 0.91983 0.0
C396 C 0.74278 0.60688 0.92608 0.0
C397 C 0.7559 0.64661 0.93048 0.0
C398 C 0.7698 0.59234 0.92667 0.0
C399 C 0.80999 0.61757 0.93149 0.0
C400 C 0.79543 0.67171 0.93525 0.0
C401 C 0.82236 0.65754 0.93564 0.0
C402 C 0.55866 0.55009 0.94363 0.0
C403 C 0.58267 0.61884 0.90405 0.0
C404 C 0.46089 0.53693 0.90584 0.0
C405 C 0.4177 0.50671 0.90813 0.0
C406 C 0.40617 0.46635 0.91033 0.0
C407 C 0.38764 0.51765 0.90838 0.0
C408 C 0.34711 0.48847 0.91148 0.0
C409 C 0.36654 0.43779 0.91363 0.0
C410 C 0.33725 0.44876 0.91436 0.0
C411 C 0.61175 0.57689 0.88055 0.0
H412 H 0.73587 0.65853 0.92988 0.0
H413 H 0.75944 0.56152 0.92336 0.0
H414 H 0.80543 0.7025 0.93843 0.0
H415 H 0.85311 0.67826 0.93896 0.0
H416 H 0.42763 0.45661 0.90942 0.0
H417 H 0.39565 0.54846 0.90624 0.0
H418 H 0.35843 0.40686 0.91544 0.0
H419 H 0.30648 0.42584 0.91662 0.0
Gd420 Gd 0.47898 0.05539 0.92289 0.0
Gd421 Gd 0.53502 1.00778 0.90662 0.0
C422 C 0.66446 0.0731 0.88948 0.0
C423 C 0.6571 0.06774 0.86015 0.0
C424 C 0.59798 0.03853 0.87751 0.0
C425 C 0.62239 0.05331 0.89117 0.0
C426 C 0.6153 0.04524 0.86188 0.0
C427 C 0.68162 0.08128 0.87392 0.0
C428 C 0.68808 0.08229 0.90347 0.0
C429 C 0.66979 0.07137 0.91865 0.0
N430 N 0.60518 0.04489 0.90615 0.0
C431 C 0.62808 0.05203 0.91976 0.0
H432 H 0.61434 0.04233 0.93151 0.0
C433 C 0.53339 0.99614 0.86652 0.0
N434 N 0.55762 0.01538 0.87953 0.0
C435 C 0.5492 1.00274 0.85082 0.0
C436 C 0.59024 0.02776 0.84846 0.0
H437 H 0.50159 0.97669 0.86806 0.0
H438 H 0.71387 0.09706 0.87241 0.0
H439 H 0.39807 1.00358 0.89944 0.0
H440 H 0.72042 0.09671 0.90266 0.0
H441 H 0.68776 0.07742 0.9295 0.0
H442 H 0.67084 0.07343 0.84824 0.0
H443 H 0.51307 0.09927 0.95875 0.0
H444 H 0.29415 0.94867 0.92978 0.0
H445 H 0.32516 0.96006 0.90255 0.0
H446 H 0.3463 1.00394 0.98231 0.0
H447 H 0.52972 0.98832 0.84055 0.0
H448 H 0.60243 0.03237 0.83629 0.0
H449 H 0.30236 0.96517 0.95961 0.0
H450 H 0.48701 0.09921 0.98616 0.0
N451 N 0.40889 1.01483 0.92476 0.0
C452 C 0.32631 0.96743 0.92851 0.0
C453 C 0.34367 0.97389 0.91312 0.0
C454 C 0.35052 0.98651 0.94199 0.0
C455 C 0.39224 1.01038 0.93965 0.0
C456 C 0.38514 0.99849 0.91143 0.0
N457 N 0.45646 0.05539 0.94942 0.0
C458 C 0.41682 0.03175 0.95239 0.0
C459 C 0.46694 0.07999 0.97678 0.0
C460 C 0.42626 0.05503 0.98013 0.0
C461 C 0.48158 0.07999 0.96125 0.0
C462 C 0.40061 0.03048 0.96787 0.0
H463 H 0.41495 0.05517 0.99217 0.0
O464 O 0.50095 0.11917 0.92533 0.0
O465 O 0.53779 0.06213 0.91612 0.0
O466 O 0.5442 0.01996 0.93424 0.0
O467 O 0.48754 0.02167 0.94345 0.0
O468 O 0.54022 0.10627 0.93048 0.0
O469 O 0.4546 0.08447 0.90778 0.0
O470 O 0.50674 0.94532 0.91452 0.0
O471 O 0.47582 0.99761 0.91536 0.0
O472 O 0.47075 0.0445 0.89592 0.0
O473 O 0.52982 0.04824 0.88724 0.0
O474 O 0.47556 0.9659 0.895 0.0
O475 O 0.5685 0.97579 0.90786 0.0
C476 C 0.56187 0.09547 0.9225 0.0
C477 C 0.3593 1.00564 0.97047 0.0
C478 C 0.33429 0.98355 0.95755 0.0
C479 C 0.47666 0.11956 0.91447 0.0
C480 C 0.45745 0.14337 0.91853 0.0
C481 C 0.4169 0.12441 0.92295 0.0
C482 C 0.48028 0.18568 0.9184 0.0
C483 C 0.46277 0.20876 0.92298 0.0
C484 C 0.39926 0.14712 0.92714 0.0
C485 C 0.42193 0.18885 0.92722 0.0
C486 C 0.51926 0.01752 0.94606 0.0
C487 C 0.45299 0.97108 0.90518 0.0
C488 C 0.53805 0.94176 0.91198 0.0
C489 C 0.53191 0.90629 0.90256 0.0
C490 C 0.5107 0.897 0.88789 0.0
C491 C 0.54738 0.88176 0.90799 0.0
C492 C 0.54157 0.84817 0.89874 0.0
C493 C 0.50443 0.86387 0.87885 0.0
C494 C 0.51947 0.83965 0.8842 0.0
C495 C 0.49877 0.05388 0.88486 0.0
H496 H 0.39891 0.09208 0.92326 0.0
H497 H 0.5118 0.20051 0.91525 0.0
H498 H 0.36793 0.1323 0.93053 0.0
H499 H 0.40752 0.20569 0.93071 0.0
H500 H 0.49876 0.9153 0.88343 0.0
H501 H 0.56421 0.88913 0.91923 0.0
H502 H 0.48762 0.85678 0.86763 0.0
H503 H 0.51313 0.81371 0.87696 0.0
Gd504 Gd 0.13341 0.35347 0.416 0.0
Gd505 Gd 0.22878 0.39708 0.43897 0.0
C506 C 0.27966 0.32677 0.46424 0.0
C507 C 0.26823 0.33429 0.49272 0.0
C508 C 0.24814 0.36519 0.47177 0.0
C509 C 0.26128 0.34919 0.45989 0.0
C510 C 0.25207 0.3585 0.48834 0.0
C511 C 0.28217 0.3186 0.48069 0.0
C512 C 0.29617 0.31439 0.45198 0.0
C513 C 0.29474 0.32504 0.43591 0.0
N514 N 0.2581 0.35735 0.4441 0.0
C515 C 0.27556 0.34667 0.43215 0.0
H516 H 0.27448 0.35451 0.41965 0.0
C517 C 0.22515 0.40984 0.47849 0.0
N518 N 0.23354 0.38915 0.46714 0.0
C519 C 0.2278 0.40358 0.49506 0.0
C520 C 0.24085 0.3774 0.50002 0.0
H521 H 0.21497 0.43008 0.47474 0.0
H522 H 0.29573 0.30101 0.48425 0.0
H523 H 0.09966 0.40891 0.43432 0.0
H524 H 0.31077 0.29735 0.45482 0.0
H525 H 0.30837 0.31656 0.42641 0.0
H526 H 0.27121 0.32855 0.50538 0.0
H527 H 0.1352 0.30767 0.38147 0.0
H528 H 0.066 0.46483 0.3977 0.0
H529 H 0.07472 0.45408 0.42667 0.0
H530 H 0.07878 0.40621 0.34847 0.0
H531 H 0.21989 0.41903 0.50399 0.0
H532 H 0.24322 0.37287 0.51286 0.0
H533 H 0.06775 0.44686 0.36852 0.0
H534 H 0.11988 0.30788 0.35257 0.0
N535 N 0.10737 0.39562 0.40992 0.0
C536 C 0.07737 0.44518 0.40099 0.0
C537 C 0.08214 0.4391 0.41734 0.0
C538 C 0.086 0.4247 0.38909 0.0
C539 C 0.10105 0.39971 0.39402 0.0
C540 C 0.09649 0.41348 0.42162 0.0
N541 N 0.1212 0.35278 0.38797 0.0
C542 C 0.10764 0.37717 0.38271 0.0
C543 C 0.11636 0.32756 0.36092 0.0
C544 C 0.10293 0.35288 0.35531 0.0
C545 C 0.12509 0.32763 0.37738 0.0
C546 C 0.09873 0.37839 0.36619 0.0
H547 H 0.09598 0.35249 0.34257 0.0
O548 O 0.09379 0.28877 0.41593 0.0
O549 O 0.17667 0.34194 0.42963 0.0
O550 O 0.23538 0.38752 0.41136 0.0
O551 O 0.18213 0.38856 0.3981 0.0
O552 O 0.15092 0.30725 0.40929 0.0
O553 O 0.07171 0.32697 0.42435 0.0
O554 O 0.28879 0.42612 0.42852 0.0
O555 O 0.18725 0.40991 0.42481 0.0
O556 O 0.12873 0.36875 0.44198 0.0
O557 O 0.17479 0.3592 0.45616 0.0
O558 O 0.21393 0.44512 0.44497 0.0
O559 O 0.27407 0.45724 0.44652 0.0
C560 C 0.17502 0.31378 0.42121 0.0
C561 C 0.08516 0.40432 0.36113 0.0
C562 C 0.07896 0.42756 0.37255 0.0
C563 C 0.06304 0.29033 0.42139 0.0
C564 C 0.0242 0.2632 0.41357 0.0
C565 C 1.00915 0.27689 0.40119 0.0
C566 C 1.00216 0.22274 0.41846 0.0
C567 C 0.96495 0.19597 0.41117 0.0
C568 C 0.97241 0.25082 0.39396 0.0
C569 C 0.95041 0.21086 0.3989 0.0
C570 C 0.21752 0.39093 0.39795 0.0
C571 C 0.19046 0.43936 0.43291 0.0
C572 C 0.3016 0.45919 0.43672 0.0
C573 C 0.32567 0.49714 0.42762 0.0
C574 C 0.3075 0.50794 0.41545 0.0
C575 C 0.36709 0.52257 0.4309 0.0
C576 C 0.39026 0.5586 0.42202 0.0
C577 C 0.32988 0.54329 0.40671 0.0
C578 C 0.37065 0.56836 0.40994 0.0
C579 C 0.13893 0.35654 0.45513 0.0
H580 H 0.02574 0.30771 0.39715 0.0
H581 H 1.0144 0.21216 0.4278 0.0
H582 H 0.96079 0.26168 0.38449 0.0
H583 H 0.92168 0.19182 0.39322 0.0
H584 H 0.27596 0.48896 0.41271 0.0
H585 H 0.3812 0.514 0.44022 0.0
H586 H 0.31545 0.55147 0.39741 0.0
H587 H 0.38661 0.59591 0.40311 0.0
Gd588 Gd 0.75773 0.82523 0.42458 0.0
Gd589 Gd 0.69556 0.86454 0.43795 0.0
C590 C 0.76724 1.00108 0.44317 0.0
C591 C 0.7877 1.00961 0.47141 0.0
C592 C 0.74651 0.94265 0.46016 0.0
C593 C 0.74736 0.95905 0.44511 0.0
C594 C 0.76563 0.96801 0.47359 0.0
C595 C 0.78833 0.02613 0.45624 0.0
C596 C 0.76452 0.01682 0.42827 0.0
C597 C 0.74095 0.99098 0.41599 0.0
N598 N 0.727 0.93415 0.43259 0.0
C599 C 0.72162 0.94969 0.41851 0.0
H600 H 0.70087 0.93063 0.40942 0.0
C601 C 0.71417 0.88678 0.47743 0.0
N602 N 0.72395 0.90235 0.46204 0.0
C603 C 0.73325 0.91038 0.49101 0.0
C604 C 0.76006 0.95105 0.48903 0.0
H605 H 0.69116 0.85617 0.47953 0.0
H606 H 0.80434 0.05837 0.45484 0.0
H607 H 0.70664 0.75193 0.45162 0.0
H608 H 0.77916 0.04885 0.42638 0.0
H609 H 0.73694 1.00284 0.40468 0.0
H610 H 0.80295 0.02936 0.48154 0.0
H611 H 0.80769 0.84669 0.38987 0.0
H612 H 0.64739 0.64051 0.42623 0.0
H613 H 0.66183 0.6788 0.45185 0.0
H614 H 0.70433 0.67596 0.373 0.0
H615 H 0.72642 0.89734 0.50304 0.0
H616 H 0.77421 0.96947 0.49962 0.0
H617 H 0.66274 0.63989 0.39661 0.0
H618 H 0.81038 0.81136 0.36526 0.0
N619 N 0.71569 0.75547 0.42617 0.0
C620 C 0.66671 0.67271 0.42607 0.0
C621 C 0.67494 0.69417 0.44056 0.0
C622 C 0.68536 0.69281 0.41172 0.0
C623 C 0.7101 0.73479 0.41217 0.0
C624 C 0.70024 0.73569 0.44041 0.0
N625 N 0.75777 0.79519 0.39992 0.0
C626 C 0.73238 0.75521 0.39868 0.0
C627 C 0.78787 0.79535 0.37445 0.0
C628 C 0.76015 0.7547 0.37246 0.0
C629 C 0.78616 0.8153 0.38831 0.0
C630 C 0.73204 0.73405 0.38468 0.0
H631 H 0.76143 0.73937 0.36166 0.0
O632 O 0.82261 0.85383 0.4231 0.0
O633 O 0.75906 0.88051 0.4338 0.0
O634 O 0.70219 0.8712 0.40991 0.0
O635 O 0.73133 0.8334 0.40152 0.0
O636 O 0.7918 0.88542 0.41273 0.0
O637 O 0.78945 0.7978 0.43578 0.0
O638 O 0.63985 0.83781 0.45199 0.0
O639 O 0.69493 0.80721 0.43315 0.0
O640 O 0.76581 0.83834 0.45118 0.0
O641 O 0.70302 0.82592 0.45776 0.0
O642 O 0.65303 0.81655 0.42106 0.0
O643 O 0.65433 0.8874 0.43611 0.0
C644 C 0.78282 0.90474 0.42314 0.0
C645 C 0.70555 0.69262 0.38379 0.0
C646 C 0.68194 0.67207 0.39725 0.0
C647 C 0.82449 0.82527 0.4306 0.0
C648 C 0.85089 0.81224 0.42313 0.0
C649 C 0.83557 0.77942 0.41253 0.0
C650 C 0.89246 0.83425 0.42606 0.0
C651 C 0.91868 0.82419 0.41816 0.0
C652 C 0.86141 0.76946 0.40459 0.0
C653 C 0.9027 0.79179 0.40728 0.0
C654 C 0.71436 0.85522 0.39837 0.0
C655 C 0.66359 0.79034 0.42421 0.0
C656 C 0.62773 0.86102 0.44578 0.0
C657 C 0.58545 0.84309 0.44033 0.0
C658 C 0.56471 0.80416 0.43402 0.0
C659 C 0.56588 0.86584 0.44104 0.0
C660 C 0.52605 0.85001 0.43538 0.0
C661 C 0.52549 0.78834 0.42839 0.0
C662 C 0.50634 0.81096 0.429 0.0
C663 C 0.73687 0.82668 0.46176 0.0
H664 H 0.80375 0.76162 0.41031 0.0
H665 H 0.90443 0.85954 0.43429 0.0
H666 H 0.84937 0.74426 0.39634 0.0
H667 H 0.92208 0.78316 0.40113 0.0
H668 H 0.57874 0.78593 0.4334 0.0
H669 H 0.58186 0.89598 0.44587 0.0
H670 H 0.50967 0.75819 0.42363 0.0
H671 H 0.47563 0.7974 0.42484 0.0
Gd672 Gd 0.29187 0.97921 0.42302 0.0
Gd673 Gd 0.23272 0.87199 0.4339 0.0
C674 C 0.09665 0.81071 0.43985 0.0
C675 C 0.08884 0.80387 0.46915 0.0
C676 C 0.15515 0.8341 0.45698 0.0
C677 C 0.13861 0.82979 0.44174 0.0
C678 C 0.1304 0.82018 0.47084 0.0
C679 C 0.07196 0.79901 0.45366 0.0
C680 C 0.08075 0.80249 0.42414 0.0
C681 C 0.10649 0.81223 0.41087 0.0
N682 N 0.16339 0.84133 0.42867 0.0
C683 C 0.14786 0.83186 0.41334 0.0
H684 H 0.16704 0.83901 0.40289 0.0
C685 C 0.21202 0.8472 0.47249 0.0
N686 N 0.19517 0.84862 0.45806 0.0
C687 C 0.1889 0.83444 0.48664 0.0
C688 C 0.14798 0.82143 0.48586 0.0
H689 H 0.2437 0.85735 0.47313 0.0
H690 H 0.03972 0.785 0.45246 0.0
H691 H 0.36889 1.00357 0.44823 0.0
H692 H 0.04868 0.78754 0.42216 0.0
H693 H 0.09459 0.80451 0.39868 0.0
H694 H 0.06936 0.79348 0.47967 0.0
H695 H 0.26595 1.00933 0.3891 0.0
H696 H 0.47739 0.05777 0.42061 0.0
H697 H 0.44211 0.03238 0.44679 0.0
H698 H 0.43472 0.07874 0.36872 0.0
H699 H 0.2026 0.8345 0.49812 0.0
H700 H 0.13002 0.81111 0.49681 0.0
H701 H 0.47426 0.07464 0.39135 0.0
H702 H 0.29701 0.0441 0.3636 0.0
N703 N 0.36214 1.00912 0.42292 0.0
C704 C 0.44511 0.04441 0.42113 0.0
C705 C 0.42533 0.03018 0.43592 0.0
C706 C 0.42322 0.04334 0.40741 0.0
C707 C 0.38123 0.02553 0.40876 0.0
C708 C 0.3837 1.01342 0.43666 0.0
N709 N 0.31921 1.01262 0.39832 0.0
C710 C 0.3591 0.0278 0.39608 0.0
C711 C 0.31478 0.03946 0.37258 0.0
C712 C 0.35529 0.05312 0.3697 0.0
C713 C 0.29719 0.01946 0.38709 0.0
C714 C 0.37818 0.04798 0.38163 0.0
H715 H 0.36881 0.0685 0.35844 0.0
O716 O 0.26301 0.01519 0.42475 0.0
O717 O 0.23219 0.9274 0.42883 0.0
O718 O 0.23711 0.88235 0.40574 0.0
O719 O 0.29328 0.94538 0.40137 0.0
O720 O 0.23269 0.964 0.41079 0.0
O721 O 0.31782 0.03324 0.43787 0.0
O722 O 0.24508 0.82507 0.44152 0.0
O723 O 0.29397 0.92252 0.42798 0.0
O724 O 0.29585 0.96914 0.44965 0.0
O725 O 0.23425 0.91313 0.45485 0.0
O726 O 0.28895 0.88504 0.447 0.0
O727 O 0.2196 0.82169 0.41793 0.0
C728 C 0.20987 0.93259 0.41919 0.0
C729 C 0.41961 0.0636 0.37981 0.0
C730 C 0.4421 0.06121 0.39268 0.0
C731 C 0.29115 0.04284 0.43355 0.0
C732 C 0.30565 0.08422 0.42796 0.0
C733 C 0.34036 0.10409 0.41842 0.0
C734 C 0.28297 0.103 0.43117 0.0
C735 C 0.29448 0.14105 0.42462 0.0
C736 C 0.35209 0.14187 0.41204 0.0
C737 C 0.32929 0.16015 0.41502 0.0
C738 C 0.26452 0.91043 0.39592 0.0
C739 C 0.31378 0.91533 0.43851 0.0
C740 C 0.22967 0.80324 0.42857 0.0
C741 C 0.20031 0.76012 0.43138 0.0
C742 C 0.16362 0.74965 0.43878 0.0
C743 C 0.20855 0.72925 0.42717 0.0
C744 C 0.18028 0.68863 0.4307 0.0
C745 C 0.13556 0.70989 0.44198 0.0
C746 C 0.14377 0.67967 0.43803 0.0
C747 C 0.26536 0.94817 0.45939 0.0
H748 H 0.35817 0.09027 0.41574 0.0
H749 H 0.25585 0.08755 0.43836 0.0
H750 H 0.37884 0.15694 0.40465 0.0
H751 H 0.3391 0.1895 0.40993 0.0
H752 H 0.15665 0.77228 0.44222 0.0
H753 H 0.23693 0.7368 0.42158 0.0
H754 H 0.10736 0.70248 0.44768 0.0
H755 H 0.12132 0.649 0.4407 0.0
Gd756 Gd 0.67714 0.77532 0.25569 0.0
Gd757 Gd 0.72565 0.87781 0.2394 0.0
C758 C 0.6547 0.93447 0.21938 0.0
C759 C 0.66231 0.93115 0.19023 0.0
C760 C 0.69311 0.90551 0.20885 0.0
C761 C 0.67686 0.91486 0.22188 0.0
C762 C 0.6869 0.91445 0.19288 0.0
C763 C 0.64642 0.94137 0.20347 0.0
C764 C 0.6434 0.94844 0.23291 0.0
C765 C 0.65487 0.94343 0.24838 0.0
N766 N 0.68623 0.90857 0.23705 0.0
C767 C 0.67677 0.92376 0.25022 0.0
H768 H 0.68602 0.92076 0.26225 0.0
C769 C 0.74038 0.88795 0.19967 0.0
N770 N 0.71797 0.8909 0.21194 0.0
C771 C 0.73452 0.89549 0.18359 0.0
C772 C 0.70718 0.9082 0.18014 0.0
H773 H 0.76171 0.87829 0.20223 0.0
H774 H 0.62896 0.95587 0.20131 0.0
H775 H 0.7206 0.77201 0.21823 0.0
H776 H 0.6269 0.96419 0.23152 0.0
H777 H 0.64701 0.95487 0.25891 0.0
H778 H 0.65683 0.93787 0.17804 0.0
H779 H 0.67588 0.7571 0.29532 0.0
H780 H 0.77045 0.69713 0.22368 0.0
H781 H 0.75153 0.73714 0.20646 0.0
H782 H 0.76496 0.67384 0.28063 0.0
H783 H 0.75131 0.89177 0.17388 0.0
H784 H 0.70312 0.91457 0.16769 0.0
H785 H 0.77634 0.67485 0.25129 0.0
H786 H 0.70008 0.72496 0.31434 0.0
N787 N 0.71266 0.74658 0.24212 0.0
C788 C 0.75444 0.7108 0.22896 0.0
C789 C 0.7435 0.73301 0.2192 0.0
C790 C 0.74666 0.70845 0.24557 0.0
C791 C 0.72574 0.72698 0.25191 0.0
C792 C 0.72384 0.7516 0.22602 0.0
N793 N 0.70168 0.74642 0.2744 0.0
C794 C 0.72034 0.72722 0.26849 0.0
C795 C 0.70644 0.7258 0.3015 0.0
C796 C 0.72738 0.70767 0.29571 0.0
C797 C 0.69324 0.7445 0.29062 0.0
C798 C 0.73421 0.70779 0.27905 0.0
H799 H 0.73752 0.69308 0.30416 0.0
O800 O 0.63366 0.76114 0.27475 0.0
O801 O 0.67314 0.8306 0.25216 0.0
O802 O 0.71493 0.87763 0.26705 0.0
O803 O 0.71193 0.81892 0.27581 0.0
O804 O 0.62313 0.77796 0.24585 0.0
O805 O 0.62731 0.71326 0.25837 0.0
O806 O 0.78894 0.92061 0.23472 0.0
O807 O 0.7354 0.83054 0.25071 0.0
O808 O 0.66315 0.76713 0.22935 0.0
O809 O 0.68674 0.83212 0.21909 0.0
O810 O 0.76918 0.85938 0.23047 0.0
O811 O 0.75686 0.93539 0.25188 0.0
C812 C 0.63754 0.81597 0.24725 0.0
C813 C 0.75412 0.68878 0.27271 0.0
C814 C 0.76038 0.68916 0.25601 0.0
C815 C 0.6125 0.72364 0.2705 0.0
C816 C 0.57652 0.69557 0.27996 0.0
C817 C 0.57482 0.70402 0.2964 0.0
C818 C 0.54245 0.66332 0.27259 0.0
C819 C 0.50623 0.64075 0.28148 0.0
C820 C 0.53978 0.68196 0.30526 0.0
C821 C 0.50574 0.65131 0.29787 0.0
C822 C 0.7163 0.85463 0.27884 0.0
C823 C 0.76312 0.83355 0.24156 0.0
C824 C 0.79041 0.94833 0.24413 0.0
C825 C 0.80828 0.98927 0.23716 0.0
C826 C 0.78783 0.99648 0.22476 0.0
C827 C 0.84529 0.02138 0.24282 0.0
C828 C 0.86163 0.06015 0.23585 0.0
C829 C 0.80336 0.03448 0.21805 0.0
C830 C 0.83976 0.06597 0.22351 0.0
C831 C 0.668 0.79215 0.21743 0.0
H832 H 0.60041 0.72848 0.30237 0.0
H833 H 0.54412 0.65676 0.25993 0.0
H834 H 0.53864 0.68939 0.31785 0.0
H835 H 0.47878 0.63681 0.30512 0.0
H836 H 0.75965 0.9727 0.22027 0.0
H837 H 0.86143 0.01607 0.25235 0.0
H838 H 0.78703 0.0396 0.20854 0.0
H839 H 0.85063 0.0952 0.21812 0.0
Gd840 Gd 0.30175 0.92526 0.25433 0.0
Gd841 Gd 0.19584 0.87274 0.2396 0.0
C842 C 0.13105 0.74145 0.22426 0.0
C843 C 0.1341 0.74624 0.19481 0.0
C844 C 0.16407 0.80647 0.21137 0.0
C845 C 0.15368 0.78352 0.22531 0.0
C846 C 0.15357 0.78811 0.19596 0.0
C847 C 0.12249 0.72293 0.20894 0.0
C848 C 0.11559 0.7194 0.23855 0.0
C849 C 0.12172 0.73939 0.2533 0.0
N850 N 0.16122 0.80242 0.23986 0.0
C851 C 0.14427 0.78116 0.2537 0.0
H852 H 0.14855 0.79639 0.26516 0.0
C853 C 0.18447 0.86986 0.19978 0.0
N854 N 0.18044 0.8466 0.213 0.0
C855 C 0.17575 0.85323 0.18421 0.0
C856 C 0.16077 0.81223 0.18226 0.0
H857 H 0.19592 0.90157 0.20125 0.0
H858 H 0.1056 0.69063 0.20789 0.0
H859 H 0.33715 1.01025 0.23367 0.0
H860 H 0.09773 0.68705 0.23827 0.0
H861 H 0.10903 0.72267 0.26438 0.0
H862 H 0.12608 0.73156 0.18308 0.0
H863 H 0.29841 0.88128 0.2901 0.0
H864 H 0.39301 0.10841 0.26692 0.0
H865 H 0.3723 0.08298 0.23894 0.0
H866 H 0.38362 0.04406 0.31793 0.0
H867 H 0.18025 0.87197 0.17374 0.0
H868 H 0.15328 0.79928 0.1702 0.0
H869 H 0.39729 0.0936 0.29641 0.0
H870 H 0.3196 0.90071 0.31838 0.0
N871 N 0.33639 0.99472 0.25845 0.0
C872 C 0.37736 0.07648 0.26468 0.0
C873 C 0.36571 0.06225 0.24887 0.0
C874 C 0.36937 0.04934 0.27735 0.0
C875 C 0.34882 1.00811 0.27375 0.0
C876 C 0.34557 0.02103 0.24594 0.0
N877 N 0.32194 0.94114 0.2817 0.0
C878 C 0.34159 0.98043 0.28577 0.0
C879 C 0.32622 0.92348 0.30931 0.0
C880 C 0.34611 0.96381 0.31369 0.0
C881 C 0.31449 0.91261 0.29317 0.0
C882 C 0.35407 0.9929 0.30187 0.0
H883 H 0.35506 0.97213 0.3262 0.0
O884 O 0.34275 0.902 0.25539 0.0
O885 O 0.24668 0.86762 0.24863 0.0
O886 O 0.20041 0.87204 0.26798 0.0
O887 O 0.26298 0.92801 0.27351 0.0
O888 O 0.28858 0.86299 0.26197 0.0
O889 O 0.35354 0.9491 0.23831 0.0
O890 O 0.15214 0.89024 0.23261 0.0
O891 O 0.24813 0.93093 0.24737 0.0
O892 O 0.29682 0.93596 0.22787 0.0
O893 O 0.24116 0.87649 0.22005 0.0
O894 O 0.21194 0.93372 0.22971 0.0
O895 O 0.14162 0.85433 0.25397 0.0
C896 C 0.25431 0.84251 0.25512 0.0
C897 C 0.37393 0.03387 0.30563 0.0
C898 C 0.38162 0.06206 0.29338 0.0
C899 C 0.3671 0.92704 0.2446 0.0
C900 C 0.41031 0.94667 0.24853 0.0
C901 C 0.43233 0.98794 0.25163 0.0
C902 C 0.42966 0.92377 0.24956 0.0
C903 C 0.47045 0.94196 0.25398 0.0
C904 C 0.47283 1.00614 0.25567 0.0
C905 C 0.49172 0.98342 0.2569 0.0
C906 C 0.2268 0.9001 0.2781 0.0
C907 C 0.24297 0.95508 0.23855 0.0
C908 C 0.12659 0.86963 0.24402 0.0
C909 C 0.08439 0.84284 0.23872 0.0
C910 C 0.07641 0.81254 0.22746 0.0
C911 C 0.05207 0.8475 0.24435 0.0
C912 C 1.01255 0.82219 0.23842 0.0
C913 C 0.03767 0.78711 0.22193 0.0
C914 C 1.00607 0.79184 0.22732 0.0
C915 C 0.27718 0.90806 0.21694 0.0
H916 H 0.41825 1.00615 0.25103 0.0
H917 H 0.41276 0.8918 0.24742 0.0
H918 H 0.4896 0.03797 0.25803 0.0
H919 H 0.52311 0.99828 0.26024 0.0
H920 H 0.10026 0.80871 0.22276 0.0
H921 H 0.05776 0.87112 0.25288 0.0
H922 H 0.03217 0.76377 0.21329 0.0
H923 H 0.97628 0.77159 0.22274 0.0
Gd924 Gd 0.14549 0.39348 0.25844 0.0
Gd925 Gd 0.20563 0.35045 0.24135 0.0
C926 C 0.33474 0.42623 0.22391 0.0
C927 C 0.3268 0.42246 0.19457 0.0
C928 C 0.26858 0.38754 0.21213 0.0
C929 C 0.29282 0.40236 0.22569 0.0
C930 C 0.28536 0.39678 0.19641 0.0
C931 C 0.35146 0.43708 0.20829 0.0
C932 C 0.35871 0.43714 0.23783 0.0
C933 C 0.34086 0.42322 0.25297 0.0
N934 N 0.27573 0.39136 0.24062 0.0
C935 C 0.29915 0.40005 0.25415 0.0
H936 H 0.28579 0.3896 0.26595 0.0
C937 C 0.20452 0.34273 0.20139 0.0
N938 N 0.22877 0.36232 0.21433 0.0
C939 C 0.21967 0.35136 0.18556 0.0
C940 C 0.26018 0.3789 0.18305 0.0
H941 H 0.17314 0.32149 0.20329 0.0
H942 H 0.38353 0.45581 0.2067 0.0
H943 H 0.07006 0.3477 0.2303 0.0
H944 H 0.39102 0.45523 0.23698 0.0
H945 H 0.3592 0.43027 0.26372 0.0
H946 H 0.34022 0.43021 0.18259 0.0
H947 H 0.1612 0.43333 0.29529 0.0
H948 H 0.96093 0.27305 0.25517 0.0
H949 H 0.99899 0.29871 0.22964 0.0
H950 H 0.99396 0.31188 0.31071 0.0
H951 H 0.20014 0.33668 0.17533 0.0
H952 H 0.27192 0.3853 0.17078 0.0
H953 H 0.9595 0.27759 0.28553 0.0
H954 H 0.12503 0.42251 0.32135 0.0
N955 N 0.07492 0.34945 0.25624 0.0
C956 C 0.9927 0.2946 0.25561 0.0
C957 C 1.01404 0.30909 0.2412 0.0
C958 C 1.01224 0.30972 0.27039 0.0
C959 C 0.05377 0.33757 0.27027 0.0
C960 C 0.05501 0.3371 0.24172 0.0
N961 N 0.11218 0.38456 0.28343 0.0
C962 C 0.07309 0.35603 0.28438 0.0
C963 C 0.11045 0.40296 0.31115 0.0
C964 C 0.07094 0.37183 0.31258 0.0
C965 C 0.1307 0.40905 0.29638 0.0
C966 C 0.05155 0.34823 0.29905 0.0
H967 H 0.05508 0.36729 0.32393 0.0
O968 O 0.16476 0.45575 0.26419 0.0
O969 O 0.20495 0.40471 0.24954 0.0
O970 O 0.21242 0.3566 0.26926 0.0
O971 O 0.16206 0.36806 0.27982 0.0
O972 O 0.20568 0.43926 0.26886 0.0
O973 O 0.12897 0.42892 0.24297 0.0
O974 O 0.23156 0.31866 0.25383 0.0
O975 O 0.14682 0.33718 0.25225 0.0
O976 O 0.13832 0.38218 0.23142 0.0
O977 O 0.19963 0.3922 0.22287 0.0
O978 O 0.14493 0.30378 0.23228 0.0
O979 O 0.19518 0.29261 0.23254 0.0
C980 C 0.22775 0.43274 0.25902 0.0
C981 C 1.01085 0.31874 0.2995 0.0
C982 C 0.99124 0.29929 0.28517 0.0
C983 C 0.14694 0.46103 0.25189 0.0
C984 C 0.12573 0.48356 0.25504 0.0
C985 C 0.08422 0.4629 0.25764 0.0
C986 C 0.14715 0.52603 0.25583 0.0
C987 C 0.12704 0.54737 0.25945 0.0
C988 C 0.0642 0.48385 0.26091 0.0
C989 C 0.08532 0.52556 0.26187 0.0
C990 C 0.19204 0.36065 0.28157 0.0
C991 C 0.1235 0.3086 0.24303 0.0
C992 C 0.21662 0.28842 0.24381 0.0
C993 C 0.20098 0.24757 0.2508 0.0
C994 C 0.16662 0.23095 0.26052 0.0
C995 C 0.21997 0.22467 0.24758 0.0
C996 C 0.20451 0.18526 0.25401 0.0
C997 C 0.15115 0.19248 0.26685 0.0
C998 C 0.16959 0.16988 0.26361 0.0
C999 C 0.16649 0.39405 0.22033 0.0
H1000 H 0.06727 0.4305 0.25723 0.0
H1001 H 0.17934 0.54223 0.25411 0.0
H1002 H 0.03214 0.46763 0.26289 0.0
H1003 H 0.06897 0.54092 0.26464 0.0
H1004 H 0.15155 0.24768 0.26311 0.0
H1005 H 0.24675 0.23773 0.24017 0.0
H1006 H 0.1243 0.17983 0.27422 0.0
H1007 H 0.15562 0.13978 0.26841 0.0
Gd1008 Gd 0.78813 0.66443 0.75458 0.0
Gd1009 Gd 0.89062 0.7247 0.76874 0.0
C1010 C 0.94913 0.64634 0.77135 0.0
C1011 C 0.93758 0.62387 0.79935 0.0
C1012 C 0.91633 0.66997 0.78962 0.0
C1013 C 0.92955 0.6684 0.77428 0.0
C1014 C 0.92186 0.64908 0.80253 0.0
C1015 C 0.95143 0.62267 0.78376 0.0
C1016 C 0.96703 0.64989 0.7562 0.0
C1017 C 0.96619 0.67591 0.74466 0.0
N1018 N 0.92586 0.6908 0.76247 0.0
C1019 C 0.94597 0.6967 0.74811 0.0
H1020 H 0.94681 0.71749 0.73918 0.0
C1021 C 0.9009 0.70699 0.80792 0.0
N1022 N 0.9026 0.6957 0.79226 0.0
C1023 C 0.90488 0.68642 0.8211 0.0
C1024 C 0.91411 0.65632 0.81836 0.0
H1025 H 0.89608 0.73177 0.8104 0.0
H1026 H 0.96532 0.60466 0.78161 0.0
H1027 H 0.7169 0.63692 0.78439 0.0
H1028 H 0.98251 0.63364 0.75349 0.0
H1029 H 0.98114 0.68002 0.73311 0.0
H1030 H 0.94122 0.60695 0.80904 0.0
H1031 H 0.80463 0.70167 0.71637 0.0
H1032 H 0.68023 0.72441 0.78647 0.0
H1033 H 0.67845 0.664 0.79752 0.0
H1034 H 0.73283 0.79798 0.73723 0.0
H1035 H 0.9016 0.69437 0.83339 0.0
H1036 H 0.91794 0.64091 0.8286 0.0
H1037 H 0.70116 0.77472 0.76398 0.0
H1038 H 0.79937 0.753 0.70096 0.0
N1039 N 0.74453 0.68409 0.7669 0.0
C1040 C 0.69794 0.71309 0.78079 0.0
C1041 C 0.6969 0.67907 0.78706 0.0
C1042 C 0.71957 0.73034 0.76658 0.0
C1043 C 0.74218 0.71441 0.75967 0.0
C1044 C 0.7195 0.66425 0.77967 0.0
N1045 N 0.77972 0.71005 0.73812 0.0
C1046 C 0.75973 0.72731 0.74466 0.0
C1047 C 0.78875 0.74665 0.71336 0.0
C1048 C 0.77097 0.7668 0.72039 0.0
C1049 C 0.7924 0.7179 0.72235 0.0
C1050 C 0.75552 0.75675 0.73612 0.0
H1051 H 0.7683 0.78916 0.71342 0.0
O1052 O 0.76426 0.62576 0.73339 0.0
O1053 O 0.84535 0.66491 0.7597 0.0
O1054 O 0.88907 0.72406 0.74062 0.0
O1055 O 0.82795 0.66818 0.73391 0.0
O1056 O 0.79446 0.61807 0.76929 0.0
O1057 O 0.72795 0.61224 0.75475 0.0
O1058 O 0.93728 0.77446 0.75503 0.0
O1059 O 0.83956 0.72834 0.75724 0.0
O1060 O 0.78567 0.65878 0.78157 0.0
O1061 O 0.84676 0.71151 0.79033 0.0
O1062 O 0.86657 0.76297 0.7778 0.0
O1063 O 0.94454 0.77172 0.78071 0.0
C1064 C 0.83231 0.63201 0.76711 0.0
C1065 C 0.73557 0.77473 0.74345 0.0
C1066 C 0.71768 0.7616 0.75869 0.0
C1067 C 0.73268 0.59873 0.74101 0.0
C1068 C 0.72651 0.55753 0.74142 0.0
C1069 C 0.75939 0.55156 0.73949 0.0
C1070 C 0.68856 0.52424 0.74497 0.0
C1071 C 0.68393 0.48573 0.74697 0.0
C1072 C 0.75499 0.51372 0.74156 0.0
C1073 C 0.71766 0.48108 0.74542 0.0
C1074 C 0.86436 0.69675 0.73003 0.0
C1075 C 0.84037 0.75529 0.76652 0.0
C1076 C 0.96073 0.79107 0.76737 0.0
C1077 C 0.98399 0.83539 0.76783 0.0
C1078 C 0.96446 0.85774 0.76735 0.0
C1079 C 0.02646 0.85562 0.76781 0.0
C1080 C 0.04937 0.89798 0.76713 0.0
C1081 C 0.98674 0.89947 0.76679 0.0
C1082 C 0.02866 0.91942 0.76663 0.0
C1083 C 0.80919 0.68258 0.79297 0.0
H1084 H 0.78871 0.5763 0.73654 0.0
H1085 H 0.66287 0.52834 0.74635 0.0
H1086 H 0.78065 0.50968 0.74009 0.0
H1087 H 0.71488 0.45185 0.74668 0.0
H1088 H 0.93204 0.8429 0.76725 0.0
H1089 H 0.04156 0.83831 0.76798 0.0
H1090 H 0.97139 0.91651 0.76644 0.0
H1091 H 0.04489 0.9518 0.7664 0.0
Gd1092 Gd 0.41464 0.13684 0.75577 0.0
Gd1093 Gd 0.36348 0.18963 0.76981 0.0
C1094 C 0.43774 0.31735 0.78871 0.0
C1095 C 0.43003 0.30799 0.81792 0.0
C1096 C 0.39519 0.25101 0.79974 0.0
C1097 C 0.41302 0.27572 0.78648 0.0
C1098 C 0.40253 0.26717 0.81558 0.0
C1099 C 0.44758 0.33306 0.8045 0.0
C1100 C 0.4495 0.34223 0.77506 0.0
C1101 C 0.43422 0.32574 0.75985 0.0
N1102 N 0.40244 0.25979 0.77136 0.0
C1103 C 0.4099 0.28426 0.75827 0.0
H1104 H 0.39787 0.27191 0.74648 0.0
C1105 C 0.3445 0.18823 0.80952 0.0
N1106 N 0.36825 0.21173 0.79705 0.0
C1107 C 0.35102 0.20288 0.82541 0.0
C1108 C 0.38071 0.24227 0.82851 0.0
H1109 H 0.3218 0.15756 0.80743 0.0
H1110 H 0.46713 0.36485 0.80644 0.0
H1111 H 0.45298 0.10139 0.78417 0.0
H1112 H 0.46835 0.37435 0.77625 0.0
H1113 H 0.44132 0.34489 0.74931 0.0
H1114 H 0.4365 0.32079 0.83001 0.0
H1115 H 0.3451 0.11123 0.72531 0.0
H1116 H 0.38016 0.97424 0.78628 0.0
H1117 H 0.43829 0.03705 0.79595 0.0
H1118 H 0.28351 0.94379 0.74434 0.0
H1119 H 0.33315 0.18373 0.83528 0.0
H1120 H 0.38549 0.25357 0.84083 0.0
H1121 H 0.32279 0.93987 0.76701 0.0
H1122 H 0.29012 0.05162 0.71343 0.0
N1123 N 0.40295 0.07596 0.76795 0.0
C1124 C 0.38648 1.0025 0.78098 0.0
C1125 C 0.41918 0.03783 0.78651 0.0
C1126 C 0.36295 1.00393 0.76837 0.0
C1127 C 0.37246 0.04153 0.76182 0.0
C1128 C 0.42732 0.07428 0.77973 0.0
N1129 N 0.36096 0.08032 0.74272 0.0
C1130 C 0.35097 0.04373 0.74881 0.0
C1131 C 0.30716 0.04888 0.7233 0.0
C1132 C 0.29668 1.01136 0.72945 0.0
C1133 C 0.33924 0.08304 0.7301 0.0
C1134 C 0.31852 1.00836 0.74236 0.0
H1135 H 0.27149 0.98497 0.72426 0.0
O1136 O 0.44937 0.14524 0.73361 0.0
O1137 O 0.41967 0.19668 0.75952 0.0
O1138 O 0.37703 0.20158 0.7422 0.0
O1139 O 0.4064 0.16448 0.73313 0.0
O1140 O 0.46593 0.19065 0.76845 0.0
O1141 O 0.46853 0.13205 0.75602 0.0
O1142 O 0.30106 0.16073 0.76172 0.0
O1143 O 0.35475 0.13105 0.76064 0.0
O1144 O 0.40851 0.13061 0.78288 0.0
O1145 O 0.39773 0.182 0.79139 0.0
O1146 O 0.32416 0.13012 0.78152 0.0
O1147 O 0.33098 0.22252 0.76794 0.0
C1148 C 0.45381 0.21585 0.76604 0.0
C1149 C 0.30843 0.9711 0.74909 0.0
C1150 C 0.33067 0.96888 0.76204 0.0
C1151 C 0.47851 0.14416 0.74122 0.0
C1152 C 0.51977 0.17881 0.73937 0.0
C1153 C 0.52542 0.2172 0.73661 0.0
C1154 C 0.55374 0.17463 0.74224 0.0
C1155 C 0.59259 0.20868 0.74285 0.0
C1156 C 0.56369 0.25082 0.73727 0.0
C1157 C 0.597 0.24668 0.7405 0.0
C1158 C 0.39116 0.18797 0.73045 0.0
C1159 C 0.32996 0.10813 0.77135 0.0
C1160 C 0.29717 0.19193 0.7637 0.0
C1161 C 0.26102 0.18613 0.77256 0.0
C1162 C 0.25029 0.16499 0.78726 0.0
C1163 C 0.23733 0.20209 0.7666 0.0
C1164 C 0.20376 0.19753 0.77553 0.0
C1165 C 0.21731 0.1603 0.79605 0.0
C1166 C 0.19436 0.17647 0.79032 0.0
C1167 C 0.40773 0.15413 0.79421 0.0
H1168 H 0.50008 0.22131 0.73431 0.0
H1169 H 0.54991 0.14521 0.74435 0.0
H1170 H 0.56753 0.28028 0.73534 0.0
H1171 H 0.62645 0.27318 0.74082 0.0
H1172 H 0.26741 0.15197 0.79194 0.0
H1173 H 0.24527 0.21833 0.75521 0.0
H1174 H 0.20936 0.14386 0.80738 0.0
H1175 H 0.16859 0.17171 0.79735 0.0
Gd1176 Gd 0.94273 0.29766 0.75625 0.0
Gd1177 Gd 0.89751 0.19415 0.76978 0.0
C1178 C 0.77004 0.14854 0.78798 0.0
C1179 C 0.77829 0.14985 0.81724 0.0
C1180 C 0.83521 0.16831 0.79937 0.0
C1181 C 0.81143 0.16306 0.78602 0.0
C1182 C 0.81841 0.15984 0.81509 0.0
C1183 C 0.75407 0.14416 0.80367 0.0
C1184 C 0.74551 0.13576 0.7742 0.0
C1185 C 0.76201 0.13493 0.75921 0.0
N1186 N 0.82763 0.1666 0.77107 0.0
C1187 C 0.80335 0.15001 0.75791 0.0
H1188 H 0.81585 0.14935 0.74626 0.0
C1189 C 0.89418 0.17092 0.80899 0.0
N1190 N 0.87329 0.17641 0.79674 0.0
C1191 C 0.8792 0.16339 0.82485 0.0
C1192 C 0.84154 0.15888 0.828 0.0
H1193 H 0.92357 0.17497 0.80668 0.0
H1194 H 0.72253 0.13396 0.80542 0.0
H1195 H 0.97646 0.36761 0.78671 0.0
H1196 H 0.71354 0.12421 0.77517 0.0
H1197 H 0.74302 0.12315 0.74861 0.0
H1198 H 0.76507 0.14402 0.82926 0.0
H1199 H 0.97554 0.28309 0.71977 0.0
H1200 H 0.09971 0.40638 0.79537 0.0
H1201 H 0.03753 0.40631 0.80279 0.0
H1202 H 0.13673 0.35833 0.74879 0.0
H1203 H 0.89666 0.16102 0.83463 0.0
H1204 H 0.82976 0.15251 0.84026 0.0
H1205 H 0.13642 0.38788 0.77519 0.0
H1206 H 0.03706 0.29186 0.70769 0.0
N1207 N 1.00183 0.34154 0.77118 0.0
C1208 C 0.07263 0.38855 0.7884 0.0
C1209 C 0.03764 0.38856 0.79263 0.0
C1210 C 0.07292 0.36791 0.77451 0.0
C1211 C 0.03675 0.34506 0.76587 0.0
C1212 C 1.00279 0.36586 0.78356 0.0
N1213 N 1.0019 0.30851 0.74276 0.0
C1214 C 0.03697 0.32876 0.75102 0.0
C1215 C 0.03743 0.30197 0.71998 0.0
C1216 C 0.07307 0.3203 0.72878 0.0
C1217 C 1.00213 0.29659 0.72711 0.0
C1218 C 0.07332 0.33444 0.74442 0.0
H1219 H 0.10031 0.32414 0.72327 0.0
O1220 O 0.92924 0.32038 0.73437 0.0
O1221 O 0.8848 0.24005 0.75948 0.0
O1222 O 0.88806 0.19358 0.74207 0.0
O1223 O 0.91663 0.26028 0.73399 0.0
O1224 O 0.88664 0.29044 0.76845 0.0
O1225 O 0.95257 0.35842 0.75519 0.0
O1226 O 0.92454 0.16023 0.76007 0.0
O1227 O 0.95356 0.24575 0.75963 0.0
O1228 O 0.93352 0.29808 0.78304 0.0
O1229 O 0.92131 0.23598 0.79219 0.0
O1230 O 0.95854 0.21748 0.78036 0.0
O1231 O 0.86571 0.1288 0.77002 0.0
C1232 C 0.86324 0.25282 0.76571 0.0
C1233 C 0.10878 0.35452 0.7535 0.0
C1234 C 0.10857 0.37117 0.76856 0.0
C1235 C 0.9346 0.35292 0.74134 0.0
C1236 C 0.90035 0.36036 0.74119 0.0
C1237 C 0.86133 0.32869 0.73826 0.0
C1238 C 0.90578 0.39823 0.74531 0.0
C1239 C 0.87242 0.40376 0.74708 0.0
C1240 C 0.82829 0.3339 0.74028 0.0
C1241 C 0.8337 0.37107 0.74482 0.0
C1242 C 0.89836 0.22164 0.73069 0.0
C1243 C 0.97853 0.24448 0.76951 0.0
C1244 C 0.89453 0.12536 0.76366 0.0
C1245 C 0.90342 0.09594 0.7714 0.0
C1246 C 0.92766 0.1067 0.78527 0.0
C1247 C 0.88669 0.05645 0.76525 0.0
C1248 C 0.8934 0.0278 0.77325 0.0
C1249 C 0.93444 0.07866 0.79317 0.0
C1250 C 0.91732 0.03956 0.78731 0.0
C1251 C 0.93114 0.27383 0.79468 0.0
H1252 H 0.85634 0.29969 0.73462 0.0
H1253 H 0.93574 0.42316 0.7473 0.0
H1254 H 0.79838 0.30905 0.73822 0.0
H1255 H 0.80768 0.37469 0.74599 0.0
H1256 H 0.94132 0.13682 0.79002 0.0
H1257 H 0.86806 0.0479 0.75448 0.0
H1258 H 0.95312 0.08729 0.80391 0.0
H1259 H 0.92344 0.01859 0.79364 0.0
Gd1260 Gd 0.35192 0.11319 0.58755 0.0
Gd1261 Gd 0.39877 0.21835 0.57253 0.0
C1262 C 0.32981 0.28168 0.55863 0.0
C1263 C 0.32989 0.27884 0.52915 0.0
C1264 C 0.36177 0.24941 0.54507 0.0
C1265 C 0.34963 0.25933 0.55927 0.0
C1266 C 0.35269 0.25969 0.52985 0.0
C1267 C 0.31886 0.29022 0.54352 0.0
C1268 C 0.32381 0.29693 0.57311 0.0
C1269 C 0.33865 0.29093 0.58763 0.0
N1270 N 0.36196 0.25189 0.57363 0.0
C1271 C 0.3583 0.26876 0.58762 0.0
H1272 H 0.37033 0.26504 0.59889 0.0
C1273 C 0.40392 0.22887 0.53268 0.0
N1274 N 0.38586 0.23324 0.54622 0.0
C1275 C 0.39479 0.23741 0.51729 0.0
C1276 C 0.36864 0.25242 0.51584 0.0
H1277 H 0.42428 0.21739 0.53375 0.0
H1278 H 0.30312 0.30687 0.5428 0.0
H1279 H 0.40421 0.08929 0.56132 0.0
H1280 H 0.30903 0.31454 0.57314 0.0
H1281 H 0.33517 0.30355 0.59883 0.0
H1282 H 0.32234 0.28673 0.51757 0.0
H1283 H 0.30416 0.08735 0.62299 0.0
H1284 H 0.46893 0.04569 0.58837 0.0
H1285 H 0.4519 0.06483 0.56217 0.0
H1286 H 0.41636 0.03216 0.64221 0.0
H1287 H 0.40819 0.23274 0.50657 0.0
H1288 H 0.36221 0.25973 0.50393 0.0
H1289 H 0.45589 0.03411 0.61837 0.0
H1290 H 0.30773 0.05799 0.64921 0.0
N1291 N 0.39522 0.08626 0.58696 0.0
C1292 C 0.44805 0.05674 0.5881 0.0
C1293 C 0.43838 0.06735 0.5733 0.0
C1294 C 0.42927 0.05889 0.60229 0.0
C1295 C 0.40252 0.07375 0.60126 0.0
C1296 C 0.4112 0.08136 0.57291 0.0
N1297 N 0.35365 0.0852 0.61272 0.0
C1298 C 0.38077 0.073 0.61462 0.0
C1299 C 0.32906 0.06294 0.6397 0.0
C1300 C 0.35859 0.05263 0.64218 0.0
C1301 C 0.32691 0.07919 0.6248 0.0
C1302 C 0.38451 0.05695 0.62946 0.0
H1303 H 0.36016 0.04003 0.65373 0.0
O1304 O 0.28758 0.07218 0.58928 0.0
O1305 O 0.34442 0.16501 0.58116 0.0
O1306 O 0.39341 0.21515 0.60058 0.0
O1307 O 0.37923 0.15127 0.60965 0.0
O1308 O 0.30399 0.12538 0.59756 0.0
O1309 O 0.32215 0.06151 0.57151 0.0
O1310 O 0.45818 0.26396 0.56424 0.0
O1311 O 0.40983 0.16996 0.58169 0.0
O1312 O 0.36492 0.12074 0.56075 0.0
O1313 O 0.35511 0.17294 0.55375 0.0
O1314 O 0.44252 0.20215 0.56177 0.0
O1315 O 0.4356 0.27178 0.58702 0.0
C1316 C 0.31373 0.15746 0.58944 0.0
C1317 C 0.41268 0.04414 0.63086 0.0
C1318 C 0.43515 0.04523 0.61728 0.0
C1319 C 0.28693 0.04834 0.57804 0.0
C1320 C 0.26257 1.00505 0.5815 0.0
C1321 C 0.28104 0.98276 0.58551 0.0
C1322 C 0.22023 0.98598 0.58127 0.0
C1323 C 0.19671 0.94513 0.58532 0.0
C1324 C 0.25782 0.94217 0.58922 0.0
C1325 C 0.21605 0.92352 0.58922 0.0
C1326 C 0.38919 0.18904 0.61222 0.0
C1327 C 0.4379 0.17514 0.57211 0.0
C1328 C 0.46438 0.28819 0.57635 0.0
C1329 C 0.47846 0.33078 0.5722 0.0
C1330 C 0.45318 0.33996 0.56329 0.0
C1331 C 0.51653 0.3625 0.57713 0.0
C1332 C 0.52862 0.40297 0.57325 0.0
C1333 C 0.46419 0.37939 0.55984 0.0
C1334 C 0.50119 0.41055 0.56488 0.0
C1335 C 0.35229 0.1379 0.55042 0.0
H1336 H 0.3134 0.99678 0.5859 0.0
H1337 H 0.20572 1.00314 0.57847 0.0
H1338 H 0.27227 0.92517 0.59232 0.0
H1339 H 0.19871 0.89215 0.59245 0.0
H1340 H 0.42472 0.31661 0.55901 0.0
H1341 H 0.53664 0.35556 0.58369 0.0
H1342 H 0.44383 0.38586 0.55321 0.0
H1343 H 0.50807 0.44079 0.56222 0.0
Gd1344 Gd 0.97316 0.26266 0.58977 0.0
Gd1345 Gd 0.87146 0.21075 0.57268 0.0
C1346 C 0.8146 0.08052 0.55671 0.0
C1347 C 0.81328 0.08617 0.52738 0.0
C1348 C 0.83888 0.1456 0.54435 0.0
C1349 C 0.83286 0.12251 0.5581 0.0
C1350 C 0.82767 0.12737 0.52892 0.0
C1351 C 0.80662 0.06274 0.54127 0.0
C1352 C 0.80251 0.05743 0.57087 0.0
C1353 C 0.80676 0.07612 0.58582 0.0
N1354 N 0.84054 0.14049 0.57291 0.0
C1355 C 0.82539 0.11781 0.58661 0.0
H1356 H 0.82757 0.13138 0.59825 0.0
C1357 C 0.84873 0.20673 0.53368 0.0
N1358 N 0.85141 0.18506 0.54628 0.0
C1359 C 0.83855 0.19019 0.51811 0.0
C1360 C 0.82893 0.1506 0.51564 0.0
H1361 H 0.85583 0.23728 0.53548 0.0
H1362 H 0.79342 0.03065 0.53998 0.0
H1363 H 1.00868 0.33901 0.56306 0.0
H1364 H 0.78809 0.02511 0.57033 0.0
H1365 H 0.79537 0.05844 0.59673 0.0
H1366 H 0.80518 0.07178 0.51559 0.0
H1367 H 0.9813 0.23687 0.62758 0.0
H1368 H 0.05175 0.44809 0.58956 0.0
H1369 H 0.03823 0.41209 0.5634 0.0
H1370 H 0.04552 0.40683 0.64487 0.0
H1371 H 0.83798 0.20794 0.50805 0.0
H1372 H 0.82058 0.13771 0.5036 0.0
H1373 H 0.05383 0.44577 0.62004 0.0
H1374 H 1.00369 0.26862 0.65449 0.0
N1375 N 1.00376 0.33295 0.5888 0.0
C1376 C 0.03856 0.41587 0.58949 0.0
C1377 C 0.03113 0.39567 0.57472 0.0
C1378 C 0.03056 0.3944 0.60401 0.0
C1379 C 1.0132 0.35245 0.60323 0.0
C1380 C 1.0143 0.35407 0.5746 0.0
N1381 N 0.99336 0.29074 0.61576 0.0
C1382 C 1.00823 0.33066 0.61717 0.0
C1383 C 1.00488 0.2864 0.64412 0.0
C1384 C 1.0188 0.32726 0.6459 0.0
C1385 C 0.99237 0.26854 0.62887 0.0
C1386 C 1.0208 0.35 0.63232 0.0
H1387 H 0.0285 0.34105 0.65773 0.0
O1388 O 1.01391 0.2418 0.59724 0.0
O1389 O 0.92396 0.20463 0.57988 0.0
O1390 O 0.87266 0.20031 0.60011 0.0
O1391 O 0.92958 0.2577 0.60911 0.0
O1392 O 0.95356 0.20155 0.60033 0.0
O1393 O 0.02869 0.28145 0.57665 0.0
O1394 O 0.83851 0.23665 0.58428 0.0
O1395 O 0.92094 0.2693 0.58165 0.0
O1396 O 0.97809 0.26734 0.56253 0.0
O1397 O 0.91492 0.22539 0.55114 0.0
O1398 O 0.89173 0.26975 0.56053 0.0
O1399 O 0.80635 0.18286 0.57048 0.0
C1400 C 0.92658 0.18077 0.58972 0.0
C1401 C 0.03617 0.39148 0.63331 0.0
C1402 C 0.04089 0.41364 0.61918 0.0
C1403 C 0.04039 0.26213 0.58612 0.0
C1404 C 0.0828 0.28343 0.59127 0.0
C1405 C 0.10132 0.32385 0.59574 0.0
C1406 C 0.10501 0.26328 0.59181 0.0
C1407 C 0.14537 0.28344 0.59702 0.0
C1408 C 0.14134 0.34408 0.60057 0.0
C1409 C 0.16317 0.32416 0.60123 0.0
C1410 C 0.89448 0.22548 0.61186 0.0
C1411 C 0.91922 0.292 0.57083 0.0
C1412 C 0.80367 0.21009 0.57869 0.0
C1413 C 0.77767 0.22471 0.57174 0.0
C1414 C 0.79367 0.25605 0.56043 0.0
C1415 C 0.7366 0.20718 0.57615 0.0
C1416 C 0.71183 0.22075 0.56911 0.0
C1417 C 0.76972 0.26987 0.55365 0.0
C1418 C 0.72937 0.25252 0.5579 0.0
C1419 C 0.95458 0.24924 0.54999 0.0
H1420 H 0.08485 0.3398 0.59547 0.0
H1421 H 0.09067 0.23189 0.58858 0.0
H1422 H 0.15549 0.37534 0.60393 0.0
H1423 H 0.19417 0.34069 0.6051 0.0
H1424 H 0.82478 0.26995 0.55683 0.0
H1425 H 0.72393 0.18277 0.5848 0.0
H1426 H 0.78254 0.29429 0.54501 0.0
H1427 H 0.71193 0.26448 0.5525 0.0
Gd1428 Gd 0.82856 0.73906 0.58707 0.0
Gd1429 Gd 0.87124 0.67952 0.57206 0.0
C1430 C 1.0009 0.7497 0.55465 0.0
C1431 C 0.99367 0.74045 0.52541 0.0
C1432 C 0.93475 0.71127 0.54282 0.0
C1433 C 0.95883 0.72783 0.55631 0.0
C1434 C 0.952 0.7165 0.52725 0.0
C1435 C 1.0181 0.75675 0.5391 0.0
C1436 C 0.02445 0.76212 0.56872 0.0
C1437 C 1.00602 0.75201 0.58391 0.0
N1438 N 0.94136 0.71956 0.57117 0.0
C1439 C 0.96423 0.73021 0.58492 0.0
H1440 H 0.95027 0.72217 0.59673 0.0
C1441 C 0.87122 0.66344 0.53265 0.0
N1442 N 0.89481 0.68697 0.54511 0.0
C1443 C 0.88668 0.66841 0.51692 0.0
C1444 C 0.92715 0.69563 0.51415 0.0
H1445 H 0.83999 0.64195 0.53483 0.0
H1446 H 0.05033 0.77366 0.53757 0.0
H1447 H 0.82205 0.79908 0.55926 0.0
H1448 H 0.05685 0.77849 0.568 0.0
H1449 H 0.02397 0.76088 0.59485 0.0
H1450 H 1.00745 0.74507 0.51354 0.0
H1451 H 0.78185 0.67656 0.61813 0.0
H1452 H 0.69776 0.75488 0.54912 0.0
H1453 H 0.7692 0.80373 0.54392 0.0
H1454 H 0.6309 0.65027 0.58845 0.0
H1455 H 0.86752 0.65091 0.50699 0.0
H1456 H 0.93924 0.69891 0.50201 0.0
H1457 H 0.64623 0.69715 0.56571 0.0
H1458 H 0.7127 0.63132 0.62739 0.0
N1459 N 0.78065 0.74736 0.57245 0.0
C1460 C 0.72077 0.75284 0.55589 0.0
C1461 C 0.76107 0.78054 0.55294 0.0
C1462 C 0.71062 0.72372 0.56795 0.0
C1463 C 0.7417 0.72223 0.57635 0.0
C1464 C 0.79084 0.77796 0.56165 0.0
N1465 N 0.76409 0.69705 0.59749 0.0
C1466 C 0.73317 0.69607 0.58919 0.0
C1467 C 0.71804 0.6493 0.61659 0.0
C1468 C 0.68581 0.64637 0.60771 0.0
C1469 C 0.75725 0.6751 0.61133 0.0
C1470 C 0.69314 0.67037 0.59396 0.0
H1471 H 0.65548 0.62616 0.61175 0.0
O1472 O 0.82195 0.76562 0.60934 0.0
O1473 O 0.88519 0.73828 0.58215 0.0
O1474 O 0.87633 0.68213 0.59998 0.0
O1475 O 0.8507 0.72229 0.60919 0.0
O1476 O 0.88094 0.7844 0.57195 0.0
O1477 O 0.85683 0.80372 0.5895 0.0
O1478 O 0.90087 0.64825 0.58181 0.0
O1479 O 0.81852 0.67629 0.58507 0.0
O1480 O 0.80545 0.71794 0.56215 0.0
O1481 O 0.85585 0.70956 0.55077 0.0
O1482 O 0.80734 0.63809 0.56538 0.0
O1483 O 0.84958 0.61664 0.5664 0.0
C1484 C 0.90502 0.77091 0.57455 0.0
C1485 C 0.66188 0.6702 0.58511 0.0
C1486 C 0.6706 0.69687 0.57215 0.0
C1487 C 0.8407 0.80198 0.60354 0.0
C1488 C 0.82191 0.82728 0.60558 0.0
C1489 C 0.78461 0.81207 0.61335 0.0
C1490 C 0.84196 0.86755 0.60021 0.0
C1491 C 0.82532 0.89237 0.60296 0.0
C1492 C 0.76801 0.83649 0.61598 0.0
C1493 C 0.78827 0.87637 0.61096 0.0
C1494 C 0.86792 0.70058 0.61174 0.0
C1495 C 0.79102 0.64801 0.57674 0.0
C1496 C 0.87723 0.61455 0.57466 0.0
C1497 C 0.86572 0.57704 0.58373 0.0
C1498 C 0.83624 0.56368 0.59578 0.0
C1499 C 0.88393 0.55388 0.58002 0.0
C1500 C 0.87219 0.51693 0.58802 0.0
C1501 C 0.82459 0.52766 0.60384 0.0
C1502 C 0.84201 0.50442 0.59996 0.0
C1503 C 0.82481 0.71572 0.54949 0.0
H1504 H 0.76829 0.78135 0.61752 0.0
H1505 H 0.87077 0.87977 0.59422 0.0
H1506 H 0.73933 0.82447 0.62202 0.0
H1507 H 0.77473 0.89469 0.61316 0.0
H1508 H 0.82204 0.58095 0.59886 0.0
H1509 H 0.90724 0.56492 0.57088 0.0
H1510 H 0.80143 0.51736 0.61302 0.0
H1511 H 0.83091 0.4761 0.60615 0.0
H1512 H 0.50326 0.9318 0.0657 0.0
H1513 H 0.50085 0.94666 0.11773 0.0
H1514 H 0.5247 0.89869 0.12206 0.0
H1515 H 0.47063 0.82318 0.06827 0.0
H1516 H 0.50087 0.82535 0.05118 0.0
H1517 H 0.48068 0.85855 0.05214 0.0
H1518 H 0.55243 0.92083 0.04936 0.0
H1519 H 0.57067 0.8863 0.04732 0.0
H1520 H 0.5915 0.92461 0.06254 0.0
H1521 H 0.55485 0.85375 0.12062 0.0
H1522 H 0.58739 0.81439 0.11357 0.0
H1523 H 0.57 0.82791 0.06243 0.0
C1524 C 0.50783 0.92485 0.07798 0.0
C1525 C 0.50169 0.94405 0.0914 0.0
C1526 C 0.50663 0.93333 0.1073 0.0
C1527 C 0.5198 0.90576 0.10986 0.0
C1528 C 0.52731 0.88861 0.09638 0.0
C1529 C 0.52113 0.89742 0.08073 0.0
C1530 C 0.53162 0.87488 0.06836 0.0
C1531 C 0.49369 0.84363 0.05947 0.0
C1532 C 0.56343 0.90341 0.05621 0.0
C1533 C 0.54781 0.85477 0.07944 0.0
C1534 C 0.544 0.86215 0.09557 0.0
C1535 C 0.55753 0.84737 0.10804 0.0
C1536 C 0.57588 0.82491 0.10393 0.0
C1537 C 0.58125 0.81796 0.08747 0.0
C1538 C 0.56644 0.83276 0.07513 0.0
H1539 H 0.25859 0.77157 0.06338 0.0
H1540 H 0.30439 0.81524 0.11176 0.0
H1541 H 0.25366 0.75006 0.12321 0.0
H1542 H 0.15644 0.71383 0.07282 0.0
H1543 H 0.14539 0.67174 0.05985 0.0
H1544 H 0.18489 0.72119 0.05461 0.0
H1545 H 0.23646 0.69913 0.05305 0.0
H1546 H 0.19901 0.64836 0.05775 0.0
H1547 H 0.24379 0.67387 0.06991 0.0
H1548 H 0.20224 0.67725 0.12905 0.0
H1549 H 0.15117 0.60519 0.12898 0.0
H1550 H 0.13748 0.60962 0.07698 0.0
C1551 C 0.25823 0.76765 0.07641 0.0
C1552 C 0.28593 0.79895 0.08662 0.0
C1553 C 0.28344 0.79225 0.10363 0.0
C1554 C 0.25484 0.7551 0.11024 0.0
C1555 C 0.22875 0.72477 0.09974 0.0
C1556 C 0.23018 0.73076 0.08317 0.0
C1557 C 0.19981 0.69304 0.07441 0.0
C1558 C 0.16977 0.70031 0.06488 0.0
C1559 C 0.22101 0.67767 0.06312 0.0
C1560 C 0.18029 0.66492 0.08867 0.0
C1561 C 0.19797 0.68361 0.10316 0.0
C1562 C 0.18764 0.66267 0.11782 0.0
C1563 C 0.1586 0.62179 0.1177 0.0
C1564 C 0.13919 0.60238 0.10312 0.0
C1565 C 0.15044 0.62427 0.08841 0.0
H1566 H 0.325 0.56667 0.10372 0.0
H1567 H 0.28263 0.51503 0.05609 0.0
H1568 H 0.34749 0.51823 0.05078 0.0
H1569 H 0.4251 0.63479 0.09272 0.0
H1570 H 0.44683 0.62862 0.11111 0.0
H1571 H 0.39654 0.62036 0.1113 0.0
H1572 H 0.37319 0.5517 0.12343 0.0
H1573 H 0.42142 0.55491 0.12194 0.0
H1574 H 0.37807 0.5147 0.11209 0.0
H1575 H 0.42127 0.53987 0.04883 0.0
H1576 H 0.49362 0.56393 0.05249 0.0
H1577 H 0.48559 0.59212 0.10274 0.0
C1578 C 0.32908 0.55507 0.09234 0.0
C1579 C 0.29867 0.54023 0.08034 0.0
C1580 C 0.30523 0.52582 0.06553 0.0
C1581 C 0.34212 0.52793 0.06236 0.0
C1582 C 0.37192 0.54384 0.07426 0.0
C1583 C 0.36545 0.55628 0.08911 0.0
C1584 C 0.40245 0.5723 0.0998 0.0
C1585 C 0.41868 0.61664 0.10397 0.0
C1586 C 0.39335 0.54692 0.11525 0.0
C1587 C 0.43097 0.56731 0.0886 0.0
C1588 C 0.41307 0.55193 0.07374 0.0
C1589 C 0.43508 0.55036 0.06059 0.0
C1590 C 0.47612 0.56414 0.06275 0.0
C1591 C 0.49446 0.57771 0.07811 0.0
C1592 C 0.47161 0.57957 0.09116 0.0
H1593 H 0.91843 0.49418 0.90429 0.0
H1594 H 0.99885 0.55111 0.9448 0.0
H1595 H 0.96594 0.58967 0.95084 0.0
H1596 H 0.90536 0.58102 0.89192 0.0
H1597 H 0.85322 0.54793 0.88761 0.0
H1598 H 0.88834 0.53039 0.88526 0.0
H1599 H 0.84271 0.47146 0.90467 0.0
H1600 H 0.80987 0.49156 0.9076 0.0
H1601 H 0.83303 0.4826 0.92487 0.0
H1602 H 0.92178 0.6184 0.95408 0.0
H1603 H 0.87007 0.6378 0.95373 0.0
H1604 H 0.81648 0.56359 0.91107 0.0
C1605 C 0.92993 0.51591 0.91403 0.0
C1606 C 0.96265 0.5209 0.9236 0.0
C1607 C 0.97504 0.54753 0.93693 0.0
C1608 C 0.95631 0.56966 0.94051 0.0
C1609 C 0.92428 0.56414 0.93091 0.0
C1610 C 0.91108 0.53808 0.91789 0.0
C1611 C 0.87361 0.5354 0.91051 0.0
C1612 C 0.88062 0.54951 0.89276 0.0
C1613 C 0.83768 0.49272 0.91201 0.0
C1614 C 0.86835 0.56436 0.92132 0.0
C1615 C 0.8979 0.58035 0.93302 0.0
C1616 C 0.89889 0.60669 0.94478 0.0
C1617 C 0.8694 0.61774 0.94439 0.0
C1618 C 0.83938 0.603 0.93219 0.0
C1619 C 0.83878 0.57548 0.9206 0.0
H1620 H 0.51066 0.26503 0.89981 0.0
H1621 H 0.46746 0.25311 0.94927 0.0
H1622 H 0.4991 0.32638 0.95141 0.0
H1623 H 0.60819 0.36494 0.90742 0.0
H1624 H 0.60609 0.38267 0.8874 0.0
H1625 H 0.58688 0.33003 0.89086 0.0
H1626 H 0.52338 0.31816 0.87759 0.0
H1627 H 0.53482 0.36938 0.87639 0.0
H1628 H 0.49141 0.3327 0.88748 0.0
H1629 H 0.53317 0.39992 0.94834 0.0
H1630 H 0.56079 0.4695 0.93926 0.0
H1631 H 0.57786 0.43638 0.89086 0.0
C1632 C 0.50899 0.27806 0.91122 0.0
C1633 C 0.48667 0.25329 0.92442 0.0
C1634 C 0.4843 0.2714 0.93902 0.0
C1635 C 0.50241 0.31305 0.94039 0.0
C1636 C 0.5232 0.33659 0.92708 0.0
C1637 C 0.527 0.31999 0.91279 0.0
C1638 C 0.54835 0.35243 0.89998 0.0
C1639 C 0.58984 0.35783 0.89619 0.0
C1640 C 0.52304 0.34278 0.88445 0.0
C1641 C 0.55262 0.38904 0.90891 0.0
C1642 C 0.53976 0.37926 0.92479 0.0
C1643 C 0.54279 0.40786 0.93588 0.0
C1644 C 0.55818 0.44733 0.93056 0.0
C1645 C 0.56944 0.45802 0.91416 0.0
C1646 C 0.56789 0.42867 0.90331 0.0
H1647 H 0.62224 0.14145 0.90048 0.0
H1648 H 0.59914 0.10279 0.95051 0.0
H1649 H 0.6712 0.14222 0.95667 0.0
H1650 H 0.72696 0.15938 0.89369 0.0
H1651 H 0.73854 0.20434 0.88317 0.0
H1652 H 0.68757 0.16356 0.88358 0.0
H1653 H 0.67314 0.22014 0.89444 0.0
H1654 H 0.72587 0.2559 0.89621 0.0
H1655 H 0.69389 0.24311 0.91377 0.0
H1656 H 0.74463 0.18369 0.95749 0.0
H1657 H 0.81679 0.22995 0.95363 0.0
H1658 H 0.79479 0.25171 0.90402 0.0
C1659 C 0.6329 0.14021 0.9125 0.0
C1660 C 0.60573 0.11577 0.92476 0.0
C1661 C 0.61997 0.11806 0.94074 0.0
C1662 C 0.66075 0.14114 0.94438 0.0
C1663 C 0.68697 0.16411 0.93209 0.0
C1664 C 0.67382 0.16478 0.91653 0.0
C1665 C 0.70807 0.19693 0.90643 0.0
C1666 C 0.71555 0.17989 0.89081 0.0
C1667 C 0.69974 0.23103 0.90248 0.0
C1668 C 0.74294 0.21101 0.9183 0.0
C1669 C 0.72956 0.19202 0.93309 0.0
C1670 C 0.75553 0.19893 0.946 0.0
C1671 C 0.7965 0.22519 0.94368 0.0
C1672 C 0.81148 0.24435 0.92855 0.0
C1673 C 0.78415 0.23779 0.91577 0.0
H1674 H 0.26897 0.1757 0.40211 0.0
H1675 H 0.2666 0.15241 0.4537 0.0
H1676 H 0.23218 0.19121 0.45866 0.0
H1677 H 0.29032 0.27326 0.40406 0.0
H1678 H 0.2576 0.27122 0.388 0.0
H1679 H 0.27757 0.23789 0.38778 0.0
H1680 H 0.20726 0.17597 0.38645 0.0
H1681 H 0.18611 0.20834 0.38579 0.0
H1682 H 0.16978 0.16984 0.40106 0.0
H1683 H 0.20104 0.23652 0.45789 0.0
H1684 H 0.17778 0.2845 0.4514 0.0
H1685 H 0.19953 0.27606 0.40038 0.0
C1686 C 0.26084 0.17843 0.41444 0.0
C1687 C 0.27051 0.16109 0.42754 0.0
C1688 C 0.25915 0.16514 0.44348 0.0
C1689 C 0.23968 0.18719 0.4464 0.0
C1690 C 0.23111 0.20442 0.43321 0.0
C1691 C 0.24095 0.1998 0.41752 0.0
C1692 C 0.22929 0.22183 0.40545 0.0
C1693 C 0.26585 0.25291 0.39577 0.0
C1694 C 0.19613 0.19222 0.39402 0.0
C1695 C 0.21342 0.24146 0.41685 0.0
C1696 C 0.21384 0.23047 0.4328 0.0
C1697 C 0.2007 0.24528 0.44544 0.0
C1698 C 0.18793 0.27278 0.44169 0.0
C1699 C 0.18887 0.28545 0.42549 0.0
C1700 C 0.20026 0.26827 0.41294 0.0
H1701 H 0.91775 0.12951 0.39215 0.0
H1702 H 0.957 0.16412 0.44194 0.0
H1703 H 0.916 0.09357 0.45043 0.0
H1704 H 0.81787 0.06041 0.40108 0.0
H1705 H 0.81088 0.02357 0.38602 0.0
H1706 H 0.84648 0.07565 0.38261 0.0
H1707 H 0.90447 0.06209 0.37844 0.0
H1708 H 0.86972 1.00934 0.38065 0.0
H1709 H 0.91376 0.03337 0.39329 0.0
H1710 H 0.87092 0.01777 0.4534 0.0
H1711 H 0.82205 0.9452 0.45075 0.0
H1712 H 0.80846 0.96161 0.39962 0.0
C1713 C 0.91771 0.12255 0.40488 0.0
C1714 C 0.94102 0.15289 0.41632 0.0
C1715 C 0.94022 0.14173 0.43281 0.0
C1716 C 0.91674 0.10162 0.4378 0.0
C1717 C 0.89397 0.07271 0.42621 0.0
C1718 C 0.89425 0.08276 0.41009 0.0
C1719 C 0.86635 0.04633 0.40007 0.0
C1720 C 0.83342 0.05177 0.39198 0.0
C1721 C 0.88999 0.03726 0.38736 0.0
C1722 C 0.84947 1.01435 0.41313 0.0
C1723 C 0.86641 0.02992 0.42808 0.0
C1724 C 0.85699 1.00551 0.4418 0.0
C1725 C 0.82898 0.96443 0.44025 0.0
C1726 C 0.81008 0.94834 0.42518 0.0
C1727 C 0.82132 0.97354 0.41142 0.0
H1728 H 0.15124 0.91713 0.3967 0.0
H1729 H 0.17299 0.92178 0.44846 0.0
H1730 H 0.10202 0.89989 0.45386 0.0
H1731 H 0.07856 0.95294 0.40007 0.0
H1732 H 0.04758 0.92205 0.38368 0.0
H1733 H 0.10067 0.93993 0.38357 0.0
H1734 H 0.08827 0.86574 0.38211 0.0
H1735 H 0.03655 0.85223 0.37984 0.0
H1736 H 0.05038 0.82918 0.39545 0.0
H1737 H 0.02763 0.87209 0.45367 0.0
H1738 H 0.95522 0.84175 0.44783 0.0
H1739 H 0.98083 0.85535 0.3962 0.0
C1740 C 0.14086 0.91347 0.40914 0.0
C1741 C 0.16722 0.91979 0.42219 0.0
C1742 C 0.15306 0.91594 0.43831 0.0
C1743 C 0.11282 0.90383 0.44149 0.0
C1744 C 0.08713 0.89624 0.42838 0.0
C1745 C 0.10054 0.90114 0.41251 0.0
C1746 C 0.0665 0.89107 0.40069 0.0
C1747 C 0.07377 0.92875 0.39146 0.0
C1748 C 0.06022 0.85762 0.38884 0.0
C1749 C 0.03154 0.87706 0.41237 0.0
C1750 C 0.04427 0.88116 0.4283 0.0
C1751 C 1.01736 0.86915 0.44125 0.0
C1752 C 0.97631 0.85201 0.43783 0.0
C1753 C 0.96245 0.8463 0.42159 0.0
C1754 C 0.9906 0.85942 0.40874 0.0
H1755 H 0.47811 0.89003 0.23281 0.0
H1756 H 0.51051 0.94187 0.28098 0.0
H1757 H 0.55193 0.9104 0.28497 0.0
H1758 H 0.479 0.79417 0.24407 0.0
H1759 H 0.4986 0.79205 0.22445 0.0
H1760 H 0.46609 0.8129 0.22641 0.0
H1761 H 0.51895 0.87463 0.21201 0.0
H1762 H 0.55606 0.85932 0.21148 0.0
H1763 H 0.56687 0.90556 0.22116 0.0
H1764 H 0.59217 0.87673 0.28362 0.0
H1765 H 0.63367 0.84705 0.27613 0.0
H1766 H 0.58028 0.81957 0.22815 0.0
C1767 C 0.4931 0.89374 0.24433 0.0
C1768 C 0.49098 0.91833 0.25664 0.0
C1769 C 0.51174 0.92325 0.27142 0.0
C1770 C 0.53518 0.90531 0.27382 0.0
C1771 C 0.5376 0.8822 0.26138 0.0
C1772 C 0.51697 0.87599 0.24694 0.0
C1773 C 0.52726 0.85191 0.2352 0.0
C1774 C 0.49056 0.81029 0.23237 0.0
C1775 C 0.54333 0.87415 0.21902 0.0
C1776 C 0.55924 0.84856 0.24485 0.0
C1777 C 0.56319 0.86472 0.26018 0.0
C1778 C 0.58955 0.8642 0.27163 0.0
C1779 C 0.61321 0.84753 0.26724 0.0
C1780 C 0.6113 0.83254 0.25139 0.0
C1781 C 0.58308 0.83195 0.24019 0.0
H1782 H 0.24204 0.78142 0.23408 0.0
H1783 H 0.21636 0.80537 0.28265 0.0
H1784 H 0.18371 0.73328 0.28916 0.0
H1785 H 0.15357 0.67902 0.22681 0.0
H1786 H 0.18596 0.66467 0.21705 0.0
H1787 H 0.19875 0.7164 0.21689 0.0
H1788 H 0.26786 0.72923 0.22902 0.0
H1789 H 0.24951 0.67632 0.2309 0.0
H1790 H 0.26786 0.70805 0.24854 0.0
H1791 H 0.15155 0.65883 0.29022 0.0
H1792 H 0.12495 0.58651 0.2864 0.0
H1793 H 0.17604 0.60873 0.23801 0.0
C1794 C 0.22819 0.77106 0.24586 0.0
C1795 C 0.22927 0.79864 0.25757 0.0
C1796 C 0.21398 0.78454 0.2733 0.0
C1797 C 0.1957 0.74367 0.27713 0.0
C1798 C 0.19439 0.71713 0.26531 0.0
C1799 C 0.21062 0.73013 0.25004 0.0
C1800 C 0.20858 0.69547 0.24026 0.0
C1801 C 0.18538 0.68864 0.22431 0.0
C1802 C 0.25098 0.70271 0.23699 0.0
C1803 C 0.18603 0.66064 0.252 0.0
C1804 C 0.17869 0.67416 0.26643 0.0
C1805 C 0.15738 0.64797 0.27902 0.0
C1806 C 0.14236 0.60686 0.27673 0.0
C1807 C 0.14854 0.5918 0.26198 0.0
C1808 C 0.17137 0.61931 0.24953 0.0
H1809 H 0.44257 0.57535 0.2966 0.0
H1810 H 0.48193 0.63018 0.24901 0.0
H1811 H 0.4174 0.57895 0.23748 0.0
H1812 H 0.38312 0.47466 0.28579 0.0
H1813 H 0.3423 0.46348 0.29949 0.0
H1814 H 0.39255 0.50174 0.30454 0.0
H1815 H 0.37208 0.55487 0.30783 0.0
H1816 H 0.32088 0.51771 0.30371 0.0
H1817 H 0.34495 0.56288 0.29182 0.0
H1818 H 0.34501 0.52262 0.23142 0.0
H1819 H 0.27296 0.47022 0.23202 0.0
H1820 H 0.28021 0.45932 0.28406 0.0
C1821 C 0.43812 0.57746 0.28376 0.0
C1822 C 0.46831 0.60773 0.27389 0.0
C1823 C 0.46032 0.60737 0.257 0.0
C1824 C 0.42334 0.5784 0.2503 0.0
C1825 C 0.39406 0.55013 0.26059 0.0
C1826 C 0.40108 0.5499 0.27701 0.0
C1827 C 0.3638 0.5193 0.28589 0.0
C1828 C 0.37082 0.4879 0.29441 0.0
C1829 C 0.34961 0.53994 0.29803 0.0
C1830 C 0.33477 0.50143 0.27186 0.0
C1831 C 0.35263 0.51938 0.2573 0.0
C1832 C 0.33097 0.50831 0.24276 0.0
C1833 C 0.29019 0.47836 0.24316 0.0
C1834 C 0.27154 0.45998 0.258 0.0
C1835 C 0.29411 0.47217 0.27249 0.0
H1836 H 0.81824 0.56377 0.78388 0.0
H1837 H 0.87406 0.63309 0.74077 0.0
H1838 H 0.89533 0.58551 0.73252 0.0
H1839 H 0.89116 0.53007 0.79145 0.0
H1840 H 0.8534 0.48039 0.79742 0.0
H1841 H 0.84544 0.52205 0.8008 0.0
H1842 H 0.77863 0.48593 0.78427 0.0
H1843 H 0.78682 0.44425 0.78168 0.0
H1844 H 0.77945 0.46774 0.76419 0.0
H1845 H 0.91278 0.53253 0.72922 0.0
H1846 H 0.91323 0.46882 0.72793 0.0
H1847 H 0.84123 0.4285 0.77172 0.0
C1848 C 0.83573 0.56922 0.77292 0.0
C1849 C 0.84634 0.60344 0.76326 0.0
C1850 C 0.86715 0.6082 0.74857 0.0
C1851 C 0.87929 0.58119 0.7438 0.0
C1852 C 0.86997 0.5488 0.75383 0.0
C1853 C 0.84784 0.54195 0.76789 0.0
C1854 C 0.83864 0.50234 0.77548 0.0
C1855 C 0.85833 0.50913 0.79229 0.0
C1856 C 0.79319 0.47339 0.77646 0.0
C1857 C 0.85846 0.48803 0.76329 0.0
C1858 C 0.87736 0.51605 0.75119 0.0
C1859 C 0.89802 0.5102 0.73858 0.0
C1860 C 0.89837 0.47411 0.73799 0.0
C1861 C 0.87748 0.44401 0.74973 0.0
C1862 C 0.85765 0.45126 0.76266 0.0
H1863 H 0.66065 0.42671 0.77035 0.0
H1864 H 0.61738 0.46241 0.72858 0.0
H1865 H 0.55372 0.39808 0.72965 0.0
H1866 H 0.61896 0.32502 0.76044 0.0
H1867 H 0.60392 0.3054 0.78067 0.0
H1868 H 0.64569 0.35514 0.77774 0.0
H1869 H 0.61225 0.38494 0.79586 0.0
H1870 H 0.57076 0.33524 0.79932 0.0
H1871 H 0.56183 0.37364 0.79143 0.0
H1872 H 0.50017 0.32743 0.73256 0.0
H1873 H 0.4521 0.25871 0.74051 0.0
H1874 H 0.52458 0.26809 0.78208 0.0
C1875 C 0.63738 0.42115 0.76164 0.0
C1876 C 0.64383 0.44962 0.74937 0.0
C1877 C 0.61287 0.44132 0.73815 0.0
C1878 C 0.57677 0.40474 0.7386 0.0
C1879 C 0.57171 0.37702 0.75057 0.0
C1880 C 0.60059 0.38502 0.76217 0.0
C1881 C 0.58695 0.34971 0.77374 0.0
C1882 C 0.61558 0.33282 0.77311 0.0
C1883 C 0.5827 0.36161 0.79112 0.0
C1884 C 0.54627 0.32037 0.76658 0.0
C1885 C 0.53868 0.33683 0.75308 0.0
C1886 C 0.50516 0.31483 0.74345 0.0
C1887 C 0.47786 0.27561 0.74806 0.0
C1888 C 0.48306 0.2585 0.76234 0.0
C1889 C 0.51853 0.28099 0.77154 0.0
H1890 H 0.6459 0.23491 0.76848 0.0
H1891 H 0.62295 0.17719 0.72147 0.0
H1892 H 0.68908 0.18114 0.72246 0.0
H1893 H 0.74912 0.30234 0.76352 0.0
H1894 H 0.76387 0.29798 0.78384 0.0
H1895 H 0.71406 0.28914 0.78005 0.0
H1896 H 0.68356 0.21879 0.79304 0.0
H1897 H 0.73326 0.22744 0.79707 0.0
H1898 H 0.69837 0.18415 0.78561 0.0
H1899 H 0.76097 0.20001 0.72684 0.0
H1900 H 0.82891 0.22036 0.73641 0.0
H1901 H 0.8043 0.25946 0.78208 0.0
C1902 C 0.65456 0.22231 0.7586 0.0
C1903 C 0.62922 0.20537 0.74492 0.0
C1904 C 0.64166 0.1897 0.73211 0.0
C1905 C 0.67927 0.19211 0.73254 0.0
C1906 C 0.70389 0.20962 0.74603 0.0
C1907 C 0.69171 0.22353 0.75904 0.0
C1908 C 0.724 0.24059 0.7721 0.0
C1909 C 0.73862 0.28516 0.77505 0.0
C1910 C 0.70888 0.21629 0.78789 0.0
C1911 C 0.7565 0.23488 0.76426 0.0
C1912 C 0.74435 0.21747 0.74912 0.0
C1913 C 0.77017 0.21224 0.73892 0.0
C1914 C 0.80881 0.22371 0.74453 0.0
C1915 C 0.82132 0.23923 0.7604 0.0
C1916 C 0.79498 0.24584 0.77021 0.0
H1917 H 0.15634 0.23459 0.57509 0.0
H1918 H 0.18891 0.28599 0.62336 0.0
H1919 H 0.23471 0.25929 0.62628 0.0
H1920 H 0.1644 0.1426 0.58562 0.0
H1921 H 0.18311 0.14153 0.56567 0.0
H1922 H 0.14873 0.15995 0.56832 0.0
H1923 H 0.19836 0.22176 0.55333 0.0
H1924 H 0.23852 0.21065 0.55256 0.0
H1925 H 0.24566 0.25577 0.56225 0.0
H1926 H 0.2763 0.22704 0.62448 0.0
H1927 H 0.3155 0.19481 0.61722 0.0
H1928 H 0.26286 0.16873 0.56916 0.0
C1929 C 0.17248 0.23938 0.58639 0.0
C1930 C 0.16908 0.26262 0.59899 0.0
C1931 C 0.19121 0.26869 0.6135 0.0
C1932 C 0.2172 0.25344 0.61531 0.0
C1933 C 0.22083 0.2318 0.60256 0.0
C1934 C 0.19886 0.22426 0.58842 0.0
C1935 C 0.21002 0.20131 0.57643 0.0
C1936 C 0.17445 0.15883 0.57386 0.0
C1937 C 0.2241 0.22366 0.56018 0.0
C1938 C 0.24372 0.1999 0.58561 0.0
C1939 C 0.24792 0.21612 0.60095 0.0
C1940 C 0.27394 0.21501 0.6124 0.0
C1941 C 0.29636 0.1969 0.60815 0.0
C1942 C 0.29424 0.18163 0.59234 0.0
C1943 C 0.267 0.18255 0.58098 0.0
H1944 H 0.84765 0.95864 0.62177 0.0
H1945 H 0.84799 0.92193 0.5721 0.0
H1946 H 0.8745 0.99202 0.5629 0.0
H1947 H 0.8161 0.02569 0.61484 0.0
H1948 H 0.84844 0.06452 0.62881 0.0
H1949 H 0.83431 1.01322 0.6327 0.0
H1950 H 0.90677 0.02823 0.63399 0.0
H1951 H 0.92307 0.08058 0.63165 0.0
H1952 H 0.94133 0.05673 0.61802 0.0
H1953 H 0.89751 0.06673 0.55916 0.0
H1954 H 0.91803 0.13871 0.56154 0.0
H1955 H 0.90453 0.12584 0.61375 0.0
C1956 C 0.85393 0.96554 0.60898 0.0
C1957 C 0.84588 0.93496 0.59762 0.0
C1958 C 0.85434 0.94503 0.581 0.0
C1959 C 0.86921 0.98471 0.57568 0.0
C1960 C 0.87616 1.01411 0.58718 0.0
C1961 C 0.86947 1.00501 0.60354 0.0
C1962 C 0.87925 0.04181 0.61351 0.0
C1963 C 0.84235 0.03602 0.62301 0.0
C1964 C 0.91472 0.05246 0.62496 0.0
C1965 C 0.89095 0.07278 0.60019 0.0
C1966 C 0.88937 0.05648 0.58507 0.0
C1967 C 0.89888 0.07969 0.57096 0.0
C1968 C 0.91014 0.1204 0.57238 0.0
C1969 C 0.9116 0.13739 0.58777 0.0
C1970 C 0.90265 0.11332 0.6018 0.0
H1971 H 0.13977 0.93004 0.56152 0.0
H1972 H 0.15361 0.9131 0.61264 0.0
H1973 H 0.08021 0.87207 0.61553 0.0
H1974 H 0.04082 0.92977 0.56647 0.0
H1975 H 1.02188 0.9037 0.54751 0.0
H1976 H 0.07487 0.93759 0.55004 0.0
H1977 H 0.08683 0.88169 0.54113 0.0
H1978 H 0.03458 0.84415 0.54028 0.0
H1979 H 0.06861 0.83724 0.55313 0.0
H1980 H 1.00666 0.83047 0.61297 0.0
H1981 H 0.93673 0.78544 0.6047 0.0
H1982 H 0.96794 0.82354 0.55467 0.0
C1983 C 0.12708 0.9186 0.57338 0.0
C1984 C 0.1523 0.92508 0.58694 0.0
C1985 C 0.1348 0.90871 0.60217 0.0
C1986 C 0.09314 0.88548 0.60393 0.0
C1987 C 0.06907 0.87877 0.59034 0.0
C1988 C 0.08517 0.89496 0.57534 0.0
C1989 C 0.05226 0.88016 0.56252 0.0
C1990 C 0.04716 0.91488 0.55627 0.0
C1991 C 0.06097 0.8595 0.54843 0.0
C1992 C 1.01583 0.85096 0.57245 0.0
C1993 C 0.02625 0.85215 0.5886 0.0
C1994 C 0.99816 0.8291 0.60037 0.0
C1995 C 0.95851 0.80344 0.59554 0.0
C1996 C 0.94721 0.79997 0.57899 0.0
C1997 C 0.97604 0.82494 0.56734 0.0
H1998 H 0.4738 0.99109 0.04074 0.0
H1999 H 0.60014 0.07184 0.04943 0.0
H2000 H 0.61369 0.06746 0.02015 0.0
H2001 H 0.48257 0.93189 0.00771 0.0
H2002 H 0.44034 0.9289 0.99703 0.0
H2003 H 0.44247 0.93212 0.01889 0.0
H2004 H 0.43322 0.99351 0.01751 0.0
H2005 H 0.43198 0.99169 0.99574 0.0
H2006 H 0.46814 0.0368 0.00606 0.0
H2007 H 0.61143 0.05417 0.98884 0.0
H2008 H 0.59409 0.04432 0.95963 0.0
H2009 H 0.46794 0.98503 0.97191 0.0
C2010 C 0.50434 1.0086 0.03657 0.0
C2011 C 0.53572 0.03293 0.0474 0.0
C2012 C 0.57551 0.05319 0.04141 0.0
C2013 C 0.5834 0.05077 0.02478 0.0
C2014 C 0.55119 0.02794 0.01432 0.0
C2015 C 0.5124 1.00745 0.0201 0.0
C2016 C 0.48228 0.98852 0.00645 0.0
C2017 C 0.46065 0.94263 0.00759 0.0
C2018 C 0.45216 1.00359 0.00643 0.0
C2019 C 0.50981 1.00338 0.99185 0.0
C2020 C 0.54958 0.02424 0.99659 0.0
C2021 C 0.58035 0.0387 0.9851 0.0
C2022 C 0.57018 0.03317 0.96848 0.0
C2023 C 0.5297 0.01556 0.96339 0.0
C2024 C 0.49924 0.99952 0.97535 0.0
H2025 H 0.10057 0.5413 0.97294 0.0
H2026 H 0.9746 0.49385 0.96274 0.0
H2027 H 0.96192 0.50001 0.99166 0.0
H2028 H 0.08345 0.48662 0.00946 0.0
H2029 H 0.12659 0.52494 0.02 0.0
H2030 H 0.12693 0.52215 0.99819 0.0
H2031 H 0.14329 0.59587 0.99628 0.0
H2032 H 0.1428 0.59875 0.01812 0.0
H2033 H 0.11093 0.6106 0.00617 0.0
H2034 H 0.96173 0.50685 0.022 0.0
H2035 H 0.97316 0.50816 0.0516 0.0
H2036 H 0.09878 0.54911 0.04269 0.0
C2037 C 0.07066 0.53344 0.97681 0.0
C2038 C 0.03882 0.5189 0.96553 0.0
C2039 C 0.99964 0.50675 0.97109 0.0
C2040 C 0.99212 0.50993 0.98752 0.0
C2041 C 0.02402 0.5246 0.9984 0.0
C2042 C 0.06249 0.53581 0.99333 0.0
C2043 C 0.09046 0.54653 0.0078 0.0
C2044 C 0.10787 0.51838 0.00892 0.0
C2045 C 0.12385 0.59056 0.00704 0.0
C2046 C 0.06171 0.5394 0.0217 0.0
C2047 C 0.02361 0.52715 0.01601 0.0
C2048 C 0.99155 0.51679 0.02659 0.0
C2049 C 0.99835 0.51787 0.04342 0.0
C2050 C 0.03681 0.52878 0.04952 0.0
C2051 C 0.06902 0.5408 0.03844 0.0
H2052 H 0.52221 0.49504 0.96893 0.0
H2053 H 0.58562 0.62153 0.95733 0.0
H2054 H 0.60063 0.63777 0.98621 0.0
H2055 H 0.4794 0.51546 0.00897 0.0
H2056 H 0.4791 0.47412 0.01927 0.0
H2057 H 0.46968 0.47143 0.99772 0.0
H2058 H 0.52712 0.45629 0.99302 0.0
H2059 H 0.53768 0.46024 0.01447 0.0
H2060 H 0.57673 0.49107 1.00031 0.0
H2061 H 0.63425 0.63504 0.01165 0.0
H2062 H 0.64777 0.62535 0.03958 0.0
H2063 H 0.54083 0.5082 0.0405 0.0
C2064 C 0.53774 0.52611 0.97263 0.0
C2065 C 0.55369 0.5573 0.96086 0.0
C2066 C 0.57356 0.59745 0.96606 0.0
C2067 C 0.58256 0.60691 0.98243 0.0
C2068 C 0.56974 0.57576 0.99353 0.0
C2069 C 0.5447 0.53643 0.98927 0.0
C2070 C 0.53252 0.51001 1.00448 0.0
C2071 C 0.48749 0.49166 0.00781 0.0
C2072 C 0.54421 0.47746 1.00297 0.0
C2073 C 0.55748 0.54063 0.01751 0.0
C2074 C 0.58027 0.57768 0.01038 0.0
C2075 C 0.61349 0.60801 0.01805 0.0
C2076 C 0.62064 0.60222 0.03409 0.0
C2077 C 0.59242 0.56851 0.04313 0.0
C2078 C 0.56128 0.53588 0.03442 0.0
H2079 H 0.22868 0.43974 0.37219 0.0
H2080 H 0.23563 0.33561 0.38638 0.0
H2081 H 0.23643 0.31858 0.35741 0.0
H2082 H 0.16766 0.40589 0.33934 0.0
H2083 H 0.19568 0.4504 0.32744 0.0
H2084 H 0.19915 0.45321 0.34919 0.0
H2085 H 0.2773 0.48642 0.34516 0.0
H2086 H 0.26994 0.47981 0.32352 0.0
H2087 H 0.29665 0.45941 0.33408 0.0
H2088 H 0.22383 0.30697 0.32658 0.0
H2089 H 0.20572 0.30573 0.29749 0.0
H2090 H 0.2117 0.4199 0.30367 0.0
C2091 C 0.23228 0.41443 0.36914 0.0
C2092 C 0.2323 0.38902 0.38151 0.0
C2093 C 0.23609 0.35565 0.37711 0.0
C2094 C 0.23636 0.34571 0.36065 0.0
C2095 C 0.23442 0.37038 0.34869 0.0
C2096 C 0.23408 0.405 0.35278 0.0
C2097 C 0.23146 0.42621 0.33771 0.0
C2098 C 0.19638 0.43438 0.33853 0.0
C2099 C 0.27124 0.46527 0.33496 0.0
C2100 C 0.22504 0.39563 0.32474 0.0
C2101 C 0.22829 0.36427 0.33114 0.0
C2102 C 0.22187 0.33175 0.32146 0.0
C2103 C 0.21147 0.33115 0.30497 0.0
C2104 C 0.20661 0.36234 0.29843 0.0
C2105 C 0.21434 0.39522 0.30843 0.0
H2106 H 0.71058 0.80868 0.37276 0.0
H2107 H 0.70955 0.91791 0.38386 0.0
H2108 H 0.70889 0.931 0.3545 0.0
H2109 H 0.77596 0.84263 0.34139 0.0
H2110 H 0.75136 0.80034 0.32784 0.0
H2111 H 0.74382 0.79285 0.34918 0.0
H2112 H 0.66885 0.7602 0.34809 0.0
H2113 H 0.67174 0.76264 0.32626 0.0
H2114 H 0.64583 0.78358 0.33693 0.0
H2115 H 0.70995 0.93167 0.32225 0.0
H2116 H 0.71322 0.91929 0.29271 0.0
H2117 H 0.72373 0.81592 0.30488 0.0
C2118 C 0.70999 0.83534 0.36913 0.0
C2119 C 0.7099 0.86212 0.38082 0.0
C2120 C 0.70883 0.89641 0.37532 0.0
C2121 C 0.70875 0.90428 0.35856 0.0
C2122 C 0.70961 0.87749 0.34738 0.0
C2123 C 0.71001 0.8436 0.35258 0.0
C2124 C 0.71145 0.81952 0.33842 0.0
C2125 C 0.74799 0.81371 0.33925 0.0
C2126 C 0.67217 0.77911 0.33737 0.0
C2127 C 0.71483 0.84636 0.32452 0.0
C2128 C 0.71211 0.87893 0.32959 0.0
C2129 C 0.7123 0.90619 0.31829 0.0
C2130 C 0.71456 0.89919 0.30152 0.0
C2131 C 0.71784 0.86589 0.29629 0.0
C2132 C 0.71938 0.84043 0.30817 0.0
H2133 H 0.18669 0.84027 0.30254 0.0
H2134 H 0.25064 0.9686 0.29374 0.0
H2135 H 0.26904 0.98078 0.32232 0.0
H2136 H 0.14725 0.85797 0.34431 0.0
H2137 H 0.14659 0.81536 0.3536 0.0
H2138 H 0.13602 0.81466 0.33222 0.0
H2139 H 0.19223 0.79868 0.32587 0.0
H2140 H 0.20387 0.80054 0.34717 0.0
H2141 H 0.24242 0.83211 0.33296 0.0
H2142 H 0.30303 0.97543 0.34669 0.0
H2143 H 0.31667 0.96411 0.3743 0.0
H2144 H 0.20876 0.84755 0.37466 0.0
C2145 C 0.20261 0.87088 0.30681 0.0
C2146 C 0.21878 0.90348 0.29561 0.0
C2147 C 0.23904 0.94305 0.30183 0.0
C2148 C 0.25001 0.95045 0.31808 0.0
C2149 C 0.23745 0.91806 0.32843 0.0
C2150 C 0.21108 0.8794 0.32365 0.0
C2151 C 0.19936 0.85175 0.33855 0.0
C2152 C 0.15463 0.83386 0.3424 0.0
C2153 C 0.2101 0.8188 0.33597 0.0
C2154 C 0.22551 0.88107 0.35187 0.0
C2155 C 0.24876 0.91836 0.34507 0.0
C2156 C 0.2822 0.94805 0.35288 0.0
C2157 C 0.28937 0.94138 0.36878 0.0
C2158 C 0.26102 0.90745 0.37766 0.0
C2159 C 0.22946 0.87539 0.36875 0.0
H2160 H 0.88608 0.75434 0.70625 0.0
H2161 H 0.86485 0.63459 0.71476 0.0
H2162 H 0.87398 0.62695 0.68586 0.0
H2163 H 0.82647 0.72744 0.67223 0.0
H2164 H 0.85566 0.77257 0.66064 0.0
H2165 H 0.85806 0.77422 0.68245 0.0
H2166 H 0.93472 0.8049 0.68181 0.0
H2167 H 0.93333 0.80466 0.65992 0.0
H2168 H 0.95638 0.78044 0.67047 0.0
H2169 H 0.87842 0.62876 0.65547 0.0
H2170 H 0.87193 0.6383 0.62608 0.0
H2171 H 0.88329 0.7537 0.63648 0.0
C2172 C 0.88534 0.72738 0.70207 0.0
C2173 C 0.87713 0.696 0.71305 0.0
C2174 C 0.87339 0.65997 0.70693 0.0
C2175 C 0.87815 0.65512 0.69037 0.0
C2176 C 0.8855 0.68614 0.67979 0.0
C2177 C 0.88874 0.72152 0.68535 0.0
C2178 C 0.8907 0.74757 0.67115 0.0
C2179 C 0.85561 0.75589 0.67165 0.0
C2180 C 0.9312 0.78671 0.67082 0.0
C2181 C 0.88691 0.72082 0.6569 0.0
C2182 C 0.88499 0.68597 0.66212 0.0
C2183 C 0.88024 0.65614 0.65121 0.0
C2184 C 0.87669 0.66179 0.63453 0.0
C2185 C 0.87702 0.69661 0.62896 0.0
C2186 C 0.88285 0.72666 0.64035 0.0
H2187 H 0.33439 0.15676 0.63683 0.0
H2188 H 0.45619 0.24925 0.62644 0.0
H2189 H 0.468 0.26447 0.65587 0.0
H2190 H 0.32019 0.21437 0.67096 0.0
H2191 H 0.28849 0.16913 0.6821 0.0
H2192 H 0.28901 0.16839 0.6602 0.0
H2193 H 0.30505 0.11181 0.6614 0.0
H2194 H 0.30727 0.1128 0.68318 0.0
H2195 H 0.34974 0.11909 0.67158 0.0
H2196 H 0.46959 0.26034 0.68638 0.0
H2197 H 0.45934 0.24346 0.71535 0.0
H2198 H 0.3336 0.16052 0.70664 0.0
C2199 C 0.36325 0.18082 0.64076 0.0
C2200 C 0.39448 0.202 0.62942 0.0
C2201 C 0.43188 0.23308 0.63494 0.0
C2202 C 0.43878 0.24179 0.65163 0.0
C2203 C 0.40753 0.21998 0.66256 0.0
C2204 C 0.37014 0.19085 0.65732 0.0
C2205 C 0.34185 0.17156 0.67161 0.0
C2206 C 0.30787 0.18146 0.67119 0.0
C2207 C 0.32507 0.12611 0.67197 0.0
C2208 C 0.36991 0.19228 0.68578 0.0
C2209 C 0.40759 0.22034 0.68025 0.0
C2210 C 0.4398 0.23992 0.69087 0.0
C2211 C 0.43351 0.23053 0.70746 0.0
C2212 C 0.39502 0.2028 0.71354 0.0
C2213 C 0.36279 0.18355 0.70248 0.0
H2214 H 0.90449 0.27523 0.63724 0.0
H2215 H 0.86085 0.1508 0.62549 0.0
H2216 H 0.85218 0.13393 0.65479 0.0
H2217 H 0.95927 0.28341 0.67239 0.0
H2218 H 0.94435 0.31469 0.68287 0.0
H2219 H 0.94514 0.3146 0.66106 0.0
H2220 H 0.87035 0.29685 0.66148 0.0
H2221 H 0.87013 0.29537 0.68336 0.0
H2222 H 0.83395 0.25251 0.67202 0.0
H2223 H 0.85649 0.13297 0.68619 0.0
H2224 H 0.86848 0.14753 0.71571 0.0
H2225 H 0.90395 0.27142 0.70602 0.0
C2226 C 0.89227 0.2443 0.64084 0.0
C2227 C 0.88315 0.21427 0.6291 0.0
C2228 C 0.86751 0.17417 0.63427 0.0
C2229 C 0.86269 0.16437 0.65091 0.0
C2230 C 0.87266 0.19485 0.66224 0.0
C2231 C 0.88627 0.23388 0.65734 0.0
C2232 C 0.89473 0.26118 0.67181 0.0
C2233 C 0.93849 0.29548 0.67201 0.0
C2234 C 0.86554 0.27742 0.67219 0.0
C2235 C 0.88642 0.23212 0.68559 0.0
C2236 C 0.8733 0.19385 0.67998 0.0
C2237 C 0.86618 0.16278 0.69068 0.0
C2238 C 0.87311 0.17129 0.70744 0.0
C2239 C 0.88731 0.21061 0.71332 0.0
C2240 C 0.89317 0.24094 0.70212 0.0
H2241 H 0.3196 0.97687 0.19958 0.0
H2242 H 0.2866 0.85194 0.1997 0.0
H2243 H 0.33579 0.86552 0.17757 0.0
H2244 H 0.33347 0.99122 0.15508 0.0
H2245 H 0.37415 0.04179 0.15754 0.0
H2246 H 0.33482 0.02025 0.17248 0.0
H2247 H 0.38896 0.0376 0.19465 0.0
H2248 H 0.42798 0.05753 0.17954 0.0
H2249 H 0.4227 0.01818 0.19289 0.0
H2250 H 0.39501 0.89586 0.15688 0.0
H2251 H 0.44721 0.93588 0.13643 0.0
H2252 H 0.4374 0.03966 0.1487 0.0
C2253 C 0.32194 0.9521 0.19464 0.0
C2254 C 0.29885 0.91316 0.20128 0.0
C2255 C 0.30329 0.88177 0.19463 0.0
C2256 C 0.33161 0.88943 0.18219 0.0
C2257 C 0.35491 0.92855 0.17631 0.0
C2258 C 0.34937 0.95909 0.18205 0.0
C2259 C 0.37741 0.9984 0.17364 0.0
C2260 C 0.35352 1.0138 0.16411 0.0
C2261 C 0.40594 0.02977 0.18591 0.0
C2262 C 0.40001 0.98557 0.16229 0.0
C2263 C 0.38722 0.94534 0.16419 0.0
C2264 C 0.40483 0.92726 0.15529 0.0
C2265 C 0.43497 0.95039 0.14383 0.0
C2266 C 0.44699 0.9911 0.14112 0.0
C2267 C 0.42934 1.00878 0.15065 0.0
H2268 H 0.03561 0.42634 0.15199 0.0
H2269 H 0.1404 0.54148 0.14237 0.0
H2270 H 0.17759 0.52912 0.1638 0.0
H2271 H 0.0529 0.42985 0.19753 0.0
H2272 H 0.03433 0.37679 0.19849 0.0
H2273 H 1.01478 0.39661 0.18352 0.0
H2274 H 0.03306 0.36185 0.161 0.0
H2275 H 0.05376 0.34293 0.17581 0.0
H2276 H 0.08419 0.37271 0.15908 0.0
H2277 H 0.20698 0.49993 0.18357 0.0
H2278 H 0.22127 0.46247 0.20453 0.0
H2279 H 0.09696 0.36827 0.20302 0.0
C2280 C 0.06564 0.44976 0.15502 0.0
C2281 C 0.08466 0.48556 0.14578 0.0
C2282 C 0.12479 0.51449 0.14959 0.0
C2283 C 0.14642 0.50744 0.16161 0.0
C2284 C 0.12757 0.47129 0.17001 0.0
C2285 C 0.08764 0.44344 0.1673 0.0
C2286 C 0.07484 0.40694 0.17809 0.0
C2287 C 0.04228 0.40228 0.19012 0.0
C2288 C 0.06063 0.36886 0.16787 0.0
C2289 C 0.11393 0.4182 0.18683 0.0
C2290 C 0.14415 0.45523 0.18186 0.0
C2291 C 0.18331 0.47114 0.18774 0.0
C2292 C 0.19138 0.44944 0.19948 0.0
C2293 C 0.16039 0.41246 0.20543 0.0
C2294 C 0.12134 0.39655 0.19877 0.0
H2295 H 0.65477 0.71871 0.20824 0.0
H2296 H 0.64314 0.81814 0.19034 0.0
H2297 H 0.61213 0.77943 0.16502 0.0
H2298 H 0.68495 0.69697 0.17045 0.0
H2299 H 0.66016 0.64402 0.17449 0.0
H2300 H 0.67855 0.67908 0.19106 0.0
H2301 H 0.60763 0.64348 0.20382 0.0
H2302 H 0.58866 0.60882 0.18708 0.0
H2303 H 0.56566 0.63818 0.19215 0.0
H2304 H 0.58027 0.72657 0.14169 0.0
H2305 H 0.56325 0.67318 0.12134 0.0
H2306 H 0.60309 0.61301 0.15431 0.0
C2307 C 0.64621 0.73302 0.19907 0.0
C2308 C 0.65166 0.7719 0.20143 0.0
C2309 C 0.63957 0.78866 0.18889 0.0
C2310 C 0.62162 0.76663 0.17453 0.0
C2311 C 0.6165 0.72814 0.17282 0.0
C2312 C 0.6294 0.71209 0.18471 0.0
C2313 C 0.62367 0.67167 0.1798 0.0
C2314 C 0.66424 0.67304 0.17889 0.0
C2315 C 0.59468 0.6386 0.19141 0.0
C2316 C 0.60524 0.66688 0.16315 0.0
C2317 C 0.60049 0.6993 0.15942 0.0
C2318 C 0.58413 0.70136 0.14459 0.0
C2319 C 0.57426 0.67071 0.13312 0.0
C2320 C 0.58131 0.63867 0.13634 0.0
C2321 C 0.59622 0.63642 0.1517 0.0
H2322 H 0.96998 0.43783 0.86239 0.0
H2323 H 0.08636 0.44946 0.87018 0.0
H2324 H 0.07043 0.39635 0.84979 0.0
H2325 H 0.91427 0.33576 0.85773 0.0
H2326 H 0.88265 0.33491 0.84143 0.0
H2327 H 0.90414 0.37631 0.85541 0.0
H2328 H 0.93733 0.42667 0.83177 0.0
H2329 H 0.91437 0.38556 0.81766 0.0
H2330 H 0.96781 0.41884 0.81727 0.0
H2331 H 0.03673 0.33413 0.83113 0.0
H2332 H 0.99672 0.28224 0.81063 0.0
H2333 H 0.905 0.31549 0.8131 0.0
C2334 C 0.99289 0.43059 0.8592 0.0
C2335 C 0.02985 0.44855 0.86769 0.0
C2336 C 0.05838 0.43709 0.86357 0.0
C2337 C 0.04922 0.40633 0.85218 0.0
C2338 C 1.01164 0.38779 0.84466 0.0
C2339 C 0.98463 0.40077 0.84751 0.0
C2340 C 0.94661 0.37654 0.83763 0.0
C2341 C 0.90975 0.35459 0.84872 0.0
C2342 C 0.94122 0.40351 0.82535 0.0
C2343 C 0.95585 0.34716 0.8291 0.0
C2344 C 0.9932 0.35356 0.83354 0.0
C2345 C 1.0076 0.32922 0.82754 0.0
C2346 C 0.9843 0.29918 0.81612 0.0
C2347 C 0.9472 0.29396 0.81056 0.0
C2348 C 0.93269 0.31797 0.81742 0.0
H2349 H 0.65067 0.54951 0.86109 0.0
H2350 H 0.62123 0.64352 0.86545 0.0
H2351 H 0.67387 0.68417 0.84535 0.0
H2352 H 0.75367 0.60868 0.85746 0.0
H2353 H 0.76068 0.57925 0.84221 0.0
H2354 H 0.71866 0.5558 0.85588 0.0
H2355 H 0.66901 0.52915 0.83171 0.0
H2356 H 0.71101 0.55103 0.81798 0.0
H2357 H 0.67191 0.56348 0.8162 0.0
H2358 H 0.73663 0.71822 0.82714 0.0
H2359 H 0.79102 0.73528 0.80715 0.0
H2360 H 0.77595 0.61709 0.81283 0.0
C2361 C 0.65398 0.5778 0.85718 0.0
C2362 C 0.63086 0.5928 0.86451 0.0
C2363 C 0.63744 0.63078 0.8596 0.0
C2364 C 0.6679 0.65442 0.8484 0.0
C2365 C 0.69133 0.63947 0.84192 0.0
C2366 C 0.6836 0.60133 0.84566 0.0
C2367 C 0.71254 0.59195 0.83678 0.0
C2368 C 0.73787 0.58341 0.84881 0.0
C2369 C 0.68976 0.55683 0.82496 0.0
C2370 C 0.73824 0.63093 0.82771 0.0
C2371 C 0.72612 0.65834 0.83109 0.0
C2372 C 0.7461 0.69679 0.82438 0.0
C2373 C 0.77761 0.70661 0.81327 0.0
C2374 C 0.7886 0.67801 0.80876 0.0
C2375 C 0.76903 0.63999 0.81638 0.0
H2376 H 0.374 0.09491 0.81714 0.0
H2377 H 0.48274 0.20468 0.80527 0.0
H2378 H 0.5195 0.18963 0.82624 0.0
H2379 H 0.39415 0.10071 0.86186 0.0
H2380 H 0.37141 0.04717 0.86359 0.0
H2381 H 0.35389 0.06846 0.84842 0.0
H2382 H 0.36692 0.02877 0.82599 0.0
H2383 H 0.38433 1.00777 0.84131 0.0
H2384 H 0.41605 0.03422 0.82435 0.0
H2385 H 0.54619 0.15722 0.84646 0.0
H2386 H 0.55695 0.11838 0.86798 0.0
H2387 H 0.42969 0.03281 0.86816 0.0
C2388 C 0.40512 0.1166 0.8195 0.0
C2389 C 0.42524 0.15168 0.80994 0.0
C2390 C 0.46642 0.17844 0.81286 0.0
C2391 C 0.48768 0.16974 0.82457 0.0
C2392 C 0.46727 0.13427 0.83348 0.0
C2393 C 0.42654 0.10879 0.83143 0.0
C2394 C 0.41147 0.07289 0.84268 0.0
C2395 C 0.38093 0.07228 0.85486 0.0
C2396 C 0.39362 0.0336 0.83299 0.0
C2397 C 0.4501 0.08159 0.8511 0.0
C2398 C 0.48216 0.11679 0.84547 0.0
C2399 C 0.5211 0.12991 0.85107 0.0
C2400 C 0.5271 0.1074 0.86315 0.0
C2401 C 0.49429 0.07248 0.86971 0.0
C2402 C 0.45546 0.05933 0.86336 0.0
H2403 H 0.03234 0.26863 0.54268 0.0
H2404 H 0.92405 0.25527 0.52069 0.0
H2405 H 0.95988 0.27985 0.4947 0.0
H2406 H 0.10165 0.35859 0.52253 0.0
H2407 H 0.13991 0.34537 0.51952 0.0
H2408 H 0.10577 0.32468 0.5364 0.0
H2409 H 0.08503 0.2531 0.52687 0.0
H2410 H 0.1194 0.27355 0.51005 0.0
H2411 H 0.06728 0.23808 0.50639 0.0
H2412 H 1.00818 0.31259 0.47237 0.0
H2413 H 0.06288 0.34324 0.45312 0.0
H2414 H 0.14234 0.33186 0.48749 0.0
C2415 C 1.01599 0.27033 0.53231 0.0
C2416 C 0.97486 0.25943 0.53377 0.0
C2417 C 0.95488 0.26235 0.51991 0.0
C2418 C 0.97527 0.27677 0.5051 0.0
C2419 C 1.01573 0.2878 0.50418 0.0
C2420 C 0.03586 0.28414 0.51729 0.0
C2421 C 0.07952 0.29826 0.51282 0.0
C2422 C 0.10842 0.33384 0.52345 0.0
C2423 C 0.08832 0.26368 0.51411 0.0
C2424 C 0.0809 0.31109 0.49518 0.0
C2425 C 0.04363 0.305 0.49071 0.0
C2426 C 0.03714 0.31651 0.47561 0.0
C2427 C 0.06898 0.33399 0.46463 0.0
C2428 C 0.10751 0.33939 0.46831 0.0
C2429 C 0.11346 0.3278 0.48401 0.0
H2430 H 0.80675 0.84396 0.47716 0.0
H2431 H 0.67812 0.76524 0.48 0.0
H2432 H 0.68828 0.7247 0.50083 0.0
H2433 H 0.83612 0.77162 0.48125 0.0
H2434 H 0.879 0.80129 0.49398 0.0
H2435 H 0.86197 0.82543 0.47994 0.0
H2436 H 0.85484 0.86628 0.50336 0.0
H2437 H 0.87306 0.8432 0.51737 0.0
H2438 H 0.82564 0.84048 0.52101 0.0
H2439 H 0.71327 0.68956 0.51965 0.0
H2440 H 0.74894 0.67052 0.53932 0.0
H2441 H 0.86167 0.77392 0.52561 0.0
C2442 C 0.78058 0.81864 0.48241 0.0
C2443 C 0.74148 0.80776 0.47686 0.0
C2444 C 0.70821 0.77449 0.4841 0.0
C2445 C 0.71382 0.75098 0.4958 0.0
C2446 C 0.75288 0.76154 0.50039 0.0
C2447 C 0.78563 0.79536 0.49429 0.0
C2448 C 0.82442 0.80094 0.50162 0.0
C2449 C 0.852 0.79975 0.48841 0.0
C2450 C 0.84574 0.84004 0.51143 0.0
C2451 C 0.80858 0.76457 0.51266 0.0
C2452 C 0.76722 0.74199 0.51155 0.0
C2453 C 0.74557 0.70711 0.52057 0.0
C2454 C 0.76625 0.69614 0.53156 0.0
C2455 C 0.80831 0.71992 0.53373 0.0
C2456 C 0.82984 0.7542 0.52382 0.0
H2457 H 0.32737 0.98376 0.48066 0.0
H2458 H 0.20719 0.96177 0.47222 0.0
H2459 H 0.21709 1.01128 0.4936 0.0
H2460 H 0.32648 0.99658 0.52529 0.0
H2461 H 0.37881 0.03419 0.52555 0.0
H2462 H 0.36018 0.99524 0.51045 0.0
H2463 H 0.38942 0.04932 0.48792 0.0
H2464 H 0.40707 0.08842 0.50293 0.0
H2465 H 0.37428 0.08653 0.48692 0.0
H2466 H 0.24452 0.07022 0.51451 0.0
H2467 H 0.28097 0.12114 0.53597 0.0
H2468 H 0.38123 0.10079 0.53127 0.0
C2469 C 0.30262 0.98836 0.48371 0.0
C2470 C 0.2662 0.9683 0.47494 0.0
C2471 C 0.23492 0.97591 0.47902 0.0
C2472 C 0.24059 1.00451 0.49101 0.0
C2473 C 0.27754 0.02491 0.49901 0.0
C2474 C 0.30754 0.01614 0.4958 0.0
C2475 C 0.34441 0.04165 0.50605 0.0
C2476 C 0.35296 0.01535 0.51752 0.0
C2477 C 0.38094 0.06803 0.49531 0.0
C2478 C 0.33094 0.06671 0.5154 0.0
C2479 C 0.29251 0.05721 0.51109 0.0
C2480 C 0.27447 0.07747 0.51801 0.0
C2481 C 0.29557 0.10681 0.53003 0.0
C2482 C 0.33409 0.11529 0.53517 0.0
C2483 C 0.35197 0.09526 0.5275 0.0
H2484 H 0.50534 0.29797 0.12349 0.0
H2485 H 0.53204 0.33364 0.07307 0.0
H2486 H 0.53297 0.27095 0.06717 0.0
H2487 H 0.56641 0.25064 0.12703 0.0
H2488 H 0.53083 0.21184 0.14022 0.0
H2489 H 0.5348 0.26034 0.14016 0.0
H2490 H 0.45914 0.2264 0.13434 0.0
H2491 H 0.45435 0.17758 0.13333 0.0
H2492 H 0.43893 0.19631 0.11638 0.0
H2493 H 0.52774 0.20099 0.06692 0.0
H2494 H 0.52287 0.13558 0.07285 0.0
H2495 H 0.49862 0.14664 0.12332 0.0
C2496 C 0.51181 0.29289 0.1112 0.0
C2497 C 0.5186 0.32094 0.09873 0.0
C2498 C 0.52718 0.313 0.08287 0.0
C2499 C 0.52737 0.2772 0.07939 0.0
C2500 C 0.51922 0.24964 0.09192 0.0
C2501 C 0.51219 0.25756 0.10757 0.0
C2502 C 0.50395 0.22338 0.11895 0.0
C2503 C 0.53591 0.23739 0.13238 0.0
C2504 C 0.46157 0.2048 0.12618 0.0
C2505 C 0.50733 0.19472 0.10735 0.0
C2506 C 0.51598 0.21014 0.09177 0.0
C2507 C 0.52091 0.18884 0.07909 0.0
C2508 C 0.51771 0.15149 0.08252 0.0
C2509 C 0.50934 0.13554 0.09846 0.0
C2510 C 0.50417 0.15766 0.11096 0.0
H2511 H 0.77345 0.24334 0.0831 0.0
H2512 H 0.78558 0.21387 0.13277 0.0
H2513 H 0.85139 0.27557 0.13477 0.0
H2514 H 0.87476 0.28296 0.07185 0.0
H2515 H 0.87928 0.32383 0.05968 0.0
H2516 H 0.83126 0.27904 0.06194 0.0
H2517 H 0.79962 0.31965 0.07285 0.0
H2518 H 0.84691 0.36503 0.07014 0.0
H2519 H 0.82272 0.35327 0.08971 0.0
H2520 H 0.91894 0.33825 0.13085 0.0
H2521 H 0.97818 0.40216 0.12248 0.0
H2522 H 0.92292 0.39333 0.07569 0.0
C2523 C 0.78941 0.2506 0.09454 0.0
C2524 C 0.77388 0.22379 0.10788 0.0
C2525 C 0.79648 0.23402 0.12248 0.0
C2526 C 0.83415 0.26892 0.12368 0.0
C2527 C 0.84931 0.29394 0.11021 0.0
C2528 C 0.82734 0.28578 0.09601 0.0
C2529 C 0.85095 0.31792 0.08336 0.0
C2530 C 0.85956 0.29985 0.06831 0.0
C2531 C 0.82873 0.3403 0.07874 0.0
C2532 C 0.88941 0.34503 0.09262 0.0
C2533 C 0.88804 0.33038 0.10804 0.0
C2534 C 0.92019 0.35004 0.11881 0.0
C2535 C 0.95398 0.38618 0.11391 0.0
C2536 C 0.95562 0.40249 0.09834 0.0
C2537 C 0.92285 0.38128 0.08758 0.0
H2538 H 0.67932 0.5676 0.07989 0.0
H2539 H 0.69359 0.60979 0.12945 0.0
H2540 H 0.75529 0.60585 0.13208 0.0
H2541 H 0.70279 0.49438 0.08819 0.0
H2542 H 0.72901 0.49814 0.06956 0.0
H2543 H 0.69151 0.51287 0.07001 0.0
H2544 H 0.74288 0.58309 0.0592 0.0
H2545 H 0.78061 0.56851 0.05851 0.0
H2546 H 0.78973 0.61237 0.06973 0.0
H2547 H 0.81041 0.58909 0.13075 0.0
H2548 H 0.85252 0.55858 0.12592 0.0
H2549 H 0.80189 0.52364 0.07758 0.0
C2550 C 0.69675 0.57805 0.09095 0.0
C2551 C 0.68277 0.59112 0.10421 0.0
C2552 C 0.70468 0.60142 0.11894 0.0
C2553 C 0.73971 0.59905 0.12057 0.0
C2554 C 0.75226 0.58515 0.10748 0.0
C2555 C 0.73149 0.57478 0.09292 0.0
C2556 C 0.74833 0.55559 0.08159 0.0
C2557 C 0.71598 0.51271 0.07708 0.0
C2558 C 0.76647 0.58143 0.06635 0.0
C2559 C 0.78077 0.55569 0.09222 0.0
C2560 C 0.78303 0.57361 0.10698 0.0
C2561 C 0.80929 0.57552 0.11912 0.0
C2562 C 0.83338 0.55822 0.11622 0.0
C2563 C 0.83099 0.53859 0.10136 0.0
C2564 C 0.80461 0.53815 0.08914 0.0
H2565 H 0.29431 0.48041 0.93563 0.0
H2566 H 0.32295 0.51327 0.88506 0.0
H2567 H 0.25935 0.51394 0.8818 0.0
H2568 H 0.18978 0.41628 0.93113 0.0
H2569 H 0.17536 0.43195 0.9493 0.0
H2570 H 0.22355 0.43509 0.94818 0.0
H2571 H 0.25965 0.51066 0.95485 0.0
H2572 H 0.21162 0.50762 0.95663 0.0
H2573 H 0.24884 0.54333 0.94295 0.0
H2574 H 0.19015 0.50555 0.88355 0.0
H2575 H 0.12693 0.50267 0.89131 0.0
H2576 H 0.14448 0.47985 0.94127 0.0
C2577 C 0.28753 0.48869 0.92399 0.0
C2578 C 0.31372 0.49727 0.9106 0.0
C2579 C 0.30368 0.50738 0.8955 0.0
C2580 C 0.26738 0.50729 0.89351 0.0
C2581 C 0.24165 0.49752 0.90681 0.0
C2582 C 0.25176 0.48952 0.92188 0.0
C2583 C 0.21932 0.4813 0.93432 0.0
C2584 C 0.20092 0.43861 0.94113 0.0
C2585 C 0.23585 0.5126 0.94799 0.0
C2586 C 0.18932 0.48577 0.92388 0.0
C2587 C 0.20245 0.49424 0.90797 0.0
C2588 C 0.17972 0.49908 0.89597 0.0
C2589 C 0.14351 0.49683 0.90045 0.0
C2590 C 0.13034 0.4901 0.9168 0.0
C2591 C 0.15346 0.4842 0.92863 0.0
H2592 H 0.57221 0.81124 0.8795 0.0
H2593 H 0.54546 0.82221 0.92976 0.0
H2594 H 0.56303 0.77084 0.93751 0.0
H2595 H 0.52662 0.70794 0.87923 0.0
H2596 H 0.56243 0.70577 0.8658 0.0
H2597 H 0.55424 0.74765 0.86486 0.0
H2598 H 0.63016 0.79605 0.86953 0.0
H2599 H 0.63841 0.75406 0.87057 0.0
H2600 H 0.65428 0.78942 0.88706 0.0
H2601 H 0.57616 0.7112 0.93909 0.0
H2602 H 0.58026 0.65 0.93395 0.0
H2603 H 0.596 0.6776 0.88271 0.0
C2604 C 0.57034 0.80329 0.8922 0.0
C2605 C 0.55721 0.82105 0.90398 0.0
C2606 C 0.55586 0.80972 0.92047 0.0
C2607 C 0.56568 0.78032 0.92498 0.0
C2608 C 0.57722 0.76256 0.91293 0.0
C2609 C 0.57975 0.77394 0.89686 0.0
C2610 C 0.58942 0.74825 0.88593 0.0
C2611 C 0.5562 0.72609 0.87322 0.0
C2612 C 0.63051 0.77347 0.87779 0.0
C2613 C 0.5905 0.71956 0.8982 0.0
C2614 C 0.58429 0.72863 0.91379 0.0
C2615 C 0.58177 0.70449 0.92694 0.0
C2616 C 0.58452 0.66988 0.92398 0.0
C2617 C 0.58966 0.65956 0.90802 0.0
C2618 C 0.59324 0.68526 0.8951 0.0
H2619 H 0.39781 0.92772 0.88226 0.0
H2620 H 0.41573 0.93654 0.93431 0.0
H2621 H 0.35229 0.87182 0.93778 0.0
H2622 H 0.28772 0.88233 0.88367 0.0
H2623 H 0.2809 0.85201 0.86599 0.0
H2624 H 0.3259 0.89981 0.8682 0.0
H2625 H 0.36837 0.86536 0.86477 0.0
H2626 H 0.32362 0.8173 0.8629 0.0
H2627 H 0.3602 0.82516 0.87825 0.0
H2628 H 0.28874 0.80077 0.93472 0.0
H2629 H 0.22803 0.738 0.92601 0.0
H2630 H 0.25185 0.77843 0.87608 0.0
C2631 C 0.38785 0.91648 0.89443 0.0
C2632 C 0.41149 0.9374 0.90803 0.0
C2633 C 0.39778 0.92142 0.92374 0.0
C2634 C 0.36193 0.88444 0.92578 0.0
C2635 C 0.33992 0.8639 0.912 0.0
C2636 C 0.35208 0.88006 0.89666 0.0
C2637 C 0.32356 0.85258 0.88373 0.0
C2638 C 0.30331 0.87288 0.87488 0.0
C2639 C 0.34524 0.83933 0.87171 0.0
C2640 C 0.29376 0.8178 0.89404 0.0
C2641 C 0.30363 0.82452 0.91033 0.0
C2642 C 0.28072 0.79564 0.922 0.0
C2643 C 0.24647 0.7598 0.91694 0.0
C2644 C 0.23508 0.75311 0.90037 0.0
C2645 C 0.2596 0.78256 0.88885 0.0
H2646 H 0.17259 0.63094 0.45189 0.0
H2647 H 0.20272 0.66848 0.40184 0.0
H2648 H 0.20418 0.60599 0.39587 0.0
H2649 H 0.23473 0.58594 0.45612 0.0
H2650 H 0.19909 0.5465 0.46906 0.0
H2651 H 0.20155 0.59429 0.46886 0.0
H2652 H 0.12574 0.55877 0.46196 0.0
H2653 H 0.12335 0.51097 0.46177 0.0
H2654 H 0.10745 0.52729 0.44422 0.0
H2655 H 0.19887 0.53532 0.39563 0.0
H2656 H 0.19687 0.4713 0.4021 0.0
H2657 H 0.17106 0.48298 0.4523 0.0
C2658 C 0.17991 0.62626 0.43968 0.0
C2659 C 0.18758 0.65467 0.42733 0.0
C2660 C 0.19717 0.64739 0.41154 0.0
C2661 C 0.1976 0.61172 0.40802 0.0
C2662 C 0.18861 0.5837 0.42044 0.0
C2663 C 0.18062 0.59116 0.43603 0.0
C2664 C 0.17263 0.55723 0.44744 0.0
C2665 C 0.20387 0.57186 0.46117 0.0
C2666 C 0.12974 0.53741 0.45424 0.0
C2667 C 0.17756 0.52938 0.43597 0.0
C2668 C 0.1862 0.54454 0.42036 0.0
C2669 C 0.1921 0.52341 0.40784 0.0
C2670 C 0.19049 0.48684 0.41155 0.0
C2671 C 0.18319 0.47195 0.42765 0.0
C2672 C 0.17614 0.4934 0.43984 0.0
H2673 H 0.61157 0.73923 0.40137 0.0
H2674 H 0.63583 0.75032 0.45297 0.0
H2675 H 0.57131 0.68846 0.45788 0.0
H2676 H 0.51067 0.70953 0.40431 0.0
H2677 H 0.49411 0.67473 0.38762 0.0
H2678 H 0.54465 0.71617 0.388 0.0
H2679 H 0.57185 0.66715 0.38536 0.0
H2680 H 0.52126 0.62553 0.38493 0.0
H2681 H 0.55632 0.62692 0.39977 0.0
H2682 H 0.49988 0.62883 0.4574 0.0
H2683 H 0.42958 0.57787 0.4516 0.0
H2684 H 0.45121 0.60504 0.40019 0.0
C2685 C 0.60395 0.72761 0.41362 0.0
C2686 C 0.62982 0.74867 0.42671 0.0
C2687 C 0.61763 0.73378 0.44267 0.0
C2688 C 0.58069 0.69878 0.44559 0.0
C2689 C 0.55567 0.67893 0.43244 0.0
C2690 C 0.567 0.69269 0.41673 0.0
C2691 C 0.53344 0.66765 0.40485 0.0
C2692 C 0.51994 0.69358 0.39566 0.0
C2693 C 0.54649 0.64549 0.39303 0.0
C2694 C 0.50096 0.63859 0.41635 0.0
C2695 C 0.5145 0.64523 0.43219 0.0
C2696 C 0.48925 0.62311 0.44498 0.0
C2697 C 0.4492 0.59391 0.44155 0.0
C2698 C 0.43419 0.58694 0.42542 0.0
C2699 C 0.46109 0.60949 0.4127 0.0
H2700 H 0.47393 0.85454 0.41333 0.0
H2701 H 0.52686 0.89608 0.46093 0.0
H2702 H 0.48509 0.92731 0.46483 0.0
H2703 H 0.46217 0.94287 0.40324 0.0
H2704 H 0.415 0.91226 0.39312 0.0
H2705 H 0.45271 0.89761 0.39306 0.0
H2706 H 0.40171 0.82887 0.40538 0.0
H2707 H 0.36398 0.84328 0.40536 0.0
H2708 H 0.37623 0.82725 0.42398 0.0
H2709 H 0.42953 0.94293 0.46572 0.0
H2710 H 0.36692 0.94504 0.46292 0.0
H2711 H 0.35209 0.89916 0.41396 0.0
C2712 C 0.47725 0.87077 0.42448 0.0
C2713 C 0.50405 0.87287 0.43681 0.0
C2714 C 0.50725 0.89447 0.45118 0.0
C2715 C 0.48346 0.91225 0.45353 0.0
C2716 C 0.45688 0.90891 0.4413 0.0
C2717 C 0.45397 0.88914 0.42694 0.0
C2718 C 0.42111 0.88771 0.41619 0.0
C2719 C 0.43882 0.91153 0.40047 0.0
C2720 C 0.38886 0.8442 0.41252 0.0
C2721 C 0.40483 0.90825 0.42702 0.0
C2722 C 0.42616 0.9204 0.44142 0.0
C2723 C 0.41369 0.93509 0.45426 0.0
C2724 C 0.37821 0.93651 0.45252 0.0
C2725 C 0.35608 0.92489 0.43785 0.0
C2726 C 0.36995 0.91101 0.42485 0.0
H2727 H 0.81129 0.82565 0.22004 0.0
H2728 H 0.78866 0.82196 0.27168 0.0
H2729 H 0.85096 0.81946 0.27709 0.0
H2730 H 0.85283 0.75785 0.22098 0.0
H2731 H 0.88769 0.78497 0.20489 0.0
H2732 H 0.84009 0.78315 0.20575 0.0
H2733 H 0.87711 0.86065 0.20538 0.0
H2734 H 0.92484 0.86285 0.20495 0.0
H2735 H 0.914 0.88831 0.22077 0.0
H2736 H 0.92192 0.82486 0.27619 0.0
H2737 H 0.98587 0.82714 0.26916 0.0
H2738 H 0.95865 0.82593 0.21807 0.0
C2739 C 0.81893 0.8234 0.23251 0.0
C2740 C 0.79497 0.82368 0.24543 0.0
C2741 C 0.80621 0.82114 0.26157 0.0
C2742 C 0.84178 0.82008 0.26472 0.0
C2743 C 0.86552 0.82123 0.2516 0.0
C2744 C 0.85375 0.82186 0.2358 0.0
C2745 C 0.88387 0.82313 0.22368 0.0
C2746 C 0.86501 0.78501 0.21321 0.0
C2747 C 0.90095 0.86099 0.21308 0.0
C2748 C 0.91538 0.82441 0.23501 0.0
C2749 C 0.90464 0.82337 0.2511 0.0
C2750 C 0.93016 0.82525 0.2636 0.0
C2751 C 0.9667 0.82701 0.25952 0.0
C2752 C 0.97736 0.82666 0.24307 0.0
C2753 C 0.95137 0.82599 0.23077 0.0
H2754 H 0.23168 0.99216 0.26516 0.0
H2755 H 0.27854 1.01353 0.21621 0.0
H2756 H 0.28115 0.07877 0.21593 0.0
H2757 H 0.16638 0.02675 0.25886 0.0
H2758 H 0.1717 0.05004 0.27838 0.0
H2759 H 0.18147 1.0093 0.27632 0.0
H2760 H 0.25263 0.05294 0.2881 0.0
H2761 H 0.24297 0.0938 0.29052 0.0
H2762 H 0.28595 0.10089 0.27909 0.0
H2763 H 0.26871 0.13715 0.2193 0.0
H2764 H 0.24454 0.18359 0.22625 0.0
H2765 H 0.20554 0.12577 0.27327 0.0
C2766 C 0.24469 1.0117 0.25478 0.0
C2767 C 0.25687 0.99844 0.24097 0.0
C2768 C 0.27075 0.02368 0.22716 0.0
C2769 C 0.27196 0.06075 0.22685 0.0
C2770 C 0.25847 0.07241 0.24038 0.0
C2771 C 0.24551 0.04883 0.2542 0.0
C2772 C 0.22863 0.06631 0.2664 0.0
C2773 C 0.18443 0.03631 0.27021 0.0
C2774 C 0.25406 0.07926 0.28195 0.0
C2775 C 0.23287 0.10246 0.25709 0.0
C2776 C 0.25057 0.10568 0.24219 0.0
C2777 C 0.25548 0.13524 0.23109 0.0
C2778 C 0.24174 0.16186 0.23522 0.0
C2779 C 0.22287 0.15913 0.25036 0.0
C2780 C 0.21924 0.12906 0.26148 0.0
H2781 H 0.92093 0.11607 0.21633 0.0
H2782 H 0.89188 0.08425 0.26698 0.0
H2783 H 0.95412 0.14631 0.275 0.0
H2784 H 0.02728 0.15822 0.21971 0.0
H2785 H 0.0381 0.19685 0.20498 0.0
H2786 H 0.99192 0.14988 0.20375 0.0
H2787 H 0.95236 0.18788 0.20437 0.0
H2788 H 0.99835 0.23502 0.206 0.0
H2789 H 0.95963 0.22113 0.22104 0.0
H2790 H 1.02113 0.2154 0.27708 0.0
H2791 H 0.08629 0.27803 0.27271 0.0
H2792 H 0.06857 0.26251 0.22075 0.0
C2793 C 0.92747 0.122 0.22915 0.0
C2794 C 0.90111 0.09513 0.24102 0.0
C2795 C 0.91155 0.10403 0.25763 0.0
C2796 C 0.94673 0.1395 0.26229 0.0
C2797 C 0.97142 0.16584 0.25022 0.0
C2798 C 0.9622 0.15703 0.23397 0.0
C2799 C 0.99337 0.18942 0.22318 0.0
C2800 C 1.01388 0.17258 0.21227 0.0
C2801 C 0.97481 0.20954 0.21305 0.0
C2802 C 1.02198 0.21787 0.23579 0.0
C2803 C 1.00892 0.20431 0.25137 0.0
C2804 C 0.03132 0.22609 0.26489 0.0
C2805 C 0.06814 0.26186 0.26234 0.0
C2806 C 0.0821 0.27553 0.2464 0.0
C2807 C 0.05839 0.25314 0.23308 0.0
H2808 H 0.81657 0.79629 0.78553 0.0
H2809 H 0.8598 0.79505 0.73721 0.0
H2810 H 0.86889 0.86245 0.73206 0.0
H2811 H 0.76811 0.85807 0.77654 0.0
H2812 H 0.78489 0.88398 0.79566 0.0
H2813 H 0.77352 0.83279 0.79391 0.0
H2814 H 0.84446 0.85334 0.80457 0.0
H2815 H 0.85643 0.90457 0.80613 0.0
H2816 H 0.88773 0.89196 0.79417 0.0
H2817 H 0.88163 0.93464 0.73382 0.0
H2818 H 0.89924 1.00309 0.74252 0.0
H2819 H 0.85186 0.95777 0.79041 0.0
C2820 C 0.82612 0.8095 0.77359 0.0
C2821 C 0.83562 0.78964 0.76149 0.0
C2822 C 0.85041 0.80883 0.74635 0.0
C2823 C 0.85605 0.84735 0.74342 0.0
C2824 C 0.84733 0.86661 0.75582 0.0
C2825 C 0.8325 0.84805 0.77061 0.0
C2826 C 0.83034 0.87651 0.78273 0.0
C2827 C 0.78662 0.86198 0.78749 0.0
C2828 C 0.85629 0.88191 0.79778 0.0
C2829 C 0.84761 0.91456 0.77273 0.0
C2830 C 0.85642 0.90818 0.75711 0.0
C2831 C 0.87433 0.93965 0.74596 0.0
C2832 C 0.88412 0.97848 0.75098 0.0
C2833 C 0.8768 0.98587 0.76712 0.0
C2834 C 0.85764 0.95312 0.77796 0.0
H2835 H 0.26778 0.08561 0.75022 0.0
H2836 H 0.31255 0.04036 0.78795 0.0
H2837 H 0.24724 0.97718 0.78864 0.0
H2838 H 0.17627 0.05344 0.76791 0.0
H2839 H 0.14748 0.04109 0.74942 0.0
H2840 H 0.19978 0.0784 0.7492 0.0
H2841 H 0.21323 0.03944 0.72683 0.0
H2842 H 0.16074 1.00215 0.72672 0.0
H2843 H 0.19792 0.98755 0.72999 0.0
H2844 H 0.1736 0.92222 0.78758 0.0
H2845 H 0.09976 0.88211 0.78542 0.0
H2846 H 0.10182 0.96522 0.74946 0.0
C2847 C 0.26435 0.06162 0.75808 0.0
C2848 C 0.29588 0.06713 0.76852 0.0
C2849 C 0.2894 0.03605 0.77937 0.0
C2850 C 0.25224 1.00017 0.77991 0.0
C2851 C 0.2213 0.99609 0.76978 0.0
C2852 C 0.2271 0.02605 0.75902 0.0
C2853 C 0.18794 0.01666 0.7509 0.0
C2854 C 0.17725 0.04933 0.75458 0.0
C2855 C 0.19008 1.01111 0.73252 0.0
C2856 C 0.15887 0.97736 0.7591 0.0
C2857 C 0.17877 0.96558 0.76972 0.0
C2858 C 0.15791 0.93102 0.77913 0.0
C2859 C 0.11582 0.90825 0.77778 0.0
C2860 C 0.09454 0.9202 0.76727 0.0
C2861 C 0.11684 0.95512 0.75769 0.0
H2862 H 0.17398 0.23786 0.79296 0.0
H2863 H 0.1716 0.19058 0.74499 0.0
H2864 H 0.11903 0.20615 0.73672 0.0
H2865 H 0.07225 0.19829 0.79739 0.0
H2866 H 0.07488 0.2405 0.80789 0.0
H2867 H 0.11605 0.23116 0.80912 0.0
H2868 H 0.16423 0.30282 0.79849 0.0
H2869 H 0.12298 0.31226 0.79716 0.0
H2870 H 0.15339 0.31883 0.77954 0.0
H2871 H 0.05862 0.21712 0.73527 0.0
H2872 H 0.99944 0.22469 0.74054 0.0
H2873 H 0.0432 0.26746 0.78898 0.0
C2874 C 0.16306 0.23157 0.78058 0.0
C2875 C 0.17716 0.21302 0.76961 0.0
C2876 C 0.16184 0.20525 0.75356 0.0
C2877 C 0.13178 0.21388 0.74878 0.0
C2878 C 0.1177 0.23102 0.76008 0.0
C2879 C 0.13341 0.24036 0.7756 0.0
C2880 C 0.11155 0.25622 0.78582 0.0
C2881 C 0.09256 0.22997 0.80094 0.0
C2882 C 0.13973 0.30014 0.79053 0.0
C2883 C 0.07986 0.25265 0.77394 0.0
C2884 C 0.08409 0.23853 0.75906 0.0
C2885 C 0.05592 0.22937 0.7467 0.0
C2886 C 1.02253 0.23416 0.74972 0.0
C2887 C 1.01771 0.24854 0.76489 0.0
C2888 C 0.04704 0.2581 0.77704 0.0
H2889 H 0.4903 0.1757 0.5502 0.0
H2890 H 0.46578 0.16431 0.6018 0.0
H2891 H 0.53083 0.16713 0.60684 0.0
H2892 H 0.54475 0.11894 0.54878 0.0
H2893 H 0.57923 0.15211 0.53367 0.0
H2894 H 0.52865 0.14316 0.53437 0.0
H2895 H 0.55587 0.21939 0.53662 0.0
H2896 H 0.60644 0.22867 0.53606 0.0
H2897 H 0.59018 0.24726 0.55276 0.0
H2898 H 0.60428 0.17957 0.6059 0.0
H2899 H 0.67475 0.19963 0.59926 0.0
H2900 H 0.64941 0.20299 0.5482 0.0
C2901 C 0.49809 0.17266 0.56255 0.0
C2902 C 0.47253 0.16902 0.57558 0.0
C2903 C 0.48434 0.16616 0.59159 0.0
C2904 C 0.52143 0.16799 0.59454 0.0
C2905 C 0.54648 0.17272 0.58135 0.0
C2906 C 0.53482 0.17459 0.56565 0.0
C2907 C 0.56772 0.18265 0.55357 0.0
C2908 C 0.55429 0.14709 0.54191 0.0
C2909 C 0.58081 0.22181 0.54421 0.0
C2910 C 0.60051 0.18642 0.56485 0.0
C2911 C 0.58781 0.18012 0.58084 0.0
C2912 C 0.61409 0.18403 0.59337 0.0
C2913 C 0.65416 0.19527 0.58948 0.0
C2914 C 0.66803 0.20306 0.5732 0.0
C2915 C 0.64017 0.19758 0.5608 0.0
H2916 H 0.91091 0.33053 0.59797 0.0
H2917 H 0.94324 0.34646 0.54705 0.0
H2918 H 0.94166 0.40951 0.54668 0.0
H2919 H 0.84069 0.36061 0.59528 0.0
H2920 H 0.85147 0.38699 0.61434 0.0
H2921 H 0.86242 0.34715 0.61177 0.0
H2922 H 0.93647 0.39456 0.61962 0.0
H2923 H 0.92579 0.43461 0.62254 0.0
H2924 H 0.96519 0.44111 0.60888 0.0
H2925 H 0.9262 0.46461 0.55041 0.0
H2926 H 0.90184 0.51002 0.5583 0.0
H2927 H 0.88115 0.46183 0.60734 0.0
C2928 C 0.91949 0.34838 0.587 0.0
C2929 C 0.92844 0.33416 0.57262 0.0
C2930 C 0.93733 0.35728 0.55826 0.0
C2931 C 0.93632 0.3931 0.55793 0.0
C2932 C 0.926 0.40569 0.57205 0.0
C2933 C 0.91825 0.38441 0.58641 0.0
C2934 C 0.90446 0.40297 0.59941 0.0
C2935 C 0.86226 0.37262 0.60556 0.0
C2936 C 0.93478 0.41929 0.61345 0.0
C2937 C 0.9042 0.43683 0.58993 0.0
C2938 C 0.91712 0.43798 0.57422 0.0
C2939 C 0.91694 0.46463 0.56282 0.0
C2940 C 0.90316 0.49073 0.56751 0.0
C2941 C 0.8896 0.49054 0.58357 0.0
C2942 C 0.89081 0.46318 0.59492 0.0
H2943 H 0.57454 0.47255 0.55586 0.0
H2944 H 0.57561 0.41333 0.60052 0.0
H2945 H 0.6404 0.4728 0.60793 0.0
H2946 H 0.6776 0.52114 0.54735 0.0
H2947 H 0.67986 0.56602 0.53975 0.0
H2948 H 0.63387 0.51896 0.53838 0.0
H2949 H 0.59708 0.54976 0.55388 0.0
H2950 H 0.64329 0.59676 0.55551 0.0
H2951 H 0.61524 0.57219 0.57353 0.0
H2952 H 0.70796 0.53979 0.60972 0.0
H2953 H 0.77105 0.6037 0.60473 0.0
H2954 H 0.72182 0.61927 0.55999 0.0
C2955 C 0.5877 0.47198 0.56739 0.0
C2956 C 0.56914 0.43784 0.57765 0.0
C2957 C 0.5889 0.43861 0.59231 0.0
C2958 C 0.62562 0.47259 0.59673 0.0
C2959 C 0.64229 0.50596 0.58647 0.0
C2960 C 0.62376 0.50571 0.57208 0.0
C2961 C 0.64785 0.54466 0.56288 0.0
C2962 C 0.66055 0.53724 0.5461 0.0
C2963 C 0.62445 0.56715 0.56136 0.0
C2964 C 0.6835 0.5667 0.57406 0.0
C2965 C 0.67979 0.54424 0.58772 0.0
C2966 C 0.71057 0.55778 0.59922 0.0
C2967 C 0.74618 0.59436 0.5964 0.0
C2968 C 0.75061 0.61731 0.58233 0.0
C2969 C 0.71856 0.60329 0.57119 0.0
loop_
_geom_bond_atom_site_label_1
_geom_bond_atom_site_label_2
_geom_bond_distance
_geom_bond_site_symmetry_2
_ccdc_geom_bond_type
Gd0 N31 2.661 1_565 S
Gd0 N37 2.601 . S
Gd0 O44 2.545 . S
Gd0 O45 2.606 . S
Gd0 O47 2.429 . S
Gd0 O48 2.545 . S
Gd0 O49 2.412 . S
Gd0 O51 2.362 1_565 S
Gd0 O52 2.324 . S
Gd0 C59 2.828 . S
Gd1 N10 2.661 1_545 S
Gd1 N14 2.601 . S
Gd1 O45 2.362 1_545 S
Gd1 O46 2.324 . S
Gd1 O50 2.545 . S
Gd1 O51 2.606 . S
Gd1 O53 2.429 . S
Gd1 O54 2.545 . S
Gd1 O55 2.412 . S
Gd1 C68 2.828 . S
C2 C5 1.417 . S
C2 C7 1.431 . S
C2 C8 1.412 . S
C3 C6 1.437 . S
C3 C7 1.317 . S
C3 H22 0.929 . S
C4 C5 1.426 . S
C4 C6 1.413 . S
C4 N14 1.359 1_565 S
C5 C2 1.417 . S
C5 C4 1.426 . S
C5 N10 1.350 . S
C6 C3 1.437 . S
C6 C4 1.413 . S
C6 C16 1.391 . S
C7 C2 1.431 . S
C7 C3 1.317 . S
C7 H18 0.930 . S
C8 C2 1.412 . S
C8 C9 1.355 . S
C8 H20 0.930 . S
C9 C8 1.355 . S
C9 C11 1.402 . S
C9 H21 0.930 . S
N10 Gd1 2.661 1_565 S
N10 C5 1.350 . S
N10 C11 1.307 . S
C11 C9 1.402 . S
C11 N10 1.307 . S
C11 H12 0.930 . S
H12 C11 0.930 . S
C13 N14 1.334 . S
C13 C15 1.394 . S
C13 H17 0.930 . S
N14 Gd1 2.601 . S
N14 C4 1.359 1_545 S
N14 C13 1.334 . S
C15 C13 1.394 . S
C15 C16 1.359 1_545 S
C15 H27 0.930 . S
C16 C6 1.391 . S
C16 C15 1.359 1_565 S
C16 H28 0.929 . S
H17 C13 0.930 . S
H18 C7 0.930 . S
H19 C36 0.930 . S
H20 C8 0.930 . S
H21 C9 0.930 . S
H22 C3 0.929 . S
H23 C41 0.930 . S
H24 C32 0.930 . S
H25 C33 0.930 . S
H26 C57 0.929 . S
H27 C15 0.930 . S
H28 C16 0.929 . S
H29 C58 0.930 . S
H30 C39 0.930 . S
N31 Gd0 2.661 1_545 S
N31 C35 1.350 . S
N31 C36 1.307 . S
C32 H24 0.930 . S
C32 C33 1.355 . S
C32 C34 1.412 . S
C33 H25 0.930 . S
C33 C32 1.355 . S
C33 C36 1.402 . S
C34 C32 1.412 . S
C34 C35 1.417 . S
C34 C58 1.431 . S
C35 N31 1.350 . S
C35 C34 1.417 . S
C35 C38 1.426 . S
C36 H19 0.930 . S
C36 N31 1.307 . S
C36 C33 1.402 . S
N37 Gd0 2.601 . S
N37 C38 1.359 1_565 S
N37 C41 1.334 . S
C38 C35 1.426 . S
C38 N37 1.359 1_545 S
C38 C42 1.413 . S
C39 H30 0.930 . S
C39 C40 1.359 1_565 S
C39 C41 1.394 . S
C40 C39 1.359 1_545 S
C40 C42 1.391 . S
C40 H43 0.929 . S
C41 H23 0.930 . S
C41 N37 1.334 . S
C41 C39 1.394 . S
C42 C38 1.413 . S
C42 C40 1.391 . S
C42 C57 1.437 . S
H43 C40 0.929 . S
O44 Gd0 2.545 . S
O44 C59 1.258 . S
O45 Gd0 2.606 . S
O45 Gd1 2.362 1_565 S
O45 C56 1.284 . S
O46 Gd1 2.324 . S
O46 C66 1.254 . S
O47 Gd0 2.429 . S
O47 C66 1.268 1_565 S
O48 Gd0 2.545 . S
O48 C56 1.250 . S
O49 Gd0 2.412 . S
O49 C59 1.252 . S
O50 Gd1 2.545 . S
O50 C68 1.258 . S
O51 Gd0 2.362 1_545 S
O51 Gd1 2.606 . S
O51 C67 1.284 . S
O52 Gd0 2.324 . S
O52 C75 1.254 . S
O53 Gd1 2.429 . S
O53 C75 1.268 1_545 S
O54 Gd1 2.545 . S
O54 C67 1.250 . S
O55 Gd1 2.412 . S
O55 C68 1.252 . S
C56 O45 1.284 . S
C56 O48 1.250 . S
C57 H26 0.929 . S
C57 C42 1.437 . S
C57 C58 1.317 . S
C58 H29 0.930 . S
C58 C34 1.431 . S
C58 C57 1.317 . S
C59 Gd0 2.828 . S
C59 O44 1.258 . S
C59 O49 1.252 . S
C59 C60 1.497 . S
C60 C59 1.497 . S
C60 C61 1.395 . S
C60 C62 1.380 . S
C61 C60 1.395 . S
C61 C64 1.398 . S
C61 H76 0.930 . S
C62 C60 1.380 . S
C62 C63 1.391 . S
C62 H77 0.930 . S
C63 C62 1.391 . S
C63 C65 1.387 . S
C64 C61 1.398 . S
C64 C65 1.380 . S
C64 H78 0.930 . S
C65 C63 1.387 . S
C65 C64 1.380 . S
C65 H79 0.930 . S
C66 O46 1.254 . S
C66 O47 1.268 1_545 S
C67 O51 1.284 . S
C67 O54 1.250 . S
C68 Gd1 2.828 . S
C68 O50 1.258 . S
C68 O55 1.252 . S
C68 C69 1.497 . S
C69 C68 1.497 . S
C69 C70 1.395 . S
C69 C71 1.380 . S
C70 C69 1.395 . S
C70 C73 1.398 . S
C70 H80 0.930 . S
C71 C69 1.380 . S
C71 C72 1.391 . S
C71 H81 0.930 . S
C72 C71 1.391 . S
C72 C74 1.387 . S
C73 C70 1.398 . S
C73 C74 1.380 . S
C73 H82 0.930 . S
C74 C72 1.387 . S
C74 C73 1.380 . S
C74 H83 0.930 . S
C75 O52 1.254 . S
C75 O53 1.268 1_565 S
H76 C61 0.930 . S
H77 C62 0.930 . S
H78 C64 0.930 . S
H79 C65 0.930 . S
H80 C70 0.930 . S
H81 C71 0.930 . S
H82 C73 0.930 . S
H83 C74 0.930 . S
Gd84 N115 2.661 . S
Gd84 N121 2.601 . S
Gd84 O128 2.545 . S
Gd84 O129 2.606 . S
Gd84 O131 2.429 . S
Gd84 O132 2.545 . S
Gd84 O133 2.412 . S
Gd84 O135 2.362 . S
Gd84 O136 2.324 . S
Gd84 C143 2.828 . S
Gd85 N94 2.661 . S
Gd85 N98 2.601 . S
Gd85 O129 2.362 . S
Gd85 O130 2.324 . S
Gd85 O134 2.545 1_455 S
Gd85 O135 2.606 . S
Gd85 O137 2.429 . S
Gd85 O138 2.545 1_455 S
Gd85 O139 2.412 1_455 S
Gd85 C152 2.828 1_455 S
C86 C89 1.417 . S
C86 C91 1.431 . S
C86 C92 1.412 . S
C87 C90 1.437 . S
C87 C91 1.317 . S
C87 H106 0.929 . S
C88 C89 1.426 . S
C88 C90 1.413 . S
C88 N98 1.359 . S
C89 C86 1.417 . S
C89 C88 1.426 . S
C89 N94 1.350 . S
C90 C87 1.437 . S
C90 C88 1.413 . S
C90 C100 1.391 . S
C91 C86 1.431 . S
C91 C87 1.317 . S
C91 H102 0.930 . S
C92 C86 1.412 . S
C92 C93 1.355 . S
C92 H104 0.930 . S
C93 C92 1.355 . S
C93 C95 1.402 . S
C93 H105 0.930 . S
N94 Gd85 2.661 . S
N94 C89 1.350 . S
N94 C95 1.307 . S
C95 C93 1.402 . S
C95 N94 1.307 . S
C95 H96 0.930 . S
H96 C95 0.930 . S
C97 N98 1.334 . S
C97 C99 1.394 . S
C97 H101 0.930 . S
N98 Gd85 2.601 . S
N98 C88 1.359 . S
N98 C97 1.334 . S
C99 C97 1.394 . S
C99 C100 1.359 . S
C99 H111 0.930 . S
C100 C90 1.391 . S
C100 C99 1.359 . S
C100 H112 0.929 . S
H101 C97 0.930 . S
H102 C91 0.930 . S
H103 C120 0.930 . S
H104 C92 0.930 . S
H105 C93 0.930 . S
H106 C87 0.929 . S
H107 C125 0.930 . S
H108 C116 0.930 . S
H109 C117 0.929 1_655 S
H110 C141 0.927 . S
H111 C99 0.930 . S
H112 C100 0.929 . S
H113 C142 0.930 . S
H114 C123 0.930 . S
N115 Gd84 2.661 . S
N115 C119 1.350 . S
N115 C120 1.307 . S
C116 H108 0.930 . S
C116 C117 1.355 1_655 S
C116 C118 1.412 1_655 S
C117 H109 0.929 1_455 S
C117 C116 1.355 1_455 S
C117 C120 1.402 . S
C118 C116 1.412 1_455 S
C118 C119 1.417 . S
C118 C142 1.431 1_455 S
C119 N115 1.350 . S
C119 C118 1.417 . S
C119 C122 1.426 . S
C120 H103 0.930 . S
C120 N115 1.307 . S
C120 C117 1.402 . S
N121 Gd84 2.601 . S
N121 C122 1.359 . S
N121 C125 1.334 . S
C122 C119 1.426 . S
C122 N121 1.359 . S
C122 C126 1.413 . S
C123 H114 0.930 . S
C123 C124 1.359 . S
C123 C125 1.394 . S
C124 C123 1.359 . S
C124 C126 1.391 . S
C124 H127 0.929 . S
C125 H107 0.930 . S
C125 N121 1.334 . S
C125 C123 1.394 . S
C126 C122 1.413 . S
C126 C124 1.391 . S
C126 C141 1.437 . S
H127 C124 0.929 . S
O128 Gd84 2.545 . S
O128 C143 1.258 . S
O129 Gd84 2.606 . S
O129 Gd85 2.362 . S
O129 C140 1.284 . S
O130 Gd85 2.324 . S
O130 C150 1.254 . S
O131 Gd84 2.429 . S
O131 C150 1.268 . S
O132 Gd84 2.545 . S
O132 C140 1.250 . S
O133 Gd84 2.412 . S
O133 C143 1.252 . S
O134 Gd85 2.545 1_655 S
O134 C152 1.258 . S
O135 Gd84 2.362 . S
O135 Gd85 2.606 . S
O135 C151 1.284 1_455 S
O136 Gd84 2.324 . S
O136 C159 1.254 . S
O137 Gd85 2.429 . S
O137 C159 1.268 . S
O138 Gd85 2.545 1_655 S
O138 C151 1.250 . S
O139 Gd85 2.412 1_655 S
O139 C152 1.252 . S
C140 O129 1.284 . S
C140 O132 1.250 . S
C141 H110 0.927 . S
C141 C126 1.437 . S
C141 C142 1.317 1_455 S
C142 H113 0.930 . S
C142 C118 1.431 1_655 S
C142 C141 1.317 1_655 S
C143 Gd84 2.828 . S
C143 O128 1.258 . S
C143 O133 1.252 . S
C143 C144 1.497 . S
C144 C143 1.497 . S
C144 C145 1.395 . S
C144 C146 1.380 . S
C145 C144 1.395 . S
C145 C148 1.398 . S
C145 H160 0.930 . S
C146 C144 1.380 . S
C146 C147 1.391 . S
C146 H161 0.930 . S
C147 C146 1.391 . S
C147 C149 1.387 . S
C148 C145 1.398 . S
C148 C149 1.380 . S
C148 H162 0.930 . S
C149 C147 1.387 . S
C149 C148 1.380 . S
C149 H163 0.930 . S
C150 O130 1.254 . S
C150 O131 1.268 . S
C151 O135 1.284 1_655 S
C151 O138 1.250 . S
C152 Gd85 2.828 1_655 S
C152 O134 1.258 . S
C152 O139 1.252 . S
C152 C153 1.497 . S
C153 C152 1.497 . S
C153 C154 1.395 . S
C153 C155 1.380 . S
C154 C153 1.395 . S
C154 C157 1.398 . S
C154 H164 0.930 . S
C155 C153 1.380 . S
C155 C156 1.391 . S
C155 H165 0.930 . S
C156 C155 1.391 . S
C156 C158 1.387 . S
C157 C154 1.398 . S
C157 C158 1.380 . S
C157 H166 0.930 . S
C158 C156 1.387 . S
C158 C157 1.380 . S
C158 H167 0.930 . S
C159 O136 1.254 . S
C159 O137 1.268 . S
H160 C145 0.930 . S
H161 C146 0.930 . S
H162 C148 0.930 . S
H163 C149 0.930 . S
H164 C154 0.930 . S
H165 C155 0.930 . S
H166 C157 0.930 . S
H167 C158 0.930 . S
Gd168 N199 2.661 . S
Gd168 N205 2.601 . S
Gd168 O212 2.545 . S
Gd168 O213 2.606 . S
Gd168 O215 2.429 . S
Gd168 O216 2.545 . S
Gd168 O217 2.412 . S
Gd168 O219 2.362 . S
Gd168 O220 2.324 . S
Gd168 C227 2.828 . S
Gd169 N178 2.661 . S
Gd169 N182 2.601 . S
Gd169 O213 2.362 . S
Gd169 O214 2.324 . S
Gd169 O218 2.545 . S
Gd169 O219 2.606 . S
Gd169 O221 2.429 . S
Gd169 O222 2.545 . S
Gd169 O223 2.412 . S
Gd169 C236 2.828 . S
C170 C173 1.417 . S
C170 C175 1.431 . S
C170 C176 1.412 . S
C171 C174 1.437 . S
C171 C175 1.317 . S
C171 H190 0.929 . S
C172 C173 1.426 . S
C172 C174 1.413 . S
C172 N182 1.359 . S
C173 C170 1.417 . S
C173 C172 1.426 . S
C173 N178 1.350 . S
C174 C171 1.437 . S
C174 C172 1.413 . S
C174 C184 1.391 . S
C175 C170 1.431 . S
C175 C171 1.317 . S
C175 H186 0.930 . S
C176 C170 1.412 . S
C176 C177 1.355 . S
C176 H188 0.930 . S
C177 C176 1.355 . S
C177 C179 1.402 . S
C177 H189 0.930 . S
N178 Gd169 2.661 . S
N178 C173 1.350 . S
N178 C179 1.307 . S
C179 C177 1.402 . S
C179 N178 1.307 . S
C179 H180 0.930 . S
H180 C179 0.930 . S
C181 N182 1.334 . S
C181 C183 1.394 . S
C181 H185 0.930 . S
N182 Gd169 2.601 . S
N182 C172 1.359 . S
N182 C181 1.334 . S
C183 C181 1.394 . S
C183 C184 1.359 . S
C183 H195 0.930 . S
C184 C174 1.391 . S
C184 C183 1.359 . S
C184 H196 0.929 . S
H185 C181 0.930 . S
H186 C175 0.930 . S
H187 C204 0.930 . S
H188 C176 0.930 . S
H189 C177 0.930 . S
H190 C171 0.929 . S
H191 C209 0.930 . S
H192 C200 0.930 . S
H193 C201 0.930 . S
H194 C225 0.929 . S
H195 C183 0.930 . S
H196 C184 0.929 . S
H197 C226 0.930 . S
H198 C207 0.930 . S
N199 Gd168 2.661 . S
N199 C203 1.350 . S
N199 C204 1.307 . S
C200 H192 0.930 . S
C200 C201 1.355 . S
C200 C202 1.412 . S
C201 H193 0.930 . S
C201 C200 1.355 . S
C201 C204 1.402 . S
C202 C200 1.412 . S
C202 C203 1.417 . S
C202 C226 1.431 . S
C203 N199 1.350 . S
C203 C202 1.417 . S
C203 C206 1.426 . S
C204 H187 0.930 . S
C204 N199 1.307 . S
C204 C201 1.402 . S
N205 Gd168 2.601 . S
N205 C206 1.359 . S
N205 C209 1.334 . S
C206 C203 1.426 . S
C206 N205 1.359 . S
C206 C210 1.413 . S
C207 H198 0.930 . S
C207 C208 1.359 . S
C207 C209 1.394 . S
C208 C207 1.359 . S
C208 C210 1.391 . S
C208 H211 0.929 . S
C209 H191 0.930 . S
C209 N205 1.334 . S
C209 C207 1.394 . S
C210 C206 1.413 . S
C210 C208 1.391 . S
C210 C225 1.437 . S
H211 C208 0.929 . S
O212 Gd168 2.545 . S
O212 C227 1.258 . S
O213 Gd168 2.606 . S
O213 Gd169 2.362 . S
O213 C224 1.284 . S
O214 Gd169 2.324 . S
O214 C234 1.254 . S
O215 Gd168 2.429 . S
O215 C234 1.268 . S
O216 Gd168 2.545 . S
O216 C224 1.250 . S
O217 Gd168 2.412 . S
O217 C227 1.252 . S
O218 Gd169 2.545 . S
O218 C236 1.258 . S
O219 Gd168 2.362 . S
O219 Gd169 2.606 . S
O219 C235 1.284 . S
O220 Gd168 2.324 . S
O220 C243 1.254 . S
O221 Gd169 2.429 . S
O221 C243 1.268 . S
O222 Gd169 2.545 . S
O222 C235 1.250 . S
O223 Gd169 2.412 . S
O223 C236 1.252 . S
C224 O213 1.284 . S
C224 O216 1.250 . S
C225 H194 0.929 . S
C225 C210 1.437 . S
C225 C226 1.317 . S
C226 H197 0.930 . S
C226 C202 1.431 . S
C226 C225 1.317 . S
C227 Gd168 2.828 . S
C227 O212 1.258 . S
C227 O217 1.252 . S
C227 C228 1.497 . S
C228 C227 1.497 . S
C228 C229 1.395 . S
C228 C230 1.380 . S
C229 C228 1.395 . S
C229 C232 1.398 . S
C229 H244 0.930 . S
C230 C228 1.380 . S
C230 C231 1.391 . S
C230 H245 0.930 . S
C231 C230 1.391 . S
C231 C233 1.387 . S
C232 C229 1.398 . S
C232 C233 1.380 . S
C232 H246 0.930 . S
C233 C231 1.387 . S
C233 C232 1.380 . S
C233 H247 0.930 . S
C234 O214 1.254 . S
C234 O215 1.268 . S
C235 O219 1.284 . S
C235 O222 1.250 . S
C236 Gd169 2.828 . S
C236 O218 1.258 . S
C236 O223 1.252 . S
C236 C237 1.497 . S
C237 C236 1.497 . S
C237 C238 1.395 . S
C237 C239 1.380 . S
C238 C237 1.395 . S
C238 C241 1.398 . S
C238 H248 0.930 . S
C239 C237 1.380 . S
C239 C240 1.391 . S
C239 H249 0.930 . S
C240 C239 1.391 . S
C240 C242 1.387 . S
C241 C238 1.398 . S
C241 C242 1.380 . S
C241 H250 0.930 . S
C242 C240 1.387 . S
C242 C241 1.380 . S
C242 H251 0.930 . S
C243 O220 1.254 . S
C243 O221 1.268 . S
H244 C229 0.930 . S
H245 C230 0.930 . S
H246 C232 0.930 . S
H247 C233 0.930 . S
H248 C238 0.930 . S
H249 C239 0.930 . S
H250 C241 0.930 . S
H251 C242 0.930 . S
Gd252 N283 2.661 1_655 S
Gd252 N289 2.601 . S
Gd252 O296 2.545 . S
Gd252 O297 2.606 . S
Gd252 O299 2.429 . S
Gd252 O300 2.545 . S
Gd252 O301 2.412 . S
Gd252 O303 2.362 1_655 S
Gd252 O304 2.324 . S
Gd252 C311 2.828 . S
Gd253 N262 2.661 1_455 S
Gd253 N266 2.601 . S
Gd253 O297 2.362 1_455 S
Gd253 O298 2.324 . S
Gd253 O302 2.545 . S
Gd253 O303 2.606 . S
Gd253 O305 2.429 . S
Gd253 O306 2.545 . S
Gd253 O307 2.412 . S
Gd253 C320 2.828 . S
C254 C257 1.417 . S
C254 C259 1.431 . S
C254 C260 1.412 . S
C255 C258 1.437 . S
C255 C259 1.317 . S
C255 H274 0.929 . S
C256 C257 1.426 . S
C256 C258 1.413 . S
C256 N266 1.359 1_655 S
C257 C254 1.417 . S
C257 C256 1.426 . S
C257 N262 1.350 . S
C258 C255 1.437 . S
C258 C256 1.413 . S
C258 C268 1.391 . S
C259 C254 1.431 . S
C259 C255 1.317 . S
C259 H270 0.930 . S
C260 C254 1.412 . S
C260 C261 1.355 . S
C260 H272 0.930 . S
C261 C260 1.355 . S
C261 C263 1.402 . S
C261 H273 0.930 . S
N262 Gd253 2.661 1_655 S
N262 C257 1.350 . S
N262 C263 1.307 . S
C263 C261 1.402 . S
C263 N262 1.307 . S
C263 H264 0.930 . S
H264 C263 0.930 . S
C265 N266 1.334 . S
C265 C267 1.394 . S
C265 H269 0.930 . S
N266 Gd253 2.601 . S
N266 C256 1.359 1_455 S
N266 C265 1.334 . S
C267 C265 1.394 . S
C267 C268 1.359 1_455 S
C267 H279 0.930 . S
C268 C258 1.391 . S
C268 C267 1.359 1_655 S
C268 H280 0.929 . S
H269 C265 0.930 . S
H270 C259 0.930 . S
H271 C288 0.930 . S
H272 C260 0.930 . S
H273 C261 0.930 . S
H274 C255 0.929 . S
H275 C293 0.930 . S
H276 C284 0.930 . S
H277 C285 0.930 . S
H278 C309 0.929 . S
H279 C267 0.930 . S
H280 C268 0.929 . S
H281 C310 0.930 . S
H282 C291 0.930 . S
N283 Gd252 2.661 1_455 S
N283 C287 1.350 . S
N283 C288 1.307 . S
C284 H276 0.930 . S
C284 C285 1.355 . S
C284 C286 1.412 . S
C285 H277 0.930 . S
C285 C284 1.355 . S
C285 C288 1.402 . S
C286 C284 1.412 . S
C286 C287 1.417 . S
C286 C310 1.431 . S
C287 N283 1.350 . S
C287 C286 1.417 . S
C287 C290 1.426 . S
C288 H271 0.930 . S
C288 N283 1.307 . S
C288 C285 1.402 . S
N289 Gd252 2.601 . S
N289 C290 1.359 1_655 S
N289 C293 1.334 . S
C290 C287 1.426 . S
C290 N289 1.359 1_455 S
C290 C294 1.413 . S
C291 H282 0.930 . S
C291 C292 1.359 1_655 S
C291 C293 1.394 . S
C292 C291 1.359 1_455 S
C292 C294 1.391 . S
C292 H295 0.929 . S
C293 H275 0.930 . S
C293 N289 1.334 . S
C293 C291 1.394 . S
C294 C290 1.413 . S
C294 C292 1.391 . S
C294 C309 1.437 . S
H295 C292 0.929 . S
O296 Gd252 2.545 . S
O296 C311 1.258 . S
O297 Gd252 2.606 . S
O297 Gd253 2.362 1_655 S
O297 C308 1.284 . S
O298 Gd253 2.324 . S
O298 C318 1.254 . S
O299 Gd252 2.429 . S
O299 C318 1.268 1_655 S
O300 Gd252 2.545 . S
O300 C308 1.250 . S
O301 Gd252 2.412 . S
O301 C311 1.252 . S
O302 Gd253 2.545 . S
O302 C320 1.258 . S
O303 Gd252 2.362 1_455 S
O303 Gd253 2.606 . S
O303 C319 1.284 . S
O304 Gd252 2.324 . S
O304 C327 1.254 . S
O305 Gd253 2.429 . S
O305 C327 1.268 1_455 S
O306 Gd253 2.545 . S
O306 C319 1.250 . S
O307 Gd253 2.412 . S
O307 C320 1.252 . S
C308 O297 1.284 . S
C308 O300 1.250 . S
C309 H278 0.929 . S
C309 C294 1.437 . S
C309 C310 1.317 . S
C310 H281 0.930 . S
C310 C286 1.431 . S
C310 C309 1.317 . S
C311 Gd252 2.828 . S
C311 O296 1.258 . S
C311 O301 1.252 . S
C311 C312 1.497 . S
C312 C311 1.497 . S
C312 C313 1.395 . S
C312 C314 1.380 . S
C313 C312 1.395 . S
C313 C316 1.398 . S
C313 H328 0.930 . S
C314 C312 1.380 . S
C314 C315 1.391 . S
C314 H329 0.930 . S
C315 C314 1.391 . S
C315 C317 1.387 . S
C316 C313 1.398 . S
C316 C317 1.380 . S
C316 H330 0.930 . S
C317 C315 1.387 . S
C317 C316 1.380 . S
C317 H331 0.930 . S
C318 O298 1.254 . S
C318 O299 1.268 1_455 S
C319 O303 1.284 . S
C319 O306 1.250 . S
C320 Gd253 2.828 . S
C320 O302 1.258 . S
C320 O307 1.252 . S
C320 C321 1.497 . S
C321 C320 1.497 . S
C321 C322 1.395 . S
C321 C323 1.380 . S
C322 C321 1.395 . S
C322 C325 1.398 . S
C322 H332 0.930 . S
C323 C321 1.380 . S
C323 C324 1.391 . S
C323 H333 0.930 . S
C324 C323 1.391 . S
C324 C326 1.387 . S
C325 C322 1.398 . S
C325 C326 1.380 . S
C325 H334 0.930 . S
C326 C324 1.387 . S
C326 C325 1.380 . S
C326 H335 0.930 . S
C327 O304 1.254 . S
C327 O305 1.268 1_655 S
H328 C313 0.930 . S
H329 C314 0.930 . S
H330 C316 0.930 . S
H331 C317 0.930 . S
H332 C322 0.930 . S
H333 C323 0.930 . S
H334 C325 0.930 . S
H335 C326 0.930 . S
Gd336 N367 2.661 . S
Gd336 N373 2.601 . S
Gd336 O380 2.545 . S
Gd336 O381 2.606 . S
Gd336 O383 2.429 . S
Gd336 O384 2.545 . S
Gd336 O385 2.412 . S
Gd336 O387 2.362 . S
Gd336 O388 2.324 . S
Gd336 C395 2.828 . S
Gd337 N346 2.661 . S
Gd337 N350 2.601 . S
Gd337 O381 2.362 . S
Gd337 O382 2.324 . S
Gd337 O386 2.545 . S
Gd337 O387 2.606 . S
Gd337 O389 2.429 . S
Gd337 O390 2.545 . S
Gd337 O391 2.412 . S
Gd337 C404 2.828 . S
C338 C341 1.417 . S
C338 C343 1.431 . S
C338 C344 1.412 . S
C339 C342 1.437 . S
C339 C343 1.317 . S
C339 H358 0.929 . S
C340 C341 1.426 . S
C340 C342 1.413 . S
C340 N350 1.359 . S
C341 C338 1.417 . S
C341 C340 1.426 . S
C341 N346 1.350 . S
C342 C339 1.437 . S
C342 C340 1.413 . S
C342 C352 1.391 . S
C343 C338 1.431 . S
C343 C339 1.317 . S
C343 H354 0.930 . S
C344 C338 1.412 . S
C344 C345 1.355 . S
C344 H356 0.930 . S
C345 C344 1.355 . S
C345 C347 1.402 . S
C345 H357 0.930 . S
N346 Gd337 2.661 . S
N346 C341 1.350 . S
N346 C347 1.307 . S
C347 C345 1.402 . S
C347 N346 1.307 . S
C347 H348 0.930 . S
H348 C347 0.930 . S
C349 N350 1.334 . S
C349 C351 1.394 . S
C349 H353 0.930 . S
N350 Gd337 2.601 . S
N350 C340 1.359 . S
N350 C349 1.334 . S
C351 C349 1.394 . S
C351 C352 1.359 . S
C351 H363 0.930 . S
C352 C342 1.391 . S
C352 C351 1.359 . S
C352 H364 0.929 . S
H353 C349 0.930 . S
H354 C343 0.930 . S
H355 C372 0.930 . S
H356 C344 0.930 . S
H357 C345 0.930 . S
H358 C339 0.929 . S
H359 C377 0.930 . S
H360 C368 0.930 . S
H361 C369 0.930 . S
H362 C393 0.929 . S
H363 C351 0.930 . S
H364 C352 0.929 . S
H365 C394 0.930 . S
H366 C375 0.930 . S
N367 Gd336 2.661 . S
N367 C371 1.350 . S
N367 C372 1.307 . S
C368 H360 0.930 . S
C368 C369 1.355 . S
C368 C370 1.412 . S
C369 H361 0.930 . S
C369 C368 1.355 . S
C369 C372 1.402 . S
C370 C368 1.412 . S
C370 C371 1.417 . S
C370 C394 1.431 . S
C371 N367 1.350 . S
C371 C370 1.417 . S
C371 C374 1.426 . S
C372 H355 0.930 . S
C372 N367 1.307 . S
C372 C369 1.402 . S
N373 Gd336 2.601 . S
N373 C374 1.359 . S
N373 C377 1.334 . S
C374 C371 1.426 . S
C374 N373 1.359 . S
C374 C378 1.413 . S
C375 H366 0.930 . S
C375 C376 1.359 . S
C375 C377 1.394 . S
C376 C375 1.359 . S
C376 C378 1.391 . S
C376 H379 0.929 . S
C377 H359 0.930 . S
C377 N373 1.334 . S
C377 C375 1.394 . S
C378 C374 1.413 . S
C378 C376 1.391 . S
C378 C393 1.437 . S
H379 C376 0.929 . S
O380 Gd336 2.545 . S
O380 C395 1.258 . S
O381 Gd336 2.606 . S
O381 Gd337 2.362 . S
O381 C392 1.284 . S
O382 Gd337 2.324 . S
O382 C402 1.254 . S
O383 Gd336 2.429 . S
O383 C402 1.268 . S
O384 Gd336 2.545 . S
O384 C392 1.250 . S
O385 Gd336 2.412 . S
O385 C395 1.252 . S
O386 Gd337 2.545 . S
O386 C404 1.258 . S
O387 Gd336 2.362 . S
O387 Gd337 2.606 . S
O387 C403 1.284 . S
O388 Gd336 2.324 . S
O388 C411 1.254 . S
O389 Gd337 2.429 . S
O389 C411 1.268 . S
O390 Gd337 2.545 . S
O390 C403 1.250 . S
O391 Gd337 2.412 . S
O391 C404 1.252 . S
C392 O381 1.284 . S
C392 O384 1.250 . S
C393 H362 0.929 . S
C393 C378 1.437 . S
C393 C394 1.317 . S
C394 H365 0.930 . S
C394 C370 1.431 . S
C394 C393 1.317 . S
C395 Gd336 2.828 . S
C395 O380 1.258 . S
C395 O385 1.252 . S
C395 C396 1.497 . S
C396 C395 1.497 . S
C396 C397 1.395 . S
C396 C398 1.380 . S
C397 C396 1.395 . S
C397 C400 1.398 . S
C397 H412 0.930 . S
C398 C396 1.380 . S
C398 C399 1.391 . S
C398 H413 0.930 . S
C399 C398 1.391 . S
C399 C401 1.387 . S
C400 C397 1.398 . S
C400 C401 1.380 . S
C400 H414 0.930 . S
C401 C399 1.387 . S
C401 C400 1.380 . S
C401 H415 0.930 . S
C402 O382 1.254 . S
C402 O383 1.268 . S
C403 O387 1.284 . S
C403 O390 1.250 . S
C404 Gd337 2.828 . S
C404 O386 1.258 . S
C404 O391 1.252 . S
C404 C405 1.497 . S
C405 C404 1.497 . S
C405 C406 1.395 . S
C405 C407 1.380 . S
C406 C405 1.395 . S
C406 C409 1.398 . S
C406 H416 0.930 . S
C407 C405 1.380 . S
C407 C408 1.391 . S
C407 H417 0.930 . S
C408 C407 1.391 . S
C408 C410 1.387 . S
C409 C406 1.398 . S
C409 C410 1.380 . S
C409 H418 0.930 . S
C410 C408 1.387 . S
C410 C409 1.380 . S
C410 H419 0.930 . S
C411 O388 1.254 . S
C411 O389 1.268 . S
H412 C397 0.930 . S
H413 C398 0.930 . S
H414 C400 0.930 . S
H415 C401 0.930 . S
H416 C406 0.930 . S
H417 C407 0.930 . S
H418 C409 0.930 . S
H419 C410 0.930 . S
Gd420 N451 2.661 . S
Gd420 N457 2.601 . S
Gd420 O464 2.545 . S
Gd420 O465 2.606 . S
Gd420 O467 2.429 . S
Gd420 O468 2.545 . S
Gd420 O469 2.412 . S
Gd420 O471 2.362 . S
Gd420 O472 2.324 . S
Gd420 C479 2.828 . S
Gd421 N430 2.661 . S
Gd421 N434 2.601 . S
Gd421 O465 2.362 . S
Gd421 O466 2.324 . S
Gd421 O470 2.545 1_545 S
Gd421 O471 2.606 . S
Gd421 O473 2.429 . S
Gd421 O474 2.545 1_545 S
Gd421 O475 2.412 1_545 S
Gd421 C488 2.828 1_545 S
C422 C425 1.417 . S
C422 C427 1.431 . S
C422 C428 1.412 . S
C423 C426 1.437 . S
C423 C427 1.317 . S
C423 H442 0.929 . S
C424 C425 1.426 . S
C424 C426 1.413 . S
C424 N434 1.359 . S
C425 C422 1.417 . S
C425 C424 1.426 . S
C425 N430 1.350 . S
C426 C423 1.437 . S
C426 C424 1.413 . S
C426 C436 1.391 . S
C427 C422 1.431 . S
C427 C423 1.317 . S
C427 H438 0.930 . S
C428 C422 1.412 . S
C428 C429 1.355 . S
C428 H440 0.930 . S
C429 C428 1.355 . S
C429 C431 1.402 . S
C429 H441 0.930 . S
N430 Gd421 2.661 . S
N430 C425 1.350 . S
N430 C431 1.307 . S
C431 C429 1.402 . S
C431 N430 1.307 . S
C431 H432 0.930 . S
H432 C431 0.930 . S
C433 N434 1.334 . S
C433 C435 1.394 . S
C433 H437 0.930 . S
N434 Gd421 2.601 . S
N434 C424 1.359 . S
N434 C433 1.334 . S
C435 C433 1.394 . S
C435 C436 1.359 . S
C435 H447 0.930 . S
C436 C426 1.391 . S
C436 C435 1.359 . S
C436 H448 0.929 . S
H437 C433 0.930 . S
H438 C427 0.930 . S
H439 C456 0.930 . S
H440 C428 0.930 . S
H441 C429 0.930 . S
H442 C423 0.929 . S
H443 C461 0.930 . S
H444 C452 0.930 . S
H445 C453 0.929 1_565 S
H446 C477 0.927 . S
H447 C435 0.930 . S
H448 C436 0.929 . S
H449 C478 0.930 . S
H450 C459 0.930 . S
N451 Gd420 2.661 . S
N451 C455 1.350 . S
N451 C456 1.307 . S
C452 H444 0.930 . S
C452 C453 1.355 1_565 S
C452 C454 1.412 1_565 S
C453 H445 0.929 1_545 S
C453 C452 1.355 1_545 S
C453 C456 1.402 . S
C454 C452 1.412 1_545 S
C454 C455 1.417 . S
C454 C478 1.431 1_545 S
C455 N451 1.350 . S
C455 C454 1.417 . S
C455 C458 1.426 . S
C456 H439 0.930 . S
C456 N451 1.307 . S
C456 C453 1.402 . S
N457 Gd420 2.601 . S
N457 C458 1.359 . S
N457 C461 1.334 . S
C458 C455 1.426 . S
C458 N457 1.359 . S
C458 C462 1.413 . S
C459 H450 0.930 . S
C459 C460 1.359 . S
C459 C461 1.394 . S
C460 C459 1.359 . S
C460 C462 1.391 . S
C460 H463 0.929 . S
C461 H443 0.930 . S
C461 N457 1.334 . S
C461 C459 1.394 . S
C462 C458 1.413 . S
C462 C460 1.391 . S
C462 C477 1.437 . S
H463 C460 0.929 . S
O464 Gd420 2.545 . S
O464 C479 1.258 . S
O465 Gd420 2.606 . S
O465 Gd421 2.362 . S
O465 C476 1.284 . S
O466 Gd421 2.324 . S
O466 C486 1.254 . S
O467 Gd420 2.429 . S
O467 C486 1.268 . S
O468 Gd420 2.545 . S
O468 C476 1.250 . S
O469 Gd420 2.412 . S
O469 C479 1.252 . S
O470 Gd421 2.545 1_565 S
O470 C488 1.258 . S
O471 Gd420 2.362 . S
O471 Gd421 2.606 . S
O471 C487 1.284 1_545 S
O472 Gd420 2.324 . S
O472 C495 1.254 . S
O473 Gd421 2.429 . S
O473 C495 1.268 . S
O474 Gd421 2.545 1_565 S
O474 C487 1.250 . S
O475 Gd421 2.412 1_565 S
O475 C488 1.252 . S
C476 O465 1.284 . S
C476 O468 1.250 . S
C477 H446 0.927 . S
C477 C462 1.437 . S
C477 C478 1.317 1_545 S
C478 H449 0.930 . S
C478 C454 1.431 1_565 S
C478 C477 1.317 1_565 S
C479 Gd420 2.828 . S
C479 O464 1.258 . S
C479 O469 1.252 . S
C479 C480 1.497 . S
C480 C479 1.497 . S
C480 C481 1.395 . S
C480 C482 1.380 . S
C481 C480 1.395 . S
C481 C484 1.398 . S
C481 H496 0.930 . S
C482 C480 1.380 . S
C482 C483 1.391 . S
C482 H497 0.930 . S
C483 C482 1.391 . S
C483 C485 1.387 . S
C484 C481 1.398 . S
C484 C485 1.380 . S
C484 H498 0.930 . S
C485 C483 1.387 . S
C485 C484 1.380 . S
C485 H499 0.930 . S
C486 O466 1.254 . S
C486 O467 1.268 . S
C487 O471 1.284 1_565 S
C487 O474 1.250 . S
C488 Gd421 2.828 1_565 S
C488 O470 1.258 . S
C488 O475 1.252 . S
C488 C489 1.497 . S
C489 C488 1.497 . S
C489 C490 1.395 . S
C489 C491 1.380 . S
C490 C489 1.395 . S
C490 C493 1.398 . S
C490 H500 0.930 . S
C491 C489 1.380 . S
C491 C492 1.391 . S
C491 H501 0.930 . S
C492 C491 1.391 . S
C492 C494 1.387 . S
C493 C490 1.398 . S
C493 C494 1.380 . S
C493 H502 0.930 . S
C494 C492 1.387 . S
C494 C493 1.380 . S
C494 H503 0.930 . S
C495 O472 1.254 . S
C495 O473 1.268 . S
H496 C481 0.930 . S
H497 C482 0.930 . S
H498 C484 0.930 . S
H499 C485 0.930 . S
H500 C490 0.930 . S
H501 C491 0.930 . S
H502 C493 0.930 . S
H503 C494 0.930 . S
Gd504 N535 2.661 . S
Gd504 N541 2.601 . S
Gd504 O548 2.545 . S
Gd504 O549 2.606 . S
Gd504 O551 2.429 . S
Gd504 O552 2.545 . S
Gd504 O553 2.412 . S
Gd504 O555 2.362 . S
Gd504 O556 2.324 . S
Gd504 C563 2.828 . S
Gd505 N514 2.661 . S
Gd505 N518 2.601 . S
Gd505 O549 2.362 . S
Gd505 O550 2.324 . S
Gd505 O554 2.545 . S
Gd505 O555 2.606 . S
Gd505 O557 2.429 . S
Gd505 O558 2.545 . S
Gd505 O559 2.412 . S
Gd505 C572 2.828 . S
C506 C509 1.417 . S
C506 C511 1.431 . S
C506 C512 1.412 . S
C507 C510 1.437 . S
C507 C511 1.317 . S
C507 H526 0.929 . S
C508 C509 1.426 . S
C508 C510 1.413 . S
C508 N518 1.359 . S
C509 C506 1.417 . S
C509 C508 1.426 . S
C509 N514 1.350 . S
C510 C507 1.437 . S
C510 C508 1.413 . S
C510 C520 1.391 . S
C511 C506 1.431 . S
C511 C507 1.317 . S
C511 H522 0.930 . S
C512 C506 1.412 . S
C512 C513 1.355 . S
C512 H524 0.930 . S
C513 C512 1.355 . S
C513 C515 1.402 . S
C513 H525 0.930 . S
N514 Gd505 2.661 . S
N514 C509 1.350 . S
N514 C515 1.307 . S
C515 C513 1.402 . S
C515 N514 1.307 . S
C515 H516 0.930 . S
H516 C515 0.930 . S
C517 N518 1.334 . S
C517 C519 1.394 . S
C517 H521 0.930 . S
N518 Gd505 2.601 . S
N518 C508 1.359 . S
N518 C517 1.334 . S
C519 C517 1.394 . S
C519 C520 1.359 . S
C519 H531 0.930 . S
C520 C510 1.391 . S
C520 C519 1.359 . S
C520 H532 0.929 . S
H521 C517 0.930 . S
H522 C511 0.930 . S
H523 C540 0.930 . S
H524 C512 0.930 . S
H525 C513 0.930 . S
H526 C507 0.929 . S
H527 C545 0.930 . S
H528 C536 0.930 . S
H529 C537 0.930 . S
H530 C561 0.929 . S
H531 C519 0.930 . S
H532 C520 0.929 . S
H533 C562 0.930 . S
H534 C543 0.930 . S
N535 Gd504 2.661 . S
N535 C539 1.350 . S
N535 C540 1.307 . S
C536 H528 0.930 . S
C536 C537 1.355 . S
C536 C538 1.412 . S
C537 H529 0.930 . S
C537 C536 1.355 . S
C537 C540 1.402 . S
C538 C536 1.412 . S
C538 C539 1.417 . S
C538 C562 1.431 . S
C539 N535 1.350 . S
C539 C538 1.417 . S
C539 C542 1.426 . S
C540 H523 0.930 . S
C540 N535 1.307 . S
C540 C537 1.402 . S
N541 Gd504 2.601 . S
N541 C542 1.359 . S
N541 C545 1.334 . S
C542 C539 1.426 . S
C542 N541 1.359 . S
C542 C546 1.413 . S
C543 H534 0.930 . S
C543 C544 1.359 . S
C543 C545 1.394 . S
C544 C543 1.359 . S
C544 C546 1.391 . S
C544 H547 0.929 . S
C545 H527 0.930 . S
C545 N541 1.334 . S
C545 C543 1.394 . S
C546 C542 1.413 . S
C546 C544 1.391 . S
C546 C561 1.437 . S
H547 C544 0.929 . S
O548 Gd504 2.545 . S
O548 C563 1.258 . S
O549 Gd504 2.606 . S
O549 Gd505 2.362 . S
O549 C560 1.284 . S
O550 Gd505 2.324 . S
O550 C570 1.254 . S
O551 Gd504 2.429 . S
O551 C570 1.268 . S
O552 Gd504 2.545 . S
O552 C560 1.250 . S
O553 Gd504 2.412 . S
O553 C563 1.252 . S
O554 Gd505 2.545 . S
O554 C572 1.258 . S
O555 Gd504 2.362 . S
O555 Gd505 2.606 . S
O555 C571 1.284 . S
O556 Gd504 2.324 . S
O556 C579 1.254 . S
O557 Gd505 2.429 . S
O557 C579 1.268 . S
O558 Gd505 2.545 . S
O558 C571 1.250 . S
O559 Gd505 2.412 . S
O559 C572 1.252 . S
C560 O549 1.284 . S
C560 O552 1.250 . S
C561 H530 0.929 . S
C561 C546 1.437 . S
C561 C562 1.317 . S
C562 H533 0.930 . S
C562 C538 1.431 . S
C562 C561 1.317 . S
C563 Gd504 2.828 . S
C563 O548 1.258 . S
C563 O553 1.252 . S
C563 C564 1.497 . S
C564 C563 1.497 . S
C564 C565 1.395 1_455 S
C564 C566 1.380 1_455 S
C565 C564 1.395 1_655 S
C565 C568 1.398 . S
C565 H580 0.930 . S
C566 C564 1.380 1_655 S
C566 C567 1.391 . S
C566 H581 0.930 1_655 S
C567 C566 1.391 . S
C567 C569 1.387 . S
C568 C565 1.398 . S
C568 C569 1.380 . S
C568 H582 0.930 . S
C569 C567 1.387 . S
C569 C568 1.380 . S
C569 H583 0.930 . S
C570 O550 1.254 . S
C570 O551 1.268 . S
C571 O555 1.284 . S
C571 O558 1.250 . S
C572 Gd505 2.828 . S
C572 O554 1.258 . S
C572 O559 1.252 . S
C572 C573 1.497 . S
C573 C572 1.497 . S
C573 C574 1.395 . S
C573 C575 1.380 . S
C574 C573 1.395 . S
C574 C577 1.398 . S
C574 H584 0.930 . S
C575 C573 1.380 . S
C575 C576 1.391 . S
C575 H585 0.930 . S
C576 C575 1.391 . S
C576 C578 1.387 . S
C577 C574 1.398 . S
C577 C578 1.380 . S
C577 H586 0.930 . S
C578 C576 1.387 . S
C578 C577 1.380 . S
C578 H587 0.930 . S
C579 O556 1.254 . S
C579 O557 1.268 . S
H580 C565 0.930 . S
H581 C566 0.930 1_455 S
H582 C568 0.930 . S
H583 C569 0.930 . S
H584 C574 0.930 . S
H585 C575 0.930 . S
H586 C577 0.930 . S
H587 C578 0.930 . S
Gd588 N619 2.661 . S
Gd588 N625 2.601 . S
Gd588 O632 2.545 . S
Gd588 O633 2.606 . S
Gd588 O635 2.429 . S
Gd588 O636 2.545 . S
Gd588 O637 2.412 . S
Gd588 O639 2.362 . S
Gd588 O640 2.324 . S
Gd588 C647 2.828 . S
Gd589 N598 2.661 . S
Gd589 N602 2.601 . S
Gd589 O633 2.362 . S
Gd589 O634 2.324 . S
Gd589 O638 2.545 . S
Gd589 O639 2.606 . S
Gd589 O641 2.429 . S
Gd589 O642 2.545 . S
Gd589 O643 2.412 . S
Gd589 C656 2.828 . S
C590 C593 1.417 1_545 S
C590 C595 1.431 . S
C590 C596 1.412 . S
C591 C594 1.437 1_545 S
C591 C595 1.317 . S
C591 H610 0.929 . S
C592 C593 1.426 . S
C592 C594 1.413 . S
C592 N602 1.359 . S
C593 C590 1.417 1_565 S
C593 C592 1.426 . S
C593 N598 1.350 . S
C594 C591 1.437 1_565 S
C594 C592 1.413 . S
C594 C604 1.391 . S
C595 C590 1.431 . S
C595 C591 1.317 . S
C595 H606 0.930 . S
C596 C590 1.412 . S
C596 C597 1.355 . S
C596 H608 0.930 . S
C597 C596 1.355 . S
C597 C599 1.402 1_545 S
C597 H609 0.930 . S
N598 Gd589 2.661 . S
N598 C593 1.350 . S
N598 C599 1.307 . S
C599 C597 1.402 1_565 S
C599 N598 1.307 . S
C599 H600 0.930 . S
H600 C599 0.930 . S
C601 N602 1.334 . S
C601 C603 1.394 . S
C601 H605 0.930 . S
N602 Gd589 2.601 . S
N602 C592 1.359 . S
N602 C601 1.334 . S
C603 C601 1.394 . S
C603 C604 1.359 . S
C603 H615 0.930 . S
C604 C594 1.391 . S
C604 C603 1.359 . S
C604 H616 0.930 . S
H605 C601 0.930 . S
H606 C595 0.930 . S
H607 C624 0.930 . S
H608 C596 0.930 . S
H609 C597 0.930 . S
H610 C591 0.929 . S
H611 C629 0.930 . S
H612 C620 0.930 . S
H613 C621 0.930 . S
H614 C645 0.929 . S
H615 C603 0.930 . S
H616 C604 0.930 . S
H617 C646 0.930 . S
H618 C627 0.930 . S
N619 Gd588 2.661 . S
N619 C623 1.350 . S
N619 C624 1.307 . S
C620 H612 0.930 . S
C620 C621 1.355 . S
C620 C622 1.412 . S
C621 H613 0.930 . S
C621 C620 1.355 . S
C621 C624 1.402 . S
C622 C620 1.412 . S
C622 C623 1.417 . S
C622 C646 1.431 . S
C623 N619 1.350 . S
C623 C622 1.417 . S
C623 C626 1.426 . S
C624 H607 0.930 . S
C624 N619 1.307 . S
C624 C621 1.402 . S
N625 Gd588 2.601 . S
N625 C626 1.359 . S
N625 C629 1.334 . S
C626 C623 1.426 . S
C626 N625 1.359 . S
C626 C630 1.413 . S
C627 H618 0.930 . S
C627 C628 1.359 . S
C627 C629 1.394 . S
C628 C627 1.359 . S
C628 C630 1.391 . S
C628 H631 0.929 . S
C629 H611 0.930 . S
C629 N625 1.334 . S
C629 C627 1.394 . S
C630 C626 1.413 . S
C630 C628 1.391 . S
C630 C645 1.437 . S
H631 C628 0.929 . S
O632 Gd588 2.545 . S
O632 C647 1.258 . S
O633 Gd588 2.606 . S
O633 Gd589 2.362 . S
O633 C644 1.284 . S
O634 Gd589 2.324 . S
O634 C654 1.254 . S
O635 Gd588 2.429 . S
O635 C654 1.268 . S
O636 Gd588 2.545 . S
O636 C644 1.250 . S
O637 Gd588 2.412 . S
O637 C647 1.252 . S
O638 Gd589 2.545 . S
O638 C656 1.258 . S
O639 Gd588 2.362 . S
O639 Gd589 2.606 . S
O639 C655 1.284 . S
O640 Gd588 2.324 . S
O640 C663 1.254 . S
O641 Gd589 2.429 . S
O641 C663 1.268 . S
O642 Gd589 2.545 . S
O642 C655 1.250 . S
O643 Gd589 2.412 . S
O643 C656 1.252 . S
C644 O633 1.284 . S
C644 O636 1.250 . S
C645 H614 0.929 . S
C645 C630 1.437 . S
C645 C646 1.317 . S
C646 H617 0.930 . S
C646 C622 1.431 . S
C646 C645 1.317 . S
C647 Gd588 2.828 . S
C647 O632 1.258 . S
C647 O637 1.252 . S
C647 C648 1.497 . S
C648 C647 1.497 . S
C648 C649 1.395 . S
C648 C650 1.380 . S
C649 C648 1.395 . S
C649 C652 1.398 . S
C649 H664 0.930 . S
C650 C648 1.380 . S
C650 C651 1.391 . S
C650 H665 0.930 . S
C651 C650 1.391 . S
C651 C653 1.387 . S
C652 C649 1.398 . S
C652 C653 1.380 . S
C652 H666 0.930 . S
C653 C651 1.387 . S
C653 C652 1.380 . S
C653 H667 0.930 . S
C654 O634 1.254 . S
C654 O635 1.268 . S
C655 O639 1.284 . S
C655 O642 1.250 . S
C656 Gd589 2.828 . S
C656 O638 1.258 . S
C656 O643 1.252 . S
C656 C657 1.497 . S
C657 C656 1.497 . S
C657 C658 1.395 . S
C657 C659 1.380 . S
C658 C657 1.395 . S
C658 C661 1.398 . S
C658 H668 0.930 . S
C659 C657 1.380 . S
C659 C660 1.391 . S
C659 H669 0.930 . S
C660 C659 1.391 . S
C660 C662 1.387 . S
C661 C658 1.398 . S
C661 C662 1.380 . S
C661 H670 0.930 . S
C662 C660 1.387 . S
C662 C661 1.380 . S
C662 H671 0.930 . S
C663 O640 1.254 . S
C663 O641 1.268 . S
H664 C649 0.930 . S
H665 C650 0.930 . S
H666 C652 0.930 . S
H667 C653 0.930 . S
H668 C658 0.930 . S
H669 C659 0.930 . S
H670 C661 0.930 . S
H671 C662 0.930 . S
Gd672 N703 2.661 . S
Gd672 N709 2.601 . S
Gd672 O716 2.545 . S
Gd672 O717 2.606 . S
Gd672 O719 2.429 . S
Gd672 O720 2.545 . S
Gd672 O721 2.412 . S
Gd672 O723 2.362 . S
Gd672 O724 2.324 . S
Gd672 C731 2.820 1_565 S
Gd673 N682 2.661 . S
Gd673 N686 2.601 . S
Gd673 O717 2.362 . S
Gd673 O718 2.324 . S
Gd673 O722 2.545 . S
Gd673 O723 2.606 . S
Gd673 O725 2.429 . S
Gd673 O726 2.545 . S
Gd673 O727 2.412 . S
Gd673 C740 2.828 . S
C674 C677 1.417 . S
C674 C679 1.431 1_455 S
C674 C680 1.412 . S
C675 C678 1.437 . S
C675 C679 1.317 1_455 S
C675 H694 0.929 1_455 S
C676 C677 1.426 . S
C676 C678 1.413 . S
C676 N686 1.359 . S
C677 C674 1.417 . S
C677 C676 1.426 . S
C677 N682 1.350 . S
C678 C675 1.437 . S
C678 C676 1.413 . S
C678 C688 1.391 . S
C679 C674 1.431 1_655 S
C679 C675 1.317 1_655 S
C679 H690 0.930 . S
C680 C674 1.412 . S
C680 C681 1.355 . S
C680 H692 0.930 1_455 S
C681 C680 1.355 . S
C681 C683 1.402 . S
C681 H693 0.930 . S
N682 Gd673 2.661 . S
N682 C677 1.350 . S
N682 C683 1.307 . S
C683 C681 1.402 . S
C683 N682 1.307 . S
C683 H684 0.930 . S
H684 C683 0.930 . S
C685 N686 1.334 . S
C685 C687 1.394 . S
C685 H689 0.930 . S
N686 Gd673 2.601 . S
N686 C676 1.359 . S
N686 C685 1.334 . S
C687 C685 1.394 . S
C687 C688 1.359 . S
C687 H699 0.930 . S
C688 C678 1.391 . S
C688 C687 1.359 . S
C688 H700 0.929 . S
H689 C685 0.930 . S
H690 C679 0.930 . S
H691 C708 0.930 . S
H692 C680 0.930 1_655 S
H693 C681 0.930 . S
H694 C675 0.929 1_655 S
H695 C713 0.930 . S
H696 C704 0.930 . S
H697 C705 0.930 . S
H698 C729 0.929 . S
H699 C687 0.930 . S
H700 C688 0.929 . S
H701 C730 0.930 . S
H702 C711 0.930 . S
N703 Gd672 2.661 . S
N703 C707 1.350 . S
N703 C708 1.307 . S
C704 H696 0.930 . S
C704 C705 1.355 1_545 S
C704 C706 1.412 . S
C705 H697 0.930 . S
C705 C704 1.355 1_565 S
C705 C708 1.402 . S
C706 C704 1.412 . S
C706 C707 1.417 1_545 S
C706 C730 1.431 . S
C707 N703 1.350 . S
C707 C706 1.417 1_565 S
C707 C710 1.426 . S
C708 H691 0.930 . S
C708 N703 1.307 . S
C708 C705 1.402 . S
N709 Gd672 2.601 . S
N709 C710 1.359 . S
N709 C713 1.334 . S
C710 C707 1.426 . S
C710 N709 1.359 . S
C710 C714 1.414 . S
C711 H702 0.930 . S
C711 C712 1.359 . S
C711 C713 1.394 . S
C712 C711 1.359 . S
C712 C714 1.390 . S
C712 H715 0.929 1_565 S
C713 H695 0.930 . S
C713 N709 1.334 . S
C713 C711 1.394 . S
C714 C710 1.414 . S
C714 C712 1.390 . S
C714 C729 1.437 1_565 S
H715 C712 0.929 1_545 S
O716 Gd672 2.545 . S
O716 C731 1.253 1_565 S
O717 Gd672 2.606 . S
O717 Gd673 2.362 . S
O717 C728 1.284 . S
O718 Gd673 2.324 . S
O718 C738 1.254 . S
O719 Gd672 2.429 . S
O719 C738 1.268 . S
O720 Gd672 2.545 . S
O720 C728 1.250 . S
O721 Gd672 2.412 . S
O721 C731 1.248 1_565 S
O722 Gd673 2.545 . S
O722 C740 1.258 . S
O723 Gd672 2.362 . S
O723 Gd673 2.606 . S
O723 C739 1.284 . S
O724 Gd672 2.324 . S
O724 C747 1.254 . S
O725 Gd673 2.429 . S
O725 C747 1.268 . S
O726 Gd673 2.545 . S
O726 C739 1.250 . S
O727 Gd673 2.412 . S
O727 C740 1.252 . S
C728 O717 1.284 . S
C728 O720 1.250 . S
C729 H698 0.929 . S
C729 C714 1.437 1_545 S
C729 C730 1.317 . S
C730 H701 0.930 . S
C730 C706 1.431 . S
C730 C729 1.317 . S
C731 Gd672 2.820 1_545 S
C731 O716 1.253 1_545 S
C731 O721 1.248 1_545 S
C731 C732 1.506 . S
C732 C731 1.506 . S
C732 C733 1.395 . S
C732 C734 1.380 . S
C733 C732 1.395 . S
C733 C736 1.398 . S
C733 H748 0.930 . S
C734 C732 1.380 . S
C734 C735 1.391 . S
C734 H749 0.930 . S
C735 C734 1.391 . S
C735 C737 1.387 . S
C736 C733 1.398 . S
C736 C737 1.380 . S
C736 H750 0.930 . S
C737 C735 1.387 . S
C737 C736 1.380 . S
C737 H751 0.930 . S
C738 O718 1.254 . S
C738 O719 1.268 . S
C739 O723 1.284 . S
C739 O726 1.250 . S
C740 Gd673 2.828 . S
C740 O722 1.258 . S
C740 O727 1.252 . S
C740 C741 1.497 . S
C741 C740 1.497 . S
C741 C742 1.395 . S
C741 C743 1.380 . S
C742 C741 1.395 . S
C742 C745 1.398 . S
C742 H752 0.930 . S
C743 C741 1.380 . S
C743 C744 1.391 . S
C743 H753 0.930 . S
C744 C743 1.391 . S
C744 C746 1.387 . S
C745 C742 1.398 . S
C745 C746 1.380 . S
C745 H754 0.930 . S
C746 C744 1.387 . S
C746 C745 1.380 . S
C746 H755 0.930 . S
C747 O724 1.254 . S
C747 O725 1.268 . S
H748 C733 0.930 . S
H749 C734 0.930 . S
H750 C736 0.930 . S
H751 C737 0.930 . S
H752 C742 0.930 . S
H753 C743 0.930 . S
H754 C745 0.930 . S
H755 C746 0.930 . S
Gd756 N787 2.661 . S
Gd756 N793 2.601 . S
Gd756 O800 2.545 . S
Gd756 O801 2.606 . S
Gd756 O803 2.429 . S
Gd756 O804 2.545 . S
Gd756 O805 2.412 . S
Gd756 O807 2.362 . S
Gd756 O808 2.324 . S
Gd756 C815 2.828 . S
Gd757 N766 2.661 . S
Gd757 N770 2.601 . S
Gd757 O801 2.362 . S
Gd757 O802 2.324 . S
Gd757 O806 2.545 . S
Gd757 O807 2.606 . S
Gd757 O809 2.429 . S
Gd757 O810 2.545 . S
Gd757 O811 2.412 . S
Gd757 C824 2.828 . S
C758 C761 1.417 . S
C758 C763 1.431 . S
C758 C764 1.412 . S
C759 C762 1.437 . S
C759 C763 1.317 . S
C759 H778 0.929 . S
C760 C761 1.426 . S
C760 C762 1.413 . S
C760 N770 1.359 . S
C761 C758 1.417 . S
C761 C760 1.426 . S
C761 N766 1.350 . S
C762 C759 1.437 . S
C762 C760 1.413 . S
C762 C772 1.391 . S
C763 C758 1.431 . S
C763 C759 1.317 . S
C763 H774 0.930 . S
C764 C758 1.412 . S
C764 C765 1.355 . S
C764 H776 0.930 . S
C765 C764 1.355 . S
C765 C767 1.402 . S
C765 H777 0.930 . S
N766 Gd757 2.661 . S
N766 C761 1.350 . S
N766 C767 1.307 . S
C767 C765 1.402 . S
C767 N766 1.307 . S
C767 H768 0.930 . S
H768 C767 0.930 . S
C769 N770 1.334 . S
C769 C771 1.394 . S
C769 H773 0.930 . S
N770 Gd757 2.601 . S
N770 C760 1.359 . S
N770 C769 1.334 . S
C771 C769 1.394 . S
C771 C772 1.359 . S
C771 H783 0.930 . S
C772 C762 1.391 . S
C772 C771 1.359 . S
C772 H784 0.929 . S
H773 C769 0.930 . S
H774 C763 0.930 . S
H775 C792 0.930 . S
H776 C764 0.930 . S
H777 C765 0.930 . S
H778 C759 0.929 . S
H779 C797 0.930 . S
H780 C788 0.930 . S
H781 C789 0.930 . S
H782 C813 0.929 . S
H783 C771 0.930 . S
H784 C772 0.929 . S
H785 C814 0.930 . S
H786 C795 0.930 . S
N787 Gd756 2.661 . S
N787 C791 1.350 . S
N787 C792 1.307 . S
C788 H780 0.930 . S
C788 C789 1.355 . S
C788 C790 1.412 . S
C789 H781 0.930 . S
C789 C788 1.355 . S
C789 C792 1.402 . S
C790 C788 1.412 . S
C790 C791 1.417 . S
C790 C814 1.431 . S
C791 N787 1.350 . S
C791 C790 1.417 . S
C791 C794 1.426 . S
C792 H775 0.930 . S
C792 N787 1.307 . S
C792 C789 1.402 . S
N793 Gd756 2.601 . S
N793 C794 1.359 . S
N793 C797 1.334 . S
C794 C791 1.426 . S
C794 N793 1.359 . S
C794 C798 1.413 . S
C795 H786 0.930 . S
C795 C796 1.359 . S
C795 C797 1.394 . S
C796 C795 1.359 . S
C796 C798 1.391 . S
C796 H799 0.929 . S
C797 H779 0.930 . S
C797 N793 1.334 . S
C797 C795 1.394 . S
C798 C794 1.413 . S
C798 C796 1.391 . S
C798 C813 1.437 . S
H799 C796 0.929 . S
O800 Gd756 2.545 . S
O800 C815 1.258 . S
O801 Gd756 2.606 . S
O801 Gd757 2.362 . S
O801 C812 1.284 . S
O802 Gd757 2.324 . S
O802 C822 1.254 . S
O803 Gd756 2.429 . S
O803 C822 1.268 . S
O804 Gd756 2.545 . S
O804 C812 1.250 . S
O805 Gd756 2.412 . S
O805 C815 1.252 . S
O806 Gd757 2.545 . S
O806 C824 1.258 . S
O807 Gd756 2.362 . S
O807 Gd757 2.606 . S
O807 C823 1.284 . S
O808 Gd756 2.324 . S
O808 C831 1.254 . S
O809 Gd757 2.429 . S
O809 C831 1.268 . S
O810 Gd757 2.545 . S
O810 C823 1.250 . S
O811 Gd757 2.412 . S
O811 C824 1.252 . S
C812 O801 1.284 . S
C812 O804 1.250 . S
C813 H782 0.929 . S
C813 C798 1.437 . S
C813 C814 1.317 . S
C814 H785 0.930 . S
C814 C790 1.431 . S
C814 C813 1.317 . S
C815 Gd756 2.828 . S
C815 O800 1.258 . S
C815 O805 1.252 . S
C815 C816 1.497 . S
C816 C815 1.497 . S
C816 C817 1.395 . S
C816 C818 1.380 . S
C817 C816 1.395 . S
C817 C820 1.398 . S
C817 H832 0.930 . S
C818 C816 1.380 . S
C818 C819 1.391 . S
C818 H833 0.930 . S
C819 C818 1.391 . S
C819 C821 1.387 . S
C820 C817 1.398 . S
C820 C821 1.380 . S
C820 H834 0.930 . S
C821 C819 1.387 . S
C821 C820 1.380 . S
C821 H835 0.930 . S
C822 O802 1.254 . S
C822 O803 1.268 . S
C823 O807 1.284 . S
C823 O810 1.250 . S
C824 Gd757 2.828 . S
C824 O806 1.258 . S
C824 O811 1.252 . S
C824 C825 1.497 . S
C825 C824 1.497 . S
C825 C826 1.395 1_565 S
C825 C827 1.380 1_565 S
C826 C825 1.395 1_545 S
C826 C829 1.398 . S
C826 H836 0.930 . S
C827 C825 1.380 1_545 S
C827 C828 1.391 . S
C827 H837 0.937 . S
C828 C827 1.391 . S
C828 C830 1.387 . S
C829 C826 1.398 . S
C829 C830 1.380 . S
C829 H838 0.930 . S
C830 C828 1.387 . S
C830 C829 1.380 . S
C830 H839 0.930 . S
C831 O808 1.254 . S
C831 O809 1.268 . S
H832 C817 0.930 . S
H833 C818 0.930 . S
H834 C820 0.930 . S
H835 C821 0.930 . S
H836 C826 0.930 . S
H837 C827 0.937 . S
H838 C829 0.930 . S
H839 C830 0.930 . S
Gd840 N871 2.661 . S
Gd840 N877 2.601 . S
Gd840 O884 2.545 . S
Gd840 O885 2.606 . S
Gd840 O887 2.429 . S
Gd840 O888 2.545 . S
Gd840 O889 2.412 . S
Gd840 O891 2.362 . S
Gd840 O892 2.324 . S
Gd840 C899 2.828 . S
Gd841 N850 2.661 . S
Gd841 N854 2.601 . S
Gd841 O885 2.362 . S
Gd841 O886 2.324 . S
Gd841 O890 2.545 . S
Gd841 O891 2.606 . S
Gd841 O893 2.429 . S
Gd841 O894 2.545 . S
Gd841 O895 2.412 . S
Gd841 C908 2.828 . S
C842 C845 1.417 . S
C842 C847 1.431 . S
C842 C848 1.412 . S
C843 C846 1.437 . S
C843 C847 1.317 . S
C843 H862 0.929 . S
C844 C845 1.426 . S
C844 C846 1.413 . S
C844 N854 1.359 . S
C845 C842 1.417 . S
C845 C844 1.426 . S
C845 N850 1.350 . S
C846 C843 1.437 . S
C846 C844 1.413 . S
C846 C856 1.391 . S
C847 C842 1.431 . S
C847 C843 1.317 . S
C847 H858 0.930 . S
C848 C842 1.412 . S
C848 C849 1.355 . S
C848 H860 0.930 . S
C849 C848 1.355 . S
C849 C851 1.402 . S
C849 H861 0.930 . S
N850 Gd841 2.661 . S
N850 C845 1.350 . S
N850 C851 1.307 . S
C851 C849 1.402 . S
C851 N850 1.307 . S
C851 H852 0.930 . S
H852 C851 0.930 . S
C853 N854 1.334 . S
C853 C855 1.394 . S
C853 H857 0.930 . S
N854 Gd841 2.601 . S
N854 C844 1.359 . S
N854 C853 1.334 . S
C855 C853 1.394 . S
C855 C856 1.359 . S
C855 H867 0.930 . S
C856 C846 1.391 . S
C856 C855 1.359 . S
C856 H868 0.929 . S
H857 C853 0.930 . S
H858 C847 0.930 . S
H859 C876 0.930 . S
H860 C848 0.930 . S
H861 C849 0.930 . S
H862 C843 0.929 . S
H863 C881 0.930 . S
H864 C872 0.930 . S
H865 C873 0.930 . S
H866 C897 0.929 . S
H867 C855 0.930 . S
H868 C856 0.929 . S
H869 C898 0.930 . S
H870 C879 0.930 . S
N871 Gd840 2.661 . S
N871 C875 1.350 . S
N871 C876 1.307 . S
C872 H864 0.930 . S
C872 C873 1.355 . S
C872 C874 1.412 . S
C873 H865 0.930 . S
C873 C872 1.355 . S
C873 C876 1.402 1_545 S
C874 C872 1.412 . S
C874 C875 1.417 1_545 S
C874 C898 1.431 . S
C875 N871 1.350 . S
C875 C874 1.417 1_565 S
C875 C878 1.426 . S
C876 H859 0.930 . S
C876 N871 1.307 . S
C876 C873 1.402 1_565 S
N877 Gd840 2.601 . S
N877 C878 1.359 . S
N877 C881 1.334 . S
C878 C875 1.426 . S
C878 N877 1.359 . S
C878 C882 1.413 . S
C879 H870 0.930 . S
C879 C880 1.359 . S
C879 C881 1.394 . S
C880 C879 1.359 . S
C880 C882 1.391 . S
C880 H883 0.929 1_565 S
C881 H863 0.930 . S
C881 N877 1.334 . S
C881 C879 1.394 . S
C882 C878 1.413 . S
C882 C880 1.391 . S
C882 C897 1.437 1_565 S
H883 C880 0.929 1_545 S
O884 Gd840 2.545 . S
O884 C899 1.258 . S
O885 Gd840 2.606 . S
O885 Gd841 2.362 . S
O885 C896 1.284 . S
O886 Gd841 2.324 . S
O886 C906 1.254 . S
O887 Gd840 2.429 . S
O887 C906 1.268 . S
O888 Gd840 2.545 . S
O888 C896 1.250 . S
O889 Gd840 2.412 . S
O889 C899 1.252 . S
O890 Gd841 2.545 . S
O890 C908 1.258 . S
O891 Gd840 2.362 . S
O891 Gd841 2.606 . S
O891 C907 1.284 . S
O892 Gd840 2.324 . S
O892 C915 1.254 . S
O893 Gd841 2.429 . S
O893 C915 1.268 . S
O894 Gd841 2.545 . S
O894 C907 1.250 . S
O895 Gd841 2.412 . S
O895 C908 1.252 . S
C896 O885 1.284 . S
C896 O888 1.250 . S
C897 H866 0.929 . S
C897 C882 1.437 1_545 S
C897 C898 1.317 . S
C898 H869 0.930 . S
C898 C874 1.431 . S
C898 C897 1.317 . S
C899 Gd840 2.828 . S
C899 O884 1.258 . S
C899 O889 1.252 . S
C899 C900 1.497 . S
C900 C899 1.497 . S
C900 C901 1.395 . S
C900 C902 1.380 . S
C901 C900 1.395 . S
C901 C904 1.398 . S
C901 H916 0.930 . S
C902 C900 1.380 . S
C902 C903 1.391 . S
C902 H917 0.930 . S
C903 C902 1.391 . S
C903 C905 1.387 . S
C904 C901 1.398 . S
C904 C905 1.380 . S
C904 H918 0.930 . S
C905 C903 1.387 . S
C905 C904 1.380 . S
C905 H919 0.930 . S
C906 O886 1.254 . S
C906 O887 1.268 . S
C907 O891 1.284 . S
C907 O894 1.250 . S
C908 Gd841 2.828 . S
C908 O890 1.258 . S
C908 O895 1.252 . S
C908 C909 1.497 . S
C909 C908 1.497 . S
C909 C910 1.395 . S
C909 C911 1.380 . S
C910 C909 1.395 . S
C910 C913 1.398 1_455 S
C910 H920 0.930 . S
C911 C909 1.380 . S
C911 C912 1.360 1_455 S
C911 H921 0.930 . S
C912 C911 1.360 1_655 S
C912 C914 1.402 . S
C913 C910 1.398 1_655 S
C913 C914 1.380 . S
C913 H922 0.930 . S
C914 C912 1.402 . S
C914 C913 1.380 . S
C914 H923 0.930 . S
C915 O892 1.254 . S
C915 O893 1.268 . S
H916 C901 0.930 . S
H917 C902 0.930 . S
H918 C904 0.930 . S
H919 C905 0.930 . S
H920 C910 0.930 . S
H921 C911 0.930 . S
H922 C913 0.930 . S
H923 C914 0.930 . S
Gd924 N955 2.661 . S
Gd924 N961 2.601 . S
Gd924 O968 2.545 . S
Gd924 O969 2.606 . S
Gd924 O971 2.429 . S
Gd924 O972 2.545 . S
Gd924 O973 2.412 . S
Gd924 O975 2.362 . S
Gd924 O976 2.324 . S
Gd924 C983 2.828 . S
Gd925 N934 2.661 . S
Gd925 N938 2.601 . S
Gd925 O969 2.362 . S
Gd925 O970 2.324 . S
Gd925 O974 2.545 . S
Gd925 O975 2.606 . S
Gd925 O977 2.429 . S
Gd925 O978 2.545 . S
Gd925 O979 2.412 . S
Gd925 C992 2.828 . S
C926 C929 1.417 . S
C926 C931 1.431 . S
C926 C932 1.412 . S
C927 C930 1.437 . S
C927 C931 1.317 . S
C927 H946 0.929 . S
C928 C929 1.426 . S
C928 C930 1.413 . S
C928 N938 1.359 . S
C929 C926 1.417 . S
C929 C928 1.426 . S
C929 N934 1.350 . S
C930 C927 1.437 . S
C930 C928 1.413 . S
C930 C940 1.391 . S
C931 C926 1.431 . S
C931 C927 1.317 . S
C931 H942 0.930 . S
C932 C926 1.412 . S
C932 C933 1.355 . S
C932 H944 0.930 . S
C933 C932 1.355 . S
C933 C935 1.402 . S
C933 H945 0.930 . S
N934 Gd925 2.661 . S
N934 C929 1.350 . S
N934 C935 1.307 . S
C935 C933 1.402 . S
C935 N934 1.307 . S
C935 H936 0.930 . S
H936 C935 0.930 . S
C937 N938 1.334 . S
C937 C939 1.394 . S
C937 H941 0.930 . S
N938 Gd925 2.601 . S
N938 C928 1.359 . S
N938 C937 1.334 . S
C939 C937 1.394 . S
C939 C940 1.359 . S
C939 H951 0.930 . S
C940 C930 1.391 . S
C940 C939 1.359 . S
C940 H952 0.929 . S
H941 C937 0.930 . S
H942 C931 0.930 . S
H943 C960 0.930 . S
H944 C932 0.930 . S
H945 C933 0.930 . S
H946 C927 0.929 . S
H947 C965 0.930 . S
H948 C956 0.930 1_655 S
H949 C957 0.930 . S
H950 C981 0.929 1_655 S
H951 C939 0.930 . S
H952 C940 0.929 . S
H953 C982 0.930 . S
H954 C963 0.930 . S
N955 Gd924 2.661 . S
N955 C959 1.350 . S
N955 C960 1.307 . S
C956 H948 0.930 1_455 S
C956 C957 1.355 . S
C956 C958 1.412 . S
C957 H949 0.930 . S
C957 C956 1.355 . S
C957 C960 1.402 . S
C958 C956 1.412 . S
C958 C959 1.417 . S
C958 C982 1.431 1_455 S
C959 N955 1.350 . S
C959 C958 1.417 . S
C959 C962 1.426 . S
C960 H943 0.930 . S
C960 N955 1.307 . S
C960 C957 1.402 . S
N961 Gd924 2.601 . S
N961 C962 1.359 . S
N961 C965 1.334 . S
C962 C959 1.426 . S
C962 N961 1.359 . S
C962 C966 1.413 . S
C963 H954 0.930 . S
C963 C964 1.359 . S
C963 C965 1.394 . S
C964 C963 1.359 . S
C964 C966 1.391 . S
C964 H967 0.929 . S
C965 H947 0.930 . S
C965 N961 1.334 . S
C965 C963 1.394 . S
C966 C962 1.413 . S
C966 C964 1.391 . S
C966 C981 1.437 . S
H967 C964 0.929 . S
O968 Gd924 2.545 . S
O968 C983 1.258 . S
O969 Gd924 2.606 . S
O969 Gd925 2.362 . S
O969 C980 1.284 . S
O970 Gd925 2.324 . S
O970 C990 1.254 . S
O971 Gd924 2.429 . S
O971 C990 1.268 . S
O972 Gd924 2.545 . S
O972 C980 1.250 . S
O973 Gd924 2.412 . S
O973 C983 1.252 . S
O974 Gd925 2.545 . S
O974 C992 1.258 . S
O975 Gd924 2.362 . S
O975 Gd925 2.606 . S
O975 C991 1.284 . S
O976 Gd924 2.324 . S
O976 C999 1.254 . S
O977 Gd925 2.429 . S
O977 C999 1.268 . S
O978 Gd925 2.545 . S
O978 C991 1.250 . S
O979 Gd925 2.412 . S
O979 C992 1.252 . S
C980 O969 1.284 . S
C980 O972 1.250 . S
C981 H950 0.929 1_455 S
C981 C966 1.437 . S
C981 C982 1.317 1_455 S
C982 H953 0.930 . S
C982 C958 1.431 1_655 S
C982 C981 1.317 1_655 S
C983 Gd924 2.828 . S
C983 O968 1.258 . S
C983 O973 1.252 . S
C983 C984 1.497 . S
C984 C983 1.497 . S
C984 C985 1.395 . S
C984 C986 1.380 . S
C985 C984 1.395 . S
C985 C988 1.398 . S
C985 H1000 0.930 . S
C986 C984 1.380 . S
C986 C987 1.391 . S
C986 H1001 0.930 . S
C987 C986 1.391 . S
C987 C989 1.387 . S
C988 C985 1.398 . S
C988 C989 1.380 . S
C988 H1002 0.930 . S
C989 C987 1.387 . S
C989 C988 1.380 . S
C989 H1003 0.930 . S
C990 O970 1.254 . S
C990 O971 1.268 . S
C991 O975 1.284 . S
C991 O978 1.250 . S
C992 Gd925 2.828 . S
C992 O974 1.258 . S
C992 O979 1.252 . S
C992 C993 1.497 . S
C993 C992 1.497 . S
C993 C994 1.395 . S
C993 C995 1.380 . S
C994 C993 1.395 . S
C994 C997 1.398 . S
C994 H1004 0.930 . S
C995 C993 1.380 . S
C995 C996 1.391 . S
C995 H1005 0.930 . S
C996 C995 1.391 . S
C996 C998 1.387 . S
C997 C994 1.398 . S
C997 C998 1.380 . S
C997 H1006 0.930 . S
C998 C996 1.387 . S
C998 C997 1.380 . S
C998 H1007 0.930 . S
C999 O976 1.254 . S
C999 O977 1.268 . S
H1000 C985 0.930 . S
H1001 C986 0.930 . S
H1002 C988 0.930 . S
H1003 C989 0.930 . S
H1004 C994 0.930 . S
H1005 C995 0.930 . S
H1006 C997 0.930 . S
H1007 C998 0.930 . S
Gd1008 N1039 2.661 . S
Gd1008 N1045 2.601 . S
Gd1008 O1052 2.545 . S
Gd1008 O1053 2.606 . S
Gd1008 O1055 2.429 . S
Gd1008 O1056 2.545 . S
Gd1008 O1057 2.412 . S
Gd1008 O1059 2.362 . S
Gd1008 O1060 2.324 . S
Gd1008 C1067 2.828 . S
Gd1009 N1018 2.661 . S
Gd1009 N1022 2.601 . S
Gd1009 O1053 2.362 . S
Gd1009 O1054 2.324 . S
Gd1009 O1058 2.545 . S
Gd1009 O1059 2.606 . S
Gd1009 O1061 2.429 . S
Gd1009 O1062 2.545 . S
Gd1009 O1063 2.412 . S
Gd1009 C1076 2.828 . S
C1010 C1013 1.417 . S
C1010 C1015 1.431 . S
C1010 C1016 1.412 . S
C1011 C1014 1.437 . S
C1011 C1015 1.317 . S
C1011 H1030 0.929 . S
C1012 C1013 1.426 . S
C1012 C1014 1.413 . S
C1012 N1022 1.359 . S
C1013 C1010 1.417 . S
C1013 C1012 1.426 . S
C1013 N1018 1.350 . S
C1014 C1011 1.437 . S
C1014 C1012 1.413 . S
C1014 C1024 1.391 . S
C1015 C1010 1.431 . S
C1015 C1011 1.317 . S
C1015 H1026 0.930 . S
C1016 C1010 1.412 . S
C1016 C1017 1.355 . S
C1016 H1028 0.930 . S
C1017 C1016 1.355 . S
C1017 C1019 1.402 . S
C1017 H1029 0.930 . S
N1018 Gd1009 2.661 . S
N1018 C1013 1.350 . S
N1018 C1019 1.307 . S
C1019 C1017 1.402 . S
C1019 N1018 1.307 . S
C1019 H1020 0.930 . S
H1020 C1019 0.930 . S
C1021 N1022 1.334 . S
C1021 C1023 1.394 . S
C1021 H1025 0.930 . S
N1022 Gd1009 2.601 . S
N1022 C1012 1.359 . S
N1022 C1021 1.334 . S
C1023 C1021 1.394 . S
C1023 C1024 1.359 . S
C1023 H1035 0.930 . S
C1024 C1014 1.391 . S
C1024 C1023 1.359 . S
C1024 H1036 0.929 . S
H1025 C1021 0.930 . S
H1026 C1015 0.930 . S
H1027 C1044 0.930 . S
H1028 C1016 0.930 . S
H1029 C1017 0.930 . S
H1030 C1011 0.929 . S
H1031 C1049 0.930 . S
H1032 C1040 0.930 . S
H1033 C1041 0.930 . S
H1034 C1065 0.929 . S
H1035 C1023 0.930 . S
H1036 C1024 0.929 . S
H1037 C1066 0.930 . S
H1038 C1047 0.930 . S
N1039 Gd1008 2.661 . S
N1039 C1043 1.350 . S
N1039 C1044 1.307 . S
C1040 H1032 0.930 . S
C1040 C1041 1.355 . S
C1040 C1042 1.412 . S
C1041 H1033 0.930 . S
C1041 C1040 1.355 . S
C1041 C1044 1.402 . S
C1042 C1040 1.412 . S
C1042 C1043 1.417 . S
C1042 C1066 1.431 . S
C1043 N1039 1.350 . S
C1043 C1042 1.417 . S
C1043 C1046 1.426 . S
C1044 H1027 0.930 . S
C1044 N1039 1.307 . S
C1044 C1041 1.402 . S
N1045 Gd1008 2.601 . S
N1045 C1046 1.359 . S
N1045 C1049 1.334 . S
C1046 C1043 1.426 . S
C1046 N1045 1.359 . S
C1046 C1050 1.413 . S
C1047 H1038 0.930 . S
C1047 C1048 1.359 . S
C1047 C1049 1.394 . S
C1048 C1047 1.359 . S
C1048 C1050 1.391 . S
C1048 H1051 0.929 . S
C1049 H1031 0.930 . S
C1049 N1045 1.334 . S
C1049 C1047 1.394 . S
C1050 C1046 1.413 . S
C1050 C1048 1.391 . S
C1050 C1065 1.437 . S
H1051 C1048 0.929 . S
O1052 Gd1008 2.545 . S
O1052 C1067 1.258 . S
O1053 Gd1008 2.606 . S
O1053 Gd1009 2.362 . S
O1053 C1064 1.284 . S
O1054 Gd1009 2.324 . S
O1054 C1074 1.254 . S
O1055 Gd1008 2.429 . S
O1055 C1074 1.268 . S
O1056 Gd1008 2.545 . S
O1056 C1064 1.250 . S
O1057 Gd1008 2.412 . S
O1057 C1067 1.252 . S
O1058 Gd1009 2.545 . S
O1058 C1076 1.258 . S
O1059 Gd1008 2.362 . S
O1059 Gd1009 2.606 . S
O1059 C1075 1.284 . S
O1060 Gd1008 2.324 . S
O1060 C1083 1.254 . S
O1061 Gd1009 2.429 . S
O1061 C1083 1.268 . S
O1062 Gd1009 2.545 . S
O1062 C1075 1.250 . S
O1063 Gd1009 2.412 . S
O1063 C1076 1.252 . S
C1064 O1053 1.284 . S
C1064 O1056 1.250 . S
C1065 H1034 0.929 . S
C1065 C1050 1.437 . S
C1065 C1066 1.317 . S
C1066 H1037 0.930 . S
C1066 C1042 1.431 . S
C1066 C1065 1.317 . S
C1067 Gd1008 2.828 . S
C1067 O1052 1.258 . S
C1067 O1057 1.252 . S
C1067 C1068 1.497 . S
C1068 C1067 1.497 . S
C1068 C1069 1.395 . S
C1068 C1070 1.380 . S
C1069 C1068 1.395 . S
C1069 C1072 1.398 . S
C1069 H1084 0.930 . S
C1070 C1068 1.380 . S
C1070 C1071 1.391 . S
C1070 H1085 0.930 . S
C1071 C1070 1.391 . S
C1071 C1073 1.387 . S
C1072 C1069 1.398 . S
C1072 C1073 1.380 . S
C1072 H1086 0.930 . S
C1073 C1071 1.387 . S
C1073 C1072 1.380 . S
C1073 H1087 0.930 . S
C1074 O1054 1.254 . S
C1074 O1055 1.268 . S
C1075 O1059 1.284 . S
C1075 O1062 1.250 . S
C1076 Gd1009 2.828 . S
C1076 O1058 1.258 . S
C1076 O1063 1.252 . S
C1076 C1077 1.497 . S
C1077 C1076 1.497 . S
C1077 C1078 1.395 1_655 S
C1077 C1079 1.380 1_655 S
C1078 C1077 1.395 1_455 S
C1078 C1081 1.398 . S
C1078 H1088 0.930 . S
C1079 C1077 1.380 1_455 S
C1079 C1080 1.391 . S
C1079 H1089 0.937 . S
C1080 C1079 1.391 . S
C1080 C1082 1.387 . S
C1081 C1078 1.398 . S
C1081 C1082 1.380 . S
C1081 H1090 0.930 . S
C1082 C1080 1.387 . S
C1082 C1081 1.380 . S
C1082 H1091 0.930 . S
C1083 O1060 1.254 . S
C1083 O1061 1.268 . S
H1084 C1069 0.930 . S
H1085 C1070 0.930 . S
H1086 C1072 0.930 . S
H1087 C1073 0.930 . S
H1088 C1078 0.930 . S
H1089 C1079 0.937 . S
H1090 C1081 0.930 . S
H1091 C1082 0.930 . S
Gd1092 N1123 2.661 . S
Gd1092 N1129 2.601 . S
Gd1092 O1136 2.545 . S
Gd1092 O1137 2.606 . S
Gd1092 O1139 2.429 . S
Gd1092 O1140 2.545 . S
Gd1092 O1141 2.412 . S
Gd1092 O1143 2.362 . S
Gd1092 O1144 2.324 . S
Gd1092 C1151 2.828 . S
Gd1093 N1102 2.661 . S
Gd1093 N1106 2.601 . S
Gd1093 O1137 2.362 . S
Gd1093 O1138 2.324 . S
Gd1093 O1142 2.545 . S
Gd1093 O1143 2.606 . S
Gd1093 O1145 2.429 . S
Gd1093 O1146 2.545 . S
Gd1093 O1147 2.412 . S
Gd1093 C1160 2.828 . S
C1094 C1097 1.417 . S
C1094 C1099 1.431 . S
C1094 C1100 1.412 . S
C1095 C1098 1.437 . S
C1095 C1099 1.317 . S
C1095 H1114 0.929 . S
C1096 C1097 1.426 . S
C1096 C1098 1.413 . S
C1096 N1106 1.359 . S
C1097 C1094 1.417 . S
C1097 C1096 1.426 . S
C1097 N1102 1.350 . S
C1098 C1095 1.437 . S
C1098 C1096 1.413 . S
C1098 C1108 1.391 . S
C1099 C1094 1.431 . S
C1099 C1095 1.317 . S
C1099 H1110 0.930 . S
C1100 C1094 1.412 . S
C1100 C1101 1.355 . S
C1100 H1112 0.930 . S
C1101 C1100 1.355 . S
C1101 C1103 1.402 . S
C1101 H1113 0.930 . S
N1102 Gd1093 2.661 . S
N1102 C1097 1.350 . S
N1102 C1103 1.307 . S
C1103 C1101 1.402 . S
C1103 N1102 1.307 . S
C1103 H1104 0.930 . S
H1104 C1103 0.930 . S
C1105 N1106 1.334 . S
C1105 C1107 1.394 . S
C1105 H1109 0.930 . S
N1106 Gd1093 2.601 . S
N1106 C1096 1.359 . S
N1106 C1105 1.334 . S
C1107 C1105 1.394 . S
C1107 C1108 1.359 . S
C1107 H1119 0.930 . S
C1108 C1098 1.391 . S
C1108 C1107 1.359 . S
C1108 H1120 0.929 . S
H1109 C1105 0.930 . S
H1110 C1099 0.930 . S
H1111 C1128 0.930 . S
H1112 C1100 0.930 . S
H1113 C1101 0.930 . S
H1114 C1095 0.929 . S
H1115 C1133 0.930 . S
H1116 C1124 0.930 1_565 S
H1117 C1125 0.930 . S
H1118 C1149 0.929 1_565 S
H1119 C1107 0.930 . S
H1120 C1108 0.929 . S
H1121 C1150 0.930 . S
H1122 C1131 0.930 . S
N1123 Gd1092 2.661 . S
N1123 C1127 1.350 . S
N1123 C1128 1.307 . S
C1124 H1116 0.930 1_545 S
C1124 C1125 1.355 . S
C1124 C1126 1.412 . S
C1125 H1117 0.930 . S
C1125 C1124 1.355 . S
C1125 C1128 1.402 . S
C1126 C1124 1.412 . S
C1126 C1127 1.417 . S
C1126 C1150 1.431 1_545 S
C1127 N1123 1.350 . S
C1127 C1126 1.417 . S
C1127 C1130 1.426 . S
C1128 H1111 0.930 . S
C1128 N1123 1.307 . S
C1128 C1125 1.402 . S
N1129 Gd1092 2.601 . S
N1129 C1130 1.359 . S
N1129 C1133 1.334 . S
C1130 C1127 1.426 . S
C1130 N1129 1.359 . S
C1130 C1134 1.413 . S
C1131 H1122 0.930 . S
C1131 C1132 1.359 . S
C1131 C1133 1.394 . S
C1132 C1131 1.359 . S
C1132 C1134 1.391 . S
C1132 H1135 0.929 . S
C1133 H1115 0.930 . S
C1133 N1129 1.334 . S
C1133 C1131 1.394 . S
C1134 C1130 1.413 . S
C1134 C1132 1.391 . S
C1134 C1149 1.437 . S
H1135 C1132 0.929 . S
O1136 Gd1092 2.545 . S
O1136 C1151 1.258 . S
O1137 Gd1092 2.606 . S
O1137 Gd1093 2.362 . S
O1137 C1148 1.284 . S
O1138 Gd1093 2.324 . S
O1138 C1158 1.254 . S
O1139 Gd1092 2.429 . S
O1139 C1158 1.268 . S
O1140 Gd1092 2.545 . S
O1140 C1148 1.250 . S
O1141 Gd1092 2.412 . S
O1141 C1151 1.252 . S
O1142 Gd1093 2.545 . S
O1142 C1160 1.258 . S
O1143 Gd1092 2.362 . S
O1143 Gd1093 2.606 . S
O1143 C1159 1.284 . S
O1144 Gd1092 2.324 . S
O1144 C1167 1.254 . S
O1145 Gd1093 2.429 . S
O1145 C1167 1.268 . S
O1146 Gd1093 2.545 . S
O1146 C1159 1.250 . S
O1147 Gd1093 2.412 . S
O1147 C1160 1.252 . S
C1148 O1137 1.284 . S
C1148 O1140 1.250 . S
C1149 H1118 0.929 1_545 S
C1149 C1134 1.437 . S
C1149 C1150 1.317 1_545 S
C1150 H1121 0.930 . S
C1150 C1126 1.431 1_565 S
C1150 C1149 1.317 1_565 S
C1151 Gd1092 2.828 . S
C1151 O1136 1.258 . S
C1151 O1141 1.252 . S
C1151 C1152 1.497 . S
C1152 C1151 1.497 . S
C1152 C1153 1.395 . S
C1152 C1154 1.380 . S
C1153 C1152 1.395 . S
C1153 C1156 1.398 . S
C1153 H1168 0.930 . S
C1154 C1152 1.380 . S
C1154 C1155 1.391 . S
C1154 H1169 0.930 . S
C1155 C1154 1.391 . S
C1155 C1157 1.387 . S
C1156 C1153 1.398 . S
C1156 C1157 1.380 . S
C1156 H1170 0.930 . S
C1157 C1155 1.387 . S
C1157 C1156 1.380 . S
C1157 H1171 0.930 . S
C1158 O1138 1.254 . S
C1158 O1139 1.268 . S
C1159 O1143 1.284 . S
C1159 O1146 1.250 . S
C1160 Gd1093 2.828 . S
C1160 O1142 1.258 . S
C1160 O1147 1.252 . S
C1160 C1161 1.497 . S
C1161 C1160 1.497 . S
C1161 C1162 1.395 . S
C1161 C1163 1.380 . S
C1162 C1161 1.395 . S
C1162 C1165 1.398 . S
C1162 H1172 0.930 . S
C1163 C1161 1.380 . S
C1163 C1164 1.391 . S
C1163 H1173 0.930 . S
C1164 C1163 1.391 . S
C1164 C1166 1.387 . S
C1165 C1162 1.398 . S
C1165 C1166 1.380 . S
C1165 H1174 0.930 . S
C1166 C1164 1.387 . S
C1166 C1165 1.380 . S
C1166 H1175 0.930 . S
C1167 O1144 1.254 . S
C1167 O1145 1.268 . S
H1168 C1153 0.930 . S
H1169 C1154 0.930 . S
H1170 C1156 0.930 . S
H1171 C1157 0.930 . S
H1172 C1162 0.930 . S
H1173 C1163 0.930 . S
H1174 C1165 0.930 . S
H1175 C1166 0.930 . S
Gd1176 N1207 2.661 . S
Gd1176 N1213 2.601 . S
Gd1176 O1220 2.545 . S
Gd1176 O1221 2.606 . S
Gd1176 O1223 2.429 . S
Gd1176 O1224 2.545 . S
Gd1176 O1225 2.412 . S
Gd1176 O1227 2.362 . S
Gd1176 O1228 2.324 . S
Gd1176 C1235 2.828 . S
Gd1177 N1186 2.661 . S
Gd1177 N1190 2.601 . S
Gd1177 O1221 2.362 . S
Gd1177 O1222 2.324 . S
Gd1177 O1226 2.545 . S
Gd1177 O1227 2.606 . S
Gd1177 O1229 2.429 . S
Gd1177 O1230 2.545 . S
Gd1177 O1231 2.412 . S
Gd1177 C1244 2.828 . S
C1178 C1181 1.417 . S
C1178 C1183 1.431 . S
C1178 C1184 1.412 . S
C1179 C1182 1.437 . S
C1179 C1183 1.317 . S
C1179 H1198 0.929 . S
C1180 C1181 1.426 . S
C1180 C1182 1.413 . S
C1180 N1190 1.359 . S
C1181 C1178 1.417 . S
C1181 C1180 1.426 . S
C1181 N1186 1.350 . S
C1182 C1179 1.437 . S
C1182 C1180 1.413 . S
C1182 C1192 1.391 . S
C1183 C1178 1.431 . S
C1183 C1179 1.317 . S
C1183 H1194 0.930 . S
C1184 C1178 1.412 . S
C1184 C1185 1.355 . S
C1184 H1196 0.930 . S
C1185 C1184 1.355 . S
C1185 C1187 1.402 . S
C1185 H1197 0.930 . S
N1186 Gd1177 2.661 . S
N1186 C1181 1.350 . S
N1186 C1187 1.307 . S
C1187 C1185 1.402 . S
C1187 N1186 1.307 . S
C1187 H1188 0.930 . S
H1188 C1187 0.930 . S
C1189 N1190 1.334 . S
C1189 C1191 1.394 . S
C1189 H1193 0.930 . S
N1190 Gd1177 2.601 . S
N1190 C1180 1.359 . S
N1190 C1189 1.334 . S
C1191 C1189 1.394 . S
C1191 C1192 1.359 . S
C1191 H1203 0.930 . S
C1192 C1182 1.391 . S
C1192 C1191 1.359 . S
C1192 H1204 0.929 . S
H1193 C1189 0.930 . S
H1194 C1183 0.930 . S
H1195 C1212 0.930 . S
H1196 C1184 0.930 . S
H1197 C1185 0.930 . S
H1198 C1179 0.929 . S
H1199 C1217 0.930 . S
H1200 C1208 0.930 . S
H1201 C1209 0.930 . S
H1202 C1233 0.929 . S
H1203 C1191 0.930 . S
H1204 C1192 0.929 . S
H1205 C1234 0.930 . S
H1206 C1215 0.930 . S
N1207 Gd1176 2.661 . S
N1207 C1211 1.350 . S
N1207 C1212 1.307 . S
C1208 H1200 0.930 . S
C1208 C1209 1.355 . S
C1208 C1210 1.412 . S
C1209 H1201 0.930 . S
C1209 C1208 1.355 . S
C1209 C1212 1.402 1_455 S
C1210 C1208 1.412 . S
C1210 C1211 1.417 1_455 S
C1210 C1234 1.431 . S
C1211 N1207 1.350 . S
C1211 C1210 1.417 1_655 S
C1211 C1214 1.426 . S
C1212 H1195 0.930 . S
C1212 N1207 1.307 . S
C1212 C1209 1.402 1_655 S
N1213 Gd1176 2.601 . S
N1213 C1214 1.359 . S
N1213 C1217 1.334 . S
C1214 C1211 1.426 . S
C1214 N1213 1.359 . S
C1214 C1218 1.413 . S
C1215 H1206 0.930 . S
C1215 C1216 1.359 . S
C1215 C1217 1.394 . S
C1216 C1215 1.359 . S
C1216 C1218 1.391 . S
C1216 H1219 0.929 1_655 S
C1217 H1199 0.930 . S
C1217 N1213 1.334 . S
C1217 C1215 1.394 . S
C1218 C1214 1.413 . S
C1218 C1216 1.391 . S
C1218 C1233 1.437 1_655 S
H1219 C1216 0.929 1_455 S
O1220 Gd1176 2.545 . S
O1220 C1235 1.258 . S
O1221 Gd1176 2.606 . S
O1221 Gd1177 2.362 . S
O1221 C1232 1.284 . S
O1222 Gd1177 2.324 . S
O1222 C1242 1.254 . S
O1223 Gd1176 2.429 . S
O1223 C1242 1.268 . S
O1224 Gd1176 2.545 . S
O1224 C1232 1.250 . S
O1225 Gd1176 2.412 . S
O1225 C1235 1.252 . S
O1226 Gd1177 2.545 . S
O1226 C1244 1.258 . S
O1227 Gd1176 2.362 . S
O1227 Gd1177 2.606 . S
O1227 C1243 1.284 . S
O1228 Gd1176 2.324 . S
O1228 C1251 1.254 . S
O1229 Gd1177 2.429 . S
O1229 C1251 1.268 . S
O1230 Gd1177 2.545 . S
O1230 C1243 1.250 . S
O1231 Gd1177 2.412 . S
O1231 C1244 1.252 . S
C1232 O1221 1.284 . S
C1232 O1224 1.250 . S
C1233 H1202 0.929 . S
C1233 C1218 1.437 1_455 S
C1233 C1234 1.317 . S
C1234 H1205 0.930 . S
C1234 C1210 1.431 . S
C1234 C1233 1.317 . S
C1235 Gd1176 2.828 . S
C1235 O1220 1.258 . S
C1235 O1225 1.252 . S
C1235 C1236 1.497 . S
C1236 C1235 1.497 . S
C1236 C1237 1.395 . S
C1236 C1238 1.380 . S
C1237 C1236 1.395 . S
C1237 C1240 1.398 . S
C1237 H1252 0.930 . S
C1238 C1236 1.380 . S
C1238 C1239 1.391 . S
C1238 H1253 0.930 . S
C1239 C1238 1.391 . S
C1239 C1241 1.387 . S
C1240 C1237 1.398 . S
C1240 C1241 1.380 . S
C1240 H1254 0.930 . S
C1241 C1239 1.387 . S
C1241 C1240 1.380 . S
C1241 H1255 0.930 . S
C1242 O1222 1.254 . S
C1242 O1223 1.268 . S
C1243 O1227 1.284 . S
C1243 O1230 1.250 . S
C1244 Gd1177 2.828 . S
C1244 O1226 1.258 . S
C1244 O1231 1.252 . S
C1244 C1245 1.497 . S
C1245 C1244 1.497 . S
C1245 C1246 1.395 . S
C1245 C1247 1.380 . S
C1246 C1245 1.395 . S
C1246 C1249 1.398 1_545 S
C1246 H1256 0.930 . S
C1247 C1245 1.380 . S
C1247 C1248 1.360 1_545 S
C1247 H1257 0.930 . S
C1248 C1247 1.360 1_565 S
C1248 C1250 1.402 . S
C1249 C1246 1.398 1_565 S
C1249 C1250 1.380 . S
C1249 H1258 0.930 . S
C1250 C1248 1.402 . S
C1250 C1249 1.380 . S
C1250 H1259 0.930 . S
C1251 O1228 1.254 . S
C1251 O1229 1.268 . S
H1252 C1237 0.930 . S
H1253 C1238 0.930 . S
H1254 C1240 0.930 . S
H1255 C1241 0.930 . S
H1256 C1246 0.930 . S
H1257 C1247 0.930 . S
H1258 C1249 0.930 . S
H1259 C1250 0.930 . S
Gd1260 N1291 2.661 . S
Gd1260 N1297 2.601 . S
Gd1260 O1304 2.545 . S
Gd1260 O1305 2.606 . S
Gd1260 O1307 2.429 . S
Gd1260 O1308 2.545 . S
Gd1260 O1309 2.412 . S
Gd1260 O1311 2.362 . S
Gd1260 O1312 2.324 . S
Gd1260 C1319 2.828 . S
Gd1261 N1270 2.661 . S
Gd1261 N1274 2.601 . S
Gd1261 O1305 2.362 . S
Gd1261 O1306 2.324 . S
Gd1261 O1310 2.545 . S
Gd1261 O1311 2.606 . S
Gd1261 O1313 2.429 . S
Gd1261 O1314 2.545 . S
Gd1261 O1315 2.412 . S
Gd1261 C1328 2.828 . S
C1262 C1265 1.417 . S
C1262 C1267 1.431 . S
C1262 C1268 1.412 . S
C1263 C1266 1.437 . S
C1263 C1267 1.317 . S
C1263 H1282 0.929 . S
C1264 C1265 1.426 . S
C1264 C1266 1.413 . S
C1264 N1274 1.359 . S
C1265 C1262 1.417 . S
C1265 C1264 1.426 . S
C1265 N1270 1.350 . S
C1266 C1263 1.437 . S
C1266 C1264 1.413 . S
C1266 C1276 1.391 . S
C1267 C1262 1.431 . S
C1267 C1263 1.317 . S
C1267 H1278 0.930 . S
C1268 C1262 1.412 . S
C1268 C1269 1.355 . S
C1268 H1280 0.930 . S
C1269 C1268 1.355 . S
C1269 C1271 1.402 . S
C1269 H1281 0.930 . S
N1270 Gd1261 2.661 . S
N1270 C1265 1.350 . S
N1270 C1271 1.307 . S
C1271 C1269 1.402 . S
C1271 N1270 1.307 . S
C1271 H1272 0.930 . S
H1272 C1271 0.930 . S
C1273 N1274 1.334 . S
C1273 C1275 1.394 . S
C1273 H1277 0.930 . S
N1274 Gd1261 2.601 . S
N1274 C1264 1.359 . S
N1274 C1273 1.334 . S
C1275 C1273 1.394 . S
C1275 C1276 1.359 . S
C1275 H1287 0.930 . S
C1276 C1266 1.391 . S
C1276 C1275 1.359 . S
C1276 H1288 0.929 . S
H1277 C1273 0.930 . S
H1278 C1267 0.930 . S
H1279 C1296 0.930 . S
H1280 C1268 0.930 . S
H1281 C1269 0.930 . S
H1282 C1263 0.929 . S
H1283 C1301 0.930 . S
H1284 C1292 0.930 . S
H1285 C1293 0.930 . S
H1286 C1317 0.929 . S
H1287 C1275 0.930 . S
H1288 C1276 0.929 . S
H1289 C1318 0.930 . S
H1290 C1299 0.930 . S
N1291 Gd1260 2.661 . S
N1291 C1295 1.350 . S
N1291 C1296 1.307 . S
C1292 H1284 0.930 . S
C1292 C1293 1.355 . S
C1292 C1294 1.412 . S
C1293 H1285 0.930 . S
C1293 C1292 1.355 . S
C1293 C1296 1.402 . S
C1294 C1292 1.412 . S
C1294 C1295 1.417 . S
C1294 C1318 1.431 . S
C1295 N1291 1.350 . S
C1295 C1294 1.417 . S
C1295 C1298 1.426 . S
C1296 H1279 0.930 . S
C1296 N1291 1.307 . S
C1296 C1293 1.402 . S
N1297 Gd1260 2.601 . S
N1297 C1298 1.359 . S
N1297 C1301 1.334 . S
C1298 C1295 1.426 . S
C1298 N1297 1.359 . S
C1298 C1302 1.413 . S
C1299 H1290 0.930 . S
C1299 C1300 1.359 . S
C1299 C1301 1.394 . S
C1300 C1299 1.359 . S
C1300 C1302 1.391 . S
C1300 H1303 0.929 . S
C1301 H1283 0.930 . S
C1301 N1297 1.334 . S
C1301 C1299 1.394 . S
C1302 C1298 1.413 . S
C1302 C1300 1.391 . S
C1302 C1317 1.437 . S
H1303 C1300 0.929 . S
O1304 Gd1260 2.545 . S
O1304 C1319 1.258 . S
O1305 Gd1260 2.606 . S
O1305 Gd1261 2.362 . S
O1305 C1316 1.284 . S
O1306 Gd1261 2.324 . S
O1306 C1326 1.254 . S
O1307 Gd1260 2.429 . S
O1307 C1326 1.268 . S
O1308 Gd1260 2.545 . S
O1308 C1316 1.250 . S
O1309 Gd1260 2.412 . S
O1309 C1319 1.252 . S
O1310 Gd1261 2.545 . S
O1310 C1328 1.258 . S
O1311 Gd1260 2.362 . S
O1311 Gd1261 2.606 . S
O1311 C1327 1.284 . S
O1312 Gd1260 2.324 . S
O1312 C1335 1.254 . S
O1313 Gd1261 2.429 . S
O1313 C1335 1.268 . S
O1314 Gd1261 2.545 . S
O1314 C1327 1.250 . S
O1315 Gd1261 2.412 . S
O1315 C1328 1.252 . S
C1316 O1305 1.284 . S
C1316 O1308 1.250 . S
C1317 H1286 0.929 . S
C1317 C1302 1.437 . S
C1317 C1318 1.317 . S
C1318 H1289 0.930 . S
C1318 C1294 1.431 . S
C1318 C1317 1.317 . S
C1319 Gd1260 2.828 . S
C1319 O1304 1.258 . S
C1319 O1309 1.252 . S
C1319 C1320 1.497 . S
C1320 C1319 1.497 . S
C1320 C1321 1.395 1_545 S
C1320 C1322 1.380 1_545 S
C1321 C1320 1.395 1_565 S
C1321 C1324 1.398 . S
C1321 H1336 0.930 . S
C1322 C1320 1.380 1_565 S
C1322 C1323 1.391 . S
C1322 H1337 0.930 1_565 S
C1323 C1322 1.391 . S
C1323 C1325 1.387 . S
C1324 C1321 1.398 . S
C1324 C1325 1.380 . S
C1324 H1338 0.930 . S
C1325 C1323 1.387 . S
C1325 C1324 1.380 . S
C1325 H1339 0.930 . S
C1326 O1306 1.254 . S
C1326 O1307 1.268 . S
C1327 O1311 1.284 . S
C1327 O1314 1.250 . S
C1328 Gd1261 2.828 . S
C1328 O1310 1.258 . S
C1328 O1315 1.252 . S
C1328 C1329 1.497 . S
C1329 C1328 1.497 . S
C1329 C1330 1.395 . S
C1329 C1331 1.380 . S
C1330 C1329 1.395 . S
C1330 C1333 1.398 . S
C1330 H1340 0.930 . S
C1331 C1329 1.380 . S
C1331 C1332 1.391 . S
C1331 H1341 0.930 . S
C1332 C1331 1.391 . S
C1332 C1334 1.387 . S
C1333 C1330 1.398 . S
C1333 C1334 1.380 . S
C1333 H1342 0.930 . S
C1334 C1332 1.387 . S
C1334 C1333 1.380 . S
C1334 H1343 0.930 . S
C1335 O1312 1.254 . S
C1335 O1313 1.268 . S
H1336 C1321 0.930 . S
H1337 C1322 0.930 1_545 S
H1338 C1324 0.930 . S
H1339 C1325 0.930 . S
H1340 C1330 0.930 . S
H1341 C1331 0.930 . S
H1342 C1333 0.930 . S
H1343 C1334 0.930 . S
Gd1344 N1375 2.661 . S
Gd1344 N1381 2.601 . S
Gd1344 O1388 2.545 . S
Gd1344 O1389 2.606 . S
Gd1344 O1391 2.429 . S
Gd1344 O1392 2.545 . S
Gd1344 O1393 2.412 . S
Gd1344 O1395 2.362 . S
Gd1344 O1396 2.324 . S
Gd1344 C1403 2.820 1_655 S
Gd1345 N1354 2.661 . S
Gd1345 N1358 2.601 . S
Gd1345 O1389 2.362 . S
Gd1345 O1390 2.324 . S
Gd1345 O1394 2.545 . S
Gd1345 O1395 2.606 . S
Gd1345 O1397 2.429 . S
Gd1345 O1398 2.545 . S
Gd1345 O1399 2.412 . S
Gd1345 C1412 2.828 . S
C1346 C1349 1.417 . S
C1346 C1351 1.431 1_545 S
C1346 C1352 1.412 . S
C1347 C1350 1.437 . S
C1347 C1351 1.317 1_545 S
C1347 H1366 0.929 1_545 S
C1348 C1349 1.426 . S
C1348 C1350 1.413 . S
C1348 N1358 1.359 . S
C1349 C1346 1.417 . S
C1349 C1348 1.426 . S
C1349 N1354 1.350 . S
C1350 C1347 1.437 . S
C1350 C1348 1.413 . S
C1350 C1360 1.391 . S
C1351 C1346 1.431 1_565 S
C1351 C1347 1.317 1_565 S
C1351 H1362 0.930 . S
C1352 C1346 1.412 . S
C1352 C1353 1.355 . S
C1352 H1364 0.930 1_545 S
C1353 C1352 1.355 . S
C1353 C1355 1.402 . S
C1353 H1365 0.930 . S
N1354 Gd1345 2.661 . S
N1354 C1349 1.350 . S
N1354 C1355 1.307 . S
C1355 C1353 1.402 . S
C1355 N1354 1.307 . S
C1355 H1356 0.930 . S
H1356 C1355 0.930 . S
C1357 N1358 1.334 . S
C1357 C1359 1.394 . S
C1357 H1361 0.930 . S
N1358 Gd1345 2.601 . S
N1358 C1348 1.359 . S
N1358 C1357 1.334 . S
C1359 C1357 1.394 . S
C1359 C1360 1.359 . S
C1359 H1371 0.930 . S
C1360 C1350 1.391 . S
C1360 C1359 1.359 . S
C1360 H1372 0.929 . S
H1361 C1357 0.930 . S
H1362 C1351 0.930 . S
H1363 C1380 0.930 . S
H1364 C1352 0.930 1_565 S
H1365 C1353 0.930 . S
H1366 C1347 0.929 1_565 S
H1367 C1385 0.930 . S
H1368 C1376 0.930 . S
H1369 C1377 0.930 . S
H1370 C1401 0.929 . S
H1371 C1359 0.930 . S
H1372 C1360 0.929 . S
H1373 C1402 0.930 . S
H1374 C1383 0.930 . S
N1375 Gd1344 2.661 . S
N1375 C1379 1.350 . S
N1375 C1380 1.307 . S
C1376 H1368 0.930 . S
C1376 C1377 1.355 1_455 S
C1376 C1378 1.412 . S
C1377 H1369 0.930 . S
C1377 C1376 1.355 1_655 S
C1377 C1380 1.402 . S
C1378 C1376 1.412 . S
C1378 C1379 1.417 1_455 S
C1378 C1402 1.431 . S
C1379 N1375 1.350 . S
C1379 C1378 1.417 1_655 S
C1379 C1382 1.426 . S
C1380 H1363 0.930 . S
C1380 N1375 1.307 . S
C1380 C1377 1.402 . S
N1381 Gd1344 2.601 . S
N1381 C1382 1.359 . S
N1381 C1385 1.334 . S
C1382 C1379 1.426 . S
C1382 N1381 1.359 . S
C1382 C1386 1.414 . S
C1383 H1374 0.930 . S
C1383 C1384 1.359 . S
C1383 C1385 1.394 . S
C1384 C1383 1.359 . S
C1384 C1386 1.390 . S
C1384 H1387 0.929 1_655 S
C1385 H1367 0.930 . S
C1385 N1381 1.334 . S
C1385 C1383 1.394 . S
C1386 C1382 1.414 . S
C1386 C1384 1.390 . S
C1386 C1401 1.437 1_655 S
H1387 C1384 0.929 1_455 S
O1388 Gd1344 2.545 . S
O1388 C1403 1.253 1_655 S
O1389 Gd1344 2.606 . S
O1389 Gd1345 2.362 . S
O1389 C1400 1.284 . S
O1390 Gd1345 2.324 . S
O1390 C1410 1.254 . S
O1391 Gd1344 2.429 . S
O1391 C1410 1.268 . S
O1392 Gd1344 2.545 . S
O1392 C1400 1.250 . S
O1393 Gd1344 2.412 . S
O1393 C1403 1.248 1_655 S
O1394 Gd1345 2.545 . S
O1394 C1412 1.258 . S
O1395 Gd1344 2.362 . S
O1395 Gd1345 2.606 . S
O1395 C1411 1.284 . S
O1396 Gd1344 2.324 . S
O1396 C1419 1.254 . S
O1397 Gd1345 2.429 . S
O1397 C1419 1.268 . S
O1398 Gd1345 2.545 . S
O1398 C1411 1.250 . S
O1399 Gd1345 2.412 . S
O1399 C1412 1.252 . S
C1400 O1389 1.284 . S
C1400 O1392 1.250 . S
C1401 H1370 0.929 . S
C1401 C1386 1.437 1_455 S
C1401 C1402 1.317 . S
C1402 H1373 0.930 . S
C1402 C1378 1.431 . S
C1402 C1401 1.317 . S
C1403 Gd1344 2.820 1_455 S
C1403 O1388 1.253 1_455 S
C1403 O1393 1.248 1_455 S
C1403 C1404 1.506 . S
C1404 C1403 1.506 . S
C1404 C1405 1.395 . S
C1404 C1406 1.380 . S
C1405 C1404 1.395 . S
C1405 C1408 1.398 . S
C1405 H1420 0.930 . S
C1406 C1404 1.380 . S
C1406 C1407 1.391 . S
C1406 H1421 0.930 . S
C1407 C1406 1.391 . S
C1407 C1409 1.387 . S
C1408 C1405 1.398 . S
C1408 C1409 1.380 . S
C1408 H1422 0.930 . S
C1409 C1407 1.387 . S
C1409 C1408 1.380 . S
C1409 H1423 0.930 . S
C1410 O1390 1.254 . S
C1410 O1391 1.268 . S
C1411 O1395 1.284 . S
C1411 O1398 1.250 . S
C1412 Gd1345 2.828 . S
C1412 O1394 1.258 . S
C1412 O1399 1.252 . S
C1412 C1413 1.497 . S
C1413 C1412 1.497 . S
C1413 C1414 1.395 . S
C1413 C1415 1.380 . S
C1414 C1413 1.395 . S
C1414 C1417 1.398 . S
C1414 H1424 0.930 . S
C1415 C1413 1.380 . S
C1415 C1416 1.391 . S
C1415 H1425 0.930 . S
C1416 C1415 1.391 . S
C1416 C1418 1.387 . S
C1417 C1414 1.398 . S
C1417 C1418 1.380 . S
C1417 H1426 0.930 . S
C1418 C1416 1.387 . S
C1418 C1417 1.380 . S
C1418 H1427 0.930 . S
C1419 O1396 1.254 . S
C1419 O1397 1.268 . S
H1420 C1405 0.930 . S
H1421 C1406 0.930 . S
H1422 C1408 0.930 . S
H1423 C1409 0.930 . S
H1424 C1414 0.930 . S
H1425 C1415 0.930 . S
H1426 C1417 0.930 . S
H1427 C1418 0.930 . S
Gd1428 N1459 2.661 . S
Gd1428 N1465 2.601 . S
Gd1428 O1472 2.545 . S
Gd1428 O1473 2.606 . S
Gd1428 O1475 2.429 . S
Gd1428 O1476 2.545 . S
Gd1428 O1477 2.412 . S
Gd1428 O1479 2.362 . S
Gd1428 O1480 2.324 . S
Gd1428 C1487 2.828 . S
Gd1429 N1438 2.661 . S
Gd1429 N1442 2.601 . S
Gd1429 O1473 2.362 . S
Gd1429 O1474 2.324 . S
Gd1429 O1478 2.545 . S
Gd1429 O1479 2.606 . S
Gd1429 O1481 2.429 . S
Gd1429 O1482 2.545 . S
Gd1429 O1483 2.412 . S
Gd1429 C1496 2.828 . S
C1430 C1433 1.417 1_455 S
C1430 C1435 1.431 . S
C1430 C1436 1.412 . S
C1431 C1434 1.437 1_455 S
C1431 C1435 1.317 . S
C1431 H1450 0.929 . S
C1432 C1433 1.426 . S
C1432 C1434 1.413 . S
C1432 N1442 1.359 . S
C1433 C1430 1.417 1_655 S
C1433 C1432 1.426 . S
C1433 N1438 1.350 . S
C1434 C1431 1.437 1_655 S
C1434 C1432 1.413 . S
C1434 C1444 1.391 . S
C1435 C1430 1.431 . S
C1435 C1431 1.317 . S
C1435 H1446 0.930 . S
C1436 C1430 1.412 . S
C1436 C1437 1.355 . S
C1436 H1448 0.930 . S
C1437 C1436 1.355 . S
C1437 C1439 1.402 1_455 S
C1437 H1449 0.930 . S
N1438 Gd1429 2.661 . S
N1438 C1433 1.350 . S
N1438 C1439 1.307 . S
C1439 C1437 1.402 1_655 S
C1439 N1438 1.307 . S
C1439 H1440 0.930 . S
H1440 C1439 0.930 . S
C1441 N1442 1.334 . S
C1441 C1443 1.394 . S
C1441 H1445 0.930 . S
N1442 Gd1429 2.601 . S
N1442 C1432 1.359 . S
N1442 C1441 1.334 . S
C1443 C1441 1.394 . S
C1443 C1444 1.359 . S
C1443 H1455 0.930 . S
C1444 C1434 1.391 . S
C1444 C1443 1.359 . S
C1444 H1456 0.930 . S
H1445 C1441 0.930 . S
H1446 C1435 0.930 . S
H1447 C1464 0.930 . S
H1448 C1436 0.930 . S
H1449 C1437 0.930 . S
H1450 C1431 0.929 . S
H1451 C1469 0.930 . S
H1452 C1460 0.930 . S
H1453 C1461 0.930 . S
H1454 C1485 0.929 . S
H1455 C1443 0.930 . S
H1456 C1444 0.930 . S
H1457 C1486 0.930 . S
H1458 C1467 0.930 . S
N1459 Gd1428 2.661 . S
N1459 C1463 1.350 . S
N1459 C1464 1.307 . S
C1460 H1452 0.930 . S
C1460 C1461 1.355 . S
C1460 C1462 1.412 . S
C1461 H1453 0.930 . S
C1461 C1460 1.355 . S
C1461 C1464 1.402 . S
C1462 C1460 1.412 . S
C1462 C1463 1.417 . S
C1462 C1486 1.431 . S
C1463 N1459 1.350 . S
C1463 C1462 1.417 . S
C1463 C1466 1.426 . S
C1464 H1447 0.930 . S
C1464 N1459 1.307 . S
C1464 C1461 1.402 . S
N1465 Gd1428 2.601 . S
N1465 C1466 1.359 . S
N1465 C1469 1.334 . S
C1466 C1463 1.426 . S
C1466 N1465 1.359 . S
C1466 C1470 1.413 . S
C1467 H1458 0.930 . S
C1467 C1468 1.359 . S
C1467 C1469 1.394 . S
C1468 C1467 1.359 . S
C1468 C1470 1.391 . S
C1468 H1471 0.929 . S
C1469 H1451 0.930 . S
C1469 N1465 1.334 . S
C1469 C1467 1.394 . S
C1470 C1466 1.413 . S
C1470 C1468 1.391 . S
C1470 C1485 1.437 . S
H1471 C1468 0.929 . S
O1472 Gd1428 2.545 . S
O1472 C1487 1.258 . S
O1473 Gd1428 2.606 . S
O1473 Gd1429 2.362 . S
O1473 C1484 1.284 . S
O1474 Gd1429 2.324 . S
O1474 C1494 1.254 . S
O1475 Gd1428 2.429 . S
O1475 C1494 1.268 . S
O1476 Gd1428 2.545 . S
O1476 C1484 1.250 . S
O1477 Gd1428 2.412 . S
O1477 C1487 1.252 . S
O1478 Gd1429 2.545 . S
O1478 C1496 1.258 . S
O1479 Gd1428 2.362 . S
O1479 Gd1429 2.606 . S
O1479 C1495 1.284 . S
O1480 Gd1428 2.324 . S
O1480 C1503 1.254 . S
O1481 Gd1429 2.429 . S
O1481 C1503 1.268 . S
O1482 Gd1429 2.545 . S
O1482 C1495 1.250 . S
O1483 Gd1429 2.412 . S
O1483 C1496 1.252 . S
C1484 O1473 1.284 . S
C1484 O1476 1.250 . S
C1485 H1454 0.929 . S
C1485 C1470 1.437 . S
C1485 C1486 1.317 . S
C1486 H1457 0.930 . S
C1486 C1462 1.431 . S
C1486 C1485 1.317 . S
C1487 Gd1428 2.828 . S
C1487 O1472 1.258 . S
C1487 O1477 1.252 . S
C1487 C1488 1.497 . S
C1488 C1487 1.497 . S
C1488 C1489 1.395 . S
C1488 C1490 1.380 . S
C1489 C1488 1.395 . S
C1489 C1492 1.398 . S
C1489 H1504 0.930 . S
C1490 C1488 1.380 . S
C1490 C1491 1.391 . S
C1490 H1505 0.930 . S
C1491 C1490 1.391 . S
C1491 C1493 1.387 . S
C1492 C1489 1.398 . S
C1492 C1493 1.380 . S
C1492 H1506 0.930 . S
C1493 C1491 1.387 . S
C1493 C1492 1.380 . S
C1493 H1507 0.930 . S
C1494 O1474 1.254 . S
C1494 O1475 1.268 . S
C1495 O1479 1.284 . S
C1495 O1482 1.250 . S
C1496 Gd1429 2.828 . S
C1496 O1478 1.258 . S
C1496 O1483 1.252 . S
C1496 C1497 1.497 . S
C1497 C1496 1.497 . S
C1497 C1498 1.395 . S
C1497 C1499 1.380 . S
C1498 C1497 1.395 . S
C1498 C1501 1.398 . S
C1498 H1508 0.930 . S
C1499 C1497 1.380 . S
C1499 C1500 1.391 . S
C1499 H1509 0.930 . S
C1500 C1499 1.391 . S
C1500 C1502 1.387 . S
C1501 C1498 1.398 . S
C1501 C1502 1.380 . S
C1501 H1510 0.930 . S
C1502 C1500 1.387 . S
C1502 C1501 1.380 . S
C1502 H1511 0.930 . S
C1503 O1480 1.254 . S
C1503 O1481 1.268 . S
H1504 C1489 0.930 . S
H1505 C1490 0.930 . S
H1506 C1492 0.930 . S
H1507 C1493 0.930 . S
H1508 C1498 0.930 . S
H1509 C1499 0.930 . S
H1510 C1501 0.930 . S
H1511 C1502 0.930 . S
H1512 C1524 0.930 . S
H1513 C1526 0.930 . S
H1514 C1527 0.930 . S
H1515 C1531 0.959 . S
H1516 C1531 0.959 . S
H1517 C1531 0.961 . S
H1518 C1532 0.960 . S
H1519 C1532 0.961 . S
H1520 C1532 0.959 . S
H1521 C1535 0.929 . S
H1522 C1536 0.931 . S
H1523 C1538 0.930 . S
C1524 H1512 0.930 . S
C1524 C1525 1.399 . S
C1524 C1529 1.399 . S
C1525 C1524 1.399 . S
C1525 C1526 1.376 . S
C1526 H1513 0.930 . S
C1526 C1525 1.376 . S
C1526 C1527 1.388 . S
C1527 H1514 0.930 . S
C1527 C1526 1.388 . S
C1527 C1528 1.390 . S
C1528 C1527 1.390 . S
C1528 C1529 1.394 . S
C1528 C1534 1.465 . S
C1529 C1524 1.399 . S
C1529 C1528 1.394 . S
C1529 C1530 1.516 . S
C1530 C1529 1.516 . S
C1530 C1531 1.502 . S
C1530 C1532 1.561 . S
C1530 C1533 1.526 . S
C1531 H1515 0.959 . S
C1531 H1516 0.959 . S
C1531 H1517 0.961 . S
C1531 C1530 1.502 . S
C1532 H1518 0.960 . S
C1532 H1519 0.961 . S
C1532 H1520 0.959 . S
C1532 C1530 1.561 . S
C1533 C1530 1.526 . S
C1533 C1534 1.396 . S
C1533 C1538 1.390 . S
C1534 C1528 1.465 . S
C1534 C1533 1.396 . S
C1534 C1535 1.399 . S
C1535 H1521 0.929 . S
C1535 C1534 1.399 . S
C1535 C1536 1.385 . S
C1536 H1522 0.931 . S
C1536 C1535 1.385 . S
C1536 C1537 1.389 . S
C1537 C1536 1.389 . S
C1537 C1538 1.387 . S
C1538 H1523 0.930 . S
C1538 C1533 1.390 . S
C1538 C1537 1.387 . S
H1539 C1551 0.930 . S
H1540 C1553 0.930 . S
H1541 C1554 0.930 . S
H1542 C1558 0.959 . S
H1543 C1558 0.959 . S
H1544 C1558 0.961 . S
H1545 C1559 0.960 . S
H1546 C1559 0.961 . S
H1547 C1559 0.959 . S
H1548 C1562 0.929 . S
H1549 C1563 0.931 . S
H1550 C1565 0.930 . S
C1551 H1539 0.930 . S
C1551 C1552 1.399 . S
C1551 C1556 1.399 . S
C1552 C1551 1.399 . S
C1552 C1553 1.376 . S
C1553 H1540 0.930 . S
C1553 C1552 1.376 . S
C1553 C1554 1.388 . S
C1554 H1541 0.930 . S
C1554 C1553 1.388 . S
C1554 C1555 1.390 . S
C1555 C1554 1.390 . S
C1555 C1556 1.394 . S
C1555 C1561 1.465 . S
C1556 C1551 1.399 . S
C1556 C1555 1.394 . S
C1556 C1557 1.516 . S
C1557 C1556 1.516 . S
C1557 C1558 1.502 . S
C1557 C1559 1.561 . S
C1557 C1560 1.526 . S
C1558 H1542 0.959 . S
C1558 H1543 0.959 . S
C1558 H1544 0.961 . S
C1558 C1557 1.502 . S
C1559 H1545 0.960 . S
C1559 H1546 0.961 . S
C1559 H1547 0.959 . S
C1559 C1557 1.561 . S
C1560 C1557 1.526 . S
C1560 C1561 1.396 . S
C1560 C1565 1.390 . S
C1561 C1555 1.465 . S
C1561 C1560 1.396 . S
C1561 C1562 1.399 . S
C1562 H1548 0.929 . S
C1562 C1561 1.399 . S
C1562 C1563 1.385 . S
C1563 H1549 0.931 . S
C1563 C1562 1.385 . S
C1563 C1564 1.389 . S
C1564 C1563 1.389 . S
C1564 C1565 1.387 . S
C1565 H1550 0.930 . S
C1565 C1560 1.390 . S
C1565 C1564 1.387 . S
H1566 C1578 0.930 . S
H1567 C1580 0.930 . S
H1568 C1581 0.930 . S
H1569 C1585 0.959 . S
H1570 C1585 0.959 . S
H1571 C1585 0.961 . S
H1572 C1586 0.960 . S
H1573 C1586 0.961 . S
H1574 C1586 0.959 . S
H1575 C1589 0.929 . S
H1576 C1590 0.931 . S
H1577 C1592 0.930 . S
C1578 H1566 0.930 . S
C1578 C1579 1.399 . S
C1578 C1583 1.399 . S
C1579 C1578 1.399 . S
C1579 C1580 1.376 . S
C1580 H1567 0.930 . S
C1580 C1579 1.376 . S
C1580 C1581 1.388 . S
C1581 H1568 0.930 . S
C1581 C1580 1.388 . S
C1581 C1582 1.390 . S
C1582 C1581 1.390 . S
C1582 C1583 1.394 . S
C1582 C1588 1.465 . S
C1583 C1578 1.399 . S
C1583 C1582 1.394 . S
C1583 C1584 1.516 . S
C1584 C1583 1.516 . S
C1584 C1585 1.502 . S
C1584 C1586 1.561 . S
C1584 C1587 1.526 . S
C1585 H1569 0.959 . S
C1585 H1570 0.959 . S
C1585 H1571 0.961 . S
C1585 C1584 1.502 . S
C1586 H1572 0.960 . S
C1586 H1573 0.961 . S
C1586 H1574 0.959 . S
C1586 C1584 1.561 . S
C1587 C1584 1.526 . S
C1587 C1588 1.396 . S
C1587 C1592 1.390 . S
C1588 C1582 1.465 . S
C1588 C1587 1.396 . S
C1588 C1589 1.399 . S
C1589 H1575 0.929 . S
C1589 C1588 1.399 . S
C1589 C1590 1.385 . S
C1590 H1576 0.931 . S
C1590 C1589 1.385 . S
C1590 C1591 1.389 . S
C1591 C1590 1.389 . S
C1591 C1592 1.387 . S
C1592 H1577 0.930 . S
C1592 C1587 1.390 . S
C1592 C1591 1.387 . S
H1593 C1605 0.930 . S
H1594 C1607 0.930 . S
H1595 C1608 0.930 . S
H1596 C1612 0.959 . S
H1597 C1612 0.959 . S
H1598 C1612 0.961 . S
H1599 C1613 0.960 . S
H1600 C1613 0.961 . S
H1601 C1613 0.959 . S
H1602 C1616 0.929 . S
H1603 C1617 0.931 . S
H1604 C1619 0.930 . S
C1605 H1593 0.930 . S
C1605 C1606 1.399 . S
C1605 C1610 1.399 . S
C1606 C1605 1.399 . S
C1606 C1607 1.376 . S
C1607 H1594 0.930 . S
C1607 C1606 1.376 . S
C1607 C1608 1.388 . S
C1608 H1595 0.930 . S
C1608 C1607 1.388 . S
C1608 C1609 1.390 . S
C1609 C1608 1.390 . S
C1609 C1610 1.394 . S
C1609 C1615 1.465 . S
C1610 C1605 1.399 . S
C1610 C1609 1.394 . S
C1610 C1611 1.516 . S
C1611 C1610 1.516 . S
C1611 C1612 1.502 . S
C1611 C1613 1.561 . S
C1611 C1614 1.526 . S
C1612 H1596 0.959 . S
C1612 H1597 0.959 . S
C1612 H1598 0.961 . S
C1612 C1611 1.502 . S
C1613 H1599 0.960 . S
C1613 H1600 0.961 . S
C1613 H1601 0.959 . S
C1613 C1611 1.561 . S
C1614 C1611 1.526 . S
C1614 C1615 1.396 . S
C1614 C1619 1.390 . S
C1615 C1609 1.465 . S
C1615 C1614 1.396 . S
C1615 C1616 1.399 . S
C1616 H1602 0.929 . S
C1616 C1615 1.399 . S
C1616 C1617 1.385 . S
C1617 H1603 0.931 . S
C1617 C1616 1.385 . S
C1617 C1618 1.389 . S
C1618 C1617 1.389 . S
C1618 C1619 1.387 . S
C1619 H1604 0.930 . S
C1619 C1614 1.390 . S
C1619 C1618 1.387 . S
H1620 C1632 0.930 . S
H1621 C1634 0.930 . S
H1622 C1635 0.930 . S
H1623 C1639 0.959 . S
H1624 C1639 0.959 . S
H1625 C1639 0.961 . S
H1626 C1640 0.960 . S
H1627 C1640 0.961 . S
H1628 C1640 0.959 . S
H1629 C1643 0.929 . S
H1630 C1644 0.931 . S
H1631 C1646 0.930 . S
C1632 H1620 0.930 . S
C1632 C1633 1.399 . S
C1632 C1637 1.399 . S
C1633 C1632 1.399 . S
C1633 C1634 1.376 . S
C1634 H1621 0.930 . S
C1634 C1633 1.376 . S
C1634 C1635 1.388 . S
C1635 H1622 0.930 . S
C1635 C1634 1.388 . S
C1635 C1636 1.390 . S
C1636 C1635 1.390 . S
C1636 C1637 1.394 . S
C1636 C1642 1.465 . S
C1637 C1632 1.399 . S
C1637 C1636 1.394 . S
C1637 C1638 1.516 . S
C1638 C1637 1.516 . S
C1638 C1639 1.502 . S
C1638 C1640 1.561 . S
C1638 C1641 1.526 . S
C1639 H1623 0.959 . S
C1639 H1624 0.959 . S
C1639 H1625 0.961 . S
C1639 C1638 1.502 . S
C1640 H1626 0.960 . S
C1640 H1627 0.961 . S
C1640 H1628 0.959 . S
C1640 C1638 1.561 . S
C1641 C1638 1.526 . S
C1641 C1642 1.396 . S
C1641 C1646 1.390 . S
C1642 C1636 1.465 . S
C1642 C1641 1.396 . S
C1642 C1643 1.399 . S
C1643 H1629 0.929 . S
C1643 C1642 1.399 . S
C1643 C1644 1.385 . S
C1644 H1630 0.931 . S
C1644 C1643 1.385 . S
C1644 C1645 1.389 . S
C1645 C1644 1.389 . S
C1645 C1646 1.387 . S
C1646 H1631 0.930 . S
C1646 C1641 1.390 . S
C1646 C1645 1.387 . S
H1647 C1659 0.930 . S
H1648 C1661 0.930 . S
H1649 C1662 0.930 . S
H1650 C1666 0.959 . S
H1651 C1666 0.959 . S
H1652 C1666 0.961 . S
H1653 C1667 0.960 . S
H1654 C1667 0.961 . S
H1655 C1667 0.959 . S
H1656 C1670 0.929 . S
H1657 C1671 0.931 . S
H1658 C1673 0.930 . S
C1659 H1647 0.930 . S
C1659 C1660 1.399 . S
C1659 C1664 1.399 . S
C1660 C1659 1.399 . S
C1660 C1661 1.376 . S
C1661 H1648 0.930 . S
C1661 C1660 1.376 . S
C1661 C1662 1.388 . S
C1662 H1649 0.930 . S
C1662 C1661 1.388 . S
C1662 C1663 1.390 . S
C1663 C1662 1.390 . S
C1663 C1664 1.394 . S
C1663 C1669 1.465 . S
C1664 C1659 1.399 . S
C1664 C1663 1.394 . S
C1664 C1665 1.516 . S
C1665 C1664 1.516 . S
C1665 C1666 1.502 . S
C1665 C1667 1.561 . S
C1665 C1668 1.526 . S
C1666 H1650 0.959 . S
C1666 H1651 0.959 . S
C1666 H1652 0.961 . S
C1666 C1665 1.502 . S
C1667 H1653 0.960 . S
C1667 H1654 0.961 . S
C1667 H1655 0.959 . S
C1667 C1665 1.561 . S
C1668 C1665 1.526 . S
C1668 C1669 1.396 . S
C1668 C1673 1.390 . S
C1669 C1663 1.465 . S
C1669 C1668 1.396 . S
C1669 C1670 1.399 . S
C1670 H1656 0.929 . S
C1670 C1669 1.399 . S
C1670 C1671 1.385 . S
C1671 H1657 0.931 . S
C1671 C1670 1.385 . S
C1671 C1672 1.389 . S
C1672 C1671 1.389 . S
C1672 C1673 1.387 . S
C1673 H1658 0.930 . S
C1673 C1668 1.390 . S
C1673 C1672 1.387 . S
H1674 C1686 0.930 . S
H1675 C1688 0.930 . S
H1676 C1689 0.930 . S
H1677 C1693 0.959 . S
H1678 C1693 0.959 . S
H1679 C1693 0.961 . S
H1680 C1694 0.960 . S
H1681 C1694 0.961 . S
H1682 C1694 0.959 . S
H1683 C1697 0.929 . S
H1684 C1698 0.931 . S
H1685 C1700 0.930 . S
C1686 H1674 0.930 . S
C1686 C1687 1.399 . S
C1686 C1691 1.399 . S
C1687 C1686 1.399 . S
C1687 C1688 1.376 . S
C1688 H1675 0.930 . S
C1688 C1687 1.376 . S
C1688 C1689 1.388 . S
C1689 H1676 0.930 . S
C1689 C1688 1.388 . S
C1689 C1690 1.390 . S
C1690 C1689 1.390 . S
C1690 C1691 1.394 . S
C1690 C1696 1.465 . S
C1691 C1686 1.399 . S
C1691 C1690 1.394 . S
C1691 C1692 1.516 . S
C1692 C1691 1.516 . S
C1692 C1693 1.502 . S
C1692 C1694 1.561 . S
C1692 C1695 1.526 . S
C1693 H1677 0.959 . S
C1693 H1678 0.959 . S
C1693 H1679 0.961 . S
C1693 C1692 1.502 . S
C1694 H1680 0.960 . S
C1694 H1681 0.961 . S
C1694 H1682 0.959 . S
C1694 C1692 1.561 . S
C1695 C1692 1.526 . S
C1695 C1696 1.396 . S
C1695 C1700 1.390 . S
C1696 C1690 1.465 . S
C1696 C1695 1.396 . S
C1696 C1697 1.399 . S
C1697 H1683 0.929 . S
C1697 C1696 1.399 . S
C1697 C1698 1.385 . S
C1698 H1684 0.931 . S
C1698 C1697 1.385 . S
C1698 C1699 1.389 . S
C1699 C1698 1.389 . S
C1699 C1700 1.387 . S
C1700 H1685 0.930 . S
C1700 C1695 1.390 . S
C1700 C1699 1.387 . S
H1701 C1713 0.930 . S
H1702 C1715 0.930 . S
H1703 C1716 0.930 . S
H1704 C1720 0.959 . S
H1705 C1720 0.959 . S
H1706 C1720 0.961 . S
H1707 C1721 0.960 . S
H1708 C1721 0.953 1_565 S
H1709 C1721 0.959 . S
H1710 C1724 0.929 . S
H1711 C1725 0.931 . S
H1712 C1727 0.930 . S
C1713 H1701 0.930 . S
C1713 C1714 1.399 . S
C1713 C1718 1.399 . S
C1714 C1713 1.399 . S
C1714 C1715 1.376 . S
C1715 H1702 0.930 . S
C1715 C1714 1.376 . S
C1715 C1716 1.388 . S
C1716 H1703 0.930 . S
C1716 C1715 1.388 . S
C1716 C1717 1.390 . S
C1717 C1716 1.390 . S
C1717 C1718 1.394 . S
C1717 C1723 1.465 . S
C1718 C1713 1.399 . S
C1718 C1717 1.394 . S
C1718 C1719 1.516 . S
C1719 C1718 1.516 . S
C1719 C1720 1.502 . S
C1719 C1721 1.561 . S
C1719 C1722 1.526 1_545 S
C1720 H1704 0.959 . S
C1720 H1705 0.959 . S
C1720 H1706 0.961 . S
C1720 C1719 1.502 . S
C1721 H1707 0.960 . S
C1721 H1708 0.953 1_545 S
C1721 H1709 0.959 . S
C1721 C1719 1.561 . S
C1722 C1719 1.526 1_565 S
C1722 C1723 1.396 1_565 S
C1722 C1727 1.390 . S
C1723 C1717 1.465 . S
C1723 C1722 1.396 1_545 S
C1723 C1724 1.399 1_545 S
C1724 H1710 0.929 . S
C1724 C1723 1.399 1_565 S
C1724 C1725 1.385 . S
C1725 H1711 0.931 . S
C1725 C1724 1.385 . S
C1725 C1726 1.389 . S
C1726 C1725 1.389 . S
C1726 C1727 1.387 . S
C1727 H1712 0.930 . S
C1727 C1722 1.390 . S
C1727 C1726 1.387 . S
H1728 C1740 0.930 . S
H1729 C1742 0.930 . S
H1730 C1743 0.930 . S
H1731 C1747 0.959 . S
H1732 C1747 0.959 . S
H1733 C1747 0.961 . S
H1734 C1748 0.960 . S
H1735 C1748 0.961 1_655 S
H1736 C1748 0.959 1_655 S
H1737 C1751 0.929 . S
H1738 C1752 0.931 . S
H1739 C1754 0.930 . S
C1740 H1728 0.930 . S
C1740 C1741 1.399 . S
C1740 C1745 1.399 . S
C1741 C1740 1.399 . S
C1741 C1742 1.376 . S
C1742 H1729 0.930 . S
C1742 C1741 1.376 . S
C1742 C1743 1.388 . S
C1743 H1730 0.930 . S
C1743 C1742 1.388 . S
C1743 C1744 1.390 . S
C1744 C1743 1.390 . S
C1744 C1745 1.394 . S
C1744 C1750 1.465 1_455 S
C1745 C1740 1.399 . S
C1745 C1744 1.394 . S
C1745 C1746 1.516 . S
C1746 C1745 1.516 . S
C1746 C1747 1.502 . S
C1746 C1748 1.561 . S
C1746 C1749 1.526 1_455 S
C1747 H1731 0.959 . S
C1747 H1732 0.959 . S
C1747 H1733 0.961 . S
C1747 C1746 1.502 . S
C1748 H1734 0.960 . S
C1748 H1735 0.961 1_455 S
C1748 H1736 0.959 1_455 S
C1748 C1746 1.561 . S
C1749 C1746 1.526 1_655 S
C1749 C1750 1.396 . S
C1749 C1754 1.390 . S
C1750 C1744 1.465 1_655 S
C1750 C1749 1.396 . S
C1750 C1751 1.399 . S
C1751 H1737 0.929 . S
C1751 C1750 1.399 . S
C1751 C1752 1.385 . S
C1752 H1738 0.931 . S
C1752 C1751 1.385 . S
C1752 C1753 1.389 . S
C1753 C1752 1.389 . S
C1753 C1754 1.387 . S
C1754 H1739 0.930 . S
C1754 C1749 1.390 . S
C1754 C1753 1.387 . S
H1755 C1767 0.930 . S
H1756 C1769 0.930 . S
H1757 C1770 0.930 . S
H1758 C1774 0.959 . S
H1759 C1774 0.959 . S
H1760 C1774 0.961 . S
H1761 C1775 0.960 . S
H1762 C1775 0.961 . S
H1763 C1775 0.959 . S
H1764 C1778 0.929 . S
H1765 C1779 0.931 . S
H1766 C1781 0.930 . S
C1767 H1755 0.930 . S
C1767 C1768 1.399 . S
C1767 C1772 1.399 . S
C1768 C1767 1.399 . S
C1768 C1769 1.376 . S
C1769 H1756 0.930 . S
C1769 C1768 1.376 . S
C1769 C1770 1.388 . S
C1770 H1757 0.930 . S
C1770 C1769 1.388 . S
C1770 C1771 1.390 . S
C1771 C1770 1.390 . S
C1771 C1772 1.394 . S
C1771 C1777 1.465 . S
C1772 C1767 1.399 . S
C1772 C1771 1.394 . S
C1772 C1773 1.516 . S
C1773 C1772 1.516 . S
C1773 C1774 1.502 . S
C1773 C1775 1.561 . S
C1773 C1776 1.526 . S
C1774 H1758 0.959 . S
C1774 H1759 0.959 . S
C1774 H1760 0.961 . S
C1774 C1773 1.502 . S
C1775 H1761 0.960 . S
C1775 H1762 0.961 . S
C1775 H1763 0.959 . S
C1775 C1773 1.561 . S
C1776 C1773 1.526 . S
C1776 C1777 1.396 . S
C1776 C1781 1.390 . S
C1777 C1771 1.465 . S
C1777 C1776 1.396 . S
C1777 C1778 1.399 . S
C1778 H1764 0.929 . S
C1778 C1777 1.399 . S
C1778 C1779 1.385 . S
C1779 H1765 0.931 . S
C1779 C1778 1.385 . S
C1779 C1780 1.389 . S
C1780 C1779 1.389 . S
C1780 C1781 1.387 . S
C1781 H1766 0.930 . S
C1781 C1776 1.390 . S
C1781 C1780 1.387 . S
H1782 C1794 0.930 . S
H1783 C1796 0.930 . S
H1784 C1797 0.930 . S
H1785 C1801 0.959 . S
H1786 C1801 0.959 . S
H1787 C1801 0.961 . S
H1788 C1802 0.960 . S
H1789 C1802 0.961 . S
H1790 C1802 0.959 . S
H1791 C1805 0.929 . S
H1792 C1806 0.931 . S
H1793 C1808 0.930 . S
C1794 H1782 0.930 . S
C1794 C1795 1.399 . S
C1794 C1799 1.399 . S
C1795 C1794 1.399 . S
C1795 C1796 1.376 . S
C1796 H1783 0.930 . S
C1796 C1795 1.376 . S
C1796 C1797 1.388 . S
C1797 H1784 0.930 . S
C1797 C1796 1.388 . S
C1797 C1798 1.390 . S
C1798 C1797 1.390 . S
C1798 C1799 1.394 . S
C1798 C1804 1.465 . S
C1799 C1794 1.399 . S
C1799 C1798 1.394 . S
C1799 C1800 1.516 . S
C1800 C1799 1.516 . S
C1800 C1801 1.502 . S
C1800 C1802 1.561 . S
C1800 C1803 1.526 . S
C1801 H1785 0.959 . S
C1801 H1786 0.959 . S
C1801 H1787 0.961 . S
C1801 C1800 1.502 . S
C1802 H1788 0.960 . S
C1802 H1789 0.961 . S
C1802 H1790 0.959 . S
C1802 C1800 1.561 . S
C1803 C1800 1.526 . S
C1803 C1804 1.396 . S
C1803 C1808 1.390 . S
C1804 C1798 1.465 . S
C1804 C1803 1.396 . S
C1804 C1805 1.399 . S
C1805 H1791 0.929 . S
C1805 C1804 1.399 . S
C1805 C1806 1.385 . S
C1806 H1792 0.931 . S
C1806 C1805 1.385 . S
C1806 C1807 1.389 . S
C1807 C1806 1.389 . S
C1807 C1808 1.387 . S
C1808 H1793 0.930 . S
C1808 C1803 1.390 . S
C1808 C1807 1.387 . S
H1809 C1821 0.930 . S
H1810 C1823 0.930 . S
H1811 C1824 0.930 . S
H1812 C1828 0.959 . S
H1813 C1828 0.959 . S
H1814 C1828 0.961 . S
H1815 C1829 0.960 . S
H1816 C1829 0.961 . S
H1817 C1829 0.959 . S
H1818 C1832 0.929 . S
H1819 C1833 0.931 . S
H1820 C1835 0.930 . S
C1821 H1809 0.930 . S
C1821 C1822 1.399 . S
C1821 C1826 1.399 . S
C1822 C1821 1.399 . S
C1822 C1823 1.376 . S
C1823 H1810 0.930 . S
C1823 C1822 1.376 . S
C1823 C1824 1.388 . S
C1824 H1811 0.930 . S
C1824 C1823 1.388 . S
C1824 C1825 1.390 . S
C1825 C1824 1.390 . S
C1825 C1826 1.394 . S
C1825 C1831 1.465 . S
C1826 C1821 1.399 . S
C1826 C1825 1.394 . S
C1826 C1827 1.516 . S
C1827 C1826 1.516 . S
C1827 C1828 1.502 . S
C1827 C1829 1.561 . S
C1827 C1830 1.526 . S
C1828 H1812 0.959 . S
C1828 H1813 0.959 . S
C1828 H1814 0.961 . S
C1828 C1827 1.502 . S
C1829 H1815 0.960 . S
C1829 H1816 0.961 . S
C1829 H1817 0.959 . S
C1829 C1827 1.561 . S
C1830 C1827 1.526 . S
C1830 C1831 1.396 . S
C1830 C1835 1.390 . S
C1831 C1825 1.465 . S
C1831 C1830 1.396 . S
C1831 C1832 1.399 . S
C1832 H1818 0.929 . S
C1832 C1831 1.399 . S
C1832 C1833 1.385 . S
C1833 H1819 0.931 . S
C1833 C1832 1.385 . S
C1833 C1834 1.389 . S
C1834 C1833 1.389 . S
C1834 C1835 1.387 . S
C1835 H1820 0.930 . S
C1835 C1830 1.390 . S
C1835 C1834 1.387 . S
H1836 C1848 0.930 . S
H1837 C1850 0.930 . S
H1838 C1851 0.930 . S
H1839 C1855 0.959 . S
H1840 C1855 0.959 . S
H1841 C1855 0.961 . S
H1842 C1856 0.960 . S
H1843 C1856 0.961 . S
H1844 C1856 0.959 . S
H1845 C1859 0.929 . S
H1846 C1860 0.931 . S
H1847 C1862 0.930 . S
C1848 H1836 0.930 . S
C1848 C1849 1.399 . S
C1848 C1853 1.399 . S
C1849 C1848 1.399 . S
C1849 C1850 1.376 . S
C1850 H1837 0.930 . S
C1850 C1849 1.376 . S
C1850 C1851 1.388 . S
C1851 H1838 0.930 . S
C1851 C1850 1.388 . S
C1851 C1852 1.390 . S
C1852 C1851 1.390 . S
C1852 C1853 1.394 . S
C1852 C1858 1.465 . S
C1853 C1848 1.399 . S
C1853 C1852 1.394 . S
C1853 C1854 1.516 . S
C1854 C1853 1.516 . S
C1854 C1855 1.502 . S
C1854 C1856 1.561 . S
C1854 C1857 1.526 . S
C1855 H1839 0.959 . S
C1855 H1840 0.959 . S
C1855 H1841 0.961 . S
C1855 C1854 1.502 . S
C1856 H1842 0.960 . S
C1856 H1843 0.961 . S
C1856 H1844 0.959 . S
C1856 C1854 1.561 . S
C1857 C1854 1.526 . S
C1857 C1858 1.396 . S
C1857 C1862 1.390 . S
C1858 C1852 1.465 . S
C1858 C1857 1.396 . S
C1858 C1859 1.399 . S
C1859 H1845 0.929 . S
C1859 C1858 1.399 . S
C1859 C1860 1.385 . S
C1860 H1846 0.931 . S
C1860 C1859 1.385 . S
C1860 C1861 1.389 . S
C1861 C1860 1.389 . S
C1861 C1862 1.387 . S
C1862 H1847 0.930 . S
C1862 C1857 1.390 . S
C1862 C1861 1.387 . S
H1863 C1875 0.930 . S
H1864 C1877 0.930 . S
H1865 C1878 0.930 . S
H1866 C1882 0.959 . S
H1867 C1882 0.959 . S
H1868 C1882 0.961 . S
H1869 C1883 0.960 . S
H1870 C1883 0.961 . S
H1871 C1883 0.959 . S
H1872 C1886 0.929 . S
H1873 C1887 0.931 . S
H1874 C1889 0.930 . S
C1875 H1863 0.930 . S
C1875 C1876 1.399 . S
C1875 C1880 1.399 . S
C1876 C1875 1.399 . S
C1876 C1877 1.376 . S
C1877 H1864 0.930 . S
C1877 C1876 1.376 . S
C1877 C1878 1.388 . S
C1878 H1865 0.930 . S
C1878 C1877 1.388 . S
C1878 C1879 1.390 . S
C1879 C1878 1.390 . S
C1879 C1880 1.394 . S
C1879 C1885 1.465 . S
C1880 C1875 1.399 . S
C1880 C1879 1.394 . S
C1880 C1881 1.516 . S
C1881 C1880 1.516 . S
C1881 C1882 1.502 . S
C1881 C1883 1.561 . S
C1881 C1884 1.526 . S
C1882 H1866 0.959 . S
C1882 H1867 0.959 . S
C1882 H1868 0.961 . S
C1882 C1881 1.502 . S
C1883 H1869 0.960 . S
C1883 H1870 0.961 . S
C1883 H1871 0.959 . S
C1883 C1881 1.561 . S
C1884 C1881 1.526 . S
C1884 C1885 1.396 . S
C1884 C1889 1.390 . S
C1885 C1879 1.465 . S
C1885 C1884 1.396 . S
C1885 C1886 1.399 . S
C1886 H1872 0.929 . S
C1886 C1885 1.399 . S
C1886 C1887 1.385 . S
C1887 H1873 0.931 . S
C1887 C1886 1.385 . S
C1887 C1888 1.389 . S
C1888 C1887 1.389 . S
C1888 C1889 1.387 . S
C1889 H1874 0.930 . S
C1889 C1884 1.390 . S
C1889 C1888 1.387 . S
H1890 C1902 0.930 . S
H1891 C1904 0.930 . S
H1892 C1905 0.930 . S
H1893 C1909 0.959 . S
H1894 C1909 0.959 . S
H1895 C1909 0.961 . S
H1896 C1910 0.960 . S
H1897 C1910 0.961 . S
H1898 C1910 0.959 . S
H1899 C1913 0.929 . S
H1900 C1914 0.931 . S
H1901 C1916 0.930 . S
C1902 H1890 0.930 . S
C1902 C1903 1.399 . S
C1902 C1907 1.399 . S
C1903 C1902 1.399 . S
C1903 C1904 1.376 . S
C1904 H1891 0.930 . S
C1904 C1903 1.376 . S
C1904 C1905 1.388 . S
C1905 H1892 0.930 . S
C1905 C1904 1.388 . S
C1905 C1906 1.390 . S
C1906 C1905 1.390 . S
C1906 C1907 1.394 . S
C1906 C1912 1.465 . S
C1907 C1902 1.399 . S
C1907 C1906 1.394 . S
C1907 C1908 1.516 . S
C1908 C1907 1.516 . S
C1908 C1909 1.502 . S
C1908 C1910 1.561 . S
C1908 C1911 1.526 . S
C1909 H1893 0.959 . S
C1909 H1894 0.959 . S
C1909 H1895 0.961 . S
C1909 C1908 1.502 . S
C1910 H1896 0.960 . S
C1910 H1897 0.961 . S
C1910 H1898 0.959 . S
C1910 C1908 1.561 . S
C1911 C1908 1.526 . S
C1911 C1912 1.396 . S
C1911 C1916 1.390 . S
C1912 C1906 1.465 . S
C1912 C1911 1.396 . S
C1912 C1913 1.399 . S
C1913 H1899 0.929 . S
C1913 C1912 1.399 . S
C1913 C1914 1.385 . S
C1914 H1900 0.931 . S
C1914 C1913 1.385 . S
C1914 C1915 1.389 . S
C1915 C1914 1.389 . S
C1915 C1916 1.387 . S
C1916 H1901 0.930 . S
C1916 C1911 1.390 . S
C1916 C1915 1.387 . S
H1917 C1929 0.930 . S
H1918 C1931 0.930 . S
H1919 C1932 0.930 . S
H1920 C1936 0.959 . S
H1921 C1936 0.959 . S
H1922 C1936 0.961 . S
H1923 C1937 0.960 . S
H1924 C1937 0.961 . S
H1925 C1937 0.959 . S
H1926 C1940 0.929 . S
H1927 C1941 0.931 . S
H1928 C1943 0.930 . S
C1929 H1917 0.930 . S
C1929 C1930 1.399 . S
C1929 C1934 1.399 . S
C1930 C1929 1.399 . S
C1930 C1931 1.376 . S
C1931 H1918 0.930 . S
C1931 C1930 1.376 . S
C1931 C1932 1.388 . S
C1932 H1919 0.930 . S
C1932 C1931 1.388 . S
C1932 C1933 1.390 . S
C1933 C1932 1.390 . S
C1933 C1934 1.394 . S
C1933 C1939 1.465 . S
C1934 C1929 1.399 . S
C1934 C1933 1.394 . S
C1934 C1935 1.516 . S
C1935 C1934 1.516 . S
C1935 C1936 1.502 . S
C1935 C1937 1.561 . S
C1935 C1938 1.526 . S
C1936 H1920 0.959 . S
C1936 H1921 0.959 . S
C1936 H1922 0.961 . S
C1936 C1935 1.502 . S
C1937 H1923 0.960 . S
C1937 H1924 0.961 . S
C1937 H1925 0.959 . S
C1937 C1935 1.561 . S
C1938 C1935 1.526 . S
C1938 C1939 1.396 . S
C1938 C1943 1.390 . S
C1939 C1933 1.465 . S
C1939 C1938 1.396 . S
C1939 C1940 1.399 . S
C1940 H1926 0.929 . S
C1940 C1939 1.399 . S
C1940 C1941 1.385 . S
C1941 H1927 0.931 . S
C1941 C1940 1.385 . S
C1941 C1942 1.389 . S
C1942 C1941 1.389 . S
C1942 C1943 1.387 . S
C1943 H1928 0.930 . S
C1943 C1938 1.390 . S
C1943 C1942 1.387 . S
H1944 C1956 0.930 . S
H1945 C1958 0.930 . S
H1946 C1959 0.930 . S
H1947 C1963 0.959 1_565 S
H1948 C1963 0.959 . S
H1949 C1963 0.961 1_565 S
H1950 C1964 0.960 . S
H1951 C1964 0.961 . S
H1952 C1964 0.959 . S
H1953 C1967 0.929 . S
H1954 C1968 0.931 . S
H1955 C1970 0.930 . S
C1956 H1944 0.930 . S
C1956 C1957 1.399 . S
C1956 C1961 1.399 . S
C1957 C1956 1.399 . S
C1957 C1958 1.376 . S
C1958 H1945 0.930 . S
C1958 C1957 1.376 . S
C1958 C1959 1.388 . S
C1959 H1946 0.930 . S
C1959 C1958 1.388 . S
C1959 C1960 1.390 . S
C1960 C1959 1.390 . S
C1960 C1961 1.394 . S
C1960 C1966 1.465 1_565 S
C1961 C1956 1.399 . S
C1961 C1960 1.394 . S
C1961 C1962 1.516 1_565 S
C1962 C1961 1.516 1_545 S
C1962 C1963 1.502 . S
C1962 C1964 1.561 . S
C1962 C1965 1.526 . S
C1963 H1947 0.959 1_545 S
C1963 H1948 0.959 . S
C1963 H1949 0.961 1_545 S
C1963 C1962 1.502 . S
C1964 H1950 0.960 . S
C1964 H1951 0.961 . S
C1964 H1952 0.959 . S
C1964 C1962 1.561 . S
C1965 C1962 1.526 . S
C1965 C1966 1.396 . S
C1965 C1970 1.390 . S
C1966 C1960 1.465 1_545 S
C1966 C1965 1.396 . S
C1966 C1967 1.399 . S
C1967 H1953 0.929 . S
C1967 C1966 1.399 . S
C1967 C1968 1.385 . S
C1968 H1954 0.931 . S
C1968 C1967 1.385 . S
C1968 C1969 1.389 . S
C1969 C1968 1.389 . S
C1969 C1970 1.387 . S
C1970 H1955 0.930 . S
C1970 C1965 1.390 . S
C1970 C1969 1.387 . S
H1971 C1983 0.930 . S
H1972 C1985 0.930 . S
H1973 C1986 0.930 . S
H1974 C1990 0.959 . S
H1975 C1990 0.959 . S
H1976 C1990 0.961 . S
H1977 C1991 0.960 . S
H1978 C1991 0.961 . S
H1979 C1991 0.959 . S
H1980 C1994 0.929 . S
H1981 C1995 0.931 . S
H1982 C1997 0.930 . S
C1983 H1971 0.930 . S
C1983 C1984 1.399 . S
C1983 C1988 1.399 . S
C1984 C1983 1.399 . S
C1984 C1985 1.376 . S
C1985 H1972 0.930 . S
C1985 C1984 1.376 . S
C1985 C1986 1.388 . S
C1986 H1973 0.930 . S
C1986 C1985 1.388 . S
C1986 C1987 1.390 . S
C1987 C1986 1.390 . S
C1987 C1988 1.394 . S
C1987 C1993 1.465 . S
C1988 C1983 1.399 . S
C1988 C1987 1.394 . S
C1988 C1989 1.516 . S
C1989 C1988 1.516 . S
C1989 C1990 1.502 . S
C1989 C1991 1.561 . S
C1989 C1992 1.526 . S
C1990 H1974 0.959 . S
C1990 H1975 0.959 . S
C1990 H1976 0.961 . S
C1990 C1989 1.502 . S
C1991 H1977 0.960 . S
C1991 H1978 0.961 . S
C1991 H1979 0.959 . S
C1991 C1989 1.561 . S
C1992 C1989 1.526 . S
C1992 C1993 1.396 . S
C1992 C1997 1.390 1_455 S
C1993 C1987 1.465 . S
C1993 C1992 1.396 . S
C1993 C1994 1.399 1_455 S
C1994 H1980 0.929 . S
C1994 C1993 1.399 1_655 S
C1994 C1995 1.385 . S
C1995 H1981 0.931 . S
C1995 C1994 1.385 . S
C1995 C1996 1.389 . S
C1996 C1995 1.389 . S
C1996 C1997 1.387 . S
C1997 H1982 0.930 . S
C1997 C1992 1.390 1_655 S
C1997 C1996 1.387 . S
H1998 C2010 0.930 1_565 S
H1999 C2012 0.930 . S
H2000 C2013 0.930 . S
H2001 C2017 0.960 1_556 S
H2002 C2017 0.959 1_556 S
H2003 C2017 0.961 . S
H2004 C2018 0.960 . S
H2005 C2018 0.961 1_556 S
H2006 C2018 0.959 . S
H2007 C2021 0.929 . S
H2008 C2022 0.931 . S
H2009 C2024 0.930 . S
C2010 H1998 0.930 1_545 S
C2010 C2011 1.399 . S
C2010 C2015 1.399 . S
C2011 C2010 1.399 . S
C2011 C2012 1.376 . S
C2012 H1999 0.930 . S
C2012 C2011 1.376 . S
C2012 C2013 1.388 . S
C2013 H2000 0.930 . S
C2013 C2012 1.388 . S
C2013 C2014 1.390 . S
C2014 C2013 1.390 . S
C2014 C2015 1.394 . S
C2014 C2020 1.465 1_554 S
C2015 C2010 1.399 . S
C2015 C2014 1.394 . S
C2015 C2016 1.516 1_545 S
C2016 C2015 1.516 1_565 S
C2016 C2017 1.502 . S
C2016 C2018 1.561 . S
C2016 C2019 1.526 1_564 S
C2017 H2001 0.960 1_554 S
C2017 H2002 0.959 1_554 S
C2017 H2003 0.961 . S
C2017 C2016 1.502 . S
C2018 H2004 0.960 . S
C2018 H2005 0.961 1_554 S
C2018 H2006 0.959 . S
C2018 C2016 1.561 . S
C2019 C2016 1.526 1_546 S
C2019 C2020 1.396 . S
C2019 C2024 1.390 1_545 S
C2020 C2014 1.465 1_556 S
C2020 C2019 1.396 . S
C2020 C2021 1.399 . S
C2021 H2007 0.929 . S
C2021 C2020 1.399 . S
C2021 C2022 1.385 . S
C2022 H2008 0.931 . S
C2022 C2021 1.385 . S
C2022 C2023 1.389 . S
C2023 C2022 1.389 . S
C2023 C2024 1.387 1_545 S
C2024 H2009 0.930 . S
C2024 C2019 1.390 1_565 S
C2024 C2023 1.387 1_565 S
H2025 C2037 0.930 . S
H2026 C2039 0.930 . S
H2027 C2040 0.924 . S
H2028 C2044 0.959 . S
H2029 C2044 0.959 . S
H2030 C2044 0.961 1_556 S
H2031 C2045 0.965 1_455 S
H2032 C2045 0.961 1_554 S
H2033 C2045 0.959 . S
H2034 C2048 0.933 1_655 S
H2035 C2049 0.933 1_655 S
H2036 C2051 0.930 . S
C2037 H2025 0.930 . S
C2037 C2038 1.399 . S
C2037 C2042 1.399 . S
C2038 C2037 1.399 . S
C2038 C2039 1.376 . S
C2039 H2026 0.930 . S
C2039 C2038 1.376 . S
C2039 C2040 1.388 . S
C2040 H2027 0.924 . S
C2040 C2039 1.388 . S
C2040 C2041 1.390 . S
C2041 C2040 1.390 . S
C2041 C2042 1.394 . S
C2041 C2047 1.465 1_556 S
C2042 C2037 1.399 . S
C2042 C2041 1.394 . S
C2042 C2043 1.497 1_556 S
C2043 C2042 1.497 1_554 S
C2043 C2044 1.505 . S
C2043 C2045 1.560 1_454 S
C2043 C2046 1.544 . S
C2044 H2028 0.959 . S
C2044 H2029 0.959 . S
C2044 H2030 0.961 1_554 S
C2044 C2043 1.505 . S
C2045 H2031 0.965 1_655 S
C2045 H2032 0.961 1_556 S
C2045 H2033 0.959 . S
C2045 C2043 1.560 1_656 S
C2046 C2043 1.544 . S
C2046 C2047 1.396 . S
C2046 C2051 1.390 . S
C2047 C2041 1.465 1_554 S
C2047 C2046 1.396 . S
C2047 C2048 1.397 . S
C2048 H2034 0.933 1_455 S
C2048 C2047 1.397 . S
C2048 C2049 1.385 . S
C2049 H2035 0.933 1_455 S
C2049 C2048 1.385 . S
C2049 C2050 1.386 . S
C2050 C2049 1.386 . S
C2050 C2051 1.387 . S
C2051 H2036 0.930 . S
C2051 C2046 1.390 . S
C2051 C2050 1.387 . S
H2052 C2064 0.930 . S
H2053 C2066 0.930 . S
H2054 C2067 0.930 . S
H2055 C2071 0.959 . S
H2056 C2071 0.959 . S
H2057 C2071 0.961 1_556 S
H2058 C2072 0.960 . S
H2059 C2072 0.961 1_554 S
H2060 C2072 0.959 . S
H2061 C2075 0.929 . S
H2062 C2076 0.931 . S
H2063 C2078 0.930 . S
C2064 H2052 0.930 . S
C2064 C2065 1.399 . S
C2064 C2069 1.399 . S
C2065 C2064 1.399 . S
C2065 C2066 1.376 . S
C2066 H2053 0.930 . S
C2066 C2065 1.376 . S
C2066 C2067 1.388 . S
C2067 H2054 0.930 . S
C2067 C2066 1.388 . S
C2067 C2068 1.390 . S
C2068 C2067 1.390 . S
C2068 C2069 1.394 . S
C2068 C2074 1.465 1_556 S
C2069 C2064 1.399 . S
C2069 C2068 1.394 . S
C2069 C2070 1.533 . S
C2070 C2069 1.533 . S
C2070 C2071 1.500 1_556 S
C2070 C2072 1.563 . S
C2070 C2073 1.509 1_556 S
C2071 H2055 0.959 . S
C2071 H2056 0.959 . S
C2071 H2057 0.961 1_554 S
C2071 C2070 1.500 1_554 S
C2072 H2058 0.960 . S
C2072 H2059 0.961 1_556 S
C2072 H2060 0.959 . S
C2072 C2070 1.563 . S
C2073 C2070 1.509 1_554 S
C2073 C2074 1.396 . S
C2073 C2078 1.390 . S
C2074 C2068 1.465 1_554 S
C2074 C2073 1.396 . S
C2074 C2075 1.399 . S
C2075 H2061 0.929 . S
C2075 C2074 1.399 . S
C2075 C2076 1.385 . S
C2076 H2062 0.931 . S
C2076 C2075 1.385 . S
C2076 C2077 1.389 . S
C2077 C2076 1.389 . S
C2077 C2078 1.387 . S
C2078 H2063 0.930 . S
C2078 C2073 1.390 . S
C2078 C2077 1.387 . S
H2079 C2091 0.930 . S
H2080 C2093 0.930 . S
H2081 C2094 0.930 . S
H2082 C2098 0.959 . S
H2083 C2098 0.959 . S
H2084 C2098 0.961 . S
H2085 C2099 0.960 . S
H2086 C2099 0.961 . S
H2087 C2099 0.959 . S
H2088 C2102 0.929 . S
H2089 C2103 0.931 . S
H2090 C2105 0.930 . S
C2091 H2079 0.930 . S
C2091 C2092 1.399 . S
C2091 C2096 1.399 . S
C2092 C2091 1.399 . S
C2092 C2093 1.376 . S
C2093 H2080 0.930 . S
C2093 C2092 1.376 . S
C2093 C2094 1.388 . S
C2094 H2081 0.930 . S
C2094 C2093 1.388 . S
C2094 C2095 1.390 . S
C2095 C2094 1.390 . S
C2095 C2096 1.394 . S
C2095 C2101 1.465 . S
C2096 C2091 1.399 . S
C2096 C2095 1.394 . S
C2096 C2097 1.516 . S
C2097 C2096 1.516 . S
C2097 C2098 1.502 . S
C2097 C2099 1.561 . S
C2097 C2100 1.526 . S
C2098 H2082 0.959 . S
C2098 H2083 0.959 . S
C2098 H2084 0.961 . S
C2098 C2097 1.502 . S
C2099 H2085 0.960 . S
C2099 H2086 0.961 . S
C2099 H2087 0.959 . S
C2099 C2097 1.561 . S
C2100 C2097 1.526 . S
C2100 C2101 1.396 . S
C2100 C2105 1.390 . S
C2101 C2095 1.465 . S
C2101 C2100 1.396 . S
C2101 C2102 1.399 . S
C2102 H2088 0.929 . S
C2102 C2101 1.399 . S
C2102 C2103 1.385 . S
C2103 H2089 0.931 . S
C2103 C2102 1.385 . S
C2103 C2104 1.389 . S
C2104 C2103 1.389 . S
C2104 C2105 1.387 . S
C2105 H2090 0.930 . S
C2105 C2100 1.390 . S
C2105 C2104 1.387 . S
H2106 C2118 0.930 . S
H2107 C2120 0.930 . S
H2108 C2121 0.930 . S
H2109 C2125 0.959 . S
H2110 C2125 0.959 . S
H2111 C2125 0.961 . S
H2112 C2126 0.960 . S
H2113 C2126 0.961 . S
H2114 C2126 0.959 . S
H2115 C2129 0.929 . S
H2116 C2130 0.931 . S
H2117 C2132 0.930 . S
C2118 H2106 0.930 . S
C2118 C2119 1.399 . S
C2118 C2123 1.399 . S
C2119 C2118 1.399 . S
C2119 C2120 1.376 . S
C2120 H2107 0.930 . S
C2120 C2119 1.376 . S
C2120 C2121 1.388 . S
C2121 H2108 0.930 . S
C2121 C2120 1.388 . S
C2121 C2122 1.390 . S
C2122 C2121 1.390 . S
C2122 C2123 1.394 . S
C2122 C2128 1.465 . S
C2123 C2118 1.399 . S
C2123 C2122 1.394 . S
C2123 C2124 1.516 . S
C2124 C2123 1.516 . S
C2124 C2125 1.502 . S
C2124 C2126 1.561 . S
C2124 C2127 1.526 . S
C2125 H2109 0.959 . S
C2125 H2110 0.959 . S
C2125 H2111 0.961 . S
C2125 C2124 1.502 . S
C2126 H2112 0.960 . S
C2126 H2113 0.961 . S
C2126 H2114 0.959 . S
C2126 C2124 1.561 . S
C2127 C2124 1.526 . S
C2127 C2128 1.396 . S
C2127 C2132 1.390 . S
C2128 C2122 1.465 . S
C2128 C2127 1.396 . S
C2128 C2129 1.399 . S
C2129 H2115 0.929 . S
C2129 C2128 1.399 . S
C2129 C2130 1.385 . S
C2130 H2116 0.931 . S
C2130 C2129 1.385 . S
C2130 C2131 1.389 . S
C2131 C2130 1.389 . S
C2131 C2132 1.387 . S
C2132 H2117 0.930 . S
C2132 C2127 1.390 . S
C2132 C2131 1.387 . S
H2133 C2145 0.930 . S
H2134 C2147 0.930 . S
H2135 C2148 0.930 . S
H2136 C2152 0.959 . S
H2137 C2152 0.959 . S
H2138 C2152 0.961 . S
H2139 C2153 0.960 . S
H2140 C2153 0.961 . S
H2141 C2153 0.959 . S
H2142 C2156 0.929 . S
H2143 C2157 0.931 . S
H2144 C2159 0.930 . S
C2145 H2133 0.930 . S
C2145 C2146 1.399 . S
C2145 C2150 1.399 . S
C2146 C2145 1.399 . S
C2146 C2147 1.376 . S
C2147 H2134 0.930 . S
C2147 C2146 1.376 . S
C2147 C2148 1.388 . S
C2148 H2135 0.930 . S
C2148 C2147 1.388 . S
C2148 C2149 1.390 . S
C2149 C2148 1.390 . S
C2149 C2150 1.394 . S
C2149 C2155 1.465 . S
C2150 C2145 1.399 . S
C2150 C2149 1.394 . S
C2150 C2151 1.516 . S
C2151 C2150 1.516 . S
C2151 C2152 1.502 . S
C2151 C2153 1.561 . S
C2151 C2154 1.526 . S
C2152 H2136 0.959 . S
C2152 H2137 0.959 . S
C2152 H2138 0.961 . S
C2152 C2151 1.502 . S
C2153 H2139 0.960 . S
C2153 H2140 0.961 . S
C2153 H2141 0.959 . S
C2153 C2151 1.561 . S
C2154 C2151 1.526 . S
C2154 C2155 1.396 . S
C2154 C2159 1.390 . S
C2155 C2149 1.465 . S
C2155 C2154 1.396 . S
C2155 C2156 1.399 . S
C2156 H2142 0.929 . S
C2156 C2155 1.399 . S
C2156 C2157 1.385 . S
C2157 H2143 0.931 . S
C2157 C2156 1.385 . S
C2157 C2158 1.389 . S
C2158 C2157 1.389 . S
C2158 C2159 1.387 . S
C2159 H2144 0.930 . S
C2159 C2154 1.390 . S
C2159 C2158 1.387 . S
H2160 C2172 0.930 . S
H2161 C2174 0.930 . S
H2162 C2175 0.930 . S
H2163 C2179 0.959 . S
H2164 C2179 0.959 . S
H2165 C2179 0.961 . S
H2166 C2180 0.960 . S
H2167 C2180 0.961 . S
H2168 C2180 0.959 . S
H2169 C2183 0.929 . S
H2170 C2184 0.931 . S
H2171 C2186 0.930 . S
C2172 H2160 0.930 . S
C2172 C2173 1.399 . S
C2172 C2177 1.399 . S
C2173 C2172 1.399 . S
C2173 C2174 1.376 . S
C2174 H2161 0.930 . S
C2174 C2173 1.376 . S
C2174 C2175 1.388 . S
C2175 H2162 0.930 . S
C2175 C2174 1.388 . S
C2175 C2176 1.390 . S
C2176 C2175 1.390 . S
C2176 C2177 1.394 . S
C2176 C2182 1.465 . S
C2177 C2172 1.399 . S
C2177 C2176 1.394 . S
C2177 C2178 1.516 . S
C2178 C2177 1.516 . S
C2178 C2179 1.502 . S
C2178 C2180 1.561 . S
C2178 C2181 1.526 . S
C2179 H2163 0.959 . S
C2179 H2164 0.959 . S
C2179 H2165 0.961 . S
C2179 C2178 1.502 . S
C2180 H2166 0.960 . S
C2180 H2167 0.961 . S
C2180 H2168 0.959 . S
C2180 C2178 1.561 . S
C2181 C2178 1.526 . S
C2181 C2182 1.396 . S
C2181 C2186 1.390 . S
C2182 C2176 1.465 . S
C2182 C2181 1.396 . S
C2182 C2183 1.399 . S
C2183 H2169 0.929 . S
C2183 C2182 1.399 . S
C2183 C2184 1.385 . S
C2184 H2170 0.931 . S
C2184 C2183 1.385 . S
C2184 C2185 1.389 . S
C2185 C2184 1.389 . S
C2185 C2186 1.387 . S
C2186 H2171 0.930 . S
C2186 C2181 1.390 . S
C2186 C2185 1.387 . S
H2187 C2199 0.930 . S
H2188 C2201 0.930 . S
H2189 C2202 0.930 . S
H2190 C2206 0.959 . S
H2191 C2206 0.959 . S
H2192 C2206 0.961 . S
H2193 C2207 0.960 . S
H2194 C2207 0.961 . S
H2195 C2207 0.959 . S
H2196 C2210 0.929 . S
H2197 C2211 0.931 . S
H2198 C2213 0.930 . S
C2199 H2187 0.930 . S
C2199 C2200 1.399 . S
C2199 C2204 1.399 . S
C2200 C2199 1.399 . S
C2200 C2201 1.376 . S
C2201 H2188 0.930 . S
C2201 C2200 1.376 . S
C2201 C2202 1.388 . S
C2202 H2189 0.930 . S
C2202 C2201 1.388 . S
C2202 C2203 1.390 . S
C2203 C2202 1.390 . S
C2203 C2204 1.394 . S
C2203 C2209 1.465 . S
C2204 C2199 1.399 . S
C2204 C2203 1.394 . S
C2204 C2205 1.516 . S
C2205 C2204 1.516 . S
C2205 C2206 1.502 . S
C2205 C2207 1.561 . S
C2205 C2208 1.526 . S
C2206 H2190 0.959 . S
C2206 H2191 0.959 . S
C2206 H2192 0.961 . S
C2206 C2205 1.502 . S
C2207 H2193 0.960 . S
C2207 H2194 0.961 . S
C2207 H2195 0.959 . S
C2207 C2205 1.561 . S
C2208 C2205 1.526 . S
C2208 C2209 1.396 . S
C2208 C2213 1.390 . S
C2209 C2203 1.465 . S
C2209 C2208 1.396 . S
C2209 C2210 1.399 . S
C2210 H2196 0.929 . S
C2210 C2209 1.399 . S
C2210 C2211 1.385 . S
C2211 H2197 0.931 . S
C2211 C2210 1.385 . S
C2211 C2212 1.389 . S
C2212 C2211 1.389 . S
C2212 C2213 1.387 . S
C2213 H2198 0.930 . S
C2213 C2208 1.390 . S
C2213 C2212 1.387 . S
H2214 C2226 0.930 . S
H2215 C2228 0.930 . S
H2216 C2229 0.930 . S
H2217 C2233 0.959 . S
H2218 C2233 0.959 . S
H2219 C2233 0.961 . S
H2220 C2234 0.960 . S
H2221 C2234 0.961 . S
H2222 C2234 0.959 . S
H2223 C2237 0.929 . S
H2224 C2238 0.931 . S
H2225 C2240 0.930 . S
C2226 H2214 0.930 . S
C2226 C2227 1.399 . S
C2226 C2231 1.399 . S
C2227 C2226 1.399 . S
C2227 C2228 1.376 . S
C2228 H2215 0.930 . S
C2228 C2227 1.376 . S
C2228 C2229 1.388 . S
C2229 H2216 0.930 . S
C2229 C2228 1.388 . S
C2229 C2230 1.390 . S
C2230 C2229 1.390 . S
C2230 C2231 1.394 . S
C2230 C2236 1.465 . S
C2231 C2226 1.399 . S
C2231 C2230 1.394 . S
C2231 C2232 1.516 . S
C2232 C2231 1.516 . S
C2232 C2233 1.502 . S
C2232 C2234 1.561 . S
C2232 C2235 1.526 . S
C2233 H2217 0.959 . S
C2233 H2218 0.959 . S
C2233 H2219 0.961 . S
C2233 C2232 1.502 . S
C2234 H2220 0.960 . S
C2234 H2221 0.961 . S
C2234 H2222 0.959 . S
C2234 C2232 1.561 . S
C2235 C2232 1.526 . S
C2235 C2236 1.396 . S
C2235 C2240 1.390 . S
C2236 C2230 1.465 . S
C2236 C2235 1.396 . S
C2236 C2237 1.399 . S
C2237 H2223 0.929 . S
C2237 C2236 1.399 . S
C2237 C2238 1.385 . S
C2238 H2224 0.931 . S
C2238 C2237 1.385 . S
C2238 C2239 1.389 . S
C2239 C2238 1.389 . S
C2239 C2240 1.387 . S
C2240 H2225 0.930 . S
C2240 C2235 1.390 . S
C2240 C2239 1.387 . S
H2241 C2253 0.930 . S
H2242 C2255 0.930 . S
H2243 C2256 0.930 . S
H2244 C2260 0.959 . S
H2245 C2260 0.959 1_545 S
H2246 C2260 0.961 . S
H2247 C2261 0.960 . S
H2248 C2261 0.961 . S
H2249 C2261 0.959 . S
H2250 C2264 0.929 . S
H2251 C2265 0.931 . S
H2252 C2267 0.930 . S
C2253 H2241 0.930 . S
C2253 C2254 1.399 . S
C2253 C2258 1.399 . S
C2254 C2253 1.399 . S
C2254 C2255 1.376 . S
C2255 H2242 0.930 . S
C2255 C2254 1.376 . S
C2255 C2256 1.388 . S
C2256 H2243 0.930 . S
C2256 C2255 1.388 . S
C2256 C2257 1.390 . S
C2257 C2256 1.390 . S
C2257 C2258 1.394 . S
C2257 C2263 1.465 . S
C2258 C2253 1.399 . S
C2258 C2257 1.394 . S
C2258 C2259 1.516 . S
C2259 C2258 1.516 . S
C2259 C2260 1.502 . S
C2259 C2261 1.561 . S
C2259 C2262 1.526 . S
C2260 H2244 0.959 . S
C2260 H2245 0.959 1_565 S
C2260 H2246 0.961 . S
C2260 C2259 1.502 . S
C2261 H2247 0.960 . S
C2261 H2248 0.961 . S
C2261 H2249 0.959 . S
C2261 C2259 1.561 . S
C2262 C2259 1.526 . S
C2262 C2263 1.396 . S
C2262 C2267 1.390 . S
C2263 C2257 1.465 . S
C2263 C2262 1.396 . S
C2263 C2264 1.399 . S
C2264 H2250 0.929 . S
C2264 C2263 1.399 . S
C2264 C2265 1.385 . S
C2265 H2251 0.931 . S
C2265 C2264 1.385 . S
C2265 C2266 1.389 . S
C2266 C2265 1.389 . S
C2266 C2267 1.387 . S
C2267 H2252 0.930 . S
C2267 C2262 1.390 . S
C2267 C2266 1.387 . S
H2268 C2280 0.930 . S
H2269 C2282 0.930 . S
H2270 C2283 0.930 . S
H2271 C2287 0.959 . S
H2272 C2287 0.959 . S
H2273 C2287 0.961 . S
H2274 C2288 0.960 . S
H2275 C2288 0.961 . S
H2276 C2288 0.959 . S
H2277 C2291 0.929 . S
H2278 C2292 0.931 . S
H2279 C2294 0.930 . S
C2280 H2268 0.930 . S
C2280 C2281 1.399 . S
C2280 C2285 1.399 . S
C2281 C2280 1.399 . S
C2281 C2282 1.376 . S
C2282 H2269 0.930 . S
C2282 C2281 1.376 . S
C2282 C2283 1.388 . S
C2283 H2270 0.930 . S
C2283 C2282 1.388 . S
C2283 C2284 1.390 . S
C2284 C2283 1.390 . S
C2284 C2285 1.394 . S
C2284 C2290 1.465 . S
C2285 C2280 1.399 . S
C2285 C2284 1.394 . S
C2285 C2286 1.516 . S
C2286 C2285 1.516 . S
C2286 C2287 1.502 . S
C2286 C2288 1.561 . S
C2286 C2289 1.526 . S
C2287 H2271 0.959 . S
C2287 H2272 0.959 . S
C2287 H2273 0.961 . S
C2287 C2286 1.502 . S
C2288 H2274 0.960 . S
C2288 H2275 0.961 . S
C2288 H2276 0.959 . S
C2288 C2286 1.561 . S
C2289 C2286 1.526 . S
C2289 C2290 1.396 . S
C2289 C2294 1.390 . S
C2290 C2284 1.465 . S
C2290 C2289 1.396 . S
C2290 C2291 1.399 . S
C2291 H2277 0.929 . S
C2291 C2290 1.399 . S
C2291 C2292 1.385 . S
C2292 H2278 0.931 . S
C2292 C2291 1.385 . S
C2292 C2293 1.389 . S
C2293 C2292 1.389 . S
C2293 C2294 1.387 . S
C2294 H2279 0.930 . S
C2294 C2289 1.390 . S
C2294 C2293 1.387 . S
H2295 C2307 0.930 . S
H2296 C2309 0.930 . S
H2297 C2310 0.930 . S
H2298 C2314 0.959 . S
H2299 C2314 0.959 . S
H2300 C2314 0.961 . S
H2301 C2315 0.960 . S
H2302 C2315 0.961 . S
H2303 C2315 0.959 . S
H2304 C2318 0.929 . S
H2305 C2319 0.931 . S
H2306 C2321 0.930 . S
C2307 H2295 0.930 . S
C2307 C2308 1.399 . S
C2307 C2312 1.399 . S
C2308 C2307 1.399 . S
C2308 C2309 1.376 . S
C2309 H2296 0.930 . S
C2309 C2308 1.376 . S
C2309 C2310 1.388 . S
C2310 H2297 0.930 . S
C2310 C2309 1.388 . S
C2310 C2311 1.390 . S
C2311 C2310 1.390 . S
C2311 C2312 1.394 . S
C2311 C2317 1.465 . S
C2312 C2307 1.399 . S
C2312 C2311 1.394 . S
C2312 C2313 1.516 . S
C2313 C2312 1.516 . S
C2313 C2314 1.502 . S
C2313 C2315 1.561 . S
C2313 C2316 1.526 . S
C2314 H2298 0.959 . S
C2314 H2299 0.959 . S
C2314 H2300 0.961 . S
C2314 C2313 1.502 . S
C2315 H2301 0.960 . S
C2315 H2302 0.961 . S
C2315 H2303 0.959 . S
C2315 C2313 1.561 . S
C2316 C2313 1.526 . S
C2316 C2317 1.396 . S
C2316 C2321 1.390 . S
C2317 C2311 1.465 . S
C2317 C2316 1.396 . S
C2317 C2318 1.399 . S
C2318 H2304 0.929 . S
C2318 C2317 1.399 . S
C2318 C2319 1.385 . S
C2319 H2305 0.931 . S
C2319 C2318 1.385 . S
C2319 C2320 1.389 . S
C2320 C2319 1.389 . S
C2320 C2321 1.387 . S
C2321 H2306 0.930 . S
C2321 C2316 1.390 . S
C2321 C2320 1.387 . S
H2322 C2334 0.930 . S
H2323 C2336 0.930 . S
H2324 C2337 0.930 . S
H2325 C2341 0.959 . S
H2326 C2341 0.959 . S
H2327 C2341 0.961 . S
H2328 C2342 0.960 . S
H2329 C2342 0.961 . S
H2330 C2342 0.959 . S
H2331 C2345 0.929 . S
H2332 C2346 0.931 . S
H2333 C2348 0.930 . S
C2334 H2322 0.930 . S
C2334 C2335 1.399 . S
C2334 C2339 1.399 . S
C2335 C2334 1.399 . S
C2335 C2336 1.376 . S
C2336 H2323 0.930 . S
C2336 C2335 1.376 . S
C2336 C2337 1.388 . S
C2337 H2324 0.930 . S
C2337 C2336 1.388 . S
C2337 C2338 1.390 . S
C2338 C2337 1.390 . S
C2338 C2339 1.394 . S
C2338 C2344 1.465 . S
C2339 C2334 1.399 . S
C2339 C2338 1.394 . S
C2339 C2340 1.516 . S
C2340 C2339 1.516 . S
C2340 C2341 1.502 . S
C2340 C2342 1.561 . S
C2340 C2343 1.526 . S
C2341 H2325 0.959 . S
C2341 H2326 0.959 . S
C2341 H2327 0.961 . S
C2341 C2340 1.502 . S
C2342 H2328 0.960 . S
C2342 H2329 0.961 . S
C2342 H2330 0.959 . S
C2342 C2340 1.561 . S
C2343 C2340 1.526 . S
C2343 C2344 1.396 . S
C2343 C2348 1.390 . S
C2344 C2338 1.465 . S
C2344 C2343 1.396 . S
C2344 C2345 1.399 . S
C2345 H2331 0.929 . S
C2345 C2344 1.399 . S
C2345 C2346 1.385 . S
C2346 H2332 0.931 . S
C2346 C2345 1.385 . S
C2346 C2347 1.389 . S
C2347 C2346 1.389 . S
C2347 C2348 1.387 . S
C2348 H2333 0.930 . S
C2348 C2343 1.390 . S
C2348 C2347 1.387 . S
H2349 C2361 0.930 . S
H2350 C2363 0.930 . S
H2351 C2364 0.930 . S
H2352 C2368 0.959 . S
H2353 C2368 0.959 . S
H2354 C2368 0.961 . S
H2355 C2369 0.960 . S
H2356 C2369 0.961 . S
H2357 C2369 0.959 . S
H2358 C2372 0.929 . S
H2359 C2373 0.931 . S
H2360 C2375 0.930 . S
C2361 H2349 0.930 . S
C2361 C2362 1.399 . S
C2361 C2366 1.399 . S
C2362 C2361 1.399 . S
C2362 C2363 1.376 . S
C2363 H2350 0.930 . S
C2363 C2362 1.376 . S
C2363 C2364 1.388 . S
C2364 H2351 0.930 . S
C2364 C2363 1.388 . S
C2364 C2365 1.390 . S
C2365 C2364 1.390 . S
C2365 C2366 1.394 . S
C2365 C2371 1.465 . S
C2366 C2361 1.399 . S
C2366 C2365 1.394 . S
C2366 C2367 1.516 . S
C2367 C2366 1.516 . S
C2367 C2368 1.502 . S
C2367 C2369 1.561 . S
C2367 C2370 1.526 . S
C2368 H2352 0.959 . S
C2368 H2353 0.959 . S
C2368 H2354 0.961 . S
C2368 C2367 1.502 . S
C2369 H2355 0.960 . S
C2369 H2356 0.961 . S
C2369 H2357 0.959 . S
C2369 C2367 1.561 . S
C2370 C2367 1.526 . S
C2370 C2371 1.396 . S
C2370 C2375 1.390 . S
C2371 C2365 1.465 . S
C2371 C2370 1.396 . S
C2371 C2372 1.399 . S
C2372 H2358 0.929 . S
C2372 C2371 1.399 . S
C2372 C2373 1.385 . S
C2373 H2359 0.931 . S
C2373 C2372 1.385 . S
C2373 C2374 1.389 . S
C2374 C2373 1.389 . S
C2374 C2375 1.387 . S
C2375 H2360 0.930 . S
C2375 C2370 1.390 . S
C2375 C2374 1.387 . S
H2376 C2388 0.930 . S
H2377 C2390 0.930 . S
H2378 C2391 0.930 . S
H2379 C2395 0.959 . S
H2380 C2395 0.959 . S
H2381 C2395 0.961 . S
H2382 C2396 0.960 . S
H2383 C2396 0.961 . S
H2384 C2396 0.959 . S
H2385 C2399 0.929 . S
H2386 C2400 0.931 . S
H2387 C2402 0.930 . S
C2388 H2376 0.930 . S
C2388 C2389 1.399 . S
C2388 C2393 1.399 . S
C2389 C2388 1.399 . S
C2389 C2390 1.376 . S
C2390 H2377 0.930 . S
C2390 C2389 1.376 . S
C2390 C2391 1.388 . S
C2391 H2378 0.930 . S
C2391 C2390 1.388 . S
C2391 C2392 1.390 . S
C2392 C2391 1.390 . S
C2392 C2393 1.394 . S
C2392 C2398 1.465 . S
C2393 C2388 1.399 . S
C2393 C2392 1.394 . S
C2393 C2394 1.516 . S
C2394 C2393 1.516 . S
C2394 C2395 1.502 . S
C2394 C2396 1.561 . S
C2394 C2397 1.526 . S
C2395 H2379 0.959 . S
C2395 H2380 0.959 . S
C2395 H2381 0.961 . S
C2395 C2394 1.502 . S
C2396 H2382 0.960 . S
C2396 H2383 0.961 . S
C2396 H2384 0.959 . S
C2396 C2394 1.561 . S
C2397 C2394 1.526 . S
C2397 C2398 1.396 . S
C2397 C2402 1.390 . S
C2398 C2392 1.465 . S
C2398 C2397 1.396 . S
C2398 C2399 1.399 . S
C2399 H2385 0.929 . S
C2399 C2398 1.399 . S
C2399 C2400 1.385 . S
C2400 H2386 0.931 . S
C2400 C2399 1.385 . S
C2400 C2401 1.389 . S
C2401 C2400 1.389 . S
C2401 C2402 1.387 . S
C2402 H2387 0.930 . S
C2402 C2397 1.390 . S
C2402 C2401 1.387 . S
H2403 C2415 0.930 . S
H2404 C2417 0.930 . S
H2405 C2418 0.930 . S
H2406 C2422 0.959 1_455 S
H2407 C2422 0.959 . S
H2408 C2422 0.961 . S
H2409 C2423 0.960 . S
H2410 C2423 0.961 . S
H2411 C2423 0.959 . S
H2412 C2426 0.929 . S
H2413 C2427 0.931 . S
H2414 C2429 0.930 . S
C2415 H2403 0.930 . S
C2415 C2416 1.399 . S
C2415 C2420 1.399 . S
C2416 C2415 1.399 . S
C2416 C2417 1.376 . S
C2417 H2404 0.930 . S
C2417 C2416 1.376 . S
C2417 C2418 1.388 1_655 S
C2418 H2405 0.930 . S
C2418 C2417 1.388 1_455 S
C2418 C2419 1.390 . S
C2419 C2418 1.390 . S
C2419 C2420 1.394 1_455 S
C2419 C2425 1.465 . S
C2420 C2415 1.399 . S
C2420 C2419 1.394 1_655 S
C2420 C2421 1.516 . S
C2421 C2420 1.516 . S
C2421 C2422 1.502 . S
C2421 C2423 1.561 . S
C2421 C2424 1.526 1_655 S
C2422 H2406 0.959 1_655 S
C2422 H2407 0.959 . S
C2422 H2408 0.961 . S
C2422 C2421 1.502 . S
C2423 H2409 0.960 . S
C2423 H2410 0.961 . S
C2423 H2411 0.959 . S
C2423 C2421 1.561 . S
C2424 C2421 1.526 1_455 S
C2424 C2425 1.396 . S
C2424 C2429 1.390 . S
C2425 C2419 1.465 . S
C2425 C2424 1.396 . S
C2425 C2426 1.399 . S
C2426 H2412 0.929 . S
C2426 C2425 1.399 . S
C2426 C2427 1.385 . S
C2427 H2413 0.931 . S
C2427 C2426 1.385 . S
C2427 C2428 1.389 . S
C2428 C2427 1.389 . S
C2428 C2429 1.387 . S
C2429 H2414 0.930 . S
C2429 C2424 1.390 . S
C2429 C2428 1.387 . S
H2430 C2442 0.930 . S
H2431 C2444 0.930 . S
H2432 C2445 0.930 . S
H2433 C2449 0.959 . S
H2434 C2449 0.959 . S
H2435 C2449 0.961 . S
H2436 C2450 0.960 . S
H2437 C2450 0.961 . S
H2438 C2450 0.959 . S
H2439 C2453 0.929 . S
H2440 C2454 0.931 . S
H2441 C2456 0.930 . S
C2442 H2430 0.930 . S
C2442 C2443 1.399 . S
C2442 C2447 1.399 . S
C2443 C2442 1.399 . S
C2443 C2444 1.376 . S
C2444 H2431 0.930 . S
C2444 C2443 1.376 . S
C2444 C2445 1.388 . S
C2445 H2432 0.930 . S
C2445 C2444 1.388 . S
C2445 C2446 1.390 . S
C2446 C2445 1.390 . S
C2446 C2447 1.394 . S
C2446 C2452 1.465 . S
C2447 C2442 1.399 . S
C2447 C2446 1.394 . S
C2447 C2448 1.516 . S
C2448 C2447 1.516 . S
C2448 C2449 1.502 . S
C2448 C2450 1.561 . S
C2448 C2451 1.526 . S
C2449 H2433 0.959 . S
C2449 H2434 0.959 . S
C2449 H2435 0.961 . S
C2449 C2448 1.502 . S
C2450 H2436 0.960 . S
C2450 H2437 0.961 . S
C2450 H2438 0.959 . S
C2450 C2448 1.561 . S
C2451 C2448 1.526 . S
C2451 C2452 1.396 . S
C2451 C2456 1.390 . S
C2452 C2446 1.465 . S
C2452 C2451 1.396 . S
C2452 C2453 1.399 . S
C2453 H2439 0.929 . S
C2453 C2452 1.399 . S
C2453 C2454 1.385 . S
C2454 H2440 0.931 . S
C2454 C2453 1.385 . S
C2454 C2455 1.389 . S
C2455 C2454 1.389 . S
C2455 C2456 1.387 . S
C2456 H2441 0.930 . S
C2456 C2451 1.390 . S
C2456 C2455 1.387 . S
H2457 C2469 0.930 . S
H2458 C2471 0.930 . S
H2459 C2472 0.930 . S
H2460 C2476 0.959 . S
H2461 C2476 0.959 . S
H2462 C2476 0.961 . S
H2463 C2477 0.960 . S
H2464 C2477 0.960 1_545 S
H2465 C2477 0.959 1_545 S
H2466 C2480 0.929 . S
H2467 C2481 0.931 . S
H2468 C2483 0.930 . S
C2469 H2457 0.930 . S
C2469 C2470 1.399 . S
C2469 C2474 1.399 . S
C2470 C2469 1.399 . S
C2470 C2471 1.376 . S
C2471 H2458 0.930 . S
C2471 C2470 1.376 . S
C2471 C2472 1.388 1_565 S
C2472 H2459 0.930 . S
C2472 C2471 1.388 1_545 S
C2472 C2473 1.390 . S
C2473 C2472 1.390 . S
C2473 C2474 1.394 1_545 S
C2473 C2479 1.465 . S
C2474 C2469 1.399 . S
C2474 C2473 1.394 1_565 S
C2474 C2475 1.516 . S
C2475 C2474 1.516 . S
C2475 C2476 1.502 . S
C2475 C2477 1.561 . S
C2475 C2478 1.526 1_565 S
C2476 H2460 0.959 . S
C2476 H2461 0.959 . S
C2476 H2462 0.961 . S
C2476 C2475 1.502 . S
C2477 H2463 0.960 . S
C2477 H2464 0.960 1_565 S
C2477 H2465 0.959 1_565 S
C2477 C2475 1.561 . S
C2478 C2475 1.526 1_545 S
C2478 C2479 1.396 . S
C2478 C2483 1.390 . S
C2479 C2473 1.465 . S
C2479 C2478 1.396 . S
C2479 C2480 1.399 . S
C2480 H2466 0.929 . S
C2480 C2479 1.399 . S
C2480 C2481 1.385 . S
C2481 H2467 0.931 . S
C2481 C2480 1.385 . S
C2481 C2482 1.389 . S
C2482 C2481 1.389 . S
C2482 C2483 1.387 . S
C2483 H2468 0.930 . S
C2483 C2478 1.390 . S
C2483 C2482 1.387 . S
H2484 C2496 0.930 . S
H2485 C2498 0.930 . S
H2486 C2499 0.930 . S
H2487 C2503 0.959 . S
H2488 C2503 0.959 . S
H2489 C2503 0.961 . S
H2490 C2504 0.960 . S
H2491 C2504 0.961 . S
H2492 C2504 0.959 . S
H2493 C2507 0.929 . S
H2494 C2508 0.931 . S
H2495 C2510 0.930 . S
C2496 H2484 0.930 . S
C2496 C2497 1.399 . S
C2496 C2501 1.399 . S
C2497 C2496 1.399 . S
C2497 C2498 1.376 . S
C2498 H2485 0.930 . S
C2498 C2497 1.376 . S
C2498 C2499 1.388 . S
C2499 H2486 0.930 . S
C2499 C2498 1.388 . S
C2499 C2500 1.390 . S
C2500 C2499 1.390 . S
C2500 C2501 1.394 . S
C2500 C2506 1.465 . S
C2501 C2496 1.399 . S
C2501 C2500 1.394 . S
C2501 C2502 1.516 . S
C2502 C2501 1.516 . S
C2502 C2503 1.502 . S
C2502 C2504 1.561 . S
C2502 C2505 1.526 . S
C2503 H2487 0.959 . S
C2503 H2488 0.959 . S
C2503 H2489 0.961 . S
C2503 C2502 1.502 . S
C2504 H2490 0.960 . S
C2504 H2491 0.961 . S
C2504 H2492 0.959 . S
C2504 C2502 1.561 . S
C2505 C2502 1.526 . S
C2505 C2506 1.396 . S
C2505 C2510 1.390 . S
C2506 C2500 1.465 . S
C2506 C2505 1.396 . S
C2506 C2507 1.399 . S
C2507 H2493 0.929 . S
C2507 C2506 1.399 . S
C2507 C2508 1.385 . S
C2508 H2494 0.931 . S
C2508 C2507 1.385 . S
C2508 C2509 1.389 . S
C2509 C2508 1.389 . S
C2509 C2510 1.387 . S
C2510 H2495 0.930 . S
C2510 C2505 1.390 . S
C2510 C2509 1.387 . S
H2511 C2523 0.930 . S
H2512 C2525 0.930 . S
H2513 C2526 0.930 . S
H2514 C2530 0.959 . S
H2515 C2530 0.959 . S
H2516 C2530 0.961 . S
H2517 C2531 0.960 . S
H2518 C2531 0.961 . S
H2519 C2531 0.959 . S
H2520 C2534 0.929 . S
H2521 C2535 0.931 . S
H2522 C2537 0.930 . S
C2523 H2511 0.930 . S
C2523 C2524 1.399 . S
C2523 C2528 1.399 . S
C2524 C2523 1.399 . S
C2524 C2525 1.376 . S
C2525 H2512 0.930 . S
C2525 C2524 1.376 . S
C2525 C2526 1.388 . S
C2526 H2513 0.930 . S
C2526 C2525 1.388 . S
C2526 C2527 1.390 . S
C2527 C2526 1.390 . S
C2527 C2528 1.394 . S
C2527 C2533 1.465 . S
C2528 C2523 1.399 . S
C2528 C2527 1.394 . S
C2528 C2529 1.516 . S
C2529 C2528 1.516 . S
C2529 C2530 1.502 . S
C2529 C2531 1.561 . S
C2529 C2532 1.526 . S
C2530 H2514 0.959 . S
C2530 H2515 0.959 . S
C2530 H2516 0.961 . S
C2530 C2529 1.502 . S
C2531 H2517 0.960 . S
C2531 H2518 0.961 . S
C2531 H2519 0.959 . S
C2531 C2529 1.561 . S
C2532 C2529 1.526 . S
C2532 C2533 1.396 . S
C2532 C2537 1.390 . S
C2533 C2527 1.465 . S
C2533 C2532 1.396 . S
C2533 C2534 1.399 . S
C2534 H2520 0.929 . S
C2534 C2533 1.399 . S
C2534 C2535 1.385 . S
C2535 H2521 0.931 . S
C2535 C2534 1.385 . S
C2535 C2536 1.389 . S
C2536 C2535 1.389 . S
C2536 C2537 1.387 . S
C2537 H2522 0.930 . S
C2537 C2532 1.390 . S
C2537 C2536 1.387 . S
H2538 C2550 0.930 . S
H2539 C2552 0.930 . S
H2540 C2553 0.930 . S
H2541 C2557 0.959 . S
H2542 C2557 0.959 . S
H2543 C2557 0.961 . S
H2544 C2558 0.960 . S
H2545 C2558 0.961 . S
H2546 C2558 0.959 . S
H2547 C2561 0.929 . S
H2548 C2562 0.931 . S
H2549 C2564 0.930 . S
C2550 H2538 0.930 . S
C2550 C2551 1.399 . S
C2550 C2555 1.399 . S
C2551 C2550 1.399 . S
C2551 C2552 1.376 . S
C2552 H2539 0.930 . S
C2552 C2551 1.376 . S
C2552 C2553 1.388 . S
C2553 H2540 0.930 . S
C2553 C2552 1.388 . S
C2553 C2554 1.390 . S
C2554 C2553 1.390 . S
C2554 C2555 1.394 . S
C2554 C2560 1.465 . S
C2555 C2550 1.399 . S
C2555 C2554 1.394 . S
C2555 C2556 1.516 . S
C2556 C2555 1.516 . S
C2556 C2557 1.502 . S
C2556 C2558 1.561 . S
C2556 C2559 1.526 . S
C2557 H2541 0.959 . S
C2557 H2542 0.959 . S
C2557 H2543 0.961 . S
C2557 C2556 1.502 . S
C2558 H2544 0.960 . S
C2558 H2545 0.961 . S
C2558 H2546 0.959 . S
C2558 C2556 1.561 . S
C2559 C2556 1.526 . S
C2559 C2560 1.396 . S
C2559 C2564 1.390 . S
C2560 C2554 1.465 . S
C2560 C2559 1.396 . S
C2560 C2561 1.399 . S
C2561 H2547 0.929 . S
C2561 C2560 1.399 . S
C2561 C2562 1.385 . S
C2562 H2548 0.931 . S
C2562 C2561 1.385 . S
C2562 C2563 1.389 . S
C2563 C2562 1.389 . S
C2563 C2564 1.387 . S
C2564 H2549 0.930 . S
C2564 C2559 1.390 . S
C2564 C2563 1.387 . S
H2565 C2577 0.930 . S
H2566 C2579 0.930 . S
H2567 C2580 0.930 . S
H2568 C2584 0.959 . S
H2569 C2584 0.959 . S
H2570 C2584 0.961 . S
H2571 C2585 0.960 . S
H2572 C2585 0.961 . S
H2573 C2585 0.959 . S
H2574 C2588 0.929 . S
H2575 C2589 0.931 . S
H2576 C2591 0.930 . S
C2577 H2565 0.930 . S
C2577 C2578 1.399 . S
C2577 C2582 1.399 . S
C2578 C2577 1.399 . S
C2578 C2579 1.376 . S
C2579 H2566 0.930 . S
C2579 C2578 1.376 . S
C2579 C2580 1.388 . S
C2580 H2567 0.930 . S
C2580 C2579 1.388 . S
C2580 C2581 1.390 . S
C2581 C2580 1.390 . S
C2581 C2582 1.394 . S
C2581 C2587 1.465 . S
C2582 C2577 1.399 . S
C2582 C2581 1.394 . S
C2582 C2583 1.516 . S
C2583 C2582 1.516 . S
C2583 C2584 1.502 . S
C2583 C2585 1.561 . S
C2583 C2586 1.526 . S
C2584 H2568 0.959 . S
C2584 H2569 0.959 . S
C2584 H2570 0.961 . S
C2584 C2583 1.502 . S
C2585 H2571 0.960 . S
C2585 H2572 0.961 . S
C2585 H2573 0.959 . S
C2585 C2583 1.561 . S
C2586 C2583 1.526 . S
C2586 C2587 1.396 . S
C2586 C2591 1.390 . S
C2587 C2581 1.465 . S
C2587 C2586 1.396 . S
C2587 C2588 1.399 . S
C2588 H2574 0.929 . S
C2588 C2587 1.399 . S
C2588 C2589 1.385 . S
C2589 H2575 0.931 . S
C2589 C2588 1.385 . S
C2589 C2590 1.389 . S
C2590 C2589 1.389 . S
C2590 C2591 1.387 . S
C2591 H2576 0.930 . S
C2591 C2586 1.390 . S
C2591 C2590 1.387 . S
H2592 C2604 0.930 . S
H2593 C2606 0.930 . S
H2594 C2607 0.930 . S
H2595 C2611 0.959 . S
H2596 C2611 0.959 . S
H2597 C2611 0.961 . S
H2598 C2612 0.960 . S
H2599 C2612 0.961 . S
H2600 C2612 0.959 . S
H2601 C2615 0.929 . S
H2602 C2616 0.931 . S
H2603 C2618 0.930 . S
C2604 H2592 0.930 . S
C2604 C2605 1.399 . S
C2604 C2609 1.399 . S
C2605 C2604 1.399 . S
C2605 C2606 1.376 . S
C2606 H2593 0.930 . S
C2606 C2605 1.376 . S
C2606 C2607 1.388 . S
C2607 H2594 0.930 . S
C2607 C2606 1.388 . S
C2607 C2608 1.390 . S
C2608 C2607 1.390 . S
C2608 C2609 1.394 . S
C2608 C2614 1.465 . S
C2609 C2604 1.399 . S
C2609 C2608 1.394 . S
C2609 C2610 1.516 . S
C2610 C2609 1.516 . S
C2610 C2611 1.502 . S
C2610 C2612 1.561 . S
C2610 C2613 1.526 . S
C2611 H2595 0.959 . S
C2611 H2596 0.959 . S
C2611 H2597 0.961 . S
C2611 C2610 1.502 . S
C2612 H2598 0.960 . S
C2612 H2599 0.961 . S
C2612 H2600 0.959 . S
C2612 C2610 1.561 . S
C2613 C2610 1.526 . S
C2613 C2614 1.396 . S
C2613 C2618 1.390 . S
C2614 C2608 1.465 . S
C2614 C2613 1.396 . S
C2614 C2615 1.399 . S
C2615 H2601 0.929 . S
C2615 C2614 1.399 . S
C2615 C2616 1.385 . S
C2616 H2602 0.931 . S
C2616 C2615 1.385 . S
C2616 C2617 1.389 . S
C2617 C2616 1.389 . S
C2617 C2618 1.387 . S
C2618 H2603 0.930 . S
C2618 C2613 1.390 . S
C2618 C2617 1.387 . S
H2619 C2631 0.930 . S
H2620 C2633 0.930 . S
H2621 C2634 0.930 . S
H2622 C2638 0.959 . S
H2623 C2638 0.959 . S
H2624 C2638 0.961 . S
H2625 C2639 0.960 . S
H2626 C2639 0.961 . S
H2627 C2639 0.959 . S
H2628 C2642 0.929 . S
H2629 C2643 0.931 . S
H2630 C2645 0.930 . S
C2631 H2619 0.930 . S
C2631 C2632 1.399 . S
C2631 C2636 1.399 . S
C2632 C2631 1.399 . S
C2632 C2633 1.376 . S
C2633 H2620 0.930 . S
C2633 C2632 1.376 . S
C2633 C2634 1.388 . S
C2634 H2621 0.930 . S
C2634 C2633 1.388 . S
C2634 C2635 1.390 . S
C2635 C2634 1.390 . S
C2635 C2636 1.394 . S
C2635 C2641 1.465 . S
C2636 C2631 1.399 . S
C2636 C2635 1.394 . S
C2636 C2637 1.516 . S
C2637 C2636 1.516 . S
C2637 C2638 1.502 . S
C2637 C2639 1.561 . S
C2637 C2640 1.526 . S
C2638 H2622 0.959 . S
C2638 H2623 0.959 . S
C2638 H2624 0.961 . S
C2638 C2637 1.502 . S
C2639 H2625 0.960 . S
C2639 H2626 0.961 . S
C2639 H2627 0.959 . S
C2639 C2637 1.561 . S
C2640 C2637 1.526 . S
C2640 C2641 1.396 . S
C2640 C2645 1.390 . S
C2641 C2635 1.465 . S
C2641 C2640 1.396 . S
C2641 C2642 1.399 . S
C2642 H2628 0.929 . S
C2642 C2641 1.399 . S
C2642 C2643 1.385 . S
C2643 H2629 0.931 . S
C2643 C2642 1.385 . S
C2643 C2644 1.389 . S
C2644 C2643 1.389 . S
C2644 C2645 1.387 . S
C2645 H2630 0.930 . S
C2645 C2640 1.390 . S
C2645 C2644 1.387 . S
H2646 C2658 0.930 . S
H2647 C2660 0.930 . S
H2648 C2661 0.930 . S
H2649 C2665 0.959 . S
H2650 C2665 0.959 . S
H2651 C2665 0.961 . S
H2652 C2666 0.960 . S
H2653 C2666 0.961 . S
H2654 C2666 0.959 . S
H2655 C2669 0.929 . S
H2656 C2670 0.931 . S
H2657 C2672 0.930 . S
C2658 H2646 0.930 . S
C2658 C2659 1.399 . S
C2658 C2663 1.399 . S
C2659 C2658 1.399 . S
C2659 C2660 1.376 . S
C2660 H2647 0.930 . S
C2660 C2659 1.376 . S
C2660 C2661 1.388 . S
C2661 H2648 0.930 . S
C2661 C2660 1.388 . S
C2661 C2662 1.390 . S
C2662 C2661 1.390 . S
C2662 C2663 1.394 . S
C2662 C2668 1.465 . S
C2663 C2658 1.399 . S
C2663 C2662 1.394 . S
C2663 C2664 1.516 . S
C2664 C2663 1.516 . S
C2664 C2665 1.502 . S
C2664 C2666 1.561 . S
C2664 C2667 1.526 . S
C2665 H2649 0.959 . S
C2665 H2650 0.959 . S
C2665 H2651 0.961 . S
C2665 C2664 1.502 . S
C2666 H2652 0.960 . S
C2666 H2653 0.961 . S
C2666 H2654 0.959 . S
C2666 C2664 1.561 . S
C2667 C2664 1.526 . S
C2667 C2668 1.396 . S
C2667 C2672 1.390 . S
C2668 C2662 1.465 . S
C2668 C2667 1.396 . S
C2668 C2669 1.399 . S
C2669 H2655 0.929 . S
C2669 C2668 1.399 . S
C2669 C2670 1.385 . S
C2670 H2656 0.931 . S
C2670 C2669 1.385 . S
C2670 C2671 1.389 . S
C2671 C2670 1.389 . S
C2671 C2672 1.387 . S
C2672 H2657 0.930 . S
C2672 C2667 1.390 . S
C2672 C2671 1.387 . S
H2673 C2685 0.930 . S
H2674 C2687 0.930 . S
H2675 C2688 0.930 . S
H2676 C2692 0.959 . S
H2677 C2692 0.959 . S
H2678 C2692 0.961 . S
H2679 C2693 0.960 . S
H2680 C2693 0.961 . S
H2681 C2693 0.959 . S
H2682 C2696 0.929 . S
H2683 C2697 0.931 . S
H2684 C2699 0.930 . S
C2685 H2673 0.930 . S
C2685 C2686 1.399 . S
C2685 C2690 1.399 . S
C2686 C2685 1.399 . S
C2686 C2687 1.376 . S
C2687 H2674 0.930 . S
C2687 C2686 1.376 . S
C2687 C2688 1.388 . S
C2688 H2675 0.930 . S
C2688 C2687 1.388 . S
C2688 C2689 1.390 . S
C2689 C2688 1.390 . S
C2689 C2690 1.394 . S
C2689 C2695 1.465 . S
C2690 C2685 1.399 . S
C2690 C2689 1.394 . S
C2690 C2691 1.516 . S
C2691 C2690 1.516 . S
C2691 C2692 1.502 . S
C2691 C2693 1.561 . S
C2691 C2694 1.526 . S
C2692 H2676 0.959 . S
C2692 H2677 0.959 . S
C2692 H2678 0.961 . S
C2692 C2691 1.502 . S
C2693 H2679 0.960 . S
C2693 H2680 0.961 . S
C2693 H2681 0.959 . S
C2693 C2691 1.561 . S
C2694 C2691 1.526 . S
C2694 C2695 1.396 . S
C2694 C2699 1.390 . S
C2695 C2689 1.465 . S
C2695 C2694 1.396 . S
C2695 C2696 1.399 . S
C2696 H2682 0.929 . S
C2696 C2695 1.399 . S
C2696 C2697 1.385 . S
C2697 H2683 0.931 . S
C2697 C2696 1.385 . S
C2697 C2698 1.389 . S
C2698 C2697 1.389 . S
C2698 C2699 1.387 . S
C2699 H2684 0.930 . S
C2699 C2694 1.390 . S
C2699 C2698 1.387 . S
H2700 C2712 0.930 . S
H2701 C2714 0.930 . S
H2702 C2715 0.930 . S
H2703 C2719 0.959 . S
H2704 C2719 0.959 . S
H2705 C2719 0.961 . S
H2706 C2720 0.960 . S
H2707 C2720 0.961 . S
H2708 C2720 0.959 . S
H2709 C2723 0.929 . S
H2710 C2724 0.931 . S
H2711 C2726 0.930 . S
C2712 H2700 0.930 . S
C2712 C2713 1.399 . S
C2712 C2717 1.399 . S
C2713 C2712 1.399 . S
C2713 C2714 1.376 . S
C2714 H2701 0.930 . S
C2714 C2713 1.376 . S
C2714 C2715 1.388 . S
C2715 H2702 0.930 . S
C2715 C2714 1.388 . S
C2715 C2716 1.390 . S
C2716 C2715 1.390 . S
C2716 C2717 1.394 . S
C2716 C2722 1.465 . S
C2717 C2712 1.399 . S
C2717 C2716 1.394 . S
C2717 C2718 1.516 . S
C2718 C2717 1.516 . S
C2718 C2719 1.502 . S
C2718 C2720 1.561 . S
C2718 C2721 1.526 . S
C2719 H2703 0.959 . S
C2719 H2704 0.959 . S
C2719 H2705 0.961 . S
C2719 C2718 1.502 . S
C2720 H2706 0.960 . S
C2720 H2707 0.961 . S
C2720 H2708 0.959 . S
C2720 C2718 1.561 . S
C2721 C2718 1.526 . S
C2721 C2722 1.396 . S
C2721 C2726 1.390 . S
C2722 C2716 1.465 . S
C2722 C2721 1.396 . S
C2722 C2723 1.399 . S
C2723 H2709 0.929 . S
C2723 C2722 1.399 . S
C2723 C2724 1.385 . S
C2724 H2710 0.931 . S
C2724 C2723 1.385 . S
C2724 C2725 1.389 . S
C2725 C2724 1.389 . S
C2725 C2726 1.387 . S
C2726 H2711 0.930 . S
C2726 C2721 1.390 . S
C2726 C2725 1.387 . S
H2727 C2739 0.930 . S
H2728 C2741 0.930 . S
H2729 C2742 0.930 . S
H2730 C2746 0.959 . S
H2731 C2746 0.959 . S
H2732 C2746 0.961 . S
H2733 C2747 0.960 . S
H2734 C2747 0.961 . S
H2735 C2747 0.959 . S
H2736 C2750 0.929 . S
H2737 C2751 0.931 . S
H2738 C2753 0.930 . S
C2739 H2727 0.930 . S
C2739 C2740 1.399 . S
C2739 C2744 1.399 . S
C2740 C2739 1.399 . S
C2740 C2741 1.376 . S
C2741 H2728 0.930 . S
C2741 C2740 1.376 . S
C2741 C2742 1.388 . S
C2742 H2729 0.930 . S
C2742 C2741 1.388 . S
C2742 C2743 1.390 . S
C2743 C2742 1.390 . S
C2743 C2744 1.394 . S
C2743 C2749 1.465 . S
C2744 C2739 1.399 . S
C2744 C2743 1.394 . S
C2744 C2745 1.516 . S
C2745 C2744 1.516 . S
C2745 C2746 1.502 . S
C2745 C2747 1.561 . S
C2745 C2748 1.526 . S
C2746 H2730 0.959 . S
C2746 H2731 0.959 . S
C2746 H2732 0.961 . S
C2746 C2745 1.502 . S
C2747 H2733 0.960 . S
C2747 H2734 0.961 . S
C2747 H2735 0.959 . S
C2747 C2745 1.561 . S
C2748 C2745 1.526 . S
C2748 C2749 1.396 . S
C2748 C2753 1.390 . S
C2749 C2743 1.465 . S
C2749 C2748 1.396 . S
C2749 C2750 1.399 . S
C2750 H2736 0.929 . S
C2750 C2749 1.399 . S
C2750 C2751 1.385 . S
C2751 H2737 0.931 . S
C2751 C2750 1.385 . S
C2751 C2752 1.389 . S
C2752 C2751 1.389 . S
C2752 C2753 1.387 . S
C2753 H2738 0.930 . S
C2753 C2748 1.390 . S
C2753 C2752 1.387 . S
H2754 C2766 0.930 . S
H2755 C2768 0.930 . S
H2756 C2769 0.930 . S
H2757 C2773 0.959 . S
H2758 C2773 0.959 . S
H2759 C2773 0.961 . S
H2760 C2774 0.960 . S
H2761 C2774 0.961 . S
H2762 C2774 0.959 . S
H2763 C2777 0.929 . S
H2764 C2778 0.931 . S
H2765 C2780 0.930 . S
C2766 H2754 0.930 . S
C2766 C2767 1.399 . S
C2766 C2771 1.399 1_565 S
C2767 C2766 1.399 . S
C2767 C2768 1.376 . S
C2768 H2755 0.930 . S
C2768 C2767 1.376 . S
C2768 C2769 1.388 1_565 S
C2769 H2756 0.930 . S
C2769 C2768 1.388 1_545 S
C2769 C2770 1.390 . S
C2770 C2769 1.390 . S
C2770 C2771 1.394 . S
C2770 C2776 1.465 . S
C2771 C2766 1.399 1_545 S
C2771 C2770 1.394 . S
C2771 C2772 1.516 . S
C2772 C2771 1.516 . S
C2772 C2773 1.502 . S
C2772 C2774 1.561 . S
C2772 C2775 1.526 . S
C2773 H2757 0.959 . S
C2773 H2758 0.959 . S
C2773 H2759 0.961 . S
C2773 C2772 1.502 . S
C2774 H2760 0.960 . S
C2774 H2761 0.961 . S
C2774 H2762 0.959 . S
C2774 C2772 1.561 . S
C2775 C2772 1.526 . S
C2775 C2776 1.396 . S
C2775 C2780 1.390 . S
C2776 C2770 1.465 . S
C2776 C2775 1.396 . S
C2776 C2777 1.399 . S
C2777 H2763 0.929 . S
C2777 C2776 1.399 . S
C2777 C2778 1.385 . S
C2778 H2764 0.931 . S
C2778 C2777 1.385 . S
C2778 C2779 1.389 . S
C2779 C2778 1.389 . S
C2779 C2780 1.387 . S
C2780 H2765 0.930 . S
C2780 C2775 1.390 . S
C2780 C2779 1.387 . S
H2781 C2793 0.930 . S
H2782 C2795 0.930 . S
H2783 C2796 0.930 . S
H2784 C2800 0.959 . S
H2785 C2800 0.959 . S
H2786 C2800 0.961 . S
H2787 C2801 0.960 . S
H2788 C2801 0.961 1_455 S
H2789 C2801 0.959 . S
H2790 C2804 0.929 . S
H2791 C2805 0.931 . S
H2792 C2807 0.930 . S
C2793 H2781 0.930 . S
C2793 C2794 1.399 . S
C2793 C2798 1.399 . S
C2794 C2793 1.399 . S
C2794 C2795 1.376 . S
C2795 H2782 0.930 . S
C2795 C2794 1.376 . S
C2795 C2796 1.388 . S
C2796 H2783 0.930 . S
C2796 C2795 1.388 . S
C2796 C2797 1.390 . S
C2797 C2796 1.390 . S
C2797 C2798 1.394 . S
C2797 C2803 1.465 1_655 S
C2798 C2793 1.399 . S
C2798 C2797 1.394 . S
C2798 C2799 1.516 1_655 S
C2799 C2798 1.516 1_455 S
C2799 C2800 1.502 . S
C2799 C2801 1.561 1_455 S
C2799 C2802 1.526 . S
C2800 H2784 0.959 . S
C2800 H2785 0.959 . S
C2800 H2786 0.961 . S
C2800 C2799 1.502 . S
C2801 H2787 0.960 . S
C2801 H2788 0.961 1_655 S
C2801 H2789 0.959 . S
C2801 C2799 1.561 1_655 S
C2802 C2799 1.526 . S
C2802 C2803 1.396 . S
C2802 C2807 1.390 . S
C2803 C2797 1.465 1_455 S
C2803 C2802 1.396 . S
C2803 C2804 1.399 . S
C2804 H2790 0.929 . S
C2804 C2803 1.399 . S
C2804 C2805 1.385 . S
C2805 H2791 0.931 . S
C2805 C2804 1.385 . S
C2805 C2806 1.389 . S
C2806 C2805 1.389 . S
C2806 C2807 1.387 . S
C2807 H2792 0.930 . S
C2807 C2802 1.390 . S
C2807 C2806 1.387 . S
H2808 C2820 0.930 . S
H2809 C2822 0.930 . S
H2810 C2823 0.930 . S
H2811 C2827 0.959 . S
H2812 C2827 0.959 . S
H2813 C2827 0.961 . S
H2814 C2828 0.960 . S
H2815 C2828 0.961 . S
H2816 C2828 0.959 . S
H2817 C2831 0.929 . S
H2818 C2832 0.931 . S
H2819 C2834 0.930 . S
C2820 H2808 0.930 . S
C2820 C2821 1.399 . S
C2820 C2825 1.399 . S
C2821 C2820 1.399 . S
C2821 C2822 1.376 . S
C2822 H2809 0.930 . S
C2822 C2821 1.376 . S
C2822 C2823 1.388 . S
C2823 H2810 0.930 . S
C2823 C2822 1.388 . S
C2823 C2824 1.390 . S
C2824 C2823 1.390 . S
C2824 C2825 1.394 . S
C2824 C2830 1.465 . S
C2825 C2820 1.399 . S
C2825 C2824 1.394 . S
C2825 C2826 1.516 . S
C2826 C2825 1.516 . S
C2826 C2827 1.502 . S
C2826 C2828 1.561 . S
C2826 C2829 1.526 . S
C2827 H2811 0.959 . S
C2827 H2812 0.959 . S
C2827 H2813 0.961 . S
C2827 C2826 1.502 . S
C2828 H2814 0.960 . S
C2828 H2815 0.961 . S
C2828 H2816 0.959 . S
C2828 C2826 1.561 . S
C2829 C2826 1.526 . S
C2829 C2830 1.396 . S
C2829 C2834 1.390 . S
C2830 C2824 1.465 . S
C2830 C2829 1.396 . S
C2830 C2831 1.399 . S
C2831 H2817 0.929 . S
C2831 C2830 1.399 . S
C2831 C2832 1.385 . S
C2832 H2818 0.931 . S
C2832 C2831 1.385 . S
C2832 C2833 1.389 . S
C2833 C2832 1.389 . S
C2833 C2834 1.387 . S
C2834 H2819 0.930 . S
C2834 C2829 1.390 . S
C2834 C2833 1.387 . S
H2835 C2847 0.930 . S
H2836 C2849 0.930 . S
H2837 C2850 0.930 . S
H2838 C2854 0.959 . S
H2839 C2854 0.959 . S
H2840 C2854 0.961 . S
H2841 C2855 0.960 1_545 S
H2842 C2855 0.961 . S
H2843 C2855 0.959 . S
H2844 C2858 0.929 . S
H2845 C2859 0.931 . S
H2846 C2861 0.930 . S
C2847 H2835 0.930 . S
C2847 C2848 1.399 . S
C2847 C2852 1.399 . S
C2848 C2847 1.399 . S
C2848 C2849 1.376 . S
C2849 H2836 0.930 . S
C2849 C2848 1.376 . S
C2849 C2850 1.388 . S
C2850 H2837 0.930 . S
C2850 C2849 1.388 . S
C2850 C2851 1.390 . S
C2851 C2850 1.390 . S
C2851 C2852 1.394 . S
C2851 C2857 1.465 1_545 S
C2852 C2847 1.399 . S
C2852 C2851 1.394 . S
C2852 C2853 1.516 . S
C2853 C2852 1.516 . S
C2853 C2854 1.502 . S
C2853 C2855 1.561 1_545 S
C2853 C2856 1.526 1_545 S
C2854 H2838 0.959 . S
C2854 H2839 0.959 . S
C2854 H2840 0.961 . S
C2854 C2853 1.502 . S
C2855 H2841 0.960 1_565 S
C2855 H2842 0.961 . S
C2855 H2843 0.959 . S
C2855 C2853 1.561 1_565 S
C2856 C2853 1.526 1_565 S
C2856 C2857 1.396 . S
C2856 C2861 1.390 . S
C2857 C2851 1.465 1_565 S
C2857 C2856 1.396 . S
C2857 C2858 1.399 . S
C2858 H2844 0.929 . S
C2858 C2857 1.399 . S
C2858 C2859 1.385 . S
C2859 H2845 0.931 . S
C2859 C2858 1.385 . S
C2859 C2860 1.389 . S
C2860 C2859 1.389 . S
C2860 C2861 1.387 . S
C2861 H2846 0.930 . S
C2861 C2856 1.390 . S
C2861 C2860 1.387 . S
H2862 C2874 0.930 . S
H2863 C2876 0.930 . S
H2864 C2877 0.930 . S
H2865 C2881 0.959 . S
H2866 C2881 0.959 . S
H2867 C2881 0.961 . S
H2868 C2882 0.960 . S
H2869 C2882 0.961 . S
H2870 C2882 0.959 . S
H2871 C2885 0.930 1_455 S
H2872 C2886 0.931 . S
H2873 C2888 0.930 . S
C2874 H2862 0.930 . S
C2874 C2875 1.399 . S
C2874 C2879 1.399 . S
C2875 C2874 1.399 . S
C2875 C2876 1.376 . S
C2876 H2863 0.930 . S
C2876 C2875 1.376 . S
C2876 C2877 1.388 . S
C2877 H2864 0.930 . S
C2877 C2876 1.388 . S
C2877 C2878 1.390 . S
C2878 C2877 1.390 . S
C2878 C2879 1.394 . S
C2878 C2884 1.465 . S
C2879 C2874 1.399 . S
C2879 C2878 1.394 . S
C2879 C2880 1.516 . S
C2880 C2879 1.516 . S
C2880 C2881 1.502 . S
C2880 C2882 1.561 . S
C2880 C2883 1.526 . S
C2881 H2865 0.959 . S
C2881 H2866 0.959 . S
C2881 H2867 0.961 . S
C2881 C2880 1.502 . S
C2882 H2868 0.960 . S
C2882 H2869 0.961 . S
C2882 H2870 0.959 . S
C2882 C2880 1.561 . S
C2883 C2880 1.526 . S
C2883 C2884 1.396 . S
C2883 C2888 1.390 1_455 S
C2884 C2878 1.465 . S
C2884 C2883 1.396 . S
C2884 C2885 1.400 1_455 S
C2885 H2871 0.930 1_655 S
C2885 C2884 1.400 1_655 S
C2885 C2886 1.383 . S
C2886 H2872 0.931 . S
C2886 C2885 1.383 . S
C2886 C2887 1.389 . S
C2887 C2886 1.389 . S
C2887 C2888 1.387 . S
C2888 H2873 0.930 . S
C2888 C2883 1.390 1_655 S
C2888 C2887 1.387 . S
H2889 C2901 0.930 . S
H2890 C2903 0.930 . S
H2891 C2904 0.930 . S
H2892 C2908 0.959 . S
H2893 C2908 0.959 . S
H2894 C2908 0.961 . S
H2895 C2909 0.960 . S
H2896 C2909 0.961 . S
H2897 C2909 0.959 . S
H2898 C2912 0.929 . S
H2899 C2913 0.931 . S
H2900 C2915 0.930 . S
C2901 H2889 0.930 . S
C2901 C2902 1.399 . S
C2901 C2906 1.399 . S
C2902 C2901 1.399 . S
C2902 C2903 1.376 . S
C2903 H2890 0.930 . S
C2903 C2902 1.376 . S
C2903 C2904 1.388 . S
C2904 H2891 0.930 . S
C2904 C2903 1.388 . S
C2904 C2905 1.390 . S
C2905 C2904 1.390 . S
C2905 C2906 1.394 . S
C2905 C2911 1.465 . S
C2906 C2901 1.399 . S
C2906 C2905 1.394 . S
C2906 C2907 1.516 . S
C2907 C2906 1.516 . S
C2907 C2908 1.502 . S
C2907 C2909 1.561 . S
C2907 C2910 1.526 . S
C2908 H2892 0.959 . S
C2908 H2893 0.959 . S
C2908 H2894 0.961 . S
C2908 C2907 1.502 . S
C2909 H2895 0.960 . S
C2909 H2896 0.961 . S
C2909 H2897 0.959 . S
C2909 C2907 1.561 . S
C2910 C2907 1.526 . S
C2910 C2911 1.396 . S
C2910 C2915 1.390 . S
C2911 C2905 1.465 . S
C2911 C2910 1.396 . S
C2911 C2912 1.399 . S
C2912 H2898 0.929 . S
C2912 C2911 1.399 . S
C2912 C2913 1.385 . S
C2913 H2899 0.931 . S
C2913 C2912 1.385 . S
C2913 C2914 1.389 . S
C2914 C2913 1.389 . S
C2914 C2915 1.387 . S
C2915 H2900 0.930 . S
C2915 C2910 1.390 . S
C2915 C2914 1.387 . S
H2916 C2928 0.930 . S
H2917 C2930 0.930 . S
H2918 C2931 0.930 . S
H2919 C2935 0.959 . S
H2920 C2935 0.959 . S
H2921 C2935 0.961 . S
H2922 C2936 0.960 . S
H2923 C2936 0.961 . S
H2924 C2936 0.959 . S
H2925 C2939 0.929 . S
H2926 C2940 0.931 . S
H2927 C2942 0.930 . S
C2928 H2916 0.930 . S
C2928 C2929 1.399 . S
C2928 C2933 1.399 . S
C2929 C2928 1.399 . S
C2929 C2930 1.376 . S
C2930 H2917 0.930 . S
C2930 C2929 1.376 . S
C2930 C2931 1.388 . S
C2931 H2918 0.930 . S
C2931 C2930 1.388 . S
C2931 C2932 1.390 . S
C2932 C2931 1.390 . S
C2932 C2933 1.394 . S
C2932 C2938 1.465 . S
C2933 C2928 1.399 . S
C2933 C2932 1.394 . S
C2933 C2934 1.516 . S
C2934 C2933 1.516 . S
C2934 C2935 1.502 . S
C2934 C2936 1.561 . S
C2934 C2937 1.526 . S
C2935 H2919 0.959 . S
C2935 H2920 0.959 . S
C2935 H2921 0.961 . S
C2935 C2934 1.502 . S
C2936 H2922 0.960 . S
C2936 H2923 0.961 . S
C2936 H2924 0.959 . S
C2936 C2934 1.561 . S
C2937 C2934 1.526 . S
C2937 C2938 1.396 . S
C2937 C2942 1.390 . S
C2938 C2932 1.465 . S
C2938 C2937 1.396 . S
C2938 C2939 1.399 . S
C2939 H2925 0.929 . S
C2939 C2938 1.399 . S
C2939 C2940 1.385 . S
C2940 H2926 0.931 . S
C2940 C2939 1.385 . S
C2940 C2941 1.389 . S
C2941 C2940 1.389 . S
C2941 C2942 1.387 . S
C2942 H2927 0.930 . S
C2942 C2937 1.390 . S
C2942 C2941 1.387 . S
H2943 C2955 0.930 . S
H2944 C2957 0.930 . S
H2945 C2958 0.930 . S
H2946 C2962 0.959 . S
H2947 C2962 0.959 . S
H2948 C2962 0.961 . S
H2949 C2963 0.960 . S
H2950 C2963 0.961 . S
H2951 C2963 0.959 . S
H2952 C2966 0.929 . S
H2953 C2967 0.931 . S
H2954 C2969 0.930 . S
C2955 H2943 0.930 . S
C2955 C2956 1.399 . S
C2955 C2960 1.399 . S
C2956 C2955 1.399 . S
C2956 C2957 1.376 . S
C2957 H2944 0.930 . S
C2957 C2956 1.376 . S
C2957 C2958 1.388 . S
C2958 H2945 0.930 . S
C2958 C2957 1.388 . S
C2958 C2959 1.390 . S
C2959 C2958 1.390 . S
C2959 C2960 1.394 . S
C2959 C2965 1.465 . S
C2960 C2955 1.399 . S
C2960 C2959 1.394 . S
C2960 C2961 1.516 . S
C2961 C2960 1.516 . S
C2961 C2962 1.502 . S
C2961 C2963 1.561 . S
C2961 C2964 1.526 . S
C2962 H2946 0.959 . S
C2962 H2947 0.959 . S
C2962 H2948 0.961 . S
C2962 C2961 1.502 . S
C2963 H2949 0.960 . S
C2963 H2950 0.961 . S
C2963 H2951 0.959 . S
C2963 C2961 1.561 . S
C2964 C2961 1.526 . S
C2964 C2965 1.396 . S
C2964 C2969 1.390 . S
C2965 C2959 1.465 . S
C2965 C2964 1.396 . S
C2965 C2966 1.399 . S
C2966 H2952 0.929 . S
C2966 C2965 1.399 . S
C2966 C2967 1.385 . S
C2967 H2953 0.931 . S
C2967 C2966 1.385 . S
C2967 C2968 1.389 . S
C2968 C2967 1.389 . S
C2968 C2969 1.387 . S
C2969 H2954 0.930 . S
C2969 C2964 1.390 . S
C2969 C2968 1.387 . S
C1525 C56 0.930 . S
C1537 C231 0.909 . S
C1552 C63 0.927 . S
C1564 C140 0.891 . S
C1579 C147 0.749 . S
C1591 C224 0.847 . S
C1606 C308 0.822 . S
C1618 C399 0.843 . S
C1633 C483 0.730 . S
C1645 C392 0.823 . S
C1660 C476 0.792 . S
C1672 C315 0.748 . S
C1687 C735 0.934 . S
C1699 C560 0.902 . S
C1714 C567 0.930 . S
C1726 C644 0.895 . S
C1741 C728 0.930 . S
C1753 C651 0.912 . S
C1768 C903 0.731 . S
C1780 C812 0.826 . S
C1795 C896 0.797 . S
C1807 C987 0.786 . S
C1822 C819 0.917 . S
C1834 C980 0.878 . S
C1849 C1064 0.811 . S
C1861 C1239 0.728 . S
C1876 C1071 0.737 . S
C1888 C1148 0.834 . S
C1903 C1155 0.749 . S
C1915 C1232 0.846 . S
C1930 C1407 0.726 . S
C1942 C1316 0.805 . S
C1957 C1491 0.932 . S
C1969 C1400 0.898 . S
C1984 C1323 0.734 . S
C1996 C1484 0.796 . S
C2011 C66 1.876 . S
C2023 C486 1.820 . S
C2038 C318 1.824 . S
C2050 C150 1.869 . S
C2065 C402 1.838 . S
C2077 C234 1.854 . S
C2092 C570 1.825 . S
C2104 C990 1.894 . S
C2119 C654 1.869 . S
C2131 C822 1.861 . S
C2146 C906 1.839 . S
C2158 C738 1.852 . S
C2173 C1074 1.826 . S
C2185 C1494 1.895 . S
C2200 C1326 1.897 . S
C2212 C1158 1.821 . S
C2227 C1410 1.847 . S
C2239 C1242 1.844 . S
C2254 C915 2.070 . S
C2266 C75 2.041 . S
C2281 C159 2.067 . S
C2293 C999 2.050 . S
C2308 C831 2.070 . S
C2320 C243 2.045 . S
C2335 C327 2.000 . S
C2347 C1251 2.029 . S
C2362 C411 2.015 . S
C2374 C1083 2.007 . S
C2389 C1167 2.055 . S
C2401 C495 2.064 . S
C2416 C1419 2.000 . S
C2428 C579 2.033 . S
C2443 C663 2.012 . S
C2455 C1503 2.009 . S
C2470 C747 2.013 . S
C2482 C1335 2.061 . S
C2497 C240 1.764 . S
C2509 C67 1.897 . S
C2524 C72 1.726 . S
C2536 C151 1.828 . S
C2551 C235 1.867 . S
C2563 C156 1.695 . S
C2578 C408 1.707 . S
C2590 C319 1.838 . S
C2605 C492 1.792 . S
C2617 C403 1.881 . S
C2632 C487 1.860 . S
C2644 C324 1.799 . S
C2659 C744 1.778 . S
C2671 C571 1.892 . S
C2686 C655 1.888 . S
C2698 C576 1.709 . S
C2713 C660 1.700 . S
C2725 C739 1.845 . S
C2740 C823 1.865 . S
C2752 C912 1.826 . S
C2767 C907 1.866 . S
C2779 C996 1.695 . S
C2794 C828 1.768 . S
C2806 C991 1.896 . S
C2821 C1075 1.854 . S
C2833 C1248 1.826 . S
C2848 C1159 1.869 . S
C2860 C1080 1.696 . S
C2875 C1164 1.795 . S
C2887 C1243 1.876 . S
C2902 C1327 1.844 . S
C2914 C1416 1.793 . S
C2929 C1411 1.877 . S
C2941 C1500 1.699 . S
C2956 C1332 1.768 . S
C2968 C1495 1.896 . S
