# Generated by pormake.
# Topology snz, (6)-cn, num edge types: 1
# Building blocks:
#     Node 0, Type 0, BuildingBlock: BETDAH_clean_sbu_0, # of connection points: 6
#     Node 1, Type 0, BuildingBlock: BETDAH_clean_sbu_0, # of connection points: 6
#     Node 2, Type 0, BuildingBlock: BETDAH_clean_sbu_0, # of connection points: 6
#     Node 3, Type 0, BuildingBlock: BETDAH_clean_sbu_0, # of connection points: 6
#     Node 4, Type 0, BuildingBlock: BETDAH_clean_sbu_0, # of connection points: 6
#     Node 5, Type 0, BuildingBlock: BETDAH_clean_sbu_0, # of connection points: 6
#     Node 6, Type 0, BuildingBlock: BETDAH_clean_sbu_0, # of connection points: 6
#     Node 7, Type 0, BuildingBlock: BETDAH_clean_sbu_0, # of connection points: 6
#     Node 8, Type 0, BuildingBlock: BETDAH_clean_sbu_0, # of connection points: 6
#     Edge 9, Type (0, 0), BuildingBlock: TEMPAE_clean_linker_10, # of connection points: 2
#     Edge 10, Type (0, 0), BuildingBlock: TEMPAE_clean_linker_10, # of connection points: 2
#     Edge 11, Type (0, 0), BuildingBlock: TEMPAE_clean_linker_10, # of connection points: 2
#     Edge 12, Type (0, 0), BuildingBlock: TEMPAE_clean_linker_10, # of connection points: 2
#     Edge 13, Type (0, 0), BuildingBlock: TEMPAE_clean_linker_10, # of connection points: 2
#     Edge 14, Type (0, 0), BuildingBlock: TEMPAE_clean_linker_10, # of connection points: 2
#     Edge 15, Type (0, 0), BuildingBlock: TEMPAE_clean_linker_10, # of connection points: 2
#     Edge 16, Type (0, 0), BuildingBlock: TEMPAE_clean_linker_10, # of connection points: 2
#     Edge 17, Type (0, 0), BuildingBlock: TEMPAE_clean_linker_10, # of connection points: 2
#     Edge 18, Type (0, 0), BuildingBlock: TEMPAE_clean_linker_10, # of connection points: 2
#     Edge 19, Type (0, 0), BuildingBlock: TEMPAE_clean_linker_10, # of connection points: 2
#     Edge 20, Type (0, 0), BuildingBlock: TEMPAE_clean_linker_10, # of connection points: 2
#     Edge 21, Type (0, 0), BuildingBlock: TEMPAE_clean_linker_10, # of connection points: 2
#     Edge 22, Type (0, 0), BuildingBlock: TEMPAE_clean_linker_10, # of connection points: 2
#     Edge 23, Type (0, 0), BuildingBlock: TEMPAE_clean_linker_10, # of connection points: 2
#     Edge 24, Type (0, 0), BuildingBlock: TEMPAE_clean_linker_10, # of connection points: 2
#     Edge 25, Type (0, 0), BuildingBlock: TEMPAE_clean_linker_10, # of connection points: 2
#     Edge 26, Type (0, 0), BuildingBlock: TEMPAE_clean_linker_10, # of connection points: 2
#     Edge 27, Type (0, 0), BuildingBlock: TEMPAE_clean_linker_10, # of connection points: 2
#     Edge 28, Type (0, 0), BuildingBlock: TEMPAE_clean_linker_10, # of connection points: 2
#     Edge 29, Type (0, 0), BuildingBlock: TEMPAE_clean_linker_10, # of connection points: 2
#     Edge 30, Type (0, 0), BuildingBlock: TEMPAE_clean_linker_10, # of connection points: 2
#     Edge 31, Type (0, 0), BuildingBlock: TEMPAE_clean_linker_10, # of connection points: 2
#     Edge 32, Type (0, 0), BuildingBlock: TEMPAE_clean_linker_10, # of connection points: 2
#     Edge 33, Type (0, 0), BuildingBlock: TEMPAE_clean_linker_10, # of connection points: 2
#     Edge 34, Type (0, 0), BuildingBlock: TEMPAE_clean_linker_10, # of connection points: 2
#     Edge 35, Type (0, 0), BuildingBlock: TEMPAE_clean_linker_10, # of connection points: 2
# Relax obj value: 0.423
# Max RMSD: 0.272
# Mean RMSD: 0.178
data_MOF--net-snz--node1-BETDAH_clean_sbu_0--edge1-TEMPAE_clean_linker_10
_symmetry_space_group_name_H-M    P1
_symmetry_Int_Tables_number       1
_symmetry_cell_setting            triclinic
loop_
_symmetry_equiv_pos_as_xyz
'x, y, z'
_cell_length_a     67.823932
_cell_length_b     55.061879
_cell_length_c     16.52982
_cell_angle_alpha  96.353427
_cell_angle_beta   97.608945
_cell_angle_gamma 120.66492
loop_
_atom_site_label
_atom_site_type_symbol
_atom_site_fract_x
_atom_site_fract_y
_atom_site_fract_z
_atom_type_partial_charge
Ho0 Ho 0.12656 0.50064 0.197 0.0
Ho1 Ho 0.09024 0.50215 0.19883 0.0
C2 C 0.07755 0.44031 0.13936 0.0
C3 C 0.15856 0.48717 0.22106 0.0
C4 C 0.16097 0.46263 0.23958 0.0
C5 C 0.1574 0.4529 0.31475 0.0
C6 C 0.16169 0.43141 0.33318 0.0
C7 C 0.16971 0.41898 0.27717 0.0
C8 C 0.1727 0.42832 0.20115 0.0
C9 C 0.16845 0.44981 0.18286 0.0
C10 C 0.11466 0.50806 1.03322 0.0
C11 C 0.13622 0.56359 0.21813 0.0
C12 C 0.05696 0.5129 0.19667 0.0
C13 C 0.0478 0.52809 0.15288 0.0
C14 C 0.06028 0.54671 0.10194 0.0
C15 C 0.05237 0.56326 0.06818 0.0
C16 C 0.03196 0.56151 0.08539 0.0
C17 C 1.01922 0.54215 0.13446 0.0
C18 C 0.02709 0.52563 0.16791 0.0
C19 C 0.10311 0.49445 0.36125 0.0
O20 O 0.09899 0.45276 0.18466 0.0
O21 O 0.06978 0.45702 0.124 0.0
O22 O 0.14629 0.4834 0.14831 0.0
O23 O 0.15493 0.50147 0.27914 0.0
O24 O 0.13543 0.52068 0.08182 0.0
O25 O 0.1003 0.49215 0.07692 0.0
O26 O 0.1137 0.54785 0.18414 0.0
O27 O 0.14672 0.5498 0.23831 0.0
O28 O 0.07792 0.52918 0.24402 0.0
O29 O 0.05397 0.48949 0.15421 0.0
O30 O 0.08289 0.47897 0.3094 0.0
O31 O 0.11676 0.51165 0.31842 0.0
H32 H 0.1516 0.46216 0.36003 0.0
H33 H 0.15877 0.42461 0.39175 0.0
H34 H 0.17909 0.41972 0.15658 0.0
H35 H 0.17155 0.4569 0.12469 0.0
H36 H 0.07639 0.54895 0.09001 0.0
H37 H 0.06257 0.57804 1.0308 0.0
H38 H 1.0032 0.53993 0.14753 0.0
H39 H 1.01727 0.51138 0.20717 0.0
Ho40 Ho 0.6512 0.5018 0.13211 0.0
Ho41 Ho 0.61623 0.50487 0.09808 0.0
C42 C 0.65968 0.5662 0.15121 0.0
C43 C 0.69286 0.5086 0.14997 0.0
C44 C 0.71539 0.52671 0.12524 0.0
C45 C 0.71718 0.54323 0.06451 0.0
C46 C 0.73885 0.56059 1.04328 0.0
C47 C 0.75926 0.56186 0.08238 0.0
C48 C 0.75728 0.54523 0.14332 0.0
C49 C 0.73563 0.52792 0.16446 0.0
C50 C 0.63442 0.49664 0.28274 0.0
C51 C 0.60347 0.44072 0.08375 0.0
C52 C 0.57405 0.49523 0.07704 0.0
C53 C 0.55352 0.47526 0.10793 0.0
C54 C 0.55628 0.46515 0.18038 0.0
C55 C 0.53659 0.44471 0.20617 0.0
C56 C 0.51381 0.43398 0.15982 0.0
C57 C 0.51121 0.44401 0.08685 0.0
C58 C 0.5309 0.46442 0.06113 0.0
C59 C 0.63365 0.5103 0.94812 0.0
O60 O 0.66829 0.55042 0.12708 0.0
O61 O 0.63764 0.55205 0.15556 0.0
O62 O 0.68711 0.52189 0.20255 0.0
O63 O 0.6748 0.48968 0.09117 0.0
O64 O 0.64009 0.48009 0.24388 0.0
O65 O 0.63595 0.51414 0.23393 0.0
O66 O 0.59737 0.45842 0.1123 0.0
O67 O 0.62554 0.45301 0.07673 0.0
O68 O 0.58059 0.48277 1.02509 0.0
O69 O 0.59187 0.5165 0.13241 0.0
O70 O 0.62672 0.52576 0.98484 0.0
O71 O 0.63233 0.49304 0.9973 0.0
H72 H 0.70181 0.54268 1.03345 0.0
H73 H 0.73953 0.5727 0.99528 0.0
H74 H 0.77256 0.54586 0.17563 0.0
H75 H 0.73472 0.51553 0.21193 0.0
H76 H 0.57366 0.47287 0.21662 0.0
H77 H 0.5392 0.4372 0.26212 0.0
H78 H 0.49392 0.43652 1.0504 0.0
H79 H 0.52846 0.4717 1.00448 0.0
Ho80 Ho 0.60781 0.07157 1.00178 0.0
Ho81 Ho 0.65502 0.12453 1.05634 0.0
C82 C 0.60922 0.13047 1.01759 0.0
C83 C 0.5652 0.03041 0.99579 0.0
C84 C 0.54765 0.02505 1.04673 0.0
C85 C 0.55371 0.03178 0.1345 0.0
C86 C 0.53664 0.02761 0.1804 0.0
C87 C 0.5134 0.0171 0.13917 0.0
C88 C 0.50758 0.01065 1.05146 0.0
C89 C 0.5245 0.01452 1.00587 0.0
C90 C 0.62314 0.08558 0.8498 0.0
C91 C 0.64948 0.062 0.06336 0.0
C92 C 0.69829 0.15975 1.04082 0.0
C93 C 0.72072 0.15998 1.04104 0.0
C94 C 0.7204 0.1346 1.01299 0.0
C95 C 0.74109 0.13559 1.00163 0.0
C96 C 0.76298 0.16205 1.01698 0.0
C97 C 0.7633 0.18734 1.04732 0.0
C98 C 0.7426 0.1863 1.05907 0.0
C99 C 0.64098 0.11194 0.20987 0.0
O100 O 0.59843 0.10453 1.03418 0.0
O101 O 0.63213 0.1435 1.01698 0.0
O102 O 0.57047 0.05174 0.95767 0.0
O103 O 0.58364 0.0298 1.02744 0.0
O104 O 0.60387 0.06337 0.85791 0.0
O105 O 0.63387 0.09869 0.92692 0.0
O106 O 0.66368 0.08992 0.06716 0.0
O107 O 0.62657 0.04947 1.03961 0.0
O108 O 0.69132 0.16097 0.1104 0.0
O109 O 0.68057 0.14179 0.97954 0.0
O110 O 0.65948 0.13486 0.19866 0.0
O111 O 0.62894 0.09729 0.13395 0.0
H112 H 0.57157 0.04039 0.16746 0.0
H113 H 0.54163 0.03281 0.24795 0.0
H114 H 0.48975 1.00205 1.01788 0.0
H115 H 0.51951 1.00942 0.9383 0.0
H116 H 0.70392 0.11394 0.99693 0.0
H117 H 0.73966 0.11553 0.97751 0.0
H118 H 0.7796 0.20818 0.06157 0.0
H119 H 0.74362 0.20633 0.08002 0.0
Ho120 Ho 0.79083 0.85167 0.31964 0.0
Ho121 Ho 0.75414 0.85361 0.31721 0.0
C122 C 0.74551 0.78992 0.28563 0.0
C123 C 0.8301 0.85322 0.3494 0.0
C124 C 0.83817 0.8331 0.33851 0.0
C125 C 0.82414 0.80439 0.34692 0.0
C126 C 0.83375 0.78732 0.35372 0.0
C127 C 0.85751 0.79866 0.3518 0.0
C128 C 0.87084 0.82655 0.3359 0.0
C129 C 0.86126 0.84368 0.32975 0.0
C130 C 0.77251 0.84526 0.14772 0.0
C131 C 0.80268 0.91557 0.37162 0.0
C132 C 0.72083 0.86465 0.28696 0.0
C133 C 0.71765 0.88858 0.26686 0.0
C134 C 0.71901 0.89632 0.18842 0.0
C135 C 0.71411 0.91728 0.16906 0.0
C136 C 0.7076 0.93115 0.22727 0.0
C137 C 0.70672 0.92369 0.30625 0.0
C138 C 0.71161 0.90277 0.32552 0.0
C139 C 0.76492 0.84477 0.47964 0.0
O140 O 0.76756 0.805 0.32538 0.0
O141 O 0.736 0.80469 0.26295 0.0
O142 O 0.82293 0.85953 0.28268 0.0
O143 O 0.81666 0.84897 0.40237 0.0
O144 O 0.77806 0.82865 0.181 0.0
O145 O 0.77449 0.86318 0.21127 0.0
O146 O 0.77975 0.9021 0.36245 0.0
O147 O 0.81183 0.90022 0.35394 0.0
O148 O 0.73262 0.86875 0.36112 0.0
O149 O 0.72556 0.85104 0.23067 0.0
O150 O 0.74461 0.83054 0.42717 0.0
O151 O 0.77943 0.86181 0.43832 0.0
H152 H 0.80618 0.79572 0.35323 0.0
H153 H 0.82304 0.76601 0.36633 0.0
H154 H 0.88905 0.83567 0.33252 0.0
H155 H 0.87228 0.8657 0.32258 0.0
H156 H 0.72357 0.88595 0.14136 0.0
H157 H 0.71542 0.92257 0.10806 0.0
H158 H 0.70152 0.93336 0.35275 0.0
H159 H 0.71014 0.89721 0.38623 0.0
Ho160 Ho 0.26181 0.84597 0.39452 0.0
Ho161 Ho 0.22694 0.84933 0.35879 0.0
C162 C 0.27449 0.90968 0.40811 0.0
C163 C 0.30412 0.85606 0.41844 0.0
C164 C 0.32519 0.87645 0.39052 0.0
C165 C 0.32371 0.88154 0.30913 0.0
C166 C 0.34378 0.90199 0.28522 0.0
C167 C 0.3656 0.91797 0.34257 0.0
C168 C 0.36688 0.91331 0.42446 0.0
C169 C 0.34686 0.89267 0.44808 0.0
C170 C 0.24405 0.84062 0.54385 0.0
C171 C 0.21829 0.78515 0.34347 0.0
C172 C 0.18567 0.84363 0.33905 0.0
C173 C 0.16352 0.82832 0.36853 0.0
C174 C 0.15638 0.80246 0.39635 0.0
C175 C 0.13482 0.78774 0.42044 0.0
C176 C 0.11991 0.79857 0.41755 0.0
C177 C 0.12726 0.8246 0.39005 0.0
C178 C 0.14878 0.83924 0.36576 0.0
C179 C 0.244 0.85414 0.20874 0.0
O180 O 0.2804 0.89201 0.37778 0.0
O181 O 0.25266 0.89753 0.4171 0.0
O182 O 0.29716 0.8681 0.46991 0.0
O183 O 0.2866 0.83488 0.36178 0.0
O184 O 0.25136 0.82543 0.50825 0.0
O185 O 0.24537 0.85779 0.49424 0.0
O186 O 0.20968 0.80109 0.36529 0.0
O187 O 0.24037 0.79871 0.34012 0.0
O188 O 0.19059 0.82779 0.29226 0.0
O189 O 0.20427 0.86419 0.39291 0.0
O190 O 0.23828 0.87073 0.2469 0.0
O191 O 0.24232 0.8367 0.25799 0.0
H192 H 0.30705 0.86984 0.26412 0.0
H193 H 0.34226 0.90537 0.22194 0.0
H194 H 0.38348 0.92513 0.46973 0.0
H195 H 0.34827 0.8894 0.51153 0.0
H196 H 0.16743 0.79357 0.39916 0.0
H197 H 0.12996 0.76802 0.44237 0.0
H198 H 0.11621 0.83348 0.38605 0.0
H199 H 0.15382 0.85903 0.34396 0.0
Ho200 Ho 0.22749 0.23009 0.42969 0.0
Ho201 Ho 0.26782 0.27617 0.48153 0.0
C202 C 0.23023 0.29015 0.43173 0.0
C203 C 0.18238 0.19265 0.41653 0.0
C204 C 0.16169 0.19416 0.43356 0.0
C205 C 0.16417 0.21485 0.49918 0.0
C206 C 0.14441 0.21488 0.51747 0.0
C207 C 0.12138 0.19421 0.47087 0.0
C208 C 0.11911 0.17388 0.40409 0.0
C209 C 0.13888 0.17388 0.38589 0.0
C210 C 0.24448 0.24224 0.28065 0.0
C211 C 0.27037 0.22113 0.45892 0.0
C212 C 0.31219 0.31638 0.51165 0.0
C213 C 0.33036 0.32498 0.46184 0.0
C214 C 0.3293 0.30462 0.39901 0.0
C215 C 0.34759 0.31247 0.357 0.0
C216 C 0.36698 0.34099 0.37553 0.0
C217 C 0.36757 0.36158 0.43602 0.0
C218 C 0.34948 0.35359 0.47918 0.0
C219 C 0.24882 0.26092 0.62706 0.0
O220 O 0.21794 0.26441 0.44889 0.0
O221 O 0.25215 0.29985 0.43067 0.0
O222 O 0.19138 0.20331 0.35486 0.0
O223 O 0.19886 0.19922 0.48045 0.0
O224 O 0.23378 0.21721 0.30219 0.0
O225 O 0.24718 0.26068 0.34435 0.0
O226 O 0.27914 0.24615 0.43758 0.0
O227 O 0.24821 0.20856 0.466 0.0
O228 O 0.30421 0.29119 0.53055 0.0
O229 O 0.2954 0.32082 0.48846 0.0
O230 O 0.25855 0.28603 0.60692 0.0
O231 O 0.24866 0.24461 0.56429 0.0
H232 H 0.18141 0.23082 0.53748 0.0
H233 H 0.14724 0.23076 0.56995 0.0
H234 H 0.10198 0.15787 0.36526 0.0
H235 H 0.13627 0.15768 0.33476 0.0
H236 H 0.31451 0.28255 0.38305 0.0
H237 H 0.34658 0.29629 0.30992 0.0
H238 H 0.38238 0.38372 0.45159 0.0
H239 H 0.3506 0.36964 0.52703 0.0
Ho240 Ho 0.44609 0.18375 0.68771 0.0
Ho241 Ho 0.42976 0.1643 0.81232 0.0
C242 C 0.39928 0.18261 0.69519 0.0
C243 C 0.46262 0.20357 0.56308 0.0
C244 C 0.46551 0.22901 0.53146 0.0
C245 C 0.45097 0.22529 0.45639 0.0
C246 C 0.45883 0.24721 0.41107 0.0
C247 C 0.4823 0.27092 0.43725 0.0
C248 C 0.49151 0.27897 0.52402 0.0
C249 C 0.48437 0.25712 0.56979 0.0
C250 C 0.46529 0.23059 0.8194 0.0
C251 C 0.4757 0.16391 0.79429 0.0
C252 C 0.41705 0.14896 0.94761 0.0
C253 C 0.43228 0.14628 1.01279 0.0
C254 C 0.45645 0.16345 1.01906 0.0
C255 C 0.47184 0.15888 0.06809 0.0
C256 C 0.46391 0.13953 0.12237 0.0
C257 C 0.43935 0.1209 0.11285 0.0
C258 C 0.4236 0.12395 1.05702 0.0
C259 C 0.41107 0.11766 0.68182 0.0
O260 O 0.41241 0.18218 0.64428 0.0
O261 O 0.40448 0.17955 0.77207 0.0
O262 O 0.47605 0.20847 0.63458 0.0
O263 O 0.44123 0.18186 0.55443 0.0
O264 O 0.45338 0.22738 0.74712 0.0
O265 O 0.46337 0.20654 0.82279 0.0
O266 O 0.46586 0.17013 0.84955 0.0
O267 O 0.46707 0.16201 0.71564 0.0
O268 O 0.41041 0.13063 0.87821 0.0
O269 O 0.42461 0.17505 0.93518 0.0
O270 O 0.42259 0.12067 0.75473 0.0
O271 O 0.41269 0.14151 0.67802 0.0
H272 H 0.43511 0.20456 0.42821 0.0
H273 H 0.4489 0.24206 0.34811 0.0
H274 H 0.50784 0.29934 0.55062 0.0
H275 H 0.49496 0.26157 0.63099 0.0
H276 H 0.46377 0.1814 0.98807 0.0
H277 H 0.49029 0.17346 0.07012 0.0
H278 H 0.43241 0.10517 0.15174 0.0
H279 H 0.40484 0.1095 1.05008 0.0
Ho280 Ho 0.95184 0.16602 0.82158 0.0
Ho281 Ho 0.93772 0.18946 0.70893 0.0
C282 C 0.90469 0.16713 0.83349 0.0
C283 C 0.9665 0.15032 0.9467 0.0
C284 C 0.95624 0.12935 0.99948 0.0
C285 C 0.96537 0.13827 0.08551 0.0
C286 C 0.95192 0.12286 0.13936 0.0
C287 C 0.92876 0.09894 0.10715 0.0
C288 C 0.92244 0.08639 1.02147 0.0
C289 C 0.93569 0.10212 0.96729 0.0
C290 C 0.92138 0.12384 0.68283 0.0
C291 C 0.98327 0.18656 0.68938 0.0
C292 C 0.92528 0.21063 0.59492 0.0
C293 C 0.93455 0.23058 0.53876 0.0
C294 C 0.95176 0.2318 0.498 0.0
C295 C 0.95231 0.23901 0.41972 0.0
C296 C 0.93417 0.24215 0.38051 0.0
C297 C 0.92293 0.2505 0.4326 0.0
C298 C 0.92218 0.24325 0.51099 0.0
C299 C 0.96736 0.22949 0.85096 0.0
O300 O 0.92345 0.16916 0.87842 0.0
O301 O 0.9042 0.16832 0.75437 0.0
O302 O 0.96403 0.13986 0.86896 0.0
O303 O 0.96261 0.17129 0.95493 0.0
O304 O 0.94057 0.12724 0.72252 0.0
O305 O 0.91888 0.14333 0.71902 0.0
O306 O 0.96484 0.18573 0.64717 0.0
O307 O 0.98417 0.18495 0.7684 0.0
O308 O 0.93119 0.22191 0.67404 0.0
O309 O 0.92501 0.18664 0.57937 0.0
O310 O 0.94688 0.22425 0.81904 0.0
O311 O 0.97061 0.21165 0.80949 0.0
H312 H 0.98171 0.15875 0.11132 0.0
H313 H 0.95838 0.13271 0.20518 0.0
H314 H 0.90549 0.06686 0.99481 0.0
H315 H 0.92876 0.09423 0.90058 0.0
H316 H 0.96241 0.2235 0.52074 0.0
H317 H 0.96307 0.23515 0.38391 0.0
H318 H 0.91022 0.25542 0.40599 0.0
H319 H 0.90954 0.24373 0.54387 0.0
Ho320 Ho 0.92616 0.65767 0.70428 0.0
Ho321 Ho 0.95575 0.71317 0.81653 0.0
C322 C 0.97802 0.7016 0.67327 0.0
C323 C 0.90113 0.61058 0.59119 0.0
C324 C 0.90725 0.5943 0.53541 0.0
C325 C 0.93087 0.60533 0.5345 0.0
C326 C 0.93674 0.59641 0.46457 0.0
C327 C 0.91888 0.57726 0.39368 0.0
C328 C 0.89573 0.56082 0.40558 0.0
C329 C 0.88975 0.57024 0.47486 0.0
C330 C 0.95109 0.6557 0.84324 0.0
C331 C 0.9038 0.66919 0.84286 0.0
C332 C 0.97862 0.75823 0.93761 0.0
C333 C 0.9745 0.76327 1.02115 0.0
C334 C 0.99151 0.76854 0.0906 0.0
C335 C 0.98438 0.75764 0.16077 0.0
C336 C 0.9603 0.74106 0.1595 0.0
C337 C 0.94453 0.74313 0.10112 0.0
C338 C 0.95151 0.75374 1.03057 0.0
C339 C 0.93227 0.71392 0.67279 0.0
O340 O 0.95635 0.67979 0.63818 0.0
O341 O 0.98318 0.71592 0.75006 0.0
O342 O 0.90659 0.61109 0.67007 0.0
O343 O 0.90714 0.63612 0.57697 0.0
O344 O 0.92894 0.63795 0.81258 0.0
O345 O 0.95901 0.67505 0.80104 0.0
O346 O 0.92595 0.68784 0.8827 0.0
O347 O 0.89913 0.65944 0.76217 0.0
O348 O 0.9631 0.75503 0.87462 0.0
O349 O 0.984 0.73863 0.92549 0.0
O350 O 0.95423 0.73262 0.70529 0.0
O351 O 0.9236 0.69579 0.71795 0.0
H352 H 0.94468 0.62309 0.58327 0.0
H353 H 0.9551 0.60838 0.4622 0.0
H354 H 0.88168 0.54389 0.35578 0.0
H355 H 0.87139 0.56053 0.47707 0.0
H356 H 1.00948 0.77657 0.08539 0.0
H357 H 0.99693 0.75691 0.20678 0.0
H358 H 0.92593 0.73113 0.10072 0.0
H359 H 0.93809 0.75023 0.97887 0.0
C360 C 0.11922 0.48945 0.8847 0.0
C361 C 0.11096 0.50401 0.93338 0.0
C362 C 0.11814 0.48784 0.79526 0.0
C363 C 0.10918 0.50178 0.7471 0.0
C364 C 0.10099 0.51675 0.79607 0.0
C365 C 0.10187 0.51757 0.88531 0.0
C366 C 0.12688 0.4709 0.75177 0.0
C367 C 0.09148 0.53269 0.75396 0.0
C368 C 0.12579 0.51867 0.52345 0.0
C369 C 0.10577 0.49705 0.46078 0.0
C370 C 0.1271 0.52051 0.61338 0.0
C371 C 0.10811 0.50036 0.64778 0.0
C372 C 0.08799 0.47854 0.58468 0.0
C373 C 0.0871 0.47729 0.4956 0.0
C374 C 0.1492 0.54466 0.67259 0.0
C375 C 0.06688 0.45591 0.61143 0.0
H376 H 0.12678 0.47905 0.91709 0.0
H377 H 0.09578 0.52969 0.91825 0.0
H378 H 0.11282 0.45412 0.69873 0.0
H379 H 0.14193 0.48544 0.72556 0.0
H380 H 0.13254 0.46027 0.79431 0.0
H381 H 0.08604 0.54372 0.79789 0.0
H382 H 0.10503 0.54902 0.72587 0.0
H383 H 0.07612 0.51743 0.70243 0.0
H384 H 0.14072 0.53463 0.50235 0.0
H385 H 0.07122 0.46022 0.45213 0.0
H386 H 0.15706 0.5356 0.71306 0.0
H387 H 0.14492 0.55777 0.71403 0.0
H388 H 0.16244 0.55899 0.6394 0.0
H389 H 0.0721 0.44431 0.65139 0.0
H390 H 0.05263 0.43993 0.5575 0.0
H391 H 0.05986 0.46636 0.64946 0.0
C392 C 0.64826 0.4997 0.81215 0.0
C393 C 0.63373 0.50688 0.85039 0.0
C394 C 0.64924 0.49892 0.72404 0.0
C395 C 0.6346 0.50411 0.66549 0.0
C396 C 0.61948 0.51057 0.70405 0.0
C397 C 0.61975 0.51257 0.79283 0.0
C398 C 0.66686 0.49299 0.69569 0.0
C399 C 0.60232 0.51538 0.65187 0.0
C400 C 0.64176 0.52529 0.43802 0.0
C401 C 0.634 0.49926 0.38041 0.0
C402 C 0.64271 0.52733 0.52766 0.0
C403 C 0.63477 0.50261 0.56669 0.0
C404 C 0.62651 0.47621 0.50803 0.0
C405 C 0.6268 0.47512 0.41965 0.0
C406 C 0.65301 0.55696 0.58019 0.0
C407 C 0.617 0.44818 0.53748 0.0
H408 H 0.65973 0.4955 0.85199 0.0
H409 H 0.60826 0.5183 0.81718 0.0
H410 H 0.66006 0.46961 0.68926 0.0
H411 H 0.67063 0.49923 0.63542 0.0
H412 H 0.68363 0.50479 0.74348 0.0
H413 H 0.58612 0.50763 0.67653 0.0
H414 H 0.61042 0.53887 0.65509 0.0
H415 H 0.59724 0.50429 0.58553 0.0
H416 H 0.64794 0.54479 0.41358 0.0
H417 H 0.62081 0.45452 0.38015 0.0
H418 H 0.65879 0.55823 0.64734 0.0
H419 H 0.63966 0.56298 0.5729 0.0
H420 H 0.66831 0.57321 0.5582 0.0
H421 H 0.63149 0.44449 0.55454 0.0
H422 H 0.60334 0.4297 0.48709 0.0
H423 H 0.60931 0.44828 0.59264 0.0
C424 C 0.64508 0.09087 0.72232 0.0
C425 C 0.62836 0.09336 0.76084 0.0
C426 C 0.64671 0.09294 0.63547 0.0
C427 C 0.63158 0.09811 0.57966 0.0
C428 C 0.61501 0.10115 0.61905 0.0
C429 C 0.61333 0.09817 0.70502 0.0
C430 C 0.66475 0.08891 0.60272 0.0
C431 C 0.59852 0.10754 0.56959 0.0
C432 C 0.65067 0.12999 0.37419 0.0
C433 C 0.6367 0.10697 0.30247 0.0
C434 C 0.64905 0.12753 0.46042 0.0
C435 C 0.63327 0.1009 0.48323 0.0
C436 C 0.61911 0.07735 0.41151 0.0
C437 C 0.6208 0.08054 0.32503 0.0
C438 C 0.66462 0.15417 0.52837 0.0
C439 C 0.60206 0.04802 0.42629 0.0
H440 H 0.65667 0.08625 0.7596 0.0
H441 H 0.59973 0.09956 0.72888 0.0
H442 H 0.65646 0.0729 0.54263 0.0
H443 H 0.67853 0.10963 0.59047 0.0
H444 H 0.67329 0.08159 0.64739 0.0
H445 H 0.58833 0.11236 0.60874 0.0
H446 H 0.60853 0.12623 0.5406 0.0
H447 H 0.58602 0.08871 0.51836 0.0
H448 H 0.66335 0.15082 0.36295 0.0
H449 H 0.60979 0.06179 0.27487 0.0
H450 H 0.67728 0.15126 0.56924 0.0
H451 H 0.65389 0.15759 0.56799 0.0
H452 H 0.67465 0.17383 0.5031 0.0
H453 H 0.61151 0.0414 0.46974 0.0
H454 H 0.59291 0.03134 0.36752 0.0
H455 H 0.58873 0.04895 0.45643 0.0
C456 C 0.74775 0.82977 0.61424 0.0
C457 C 0.76749 0.84662 0.57918 0.0
C458 C 0.74867 0.83044 0.70325 0.0
C459 C 0.77 0.84837 0.76627 0.0
C460 C 0.79013 0.86543 0.73162 0.0
C461 C 0.78869 0.86448 0.64179 0.0
C462 C 0.7262 0.81147 0.73009 0.0
C463 C 0.81373 0.88497 0.79038 0.0
C464 C 0.76849 0.86694 1.01065 0.0
C465 C 0.77189 0.84721 1.05055 0.0
C466 C 0.76801 0.86771 0.92191 0.0
C467 C 0.77112 0.84854 0.86544 0.0
C468 C 0.7747 0.82881 0.90575 0.0
C469 C 0.77494 0.82836 0.99401 0.0
C470 C 0.764 0.88947 0.88804 0.0
C471 C 0.7784 0.80763 0.85485 0.0
H472 H 0.73094 0.81557 0.57101 0.0
H473 H 0.80456 0.87796 0.62067 0.0
H474 H 0.72786 0.7958 0.76258 0.0
H475 H 0.72293 0.8248 0.77516 0.0
H476 H 0.71078 0.79933 0.6766 0.0
H477 H 0.82782 0.89725 0.75719 0.0
H478 H 0.81289 0.90048 0.83654 0.0
H479 H 0.81846 0.872 0.82578 0.0
H480 H 0.76604 0.88205 1.04896 0.0
H481 H 0.77767 0.81271 1.01923 0.0
H482 H 0.74811 0.87819 0.83641 0.0
H483 H 0.77909 0.90382 0.86166 0.0
H484 H 0.76174 0.90294 0.93658 0.0
H485 H 0.76272 0.79325 0.80355 0.0
H486 H 0.78167 0.79411 0.89289 0.0
H487 H 0.79357 0.81939 0.82566 0.0
C488 C 0.2626 0.84737 0.703 0.0
C489 C 0.24423 0.84453 0.64172 0.0
C490 C 0.26286 0.84924 0.79185 0.0
C491 C 0.24366 0.84675 0.82642 0.0
C492 C 0.22478 0.84335 0.76448 0.0
C493 C 0.22548 0.84285 0.67625 0.0
C494 C 0.28432 0.8543 0.84958 0.0
C495 C 0.20321 0.83986 0.79074 0.0
C496 C 0.23822 0.82586 1.05441 0.0
C497 C 0.24443 0.85146 0.11104 0.0
C498 C 0.23741 0.82389 0.96477 0.0
C499 C 0.24367 0.84817 0.92507 0.0
C500 C 0.25021 0.87405 0.9823 0.0
C501 C 0.25011 0.87517 0.07077 0.0
C502 C 0.22911 0.79503 0.91151 0.0
C503 C 0.25754 0.90128 0.94997 0.0
H504 H 0.27741 0.84856 0.6814 0.0
H505 H 0.21063 0.84017 0.63339 0.0
H506 H 0.29002 0.87169 0.90473 0.0
H507 H 0.28005 0.83439 0.87258 0.0
H508 H 0.2992 0.86035 0.81815 0.0
H509 H 0.18775 0.82889 0.73732 0.0
H510 H 0.19888 0.82734 0.84085 0.0
H511 H 0.20649 0.86148 0.81517 0.0
H512 H 0.23329 0.80672 0.07973 0.0
H513 H 0.25485 0.89537 0.10949 0.0
H514 H 0.24403 0.79566 0.88912 0.0
H515 H 0.21557 0.79007 0.85569 0.0
H516 H 0.22164 0.77731 0.9462 0.0
H517 H 0.27042 0.90481 0.91046 0.0
H518 H 0.26545 0.92057 1.00126 0.0
H519 H 0.24198 0.89915 0.91044 0.0
C520 C 0.26508 0.25503 0.77656 0.0
C521 C 0.24774 0.25642 0.72151 0.0
C522 C 0.26507 0.25334 0.86441 0.0
C523 C 0.24707 0.25239 0.90444 0.0
C524 C 0.22936 0.25333 0.84854 0.0
C525 C 0.23011 0.25574 0.76159 0.0
C526 C 0.28499 0.253 0.91547 0.0
C527 C 0.20907 0.25172 0.88078 0.0
C528 C 0.2359 0.22145 0.11704 0.0
C529 C 0.24548 0.2457 0.18481 0.0
C530 C 0.23616 0.22325 1.0295 0.0
C531 C 0.24664 0.25019 1.0019 0.0
C532 C 0.2565 0.27485 0.06985 0.0
C533 C 0.25571 0.27242 0.15711 0.0
C534 C 0.22476 0.19559 0.96527 0.0
C535 C 0.2683 0.3045 1.05028 0.0
H536 H 0.27931 0.25589 0.75126 0.0
H537 H 0.2164 0.25696 0.72412 0.0
H538 H 0.2936 0.27076 0.97166 0.0
H539 H 0.27806 0.23242 0.93742 0.0
H540 H 0.29839 0.25539 0.8796 0.0
H541 H 0.1957 0.25046 0.83084 0.0
H542 H 0.2005 0.23252 0.90925 0.0
H543 H 0.21563 0.27105 0.93035 0.0
H544 H 0.22774 0.20028 0.13235 0.0
H545 H 0.26344 0.29196 0.20435 0.0
H546 H 0.23807 0.19519 0.93366 0.0
H547 H 0.21117 0.19443 0.91663 0.0
H548 H 0.21645 0.17618 0.99305 0.0
H549 H 0.28226 0.30762 1.01654 0.0
H550 H 0.27621 0.32184 0.10734 0.0
H551 H 0.25532 0.30664 1.00842 0.0
C552 C 0.48906 0.25917 0.29704 0.0
C553 C 0.4986 0.27206 0.38211 0.0
C554 C 0.49305 0.2382 0.26106 0.0
C555 C 0.50798 0.23182 0.31012 0.0
C556 C 0.52282 0.25118 0.38564 0.0
C557 C 0.51886 0.27251 0.4186 0.0
C558 C 0.47884 0.22029 0.17552 0.0
C559 C 0.5407 0.24715 0.43646 0.0
C560 C 0.47314 0.15112 0.27346 0.0
C561 C 0.48069 0.14618 0.20219 0.0
C562 C 0.4836 0.17964 0.31672 0.0
C563 C 0.50329 0.20198 0.29306 0.0
C564 C 0.51534 0.19429 0.24248 0.0
C565 C 0.50473 0.16496 0.20477 0.0
C566 C 0.47141 0.18604 0.37737 0.0
C567 C 0.53753 0.21672 0.22056 0.0
H568 H 0.47527 0.26124 0.26387 0.0
H569 H 0.52886 0.28543 0.48032 0.0
H570 H 0.4647 0.19865 0.18132 0.0
H571 H 0.47056 0.23027 0.14143 0.0
H572 H 0.49036 0.21759 0.13859 0.0
H573 H 0.5489 0.26203 0.49862 0.0
H574 H 0.53248 0.22462 0.44577 0.0
H575 H 0.55476 0.2513 0.40233 0.0
H576 H 0.45616 0.13487 0.28259 0.0
H577 H 0.51237 0.15921 0.15845 0.0
H578 H 0.45946 0.19159 0.34372 0.0
H579 H 0.4844 0.20458 0.4285 0.0
H580 H 0.46071 0.16706 0.40444 0.0
H581 H 0.54128 0.20775 0.16524 0.0
H582 H 0.55251 0.22471 0.27408 0.0
H583 H 0.53647 0.23544 0.20774 0.0
C584 C 0.93055 0.21547 0.24211 0.0
C585 C 0.91945 0.221 0.30081 0.0
C586 C 0.92174 0.18702 0.20173 0.0
C587 C 0.90126 0.16413 0.21991 0.0
C588 C 0.88742 0.1704 0.26384 0.0
C589 C 0.89638 0.19906 0.30178 0.0
C590 C 0.9361 0.18132 0.14914 0.0
C591 C 0.86489 0.14697 0.28146 0.0
C592 C 0.89085 0.09547 0.10318 0.0
C593 C 0.9101 0.0964 0.15111 0.0
C594 C 0.88503 0.11561 0.12909 0.0
C595 C 0.89741 0.13484 0.2069 0.0
C596 C 0.911 0.129 0.26494 0.0
C597 C 0.91659 0.10876 0.23666 0.0
C598 C 0.86861 0.11892 0.06722 0.0
C599 C 0.92278 0.1473 0.35206 0.0
H600 H 0.94783 0.23255 0.23776 0.0
H601 H 0.88679 0.20305 0.34331 0.0
H602 H 0.94652 0.17452 0.18678 0.0
H603 H 0.92455 0.16372 0.09371 0.0
H604 H 0.94848 0.20092 0.12768 0.0
H605 H 0.85212 0.15391 0.28187 0.0
H606 H 0.85661 0.12637 0.23528 0.0
H607 H 0.86872 0.14301 0.34437 0.0
H608 H 0.88346 0.08354 1.03918 0.0
H609 H 0.92965 0.10717 0.27716 0.0
H610 H 0.85242 0.0975 1.03952 0.0
H611 H 0.87721 0.12738 1.01553 0.0
H612 H 0.86365 0.13362 0.09549 0.0
H613 H 0.93854 0.16814 0.34946 0.0
H614 H 0.92852 0.1365 0.39375 0.0
H615 H 0.91079 0.15213 0.37955 0.0
C616 C 0.9457 0.60227 0.3001 0.0
C617 C 0.92261 0.58444 0.31006 0.0
C618 C 0.95144 0.62608 0.2631 0.0
C619 C 0.93326 0.62968 0.22725 0.0
C620 C 0.9096 0.60742 0.2175 0.0
C621 C 0.90448 0.58447 0.25744 0.0
C622 C 0.97693 0.64935 0.27312 0.0
C623 C 0.88972 0.60992 0.17583 0.0
C624 C 0.94841 0.70697 0.2573 0.0
C625 C 0.95182 0.71247 0.1785 0.0
C626 C 0.94169 0.6796 0.27341 0.0
C627 C 0.93889 0.65792 0.20933 0.0
C628 C 0.94189 0.66344 0.12926 0.0
C629 C 0.94843 0.69074 0.11496 0.0
C630 C 0.93783 0.67393 0.35896 0.0
C631 C 0.93918 0.64118 1.0593 0.0
H632 H 0.95974 0.60067 0.33322 0.0
H633 H 0.88625 0.56949 0.25749 0.0
H634 H 0.98022 0.65627 0.21321 0.0
H635 H 0.98122 0.66852 0.31928 0.0
H636 H 0.98893 0.64225 0.29573 0.0
H637 H 0.87256 0.58912 0.16304 0.0
H638 H 0.88863 0.62624 0.21749 0.0
H639 H 0.89292 0.61729 0.11642 0.0
H640 H 0.9513 0.72404 0.30597 0.0
H641 H 0.9514 0.69538 1.05402 0.0
H642 H 0.95061 0.66889 0.38855 0.0
H643 H 0.91996 0.65488 0.35368 0.0
H644 H 0.93977 0.69267 0.40038 0.0
H645 H 0.95626 0.64272 0.06344 0.0
H646 H 0.93418 0.6451 0.99765 0.0
H647 H 0.92579 0.61885 0.06266 0.0
C648 C 0.23257 0.33245 0.37832 0.0
C649 C 0.21954 0.30723 0.4086 0.0
C650 C 0.22302 0.34873 0.35393 0.0
C651 C 0.19977 0.33998 0.36036 0.0
C652 C 0.18634 0.3143 0.38975 0.0
C653 C 0.19631 0.29822 0.41314 0.0
C654 C 0.23797 0.37553 0.3217 0.0
C655 C 0.16146 0.3039 0.39718 0.0
C656 C 0.187 0.40046 0.38107 0.0
C657 C 0.17588 0.39737 0.29915 0.0
C658 C 0.19412 0.38148 0.40198 0.0
C659 C 0.19016 0.35857 0.33983 0.0
C660 C 0.17844 0.35485 0.25739 0.0
C661 C 0.17151 0.37419 0.23814 0.0
C662 C 0.20658 0.38652 0.49054 0.0
C663 C 0.17371 0.33082 0.18879 0.0
H664 H 0.25039 0.33952 0.37307 0.0
H665 H 0.18592 0.27864 0.43539 0.0
H666 H 0.2288 0.37408 0.2589 0.0
H667 H 0.2408 0.39476 0.36348 0.0
H668 H 0.25538 0.3789 0.31747 0.0
H669 H 0.15302 0.2831 0.41831 0.0
H670 H 0.16134 0.32031 0.44223 0.0
H671 H 0.15072 0.30113 0.33611 0.0
H672 H 0.19087 0.41836 0.42884 0.0
H673 H 0.16265 0.37112 0.17488 0.0
H674 H 0.22488 0.39229 0.49193 0.0
H675 H 0.19771 0.36645 0.51498 0.0
H676 H 0.20711 0.40408 0.53283 0.0
H677 H 0.1906 0.33473 0.1756 0.0
H678 H 0.16255 0.32908 0.13009 0.0
H679 H 0.16492 0.30985 0.20866 0.0
C680 C 0.66838 0.61399 0.23107 0.0
C681 C 0.6738 0.59909 0.17197 0.0
C682 C 0.68034 0.6446 0.25032 0.0
C683 C 0.69789 0.66157 0.20762 0.0
C684 C 0.70352 0.64665 0.14784 0.0
C685 C 0.6918 0.61591 0.13188 0.0
C686 C 0.67416 0.65884 0.31716 0.0
C687 C 0.72167 0.66318 0.09914 0.0
C688 C 0.71135 0.73935 0.2059 0.0
C689 C 0.73263 0.75699 0.26571 0.0
C690 C 0.70026 0.70871 0.18532 0.0
C691 C 0.7102 0.69465 0.22609 0.0
C692 C 0.73159 0.71241 0.28699 0.0
C693 C 0.74248 0.74292 0.30518 0.0
C694 C 0.67785 0.69127 0.11897 0.0
C695 C 0.74294 0.69915 0.33431 0.0
H696 H 0.65476 0.60157 0.26346 0.0
H697 H 0.69623 0.60497 0.08588 0.0
H698 H 0.69023 0.67477 0.36535 0.0
H699 H 0.66682 0.6708 0.28964 0.0
H700 H 0.66115 0.64299 0.34807 0.0
H701 H 0.72395 0.64874 1.05415 0.0
H702 H 0.71642 0.67584 0.06432 0.0
H703 H 0.73886 0.67877 0.14234 0.0
H704 H 0.70349 0.74954 0.17391 0.0
H705 H 0.75885 0.75585 0.3515 0.0
H706 H 0.6633 0.67633 0.14645 0.0
H707 H 0.67989 0.67786 0.0696 0.0
H708 H 0.67281 0.70511 0.08978 0.0
H709 H 0.73069 0.68432 0.36932 0.0
H710 H 0.75962 0.71567 0.37906 0.0
H711 H 0.74667 0.68611 0.29023 0.0
C712 C 0.49185 0.99531 0.24899 0.0
C713 C 0.49471 0.01116 0.18604 0.0
C714 C 0.47172 0.98475 0.28259 0.0
C715 C 0.45415 0.99032 0.25276 0.0
C716 C 0.458 1.00853 0.19484 0.0
C717 C 0.47819 0.01862 0.16181 0.0
C718 C 0.46841 0.9657 0.34509 0.0
C719 C 0.44006 0.01573 0.16327 0.0
C720 C 0.39205 0.92895 0.24255 0.0
C721 C 0.38728 0.93806 0.31588 0.0
C722 C 0.41348 0.94625 0.22027 0.0
C723 C 0.43052 0.97352 0.27217 0.0
C724 C 0.42533 0.9835 0.34418 0.0
C725 C 0.40383 0.96549 0.36568 0.0
C726 C 0.41826 0.93478 0.1428 0.0
C727 C 0.44273 0.01269 0.40004 0.0
H728 H 0.50456 0.98953 0.26808 0.0
H729 H 0.48061 0.03143 0.11446 0.0
H730 H 0.4628 0.97248 0.39868 0.0
H731 H 0.45432 0.94309 0.31518 0.0
H732 H 0.48472 0.96616 0.36903 0.0
H733 H 0.4475 0.03417 0.13118 0.0
H734 H 0.42498 0.99668 0.11829 0.0
H735 H 0.43319 0.02103 0.21527 0.0
H736 H 0.37938 0.90769 0.20427 0.0
H737 H 0.40004 0.97273 0.42195 0.0
H738 H 0.43331 0.93212 0.16038 0.0
H739 H 0.42314 0.95036 0.10082 0.0
H740 H 0.40284 0.91364 0.1076 0.0
H741 H 0.45709 0.01183 0.43762 0.0
H742 H 0.43441 0.01943 0.44352 0.0
H743 H 0.45081 0.0294 0.3626 0.0
C744 C 0.57493 0.13669 1.03222 0.0
C745 C 0.59361 0.14226 0.99247 0.0
C746 C 0.55697 0.14174 1.00123 0.0
C747 C 0.5566 0.15197 0.92591 0.0
C748 C 0.57566 0.15816 0.88612 0.0
C749 C 0.59377 0.15347 0.91966 0.0
C750 C 0.53779 0.1351 1.04825 0.0
C751 C 0.57652 0.1689 0.80592 0.0
C752 C 0.49664 0.13572 0.79767 0.0
C753 C 0.49685 0.1612 0.82275 0.0
C754 C 0.51559 0.13244 0.83055 0.0
C755 C 0.53614 0.15545 0.88851 0.0
C756 C 0.53655 0.18141 0.91251 0.0
C757 C 0.51699 0.18368 0.88123 0.0
C758 C 0.51329 0.10382 0.80481 0.0
C759 C 0.5577 0.20698 0.97228 0.0
H760 H 0.57403 0.12758 0.0875 0.0
H761 H 0.6074 0.15714 0.88607 0.0
H762 H 0.53583 0.15389 0.06029 0.0
H763 H 0.52078 0.11672 1.00985 0.0
H764 H 0.54131 0.12953 0.10886 0.0
H765 H 0.59275 0.17404 0.78397 0.0
H766 H 0.56108 0.15223 0.75662 0.0
H767 H 0.57554 0.1885 0.81445 0.0
H768 H 0.4812 0.11782 0.7543 0.0
H769 H 0.51757 0.20343 0.90236 0.0
H770 H 0.51396 0.09452 0.8606 0.0
H771 H 0.52825 0.10691 0.77721 0.0
H772 H 0.49661 0.08807 0.75893 0.0
H773 H 0.55962 0.20155 1.03431 0.0
H774 H 0.55638 0.22637 0.97994 0.0
H775 H 0.5739 0.21236 0.94989 0.0
C776 C 0.97967 0.27206 0.9628 0.0
C777 C 0.98591 0.25817 0.90449 0.0
C778 C 0.9957 0.30073 1.00671 0.0
C779 C 1.01851 0.31654 0.99035 0.0
C780 C 0.02513 0.30231 0.93299 0.0
C781 C 1.00888 0.27322 0.8916 0.0
C782 C 0.98786 0.31443 0.06854 0.0
C783 C 0.04895 0.3183 0.91178 0.0
C784 C 0.04606 0.3984 1.02707 0.0
C785 C 0.0629 0.40863 0.10207 0.0
C786 C 0.03219 0.3688 0.98913 0.0
C787 C 0.0345 0.34841 1.02812 0.0
C788 C 0.05139 0.35858 0.10431 0.0
C789 C 0.06564 0.38854 0.13952 0.0
C790 C 1.01499 0.35935 0.90697 0.0
C791 C 0.05404 0.33774 0.14962 0.0
H792 H 0.96194 0.26057 0.97304 0.0
H793 H 1.01376 0.26279 0.84583 0.0
H794 H 1.00127 0.32529 0.12809 0.0
H795 H 0.98591 0.33116 1.04355 0.0
H796 H 0.9708 0.29839 0.08179 0.0
H797 H 0.05213 0.30382 0.87087 0.0
H798 H 0.05031 0.33552 0.87934 0.0
H799 H 0.06305 0.32897 0.96945 0.0
H800 H 0.04397 0.41372 0.99694 0.0
H801 H 0.07856 0.39617 0.19749 0.0
H802 H 0.99677 0.34554 0.91495 0.0
H803 H 1.01803 0.34622 0.86024 0.0
H804 H 1.01643 0.37794 0.88177 0.0
H805 H 0.03715 0.32263 0.16567 0.0
H806 H 0.06798 0.34894 0.20788 0.0
H807 H 0.05833 0.32456 0.10861 0.0
C808 C 0.8874 0.66387 0.97387 0.0
C809 C 0.88398 0.65668 0.88688 0.0
C810 C 0.86853 0.6502 1.01416 0.0
C811 C 0.84565 0.62888 0.96626 0.0
C812 C 0.8422 0.62179 0.87852 0.0
C813 C 0.86123 0.63572 0.84027 0.0
C814 C 0.87318 0.65878 0.10779 0.0
C815 C 0.81833 0.59908 0.82463 0.0
C816 C 0.79749 0.56998 1.05166 0.0
C817 C 0.78239 0.58011 1.059 0.0
C818 C 0.81869 0.58622 1.02581 0.0
C819 C 0.82513 0.61341 1.00628 0.0
C820 C 0.81034 0.62416 1.01601 0.0
C821 C 0.78925 0.60747 1.04221 0.0
C822 C 0.83333 0.57319 1.01505 0.0
C823 C 0.81633 0.65285 0.99551 0.0
H824 H 0.90483 0.67992 1.01058 0.0
H825 H 0.85821 0.62973 0.77307 0.0
H826 H 0.86279 0.63985 0.13531 0.0
H827 H 0.89212 0.66925 0.13715 0.0
H828 H 0.86788 0.67443 0.12358 0.0
H829 H 0.81829 0.59704 0.75698 0.0
H830 H 0.81275 0.57782 0.84087 0.0
H831 H 0.80505 0.60432 0.83634 0.0
H832 H 0.79239 0.54877 0.0633 0.0
H833 H 0.77802 0.61584 1.04899 0.0
H834 H 0.85217 0.58987 1.02221 0.0
H835 H 0.82685 0.55945 0.95153 0.0
H836 H 0.8317 0.55922 0.06059 0.0
H837 H 0.8342 0.67007 1.03119 0.0
H838 H 0.80362 0.65884 1.00979 0.0
H839 H 0.81646 0.65201 0.92819 0.0
C840 C 0.95412 0.61667 0.89394 0.0
C841 C 0.96522 0.64565 0.88667 0.0
C842 C 0.96698 0.60547 0.92814 0.0
C843 C 0.99162 0.62377 0.95709 0.0
C844 C 1.00293 0.65329 0.95209 0.0
C845 C 0.98958 0.66387 0.91613 0.0
C846 C 0.95417 0.57387 0.9321 0.0
C847 C 0.0291 0.67354 0.98402 0.0
C848 C 1.01657 0.59388 0.10707 0.0
C849 C 1.02402 0.58006 1.05399 0.0
C850 C 1.00722 0.6096 0.07733 0.0
C851 C 1.00519 0.61154 0.99237 0.0
C852 C 1.01363 0.5987 0.93921 0.0
C853 C 1.02304 0.58317 0.97076 0.0
C854 C 0.99862 0.62311 0.13617 0.0
C855 C 1.01156 0.60002 0.84798 0.0
H856 H 0.93527 0.60241 0.87132 0.0
H857 H 0.99817 0.68627 0.91058 0.0
H858 H 0.96142 0.56298 0.89735 0.0
H859 H 0.95678 0.57156 0.99782 0.0
H860 H 0.93499 0.56249 0.9055 0.0
H861 H 0.03515 0.69599 0.97732 0.0
H862 H 0.03407 0.67365 1.05084 0.0
H863 H 0.03856 0.66592 0.9495 0.0
H864 H 1.01776 0.59203 0.17192 0.0
H865 H 0.02871 0.57246 0.92942 0.0
H866 H 0.97925 0.61224 0.11693 0.0
H867 H 1.00635 0.64621 0.13376 0.0
H868 H 1.00316 0.62148 0.20156 0.0
H869 H 0.99274 0.58714 0.81539 0.0
H870 H 1.021 0.59147 0.81705 0.0
H871 H 1.01865 0.62257 0.84042 0.0
C872 C 0.58927 0.38778 1.01916 0.0
C873 C 0.58475 0.40837 1.05533 0.0
C874 C 0.57094 0.35817 0.98702 0.0
C875 C 0.54708 0.34827 0.98971 0.0
C876 C 0.54263 0.36888 1.02815 0.0
C877 C 0.5612 0.39812 0.06002 0.0
C878 C 0.57706 0.33754 0.94789 0.0
C879 C 0.51794 0.36027 1.03376 0.0
C880 C 0.49493 0.28362 0.82413 0.0
C881 C 0.48638 0.26026 0.86533 0.0
C882 C 0.51479 0.31148 0.86256 0.0
C883 C 0.52661 0.31739 0.94675 0.0
C884 C 0.51797 0.29395 0.98938 0.0
C885 C 0.49841 0.26584 0.94815 0.0
C886 C 0.52311 0.3348 0.81235 0.0
C887 C 0.52921 0.29863 0.0793 0.0
H888 H 0.60712 0.39487 1.01448 0.0
H889 H 0.55699 0.41327 0.0873 0.0
H890 H 0.56989 0.31809 0.97566 0.0
H891 H 0.56887 0.33022 0.88017 0.0
H892 H 0.59635 0.34756 0.95597 0.0
H893 H 0.51738 0.37799 0.07047 0.0
H894 H 0.50697 0.35403 0.97011 0.0
H895 H 0.5099 0.34119 0.06292 0.0
H896 H 0.4862 0.28007 0.76029 0.0
H897 H 0.49226 0.24833 0.98148 0.0
H898 H 0.54205 0.34426 0.81336 0.0
H899 H 0.52113 0.35246 0.84066 0.0
H900 H 0.51318 0.3266 0.74633 0.0
H901 H 0.54811 0.30648 0.08557 0.0
H902 H 0.52067 0.27861 0.10434 0.0
H903 H 0.52817 0.31554 0.11817 0.0
C904 C 0.88723 0.17694 0.95246 0.0
C905 C 0.88437 0.16455 0.86918 0.0
C906 C 0.86843 0.17704 0.98189 0.0
C907 C 0.84591 0.16411 0.92767 0.0
C908 C 0.84293 0.1511 0.84422 0.0
C909 C 0.86201 0.15171 0.8162 0.0
C910 C 0.87278 0.19158 0.07077 0.0
C911 C 0.81946 0.13663 0.78374 0.0
C912 C 0.78917 0.14119 1.00988 0.0
C913 C 0.78496 0.16331 0.99859 0.0
C914 C 0.80894 0.14143 0.98921 0.0
C915 C 0.82553 0.1645 0.95653 0.0
C916 C 0.82168 0.1872 0.94668 0.0
C917 C 0.8017 0.18634 0.96752 0.0
C918 C 0.81207 0.11694 1.00401 0.0
C919 C 0.83847 0.21227 0.91193 0.0
H920 H 0.90436 0.18731 0.99413 0.0
H921 H 0.85938 0.14211 0.75175 0.0
H922 H 0.86958 0.20944 0.07176 0.0
H923 H 0.86031 0.17601 0.10365 0.0
H924 H 0.89101 0.20053 0.10546 0.0
H925 H 0.81972 0.1271 0.72134 0.0
H926 H 0.80578 0.11927 0.80885 0.0
H927 H 0.81427 0.15252 0.77619 0.0
H928 H 0.77699 0.12351 1.03555 0.0
H929 H 0.79891 0.20354 0.95709 0.0
H930 H 0.82419 0.12367 0.06546 0.0
H931 H 0.81974 0.11123 0.95561 0.0
H932 H 0.79514 0.09732 1.00557 0.0
H933 H 0.85671 0.22226 0.94832 0.0
H934 H 0.83405 0.22913 0.91277 0.0
H935 H 0.83809 0.20443 0.84661 0.0
C936 C 0.68246 0.05232 0.08614 0.0
C937 C 0.6594 0.04442 0.09009 0.0
C938 C 0.69164 0.03553 0.11048 0.0
C939 C 0.67776 0.01051 0.14198 0.0
C940 C 0.65482 1.00315 0.14912 0.0
C941 C 0.64587 0.01982 0.12216 0.0
C942 C 0.71607 0.04427 0.10077 0.0
C943 C 0.6396 0.97745 0.18505 0.0
C944 C 0.68863 0.94828 0.12409 0.0
C945 C 0.70097 0.95241 0.20496 0.0
C946 C 0.68152 0.96726 0.10278 0.0
C947 C 0.6866 0.99118 0.16351 0.0
C948 C 0.69928 0.99574 0.24506 0.0
C949 C 0.70631 0.97648 0.2646 0.0
C950 C 0.66813 0.96135 1.0151 0.0
C951 C 0.70513 0.02076 0.3123 0.0
H952 H 0.6932 0.07133 0.0622 0.0
H953 H 0.62825 0.01377 0.12744 0.0
H954 H 0.72701 0.04706 0.16134 0.0
H955 H 0.71517 0.02692 1.05622 0.0
H956 H 0.72492 0.06467 0.07773 0.0
H957 H 0.62283 0.97562 0.19166 0.0
H958 H 0.63549 0.95733 0.14422 0.0
H959 H 0.64917 0.97907 0.24729 0.0
H960 H 0.68395 0.92969 0.07739 0.0
H961 H 0.7161 0.98042 0.32696 0.0
H962 H 0.67699 0.98076 0.98772 0.0
H963 H 0.6502 0.95659 1.01632 0.0
H964 H 0.66658 0.94284 0.97377 0.0
H965 H 0.71548 0.0414 0.29201 0.0
H966 H 0.71532 0.02165 0.37223 0.0
H967 H 0.68871 0.01902 0.32325 0.0
C968 C 0.20092 0.73739 0.39014 0.0
C969 C 0.204 0.75265 0.32543 0.0
C970 C 0.18999 0.70689 0.3735 0.0
C971 C 0.18174 0.69083 0.28985 0.0
C972 C 0.18445 0.70625 0.22433 0.0
C973 C 0.19567 0.73676 0.24283 0.0
C974 C 0.18761 0.69187 0.44582 0.0
C975 C 0.17579 0.69053 0.13425 0.0
C976 C 0.17292 0.61474 0.24801 0.0
C977 C 0.14844 0.5962 0.23602 0.0
C978 C 0.18387 0.6453 0.26413 0.0
C979 C 0.17027 0.65808 0.271 0.0
C980 C 0.14558 0.63938 0.25984 0.0
C981 C 0.13508 0.60903 0.24172 0.0
C982 C 0.21009 0.66399 0.27327 0.0
C983 C 0.13013 0.65141 0.26766 0.0
H984 H 0.20762 0.74943 0.45412 0.0
H985 H 0.19821 0.74832 0.19234 0.0
H986 H 0.16888 0.67508 0.44075 0.0
H987 H 0.1974 0.68077 0.44405 0.0
H988 H 0.19437 0.70709 0.50704 0.0
H989 H 0.17869 0.70534 0.09041 0.0
H990 H 0.18496 0.67912 0.12129 0.0
H991 H 0.15674 0.67392 0.12168 0.0
H992 H 0.18353 0.60536 0.2435 0.0
H993 H 0.11619 0.59523 0.23337 0.0
H994 H 0.21833 0.67848 0.33593 0.0
H995 H 0.21407 0.67792 0.22657 0.0
H996 H 0.21825 0.65105 0.26484 0.0
H997 H 0.1359 0.66549 0.33028 0.0
H998 H 0.11131 0.63417 0.25848 0.0
H999 H 0.13182 0.66497 0.22097 0.0
C1000 C 0.49208 0.41872 0.27405 0.0
C1001 C 0.49272 0.41378 0.18966 0.0
C1002 C 0.47124 0.40256 0.30132 0.0
C1003 C 0.45049 0.38105 0.24274 0.0
C1004 C 0.45145 0.37451 0.15862 0.0
C1005 C 0.47257 0.39098 0.13306 0.0
C1006 C 0.47107 0.40988 0.39191 0.0
C1007 C 0.42987 0.3514 0.09446 0.0
C1008 C 0.39805 0.33371 0.33311 0.0
C1009 C 0.38689 0.34928 0.33369 0.0
C1010 C 0.41836 0.34308 0.30085 0.0
C1011 C 0.42747 0.36841 0.26771 0.0
C1012 C 0.4155 0.38327 0.2643 0.0
C1013 C 0.39548 0.37366 0.29798 0.0
C1014 C 0.43063 0.32669 0.30591 0.0
C1015 C 0.42433 0.40998 0.22773 0.0
H1016 H 0.50753 0.4363 0.31822 0.0
H1017 H 0.47312 0.38658 0.06811 0.0
H1018 H 0.46101 0.42054 0.39742 0.0
H1019 H 0.46223 0.38997 0.41702 0.0
H1020 H 0.4891 0.42459 0.43114 0.0
H1021 H 0.43436 0.34554 1.03616 0.0
H1022 H 0.41998 0.33167 0.11946 0.0
H1023 H 0.41802 0.35932 0.07867 0.0
H1024 H 0.39145 0.31487 0.36098 0.0
H1025 H 0.38665 0.38544 0.29734 0.0
H1026 H 0.4471 0.33941 0.35489 0.0
H1027 H 0.43556 0.32344 0.24609 0.0
H1028 H 0.41953 0.3053 0.32151 0.0
H1029 H 0.44164 0.42754 0.26663 0.0
H1030 H 0.41206 0.41775 0.22413 0.0
H1031 H 0.4269 0.40557 0.16408 0.0
C1032 C 0.92589 0.72591 0.53565 0.0
C1033 C 0.9185 0.71926 0.60958 0.0
C1034 C 0.9149 0.73499 0.47951 0.0
C1035 C 0.89673 0.73847 0.49998 0.0
C1036 C 0.88871 0.73073 0.57362 0.0
C1037 C 0.89947 0.72067 0.62691 0.0
C1038 C 0.92331 0.74121 0.39978 0.0
C1039 C 0.86998 0.73507 0.59932 0.0
C1040 C 0.89073 0.7986 0.43647 0.0
C1041 C 0.86909 0.78325 0.37859 0.0
C1042 C 0.90044 0.78426 0.4732 0.0
C1043 C 0.88822 0.75378 0.45172 0.0
C1044 C 0.8672 0.73824 0.38925 0.0
C1045 C 0.85773 0.75315 0.35377 0.0
C1046 C 0.92334 0.80167 0.53763 0.0
C1047 C 0.85453 0.70588 0.36161 0.0
H1048 H 0.94057 0.72451 0.52249 0.0
H1049 H 0.89401 0.71572 0.68484 0.0
H1050 H 0.918 0.75449 0.36887 0.0
H1051 H 0.94276 0.75232 0.41202 0.0
H1052 H 0.91587 0.72037 0.35553 0.0
H1053 H 0.86483 0.72646 0.65583 0.0
H1054 H 0.87659 0.75848 0.61265 0.0
H1055 H 0.85411 0.72438 0.54786 0.0
H1056 H 0.89955 0.82181 0.45658 0.0
H1057 H 0.84122 0.74124 0.30794 0.0
H1058 H 0.93637 0.79701 0.51876 0.0
H1059 H 0.92055 0.79541 0.59863 0.0
H1060 H 0.93087 0.82528 0.54607 0.0
H1061 H 0.86692 0.69977 0.34425 0.0
H1062 H 0.83949 0.69725 0.30756 0.0
H1063 H 0.84783 0.69546 0.41391 0.0
C1064 C 0.37831 0.08347 0.55263 0.0
C1065 C 0.39056 0.08817 0.63422 0.0
C1066 C 0.35895 0.05559 0.50991 0.0
C1067 C 0.35093 0.03158 0.54989 0.0
C1068 C 0.36307 0.03648 0.6327 0.0
C1069 C 0.38264 0.06422 0.67282 0.0
C1070 C 0.3472 0.05175 0.42138 0.0
C1071 C 0.35531 0.01225 0.67961 0.0
C1072 C 0.28862 0.96176 0.47729 0.0
C1073 C 0.2931 0.94173 0.43714 0.0
C1074 C 0.3069 0.99112 0.511 0.0
C1075 C 0.33056 1.00117 0.50546 0.0
C1076 C 0.33497 0.98118 0.46269 0.0
C1077 C 0.31644 0.95213 0.42952 0.0
C1078 C 0.30097 0.01123 0.55514 0.0
C1079 C 0.35954 0.99018 0.45408 0.0
H1080 H 0.38404 0.10154 0.52165 0.0
H1081 H 0.39157 0.06723 0.73592 0.0
H1082 H 0.34843 0.03559 0.37951 0.0
H1083 H 0.32825 0.04329 0.41681 0.0
H1084 H 0.35525 0.07226 0.39864 0.0
H1085 H 0.3658 0.0196 0.74466 0.0
H1086 H 0.33652 1.00269 0.68148 0.0
H1087 H 0.35695 0.99489 0.64681 0.0
H1088 H 0.27087 0.95436 0.48414 0.0
H1089 H 0.32049 0.93726 0.39905 0.0
H1090 H 0.30797 0.03124 0.53007 0.0
H1091 H 0.30945 0.01765 0.62249 0.0
H1092 H 0.28173 1.00113 0.54867 0.0
H1093 H 0.36758 0.01018 0.42898 0.0
H1094 H 0.35986 0.97314 0.41252 0.0
H1095 H 0.37067 0.995 0.5164 0.0
C1096 C 1.02126 0.18765 0.69782 0.0
C1097 C 1.00294 0.18865 0.65023 0.0
C1098 C 0.03965 0.18859 0.66384 0.0
C1099 C 0.04027 0.19075 0.57938 0.0
C1100 C 1.02189 0.19186 0.53063 0.0
C1101 C 1.00352 0.19074 0.56633 0.0
C1102 C 0.05847 0.18707 0.71883 0.0
C1103 C 1.02158 0.19417 0.44048 0.0
C1104 C 0.10108 0.21899 0.52592 0.0
C1105 C 0.09999 0.19347 0.4931 0.0
C1106 C 0.08168 0.21849 0.551 0.0
C1107 C 0.06023 0.19183 0.54347 0.0
C1108 C 0.05872 0.16607 0.50794 0.0
C1109 C 0.07841 0.16717 0.48362 0.0
C1110 C 0.08437 0.24663 0.58759 0.0
C1111 C 0.03642 0.13706 0.49794 0.0
H1112 H 1.02122 0.18587 0.76243 0.0
H1113 H 0.98959 0.19144 0.52832 0.0
H1114 H 0.05896 0.16812 0.6913 0.0
H1115 H 0.07595 0.20661 0.72268 0.0
H1116 H 0.05558 0.18535 0.78308 0.0
H1117 H 0.03771 0.21427 0.4361 0.0
H1118 H 1.02158 0.17583 0.40511 0.0
H1119 H 1.006 0.19429 0.41022 0.0
H1120 H 0.11721 0.2396 0.53225 0.0
H1121 H 0.07701 0.14713 0.45941 0.0
H1122 H 0.0831 0.24734 0.65395 0.0
H1123 H 0.06994 0.24832 0.55426 0.0
H1124 H 0.10145 0.26565 0.58424 0.0
H1125 H 0.03332 0.13256 0.56036 0.0
H1126 H 0.03718 0.11925 0.46282 0.0
H1127 H 1.02113 0.13716 0.4649 0.0
C1128 C 0.36996 0.1983 0.71446 0.0
C1129 C 0.37852 0.18542 0.66284 0.0
C1130 C 0.35156 0.20244 0.68161 0.0
C1131 C 0.34053 0.1927 0.59493 0.0
C1132 C 0.34863 0.1788 0.54334 0.0
C1133 C 0.36751 0.17582 0.57722 0.0
C1134 C 0.34442 0.21818 0.73959 0.0
C1135 C 0.33751 0.16723 0.4514 0.0
C1136 C 0.28051 0.18634 0.51988 0.0
C1137 C 0.28719 0.2114 0.48744 0.0
C1138 C 0.29736 0.1797 0.55346 0.0
C1139 C 0.32183 0.19875 0.55724 0.0
C1140 C 0.32851 0.22385 0.52384 0.0
C1141 C 0.31138 0.22958 0.48928 0.0
C1142 C 0.28893 0.15222 0.58541 0.0
C1143 C 0.35404 0.24528 0.52613 0.0
H1144 H 0.3782 0.20608 0.78037 0.0
H1145 H 0.3736 0.16565 0.536 0.0
H1146 H 0.34765 0.23816 0.71897 0.0
H1147 H 0.32532 0.20458 0.73721 0.0
H1148 H 0.3542 0.2241 0.80522 0.0
H1149 H 0.3438 0.15419 0.42132 0.0
H1150 H 0.31809 0.15364 0.44176 0.0
H1151 H 0.34164 0.1854 0.41941 0.0
H1152 H 0.26213 0.172 0.51989 0.0
H1153 H 0.31728 0.24912 0.4654 0.0
H1154 H 0.29625 0.15745 0.65348 0.0
H1155 H 0.29536 0.13942 0.55501 0.0
H1156 H 0.26946 0.13871 0.57385 0.0
H1157 H 0.36438 0.25319 0.59147 0.0
H1158 H 0.35661 0.26415 0.49979 0.0
H1159 H 0.36131 0.23468 0.4903 0.0
C1160 C 0.84217 0.96274 0.40179 0.0
C1161 C 0.81848 0.94754 0.40771 0.0
C1162 C 0.85781 0.99217 0.44111 0.0
C1163 C 0.84996 1.00709 0.48975 0.0
C1164 C 0.82593 0.99203 0.49453 0.0
C1165 C 0.81052 0.96272 0.45308 0.0
C1166 C 0.88301 1.00713 0.43219 0.0
C1167 C 0.81665 1.00655 0.54638 0.0
C1168 C 0.89722 0.06997 0.66686 0.0
C1169 C 0.9016 0.09453 0.63539 0.0
C1170 C 0.88013 0.04176 0.62141 0.0
C1171 C 0.86726 0.0375 0.54056 0.0
C1172 C 0.87157 0.06231 0.50839 0.0
C1173 C 0.88842 0.09045 0.55649 0.0
C1174 C 0.87611 0.01641 0.65979 0.0
C1175 C 0.85891 0.05914 0.42199 0.0
H1176 H 0.84864 0.9515 0.36685 0.0
H1177 H 0.79238 0.95137 0.45887 0.0
H1178 H 0.88825 0.02786 0.41266 0.0
H1179 H 0.89475 0.01226 0.49335 0.0
H1180 H 0.88589 0.99365 0.38602 0.0
H1181 H 0.79736 0.99266 0.54032 0.0
H1182 H 0.82547 0.01202 0.61307 0.0
H1183 H 0.82071 0.02708 0.52772 0.0
H1184 H 0.90733 0.07285 0.72764 0.0
H1185 H 0.89191 0.10923 0.53104 0.0
H1186 H 0.88121 1.00335 0.62239 0.0
H1187 H 0.85718 1.00219 0.65925 0.0
H1188 H 0.88636 0.02326 0.7251 0.0
H1189 H 0.86316 0.04746 0.37526 0.0
H1190 H 0.86378 0.08034 0.40634 0.0
H1191 H 0.83963 0.04608 0.4164 0.0
C1192 C 0.99283 0.71624 0.54473 0.0
C1193 C 0.99681 0.7117 0.62549 0.0
C1194 C 1.01148 0.72972 0.50368 0.0
C1195 C 0.03451 0.73799 0.54345 0.0
C1196 C 0.03832 0.73241 0.62393 0.0
C1197 C 1.01954 0.71981 0.66439 0.0
C1198 C 1.00663 0.73588 0.41903 0.0
C1199 C 0.06241 0.74038 0.66829 0.0
C1200 C 0.0826 0.75274 0.42361 0.0
C1201 C 0.09702 0.78303 0.44438 0.0
C1202 C 0.06168 0.73784 0.45227 0.0
C1203 C 0.05494 0.75349 0.50334 0.0
C1204 C 0.06892 0.78409 0.52181 0.0
C1205 C 0.08974 0.79843 0.49236 0.0
C1206 C 0.04715 0.70527 0.4299 0.0
C1207 C 0.06225 0.80171 0.57484 0.0
H1208 H 0.97537 0.71062 0.51553 0.0
H1209 H 1.02267 0.71645 0.72705 0.0
H1210 H 1.01938 0.75872 0.41779 0.0
H1211 H 1.00876 0.72221 0.37092 0.0
H1212 H 0.98859 0.73158 0.40176 0.0
H1213 H 0.0622 0.73311 0.72841 0.0
H1214 H 0.0695 0.73064 0.62801 0.0
H1215 H 0.07466 0.76415 0.68101 0.0
H1216 H 0.08772 0.74061 0.38507 0.0
H1217 H 0.10071 0.82178 0.50923 0.0
H1218 H 0.0287 0.69757 0.40092 0.0
H1219 H 0.0469 0.69653 0.48738 0.0
H1220 H 0.05405 0.6963 0.38608 0.0
H1221 H 0.04375 0.79487 0.55009 0.0
H1222 H 0.07375 0.82522 0.57742 0.0
H1223 H 0.06355 0.79797 0.63938 0.0
loop_
_geom_bond_atom_site_label_1
_geom_bond_atom_site_label_2
_geom_bond_distance
_geom_bond_site_symmetry_2
_ccdc_geom_bond_type
Ho0 C3 2.811 . S
Ho0 O20 2.322 . S
Ho0 O22 2.378 . S
Ho0 O23 2.524 . S
Ho0 O24 2.381 1_554 S
Ho0 O25 2.669 1_554 S
Ho0 O27 2.346 . S
Ho0 O31 2.305 . S
Ho1 C12 2.811 . S
Ho1 O21 2.346 . S
Ho1 O25 2.305 1_554 S
Ho1 O26 2.322 . S
Ho1 O28 2.378 1_455 S
Ho1 O29 2.524 1_554 S
Ho1 O30 2.381 . S
Ho1 O31 2.669 . S
C2 O20 1.259 . S
C2 O21 1.268 . S
C3 Ho0 2.811 . S
C3 C4 1.488 . S
C3 O22 1.215 . S
C3 O23 1.289 . S
C4 C3 1.488 . S
C4 C5 1.348 . S
C4 C9 1.413 . S
C5 C4 1.348 . S
C5 C6 1.442 . S
C5 H32 0.930 . S
C6 C5 1.442 . S
C6 C7 1.381 . S
C6 H33 0.931 . S
C7 C6 1.381 . S
C7 C8 1.321 . S
C8 C7 1.321 . S
C8 C9 1.403 . S
C8 H34 0.934 . S
C9 C4 1.413 . S
C9 C8 1.403 . S
C9 H35 0.930 . S
C10 O24 1.275 . S
C10 O25 1.256 . S
C11 O26 1.259 . S
C11 O27 1.268 . S
C12 Ho1 2.811 . S
C12 C13 1.488 1_455 S
C12 O28 1.215 1_455 S
C12 O29 1.289 1_554 S
C13 C12 1.488 1_655 S
C13 C14 1.348 1_654 S
C13 C18 1.413 . S
C14 C13 1.348 1_456 S
C14 C15 1.442 1_455 S
C14 H36 0.930 . S
C15 C14 1.442 1_655 S
C15 C16 1.381 1_556 S
C15 H37 0.931 1_655 S
C16 C15 1.381 1_554 S
C16 C17 1.321 . S
C17 C16 1.321 . S
C17 C18 1.403 . S
C17 H38 0.934 . S
C18 C13 1.413 . S
C18 C17 1.403 . S
C18 H39 0.930 . S
C19 O30 1.275 . S
C19 O31 1.256 . S
O20 Ho0 2.322 . S
O20 C2 1.259 . S
O21 Ho1 2.346 . S
O21 C2 1.268 . S
O22 Ho0 2.378 . S
O22 C3 1.215 . S
O23 Ho0 2.524 . S
O23 C3 1.289 . S
O24 Ho0 2.381 1_556 S
O24 C10 1.275 . S
O25 Ho0 2.669 1_556 S
O25 Ho1 2.305 1_556 S
O25 C10 1.256 . S
O26 Ho1 2.322 . S
O26 C11 1.259 . S
O27 Ho0 2.346 . S
O27 C11 1.268 . S
O28 Ho1 2.378 1_655 S
O28 C12 1.215 1_655 S
O29 Ho1 2.524 1_556 S
O29 C12 1.289 1_556 S
O30 Ho1 2.381 . S
O30 C19 1.275 . S
O31 Ho0 2.305 . S
O31 Ho1 2.669 . S
O31 C19 1.256 . S
H32 C5 0.930 . S
H33 C6 0.931 . S
H34 C8 0.934 . S
H35 C9 0.930 . S
H36 C14 0.930 . S
H37 C15 0.931 1_455 S
H38 C17 0.934 . S
H39 C18 0.930 . S
Ho40 C43 2.811 . S
Ho40 O60 2.322 . S
Ho40 O62 2.378 . S
Ho40 O63 2.524 . S
Ho40 O64 2.381 . S
Ho40 O65 2.669 . S
Ho40 O67 2.346 . S
Ho40 O71 2.305 . S
Ho41 C52 2.811 . S
Ho41 O61 2.346 . S
Ho41 O65 2.305 . S
Ho41 O66 2.322 . S
Ho41 O68 2.378 . S
Ho41 O69 2.524 . S
Ho41 O70 2.381 . S
Ho41 O71 2.669 . S
C42 O60 1.259 . S
C42 O61 1.268 . S
C43 Ho40 2.811 . S
C43 C44 1.488 . S
C43 O62 1.215 . S
C43 O63 1.289 . S
C44 C43 1.488 . S
C44 C45 1.348 . S
C44 C49 1.413 . S
C45 C44 1.348 . S
C45 C46 1.442 . S
C45 H72 0.930 . S
C46 C45 1.442 . S
C46 C47 1.381 . S
C46 H73 0.931 . S
C47 C46 1.381 . S
C47 C48 1.321 . S
C48 C47 1.321 . S
C48 C49 1.403 . S
C48 H74 0.934 . S
C49 C44 1.413 . S
C49 C48 1.403 . S
C49 H75 0.930 . S
C50 O64 1.275 . S
C50 O65 1.256 . S
C51 O66 1.259 . S
C51 O67 1.268 . S
C52 Ho41 2.811 . S
C52 C53 1.488 . S
C52 O68 1.215 . S
C52 O69 1.289 . S
C53 C52 1.488 . S
C53 C54 1.348 . S
C53 C58 1.413 . S
C54 C53 1.348 . S
C54 C55 1.442 . S
C54 H76 0.930 . S
C55 C54 1.442 . S
C55 C56 1.381 . S
C55 H77 0.931 . S
C56 C55 1.381 . S
C56 C57 1.321 . S
C57 C56 1.321 . S
C57 C58 1.403 . S
C57 H78 0.934 . S
C58 C53 1.413 . S
C58 C57 1.403 . S
C58 H79 0.930 . S
C59 O70 1.275 1_556 S
C59 O71 1.256 1_556 S
O60 Ho40 2.322 . S
O60 C42 1.259 . S
O61 Ho41 2.346 . S
O61 C42 1.268 . S
O62 Ho40 2.378 . S
O62 C43 1.215 . S
O63 Ho40 2.524 . S
O63 C43 1.289 . S
O64 Ho40 2.381 . S
O64 C50 1.275 . S
O65 Ho40 2.669 . S
O65 Ho41 2.305 . S
O65 C50 1.256 . S
O66 Ho41 2.322 . S
O66 C51 1.259 . S
O67 Ho40 2.346 . S
O67 C51 1.268 . S
O68 Ho41 2.378 . S
O68 C52 1.215 . S
O69 Ho41 2.524 . S
O69 C52 1.289 . S
O70 Ho41 2.381 . S
O70 C59 1.275 1_554 S
O71 Ho40 2.305 . S
O71 Ho41 2.669 . S
O71 C59 1.256 1_554 S
H72 C45 0.930 . S
H73 C46 0.931 . S
H74 C48 0.934 . S
H75 C49 0.930 . S
H76 C54 0.930 . S
H77 C55 0.931 . S
H78 C57 0.934 . S
H79 C58 0.930 . S
Ho80 C83 2.811 . S
Ho80 O100 2.322 . S
Ho80 O102 2.378 . S
Ho80 O103 2.524 . S
Ho80 O104 2.381 . S
Ho80 O105 2.669 . S
Ho80 O107 2.346 . S
Ho80 O111 2.305 . S
Ho81 C92 2.811 . S
Ho81 O101 2.346 . S
Ho81 O105 2.305 . S
Ho81 O106 2.322 . S
Ho81 O108 2.378 . S
Ho81 O109 2.524 . S
Ho81 O110 2.381 . S
Ho81 O111 2.669 . S
C82 O100 1.259 . S
C82 O101 1.268 . S
C83 Ho80 2.811 . S
C83 C84 1.488 . S
C83 O102 1.215 . S
C83 O103 1.289 . S
C84 C83 1.488 . S
C84 C85 1.348 . S
C84 C89 1.413 . S
C85 C84 1.348 . S
C85 C86 1.442 . S
C85 H112 0.930 . S
C86 C85 1.442 . S
C86 C87 1.381 . S
C86 H113 0.931 . S
C87 C86 1.381 . S
C87 C88 1.321 . S
C88 C87 1.321 . S
C88 C89 1.403 . S
C88 H114 0.934 . S
C89 C84 1.413 . S
C89 C88 1.403 . S
C89 H115 0.930 . S
C90 O104 1.275 . S
C90 O105 1.256 . S
C91 O106 1.259 . S
C91 O107 1.268 . S
C92 Ho81 2.811 . S
C92 C93 1.488 . S
C92 O108 1.215 . S
C92 O109 1.289 . S
C93 C92 1.488 . S
C93 C94 1.348 . S
C93 C98 1.413 . S
C94 C93 1.348 . S
C94 C95 1.442 . S
C94 H116 0.930 . S
C95 C94 1.442 . S
C95 C96 1.381 . S
C95 H117 0.931 . S
C96 C95 1.381 . S
C96 C97 1.321 . S
C97 C96 1.321 . S
C97 C98 1.403 . S
C97 H118 0.934 . S
C98 C93 1.413 . S
C98 C97 1.403 . S
C98 H119 0.930 . S
C99 O110 1.275 . S
C99 O111 1.256 . S
O100 Ho80 2.322 . S
O100 C82 1.259 . S
O101 Ho81 2.346 . S
O101 C82 1.268 . S
O102 Ho80 2.378 . S
O102 C83 1.215 . S
O103 Ho80 2.524 . S
O103 C83 1.289 . S
O104 Ho80 2.381 . S
O104 C90 1.275 . S
O105 Ho80 2.669 . S
O105 Ho81 2.305 . S
O105 C90 1.256 . S
O106 Ho81 2.322 . S
O106 C91 1.259 . S
O107 Ho80 2.346 . S
O107 C91 1.268 . S
O108 Ho81 2.378 . S
O108 C92 1.215 . S
O109 Ho81 2.524 . S
O109 C92 1.289 . S
O110 Ho81 2.381 . S
O110 C99 1.275 . S
O111 Ho80 2.305 . S
O111 Ho81 2.669 . S
O111 C99 1.256 . S
H112 C85 0.930 . S
H113 C86 0.931 . S
H114 C88 0.934 . S
H115 C89 0.930 . S
H116 C94 0.930 . S
H117 C95 0.931 . S
H118 C97 0.934 . S
H119 C98 0.930 . S
Ho120 C123 2.811 . S
Ho120 O140 2.322 . S
Ho120 O142 2.378 . S
Ho120 O143 2.524 . S
Ho120 O144 2.381 . S
Ho120 O145 2.669 . S
Ho120 O147 2.346 . S
Ho120 O151 2.305 . S
Ho121 C132 2.811 . S
Ho121 O141 2.346 . S
Ho121 O145 2.305 . S
Ho121 O146 2.322 . S
Ho121 O148 2.378 . S
Ho121 O149 2.524 . S
Ho121 O150 2.381 . S
Ho121 O151 2.669 . S
C122 O140 1.259 . S
C122 O141 1.268 . S
C123 Ho120 2.811 . S
C123 C124 1.488 . S
C123 O142 1.215 . S
C123 O143 1.289 . S
C124 C123 1.488 . S
C124 C125 1.348 . S
C124 C129 1.413 . S
C125 C124 1.348 . S
C125 C126 1.442 . S
C125 H152 0.930 . S
C126 C125 1.442 . S
C126 C127 1.381 . S
C126 H153 0.931 . S
C127 C126 1.381 . S
C127 C128 1.321 . S
C128 C127 1.321 . S
C128 C129 1.403 . S
C128 H154 0.934 . S
C129 C124 1.413 . S
C129 C128 1.403 . S
C129 H155 0.930 . S
C130 O144 1.275 . S
C130 O145 1.256 . S
C131 O146 1.259 . S
C131 O147 1.268 . S
C132 Ho121 2.811 . S
C132 C133 1.488 . S
C132 O148 1.215 . S
C132 O149 1.289 . S
C133 C132 1.488 . S
C133 C134 1.348 . S
C133 C138 1.413 . S
C134 C133 1.348 . S
C134 C135 1.442 . S
C134 H156 0.930 . S
C135 C134 1.442 . S
C135 C136 1.381 . S
C135 H157 0.931 . S
C136 C135 1.381 . S
C136 C137 1.321 . S
C137 C136 1.321 . S
C137 C138 1.403 . S
C137 H158 0.934 . S
C138 C133 1.413 . S
C138 C137 1.403 . S
C138 H159 0.930 . S
C139 O150 1.275 . S
C139 O151 1.256 . S
O140 Ho120 2.322 . S
O140 C122 1.259 . S
O141 Ho121 2.346 . S
O141 C122 1.268 . S
O142 Ho120 2.378 . S
O142 C123 1.215 . S
O143 Ho120 2.524 . S
O143 C123 1.289 . S
O144 Ho120 2.381 . S
O144 C130 1.275 . S
O145 Ho120 2.669 . S
O145 Ho121 2.305 . S
O145 C130 1.256 . S
O146 Ho121 2.322 . S
O146 C131 1.259 . S
O147 Ho120 2.346 . S
O147 C131 1.268 . S
O148 Ho121 2.378 . S
O148 C132 1.215 . S
O149 Ho121 2.524 . S
O149 C132 1.289 . S
O150 Ho121 2.381 . S
O150 C139 1.275 . S
O151 Ho120 2.305 . S
O151 Ho121 2.669 . S
O151 C139 1.256 . S
H152 C125 0.930 . S
H153 C126 0.931 . S
H154 C128 0.934 . S
H155 C129 0.930 . S
H156 C134 0.930 . S
H157 C135 0.931 . S
H158 C137 0.934 . S
H159 C138 0.930 . S
Ho160 C163 2.811 . S
Ho160 O180 2.322 . S
Ho160 O182 2.378 . S
Ho160 O183 2.524 . S
Ho160 O184 2.381 . S
Ho160 O185 2.669 . S
Ho160 O187 2.346 . S
Ho160 O191 2.305 . S
Ho161 C172 2.811 . S
Ho161 O181 2.346 . S
Ho161 O185 2.305 . S
Ho161 O186 2.322 . S
Ho161 O188 2.378 . S
Ho161 O189 2.524 . S
Ho161 O190 2.381 . S
Ho161 O191 2.669 . S
C162 O180 1.259 . S
C162 O181 1.268 . S
C163 Ho160 2.811 . S
C163 C164 1.488 . S
C163 O182 1.215 . S
C163 O183 1.289 . S
C164 C163 1.488 . S
C164 C165 1.348 . S
C164 C169 1.413 . S
C165 C164 1.348 . S
C165 C166 1.442 . S
C165 H192 0.930 . S
C166 C165 1.442 . S
C166 C167 1.381 . S
C166 H193 0.931 . S
C167 C166 1.381 . S
C167 C168 1.321 . S
C168 C167 1.321 . S
C168 C169 1.403 . S
C168 H194 0.934 . S
C169 C164 1.413 . S
C169 C168 1.403 . S
C169 H195 0.930 . S
C170 O184 1.275 . S
C170 O185 1.256 . S
C171 O186 1.259 . S
C171 O187 1.268 . S
C172 Ho161 2.811 . S
C172 C173 1.488 . S
C172 O188 1.215 . S
C172 O189 1.289 . S
C173 C172 1.488 . S
C173 C174 1.348 . S
C173 C178 1.413 . S
C174 C173 1.348 . S
C174 C175 1.442 . S
C174 H196 0.930 . S
C175 C174 1.442 . S
C175 C176 1.381 . S
C175 H197 0.931 . S
C176 C175 1.381 . S
C176 C177 1.321 . S
C177 C176 1.321 . S
C177 C178 1.403 . S
C177 H198 0.934 . S
C178 C173 1.413 . S
C178 C177 1.403 . S
C178 H199 0.930 . S
C179 O190 1.275 . S
C179 O191 1.256 . S
O180 Ho160 2.322 . S
O180 C162 1.259 . S
O181 Ho161 2.346 . S
O181 C162 1.268 . S
O182 Ho160 2.378 . S
O182 C163 1.215 . S
O183 Ho160 2.524 . S
O183 C163 1.289 . S
O184 Ho160 2.381 . S
O184 C170 1.275 . S
O185 Ho160 2.669 . S
O185 Ho161 2.305 . S
O185 C170 1.256 . S
O186 Ho161 2.322 . S
O186 C171 1.259 . S
O187 Ho160 2.346 . S
O187 C171 1.268 . S
O188 Ho161 2.378 . S
O188 C172 1.215 . S
O189 Ho161 2.524 . S
O189 C172 1.289 . S
O190 Ho161 2.381 . S
O190 C179 1.275 . S
O191 Ho160 2.305 . S
O191 Ho161 2.669 . S
O191 C179 1.256 . S
H192 C165 0.930 . S
H193 C166 0.931 . S
H194 C168 0.934 . S
H195 C169 0.930 . S
H196 C174 0.930 . S
H197 C175 0.931 . S
H198 C177 0.934 . S
H199 C178 0.930 . S
Ho200 C203 2.811 . S
Ho200 O220 2.322 . S
Ho200 O222 2.378 . S
Ho200 O223 2.524 . S
Ho200 O224 2.381 . S
Ho200 O225 2.669 . S
Ho200 O227 2.346 . S
Ho200 O231 2.305 . S
Ho201 C212 2.811 . S
Ho201 O221 2.346 . S
Ho201 O225 2.305 . S
Ho201 O226 2.322 . S
Ho201 O228 2.378 . S
Ho201 O229 2.524 . S
Ho201 O230 2.381 . S
Ho201 O231 2.669 . S
C202 O220 1.259 . S
C202 O221 1.268 . S
C203 Ho200 2.811 . S
C203 C204 1.488 . S
C203 O222 1.215 . S
C203 O223 1.289 . S
C204 C203 1.488 . S
C204 C205 1.348 . S
C204 C209 1.413 . S
C205 C204 1.348 . S
C205 C206 1.442 . S
C205 H232 0.930 . S
C206 C205 1.442 . S
C206 C207 1.381 . S
C206 H233 0.931 . S
C207 C206 1.381 . S
C207 C208 1.321 . S
C208 C207 1.321 . S
C208 C209 1.403 . S
C208 H234 0.934 . S
C209 C204 1.413 . S
C209 C208 1.403 . S
C209 H235 0.930 . S
C210 O224 1.275 . S
C210 O225 1.256 . S
C211 O226 1.259 . S
C211 O227 1.268 . S
C212 Ho201 2.811 . S
C212 C213 1.488 . S
C212 O228 1.215 . S
C212 O229 1.289 . S
C213 C212 1.488 . S
C213 C214 1.348 . S
C213 C218 1.413 . S
C214 C213 1.348 . S
C214 C215 1.442 . S
C214 H236 0.930 . S
C215 C214 1.442 . S
C215 C216 1.381 . S
C215 H237 0.931 . S
C216 C215 1.381 . S
C216 C217 1.321 . S
C217 C216 1.321 . S
C217 C218 1.403 . S
C217 H238 0.934 . S
C218 C213 1.413 . S
C218 C217 1.403 . S
C218 H239 0.930 . S
C219 O230 1.275 . S
C219 O231 1.256 . S
O220 Ho200 2.322 . S
O220 C202 1.259 . S
O221 Ho201 2.346 . S
O221 C202 1.268 . S
O222 Ho200 2.378 . S
O222 C203 1.215 . S
O223 Ho200 2.524 . S
O223 C203 1.289 . S
O224 Ho200 2.381 . S
O224 C210 1.275 . S
O225 Ho200 2.669 . S
O225 Ho201 2.305 . S
O225 C210 1.256 . S
O226 Ho201 2.322 . S
O226 C211 1.259 . S
O227 Ho200 2.346 . S
O227 C211 1.268 . S
O228 Ho201 2.378 . S
O228 C212 1.215 . S
O229 Ho201 2.524 . S
O229 C212 1.289 . S
O230 Ho201 2.381 . S
O230 C219 1.275 . S
O231 Ho200 2.305 . S
O231 Ho201 2.669 . S
O231 C219 1.256 . S
H232 C205 0.930 . S
H233 C206 0.931 . S
H234 C208 0.934 . S
H235 C209 0.930 . S
H236 C214 0.930 . S
H237 C215 0.931 . S
H238 C217 0.934 . S
H239 C218 0.930 . S
Ho240 C243 2.811 . S
Ho240 O260 2.322 . S
Ho240 O262 2.378 . S
Ho240 O263 2.524 . S
Ho240 O264 2.381 . S
Ho240 O265 2.669 . S
Ho240 O267 2.346 . S
Ho240 O271 2.305 . S
Ho241 C252 2.811 . S
Ho241 O261 2.346 . S
Ho241 O265 2.305 . S
Ho241 O266 2.322 . S
Ho241 O268 2.378 . S
Ho241 O269 2.524 . S
Ho241 O270 2.381 . S
Ho241 O271 2.669 . S
C242 O260 1.259 . S
C242 O261 1.268 . S
C243 Ho240 2.811 . S
C243 C244 1.488 . S
C243 O262 1.215 . S
C243 O263 1.289 . S
C244 C243 1.488 . S
C244 C245 1.348 . S
C244 C249 1.413 . S
C245 C244 1.348 . S
C245 C246 1.442 . S
C245 H272 0.930 . S
C246 C245 1.442 . S
C246 C247 1.381 . S
C246 H273 0.931 . S
C247 C246 1.381 . S
C247 C248 1.321 . S
C248 C247 1.321 . S
C248 C249 1.403 . S
C248 H274 0.934 . S
C249 C244 1.413 . S
C249 C248 1.403 . S
C249 H275 0.930 . S
C250 O264 1.275 . S
C250 O265 1.256 . S
C251 O266 1.259 . S
C251 O267 1.268 . S
C252 Ho241 2.811 . S
C252 C253 1.488 1_556 S
C252 O268 1.215 . S
C252 O269 1.289 . S
C253 C252 1.488 1_554 S
C253 C254 1.348 . S
C253 C258 1.413 . S
C254 C253 1.348 . S
C254 C255 1.442 . S
C254 H276 0.930 . S
C255 C254 1.442 . S
C255 C256 1.381 . S
C255 H277 0.931 . S
C256 C255 1.381 . S
C256 C257 1.321 . S
C257 C256 1.321 . S
C257 C258 1.403 . S
C257 H278 0.934 . S
C258 C253 1.413 . S
C258 C257 1.403 . S
C258 H279 0.930 1_554 S
C259 O270 1.275 . S
C259 O271 1.256 . S
O260 Ho240 2.322 . S
O260 C242 1.259 . S
O261 Ho241 2.346 . S
O261 C242 1.268 . S
O262 Ho240 2.378 . S
O262 C243 1.215 . S
O263 Ho240 2.524 . S
O263 C243 1.289 . S
O264 Ho240 2.381 . S
O264 C250 1.275 . S
O265 Ho240 2.669 . S
O265 Ho241 2.305 . S
O265 C250 1.256 . S
O266 Ho241 2.322 . S
O266 C251 1.259 . S
O267 Ho240 2.346 . S
O267 C251 1.268 . S
O268 Ho241 2.378 . S
O268 C252 1.215 . S
O269 Ho241 2.524 . S
O269 C252 1.289 . S
O270 Ho241 2.381 . S
O270 C259 1.275 . S
O271 Ho240 2.305 . S
O271 Ho241 2.669 . S
O271 C259 1.256 . S
H272 C245 0.930 . S
H273 C246 0.931 . S
H274 C248 0.934 . S
H275 C249 0.930 . S
H276 C254 0.930 . S
H277 C255 0.931 . S
H278 C257 0.934 . S
H279 C258 0.930 1_556 S
Ho280 C283 2.811 . S
Ho280 O300 2.322 . S
Ho280 O302 2.378 . S
Ho280 O303 2.524 . S
Ho280 O304 2.381 . S
Ho280 O305 2.669 . S
Ho280 O307 2.346 . S
Ho280 O311 2.305 . S
Ho281 C292 2.811 . S
Ho281 O301 2.346 . S
Ho281 O305 2.305 . S
Ho281 O306 2.322 . S
Ho281 O308 2.378 . S
Ho281 O309 2.524 . S
Ho281 O310 2.381 . S
Ho281 O311 2.669 . S
C282 O300 1.259 . S
C282 O301 1.268 . S
C283 Ho280 2.811 . S
C283 C284 1.488 . S
C283 O302 1.215 . S
C283 O303 1.289 . S
C284 C283 1.488 . S
C284 C285 1.348 1_556 S
C284 C289 1.413 1_556 S
C285 C284 1.348 1_554 S
C285 C286 1.442 . S
C285 H312 0.930 . S
C286 C285 1.442 . S
C286 C287 1.381 . S
C286 H313 0.931 . S
C287 C286 1.381 . S
C287 C288 1.321 . S
C288 C287 1.321 . S
C288 C289 1.403 . S
C288 H314 0.934 . S
C289 C284 1.413 1_554 S
C289 C288 1.403 . S
C289 H315 0.930 1_554 S
C290 O304 1.275 . S
C290 O305 1.256 . S
C291 O306 1.259 . S
C291 O307 1.268 . S
C292 Ho281 2.811 . S
C292 C293 1.488 . S
C292 O308 1.215 . S
C292 O309 1.289 . S
C293 C292 1.488 . S
C293 C294 1.348 . S
C293 C298 1.413 . S
C294 C293 1.348 . S
C294 C295 1.442 . S
C294 H316 0.930 . S
C295 C294 1.442 . S
C295 C296 1.381 . S
C295 H317 0.931 . S
C296 C295 1.381 . S
C296 C297 1.321 . S
C297 C296 1.321 . S
C297 C298 1.403 . S
C297 H318 0.934 . S
C298 C293 1.413 . S
C298 C297 1.403 . S
C298 H319 0.930 . S
C299 O310 1.275 . S
C299 O311 1.256 . S
O300 Ho280 2.322 . S
O300 C282 1.259 . S
O301 Ho281 2.346 . S
O301 C282 1.268 . S
O302 Ho280 2.378 . S
O302 C283 1.215 . S
O303 Ho280 2.524 . S
O303 C283 1.289 . S
O304 Ho280 2.381 . S
O304 C290 1.275 . S
O305 Ho280 2.669 . S
O305 Ho281 2.305 . S
O305 C290 1.256 . S
O306 Ho281 2.322 . S
O306 C291 1.259 . S
O307 Ho280 2.346 . S
O307 C291 1.268 . S
O308 Ho281 2.378 . S
O308 C292 1.215 . S
O309 Ho281 2.524 . S
O309 C292 1.289 . S
O310 Ho281 2.381 . S
O310 C299 1.275 . S
O311 Ho280 2.305 . S
O311 Ho281 2.669 . S
O311 C299 1.256 . S
H312 C285 0.930 . S
H313 C286 0.931 . S
H314 C288 0.934 . S
H315 C289 0.930 1_556 S
H316 C294 0.930 . S
H317 C295 0.931 . S
H318 C297 0.934 . S
H319 C298 0.930 . S
Ho320 C323 2.811 . S
Ho320 O340 2.322 . S
Ho320 O342 2.378 . S
Ho320 O343 2.524 . S
Ho320 O344 2.381 . S
Ho320 O345 2.669 . S
Ho320 O347 2.346 . S
Ho320 O351 2.305 . S
Ho321 C332 2.811 . S
Ho321 O341 2.346 . S
Ho321 O345 2.305 . S
Ho321 O346 2.322 . S
Ho321 O348 2.378 . S
Ho321 O349 2.524 . S
Ho321 O350 2.381 . S
Ho321 O351 2.669 . S
C322 O340 1.259 . S
C322 O341 1.268 . S
C323 Ho320 2.811 . S
C323 C324 1.488 . S
C323 O342 1.215 . S
C323 O343 1.289 . S
C324 C323 1.488 . S
C324 C325 1.348 . S
C324 C329 1.413 . S
C325 C324 1.348 . S
C325 C326 1.442 . S
C325 H352 0.930 . S
C326 C325 1.442 . S
C326 C327 1.381 . S
C326 H353 0.931 . S
C327 C326 1.381 . S
C327 C328 1.321 . S
C328 C327 1.321 . S
C328 C329 1.403 . S
C328 H354 0.934 . S
C329 C324 1.413 . S
C329 C328 1.403 . S
C329 H355 0.930 . S
C330 O344 1.275 . S
C330 O345 1.256 . S
C331 O346 1.259 . S
C331 O347 1.268 . S
C332 Ho321 2.811 . S
C332 C333 1.488 1_556 S
C332 O348 1.215 . S
C332 O349 1.289 . S
C333 C332 1.488 1_554 S
C333 C334 1.348 . S
C333 C338 1.413 . S
C334 C333 1.348 . S
C334 C335 1.442 . S
C334 H356 0.930 . S
C335 C334 1.442 . S
C335 C336 1.381 . S
C335 H357 0.931 . S
C336 C335 1.381 . S
C336 C337 1.321 . S
C337 C336 1.321 . S
C337 C338 1.403 . S
C337 H358 0.934 . S
C338 C333 1.413 . S
C338 C337 1.403 . S
C338 H359 0.930 . S
C339 O350 1.275 . S
C339 O351 1.256 . S
O340 Ho320 2.322 . S
O340 C322 1.259 . S
O341 Ho321 2.346 . S
O341 C322 1.268 . S
O342 Ho320 2.378 . S
O342 C323 1.215 . S
O343 Ho320 2.524 . S
O343 C323 1.289 . S
O344 Ho320 2.381 . S
O344 C330 1.275 . S
O345 Ho320 2.669 . S
O345 Ho321 2.305 . S
O345 C330 1.256 . S
O346 Ho321 2.322 . S
O346 C331 1.259 . S
O347 Ho320 2.346 . S
O347 C331 1.268 . S
O348 Ho321 2.378 . S
O348 C332 1.215 . S
O349 Ho321 2.524 . S
O349 C332 1.289 . S
O350 Ho321 2.381 . S
O350 C339 1.275 . S
O351 Ho320 2.305 . S
O351 Ho321 2.669 . S
O351 C339 1.256 . S
H352 C325 0.930 . S
H353 C326 0.931 . S
H354 C328 0.934 . S
H355 C329 0.930 . S
H356 C334 0.930 . S
H357 C335 0.931 . S
H358 C337 0.934 . S
H359 C338 0.930 . S
C360 C361 1.391 . S
C360 C362 1.394 . S
C360 H376 0.931 . S
C361 C360 1.391 . S
C361 C365 1.376 . S
C362 C360 1.394 . S
C362 C363 1.369 . S
C362 C366 1.531 . S
C363 C362 1.369 . S
C363 C364 1.410 . S
C363 C371 1.503 . S
C364 C363 1.410 . S
C364 C365 1.392 . S
C364 C367 1.511 . S
C365 C361 1.376 . S
C365 C364 1.392 . S
C365 H377 0.929 . S
C366 C362 1.531 . S
C366 H378 0.960 . S
C366 H379 0.962 . S
C366 H380 0.960 . S
C367 C364 1.511 . S
C367 H381 0.961 . S
C367 H382 0.961 . S
C367 H383 0.961 . S
C368 C369 1.370 . S
C368 C370 1.363 . S
C368 H384 0.931 . S
C369 C368 1.370 . S
C369 C373 1.408 . S
C370 C368 1.363 . S
C370 C371 1.370 . S
C370 C374 1.524 . S
C371 C363 1.503 . S
C371 C370 1.370 . S
C371 C372 1.403 . S
C372 C371 1.403 . S
C372 C373 1.404 . S
C372 C375 1.539 1_455 S
C373 C369 1.408 . S
C373 C372 1.404 . S
C373 H385 0.930 . S
C374 C370 1.524 . S
C374 H386 0.956 . S
C374 H387 0.961 . S
C374 H388 0.961 . S
C375 C372 1.539 1_655 S
C375 H389 0.958 . S
C375 H390 0.961 . S
C375 H391 0.960 . S
H376 C360 0.931 . S
H377 C365 0.929 . S
H378 C366 0.960 . S
H379 C366 0.962 . S
H380 C366 0.960 . S
H381 C367 0.961 . S
H382 C367 0.961 . S
H383 C367 0.961 . S
H384 C368 0.931 . S
H385 C373 0.930 . S
H386 C374 0.956 . S
H387 C374 0.961 . S
H388 C374 0.961 . S
H389 C375 0.958 . S
H390 C375 0.961 . S
H391 C375 0.960 . S
C392 C393 1.391 . S
C392 C394 1.394 . S
C392 H408 0.931 . S
C393 C392 1.391 . S
C393 C397 1.376 . S
C394 C392 1.394 . S
C394 C395 1.369 . S
C394 C398 1.531 . S
C395 C394 1.369 . S
C395 C396 1.410 . S
C395 C403 1.503 . S
C396 C395 1.410 . S
C396 C397 1.392 . S
C396 C399 1.511 . S
C397 C393 1.376 . S
C397 C396 1.392 . S
C397 H409 0.929 . S
C398 C394 1.531 . S
C398 H410 0.960 . S
C398 H411 0.962 . S
C398 H412 0.960 . S
C399 C396 1.511 . S
C399 H413 0.961 . S
C399 H414 0.961 . S
C399 H415 0.961 . S
C400 C401 1.370 . S
C400 C402 1.363 . S
C400 H416 0.931 . S
C401 C400 1.370 . S
C401 C405 1.408 . S
C402 C400 1.363 . S
C402 C403 1.370 . S
C402 C406 1.524 . S
C403 C395 1.503 . S
C403 C402 1.370 . S
C403 C404 1.403 . S
C404 C403 1.403 . S
C404 C405 1.404 . S
C404 C407 1.539 . S
C405 C401 1.408 . S
C405 C404 1.404 . S
C405 H417 0.930 . S
C406 C402 1.524 . S
C406 H418 0.956 . S
C406 H419 0.961 . S
C406 H420 0.961 . S
C407 C404 1.539 . S
C407 H421 0.958 . S
C407 H422 0.961 . S
C407 H423 0.960 . S
H408 C392 0.931 . S
H409 C397 0.929 . S
H410 C398 0.960 . S
H411 C398 0.962 . S
H412 C398 0.960 . S
H413 C399 0.961 . S
H414 C399 0.961 . S
H415 C399 0.961 . S
H416 C400 0.931 . S
H417 C405 0.930 . S
H418 C406 0.956 . S
H419 C406 0.961 . S
H420 C406 0.961 . S
H421 C407 0.958 . S
H422 C407 0.961 . S
H423 C407 0.960 . S
C424 C425 1.391 . S
C424 C426 1.394 . S
C424 H440 0.931 . S
C425 C424 1.391 . S
C425 C429 1.376 . S
C426 C424 1.394 . S
C426 C427 1.369 . S
C426 C430 1.531 . S
C427 C426 1.369 . S
C427 C428 1.410 . S
C427 C435 1.503 . S
C428 C427 1.410 . S
C428 C429 1.392 . S
C428 C431 1.511 . S
C429 C425 1.376 . S
C429 C428 1.392 . S
C429 H441 0.929 . S
C430 C426 1.531 . S
C430 H442 0.960 . S
C430 H443 0.962 . S
C430 H444 0.960 . S
C431 C428 1.511 . S
C431 H445 0.961 . S
C431 H446 0.961 . S
C431 H447 0.961 . S
C432 C433 1.370 . S
C432 C434 1.363 . S
C432 H448 0.931 . S
C433 C432 1.370 . S
C433 C437 1.408 . S
C434 C432 1.363 . S
C434 C435 1.370 . S
C434 C438 1.524 . S
C435 C427 1.503 . S
C435 C434 1.370 . S
C435 C436 1.403 . S
C436 C435 1.403 . S
C436 C437 1.404 . S
C436 C439 1.539 . S
C437 C433 1.408 . S
C437 C436 1.404 . S
C437 H449 0.930 . S
C438 C434 1.524 . S
C438 H450 0.956 . S
C438 H451 0.961 . S
C438 H452 0.961 . S
C439 C436 1.539 . S
C439 H453 0.958 . S
C439 H454 0.961 . S
C439 H455 0.960 . S
H440 C424 0.931 . S
H441 C429 0.929 . S
H442 C430 0.960 . S
H443 C430 0.962 . S
H444 C430 0.960 . S
H445 C431 0.961 . S
H446 C431 0.961 . S
H447 C431 0.961 . S
H448 C432 0.931 . S
H449 C437 0.930 . S
H450 C438 0.956 . S
H451 C438 0.961 . S
H452 C438 0.961 . S
H453 C439 0.958 . S
H454 C439 0.961 . S
H455 C439 0.960 . S
C456 C457 1.391 . S
C456 C458 1.394 . S
C456 H472 0.931 . S
C457 C456 1.391 . S
C457 C461 1.376 . S
C458 C456 1.394 . S
C458 C459 1.369 . S
C458 C462 1.531 . S
C459 C458 1.369 . S
C459 C460 1.410 . S
C459 C467 1.503 . S
C460 C459 1.410 . S
C460 C461 1.392 . S
C460 C463 1.511 . S
C461 C457 1.376 . S
C461 C460 1.392 . S
C461 H473 0.929 . S
C462 C458 1.531 . S
C462 H474 0.960 . S
C462 H475 0.962 . S
C462 H476 0.960 . S
C463 C460 1.511 . S
C463 H477 0.961 . S
C463 H478 0.961 . S
C463 H479 0.961 . S
C464 C465 1.370 1_556 S
C464 C466 1.363 . S
C464 H480 0.931 1_556 S
C465 C464 1.370 1_554 S
C465 C469 1.408 1_554 S
C466 C464 1.363 . S
C466 C467 1.370 . S
C466 C470 1.524 . S
C467 C459 1.503 . S
C467 C466 1.370 . S
C467 C468 1.403 . S
C468 C467 1.403 . S
C468 C469 1.404 . S
C468 C471 1.539 . S
C469 C465 1.408 1_556 S
C469 C468 1.404 . S
C469 H481 0.930 . S
C470 C466 1.524 . S
C470 H482 0.956 . S
C470 H483 0.961 . S
C470 H484 0.961 . S
C471 C468 1.539 . S
C471 H485 0.958 . S
C471 H486 0.961 . S
C471 H487 0.960 . S
H472 C456 0.931 . S
H473 C461 0.929 . S
H474 C462 0.960 . S
H475 C462 0.962 . S
H476 C462 0.960 . S
H477 C463 0.961 . S
H478 C463 0.961 . S
H479 C463 0.961 . S
H480 C464 0.931 1_554 S
H481 C469 0.930 . S
H482 C470 0.956 . S
H483 C470 0.961 . S
H484 C470 0.961 . S
H485 C471 0.958 . S
H486 C471 0.961 . S
H487 C471 0.960 . S
C488 C489 1.391 . S
C488 C490 1.394 . S
C488 H504 0.931 . S
C489 C488 1.391 . S
C489 C493 1.376 . S
C490 C488 1.394 . S
C490 C491 1.369 . S
C490 C494 1.531 . S
C491 C490 1.369 . S
C491 C492 1.410 . S
C491 C499 1.503 . S
C492 C491 1.410 . S
C492 C493 1.392 . S
C492 C495 1.511 . S
C493 C489 1.376 . S
C493 C492 1.392 . S
C493 H505 0.929 . S
C494 C490 1.531 . S
C494 H506 0.960 . S
C494 H507 0.962 . S
C494 H508 0.960 . S
C495 C492 1.511 . S
C495 H509 0.961 . S
C495 H510 0.961 . S
C495 H511 0.961 . S
C496 C497 1.370 . S
C496 C498 1.363 . S
C496 H512 0.931 . S
C497 C496 1.370 . S
C497 C501 1.408 . S
C498 C496 1.363 . S
C498 C499 1.370 . S
C498 C502 1.524 . S
C499 C491 1.503 . S
C499 C498 1.370 . S
C499 C500 1.403 . S
C500 C499 1.403 . S
C500 C501 1.404 . S
C500 C503 1.539 . S
C501 C497 1.408 . S
C501 C500 1.404 . S
C501 H513 0.930 . S
C502 C498 1.524 . S
C502 H514 0.956 . S
C502 H515 0.961 . S
C502 H516 0.961 . S
C503 C500 1.539 . S
C503 H517 0.958 . S
C503 H518 0.961 . S
C503 H519 0.960 . S
H504 C488 0.931 . S
H505 C493 0.929 . S
H506 C494 0.960 . S
H507 C494 0.962 . S
H508 C494 0.960 . S
H509 C495 0.961 . S
H510 C495 0.961 . S
H511 C495 0.961 . S
H512 C496 0.931 . S
H513 C501 0.930 . S
H514 C502 0.956 . S
H515 C502 0.961 . S
H516 C502 0.961 . S
H517 C503 0.958 . S
H518 C503 0.961 . S
H519 C503 0.960 . S
C520 C521 1.391 . S
C520 C522 1.394 . S
C520 H536 0.931 . S
C521 C520 1.391 . S
C521 C525 1.376 . S
C522 C520 1.394 . S
C522 C523 1.369 . S
C522 C526 1.531 . S
C523 C522 1.369 . S
C523 C524 1.410 . S
C523 C531 1.503 . S
C524 C523 1.410 . S
C524 C525 1.392 . S
C524 C527 1.511 . S
C525 C521 1.376 . S
C525 C524 1.392 . S
C525 H537 0.929 . S
C526 C522 1.531 . S
C526 H538 0.960 . S
C526 H539 0.962 . S
C526 H540 0.960 . S
C527 C524 1.511 . S
C527 H541 0.961 . S
C527 H542 0.961 . S
C527 H543 0.961 . S
C528 C529 1.370 . S
C528 C530 1.363 . S
C528 H544 0.931 . S
C529 C528 1.370 . S
C529 C533 1.408 . S
C530 C528 1.363 . S
C530 C531 1.370 . S
C530 C534 1.524 . S
C531 C523 1.503 . S
C531 C530 1.370 . S
C531 C532 1.403 . S
C532 C531 1.403 . S
C532 C533 1.404 . S
C532 C535 1.539 . S
C533 C529 1.408 . S
C533 C532 1.404 . S
C533 H545 0.930 . S
C534 C530 1.524 . S
C534 H546 0.956 . S
C534 H547 0.961 . S
C534 H548 0.961 . S
C535 C532 1.539 . S
C535 H549 0.958 . S
C535 H550 0.961 . S
C535 H551 0.960 . S
H536 C520 0.931 . S
H537 C525 0.929 . S
H538 C526 0.960 . S
H539 C526 0.962 . S
H540 C526 0.960 . S
H541 C527 0.961 . S
H542 C527 0.961 . S
H543 C527 0.961 . S
H544 C528 0.931 . S
H545 C533 0.930 . S
H546 C534 0.956 . S
H547 C534 0.961 . S
H548 C534 0.961 . S
H549 C535 0.958 . S
H550 C535 0.961 . S
H551 C535 0.960 . S
C552 C553 1.391 . S
C552 C554 1.394 . S
C552 H568 0.931 . S
C553 C552 1.391 . S
C553 C557 1.376 . S
C554 C552 1.394 . S
C554 C555 1.369 . S
C554 C558 1.531 . S
C555 C554 1.369 . S
C555 C556 1.410 . S
C555 C563 1.503 . S
C556 C555 1.410 . S
C556 C557 1.392 . S
C556 C559 1.511 . S
C557 C553 1.376 . S
C557 C556 1.392 . S
C557 H569 0.929 . S
C558 C554 1.531 . S
C558 H570 0.960 . S
C558 H571 0.962 . S
C558 H572 0.960 . S
C559 C556 1.511 . S
C559 H573 0.961 . S
C559 H574 0.961 . S
C559 H575 0.961 . S
C560 C561 1.370 . S
C560 C562 1.363 . S
C560 H576 0.931 . S
C561 C560 1.370 . S
C561 C565 1.408 . S
C562 C560 1.363 . S
C562 C563 1.370 . S
C562 C566 1.524 . S
C563 C555 1.503 . S
C563 C562 1.370 . S
C563 C564 1.403 . S
C564 C563 1.403 . S
C564 C565 1.404 . S
C564 C567 1.539 . S
C565 C561 1.408 . S
C565 C564 1.404 . S
C565 H577 0.930 . S
C566 C562 1.524 . S
C566 H578 0.956 . S
C566 H579 0.961 . S
C566 H580 0.961 . S
C567 C564 1.539 . S
C567 H581 0.958 . S
C567 H582 0.961 . S
C567 H583 0.960 . S
H568 C552 0.931 . S
H569 C557 0.929 . S
H570 C558 0.960 . S
H571 C558 0.962 . S
H572 C558 0.960 . S
H573 C559 0.961 . S
H574 C559 0.961 . S
H575 C559 0.961 . S
H576 C560 0.931 . S
H577 C565 0.930 . S
H578 C566 0.956 . S
H579 C566 0.961 . S
H580 C566 0.961 . S
H581 C567 0.958 . S
H582 C567 0.961 . S
H583 C567 0.960 . S
C584 C585 1.391 . S
C584 C586 1.394 . S
C584 H600 0.931 . S
C585 C584 1.391 . S
C585 C589 1.376 . S
C586 C584 1.394 . S
C586 C587 1.369 . S
C586 C590 1.531 . S
C587 C586 1.369 . S
C587 C588 1.410 . S
C587 C595 1.503 . S
C588 C587 1.410 . S
C588 C589 1.392 . S
C588 C591 1.511 . S
C589 C585 1.376 . S
C589 C588 1.392 . S
C589 H601 0.929 . S
C590 C586 1.531 . S
C590 H602 0.960 . S
C590 H603 0.962 . S
C590 H604 0.960 . S
C591 C588 1.511 . S
C591 H605 0.961 . S
C591 H606 0.961 . S
C591 H607 0.961 . S
C592 C593 1.370 . S
C592 C594 1.363 . S
C592 H608 0.931 . S
C593 C592 1.370 . S
C593 C597 1.408 . S
C594 C592 1.363 . S
C594 C595 1.370 . S
C594 C598 1.524 . S
C595 C587 1.503 . S
C595 C594 1.370 . S
C595 C596 1.403 . S
C596 C595 1.403 . S
C596 C597 1.404 . S
C596 C599 1.539 . S
C597 C593 1.408 . S
C597 C596 1.404 . S
C597 H609 0.930 . S
C598 C594 1.524 . S
C598 H610 0.956 . S
C598 H611 0.961 . S
C598 H612 0.961 . S
C599 C596 1.539 . S
C599 H613 0.958 . S
C599 H614 0.961 . S
C599 H615 0.960 . S
H600 C584 0.931 . S
H601 C589 0.929 . S
H602 C590 0.960 . S
H603 C590 0.962 . S
H604 C590 0.960 . S
H605 C591 0.961 . S
H606 C591 0.961 . S
H607 C591 0.961 . S
H608 C592 0.931 . S
H609 C597 0.930 . S
H610 C598 0.956 . S
H611 C598 0.961 . S
H612 C598 0.961 . S
H613 C599 0.958 . S
H614 C599 0.961 . S
H615 C599 0.960 . S
C616 C617 1.391 . S
C616 C618 1.394 . S
C616 H632 0.931 . S
C617 C616 1.391 . S
C617 C621 1.376 . S
C618 C616 1.394 . S
C618 C619 1.369 . S
C618 C622 1.531 . S
C619 C618 1.369 . S
C619 C620 1.410 . S
C619 C627 1.503 . S
C620 C619 1.410 . S
C620 C621 1.392 . S
C620 C623 1.511 . S
C621 C617 1.376 . S
C621 C620 1.392 . S
C621 H633 0.929 . S
C622 C618 1.531 . S
C622 H634 0.960 . S
C622 H635 0.962 . S
C622 H636 0.960 . S
C623 C620 1.511 . S
C623 H637 0.961 . S
C623 H638 0.961 . S
C623 H639 0.961 . S
C624 C625 1.370 . S
C624 C626 1.363 . S
C624 H640 0.931 . S
C625 C624 1.370 . S
C625 C629 1.408 . S
C626 C624 1.363 . S
C626 C627 1.370 . S
C626 C630 1.524 . S
C627 C619 1.503 . S
C627 C626 1.370 . S
C627 C628 1.403 . S
C628 C627 1.403 . S
C628 C629 1.404 . S
C628 C631 1.539 . S
C629 C625 1.408 . S
C629 C628 1.404 . S
C629 H641 0.930 . S
C630 C626 1.524 . S
C630 H642 0.956 . S
C630 H643 0.961 . S
C630 H644 0.961 . S
C631 C628 1.539 . S
C631 H645 0.958 . S
C631 H646 0.961 . S
C631 H647 0.960 . S
H632 C616 0.931 . S
H633 C621 0.929 . S
H634 C622 0.960 . S
H635 C622 0.962 . S
H636 C622 0.960 . S
H637 C623 0.961 . S
H638 C623 0.961 . S
H639 C623 0.961 . S
H640 C624 0.931 . S
H641 C629 0.930 . S
H642 C630 0.956 . S
H643 C630 0.961 . S
H644 C630 0.961 . S
H645 C631 0.958 . S
H646 C631 0.961 . S
H647 C631 0.960 . S
C648 C649 1.391 . S
C648 C650 1.394 . S
C648 H664 0.931 . S
C649 C648 1.391 . S
C649 C653 1.376 . S
C650 C648 1.394 . S
C650 C651 1.369 . S
C650 C654 1.531 . S
C651 C650 1.369 . S
C651 C652 1.410 . S
C651 C659 1.503 . S
C652 C651 1.410 . S
C652 C653 1.392 . S
C652 C655 1.511 . S
C653 C649 1.376 . S
C653 C652 1.392 . S
C653 H665 0.929 . S
C654 C650 1.531 . S
C654 H666 0.960 . S
C654 H667 0.962 . S
C654 H668 0.960 . S
C655 C652 1.511 . S
C655 H669 0.961 . S
C655 H670 0.961 . S
C655 H671 0.961 . S
C656 C657 1.370 . S
C656 C658 1.363 . S
C656 H672 0.931 . S
C657 C656 1.370 . S
C657 C661 1.408 . S
C658 C656 1.363 . S
C658 C659 1.370 . S
C658 C662 1.524 . S
C659 C651 1.503 . S
C659 C658 1.370 . S
C659 C660 1.403 . S
C660 C659 1.403 . S
C660 C661 1.404 . S
C660 C663 1.539 . S
C661 C657 1.408 . S
C661 C660 1.404 . S
C661 H673 0.930 . S
C662 C658 1.524 . S
C662 H674 0.956 . S
C662 H675 0.961 . S
C662 H676 0.961 . S
C663 C660 1.539 . S
C663 H677 0.958 1_554 S
C663 H678 0.961 . S
C663 H679 0.960 . S
H664 C648 0.931 . S
H665 C653 0.929 . S
H666 C654 0.960 . S
H667 C654 0.962 . S
H668 C654 0.960 . S
H669 C655 0.961 . S
H670 C655 0.961 . S
H671 C655 0.961 . S
H672 C656 0.931 . S
H673 C661 0.930 . S
H674 C662 0.956 . S
H675 C662 0.961 . S
H676 C662 0.961 . S
H677 C663 0.958 1_556 S
H678 C663 0.961 . S
H679 C663 0.960 . S
C680 C681 1.391 . S
C680 C682 1.394 . S
C680 H696 0.931 . S
C681 C680 1.391 . S
C681 C685 1.376 . S
C682 C680 1.394 . S
C682 C683 1.369 . S
C682 C686 1.531 . S
C683 C682 1.369 . S
C683 C684 1.410 . S
C683 C691 1.503 . S
C684 C683 1.410 . S
C684 C685 1.392 . S
C684 C687 1.511 . S
C685 C681 1.376 . S
C685 C684 1.392 . S
C685 H697 0.929 . S
C686 C682 1.531 . S
C686 H698 0.960 . S
C686 H699 0.962 . S
C686 H700 0.960 . S
C687 C684 1.511 . S
C687 H701 0.961 . S
C687 H702 0.961 . S
C687 H703 0.961 . S
C688 C689 1.370 . S
C688 C690 1.363 . S
C688 H704 0.931 . S
C689 C688 1.370 . S
C689 C693 1.408 . S
C690 C688 1.363 . S
C690 C691 1.370 . S
C690 C694 1.524 . S
C691 C683 1.503 . S
C691 C690 1.370 . S
C691 C692 1.403 . S
C692 C691 1.403 . S
C692 C693 1.404 . S
C692 C695 1.539 . S
C693 C689 1.408 . S
C693 C692 1.404 . S
C693 H705 0.930 . S
C694 C690 1.524 . S
C694 H706 0.956 . S
C694 H707 0.961 . S
C694 H708 0.961 . S
C695 C692 1.539 . S
C695 H709 0.958 . S
C695 H710 0.961 . S
C695 H711 0.960 . S
H696 C680 0.931 . S
H697 C685 0.929 . S
H698 C686 0.960 . S
H699 C686 0.962 . S
H700 C686 0.960 . S
H701 C687 0.961 . S
H702 C687 0.961 . S
H703 C687 0.961 . S
H704 C688 0.931 . S
H705 C693 0.930 . S
H706 C694 0.956 . S
H707 C694 0.961 . S
H708 C694 0.961 . S
H709 C695 0.958 . S
H710 C695 0.961 . S
H711 C695 0.960 . S
C712 C713 1.391 . S
C712 C714 1.394 1_545 S
C712 H728 0.931 . S
C713 C712 1.391 . S
C713 C717 1.376 . S
C714 C712 1.394 1_565 S
C714 C715 1.369 . S
C714 C718 1.531 . S
C715 C714 1.369 . S
C715 C716 1.410 1_565 S
C715 C723 1.503 . S
C716 C715 1.410 1_545 S
C716 C717 1.392 . S
C716 C719 1.511 . S
C717 C713 1.376 . S
C717 C716 1.392 . S
C717 H729 0.929 . S
C718 C714 1.531 . S
C718 H730 0.960 . S
C718 H731 0.962 . S
C718 H732 0.960 . S
C719 C716 1.511 . S
C719 H733 0.961 . S
C719 H734 0.942 1_545 S
C719 H735 0.961 . S
C720 C721 1.370 . S
C720 C722 1.363 . S
C720 H736 0.931 . S
C721 C720 1.370 . S
C721 C725 1.408 . S
C722 C720 1.363 . S
C722 C723 1.370 . S
C722 C726 1.524 . S
C723 C715 1.503 . S
C723 C722 1.370 . S
C723 C724 1.403 . S
C724 C723 1.403 . S
C724 C725 1.404 . S
C724 C727 1.539 1_565 S
C725 C721 1.408 . S
C725 C724 1.404 . S
C725 H737 0.930 . S
C726 C722 1.524 . S
C726 H738 0.956 . S
C726 H739 0.961 . S
C726 H740 0.961 . S
C727 C724 1.539 1_545 S
C727 H741 0.958 . S
C727 H742 0.961 . S
C727 H743 0.960 . S
H728 C712 0.931 . S
H729 C717 0.929 . S
H730 C718 0.960 . S
H731 C718 0.962 . S
H732 C718 0.960 . S
H733 C719 0.961 . S
H734 C719 0.942 1_565 S
H735 C719 0.961 . S
H736 C720 0.931 . S
H737 C725 0.930 . S
H738 C726 0.956 . S
H739 C726 0.961 . S
H740 C726 0.961 . S
H741 C727 0.958 . S
H742 C727 0.961 . S
H743 C727 0.960 . S
C744 C745 1.391 . S
C744 C746 1.394 . S
C744 H760 0.931 . S
C745 C744 1.391 . S
C745 C749 1.376 . S
C746 C744 1.394 . S
C746 C747 1.369 . S
C746 C750 1.531 . S
C747 C746 1.369 . S
C747 C748 1.410 1_554 S
C747 C755 1.503 1_554 S
C748 C747 1.410 1_556 S
C748 C749 1.392 1_556 S
C748 C751 1.511 . S
C749 C745 1.376 . S
C749 C748 1.392 1_554 S
C749 H761 0.929 1_554 S
C750 C746 1.531 . S
C750 H762 0.960 . S
C750 H763 0.962 . S
C750 H764 0.960 . S
C751 C748 1.511 . S
C751 H765 0.961 . S
C751 H766 0.961 . S
C751 H767 0.961 . S
C752 C753 1.370 . S
C752 C754 1.363 . S
C752 H768 0.931 . S
C753 C752 1.370 . S
C753 C757 1.408 . S
C754 C752 1.363 . S
C754 C755 1.370 . S
C754 C758 1.524 . S
C755 C747 1.503 1_556 S
C755 C754 1.370 . S
C755 C756 1.403 . S
C756 C755 1.403 . S
C756 C757 1.404 . S
C756 C759 1.539 . S
C757 C753 1.408 . S
C757 C756 1.404 . S
C757 H769 0.930 . S
C758 C754 1.524 . S
C758 H770 0.956 . S
C758 H771 0.961 . S
C758 H772 0.961 . S
C759 C756 1.539 . S
C759 H773 0.958 1_556 S
C759 H774 0.961 . S
C759 H775 0.960 . S
H760 C744 0.931 . S
H761 C749 0.929 1_556 S
H762 C750 0.960 . S
H763 C750 0.962 . S
H764 C750 0.960 . S
H765 C751 0.961 . S
H766 C751 0.961 . S
H767 C751 0.961 . S
H768 C752 0.931 . S
H769 C757 0.930 . S
H770 C758 0.956 . S
H771 C758 0.961 . S
H772 C758 0.961 . S
H773 C759 0.958 1_554 S
H774 C759 0.961 . S
H775 C759 0.960 . S
C776 C777 1.391 . S
C776 C778 1.394 . S
C776 H792 0.931 . S
C777 C776 1.391 . S
C777 C781 1.376 . S
C778 C776 1.394 . S
C778 C779 1.369 . S
C778 C782 1.531 . S
C779 C778 1.369 . S
C779 C780 1.410 . S
C779 C787 1.503 . S
C780 C779 1.410 . S
C780 C781 1.392 . S
C780 C783 1.511 1_655 S
C781 C777 1.376 . S
C781 C780 1.392 . S
C781 H793 0.929 . S
C782 C778 1.531 . S
C782 H794 0.960 . S
C782 H795 0.962 . S
C782 H796 0.960 . S
C783 C780 1.511 1_455 S
C783 H797 0.961 . S
C783 H798 0.961 . S
C783 H799 0.961 . S
C784 C785 1.381 1_556 S
C784 C786 1.368 1_455 S
C784 H800 0.920 . S
C785 C784 1.381 1_554 S
C785 C789 1.408 . S
C786 C784 1.368 1_655 S
C786 C787 1.370 . S
C786 C790 1.524 . S
C787 C779 1.503 . S
C787 C786 1.370 . S
C787 C788 1.403 1_556 S
C788 C787 1.403 1_554 S
C788 C789 1.404 1_655 S
C788 C791 1.539 . S
C789 C785 1.408 . S
C789 C788 1.404 1_455 S
C789 H801 0.930 . S
C790 C786 1.524 . S
C790 H802 0.956 . S
C790 H803 0.961 . S
C790 H804 0.961 . S
C791 C788 1.539 . S
C791 H805 0.958 . S
C791 H806 0.961 1_655 S
C791 H807 0.960 . S
H792 C776 0.931 . S
H793 C781 0.929 . S
H794 C782 0.960 . S
H795 C782 0.962 . S
H796 C782 0.960 . S
H797 C783 0.961 . S
H798 C783 0.961 . S
H799 C783 0.961 . S
H800 C784 0.920 . S
H801 C789 0.930 . S
H802 C790 0.956 . S
H803 C790 0.961 . S
H804 C790 0.961 . S
H805 C791 0.958 . S
H806 C791 0.961 1_455 S
H807 C791 0.960 . S
C808 C809 1.391 . S
C808 C810 1.394 . S
C808 H824 0.931 . S
C809 C808 1.391 . S
C809 C813 1.376 . S
C810 C808 1.394 . S
C810 C811 1.369 . S
C810 C814 1.531 1_556 S
C811 C810 1.369 . S
C811 C812 1.410 . S
C811 C819 1.503 . S
C812 C811 1.410 . S
C812 C813 1.392 . S
C812 C815 1.511 . S
C813 C809 1.376 . S
C813 C812 1.392 . S
C813 H825 0.929 . S
C814 C810 1.531 1_554 S
C814 H826 0.960 . S
C814 H827 0.962 . S
C814 H828 0.960 . S
C815 C812 1.511 . S
C815 H829 0.961 . S
C815 H830 0.961 . S
C815 H831 0.961 . S
C816 C817 1.370 . S
C816 C818 1.363 . S
C816 H832 0.931 . S
C817 C816 1.370 . S
C817 C821 1.408 . S
C818 C816 1.363 . S
C818 C819 1.370 1_554 S
C818 C822 1.524 1_554 S
C819 C811 1.503 . S
C819 C818 1.370 1_556 S
C819 C820 1.403 1_556 S
C820 C819 1.403 1_554 S
C820 C821 1.404 . S
C820 C823 1.539 1_554 S
C821 C817 1.408 . S
C821 C820 1.404 . S
C821 H833 0.930 . S
C822 C818 1.524 1_556 S
C822 H834 0.956 . S
C822 H835 0.961 . S
C822 H836 0.961 1_556 S
C823 C820 1.539 1_556 S
C823 H837 0.962 . S
C823 H838 0.961 . S
C823 H839 0.960 . S
H824 C808 0.931 . S
H825 C813 0.929 . S
H826 C814 0.960 . S
H827 C814 0.962 . S
H828 C814 0.960 . S
H829 C815 0.961 . S
H830 C815 0.961 . S
H831 C815 0.961 . S
H832 C816 0.931 . S
H833 C821 0.930 . S
H834 C822 0.956 . S
H835 C822 0.961 . S
H836 C822 0.961 1_554 S
H837 C823 0.962 . S
H838 C823 0.961 . S
H839 C823 0.960 . S
C840 C841 1.391 . S
C840 C842 1.394 . S
C840 H856 0.931 . S
C841 C840 1.391 . S
C841 C845 1.376 . S
C842 C840 1.394 . S
C842 C843 1.369 . S
C842 C846 1.531 . S
C843 C842 1.369 . S
C843 C844 1.410 . S
C843 C851 1.503 . S
C844 C843 1.410 . S
C844 C845 1.392 . S
C844 C847 1.511 . S
C845 C841 1.376 . S
C845 C844 1.392 . S
C845 H857 0.929 . S
C846 C842 1.531 . S
C846 H858 0.960 . S
C846 H859 0.962 . S
C846 H860 0.960 . S
C847 C844 1.511 . S
C847 H861 0.961 . S
C847 H862 0.961 . S
C847 H863 0.995 . S
C848 C849 1.370 1_554 S
C848 C850 1.363 1_554 S
C848 H864 0.931 . S
C849 C848 1.370 1_556 S
C849 C853 1.408 . S
C850 C848 1.363 1_556 S
C850 C851 1.370 . S
C850 C854 1.524 . S
C851 C843 1.503 . S
C851 C850 1.370 . S
C851 C852 1.403 . S
C852 C851 1.403 . S
C852 C853 1.404 . S
C852 C855 1.539 . S
C853 C849 1.408 . S
C853 C852 1.404 . S
C853 H865 0.930 . S
C854 C850 1.524 . S
C854 H866 0.956 . S
C854 H867 0.961 . S
C854 H868 0.961 1_556 S
C855 C852 1.539 . S
C855 H869 0.958 . S
C855 H870 1.014 . S
C855 H871 0.960 . S
H856 C840 0.931 . S
H857 C845 0.929 . S
H858 C846 0.960 . S
H859 C846 0.962 . S
H860 C846 0.960 . S
H861 C847 0.961 . S
H862 C847 0.961 . S
H863 C847 0.995 . S
H864 C848 0.931 . S
H865 C853 0.930 . S
H866 C854 0.956 . S
H867 C854 0.961 . S
H868 C854 0.961 1_554 S
H869 C855 0.958 . S
H870 C855 1.014 . S
H871 C855 0.960 . S
C872 C873 1.391 . S
C872 C874 1.394 . S
C872 H888 0.931 . S
C873 C872 1.391 . S
C873 C877 1.376 . S
C874 C872 1.394 . S
C874 C875 1.369 1_554 S
C874 C878 1.532 1_554 S
C875 C874 1.369 1_556 S
C875 C876 1.410 . S
C875 C883 1.503 . S
C876 C875 1.410 . S
C876 C877 1.392 1_556 S
C876 C879 1.511 . S
C877 C873 1.376 . S
C877 C876 1.392 1_554 S
C877 H889 0.929 . S
C878 C874 1.532 1_556 S
C878 H890 0.958 . S
C878 H891 0.973 . S
C878 H892 0.950 1_556 S
C879 C876 1.511 . S
C879 H893 0.961 . S
C879 H894 0.961 . S
C879 H895 0.961 . S
C880 C881 1.370 . S
C880 C882 1.363 . S
C880 H896 0.931 . S
C881 C880 1.370 . S
C881 C885 1.408 . S
C882 C880 1.363 . S
C882 C883 1.370 . S
C882 C886 1.524 . S
C883 C875 1.503 . S
C883 C882 1.370 . S
C883 C884 1.403 . S
C884 C883 1.403 . S
C884 C885 1.404 . S
C884 C887 1.539 1_556 S
C885 C881 1.408 . S
C885 C884 1.404 . S
C885 H897 0.930 . S
C886 C882 1.524 . S
C886 H898 0.956 . S
C886 H899 0.961 . S
C886 H900 0.961 . S
C887 C884 1.539 1_554 S
C887 H901 0.958 . S
C887 H902 0.961 . S
C887 H903 0.960 . S
H888 C872 0.931 . S
H889 C877 0.929 . S
H890 C878 0.958 . S
H891 C878 0.973 . S
H892 C878 0.950 1_554 S
H893 C879 0.961 . S
H894 C879 0.961 . S
H895 C879 0.961 . S
H896 C880 0.931 . S
H897 C885 0.930 . S
H898 C886 0.956 . S
H899 C886 0.961 . S
H900 C886 0.961 . S
H901 C887 0.958 . S
H902 C887 0.961 . S
H903 C887 0.960 . S
C904 C905 1.391 . S
C904 C906 1.394 . S
C904 H920 0.931 . S
C905 C904 1.391 . S
C905 C909 1.376 . S
C906 C904 1.394 . S
C906 C907 1.369 . S
C906 C910 1.531 1_556 S
C907 C906 1.369 . S
C907 C908 1.410 . S
C907 C915 1.503 1_556 S
C908 C907 1.410 . S
C908 C909 1.392 . S
C908 C911 1.511 . S
C909 C905 1.376 . S
C909 C908 1.392 . S
C909 H921 0.929 . S
C910 C906 1.531 1_554 S
C910 H922 0.960 . S
C910 H923 0.962 . S
C910 H924 0.960 . S
C911 C908 1.511 . S
C911 H925 0.961 . S
C911 H926 0.961 . S
C911 H927 0.961 . S
C912 C913 1.370 . S
C912 C914 1.363 . S
C912 H928 0.931 . S
C913 C912 1.370 . S
C913 C917 1.408 . S
C914 C912 1.363 . S
C914 C915 1.370 . S
C914 C918 1.524 1_554 S
C915 C907 1.503 1_554 S
C915 C914 1.370 . S
C915 C916 1.403 . S
C916 C915 1.403 . S
C916 C917 1.404 . S
C916 C919 1.539 . S
C917 C913 1.408 . S
C917 C916 1.404 . S
C917 H929 0.930 . S
C918 C914 1.524 1_556 S
C918 H930 0.956 . S
C918 H931 0.961 . S
C918 H932 0.961 . S
C919 C916 1.539 . S
C919 H933 0.958 . S
C919 H934 0.961 . S
C919 H935 0.960 1_554 S
H920 C904 0.931 . S
H921 C909 0.929 . S
H922 C910 0.960 . S
H923 C910 0.962 . S
H924 C910 0.960 . S
H925 C911 0.961 . S
H926 C911 0.961 . S
H927 C911 0.961 . S
H928 C912 0.931 . S
H929 C917 0.930 . S
H930 C918 0.956 . S
H931 C918 0.961 . S
H932 C918 0.961 . S
H933 C919 0.958 . S
H934 C919 0.961 . S
H935 C919 0.960 1_556 S
C936 C937 1.391 . S
C936 C938 1.394 . S
C936 H952 0.931 . S
C937 C936 1.391 . S
C937 C941 1.376 . S
C938 C936 1.394 . S
C938 C939 1.369 . S
C938 C942 1.531 . S
C939 C938 1.369 . S
C939 C940 1.410 . S
C939 C947 1.503 . S
C940 C939 1.410 . S
C940 C941 1.392 . S
C940 C943 1.511 . S
C941 C937 1.376 . S
C941 C940 1.392 . S
C941 H953 0.929 . S
C942 C938 1.531 . S
C942 H954 0.960 . S
C942 H955 0.962 . S
C942 H956 0.960 . S
C943 C940 1.511 . S
C943 H957 0.961 . S
C943 H958 0.961 . S
C943 H959 0.961 . S
C944 C945 1.370 . S
C944 C946 1.363 . S
C944 H960 0.931 . S
C945 C944 1.370 . S
C945 C949 1.408 1_565 S
C946 C944 1.363 . S
C946 C947 1.370 1_565 S
C946 C950 1.524 . S
C947 C939 1.503 . S
C947 C946 1.370 1_545 S
C947 C948 1.403 . S
C948 C947 1.403 . S
C948 C949 1.404 . S
C948 C951 1.539 . S
C949 C945 1.408 1_545 S
C949 C948 1.404 . S
C949 H961 0.930 . S
C950 C946 1.524 . S
C950 H962 0.956 . S
C950 H963 0.961 . S
C950 H964 0.961 . S
C951 C948 1.539 . S
C951 H965 0.958 . S
C951 H966 0.961 . S
C951 H967 0.960 . S
H952 C936 0.931 . S
H953 C941 0.929 . S
H954 C942 0.960 . S
H955 C942 0.962 . S
H956 C942 0.960 . S
H957 C943 0.961 . S
H958 C943 0.961 . S
H959 C943 0.961 . S
H960 C944 0.931 . S
H961 C949 0.930 . S
H962 C950 0.956 . S
H963 C950 0.961 . S
H964 C950 0.961 . S
H965 C951 0.958 . S
H966 C951 0.961 . S
H967 C951 0.960 . S
C968 C969 1.391 . S
C968 C970 1.394 . S
C968 H984 0.931 . S
C969 C968 1.391 . S
C969 C973 1.376 . S
C970 C968 1.394 . S
C970 C971 1.369 . S
C970 C974 1.531 . S
C971 C970 1.369 . S
C971 C972 1.410 . S
C971 C979 1.503 . S
C972 C971 1.410 . S
C972 C973 1.392 . S
C972 C975 1.511 . S
C973 C969 1.376 . S
C973 C972 1.392 . S
C973 H985 0.929 . S
C974 C970 1.531 . S
C974 H986 0.960 . S
C974 H987 0.962 . S
C974 H988 0.960 . S
C975 C972 1.511 . S
C975 H989 0.961 1_554 S
C975 H990 0.961 . S
C975 H991 0.961 . S
C976 C977 1.370 . S
C976 C978 1.363 . S
C976 H992 0.931 . S
C977 C976 1.370 . S
C977 C981 1.408 . S
C978 C976 1.363 . S
C978 C979 1.370 . S
C978 C982 1.524 . S
C979 C971 1.503 . S
C979 C978 1.370 . S
C979 C980 1.403 . S
C980 C979 1.403 . S
C980 C981 1.404 . S
C980 C983 1.539 . S
C981 C977 1.408 . S
C981 C980 1.404 . S
C981 H993 0.930 . S
C982 C978 1.524 . S
C982 H994 0.956 . S
C982 H995 0.961 . S
C982 H996 0.961 . S
C983 C980 1.539 . S
C983 H997 0.958 . S
C983 H998 0.961 . S
C983 H999 0.960 . S
H984 C968 0.931 . S
H985 C973 0.929 . S
H986 C974 0.960 . S
H987 C974 0.962 . S
H988 C974 0.960 . S
H989 C975 0.961 1_556 S
H990 C975 0.961 . S
H991 C975 0.961 . S
H992 C976 0.931 . S
H993 C981 0.930 . S
H994 C982 0.956 . S
H995 C982 0.961 . S
H996 C982 0.961 . S
H997 C983 0.958 . S
H998 C983 0.961 . S
H999 C983 0.960 . S
C1000 C1001 1.391 . S
C1000 C1002 1.394 . S
C1000 H1016 0.931 . S
C1001 C1000 1.391 . S
C1001 C1005 1.376 . S
C1002 C1000 1.394 . S
C1002 C1003 1.369 . S
C1002 C1006 1.531 . S
C1003 C1002 1.369 . S
C1003 C1004 1.410 . S
C1003 C1011 1.503 . S
C1004 C1003 1.410 . S
C1004 C1005 1.392 . S
C1004 C1007 1.511 . S
C1005 C1001 1.376 . S
C1005 C1004 1.392 . S
C1005 H1017 0.929 . S
C1006 C1002 1.531 . S
C1006 H1018 0.960 . S
C1006 H1019 0.962 . S
C1006 H1020 0.960 . S
C1007 C1004 1.511 . S
C1007 H1021 0.961 . S
C1007 H1022 0.961 . S
C1007 H1023 0.961 . S
C1008 C1009 1.370 . S
C1008 C1010 1.363 . S
C1008 H1024 0.931 . S
C1009 C1008 1.370 . S
C1009 C1013 1.408 . S
C1010 C1008 1.363 . S
C1010 C1011 1.370 . S
C1010 C1014 1.524 . S
C1011 C1003 1.503 . S
C1011 C1010 1.370 . S
C1011 C1012 1.403 . S
C1012 C1011 1.403 . S
C1012 C1013 1.404 . S
C1012 C1015 1.539 . S
C1013 C1009 1.408 . S
C1013 C1012 1.404 . S
C1013 H1025 0.930 . S
C1014 C1010 1.524 . S
C1014 H1026 0.956 . S
C1014 H1027 0.961 . S
C1014 H1028 0.961 . S
C1015 C1012 1.539 . S
C1015 H1029 0.958 . S
C1015 H1030 0.961 . S
C1015 H1031 0.960 . S
H1016 C1000 0.931 . S
H1017 C1005 0.929 . S
H1018 C1006 0.960 . S
H1019 C1006 0.962 . S
H1020 C1006 0.960 . S
H1021 C1007 0.961 . S
H1022 C1007 0.961 . S
H1023 C1007 0.961 . S
H1024 C1008 0.931 . S
H1025 C1013 0.930 . S
H1026 C1014 0.956 . S
H1027 C1014 0.961 . S
H1028 C1014 0.961 . S
H1029 C1015 0.958 . S
H1030 C1015 0.961 . S
H1031 C1015 0.960 . S
C1032 C1033 1.391 . S
C1032 C1034 1.394 . S
C1032 H1048 0.931 . S
C1033 C1032 1.391 . S
C1033 C1037 1.376 . S
C1034 C1032 1.394 . S
C1034 C1035 1.369 . S
C1034 C1038 1.531 . S
C1035 C1034 1.369 . S
C1035 C1036 1.410 . S
C1035 C1043 1.503 . S
C1036 C1035 1.410 . S
C1036 C1037 1.392 . S
C1036 C1039 1.511 . S
C1037 C1033 1.376 . S
C1037 C1036 1.392 . S
C1037 H1049 0.929 . S
C1038 C1034 1.531 . S
C1038 H1050 0.960 . S
C1038 H1051 0.962 . S
C1038 H1052 0.960 . S
C1039 C1036 1.511 . S
C1039 H1053 0.961 . S
C1039 H1054 0.961 . S
C1039 H1055 0.961 . S
C1040 C1041 1.370 . S
C1040 C1042 1.363 . S
C1040 H1056 0.931 . S
C1041 C1040 1.370 . S
C1041 C1045 1.408 . S
C1042 C1040 1.363 . S
C1042 C1043 1.370 . S
C1042 C1046 1.524 . S
C1043 C1035 1.503 . S
C1043 C1042 1.370 . S
C1043 C1044 1.403 . S
C1044 C1043 1.403 . S
C1044 C1045 1.404 . S
C1044 C1047 1.539 . S
C1045 C1041 1.408 . S
C1045 C1044 1.404 . S
C1045 H1057 0.930 . S
C1046 C1042 1.524 . S
C1046 H1058 0.956 . S
C1046 H1059 0.961 . S
C1046 H1060 0.961 . S
C1047 C1044 1.539 . S
C1047 H1061 0.958 . S
C1047 H1062 0.961 . S
C1047 H1063 0.960 . S
H1048 C1032 0.931 . S
H1049 C1037 0.929 . S
H1050 C1038 0.960 . S
H1051 C1038 0.962 . S
H1052 C1038 0.960 . S
H1053 C1039 0.961 . S
H1054 C1039 0.961 . S
H1055 C1039 0.961 . S
H1056 C1040 0.931 . S
H1057 C1045 0.930 . S
H1058 C1046 0.956 . S
H1059 C1046 0.961 . S
H1060 C1046 0.961 . S
H1061 C1047 0.958 . S
H1062 C1047 0.961 . S
H1063 C1047 0.960 . S
C1064 C1065 1.391 . S
C1064 C1066 1.394 . S
C1064 H1080 0.931 . S
C1065 C1064 1.391 . S
C1065 C1069 1.376 . S
C1066 C1064 1.394 . S
C1066 C1067 1.369 . S
C1066 C1070 1.531 . S
C1067 C1066 1.369 . S
C1067 C1068 1.410 . S
C1067 C1075 1.503 1_545 S
C1068 C1067 1.410 . S
C1068 C1069 1.392 . S
C1068 C1071 1.511 . S
C1069 C1065 1.376 . S
C1069 C1068 1.392 . S
C1069 H1081 0.929 . S
C1070 C1066 1.531 . S
C1070 H1082 0.960 . S
C1070 H1083 0.962 . S
C1070 H1084 0.960 . S
C1071 C1068 1.511 . S
C1071 H1085 0.961 . S
C1071 H1086 0.961 1_545 S
C1071 H1087 0.961 1_545 S
C1072 C1073 1.370 . S
C1072 C1074 1.363 . S
C1072 H1088 0.931 . S
C1073 C1072 1.370 . S
C1073 C1077 1.408 . S
C1074 C1072 1.363 . S
C1074 C1075 1.370 . S
C1074 C1078 1.524 1_565 S
C1075 C1067 1.503 1_565 S
C1075 C1074 1.370 . S
C1075 C1076 1.403 . S
C1076 C1075 1.403 . S
C1076 C1077 1.404 . S
C1076 C1079 1.539 . S
C1077 C1073 1.408 . S
C1077 C1076 1.404 . S
C1077 H1089 0.930 . S
C1078 C1074 1.524 1_545 S
C1078 H1090 0.956 . S
C1078 H1091 0.961 . S
C1078 H1092 0.961 . S
C1079 C1076 1.539 . S
C1079 H1093 0.958 . S
C1079 H1094 0.961 . S
C1079 H1095 0.960 . S
H1080 C1064 0.931 . S
H1081 C1069 0.929 . S
H1082 C1070 0.960 . S
H1083 C1070 0.962 . S
H1084 C1070 0.960 . S
H1085 C1071 0.961 . S
H1086 C1071 0.961 1_565 S
H1087 C1071 0.961 1_565 S
H1088 C1072 0.931 . S
H1089 C1077 0.930 . S
H1090 C1078 0.956 . S
H1091 C1078 0.961 . S
H1092 C1078 0.961 . S
H1093 C1079 0.958 . S
H1094 C1079 0.961 . S
H1095 C1079 0.960 . S
C1096 C1097 1.391 . S
C1096 C1098 1.394 . S
C1096 H1112 0.931 . S
C1097 C1096 1.391 . S
C1097 C1101 1.376 . S
C1098 C1096 1.394 . S
C1098 C1099 1.369 . S
C1098 C1102 1.531 1_655 S
C1099 C1098 1.369 . S
C1099 C1100 1.410 . S
C1099 C1107 1.503 1_655 S
C1100 C1099 1.410 . S
C1100 C1101 1.392 . S
C1100 C1103 1.511 . S
C1101 C1097 1.376 . S
C1101 C1100 1.392 . S
C1101 H1113 0.929 . S
C1102 C1098 1.531 1_455 S
C1102 H1114 0.960 . S
C1102 H1115 0.962 . S
C1102 H1116 0.960 . S
C1103 C1100 1.511 . S
C1103 H1117 0.961 . S
C1103 H1118 0.961 . S
C1103 H1119 0.961 . S
C1104 C1105 1.370 . S
C1104 C1106 1.363 . S
C1104 H1120 0.931 . S
C1105 C1104 1.370 . S
C1105 C1109 1.408 . S
C1106 C1104 1.363 . S
C1106 C1107 1.370 . S
C1106 C1110 1.524 . S
C1107 C1099 1.503 1_455 S
C1107 C1106 1.370 . S
C1107 C1108 1.403 1_455 S
C1108 C1107 1.403 1_655 S
C1108 C1109 1.404 1_655 S
C1108 C1111 1.539 . S
C1109 C1105 1.408 . S
C1109 C1108 1.404 1_455 S
C1109 H1121 0.930 . S
C1110 C1106 1.524 . S
C1110 H1122 0.956 . S
C1110 H1123 0.961 . S
C1110 H1124 0.961 . S
C1111 C1108 1.539 . S
C1111 H1125 0.958 . S
C1111 H1126 0.961 . S
C1111 H1127 0.960 . S
H1112 C1096 0.931 . S
H1113 C1101 0.929 . S
H1114 C1102 0.960 . S
H1115 C1102 0.962 . S
H1116 C1102 0.960 . S
H1117 C1103 0.961 . S
H1118 C1103 0.961 . S
H1119 C1103 0.961 . S
H1120 C1104 0.931 . S
H1121 C1109 0.930 . S
H1122 C1110 0.956 . S
H1123 C1110 0.961 . S
H1124 C1110 0.961 . S
H1125 C1111 0.958 . S
H1126 C1111 0.961 . S
H1127 C1111 0.960 . S
C1128 C1129 1.391 . S
C1128 C1130 1.394 . S
C1128 H1144 0.931 . S
C1129 C1128 1.391 . S
C1129 C1133 1.376 . S
C1130 C1128 1.394 . S
C1130 C1131 1.369 . S
C1130 C1134 1.531 . S
C1131 C1130 1.369 . S
C1131 C1132 1.410 . S
C1131 C1139 1.503 . S
C1132 C1131 1.410 . S
C1132 C1133 1.392 . S
C1132 C1135 1.511 . S
C1133 C1129 1.376 . S
C1133 C1132 1.392 . S
C1133 H1145 0.929 . S
C1134 C1130 1.531 . S
C1134 H1146 0.960 . S
C1134 H1147 0.962 . S
C1134 H1148 0.960 . S
C1135 C1132 1.511 . S
C1135 H1149 0.961 . S
C1135 H1150 0.961 . S
C1135 H1151 0.961 . S
C1136 C1137 1.370 . S
C1136 C1138 1.363 . S
C1136 H1152 0.931 . S
C1137 C1136 1.370 . S
C1137 C1141 1.408 . S
C1138 C1136 1.363 . S
C1138 C1139 1.370 . S
C1138 C1142 1.524 . S
C1139 C1131 1.503 . S
C1139 C1138 1.370 . S
C1139 C1140 1.403 . S
C1140 C1139 1.403 . S
C1140 C1141 1.404 . S
C1140 C1143 1.539 . S
C1141 C1137 1.408 . S
C1141 C1140 1.404 . S
C1141 H1153 0.930 . S
C1142 C1138 1.524 . S
C1142 H1154 0.956 . S
C1142 H1155 0.961 . S
C1142 H1156 0.961 . S
C1143 C1140 1.539 . S
C1143 H1157 0.958 . S
C1143 H1158 0.961 . S
C1143 H1159 0.960 . S
H1144 C1128 0.931 . S
H1145 C1133 0.929 . S
H1146 C1134 0.960 . S
H1147 C1134 0.962 . S
H1148 C1134 0.960 . S
H1149 C1135 0.961 . S
H1150 C1135 0.961 . S
H1151 C1135 0.961 . S
H1152 C1136 0.931 . S
H1153 C1141 0.930 . S
H1154 C1142 0.956 . S
H1155 C1142 0.961 . S
H1156 C1142 0.961 . S
H1157 C1143 0.958 . S
H1158 C1143 0.961 . S
H1159 C1143 0.960 . S
C1160 C1161 1.391 . S
C1160 C1162 1.394 . S
C1160 H1176 0.931 . S
C1161 C1160 1.391 . S
C1161 C1165 1.376 . S
C1162 C1160 1.394 . S
C1162 C1163 1.369 1_565 S
C1162 C1166 1.531 1_565 S
C1163 C1162 1.369 1_545 S
C1163 C1164 1.410 1_545 S
C1163 C1171 1.503 . S
C1164 C1163 1.410 1_565 S
C1164 C1165 1.392 . S
C1164 C1167 1.511 1_565 S
C1165 C1161 1.376 . S
C1165 C1164 1.392 . S
C1165 H1177 0.929 . S
C1166 C1162 1.531 1_545 S
C1166 H1178 0.960 . S
C1166 H1179 0.962 . S
C1166 H1180 0.960 . S
C1167 C1164 1.511 1_545 S
C1167 H1181 0.961 1_545 S
C1167 H1182 0.961 . S
C1167 H1183 0.961 . S
C1168 C1169 1.370 . S
C1168 C1170 1.363 . S
C1168 H1184 0.931 . S
C1169 C1168 1.370 . S
C1169 C1173 1.408 . S
C1170 C1168 1.363 . S
C1170 C1171 1.370 . S
C1170 C1174 1.524 . S
C1171 C1163 1.503 . S
C1171 C1170 1.370 . S
C1171 C1172 1.403 . S
C1172 C1171 1.403 . S
C1172 C1173 1.404 . S
C1172 C1175 1.539 . S
C1173 C1169 1.408 . S
C1173 C1172 1.404 . S
C1173 H1185 0.930 . S
C1174 C1170 1.524 . S
C1174 H1186 0.956 . S
C1174 H1187 0.961 1_545 S
C1174 H1188 0.961 . S
C1175 C1172 1.539 . S
C1175 H1189 0.958 . S
C1175 H1190 0.961 . S
C1175 H1191 0.960 . S
H1176 C1160 0.931 . S
H1177 C1165 0.929 . S
H1178 C1166 0.960 . S
H1179 C1166 0.962 . S
H1180 C1166 0.960 . S
H1181 C1167 0.961 1_565 S
H1182 C1167 0.961 . S
H1183 C1167 0.961 . S
H1184 C1168 0.931 . S
H1185 C1173 0.930 . S
H1186 C1174 0.956 . S
H1187 C1174 0.961 1_565 S
H1188 C1174 0.961 . S
H1189 C1175 0.958 . S
H1190 C1175 0.961 . S
H1191 C1175 0.960 . S
C1192 C1193 1.391 . S
C1192 C1194 1.394 . S
C1192 H1208 0.931 . S
C1193 C1192 1.391 . S
C1193 C1197 1.376 . S
C1194 C1192 1.394 . S
C1194 C1195 1.369 . S
C1194 C1198 1.531 . S
C1195 C1194 1.369 . S
C1195 C1196 1.410 1_655 S
C1195 C1203 1.503 1_655 S
C1196 C1195 1.410 1_455 S
C1196 C1197 1.392 1_455 S
C1196 C1199 1.511 . S
C1197 C1193 1.376 . S
C1197 C1196 1.392 1_655 S
C1197 H1209 0.929 . S
C1198 C1194 1.531 . S
C1198 H1210 0.960 . S
C1198 H1211 0.962 . S
C1198 H1212 0.960 . S
C1199 C1196 1.511 . S
C1199 H1213 0.961 . S
C1199 H1214 0.961 . S
C1199 H1215 0.961 . S
C1200 C1201 1.370 . S
C1200 C1202 1.363 . S
C1200 H1216 0.931 . S
C1201 C1200 1.370 . S
C1201 C1205 1.408 . S
C1202 C1200 1.363 . S
C1202 C1203 1.370 . S
C1202 C1206 1.524 1_455 S
C1203 C1195 1.503 1_455 S
C1203 C1202 1.370 . S
C1203 C1204 1.403 . S
C1204 C1203 1.403 . S
C1204 C1205 1.404 . S
C1204 C1207 1.539 . S
C1205 C1201 1.408 . S
C1205 C1204 1.404 . S
C1205 H1217 0.930 . S
C1206 C1202 1.524 1_655 S
C1206 H1218 0.956 . S
C1206 H1219 0.961 . S
C1206 H1220 0.961 . S
C1207 C1204 1.539 . S
C1207 H1221 0.958 . S
C1207 H1222 0.961 . S
C1207 H1223 0.960 . S
H1208 C1192 0.931 . S
H1209 C1197 0.929 . S
H1210 C1198 0.960 . S
H1211 C1198 0.962 . S
H1212 C1198 0.960 . S
H1213 C1199 0.961 . S
H1214 C1199 0.961 . S
H1215 C1199 0.961 . S
H1216 C1200 0.931 . S
H1217 C1205 0.930 . S
H1218 C1206 0.956 . S
H1219 C1206 0.961 . S
H1220 C1206 0.961 . S
H1221 C1207 0.958 . S
H1222 C1207 0.961 . S
H1223 C1207 0.960 . S
C361 C10 3.360 . S
C369 C19 3.358 . S
C393 C59 3.429 . S
C401 C50 3.436 . S
C425 C90 3.464 1_556 S
C433 C99 3.475 . S
C457 C139 3.361 . S
C465 C130 3.357 . S
C489 C170 3.431 . S
C497 C179 3.435 1_556 S
C521 C219 3.467 . S
C529 C210 3.474 1_556 S
C553 C247 2.543 . S
C561 C256 2.491 . S
C585 C296 2.778 . S
C593 C287 2.812 . S
C617 C327 1.965 . S
C625 C336 1.895 . S
C649 C202 1.750 . S
C657 C7 1.789 . S
C681 C42 2.764 . S
C689 C122 2.791 . S
C713 C87 1.235 . S
C721 C167 1.253 . S
C745 C82 2.960 . S
C753 C251 3.108 . S
C777 C299 1.182 . S
C785 C2 1.139 . S
C809 C331 1.933 . S
C817 C47 1.830 . S
C841 C330 0.839 . S
C849 C16 0.799 1_556 S
C873 C51 2.190 . S
C881 C250 2.250 . S
C905 C282 2.902 . S
C913 C96 2.745 . S
C937 C91 1.754 . S
C945 C136 1.790 . S
C969 C171 2.770 . S
C977 C11 2.790 . S
C1001 C56 1.258 . S
C1009 C216 1.231 . S
C1033 C339 0.835 . S
C1041 C127 0.828 . S
C1065 C259 2.253 . S
C1073 C162 2.170 . S
C1097 C291 2.901 . S
C1105 C207 2.749 . S
C1129 C242 3.106 . S
C1137 C211 2.960 . S
C1161 C131 1.165 . S
C1169 C290 1.176 . S
C1193 C322 1.960 . S
C1201 C176 1.825 . S
