# Generated by pormake.
# Topology wlb, (5)-cn, num edge types: 1
# Building blocks:
#     Node 0, Type 0, BuildingBlock: BEQFEK_clean_sbu_0, # of connection points: 5
#     Node 1, Type 0, BuildingBlock: BEQFEK_clean_sbu_0, # of connection points: 5
#     Node 2, Type 0, BuildingBlock: BEQFEK_clean_sbu_0, # of connection points: 5
#     Node 3, Type 0, BuildingBlock: BEQFEK_clean_sbu_0, # of connection points: 5
#     Node 4, Type 0, BuildingBlock: BEQFEK_clean_sbu_0, # of connection points: 5
#     Node 5, Type 0, BuildingBlock: BEQFEK_clean_sbu_0, # of connection points: 5
#     Node 6, Type 0, BuildingBlock: BEQFEK_clean_sbu_0, # of connection points: 5
#     Node 7, Type 0, BuildingBlock: BEQFEK_clean_sbu_0, # of connection points: 5
#     Node 8, Type 0, BuildingBlock: BEQFEK_clean_sbu_0, # of connection points: 5
#     Node 9, Type 0, BuildingBlock: BEQFEK_clean_sbu_0, # of connection points: 5
#     Node 10, Type 0, BuildingBlock: BEQFEK_clean_sbu_0, # of connection points: 5
#     Node 11, Type 0, BuildingBlock: BEQFEK_clean_sbu_0, # of connection points: 5
#     Node 12, Type 0, BuildingBlock: BEQFEK_clean_sbu_0, # of connection points: 5
#     Node 13, Type 0, BuildingBlock: BEQFEK_clean_sbu_0, # of connection points: 5
#     Node 14, Type 0, BuildingBlock: BEQFEK_clean_sbu_0, # of connection points: 5
#     Node 15, Type 0, BuildingBlock: BEQFEK_clean_sbu_0, # of connection points: 5
#     Node 16, Type 0, BuildingBlock: BEQFEK_clean_sbu_0, # of connection points: 5
#     Node 17, Type 0, BuildingBlock: BEQFEK_clean_sbu_0, # of connection points: 5
#     Edge 18, Type (0, 0), BuildingBlock: KIFKEQ_clean_linker_1, # of connection points: 2
#     Edge 19, Type (0, 0), BuildingBlock: KIFKEQ_clean_linker_1, # of connection points: 2
#     Edge 20, Type (0, 0), BuildingBlock: KIFKEQ_clean_linker_1, # of connection points: 2
#     Edge 21, Type (0, 0), BuildingBlock: KIFKEQ_clean_linker_1, # of connection points: 2
#     Edge 22, Type (0, 0), BuildingBlock: KIFKEQ_clean_linker_1, # of connection points: 2
#     Edge 23, Type (0, 0), BuildingBlock: KIFKEQ_clean_linker_1, # of connection points: 2
#     Edge 24, Type (0, 0), BuildingBlock: KIFKEQ_clean_linker_1, # of connection points: 2
#     Edge 25, Type (0, 0), BuildingBlock: KIFKEQ_clean_linker_1, # of connection points: 2
#     Edge 26, Type (0, 0), BuildingBlock: KIFKEQ_clean_linker_1, # of connection points: 2
#     Edge 27, Type (0, 0), BuildingBlock: KIFKEQ_clean_linker_1, # of connection points: 2
#     Edge 28, Type (0, 0), BuildingBlock: KIFKEQ_clean_linker_1, # of connection points: 2
#     Edge 29, Type (0, 0), BuildingBlock: KIFKEQ_clean_linker_1, # of connection points: 2
#     Edge 30, Type (0, 0), BuildingBlock: KIFKEQ_clean_linker_1, # of connection points: 2
#     Edge 31, Type (0, 0), BuildingBlock: KIFKEQ_clean_linker_1, # of connection points: 2
#     Edge 32, Type (0, 0), BuildingBlock: KIFKEQ_clean_linker_1, # of connection points: 2
#     Edge 33, Type (0, 0), BuildingBlock: KIFKEQ_clean_linker_1, # of connection points: 2
#     Edge 34, Type (0, 0), BuildingBlock: KIFKEQ_clean_linker_1, # of connection points: 2
#     Edge 35, Type (0, 0), BuildingBlock: KIFKEQ_clean_linker_1, # of connection points: 2
#     Edge 36, Type (0, 0), BuildingBlock: KIFKEQ_clean_linker_1, # of connection points: 2
#     Edge 37, Type (0, 0), BuildingBlock: KIFKEQ_clean_linker_1, # of connection points: 2
#     Edge 38, Type (0, 0), BuildingBlock: KIFKEQ_clean_linker_1, # of connection points: 2
#     Edge 39, Type (0, 0), BuildingBlock: KIFKEQ_clean_linker_1, # of connection points: 2
#     Edge 40, Type (0, 0), BuildingBlock: KIFKEQ_clean_linker_1, # of connection points: 2
#     Edge 41, Type (0, 0), BuildingBlock: KIFKEQ_clean_linker_1, # of connection points: 2
#     Edge 42, Type (0, 0), BuildingBlock: KIFKEQ_clean_linker_1, # of connection points: 2
#     Edge 43, Type (0, 0), BuildingBlock: KIFKEQ_clean_linker_1, # of connection points: 2
#     Edge 44, Type (0, 0), BuildingBlock: KIFKEQ_clean_linker_1, # of connection points: 2
#     Edge 45, Type (0, 0), BuildingBlock: KIFKEQ_clean_linker_1, # of connection points: 2
#     Edge 46, Type (0, 0), BuildingBlock: KIFKEQ_clean_linker_1, # of connection points: 2
#     Edge 47, Type (0, 0), BuildingBlock: KIFKEQ_clean_linker_1, # of connection points: 2
#     Edge 48, Type (0, 0), BuildingBlock: KIFKEQ_clean_linker_1, # of connection points: 2
#     Edge 49, Type (0, 0), BuildingBlock: KIFKEQ_clean_linker_1, # of connection points: 2
#     Edge 50, Type (0, 0), BuildingBlock: KIFKEQ_clean_linker_1, # of connection points: 2
#     Edge 51, Type (0, 0), BuildingBlock: KIFKEQ_clean_linker_1, # of connection points: 2
#     Edge 52, Type (0, 0), BuildingBlock: KIFKEQ_clean_linker_1, # of connection points: 2
#     Edge 53, Type (0, 0), BuildingBlock: KIFKEQ_clean_linker_1, # of connection points: 2
#     Edge 54, Type (0, 0), BuildingBlock: KIFKEQ_clean_linker_1, # of connection points: 2
#     Edge 55, Type (0, 0), BuildingBlock: KIFKEQ_clean_linker_1, # of connection points: 2
#     Edge 56, Type (0, 0), BuildingBlock: KIFKEQ_clean_linker_1, # of connection points: 2
#     Edge 57, Type (0, 0), BuildingBlock: KIFKEQ_clean_linker_1, # of connection points: 2
#     Edge 58, Type (0, 0), BuildingBlock: KIFKEQ_clean_linker_1, # of connection points: 2
#     Edge 59, Type (0, 0), BuildingBlock: KIFKEQ_clean_linker_1, # of connection points: 2
#     Edge 60, Type (0, 0), BuildingBlock: KIFKEQ_clean_linker_1, # of connection points: 2
#     Edge 61, Type (0, 0), BuildingBlock: KIFKEQ_clean_linker_1, # of connection points: 2
#     Edge 62, Type (0, 0), BuildingBlock: KIFKEQ_clean_linker_1, # of connection points: 2
# Relax obj value: 0.387
# Max RMSD: 0.217
# Mean RMSD: 0.217
data_MOF--net-wlb--node1-BEQFEK_clean_sbu_0--edge1-KIFKEQ_clean_linker_1
_symmetry_space_group_name_H-M    P1
_symmetry_Int_Tables_number       1
_symmetry_cell_setting            triclinic
loop_
_symmetry_equiv_pos_as_xyz
'x, y, z'
_cell_length_a     54.129979
_cell_length_b     54.087433
_cell_length_c     36.798284
_cell_angle_alpha  90.000755
_cell_angle_beta   90.077234
_cell_angle_gamma 119.79892
loop_
_atom_site_label
_atom_site_type_symbol
_atom_site_fract_x
_atom_site_fract_y
_atom_site_fract_z
_atom_type_partial_charge
Co0 Co 0.06177 0.16405 0.22961 0.0
Co1 Co 0.03346 0.20153 0.23529 0.0
C2 C 0.04001 0.17786 0.16282 0.0
O3 O 0.05395 0.16645 0.17575 0.0
O4 O 0.03237 0.19171 0.18345 0.0
C5 C 0.10156 0.14211 0.22031 0.0
O6 O 0.11166 0.15851 0.19154 0.0
C7 C 0.03591 0.25355 0.21535 0.0
C8 C 0.00961 0.25909 0.25686 0.0
C9 C 0.02726 0.27215 0.22736 0.0
N10 N 0.02452 0.23076 0.23722 0.0
N11 N 0.00864 0.23397 0.26191 0.0
C12 C 0.05674 0.25838 0.18571 0.0
H13 H 0.06959 0.24825 0.19283 0.0
H14 H 0.07099 0.2815 0.18083 0.0
H15 H 0.04491 0.24847 0.16029 0.0
C16 C 0.10652 0.21292 0.27502 0.0
N17 N 0.0822 0.19997 0.25506 0.0
N18 N 0.06918 0.21488 0.25812 0.0
C19 C 0.08447 0.23746 0.28007 0.0
C20 C 0.10868 0.23717 0.29149 0.0
C21 C 0.12615 0.20126 0.28031 0.0
H22 H 0.13437 0.19927 0.25351 0.0
H23 H 0.14428 0.21519 0.29831 0.0
H24 H 0.11418 0.17963 0.29231 0.0
O25 O 0.0229 0.13982 0.25078 0.0
O26 O 0.00306 0.16692 0.25783 0.0
H27 H 0.08986 0.27351 0.31243 0.0
H28 H 0.07621 0.27125 0.2676 0.0
C29 C 0.07559 0.2585 0.29144 0.0
H30 H 0.05364 0.24699 0.30234 0.0
H31 H -0.00227 0.21937 0.28259 0.0
O32 O 0.08136 0.14183 0.23818 0.0
C33 C 0.00188 0.14289 0.26015 0.0
Co34 Co 0.81386 0.8921 0.2276 0.0
Co35 Co 0.79561 0.83123 0.2555 0.0
C36 C 0.80246 0.84676 0.17409 0.0
O37 O 0.8081 0.87239 0.17959 0.0
O38 O 0.79694 0.82956 0.20066 0.0
C39 C 0.82718 0.95513 0.21596 0.0
O40 O 0.80267 0.95135 0.20406 0.0
C41 C 0.75051 0.77415 0.26855 0.0
C42 C 0.76709 0.76079 0.31505 0.0
C43 C 0.74275 0.75317 0.29477 0.0
N44 N 0.77767 0.79399 0.27444 0.0
N45 N 0.78774 0.78571 0.30171 0.0
C46 C 0.73271 0.776 0.2386 0.0
H47 H 0.7212 0.78679 0.24869 0.0
H48 H 0.71696 0.75444 0.22867 0.0
H49 H 0.74639 0.78875 0.21571 0.0
C50 C 0.76321 0.88205 0.27413 0.0
N51 N 0.78146 0.8744 0.25963 0.0
N52 N 0.7762 0.85004 0.27417 0.0
C53 C 0.75587 0.84251 0.29988 0.0
C54 C 0.74647 0.8621 0.30023 0.0
C55 C 0.76231 0.90831 0.26405 0.0
H56 H 0.78302 0.92727 0.27097 0.0
H57 H 0.75896 0.90828 0.23431 0.0
H58 H 0.74503 0.9096 0.27858 0.0
O59 O 0.84767 0.89185 0.24893 0.0
O60 O 0.83487 0.84951 0.27204 0.0
H61 H 0.7637 0.81332 0.3306 0.0
H62 H 0.73893 0.82162 0.35144 0.0
C63 C 0.74613 0.81763 0.32507 0.0
H64 H 0.72776 0.79869 0.3129 0.0
H65 H 0.80815 0.79782 0.31256 0.0
O66 O 0.83025 0.93394 0.2238 0.0
C67 C 0.85387 0.87492 0.26527 0.0
Co68 Co 0.10579 0.92536 0.21815 0.0
Co69 Co 0.17117 0.95529 0.22371 0.0
C70 C 0.13985 0.9483 0.15154 0.0
O71 O 0.11489 0.93312 0.16456 0.0
O72 O 0.16153 0.95697 0.17201 0.0
C73 C 0.05296 0.92056 0.21408 0.0
O74 O 0.06841 0.94348 0.19448 0.0
C75 C 0.21717 0.94928 0.19888 0.0
C76 C 0.25447 0.98093 0.22984 0.0
C77 C 0.24607 0.96013 0.20306 0.0
N78 N 0.20887 0.96295 0.22184 0.0
N79 N 0.2311 0.98171 0.24066 0.0
C80 C 0.19715 0.92529 0.17476 0.0
H81 H 0.17594 0.91314 0.18771 0.0
H82 H 0.20558 0.91075 0.16873 0.0
H83 H 0.19433 0.93408 0.14886 0.0
C84 C 0.11109 0.88099 0.26253 0.0
N85 N 0.12175 0.90528 0.24273 0.0
N86 N 0.14954 0.91933 0.24652 0.0
C87 C 0.15747 0.90479 0.26896 0.0
C88 C 0.13351 0.87987 0.27975 0.0
C89 C 0.08002 0.86081 0.26762 0.0
H90 H 0.06871 0.85742 0.24132 0.0
H91 H 0.07625 0.84014 0.27875 0.0
H92 H 0.07132 0.87036 0.28684 0.0
O93 O 0.1203 0.96358 0.24062 0.0
O94 O 0.16717 0.98563 0.24822 0.0
H95 H 0.18839 0.90321 0.30521 0.0
H96 H 0.1997 0.91282 0.25908 0.0
C97 C 0.18742 0.91531 0.28145 0.0
H98 H 0.19756 0.9382 0.28865 0.0
H99 H 0.23039 0.99526 0.26035 0.0
O100 O 0.06445 0.90672 0.22633 0.0
C101 C 0.14346 0.98513 0.25107 0.0
Co102 Co 0.16836 0.07054 0.84139 0.0
Co103 Co 0.1949 0.03268 0.82613 0.0
C104 C 0.18069 0.04421 0.90336 0.0
O105 O 0.17286 0.06202 0.89377 0.0
O106 O 0.18923 0.03295 0.87971 0.0
C107 C 0.14642 0.11044 0.85583 0.0
O108 O 0.15676 0.11497 0.88901 0.0
C109 C 0.2452 0.03034 0.83731 0.0
C110 C 0.24405 0.00048 0.79545 0.0
C111 C 0.261 0.01942 0.8222 0.0
N112 N 0.22022 0.01895 0.81991 0.0
N113 N 0.21933 0.00084 0.79513 0.0
C114 C 0.2548 0.05378 0.86481 0.0
H115 H 0.24424 0.06657 0.86002 0.0
H116 H 0.27826 0.06788 0.86393 0.0
H117 H 0.24877 0.04429 0.89234 0.0
C118 C 0.21839 0.11169 0.79551 0.0
N119 N 0.20243 0.08653 0.8128 0.0
N120 N 0.21178 0.06915 0.80385 0.0
C121 C 0.23334 0.08226 0.77986 0.0
C122 C 0.23852 0.10975 0.77388 0.0
C123 C 0.21328 0.13635 0.79798 0.0
H124 H 0.19387 0.1314 0.78219 0.0
H125 H 0.2094 0.13967 0.82671 0.0
H126 H 0.23156 0.15606 0.78697 0.0
O127 O 0.13876 0.03294 0.82157 0.0
O128 O 0.15736 0.00606 0.80606 0.0
H129 H 0.2335 0.04638 0.75536 0.0
H130 H 0.26047 0.08015 0.7379 0.0
C131 C 0.2488 0.06874 0.76267 0.0
H132 H 0.26465 0.06926 0.78215 0.0
H133 H 0.20245 0.98973 0.7771 0.0
O134 O 0.15014 0.094 0.8348 0.0
C135 C 0.13602 0.00978 0.80883 0.0
Co136 Co 0.92002 0.09696 0.84819 0.0
Co137 Co 0.94833 0.16258 0.84392 0.0
C138 C 0.94113 0.13146 0.91575 0.0
O139 O 0.9276 0.10646 0.90199 0.0
O140 O 0.94873 0.15331 0.89586 0.0
C141 C 0.88226 0.03502 0.85725 0.0
O142 O 0.87135 0.04057 0.88588 0.0
C143 C 0.94129 0.21055 0.85832 0.0
C144 C 0.97351 0.24392 0.82284 0.0
C145 C 0.95088 0.23797 0.84584 0.0
N146 N 0.95698 0.20064 0.84259 0.0
N147 N 0.9765 0.22071 0.82183 0.0
C148 C 0.91573 0.19258 0.88133 0.0
H149 H 0.9079 0.16962 0.87663 0.0
H150 H 0.89846 0.19744 0.87553 0.0
H151 H 0.92178 0.19712 0.9104 0.0
C152 C 0.87516 0.10164 0.8034 0.0
N153 N 0.8996 0.11267 0.82308 0.0
N154 N 0.9131 0.14052 0.81954 0.0
C155 C 0.8982 0.14801 0.79704 0.0
C156 C 0.87345 0.12387 0.78654 0.0
C157 C 0.85478 0.0705 0.79926 0.0
H158 H 0.86577 0.06024 0.78591 0.0
H159 H 0.84784 0.06074 0.82653 0.0
H160 H 0.83593 0.06658 0.78286 0.0
O161 O 0.95883 0.11186 0.82695 0.0
O162 O 0.9791 0.15882 0.82151 0.0
H163 H 0.93178 0.18874 0.77902 0.0
H164 H 0.89834 0.17697 0.75629 0.0
C165 C 0.90842 0.17747 0.78276 0.0
H166 H 0.90259 0.18939 0.80214 0.0
H167 H 0.99095 0.21811 0.80583 0.0
O168 O 0.90162 0.05544 0.83917 0.0
C169 C 0.98 0.13588 0.81814 0.0
Co170 Co 0.88537 0.81021 0.86301 0.0
Co171 Co 0.82019 0.77843 0.85219 0.0
C172 C 0.84757 0.79421 0.92754 0.0
O173 O 0.873 0.80511 0.91551 0.0
O174 O 0.82644 0.78297 0.90584 0.0
C175 C 0.93995 0.85595 0.87009 0.0
O176 O 0.92513 0.86494 0.8885 0.0
C177 C 0.77 0.72421 0.85703 0.0
C178 C 0.73955 0.72884 0.82165 0.0
C179 C 0.74318 0.70897 0.84146 0.0
N180 N 0.78171 0.75134 0.84593 0.0
N181 N 0.76338 0.75421 0.82525 0.0
C182 C 0.78596 0.71319 0.87864 0.0
H183 H 0.80915 0.72845 0.87811 0.0
H184 H 0.78178 0.69226 0.86796 0.0
H185 H 0.779 0.71063 0.9074 0.0
C186 C 0.87957 0.76199 0.81533 0.0
N187 N 0.86897 0.77604 0.83444 0.0
N188 N 0.84179 0.76483 0.82683 0.0
C189 C 0.83453 0.74429 0.80144 0.0
C190 C 0.85799 0.74136 0.79367 0.0
C191 C 0.91013 0.76956 0.81589 0.0
H192 H 0.91849 0.77465 0.84409 0.0
H193 H 0.91285 0.75198 0.80477 0.0
H194 H 0.92262 0.78889 0.79907 0.0
O195 O 0.87455 0.83789 0.84279 0.0
O196 O 0.82789 0.81566 0.83366 0.0
H197 H 0.80736 0.72157 0.75573 0.0
H198 H 0.79223 0.70865 0.79941 0.0
C199 C 0.80586 0.72826 0.78368 0.0
H200 H 0.79575 0.74168 0.78224 0.0
H201 H 0.76765 0.77311 0.8123 0.0
O202 O 0.92731 0.83058 0.85806 0.0
C203 C 0.85212 0.8382 0.83289 0.0
Co204 Co 0.74277 0.50256 0.56448 0.0
Co205 Co 0.69828 0.51803 0.59209 0.0
C206 C 0.70769 0.51126 0.51068 0.0
O207 O 0.72984 0.50892 0.51578 0.0
O208 O 0.6946 0.5145 0.53751 0.0
C209 C 0.76871 0.47101 0.54113 0.0
O210 O 0.74807 0.4615 0.51701 0.0
C211 C 0.67812 0.55814 0.60012 0.0
C212 C 0.65075 0.54183 0.64886 0.0
C213 C 0.66258 0.56437 0.62462 0.0
N214 N 0.67659 0.53368 0.61038 0.0
N215 N 0.65996 0.52379 0.63923 0.0
C216 C 0.69395 0.57475 0.56718 0.0
H217 H 0.69647 0.56085 0.54728 0.0
H218 H 0.71552 0.59178 0.57522 0.0
H219 H 0.68261 0.58475 0.55408 0.0
C220 C 0.78109 0.55324 0.61139 0.0
N221 N 0.75553 0.53462 0.59667 0.0
N222 N 0.73619 0.54016 0.60956 0.0
C223 C 0.74855 0.56175 0.63378 0.0
C224 C 0.77748 0.57101 0.63564 0.0
C225 C 0.80809 0.55312 0.60347 0.0
H226 H 0.80998 0.55094 0.57376 0.0
H227 H 0.82693 0.57278 0.61364 0.0
H228 H 0.80733 0.53436 0.61684 0.0
O229 O 0.70877 0.46686 0.58292 0.0
O230 O 0.68021 0.4793 0.61004 0.0
H231 H 0.71289 0.55583 0.66569 0.0
H232 H 0.74578 0.58701 0.67796 0.0
C233 C 0.73305 0.5735 0.65493 0.0
H234 H 0.72826 0.58694 0.63688 0.0
H235 H 0.65563 0.5052 0.65302 0.0
O236 O 0.77232 0.49119 0.56208 0.0
C237 C 0.68603 0.46027 0.60043 0.0
Co238 Co 0.47548 0.21984 0.54471 0.0
Co239 Co 0.45143 0.15729 0.56678 0.0
C240 C 0.46084 0.17791 0.48685 0.0
O241 O 0.46752 0.20357 0.49418 0.0
O242 O 0.45492 0.15985 0.51233 0.0
C243 C 0.51914 0.2734 0.52968 0.0
O244 O 0.52516 0.25771 0.5082 0.0
C245 C 0.40017 0.1052 0.5623 0.0
C246 C 0.40307 0.0785 0.60569 0.0
C247 C 0.38472 0.07969 0.58031 0.0
N248 N 0.42628 0.11887 0.57677 0.0
N249 N 0.42822 0.1028 0.6024 0.0
C250 C 0.38943 0.11822 0.53499 0.0
H251 H 0.40148 0.14177 0.53686 0.0
H252 H 0.36641 0.1105 0.539 0.0
H253 H 0.39258 0.11219 0.50728 0.0
C254 C 0.42703 0.21355 0.59218 0.0
N255 N 0.44313 0.20393 0.57603 0.0
N256 N 0.4352 0.17824 0.58816 0.0
C257 C 0.41468 0.17113 0.61344 0.0
C258 C 0.40846 0.19302 0.61664 0.0
C259 C 0.43043 0.24233 0.58569 0.0
H260 H 0.44698 0.25783 0.60441 0.0
H261 H 0.43757 0.24926 0.55738 0.0
H262 H 0.41021 0.24223 0.59107 0.0
O263 O 0.50597 0.21308 0.56486 0.0
O264 O 0.48964 0.16925 0.58551 0.0
H265 H 0.41679 0.13692 0.64001 0.0
H266 H 0.39209 0.14575 0.66046 0.0
C267 C 0.401 0.14374 0.6343 0.0
H268 H 0.38315 0.12717 0.61815 0.0
H269 H 0.44612 0.10901 0.61877 0.0
O270 O 0.49519 0.26177 0.54571 0.0
C271 C 0.51018 0.19427 0.5799 0.0
Co272 Co 0.76775 0.2529 0.55164 0.0
Co273 Co 0.8334 0.28183 0.55561 0.0
C274 C 0.80211 0.27469 0.48404 0.0
O275 O 0.77725 0.26074 0.4979 0.0
O276 O 0.82405 0.28272 0.50381 0.0
C277 C 0.71394 0.24655 0.5459 0.0
O278 O 0.72946 0.2702 0.52764 0.0
C279 C 0.88181 0.27892 0.53237 0.0
C280 C 0.91703 0.31075 0.56607 0.0
C281 C 0.91069 0.29107 0.53831 0.0
N282 N 0.87154 0.29081 0.55534 0.0
N283 N 0.89254 0.30967 0.57576 0.0
C284 C 0.86366 0.25529 0.50666 0.0
H285 H 0.84207 0.24191 0.51823 0.0
H286 H 0.87346 0.24192 0.5008 0.0
H287 H 0.86131 0.26445 0.48082 0.0
C288 C 0.77325 0.20868 0.59659 0.0
N289 N 0.7839 0.2328 0.5764 0.0
N290 N 0.8118 0.24613 0.57876 0.0
C291 C 0.81979 0.23125 0.6005 0.0
C292 C 0.79577 0.20687 0.6124 0.0
C293 C 0.74221 0.18913 0.60295 0.0
H294 H 0.73398 0.19993 0.62083 0.0
H295 H 0.73055 0.18446 0.57675 0.0
H296 H 0.73831 0.169 0.61602 0.0
O297 O 0.78207 0.29152 0.57333 0.0
O298 O 0.82909 0.31238 0.57861 0.0
H299 H 0.86041 0.26367 0.62009 0.0
H300 H 0.85109 0.22813 0.6343 0.0
C301 C 0.84989 0.24101 0.61165 0.0
H302 H 0.86162 0.23903 0.58822 0.0
H303 H 0.89022 0.32207 0.59574 0.0
O304 O 0.72592 0.2333 0.55865 0.0
C305 C 0.80596 0.31293 0.58207 0.0
Co306 Co 0.83322 0.40205 0.17761 0.0
Co307 Co 0.8566 0.36176 0.15941 0.0
C308 C 0.84468 0.37348 0.23778 0.0
O309 O 0.83797 0.39235 0.22931 0.0
O310 O 0.85201 0.36172 0.21329 0.0
C311 C 0.81541 0.44503 0.19466 0.0
O312 O 0.826 0.44836 0.2276 0.0
C313 C 0.90487 0.35505 0.16651 0.0
C314 C 0.89991 0.32475 0.12294 0.0
C315 C 0.91858 0.34265 0.14927 0.0
N316 N 0.87945 0.34543 0.15074 0.0
N317 N 0.87624 0.32699 0.12505 0.0
C318 C 0.91697 0.37853 0.19414 0.0
H319 H 0.90691 0.392 0.19173 0.0
H320 H 0.94037 0.39197 0.19091 0.0
H321 H 0.91245 0.36905 0.22175 0.0
C322 C 0.88412 0.44218 0.13207 0.0
N323 N 0.86695 0.41679 0.14826 0.0
N324 N 0.87493 0.39857 0.13808 0.0
C325 C 0.89666 0.41135 0.11424 0.0
C326 C 0.90351 0.43951 0.1098 0.0
C327 C 0.88107 0.46799 0.13657 0.0
H328 H 0.87793 0.47091 0.16572 0.0
H329 H 0.89997 0.48733 0.1259 0.0
H330 H 0.86186 0.46472 0.12159 0.0
O331 O 0.80165 0.36512 0.15827 0.0
O332 O 0.81843 0.33724 0.14013 0.0
H333 H 0.89478 0.37488 0.0885 0.0
H334 H 0.92219 0.40832 0.07086 0.0
C335 C 0.91083 0.39699 0.09584 0.0
H336 H 0.92677 0.39674 0.1145 0.0
H337 H 0.8586 0.31709 0.10786 0.0
O338 O 0.81729 0.42787 0.17283 0.0
C339 C 0.79773 0.34173 0.1447 0.0
Co340 Co 0.59803 0.44457 0.19084 0.0
Co341 Co 0.62594 0.51001 0.18772 0.0
C342 C 0.61851 0.47708 0.25876 0.0
O343 O 0.60347 0.45222 0.24513 0.0
O344 O 0.62733 0.49904 0.23878 0.0
C345 C 0.56146 0.38158 0.19237 0.0
O346 O 0.54541 0.3839 0.21734 0.0
C347 C 0.61952 0.55569 0.21422 0.0
C348 C 0.64929 0.59272 0.18136 0.0
C349 C 0.6294 0.58439 0.20919 0.0
N350 N 0.6328 0.54745 0.19058 0.0
N351 N 0.65048 0.56953 0.17072 0.0
C352 C 0.59667 0.53573 0.23958 0.0
H353 H 0.5845 0.51427 0.22709 0.0
H354 H 0.58199 0.54379 0.24655 0.0
H355 H 0.60661 0.53359 0.26489 0.0
C356 C 0.55326 0.44919 0.14574 0.0
N357 N 0.57738 0.46 0.166 0.0
N358 N 0.5905 0.48792 0.16381 0.0
C359 C 0.5755 0.49577 0.14207 0.0
C360 C 0.55126 0.47163 0.13004 0.0
C361 C 0.53374 0.4181 0.1394 0.0
H362 H 0.52489 0.40749 0.16579 0.0
H363 H 0.51604 0.41434 0.12078 0.0
H364 H 0.54598 0.40856 0.12771 0.0
O365 O 0.63736 0.46142 0.17085 0.0
O366 O 0.6574 0.50819 0.1636 0.0
H367 H 0.60764 0.53682 0.12348 0.0
H368 H 0.57213 0.52706 0.10857 0.0
C369 C 0.58489 0.52589 0.13142 0.0
H370 H 0.58239 0.53724 0.15494 0.0
H371 H 0.66343 0.56879 0.15024 0.0
O372 O 0.58245 0.40382 0.17939 0.0
C373 C 0.65836 0.48521 0.16111 0.0
Co374 Co 0.54757 0.14585 0.18132 0.0
Co375 Co 0.48742 0.12695 0.15161 0.0
C376 C 0.50183 0.13259 0.2337 0.0
O377 O 0.52728 0.13762 0.22882 0.0
O378 O 0.48529 0.12833 0.20665 0.0
C379 C 0.60203 0.18404 0.20317 0.0
O380 O 0.58708 0.19277 0.22176 0.0
C381 C 0.43121 0.08094 0.13748 0.0
C382 C 0.41782 0.09655 0.08998 0.0
C383 C 0.41063 0.07245 0.11056 0.0
N384 N 0.45048 0.1083 0.13177 0.0
N385 N 0.4422 0.11779 0.10384 0.0
C386 C 0.4332 0.06363 0.16796 0.0
H387 H 0.44531 0.07761 0.19101 0.0
H388 H 0.44469 0.05261 0.15863 0.0
H389 H 0.41168 0.04746 0.17743 0.0
C390 C 0.53985 0.09628 0.13562 0.0
N391 N 0.53121 0.11407 0.14889 0.0
N392 N 0.50698 0.1081 0.13347 0.0
C393 C 0.50039 0.08756 0.10819 0.0
C394 C 0.52059 0.07887 0.10916 0.0
C395 C 0.56654 0.09675 0.14723 0.0
H396 H 0.56914 0.09965 0.17712 0.0
H397 H 0.5664 0.07694 0.13901 0.0
H398 H 0.585 0.11522 0.13431 0.0
O399 O 0.54681 0.18018 0.16165 0.0
O400 O 0.50518 0.16626 0.13554 0.0
H401 H 0.48019 0.06965 0.05652 0.0
H402 H 0.45703 0.05798 0.09476 0.0
C403 C 0.47561 0.07669 0.08261 0.0
H404 H 0.47042 0.0936 0.07659 0.0
H405 H 0.45401 0.13821 0.09294 0.0
O406 O 0.58887 0.16054 0.18614 0.0
C407 C 0.52981 0.1859 0.14449 0.0
Co408 Co 0.39124 0.83148 0.89709 0.0
Co409 Co 0.35766 0.86332 0.90611 0.0
C410 C 0.36974 0.84579 0.83161 0.0
O411 O 0.38525 0.8359 0.84371 0.0
O412 O 0.35922 0.85647 0.85326 0.0
C413 C 0.43243 0.81056 0.88938 0.0
O414 O 0.44322 0.8264 0.86028 0.0
C415 C 0.35969 0.91543 0.89057 0.0
C416 C 0.33012 0.91763 0.93007 0.0
C417 C 0.35007 0.93298 0.90351 0.0
N418 N 0.34664 0.89097 0.90916 0.0
N419 N 0.32872 0.8921 0.93253 0.0
C420 C 0.38327 0.92287 0.86397 0.0
H421 H 0.39498 0.91149 0.87076 0.0
H422 H 0.39826 0.94619 0.86365 0.0
H423 H 0.37405 0.91616 0.83638 0.0
C424 C 0.43356 0.88105 0.94341 0.0
N425 N 0.4088 0.86626 0.92474 0.0
N426 N 0.39304 0.87804 0.93074 0.0
C427 C 0.40674 0.90004 0.95406 0.0
C428 C 0.43298 0.90296 0.96274 0.0
C429 C 0.45658 0.87346 0.94413 0.0
H430 H 0.46269 0.87172 0.91588 0.0
H431 H 0.47553 0.88953 0.95931 0.0
H432 H 0.44836 0.85232 0.9572 0.0
O433 O 0.35216 0.80422 0.9155 0.0
O434 O 0.32821 0.82689 0.92604 0.0
H435 H 0.37223 0.90449 0.97499 0.0
H436 H 0.40644 0.93052 0.9924 0.0
C437 C 0.39498 0.91812 0.96802 0.0
H438 H 0.39719 0.93357 0.94677 0.0
H439 H 0.31643 0.87599 0.95099 0.0
O440 O 0.41205 0.81077 0.90608 0.0
C441 C 0.32957 0.80408 0.92566 0.0
Co442 Co 0.14351 0.54712 0.88501 0.0
Co443 Co 0.11176 0.48199 0.89691 0.0
C444 C 0.12769 0.5095 0.82099 0.0
O445 O 0.1377 0.53519 0.83195 0.0
O446 O 0.11742 0.489 0.84365 0.0
C447 C 0.1664 0.61012 0.87662 0.0
O448 O 0.15097 0.60616 0.84732 0.0
C449 C 0.05673 0.43273 0.89205 0.0
C450 C 0.06072 0.40139 0.92638 0.0
C451 C 0.04103 0.40593 0.90756 0.0
N452 N 0.08396 0.44359 0.90234 0.0
N453 N 0.08643 0.42469 0.92233 0.0
C454 C 0.0462 0.44951 0.87131 0.0
H455 H 0.06243 0.47244 0.87079 0.0
H456 H 0.02623 0.44675 0.88345 0.0
H457 H 0.04201 0.44195 0.84275 0.0
C458 C 0.09505 0.54149 0.93225 0.0
N459 N 0.10944 0.53092 0.91381 0.0
N460 N 0.09866 0.50393 0.92227 0.0
C461 C 0.07822 0.49684 0.94765 0.0
C462 C 0.07473 0.52013 0.95441 0.0
C463 C 0.10175 0.57178 0.93025 0.0
H464 H 0.10398 0.57851 0.90139 0.0
H465 H 0.085 0.5747 0.94363 0.0
H466 H 0.12244 0.58553 0.94393 0.0
O467 O 0.17091 0.5353 0.90433 0.0
O468 O 0.1484 0.48884 0.91559 0.0
H469 H 0.07584 0.45807 0.96659 0.0
H470 H 0.05738 0.47069 0.99462 0.0
C471 C 0.06268 0.46848 0.9662 0.0
H472 H 0.04233 0.4548 0.95184 0.0
H473 H 0.10532 0.42829 0.9347 0.0
O474 O 0.165 0.58883 0.89309 0.0
C475 C 0.17105 0.51294 0.91511 0.0
Co476 Co 0.43158 0.58782 0.89493 0.0
Co477 Co 0.49682 0.62097 0.90475 0.0
C478 C 0.46782 0.6122 0.83053 0.0
O479 O 0.44269 0.59505 0.84183 0.0
O480 O 0.48873 0.62235 0.85249 0.0
C481 C 0.36922 0.54496 0.89055 0.0
O482 O 0.3744 0.52643 0.87423 0.0
C483 C 0.54575 0.61583 0.89154 0.0
C484 C 0.5787 0.64908 0.92653 0.0
C485 C 0.57328 0.62626 0.90406 0.0
N486 N 0.53528 0.63122 0.90674 0.0
N487 N 0.55509 0.65138 0.92719 0.0
C488 C 0.52818 0.58976 0.86901 0.0
H489 H 0.50515 0.58199 0.87264 0.0
H490 H 0.5329 0.57261 0.87624 0.0
H491 H 0.53321 0.59517 0.83988 0.0
C492 C 0.43864 0.54475 0.94196 0.0
N493 N 0.4482 0.56926 0.92265 0.0
N494 N 0.47576 0.58505 0.92826 0.0
C495 C 0.48434 0.57165 0.95175 0.0
C496 C 0.46143 0.54549 0.96065 0.0
C497 C 0.40823 0.52177 0.94426 0.0
H498 H 0.39454 0.53133 0.94914 0.0
H499 H 0.40188 0.51009 0.91808 0.0
H500 H 0.40503 0.50648 0.96635 0.0
O501 O 0.44412 0.62663 0.91558 0.0
O502 O 0.49043 0.64983 0.92757 0.0
H503 H 0.51291 0.57505 0.99511 0.0
H504 H 0.52717 0.57959 0.95028 0.0
C505 C 0.51352 0.58433 0.96802 0.0
H506 H 0.52297 0.60766 0.97113 0.0
H507 H 0.55206 0.66576 0.94279 0.0
O508 O 0.38963 0.56909 0.90009 0.0
C509 C 0.46638 0.64865 0.92735 0.0
Co510 Co 0.50196 0.7336 0.51902 0.0
Co511 Co 0.52726 0.69462 0.50456 0.0
C512 C 0.50967 0.70442 0.58057 0.0
O513 O 0.5055 0.72488 0.57165 0.0
O514 O 0.51721 0.69245 0.55679 0.0
C515 C 0.45934 0.74688 0.52672 0.0
O516 O 0.44906 0.72267 0.54445 0.0
C517 C 0.57243 0.68627 0.52664 0.0
C518 C 0.57066 0.65321 0.48981 0.0
C519 C 0.58498 0.67002 0.51962 0.0
N520 N 0.55154 0.67938 0.50246 0.0
N521 N 0.5506 0.6598 0.48015 0.0
C522 C 0.58065 0.7089 0.55502 0.0
H523 H 0.57622 0.72572 0.5452 0.0
H524 H 0.60353 0.7185 0.56216 0.0
H525 H 0.56779 0.69937 0.57985 0.0
C526 C 0.55318 0.77408 0.47407 0.0
N527 N 0.53666 0.74921 0.49168 0.0
N528 N 0.54638 0.73178 0.48484 0.0
C529 C 0.56905 0.74465 0.46256 0.0
C530 C 0.57426 0.77195 0.45478 0.0
C531 C 0.5474 0.79837 0.4735 0.0
H532 H 0.54273 0.80257 0.50146 0.0
H533 H 0.56564 0.81788 0.46206 0.0
H534 H 0.52822 0.79237 0.45663 0.0
O535 O 0.4723 0.69592 0.49844 0.0
O536 O 0.4911 0.66976 0.48042 0.0
H537 H 0.60162 0.74396 0.42855 0.0
H538 H 0.59682 0.72792 0.47243 0.0
C539 C 0.58552 0.73092 0.44921 0.0
H540 H 0.57064 0.70967 0.43764 0.0
H541 H 0.53593 0.65054 0.45903 0.0
O542 O 0.48454 0.75813 0.5144 0.0
C543 C 0.46965 0.67319 0.48425 0.0
Co544 Co 0.25211 0.7662 0.51715 0.0
Co545 Co 0.28524 0.83121 0.5061 0.0
C546 C 0.27788 0.80324 0.58091 0.0
O547 O 0.26121 0.77792 0.56975 0.0
O548 O 0.2875 0.82406 0.55881 0.0
C549 C 0.24552 0.71314 0.52643 0.0
O550 O 0.26801 0.72905 0.54656 0.0
C551 C 0.28167 0.87996 0.52375 0.0
C552 C 0.30817 0.91201 0.4827 0.0
C553 C 0.28927 0.90669 0.511 0.0
N554 N 0.29481 0.86945 0.50345 0.0
N555 N 0.31092 0.88869 0.4791 0.0
C556 C 0.25998 0.86339 0.55229 0.0
H557 H 0.24851 0.84036 0.54552 0.0
H558 H 0.24448 0.87105 0.55522 0.0
H559 H 0.27098 0.86615 0.57869 0.0
C560 C 0.20784 0.77209 0.47339 0.0
N561 N 0.23296 0.78246 0.49132 0.0
N562 N 0.24832 0.8099 0.48484 0.0
C563 C 0.23378 0.81776 0.46224 0.0
C564 C 0.20756 0.7943 0.45451 0.0
C565 C 0.18558 0.74132 0.47233 0.0
H566 H 0.1837 0.73156 0.49945 0.0
H567 H 0.16473 0.73864 0.4637 0.0
H568 H 0.19214 0.73014 0.45263 0.0
O569 O 0.28941 0.77784 0.49386 0.0
O570 O 0.31369 0.82414 0.48215 0.0
H571 H 0.2678 0.85512 0.4378 0.0
H572 H 0.23302 0.8465 0.42167 0.0
C573 C 0.24536 0.84679 0.44591 0.0
H574 H 0.24412 0.86127 0.46618 0.0
H575 H 0.32278 0.88548 0.45925 0.0
O576 O 0.23222 0.72447 0.51198 0.0
C577 C 0.31144 0.79958 0.4814 0.0
Co578 Co 0.22147 0.47496 0.51928 0.0
Co579 Co 0.16202 0.45789 0.48824 0.0
C580 C 0.176 0.46602 0.5704 0.0
O581 O 0.20092 0.46929 0.5665 0.0
O582 O 0.1599 0.4617 0.54286 0.0
C583 C 0.27565 0.51258 0.54159 0.0
O584 O 0.26044 0.52133 0.55957 0.0
C585 C 0.10449 0.41375 0.47551 0.0
C586 C 0.09243 0.42926 0.42669 0.0
C587 C 0.08375 0.40568 0.4489 0.0
N588 N 0.12515 0.44029 0.46822 0.0
N589 N 0.11771 0.44975 0.43946 0.0
C590 C 0.10522 0.39679 0.50729 0.0
H591 H 0.1183 0.41117 0.52954 0.0
H592 H 0.11507 0.38393 0.49904 0.0
H593 H 0.0834 0.38225 0.51744 0.0
C594 C 0.21212 0.42398 0.47528 0.0
N595 N 0.20409 0.44237 0.48814 0.0
N596 N 0.17996 0.43677 0.47267 0.0
C597 C 0.17269 0.41566 0.44807 0.0
C598 C 0.19247 0.40643 0.44927 0.0
C599 C 0.23885 0.42431 0.48633 0.0
H600 H 0.24266 0.42887 0.51585 0.0
H601 H 0.23777 0.40376 0.47979 0.0
H602 H 0.25704 0.44164 0.47146 0.0
O603 O 0.22252 0.5092 0.4968 0.0
O604 O 0.18157 0.49651 0.46955 0.0
H605 H 0.14411 0.42256 0.41468 0.0
H606 H 0.15132 0.39581 0.39755 0.0
C607 C 0.14784 0.40497 0.42261 0.0
H608 H 0.12866 0.38782 0.43599 0.0
H609 H 0.13053 0.46957 0.42743 0.0
O610 O 0.26267 0.4889 0.52491 0.0
C611 C 0.20658 0.51549 0.47817 0.0
H612 H 0.95971 0.35048 0.10059 0.0
H613 H 0.94151 0.34548 0.21531 0.0
H614 H 0.00465 0.35178 0.11395 0.0
H615 H 0.98509 0.3459 0.22885 0.0
H616 H 0.02032 0.2785 0.15597 0.0
H617 H 0.00897 0.31278 0.13092 0.0
H618 H 0.03292 0.35937 0.2325 0.0
H619 H 0.04244 0.32335 0.25832 0.0
C620 C 0.96564 0.35014 0.12864 0.0
C621 C 0.94719 0.34747 0.15697 0.0
C622 C 0.99137 0.3511 0.13635 0.0
C623 C -0.00156 0.34846 0.17243 0.0
C624 C 0.98091 0.3484 0.20072 0.0
C625 C 0.95554 0.34782 0.19302 0.0
C626 C 0.02432 0.29673 0.17244 0.0
C627 C 0.03119 0.29794 0.20932 0.0
C628 C 0.01802 0.3167 0.15797 0.0
C629 C 0.01859 0.33808 0.18037 0.0
C630 C 0.03098 0.34232 0.21513 0.0
C631 C 0.03643 0.3218 0.22996 0.0
H632 H 0.62842 0.63205 0.18922 0.0
H633 H 0.62349 0.58196 0.28325 0.0
H634 H 0.64171 0.67291 0.22822 0.0
H635 H 0.63574 0.62244 0.32223 0.0
H636 H 0.73204 0.70145 0.31822 0.0
H637 H 0.68729 0.65726 0.31366 0.0
H638 H 0.64489 0.70369 0.28157 0.0
H639 H 0.68985 0.7483 0.28772 0.0
C640 C 0.62864 0.62935 0.21838 0.0
C641 C 0.62564 0.6041 0.23302 0.0
C642 C 0.63587 0.65266 0.24089 0.0
C643 C 0.64066 0.651 0.27817 0.0
C644 C 0.63259 0.62431 0.29349 0.0
C645 C 0.62546 0.601 0.27097 0.0
C646 C 0.713 0.70232 0.31143 0.0
C647 C 0.71465 0.72793 0.30078 0.0
C648 C 0.68717 0.677 0.30928 0.0
C649 C 0.66271 0.67701 0.29622 0.0
C650 C 0.66358 0.70311 0.29093 0.0
C651 C 0.68944 0.72851 0.29352 0.0
H652 H 0.40763 0.02041 0.11823 0.0
H653 H 0.35846 0.05988 0.08659 0.0
H654 H 0.36386 0.97503 0.12646 0.0
H655 H 0.31505 0.01464 0.0932 0.0
H656 H 0.24163 0.95154 0.12937 0.0
H657 H 0.28073 0.96257 0.08875 0.0
H658 H 0.33489 0.97406 0.18094 0.0
H659 H 0.2953 0.96183 0.22174 0.0
C660 C 0.38749 0.01926 0.11246 0.0
C661 C 0.38603 0.04392 0.10452 0.0
C662 C 0.36256 0.99314 0.11628 0.0
C663 C 0.33607 0.99149 0.11157 0.0
C664 C 0.33513 0.01517 0.09732 0.0
C665 C 0.36 0.04129 0.09395 0.0
C666 C 0.26119 0.95443 0.14109 0.0
C667 C 0.26558 0.95634 0.1789 0.0
C668 C 0.28371 0.96085 0.11758 0.0
C669 C 0.31099 0.97006 0.13169 0.0
C670 C 0.31413 0.96724 0.16917 0.0
C671 C 0.29156 0.96066 0.19269 0.0
H672 H 0.30615 0.03028 0.77912 0.0
H673 H 0.27919 0.02136 0.89091 0.0
H674 H 0.34902 0.02942 0.798 0.0
H675 H 0.32032 0.01897 0.90977 0.0
H676 H 0.35129 0.94779 0.83335 0.0
H677 H 0.34804 0.98789 0.81145 0.0
H678 H 0.36359 0.02305 0.92034 0.0
H679 H 0.36474 0.98107 0.9425 0.0
C680 C 0.30977 0.02868 0.80777 0.0
C681 C 0.28925 0.02507 0.83356 0.0
C682 C 0.33428 0.02829 0.81868 0.0
C683 C 0.33767 0.02275 0.85523 0.0
C684 C 0.31878 0.02306 0.88132 0.0
C685 C 0.29476 0.02411 0.87051 0.0
C686 C 0.35496 0.96458 0.85237 0.0
C687 C 0.35707 0.96104 0.88967 0.0
C688 C 0.35343 0.98798 0.83978 0.0
C689 C 0.35393 0.00813 0.8645 0.0
C690 C 0.36153 0.00712 0.90088 0.0
C691 C 0.36215 0.98316 0.91366 0.0
H692 H 0.01007 0.36478 0.95655 0.0
H693 H 0.00093 0.40058 0.85579 0.0
H694 H 0.96548 0.3225 0.94553 0.0
H695 H 0.95466 0.35964 0.84683 0.0
H696 H 0.92613 0.24285 0.90924 0.0
H697 H 0.92413 0.28457 0.92811 0.0
H698 H 0.95297 0.32117 0.8213 0.0
H699 H 0.95219 0.27851 0.8018 0.0
C700 C -0.00193 0.36412 0.93262 0.0
C701 C 0.01007 0.38551 0.90612 0.0
C702 C 0.97187 0.33987 0.92651 0.0
C703 C 0.9572 0.33653 0.89356 0.0
C704 C 0.96628 0.36064 0.87128 0.0
C705 C 0.99302 0.38456 0.87672 0.0
C706 C 0.9305 0.25905 0.88916 0.0
C707 C 0.94068 0.258 0.85444 0.0
C708 C 0.92967 0.28333 0.90018 0.0
C709 C 0.94084 0.30743 0.87745 0.0
C710 C 0.9454 0.30383 0.84057 0.0
C711 C 0.94548 0.27935 0.82929 0.0
H712 H 0.61461 0.62997 0.9487 0.0
H713 H 0.57799 0.59934 0.84249 0.0
H714 H 0.65654 0.62877 0.9308 0.0
H715 H 0.61881 0.59521 0.82558 0.0
H716 H 0.73588 0.67026 0.89609 0.0
H717 H 0.69333 0.62565 0.90727 0.0
H718 H 0.65791 0.63485 0.80604 0.0
H719 H 0.70165 0.67758 0.79301 0.0
C720 C 0.61506 0.62189 0.92191 0.0
C721 C 0.59355 0.61614 0.89654 0.0
C722 C 0.63908 0.62059 0.91163 0.0
C723 C 0.64209 0.61372 0.87554 0.0
C724 C 0.61796 0.60225 0.85286 0.0
C725 C 0.59419 0.60432 0.8628 0.0
C726 C 0.71986 0.66217 0.87512 0.0
C727 C 0.72177 0.67838 0.8443 0.0
C728 C 0.69504 0.63644 0.88183 0.0
C729 C 0.67112 0.62776 0.85929 0.0
C730 C 0.67519 0.64113 0.8252 0.0
C731 C 0.70031 0.66625 0.81788 0.0
H732 H 0.7011 0.62009 0.60931 0.0
H733 H 0.61366 0.56404 0.64034 0.0
H734 H 0.68936 0.65671 0.59226 0.0
H735 H 0.60222 0.60094 0.62491 0.0
H736 H 0.58421 0.66679 0.59337 0.0
H737 H 0.61122 0.65189 0.63128 0.0
H738 H 0.65601 0.64785 0.53644 0.0
H739 H 0.62929 0.66344 0.4984 0.0
C740 C 0.67949 0.61578 0.61291 0.0
C741 C 0.65782 0.5888 0.62402 0.0
C742 C 0.67296 0.63686 0.60379 0.0
C743 C 0.64486 0.63133 0.6067 0.0
C744 C 0.6241 0.60571 0.62247 0.0
C745 C 0.63056 0.58452 0.63108 0.0
C746 C 0.60079 0.66414 0.58081 0.0
C747 C 0.60492 0.66644 0.543 0.0
C748 C 0.61611 0.65545 0.60256 0.0
C749 C 0.6356 0.64881 0.58673 0.0
C750 C 0.64135 0.65329 0.54933 0.0
C751 C 0.62589 0.66183 0.52752 0.0
H752 H 0.29158 0.92086 0.58165 0.0
H753 H 0.26949 0.93746 0.47537 0.0
H754 H 0.29521 0.96418 0.60431 0.0
H755 H 0.27092 0.98045 0.49863 0.0
H756 H 0.35972 0.06098 0.51489 0.0
H757 H 0.31564 0.0187 0.50252 0.0
H758 H 0.29765 0.00645 0.61793 0.0
H759 H 0.34329 0.04926 0.63007 0.0
C760 C 0.28608 0.93321 0.56361 0.0
C761 C 0.28167 0.92689 0.52651 0.0
C762 C 0.28781 0.95813 0.57668 0.0
C763 C 0.28536 0.97704 0.55255 0.0
C764 C 0.27473 0.96724 0.51733 0.0
C765 C 0.27398 0.94277 0.50391 0.0
C766 C 0.34592 0.04991 0.53759 0.0
C767 C 0.35515 0.05775 0.57341 0.0
C768 C 0.32017 0.0255 0.53056 0.0
C769 C 0.30334 0.00813 0.55936 0.0
C770 C 0.31065 0.01858 0.59514 0.0
C771 C 0.33679 0.04292 0.60218 0.0
H772 H 0.07682 0.35233 0.45938 0.0
H773 H 0.0323 0.39628 0.42619 0.0
H774 H 0.03142 0.30866 0.46828 0.0
H775 H 0.98718 0.35267 0.43368 0.0
H776 H 0.91015 0.2869 0.46424 0.0
H777 H 0.95146 0.30082 0.42623 0.0
H778 H 0.00145 0.30844 0.52153 0.0
H779 H 0.9598 0.29365 0.55959 0.0
C780 C 0.05734 0.35253 0.45351 0.0
C781 C 0.05773 0.37797 0.44452 0.0
C782 C 0.03147 0.3274 0.4578 0.0
C783 C 0.00585 0.32746 0.45247 0.0
C784 C 0.00659 0.35192 0.43804 0.0
C785 C 0.03242 0.37706 0.43414 0.0
C786 C 0.92938 0.2897 0.47699 0.0
C787 C 0.93192 0.28955 0.515 0.0
C788 C 0.95313 0.29782 0.45506 0.0
C789 C 0.9797 0.30631 0.47099 0.0
C790 C 0.98121 0.30202 0.50844 0.0
C791 C 0.95746 0.2939 0.53036 0.0
H792 H 0.18098 0.35446 0.47491 0.0
H793 H 0.19915 0.40332 0.37637 0.0
H794 H 0.16781 0.3114 0.43925 0.0
H795 H 0.18491 0.36048 0.34041 0.0
H796 H 0.16177 0.28189 0.278 0.0
H797 H 0.18981 0.32254 0.31821 0.0
H798 H 0.12854 0.28006 0.40398 0.0
H799 H 0.10155 0.23939 0.36406 0.0
C800 C 0.18279 0.35605 0.44559 0.0
C801 C 0.191 0.38216 0.42837 0.0
C802 C 0.17486 0.33131 0.42501 0.0
C803 C 0.17474 0.33205 0.38665 0.0
C804 C 0.18488 0.35876 0.36971 0.0
C805 C 0.19299 0.38345 0.39032 0.0
C806 C 0.1551 0.2809 0.30596 0.0
C807 C 0.12973 0.2574 0.3181 0.0
C808 C 0.17085 0.3044 0.32892 0.0
C809 C 0.16138 0.30508 0.36446 0.0
C810 C 0.13694 0.2805 0.37716 0.0
C811 C 0.12138 0.25702 0.3543 0.0
H812 H 0.57966 0.76534 0.38266 0.0
H813 H 0.61946 0.82454 0.47081 0.0
H814 H 0.6209 0.79359 0.34433 0.0
H815 H 0.66071 0.85384 0.4321 0.0
H816 H 0.7431 0.86728 0.37348 0.0
H817 H 0.69992 0.85089 0.40945 0.0
H818 H 0.65091 0.83449 0.31058 0.0
H819 H 0.69427 0.84981 0.27489 0.0
C820 C 0.59701 0.78497 0.39342 0.0
C821 C 0.59648 0.79266 0.42972 0.0
C822 C 0.62071 0.80135 0.37138 0.0
C823 C 0.64456 0.82607 0.38497 0.0
C824 C 0.6431 0.83472 0.42074 0.0
C825 C 0.61933 0.81817 0.44286 0.0
C826 C 0.72313 0.86078 0.35958 0.0
C827 C 0.72194 0.85957 0.32147 0.0
C828 C 0.69828 0.85144 0.38017 0.0
C829 C 0.67155 0.84082 0.36313 0.0
C830 C 0.67087 0.84183 0.32482 0.0
C831 C 0.69576 0.851 0.30426 0.0
H832 H 0.14033 0.88707 0.35274 0.0
H833 H 0.1279 0.82753 0.2674 0.0
H834 H 0.15132 0.8594 0.39543 0.0
H835 H 0.13814 0.799 0.31024 0.0
H836 H 0.20449 0.78826 0.38104 0.0
H837 H 0.17944 0.80343 0.33934 0.0
H838 H 0.13833 0.81825 0.43067 0.0
H839 H 0.16432 0.80388 0.47211 0.0
C840 C 0.13893 0.86738 0.34354 0.0
C841 C 0.133 0.85927 0.30693 0.0
C842 C 0.14524 0.85141 0.36801 0.0
C843 C 0.14585 0.82684 0.35651 0.0
C844 C 0.13831 0.81793 0.32014 0.0
C845 C 0.13204 0.83402 0.29563 0.0
C846 C 0.1892 0.79368 0.39196 0.0
C847 C 0.18593 0.79442 0.42971 0.0
C848 C 0.17486 0.80254 0.36809 0.0
C849 C 0.15694 0.81248 0.38142 0.0
C850 C 0.15227 0.81128 0.41925 0.0
C851 C 0.16675 0.80256 0.44308 0.0
H852 H 0.35858 0.18934 0.5945 0.0
H853 H 0.40618 0.19375 0.69046 0.0
H854 H 0.31655 0.17675 0.63186 0.0
H855 H 0.36422 0.17999 0.72787 0.0
H856 H 0.24104 0.1085 0.70023 0.0
H857 H 0.28266 0.13579 0.66205 0.0
H858 H 0.32891 0.18673 0.75509 0.0
H859 H 0.28721 0.15826 0.79337 0.0
C860 C 0.3602 0.18833 0.62375 0.0
C861 C 0.38558 0.1925 0.63961 0.0
C862 C 0.336 0.18066 0.64522 0.0
C863 C 0.33654 0.17676 0.68311 0.0
C864 C 0.36271 0.18296 0.69904 0.0
C865 C 0.38689 0.19082 0.67758 0.0
C866 C 0.25989 0.12608 0.7122 0.0
C867 C 0.26094 0.13125 0.74971 0.0
C868 C 0.28388 0.14187 0.6903 0.0
C869 C 0.30962 0.16345 0.7053 0.0
C870 C 0.30983 0.16995 0.74252 0.0
C871 C 0.2858 0.15395 0.76447 0.0
H872 H 0.80168 0.21343 0.68554 0.0
H873 H 0.79239 0.15559 0.59941 0.0
H874 H 0.8141 0.18664 0.72788 0.0
H875 H 0.80399 0.12787 0.64187 0.0
H876 H 0.82952 0.13232 0.80397 0.0
H877 H 0.80293 0.14601 0.76269 0.0
H878 H 0.84528 0.13306 0.67125 0.0
H879 H 0.87088 0.11843 0.71284 0.0
C880 C 0.80118 0.19421 0.6761 0.0
C881 C 0.79562 0.1863 0.63939 0.0
C882 C 0.80837 0.17876 0.70036 0.0
C883 C 0.81028 0.15494 0.68855 0.0
C884 C 0.80318 0.14623 0.65205 0.0
C885 C 0.79608 0.16182 0.62775 0.0
C886 C 0.83213 0.13126 0.77493 0.0
C887 C 0.85175 0.12369 0.76154 0.0
C888 C 0.8173 0.13962 0.75119 0.0
C889 C 0.82208 0.14114 0.71337 0.0
C890 C 0.84057 0.1319 0.69998 0.0
C891 C 0.85524 0.12334 0.72379 0.0
H892 H 0.85343 0.73918 0.71992 0.0
H893 H 0.86125 0.69414 0.81164 0.0
H894 H 0.84045 0.69797 0.68114 0.0
H895 H 0.84951 0.653 0.77273 0.0
H896 H 0.78109 0.57411 0.70935 0.0
H897 H 0.80787 0.61661 0.74645 0.0
H898 H 0.84892 0.66514 0.64981 0.0
H899 H 0.82091 0.62243 0.61276 0.0
C900 C 0.85338 0.72072 0.73142 0.0
C901 C 0.85824 0.7198 0.76875 0.0
C902 C 0.84597 0.69697 0.70917 0.0
C903 C 0.84341 0.67166 0.72365 0.0
C904 C 0.85055 0.67172 0.76059 0.0
C905 C 0.85775 0.69546 0.78288 0.0
C906 C 0.79638 0.59376 0.69623 0.0
C907 C 0.79884 0.59503 0.65822 0.0
C908 C 0.8119 0.61824 0.71751 0.0
C909 C 0.83054 0.64473 0.70136 0.0
C910 C 0.83442 0.64541 0.66335 0.0
C911 C 0.81868 0.62085 0.64205 0.0
H912 H 0.90675 0.44141 1.03609 0.0
H913 H 0.9539 0.48474 0.13212 0.0
H914 H 0.94927 0.46816 0.99913 0.0
H915 H -0.00339 0.5126 0.09519 0.0
H916 H 0.07181 0.51678 1.02825 0.0
H917 H 0.03009 0.50379 0.06589 0.0
H918 H 0.98533 0.50985 0.97197 0.0
H919 H 0.02704 0.52172 0.93427 0.0
C920 C 0.92608 0.45751 0.04904 0.0
C921 C 0.92705 0.46103 0.08691 0.0
C922 C 0.95059 0.47297 1.02786 0.0
C923 C 0.9768 0.49253 0.04398 0.0
C924 C 0.97711 0.49741 0.08172 0.0
C925 C 0.95254 0.48178 0.10292 0.0
C926 C 0.05327 0.51606 1.01595 0.0
C927 C 0.05262 0.52019 0.97837 0.0
C928 C 0.02924 0.50865 0.03754 0.0
C929 C 0.00388 0.5053 1.02214 0.0
C930 C 0.00411 0.51158 0.98485 0.0
C931 C 0.02816 0.51883 0.96323 0.0
H932 H 0.47207 0.50323 0.94147 0.0
H933 H 0.45702 0.54221 1.0344 0.0
H934 H 0.48779 0.47757 0.98148 0.0
H935 H 0.47349 0.51743 0.0747 0.0
H936 H 0.49889 0.46533 0.14382 0.0
H937 H 0.46977 0.47587 0.10238 0.0
H938 H 0.52952 0.49084 1.01582 0.0
H939 H 0.55782 0.4796 0.05715 0.0
C940 C 0.47121 0.50549 0.97062 0.0
C941 C 0.46279 0.52422 0.98491 0.0
C942 C 0.48068 0.49119 0.99362 0.0
C943 C 0.48236 0.49556 1.03154 0.0
C944 C 0.47225 0.51309 0.04584 0.0
C945 C 0.46265 0.52727 1.02278 0.0
C946 C 0.50511 0.46992 0.11557 0.0
C947 C 0.53032 0.47124 0.10349 0.0
C948 C 0.48869 0.47637 0.09188 0.0
C949 C 0.49722 0.48447 0.05556 0.0
C950 C 0.52181 0.48431 0.04324 0.0
C951 C 0.53813 0.47783 0.06691 0.0
H952 H 0.51128 0.02824 0.13712 0.0
H953 H 0.52489 0.07333 1.03611 0.0
H954 H 0.49753 0.98413 0.10372 0.0
H955 H 0.50971 0.02932 1.00244 0.0
H956 H 0.48431 0.9485 0.94397 0.0
H957 H 0.5136 0.99095 0.98083 0.0
H958 H 0.45752 0.95083 0.07219 0.0
H959 H 0.42949 0.90834 1.03564 0.0
C960 C 0.51191 0.02878 0.1077 0.0
C961 C 0.51893 0.05412 0.08919 0.0
C962 C 0.50359 0.0034 0.08842 0.0
C963 C 0.50181 0.00268 0.0501 0.0
C964 C 0.51088 0.02868 1.03175 0.0
C965 C 0.51947 0.05404 0.05106 0.0
C966 C 0.47903 0.94852 0.97235 0.0
C967 C 0.45469 0.92518 0.987 0.0
C968 C 0.4955 0.97303 0.99342 0.0
C969 C 0.48783 0.97487 1.02959 0.0
C970 C 0.46454 0.95049 0.04477 0.0
C971 C 0.44833 0.92599 1.0238 0.0
H972 H 0.01287 0.20217 0.12844 0.0
H973 H 0.03934 0.13978 0.11129 0.0
H974 H 0.98731 0.18904 0.07169 0.0
H975 H 0.0143 0.12724 0.05256 0.0
H976 H 0.94289 0.09314 0.9646 0.0
H977 H 0.96798 0.10417 1.02319 0.0
H978 H 0.99244 0.19277 1.00955 0.0
H979 H 0.96666 0.18167 0.95286 0.0
C980 C 0.01385 0.186 0.11217 0.0
C981 C 0.02855 0.17226 0.12474 0.0
C982 C -0.00093 0.17845 0.07919 0.0
C983 C -0.00141 0.15705 0.05697 0.0
C984 C 0.0138 0.14359 0.06898 0.0
C985 C 0.02858 0.15109 0.10246 0.0
C986 C 0.95308 0.11483 0.97463 0.0
C987 C 0.9524 0.13639 0.95388 0.0
C988 C 0.96792 0.12129 1.008 0.0
C989 C 0.98248 0.14946 1.02149 0.0
C990 C 0.98123 0.17074 1.00085 0.0
C991 C 0.96637 0.16431 0.96793 0.0
H992 H 0.884 0.83437 0.97636 0.0
H993 H 0.79797 0.76442 0.96587 0.0
H994 H 0.87202 0.84635 1.0355 0.0
H995 H 0.78609 0.77631 1.02493 0.0
H996 H 0.78462 0.79252 0.14924 0.0
H997 H 0.79611 0.77829 0.09147 0.0
H998 H 0.8414 0.86621 0.05744 0.0
H999 H 0.82982 0.88049 0.11509 0.0
C1000 C 0.86272 0.82114 0.98697 0.0
C1001 C 0.84202 0.79834 0.96625 0.0
C1002 C 0.85572 0.82825 1.0207 0.0
C1003 C 0.82796 0.81252 1.03491 0.0
C1004 C 0.80767 0.78888 1.01498 0.0
C1005 C 0.81454 0.78204 0.98106 0.0
C1006 C 0.79671 0.80882 0.12928 0.0
C1007 C 0.80615 0.8377 0.13698 0.0
C1008 C 0.80334 0.80063 0.0961 0.0
C1009 C 0.81999 0.8211 0.06984 0.0
C1010 C 0.82893 0.8499 0.07721 0.0
C1011 C 0.82195 0.85805 0.11016 0.0
H1012 H 0.14768 0.04743 0.95863 0.0
H1013 H 0.20391 0.01453 0.93407 0.0
H1014 H 0.1368 0.02308 1.01765 0.0
H1015 H 0.19276 0.99006 0.99206 0.0
H1016 H 0.18965 0.97312 0.11351 0.0
H1017 H 0.19998 -0.00218 0.05573 0.0
H1018 H 0.1117 0.97493 0.04488 0.0
H1019 H 0.10135 0.95039 0.10373 0.0
C1020 C 0.15806 0.03543 0.96596 0.0
C1021 C 0.17685 0.03321 0.94148 0.0
C1022 C 0.15149 0.02108 0.99962 0.0
C1023 C 0.16373 0.00435 1.00979 0.0
C1024 C 0.18307 0.00287 0.98561 0.0
C1025 C 0.18948 0.01699 0.95212 0.0
C1026 C 0.17223 0.97293 0.09874 0.0
C1027 C 0.14456 0.95947 0.11344 0.0
C1028 C 0.17821 0.98718 0.06536 0.0
C1029 C 0.15676 0.9886 0.04538 0.0
C1030 C 0.12889 0.97466 0.05964 0.0
C1031 C 0.12283 0.96019 0.09316 0.0
H1032 H 0.59961 0.43929 0.31699 0.0
H1033 H 0.66339 0.52481 0.28701 0.0
H1034 H 0.6209 0.4473 0.37815 0.0
H1035 H 0.68476 0.53218 0.34701 0.0
H1036 H 0.73324 0.51771 0.44375 0.0
H1037 H 0.71064 0.50852 0.38355 0.0
H1038 H 0.62981 0.48417 0.43374 0.0
H1039 H 0.65233 0.49412 0.49364 0.0
C1040 C 0.61799 0.45973 0.32334 0.0
C1041 C 0.62955 0.48138 0.29693 0.0
C1042 C 0.63021 0.46431 0.35832 0.0
C1043 C 0.6547 0.49032 0.36727 0.0
C1044 C 0.66613 0.51185 0.34091 0.0
C1045 C 0.65361 0.50759 0.3065 0.0
C1046 C 0.71072 0.51062 0.44194 0.0
C1047 C 0.69476 0.50699 0.47364 0.0
C1048 C 0.69775 0.50528 0.40749 0.0
C1049 C 0.66837 0.49541 0.40392 0.0
C1050 C 0.65238 0.49148 0.43557 0.0
C1051 C 0.66544 0.49749 0.46989 0.0
H1052 H 0.46593 0.20647 0.42243 0.0
H1053 H 0.46116 0.12977 0.46497 0.0
H1054 H 0.47346 0.19335 0.36122 0.0
H1055 H 0.46925 0.1172 0.4043 0.0
H1056 H 0.52439 0.12976 0.29958 0.0
H1057 H 0.51209 0.13933 0.35999 0.0
H1058 H 0.44693 0.15302 0.31266 0.0
H1059 H 0.45871 0.14285 0.25235 0.0
C1060 C 0.46623 0.18675 0.41878 0.0
C1061 C 0.46287 0.16923 0.44884 0.0
C1062 C 0.47052 0.17921 0.38369 0.0
C1063 C 0.47215 0.1543 0.37791 0.0
C1064 C 0.46837 0.13664 0.40782 0.0
C1065 C 0.46353 0.14383 0.44265 0.0
C1066 C 0.50716 0.13439 0.30206 0.0
C1067 C 0.49247 0.13533 0.27097 0.0
C1068 C 0.50011 0.13989 0.33671 0.0
C1069 C 0.47863 0.14712 0.34114 0.0
C1070 C 0.46373 0.14775 0.31017 0.0
C1071 C 0.47034 0.14164 0.27561 0.0
H1072 H 0.86556 0.34097 0.26622 0.0
H1073 H 0.8135 0.37797 0.29446 0.0
H1074 H 0.85365 0.31542 0.32347 0.0
H1075 H 0.80193 0.35259 0.35276 0.0
H1076 H 0.76419 0.27928 0.43768 0.0
H1077 H 0.77492 0.30432 0.37915 0.0
H1078 H 0.86178 0.32193 0.38703 0.0
H1079 H 0.85106 0.29681 0.44443 0.0
C1080 C 0.85191 0.34409 0.28494 0.0
C1081 C 0.84066 0.36178 0.27554 0.0
C1082 C 0.84506 0.32934 0.318 0.0
C1083 C 0.82666 0.33168 0.34299 0.0
C1084 C 0.81584 0.34988 0.33406 0.0
C1085 C 0.82283 0.36482 0.30083 0.0
C1086 C 0.78539 0.28796 0.42648 0.0
C1087 C 0.80662 0.28566 0.44585 0.0
C1088 C 0.79169 0.30274 0.39315 0.0
C1089 C 0.81932 0.3154 0.37819 0.0
C1090 C 0.8402 0.31231 0.39719 0.0
C1091 C 0.83398 0.29776 0.43035 0.0
H1092 H 0.37026 0.80881 0.77999 0.0
H1093 H 0.34595 0.87294 0.79577 0.0
H1094 H 0.34741 0.79794 0.71994 0.0
H1095 H 0.32298 0.86189 0.73675 0.0
H1096 H 0.30755 0.85478 0.61483 0.0
H1097 H 0.33184 0.86562 0.67305 0.0
H1098 H 0.29961 0.77594 0.69185 0.0
H1099 H 0.27552 0.76501 0.63267 0.0
C1100 C 0.36054 0.82094 0.77048 0.0
C1101 C 0.3602 0.84191 0.79282 0.0
C1102 C 0.34703 0.81441 0.73625 0.0
C1103 C 0.33308 0.82887 0.72336 0.0
C1104 C 0.33365 0.85043 0.74533 0.0
C1105 C 0.34691 0.8568 0.77941 0.0
C1106 C 0.30529 0.83722 0.63141 0.0
C1107 C 0.28932 0.80894 0.61889 0.0
C1108 C 0.31929 0.84349 0.66501 0.0
C1109 C 0.3179 0.82173 0.68738 0.0
C1110 C 0.30154 0.79333 0.67522 0.0
C1111 C 0.28735 0.78701 0.64148 0.0
H1112 H 0.19478 0.46074 0.638 0.0
H1113 H 0.13694 0.48276 0.58552 0.0
H1114 H 0.18158 0.47141 0.6973 0.0
H1115 H 0.12451 0.49423 0.64472 0.0
H1116 H 0.14315 0.54419 0.75973 0.0
H1117 H 0.15348 0.53313 0.69856 0.0
H1118 H 0.13285 0.44926 0.73482 0.0
H1119 H 0.12176 0.45963 0.79492 0.0
C1120 C 0.17919 0.46773 0.63907 0.0
C1121 C 0.16674 0.47057 0.60689 0.0
C1122 C 0.17168 0.47392 0.67304 0.0
C1123 C 0.15212 0.48385 0.67569 0.0
C1124 C 0.13978 0.48684 0.64358 0.0
C1125 C 0.14673 0.47996 0.60969 0.0
C1126 C 0.14039 0.52326 0.75449 0.0
C1127 C 0.13147 0.50287 0.7825 0.0
C1128 C 0.14635 0.51694 0.71948 0.0
C1129 C 0.14423 0.49038 0.71197 0.0
C1130 C 0.13496 0.46997 0.73977 0.0
C1131 C 0.1284 0.47598 0.77427 0.0
H1132 H 0.434 0.59123 0.76886 0.0
H1133 H 0.51333 0.66163 0.80726 0.0
H1134 H 0.4429 0.61392 0.70863 0.0
H1135 H 0.52153 0.6843 0.748 0.0
H1136 H 0.50781 0.72882 0.64617 0.0
H1137 H 0.49637 0.70601 0.70646 0.0
H1138 H 0.48335 0.62767 0.6585 0.0
H1139 H 0.49544 0.65033 0.59904 0.0
C1140 C 0.45327 0.61139 0.76454 0.0
C1141 C 0.47302 0.62433 0.79296 0.0
C1142 C 0.45833 0.62445 0.73012 0.0
C1143 C 0.48281 0.65108 0.7237 0.0
C1144 C 0.50235 0.66401 0.75215 0.0
C1145 C 0.4977 0.65073 0.78607 0.0
C1146 C 0.50258 0.70679 0.64857 0.0
C1147 C 0.50287 0.6916 0.61772 0.0
C1148 C 0.496 0.69371 0.68303 0.0
C1149 C 0.48877 0.66494 0.68717 0.0
C1150 C 0.48854 0.64971 0.65623 0.0
C1151 C 0.49576 0.66289 0.62215 0.0
H1152 H 0.18619 0.04061 0.2445 0.0
H1153 H 0.0982 0.98873 0.27624 0.0
H1154 H 0.18036 0.08267 0.24351 0.0
H1155 H 0.09229 0.03035 0.27482 0.0
H1156 H 0.08918 0.11055 0.28237 0.0
H1157 H 0.10427 0.07654 0.29914 0.0
H1158 H 0.15429 0.09678 0.20097 0.0
H1159 H 0.13963 0.13131 0.18447 0.0
C1160 C 0.1659 0.03833 0.25242 0.0
C1161 C 0.1426 0.01133 0.26022 0.0
C1162 C 0.16246 0.06235 0.25139 0.0
C1163 C 0.13576 0.05981 0.25856 0.0
C1164 C 0.1132 0.03319 0.26934 0.0
C1165 C 0.11656 0.00925 0.27009 0.0
C1166 C 0.10363 0.10798 0.26448 0.0
C1167 C 0.11285 0.12334 0.23175 0.0
C1168 C 0.11227 0.08846 0.27414 0.0
C1169 C 0.13031 0.08375 0.2513 0.0
C1170 C 0.14063 0.1001 0.2194 0.0
C1171 C 0.13202 0.11973 0.20976 0.0
H1172 H 0.99124 0.0912 0.28613 0.0
H1173 H 0.94955 0.13575 0.24459 0.0
H1174 H 0.94694 0.04613 0.28019 0.0
H1175 H 0.90581 0.09073 0.23629 0.0
H1176 H 0.82552 0.00319 0.23609 0.0
H1177 H 0.86574 0.04885 0.2554 0.0
H1178 H 0.92324 0.01716 0.23123 0.0
H1179 H 0.88318 0.97159 0.21412 0.0
C1180 C 0.97244 0.09137 0.27633 0.0
C1181 C 0.97394 0.11697 0.26564 0.0
C1182 C 0.9471 0.0655 0.27233 0.0
C1183 C 0.92289 0.06454 0.25655 0.0
C1184 C 0.92385 0.09044 0.24855 0.0
C1185 C 0.94903 0.11638 0.25338 0.0
C1186 C 0.84684 0.00623 0.23477 0.0
C1187 C 0.85125 0.98389 0.22367 0.0
C1188 C 0.86992 0.03235 0.2459 0.0
C1189 C 0.89788 0.03673 0.24558 0.0
C1190 C 0.90209 0.01448 0.23322 0.0
C1191 C 0.87911 0.98838 0.22282 0.0
H1192 H 0.90031 0.92833 0.26065 0.0
H1193 H 0.87598 0.84018 0.27911 0.0
H1194 H 0.9497 0.94009 0.2536 0.0
H1195 H 0.92501 0.85168 0.27055 0.0
H1196 H 0.02015 0.88394 0.26778 0.0
H1197 H 0.97362 0.87497 0.28867 0.0
H1198 H 0.97369 0.93148 0.20549 0.0
H1199 H 0.02041 0.94116 0.18565 0.0
C1200 C 0.90557 0.91155 0.26384 0.0
C1201 C 0.88416 0.88326 0.26992 0.0
C1202 C 0.93383 0.91822 0.2594 0.0
C1203 C 0.94121 0.89669 0.2605 0.0
C1204 C 0.92015 0.86882 0.26954 0.0
C1205 C 0.89194 0.86221 0.27443 0.0
C1206 C 0.01011 0.89433 0.25392 0.0
C1207 C 0.02389 0.91322 0.22504 0.0
C1208 C 0.98348 0.88923 0.26592 0.0
C1209 C 0.97002 0.90276 0.24907 0.0
C1210 C 0.98372 0.92129 0.2198 0.0
C1211 C 0.01038 0.92657 0.20807 0.0
H1212 H 0.98908 0.09323 0.79461 0.0
H1213 H 0.03326 0.18163 0.82756 0.0
H1214 H 0.03362 0.09237 0.79792 0.0
H1215 H 0.07782 0.18059 0.83121 0.0
H1216 H 0.12867 0.1423 0.89439 0.0
H1217 H 0.09164 0.15337 0.87678 0.0
H1218 H 0.08363 0.11335 0.77261 0.0
H1219 H 0.12053 0.1024 0.78985 0.0
C1220 C 0.00844 0.11269 0.80156 0.0
C1221 C 0.0076 0.13742 0.811 0.0
C1222 C 0.03396 0.11221 0.80344 0.0
C1223 C 0.05908 0.13635 0.81524 0.0
C1224 C 0.05867 0.16163 0.82238 0.0
C1225 C 0.0332 0.16226 0.81992 0.0
C1226 C 0.11941 0.13636 0.8675 0.0
C1227 C 0.12727 0.1211 0.8438 0.0
C1228 C 0.09832 0.14283 0.85733 0.0
C1229 C 0.08464 0.13399 0.82342 0.0
C1230 C 0.09362 0.12014 0.79903 0.0
C1231 C 0.11479 0.1139 0.80901 0.0
H1232 H 0.90257 0.01725 0.80114 0.0
H1233 H 0.84318 0.98553 0.89071 0.0
H1234 H 0.89256 0.96904 0.78792 0.0
H1235 H 0.83335 0.93719 0.87749 0.0
H1236 H 0.80868 0.8504 0.83118 0.0
H1237 H 0.81307 0.89761 0.83163 0.0
H1238 H 0.90426 0.93624 0.82073 0.0
H1239 H 0.89998 0.88928 0.82015 0.0
C1240 C 0.88717 -2e-05 0.81785 0.0
C1241 C 0.8739 0.00532 0.84729 0.0
C1242 C 0.88151 0.97235 0.81027 0.0
C1243 C 0.86233 0.94935 0.83178 0.0
C1244 C 0.84807 0.95446 0.86021 0.0
C1245 C 0.85384 0.98218 0.86794 0.0
C1246 C 0.8296 0.86894 0.828 0.0
C1247 C 0.85401 0.86606 0.82583 0.0
C1248 C 0.83211 0.89597 0.82861 0.0
C1249 C 0.85901 0.92062 0.82657 0.0
C1250 C 0.88321 0.91766 0.82212 0.0
C1251 C 0.88075 0.89071 0.82187 0.0
H1252 H 0.08668 0.01121 0.80091 0.0
H1253 H 0.1193 0.95293 0.80909 0.0
H1254 H 0.0387 0.97204 0.81159 0.0
H1255 H 0.07125 0.91379 0.82058 0.0
H1256 H 0.97455 0.84717 0.82355 0.0
H1257 H 0.02126 0.88296 0.80051 0.0
H1258 H 0.01835 0.94666 0.86832 0.0
H1259 H 0.97191 0.91132 0.89082 0.0
C1260 C 0.08354 0.98992 0.80413 0.0
C1261 C 0.10687 0.98528 0.80468 0.0
C1262 C 0.05607 0.96751 0.81062 0.0
C1263 C 0.05132 0.93999 0.81801 0.0
C1264 C 0.07423 0.93478 0.81514 0.0
C1265 C 0.10178 0.95723 0.80843 0.0
C1266 C 0.98405 0.86878 0.83372 0.0
C1267 C 0.96946 0.87643 0.85892 0.0
C1268 C 0.01074 0.88926 0.82045 0.0
C1269 C 0.02324 0.91775 0.83203 0.0
C1270 C 0.00897 0.92507 0.85805 0.0
C1271 C 0.98245 0.90471 0.87129 0.0
H1272 H 0.85037 0.36645 0.56927 0.0
H1273 H 0.76322 0.32144 0.60674 0.0
H1274 H 0.84725 0.40987 0.56232 0.0
H1275 H 0.76057 0.3651 0.60038 0.0
H1276 H 0.79373 0.46922 0.60501 0.0
H1277 H 0.80797 0.43429 0.62231 0.0
H1278 H 0.78906 0.39935 0.51399 0.0
H1279 H 0.77419 0.43372 0.49662 0.0
C1280 C 0.83098 0.36608 0.57749 0.0
C1281 C 0.80698 0.34045 0.58846 0.0
C1282 C 0.82922 0.39089 0.57328 0.0
C1283 C 0.80368 0.39055 0.58077 0.0
C1284 C 0.7805 0.36572 0.59463 0.0
C1285 C 0.78208 0.34083 0.59833 0.0
C1286 C 0.79329 0.45458 0.58458 0.0
C1287 C 0.78273 0.45413 0.54942 0.0
C1288 C 0.80136 0.43462 0.5946 0.0
C1289 C 0.79955 0.41437 0.5694 0.0
C1290 C 0.79069 0.41497 0.53373 0.0
C1291 C 0.78221 0.43459 0.52385 0.0
H1292 H 0.63161 0.43955 0.62472 0.0
H1293 H 0.68767 0.41281 0.5775 0.0
H1294 H 0.59084 0.39394 0.60957 0.0
H1295 H 0.64672 0.36638 0.56391 0.0
H1296 H 0.56965 0.30714 0.49589 0.0
H1297 H 0.61041 0.35008 0.51943 0.0
H1298 H 0.5627 0.34452 0.61624 0.0
H1299 H 0.52153 0.30226 0.5918 0.0
C1300 C 0.63538 0.42359 0.61221 0.0
C1301 C 0.66296 0.43012 0.60168 0.0
C1302 C 0.61184 0.39728 0.60351 0.0
C1303 C 0.61533 0.37666 0.58457 0.0
C1304 C 0.64316 0.38214 0.57736 0.0
C1305 C 0.66672 0.40863 0.58568 0.0
C1306 C 0.56776 0.31535 0.52196 0.0
C1307 C 0.54233 0.30144 0.54183 0.0
C1308 C 0.5913 0.33973 0.53579 0.0
C1309 C 0.59012 0.35059 0.57011 0.0
C1310 C 0.5644 0.33695 0.58964 0.0
C1311 C 0.54071 0.31275 0.57556 0.0
H1312 H 0.68236 0.26865 0.51864 0.0
H1313 H 0.67719 0.20331 0.59098 0.0
H1314 H 0.63365 0.25539 0.53315 0.0
H1315 H 0.62819 0.19034 0.60628 0.0
H1316 H 0.53062 0.1571 0.58523 0.0
H1317 H 0.58032 0.16892 0.58036 0.0
H1318 H 0.60661 0.25855 0.58269 0.0
H1319 H 0.5571 0.24676 0.58639 0.0
C1320 C 0.67084 0.25147 0.53776 0.0
C1321 C 0.68371 0.23709 0.5537 0.0
C1322 C 0.64292 0.24403 0.54639 0.0
C1323 C 0.62712 0.22211 0.57139 0.0
C1324 C 0.63977 0.2073 0.5869 0.0
C1325 C 0.66782 0.21473 0.57814 0.0
C1326 C 0.54708 0.1793 0.58559 0.0
C1327 C 0.53993 0.20099 0.58571 0.0
C1328 C 0.57558 0.18609 0.58275 0.0
C1329 C 0.5974 0.21468 0.58026 0.0
C1330 C 0.59028 0.2363 0.58345 0.0
C1331 C 0.56189 0.22954 0.58593 0.0
H1332 H 0.80015 0.47764 0.23598 0.0
H1333 H 0.79198 0.44261 0.12816 0.0
H1334 H 0.76631 0.49334 0.2196 0.0
H1335 H 0.75838 0.45833 0.11199 0.0
H1336 H 0.66572 0.44332 0.13151 0.0
H1337 H 0.70863 0.43949 0.13411 0.0
H1338 H 0.75535 0.52455 0.17847 0.0
H1339 H 0.7122 0.52847 0.1756 0.0
C1340 C 0.7916 0.47378 0.20864 0.0
C1341 C 0.79841 0.45844 0.18364 0.0
C1342 C 0.77236 0.48292 0.19917 0.0
C1343 C 0.75952 0.47683 0.16458 0.0
C1344 C 0.76766 0.46302 0.13896 0.0
C1345 C 0.78693 0.45402 0.14832 0.0
C1346 C 0.68536 0.46156 0.14069 0.0
C1347 C 0.68559 0.48615 0.1534 0.0
C1348 C 0.70998 0.45939 0.14218 0.0
C1349 C 0.73529 0.48163 0.15686 0.0
C1350 C 0.73605 0.507 0.16734 0.0
C1351 C 0.71145 0.50934 0.16529 0.0
H1352 H 0.58024 0.23424 0.16003 0.0
H1353 H 0.49435 0.20554 0.12282 0.0
H1354 H 0.58774 0.28236 0.16724 0.0
H1355 H 0.50196 0.25358 0.1303 0.0
H1356 H 0.51528 0.32904 0.20619 0.0
H1357 H 0.50849 0.28258 0.18784 0.0
H1358 H 0.58964 0.32397 0.13295 0.0
H1359 H 0.59647 0.37029 0.15103 0.0
C1360 C 0.56319 0.23828 0.15258 0.0
C1361 C 0.53662 0.21594 0.14113 0.0
C1362 C 0.5675 0.26585 0.15676 0.0
C1363 C 0.54525 0.27154 0.14987 0.0
C1364 C 0.51929 0.24964 0.13637 0.0
C1365 C 0.51508 0.22218 0.13177 0.0
C1366 C 0.53156 0.32822 0.19003 0.0
C1367 C 0.55642 0.35334 0.18022 0.0
C1368 C 0.52761 0.30166 0.17932 0.0
C1369 C 0.54857 0.29973 0.15895 0.0
C1370 C 0.57324 0.32485 0.14881 0.0
C1371 C 0.57705 0.35135 0.15911 0.0
H1372 H 0.78044 0.28507 0.13623 0.0
H1373 H 0.74818 0.3434 0.14871 0.0
H1374 H 0.73322 0.24515 0.14911 0.0
H1375 H 0.70093 0.30343 0.16079 0.0
H1376 H 0.63581 0.23579 0.23433 0.0
H1377 H 0.68237 0.27278 0.21406 0.0
H1378 H 0.68288 0.21622 0.13155 0.0
H1379 H 0.63624 0.17882 0.15229 0.0
C1380 C 0.76313 0.28935 0.14057 0.0
C1381 C 0.76822 0.31752 0.142 0.0
C1382 C 0.73605 0.26641 0.14808 0.0
C1383 C 0.71354 0.27121 0.15699 0.0
C1384 C 0.71808 0.29913 0.15514 0.0
C1385 C 0.74511 0.32203 0.14778 0.0
C1386 C 0.64597 0.23105 0.21219 0.0
C1387 C 0.63222 0.2044 0.19482 0.0
C1388 C 0.67252 0.25239 0.20025 0.0
C1389 C 0.686 0.24768 0.17058 0.0
C1390 C 0.67298 0.22055 0.15436 0.0
C1391 C 0.64631 0.1991 0.16636 0.0
H1392 H 0.47154 0.79917 0.85739 0.0
H1393 H 0.41566 0.77753 0.95021 0.0
H1394 H 0.48321 0.76263 0.87529 0.0
H1395 H 0.42749 0.74136 0.96803 0.0
H1396 H 0.41909 0.65246 0.94233 0.0
H1397 H 0.41471 0.69505 0.93923 0.0
H1398 H 0.5055 0.74661 0.92345 0.0
H1399 H 0.50996 0.70386 0.92652 0.0
C1400 C 0.46211 0.78698 0.88186 0.0
C1401 C 0.44234 0.79096 0.902 0.0
C1402 C 0.46894 0.76619 0.89226 0.0
C1403 C 0.45607 0.74901 0.92293 0.0
C1404 C 0.43744 0.75402 0.94402 0.0
C1405 C 0.43069 0.77478 0.93374 0.0
C1406 C 0.43823 0.67294 0.93917 0.0
C1407 C 0.46482 0.67474 0.93442 0.0
C1408 C 0.43574 0.69738 0.93746 0.0
C1409 C 0.45975 0.72412 0.93068 0.0
C1410 C 0.48662 0.72621 0.92827 0.0
C1411 C 0.48917 0.70175 0.93041 0.0
H1412 H 0.32531 0.75234 0.9378 0.0
H1413 H 0.27432 0.79263 0.9221 0.0
H1414 H 0.28299 0.70576 0.93094 0.0
H1415 H 0.23183 0.74582 0.91536 0.0
H1416 H 0.17926 0.66167 0.84646 0.0
H1417 H 0.21626 0.709 0.86604 0.0
H1418 H 0.23637 0.67142 0.95674 0.0
H1419 H 0.19978 0.62432 0.93721 0.0
C1420 C 0.30495 0.75124 0.93383 0.0
C1421 C 0.30326 0.77623 0.93031 0.0
C1422 C 0.28065 0.72451 0.92993 0.0
C1423 C 0.25411 0.72213 0.92217 0.0
C1424 C 0.25207 0.74702 0.92083 0.0
C1425 C 0.27638 0.77381 0.92512 0.0
C1426 C 0.19135 0.66355 0.87079 0.0
C1427 C 0.18678 0.63916 0.88993 0.0
C1428 C 0.21242 0.69068 0.88216 0.0
C1429 C 0.22936 0.69391 0.91284 0.0
C1430 C 0.22395 0.6696 0.93275 0.0
C1431 C 0.20291 0.64259 0.9215 0.0
H1432 H 0.21914 0.55679 0.94462 0.0
H1433 H 0.18554 0.47299 0.89789 0.0
H1434 H 0.26671 0.56257 0.94468 0.0
H1435 H 0.23319 0.47942 0.89496 0.0
H1436 H 0.3223 0.4931 0.90464 0.0
H1437 H 0.2742 0.48348 0.91864 0.0
H1438 H 0.30196 0.57297 0.90381 0.0
H1439 H 0.34994 0.58246 0.89267 0.0
C1440 C 0.22199 0.53952 0.93464 0.0
C1441 C 0.19874 0.5145 0.92124 0.0
C1442 C 0.24933 0.54293 0.93411 0.0
C1443 C 0.25422 0.5218 0.91888 0.0
C1444 C 0.23054 0.49614 0.90721 0.0
C1445 C 0.20309 0.49242 0.9088 0.0
C1446 C 0.31793 0.51059 0.90458 0.0
C1447 C 0.33977 0.53849 0.89764 0.0
C1448 C 0.29034 0.50515 0.91247 0.0
C1449 C 0.28389 0.52742 0.91268 0.0
C1450 C 0.30595 0.55527 0.90518 0.0
C1451 C 0.33353 0.56075 0.89827 0.0
H1452 H 0.31093 0.75182 0.45775 0.0
H1453 H 0.36797 0.83937 0.48807 0.0
H1454 H 0.34969 0.74151 0.46354 0.0
H1455 H 0.40684 0.82884 0.49438 0.0
H1456 H 0.47203 0.795 0.48715 0.0
H1457 H 0.43864 0.8105 0.46679 0.0
H1458 H 0.37056 0.7395 0.52354 0.0
H1459 H 0.40343 0.72412 0.54373 0.0
C1460 C 0.33198 0.76909 0.46452 0.0
C1461 C 0.33632 0.79629 0.47298 0.0
C1462 C 0.35412 0.76312 0.46813 0.0
C1463 C 0.38103 0.78418 0.48043 0.0
C1464 C 0.38626 0.81218 0.48502 0.0
C1465 C 0.36402 0.81823 0.48124 0.0
C1466 C 0.44996 0.78288 0.49545 0.0
C1467 C 0.44036 0.75825 0.51695 0.0
C1468 C 0.4309 0.79172 0.48372 0.0
C1469 C 0.40193 0.77585 0.49293 0.0
C1470 C 0.39263 0.75175 0.5152 0.0
C1471 C 0.41158 0.7431 0.5271 0.0
H1472 H 0.17289 0.53728 0.45705 0.0
H1473 H 0.25897 0.56233 0.48961 0.0
H1474 H 0.18277 0.58581 0.4655 0.0
H1475 H 0.26928 0.61133 0.49647 0.0
H1476 H 0.26382 0.68046 0.56013 0.0
H1477 H 0.25637 0.6342 0.54133 0.0
H1478 H 0.20637 0.63459 0.44978 0.0
H1479 H 0.21294 0.68053 0.46963 0.0
C1480 C 0.19425 0.55334 0.46482 0.0
C1481 C 0.215 0.54581 0.47329 0.0
C1482 C 0.19993 0.58128 0.46965 0.0
C1483 C 0.22661 0.60239 0.48257 0.0
C1484 C 0.24819 0.59539 0.48764 0.0
C1485 C 0.24241 0.56736 0.48325 0.0
C1486 C 0.25105 0.67056 0.53615 0.0
C1487 C 0.23885 0.68404 0.51648 0.0
C1488 C 0.2471 0.64419 0.52502 0.0
C1489 C 0.23114 0.6308 0.49365 0.0
C1490 C 0.21864 0.64418 0.47418 0.0
C1491 C 0.22233 0.67047 0.4856 0.0
H1492 H 0.41913 0.673 0.48552 0.0
H1493 H 0.45433 0.61692 0.47624 0.0
H1494 H 0.37236 0.63212 0.49708 0.0
H1495 H 0.40747 0.57604 0.48845 0.0
H1496 H 0.31042 0.50768 0.49112 0.0
H1497 H 0.35681 0.5456 0.47014 0.0
H1498 H 0.35491 0.60213 0.55157 0.0
H1499 H 0.30875 0.56466 0.57219 0.0
C1500 C 0.4168 0.65191 0.48508 0.0
C1501 C 0.4406 0.64833 0.48046 0.0
C1502 C 0.39003 0.6285 0.49213 0.0
C1503 C 0.38642 0.60095 0.49478 0.0
C1504 C 0.40961 0.59701 0.4868 0.0
C1505 C 0.43646 0.62049 0.47965 0.0
C1506 C 0.32016 0.52807 0.50493 0.0
C1507 C 0.30578 0.53321 0.53318 0.0
C1508 C 0.34666 0.54981 0.49277 0.0
C1509 C 0.35918 0.57707 0.50858 0.0
C1510 C 0.34544 0.58163 0.53807 0.0
C1511 C 0.31911 0.56 0.55021 0.0
loop_
_geom_bond_atom_site_label_1
_geom_bond_atom_site_label_2
_geom_bond_distance
_geom_bond_site_symmetry_2
_ccdc_geom_bond_type
Co0 O3 1.970 . S
Co0 N17 1.989 . S
Co0 O25 1.967 . S
Co0 O32 1.920 . S
Co1 O4 1.966 . S
Co1 N10 2.022 . S
Co1 N18 1.993 . S
Co1 O26 1.941 . S
C2 O3 1.258 . S
C2 O4 1.263 . S
O3 Co0 1.970 . S
O3 C2 1.258 . S
O4 Co1 1.966 . S
O4 C2 1.263 . S
C5 O6 1.235 . S
C5 O32 1.289 . S
O6 C5 1.235 . S
C7 C9 1.400 . S
C7 N10 1.351 . S
C7 C12 1.501 . S
C8 C9 1.387 1_655 S
C8 N11 1.341 . S
C9 C7 1.400 . S
C9 C8 1.387 1_455 S
N10 Co1 2.022 . S
N10 C7 1.351 . S
N10 N11 1.365 1_455 S
N11 C8 1.341 . S
N11 N10 1.365 1_655 S
N11 H31 0.862 . S
C12 C7 1.501 . S
C12 H13 0.961 . S
C12 H14 0.961 . S
C12 H15 0.960 . S
H13 C12 0.961 . S
H14 C12 0.961 . S
H15 C12 0.960 . S
C16 N17 1.342 . S
C16 C20 1.401 . S
C16 C21 1.499 . S
N17 Co0 1.989 . S
N17 C16 1.342 . S
N17 N18 1.388 . S
N18 Co1 1.993 . S
N18 N17 1.388 . S
N18 C19 1.346 . S
C19 N18 1.346 . S
C19 C20 1.396 . S
C19 C29 1.510 . S
C20 C16 1.401 . S
C20 C19 1.396 . S
C21 C16 1.499 . S
C21 H22 0.959 . S
C21 H23 0.960 . S
C21 H24 0.961 . S
H22 C21 0.959 . S
H23 C21 0.960 . S
H24 C21 0.961 . S
O25 Co0 1.967 . S
O25 C33 1.258 . S
O26 Co1 1.941 . S
O26 C33 1.266 . S
H27 C29 0.959 . S
H28 C29 0.961 . S
C29 C19 1.510 . S
C29 H27 0.959 . S
C29 H28 0.961 . S
C29 H30 0.960 . S
H30 C29 0.960 . S
H31 N11 0.862 . S
O32 Co0 1.920 . S
O32 C5 1.289 . S
C33 O25 1.258 . S
C33 O26 1.266 . S
Co34 O37 1.970 . S
Co34 N51 1.989 . S
Co34 O59 1.967 . S
Co34 O66 1.920 . S
Co35 O38 1.966 . S
Co35 N44 2.022 . S
Co35 N52 1.993 . S
Co35 O60 1.941 . S
C36 O37 1.258 . S
C36 O38 1.263 . S
O37 Co34 1.970 . S
O37 C36 1.258 . S
O38 Co35 1.966 . S
O38 C36 1.263 . S
C39 O40 1.235 . S
C39 O66 1.289 . S
O40 C39 1.235 . S
C41 C43 1.400 . S
C41 N44 1.351 . S
C41 C46 1.501 . S
C42 C43 1.387 . S
C42 N45 1.341 . S
C43 C41 1.400 . S
C43 C42 1.387 . S
N44 Co35 2.022 . S
N44 C41 1.351 . S
N44 N45 1.365 . S
N45 C42 1.341 . S
N45 N44 1.365 . S
N45 H65 0.862 . S
C46 C41 1.501 . S
C46 H47 0.961 . S
C46 H48 0.961 . S
C46 H49 0.960 . S
H47 C46 0.961 . S
H48 C46 0.961 . S
H49 C46 0.960 . S
C50 N51 1.342 . S
C50 C54 1.401 . S
C50 C55 1.499 . S
N51 Co34 1.989 . S
N51 C50 1.342 . S
N51 N52 1.388 . S
N52 Co35 1.993 . S
N52 N51 1.388 . S
N52 C53 1.346 . S
C53 N52 1.346 . S
C53 C54 1.396 . S
C53 C63 1.510 . S
C54 C50 1.401 . S
C54 C53 1.396 . S
C55 C50 1.499 . S
C55 H56 0.959 . S
C55 H57 0.960 . S
C55 H58 0.961 . S
H56 C55 0.959 . S
H57 C55 0.960 . S
H58 C55 0.961 . S
O59 Co34 1.967 . S
O59 C67 1.258 . S
O60 Co35 1.941 . S
O60 C67 1.266 . S
H61 C63 0.959 . S
H62 C63 0.961 . S
C63 C53 1.510 . S
C63 H61 0.959 . S
C63 H62 0.961 . S
C63 H64 0.960 . S
H64 C63 0.960 . S
H65 N45 0.862 . S
O66 Co34 1.920 . S
O66 C39 1.289 . S
C67 O59 1.258 . S
C67 O60 1.266 . S
Co68 O71 1.970 . S
Co68 N85 1.989 . S
Co68 O93 1.967 . S
Co68 O100 1.920 . S
Co69 O72 1.966 . S
Co69 N78 2.022 . S
Co69 N86 1.993 . S
Co69 O94 1.941 . S
C70 O71 1.258 . S
C70 O72 1.263 . S
O71 Co68 1.970 . S
O71 C70 1.258 . S
O72 Co69 1.966 . S
O72 C70 1.263 . S
C73 O74 1.235 . S
C73 O100 1.289 . S
O74 C73 1.235 . S
C75 C77 1.400 . S
C75 N78 1.351 . S
C75 C80 1.501 . S
C76 C77 1.388 . S
C76 N79 1.340 . S
C77 C75 1.400 . S
C77 C76 1.388 . S
N78 Co69 2.022 . S
N78 C75 1.351 . S
N78 N79 1.365 . S
N79 C76 1.340 . S
N79 N78 1.365 . S
N79 H99 0.862 . S
C80 C75 1.501 . S
C80 H81 0.961 . S
C80 H82 0.961 . S
C80 H83 0.960 . S
H81 C80 0.961 . S
H82 C80 0.961 . S
H83 C80 0.960 . S
C84 N85 1.342 . S
C84 C88 1.401 . S
C84 C89 1.499 . S
N85 Co68 1.989 . S
N85 C84 1.342 . S
N85 N86 1.388 . S
N86 Co69 1.993 . S
N86 N85 1.388 . S
N86 C87 1.346 . S
C87 N86 1.346 . S
C87 C88 1.396 . S
C87 C97 1.510 . S
C88 C84 1.401 . S
C88 C87 1.396 . S
C89 C84 1.499 . S
C89 H90 0.959 . S
C89 H91 0.960 . S
C89 H92 0.961 . S
H90 C89 0.959 . S
H91 C89 0.960 . S
H92 C89 0.961 . S
O93 Co68 1.967 . S
O93 C101 1.258 . S
O94 Co69 1.941 . S
O94 C101 1.266 . S
H95 C97 0.959 . S
H96 C97 0.961 . S
C97 C87 1.510 . S
C97 H95 0.959 . S
C97 H96 0.961 . S
C97 H98 0.960 . S
H98 C97 0.960 . S
H99 N79 0.862 . S
O100 Co68 1.920 . S
O100 C73 1.289 . S
C101 O93 1.258 . S
C101 O94 1.266 . S
Co102 O105 1.970 . S
Co102 N119 1.989 . S
Co102 O127 1.967 . S
Co102 O134 1.920 . S
Co103 O106 1.966 . S
Co103 N112 2.022 . S
Co103 N120 1.993 . S
Co103 O128 1.941 . S
C104 O105 1.258 . S
C104 O106 1.263 . S
O105 Co102 1.970 . S
O105 C104 1.258 . S
O106 Co103 1.966 . S
O106 C104 1.263 . S
C107 O108 1.235 . S
C107 O134 1.289 . S
O108 C107 1.235 . S
C109 C111 1.400 . S
C109 N112 1.351 . S
C109 C114 1.501 . S
C110 C111 1.387 1_565 S
C110 N113 1.341 . S
C111 C109 1.400 . S
C111 C110 1.387 1_545 S
N112 Co103 2.022 . S
N112 C109 1.351 . S
N112 N113 1.365 1_545 S
N113 C110 1.341 . S
N113 N112 1.365 1_565 S
N113 H133 0.862 . S
C114 C109 1.501 . S
C114 H115 0.961 . S
C114 H116 0.961 . S
C114 H117 0.960 . S
H115 C114 0.961 . S
H116 C114 0.961 . S
H117 C114 0.960 . S
C118 N119 1.342 . S
C118 C122 1.401 . S
C118 C123 1.499 . S
N119 Co102 1.989 . S
N119 C118 1.342 . S
N119 N120 1.388 . S
N120 Co103 1.993 . S
N120 N119 1.388 . S
N120 C121 1.346 . S
C121 N120 1.346 . S
C121 C122 1.396 . S
C121 C131 1.510 . S
C122 C118 1.401 . S
C122 C121 1.396 . S
C123 C118 1.499 . S
C123 H124 0.959 . S
C123 H125 0.960 . S
C123 H126 0.961 . S
H124 C123 0.959 . S
H125 C123 0.960 . S
H126 C123 0.961 . S
O127 Co102 1.967 . S
O127 C135 1.258 . S
O128 Co103 1.941 . S
O128 C135 1.266 . S
H129 C131 0.959 . S
H130 C131 0.961 . S
C131 C121 1.510 . S
C131 H129 0.959 . S
C131 H130 0.961 . S
C131 H132 0.960 . S
H132 C131 0.960 . S
H133 N113 0.862 . S
O134 Co102 1.920 . S
O134 C107 1.289 . S
C135 O127 1.258 . S
C135 O128 1.266 . S
Co136 O139 1.970 . S
Co136 N153 1.989 . S
Co136 O161 1.967 . S
Co136 O168 1.920 . S
Co137 O140 1.966 . S
Co137 N146 2.022 . S
Co137 N154 1.993 . S
Co137 O162 1.941 . S
C138 O139 1.258 . S
C138 O140 1.263 . S
O139 Co136 1.970 . S
O139 C138 1.258 . S
O140 Co137 1.966 . S
O140 C138 1.263 . S
C141 O142 1.235 . S
C141 O168 1.289 . S
O142 C141 1.235 . S
C143 C145 1.400 . S
C143 N146 1.351 . S
C143 C148 1.501 . S
C144 C145 1.388 . S
C144 N147 1.340 . S
C145 C143 1.400 . S
C145 C144 1.388 . S
N146 Co137 2.022 . S
N146 C143 1.351 . S
N146 N147 1.365 . S
N147 C144 1.340 . S
N147 N146 1.365 . S
N147 H167 0.862 . S
C148 C143 1.501 . S
C148 H149 0.961 . S
C148 H150 0.961 . S
C148 H151 0.960 . S
H149 C148 0.961 . S
H150 C148 0.961 . S
H151 C148 0.960 . S
C152 N153 1.342 . S
C152 C156 1.401 . S
C152 C157 1.499 . S
N153 Co136 1.989 . S
N153 C152 1.342 . S
N153 N154 1.388 . S
N154 Co137 1.993 . S
N154 N153 1.388 . S
N154 C155 1.346 . S
C155 N154 1.346 . S
C155 C156 1.396 . S
C155 C165 1.510 . S
C156 C152 1.401 . S
C156 C155 1.396 . S
C157 C152 1.499 . S
C157 H158 0.959 . S
C157 H159 0.960 . S
C157 H160 0.961 . S
H158 C157 0.959 . S
H159 C157 0.960 . S
H160 C157 0.961 . S
O161 Co136 1.967 . S
O161 C169 1.258 . S
O162 Co137 1.941 . S
O162 C169 1.266 . S
H163 C165 0.959 . S
H164 C165 0.961 . S
C165 C155 1.510 . S
C165 H163 0.959 . S
C165 H164 0.961 . S
C165 H166 0.960 . S
H166 C165 0.960 . S
H167 N147 0.862 . S
O168 Co136 1.920 . S
O168 C141 1.289 . S
C169 O161 1.258 . S
C169 O162 1.266 . S
Co170 O173 1.970 . S
Co170 N187 1.989 . S
Co170 O195 1.967 . S
Co170 O202 1.920 . S
Co171 O174 1.966 . S
Co171 N180 2.022 . S
Co171 N188 1.993 . S
Co171 O196 1.941 . S
C172 O173 1.258 . S
C172 O174 1.263 . S
O173 Co170 1.970 . S
O173 C172 1.258 . S
O174 Co171 1.966 . S
O174 C172 1.263 . S
C175 O176 1.235 . S
C175 O202 1.289 . S
O176 C175 1.235 . S
C177 C179 1.400 . S
C177 N180 1.351 . S
C177 C182 1.501 . S
C178 C179 1.387 . S
C178 N181 1.341 . S
C179 C177 1.400 . S
C179 C178 1.387 . S
N180 Co171 2.022 . S
N180 C177 1.351 . S
N180 N181 1.365 . S
N181 C178 1.341 . S
N181 N180 1.365 . S
N181 H201 0.862 . S
C182 C177 1.501 . S
C182 H183 0.961 . S
C182 H184 0.961 . S
C182 H185 0.960 . S
H183 C182 0.961 . S
H184 C182 0.961 . S
H185 C182 0.960 . S
C186 N187 1.342 . S
C186 C190 1.401 . S
C186 C191 1.499 . S
N187 Co170 1.989 . S
N187 C186 1.342 . S
N187 N188 1.388 . S
N188 Co171 1.993 . S
N188 N187 1.388 . S
N188 C189 1.346 . S
C189 N188 1.346 . S
C189 C190 1.396 . S
C189 C199 1.510 . S
C190 C186 1.401 . S
C190 C189 1.396 . S
C191 C186 1.499 . S
C191 H192 0.959 . S
C191 H193 0.960 . S
C191 H194 0.961 . S
H192 C191 0.959 . S
H193 C191 0.960 . S
H194 C191 0.961 . S
O195 Co170 1.967 . S
O195 C203 1.258 . S
O196 Co171 1.941 . S
O196 C203 1.266 . S
H197 C199 0.959 . S
H198 C199 0.961 . S
C199 C189 1.510 . S
C199 H197 0.959 . S
C199 H198 0.961 . S
C199 H200 0.960 . S
H200 C199 0.960 . S
H201 N181 0.862 . S
O202 Co170 1.920 . S
O202 C175 1.289 . S
C203 O195 1.258 . S
C203 O196 1.266 . S
Co204 O207 1.970 . S
Co204 N221 1.989 . S
Co204 O229 1.967 . S
Co204 O236 1.920 . S
Co205 O208 1.966 . S
Co205 N214 2.022 . S
Co205 N222 1.993 . S
Co205 O230 1.941 . S
C206 O207 1.258 . S
C206 O208 1.263 . S
O207 Co204 1.970 . S
O207 C206 1.258 . S
O208 Co205 1.966 . S
O208 C206 1.263 . S
C209 O210 1.235 . S
C209 O236 1.289 . S
O210 C209 1.235 . S
C211 C213 1.400 . S
C211 N214 1.351 . S
C211 C216 1.501 . S
C212 C213 1.387 . S
C212 N215 1.341 . S
C213 C211 1.400 . S
C213 C212 1.387 . S
N214 Co205 2.022 . S
N214 C211 1.351 . S
N214 N215 1.365 . S
N215 C212 1.341 . S
N215 N214 1.365 . S
N215 H235 0.862 . S
C216 C211 1.501 . S
C216 H217 0.961 . S
C216 H218 0.961 . S
C216 H219 0.960 . S
H217 C216 0.961 . S
H218 C216 0.961 . S
H219 C216 0.960 . S
C220 N221 1.342 . S
C220 C224 1.401 . S
C220 C225 1.499 . S
N221 Co204 1.989 . S
N221 C220 1.342 . S
N221 N222 1.388 . S
N222 Co205 1.993 . S
N222 N221 1.388 . S
N222 C223 1.346 . S
C223 N222 1.346 . S
C223 C224 1.396 . S
C223 C233 1.510 . S
C224 C220 1.401 . S
C224 C223 1.396 . S
C225 C220 1.499 . S
C225 H226 0.959 . S
C225 H227 0.960 . S
C225 H228 0.961 . S
H226 C225 0.959 . S
H227 C225 0.960 . S
H228 C225 0.961 . S
O229 Co204 1.967 . S
O229 C237 1.258 . S
O230 Co205 1.941 . S
O230 C237 1.266 . S
H231 C233 0.959 . S
H232 C233 0.961 . S
C233 C223 1.510 . S
C233 H231 0.959 . S
C233 H232 0.961 . S
C233 H234 0.960 . S
H234 C233 0.960 . S
H235 N215 0.862 . S
O236 Co204 1.920 . S
O236 C209 1.289 . S
C237 O229 1.258 . S
C237 O230 1.266 . S
Co238 O241 1.970 . S
Co238 N255 1.989 . S
Co238 O263 1.967 . S
Co238 O270 1.920 . S
Co239 O242 1.966 . S
Co239 N248 2.022 . S
Co239 N256 1.993 . S
Co239 O264 1.941 . S
C240 O241 1.258 . S
C240 O242 1.263 . S
O241 Co238 1.970 . S
O241 C240 1.258 . S
O242 Co239 1.966 . S
O242 C240 1.263 . S
C243 O244 1.235 . S
C243 O270 1.289 . S
O244 C243 1.235 . S
C245 C247 1.400 . S
C245 N248 1.351 . S
C245 C250 1.501 . S
C246 C247 1.387 . S
C246 N249 1.341 . S
C247 C245 1.400 . S
C247 C246 1.387 . S
N248 Co239 2.022 . S
N248 C245 1.351 . S
N248 N249 1.365 . S
N249 C246 1.341 . S
N249 N248 1.365 . S
N249 H269 0.862 . S
C250 C245 1.501 . S
C250 H251 0.961 . S
C250 H252 0.961 . S
C250 H253 0.960 . S
H251 C250 0.961 . S
H252 C250 0.961 . S
H253 C250 0.960 . S
C254 N255 1.342 . S
C254 C258 1.401 . S
C254 C259 1.499 . S
N255 Co238 1.989 . S
N255 C254 1.342 . S
N255 N256 1.388 . S
N256 Co239 1.993 . S
N256 N255 1.388 . S
N256 C257 1.346 . S
C257 N256 1.346 . S
C257 C258 1.396 . S
C257 C267 1.510 . S
C258 C254 1.401 . S
C258 C257 1.396 . S
C259 C254 1.499 . S
C259 H260 0.959 . S
C259 H261 0.960 . S
C259 H262 0.961 . S
H260 C259 0.959 . S
H261 C259 0.960 . S
H262 C259 0.961 . S
O263 Co238 1.967 . S
O263 C271 1.258 . S
O264 Co239 1.941 . S
O264 C271 1.266 . S
H265 C267 0.959 . S
H266 C267 0.961 . S
C267 C257 1.510 . S
C267 H265 0.959 . S
C267 H266 0.961 . S
C267 H268 0.960 . S
H268 C267 0.960 . S
H269 N249 0.862 . S
O270 Co238 1.920 . S
O270 C243 1.289 . S
C271 O263 1.258 . S
C271 O264 1.266 . S
Co272 O275 1.970 . S
Co272 N289 1.989 . S
Co272 O297 1.967 . S
Co272 O304 1.920 . S
Co273 O276 1.966 . S
Co273 N282 2.022 . S
Co273 N290 1.993 . S
Co273 O298 1.941 . S
C274 O275 1.258 . S
C274 O276 1.263 . S
O275 Co272 1.970 . S
O275 C274 1.258 . S
O276 Co273 1.966 . S
O276 C274 1.263 . S
C277 O278 1.235 . S
C277 O304 1.289 . S
O278 C277 1.235 . S
C279 C281 1.400 . S
C279 N282 1.351 . S
C279 C284 1.501 . S
C280 C281 1.387 . S
C280 N283 1.341 . S
C281 C279 1.400 . S
C281 C280 1.387 . S
N282 Co273 2.022 . S
N282 C279 1.351 . S
N282 N283 1.365 . S
N283 C280 1.341 . S
N283 N282 1.365 . S
N283 H303 0.862 . S
C284 C279 1.501 . S
C284 H285 0.961 . S
C284 H286 0.961 . S
C284 H287 0.960 . S
H285 C284 0.961 . S
H286 C284 0.961 . S
H287 C284 0.960 . S
C288 N289 1.342 . S
C288 C292 1.401 . S
C288 C293 1.499 . S
N289 Co272 1.989 . S
N289 C288 1.342 . S
N289 N290 1.388 . S
N290 Co273 1.993 . S
N290 N289 1.388 . S
N290 C291 1.346 . S
C291 N290 1.346 . S
C291 C292 1.396 . S
C291 C301 1.510 . S
C292 C288 1.401 . S
C292 C291 1.396 . S
C293 C288 1.499 . S
C293 H294 0.959 . S
C293 H295 0.960 . S
C293 H296 0.961 . S
H294 C293 0.959 . S
H295 C293 0.960 . S
H296 C293 0.961 . S
O297 Co272 1.967 . S
O297 C305 1.258 . S
O298 Co273 1.941 . S
O298 C305 1.266 . S
H299 C301 0.959 . S
H300 C301 0.961 . S
C301 C291 1.510 . S
C301 H299 0.959 . S
C301 H300 0.961 . S
C301 H302 0.960 . S
H302 C301 0.960 . S
H303 N283 0.862 . S
O304 Co272 1.920 . S
O304 C277 1.289 . S
C305 O297 1.258 . S
C305 O298 1.266 . S
Co306 O309 1.970 . S
Co306 N323 1.989 . S
Co306 O331 1.967 . S
Co306 O338 1.920 . S
Co307 O310 1.966 . S
Co307 N316 2.022 . S
Co307 N324 1.993 . S
Co307 O332 1.941 . S
C308 O309 1.258 . S
C308 O310 1.263 . S
O309 Co306 1.970 . S
O309 C308 1.258 . S
O310 Co307 1.966 . S
O310 C308 1.263 . S
C311 O312 1.235 . S
C311 O338 1.289 . S
O312 C311 1.235 . S
C313 C315 1.400 . S
C313 N316 1.351 . S
C313 C318 1.501 . S
C314 C315 1.387 . S
C314 N317 1.341 . S
C315 C313 1.400 . S
C315 C314 1.387 . S
N316 Co307 2.022 . S
N316 C313 1.351 . S
N316 N317 1.365 . S
N317 C314 1.341 . S
N317 N316 1.365 . S
N317 H337 0.862 . S
C318 C313 1.501 . S
C318 H319 0.961 . S
C318 H320 0.961 . S
C318 H321 0.960 . S
H319 C318 0.961 . S
H320 C318 0.961 . S
H321 C318 0.960 . S
C322 N323 1.342 . S
C322 C326 1.401 . S
C322 C327 1.499 . S
N323 Co306 1.989 . S
N323 C322 1.342 . S
N323 N324 1.388 . S
N324 Co307 1.993 . S
N324 N323 1.388 . S
N324 C325 1.346 . S
C325 N324 1.346 . S
C325 C326 1.396 . S
C325 C335 1.510 . S
C326 C322 1.401 . S
C326 C325 1.396 . S
C327 C322 1.499 . S
C327 H328 0.959 . S
C327 H329 0.960 . S
C327 H330 0.961 . S
H328 C327 0.959 . S
H329 C327 0.960 . S
H330 C327 0.961 . S
O331 Co306 1.967 . S
O331 C339 1.258 . S
O332 Co307 1.941 . S
O332 C339 1.266 . S
H333 C335 0.959 . S
H334 C335 0.961 . S
C335 C325 1.510 . S
C335 H333 0.959 . S
C335 H334 0.961 . S
C335 H336 0.960 . S
H336 C335 0.960 . S
H337 N317 0.862 . S
O338 Co306 1.920 . S
O338 C311 1.289 . S
C339 O331 1.258 . S
C339 O332 1.266 . S
Co340 O343 1.970 . S
Co340 N357 1.989 . S
Co340 O365 1.967 . S
Co340 O372 1.920 . S
Co341 O344 1.966 . S
Co341 N350 2.022 . S
Co341 N358 1.993 . S
Co341 O366 1.941 . S
C342 O343 1.258 . S
C342 O344 1.263 . S
O343 Co340 1.970 . S
O343 C342 1.258 . S
O344 Co341 1.966 . S
O344 C342 1.263 . S
C345 O346 1.235 . S
C345 O372 1.289 . S
O346 C345 1.235 . S
C347 C349 1.400 . S
C347 N350 1.351 . S
C347 C352 1.501 . S
C348 C349 1.387 . S
C348 N351 1.341 . S
C349 C347 1.400 . S
C349 C348 1.387 . S
N350 Co341 2.022 . S
N350 C347 1.351 . S
N350 N351 1.365 . S
N351 C348 1.341 . S
N351 N350 1.365 . S
N351 H371 0.862 . S
C352 C347 1.501 . S
C352 H353 0.961 . S
C352 H354 0.961 . S
C352 H355 0.960 . S
H353 C352 0.961 . S
H354 C352 0.961 . S
H355 C352 0.960 . S
C356 N357 1.342 . S
C356 C360 1.401 . S
C356 C361 1.499 . S
N357 Co340 1.989 . S
N357 C356 1.342 . S
N357 N358 1.388 . S
N358 Co341 1.993 . S
N358 N357 1.388 . S
N358 C359 1.346 . S
C359 N358 1.346 . S
C359 C360 1.396 . S
C359 C369 1.510 . S
C360 C356 1.401 . S
C360 C359 1.396 . S
C361 C356 1.499 . S
C361 H362 0.959 . S
C361 H363 0.960 . S
C361 H364 0.961 . S
H362 C361 0.959 . S
H363 C361 0.960 . S
H364 C361 0.961 . S
O365 Co340 1.967 . S
O365 C373 1.258 . S
O366 Co341 1.941 . S
O366 C373 1.266 . S
H367 C369 0.959 . S
H368 C369 0.961 . S
C369 C359 1.510 . S
C369 H367 0.959 . S
C369 H368 0.961 . S
C369 H370 0.960 . S
H370 C369 0.960 . S
H371 N351 0.862 . S
O372 Co340 1.920 . S
O372 C345 1.289 . S
C373 O365 1.258 . S
C373 O366 1.266 . S
Co374 O377 1.970 . S
Co374 N391 1.989 . S
Co374 O399 1.967 . S
Co374 O406 1.920 . S
Co375 O378 1.966 . S
Co375 N384 2.022 . S
Co375 N392 1.993 . S
Co375 O400 1.941 . S
C376 O377 1.258 . S
C376 O378 1.263 . S
O377 Co374 1.970 . S
O377 C376 1.258 . S
O378 Co375 1.966 . S
O378 C376 1.263 . S
C379 O380 1.235 . S
C379 O406 1.289 . S
O380 C379 1.235 . S
C381 C383 1.400 . S
C381 N384 1.351 . S
C381 C386 1.501 . S
C382 C383 1.387 . S
C382 N385 1.341 . S
C383 C381 1.400 . S
C383 C382 1.387 . S
N384 Co375 2.022 . S
N384 C381 1.351 . S
N384 N385 1.365 . S
N385 C382 1.341 . S
N385 N384 1.365 . S
N385 H405 0.862 . S
C386 C381 1.501 . S
C386 H387 0.961 . S
C386 H388 0.961 . S
C386 H389 0.960 . S
H387 C386 0.961 . S
H388 C386 0.961 . S
H389 C386 0.960 . S
C390 N391 1.342 . S
C390 C394 1.401 . S
C390 C395 1.499 . S
N391 Co374 1.989 . S
N391 C390 1.342 . S
N391 N392 1.388 . S
N392 Co375 1.993 . S
N392 N391 1.388 . S
N392 C393 1.346 . S
C393 N392 1.346 . S
C393 C394 1.396 . S
C393 C403 1.510 . S
C394 C390 1.401 . S
C394 C393 1.396 . S
C395 C390 1.499 . S
C395 H396 0.959 . S
C395 H397 0.960 . S
C395 H398 0.961 . S
H396 C395 0.959 . S
H397 C395 0.960 . S
H398 C395 0.961 . S
O399 Co374 1.967 . S
O399 C407 1.258 . S
O400 Co375 1.941 . S
O400 C407 1.266 . S
H401 C403 0.959 . S
H402 C403 0.961 . S
C403 C393 1.510 . S
C403 H401 0.959 . S
C403 H402 0.961 . S
C403 H404 0.960 . S
H404 C403 0.960 . S
H405 N385 0.862 . S
O406 Co374 1.920 . S
O406 C379 1.289 . S
C407 O399 1.258 . S
C407 O400 1.266 . S
Co408 O411 1.970 . S
Co408 N425 1.989 . S
Co408 O433 1.967 . S
Co408 O440 1.920 . S
Co409 O412 1.966 . S
Co409 N418 2.022 . S
Co409 N426 1.993 . S
Co409 O434 1.941 . S
C410 O411 1.258 . S
C410 O412 1.263 . S
O411 Co408 1.970 . S
O411 C410 1.258 . S
O412 Co409 1.966 . S
O412 C410 1.263 . S
C413 O414 1.235 . S
C413 O440 1.289 . S
O414 C413 1.235 . S
C415 C417 1.400 . S
C415 N418 1.351 . S
C415 C420 1.501 . S
C416 C417 1.387 . S
C416 N419 1.341 . S
C417 C415 1.400 . S
C417 C416 1.387 . S
N418 Co409 2.022 . S
N418 C415 1.351 . S
N418 N419 1.365 . S
N419 C416 1.341 . S
N419 N418 1.365 . S
N419 H439 0.862 . S
C420 C415 1.501 . S
C420 H421 0.961 . S
C420 H422 0.961 . S
C420 H423 0.960 . S
H421 C420 0.961 . S
H422 C420 0.961 . S
H423 C420 0.960 . S
C424 N425 1.342 . S
C424 C428 1.401 . S
C424 C429 1.499 . S
N425 Co408 1.989 . S
N425 C424 1.342 . S
N425 N426 1.388 . S
N426 Co409 1.993 . S
N426 N425 1.388 . S
N426 C427 1.346 . S
C427 N426 1.346 . S
C427 C428 1.396 . S
C427 C437 1.510 . S
C428 C424 1.401 . S
C428 C427 1.396 . S
C429 C424 1.499 . S
C429 H430 0.959 . S
C429 H431 0.960 . S
C429 H432 0.961 . S
H430 C429 0.959 . S
H431 C429 0.960 . S
H432 C429 0.961 . S
O433 Co408 1.967 . S
O433 C441 1.258 . S
O434 Co409 1.941 . S
O434 C441 1.266 . S
H435 C437 0.959 . S
H436 C437 0.961 . S
C437 C427 1.510 . S
C437 H435 0.959 . S
C437 H436 0.961 . S
C437 H438 0.960 . S
H438 C437 0.960 . S
H439 N419 0.862 . S
O440 Co408 1.920 . S
O440 C413 1.289 . S
C441 O433 1.258 . S
C441 O434 1.266 . S
Co442 O445 1.970 . S
Co442 N459 1.989 . S
Co442 O467 1.967 . S
Co442 O474 1.920 . S
Co443 O446 1.966 . S
Co443 N452 2.022 . S
Co443 N460 1.993 . S
Co443 O468 1.941 . S
C444 O445 1.258 . S
C444 O446 1.263 . S
O445 Co442 1.970 . S
O445 C444 1.258 . S
O446 Co443 1.966 . S
O446 C444 1.263 . S
C447 O448 1.235 . S
C447 O474 1.289 . S
O448 C447 1.235 . S
C449 C451 1.400 . S
C449 N452 1.351 . S
C449 C454 1.501 . S
C450 C451 1.387 . S
C450 N453 1.341 . S
C451 C449 1.400 . S
C451 C450 1.387 . S
N452 Co443 2.022 . S
N452 C449 1.351 . S
N452 N453 1.365 . S
N453 C450 1.341 . S
N453 N452 1.365 . S
N453 H473 0.862 . S
C454 C449 1.501 . S
C454 H455 0.961 . S
C454 H456 0.961 . S
C454 H457 0.960 . S
H455 C454 0.961 . S
H456 C454 0.961 . S
H457 C454 0.960 . S
C458 N459 1.342 . S
C458 C462 1.401 . S
C458 C463 1.499 . S
N459 Co442 1.989 . S
N459 C458 1.342 . S
N459 N460 1.388 . S
N460 Co443 1.993 . S
N460 N459 1.388 . S
N460 C461 1.346 . S
C461 N460 1.346 . S
C461 C462 1.396 . S
C461 C471 1.510 . S
C462 C458 1.401 . S
C462 C461 1.396 . S
C463 C458 1.499 . S
C463 H464 0.959 . S
C463 H465 0.960 . S
C463 H466 0.961 . S
H464 C463 0.959 . S
H465 C463 0.960 . S
H466 C463 0.961 . S
O467 Co442 1.967 . S
O467 C475 1.258 . S
O468 Co443 1.941 . S
O468 C475 1.266 . S
H469 C471 0.959 . S
H470 C471 0.961 . S
C471 C461 1.510 . S
C471 H469 0.959 . S
C471 H470 0.961 . S
C471 H472 0.960 . S
H472 C471 0.960 . S
H473 N453 0.862 . S
O474 Co442 1.920 . S
O474 C447 1.289 . S
C475 O467 1.258 . S
C475 O468 1.266 . S
Co476 O479 1.970 . S
Co476 N493 1.989 . S
Co476 O501 1.967 . S
Co476 O508 1.920 . S
Co477 O480 1.966 . S
Co477 N486 2.022 . S
Co477 N494 1.993 . S
Co477 O502 1.941 . S
C478 O479 1.258 . S
C478 O480 1.263 . S
O479 Co476 1.970 . S
O479 C478 1.258 . S
O480 Co477 1.966 . S
O480 C478 1.263 . S
C481 O482 1.235 . S
C481 O508 1.289 . S
O482 C481 1.235 . S
C483 C485 1.400 . S
C483 N486 1.351 . S
C483 C488 1.501 . S
C484 C485 1.387 . S
C484 N487 1.341 . S
C485 C483 1.400 . S
C485 C484 1.387 . S
N486 Co477 2.022 . S
N486 C483 1.351 . S
N486 N487 1.365 . S
N487 C484 1.341 . S
N487 N486 1.365 . S
N487 H507 0.862 . S
C488 C483 1.501 . S
C488 H489 0.961 . S
C488 H490 0.961 . S
C488 H491 0.960 . S
H489 C488 0.961 . S
H490 C488 0.961 . S
H491 C488 0.960 . S
C492 N493 1.342 . S
C492 C496 1.401 . S
C492 C497 1.499 . S
N493 Co476 1.989 . S
N493 C492 1.342 . S
N493 N494 1.388 . S
N494 Co477 1.993 . S
N494 N493 1.388 . S
N494 C495 1.346 . S
C495 N494 1.346 . S
C495 C496 1.396 . S
C495 C505 1.510 . S
C496 C492 1.401 . S
C496 C495 1.396 . S
C497 C492 1.499 . S
C497 H498 0.959 . S
C497 H499 0.960 . S
C497 H500 0.961 . S
H498 C497 0.959 . S
H499 C497 0.960 . S
H500 C497 0.961 . S
O501 Co476 1.967 . S
O501 C509 1.258 . S
O502 Co477 1.941 . S
O502 C509 1.266 . S
H503 C505 0.959 . S
H504 C505 0.961 . S
C505 C495 1.510 . S
C505 H503 0.959 . S
C505 H504 0.961 . S
C505 H506 0.960 . S
H506 C505 0.960 . S
H507 N487 0.862 . S
O508 Co476 1.920 . S
O508 C481 1.289 . S
C509 O501 1.258 . S
C509 O502 1.266 . S
Co510 O513 1.970 . S
Co510 N527 1.989 . S
Co510 O535 1.967 . S
Co510 O542 1.920 . S
Co511 O514 1.966 . S
Co511 N520 2.022 . S
Co511 N528 1.993 . S
Co511 O536 1.941 . S
C512 O513 1.258 . S
C512 O514 1.263 . S
O513 Co510 1.970 . S
O513 C512 1.258 . S
O514 Co511 1.966 . S
O514 C512 1.263 . S
C515 O516 1.235 . S
C515 O542 1.289 . S
O516 C515 1.235 . S
C517 C519 1.400 . S
C517 N520 1.351 . S
C517 C522 1.501 . S
C518 C519 1.387 . S
C518 N521 1.341 . S
C519 C517 1.400 . S
C519 C518 1.387 . S
N520 Co511 2.022 . S
N520 C517 1.351 . S
N520 N521 1.365 . S
N521 C518 1.341 . S
N521 N520 1.365 . S
N521 H541 0.862 . S
C522 C517 1.501 . S
C522 H523 0.961 . S
C522 H524 0.961 . S
C522 H525 0.960 . S
H523 C522 0.961 . S
H524 C522 0.961 . S
H525 C522 0.960 . S
C526 N527 1.342 . S
C526 C530 1.401 . S
C526 C531 1.499 . S
N527 Co510 1.989 . S
N527 C526 1.342 . S
N527 N528 1.388 . S
N528 Co511 1.993 . S
N528 N527 1.388 . S
N528 C529 1.346 . S
C529 N528 1.346 . S
C529 C530 1.396 . S
C529 C539 1.510 . S
C530 C526 1.401 . S
C530 C529 1.396 . S
C531 C526 1.499 . S
C531 H532 0.959 . S
C531 H533 0.960 . S
C531 H534 0.961 . S
H532 C531 0.959 . S
H533 C531 0.960 . S
H534 C531 0.961 . S
O535 Co510 1.967 . S
O535 C543 1.258 . S
O536 Co511 1.941 . S
O536 C543 1.266 . S
H537 C539 0.959 . S
H538 C539 0.961 . S
C539 C529 1.510 . S
C539 H537 0.959 . S
C539 H538 0.961 . S
C539 H540 0.960 . S
H540 C539 0.960 . S
H541 N521 0.862 . S
O542 Co510 1.920 . S
O542 C515 1.289 . S
C543 O535 1.258 . S
C543 O536 1.266 . S
Co544 O547 1.970 . S
Co544 N561 1.989 . S
Co544 O569 1.967 . S
Co544 O576 1.920 . S
Co545 O548 1.966 . S
Co545 N554 2.022 . S
Co545 N562 1.993 . S
Co545 O570 1.941 . S
C546 O547 1.258 . S
C546 O548 1.263 . S
O547 Co544 1.970 . S
O547 C546 1.258 . S
O548 Co545 1.966 . S
O548 C546 1.263 . S
C549 O550 1.235 . S
C549 O576 1.289 . S
O550 C549 1.235 . S
C551 C553 1.400 . S
C551 N554 1.351 . S
C551 C556 1.501 . S
C552 C553 1.387 . S
C552 N555 1.341 . S
C553 C551 1.400 . S
C553 C552 1.387 . S
N554 Co545 2.022 . S
N554 C551 1.351 . S
N554 N555 1.365 . S
N555 C552 1.341 . S
N555 N554 1.365 . S
N555 H575 0.862 . S
C556 C551 1.501 . S
C556 H557 0.961 . S
C556 H558 0.961 . S
C556 H559 0.960 . S
H557 C556 0.961 . S
H558 C556 0.961 . S
H559 C556 0.960 . S
C560 N561 1.342 . S
C560 C564 1.401 . S
C560 C565 1.499 . S
N561 Co544 1.989 . S
N561 C560 1.342 . S
N561 N562 1.388 . S
N562 Co545 1.993 . S
N562 N561 1.388 . S
N562 C563 1.346 . S
C563 N562 1.346 . S
C563 C564 1.396 . S
C563 C573 1.510 . S
C564 C560 1.401 . S
C564 C563 1.396 . S
C565 C560 1.499 . S
C565 H566 0.959 . S
C565 H567 0.960 . S
C565 H568 0.961 . S
H566 C565 0.959 . S
H567 C565 0.960 . S
H568 C565 0.961 . S
O569 Co544 1.967 . S
O569 C577 1.258 . S
O570 Co545 1.941 . S
O570 C577 1.266 . S
H571 C573 0.959 . S
H572 C573 0.961 . S
C573 C563 1.510 . S
C573 H571 0.959 . S
C573 H572 0.961 . S
C573 H574 0.960 . S
H574 C573 0.960 . S
H575 N555 0.862 . S
O576 Co544 1.920 . S
O576 C549 1.289 . S
C577 O569 1.258 . S
C577 O570 1.266 . S
Co578 O581 1.970 . S
Co578 N595 1.989 . S
Co578 O603 1.967 . S
Co578 O610 1.920 . S
Co579 O582 1.966 . S
Co579 N588 2.022 . S
Co579 N596 1.993 . S
Co579 O604 1.941 . S
C580 O581 1.258 . S
C580 O582 1.263 . S
O581 Co578 1.970 . S
O581 C580 1.258 . S
O582 Co579 1.966 . S
O582 C580 1.263 . S
C583 O584 1.235 . S
C583 O610 1.289 . S
O584 C583 1.235 . S
C585 C587 1.400 . S
C585 N588 1.351 . S
C585 C590 1.501 . S
C586 C587 1.387 . S
C586 N589 1.341 . S
C587 C585 1.400 . S
C587 C586 1.387 . S
N588 Co579 2.022 . S
N588 C585 1.351 . S
N588 N589 1.365 . S
N589 C586 1.341 . S
N589 N588 1.365 . S
N589 H609 0.862 . S
C590 C585 1.501 . S
C590 H591 0.961 . S
C590 H592 0.961 . S
C590 H593 0.960 . S
H591 C590 0.961 . S
H592 C590 0.961 . S
H593 C590 0.960 . S
C594 N595 1.342 . S
C594 C598 1.401 . S
C594 C599 1.499 . S
N595 Co578 1.989 . S
N595 C594 1.342 . S
N595 N596 1.388 . S
N596 Co579 1.993 . S
N596 N595 1.388 . S
N596 C597 1.346 . S
C597 N596 1.346 . S
C597 C598 1.396 . S
C597 C607 1.510 . S
C598 C594 1.401 . S
C598 C597 1.396 . S
C599 C594 1.499 . S
C599 H600 0.959 . S
C599 H601 0.960 . S
C599 H602 0.961 . S
H600 C599 0.959 . S
H601 C599 0.960 . S
H602 C599 0.961 . S
O603 Co578 1.967 . S
O603 C611 1.258 . S
O604 Co579 1.941 . S
O604 C611 1.266 . S
H605 C607 0.959 . S
H606 C607 0.961 . S
C607 C597 1.510 . S
C607 H605 0.959 . S
C607 H606 0.961 . S
C607 H608 0.960 . S
H608 C607 0.960 . S
H609 N589 0.862 . S
O610 Co578 1.920 . S
O610 C583 1.289 . S
C611 O603 1.258 . S
C611 O604 1.266 . S
H612 C620 0.950 . S
H613 C625 0.950 . S
H614 C622 0.950 . S
H615 C624 0.950 . S
H616 C626 0.950 . S
H617 C628 0.950 . S
H618 C630 0.950 . S
H619 C631 0.950 . S
C620 H612 0.950 . S
C620 C621 1.386 . S
C620 C622 1.391 . S
C621 C620 1.386 . S
C621 C625 1.393 . S
C622 H614 0.950 . S
C622 C620 1.391 . S
C622 C623 1.400 . S
C623 C622 1.400 . S
C623 C624 1.398 . S
C623 C629 1.491 . S
C624 H615 0.950 . S
C624 C623 1.398 . S
C624 C625 1.391 . S
C625 H613 0.950 . S
C625 C621 1.393 . S
C625 C624 1.391 . S
C626 H616 0.950 . S
C626 C627 1.386 1_655 S
C626 C628 1.391 . S
C627 C626 1.386 1_455 S
C627 C631 1.393 . S
C628 H617 0.950 . S
C628 C626 1.391 . S
C628 C629 1.400 . S
C629 C623 1.491 . S
C629 C628 1.400 . S
C629 C630 1.398 1_655 S
C630 H618 0.950 . S
C630 C629 1.398 1_455 S
C630 C631 1.391 . S
C631 H619 0.950 . S
C631 C627 1.393 . S
C631 C630 1.391 . S
H632 C640 0.950 . S
H633 C645 0.950 . S
H634 C642 0.950 . S
H635 C644 0.950 . S
H636 C646 0.950 . S
H637 C648 0.950 . S
H638 C650 0.950 . S
H639 C651 0.950 . S
C640 H632 0.950 . S
C640 C641 1.386 . S
C640 C642 1.391 . S
C641 C640 1.386 . S
C641 C645 1.393 . S
C642 H634 0.950 . S
C642 C640 1.391 . S
C642 C643 1.400 . S
C643 C642 1.400 . S
C643 C644 1.398 . S
C643 C649 1.491 . S
C644 H635 0.950 . S
C644 C643 1.398 . S
C644 C645 1.391 . S
C645 H633 0.950 . S
C645 C641 1.393 . S
C645 C644 1.391 . S
C646 H636 0.950 . S
C646 C647 1.386 . S
C646 C648 1.391 . S
C647 C646 1.386 . S
C647 C651 1.393 . S
C648 H637 0.950 . S
C648 C646 1.391 . S
C648 C649 1.400 . S
C649 C643 1.491 . S
C649 C648 1.400 . S
C649 C650 1.398 . S
C650 H638 0.950 . S
C650 C649 1.398 . S
C650 C651 1.391 . S
C651 H639 0.950 . S
C651 C647 1.393 . S
C651 C650 1.391 . S
H652 C660 0.950 . S
H653 C665 0.950 . S
H654 C662 0.950 . S
H655 C664 0.950 . S
H656 C666 0.950 . S
H657 C668 0.950 . S
H658 C670 0.950 . S
H659 C671 0.950 . S
C660 H652 0.950 . S
C660 C661 1.386 . S
C660 C662 1.391 . S
C661 C660 1.386 . S
C661 C665 1.393 . S
C662 H654 0.950 . S
C662 C660 1.391 . S
C662 C663 1.400 . S
C663 C662 1.400 . S
C663 C664 1.398 . S
C663 C669 1.491 . S
C664 H655 0.950 . S
C664 C663 1.398 . S
C664 C665 1.391 . S
C665 H653 0.950 . S
C665 C661 1.393 . S
C665 C664 1.391 . S
C666 H656 0.950 . S
C666 C667 1.386 1_545 S
C666 C668 1.391 . S
C667 C666 1.386 1_565 S
C667 C671 1.393 . S
C668 H657 0.950 . S
C668 C666 1.391 . S
C668 C669 1.400 . S
C669 C663 1.491 . S
C669 C668 1.400 . S
C669 C670 1.398 1_545 S
C670 H658 0.950 . S
C670 C669 1.398 1_565 S
C670 C671 1.391 . S
C671 H659 0.950 . S
C671 C667 1.393 . S
C671 C670 1.391 . S
H672 C680 0.950 . S
H673 C685 0.950 . S
H674 C682 0.950 . S
H675 C684 0.950 . S
H676 C686 0.950 . S
H677 C688 0.950 . S
H678 C690 0.950 . S
H679 C691 0.950 . S
C680 H672 0.950 . S
C680 C681 1.386 . S
C680 C682 1.391 . S
C681 C680 1.386 . S
C681 C685 1.393 1_545 S
C682 H674 0.950 . S
C682 C680 1.391 . S
C682 C683 1.400 1_545 S
C683 C682 1.400 1_565 S
C683 C684 1.398 . S
C683 C689 1.491 . S
C684 H675 0.950 . S
C684 C683 1.398 . S
C684 C685 1.391 . S
C685 H673 0.950 . S
C685 C681 1.393 1_565 S
C685 C684 1.391 . S
C686 H676 0.950 . S
C686 C687 1.386 . S
C686 C688 1.391 . S
C687 C686 1.386 . S
C687 C691 1.393 . S
C688 H677 0.950 . S
C688 C686 1.391 . S
C688 C689 1.400 . S
C689 C683 1.491 . S
C689 C688 1.400 . S
C689 C690 1.398 . S
C690 H678 0.950 . S
C690 C689 1.398 . S
C690 C691 1.391 . S
C691 H679 0.950 . S
C691 C687 1.393 . S
C691 C690 1.391 . S
H692 C700 0.950 . S
H693 C705 0.950 . S
H694 C702 0.950 1_655 S
H695 C704 0.950 . S
H696 C706 0.950 . S
H697 C708 0.950 . S
H698 C710 0.950 . S
H699 C711 0.950 . S
C700 H692 0.950 . S
C700 C701 1.386 . S
C700 C702 1.391 . S
C701 C700 1.386 . S
C701 C705 1.393 . S
C702 H694 0.950 1_455 S
C702 C700 1.391 . S
C702 C703 1.400 . S
C703 C702 1.400 . S
C703 C704 1.398 . S
C703 C709 1.491 . S
C704 H695 0.950 . S
C704 C703 1.398 . S
C704 C705 1.391 . S
C705 H693 0.950 . S
C705 C701 1.393 . S
C705 C704 1.391 . S
C706 H696 0.950 . S
C706 C707 1.386 1_455 S
C706 C708 1.391 . S
C707 C706 1.386 1_655 S
C707 C711 1.393 . S
C708 H697 0.950 . S
C708 C706 1.391 . S
C708 C709 1.400 . S
C709 C703 1.491 . S
C709 C708 1.400 . S
C709 C710 1.398 1_455 S
C710 H698 0.950 . S
C710 C709 1.398 1_655 S
C710 C711 1.391 . S
C711 H699 0.950 . S
C711 C707 1.393 . S
C711 C710 1.391 . S
H712 C720 0.950 . S
H713 C725 0.950 . S
H714 C722 0.950 . S
H715 C724 0.950 . S
H716 C726 0.950 . S
H717 C728 0.950 . S
H718 C730 0.950 . S
H719 C731 0.950 . S
C720 H712 0.950 . S
C720 C721 1.386 . S
C720 C722 1.391 . S
C721 C720 1.386 . S
C721 C725 1.393 . S
C722 H714 0.950 . S
C722 C720 1.391 . S
C722 C723 1.400 . S
C723 C722 1.400 . S
C723 C724 1.398 . S
C723 C729 1.491 . S
C724 H715 0.950 . S
C724 C723 1.398 . S
C724 C725 1.391 . S
C725 H713 0.950 . S
C725 C721 1.393 . S
C725 C724 1.391 . S
C726 H716 0.950 . S
C726 C727 1.386 . S
C726 C728 1.391 . S
C727 C726 1.386 . S
C727 C731 1.393 . S
C728 H717 0.950 . S
C728 C726 1.391 . S
C728 C729 1.400 . S
C729 C723 1.491 . S
C729 C728 1.400 . S
C729 C730 1.398 . S
C730 H718 0.950 . S
C730 C729 1.398 . S
C730 C731 1.391 . S
C731 H719 0.950 . S
C731 C727 1.393 . S
C731 C730 1.391 . S
H732 C740 0.950 . S
H733 C745 0.950 . S
H734 C742 0.950 . S
H735 C744 0.950 . S
H736 C746 0.950 . S
H737 C748 0.950 . S
H738 C750 0.950 . S
H739 C751 0.950 . S
C740 H732 0.950 . S
C740 C741 1.386 . S
C740 C742 1.391 . S
C741 C740 1.386 . S
C741 C745 1.393 . S
C742 H734 0.950 . S
C742 C740 1.391 . S
C742 C743 1.400 . S
C743 C742 1.400 . S
C743 C744 1.398 . S
C743 C749 1.491 . S
C744 H735 0.950 . S
C744 C743 1.398 . S
C744 C745 1.391 . S
C745 H733 0.950 . S
C745 C741 1.393 . S
C745 C744 1.391 . S
C746 H736 0.950 . S
C746 C747 1.386 . S
C746 C748 1.391 . S
C747 C746 1.386 . S
C747 C751 1.393 . S
C748 H737 0.950 . S
C748 C746 1.391 . S
C748 C749 1.400 . S
C749 C743 1.491 . S
C749 C748 1.400 . S
C749 C750 1.398 . S
C750 H738 0.950 . S
C750 C749 1.398 . S
C750 C751 1.391 . S
C751 H739 0.950 . S
C751 C747 1.393 . S
C751 C750 1.391 . S
H752 C760 0.950 . S
H753 C765 0.950 . S
H754 C762 0.950 . S
H755 C764 0.950 . S
H756 C766 0.950 . S
H757 C768 0.950 . S
H758 C770 0.950 . S
H759 C771 0.950 . S
C760 H752 0.950 . S
C760 C761 1.386 . S
C760 C762 1.391 . S
C761 C760 1.386 . S
C761 C765 1.393 . S
C762 H754 0.950 . S
C762 C760 1.391 . S
C762 C763 1.400 . S
C763 C762 1.400 . S
C763 C764 1.398 . S
C763 C769 1.491 1_565 S
C764 H755 0.950 . S
C764 C763 1.398 . S
C764 C765 1.391 . S
C765 H753 0.950 . S
C765 C761 1.393 . S
C765 C764 1.391 . S
C766 H756 0.950 . S
C766 C767 1.386 . S
C766 C768 1.391 . S
C767 C766 1.386 . S
C767 C771 1.393 . S
C768 H757 0.950 . S
C768 C766 1.391 . S
C768 C769 1.400 . S
C769 C763 1.491 1_545 S
C769 C768 1.400 . S
C769 C770 1.398 . S
C770 H758 0.950 . S
C770 C769 1.398 . S
C770 C771 1.391 . S
C771 H759 0.950 . S
C771 C767 1.393 . S
C771 C770 1.391 . S
H772 C780 0.950 . S
H773 C785 0.950 . S
H774 C782 0.950 . S
H775 C784 0.950 . S
H776 C786 0.950 . S
H777 C788 0.950 . S
H778 C790 0.950 . S
H779 C791 0.950 . S
C780 H772 0.950 . S
C780 C781 1.386 . S
C780 C782 1.391 . S
C781 C780 1.386 . S
C781 C785 1.393 . S
C782 H774 0.950 . S
C782 C780 1.391 . S
C782 C783 1.400 . S
C783 C782 1.400 . S
C783 C784 1.398 . S
C783 C789 1.491 1_455 S
C784 H775 0.950 . S
C784 C783 1.398 . S
C784 C785 1.391 . S
C785 H773 0.950 . S
C785 C781 1.393 . S
C785 C784 1.391 . S
C786 H776 0.950 . S
C786 C787 1.386 . S
C786 C788 1.391 . S
C787 C786 1.386 . S
C787 C791 1.393 . S
C788 H777 0.950 . S
C788 C786 1.391 . S
C788 C789 1.400 . S
C789 C783 1.491 1_655 S
C789 C788 1.400 . S
C789 C790 1.398 . S
C790 H778 0.950 . S
C790 C789 1.398 . S
C790 C791 1.391 . S
C791 H779 0.950 . S
C791 C787 1.393 . S
C791 C790 1.391 . S
H792 C800 0.950 . S
H793 C805 0.950 . S
H794 C802 0.950 . S
H795 C804 0.950 . S
H796 C806 0.950 . S
H797 C808 0.950 . S
H798 C810 0.950 . S
H799 C811 0.950 . S
C800 H792 0.950 . S
C800 C801 1.386 . S
C800 C802 1.391 . S
C801 C800 1.386 . S
C801 C805 1.393 . S
C802 H794 0.950 . S
C802 C800 1.391 . S
C802 C803 1.400 . S
C803 C802 1.400 . S
C803 C804 1.398 . S
C803 C809 1.491 . S
C804 H795 0.950 . S
C804 C803 1.398 . S
C804 C805 1.391 . S
C805 H793 0.950 . S
C805 C801 1.393 . S
C805 C804 1.391 . S
C806 H796 0.950 . S
C806 C807 1.386 . S
C806 C808 1.391 . S
C807 C806 1.386 . S
C807 C811 1.393 . S
C808 H797 0.950 . S
C808 C806 1.391 . S
C808 C809 1.400 . S
C809 C803 1.491 . S
C809 C808 1.400 . S
C809 C810 1.398 . S
C810 H798 0.950 . S
C810 C809 1.398 . S
C810 C811 1.391 . S
C811 H799 0.950 . S
C811 C807 1.393 . S
C811 C810 1.391 . S
H812 C820 0.950 . S
H813 C825 0.950 . S
H814 C822 0.950 . S
H815 C824 0.950 . S
H816 C826 0.950 . S
H817 C828 0.950 . S
H818 C830 0.950 . S
H819 C831 0.950 . S
C820 H812 0.950 . S
C820 C821 1.386 . S
C820 C822 1.391 . S
C821 C820 1.386 . S
C821 C825 1.393 . S
C822 H814 0.950 . S
C822 C820 1.391 . S
C822 C823 1.400 . S
C823 C822 1.400 . S
C823 C824 1.398 . S
C823 C829 1.491 . S
C824 H815 0.950 . S
C824 C823 1.398 . S
C824 C825 1.391 . S
C825 H813 0.950 . S
C825 C821 1.393 . S
C825 C824 1.391 . S
C826 H816 0.950 . S
C826 C827 1.386 . S
C826 C828 1.391 . S
C827 C826 1.386 . S
C827 C831 1.393 . S
C828 H817 0.950 . S
C828 C826 1.391 . S
C828 C829 1.400 . S
C829 C823 1.491 . S
C829 C828 1.400 . S
C829 C830 1.398 . S
C830 H818 0.950 . S
C830 C829 1.398 . S
C830 C831 1.391 . S
C831 H819 0.950 . S
C831 C827 1.393 . S
C831 C830 1.391 . S
H832 C840 0.950 . S
H833 C845 0.950 . S
H834 C842 0.950 . S
H835 C844 0.950 . S
H836 C846 0.950 . S
H837 C848 0.950 . S
H838 C850 0.950 . S
H839 C851 0.950 . S
C840 H832 0.950 . S
C840 C841 1.386 . S
C840 C842 1.391 . S
C841 C840 1.386 . S
C841 C845 1.393 . S
C842 H834 0.950 . S
C842 C840 1.391 . S
C842 C843 1.400 . S
C843 C842 1.400 . S
C843 C844 1.398 . S
C843 C849 1.491 . S
C844 H835 0.950 . S
C844 C843 1.398 . S
C844 C845 1.391 . S
C845 H833 0.950 . S
C845 C841 1.393 . S
C845 C844 1.391 . S
C846 H836 0.950 . S
C846 C847 1.386 . S
C846 C848 1.391 . S
C847 C846 1.386 . S
C847 C851 1.393 . S
C848 H837 0.950 . S
C848 C846 1.391 . S
C848 C849 1.400 . S
C849 C843 1.491 . S
C849 C848 1.400 . S
C849 C850 1.398 . S
C850 H838 0.950 . S
C850 C849 1.398 . S
C850 C851 1.391 . S
C851 H839 0.950 . S
C851 C847 1.393 . S
C851 C850 1.391 . S
H852 C860 0.950 . S
H853 C865 0.950 . S
H854 C862 0.950 . S
H855 C864 0.950 . S
H856 C866 0.950 . S
H857 C868 0.950 . S
H858 C870 0.950 . S
H859 C871 0.950 . S
C860 H852 0.950 . S
C860 C861 1.386 . S
C860 C862 1.391 . S
C861 C860 1.386 . S
C861 C865 1.393 . S
C862 H854 0.950 . S
C862 C860 1.391 . S
C862 C863 1.400 . S
C863 C862 1.400 . S
C863 C864 1.398 . S
C863 C869 1.491 . S
C864 H855 0.950 . S
C864 C863 1.398 . S
C864 C865 1.391 . S
C865 H853 0.950 . S
C865 C861 1.393 . S
C865 C864 1.391 . S
C866 H856 0.950 . S
C866 C867 1.386 . S
C866 C868 1.391 . S
C867 C866 1.386 . S
C867 C871 1.393 . S
C868 H857 0.950 . S
C868 C866 1.391 . S
C868 C869 1.400 . S
C869 C863 1.491 . S
C869 C868 1.400 . S
C869 C870 1.398 . S
C870 H858 0.950 . S
C870 C869 1.398 . S
C870 C871 1.391 . S
C871 H859 0.950 . S
C871 C867 1.393 . S
C871 C870 1.391 . S
H872 C880 0.950 . S
H873 C885 0.950 . S
H874 C882 0.950 . S
H875 C884 0.950 . S
H876 C886 0.950 . S
H877 C888 0.950 . S
H878 C890 0.950 . S
H879 C891 0.950 . S
C880 H872 0.950 . S
C880 C881 1.386 . S
C880 C882 1.391 . S
C881 C880 1.386 . S
C881 C885 1.393 . S
C882 H874 0.950 . S
C882 C880 1.391 . S
C882 C883 1.400 . S
C883 C882 1.400 . S
C883 C884 1.398 . S
C883 C889 1.491 . S
C884 H875 0.950 . S
C884 C883 1.398 . S
C884 C885 1.391 . S
C885 H873 0.950 . S
C885 C881 1.393 . S
C885 C884 1.391 . S
C886 H876 0.950 . S
C886 C887 1.386 . S
C886 C888 1.391 . S
C887 C886 1.386 . S
C887 C891 1.393 . S
C888 H877 0.950 . S
C888 C886 1.391 . S
C888 C889 1.400 . S
C889 C883 1.491 . S
C889 C888 1.400 . S
C889 C890 1.398 . S
C890 H878 0.950 . S
C890 C889 1.398 . S
C890 C891 1.391 . S
C891 H879 0.950 . S
C891 C887 1.393 . S
C891 C890 1.391 . S
H892 C900 0.950 . S
H893 C905 0.950 . S
H894 C902 0.950 . S
H895 C904 0.950 . S
H896 C906 0.950 . S
H897 C908 0.950 . S
H898 C910 0.950 . S
H899 C911 0.950 . S
C900 H892 0.950 . S
C900 C901 1.386 . S
C900 C902 1.391 . S
C901 C900 1.386 . S
C901 C905 1.393 . S
C902 H894 0.950 . S
C902 C900 1.391 . S
C902 C903 1.400 . S
C903 C902 1.400 . S
C903 C904 1.398 . S
C903 C909 1.491 . S
C904 H895 0.950 . S
C904 C903 1.398 . S
C904 C905 1.391 . S
C905 H893 0.950 . S
C905 C901 1.393 . S
C905 C904 1.391 . S
C906 H896 0.950 . S
C906 C907 1.386 . S
C906 C908 1.391 . S
C907 C906 1.386 . S
C907 C911 1.393 . S
C908 H897 0.950 . S
C908 C906 1.391 . S
C908 C909 1.400 . S
C909 C903 1.491 . S
C909 C908 1.400 . S
C909 C910 1.398 . S
C910 H898 0.950 . S
C910 C909 1.398 . S
C910 C911 1.391 . S
C911 H899 0.950 . S
C911 C907 1.393 . S
C911 C910 1.391 . S
H912 C920 0.950 . S
H913 C925 0.950 . S
H914 C922 0.950 . S
H915 C924 0.950 1_455 S
H916 C926 0.950 . S
H917 C928 0.950 . S
H918 C930 0.950 1_655 S
H919 C931 0.950 . S
C920 H912 0.950 . S
C920 C921 1.386 . S
C920 C922 1.391 1_554 S
C921 C920 1.386 . S
C921 C925 1.393 . S
C922 H914 0.950 . S
C922 C920 1.391 1_556 S
C922 C923 1.400 1_556 S
C923 C922 1.400 1_554 S
C923 C924 1.398 . S
C923 C929 1.491 1_654 S
C924 H915 0.950 1_655 S
C924 C923 1.398 . S
C924 C925 1.391 . S
C925 H913 0.950 . S
C925 C921 1.393 . S
C925 C924 1.391 . S
C926 H916 0.950 . S
C926 C927 1.386 . S
C926 C928 1.391 1_556 S
C927 C926 1.386 . S
C927 C931 1.393 . S
C928 H917 0.950 . S
C928 C926 1.391 1_554 S
C928 C929 1.400 1_554 S
C929 C923 1.491 1_456 S
C929 C928 1.400 1_556 S
C929 C930 1.398 . S
C930 H918 0.950 1_455 S
C930 C929 1.398 . S
C930 C931 1.391 . S
C931 H919 0.950 . S
C931 C927 1.393 . S
C931 C930 1.391 . S
H932 C940 0.950 . S
H933 C945 0.950 . S
H934 C942 0.950 . S
H935 C944 0.925 1_554 S
H936 C946 0.950 . S
H937 C948 0.950 . S
H938 C950 0.925 1_556 S
H939 C951 0.950 . S
C940 H932 0.950 . S
C940 C941 1.386 . S
C940 C942 1.391 . S
C941 C940 1.386 . S
C941 C945 1.393 . S
C942 H934 0.950 . S
C942 C940 1.391 . S
C942 C943 1.400 . S
C943 C942 1.400 . S
C943 C944 1.406 . S
C943 C949 1.491 1_556 S
C944 H935 0.925 1_556 S
C944 C943 1.406 . S
C944 C945 1.407 . S
C945 H933 0.950 . S
C945 C941 1.393 . S
C945 C944 1.407 . S
C946 H936 0.950 . S
C946 C947 1.386 . S
C946 C948 1.391 . S
C947 C946 1.386 . S
C947 C951 1.393 . S
C948 H937 0.950 . S
C948 C946 1.391 . S
C948 C949 1.400 . S
C949 C943 1.491 1_554 S
C949 C948 1.400 . S
C949 C950 1.406 . S
C950 H938 0.925 1_554 S
C950 C949 1.406 . S
C950 C951 1.407 . S
C951 H939 0.950 . S
C951 C947 1.393 . S
C951 C950 1.407 . S
H952 C960 0.950 . S
H953 C965 0.950 . S
H954 C962 0.948 1_565 S
H955 C964 0.950 1_556 S
H956 C966 0.950 . S
H957 C968 0.950 . S
H958 C970 0.950 1_554 S
H959 C971 0.950 . S
C960 H952 0.950 . S
C960 C961 1.386 . S
C960 C962 1.391 . S
C961 C960 1.386 . S
C961 C965 1.393 . S
C962 H954 0.948 1_545 S
C962 C960 1.391 . S
C962 C963 1.400 . S
C963 C962 1.400 . S
C963 C964 1.398 . S
C963 C969 1.491 1_544 S
C964 H955 0.950 1_554 S
C964 C963 1.398 . S
C964 C965 1.391 . S
C965 H953 0.950 . S
C965 C961 1.393 . S
C965 C964 1.391 . S
C966 H956 0.950 . S
C966 C967 1.386 . S
C966 C968 1.391 . S
C967 C966 1.386 . S
C967 C971 1.393 . S
C968 H957 0.950 . S
C968 C966 1.391 . S
C968 C969 1.400 . S
C969 C963 1.491 1_566 S
C969 C968 1.400 . S
C969 C970 1.398 . S
C970 H958 0.950 1_556 S
C970 C969 1.398 . S
C970 C971 1.391 . S
C971 H959 0.950 . S
C971 C967 1.393 . S
C971 C970 1.391 . S
H972 C980 0.950 . S
H973 C985 0.950 . S
H974 C982 0.950 . S
H975 C984 0.950 1_655 S
H976 C986 0.950 . S
H977 C988 0.950 . S
H978 C990 0.950 1_455 S
H979 C991 0.950 . S
C980 H972 0.950 . S
C980 C981 1.386 . S
C980 C982 1.391 . S
C981 C980 1.386 . S
C981 C985 1.393 . S
C982 H974 0.950 . S
C982 C980 1.391 . S
C982 C983 1.400 . S
C983 C982 1.400 . S
C983 C984 1.398 . S
C983 C989 1.491 1_454 S
C984 H975 0.950 1_455 S
C984 C983 1.398 . S
C984 C985 1.391 . S
C985 H973 0.950 . S
C985 C981 1.393 . S
C985 C984 1.391 . S
C986 H976 0.950 . S
C986 C987 1.386 . S
C986 C988 1.391 . S
C987 C986 1.386 . S
C987 C991 1.393 . S
C988 H977 0.950 . S
C988 C986 1.391 . S
C988 C989 1.400 . S
C989 C983 1.491 1_656 S
C989 C988 1.400 . S
C989 C990 1.398 . S
C990 H978 0.950 1_655 S
C990 C989 1.398 . S
C990 C991 1.391 . S
C991 H979 0.950 . S
C991 C987 1.393 . S
C991 C990 1.391 . S
H992 C1000 0.950 . S
H993 C1005 0.950 . S
H994 C1002 0.950 . S
H995 C1004 0.950 . S
H996 C1006 0.950 . S
H997 C1008 0.950 . S
H998 C1010 0.950 . S
H999 C1011 0.950 . S
C1000 H992 0.950 . S
C1000 C1001 1.386 . S
C1000 C1002 1.391 . S
C1001 C1000 1.386 . S
C1001 C1005 1.393 . S
C1002 H994 0.950 . S
C1002 C1000 1.391 . S
C1002 C1003 1.400 . S
C1003 C1002 1.400 . S
C1003 C1004 1.398 . S
C1003 C1009 1.491 1_556 S
C1004 H995 0.950 . S
C1004 C1003 1.398 . S
C1004 C1005 1.391 . S
C1005 H993 0.950 . S
C1005 C1001 1.393 . S
C1005 C1004 1.391 . S
C1006 H996 0.950 . S
C1006 C1007 1.386 . S
C1006 C1008 1.391 . S
C1007 C1006 1.386 . S
C1007 C1011 1.393 . S
C1008 H997 0.950 . S
C1008 C1006 1.391 . S
C1008 C1009 1.400 . S
C1009 C1003 1.491 1_554 S
C1009 C1008 1.400 . S
C1009 C1010 1.398 . S
C1010 H998 0.950 . S
C1010 C1009 1.398 . S
C1010 C1011 1.391 . S
C1011 H999 0.950 . S
C1011 C1007 1.393 . S
C1011 C1010 1.391 . S
H1012 C1020 0.950 . S
H1013 C1025 0.950 . S
H1014 C1022 0.950 . S
H1015 C1024 0.950 1_565 S
H1016 C1026 0.950 . S
H1017 C1028 0.950 . S
H1018 C1030 0.950 . S
H1019 C1031 0.950 . S
C1020 H1012 0.950 . S
C1020 C1021 1.386 . S
C1020 C1022 1.391 . S
C1021 C1020 1.386 . S
C1021 C1025 1.393 . S
C1022 H1014 0.950 . S
C1022 C1020 1.391 . S
C1022 C1023 1.400 . S
C1023 C1022 1.400 . S
C1023 C1024 1.398 . S
C1023 C1029 1.491 1_546 S
C1024 H1015 0.950 1_545 S
C1024 C1023 1.398 . S
C1024 C1025 1.391 . S
C1025 H1013 0.950 . S
C1025 C1021 1.393 . S
C1025 C1024 1.391 . S
C1026 H1016 0.950 . S
C1026 C1027 1.386 . S
C1026 C1028 1.391 . S
C1027 C1026 1.386 . S
C1027 C1031 1.393 . S
C1028 H1017 0.950 . S
C1028 C1026 1.391 . S
C1028 C1029 1.400 . S
C1029 C1023 1.491 1_564 S
C1029 C1028 1.400 . S
C1029 C1030 1.398 . S
C1030 H1018 0.950 . S
C1030 C1029 1.398 . S
C1030 C1031 1.391 . S
C1031 H1019 0.950 . S
C1031 C1027 1.393 . S
C1031 C1030 1.391 . S
H1032 C1040 0.950 . S
H1033 C1045 0.950 . S
H1034 C1042 0.950 . S
H1035 C1044 0.950 . S
H1036 C1046 0.950 . S
H1037 C1048 0.950 . S
H1038 C1050 0.950 . S
H1039 C1051 0.950 . S
C1040 H1032 0.950 . S
C1040 C1041 1.386 . S
C1040 C1042 1.391 . S
C1041 C1040 1.386 . S
C1041 C1045 1.393 . S
C1042 H1034 0.950 . S
C1042 C1040 1.391 . S
C1042 C1043 1.400 . S
C1043 C1042 1.400 . S
C1043 C1044 1.398 . S
C1043 C1049 1.491 . S
C1044 H1035 0.950 . S
C1044 C1043 1.398 . S
C1044 C1045 1.391 . S
C1045 H1033 0.950 . S
C1045 C1041 1.393 . S
C1045 C1044 1.391 . S
C1046 H1036 0.950 . S
C1046 C1047 1.386 . S
C1046 C1048 1.391 . S
C1047 C1046 1.386 . S
C1047 C1051 1.393 . S
C1048 H1037 0.950 . S
C1048 C1046 1.391 . S
C1048 C1049 1.400 . S
C1049 C1043 1.491 . S
C1049 C1048 1.400 . S
C1049 C1050 1.398 . S
C1050 H1038 0.950 . S
C1050 C1049 1.398 . S
C1050 C1051 1.391 . S
C1051 H1039 0.950 . S
C1051 C1047 1.393 . S
C1051 C1050 1.391 . S
H1052 C1060 0.950 . S
H1053 C1065 0.950 . S
H1054 C1062 0.950 . S
H1055 C1064 0.950 . S
H1056 C1066 0.950 . S
H1057 C1068 0.950 . S
H1058 C1070 0.950 . S
H1059 C1071 0.950 . S
C1060 H1052 0.950 . S
C1060 C1061 1.386 . S
C1060 C1062 1.391 . S
C1061 C1060 1.386 . S
C1061 C1065 1.393 . S
C1062 H1054 0.950 . S
C1062 C1060 1.391 . S
C1062 C1063 1.400 . S
C1063 C1062 1.400 . S
C1063 C1064 1.398 . S
C1063 C1069 1.491 . S
C1064 H1055 0.950 . S
C1064 C1063 1.398 . S
C1064 C1065 1.391 . S
C1065 H1053 0.950 . S
C1065 C1061 1.393 . S
C1065 C1064 1.391 . S
C1066 H1056 0.950 . S
C1066 C1067 1.386 . S
C1066 C1068 1.391 . S
C1067 C1066 1.386 . S
C1067 C1071 1.393 . S
C1068 H1057 0.950 . S
C1068 C1066 1.391 . S
C1068 C1069 1.400 . S
C1069 C1063 1.491 . S
C1069 C1068 1.400 . S
C1069 C1070 1.398 . S
C1070 H1058 0.950 . S
C1070 C1069 1.398 . S
C1070 C1071 1.391 . S
C1071 H1059 0.950 . S
C1071 C1067 1.393 . S
C1071 C1070 1.391 . S
H1072 C1080 0.950 . S
H1073 C1085 0.950 . S
H1074 C1082 0.950 . S
H1075 C1084 0.950 . S
H1076 C1086 0.950 . S
H1077 C1088 0.950 . S
H1078 C1090 0.950 . S
H1079 C1091 0.950 . S
C1080 H1072 0.950 . S
C1080 C1081 1.386 . S
C1080 C1082 1.391 . S
C1081 C1080 1.386 . S
C1081 C1085 1.393 . S
C1082 H1074 0.950 . S
C1082 C1080 1.391 . S
C1082 C1083 1.400 . S
C1083 C1082 1.400 . S
C1083 C1084 1.398 . S
C1083 C1089 1.491 . S
C1084 H1075 0.950 . S
C1084 C1083 1.398 . S
C1084 C1085 1.391 . S
C1085 H1073 0.950 . S
C1085 C1081 1.393 . S
C1085 C1084 1.391 . S
C1086 H1076 0.950 . S
C1086 C1087 1.386 . S
C1086 C1088 1.391 . S
C1087 C1086 1.386 . S
C1087 C1091 1.393 . S
C1088 H1077 0.950 . S
C1088 C1086 1.391 . S
C1088 C1089 1.400 . S
C1089 C1083 1.491 . S
C1089 C1088 1.400 . S
C1089 C1090 1.398 . S
C1090 H1078 0.950 . S
C1090 C1089 1.398 . S
C1090 C1091 1.391 . S
C1091 H1079 0.950 . S
C1091 C1087 1.393 . S
C1091 C1090 1.391 . S
H1092 C1100 0.950 . S
H1093 C1105 0.950 . S
H1094 C1102 0.950 . S
H1095 C1104 0.950 . S
H1096 C1106 0.950 . S
H1097 C1108 0.950 . S
H1098 C1110 0.950 . S
H1099 C1111 0.950 . S
C1100 H1092 0.950 . S
C1100 C1101 1.386 . S
C1100 C1102 1.391 . S
C1101 C1100 1.386 . S
C1101 C1105 1.393 . S
C1102 H1094 0.950 . S
C1102 C1100 1.391 . S
C1102 C1103 1.400 . S
C1103 C1102 1.400 . S
C1103 C1104 1.398 . S
C1103 C1109 1.491 . S
C1104 H1095 0.950 . S
C1104 C1103 1.398 . S
C1104 C1105 1.391 . S
C1105 H1093 0.950 . S
C1105 C1101 1.393 . S
C1105 C1104 1.391 . S
C1106 H1096 0.950 . S
C1106 C1107 1.386 . S
C1106 C1108 1.391 . S
C1107 C1106 1.386 . S
C1107 C1111 1.393 . S
C1108 H1097 0.950 . S
C1108 C1106 1.391 . S
C1108 C1109 1.400 . S
C1109 C1103 1.491 . S
C1109 C1108 1.400 . S
C1109 C1110 1.398 . S
C1110 H1098 0.950 . S
C1110 C1109 1.398 . S
C1110 C1111 1.391 . S
C1111 H1099 0.950 . S
C1111 C1107 1.393 . S
C1111 C1110 1.391 . S
H1112 C1120 0.950 . S
H1113 C1125 0.950 . S
H1114 C1122 0.950 . S
H1115 C1124 0.950 . S
H1116 C1126 0.950 . S
H1117 C1128 0.950 . S
H1118 C1130 0.950 . S
H1119 C1131 0.950 . S
C1120 H1112 0.950 . S
C1120 C1121 1.386 . S
C1120 C1122 1.391 . S
C1121 C1120 1.386 . S
C1121 C1125 1.393 . S
C1122 H1114 0.950 . S
C1122 C1120 1.391 . S
C1122 C1123 1.400 . S
C1123 C1122 1.400 . S
C1123 C1124 1.398 . S
C1123 C1129 1.491 . S
C1124 H1115 0.950 . S
C1124 C1123 1.398 . S
C1124 C1125 1.391 . S
C1125 H1113 0.950 . S
C1125 C1121 1.393 . S
C1125 C1124 1.391 . S
C1126 H1116 0.950 . S
C1126 C1127 1.386 . S
C1126 C1128 1.391 . S
C1127 C1126 1.386 . S
C1127 C1131 1.393 . S
C1128 H1117 0.950 . S
C1128 C1126 1.391 . S
C1128 C1129 1.400 . S
C1129 C1123 1.491 . S
C1129 C1128 1.400 . S
C1129 C1130 1.398 . S
C1130 H1118 0.950 . S
C1130 C1129 1.398 . S
C1130 C1131 1.391 . S
C1131 H1119 0.950 . S
C1131 C1127 1.393 . S
C1131 C1130 1.391 . S
H1132 C1140 0.950 . S
H1133 C1145 0.950 . S
H1134 C1142 0.950 . S
H1135 C1144 0.950 . S
H1136 C1146 0.950 . S
H1137 C1148 0.950 . S
H1138 C1150 0.950 . S
H1139 C1151 0.950 . S
C1140 H1132 0.950 . S
C1140 C1141 1.386 . S
C1140 C1142 1.391 . S
C1141 C1140 1.386 . S
C1141 C1145 1.393 . S
C1142 H1134 0.950 . S
C1142 C1140 1.391 . S
C1142 C1143 1.400 . S
C1143 C1142 1.400 . S
C1143 C1144 1.398 . S
C1143 C1149 1.491 . S
C1144 H1135 0.950 . S
C1144 C1143 1.398 . S
C1144 C1145 1.391 . S
C1145 H1133 0.950 . S
C1145 C1141 1.393 . S
C1145 C1144 1.391 . S
C1146 H1136 0.950 . S
C1146 C1147 1.386 . S
C1146 C1148 1.391 . S
C1147 C1146 1.386 . S
C1147 C1151 1.393 . S
C1148 H1137 0.950 . S
C1148 C1146 1.391 . S
C1148 C1149 1.400 . S
C1149 C1143 1.491 . S
C1149 C1148 1.400 . S
C1149 C1150 1.398 . S
C1150 H1138 0.950 . S
C1150 C1149 1.398 . S
C1150 C1151 1.391 . S
C1151 H1139 0.950 . S
C1151 C1147 1.393 . S
C1151 C1150 1.391 . S
H1152 C1160 0.950 . S
H1153 C1165 0.950 1_565 S
H1154 C1162 0.950 . S
H1155 C1164 0.950 . S
H1156 C1166 0.950 . S
H1157 C1168 0.950 . S
H1158 C1170 0.950 . S
H1159 C1171 0.950 . S
C1160 H1152 0.950 . S
C1160 C1161 1.386 . S
C1160 C1162 1.391 . S
C1161 C1160 1.386 . S
C1161 C1165 1.393 . S
C1162 H1154 0.950 . S
C1162 C1160 1.391 . S
C1162 C1163 1.400 . S
C1163 C1162 1.400 . S
C1163 C1164 1.398 . S
C1163 C1169 1.491 . S
C1164 H1155 0.950 . S
C1164 C1163 1.398 . S
C1164 C1165 1.391 . S
C1165 H1153 0.950 1_545 S
C1165 C1161 1.393 . S
C1165 C1164 1.391 . S
C1166 H1156 0.950 . S
C1166 C1167 1.386 . S
C1166 C1168 1.391 . S
C1167 C1166 1.386 . S
C1167 C1171 1.393 . S
C1168 H1157 0.950 . S
C1168 C1166 1.391 . S
C1168 C1169 1.400 . S
C1169 C1163 1.491 . S
C1169 C1168 1.400 . S
C1169 C1170 1.398 . S
C1170 H1158 0.950 . S
C1170 C1169 1.398 . S
C1170 C1171 1.391 . S
C1171 H1159 0.950 . S
C1171 C1167 1.393 . S
C1171 C1170 1.391 . S
H1172 C1180 0.950 1_455 S
H1173 C1185 0.950 . S
H1174 C1182 0.950 . S
H1175 C1184 0.950 . S
H1176 C1186 0.950 . S
H1177 C1188 0.950 . S
H1178 C1190 0.950 . S
H1179 C1191 0.950 . S
C1180 H1172 0.950 1_655 S
C1180 C1181 1.386 . S
C1180 C1182 1.391 . S
C1181 C1180 1.386 . S
C1181 C1185 1.393 . S
C1182 H1174 0.950 . S
C1182 C1180 1.391 . S
C1182 C1183 1.400 . S
C1183 C1182 1.400 . S
C1183 C1184 1.398 . S
C1183 C1189 1.491 . S
C1184 H1175 0.950 . S
C1184 C1183 1.398 . S
C1184 C1185 1.391 . S
C1185 H1173 0.950 . S
C1185 C1181 1.393 . S
C1185 C1184 1.391 . S
C1186 H1176 0.950 . S
C1186 C1187 1.386 1_545 S
C1186 C1188 1.391 . S
C1187 C1186 1.386 1_565 S
C1187 C1191 1.393 . S
C1188 H1177 0.950 . S
C1188 C1186 1.391 . S
C1188 C1189 1.400 . S
C1189 C1183 1.491 . S
C1189 C1188 1.400 . S
C1189 C1190 1.398 . S
C1190 H1178 0.950 . S
C1190 C1189 1.398 . S
C1190 C1191 1.391 1_545 S
C1191 H1179 0.950 . S
C1191 C1187 1.393 . S
C1191 C1190 1.391 1_565 S
H1192 C1200 0.950 . S
H1193 C1205 0.950 . S
H1194 C1202 0.950 . S
H1195 C1204 0.950 . S
H1196 C1206 0.950 1_455 S
H1197 C1208 0.950 . S
H1198 C1210 0.950 . S
H1199 C1211 0.950 . S
C1200 H1192 0.950 . S
C1200 C1201 1.386 . S
C1200 C1202 1.391 . S
C1201 C1200 1.386 . S
C1201 C1205 1.393 . S
C1202 H1194 0.950 . S
C1202 C1200 1.391 . S
C1202 C1203 1.400 . S
C1203 C1202 1.400 . S
C1203 C1204 1.398 . S
C1203 C1209 1.491 . S
C1204 H1195 0.950 . S
C1204 C1203 1.398 . S
C1204 C1205 1.391 . S
C1205 H1193 0.950 . S
C1205 C1201 1.393 . S
C1205 C1204 1.391 . S
C1206 H1196 0.950 1_655 S
C1206 C1207 1.386 1_655 S
C1206 C1208 1.391 . S
C1207 C1206 1.386 1_455 S
C1207 C1211 1.393 . S
C1208 H1197 0.950 . S
C1208 C1206 1.391 . S
C1208 C1209 1.400 . S
C1209 C1203 1.491 . S
C1209 C1208 1.400 . S
C1209 C1210 1.398 . S
C1210 H1198 0.950 . S
C1210 C1209 1.398 . S
C1210 C1211 1.391 1_655 S
C1211 H1199 0.950 . S
C1211 C1207 1.393 . S
C1211 C1210 1.391 1_455 S
H1212 C1220 0.950 1_655 S
H1213 C1225 0.950 . S
H1214 C1222 0.950 . S
H1215 C1224 0.950 . S
H1216 C1226 0.950 . S
H1217 C1228 0.950 . S
H1218 C1230 0.950 . S
H1219 C1231 0.950 . S
C1220 H1212 0.950 1_455 S
C1220 C1221 1.386 . S
C1220 C1222 1.391 . S
C1221 C1220 1.386 . S
C1221 C1225 1.393 . S
C1222 H1214 0.950 . S
C1222 C1220 1.391 . S
C1222 C1223 1.400 . S
C1223 C1222 1.400 . S
C1223 C1224 1.398 . S
C1223 C1229 1.491 . S
C1224 H1215 0.950 . S
C1224 C1223 1.398 . S
C1224 C1225 1.391 . S
C1225 H1213 0.950 . S
C1225 C1221 1.393 . S
C1225 C1224 1.391 . S
C1226 H1216 0.950 . S
C1226 C1227 1.386 . S
C1226 C1228 1.391 . S
C1227 C1226 1.386 . S
C1227 C1231 1.393 . S
C1228 H1217 0.950 . S
C1228 C1226 1.391 . S
C1228 C1229 1.400 . S
C1229 C1223 1.491 . S
C1229 C1228 1.400 . S
C1229 C1230 1.398 . S
C1230 H1218 0.950 . S
C1230 C1229 1.398 . S
C1230 C1231 1.391 . S
C1231 H1219 0.950 . S
C1231 C1227 1.393 . S
C1231 C1230 1.391 . S
H1232 C1240 0.950 . S
H1233 C1245 0.950 . S
H1234 C1242 0.950 . S
H1235 C1244 0.950 . S
H1236 C1246 0.950 . S
H1237 C1248 0.950 . S
H1238 C1250 0.950 . S
H1239 C1251 0.950 . S
C1240 H1232 0.950 . S
C1240 C1241 1.386 . S
C1240 C1242 1.391 1_545 S
C1241 C1240 1.386 . S
C1241 C1245 1.393 1_545 S
C1242 H1234 0.950 . S
C1242 C1240 1.391 1_565 S
C1242 C1243 1.400 . S
C1243 C1242 1.400 . S
C1243 C1244 1.398 . S
C1243 C1249 1.491 . S
C1244 H1235 0.950 . S
C1244 C1243 1.398 . S
C1244 C1245 1.391 . S
C1245 H1233 0.950 . S
C1245 C1241 1.393 1_565 S
C1245 C1244 1.391 . S
C1246 H1236 0.950 . S
C1246 C1247 1.386 . S
C1246 C1248 1.391 . S
C1247 C1246 1.386 . S
C1247 C1251 1.393 . S
C1248 H1237 0.950 . S
C1248 C1246 1.391 . S
C1248 C1249 1.400 . S
C1249 C1243 1.491 . S
C1249 C1248 1.400 . S
C1249 C1250 1.398 . S
C1250 H1238 0.950 . S
C1250 C1249 1.398 . S
C1250 C1251 1.391 . S
C1251 H1239 0.950 . S
C1251 C1247 1.393 . S
C1251 C1250 1.391 . S
H1252 C1260 0.950 . S
H1253 C1265 0.950 . S
H1254 C1262 0.950 . S
H1255 C1264 0.950 . S
H1256 C1266 0.950 1_655 S
H1257 C1268 0.950 . S
H1258 C1270 0.950 . S
H1259 C1271 0.950 . S
C1260 H1252 0.950 . S
C1260 C1261 1.386 . S
C1260 C1262 1.391 . S
C1261 C1260 1.386 . S
C1261 C1265 1.393 . S
C1262 H1254 0.950 . S
C1262 C1260 1.391 . S
C1262 C1263 1.400 . S
C1263 C1262 1.400 . S
C1263 C1264 1.398 . S
C1263 C1269 1.491 . S
C1264 H1255 0.950 . S
C1264 C1263 1.398 . S
C1264 C1265 1.391 . S
C1265 H1253 0.950 . S
C1265 C1261 1.393 . S
C1265 C1264 1.391 . S
C1266 H1256 0.950 1_455 S
C1266 C1267 1.386 1_455 S
C1266 C1268 1.391 . S
C1267 C1266 1.386 1_655 S
C1267 C1271 1.393 . S
C1268 H1257 0.950 . S
C1268 C1266 1.391 . S
C1268 C1269 1.400 . S
C1269 C1263 1.491 . S
C1269 C1268 1.400 . S
C1269 C1270 1.398 . S
C1270 H1258 0.950 . S
C1270 C1269 1.398 . S
C1270 C1271 1.391 1_455 S
C1271 H1259 0.950 . S
C1271 C1267 1.393 . S
C1271 C1270 1.391 1_655 S
H1272 C1280 0.950 . S
H1273 C1285 0.950 . S
H1274 C1282 0.950 . S
H1275 C1284 0.950 . S
H1276 C1286 0.950 . S
H1277 C1288 0.950 . S
H1278 C1290 0.950 . S
H1279 C1291 0.950 . S
C1280 H1272 0.950 . S
C1280 C1281 1.386 . S
C1280 C1282 1.391 . S
C1281 C1280 1.386 . S
C1281 C1285 1.393 . S
C1282 H1274 0.950 . S
C1282 C1280 1.391 . S
C1282 C1283 1.400 . S
C1283 C1282 1.400 . S
C1283 C1284 1.398 . S
C1283 C1289 1.491 . S
C1284 H1275 0.950 . S
C1284 C1283 1.398 . S
C1284 C1285 1.391 . S
C1285 H1273 0.950 . S
C1285 C1281 1.393 . S
C1285 C1284 1.391 . S
C1286 H1276 0.950 . S
C1286 C1287 1.386 . S
C1286 C1288 1.391 . S
C1287 C1286 1.386 . S
C1287 C1291 1.393 . S
C1288 H1277 0.950 . S
C1288 C1286 1.391 . S
C1288 C1289 1.400 . S
C1289 C1283 1.491 . S
C1289 C1288 1.400 . S
C1289 C1290 1.398 . S
C1290 H1278 0.950 . S
C1290 C1289 1.398 . S
C1290 C1291 1.391 . S
C1291 H1279 0.950 . S
C1291 C1287 1.393 . S
C1291 C1290 1.391 . S
H1292 C1300 0.950 . S
H1293 C1305 0.950 . S
H1294 C1302 0.950 . S
H1295 C1304 0.950 . S
H1296 C1306 0.950 . S
H1297 C1308 0.950 . S
H1298 C1310 0.950 . S
H1299 C1311 0.950 . S
C1300 H1292 0.950 . S
C1300 C1301 1.386 . S
C1300 C1302 1.391 . S
C1301 C1300 1.386 . S
C1301 C1305 1.393 . S
C1302 H1294 0.950 . S
C1302 C1300 1.391 . S
C1302 C1303 1.400 . S
C1303 C1302 1.400 . S
C1303 C1304 1.398 . S
C1303 C1309 1.491 . S
C1304 H1295 0.950 . S
C1304 C1303 1.398 . S
C1304 C1305 1.391 . S
C1305 H1293 0.950 . S
C1305 C1301 1.393 . S
C1305 C1304 1.391 . S
C1306 H1296 0.950 . S
C1306 C1307 1.386 . S
C1306 C1308 1.391 . S
C1307 C1306 1.386 . S
C1307 C1311 1.393 . S
C1308 H1297 0.950 . S
C1308 C1306 1.391 . S
C1308 C1309 1.400 . S
C1309 C1303 1.491 . S
C1309 C1308 1.400 . S
C1309 C1310 1.398 . S
C1310 H1298 0.950 . S
C1310 C1309 1.398 . S
C1310 C1311 1.391 . S
C1311 H1299 0.950 . S
C1311 C1307 1.393 . S
C1311 C1310 1.391 . S
H1312 C1320 0.950 . S
H1313 C1325 0.950 . S
H1314 C1322 0.950 . S
H1315 C1324 0.950 . S
H1316 C1326 0.950 . S
H1317 C1328 0.950 . S
H1318 C1330 0.950 . S
H1319 C1331 0.950 . S
C1320 H1312 0.950 . S
C1320 C1321 1.386 . S
C1320 C1322 1.391 . S
C1321 C1320 1.386 . S
C1321 C1325 1.393 . S
C1322 H1314 0.950 . S
C1322 C1320 1.391 . S
C1322 C1323 1.400 . S
C1323 C1322 1.400 . S
C1323 C1324 1.398 . S
C1323 C1329 1.491 . S
C1324 H1315 0.950 . S
C1324 C1323 1.398 . S
C1324 C1325 1.391 . S
C1325 H1313 0.950 . S
C1325 C1321 1.393 . S
C1325 C1324 1.391 . S
C1326 H1316 0.950 . S
C1326 C1327 1.386 . S
C1326 C1328 1.391 . S
C1327 C1326 1.386 . S
C1327 C1331 1.393 . S
C1328 H1317 0.950 . S
C1328 C1326 1.391 . S
C1328 C1329 1.400 . S
C1329 C1323 1.491 . S
C1329 C1328 1.400 . S
C1329 C1330 1.398 . S
C1330 H1318 0.950 . S
C1330 C1329 1.398 . S
C1330 C1331 1.391 . S
C1331 H1319 0.950 . S
C1331 C1327 1.393 . S
C1331 C1330 1.391 . S
H1332 C1340 0.950 . S
H1333 C1345 0.950 . S
H1334 C1342 0.950 . S
H1335 C1344 0.950 . S
H1336 C1346 0.950 . S
H1337 C1348 0.950 . S
H1338 C1350 0.950 . S
H1339 C1351 0.950 . S
C1340 H1332 0.950 . S
C1340 C1341 1.386 . S
C1340 C1342 1.391 . S
C1341 C1340 1.386 . S
C1341 C1345 1.393 . S
C1342 H1334 0.950 . S
C1342 C1340 1.391 . S
C1342 C1343 1.400 . S
C1343 C1342 1.400 . S
C1343 C1344 1.398 . S
C1343 C1349 1.491 . S
C1344 H1335 0.950 . S
C1344 C1343 1.398 . S
C1344 C1345 1.391 . S
C1345 H1333 0.950 . S
C1345 C1341 1.393 . S
C1345 C1344 1.391 . S
C1346 H1336 0.950 . S
C1346 C1347 1.386 . S
C1346 C1348 1.391 . S
C1347 C1346 1.386 . S
C1347 C1351 1.393 . S
C1348 H1337 0.950 . S
C1348 C1346 1.391 . S
C1348 C1349 1.400 . S
C1349 C1343 1.491 . S
C1349 C1348 1.400 . S
C1349 C1350 1.398 . S
C1350 H1338 0.950 . S
C1350 C1349 1.398 . S
C1350 C1351 1.391 . S
C1351 H1339 0.950 . S
C1351 C1347 1.393 . S
C1351 C1350 1.391 . S
H1352 C1360 0.950 . S
H1353 C1365 0.950 . S
H1354 C1362 0.950 . S
H1355 C1364 0.950 . S
H1356 C1366 0.950 . S
H1357 C1368 0.950 . S
H1358 C1370 0.950 . S
H1359 C1371 0.950 . S
C1360 H1352 0.950 . S
C1360 C1361 1.386 . S
C1360 C1362 1.391 . S
C1361 C1360 1.386 . S
C1361 C1365 1.393 . S
C1362 H1354 0.950 . S
C1362 C1360 1.391 . S
C1362 C1363 1.400 . S
C1363 C1362 1.400 . S
C1363 C1364 1.398 . S
C1363 C1369 1.491 . S
C1364 H1355 0.950 . S
C1364 C1363 1.398 . S
C1364 C1365 1.391 . S
C1365 H1353 0.950 . S
C1365 C1361 1.393 . S
C1365 C1364 1.391 . S
C1366 H1356 0.950 . S
C1366 C1367 1.386 . S
C1366 C1368 1.391 . S
C1367 C1366 1.386 . S
C1367 C1371 1.393 . S
C1368 H1357 0.950 . S
C1368 C1366 1.391 . S
C1368 C1369 1.400 . S
C1369 C1363 1.491 . S
C1369 C1368 1.400 . S
C1369 C1370 1.398 . S
C1370 H1358 0.950 . S
C1370 C1369 1.398 . S
C1370 C1371 1.391 . S
C1371 H1359 0.950 . S
C1371 C1367 1.393 . S
C1371 C1370 1.391 . S
H1372 C1380 0.950 . S
H1373 C1385 0.950 . S
H1374 C1382 0.950 . S
H1375 C1384 0.950 . S
H1376 C1386 0.950 . S
H1377 C1388 0.950 . S
H1378 C1390 0.950 . S
H1379 C1391 0.950 . S
C1380 H1372 0.950 . S
C1380 C1381 1.386 . S
C1380 C1382 1.391 . S
C1381 C1380 1.386 . S
C1381 C1385 1.393 . S
C1382 H1374 0.950 . S
C1382 C1380 1.391 . S
C1382 C1383 1.400 . S
C1383 C1382 1.400 . S
C1383 C1384 1.398 . S
C1383 C1389 1.491 . S
C1384 H1375 0.950 . S
C1384 C1383 1.398 . S
C1384 C1385 1.391 . S
C1385 H1373 0.950 . S
C1385 C1381 1.393 . S
C1385 C1384 1.391 . S
C1386 H1376 0.950 . S
C1386 C1387 1.386 . S
C1386 C1388 1.391 . S
C1387 C1386 1.386 . S
C1387 C1391 1.393 . S
C1388 H1377 0.950 . S
C1388 C1386 1.391 . S
C1388 C1389 1.400 . S
C1389 C1383 1.491 . S
C1389 C1388 1.400 . S
C1389 C1390 1.398 . S
C1390 H1378 0.950 . S
C1390 C1389 1.398 . S
C1390 C1391 1.391 . S
C1391 H1379 0.950 . S
C1391 C1387 1.393 . S
C1391 C1390 1.391 . S
H1392 C1400 0.950 . S
H1393 C1405 0.950 . S
H1394 C1402 0.950 . S
H1395 C1404 0.950 . S
H1396 C1406 0.950 . S
H1397 C1408 0.950 . S
H1398 C1410 0.950 . S
H1399 C1411 0.950 . S
C1400 H1392 0.950 . S
C1400 C1401 1.386 . S
C1400 C1402 1.391 . S
C1401 C1400 1.386 . S
C1401 C1405 1.393 . S
C1402 H1394 0.950 . S
C1402 C1400 1.391 . S
C1402 C1403 1.400 . S
C1403 C1402 1.400 . S
C1403 C1404 1.398 . S
C1403 C1409 1.491 . S
C1404 H1395 0.950 . S
C1404 C1403 1.398 . S
C1404 C1405 1.391 . S
C1405 H1393 0.950 . S
C1405 C1401 1.393 . S
C1405 C1404 1.391 . S
C1406 H1396 0.950 . S
C1406 C1407 1.386 . S
C1406 C1408 1.391 . S
C1407 C1406 1.386 . S
C1407 C1411 1.393 . S
C1408 H1397 0.950 . S
C1408 C1406 1.391 . S
C1408 C1409 1.400 . S
C1409 C1403 1.491 . S
C1409 C1408 1.400 . S
C1409 C1410 1.398 . S
C1410 H1398 0.950 . S
C1410 C1409 1.398 . S
C1410 C1411 1.391 . S
C1411 H1399 0.950 . S
C1411 C1407 1.393 . S
C1411 C1410 1.391 . S
H1412 C1420 0.950 . S
H1413 C1425 0.950 . S
H1414 C1422 0.950 . S
H1415 C1424 0.950 . S
H1416 C1426 0.950 . S
H1417 C1428 0.950 . S
H1418 C1430 0.950 . S
H1419 C1431 0.950 . S
C1420 H1412 0.950 . S
C1420 C1421 1.386 . S
C1420 C1422 1.391 . S
C1421 C1420 1.386 . S
C1421 C1425 1.393 . S
C1422 H1414 0.950 . S
C1422 C1420 1.391 . S
C1422 C1423 1.400 . S
C1423 C1422 1.400 . S
C1423 C1424 1.398 . S
C1423 C1429 1.491 . S
C1424 H1415 0.950 . S
C1424 C1423 1.398 . S
C1424 C1425 1.391 . S
C1425 H1413 0.950 . S
C1425 C1421 1.393 . S
C1425 C1424 1.391 . S
C1426 H1416 0.950 . S
C1426 C1427 1.386 . S
C1426 C1428 1.391 . S
C1427 C1426 1.386 . S
C1427 C1431 1.393 . S
C1428 H1417 0.950 . S
C1428 C1426 1.391 . S
C1428 C1429 1.400 . S
C1429 C1423 1.491 . S
C1429 C1428 1.400 . S
C1429 C1430 1.398 . S
C1430 H1418 0.950 . S
C1430 C1429 1.398 . S
C1430 C1431 1.391 . S
C1431 H1419 0.950 . S
C1431 C1427 1.393 . S
C1431 C1430 1.391 . S
H1432 C1440 0.950 . S
H1433 C1445 0.950 . S
H1434 C1442 0.950 . S
H1435 C1444 0.950 . S
H1436 C1446 0.950 . S
H1437 C1448 0.950 . S
H1438 C1450 0.950 . S
H1439 C1451 0.950 . S
C1440 H1432 0.950 . S
C1440 C1441 1.386 . S
C1440 C1442 1.391 . S
C1441 C1440 1.386 . S
C1441 C1445 1.393 . S
C1442 H1434 0.950 . S
C1442 C1440 1.391 . S
C1442 C1443 1.400 . S
C1443 C1442 1.400 . S
C1443 C1444 1.398 . S
C1443 C1449 1.491 . S
C1444 H1435 0.950 . S
C1444 C1443 1.398 . S
C1444 C1445 1.391 . S
C1445 H1433 0.950 . S
C1445 C1441 1.393 . S
C1445 C1444 1.391 . S
C1446 H1436 0.950 . S
C1446 C1447 1.386 . S
C1446 C1448 1.391 . S
C1447 C1446 1.386 . S
C1447 C1451 1.393 . S
C1448 H1437 0.950 . S
C1448 C1446 1.391 . S
C1448 C1449 1.400 . S
C1449 C1443 1.491 . S
C1449 C1448 1.400 . S
C1449 C1450 1.398 . S
C1450 H1438 0.950 . S
C1450 C1449 1.398 . S
C1450 C1451 1.391 . S
C1451 H1439 0.950 . S
C1451 C1447 1.393 . S
C1451 C1450 1.391 . S
H1452 C1460 0.950 . S
H1453 C1465 0.950 . S
H1454 C1462 0.950 . S
H1455 C1464 0.950 . S
H1456 C1466 0.950 . S
H1457 C1468 0.950 . S
H1458 C1470 0.950 . S
H1459 C1471 0.950 . S
C1460 H1452 0.950 . S
C1460 C1461 1.386 . S
C1460 C1462 1.391 . S
C1461 C1460 1.386 . S
C1461 C1465 1.393 . S
C1462 H1454 0.950 . S
C1462 C1460 1.391 . S
C1462 C1463 1.400 . S
C1463 C1462 1.400 . S
C1463 C1464 1.398 . S
C1463 C1469 1.491 . S
C1464 H1455 0.950 . S
C1464 C1463 1.398 . S
C1464 C1465 1.391 . S
C1465 H1453 0.950 . S
C1465 C1461 1.393 . S
C1465 C1464 1.391 . S
C1466 H1456 0.950 . S
C1466 C1467 1.386 . S
C1466 C1468 1.391 . S
C1467 C1466 1.386 . S
C1467 C1471 1.393 . S
C1468 H1457 0.950 . S
C1468 C1466 1.391 . S
C1468 C1469 1.400 . S
C1469 C1463 1.491 . S
C1469 C1468 1.400 . S
C1469 C1470 1.398 . S
C1470 H1458 0.950 . S
C1470 C1469 1.398 . S
C1470 C1471 1.391 . S
C1471 H1459 0.950 . S
C1471 C1467 1.393 . S
C1471 C1470 1.391 . S
H1472 C1480 0.950 . S
H1473 C1485 0.950 . S
H1474 C1482 0.950 . S
H1475 C1484 0.950 . S
H1476 C1486 0.950 . S
H1477 C1488 0.950 . S
H1478 C1490 0.950 . S
H1479 C1491 0.950 . S
C1480 H1472 0.950 . S
C1480 C1481 1.386 . S
C1480 C1482 1.391 . S
C1481 C1480 1.386 . S
C1481 C1485 1.393 . S
C1482 H1474 0.950 . S
C1482 C1480 1.391 . S
C1482 C1483 1.400 . S
C1483 C1482 1.400 . S
C1483 C1484 1.398 . S
C1483 C1489 1.491 . S
C1484 H1475 0.950 . S
C1484 C1483 1.398 . S
C1484 C1485 1.391 . S
C1485 H1473 0.950 . S
C1485 C1481 1.393 . S
C1485 C1484 1.391 . S
C1486 H1476 0.950 . S
C1486 C1487 1.386 . S
C1486 C1488 1.391 . S
C1487 C1486 1.386 . S
C1487 C1491 1.393 . S
C1488 H1477 0.950 . S
C1488 C1486 1.391 . S
C1488 C1489 1.400 . S
C1489 C1483 1.491 . S
C1489 C1488 1.400 . S
C1489 C1490 1.398 . S
C1490 H1478 0.950 . S
C1490 C1489 1.398 . S
C1490 C1491 1.391 . S
C1491 H1479 0.950 . S
C1491 C1487 1.393 . S
C1491 C1490 1.391 . S
H1492 C1500 0.950 . S
H1493 C1505 0.950 . S
H1494 C1502 0.950 . S
H1495 C1504 0.950 . S
H1496 C1506 0.950 . S
H1497 C1508 0.950 . S
H1498 C1510 0.950 . S
H1499 C1511 0.950 . S
C1500 H1492 0.950 . S
C1500 C1501 1.386 . S
C1500 C1502 1.391 . S
C1501 C1500 1.386 . S
C1501 C1505 1.393 . S
C1502 H1494 0.950 . S
C1502 C1500 1.391 . S
C1502 C1503 1.400 . S
C1503 C1502 1.400 . S
C1503 C1504 1.398 . S
C1503 C1509 1.491 . S
C1504 H1495 0.950 . S
C1504 C1503 1.398 . S
C1504 C1505 1.391 . S
C1505 H1493 0.950 . S
C1505 C1501 1.393 . S
C1505 C1504 1.391 . S
C1506 H1496 0.950 . S
C1506 C1507 1.386 . S
C1506 C1508 1.391 . S
C1507 C1506 1.386 . S
C1507 C1511 1.393 . S
C1508 H1497 0.950 . S
C1508 C1506 1.391 . S
C1508 C1509 1.400 . S
C1509 C1503 1.491 . S
C1509 C1508 1.400 . S
C1509 C1510 1.398 . S
C1510 H1498 0.950 . S
C1510 C1509 1.398 . S
C1510 C1511 1.391 . S
C1511 H1499 0.950 . S
C1511 C1507 1.393 . S
C1511 C1510 1.391 . S
C621 C315 0.480 . S
C627 C9 0.516 . S
C641 C349 0.518 . S
C647 C43 0.476 . S
C661 C383 0.472 . S
C667 C77 0.519 . S
C681 C111 0.503 . S
C687 C417 0.501 . S
C701 C451 0.507 . S
C707 C145 0.496 . S
C721 C485 0.485 . S
C727 C179 0.514 . S
C741 C213 0.463 . S
C747 C519 0.520 . S
C761 C553 0.429 . S
C767 C247 0.492 . S
C781 C587 0.470 . S
C787 C281 0.519 . S
C801 C598 1.890 . S
C807 C20 1.895 . S
C821 C530 1.895 . S
C827 C54 1.890 . S
C841 C88 1.898 . S
C847 C564 1.891 . S
C861 C258 1.891 . S
C867 C122 1.892 . S
C881 C292 1.903 . S
C887 C156 1.905 . S
C901 C190 1.897 . S
C907 C224 1.891 . S
C921 C326 1.900 . S
C927 C462 1.892 . S
C941 C496 1.899 . S
C947 C360 1.905 . S
C961 C394 1.901 . S
C967 C428 1.905 . S
C981 C2 1.824 . S
C987 C138 1.824 . S
C1001 C172 1.811 . S
C1007 C36 1.811 . S
C1021 C104 1.807 . S
C1027 C70 1.807 . S
C1041 C342 1.820 . S
C1047 C206 1.820 . S
C1061 C240 1.817 . S
C1067 C376 1.817 . S
C1081 C308 1.826 . S
C1087 C274 1.826 . S
C1101 C410 1.808 . S
C1107 C546 1.808 . S
C1121 C580 1.814 . S
C1127 C444 1.814 . S
C1141 C478 1.818 . S
C1147 C512 1.818 . S
C1161 C101 1.310 1_545 S
C1167 C5 1.315 . S
C1181 C33 1.327 1_655 S
C1187 C39 1.310 . S
C1201 C67 1.327 . S
C1207 C73 1.321 . S
C1221 C169 1.321 1_455 S
C1227 C107 1.302 . S
C1241 C141 1.309 . S
C1247 C203 1.326 . S
C1261 C135 1.328 1_565 S
C1267 C175 1.319 . S
C1281 C305 1.311 . S
C1287 C209 1.316 . S
C1301 C237 1.305 . S
C1307 C243 1.303 . S
C1321 C277 1.313 . S
C1327 C271 1.328 . S
C1341 C311 1.312 . S
C1347 C373 1.308 . S
C1361 C407 1.321 . S
C1367 C345 1.302 . S
C1381 C339 1.306 . S
C1387 C379 1.307 . S
C1401 C413 1.315 . S
C1407 C509 1.309 . S
C1421 C441 1.325 . S
C1427 C447 1.307 . S
C1441 C475 1.327 . S
C1447 C481 1.311 . S
C1461 C577 1.323 . S
C1467 C515 1.323 . S
C1481 C611 1.306 . S
C1487 C549 1.300 . S
C1501 C543 1.324 . S
C1507 C583 1.323 . S
