# Generated by pormake.
# Topology upa, (4)-cn, num edge types: 1
# Building blocks:
#     Node 0, Type 0, BuildingBlock: AZAVOO_clean_sbu_0, # of connection points: 4
#     Node 1, Type 0, BuildingBlock: AZAVOO_clean_sbu_0, # of connection points: 4
#     Node 2, Type 0, BuildingBlock: AZAVOO_clean_sbu_0, # of connection points: 4
#     Node 3, Type 0, BuildingBlock: AZAVOO_clean_sbu_0, # of connection points: 4
#     Node 4, Type 0, BuildingBlock: AZAVOO_clean_sbu_0, # of connection points: 4
#     Node 5, Type 0, BuildingBlock: AZAVOO_clean_sbu_0, # of connection points: 4
#     Node 6, Type 0, BuildingBlock: AZAVOO_clean_sbu_0, # of connection points: 4
#     Node 7, Type 0, BuildingBlock: AZAVOO_clean_sbu_0, # of connection points: 4
#     Edge 8, Type (0, 0), BuildingBlock: FUNLAD_clean_linker_1, # of connection points: 2
#     Edge 9, Type (0, 0), BuildingBlock: FUNLAD_clean_linker_1, # of connection points: 2
#     Edge 10, Type (0, 0), BuildingBlock: FUNLAD_clean_linker_1, # of connection points: 2
#     Edge 11, Type (0, 0), BuildingBlock: FUNLAD_clean_linker_1, # of connection points: 2
#     Edge 12, Type (0, 0), BuildingBlock: FUNLAD_clean_linker_1, # of connection points: 2
#     Edge 13, Type (0, 0), BuildingBlock: FUNLAD_clean_linker_1, # of connection points: 2
#     Edge 14, Type (0, 0), BuildingBlock: FUNLAD_clean_linker_1, # of connection points: 2
#     Edge 15, Type (0, 0), BuildingBlock: FUNLAD_clean_linker_1, # of connection points: 2
#     Edge 16, Type (0, 0), BuildingBlock: FUNLAD_clean_linker_1, # of connection points: 2
#     Edge 17, Type (0, 0), BuildingBlock: FUNLAD_clean_linker_1, # of connection points: 2
#     Edge 18, Type (0, 0), BuildingBlock: FUNLAD_clean_linker_1, # of connection points: 2
#     Edge 19, Type (0, 0), BuildingBlock: FUNLAD_clean_linker_1, # of connection points: 2
#     Edge 20, Type (0, 0), BuildingBlock: FUNLAD_clean_linker_1, # of connection points: 2
#     Edge 21, Type (0, 0), BuildingBlock: FUNLAD_clean_linker_1, # of connection points: 2
#     Edge 22, Type (0, 0), BuildingBlock: FUNLAD_clean_linker_1, # of connection points: 2
#     Edge 23, Type (0, 0), BuildingBlock: FUNLAD_clean_linker_1, # of connection points: 2
# Relax obj value: 0.205
# Max RMSD: 0.199
# Mean RMSD: 0.199
data_MOF--net-upa--node1-AZAVOO_clean_sbu_0--edge1-FUNLAD_clean_linker_1
_symmetry_space_group_name_H-M    P1
_symmetry_Int_Tables_number       1
_symmetry_cell_setting            triclinic
loop_
_symmetry_equiv_pos_as_xyz
'x, y, z'
_cell_length_a     27.955486
_cell_length_b     28.119705
_cell_length_c     44.66503
_cell_angle_alpha  90.05477
_cell_angle_beta   90.104631
_cell_angle_gamma 90.242094
loop_
_atom_site_label
_atom_site_type_symbol
_atom_site_fract_x
_atom_site_fract_y
_atom_site_fract_z
_atom_type_partial_charge
Mg0 Mg 0.12632 0.29783 0.34255 0.0
O1 O 0.10173 0.22072 0.33764 0.0
O2 O 0.153 0.17238 0.36084 0.0
Mg3 Mg 0.21449 0.21897 0.37804 0.0
C4 C 0.1145 0.17947 0.34615 0.0
C5 C 0.0329 0.3437 0.32276 0.0
O6 O 0.04022 0.36123 0.34962 0.0
O7 O 0.18368 0.28871 0.30562 0.0
O8 O 0.23419 0.24142 0.33054 0.0
O9 O 0.08997 0.2978 0.38715 0.0
O10 O 0.16631 0.28023 0.38049 0.0
C11 C 0.2226 0.26487 0.30717 0.0
C12 C 0.13 0.28257 0.39794 0.0
O13 O 0.06508 0.31792 0.31088 0.0
Mg14 Mg 0.26585 0.62613 0.83864 0.0
O15 O 0.34337 0.6071 0.82924 0.0
O16 O 0.39253 0.66257 0.84784 0.0
Mg17 Mg 0.3447 0.7203 0.86782 0.0
C18 C 0.38526 0.62321 0.83436 0.0
C19 C 0.25935 0.52448 0.81353 0.0
O20 O 0.28651 0.51885 0.83729 0.0
O21 O 0.26627 0.68167 0.80092 0.0
O22 O 0.31328 0.73704 0.82189 0.0
O23 O 0.27394 0.59093 0.88328 0.0
O24 O 0.28787 0.66728 0.87506 0.0
C25 C 0.28703 0.72226 0.80035 0.0
C26 C 0.28958 0.63149 0.89292 0.0
O27 O 0.2436 0.56568 0.80729 0.0
Mg28 Mg 0.8896 0.75842 0.32943 0.0
O29 O 0.91842 0.83398 0.33304 0.0
O30 O 0.86537 0.8809 0.35567 0.0
Mg31 Mg 0.80078 0.83342 0.36677 0.0
C32 C 0.90581 0.87433 0.34315 0.0
C33 C 0.97926 0.70864 0.30269 0.0
O34 O 0.96846 0.6775 0.32351 0.0
O35 O 0.83881 0.77984 0.29143 0.0
O36 O 0.78411 0.8212 0.31701 0.0
O37 O 0.91953 0.74268 0.37465 0.0
O38 O 0.8463 0.76951 0.36666 0.0
C39 C 0.79942 0.8027 0.2927 0.0
C40 C 0.87941 0.7579 0.38529 0.0
O41 O 0.95174 0.74377 0.29812 0.0
Mg42 Mg 0.73623 0.33041 0.8351 0.0
O43 O 0.65885 0.3548 0.83034 0.0
O44 O 0.60982 0.30196 0.85174 0.0
Mg45 Mg 0.65652 0.24208 0.86987 0.0
C46 C 0.61707 0.34072 0.83768 0.0
C47 C 0.79722 0.41092 0.80547 0.0
O48 O 0.829 0.39458 0.82448 0.0
O49 O 0.72597 0.27438 0.79803 0.0
O50 O 0.68013 0.22209 0.82264 0.0
O51 O 0.74036 0.36615 0.87967 0.0
O52 O 0.71775 0.29136 0.87326 0.0
C53 C 0.70337 0.23479 0.79937 0.0
C54 C 0.72378 0.32709 0.89093 0.0
O55 O 0.75704 0.38993 0.80291 0.0
Mg56 Mg 0.63545 0.27382 0.16758 0.0
O57 O 0.60656 0.34798 0.15883 0.0
O58 O 0.6521 0.38707 0.12596 0.0
Mg59 Mg 0.71343 0.33665 0.11428 0.0
C60 C 0.61582 0.38463 0.14318 0.0
C61 C 0.55724 0.22971 0.20873 0.0
O62 O 0.57195 0.19114 0.19505 0.0
O63 O 0.69573 0.30403 0.19775 0.0
O64 O 0.74096 0.33854 0.16242 0.0
O65 O 0.59499 0.24759 0.12751 0.0
O66 O 0.66947 0.27422 0.12604 0.0
C67 C 0.73329 0.3269 0.1896 0.0
C68 C 0.63223 0.2591 0.11195 0.0
O69 O 0.57939 0.26872 0.20457 0.0
Mg70 Mg 0.23051 0.11897 0.64701 0.0
O71 O 0.15152 0.10691 0.65667 0.0
O72 O 0.10819 0.1669 0.6385 0.0
Mg73 Mg 0.16188 0.2201 0.61866 0.0
C74 C 0.11142 0.12688 0.65175 0.0
C75 C 0.2875 0.03804 0.67983 0.0
O76 O 0.32415 0.05803 0.66642 0.0
O77 O 0.23611 0.17375 0.68498 0.0
O78 O 0.19553 0.23414 0.66471 0.0
O79 O 0.21828 0.08396 0.60298 0.0
O80 O 0.21237 0.16158 0.61062 0.0
C81 C 0.22029 0.2163 0.68596 0.0
C82 C 0.20645 0.12553 0.59315 0.0
O83 O 0.24628 0.05647 0.67749 0.0
Mg84 Mg 0.3829 0.79942 0.14391 0.0
O85 O 0.41222 0.72409 0.14541 0.0
O86 O 0.3618 0.67327 0.12329 0.0
Mg87 Mg 0.29685 0.71707 0.10894 0.0
C88 C 0.40113 0.68244 0.13665 0.0
C89 C 0.48561 0.81127 0.16702 0.0
O90 O 0.49173 0.79225 0.14043 0.0
O91 O 0.32991 0.78299 0.18203 0.0
O92 O 0.28009 0.73373 0.15775 0.0
O93 O 0.41534 0.80568 0.09822 0.0
O94 O 0.34098 0.78196 0.10681 0.0
C95 C 0.2928 0.75622 0.18133 0.0
C96 C 0.37541 0.78835 0.08827 0.0
O97 O 0.44342 0.82036 0.17591 0.0
Mg98 Mg 0.75513 0.82907 0.65761 0.0
O99 O 0.83139 0.85793 0.65956 0.0
O100 O 0.88096 0.8082 0.63621 0.0
Mg101 Mg 0.83529 0.74593 0.61936 0.0
C102 C 0.87304 0.84653 0.6506 0.0
C103 C 0.69704 0.90975 0.68792 0.0
O104 O 0.66524 0.89522 0.66825 0.0
O105 O 0.77119 0.77291 0.69362 0.0
O106 O 0.81681 0.72301 0.66718 0.0
O107 O 0.74551 0.8656 0.61385 0.0
O108 O 0.77138 0.79168 0.61854 0.0
C109 C 0.79497 0.73433 0.69125 0.0
C110 C 0.76259 0.82764 0.60159 0.0
O111 O 0.73593 0.88701 0.69093 0.0
H112 H 0.04673 0.14817 0.33035 0.0
C113 C 0.08065 0.13993 0.34108 0.0
H114 H 0.12114 0.0875 0.36329 0.0
H115 H 0.94605 0.96668 0.40822 0.0
H116 H 0.9811 0.99468 0.4547 0.0
H117 H 0.04689 0.05346 0.45449 0.0
H118 H 0.07841 0.08401 0.40785 0.0
C119 C 0.08821 0.09577 0.35145 0.0
C120 C 0.04913 0.05956 0.35116 0.0
C121 C 0.0306 0.04258 0.37874 0.0
C122 C 0.99194 0.00951 0.3789 0.0
C123 C 0.97487 0.99236 0.40675 0.0
C124 C 0.9947 0.0081 0.43364 0.0
C125 C 0.03177 0.04112 0.43352 0.0
C126 C 0.04961 0.0583 0.40651 0.0
H127 H 0.975 0.9059 0.33053 0.0
C128 C 0.9407 0.91359 0.3409 0.0
H129 H 0.89956 0.96531 0.36339 0.0
H130 H 0.07992 0.07986 0.29429 0.0
H131 H 0.04208 0.05524 0.24789 0.0
H132 H 0.97004 0.00426 0.24835 0.0
H133 H 0.93618 0.9767 0.2952 0.0
C134 C 0.93279 0.9573 0.35189 0.0
C135 C 0.97143 0.99395 0.35151 0.0
C136 C 0.98925 0.01175 0.32395 0.0
C137 C 0.02908 0.04339 0.32374 0.0
C138 C 0.04826 0.05779 0.29584 0.0
C139 C 0.02713 0.04358 0.269 0.0
C140 C 0.98671 0.01471 0.26925 0.0
C141 C 0.96785 0.99886 0.29632 0.0
H142 H 0.46232 0.60672 0.83241 0.0
C143 C 0.42671 0.59278 0.8278 0.0
H144 H 0.386 0.53205 0.81561 0.0
H145 H 0.55862 0.41329 0.7641 0.0
H146 H 0.51524 0.43114 0.7183 0.0
H147 H 0.44736 0.48695 0.71864 0.0
H148 H 0.42236 0.52524 0.76475 0.0
C149 C 0.42123 0.54669 0.82041 0.0
C150 C 0.46233 0.5134 0.82022 0.0
C151 C 0.47651 0.49154 0.79307 0.0
C152 C 0.51575 0.45955 0.79283 0.0
C153 C 0.52914 0.43801 0.76546 0.0
C154 C 0.50457 0.44796 0.73904 0.0
C155 C 0.46635 0.47939 0.73923 0.0
C156 C 0.45232 0.50106 0.76585 0.0
H157 H 0.54117 0.36107 0.8408 0.0
C158 C 0.57588 0.37203 0.8322 0.0
H159 H 0.61487 0.42697 0.81066 0.0
H160 H 0.43939 0.54267 0.87723 0.0
H161 H 0.48359 0.52592 0.9226 0.0
H162 H 0.5557 0.47569 0.92141 0.0
H163 H 0.58332 0.44122 0.87486 0.0
C164 C 0.58077 0.41523 0.81972 0.0
C165 C 0.54048 0.44941 0.81976 0.0
C166 C 0.52643 0.47137 0.84694 0.0
C167 C 0.48644 0.50234 0.84734 0.0
C168 C 0.47098 0.52089 0.87522 0.0
C169 C 0.49579 0.51119 0.90157 0.0
C170 C 0.53626 0.48278 0.90092 0.0
C171 C 0.55156 0.463 0.87402 0.0
H172 H 0.55041 0.41968 0.15889 0.0
C173 C 0.58173 0.4243 0.14474 0.0
H174 H 0.61691 0.46946 0.11399 0.0
H175 H 0.42828 0.57806 0.07689 0.0
H176 H 0.45049 0.53948 0.03052 0.0
H177 H 0.51711 0.48231 0.02897 0.0
H178 H 0.56241 0.46395 0.07379 0.0
C179 C 0.5868 0.46469 0.12906 0.0
C180 C 0.54865 0.50145 0.12977 0.0
C181 C 0.52203 0.51116 0.10344 0.0
C182 C 0.48284 0.54323 0.10451 0.0
C183 C 0.45773 0.55327 0.07765 0.0
C184 C 0.47018 0.53144 0.05078 0.0
C185 C 0.50772 0.49931 0.0499 0.0
C186 C 0.53346 0.48913 0.07583 0.0
H187 H 0.47283 0.65604 0.14778 0.0
C188 C 0.43751 0.64516 0.14006 0.0
H189 H 0.395 0.58849 0.12396 0.0
H190 H 0.59767 0.49783 0.1829 0.0
H191 H 0.57387 0.53385 0.22992 0.0
H192 H 0.50016 0.58147 0.23324 0.0
H193 H 0.45073 0.59454 0.18941 0.0
C194 C 0.42971 0.59956 0.13255 0.0
C195 C 0.46978 0.5648 0.13204 0.0
C196 C 0.49625 0.55472 0.15844 0.0
C197 C 0.53685 0.52456 0.15701 0.0
C198 C 0.56504 0.51837 0.1831 0.0
C199 C 0.552 0.53912 0.21019 0.0
C200 C 0.51065 0.56614 0.21202 0.0
C201 C 0.48285 0.57378 0.18657 0.0
H202 H 0.033 0.11645 0.65248 0.0
C203 C 0.06705 0.10018 0.65813 0.0
H204 H 0.10181 0.0375 0.67262 0.0
H205 H 0.91889 0.93291 0.72272 0.0
H206 H 0.95517 0.95855 0.7695 0.0
H207 H 0.02342 0.01448 0.7697 0.0
H208 H 0.05584 0.04518 0.72311 0.0
C209 C 0.06818 0.05435 0.66672 0.0
C210 C 0.02464 0.02386 0.6666 0.0
C211 C 0.00592 0.00661 0.69398 0.0
C212 C 0.96642 0.97457 0.69387 0.0
C213 C 0.94872 0.95748 0.72154 0.0
C214 C 0.96922 0.97189 0.74855 0.0
C215 C 0.00766 0.00337 0.74866 0.0
C216 C 0.02597 0.02065 0.72177 0.0
H217 H 0.94799 0.87043 0.64634 0.0
C218 C 0.91295 0.88034 0.65478 0.0
H219 H 0.87197 0.9347 0.67511 0.0
H220 H 0.05406 0.04705 0.60967 0.0
H221 H 0.01515 0.02482 0.56328 0.0
H222 H 0.94264 0.97457 0.56341 0.0
H223 H 0.90946 0.94521 0.60998 0.0
C224 C 0.90646 0.92414 0.66618 0.0
C225 C 0.94589 0.95979 0.66636 0.0
C226 C 0.96336 0.97856 0.63898 0.0
C227 C 1.0036 0.00963 0.63903 0.0
C228 C 0.02235 0.0251 0.61119 0.0
C229 C 1.00052 0.01233 0.58429 0.0
C230 C 0.95985 0.98386 0.58436 0.0
C231 C 0.94136 0.96702 0.61128 0.0
H232 H 0.16951 0.258 0.43706 0.0
C233 C 0.13368 0.2615 0.42778 0.0
H234 H 0.06056 0.24321 0.43305 0.0
H235 H 0.22016 0.11646 0.51302 0.0
H236 H 0.23853 0.07947 0.46556 0.0
H237 H 0.19406 0.10102 0.41976 0.0
H238 H 0.13202 0.16147 0.42134 0.0
C239 C 0.09667 0.24104 0.44196 0.0
C240 C 0.10609 0.21392 0.46989 0.0
C241 C 0.13875 0.17554 0.46927 0.0
C242 C 0.16169 0.16074 0.49606 0.0
C243 C 0.19901 0.12696 0.49394 0.0
C244 C 0.21036 0.10571 0.46666 0.0
C245 C 0.18554 0.11799 0.44085 0.0
C246 C 0.15032 0.15277 0.44199 0.0
H247 H 0.16645 0.09906 0.55375 0.0
C248 C 0.18128 0.13062 0.5644 0.0
H249 H 0.19046 0.20485 0.56272 0.0
H250 H 0.03626 0.27992 0.47878 0.0
H251 H 0.00813 0.30918 0.52688 0.0
H252 H 0.0423 0.27865 0.57406 0.0
H253 H 0.10521 0.21934 0.57343 0.0
C254 C 0.17626 0.17343 0.55156 0.0
C255 C 0.14806 0.18145 0.52378 0.0
C256 C 0.10969 0.21439 0.52463 0.0
C257 C 0.08912 0.23116 0.49755 0.0
C258 C 0.05277 0.26594 0.49883 0.0
C259 C 0.03624 0.28284 0.52625 0.0
C260 C 0.05552 0.26569 0.55281 0.0
C261 C 0.09183 0.2319 0.55215 0.0
H262 H 0.32487 0.60338 0.9336 0.0
C263 C 0.31401 0.63557 0.92205 0.0
H264 H 0.31271 0.71041 0.92205 0.0
H265 H 0.35917 0.67132 0.06524 0.0
H266 H 0.29065 0.61767 0.06692 0.0
H267 H 0.24639 0.59752 0.0207 0.0
H268 H 0.27126 0.62905 0.97285 0.0
C269 C 0.3231 0.67849 0.93408 0.0
C270 C 0.3506 0.68572 0.96225 0.0
C271 C 0.33324 0.66864 0.99011 0.0
C272 C 0.3562 0.6831 0.01702 0.0
C273 C 0.34092 0.66326 0.04449 0.0
C274 C 0.30203 0.63228 0.04567 0.0
C275 C 0.27731 0.62077 0.01963 0.0
C276 C 0.29237 0.63883 0.99215 0.0
H277 H 0.33418 0.76922 0.04854 0.0
C278 C 0.37012 0.76944 0.05791 0.0
H279 H 0.4407 0.74344 0.05328 0.0
H280 H 0.39998 0.71554 0.91278 0.0
H281 H 0.46869 0.7687 0.9121 0.0
H282 H 0.50317 0.79956 0.95922 0.0
H283 H 0.4695 0.77678 0.00732 0.0
C284 C 0.40481 0.74516 0.04398 0.0
C285 C 0.39285 0.71809 0.01627 0.0
C286 C 0.41294 0.73169 0.9886 0.0
C287 C 0.39223 0.71487 0.9615 0.0
C288 C 0.41336 0.72849 0.93401 0.0
C289 C 0.453 0.75869 0.93334 0.0
C290 C 0.47245 0.77601 0.95987 0.0
C291 C 0.45275 0.76282 0.98728 0.0
H292 H 0.76725 0.85852 0.55626 0.0
C293 C 0.77488 0.8271 0.56958 0.0
H294 H 0.80088 0.75673 0.56947 0.0
H295 H 0.76854 0.71491 0.43335 0.0
H296 H 0.70876 0.66397 0.45616 0.0
H297 H 0.69163 0.6692 0.51021 0.0
H298 H 0.73443 0.72515 0.54179 0.0
C299 C 0.79492 0.78896 0.55668 0.0
C300 C 0.80482 0.78726 0.52409 0.0
C301 C 0.77901 0.75469 0.50593 0.0
C302 C 0.78823 0.7523 0.47472 0.0
C303 C 0.7625 0.71883 0.45714 0.0
C304 C 0.72812 0.68924 0.46995 0.0
C305 C 0.71853 0.69213 0.50038 0.0
C306 C 0.74351 0.72438 0.51826 0.0
H307 H 0.90191 0.75445 0.43268 0.0
C308 C 0.87281 0.7641 0.41773 0.0
H309 H 0.80151 0.78806 0.41434 0.0
H310 H 0.86476 0.84977 0.55312 0.0
H311 H 0.92216 0.90306 0.52999 0.0
H312 H 0.93324 0.9037 0.47519 0.0
H313 H 0.88791 0.85007 0.44333 0.0
C314 C 0.83147 0.78029 0.42901 0.0
C315 C 0.8229 0.78282 0.46172 0.0
C316 C 0.84831 0.8159 0.4798 0.0
C317 C 0.84011 0.81729 0.51119 0.0
C318 C 0.86801 0.8486 0.52901 0.0
C319 C 0.90133 0.87922 0.51604 0.0
C320 C 0.90772 0.87942 0.48521 0.0
C321 C 0.88164 0.84822 0.46718 0.0
H322 H 0.71991 0.35418 0.93725 0.0
C323 C 0.71051 0.32446 0.92278 0.0
H324 H 0.68016 0.25578 0.92019 0.0
H325 H 0.71702 0.19621 0.05306 0.0
H326 H 0.76639 0.1405 0.02563 0.0
H327 H 0.77755 0.14868 0.9711 0.0
H328 H 0.73921 0.21224 0.94369 0.0
C329 C 0.68843 0.28609 0.93428 0.0
C330 C 0.68016 0.28088 0.96695 0.0
C331 C 0.70323 0.24353 0.98259 0.0
C332 C 0.69767 0.23938 0.01407 0.0
C333 C 0.72071 0.20152 0.02918 0.0
C334 C 0.74904 0.16918 0.01371 0.0
C335 C 0.75525 0.17373 0.98301 0.0
C336 C 0.73282 0.21041 0.96753 0.0
H337 H 0.59716 0.25128 0.06769 0.0
C338 C 0.63056 0.25979 0.079 0.0
H339 H 0.70356 0.27767 0.07415 0.0
H340 H 0.62383 0.35098 0.94306 0.0
H341 H 0.5761 0.40789 0.97069 0.0
H342 H 0.57213 0.40493 0.02584 0.0
H343 H 0.61487 0.34449 0.05359 0.0
C344 C 0.66951 0.27157 0.06304 0.0
C345 C 0.66969 0.27291 0.02987 0.0
C346 C 0.6457 0.30965 0.0142 0.0
C347 C 0.64997 0.31287 0.98255 0.0
C348 C 0.62362 0.34824 0.96721 0.0
C349 C 0.59578 0.38092 0.98278 0.0
C350 C 0.5934 0.37915 0.01382 0.0
C351 C 0.618 0.34406 0.02947 0.0
H352 H 0.49917 0.19413 0.2337 0.0
C353 C 0.51192 0.22835 0.22561 0.0
H354 H 0.49447 0.30062 0.21853 0.0
H355 H 0.27285 0.2382 0.22643 0.0
H356 H 0.28239 0.23934 0.17245 0.0
H357 H 0.36175 0.25215 0.1497 0.0
H358 H 0.43225 0.26339 0.18083 0.0
C359 C 0.48376 0.26679 0.22822 0.0
C360 C 0.43539 0.26313 0.24197 0.0
C361 C 0.39429 0.25817 0.22352 0.0
C362 C 0.34829 0.25174 0.23666 0.0
C363 C 0.30835 0.24442 0.21768 0.0
C364 C 0.31338 0.24477 0.18664 0.0
C365 C 0.35808 0.25192 0.17383 0.0
C366 C 0.39823 0.25837 0.19193 0.0
H367 H 0.25819 0.29991 0.26855 0.0
C368 C 0.25914 0.26922 0.28329 0.0
H369 H 0.29753 0.20929 0.298 0.0
H370 H 0.50634 0.2755 0.28347 0.0
H371 H 0.49685 0.27725 0.33744 0.0
H372 H 0.41712 0.26828 0.36037 0.0
H373 H 0.34652 0.25738 0.32958 0.0
C374 C 0.29701 0.2396 0.2829 0.0
C375 C 0.34343 0.25148 0.26825 0.0
C376 C 0.38444 0.25854 0.28663 0.0
C377 C 0.4304 0.26412 0.27348 0.0
C378 C 0.47064 0.27083 0.29235 0.0
C379 C 0.4657 0.27206 0.32336 0.0
C380 C 0.42083 0.26697 0.33626 0.0
C381 C 0.38058 0.26043 0.31827 0.0
H382 H 0.25176 0.74516 0.75815 0.0
C383 C 0.27735 0.75535 0.77536 0.0
H384 H 0.32101 0.81024 0.79303 0.0
H385 H 0.29837 0.91193 0.66285 0.0
H386 H 0.34588 0.84697 0.64323 0.0
H387 H 0.3647 0.7773 0.67459 0.0
H388 H 0.33544 0.77184 0.72565 0.0
C389 C 0.29664 0.79932 0.77531 0.0
C390 C 0.28055 0.83747 0.75477 0.0
C391 C 0.2985 0.84031 0.72521 0.0
C392 C 0.28895 0.8812 0.70748 0.0
C393 C 0.30601 0.88251 0.67767 0.0
C394 C 0.33302 0.8453 0.66605 0.0
C395 C 0.34353 0.80602 0.68369 0.0
C396 C 0.32656 0.80334 0.71295 0.0
H397 H 0.32991 0.98181 0.70177 0.0
C398 C 0.29382 0.99292 0.69608 0.0
H399 H 0.22025 0.97549 0.69709 0.0
H400 H 0.23628 0.84035 0.80933 0.0
H401 H 0.18767 0.90462 0.82877 0.0
H402 H 0.17282 0.97653 0.79861 0.0
H403 H 0.2064 0.98463 0.74889 0.0
C404 C 0.25643 0.96462 0.70273 0.0
C405 C 0.26262 0.91962 0.71976 0.0
C406 C 0.24236 0.91547 0.7487 0.0
C407 C 0.25134 0.87431 0.76621 0.0
C408 C 0.23105 0.87114 0.7952 0.0
C409 C 0.20295 0.90769 0.8066 0.0
C410 C 0.19455 0.94814 0.78961 0.0
C411 C 0.21401 0.95226 0.76104 0.0
H412 H 0.78068 0.78777 0.24531 0.0
C413 C 0.76811 0.80384 0.26598 0.0
H414 H 0.7101 0.83649 0.2882 0.0
H415 H 0.58832 0.89677 0.17715 0.0
H416 H 0.62346 0.97298 0.19051 0.0
H417 H 0.68854 0.97808 0.22777 0.0
H418 H 0.71903 0.90696 0.25182 0.0
C419 C 0.72288 0.81991 0.26775 0.0
C420 C 0.68788 0.81573 0.24274 0.0
C421 C 0.67038 0.8576 0.22894 0.0
C422 C 0.63264 0.85472 0.20762 0.0
C423 C 0.61637 0.89703 0.19387 0.0
C424 C 0.63637 0.94098 0.20123 0.0
C425 C 0.67302 0.94385 0.2222 0.0
C426 C 0.69005 0.90278 0.23592 0.0
H427 H 0.52075 0.83476 0.20895 0.0
C428 C 0.52698 0.81948 0.18694 0.0
H429 H 0.57791 0.78969 0.15748 0.0
H430 H 0.71121 0.72827 0.26592 0.0
H431 H 0.67677 0.65234 0.25191 0.0
H432 H 0.61286 0.64732 0.21387 0.0
H433 H 0.5828 0.71845 0.18982 0.0
C434 C 0.57148 0.80663 0.17897 0.0
C435 C 0.61225 0.80997 0.20029 0.0
C436 C 0.63065 0.76792 0.21337 0.0
C437 C 0.66812 0.77078 0.23491 0.0
C438 C 0.68384 0.72832 0.24882 0.0
C439 C 0.66414 0.68438 0.24111 0.0
C440 C 0.62814 0.68155 0.21972 0.0
C441 C 0.6113 0.72269 0.20604 0.0
H442 H 0.73595 0.20564 0.75797 0.0
C443 C 0.70895 0.19951 0.77503 0.0
H444 H 0.65958 0.15095 0.79374 0.0
H445 H 0.69917 0.03298 0.66874 0.0
H446 H 0.66296 0.09932 0.64257 0.0
H447 H 0.64265 0.17321 0.66944 0.0
H448 H 0.65924 0.1815 0.72257 0.0
C449 C 0.68564 0.15751 0.77618 0.0
C450 C 0.70097 0.11516 0.75882 0.0
C451 C 0.68999 0.11058 0.72799 0.0
C452 C 0.70004 0.06725 0.71278 0.0
C453 C 0.69055 0.0643 0.68168 0.0
C454 C 0.67011 0.10227 0.66633 0.0
C455 C 0.65878 0.14393 0.68144 0.0
C456 C 0.66853 0.14825 0.71192 0.0
H457 H 0.65353 0.96909 0.7052 0.0
C458 C 0.68966 0.95515 0.70373 0.0
H459 H 0.76298 0.96786 0.71212 0.0
H460 H 0.7315 0.1143 0.81715 0.0
H461 H 0.76831 0.04833 0.84325 0.0
H462 H 0.78299 0.97224 0.8174 0.0
H463 H 0.76112 0.96174 0.76529 0.0
C464 C 0.72669 0.98133 0.71383 0.0
C465 C 0.71951 0.02813 0.72875 0.0
C466 C 0.7325 0.03358 0.75923 0.0
C467 C 0.72335 0.07716 0.77425 0.0
C468 C 0.73686 0.0817 0.80473 0.0
C469 C 0.75821 0.04417 0.81998 0.0
C470 C 0.76654 0.00137 0.80542 0.0
C471 C 0.75385 0.99588 0.77544 0.0
H472 H 0.95799 0.36704 0.32243 0.0
C473 C 0.9849 0.34858 0.30932 0.0
H474 H 0.99827 0.3079 0.27066 0.0
H475 H 0.79193 0.22948 0.24801 0.0
H476 H 0.83636 0.15791 0.25897 0.0
H477 H 0.91933 0.16229 0.27765 0.0
H478 H 0.9586 0.2383 0.28498 0.0
C479 C 0.97214 0.32813 0.28331 0.0
C480 C 0.92096 0.32638 0.27353 0.0
C481 C 0.89787 0.28158 0.27022 0.0
C482 C 0.8495 0.27907 0.26021 0.0
C483 C 0.82822 0.23372 0.25597 0.0
C484 C 0.85335 0.19221 0.26219 0.0
C485 C 0.90007 0.19467 0.27266 0.0
C486 C 0.92224 0.23866 0.27668 0.0
H487 H 0.80278 0.35716 0.20165 0.0
C488 C 0.77265 0.33721 0.21068 0.0
H489 H 0.74811 0.29657 0.24722 0.0
H490 H 0.95473 0.41832 0.27458 0.0
H491 H 0.90799 0.48993 0.26816 0.0
H492 H 0.82151 0.48536 0.25732 0.0
H493 H 0.78171 0.40886 0.25186 0.0
C494 C 0.77664 0.31863 0.23825 0.0
C495 C 0.8238 0.32142 0.25414 0.0
C496 C 0.8458 0.3662 0.25966 0.0
C497 C 0.89489 0.36877 0.26806 0.0
C498 C 0.91694 0.41411 0.27013 0.0
C499 C 0.8906 0.45559 0.26619 0.0
C500 C 0.84198 0.45303 0.25993 0.0
C501 C 0.81968 0.40896 0.25663 0.0
H502 H 0.25233 0.2317 0.7305 0.0
C503 C 0.23265 0.2469 0.71184 0.0
H504 H 0.20127 0.30877 0.69363 0.0
H505 H 0.17455 0.42516 0.81134 0.0
H506 H 0.0938 0.3951 0.80462 0.0
H507 H 0.0762 0.33312 0.767 0.0
H508 H 0.13938 0.30056 0.73605 0.0
C509 C 0.22165 0.29349 0.71196 0.0
C510 C 0.23391 0.32606 0.73711 0.0
C511 C 0.19657 0.34502 0.75485 0.0
C512 C 0.20657 0.38126 0.77621 0.0
C513 C 0.16875 0.39858 0.79418 0.0
C514 C 0.12226 0.38138 0.79071 0.0
C515 C 0.11237 0.34646 0.76955 0.0
C516 C 0.14894 0.32825 0.75184 0.0
H517 H 0.2254 0.48968 0.77448 0.0
C518 C 0.24767 0.48363 0.79408 0.0
H519 H 0.28754 0.43343 0.81887 0.0
H520 H 0.31419 0.29713 0.707 0.0
H521 H 0.39517 0.32574 0.71473 0.0
H522 H 0.41263 0.38777 0.7523 0.0
H523 H 0.34909 0.42217 0.78204 0.0
C524 C 0.26406 0.43967 0.79987 0.0
C525 C 0.25384 0.39909 0.77939 0.0
C526 C 0.29161 0.37857 0.76269 0.0
C527 C 0.28161 0.34225 0.74132 0.0
C528 C 0.31974 0.32403 0.72397 0.0
C529 C 0.36644 0.3403 0.72808 0.0
C530 C 0.37628 0.3753 0.74919 0.0
C531 C 0.33944 0.39458 0.76621 0.0
H532 H 0.26063 0.78463 0.22299 0.0
C533 C 0.25955 0.75545 0.20704 0.0
H534 H 0.22288 0.69434 0.19183 0.0
H535 H 0.10345 0.7345 0.31774 0.0
H536 H 0.17761 0.71935 0.34428 0.0
H537 H 0.25315 0.70799 0.31675 0.0
H538 H 0.2551 0.71253 0.26249 0.0
C539 C 0.22391 0.7231 0.20812 0.0
C540 C 0.17933 0.73095 0.22548 0.0
C541 C 0.17869 0.72694 0.25709 0.0
C542 C 0.13477 0.73171 0.27287 0.0
C543 C 0.13543 0.7295 0.30454 0.0
C544 C 0.17782 0.72111 0.32007 0.0
C545 C 0.22038 0.71484 0.30458 0.0
C546 C 0.22103 0.71766 0.27344 0.0
H547 H 0.0444 0.67135 0.28771 0.0
C548 C 0.02517 0.70484 0.28673 0.0
H549 H 0.02602 0.77608 0.2718 0.0
H550 H 0.16849 0.74414 0.16494 0.0
H551 H 0.09425 0.75795 0.13842 0.0
H552 H 0.01772 0.76281 0.16562 0.0
H553 H 0.01511 0.75418 0.21956 0.0
C554 C 0.04496 0.74244 0.27286 0.0
C555 C 0.09144 0.73891 0.25687 0.0
C556 C 0.09228 0.74373 0.22532 0.0
C557 C 0.13625 0.73999 0.20963 0.0
C558 C 0.13604 0.74565 0.17807 0.0
C559 C 0.09366 0.75381 0.16251 0.0
C560 C 0.05061 0.75664 0.17782 0.0
C561 C 0.04968 0.7517 0.20883 0.0
H562 H 0.84376 0.4683 0.78819 0.0
C563 C 0.80702 0.45562 0.78927 0.0
H564 H 0.73481 0.47008 0.77896 0.0
H565 H 0.84346 0.68153 0.76659 0.0
H566 H 0.85783 0.67561 0.82005 0.0
H567 H 0.83558 0.60304 0.84782 0.0
H568 H 0.79968 0.53564 0.82224 0.0
C569 C 0.77167 0.48242 0.77789 0.0
C570 C 0.7815 0.52809 0.76207 0.0
C571 C 0.80079 0.5679 0.77764 0.0
C572 C 0.8118 0.61058 0.76187 0.0
C573 C 0.83316 0.64886 0.77764 0.0
C574 C 0.84173 0.64587 0.80831 0.0
C575 C 0.82934 0.60495 0.82392 0.0
C576 C 0.80905 0.56636 0.80891 0.0
H577 H 0.76598 0.70355 0.7332 0.0
C578 C 0.7919 0.69837 0.71539 0.0
H579 H 0.84054 0.65124 0.695 0.0
H580 H 0.74265 0.45941 0.72575 0.0
H581 H 0.72379 0.46713 0.67302 0.0
H582 H 0.73953 0.54218 0.64619 0.0
H583 H 0.77446 0.60983 0.67187 0.0
C584 C 0.81561 0.65687 0.7133 0.0
C585 C 0.8018 0.61395 0.73083 0.0
C586 C 0.78054 0.57487 0.71559 0.0
C587 C 0.77061 0.53189 0.73117 0.0
C588 C 0.75034 0.49317 0.71517 0.0
C589 C 0.7394 0.49704 0.68484 0.0
C590 C 0.74833 0.53926 0.66973 0.0
C591 C 0.76862 0.57779 0.68477 0.0
loop_
_geom_bond_atom_site_label_1
_geom_bond_atom_site_label_2
_geom_bond_distance
_geom_bond_site_symmetry_2
_ccdc_geom_bond_type
Mg0 O1 2.028 . S
Mg0 O7 1.986 . S
Mg0 O9 2.114 . S
Mg0 O10 2.251 . S
Mg0 O13 2.010 . S
O1 Mg0 2.028 . S
O1 C4 1.250 . S
O2 Mg3 2.028 . S
O2 C4 1.248 . S
Mg3 O2 2.028 . S
Mg3 O8 2.032 . S
Mg3 O10 2.079 . S
C4 O1 1.250 . S
C4 O2 1.248 . S
C5 O6 1.264 . S
C5 O13 1.249 1_655 S
O6 C5 1.264 . S
O7 Mg0 1.986 . S
O7 C11 1.246 . S
O8 Mg3 2.032 . S
O8 C11 1.259 . S
O9 Mg0 2.114 . S
O9 C12 1.252 . S
O10 Mg0 2.251 . S
O10 Mg3 2.079 . S
O10 C12 1.273 . S
C11 O7 1.246 . S
C11 O8 1.259 . S
C12 O9 1.252 . S
C12 O10 1.273 . S
O13 Mg0 2.010 . S
O13 C5 1.249 1_455 S
Mg14 O15 2.028 . S
Mg14 O21 1.986 . S
Mg14 O23 2.114 . S
Mg14 O24 2.251 . S
Mg14 O27 2.010 . S
O15 Mg14 2.028 . S
O15 C18 1.250 . S
O16 Mg17 2.028 . S
O16 C18 1.248 . S
Mg17 O16 2.028 . S
Mg17 O22 2.032 . S
Mg17 O24 2.079 . S
C18 O15 1.250 . S
C18 O16 1.248 . S
C19 O20 1.264 . S
C19 O27 1.249 . S
O20 C19 1.264 . S
O21 Mg14 1.986 . S
O21 C25 1.246 . S
O22 Mg17 2.032 . S
O22 C25 1.259 . S
O23 Mg14 2.114 . S
O23 C26 1.252 . S
O24 Mg14 2.251 . S
O24 Mg17 2.079 . S
O24 C26 1.273 . S
C25 O21 1.246 . S
C25 O22 1.259 . S
C26 O23 1.252 . S
C26 O24 1.273 . S
O27 Mg14 2.010 . S
O27 C19 1.249 . S
Mg28 O29 2.028 . S
Mg28 O35 1.986 . S
Mg28 O37 2.114 . S
Mg28 O38 2.251 . S
Mg28 O41 2.010 . S
O29 Mg28 2.028 . S
O29 C32 1.250 . S
O30 Mg31 2.028 . S
O30 C32 1.248 . S
Mg31 O30 2.028 . S
Mg31 O36 2.032 . S
Mg31 O38 2.079 . S
C32 O29 1.250 . S
C32 O30 1.248 . S
C33 O34 1.264 . S
C33 O41 1.249 1_455 S
O34 C33 1.264 . S
O35 Mg28 1.986 . S
O35 C39 1.246 . S
O36 Mg31 2.032 . S
O36 C39 1.259 . S
O37 Mg28 2.114 . S
O37 C40 1.252 . S
O38 Mg28 2.251 . S
O38 Mg31 2.079 . S
O38 C40 1.273 . S
C39 O35 1.246 . S
C39 O36 1.259 . S
C40 O37 1.252 . S
C40 O38 1.273 . S
O41 Mg28 2.010 . S
O41 C33 1.249 1_655 S
Mg42 O43 2.028 . S
Mg42 O49 1.986 . S
Mg42 O51 2.114 . S
Mg42 O52 2.251 . S
Mg42 O55 2.010 . S
O43 Mg42 2.028 . S
O43 C46 1.250 . S
O44 Mg45 2.028 . S
O44 C46 1.248 . S
Mg45 O44 2.028 . S
Mg45 O50 2.032 . S
Mg45 O52 2.079 . S
C46 O43 1.250 . S
C46 O44 1.248 . S
C47 O48 1.264 . S
C47 O55 1.249 . S
O48 C47 1.264 . S
O49 Mg42 1.986 . S
O49 C53 1.246 . S
O50 Mg45 2.032 . S
O50 C53 1.259 . S
O51 Mg42 2.114 . S
O51 C54 1.252 . S
O52 Mg42 2.251 . S
O52 Mg45 2.079 . S
O52 C54 1.273 . S
C53 O49 1.246 . S
C53 O50 1.259 . S
C54 O51 1.252 . S
C54 O52 1.273 . S
O55 Mg42 2.010 . S
O55 C47 1.249 . S
Mg56 O57 2.028 . S
Mg56 O63 1.986 . S
Mg56 O65 2.114 . S
Mg56 O66 2.251 . S
Mg56 O69 2.010 . S
O57 Mg56 2.028 . S
O57 C60 1.250 . S
O58 Mg59 2.028 . S
O58 C60 1.248 . S
Mg59 O58 2.028 . S
Mg59 O64 2.032 . S
Mg59 O66 2.079 . S
C60 O57 1.250 . S
C60 O58 1.248 . S
C61 O62 1.264 . S
C61 O69 1.249 . S
O62 C61 1.264 . S
O63 Mg56 1.986 . S
O63 C67 1.246 . S
O64 Mg59 2.032 . S
O64 C67 1.259 . S
O65 Mg56 2.114 . S
O65 C68 1.252 . S
O66 Mg56 2.251 . S
O66 Mg59 2.079 . S
O66 C68 1.273 . S
C67 O63 1.246 . S
C67 O64 1.259 . S
C68 O65 1.252 . S
C68 O66 1.273 . S
O69 Mg56 2.010 . S
O69 C61 1.249 . S
Mg70 O71 2.028 . S
Mg70 O77 1.986 . S
Mg70 O79 2.114 . S
Mg70 O80 2.251 . S
Mg70 O83 2.010 . S
O71 Mg70 2.028 . S
O71 C74 1.250 . S
O72 Mg73 2.028 . S
O72 C74 1.248 . S
Mg73 O72 2.028 . S
Mg73 O78 2.032 . S
Mg73 O80 2.079 . S
C74 O71 1.250 . S
C74 O72 1.248 . S
C75 O76 1.264 . S
C75 O83 1.249 1_565 S
O76 C75 1.264 . S
O77 Mg70 1.986 . S
O77 C81 1.246 . S
O78 Mg73 2.032 . S
O78 C81 1.259 . S
O79 Mg70 2.114 . S
O79 C82 1.252 . S
O80 Mg70 2.251 . S
O80 Mg73 2.079 . S
O80 C82 1.273 . S
C81 O77 1.246 . S
C81 O78 1.259 . S
C82 O79 1.252 . S
C82 O80 1.273 . S
O83 Mg70 2.010 . S
O83 C75 1.249 1_545 S
Mg84 O85 2.028 . S
Mg84 O91 1.986 . S
Mg84 O93 2.114 . S
Mg84 O94 2.251 . S
Mg84 O97 2.010 . S
O85 Mg84 2.028 . S
O85 C88 1.250 . S
O86 Mg87 2.028 . S
O86 C88 1.248 . S
Mg87 O86 2.028 . S
Mg87 O92 2.032 . S
Mg87 O94 2.079 . S
C88 O85 1.250 . S
C88 O86 1.248 . S
C89 O90 1.264 . S
C89 O97 1.249 . S
O90 C89 1.264 . S
O91 Mg84 1.986 . S
O91 C95 1.246 . S
O92 Mg87 2.032 . S
O92 C95 1.259 . S
O93 Mg84 2.114 . S
O93 C96 1.252 . S
O94 Mg84 2.251 . S
O94 Mg87 2.079 . S
O94 C96 1.273 . S
C95 O91 1.246 . S
C95 O92 1.259 . S
C96 O93 1.252 . S
C96 O94 1.273 . S
O97 Mg84 2.010 . S
O97 C89 1.249 . S
Mg98 O99 2.028 . S
Mg98 O105 1.986 . S
Mg98 O107 2.114 . S
Mg98 O108 2.251 . S
Mg98 O111 2.010 . S
O99 Mg98 2.028 . S
O99 C102 1.250 . S
O100 Mg101 2.028 . S
O100 C102 1.248 . S
Mg101 O100 2.028 . S
Mg101 O106 2.032 . S
Mg101 O108 2.079 . S
C102 O99 1.250 . S
C102 O100 1.248 . S
C103 O104 1.264 . S
C103 O111 1.249 1_545 S
O104 C103 1.264 . S
O105 Mg98 1.986 . S
O105 C109 1.246 . S
O106 Mg101 2.032 . S
O106 C109 1.259 . S
O107 Mg98 2.114 . S
O107 C110 1.252 . S
O108 Mg98 2.251 . S
O108 Mg101 2.079 . S
O108 C110 1.273 . S
C109 O105 1.246 . S
C109 O106 1.259 . S
C110 O107 1.252 . S
C110 O108 1.273 . S
O111 Mg98 2.010 . S
O111 C103 1.249 1_565 S
H112 C113 0.951 . S
C113 H112 0.951 . S
C113 C119 1.265 . S
H114 C119 0.950 . S
H115 C123 0.949 . S
H116 C124 0.950 . S
H117 C125 0.951 . S
H118 C126 0.951 . S
C119 C113 1.265 . S
C119 H114 0.950 . S
C119 C120 1.478 . S
C120 C119 1.478 . S
C120 C121 1.397 . S
C120 C137 1.394 . S
C121 C120 1.397 . S
C121 C122 1.438 1_445 S
C121 C126 1.429 . S
C122 C121 1.438 1_665 S
C122 C123 1.428 . S
C122 C135 1.394 . S
C123 H115 0.949 . S
C123 C122 1.428 . S
C123 C124 1.345 . S
C124 H116 0.950 . S
C124 C123 1.345 . S
C124 C125 1.424 1_665 S
C125 H117 0.951 . S
C125 C124 1.424 1_445 S
C125 C126 1.347 . S
C126 H118 0.951 . S
C126 C121 1.429 . S
C126 C125 1.347 . S
H127 C128 0.951 . S
C128 H127 0.951 . S
C128 C134 1.265 . S
H129 C134 0.950 . S
H130 C138 0.949 . S
H131 C139 0.950 . S
H132 C140 0.951 . S
H133 C141 0.951 . S
C134 C128 1.265 . S
C134 H129 0.950 . S
C134 C135 1.478 . S
C135 C122 1.394 . S
C135 C134 1.478 . S
C135 C136 1.397 . S
C136 C135 1.397 . S
C136 C137 1.438 1_665 S
C136 C141 1.429 . S
C137 C120 1.394 . S
C137 C136 1.438 1_445 S
C137 C138 1.428 . S
C138 H130 0.949 . S
C138 C137 1.428 . S
C138 C139 1.345 . S
C139 H131 0.950 . S
C139 C138 1.345 . S
C139 C140 1.424 1_445 S
C140 H132 0.951 . S
C140 C139 1.424 1_665 S
C140 C141 1.347 . S
C141 H133 0.951 . S
C141 C136 1.429 . S
C141 C140 1.347 . S
H142 C143 0.951 . S
C143 H142 0.951 . S
C143 C149 1.265 . S
H144 C149 0.950 . S
H145 C153 0.949 . S
H146 C154 0.950 . S
H147 C155 0.951 . S
H148 C156 0.951 . S
C149 C143 1.265 . S
C149 H144 0.950 . S
C149 C150 1.478 . S
C150 C149 1.478 . S
C150 C151 1.397 . S
C150 C167 1.394 . S
C151 C150 1.397 . S
C151 C152 1.438 . S
C151 C156 1.429 . S
C152 C151 1.438 . S
C152 C153 1.428 . S
C152 C165 1.394 . S
C153 H145 0.949 . S
C153 C152 1.428 . S
C153 C154 1.345 . S
C154 H146 0.950 . S
C154 C153 1.345 . S
C154 C155 1.424 . S
C155 H147 0.951 . S
C155 C154 1.424 . S
C155 C156 1.347 . S
C156 H148 0.951 . S
C156 C151 1.429 . S
C156 C155 1.347 . S
H157 C158 0.951 . S
C158 H157 0.951 . S
C158 C164 1.265 . S
H159 C164 0.950 . S
H160 C168 0.949 . S
H161 C169 0.950 . S
H162 C170 0.951 . S
H163 C171 0.951 . S
C164 C158 1.265 . S
C164 H159 0.950 . S
C164 C165 1.478 . S
C165 C152 1.394 . S
C165 C164 1.478 . S
C165 C166 1.397 . S
C166 C165 1.397 . S
C166 C167 1.438 . S
C166 C171 1.429 . S
C167 C150 1.394 . S
C167 C166 1.438 . S
C167 C168 1.428 . S
C168 H160 0.949 . S
C168 C167 1.428 . S
C168 C169 1.345 . S
C169 H161 0.950 . S
C169 C168 1.345 . S
C169 C170 1.424 . S
C170 H162 0.951 . S
C170 C169 1.424 . S
C170 C171 1.347 . S
C171 H163 0.951 . S
C171 C166 1.429 . S
C171 C170 1.347 . S
H172 C173 0.951 . S
C173 H172 0.951 . S
C173 C179 1.265 . S
H174 C179 0.950 . S
H175 C183 0.949 . S
H176 C184 0.950 . S
H177 C185 0.951 . S
H178 C186 0.951 . S
C179 C173 1.265 . S
C179 H174 0.950 . S
C179 C180 1.478 . S
C180 C179 1.478 . S
C180 C181 1.397 . S
C180 C197 1.394 . S
C181 C180 1.397 . S
C181 C182 1.438 . S
C181 C186 1.429 . S
C182 C181 1.438 . S
C182 C183 1.428 . S
C182 C195 1.394 . S
C183 H175 0.949 . S
C183 C182 1.428 . S
C183 C184 1.345 . S
C184 H176 0.950 . S
C184 C183 1.345 . S
C184 C185 1.424 . S
C185 H177 0.951 . S
C185 C184 1.424 . S
C185 C186 1.347 . S
C186 H178 0.951 . S
C186 C181 1.429 . S
C186 C185 1.347 . S
H187 C188 0.951 . S
C188 H187 0.951 . S
C188 C194 1.265 . S
H189 C194 0.950 . S
H190 C198 0.949 . S
H191 C199 0.950 . S
H192 C200 0.951 . S
H193 C201 0.951 . S
C194 C188 1.265 . S
C194 H189 0.950 . S
C194 C195 1.478 . S
C195 C182 1.394 . S
C195 C194 1.478 . S
C195 C196 1.397 . S
C196 C195 1.397 . S
C196 C197 1.438 . S
C196 C201 1.429 . S
C197 C180 1.394 . S
C197 C196 1.438 . S
C197 C198 1.428 . S
C198 H190 0.949 . S
C198 C197 1.428 . S
C198 C199 1.345 . S
C199 H191 0.950 . S
C199 C198 1.345 . S
C199 C200 1.424 . S
C200 H192 0.951 . S
C200 C199 1.424 . S
C200 C201 1.347 . S
C201 H193 0.951 . S
C201 C196 1.429 . S
C201 C200 1.347 . S
H202 C203 0.951 . S
C203 H202 0.951 . S
C203 C209 1.265 . S
H204 C209 0.950 . S
H205 C213 0.949 . S
H206 C214 0.950 1_655 S
H207 C215 0.951 . S
H208 C216 0.951 . S
C209 C203 1.265 . S
C209 H204 0.950 . S
C209 C210 1.478 . S
C210 C209 1.478 . S
C210 C211 1.397 1_545 S
C210 C227 1.394 . S
C211 C210 1.397 1_565 S
C211 C212 1.438 1_455 S
C211 C216 1.429 . S
C212 C211 1.438 1_655 S
C212 C213 1.428 . S
C212 C225 1.394 . S
C213 H205 0.949 . S
C213 C212 1.428 . S
C213 C214 1.345 1_655 S
C214 H206 0.950 1_455 S
C214 C213 1.345 1_455 S
C214 C215 1.424 . S
C215 H207 0.951 . S
C215 C214 1.424 . S
C215 C216 1.347 . S
C216 H208 0.951 . S
C216 C211 1.429 . S
C216 C215 1.347 . S
H217 C218 0.951 . S
C218 H217 0.951 . S
C218 C224 1.265 . S
H219 C224 0.950 . S
H220 C228 0.949 . S
H221 C229 0.950 1_455 S
H222 C230 0.951 . S
H223 C231 0.951 . S
C224 C218 1.265 . S
C224 H219 0.950 . S
C224 C225 1.478 . S
C225 C212 1.394 . S
C225 C224 1.478 . S
C225 C226 1.397 1_565 S
C226 C225 1.397 1_545 S
C226 C227 1.438 1_655 S
C226 C231 1.429 . S
C227 C210 1.394 . S
C227 C226 1.438 1_455 S
C227 C228 1.428 . S
C228 H220 0.949 . S
C228 C227 1.428 . S
C228 C229 1.345 1_455 S
C229 H221 0.950 1_655 S
C229 C228 1.345 1_655 S
C229 C230 1.424 . S
C230 H222 0.951 . S
C230 C229 1.424 . S
C230 C231 1.347 . S
C231 H223 0.951 . S
C231 C226 1.429 . S
C231 C230 1.347 . S
H232 C233 0.951 . S
C233 H232 0.951 . S
C233 C239 1.265 . S
H234 C239 0.950 . S
H235 C243 0.949 . S
H236 C244 0.950 1_565 S
H237 C245 0.951 . S
H238 C246 0.951 . S
C239 C233 1.265 . S
C239 H234 0.950 . S
C239 C240 1.478 . S
C240 C239 1.478 . S
C240 C241 1.397 . S
C240 C257 1.394 . S
C241 C240 1.397 . S
C241 C242 1.438 . S
C241 C246 1.429 . S
C242 C241 1.438 . S
C242 C243 1.428 . S
C242 C255 1.394 . S
C243 H235 0.949 . S
C243 C242 1.428 . S
C243 C244 1.345 . S
C244 H236 0.950 1_545 S
C244 C243 1.345 . S
C244 C245 1.424 . S
C245 H237 0.951 . S
C245 C244 1.424 . S
C245 C246 1.347 . S
C246 H238 0.951 . S
C246 C241 1.429 . S
C246 C245 1.347 . S
H247 C248 0.951 . S
C248 H247 0.951 . S
C248 C254 1.265 . S
H249 C254 0.950 . S
H250 C258 0.949 . S
H251 C259 0.950 . S
H252 C260 0.951 . S
H253 C261 0.951 . S
C254 C248 1.265 . S
C254 H249 0.950 . S
C254 C255 1.478 . S
C255 C242 1.394 . S
C255 C254 1.478 . S
C255 C256 1.397 . S
C256 C255 1.397 . S
C256 C257 1.438 . S
C256 C261 1.429 . S
C257 C240 1.394 . S
C257 C256 1.438 . S
C257 C258 1.428 . S
C258 H250 0.949 . S
C258 C257 1.428 . S
C258 C259 1.345 . S
C259 H251 0.950 . S
C259 C258 1.345 . S
C259 C260 1.424 . S
C260 H252 0.951 . S
C260 C259 1.424 . S
C260 C261 1.347 . S
C261 H253 0.951 . S
C261 C256 1.429 . S
C261 C260 1.347 . S
H262 C263 0.951 . S
C263 H262 0.951 . S
C263 C269 1.265 . S
H264 C269 0.950 . S
H265 C273 0.949 . S
H266 C274 0.950 . S
H267 C275 0.951 . S
H268 C276 0.951 1_556 S
C269 C263 1.265 . S
C269 H264 0.950 . S
C269 C270 1.478 . S
C270 C269 1.478 . S
C270 C271 1.364 1_556 S
C270 C287 1.394 . S
C271 C270 1.364 1_554 S
C271 C272 1.469 . S
C271 C276 1.432 . S
C272 C271 1.469 . S
C272 C273 1.428 . S
C272 C285 1.394 . S
C273 H265 0.949 . S
C273 C272 1.428 . S
C273 C274 1.345 . S
C274 H266 0.950 . S
C274 C273 1.345 . S
C274 C275 1.424 . S
C275 H267 0.951 . S
C275 C274 1.424 . S
C275 C276 1.347 . S
C276 H268 0.951 1_554 S
C276 C271 1.432 . S
C276 C275 1.347 . S
H277 C278 0.951 . S
C278 H277 0.951 . S
C278 C284 1.265 . S
H279 C284 0.950 . S
H280 C288 0.949 . S
H281 C289 0.950 . S
H282 C290 0.951 . S
H283 C291 0.951 1_554 S
C284 C278 1.265 . S
C284 H279 0.950 . S
C284 C285 1.478 . S
C285 C272 1.394 . S
C285 C284 1.478 . S
C285 C286 1.364 1_554 S
C286 C285 1.364 1_556 S
C286 C287 1.469 . S
C286 C291 1.432 . S
C287 C270 1.394 . S
C287 C286 1.469 . S
C287 C288 1.428 . S
C288 H280 0.949 . S
C288 C287 1.428 . S
C288 C289 1.345 . S
C289 H281 0.950 . S
C289 C288 1.345 . S
C289 C290 1.424 . S
C290 H282 0.951 . S
C290 C289 1.424 . S
C290 C291 1.347 . S
C291 H283 0.951 1_556 S
C291 C286 1.432 . S
C291 C290 1.347 . S
H292 C293 0.951 . S
C293 H292 0.951 . S
C293 C299 1.265 . S
H294 C299 0.950 . S
H295 C303 0.949 . S
H296 C304 0.950 . S
H297 C305 0.951 . S
H298 C306 0.951 . S
C299 C293 1.265 . S
C299 H294 0.950 . S
C299 C300 1.478 . S
C300 C299 1.478 . S
C300 C301 1.397 . S
C300 C317 1.394 . S
C301 C300 1.397 . S
C301 C302 1.438 . S
C301 C306 1.429 . S
C302 C301 1.438 . S
C302 C303 1.428 . S
C302 C315 1.394 . S
C303 H295 0.949 . S
C303 C302 1.428 . S
C303 C304 1.345 . S
C304 H296 0.950 . S
C304 C303 1.345 . S
C304 C305 1.424 . S
C305 H297 0.951 . S
C305 C304 1.424 . S
C305 C306 1.347 . S
C306 H298 0.951 . S
C306 C301 1.429 . S
C306 C305 1.347 . S
H307 C308 0.951 . S
C308 H307 0.951 . S
C308 C314 1.265 . S
H309 C314 0.950 . S
H310 C318 0.949 . S
H311 C319 0.950 . S
H312 C320 0.951 . S
H313 C321 0.951 . S
C314 C308 1.265 . S
C314 H309 0.950 . S
C314 C315 1.478 . S
C315 C302 1.394 . S
C315 C314 1.478 . S
C315 C316 1.397 . S
C316 C315 1.397 . S
C316 C317 1.438 . S
C316 C321 1.429 . S
C317 C300 1.394 . S
C317 C316 1.438 . S
C317 C318 1.428 . S
C318 H310 0.949 . S
C318 C317 1.428 . S
C318 C319 1.345 . S
C319 H311 0.950 . S
C319 C318 1.345 . S
C319 C320 1.424 . S
C320 H312 0.951 . S
C320 C319 1.424 . S
C320 C321 1.347 . S
C321 H313 0.951 . S
C321 C316 1.429 . S
C321 C320 1.347 . S
H322 C323 0.951 . S
C323 H322 0.951 . S
C323 C329 1.265 . S
H324 C329 0.950 . S
H325 C333 0.949 . S
H326 C334 0.950 . S
H327 C335 0.951 . S
H328 C336 0.951 . S
C329 C323 1.265 . S
C329 H324 0.950 . S
C329 C330 1.478 . S
C330 C329 1.478 . S
C330 C331 1.397 . S
C330 C347 1.394 . S
C331 C330 1.397 . S
C331 C332 1.438 1_556 S
C331 C336 1.429 . S
C332 C331 1.438 1_554 S
C332 C333 1.428 . S
C332 C345 1.394 . S
C333 H325 0.949 . S
C333 C332 1.428 . S
C333 C334 1.345 1_554 S
C334 H326 0.950 . S
C334 C333 1.345 1_556 S
C334 C335 1.424 . S
C335 H327 0.951 . S
C335 C334 1.424 . S
C335 C336 1.347 . S
C336 H328 0.951 . S
C336 C331 1.429 . S
C336 C335 1.347 . S
H337 C338 0.951 . S
C338 H337 0.951 . S
C338 C344 1.265 . S
H339 C344 0.950 . S
H340 C348 0.949 . S
H341 C349 0.950 . S
H342 C350 0.951 . S
H343 C351 0.951 . S
C344 C338 1.265 . S
C344 H339 0.950 . S
C344 C345 1.478 . S
C345 C332 1.394 . S
C345 C344 1.478 . S
C345 C346 1.397 . S
C346 C345 1.397 . S
C346 C347 1.438 1_554 S
C346 C351 1.429 . S
C347 C330 1.394 . S
C347 C346 1.438 1_556 S
C347 C348 1.428 . S
C348 H340 0.949 . S
C348 C347 1.428 . S
C348 C349 1.345 1_556 S
C349 H341 0.950 . S
C349 C348 1.345 1_554 S
C349 C350 1.424 . S
C350 H342 0.951 . S
C350 C349 1.424 . S
C350 C351 1.347 . S
C351 H343 0.951 . S
C351 C346 1.429 . S
C351 C350 1.347 . S
H352 C353 0.951 . S
C353 H352 0.951 . S
C353 C359 1.265 . S
H354 C359 0.950 . S
H355 C363 0.949 . S
H356 C364 0.950 . S
H357 C365 0.951 . S
H358 C366 0.951 . S
C359 C353 1.265 . S
C359 H354 0.950 . S
C359 C360 1.478 . S
C360 C359 1.478 . S
C360 C361 1.397 . S
C360 C377 1.394 . S
C361 C360 1.397 . S
C361 C362 1.438 . S
C361 C366 1.429 . S
C362 C361 1.438 . S
C362 C363 1.428 . S
C362 C375 1.394 . S
C363 H355 0.949 . S
C363 C362 1.428 . S
C363 C364 1.345 . S
C364 H356 0.950 . S
C364 C363 1.345 . S
C364 C365 1.424 . S
C365 H357 0.951 . S
C365 C364 1.424 . S
C365 C366 1.347 . S
C366 H358 0.951 . S
C366 C361 1.429 . S
C366 C365 1.347 . S
H367 C368 0.951 . S
C368 H367 0.951 . S
C368 C374 1.265 . S
H369 C374 0.950 . S
H370 C378 0.949 . S
H371 C379 0.950 . S
H372 C380 0.951 . S
H373 C381 0.951 . S
C374 C368 1.265 . S
C374 H369 0.950 . S
C374 C375 1.478 . S
C375 C362 1.394 . S
C375 C374 1.478 . S
C375 C376 1.397 . S
C376 C375 1.397 . S
C376 C377 1.438 . S
C376 C381 1.429 . S
C377 C360 1.394 . S
C377 C376 1.438 . S
C377 C378 1.428 . S
C378 H370 0.949 . S
C378 C377 1.428 . S
C378 C379 1.345 . S
C379 H371 0.950 . S
C379 C378 1.345 . S
C379 C380 1.424 . S
C380 H372 0.951 . S
C380 C379 1.424 . S
C380 C381 1.347 . S
C381 H373 0.951 . S
C381 C376 1.429 . S
C381 C380 1.347 . S
H382 C383 0.951 . S
C383 H382 0.951 . S
C383 C389 1.265 . S
H384 C389 0.950 . S
H385 C393 0.949 . S
H386 C394 0.950 . S
H387 C395 0.951 . S
H388 C396 0.951 . S
C389 C383 1.265 . S
C389 H384 0.950 . S
C389 C390 1.478 . S
C390 C389 1.478 . S
C390 C391 1.397 . S
C390 C407 1.394 . S
C391 C390 1.397 . S
C391 C392 1.438 . S
C391 C396 1.429 . S
C392 C391 1.438 . S
C392 C393 1.428 . S
C392 C405 1.394 . S
C393 H385 0.949 . S
C393 C392 1.428 . S
C393 C394 1.345 . S
C394 H386 0.950 . S
C394 C393 1.345 . S
C394 C395 1.424 . S
C395 H387 0.951 . S
C395 C394 1.424 . S
C395 C396 1.347 . S
C396 H388 0.951 . S
C396 C391 1.429 . S
C396 C395 1.347 . S
H397 C398 0.951 . S
C398 H397 0.951 . S
C398 C404 1.265 . S
H399 C404 0.950 . S
H400 C408 0.949 . S
H401 C409 0.950 . S
H402 C410 0.951 . S
H403 C411 0.951 . S
C404 C398 1.265 . S
C404 H399 0.950 . S
C404 C405 1.478 . S
C405 C392 1.394 . S
C405 C404 1.478 . S
C405 C406 1.397 . S
C406 C405 1.397 . S
C406 C407 1.438 . S
C406 C411 1.429 . S
C407 C390 1.394 . S
C407 C406 1.438 . S
C407 C408 1.428 . S
C408 H400 0.949 . S
C408 C407 1.428 . S
C408 C409 1.345 . S
C409 H401 0.950 . S
C409 C408 1.345 . S
C409 C410 1.424 . S
C410 H402 0.951 . S
C410 C409 1.424 . S
C410 C411 1.347 . S
C411 H403 0.951 . S
C411 C406 1.429 . S
C411 C410 1.347 . S
H412 C413 0.951 . S
C413 H412 0.951 . S
C413 C419 1.265 . S
H414 C419 0.950 . S
H415 C423 0.949 . S
H416 C424 0.950 . S
H417 C425 0.951 . S
H418 C426 0.951 . S
C419 C413 1.265 . S
C419 H414 0.950 . S
C419 C420 1.478 . S
C420 C419 1.478 . S
C420 C421 1.397 . S
C420 C437 1.394 . S
C421 C420 1.397 . S
C421 C422 1.438 . S
C421 C426 1.429 . S
C422 C421 1.438 . S
C422 C423 1.428 . S
C422 C435 1.394 . S
C423 H415 0.949 . S
C423 C422 1.428 . S
C423 C424 1.345 . S
C424 H416 0.950 . S
C424 C423 1.345 . S
C424 C425 1.424 . S
C425 H417 0.951 . S
C425 C424 1.424 . S
C425 C426 1.347 . S
C426 H418 0.951 . S
C426 C421 1.429 . S
C426 C425 1.347 . S
H427 C428 0.951 . S
C428 H427 0.951 . S
C428 C434 1.265 . S
H429 C434 0.950 . S
H430 C438 0.949 . S
H431 C439 0.950 . S
H432 C440 0.951 . S
H433 C441 0.951 . S
C434 C428 1.265 . S
C434 H429 0.950 . S
C434 C435 1.478 . S
C435 C422 1.394 . S
C435 C434 1.478 . S
C435 C436 1.397 . S
C436 C435 1.397 . S
C436 C437 1.438 . S
C436 C441 1.429 . S
C437 C420 1.394 . S
C437 C436 1.438 . S
C437 C438 1.428 . S
C438 H430 0.949 . S
C438 C437 1.428 . S
C438 C439 1.345 . S
C439 H431 0.950 . S
C439 C438 1.345 . S
C439 C440 1.424 . S
C440 H432 0.951 . S
C440 C439 1.424 . S
C440 C441 1.347 . S
C441 H433 0.951 . S
C441 C436 1.429 . S
C441 C440 1.347 . S
H442 C443 0.951 . S
C443 H442 0.951 . S
C443 C449 1.265 . S
H444 C449 0.950 . S
H445 C453 0.949 . S
H446 C454 0.950 . S
H447 C455 0.951 . S
H448 C456 0.951 . S
C449 C443 1.265 . S
C449 H444 0.950 . S
C449 C450 1.478 . S
C450 C449 1.478 . S
C450 C451 1.397 . S
C450 C467 1.394 . S
C451 C450 1.397 . S
C451 C452 1.438 . S
C451 C456 1.429 . S
C452 C451 1.438 . S
C452 C453 1.428 . S
C452 C465 1.394 . S
C453 H445 0.949 . S
C453 C452 1.428 . S
C453 C454 1.345 . S
C454 H446 0.950 . S
C454 C453 1.345 . S
C454 C455 1.424 . S
C455 H447 0.951 . S
C455 C454 1.424 . S
C455 C456 1.347 . S
C456 H448 0.951 . S
C456 C451 1.429 . S
C456 C455 1.347 . S
H457 C458 0.951 . S
C458 H457 0.951 . S
C458 C464 1.265 . S
H459 C464 0.950 . S
H460 C468 0.949 . S
H461 C469 0.950 . S
H462 C470 0.951 . S
H463 C471 0.951 . S
C464 C458 1.265 . S
C464 H459 0.950 . S
C464 C465 1.478 . S
C465 C452 1.394 . S
C465 C464 1.478 . S
C465 C466 1.397 . S
C466 C465 1.397 . S
C466 C467 1.438 . S
C466 C471 1.429 . S
C467 C450 1.394 . S
C467 C466 1.438 . S
C467 C468 1.428 . S
C468 H460 0.949 . S
C468 C467 1.428 . S
C468 C469 1.345 . S
C469 H461 0.950 . S
C469 C468 1.345 . S
C469 C470 1.424 . S
C470 H462 0.951 . S
C470 C469 1.424 . S
C470 C471 1.347 . S
C471 H463 0.951 . S
C471 C466 1.429 . S
C471 C470 1.347 . S
H472 C473 0.951 . S
C473 H472 0.951 . S
C473 C479 1.265 . S
H474 C479 0.950 . S
H475 C483 0.949 . S
H476 C484 0.950 . S
H477 C485 0.951 . S
H478 C486 0.951 . S
C479 C473 1.265 . S
C479 H474 0.950 . S
C479 C480 1.478 . S
C480 C479 1.478 . S
C480 C481 1.397 . S
C480 C497 1.394 . S
C481 C480 1.397 . S
C481 C482 1.438 . S
C481 C486 1.429 . S
C482 C481 1.438 . S
C482 C483 1.428 . S
C482 C495 1.394 . S
C483 H475 0.949 . S
C483 C482 1.428 . S
C483 C484 1.345 . S
C484 H476 0.950 . S
C484 C483 1.345 . S
C484 C485 1.424 . S
C485 H477 0.951 . S
C485 C484 1.424 . S
C485 C486 1.347 . S
C486 H478 0.951 . S
C486 C481 1.429 . S
C486 C485 1.347 . S
H487 C488 0.951 . S
C488 H487 0.951 . S
C488 C494 1.265 . S
H489 C494 0.950 . S
H490 C498 0.949 . S
H491 C499 0.950 . S
H492 C500 0.951 . S
H493 C501 0.951 . S
C494 C488 1.265 . S
C494 H489 0.950 . S
C494 C495 1.478 . S
C495 C482 1.394 . S
C495 C494 1.478 . S
C495 C496 1.397 . S
C496 C495 1.397 . S
C496 C497 1.438 . S
C496 C501 1.429 . S
C497 C480 1.394 . S
C497 C496 1.438 . S
C497 C498 1.428 . S
C498 H490 0.949 . S
C498 C497 1.428 . S
C498 C499 1.345 . S
C499 H491 0.950 . S
C499 C498 1.345 . S
C499 C500 1.424 . S
C500 H492 0.951 . S
C500 C499 1.424 . S
C500 C501 1.347 . S
C501 H493 0.951 . S
C501 C496 1.429 . S
C501 C500 1.347 . S
H502 C503 0.951 . S
C503 H502 0.951 . S
C503 C509 1.265 . S
H504 C509 0.950 . S
H505 C513 0.949 . S
H506 C514 0.950 . S
H507 C515 0.951 . S
H508 C516 0.951 . S
C509 C503 1.265 . S
C509 H504 0.950 . S
C509 C510 1.478 . S
C510 C509 1.478 . S
C510 C511 1.397 . S
C510 C527 1.394 . S
C511 C510 1.397 . S
C511 C512 1.438 . S
C511 C516 1.429 . S
C512 C511 1.438 . S
C512 C513 1.428 . S
C512 C525 1.394 . S
C513 H505 0.949 . S
C513 C512 1.428 . S
C513 C514 1.345 . S
C514 H506 0.950 . S
C514 C513 1.345 . S
C514 C515 1.424 . S
C515 H507 0.951 . S
C515 C514 1.424 . S
C515 C516 1.347 . S
C516 H508 0.951 . S
C516 C511 1.429 . S
C516 C515 1.347 . S
H517 C518 0.951 . S
C518 H517 0.951 . S
C518 C524 1.265 . S
H519 C524 0.950 . S
H520 C528 0.949 . S
H521 C529 0.950 . S
H522 C530 0.951 . S
H523 C531 0.951 . S
C524 C518 1.265 . S
C524 H519 0.950 . S
C524 C525 1.478 . S
C525 C512 1.394 . S
C525 C524 1.478 . S
C525 C526 1.397 . S
C526 C525 1.397 . S
C526 C527 1.438 . S
C526 C531 1.429 . S
C527 C510 1.394 . S
C527 C526 1.438 . S
C527 C528 1.428 . S
C528 H520 0.949 . S
C528 C527 1.428 . S
C528 C529 1.345 . S
C529 H521 0.950 . S
C529 C528 1.345 . S
C529 C530 1.424 . S
C530 H522 0.951 . S
C530 C529 1.424 . S
C530 C531 1.347 . S
C531 H523 0.951 . S
C531 C526 1.429 . S
C531 C530 1.347 . S
H532 C533 0.951 . S
C533 H532 0.951 . S
C533 C539 1.265 . S
H534 C539 0.950 . S
H535 C543 0.949 . S
H536 C544 0.950 . S
H537 C545 0.951 . S
H538 C546 0.951 . S
C539 C533 1.265 . S
C539 H534 0.950 . S
C539 C540 1.478 . S
C540 C539 1.478 . S
C540 C541 1.397 . S
C540 C557 1.394 . S
C541 C540 1.397 . S
C541 C542 1.438 . S
C541 C546 1.429 . S
C542 C541 1.438 . S
C542 C543 1.428 . S
C542 C555 1.394 . S
C543 H535 0.949 . S
C543 C542 1.428 . S
C543 C544 1.345 . S
C544 H536 0.950 . S
C544 C543 1.345 . S
C544 C545 1.424 . S
C545 H537 0.951 . S
C545 C544 1.424 . S
C545 C546 1.347 . S
C546 H538 0.951 . S
C546 C541 1.429 . S
C546 C545 1.347 . S
H547 C548 0.951 . S
C548 H547 0.951 . S
C548 C554 1.265 . S
H549 C554 0.950 . S
H550 C558 0.949 . S
H551 C559 0.950 . S
H552 C560 0.951 . S
H553 C561 0.951 . S
C554 C548 1.265 . S
C554 H549 0.950 . S
C554 C555 1.478 . S
C555 C542 1.394 . S
C555 C554 1.478 . S
C555 C556 1.397 . S
C556 C555 1.397 . S
C556 C557 1.438 . S
C556 C561 1.429 . S
C557 C540 1.394 . S
C557 C556 1.438 . S
C557 C558 1.428 . S
C558 H550 0.949 . S
C558 C557 1.428 . S
C558 C559 1.345 . S
C559 H551 0.950 . S
C559 C558 1.345 . S
C559 C560 1.424 . S
C560 H552 0.951 . S
C560 C559 1.424 . S
C560 C561 1.347 . S
C561 H553 0.951 . S
C561 C556 1.429 . S
C561 C560 1.347 . S
H562 C563 0.951 . S
C563 H562 0.951 . S
C563 C569 1.265 . S
H564 C569 0.950 . S
H565 C573 0.949 . S
H566 C574 0.950 . S
H567 C575 0.951 . S
H568 C576 0.951 . S
C569 C563 1.265 . S
C569 H564 0.950 . S
C569 C570 1.478 . S
C570 C569 1.478 . S
C570 C571 1.397 . S
C570 C587 1.394 . S
C571 C570 1.397 . S
C571 C572 1.438 . S
C571 C576 1.429 . S
C572 C571 1.438 . S
C572 C573 1.428 . S
C572 C585 1.394 . S
C573 H565 0.949 . S
C573 C572 1.428 . S
C573 C574 1.345 . S
C574 H566 0.950 . S
C574 C573 1.345 . S
C574 C575 1.424 . S
C575 H567 0.951 . S
C575 C574 1.424 . S
C575 C576 1.347 . S
C576 H568 0.951 . S
C576 C571 1.429 . S
C576 C575 1.347 . S
H577 C578 0.951 . S
C578 H577 0.951 . S
C578 C584 1.265 . S
H579 C584 0.950 . S
H580 C588 0.949 . S
H581 C589 0.950 . S
H582 C590 0.951 . S
H583 C591 0.951 . S
C584 C578 1.265 . S
C584 H579 0.950 . S
C584 C585 1.478 . S
C585 C572 1.394 . S
C585 C584 1.478 . S
C585 C586 1.397 . S
C586 C585 1.397 . S
C586 C587 1.438 . S
C586 C591 1.429 . S
C587 C570 1.394 . S
C587 C586 1.438 . S
C587 C588 1.428 . S
C588 H580 0.949 . S
C588 C587 1.428 . S
C588 C589 1.345 . S
C589 H581 0.950 . S
C589 C588 1.345 . S
C589 C590 1.424 . S
C590 H582 0.951 . S
C590 C589 1.424 . S
C590 C591 1.347 . S
C591 H583 0.951 . S
C591 C586 1.429 . S
C591 C590 1.347 . S
C113 C4 0.404 . S
C128 C32 0.300 . S
C143 C18 0.276 . S
C158 C46 0.291 . S
C173 C60 0.357 . S
C188 C88 0.362 . S
C203 C74 0.313 . S
C218 C102 0.253 . S
C233 C12 1.527 . S
C248 C82 1.499 . S
C263 C26 1.507 . S
C278 C96 1.537 . S
C293 C110 1.562 . S
C308 C40 1.542 . S
C323 C54 1.559 . S
C338 C68 1.537 . S
C353 C61 1.423 . S
C368 C11 1.430 . S
C383 C25 1.478 . S
C398 C75 1.371 . S
C413 C39 1.486 . S
C428 C89 1.422 . S
C443 C53 1.480 . S
C458 C103 1.370 . S
C473 C5 1.422 . S
C488 C67 1.431 . S
C503 C81 1.420 . S
C518 C19 1.481 . S
C533 C95 1.432 . S
C548 C33 1.421 . S
C563 C47 1.368 . S
C578 C109 1.496 . S
