# Generated by pormake.
# Topology unr, (4)-cn, num edge types: 1
# Building blocks:
#     Node 0, Type 0, BuildingBlock: AZAVOO_clean_sbu_0, # of connection points: 4
#     Node 1, Type 0, BuildingBlock: AZAVOO_clean_sbu_0, # of connection points: 4
#     Node 2, Type 0, BuildingBlock: AZAVOO_clean_sbu_0, # of connection points: 4
#     Node 3, Type 0, BuildingBlock: AZAVOO_clean_sbu_0, # of connection points: 4
#     Node 4, Type 0, BuildingBlock: AZAVOO_clean_sbu_0, # of connection points: 4
#     Node 5, Type 0, BuildingBlock: AZAVOO_clean_sbu_0, # of connection points: 4
#     Node 6, Type 0, BuildingBlock: AZAVOO_clean_sbu_0, # of connection points: 4
#     Node 7, Type 0, BuildingBlock: AZAVOO_clean_sbu_0, # of connection points: 4
#     Node 8, Type 0, BuildingBlock: AZAVOO_clean_sbu_0, # of connection points: 4
#     Node 9, Type 0, BuildingBlock: AZAVOO_clean_sbu_0, # of connection points: 4
#     Node 10, Type 0, BuildingBlock: AZAVOO_clean_sbu_0, # of connection points: 4
#     Node 11, Type 0, BuildingBlock: AZAVOO_clean_sbu_0, # of connection points: 4
#     Node 12, Type 0, BuildingBlock: AZAVOO_clean_sbu_0, # of connection points: 4
#     Node 13, Type 0, BuildingBlock: AZAVOO_clean_sbu_0, # of connection points: 4
#     Node 14, Type 0, BuildingBlock: AZAVOO_clean_sbu_0, # of connection points: 4
#     Node 15, Type 0, BuildingBlock: AZAVOO_clean_sbu_0, # of connection points: 4
#     Node 16, Type 0, BuildingBlock: AZAVOO_clean_sbu_0, # of connection points: 4
#     Node 17, Type 0, BuildingBlock: AZAVOO_clean_sbu_0, # of connection points: 4
#     Node 18, Type 0, BuildingBlock: AZAVOO_clean_sbu_0, # of connection points: 4
#     Node 19, Type 0, BuildingBlock: AZAVOO_clean_sbu_0, # of connection points: 4
#     Node 20, Type 0, BuildingBlock: AZAVOO_clean_sbu_0, # of connection points: 4
#     Node 21, Type 0, BuildingBlock: AZAVOO_clean_sbu_0, # of connection points: 4
#     Node 22, Type 0, BuildingBlock: AZAVOO_clean_sbu_0, # of connection points: 4
#     Node 23, Type 0, BuildingBlock: AZAVOO_clean_sbu_0, # of connection points: 4
#     Node 24, Type 0, BuildingBlock: AZAVOO_clean_sbu_0, # of connection points: 4
#     Node 25, Type 0, BuildingBlock: AZAVOO_clean_sbu_0, # of connection points: 4
#     Node 26, Type 0, BuildingBlock: AZAVOO_clean_sbu_0, # of connection points: 4
#     Node 27, Type 0, BuildingBlock: AZAVOO_clean_sbu_0, # of connection points: 4
#     Node 28, Type 0, BuildingBlock: AZAVOO_clean_sbu_0, # of connection points: 4
#     Node 29, Type 0, BuildingBlock: AZAVOO_clean_sbu_0, # of connection points: 4
#     Node 30, Type 0, BuildingBlock: AZAVOO_clean_sbu_0, # of connection points: 4
#     Node 31, Type 0, BuildingBlock: AZAVOO_clean_sbu_0, # of connection points: 4
#     Node 32, Type 0, BuildingBlock: AZAVOO_clean_sbu_0, # of connection points: 4
#     Node 33, Type 0, BuildingBlock: AZAVOO_clean_sbu_0, # of connection points: 4
#     Node 34, Type 0, BuildingBlock: AZAVOO_clean_sbu_0, # of connection points: 4
#     Node 35, Type 0, BuildingBlock: AZAVOO_clean_sbu_0, # of connection points: 4
#     Edge 36, Type (0, 0), None
#     Edge 37, Type (0, 0), None
#     Edge 38, Type (0, 0), None
#     Edge 39, Type (0, 0), None
#     Edge 40, Type (0, 0), None
#     Edge 41, Type (0, 0), None
#     Edge 42, Type (0, 0), None
#     Edge 43, Type (0, 0), None
#     Edge 44, Type (0, 0), None
#     Edge 45, Type (0, 0), None
#     Edge 46, Type (0, 0), None
#     Edge 47, Type (0, 0), None
#     Edge 48, Type (0, 0), None
#     Edge 49, Type (0, 0), None
#     Edge 50, Type (0, 0), None
#     Edge 51, Type (0, 0), None
#     Edge 52, Type (0, 0), None
#     Edge 53, Type (0, 0), None
#     Edge 54, Type (0, 0), None
#     Edge 55, Type (0, 0), None
#     Edge 56, Type (0, 0), None
#     Edge 57, Type (0, 0), None
#     Edge 58, Type (0, 0), None
#     Edge 59, Type (0, 0), None
#     Edge 60, Type (0, 0), None
#     Edge 61, Type (0, 0), None
#     Edge 62, Type (0, 0), None
#     Edge 63, Type (0, 0), None
#     Edge 64, Type (0, 0), None
#     Edge 65, Type (0, 0), None
#     Edge 66, Type (0, 0), None
#     Edge 67, Type (0, 0), None
#     Edge 68, Type (0, 0), None
#     Edge 69, Type (0, 0), None
#     Edge 70, Type (0, 0), None
#     Edge 71, Type (0, 0), None
#     Edge 72, Type (0, 0), None
#     Edge 73, Type (0, 0), None
#     Edge 74, Type (0, 0), None
#     Edge 75, Type (0, 0), None
#     Edge 76, Type (0, 0), None
#     Edge 77, Type (0, 0), None
#     Edge 78, Type (0, 0), None
#     Edge 79, Type (0, 0), None
#     Edge 80, Type (0, 0), None
#     Edge 81, Type (0, 0), None
#     Edge 82, Type (0, 0), None
#     Edge 83, Type (0, 0), None
#     Edge 84, Type (0, 0), None
#     Edge 85, Type (0, 0), None
#     Edge 86, Type (0, 0), None
#     Edge 87, Type (0, 0), None
#     Edge 88, Type (0, 0), None
#     Edge 89, Type (0, 0), None
#     Edge 90, Type (0, 0), None
#     Edge 91, Type (0, 0), None
#     Edge 92, Type (0, 0), None
#     Edge 93, Type (0, 0), None
#     Edge 94, Type (0, 0), None
#     Edge 95, Type (0, 0), None
#     Edge 96, Type (0, 0), None
#     Edge 97, Type (0, 0), None
#     Edge 98, Type (0, 0), None
#     Edge 99, Type (0, 0), None
#     Edge 100, Type (0, 0), None
#     Edge 101, Type (0, 0), None
#     Edge 102, Type (0, 0), None
#     Edge 103, Type (0, 0), None
#     Edge 104, Type (0, 0), None
#     Edge 105, Type (0, 0), None
#     Edge 106, Type (0, 0), None
#     Edge 107, Type (0, 0), None
# Relax obj value: 0.341
# Max RMSD: 0.241
# Mean RMSD: 0.241
data_MOF--net-unr--node1-AZAVOO_clean_sbu_0--edge1-none
_symmetry_space_group_name_H-M    P1
_symmetry_Int_Tables_number       1
_symmetry_cell_setting            triclinic
loop_
_symmetry_equiv_pos_as_xyz
'x, y, z'
_cell_length_a     20.065326
_cell_length_b     20.247311
_cell_length_c     55.63007
_cell_angle_alpha  91.597965
_cell_angle_beta   90.973389
_cell_angle_gamma 119.86173
loop_
_atom_site_label
_atom_site_type_symbol
_atom_site_fract_x
_atom_site_fract_y
_atom_site_fract_z
_atom_type_partial_charge
Mg0 Mg 0.19059 0.21114 0.25567 0.0
O1 O 0.15939 0.08819 0.25221 0.0
O2 O 0.09538 0.04432 0.28551 0.0
Mg3 Mg 0.07266 0.12675 0.31129 0.0
C4 C 0.12264 0.03418 0.2659 0.0
C5 C 0.32501 0.18646 0.22774 0.0
O6 O 0.35848 0.19027 0.20741 0.0
O7 O 0.27497 0.2504 0.28926 0.0
O8 O 0.16758 0.23876 0.29931 0.0
O9 O 0.06645 0.15746 0.23927 0.0
O10 O 0.09054 0.18487 0.27758 0.0
C11 C 0.23427 0.25414 0.30605 0.0
C12 C 0.04084 0.15002 0.26073 0.0
O13 O 0.28215 0.21714 0.22895 0.0
Mg14 Mg 0.78604 0.97962 0.25537 0.0
O15 O 0.90852 0.06847 0.25205 0.0
O16 O 0.95482 0.05093 0.2861 0.0
Mg17 Mg 0.87027 0.93872 0.30729 0.0
C18 C 0.96366 0.08774 0.26686 0.0
C19 C 0.80138 0.13642 0.22847 0.0
O20 O 0.78679 0.16048 0.20851 0.0
O21 O 0.76771 0.02859 0.29273 0.0
O22 O 0.75101 0.92424 0.30829 0.0
O23 O 0.8369 0.91066 0.2356 0.0
O24 O 0.8137 0.90289 0.27331 0.0
C25 C 0.74742 0.98425 0.31057 0.0
C26 C 0.84694 0.89026 0.25646 0.0
O27 O 0.7715 0.06394 0.23038 0.0
Mg28 Mg 0.01727 0.80689 0.25558 0.0
O29 O 0.92921 0.84075 0.24843 0.0
O30 O 0.94767 0.90317 0.2833 0.0
Mg31 Mg 0.05705 0.93083 0.30856 0.0
C32 C 0.91082 0.87677 0.26301 0.0
C33 C 0.85446 0.6631 0.22849 0.0
O34 O 0.82469 0.62 0.20888 0.0
O35 O 0.96611 0.74195 0.29157 0.0
O36 O 0.07074 0.82694 0.31076 0.0
O37 O 0.08847 0.92623 0.23769 0.0
O38 O 0.09609 0.91187 0.2755 0.0
C39 C 0.00942 0.76403 0.31076 0.0
C40 C 0.10926 0.95718 0.25901 0.0
O41 O 0.9282 0.70538 0.23019 0.0
Mg42 Mg 0.20435 0.18745 0.38508 0.0
O43 O 0.08133 0.15372 0.38927 0.0
O44 O 0.03573 0.09006 0.35442 0.0
Mg45 Mg 0.12053 0.06282 0.33177 0.0
C46 C 0.02629 0.11768 0.3743 0.0
C47 C 0.18888 0.33071 0.4132 0.0
O48 O 0.20354 0.37192 0.43322 0.0
O49 O 0.22162 0.25391 0.34898 0.0
O50 O 0.23888 0.16728 0.33068 0.0
O51 O 0.15606 0.06899 0.40338 0.0
O52 O 0.17773 0.0833 0.36563 0.0
C53 C 0.24232 0.2309 0.33026 0.0
C54 C 0.1459 0.03808 0.38209 0.0
O55 O 0.21875 0.28749 0.41113 0.0
Mg56 Mg 0.79928 0.01399 0.38542 0.0
O57 O 0.83096 0.922 0.38541 0.0
O58 O 0.89787 0.942 0.3524 0.0
Mg59 Mg 0.9193 0.04857 0.32936 0.0
C60 C 0.86876 0.90444 0.37132 0.0
C61 C 0.66613 0.85939 0.41392 0.0
O62 O 0.63428 0.83381 0.4345 0.0
O63 O 0.71453 0.96977 0.35176 0.0
O64 O 0.82283 0.06384 0.34289 0.0
O65 O 0.92287 0.08378 0.40217 0.0
O66 O 0.89887 0.08692 0.36407 0.0
C67 C 0.756 0.01407 0.3356 0.0
C68 C 0.94854 0.10202 0.38082 0.0
O69 O 0.70943 0.93201 0.41246 0.0
Mg70 Mg 0.97456 0.78346 0.38461 0.0
O71 O 0.06608 0.90675 0.38867 0.0
O72 O 0.04566 0.95016 0.35482 0.0
Mg73 Mg 0.9421 0.86801 0.32781 0.0
C74 C 0.08288 0.96071 0.37489 0.0
C75 C 0.1345 0.8081 0.4139 0.0
O76 O 0.16466 0.80317 0.43437 0.0
O77 O 0.02071 0.74482 0.35211 0.0
O78 O 0.92536 0.75642 0.34029 0.0
O79 O 0.90248 0.83535 0.39968 0.0
O80 O 0.90066 0.80928 0.36146 0.0
C81 C 0.977 0.74125 0.33461 0.0
C82 C 0.88454 0.84291 0.37794 0.0
O83 O 0.06073 0.77763 0.41222 0.0
Mg84 Mg 0.80111 0.78468 0.88613 0.0
O85 O 0.83231 0.90763 0.8896 0.0
O86 O 0.89631 0.95151 0.8563 0.0
Mg87 Mg 0.91904 0.86908 0.83051 0.0
C88 C 0.86905 0.96165 0.87591 0.0
C89 C 0.66669 0.80936 0.91407 0.0
O90 O 0.63322 0.80555 0.9344 0.0
O91 O 0.71672 0.74543 0.85254 0.0
O92 O 0.82411 0.75707 0.8425 0.0
O93 O 0.92525 0.83835 0.90254 0.0
O94 O 0.90116 0.81096 0.86423 0.0
C95 C 0.75743 0.74169 0.83575 0.0
C96 C 0.95085 0.8458 0.88107 0.0
O97 O 0.70954 0.77868 0.91285 0.0
Mg98 Mg 0.20565 0.01619 0.88644 0.0
O99 O 0.08318 0.92734 0.88976 0.0
O100 O 0.03687 0.94489 0.85571 0.0
Mg101 Mg 0.12142 0.05711 0.83452 0.0
C102 C 0.02803 0.90808 0.87495 0.0
C103 C 0.19031 0.8594 0.91335 0.0
O104 O 0.20492 0.83535 0.9333 0.0
O105 O 0.22398 0.96723 0.84908 0.0
O106 O 0.24069 0.07158 0.83352 0.0
O107 O 0.15479 0.08516 0.90621 0.0
O108 O 0.17799 0.09293 0.8685 0.0
C109 C 0.24427 0.01157 0.83124 0.0
C110 C 0.14476 0.10556 0.88535 0.0
O111 O 0.22019 0.93188 0.91143 0.0
Mg112 Mg 0.97442 0.18893 0.88623 0.0
O113 O 0.06248 0.15508 0.89338 0.0
O114 O 0.04402 0.09265 0.85851 0.0
Mg115 Mg 0.93463 0.065 0.83325 0.0
C116 C 0.08087 0.11905 0.8788 0.0
C117 C 0.13724 0.33272 0.91332 0.0
O118 O 0.16702 0.37582 0.93292 0.0
O119 O 0.02558 0.25387 0.85024 0.0
O120 O 0.92094 0.16889 0.83105 0.0
O121 O 0.90323 0.06959 0.90412 0.0
O122 O 0.8956 0.08395 0.86632 0.0
C123 C 0.98227 0.2318 0.83105 0.0
C124 C 0.88243 0.03864 0.8828 0.0
O125 O 0.0635 0.29044 0.91162 0.0
Mg126 Mg 0.78733 0.80838 0.75672 0.0
O127 O 0.91035 0.84211 0.75254 0.0
O128 O 0.95595 0.90577 0.78738 0.0
Mg129 Mg 0.87115 0.93301 0.81004 0.0
C130 C 0.96539 0.87815 0.76751 0.0
C131 C 0.80282 0.66512 0.7286 0.0
O132 O 0.78816 0.62392 0.70858 0.0
O133 O 0.77007 0.74191 0.79283 0.0
O134 O 0.7528 0.82855 0.81112 0.0
O135 O 0.83562 0.92685 0.73843 0.0
O136 O 0.81395 0.91253 0.77618 0.0
C137 C 0.74937 0.76493 0.81154 0.0
C138 C 0.84578 0.95775 0.75972 0.0
O139 O 0.77294 0.70834 0.73068 0.0
Mg140 Mg 0.19241 0.98185 0.75639 0.0
O141 O 0.16073 0.07385 0.7564 0.0
O142 O 0.09381 0.05383 0.78941 0.0
Mg143 Mg 0.07238 0.94726 0.81245 0.0
C144 C 0.12292 0.09139 0.77049 0.0
C145 C 0.32556 0.13645 0.7279 0.0
O146 O 0.35741 0.16204 0.70731 0.0
O147 O 0.27715 0.02606 0.79005 0.0
O148 O 0.16885 0.932 0.79892 0.0
O149 O 0.06882 0.91206 0.73963 0.0
O150 O 0.09281 0.90891 0.77774 0.0
C151 C 0.23568 0.98177 0.80621 0.0
C152 C 0.04315 0.89382 0.76098 0.0
O153 O 0.28226 0.06383 0.72935 0.0
Mg154 Mg 0.01711 0.21238 0.75721 0.0
O155 O 0.9256 0.08908 0.75314 0.0
O156 O 0.94602 0.04567 0.78698 0.0
Mg157 Mg 0.04958 0.12781 0.814 0.0
C158 C 0.9088 0.03512 0.76691 0.0
C159 C 0.85718 0.18772 0.72791 0.0
O160 O 0.82701 0.19265 0.70745 0.0
O161 O 0.97097 0.25101 0.7897 0.0
O162 O 0.06632 0.23941 0.80152 0.0
O163 O 0.0892 0.16049 0.74213 0.0
O164 O 0.09102 0.18656 0.78035 0.0
C165 C 0.01469 0.25458 0.8072 0.0
C166 C 0.10714 0.15293 0.76387 0.0
O167 O 0.93095 0.2182 0.72959 0.0
Mg168 Mg 0.85785 0.5449 0.58928 0.0
O169 O 0.8267 0.42198 0.58569 0.0
O170 O 0.76297 0.37786 0.61902 0.0
Mg171 Mg 0.74032 0.46006 0.64493 0.0
C172 C 0.7901 0.36786 0.59936 0.0
C173 C 0.992 0.52042 0.56109 0.0
O174 O 0.02527 0.52433 0.54071 0.0
O175 O 0.94248 0.58405 0.62281 0.0
O176 O 0.83516 0.57226 0.63302 0.0
O177 O 0.73366 0.49131 0.57295 0.0
O178 O 0.75795 0.51841 0.61127 0.0
C179 C 0.90198 0.58782 0.63966 0.0
C180 C 0.70818 0.48368 0.59443 0.0
O181 O 0.9492 0.55114 0.56242 0.0
Mg182 Mg 0.45348 0.31297 0.5891 0.0
O183 O 0.57585 0.40205 0.58578 0.0
O184 O 0.62237 0.38442 0.61977 0.0
Mg185 Mg 0.53831 0.27234 0.6411 0.0
C186 C 0.63106 0.42133 0.60056 0.0
C187 C 0.46803 0.46911 0.56187 0.0
O188 O 0.4529 0.49256 0.54188 0.0
O189 O 0.43528 0.36214 0.62642 0.0
O190 O 0.41892 0.25762 0.64169 0.0
O191 O 0.50431 0.24393 0.56938 0.0
O192 O 0.48156 0.23656 0.60713 0.0
C193 C 0.41544 0.31763 0.64421 0.0
C194 C 0.51462 0.22378 0.59025 0.0
O195 O 0.43841 0.39673 0.56397 0.0
Mg196 Mg 0.68508 0.14059 0.58896 0.0
O197 O 0.59677 0.17424 0.5821 0.0
O198 O 0.61566 0.23678 0.61698 0.0
Mg199 Mg 0.72556 0.26456 0.64204 0.0
C200 C 0.57853 0.21026 0.59674 0.0
C201 C 0.52219 0.9968 0.56178 0.0
O202 O 0.49252 0.9539 0.54213 0.0
O203 O 0.63457 0.07558 0.62501 0.0
O204 O 0.73957 0.16079 0.64397 0.0
O205 O 0.75574 0.26002 0.57108 0.0
O206 O 0.76399 0.24562 0.60886 0.0
C207 C 0.6783 0.09787 0.64411 0.0
C208 C 0.7768 0.29094 0.5924 0.0
O209 O 0.59592 0.03916 0.56353 0.0
Mg210 Mg 0.87341 0.52171 0.71868 0.0
O211 O 0.75034 0.48758 0.72299 0.0
O212 O 0.70478 0.42391 0.68814 0.0
Mg213 Mg 0.78954 0.39709 0.66528 0.0
C214 C 0.69528 0.4514 0.70804 0.0
C215 C 0.8576 0.66464 0.7469 0.0
O216 O 0.87209 0.70568 0.76696 0.0
O217 O 0.89006 0.5882 0.68261 0.0
O218 O 0.90777 0.50178 0.66442 0.0
O219 O 0.82562 0.4031 0.73687 0.0
O220 O 0.847 0.41769 0.69911 0.0
C221 C 0.91069 0.56514 0.6639 0.0
C222 C 0.81543 0.37233 0.71556 0.0
O223 O 0.8876 0.62152 0.7448 0.0
Mg224 Mg 0.46825 0.34707 0.71915 0.0
O225 O 0.5003 0.25535 0.71916 0.0
O226 O 0.56726 0.27578 0.68614 0.0
Mg227 Mg 0.58831 0.38226 0.66312 0.0
C228 C 0.53828 0.2381 0.70505 0.0
C229 C 0.33538 0.19225 0.74766 0.0
O230 O 0.30366 0.16665 0.76826 0.0
O231 O 0.38348 0.30266 0.68549 0.0
O232 O 0.49142 0.39707 0.67652 0.0
O233 O 0.59182 0.41711 0.73593 0.0
O234 O 0.56776 0.42032 0.69784 0.0
C235 C 0.42457 0.34714 0.66931 0.0
C236 C 0.61746 0.43547 0.71458 0.0
O237 O 0.37856 0.26488 0.74619 0.0
Mg238 Mg 0.64469 0.11755 0.71809 0.0
O239 O 0.73611 0.24089 0.72209 0.0
O240 O 0.71503 0.2843 0.68835 0.0
Mg241 Mg 0.61117 0.20193 0.66143 0.0
C242 C 0.75256 0.29487 0.70836 0.0
C243 C 0.8049 0.14245 0.74731 0.0
O244 O 0.83506 0.1376 0.76778 0.0
O245 O 0.69057 0.07911 0.68546 0.0
O246 O 0.59485 0.09041 0.67385 0.0
O247 O 0.57262 0.16924 0.73333 0.0
O248 O 0.57036 0.14313 0.69509 0.0
C249 C 0.64646 0.07533 0.66805 0.0
C250 C 0.55435 0.17671 0.71162 0.0
O251 O 0.73113 0.1119 0.74563 0.0
Mg252 Mg 0.46728 0.11734 0.21953 0.0
O253 O 0.49809 0.24016 0.22307 0.0
O254 O 0.56195 0.28425 0.18976 0.0
Mg255 Mg 0.58505 0.20216 0.16394 0.0
C256 C 0.53465 0.29424 0.20939 0.0
C257 C 0.33262 0.14158 0.24745 0.0
O258 O 0.29902 0.13764 0.26777 0.0
O259 O 0.38289 0.07797 0.18594 0.0
O260 O 0.49031 0.08986 0.17581 0.0
O261 O 0.59144 0.17135 0.23595 0.0
O262 O 0.56744 0.14402 0.19764 0.0
C263 C 0.42354 0.07432 0.16912 0.0
C264 C 0.61708 0.17896 0.21449 0.0
O265 O 0.37554 0.11098 0.24624 0.0
Mg266 Mg 0.87168 0.35005 0.21983 0.0
O267 O 0.74932 0.26093 0.22318 0.0
O268 O 0.70284 0.27822 0.18913 0.0
Mg269 Mg 0.78704 0.39057 0.16794 0.0
C270 C 0.69414 0.24146 0.20837 0.0
C271 C 0.85681 0.19345 0.2467 0.0
O272 O 0.87157 0.16939 0.26663 0.0
O273 O 0.89008 0.30123 0.18245 0.0
O274 O 0.90645 0.40545 0.16688 0.0
O275 O 0.82049 0.41868 0.23962 0.0
O276 O 0.84364 0.42656 0.20191 0.0
C277 C 0.9102 0.34553 0.1646 0.0
C278 C 0.8103 0.439 0.21877 0.0
O279 O 0.8866 0.26592 0.2448 0.0
Mg280 Mg 0.63924 0.52147 0.2197 0.0
O281 O 0.72762 0.48802 0.22682 0.0
O282 O 0.70936 0.4257 0.19194 0.0
Mg283 Mg 0.59975 0.39764 0.16673 0.0
C284 C 0.7462 0.45218 0.21223 0.0
C285 C 0.80192 0.66554 0.24674 0.0
O286 O 0.83169 0.70883 0.26631 0.0
O287 O 0.69009 0.58644 0.18368 0.0
O288 O 0.58562 0.50126 0.16445 0.0
O289 O 0.56851 0.40209 0.23761 0.0
O290 O 0.56063 0.41637 0.19981 0.0
C291 C 0.64679 0.5643 0.16449 0.0
C292 C 0.54772 0.37111 0.21629 0.0
O293 O 0.72819 0.62317 0.24505 0.0
Mg294 Mg 0.45288 0.14117 0.09012 0.0
O295 O 0.57598 0.17519 0.08594 0.0
O296 O 0.62147 0.23874 0.1208 0.0
Mg297 Mg 0.53654 0.26564 0.14352 0.0
C298 C 0.63099 0.21126 0.10092 0.0
C299 C 0.46844 -0.0018 1.06178 0.0
O300 O 0.45378 0.95721 1.04171 0.0
O301 O 0.43589 0.07451 0.12617 0.0
O302 O 0.41835 0.16092 0.14449 0.0
O303 O 0.50077 0.2597 0.0719 0.0
O304 O 0.4793 0.24515 0.10966 0.0
C305 C 0.41521 0.09743 0.14491 0.0
C306 C 0.51093 0.29048 0.09321 0.0
O307 O 0.43857 0.04141 1.06395 0.0
Mg308 Mg 0.85799 0.31548 0.08976 0.0
O309 O 0.82608 0.40733 0.08981 0.0
O310 O 0.75918 0.38715 0.12283 0.0
Mg311 Mg 0.73808 0.28069 0.14586 0.0
C312 C 0.78819 0.42474 0.10391 0.0
C313 C 0.99086 0.46986 1.06106 0.0
O314 O 0.02251 0.49516 1.04043 0.0
O315 O 0.94289 0.35997 0.12338 0.0
O316 O 0.83475 0.26578 0.13231 0.0
O317 O 0.73442 0.2454 0.07303 0.0
O318 O 0.75855 0.24245 0.11113 0.0
C319 C 0.90156 0.31568 0.13957 0.0
C320 C 0.70882 0.22717 0.09439 0.0
O321 O 0.94758 0.39728 1.06262 0.0
Mg322 Mg 0.68187 0.54525 0.09066 0.0
O323 O 0.59046 0.42188 0.08664 0.0
O324 O 0.61108 0.37853 0.12047 0.0
Mg325 Mg 0.71463 0.46086 0.14746 0.0
C326 C 0.57379 0.36793 0.10041 0.0
C327 C 0.52209 0.52054 1.06123 0.0
O328 O 0.49215 0.5255 1.04072 0.0
O329 O 0.63549 0.58367 0.12315 0.0
O330 O 0.73098 0.5723 0.13496 0.0
O331 O 0.75419 0.49367 0.07557 0.0
O332 O 0.7559 0.51961 0.1138 0.0
C333 C 0.67922 0.58728 0.14065 0.0
C334 C 0.77217 0.48613 0.09731 0.0
O335 O 0.59584 0.55101 1.06298 0.0
Mg336 Mg 0.52442 0.87847 0.92228 0.0
O337 O 0.49361 0.75565 0.91874 0.0
O338 O 0.42975 0.71156 0.95205 0.0
Mg339 Mg 0.40665 0.79364 0.97787 0.0
C340 C 0.45705 0.70157 0.93242 0.0
C341 C 0.65908 0.85424 0.89436 0.0
O342 O 0.69268 0.85818 0.87404 0.0
O343 O 0.60881 0.91784 0.95588 0.0
O344 O 0.50139 0.90594 0.966 0.0
O345 O 0.40026 0.82447 0.90587 0.0
O346 O 0.42426 0.85179 0.94418 0.0
C347 C 0.56816 0.92148 0.9727 0.0
C348 C 0.37462 0.81686 0.92733 0.0
O349 O 0.61615 0.88485 0.89557 0.0
Mg350 Mg 0.12002 0.64576 0.92199 0.0
O351 O 0.24238 0.73489 0.91863 0.0
O352 O 0.28886 0.71758 0.95268 0.0
Mg353 Mg 0.20466 0.60523 0.97388 0.0
C354 C 0.29756 0.75435 0.93345 0.0
C355 C 0.13488 0.80236 0.89511 0.0
O356 O 0.12012 0.82641 0.87518 0.0
O357 O 0.10162 0.69458 0.95937 0.0
O358 O 0.08525 0.59035 0.97493 0.0
O359 O 0.17122 0.57714 0.90219 0.0
O360 O 0.14807 0.56926 0.93991 0.0
C361 C 0.0815 0.65027 0.97722 0.0
C362 C 0.1814 0.55681 0.92304 0.0
O363 O 0.10509 0.72989 0.89702 0.0
Mg364 Mg 0.35246 0.47435 0.9221 0.0
O365 O 0.26408 0.50779 0.91498 0.0
O366 O 0.28234 0.5701 0.94987 0.0
Mg367 Mg 0.39196 0.59816 0.97508 0.0
C368 C 0.24551 0.54363 0.92958 0.0
C369 C 0.18978 0.33028 0.89507 0.0
O370 O 0.16001 0.287 0.87549 0.0
O371 O 0.30162 0.40937 0.95812 0.0
O372 O 0.40609 0.49454 0.97735 0.0
O373 O 0.42319 0.59373 0.9042 0.0
O374 O 0.43108 0.57944 0.942 0.0
C375 C 0.34491 0.4315 0.97732 0.0
C376 C 0.44398 0.6247 0.92551 0.0
O377 O 0.26351 0.37265 0.89675 0.0
Mg378 Mg 0.53884 0.85461 1.0517 0.0
O379 O 0.41573 0.82058 1.05588 0.0
O380 O 0.37024 0.75704 1.02101 0.0
Mg381 Mg 0.45517 0.73015 0.9983 0.0
C382 C 0.36072 0.78452 1.0409 0.0
C383 C 0.52326 0.99756 0.08003 0.0
O384 O 0.53794 0.03856 0.1001 0.0
O385 O 0.55582 0.92128 1.01564 0.0
O386 O 0.57336 0.83487 0.99733 0.0
O387 O 0.49095 0.73607 1.06991 0.0
O388 O 0.51241 0.75063 1.03215 0.0
C389 C 0.5765 0.89836 0.9969 0.0
C390 C 0.48078 0.70529 1.0486 0.0
O391 O 0.55315 0.95437 0.07787 0.0
Mg392 Mg 0.13372 0.6803 1.05206 0.0
O393 O 0.16563 0.58845 1.05201 0.0
O394 O 0.23253 0.60864 1.01898 0.0
Mg395 Mg 0.25363 0.7151 0.99595 0.0
C396 C 0.20351 0.57104 1.0379 0.0
C397 C 0.00086 0.52591 0.08076 0.0
O398 O 0.96919 0.50061 0.10139 0.0
O399 O 0.04882 0.63582 1.01843 0.0
O400 O 0.15696 0.73002 1.0095 0.0
O401 O 0.25729 0.75037 1.06879 0.0
O402 O 0.23316 0.75333 1.03068 0.0
C403 C 0.09015 0.68011 1.00225 0.0
C404 C 0.28289 0.76861 1.04743 0.0
O405 O 0.04414 0.59849 0.0792 0.0
Mg406 Mg 0.30983 0.45053 1.05114 0.0
O407 O 0.40125 0.5739 1.05517 0.0
O408 O 0.38063 0.61726 1.02134 0.0
Mg409 Mg 0.27708 0.53493 0.99435 0.0
C410 C 0.41792 0.62785 1.0414 0.0
C411 C 0.46961 0.47524 0.08058 0.0
O412 O 0.49956 0.47026 0.10108 0.0
O413 O 0.35621 0.41211 1.01865 0.0
O414 O 0.26072 0.42349 1.00685 0.0
O415 O 0.23752 0.50211 1.06624 0.0
O416 O 0.23581 0.47617 1.02801 0.0
C417 C 0.31248 0.40851 1.00116 0.0
C418 C 0.21954 0.50965 1.0445 0.0
O419 O 0.39586 0.44476 0.07882 0.0
Mg420 Mg 0.13388 0.45089 0.55253 0.0
O421 O 0.16503 0.57381 0.55613 0.0
O422 O 0.22876 0.61793 0.52279 0.0
Mg423 Mg 0.25141 0.53575 0.49688 0.0
C424 C 0.20163 0.62793 0.54245 0.0
C425 C -0.00026 0.47537 0.58072 0.0
O426 O 0.96646 0.47144 0.6011 0.0
O427 O 0.04925 0.41175 0.519 0.0
O428 O 0.15657 0.42354 0.50878 0.0
O429 O 0.25807 0.50447 0.56886 0.0
O430 O 0.23378 0.47738 0.53054 0.0
C431 C 0.08974 0.40797 0.50215 0.0
C432 C 0.28355 0.51211 0.54737 0.0
O433 O 0.04253 0.44464 0.57938 0.0
Mg434 Mg 0.53825 0.68282 0.55271 0.0
O435 O 0.41588 0.59374 0.55603 0.0
O436 O 0.36936 0.61138 0.52204 0.0
Mg437 Mg 0.45342 0.72346 0.50071 0.0
C438 C 0.36067 0.57447 0.54124 0.0
C439 C 0.52369 0.52668 0.57994 0.0
O440 O 0.53884 0.50323 0.59994 0.0
O441 O 0.55644 0.63365 0.51539 0.0
O442 O 0.57281 0.73818 0.50014 0.0
O443 O 0.48741 0.75186 0.57243 0.0
O444 O 0.51017 0.75923 0.53468 0.0
C445 C 0.57628 0.67817 0.4976 0.0
C446 C 0.47711 0.77201 0.55156 0.0
O447 O 0.55332 0.59906 0.57784 0.0
Mg448 Mg 0.30664 0.85519 0.55285 0.0
O449 O 0.39495 0.82155 0.55971 0.0
O450 O 0.37607 0.75901 0.52483 0.0
Mg451 Mg 0.26615 0.73123 0.49977 0.0
C452 C 0.41319 0.78553 0.54507 0.0
C453 C 0.46953 -0.00103 0.58003 0.0
O454 O 0.49921 0.04189 0.59968 0.0
O455 O 0.35714 0.92021 0.51681 0.0
O456 O 0.25214 0.835 0.49784 0.0
O457 O 0.236 0.73577 0.57074 0.0
O458 O 0.22772 0.75017 0.53296 0.0
C459 C 0.3134 0.89792 0.49771 0.0
C460 C 0.21493 0.70485 0.54942 0.0
O461 O 0.39581 0.95663 0.57828 0.0
Mg462 Mg 0.11828 0.47411 0.42313 0.0
O463 O 0.24135 0.50825 0.41882 0.0
O464 O 0.28691 0.5719 0.45366 0.0
Mg465 Mg 0.20216 0.59871 0.47654 0.0
C466 C 0.29642 0.54443 0.43377 0.0
C467 C 0.1341 0.3312 0.3949 0.0
O468 O 0.1196 0.29016 0.37485 0.0
O469 O 0.10165 0.40761 0.45919 0.0
O470 O 0.08393 0.49402 0.47739 0.0
O471 O 0.16605 0.59272 0.40495 0.0
O472 O 0.14469 0.57812 0.4427 0.0
C473 C 0.08102 0.43066 0.47791 0.0
C474 C 0.17625 0.62349 0.42626 0.0
O475 O 0.10409 0.37431 0.397 0.0
Mg476 Mg 0.52344 0.64876 0.42266 0.0
O477 O 0.49139 0.74047 0.42265 0.0
O478 O 0.42442 0.72003 0.45567 0.0
Mg479 Mg 0.40337 0.61354 0.47869 0.0
C480 C 0.4534 0.75772 0.43676 0.0
C481 C 0.65632 0.80359 0.39415 0.0
O482 O 0.68803 0.82919 0.37355 0.0
O483 O 0.60821 0.69317 0.45632 0.0
O484 O 0.50028 0.59874 0.46529 0.0
O485 O 0.39988 0.57872 0.40588 0.0
O486 O 0.42393 0.5755 0.44397 0.0
C487 C 0.56713 0.64868 0.4725 0.0
C488 C 0.37424 0.56035 0.42722 0.0
O489 O 0.61313 0.73096 0.39562 0.0
Mg490 Mg 0.34698 0.87827 0.42373 0.0
O491 O 0.25556 0.75493 0.41973 0.0
O492 O 0.27666 0.71152 0.45347 0.0
Mg493 Mg 0.38052 0.79389 0.48038 0.0
C494 C 0.23912 0.70094 0.43346 0.0
C495 C 0.18678 0.85337 0.3945 0.0
O496 O 0.15662 0.85823 0.37403 0.0
O497 O 0.30112 0.91671 0.45636 0.0
O498 O 0.39683 0.9054 0.46796 0.0
O499 O 0.41905 0.82658 0.40848 0.0
O500 O 0.42133 0.85268 0.44672 0.0
C501 C 0.34523 0.92048 0.47377 0.0
C502 C 0.43733 0.81911 0.43019 0.0
O503 O 0.26055 0.88392 0.39619 0.0
loop_
_geom_bond_atom_site_label_1
_geom_bond_atom_site_label_2
_geom_bond_distance
_geom_bond_site_symmetry_2
_ccdc_geom_bond_type
Mg0 O1 2.028 . S
Mg0 O7 1.986 . S
Mg0 O9 2.114 . S
Mg0 O10 2.251 . S
Mg0 O13 2.010 . S
O1 Mg0 2.028 . S
O1 C4 1.250 . S
O2 Mg3 2.028 . S
O2 C4 1.248 . S
Mg3 O2 2.028 . S
Mg3 O8 2.032 . S
Mg3 O10 2.079 . S
C4 O1 1.250 . S
C4 O2 1.248 . S
C5 O6 1.264 . S
C5 O13 1.249 . S
O6 C5 1.264 . S
O7 Mg0 1.986 . S
O7 C11 1.246 . S
O8 Mg3 2.032 . S
O8 C11 1.259 . S
O9 Mg0 2.114 . S
O9 C12 1.252 . S
O10 Mg0 2.251 . S
O10 Mg3 2.079 . S
O10 C12 1.273 . S
C11 O7 1.246 . S
C11 O8 1.259 . S
C12 O9 1.252 . S
C12 O10 1.273 . S
O13 Mg0 2.010 . S
O13 C5 1.249 . S
Mg14 O15 2.028 1_565 S
Mg14 O21 1.986 1_565 S
Mg14 O23 2.114 . S
Mg14 O24 2.251 . S
Mg14 O27 2.010 1_565 S
O15 Mg14 2.028 1_545 S
O15 C18 1.250 . S
O16 Mg17 2.028 1_545 S
O16 C18 1.248 . S
Mg17 O16 2.028 1_565 S
Mg17 O22 2.032 . S
Mg17 O24 2.079 . S
C18 O15 1.250 . S
C18 O16 1.248 . S
C19 O20 1.264 . S
C19 O27 1.249 . S
O20 C19 1.264 . S
O21 Mg14 1.986 1_545 S
O21 C25 1.246 1_545 S
O22 Mg17 2.032 . S
O22 C25 1.259 . S
O23 Mg14 2.114 . S
O23 C26 1.252 . S
O24 Mg14 2.251 . S
O24 Mg17 2.079 . S
O24 C26 1.273 . S
C25 O21 1.246 1_565 S
C25 O22 1.259 . S
C26 O23 1.252 . S
C26 O24 1.273 . S
O27 Mg14 2.010 1_545 S
O27 C19 1.249 . S
Mg28 O29 2.028 1_455 S
Mg28 O35 1.986 1_455 S
Mg28 O37 2.114 . S
Mg28 O38 2.251 . S
Mg28 O41 2.010 1_455 S
O29 Mg28 2.028 1_655 S
O29 C32 1.250 . S
O30 Mg31 2.028 1_655 S
O30 C32 1.248 . S
Mg31 O30 2.028 1_455 S
Mg31 O36 2.032 . S
Mg31 O38 2.079 . S
C32 O29 1.250 . S
C32 O30 1.248 . S
C33 O34 1.264 . S
C33 O41 1.249 . S
O34 C33 1.264 . S
O35 Mg28 1.986 1_655 S
O35 C39 1.246 1_655 S
O36 Mg31 2.032 . S
O36 C39 1.259 . S
O37 Mg28 2.114 . S
O37 C40 1.252 . S
O38 Mg28 2.251 . S
O38 Mg31 2.079 . S
O38 C40 1.273 . S
C39 O35 1.246 1_455 S
C39 O36 1.259 . S
C40 O37 1.252 . S
C40 O38 1.273 . S
O41 Mg28 2.010 1_655 S
O41 C33 1.249 . S
Mg42 O43 2.028 . S
Mg42 O49 1.986 . S
Mg42 O51 2.114 . S
Mg42 O52 2.251 . S
Mg42 O55 2.010 . S
O43 Mg42 2.028 . S
O43 C46 1.250 . S
O44 Mg45 2.028 . S
O44 C46 1.248 . S
Mg45 O44 2.028 . S
Mg45 O50 2.032 . S
Mg45 O52 2.079 . S
C46 O43 1.250 . S
C46 O44 1.248 . S
C47 O48 1.264 . S
C47 O55 1.249 . S
O48 C47 1.264 . S
O49 Mg42 1.986 . S
O49 C53 1.246 . S
O50 Mg45 2.032 . S
O50 C53 1.259 . S
O51 Mg42 2.114 . S
O51 C54 1.252 . S
O52 Mg42 2.251 . S
O52 Mg45 2.079 . S
O52 C54 1.273 . S
C53 O49 1.246 . S
C53 O50 1.259 . S
C54 O51 1.252 . S
C54 O52 1.273 . S
O55 Mg42 2.010 . S
O55 C47 1.249 . S
Mg56 O57 2.028 1_545 S
Mg56 O63 1.986 1_545 S
Mg56 O65 2.114 . S
Mg56 O66 2.251 . S
Mg56 O69 2.010 1_545 S
O57 Mg56 2.028 1_565 S
O57 C60 1.250 . S
O58 Mg59 2.028 1_565 S
O58 C60 1.248 . S
Mg59 O58 2.028 1_545 S
Mg59 O64 2.032 . S
Mg59 O66 2.079 . S
C60 O57 1.250 . S
C60 O58 1.248 . S
C61 O62 1.264 . S
C61 O69 1.249 . S
O62 C61 1.264 . S
O63 Mg56 1.986 1_565 S
O63 C67 1.246 1_565 S
O64 Mg59 2.032 . S
O64 C67 1.259 . S
O65 Mg56 2.114 . S
O65 C68 1.252 . S
O66 Mg56 2.251 . S
O66 Mg59 2.079 . S
O66 C68 1.273 . S
C67 O63 1.246 1_545 S
C67 O64 1.259 . S
C68 O65 1.252 . S
C68 O66 1.273 . S
O69 Mg56 2.010 1_565 S
O69 C61 1.249 . S
Mg70 O71 2.028 1_655 S
Mg70 O77 1.986 1_655 S
Mg70 O79 2.114 . S
Mg70 O80 2.251 . S
Mg70 O83 2.010 1_655 S
O71 Mg70 2.028 1_455 S
O71 C74 1.250 . S
O72 Mg73 2.028 1_455 S
O72 C74 1.248 . S
Mg73 O72 2.028 1_655 S
Mg73 O78 2.032 . S
Mg73 O80 2.079 . S
C74 O71 1.250 . S
C74 O72 1.248 . S
C75 O76 1.264 . S
C75 O83 1.249 . S
O76 C75 1.264 . S
O77 Mg70 1.986 1_455 S
O77 C81 1.246 1_455 S
O78 Mg73 2.032 . S
O78 C81 1.259 . S
O79 Mg70 2.114 . S
O79 C82 1.252 . S
O80 Mg70 2.251 . S
O80 Mg73 2.079 . S
O80 C82 1.273 . S
C81 O77 1.246 1_655 S
C81 O78 1.259 . S
C82 O79 1.252 . S
C82 O80 1.273 . S
O83 Mg70 2.010 1_455 S
O83 C75 1.249 . S
Mg84 O85 2.028 . S
Mg84 O91 1.986 . S
Mg84 O93 2.114 . S
Mg84 O94 2.251 . S
Mg84 O97 2.010 . S
O85 Mg84 2.028 . S
O85 C88 1.250 . S
O86 Mg87 2.028 . S
O86 C88 1.248 . S
Mg87 O86 2.028 . S
Mg87 O92 2.032 . S
Mg87 O94 2.079 . S
C88 O85 1.250 . S
C88 O86 1.248 . S
C89 O90 1.264 . S
C89 O97 1.249 . S
O90 C89 1.264 . S
O91 Mg84 1.986 . S
O91 C95 1.246 . S
O92 Mg87 2.032 . S
O92 C95 1.259 . S
O93 Mg84 2.114 . S
O93 C96 1.252 . S
O94 Mg84 2.251 . S
O94 Mg87 2.079 . S
O94 C96 1.273 . S
C95 O91 1.246 . S
C95 O92 1.259 . S
C96 O93 1.252 . S
C96 O94 1.273 . S
O97 Mg84 2.010 . S
O97 C89 1.249 . S
Mg98 O99 2.028 1_545 S
Mg98 O105 1.986 1_545 S
Mg98 O107 2.114 . S
Mg98 O108 2.251 . S
Mg98 O111 2.010 1_545 S
O99 Mg98 2.028 1_565 S
O99 C102 1.250 . S
O100 Mg101 2.028 1_565 S
O100 C102 1.248 . S
Mg101 O100 2.028 1_545 S
Mg101 O106 2.032 . S
Mg101 O108 2.079 . S
C102 O99 1.250 . S
C102 O100 1.248 . S
C103 O104 1.264 . S
C103 O111 1.249 . S
O104 C103 1.264 . S
O105 Mg98 1.986 1_565 S
O105 C109 1.246 1_565 S
O106 Mg101 2.032 . S
O106 C109 1.259 . S
O107 Mg98 2.114 . S
O107 C110 1.252 . S
O108 Mg98 2.251 . S
O108 Mg101 2.079 . S
O108 C110 1.273 . S
C109 O105 1.246 1_545 S
C109 O106 1.259 . S
C110 O107 1.252 . S
C110 O108 1.273 . S
O111 Mg98 2.010 1_565 S
O111 C103 1.249 . S
Mg112 O113 2.028 1_655 S
Mg112 O119 1.986 1_655 S
Mg112 O121 2.114 . S
Mg112 O122 2.251 . S
Mg112 O125 2.010 1_655 S
O113 Mg112 2.028 1_455 S
O113 C116 1.250 . S
O114 Mg115 2.028 1_455 S
O114 C116 1.248 . S
Mg115 O114 2.028 1_655 S
Mg115 O120 2.032 . S
Mg115 O122 2.079 . S
C116 O113 1.250 . S
C116 O114 1.248 . S
C117 O118 1.264 . S
C117 O125 1.249 . S
O118 C117 1.264 . S
O119 Mg112 1.986 1_455 S
O119 C123 1.246 1_455 S
O120 Mg115 2.032 . S
O120 C123 1.259 . S
O121 Mg112 2.114 . S
O121 C124 1.252 . S
O122 Mg112 2.251 . S
O122 Mg115 2.079 . S
O122 C124 1.273 . S
C123 O119 1.246 1_655 S
C123 O120 1.259 . S
C124 O121 1.252 . S
C124 O122 1.273 . S
O125 Mg112 2.010 1_455 S
O125 C117 1.249 . S
Mg126 O127 2.028 . S
Mg126 O133 1.986 . S
Mg126 O135 2.114 . S
Mg126 O136 2.251 . S
Mg126 O139 2.010 . S
O127 Mg126 2.028 . S
O127 C130 1.250 . S
O128 Mg129 2.028 . S
O128 C130 1.248 . S
Mg129 O128 2.028 . S
Mg129 O134 2.032 . S
Mg129 O136 2.079 . S
C130 O127 1.250 . S
C130 O128 1.248 . S
C131 O132 1.264 . S
C131 O139 1.249 . S
O132 C131 1.264 . S
O133 Mg126 1.986 . S
O133 C137 1.246 . S
O134 Mg129 2.032 . S
O134 C137 1.259 . S
O135 Mg126 2.114 . S
O135 C138 1.252 . S
O136 Mg126 2.251 . S
O136 Mg129 2.079 . S
O136 C138 1.273 . S
C137 O133 1.246 . S
C137 O134 1.259 . S
C138 O135 1.252 . S
C138 O136 1.273 . S
O139 Mg126 2.010 . S
O139 C131 1.249 . S
Mg140 O141 2.028 1_565 S
Mg140 O147 1.986 1_565 S
Mg140 O149 2.114 . S
Mg140 O150 2.251 . S
Mg140 O153 2.010 1_565 S
O141 Mg140 2.028 1_545 S
O141 C144 1.250 . S
O142 Mg143 2.028 1_545 S
O142 C144 1.248 . S
Mg143 O142 2.028 1_565 S
Mg143 O148 2.032 . S
Mg143 O150 2.079 . S
C144 O141 1.250 . S
C144 O142 1.248 . S
C145 O146 1.264 . S
C145 O153 1.249 . S
O146 C145 1.264 . S
O147 Mg140 1.986 1_545 S
O147 C151 1.246 1_545 S
O148 Mg143 2.032 . S
O148 C151 1.259 . S
O149 Mg140 2.114 . S
O149 C152 1.252 . S
O150 Mg140 2.251 . S
O150 Mg143 2.079 . S
O150 C152 1.273 . S
C151 O147 1.246 1_565 S
C151 O148 1.259 . S
C152 O149 1.252 . S
C152 O150 1.273 . S
O153 Mg140 2.010 1_545 S
O153 C145 1.249 . S
Mg154 O155 2.028 1_455 S
Mg154 O161 1.986 1_455 S
Mg154 O163 2.114 . S
Mg154 O164 2.251 . S
Mg154 O167 2.010 1_455 S
O155 Mg154 2.028 1_655 S
O155 C158 1.250 . S
O156 Mg157 2.028 1_655 S
O156 C158 1.248 . S
Mg157 O156 2.028 1_455 S
Mg157 O162 2.032 . S
Mg157 O164 2.079 . S
C158 O155 1.250 . S
C158 O156 1.248 . S
C159 O160 1.264 . S
C159 O167 1.249 . S
O160 C159 1.264 . S
O161 Mg154 1.986 1_655 S
O161 C165 1.246 1_655 S
O162 Mg157 2.032 . S
O162 C165 1.259 . S
O163 Mg154 2.114 . S
O163 C166 1.252 . S
O164 Mg154 2.251 . S
O164 Mg157 2.079 . S
O164 C166 1.273 . S
C165 O161 1.246 1_455 S
C165 O162 1.259 . S
C166 O163 1.252 . S
C166 O164 1.273 . S
O167 Mg154 2.010 1_655 S
O167 C159 1.249 . S
Mg168 O169 2.028 . S
Mg168 O175 1.986 . S
Mg168 O177 2.114 . S
Mg168 O178 2.251 . S
Mg168 O181 2.010 . S
O169 Mg168 2.028 . S
O169 C172 1.250 . S
O170 Mg171 2.028 . S
O170 C172 1.248 . S
Mg171 O170 2.028 . S
Mg171 O176 2.032 . S
Mg171 O178 2.079 . S
C172 O169 1.250 . S
C172 O170 1.248 . S
C173 O174 1.264 . S
C173 O181 1.249 1_455 S
O174 C173 1.264 . S
O175 Mg168 1.986 . S
O175 C179 1.246 . S
O176 Mg171 2.032 . S
O176 C179 1.259 . S
O177 Mg168 2.114 . S
O177 C180 1.252 . S
O178 Mg168 2.251 . S
O178 Mg171 2.079 . S
O178 C180 1.273 . S
C179 O175 1.246 . S
C179 O176 1.259 . S
C180 O177 1.252 . S
C180 O178 1.273 . S
O181 Mg168 2.010 . S
O181 C173 1.249 1_655 S
Mg182 O183 2.028 . S
Mg182 O189 1.986 . S
Mg182 O191 2.114 . S
Mg182 O192 2.251 . S
Mg182 O195 2.010 . S
O183 Mg182 2.028 . S
O183 C186 1.250 . S
O184 Mg185 2.028 . S
O184 C186 1.248 . S
Mg185 O184 2.028 . S
Mg185 O190 2.032 . S
Mg185 O192 2.079 . S
C186 O183 1.250 . S
C186 O184 1.248 . S
C187 O188 1.264 . S
C187 O195 1.249 . S
O188 C187 1.264 . S
O189 Mg182 1.986 . S
O189 C193 1.246 . S
O190 Mg185 2.032 . S
O190 C193 1.259 . S
O191 Mg182 2.114 . S
O191 C194 1.252 . S
O192 Mg182 2.251 . S
O192 Mg185 2.079 . S
O192 C194 1.273 . S
C193 O189 1.246 . S
C193 O190 1.259 . S
C194 O191 1.252 . S
C194 O192 1.273 . S
O195 Mg182 2.010 . S
O195 C187 1.249 . S
Mg196 O197 2.028 . S
Mg196 O203 1.986 . S
Mg196 O205 2.114 . S
Mg196 O206 2.251 . S
Mg196 O209 2.010 . S
O197 Mg196 2.028 . S
O197 C200 1.250 . S
O198 Mg199 2.028 . S
O198 C200 1.248 . S
Mg199 O198 2.028 . S
Mg199 O204 2.032 . S
Mg199 O206 2.079 . S
C200 O197 1.250 . S
C200 O198 1.248 . S
C201 O202 1.264 . S
C201 O209 1.249 1_565 S
O202 C201 1.264 . S
O203 Mg196 1.986 . S
O203 C207 1.246 . S
O204 Mg199 2.032 . S
O204 C207 1.259 . S
O205 Mg196 2.114 . S
O205 C208 1.252 . S
O206 Mg196 2.251 . S
O206 Mg199 2.079 . S
O206 C208 1.273 . S
C207 O203 1.246 . S
C207 O204 1.259 . S
C208 O205 1.252 . S
C208 O206 1.273 . S
O209 Mg196 2.010 . S
O209 C201 1.249 1_545 S
Mg210 O211 2.028 . S
Mg210 O217 1.986 . S
Mg210 O219 2.114 . S
Mg210 O220 2.251 . S
Mg210 O223 2.010 . S
O211 Mg210 2.028 . S
O211 C214 1.250 . S
O212 Mg213 2.028 . S
O212 C214 1.248 . S
Mg213 O212 2.028 . S
Mg213 O218 2.032 . S
Mg213 O220 2.079 . S
C214 O211 1.250 . S
C214 O212 1.248 . S
C215 O216 1.264 1_655 S
C215 O223 1.249 . S
O216 C215 1.264 1_455 S
O217 Mg210 1.986 . S
O217 C221 1.246 . S
O218 Mg213 2.032 . S
O218 C221 1.259 . S
O219 Mg210 2.114 . S
O219 C222 1.252 . S
O220 Mg210 2.251 . S
O220 Mg213 2.079 . S
O220 C222 1.273 . S
C221 O217 1.246 . S
C221 O218 1.259 . S
C222 O219 1.252 . S
C222 O220 1.273 . S
O223 Mg210 2.010 . S
O223 C215 1.249 . S
Mg224 O225 2.028 . S
Mg224 O231 1.986 . S
Mg224 O233 2.114 . S
Mg224 O234 2.251 . S
Mg224 O237 2.010 . S
O225 Mg224 2.028 . S
O225 C228 1.250 . S
O226 Mg227 2.028 . S
O226 C228 1.248 . S
Mg227 O226 2.028 . S
Mg227 O232 2.032 . S
Mg227 O234 2.079 . S
C228 O225 1.250 . S
C228 O226 1.248 . S
C229 O230 1.264 . S
C229 O237 1.249 . S
O230 C229 1.264 . S
O231 Mg224 1.986 . S
O231 C235 1.246 . S
O232 Mg227 2.032 . S
O232 C235 1.259 . S
O233 Mg224 2.114 . S
O233 C236 1.252 . S
O234 Mg224 2.251 . S
O234 Mg227 2.079 . S
O234 C236 1.273 . S
C235 O231 1.246 . S
C235 O232 1.259 . S
C236 O233 1.252 . S
C236 O234 1.273 . S
O237 Mg224 2.010 . S
O237 C229 1.249 . S
Mg238 O239 2.028 . S
Mg238 O245 1.986 . S
Mg238 O247 2.114 . S
Mg238 O248 2.251 . S
Mg238 O251 2.010 . S
O239 Mg238 2.028 . S
O239 C242 1.250 . S
O240 Mg241 2.028 . S
O240 C242 1.248 . S
Mg241 O240 2.028 . S
Mg241 O246 2.032 . S
Mg241 O248 2.079 . S
C242 O239 1.250 . S
C242 O240 1.248 . S
C243 O244 1.264 1_545 S
C243 O251 1.249 . S
O244 C243 1.264 1_565 S
O245 Mg238 1.986 . S
O245 C249 1.246 . S
O246 Mg241 2.032 . S
O246 C249 1.259 . S
O247 Mg238 2.114 . S
O247 C250 1.252 . S
O248 Mg238 2.251 . S
O248 Mg241 2.079 . S
O248 C250 1.273 . S
C249 O245 1.246 . S
C249 O246 1.259 . S
C250 O247 1.252 . S
C250 O248 1.273 . S
O251 Mg238 2.010 . S
O251 C243 1.249 . S
Mg252 O253 2.028 . S
Mg252 O259 1.986 . S
Mg252 O261 2.114 . S
Mg252 O262 2.251 . S
Mg252 O265 2.010 . S
O253 Mg252 2.028 . S
O253 C256 1.250 . S
O254 Mg255 2.028 . S
O254 C256 1.248 . S
Mg255 O254 2.028 . S
Mg255 O260 2.032 . S
Mg255 O262 2.079 . S
C256 O253 1.250 . S
C256 O254 1.248 . S
C257 O258 1.264 1_545 S
C257 O265 1.249 . S
O258 C257 1.264 1_565 S
O259 Mg252 1.986 . S
O259 C263 1.246 . S
O260 Mg255 2.032 . S
O260 C263 1.259 . S
O261 Mg252 2.114 . S
O261 C264 1.252 . S
O262 Mg252 2.251 . S
O262 Mg255 2.079 . S
O262 C264 1.273 . S
C263 O259 1.246 . S
C263 O260 1.259 . S
C264 O261 1.252 . S
C264 O262 1.273 . S
O265 Mg252 2.010 . S
O265 C257 1.249 . S
Mg266 O267 2.028 . S
Mg266 O273 1.986 . S
Mg266 O275 2.114 . S
Mg266 O276 2.251 . S
Mg266 O279 2.010 . S
O267 Mg266 2.028 . S
O267 C270 1.250 . S
O268 Mg269 2.028 . S
O268 C270 1.248 . S
Mg269 O268 2.028 . S
Mg269 O274 2.032 . S
Mg269 O276 2.079 . S
C270 O267 1.250 . S
C270 O268 1.248 . S
C271 O272 1.264 1_655 S
C271 O279 1.249 . S
O272 C271 1.264 1_455 S
O273 Mg266 1.986 . S
O273 C277 1.246 . S
O274 Mg269 2.032 . S
O274 C277 1.259 . S
O275 Mg266 2.114 . S
O275 C278 1.252 . S
O276 Mg266 2.251 . S
O276 Mg269 2.079 . S
O276 C278 1.273 . S
C277 O273 1.246 . S
C277 O274 1.259 . S
C278 O275 1.252 . S
C278 O276 1.273 . S
O279 Mg266 2.010 . S
O279 C271 1.249 . S
Mg280 O281 2.028 . S
Mg280 O287 1.986 . S
Mg280 O289 2.114 . S
Mg280 O290 2.251 . S
Mg280 O293 2.010 . S
O281 Mg280 2.028 . S
O281 C284 1.250 . S
O282 Mg283 2.028 . S
O282 C284 1.248 . S
Mg283 O282 2.028 . S
Mg283 O288 2.032 . S
Mg283 O290 2.079 . S
C284 O281 1.250 . S
C284 O282 1.248 . S
C285 O286 1.264 . S
C285 O293 1.249 . S
O286 C285 1.264 . S
O287 Mg280 1.986 . S
O287 C291 1.246 . S
O288 Mg283 2.032 . S
O288 C291 1.259 . S
O289 Mg280 2.114 . S
O289 C292 1.252 . S
O290 Mg280 2.251 . S
O290 Mg283 2.079 . S
O290 C292 1.273 . S
C291 O287 1.246 . S
C291 O288 1.259 . S
C292 O289 1.252 . S
C292 O290 1.273 . S
O293 Mg280 2.010 . S
O293 C285 1.249 . S
Mg294 O295 2.028 . S
Mg294 O301 1.986 . S
Mg294 O303 2.151 . S
Mg294 O304 2.251 . S
Mg294 O307 2.010 . S
O295 Mg294 2.028 . S
O295 C298 1.250 . S
O296 Mg297 2.028 . S
O296 C298 1.248 . S
Mg297 O296 2.028 . S
Mg297 O302 2.032 . S
Mg297 O304 2.079 . S
C298 O295 1.250 . S
C298 O296 1.248 . S
C299 O300 1.264 . S
C299 O307 1.249 1_566 S
O300 C299 1.264 . S
O301 Mg294 1.986 . S
O301 C305 1.246 . S
O302 Mg297 2.032 . S
O302 C305 1.259 . S
O303 Mg294 2.151 . S
O303 C306 1.285 . S
O304 Mg294 2.251 . S
O304 Mg297 2.079 . S
O304 C306 1.273 . S
C305 O301 1.246 . S
C305 O302 1.259 . S
C306 O303 1.285 . S
C306 O304 1.273 . S
O307 Mg294 2.010 . S
O307 C299 1.249 1_544 S
Mg308 O309 2.028 . S
Mg308 O315 1.986 . S
Mg308 O317 2.151 . S
Mg308 O318 2.251 . S
Mg308 O321 2.010 . S
O309 Mg308 2.028 . S
O309 C312 1.250 . S
O310 Mg311 2.028 . S
O310 C312 1.248 . S
Mg311 O310 2.028 . S
Mg311 O316 2.032 . S
Mg311 O318 2.079 . S
C312 O309 1.250 . S
C312 O310 1.248 . S
C313 O314 1.264 . S
C313 O321 1.249 1_456 S
O314 C313 1.264 . S
O315 Mg308 1.986 . S
O315 C319 1.246 . S
O316 Mg311 2.032 . S
O316 C319 1.259 . S
O317 Mg308 2.151 . S
O317 C320 1.285 . S
O318 Mg308 2.251 . S
O318 Mg311 2.079 . S
O318 C320 1.273 . S
C319 O315 1.246 . S
C319 O316 1.259 . S
C320 O317 1.285 . S
C320 O318 1.273 . S
O321 Mg308 2.010 . S
O321 C313 1.249 1_654 S
Mg322 O323 2.028 . S
Mg322 O329 1.986 . S
Mg322 O331 2.151 . S
Mg322 O332 2.251 . S
Mg322 O335 2.010 . S
O323 Mg322 2.028 . S
O323 C326 1.250 . S
O324 Mg325 2.028 . S
O324 C326 1.248 . S
Mg325 O324 2.028 . S
Mg325 O330 2.032 . S
Mg325 O332 2.079 . S
C326 O323 1.250 . S
C326 O324 1.248 . S
C327 O328 1.264 . S
C327 O335 1.249 1_556 S
O328 C327 1.264 . S
O329 Mg322 1.986 . S
O329 C333 1.246 . S
O330 Mg325 2.032 . S
O330 C333 1.259 . S
O331 Mg322 2.151 . S
O331 C334 1.285 . S
O332 Mg322 2.251 . S
O332 Mg325 2.079 . S
O332 C334 1.273 . S
C333 O329 1.246 . S
C333 O330 1.259 . S
C334 O331 1.285 . S
C334 O332 1.273 . S
O335 Mg322 2.010 . S
O335 C327 1.249 1_554 S
Mg336 O337 2.028 . S
Mg336 O343 1.986 . S
Mg336 O345 2.114 . S
Mg336 O346 2.251 . S
Mg336 O349 2.010 . S
O337 Mg336 2.028 . S
O337 C340 1.250 . S
O338 Mg339 2.028 . S
O338 C340 1.248 . S
Mg339 O338 2.028 . S
Mg339 O344 2.032 . S
Mg339 O346 2.079 . S
C340 O337 1.250 . S
C340 O338 1.248 . S
C341 O342 1.264 1_565 S
C341 O349 1.249 . S
O342 C341 1.264 1_545 S
O343 Mg336 1.986 . S
O343 C347 1.246 . S
O344 Mg339 2.032 . S
O344 C347 1.259 . S
O345 Mg336 2.114 . S
O345 C348 1.252 . S
O346 Mg336 2.251 . S
O346 Mg339 2.079 . S
O346 C348 1.273 . S
C347 O343 1.246 . S
C347 O344 1.259 . S
C348 O345 1.252 . S
C348 O346 1.273 . S
O349 Mg336 2.010 . S
O349 C341 1.249 . S
Mg350 O351 2.028 . S
Mg350 O357 1.986 . S
Mg350 O359 2.114 . S
Mg350 O360 2.251 . S
Mg350 O363 2.010 . S
O351 Mg350 2.028 . S
O351 C354 1.250 . S
O352 Mg353 2.028 . S
O352 C354 1.248 . S
Mg353 O352 2.028 . S
Mg353 O358 2.032 . S
Mg353 O360 2.079 . S
C354 O351 1.250 . S
C354 O352 1.248 . S
C355 O356 1.264 1_455 S
C355 O363 1.249 . S
O356 C355 1.264 1_655 S
O357 Mg350 1.986 . S
O357 C361 1.246 . S
O358 Mg353 2.032 . S
O358 C361 1.259 . S
O359 Mg350 2.114 . S
O359 C362 1.252 . S
O360 Mg350 2.251 . S
O360 Mg353 2.079 . S
O360 C362 1.273 . S
C361 O357 1.246 . S
C361 O358 1.259 . S
C362 O359 1.252 . S
C362 O360 1.273 . S
O363 Mg350 2.010 . S
O363 C355 1.249 . S
Mg364 O365 2.028 . S
Mg364 O371 1.986 . S
Mg364 O373 2.114 . S
Mg364 O374 2.251 . S
Mg364 O377 2.010 . S
O365 Mg364 2.028 . S
O365 C368 1.250 . S
O366 Mg367 2.028 . S
O366 C368 1.248 . S
Mg367 O366 2.028 . S
Mg367 O372 2.032 . S
Mg367 O374 2.079 . S
C368 O365 1.250 . S
C368 O366 1.248 . S
C369 O370 1.264 . S
C369 O377 1.249 . S
O370 C369 1.264 . S
O371 Mg364 1.986 . S
O371 C375 1.246 . S
O372 Mg367 2.032 . S
O372 C375 1.259 . S
O373 Mg364 2.114 . S
O373 C376 1.252 . S
O374 Mg364 2.251 . S
O374 Mg367 2.079 . S
O374 C376 1.273 . S
C375 O371 1.246 . S
C375 O372 1.259 . S
C376 O373 1.252 . S
C376 O374 1.273 . S
O377 Mg364 2.010 . S
O377 C369 1.249 . S
Mg378 O379 2.028 . S
Mg378 O385 1.986 . S
Mg378 O387 2.151 . S
Mg378 O388 2.251 . S
Mg378 O391 2.010 . S
O379 Mg378 2.028 . S
O379 C382 1.250 . S
O380 Mg381 2.028 . S
O380 C382 1.248 . S
Mg381 O380 2.028 . S
Mg381 O386 2.032 . S
Mg381 O388 2.079 . S
C382 O379 1.250 . S
C382 O380 1.248 . S
C383 O384 1.264 . S
C383 O391 1.249 1_544 S
O384 C383 1.264 . S
O385 Mg378 1.986 . S
O385 C389 1.246 . S
O386 Mg381 2.032 . S
O386 C389 1.259 . S
O387 Mg378 2.151 . S
O387 C390 1.285 . S
O388 Mg378 2.251 . S
O388 Mg381 2.079 . S
O388 C390 1.273 . S
C389 O385 1.246 . S
C389 O386 1.259 . S
C390 O387 1.285 . S
C390 O388 1.273 . S
O391 Mg378 2.010 . S
O391 C383 1.249 1_566 S
Mg392 O393 2.028 . S
Mg392 O399 1.986 . S
Mg392 O401 2.151 . S
Mg392 O402 2.251 . S
Mg392 O405 2.010 . S
O393 Mg392 2.028 . S
O393 C396 1.250 . S
O394 Mg395 2.028 . S
O394 C396 1.248 . S
Mg395 O394 2.028 . S
Mg395 O400 2.032 . S
Mg395 O402 2.079 . S
C396 O393 1.250 . S
C396 O394 1.248 . S
C397 O398 1.264 . S
C397 O405 1.249 1_654 S
O398 C397 1.264 . S
O399 Mg392 1.986 . S
O399 C403 1.246 . S
O400 Mg395 2.032 . S
O400 C403 1.259 . S
O401 Mg392 2.151 . S
O401 C404 1.285 . S
O402 Mg392 2.251 . S
O402 Mg395 2.079 . S
O402 C404 1.273 . S
C403 O399 1.246 . S
C403 O400 1.259 . S
C404 O401 1.285 . S
C404 O402 1.273 . S
O405 Mg392 2.010 . S
O405 C397 1.249 1_456 S
Mg406 O407 2.028 . S
Mg406 O413 1.986 . S
Mg406 O415 2.151 . S
Mg406 O416 2.251 . S
Mg406 O419 2.010 . S
O407 Mg406 2.028 . S
O407 C410 1.250 . S
O408 Mg409 2.028 . S
O408 C410 1.248 . S
Mg409 O408 2.028 . S
Mg409 O414 2.032 . S
Mg409 O416 2.079 . S
C410 O407 1.250 . S
C410 O408 1.248 . S
C411 O412 1.264 . S
C411 O419 1.249 1_554 S
O412 C411 1.264 . S
O413 Mg406 1.986 . S
O413 C417 1.246 . S
O414 Mg409 2.032 . S
O414 C417 1.259 . S
O415 Mg406 2.151 . S
O415 C418 1.285 . S
O416 Mg406 2.251 . S
O416 Mg409 2.079 . S
O416 C418 1.273 . S
C417 O413 1.246 . S
C417 O414 1.259 . S
C418 O415 1.285 . S
C418 O416 1.273 . S
O419 Mg406 2.010 . S
O419 C411 1.249 1_556 S
Mg420 O421 2.028 . S
Mg420 O427 1.986 . S
Mg420 O429 2.114 . S
Mg420 O430 2.251 . S
Mg420 O433 2.010 . S
O421 Mg420 2.028 . S
O421 C424 1.250 . S
O422 Mg423 2.028 . S
O422 C424 1.248 . S
Mg423 O422 2.028 . S
Mg423 O428 2.032 . S
Mg423 O430 2.079 . S
C424 O421 1.250 . S
C424 O422 1.248 . S
C425 O426 1.264 . S
C425 O433 1.249 1_655 S
O426 C425 1.264 . S
O427 Mg420 1.986 . S
O427 C431 1.246 . S
O428 Mg423 2.032 . S
O428 C431 1.259 . S
O429 Mg420 2.114 . S
O429 C432 1.252 . S
O430 Mg420 2.251 . S
O430 Mg423 2.079 . S
O430 C432 1.273 . S
C431 O427 1.246 . S
C431 O428 1.259 . S
C432 O429 1.252 . S
C432 O430 1.273 . S
O433 Mg420 2.010 . S
O433 C425 1.249 1_455 S
Mg434 O435 2.028 . S
Mg434 O441 1.986 . S
Mg434 O443 2.114 . S
Mg434 O444 2.251 . S
Mg434 O447 2.010 . S
O435 Mg434 2.028 . S
O435 C438 1.250 . S
O436 Mg437 2.028 . S
O436 C438 1.248 . S
Mg437 O436 2.028 . S
Mg437 O442 2.032 . S
Mg437 O444 2.079 . S
C438 O435 1.250 . S
C438 O436 1.248 . S
C439 O440 1.264 . S
C439 O447 1.249 . S
O440 C439 1.264 . S
O441 Mg434 1.986 . S
O441 C445 1.246 . S
O442 Mg437 2.032 . S
O442 C445 1.259 . S
O443 Mg434 2.114 . S
O443 C446 1.252 . S
O444 Mg434 2.251 . S
O444 Mg437 2.079 . S
O444 C446 1.273 . S
C445 O441 1.246 . S
C445 O442 1.259 . S
C446 O443 1.252 . S
C446 O444 1.273 . S
O447 Mg434 2.010 . S
O447 C439 1.249 . S
Mg448 O449 2.028 . S
Mg448 O455 1.986 . S
Mg448 O457 2.114 . S
Mg448 O458 2.251 . S
Mg448 O461 2.010 . S
O449 Mg448 2.028 . S
O449 C452 1.250 . S
O450 Mg451 2.028 . S
O450 C452 1.248 . S
Mg451 O450 2.028 . S
Mg451 O456 2.032 . S
Mg451 O458 2.079 . S
C452 O449 1.250 . S
C452 O450 1.248 . S
C453 O454 1.264 . S
C453 O461 1.249 1_545 S
O454 C453 1.264 . S
O455 Mg448 1.986 . S
O455 C459 1.246 . S
O456 Mg451 2.032 . S
O456 C459 1.259 . S
O457 Mg448 2.114 . S
O457 C460 1.252 . S
O458 Mg448 2.251 . S
O458 Mg451 2.079 . S
O458 C460 1.273 . S
C459 O455 1.246 . S
C459 O456 1.259 . S
C460 O457 1.252 . S
C460 O458 1.273 . S
O461 Mg448 2.010 . S
O461 C453 1.249 1_565 S
Mg462 O463 2.028 . S
Mg462 O469 1.986 . S
Mg462 O471 2.114 . S
Mg462 O472 2.251 . S
Mg462 O475 2.010 . S
O463 Mg462 2.028 . S
O463 C466 1.250 . S
O464 Mg465 2.028 . S
O464 C466 1.248 . S
Mg465 O464 2.028 . S
Mg465 O470 2.032 . S
Mg465 O472 2.079 . S
C466 O463 1.250 . S
C466 O464 1.248 . S
C467 O468 1.264 1_455 S
C467 O475 1.249 . S
O468 C467 1.264 1_655 S
O469 Mg462 1.986 . S
O469 C473 1.246 . S
O470 Mg465 2.032 . S
O470 C473 1.259 . S
O471 Mg462 2.114 . S
O471 C474 1.252 . S
O472 Mg462 2.251 . S
O472 Mg465 2.079 . S
O472 C474 1.273 . S
C473 O469 1.246 . S
C473 O470 1.259 . S
C474 O471 1.252 . S
C474 O472 1.273 . S
O475 Mg462 2.010 . S
O475 C467 1.249 . S
Mg476 O477 2.028 . S
Mg476 O483 1.986 . S
Mg476 O485 2.114 . S
Mg476 O486 2.251 . S
Mg476 O489 2.010 . S
O477 Mg476 2.028 . S
O477 C480 1.250 . S
O478 Mg479 2.028 . S
O478 C480 1.248 . S
Mg479 O478 2.028 . S
Mg479 O484 2.032 . S
Mg479 O486 2.079 . S
C480 O477 1.250 . S
C480 O478 1.248 . S
C481 O482 1.264 . S
C481 O489 1.249 . S
O482 C481 1.264 . S
O483 Mg476 1.986 . S
O483 C487 1.246 . S
O484 Mg479 2.032 . S
O484 C487 1.259 . S
O485 Mg476 2.114 . S
O485 C488 1.252 . S
O486 Mg476 2.251 . S
O486 Mg479 2.079 . S
O486 C488 1.273 . S
C487 O483 1.246 . S
C487 O484 1.259 . S
C488 O485 1.252 . S
C488 O486 1.273 . S
O489 Mg476 2.010 . S
O489 C481 1.249 . S
Mg490 O491 2.028 . S
Mg490 O497 1.986 . S
Mg490 O499 2.114 . S
Mg490 O500 2.251 . S
Mg490 O503 2.010 . S
O491 Mg490 2.028 . S
O491 C494 1.250 . S
O492 Mg493 2.028 . S
O492 C494 1.248 . S
Mg493 O492 2.028 . S
Mg493 O498 2.032 . S
Mg493 O500 2.079 . S
C494 O491 1.250 . S
C494 O492 1.248 . S
C495 O496 1.264 1_565 S
C495 O503 1.249 . S
O496 C495 1.264 1_545 S
O497 Mg490 1.986 . S
O497 C501 1.246 . S
O498 Mg493 2.032 . S
O498 C501 1.259 . S
O499 Mg490 2.114 . S
O499 C502 1.252 . S
O500 Mg490 2.251 . S
O500 Mg493 2.079 . S
O500 C502 1.273 . S
C501 O497 1.246 . S
C501 O498 1.259 . S
C502 O499 1.252 . S
C502 O500 1.273 . S
O503 Mg490 2.010 . S
O503 C495 1.249 . S
C12 C18 2.133 1_455 S
C26 C32 2.134 . S
C4 C40 2.134 1_545 S
C54 C74 2.133 1_545 S
C68 C46 2.134 1_655 S
C60 C82 2.134 . S
C96 C102 2.133 1_655 S
C116 C110 2.134 . S
C88 C124 2.134 1_565 S
C158 C138 2.133 1_545 S
C152 C130 2.134 1_455 S
C166 C144 2.134 . S
C186 C180 2.133 . S
C194 C200 2.134 . S
C208 C172 2.134 . S
C222 C242 2.133 . S
C236 C214 2.134 . S
C250 C228 2.134 . S
C270 C264 2.134 . S
C278 C284 2.134 . S
C256 C292 2.134 . S
C326 C306 2.133 . S
C320 C298 2.134 . S
C312 C334 2.133 . S
C354 C348 2.134 . S
C362 C368 2.134 . S
C376 C340 2.134 . S
C410 C390 2.133 . S
C404 C382 2.134 . S
C396 C418 2.133 . S
C432 C438 2.133 . S
C446 C452 2.134 . S
C460 C424 2.134 . S
C494 C474 2.133 . S
C466 C488 2.134 . S
C502 C480 2.134 . S
C53 C11 1.442 . S
C25 C67 1.443 1_565 S
C81 C39 1.443 1_655 S
C137 C95 1.442 . S
C109 C151 1.443 1_545 S
C165 C123 1.443 1_455 S
C179 C221 1.443 . S
C193 C235 1.443 . S
C207 C249 1.443 . S
C305 C263 1.443 . S
C319 C277 1.443 . S
C291 C333 1.443 . S
C389 C347 1.443 . S
C403 C361 1.443 . S
C375 C417 1.443 . S
C431 C473 1.443 . S
C487 C445 1.443 . S
C459 C501 1.443 . S
C5 C257 3.972 . S
C19 C271 3.973 . S
C33 C285 3.973 . S
C467 C47 3.971 . S
C481 C61 3.973 . S
C75 C495 3.973 . S
C89 C341 3.972 . S
C355 C103 3.973 . S
C369 C117 3.973 . S
C215 C131 3.971 . S
C229 C145 3.973 . S
C243 C159 3.973 . S
C425 C173 3.972 1_655 S
C187 C439 3.973 . S
C201 C453 3.973 1_565 S
C299 C383 3.972 1_566 S
C313 C397 3.973 1_456 S
C411 C327 3.972 1_554 S
