# Generated by pormake.
# Topology sml, (6)-cn, num edge types: 1
# Building blocks:
#     Node 0, Type 0, BuildingBlock: BETDEL_clean_sbu_0, # of connection points: 6
#     Node 1, Type 0, BuildingBlock: BETDEL_clean_sbu_0, # of connection points: 6
#     Node 2, Type 0, BuildingBlock: BETDEL_clean_sbu_0, # of connection points: 6
#     Node 3, Type 0, BuildingBlock: BETDEL_clean_sbu_0, # of connection points: 6
#     Node 4, Type 0, BuildingBlock: BETDEL_clean_sbu_0, # of connection points: 6
#     Node 5, Type 0, BuildingBlock: BETDEL_clean_sbu_0, # of connection points: 6
#     Edge 6, Type (0, 0), BuildingBlock: XUDNAN_clean_linker_2, # of connection points: 2
#     Edge 7, Type (0, 0), BuildingBlock: XUDNAN_clean_linker_2, # of connection points: 2
#     Edge 8, Type (0, 0), BuildingBlock: XUDNAN_clean_linker_2, # of connection points: 2
#     Edge 9, Type (0, 0), BuildingBlock: XUDNAN_clean_linker_2, # of connection points: 2
#     Edge 10, Type (0, 0), BuildingBlock: XUDNAN_clean_linker_2, # of connection points: 2
#     Edge 11, Type (0, 0), BuildingBlock: XUDNAN_clean_linker_2, # of connection points: 2
#     Edge 12, Type (0, 0), BuildingBlock: XUDNAN_clean_linker_2, # of connection points: 2
#     Edge 13, Type (0, 0), BuildingBlock: XUDNAN_clean_linker_2, # of connection points: 2
#     Edge 14, Type (0, 0), BuildingBlock: XUDNAN_clean_linker_2, # of connection points: 2
#     Edge 15, Type (0, 0), BuildingBlock: XUDNAN_clean_linker_2, # of connection points: 2
#     Edge 16, Type (0, 0), BuildingBlock: XUDNAN_clean_linker_2, # of connection points: 2
#     Edge 17, Type (0, 0), BuildingBlock: XUDNAN_clean_linker_2, # of connection points: 2
#     Edge 18, Type (0, 0), BuildingBlock: XUDNAN_clean_linker_2, # of connection points: 2
#     Edge 19, Type (0, 0), BuildingBlock: XUDNAN_clean_linker_2, # of connection points: 2
#     Edge 20, Type (0, 0), BuildingBlock: XUDNAN_clean_linker_2, # of connection points: 2
#     Edge 21, Type (0, 0), BuildingBlock: XUDNAN_clean_linker_2, # of connection points: 2
#     Edge 22, Type (0, 0), BuildingBlock: XUDNAN_clean_linker_2, # of connection points: 2
#     Edge 23, Type (0, 0), BuildingBlock: XUDNAN_clean_linker_2, # of connection points: 2
# Relax obj value: 0.138
# Max RMSD: 0.175
# Mean RMSD: 0.175
data_MOF--net-sml--node1-BETDEL_clean_sbu_0--edge1-XUDNAN_clean_linker_2
_symmetry_space_group_name_H-M    P1
_symmetry_Int_Tables_number       1
_symmetry_cell_setting            triclinic
loop_
_symmetry_equiv_pos_as_xyz
'x, y, z'
_cell_length_a     35.604787
_cell_length_b     35.696689
_cell_length_c     18.063894
_cell_angle_alpha  89.969369
_cell_angle_beta   89.97945
_cell_angle_gamma 119.99475
loop_
_atom_site_label
_atom_site_type_symbol
_atom_site_fract_x
_atom_site_fract_y
_atom_site_fract_z
_atom_type_partial_charge
Dy0 Dy 0.16948 0.41906 0.05414 0.0
C1 C 0.18509 0.40746 0.36344 0.0
C2 C 0.16374 0.42067 0.90362 0.0
Dy3 Dy 0.20076 0.41739 0.21493 0.0
O4 O 0.13355 0.41586 0.94961 0.0
O5 O 0.19715 0.42511 0.93985 0.0
O6 O 0.10023 0.3852 0.09492 0.0
O7 O 0.14621 0.3737 0.14626 0.0
C8 C 0.10774 0.3663 0.14972 0.0
C9 C 0.26354 0.47034 0.12234 0.0
O10 O 0.20734 0.36245 0.16822 0.0
O11 O 0.1974 0.37513 0.04485 0.0
O12 O 0.22219 0.41689 0.3334 0.0
O13 O 0.15778 0.4034 0.31258 0.0
O14 O 0.27155 0.45526 0.18254 0.0
O15 O 0.2246 0.46154 0.12229 0.0
O16 O 0.17513 0.48096 0.09593 0.0
O17 O 0.17907 0.4671 0.22064 0.0
C18 C 0.20796 0.35527 0.09601 0.0
C19 C 0.17368 0.48956 0.16714 0.0
Dy20 Dy 0.82388 0.24726 0.6363 0.0
C21 C 0.78131 0.20888 0.32093 0.0
C22 C 0.81943 0.25706 0.7849 0.0
Dy23 Dy 0.79157 0.21196 0.47035 0.0
O24 O 0.80283 0.27069 0.73481 0.0
O25 O 0.83938 0.23913 0.75364 0.0
O26 O 0.89616 0.27393 0.61427 0.0
O27 O 0.85014 0.24332 0.53289 0.0
C28 C 0.89 0.26177 0.54516 0.0
C29 C 0.73018 0.18926 0.57415 0.0
O30 O 0.80026 0.15871 0.51618 0.0
O31 O 0.79576 0.17503 0.64015 0.0
O32 O 0.75714 0.2142 0.36877 0.0
O33 O 0.81046 0.20326 0.35492 0.0
O34 O 0.72538 0.16555 0.51623 0.0
O35 O 0.76526 0.22474 0.56967 0.0
O36 O 0.82872 0.30713 0.58727 0.0
O37 O 0.81625 0.28332 0.46414 0.0
C38 C 0.79483 0.14841 0.58772 0.0
C39 C 0.82606 0.31356 0.51535 0.0
Dy40 Dy 0.5839 0.75231 0.7292 0.0
C41 C 0.58471 0.79198 0.03998 0.0
C42 C 0.57767 0.75948 0.5803 0.0
Dy43 Dy 0.58272 0.78556 0.88945 0.0
O44 O 0.58189 0.72869 0.61144 0.0
O45 O 0.57722 0.78522 0.63022 0.0
O46 O 0.61909 0.718 0.7689 0.0
O47 O 0.6266 0.77322 0.8242 0.0
C48 C 0.63458 0.74261 0.82739 0.0
C49 C 0.53102 0.79387 0.79078 0.0
O50 O 0.64115 0.84556 0.84631 0.0
O51 O 0.63342 0.823 0.72333 0.0
O52 O 0.57786 0.81635 0.99492 0.0
O53 O 0.59093 0.7645 0.00281 0.0
O54 O 0.54633 0.81855 0.84873 0.0
O55 O 0.5399 0.76402 0.79478 0.0
O56 O 0.52275 0.69541 0.77231 0.0
O57 O 0.53618 0.71358 0.89727 0.0
C58 C 0.6519 0.85312 0.77514 0.0
C59 C 0.5141 0.6856 0.84372 0.0
Dy60 Dy 0.75777 0.58077 0.31126 0.0
C61 C 0.79689 0.5879 0.99439 0.0
C62 C 0.7488 0.56827 0.45996 0.0
Dy63 Dy 0.79409 0.58617 0.14473 0.0
O64 O 0.71691 0.55973 0.41491 0.0
O65 O 0.7849 0.58326 0.42358 0.0
O66 O 0.73159 0.62682 0.2913 0.0
O67 O 0.76205 0.61215 0.209 0.0
C68 C 0.74342 0.63325 0.22211 0.0
C69 C 0.8169 0.54654 0.24582 0.0
O70 O 0.84998 0.64609 0.19278 0.0
O71 O 0.82806 0.63143 0.31714 0.0
O72 O 0.79536 0.55725 0.03536 0.0
O73 O 0.79789 0.61819 0.03585 0.0
O74 O 0.83877 0.5629 0.18494 0.0
O75 O 0.78149 0.54655 0.24315 0.0
O76 O 0.70617 0.51799 0.26354 0.0
O77 O 0.72345 0.53561 0.13872 0.0
C78 C 0.85699 0.65411 0.26501 0.0
C79 C 0.69713 0.51037 0.19182 0.0
Dy80 Dy 0.2552 0.83304 0.38287 0.0
C81 C 0.22999 0.7935 0.6991 0.0
C82 C 0.26559 0.83546 0.23393 0.0
Dy83 Dy 0.22674 0.79892 0.55008 0.0
O84 O 0.29677 0.84674 0.28167 0.0
O85 O 0.22896 0.82293 0.26753 0.0
O86 O 0.27612 0.90388 0.4067 0.0
O87 O 0.25178 0.85767 0.48826 0.0
C88 C 0.2666 0.89705 0.47677 0.0
C89 C 0.20751 0.73793 0.4466 0.0
O90 O 0.1683 0.80089 0.51027 0.0
O91 O 0.18234 0.80023 0.38388 0.0
O92 O 0.24419 0.77599 0.65209 0.0
O93 O 0.21203 0.81267 0.66479 0.0
O94 O 0.18688 0.72995 0.50944 0.0
O95 O 0.23969 0.77562 0.44767 0.0
O96 O 0.31149 0.82701 0.42436 0.0
O97 O 0.29934 0.83212 0.54949 0.0
C98 C 0.15607 0.79594 0.43966 0.0
C99 C 0.32418 0.83243 0.49465 0.0
Dy100 Dy 0.42415 0.16914 0.97607 0.0
C101 C 0.42075 0.18538 0.66614 0.0
C102 C 0.42264 0.16203 0.12621 0.0
Dy103 Dy 0.42929 0.20074 0.8141 0.0
O104 O 0.41462 0.13098 0.0802 0.0
O105 O 0.43183 0.19706 0.0903 0.0
O106 O 0.38685 0.09981 0.93605 0.0
O107 O 0.38123 0.1482 0.88098 0.0
C108 C 0.37092 0.10901 0.87884 0.0
C109 C 0.48198 0.26212 0.9084 0.0
O110 O 0.37341 0.2074 0.8542 0.0
O111 O 0.38446 0.20259 0.98018 0.0
O112 O 0.42997 0.22237 0.69582 0.0
O113 O 0.41671 0.15805 0.71695 0.0
O114 O 0.46886 0.27103 0.84676 0.0
O115 O 0.47137 0.22275 0.90973 0.0
O116 O 0.48383 0.16744 0.93979 0.0
O117 O 0.47658 0.17623 0.81376 0.0
C118 C 0.36582 0.21183 0.92482 0.0
C119 C 0.4947 0.16691 0.86957 0.0
H120 H 0.36017 0.25071 0.05278 0.0
H121 H 0.30118 0.20662 0.83658 0.0
H122 H 0.24983 0.23213 0.86404 0.0
H123 H 0.26099 0.22608 0.15449 0.0
H124 H 0.28768 0.27432 0.21024 0.0
H125 H 0.31765 0.24932 0.17695 0.0
H126 H 0.37389 0.32149 0.11578 0.0
H127 H 0.34428 0.34676 0.14919 0.0
H128 H 0.35565 0.34779 0.05173 0.0
H129 H 0.20758 0.26494 0.91085 0.0
H130 H 0.17969 0.30805 0.97031 0.0
H131 H 0.26614 0.33345 0.15666 0.0
C132 C 0.33599 0.24586 0.01172 0.0
C133 C 0.33444 0.22632 0.94265 0.0
C134 C 0.30299 0.22144 0.88976 0.0
C135 C 0.27351 0.23559 0.90506 0.0
C136 C 0.27599 0.25484 0.97337 0.0
C137 C 0.30657 0.26035 0.02575 0.0
C138 C 0.30414 0.28503 0.09247 0.0
C139 C 0.29188 0.257 0.1627 0.0
C140 C 0.34703 0.3278 0.10286 0.0
C141 C 0.26776 0.29299 0.06886 0.0
C142 C 0.25179 0.27473 0.00028 0.0
C143 C 0.21959 0.27914 0.96474 0.0
C144 C 0.20399 0.30378 0.99906 0.0
C145 C 0.22057 0.324 0.06832 0.0
C146 C 0.25226 0.31771 0.10445 0.0
H147 H 0.02712 0.35669 0.17377 0.0
H148 H 0.11795 0.32036 0.26092 0.0
H149 H 0.07095 0.28777 0.37026 0.0
H150 H 0.99684 0.38361 0.34184 0.0
H151 H 0.94015 0.36034 0.31959 0.0
H152 H 0.97996 0.37953 0.24668 0.0
H153 H 0.94007 0.30435 0.18397 0.0
H154 H 0.89972 0.28509 0.25618 0.0
H155 H 0.92867 0.25682 0.23647 0.0
H156 H 0.01954 0.26873 0.47765 0.0
H157 H 0.9603 0.25262 0.56653 0.0
H158 H 0.89764 0.29206 0.40354 0.0
C159 C 0.03673 0.34128 0.21538 0.0
C160 C 0.07673 0.342 0.20995 0.0
C161 C 0.08787 0.32093 0.26481 0.0
C162 C 0.06136 0.30228 0.32703 0.0
C163 C 0.02298 0.30358 0.33226 0.0
C164 C 0.00999 0.32143 0.27698 0.0
C165 C 0.96681 0.31799 0.29599 0.0
C166 C 0.97123 0.36305 0.30135 0.0
C167 C 0.93172 0.28933 0.23983 0.0
C168 C 0.95814 0.29636 0.37124 0.0
C169 C 0.99132 0.28896 0.39158 0.0
C170 C 0.99276 0.27318 0.46154 0.0
C171 C 0.95918 0.2643 0.51167 0.0
C172 C 0.92422 0.27021 0.49093 0.0
C173 C 0.92351 0.28614 0.41971 0.0
H174 H 0.75164 0.10545 0.71304 0.0
H175 H 0.81036 0.09071 0.51269 0.0
H176 H 0.78767 0.01549 0.54891 0.0
H177 H 0.77557 0.03748 0.83541 0.0
H178 H 0.72397 0.01494 0.88195 0.0
H179 H 0.74905 0.06901 0.84474 0.0
H180 H 0.67992 0.04848 0.76797 0.0
H181 H 0.65458 0.99454 0.80524 0.0
H182 H 0.65904 0.00268 0.70643 0.0
H183 H 0.75416 0.94109 0.60136 0.0
H184 H 0.70787 0.87067 0.66138 0.0
H185 H 0.66966 0.93278 0.82773 0.0
C186 C 0.76062 0.08675 0.67751 0.0
C187 C 0.78332 0.1041 0.61041 0.0
C188 C 0.79321 0.07813 0.56443 0.0
C189 C 0.78068 0.0355 0.58481 0.0
C190 C 0.75814 0.01934 0.65113 0.0
C191 C 0.74795 0.04406 0.69662 0.0
C192 C 0.72 0.01777 0.76136 0.0
C193 C 0.74357 0.03589 0.83524 0.0
C194 C 0.67578 0.01575 0.76013 0.0
C195 C 0.71539 0.97405 0.74457 0.0
C196 C 0.73816 0.97596 0.6812 0.0
C197 C 0.73667 0.93931 0.65148 0.0
C198 C 0.71027 0.89946 0.68602 0.0
C199 C 0.68558 0.89639 0.74963 0.0
C200 C 0.68907 0.93438 0.78037 0.0
H201 H 0.65562 0.67835 0.84448 0.0
H202 H 0.66736 0.7929 0.94977 0.0
H203 H 0.69779 0.77813 0.06126 0.0
H204 H 0.62927 0.6098 0.99844 0.0
H205 H 0.66394 0.58819 0.97505 0.0
H206 H 0.64296 0.60749 0.90308 0.0
H207 H 0.72057 0.65751 0.85748 0.0
H208 H 0.7442 0.64241 0.93175 0.0
H209 H 0.76003 0.6982 0.91831 0.0
H210 H 0.71865 0.74629 0.166 0.0
H211 H 0.73902 0.70528 0.25158 0.0
H212 H 0.72363 0.61689 0.07441 0.0
C213 C 0.66489 0.70041 0.89088 0.0
C214 C 0.65751 0.73583 0.88978 0.0
C215 C 0.67114 0.76463 0.95064 0.0
C216 C 0.68881 0.75674 0.01399 0.0
C217 C 0.69445 0.72086 0.01443 0.0
C218 C 0.68408 0.69383 0.95381 0.0
C219 C 0.69559 0.65882 0.96783 0.0
C220 C 0.65555 0.61339 0.96069 0.0
C221 C 0.73221 0.66454 0.91565 0.0
C222 C 0.71143 0.66884 0.04727 0.0
C223 C 0.71054 0.70486 0.07292 0.0
C224 C 0.72056 0.7187 0.14609 0.0
C225 C 0.73193 0.69519 0.1943 0.0
C226 C 0.73389 0.65875 0.16893 0.0
C227 C 0.7238 0.64557 0.09436 0.0
H228 H 0.11188 0.75894 0.31125 0.0
H229 H 0.09699 0.80281 0.52766 0.0
H230 H 0.02054 0.77921 0.49845 0.0
H231 H 0.03991 0.78648 0.20818 0.0
H232 H 0.0182 0.73848 0.15177 0.0
H233 H 0.07291 0.76273 0.18637 0.0
H234 H 0.05543 0.68997 0.24698 0.0
H235 H 1.00089 0.66546 0.21212 0.0
H236 H 0.01018 0.66376 0.30983 0.0
H237 H 0.94506 0.74657 0.44987 0.0
H238 H 0.87418 0.70242 0.38953 0.0
H239 H 0.93708 0.6786 0.20445 0.0
C240 C 0.0928 0.76433 0.35208 0.0
C241 C 0.11059 0.78315 0.42161 0.0
C242 C 0.08416 0.78861 0.47405 0.0
C243 C 0.04077 0.77554 0.45773 0.0
C244 C 0.02425 0.75698 0.38882 0.0
C245 C 0.04934 0.75111 0.33696 0.0
C246 C 0.02272 0.72702 0.26961 0.0
C247 C 0.03944 0.75539 0.19985 0.0
C248 C 0.02228 0.68401 0.25906 0.0
C249 C 0.97846 0.71954 0.29223 0.0
C250 C 0.98032 0.73764 0.36083 0.0
C251 C 0.9433 0.73274 0.39581 0.0
C252 C 0.90318 0.70761 0.36101 0.0
C253 C 0.90018 0.68751 0.29191 0.0
C254 C 0.93851 0.69454 0.25624 0.0
H255 H 0.35474 0.02581 0.85704 0.0
H256 H 0.33149 0.12431 0.76321 0.0
H257 H 0.29883 0.07885 0.65279 0.0
H258 H 0.38264 0.99312 0.69368 0.0
H259 H 0.35464 0.93605 0.71428 0.0
H260 H 0.37384 0.97485 0.7885 0.0
H261 H 0.29631 0.93903 0.84342 0.0
H262 H 0.27699 0.9 0.76942 0.0
H263 H 0.25193 0.93232 0.78608 0.0
H264 H 0.27932 0.02846 0.54568 0.0
H265 H 0.26293 0.97022 0.45528 0.0
H266 H 0.29021 0.89977 0.62213 0.0
C267 C 0.34202 0.03737 0.81378 0.0
C268 C 0.34645 0.07898 0.81782 0.0
C269 C 0.32907 0.09285 0.76061 0.0
C270 C 0.31035 0.06722 0.69777 0.0
C271 C 0.30793 0.0271 0.69403 0.0
C272 C 0.32217 0.01159 0.75125 0.0
C273 C 0.31577 0.96725 0.7326 0.0
C274 C 0.35932 0.96789 0.73223 0.0
C275 C 0.28331 0.93262 0.78605 0.0
C276 C 0.29708 0.96106 0.65511 0.0
C277 C 0.29326 0.99623 0.63383 0.0
C278 C 0.28091 1.00015 0.56232 0.0
C279 C 0.27187 0.96711 0.51131 0.0
C280 C 0.27444 0.93034 0.53243 0.0
C281 C 0.28683 0.92708 0.60541 0.0
H282 H 0.22635 0.43466 0.80147 0.0
H283 H 0.09126 0.39958 0.82322 0.0
H284 H 0.08232 0.3903 0.68768 0.0
H285 H 0.24655 0.49574 0.63134 0.0
H286 H 0.28206 0.47816 0.59362 0.0
H287 H 0.27783 0.48191 0.6924 0.0
H288 H 0.25752 0.4017 0.70604 0.0
H289 H 0.2613 0.39757 0.60722 0.0
H290 H 0.21203 0.36061 0.65506 0.0
H291 H 0.08721 0.3832 0.55224 0.0
H292 H 0.10658 0.38385 0.42158 0.0
H293 H 0.23934 0.42483 0.48438 0.0
C294 C 0.19497 0.4252 0.77747 0.0
C295 C 0.15938 0.41773 0.82247 0.0
C296 C 0.11887 0.40552 0.7895 0.0
C297 C 0.11347 0.40002 0.71273 0.0
C298 C 0.149 0.40711 0.66991 0.0
C299 C 0.1891 0.41985 0.70075 0.0
C300 C 0.22207 0.42607 0.64164 0.0
C301 C 0.25932 0.47328 0.63964 0.0
C302 C 0.23923 0.3946 0.6532 0.0
C303 C 0.19414 0.41473 0.57273 0.0
C304 C 0.15206 0.40365 0.59078 0.0
C305 C 0.12005 0.39195 0.53735 0.0
C306 C 0.13143 0.39233 0.46323 0.0
C307 C 0.17448 0.40439 0.44293 0.0
C308 C 0.20618 0.41531 0.49848 0.0
H309 H 0.82506 0.19463 0.20832 0.0
H310 H 0.73616 0.24175 0.25372 0.0
H311 H 0.73844 0.26149 0.12249 0.0
H312 H 0.89064 0.27416 0.07407 0.0
H313 H 0.89661 0.23716 0.01407 0.0
H314 H 0.88831 0.22619 0.11178 0.0
H315 H 0.82125 0.15127 0.08539 0.0
H316 H 0.82969 0.1617 0.98746 0.0
H317 H 0.77812 0.1478 0.02824 0.0
H318 H 0.75247 0.27915 0.98822 0.0
H319 H 0.77207 0.28691 0.85559 0.0
H320 H 0.84865 0.2251 0.89447 0.0
C321 C 0.80579 0.20867 0.19025 0.0
C322 C 0.78032 0.21655 0.24094 0.0
C323 C 0.75562 0.23513 0.21561 0.0
C324 C 0.75688 0.2467 0.14127 0.0
C325 C 0.78259 0.239 0.09271 0.0
C326 C 0.80609 0.21982 0.11567 0.0
C327 C 0.83003 0.21406 0.05123 0.0
C328 C 0.87933 0.23943 0.0636 0.0
C329 C 0.81379 0.16584 0.03726 0.0
C330 C 0.81684 0.23364 0.98908 0.0
C331 C 0.78966 0.24805 0.01438 0.0
C332 C 0.77351 0.26774 0.96758 0.0
C333 C 0.78483 0.27208 0.89248 0.0
C334 C 0.8116 0.25644 0.86504 0.0
C335 C 0.82815 0.23742 0.91415 0.0
H336 H 0.59267 0.72092 0.45859 0.0
H337 H 0.55444 0.81436 0.52296 0.0
H338 H 0.55223 0.83224 0.39256 0.0
H339 H 0.66219 0.78294 0.30899 0.0
H340 H 0.64691 0.73751 0.24828 0.0
H341 H 0.64402 0.72991 0.34714 0.0
H342 H 0.56292 0.67117 0.33659 0.0
H343 H 0.56576 0.67842 0.23761 0.0
H344 H 0.52579 0.68389 0.29037 0.0
H345 H 0.55702 0.84318 0.25789 0.0
H346 H 0.56464 0.84324 0.12211 0.0
H347 H 0.59914 0.7429 0.14056 0.0
C348 C 0.58342 0.74473 0.44482 0.0
C349 C 0.57386 0.76634 0.50081 0.0
C350 C 0.56212 0.79754 0.481 0.0
C351 C 0.56074 0.80799 0.40703 0.0
C352 C 0.57113 0.78695 0.35313 0.0
C353 C 0.58193 0.75575 0.37053 0.0
C354 C 0.59203 0.73867 0.30081 0.0
C355 C 0.63909 0.74782 0.30137 0.0
C356 C 0.55969 0.69016 0.29076 0.0
C357 C 0.58557 0.76551 0.2423 0.0
C358 C 0.57356 0.79312 0.27405 0.0
C359 C 0.5662 0.82157 0.23208 0.0
C360 C 0.57073 0.8215 0.15515 0.0
C361 C 0.5824 0.79311 0.1212 0.0
C362 C 0.59012 0.76491 0.16535 0.0
H363 H 0.84474 0.60232 0.86812 0.0
H364 H 0.71452 0.5561 0.9501 0.0
H365 H 0.68659 0.54331 0.82163 0.0
H366 H 0.83749 0.65801 0.70948 0.0
H367 H 0.86867 0.64312 0.65023 0.0
H368 H 0.87794 0.64754 0.7486 0.0
H369 H 0.8638 0.5689 0.75212 0.0
H370 H 0.85433 0.56421 0.6537 0.0
H371 H 0.81366 0.52565 0.71565 0.0
H372 H 0.67358 0.538 0.68403 0.0
H373 H 0.6765 0.54026 0.54685 0.0
H374 H 0.81498 0.58836 0.55555 0.0
C375 C 0.81043 0.58949 0.85849 0.0
C376 C 0.78162 0.58066 0.91783 0.0
C377 C 0.73686 0.56342 0.90437 0.0
C378 C 0.72078 0.55597 0.83191 0.0
C379 C 0.74999 0.5654 0.77395 0.0
C380 C 0.79383 0.58158 0.78638 0.0
C381 C 0.81828 0.58929 0.71432 0.0
C382 C 0.85261 0.63734 0.70514 0.0
C383 C 0.83872 0.56027 0.70864 0.0
C384 C 0.78154 0.57562 0.65961 0.0
C385 C 0.74236 0.56175 0.69496 0.0
C386 C 0.70402 0.54854 0.65564 0.0
C387 C 0.70593 0.54989 0.57798 0.0
C388 C 0.74587 0.56437 0.54106 0.0
C389 C 0.78394 0.57697 0.5825 0.0
H390 H 0.18731 0.80586 0.81434 0.0
H391 H 0.29979 0.79442 0.75958 0.0
H392 H 0.3237 0.80859 0.88979 0.0
H393 H 0.23776 0.88959 0.95218 0.0
H394 H 0.19125 0.86655 0.01271 0.0
H395 H 0.18402 0.85767 0.91429 0.0
H396 H 0.14173 0.77467 0.93601 0.0
H397 H 0.14868 0.7834 0.03442 0.0
H398 H 0.16656 0.75007 0.98914 0.0
H399 H 0.33621 0.82542 0.02465 0.0
H400 H 0.332 0.83536 0.15938 0.0
H401 H 0.20873 0.83029 0.12838 0.0
C402 C 0.21682 0.80622 0.83018 0.0
C403 C 0.24172 0.79898 0.77765 0.0
C404 C 0.2801 0.79947 0.79966 0.0
C405 C 0.29413 0.80784 0.8732 0.0
C406 C 0.26896 0.81493 0.92396 0.0
C407 C 0.23075 0.81348 0.90384 0.0
C408 C 0.20855 0.81972 0.97023 0.0
C409 C 0.20522 0.86084 0.96183 0.0
C410 C 0.16374 0.77958 0.98321 0.0
C411 C 0.24021 0.82481 0.03062 0.0
C412 C 0.2752 0.8227 0.00253 0.0
C413 C 0.30891 0.82695 0.0475 0.0
C414 C 0.30636 0.83272 0.12367 0.0
C415 C 0.27003 0.8334 0.15362 0.0
C416 C 0.23679 0.82974 0.10652 0.0
H417 H 0.43807 0.23953 0.54589 0.0
H418 H 0.39292 0.10617 0.60833 0.0
H419 H 0.38738 0.08586 0.47722 0.0
H420 H 0.37005 0.21495 0.38085 0.0
H421 H 0.4114 0.25918 0.32789 0.0
H422 H 0.40999 0.26334 0.42714 0.0
H423 H 0.48953 0.27987 0.43468 0.0
H424 H 0.49108 0.27548 0.33554 0.0
H425 H 0.50386 0.24254 0.39424 0.0
H426 H 0.38985 0.07997 0.34138 0.0
H427 H 0.39732 0.08857 0.20562 0.0
H428 H 0.44077 0.22531 0.22858 0.0
C429 C 0.42666 0.20608 0.53162 0.0
C430 C 0.41586 0.17441 0.58698 0.0
C431 C 0.40134 0.13095 0.56665 0.0
C432 C 0.3981 0.11904 0.49234 0.0
C433 C 0.40961 0.15099 0.43896 0.0
C434 C 0.42339 0.19357 0.45724 0.0
C435 C 0.43453 0.22144 0.38838 0.0
C436 C 0.4047 0.24086 0.38062 0.0
C437 C 0.48261 0.25692 0.38823 0.0
C438 C 0.42521 0.18787 0.32905 0.0
C439 C 0.41085 0.14749 0.35965 0.0
C440 C 0.40083 0.11135 0.31651 0.0
C441 C 0.40528 0.11655 0.23964 0.0
C442 C 0.41952 0.15751 0.20709 0.0
C443 C 0.4297 0.19361 0.25233 0.0
H444 H 0.14443 0.50438 0.29744 0.0
H445 H 0.20281 0.56439 0.08761 0.0
H446 H 0.21257 0.63409 0.13305 0.0
H447 H 0.08788 0.56741 0.32894 0.0
H448 H 0.09718 0.56987 0.42735 0.0
H449 H 0.09059 0.524 0.37497 0.0
H450 H 0.16435 0.53679 0.42457 0.0
H451 H 0.17144 0.5829 0.47637 0.0
H452 H 0.21233 0.58878 0.41106 0.0
H453 H 0.22674 0.69924 0.2089 0.0
H454 H 0.23632 0.75304 0.30413 0.0
H455 H 0.16328 0.64982 0.46082 0.0
C456 C 0.15831 0.53197 0.26043 0.0
C457 C 0.17281 0.52905 0.18895 0.0
C458 C 0.19103 0.56582 0.14223 0.0
C459 C 0.19687 0.60557 0.16772 0.0
C460 C 0.18341 0.60767 0.2394 0.0
C461 C 0.1636 0.57159 0.28448 0.0
C462 C 0.15358 0.58274 0.36018 0.0
C463 C 0.10438 0.55963 0.37362 0.0
C464 C 0.17682 0.57218 0.42163 0.0
C465 C 0.17236 0.63108 0.35171 0.0
C466 C 0.18949 0.64487 0.28166 0.0
C467 C 0.21233 0.68865 0.26314 0.0
C468 C 0.21767 0.71901 0.31749 0.0
C469 C 0.19969 0.7055 0.38898 0.0
C470 C 0.17637 0.66094 0.40591 0.0
H471 H 0.71442 0.24371 0.6573 0.0
H472 H 0.67171 0.10824 0.62165 0.0
H473 H 0.61254 0.08787 0.71265 0.0
H474 H 0.68422 0.23695 0.85607 0.0
H475 H 0.66482 0.27459 0.84513 0.0
H476 H 0.70831 0.27931 0.78751 0.0
H477 H 0.6655 0.27509 0.66955 0.0
H478 H 0.62214 0.2713 0.72595 0.0
H479 H 0.61121 0.23026 0.65769 0.0
H480 H 0.55314 0.08214 0.79624 0.0
H481 H 0.49582 0.0915 0.85699 0.0
H482 H 0.57514 0.23028 0.83283 0.0
C483 C 0.69328 0.20985 0.6704 0.0
C484 C 0.69767 0.17747 0.6334 0.0
C485 C 0.66876 0.13343 0.64985 0.0
C486 C 0.63531 0.12163 0.70175 0.0
C487 C 0.63104 0.1543 0.73616 0.0
C488 C 0.65915 0.19755 0.72079 0.0
C489 C 0.64424 0.22607 0.75731 0.0
C490 C 0.67738 0.25598 0.81498 0.0
C491 C 0.63522 0.25218 0.69916 0.0
C492 C 0.60281 0.19217 0.79401 0.0
C493 C 0.59619 0.15098 0.78266 0.0
C494 C 0.55843 0.11427 0.80679 0.0
C495 C 0.52618 0.11978 0.84156 0.0
C496 C 0.53192 0.16158 0.85111 0.0
C497 C 0.57088 0.19811 0.82817 0.0
H498 H 0.35236 0.50961 0.13202 0.0
H499 H 0.24861 0.49804 0.9912 0.0
H500 H 0.30195 0.54291 0.8961 0.0
H501 H 0.41995 0.62191 0.09477 0.0
H502 H 0.47006 0.62102 0.09997 0.0
H503 H 0.42349 0.58224 0.15159 0.0
H504 H 0.42894 0.51986 0.08876 0.0
H505 H 0.47532 0.55856 0.03631 0.0
H506 H 0.42859 0.51657 0.98915 0.0
H507 H 0.36647 0.58968 0.81679 0.0
H508 H 0.43737 0.64672 0.76938 0.0
H509 H 0.49974 0.63672 0.96864 0.0
C510 C 0.34095 0.51597 0.08057 0.0
C511 C 0.29617 0.49857 0.0672 0.0
C512 C 0.28254 0.50918 0.00081 0.0
C513 C 0.31266 0.53489 0.94667 0.0
C514 C 0.35655 0.55104 0.96086 0.0
C515 C 0.3708 0.54303 0.02703 0.0
C516 C 0.41985 0.5691 0.03244 0.0
C517 C 0.43416 0.60043 0.09859 0.0
C518 C 0.43931 0.53923 0.03691 0.0
C519 C 0.43081 0.5932 0.95929 0.0
C520 C 0.39389 0.58131 0.91796 0.0
C521 C 0.39565 0.5993 0.84861 0.0
C522 C 0.43607 0.63141 0.82186 0.0
C523 C 0.47391 0.6459 0.86525 0.0
C524 C 0.47127 0.62598 0.93422 0.0
H525 H 0.82049 0.33606 0.37288 0.0
H526 H 0.84495 0.38631 0.59743 0.0
H527 H 0.84989 0.45406 0.55152 0.0
H528 H 0.89095 0.43742 0.27834 0.0
H529 H 0.85399 0.42433 0.20178 0.0
H530 H 0.85605 0.38177 0.25198 0.0
H531 H 0.77356 0.34508 0.27731 0.0
H532 H 0.77112 0.38753 0.22768 0.0
H533 H 0.75195 0.37549 0.32184 0.0
H534 H 0.8487 0.5152 0.48032 0.0
H535 H 0.84034 0.56322 0.39085 0.0
H536 H 0.81368 0.47055 0.21584 0.0
C537 C 0.82747 0.36135 0.41277 0.0
C538 C 0.83247 0.35576 0.48901 0.0
C539 C 0.84119 0.38982 0.53879 0.0
C540 C 0.84406 0.42842 0.51318 0.0
C541 C 0.83821 0.43239 0.43773 0.0
C542 C 0.83018 0.3997 0.38837 0.0
C543 C 0.82285 0.41064 0.31071 0.0
C544 C 0.85807 0.41374 0.25758 0.0
C545 C 0.77716 0.37773 0.2828 0.0
C546 C 0.82732 0.45448 0.32396 0.0
C547 C 0.83654 0.46673 0.39742 0.0
C548 C 0.84128 0.50574 0.42289 0.0
C549 C 0.83589 0.53253 0.37216 0.0
C550 C 0.82534 0.51985 0.29752 0.0
C551 C 0.82172 0.48077 0.2729 0.0
H552 H 0.37743 0.87267 0.61231 0.0
H553 H 0.3575 0.78689 0.42801 0.0
H554 H 0.41144 0.77018 0.48129 0.0
H555 H 0.49685 0.91336 0.63237 0.0
H556 H 0.49402 0.91606 0.73171 0.0
H557 H 0.45776 0.92488 0.67428 0.0
H558 H 0.39222 0.86436 0.74525 0.0
H559 H 0.42806 0.85467 0.80188 0.0
H560 H 0.38566 0.81096 0.74976 0.0
H561 H 0.45473 0.75128 0.5679 0.0
H562 H 0.49759 0.7435 0.66774 0.0
H563 H 0.49802 0.84884 0.78774 0.0
C564 C 0.38561 0.85155 0.58192 0.0
C565 C 0.3636 0.83123 0.51583 0.0
C566 C 0.37455 0.80332 0.47802 0.0
C567 C 0.40483 0.79335 0.50825 0.0
C568 C 0.42457 0.81246 0.57525 0.0
C569 C 0.4165 0.8421 0.6104 0.0
C570 C 0.44115 0.85712 0.68284 0.0
C571 C 0.47443 0.90574 0.6801 0.0
C572 C 0.4099 0.84611 0.74878 0.0
C573 C 0.46326 0.83023 0.68411 0.0
C574 C 0.45272 0.80423 0.62203 0.0
C575 C 0.46482 0.77283 0.61506 0.0
C576 C 0.48938 0.7688 0.67189 0.0
C577 C 0.50312 0.79711 0.73343 0.0
C578 C 0.48939 0.82787 0.73989 0.0
H579 H 0.65003 0.49624 0.06499 0.0
H580 H 0.65835 0.43277 0.26412 0.0
H581 H 0.60148 0.36236 0.21509 0.0
H582 H 0.53077 0.42674 0.04128 0.0
H583 H 0.53507 0.42772 0.94178 0.0
H584 H 0.57384 0.47331 0.9954 0.0
H585 H 0.6364 0.46758 0.93367 0.0
H586 H 0.59797 0.42167 0.88059 0.0
H587 H 0.63673 0.41731 0.93876 0.0
H588 H 0.55314 0.29843 0.13596 0.0
H589 H 0.50735 0.24585 0.04081 0.0
H590 H 0.52354 0.35081 0.8987 0.0
C591 C 0.63917 0.4676 0.09891 0.0
C592 C 0.65846 0.46981 0.16838 0.0
C593 C 0.64362 0.43177 0.21117 0.0
C594 C 0.61155 0.39165 0.18356 0.0
C595 C 0.59408 0.3904 0.11389 0.0
C596 C 0.60655 0.42749 0.07292 0.0
C597 C 0.58315 0.41716 0.99915 0.0
C598 C 0.55396 0.43743 0.99414 0.0
C599 C 0.61549 0.43179 0.93425 0.0
C600 C 0.55651 0.36827 0.00406 0.0
C601 C 0.56365 0.35354 0.07047 0.0
C602 C 0.54605 0.30959 0.08496 0.0
C603 C 0.51986 0.27992 0.03077 0.0
C604 C 0.51044 0.29418 0.96386 0.0
C605 C 0.52919 0.33898 0.95032 0.0
loop_
_geom_bond_atom_site_label_1
_geom_bond_atom_site_label_2
_geom_bond_distance
_geom_bond_site_symmetry_2
_ccdc_geom_bond_type
Dy0 O4 2.398 . S
Dy0 O5 2.491 . S
Dy0 O6 2.403 . S
Dy0 O7 2.664 . S
Dy0 O11 2.326 . S
Dy0 O15 2.310 . S
Dy0 O16 2.351 . S
C1 O12 1.185 . S
C1 O13 1.355 . S
C2 O4 1.185 . S
C2 O5 1.355 . S
Dy3 O7 2.310 . S
Dy3 O10 2.351 . S
Dy3 O12 2.398 . S
Dy3 O13 2.491 . S
Dy3 O14 2.403 . S
Dy3 O15 2.664 . S
Dy3 O17 2.326 . S
O4 Dy0 2.398 . S
O4 C2 1.185 . S
O5 Dy0 2.491 . S
O5 C2 1.355 . S
O6 Dy0 2.403 . S
O6 C8 1.254 . S
O7 Dy0 2.664 . S
O7 Dy3 2.310 . S
O7 C8 1.268 . S
C8 O6 1.254 . S
C8 O7 1.268 . S
C9 O14 1.254 . S
C9 O15 1.268 . S
O10 Dy3 2.351 . S
O10 C18 1.249 . S
O11 Dy0 2.326 . S
O11 C18 1.267 . S
O12 C1 1.185 . S
O12 Dy3 2.398 . S
O13 C1 1.355 . S
O13 Dy3 2.491 . S
O14 Dy3 2.403 . S
O14 C9 1.254 . S
O15 Dy0 2.310 . S
O15 Dy3 2.664 . S
O15 C9 1.268 . S
O16 Dy0 2.351 . S
O16 C19 1.249 . S
O17 Dy3 2.326 . S
O17 C19 1.267 . S
C18 O10 1.249 . S
C18 O11 1.267 . S
C19 O16 1.249 . S
C19 O17 1.267 . S
Dy20 O24 2.398 . S
Dy20 O25 2.491 . S
Dy20 O26 2.403 . S
Dy20 O27 2.664 . S
Dy20 O31 2.326 . S
Dy20 O35 2.310 . S
Dy20 O36 2.351 . S
C21 O32 1.185 . S
C21 O33 1.355 . S
C22 O24 1.185 . S
C22 O25 1.355 . S
Dy23 O27 2.310 . S
Dy23 O30 2.351 . S
Dy23 O32 2.398 . S
Dy23 O33 2.491 . S
Dy23 O34 2.403 . S
Dy23 O35 2.664 . S
Dy23 O37 2.326 . S
O24 Dy20 2.398 . S
O24 C22 1.185 . S
O25 Dy20 2.491 . S
O25 C22 1.355 . S
O26 Dy20 2.403 . S
O26 C28 1.254 . S
O27 Dy20 2.664 . S
O27 Dy23 2.310 . S
O27 C28 1.268 . S
C28 O26 1.254 . S
C28 O27 1.268 . S
C29 O34 1.254 . S
C29 O35 1.268 . S
O30 Dy23 2.351 . S
O30 C38 1.249 . S
O31 Dy20 2.326 . S
O31 C38 1.267 . S
O32 C21 1.185 . S
O32 Dy23 2.398 . S
O33 C21 1.355 . S
O33 Dy23 2.491 . S
O34 Dy23 2.403 . S
O34 C29 1.254 . S
O35 Dy20 2.310 . S
O35 Dy23 2.664 . S
O35 C29 1.268 . S
O36 Dy20 2.351 . S
O36 C39 1.249 . S
O37 Dy23 2.326 . S
O37 C39 1.267 . S
C38 O30 1.249 . S
C38 O31 1.267 . S
C39 O36 1.249 . S
C39 O37 1.267 . S
Dy40 O44 2.398 . S
Dy40 O45 2.491 . S
Dy40 O46 2.403 . S
Dy40 O47 2.664 . S
Dy40 O51 2.326 . S
Dy40 O55 2.310 . S
Dy40 O56 2.351 . S
C41 O52 1.185 . S
C41 O53 1.355 . S
C42 O44 1.185 . S
C42 O45 1.355 . S
Dy43 O47 2.310 1_554 S
Dy43 O50 2.351 1_554 S
Dy43 O52 2.398 . S
Dy43 O53 2.491 . S
Dy43 O54 2.403 . S
Dy43 O55 2.664 1_554 S
Dy43 O57 2.326 . S
O44 Dy40 2.398 . S
O44 C42 1.185 . S
O45 Dy40 2.491 . S
O45 C42 1.355 . S
O46 Dy40 2.403 . S
O46 C48 1.254 . S
O47 Dy40 2.664 . S
O47 Dy43 2.310 1_556 S
O47 C48 1.268 . S
C48 O46 1.254 . S
C48 O47 1.268 . S
C49 O54 1.254 1_556 S
C49 O55 1.268 . S
O50 Dy43 2.351 1_556 S
O50 C58 1.249 . S
O51 Dy40 2.326 . S
O51 C58 1.267 . S
O52 C41 1.185 . S
O52 Dy43 2.398 . S
O53 C41 1.355 . S
O53 Dy43 2.491 . S
O54 Dy43 2.403 . S
O54 C49 1.254 1_554 S
O55 Dy40 2.310 . S
O55 Dy43 2.664 1_556 S
O55 C49 1.268 . S
O56 Dy40 2.351 . S
O56 C59 1.249 1_556 S
O57 Dy43 2.326 . S
O57 C59 1.267 . S
C58 O50 1.249 . S
C58 O51 1.267 . S
C59 O56 1.249 1_554 S
C59 O57 1.267 . S
Dy60 O64 2.398 . S
Dy60 O65 2.491 . S
Dy60 O66 2.403 . S
Dy60 O67 2.664 . S
Dy60 O71 2.326 . S
Dy60 O75 2.310 . S
Dy60 O76 2.351 . S
C61 O72 1.185 . S
C61 O73 1.355 . S
C62 O64 1.185 . S
C62 O65 1.355 . S
Dy63 O67 2.310 1_556 S
Dy63 O70 2.351 1_556 S
Dy63 O72 2.398 . S
Dy63 O73 2.491 . S
Dy63 O74 2.403 1_556 S
Dy63 O75 2.664 1_556 S
Dy63 O77 2.326 . S
O64 Dy60 2.398 . S
O64 C62 1.185 . S
O65 Dy60 2.491 . S
O65 C62 1.355 . S
O66 Dy60 2.403 . S
O66 C68 1.254 . S
O67 Dy60 2.664 . S
O67 Dy63 2.310 1_554 S
O67 C68 1.268 . S
C68 O66 1.254 . S
C68 O67 1.268 . S
C69 O74 1.254 . S
C69 O75 1.268 . S
O70 Dy63 2.351 1_554 S
O70 C78 1.249 . S
O71 Dy60 2.326 . S
O71 C78 1.267 . S
O72 C61 1.185 . S
O72 Dy63 2.398 . S
O73 C61 1.355 . S
O73 Dy63 2.491 . S
O74 Dy63 2.403 1_554 S
O74 C69 1.254 . S
O75 Dy60 2.310 . S
O75 Dy63 2.664 1_554 S
O75 C69 1.268 . S
O76 Dy60 2.351 . S
O76 C79 1.249 . S
O77 Dy63 2.326 . S
O77 C79 1.267 1_556 S
C78 O70 1.249 . S
C78 O71 1.267 . S
C79 O76 1.249 . S
C79 O77 1.267 1_554 S
Dy80 O84 2.398 . S
Dy80 O85 2.491 . S
Dy80 O86 2.403 . S
Dy80 O87 2.664 . S
Dy80 O91 2.326 . S
Dy80 O95 2.310 . S
Dy80 O96 2.351 . S
C81 O92 1.185 . S
C81 O93 1.355 . S
C82 O84 1.185 . S
C82 O85 1.355 . S
Dy83 O87 2.310 . S
Dy83 O90 2.351 . S
Dy83 O92 2.398 . S
Dy83 O93 2.491 . S
Dy83 O94 2.403 . S
Dy83 O95 2.664 . S
Dy83 O97 2.326 . S
O84 Dy80 2.398 . S
O84 C82 1.185 . S
O85 Dy80 2.491 . S
O85 C82 1.355 . S
O86 Dy80 2.403 . S
O86 C88 1.254 . S
O87 Dy80 2.664 . S
O87 Dy83 2.310 . S
O87 C88 1.268 . S
C88 O86 1.254 . S
C88 O87 1.268 . S
C89 O94 1.254 . S
C89 O95 1.268 . S
O90 Dy83 2.351 . S
O90 C98 1.249 . S
O91 Dy80 2.326 . S
O91 C98 1.267 . S
O92 C81 1.185 . S
O92 Dy83 2.398 . S
O93 C81 1.355 . S
O93 Dy83 2.491 . S
O94 Dy83 2.403 . S
O94 C89 1.254 . S
O95 Dy80 2.310 . S
O95 Dy83 2.664 . S
O95 C89 1.268 . S
O96 Dy80 2.351 . S
O96 C99 1.249 . S
O97 Dy83 2.326 . S
O97 C99 1.267 . S
C98 O90 1.249 . S
C98 O91 1.267 . S
C99 O96 1.249 . S
C99 O97 1.267 . S
Dy100 O104 2.398 . S
Dy100 O105 2.491 . S
Dy100 O106 2.403 . S
Dy100 O107 2.664 . S
Dy100 O111 2.326 . S
Dy100 O115 2.310 . S
Dy100 O116 2.351 . S
C101 O112 1.185 . S
C101 O113 1.355 . S
C102 O104 1.185 . S
C102 O105 1.355 . S
Dy103 O107 2.310 . S
Dy103 O110 2.351 . S
Dy103 O112 2.398 . S
Dy103 O113 2.491 . S
Dy103 O114 2.403 . S
Dy103 O115 2.664 . S
Dy103 O117 2.326 . S
O104 Dy100 2.398 . S
O104 C102 1.185 . S
O105 Dy100 2.491 . S
O105 C102 1.355 . S
O106 Dy100 2.403 . S
O106 C108 1.254 . S
O107 Dy100 2.664 . S
O107 Dy103 2.310 . S
O107 C108 1.268 . S
C108 O106 1.254 . S
C108 O107 1.268 . S
C109 O114 1.254 . S
C109 O115 1.268 . S
O110 Dy103 2.351 . S
O110 C118 1.249 . S
O111 Dy100 2.326 . S
O111 C118 1.267 . S
O112 C101 1.185 . S
O112 Dy103 2.398 . S
O113 C101 1.355 . S
O113 Dy103 2.491 . S
O114 Dy103 2.403 . S
O114 C109 1.254 . S
O115 Dy100 2.310 . S
O115 Dy103 2.664 . S
O115 C109 1.268 . S
O116 Dy100 2.351 . S
O116 C119 1.249 . S
O117 Dy103 2.326 . S
O117 C119 1.267 . S
C118 O110 1.249 . S
C118 O111 1.267 . S
C119 O116 1.249 . S
C119 O117 1.267 . S
H120 C132 0.930 . S
H121 C134 0.930 . S
H122 C135 0.930 . S
H123 C139 0.959 . S
H124 C139 0.959 . S
H125 C139 0.961 . S
H126 C140 0.960 . S
H127 C140 0.961 . S
H128 C140 0.959 . S
H129 C143 0.929 . S
H130 C144 0.931 . S
H131 C146 0.930 . S
C132 H120 0.930 . S
C132 C133 1.399 . S
C132 C137 1.399 . S
C133 C132 1.399 . S
C133 C134 1.376 . S
C134 H121 0.930 . S
C134 C133 1.376 . S
C134 C135 1.388 . S
C135 H122 0.930 . S
C135 C134 1.388 . S
C135 C136 1.390 . S
C136 C135 1.390 . S
C136 C137 1.394 . S
C136 C142 1.465 1_556 S
C137 C132 1.399 . S
C137 C136 1.394 . S
C137 C138 1.516 1_556 S
C138 C137 1.516 1_554 S
C138 C139 1.502 . S
C138 C140 1.561 . S
C138 C141 1.526 . S
C139 H123 0.959 . S
C139 H124 0.959 . S
C139 H125 0.961 . S
C139 C138 1.502 . S
C140 H126 0.960 . S
C140 H127 0.961 . S
C140 H128 0.959 . S
C140 C138 1.561 . S
C141 C138 1.526 . S
C141 C142 1.396 . S
C141 C146 1.390 . S
C142 C136 1.465 1_554 S
C142 C141 1.396 . S
C142 C143 1.399 . S
C143 H129 0.929 . S
C143 C142 1.399 . S
C143 C144 1.385 . S
C144 H130 0.931 . S
C144 C143 1.385 . S
C144 C145 1.389 . S
C145 C144 1.389 . S
C145 C146 1.387 . S
C146 H131 0.930 . S
C146 C141 1.390 . S
C146 C145 1.387 . S
H147 C159 0.930 . S
H148 C161 0.930 . S
H149 C162 0.930 . S
H150 C166 0.959 . S
H151 C166 0.959 . S
H152 C166 0.961 1_455 S
H153 C167 0.960 1_455 S
H154 C167 0.961 . S
H155 C167 0.959 . S
H156 C170 0.929 . S
H157 C171 0.931 . S
H158 C173 0.930 . S
C159 H147 0.930 . S
C159 C160 1.399 . S
C159 C164 1.399 . S
C160 C159 1.399 . S
C160 C161 1.376 . S
C161 H148 0.930 . S
C161 C160 1.376 . S
C161 C162 1.388 . S
C162 H149 0.930 . S
C162 C161 1.388 . S
C162 C163 1.390 . S
C163 C162 1.390 . S
C163 C164 1.394 . S
C163 C169 1.465 1_455 S
C164 C159 1.399 . S
C164 C163 1.394 . S
C164 C165 1.516 1_455 S
C165 C164 1.516 1_655 S
C165 C166 1.502 . S
C165 C167 1.561 . S
C165 C168 1.526 . S
C166 H150 0.959 . S
C166 H151 0.959 . S
C166 H152 0.961 1_655 S
C166 C165 1.502 . S
C167 H153 0.960 1_655 S
C167 H154 0.961 . S
C167 H155 0.959 . S
C167 C165 1.561 . S
C168 C165 1.526 . S
C168 C169 1.396 . S
C168 C173 1.390 . S
C169 C163 1.465 1_655 S
C169 C168 1.396 . S
C169 C170 1.399 . S
C170 H156 0.929 . S
C170 C169 1.399 . S
C170 C171 1.385 . S
C171 H157 0.931 . S
C171 C170 1.385 . S
C171 C172 1.389 . S
C172 C171 1.389 . S
C172 C173 1.387 . S
C173 H158 0.930 . S
C173 C168 1.390 . S
C173 C172 1.387 . S
H174 C186 0.930 . S
H175 C188 0.930 . S
H176 C189 0.932 . S
H177 C193 0.959 . S
H178 C193 0.959 . S
H179 C193 0.961 . S
H180 C194 0.960 . S
H181 C194 0.961 . S
H182 C194 0.959 . S
H183 C197 0.929 . S
H184 C198 0.931 . S
H185 C200 0.930 . S
C186 H174 0.930 . S
C186 C187 1.399 . S
C186 C191 1.399 . S
C187 C186 1.399 . S
C187 C188 1.376 . S
C188 H175 0.930 . S
C188 C187 1.376 . S
C188 C189 1.386 1_545 S
C189 H176 0.932 . S
C189 C188 1.386 1_565 S
C189 C190 1.390 1_565 S
C190 C189 1.390 1_545 S
C190 C191 1.394 . S
C190 C196 1.465 1_545 S
C191 C186 1.399 . S
C191 C190 1.394 . S
C191 C192 1.516 . S
C192 C191 1.516 . S
C192 C193 1.502 . S
C192 C194 1.561 . S
C192 C195 1.526 1_545 S
C193 H177 0.959 . S
C193 H178 0.959 . S
C193 H179 0.961 . S
C193 C192 1.502 . S
C194 H180 0.960 . S
C194 H181 0.961 . S
C194 H182 0.959 . S
C194 C192 1.561 . S
C195 C192 1.526 1_565 S
C195 C196 1.396 . S
C195 C200 1.390 . S
C196 C190 1.465 1_565 S
C196 C195 1.396 . S
C196 C197 1.399 . S
C197 H183 0.929 . S
C197 C196 1.399 . S
C197 C198 1.385 . S
C198 H184 0.931 . S
C198 C197 1.385 . S
C198 C199 1.389 . S
C199 C198 1.389 . S
C199 C200 1.387 . S
C200 H185 0.930 . S
C200 C195 1.390 . S
C200 C199 1.387 . S
H201 C213 0.930 . S
H202 C215 0.930 . S
H203 C216 0.930 . S
H204 C220 0.959 . S
H205 C220 0.959 . S
H206 C220 0.961 . S
H207 C221 0.960 . S
H208 C221 0.961 . S
H209 C221 0.959 . S
H210 C224 0.929 . S
H211 C225 0.931 . S
H212 C227 0.930 . S
C213 H201 0.930 . S
C213 C214 1.399 1_556 S
C213 C218 1.399 . S
C214 C213 1.399 1_554 S
C214 C215 1.376 . S
C215 H202 0.930 . S
C215 C214 1.376 . S
C215 C216 1.388 . S
C216 H203 0.930 . S
C216 C215 1.388 . S
C216 C217 1.390 . S
C217 C216 1.390 . S
C217 C218 1.394 1_554 S
C217 C223 1.465 . S
C218 C213 1.399 . S
C218 C217 1.394 1_556 S
C218 C219 1.516 . S
C219 C218 1.516 . S
C219 C220 1.502 . S
C219 C221 1.561 . S
C219 C222 1.526 . S
C220 H204 0.959 . S
C220 H205 0.959 . S
C220 H206 0.961 . S
C220 C219 1.502 . S
C221 H207 0.960 . S
C221 H208 0.961 . S
C221 H209 0.959 . S
C221 C219 1.561 . S
C222 C219 1.526 . S
C222 C223 1.396 1_556 S
C222 C227 1.390 . S
C223 C217 1.465 . S
C223 C222 1.396 1_554 S
C223 C224 1.399 . S
C224 H210 0.929 . S
C224 C223 1.399 . S
C224 C225 1.385 . S
C225 H211 0.931 . S
C225 C224 1.385 . S
C225 C226 1.389 . S
C226 C225 1.389 . S
C226 C227 1.387 1_554 S
C227 H212 0.930 . S
C227 C222 1.390 . S
C227 C226 1.387 1_556 S
H228 C240 0.930 . S
H229 C242 0.930 . S
H230 C243 0.930 . S
H231 C247 0.959 . S
H232 C247 0.959 . S
H233 C247 0.961 . S
H234 C248 0.960 . S
H235 C248 0.961 . S
H236 C248 0.959 . S
H237 C251 0.929 . S
H238 C252 0.931 . S
H239 C254 0.930 . S
C240 H228 0.930 . S
C240 C241 1.399 . S
C240 C245 1.399 . S
C241 C240 1.399 . S
C241 C242 1.376 . S
C242 H229 0.930 . S
C242 C241 1.376 . S
C242 C243 1.388 1_455 S
C243 H230 0.930 . S
C243 C242 1.388 1_655 S
C243 C244 1.394 . S
C244 C243 1.394 . S
C244 C245 1.373 1_655 S
C244 C250 1.480 . S
C245 C240 1.399 . S
C245 C244 1.373 1_455 S
C245 C246 1.516 . S
C246 C245 1.516 . S
C246 C247 1.502 . S
C246 C248 1.561 . S
C246 C249 1.526 1_455 S
C247 H231 0.959 . S
C247 H232 0.959 . S
C247 H233 0.961 . S
C247 C246 1.502 . S
C248 H234 0.960 . S
C248 H235 0.961 . S
C248 H236 0.959 . S
C248 C246 1.561 . S
C249 C246 1.526 1_655 S
C249 C250 1.396 . S
C249 C254 1.390 . S
C250 C244 1.480 . S
C250 C249 1.396 . S
C250 C251 1.399 . S
C251 H237 0.929 . S
C251 C250 1.399 . S
C251 C252 1.385 . S
C252 H238 0.931 . S
C252 C251 1.385 . S
C252 C253 1.389 . S
C253 C252 1.389 . S
C253 C254 1.387 . S
C254 H239 0.930 . S
C254 C249 1.390 . S
C254 C253 1.387 . S
H255 C267 0.930 . S
H256 C269 0.930 . S
H257 C270 0.930 . S
H258 C274 0.959 . S
H259 C274 0.959 . S
H260 C274 0.961 1_545 S
H261 C275 0.960 1_545 S
H262 C275 0.961 . S
H263 C275 0.959 . S
H264 C278 0.929 . S
H265 C279 0.931 . S
H266 C281 0.930 . S
C267 H255 0.930 . S
C267 C268 1.399 . S
C267 C272 1.399 . S
C268 C267 1.399 . S
C268 C269 1.376 . S
C269 H256 0.930 . S
C269 C268 1.376 . S
C269 C270 1.388 . S
C270 H257 0.930 . S
C270 C269 1.388 . S
C270 C271 1.390 . S
C271 C270 1.390 . S
C271 C272 1.394 . S
C271 C277 1.465 1_545 S
C272 C267 1.399 . S
C272 C271 1.394 . S
C272 C273 1.516 1_545 S
C273 C272 1.516 1_565 S
C273 C274 1.502 . S
C273 C275 1.561 . S
C273 C276 1.526 . S
C274 H258 0.959 . S
C274 H259 0.959 . S
C274 H260 0.961 1_565 S
C274 C273 1.502 . S
C275 H261 0.960 1_565 S
C275 H262 0.961 . S
C275 H263 0.959 . S
C275 C273 1.561 . S
C276 C273 1.526 . S
C276 C277 1.396 . S
C276 C281 1.390 . S
C277 C271 1.465 1_565 S
C277 C276 1.396 . S
C277 C278 1.399 . S
C278 H264 0.929 . S
C278 C277 1.399 . S
C278 C279 1.385 . S
C279 H265 0.931 . S
C279 C278 1.385 . S
C279 C280 1.389 . S
C280 C279 1.389 . S
C280 C281 1.387 . S
C281 H266 0.930 . S
C281 C276 1.390 . S
C281 C280 1.387 . S
H282 C294 0.930 . S
H283 C296 0.930 . S
H284 C297 0.930 . S
H285 C301 0.959 . S
H286 C301 0.959 . S
H287 C301 0.961 . S
H288 C302 0.960 . S
H289 C302 0.961 . S
H290 C302 0.959 . S
H291 C305 0.929 . S
H292 C306 0.931 . S
H293 C308 0.930 . S
C294 H282 0.930 . S
C294 C295 1.399 . S
C294 C299 1.399 . S
C295 C294 1.399 . S
C295 C296 1.376 . S
C296 H283 0.930 . S
C296 C295 1.376 . S
C296 C297 1.388 . S
C297 H284 0.930 . S
C297 C296 1.388 . S
C297 C298 1.390 . S
C298 C297 1.390 . S
C298 C299 1.394 . S
C298 C304 1.465 . S
C299 C294 1.399 . S
C299 C298 1.394 . S
C299 C300 1.516 . S
C300 C299 1.516 . S
C300 C301 1.502 . S
C300 C302 1.561 . S
C300 C303 1.526 . S
C301 H285 0.959 . S
C301 H286 0.959 . S
C301 H287 0.961 . S
C301 C300 1.502 . S
C302 H288 0.960 . S
C302 H289 0.961 . S
C302 H290 0.959 . S
C302 C300 1.561 . S
C303 C300 1.526 . S
C303 C304 1.396 . S
C303 C308 1.390 . S
C304 C298 1.465 . S
C304 C303 1.396 . S
C304 C305 1.399 . S
C305 H291 0.929 . S
C305 C304 1.399 . S
C305 C306 1.385 . S
C306 H292 0.931 . S
C306 C305 1.385 . S
C306 C307 1.389 . S
C307 C306 1.389 . S
C307 C308 1.387 . S
C308 H293 0.930 . S
C308 C303 1.390 . S
C308 C307 1.387 . S
H309 C321 0.930 . S
H310 C323 0.930 . S
H311 C324 0.933 . S
H312 C328 0.959 . S
H313 C328 0.959 . S
H314 C328 0.961 . S
H315 C329 0.960 . S
H316 C329 0.961 . S
H317 C329 0.959 . S
H318 C332 0.929 . S
H319 C333 0.931 . S
H320 C335 0.930 . S
C321 H309 0.930 . S
C321 C322 1.399 . S
C321 C326 1.399 1_554 S
C322 C321 1.399 . S
C322 C323 1.376 . S
C323 H310 0.930 . S
C323 C322 1.376 . S
C323 C324 1.378 1_554 S
C324 H311 0.933 . S
C324 C323 1.378 1_556 S
C324 C325 1.397 . S
C325 C324 1.397 . S
C325 C326 1.394 . S
C325 C331 1.465 . S
C326 C321 1.399 1_556 S
C326 C325 1.394 . S
C326 C327 1.516 . S
C327 C326 1.516 . S
C327 C328 1.502 . S
C327 C329 1.561 . S
C327 C330 1.526 . S
C328 H312 0.959 . S
C328 H313 0.959 . S
C328 H314 0.961 . S
C328 C327 1.502 . S
C329 H315 0.960 . S
C329 H316 0.961 . S
C329 H317 0.959 . S
C329 C327 1.561 . S
C330 C327 1.526 . S
C330 C331 1.396 . S
C330 C335 1.390 . S
C331 C325 1.465 . S
C331 C330 1.396 . S
C331 C332 1.399 . S
C332 H318 0.929 . S
C332 C331 1.399 . S
C332 C333 1.385 . S
C333 H319 0.931 . S
C333 C332 1.385 . S
C333 C334 1.389 . S
C334 C333 1.389 . S
C334 C335 1.387 . S
C335 H320 0.930 . S
C335 C330 1.390 . S
C335 C334 1.387 . S
H336 C348 0.930 . S
H337 C350 0.930 . S
H338 C351 0.930 . S
H339 C355 0.959 . S
H340 C355 0.959 . S
H341 C355 0.961 . S
H342 C356 0.960 . S
H343 C356 0.961 . S
H344 C356 0.959 . S
H345 C359 0.929 . S
H346 C360 0.931 . S
H347 C362 0.930 . S
C348 H336 0.930 . S
C348 C349 1.399 . S
C348 C353 1.399 . S
C349 C348 1.399 . S
C349 C350 1.376 . S
C350 H337 0.930 . S
C350 C349 1.376 . S
C350 C351 1.388 . S
C351 H338 0.930 . S
C351 C350 1.388 . S
C351 C352 1.390 . S
C352 C351 1.390 . S
C352 C353 1.394 . S
C352 C358 1.465 . S
C353 C348 1.399 . S
C353 C352 1.394 . S
C353 C354 1.516 . S
C354 C353 1.516 . S
C354 C355 1.502 . S
C354 C356 1.561 . S
C354 C357 1.526 . S
C355 H339 0.959 . S
C355 H340 0.959 . S
C355 H341 0.961 . S
C355 C354 1.502 . S
C356 H342 0.960 . S
C356 H343 0.961 . S
C356 H344 0.959 . S
C356 C354 1.561 . S
C357 C354 1.526 . S
C357 C358 1.396 . S
C357 C362 1.390 . S
C358 C352 1.465 . S
C358 C357 1.396 . S
C358 C359 1.399 . S
C359 H345 0.929 . S
C359 C358 1.399 . S
C359 C360 1.385 . S
C360 H346 0.931 . S
C360 C359 1.385 . S
C360 C361 1.389 . S
C361 C360 1.389 . S
C361 C362 1.387 . S
C362 H347 0.930 . S
C362 C357 1.390 . S
C362 C361 1.387 . S
H363 C375 0.930 . S
H364 C377 0.930 . S
H365 C378 0.930 . S
H366 C382 0.959 . S
H367 C382 0.959 . S
H368 C382 0.961 . S
H369 C383 0.960 . S
H370 C383 0.961 . S
H371 C383 0.959 . S
H372 C386 0.929 . S
H373 C387 0.931 . S
H374 C389 0.930 . S
C375 H363 0.930 . S
C375 C376 1.399 . S
C375 C380 1.399 . S
C376 C375 1.399 . S
C376 C377 1.376 . S
C377 H364 0.930 . S
C377 C376 1.376 . S
C377 C378 1.388 . S
C378 H365 0.930 . S
C378 C377 1.388 . S
C378 C379 1.390 . S
C379 C378 1.390 . S
C379 C380 1.394 . S
C379 C385 1.465 . S
C380 C375 1.399 . S
C380 C379 1.394 . S
C380 C381 1.516 . S
C381 C380 1.516 . S
C381 C382 1.502 . S
C381 C383 1.561 . S
C381 C384 1.526 . S
C382 H366 0.959 . S
C382 H367 0.959 . S
C382 H368 0.961 . S
C382 C381 1.502 . S
C383 H369 0.960 . S
C383 H370 0.961 . S
C383 H371 0.959 . S
C383 C381 1.561 . S
C384 C381 1.526 . S
C384 C385 1.396 . S
C384 C389 1.390 . S
C385 C379 1.465 . S
C385 C384 1.396 . S
C385 C386 1.399 . S
C386 H372 0.929 . S
C386 C385 1.399 . S
C386 C387 1.385 . S
C387 H373 0.931 . S
C387 C386 1.385 . S
C387 C388 1.389 . S
C388 C387 1.389 . S
C388 C389 1.387 . S
C389 H374 0.930 . S
C389 C384 1.390 . S
C389 C388 1.387 . S
H390 C402 0.930 . S
H391 C404 0.930 . S
H392 C405 0.930 . S
H393 C409 0.959 . S
H394 C409 0.959 . S
H395 C409 0.961 . S
H396 C410 0.960 . S
H397 C410 0.961 . S
H398 C410 0.959 . S
H399 C413 0.929 . S
H400 C414 0.931 . S
H401 C416 0.930 . S
C402 H390 0.930 . S
C402 C403 1.399 . S
C402 C407 1.399 1_556 S
C403 C402 1.399 . S
C403 C404 1.376 . S
C404 H391 0.930 . S
C404 C403 1.376 . S
C404 C405 1.388 1_556 S
C405 H392 0.930 . S
C405 C404 1.388 1_554 S
C405 C406 1.390 . S
C406 C405 1.390 . S
C406 C407 1.394 . S
C406 C412 1.465 . S
C407 C402 1.399 1_554 S
C407 C406 1.394 . S
C407 C408 1.516 . S
C408 C407 1.516 . S
C408 C409 1.502 . S
C408 C410 1.561 . S
C408 C411 1.526 . S
C409 H393 0.959 . S
C409 H394 0.959 . S
C409 H395 0.961 . S
C409 C408 1.502 . S
C410 H396 0.960 . S
C410 H397 0.961 . S
C410 H398 0.959 . S
C410 C408 1.561 . S
C411 C408 1.526 . S
C411 C412 1.396 . S
C411 C416 1.390 . S
C412 C406 1.465 . S
C412 C411 1.396 . S
C412 C413 1.399 . S
C413 H399 0.929 . S
C413 C412 1.399 . S
C413 C414 1.385 . S
C414 H400 0.931 . S
C414 C413 1.385 . S
C414 C415 1.389 . S
C415 C414 1.389 . S
C415 C416 1.387 . S
C416 H401 0.930 . S
C416 C411 1.390 . S
C416 C415 1.387 . S
H417 C429 0.930 . S
H418 C431 0.930 . S
H419 C432 0.930 . S
H420 C436 0.959 . S
H421 C436 0.959 . S
H422 C436 0.961 . S
H423 C437 0.960 . S
H424 C437 0.961 . S
H425 C437 0.959 . S
H426 C440 0.929 . S
H427 C441 0.931 . S
H428 C443 0.930 . S
C429 H417 0.930 . S
C429 C430 1.399 . S
C429 C434 1.399 . S
C430 C429 1.399 . S
C430 C431 1.376 . S
C431 H418 0.930 . S
C431 C430 1.376 . S
C431 C432 1.388 . S
C432 H419 0.930 . S
C432 C431 1.388 . S
C432 C433 1.390 . S
C433 C432 1.390 . S
C433 C434 1.394 . S
C433 C439 1.465 . S
C434 C429 1.399 . S
C434 C433 1.394 . S
C434 C435 1.516 . S
C435 C434 1.516 . S
C435 C436 1.502 . S
C435 C437 1.561 . S
C435 C438 1.526 . S
C436 H420 0.959 . S
C436 H421 0.959 . S
C436 H422 0.961 . S
C436 C435 1.502 . S
C437 H423 0.960 . S
C437 H424 0.961 . S
C437 H425 0.959 . S
C437 C435 1.561 . S
C438 C435 1.526 . S
C438 C439 1.396 . S
C438 C443 1.390 . S
C439 C433 1.465 . S
C439 C438 1.396 . S
C439 C440 1.399 . S
C440 H426 0.929 . S
C440 C439 1.399 . S
C440 C441 1.385 . S
C441 H427 0.931 . S
C441 C440 1.385 . S
C441 C442 1.389 . S
C442 C441 1.389 . S
C442 C443 1.387 . S
C443 H428 0.930 . S
C443 C438 1.390 . S
C443 C442 1.387 . S
H444 C456 0.930 . S
H445 C458 0.930 . S
H446 C459 0.930 . S
H447 C463 0.959 . S
H448 C463 0.959 . S
H449 C463 0.961 . S
H450 C464 0.960 . S
H451 C464 0.961 . S
H452 C464 0.959 . S
H453 C467 0.929 . S
H454 C468 0.931 . S
H455 C470 0.930 . S
C456 H444 0.930 . S
C456 C457 1.399 . S
C456 C461 1.399 . S
C457 C456 1.399 . S
C457 C458 1.376 . S
C458 H445 0.930 . S
C458 C457 1.376 . S
C458 C459 1.388 . S
C459 H446 0.930 . S
C459 C458 1.388 . S
C459 C460 1.390 . S
C460 C459 1.390 . S
C460 C461 1.394 . S
C460 C466 1.465 . S
C461 C456 1.399 . S
C461 C460 1.394 . S
C461 C462 1.516 . S
C462 C461 1.516 . S
C462 C463 1.502 . S
C462 C464 1.561 . S
C462 C465 1.526 . S
C463 H447 0.959 . S
C463 H448 0.959 . S
C463 H449 0.961 . S
C463 C462 1.502 . S
C464 H450 0.960 . S
C464 H451 0.961 . S
C464 H452 0.959 . S
C464 C462 1.561 . S
C465 C462 1.526 . S
C465 C466 1.396 . S
C465 C470 1.390 . S
C466 C460 1.465 . S
C466 C465 1.396 . S
C466 C467 1.399 . S
C467 H453 0.929 . S
C467 C466 1.399 . S
C467 C468 1.385 . S
C468 H454 0.931 . S
C468 C467 1.385 . S
C468 C469 1.389 . S
C469 C468 1.389 . S
C469 C470 1.387 . S
C470 H455 0.930 . S
C470 C465 1.390 . S
C470 C469 1.387 . S
H471 C483 0.930 . S
H472 C485 0.930 . S
H473 C486 0.930 . S
H474 C490 0.959 . S
H475 C490 0.959 . S
H476 C490 0.961 . S
H477 C491 0.960 . S
H478 C491 0.961 . S
H479 C491 0.959 . S
H480 C494 0.929 . S
H481 C495 0.931 . S
H482 C497 0.930 . S
C483 H471 0.930 . S
C483 C484 1.399 . S
C483 C488 1.399 . S
C484 C483 1.399 . S
C484 C485 1.376 . S
C485 H472 0.930 . S
C485 C484 1.376 . S
C485 C486 1.388 . S
C486 H473 0.930 . S
C486 C485 1.388 . S
C486 C487 1.390 . S
C487 C486 1.390 . S
C487 C488 1.394 . S
C487 C493 1.465 . S
C488 C483 1.399 . S
C488 C487 1.394 . S
C488 C489 1.516 . S
C489 C488 1.516 . S
C489 C490 1.502 . S
C489 C491 1.561 . S
C489 C492 1.526 . S
C490 H474 0.959 . S
C490 H475 0.959 . S
C490 H476 0.961 . S
C490 C489 1.502 . S
C491 H477 0.960 . S
C491 H478 0.961 . S
C491 H479 0.959 . S
C491 C489 1.561 . S
C492 C489 1.526 . S
C492 C493 1.396 . S
C492 C497 1.390 . S
C493 C487 1.465 . S
C493 C492 1.396 . S
C493 C494 1.399 . S
C494 H480 0.929 . S
C494 C493 1.399 . S
C494 C495 1.385 . S
C495 H481 0.931 . S
C495 C494 1.385 . S
C495 C496 1.389 . S
C496 C495 1.389 . S
C496 C497 1.387 . S
C497 H482 0.930 . S
C497 C492 1.390 . S
C497 C496 1.387 . S
H498 C510 0.930 . S
H499 C512 0.930 . S
H500 C513 0.930 . S
H501 C517 0.959 . S
H502 C517 0.959 . S
H503 C517 0.961 . S
H504 C518 0.960 . S
H505 C518 0.961 . S
H506 C518 0.959 . S
H507 C521 0.929 . S
H508 C522 0.931 . S
H509 C524 0.930 . S
C510 H498 0.930 . S
C510 C511 1.399 . S
C510 C515 1.399 . S
C511 C510 1.399 . S
C511 C512 1.376 . S
C512 H499 0.930 . S
C512 C511 1.376 . S
C512 C513 1.388 . S
C513 H500 0.930 . S
C513 C512 1.388 . S
C513 C514 1.390 . S
C514 C513 1.390 . S
C514 C515 1.394 . S
C514 C520 1.465 . S
C515 C510 1.399 . S
C515 C514 1.394 . S
C515 C516 1.516 . S
C516 C515 1.516 . S
C516 C517 1.502 . S
C516 C518 1.561 . S
C516 C519 1.526 . S
C517 H501 0.959 . S
C517 H502 0.959 . S
C517 H503 0.961 . S
C517 C516 1.502 . S
C518 H504 0.960 . S
C518 H505 0.961 . S
C518 H506 0.959 . S
C518 C516 1.561 . S
C519 C516 1.526 . S
C519 C520 1.396 . S
C519 C524 1.390 . S
C520 C514 1.465 . S
C520 C519 1.396 . S
C520 C521 1.399 . S
C521 H507 0.929 . S
C521 C520 1.399 . S
C521 C522 1.385 . S
C522 H508 0.931 . S
C522 C521 1.385 . S
C522 C523 1.389 . S
C523 C522 1.389 . S
C523 C524 1.387 . S
C524 H509 0.930 . S
C524 C519 1.390 . S
C524 C523 1.387 . S
H525 C537 0.930 . S
H526 C539 0.930 . S
H527 C540 0.930 . S
H528 C544 0.959 . S
H529 C544 0.959 . S
H530 C544 0.961 . S
H531 C545 0.960 . S
H532 C545 0.961 . S
H533 C545 0.959 . S
H534 C548 0.929 . S
H535 C549 0.931 . S
H536 C551 0.930 . S
C537 H525 0.930 . S
C537 C538 1.399 . S
C537 C542 1.399 . S
C538 C537 1.399 . S
C538 C539 1.376 . S
C539 H526 0.930 . S
C539 C538 1.376 . S
C539 C540 1.388 . S
C540 H527 0.930 . S
C540 C539 1.388 . S
C540 C541 1.390 . S
C541 C540 1.390 . S
C541 C542 1.394 . S
C541 C547 1.465 . S
C542 C537 1.399 . S
C542 C541 1.394 . S
C542 C543 1.516 . S
C543 C542 1.516 . S
C543 C544 1.502 . S
C543 C545 1.561 . S
C543 C546 1.526 . S
C544 H528 0.959 . S
C544 H529 0.959 . S
C544 H530 0.961 . S
C544 C543 1.502 . S
C545 H531 0.960 . S
C545 H532 0.961 . S
C545 H533 0.959 . S
C545 C543 1.561 . S
C546 C543 1.526 . S
C546 C547 1.396 . S
C546 C551 1.390 . S
C547 C541 1.465 . S
C547 C546 1.396 . S
C547 C548 1.399 . S
C548 H534 0.929 . S
C548 C547 1.399 . S
C548 C549 1.385 . S
C549 H535 0.931 . S
C549 C548 1.385 . S
C549 C550 1.389 . S
C550 C549 1.389 . S
C550 C551 1.387 . S
C551 H536 0.930 . S
C551 C546 1.390 . S
C551 C550 1.387 . S
H552 C564 0.930 . S
H553 C566 0.930 . S
H554 C567 0.930 . S
H555 C571 0.959 . S
H556 C571 0.959 . S
H557 C571 0.961 . S
H558 C572 0.960 . S
H559 C572 0.961 1_554 S
H560 C572 0.959 . S
H561 C575 0.929 . S
H562 C576 0.931 . S
H563 C578 0.930 . S
C564 H552 0.930 . S
C564 C565 1.399 . S
C564 C569 1.399 . S
C565 C564 1.399 . S
C565 C566 1.376 . S
C566 H553 0.930 . S
C566 C565 1.376 . S
C566 C567 1.388 . S
C567 H554 0.930 . S
C567 C566 1.388 . S
C567 C568 1.390 . S
C568 C567 1.390 . S
C568 C569 1.394 . S
C568 C574 1.465 . S
C569 C564 1.399 . S
C569 C568 1.394 . S
C569 C570 1.516 . S
C570 C569 1.516 . S
C570 C571 1.502 . S
C570 C572 1.561 . S
C570 C573 1.526 . S
C571 H555 0.959 . S
C571 H556 0.959 . S
C571 H557 0.961 . S
C571 C570 1.502 . S
C572 H558 0.960 . S
C572 H559 0.961 1_556 S
C572 H560 0.959 . S
C572 C570 1.561 . S
C573 C570 1.526 . S
C573 C574 1.396 . S
C573 C578 1.390 . S
C574 C568 1.465 . S
C574 C573 1.396 . S
C574 C575 1.399 . S
C575 H561 0.929 . S
C575 C574 1.399 . S
C575 C576 1.385 . S
C576 H562 0.931 . S
C576 C575 1.385 . S
C576 C577 1.389 . S
C577 C576 1.389 . S
C577 C578 1.387 . S
C578 H563 0.930 . S
C578 C573 1.390 . S
C578 C577 1.387 . S
H579 C591 0.930 . S
H580 C593 0.930 . S
H581 C594 0.930 . S
H582 C598 0.959 . S
H583 C598 0.959 . S
H584 C598 0.961 . S
H585 C599 0.960 . S
H586 C599 0.961 . S
H587 C599 0.959 . S
H588 C602 0.929 . S
H589 C603 0.931 . S
H590 C605 0.930 . S
C591 H579 0.930 . S
C591 C592 1.399 . S
C591 C596 1.399 . S
C592 C591 1.399 . S
C592 C593 1.376 . S
C593 H580 0.930 . S
C593 C592 1.376 . S
C593 C594 1.388 . S
C594 H581 0.930 . S
C594 C593 1.388 . S
C594 C595 1.390 . S
C595 C594 1.390 . S
C595 C596 1.394 . S
C595 C601 1.465 . S
C596 C591 1.399 . S
C596 C595 1.394 . S
C596 C597 1.516 . S
C597 C596 1.516 . S
C597 C598 1.502 . S
C597 C599 1.561 . S
C597 C600 1.526 . S
C598 H582 0.959 . S
C598 H583 0.959 . S
C598 H584 0.961 . S
C598 C597 1.502 . S
C599 H585 0.960 . S
C599 H586 0.961 . S
C599 H587 0.959 . S
C599 C597 1.561 . S
C600 C597 1.526 . S
C600 C601 1.396 . S
C600 C605 1.390 . S
C601 C595 1.465 . S
C601 C600 1.396 . S
C601 C602 1.399 . S
C602 H588 0.929 . S
C602 C601 1.399 . S
C602 C603 1.385 . S
C603 H589 0.931 . S
C603 C602 1.385 . S
C603 C604 1.389 . S
C604 C603 1.389 . S
C604 C605 1.387 . S
C605 H590 0.930 . S
C605 C600 1.390 . S
C605 C604 1.387 . S
C133 C118 1.544 . S
C145 C18 1.538 . S
C160 C8 1.506 . S
C172 C28 1.470 . S
C187 C38 1.552 . S
C199 C58 1.532 . S
C214 C48 1.509 1_554 S
C226 C68 1.441 . S
C241 C98 1.556 . S
C253 C78 1.529 . S
C268 C108 1.510 . S
C280 C88 1.449 . S
C295 C2 1.203 1_556 S
C307 C1 1.230 . S
C322 C21 1.239 . S
C334 C22 1.188 . S
C349 C42 1.210 . S
C361 C41 1.208 . S
C376 C61 1.208 . S
C388 C62 1.225 . S
C403 C81 1.233 . S
C415 C82 1.200 . S
C430 C101 1.227 . S
C442 C102 1.207 1_554 S
C457 C19 1.573 . S
C469 C89 1.625 . S
C484 C29 1.616 . S
C496 C119 1.619 . S
C511 C9 1.621 . S
C523 C59 1.575 . S
C538 C39 1.574 . S
C550 C69 1.626 . S
C565 C99 1.573 . S
C577 C49 1.625 . S
C592 C79 1.595 1_556 S
C604 C109 1.613 . S
