# Generated by pormake.
# Topology umg, (4)-cn, num edge types: 1
# Building blocks:
#     Node 0, Type 0, BuildingBlock: QUQFOY_clean_sbu_1, # of connection points: 4
#     Node 1, Type 0, BuildingBlock: QUQFOY_clean_sbu_1, # of connection points: 4
#     Node 2, Type 0, BuildingBlock: QUQFOY_clean_sbu_1, # of connection points: 4
#     Node 3, Type 0, BuildingBlock: QUQFOY_clean_sbu_1, # of connection points: 4
#     Node 4, Type 0, BuildingBlock: QUQFOY_clean_sbu_1, # of connection points: 4
#     Node 5, Type 0, BuildingBlock: QUQFOY_clean_sbu_1, # of connection points: 4
#     Node 6, Type 0, BuildingBlock: QUQFOY_clean_sbu_1, # of connection points: 4
#     Node 7, Type 0, BuildingBlock: QUQFOY_clean_sbu_1, # of connection points: 4
#     Node 8, Type 0, BuildingBlock: QUQFOY_clean_sbu_1, # of connection points: 4
#     Node 9, Type 0, BuildingBlock: QUQFOY_clean_sbu_1, # of connection points: 4
#     Node 10, Type 0, BuildingBlock: QUQFOY_clean_sbu_1, # of connection points: 4
#     Node 11, Type 0, BuildingBlock: QUQFOY_clean_sbu_1, # of connection points: 4
#     Edge 12, Type (0, 0), BuildingBlock: TEMPAE_clean_linker_10, # of connection points: 2
#     Edge 13, Type (0, 0), BuildingBlock: TEMPAE_clean_linker_10, # of connection points: 2
#     Edge 14, Type (0, 0), BuildingBlock: TEMPAE_clean_linker_10, # of connection points: 2
#     Edge 15, Type (0, 0), BuildingBlock: TEMPAE_clean_linker_10, # of connection points: 2
#     Edge 16, Type (0, 0), BuildingBlock: TEMPAE_clean_linker_10, # of connection points: 2
#     Edge 17, Type (0, 0), BuildingBlock: TEMPAE_clean_linker_10, # of connection points: 2
#     Edge 18, Type (0, 0), BuildingBlock: TEMPAE_clean_linker_10, # of connection points: 2
#     Edge 19, Type (0, 0), BuildingBlock: TEMPAE_clean_linker_10, # of connection points: 2
#     Edge 20, Type (0, 0), BuildingBlock: TEMPAE_clean_linker_10, # of connection points: 2
#     Edge 21, Type (0, 0), BuildingBlock: TEMPAE_clean_linker_10, # of connection points: 2
#     Edge 22, Type (0, 0), BuildingBlock: TEMPAE_clean_linker_10, # of connection points: 2
#     Edge 23, Type (0, 0), BuildingBlock: TEMPAE_clean_linker_10, # of connection points: 2
#     Edge 24, Type (0, 0), BuildingBlock: TEMPAE_clean_linker_10, # of connection points: 2
#     Edge 25, Type (0, 0), BuildingBlock: TEMPAE_clean_linker_10, # of connection points: 2
#     Edge 26, Type (0, 0), BuildingBlock: TEMPAE_clean_linker_10, # of connection points: 2
#     Edge 27, Type (0, 0), BuildingBlock: TEMPAE_clean_linker_10, # of connection points: 2
#     Edge 28, Type (0, 0), BuildingBlock: TEMPAE_clean_linker_10, # of connection points: 2
#     Edge 29, Type (0, 0), BuildingBlock: TEMPAE_clean_linker_10, # of connection points: 2
#     Edge 30, Type (0, 0), BuildingBlock: TEMPAE_clean_linker_10, # of connection points: 2
#     Edge 31, Type (0, 0), BuildingBlock: TEMPAE_clean_linker_10, # of connection points: 2
#     Edge 32, Type (0, 0), BuildingBlock: TEMPAE_clean_linker_10, # of connection points: 2
#     Edge 33, Type (0, 0), BuildingBlock: TEMPAE_clean_linker_10, # of connection points: 2
#     Edge 34, Type (0, 0), BuildingBlock: TEMPAE_clean_linker_10, # of connection points: 2
#     Edge 35, Type (0, 0), BuildingBlock: TEMPAE_clean_linker_10, # of connection points: 2
# Relax obj value: 0.077
# Max RMSD: 0.298
# Mean RMSD: 0.199
data_MOF--net-umg--node1-QUQFOY_clean_sbu_1--edge1-TEMPAE_clean_linker_10
_symmetry_space_group_name_H-M    P1
_symmetry_Int_Tables_number       1
_symmetry_cell_setting            triclinic
loop_
_symmetry_equiv_pos_as_xyz
'x, y, z'
_cell_length_a     29.491666
_cell_length_b     29.478062
_cell_length_c     87.134438
_cell_angle_alpha  90.004984
_cell_angle_beta   89.952543
_cell_angle_gamma 119.94501
loop_
_atom_site_label
_atom_site_type_symbol
_atom_site_fract_x
_atom_site_fract_y
_atom_site_fract_z
_atom_type_partial_charge
O0 O 0.28776 0.64967 0.05334 0.0
Cd1 Cd 0.26773 0.61432 0.07463 0.0
Cd2 Cd 0.27998 0.71281 0.08068 0.0
O3 O 0.3021 0.72968 0.05791 0.0
O4 O 0.28576 0.55635 0.07373 0.0
O5 O 0.32691 0.62571 0.08856 0.0
C6 C 0.32354 0.58349 0.08316 0.0
C7 C 0.33194 0.75134 0.10211 0.0
C8 C 0.30068 0.6955 0.04868 0.0
C9 C 0.17186 0.61824 0.08498 0.0
O10 O 0.20112 0.66773 0.08487 0.0
O11 O 0.19055 0.58842 0.08185 0.0
O12 O 0.3087 0.77333 0.09543 0.0
O13 O 0.32831 0.70998 0.09593 0.0
O14 O 0.82377 0.393 0.39618 0.0
Cd15 Cd 0.85283 0.37056 0.41455 0.0
Cd16 Cd 0.7699 0.36935 0.42697 0.0
O17 O 0.76732 0.40961 0.40794 0.0
O18 O 0.92798 0.39532 0.4089 0.0
O19 O 0.90542 0.42878 0.42808 0.0
C20 C 0.9419 0.43019 0.41956 0.0
C21 C 0.77988 0.39507 0.45255 0.0
C22 C 0.79143 0.40971 0.39581 0.0
C23 C 0.76236 0.26553 0.42188 0.0
O24 O 0.7379 0.29046 0.42351 0.0
O25 O 0.81193 0.29014 0.42002 0.0
O26 O 0.73531 0.37729 0.44571 0.0
O27 O 0.81951 0.40169 0.4445 0.0
O28 O 0.37758 0.6475 0.71787 0.0
Cd29 Cd 0.41313 0.65954 0.73895 0.0
Cd30 Cd 0.31197 0.57282 0.74484 0.0
O31 O 0.29565 0.58674 0.72273 0.0
O32 O 0.47437 0.73434 0.73814 0.0
O33 O 0.4054 0.70975 0.75289 0.0
C34 C 0.44864 0.74704 0.74754 0.0
C35 C 0.28719 0.59262 0.768 0.0
C36 C 0.33056 0.61846 0.71348 0.0
C37 C 0.40291 0.55408 0.74747 0.0
O38 O 0.35346 0.5343 0.74678 0.0
O39 O 0.43369 0.60336 0.7457 0.0
O40 O 0.25482 0.55017 0.76085 0.0
O41 O 0.33084 0.62412 0.76143 0.0
O42 O 0.65613 0.43208 0.06297 0.0
Cd43 Cd 0.68362 0.48466 0.08087 0.0
Cd44 Cd 0.6756 0.39873 0.09497 0.0
O45 O 0.6408 0.35936 0.07476 0.0
O46 O 0.6624 0.53827 0.07583 0.0
O47 O 0.62893 0.48265 0.09512 0.0
C48 C 0.62851 0.51864 0.08681 0.0
C49 C 0.63983 0.37665 0.11953 0.0
C50 C 0.63951 0.38311 0.0627 0.0
C51 C 0.78439 0.49197 0.09087 0.0
O52 O 0.75582 0.44426 0.09468 0.0
O53 O 0.76369 0.51798 0.08571 0.0
O54 O 0.65962 0.35108 0.11302 0.0
O55 O 0.63691 0.41207 0.11162 0.0
O56 O 0.41495 0.78218 0.3865 0.0
Cd57 Cd 0.40077 0.79092 0.40904 0.0
Cd58 Cd 0.47541 0.76485 0.41216 0.0
O59 O 0.4488 0.7313 0.3906 0.0
O60 O 0.32617 0.77788 0.41048 0.0
O61 O 0.35036 0.72345 0.41954 0.0
C62 C 0.31338 0.73347 0.41686 0.0
C63 C 0.4635 0.72327 0.43569 0.0
C64 C 0.43062 0.75193 0.38143 0.0
C65 C 0.50835 0.87651 0.41709 0.0
O66 O 0.52298 0.84482 0.41247 0.0
O67 O 0.45964 0.8606 0.4191 0.0
O68 O 0.49907 0.72627 0.42638 0.0
O69 O 0.43444 0.74192 0.43134 0.0
O70 O 0.6039 0.2335 0.72849 0.0
Cd71 Cd 0.5484 0.20676 0.74556 0.0
Cd72 Cd 0.63052 0.28549 0.7605 0.0
O73 O 0.6744 0.29013 0.74123 0.0
O74 O 0.49715 0.13203 0.73986 0.0
O75 O 0.54964 0.15391 0.7599 0.0
C76 C 0.51573 0.11771 0.75109 0.0
C77 C 0.64606 0.27199 0.78583 0.0
C78 C 0.65286 0.26557 0.7289 0.0
C79 C 0.53668 0.29852 0.75445 0.0
O80 O 0.58412 0.31903 0.75866 0.0
O81 O 0.51219 0.25144 0.74954 0.0
O82 O 0.67327 0.31729 0.77941 0.0
O83 O 0.61313 0.23352 0.77745 0.0
O84 O 0.45126 0.66468 0.60421 0.0
Cd85 Cd 0.50686 0.6958 0.58717 0.0
Cd86 Cd 0.42087 0.68731 0.57204 0.0
O87 O 0.37951 0.64706 0.59146 0.0
O88 O 0.56186 0.67691 0.59304 0.0
O89 O 0.50966 0.64325 0.57309 0.0
C90 C 0.54492 0.64362 0.58188 0.0
C91 C 0.41136 0.65505 0.54716 0.0
C92 C 0.40192 0.64552 0.60377 0.0
C93 C 0.51066 0.79637 0.57767 0.0
O94 O 0.4632 0.76756 0.57362 0.0
O95 O 0.53729 0.7759 0.58255 0.0
O96 O 0.37824 0.66746 0.55264 0.0
O97 O 0.44703 0.65754 0.55622 0.0
O98 O 0.65049 0.36018 0.94653 0.0
Cd99 Cd 0.6649 0.39281 0.92473 0.0
Cd100 Cd 0.57457 0.29586 0.92099 0.0
O101 O 0.58635 0.27873 0.94307 0.0
O102 O 0.74091 0.4509 0.92556 0.0
O103 O 0.71355 0.38038 0.91132 0.0
C104 C 0.75205 0.42304 0.91656 0.0
C105 C 0.58786 0.26265 0.89831 0.0
C106 C 0.61965 0.31455 0.95178 0.0
C107 C 0.56462 0.39211 0.91723 0.0
O108 O 0.54196 0.34303 0.91954 0.0
O109 O 0.61456 0.41984 0.91711 0.0
O110 O 0.543 0.23819 0.90517 0.0
O111 O 0.62478 0.3038 0.90477 0.0
O112 O 0.326 0.76111 0.27166 0.0
Cd113 Cd 0.30684 0.79255 0.25349 0.0
Cd114 Cd 0.32397 0.7223 0.23865 0.0
O115 O 0.35956 0.71966 0.25901 0.0
O116 O 0.32879 0.86739 0.25892 0.0
O117 O 0.36634 0.84551 0.24071 0.0
C118 C 0.36542 0.88172 0.24877 0.0
C119 C 0.36132 0.73766 0.21424 0.0
C120 C 0.34965 0.73499 0.27159 0.0
C121 C 0.21194 0.70062 0.24134 0.0
O122 O 0.24303 0.68351 0.23849 0.0
O123 O 0.22962 0.74718 0.24629 0.0
O124 O 0.3431 0.69247 0.22073 0.0
O125 O 0.36159 0.7749 0.22205 0.0
O126 O 0.67822 0.3032 0.61465 0.0
Cd127 Cd 0.64216 0.2831 0.59354 0.0
Cd128 Cd 0.7395 0.2934 0.58712 0.0
O129 O 0.75798 0.3175 0.60979 0.0
O130 O 0.585 0.3021 0.59475 0.0
O131 O 0.65395 0.34268 0.5797 0.0
C132 C 0.61228 0.33994 0.58533 0.0
C133 C 0.77691 0.34374 0.56524 0.0
C134 C 0.72426 0.31651 0.61915 0.0
C135 C 0.64354 0.18573 0.5835 0.0
O136 O 0.69313 0.21418 0.58348 0.0
O137 O 0.61461 0.20549 0.58653 0.0
O138 O 0.799 0.32067 0.57196 0.0
O139 O 0.73602 0.34074 0.57157 0.0
O140 O 0.2348 0.58117 0.93728 0.0
Cd141 Cd 0.21418 0.53181 0.91859 0.0
Cd142 Cd 0.29363 0.62157 0.90677 0.0
O143 O 0.2836 0.65735 0.92586 0.0
O144 O 0.14016 0.47368 0.92312 0.0
O145 O 0.1593 0.53278 0.90504 0.0
C146 C 0.12415 0.49399 0.91282 0.0
C147 C 0.27364 0.6273 0.88133 0.0
C148 C 0.26035 0.63095 0.93777 0.0
C149 C 0.31593 0.53486 0.91142 0.0
O150 O 0.33552 0.58421 0.91041 0.0
O151 O 0.26637 0.50486 0.91271 0.0
O152 O 0.31567 0.66484 0.88741 0.0
O153 O 0.24236 0.58881 0.88996 0.0
O154 O 0.71966 0.3566 0.2816 0.0
Cd155 Cd 0.73359 0.33669 0.26013 0.0
Cd156 Cd 0.72143 0.42158 0.25325 0.0
O157 O 0.70381 0.42087 0.27636 0.0
O158 O 0.71306 0.26016 0.26142 0.0
O159 O 0.67097 0.28925 0.24729 0.0
C160 C 0.67396 0.25004 0.25258 0.0
C161 C 0.66859 0.41067 0.23218 0.0
C162 C 0.70792 0.39064 0.28601 0.0
C163 C 0.82806 0.43268 0.24777 0.0
O164 O 0.79941 0.4536 0.24805 0.0
O165 O 0.80941 0.38472 0.25153 0.0
O166 O 0.69381 0.45559 0.23895 0.0
O167 O 0.6702 0.37159 0.2382 0.0
C168 C 0.22941 0.63093 0.96433 0.0
C169 C 0.26662 0.65693 0.95278 0.0
C170 C 0.23887 0.64908 0.97949 0.0
C171 C 0.28709 0.69403 0.98327 0.0
C172 C 0.32315 0.72277 0.97146 0.0
C173 C 0.31235 0.70397 0.95628 0.0
C174 C 0.19881 0.61769 0.99166 0.0
C175 C 0.37484 0.77096 0.97499 0.0
C176 C 0.29167 0.73696 0.02463 0.0
C177 C 0.30889 0.70604 0.03203 0.0
C178 C 0.28786 0.73677 0.00852 0.0
C179 C 0.30216 0.70539 0.99973 0.0
C180 C 0.32414 0.67811 0.00715 0.0
C181 C 0.32686 0.67848 0.02319 0.0
C182 C 0.26451 0.76659 0.00106 0.0
C183 C 0.34085 0.64493 0.99824 0.0
H184 H 0.19367 0.59493 0.96163 0.0
H185 H 0.34127 0.72423 0.94739 0.0
H186 H 0.21393 0.59746 0.99902 0.0
H187 H 0.19154 0.64382 0.99915 0.0
H188 H 0.16098 0.58772 0.98662 0.0
H189 H 0.39359 0.79428 0.96449 0.0
H190 H 0.36981 0.79621 0.98346 0.0
H191 H 0.40172 0.75901 0.98011 0.0
H192 H 0.2776 0.75822 0.03143 0.0
H193 H 0.34076 0.65501 0.02889 0.0
H194 H 0.22316 0.73891 0.998 0.0
H195 H 0.28558 0.78575 0.99032 0.0
H196 H 0.26535 0.79684 0.00885 0.0
H197 H 0.30572 0.60982 0.99369 0.0
H198 H 0.36307 0.63167 0.00546 0.0
H199 H 0.36553 0.66703 0.9883 0.0
C200 C 0.72868 0.41819 0.37818 0.0
C201 C 0.77788 0.42299 0.38071 0.0
C202 C 0.71149 0.41957 0.36321 0.0
C203 C 0.74444 0.42616 0.35055 0.0
C204 C 0.7958 0.43555 0.35321 0.0
C205 C 0.81178 0.43367 0.36823 0.0
C206 C 0.65669 0.40995 0.36089 0.0
C207 C 0.83262 0.44354 0.3401 0.0
C208 C 0.69423 0.35636 0.3127 0.0
C209 C 0.70525 0.39797 0.30274 0.0
C210 C 0.7029 0.36447 0.32853 0.0
C211 C 0.72355 0.41561 0.33458 0.0
C212 C 0.73068 0.45703 0.32477 0.0
C213 C 0.72126 0.44767 0.30892 0.0
C214 C 0.69388 0.3189 0.33856 0.0
C215 C 0.75215 0.51198 0.33077 0.0
H216 H 0.70223 0.40996 0.38778 0.0
H217 H 0.85012 0.43814 0.37011 0.0
H218 H 0.65593 0.43619 0.35189 0.0
H219 H 0.63107 0.36904 0.35699 0.0
H220 H 0.64008 0.4158 0.37166 0.0
H221 H 0.87295 0.45627 0.34414 0.0
H222 H 0.81803 0.4063 0.33368 0.0
H223 H 0.83423 0.47324 0.33196 0.0
H224 H 0.68124 0.31771 0.30801 0.0
H225 H 0.72994 0.48003 0.30127 0.0
H226 H 0.67163 0.3173 0.34901 0.0
H227 H 0.73214 0.32411 0.34233 0.0
H228 H 0.67218 0.28085 0.33246 0.0
H229 H 0.73399 0.51184 0.34194 0.0
H230 H 0.74568 0.53702 0.32256 0.0
H231 H 0.79488 0.52982 0.33268 0.0
C232 C 0.34997 0.66406 0.68835 0.0
C233 C 0.3192 0.61868 0.69696 0.0
C234 C 0.35009 0.66263 0.67229 0.0
C235 C 0.31902 0.61443 0.66463 0.0
C236 C 0.28403 0.56955 0.6732 0.0
C237 C 0.2844 0.57223 0.68934 0.0
C238 C 0.38735 0.71175 0.66364 0.0
C239 C 0.24973 0.51764 0.66547 0.0
C240 C 0.32783 0.63018 0.62126 0.0
C241 C 0.37224 0.6258 0.61827 0.0
C242 C 0.30687 0.62244 0.63619 0.0
C243 C 0.33086 0.60984 0.64826 0.0
C244 C 0.37261 0.60066 0.64492 0.0
C245 C 0.39284 0.60894 0.63 0.0
C246 C 0.26187 0.63183 0.63923 0.0
C247 C 0.39895 0.58635 0.65735 0.0
H248 H 0.37639 0.70023 0.69422 0.0
H249 H 0.26049 0.53702 0.69595 0.0
H250 H 0.42051 0.70786 0.65918 0.0
H251 H 0.3675 0.7176 0.65367 0.0
H252 H 0.40343 0.74714 0.67103 0.0
H253 H 0.21698 0.49047 0.67302 0.0
H254 H 0.2334 0.52288 0.65458 0.0
H255 H 0.2735 0.49915 0.66263 0.0
H256 H 0.31166 0.64311 0.61222 0.0
H257 H 0.42666 0.60468 0.62768 0.0
H258 H 0.27716 0.6715 0.64418 0.0
H259 H 0.23407 0.60318 0.64764 0.0
H260 H 0.24036 0.62944 0.62852 0.0
H261 H 0.42099 0.62041 0.66508 0.0
H262 H 0.4267 0.57483 0.65259 0.0
H263 H 0.36941 0.55359 0.66442 0.0
C264 C 0.62976 0.31302 0.04435 0.0
C265 C 0.62287 0.35571 0.04776 0.0
C266 C 0.62402 0.29408 0.02922 0.0
C267 C 0.61075 0.31824 0.01735 0.0
C268 C 0.59957 0.35843 0.02104 0.0
C269 C 0.606 0.37678 0.03615 0.0
C270 C 0.6359 0.25092 0.02579 0.0
C271 C 0.58452 0.38486 0.00882 0.0
C272 C 0.66474 0.33884 0.97707 0.0
C273 C 0.61985 0.30604 0.96853 0.0
C274 C 0.66327 0.33979 0.99313 0.0
C275 C 0.61553 0.30749 0.00089 0.0
C276 C 0.57113 0.27116 0.99241 0.0
C277 C 0.57387 0.27071 0.97628 0.0
C278 C 0.71184 0.37857 0.0017 0.0
C279 C 0.51965 0.23579 0.00024 0.0
H280 H 0.64283 0.29659 0.05328 0.0
H281 H 0.59991 0.40931 0.03877 0.0
H282 H 0.60724 0.22246 0.01752 0.0
H283 H 0.67523 0.26801 0.02046 0.0
H284 H 0.63561 0.2297 0.03636 0.0
H285 H 0.57163 0.41128 0.01379 0.0
H286 H 0.6186 0.40835 0.00122 0.0
H287 H 0.55251 0.35526 0.00157 0.0
H288 H 0.70062 0.36573 0.97115 0.0
H289 H 0.53901 0.24524 0.96974 0.0
H290 H 0.71894 0.35951 0.01165 0.0
H291 H 0.70631 0.41071 0.00619 0.0
H292 H 0.74715 0.39597 0.99425 0.0
H293 H 0.52568 0.21907 0.01093 0.0
H294 H 0.49247 0.20326 0.99264 0.0
H295 H 0.50078 0.25891 0.00346 0.0
C296 C 0.41336 0.72844 0.28923 0.0
C297 C 0.36363 0.72184 0.28652 0.0
C298 C 0.42938 0.72587 0.30428 0.0
C299 C 0.3944 0.71572 0.31669 0.0
C300 C 0.34256 0.7042 0.31369 0.0
C301 C 0.32807 0.70801 0.29868 0.0
C302 C 0.48491 0.73832 0.307 0.0
C303 C 0.30358 0.69226 0.32649 0.0
C304 C 0.4169 0.69475 0.35847 0.0
C305 C 0.42916 0.74339 0.3647 0.0
C306 C 0.40858 0.68561 0.34257 0.0
C307 C 0.41359 0.72638 0.33282 0.0
C308 C 0.42995 0.7766 0.33902 0.0
C309 C 0.43698 0.78427 0.35487 0.0
C310 C 0.39109 0.63155 0.3364 0.0
C311 C 0.4367 0.82155 0.32906 0.0
H312 H 0.44083 0.73911 0.2798 0.0
H313 H 0.28929 0.70215 0.29651 0.0
H314 H 0.50833 0.77912 0.31125 0.0
H315 H 0.48646 0.71216 0.31588 0.0
H316 H 0.50342 0.73471 0.29631 0.0
H317 H 0.26318 0.67692 0.32208 0.0
H318 H 0.30364 0.66317 0.33455 0.0
H319 H 0.31474 0.72854 0.33309 0.0
H320 H 0.41101 0.66315 0.36608 0.0
H321 H 0.44745 0.82223 0.35965 0.0
H322 H 0.41114 0.63366 0.32542 0.0
H323 H 0.34845 0.61143 0.33405 0.0
H324 H 0.39865 0.60746 0.34469 0.0
H325 H 0.46077 0.82548 0.31882 0.0
H326 H 0.45552 0.85939 0.33535 0.0
H327 H 0.39786 0.81377 0.32495 0.0
C328 C 0.66236 0.23937 0.70252 0.0
C329 C 0.68278 0.27636 0.71439 0.0
C330 C 0.68262 0.25189 0.68762 0.0
C331 C 0.72449 0.30282 0.68442 0.0
C332 C 0.74847 0.33884 0.69663 0.0
C333 C 0.72727 0.32517 0.71153 0.0
C334 C 0.65605 0.21188 0.67504 0.0
C335 C 0.79386 0.3931 0.69378 0.0
C336 C 0.76977 0.31288 0.64312 0.0
C337 C 0.73551 0.32595 0.63577 0.0
C338 C 0.77047 0.30976 0.65925 0.0
C339 C 0.73619 0.31997 0.6681 0.0
C340 C 0.70555 0.33823 0.66073 0.0
C341 C 0.70556 0.3409 0.64469 0.0
C342 C 0.80457 0.29128 0.66667 0.0
C343 C 0.66885 0.35023 0.66966 0.0
H344 H 0.62856 0.2012 0.70472 0.0
H345 H 0.74344 0.35387 0.72067 0.0
H346 H 0.63442 0.22462 0.66739 0.0
H347 H 0.68543 0.20851 0.66793 0.0
H348 H 0.62792 0.17253 0.67966 0.0
H349 H 0.81551 0.41144 0.70453 0.0
H350 H 0.82142 0.39229 0.68526 0.0
H351 H 0.77897 0.41814 0.68905 0.0
H352 H 0.79318 0.30148 0.63629 0.0
H353 H 0.67967 0.35191 0.63907 0.0
H354 H 0.78058 0.24893 0.66933 0.0
H355 H 0.82123 0.31223 0.67762 0.0
H356 H 0.83706 0.29694 0.65898 0.0
H357 H 0.63579 0.31324 0.67417 0.0
H358 H 0.65256 0.36982 0.66246 0.0
H359 H 0.68925 0.37573 0.67962 0.0
C360 C 0.34622 0.7027 0.18767 0.0
C361 C 0.37406 0.74473 0.19771 0.0
C362 C 0.34881 0.71054 0.17175 0.0
C363 C 0.38162 0.76135 0.1657 0.0
C364 C 0.41317 0.80309 0.17576 0.0
C365 C 0.40814 0.79454 0.1917 0.0
C366 C 0.31352 0.6651 0.1615 0.0
C367 C 0.45043 0.85723 0.16974 0.0
C368 C 0.39343 0.7562 0.12253 0.0
C369 C 0.35462 0.7671 0.1176 0.0
C370 C 0.40648 0.75916 0.13814 0.0
C371 C 0.37841 0.77107 0.14907 0.0
C372 C 0.34157 0.78537 0.14401 0.0
C373 C 0.33083 0.78411 0.12828 0.0
C374 C 0.44776 0.74609 0.14298 0.0
C375 C 0.30984 0.79717 0.15526 0.0
H376 H 0.31944 0.66428 0.1923 0.0
H377 H 0.42988 0.82709 0.19946 0.0
H378 H 0.28529 0.67366 0.1556 0.0
H379 H 0.33681 0.65937 0.15251 0.0
H380 H 0.29116 0.62791 0.168 0.0
H381 H 0.47911 0.88222 0.17861 0.0
H382 H 0.47204 0.85514 0.15958 0.0
H383 H 0.42809 0.87643 0.16607 0.0
H384 H 0.41204 0.74322 0.11426 0.0
H385 H 0.30043 0.79203 0.1245 0.0
H386 H 0.42868 0.70563 0.14758 0.0
H387 H 0.47267 0.77286 0.15222 0.0
H388 H 0.47312 0.7486 0.1332 0.0
H389 H 0.28363 0.76124 0.16186 0.0
H390 H 0.28545 0.81105 0.14946 0.0
H391 H 0.33581 0.82736 0.16361 0.0
C392 C 0.74038 0.36979 0.47859 0.0
C393 C 0.78406 0.4012 0.46942 0.0
C394 C 0.74507 0.36783 0.49456 0.0
C395 C 0.79437 0.39943 0.50162 0.0
C396 C 0.83794 0.4338 0.49251 0.0
C397 C 0.83251 0.43353 0.47646 0.0
C398 C 0.69782 0.32969 0.50377 0.0
C399 C 0.8906 0.46958 0.49964 0.0
C400 C 0.78172 0.40534 0.54481 0.0
C401 C 0.79272 0.36656 0.54973 0.0
C402 C 0.78641 0.41978 0.52927 0.0
C403 C 0.80044 0.39331 0.51835 0.0
C404 C 0.81426 0.3561 0.52342 0.0
C405 C 0.81105 0.34382 0.5391 0.0
C406 C 0.77336 0.46112 0.52445 0.0
C407 C 0.82819 0.32601 0.51216 0.0
H408 H 0.70298 0.34431 0.47319 0.0
H409 H 0.86636 0.45799 0.4694 0.0
H410 H 0.70582 0.30063 0.5094 0.0
H411 H 0.68959 0.35057 0.51297 0.0
H412 H 0.66224 0.30832 0.49656 0.0
H413 H 0.91823 0.49902 0.49134 0.0
H414 H 0.88626 0.49034 0.50967 0.0
H415 H 0.90801 0.44616 0.50386 0.0
H416 H 0.76768 0.42313 0.55303 0.0
H417 H 0.81901 0.31341 0.54285 0.0
H418 H 0.73448 0.44226 0.51881 0.0
H419 H 0.80244 0.48832 0.51601 0.0
H420 H 0.77222 0.48411 0.5344 0.0
H421 H 0.79342 0.30037 0.50506 0.0
H422 H 0.84152 0.30121 0.51799 0.0
H423 H 0.85947 0.35317 0.50425 0.0
C424 C 0.32139 0.62012 0.79422 0.0
C425 C 0.27901 0.60202 0.7841 0.0
C426 C 0.3153 0.62601 0.80988 0.0
C427 C 0.26604 0.61583 0.81549 0.0
C428 C 0.22356 0.59996 0.80517 0.0
C429 C 0.23019 0.59187 0.78959 0.0
C430 C 0.36114 0.6409 0.8205 0.0
C431 C 0.17116 0.59107 0.81062 0.0
C432 C 0.24406 0.57587 0.85729 0.0
C433 C 0.26461 0.62448 0.86463 0.0
C434 C 0.24202 0.57215 0.84125 0.0
C435 C 0.25883 0.61797 0.83234 0.0
C436 C 0.27571 0.66666 0.83975 0.0
C437 C 0.27973 0.66959 0.85585 0.0
C438 C 0.2259 0.51983 0.8339 0.0
C439 C 0.29163 0.71594 0.83066 0.0
H440 H 0.35906 0.62751 0.78996 0.0
H441 H 0.19757 0.57826 0.7817 0.0
H442 H 0.3715 0.67787 0.82656 0.0
H443 H 0.3504 0.6101 0.82935 0.0
H444 H 0.39638 0.64615 0.81429 0.0
H445 H 0.14496 0.58677 0.8009 0.0
H446 H 0.1516 0.55505 0.8177 0.0
H447 H 0.17638 0.62413 0.81795 0.0
H448 H 0.23271 0.54099 0.86409 0.0
H449 H 0.29514 0.70712 0.86155 0.0
H450 H 0.26 0.52176 0.82787 0.0
H451 H 0.19501 0.51018 0.8252 0.0
H452 H 0.21116 0.48754 0.84243 0.0
H453 H 0.33075 0.7299 0.82548 0.0
H454 H 0.29362 0.74775 0.83798 0.0
H455 H 0.26365 0.70817 0.82115 0.0
C456 C 0.59401 0.38656 0.14243 0.0
C457 C 0.62794 0.37103 0.13614 0.0
C458 C 0.58918 0.38923 0.15842 0.0
C459 C 0.62066 0.37822 0.16827 0.0
C460 C 0.6535 0.36066 0.16194 0.0
C461 C 0.65598 0.35639 0.14597 0.0
C462 C 0.55204 0.40586 0.16473 0.0
C463 C 0.68868 0.34962 0.17197 0.0
C464 C 0.67057 0.44743 0.20636 0.0
C465 C 0.64632 0.40553 0.21667 0.0
C466 C 0.66024 0.43976 0.19056 0.0
C467 C 0.62341 0.38933 0.18504 0.0
C468 C 0.59491 0.34823 0.19561 0.0
C469 C 0.60747 0.35653 0.2113 0.0
C470 C 0.69241 0.48446 0.17971 0.0
C471 C 0.55369 0.29456 0.19029 0.0
H472 H 0.5721 0.39773 0.13485 0.0
H473 H 0.68264 0.34486 0.14116 0.0
H474 H 0.5299 0.38101 0.17465 0.0
H475 H 0.57453 0.44684 0.16886 0.0
H476 H 0.52382 0.4036 0.1559 0.0
H477 H 0.71125 0.33549 0.16526 0.0
H478 H 0.71673 0.38582 0.17815 0.0
H479 H 0.66526 0.31976 0.18074 0.0
H480 H 0.70099 0.48523 0.21045 0.0
H481 H 0.58846 0.32407 0.21927 0.0
H482 H 0.6668 0.48945 0.1714 0.0
H483 H 0.71905 0.47551 0.17302 0.0
H484 H 0.71639 0.52208 0.18585 0.0
H485 H 0.52889 0.29758 0.18123 0.0
H486 H 0.52821 0.27054 0.1999 0.0
H487 H 0.57283 0.27376 0.18528 0.0
C488 C 0.45996 0.65229 0.5241 0.0
C489 C 0.41343 0.64579 0.53054 0.0
C490 C 0.46768 0.65601 0.50816 0.0
C491 C 0.42741 0.65186 0.49842 0.0
C492 C 0.37841 0.6398 0.50479 0.0
C493 C 0.37221 0.63763 0.52081 0.0
C494 C 0.52078 0.66963 0.50191 0.0
C495 C 0.33388 0.63337 0.49476 0.0
C496 C 0.4653 0.73934 0.46342 0.0
C497 C 0.45908 0.70481 0.45155 0.0
C498 C 0.45661 0.72272 0.47871 0.0
C499 C 0.43957 0.66964 0.48218 0.0
C500 C 0.43364 0.63452 0.4702 0.0
C501 C 0.44412 0.65278 0.45494 0.0
C502 C 0.46478 0.76192 0.49112 0.0
C503 C 0.41433 0.57746 0.47342 0.0
H504 H 0.49202 0.65848 0.53153 0.0
H505 H 0.33593 0.63193 0.52571 0.0
H506 H 0.51695 0.64621 0.49154 0.0
H507 H 0.5421 0.71151 0.49851 0.0
H508 H 0.54473 0.66321 0.51054 0.0
H509 H 0.29604 0.61465 0.50105 0.0
H510 H 0.34192 0.67238 0.4907 0.0
H511 H 0.33007 0.60947 0.48449 0.0
H512 H 0.47673 0.77956 0.46068 0.0
H513 H 0.43855 0.62605 0.44564 0.0
H514 H 0.49158 0.76193 0.50006 0.0
H515 H 0.42694 0.75083 0.49678 0.0
H516 H 0.48141 0.80233 0.48656 0.0
H517 H 0.43789 0.57323 0.48263 0.0
H518 H 0.41578 0.55626 0.46306 0.0
H519 H 0.37329 0.5585 0.47757 0.0
C520 C 0.55582 0.23183 0.8718 0.0
C521 C 0.59588 0.24856 0.88268 0.0
C522 C 0.56623 0.23028 0.85612 0.0
C523 C 0.61754 0.24413 0.85134 0.0
C524 C 0.65693 0.25657 0.86249 0.0
C525 C 0.64589 0.25966 0.87801 0.0
C526 C 0.52337 0.21806 0.84461 0.0
C527 C 0.71155 0.26958 0.85797 0.0
C528 C 0.62956 0.21656 0.80928 0.0
C529 C 0.64684 0.26591 0.80267 0.0
C530 C 0.62267 0.2093 0.82525 0.0
C531 C 0.63128 0.25196 0.83471 0.0
C532 C 0.65019 0.30217 0.8281 0.0
C533 C 0.6586 0.30866 0.8122 0.0
C534 C 0.60455 0.15569 0.83192 0.0
C535 C 0.65877 0.34853 0.83767 0.0
H536 H 0.51731 0.22386 0.87538 0.0
H537 H 0.67691 0.27248 0.88645 0.0
H538 H 0.53345 0.25373 0.83781 0.0
H539 H 0.51969 0.18754 0.83646 0.0
H540 H 0.48484 0.20446 0.85021 0.0
H541 H 0.73468 0.26946 0.86801 0.0
H542 H 0.71015 0.24123 0.84934 0.0
H543 H 0.73231 0.30904 0.85266 0.0
H544 H 0.62051 0.18341 0.80193 0.0
H545 H 0.67136 0.34676 0.80713 0.0
H546 H 0.56338 0.13822 0.83581 0.0
H547 H 0.62847 0.15857 0.84209 0.0
H548 H 0.60692 0.12882 0.82343 0.0
H549 H 0.62132 0.34026 0.84309 0.0
H550 H 0.67394 0.38497 0.83079 0.0
H551 H 0.68688 0.35546 0.84705 0.0
C552 C 0.86381 0.49535 0.10225 0.0
C553 C 0.84212 0.51513 0.09166 0.0
C554 C 0.91752 0.51192 0.10215 0.0
C555 C 0.95043 0.54833 0.09096 0.0
C556 C 0.92897 0.56924 0.08041 0.0
C557 C 0.87517 0.55284 0.08101 0.0
C558 C 0.93886 0.48975 0.11389 0.0
C559 C 0.96252 0.60763 0.06817 0.0
C560 C 0.09816 0.62512 0.09672 0.0
C561 C 0.11504 0.59658 0.08783 0.0
C562 C 0.04479 0.60914 0.09815 0.0
C563 C 1.00714 0.56412 0.0902 0.0
C564 C 0.02383 0.53452 0.08144 0.0
C565 C 0.07754 0.55076 0.0805 0.0
C566 C 0.02879 0.64104 0.10797 0.0
C567 C 0.98508 0.48665 0.07263 0.0
H568 H 0.83852 0.46633 0.11056 0.0
H569 H 0.85859 0.56781 0.07269 0.0
H570 H 0.95389 0.46646 0.10805 0.0
H571 H 0.97219 0.52197 0.12011 0.0
H572 H 0.90877 0.46426 0.12239 0.0
H573 H 0.94009 0.62055 0.06092 0.0
H574 H 0.99566 0.64261 0.07351 0.0
H575 H 0.97945 0.58939 0.06068 0.0
H576 H 0.12694 0.6605 0.10247 0.0
H577 H 0.09033 0.52891 0.07347 0.0
H578 H 0.99904 0.61549 0.11652 0.0
H579 H 1.01059 0.65849 0.1007 0.0
H580 H 0.06249 0.67309 0.11415 0.0
H581 H 0.95517 0.45765 0.08053 0.0
H582 H 1.00417 0.46766 0.06645 0.0
H583 H 0.96424 0.49773 0.06414 0.0
C584 C 0.68771 0.1849 0.41121 0.0
C585 C 0.73109 0.20776 0.42103 0.0
C586 C 0.6536 0.13057 0.41101 0.0
C587 C 0.66192 0.09819 0.42127 0.0
C588 C 0.70595 0.12109 0.4312 0.0
C589 C 0.74055 0.1757 0.43081 0.0
C590 C 0.60834 0.10794 0.39987 0.0
C591 C 0.71552 0.08815 0.44256 0.0
C592 C 0.5397 0.96578 0.42864 0.0
C593 C 0.54848 0.93265 0.41908 0.0
C594 C 0.57747 0.01926 0.43007 0.0
C595 C 0.62444 0.04045 0.42139 0.0
C596 C 0.63357 1.00698 0.41184 0.0
C597 C 0.59591 0.95355 0.41097 0.0
C598 C 0.56672 0.0533 0.44066 0.0
C599 C 0.68219 0.02797 0.40203 0.0
H600 H 0.68039 0.2098 0.40367 0.0
H601 H 0.77363 0.19352 0.43858 0.0
H602 H 0.60919 0.07707 0.39279 0.0
H603 H 0.57078 0.0893 0.40625 0.0
H604 H 0.60903 0.13813 0.39209 0.0
H605 H 0.75158 0.11173 0.44942 0.0
H606 H 0.68169 0.06853 0.4505 0.0
H607 H 0.71895 0.05693 0.43649 0.0
H608 H 0.50337 0.94988 0.43503 0.0
H609 H 0.60294 0.92838 0.40346 0.0
H610 H 0.5613 0.08201 0.43384 0.0
H611 H 0.6006 0.07587 0.44839 0.0
H612 H 0.53114 0.03007 0.44777 0.0
H613 H 0.68258 0.05631 0.39357 0.0
H614 H 0.68453 0.99648 0.39571 0.0
H615 H 0.71773 0.04933 0.40922 0.0
C616 C 0.52809 0.37195 0.76556 0.0
C617 C 0.51185 0.33165 0.75469 0.0
C618 C 0.50978 0.40772 0.76512 0.0
C619 C 0.47537 0.40414 0.75326 0.0
C620 C 0.45812 0.36299 0.74237 0.0
C621 C 0.47605 0.3268 0.74333 0.0
C622 C 0.52794 0.44987 0.77723 0.0
C623 C 0.42212 0.35824 0.7294 0.0
C624 C 0.39402 0.47098 0.75789 0.0
C625 C 0.42389 0.51808 0.74986 0.0
C626 C 0.41074 0.43411 0.75932 0.0
C627 C 0.45789 0.44377 0.75219 0.0
C628 C 0.48847 0.49145 0.74415 0.0
C629 C 0.47144 0.52835 0.74325 0.0
C630 C 0.37773 0.38465 0.7684 0.0
C631 C 0.53855 0.50294 0.73617 0.0
H632 H 0.55562 0.37577 0.77441 0.0
H633 H 0.46388 0.29614 0.7348 0.0
H634 H 0.55143 0.48893 0.77184 0.0
H635 H 0.49373 0.44909 0.78282 0.0
H636 H 0.55211 0.44534 0.78622 0.0
H637 H 0.41201 0.32392 0.72194 0.0
H638 H 0.38542 0.35463 0.73403 0.0
H639 H 0.44103 0.39421 0.72226 0.0
H640 H 0.35734 0.46291 0.76311 0.0
H641 H 0.49439 0.56437 0.73688 0.0
H642 H 0.40164 0.38057 0.77754 0.0
H643 H 0.36361 0.35003 0.76079 0.0
H644 H 0.3433 0.38407 0.7738 0.0
H645 H 0.5666 0.50275 0.74461 0.0
H646 H 0.55745 0.54139 0.73021 0.0
H647 H 0.53038 0.47186 0.72763 0.0
C648 C 0.57509 0.09213 0.58857 0.0
C649 C 0.62063 0.1286 0.58088 0.0
C650 C 0.55751 0.03808 0.58776 0.0
C651 C 0.58538 0.01999 0.57874 0.0
C652 C 0.63012 0.05661 0.57045 0.0
C653 C 0.64754 0.11037 0.57178 0.0
C654 C 0.51011 1.00047 0.59697 0.0
C655 C 0.66014 0.03911 0.56034 0.0
C656 C 0.57204 0.88687 0.58767 0.0
C657 C 0.53333 0.85413 0.57722 0.0
C658 C 0.58921 0.94085 0.58834 0.0
C659 C 0.56809 0.96286 0.57806 0.0
C660 C 0.53036 0.93019 0.56713 0.0
C661 C 0.51304 0.87629 0.56697 0.0
C662 C 0.62894 0.97411 0.60031 0.0
C663 C 0.50788 0.95209 0.55568 0.0
H664 H 0.55451 0.10599 0.59576 0.0
H665 H 0.68269 0.13836 0.56576 0.0
H666 H 0.47993 0.9707 0.5893 0.0
H667 H 0.5212 0.97929 0.60532 0.0
H668 H 0.49257 0.02062 0.60333 0.0
H669 H 0.69215 0.07217 0.55393 0.0
H670 H 0.67738 0.0203 0.56743 0.0
H671 H 0.63334 1.00945 0.55197 0.0
H672 H 0.58748 0.86997 0.59572 0.0
H673 H 0.4833 0.85129 0.55879 0.0
H674 H 0.61221 0.9923 0.6079 0.0
H675 H 0.66404 1.00637 0.59472 0.0
H676 H 0.64136 0.95112 0.6075 0.0
H677 H 0.48627 0.96849 0.56178 0.0
H678 H 0.48081 0.92197 0.54744 0.0
H679 H 0.5399 0.98458 0.54912 0.0
C680 C 0.40208 0.54355 0.91823 0.0
C681 C 0.35218 0.51354 0.91172 0.0
C682 C 0.43772 0.5251 0.91876 0.0
C683 C 0.42397 0.47598 0.91218 0.0
C684 C 0.37396 0.44586 0.9053 0.0
C685 C 0.33829 0.46459 0.90539 0.0
C686 C 0.48966 0.55773 0.92671 0.0
C687 C 0.35822 0.39391 0.89781 0.0
C688 C 0.53648 0.44985 0.90391 0.0
C689 C 0.53131 0.41645 0.91604 0.0
C690 C 0.50108 0.46862 0.90226 0.0
C691 C 0.46088 0.45508 0.91331 0.0
C692 C 0.45671 0.4225 0.92581 0.0
C693 C 0.49129 0.40289 0.92685 0.0
C694 C 0.50601 0.50206 0.88855 0.0
C695 C 0.4159 0.40856 0.93817 0.0
H696 H 0.41294 0.58127 0.92326 0.0
H697 H 0.3 0.44149 0.90021 0.0
H698 H 0.49332 0.53521 0.93636 0.0
H699 H 0.52225 0.56702 0.91864 0.0
H700 H 0.49435 0.59502 0.93128 0.0
H701 H 0.31967 0.37709 0.89199 0.0
H702 H 0.38817 0.39857 0.88926 0.0
H703 H 0.3561 0.36559 0.90656 0.0
H704 H 0.56698 0.45976 0.89544 0.0
H705 H 0.48735 0.37712 0.93626 0.0
H706 H 0.51349 0.54107 0.89239 0.0
H707 H 0.46871 0.48371 0.88204 0.0
H708 H 0.53812 0.50758 0.88071 0.0
H709 H 0.41985 0.44476 0.94335 0.0
H710 H 0.41916 0.38444 0.94743 0.0
H711 H 0.37616 0.38653 0.93313 0.0
C712 C 0.13586 0.62088 0.23006 0.0
C713 C 0.15476 0.66384 0.24008 0.0
C714 C 0.08269 0.58208 0.22993 0.0
C715 C 0.04764 0.58548 0.24035 0.0
C716 C 0.06631 0.62931 0.25029 0.0
C717 C 0.11951 0.66828 0.2499 0.0
C718 C 0.06424 0.53696 0.21883 0.0
C719 C 0.03044 0.63414 0.26172 0.0
C720 C 0.90018 0.50959 0.23427 0.0
C721 C 0.88442 0.46678 0.2442 0.0
C722 C 0.95326 0.54727 0.23242 0.0
C723 C 0.99162 0.54293 0.24103 0.0
C724 C 0.97607 0.4989 0.25073 0.0
C725 C 0.92267 0.46099 0.25205 0.0
C726 C 0.96809 0.5926 0.22161 0.0
C727 C 1.0156 0.49314 0.26027 0.0
H728 H 0.16288 0.61731 0.2224 0.0
H729 H 0.13394 0.70102 0.25779 0.0
H730 H 0.05051 0.49987 0.22525 0.0
H731 H 0.03057 0.53298 0.21206 0.0
H732 H 0.0956 0.54189 0.21077 0.0
H733 H 0.0509 0.67064 0.2686 0.0
H734 H 0.9971 0.63363 0.25568 0.0
H735 H 1.01392 0.60013 0.26965 0.0
H736 H 0.87074 0.51417 0.22813 0.0
H737 H 0.91065 0.42837 0.25988 0.0
H738 H 0.99947 0.59694 0.21368 0.0
H739 H 0.9837 0.62949 0.22825 0.0
H740 H 0.93427 0.58769 0.21471 0.0
H741 H 0.04688 0.49471 0.25282 0.0
H742 H 0.99754 0.45586 0.26684 0.0
H743 H 0.03454 0.52622 0.26848 0.0
C744 C 0.5477 0.50766 0.09993 0.0
C745 C 0.58691 0.53279 0.08877 0.0
C746 C 0.50432 0.51537 0.10061 0.0
C747 C 0.49983 0.54898 0.08986 0.0
C748 C 0.54029 0.576 0.07896 0.0
C749 C 0.58326 0.56762 0.07855 0.0
C750 C 0.46237 0.4861 0.11249 0.0
C751 C 0.53732 0.61245 0.06735 0.0
C752 C 0.36602 0.52895 0.07868 0.0
C753 C 0.36504 0.57013 0.08645 0.0
C754 C 0.40889 0.52064 0.08008 0.0
C755 C 0.45191 0.55424 0.0895 0.0
C756 C 0.45009 0.59445 0.09789 0.0
C757 C 0.4068 0.60193 0.09626 0.0
C758 C 0.40903 0.47711 0.07099 0.0
C759 C 0.4948 0.63094 0.10815 0.0
H760 H 0.55004 0.48063 0.10788 0.0
H761 H 0.61321 0.5872 0.06988 0.0
H762 H 0.45413 0.51357 0.11897 0.0
H763 H 0.42551 0.45754 0.10671 0.0
H764 H 0.47349 0.46461 0.12074 0.0
H765 H 0.57313 0.63254 0.06015 0.0
H766 H 0.50315 0.59002 0.05971 0.0
H767 H 0.53152 0.64252 0.07325 0.0
H768 H 0.33409 0.50422 0.07106 0.0
H769 H 0.4065 0.63387 0.10234 0.0
H770 H 0.41674 0.45171 0.07867 0.0
H771 H 0.44095 0.494 0.06235 0.0
H772 H 0.37139 0.45247 0.06493 0.0
H773 H 0.5049 0.60824 0.11622 0.0
H774 H 0.48552 0.6573 0.11488 0.0
H775 H 0.53003 0.65535 0.10106 0.0
C776 C 0.03475 0.47906 0.41014 0.0
C777 C 0.99722 0.47316 0.42108 0.0
C778 C 0.0858 0.52242 0.41046 0.0
C779 C 0.10009 0.56087 0.42207 0.0
C780 C 0.06283 0.55443 0.4334 0.0
C781 C 1.01187 0.51084 0.43274 0.0
C782 C 0.12418 0.52763 0.39814 0.0
C783 C 0.07654 0.59406 0.44608 0.0
C784 C 0.2467 0.64811 0.42846 0.0
C785 C 0.25798 0.69283 0.41985 0.0
C786 C 0.19531 0.60584 0.42979 0.0
C787 C 0.15393 0.60788 0.42219 0.0
C788 C 0.16472 0.65374 0.41396 0.0
C789 C 0.21655 0.69574 0.41295 0.0
C790 C 0.18566 0.55816 0.43884 0.0
C791 C 0.12184 0.65756 0.40567 0.0
H792 H 0.02388 0.45041 0.40104 0.0
H793 H 0.98323 0.50676 0.44124 0.0
H794 H 0.13689 0.56424 0.39155 0.0
H795 H 0.15964 0.53035 0.40345 0.0
H796 H 0.10726 0.49411 0.39002 0.0
H797 H 0.04395 0.58231 0.45439 0.0
H798 H 0.11156 0.59942 0.45238 0.0
H799 H 0.08648 0.63258 0.4411 0.0
H800 H 0.27837 0.64551 0.43391 0.0
H801 H 0.22484 0.72995 0.40621 0.0
H802 H 0.17339 0.52446 0.43096 0.0
H803 H 0.15342 0.54728 0.44719 0.0
H804 H 0.22105 0.56449 0.44517 0.0
H805 H 0.10598 0.62807 0.39633 0.0
H806 H 0.1359 0.69695 0.4006 0.0
H807 H 0.08909 0.6487 0.41364 0.0
C808 C 0.52889 0.04867 0.76382 0.0
C809 C 0.50288 0.0623 0.75285 0.0
C810 C 0.5221 0.99791 0.76436 0.0
C811 C 0.48837 0.95966 0.75369 0.0
C812 C 0.4607 0.9727 0.74292 0.0
C813 C 0.46832 0.02377 0.74261 0.0
C814 C 0.55219 0.98566 0.77606 0.0
C815 C 0.42394 0.93302 0.73144 0.0
C816 C 0.50541 0.84369 0.74273 0.0
C817 C 0.46422 0.80253 0.75078 0.0
C818 C 0.51494 0.89537 0.744 0.0
C819 C 0.48251 0.90622 0.75355 0.0
C820 C 0.44249 0.86522 0.76225 0.0
C821 C 0.43388 0.81402 0.76078 0.0
C822 C 0.55833 0.93801 0.73462 0.0
C823 C 0.40713 0.87493 0.77261 0.0
H824 H 0.55583 0.07812 0.77176 0.0
H825 H 0.44809 0.03382 0.73408 0.0
H826 H 0.52506 0.95068 0.78287 0.0
H827 H 0.5798 0.9763 0.77012 0.0
H828 H 0.57477 0.01882 0.78405 0.0
H829 H 0.40398 0.94872 0.72417 0.0
H830 H 0.44601 0.92059 0.72386 0.0
H831 H 0.39378 0.89758 0.73748 0.0
H832 H 0.52899 0.83528 0.73496 0.0
H833 H 0.40199 0.78259 0.76709 0.0
H834 H 0.58416 0.97165 0.74206 0.0
H835 H 0.54135 0.95256 0.72587 0.0
H836 H 0.5825 0.92413 0.72867 0.0
H837 H 0.43068 0.90803 0.7805 0.0
H838 H 0.38074 0.83992 0.77956 0.0
H839 H 0.38278 0.88596 0.76558 0.0
C840 C 0.59415 0.59931 0.59087 0.0
C841 C 0.56074 0.60317 0.58016 0.0
C842 C 0.60348 0.5569 0.59057 0.0
C843 C 0.57876 0.51723 0.57932 0.0
C844 C 0.54668 0.52203 0.5681 0.0
C845 C 0.53812 0.56487 0.56865 0.0
C846 C 0.63836 0.55359 0.60266 0.0
C847 C 0.51974 0.48085 0.55587 0.0
C848 C 0.63296 0.42516 0.57306 0.0
C849 C 0.59974 0.38218 0.58231 0.0
C850 C 0.62595 0.46882 0.57168 0.0
C851 C 0.58463 0.46967 0.57973 0.0
C852 C 0.54978 0.42557 0.58862 0.0
C853 C 0.55777 0.38245 0.58981 0.0
C854 C 0.66388 0.51479 0.56203 0.0
C855 C 0.50495 0.42461 0.59728 0.0
H856 H 0.61176 0.62857 0.59982 0.0
H857 H 0.51222 0.56737 0.5603 0.0
H858 H 0.61506 0.51891 0.61006 0.0
H859 H 0.66945 0.54843 0.59718 0.0
H860 H 0.65711 0.58902 0.61004 0.0
H861 H 0.49905 0.49209 0.54736 0.0
H862 H 0.54857 0.47377 0.54971 0.0
H863 H 0.49085 0.44332 0.56128 0.0
H864 H 0.66559 0.42548 0.56721 0.0
H865 H 0.53195 0.34956 0.59701 0.0
H866 H 0.68657 0.5494 0.5695 0.0
H867 H 0.64237 0.52531 0.55364 0.0
H868 H 0.69175 0.50665 0.55569 0.0
H869 H 0.52045 0.45595 0.60609 0.0
H870 H 0.47985 0.38647 0.60306 0.0
H871 H 0.48032 0.43255 0.58934 0.0
C872 C 0.0522 0.50165 0.89994 0.0
C873 C 0.06782 0.47772 0.91107 0.0
C874 C 1.00064 0.49254 0.89946 0.0
C875 C 0.96356 0.45873 0.91038 0.0
C876 C 0.9785 0.43281 0.92125 0.0
C877 C 0.03036 0.44255 0.92145 0.0
C878 C 0.98638 0.52064 0.8876 0.0
C879 C 0.94017 0.39623 0.93305 0.0
C880 C 0.84875 0.47756 0.92137 0.0
C881 C 0.807 0.43618 0.91357 0.0
C882 C 0.89999 0.48596 0.92017 0.0
C883 C 0.90991 0.45228 0.91091 0.0
C884 C 0.86825 0.41164 0.90256 0.0
C885 C 0.8174 0.40406 0.904 0.0
C886 C 0.94328 0.52994 0.92921 0.0
C887 C 0.87703 0.37509 0.89247 0.0
H888 H 0.08075 0.52887 0.89185 0.0
H889 H 0.04197 0.42398 0.93012 0.0
H890 H 0.95083 0.49232 0.88124 0.0
H891 H 0.9772 0.54864 0.89338 0.0
H892 H 1.01848 0.5426 0.87923 0.0
H893 H 0.95694 0.37692 0.94015 0.0
H894 H 0.92818 0.41838 0.94075 0.0
H895 H 0.90431 0.36556 0.92733 0.0
H896 H 0.84117 0.50248 0.92882 0.0
H897 H 0.78547 0.37194 0.89791 0.0
H898 H 0.97591 0.55582 0.92145 0.0
H899 H 0.95917 0.5136 0.93774 0.0
H900 H 0.92968 0.55399 0.93536 0.0
H901 H 0.90917 0.3978 0.8842 0.0
H902 H 0.84135 0.34768 0.88595 0.0
H903 H 0.88912 0.35183 0.89963 0.0
C904 C 0.44744 0.95152 0.23623 0.0
C905 C 0.40787 0.93725 0.24728 0.0
C906 C 0.49103 1.00244 0.23575 0.0
C907 C 0.49545 0.04014 0.24663 0.0
C908 C 0.45483 0.02647 0.2575 0.0
C909 C 0.41156 0.97531 0.25768 0.0
C910 C 0.5331 0.01539 0.22389 0.0
C911 C 0.45786 0.06546 0.26928 0.0
C912 C 0.63 0.15321 0.2575 0.0
C913 C 0.63121 0.19546 0.24971 0.0
C914 C 0.58663 0.10233 0.25631 0.0
C915 C 0.54336 0.09326 0.24706 0.0
C916 C 0.54521 0.13539 0.23872 0.0
C917 C 0.58897 0.18589 0.24017 0.0
C918 C 0.58639 0.05854 0.26537 0.0
C919 C 0.50026 0.12749 0.22862 0.0
H920 H 0.44503 0.9225 0.22812 0.0
H921 H 0.38135 0.96474 0.26628 0.0
H922 H 0.54106 0.05103 0.21741 0.0
H923 H 0.57005 0.02394 0.22967 0.0
H924 H 0.52226 0.98288 0.21562 0.0
H925 H 0.42212 0.04949 0.27652 0.0
H926 H 0.49214 0.07699 0.27685 0.0
H927 H 0.46353 0.10148 0.26351 0.0
H928 H 0.66229 0.16013 0.26493 0.0
H929 H 0.58946 0.2182 0.23408 0.0
H930 H 0.57885 0.02559 0.25764 0.0
H931 H 0.55431 0.04334 0.27396 0.0
H932 H 0.62394 0.07142 0.27147 0.0
H933 H 0.49028 0.09516 0.22038 0.0
H934 H 0.50922 0.16337 0.22208 0.0
H935 H 0.46505 0.1161 0.23578 0.0
loop_
_geom_bond_atom_site_label_1
_geom_bond_atom_site_label_2
_geom_bond_distance
_geom_bond_site_symmetry_2
_ccdc_geom_bond_type
O0 Cd1 2.223 . S
O0 C8 1.315 . S
Cd1 O0 2.223 . S
Cd1 O4 2.297 . S
Cd1 O5 2.439 . S
Cd1 O11 2.240 . S
Cd2 O3 2.240 . S
Cd2 O10 2.223 . S
Cd2 O12 2.297 . S
Cd2 O13 2.439 . S
O3 Cd2 2.240 . S
O3 C8 1.279 . S
O4 Cd1 2.297 . S
O4 C6 1.247 . S
O5 Cd1 2.439 . S
O5 C6 1.208 . S
C6 O4 1.247 . S
C6 O5 1.208 . S
C7 O12 1.247 . S
C7 O13 1.208 . S
C8 O0 1.315 . S
C8 O3 1.279 . S
C9 O10 1.315 . S
C9 O11 1.279 . S
O10 Cd2 2.223 . S
O10 C9 1.315 . S
O11 Cd1 2.240 . S
O11 C9 1.279 . S
O12 Cd2 2.297 . S
O12 C7 1.247 . S
O13 Cd2 2.439 . S
O13 C7 1.208 . S
O14 Cd15 2.223 . S
O14 C22 1.315 . S
Cd15 O14 2.223 . S
Cd15 O18 2.297 . S
Cd15 O19 2.439 . S
Cd15 O25 2.240 . S
Cd16 O17 2.240 . S
Cd16 O24 2.223 . S
Cd16 O26 2.297 . S
Cd16 O27 2.439 . S
O17 Cd16 2.240 . S
O17 C22 1.279 . S
O18 Cd15 2.297 . S
O18 C20 1.247 . S
O19 Cd15 2.439 . S
O19 C20 1.208 . S
C20 O18 1.247 . S
C20 O19 1.208 . S
C21 O26 1.247 . S
C21 O27 1.208 . S
C22 O14 1.315 . S
C22 O17 1.279 . S
C23 O24 1.315 . S
C23 O25 1.279 . S
O24 Cd16 2.223 . S
O24 C23 1.315 . S
O25 Cd15 2.240 . S
O25 C23 1.279 . S
O26 Cd16 2.297 . S
O26 C21 1.247 . S
O27 Cd16 2.439 . S
O27 C21 1.208 . S
O28 Cd29 2.223 . S
O28 C36 1.315 . S
Cd29 O28 2.223 . S
Cd29 O32 2.297 . S
Cd29 O33 2.439 . S
Cd29 O39 2.240 . S
Cd30 O31 2.240 . S
Cd30 O38 2.223 . S
Cd30 O40 2.297 . S
Cd30 O41 2.439 . S
O31 Cd30 2.240 . S
O31 C36 1.279 . S
O32 Cd29 2.297 . S
O32 C34 1.247 . S
O33 Cd29 2.439 . S
O33 C34 1.208 . S
C34 O32 1.247 . S
C34 O33 1.208 . S
C35 O40 1.247 . S
C35 O41 1.208 . S
C36 O28 1.315 . S
C36 O31 1.279 . S
C37 O38 1.315 . S
C37 O39 1.279 . S
O38 Cd30 2.223 . S
O38 C37 1.315 . S
O39 Cd29 2.240 . S
O39 C37 1.279 . S
O40 Cd30 2.297 . S
O40 C35 1.247 . S
O41 Cd30 2.439 . S
O41 C35 1.208 . S
O42 Cd43 2.223 . S
O42 C50 1.315 . S
Cd43 O42 2.223 . S
Cd43 O46 2.297 . S
Cd43 O47 2.439 . S
Cd43 O53 2.240 . S
Cd44 O45 2.240 . S
Cd44 O52 2.223 . S
Cd44 O54 2.297 . S
Cd44 O55 2.439 . S
O45 Cd44 2.240 . S
O45 C50 1.279 . S
O46 Cd43 2.297 . S
O46 C48 1.247 . S
O47 Cd43 2.439 . S
O47 C48 1.208 . S
C48 O46 1.247 . S
C48 O47 1.208 . S
C49 O54 1.247 . S
C49 O55 1.208 . S
C50 O42 1.315 . S
C50 O45 1.279 . S
C51 O52 1.315 . S
C51 O53 1.279 . S
O52 Cd44 2.223 . S
O52 C51 1.315 . S
O53 Cd43 2.240 . S
O53 C51 1.279 . S
O54 Cd44 2.297 . S
O54 C49 1.247 . S
O55 Cd44 2.439 . S
O55 C49 1.208 . S
O56 Cd57 2.223 . S
O56 C64 1.315 . S
Cd57 O56 2.223 . S
Cd57 O60 2.297 . S
Cd57 O61 2.439 . S
Cd57 O67 2.240 . S
Cd58 O59 2.240 . S
Cd58 O66 2.223 . S
Cd58 O68 2.297 . S
Cd58 O69 2.439 . S
O59 Cd58 2.240 . S
O59 C64 1.279 . S
O60 Cd57 2.297 . S
O60 C62 1.247 . S
O61 Cd57 2.439 . S
O61 C62 1.208 . S
C62 O60 1.247 . S
C62 O61 1.208 . S
C63 O68 1.247 . S
C63 O69 1.208 . S
C64 O56 1.315 . S
C64 O59 1.279 . S
C65 O66 1.315 . S
C65 O67 1.279 . S
O66 Cd58 2.223 . S
O66 C65 1.315 . S
O67 Cd57 2.240 . S
O67 C65 1.279 . S
O68 Cd58 2.297 . S
O68 C63 1.247 . S
O69 Cd58 2.439 . S
O69 C63 1.208 . S
O70 Cd71 2.223 . S
O70 C78 1.315 . S
Cd71 O70 2.223 . S
Cd71 O74 2.297 . S
Cd71 O75 2.439 . S
Cd71 O81 2.240 . S
Cd72 O73 2.240 . S
Cd72 O80 2.223 . S
Cd72 O82 2.297 . S
Cd72 O83 2.439 . S
O73 Cd72 2.240 . S
O73 C78 1.279 . S
O74 Cd71 2.297 . S
O74 C76 1.247 . S
O75 Cd71 2.439 . S
O75 C76 1.208 . S
C76 O74 1.247 . S
C76 O75 1.208 . S
C77 O82 1.247 . S
C77 O83 1.208 . S
C78 O70 1.315 . S
C78 O73 1.279 . S
C79 O80 1.315 . S
C79 O81 1.279 . S
O80 Cd72 2.223 . S
O80 C79 1.315 . S
O81 Cd71 2.240 . S
O81 C79 1.279 . S
O82 Cd72 2.297 . S
O82 C77 1.247 . S
O83 Cd72 2.439 . S
O83 C77 1.208 . S
O84 Cd85 2.223 . S
O84 C92 1.315 . S
Cd85 O84 2.223 . S
Cd85 O88 2.297 . S
Cd85 O89 2.439 . S
Cd85 O95 2.240 . S
Cd86 O87 2.240 . S
Cd86 O94 2.223 . S
Cd86 O96 2.297 . S
Cd86 O97 2.439 . S
O87 Cd86 2.240 . S
O87 C92 1.279 . S
O88 Cd85 2.297 . S
O88 C90 1.247 . S
O89 Cd85 2.439 . S
O89 C90 1.208 . S
C90 O88 1.247 . S
C90 O89 1.208 . S
C91 O96 1.247 . S
C91 O97 1.208 . S
C92 O84 1.315 . S
C92 O87 1.279 . S
C93 O94 1.315 . S
C93 O95 1.279 . S
O94 Cd86 2.223 . S
O94 C93 1.315 . S
O95 Cd85 2.240 . S
O95 C93 1.279 . S
O96 Cd86 2.297 . S
O96 C91 1.247 . S
O97 Cd86 2.439 . S
O97 C91 1.208 . S
O98 Cd99 2.223 . S
O98 C106 1.315 . S
Cd99 O98 2.223 . S
Cd99 O102 2.297 . S
Cd99 O103 2.439 . S
Cd99 O109 2.240 . S
Cd100 O101 2.240 . S
Cd100 O108 2.223 . S
Cd100 O110 2.297 . S
Cd100 O111 2.439 . S
O101 Cd100 2.240 . S
O101 C106 1.279 . S
O102 Cd99 2.297 . S
O102 C104 1.247 . S
O103 Cd99 2.439 . S
O103 C104 1.208 . S
C104 O102 1.247 . S
C104 O103 1.208 . S
C105 O110 1.247 . S
C105 O111 1.208 . S
C106 O98 1.315 . S
C106 O101 1.279 . S
C107 O108 1.315 . S
C107 O109 1.279 . S
O108 Cd100 2.223 . S
O108 C107 1.315 . S
O109 Cd99 2.240 . S
O109 C107 1.279 . S
O110 Cd100 2.297 . S
O110 C105 1.247 . S
O111 Cd100 2.439 . S
O111 C105 1.208 . S
O112 Cd113 2.223 . S
O112 C120 1.315 . S
Cd113 O112 2.223 . S
Cd113 O116 2.297 . S
Cd113 O117 2.439 . S
Cd113 O123 2.240 . S
Cd114 O115 2.240 . S
Cd114 O122 2.223 . S
Cd114 O124 2.297 . S
Cd114 O125 2.439 . S
O115 Cd114 2.240 . S
O115 C120 1.279 . S
O116 Cd113 2.297 . S
O116 C118 1.247 . S
O117 Cd113 2.439 . S
O117 C118 1.208 . S
C118 O116 1.247 . S
C118 O117 1.208 . S
C119 O124 1.247 . S
C119 O125 1.208 . S
C120 O112 1.315 . S
C120 O115 1.279 . S
C121 O122 1.315 . S
C121 O123 1.279 . S
O122 Cd114 2.223 . S
O122 C121 1.315 . S
O123 Cd113 2.240 . S
O123 C121 1.279 . S
O124 Cd114 2.297 . S
O124 C119 1.247 . S
O125 Cd114 2.439 . S
O125 C119 1.208 . S
O126 Cd127 2.223 . S
O126 C134 1.315 . S
Cd127 O126 2.223 . S
Cd127 O130 2.297 . S
Cd127 O131 2.439 . S
Cd127 O137 2.240 . S
Cd128 O129 2.240 . S
Cd128 O136 2.223 . S
Cd128 O138 2.297 . S
Cd128 O139 2.439 . S
O129 Cd128 2.240 . S
O129 C134 1.279 . S
O130 Cd127 2.297 . S
O130 C132 1.247 . S
O131 Cd127 2.439 . S
O131 C132 1.208 . S
C132 O130 1.247 . S
C132 O131 1.208 . S
C133 O138 1.247 . S
C133 O139 1.208 . S
C134 O126 1.315 . S
C134 O129 1.279 . S
C135 O136 1.315 . S
C135 O137 1.279 . S
O136 Cd128 2.223 . S
O136 C135 1.315 . S
O137 Cd127 2.240 . S
O137 C135 1.279 . S
O138 Cd128 2.297 . S
O138 C133 1.247 . S
O139 Cd128 2.439 . S
O139 C133 1.208 . S
O140 Cd141 2.223 . S
O140 C148 1.315 . S
Cd141 O140 2.223 . S
Cd141 O144 2.297 . S
Cd141 O145 2.439 . S
Cd141 O151 2.240 . S
Cd142 O143 2.240 . S
Cd142 O150 2.223 . S
Cd142 O152 2.297 . S
Cd142 O153 2.439 . S
O143 Cd142 2.240 . S
O143 C148 1.279 . S
O144 Cd141 2.297 . S
O144 C146 1.247 . S
O145 Cd141 2.439 . S
O145 C146 1.208 . S
C146 O144 1.247 . S
C146 O145 1.208 . S
C147 O152 1.247 . S
C147 O153 1.208 . S
C148 O140 1.315 . S
C148 O143 1.279 . S
C149 O150 1.315 . S
C149 O151 1.279 . S
O150 Cd142 2.223 . S
O150 C149 1.315 . S
O151 Cd141 2.240 . S
O151 C149 1.279 . S
O152 Cd142 2.297 . S
O152 C147 1.247 . S
O153 Cd142 2.439 . S
O153 C147 1.208 . S
O154 Cd155 2.223 . S
O154 C162 1.315 . S
Cd155 O154 2.223 . S
Cd155 O158 2.297 . S
Cd155 O159 2.439 . S
Cd155 O165 2.240 . S
Cd156 O157 2.240 . S
Cd156 O164 2.223 . S
Cd156 O166 2.297 . S
Cd156 O167 2.439 . S
O157 Cd156 2.240 . S
O157 C162 1.279 . S
O158 Cd155 2.297 . S
O158 C160 1.247 . S
O159 Cd155 2.439 . S
O159 C160 1.208 . S
C160 O158 1.247 . S
C160 O159 1.208 . S
C161 O166 1.247 . S
C161 O167 1.208 . S
C162 O154 1.315 . S
C162 O157 1.279 . S
C163 O164 1.315 . S
C163 O165 1.279 . S
O164 Cd156 2.223 . S
O164 C163 1.315 . S
O165 Cd155 2.240 . S
O165 C163 1.279 . S
O166 Cd156 2.297 . S
O166 C161 1.247 . S
O167 Cd156 2.439 . S
O167 C161 1.208 . S
C168 C169 1.391 . S
C168 C170 1.394 . S
C168 H184 0.931 . S
C169 C168 1.391 . S
C169 C173 1.376 . S
C170 C168 1.394 . S
C170 C171 1.369 . S
C170 C174 1.531 1_556 S
C171 C170 1.369 . S
C171 C172 1.410 . S
C171 C179 1.503 1_556 S
C172 C171 1.410 . S
C172 C173 1.392 . S
C172 C175 1.511 . S
C173 C169 1.376 . S
C173 C172 1.392 . S
C173 H185 0.929 . S
C174 C170 1.531 1_554 S
C174 H186 0.960 . S
C174 H187 0.962 . S
C174 H188 0.960 . S
C175 C172 1.511 . S
C175 H189 0.961 . S
C175 H190 0.961 . S
C175 H191 0.961 . S
C176 C177 1.370 . S
C176 C178 1.363 . S
C176 H192 0.931 . S
C177 C176 1.370 . S
C177 C181 1.408 . S
C178 C176 1.363 . S
C178 C179 1.370 . S
C178 C182 1.524 1_554 S
C179 C171 1.503 1_554 S
C179 C178 1.370 . S
C179 C180 1.403 . S
C180 C179 1.403 . S
C180 C181 1.404 . S
C180 C183 1.539 . S
C181 C177 1.408 . S
C181 C180 1.404 . S
C181 H193 0.930 . S
C182 C178 1.524 1_556 S
C182 H194 0.956 . S
C182 H195 0.961 . S
C182 H196 0.961 . S
C183 C180 1.539 . S
C183 H197 0.958 . S
C183 H198 0.961 . S
C183 H199 0.960 . S
H184 C168 0.931 . S
H185 C173 0.929 . S
H186 C174 0.960 . S
H187 C174 0.962 . S
H188 C174 0.960 . S
H189 C175 0.961 . S
H190 C175 0.961 . S
H191 C175 0.961 . S
H192 C176 0.931 . S
H193 C181 0.930 . S
H194 C182 0.956 . S
H195 C182 0.961 . S
H196 C182 0.961 . S
H197 C183 0.958 . S
H198 C183 0.961 . S
H199 C183 0.960 . S
C200 C201 1.391 . S
C200 C202 1.394 . S
C200 H216 0.931 . S
C201 C200 1.391 . S
C201 C205 1.376 . S
C202 C200 1.394 . S
C202 C203 1.369 . S
C202 C206 1.531 . S
C203 C202 1.369 . S
C203 C204 1.410 . S
C203 C211 1.503 . S
C204 C203 1.410 . S
C204 C205 1.392 . S
C204 C207 1.511 . S
C205 C201 1.376 . S
C205 C204 1.392 . S
C205 H217 0.929 . S
C206 C202 1.531 . S
C206 H218 0.960 . S
C206 H219 0.962 . S
C206 H220 0.960 . S
C207 C204 1.511 . S
C207 H221 0.961 . S
C207 H222 0.961 . S
C207 H223 0.961 . S
C208 C209 1.370 . S
C208 C210 1.363 . S
C208 H224 0.931 . S
C209 C208 1.370 . S
C209 C213 1.408 . S
C210 C208 1.363 . S
C210 C211 1.370 . S
C210 C214 1.524 . S
C211 C203 1.503 . S
C211 C210 1.370 . S
C211 C212 1.403 . S
C212 C211 1.403 . S
C212 C213 1.404 . S
C212 C215 1.539 . S
C213 C209 1.408 . S
C213 C212 1.404 . S
C213 H225 0.930 . S
C214 C210 1.524 . S
C214 H226 0.956 . S
C214 H227 0.961 . S
C214 H228 0.961 . S
C215 C212 1.539 . S
C215 H229 0.958 . S
C215 H230 0.961 . S
C215 H231 0.960 . S
H216 C200 0.931 . S
H217 C205 0.929 . S
H218 C206 0.960 . S
H219 C206 0.962 . S
H220 C206 0.960 . S
H221 C207 0.961 . S
H222 C207 0.961 . S
H223 C207 0.961 . S
H224 C208 0.931 . S
H225 C213 0.930 . S
H226 C214 0.956 . S
H227 C214 0.961 . S
H228 C214 0.961 . S
H229 C215 0.958 . S
H230 C215 0.961 . S
H231 C215 0.960 . S
C232 C233 1.391 . S
C232 C234 1.394 . S
C232 H248 0.931 . S
C233 C232 1.391 . S
C233 C237 1.376 . S
C234 C232 1.394 . S
C234 C235 1.369 . S
C234 C238 1.531 . S
C235 C234 1.369 . S
C235 C236 1.410 . S
C235 C243 1.503 . S
C236 C235 1.410 . S
C236 C237 1.392 . S
C236 C239 1.511 . S
C237 C233 1.376 . S
C237 C236 1.392 . S
C237 H249 0.929 . S
C238 C234 1.531 . S
C238 H250 0.960 . S
C238 H251 0.962 . S
C238 H252 0.960 . S
C239 C236 1.511 . S
C239 H253 0.961 . S
C239 H254 0.961 . S
C239 H255 0.961 . S
C240 C241 1.370 . S
C240 C242 1.363 . S
C240 H256 0.931 . S
C241 C240 1.370 . S
C241 C245 1.408 . S
C242 C240 1.363 . S
C242 C243 1.370 . S
C242 C246 1.524 . S
C243 C235 1.503 . S
C243 C242 1.370 . S
C243 C244 1.403 . S
C244 C243 1.403 . S
C244 C245 1.404 . S
C244 C247 1.539 . S
C245 C241 1.408 . S
C245 C244 1.404 . S
C245 H257 0.930 . S
C246 C242 1.524 . S
C246 H258 0.956 . S
C246 H259 0.961 . S
C246 H260 0.961 . S
C247 C244 1.539 . S
C247 H261 0.958 . S
C247 H262 0.961 . S
C247 H263 0.960 . S
H248 C232 0.931 . S
H249 C237 0.929 . S
H250 C238 0.960 . S
H251 C238 0.962 . S
H252 C238 0.960 . S
H253 C239 0.961 . S
H254 C239 0.961 . S
H255 C239 0.961 . S
H256 C240 0.931 . S
H257 C245 0.930 . S
H258 C246 0.956 . S
H259 C246 0.961 . S
H260 C246 0.961 . S
H261 C247 0.958 . S
H262 C247 0.961 . S
H263 C247 0.960 . S
C264 C265 1.391 . S
C264 C266 1.394 . S
C264 H280 0.931 . S
C265 C264 1.391 . S
C265 C269 1.376 . S
C266 C264 1.394 . S
C266 C267 1.369 . S
C266 C270 1.531 . S
C267 C266 1.369 . S
C267 C268 1.410 . S
C267 C275 1.503 . S
C268 C267 1.410 . S
C268 C269 1.392 . S
C268 C271 1.511 . S
C269 C265 1.376 . S
C269 C268 1.392 . S
C269 H281 0.929 . S
C270 C266 1.531 . S
C270 H282 0.960 . S
C270 H283 0.962 . S
C270 H284 0.960 . S
C271 C268 1.511 . S
C271 H285 0.961 . S
C271 H286 0.961 1_554 S
C271 H287 0.961 . S
C272 C273 1.370 . S
C272 C274 1.363 . S
C272 H288 0.931 . S
C273 C272 1.370 . S
C273 C277 1.408 . S
C274 C272 1.363 . S
C274 C275 1.370 1_556 S
C274 C278 1.524 . S
C275 C267 1.503 . S
C275 C274 1.370 1_554 S
C275 C276 1.403 . S
C276 C275 1.403 . S
C276 C277 1.404 1_554 S
C276 C279 1.539 . S
C277 C273 1.408 . S
C277 C276 1.404 1_556 S
C277 H289 0.930 . S
C278 C274 1.524 . S
C278 H290 0.956 . S
C278 H291 0.961 . S
C278 H292 0.961 . S
C279 C276 1.539 . S
C279 H293 0.958 . S
C279 H294 0.961 . S
C279 H295 0.960 . S
H280 C264 0.931 . S
H281 C269 0.929 . S
H282 C270 0.960 . S
H283 C270 0.962 . S
H284 C270 0.960 . S
H285 C271 0.961 . S
H286 C271 0.961 1_556 S
H287 C271 0.961 . S
H288 C272 0.931 . S
H289 C277 0.930 . S
H290 C278 0.956 . S
H291 C278 0.961 . S
H292 C278 0.961 . S
H293 C279 0.958 . S
H294 C279 0.961 . S
H295 C279 0.960 . S
C296 C297 1.391 . S
C296 C298 1.394 . S
C296 H312 0.931 . S
C297 C296 1.391 . S
C297 C301 1.376 . S
C298 C296 1.394 . S
C298 C299 1.369 . S
C298 C302 1.531 . S
C299 C298 1.369 . S
C299 C300 1.410 . S
C299 C307 1.503 . S
C300 C299 1.410 . S
C300 C301 1.392 . S
C300 C303 1.511 . S
C301 C297 1.376 . S
C301 C300 1.392 . S
C301 H313 0.929 . S
C302 C298 1.531 . S
C302 H314 0.960 . S
C302 H315 0.962 . S
C302 H316 0.960 . S
C303 C300 1.511 . S
C303 H317 0.961 . S
C303 H318 0.961 . S
C303 H319 0.961 . S
C304 C305 1.370 . S
C304 C306 1.363 . S
C304 H320 0.931 . S
C305 C304 1.370 . S
C305 C309 1.408 . S
C306 C304 1.363 . S
C306 C307 1.370 . S
C306 C310 1.524 . S
C307 C299 1.503 . S
C307 C306 1.370 . S
C307 C308 1.403 . S
C308 C307 1.403 . S
C308 C309 1.404 . S
C308 C311 1.539 . S
C309 C305 1.408 . S
C309 C308 1.404 . S
C309 H321 0.930 . S
C310 C306 1.524 . S
C310 H322 0.956 . S
C310 H323 0.961 . S
C310 H324 0.961 . S
C311 C308 1.539 . S
C311 H325 0.958 . S
C311 H326 0.961 . S
C311 H327 0.960 . S
H312 C296 0.931 . S
H313 C301 0.929 . S
H314 C302 0.960 . S
H315 C302 0.962 . S
H316 C302 0.960 . S
H317 C303 0.961 . S
H318 C303 0.961 . S
H319 C303 0.961 . S
H320 C304 0.931 . S
H321 C309 0.930 . S
H322 C310 0.956 . S
H323 C310 0.961 . S
H324 C310 0.961 . S
H325 C311 0.958 . S
H326 C311 0.961 . S
H327 C311 0.960 . S
C328 C329 1.391 . S
C328 C330 1.394 . S
C328 H344 0.931 . S
C329 C328 1.391 . S
C329 C333 1.376 . S
C330 C328 1.394 . S
C330 C331 1.369 . S
C330 C334 1.531 . S
C331 C330 1.369 . S
C331 C332 1.410 . S
C331 C339 1.503 . S
C332 C331 1.410 . S
C332 C333 1.392 . S
C332 C335 1.511 . S
C333 C329 1.376 . S
C333 C332 1.392 . S
C333 H345 0.929 . S
C334 C330 1.531 . S
C334 H346 0.960 . S
C334 H347 0.962 . S
C334 H348 0.960 . S
C335 C332 1.511 . S
C335 H349 0.961 . S
C335 H350 0.961 . S
C335 H351 0.961 . S
C336 C337 1.370 . S
C336 C338 1.363 . S
C336 H352 0.931 . S
C337 C336 1.370 . S
C337 C341 1.408 . S
C338 C336 1.363 . S
C338 C339 1.370 . S
C338 C342 1.524 . S
C339 C331 1.503 . S
C339 C338 1.370 . S
C339 C340 1.403 . S
C340 C339 1.403 . S
C340 C341 1.404 . S
C340 C343 1.539 . S
C341 C337 1.408 . S
C341 C340 1.404 . S
C341 H353 0.930 . S
C342 C338 1.524 . S
C342 H354 0.956 . S
C342 H355 0.961 . S
C342 H356 0.961 . S
C343 C340 1.539 . S
C343 H357 0.958 . S
C343 H358 0.961 . S
C343 H359 0.960 . S
H344 C328 0.931 . S
H345 C333 0.929 . S
H346 C334 0.960 . S
H347 C334 0.962 . S
H348 C334 0.960 . S
H349 C335 0.961 . S
H350 C335 0.961 . S
H351 C335 0.961 . S
H352 C336 0.931 . S
H353 C341 0.930 . S
H354 C342 0.956 . S
H355 C342 0.961 . S
H356 C342 0.961 . S
H357 C343 0.958 . S
H358 C343 0.961 . S
H359 C343 0.960 . S
C360 C361 1.391 . S
C360 C362 1.394 . S
C360 H376 0.931 . S
C361 C360 1.391 . S
C361 C365 1.376 . S
C362 C360 1.394 . S
C362 C363 1.369 . S
C362 C366 1.531 . S
C363 C362 1.369 . S
C363 C364 1.410 . S
C363 C371 1.503 . S
C364 C363 1.410 . S
C364 C365 1.392 . S
C364 C367 1.511 . S
C365 C361 1.376 . S
C365 C364 1.392 . S
C365 H377 0.929 . S
C366 C362 1.531 . S
C366 H378 0.960 . S
C366 H379 0.962 . S
C366 H380 0.960 . S
C367 C364 1.511 . S
C367 H381 0.961 . S
C367 H382 0.961 . S
C367 H383 0.961 . S
C368 C369 1.370 . S
C368 C370 1.363 . S
C368 H384 0.931 . S
C369 C368 1.370 . S
C369 C373 1.408 . S
C370 C368 1.363 . S
C370 C371 1.370 . S
C370 C374 1.524 . S
C371 C363 1.503 . S
C371 C370 1.370 . S
C371 C372 1.403 . S
C372 C371 1.403 . S
C372 C373 1.404 . S
C372 C375 1.539 . S
C373 C369 1.408 . S
C373 C372 1.404 . S
C373 H385 0.930 . S
C374 C370 1.524 . S
C374 H386 0.956 . S
C374 H387 0.961 . S
C374 H388 0.961 . S
C375 C372 1.539 . S
C375 H389 0.958 . S
C375 H390 0.961 . S
C375 H391 0.960 . S
H376 C360 0.931 . S
H377 C365 0.929 . S
H378 C366 0.960 . S
H379 C366 0.962 . S
H380 C366 0.960 . S
H381 C367 0.961 . S
H382 C367 0.961 . S
H383 C367 0.961 . S
H384 C368 0.931 . S
H385 C373 0.930 . S
H386 C374 0.956 . S
H387 C374 0.961 . S
H388 C374 0.961 . S
H389 C375 0.958 . S
H390 C375 0.961 . S
H391 C375 0.960 . S
C392 C393 1.391 . S
C392 C394 1.394 . S
C392 H408 0.931 . S
C393 C392 1.391 . S
C393 C397 1.376 . S
C394 C392 1.394 . S
C394 C395 1.369 . S
C394 C398 1.531 . S
C395 C394 1.369 . S
C395 C396 1.410 . S
C395 C403 1.503 . S
C396 C395 1.410 . S
C396 C397 1.392 . S
C396 C399 1.511 . S
C397 C393 1.376 . S
C397 C396 1.392 . S
C397 H409 0.929 . S
C398 C394 1.531 . S
C398 H410 0.960 . S
C398 H411 0.962 . S
C398 H412 0.960 . S
C399 C396 1.511 . S
C399 H413 0.961 . S
C399 H414 0.961 . S
C399 H415 0.961 . S
C400 C401 1.370 . S
C400 C402 1.363 . S
C400 H416 0.931 . S
C401 C400 1.370 . S
C401 C405 1.408 . S
C402 C400 1.363 . S
C402 C403 1.370 . S
C402 C406 1.524 . S
C403 C395 1.503 . S
C403 C402 1.370 . S
C403 C404 1.403 . S
C404 C403 1.403 . S
C404 C405 1.404 . S
C404 C407 1.539 . S
C405 C401 1.408 . S
C405 C404 1.404 . S
C405 H417 0.930 . S
C406 C402 1.524 . S
C406 H418 0.956 . S
C406 H419 0.961 . S
C406 H420 0.961 . S
C407 C404 1.539 . S
C407 H421 0.958 . S
C407 H422 0.961 . S
C407 H423 0.960 . S
H408 C392 0.931 . S
H409 C397 0.929 . S
H410 C398 0.960 . S
H411 C398 0.962 . S
H412 C398 0.960 . S
H413 C399 0.961 . S
H414 C399 0.961 . S
H415 C399 0.961 . S
H416 C400 0.931 . S
H417 C405 0.930 . S
H418 C406 0.956 . S
H419 C406 0.961 . S
H420 C406 0.961 . S
H421 C407 0.958 . S
H422 C407 0.961 . S
H423 C407 0.960 . S
C424 C425 1.391 . S
C424 C426 1.394 . S
C424 H440 0.931 . S
C425 C424 1.391 . S
C425 C429 1.376 . S
C426 C424 1.394 . S
C426 C427 1.369 . S
C426 C430 1.531 . S
C427 C426 1.369 . S
C427 C428 1.410 . S
C427 C435 1.503 . S
C428 C427 1.410 . S
C428 C429 1.392 . S
C428 C431 1.511 . S
C429 C425 1.376 . S
C429 C428 1.392 . S
C429 H441 0.929 . S
C430 C426 1.531 . S
C430 H442 0.960 . S
C430 H443 0.962 . S
C430 H444 0.960 . S
C431 C428 1.511 . S
C431 H445 0.961 . S
C431 H446 0.961 . S
C431 H447 0.961 . S
C432 C433 1.370 . S
C432 C434 1.363 . S
C432 H448 0.931 . S
C433 C432 1.370 . S
C433 C437 1.408 . S
C434 C432 1.363 . S
C434 C435 1.370 . S
C434 C438 1.524 . S
C435 C427 1.503 . S
C435 C434 1.370 . S
C435 C436 1.403 . S
C436 C435 1.403 . S
C436 C437 1.404 . S
C436 C439 1.539 . S
C437 C433 1.408 . S
C437 C436 1.404 . S
C437 H449 0.930 . S
C438 C434 1.524 . S
C438 H450 0.956 . S
C438 H451 0.961 . S
C438 H452 0.961 . S
C439 C436 1.539 . S
C439 H453 0.958 . S
C439 H454 0.961 . S
C439 H455 0.960 . S
H440 C424 0.931 . S
H441 C429 0.929 . S
H442 C430 0.960 . S
H443 C430 0.962 . S
H444 C430 0.960 . S
H445 C431 0.961 . S
H446 C431 0.961 . S
H447 C431 0.961 . S
H448 C432 0.931 . S
H449 C437 0.930 . S
H450 C438 0.956 . S
H451 C438 0.961 . S
H452 C438 0.961 . S
H453 C439 0.958 . S
H454 C439 0.961 . S
H455 C439 0.960 . S
C456 C457 1.391 . S
C456 C458 1.394 . S
C456 H472 0.931 . S
C457 C456 1.391 . S
C457 C461 1.376 . S
C458 C456 1.394 . S
C458 C459 1.369 . S
C458 C462 1.531 . S
C459 C458 1.369 . S
C459 C460 1.410 . S
C459 C467 1.503 . S
C460 C459 1.410 . S
C460 C461 1.392 . S
C460 C463 1.511 . S
C461 C457 1.376 . S
C461 C460 1.392 . S
C461 H473 0.929 . S
C462 C458 1.531 . S
C462 H474 0.960 . S
C462 H475 0.962 . S
C462 H476 0.960 . S
C463 C460 1.511 . S
C463 H477 0.961 . S
C463 H478 0.961 . S
C463 H479 0.961 . S
C464 C465 1.370 . S
C464 C466 1.363 . S
C464 H480 0.931 . S
C465 C464 1.370 . S
C465 C469 1.408 . S
C466 C464 1.363 . S
C466 C467 1.370 . S
C466 C470 1.524 . S
C467 C459 1.503 . S
C467 C466 1.370 . S
C467 C468 1.403 . S
C468 C467 1.403 . S
C468 C469 1.404 . S
C468 C471 1.539 . S
C469 C465 1.408 . S
C469 C468 1.404 . S
C469 H481 0.930 . S
C470 C466 1.524 . S
C470 H482 0.956 . S
C470 H483 0.961 . S
C470 H484 0.961 . S
C471 C468 1.539 . S
C471 H485 0.958 . S
C471 H486 0.961 . S
C471 H487 0.960 . S
H472 C456 0.931 . S
H473 C461 0.929 . S
H474 C462 0.960 . S
H475 C462 0.962 . S
H476 C462 0.960 . S
H477 C463 0.961 . S
H478 C463 0.961 . S
H479 C463 0.961 . S
H480 C464 0.931 . S
H481 C469 0.930 . S
H482 C470 0.956 . S
H483 C470 0.961 . S
H484 C470 0.961 . S
H485 C471 0.958 . S
H486 C471 0.961 . S
H487 C471 0.960 . S
C488 C489 1.391 . S
C488 C490 1.394 . S
C488 H504 0.931 . S
C489 C488 1.391 . S
C489 C493 1.376 . S
C490 C488 1.394 . S
C490 C491 1.369 . S
C490 C494 1.531 . S
C491 C490 1.369 . S
C491 C492 1.410 . S
C491 C499 1.503 . S
C492 C491 1.410 . S
C492 C493 1.392 . S
C492 C495 1.511 . S
C493 C489 1.376 . S
C493 C492 1.392 . S
C493 H505 0.929 . S
C494 C490 1.531 . S
C494 H506 0.960 . S
C494 H507 0.962 . S
C494 H508 0.960 . S
C495 C492 1.511 . S
C495 H509 0.961 . S
C495 H510 0.961 . S
C495 H511 0.961 . S
C496 C497 1.370 . S
C496 C498 1.363 . S
C496 H512 0.931 . S
C497 C496 1.370 . S
C497 C501 1.408 . S
C498 C496 1.363 . S
C498 C499 1.370 . S
C498 C502 1.524 . S
C499 C491 1.503 . S
C499 C498 1.370 . S
C499 C500 1.403 . S
C500 C499 1.403 . S
C500 C501 1.404 . S
C500 C503 1.539 . S
C501 C497 1.408 . S
C501 C500 1.404 . S
C501 H513 0.930 . S
C502 C498 1.524 . S
C502 H514 0.956 . S
C502 H515 0.961 . S
C502 H516 0.961 . S
C503 C500 1.539 . S
C503 H517 0.958 . S
C503 H518 0.961 . S
C503 H519 0.960 . S
H504 C488 0.931 . S
H505 C493 0.929 . S
H506 C494 0.960 . S
H507 C494 0.962 . S
H508 C494 0.960 . S
H509 C495 0.961 . S
H510 C495 0.961 . S
H511 C495 0.961 . S
H512 C496 0.931 . S
H513 C501 0.930 . S
H514 C502 0.956 . S
H515 C502 0.961 . S
H516 C502 0.961 . S
H517 C503 0.958 . S
H518 C503 0.961 . S
H519 C503 0.960 . S
C520 C521 1.391 . S
C520 C522 1.394 . S
C520 H536 0.931 . S
C521 C520 1.391 . S
C521 C525 1.376 . S
C522 C520 1.394 . S
C522 C523 1.369 . S
C522 C526 1.531 . S
C523 C522 1.369 . S
C523 C524 1.410 . S
C523 C531 1.503 . S
C524 C523 1.410 . S
C524 C525 1.392 . S
C524 C527 1.511 . S
C525 C521 1.376 . S
C525 C524 1.392 . S
C525 H537 0.929 . S
C526 C522 1.531 . S
C526 H538 0.960 . S
C526 H539 0.962 . S
C526 H540 0.960 . S
C527 C524 1.511 . S
C527 H541 0.961 . S
C527 H542 0.961 . S
C527 H543 0.961 . S
C528 C529 1.370 . S
C528 C530 1.363 . S
C528 H544 0.931 . S
C529 C528 1.370 . S
C529 C533 1.408 . S
C530 C528 1.363 . S
C530 C531 1.370 . S
C530 C534 1.524 . S
C531 C523 1.503 . S
C531 C530 1.370 . S
C531 C532 1.403 . S
C532 C531 1.403 . S
C532 C533 1.404 . S
C532 C535 1.539 . S
C533 C529 1.408 . S
C533 C532 1.404 . S
C533 H545 0.930 . S
C534 C530 1.524 . S
C534 H546 0.956 . S
C534 H547 0.961 . S
C534 H548 0.961 . S
C535 C532 1.539 . S
C535 H549 0.958 . S
C535 H550 0.961 . S
C535 H551 0.960 . S
H536 C520 0.931 . S
H537 C525 0.929 . S
H538 C526 0.960 . S
H539 C526 0.962 . S
H540 C526 0.960 . S
H541 C527 0.961 . S
H542 C527 0.961 . S
H543 C527 0.961 . S
H544 C528 0.931 . S
H545 C533 0.930 . S
H546 C534 0.956 . S
H547 C534 0.961 . S
H548 C534 0.961 . S
H549 C535 0.958 . S
H550 C535 0.961 . S
H551 C535 0.960 . S
C552 C553 1.391 . S
C552 C554 1.394 . S
C552 H568 0.931 . S
C553 C552 1.391 . S
C553 C557 1.376 . S
C554 C552 1.394 . S
C554 C555 1.369 . S
C554 C558 1.531 . S
C555 C554 1.369 . S
C555 C556 1.410 . S
C555 C563 1.503 1_655 S
C556 C555 1.410 . S
C556 C557 1.392 . S
C556 C559 1.511 . S
C557 C553 1.376 . S
C557 C556 1.392 . S
C557 H569 0.929 . S
C558 C554 1.531 . S
C558 H570 0.960 . S
C558 H571 0.962 . S
C558 H572 0.960 . S
C559 C556 1.511 . S
C559 H573 0.961 . S
C559 H574 0.961 1_655 S
C559 H575 0.961 . S
C560 C561 1.370 . S
C560 C562 1.363 . S
C560 H576 0.931 . S
C561 C560 1.370 . S
C561 C565 1.408 . S
C562 C560 1.363 . S
C562 C563 1.370 . S
C562 C566 1.524 . S
C563 C555 1.503 1_455 S
C563 C562 1.370 . S
C563 C564 1.403 . S
C564 C563 1.403 . S
C564 C565 1.404 . S
C564 C567 1.539 . S
C565 C561 1.408 . S
C565 C564 1.404 . S
C565 H577 0.930 . S
C566 C562 1.524 . S
C566 H578 0.956 . S
C566 H579 0.961 . S
C566 H580 0.961 . S
C567 C564 1.539 . S
C567 H581 0.958 1_455 S
C567 H582 0.961 . S
C567 H583 0.960 1_455 S
H568 C552 0.931 . S
H569 C557 0.929 . S
H570 C558 0.960 . S
H571 C558 0.962 . S
H572 C558 0.960 . S
H573 C559 0.961 . S
H574 C559 0.961 1_455 S
H575 C559 0.961 . S
H576 C560 0.931 . S
H577 C565 0.930 . S
H578 C566 0.956 . S
H579 C566 0.961 . S
H580 C566 0.961 . S
H581 C567 0.958 1_655 S
H582 C567 0.961 . S
H583 C567 0.960 1_655 S
C584 C585 1.391 . S
C584 C586 1.394 . S
C584 H600 0.931 . S
C585 C584 1.391 . S
C585 C589 1.376 . S
C586 C584 1.394 . S
C586 C587 1.369 . S
C586 C590 1.531 . S
C587 C586 1.369 . S
C587 C588 1.410 . S
C587 C595 1.503 1_545 S
C588 C587 1.410 . S
C588 C589 1.392 . S
C588 C591 1.511 1_545 S
C589 C585 1.376 . S
C589 C588 1.392 . S
C589 H601 0.929 . S
C590 C586 1.531 . S
C590 H602 0.960 . S
C590 H603 0.962 . S
C590 H604 0.960 . S
C591 C588 1.511 1_565 S
C591 H605 0.961 1_565 S
C591 H606 0.961 . S
C591 H607 0.961 . S
C592 C593 1.370 . S
C592 C594 1.363 . S
C592 H608 0.931 . S
C593 C592 1.370 . S
C593 C597 1.408 . S
C594 C592 1.363 . S
C594 C595 1.370 . S
C594 C598 1.524 . S
C595 C587 1.503 1_565 S
C595 C594 1.370 . S
C595 C596 1.403 . S
C596 C595 1.403 . S
C596 C597 1.404 . S
C596 C599 1.539 . S
C597 C593 1.408 . S
C597 C596 1.404 . S
C597 H609 0.930 . S
C598 C594 1.524 . S
C598 H610 0.956 1_565 S
C598 H611 0.961 1_565 S
C598 H612 0.961 . S
C599 C596 1.539 . S
C599 H613 0.958 . S
C599 H614 0.961 . S
C599 H615 0.960 . S
H600 C584 0.931 . S
H601 C589 0.929 . S
H602 C590 0.960 . S
H603 C590 0.962 . S
H604 C590 0.960 . S
H605 C591 0.961 1_545 S
H606 C591 0.961 . S
H607 C591 0.961 . S
H608 C592 0.931 . S
H609 C597 0.930 . S
H610 C598 0.956 1_545 S
H611 C598 0.961 1_545 S
H612 C598 0.961 . S
H613 C599 0.958 . S
H614 C599 0.961 . S
H615 C599 0.960 . S
C616 C617 1.391 . S
C616 C618 1.394 . S
C616 H632 0.931 . S
C617 C616 1.391 . S
C617 C621 1.376 . S
C618 C616 1.394 . S
C618 C619 1.369 . S
C618 C622 1.531 . S
C619 C618 1.369 . S
C619 C620 1.410 . S
C619 C627 1.503 . S
C620 C619 1.410 . S
C620 C621 1.392 . S
C620 C623 1.511 . S
C621 C617 1.376 . S
C621 C620 1.392 . S
C621 H633 0.929 . S
C622 C618 1.531 . S
C622 H634 0.960 . S
C622 H635 0.962 . S
C622 H636 0.960 . S
C623 C620 1.511 . S
C623 H637 0.961 . S
C623 H638 0.961 . S
C623 H639 0.961 . S
C624 C625 1.370 . S
C624 C626 1.363 . S
C624 H640 0.931 . S
C625 C624 1.370 . S
C625 C629 1.408 . S
C626 C624 1.363 . S
C626 C627 1.370 . S
C626 C630 1.524 . S
C627 C619 1.503 . S
C627 C626 1.370 . S
C627 C628 1.403 . S
C628 C627 1.403 . S
C628 C629 1.404 . S
C628 C631 1.539 . S
C629 C625 1.408 . S
C629 C628 1.404 . S
C629 H641 0.930 . S
C630 C626 1.524 . S
C630 H642 0.956 . S
C630 H643 0.961 . S
C630 H644 0.961 . S
C631 C628 1.539 . S
C631 H645 0.958 . S
C631 H646 0.961 . S
C631 H647 0.960 . S
H632 C616 0.931 . S
H633 C621 0.929 . S
H634 C622 0.960 . S
H635 C622 0.962 . S
H636 C622 0.960 . S
H637 C623 0.961 . S
H638 C623 0.961 . S
H639 C623 0.961 . S
H640 C624 0.931 . S
H641 C629 0.930 . S
H642 C630 0.956 . S
H643 C630 0.961 . S
H644 C630 0.961 . S
H645 C631 0.958 . S
H646 C631 0.961 . S
H647 C631 0.960 . S
C648 C649 1.391 . S
C648 C650 1.394 . S
C648 H664 0.931 . S
C649 C648 1.391 . S
C649 C653 1.376 . S
C650 C648 1.394 . S
C650 C651 1.369 . S
C650 C654 1.531 . S
C651 C650 1.369 . S
C651 C652 1.410 . S
C651 C659 1.503 1_545 S
C652 C651 1.410 . S
C652 C653 1.392 . S
C652 C655 1.511 . S
C653 C649 1.376 . S
C653 C652 1.392 . S
C653 H665 0.929 . S
C654 C650 1.531 . S
C654 H666 0.960 1_545 S
C654 H667 0.962 . S
C654 H668 0.960 . S
C655 C652 1.511 . S
C655 H669 0.961 . S
C655 H670 0.961 1_545 S
C655 H671 0.963 1_545 S
C656 C657 1.370 . S
C656 C658 1.363 . S
C656 H672 0.931 . S
C657 C656 1.370 . S
C657 C661 1.408 . S
C658 C656 1.363 . S
C658 C659 1.370 . S
C658 C662 1.524 1_565 S
C659 C651 1.503 1_565 S
C659 C658 1.370 . S
C659 C660 1.403 . S
C660 C659 1.403 . S
C660 C661 1.404 . S
C660 C663 1.539 . S
C661 C657 1.408 . S
C661 C660 1.404 . S
C661 H673 0.930 . S
C662 C658 1.524 1_545 S
C662 H674 0.956 . S
C662 H675 0.961 . S
C662 H676 0.961 1_545 S
C663 C660 1.539 . S
C663 H677 0.958 . S
C663 H678 0.961 . S
C663 H679 0.960 . S
H664 C648 0.931 . S
H665 C653 0.929 . S
H666 C654 0.960 1_565 S
H667 C654 0.962 . S
H668 C654 0.960 . S
H669 C655 0.961 . S
H670 C655 0.961 1_565 S
H671 C655 0.963 1_565 S
H672 C656 0.931 . S
H673 C661 0.930 . S
H674 C662 0.956 . S
H675 C662 0.961 . S
H676 C662 0.961 1_565 S
H677 C663 0.958 . S
H678 C663 0.961 . S
H679 C663 0.960 . S
C680 C681 1.391 . S
C680 C682 1.394 . S
C680 H696 0.931 . S
C681 C680 1.391 . S
C681 C685 1.376 . S
C682 C680 1.394 . S
C682 C683 1.369 . S
C682 C686 1.531 . S
C683 C682 1.369 . S
C683 C684 1.410 . S
C683 C691 1.503 . S
C684 C683 1.410 . S
C684 C685 1.392 . S
C684 C687 1.511 . S
C685 C681 1.376 . S
C685 C684 1.392 . S
C685 H697 0.929 . S
C686 C682 1.531 . S
C686 H698 0.960 . S
C686 H699 0.962 . S
C686 H700 0.960 . S
C687 C684 1.511 . S
C687 H701 0.961 . S
C687 H702 0.961 . S
C687 H703 0.961 . S
C688 C689 1.370 . S
C688 C690 1.363 . S
C688 H704 0.931 . S
C689 C688 1.370 . S
C689 C693 1.408 . S
C690 C688 1.363 . S
C690 C691 1.370 . S
C690 C694 1.524 . S
C691 C683 1.503 . S
C691 C690 1.370 . S
C691 C692 1.403 . S
C692 C691 1.403 . S
C692 C693 1.404 . S
C692 C695 1.539 . S
C693 C689 1.408 . S
C693 C692 1.404 . S
C693 H705 0.930 . S
C694 C690 1.524 . S
C694 H706 0.956 . S
C694 H707 0.961 . S
C694 H708 0.961 . S
C695 C692 1.539 . S
C695 H709 0.958 . S
C695 H710 0.961 . S
C695 H711 0.960 . S
H696 C680 0.931 . S
H697 C685 0.929 . S
H698 C686 0.960 . S
H699 C686 0.962 . S
H700 C686 0.960 . S
H701 C687 0.961 . S
H702 C687 0.961 . S
H703 C687 0.961 . S
H704 C688 0.931 . S
H705 C693 0.930 . S
H706 C694 0.956 . S
H707 C694 0.961 . S
H708 C694 0.961 . S
H709 C695 0.958 . S
H710 C695 0.961 . S
H711 C695 0.960 . S
C712 C713 1.391 . S
C712 C714 1.394 . S
C712 H728 0.931 . S
C713 C712 1.391 . S
C713 C717 1.376 . S
C714 C712 1.394 . S
C714 C715 1.369 . S
C714 C718 1.531 . S
C715 C714 1.369 . S
C715 C716 1.410 . S
C715 C723 1.503 1_455 S
C716 C715 1.410 . S
C716 C717 1.392 . S
C716 C719 1.511 . S
C717 C713 1.376 . S
C717 C716 1.392 . S
C717 H729 0.929 . S
C718 C714 1.531 . S
C718 H730 0.960 . S
C718 H731 0.962 . S
C718 H732 0.960 . S
C719 C716 1.511 . S
C719 H733 0.961 . S
C719 H734 0.961 1_455 S
C719 H735 0.961 . S
C720 C721 1.370 . S
C720 C722 1.363 . S
C720 H736 0.931 . S
C721 C720 1.370 . S
C721 C725 1.408 . S
C722 C720 1.363 . S
C722 C723 1.370 . S
C722 C726 1.524 . S
C723 C715 1.503 1_655 S
C723 C722 1.370 . S
C723 C724 1.403 . S
C724 C723 1.403 . S
C724 C725 1.404 . S
C724 C727 1.539 . S
C725 C721 1.408 . S
C725 C724 1.404 . S
C725 H737 0.930 . S
C726 C722 1.524 . S
C726 H738 0.956 . S
C726 H739 0.961 . S
C726 H740 0.961 . S
C727 C724 1.539 . S
C727 H741 0.958 1_655 S
C727 H742 0.961 . S
C727 H743 0.960 1_655 S
H728 C712 0.931 . S
H729 C717 0.929 . S
H730 C718 0.960 . S
H731 C718 0.962 . S
H732 C718 0.960 . S
H733 C719 0.961 . S
H734 C719 0.961 1_655 S
H735 C719 0.961 . S
H736 C720 0.931 . S
H737 C725 0.930 . S
H738 C726 0.956 . S
H739 C726 0.961 . S
H740 C726 0.961 . S
H741 C727 0.958 1_455 S
H742 C727 0.961 . S
H743 C727 0.960 1_455 S
C744 C745 1.391 . S
C744 C746 1.394 . S
C744 H760 0.931 . S
C745 C744 1.391 . S
C745 C749 1.376 . S
C746 C744 1.394 . S
C746 C747 1.369 . S
C746 C750 1.531 . S
C747 C746 1.369 . S
C747 C748 1.410 . S
C747 C755 1.503 . S
C748 C747 1.410 . S
C748 C749 1.392 . S
C748 C751 1.511 . S
C749 C745 1.376 . S
C749 C748 1.392 . S
C749 H761 0.929 . S
C750 C746 1.531 . S
C750 H762 0.960 . S
C750 H763 0.962 . S
C750 H764 0.960 . S
C751 C748 1.511 . S
C751 H765 0.961 . S
C751 H766 0.961 . S
C751 H767 0.961 . S
C752 C753 1.370 . S
C752 C754 1.363 . S
C752 H768 0.931 . S
C753 C752 1.370 . S
C753 C757 1.408 . S
C754 C752 1.363 . S
C754 C755 1.370 . S
C754 C758 1.524 . S
C755 C747 1.503 . S
C755 C754 1.370 . S
C755 C756 1.403 . S
C756 C755 1.403 . S
C756 C757 1.404 . S
C756 C759 1.539 . S
C757 C753 1.408 . S
C757 C756 1.404 . S
C757 H769 0.930 . S
C758 C754 1.524 . S
C758 H770 0.956 . S
C758 H771 0.961 . S
C758 H772 0.961 . S
C759 C756 1.539 . S
C759 H773 0.958 . S
C759 H774 0.961 . S
C759 H775 0.960 . S
H760 C744 0.931 . S
H761 C749 0.929 . S
H762 C750 0.960 . S
H763 C750 0.962 . S
H764 C750 0.960 . S
H765 C751 0.961 . S
H766 C751 0.961 . S
H767 C751 0.961 . S
H768 C752 0.931 . S
H769 C757 0.930 . S
H770 C758 0.956 . S
H771 C758 0.961 . S
H772 C758 0.961 . S
H773 C759 0.958 . S
H774 C759 0.961 . S
H775 C759 0.960 . S
C776 C777 1.391 1_455 S
C776 C778 1.394 . S
C776 H792 0.931 1_455 S
C777 C776 1.391 1_655 S
C777 C781 1.376 1_655 S
C778 C776 1.394 . S
C778 C779 1.369 . S
C778 C782 1.531 . S
C779 C778 1.369 . S
C779 C780 1.410 . S
C779 C787 1.503 . S
C780 C779 1.410 . S
C780 C781 1.392 . S
C780 C783 1.511 . S
C781 C777 1.376 1_455 S
C781 C780 1.392 . S
C781 H793 0.929 . S
C782 C778 1.531 . S
C782 H794 0.960 . S
C782 H795 0.962 . S
C782 H796 0.960 . S
C783 C780 1.511 . S
C783 H797 0.961 . S
C783 H798 0.961 . S
C783 H799 0.961 . S
C784 C785 1.370 . S
C784 C786 1.363 . S
C784 H800 0.931 . S
C785 C784 1.370 . S
C785 C789 1.408 . S
C786 C784 1.363 . S
C786 C787 1.370 . S
C786 C790 1.524 . S
C787 C779 1.503 . S
C787 C786 1.370 . S
C787 C788 1.403 . S
C788 C787 1.403 . S
C788 C789 1.404 . S
C788 C791 1.539 . S
C789 C785 1.408 . S
C789 C788 1.404 . S
C789 H801 0.930 . S
C790 C786 1.524 . S
C790 H802 0.956 . S
C790 H803 0.961 . S
C790 H804 0.961 . S
C791 C788 1.539 . S
C791 H805 0.958 . S
C791 H806 0.961 . S
C791 H807 0.960 . S
H792 C776 0.931 1_655 S
H793 C781 0.929 . S
H794 C782 0.960 . S
H795 C782 0.962 . S
H796 C782 0.960 . S
H797 C783 0.961 . S
H798 C783 0.961 . S
H799 C783 0.961 . S
H800 C784 0.931 . S
H801 C789 0.930 . S
H802 C790 0.956 . S
H803 C790 0.961 . S
H804 C790 0.961 . S
H805 C791 0.958 . S
H806 C791 0.961 . S
H807 C791 0.960 . S
C808 C809 1.391 1_565 S
C808 C810 1.394 . S
C808 H824 0.931 1_565 S
C809 C808 1.391 1_545 S
C809 C813 1.376 1_545 S
C810 C808 1.394 . S
C810 C811 1.369 . S
C810 C814 1.531 . S
C811 C810 1.369 . S
C811 C812 1.410 . S
C811 C819 1.503 . S
C812 C811 1.410 . S
C812 C813 1.392 . S
C812 C815 1.511 . S
C813 C809 1.376 1_565 S
C813 C812 1.392 . S
C813 H825 0.929 . S
C814 C810 1.531 . S
C814 H826 0.960 . S
C814 H827 0.962 . S
C814 H828 0.960 . S
C815 C812 1.511 . S
C815 H829 0.961 . S
C815 H830 0.961 . S
C815 H831 0.961 . S
C816 C817 1.370 . S
C816 C818 1.363 . S
C816 H832 0.931 . S
C817 C816 1.370 . S
C817 C821 1.408 . S
C818 C816 1.363 . S
C818 C819 1.370 . S
C818 C822 1.524 . S
C819 C811 1.503 . S
C819 C818 1.370 . S
C819 C820 1.403 . S
C820 C819 1.403 . S
C820 C821 1.404 . S
C820 C823 1.539 . S
C821 C817 1.408 . S
C821 C820 1.404 . S
C821 H833 0.930 . S
C822 C818 1.524 . S
C822 H834 0.956 . S
C822 H835 0.961 . S
C822 H836 0.961 . S
C823 C820 1.539 . S
C823 H837 0.958 . S
C823 H838 0.961 . S
C823 H839 0.960 . S
H824 C808 0.931 1_545 S
H825 C813 0.929 . S
H826 C814 0.960 . S
H827 C814 0.962 . S
H828 C814 0.960 . S
H829 C815 0.961 . S
H830 C815 0.961 . S
H831 C815 0.961 . S
H832 C816 0.931 . S
H833 C821 0.930 . S
H834 C822 0.956 . S
H835 C822 0.961 . S
H836 C822 0.961 . S
H837 C823 0.958 . S
H838 C823 0.961 . S
H839 C823 0.960 . S
C840 C841 1.391 . S
C840 C842 1.394 . S
C840 H856 0.931 . S
C841 C840 1.391 . S
C841 C845 1.376 . S
C842 C840 1.394 . S
C842 C843 1.369 . S
C842 C846 1.531 . S
C843 C842 1.369 . S
C843 C844 1.410 . S
C843 C851 1.503 . S
C844 C843 1.410 . S
C844 C845 1.392 . S
C844 C847 1.511 . S
C845 C841 1.376 . S
C845 C844 1.392 . S
C845 H857 0.929 . S
C846 C842 1.531 . S
C846 H858 0.960 . S
C846 H859 0.962 . S
C846 H860 0.960 . S
C847 C844 1.511 . S
C847 H861 0.961 . S
C847 H862 0.961 . S
C847 H863 0.961 . S
C848 C849 1.370 . S
C848 C850 1.363 . S
C848 H864 0.931 . S
C849 C848 1.370 . S
C849 C853 1.408 . S
C850 C848 1.363 . S
C850 C851 1.370 . S
C850 C854 1.524 . S
C851 C843 1.503 . S
C851 C850 1.370 . S
C851 C852 1.403 . S
C852 C851 1.403 . S
C852 C853 1.404 . S
C852 C855 1.539 . S
C853 C849 1.408 . S
C853 C852 1.404 . S
C853 H865 0.930 . S
C854 C850 1.524 . S
C854 H866 0.956 . S
C854 H867 0.961 . S
C854 H868 0.961 . S
C855 C852 1.539 . S
C855 H869 0.958 . S
C855 H870 0.961 . S
C855 H871 0.960 . S
H856 C840 0.931 . S
H857 C845 0.929 . S
H858 C846 0.960 . S
H859 C846 0.962 . S
H860 C846 0.960 . S
H861 C847 0.961 . S
H862 C847 0.961 . S
H863 C847 0.961 . S
H864 C848 0.931 . S
H865 C853 0.930 . S
H866 C854 0.956 . S
H867 C854 0.961 . S
H868 C854 0.961 . S
H869 C855 0.958 . S
H870 C855 0.961 . S
H871 C855 0.960 . S
C872 C873 1.391 1_655 S
C872 C874 1.394 . S
C872 H888 0.931 1_655 S
C873 C872 1.391 1_455 S
C873 C877 1.376 1_455 S
C874 C872 1.394 . S
C874 C875 1.369 . S
C874 C878 1.531 . S
C875 C874 1.369 . S
C875 C876 1.410 . S
C875 C883 1.503 . S
C876 C875 1.410 . S
C876 C877 1.392 . S
C876 C879 1.511 . S
C877 C873 1.376 1_655 S
C877 C876 1.392 . S
C877 H889 0.929 . S
C878 C874 1.531 . S
C878 H890 0.960 . S
C878 H891 0.962 . S
C878 H892 0.960 . S
C879 C876 1.511 . S
C879 H893 0.961 . S
C879 H894 0.961 . S
C879 H895 0.961 . S
C880 C881 1.370 . S
C880 C882 1.363 . S
C880 H896 0.931 . S
C881 C880 1.370 . S
C881 C885 1.408 . S
C882 C880 1.363 . S
C882 C883 1.370 . S
C882 C886 1.524 . S
C883 C875 1.503 . S
C883 C882 1.370 . S
C883 C884 1.403 . S
C884 C883 1.403 . S
C884 C885 1.404 . S
C884 C887 1.539 . S
C885 C881 1.408 . S
C885 C884 1.404 . S
C885 H897 0.930 . S
C886 C882 1.524 . S
C886 H898 0.956 . S
C886 H899 0.961 . S
C886 H900 0.961 . S
C887 C884 1.539 . S
C887 H901 0.958 . S
C887 H902 0.961 . S
C887 H903 0.960 . S
H888 C872 0.931 1_455 S
H889 C877 0.929 . S
H890 C878 0.960 . S
H891 C878 0.962 . S
H892 C878 0.960 . S
H893 C879 0.961 . S
H894 C879 0.961 . S
H895 C879 0.961 . S
H896 C880 0.931 . S
H897 C885 0.930 . S
H898 C886 0.956 . S
H899 C886 0.961 . S
H900 C886 0.961 . S
H901 C887 0.958 . S
H902 C887 0.961 . S
H903 C887 0.960 . S
C904 C905 1.391 1_545 S
C904 C906 1.394 . S
C904 H920 0.931 1_545 S
C905 C904 1.391 1_565 S
C905 C909 1.376 1_565 S
C906 C904 1.394 . S
C906 C907 1.369 . S
C906 C910 1.531 . S
C907 C906 1.369 . S
C907 C908 1.410 . S
C907 C915 1.503 . S
C908 C907 1.410 . S
C908 C909 1.392 . S
C908 C911 1.511 . S
C909 C905 1.376 1_545 S
C909 C908 1.392 . S
C909 H921 0.929 . S
C910 C906 1.531 . S
C910 H922 0.960 . S
C910 H923 0.962 . S
C910 H924 0.960 . S
C911 C908 1.511 . S
C911 H925 0.961 . S
C911 H926 0.961 . S
C911 H927 0.961 . S
C912 C913 1.370 . S
C912 C914 1.363 . S
C912 H928 0.931 . S
C913 C912 1.370 . S
C913 C917 1.408 . S
C914 C912 1.363 . S
C914 C915 1.370 . S
C914 C918 1.524 . S
C915 C907 1.503 . S
C915 C914 1.370 . S
C915 C916 1.403 . S
C916 C915 1.403 . S
C916 C917 1.404 . S
C916 C919 1.539 . S
C917 C913 1.408 . S
C917 C916 1.404 . S
C917 H929 0.930 . S
C918 C914 1.524 . S
C918 H930 0.956 . S
C918 H931 0.961 . S
C918 H932 0.961 . S
C919 C916 1.539 . S
C919 H933 0.958 . S
C919 H934 0.961 . S
C919 H935 0.960 . S
H920 C904 0.931 1_565 S
H921 C909 0.929 . S
H922 C910 0.960 . S
H923 C910 0.962 . S
H924 C910 0.960 . S
H925 C911 0.961 . S
H926 C911 0.961 . S
H927 C911 0.961 . S
H928 C912 0.931 . S
H929 C917 0.930 . S
H930 C918 0.956 . S
H931 C918 0.961 . S
H932 C918 0.961 . S
H933 C919 0.958 . S
H934 C919 0.961 . S
H935 C919 0.960 . S
C169 C148 1.532 . S
C177 C8 1.317 . S
C201 C22 1.504 . S
C209 C162 1.331 . S
C233 C36 1.270 . S
C241 C92 1.524 . S
C265 C50 1.516 . S
C273 C106 1.352 . S
C297 C120 1.508 . S
C305 C64 1.312 . S
C329 C78 1.540 . S
C337 C134 1.349 . S
C361 C119 1.713 . S
C369 C7 1.686 . S
C393 C21 1.715 . S
C401 C133 1.680 . S
C425 C35 1.684 . S
C433 C147 1.712 . S
C457 C49 1.708 . S
C465 C161 1.671 . S
C489 C91 1.707 . S
C497 C63 1.686 . S
C521 C105 1.663 . S
C529 C77 1.712 . S
C553 C51 1.570 . S
C561 C9 1.585 . S
C585 C23 1.603 . S
C593 C65 1.568 . S
C617 C79 1.555 . S
C625 C37 1.588 . S
C649 C135 1.601 . S
C657 C93 1.571 . S
C681 C149 1.600 . S
C689 C107 1.571 . S
C713 C121 1.573 . S
C721 C163 1.583 . S
C745 C48 1.232 . S
C753 C6 1.227 . S
C777 C20 1.233 . S
C785 C62 1.225 . S
C809 C76 1.224 . S
C817 C34 1.229 . S
C841 C90 1.232 . S
C849 C132 1.224 . S
C873 C146 1.226 . S
C881 C104 1.228 . S
C905 C118 1.229 . S
C913 C160 1.228 . S
