# Generated by pormake.
# Topology sow, (4)-cn, num edge types: 1
# Building blocks:
#     Node 0, Type 0, BuildingBlock: CEKHIL_clean_sbu_0, # of connection points: 4
#     Node 1, Type 0, BuildingBlock: CEKHIL_clean_sbu_0, # of connection points: 4
#     Node 2, Type 0, BuildingBlock: CEKHIL_clean_sbu_0, # of connection points: 4
#     Node 3, Type 0, BuildingBlock: CEKHIL_clean_sbu_0, # of connection points: 4
#     Node 4, Type 0, BuildingBlock: CEKHIL_clean_sbu_0, # of connection points: 4
#     Node 5, Type 0, BuildingBlock: CEKHIL_clean_sbu_0, # of connection points: 4
#     Node 6, Type 0, BuildingBlock: CEKHIL_clean_sbu_0, # of connection points: 4
#     Node 7, Type 0, BuildingBlock: CEKHIL_clean_sbu_0, # of connection points: 4
#     Edge 8, Type (0, 0), BuildingBlock: XIVTED_clean_linker_0, # of connection points: 2
#     Edge 9, Type (0, 0), BuildingBlock: XIVTED_clean_linker_0, # of connection points: 2
#     Edge 10, Type (0, 0), BuildingBlock: XIVTED_clean_linker_0, # of connection points: 2
#     Edge 11, Type (0, 0), BuildingBlock: XIVTED_clean_linker_0, # of connection points: 2
#     Edge 12, Type (0, 0), BuildingBlock: XIVTED_clean_linker_0, # of connection points: 2
#     Edge 13, Type (0, 0), BuildingBlock: XIVTED_clean_linker_0, # of connection points: 2
#     Edge 14, Type (0, 0), BuildingBlock: XIVTED_clean_linker_0, # of connection points: 2
#     Edge 15, Type (0, 0), BuildingBlock: XIVTED_clean_linker_0, # of connection points: 2
#     Edge 16, Type (0, 0), BuildingBlock: XIVTED_clean_linker_0, # of connection points: 2
#     Edge 17, Type (0, 0), BuildingBlock: XIVTED_clean_linker_0, # of connection points: 2
#     Edge 18, Type (0, 0), BuildingBlock: XIVTED_clean_linker_0, # of connection points: 2
#     Edge 19, Type (0, 0), BuildingBlock: XIVTED_clean_linker_0, # of connection points: 2
#     Edge 20, Type (0, 0), BuildingBlock: XIVTED_clean_linker_0, # of connection points: 2
#     Edge 21, Type (0, 0), BuildingBlock: XIVTED_clean_linker_0, # of connection points: 2
#     Edge 22, Type (0, 0), BuildingBlock: XIVTED_clean_linker_0, # of connection points: 2
#     Edge 23, Type (0, 0), BuildingBlock: XIVTED_clean_linker_0, # of connection points: 2
# Relax obj value: 0.166
# Max RMSD: 0.206
# Mean RMSD: 0.206
data_MOF--net-sow--node1-CEKHIL_clean_sbu_0--edge1-XIVTED_clean_linker_0
_symmetry_space_group_name_H-M    P1
_symmetry_Int_Tables_number       1
_symmetry_cell_setting            triclinic
loop_
_symmetry_equiv_pos_as_xyz
'x, y, z'
_cell_length_a     39.614138
_cell_length_b     22.165222
_cell_length_c     23.584473
_cell_angle_alpha  90.01681
_cell_angle_beta   89.984635
_cell_angle_gamma 89.958334
loop_
_atom_site_label
_atom_site_type_symbol
_atom_site_fract_x
_atom_site_fract_y
_atom_site_fract_z
_atom_type_partial_charge
Co0 Co 0.13407 0.18127 0.03394 0.0
O1 O 0.16804 0.16529 0.97853 0.0
O2 O 0.15196 0.25669 0.00567 0.0
C3 C 0.0961 0.11661 -0.00177 0.0
O4 O 0.09853 0.21414 0.08827 0.0
Co5 Co 0.10964 0.07735 0.11322 0.0
O6 O 0.07117 0.13367 0.12423 0.0
C7 C 0.17363 0.14058 0.13792 0.0
C8 C 0.17005 0.22322 0.97189 0.0
C9 C 0.07378 0.19022 0.11544 0.0
O10 O 0.16823 0.17806 0.09713 0.0
O11 O 0.15468 0.09506 0.14814 0.0
O12 O 0.09919 0.17016 0.97663 0.0
O13 O 0.11806 0.10227 0.0363 0.0
Co14 Co 0.34291 0.3114 0.53706 0.0
O15 O 0.31154 0.32986 0.47808 0.0
O16 O 0.32419 0.23738 0.50703 0.0
C17 C 0.38388 0.3729 0.50625 0.0
O18 O 0.37538 0.27604 0.59512 0.0
Co19 Co 0.3652 0.4151 0.6189 0.0
O20 O 0.39819 0.3534 0.64426 0.0
C21 C 0.29931 0.35626 0.63514 0.0
C22 C 0.30802 0.27212 0.47172 0.0
C23 C 0.39623 0.29758 0.63167 0.0
O24 O 0.3064 0.31721 0.59641 0.0
O25 O 0.31795 0.40192 0.64622 0.0
O26 O 0.38035 0.31975 0.48388 0.0
O27 O 0.36064 0.389 0.5414 0.0
Co28 Co 0.6329 0.31484 0.95822 0.0
O29 O 0.66573 0.33377 0.01477 0.0
O30 O 0.65203 0.24106 0.98798 0.0
C31 C 0.59298 0.37733 0.99125 0.0
O32 O 0.59888 0.27883 0.90309 0.0
Co33 Co 0.60817 0.41671 0.87654 0.0
O34 O 0.57288 0.35615 0.85868 0.0
C35 C 0.67383 0.35774 0.85643 0.0
C36 C 0.66902 0.27608 0.0219 0.0
C37 C 0.57576 0.30029 0.87058 0.0
O38 O 0.66795 0.31948 0.89638 0.0
O39 O 0.65458 0.4027 0.84558 0.0
O40 O 0.5969 0.32442 0.01389 0.0
O41 O 0.61527 0.3926 0.95409 0.0
Co42 Co 0.84386 0.18949 0.45827 0.0
O43 O 0.81155 0.17179 0.51593 0.0
O44 O 0.82572 0.26402 0.48844 0.0
C45 C 0.88347 0.12574 0.49026 0.0
O46 O 0.87749 0.22396 0.40158 0.0
Co47 Co 0.8664 0.08569 0.37663 0.0
O48 O 0.90134 0.1456 0.35528 0.0
C49 C 0.80134 0.14734 0.3581 0.0
C50 C 0.80875 0.22956 0.52291 0.0
C51 C 0.89941 0.20158 0.36727 0.0
O52 O 0.80808 0.18572 0.39758 0.0
O53 O 0.81982 0.10135 0.34724 0.0
O54 O 0.88048 0.17894 0.51274 0.0
O55 O 0.86056 0.11116 0.454 0.0
Co56 Co 0.83959 0.82216 0.94214 0.0
O57 O 0.81009 0.84324 0.00324 0.0
O58 O 0.82229 0.74965 0.97687 0.0
C59 C 0.88175 0.88448 0.9656 0.0
O60 O 0.87059 0.78391 0.88352 0.0
Co61 Co 0.85826 0.92101 0.85317 0.0
O62 O 0.88843 0.85676 0.82377 0.0
C63 C 0.79184 0.86328 0.84836 0.0
C64 C 0.80728 0.78576 0.01239 0.0
C65 C 0.88838 0.80236 0.84135 0.0
O66 O 0.80115 0.8246 0.88603 0.0
O67 O 0.80948 0.90937 0.83475 0.0
O68 O 0.87853 0.83299 0.99122 0.0
O69 O 0.85726 0.8995 0.9324 0.0
Co70 Co 0.63317 0.6864 0.44318 0.0
O71 O 0.66321 0.66714 0.50387 0.0
O72 O 0.64971 0.76002 0.47721 0.0
C73 C 0.59214 0.6224 0.46849 0.0
O74 O 0.60143 0.72242 0.38441 0.0
Co75 Co 0.61558 0.58508 0.35602 0.0
O76 O 0.58475 0.64773 0.32569 0.0
C77 C 0.68095 0.64651 0.34888 0.0
C78 C 0.6653 0.72473 0.51276 0.0
C79 C 0.58398 0.70246 0.3424 0.0
O80 O 0.67134 0.68501 0.38653 0.0
O81 O 0.66394 0.59942 0.33601 0.0
O82 O 0.59469 0.67458 0.49306 0.0
O83 O 0.61657 0.60807 0.43485 0.0
Co84 Co 0.33949 0.68181 0.0498 0.0
O85 O 0.31078 0.6606 0.98782 0.0
O86 O 0.32212 0.75427 0.0149 0.0
C87 C 0.38213 0.62023 0.02667 0.0
O88 O 0.36959 0.72007 0.10971 0.0
Co89 Co 0.35781 0.58232 0.13833 0.0
O90 O 0.38687 0.64699 0.16973 0.0
C91 C 0.29112 0.63962 0.14227 0.0
C92 C 0.30775 0.71804 0.97876 0.0
C93 C 0.38674 0.70157 0.15262 0.0
O94 O 0.30049 0.67838 0.10473 0.0
O95 O 0.30892 0.59378 0.15622 0.0
O96 O 0.37894 0.67208 0.00171 0.0
O97 O 0.35747 0.60458 0.05928 0.0
Co98 Co 0.1343 0.8152 0.54893 0.0
O99 O 0.16352 0.83308 0.48663 0.0
O100 O 0.14985 0.74088 0.51509 0.0
C101 C 0.09322 0.8798 0.52523 0.0
O102 O 0.10327 0.78017 0.60916 0.0
Co103 Co 0.11823 0.91696 0.6365 0.0
O104 O 0.08756 0.85501 0.66849 0.0
C105 C 0.18367 0.85537 0.64051 0.0
C106 C 0.16511 0.77528 0.47844 0.0
C107 C 0.08643 0.80032 0.65178 0.0
O108 O 0.17331 0.8164 0.6039 0.0
O109 O 0.16699 0.90283 0.65359 0.0
O110 O 0.09513 0.82747 0.50071 0.0
O111 O 0.11825 0.89387 0.55764 0.0
H112 H 0.26329 0.25148 0.64564 0.0
H113 H 0.17861 0.34228 0.94143 0.0
H114 H 0.27265 0.43024 0.71709 0.0
H115 H 0.20172 0.16016 0.88896 0.0
H116 H 0.20395 0.37953 0.85285 0.0
H117 H 0.2283 0.22248 0.72609 0.0
C118 C 0.25743 0.28508 0.67752 0.0
C119 C 0.27155 0.34304 0.67512 0.0
C120 C 0.20342 0.33147 0.86108 0.0
C121 C 0.23197 0.30972 0.7678 0.0
C122 C 0.18925 0.31029 0.91165 0.0
C123 C 0.18827 0.24812 0.9227 0.0
C124 C 0.2161 0.29 0.82132 0.0
C125 C 0.20207 0.2085 0.88246 0.0
C126 C 0.23772 0.26828 0.72377 0.0
C127 C 0.2628 0.3847 0.7177 0.0
N128 N 0.21524 0.2301 0.83354 0.0
N129 N 0.2439 0.36699 0.76277 0.0
H130 H 0.21052 0.24455 0.14781 0.0
H131 H 0.29403 0.15383 0.44477 0.0
H132 H 0.19729 0.06886 0.22399 0.0
H133 H 0.28051 0.33662 0.38561 0.0
H134 H 0.26625 0.11729 0.35813 0.0
H135 H 0.24628 0.27348 0.22736 0.0
C136 C 0.21557 0.21164 0.18069 0.0
C137 C 0.2004 0.15449 0.17959 0.0
C138 C 0.26942 0.16536 0.36439 0.0
C139 C 0.24098 0.18769 0.27118 0.0
C140 C 0.28506 0.18617 0.41382 0.0
C141 C 0.28934 0.2483 0.42254 0.0
C142 C 0.25847 0.20706 0.32342 0.0
C143 C 0.27755 0.28832 0.38092 0.0
C144 C 0.23578 0.22839 0.22637 0.0
C145 C 0.20804 0.11373 0.22346 0.0
N146 N 0.26277 0.26701 0.33318 0.0
N147 N 0.22756 0.13132 0.26781 0.0
H148 H 0.76665 0.25348 0.34582 0.0
H149 H 0.68033 0.15796 0.05255 0.0
H150 H 0.77434 0.07346 0.27664 0.0
H151 H 0.69932 0.34162 0.10466 0.0
H152 H 0.70706 0.12261 0.1405 0.0
H153 H 0.73141 0.28218 0.2655 0.0
C154 C 0.76039 0.21959 0.31444 0.0
C155 C 0.77398 0.16124 0.31754 0.0
C156 C 0.70535 0.1706 0.1324 0.0
C157 C 0.73413 0.19414 0.22501 0.0
C158 C 0.69035 0.19073 0.08217 0.0
C159 C 0.68781 0.25275 0.07116 0.0
C160 C 0.71742 0.21294 0.17187 0.0
C161 C 0.70089 0.29336 0.11117 0.0
C162 C 0.74054 0.2362 0.26825 0.0
C163 C 0.76485 0.11925 0.27554 0.0
N164 N 0.71499 0.27274 0.15976 0.0
N165 N 0.74578 0.13672 0.2306 0.0
H166 H 0.71158 0.25467 0.84685 0.0
H167 H 0.79626 0.34807 0.55164 0.0
H168 H 0.69839 0.43124 0.77243 0.0
H169 H 0.78004 0.16486 0.60763 0.0
H170 H 0.76888 0.38421 0.63893 0.0
H171 H 0.7479 0.22695 0.76759 0.0
C172 C 0.71679 0.28805 0.81449 0.0
C173 C 0.70138 0.34502 0.81585 0.0
C174 C 0.7714 0.33615 0.6318 0.0
C175 C 0.74256 0.31319 0.72457 0.0
C176 C 0.78678 0.31557 0.582 0.0
C177 C 0.79018 0.25344 0.57222 0.0
C178 C 0.75989 0.29417 0.67206 0.0
C179 C 0.77777 0.21318 0.61312 0.0
C180 C 0.73731 0.27199 0.76895 0.0
C181 C 0.70929 0.38645 0.77267 0.0
N182 N 0.76331 0.23425 0.66123 0.0
N183 N 0.72906 0.36949 0.72838 0.0
H184 H 0.78064 0.85306 0.09781 0.0
H185 H 0.71491 0.57253 0.27533 0.0
H186 H 0.79809 0.66854 0.04685 0.0
H187 H 0.71111 0.75664 0.33506 0.0
H188 H 0.75018 0.60496 0.19626 0.0
H189 H 0.75765 0.81736 0.18729 0.0
C190 C 0.77941 0.8049 0.10527 0.0
C191 C 0.791 0.76363 0.06457 0.0
C192 C 0.74211 0.63809 0.22718 0.0
C193 C 0.765 0.72239 0.16754 0.0
C194 C 0.72209 0.61959 0.27255 0.0
C195 C 0.70945 0.66215 0.3113 0.0
C196 C 0.74925 0.69962 0.22026 0.0
C197 C 0.71996 0.7223 0.30597 0.0
C198 C 0.76656 0.78456 0.15671 0.0
C199 C 0.78913 0.70183 0.07689 0.0
N200 N 0.73874 0.73943 0.2606 0.0
N201 N 0.77619 0.68301 0.12727 0.0
H202 H 0.69212 0.65829 0.59831 0.0
H203 H 0.75873 0.93815 0.7745 0.0
H204 H 0.67372 0.84243 0.54712 0.0
H205 H 0.75973 0.75472 0.83622 0.0
H206 H 0.72301 0.90642 0.69573 0.0
H207 H 0.71466 0.69441 0.68779 0.0
C208 C 0.69305 0.7065 0.60572 0.0
C209 C 0.68132 0.7475 0.56492 0.0
C210 C 0.73054 0.87335 0.72707 0.0
C211 C 0.70688 0.78924 0.66802 0.0
C212 C 0.75082 0.89144 0.77226 0.0
C213 C 0.76288 0.84874 0.81138 0.0
C214 C 0.72256 0.81209 0.72074 0.0
C215 C 0.7514 0.7891 0.80678 0.0
C216 C 0.70563 0.72707 0.6572 0.0
C217 C 0.6828 0.80935 0.57723 0.0
N218 N 0.73242 0.77232 0.76156 0.0
N219 N 0.69557 0.82844 0.62769 0.0
H220 H 0.28194 0.6503 0.89309 0.0
H221 H 0.2189 0.9299 0.71172 0.0
H222 H 0.29924 0.83511 0.94313 0.0
H223 H 0.21347 0.74494 0.65482 0.0
H224 H 0.25409 0.89785 0.79099 0.0
H225 H 0.26018 0.68535 0.80259 0.0
C226 C 0.28093 0.69841 0.8852 0.0
C227 C 0.29211 0.73994 0.92597 0.0
C228 C 0.2457 0.86444 0.76062 0.0
C229 C 0.2675 0.78044 0.82179 0.0
C230 C 0.22574 0.88271 0.71511 0.0
C231 C 0.21256 0.83981 0.67725 0.0
C232 C 0.25226 0.80282 0.76852 0.0
C233 C 0.22269 0.77952 0.68328 0.0
C234 C 0.26879 0.71837 0.83318 0.0
C235 C 0.29056 0.80163 0.91307 0.0
N236 N 0.2414 0.76264 0.7288 0.0
N237 N 0.27829 0.8201 0.8621 0.0
H238 H 0.25652 0.74643 0.14998 0.0
H239 H 0.17317 0.65675 0.44695 0.0
H240 H 0.25952 0.56596 0.21897 0.0
H241 H 0.19031 0.83923 0.38978 0.0
H242 H 0.19543 0.61952 0.35634 0.0
H243 H 0.22006 0.77696 0.22819 0.0
C244 C 0.24887 0.71279 0.1807 0.0
C245 C 0.26181 0.6539 0.17865 0.0
C246 C 0.19419 0.66769 0.36376 0.0
C247 C 0.22066 0.68891 0.26884 0.0
C248 C 0.18176 0.68889 0.41553 0.0
C249 C 0.18031 0.75109 0.42613 0.0
C250 C 0.20491 0.70911 0.3224 0.0
C251 C 0.19134 0.79085 0.38372 0.0
C252 C 0.22831 0.73044 0.22572 0.0
C253 C 0.25073 0.61222 0.21953 0.0
N254 N 0.20318 0.76918 0.3338 0.0
N255 N 0.23125 0.63078 0.26355 0.0
H256 H 0.08321 0.27594 0.19682 0.0
H257 H 0.96236 0.23722 0.39775 0.0
H258 H 0.00659 0.18876 0.0965 0.0
H259 H 0.88873 0.25028 0.26416 0.0
H260 H 0.00625 0.26862 0.33117 0.0
H261 H 0.03902 0.31453 0.26059 0.0
C262 C 0.05695 0.26686 0.18721 0.0
C263 C 0.04825 0.22874 0.14212 0.0
C264 C 0.98031 0.2678 0.31682 0.0
C265 C -0.00187 0.27086 0.21484 0.0
C266 C 0.95528 0.24985 0.35498 0.0
C267 C 0.92214 0.24155 0.33606 0.0
C268 C 0.97198 0.27573 0.25928 0.0
C269 C 0.91413 0.25663 0.28007 0.0
C270 C 0.03185 0.28817 0.22387 0.0
C271 C 0.01412 0.21766 0.13132 0.0
N272 N 0.93907 0.27141 0.24313 0.0
N273 N -0.00972 0.23805 0.16787 0.0
H274 H 0.38644 0.252 0.73652 0.0
H275 H 0.58386 0.24076 0.77126 0.0
H276 H 0.45763 0.25616 0.59866 0.0
H277 H 0.51272 0.27242 0.90604 0.0
H278 H 0.53771 0.20412 0.71119 0.0
H279 H 0.43122 0.21659 0.79986 0.0
C280 C 0.41129 0.24296 0.71925 0.0
C281 C 0.41867 0.25693 0.66274 0.0
C282 C 0.53231 0.21704 0.75455 0.0
C283 C 0.47011 0.21908 0.73485 0.0
C284 C 0.55866 0.23746 0.78885 0.0
C285 C 0.55176 0.2595 0.84325 0.0
C286 C 0.49897 0.21989 0.7748 0.0
C287 C 0.51881 0.25554 0.86416 0.0
C288 C 0.43688 0.22323 0.75536 0.0
C289 C 0.45117 0.24558 0.64216 0.0
N290 N 0.49345 0.23721 0.8295 0.0
N291 N 0.47599 0.22847 0.67856 0.0
H292 H 0.0379 0.73088 0.60282 0.0
H293 H 0.93731 0.7366 0.8933 0.0
H294 H 0.07877 0.78288 0.76492 0.0
H295 H 0.89556 0.77819 0.72924 0.0
H296 H -0.01133 0.69901 0.84675 0.0
H297 H 0.9869 0.69399 0.65091 0.0
C298 C 0.03671 0.73203 0.64871 0.0
C299 C 0.06202 0.76076 0.68016 0.0
C300 C 0.96766 0.71402 0.82096 0.0
C301 C 0.00439 0.71893 0.7349 0.0
C302 C 0.93838 0.73513 0.84741 0.0
C303 C 0.91268 0.76118 0.81479 0.0
C304 C 0.97078 0.71879 0.76179 0.0
C305 C 0.91521 0.75904 0.75561 0.0
C306 C 0.00766 0.71124 0.67602 0.0
C307 C 0.05938 0.76175 0.73937 0.0
N308 N 0.94408 0.73916 0.7309 0.0
N309 N 0.03075 0.74203 0.76488 0.0
H310 H 0.39083 0.7243 0.26521 0.0
H311 H 0.53876 0.77968 0.39142 0.0
H312 H 0.43655 0.76891 0.10497 0.0
H313 H 0.57328 0.71396 0.22947 0.0
H314 H 0.48746 0.81835 0.34542 0.0
H315 H 0.44045 0.76299 0.31406 0.0
C316 C 0.41086 0.74477 0.24054 0.0
C317 C 0.40998 0.74308 0.18123 0.0
C318 C 0.50669 0.79681 0.3198 0.0
C319 C 0.46723 0.78605 0.23641 0.0
C320 C 0.53604 0.77535 0.34588 0.0
C321 C 0.55961 0.74237 0.31417 0.0
C322 C 0.50124 0.78478 0.26194 0.0
C323 C 0.55516 0.738 0.25541 0.0
C324 C 0.43919 0.76725 0.26839 0.0
C325 C 0.43649 0.76953 0.15088 0.0
N326 N 0.5262 0.75804 0.23127 0.0
N327 N 0.46467 0.78803 0.17879 0.0
H328 H 0.08331 0.00453 0.03986 0.0
H329 H 0.89665 0.99043 0.91205 0.0
H330 H 0.04094 0.14386 0.93356 0.0
H331 H 0.9386 0.85648 0.02475 0.0
H332 H 0.95015 0.04524 0.91524 0.0
H333 H 0.03146 0.94657 0.02947 0.0
C334 C 0.06313 0.0227 0.01398 0.0
C335 C 0.06623 0.07913 0.98778 0.0
C336 C 0.94761 0.00386 0.93926 0.0
C337 C 0.00681 0.01337 0.976 0.0
C338 C 0.9171 0.9727 0.93757 0.0
C339 C 0.91326 0.9191 0.9684 0.0
C340 C 0.97435 0.98107 0.97197 0.0
C341 C 0.9405 0.89784 0.00057 0.0
C342 C 0.03351 0.98968 0.00816 0.0
C343 C 0.03946 0.10051 0.95455 0.0
N344 N 0.96992 0.92896 0.00154 0.0
N345 N 0.01069 0.06768 0.94983 0.0
H346 H 0.53644 0.6469 0.53179 0.0
H347 H 0.43941 0.34544 0.44229 0.0
H348 H 0.57864 0.5139 0.41825 0.0
H349 H 0.39748 0.48327 0.55093 0.0
H350 H 0.4907 0.40596 0.43224 0.0
H351 H 0.48537 0.58642 0.53943 0.0
C352 C 0.53496 0.6048 0.50856 0.0
C353 C 0.56172 0.58521 0.47439 0.0
C354 C 0.47022 0.42295 0.45814 0.0
C355 C 0.50336 0.51587 0.48273 0.0
C356 C 0.44097 0.38853 0.46379 0.0
C357 C 0.4143 0.40947 0.49754 0.0
C358 C 0.47265 0.47848 0.48653 0.0
C359 C 0.41753 0.46544 0.52459 0.0
C360 C 0.50577 0.57034 0.51283 0.0
C361 C 0.55851 0.53048 0.44511 0.0
N362 N 0.44624 0.49796 0.51858 0.0
N363 N 0.52976 0.49758 0.44994 0.0
H364 H 0.43843 0.64796 0.96618 0.0
H365 H 0.53826 0.34975 0.05697 0.0
H366 H 0.39678 0.51264 0.07766 0.0
H367 H 0.57886 0.48789 0.94747 0.0
H368 H 0.48669 0.40951 0.06766 0.0
H369 H 0.49057 0.59006 0.96052 0.0
C370 C 0.44027 0.60592 0.98939 0.0
C371 C 0.41332 0.58484 0.02229 0.0
C372 C 0.50696 0.42679 0.04149 0.0
C373 C 0.47288 0.51844 0.01621 0.0
C374 C 0.53637 0.39282 0.0355 0.0
C375 C 0.5627 0.41397 0.00116 0.0
C376 C 0.50402 0.48208 0.01286 0.0
C377 C 0.55906 0.46988 0.97419 0.0
C378 C 0.47006 0.57293 0.98626 0.0
C379 C 0.41702 0.53029 0.05169 0.0
N380 N 0.53019 0.50194 0.98049 0.0
N381 N 0.44634 0.49881 0.04791 0.0
H382 H 0.08104 0.98831 0.57637 0.0
H383 H 0.89497 0.01372 0.44774 0.0
H384 H 0.03591 0.85539 0.46614 0.0
H385 H 0.93975 0.15156 0.55292 0.0
H386 H 0.94591 0.95329 0.45785 0.0
H387 H 0.02909 0.04777 0.57129 0.0
C388 C 0.06022 0.97178 0.55101 0.0
C389 C 0.06269 0.91707 0.52147 0.0
C390 C 0.94463 0.99666 0.47891 0.0
C391 C 0.00341 0.98436 0.5157 0.0
C392 C 0.91553 0.03114 0.4732 0.0
C393 C 0.91331 0.08773 0.49936 0.0
C394 C 0.97173 0.019 0.51094 0.0
C395 C 0.94056 0.10808 0.53203 0.0
C396 C 0.0306 0.00561 0.54822 0.0
C397 C 0.03505 0.89748 0.4894 0.0
N398 N 0.96881 0.07374 0.53676 0.0
N399 N 0.00653 0.93115 0.48738 0.0
loop_
_geom_bond_atom_site_label_1
_geom_bond_atom_site_label_2
_geom_bond_distance
_geom_bond_site_symmetry_2
_ccdc_geom_bond_type
Co0 O1 2.216 . S
Co0 O2 2.091 1_554 S
Co0 O4 2.004 . S
Co0 O10 2.021 . S
Co0 O12 2.137 . S
Co0 O13 2.244 . S
O1 Co0 2.216 . S
O1 C8 1.247 1_554 S
O2 Co0 2.091 1_556 S
O2 C8 1.261 . S
C3 O12 1.247 . S
C3 O13 1.272 . S
O4 Co0 2.004 . S
O4 C9 1.259 . S
Co5 O6 2.061 . S
Co5 O11 2.052 . S
Co5 O13 2.135 . S
O6 Co5 2.061 . S
O6 C9 1.235 . S
C7 O10 1.238 . S
C7 O11 1.241 . S
C8 O1 1.247 1_556 S
C8 O2 1.261 . S
C9 O4 1.259 . S
C9 O6 1.235 . S
O10 Co0 2.021 . S
O10 C7 1.238 . S
O11 Co5 2.052 . S
O11 C7 1.241 . S
O12 Co0 2.137 . S
O12 C3 1.247 . S
O13 Co0 2.244 . S
O13 C3 1.272 . S
O13 Co5 2.135 . S
Co14 O15 2.216 . S
Co14 O16 2.091 . S
Co14 O18 2.004 . S
Co14 O24 2.021 . S
Co14 O26 2.137 . S
Co14 O27 2.244 . S
O15 Co14 2.216 . S
O15 C22 1.247 . S
O16 Co14 2.091 . S
O16 C22 1.261 . S
C17 O26 1.247 . S
C17 O27 1.272 . S
O18 Co14 2.004 . S
O18 C23 1.259 . S
Co19 O20 2.061 . S
Co19 O25 2.052 . S
Co19 O27 2.135 . S
O20 Co19 2.061 . S
O20 C23 1.235 . S
C21 O24 1.238 . S
C21 O25 1.241 . S
C22 O15 1.247 . S
C22 O16 1.261 . S
C23 O18 1.259 . S
C23 O20 1.235 . S
O24 Co14 2.021 . S
O24 C21 1.238 . S
O25 Co19 2.052 . S
O25 C21 1.241 . S
O26 Co14 2.137 . S
O26 C17 1.247 . S
O27 Co14 2.244 . S
O27 C17 1.272 . S
O27 Co19 2.135 . S
Co28 O29 2.216 . S
Co28 O30 2.091 1_556 S
Co28 O32 2.004 . S
Co28 O38 2.021 . S
Co28 O40 2.137 . S
Co28 O41 2.244 . S
O29 Co28 2.216 . S
O29 C36 1.247 1_556 S
O30 Co28 2.091 1_554 S
O30 C36 1.261 . S
C31 O40 1.247 . S
C31 O41 1.272 . S
O32 Co28 2.004 . S
O32 C37 1.259 . S
Co33 O34 2.061 . S
Co33 O39 2.052 . S
Co33 O41 2.135 . S
O34 Co33 2.061 . S
O34 C37 1.235 . S
C35 O38 1.238 . S
C35 O39 1.241 . S
C36 O29 1.247 1_554 S
C36 O30 1.261 . S
C37 O32 1.259 . S
C37 O34 1.235 . S
O38 Co28 2.021 . S
O38 C35 1.238 . S
O39 Co33 2.052 . S
O39 C35 1.241 . S
O40 Co28 2.137 . S
O40 C31 1.247 . S
O41 Co28 2.244 . S
O41 C31 1.272 . S
O41 Co33 2.135 . S
Co42 O43 2.216 . S
Co42 O44 2.091 . S
Co42 O46 2.004 . S
Co42 O52 2.021 . S
Co42 O54 2.137 . S
Co42 O55 2.244 . S
O43 Co42 2.216 . S
O43 C50 1.247 . S
O44 Co42 2.091 . S
O44 C50 1.261 . S
C45 O54 1.247 . S
C45 O55 1.272 . S
O46 Co42 2.004 . S
O46 C51 1.259 . S
Co47 O48 2.061 . S
Co47 O53 2.052 . S
Co47 O55 2.135 . S
O48 Co47 2.061 . S
O48 C51 1.235 . S
C49 O52 1.238 . S
C49 O53 1.241 . S
C50 O43 1.247 . S
C50 O44 1.261 . S
C51 O46 1.259 . S
C51 O48 1.235 . S
O52 Co42 2.021 . S
O52 C49 1.238 . S
O53 Co47 2.052 . S
O53 C49 1.241 . S
O54 Co42 2.137 . S
O54 C45 1.247 . S
O55 Co42 2.244 . S
O55 C45 1.272 . S
O55 Co47 2.135 . S
Co56 O57 2.216 . S
Co56 O58 2.091 1_556 S
Co56 O60 2.004 . S
Co56 O66 2.021 . S
Co56 O68 2.137 . S
Co56 O69 2.244 . S
O57 Co56 2.216 . S
O57 C64 1.247 1_556 S
O58 Co56 2.091 1_554 S
O58 C64 1.261 . S
C59 O68 1.247 . S
C59 O69 1.272 . S
O60 Co56 2.004 . S
O60 C65 1.259 . S
Co61 O62 2.061 . S
Co61 O67 2.052 . S
Co61 O69 2.135 . S
O62 Co61 2.061 . S
O62 C65 1.235 . S
C63 O66 1.238 . S
C63 O67 1.241 . S
C64 O57 1.247 1_554 S
C64 O58 1.261 . S
C65 O60 1.259 . S
C65 O62 1.235 . S
O66 Co56 2.021 . S
O66 C63 1.238 . S
O67 Co61 2.052 . S
O67 C63 1.241 . S
O68 Co56 2.137 . S
O68 C59 1.247 . S
O69 Co56 2.244 . S
O69 C59 1.272 . S
O69 Co61 2.135 . S
Co70 O71 2.216 . S
Co70 O72 2.091 . S
Co70 O74 2.004 . S
Co70 O80 2.021 . S
Co70 O82 2.137 . S
Co70 O83 2.244 . S
O71 Co70 2.216 . S
O71 C78 1.247 . S
O72 Co70 2.091 . S
O72 C78 1.261 . S
C73 O82 1.247 . S
C73 O83 1.272 . S
O74 Co70 2.004 . S
O74 C79 1.259 . S
Co75 O76 2.061 . S
Co75 O81 2.052 . S
Co75 O83 2.135 . S
O76 Co75 2.061 . S
O76 C79 1.235 . S
C77 O80 1.238 . S
C77 O81 1.241 . S
C78 O71 1.247 . S
C78 O72 1.261 . S
C79 O74 1.259 . S
C79 O76 1.235 . S
O80 Co70 2.021 . S
O80 C77 1.238 . S
O81 Co75 2.052 . S
O81 C77 1.241 . S
O82 Co70 2.137 . S
O82 C73 1.247 . S
O83 Co70 2.244 . S
O83 C73 1.272 . S
O83 Co75 2.135 . S
Co84 O85 2.216 . S
Co84 O86 2.091 1_554 S
Co84 O88 2.004 . S
Co84 O94 2.021 . S
Co84 O96 2.137 . S
Co84 O97 2.244 . S
O85 Co84 2.216 . S
O85 C92 1.247 1_554 S
O86 Co84 2.091 1_556 S
O86 C92 1.261 . S
C87 O96 1.247 . S
C87 O97 1.272 . S
O88 Co84 2.004 . S
O88 C93 1.259 . S
Co89 O90 2.061 . S
Co89 O95 2.052 . S
Co89 O97 2.135 . S
O90 Co89 2.061 . S
O90 C93 1.235 . S
C91 O94 1.238 . S
C91 O95 1.241 . S
C92 O85 1.247 1_556 S
C92 O86 1.261 . S
C93 O88 1.259 . S
C93 O90 1.235 . S
O94 Co84 2.021 . S
O94 C91 1.238 . S
O95 Co89 2.052 . S
O95 C91 1.241 . S
O96 Co84 2.137 . S
O96 C87 1.247 . S
O97 Co84 2.244 . S
O97 C87 1.272 . S
O97 Co89 2.135 . S
Co98 O99 2.216 . S
Co98 O100 2.091 . S
Co98 O102 2.004 . S
Co98 O108 2.021 . S
Co98 O110 2.137 . S
Co98 O111 2.244 . S
O99 Co98 2.216 . S
O99 C106 1.247 . S
O100 Co98 2.091 . S
O100 C106 1.261 . S
C101 O110 1.247 . S
C101 O111 1.272 . S
O102 Co98 2.004 . S
O102 C107 1.259 . S
Co103 O104 2.061 . S
Co103 O109 2.052 . S
Co103 O111 2.135 . S
O104 Co103 2.061 . S
O104 C107 1.235 . S
C105 O108 1.238 . S
C105 O109 1.241 . S
C106 O99 1.247 . S
C106 O100 1.261 . S
C107 O102 1.259 . S
C107 O104 1.235 . S
O108 Co98 2.021 . S
O108 C105 1.238 . S
O109 Co103 2.052 . S
O109 C105 1.241 . S
O110 Co98 2.137 . S
O110 C101 1.247 . S
O111 Co98 2.244 . S
O111 C101 1.272 . S
O111 Co103 2.135 . S
H112 C118 0.930 . S
H113 C122 0.930 . S
H114 C127 0.929 . S
H115 C125 0.929 . S
H116 C120 0.929 . S
H117 C126 0.929 . S
C118 H112 0.930 . S
C118 C119 1.367 . S
C118 C126 1.378 . S
C119 C118 1.367 . S
C119 C127 1.433 . S
C120 H116 0.929 . S
C120 C122 1.378 . S
C120 C124 1.350 . S
C121 C124 1.463 . S
C121 C126 1.350 . S
C121 N129 1.427 . S
C122 H113 0.930 . S
C122 C120 1.378 . S
C122 C123 1.367 . S
C123 C122 1.367 . S
C123 C125 1.433 . S
C124 C120 1.350 . S
C124 C121 1.463 . S
C124 N128 1.427 . S
C125 H115 0.929 . S
C125 C123 1.433 . S
C125 N128 1.384 . S
C126 H117 0.929 . S
C126 C118 1.378 . S
C126 C121 1.350 . S
C127 H114 0.929 . S
C127 C119 1.433 . S
C127 N129 1.384 . S
N128 C124 1.427 . S
N128 C125 1.384 . S
N129 C121 1.427 . S
N129 C127 1.384 . S
H130 C136 0.930 . S
H131 C140 0.930 . S
H132 C145 0.929 . S
H133 C143 0.929 . S
H134 C138 0.929 . S
H135 C144 0.929 . S
C136 H130 0.930 . S
C136 C137 1.367 . S
C136 C144 1.378 . S
C137 C136 1.367 . S
C137 C145 1.433 . S
C138 H134 0.929 . S
C138 C140 1.378 . S
C138 C142 1.350 . S
C139 C142 1.463 . S
C139 C144 1.350 . S
C139 N147 1.427 . S
C140 H131 0.930 . S
C140 C138 1.378 . S
C140 C141 1.367 . S
C141 C140 1.367 . S
C141 C143 1.433 . S
C142 C138 1.350 . S
C142 C139 1.463 . S
C142 N146 1.427 . S
C143 H133 0.929 . S
C143 C141 1.433 . S
C143 N146 1.384 . S
C144 H135 0.929 . S
C144 C136 1.378 . S
C144 C139 1.350 . S
C145 H132 0.929 . S
C145 C137 1.433 . S
C145 N147 1.384 . S
N146 C142 1.427 . S
N146 C143 1.384 . S
N147 C139 1.427 . S
N147 C145 1.384 . S
H148 C154 0.930 . S
H149 C158 0.930 . S
H150 C163 0.929 . S
H151 C161 0.929 . S
H152 C156 0.929 . S
H153 C162 0.929 . S
C154 H148 0.930 . S
C154 C155 1.367 . S
C154 C162 1.378 . S
C155 C154 1.367 . S
C155 C163 1.433 . S
C156 H152 0.929 . S
C156 C158 1.378 . S
C156 C160 1.350 . S
C157 C160 1.463 . S
C157 C162 1.350 . S
C157 N165 1.427 . S
C158 H149 0.930 . S
C158 C156 1.378 . S
C158 C159 1.367 . S
C159 C158 1.367 . S
C159 C161 1.433 . S
C160 C156 1.350 . S
C160 C157 1.463 . S
C160 N164 1.427 . S
C161 H151 0.929 . S
C161 C159 1.433 . S
C161 N164 1.384 . S
C162 H153 0.929 . S
C162 C154 1.378 . S
C162 C157 1.350 . S
C163 H150 0.929 . S
C163 C155 1.433 . S
C163 N165 1.384 . S
N164 C160 1.427 . S
N164 C161 1.384 . S
N165 C157 1.427 . S
N165 C163 1.384 . S
H166 C172 0.930 . S
H167 C176 0.930 . S
H168 C181 0.929 . S
H169 C179 0.929 . S
H170 C174 0.929 . S
H171 C180 0.929 . S
C172 H166 0.930 . S
C172 C173 1.367 . S
C172 C180 1.378 . S
C173 C172 1.367 . S
C173 C181 1.433 . S
C174 H170 0.929 . S
C174 C176 1.378 . S
C174 C178 1.350 . S
C175 C178 1.463 . S
C175 C180 1.350 . S
C175 N183 1.427 . S
C176 H167 0.930 . S
C176 C174 1.378 . S
C176 C177 1.367 . S
C177 C176 1.367 . S
C177 C179 1.433 . S
C178 C174 1.350 . S
C178 C175 1.463 . S
C178 N182 1.427 . S
C179 H169 0.929 . S
C179 C177 1.433 . S
C179 N182 1.384 . S
C180 H171 0.929 . S
C180 C172 1.378 . S
C180 C175 1.350 . S
C181 H168 0.929 . S
C181 C173 1.433 . S
C181 N183 1.384 . S
N182 C178 1.427 . S
N182 C179 1.384 . S
N183 C175 1.427 . S
N183 C181 1.384 . S
H184 C190 0.930 . S
H185 C194 0.930 . S
H186 C199 0.929 . S
H187 C197 0.929 . S
H188 C192 0.929 . S
H189 C198 0.929 . S
C190 H184 0.930 . S
C190 C191 1.367 . S
C190 C198 1.378 . S
C191 C190 1.367 . S
C191 C199 1.433 . S
C192 H188 0.929 . S
C192 C194 1.378 . S
C192 C196 1.350 . S
C193 C196 1.463 . S
C193 C198 1.350 . S
C193 N201 1.427 . S
C194 H185 0.930 . S
C194 C192 1.378 . S
C194 C195 1.367 . S
C195 C194 1.367 . S
C195 C197 1.433 . S
C196 C192 1.350 . S
C196 C193 1.463 . S
C196 N200 1.427 . S
C197 H187 0.929 . S
C197 C195 1.433 . S
C197 N200 1.384 . S
C198 H189 0.929 . S
C198 C190 1.378 . S
C198 C193 1.350 . S
C199 H186 0.929 . S
C199 C191 1.433 . S
C199 N201 1.384 . S
N200 C196 1.427 . S
N200 C197 1.384 . S
N201 C193 1.427 . S
N201 C199 1.384 . S
H202 C208 0.930 . S
H203 C212 0.930 . S
H204 C217 0.929 . S
H205 C215 0.929 . S
H206 C210 0.929 . S
H207 C216 0.929 . S
C208 H202 0.930 . S
C208 C209 1.367 . S
C208 C216 1.378 . S
C209 C208 1.367 . S
C209 C217 1.433 . S
C210 H206 0.929 . S
C210 C212 1.378 . S
C210 C214 1.350 . S
C211 C214 1.463 . S
C211 C216 1.350 . S
C211 N219 1.427 . S
C212 H203 0.930 . S
C212 C210 1.378 . S
C212 C213 1.367 . S
C213 C212 1.367 . S
C213 C215 1.433 . S
C214 C210 1.350 . S
C214 C211 1.463 . S
C214 N218 1.427 . S
C215 H205 0.929 . S
C215 C213 1.433 . S
C215 N218 1.384 . S
C216 H207 0.929 . S
C216 C208 1.378 . S
C216 C211 1.350 . S
C217 H204 0.929 . S
C217 C209 1.433 . S
C217 N219 1.384 . S
N218 C214 1.427 . S
N218 C215 1.384 . S
N219 C211 1.427 . S
N219 C217 1.384 . S
H220 C226 0.930 . S
H221 C230 0.930 . S
H222 C235 0.929 . S
H223 C233 0.929 . S
H224 C228 0.929 . S
H225 C234 0.929 . S
C226 H220 0.930 . S
C226 C227 1.367 . S
C226 C234 1.378 . S
C227 C226 1.367 . S
C227 C235 1.433 . S
C228 H224 0.929 . S
C228 C230 1.378 . S
C228 C232 1.350 . S
C229 C232 1.463 . S
C229 C234 1.350 . S
C229 N237 1.427 . S
C230 H221 0.930 . S
C230 C228 1.378 . S
C230 C231 1.367 . S
C231 C230 1.367 . S
C231 C233 1.433 . S
C232 C228 1.350 . S
C232 C229 1.463 . S
C232 N236 1.427 . S
C233 H223 0.929 . S
C233 C231 1.433 . S
C233 N236 1.384 . S
C234 H225 0.929 . S
C234 C226 1.378 . S
C234 C229 1.350 . S
C235 H222 0.929 . S
C235 C227 1.433 . S
C235 N237 1.384 . S
N236 C232 1.427 . S
N236 C233 1.384 . S
N237 C229 1.427 . S
N237 C235 1.384 . S
H238 C244 0.930 . S
H239 C248 0.930 . S
H240 C253 0.929 . S
H241 C251 0.929 . S
H242 C246 0.929 . S
H243 C252 0.929 . S
C244 H238 0.930 . S
C244 C245 1.367 . S
C244 C252 1.378 . S
C245 C244 1.367 . S
C245 C253 1.433 . S
C246 H242 0.929 . S
C246 C248 1.378 . S
C246 C250 1.350 . S
C247 C250 1.463 . S
C247 C252 1.350 . S
C247 N255 1.427 . S
C248 H239 0.930 . S
C248 C246 1.378 . S
C248 C249 1.367 . S
C249 C248 1.367 . S
C249 C251 1.433 . S
C250 C246 1.350 . S
C250 C247 1.463 . S
C250 N254 1.427 . S
C251 H241 0.929 . S
C251 C249 1.433 . S
C251 N254 1.384 . S
C252 H243 0.929 . S
C252 C244 1.378 . S
C252 C247 1.350 . S
C253 H240 0.929 . S
C253 C245 1.433 . S
C253 N255 1.384 . S
N254 C250 1.427 . S
N254 C251 1.384 . S
N255 C247 1.427 . S
N255 C253 1.384 . S
H256 C262 0.930 . S
H257 C266 0.930 . S
H258 C271 0.929 . S
H259 C269 0.929 . S
H260 C264 0.929 . S
H261 C270 0.929 . S
C262 H256 0.930 . S
C262 C263 1.367 . S
C262 C270 1.378 . S
C263 C262 1.367 . S
C263 C271 1.433 . S
C264 H260 0.929 . S
C264 C266 1.378 . S
C264 C268 1.350 . S
C265 C268 1.463 1_455 S
C265 C270 1.350 . S
C265 N273 1.427 . S
C266 H257 0.930 . S
C266 C264 1.378 . S
C266 C267 1.367 . S
C267 C266 1.367 . S
C267 C269 1.433 . S
C268 C264 1.350 . S
C268 C265 1.463 1_655 S
C268 N272 1.427 . S
C269 H259 0.929 . S
C269 C267 1.433 . S
C269 N272 1.384 . S
C270 H261 0.929 . S
C270 C262 1.378 . S
C270 C265 1.350 . S
C271 H258 0.929 . S
C271 C263 1.433 . S
C271 N273 1.384 . S
N272 C268 1.427 . S
N272 C269 1.384 . S
N273 C265 1.427 . S
N273 C271 1.384 . S
H274 C280 0.930 . S
H275 C284 0.930 . S
H276 C289 0.929 . S
H277 C287 0.929 . S
H278 C282 0.929 . S
H279 C288 0.929 . S
C280 H274 0.930 . S
C280 C281 1.367 . S
C280 C288 1.378 . S
C281 C280 1.367 . S
C281 C289 1.433 . S
C282 H278 0.929 . S
C282 C284 1.378 . S
C282 C286 1.350 . S
C283 C286 1.463 . S
C283 C288 1.350 . S
C283 N291 1.427 . S
C284 H275 0.930 . S
C284 C282 1.378 . S
C284 C285 1.367 . S
C285 C284 1.367 . S
C285 C287 1.433 . S
C286 C282 1.350 . S
C286 C283 1.463 . S
C286 N290 1.427 . S
C287 H277 0.929 . S
C287 C285 1.433 . S
C287 N290 1.384 . S
C288 H279 0.929 . S
C288 C280 1.378 . S
C288 C283 1.350 . S
C289 H276 0.929 . S
C289 C281 1.433 . S
C289 N291 1.384 . S
N290 C286 1.427 . S
N290 C287 1.384 . S
N291 C283 1.427 . S
N291 C289 1.384 . S
H292 C298 0.930 . S
H293 C302 0.930 . S
H294 C307 0.929 . S
H295 C305 0.929 . S
H296 C300 0.929 1_455 S
H297 C306 0.929 1_655 S
C298 H292 0.930 . S
C298 C299 1.367 . S
C298 C306 1.378 . S
C299 C298 1.367 . S
C299 C307 1.433 . S
C300 H296 0.929 1_655 S
C300 C302 1.378 . S
C300 C304 1.350 . S
C301 C304 1.463 1_455 S
C301 C306 1.350 . S
C301 N309 1.427 . S
C302 H293 0.930 . S
C302 C300 1.378 . S
C302 C303 1.367 . S
C303 C302 1.367 . S
C303 C305 1.433 . S
C304 C300 1.350 . S
C304 C301 1.463 1_655 S
C304 N308 1.427 . S
C305 H295 0.929 . S
C305 C303 1.433 . S
C305 N308 1.384 . S
C306 H297 0.929 1_455 S
C306 C298 1.378 . S
C306 C301 1.350 . S
C307 H294 0.929 . S
C307 C299 1.433 . S
C307 N309 1.384 . S
N308 C304 1.427 . S
N308 C305 1.384 . S
N309 C301 1.427 . S
N309 C307 1.384 . S
H310 C316 0.930 . S
H311 C320 0.930 . S
H312 C325 0.929 . S
H313 C323 0.929 . S
H314 C318 0.929 . S
H315 C324 0.929 . S
C316 H310 0.930 . S
C316 C317 1.367 . S
C316 C324 1.378 . S
C317 C316 1.367 . S
C317 C325 1.433 . S
C318 H314 0.929 . S
C318 C320 1.378 . S
C318 C322 1.350 . S
C319 C322 1.463 . S
C319 C324 1.350 . S
C319 N327 1.427 . S
C320 H311 0.930 . S
C320 C318 1.378 . S
C320 C321 1.367 . S
C321 C320 1.367 . S
C321 C323 1.433 . S
C322 C318 1.350 . S
C322 C319 1.463 . S
C322 N326 1.427 . S
C323 H313 0.929 . S
C323 C321 1.433 . S
C323 N326 1.384 . S
C324 H315 0.929 . S
C324 C316 1.378 . S
C324 C319 1.350 . S
C325 H312 0.929 . S
C325 C317 1.433 . S
C325 N327 1.384 . S
N326 C322 1.427 . S
N326 C323 1.384 . S
N327 C319 1.427 . S
N327 C325 1.384 . S
H328 C334 0.930 . S
H329 C338 0.930 . S
H330 C343 0.929 . S
H331 C341 0.929 . S
H332 C336 0.929 1_545 S
H333 C342 0.929 1_565 S
C334 H328 0.930 . S
C334 C335 1.367 . S
C334 C342 1.378 . S
C335 C334 1.367 . S
C335 C343 1.433 . S
C336 H332 0.929 1_565 S
C336 C338 1.378 . S
C336 C340 1.350 . S
C337 C340 1.463 1_444 S
C337 C342 1.350 . S
C337 N345 1.427 1_554 S
C338 H329 0.930 . S
C338 C336 1.378 . S
C338 C339 1.367 . S
C339 C338 1.367 . S
C339 C341 1.433 . S
C340 C336 1.350 . S
C340 C337 1.463 1_666 S
C340 N344 1.427 1_556 S
C341 H331 0.929 . S
C341 C339 1.433 . S
C341 N344 1.384 1_556 S
C342 H333 0.929 1_545 S
C342 C334 1.378 . S
C342 C337 1.350 . S
C343 H330 0.929 . S
C343 C335 1.433 . S
C343 N345 1.384 1_554 S
N344 C340 1.427 1_554 S
N344 C341 1.384 1_554 S
N345 C337 1.427 1_556 S
N345 C343 1.384 1_556 S
H346 C352 0.930 . S
H347 C356 0.930 . S
H348 C361 0.929 . S
H349 C359 0.929 . S
H350 C354 0.929 . S
H351 C360 0.929 . S
C352 H346 0.930 . S
C352 C353 1.367 . S
C352 C360 1.378 . S
C353 C352 1.367 . S
C353 C361 1.433 . S
C354 H350 0.929 . S
C354 C356 1.378 . S
C354 C358 1.350 . S
C355 C358 1.463 . S
C355 C360 1.350 . S
C355 N363 1.427 . S
C356 H347 0.930 . S
C356 C354 1.378 . S
C356 C357 1.367 . S
C357 C356 1.367 . S
C357 C359 1.433 . S
C358 C354 1.350 . S
C358 C355 1.463 . S
C358 N362 1.427 . S
C359 H349 0.929 . S
C359 C357 1.433 . S
C359 N362 1.384 . S
C360 H351 0.929 . S
C360 C352 1.378 . S
C360 C355 1.350 . S
C361 H348 0.929 . S
C361 C353 1.433 . S
C361 N363 1.384 . S
N362 C358 1.427 . S
N362 C359 1.384 . S
N363 C355 1.427 . S
N363 C361 1.384 . S
H364 C370 0.930 . S
H365 C374 0.930 . S
H366 C379 0.929 . S
H367 C377 0.929 . S
H368 C372 0.929 . S
H369 C378 0.929 . S
C370 H364 0.930 . S
C370 C371 1.367 . S
C370 C378 1.378 . S
C371 C370 1.367 . S
C371 C379 1.433 . S
C372 H368 0.929 . S
C372 C374 1.378 . S
C372 C376 1.350 . S
C373 C376 1.463 1_554 S
C373 C378 1.350 . S
C373 N381 1.427 . S
C374 H365 0.930 . S
C374 C372 1.378 . S
C374 C375 1.367 . S
C375 C374 1.367 . S
C375 C377 1.433 . S
C376 C372 1.350 . S
C376 C373 1.463 1_556 S
C376 N380 1.427 . S
C377 H367 0.929 . S
C377 C375 1.433 . S
C377 N380 1.384 . S
C378 H369 0.929 . S
C378 C370 1.378 . S
C378 C373 1.350 . S
C379 H366 0.929 . S
C379 C371 1.433 . S
C379 N381 1.384 . S
N380 C376 1.427 . S
N380 C377 1.384 . S
N381 C373 1.427 . S
N381 C379 1.384 . S
H382 C388 0.930 . S
H383 C392 0.930 . S
H384 C397 0.929 . S
H385 C395 0.929 . S
H386 C390 0.929 1_565 S
H387 C396 0.929 1_545 S
C388 H382 0.930 . S
C388 C389 1.367 . S
C388 C396 1.378 . S
C389 C388 1.367 . S
C389 C397 1.433 . S
C390 H386 0.929 1_545 S
C390 C392 1.378 . S
C390 C394 1.350 . S
C391 C394 1.463 1_465 S
C391 C396 1.350 . S
C391 N399 1.427 . S
C392 H383 0.930 . S
C392 C390 1.378 . S
C392 C393 1.367 . S
C393 C392 1.367 . S
C393 C395 1.433 . S
C394 C390 1.350 . S
C394 C391 1.463 1_645 S
C394 N398 1.427 . S
C395 H385 0.929 . S
C395 C393 1.433 . S
C395 N398 1.384 . S
C396 H387 0.929 1_565 S
C396 C388 1.378 . S
C396 C391 1.350 . S
C397 H384 0.929 . S
C397 C389 1.433 . S
C397 N399 1.384 . S
N398 C394 1.427 . S
N398 C395 1.384 . S
N399 C391 1.427 . S
N399 C397 1.384 . S
C119 C21 1.629 . S
C123 C8 1.661 . S
C137 C7 1.624 . S
C141 C22 1.659 . S
C155 C49 1.631 . S
C159 C36 1.661 . S
C173 C35 1.632 . S
C177 C50 1.658 . S
C191 C64 1.654 . S
C195 C77 1.629 . S
C209 C78 1.652 . S
C213 C63 1.623 . S
C227 C92 1.653 . S
C231 C105 1.626 . S
C245 C91 1.630 . S
C249 C106 1.661 . S
C263 C9 0.594 . S
C267 C51 0.547 . S
C281 C23 0.580 . S
C285 C37 0.542 . S
C299 C107 0.553 . S
C303 C65 0.593 . S
C317 C93 0.593 . S
C321 C79 0.545 . S
C335 C3 1.564 . S
C339 C59 1.564 . S
C353 C73 1.561 . S
C357 C17 1.561 . S
C371 C87 1.557 . S
C375 C31 1.557 . S
C389 C101 1.565 . S
C393 C45 1.565 . S
