# Generated by pormake.
# Topology dmp, (4)-cn, num edge types: 1
# Building blocks:
#     Node 0, Type 0, BuildingBlock: ESEHIV_clean_sbu_0, # of connection points: 4
#     Node 1, Type 0, BuildingBlock: ESEHIV_clean_sbu_0, # of connection points: 4
#     Node 2, Type 0, BuildingBlock: ESEHIV_clean_sbu_0, # of connection points: 4
#     Node 3, Type 0, BuildingBlock: ESEHIV_clean_sbu_0, # of connection points: 4
#     Edge 4, Type (0, 0), BuildingBlock: XUDNAN_clean_linker_2, # of connection points: 2
#     Edge 5, Type (0, 0), BuildingBlock: XUDNAN_clean_linker_2, # of connection points: 2
#     Edge 6, Type (0, 0), BuildingBlock: XUDNAN_clean_linker_2, # of connection points: 2
#     Edge 7, Type (0, 0), BuildingBlock: XUDNAN_clean_linker_2, # of connection points: 2
#     Edge 8, Type (0, 0), BuildingBlock: XUDNAN_clean_linker_2, # of connection points: 2
#     Edge 9, Type (0, 0), BuildingBlock: XUDNAN_clean_linker_2, # of connection points: 2
#     Edge 10, Type (0, 0), BuildingBlock: XUDNAN_clean_linker_2, # of connection points: 2
#     Edge 11, Type (0, 0), BuildingBlock: XUDNAN_clean_linker_2, # of connection points: 2
# Relax obj value: 0.000
# Max RMSD: 0.009
# Mean RMSD: 0.009
data_MOF--net-dmp--node1-ESEHIV_clean_sbu_0--edge1-XUDNAN_clean_linker_2
_symmetry_space_group_name_H-M    P1
_symmetry_Int_Tables_number       1
_symmetry_cell_setting            triclinic
loop_
_symmetry_equiv_pos_as_xyz
'x, y, z'
_cell_length_a     39.046756
_cell_length_b     24.88239
_cell_length_c     6.1926113
_cell_angle_alpha  90.281973
_cell_angle_beta   89.83129
_cell_angle_gamma 99.733387
loop_
_atom_site_label
_atom_site_type_symbol
_atom_site_fract_x
_atom_site_fract_y
_atom_site_fract_z
_atom_type_partial_charge
Cu0 Cu 0.144 0.25095 0.32064 0.0
N1 N 0.16791 0.21891 0.10519 0.0
N2 N 0.20402 0.16836 0.95261 0.0
C3 C 0.18732 0.17939 0.13506 0.0
C4 C 0.19441 0.20208 0.80228 0.0
C5 C 0.17206 0.23282 0.89658 0.0
O6 O 0.12064 0.18872 0.48758 0.0
C7 C 0.18944 0.34706 0.345 0.0
O8 O 0.17929 0.34559 0.14265 0.0
H9 H 0.19016 0.16057 0.28961 0.0
H10 H 0.16024 0.26408 0.82102 0.0
N11 N 0.11073 0.29093 0.21527 0.0
N12 N 0.07925 0.35853 0.21258 0.0
C13 C 0.10185 0.33367 0.32339 0.0
C14 C 0.09283 0.28803 0.02891 0.0
C15 C 0.0733 0.32969 0.027 0.0
C16 C 0.08774 0.1778 0.5132 0.0
O17 O 0.0691 0.21623 0.48042 0.0
H18 H 0.1122 0.34644 0.48088 0.0
H19 H 0.0944 0.2586 0.90183 0.0
O20 O 0.17832 0.30622 0.46513 0.0
H21 H 0.20328 0.20498 0.63654 0.0
H22 H 0.05698 0.33907 0.89615 0.0
Cu23 Cu 0.39836 0.77381 0.23758 0.0
N24 N 0.37414 0.81321 0.04732 0.0
N25 N 0.34483 0.87717 0.92538 0.0
C26 C 0.35822 0.85585 0.09966 0.0
C27 C 0.35299 0.8474 0.75692 0.0
C28 C 0.37132 0.80862 0.83169 0.0
O29 O 0.43142 0.83121 0.37861 0.0
C30 C 0.33837 0.69897 0.31778 0.0
O31 O 0.33342 0.71047 0.11469 0.0
H32 H 0.35846 0.8734 0.25877 0.0
H33 H 0.38313 0.78084 0.73485 0.0
N34 N 0.42419 0.72494 0.10438 0.0
N35 N 0.4607 0.66418 0.08226 0.0
C36 C 0.45055 0.70496 0.1989 0.0
C37 C 0.4173 0.69545 0.92218 0.0
C38 C 0.43983 0.65839 0.90725 0.0
C39 C 0.45553 0.85242 0.24984 0.0
O40 O 0.45634 0.83168 0.05474 0.0
H41 H 0.4607 0.71809 0.35651 0.0
H42 H 0.39624 0.69843 0.8133 0.0
O43 O 0.36485 0.7252 0.41508 0.0
H44 H 0.34649 0.8539 0.59177 0.0
H45 H 0.44014 0.62859 0.77967 0.0
Cu46 Cu 0.90374 0.76827 0.7646 0.0
N47 N 0.87955 0.81441 0.60674 0.0
N48 N 0.85375 0.88679 0.54218 0.0
C49 C 0.88078 0.86851 0.6361 0.0
C50 C 0.83536 0.84279 0.4433 0.0
C51 C 0.85125 0.79827 0.48384 0.0
O52 O 0.93616 0.81294 0.96018 0.0
C53 C 0.87486 0.67764 0.03344 0.0
O54 O 0.90702 0.67654 0.09209 0.0
H55 H 0.89994 0.89369 0.73476 0.0
H56 H 0.8413 0.7563 0.44163 0.0
N57 N 0.9312 0.7326 0.58175 0.0
N58 N 0.96411 0.67368 0.45613 0.0
C59 C 0.93673 0.68032 0.58215 0.0
C60 C 0.95625 0.75948 0.45498 0.0
C61 C 0.97651 0.72354 0.37724 0.0
C62 C 0.92911 0.85041 0.08529 0.0
O63 O 0.89667 0.85685 0.11031 0.0
H64 H 0.92306 0.64897 0.68612 0.0
H65 H 0.96148 0.80313 0.4401 0.0
O66 O 0.86875 0.71455 0.9048 0.0
H67 H 0.81057 0.84182 0.36429 0.0
H68 H 1.00034 0.73402 0.28551 0.0
Cu69 Cu 0.65108 0.28229 0.76049 0.0
N70 N 0.68049 0.24304 0.60728 0.0
N71 N 0.71923 0.18669 0.55638 0.0
C72 C 0.70393 0.21654 0.7 0.0
C73 C 0.7045 0.1952 0.36483 0.0
C74 C 0.68087 0.23011 0.39647 0.0
O75 O 0.6211 0.23044 0.94755 0.0
C76 C 0.67576 0.38205 0.00111 0.0
O77 O 0.64468 0.39481 -0.02059 0.0
H78 H 0.70847 0.21792 0.87175 0.0
H79 H 0.6643 0.2436 0.27603 0.0
N80 N 0.62238 0.31458 0.57378 0.0
N81 N 0.59411 0.37558 0.41542 0.0
C82 C 0.62328 0.36752 0.52085 0.0
C83 C 0.59209 0.28826 0.49513 0.0
C84 C 0.57474 0.32534 0.39764 0.0
C85 C 0.6117 0.18141 0.88247 0.0
O86 O 0.62153 0.16749 0.69014 0.0
H87 H 0.64431 0.39964 0.56572 0.0
H88 H 0.58226 0.24547 0.51988 0.0
O89 O 0.68204 0.3368 0.92802 0.0
H90 H 0.70953 0.17646 0.21317 0.0
H91 H 0.54874 0.31613 0.33233 0.0
H92 H 0.2898 0.90155 0.15671 0.0
H93 H 0.36507 0.96263 0.66394 0.0
H94 H 0.33864 0.04581 0.62999 0.0
H95 H 0.21768 0.94745 0.89414 0.0
H96 H 0.19732 0.96449 0.14107 0.0
H97 H 0.22368 0.91165 0.14002 0.0
H98 H 0.26215 0.96198 0.44465 0.0
H99 H 0.23562 1.01469 0.44721 0.0
H100 H 0.28181 0.03215 0.40408 0.0
H101 H 0.30264 0.12035 0.63693 0.0
H102 H 0.25959 0.18143 0.68299 0.0
H103 H 0.20554 0.0723 0.16439 0.0
C104 C 0.30078 0.93289 0.04375 0.0
C105 C 0.32968 0.92614 0.91396 0.0
C106 C 0.34304 0.96729 0.76468 0.0
C107 C 0.32823 1.01464 0.74496 0.0
C108 C 0.29944 1.01988 0.8723 0.0
C109 C 0.2856 0.97999 0.01765 0.0
C110 C 0.2533 0.9946 0.12545 0.0
C111 C 0.22108 0.952 0.07192 0.0
C112 C 0.25848 1.00116 0.37019 0.0
C113 C 0.25137 0.04904 0.01949 0.0
C114 C 0.27827 0.0627 0.87393 0.0
C115 C 0.28157 0.11016 0.7514 0.0
C116 C 0.25679 0.14451 0.77762 0.0
C117 C 0.22908 0.13192 0.92719 0.0
C118 C 0.22657 0.08346 0.05037 0.0
H119 H 0.18731 0.44882 0.20595 0.0
H120 H 0.24017 0.36031 0.66318 0.0
H121 H 0.28094 0.44598 0.74886 0.0
H122 H 0.25888 0.52716 -0.01228 0.0
H123 H 0.23943 0.58725 0.9528 0.0
H124 H 0.21249 0.52117 0.95567 0.0
H125 H 0.19799 0.57952 0.515 0.0
H126 H 0.17625 0.55244 0.2716 0.0
H127 H 0.20337 0.61872 0.26948 0.0
H128 H 0.3208 0.54099 0.74166 0.0
H129 H 0.35421 0.63138 0.6432 0.0
H130 H 0.27291 0.65506 0.19702 0.0
C131 C 0.20707 0.44754 0.32742 0.0
C132 C 0.21084 0.39797 0.42686 0.0
C133 C 0.23683 0.398 0.5857 0.0
C134 C 0.26007 0.44646 0.63468 0.0
C135 C 0.2563 0.49452 0.52715 0.0
C136 C 0.22988 0.49525 0.3797 0.0
C137 C 0.23211 0.55046 0.27485 0.0
C138 C 0.23592 0.54625 0.02815 0.0
C139 C 0.20056 0.57684 0.33647 0.0
C140 C 0.26499 0.58042 0.3773 0.0
C141 C 0.27842 0.54818 0.52548 0.0
C142 C 0.31011 0.56664 0.62821 0.0
C143 C 0.32886 0.61831 0.57259 0.0
C144 C 0.31607 0.65059 0.41375 0.0
C145 C 0.28327 0.63167 0.32057 0.0
H146 H 0.74502 0.1163 0.28197 0.0
H147 H 0.75387 0.17856 0.93242 0.0
H148 H 0.78977 0.11725 0.01973 0.0
H149 H 0.74804 0.98869 0.29464 0.0
H150 H 0.77855 0.98462 0.09246 0.0
H151 H 0.75356 0.03913 0.09805 0.0
H152 H 0.82893 0.13126 0.33296 0.0
H153 H 0.83491 0.09427 0.10249 0.0
H154 H 0.85369 0.07852 0.34256 0.0
H155 H 0.83438 1.01656 0.01721 0.0
H156 H 0.85954 0.94145 0.92067 0.0
H157 H 0.82121 0.94719 0.27388 0.0
C158 C 0.75424 0.11545 0.44545 0.0
C159 C 0.7441 0.1508 0.6026 0.0
C160 C 0.75919 0.15056 0.80796 0.0
C161 C 0.78154 0.11407 0.85913 0.0
C162 C 0.78959 0.0756 0.7075 0.0
C163 C 0.777 0.07919 0.50173 0.0
C164 C 0.79556 0.04737 0.34991 0.0
C165 C 0.76833 1.01428 0.19566 0.0
C166 C 0.82921 0.08887 0.27512 0.0
C167 C 0.80879 1.00874 0.49808 0.0
C168 C 0.81064 0.0295 0.70521 0.0
C169 C 0.83074 1.00547 0.85445 0.0
C170 C 0.84581 0.96014 0.79778 0.0
C171 C 0.84158 0.93724 0.59041 0.0
C172 C 0.82347 0.96275 0.43722 0.0
H173 H 0.80706 0.66093 0.89568 0.0
H174 H 0.87852 0.59123 0.30207 0.0
H175 H 0.83291 0.51122 0.36915 0.0
H176 H 0.72739 0.6111 0.20729 0.0
H177 H 0.70127 0.59789 0.96712 0.0
H178 H 0.73835 0.65199 0.96942 0.0
H179 H 0.76364 0.60918 0.63351 0.0
H180 H 0.72668 0.55513 0.63032 0.0
H181 H 0.76992 0.53914 0.64424 0.0
H182 H 0.78189 0.43346 0.3528 0.0
H183 H 0.72886 0.36686 0.26738 0.0
H184 H 0.68982 0.48919 0.88814 0.0
C185 C 0.81298 0.62944 0.00256 0.0
C186 C 0.84645 0.63254 0.09389 0.0
C187 C 0.85312 0.58994 0.23038 0.0
C188 C 0.82734 0.54428 0.26955 0.0
C189 C 0.79491 0.54193 0.17245 0.0
C190 C 0.78757 0.58369 0.04351 0.0
C191 C 0.75142 0.56995 0.94792 0.0
C192 C 0.72823 0.61013 0.02778 0.0
C193 C 0.75302 0.56828 0.69938 0.0
C194 C 0.73969 0.51357 0.0404 0.0
C195 C 0.76516 0.498 0.16925 0.0
C196 C 0.76152 0.44566 0.25593 0.0
C197 C 0.73139 0.40812 0.20676 0.0
C198 C 0.70508 0.42341 0.07544 0.0
C199 C 0.70907 0.47709 -0.00519 0.0
H200 H 1.01783 0.13852 0.5599 0.0
H201 H 0.11731 0.0862 0.46005 0.0
H202 H 0.08703 0.9935 0.37512 0.0
H203 H 0.97163 1.00364 0.78946 0.0
H204 H 0.93158 1.01019 0.65609 0.0
H205 H 0.96051 0.07025 0.74657 0.0
H206 H 0.96198 0.10981 0.36329 0.0
H207 H 0.93389 0.05 0.26462 0.0
H208 H 0.97574 0.07179 0.14034 0.0
H209 H 0.04663 0.9127 0.23125 0.0
H210 H 0.99863 0.84521 0.08561 0.0
H211 H 0.9247 0.94701 0.29491 0.0
C212 C 0.0333 0.10709 0.52821 0.0
C213 C 0.07005 0.11991 0.51681 0.0
C214 C 0.08923 0.07762 0.4715 0.0
C215 C 0.07221 0.02469 0.42227 0.0
C216 C 0.03599 1.01418 0.42377 0.0
C217 C 1.01668 0.05373 0.48158 0.0
C218 C 0.97802 0.03272 0.4552 0.0
C219 C 0.95935 0.02895 0.67497 0.0
C220 C 0.96143 0.06816 0.29638 0.0
C221 C 0.97879 0.97641 0.36248 0.0
C222 C 1.01247 0.96642 0.34719 0.0
C223 C 1.02008 0.91939 0.24831 0.0
C224 C 0.99261 0.88141 0.16469 0.0
C225 C 0.95774 0.89012 0.1824 0.0
C226 C 0.95091 0.93833 0.28369 0.0
H227 H 0.61024 0.07233 0.86482 0.0
H228 H 0.56295 0.19537 0.19292 0.0
H229 H 0.5223 0.12251 0.3796 0.0
H230 H 0.53521 0.98496 0.75017 0.0
H231 H 0.55306 0.92345 0.78571 0.0
H232 H 0.581 0.98554 0.71094 0.0
H233 H 0.6196 0.97656 0.04605 0.0
H234 H 0.59124 0.91473 0.12338 0.0
H235 H 0.6002 0.97087 0.31124 0.0
H236 H 0.48084 0.03368 0.48496 0.0
H237 H 0.44448 0.94144 0.49358 0.0
H238 H 0.52077 0.87943 0.09746 0.0
C239 C 0.59183 0.08407 -0.02036 0.0
C240 C 0.58992 0.1395 0.01626 0.0
C241 C 0.56532 0.15315 0.16636 0.0
C242 C 0.54205 0.11195 0.27211 0.0
C243 C 0.54411 0.05739 0.22788 0.0
C244 C 0.56882 0.04371 0.08668 0.0
C245 C 0.56434 0.98282 0.05064 0.0
C246 C 0.55804 0.96835 0.81017 0.0
C247 C 0.59571 0.9599 0.13812 0.0
C248 C 0.53221 0.96413 0.18515 0.0
C249 C 0.52098 1.00729 0.28934 0.0
C250 C 0.48987 0.99962 0.40716 0.0
C251 C 0.46948 0.94703 0.413 0.0
C252 C 0.48005 0.90327 0.29813 0.0
C253 C 0.51232 0.91196 0.18959 0.0
H254 H 0.94879 0.57585 0.24822 0.0
H255 H 0.02359 0.67308 0.66756 0.0
H256 H 0.06076 0.60177 0.65414 0.0
H257 H 0.95859 0.44213 0.4635 0.0
H258 H 0.95494 0.40895 0.20313 0.0
H259 H 0.93333 0.46635 0.25302 0.0
H260 H 0.96502 0.51677 0.92285 0.0
H261 H 0.98635 0.45909 0.87238 0.0
H262 H 1.01176 0.52585 0.9103 0.0
H263 H 0.09029 0.52214 0.58979 0.0
H264 H 0.11151 0.43896 0.47514 0.0
H265 H 1.0183 0.39091 0.09188 0.0
C266 C 0.97271 0.58122 0.33985 0.0
C267 C 0.98337 0.62931 0.46169 0.0
C268 C 1.01512 0.63611 0.57564 0.0
C269 C 0.03634 0.59602 0.56798 0.0
C270 C 0.0254 0.54915 0.44556 0.0
C271 C 0.99437 0.54136 0.33331 0.0
C272 C 0.98962 0.48786 0.20802 0.0
C273 C 0.95719 0.44902 0.28667 0.0
C274 C 0.98804 0.49799 0.96382 0.0
C275 C 0.02277 0.46698 0.26791 0.0
C276 C 0.04284 0.50303 0.40598 0.0
C277 C 0.07471 0.4934 0.4828 0.0
C278 C 0.08646 0.44568 0.41744 0.0
C279 C 0.06651 0.40772 0.27592 0.0
C280 C 0.03425 0.41897 0.19956 0.0
H281 H 0.46218 0.55876 0.96172 0.0
H282 H 0.51723 0.69309 0.34041 0.0
H283 H 0.56017 0.63566 0.44724 0.0
H284 H 0.47274 0.45409 0.3306 0.0
H285 H 0.478 0.40483 0.12402 0.0
H286 H 0.45292 0.45761 0.06956 0.0
H287 H 0.49182 0.48753 0.73738 0.0
H288 H 0.51774 0.43564 0.79157 0.0
H289 H 0.53803 0.5061 0.77347 0.0
H290 H 0.59683 0.56195 0.5181 0.0
H291 H 0.62029 0.47721 0.57413 0.0
H292 H 0.5417 0.39166 0.14263 0.0
C293 C 0.48353 0.57656 0.06425 0.0
C294 C 0.48632 0.63088 0.14107 0.0
C295 C 0.51433 0.65171 0.27984 0.0
C296 C 0.53903 0.61944 0.34027 0.0
C297 C 0.5355 0.56619 0.26112 0.0
C298 C 0.50826 0.54482 0.12735 0.0
C299 C 0.50926 0.48558 0.07305 0.0
C300 C 0.47628 0.44835 0.15422 0.0
C301 C 0.51449 0.4782 0.82929 0.0
C302 C 0.54106 0.47667 0.19931 0.0
C303 C 0.55614 0.52379 0.30439 0.0
C304 C 0.5853 0.52493 0.43519 0.0
C305 C 0.5986 0.47633 0.46537 0.0
C306 C 0.58292 0.42691 0.36454 0.0
C307 C 0.55422 0.42802 0.22553 0.0
loop_
_geom_bond_atom_site_label_1
_geom_bond_atom_site_label_2
_geom_bond_distance
_geom_bond_site_symmetry_2
_ccdc_geom_bond_type
Cu0 N1 1.999 . S
Cu0 O6 1.974 . S
Cu0 N11 1.985 . S
Cu0 O20 1.959 . S
N1 Cu0 1.999 . S
N1 C3 1.263 . S
N1 C5 1.389 . S
N2 C3 1.358 . S
N2 C4 1.400 . S
C3 N1 1.263 . S
C3 N2 1.358 . S
C3 H9 0.930 . S
C4 N2 1.400 . S
C4 C5 1.351 . S
C4 H21 0.930 . S
C5 N1 1.389 . S
C5 C4 1.351 . S
C5 H10 0.930 . S
O6 Cu0 1.974 . S
O6 C16 1.282 . S
C7 O8 1.261 . S
C7 O20 1.251 . S
O8 C7 1.261 . S
H9 C3 0.930 . S
H10 C5 0.930 . S
N11 Cu0 1.985 . S
N11 C13 1.335 . S
N11 C14 1.390 . S
N12 C13 1.345 . S
N12 C15 1.336 . S
C13 N11 1.335 . S
C13 N12 1.345 . S
C13 H18 0.930 . S
C14 N11 1.390 . S
C14 C15 1.346 . S
C14 H19 0.930 . S
C15 N12 1.336 . S
C15 C14 1.346 . S
C15 H22 0.929 . S
C16 O6 1.282 . S
C16 O17 1.216 1_554 S
O17 C16 1.216 1_556 S
H18 C13 0.930 . S
H19 C14 0.930 . S
O20 Cu0 1.959 . S
O20 C7 1.251 . S
H21 C4 0.930 . S
H22 C15 0.929 . S
Cu23 N24 1.999 . S
Cu23 O29 1.974 . S
Cu23 N34 1.985 . S
Cu23 O43 1.959 . S
N24 Cu23 1.999 . S
N24 C26 1.263 . S
N24 C28 1.389 . S
N25 C26 1.358 . S
N25 C27 1.400 . S
C26 N24 1.263 . S
C26 N25 1.358 . S
C26 H32 0.930 . S
C27 N25 1.400 . S
C27 C28 1.351 . S
C27 H44 0.930 . S
C28 N24 1.389 . S
C28 C27 1.351 . S
C28 H33 0.930 . S
O29 Cu23 1.974 . S
O29 C39 1.282 . S
C30 O31 1.261 . S
C30 O43 1.251 . S
O31 C30 1.261 . S
H32 C26 0.930 . S
H33 C28 0.930 . S
N34 Cu23 1.985 . S
N34 C36 1.335 . S
N34 C37 1.390 . S
N35 C36 1.345 . S
N35 C38 1.336 . S
C36 N34 1.335 . S
C36 N35 1.345 . S
C36 H41 0.930 . S
C37 N34 1.390 . S
C37 C38 1.346 . S
C37 H42 0.930 . S
C38 N35 1.336 . S
C38 C37 1.346 . S
C38 H45 0.929 . S
C39 O29 1.282 . S
C39 O40 1.216 1_554 S
O40 C39 1.216 1_556 S
H41 C36 0.930 . S
H42 C37 0.930 . S
O43 Cu23 1.959 . S
O43 C30 1.251 . S
H44 C27 0.930 . S
H45 C38 0.929 . S
Cu46 N47 1.999 . S
Cu46 O52 1.974 . S
Cu46 N57 1.985 . S
Cu46 O66 1.959 . S
N47 Cu46 1.999 . S
N47 C49 1.263 . S
N47 C51 1.389 . S
N48 C49 1.358 . S
N48 C50 1.400 . S
C49 N47 1.263 . S
C49 N48 1.358 . S
C49 H55 0.930 . S
C50 N48 1.400 . S
C50 C51 1.351 . S
C50 H67 0.930 . S
C51 N47 1.389 . S
C51 C50 1.351 . S
C51 H56 0.930 . S
O52 Cu46 1.974 . S
O52 C62 1.282 . S
C53 O54 1.261 . S
C53 O66 1.251 . S
O54 C53 1.261 . S
H55 C49 0.930 . S
H56 C51 0.930 . S
N57 Cu46 1.985 . S
N57 C59 1.335 . S
N57 C60 1.390 . S
N58 C59 1.345 . S
N58 C61 1.336 . S
C59 N57 1.335 . S
C59 N58 1.345 . S
C59 H64 0.930 . S
C60 N57 1.390 . S
C60 C61 1.346 . S
C60 H65 0.930 . S
C61 N58 1.336 . S
C61 C60 1.346 . S
C61 H68 0.929 . S
C62 O52 1.282 . S
C62 O63 1.216 1_556 S
O63 C62 1.216 1_554 S
H64 C59 0.930 . S
H65 C60 0.930 . S
O66 Cu46 1.959 . S
O66 C53 1.251 . S
H67 C50 0.930 . S
H68 C61 0.929 . S
Cu69 N70 1.999 . S
Cu69 O75 1.974 . S
Cu69 N80 1.985 . S
Cu69 O89 1.959 . S
N70 Cu69 1.999 . S
N70 C72 1.263 . S
N70 C74 1.389 . S
N71 C72 1.358 . S
N71 C73 1.400 . S
C72 N70 1.263 . S
C72 N71 1.358 . S
C72 H78 0.930 . S
C73 N71 1.400 . S
C73 C74 1.351 . S
C73 H90 0.930 . S
C74 N70 1.389 . S
C74 C73 1.351 . S
C74 H79 0.930 . S
O75 Cu69 1.974 . S
O75 C85 1.282 . S
C76 O77 1.261 . S
C76 O89 1.251 . S
O77 C76 1.261 . S
H78 C72 0.930 . S
H79 C74 0.930 . S
N80 Cu69 1.985 . S
N80 C82 1.335 . S
N80 C83 1.390 . S
N81 C82 1.345 . S
N81 C84 1.336 . S
C82 N80 1.335 . S
C82 N81 1.345 . S
C82 H87 0.930 . S
C83 N80 1.390 . S
C83 C84 1.346 . S
C83 H88 0.930 . S
C84 N81 1.336 . S
C84 C83 1.346 . S
C84 H91 0.929 . S
C85 O75 1.282 . S
C85 O86 1.216 1_556 S
O86 C85 1.216 1_554 S
H87 C82 0.930 . S
H88 C83 0.930 . S
O89 Cu69 1.959 . S
O89 C76 1.251 . S
H90 C73 0.930 . S
H91 C84 0.929 . S
H92 C104 0.930 . S
H93 C106 0.930 1_556 S
H94 C107 0.930 1_556 S
H95 C111 0.959 . S
H96 C111 0.959 . S
H97 C111 0.961 . S
H98 C112 0.960 1_565 S
H99 C112 0.961 . S
H100 C112 0.959 . S
H101 C115 0.928 1_556 S
H102 C116 0.931 1_556 S
H103 C118 0.930 . S
C104 H92 0.930 . S
C104 C105 1.399 . S
C104 C109 1.399 . S
C105 C104 1.399 . S
C105 C106 1.376 . S
C106 H93 0.930 1_554 S
C106 C105 1.376 . S
C106 C107 1.388 . S
C107 H94 0.930 1_554 S
C107 C106 1.388 . S
C107 C108 1.390 . S
C108 C107 1.390 . S
C108 C109 1.394 . S
C108 C114 1.465 1_565 S
C109 C104 1.399 . S
C109 C108 1.394 . S
C109 C110 1.516 . S
C110 C109 1.516 . S
C110 C111 1.502 . S
C110 C112 1.561 1_565 S
C110 C113 1.526 1_565 S
C111 H95 0.959 . S
C111 H96 0.959 . S
C111 H97 0.961 . S
C111 C110 1.502 . S
C112 H98 0.960 1_545 S
C112 H99 0.961 . S
C112 H100 0.959 . S
C112 C110 1.561 1_545 S
C113 C110 1.526 1_545 S
C113 C114 1.396 . S
C113 C118 1.390 . S
C114 C108 1.465 1_545 S
C114 C113 1.396 . S
C114 C115 1.400 . S
C115 H101 0.928 1_554 S
C115 C114 1.400 . S
C115 C116 1.386 . S
C116 H102 0.931 1_554 S
C116 C115 1.386 . S
C116 C117 1.389 . S
C117 C116 1.389 . S
C117 C118 1.387 . S
C118 H103 0.930 . S
C118 C113 1.390 . S
C118 C117 1.387 . S
H119 C131 0.930 . S
H120 C133 0.930 1_556 S
H121 C134 0.930 . S
H122 C138 0.959 . S
H123 C138 0.959 . S
H124 C138 0.961 . S
H125 C139 0.960 . S
H126 C139 0.961 . S
H127 C139 0.959 . S
H128 C142 0.929 . S
H129 C143 0.931 1_556 S
H130 C145 0.930 . S
C131 H119 0.930 . S
C131 C132 1.399 . S
C131 C136 1.399 . S
C132 C131 1.399 . S
C132 C133 1.376 . S
C133 H120 0.930 1_554 S
C133 C132 1.376 . S
C133 C134 1.388 1_554 S
C134 H121 0.930 . S
C134 C133 1.388 1_556 S
C134 C135 1.390 1_556 S
C135 C134 1.390 1_554 S
C135 C136 1.394 . S
C135 C141 1.465 . S
C136 C131 1.399 . S
C136 C135 1.394 . S
C136 C137 1.516 . S
C137 C136 1.516 . S
C137 C138 1.502 . S
C137 C139 1.561 . S
C137 C140 1.526 . S
C138 H122 0.959 . S
C138 H123 0.959 . S
C138 H124 0.961 . S
C138 C137 1.502 . S
C139 H125 0.960 . S
C139 H126 0.961 . S
C139 H127 0.959 . S
C139 C137 1.561 . S
C140 C137 1.526 . S
C140 C141 1.396 . S
C140 C145 1.390 . S
C141 C135 1.465 . S
C141 C140 1.396 . S
C141 C142 1.399 1_554 S
C142 H128 0.929 . S
C142 C141 1.399 1_556 S
C142 C143 1.385 1_556 S
C143 H129 0.931 1_554 S
C143 C142 1.385 1_554 S
C143 C144 1.389 . S
C144 C143 1.389 . S
C144 C145 1.387 . S
C145 H130 0.930 . S
C145 C140 1.390 . S
C145 C144 1.387 . S
H146 C158 0.930 . S
H147 C160 0.930 1_554 S
H148 C161 0.930 . S
H149 C165 0.959 . S
H150 C165 0.959 . S
H151 C165 0.961 . S
H152 C166 0.960 . S
H153 C166 0.961 . S
H154 C166 0.959 . S
H155 C169 0.929 . S
H156 C170 0.931 1_554 S
H157 C172 0.930 . S
C158 H146 0.930 . S
C158 C159 1.399 . S
C158 C163 1.399 . S
C159 C158 1.399 . S
C159 C160 1.376 . S
C160 H147 0.930 1_556 S
C160 C159 1.376 . S
C160 C161 1.388 1_556 S
C161 H148 0.930 . S
C161 C160 1.388 1_554 S
C161 C162 1.390 1_554 S
C162 C161 1.390 1_556 S
C162 C163 1.394 . S
C162 C168 1.465 1_545 S
C163 C158 1.399 . S
C163 C162 1.394 . S
C163 C164 1.514 1_545 S
C164 C163 1.514 1_565 S
C164 C165 1.503 . S
C164 C166 1.560 1_565 S
C164 C167 1.528 . S
C165 H149 0.959 . S
C165 H150 0.959 . S
C165 H151 0.961 . S
C165 C164 1.503 . S
C166 H152 0.960 . S
C166 H153 0.961 . S
C166 H154 0.959 . S
C166 C164 1.560 1_545 S
C167 C164 1.528 . S
C167 C168 1.396 . S
C167 C172 1.390 . S
C168 C162 1.465 1_565 S
C168 C167 1.396 . S
C168 C169 1.399 1_556 S
C169 H155 0.929 . S
C169 C168 1.399 1_554 S
C169 C170 1.385 1_554 S
C170 H156 0.931 1_556 S
C170 C169 1.385 1_556 S
C170 C171 1.389 . S
C171 C170 1.389 . S
C171 C172 1.387 . S
C172 H157 0.930 . S
C172 C167 1.390 . S
C172 C171 1.387 . S
H173 C185 0.930 . S
H174 C187 0.930 1_554 S
H175 C188 0.930 1_554 S
H176 C192 0.959 . S
H177 C192 0.959 . S
H178 C192 0.961 . S
H179 C193 0.960 . S
H180 C193 0.961 . S
H181 C193 0.959 . S
H182 C196 0.929 1_554 S
H183 C197 0.931 1_554 S
H184 C199 0.930 . S
C185 H173 0.930 . S
C185 C186 1.399 . S
C185 C190 1.399 . S
C186 C185 1.399 . S
C186 C187 1.376 . S
C187 H174 0.930 1_556 S
C187 C186 1.376 . S
C187 C188 1.388 . S
C188 H175 0.930 1_556 S
C188 C187 1.388 . S
C188 C189 1.390 . S
C189 C188 1.390 . S
C189 C190 1.394 . S
C189 C195 1.465 . S
C190 C185 1.399 . S
C190 C189 1.394 . S
C190 C191 1.516 . S
C191 C190 1.516 . S
C191 C192 1.502 . S
C191 C193 1.561 . S
C191 C194 1.526 . S
C192 H176 0.959 . S
C192 H177 0.959 . S
C192 H178 0.961 . S
C192 C191 1.502 . S
C193 H179 0.960 . S
C193 H180 0.961 . S
C193 H181 0.959 . S
C193 C191 1.561 . S
C194 C191 1.526 . S
C194 C195 1.396 . S
C194 C199 1.390 . S
C195 C189 1.465 . S
C195 C194 1.396 . S
C195 C196 1.399 . S
C196 H182 0.929 1_556 S
C196 C195 1.399 . S
C196 C197 1.385 . S
C197 H183 0.931 1_556 S
C197 C196 1.385 . S
C197 C198 1.389 . S
C198 C197 1.389 . S
C198 C199 1.387 . S
C199 H184 0.930 . S
C199 C194 1.390 . S
C199 C198 1.387 . S
H200 C212 0.930 . S
H201 C214 0.930 . S
H202 C215 0.930 1_565 S
H203 C219 0.959 . S
H204 C219 0.959 . S
H205 C219 0.961 . S
H206 C220 0.960 . S
H207 C220 0.959 1_665 S
H208 C220 0.959 1_565 S
H209 C223 0.929 . S
H210 C224 0.931 . S
H211 C226 0.930 . S
C212 H200 0.930 . S
C212 C213 1.399 1_556 S
C212 C217 1.399 . S
C213 C212 1.399 1_554 S
C213 C214 1.376 . S
C214 H201 0.930 . S
C214 C213 1.376 . S
C214 C215 1.388 . S
C215 H202 0.930 1_545 S
C215 C214 1.388 . S
C215 C216 1.390 . S
C216 C215 1.390 . S
C216 C217 1.394 1_554 S
C216 C222 1.465 1_445 S
C217 C212 1.399 . S
C217 C216 1.394 1_556 S
C217 C218 1.516 1_455 S
C218 C217 1.516 1_655 S
C218 C219 1.502 . S
C218 C220 1.561 1_655 S
C218 C221 1.526 1_545 S
C219 H203 0.959 . S
C219 H204 0.959 . S
C219 H205 0.961 . S
C219 C218 1.502 . S
C220 H206 0.960 . S
C220 H207 0.959 1_445 S
C220 H208 0.959 1_545 S
C220 C218 1.561 1_455 S
C221 C218 1.526 1_565 S
C221 C222 1.396 1_556 S
C221 C226 1.390 . S
C222 C216 1.465 1_665 S
C222 C221 1.396 1_554 S
C222 C223 1.399 . S
C223 H209 0.929 . S
C223 C222 1.399 . S
C223 C224 1.385 . S
C224 H210 0.931 . S
C224 C223 1.385 . S
C224 C225 1.389 1_554 S
C225 C224 1.389 1_556 S
C225 C226 1.387 . S
C226 H211 0.930 . S
C226 C221 1.390 . S
C226 C225 1.387 . S
H227 C239 0.930 . S
H228 C241 0.930 . S
H229 C242 0.930 . S
H230 C246 0.959 . S
H231 C246 0.959 . S
H232 C246 0.961 1_545 S
H233 C247 0.960 . S
H234 C247 0.961 . S
H235 C247 0.959 . S
H236 C250 0.929 . S
H237 C251 0.931 . S
H238 C253 0.930 . S
C239 H227 0.930 . S
C239 C240 1.399 1_554 S
C239 C244 1.399 . S
C240 C239 1.399 1_556 S
C240 C241 1.376 . S
C241 H228 0.930 . S
C241 C240 1.376 . S
C241 C242 1.388 . S
C242 H229 0.930 . S
C242 C241 1.388 . S
C242 C243 1.390 . S
C243 C242 1.390 . S
C243 C244 1.394 1_556 S
C243 C249 1.465 1_545 S
C244 C239 1.399 . S
C244 C243 1.394 1_554 S
C244 C245 1.516 . S
C245 C244 1.516 . S
C245 C246 1.502 1_545 S
C245 C247 1.561 . S
C245 C248 1.526 1_545 S
C246 H230 0.959 . S
C246 H231 0.959 . S
C246 H232 0.961 1_565 S
C246 C245 1.502 1_565 S
C247 H233 0.960 . S
C247 H234 0.961 . S
C247 H235 0.959 . S
C247 C245 1.561 . S
C248 C245 1.526 1_565 S
C248 C249 1.396 1_554 S
C248 C253 1.390 . S
C249 C243 1.465 1_565 S
C249 C248 1.396 1_556 S
C249 C250 1.399 . S
C250 H236 0.929 . S
C250 C249 1.399 . S
C250 C251 1.385 . S
C251 H237 0.931 . S
C251 C250 1.385 . S
C251 C252 1.389 1_556 S
C252 C251 1.389 1_554 S
C252 C253 1.387 . S
C253 H238 0.930 . S
C253 C248 1.390 . S
C253 C252 1.387 . S
H254 C266 0.930 . S
H255 C268 0.930 . S
H256 C269 0.930 1_455 S
H257 C273 0.959 . S
H258 C273 0.963 . S
H259 C273 0.961 . S
H260 C274 0.960 1_656 S
H261 C274 0.961 1_556 S
H262 C274 0.959 . S
H263 C277 0.929 . S
H264 C278 0.931 . S
H265 C280 0.930 . S
C266 H254 0.930 . S
C266 C267 1.399 . S
C266 C271 1.399 . S
C267 C266 1.399 . S
C267 C268 1.376 . S
C268 H255 0.930 . S
C268 C267 1.376 . S
C268 C269 1.388 . S
C269 H256 0.930 1_655 S
C269 C268 1.388 . S
C269 C270 1.390 . S
C270 C269 1.390 . S
C270 C271 1.394 . S
C270 C276 1.465 1_655 S
C271 C266 1.399 . S
C271 C270 1.394 . S
C271 C272 1.516 . S
C272 C271 1.516 . S
C272 C273 1.502 . S
C272 C274 1.561 1_655 S
C272 C275 1.526 1_655 S
C273 H257 0.959 . S
C273 H258 0.963 . S
C273 H259 0.961 . S
C273 C272 1.502 . S
C274 H260 0.960 1_454 S
C274 H261 0.961 1_554 S
C274 H262 0.959 . S
C274 C272 1.561 1_455 S
C275 C272 1.526 1_455 S
C275 C276 1.396 . S
C275 C280 1.390 . S
C276 C270 1.465 1_455 S
C276 C275 1.396 . S
C276 C277 1.399 . S
C277 H263 0.929 . S
C277 C276 1.399 . S
C277 C278 1.385 . S
C278 H264 0.931 . S
C278 C277 1.385 . S
C278 C279 1.389 . S
C279 C278 1.389 . S
C279 C280 1.387 . S
C280 H265 0.930 . S
C280 C275 1.390 . S
C280 C279 1.387 . S
H281 C293 0.930 . S
H282 C295 0.930 . S
H283 C296 0.930 . S
H284 C300 0.959 . S
H285 C300 0.959 . S
H286 C300 0.961 . S
H287 C301 0.960 1_556 S
H288 C301 0.961 1_556 S
H289 C301 0.959 . S
H290 C304 0.929 . S
H291 C305 0.931 . S
H292 C307 0.930 . S
C293 H281 0.930 . S
C293 C294 1.399 . S
C293 C298 1.399 . S
C294 C293 1.399 . S
C294 C295 1.376 . S
C295 H282 0.930 . S
C295 C294 1.376 . S
C295 C296 1.388 . S
C296 H283 0.930 . S
C296 C295 1.388 . S
C296 C297 1.390 . S
C297 C296 1.390 . S
C297 C298 1.394 . S
C297 C303 1.465 . S
C298 C293 1.399 . S
C298 C297 1.394 . S
C298 C299 1.516 . S
C299 C298 1.516 . S
C299 C300 1.502 . S
C299 C301 1.561 . S
C299 C302 1.526 . S
C300 H284 0.959 . S
C300 H285 0.959 . S
C300 H286 0.961 . S
C300 C299 1.502 . S
C301 H287 0.960 1_554 S
C301 H288 0.961 1_554 S
C301 H289 0.959 . S
C301 C299 1.561 . S
C302 C299 1.526 . S
C302 C303 1.396 . S
C302 C307 1.390 . S
C303 C297 1.465 . S
C303 C302 1.396 . S
C303 C304 1.399 . S
C304 H290 0.929 . S
C304 C303 1.399 . S
C304 C305 1.385 . S
C305 H291 0.931 . S
C305 C304 1.385 . S
C305 C306 1.389 . S
C306 C305 1.389 . S
C306 C307 1.387 . S
C307 H292 0.930 . S
C307 C302 1.390 . S
C307 C306 1.387 . S
C105 N25 1.480 . S
C117 N2 1.460 . S
C132 C7 1.475 . S
C144 C30 1.479 . S
C159 N71 1.460 . S
C171 N48 1.479 . S
C186 C53 1.485 . S
C198 C76 1.475 . S
C213 C16 1.495 . S
C225 C62 1.456 . S
C240 C85 1.484 . S
C252 C39 1.463 . S
C267 N58 1.437 . S
C279 N12 1.481 . S
C294 N35 1.446 . S
C306 N81 1.470 . S
