# Generated by pormake.
# Topology umy, (4)-cn, num edge types: 1
# Building blocks:
#     Node 0, Type 0, BuildingBlock: NAHDIM_clean_sbu_0, # of connection points: 4
#     Node 1, Type 0, BuildingBlock: NAHDIM_clean_sbu_0, # of connection points: 4
#     Node 2, Type 0, BuildingBlock: NAHDIM_clean_sbu_0, # of connection points: 4
#     Node 3, Type 0, BuildingBlock: NAHDIM_clean_sbu_0, # of connection points: 4
#     Node 4, Type 0, BuildingBlock: NAHDIM_clean_sbu_0, # of connection points: 4
#     Node 5, Type 0, BuildingBlock: NAHDIM_clean_sbu_0, # of connection points: 4
#     Node 6, Type 0, BuildingBlock: NAHDIM_clean_sbu_0, # of connection points: 4
#     Node 7, Type 0, BuildingBlock: NAHDIM_clean_sbu_0, # of connection points: 4
#     Node 8, Type 0, BuildingBlock: NAHDIM_clean_sbu_0, # of connection points: 4
#     Node 9, Type 0, BuildingBlock: NAHDIM_clean_sbu_0, # of connection points: 4
#     Node 10, Type 0, BuildingBlock: NAHDIM_clean_sbu_0, # of connection points: 4
#     Node 11, Type 0, BuildingBlock: NAHDIM_clean_sbu_0, # of connection points: 4
#     Edge 12, Type (0, 0), BuildingBlock: ZUJKAS_clean_linker_0, # of connection points: 2
#     Edge 13, Type (0, 0), BuildingBlock: ZUJKAS_clean_linker_0, # of connection points: 2
#     Edge 14, Type (0, 0), BuildingBlock: ZUJKAS_clean_linker_0, # of connection points: 2
#     Edge 15, Type (0, 0), BuildingBlock: ZUJKAS_clean_linker_0, # of connection points: 2
#     Edge 16, Type (0, 0), BuildingBlock: ZUJKAS_clean_linker_0, # of connection points: 2
#     Edge 17, Type (0, 0), BuildingBlock: ZUJKAS_clean_linker_0, # of connection points: 2
#     Edge 18, Type (0, 0), BuildingBlock: ZUJKAS_clean_linker_0, # of connection points: 2
#     Edge 19, Type (0, 0), BuildingBlock: ZUJKAS_clean_linker_0, # of connection points: 2
#     Edge 20, Type (0, 0), BuildingBlock: ZUJKAS_clean_linker_0, # of connection points: 2
#     Edge 21, Type (0, 0), BuildingBlock: ZUJKAS_clean_linker_0, # of connection points: 2
#     Edge 22, Type (0, 0), BuildingBlock: ZUJKAS_clean_linker_0, # of connection points: 2
#     Edge 23, Type (0, 0), BuildingBlock: ZUJKAS_clean_linker_0, # of connection points: 2
#     Edge 24, Type (0, 0), BuildingBlock: ZUJKAS_clean_linker_0, # of connection points: 2
#     Edge 25, Type (0, 0), BuildingBlock: ZUJKAS_clean_linker_0, # of connection points: 2
#     Edge 26, Type (0, 0), BuildingBlock: ZUJKAS_clean_linker_0, # of connection points: 2
#     Edge 27, Type (0, 0), BuildingBlock: ZUJKAS_clean_linker_0, # of connection points: 2
#     Edge 28, Type (0, 0), BuildingBlock: ZUJKAS_clean_linker_0, # of connection points: 2
#     Edge 29, Type (0, 0), BuildingBlock: ZUJKAS_clean_linker_0, # of connection points: 2
#     Edge 30, Type (0, 0), BuildingBlock: ZUJKAS_clean_linker_0, # of connection points: 2
#     Edge 31, Type (0, 0), BuildingBlock: ZUJKAS_clean_linker_0, # of connection points: 2
#     Edge 32, Type (0, 0), BuildingBlock: ZUJKAS_clean_linker_0, # of connection points: 2
#     Edge 33, Type (0, 0), BuildingBlock: ZUJKAS_clean_linker_0, # of connection points: 2
#     Edge 34, Type (0, 0), BuildingBlock: ZUJKAS_clean_linker_0, # of connection points: 2
#     Edge 35, Type (0, 0), BuildingBlock: ZUJKAS_clean_linker_0, # of connection points: 2
# Relax obj value: 0.158
# Max RMSD: 0.142
# Mean RMSD: 0.142
data_MOF--net-umy--node1-NAHDIM_clean_sbu_0--edge1-ZUJKAS_clean_linker_0
_symmetry_space_group_name_H-M    P1
_symmetry_Int_Tables_number       1
_symmetry_cell_setting            triclinic
loop_
_symmetry_equiv_pos_as_xyz
'x, y, z'
_cell_length_a     50.368177
_cell_length_b     50.377301
_cell_length_c     62.838109
_cell_angle_alpha  90.028791
_cell_angle_beta   89.932385
_cell_angle_gamma 119.99639
loop_
_atom_site_label
_atom_site_type_symbol
_atom_site_fract_x
_atom_site_fract_y
_atom_site_fract_z
_atom_type_partial_charge
C0 C 0.03933 0.37644 0.1028 0.0
O1 O 0.01778 0.35014 0.09518 0.0
O2 O 0.01872 0.30445 0.12677 0.0
Zn3 Zn 0.06136 0.3383 0.11977 0.0
O4 O 0.07893 0.32822 0.09436 0.0
C5 C 0.08153 0.32163 0.15739 0.0
O6 O 0.05822 0.29468 0.15245 0.0
O7 O 0.06065 0.37705 0.11395 0.0
C8 C 0.07737 0.30244 0.09198 0.0
O9 O 0.06343 0.28107 0.10648 0.0
C10 C -3e-05 0.28275 0.11486 0.0
O11 O 0.00722 0.28148 0.09495 0.0
O12 O 0.08796 0.34443 0.14542 0.0
C13 C 0.65706 0.03732 0.26243 0.0
O14 O 0.66184 0.01628 0.25387 0.0
O15 O 0.70735 0.01585 0.28784 0.0
Zn16 Zn 0.71708 0.05824 0.27935 0.0
O17 O 0.74384 0.07375 0.25338 0.0
C18 C 0.75653 0.08131 0.31549 0.0
O19 O 0.76134 0.05879 0.31031 0.0
O20 O 0.6778 0.05801 0.27394 0.0
C21 C 0.76635 0.06957 0.24996 0.0
O22 O 0.77257 0.05381 0.26371 0.0
C23 C 0.70666 0.99461 0.27652 0.0
O24 O 0.71246 -0.00107 0.25603 0.0
O25 O 0.73854 0.0862 0.30414 0.0
C26 C 0.61417 0.66837 0.43221 0.0
O27 O 0.63361 0.68088 0.41638 0.0
O28 O 0.69241 0.71687 0.4616 0.0
Zn29 Zn 0.65759 0.72342 0.45345 0.0
O30 O 0.66633 0.74748 0.4263 0.0
C31 C 0.64863 0.73638 0.49628 0.0
O32 O 0.65005 0.7114 0.49974 0.0
O33 O 0.61969 0.68253 0.44982 0.0
C34 C 0.68014 0.77656 0.42678 0.0
O35 O 0.68931 0.79068 0.44517 0.0
C36 C 0.72042 0.73539 0.45738 0.0
O37 O 0.7278 0.76007 0.44611 0.0
O38 O 0.65091 0.74605 0.47732 0.0
C39 C 0.93643 0.61188 0.60183 0.0
O40 O 0.94095 0.63074 0.58601 0.0
O41 O 0.97002 0.69 0.6345 0.0
Zn42 Zn 0.92866 0.65626 0.62561 0.0
O43 O 0.91401 0.66805 0.59956 0.0
C44 C 0.90691 0.64631 0.66843 0.0
O45 O 0.93331 0.64761 0.67162 0.0
O46 O 0.93069 0.61811 0.62026 0.0
C47 C 0.91883 0.69514 0.59716 0.0
O48 O 0.93418 0.71579 0.61183 0.0
C49 C -0.0072 0.70471 0.62218 0.0
O50 O 0.98993 0.69811 0.60178 0.0
O51 O 0.89939 0.64894 0.64959 0.0
C52 C 0.33572 0.95399 0.76387 0.0
O53 O 0.3262 0.96684 0.74995 0.0
O54 O 0.28294 0.9782 0.78933 0.0
Zn55 Zn 0.27787 0.93681 0.78326 0.0
O56 O 0.25347 0.91922 0.75663 0.0
C57 C 0.22745 0.89768 0.81077 0.0
O58 O 0.2117 0.90312 0.79653 0.0
O59 O 0.31886 0.94006 0.77975 0.0
C60 C 0.24562 0.89187 0.75157 0.0
O61 O 0.25385 0.87615 0.76388 0.0
C62 C 0.26135 0.98372 0.78568 0.0
O63 O 0.236 0.96249 0.77674 0.0
O64 O 0.25618 0.90926 0.80823 0.0
C65 C 0.3754 0.33081 0.93218 0.0
O66 O 0.3492 0.32401 0.92321 0.0
O67 O 0.30472 0.28064 0.96011 0.0
Zn68 Zn 0.33833 0.27227 0.95162 0.0
O69 O 0.32635 0.24405 0.92649 0.0
C70 C 0.34365 0.26047 0.99529 0.0
O71 O 0.33719 0.28255 0.99761 0.0
O72 O 0.37637 0.31182 0.94498 0.0
C73 C 0.30036 0.21974 0.92564 0.0
O74 O 0.28083 0.21325 0.94136 0.0
C75 C 0.28229 0.27793 0.94918 0.0
O76 O 0.27938 0.26926 0.92919 0.0
O77 O 0.34615 0.2522 0.97663 0.0
C78 C 0.6043 0.92905 0.73238 0.0
O79 O 0.6067 0.90831 0.74355 0.0
O80 O 0.69851 0.98136 0.70799 0.0
Zn81 Zn 0.66227 0.94062 0.71571 0.0
O82 O 0.67042 0.925 0.74294 0.0
C83 C 0.65105 0.91824 0.6731 0.0
O84 O 0.65184 0.94443 0.67006 0.0
O85 O 0.62542 0.94563 0.71931 0.0
C86 C 0.68496 0.91044 0.7428 0.0
O87 O 0.69509 0.90606 0.72462 0.0
C88 C 0.72181 0.98264 0.69911 0.0
O89 O 0.72219 0.95712 0.69568 0.0
O90 O 0.65451 0.91099 0.69184 0.0
C91 C 0.65012 0.61947 0.89913 0.0
O92 O 0.65213 0.64539 0.90514 0.0
O93 O 0.70457 0.69257 0.87828 0.0
Zn94 Zn 0.71296 0.65911 0.88695 0.0
O95 O 0.73783 0.66911 0.91367 0.0
C96 C 0.72694 0.65078 0.84429 0.0
O97 O 0.70147 0.6512 0.84062 0.0
O98 O 0.67337 0.61984 0.89095 0.0
C99 C 0.76231 0.69463 0.91617 0.0
O100 O 0.77093 0.7156 0.90123 0.0
C101 C 0.70505 0.71341 0.88996 0.0
O102 O 0.71142 0.7144 0.91031 0.0
O103 O 0.73655 0.65353 0.8633 0.0
C104 C 0.03714 0.65566 0.06095 0.0
O105 O 0.01676 0.66105 0.06997 0.0
O106 O 0.01324 0.70463 0.03747 0.0
Zn107 Zn 0.05661 0.71458 0.04301 0.0
O108 O 0.075 0.74237 0.06819 0.0
C109 C 0.07377 0.7497 0.00435 0.0
O110 O 0.0492 0.75138 0.00894 0.0
O111 O 0.05695 0.67559 0.0485 0.0
C112 C 0.07541 0.76769 0.06989 0.0
O113 O 0.06304 0.7761 0.05485 0.0
C114 C -0.00402 0.70976 0.04948 0.0
O115 O 0.00564 0.72183 0.0684 0.0
O116 O 0.0819 0.7352 0.01683 0.0
C117 C 0.37258 0.0331 0.23166 0.0
O118 O 0.3464 0.01034 0.23849 0.0
O119 O 0.30165 0.01253 0.20535 0.0
Zn120 Zn 0.33378 0.05465 0.21473 0.0
O121 O 0.32062 0.06918 0.24036 0.0
C122 C 0.31961 0.07911 0.17807 0.0
O123 O 0.29204 0.056 0.18192 0.0
O124 O 0.37269 0.05475 0.22124 0.0
C125 C 0.29483 0.06797 0.24131 0.0
O126 O 0.27564 0.0561 0.22533 0.0
C127 C 0.27872 0.99273 0.21588 0.0
O128 O 0.27472 -0.0015 0.23565 0.0
O129 O 0.34163 0.08348 0.19019 0.0
C130 C 0.33484 0.38292 0.40341 0.0
O131 O 0.31948 0.36562 0.41966 0.0
O132 O 0.2868 0.3024 0.37338 0.0
Zn133 Zn 0.28204 0.33867 0.3802 0.0
O134 O 0.25565 0.331 0.406 0.0
C135 C 0.23463 0.32589 0.35032 0.0
O136 O 0.22026 0.30142 0.36239 0.0
O137 O 0.32337 0.37567 0.38488 0.0
C138 C 0.24693 0.35018 0.40996 0.0
O139 O 0.25564 0.37381 0.39724 0.0
C140 C 0.26778 0.27518 0.37915 0.0
O141 O 0.24445 0.2702 0.39126 0.0
O142 O 0.26197 0.34602 0.35497 0.0
C143 C 0.94053 0.3329 0.56459 0.0
O144 O 0.94407 0.31765 0.58022 0.0
O145 O 0.97443 0.28899 0.53111 0.0
Zn146 Zn 0.93309 0.28153 0.54006 0.0
O147 O 0.91711 0.25439 0.56586 0.0
C148 C 0.90371 0.23685 0.50797 0.0
O149 O 0.92086 0.22701 0.51675 0.0
O150 O 0.93554 0.32181 0.5459 0.0
C151 C 0.92526 0.23521 0.57128 0.0
O152 O 0.94581 0.23283 0.55984 0.0
C153 C -0.00204 0.29767 0.54274 0.0
O154 O -0.00357 0.30245 0.56314 0.0
O155 O 0.90446 0.26062 0.51553 0.0
H156 H -0.00429 0.60667 0.08445 0.0
H157 H -0.00412 0.55905 0.09158 0.0
H158 H 0.0788 0.59194 0.05476 0.0
H159 H 0.07853 0.63939 0.0472 0.0
H160 H 0.0355 0.53251 0.04507 0.0
H161 H 0.05246 0.54802 0.13241 0.0
H162 H 0.02003 0.55018 0.12282 0.0
H163 H 0.05806 0.57872 0.11482 0.0
C164 C 0.01404 0.60382 0.07791 0.0
C165 C 0.03718 0.62686 0.06533 0.0
C166 C 0.01418 0.57667 0.0821 0.0
C167 C 0.03763 0.57222 0.07398 0.0
C168 C 0.06058 0.59502 0.06125 0.0
H169 H 0.08276 0.43493 0.11341 0.0
H170 H 0.08222 0.48221 0.10579 0.0
C171 C 0.0604 0.62212 0.05697 0.0
C172 C 0.03796 0.54355 0.07838 0.0
H173 H 0.04096 0.49956 0.11854 0.0
C174 C 0.03676 0.5253 0.06112 0.0
C175 C 0.04001 0.53448 0.09933 0.0
C176 C 0.04302 0.55399 0.11841 0.0
C177 C 0.03722 0.49797 0.06425 0.0
C178 C 0.03829 0.48841 0.08523 0.0
C179 C 0.03984 0.50683 0.10248 0.0
C180 C 0.03844 0.45964 0.08964 0.0
C181 C 0.03718 0.47994 0.04505 0.0
C182 C 0.01382 0.43127 0.08328 0.0
C183 C 0.01413 0.4042 0.0875 0.0
C184 C 0.03892 0.40504 0.09837 0.0
C185 C 0.06334 0.43349 0.10498 0.0
C186 C 0.06307 0.46053 0.10066 0.0
H187 H 0.04457 0.49427 0.03043 0.0
H188 H 0.05254 0.4703 0.0475 0.0
H189 H 0.0136 0.46063 0.04236 0.0
H190 H -0.00573 0.43004 0.07518 0.0
H191 H -0.00514 0.38264 0.08235 0.0
H192 H 0.60668 0.99442 0.24083 0.0
H193 H 0.55792 0.99315 0.23579 0.0
H194 H 0.59234 0.07739 0.27118 0.0
H195 H 0.64099 0.07864 0.2766 0.0
H196 H 0.53387 0.03254 0.28356 0.0
H197 H 0.542 0.04782 0.19581 0.0
H198 H 0.54626 0.01645 0.20511 0.0
H199 H 0.57447 0.05507 0.21207 0.0
C200 C 0.60394 0.01275 0.24747 0.0
C201 C 0.62774 0.0367 0.25904 0.0
C202 C 0.57611 0.01205 0.24449 0.0
C203 C 0.57174 0.0354 0.25287 0.0
C204 C 0.59536 0.05921 0.26453 0.0
H205 H 0.43043 0.07772 0.22083 0.0
H206 H 0.47839 0.07787 0.22682 0.0
C207 C 0.62314 0.05991 0.26757 0.0
C208 C 0.54234 0.03479 0.24983 0.0
H209 H 0.49477 0.03627 0.21185 0.0
C210 C 0.52529 0.03339 0.2679 0.0
C211 C 0.53148 0.03625 0.22937 0.0
C212 C 0.54959 0.03927 0.20947 0.0
C213 C 0.49744 0.03317 0.26605 0.0
C214 C 0.4862 0.03385 0.24557 0.0
C215 C 0.50337 0.03549 0.22752 0.0
C216 C 0.45704 0.03372 0.24249 0.0
C217 C 0.48063 0.03288 0.28603 0.0
C218 C 0.42916 0.00874 0.24925 0.0
C219 C 0.40166 0.00861 0.24592 0.0
C220 C 0.40163 0.03337 0.23562 0.0
C221 C 0.42965 0.0583 0.22883 0.0
C222 C 0.45708 0.05843 0.23221 0.0
H223 H 0.49583 0.04005 0.3002 0.0
H224 H 0.4709 0.04828 0.2844 0.0
H225 H 0.46143 0.00928 0.28888 0.0
H226 H 0.42862 0.9892 0.25686 0.0
H227 H 0.38045 0.989 0.25123 0.0
H228 H 0.59228 0.63493 0.39566 0.0
H229 H 0.545 0.58577 0.39122 0.0
H230 H 0.5257 0.58441 0.45824 0.0
H231 H 0.57251 0.6338 0.46275 0.0
H232 H 0.52705 0.52986 0.40983 0.0
H233 H 0.4467 0.57088 0.43122 0.0
H234 H 0.4867 0.59674 0.42557 0.0
H235 H 0.47509 0.57862 0.45121 0.0
C236 C 0.57793 0.62421 0.40945 0.0
C237 C 0.586 0.63837 0.42953 0.0
C238 C 0.55096 0.59613 0.40688 0.0
C239 C 0.53162 0.58176 0.42433 0.0
C240 C 0.53994 0.5955 0.44447 0.0
H241 H 0.36203 0.40953 0.44117 0.0
H242 H 0.41073 0.45716 0.44637 0.0
C243 C 0.56679 0.62365 0.44703 0.0
C244 C 0.50292 0.55218 0.4215 0.0
H245 H 0.42526 0.51705 0.4276 0.0
C246 C 0.50478 0.52707 0.41363 0.0
C247 C 0.47392 0.54868 0.42644 0.0
C248 C 0.47035 0.57522 0.43388 0.0
C249 C 0.47837 0.49838 0.41084 0.0
C250 C 0.44948 0.49488 0.41596 0.0
C251 C 0.44758 0.5199 0.42385 0.0
C252 C 0.4208 0.46556 0.41278 0.0
C253 C 0.48148 0.47187 0.40272 0.0
C254 C 0.41046 0.45477 0.39216 0.0
C255 C 0.38263 0.42773 0.38911 0.0
C256 C 0.36473 0.41102 0.40667 0.0
C257 C 0.37534 0.42181 0.42733 0.0
C258 C 0.40309 0.44899 0.43034 0.0
H259 H 0.50554 0.47674 0.40348 0.0
H260 H 0.46671 0.4508 0.41205 0.0
H261 H 0.47385 0.46726 0.38589 0.0
H262 H 0.42371 0.46753 0.37842 0.0
H263 H 0.37508 0.42004 0.37299 0.0
H264 H 0.94296 0.58896 0.56397 0.0
H265 H 0.94427 0.54161 0.55816 0.0
H266 H 0.93523 0.52405 0.62571 0.0
H267 H 0.93327 0.57096 0.63165 0.0
H268 H 0.9848 0.52441 0.57353 0.0
H269 H 0.86655 0.44425 0.60156 0.0
H270 H 0.8798 0.48405 0.59585 0.0
H271 H 0.88962 0.47323 0.62062 0.0
C272 C 0.94115 0.57498 0.57759 0.0
C273 C 0.93777 0.58358 0.59825 0.0
C274 C 0.94193 0.54796 0.57423 0.0
C275 C 0.93931 0.5291 0.59146 0.0
C276 C 0.93655 0.53793 0.61215 0.0
H277 H 0.94388 0.35975 0.60307 0.0
H278 H 0.94499 0.4082 0.60971 0.0
C279 C 0.9356 0.56483 0.61551 0.0
C280 C 0.93993 0.5004 0.58782 0.0
H281 H 0.89841 0.42287 0.5948 0.0
C282 C 0.96588 0.50219 0.57809 0.0
C283 C 0.91517 0.47148 0.5938 0.0
C284 C 0.88608 0.46799 0.60335 0.0
C285 C 0.96789 0.47578 0.57443 0.0
C286 C 0.94321 0.44695 0.58051 0.0
C287 C 0.91732 0.44513 0.59029 0.0
C288 C 0.9435 0.41825 0.57643 0.0
C289 C -0.0035 0.47888 0.56435 0.0
C290 C 0.94207 0.40793 0.55552 0.0
C291 C 0.94126 0.38024 0.55166 0.0
C292 C 0.94189 0.36244 0.56868 0.0
C293 C 0.94346 0.37297 0.58962 0.0
C294 C 0.94407 0.40059 0.59346 0.0
H295 H 0.01579 0.50292 0.56469 0.0
H296 H 0.00372 0.46401 0.57258 0.0
H297 H 0.99168 0.47142 0.54749 0.0
H298 H 0.94119 0.42112 0.5422 0.0
H299 H 0.94003 0.37277 0.53535 0.0
H300 H 0.55833 0.90181 0.76174 0.0
H301 H 0.51409 0.90904 0.76628 0.0
H302 H 0.54537 0.97297 0.71396 0.0
H303 H 0.58971 0.96594 0.70924 0.0
H304 H 0.51617 0.96794 0.77344 0.0
H305 H 0.45423 0.90735 0.69973 0.0
H306 H 0.48366 0.90165 0.71158 0.0
H307 H 0.49401 0.93595 0.69681 0.0
C308 C 0.55578 0.91734 0.75114 0.0
C309 C 0.57747 0.93324 0.73509 0.0
C310 C 0.53055 0.92147 0.7538 0.0
C311 C 0.52644 0.9413 0.74033 0.0
C312 C 0.54804 0.95729 0.72433 0.0
H313 H 0.37746 0.98168 0.73178 0.0
H314 H 0.42537 0.98123 0.72628 0.0
C315 C 0.57338 0.95332 0.72173 0.0
C316 C 0.49969 0.94551 0.74323 0.0
H317 H 0.43225 0.93057 0.72031 0.0
C318 C 0.4978 0.95983 0.76184 0.0
C319 C 0.476 0.93506 0.72796 0.0
C320 C 0.47678 0.91894 0.70793 0.0
C321 C 0.47268 0.96401 0.76563 0.0
C322 C 0.4486 0.95293 0.75059 0.0
C323 C 0.45077 0.93904 0.7318 0.0
C324 C 0.42037 0.95436 0.75441 0.0
C325 C 0.47232 0.98054 0.78557 0.0
C326 C 0.40165 0.93922 0.77196 0.0
C327 C 0.37438 0.9395 0.77519 0.0
C328 C 0.36516 0.95469 0.76078 0.0
C329 C 0.38396 0.96984 0.74319 0.0
C330 C 0.41131 0.9696 0.74001 0.0
H331 H 0.49581 -0.0047 0.79195 0.0
H332 H 0.46178 -0.00503 0.78257 0.0
H333 H 0.45864 0.96343 0.79797 0.0
H334 H 0.40787 0.92673 0.78299 0.0
H335 H 0.36034 0.92743 0.78882 0.0
H336 H 0.38084 0.37785 0.90731 0.0
H337 H 0.42705 0.42728 0.90088 0.0
H338 H 0.47924 0.40011 0.9405 0.0
H339 H 0.43317 0.35086 0.9473 0.0
H340 H 0.48892 0.45814 0.94985 0.0
H341 H 0.50042 0.44441 0.86319 0.0
H342 H 0.46363 0.4386 0.87118 0.0
H343 H 0.47591 0.41262 0.88024 0.0
C344 C 0.40218 0.38232 0.91457 0.0
C345 C 0.40336 0.36041 0.92778 0.0
C346 C 0.42857 0.41051 0.91079 0.0
C347 C 0.45658 0.41713 0.92 0.0
C348 C 0.45782 0.39534 0.93319 0.0
H349 H 0.63938 0.56196 0.88983 0.0
H350 H 0.59192 0.51334 0.89512 0.0
C351 C 0.43148 0.36721 0.93703 0.0
C352 C 0.4845 0.44712 0.91646 0.0
H353 H 0.53391 0.49329 0.87801 0.0
C354 C 0.4988 0.46587 0.93415 0.0
C355 C 0.49741 0.45688 0.89598 0.0
C356 C 0.48377 0.43701 0.87656 0.0
C357 C 0.52569 0.49429 0.93192 0.0
C358 C 0.53822 0.50438 0.91139 0.0
C359 C 0.52402 0.48555 0.8937 0.0
C360 C 0.56665 0.53399 0.90802 0.0
C361 C 0.54084 0.51294 0.9516 0.0
C362 C 0.56796 0.56168 0.91329 0.0
C363 C 0.59509 0.58953 0.91039 0.0
C364 C 0.62127 0.59011 0.90199 0.0
C365 C 0.61966 0.56231 0.89639 0.0
C366 C 0.59257 0.53451 0.89936 0.0
H367 H 0.53268 0.4988 0.96629 0.0
H368 H 0.56615 0.52354 0.95065 0.0
H369 H 0.53531 0.5316 0.95301 0.0
H370 H 0.54799 0.56175 0.91962 0.0
H371 H 0.59552 0.61055 0.91471 0.0
H372 H 0.11879 0.34503 0.06459 0.0
H373 H 0.1466 0.33679 0.03597 0.0
H374 H 0.09695 0.23955 0.04853 0.0
H375 H 0.0698 0.2478 0.07779 0.0
H376 H 0.15541 0.25931 0.04672 0.0
H377 H 0.12587 0.30515 0.97655 0.0
H378 H 0.14065 0.33306 0.99745 0.0
H379 H 0.10527 0.29753 0.00139 0.0
C380 C 0.11347 0.32183 0.06108 0.0
C381 C 0.09221 0.29706 0.0735 0.0
C382 C 0.12917 0.31711 0.04454 0.0
C383 C 0.12346 0.28748 0.0398 0.0
C384 C 0.10159 0.2626 0.05182 0.0
H385 H 0.22297 0.25648 0.9363 0.0
H386 H 0.18177 0.25695 0.95692 0.0
C387 C 0.08616 0.26735 0.06856 0.0
C388 C 0.1427 0.283 0.02395 0.0
H389 H 0.17283 0.30298 0.9739 0.0
C390 C 0.15877 0.26841 0.03068 0.0
C391 C 0.14679 0.29441 0.00289 0.0
C392 C 0.12843 0.30809 0.99409 0.0
C393 C 0.17992 0.2663 0.01735 0.0
C394 C 0.18588 0.27998 0.99696 0.0
C395 C 0.16866 0.29308 0.98973 0.0
C396 C 0.21092 0.28202 0.98347 0.0
C397 C 0.19589 0.24966 0.02537 0.0
C398 C 0.24104 0.29701 0.99122 0.0
C399 C 0.26441 0.29656 0.97965 0.0
C400 C 0.2582 0.28154 0.9599 0.0
C401 C 0.22839 0.26817 0.9515 0.0
C402 C 0.20486 0.26837 0.96325 0.0
H403 H 0.18211 0.23258 0.0378 0.0
H404 H 0.2004 0.23767 0.01223 0.0
H405 H 0.21815 0.26645 0.03259 0.0
H406 H 0.24635 0.30844 0.00653 0.0
H407 H 0.28724 0.30746 0.9864 0.0
H408 H 0.76676 0.11253 0.22335 0.0
H409 H 0.80346 0.14066 0.19521 0.0
H410 H 0.84808 0.08775 0.20608 0.0
H411 H 0.81193 0.06011 0.23488 0.0
H412 H 0.88815 0.14608 0.20611 0.0
H413 H 0.81554 0.12312 0.13514 0.0
H414 H 0.80199 0.13685 0.15648 0.0
H415 H 0.80129 0.10088 0.15925 0.0
C416 C 0.78406 0.10649 0.21955 0.0
C417 C 0.78656 0.08421 0.23143 0.0
C418 C 0.80486 0.12241 0.20326 0.0
C419 C 0.82821 0.11596 0.19823 0.0
C420 C 0.83012 0.09297 0.2096 0.0
H421 H 0.96335 0.22479 0.0991 0.0
H422 H 0.92107 0.18129 0.11767 0.0
C423 C 0.8095 0.07725 0.22608 0.0
C424 C 0.85267 0.13578 0.183 0.0
H425 H 0.86493 0.17033 0.13439 0.0
C426 C 0.88307 0.15088 0.19028 0.0
C427 C 0.84624 0.14176 0.16219 0.0
C428 C 0.8145 0.12449 0.15275 0.0
C429 C 0.9069 0.17309 0.17784 0.0
C430 C 0.90002 0.18105 0.15784 0.0
C431 C 0.87001 0.16464 0.14994 0.0
C432 C 0.9235 0.2075 0.14563 0.0
C433 C 0.93919 0.18818 0.18643 0.0
C434 C 0.93791 0.23675 0.15487 0.0
C435 C 0.96202 0.26143 0.14444 0.0
C436 C 0.97192 0.25744 0.1244 0.0
C437 C 0.95624 0.22852 0.11455 0.0
C438 C 0.93217 0.20367 0.12514 0.0
H439 H 0.94197 0.17319 0.19811 0.0
H440 H 0.95618 0.19393 0.17344 0.0
H441 H 0.94439 0.20969 0.19474 0.0
H442 H 0.93095 0.24033 0.17043 0.0
H443 H 0.97336 0.28351 0.15232 0.0
H444 H 0.70962 0.83871 0.42236 0.0
H445 H 0.71358 0.86794 0.39037 0.0
H446 H 0.66489 0.78405 0.3545 0.0
H447 H 0.66055 0.75443 0.38655 0.0
H448 H 0.73873 0.86867 0.34877 0.0
H449 H 0.61332 0.82736 0.34788 0.0
H450 H 0.63225 0.82325 0.37097 0.0
H451 H 0.625 0.79895 0.34827 0.0
C452 C 0.69991 0.82643 0.40767 0.0
C453 C 0.68451 0.79425 0.40705 0.0
C454 C 0.7023 0.84317 0.38939 0.0
C455 C 0.68926 0.82809 0.37019 0.0
C456 C 0.67478 0.79603 0.36927 0.0
H457 H 0.71491 0.94866 0.26007 0.0
H458 H 0.70917 0.90341 0.27904 0.0
C459 C 0.6724 0.77921 0.38757 0.0
C460 C 0.68963 0.84621 0.3516 0.0
H461 H 0.6441 0.86609 0.32371 0.0
C462 C 0.71804 0.86775 0.34292 0.0
C463 C 0.66251 0.84489 0.34417 0.0
C464 C 0.63148 0.82254 0.35331 0.0
C465 C 0.72019 0.8891 0.32769 0.0
C466 C 0.6932 0.88865 0.32098 0.0
C467 C 0.66466 0.86611 0.32885 0.0
C468 C 0.69456 0.91418 0.30859 0.0
C469 C 0.7514 0.91324 0.31991 0.0
C470 C 0.68756 0.93462 0.31884 0.0
C471 C 0.69085 0.9603 0.30818 0.0
C472 C 0.70104 0.96599 0.28696 0.0
C473 C 0.70705 0.94489 0.27642 0.0
C474 C 0.7039 0.91915 0.28722 0.0
H475 H 0.77026 0.91196 0.3281 0.0
H476 H 0.75325 0.91028 0.30257 0.0
H477 H 0.7545 0.93645 0.32242 0.0
H478 H 0.68031 0.93112 0.33535 0.0
H479 H 0.68583 0.97597 0.31673 0.0
H480 H 0.78272 0.77324 0.4554 0.0
H481 H 0.82171 0.76821 0.47538 0.0
H482 H 0.75155 0.68244 0.50156 0.0
H483 H 0.71248 0.68726 0.48185 0.0
H484 H 0.78963 0.72766 0.53189 0.0
H485 H 0.85697 0.70904 0.46933 0.0
H486 H 0.84991 0.74033 0.46521 0.0
H487 H 0.81843 0.70169 0.46487 0.0
C488 C 0.77565 0.75305 0.46512 0.0
C489 C 0.74448 0.73076 0.46717 0.0
C490 C 0.79798 0.75017 0.47644 0.0
C491 C 0.78945 0.72489 0.48982 0.0
C492 C 0.75853 0.70207 0.49124 0.0
H493 H 0.88445 0.65714 0.56488 0.0
H494 H 0.85641 0.66744 0.53745 0.0
C495 C 0.73625 0.7049 0.47997 0.0
C496 C 0.81209 0.72348 0.50398 0.0
H497 H 0.87483 0.71436 0.50478 0.0
C498 C 0.80836 0.72488 0.52599 0.0
C499 C 0.83632 0.71976 0.49613 0.0
C500 C 0.8407 0.71738 0.4726 0.0
C501 C 0.82805 0.7223 0.54046 0.0
C502 C 0.8524 0.71869 0.53266 0.0
C503 C 0.8563 0.71746 0.51063 0.0
C504 C 0.87268 0.71419 0.54735 0.0
C505 C 0.82208 0.72251 0.564 0.0
C506 C 0.89179 0.73744 0.56154 0.0
C507 C 0.90774 0.73161 0.57732 0.0
C508 C 0.90485 0.70246 0.57908 0.0
C509 C 0.88697 0.67976 0.56407 0.0
C510 C 0.87103 0.68562 0.54832 0.0
H511 H 0.79899 0.71939 0.56724 0.0
H512 H 0.82404 0.70412 0.57231 0.0
H513 H 0.83941 0.74483 0.57087 0.0
H514 H 0.8936 0.75977 0.56083 0.0
H515 H 0.92156 0.74967 0.5885 0.0
H516 H 0.00572 0.72173 0.66367 0.0
H517 H 0.05406 0.76071 0.67878 0.0
H518 H 0.09504 0.78178 0.61628 0.0
H519 H 0.04646 0.74213 0.60088 0.0
H520 H 0.13142 0.77554 0.64635 0.0
H521 H 0.09218 0.85318 0.6763 0.0
H522 H 0.06724 0.81464 0.68509 0.0
H523 H 0.07058 0.8234 0.65708 0.0
C524 C 0.02487 0.73472 0.65304 0.0
C525 C 0.02219 0.7289 0.63104 0.0
C526 C 0.05247 0.75719 0.66171 0.0
C527 C 0.07791 0.77458 0.64859 0.0
C528 C 0.07552 0.76878 0.62662 0.0
H529 H 0.23065 0.91957 0.72014 0.0
H530 H 0.19488 0.89477 0.6907 0.0
C531 C 0.04779 0.74615 0.61788 0.0
C532 C 0.10721 0.79762 0.6583 0.0
H533 H 0.13613 0.85612 0.69421 0.0
C534 C 0.13275 0.79361 0.65647 0.0
C535 C 0.10917 0.82164 0.67108 0.0
C536 C 0.0834 0.82869 0.67231 0.0
C537 C 0.15941 0.81153 0.66841 0.0
C538 C 0.16012 0.83343 0.68286 0.0
C539 C 0.13545 0.83899 0.68341 0.0
C540 C 0.18476 0.84891 0.69888 0.0
C541 C 0.18625 0.80637 0.66568 0.0
C542 C 0.19109 0.8314 0.71319 0.0
C543 C 0.21167 0.8455 0.7299 0.0
C544 C 0.22588 0.87735 0.73286 0.0
C545 C 0.21996 0.89495 0.71831 0.0
C546 C 0.1996 0.88084 0.70145 0.0
H547 H 0.18689 0.79835 0.64931 0.0
H548 H 0.20836 0.82757 0.6689 0.0
H549 H 0.1838 0.78828 0.6769 0.0
H550 H 0.17923 0.80665 0.71196 0.0
H551 H 0.21559 0.83129 0.74092 0.0
H552 H 0.21442 -0.0046 0.79159 0.0
H553 H 0.21662 0.03903 0.81044 0.0
H554 H 0.31435 0.07925 0.81771 0.0
H555 H 0.31242 0.03562 0.79915 0.0
H556 H 0.24559 0.05337 0.85498 0.0
H557 H 0.29618 0.1506 0.79772 0.0
H558 H 0.27427 0.11104 0.78927 0.0
H559 H 0.31278 0.12617 0.79866 0.0
C560 C 0.23648 0.01384 0.79679 0.0
C561 C 0.26324 0.012 0.79404 0.0
C562 C 0.23766 0.0387 0.80753 0.0
C563 C 0.26565 0.0623 0.81527 0.0
C564 C 0.29261 0.06134 0.81159 0.0
H565 H 0.33993 0.21755 0.89702 0.0
H566 H 0.32812 0.17945 0.86915 0.0
C567 C 0.29142 0.03634 0.8011 0.0
C568 C 0.26638 0.08589 0.82953 0.0
H569 H 0.29348 0.16266 0.83389 0.0
C570 C 0.25562 0.07724 0.85037 0.0
C571 C 0.27979 0.11687 0.82336 0.0
C572 C 0.29131 0.12691 0.801 0.0
C573 C 0.25915 0.09907 0.86562 0.0
C574 C 0.27292 0.13028 0.85958 0.0
C575 C 0.28283 0.13874 0.83847 0.0
C576 C 0.27927 0.15467 0.8753 0.0
C577 C 0.24962 0.08863 0.88828 0.0
C578 C 0.25564 0.15385 0.88767 0.0
C579 C 0.26241 0.17527 0.9039 0.0
C580 C 0.29285 0.19828 0.90768 0.0
C581 C 0.31626 0.20001 0.89454 0.0
C582 C 0.30953 0.17831 0.87856 0.0
H583 H 0.247 0.06569 0.89125 0.0
H584 H 0.26661 0.10513 0.89976 0.0
H585 H 0.22717 0.08697 0.89148 0.0
H586 H 0.23202 0.13633 0.88502 0.0
H587 H 0.24385 0.17368 0.91357 0.0
H588 H 0.71729 0.7687 0.90673 0.0
H589 H 0.71176 0.80903 0.88883 0.0
H590 H 0.67564 0.75155 0.83333 0.0
H591 H 0.68104 0.71145 0.8509 0.0
H592 H 0.74103 0.83704 0.84949 0.0
H593 H 0.61488 0.78272 0.84374 0.0
H594 H 0.63355 0.77042 0.86266 0.0
H595 H 0.62855 0.75755 0.83548 0.0
C596 C 0.70775 0.76455 0.89083 0.0
C597 C 0.69966 0.73695 0.8802 0.0
C598 C 0.70464 0.78757 0.88066 0.0
C599 C 0.69289 0.78302 0.85991 0.0
C600 C 0.6842 0.75525 0.8495 0.0
H601 H 0.71748 0.88098 0.74823 0.0
H602 H 0.72097 0.85559 0.78028 0.0
C603 C 0.68753 0.73244 0.85952 0.0
C604 C 0.69197 0.8079 0.84812 0.0
H605 H 0.64429 0.82165 0.81753 0.0
C606 C 0.71984 0.8341 0.84288 0.0
C607 C 0.66427 0.80419 0.83979 0.0
C608 C 0.63358 0.77733 0.84588 0.0
C609 C 0.72091 0.85553 0.82816 0.0
C610 C 0.69346 0.8503 0.81833 0.0
C611 C 0.66537 0.82541 0.82488 0.0
C612 C 0.6936 0.86833 0.79974 0.0
C613 C 0.7515 0.88302 0.82271 0.0
C614 C 0.67674 0.88361 0.79999 0.0
C615 C 0.67458 0.89806 0.78163 0.0
C616 C 0.68894 0.89711 0.76265 0.0
C617 C 0.70619 0.88218 0.76258 0.0
C618 C 0.70843 0.86788 0.78094 0.0
H619 H 0.76802 0.88908 0.83604 0.0
H620 H 0.76125 0.87757 0.80864 0.0
H621 H 0.74913 0.90324 0.81882 0.0
H622 H 0.66489 0.88392 0.81431 0.0
H623 H 0.66105 0.90932 0.78218 0.0
H624 H 0.81284 0.74781 0.92893 0.0
H625 H 0.8495 0.75368 0.95665 0.0
H626 H 0.79452 0.65767 0.97205 0.0
H627 H 0.75734 0.6518 0.94493 0.0
H628 H 0.8198 0.69305 0.00768 0.0
H629 H 0.9076 0.72178 0.94462 0.0
H630 H 0.89255 0.74736 0.946 0.0
H631 H 0.86784 0.70798 0.93857 0.0
C632 C 0.80836 0.72805 0.93842 0.0
C633 C 0.78248 0.69924 0.93452 0.0
C634 C 0.82936 0.73143 0.9542 0.0
C635 C 0.82507 0.70594 0.96603 0.0
C636 C 0.79834 0.67759 0.96302 0.0
H637 H 0.96309 0.67331 0.01652 0.0
H638 H 0.91936 0.67182 0.99874 0.0
C639 C 0.77716 0.67427 0.94744 0.0
C640 C 0.84943 0.70796 0.98024 0.0
H641 H 0.92285 0.72144 0.97987 0.0
C642 C 0.84242 0.6994 0.00168 0.0
C643 C 0.87873 0.71582 0.97224 0.0
C644 C 0.88714 0.72349 0.94907 0.0
C645 C 0.86387 0.69813 0.0153 0.0
C646 C 0.89318 0.70617 0.00728 0.0
C647 C 0.90032 0.7153 0.98596 0.0
C648 C 0.91661 0.70402 0.02017 0.0
C649 C 0.85463 0.68718 0.03787 0.0
C650 C 0.92904 0.72198 0.0385 0.0
C651 C 0.95389 0.72255 0.0489 0.0
C652 C 0.96693 0.70561 0.04084 0.0
C653 C 0.95364 0.68676 0.023 0.0
C654 C 0.92867 0.6859 0.01283 0.0
H655 H 0.82934 0.6749 0.03996 0.0
H656 H 0.86331 0.6717 0.04271 0.0
H657 H 0.86467 0.70723 0.04873 0.0
H658 H 0.92047 0.73657 0.04421 0.0
H659 H 0.96385 0.73747 0.06253 0.0
H660 H 0.28545 0.9677 0.17942 0.0
H661 H 0.24524 0.92654 0.15841 0.0
H662 H 0.17812 0.91494 0.2057 0.0
H663 H 0.21856 0.9558 0.22721 0.0
H664 H 0.1682 0.85968 0.18917 0.0
H665 H 0.18503 0.94127 0.12459 0.0
H666 H 0.21992 0.94172 0.13107 0.0
H667 H 0.20186 0.95368 0.15062 0.0
C668 C 0.26219 0.95619 0.18548 0.0
C669 C 0.25505 0.96521 0.20481 0.0
C670 C 0.23923 0.9328 0.17341 0.0
C671 C 0.20863 0.91837 0.18022 0.0
C672 C 0.2016 0.92608 0.20008 0.0
H673 H 0.07069 0.81687 0.08305 0.0
H674 H 0.09798 0.85175 0.11249 0.0
C675 C 0.2247 0.94934 0.21235 0.0
C676 C 0.1841 0.8961 0.16611 0.0
H677 H 0.15676 0.88801 0.11553 0.0
C678 C 0.16537 0.86587 0.17314 0.0
C679 C 0.17989 0.90447 0.14544 0.0
C680 C 0.19751 0.93714 0.13756 0.0
C681 C 0.14361 0.84335 0.15958 0.0
C682 C 0.14118 0.85123 0.13833 0.0
C683 C 0.15885 0.88183 0.13172 0.0
C684 C 0.1219 0.82806 0.12222 0.0
C685 C 0.12353 0.81143 0.1682 0.0
C686 C 0.12616 0.80309 0.11795 0.0
C687 C 0.11035 0.78297 0.10132 0.0
C688 C 0.09049 0.78783 0.08833 0.0
C689 C 0.08596 0.81263 0.09273 0.0
C690 C 0.10147 0.83251 0.10957 0.0
H691 H 0.12018 0.81186 0.18565 0.0
H692 H 0.10071 0.79986 0.16038 0.0
H693 H 0.13481 0.79765 0.16533 0.0
H694 H 0.1425 0.7997 0.12701 0.0
H695 H 0.11449 0.76419 0.09822 0.0
H696 H 0.33172 0.09947 0.27486 0.0
H697 H 0.32152 0.12709 0.30263 0.0
H698 H 0.23121 0.09529 0.27688 0.0
H699 H 0.2414 0.06801 0.24876 0.0
H700 H 0.26351 0.1568 0.28124 0.0
H701 H 0.26955 0.10251 0.35626 0.0
H702 H 0.30238 0.11369 0.33955 0.0
H703 H 0.26511 0.08462 0.33058 0.0
C704 C 0.30948 0.09791 0.2753 0.0
C705 C 0.28744 0.08174 0.25951 0.0
C706 C 0.30359 0.11349 0.29132 0.0
C707 C 0.27545 0.1129 0.29199 0.0
C708 C 0.253 0.09586 0.27671 0.0
H709 H 0.22681 0.21371 0.38314 0.0
H710 H 0.22716 0.17177 0.36353 0.0
C711 C 0.2589 0.08036 0.26063 0.0
C712 C 0.27098 0.13302 0.30696 0.0
H713 H 0.27536 0.15286 0.35938 0.0
C714 C 0.26565 0.15562 0.29834 0.0
C715 C 0.27358 0.13133 0.32928 0.0
C716 C 0.27766 0.10652 0.33949 0.0
C717 C 0.26411 0.17736 0.31134 0.0
C718 C 0.26845 0.17675 0.3335 0.0
C719 C 0.27245 0.15342 0.34231 0.0
C720 C 0.27004 0.20107 0.34745 0.0
C721 C 0.2583 0.20117 0.30125 0.0
C722 C 0.29457 0.23109 0.34535 0.0
C723 C 0.29448 0.25501 0.35644 0.0
C724 C 0.26982 0.24929 0.36987 0.0
C725 C 0.24607 0.21888 0.37285 0.0
C726 C 0.24622 0.1949 0.36171 0.0
H727 H 0.24845 0.19429 0.28502 0.0
H728 H 0.24243 0.20528 0.31116 0.0
H729 H 0.2803 0.22312 0.29993 0.0
H730 H 0.31331 0.23614 0.33456 0.0
H731 H 0.31325 0.27811 0.35392 0.0
H732 H 0.23063 0.30855 0.44236 0.0
H733 H 0.19381 0.29877 0.47099 0.0
H734 H 0.1789 0.37026 0.44651 0.0
H735 H 0.21624 0.38078 0.41832 0.0
H736 H 0.18202 0.37112 0.48995 0.0
H737 H 0.10229 0.25326 0.46046 0.0
H738 H 0.13997 0.26073 0.46743 0.0
H739 H 0.13508 0.2805 0.44531 0.0
C740 C 0.21962 0.32229 0.44317 0.0
C741 C 0.22608 0.34522 0.42796 0.0
C742 C 0.19854 0.31661 0.45948 0.0
C743 C 0.18323 0.33342 0.46063 0.0
C744 C 0.19043 0.35698 0.44589 0.0
H745 H 0.00905 0.29486 0.50069 0.0
H746 H 0.05606 0.30267 0.48412 0.0
C747 C 0.21171 0.3629 0.42974 0.0
C748 C 0.15861 0.32579 0.47643 0.0
H749 H 0.08608 0.27035 0.48975 0.0
C750 C 0.16115 0.34898 0.49013 0.0
C751 C 0.13139 0.2969 0.4765 0.0
C752 C 0.12676 0.27145 0.46155 0.0
C753 C 0.13667 0.34452 0.50325 0.0
C754 C 0.10923 0.31587 0.50293 0.0
C755 C 0.10725 0.29224 0.48999 0.0
C756 C 0.08101 0.31105 0.51369 0.0
C757 C 0.13975 0.37099 0.5164 0.0
C758 C 0.07939 0.31307 0.53589 0.0
C759 C 0.05243 0.30884 0.54549 0.0
C760 C 0.02668 0.30224 0.533 0.0
C761 C 0.02841 0.2999 0.51081 0.0
C762 C 0.05527 0.3043 0.50129 0.0
H763 H 0.16034 0.39301 0.51192 0.0
H764 H 0.11917 0.37347 0.51456 0.0
H765 H 0.14177 0.36657 0.53344 0.0
H766 H 0.09886 0.31776 0.54577 0.0
H767 H 0.05171 0.31058 0.56264 0.0
H768 H 0.88429 0.23623 0.59929 0.0
H769 H 0.85448 0.19812 0.62644 0.0
H770 H 0.90023 0.14771 0.6105 0.0
H771 H 0.93055 0.18598 0.58355 0.0
H772 H 0.81485 0.13812 0.61708 0.0
H773 H 0.90135 0.14652 0.67526 0.0
H774 H 0.90938 0.17615 0.65594 0.0
H775 H 0.91037 0.14224 0.64828 0.0
C776 C 0.8884 0.21731 0.60179 0.0
C777 C 0.90966 0.21401 0.58918 0.0
C778 C 0.87138 0.1956 0.61734 0.0
C779 C 0.87538 0.17028 0.62063 0.0
C780 C 0.89727 0.16743 0.60855 0.0
H781 H 0.77308 0.99266 0.67747 0.0
H782 H 0.81149 0.0403 0.66064 0.0
C783 C 0.91441 0.18921 0.59303 0.0
C784 C 0.85433 0.14522 0.63496 0.0
H785 H 0.85176 0.10135 0.67718 0.0
C786 C 0.82286 0.13035 0.63042 0.0
C787 C 0.86493 0.13506 0.65224 0.0
C788 C 0.89833 0.151 0.65838 0.0
C789 C 0.80174 0.10495 0.64226 0.0
C790 C 0.81237 0.09446 0.6593 0.0
C791 C 0.84377 0.10956 0.6641 0.0
C792 C 0.79118 0.06688 0.67158 0.0
C793 C 0.76836 0.08884 0.63593 0.0
C794 C 0.76762 0.0664 0.68379 0.0
C795 C 0.74556 0.0392 0.69336 0.0
C796 C 0.74681 0.0121 0.69092 0.0
C797 C 0.77135 0.01308 0.67954 0.0
C798 C 0.79337 0.04028 0.66997 0.0
H799 H 0.76499 0.09591 0.61987 0.0
H800 H 0.7585 0.06358 0.63602 0.0
H801 H 0.75535 0.09453 0.64755 0.0
H802 H 0.76586 0.08687 0.68544 0.0
H803 H 0.7271 0.03927 0.70217 0.0
H804 H 0.257 0.37424 0.32252 0.0
H805 H 0.23231 0.37874 0.29024 0.0
H806 H 0.15408 0.28945 0.30222 0.0
H807 H 0.17822 0.28498 0.3346 0.0
H808 H 0.21453 0.34172 0.25494 0.0
H809 H 0.11392 0.34069 0.29145 0.0
H810 H 0.14685 0.34698 0.30679 0.0
H811 H 0.11778 0.3087 0.29967 0.0
C812 C 0.23441 0.35569 0.31838 0.0
C813 C 0.21951 0.32929 0.33118 0.0
C814 C 0.22037 0.3583 0.29994 0.0
C815 C 0.19116 0.33466 0.29403 0.0
C816 C 0.17629 0.3083 0.30675 0.0
H817 H 0.06985 0.27857 0.18781 0.0
H818 H 0.09828 0.28465 0.22061 0.0
C819 C 0.19024 0.3057 0.3252 0.0
C820 C 0.17675 0.33673 0.27403 0.0
H821 H 0.11095 0.33062 0.25396 0.0
C822 C 0.19208 0.33975 0.25472 0.0
C823 C 0.1475 0.33426 0.27381 0.0
C824 C 0.13068 0.33279 0.29406 0.0
C825 C 0.17833 0.33899 0.23513 0.0
C826 C 0.14865 0.33536 0.23494 0.0
C827 C 0.13368 0.33323 0.25423 0.0
C828 C 0.13203 0.33213 0.21486 0.0
C829 C 0.19507 0.34087 0.21476 0.0
C830 C 0.14162 0.35692 0.20083 0.0
C831 C 0.12536 0.35358 0.18203 0.0
C832 C 0.09928 0.32535 0.17701 0.0
C833 C 0.08987 0.3006 0.19114 0.0
C834 C 0.10603 0.30401 0.20992 0.0
H835 H 0.2158 0.33893 0.21761 0.0
H836 H 0.1797 0.32247 0.20361 0.0
H837 H 0.20231 0.36321 0.20692 0.0
H838 H 0.16149 0.3789 0.20452 0.0
H839 H 0.13315 0.3731 0.1715 0.0
H840 H 0.86879 0.25331 0.48395 0.0
H841 H 0.8395 0.22794 0.45179 0.0
H842 H 0.86757 0.16015 0.45689 0.0
H843 H 0.89654 0.18501 0.489 0.0
H844 H 0.86253 0.21781 0.41373 0.0
H845 H 0.77455 0.10818 0.44945 0.0
H846 H 0.79796 0.14201 0.46517 0.0
H847 H 0.81297 0.11808 0.45641 0.0
C848 C 0.86847 0.23283 0.47833 0.0
C849 C 0.88492 0.22112 0.48906 0.0
C850 C 0.85178 0.21842 0.45996 0.0
C851 C 0.85103 0.19194 0.45217 0.0
C852 C 0.86733 0.18019 0.46289 0.0
H853 H 0.79294 0.07393 0.34418 0.0
H854 H 0.81472 0.10262 0.37699 0.0
C855 C 0.88403 0.19456 0.48119 0.0
C856 C 0.83451 0.17727 0.43227 0.0
H857 H 0.78039 0.10867 0.41161 0.0
C858 C 0.84425 0.19409 0.41325 0.0
C859 C 0.81066 0.14635 0.43177 0.0
C860 C 0.79818 0.12767 0.45182 0.0
C861 C 0.83171 0.18032 0.39357 0.0
C862 C 0.80864 0.1491 0.39303 0.0
C863 C 0.79824 0.13258 0.41211 0.0
C864 C 0.79599 0.13265 0.37277 0.0
C865 C 0.84405 0.19885 0.37345 0.0
C866 C 0.77823 0.1401 0.35956 0.0
C867 C 0.76569 0.12371 0.34075 0.0
C868 C 0.77069 0.09959 0.3349 0.0
C869 C 0.78868 0.0924 0.34816 0.0
C870 C 0.80111 0.10871 0.36695 0.0
H871 H 0.86551 0.2209 0.37631 0.0
H872 H 0.84862 0.18564 0.36127 0.0
H873 H 0.82671 0.20403 0.36685 0.0
H874 H 0.77372 0.15826 0.36395 0.0
H875 H 0.75185 0.12975 0.33092 0.0
H876 H 0.64952 0.86315 0.67378 0.0
H877 H 0.64668 0.83158 0.64328 0.0
H878 H 0.64221 0.89634 0.60073 0.0
H879 H 0.64529 0.9282 0.63104 0.0
H880 H 0.60096 0.80472 0.61078 0.0
H881 H 0.71539 0.88892 0.57837 0.0
H882 H 0.70371 0.89128 0.60514 0.0
H883 H 0.69004 0.90375 0.58307 0.0
C884 C 0.64786 0.87066 0.65794 0.0
C885 C 0.64784 0.8983 0.65483 0.0
C886 C 0.6462 0.85257 0.64055 0.0
C887 C 0.64469 0.86189 0.61978 0.0
C888 C 0.64392 0.88905 0.61664 0.0
H889 H 0.64587 0.78923 0.49465 0.0
H890 H 0.64279 0.81866 0.52458 0.0
C891 C 0.64554 0.90714 0.63399 0.0
C892 C 0.64418 0.8433 0.60137 0.0
H893 H 0.68491 0.84496 0.55745 0.0
C894 C 0.61931 0.81343 0.59912 0.0
C895 C 0.66817 0.85483 0.58622 0.0
C896 C 0.696 0.88635 0.58833 0.0
C897 C 0.61757 0.79487 0.58189 0.0
C898 C 0.64165 0.80636 0.56679 0.0
C899 C 0.66645 0.83627 0.56902 0.0
C900 C 0.64191 0.78761 0.54871 0.0
C901 C 0.58976 0.76336 0.57979 0.0
C902 C 0.64257 0.76048 0.55239 0.0
C903 C 0.64429 0.74358 0.53533 0.0
C904 C 0.64561 0.75365 0.51428 0.0
C905 C 0.64483 0.7808 0.51066 0.0
C906 C 0.64309 0.79766 0.52773 0.0
H907 H 0.57002 0.76128 0.58908 0.0
H908 H 0.58276 0.75783 0.56288 0.0
H909 H 0.59533 0.74609 0.58597 0.0
H910 H 0.64236 0.75267 0.56847 0.0
H911 H 0.64501 0.72287 0.53869 0.0
H912 H 0.91762 0.64304 0.71071 0.0
H913 H 0.88571 0.64065 0.74084 0.0
H914 H 0.81964 0.64132 0.69759 0.0
H915 H 0.85122 0.64343 0.66734 0.0
H916 H 0.86818 0.68434 0.75062 0.0
H917 H 0.7668 0.56906 0.73749 0.0
H918 H 0.80341 0.5812 0.72496 0.0
H919 H 0.77832 0.59386 0.71468 0.0
C920 C 0.89616 0.64237 0.70758 0.0
C921 C 0.88694 0.64338 0.68662 0.0
C922 C 0.87799 0.64104 0.72481 0.0
C923 C 0.85018 0.64044 0.72141 0.0
C924 C 0.84076 0.64118 0.70053 0.0
H925 H 0.71406 0.64703 0.80177 0.0
H926 H 0.74437 0.64431 0.77229 0.0
C927 C 0.85893 0.64256 0.68327 0.0
C928 C 0.83182 0.64067 0.73974 0.0
H929 H 0.76171 0.60042 0.76355 0.0
C930 C 0.84498 0.66592 0.75356 0.0
C931 C 0.80154 0.61664 0.74342 0.0
C932 C 0.7867 0.5885 0.72948 0.0
C933 C 0.82841 0.6681 0.77077 0.0
C934 C 0.79809 0.64409 0.77445 0.0
C935 C 0.78496 0.61878 0.76067 0.0
C936 C 0.77952 0.64499 0.79241 0.0
C937 C 0.84321 0.69647 0.78451 0.0
C938 C 0.78902 0.64576 0.81349 0.0
C939 C 0.77183 0.6474 0.83038 0.0
C940 C 0.74468 0.64808 0.82647 0.0
C941 C 0.73489 0.64664 0.80533 0.0
C942 C 0.75215 0.64505 0.78846 0.0
H943 H 0.86317 0.71579 0.77646 0.0
H944 H 0.82652 0.7039 0.78879 0.0
H945 H 0.8515 0.69133 0.79945 0.0
H946 H 0.80977 0.64511 0.81689 0.0
H947 H 0.77989 0.64827 0.84647 0.0
H948 H 0.25205 0.87829 0.84176 0.0
H949 H 0.22703 0.8499 0.87423 0.0
H950 H 0.14389 0.84883 0.85624 0.0
H951 H 0.1684 0.87649 0.82357 0.0
H952 H 0.20353 0.86716 0.90672 0.0
H953 H 0.11164 0.75994 0.87098 0.0
H954 H 0.14395 0.788 0.85577 0.0
H955 H 0.11174 0.79331 0.86094 0.0
C956 C 0.22833 0.87173 0.84461 0.0
C957 C 0.21216 0.87953 0.83003 0.0
C958 C 0.21409 0.85554 0.86318 0.0
C959 C 0.18344 0.8468 0.86749 0.0
C960 C 0.16729 0.85461 0.85298 0.0
H961 H 0.05858 0.77653 0.97257 0.0
H962 H 0.08681 0.79951 0.93973 0.0
C963 C 0.18142 0.87061 0.83436 0.0
C964 C 0.16878 0.83091 0.88764 0.0
H965 H 0.10558 0.76815 0.9078 0.0
C966 C 0.18232 0.84532 0.90697 0.0
C967 C 0.14115 0.80237 0.88793 0.0
C968 C 0.12643 0.78484 0.86779 0.0
C969 C 0.16838 0.83248 0.92655 0.0
C970 C 0.14031 0.80448 0.92676 0.0
C971 C 0.12707 0.78973 0.90751 0.0
C972 C 0.12369 0.79069 0.94679 0.0
C973 C 0.18316 0.84936 0.94688 0.0
C974 C 0.13511 0.778 0.96153 0.0
C975 C 0.11897 0.7647 0.98032 0.0
C976 C 0.0912 0.76398 0.98464 0.0
C977 C 0.07993 0.77678 0.96978 0.0
C978 C 0.09597 0.78987 0.95098 0.0
H979 H 0.2024 0.87292 0.94382 0.0
H980 H 0.16598 0.8508 0.95717 0.0
H981 H 0.19222 0.83657 0.95577 0.0
H982 H 0.15637 0.77819 0.95842 0.0
H983 H 0.12824 0.755 0.99142 0.0
H984 H 0.37448 0.1217 0.16065 0.0
H985 H 0.38256 0.15384 0.12937 0.0
H986 H 0.28477 0.11483 0.12289 0.0
H987 H 0.27649 0.08202 0.15365 0.0
H988 H 0.31096 0.11672 0.08549 0.0
H989 H 0.37566 0.22999 0.12513 0.0
H990 H 0.39273 0.20636 0.12827 0.0
H991 H 0.3558 0.19459 0.13986 0.0
C992 C 0.35472 0.12012 0.15262 0.0
C993 C 0.32484 0.09938 0.15964 0.0
C994 C 0.35939 0.13862 0.13482 0.0
C995 C 0.33429 0.13709 0.12399 0.0
C996 C 0.30448 0.11644 0.13103 0.0
H997 H 0.32758 0.26423 0.03615 0.0
H998 H 0.32734 0.23441 0.06682 0.0
C999 C 0.29978 0.09772 0.14864 0.0
C1000 C 0.33878 0.15627 0.10494 0.0
H1001 H 0.37173 0.23026 0.08757 0.0
C1002 C 0.32427 0.14156 0.08593 0.0
C1003 C 0.35592 0.18867 0.10562 0.0
C1004 C 0.37069 0.20589 0.12585 0.0
C1005 C 0.32609 0.15832 0.06763 0.0
C1006 C 0.34372 0.19071 0.06817 0.0
C1007 C 0.35849 0.20542 0.08713 0.0
C1008 C 0.34559 0.20978 0.04964 0.0
C1009 C 0.30816 0.14114 0.04817 0.0
C1010 C 0.35656 0.20634 0.02988 0.0
C1011 C 0.35635 0.2231 0.01221 0.0
C1012 C 0.3457 0.24401 0.01412 0.0
C1013 C 0.33591 0.24829 0.03414 0.0
C1014 C 0.33578 0.23128 0.0517 0.0
H1015 H 0.28972 0.11754 0.05216 0.0
H1016 H 0.29759 0.15333 0.04028 0.0
H1017 H 0.32384 0.13927 0.03664 0.0
H1018 H 0.365 0.19047 0.02806 0.0
H1019 H 0.36436 0.21954 0.99705 0.0
loop_
_geom_bond_atom_site_label_1
_geom_bond_atom_site_label_2
_geom_bond_distance
_geom_bond_site_symmetry_2
_ccdc_geom_bond_type
C0 O1 1.160 . S
C0 O7 1.185 . S
O1 C0 1.160 . S
O2 Zn3 1.899 . S
O2 C10 1.284 . S
Zn3 O2 1.899 . S
Zn3 O4 2.032 . S
Zn3 O7 2.086 . S
Zn3 O12 1.977 . S
O4 Zn3 2.032 . S
O4 C8 1.278 . S
C5 O6 1.203 . S
C5 O12 1.267 . S
O6 C5 1.203 . S
O7 C0 1.185 . S
O7 Zn3 2.086 . S
C8 O4 1.278 . S
C8 O9 1.211 . S
O9 C8 1.211 . S
C10 O2 1.284 . S
C10 O11 1.273 . S
O11 C10 1.273 . S
O12 Zn3 1.977 . S
O12 C5 1.267 . S
C13 O14 1.160 . S
C13 O20 1.185 . S
O14 C13 1.160 . S
O15 Zn16 1.899 . S
O15 C23 1.284 . S
Zn16 O15 1.899 . S
Zn16 O17 2.032 . S
Zn16 O20 2.086 . S
Zn16 O25 1.977 . S
O17 Zn16 2.032 . S
O17 C21 1.278 . S
C18 O19 1.203 . S
C18 O25 1.267 . S
O19 C18 1.203 . S
O20 C13 1.185 . S
O20 Zn16 2.086 . S
C21 O17 1.278 . S
C21 O22 1.211 . S
O22 C21 1.211 . S
C23 O15 1.284 . S
C23 O24 1.273 . S
O24 C23 1.273 . S
O25 Zn16 1.977 . S
O25 C18 1.267 . S
C26 O27 1.160 . S
C26 O33 1.185 . S
O27 C26 1.160 . S
O28 Zn29 1.899 . S
O28 C36 1.284 . S
Zn29 O28 1.899 . S
Zn29 O30 2.032 . S
Zn29 O33 2.086 . S
Zn29 O38 1.977 . S
O30 Zn29 2.032 . S
O30 C34 1.278 . S
C31 O32 1.203 . S
C31 O38 1.267 . S
O32 C31 1.203 . S
O33 C26 1.185 . S
O33 Zn29 2.086 . S
C34 O30 1.278 . S
C34 O35 1.211 . S
O35 C34 1.211 . S
C36 O28 1.284 . S
C36 O37 1.273 . S
O37 C36 1.273 . S
O38 Zn29 1.977 . S
O38 C31 1.267 . S
C39 O40 1.160 . S
C39 O46 1.185 . S
O40 C39 1.160 . S
O41 Zn42 1.899 . S
O41 C49 1.284 . S
Zn42 O41 1.899 . S
Zn42 O43 2.032 . S
Zn42 O46 2.086 . S
Zn42 O51 1.977 . S
O43 Zn42 2.032 . S
O43 C47 1.278 . S
C44 O45 1.203 . S
C44 O51 1.267 . S
O45 C44 1.203 . S
O46 C39 1.185 . S
O46 Zn42 2.086 . S
C47 O43 1.278 . S
C47 O48 1.211 . S
O48 C47 1.211 . S
C49 O41 1.284 . S
C49 O50 1.273 . S
O50 C49 1.273 . S
O51 Zn42 1.977 . S
O51 C44 1.267 . S
C52 O53 1.160 . S
C52 O59 1.185 . S
O53 C52 1.160 . S
O54 Zn55 1.899 . S
O54 C62 1.284 . S
Zn55 O54 1.899 . S
Zn55 O56 2.032 . S
Zn55 O59 2.086 . S
Zn55 O64 1.977 . S
O56 Zn55 2.032 . S
O56 C60 1.278 . S
C57 O58 1.203 . S
C57 O64 1.267 . S
O58 C57 1.203 . S
O59 C52 1.185 . S
O59 Zn55 2.086 . S
C60 O56 1.278 . S
C60 O61 1.211 . S
O61 C60 1.211 . S
C62 O54 1.284 . S
C62 O63 1.273 . S
O63 C62 1.273 . S
O64 Zn55 1.977 . S
O64 C57 1.267 . S
C65 O66 1.160 . S
C65 O72 1.185 . S
O66 C65 1.160 . S
O67 Zn68 1.899 . S
O67 C75 1.284 . S
Zn68 O67 1.899 . S
Zn68 O69 2.032 . S
Zn68 O72 2.086 . S
Zn68 O77 1.977 . S
O69 Zn68 2.032 . S
O69 C73 1.278 . S
C70 O71 1.203 . S
C70 O77 1.267 . S
O71 C70 1.203 . S
O72 C65 1.185 . S
O72 Zn68 2.086 . S
C73 O69 1.278 . S
C73 O74 1.211 . S
O74 C73 1.211 . S
C75 O67 1.284 . S
C75 O76 1.273 . S
O76 C75 1.273 . S
O77 Zn68 1.977 . S
O77 C70 1.267 . S
C78 O79 1.160 . S
C78 O85 1.185 . S
O79 C78 1.160 . S
O80 Zn81 1.899 . S
O80 C88 1.284 . S
Zn81 O80 1.899 . S
Zn81 O82 2.032 . S
Zn81 O85 2.086 . S
Zn81 O90 1.977 . S
O82 Zn81 2.032 . S
O82 C86 1.278 . S
C83 O84 1.203 . S
C83 O90 1.267 . S
O84 C83 1.203 . S
O85 C78 1.185 . S
O85 Zn81 2.086 . S
C86 O82 1.278 . S
C86 O87 1.211 . S
O87 C86 1.211 . S
C88 O80 1.284 . S
C88 O89 1.273 . S
O89 C88 1.273 . S
O90 Zn81 1.977 . S
O90 C83 1.267 . S
C91 O92 1.160 . S
C91 O98 1.185 . S
O92 C91 1.160 . S
O93 Zn94 1.899 . S
O93 C101 1.284 . S
Zn94 O93 1.899 . S
Zn94 O95 2.032 . S
Zn94 O98 2.086 . S
Zn94 O103 1.977 . S
O95 Zn94 2.032 . S
O95 C99 1.278 . S
C96 O97 1.203 . S
C96 O103 1.267 . S
O97 C96 1.203 . S
O98 C91 1.185 . S
O98 Zn94 2.086 . S
C99 O95 1.278 . S
C99 O100 1.211 . S
O100 C99 1.211 . S
C101 O93 1.284 . S
C101 O102 1.273 . S
O102 C101 1.273 . S
O103 Zn94 1.977 . S
O103 C96 1.267 . S
C104 O105 1.160 . S
C104 O111 1.185 . S
O105 C104 1.160 . S
O106 Zn107 1.899 . S
O106 C114 1.284 . S
Zn107 O106 1.899 . S
Zn107 O108 2.032 . S
Zn107 O111 2.086 . S
Zn107 O116 1.977 . S
O108 Zn107 2.032 . S
O108 C112 1.278 . S
C109 O110 1.203 . S
C109 O116 1.267 . S
O110 C109 1.203 . S
O111 C104 1.185 . S
O111 Zn107 2.086 . S
C112 O108 1.278 . S
C112 O113 1.211 . S
O113 C112 1.211 . S
C114 O106 1.284 . S
C114 O115 1.273 . S
O115 C114 1.273 . S
O116 Zn107 1.977 . S
O116 C109 1.267 . S
C117 O118 1.160 . S
C117 O124 1.185 . S
O118 C117 1.160 . S
O119 Zn120 1.899 . S
O119 C127 1.284 . S
Zn120 O119 1.899 . S
Zn120 O121 2.032 . S
Zn120 O124 2.086 . S
Zn120 O129 1.977 . S
O121 Zn120 2.032 . S
O121 C125 1.278 . S
C122 O123 1.203 . S
C122 O129 1.267 . S
O123 C122 1.203 . S
O124 C117 1.185 . S
O124 Zn120 2.086 . S
C125 O121 1.278 . S
C125 O126 1.211 . S
O126 C125 1.211 . S
C127 O119 1.284 . S
C127 O128 1.273 . S
O128 C127 1.273 . S
O129 Zn120 1.977 . S
O129 C122 1.267 . S
C130 O131 1.160 . S
C130 O137 1.185 . S
O131 C130 1.160 . S
O132 Zn133 1.899 . S
O132 C140 1.284 . S
Zn133 O132 1.899 . S
Zn133 O134 2.032 . S
Zn133 O137 2.086 . S
Zn133 O142 1.977 . S
O134 Zn133 2.032 . S
O134 C138 1.278 . S
C135 O136 1.203 . S
C135 O142 1.267 . S
O136 C135 1.203 . S
O137 C130 1.185 . S
O137 Zn133 2.086 . S
C138 O134 1.278 . S
C138 O139 1.211 . S
O139 C138 1.211 . S
C140 O132 1.284 . S
C140 O141 1.273 . S
O141 C140 1.273 . S
O142 Zn133 1.977 . S
O142 C135 1.267 . S
C143 O144 1.160 . S
C143 O150 1.185 . S
O144 C143 1.160 . S
O145 Zn146 1.899 . S
O145 C153 1.284 . S
Zn146 O145 1.899 . S
Zn146 O147 2.032 . S
Zn146 O150 2.086 . S
Zn146 O155 1.977 . S
O147 Zn146 2.032 . S
O147 C151 1.278 . S
C148 O149 1.203 . S
C148 O155 1.267 . S
O149 C148 1.203 . S
O150 C143 1.185 . S
O150 Zn146 2.086 . S
C151 O147 1.278 . S
C151 O152 1.211 . S
O152 C151 1.211 . S
C153 O145 1.284 . S
C153 O154 1.273 . S
O154 C153 1.273 . S
O155 Zn146 1.977 . S
O155 C148 1.267 . S
H156 C164 0.929 . S
H157 C166 0.930 . S
H158 C168 0.930 . S
H159 C171 0.929 . S
H160 C174 0.930 . S
H161 C176 0.960 . S
H162 C176 0.960 . S
H163 C176 0.960 . S
C164 H156 0.929 . S
C164 C165 1.377 . S
C164 C166 1.384 . S
C165 C164 1.377 . S
C165 C171 1.390 . S
C166 H157 0.930 . S
C166 C164 1.384 . S
C166 C167 1.372 . S
C167 C166 1.372 . S
C167 C168 1.400 . S
C167 C172 1.490 . S
C168 H158 0.930 . S
C168 C167 1.400 . S
C168 C171 1.386 . S
H169 C185 0.930 . S
H170 C186 0.931 . S
C171 H159 0.929 . S
C171 C165 1.390 . S
C171 C168 1.386 . S
C172 C167 1.490 . S
C172 C174 1.395 . S
C172 C175 1.403 . S
H173 C179 0.930 . S
C174 H160 0.930 . S
C174 C172 1.395 . S
C174 C177 1.403 . S
C175 C172 1.403 . S
C175 C176 1.524 . S
C175 C179 1.400 . S
C176 H161 0.960 . S
C176 H162 0.960 . S
C176 H163 0.960 . S
C176 C175 1.524 . S
C177 C174 1.403 . S
C177 C178 1.392 . S
C177 C181 1.495 . S
C178 C177 1.392 . S
C178 C179 1.385 . S
C178 C180 1.478 . S
C179 H173 0.930 . S
C179 C175 1.400 . S
C179 C178 1.385 . S
C180 C178 1.478 . S
C180 C182 1.381 . S
C180 C186 1.383 . S
C181 C177 1.495 . S
C181 H187 0.959 . S
C181 H188 0.961 . S
C181 H189 0.960 . S
C182 C180 1.381 . S
C182 C183 1.394 . S
C182 H190 0.930 . S
C183 C182 1.394 . S
C183 C184 1.383 . S
C183 H191 0.929 . S
C184 C183 1.383 . S
C184 C185 1.377 . S
C185 H169 0.930 . S
C185 C184 1.377 . S
C185 C186 1.379 . S
C186 H170 0.931 . S
C186 C180 1.383 . S
C186 C185 1.379 . S
H187 C181 0.959 . S
H188 C181 0.961 . S
H189 C181 0.960 . S
H190 C182 0.930 . S
H191 C183 0.929 . S
H192 C200 0.929 . S
H193 C202 0.930 . S
H194 C204 0.930 . S
H195 C207 0.929 . S
H196 C210 0.930 . S
H197 C212 0.960 . S
H198 C212 0.960 . S
H199 C212 0.960 . S
C200 H192 0.929 . S
C200 C201 1.377 . S
C200 C202 1.384 . S
C201 C200 1.377 . S
C201 C207 1.390 . S
C202 H193 0.930 . S
C202 C200 1.384 . S
C202 C203 1.372 . S
C203 C202 1.372 . S
C203 C204 1.400 . S
C203 C208 1.490 . S
C204 H194 0.930 . S
C204 C203 1.400 . S
C204 C207 1.386 . S
H205 C221 0.930 . S
H206 C222 0.931 . S
C207 H195 0.929 . S
C207 C201 1.390 . S
C207 C204 1.386 . S
C208 C203 1.490 . S
C208 C210 1.395 . S
C208 C211 1.403 . S
H209 C215 0.930 . S
C210 H196 0.930 . S
C210 C208 1.395 . S
C210 C213 1.403 . S
C211 C208 1.403 . S
C211 C212 1.524 . S
C211 C215 1.400 . S
C212 H197 0.960 . S
C212 H198 0.960 . S
C212 H199 0.960 . S
C212 C211 1.524 . S
C213 C210 1.403 . S
C213 C214 1.392 . S
C213 C217 1.495 . S
C214 C213 1.392 . S
C214 C215 1.385 . S
C214 C216 1.478 . S
C215 H209 0.930 . S
C215 C211 1.400 . S
C215 C214 1.385 . S
C216 C214 1.478 . S
C216 C218 1.381 . S
C216 C222 1.383 . S
C217 C213 1.495 . S
C217 H223 0.959 . S
C217 H224 0.961 . S
C217 H225 0.960 . S
C218 C216 1.381 . S
C218 C219 1.394 . S
C218 H226 0.930 . S
C219 C218 1.394 . S
C219 C220 1.383 . S
C219 H227 0.929 . S
C220 C219 1.383 . S
C220 C221 1.377 . S
C221 H205 0.930 . S
C221 C220 1.377 . S
C221 C222 1.379 . S
C222 H206 0.931 . S
C222 C216 1.383 . S
C222 C221 1.379 . S
H223 C217 0.959 . S
H224 C217 0.961 . S
H225 C217 0.960 . S
H226 C218 0.930 . S
H227 C219 0.929 . S
H228 C236 0.929 . S
H229 C238 0.930 . S
H230 C240 0.930 . S
H231 C243 0.929 . S
H232 C246 0.930 . S
H233 C248 0.960 . S
H234 C248 0.960 . S
H235 C248 0.960 . S
C236 H228 0.929 . S
C236 C237 1.377 . S
C236 C238 1.384 . S
C237 C236 1.377 . S
C237 C243 1.390 . S
C238 H229 0.930 . S
C238 C236 1.384 . S
C238 C239 1.372 . S
C239 C238 1.372 . S
C239 C240 1.400 . S
C239 C244 1.490 . S
C240 H230 0.930 . S
C240 C239 1.400 . S
C240 C243 1.386 . S
H241 C257 0.930 . S
H242 C258 0.931 . S
C243 H231 0.929 . S
C243 C237 1.390 . S
C243 C240 1.386 . S
C244 C239 1.490 . S
C244 C246 1.395 . S
C244 C247 1.403 . S
H245 C251 0.930 . S
C246 H232 0.930 . S
C246 C244 1.395 . S
C246 C249 1.403 . S
C247 C244 1.403 . S
C247 C248 1.524 . S
C247 C251 1.400 . S
C248 H233 0.960 . S
C248 H234 0.960 . S
C248 H235 0.960 . S
C248 C247 1.524 . S
C249 C246 1.403 . S
C249 C250 1.392 . S
C249 C253 1.495 . S
C250 C249 1.392 . S
C250 C251 1.385 . S
C250 C252 1.478 . S
C251 H245 0.930 . S
C251 C247 1.400 . S
C251 C250 1.385 . S
C252 C250 1.478 . S
C252 C254 1.381 . S
C252 C258 1.383 . S
C253 C249 1.495 . S
C253 H259 0.959 . S
C253 H260 0.961 . S
C253 H261 0.960 . S
C254 C252 1.381 . S
C254 C255 1.394 . S
C254 H262 0.930 . S
C255 C254 1.394 . S
C255 C256 1.383 . S
C255 H263 0.929 . S
C256 C255 1.383 . S
C256 C257 1.377 . S
C257 H241 0.930 . S
C257 C256 1.377 . S
C257 C258 1.379 . S
C258 H242 0.931 . S
C258 C252 1.383 . S
C258 C257 1.379 . S
H259 C253 0.959 . S
H260 C253 0.961 . S
H261 C253 0.960 . S
H262 C254 0.930 . S
H263 C255 0.929 . S
H264 C272 0.929 . S
H265 C274 0.930 . S
H266 C276 0.930 . S
H267 C279 0.929 . S
H268 C282 0.930 . S
H269 C284 0.960 . S
H270 C284 0.960 . S
H271 C284 0.960 . S
C272 H264 0.929 . S
C272 C273 1.377 . S
C272 C274 1.384 . S
C273 C272 1.377 . S
C273 C279 1.390 . S
C274 H265 0.930 . S
C274 C272 1.384 . S
C274 C275 1.372 . S
C275 C274 1.372 . S
C275 C276 1.400 . S
C275 C280 1.490 . S
C276 H266 0.930 . S
C276 C275 1.400 . S
C276 C279 1.386 . S
H277 C293 0.930 . S
H278 C294 0.931 . S
C279 H267 0.929 . S
C279 C273 1.390 . S
C279 C276 1.386 . S
C280 C275 1.490 . S
C280 C282 1.395 . S
C280 C283 1.403 . S
H281 C287 0.930 . S
C282 H268 0.930 . S
C282 C280 1.395 . S
C282 C285 1.403 . S
C283 C280 1.403 . S
C283 C284 1.524 . S
C283 C287 1.400 . S
C284 H269 0.960 . S
C284 H270 0.960 . S
C284 H271 0.960 . S
C284 C283 1.524 . S
C285 C282 1.403 . S
C285 C286 1.392 . S
C285 C289 1.495 1_655 S
C286 C285 1.392 . S
C286 C287 1.385 . S
C286 C288 1.478 . S
C287 H281 0.930 . S
C287 C283 1.400 . S
C287 C286 1.385 . S
C288 C286 1.478 . S
C288 C290 1.381 . S
C288 C294 1.383 . S
C289 C285 1.495 1_455 S
C289 H295 0.959 . S
C289 H296 0.961 . S
C289 H297 0.960 . S
C290 C288 1.381 . S
C290 C291 1.394 . S
C290 H298 0.930 . S
C291 C290 1.394 . S
C291 C292 1.383 . S
C291 H299 0.929 . S
C292 C291 1.383 . S
C292 C293 1.377 . S
C293 H277 0.930 . S
C293 C292 1.377 . S
C293 C294 1.379 . S
C294 H278 0.931 . S
C294 C288 1.383 . S
C294 C293 1.379 . S
H295 C289 0.959 . S
H296 C289 0.961 . S
H297 C289 0.960 . S
H298 C290 0.930 . S
H299 C291 0.929 . S
H300 C308 0.929 . S
H301 C310 0.930 . S
H302 C312 0.930 . S
H303 C315 0.929 . S
H304 C318 0.930 . S
H305 C320 0.960 . S
H306 C320 0.960 . S
H307 C320 0.960 . S
C308 H300 0.929 . S
C308 C309 1.377 . S
C308 C310 1.384 . S
C309 C308 1.377 . S
C309 C315 1.390 . S
C310 H301 0.930 . S
C310 C308 1.384 . S
C310 C311 1.372 . S
C311 C310 1.372 . S
C311 C312 1.400 . S
C311 C316 1.490 . S
C312 H302 0.930 . S
C312 C311 1.400 . S
C312 C315 1.386 . S
H313 C329 0.930 . S
H314 C330 0.931 . S
C315 H303 0.929 . S
C315 C309 1.390 . S
C315 C312 1.386 . S
C316 C311 1.490 . S
C316 C318 1.395 . S
C316 C319 1.403 . S
H317 C323 0.930 . S
C318 H304 0.930 . S
C318 C316 1.395 . S
C318 C321 1.403 . S
C319 C316 1.403 . S
C319 C320 1.524 . S
C319 C323 1.400 . S
C320 H305 0.960 . S
C320 H306 0.960 . S
C320 H307 0.960 . S
C320 C319 1.524 . S
C321 C318 1.403 . S
C321 C322 1.392 . S
C321 C325 1.495 . S
C322 C321 1.392 . S
C322 C323 1.385 . S
C322 C324 1.478 . S
C323 H317 0.930 . S
C323 C319 1.400 . S
C323 C322 1.385 . S
C324 C322 1.478 . S
C324 C326 1.381 . S
C324 C330 1.383 . S
C325 C321 1.495 . S
C325 H331 0.959 . S
C325 H332 0.961 . S
C325 H333 0.960 . S
C326 C324 1.381 . S
C326 C327 1.394 . S
C326 H334 0.930 . S
C327 C326 1.394 . S
C327 C328 1.383 . S
C327 H335 0.929 . S
C328 C327 1.383 . S
C328 C329 1.377 . S
C329 H313 0.930 . S
C329 C328 1.377 . S
C329 C330 1.379 . S
C330 H314 0.931 . S
C330 C324 1.383 . S
C330 C329 1.379 . S
H331 C325 0.959 . S
H332 C325 0.961 . S
H333 C325 0.960 . S
H334 C326 0.930 . S
H335 C327 0.929 . S
H336 C344 0.929 . S
H337 C346 0.930 . S
H338 C348 0.930 . S
H339 C351 0.929 . S
H340 C354 0.930 . S
H341 C356 0.960 . S
H342 C356 0.960 . S
H343 C356 0.960 . S
C344 H336 0.929 . S
C344 C345 1.377 . S
C344 C346 1.384 . S
C345 C344 1.377 . S
C345 C351 1.390 . S
C346 H337 0.930 . S
C346 C344 1.384 . S
C346 C347 1.372 . S
C347 C346 1.372 . S
C347 C348 1.400 . S
C347 C352 1.490 . S
C348 H338 0.930 . S
C348 C347 1.400 . S
C348 C351 1.386 . S
H349 C365 0.930 . S
H350 C366 0.931 . S
C351 H339 0.929 . S
C351 C345 1.390 . S
C351 C348 1.386 . S
C352 C347 1.490 . S
C352 C354 1.395 . S
C352 C355 1.403 . S
H353 C359 0.930 . S
C354 H340 0.930 . S
C354 C352 1.395 . S
C354 C357 1.403 . S
C355 C352 1.403 . S
C355 C356 1.524 . S
C355 C359 1.400 . S
C356 H341 0.960 . S
C356 H342 0.960 . S
C356 H343 0.960 . S
C356 C355 1.524 . S
C357 C354 1.403 . S
C357 C358 1.392 . S
C357 C361 1.495 . S
C358 C357 1.392 . S
C358 C359 1.385 . S
C358 C360 1.478 . S
C359 H353 0.930 . S
C359 C355 1.400 . S
C359 C358 1.385 . S
C360 C358 1.478 . S
C360 C362 1.381 . S
C360 C366 1.383 . S
C361 C357 1.495 . S
C361 H367 0.959 . S
C361 H368 0.961 . S
C361 H369 0.960 . S
C362 C360 1.381 . S
C362 C363 1.394 . S
C362 H370 0.930 . S
C363 C362 1.394 . S
C363 C364 1.383 . S
C363 H371 0.929 . S
C364 C363 1.383 . S
C364 C365 1.377 . S
C365 H349 0.930 . S
C365 C364 1.377 . S
C365 C366 1.379 . S
C366 H350 0.931 . S
C366 C360 1.383 . S
C366 C365 1.379 . S
H367 C361 0.959 . S
H368 C361 0.961 . S
H369 C361 0.960 . S
H370 C362 0.930 . S
H371 C363 0.929 . S
H372 C380 0.929 . S
H373 C382 0.930 . S
H374 C384 0.930 . S
H375 C387 0.929 . S
H376 C390 0.930 . S
H377 C392 0.960 1_556 S
H378 C392 0.960 . S
H379 C392 0.960 . S
C380 H372 0.929 . S
C380 C381 1.377 . S
C380 C382 1.384 . S
C381 C380 1.377 . S
C381 C387 1.390 . S
C382 H373 0.930 . S
C382 C380 1.384 . S
C382 C383 1.372 . S
C383 C382 1.372 . S
C383 C384 1.400 . S
C383 C388 1.490 . S
C384 H374 0.930 . S
C384 C383 1.400 . S
C384 C387 1.386 . S
H385 C401 0.930 . S
H386 C402 0.931 . S
C387 H375 0.929 . S
C387 C381 1.390 . S
C387 C384 1.386 . S
C388 C383 1.490 . S
C388 C390 1.395 . S
C388 C391 1.403 . S
H389 C395 0.930 1_556 S
C390 H376 0.930 . S
C390 C388 1.395 . S
C390 C393 1.403 . S
C391 C388 1.403 . S
C391 C392 1.524 . S
C391 C395 1.400 . S
C392 H377 0.960 1_554 S
C392 H378 0.960 . S
C392 H379 0.960 . S
C392 C391 1.524 . S
C393 C390 1.403 . S
C393 C394 1.392 . S
C393 C397 1.495 . S
C394 C393 1.392 . S
C394 C395 1.385 . S
C394 C396 1.478 . S
C395 H389 0.930 1_554 S
C395 C391 1.400 . S
C395 C394 1.385 . S
C396 C394 1.478 . S
C396 C398 1.381 . S
C396 C402 1.383 1_554 S
C397 C393 1.495 . S
C397 H403 0.959 . S
C397 H404 0.961 . S
C397 H405 0.960 . S
C398 C396 1.381 . S
C398 C399 1.394 1_554 S
C398 H406 0.930 . S
C399 C398 1.394 1_556 S
C399 C400 1.383 . S
C399 H407 0.929 . S
C400 C399 1.383 . S
C400 C401 1.377 . S
C401 H385 0.930 . S
C401 C400 1.377 . S
C401 C402 1.379 . S
C402 H386 0.931 . S
C402 C396 1.383 1_556 S
C402 C401 1.379 . S
H403 C397 0.959 . S
H404 C397 0.961 . S
H405 C397 0.960 . S
H406 C398 0.930 . S
H407 C399 0.929 . S
H408 C416 0.929 . S
H409 C418 0.930 . S
H410 C420 0.930 . S
H411 C423 0.929 . S
H412 C426 0.930 . S
H413 C428 0.960 . S
H414 C428 0.960 . S
H415 C428 0.960 . S
C416 H408 0.929 . S
C416 C417 1.377 . S
C416 C418 1.384 . S
C417 C416 1.377 . S
C417 C423 1.390 . S
C418 H409 0.930 . S
C418 C416 1.384 . S
C418 C419 1.372 . S
C419 C418 1.372 . S
C419 C420 1.400 . S
C419 C424 1.490 . S
C420 H410 0.930 . S
C420 C419 1.400 . S
C420 C423 1.386 . S
H421 C437 0.930 1_455 S
H422 C438 0.931 . S
C423 H411 0.929 . S
C423 C417 1.390 . S
C423 C420 1.386 . S
C424 C419 1.490 . S
C424 C426 1.395 . S
C424 C427 1.403 . S
H425 C431 0.930 . S
C426 H412 0.930 . S
C426 C424 1.395 . S
C426 C429 1.403 . S
C427 C424 1.403 . S
C427 C428 1.524 . S
C427 C431 1.400 . S
C428 H413 0.960 . S
C428 H414 0.960 . S
C428 H415 0.960 . S
C428 C427 1.524 . S
C429 C426 1.403 . S
C429 C430 1.392 . S
C429 C433 1.495 . S
C430 C429 1.392 . S
C430 C431 1.385 . S
C430 C432 1.478 . S
C431 H425 0.930 . S
C431 C427 1.400 . S
C431 C430 1.385 . S
C432 C430 1.478 . S
C432 C434 1.381 . S
C432 C438 1.383 . S
C433 C429 1.495 . S
C433 H439 0.959 . S
C433 H440 0.961 . S
C433 H441 0.960 . S
C434 C432 1.381 . S
C434 C435 1.394 . S
C434 H442 0.930 . S
C435 C434 1.394 . S
C435 C436 1.383 . S
C435 H443 0.929 . S
C436 C435 1.383 . S
C436 C437 1.377 . S
C437 H421 0.930 1_655 S
C437 C436 1.377 . S
C437 C438 1.379 . S
C438 H422 0.931 . S
C438 C432 1.383 . S
C438 C437 1.379 . S
H439 C433 0.959 . S
H440 C433 0.961 . S
H441 C433 0.960 . S
H442 C434 0.930 . S
H443 C435 0.929 . S
H444 C452 0.929 . S
H445 C454 0.930 . S
H446 C456 0.930 . S
H447 C459 0.929 . S
H448 C462 0.930 . S
H449 C464 0.960 . S
H450 C464 0.960 . S
H451 C464 0.960 . S
C452 H444 0.929 . S
C452 C453 1.377 . S
C452 C454 1.384 . S
C453 C452 1.377 . S
C453 C459 1.390 . S
C454 H445 0.930 . S
C454 C452 1.384 . S
C454 C455 1.372 . S
C455 C454 1.372 . S
C455 C456 1.400 . S
C455 C460 1.490 . S
C456 H446 0.930 . S
C456 C455 1.400 . S
C456 C459 1.386 . S
H457 C473 0.930 . S
H458 C474 0.931 . S
C459 H447 0.929 . S
C459 C453 1.390 . S
C459 C456 1.386 . S
C460 C455 1.490 . S
C460 C462 1.395 . S
C460 C463 1.403 . S
H461 C467 0.930 . S
C462 H448 0.930 . S
C462 C460 1.395 . S
C462 C465 1.403 . S
C463 C460 1.403 . S
C463 C464 1.524 . S
C463 C467 1.400 . S
C464 H449 0.960 . S
C464 H450 0.960 . S
C464 H451 0.960 . S
C464 C463 1.524 . S
C465 C462 1.403 . S
C465 C466 1.392 . S
C465 C469 1.495 . S
C466 C465 1.392 . S
C466 C467 1.385 . S
C466 C468 1.478 . S
C467 H461 0.930 . S
C467 C463 1.400 . S
C467 C466 1.385 . S
C468 C466 1.478 . S
C468 C470 1.381 . S
C468 C474 1.383 . S
C469 C465 1.495 . S
C469 H475 0.959 . S
C469 H476 0.961 . S
C469 H477 0.960 . S
C470 C468 1.381 . S
C470 C471 1.394 . S
C470 H478 0.930 . S
C471 C470 1.394 . S
C471 C472 1.383 . S
C471 H479 0.929 1_565 S
C472 C471 1.383 . S
C472 C473 1.377 . S
C473 H457 0.930 . S
C473 C472 1.377 . S
C473 C474 1.379 . S
C474 H458 0.931 . S
C474 C468 1.383 . S
C474 C473 1.379 . S
H475 C469 0.959 . S
H476 C469 0.961 . S
H477 C469 0.960 . S
H478 C470 0.930 . S
H479 C471 0.929 1_545 S
H480 C488 0.929 . S
H481 C490 0.930 . S
H482 C492 0.930 . S
H483 C495 0.929 . S
H484 C498 0.930 . S
H485 C500 0.960 . S
H486 C500 0.960 . S
H487 C500 0.960 . S
C488 H480 0.929 . S
C488 C489 1.377 . S
C488 C490 1.384 . S
C489 C488 1.377 . S
C489 C495 1.390 . S
C490 H481 0.930 . S
C490 C488 1.384 . S
C490 C491 1.372 . S
C491 C490 1.372 . S
C491 C492 1.400 . S
C491 C496 1.490 . S
C492 H482 0.930 . S
C492 C491 1.400 . S
C492 C495 1.386 . S
H493 C509 0.930 . S
H494 C510 0.931 . S
C495 H483 0.929 . S
C495 C489 1.390 . S
C495 C492 1.386 . S
C496 C491 1.490 . S
C496 C498 1.395 . S
C496 C499 1.403 . S
H497 C503 0.930 . S
C498 H484 0.930 . S
C498 C496 1.395 . S
C498 C501 1.403 . S
C499 C496 1.403 . S
C499 C500 1.524 . S
C499 C503 1.400 . S
C500 H485 0.960 . S
C500 H486 0.960 . S
C500 H487 0.960 . S
C500 C499 1.524 . S
C501 C498 1.403 . S
C501 C502 1.392 . S
C501 C505 1.495 . S
C502 C501 1.392 . S
C502 C503 1.385 . S
C502 C504 1.478 . S
C503 H497 0.930 . S
C503 C499 1.400 . S
C503 C502 1.385 . S
C504 C502 1.478 . S
C504 C506 1.381 . S
C504 C510 1.383 . S
C505 C501 1.495 . S
C505 H511 0.959 . S
C505 H512 0.961 . S
C505 H513 0.960 . S
C506 C504 1.381 . S
C506 C507 1.394 . S
C506 H514 0.930 . S
C507 C506 1.394 . S
C507 C508 1.383 . S
C507 H515 0.929 . S
C508 C507 1.383 . S
C508 C509 1.377 . S
C509 H493 0.930 . S
C509 C508 1.377 . S
C509 C510 1.379 . S
C510 H494 0.931 . S
C510 C504 1.383 . S
C510 C509 1.379 . S
H511 C505 0.959 . S
H512 C505 0.961 . S
H513 C505 0.960 . S
H514 C506 0.930 . S
H515 C507 0.929 . S
H516 C524 0.929 . S
H517 C526 0.930 . S
H518 C528 0.930 . S
H519 C531 0.929 . S
H520 C534 0.930 . S
H521 C536 0.960 . S
H522 C536 0.960 . S
H523 C536 0.960 . S
C524 H516 0.929 . S
C524 C525 1.377 . S
C524 C526 1.384 . S
C525 C524 1.377 . S
C525 C531 1.390 . S
C526 H517 0.930 . S
C526 C524 1.384 . S
C526 C527 1.372 . S
C527 C526 1.372 . S
C527 C528 1.400 . S
C527 C532 1.490 . S
C528 H518 0.930 . S
C528 C527 1.400 . S
C528 C531 1.386 . S
H529 C545 0.930 . S
H530 C546 0.931 . S
C531 H519 0.929 . S
C531 C525 1.390 . S
C531 C528 1.386 . S
C532 C527 1.490 . S
C532 C534 1.395 . S
C532 C535 1.403 . S
H533 C539 0.930 . S
C534 H520 0.930 . S
C534 C532 1.395 . S
C534 C537 1.403 . S
C535 C532 1.403 . S
C535 C536 1.524 . S
C535 C539 1.400 . S
C536 H521 0.960 . S
C536 H522 0.960 . S
C536 H523 0.960 . S
C536 C535 1.524 . S
C537 C534 1.403 . S
C537 C538 1.392 . S
C537 C541 1.495 . S
C538 C537 1.392 . S
C538 C539 1.385 . S
C538 C540 1.478 . S
C539 H533 0.930 . S
C539 C535 1.400 . S
C539 C538 1.385 . S
C540 C538 1.478 . S
C540 C542 1.381 . S
C540 C546 1.383 . S
C541 C537 1.495 . S
C541 H547 0.959 . S
C541 H548 0.961 . S
C541 H549 0.960 . S
C542 C540 1.381 . S
C542 C543 1.394 . S
C542 H550 0.930 . S
C543 C542 1.394 . S
C543 C544 1.383 . S
C543 H551 0.929 . S
C544 C543 1.383 . S
C544 C545 1.377 . S
C545 H529 0.930 . S
C545 C544 1.377 . S
C545 C546 1.379 . S
C546 H530 0.931 . S
C546 C540 1.383 . S
C546 C545 1.379 . S
H547 C541 0.959 . S
H548 C541 0.961 . S
H549 C541 0.960 . S
H550 C542 0.930 . S
H551 C543 0.929 . S
H552 C560 0.929 . S
H553 C562 0.930 . S
H554 C564 0.930 . S
H555 C567 0.929 . S
H556 C570 0.930 . S
H557 C572 0.960 . S
H558 C572 0.960 . S
H559 C572 0.960 . S
C560 H552 0.929 . S
C560 C561 1.377 . S
C560 C562 1.384 . S
C561 C560 1.377 . S
C561 C567 1.390 . S
C562 H553 0.930 . S
C562 C560 1.384 . S
C562 C563 1.372 . S
C563 C562 1.372 . S
C563 C564 1.400 . S
C563 C568 1.490 . S
C564 H554 0.930 . S
C564 C563 1.400 . S
C564 C567 1.386 . S
H565 C581 0.930 . S
H566 C582 0.931 . S
C567 H555 0.929 . S
C567 C561 1.390 . S
C567 C564 1.386 . S
C568 C563 1.490 . S
C568 C570 1.395 . S
C568 C571 1.403 . S
H569 C575 0.930 . S
C570 H556 0.930 . S
C570 C568 1.395 . S
C570 C573 1.403 . S
C571 C568 1.403 . S
C571 C572 1.524 . S
C571 C575 1.400 . S
C572 H557 0.960 . S
C572 H558 0.960 . S
C572 H559 0.960 . S
C572 C571 1.524 . S
C573 C570 1.403 . S
C573 C574 1.392 . S
C573 C577 1.495 . S
C574 C573 1.392 . S
C574 C575 1.385 . S
C574 C576 1.478 . S
C575 H569 0.930 . S
C575 C571 1.400 . S
C575 C574 1.385 . S
C576 C574 1.478 . S
C576 C578 1.381 . S
C576 C582 1.383 . S
C577 C573 1.495 . S
C577 H583 0.959 . S
C577 H584 0.961 . S
C577 H585 0.960 . S
C578 C576 1.381 . S
C578 C579 1.394 . S
C578 H586 0.930 . S
C579 C578 1.394 . S
C579 C580 1.383 . S
C579 H587 0.929 . S
C580 C579 1.383 . S
C580 C581 1.377 . S
C581 H565 0.930 . S
C581 C580 1.377 . S
C581 C582 1.379 . S
C582 H566 0.931 . S
C582 C576 1.383 . S
C582 C581 1.379 . S
H583 C577 0.959 . S
H584 C577 0.961 . S
H585 C577 0.960 . S
H586 C578 0.930 . S
H587 C579 0.929 . S
H588 C596 0.929 . S
H589 C598 0.930 . S
H590 C600 0.930 . S
H591 C603 0.929 . S
H592 C606 0.930 . S
H593 C608 0.960 . S
H594 C608 0.960 . S
H595 C608 0.960 . S
C596 H588 0.929 . S
C596 C597 1.377 . S
C596 C598 1.384 . S
C597 C596 1.377 . S
C597 C603 1.390 . S
C598 H589 0.930 . S
C598 C596 1.384 . S
C598 C599 1.372 . S
C599 C598 1.372 . S
C599 C600 1.400 . S
C599 C604 1.490 . S
C600 H590 0.930 . S
C600 C599 1.400 . S
C600 C603 1.386 . S
H601 C617 0.930 . S
H602 C618 0.931 . S
C603 H591 0.929 . S
C603 C597 1.390 . S
C603 C600 1.386 . S
C604 C599 1.490 . S
C604 C606 1.395 . S
C604 C607 1.403 . S
H605 C611 0.930 . S
C606 H592 0.930 . S
C606 C604 1.395 . S
C606 C609 1.403 . S
C607 C604 1.403 . S
C607 C608 1.524 . S
C607 C611 1.400 . S
C608 H593 0.960 . S
C608 H594 0.960 . S
C608 H595 0.960 . S
C608 C607 1.524 . S
C609 C606 1.403 . S
C609 C610 1.392 . S
C609 C613 1.495 . S
C610 C609 1.392 . S
C610 C611 1.385 . S
C610 C612 1.478 . S
C611 H605 0.930 . S
C611 C607 1.400 . S
C611 C610 1.385 . S
C612 C610 1.478 . S
C612 C614 1.381 . S
C612 C618 1.383 . S
C613 C609 1.495 . S
C613 H619 0.959 . S
C613 H620 0.961 . S
C613 H621 0.960 . S
C614 C612 1.381 . S
C614 C615 1.394 . S
C614 H622 0.930 . S
C615 C614 1.394 . S
C615 C616 1.383 . S
C615 H623 0.929 . S
C616 C615 1.383 . S
C616 C617 1.377 . S
C617 H601 0.930 . S
C617 C616 1.377 . S
C617 C618 1.379 . S
C618 H602 0.931 . S
C618 C612 1.383 . S
C618 C617 1.379 . S
H619 C613 0.959 . S
H620 C613 0.961 . S
H621 C613 0.960 . S
H622 C614 0.930 . S
H623 C615 0.929 . S
H624 C632 0.929 . S
H625 C634 0.930 . S
H626 C636 0.930 . S
H627 C639 0.929 . S
H628 C642 0.930 . S
H629 C644 0.960 . S
H630 C644 0.960 . S
H631 C644 0.960 . S
C632 H624 0.929 . S
C632 C633 1.377 . S
C632 C634 1.384 . S
C633 C632 1.377 . S
C633 C639 1.390 . S
C634 H625 0.930 . S
C634 C632 1.384 . S
C634 C635 1.372 . S
C635 C634 1.372 . S
C635 C636 1.400 . S
C635 C640 1.490 . S
C636 H626 0.930 . S
C636 C635 1.400 . S
C636 C639 1.386 . S
H637 C653 0.930 . S
H638 C654 0.931 . S
C639 H627 0.929 . S
C639 C633 1.390 . S
C639 C636 1.386 . S
C640 C635 1.490 . S
C640 C642 1.395 . S
C640 C643 1.403 . S
H641 C647 0.930 . S
C642 H628 0.930 . S
C642 C640 1.395 . S
C642 C645 1.403 . S
C643 C640 1.403 . S
C643 C644 1.524 . S
C643 C647 1.400 . S
C644 H629 0.960 . S
C644 H630 0.960 . S
C644 H631 0.960 . S
C644 C643 1.524 . S
C645 C642 1.403 . S
C645 C646 1.392 . S
C645 C649 1.495 1_556 S
C646 C645 1.392 . S
C646 C647 1.385 . S
C646 C648 1.478 1_556 S
C647 H641 0.930 . S
C647 C643 1.400 . S
C647 C646 1.385 . S
C648 C646 1.478 1_554 S
C648 C650 1.381 . S
C648 C654 1.383 . S
C649 C645 1.495 1_554 S
C649 H655 0.959 . S
C649 H656 0.961 . S
C649 H657 0.960 . S
C650 C648 1.381 . S
C650 C651 1.394 . S
C650 H658 0.930 . S
C651 C650 1.394 . S
C651 C652 1.383 . S
C651 H659 0.929 1_655 S
C652 C651 1.383 . S
C652 C653 1.377 . S
C653 H637 0.930 . S
C653 C652 1.377 . S
C653 C654 1.379 . S
C654 H638 0.931 . S
C654 C648 1.383 . S
C654 C653 1.379 . S
H655 C649 0.959 . S
H656 C649 0.961 . S
H657 C649 0.960 . S
H658 C650 0.930 . S
H659 C651 0.929 1_455 S
H660 C668 0.929 . S
H661 C670 0.930 . S
H662 C672 0.930 . S
H663 C675 0.929 . S
H664 C678 0.930 . S
H665 C680 0.960 . S
H666 C680 0.960 . S
H667 C680 0.960 . S
C668 H660 0.929 . S
C668 C669 1.377 . S
C668 C670 1.384 . S
C669 C668 1.377 . S
C669 C675 1.390 . S
C670 H661 0.930 . S
C670 C668 1.384 . S
C670 C671 1.372 . S
C671 C670 1.372 . S
C671 C672 1.400 . S
C671 C676 1.490 . S
C672 H662 0.930 . S
C672 C671 1.400 . S
C672 C675 1.386 . S
H673 C689 0.930 . S
H674 C690 0.931 . S
C675 H663 0.929 . S
C675 C669 1.390 . S
C675 C672 1.386 . S
C676 C671 1.490 . S
C676 C678 1.395 . S
C676 C679 1.403 . S
H677 C683 0.930 . S
C678 H664 0.930 . S
C678 C676 1.395 . S
C678 C681 1.403 . S
C679 C676 1.403 . S
C679 C680 1.524 . S
C679 C683 1.400 . S
C680 H665 0.960 . S
C680 H666 0.960 . S
C680 H667 0.960 . S
C680 C679 1.524 . S
C681 C678 1.403 . S
C681 C682 1.392 . S
C681 C685 1.495 . S
C682 C681 1.392 . S
C682 C683 1.385 . S
C682 C684 1.478 . S
C683 H677 0.930 . S
C683 C679 1.400 . S
C683 C682 1.385 . S
C684 C682 1.478 . S
C684 C686 1.381 . S
C684 C690 1.383 . S
C685 C681 1.495 . S
C685 H691 0.959 . S
C685 H692 0.961 . S
C685 H693 0.960 . S
C686 C684 1.381 . S
C686 C687 1.394 . S
C686 H694 0.930 . S
C687 C686 1.394 . S
C687 C688 1.383 . S
C687 H695 0.929 . S
C688 C687 1.383 . S
C688 C689 1.377 . S
C689 H673 0.930 . S
C689 C688 1.377 . S
C689 C690 1.379 . S
C690 H674 0.931 . S
C690 C684 1.383 . S
C690 C689 1.379 . S
H691 C685 0.959 . S
H692 C685 0.961 . S
H693 C685 0.960 . S
H694 C686 0.930 . S
H695 C687 0.929 . S
H696 C704 0.929 . S
H697 C706 0.930 . S
H698 C708 0.930 . S
H699 C711 0.929 . S
H700 C714 0.930 . S
H701 C716 0.960 . S
H702 C716 0.960 . S
H703 C716 0.960 . S
C704 H696 0.929 . S
C704 C705 1.377 . S
C704 C706 1.384 . S
C705 C704 1.377 . S
C705 C711 1.390 . S
C706 H697 0.930 . S
C706 C704 1.384 . S
C706 C707 1.372 . S
C707 C706 1.372 . S
C707 C708 1.400 . S
C707 C712 1.490 . S
C708 H698 0.930 . S
C708 C707 1.400 . S
C708 C711 1.386 . S
H709 C725 0.930 . S
H710 C726 0.931 . S
C711 H699 0.929 . S
C711 C705 1.390 . S
C711 C708 1.386 . S
C712 C707 1.490 . S
C712 C714 1.395 . S
C712 C715 1.403 . S
H713 C719 0.930 . S
C714 H700 0.930 . S
C714 C712 1.395 . S
C714 C717 1.403 . S
C715 C712 1.403 . S
C715 C716 1.524 . S
C715 C719 1.400 . S
C716 H701 0.960 . S
C716 H702 0.960 . S
C716 H703 0.960 . S
C716 C715 1.524 . S
C717 C714 1.403 . S
C717 C718 1.392 . S
C717 C721 1.495 . S
C718 C717 1.392 . S
C718 C719 1.385 . S
C718 C720 1.478 . S
C719 H713 0.930 . S
C719 C715 1.400 . S
C719 C718 1.385 . S
C720 C718 1.478 . S
C720 C722 1.381 . S
C720 C726 1.383 . S
C721 C717 1.495 . S
C721 H727 0.959 . S
C721 H728 0.961 . S
C721 H729 0.960 . S
C722 C720 1.381 . S
C722 C723 1.394 . S
C722 H730 0.930 . S
C723 C722 1.394 . S
C723 C724 1.383 . S
C723 H731 0.929 . S
C724 C723 1.383 . S
C724 C725 1.377 . S
C725 H709 0.930 . S
C725 C724 1.377 . S
C725 C726 1.379 . S
C726 H710 0.931 . S
C726 C720 1.383 . S
C726 C725 1.379 . S
H727 C721 0.959 . S
H728 C721 0.961 . S
H729 C721 0.960 . S
H730 C722 0.930 . S
H731 C723 0.929 . S
H732 C740 0.929 . S
H733 C742 0.930 . S
H734 C744 0.930 . S
H735 C747 0.929 . S
H736 C750 0.930 . S
H737 C752 0.960 . S
H738 C752 0.960 . S
H739 C752 0.960 . S
C740 H732 0.929 . S
C740 C741 1.377 . S
C740 C742 1.384 . S
C741 C740 1.377 . S
C741 C747 1.390 . S
C742 H733 0.930 . S
C742 C740 1.384 . S
C742 C743 1.372 . S
C743 C742 1.372 . S
C743 C744 1.400 . S
C743 C748 1.490 . S
C744 H734 0.930 . S
C744 C743 1.400 . S
C744 C747 1.386 . S
H745 C761 0.930 . S
H746 C762 0.931 . S
C747 H735 0.929 . S
C747 C741 1.390 . S
C747 C744 1.386 . S
C748 C743 1.490 . S
C748 C750 1.395 . S
C748 C751 1.403 . S
H749 C755 0.930 . S
C750 H736 0.930 . S
C750 C748 1.395 . S
C750 C753 1.403 . S
C751 C748 1.403 . S
C751 C752 1.524 . S
C751 C755 1.400 . S
C752 H737 0.960 . S
C752 H738 0.960 . S
C752 H739 0.960 . S
C752 C751 1.524 . S
C753 C750 1.403 . S
C753 C754 1.392 . S
C753 C757 1.495 . S
C754 C753 1.392 . S
C754 C755 1.385 . S
C754 C756 1.478 . S
C755 H749 0.930 . S
C755 C751 1.400 . S
C755 C754 1.385 . S
C756 C754 1.478 . S
C756 C758 1.381 . S
C756 C762 1.383 . S
C757 C753 1.495 . S
C757 H763 0.959 . S
C757 H764 0.961 . S
C757 H765 0.960 . S
C758 C756 1.381 . S
C758 C759 1.394 . S
C758 H766 0.930 . S
C759 C758 1.394 . S
C759 C760 1.383 . S
C759 H767 0.929 . S
C760 C759 1.383 . S
C760 C761 1.377 . S
C761 H745 0.930 . S
C761 C760 1.377 . S
C761 C762 1.379 . S
C762 H746 0.931 . S
C762 C756 1.383 . S
C762 C761 1.379 . S
H763 C757 0.959 . S
H764 C757 0.961 . S
H765 C757 0.960 . S
H766 C758 0.930 . S
H767 C759 0.929 . S
H768 C776 0.929 . S
H769 C778 0.930 . S
H770 C780 0.930 . S
H771 C783 0.929 . S
H772 C786 0.930 . S
H773 C788 0.960 . S
H774 C788 0.960 . S
H775 C788 0.960 . S
C776 H768 0.929 . S
C776 C777 1.377 . S
C776 C778 1.384 . S
C777 C776 1.377 . S
C777 C783 1.390 . S
C778 H769 0.930 . S
C778 C776 1.384 . S
C778 C779 1.372 . S
C779 C778 1.372 . S
C779 C780 1.400 . S
C779 C784 1.490 . S
C780 H770 0.930 . S
C780 C779 1.400 . S
C780 C783 1.386 . S
H781 C797 0.930 1_565 S
H782 C798 0.931 . S
C783 H771 0.929 . S
C783 C777 1.390 . S
C783 C780 1.386 . S
C784 C779 1.490 . S
C784 C786 1.395 . S
C784 C787 1.403 . S
H785 C791 0.930 . S
C786 H772 0.930 . S
C786 C784 1.395 . S
C786 C789 1.403 . S
C787 C784 1.403 . S
C787 C788 1.524 . S
C787 C791 1.400 . S
C788 H773 0.960 . S
C788 H774 0.960 . S
C788 H775 0.960 . S
C788 C787 1.524 . S
C789 C786 1.403 . S
C789 C790 1.392 . S
C789 C793 1.495 . S
C790 C789 1.392 . S
C790 C791 1.385 . S
C790 C792 1.478 . S
C791 H785 0.930 . S
C791 C787 1.400 . S
C791 C790 1.385 . S
C792 C790 1.478 . S
C792 C794 1.381 . S
C792 C798 1.383 . S
C793 C789 1.495 . S
C793 H799 0.959 . S
C793 H800 0.961 . S
C793 H801 0.960 . S
C794 C792 1.381 . S
C794 C795 1.394 . S
C794 H802 0.930 . S
C795 C794 1.394 . S
C795 C796 1.383 . S
C795 H803 0.929 . S
C796 C795 1.383 . S
C796 C797 1.377 . S
C797 H781 0.930 1_545 S
C797 C796 1.377 . S
C797 C798 1.379 . S
C798 H782 0.931 . S
C798 C792 1.383 . S
C798 C797 1.379 . S
H799 C793 0.959 . S
H800 C793 0.961 . S
H801 C793 0.960 . S
H802 C794 0.930 . S
H803 C795 0.929 . S
H804 C812 0.929 . S
H805 C814 0.930 . S
H806 C816 0.930 . S
H807 C819 0.929 . S
H808 C822 0.930 . S
H809 C824 0.960 . S
H810 C824 0.960 . S
H811 C824 0.960 . S
C812 H804 0.929 . S
C812 C813 1.377 . S
C812 C814 1.384 . S
C813 C812 1.377 . S
C813 C819 1.390 . S
C814 H805 0.930 . S
C814 C812 1.384 . S
C814 C815 1.372 . S
C815 C814 1.372 . S
C815 C816 1.400 . S
C815 C820 1.490 . S
C816 H806 0.930 . S
C816 C815 1.400 . S
C816 C819 1.386 . S
H817 C833 0.930 . S
H818 C834 0.931 . S
C819 H807 0.929 . S
C819 C813 1.390 . S
C819 C816 1.386 . S
C820 C815 1.490 . S
C820 C822 1.395 . S
C820 C823 1.403 . S
H821 C827 0.930 . S
C822 H808 0.930 . S
C822 C820 1.395 . S
C822 C825 1.403 . S
C823 C820 1.403 . S
C823 C824 1.524 . S
C823 C827 1.400 . S
C824 H809 0.960 . S
C824 H810 0.960 . S
C824 H811 0.960 . S
C824 C823 1.524 . S
C825 C822 1.403 . S
C825 C826 1.392 . S
C825 C829 1.495 . S
C826 C825 1.392 . S
C826 C827 1.385 . S
C826 C828 1.478 . S
C827 H821 0.930 . S
C827 C823 1.400 . S
C827 C826 1.385 . S
C828 C826 1.478 . S
C828 C830 1.381 . S
C828 C834 1.383 . S
C829 C825 1.495 . S
C829 H835 0.959 . S
C829 H836 0.961 . S
C829 H837 0.960 . S
C830 C828 1.381 . S
C830 C831 1.394 . S
C830 H838 0.930 . S
C831 C830 1.394 . S
C831 C832 1.383 . S
C831 H839 0.929 . S
C832 C831 1.383 . S
C832 C833 1.377 . S
C833 H817 0.930 . S
C833 C832 1.377 . S
C833 C834 1.379 . S
C834 H818 0.931 . S
C834 C828 1.383 . S
C834 C833 1.379 . S
H835 C829 0.959 . S
H836 C829 0.961 . S
H837 C829 0.960 . S
H838 C830 0.930 . S
H839 C831 0.929 . S
H840 C848 0.929 . S
H841 C850 0.930 . S
H842 C852 0.930 . S
H843 C855 0.929 . S
H844 C858 0.930 . S
H845 C860 0.960 . S
H846 C860 0.960 . S
H847 C860 0.960 . S
C848 H840 0.929 . S
C848 C849 1.377 . S
C848 C850 1.384 . S
C849 C848 1.377 . S
C849 C855 1.390 . S
C850 H841 0.930 . S
C850 C848 1.384 . S
C850 C851 1.372 . S
C851 C850 1.372 . S
C851 C852 1.400 . S
C851 C856 1.490 . S
C852 H842 0.930 . S
C852 C851 1.400 . S
C852 C855 1.386 . S
H853 C869 0.930 . S
H854 C870 0.931 . S
C855 H843 0.929 . S
C855 C849 1.390 . S
C855 C852 1.386 . S
C856 C851 1.490 . S
C856 C858 1.395 . S
C856 C859 1.403 . S
H857 C863 0.930 . S
C858 H844 0.930 . S
C858 C856 1.395 . S
C858 C861 1.403 . S
C859 C856 1.403 . S
C859 C860 1.524 . S
C859 C863 1.400 . S
C860 H845 0.960 . S
C860 H846 0.960 . S
C860 H847 0.960 . S
C860 C859 1.524 . S
C861 C858 1.403 . S
C861 C862 1.392 . S
C861 C865 1.495 . S
C862 C861 1.392 . S
C862 C863 1.385 . S
C862 C864 1.478 . S
C863 H857 0.930 . S
C863 C859 1.400 . S
C863 C862 1.385 . S
C864 C862 1.478 . S
C864 C866 1.381 . S
C864 C870 1.383 . S
C865 C861 1.495 . S
C865 H871 0.959 . S
C865 H872 0.961 . S
C865 H873 0.960 . S
C866 C864 1.381 . S
C866 C867 1.394 . S
C866 H874 0.930 . S
C867 C866 1.394 . S
C867 C868 1.383 . S
C867 H875 0.929 . S
C868 C867 1.383 . S
C868 C869 1.377 . S
C869 H853 0.930 . S
C869 C868 1.377 . S
C869 C870 1.379 . S
C870 H854 0.931 . S
C870 C864 1.383 . S
C870 C869 1.379 . S
H871 C865 0.959 . S
H872 C865 0.961 . S
H873 C865 0.960 . S
H874 C866 0.930 . S
H875 C867 0.929 . S
H876 C884 0.929 . S
H877 C886 0.930 . S
H878 C888 0.930 . S
H879 C891 0.929 . S
H880 C894 0.930 . S
H881 C896 0.960 . S
H882 C896 0.960 . S
H883 C896 0.960 . S
C884 H876 0.929 . S
C884 C885 1.377 . S
C884 C886 1.384 . S
C885 C884 1.377 . S
C885 C891 1.390 . S
C886 H877 0.930 . S
C886 C884 1.384 . S
C886 C887 1.372 . S
C887 C886 1.372 . S
C887 C888 1.400 . S
C887 C892 1.490 . S
C888 H878 0.930 . S
C888 C887 1.400 . S
C888 C891 1.386 . S
H889 C905 0.930 . S
H890 C906 0.931 . S
C891 H879 0.929 . S
C891 C885 1.390 . S
C891 C888 1.386 . S
C892 C887 1.490 . S
C892 C894 1.395 . S
C892 C895 1.403 . S
H893 C899 0.930 . S
C894 H880 0.930 . S
C894 C892 1.395 . S
C894 C897 1.403 . S
C895 C892 1.403 . S
C895 C896 1.524 . S
C895 C899 1.400 . S
C896 H881 0.960 . S
C896 H882 0.960 . S
C896 H883 0.960 . S
C896 C895 1.524 . S
C897 C894 1.403 . S
C897 C898 1.392 . S
C897 C901 1.495 . S
C898 C897 1.392 . S
C898 C899 1.385 . S
C898 C900 1.478 . S
C899 H893 0.930 . S
C899 C895 1.400 . S
C899 C898 1.385 . S
C900 C898 1.478 . S
C900 C902 1.381 . S
C900 C906 1.383 . S
C901 C897 1.495 . S
C901 H907 0.959 . S
C901 H908 0.961 . S
C901 H909 0.960 . S
C902 C900 1.381 . S
C902 C903 1.394 . S
C902 H910 0.930 . S
C903 C902 1.394 . S
C903 C904 1.383 . S
C903 H911 0.929 . S
C904 C903 1.383 . S
C904 C905 1.377 . S
C905 H889 0.930 . S
C905 C904 1.377 . S
C905 C906 1.379 . S
C906 H890 0.931 . S
C906 C900 1.383 . S
C906 C905 1.379 . S
H907 C901 0.959 . S
H908 C901 0.961 . S
H909 C901 0.960 . S
H910 C902 0.930 . S
H911 C903 0.929 . S
H912 C920 0.929 . S
H913 C922 0.930 . S
H914 C924 0.930 . S
H915 C927 0.929 . S
H916 C930 0.930 . S
H917 C932 0.960 . S
H918 C932 0.960 . S
H919 C932 0.960 . S
C920 H912 0.929 . S
C920 C921 1.377 . S
C920 C922 1.384 . S
C921 C920 1.377 . S
C921 C927 1.390 . S
C922 H913 0.930 . S
C922 C920 1.384 . S
C922 C923 1.372 . S
C923 C922 1.372 . S
C923 C924 1.400 . S
C923 C928 1.490 . S
C924 H914 0.930 . S
C924 C923 1.400 . S
C924 C927 1.386 . S
H925 C941 0.930 . S
H926 C942 0.931 . S
C927 H915 0.929 . S
C927 C921 1.390 . S
C927 C924 1.386 . S
C928 C923 1.490 . S
C928 C930 1.395 . S
C928 C931 1.403 . S
H929 C935 0.930 . S
C930 H916 0.930 . S
C930 C928 1.395 . S
C930 C933 1.403 . S
C931 C928 1.403 . S
C931 C932 1.524 . S
C931 C935 1.400 . S
C932 H917 0.960 . S
C932 H918 0.960 . S
C932 H919 0.960 . S
C932 C931 1.524 . S
C933 C930 1.403 . S
C933 C934 1.392 . S
C933 C937 1.495 . S
C934 C933 1.392 . S
C934 C935 1.385 . S
C934 C936 1.478 . S
C935 H929 0.930 . S
C935 C931 1.400 . S
C935 C934 1.385 . S
C936 C934 1.478 . S
C936 C938 1.381 . S
C936 C942 1.383 . S
C937 C933 1.495 . S
C937 H943 0.959 . S
C937 H944 0.961 . S
C937 H945 0.960 . S
C938 C936 1.381 . S
C938 C939 1.394 . S
C938 H946 0.930 . S
C939 C938 1.394 . S
C939 C940 1.383 . S
C939 H947 0.929 . S
C940 C939 1.383 . S
C940 C941 1.377 . S
C941 H925 0.930 . S
C941 C940 1.377 . S
C941 C942 1.379 . S
C942 H926 0.931 . S
C942 C936 1.383 . S
C942 C941 1.379 . S
H943 C937 0.959 . S
H944 C937 0.961 . S
H945 C937 0.960 . S
H946 C938 0.930 . S
H947 C939 0.929 . S
H948 C956 0.929 . S
H949 C958 0.930 . S
H950 C960 0.930 . S
H951 C963 0.929 . S
H952 C966 0.930 . S
H953 C968 0.960 . S
H954 C968 0.960 . S
H955 C968 0.960 . S
C956 H948 0.929 . S
C956 C957 1.377 . S
C956 C958 1.384 . S
C957 C956 1.377 . S
C957 C963 1.390 . S
C958 H949 0.930 . S
C958 C956 1.384 . S
C958 C959 1.372 . S
C959 C958 1.372 . S
C959 C960 1.400 . S
C959 C964 1.490 . S
C960 H950 0.930 . S
C960 C959 1.400 . S
C960 C963 1.386 . S
H961 C977 0.930 . S
H962 C978 0.931 . S
C963 H951 0.929 . S
C963 C957 1.390 . S
C963 C960 1.386 . S
C964 C959 1.490 . S
C964 C966 1.395 . S
C964 C967 1.403 . S
H965 C971 0.930 . S
C966 H952 0.930 . S
C966 C964 1.395 . S
C966 C969 1.403 . S
C967 C964 1.403 . S
C967 C968 1.524 . S
C967 C971 1.400 . S
C968 H953 0.960 . S
C968 H954 0.960 . S
C968 H955 0.960 . S
C968 C967 1.524 . S
C969 C966 1.403 . S
C969 C970 1.392 . S
C969 C973 1.495 . S
C970 C969 1.392 . S
C970 C971 1.385 . S
C970 C972 1.478 . S
C971 H965 0.930 . S
C971 C967 1.400 . S
C971 C970 1.385 . S
C972 C970 1.478 . S
C972 C974 1.381 . S
C972 C978 1.383 . S
C973 C969 1.495 . S
C973 H979 0.959 . S
C973 H980 0.961 . S
C973 H981 0.960 . S
C974 C972 1.381 . S
C974 C975 1.394 . S
C974 H982 0.930 . S
C975 C974 1.394 . S
C975 C976 1.383 . S
C975 H983 0.929 . S
C976 C975 1.383 . S
C976 C977 1.377 . S
C977 H961 0.930 . S
C977 C976 1.377 . S
C977 C978 1.379 . S
C978 H962 0.931 . S
C978 C972 1.383 . S
C978 C977 1.379 . S
H979 C973 0.959 . S
H980 C973 0.961 . S
H981 C973 0.960 . S
H982 C974 0.930 . S
H983 C975 0.929 . S
H984 C992 0.929 . S
H985 C994 0.930 . S
H986 C996 0.930 . S
H987 C999 0.929 . S
H988 C1002 0.930 . S
H989 C1004 0.960 . S
H990 C1004 0.960 . S
H991 C1004 0.960 . S
C992 H984 0.929 . S
C992 C993 1.377 . S
C992 C994 1.384 . S
C993 C992 1.377 . S
C993 C999 1.390 . S
C994 H985 0.930 . S
C994 C992 1.384 . S
C994 C995 1.372 . S
C995 C994 1.372 . S
C995 C996 1.400 . S
C995 C1000 1.490 . S
C996 H986 0.930 . S
C996 C995 1.400 . S
C996 C999 1.386 . S
H997 C1013 0.930 . S
H998 C1014 0.931 . S
C999 H987 0.929 . S
C999 C993 1.390 . S
C999 C996 1.386 . S
C1000 C995 1.490 . S
C1000 C1002 1.395 . S
C1000 C1003 1.403 . S
H1001 C1007 0.930 . S
C1002 H988 0.930 . S
C1002 C1000 1.395 . S
C1002 C1005 1.403 . S
C1003 C1000 1.403 . S
C1003 C1004 1.524 . S
C1003 C1007 1.400 . S
C1004 H989 0.960 . S
C1004 H990 0.960 . S
C1004 H991 0.960 . S
C1004 C1003 1.524 . S
C1005 C1002 1.403 . S
C1005 C1006 1.392 . S
C1005 C1009 1.495 . S
C1006 C1005 1.392 . S
C1006 C1007 1.385 . S
C1006 C1008 1.478 . S
C1007 H1001 0.930 . S
C1007 C1003 1.400 . S
C1007 C1006 1.385 . S
C1008 C1006 1.478 . S
C1008 C1010 1.381 . S
C1008 C1014 1.383 . S
C1009 C1005 1.495 . S
C1009 H1015 0.959 . S
C1009 H1016 0.961 . S
C1009 H1017 0.960 . S
C1010 C1008 1.381 . S
C1010 C1011 1.394 . S
C1010 H1018 0.930 . S
C1011 C1010 1.394 . S
C1011 C1012 1.383 . S
C1011 H1019 0.929 1_554 S
C1012 C1011 1.383 . S
C1012 C1013 1.377 . S
C1013 H997 0.930 . S
C1013 C1012 1.377 . S
C1013 C1014 1.379 . S
C1014 H998 0.931 . S
C1014 C1008 1.383 . S
C1014 C1013 1.379 . S
H1015 C1009 0.959 . S
H1016 C1009 0.961 . S
H1017 C1009 0.960 . S
H1018 C1010 0.930 . S
H1019 C1011 0.929 1_556 S
C165 C104 1.384 . S
C184 C0 1.386 . S
C201 C13 1.384 . S
C220 C117 1.388 . S
C237 C26 1.388 . S
C256 C130 1.365 . S
C273 C39 1.389 . S
C292 C143 1.363 . S
C309 C78 1.389 . S
C328 C52 1.361 . S
C345 C65 1.384 . S
C364 C91 1.385 . S
C381 C8 1.240 . S
C400 C75 1.277 . S
C417 C21 1.244 . S
C436 C10 1.288 1_655 S
C453 C34 1.231 . S
C472 C23 1.276 1_565 S
C489 C36 1.291 . S
C508 C47 1.205 . S
C525 C49 1.290 1_455 S
C544 C60 1.246 . S
C561 C62 1.292 1_545 S
C580 C73 1.208 . S
C597 C101 1.295 . S
C616 C86 1.250 . S
C633 C99 1.233 . S
C652 C114 1.292 1_655 S
C669 C127 1.292 1_565 S
C688 C112 1.266 . S
C705 C125 1.239 . S
C724 C140 1.276 . S
C741 C138 1.241 . S
C760 C153 1.305 1_455 S
C777 C151 1.245 . S
C796 C88 1.289 1_545 S
C813 C135 1.119 . S
C832 C5 1.113 . S
C849 C148 1.119 . S
C868 C18 1.101 . S
C885 C83 1.109 . S
C904 C31 1.137 . S
C921 C44 1.116 . S
C940 C96 1.083 . S
C957 C57 1.119 . S
C976 C109 1.117 1_556 S
C993 C122 1.118 . S
C1012 C70 1.093 1_554 S
