# Generated by pormake.
# Topology gan, (5)-cn, num edge types: 1
# Building blocks:
#     Node 0, Type 0, BuildingBlock: XOMCOT_clean_sbu_1, # of connection points: 5
#     Node 1, Type 0, BuildingBlock: XOMCOT_clean_sbu_1, # of connection points: 5
#     Node 2, Type 0, BuildingBlock: XOMCOT_clean_sbu_1, # of connection points: 5
#     Node 3, Type 0, BuildingBlock: XOMCOT_clean_sbu_1, # of connection points: 5
#     Node 4, Type 0, BuildingBlock: XOMCOT_clean_sbu_1, # of connection points: 5
#     Node 5, Type 0, BuildingBlock: XOMCOT_clean_sbu_1, # of connection points: 5
#     Node 6, Type 0, BuildingBlock: XOMCOT_clean_sbu_1, # of connection points: 5
#     Node 7, Type 0, BuildingBlock: XOMCOT_clean_sbu_1, # of connection points: 5
#     Node 8, Type 0, BuildingBlock: XOMCOT_clean_sbu_1, # of connection points: 5
#     Node 9, Type 0, BuildingBlock: XOMCOT_clean_sbu_1, # of connection points: 5
#     Node 10, Type 0, BuildingBlock: XOMCOT_clean_sbu_1, # of connection points: 5
#     Node 11, Type 0, BuildingBlock: XOMCOT_clean_sbu_1, # of connection points: 5
#     Node 12, Type 0, BuildingBlock: XOMCOT_clean_sbu_1, # of connection points: 5
#     Node 13, Type 0, BuildingBlock: XOMCOT_clean_sbu_1, # of connection points: 5
#     Node 14, Type 0, BuildingBlock: XOMCOT_clean_sbu_1, # of connection points: 5
#     Node 15, Type 0, BuildingBlock: XOMCOT_clean_sbu_1, # of connection points: 5
#     Edge 16, Type (0, 0), BuildingBlock: MIFKUJ_clean_linker_0, # of connection points: 2
#     Edge 17, Type (0, 0), BuildingBlock: MIFKUJ_clean_linker_0, # of connection points: 2
#     Edge 18, Type (0, 0), BuildingBlock: MIFKUJ_clean_linker_0, # of connection points: 2
#     Edge 19, Type (0, 0), BuildingBlock: MIFKUJ_clean_linker_0, # of connection points: 2
#     Edge 20, Type (0, 0), BuildingBlock: MIFKUJ_clean_linker_0, # of connection points: 2
#     Edge 21, Type (0, 0), BuildingBlock: MIFKUJ_clean_linker_0, # of connection points: 2
#     Edge 22, Type (0, 0), BuildingBlock: MIFKUJ_clean_linker_0, # of connection points: 2
#     Edge 23, Type (0, 0), BuildingBlock: MIFKUJ_clean_linker_0, # of connection points: 2
#     Edge 24, Type (0, 0), BuildingBlock: MIFKUJ_clean_linker_0, # of connection points: 2
#     Edge 25, Type (0, 0), BuildingBlock: MIFKUJ_clean_linker_0, # of connection points: 2
#     Edge 26, Type (0, 0), BuildingBlock: MIFKUJ_clean_linker_0, # of connection points: 2
#     Edge 27, Type (0, 0), BuildingBlock: MIFKUJ_clean_linker_0, # of connection points: 2
#     Edge 28, Type (0, 0), BuildingBlock: MIFKUJ_clean_linker_0, # of connection points: 2
#     Edge 29, Type (0, 0), BuildingBlock: MIFKUJ_clean_linker_0, # of connection points: 2
#     Edge 30, Type (0, 0), BuildingBlock: MIFKUJ_clean_linker_0, # of connection points: 2
#     Edge 31, Type (0, 0), BuildingBlock: MIFKUJ_clean_linker_0, # of connection points: 2
#     Edge 32, Type (0, 0), BuildingBlock: MIFKUJ_clean_linker_0, # of connection points: 2
#     Edge 33, Type (0, 0), BuildingBlock: MIFKUJ_clean_linker_0, # of connection points: 2
#     Edge 34, Type (0, 0), BuildingBlock: MIFKUJ_clean_linker_0, # of connection points: 2
#     Edge 35, Type (0, 0), BuildingBlock: MIFKUJ_clean_linker_0, # of connection points: 2
#     Edge 36, Type (0, 0), BuildingBlock: MIFKUJ_clean_linker_0, # of connection points: 2
#     Edge 37, Type (0, 0), BuildingBlock: MIFKUJ_clean_linker_0, # of connection points: 2
#     Edge 38, Type (0, 0), BuildingBlock: MIFKUJ_clean_linker_0, # of connection points: 2
#     Edge 39, Type (0, 0), BuildingBlock: MIFKUJ_clean_linker_0, # of connection points: 2
#     Edge 40, Type (0, 0), BuildingBlock: MIFKUJ_clean_linker_0, # of connection points: 2
#     Edge 41, Type (0, 0), BuildingBlock: MIFKUJ_clean_linker_0, # of connection points: 2
#     Edge 42, Type (0, 0), BuildingBlock: MIFKUJ_clean_linker_0, # of connection points: 2
#     Edge 43, Type (0, 0), BuildingBlock: MIFKUJ_clean_linker_0, # of connection points: 2
#     Edge 44, Type (0, 0), BuildingBlock: MIFKUJ_clean_linker_0, # of connection points: 2
#     Edge 45, Type (0, 0), BuildingBlock: MIFKUJ_clean_linker_0, # of connection points: 2
#     Edge 46, Type (0, 0), BuildingBlock: MIFKUJ_clean_linker_0, # of connection points: 2
#     Edge 47, Type (0, 0), BuildingBlock: MIFKUJ_clean_linker_0, # of connection points: 2
#     Edge 48, Type (0, 0), BuildingBlock: MIFKUJ_clean_linker_0, # of connection points: 2
#     Edge 49, Type (0, 0), BuildingBlock: MIFKUJ_clean_linker_0, # of connection points: 2
#     Edge 50, Type (0, 0), BuildingBlock: MIFKUJ_clean_linker_0, # of connection points: 2
#     Edge 51, Type (0, 0), BuildingBlock: MIFKUJ_clean_linker_0, # of connection points: 2
#     Edge 52, Type (0, 0), BuildingBlock: MIFKUJ_clean_linker_0, # of connection points: 2
#     Edge 53, Type (0, 0), BuildingBlock: MIFKUJ_clean_linker_0, # of connection points: 2
#     Edge 54, Type (0, 0), BuildingBlock: MIFKUJ_clean_linker_0, # of connection points: 2
#     Edge 55, Type (0, 0), BuildingBlock: MIFKUJ_clean_linker_0, # of connection points: 2
# Relax obj value: 0.092
# Max RMSD: 0.105
# Mean RMSD: 0.097
data_MOF--net-gan--node1-XOMCOT_clean_sbu_1--edge1-MIFKUJ_clean_linker_0
_symmetry_space_group_name_H-M    P1
_symmetry_Int_Tables_number       1
_symmetry_cell_setting            triclinic
loop_
_symmetry_equiv_pos_as_xyz
'x, y, z'
_cell_length_a     53.51432
_cell_length_b     53.620632
_cell_length_c     52.493932
_cell_angle_alpha  90.140003
_cell_angle_beta   90.702156
_cell_angle_gamma 91.403553
loop_
_atom_site_label
_atom_site_type_symbol
_atom_site_fract_x
_atom_site_fract_y
_atom_site_fract_z
_atom_type_partial_charge
C0 C 0.1052 0.1262 0.21596 0.0
C1 C 0.08895 0.11023 0.20297 0.0
N2 N 0.09108 0.11413 0.17767 0.0
N3 N 0.11801 0.14046 0.19931 0.0
C4 C 0.10883 0.13282 0.17602 0.0
H5 H 0.10744 0.12748 0.23643 0.0
Co6 Co 0.1422 0.16559 0.21029 0.0
C7 C 0.1806 0.1639 0.17055 0.0
O8 O 0.19823 0.16479 0.18822 0.0
N9 N 0.16612 0.19212 0.22137 0.0
C10 C 0.18689 0.22873 0.2177 0.0
C11 C 0.17189 0.21117 0.2055 0.0
C12 C 0.17792 0.1993 0.24372 0.0
N13 N 0.1908 0.22155 0.24196 0.0
O14 O 0.12078 0.1904 0.19837 0.0
H15 H 0.16509 0.21261 0.18609 0.0
H16 H 0.17639 0.1892 0.26138 0.0
O17 O 0.15764 0.16422 0.1769 0.0
C18 C 0.10686 0.19944 0.21532 0.0
O19 O 0.10808 0.1905 0.23858 0.0
N20 N 0.16238 0.14048 0.2234 0.0
C21 C 0.18916 0.10292 0.24686 0.0
C22 C 0.18458 0.10228 0.22053 0.0
C23 C 0.17077 0.12108 0.20919 0.0
C24 C 0.16498 0.1402 0.24924 0.0
C25 C 0.17901 0.12203 0.26134 0.0
H26 H 0.16633 0.11965 0.18911 0.0
H27 H 0.15533 0.15362 0.26061 0.0
H28 H 0.11515 0.14073 0.15822 0.0
H29 H 0.07613 0.09704 0.21178 0.0
H30 H 0.19423 0.24568 0.20916 0.0
H31 H 0.19136 0.08724 0.20888 0.0
H32 H 0.18102 0.12231 0.28191 0.0
C33 C 0.19697 0.80846 0.29362 0.0
C34 C 0.21056 0.79256 0.27882 0.0
N35 N 0.23312 0.789 0.28978 0.0
N36 N 0.21014 0.81541 0.31464 0.0
C37 C 0.23245 0.80337 0.31156 0.0
H38 H 0.17837 0.81472 0.28915 0.0
Co39 Co 0.19518 0.83862 0.33964 0.0
C40 C 0.205 0.81773 0.38954 0.0
O41 O 0.18098 0.81895 0.39418 0.0
N42 N 0.18057 0.86289 0.36512 0.0
C43 C 0.18481 0.89087 0.39705 0.0
C44 C 0.19692 0.87545 0.38058 0.0
C45 C 0.15786 0.87181 0.37334 0.0
N46 N 0.15993 0.88888 0.39305 0.0
O47 O 0.2227 0.8612 0.33537 0.0
H48 H 0.21692 0.87319 0.38048 0.0
H49 H 0.13999 0.86569 0.3655 0.0
O50 O 0.21305 0.82308 0.36736 0.0
C51 C 0.22484 0.87245 0.31421 0.0
O52 O 0.20968 0.86602 0.29531 0.0
N53 N 0.16758 0.81698 0.34206 0.0
C54 C 0.12507 0.78635 0.33585 0.0
C55 C 0.14776 0.77646 0.34442 0.0
C56 C 0.16892 0.79209 0.34717 0.0
C57 C 0.14604 0.8267 0.33293 0.0
C58 C 0.12441 0.81194 0.33034 0.0
H59 H 0.18658 0.78406 0.35239 0.0
H60 H 0.14588 0.84591 0.32677 0.0
H61 H 0.2478 0.80491 0.32513 0.0
H62 H 0.20427 0.78451 0.26086 0.0
H63 H 0.19409 0.90287 0.41099 0.0
H64 H 0.14944 0.75671 0.34808 0.0
H65 H 0.10746 0.82055 0.32371 0.0
C66 C 0.41178 0.8621 0.64892 0.0
C67 C 0.3958 0.84531 0.66066 0.0
N68 N 0.38539 0.85633 0.68094 0.0
N69 N 0.41182 0.88417 0.66121 0.0
C70 C 0.39562 0.88001 0.68095 0.0
H71 H 0.42253 0.85852 0.63204 0.0
Co72 Co 0.43129 0.91225 0.64787 0.0
C73 C 0.40647 0.95603 0.66924 0.0
O74 O 0.406 0.96693 0.64685 0.0
N75 N 0.45177 0.94049 0.63428 0.0
C76 C 0.47821 0.97354 0.6368 0.0
C77 C 0.46293 0.95735 0.65015 0.0
C78 C 0.46117 0.94721 0.61089 0.0
N79 N 0.47745 0.96731 0.61192 0.0
O80 O 0.45625 0.90646 0.67285 0.0
H81 H 0.46066 0.95754 0.67059 0.0
H82 H 0.45712 0.93706 0.59348 0.0
O83 O 0.41537 0.9343 0.67159 0.0
C84 C 0.47668 0.89799 0.66482 0.0
O85 O 0.47974 0.89551 0.64014 0.0
N86 N 0.40711 0.91581 0.62263 0.0
C87 C 0.37243 0.90363 0.58452 0.0
C88 C 0.36459 0.91376 0.60764 0.0
C89 C 0.38226 0.91927 0.62677 0.0
C90 C 0.41496 0.90658 0.60003 0.0
C91 C 0.398 0.90075 0.58053 0.0
H92 H 0.37566 0.9241 0.64544 0.0
H93 H 0.43423 0.90146 0.59797 0.0
H94 H 0.39088 0.89422 0.69462 0.0
H95 H 0.39219 0.82622 0.65466 0.0
H96 H 0.48925 0.98874 0.64506 0.0
H97 H 0.34489 0.91546 0.61164 0.0
H98 H 0.40471 0.89262 0.56306 0.0
C99 C 0.35349 0.16338 0.93612 0.0
C100 C 0.3684 0.14998 0.95247 0.0
N101 N 0.36936 0.12613 0.94436 0.0
N102 N 0.34452 0.14858 0.9172 0.0
C103 C 0.35468 0.12581 0.92269 0.0
H104 H 0.34909 0.18286 0.93814 0.0
Co105 Co 0.3207 0.16213 0.89234 0.0
C106 C 0.32438 0.13112 0.84712 0.0
O107 O 0.32366 0.15201 0.8341 0.0
N108 N 0.29527 0.1759 0.86777 0.0
C109 C 0.25958 0.17318 0.8448 0.0
C110 C 0.27598 0.16075 0.86028 0.0
C111 C 0.28932 0.19821 0.85623 0.0
N112 N 0.26752 0.19705 0.84208 0.0
O113 O 0.29427 0.14755 0.9118 0.0
H114 H 0.27379 0.14142 0.86585 0.0
H115 H 0.3002 0.21527 0.85859 0.0
O116 O 0.32298 0.13183 0.87145 0.0
C117 C 0.28066 0.1631 0.9232 0.0
O118 O 0.28429 0.18706 0.91908 0.0
N119 N 0.34756 0.17754 0.87523 0.0
C120 C 0.38957 0.20248 0.85615 0.0
C121 C 0.38882 0.17644 0.85789 0.0
C122 C 0.36778 0.16434 0.86779 0.0
C123 C 0.34853 0.20295 0.87482 0.0
C124 C 0.36911 0.21584 0.86465 0.0
H125 H 0.36818 0.14436 0.87027 0.0
H126 H 0.33386 0.21331 0.88356 0.0
H127 H 0.35081 0.10917 0.91147 0.0
H128 H 0.37791 0.15743 0.96924 0.0
H129 H 0.24294 0.16487 0.8361 0.0
H130 H 0.4046 0.16556 0.85212 0.0
H131 H 0.36956 0.23605 0.86461 0.0
C132 C 0.71534 0.32702 0.79713 0.0
C133 C 0.72805 0.31197 0.78066 0.0
N134 N 0.74378 0.29743 0.79391 0.0
N135 N 0.72219 0.32254 0.82145 0.0
C136 C 0.73999 0.30448 0.81883 0.0
H137 H 0.70189 0.3408 0.79158 0.0
Co138 Co 0.70727 0.34284 0.8489 0.0
C139 C 0.69621 0.31079 0.89185 0.0
O140 O 0.67252 0.31641 0.88958 0.0
N141 N 0.69273 0.36445 0.87708 0.0
C142 C 0.69457 0.38419 0.91507 0.0
C143 C 0.70687 0.36931 0.89815 0.0
C144 C 0.67119 0.37732 0.88248 0.0
N145 N 0.67191 0.38973 0.90552 0.0
O146 O 0.74023 0.35401 0.85831 0.0
H147 H 0.72525 0.36205 0.90158 0.0
H148 H 0.65517 0.37793 0.86987 0.0
O149 O 0.7111 0.31632 0.87372 0.0
C150 C 0.75473 0.3693 0.84687 0.0
O151 O 0.77768 0.37261 0.85562 0.0
N152 N 0.67535 0.33139 0.83842 0.0
C153 C 0.62767 0.31574 0.82284 0.0
C154 C 0.64575 0.29823 0.82896 0.0
C155 C 0.66966 0.30646 0.83649 0.0
C156 C 0.65884 0.34845 0.82978 0.0
C157 C 0.63451 0.34111 0.82271 0.0
H158 H 0.68348 0.29283 0.8413 0.0
H159 H 0.66443 0.36792 0.82875 0.0
H160 H 0.74995 0.29664 0.83486 0.0
H161 H 0.72613 0.31221 0.76011 0.0
H162 H 0.70191 0.39007 0.93347 0.0
H163 H 0.64121 0.27843 0.82878 0.0
H164 H 0.62116 0.35507 0.81728 0.0
C165 C 0.87639 0.37448 0.12721 0.0
C166 C 0.86118 0.35766 0.13989 0.0
N167 N 0.8609 0.36367 0.16483 0.0
N168 N 0.88582 0.39177 0.14361 0.0
C169 C 0.87625 0.38442 0.16665 0.0
H170 H 0.88011 0.3743 0.10701 0.0
Co171 Co 0.9071 0.41927 0.13162 0.0
C172 C 0.89267 0.46198 0.16324 0.0
O173 O 0.89324 0.47635 0.14299 0.0
N174 N 0.92984 0.44651 0.1194 0.0
C175 C 0.96188 0.47408 0.12363 0.0
C176 C 0.94519 0.45869 0.13615 0.0
C177 C 0.93834 0.4551 0.09624 0.0
N178 N 0.95797 0.47195 0.09833 0.0
O179 O 0.93398 0.40624 0.15033 0.0
H180 H 0.94499 0.45587 0.15654 0.0
H181 H 0.93139 0.44823 0.07808 0.0
O182 O 0.89777 0.43893 0.16118 0.0
C183 C 0.94874 0.39412 0.13648 0.0
O184 O 0.94438 0.39301 0.1118 0.0
N185 N 0.88013 0.43037 0.11195 0.0
C186 C 0.83737 0.42459 0.08147 0.0
C187 C 0.83548 0.43148 0.10712 0.0
C188 C 0.85711 0.43413 0.12214 0.0
C189 C 0.88232 0.42538 0.08663 0.0
C190 C 0.86118 0.42285 0.07092 0.0
H191 H 0.85487 0.43602 0.14244 0.0
H192 H 0.90011 0.41997 0.07922 0.0
H193 H 0.87998 0.39438 0.18428 0.0
H194 H 0.85107 0.34198 0.1313 0.0
H195 H 0.97623 0.48571 0.13268 0.0
H196 H 0.81739 0.43261 0.11603 0.0
H197 H 0.86342 0.41675 0.0514 0.0
C198 C 0.8617 0.65531 0.41679 0.0
C199 C 0.8787 0.64246 0.43126 0.0
N200 N 0.87147 0.61822 0.43265 0.0
N201 N 0.84322 0.6398 0.40833 0.0
C202 C 0.84958 0.61715 0.41862 0.0
H203 H 0.86272 0.67507 0.41272 0.0
Co204 Co 0.81623 0.65365 0.38728 0.0
C205 C 0.80087 0.61407 0.35098 0.0
O206 O 0.7955 0.63148 0.33437 0.0
N207 N 0.78843 0.66867 0.36692 0.0
C208 C 0.74838 0.67266 0.35461 0.0
C209 C 0.76483 0.65951 0.36942 0.0
C210 C 0.7852 0.68819 0.3501 0.0
N211 N 0.76085 0.69089 0.34207 0.0
O212 O 0.79384 0.6481 0.41464 0.0
H213 H 0.75967 0.64381 0.38129 0.0
H214 H 0.80032 0.70016 0.34361 0.0
O215 O 0.80854 0.62029 0.37336 0.0
C216 C 0.79316 0.66696 0.42935 0.0
O217 O 0.80712 0.68669 0.42387 0.0
N218 N 0.83949 0.66027 0.36167 0.0
C219 C 0.88335 0.67316 0.33626 0.0
C220 C 0.87529 0.64819 0.33793 0.0
C221 C 0.85362 0.64208 0.35118 0.0
C222 C 0.84647 0.68474 0.35928 0.0
C223 C 0.8682 0.69166 0.34635 0.0
H224 H 0.84979 0.62264 0.35492 0.0
H225 H 0.83636 0.69881 0.36939 0.0
H226 H 0.83853 0.60019 0.4157 0.0
H227 H 0.89511 0.65071 0.4405 0.0
H228 H 0.72841 0.66908 0.35361 0.0
H229 H 0.88662 0.63333 0.33072 0.0
H230 H 0.87416 0.71111 0.34624 0.0
C231 C 0.87585 0.871 0.95172 0.0
C232 C 0.86308 0.85318 0.93742 0.0
N233 N 0.85338 0.86395 0.91646 0.0
N234 N 0.87484 0.89331 0.94005 0.0
C235 C 0.86059 0.88848 0.91865 0.0
H236 H 0.88522 0.86785 0.96975 0.0
Co237 Co 0.89021 0.92312 0.95455 0.0
C238 C 0.91119 0.94991 0.90988 0.0
O239 O 0.93159 0.95662 0.92257 0.0
N240 N 0.90531 0.95357 0.96986 0.0
C241 C 0.91237 0.99446 0.9766 0.0
C242 C 0.89866 0.97677 0.96292 0.0
C243 C 0.92291 0.9581 0.98867 0.0
N244 N 0.92779 0.98286 0.99293 0.0
O245 O 0.85835 0.93728 0.95512 0.0
H246 H 0.88471 0.98069 0.94849 0.0
H247 H 0.93231 0.94376 0.99914 0.0
O248 O 0.89438 0.93645 0.92057 0.0
C249 C 0.84698 0.93727 0.97617 0.0
O250 O 0.85923 0.93105 0.99696 0.0
N251 N 0.9211 0.9077 0.95482 0.0
C252 C 0.96624 0.88376 0.96158 0.0
C253 C 0.95759 0.8898 0.93705 0.0
C254 C 0.93463 0.90132 0.93402 0.0
C255 C 0.9282 0.90009 0.97847 0.0
C256 C 0.95096 0.88861 0.98241 0.0
H257 H 0.92768 0.90459 0.91498 0.0
H258 H 0.91615 0.90331 0.99448 0.0
H259 H 0.85577 0.9026 0.90486 0.0
H260 H 0.86072 0.83368 0.94237 0.0
H261 H 0.91078 1.01447 0.97482 0.0
H262 H 0.96821 0.88518 0.92032 0.0
H263 H 0.95661 0.88384 1.00164 0.0
C264 C 0.94674 0.106 0.65077 0.0
C265 C 0.93444 0.12112 0.66749 0.0
N266 N 0.91455 0.1313 0.65574 0.0
N267 N 0.93529 0.10582 0.6278 0.0
C268 C 0.91544 0.12142 0.63147 0.0
H269 H 0.96304 0.09525 0.6553 0.0
Co270 Co 0.94906 0.08407 0.60096 0.0
C271 C 0.92131 0.09683 0.55563 0.0
O272 O 0.94296 0.09907 0.5442 0.0
N273 N 0.96313 0.06131 0.57443 0.0
C274 C 0.96052 0.03028 0.5456 0.0
C275 C 0.94764 0.04467 0.56246 0.0
C276 C 0.9861 0.05578 0.56423 0.0
N277 N 0.98496 0.03692 0.54624 0.0
O278 O 0.96584 0.11244 0.58723 0.0
H279 H 0.92779 0.04287 0.56587 0.0
H280 H 1.0033 0.06545 0.5698 0.0
O281 O 0.92053 0.09066 0.57908 0.0
C282 C 0.98573 0.12098 0.59783 0.0
O283 O 0.99729 0.10709 0.61463 0.0
N284 N 0.93305 0.05692 0.61607 0.0
C285 C 0.91382 0.0227 0.65092 0.0
C286 C 0.89777 0.03745 0.63628 0.0
C287 C 0.9078 0.05468 0.61904 0.0
C288 C 0.94881 0.04162 0.62872 0.0
C289 C 0.9396 0.0243 0.64621 0.0
H290 H 0.89537 0.06732 0.60953 0.0
H291 H 0.96879 0.04419 0.62659 0.0
H292 H 0.90188 0.1254 0.61666 0.0
H293 H 0.93969 0.12379 0.68729 0.0
H294 H 0.95229 1.01545 0.534 0.0
H295 H 0.87777 0.03674 0.63918 0.0
H296 H 0.95279 1.01374 0.65736 0.0
C297 C 0.6299 0.11482 0.37738 0.0
C298 C 0.61568 0.09887 0.39194 0.0
N299 N 0.61986 0.10393 0.41679 0.0
N300 N 0.6441 0.13023 0.39225 0.0
C301 C 0.63747 0.123 0.41648 0.0
H302 H 0.62862 0.11585 0.35691 0.0
Co303 Co 0.66223 0.15831 0.37611 0.0
C304 C 0.71034 0.16618 0.40262 0.0
O305 O 0.70782 0.1903 0.39955 0.0
N306 N 0.67886 0.18687 0.35827 0.0
C307 C 0.68166 0.22401 0.33867 0.0
C308 C 0.66733 0.20867 0.35387 0.0
C309 C 0.70067 0.18982 0.34475 0.0
N310 N 0.70281 0.21247 0.33279 0.0
O311 O 0.67235 0.13648 0.34943 0.0
H312 H 0.64897 0.21322 0.36021 0.0
H313 H 0.71426 0.17532 0.34298 0.0
O314 O 0.69301 0.15101 0.39487 0.0
C315 C 0.66235 0.13904 0.32748 0.0
O316 O 0.64906 0.1589 0.32311 0.0
N317 N 0.6504 0.17902 0.40198 0.0
C318 C 0.62348 0.2056 0.4377 0.0
C319 C 0.64627 0.19505 0.44447 0.0
C320 C 0.6592 0.18137 0.42649 0.0
C321 C 0.62768 0.18814 0.39554 0.0
C322 C 0.61418 0.20197 0.41284 0.0
H323 H 0.67524 0.17151 0.43313 0.0
H324 H 0.61989 0.18439 0.37676 0.0
H325 H 0.64431 0.13234 0.43355 0.0
H326 H 0.60264 0.08489 0.38443 0.0
H327 H 0.67658 0.2423 0.33193 0.0
H328 H 0.65354 0.19646 0.46378 0.0
H329 H 0.59656 0.20965 0.40675 0.0
C330 C 0.61229 0.91159 0.17764 0.0
C331 C 0.62697 0.89738 0.19328 0.0
N332 N 0.62418 0.87314 0.18681 0.0
N333 N 0.59933 0.89705 0.16088 0.0
C334 C 0.60705 0.8734 0.16702 0.0
H335 H 0.61193 0.93172 0.17794 0.0
Co336 Co 0.57957 0.91423 0.13423 0.0
C337 C 0.54312 0.87644 0.15239 0.0
O338 O 0.54669 0.88332 0.17622 0.0
N339 N 0.56097 0.93285 0.10743 0.0
C340 C 0.559 0.95601 0.07192 0.0
C341 C 0.57413 0.94257 0.08783 0.0
C342 C 0.53736 0.94184 0.10299 0.0
N343 N 0.53566 0.9559 0.08114 0.0
O344 O 0.56369 0.93301 0.16033 0.0
H345 H 0.59402 0.94051 0.08543 0.0
H346 H 0.52183 0.93838 0.11561 0.0
O347 O 0.55426 0.88826 0.13467 0.0
C348 C 0.56965 0.95618 0.16051 0.0
O349 O 0.58309 0.96524 0.14176 0.0
N350 N 0.59625 0.89684 0.10902 0.0
C351 C 0.62367 0.87938 0.06838 0.0
C352 C 0.5976 0.87644 0.06834 0.0
C353 C 0.58417 0.8852 0.08904 0.0
C354 C 0.62162 0.89931 0.10956 0.0
C355 C 0.63573 0.89035 0.08962 0.0
H356 H 0.56401 0.88449 0.08804 0.0
H357 H 0.63092 0.9095 0.12489 0.0
H358 H 0.60114 0.85688 0.15646 0.0
H359 H 0.63918 0.90461 0.20828 0.0
H360 H 0.56503 0.96588 0.05502 0.0
H361 H 0.58769 0.86859 0.05196 0.0
H362 H 0.65578 0.89369 0.08997 0.0
C363 C 0.454 0.61828 0.14809 0.0
C364 C 0.44099 0.63451 0.16311 0.0
N365 N 0.4172 0.63589 0.15448 0.0
N366 N 0.43915 0.60888 0.12932 0.0
C367 C 0.41658 0.61994 0.13387 0.0
H368 H 0.47334 0.61348 0.15086 0.0
Co369 Co 0.45314 0.58492 0.10474 0.0
C370 C 0.4205 0.58893 0.06053 0.0
O371 O 0.44062 0.59106 0.04653 0.0
N372 N 0.46766 0.56033 0.0803 0.0
C373 C 0.46686 0.52566 0.05619 0.0
C374 C 0.45348 0.54071 0.07201 0.0
C375 C 0.49039 0.55608 0.06891 0.0
N376 N 0.49035 0.53498 0.05374 0.0
O377 O 0.4663 0.61247 0.08627 0.0
H378 H 0.43424 0.53728 0.07732 0.0
H379 H 0.50663 0.56825 0.0716 0.0
O380 O 0.42263 0.58614 0.08458 0.0
C381 C 0.48719 0.62201 0.09345 0.0
O382 O 0.50199 0.60866 0.10783 0.0
N383 N 0.44066 0.55875 0.12445 0.0
C384 C 0.42648 0.5261 0.16306 0.0
C385 C 0.40846 0.53928 0.14934 0.0
C386 C 0.41594 0.55559 0.13004 0.0
C387 C 0.45833 0.54527 0.13672 0.0
C388 C 0.45162 0.52861 0.15599 0.0
H389 H 0.40199 0.56674 0.12078 0.0
H390 H 0.47787 0.54851 0.13248 0.0
H391 H 0.40004 0.6165 0.12221 0.0
H392 H 0.44858 0.64422 0.17966 0.0
H393 H 0.45966 0.50858 0.04754 0.0
H394 H 0.38888 0.53786 0.15428 0.0
H395 H 0.46615 0.51913 0.16642 0.0
C396 C 0.11852 0.66061 0.90356 0.0
C397 C 0.10102 0.64786 0.91786 0.0
N398 N 0.11127 0.62718 0.92762 0.0
N399 N 0.1403 0.64852 0.90384 0.0
C400 C 0.13532 0.62808 0.91886 0.0
H401 H 0.11527 0.67749 0.8929 0.0
Co402 Co 0.16742 0.66035 0.8822 0.0
C403 C 0.21448 0.6488 0.90812 0.0
O404 O 0.22393 0.67005 0.89982 0.0
N405 N 0.19429 0.67237 0.85895 0.0
C406 C 0.22666 0.66867 0.83253 0.0
C407 C 0.20918 0.65612 0.84705 0.0
C408 C 0.20335 0.69515 0.85051 0.0
N409 N 0.2233 0.6934 0.83456 0.0
O410 O 0.16201 0.63147 0.86156 0.0
H411 H 0.20788 0.63608 0.8492 0.0
H412 H 0.19603 0.71284 0.85627 0.0
O413 O 0.19172 0.64256 0.90315 0.0
C414 C 0.14806 0.63504 0.84219 0.0
O415 O 0.14059 0.65777 0.83753 0.0
N416 N 0.17068 0.68909 0.9021 0.0
C417 C 0.16466 0.73285 0.92987 0.0
C418 C 0.17488 0.71178 0.94144 0.0
C419 C 0.17725 0.68986 0.92733 0.0
C420 C 0.16072 0.70932 0.89062 0.0
C421 C 0.15787 0.73146 0.90398 0.0
H422 H 0.18293 0.67327 0.93719 0.0
H423 H 0.15382 0.70781 0.8712 0.0
H424 H 0.14867 0.61361 0.92239 0.0
H425 H 0.08192 0.65336 0.92063 0.0
H426 H 0.24081 0.66003 0.82117 0.0
H427 H 0.17978 0.71182 0.96151 0.0
H428 H 0.14876 0.74675 0.89449 0.0
C429 C 0.11418 0.41397 0.6764 0.0
C430 C 0.12946 0.40049 0.69218 0.0
N431 N 0.12621 0.37597 0.68716 0.0
N432 N 0.10059 0.39862 0.66092 0.0
C433 C 0.10841 0.37529 0.66804 0.0
H434 H 0.11374 0.43409 0.6757 0.0
Co435 Co 0.07978 0.41376 0.634 0.0
C436 C 0.03272 0.38192 0.6389 0.0
O437 O 1.01656 0.39993 0.63889 0.0
N438 N 0.06009 0.43067 0.60648 0.0
C439 C 0.05808 0.45214 0.56981 0.0
C440 C 0.07268 0.43798 0.58548 0.0
C441 C 0.03728 0.44186 0.60286 0.0
N442 N 0.03562 0.45508 0.58046 0.0
O443 O 0.06398 0.43323 0.65944 0.0
H444 H 0.09211 0.43434 0.58201 0.0
H445 H 0.02285 0.44188 0.61708 0.0
O446 O 0.056 0.38686 0.63743 0.0
C447 C 0.06968 0.45643 0.6591 0.0
O448 O 0.08286 0.46527 0.64004 0.0
N449 N 0.09623 0.39528 0.60947 0.0
C450 C 0.12262 0.37665 0.5687 0.0
C451 C 0.09692 0.37161 0.57065 0.0
C452 C 0.08401 0.38094 0.59145 0.0
C453 C 0.12136 0.39953 0.60832 0.0
C454 C 0.13498 0.39014 0.58822 0.0
H455 H 0.06395 0.37824 0.59199 0.0
H456 H 0.13064 0.41151 0.62227 0.0
H457 H 0.10216 0.35829 0.65856 0.0
H458 H 0.14241 0.40835 0.70621 0.0
H459 H 0.06403 0.46032 0.55199 0.0
H460 H 0.08677 0.36159 0.55569 0.0
H461 H 0.1547 0.395 0.58701 0.0
C462 C 0.59296 0.64561 0.71089 0.0
C463 C 0.57471 0.63298 0.69692 0.0
N464 N 0.58455 0.62499 0.67493 0.0
N465 N 0.61459 0.64617 0.69801 0.0
C466 C 0.60891 0.63312 0.67614 0.0
H467 H 0.59053 0.65373 0.72952 0.0
Co468 Co 0.64473 0.66213 0.71132 0.0
C469 C 0.66464 0.68639 0.66573 0.0
O470 O 0.66684 0.70771 0.67805 0.0
N471 N 0.67528 0.67816 0.725 0.0
C472 C 0.71617 0.68656 0.7305 0.0
C473 C 0.69844 0.67264 0.71711 0.0
C474 C 0.67981 0.69597 0.74342 0.0
N475 N 0.70464 0.70138 0.7472 0.0
O476 O 0.62897 0.69337 0.7105 0.0
H477 H 0.70235 0.65932 0.70228 0.0
H478 H 0.66534 0.70461 0.75425 0.0
O479 O 0.65608 0.66708 0.67704 0.0
C480 C 0.61919 0.70108 0.73093 0.0
O481 O 0.6204 0.68727 0.75154 0.0
N482 N 0.65928 0.63104 0.71338 0.0
C483 C 0.67543 0.58282 0.72186 0.0
C484 C 0.67758 0.59371 0.69771 0.0
C485 C 0.66916 0.61785 0.69376 0.0
C486 C 0.65744 0.62093 0.73702 0.0
C487 C 0.66538 0.5968 0.74172 0.0
H488 H 0.67031 0.62556 0.67484 0.0
H489 H 0.64931 0.63161 0.7522 0.0
H490 H 0.62229 0.62982 0.66129 0.0
H491 H 0.55562 0.62955 0.70281 0.0
H492 H 0.73617 0.686 0.72782 0.0
H493 H 0.68506 0.58341 0.68187 0.0
H494 H 0.66369 0.58916 0.76072 0.0
C495 C 0.36359 0.37258 0.46206 0.0
C496 C 0.35112 0.35476 0.44755 0.0
N497 N 0.34593 0.3642 0.42431 0.0
N498 N 0.36688 0.39359 0.4484 0.0
C499 C 0.35561 0.38803 0.42544 0.0
H500 H 0.36961 0.37044 0.48165 0.0
Co501 Co 0.38269 0.42308 0.46296 0.0
C502 C 0.4115 0.44534 0.42099 0.0
O503 O 0.43089 0.44982 0.43605 0.0
N504 N 0.39835 0.45343 0.47813 0.0
C505 C 0.40407 0.49428 0.48623 0.0
C506 C 0.39058 0.47658 0.47239 0.0
C507 C 0.41729 0.45808 0.49555 0.0
N508 N 0.421 0.48278 0.50095 0.0
O509 O 0.35198 0.43921 0.45857 0.0
H510 H 0.37592 0.48056 0.45874 0.0
H511 H 0.4282 0.44388 0.50455 0.0
O512 O 0.39202 0.4342 0.42948 0.0
C513 C 0.33821 0.43962 0.47806 0.0
O514 O 0.34798 0.43372 0.50026 0.0
N515 N 0.41167 0.4054 0.46827 0.0
C516 C 0.45002 0.37407 0.48198 0.0
C517 C 0.44515 0.37921 0.45624 0.0
C518 C 0.42558 0.39479 0.44971 0.0
C519 C 0.41523 0.39924 0.49319 0.0
C520 C 0.43483 0.38421 0.50059 0.0
H521 H 0.42107 0.39744 0.42982 0.0
H522 H 0.40261 0.40608 0.5074 0.0
H523 H 0.35447 0.40122 0.40992 0.0
H524 H 0.34568 0.33633 0.45411 0.0
H525 H 0.40175 0.51425 0.48522 0.0
H526 H 0.45613 0.37096 0.44136 0.0
H527 H 0.43754 0.37984 0.52056 0.0
H528 H 0.21433 0.20428 0.28511 0.0
H529 H 0.24047 0.22844 0.31566 0.0
H530 H 0.2261 0.29564 0.27367 0.0
H531 H 0.20026 0.27183 0.24342 0.0
H532 H 0.27304 0.29669 0.28536 0.0
H533 H 0.19937 0.28069 0.33442 0.0
H534 H 0.16634 0.25491 0.35453 0.0
H535 H 0.22174 0.21683 0.3985 0.0
H536 H 0.25514 0.24217 0.3784 0.0
H537 H 0.31907 0.38366 0.38411 0.0
H538 H 0.29333 0.36037 0.35235 0.0
H539 H 0.315 0.29112 0.38648 0.0
H540 H 0.34132 0.31389 0.41714 0.0
H541 H 0.26404 0.29175 0.37904 0.0
H542 H 0.33741 0.30681 0.32999 0.0
H543 H 0.3711 0.3297 0.30768 0.0
H544 H 0.31667 0.36859 0.26324 0.0
H545 H 0.28261 0.34613 0.28551 0.0
C546 C 0.21649 0.22422 0.28251 0.0
C547 C 0.2051 0.23579 0.26137 0.0
C548 C 0.23155 0.23817 0.30011 0.0
C549 C 0.23552 0.26422 0.29736 0.0
C550 C 0.22383 0.27571 0.27645 0.0
C551 C 0.20892 0.26186 0.25894 0.0
C552 C 0.25204 0.27958 0.31566 0.0
C553 C 0.27067 0.29583 0.30583 0.0
C554 C 0.24979 0.27839 0.34259 0.0
C555 C 0.22976 0.26314 0.3547 0.0
C556 C 0.20452 0.26668 0.34823 0.0
C557 C 0.18573 0.25218 0.35966 0.0
C558 C 0.19194 0.2342 0.37773 0.0
C559 C 0.21696 0.23074 0.38447 0.0
C560 C 0.23582 0.24518 0.37308 0.0
C561 C 0.3187 0.36349 0.38464 0.0
C562 C 0.33221 0.35093 0.40379 0.0
C563 C 0.3038 0.35008 0.36644 0.0
C564 C 0.30179 0.32374 0.36694 0.0
C565 C 0.31575 0.31131 0.38562 0.0
C566 C 0.33089 0.32455 0.40337 0.0
C567 C 0.28488 0.30892 0.34868 0.0
C568 C 0.26622 0.29275 0.35855 0.0
C569 C 0.2871 0.31021 0.32179 0.0
C570 C 0.30745 0.32498 0.30963 0.0
C571 C 0.33261 0.32051 0.31573 0.0
C572 C 0.35177 0.33325 0.30294 0.0
C573 C 0.34602 0.35043 0.28391 0.0
C574 C 0.32109 0.35515 0.27786 0.0
C575 C 0.30185 0.34244 0.29059 0.0
H576 H 0.36089 0.36027 0.27402 0.0
H577 H 0.17736 0.22299 0.38655 0.0
H578 H 0.97865 0.01726 0.49849 0.0
H579 H 1.00745 0.99336 0.47322 0.0
H580 H 0.06458 1.00434 0.53085 0.0
H581 H 0.03531 0.02876 0.55658 0.0
H582 H 0.08691 1.00559 0.48531 0.0
H583 H 0.02891 0.94608 0.52073 0.0
H584 H 0.98741 0.92778 0.5305 0.0
H585 H 0.97057 0.92083 0.45058 0.0
H586 H 1.01186 0.9394 0.44032 0.0
H587 H 0.1655 0.90996 0.44066 0.0
H588 H 0.13684 0.93519 0.46432 0.0
H589 H 0.08116 0.92488 0.40518 0.0
H590 H 0.11047 0.89945 0.38064 0.0
H591 H 0.058 0.92351 0.45085 0.0
H592 H 0.11508 0.98247 0.41487 0.0
H593 H 0.15612 1.0012 0.40405 0.0
H594 H 0.17424 1.00968 0.48356 0.0
H595 H 0.1334 0.99071 0.49487 0.0
C596 C 0.99727 1.01467 0.50614 0.0
C597 C 1.00406 0.02506 0.5302 0.0
C598 C 1.01398 1.00066 0.49143 0.0
C599 C 0.03854 0.99589 0.49989 0.0
C600 C 0.04589 1.00714 0.52347 0.0
C601 C 0.02902 0.02137 0.53834 0.0
C602 C 0.05597 0.97925 0.48414 0.0
C603 C 0.08052 0.98749 0.47824 0.0
C604 C 0.04816 0.95562 0.47368 0.0
C605 C 0.02339 0.94434 0.47977 0.0
C606 C 1.01629 0.9408 0.50524 0.0
C607 C 0.99282 0.93036 0.51087 0.0
C608 C 0.97634 0.9232 0.49117 0.0
C609 C 0.98334 0.92641 0.46581 0.0
C610 C 1.00678 0.93687 0.46008 0.0
C611 C 0.1474 0.9131 0.43207 0.0
C612 C 0.14109 0.90256 0.4079 0.0
C613 C 0.13069 0.92783 0.446 0.0
C614 C 0.10649 0.93299 0.43681 0.0
C615 C 0.09958 0.92176 0.41311 0.0
C616 C 0.11651 0.90697 0.39891 0.0
C617 C 0.08893 0.94982 0.45213 0.0
C618 C 0.06438 0.9416 0.45794 0.0
C619 C 0.09669 0.97352 0.46238 0.0
C620 C 0.12126 0.98495 0.45572 0.0
C621 C 0.12789 0.98816 0.43005 0.0
C622 C 0.1511 0.99885 0.42382 0.0
C623 C 0.1678 1.00657 0.4431 0.0
C624 C 0.16129 1.00366 0.46865 0.0
C625 C 0.1381 0.99297 0.47498 0.0
H626 H 0.18576 1.01484 0.43825 0.0
H627 H 0.95817 0.91513 0.49556 0.0
H628 H 0.20984 0.74 0.81769 0.0
H629 H 0.23559 0.77015 0.79325 0.0
H630 H 0.29824 0.7215 0.79948 0.0
H631 H 0.27273 0.69155 0.82311 0.0
H632 H 0.27608 0.79891 0.7976 0.0
H633 H 0.33585 0.7237 0.74939 0.0
H634 H 0.33162 0.6799 0.73511 0.0
H635 H 0.25209 0.68703 0.72814 0.0
H636 H 0.25587 0.73094 0.74204 0.0
H637 H 0.37972 0.86146 0.73284 0.0
H638 H 0.35158 0.8369 0.76054 0.0
H639 H 0.32026 0.7992 0.69444 0.0
H640 H 0.34865 0.82294 0.66726 0.0
H641 H 0.32462 0.76585 0.72573 0.0
H642 H 0.28839 0.84584 0.73532 0.0
H643 H 0.28703 0.89072 0.74536 0.0
H644 H 0.31135 0.87627 0.82205 0.0
H645 H 0.31301 0.83127 0.8124 0.0
C646 C 0.22915 0.73581 0.814 0.0
C647 C 0.23881 0.71285 0.82223 0.0
C648 C 0.24401 0.75316 0.7999 0.0
C649 C 0.26908 0.74823 0.79358 0.0
C650 C 0.27894 0.72586 0.803 0.0
C651 C 0.26415 0.70854 0.81676 0.0
C652 C 0.28482 0.76571 0.77673 0.0
C653 C 0.2867 0.79155 0.78194 0.0
C654 C 0.29857 0.75685 0.75563 0.0
C655 C 0.29614 0.73053 0.74701 0.0
C656 C 0.31748 0.71594 0.74472 0.0
C657 C 0.31515 0.69109 0.73671 0.0
C658 C 0.29159 0.68067 0.7308 0.0
C659 C 0.27031 0.6951 0.7328 0.0
C660 C 0.27254 0.71996 0.74077 0.0
C661 C 0.36659 0.84818 0.72421 0.0
C662 C 0.36679 0.8443 0.6976 0.0
C663 C 0.3503 0.834 0.74015 0.0
C664 C 0.33325 0.81574 0.73003 0.0
C665 C 0.3331 0.81261 0.70333 0.0
C666 C 0.34947 0.82643 0.68757 0.0
C667 C 0.31632 0.79916 0.7467 0.0
C668 C 0.31417 0.77334 0.74145 0.0
C669 C 0.30184 0.80823 0.76722 0.0
C670 C 0.30106 0.83524 0.77306 0.0
C671 C 0.29362 0.85226 0.75427 0.0
C672 C 0.29275 0.87771 0.75991 0.0
C673 C 0.29917 0.88636 0.78431 0.0
C674 C 0.30641 0.86955 0.80315 0.0
C675 C 0.30728 0.84406 0.79762 0.0
H676 H 0.29846 0.90607 0.78865 0.0
H677 H 0.28984 0.66142 0.72463 0.0
H678 H 0.37636 0.12074 0.99554 0.0
H679 H 0.4016 0.09073 1.01838 0.0
H680 H 0.41996 0.05571 0.94731 0.0
H681 H 0.39373 0.08573 0.92422 0.0
H682 H 0.41716 0.02017 0.98031 0.0
H683 H 0.46218 0.09792 0.98553 0.0
H684 H 0.46912 0.14273 0.99454 0.0
H685 H 0.4522 0.13042 0.07333 0.0
H686 H 0.44484 0.08556 0.06473 0.0
H687 H 0.52445 0.95794 0.03068 0.0
H688 H 0.49471 0.98447 1.00863 0.0
H689 H 0.47011 1.01252 0.08081 0.0
H690 H 0.50029 0.98566 0.10309 0.0
H691 H 0.47592 0.05116 0.04764 0.0
H692 H 0.43266 0.97217 0.04146 0.0
H693 H 0.42763 0.92737 0.03138 0.0
H694 H 0.44367 0.94226 0.95285 0.0
H695 H 0.44913 0.98713 0.96252 0.0
C696 C 0.38572 0.10674 0.98455 0.0
C697 C 0.3829 0.10622 0.9577 0.0
C698 C 0.40054 0.08943 0.99782 0.0
C699 C 0.41388 0.07089 0.98499 0.0
C700 C 0.41037 0.06968 0.95815 0.0
C701 C 0.39517 0.08696 0.94478 0.0
C702 C 0.43122 0.05315 0.99964 0.0
C703 C 0.43019 0.02722 0.99474 0.0
C704 C 0.44831 0.06148 1.01917 0.0
C705 C 0.45271 0.08842 0.02443 0.0
C706 C 0.45977 0.1048 1.00475 0.0
C707 C 0.4638 0.1302 1.00978 0.0
C708 C 0.46103 0.13943 0.03448 0.0
C709 C 0.45429 0.12325 0.05421 0.0
C710 C 0.45021 0.09783 0.04926 0.0
C711 C 0.51247 0.96941 0.04203 0.0
C712 C 0.51488 0.96915 0.06891 0.0
C713 C 0.49523 0.98474 0.02925 0.0
C714 C 0.47952 1.00082 0.04264 0.0
C715 C 0.48168 1.00047 0.06961 0.0
C716 C 0.49885 0.98478 0.08252 0.0
C717 C 0.46175 0.01828 0.02835 0.0
C718 C 0.46279 0.04416 0.03327 0.0
C719 C 0.4449 1.00992 1.00867 0.0
C720 C 0.44152 0.98299 1.00277 0.0
C721 C 0.43529 0.96587 0.02207 0.0
C722 C 0.43233 0.94047 1.01643 0.0
C723 C 0.43538 0.93197 0.99151 0.0
C724 C 0.44134 0.94887 0.97216 0.0
C725 C 0.44434 0.97429 0.9777 0.0
H726 H 0.43309 0.91229 0.98718 0.0
H727 H 0.46417 0.1591 0.03834 0.0
H728 H 0.36573 0.62831 0.15534 0.0
H729 H 0.33482 0.65285 0.17838 0.0
H730 H 0.3934 0.70402 0.20353 0.0
H731 H 0.42398 0.67955 0.1811 0.0
H732 H 0.36551 0.69912 0.24175 0.0
H733 H 0.34319 0.71526 0.15374 0.0
H734 H 0.33004 0.70361 0.11001 0.0
H735 H 0.26357 0.66775 0.13878 0.0
H736 H 0.2765 0.67889 0.1827 0.0
H737 H 0.2848 0.79476 0.29149 0.0
H738 H 0.31575 0.76974 0.26902 0.0
H739 H 0.25653 0.72091 0.24071 0.0
H740 H 0.22596 0.74605 0.26238 0.0
H741 H 0.28478 0.72441 0.20411 0.0
H742 H 0.30559 0.70645 0.29092 0.0
H743 H 0.31772 0.71557 0.33552 0.0
H744 H 0.38547 0.75187 0.3105 0.0
H745 H 0.37358 0.74321 0.26571 0.0
C746 C 0.37205 0.64493 0.1655 0.0
C747 C 0.39782 0.65147 0.1661 0.0
C748 C 0.35416 0.65923 0.17885 0.0
C749 C 0.36113 0.68098 0.19308 0.0
C750 C 0.38685 0.68754 0.19325 0.0
C751 C 0.40462 0.67327 0.18016 0.0
C752 C 0.34229 0.69678 0.20799 0.0
C753 C 0.34804 0.70483 0.23317 0.0
C754 C 0.31875 0.70418 0.1979 0.0
C755 C 0.31093 0.69769 0.1715 0.0
C756 C 0.32584 0.70477 0.15073 0.0
C757 C 0.31842 0.69826 0.12591 0.0
C758 C 0.29601 0.68488 0.12163 0.0
C759 C 0.28094 0.67806 0.14214 0.0
C760 C 0.2883 0.68448 0.16698 0.0
C761 C 0.27837 0.77851 0.28079 0.0
C762 C 0.25246 0.77282 0.27905 0.0
C763 C 0.29627 0.76394 0.26775 0.0
C764 C 0.28914 0.74272 0.25275 0.0
C765 C 0.26325 0.73696 0.25157 0.0
C766 C 0.24549 0.75155 0.26427 0.0
C767 C 0.30797 0.7268 0.23791 0.0
C768 C 0.30224 0.71875 0.21273 0.0
C769 C 0.33138 0.71913 0.24812 0.0
C770 C 0.33855 0.72444 0.27497 0.0
C771 C 0.32298 0.71654 0.29493 0.0
C772 C 0.32983 0.7216 0.32024 0.0
C773 C 0.35232 0.73436 0.32583 0.0
C774 C 0.36803 0.74203 0.30613 0.0
C775 C 0.36126 0.73704 0.28078 0.0
H776 H 0.35759 0.73825 0.34544 0.0
H777 H 0.29023 0.67981 0.10246 0.0
H778 H 0.46666 0.9711 0.5606 0.0
H779 H 0.49058 0.99428 0.52823 0.0
H780 H 0.54639 1.01455 0.58494 0.0
H781 H 0.52252 0.99199 0.61707 0.0
H782 H 0.54141 0.05324 0.55823 0.0
H783 H 0.55358 0.96829 0.53354 0.0
H784 H 0.54108 0.92537 0.52098 0.0
H785 H 0.50183 0.95339 0.45563 0.0
H786 H 0.51385 0.99651 0.46799 0.0
H787 H 0.63408 0.09875 0.46735 0.0
H788 H 0.61128 0.07591 0.501 0.0
H789 H 0.55118 0.05914 0.44789 0.0
H790 H 0.57331 0.08181 0.41488 0.0
H791 H 0.55949 0.01841 0.47313 0.0
H792 H 0.54771 0.10357 0.49833 0.0
H793 H 0.5612 0.14623 0.51083 0.0
H794 H 0.60103 0.11727 0.57536 0.0
H795 H 0.58804 0.07439 0.56304 0.0
C796 C 0.48413 0.98027 0.56615 0.0
C797 C 0.49228 0.97952 0.59182 0.0
C798 C 0.49801 0.99364 0.54748 0.0
C799 C 0.52082 1.00642 0.55362 0.0
C800 C 0.52898 1.00533 0.57921 0.0
C801 C 0.5151 0.99223 0.59781 0.0
C802 C 0.53613 0.02106 0.53388 0.0
C803 C 0.54556 0.0453 0.53979 0.0
C804 C 0.54165 1.0115 0.50932 0.0
C805 C 0.5344 0.98563 0.50184 0.0
C806 C 0.54214 0.9653 0.51659 0.0
C807 C 0.53516 0.94094 0.5095 0.0
C808 C 0.52061 0.93666 0.48756 0.0
C809 C 0.51306 0.95674 0.47264 0.0
C810 C 0.51997 0.98114 0.47967 0.0
C811 C 0.61592 0.09042 0.46289 0.0
C812 C 0.60605 0.09211 0.43788 0.0
C813 C 0.60275 0.07722 0.48226 0.0
C814 C 0.57918 0.06536 0.47737 0.0
C815 C 0.56928 0.06754 0.45255 0.0
C816 C 0.58225 0.08066 0.4334 0.0
C817 C 0.56467 0.05053 0.49748 0.0
C818 C 0.55539 0.02627 0.49163 0.0
C819 C 0.55941 0.06002 0.52211 0.0
C820 C 0.56713 0.08576 0.52961 0.0
C821 C 0.5595 0.10629 0.51508 0.0
C822 C 0.56703 0.13051 0.52215 0.0
C823 C 0.58203 0.13445 0.54383 0.0
C824 C 0.58946 0.11418 0.55854 0.0
C825 C 0.582 0.08992 0.55153 0.0
H826 H 0.58784 0.15321 0.54927 0.0
H827 H 0.51523 0.91779 0.4821 0.0
H828 H 0.21784 0.19717 0.82853 0.0
H829 H 0.19572 0.22642 0.80188 0.0
H830 H 0.26295 0.27146 0.79491 0.0
H831 H 0.28573 0.24158 0.82178 0.0
H832 H 0.22324 0.30173 0.79977 0.0
H833 H 0.23874 0.23269 0.74476 0.0
H834 H 0.23854 0.1885 0.73163 0.0
H835 H 0.15845 0.18498 0.73583 0.0
H836 H 0.15818 0.22908 0.74933 0.0
H837 H 0.17529 0.37817 0.70122 0.0
H838 H 0.19905 0.34838 0.72603 0.0
H839 H 0.13466 0.29862 0.72777 0.0
H840 H 0.11079 0.3286 0.70197 0.0
H841 H 0.17345 0.2706 0.72547 0.0
H842 H 0.15734 0.33863 0.7813 0.0
H843 H 0.15672 0.38251 0.79542 0.0
H844 H 0.23675 0.38768 0.79103 0.0
H845 H 0.23782 0.34391 0.77655 0.0
C846 C 0.22838 0.21299 0.82124 0.0
C847 C 0.25415 0.21623 0.82735 0.0
C848 C 0.21541 0.23001 0.80575 0.0
C849 C 0.22738 0.25131 0.79541 0.0
C850 C 0.25292 0.25526 0.80217 0.0
C851 C 0.26608 0.23804 0.81775 0.0
C852 C 0.21305 0.26908 0.77785 0.0
C853 C 0.21275 0.29484 0.7833 0.0
C854 C 0.19838 0.2606 0.75651 0.0
C855 C 0.19846 0.23413 0.74828 0.0
C856 C 0.22109 0.22245 0.74306 0.0
C857 C 0.22107 0.19742 0.73552 0.0
C858 C 0.1985 0.18393 0.73296 0.0
C859 C 0.17592 0.19545 0.73785 0.0
C860 C 0.17584 0.22047 0.74542 0.0
C861 C 0.16601 0.36088 0.70674 0.0
C862 C 0.14077 0.35622 0.69949 0.0
C863 C 0.17975 0.34371 0.72133 0.0
C864 C 0.16887 0.32108 0.73 0.0
C865 C 0.14388 0.31582 0.72189 0.0
C866 C 0.13009 0.33304 0.7069 0.0
C867 C 0.1836 0.30336 0.74734 0.0
C868 C 0.18396 0.27757 0.74189 0.0
C869 C 0.19819 0.31179 0.76882 0.0
C870 C 0.19763 0.33807 0.7776 0.0
C871 C 0.17479 0.34918 0.78318 0.0
C872 C 0.17436 0.37402 0.79127 0.0
C873 C 0.19668 0.3879 0.79406 0.0
C874 C 0.21948 0.37693 0.78883 0.0
C875 C 0.22001 0.35209 0.7807 0.0
H876 H 0.19631 0.40713 0.80032 0.0
H877 H 0.19852 0.16455 0.72712 0.0
H878 H 0.08108 0.12911 0.12847 0.0
H879 H 0.05526 0.10704 0.0961 0.0
H880 H 0.04203 0.04675 0.14872 0.0
H881 H 0.06825 0.06808 0.18048 0.0
H882 H 0.04771 0.02672 0.10484 0.0
H883 H 0.99721 0.09406 0.13318 0.0
H884 H 0.98715 0.13793 0.14163 0.0
H885 H 0.99567 0.15511 0.06231 0.0
H886 H 1.00609 0.11137 0.05344 0.0
H887 H 0.94397 0.96614 0.03951 0.0
H888 H 0.97206 0.98786 0.06999 0.0
H889 H 0.98096 0.04887 1.01726 0.0
H890 H 0.95228 0.02764 0.98736 0.0
H891 H 0.97828 0.06883 0.0605 0.0
H892 H 0.02821 1.00044 0.03228 0.0
H893 H 0.03691 0.95609 0.02454 0.0
H894 H 0.02875 0.94059 0.10426 0.0
H895 H 1.01976 0.98478 0.11244 0.0
C896 C 0.07287 0.11108 0.13313 0.0
C897 C 0.07678 0.1008 0.15756 0.0
C898 C 0.05776 0.09845 0.11456 0.0
C899 C 0.04598 0.07512 0.11975 0.0
C900 C 0.05052 0.06463 0.14387 0.0
C901 C 0.06552 0.07715 0.16233 0.0
C902 C 0.02892 0.06153 0.10049 0.0
C903 C 0.03242 0.03601 0.09538 0.0
C904 C 1.00896 0.07325 0.08743 0.0
C905 C 1.0027 0.09952 0.09271 0.0
C906 C 0.99712 0.10724 0.11758 0.0
C907 C 0.99132 0.13207 0.12243 0.0
C908 C 0.99085 0.14931 0.10253 0.0
C909 C 0.99609 0.14174 0.07771 0.0
C910 C 1.00193 0.11693 0.07276 0.0
C911 C 0.95206 0.98407 0.0343 0.0
C912 C 0.94562 0.99495 1.01075 0.0
C913 C 0.96836 0.99659 0.05182 0.0
C914 C 0.97937 0.02019 0.04619 0.0
C915 C 0.97297 0.0309 0.02256 0.0
C916 C 0.95643 0.01861 1.00528 0.0
C917 C 0.99708 0.03398 0.06475 0.0
C918 C 0.99367 0.05955 0.06979 0.0
C919 C 1.01711 0.02228 0.07777 0.0
C920 C 0.02309 0.99586 0.07293 0.0
C921 C 0.0282 0.98755 0.04814 0.0
C922 C 0.03318 0.96244 0.04368 0.0
C923 C 0.03328 0.94553 0.06389 0.0
C924 C 0.02861 0.95371 0.08862 0.0
C925 C 0.02361 0.97878 0.09319 0.0
H926 H 0.03697 0.92607 0.06043 0.0
H927 H 0.98635 0.16853 0.10633 0.0
H928 H 0.92263 0.15997 0.69869 0.0
H929 H 0.89396 0.18609 0.72137 0.0
H930 H 0.83689 0.17029 0.66477 0.0
H931 H 0.86593 0.14339 0.64167 0.0
H932 H 0.83374 0.21846 0.67864 0.0
H933 H 0.8376 0.14392 0.72842 0.0
H934 H 0.85731 0.11037 0.753 0.0
H935 H 0.88964 0.16452 0.80486 0.0
H936 H 0.87048 0.19843 0.78036 0.0
H937 H 0.73536 0.27047 0.75028 0.0
H938 H 0.76317 0.24299 0.72784 0.0
H939 H 0.81898 0.25392 0.78684 0.0
H940 H 0.79054 0.28155 0.80988 0.0
H941 H 0.82272 0.20793 0.77166 0.0
H942 H 0.82073 0.28234 0.72229 0.0
H943 H 0.80182 0.31674 0.69832 0.0
H944 H 0.76749 0.26411 0.6461 0.0
H945 H 0.78593 0.22935 0.66997 0.0
C946 C 0.90395 0.16146 0.69088 0.0
C947 C 0.89701 0.14857 0.66811 0.0
C948 C 0.88726 0.17676 0.7042 0.0
C949 C 0.86248 0.18022 0.69567 0.0
C950 C 0.8556 0.16815 0.67239 0.0
C951 C 0.87242 0.15261 0.65896 0.0
C952 C 0.84435 0.19646 0.71098 0.0
C953 C 0.83114 0.21571 0.6989 0.0
C954 C 0.84096 0.1941 0.73785 0.0
C955 C 0.85277 0.17375 0.75241 0.0
C956 C 0.8491 0.1487 0.74493 0.0
C957 C 0.86014 0.12961 0.75887 0.0
C958 C 0.87471 0.13532 0.78047 0.0
C959 C 0.87835 0.16013 0.78813 0.0
C960 C 0.8674 0.17929 0.77422 0.0
C961 C 0.75356 0.26731 0.75868 0.0
C962 C 0.76037 0.27896 0.78212 0.0
C963 C 0.7698 0.25141 0.7455 0.0
C964 C 0.79409 0.24639 0.75469 0.0
C965 C 0.80069 0.25724 0.77867 0.0
C966 C 0.78423 0.27317 0.79209 0.0
C967 C 0.81205 0.22995 0.73933 0.0
C968 C 0.82527 0.21067 0.7514 0.0
C969 C 0.81562 0.23241 0.71247 0.0
C970 C 0.80451 0.25323 0.69807 0.0
C971 C 0.809 0.27809 0.7058 0.0
C972 C 0.79839 0.29766 0.69222 0.0
C973 C 0.78341 0.29261 0.67074 0.0
C974 C 0.77906 0.26799 0.66277 0.0
C975 C 0.7896 0.24835 0.6763 0.0
H976 H 0.77521 0.30779 0.66025 0.0
H977 H 0.88312 0.12053 0.79135 0.0
H978 H 0.12808 0.5999 0.96853 0.0
H979 H 0.10312 0.57229 0.99637 0.0
H980 H 0.03817 0.58379 0.94882 0.0
H981 H 0.06274 0.61181 0.92189 0.0
H982 H 0.02171 0.58441 0.99263 0.0
H983 H 0.07541 0.52533 0.95381 0.0
H984 H 0.11553 0.50746 0.94139 0.0
H985 H 0.13734 0.50183 0.02012 0.0
H986 H 0.09745 0.51994 0.033 0.0
H987 H 0.94414 0.48799 0.05038 0.0
H988 H 0.96994 0.512 0.01994 0.0
H989 H 0.03293 0.50863 0.07158 0.0
H990 H 1.00758 0.4846 0.1015 0.0
H991 H 0.05005 0.50317 0.02539 0.0
H992 H 0.99565 0.56265 0.06343 0.0
H993 H 0.95506 0.58 0.07506 0.0
H994 H 0.93394 0.58381 0.99601 0.0
H995 H 0.9743 0.56619 0.98393 0.0
C996 C 0.10858 0.59625 0.96383 0.0
C997 C 0.09766 0.60833 0.94274 0.0
C998 C 0.09411 0.58028 0.97984 0.0
C999 C 0.06829 0.5753 0.97505 0.0
C1000 C 0.05773 0.58705 0.9536 0.0
C1001 C 0.07199 0.60318 0.93794 0.0
C1002 C 0.052 0.55865 0.99232 0.0
C1003 C 0.02798 0.56648 0.99932 0.0
C1004 C 0.05964 0.53519 1.00201 0.0
C1005 C 0.08357 0.52422 0.99435 0.0
C1006 C 0.08884 0.52042 0.96846 0.0
C1007 C 0.11152 0.51023 0.96135 0.0
C1008 C 0.12901 0.50358 0.97996 0.0
C1009 C 0.1238 0.50703 1.00573 0.0
C1010 C 0.10115 0.51723 1.01295 0.0
C1011 C 0.96354 0.49212 0.05514 0.0
C1012 C 0.97341 0.48433 0.0788 0.0
C1013 C 0.97838 0.50618 0.03773 0.0
C1014 C 1.0037 0.51282 0.04324 0.0
C1015 C 1.01366 0.50419 0.06647 0.0
C1016 C 0.99889 0.49042 0.08384 0.0
C1017 C 1.01983 0.52892 0.02543 0.0
C1018 C 0.04381 0.52104 1.01847 0.0
C1019 C 1.01208 0.55222 1.01558 0.0
C1020 C 0.98787 0.56285 0.0228 0.0
C1021 C 0.98227 0.56702 0.04854 0.0
C1022 C 0.95932 0.57693 0.05521 0.0
C1023 C 0.94191 0.58294 0.03629 0.0
C1024 C 0.94743 0.57911 1.01065 0.0
C1025 C 0.97034 0.56917 1.00388 0.0
H1026 H 0.92415 0.59061 0.04149 0.0
H1027 H 0.14656 0.4957 0.97441 0.0
H1028 H 0.71695 0.68478 0.31513 0.0
H1029 H 0.69529 0.71448 0.28862 0.0
H1030 H 0.75569 0.76805 0.29987 0.0
H1031 H 0.77736 0.73823 0.32774 0.0
H1032 H 0.71394 0.7928 0.30098 0.0
H1033 H 0.74253 0.73364 0.24055 0.0
H1034 H 0.74867 0.69207 0.22177 0.0
H1035 H 0.66919 0.6805 0.21497 0.0
H1036 H 0.66255 0.72188 0.23403 0.0
H1037 H 0.67189 0.87599 0.20545 0.0
H1038 H 0.69488 0.84516 0.22953 0.0
H1039 H 0.63329 0.79257 0.22045 0.0
H1040 H 0.60995 0.82387 0.19576 0.0
H1041 H 0.67573 0.76739 0.21808 0.0
H1042 H 0.64741 0.82676 0.27883 0.0
H1043 H 0.64163 0.86865 0.29701 0.0
H1044 H 0.72121 0.88 0.30276 0.0
H1045 H 0.72748 0.8383 0.28428 0.0
C1046 C 0.72587 0.70285 0.31231 0.0
C1047 C 0.74922 0.70869 0.32423 0.0
C1048 C 0.71336 0.72 0.29655 0.0
C1049 C 0.72357 0.74393 0.29138 0.0
C1050 C 0.74701 0.74991 0.30311 0.0
C1051 C 0.75965 0.73262 0.31905 0.0
C1052 C 0.70948 0.76245 0.27434 0.0
C1053 C 0.70602 0.78716 0.28268 0.0
C1054 C 0.69815 0.75563 0.25045 0.0
C1055 C 0.70205 0.73077 0.23894 0.0
C1056 C 0.72636 0.72216 0.23522 0.0
C1057 C 0.72993 0.69864 0.2245 0.0
C1058 C 0.70933 0.68363 0.21724 0.0
C1059 C 0.68512 0.69213 0.22063 0.0
C1060 C 0.68145 0.71563 0.23137 0.0
C1061 C 0.66296 0.85794 0.20849 0.0
C1062 C 0.63859 0.85294 0.19863 0.0
C1063 C 0.67631 0.8401 0.22258 0.0
C1064 C 0.66598 0.81626 0.22792 0.0
C1065 C 0.64201 0.81069 0.21714 0.0
C1066 C 0.62855 0.82868 0.20279 0.0
C1067 C 0.68023 0.7977 0.24474 0.0
C1068 C 0.68368 0.773 0.23637 0.0
C1069 C 0.69161 0.80453 0.26858 0.0
C1070 C 0.68791 0.82949 0.27996 0.0
C1071 C 0.66368 0.83825 0.28383 0.0
C1072 C 0.66031 0.86195 0.2942 0.0
C1073 C 0.68104 0.877 0.30097 0.0
C1074 C 0.70517 0.86834 0.29747 0.0
C1075 C 0.70864 0.84466 0.28707 0.0
H1076 H 0.67839 0.89536 0.30898 0.0
H1077 H 0.71214 0.66543 0.20895 0.0
H1078 H 0.92175 0.61712 0.44166 0.0
H1079 H 0.94534 0.58815 0.46741 0.0
H1080 H 0.878 0.54511 0.48163 0.0
H1081 H 0.85378 0.57499 0.45598 0.0
H1082 H 0.90603 0.54693 0.52539 0.0
H1083 H 0.92523 0.52458 0.44009 0.0
H1084 H 0.93817 0.53126 0.39565 0.0
H1085 H 1.00944 0.56046 0.42172 0.0
H1086 H 0.99679 0.55427 0.46634 0.0
H1087 H 0.984 0.44878 0.58065 0.0
H1088 H 0.95307 0.4734 0.55675 0.0
H1089 H 1.01226 0.52264 0.53092 0.0
H1090 H 0.04265 0.49842 0.55441 0.0
H1091 H 0.98471 0.51357 0.49191 0.0
H1092 H 0.96436 0.53822 0.57734 0.0
H1093 H 0.95131 0.5315 0.62174 0.0
H1094 H 0.88236 0.49719 0.59538 0.0
H1095 H 0.89516 0.50344 0.55079 0.0
C1096 C 0.91164 0.60163 0.4502 0.0
C1097 C 0.88546 0.59889 0.44645 0.0
C1098 C 0.92544 0.58467 0.46497 0.0
C1099 C 0.91397 0.56378 0.47671 0.0
C1100 C 0.88775 0.56081 0.47302 0.0
C1101 C 0.87379 0.5779 0.45801 0.0
C1102 C 0.92961 0.54553 0.49252 0.0
C1103 C 0.923 0.53935 0.51777 0.0
C1104 C 0.95224 0.53549 0.48338 0.0
C1105 C 0.95997 0.53914 0.45657 0.0
C1106 C 0.9436 0.53258 0.43635 0.0
C1107 C 0.95089 0.53625 0.41113 0.0
C1108 C 0.97459 0.54632 0.40587 0.0
C1109 C 0.99107 0.55268 0.42583 0.0
C1110 C 0.98386 0.54907 0.45109 0.0
C1111 C 0.99036 0.46511 0.57027 0.0
C1112 C 1.0162 0.47122 0.56963 0.0
C1113 C 0.97254 0.47933 0.55638 0.0
C1114 C 0.97985 0.5003 0.54148 0.0
C1115 C 1.00557 0.50664 0.54164 0.0
C1116 C 0.02318 0.49259 0.55534 0.0
C1117 C 0.96155 0.51538 0.52505 0.0
C1118 C 0.96769 0.521 0.49956 0.0
C1119 C 0.93855 0.5248 0.53401 0.0
C1120 C 0.93084 0.52103 0.56075 0.0
C1121 C 0.9465 0.52907 0.58101 0.0
C1122 C 0.93914 0.52537 0.60621 0.0
C1123 C 0.91606 0.51385 0.61138 0.0
C1124 C 0.90026 0.50607 0.59135 0.0
C1125 C 0.90755 0.50969 0.56611 0.0
H1126 H 0.91038 0.51101 0.6309 0.0
H1127 H 0.9802 0.54916 0.38633 0.0
H1128 H 0.68117 0.42581 0.9419 0.0
H1129 H 0.6519 0.45063 0.96545 0.0
H1130 H 0.59056 0.41654 0.92326 0.0
H1131 H 0.62028 0.39138 0.8991 0.0
H1132 H 0.57942 0.46361 0.93048 0.0
H1133 H 0.60902 0.40264 0.98943 0.0
H1134 H 0.64068 0.37957 1.0137 0.0
H1135 H 0.66606 0.44753 0.05009 0.0
H1136 H 0.63521 0.47114 0.02538 0.0
H1137 H 0.48332 0.50473 1.01199 0.0
H1138 H 0.51363 0.48185 0.98794 0.0
H1139 H 0.5733 0.51512 0.03317 0.0
H1140 H 0.54232 0.53765 0.05853 0.0
H1141 H 0.58596 0.469 0.02462 0.0
H1142 H 0.55867 0.53031 0.96575 0.0
H1143 H 0.52868 0.55486 0.94083 0.0
H1144 H 0.50017 0.48797 0.90459 0.0
H1145 H 0.52978 0.46297 0.92955 0.0
C1146 C 0.6615 0.42312 0.93751 0.0
C1147 C 0.6536 0.40577 0.9184 0.0
C1148 C 0.64445 0.43761 0.95134 0.0
C1149 C 0.61834 0.43552 0.94718 0.0
C1150 C 0.61034 0.41881 0.92749 0.0
C1151 C 0.62753 0.40425 0.91345 0.0
C1152 C 0.59986 0.45075 0.96319 0.0
C1153 C 0.58079 0.46432 0.9511 0.0
C1154 C 0.60143 0.45296 0.99034 0.0
C1155 C 0.61994 0.43872 1.00531 0.0
C1156 C 0.62153 0.41271 1.00241 0.0
C1157 C 0.63938 0.39954 1.01621 0.0
C1158 C 0.65549 0.41209 0.0333 0.0
C1159 C 0.65372 0.43784 0.0367 0.0
C1160 C 0.63608 0.45114 0.02276 0.0
C1161 C 0.50281 0.50736 1.01724 0.0
C1162 C 0.50977 0.52337 0.03785 0.0
C1163 C 0.52051 0.49424 1.00289 0.0
C1164 C 0.54647 0.49652 1.00784 0.0
C1165 C 0.55367 0.51264 0.02836 0.0
C1166 C 0.53577 0.52588 0.04293 0.0
C1167 C 0.56546 0.4818 0.99191 0.0
C1168 C 0.5846 0.4683 1.00401 0.0
C1169 C 0.56412 0.4798 0.96475 0.0
C1170 C 0.54629 0.49474 0.94971 0.0
C1171 C 0.54588 0.52082 0.9526 0.0
C1172 C 0.52897 0.53482 0.93845 0.0
C1173 C 0.51248 0.52298 0.92119 0.0
C1174 C 0.51293 0.49711 0.918 0.0
C1175 C 0.52979 0.48302 0.93212 0.0
H1176 H 0.49941 0.53385 0.91024 0.0
H1177 H 0.66929 0.40187 0.04399 0.0
H1178 H 0.68809 0.7462 0.76517 0.0
H1179 H 0.71097 0.77616 0.79319 0.0
H1180 H 0.77263 0.72615 0.7979 0.0
H1181 H 0.75003 0.69647 0.7702 0.0
H1182 H 0.76334 0.7449 0.84432 0.0
H1183 H 0.7741 0.77944 0.76011 0.0
H1184 H 0.75951 0.7963 0.71902 0.0
H1185 H 0.72192 0.85467 0.75814 0.0
H1186 H 0.73603 0.83795 0.7995 0.0
H1187 H 0.86088 0.81758 0.8981 0.0
H1188 H 0.83428 0.79287 0.86919 0.0
H1189 H 0.78458 0.85453 0.86133 0.0
H1190 H 0.81218 0.87986 0.88981 0.0
H1191 H 0.78372 0.83173 0.81805 0.0
H1192 H 0.77142 0.79883 0.90139 0.0
H1193 H 0.78368 0.78267 0.94357 0.0
H1194 H 0.82019 0.72158 0.90782 0.0
H1195 H 0.80843 0.73767 0.86544 0.0
C1196 C 0.70644 0.74151 0.77233 0.0
C1197 C 0.71711 0.71877 0.76511 0.0
C1198 C 0.71969 0.75882 0.78825 0.0
C1199 C 0.74391 0.75382 0.79772 0.0
C1200 C 0.75417 0.73082 0.791 0.0
C1201 C 0.74116 0.71377 0.77492 0.0
C1202 C 0.75872 0.77204 0.81468 0.0
C1203 C 0.76793 0.76379 0.83835 0.0
C1204 C 0.76426 0.79718 0.80773 0.0
C1205 C 0.75588 0.80728 0.7829 0.0
C1206 C 0.76255 0.79575 0.75996 0.0
C1207 C 0.7544 0.8053 0.73662 0.0
C1208 C 0.73973 0.8265 0.73597 0.0
C1209 C 0.73324 0.83823 0.75867 0.0
C1210 C 0.74132 0.82873 0.78206 0.0
C1211 C 0.84437 0.82604 0.89015 0.0
C1212 C 0.8387 0.85077 0.89668 0.0
C1213 C 0.82885 0.81168 0.87367 0.0
C1214 C 0.80651 0.82111 0.86348 0.0
C1215 C 0.8014 0.84635 0.86892 0.0
C1216 C 0.8173 0.86099 0.88521 0.0
C1217 C 0.78877 0.80443 0.84759 0.0
C1218 C 0.77901 0.81291 0.82414 0.0
C1219 C 0.78231 0.77954 0.8549 0.0
C1220 C 0.7893 0.76965 0.88029 0.0
C1221 C 0.78226 0.78211 0.90257 0.0
C1222 C 0.78908 0.77293 0.92649 0.0
C1223 C 0.80279 0.75115 0.92838 0.0
C1224 C 0.80962 0.73847 0.90633 0.0
C1225 C 0.80285 0.7476 0.88236 0.0
H1226 H 0.80807 0.74407 0.94691 0.0
H1227 H 0.73344 0.83387 0.71789 0.0
H1228 H 0.75317 0.21988 0.34145 0.0
H1229 H 0.78266 0.24446 0.31499 0.0
H1230 H 0.72429 0.25497 0.25909 0.0
H1231 H 0.69507 0.23084 0.28554 0.0
H1232 H 0.76759 0.24626 0.23512 0.0
H1233 H 0.74264 0.3011 0.30283 0.0
H1234 H 0.73809 0.31399 0.34763 0.0
H1235 H 0.81763 0.3116 0.35876 0.0
H1236 H 0.82262 0.29836 0.31408 0.0
H1237 H 0.8136 0.34501 0.15955 0.0
H1238 H 0.78973 0.31904 0.18909 0.0
H1239 H 0.85057 0.32408 0.24357 0.0
H1240 H 0.87428 0.35121 0.21396 0.0
H1241 H 0.8098 0.32257 0.26986 0.0
H1242 H 0.83619 0.26959 0.20323 0.0
H1243 H 0.84234 0.2555 0.15905 0.0
H1244 H 0.76287 0.25185 0.14667 0.0
H1245 H 0.75623 0.26625 0.19069 0.0
C1246 C 0.74683 0.22695 0.32325 0.0
C1247 C 0.72169 0.22293 0.31557 0.0
C1248 C 0.76366 0.24139 0.30817 0.0
C1249 C 0.75597 0.25211 0.28479 0.0
C1250 C 0.73109 0.24718 0.27681 0.0
C1251 C 0.71428 0.23318 0.29199 0.0
C1252 C 0.77323 0.26875 0.26873 0.0
C1253 C 0.77659 0.26304 0.24279 0.0
C1254 C 0.78595 0.29047 0.27842 0.0
C1255 C 0.78297 0.29847 0.30521 0.0
C1256 C 0.75914 0.30313 0.31489 0.0
C1257 C 0.75649 0.31053 0.34025 0.0
C1258 C 0.77755 0.31353 0.35606 0.0
C1259 C 0.80132 0.30921 0.34651 0.0
C1260 C 0.80408 0.30177 0.32117 0.0
C1261 C 0.82195 0.34077 0.17787 0.0
C1262 C 0.84609 0.35032 0.18409 0.0
C1263 C 0.80825 0.32555 0.19486 0.0
C1264 C 0.81827 0.31848 0.2187 0.0
C1265 C 0.8421 0.32877 0.22542 0.0
C1266 C 0.85576 0.34447 0.20844 0.0
C1267 C 0.80387 0.3003 0.23603 0.0
C1268 C 0.801 0.30571 0.26217 0.0
C1269 C 0.79186 0.27803 0.22664 0.0
C1270 C 0.79573 0.2692 0.20021 0.0
C1271 C 0.82002 0.26592 0.19104 0.0
C1272 C 0.8236 0.25787 0.16603 0.0
C1273 C 0.80301 0.25283 0.15005 0.0
C1274 C 0.7788 0.25578 0.15907 0.0
C1275 C 0.77512 0.26386 0.18406 0.0
H1276 H 0.80581 0.24661 0.13069 0.0
H1277 H 0.77546 0.31927 0.37568 0.0
H1278 H 0.41396 0.52472 0.5288 0.0
H1279 H 0.44367 0.54688 0.55678 0.0
H1280 H 0.49888 0.49172 0.54161 0.0
H1281 H 0.46848 0.46883 0.51411 0.0
H1282 H 0.50552 0.50491 0.58832 0.0
H1283 H 0.4988 0.55408 0.51358 0.0
H1284 H 0.47804 0.57701 0.47894 0.0
H1285 H 0.44634 0.62646 0.53358 0.0
H1286 H 0.46665 0.60361 0.5686 0.0
H1287 H 0.60171 0.5882 0.64356 0.0
H1288 H 0.57698 0.56254 0.61281 0.0
H1289 H 0.51143 0.60395 0.63061 0.0
H1290 H 0.53586 0.62933 0.66104 0.0
H1291 H 0.51413 0.59677 0.57975 0.0
H1292 H 0.52144 0.54455 0.65459 0.0
H1293 H 0.54485 0.5217 0.68747 0.0
H1294 H 0.57942 0.47822 0.62949 0.0
H1295 H 0.55642 0.50105 0.59622 0.0
C1296 C 0.43242 0.51724 0.53129 0.0
C1297 C 0.43871 0.495 0.51875 0.0
C1298 C 0.44964 0.53011 0.54734 0.0
C1299 C 0.4742 0.52173 0.55106 0.0
C1300 C 0.48032 0.49901 0.53918 0.0
C1301 C 0.46284 0.48582 0.52336 0.0
C1302 C 0.49313 0.53679 0.56714 0.0
C1303 C 0.50758 0.52494 0.58603 0.0
C1304 C 0.49628 0.56313 0.56471 0.0
C1305 C 0.48409 0.57699 0.54373 0.0
C1306 C 0.48728 0.56975 0.51822 0.0
C1307 C 0.4756 0.58274 0.49852 0.0
C1308 C 0.46083 0.60314 0.50406 0.0
C1309 C 0.45776 0.61063 0.52932 0.0
C1310 C 0.46938 0.59769 0.5491 0.0
C1311 C 0.5821 0.59197 0.64072 0.0
C1312 C 0.5709 0.61089 0.65505 0.0
C1313 C 0.56782 0.5771 0.62323 0.0
C1314 C 0.542 0.5809 0.61932 0.0
C1315 C 0.53113 0.60031 0.63309 0.0
C1316 C 0.54521 0.61486 0.65069 0.0
C1317 C 0.52602 0.56497 0.60115 0.0
C1318 C 0.51213 0.57671 0.58185 0.0
C1319 C 0.5238 0.53856 0.60293 0.0
C1320 C 0.53742 0.52469 0.62291 0.0
C1321 C 0.53417 0.53024 0.64884 0.0
C1322 C 0.54734 0.51727 0.66755 0.0
C1323 C 0.56368 0.49857 0.66057 0.0
C1324 C 0.56679 0.49274 0.63486 0.0
C1325 C 0.55368 0.50567 0.61608 0.0
H1326 H 0.57387 0.48857 0.67508 0.0
H1327 H 0.45181 0.61317 0.48878 0.0
H1328 H 0.17965 0.05325 0.24221 0.0
H1329 H 0.20105 0.01937 0.26386 0.0
H1330 H 0.25071 0.07275 0.30133 0.0
H1331 H 0.22885 0.10702 0.28002 0.0
H1332 H 0.27011 0.02292 0.27102 0.0
H1333 H 0.22469 0.05467 0.34129 0.0
H1334 H 0.18849 0.07195 0.36325 0.0
H1335 H 0.14472 1.00604 0.3448 0.0
H1336 H 0.1805 0.98859 0.32225 0.0
H1337 H 0.2448 0.90025 0.35353 0.0
H1338 H 0.25741 0.94431 0.3516 0.0
H1339 H 0.24945 0.94233 0.26973 0.0
H1340 H 0.23706 0.89846 0.27154 0.0
H1341 H 0.22386 0.97513 0.3369 0.0
H1342 H 0.27828 0.98852 0.24098 0.0
H1343 H 0.31463 0.97056 0.21996 0.0
H1344 H 0.34281 0.94572 0.29225 0.0
H1345 H 0.30685 0.96387 0.31382 0.0
C1346 C 0.19521 0.05775 0.25495 0.0
C1347 C 0.20272 0.08263 0.25945 0.0
C1348 C 0.20732 0.03847 0.26734 0.0
C1349 C 0.22732 0.04371 0.28415 0.0
C1350 C 0.23523 0.06849 0.28843 0.0
C1351 C 0.22276 0.08791 0.27635 0.0
C1352 C 0.2394 0.02276 0.29704 0.0
C1353 C 0.26045 1.01253 0.28578 0.0
C1354 C 0.22707 1.00984 0.3168 0.0
C1355 C 0.20527 0.02042 0.3299 0.0
C1356 C 0.20726 0.044 0.34162 0.0
C1357 C 0.18682 0.05379 0.35424 0.0
C1358 C 0.1643 0.04012 0.35539 0.0
C1359 C 0.16216 1.01663 0.34388 0.0
C1360 C 0.18253 1.00678 0.33119 0.0
C1361 C 0.24675 0.90894 0.33507 0.0
C1362 C 0.23945 0.89608 0.31271 0.0
C1363 C 0.25399 0.93413 0.334 0.0
C1364 C 0.25435 0.94667 0.31057 0.0
C1365 C 0.24969 0.93306 0.28804 0.0
C1366 C 0.24233 0.90797 0.2891 0.0
C1367 C 0.25374 0.97426 0.30971 0.0
C1368 C 0.23451 0.98574 0.32301 0.0
C1369 C 0.26792 0.98831 0.29197 0.0
C1370 C 0.28978 0.9776 0.27905 0.0
C1371 C 0.29232 0.97945 0.25247 0.0
C1372 C 0.31285 0.96916 0.24043 0.0
C1373 C 0.33101 0.957 0.25476 0.0
C1374 C 0.3287 0.95511 0.28116 0.0
C1375 C 0.30823 0.96536 0.2933 0.0
H1376 H 0.34688 0.94904 0.2454 0.0
H1377 H 0.14853 0.04769 0.36524 0.0
H1378 H 0.19432 0.81759 0.44021 0.0
H1379 H 0.22302 0.82849 0.47504 0.0
H1380 H 0.28487 0.82851 0.42308 0.0
H1381 H 0.25613 0.81828 0.38785 0.0
H1382 H 0.26345 0.81165 0.49827 0.0
H1383 H 0.32364 0.87735 0.43698 0.0
H1384 H 0.32143 0.90209 0.39749 0.0
H1385 H 0.24209 0.90798 0.40573 0.0
H1386 H 0.24379 0.88322 0.44531 0.0
H1387 H 0.37264 0.85776 0.56264 0.0
H1388 H 0.34278 0.83998 0.53167 0.0
H1389 H 0.3006 0.90748 0.534 0.0
H1390 H 0.3307 0.92554 0.56506 0.0
H1391 H 0.3106 0.89134 0.485 0.0
H1392 H 0.2776 0.85783 0.56227 0.0
H1393 H 0.27938 0.83591 0.60346 0.0
H1394 H 0.30175 0.76912 0.56562 0.0
H1395 H 0.30048 0.79077 0.52422 0.0
C1396 C 0.21409 0.81933 0.43622 0.0
C1397 C 0.22289 0.81756 0.41116 0.0
C1398 C 0.23049 0.82557 0.4562 0.0
C1399 C 0.25594 0.82999 0.45149 0.0
C1400 C 0.26516 0.8258 0.42697 0.0
C1401 C 0.24874 0.81977 0.40689 0.0
C1402 C 0.27222 0.84107 0.47171 0.0
C1403 C 0.27385 0.829 0.49534 0.0
C1404 C 0.28539 0.86399 0.46804 0.0
C1405 C 0.28385 0.87828 0.44396 0.0
C1406 C 0.30571 0.88388 0.43032 0.0
C1407 C 0.30454 0.89786 0.40794 0.0
C1408 C 0.28162 0.90651 0.3991 0.0
C1409 C 0.25978 0.9011 0.41256 0.0
C1410 C 0.26083 0.88704 0.43493 0.0
C1411 C 0.35708 0.86887 0.55643 0.0
C1412 C 0.35407 0.89313 0.56595 0.0
C1413 C 0.33994 0.85859 0.53897 0.0
C1414 C 0.31948 0.87238 0.53075 0.0
C1415 C 0.31631 0.89658 0.54025 0.0
C1416 C 0.3334 0.90683 0.55794 0.0
C1417 C 0.30204 0.86178 0.51137 0.0
C1418 C 0.30022 0.87395 0.4879 0.0
C1419 C 0.28855 0.83913 0.51531 0.0
C1420 C 0.28915 0.826 0.54016 0.0
C1421 C 0.28309 0.83853 0.56275 0.0
C1422 C 0.28398 0.82614 0.58613 0.0
C1423 C 0.29073 0.80115 0.58716 0.0
C1424 C 0.29655 0.78848 0.5648 0.0
C1425 C 0.29572 0.8008 0.54136 0.0
H1426 H 0.29141 0.7916 0.60529 0.0
H1427 H 0.28086 0.91751 0.38191 0.0
H1428 H 0.42014 0.94866 0.71879 0.0
H1429 H 0.40639 0.97173 0.75632 0.0
H1430 H 0.35821 1.01539 0.70855 0.0
H1431 H 0.37242 0.99298 0.67083 0.0
H1432 H 0.409 0.02926 0.75998 0.0
H1433 H 0.30212 1.01405 0.74702 0.0
H1434 H 0.27267 0.98149 0.73078 0.0
H1435 H 0.32567 0.92512 0.74872 0.0
H1436 H 0.35509 0.9572 0.76576 0.0
H1437 H 0.3335 0.12598 0.79669 0.0
H1438 H 0.34772 0.08931 0.77441 0.0
H1439 H 0.34343 0.04663 0.84375 0.0
H1440 H 0.32947 0.0838 0.86675 0.0
H1441 H 0.32191 0.02433 0.79154 0.0
H1442 H 0.39553 0.05775 0.83421 0.0
H1443 H 0.42392 0.09206 0.84845 0.0
H1444 H 0.43786 0.11199 0.77066 0.0
H1445 H 0.40915 0.07809 0.75593 0.0
C1446 C 0.40653 0.96311 0.71632 0.0
C1447 C 0.39735 0.9691 0.69192 0.0
C1448 C 0.39878 0.97626 0.73773 0.0
C1449 C 0.38124 0.99508 0.7351 0.0
C1450 C 0.37168 1.00078 0.71086 0.0
C1451 C 0.37985 0.98805 0.68939 0.0
C1452 C 0.37347 1.00965 0.75743 0.0
C1453 C 0.39012 0.02793 0.76724 0.0
C1454 C 0.34889 1.00764 0.7669 0.0
C1455 C 0.33093 0.98811 0.75744 0.0
C1456 C 0.30741 0.99469 0.7477 0.0
C1457 C 0.2907 0.9763 0.73837 0.0
C1458 C 0.29729 0.95125 0.7387 0.0
C1459 C 0.32056 0.94452 0.74847 0.0
C1460 C 0.33727 0.96281 0.75796 0.0
C1461 C 0.33532 0.10883 0.80733 0.0
C1462 C 0.33047 0.10787 0.83359 0.0
C1463 C 0.34347 0.08789 0.79449 0.0
C1464 C 0.34674 0.06545 0.80751 0.0
C1465 C 0.34098 0.06391 0.83348 0.0
C1466 C 0.33305 0.0851 0.84653 0.0
C1467 C 0.35728 0.04427 0.79362 0.0
C1468 C 0.34107 0.02504 0.785 0.0
C1469 C 0.3823 0.04536 0.78524 0.0
C1470 C 0.40006 0.06543 0.79398 0.0
C1471 C 0.40451 0.06955 0.82013 0.0
C1472 C 0.42068 0.08892 0.82829 0.0
C1473 C 0.43267 0.10421 0.81047 0.0
C1474 C 0.42856 0.10012 0.78444 0.0
C1475 C 0.41236 0.0808 0.77618 0.0
H1476 H 0.44516 0.11922 0.81682 0.0
H1477 H 0.28436 0.93707 0.73138 0.0
H1478 H 0.28958 0.12917 0.96036 0.0
H1479 H 0.26658 0.12425 1.00002 0.0
H1480 H 0.21071 0.17445 0.97189 0.0
H1481 H 0.23479 0.18068 0.93303 0.0
H1482 H 0.2233 0.18946 1.01474 0.0
H1483 H 0.19961 0.10846 0.98511 0.0
H1484 H 0.2048 0.06651 0.9669 0.0
H1485 H 0.25208 0.04706 0.03009 0.0
H1486 H 0.24747 0.08902 0.04853 0.0
H1487 H 0.15163 0.17237 0.12834 0.0
H1488 H 0.16325 0.16728 0.0836 0.0
H1489 H 0.23575 0.14188 0.10718 0.0
H1490 H 0.22453 0.14738 0.15186 0.0
H1491 H 0.20937 0.11273 0.06571 0.0
H1492 H 0.23499 0.19735 0.09117 0.0
H1493 H 0.22677 0.23895 0.10891 0.0
H1494 H 0.17064 0.25021 0.0512 0.0
H1495 H 0.1783 0.20849 0.03335 0.0
C1496 C 0.27199 0.13852 0.96242 0.0
C1497 C 0.26384 0.15525 0.94376 0.0
C1498 C 0.25876 0.13567 0.98508 0.0
C1499 C 0.23672 0.14888 0.98907 0.0
C1500 C 0.22771 0.16419 0.96946 0.0
C1501 C 0.24134 0.16762 0.94718 0.0
C1502 C 0.22486 0.14922 1.01461 0.0
C1503 C 0.21973 0.17252 0.02549 0.0
C1504 C 0.2205 0.12728 0.02911 0.0
C1505 C 0.22333 0.10198 1.01812 0.0
C1506 C 0.21126 0.09531 0.99504 0.0
C1507 C 0.21408 0.07151 0.98469 0.0
C1508 C 0.2288 0.05415 0.99731 0.0
C1509 C 0.24069 0.06053 0.02034 0.0
C1510 C 0.23795 0.08431 0.03077 0.0
C1511 C 0.17001 0.16564 0.12398 0.0
C1512 C 0.18727 0.16049 0.14357 0.0
C1513 C 0.17657 0.16267 0.09846 0.0
C1514 C 0.20031 0.15414 0.0922 0.0
C1515 C 0.2173 0.14835 0.11171 0.0
C1516 C 0.21093 0.15172 0.13718 0.0
C1517 C 0.20812 0.15278 0.06532 0.0
C1518 C 0.21256 0.12942 0.05445 0.0
C1519 C 0.21139 0.17455 0.05057 0.0
C1520 C 0.20701 0.19971 0.06113 0.0
C1521 C 0.22075 0.20862 0.08241 0.0
C1522 C 0.21622 0.23223 0.09246 0.0
C1523 C 0.19814 0.24718 0.08124 0.0
C1524 C 0.18461 0.23859 0.0599 0.0
C1525 C 0.18904 0.21497 0.0498 0.0
H1526 H 0.19465 0.26546 0.08905 0.0
H1527 H 0.23096 0.03574 0.98926 0.0
H1528 H 0.09947 0.22166 0.1692 0.0
H1529 H 0.07444 0.25812 0.1601 0.0
H1530 H 0.05361 0.26215 0.23913 0.0
H1531 H 0.07823 0.22538 0.24834 0.0
H1532 H 1.01412 0.26924 0.20807 0.0
H1533 H 0.09767 0.30187 0.21617 0.0
H1534 H 0.1429 0.30388 0.20773 0.0
H1535 H 0.1279 0.31829 0.12866 0.0
H1536 H 0.08255 0.31596 0.13653 0.0
H1537 H 0.95829 0.38589 0.18708 0.0
H1538 H 0.98838 0.35693 0.20516 0.0
H1539 H 1.01436 0.34017 0.12968 0.0
H1540 H 0.9847 0.36918 0.11153 0.0
H1541 H 0.0527 0.34255 0.16476 0.0
H1542 H 0.96974 0.3043 0.15597 0.0
H1543 H 0.92439 0.30223 0.16391 0.0
H1544 H 0.93862 0.29849 0.24447 0.0
H1545 H 0.98408 0.30093 0.23701 0.0
C1546 C 0.0895 0.23024 0.18463 0.0
C1547 C 0.09091 0.22075 0.2095 0.0
C1548 C 0.07531 0.25114 0.17943 0.0
C1549 C 0.06256 0.26305 0.19905 0.0
C1550 C 0.06344 0.25327 0.22377 0.0
C1551 C 0.07754 0.23229 0.22898 0.0
C1552 C 0.04826 0.2857 0.19365 0.0
C1553 C 0.02265 0.28547 0.19905 0.0
C1554 C 0.0594 0.30673 0.18167 0.0
C1555 C 0.08669 0.30858 0.17693 0.0
C1556 C 0.10401 0.30533 0.19695 0.0
C1557 C 0.12967 0.30653 0.19227 0.0
C1558 C 0.13826 0.31117 0.16767 0.0
C1559 C 0.12121 0.31469 0.1477 0.0
C1560 C 0.09552 0.31346 0.15227 0.0
C1561 C 0.97073 0.37636 0.1744 0.0
C1562 C 0.96892 0.37949 0.14787 0.0
C1563 C 0.98785 0.35983 0.18475 0.0
C1564 C 1.00328 0.34621 0.16868 0.0
C1565 C 1.00256 0.3505 0.14237 0.0
C1566 C 0.98549 0.36696 0.13203 0.0
C1567 C 1.01857 0.32584 0.17875 0.0
C1568 C 0.04433 0.32649 0.17419 0.0
C1569 C 1.00758 0.30518 0.1915 0.0
C1570 C 0.98028 0.30308 0.19595 0.0
C1571 C 0.96319 0.30317 0.17538 0.0
C1572 C 0.93747 0.30193 0.1798 0.0
C1573 C 0.92862 0.30031 0.20469 0.0
C1574 C 0.94549 0.2998 0.22521 0.0
C1575 C 0.97123 0.3011 0.2209 0.0
H1576 H 0.90871 0.2994 0.20807 0.0
H1577 H 0.15814 0.31207 0.16408 0.0
H1578 H 0.60964 0.28254 0.78722 0.0
H1579 H 0.56661 0.26612 0.78277 0.0
H1580 H 0.5447 0.3124 0.84578 0.0
H1581 H 0.58715 0.32982 0.849 0.0
H1582 H 0.54168 0.23909 0.8111 0.0
H1583 H 0.4852 0.32445 0.84739 0.0
H1584 H 0.48585 0.37016 0.84234 0.0
H1585 H 0.5253 0.36335 0.77204 0.0
H1586 H 0.52458 0.31757 0.77645 0.0
H1587 H 0.43658 0.19719 0.87466 0.0
H1588 H 0.47485 0.21831 0.86059 0.0
H1589 H 0.43272 0.25786 0.80353 0.0
H1590 H 0.39403 0.23744 0.81857 0.0
H1591 H 0.4652 0.28811 0.82263 0.0
H1592 H 0.47049 0.20774 0.78785 0.0
H1593 H 0.46809 0.16178 0.78663 0.0
H1594 H 0.5287 0.15849 0.84078 0.0
H1595 H 0.53118 0.20444 0.8427 0.0
C1596 C 0.59537 0.28953 0.79964 0.0
C1597 C 0.60148 0.30754 0.81829 0.0
C1598 C 0.57085 0.28012 0.7972 0.0
C1599 C 0.55217 0.28818 0.81371 0.0
C1600 C 0.5584 0.30639 0.83221 0.0
C1601 C 0.58272 0.31625 0.8342 0.0
C1602 C 0.52682 0.27607 0.81332 0.0
C1603 C 0.52496 0.24988 0.81331 0.0
C1604 C 0.50473 0.28998 0.81527 0.0
C1605 C 0.50495 0.31754 0.81234 0.0
C1606 C 0.49387 0.33267 0.83076 0.0
C1607 C 0.49429 0.35861 0.82803 0.0
C1608 C 0.50565 0.36965 0.80691 0.0
C1609 C 0.51657 0.35477 0.78843 0.0
C1610 C 0.51619 0.32883 0.79105 0.0
C1611 C 0.43555 0.21034 0.85907 0.0
C1612 C 0.41251 0.21557 0.84748 0.0
C1613 C 0.45742 0.2223 0.85092 0.0
C1614 C 0.45682 0.23921 0.83052 0.0
C1615 C 0.43369 0.24477 0.81918 0.0
C1616 C 0.41165 0.23313 0.82771 0.0
C1617 C 0.48042 0.25131 0.82166 0.0
C1618 C 0.4819 0.27742 0.81988 0.0
C1619 C 0.50198 0.23731 0.81689 0.0
C1620 C 0.50094 0.2096 0.8155 0.0
C1621 C 0.48324 0.19723 0.79959 0.0
C1622 C 0.48186 0.17117 0.79878 0.0
C1623 C 0.49822 0.15723 0.81363 0.0
C1624 C 0.51604 0.16932 0.82928 0.0
C1625 C 0.51747 0.19539 0.83021 0.0
H1626 H 0.49709 0.13705 0.813 0.0
H1627 H 0.50597 0.38974 0.80485 0.0
H1628 H 0.92568 0.64906 0.34944 0.0
H1629 H 0.96875 0.66328 0.34322 0.0
H1630 H 0.94304 0.72631 0.30029 0.0
H1631 H 0.89955 0.71204 0.30625 0.0
H1632 H 0.99064 0.70142 0.28269 0.0
H1633 H 0.95074 0.73782 0.35692 0.0
H1634 H 0.92649 0.73398 0.39643 0.0
H1635 H 0.98254 0.68723 0.42884 0.0
H1636 H 1.00691 0.69045 0.3893 0.0
H1637 H 0.08899 0.78987 0.29852 0.0
H1638 H 0.04999 0.76604 0.29454 0.0
H1639 H 0.07133 0.72071 0.35869 0.0
H1640 H 0.10956 0.74597 0.36422 0.0
H1641 H 0.0266 0.73301 0.36457 0.0
H1642 H 0.06923 0.6988 0.29426 0.0
H1643 H 0.09378 0.69863 0.25484 0.0
H1644 H 0.03502 0.73611 0.21516 0.0
H1645 H 1.01024 0.73683 0.25445 0.0
C1646 C 0.92912 0.66547 0.33789 0.0
C1647 C 0.90921 0.67949 0.32834 0.0
C1648 C 0.95376 0.67359 0.33446 0.0
C1649 C 0.95894 0.69585 0.32144 0.0
C1650 C 0.93929 0.70902 0.31032 0.0
C1651 C 0.91453 0.70097 0.3139 0.0
C1652 C 0.98437 0.70703 0.32264 0.0
C1653 C 0.99856 0.70859 0.30045 0.0
C1654 C 0.99478 0.71549 0.34606 0.0
C1655 C 0.98051 0.71418 0.37009 0.0
C1656 C 0.9578 0.72659 0.37241 0.0
C1657 C 0.94405 0.72454 0.39481 0.0
C1658 C 0.95294 0.71032 0.41511 0.0
C1659 C 0.97566 0.69821 0.41309 0.0
C1660 C 0.98946 0.70016 0.3907 0.0
C1661 C 0.08536 0.77504 0.31202 0.0
C1662 C 0.10236 0.77016 0.33197 0.0
C1663 C 0.06318 0.76103 0.30936 0.0
C1664 C 0.05779 0.7413 0.32607 0.0
C1665 C 0.07508 0.73582 0.3455 0.0
C1666 C 0.09708 0.75016 0.3485 0.0
C1667 C 0.0333 0.72772 0.32446 0.0
C1668 C 1.01907 0.72572 0.34669 0.0
C1669 C 0.02313 0.71846 0.3011 0.0
C1670 C 0.03795 0.71804 0.27739 0.0
C1671 C 0.06161 0.70717 0.27719 0.0
C1672 C 0.07556 0.70695 0.25485 0.0
C1673 C 0.06599 0.7174 0.23252 0.0
C1674 C 0.04242 0.72804 0.23248 0.0
C1675 C 0.0284 0.72833 0.25477 0.0
H1676 H 0.07683 0.71721 0.21525 0.0
H1677 H 0.94225 0.70872 0.43242 0.0
H1678 H 0.60952 0.72936 0.77275 0.0
H1679 H 0.58756 0.769 0.7739 0.0
H1680 H 0.57872 0.76658 0.69219 0.0
H1681 H 0.60111 0.72735 0.69074 0.0
H1682 H 0.59891 0.81743 0.738 0.0
H1683 H 0.51258 0.7721 0.69026 0.0
H1684 H 0.49032 0.73126 0.68859 0.0
H1685 H 0.51537 0.71532 0.76472 0.0
H1686 H 0.53742 0.75622 0.76697 0.0
H1687 H 0.52502 0.88737 0.65527 0.0
H1688 H 0.55213 0.86115 0.6808 0.0
H1689 H 0.49665 0.8574 0.73971 0.0
H1690 H 0.46935 0.8838 0.71419 0.0
H1691 H 0.50759 0.81195 0.72051 0.0
H1692 H 0.55344 0.88104 0.75467 0.0
H1693 H 0.57617 0.92158 0.75451 0.0
H1694 H 0.63185 0.89131 0.70588 0.0
H1695 H 0.60928 0.85069 0.7054 0.0
C1696 C 0.60302 0.73739 0.75503 0.0
C1697 C 0.60685 0.72528 0.73165 0.0
C1698 C 0.59067 0.76003 0.75574 0.0
C1699 C 0.58159 0.77048 0.73315 0.0
C1700 C 0.5857 0.75866 0.70978 0.0
C1701 C 0.59843 0.7363 0.709 0.0
C1702 C 0.56659 0.79309 0.73365 0.0
C1703 C 0.57888 0.81645 0.73456 0.0
C1704 C 0.54049 0.7915 0.72966 0.0
C1705 C 0.52681 0.76711 0.72869 0.0
C1706 C 0.51322 0.75992 0.70669 0.0
C1707 C 0.50066 0.73676 0.70563 0.0
C1708 C 0.50149 0.72067 0.72651 0.0
C1709 C 0.51482 0.72775 0.74853 0.0
C1710 C 0.52738 0.7509 0.74968 0.0
C1711 C 0.5189 0.88157 0.67398 0.0
C1712 C 0.49497 0.88728 0.6826 0.0
C1713 C 0.5345 0.86677 0.68866 0.0
C1714 C 0.52638 0.85737 0.71215 0.0
C1715 C 0.50326 0.86459 0.72167 0.0
C1716 C 0.48771 0.87966 0.70708 0.0
C1717 C 0.53993 0.8366 0.72397 0.0
C1718 C 0.52743 0.81332 0.72498 0.0
C1719 C 0.56582 0.83838 0.72972 0.0
C1720 C 0.57958 0.86278 0.72996 0.0
C1721 C 0.57044 0.88305 0.7438 0.0
C1722 C 0.58332 0.90605 0.74384 0.0
C1723 C 0.60543 0.90902 0.73019 0.0
C1724 C 0.61473 0.88898 0.71648 0.0
C1725 C 0.60192 0.86593 0.71636 0.0
H1726 H 0.61537 0.92684 0.73024 0.0
H1727 H 0.49178 0.70274 0.72565 0.0
H1728 H 0.87855 0.03738 0.68468 0.0
H1729 H 0.87104 0.02043 0.72693 0.0
H1730 H 0.92176 0.96102 0.71209 0.0
H1731 H 0.92868 0.97728 0.66917 0.0
H1732 H 0.88249 0.94677 0.74545 0.0
H1733 H 0.94594 1.01211 0.7358 0.0
H1734 H 0.96018 0.05336 0.7202 0.0
H1735 H 0.90505 0.08869 0.7657 0.0
H1736 H 0.89021 0.04759 0.7813 0.0
H1737 H 0.94687 0.96876 0.87798 0.0
H1738 H 0.94237 0.9779 0.8326 0.0
H1739 H 0.86437 0.9557 0.83511 0.0
H1740 H 0.86894 0.94576 0.8803 0.0
H1741 H 0.91584 1.00985 0.80728 0.0
H1742 H 0.84579 0.93135 0.77796 0.0
H1743 H 0.83256 0.88934 0.79238 0.0
H1744 H 0.90563 0.87811 0.82439 0.0
H1745 H 0.91939 0.91991 0.80988 0.0
C1746 C 0.88731 0.02008 0.68984 0.0
C1747 C 0.90458 1.00892 0.67362 0.0
C1748 C 0.88308 1.01051 0.71414 0.0
C1749 C 0.89625 0.9898 0.72277 0.0
C1750 C 0.91152 0.97711 0.7058 0.0
C1751 C 0.91566 0.98659 0.68139 0.0
C1752 C 0.89745 0.98413 0.75034 0.0
C1753 C 0.88961 0.96054 0.75904 0.0
C1754 C 0.90723 1.00199 0.76793 0.0
C1755 C 0.91687 0.02679 0.75958 0.0
C1756 C 0.93684 0.02869 0.74246 0.0
C1757 C 0.94499 0.05203 0.7336 0.0
C1758 C 0.93349 0.07364 0.74194 0.0
C1759 C 0.91391 0.07195 0.75927 0.0
C1760 C 0.90564 0.04863 0.76815 0.0
C1761 C 0.92876 0.96582 0.86887 0.0
C1762 C 0.90831 0.95639 0.88268 0.0
C1763 C 0.92619 0.9711 0.84294 0.0
C1764 C 0.90312 0.96718 0.83034 0.0
C1765 C 0.8825 0.95836 0.84426 0.0
C1766 C 0.88512 0.9528 0.87013 0.0
C1767 C 0.90077 0.97242 0.80267 0.0
C1768 C 0.90848 0.99603 0.79385 0.0
C1769 C 0.89127 0.95438 0.78501 0.0
C1770 C 0.88352 0.92885 0.79303 0.0
C1771 C 0.85908 0.91984 0.78793 0.0
C1772 C 0.85148 0.89609 0.79616 0.0
C1773 C 0.86822 0.8811 0.80938 0.0
C1774 C 0.89266 0.88977 0.81423 0.0
C1775 C 0.90036 0.9135 0.80602 0.0
H1776 H 0.86227 0.86276 0.81582 0.0
H1777 H 0.93976 0.0917 0.73499 0.0
H1778 H 0.91598 0.09885 0.50415 0.0
H1779 H 0.87845 0.1081 0.47958 0.0
H1780 H 0.83668 0.11403 0.54903 0.0
H1781 H 0.87424 0.10405 0.57389 0.0
H1782 H 0.80866 0.09168 0.51253 0.0
H1783 H 0.85869 0.16604 0.52004 0.0
H1784 H 0.89713 0.19224 0.51789 0.0
H1785 H 0.90063 0.17951 0.43724 0.0
H1786 H 0.8624 0.15292 0.43896 0.0
H1787 H 0.74006 0.19419 0.43435 0.0
H1788 H 0.77373 0.18041 0.46195 0.0
H1789 H 0.76206 0.10487 0.43487 0.0
H1790 H 0.72734 0.11852 0.40775 0.0
H1791 H 0.81595 0.16277 0.45251 0.0
H1792 H 0.7799 0.0638 0.48085 0.0
H1793 H 0.73971 0.04129 0.48734 0.0
H1794 H 0.70448 0.1104 0.50422 0.0
H1795 H 0.74452 0.13325 0.49821 0.0
C1796 C 0.8988 0.102 0.51425 0.0
C1797 C 0.89811 0.10106 0.54097 0.0
C1798 C 0.87736 0.10728 0.50015 0.0
C1799 C 0.8549 0.11221 0.5125 0.0
C1800 C 0.85386 0.11036 0.53915 0.0
C1801 C 0.87532 0.10476 0.55331 0.0
C1802 C 0.83301 0.1205 0.49751 0.0
C1803 C 0.81018 0.10722 0.4994 0.0
C1804 C 0.83488 0.14116 0.48086 0.0
C1805 C 0.8578 0.1573 0.47967 0.0
C1806 C 0.86776 0.16869 0.50187 0.0
C1807 C 0.88949 0.18362 0.50073 0.0
C1808 C 0.90135 0.18749 0.47745 0.0
C1809 C 0.89144 0.17647 0.45526 0.0
C1810 C 0.86973 0.16148 0.4563 0.0
C1811 C 0.74458 0.17461 0.43422 0.0
C1812 C 0.73107 0.15741 0.41883 0.0
C1813 C 0.7639 0.16676 0.45004 0.0
C1814 C 0.77039 0.14158 0.45065 0.0
C1815 C 0.7571 0.12433 0.43509 0.0
C1816 C 0.73739 0.13215 0.41948 0.0
C1817 C 0.79148 0.13382 0.46721 0.0
C1818 C 0.81429 0.1472 0.46559 0.0
C1819 C 0.78924 0.11386 0.48474 0.0
C1820 C 0.76516 0.10024 0.4888 0.0
C1821 C 0.7636 0.07417 0.48605 0.0
C1822 C 0.74084 0.06136 0.48963 0.0
C1823 C 0.71954 0.07442 0.4961 0.0
C1824 C 0.72097 0.10031 0.49912 0.0
C1825 C 0.74369 0.1132 0.4956 0.0
H1826 H 0.70194 0.06447 0.49882 0.0
H1827 H 0.91818 0.19906 0.47661 0.0
H1828 H 0.64359 0.13849 0.2791 0.0
H1829 H 0.62656 0.10228 0.25601 0.0
H1830 H 0.65455 0.05366 0.31451 0.0
H1831 H 0.67192 0.08992 0.33779 0.0
H1832 H 0.65612 0.03274 0.2647 0.0
H1833 H 0.59798 0.06909 0.3201 0.0
H1834 H 0.57559 0.10345 0.34018 0.0
H1835 H 0.54256 0.1221 0.26795 0.0
H1836 H 0.56517 0.08813 0.2473 0.0
H1837 H 0.57493 0.94069 0.20985 0.0
H1838 H 0.58785 0.96769 0.24572 0.0
H1839 H 0.57542 0.03265 0.1994 0.0
H1840 H 0.5631 1.00585 0.16351 0.0
H1841 H 0.56439 0.0396 0.25202 0.0
H1842 H 0.63008 1.00724 0.19709 0.0
H1843 H 0.65265 0.97246 0.17786 0.0
H1844 H 0.67052 0.94459 0.25233 0.0
H1845 H 0.6477 0.97904 0.27199 0.0
C1846 C 0.64677 0.12008 0.28675 0.0
C1847 C 0.65872 0.11713 0.31049 0.0
C1848 C 0.63692 0.0994 0.27358 0.0
C1849 C 0.63873 0.0754 0.28393 0.0
C1850 C 0.65278 0.07208 0.30635 0.0
C1851 C 0.66277 0.09283 0.31956 0.0
C1852 C 0.62378 0.05449 0.2725 0.0
C1853 C 0.63602 0.03394 0.26241 0.0
C1854 C 0.59749 0.05597 0.26974 0.0
C1855 C 0.5834 0.07613 0.28211 0.0
C1856 C 0.58606 0.0806 0.30845 0.0
C1857 C 0.57333 0.10002 0.31994 0.0
C1858 C 0.55768 0.11496 0.30534 0.0
C1859 C 0.55469 0.11049 0.27923 0.0
C1860 C 0.56745 0.09115 0.26762 0.0
C1861 C 0.57394 0.96073 0.2077 0.0
C1862 C 0.56827 0.97127 0.18389 0.0
C1863 C 0.58148 0.97611 0.22814 0.0
C1864 C 0.58297 1.00212 0.22501 0.0
C1865 C 0.57446 1.01263 0.20217 0.0
C1866 C 0.56738 0.99731 0.18169 0.0
C1867 C 0.59682 0.01831 0.24352 0.0
C1868 C 0.5844 0.03806 0.25492 0.0
C1869 C 0.62285 1.01588 0.24779 0.0
C1870 C 0.63701 0.99554 0.23599 0.0
C1871 C 0.63872 0.99362 0.20935 0.0
C1872 C 0.65156 0.97398 0.19837 0.0
C1873 C 0.66302 0.95633 0.21386 0.0
C1874 C 0.66165 0.95829 0.24036 0.0
C1875 C 0.64877 0.97786 0.25143 0.0
H1876 H 0.67296 0.94116 0.20533 0.0
H1877 H 0.54783 0.12999 0.31427 0.0
H1878 H 0.66661 0.85368 0.06378 0.0
H1879 H 0.69807 0.8615 0.03131 0.0
H1880 H 0.64563 0.9052 0.98852 0.0
H1881 H 0.61412 0.89753 0.0211 0.0
H1882 H 0.70844 0.86314 0.97839 0.0
H1883 H 0.67373 0.96135 0.98373 0.0
H1884 H 0.64445 0.98625 1.00875 0.0
H1885 H 0.66163 0.94364 0.07561 0.0
H1886 H 0.69122 0.91878 0.05103 0.0
H1887 H 0.81466 0.93222 0.93561 0.0
H1888 H 0.76958 0.9238 0.93759 0.0
H1889 H 0.77227 0.93476 1.01903 0.0
H1890 H 0.81722 0.94319 1.01724 0.0
H1891 H 0.72888 0.95213 0.99759 0.0
H1892 H 0.78044 0.87781 0.99483 0.0
H1893 H 0.81037 0.84963 0.9749 0.0
H1894 H 0.76207 0.84186 0.90927 0.0
H1895 H 0.73205 0.87013 0.92872 0.0
C1896 C 0.66145 0.86391 0.04682 0.0
C1897 C 0.63822 0.87542 0.0451 0.0
C1898 C 0.67936 0.86827 0.02819 0.0
C1899 C 0.67427 0.88437 1.00786 0.0
C1900 C 0.64989 0.89285 1.0042 0.0
C1901 C 0.6319 0.8884 0.0228 0.0
C1902 C 0.69557 0.89703 0.99527 0.0
C1903 C 0.71263 0.88277 0.98186 0.0
C1904 C 0.70121 0.92253 1.00031 0.0
C1905 C 0.68445 0.93815 1.01552 0.0
C1906 C 0.67135 0.95746 1.00381 0.0
C1907 C 0.65469 0.97152 1.0179 0.0
C1908 C 0.65112 0.96647 0.04373 0.0
C1909 C 0.66437 0.9475 0.05559 0.0
C1910 C 0.6811 0.93345 0.04161 0.0
C1911 C 0.80552 0.9336 0.95384 0.0
C1912 C 0.81948 0.93807 0.97637 0.0
C1913 C 0.77979 0.92869 0.95491 0.0
C1914 C 0.76773 0.92835 0.97848 0.0
C1915 C 0.78127 0.93493 1.00065 0.0
C1916 C 0.80697 0.93965 0.99963 0.0
C1917 C 0.74197 0.91817 0.98092 0.0
C1918 C 0.72417 0.93288 0.99275 0.0
C1919 C 0.73591 0.89297 0.97483 0.0
C1920 C 0.75415 0.87624 0.96309 0.0
C1921 C 0.77633 0.87021 0.97607 0.0
C1922 C 0.79328 0.85417 0.96489 0.0
C1923 C 0.7881 0.84385 0.94089 0.0
C1924 C 0.76606 0.84972 0.92791 0.0
C1925 C 0.74908 0.86577 0.93898 0.0
H1926 H 0.80113 0.83127 0.93239 0.0
H1927 H 0.63812 0.97728 0.05457 0.0
H1928 H 0.14404 0.73225 0.97727 0.0
H1929 H 0.11813 0.76447 0.99488 0.0
H1930 H 0.13963 0.81418 0.93412 0.0
H1931 H 0.16672 0.7824 0.91696 0.0
H1932 H 0.12365 0.83976 0.97826 0.0
H1933 H 0.09632 0.77331 0.92071 0.0
H1934 H 0.0928 0.72908 0.90782 0.0
H1935 H 0.05209 0.71198 0.97583 0.0
H1936 H 0.05589 0.75607 0.9894 0.0
H1937 H 1.01027 0.89499 0.93784 0.0
H1938 H 0.05004 0.87392 0.94267 0.0
H1939 H 1.01745 0.8252 0.99921 0.0
H1940 H 0.97742 0.84553 0.99382 0.0
H1941 H 0.04011 0.79969 0.96317 0.0
H1942 H 0.06164 0.87015 1.01607 0.0
H1943 H 0.0662 0.91481 0.02679 0.0
H1944 H 0.11699 0.92561 0.96493 0.0
H1945 H 0.11261 0.88102 0.95366 0.0
C1946 C 0.14447 0.75045 0.96839 0.0
C1947 C 0.15679 0.7545 0.94519 0.0
C1948 C 0.12953 0.76888 0.9785 0.0
C1949 C 0.12639 0.79131 0.96529 0.0
C1950 C 0.1416 0.79683 0.9444 0.0
C1951 C 0.15683 0.77852 0.93445 0.0
C1952 C 0.1035 0.80565 0.96898 0.0
C1953 C 0.10534 0.8311 0.97506 0.0
C1954 C 0.07967 0.79422 0.96472 0.0
C1955 C 0.07663 0.76789 0.9562 0.0
C1956 C 0.08673 0.76008 0.93297 0.0
C1957 C 0.08471 0.73505 0.92555 0.0
C1958 C 0.07228 0.71773 0.94102 0.0
C1959 C 0.06177 0.72542 0.9639 0.0
C1960 C 0.06387 0.75042 0.97147 0.0
C1961 C 1.01159 0.87978 0.95129 0.0
C1962 C 0.99069 0.87185 0.96536 0.0
C1963 C 0.03442 0.86801 0.95431 0.0
C1964 C 0.03677 0.84823 0.97156 0.0
C1965 C 1.01606 0.84058 0.98595 0.0
C1966 C 0.99323 0.85228 0.98291 0.0
C1967 C 0.06004 0.83394 0.97274 0.0
C1968 C 0.05828 0.80838 0.96712 0.0
C1969 C 0.08382 0.84545 0.97709 0.0
C1970 C 0.08665 0.87225 0.98392 0.0
C1971 C 0.07365 0.88207 1.00464 0.0
C1972 C 0.07622 0.90737 1.01083 0.0
C1973 C 0.09179 0.92306 0.99651 0.0
C1974 C 0.10492 0.91344 0.97601 0.0
C1975 C 0.10245 0.88814 0.96974 0.0
H1976 H 0.09371 0.94266 1.00134 0.0
H1977 H 0.07073 0.69836 0.93526 0.0
H1978 H 0.53032 0.64924 0.10154 0.0
H1979 H 0.53408 0.69394 0.11061 0.0
H1980 H 0.45492 0.70121 0.09692 0.0
H1981 H 0.45125 0.65685 0.0868 0.0
H1982 H 0.4768 0.7411 0.08145 0.0
H1983 H 0.47921 0.69551 0.15798 0.0
H1984 H 0.49271 0.66322 0.18817 0.0
H1985 H 0.56664 0.69614 0.19066 0.0
H1986 H 0.55373 0.72843 0.16014 0.0
H1987 H 0.51707 0.84481 0.18436 0.0
H1988 H 0.49987 0.8031 0.17418 0.0
H1989 H 0.52431 0.8116 0.09656 0.0
H1990 H 0.53997 0.85322 0.10615 0.0
H1991 H 0.52115 0.76367 0.16212 0.0
H1992 H 0.49318 0.7777 0.05469 0.0
H1993 H 0.47312 0.80957 0.02814 0.0
H1994 H 0.438 0.83959 0.09422 0.0
H1995 H 0.45755 0.8077 0.12113 0.0
C1996 C 0.51385 0.66051 0.09984 0.0
C1997 C 0.49052 0.64949 0.09352 0.0
C1998 C 0.51595 0.686 0.1053 0.0
C1999 C 0.49464 0.70085 0.10519 0.0
C2000 C 0.4716 0.69018 0.0973 0.0
C2001 C 0.46957 0.66477 0.0914 0.0
C2002 C 0.49626 0.72712 0.11439 0.0
C2003 C 0.48647 0.74605 0.09909 0.0
C2004 C 0.50769 0.73356 0.13807 0.0
C2005 C 0.51555 0.7143 0.15661 0.0
C2006 C 0.4984 0.69578 0.16483 0.0
C2007 C 0.50594 0.67748 0.18201 0.0
C2008 C 0.53052 0.67761 0.19129 0.0
C2009 C 0.54761 0.69607 0.18344 0.0
C2010 C 0.54019 0.71439 0.16622 0.0
C2011 C 0.51822 0.83797 0.165 0.0
C2012 C 0.52995 0.85247 0.1461 0.0
C2013 C 0.5085 0.81405 0.15922 0.0
C2014 C 0.51048 0.80415 0.13448 0.0
C2015 C 0.5218 0.81888 0.1156 0.0
C2016 C 0.53105 0.84279 0.12122 0.0
C2017 C 0.50272 0.77785 0.1286 0.0
C2018 C 0.51126 0.75882 0.14458 0.0
C2019 C 0.48908 0.7713 0.10613 0.0
C2020 C 0.47699 0.79037 0.08996 0.0
C2021 C 0.48106 0.79099 0.06355 0.0
C2022 C 0.4698 0.8091 0.04844 0.0
C2023 C 0.45434 0.82663 0.05949 0.0
C2024 C 0.45005 0.82605 0.08568 0.0
C2025 C 0.46124 0.80798 0.10088 0.0
H2026 H 0.44567 0.84064 0.04776 0.0
H2027 H 0.53632 0.66342 0.20459 0.0
H2028 H 0.95586 0.15769 0.57967 0.0
H2029 H 0.96168 0.20251 0.58586 0.0
H2030 H 0.03417 0.19074 0.62007 0.0
H2031 H 0.02801 0.14567 0.61482 0.0
H2032 H 1.00879 0.21981 0.64908 0.0
H2033 H 0.02535 0.21822 0.55901 0.0
H2034 H 1.01615 0.20768 0.51405 0.0
H2035 H 0.94905 0.24987 0.51666 0.0
H2036 H 0.95774 0.26046 0.56173 0.0
H2037 H 0.06054 0.34135 0.64875 0.0
H2038 H 0.04931 0.2977 0.64142 0.0
H2039 H 0.97516 0.31826 0.61773 0.0
H2040 H 0.98646 0.36248 0.62491 0.0
H2041 H 0.9971 0.28559 0.58402 0.0
H2042 H 0.98256 0.28948 0.6735 0.0
H2043 H 0.99231 0.30004 0.71833 0.0
H2044 H 0.05635 0.25338 0.71658 0.0
H2045 H 0.04717 0.24278 0.67163 0.0
C2046 C 0.97331 0.16463 0.58798 0.0
C2047 C 0.9915 0.14809 0.59678 0.0
C2048 C 0.97662 0.19035 0.5915 0.0
C2049 C 0.99841 0.2001 0.60336 0.0
C2050 C 1.01713 0.18367 0.61099 0.0
C2051 C 1.01368 0.15791 0.60782 0.0
C2052 C 1.001 0.22716 0.60945 0.0
C2053 C 1.00657 0.23415 0.63473 0.0
C2054 C 0.99713 0.24598 0.59101 0.0
C2055 C 0.99208 0.23994 0.56381 0.0
C2056 C 1.00857 0.22513 0.55004 0.0
C2057 C 1.00345 0.21918 0.52453 0.0
C2058 C 0.98199 0.22805 0.51253 0.0
C2059 C 0.96566 0.243 0.52599 0.0
C2060 C 0.97069 0.24902 0.5515 0.0
C2061 C 0.04173 0.33667 0.64226 0.0
C2062 C 0.02439 0.35542 0.6374 0.0
C2063 C 0.03531 0.31164 0.63816 0.0
C2064 C 1.01136 0.3047 0.62916 0.0
C2065 C 0.99375 0.32326 0.62473 0.0
C2066 C 1.00015 0.34846 0.62901 0.0
C2067 C 1.00546 0.27807 0.62346 0.0
C2068 C 0.99918 0.27119 0.59832 0.0
C2069 C 1.00877 0.2593 0.642 0.0
C2070 C 1.01425 0.26547 0.66912 0.0
C2071 C 0.99882 0.2816 0.68262 0.0
C2072 C 1.00423 0.28756 0.70807 0.0
C2073 C 0.02496 0.27742 0.72028 0.0
C2074 C 0.04029 0.26123 0.70709 0.0
C2075 C 0.03497 0.2552 0.68164 0.0
H2076 H 0.02912 0.28207 0.73998 0.0
H2077 H 0.97804 0.22338 0.49279 0.0
H2078 H 0.45575 0.3268 0.46531 0.0
H2079 H 0.48929 0.29849 0.4765 0.0
H2080 H 0.52266 0.35458 0.52617 0.0
H2081 H 0.48864 0.38293 0.51534 0.0
H2082 H 0.55446 0.33414 0.4874 0.0
H2083 H 0.50389 0.30676 0.55539 0.0
H2084 H 0.46497 0.29376 0.57678 0.0
H2085 H 0.45779 0.22978 0.52766 0.0
H2086 H 0.49644 0.24257 0.50568 0.0
H2087 H 0.64155 0.23929 0.47317 0.0
H2088 H 0.61716 0.26708 0.49968 0.0
H2089 H 0.54896 0.23279 0.47004 0.0
H2090 H 0.5731 0.20417 0.44482 0.0
H2091 H 0.54209 0.24705 0.51729 0.0
H2092 H 0.57932 0.28424 0.44036 0.0
H2093 H 0.61515 0.29748 0.41403 0.0
H2094 H 0.6442 0.34284 0.47565 0.0
H2095 H 0.60862 0.32962 0.50241 0.0
C2096 C 0.47016 0.33297 0.47875 0.0
C2097 C 0.4699 0.35696 0.48935 0.0
C2098 C 0.48908 0.31677 0.48534 0.0
C2099 C 0.50817 0.32442 0.5024 0.0
C2100 C 0.50787 0.34834 0.51322 0.0
C2101 C 0.4886 0.36444 0.50698 0.0
C2102 C 0.52965 0.30814 0.50623 0.0
C2103 C 0.55218 0.31535 0.49479 0.0
C2104 C 0.52636 0.28364 0.51563 0.0
C2105 C 0.50313 0.27566 0.52887 0.0
C2106 C 0.49395 0.28999 0.54904 0.0
C2107 C 0.47193 0.28264 0.56129 0.0
C2108 C 0.45892 0.26095 0.55359 0.0
C2109 C 0.46791 0.24655 0.53364 0.0
C2110 C 0.48992 0.25382 0.52131 0.0
C2111 C 0.62137 0.23722 0.47291 0.0
C2112 C 0.60918 0.22002 0.45639 0.0
C2113 C 0.60747 0.25316 0.48799 0.0
C2114 C 0.58126 0.25236 0.48641 0.0
C2115 C 0.56918 0.23385 0.4715 0.0
C2116 C 0.583 0.21777 0.45673 0.0
C2117 C 0.56617 0.27263 0.49692 0.0
C2118 C 0.54489 0.26619 0.51107 0.0
C2119 C 0.57028 0.29776 0.48949 0.0
C2120 C 0.59158 0.30571 0.47345 0.0
C2121 C 0.59345 0.29693 0.4483 0.0
C2122 C 0.61368 0.30443 0.43332 0.0
C2123 C 0.63199 0.32092 0.4432 0.0
C2124 C 0.63005 0.33 0.46806 0.0
C2125 C 0.60987 0.32251 0.48314 0.0
H2126 H 0.64764 0.32671 0.43156 0.0
H2127 H 0.44187 0.2553 0.56309 0.0
H2128 H 0.78316 0.38854 0.80873 0.0
H2129 H 0.77063 0.41886 0.77658 0.0
H2130 H 0.69491 0.41449 0.80388 0.0
H2131 H 0.70725 0.38375 0.83532 0.0
H2132 H 0.69435 0.42305 0.75423 0.0
H2133 H 0.73816 0.45792 0.82773 0.0
H2134 H 0.77353 0.46278 0.85806 0.0
H2135 H 0.82208 0.48401 0.79686 0.0
H2136 H 0.78701 0.47895 0.76612 0.0
H2137 H 0.6502 0.54605 0.74731 0.0
H2138 H 0.66475 0.50449 0.75802 0.0
H2139 H 0.73305 0.51947 0.71736 0.0
H2140 H 0.71866 0.56132 0.70682 0.0
H2141 H 0.74106 0.50343 0.76604 0.0
H2142 H 0.69196 0.47681 0.69422 0.0
H2143 H 0.65428 0.4742 0.66677 0.0
H2144 H 0.61305 0.4396 0.72738 0.0
H2145 H 0.65038 0.44235 0.75536 0.0
C2146 C 0.76373 0.39367 0.80748 0.0
C2147 C 0.7462 0.384 0.8248 0.0
C2148 C 0.75659 0.41098 0.78912 0.0
C2149 C 0.73196 0.41942 0.78825 0.0
C2150 C 0.71405 0.40834 0.80422 0.0
C2151 C 0.72112 0.39073 0.8223 0.0
C2152 C 0.72548 0.44176 0.77315 0.0
C2153 C 0.70454 0.44064 0.75676 0.0
C2154 C 0.73902 0.46464 0.77617 0.0
C2155 C 0.76008 0.46776 0.79462 0.0
C2156 C 0.75643 0.46345 0.82074 0.0
C2157 C 0.7764 0.46626 0.838 0.0
C2158 C 0.80006 0.47362 0.82938 0.0
C2159 C 0.80376 0.47825 0.80349 0.0
C2160 C 0.78385 0.47542 0.78615 0.0
C2161 C 0.66825 0.54042 0.74052 0.0
C2162 C 0.68342 0.55696 0.72644 0.0
C2163 C 0.67641 0.51658 0.74639 0.0
C2164 C 0.69987 0.50884 0.73826 0.0
C2165 C 0.7148 0.52507 0.72363 0.0
C2166 C 0.70656 0.5489 0.7176 0.0
C2167 C 0.70971 0.48487 0.74741 0.0
C2168 C 0.73124 0.48572 0.76287 0.0
C2169 C 0.69642 0.46195 0.74384 0.0
C2170 C 0.67398 0.45992 0.72695 0.0
C2171 C 0.67483 0.46878 0.70177 0.0
C2172 C 0.65352 0.46726 0.6861 0.0
C2173 C 0.63127 0.45678 0.69534 0.0
C2174 C 0.6303 0.44772 0.72025 0.0
C2175 C 0.65155 0.44922 0.73601 0.0
H2176 H 0.61479 0.45566 0.68318 0.0
H2177 H 0.8155 0.47579 0.84277 0.0
H2178 H 0.74546 0.3065 0.90577 0.0
H2179 H 0.76359 0.31952 0.94664 0.0
H2180 H 0.68977 0.32545 0.97779 0.0
H2181 H 0.67142 0.31244 0.93704 0.0
H2182 H 0.71523 0.36934 0.97917 0.0
H2183 H 0.72994 0.2862 1.00476 0.0
H2184 H 0.7441 0.24299 1.00066 0.0
H2185 H 0.81966 0.26979 0.99116 0.0
H2186 H 0.80592 0.3132 0.99483 0.0
H2187 H 0.80351 0.39015 0.09841 0.0
H2188 H 0.7723 0.36666 0.07313 0.0
H2189 H 0.79097 0.41074 1.00714 0.0
H2190 H 0.82252 0.43428 0.03237 0.0
H2191 H 0.78623 0.33862 0.03083 0.0
H2192 H 0.73234 0.41215 0.97025 0.0
H2193 H 0.71591 0.45439 0.97498 0.0
H2194 H 0.71615 0.44614 0.0563 0.0
H2195 H 0.73158 0.40347 0.05209 0.0
C2196 C 0.73306 0.30955 0.92158 0.0
C2197 C 0.70697 0.30903 0.91791 0.0
C2198 C 0.74348 0.31703 0.94498 0.0
C2199 C 0.72799 0.32382 0.96511 0.0
C2200 C 0.70203 0.32051 0.96239 0.0
C2201 C 0.69159 0.31292 0.93905 0.0
C2202 C 0.73865 0.3381 0.98702 0.0
C2203 C 0.73064 0.36259 0.99065 0.0
C2204 C 0.75845 0.32909 1.00216 0.0
C2205 C 0.76685 0.30299 0.99994 0.0
C2206 C 0.74955 0.2829 1.0016 0.0
C2207 C 0.75751 0.25836 0.99939 0.0
C2208 C 0.78276 0.25365 0.99561 0.0
C2209 C 0.80011 0.27347 0.99409 0.0
C2210 C 0.79225 0.29805 0.99628 0.0
C2211 C 0.80043 0.3954 0.07872 0.0
C2212 C 0.81533 0.41416 0.06735 0.0
C2213 C 0.78274 0.38181 0.06428 0.0
C2214 C 0.77936 0.38698 0.03832 0.0
C2215 C 0.7932 0.40662 0.02722 0.0
C2216 C 0.81119 0.42001 0.04159 0.0
C2217 C 0.76345 0.37018 0.02225 0.0
C2218 C 0.77059 0.34527 0.01962 0.0
C2219 C 0.7428 0.37884 1.00804 0.0
C2220 C 0.73359 0.40464 1.01085 0.0
C2221 C 0.72882 0.41926 0.98916 0.0
C2222 C 0.71959 0.44329 0.99175 0.0
C2223 C 0.71515 0.45301 1.01594 0.0
C2224 C 0.71978 0.43866 0.03758 0.0
C2225 C 0.72874 0.41451 0.0351 0.0
H2226 H 0.708 0.47161 1.01791 0.0
H2227 H 0.78888 0.23464 0.99391 0.0
H2228 H 0.88747 0.51088 0.17607 0.0
H2229 H 0.87252 0.52783 0.21615 0.0
H2230 H 0.86419 0.45343 0.24639 0.0
H2231 H 0.87928 0.43623 0.20625 0.0
H2232 H 0.8226 0.48215 0.25459 0.0
H2233 H 0.91019 0.48838 0.26908 0.0
H2234 H 0.95415 0.49868 0.25921 0.0
H2235 H 0.93699 0.57632 0.2541 0.0
H2236 H 0.89282 0.56646 0.26354 0.0
H2237 H 0.83208 0.57864 0.37014 0.0
H2238 H 0.84705 0.5423 0.34702 0.0
H2239 H 0.79456 0.55634 0.28601 0.0
H2240 H 0.77962 0.59252 0.30889 0.0
H2241 H 0.87017 0.54802 0.3024 0.0
H2242 H 0.78102 0.50421 0.2528 0.0
H2243 H 0.73764 0.49276 0.26399 0.0
H2244 H 0.75909 0.48731 0.34282 0.0
H2245 H 0.80268 0.49836 0.3321 0.0
C2246 C 0.88259 0.49808 0.19126 0.0
C2247 C 0.88457 0.4722 0.18795 0.0
C2248 C 0.87415 0.50782 0.21421 0.0
C2249 C 0.86743 0.49189 0.23431 0.0
C2250 C 0.86935 0.46603 0.23113 0.0
C2251 C 0.87806 0.45626 0.20821 0.0
C2252 C 0.85764 0.50252 0.25821 0.0
C2253 C 0.83303 0.49639 0.26525 0.0
C2254 C 0.87155 0.52055 0.27252 0.0
C2255 C 0.89813 0.52664 0.2669 0.0
C2256 C 0.91574 0.50763 0.26567 0.0
C2257 C 0.94071 0.5134 0.26018 0.0
C2258 C 0.94835 0.53813 0.256 0.0
C2259 C 0.93104 0.55717 0.25734 0.0
C2260 C 0.90604 0.5515 0.2628 0.0
C2261 C 0.8231 0.57344 0.35224 0.0
C2262 C 0.80486 0.5886 0.34117 0.0
C2263 C 0.83179 0.55274 0.33898 0.0
C2264 C 0.822 0.54663 0.31474 0.0
C2265 C 0.80225 0.56048 0.30478 0.0
C2266 C 0.79377 0.58126 0.31786 0.0
C2267 C 0.83465 0.52856 0.29806 0.0
C2268 C 0.85985 0.53337 0.29223 0.0
C2269 C 0.82133 0.50917 0.28507 0.0
C2270 C 0.79515 0.50225 0.29163 0.0
C2271 C 0.77654 0.50042 0.27251 0.0
C2272 C 0.75189 0.49403 0.27877 0.0
C2273 C 0.74561 0.48935 0.3041 0.0
C2274 C 0.76397 0.49101 0.32321 0.0
C2275 C 0.78865 0.49738 0.31705 0.0
H2276 H 0.72651 0.48442 0.30891 0.0
H2277 H 0.9677 0.54256 0.25175 0.0
H2278 H 0.65832 0.64674 0.63327 0.0
H2279 H 0.67589 0.6418 0.59093 0.0
H2280 H 0.70944 0.71564 0.59615 0.0
H2281 H 0.69159 0.72091 0.63844 0.0
H2282 H 0.68983 0.70669 0.5492 0.0
H2283 H 0.74319 0.66373 0.60884 0.0
H2284 H 0.75156 0.63322 0.64278 0.0
H2285 H 0.72495 0.57363 0.59401 0.0
H2286 H 0.71605 0.60386 0.55989 0.0
H2287 H 0.78876 0.70468 0.46354 0.0
H2288 H 0.76282 0.70563 0.50124 0.0
H2289 H 0.73521 0.63099 0.4848 0.0
H2290 H 0.76156 0.62974 0.44685 0.0
H2291 H 0.74759 0.63709 0.53508 0.0
H2292 H 0.69811 0.67965 0.47383 0.0
H2293 H 0.6894 0.71019 0.44004 0.0
H2294 H 0.70823 0.77033 0.49149 0.0
H2295 H 0.71743 0.74013 0.5255 0.0
C2296 C 0.66934 0.662 0.62541 0.0
C2297 C 0.67379 0.68413 0.63936 0.0
C2298 C 0.67939 0.65911 0.60119 0.0
C2299 C 0.69431 0.67819 0.59056 0.0
C2300 C 0.69803 0.70065 0.60404 0.0
C2301 C 0.68786 0.70361 0.62823 0.0
C2302 C 0.7068 0.67448 0.56582 0.0
C2303 C 0.7026 0.6916 0.54616 0.0
C2304 C 0.72287 0.65431 0.56161 0.0
C2305 C 0.72872 0.63608 0.58191 0.0
C2306 C 0.73899 0.64413 0.60541 0.0
C2307 C 0.74383 0.62689 0.62467 0.0
C2308 C 0.73872 0.60151 0.62058 0.0
C2309 C 0.72885 0.59331 0.59717 0.0
C2310 C 0.72392 0.61048 0.57785 0.0
C2311 C 0.77715 0.68843 0.46782 0.0
C2312 C 0.77715 0.66715 0.45212 0.0
C2313 C 0.76223 0.68907 0.48936 0.0
C2314 C 0.74678 0.66854 0.49562 0.0
C2315 C 0.7469 0.64709 0.48021 0.0
C2316 C 0.76191 0.64642 0.45854 0.0
C2317 C 0.73101 0.66962 0.51862 0.0
C2318 C 0.73457 0.65201 0.53796 0.0
C2319 C 0.71433 0.68933 0.52254 0.0
C2320 C 0.70862 0.70759 0.50218 0.0
C2321 C 0.70056 0.69938 0.4779 0.0
C2322 C 0.69551 0.71664 0.45871 0.0
C2323 C 0.6983 0.74218 0.4636 0.0
C2324 C 0.70608 0.75053 0.48772 0.0
C2325 C 0.71119 0.73335 0.50698 0.0
H2326 H 0.69438 0.75551 0.44872 0.0
H2327 H 0.74245 0.58819 0.63554 0.0
H2328 H 0.39736 0.54253 0.20135 0.0
H2329 H 0.39224 0.52418 0.24356 0.0
H2330 H 0.43585 0.46146 0.22112 0.0
H2331 H 0.44127 0.47987 0.17865 0.0
H2332 H 0.38855 0.4528 0.25626 0.0
H2333 H 0.46882 0.49737 0.24721 0.0
H2334 H 0.49431 0.53385 0.23379 0.0
H2335 H 0.45271 0.5811 0.28302 0.0
H2336 H 0.42667 0.54492 0.29638 0.0
H2337 H 0.4527 0.45183 0.39137 0.0
H2338 H 0.45361 0.46181 0.34588 0.0
H2339 H 0.37316 0.46626 0.3447 0.0
H2340 H 0.37211 0.45494 0.3897 0.0
H2341 H 0.44027 0.50059 0.31963 0.0
H2342 H 0.34916 0.4505 0.28842 0.0
H2343 H 0.32136 0.41718 0.30519 0.0
H2344 H 0.38455 0.38071 0.33798 0.0
H2345 H 0.4128 0.41359 0.32107 0.0
C2346 C 0.40521 0.52446 0.20509 0.0
C2347 C 0.41977 0.51263 0.18673 0.0
C2348 C 0.40229 0.51404 0.22922 0.0
C2349 C 0.41367 0.49153 0.23534 0.0
C2350 C 0.42681 0.47879 0.2166 0.0
C2351 C 0.43003 0.48938 0.19248 0.0
C2352 C 0.41479 0.48341 0.26218 0.0
C2353 C 0.39996 0.46304 0.27015 0.0
C2354 C 0.42968 0.49686 0.28016 0.0
C2355 C 0.44567 0.5185 0.2726 0.0
C2356 C 0.46499 0.51557 0.25502 0.0
C2357 C 0.47955 0.53618 0.24744 0.0
C2358 C 0.4751 0.55979 0.2575 0.0
C2359 C 0.45612 0.56281 0.27522 0.0
C2360 C 0.44147 0.54226 0.28281 0.0
C2361 C 0.43524 0.45487 0.38132 0.0
C2362 C 0.41233 0.45237 0.39391 0.0
C2363 C 0.43577 0.4606 0.35538 0.0
C2364 C 0.41342 0.46427 0.34171 0.0
C2365 C 0.39059 0.46274 0.35459 0.0
C2366 C 0.39002 0.45641 0.38034 0.0
C2367 C 0.41404 0.46983 0.31404 0.0
C2368 C 0.42912 0.48994 0.30584 0.0
C2369 C 0.39942 0.45601 0.29593 0.0
C2370 C 0.38306 0.43465 0.30365 0.0
C2371 C 0.35717 0.43519 0.29888 0.0
C2372 C 0.34132 0.41647 0.30856 0.0
C2373 C 0.35116 0.39708 0.32297 0.0
C2374 C 0.37695 0.39592 0.32707 0.0
C2375 C 0.39289 0.41454 0.31737 0.0
H2376 H 0.33882 0.38281 0.33074 0.0
H2377 H 0.48638 0.57573 0.25161 0.0
H2378 H 0.26195 0.63537 0.90054 0.0
H2379 H 0.29055 0.61718 0.93176 0.0
H2380 H 0.23117 0.6128 0.98647 0.0
H2381 H 0.20204 0.63004 0.9547 0.0
H2382 H 0.28473 0.6446 0.99452 0.0
H2383 H 0.24371 0.56462 0.98198 0.0
H2384 H 0.22553 0.53009 0.95617 0.0
H2385 H 0.29672 0.51888 0.92163 0.0
H2386 H 0.31523 0.55365 0.94694 0.0
H2387 H 0.37574 0.59856 0.08282 0.0
H2388 H 0.33497 0.60249 0.06151 0.0
H2389 H 0.36817 0.58441 0.98954 0.0
H2390 H 0.40892 0.58088 1.01053 0.0
H2391 H 0.32146 0.56055 0.99667 0.0
H2392 H 0.36154 0.64109 1.00334 0.0
H2393 H 0.38144 0.67759 0.02456 0.0
H2394 H 0.31378 0.69084 0.06488 0.0
H2395 H 0.29375 0.65364 0.04484 0.0
C2396 C 0.25486 0.6298 0.91898 0.0
C2397 C 0.2299 0.63387 0.9253 0.0
C2398 C 0.27115 0.61948 0.93674 0.0
C2399 C 0.26287 0.61364 0.96128 0.0
C2400 C 0.23773 0.61699 0.96748 0.0
C2401 C 0.22117 0.62669 0.94938 0.0
C2402 C 0.28151 0.6068 0.98084 0.0
C2403 C 0.2923 0.62604 0.99573 0.0
C2404 C 0.2918 0.58283 0.98146 0.0
C2405 C 0.28079 0.56192 0.96618 0.0
C2406 C 0.25542 0.55499 0.96867 0.0
C2407 C 0.24507 0.53532 0.95418 0.0
C2408 C 0.25994 0.52234 0.93722 0.0
C2409 C 0.28521 0.52897 0.93476 0.0
C2410 C 0.29565 0.54864 0.94919 0.0
C2411 C 0.37428 0.59523 0.0625 0.0
C2412 C 0.39555 0.58966 0.04828 0.0
C2413 C 0.35101 0.59746 0.05039 0.0
C2414 C 0.34862 0.59378 0.02397 0.0
C2415 C 0.36963 0.58723 1.00996 0.0
C2416 C 0.39292 0.58541 0.02195 0.0
C2417 C 0.32475 0.59839 1.01045 0.0
C2418 C 0.31331 0.57888 0.99634 0.0
C2419 C 0.31406 0.62229 1.01023 0.0
C2420 C 0.32631 0.64419 0.02301 0.0
C2421 C 0.35105 0.6514 1.01719 0.0
C2422 C 0.36236 0.67224 0.02901 0.0
C2423 C 0.34897 0.68633 0.04633 0.0
C2424 C 0.32423 0.67964 0.05182 0.0
C2425 C 0.31292 0.65863 0.04029 0.0
H2426 H 0.35769 0.70257 0.05534 0.0
H2427 H 0.2519 0.50711 0.92603 0.0
H2428 H 0.14748 0.58505 0.85323 0.0
H2429 H 0.12884 0.55106 0.82748 0.0
H2430 H 0.1094 0.60386 0.76898 0.0
H2431 H 0.12718 0.6378 0.79489 0.0
H2432 H 0.07147 0.57375 0.77656 0.0
H2433 H 0.16018 0.56334 0.76478 0.0
H2434 H 0.20368 0.5567 0.77878 0.0
H2435 H 0.1814 0.48729 0.81337 0.0
H2436 H 0.13769 0.49369 0.79984 0.0
H2437 H 0.06665 0.50672 0.66101 0.0
H2438 H 0.07352 0.53337 0.6983 0.0
H2439 H 0.07639 0.46832 0.74635 0.0
H2440 H 0.0693 0.44144 0.7089 0.0
H2441 H 0.11845 0.49938 0.75088 0.0
H2442 H 0.03027 0.50772 0.75485 0.0
H2443 H 0.9878 0.51488 0.73815 0.0
H2444 H 1.01004 0.58899 0.71557 0.0
H2445 H 0.05276 0.58217 0.7318 0.0
C2446 C 0.13941 0.58932 0.83478 0.0
C2447 C 0.13882 0.61407 0.82605 0.0
C2448 C 0.12876 0.56989 0.82007 0.0
C2449 C 0.11777 0.57485 0.7962 0.0
C2450 C 0.11757 0.59955 0.78739 0.0
C2451 C 0.12788 0.61894 0.80217 0.0
C2452 C 0.10627 0.5546 0.78022 0.0
C2453 C 0.08181 0.55755 0.77085 0.0
C2454 C 0.11938 0.53299 0.77344 0.0
C2455 C 0.14563 0.52915 0.7816 0.0
C2456 C 0.16453 0.54677 0.77556 0.0
C2457 C 0.18922 0.54303 0.78337 0.0
C2458 C 0.19528 0.52163 0.79703 0.0
C2459 C 0.17667 0.50388 0.80284 0.0
C2460 C 0.15194 0.50756 0.79511 0.0
C2461 C 0.06795 0.49812 0.67962 0.0
C2462 C 0.06742 0.47205 0.68208 0.0
C2463 C 0.07186 0.51337 0.70093 0.0
C2464 C 0.07547 0.50283 0.7251 0.0
C2465 C 0.07358 0.4768 0.72786 0.0
C2466 C 0.0693 0.4615 0.7065 0.0
C2467 C 0.08403 0.51902 0.7466 0.0
C2468 C 0.10793 0.51531 0.75702 0.0
C2469 C 0.07053 0.54009 0.75409 0.0
C2470 C 0.04478 0.54437 0.74445 0.0
C2471 C 0.02616 0.52549 0.74617 0.0
C2472 C 1.00203 0.5295 0.73681 0.0
C2473 C 0.99623 0.55236 0.72578 0.0
C2474 C 1.01455 0.57129 0.72413 0.0
C2475 C 0.03872 0.56737 0.73345 0.0
H2476 H 0.97754 0.55543 0.71853 0.0
H2477 H 0.21441 0.51876 0.80306 0.0
H2478 H 0.30408 0.44924 0.51433 0.0
H2479 H 0.25954 0.43867 0.5125 0.0
H2480 H 0.2658 0.41791 0.4334 0.0
H2481 H 0.31057 0.42854 0.43511 0.0
H2482 H 0.21788 0.45033 0.48622 0.0
H2483 H 0.23111 0.3619 0.42739 0.0
H2484 H 0.2629 0.33132 0.41581 0.0
H2485 H 0.30419 0.34875 0.48449 0.0
H2486 H 0.27264 0.37928 0.49647 0.0
H2487 H 0.10883 0.38975 0.52062 0.0
H2488 H 0.13766 0.39678 0.48541 0.0
H2489 H 0.19604 0.36145 0.52854 0.0
H2490 H 0.16726 0.35414 0.56351 0.0
H2491 H 0.20432 0.35883 0.47685 0.0
H2492 H 0.18338 0.42093 0.54269 0.0
H2493 H 0.15185 0.44572 0.56464 0.0
H2494 H 0.12987 0.47817 0.49333 0.0
H2495 H 0.16106 0.45321 0.47094 0.0
C2496 C 0.29583 0.44317 0.49634 0.0
C2497 C 0.3108 0.43954 0.47497 0.0
C2498 C 0.27036 0.43719 0.49526 0.0
C2499 C 0.25944 0.42723 0.47288 0.0
C2500 C 0.27392 0.42544 0.45088 0.0
C2501 C 0.29945 0.43166 0.45188 0.0
C2502 C 0.23399 0.41588 0.47412 0.0
C2503 C 0.21464 0.43045 0.48336 0.0
C2504 C 0.22976 0.38991 0.47058 0.0
C2505 C 0.24973 0.37306 0.46261 0.0
C2506 C 0.24711 0.35934 0.43986 0.0
C2507 C 0.26503 0.34197 0.43328 0.0
C2508 C 0.28546 0.33804 0.44948 0.0
C2509 C 0.28834 0.35182 0.47199 0.0
C2510 C 0.27051 0.36921 0.47863 0.0
C2511 C 0.12741 0.38224 0.52196 0.0
C2512 C 0.13609 0.37187 0.54489 0.0
C2513 C 0.14387 0.38634 0.50185 0.0
C2514 C 0.1691 0.3802 0.50467 0.0
C2515 C 0.17667 0.36645 0.52602 0.0
C2516 C 0.16028 0.3624 0.54608 0.0
C2517 C 0.18867 0.39315 0.48966 0.0
C2518 C 0.20693 0.37894 0.47797 0.0
C2519 C 0.19226 0.41935 0.49166 0.0
C2520 C 0.17435 0.43514 0.50516 0.0
C2521 C 0.17182 0.43338 0.53173 0.0
C2522 C 0.15398 0.4474 0.54423 0.0
C2523 C 0.13883 0.46348 0.53038 0.0
C2524 C 0.14159 0.46567 0.50402 0.0
C2525 C 0.15932 0.45159 0.49141 0.0
H2526 H 0.12498 0.47427 0.54007 0.0
H2527 H 0.29893 0.32414 0.44476 0.0
loop_
_geom_bond_atom_site_label_1
_geom_bond_atom_site_label_2
_geom_bond_distance
_geom_bond_site_symmetry_2
_ccdc_geom_bond_type
C0 C1 1.351 . S
C0 N3 1.368 . S
C0 H5 0.931 . S
C1 C0 1.351 . S
C1 N2 1.373 . S
C1 H29 0.930 . S
N2 C1 1.373 . S
N2 C4 1.340 . S
N3 C0 1.368 . S
N3 C4 1.321 . S
N3 Co6 2.135 . S
C4 N2 1.340 . S
C4 N3 1.321 . S
C4 H28 0.930 . S
H5 C0 0.931 . S
Co6 N3 2.135 . S
Co6 N9 2.121 . S
Co6 O14 2.055 . S
Co6 O17 2.039 . S
Co6 N20 2.140 . S
C7 O8 1.227 . S
C7 O17 1.265 . S
O8 C7 1.227 . S
N9 Co6 2.121 . S
N9 C11 1.375 . S
N9 C12 1.313 . S
C10 C11 1.338 . S
C10 N13 1.377 . S
C10 H30 0.930 . S
C11 N9 1.375 . S
C11 C10 1.338 . S
C11 H15 0.931 . S
C12 N9 1.313 . S
C12 N13 1.344 . S
C12 H16 0.930 . S
N13 C10 1.377 . S
N13 C12 1.344 . S
O14 Co6 2.055 . S
O14 C18 1.253 . S
H15 C11 0.931 . S
H16 C12 0.930 . S
O17 Co6 2.039 . S
O17 C7 1.265 . S
C18 O14 1.253 . S
C18 O19 1.227 . S
O19 C18 1.227 . S
N20 Co6 2.140 . S
N20 C23 1.346 . S
N20 C24 1.345 . S
C21 C22 1.387 . S
C21 C25 1.391 . S
C22 C21 1.387 . S
C22 C23 1.369 . S
C22 H31 0.929 . S
C23 N20 1.346 . S
C23 C22 1.369 . S
C23 H26 0.928 . S
C24 N20 1.345 . S
C24 C25 1.371 . S
C24 H27 0.931 . S
C25 C21 1.391 . S
C25 C24 1.371 . S
C25 H32 0.930 . S
H26 C23 0.928 . S
H27 C24 0.931 . S
H28 C4 0.930 . S
H29 C1 0.930 . S
H30 C10 0.930 . S
H31 C22 0.929 . S
H32 C25 0.930 . S
C33 C34 1.351 . S
C33 N36 1.368 . S
C33 H38 0.931 . S
C34 C33 1.351 . S
C34 N35 1.373 . S
C34 H62 0.930 . S
N35 C34 1.373 . S
N35 C37 1.340 . S
N36 C33 1.368 . S
N36 C37 1.321 . S
N36 Co39 2.135 . S
C37 N35 1.340 . S
C37 N36 1.321 . S
C37 H61 0.930 . S
H38 C33 0.931 . S
Co39 N36 2.135 . S
Co39 N42 2.121 . S
Co39 O47 2.055 . S
Co39 O50 2.039 . S
Co39 N53 2.140 . S
C40 O41 1.227 . S
C40 O50 1.265 . S
O41 C40 1.227 . S
N42 Co39 2.121 . S
N42 C44 1.375 . S
N42 C45 1.313 . S
C43 C44 1.338 . S
C43 N46 1.377 . S
C43 H63 0.930 . S
C44 N42 1.375 . S
C44 C43 1.338 . S
C44 H48 0.931 . S
C45 N42 1.313 . S
C45 N46 1.344 . S
C45 H49 0.930 . S
N46 C43 1.377 . S
N46 C45 1.344 . S
O47 Co39 2.055 . S
O47 C51 1.253 . S
H48 C44 0.931 . S
H49 C45 0.930 . S
O50 Co39 2.039 . S
O50 C40 1.265 . S
C51 O47 1.253 . S
C51 O52 1.227 . S
O52 C51 1.227 . S
N53 Co39 2.140 . S
N53 C56 1.346 . S
N53 C57 1.345 . S
C54 C55 1.387 . S
C54 C58 1.391 . S
C55 C54 1.387 . S
C55 C56 1.369 . S
C55 H64 0.929 . S
C56 N53 1.346 . S
C56 C55 1.369 . S
C56 H59 0.928 . S
C57 N53 1.345 . S
C57 C58 1.371 . S
C57 H60 0.931 . S
C58 C54 1.391 . S
C58 C57 1.371 . S
C58 H65 0.930 . S
H59 C56 0.928 . S
H60 C57 0.931 . S
H61 C37 0.930 . S
H62 C34 0.930 . S
H63 C43 0.930 . S
H64 C55 0.929 . S
H65 C58 0.930 . S
C66 C67 1.351 . S
C66 N69 1.368 . S
C66 H71 0.931 . S
C67 C66 1.351 . S
C67 N68 1.373 . S
C67 H95 0.930 . S
N68 C67 1.373 . S
N68 C70 1.340 . S
N69 C66 1.368 . S
N69 C70 1.321 . S
N69 Co72 2.135 . S
C70 N68 1.340 . S
C70 N69 1.321 . S
C70 H94 0.930 . S
H71 C66 0.931 . S
Co72 N69 2.135 . S
Co72 N75 2.121 . S
Co72 O80 2.055 . S
Co72 O83 2.039 . S
Co72 N86 2.140 . S
C73 O74 1.227 . S
C73 O83 1.265 . S
O74 C73 1.227 . S
N75 Co72 2.121 . S
N75 C77 1.375 . S
N75 C78 1.313 . S
C76 C77 1.338 . S
C76 N79 1.377 . S
C76 H96 0.930 . S
C77 N75 1.375 . S
C77 C76 1.338 . S
C77 H81 0.931 . S
C78 N75 1.313 . S
C78 N79 1.344 . S
C78 H82 0.930 . S
N79 C76 1.377 . S
N79 C78 1.344 . S
O80 Co72 2.055 . S
O80 C84 1.253 . S
H81 C77 0.931 . S
H82 C78 0.930 . S
O83 Co72 2.039 . S
O83 C73 1.265 . S
C84 O80 1.253 . S
C84 O85 1.227 . S
O85 C84 1.227 . S
N86 Co72 2.140 . S
N86 C89 1.346 . S
N86 C90 1.345 . S
C87 C88 1.387 . S
C87 C91 1.391 . S
C88 C87 1.387 . S
C88 C89 1.369 . S
C88 H97 0.929 . S
C89 N86 1.346 . S
C89 C88 1.369 . S
C89 H92 0.928 . S
C90 N86 1.345 . S
C90 C91 1.371 . S
C90 H93 0.931 . S
C91 C87 1.391 . S
C91 C90 1.371 . S
C91 H98 0.930 . S
H92 C89 0.928 . S
H93 C90 0.931 . S
H94 C70 0.930 . S
H95 C67 0.930 . S
H96 C76 0.930 . S
H97 C88 0.929 . S
H98 C91 0.930 . S
C99 C100 1.351 . S
C99 N102 1.368 . S
C99 H104 0.931 . S
C100 C99 1.351 . S
C100 N101 1.373 . S
C100 H128 0.930 . S
N101 C100 1.373 . S
N101 C103 1.340 . S
N102 C99 1.368 . S
N102 C103 1.321 . S
N102 Co105 2.135 . S
C103 N101 1.340 . S
C103 N102 1.321 . S
C103 H127 0.930 . S
H104 C99 0.931 . S
Co105 N102 2.135 . S
Co105 N108 2.121 . S
Co105 O113 2.055 . S
Co105 O116 2.039 . S
Co105 N119 2.140 . S
C106 O107 1.227 . S
C106 O116 1.265 . S
O107 C106 1.227 . S
N108 Co105 2.121 . S
N108 C110 1.375 . S
N108 C111 1.313 . S
C109 C110 1.338 . S
C109 N112 1.377 . S
C109 H129 0.930 . S
C110 N108 1.375 . S
C110 C109 1.338 . S
C110 H114 0.931 . S
C111 N108 1.313 . S
C111 N112 1.344 . S
C111 H115 0.930 . S
N112 C109 1.377 . S
N112 C111 1.344 . S
O113 Co105 2.055 . S
O113 C117 1.253 . S
H114 C110 0.931 . S
H115 C111 0.930 . S
O116 Co105 2.039 . S
O116 C106 1.265 . S
C117 O113 1.253 . S
C117 O118 1.227 . S
O118 C117 1.227 . S
N119 Co105 2.140 . S
N119 C122 1.346 . S
N119 C123 1.345 . S
C120 C121 1.387 . S
C120 C124 1.391 . S
C121 C120 1.387 . S
C121 C122 1.369 . S
C121 H130 0.929 . S
C122 N119 1.346 . S
C122 C121 1.369 . S
C122 H125 0.928 . S
C123 N119 1.345 . S
C123 C124 1.371 . S
C123 H126 0.931 . S
C124 C120 1.391 . S
C124 C123 1.371 . S
C124 H131 0.930 . S
H125 C122 0.928 . S
H126 C123 0.931 . S
H127 C103 0.930 . S
H128 C100 0.930 . S
H129 C109 0.930 . S
H130 C121 0.929 . S
H131 C124 0.930 . S
C132 C133 1.351 . S
C132 N135 1.368 . S
C132 H137 0.931 . S
C133 C132 1.351 . S
C133 N134 1.373 . S
C133 H161 0.930 . S
N134 C133 1.373 . S
N134 C136 1.340 . S
N135 C132 1.368 . S
N135 C136 1.321 . S
N135 Co138 2.135 . S
C136 N134 1.340 . S
C136 N135 1.321 . S
C136 H160 0.930 . S
H137 C132 0.931 . S
Co138 N135 2.135 . S
Co138 N141 2.121 . S
Co138 O146 2.055 . S
Co138 O149 2.039 . S
Co138 N152 2.140 . S
C139 O140 1.227 . S
C139 O149 1.265 . S
O140 C139 1.227 . S
N141 Co138 2.121 . S
N141 C143 1.375 . S
N141 C144 1.313 . S
C142 C143 1.338 . S
C142 N145 1.377 . S
C142 H162 0.930 . S
C143 N141 1.375 . S
C143 C142 1.338 . S
C143 H147 0.931 . S
C144 N141 1.313 . S
C144 N145 1.344 . S
C144 H148 0.930 . S
N145 C142 1.377 . S
N145 C144 1.344 . S
O146 Co138 2.055 . S
O146 C150 1.253 . S
H147 C143 0.931 . S
H148 C144 0.930 . S
O149 Co138 2.039 . S
O149 C139 1.265 . S
C150 O146 1.253 . S
C150 O151 1.227 . S
O151 C150 1.227 . S
N152 Co138 2.140 . S
N152 C155 1.346 . S
N152 C156 1.345 . S
C153 C154 1.387 . S
C153 C157 1.391 . S
C154 C153 1.387 . S
C154 C155 1.369 . S
C154 H163 0.929 . S
C155 N152 1.346 . S
C155 C154 1.369 . S
C155 H158 0.928 . S
C156 N152 1.345 . S
C156 C157 1.371 . S
C156 H159 0.931 . S
C157 C153 1.391 . S
C157 C156 1.371 . S
C157 H164 0.930 . S
H158 C155 0.928 . S
H159 C156 0.931 . S
H160 C136 0.930 . S
H161 C133 0.930 . S
H162 C142 0.930 . S
H163 C154 0.929 . S
H164 C157 0.930 . S
C165 C166 1.351 . S
C165 N168 1.368 . S
C165 H170 0.931 . S
C166 C165 1.351 . S
C166 N167 1.373 . S
C166 H194 0.930 . S
N167 C166 1.373 . S
N167 C169 1.340 . S
N168 C165 1.368 . S
N168 C169 1.321 . S
N168 Co171 2.135 . S
C169 N167 1.340 . S
C169 N168 1.321 . S
C169 H193 0.930 . S
H170 C165 0.931 . S
Co171 N168 2.135 . S
Co171 N174 2.121 . S
Co171 O179 2.055 . S
Co171 O182 2.039 . S
Co171 N185 2.140 . S
C172 O173 1.227 . S
C172 O182 1.265 . S
O173 C172 1.227 . S
N174 Co171 2.121 . S
N174 C176 1.375 . S
N174 C177 1.313 . S
C175 C176 1.338 . S
C175 N178 1.377 . S
C175 H195 0.930 . S
C176 N174 1.375 . S
C176 C175 1.338 . S
C176 H180 0.931 . S
C177 N174 1.313 . S
C177 N178 1.344 . S
C177 H181 0.930 . S
N178 C175 1.377 . S
N178 C177 1.344 . S
O179 Co171 2.055 . S
O179 C183 1.253 . S
H180 C176 0.931 . S
H181 C177 0.930 . S
O182 Co171 2.039 . S
O182 C172 1.265 . S
C183 O179 1.253 . S
C183 O184 1.227 . S
O184 C183 1.227 . S
N185 Co171 2.140 . S
N185 C188 1.346 . S
N185 C189 1.345 . S
C186 C187 1.387 . S
C186 C190 1.391 . S
C187 C186 1.387 . S
C187 C188 1.369 . S
C187 H196 0.929 . S
C188 N185 1.346 . S
C188 C187 1.369 . S
C188 H191 0.928 . S
C189 N185 1.345 . S
C189 C190 1.371 . S
C189 H192 0.931 . S
C190 C186 1.391 . S
C190 C189 1.371 . S
C190 H197 0.930 . S
H191 C188 0.928 . S
H192 C189 0.931 . S
H193 C169 0.930 . S
H194 C166 0.930 . S
H195 C175 0.930 . S
H196 C187 0.929 . S
H197 C190 0.930 . S
C198 C199 1.351 . S
C198 N201 1.368 . S
C198 H203 0.931 . S
C199 C198 1.351 . S
C199 N200 1.373 . S
C199 H227 0.930 . S
N200 C199 1.373 . S
N200 C202 1.340 . S
N201 C198 1.368 . S
N201 C202 1.321 . S
N201 Co204 2.135 . S
C202 N200 1.340 . S
C202 N201 1.321 . S
C202 H226 0.930 . S
H203 C198 0.931 . S
Co204 N201 2.135 . S
Co204 N207 2.121 . S
Co204 O212 2.055 . S
Co204 O215 2.039 . S
Co204 N218 2.140 . S
C205 O206 1.227 . S
C205 O215 1.265 . S
O206 C205 1.227 . S
N207 Co204 2.121 . S
N207 C209 1.375 . S
N207 C210 1.313 . S
C208 C209 1.338 . S
C208 N211 1.377 . S
C208 H228 0.930 . S
C209 N207 1.375 . S
C209 C208 1.338 . S
C209 H213 0.931 . S
C210 N207 1.313 . S
C210 N211 1.344 . S
C210 H214 0.930 . S
N211 C208 1.377 . S
N211 C210 1.344 . S
O212 Co204 2.055 . S
O212 C216 1.253 . S
H213 C209 0.931 . S
H214 C210 0.930 . S
O215 Co204 2.039 . S
O215 C205 1.265 . S
C216 O212 1.253 . S
C216 O217 1.227 . S
O217 C216 1.227 . S
N218 Co204 2.140 . S
N218 C221 1.346 . S
N218 C222 1.345 . S
C219 C220 1.387 . S
C219 C223 1.391 . S
C220 C219 1.387 . S
C220 C221 1.369 . S
C220 H229 0.929 . S
C221 N218 1.346 . S
C221 C220 1.369 . S
C221 H224 0.928 . S
C222 N218 1.345 . S
C222 C223 1.371 . S
C222 H225 0.931 . S
C223 C219 1.391 . S
C223 C222 1.371 . S
C223 H230 0.930 . S
H224 C221 0.928 . S
H225 C222 0.931 . S
H226 C202 0.930 . S
H227 C199 0.930 . S
H228 C208 0.930 . S
H229 C220 0.929 . S
H230 C223 0.930 . S
C231 C232 1.351 . S
C231 N234 1.368 . S
C231 H236 0.931 . S
C232 C231 1.351 . S
C232 N233 1.373 . S
C232 H260 0.930 . S
N233 C232 1.373 . S
N233 C235 1.340 . S
N234 C231 1.368 . S
N234 C235 1.321 . S
N234 Co237 2.135 . S
C235 N233 1.340 . S
C235 N234 1.321 . S
C235 H259 0.930 . S
H236 C231 0.931 . S
Co237 N234 2.135 . S
Co237 N240 2.121 . S
Co237 O245 2.055 . S
Co237 O248 2.039 . S
Co237 N251 2.140 . S
C238 O239 1.227 . S
C238 O248 1.265 . S
O239 C238 1.227 . S
N240 Co237 2.121 . S
N240 C242 1.375 . S
N240 C243 1.313 . S
C241 C242 1.338 . S
C241 N244 1.377 . S
C241 H261 0.930 . S
C242 N240 1.375 . S
C242 C241 1.338 . S
C242 H246 0.931 . S
C243 N240 1.313 . S
C243 N244 1.344 . S
C243 H247 0.930 . S
N244 C241 1.377 . S
N244 C243 1.344 . S
O245 Co237 2.055 . S
O245 C249 1.253 . S
H246 C242 0.931 . S
H247 C243 0.930 . S
O248 Co237 2.039 . S
O248 C238 1.265 . S
C249 O245 1.253 . S
C249 O250 1.227 . S
O250 C249 1.227 . S
N251 Co237 2.140 . S
N251 C254 1.346 . S
N251 C255 1.345 . S
C252 C253 1.387 . S
C252 C256 1.391 . S
C253 C252 1.387 . S
C253 C254 1.369 . S
C253 H262 0.929 . S
C254 N251 1.346 . S
C254 C253 1.369 . S
C254 H257 0.928 . S
C255 N251 1.345 . S
C255 C256 1.371 . S
C255 H258 0.931 . S
C256 C252 1.391 . S
C256 C255 1.371 . S
C256 H263 0.930 . S
H257 C254 0.928 . S
H258 C255 0.931 . S
H259 C235 0.930 . S
H260 C232 0.930 . S
H261 C241 0.930 . S
H262 C253 0.929 . S
H263 C256 0.930 . S
C264 C265 1.351 . S
C264 N267 1.368 . S
C264 H269 0.931 . S
C265 C264 1.351 . S
C265 N266 1.373 . S
C265 H293 0.930 . S
N266 C265 1.373 . S
N266 C268 1.340 . S
N267 C264 1.368 . S
N267 C268 1.321 . S
N267 Co270 2.135 . S
C268 N266 1.340 . S
C268 N267 1.321 . S
C268 H292 0.930 . S
H269 C264 0.931 . S
Co270 N267 2.135 . S
Co270 N273 2.121 . S
Co270 O278 2.055 . S
Co270 O281 2.039 . S
Co270 N284 2.140 . S
C271 O272 1.227 . S
C271 O281 1.265 . S
O272 C271 1.227 . S
N273 Co270 2.121 . S
N273 C275 1.375 . S
N273 C276 1.313 . S
C274 C275 1.338 . S
C274 N277 1.377 . S
C274 H294 0.930 . S
C275 N273 1.375 . S
C275 C274 1.338 . S
C275 H279 0.931 . S
C276 N273 1.313 . S
C276 N277 1.344 . S
C276 H280 0.930 . S
N277 C274 1.377 . S
N277 C276 1.344 . S
O278 Co270 2.055 . S
O278 C282 1.253 . S
H279 C275 0.931 . S
H280 C276 0.930 . S
O281 Co270 2.039 . S
O281 C271 1.265 . S
C282 O278 1.253 . S
C282 O283 1.227 . S
O283 C282 1.227 . S
N284 Co270 2.140 . S
N284 C287 1.346 . S
N284 C288 1.345 . S
C285 C286 1.387 . S
C285 C289 1.391 . S
C286 C285 1.387 . S
C286 C287 1.369 . S
C286 H295 0.929 . S
C287 N284 1.346 . S
C287 C286 1.369 . S
C287 H290 0.928 . S
C288 N284 1.345 . S
C288 C289 1.371 . S
C288 H291 0.931 . S
C289 C285 1.391 . S
C289 C288 1.371 . S
C289 H296 0.930 . S
H290 C287 0.928 . S
H291 C288 0.931 . S
H292 C268 0.930 . S
H293 C265 0.930 . S
H294 C274 0.930 . S
H295 C286 0.929 . S
H296 C289 0.930 . S
C297 C298 1.351 . S
C297 N300 1.368 . S
C297 H302 0.931 . S
C298 C297 1.351 . S
C298 N299 1.373 . S
C298 H326 0.930 . S
N299 C298 1.373 . S
N299 C301 1.340 . S
N300 C297 1.368 . S
N300 C301 1.321 . S
N300 Co303 2.135 . S
C301 N299 1.340 . S
C301 N300 1.321 . S
C301 H325 0.930 . S
H302 C297 0.931 . S
Co303 N300 2.135 . S
Co303 N306 2.121 . S
Co303 O311 2.055 . S
Co303 O314 2.039 . S
Co303 N317 2.140 . S
C304 O305 1.227 . S
C304 O314 1.265 . S
O305 C304 1.227 . S
N306 Co303 2.121 . S
N306 C308 1.375 . S
N306 C309 1.313 . S
C307 C308 1.338 . S
C307 N310 1.377 . S
C307 H327 0.930 . S
C308 N306 1.375 . S
C308 C307 1.338 . S
C308 H312 0.931 . S
C309 N306 1.313 . S
C309 N310 1.344 . S
C309 H313 0.930 . S
N310 C307 1.377 . S
N310 C309 1.344 . S
O311 Co303 2.055 . S
O311 C315 1.253 . S
H312 C308 0.931 . S
H313 C309 0.930 . S
O314 Co303 2.039 . S
O314 C304 1.265 . S
C315 O311 1.253 . S
C315 O316 1.227 . S
O316 C315 1.227 . S
N317 Co303 2.140 . S
N317 C320 1.346 . S
N317 C321 1.345 . S
C318 C319 1.387 . S
C318 C322 1.391 . S
C319 C318 1.387 . S
C319 C320 1.369 . S
C319 H328 0.929 . S
C320 N317 1.346 . S
C320 C319 1.369 . S
C320 H323 0.928 . S
C321 N317 1.345 . S
C321 C322 1.371 . S
C321 H324 0.931 . S
C322 C318 1.391 . S
C322 C321 1.371 . S
C322 H329 0.930 . S
H323 C320 0.928 . S
H324 C321 0.931 . S
H325 C301 0.930 . S
H326 C298 0.930 . S
H327 C307 0.930 . S
H328 C319 0.929 . S
H329 C322 0.930 . S
C330 C331 1.351 . S
C330 N333 1.368 . S
C330 H335 0.931 . S
C331 C330 1.351 . S
C331 N332 1.373 . S
C331 H359 0.930 . S
N332 C331 1.373 . S
N332 C334 1.340 . S
N333 C330 1.368 . S
N333 C334 1.321 . S
N333 Co336 2.135 . S
C334 N332 1.340 . S
C334 N333 1.321 . S
C334 H358 0.930 . S
H335 C330 0.931 . S
Co336 N333 2.135 . S
Co336 N339 2.121 . S
Co336 O344 2.055 . S
Co336 O347 2.039 . S
Co336 N350 2.140 . S
C337 O338 1.227 . S
C337 O347 1.265 . S
O338 C337 1.227 . S
N339 Co336 2.121 . S
N339 C341 1.375 . S
N339 C342 1.313 . S
C340 C341 1.338 . S
C340 N343 1.377 . S
C340 H360 0.930 . S
C341 N339 1.375 . S
C341 C340 1.338 . S
C341 H345 0.931 . S
C342 N339 1.313 . S
C342 N343 1.344 . S
C342 H346 0.930 . S
N343 C340 1.377 . S
N343 C342 1.344 . S
O344 Co336 2.055 . S
O344 C348 1.253 . S
H345 C341 0.931 . S
H346 C342 0.930 . S
O347 Co336 2.039 . S
O347 C337 1.265 . S
C348 O344 1.253 . S
C348 O349 1.227 . S
O349 C348 1.227 . S
N350 Co336 2.140 . S
N350 C353 1.346 . S
N350 C354 1.345 . S
C351 C352 1.387 . S
C351 C355 1.391 . S
C352 C351 1.387 . S
C352 C353 1.369 . S
C352 H361 0.929 . S
C353 N350 1.346 . S
C353 C352 1.369 . S
C353 H356 0.928 . S
C354 N350 1.345 . S
C354 C355 1.371 . S
C354 H357 0.931 . S
C355 C351 1.391 . S
C355 C354 1.371 . S
C355 H362 0.930 . S
H356 C353 0.928 . S
H357 C354 0.931 . S
H358 C334 0.930 . S
H359 C331 0.930 . S
H360 C340 0.930 . S
H361 C352 0.929 . S
H362 C355 0.930 . S
C363 C364 1.351 . S
C363 N366 1.368 . S
C363 H368 0.931 . S
C364 C363 1.351 . S
C364 N365 1.373 . S
C364 H392 0.930 . S
N365 C364 1.373 . S
N365 C367 1.340 . S
N366 C363 1.368 . S
N366 C367 1.321 . S
N366 Co369 2.135 . S
C367 N365 1.340 . S
C367 N366 1.321 . S
C367 H391 0.930 . S
H368 C363 0.931 . S
Co369 N366 2.135 . S
Co369 N372 2.121 . S
Co369 O377 2.055 . S
Co369 O380 2.039 . S
Co369 N383 2.140 . S
C370 O371 1.227 . S
C370 O380 1.265 . S
O371 C370 1.227 . S
N372 Co369 2.121 . S
N372 C374 1.375 . S
N372 C375 1.313 . S
C373 C374 1.338 . S
C373 N376 1.377 . S
C373 H393 0.930 . S
C374 N372 1.375 . S
C374 C373 1.338 . S
C374 H378 0.931 . S
C375 N372 1.313 . S
C375 N376 1.344 . S
C375 H379 0.930 . S
N376 C373 1.377 . S
N376 C375 1.344 . S
O377 Co369 2.055 . S
O377 C381 1.253 . S
H378 C374 0.931 . S
H379 C375 0.930 . S
O380 Co369 2.039 . S
O380 C370 1.265 . S
C381 O377 1.253 . S
C381 O382 1.227 . S
O382 C381 1.227 . S
N383 Co369 2.140 . S
N383 C386 1.346 . S
N383 C387 1.345 . S
C384 C385 1.387 . S
C384 C388 1.391 . S
C385 C384 1.387 . S
C385 C386 1.369 . S
C385 H394 0.929 . S
C386 N383 1.346 . S
C386 C385 1.369 . S
C386 H389 0.928 . S
C387 N383 1.345 . S
C387 C388 1.371 . S
C387 H390 0.931 . S
C388 C384 1.391 . S
C388 C387 1.371 . S
C388 H395 0.930 . S
H389 C386 0.928 . S
H390 C387 0.931 . S
H391 C367 0.930 . S
H392 C364 0.930 . S
H393 C373 0.930 . S
H394 C385 0.929 . S
H395 C388 0.930 . S
C396 C397 1.351 . S
C396 N399 1.368 . S
C396 H401 0.931 . S
C397 C396 1.351 . S
C397 N398 1.373 . S
C397 H425 0.930 . S
N398 C397 1.373 . S
N398 C400 1.340 . S
N399 C396 1.368 . S
N399 C400 1.321 . S
N399 Co402 2.135 . S
C400 N398 1.340 . S
C400 N399 1.321 . S
C400 H424 0.930 . S
H401 C396 0.931 . S
Co402 N399 2.135 . S
Co402 N405 2.121 . S
Co402 O410 2.055 . S
Co402 O413 2.039 . S
Co402 N416 2.140 . S
C403 O404 1.227 . S
C403 O413 1.265 . S
O404 C403 1.227 . S
N405 Co402 2.121 . S
N405 C407 1.375 . S
N405 C408 1.313 . S
C406 C407 1.338 . S
C406 N409 1.377 . S
C406 H426 0.930 . S
C407 N405 1.375 . S
C407 C406 1.338 . S
C407 H411 0.931 . S
C408 N405 1.313 . S
C408 N409 1.344 . S
C408 H412 0.930 . S
N409 C406 1.377 . S
N409 C408 1.344 . S
O410 Co402 2.055 . S
O410 C414 1.253 . S
H411 C407 0.931 . S
H412 C408 0.930 . S
O413 Co402 2.039 . S
O413 C403 1.265 . S
C414 O410 1.253 . S
C414 O415 1.227 . S
O415 C414 1.227 . S
N416 Co402 2.140 . S
N416 C419 1.346 . S
N416 C420 1.345 . S
C417 C418 1.387 . S
C417 C421 1.391 . S
C418 C417 1.387 . S
C418 C419 1.369 . S
C418 H427 0.929 . S
C419 N416 1.346 . S
C419 C418 1.369 . S
C419 H422 0.928 . S
C420 N416 1.345 . S
C420 C421 1.371 . S
C420 H423 0.931 . S
C421 C417 1.391 . S
C421 C420 1.371 . S
C421 H428 0.930 . S
H422 C419 0.928 . S
H423 C420 0.931 . S
H424 C400 0.930 . S
H425 C397 0.930 . S
H426 C406 0.930 . S
H427 C418 0.929 . S
H428 C421 0.930 . S
C429 C430 1.351 . S
C429 N432 1.368 . S
C429 H434 0.931 . S
C430 C429 1.351 . S
C430 N431 1.373 . S
C430 H458 0.930 . S
N431 C430 1.373 . S
N431 C433 1.340 . S
N432 C429 1.368 . S
N432 C433 1.321 . S
N432 Co435 2.135 . S
C433 N431 1.340 . S
C433 N432 1.321 . S
C433 H457 0.930 . S
H434 C429 0.931 . S
Co435 N432 2.135 . S
Co435 N438 2.121 . S
Co435 O443 2.055 . S
Co435 O446 2.039 . S
Co435 N449 2.140 . S
C436 O437 1.227 . S
C436 O446 1.265 . S
O437 C436 1.227 . S
N438 Co435 2.121 . S
N438 C440 1.375 . S
N438 C441 1.313 . S
C439 C440 1.338 . S
C439 N442 1.377 . S
C439 H459 0.930 . S
C440 N438 1.375 . S
C440 C439 1.338 . S
C440 H444 0.931 . S
C441 N438 1.313 . S
C441 N442 1.344 . S
C441 H445 0.930 . S
N442 C439 1.377 . S
N442 C441 1.344 . S
O443 Co435 2.055 . S
O443 C447 1.253 . S
H444 C440 0.931 . S
H445 C441 0.930 . S
O446 Co435 2.039 . S
O446 C436 1.265 . S
C447 O443 1.253 . S
C447 O448 1.227 . S
O448 C447 1.227 . S
N449 Co435 2.140 . S
N449 C452 1.346 . S
N449 C453 1.345 . S
C450 C451 1.387 . S
C450 C454 1.391 . S
C451 C450 1.387 . S
C451 C452 1.369 . S
C451 H460 0.929 . S
C452 N449 1.346 . S
C452 C451 1.369 . S
C452 H455 0.928 . S
C453 N449 1.345 . S
C453 C454 1.371 . S
C453 H456 0.931 . S
C454 C450 1.391 . S
C454 C453 1.371 . S
C454 H461 0.930 . S
H455 C452 0.928 . S
H456 C453 0.931 . S
H457 C433 0.930 . S
H458 C430 0.930 . S
H459 C439 0.930 . S
H460 C451 0.929 . S
H461 C454 0.930 . S
C462 C463 1.351 . S
C462 N465 1.368 . S
C462 H467 0.931 . S
C463 C462 1.351 . S
C463 N464 1.373 . S
C463 H491 0.930 . S
N464 C463 1.373 . S
N464 C466 1.340 . S
N465 C462 1.368 . S
N465 C466 1.321 . S
N465 Co468 2.135 . S
C466 N464 1.340 . S
C466 N465 1.321 . S
C466 H490 0.930 . S
H467 C462 0.931 . S
Co468 N465 2.135 . S
Co468 N471 2.121 . S
Co468 O476 2.055 . S
Co468 O479 2.039 . S
Co468 N482 2.140 . S
C469 O470 1.227 . S
C469 O479 1.265 . S
O470 C469 1.227 . S
N471 Co468 2.121 . S
N471 C473 1.375 . S
N471 C474 1.313 . S
C472 C473 1.338 . S
C472 N475 1.377 . S
C472 H492 0.930 . S
C473 N471 1.375 . S
C473 C472 1.338 . S
C473 H477 0.931 . S
C474 N471 1.313 . S
C474 N475 1.344 . S
C474 H478 0.930 . S
N475 C472 1.377 . S
N475 C474 1.344 . S
O476 Co468 2.055 . S
O476 C480 1.253 . S
H477 C473 0.931 . S
H478 C474 0.930 . S
O479 Co468 2.039 . S
O479 C469 1.265 . S
C480 O476 1.253 . S
C480 O481 1.227 . S
O481 C480 1.227 . S
N482 Co468 2.140 . S
N482 C485 1.346 . S
N482 C486 1.345 . S
C483 C484 1.387 . S
C483 C487 1.391 . S
C484 C483 1.387 . S
C484 C485 1.369 . S
C484 H493 0.929 . S
C485 N482 1.346 . S
C485 C484 1.369 . S
C485 H488 0.928 . S
C486 N482 1.345 . S
C486 C487 1.371 . S
C486 H489 0.931 . S
C487 C483 1.391 . S
C487 C486 1.371 . S
C487 H494 0.930 . S
H488 C485 0.928 . S
H489 C486 0.931 . S
H490 C466 0.930 . S
H491 C463 0.930 . S
H492 C472 0.930 . S
H493 C484 0.929 . S
H494 C487 0.930 . S
C495 C496 1.351 . S
C495 N498 1.368 . S
C495 H500 0.931 . S
C496 C495 1.351 . S
C496 N497 1.373 . S
C496 H524 0.930 . S
N497 C496 1.373 . S
N497 C499 1.340 . S
N498 C495 1.368 . S
N498 C499 1.321 . S
N498 Co501 2.135 . S
C499 N497 1.340 . S
C499 N498 1.321 . S
C499 H523 0.930 . S
H500 C495 0.931 . S
Co501 N498 2.135 . S
Co501 N504 2.121 . S
Co501 O509 2.055 . S
Co501 O512 2.039 . S
Co501 N515 2.140 . S
C502 O503 1.227 . S
C502 O512 1.265 . S
O503 C502 1.227 . S
N504 Co501 2.121 . S
N504 C506 1.375 . S
N504 C507 1.313 . S
C505 C506 1.338 . S
C505 N508 1.377 . S
C505 H525 0.930 . S
C506 N504 1.375 . S
C506 C505 1.338 . S
C506 H510 0.931 . S
C507 N504 1.313 . S
C507 N508 1.344 . S
C507 H511 0.930 . S
N508 C505 1.377 . S
N508 C507 1.344 . S
O509 Co501 2.055 . S
O509 C513 1.253 . S
H510 C506 0.931 . S
H511 C507 0.930 . S
O512 Co501 2.039 . S
O512 C502 1.265 . S
C513 O509 1.253 . S
C513 O514 1.227 . S
O514 C513 1.227 . S
N515 Co501 2.140 . S
N515 C518 1.346 . S
N515 C519 1.345 . S
C516 C517 1.387 . S
C516 C520 1.391 . S
C517 C516 1.387 . S
C517 C518 1.369 . S
C517 H526 0.929 . S
C518 N515 1.346 . S
C518 C517 1.369 . S
C518 H521 0.928 . S
C519 N515 1.345 . S
C519 C520 1.371 . S
C519 H522 0.931 . S
C520 C516 1.391 . S
C520 C519 1.371 . S
C520 H527 0.930 . S
H521 C518 0.928 . S
H522 C519 0.931 . S
H523 C499 0.930 . S
H524 C496 0.930 . S
H525 C505 0.930 . S
H526 C517 0.929 . S
H527 C520 0.930 . S
H528 C546 0.951 . S
H529 C548 0.951 . S
H530 C550 0.950 . S
H531 C551 0.950 . S
H532 C553 0.950 . S
H533 C556 0.950 . S
H534 C557 0.950 . S
H535 C559 0.950 . S
H536 C560 0.950 . S
H537 C561 0.951 . S
H538 C563 0.951 . S
H539 C565 0.950 . S
H540 C566 0.950 . S
H541 C568 0.950 . S
H542 C571 0.950 . S
H543 C572 0.950 . S
H544 C574 0.950 . S
H545 C575 0.950 . S
C546 H528 0.951 . S
C546 C547 1.366 . S
C546 C548 1.388 . S
C547 C546 1.366 . S
C547 C551 1.385 . S
C548 H529 0.951 . S
C548 C546 1.388 . S
C548 C549 1.366 . S
C549 C548 1.366 . S
C549 C550 1.414 . S
C549 C552 1.499 . S
C550 H530 0.950 . S
C550 C549 1.414 . S
C550 C551 1.374 . S
C551 H531 0.950 . S
C551 C547 1.385 . S
C551 C550 1.374 . S
C552 C549 1.499 . S
C552 C553 1.373 . S
C552 C554 1.389 . S
C553 H532 0.950 . S
C553 C552 1.373 . S
C553 C569 1.377 . S
C554 C552 1.389 . S
C554 C555 1.524 . S
C554 C568 1.377 . S
C555 C554 1.524 . S
C555 C556 1.397 . S
C555 C560 1.363 . S
C556 H533 0.950 . S
C556 C555 1.397 . S
C556 C557 1.334 . S
C557 H534 0.950 . S
C557 C556 1.334 . S
C557 C558 1.287 . S
C558 C557 1.287 . S
C558 C559 1.524 . S
C558 H577 0.913 . S
C559 H535 0.950 . S
C559 C558 1.524 . S
C559 C560 1.415 . S
C560 H536 0.950 . S
C560 C555 1.363 . S
C560 C559 1.415 . S
C561 H537 0.951 . S
C561 C562 1.366 . S
C561 C563 1.388 . S
C562 C561 1.366 . S
C562 C566 1.385 . S
C563 H538 0.951 . S
C563 C561 1.388 . S
C563 C564 1.366 . S
C564 C563 1.366 . S
C564 C565 1.414 . S
C564 C567 1.499 . S
C565 H539 0.950 . S
C565 C564 1.414 . S
C565 C566 1.374 . S
C566 H540 0.950 . S
C566 C562 1.385 . S
C566 C565 1.374 . S
C567 C564 1.499 . S
C567 C568 1.373 . S
C567 C569 1.389 . S
C568 H541 0.950 . S
C568 C554 1.377 . S
C568 C567 1.373 . S
C569 C553 1.377 . S
C569 C567 1.389 . S
C569 C570 1.524 . S
C570 C569 1.524 . S
C570 C571 1.397 . S
C570 C575 1.363 . S
C571 H542 0.950 . S
C571 C570 1.397 . S
C571 C572 1.334 . S
C572 H543 0.950 . S
C572 C571 1.334 . S
C572 C573 1.287 . S
C573 C572 1.287 . S
C573 C574 1.524 . S
C573 H576 0.999 . S
C574 H544 0.950 . S
C574 C573 1.524 . S
C574 C575 1.415 . S
C575 H545 0.950 . S
C575 C570 1.363 . S
C575 C574 1.415 . S
H576 C573 0.999 . S
H577 C558 0.913 . S
H578 C596 0.951 . S
H579 C598 0.951 . S
H580 C600 0.950 1_455 S
H581 C601 0.950 . S
H582 C603 0.950 . S
H583 C606 0.950 . S
H584 C607 0.950 . S
H585 C609 0.950 . S
H586 C610 0.950 . S
H587 C611 0.951 . S
H588 C613 0.951 . S
H589 C615 0.950 . S
H590 C616 0.950 . S
H591 C618 0.949 1_655 S
H592 C621 0.950 . S
H593 C622 0.950 . S
H594 C624 0.950 . S
H595 C625 0.950 . S
C596 H578 0.951 . S
C596 C597 1.366 . S
C596 C598 1.388 . S
C597 C596 1.366 . S
C597 C601 1.385 . S
C598 H579 0.951 . S
C598 C596 1.388 . S
C598 C599 1.366 . S
C599 C598 1.366 . S
C599 C600 1.414 . S
C599 C602 1.499 . S
C600 H580 0.950 1_655 S
C600 C599 1.414 . S
C600 C601 1.374 . S
C601 H581 0.950 . S
C601 C597 1.385 . S
C601 C600 1.374 . S
C602 C599 1.499 . S
C602 C603 1.373 1_655 S
C602 C604 1.389 . S
C603 H582 0.950 . S
C603 C602 1.373 1_455 S
C603 C619 1.377 . S
C604 C602 1.389 . S
C604 C605 1.524 1_545 S
C604 C618 1.374 1_645 S
C605 C604 1.524 1_565 S
C605 C606 1.397 . S
C605 C610 1.363 . S
C606 H583 0.950 . S
C606 C605 1.397 . S
C606 C607 1.334 . S
C607 H584 0.950 . S
C607 C606 1.334 . S
C607 C608 1.287 . S
C608 C607 1.287 . S
C608 C609 1.524 . S
C608 H627 0.913 . S
C609 H585 0.950 . S
C609 C608 1.524 . S
C609 C610 1.415 . S
C610 H586 0.950 . S
C610 C605 1.363 . S
C610 C609 1.415 . S
C611 H587 0.951 . S
C611 C612 1.366 . S
C611 C613 1.388 . S
C612 C611 1.366 . S
C612 C616 1.385 . S
C613 H588 0.951 . S
C613 C611 1.388 . S
C613 C614 1.366 . S
C614 C613 1.366 . S
C614 C615 1.414 . S
C614 C617 1.516 . S
C615 H589 0.950 . S
C615 C614 1.414 . S
C615 C616 1.374 . S
C616 H590 0.950 . S
C616 C612 1.385 . S
C616 C615 1.374 . S
C617 C614 1.516 . S
C617 C618 1.384 . S
C617 C619 1.366 1_565 S
C618 H591 0.949 1_455 S
C618 C604 1.374 1_465 S
C618 C617 1.384 . S
C619 C603 1.377 . S
C619 C617 1.366 1_545 S
C619 C620 1.524 . S
C620 C619 1.524 . S
C620 C621 1.397 . S
C620 C625 1.363 . S
C621 H592 0.950 . S
C621 C620 1.397 . S
C621 C622 1.334 . S
C622 H593 0.950 . S
C622 C621 1.334 . S
C622 C623 1.287 . S
C623 C622 1.287 . S
C623 C624 1.524 . S
C623 H626 0.999 . S
C624 H594 0.950 . S
C624 C623 1.524 . S
C624 C625 1.415 . S
C625 H595 0.950 . S
C625 C620 1.363 . S
C625 C624 1.415 . S
H626 C623 0.999 . S
H627 C608 0.913 . S
H628 C646 0.951 . S
H629 C648 0.951 . S
H630 C650 0.950 . S
H631 C651 0.950 . S
H632 C653 0.950 . S
H633 C656 0.950 . S
H634 C657 0.950 . S
H635 C659 0.950 . S
H636 C660 0.950 . S
H637 C661 0.951 . S
H638 C663 0.951 . S
H639 C665 0.950 . S
H640 C666 0.950 . S
H641 C668 0.950 . S
H642 C671 0.950 . S
H643 C672 0.950 . S
H644 C674 0.950 . S
H645 C675 0.950 . S
C646 H628 0.951 . S
C646 C647 1.366 . S
C646 C648 1.388 . S
C647 C646 1.366 . S
C647 C651 1.385 . S
C648 H629 0.951 . S
C648 C646 1.388 . S
C648 C649 1.366 . S
C649 C648 1.366 . S
C649 C650 1.414 . S
C649 C652 1.499 . S
C650 H630 0.950 . S
C650 C649 1.414 . S
C650 C651 1.374 . S
C651 H631 0.950 . S
C651 C647 1.385 . S
C651 C650 1.374 . S
C652 C649 1.499 . S
C652 C653 1.373 . S
C652 C654 1.389 . S
C653 H632 0.950 . S
C653 C652 1.373 . S
C653 C669 1.377 . S
C654 C652 1.389 . S
C654 C655 1.524 . S
C654 C668 1.377 . S
C655 C654 1.524 . S
C655 C656 1.397 . S
C655 C660 1.363 . S
C656 H633 0.950 . S
C656 C655 1.397 . S
C656 C657 1.334 . S
C657 H634 0.950 . S
C657 C656 1.334 . S
C657 C658 1.287 . S
C658 C657 1.287 . S
C658 C659 1.524 . S
C658 H677 0.913 . S
C659 H635 0.950 . S
C659 C658 1.524 . S
C659 C660 1.415 . S
C660 H636 0.950 . S
C660 C655 1.363 . S
C660 C659 1.415 . S
C661 H637 0.951 . S
C661 C662 1.366 . S
C661 C663 1.388 . S
C662 C661 1.366 . S
C662 C666 1.385 . S
C663 H638 0.951 . S
C663 C661 1.388 . S
C663 C664 1.366 . S
C664 C663 1.366 . S
C664 C665 1.414 . S
C664 C667 1.499 . S
C665 H639 0.950 . S
C665 C664 1.414 . S
C665 C666 1.374 . S
C666 H640 0.950 . S
C666 C662 1.385 . S
C666 C665 1.374 . S
C667 C664 1.499 . S
C667 C668 1.373 . S
C667 C669 1.389 . S
C668 H641 0.950 . S
C668 C654 1.377 . S
C668 C667 1.373 . S
C669 C653 1.377 . S
C669 C667 1.389 . S
C669 C670 1.524 . S
C670 C669 1.524 . S
C670 C671 1.397 . S
C670 C675 1.363 . S
C671 H642 0.950 . S
C671 C670 1.397 . S
C671 C672 1.334 . S
C672 H643 0.950 . S
C672 C671 1.334 . S
C672 C673 1.287 . S
C673 C672 1.287 . S
C673 C674 1.524 . S
C673 H676 0.999 . S
C674 H644 0.950 . S
C674 C673 1.524 . S
C674 C675 1.415 . S
C675 H645 0.950 . S
C675 C670 1.363 . S
C675 C674 1.415 . S
H676 C673 0.999 . S
H677 C658 0.913 . S
H678 C696 0.951 . S
H679 C698 0.951 . S
H680 C700 0.950 . S
H681 C701 0.950 . S
H682 C703 0.950 . S
H683 C706 0.950 . S
H684 C707 0.950 . S
H685 C709 0.950 . S
H686 C710 0.950 1_565 S
H687 C711 0.951 . S
H688 C713 0.951 . S
H689 C715 0.950 . S
H690 C716 0.950 . S
H691 C718 0.950 . S
H692 C721 0.950 1_554 S
H693 C722 0.950 . S
H694 C724 0.950 . S
H695 C725 0.950 . S
C696 H678 0.951 . S
C696 C697 1.366 . S
C696 C698 1.388 . S
C697 C696 1.366 . S
C697 C701 1.385 . S
C698 H679 0.951 . S
C698 C696 1.388 . S
C698 C699 1.366 . S
C699 C698 1.366 . S
C699 C700 1.414 . S
C699 C702 1.499 . S
C700 H680 0.950 . S
C700 C699 1.414 . S
C700 C701 1.374 . S
C701 H681 0.950 . S
C701 C697 1.385 . S
C701 C700 1.374 . S
C702 C699 1.499 . S
C702 C703 1.373 1_545 S
C702 C704 1.389 1_556 S
C703 H682 0.950 . S
C703 C702 1.373 1_565 S
C703 C719 1.377 . S
C704 C702 1.389 1_554 S
C704 C705 1.524 . S
C704 C718 1.377 1_545 S
C705 C704 1.524 . S
C705 C706 1.397 . S
C705 C710 1.363 . S
C706 H683 0.950 . S
C706 C705 1.397 . S
C706 C707 1.334 . S
C707 H684 0.950 . S
C707 C706 1.334 . S
C707 C708 1.287 . S
C708 C707 1.287 . S
C708 C709 1.524 . S
C708 H727 0.913 . S
C709 H685 0.950 . S
C709 C708 1.524 . S
C709 C710 1.415 . S
C710 H686 0.950 1_545 S
C710 C705 1.363 . S
C710 C709 1.415 . S
C711 H687 0.951 . S
C711 C712 1.366 . S
C711 C713 1.388 . S
C712 C711 1.366 . S
C712 C716 1.385 . S
C713 H688 0.951 . S
C713 C711 1.388 . S
C713 C714 1.366 . S
C714 C713 1.366 . S
C714 C715 1.414 . S
C714 C717 1.499 . S
C715 H689 0.950 . S
C715 C714 1.414 . S
C715 C716 1.374 . S
C716 H690 0.950 . S
C716 C712 1.385 . S
C716 C715 1.374 . S
C717 C714 1.499 . S
C717 C718 1.373 . S
C717 C719 1.389 1_554 S
C718 H691 0.950 . S
C718 C704 1.377 1_565 S
C718 C717 1.373 . S
C719 C703 1.377 . S
C719 C717 1.389 1_556 S
C719 C720 1.524 . S
C720 C719 1.524 . S
C720 C721 1.397 . S
C720 C725 1.363 . S
C721 H692 0.950 1_556 S
C721 C720 1.397 . S
C721 C722 1.334 . S
C722 H693 0.950 . S
C722 C721 1.334 . S
C722 C723 1.287 . S
C723 C722 1.287 . S
C723 C724 1.524 . S
C723 H726 0.999 . S
C724 H694 0.950 . S
C724 C723 1.524 . S
C724 C725 1.415 . S
C725 H695 0.950 . S
C725 C720 1.363 . S
C725 C724 1.415 . S
H726 C723 0.999 . S
H727 C708 0.913 . S
H728 C746 0.951 . S
H729 C748 0.951 . S
H730 C750 0.950 . S
H731 C751 0.950 . S
H732 C753 0.950 . S
H733 C756 0.950 . S
H734 C757 0.950 . S
H735 C759 0.950 . S
H736 C760 0.950 . S
H737 C761 0.951 . S
H738 C763 0.951 . S
H739 C765 0.950 . S
H740 C766 0.950 . S
H741 C768 0.950 . S
H742 C771 0.950 . S
H743 C772 0.950 . S
H744 C774 0.950 . S
H745 C775 0.950 . S
C746 H728 0.951 . S
C746 C747 1.366 . S
C746 C748 1.388 . S
C747 C746 1.366 . S
C747 C751 1.385 . S
C748 H729 0.951 . S
C748 C746 1.388 . S
C748 C749 1.366 . S
C749 C748 1.366 . S
C749 C750 1.414 . S
C749 C752 1.499 . S
C750 H730 0.950 . S
C750 C749 1.414 . S
C750 C751 1.374 . S
C751 H731 0.950 . S
C751 C747 1.385 . S
C751 C750 1.374 . S
C752 C749 1.499 . S
C752 C753 1.373 . S
C752 C754 1.389 . S
C753 H732 0.950 . S
C753 C752 1.373 . S
C753 C769 1.377 . S
C754 C752 1.389 . S
C754 C755 1.524 . S
C754 C768 1.377 . S
C755 C754 1.524 . S
C755 C756 1.397 . S
C755 C760 1.363 . S
C756 H733 0.950 . S
C756 C755 1.397 . S
C756 C757 1.334 . S
C757 H734 0.950 . S
C757 C756 1.334 . S
C757 C758 1.287 . S
C758 C757 1.287 . S
C758 C759 1.524 . S
C758 H777 0.913 . S
C759 H735 0.950 . S
C759 C758 1.524 . S
C759 C760 1.415 . S
C760 H736 0.950 . S
C760 C755 1.363 . S
C760 C759 1.415 . S
C761 H737 0.951 . S
C761 C762 1.366 . S
C761 C763 1.388 . S
C762 C761 1.366 . S
C762 C766 1.385 . S
C763 H738 0.951 . S
C763 C761 1.388 . S
C763 C764 1.366 . S
C764 C763 1.366 . S
C764 C765 1.414 . S
C764 C767 1.499 . S
C765 H739 0.950 . S
C765 C764 1.414 . S
C765 C766 1.374 . S
C766 H740 0.950 . S
C766 C762 1.385 . S
C766 C765 1.374 . S
C767 C764 1.499 . S
C767 C768 1.373 . S
C767 C769 1.389 . S
C768 H741 0.950 . S
C768 C754 1.377 . S
C768 C767 1.373 . S
C769 C753 1.377 . S
C769 C767 1.389 . S
C769 C770 1.524 . S
C770 C769 1.524 . S
C770 C771 1.397 . S
C770 C775 1.363 . S
C771 H742 0.950 . S
C771 C770 1.397 . S
C771 C772 1.334 . S
C772 H743 0.950 . S
C772 C771 1.334 . S
C772 C773 1.287 . S
C773 C772 1.287 . S
C773 C774 1.524 . S
C773 H776 0.999 . S
C774 H744 0.950 . S
C774 C773 1.524 . S
C774 C775 1.415 . S
C775 H745 0.950 . S
C775 C770 1.363 . S
C775 C774 1.415 . S
H776 C773 0.999 . S
H777 C758 0.913 . S
H778 C796 0.951 . S
H779 C798 0.951 . S
H780 C800 0.950 . S
H781 C801 0.950 . S
H782 C803 0.950 . S
H783 C806 0.950 . S
H784 C807 0.950 . S
H785 C809 0.950 . S
H786 C810 0.958 . S
H787 C811 0.951 . S
H788 C813 0.951 . S
H789 C815 0.950 . S
H790 C816 0.950 . S
H791 C818 0.950 1_545 S
H792 C821 0.950 . S
H793 C822 0.950 . S
H794 C824 0.950 . S
H795 C825 0.946 . S
C796 H778 0.951 . S
C796 C797 1.366 . S
C796 C798 1.388 . S
C797 C796 1.366 . S
C797 C801 1.385 . S
C798 H779 0.951 . S
C798 C796 1.388 . S
C798 C799 1.366 . S
C799 C798 1.366 . S
C799 C800 1.414 . S
C799 C802 1.499 . S
C800 H780 0.950 . S
C800 C799 1.414 . S
C800 C801 1.374 . S
C801 H781 0.950 . S
C801 C797 1.385 . S
C801 C800 1.374 . S
C802 C799 1.499 . S
C802 C803 1.373 . S
C802 C804 1.389 . S
C803 H782 0.950 . S
C803 C802 1.373 . S
C803 C819 1.377 1_565 S
C804 C802 1.389 . S
C804 C805 1.524 . S
C804 C818 1.377 . S
C805 C804 1.524 . S
C805 C806 1.397 . S
C805 C810 1.363 . S
C806 H783 0.950 . S
C806 C805 1.397 . S
C806 C807 1.334 . S
C807 H784 0.950 . S
C807 C806 1.334 . S
C807 C808 1.287 . S
C808 C807 1.287 . S
C808 C809 1.524 . S
C808 H827 0.913 . S
C809 H785 0.950 . S
C809 C808 1.524 . S
C809 C810 1.415 . S
C810 H786 0.958 . S
C810 C805 1.363 . S
C810 C809 1.415 . S
C811 H787 0.951 . S
C811 C812 1.366 . S
C811 C813 1.388 . S
C812 C811 1.366 . S
C812 C816 1.385 . S
C813 H788 0.951 . S
C813 C811 1.388 . S
C813 C814 1.366 . S
C814 C813 1.366 . S
C814 C815 1.414 . S
C814 C817 1.499 . S
C815 H789 0.950 . S
C815 C814 1.414 . S
C815 C816 1.374 . S
C816 H790 0.950 . S
C816 C812 1.385 . S
C816 C815 1.374 . S
C817 C814 1.499 . S
C817 C818 1.373 1_545 S
C817 C819 1.389 . S
C818 H791 0.950 1_565 S
C818 C804 1.377 . S
C818 C817 1.373 1_565 S
C819 C803 1.377 1_545 S
C819 C817 1.389 . S
C819 C820 1.524 . S
C820 C819 1.524 . S
C820 C821 1.397 . S
C820 C825 1.365 1_545 S
C821 H792 0.950 . S
C821 C820 1.397 . S
C821 C822 1.334 . S
C822 H793 0.950 . S
C822 C821 1.334 . S
C822 C823 1.287 . S
C823 C822 1.287 . S
C823 C824 1.524 . S
C823 H826 0.999 . S
C824 H794 0.950 . S
C824 C823 1.524 . S
C824 C825 1.416 1_545 S
C825 H795 0.946 . S
C825 C820 1.365 1_565 S
C825 C824 1.416 1_565 S
H826 C823 0.999 . S
H827 C808 0.913 . S
H828 C846 0.951 . S
H829 C848 0.951 . S
H830 C850 0.950 . S
H831 C851 0.950 . S
H832 C853 0.950 . S
H833 C856 0.950 . S
H834 C857 0.950 . S
H835 C859 0.950 . S
H836 C860 0.950 . S
H837 C861 0.951 . S
H838 C863 0.951 . S
H839 C865 0.950 . S
H840 C866 0.950 . S
H841 C868 0.950 . S
H842 C871 0.950 . S
H843 C872 0.950 . S
H844 C874 0.950 . S
H845 C875 0.950 . S
C846 H828 0.951 . S
C846 C847 1.366 . S
C846 C848 1.388 . S
C847 C846 1.366 . S
C847 C851 1.385 . S
C848 H829 0.951 . S
C848 C846 1.388 . S
C848 C849 1.366 . S
C849 C848 1.366 . S
C849 C850 1.414 . S
C849 C852 1.499 . S
C850 H830 0.950 . S
C850 C849 1.414 . S
C850 C851 1.374 . S
C851 H831 0.950 . S
C851 C847 1.385 . S
C851 C850 1.374 . S
C852 C849 1.499 . S
C852 C853 1.373 . S
C852 C854 1.389 . S
C853 H832 0.950 . S
C853 C852 1.373 . S
C853 C869 1.377 . S
C854 C852 1.389 . S
C854 C855 1.524 . S
C854 C868 1.377 . S
C855 C854 1.524 . S
C855 C856 1.397 . S
C855 C860 1.363 . S
C856 H833 0.950 . S
C856 C855 1.397 . S
C856 C857 1.334 . S
C857 H834 0.950 . S
C857 C856 1.334 . S
C857 C858 1.287 . S
C858 C857 1.287 . S
C858 C859 1.524 . S
C858 H877 0.913 . S
C859 H835 0.950 . S
C859 C858 1.524 . S
C859 C860 1.415 . S
C860 H836 0.950 . S
C860 C855 1.363 . S
C860 C859 1.415 . S
C861 H837 0.951 . S
C861 C862 1.366 . S
C861 C863 1.388 . S
C862 C861 1.366 . S
C862 C866 1.385 . S
C863 H838 0.951 . S
C863 C861 1.388 . S
C863 C864 1.366 . S
C864 C863 1.366 . S
C864 C865 1.414 . S
C864 C867 1.499 . S
C865 H839 0.950 . S
C865 C864 1.414 . S
C865 C866 1.374 . S
C866 H840 0.950 . S
C866 C862 1.385 . S
C866 C865 1.374 . S
C867 C864 1.499 . S
C867 C868 1.373 . S
C867 C869 1.389 . S
C868 H841 0.950 . S
C868 C854 1.377 . S
C868 C867 1.373 . S
C869 C853 1.377 . S
C869 C867 1.389 . S
C869 C870 1.524 . S
C870 C869 1.524 . S
C870 C871 1.397 . S
C870 C875 1.363 . S
C871 H842 0.950 . S
C871 C870 1.397 . S
C871 C872 1.334 . S
C872 H843 0.950 . S
C872 C871 1.334 . S
C872 C873 1.287 . S
C873 C872 1.287 . S
C873 C874 1.524 . S
C873 H876 0.999 . S
C874 H844 0.950 . S
C874 C873 1.524 . S
C874 C875 1.415 . S
C875 H845 0.950 . S
C875 C870 1.363 . S
C875 C874 1.415 . S
H876 C873 0.999 . S
H877 C858 0.913 . S
H878 C896 0.951 . S
H879 C898 0.951 1_556 S
H880 C900 0.950 . S
H881 C901 0.950 . S
H882 C903 0.950 . S
H883 C906 0.950 . S
H884 C907 0.950 . S
H885 C909 0.950 . S
H886 C910 0.950 . S
H887 C911 0.951 . S
H888 C913 0.951 . S
H889 C915 0.950 1_545 S
H890 C916 0.950 . S
H891 C918 0.950 . S
H892 C921 0.950 . S
H893 C922 0.950 . S
H894 C924 0.950 . S
H895 C925 0.950 . S
C896 H878 0.951 . S
C896 C897 1.366 . S
C896 C898 1.388 . S
C897 C896 1.366 . S
C897 C901 1.385 . S
C898 H879 0.951 1_554 S
C898 C896 1.388 . S
C898 C899 1.366 . S
C899 C898 1.366 . S
C899 C900 1.414 . S
C899 C902 1.499 . S
C900 H880 0.950 . S
C900 C899 1.414 . S
C900 C901 1.374 . S
C901 H881 0.950 . S
C901 C897 1.385 . S
C901 C900 1.374 . S
C902 C899 1.499 . S
C902 C903 1.373 . S
C902 C904 1.389 1_454 S
C903 H882 0.950 . S
C903 C902 1.373 . S
C903 C919 1.377 1_444 S
C904 C902 1.389 1_656 S
C904 C905 1.524 . S
C904 C918 1.377 . S
C905 C904 1.524 . S
C905 C906 1.397 1_556 S
C905 C910 1.363 . S
C906 H883 0.950 . S
C906 C905 1.397 1_554 S
C906 C907 1.334 . S
C907 H884 0.950 . S
C907 C906 1.334 . S
C907 C908 1.287 . S
C908 C907 1.287 . S
C908 C909 1.524 1_554 S
C908 H927 0.913 . S
C909 H885 0.950 . S
C909 C908 1.524 1_556 S
C909 C910 1.415 . S
C910 H886 0.950 . S
C910 C905 1.363 . S
C910 C909 1.415 . S
C911 H887 0.951 . S
C911 C912 1.366 . S
C911 C913 1.388 . S
C912 C911 1.366 . S
C912 C916 1.385 . S
C913 H888 0.951 . S
C913 C911 1.388 . S
C913 C914 1.366 . S
C914 C913 1.366 . S
C914 C915 1.414 . S
C914 C917 1.499 1_565 S
C915 H889 0.950 1_565 S
C915 C914 1.414 . S
C915 C916 1.374 . S
C916 H890 0.950 . S
C916 C912 1.385 . S
C916 C915 1.374 . S
C917 C914 1.499 1_545 S
C917 C918 1.373 . S
C917 C919 1.389 1_545 S
C918 H891 0.950 . S
C918 C904 1.377 . S
C918 C917 1.373 . S
C919 C903 1.377 1_666 S
C919 C917 1.389 1_565 S
C919 C920 1.524 1_655 S
C920 C919 1.524 1_455 S
C920 C921 1.397 . S
C920 C925 1.363 1_556 S
C921 H892 0.950 . S
C921 C920 1.397 . S
C921 C922 1.334 . S
C922 H893 0.950 . S
C922 C921 1.334 . S
C922 C923 1.287 . S
C923 C922 1.287 . S
C923 C924 1.524 1_556 S
C923 H926 0.999 . S
C924 H894 0.950 . S
C924 C923 1.524 1_554 S
C924 C925 1.415 . S
C925 H895 0.950 . S
C925 C920 1.363 1_554 S
C925 C924 1.415 . S
H926 C923 0.999 . S
H927 C908 0.913 . S
H928 C946 0.951 . S
H929 C948 0.951 . S
H930 C950 0.950 . S
H931 C951 0.950 . S
H932 C953 0.950 . S
H933 C956 0.950 . S
H934 C957 0.950 . S
H935 C959 0.950 . S
H936 C960 0.950 . S
H937 C961 0.951 . S
H938 C963 0.951 . S
H939 C965 0.950 . S
H940 C966 0.950 . S
H941 C968 0.950 . S
H942 C971 0.950 . S
H943 C972 0.950 . S
H944 C974 0.950 . S
H945 C975 0.950 . S
C946 H928 0.951 . S
C946 C947 1.366 . S
C946 C948 1.388 . S
C947 C946 1.366 . S
C947 C951 1.385 . S
C948 H929 0.951 . S
C948 C946 1.388 . S
C948 C949 1.366 . S
C949 C948 1.366 . S
C949 C950 1.414 . S
C949 C952 1.499 . S
C950 H930 0.950 . S
C950 C949 1.414 . S
C950 C951 1.374 . S
C951 H931 0.950 . S
C951 C947 1.385 . S
C951 C950 1.374 . S
C952 C949 1.499 . S
C952 C953 1.373 . S
C952 C954 1.389 . S
C953 H932 0.950 . S
C953 C952 1.373 . S
C953 C969 1.377 . S
C954 C952 1.389 . S
C954 C955 1.524 . S
C954 C968 1.377 . S
C955 C954 1.524 . S
C955 C956 1.397 . S
C955 C960 1.363 . S
C956 H933 0.950 . S
C956 C955 1.397 . S
C956 C957 1.334 . S
C957 H934 0.950 . S
C957 C956 1.334 . S
C957 C958 1.287 . S
C958 C957 1.287 . S
C958 C959 1.524 . S
C958 H977 0.913 . S
C959 H935 0.950 . S
C959 C958 1.524 . S
C959 C960 1.415 . S
C960 H936 0.950 . S
C960 C955 1.363 . S
C960 C959 1.415 . S
C961 H937 0.951 . S
C961 C962 1.366 . S
C961 C963 1.388 . S
C962 C961 1.366 . S
C962 C966 1.385 . S
C963 H938 0.951 . S
C963 C961 1.388 . S
C963 C964 1.366 . S
C964 C963 1.366 . S
C964 C965 1.414 . S
C964 C967 1.499 . S
C965 H939 0.950 . S
C965 C964 1.414 . S
C965 C966 1.374 . S
C966 H940 0.950 . S
C966 C962 1.385 . S
C966 C965 1.374 . S
C967 C964 1.499 . S
C967 C968 1.373 . S
C967 C969 1.389 . S
C968 H941 0.950 . S
C968 C954 1.377 . S
C968 C967 1.373 . S
C969 C953 1.377 . S
C969 C967 1.389 . S
C969 C970 1.524 . S
C970 C969 1.524 . S
C970 C971 1.397 . S
C970 C975 1.363 . S
C971 H942 0.950 . S
C971 C970 1.397 . S
C971 C972 1.334 . S
C972 H943 0.950 . S
C972 C971 1.334 . S
C972 C973 1.287 . S
C973 C972 1.287 . S
C973 C974 1.524 . S
C973 H976 0.999 . S
C974 H944 0.950 . S
C974 C973 1.524 . S
C974 C975 1.415 . S
C975 H945 0.950 . S
C975 C970 1.363 . S
C975 C974 1.415 . S
H976 C973 0.999 . S
H977 C958 0.913 . S
H978 C996 0.951 . S
H979 C998 0.951 . S
H980 C1000 0.950 . S
H981 C1001 0.950 . S
H982 C1003 0.950 . S
H983 C1006 0.950 . S
H984 C1007 0.950 . S
H985 C1009 0.950 . S
H986 C1010 0.950 . S
H987 C1011 0.951 . S
H988 C1013 0.951 . S
H989 C1015 0.950 . S
H990 C1016 0.950 . S
H991 C1018 0.950 . S
H992 C1021 0.950 . S
H993 C1022 0.950 . S
H994 C1024 0.950 . S
H995 C1025 0.950 . S
C996 H978 0.951 . S
C996 C997 1.366 . S
C996 C998 1.388 . S
C997 C996 1.366 . S
C997 C1001 1.385 . S
C998 H979 0.951 . S
C998 C996 1.388 . S
C998 C999 1.366 . S
C999 C998 1.366 . S
C999 C1000 1.414 . S
C999 C1002 1.499 . S
C1000 H980 0.950 . S
C1000 C999 1.414 . S
C1000 C1001 1.374 . S
C1001 H981 0.950 . S
C1001 C997 1.385 . S
C1001 C1000 1.374 . S
C1002 C999 1.499 . S
C1002 C1003 1.373 1_556 S
C1002 C1004 1.389 . S
C1003 H982 0.950 . S
C1003 C1002 1.373 1_554 S
C1003 C1019 1.377 . S
C1004 C1002 1.389 . S
C1004 C1005 1.524 . S
C1004 C1018 1.377 1_556 S
C1005 C1004 1.524 . S
C1005 C1006 1.397 . S
C1005 C1010 1.363 . S
C1006 H983 0.950 . S
C1006 C1005 1.397 . S
C1006 C1007 1.334 . S
C1007 H984 0.950 . S
C1007 C1006 1.334 . S
C1007 C1008 1.287 . S
C1008 C1007 1.287 . S
C1008 C1009 1.524 . S
C1008 H1027 0.913 . S
C1009 H985 0.950 . S
C1009 C1008 1.524 . S
C1009 C1010 1.415 . S
C1010 H986 0.950 . S
C1010 C1005 1.363 . S
C1010 C1009 1.415 . S
C1011 H987 0.951 . S
C1011 C1012 1.366 . S
C1011 C1013 1.388 . S
C1012 C1011 1.366 . S
C1012 C1016 1.385 . S
C1013 H988 0.951 . S
C1013 C1011 1.388 . S
C1013 C1014 1.366 . S
C1014 C1013 1.366 . S
C1014 C1015 1.414 1_655 S
C1014 C1017 1.499 1_655 S
C1015 H989 0.950 . S
C1015 C1014 1.414 1_455 S
C1015 C1016 1.374 1_455 S
C1016 H990 0.950 . S
C1016 C1012 1.385 . S
C1016 C1015 1.374 1_655 S
C1017 C1014 1.499 1_455 S
C1017 C1018 1.373 . S
C1017 C1019 1.389 . S
C1018 H991 0.950 . S
C1018 C1004 1.377 1_554 S
C1018 C1017 1.373 . S
C1019 C1003 1.377 . S
C1019 C1017 1.389 . S
C1019 C1020 1.524 1_455 S
C1020 C1019 1.524 1_655 S
C1020 C1021 1.397 1_655 S
C1020 C1025 1.363 . S
C1021 H992 0.950 . S
C1021 C1020 1.397 1_455 S
C1021 C1022 1.334 1_455 S
C1022 H993 0.950 . S
C1022 C1021 1.334 1_655 S
C1022 C1023 1.287 . S
C1023 C1022 1.287 . S
C1023 C1024 1.524 . S
C1023 H1026 0.999 . S
C1024 H994 0.950 . S
C1024 C1023 1.524 . S
C1024 C1025 1.415 . S
C1025 H995 0.950 . S
C1025 C1020 1.363 . S
C1025 C1024 1.415 . S
H1026 C1023 0.999 . S
H1027 C1008 0.913 . S
H1028 C1046 0.951 . S
H1029 C1048 0.951 . S
H1030 C1050 0.950 . S
H1031 C1051 0.950 . S
H1032 C1053 0.950 . S
H1033 C1056 0.950 . S
H1034 C1057 0.950 . S
H1035 C1059 0.950 . S
H1036 C1060 0.950 . S
H1037 C1061 0.951 . S
H1038 C1063 0.951 . S
H1039 C1065 0.950 . S
H1040 C1066 0.950 . S
H1041 C1068 0.950 . S
H1042 C1071 0.950 . S
H1043 C1072 0.950 . S
H1044 C1074 0.950 . S
H1045 C1075 0.950 . S
C1046 H1028 0.951 . S
C1046 C1047 1.366 . S
C1046 C1048 1.388 . S
C1047 C1046 1.366 . S
C1047 C1051 1.385 . S
C1048 H1029 0.951 . S
C1048 C1046 1.388 . S
C1048 C1049 1.366 . S
C1049 C1048 1.366 . S
C1049 C1050 1.414 . S
C1049 C1052 1.499 . S
C1050 H1030 0.950 . S
C1050 C1049 1.414 . S
C1050 C1051 1.374 . S
C1051 H1031 0.950 . S
C1051 C1047 1.385 . S
C1051 C1050 1.374 . S
C1052 C1049 1.499 . S
C1052 C1053 1.373 . S
C1052 C1054 1.389 . S
C1053 H1032 0.950 . S
C1053 C1052 1.373 . S
C1053 C1069 1.377 . S
C1054 C1052 1.389 . S
C1054 C1055 1.524 . S
C1054 C1068 1.377 . S
C1055 C1054 1.524 . S
C1055 C1056 1.397 . S
C1055 C1060 1.363 . S
C1056 H1033 0.950 . S
C1056 C1055 1.397 . S
C1056 C1057 1.334 . S
C1057 H1034 0.950 . S
C1057 C1056 1.334 . S
C1057 C1058 1.287 . S
C1058 C1057 1.287 . S
C1058 C1059 1.524 . S
C1058 H1077 0.913 . S
C1059 H1035 0.950 . S
C1059 C1058 1.524 . S
C1059 C1060 1.415 . S
C1060 H1036 0.950 . S
C1060 C1055 1.363 . S
C1060 C1059 1.415 . S
C1061 H1037 0.951 . S
C1061 C1062 1.366 . S
C1061 C1063 1.388 . S
C1062 C1061 1.366 . S
C1062 C1066 1.385 . S
C1063 H1038 0.951 . S
C1063 C1061 1.388 . S
C1063 C1064 1.366 . S
C1064 C1063 1.366 . S
C1064 C1065 1.414 . S
C1064 C1067 1.499 . S
C1065 H1039 0.950 . S
C1065 C1064 1.414 . S
C1065 C1066 1.374 . S
C1066 H1040 0.950 . S
C1066 C1062 1.385 . S
C1066 C1065 1.374 . S
C1067 C1064 1.499 . S
C1067 C1068 1.373 . S
C1067 C1069 1.389 . S
C1068 H1041 0.950 . S
C1068 C1054 1.377 . S
C1068 C1067 1.373 . S
C1069 C1053 1.377 . S
C1069 C1067 1.389 . S
C1069 C1070 1.524 . S
C1070 C1069 1.524 . S
C1070 C1071 1.397 . S
C1070 C1075 1.363 . S
C1071 H1042 0.950 . S
C1071 C1070 1.397 . S
C1071 C1072 1.334 . S
C1072 H1043 0.950 . S
C1072 C1071 1.334 . S
C1072 C1073 1.287 . S
C1073 C1072 1.287 . S
C1073 C1074 1.524 . S
C1073 H1076 0.999 . S
C1074 H1044 0.950 . S
C1074 C1073 1.524 . S
C1074 C1075 1.415 . S
C1075 H1045 0.950 . S
C1075 C1070 1.363 . S
C1075 C1074 1.415 . S
H1076 C1073 0.999 . S
H1077 C1058 0.913 . S
H1078 C1096 0.951 . S
H1079 C1098 0.951 . S
H1080 C1100 0.950 . S
H1081 C1101 0.950 . S
H1082 C1103 0.950 . S
H1083 C1106 0.950 . S
H1084 C1107 0.950 . S
H1085 C1109 0.950 . S
H1086 C1110 0.950 . S
H1087 C1111 0.951 . S
H1088 C1113 0.951 1_655 S
H1089 C1115 0.950 . S
H1090 C1116 0.950 . S
H1091 C1118 0.950 . S
H1092 C1121 0.950 1_455 S
H1093 C1122 0.950 . S
H1094 C1124 0.950 . S
H1095 C1125 0.950 . S
C1096 H1078 0.951 . S
C1096 C1097 1.366 . S
C1096 C1098 1.388 . S
C1097 C1096 1.366 . S
C1097 C1101 1.385 . S
C1098 H1079 0.951 . S
C1098 C1096 1.388 . S
C1098 C1099 1.366 . S
C1099 C1098 1.366 . S
C1099 C1100 1.414 . S
C1099 C1102 1.499 . S
C1100 H1080 0.950 . S
C1100 C1099 1.414 . S
C1100 C1101 1.374 . S
C1101 H1081 0.950 . S
C1101 C1097 1.385 . S
C1101 C1100 1.374 . S
C1102 C1099 1.499 . S
C1102 C1103 1.373 . S
C1102 C1104 1.389 . S
C1103 H1082 0.950 . S
C1103 C1102 1.373 . S
C1103 C1119 1.377 . S
C1104 C1102 1.389 . S
C1104 C1105 1.512 1_655 S
C1104 C1118 1.377 1_655 S
C1105 C1104 1.512 1_455 S
C1105 C1106 1.373 1_455 S
C1105 C1110 1.401 . S
C1106 H1083 0.950 . S
C1106 C1105 1.373 1_655 S
C1106 C1107 1.334 . S
C1107 H1084 0.950 . S
C1107 C1106 1.334 . S
C1107 C1108 1.287 1_655 S
C1108 C1107 1.287 1_455 S
C1108 C1109 1.524 . S
C1108 H1127 0.913 . S
C1109 H1085 0.950 . S
C1109 C1108 1.524 . S
C1109 C1110 1.415 . S
C1110 H1086 0.950 . S
C1110 C1105 1.401 . S
C1110 C1109 1.415 . S
C1111 H1087 0.951 . S
C1111 C1112 1.366 . S
C1111 C1113 1.388 . S
C1112 C1111 1.366 . S
C1112 C1116 1.385 . S
C1113 H1088 0.951 1_455 S
C1113 C1111 1.388 . S
C1113 C1114 1.366 . S
C1114 C1113 1.366 . S
C1114 C1115 1.414 . S
C1114 C1117 1.499 . S
C1115 H1089 0.950 . S
C1115 C1114 1.414 . S
C1115 C1116 1.374 . S
C1116 H1090 0.950 . S
C1116 C1112 1.385 . S
C1116 C1115 1.374 . S
C1117 C1114 1.499 . S
C1117 C1118 1.373 . S
C1117 C1119 1.389 1_455 S
C1118 H1091 0.950 . S
C1118 C1104 1.377 1_455 S
C1118 C1117 1.373 . S
C1119 C1103 1.377 . S
C1119 C1117 1.389 1_655 S
C1119 C1120 1.524 . S
C1120 C1119 1.524 . S
C1120 C1121 1.397 . S
C1120 C1125 1.363 . S
C1121 H1092 0.950 1_655 S
C1121 C1120 1.397 . S
C1121 C1122 1.334 . S
C1122 H1093 0.950 . S
C1122 C1121 1.334 . S
C1122 C1123 1.287 . S
C1123 C1122 1.287 . S
C1123 C1124 1.524 . S
C1123 H1126 0.999 . S
C1124 H1094 0.950 . S
C1124 C1123 1.524 . S
C1124 C1125 1.415 . S
C1125 H1095 0.950 . S
C1125 C1120 1.363 . S
C1125 C1124 1.415 . S
H1126 C1123 0.999 . S
H1127 C1108 0.913 . S
H1128 C1146 0.951 . S
H1129 C1148 0.951 . S
H1130 C1150 0.950 . S
H1131 C1151 0.950 . S
H1132 C1153 0.950 . S
H1133 C1156 0.950 . S
H1134 C1157 0.950 . S
H1135 C1159 0.950 . S
H1136 C1160 0.950 . S
H1137 C1161 0.951 . S
H1138 C1163 0.951 . S
H1139 C1165 0.950 . S
H1140 C1166 0.950 . S
H1141 C1168 0.950 . S
H1142 C1171 0.950 . S
H1143 C1172 0.950 . S
H1144 C1174 0.950 . S
H1145 C1175 0.950 . S
C1146 H1128 0.951 . S
C1146 C1147 1.366 . S
C1146 C1148 1.388 . S
C1147 C1146 1.366 . S
C1147 C1151 1.385 . S
C1148 H1129 0.951 . S
C1148 C1146 1.388 . S
C1148 C1149 1.366 . S
C1149 C1148 1.366 . S
C1149 C1150 1.414 . S
C1149 C1152 1.499 . S
C1150 H1130 0.950 . S
C1150 C1149 1.414 . S
C1150 C1151 1.374 . S
C1151 H1131 0.950 . S
C1151 C1147 1.385 . S
C1151 C1150 1.374 . S
C1152 C1149 1.499 . S
C1152 C1153 1.373 . S
C1152 C1154 1.389 1_556 S
C1153 H1132 0.950 . S
C1153 C1152 1.373 . S
C1153 C1169 1.377 . S
C1154 C1152 1.389 1_554 S
C1154 C1155 1.524 . S
C1154 C1168 1.377 . S
C1155 C1154 1.524 . S
C1155 C1156 1.397 . S
C1155 C1160 1.363 . S
C1156 H1133 0.950 . S
C1156 C1155 1.397 . S
C1156 C1157 1.334 . S
C1157 H1134 0.950 . S
C1157 C1156 1.334 . S
C1157 C1158 1.287 . S
C1158 C1157 1.287 . S
C1158 C1159 1.524 . S
C1158 H1177 0.913 . S
C1159 H1135 0.950 . S
C1159 C1158 1.524 . S
C1159 C1160 1.415 . S
C1160 H1136 0.950 . S
C1160 C1155 1.363 . S
C1160 C1159 1.415 . S
C1161 H1137 0.951 . S
C1161 C1162 1.366 . S
C1161 C1163 1.388 . S
C1162 C1161 1.366 . S
C1162 C1166 1.385 . S
C1163 H1138 0.951 . S
C1163 C1161 1.388 . S
C1163 C1164 1.366 . S
C1164 C1163 1.366 . S
C1164 C1165 1.414 . S
C1164 C1167 1.499 . S
C1165 H1139 0.950 . S
C1165 C1164 1.414 . S
C1165 C1166 1.374 . S
C1166 H1140 0.950 . S
C1166 C1162 1.385 . S
C1166 C1165 1.374 . S
C1167 C1164 1.499 . S
C1167 C1168 1.373 . S
C1167 C1169 1.389 1_554 S
C1168 H1141 0.950 . S
C1168 C1154 1.377 . S
C1168 C1167 1.373 . S
C1169 C1153 1.377 . S
C1169 C1167 1.389 1_556 S
C1169 C1170 1.524 . S
C1170 C1169 1.524 . S
C1170 C1171 1.397 . S
C1170 C1175 1.363 . S
C1171 H1142 0.950 . S
C1171 C1170 1.397 . S
C1171 C1172 1.334 . S
C1172 H1143 0.950 . S
C1172 C1171 1.334 . S
C1172 C1173 1.287 . S
C1173 C1172 1.287 . S
C1173 C1174 1.524 . S
C1173 H1176 0.999 . S
C1174 H1144 0.950 . S
C1174 C1173 1.524 . S
C1174 C1175 1.415 . S
C1175 H1145 0.950 . S
C1175 C1170 1.363 . S
C1175 C1174 1.415 . S
H1176 C1173 0.999 . S
H1177 C1158 0.913 . S
H1178 C1196 0.951 . S
H1179 C1198 0.951 . S
H1180 C1200 0.950 . S
H1181 C1201 0.950 . S
H1182 C1203 0.950 . S
H1183 C1206 0.950 . S
H1184 C1207 0.950 . S
H1185 C1209 0.950 . S
H1186 C1210 0.950 . S
H1187 C1211 0.951 . S
H1188 C1213 0.951 . S
H1189 C1215 0.950 . S
H1190 C1216 0.950 . S
H1191 C1218 0.950 . S
H1192 C1221 0.950 . S
H1193 C1222 0.950 . S
H1194 C1224 0.950 . S
H1195 C1225 0.950 . S
C1196 H1178 0.951 . S
C1196 C1197 1.366 . S
C1196 C1198 1.388 . S
C1197 C1196 1.366 . S
C1197 C1201 1.385 . S
C1198 H1179 0.951 . S
C1198 C1196 1.388 . S
C1198 C1199 1.366 . S
C1199 C1198 1.366 . S
C1199 C1200 1.414 . S
C1199 C1202 1.499 . S
C1200 H1180 0.950 . S
C1200 C1199 1.414 . S
C1200 C1201 1.374 . S
C1201 H1181 0.950 . S
C1201 C1197 1.385 . S
C1201 C1200 1.374 . S
C1202 C1199 1.499 . S
C1202 C1203 1.373 . S
C1202 C1204 1.389 . S
C1203 H1182 0.950 . S
C1203 C1202 1.373 . S
C1203 C1219 1.377 . S
C1204 C1202 1.389 . S
C1204 C1205 1.524 . S
C1204 C1218 1.377 . S
C1205 C1204 1.524 . S
C1205 C1206 1.397 . S
C1205 C1210 1.363 . S
C1206 H1183 0.950 . S
C1206 C1205 1.397 . S
C1206 C1207 1.334 . S
C1207 H1184 0.950 . S
C1207 C1206 1.334 . S
C1207 C1208 1.287 . S
C1208 C1207 1.287 . S
C1208 C1209 1.524 . S
C1208 H1227 0.913 . S
C1209 H1185 0.950 . S
C1209 C1208 1.524 . S
C1209 C1210 1.415 . S
C1210 H1186 0.950 . S
C1210 C1205 1.363 . S
C1210 C1209 1.415 . S
C1211 H1187 0.951 . S
C1211 C1212 1.366 . S
C1211 C1213 1.388 . S
C1212 C1211 1.366 . S
C1212 C1216 1.385 . S
C1213 H1188 0.951 . S
C1213 C1211 1.388 . S
C1213 C1214 1.366 . S
C1214 C1213 1.366 . S
C1214 C1215 1.414 . S
C1214 C1217 1.499 . S
C1215 H1189 0.950 . S
C1215 C1214 1.414 . S
C1215 C1216 1.374 . S
C1216 H1190 0.950 . S
C1216 C1212 1.385 . S
C1216 C1215 1.374 . S
C1217 C1214 1.499 . S
C1217 C1218 1.373 . S
C1217 C1219 1.389 . S
C1218 H1191 0.950 . S
C1218 C1204 1.377 . S
C1218 C1217 1.373 . S
C1219 C1203 1.377 . S
C1219 C1217 1.389 . S
C1219 C1220 1.524 . S
C1220 C1219 1.524 . S
C1220 C1221 1.397 . S
C1220 C1225 1.363 . S
C1221 H1192 0.950 . S
C1221 C1220 1.397 . S
C1221 C1222 1.334 . S
C1222 H1193 0.950 . S
C1222 C1221 1.334 . S
C1222 C1223 1.287 . S
C1223 C1222 1.287 . S
C1223 C1224 1.524 . S
C1223 H1226 0.999 . S
C1224 H1194 0.950 . S
C1224 C1223 1.524 . S
C1224 C1225 1.415 . S
C1225 H1195 0.950 . S
C1225 C1220 1.363 . S
C1225 C1224 1.415 . S
H1226 C1223 0.999 . S
H1227 C1208 0.913 . S
H1228 C1246 0.951 . S
H1229 C1248 0.951 . S
H1230 C1250 0.950 . S
H1231 C1251 0.950 . S
H1232 C1253 0.950 . S
H1233 C1256 0.950 . S
H1234 C1257 0.950 . S
H1235 C1259 0.950 . S
H1236 C1260 0.950 . S
H1237 C1261 0.951 . S
H1238 C1263 0.951 . S
H1239 C1265 0.950 . S
H1240 C1266 0.950 . S
H1241 C1268 0.950 . S
H1242 C1271 0.950 . S
H1243 C1272 0.950 . S
H1244 C1274 0.950 . S
H1245 C1275 0.950 . S
C1246 H1228 0.951 . S
C1246 C1247 1.366 . S
C1246 C1248 1.388 . S
C1247 C1246 1.366 . S
C1247 C1251 1.385 . S
C1248 H1229 0.951 . S
C1248 C1246 1.388 . S
C1248 C1249 1.366 . S
C1249 C1248 1.366 . S
C1249 C1250 1.414 . S
C1249 C1252 1.499 . S
C1250 H1230 0.950 . S
C1250 C1249 1.414 . S
C1250 C1251 1.374 . S
C1251 H1231 0.950 . S
C1251 C1247 1.385 . S
C1251 C1250 1.374 . S
C1252 C1249 1.499 . S
C1252 C1253 1.373 . S
C1252 C1254 1.389 . S
C1253 H1232 0.950 . S
C1253 C1252 1.373 . S
C1253 C1269 1.377 . S
C1254 C1252 1.389 . S
C1254 C1255 1.524 . S
C1254 C1268 1.377 . S
C1255 C1254 1.524 . S
C1255 C1256 1.397 . S
C1255 C1260 1.363 . S
C1256 H1233 0.950 . S
C1256 C1255 1.397 . S
C1256 C1257 1.334 . S
C1257 H1234 0.950 . S
C1257 C1256 1.334 . S
C1257 C1258 1.287 . S
C1258 C1257 1.287 . S
C1258 C1259 1.524 . S
C1258 H1277 0.913 . S
C1259 H1235 0.950 . S
C1259 C1258 1.524 . S
C1259 C1260 1.415 . S
C1260 H1236 0.950 . S
C1260 C1255 1.363 . S
C1260 C1259 1.415 . S
C1261 H1237 0.951 . S
C1261 C1262 1.366 . S
C1261 C1263 1.388 . S
C1262 C1261 1.366 . S
C1262 C1266 1.385 . S
C1263 H1238 0.951 . S
C1263 C1261 1.388 . S
C1263 C1264 1.366 . S
C1264 C1263 1.366 . S
C1264 C1265 1.414 . S
C1264 C1267 1.499 . S
C1265 H1239 0.950 . S
C1265 C1264 1.414 . S
C1265 C1266 1.374 . S
C1266 H1240 0.950 . S
C1266 C1262 1.385 . S
C1266 C1265 1.374 . S
C1267 C1264 1.499 . S
C1267 C1268 1.373 . S
C1267 C1269 1.389 . S
C1268 H1241 0.950 . S
C1268 C1254 1.377 . S
C1268 C1267 1.373 . S
C1269 C1253 1.377 . S
C1269 C1267 1.389 . S
C1269 C1270 1.524 . S
C1270 C1269 1.524 . S
C1270 C1271 1.397 . S
C1270 C1275 1.363 . S
C1271 H1242 0.950 . S
C1271 C1270 1.397 . S
C1271 C1272 1.334 . S
C1272 H1243 0.950 . S
C1272 C1271 1.334 . S
C1272 C1273 1.287 . S
C1273 C1272 1.287 . S
C1273 C1274 1.524 . S
C1273 H1276 0.999 . S
C1274 H1244 0.950 . S
C1274 C1273 1.524 . S
C1274 C1275 1.415 . S
C1275 H1245 0.950 . S
C1275 C1270 1.363 . S
C1275 C1274 1.415 . S
H1276 C1273 0.999 . S
H1277 C1258 0.913 . S
H1278 C1296 0.951 . S
H1279 C1298 0.951 . S
H1280 C1300 0.950 . S
H1281 C1301 0.950 . S
H1282 C1303 0.950 . S
H1283 C1306 0.950 . S
H1284 C1307 0.950 . S
H1285 C1309 0.950 . S
H1286 C1310 0.950 . S
H1287 C1311 0.951 . S
H1288 C1313 0.951 . S
H1289 C1315 0.950 . S
H1290 C1316 0.950 . S
H1291 C1318 0.950 . S
H1292 C1321 0.950 . S
H1293 C1322 0.950 . S
H1294 C1324 0.950 . S
H1295 C1325 0.950 . S
C1296 H1278 0.951 . S
C1296 C1297 1.366 . S
C1296 C1298 1.388 . S
C1297 C1296 1.366 . S
C1297 C1301 1.385 . S
C1298 H1279 0.951 . S
C1298 C1296 1.388 . S
C1298 C1299 1.366 . S
C1299 C1298 1.366 . S
C1299 C1300 1.414 . S
C1299 C1302 1.499 . S
C1300 H1280 0.950 . S
C1300 C1299 1.414 . S
C1300 C1301 1.374 . S
C1301 H1281 0.950 . S
C1301 C1297 1.385 . S
C1301 C1300 1.374 . S
C1302 C1299 1.499 . S
C1302 C1303 1.373 . S
C1302 C1304 1.389 . S
C1303 H1282 0.950 . S
C1303 C1302 1.373 . S
C1303 C1319 1.377 . S
C1304 C1302 1.389 . S
C1304 C1305 1.524 . S
C1304 C1318 1.377 . S
C1305 C1304 1.524 . S
C1305 C1306 1.397 . S
C1305 C1310 1.363 . S
C1306 H1283 0.950 . S
C1306 C1305 1.397 . S
C1306 C1307 1.334 . S
C1307 H1284 0.950 . S
C1307 C1306 1.334 . S
C1307 C1308 1.287 . S
C1308 C1307 1.287 . S
C1308 C1309 1.524 . S
C1308 H1327 0.913 . S
C1309 H1285 0.950 . S
C1309 C1308 1.524 . S
C1309 C1310 1.415 . S
C1310 H1286 0.950 . S
C1310 C1305 1.363 . S
C1310 C1309 1.415 . S
C1311 H1287 0.951 . S
C1311 C1312 1.366 . S
C1311 C1313 1.388 . S
C1312 C1311 1.366 . S
C1312 C1316 1.385 . S
C1313 H1288 0.951 . S
C1313 C1311 1.388 . S
C1313 C1314 1.366 . S
C1314 C1313 1.366 . S
C1314 C1315 1.414 . S
C1314 C1317 1.499 . S
C1315 H1289 0.950 . S
C1315 C1314 1.414 . S
C1315 C1316 1.374 . S
C1316 H1290 0.950 . S
C1316 C1312 1.385 . S
C1316 C1315 1.374 . S
C1317 C1314 1.499 . S
C1317 C1318 1.373 . S
C1317 C1319 1.389 . S
C1318 H1291 0.950 . S
C1318 C1304 1.377 . S
C1318 C1317 1.373 . S
C1319 C1303 1.377 . S
C1319 C1317 1.389 . S
C1319 C1320 1.524 . S
C1320 C1319 1.524 . S
C1320 C1321 1.397 . S
C1320 C1325 1.363 . S
C1321 H1292 0.950 . S
C1321 C1320 1.397 . S
C1321 C1322 1.334 . S
C1322 H1293 0.950 . S
C1322 C1321 1.334 . S
C1322 C1323 1.287 . S
C1323 C1322 1.287 . S
C1323 C1324 1.524 . S
C1323 H1326 0.999 . S
C1324 H1294 0.950 . S
C1324 C1323 1.524 . S
C1324 C1325 1.415 . S
C1325 H1295 0.950 . S
C1325 C1320 1.363 . S
C1325 C1324 1.415 . S
H1326 C1323 0.999 . S
H1327 C1308 0.913 . S
H1328 C1346 0.951 . S
H1329 C1348 0.951 . S
H1330 C1350 0.950 . S
H1331 C1351 0.950 . S
H1332 C1353 0.950 . S
H1333 C1356 0.950 . S
H1334 C1357 0.950 . S
H1335 C1359 0.950 . S
H1336 C1360 0.950 . S
H1337 C1361 0.951 . S
H1338 C1363 0.951 . S
H1339 C1365 0.950 . S
H1340 C1366 0.950 . S
H1341 C1368 0.950 . S
H1342 C1371 0.950 . S
H1343 C1372 0.950 . S
H1344 C1374 0.950 . S
H1345 C1375 0.950 . S
C1346 H1328 0.951 . S
C1346 C1347 1.366 . S
C1346 C1348 1.388 . S
C1347 C1346 1.366 . S
C1347 C1351 1.385 . S
C1348 H1329 0.951 . S
C1348 C1346 1.388 . S
C1348 C1349 1.366 . S
C1349 C1348 1.366 . S
C1349 C1350 1.414 . S
C1349 C1352 1.499 . S
C1350 H1330 0.950 . S
C1350 C1349 1.414 . S
C1350 C1351 1.374 . S
C1351 H1331 0.950 . S
C1351 C1347 1.385 . S
C1351 C1350 1.374 . S
C1352 C1349 1.499 . S
C1352 C1353 1.373 . S
C1352 C1354 1.389 . S
C1353 H1332 0.950 . S
C1353 C1352 1.373 . S
C1353 C1369 1.361 1_545 S
C1354 C1352 1.389 . S
C1354 C1355 1.524 . S
C1354 C1368 1.377 1_545 S
C1355 C1354 1.524 . S
C1355 C1356 1.397 . S
C1355 C1360 1.363 1_545 S
C1356 H1333 0.950 . S
C1356 C1355 1.397 . S
C1356 C1357 1.334 . S
C1357 H1334 0.950 . S
C1357 C1356 1.334 . S
C1357 C1358 1.287 . S
C1358 C1357 1.287 . S
C1358 C1359 1.524 1_545 S
C1358 H1377 0.913 . S
C1359 H1335 0.950 . S
C1359 C1358 1.524 1_565 S
C1359 C1360 1.415 . S
C1360 H1336 0.950 . S
C1360 C1355 1.363 1_565 S
C1360 C1359 1.415 . S
C1361 H1337 0.951 . S
C1361 C1362 1.366 . S
C1361 C1363 1.388 . S
C1362 C1361 1.366 . S
C1362 C1366 1.385 . S
C1363 H1338 0.951 . S
C1363 C1361 1.388 . S
C1363 C1364 1.366 . S
C1364 C1363 1.366 . S
C1364 C1365 1.414 . S
C1364 C1367 1.499 . S
C1365 H1339 0.950 . S
C1365 C1364 1.414 . S
C1365 C1366 1.374 . S
C1366 H1340 0.950 . S
C1366 C1362 1.385 . S
C1366 C1365 1.374 . S
C1367 C1364 1.499 . S
C1367 C1368 1.373 . S
C1367 C1369 1.401 . S
C1368 H1341 0.950 . S
C1368 C1354 1.377 1_565 S
C1368 C1367 1.373 . S
C1369 C1353 1.361 1_565 S
C1369 C1367 1.401 . S
C1369 C1370 1.528 . S
C1370 C1369 1.528 . S
C1370 C1371 1.397 . S
C1370 C1375 1.363 1_565 S
C1371 H1342 0.950 . S
C1371 C1370 1.397 . S
C1371 C1372 1.334 . S
C1372 H1343 0.950 . S
C1372 C1371 1.334 . S
C1372 C1373 1.287 . S
C1373 C1372 1.287 . S
C1373 C1374 1.524 1_565 S
C1373 H1376 0.999 . S
C1374 H1344 0.950 . S
C1374 C1373 1.524 1_545 S
C1374 C1375 1.415 . S
C1375 H1345 0.950 . S
C1375 C1370 1.363 1_545 S
C1375 C1374 1.415 . S
H1376 C1373 0.999 . S
H1377 C1358 0.913 . S
H1378 C1396 0.951 . S
H1379 C1398 0.951 . S
H1380 C1400 0.950 . S
H1381 C1401 0.950 . S
H1382 C1403 0.950 . S
H1383 C1406 0.950 . S
H1384 C1407 0.950 . S
H1385 C1409 0.950 . S
H1386 C1410 0.950 . S
H1387 C1411 0.951 . S
H1388 C1413 0.951 . S
H1389 C1415 0.950 . S
H1390 C1416 0.950 . S
H1391 C1418 0.950 . S
H1392 C1421 0.950 . S
H1393 C1422 0.950 . S
H1394 C1424 0.950 . S
H1395 C1425 0.950 . S
C1396 H1378 0.951 . S
C1396 C1397 1.366 . S
C1396 C1398 1.388 . S
C1397 C1396 1.366 . S
C1397 C1401 1.385 . S
C1398 H1379 0.951 . S
C1398 C1396 1.388 . S
C1398 C1399 1.366 . S
C1399 C1398 1.366 . S
C1399 C1400 1.414 . S
C1399 C1402 1.499 . S
C1400 H1380 0.950 . S
C1400 C1399 1.414 . S
C1400 C1401 1.374 . S
C1401 H1381 0.950 . S
C1401 C1397 1.385 . S
C1401 C1400 1.374 . S
C1402 C1399 1.499 . S
C1402 C1403 1.373 . S
C1402 C1404 1.389 . S
C1403 H1382 0.950 . S
C1403 C1402 1.373 . S
C1403 C1419 1.377 . S
C1404 C1402 1.389 . S
C1404 C1405 1.524 . S
C1404 C1418 1.377 . S
C1405 C1404 1.524 . S
C1405 C1406 1.397 . S
C1405 C1410 1.363 . S
C1406 H1383 0.950 . S
C1406 C1405 1.397 . S
C1406 C1407 1.334 . S
C1407 H1384 0.950 . S
C1407 C1406 1.334 . S
C1407 C1408 1.287 . S
C1408 C1407 1.287 . S
C1408 C1409 1.524 . S
C1408 H1427 0.913 . S
C1409 H1385 0.950 . S
C1409 C1408 1.524 . S
C1409 C1410 1.415 . S
C1410 H1386 0.950 . S
C1410 C1405 1.363 . S
C1410 C1409 1.415 . S
C1411 H1387 0.951 . S
C1411 C1412 1.366 . S
C1411 C1413 1.388 . S
C1412 C1411 1.366 . S
C1412 C1416 1.385 . S
C1413 H1388 0.951 . S
C1413 C1411 1.388 . S
C1413 C1414 1.366 . S
C1414 C1413 1.366 . S
C1414 C1415 1.414 . S
C1414 C1417 1.499 . S
C1415 H1389 0.950 . S
C1415 C1414 1.414 . S
C1415 C1416 1.374 . S
C1416 H1390 0.950 . S
C1416 C1412 1.385 . S
C1416 C1415 1.374 . S
C1417 C1414 1.499 . S
C1417 C1418 1.373 . S
C1417 C1419 1.389 . S
C1418 H1391 0.950 . S
C1418 C1404 1.377 . S
C1418 C1417 1.373 . S
C1419 C1403 1.377 . S
C1419 C1417 1.389 . S
C1419 C1420 1.524 . S
C1420 C1419 1.524 . S
C1420 C1421 1.397 . S
C1420 C1425 1.363 . S
C1421 H1392 0.950 . S
C1421 C1420 1.397 . S
C1421 C1422 1.334 . S
C1422 H1393 0.950 . S
C1422 C1421 1.334 . S
C1422 C1423 1.287 . S
C1423 C1422 1.287 . S
C1423 C1424 1.524 . S
C1423 H1426 0.999 . S
C1424 H1394 0.950 . S
C1424 C1423 1.524 . S
C1424 C1425 1.415 . S
C1425 H1395 0.950 . S
C1425 C1420 1.363 . S
C1425 C1424 1.415 . S
H1426 C1423 0.999 . S
H1427 C1408 0.913 . S
H1428 C1446 0.951 . S
H1429 C1448 0.951 . S
H1430 C1450 0.950 . S
H1431 C1451 0.950 . S
H1432 C1453 0.950 . S
H1433 C1456 0.950 . S
H1434 C1457 0.950 . S
H1435 C1459 0.950 . S
H1436 C1460 0.950 . S
H1437 C1461 0.951 . S
H1438 C1463 0.951 . S
H1439 C1465 0.950 . S
H1440 C1466 0.950 . S
H1441 C1468 0.950 1_545 S
H1442 C1471 0.950 . S
H1443 C1472 0.950 . S
H1444 C1474 0.950 . S
H1445 C1475 0.950 . S
C1446 H1428 0.951 . S
C1446 C1447 1.366 . S
C1446 C1448 1.388 . S
C1447 C1446 1.366 . S
C1447 C1451 1.385 . S
C1448 H1429 0.951 . S
C1448 C1446 1.388 . S
C1448 C1449 1.366 . S
C1449 C1448 1.366 . S
C1449 C1450 1.414 . S
C1449 C1452 1.499 . S
C1450 H1430 0.950 . S
C1450 C1449 1.414 . S
C1450 C1451 1.374 . S
C1451 H1431 0.950 . S
C1451 C1447 1.385 . S
C1451 C1450 1.374 . S
C1452 C1449 1.499 . S
C1452 C1453 1.373 . S
C1452 C1454 1.389 . S
C1453 H1432 0.950 . S
C1453 C1452 1.373 . S
C1453 C1469 1.377 . S
C1454 C1452 1.389 . S
C1454 C1455 1.524 . S
C1454 C1468 1.377 . S
C1455 C1454 1.524 . S
C1455 C1456 1.397 . S
C1455 C1460 1.363 . S
C1456 H1433 0.950 . S
C1456 C1455 1.397 . S
C1456 C1457 1.334 . S
C1457 H1434 0.950 . S
C1457 C1456 1.334 . S
C1457 C1458 1.287 . S
C1458 C1457 1.287 . S
C1458 C1459 1.524 . S
C1458 H1477 0.913 . S
C1459 H1435 0.950 . S
C1459 C1458 1.524 . S
C1459 C1460 1.415 . S
C1460 H1436 0.950 . S
C1460 C1455 1.363 . S
C1460 C1459 1.415 . S
C1461 H1437 0.951 . S
C1461 C1462 1.366 . S
C1461 C1463 1.388 . S
C1462 C1461 1.366 . S
C1462 C1466 1.385 . S
C1463 H1438 0.951 . S
C1463 C1461 1.388 . S
C1463 C1464 1.366 . S
C1464 C1463 1.366 . S
C1464 C1465 1.414 . S
C1464 C1467 1.499 . S
C1465 H1439 0.950 . S
C1465 C1464 1.414 . S
C1465 C1466 1.374 . S
C1466 H1440 0.950 . S
C1466 C1462 1.385 . S
C1466 C1465 1.374 . S
C1467 C1464 1.499 . S
C1467 C1468 1.373 1_545 S
C1467 C1469 1.389 1_545 S
C1468 H1441 0.950 1_565 S
C1468 C1454 1.377 . S
C1468 C1467 1.373 1_565 S
C1469 C1453 1.377 . S
C1469 C1467 1.389 1_565 S
C1469 C1470 1.524 . S
C1470 C1469 1.524 . S
C1470 C1471 1.397 . S
C1470 C1475 1.363 . S
C1471 H1442 0.950 . S
C1471 C1470 1.397 . S
C1471 C1472 1.334 . S
C1472 H1443 0.950 . S
C1472 C1471 1.334 . S
C1472 C1473 1.287 . S
C1473 C1472 1.287 . S
C1473 C1474 1.524 . S
C1473 H1476 0.999 . S
C1474 H1444 0.950 . S
C1474 C1473 1.524 . S
C1474 C1475 1.415 . S
C1475 H1445 0.950 . S
C1475 C1470 1.363 . S
C1475 C1474 1.415 . S
H1476 C1473 0.999 . S
H1477 C1458 0.913 . S
H1478 C1496 0.951 . S
H1479 C1498 0.951 . S
H1480 C1500 0.950 . S
H1481 C1501 0.950 . S
H1482 C1503 0.950 . S
H1483 C1506 0.950 . S
H1484 C1507 0.950 . S
H1485 C1509 0.950 . S
H1486 C1510 0.950 . S
H1487 C1511 0.951 . S
H1488 C1513 0.951 . S
H1489 C1515 0.950 . S
H1490 C1516 0.950 . S
H1491 C1518 0.950 . S
H1492 C1521 0.950 . S
H1493 C1522 0.950 . S
H1494 C1524 0.950 . S
H1495 C1525 0.950 . S
C1496 H1478 0.951 . S
C1496 C1497 1.366 . S
C1496 C1498 1.388 . S
C1497 C1496 1.366 . S
C1497 C1501 1.385 . S
C1498 H1479 0.951 . S
C1498 C1496 1.388 . S
C1498 C1499 1.366 . S
C1499 C1498 1.366 . S
C1499 C1500 1.414 . S
C1499 C1502 1.499 . S
C1500 H1480 0.950 . S
C1500 C1499 1.414 . S
C1500 C1501 1.374 . S
C1501 H1481 0.950 . S
C1501 C1497 1.385 . S
C1501 C1500 1.374 . S
C1502 C1499 1.499 . S
C1502 C1503 1.373 . S
C1502 C1504 1.389 . S
C1503 H1482 0.950 . S
C1503 C1502 1.373 . S
C1503 C1519 1.377 . S
C1504 C1502 1.389 . S
C1504 C1505 1.524 . S
C1504 C1518 1.377 1_556 S
C1505 C1504 1.524 . S
C1505 C1506 1.397 . S
C1505 C1510 1.363 1_556 S
C1506 H1483 0.950 . S
C1506 C1505 1.397 . S
C1506 C1507 1.334 . S
C1507 H1484 0.950 . S
C1507 C1506 1.334 . S
C1507 C1508 1.287 . S
C1508 C1507 1.287 . S
C1508 C1509 1.524 1_556 S
C1508 H1527 0.913 . S
C1509 H1485 0.950 . S
C1509 C1508 1.524 1_554 S
C1509 C1510 1.415 . S
C1510 H1486 0.950 . S
C1510 C1505 1.363 1_554 S
C1510 C1509 1.415 . S
C1511 H1487 0.951 . S
C1511 C1512 1.366 . S
C1511 C1513 1.388 . S
C1512 C1511 1.366 . S
C1512 C1516 1.385 . S
C1513 H1488 0.951 . S
C1513 C1511 1.388 . S
C1513 C1514 1.366 . S
C1514 C1513 1.366 . S
C1514 C1515 1.414 . S
C1514 C1517 1.499 . S
C1515 H1489 0.950 . S
C1515 C1514 1.414 . S
C1515 C1516 1.374 . S
C1516 H1490 0.950 . S
C1516 C1512 1.385 . S
C1516 C1515 1.374 . S
C1517 C1514 1.499 . S
C1517 C1518 1.373 . S
C1517 C1519 1.389 1_554 S
C1518 H1491 0.950 . S
C1518 C1504 1.377 1_554 S
C1518 C1517 1.373 . S
C1519 C1503 1.377 . S
C1519 C1517 1.389 1_556 S
C1519 C1520 1.524 . S
C1520 C1519 1.524 . S
C1520 C1521 1.397 1_556 S
C1520 C1525 1.363 . S
C1521 H1492 0.950 . S
C1521 C1520 1.397 1_554 S
C1521 C1522 1.334 . S
C1522 H1493 0.950 . S
C1522 C1521 1.334 . S
C1522 C1523 1.287 . S
C1523 C1522 1.287 . S
C1523 C1524 1.524 1_554 S
C1523 H1526 0.999 . S
C1524 H1494 0.950 . S
C1524 C1523 1.524 1_556 S
C1524 C1525 1.415 . S
C1525 H1495 0.950 . S
C1525 C1520 1.363 . S
C1525 C1524 1.415 . S
H1526 C1523 0.999 . S
H1527 C1508 0.913 . S
H1528 C1546 0.951 . S
H1529 C1548 0.951 . S
H1530 C1550 0.950 . S
H1531 C1551 0.950 . S
H1532 C1553 0.950 . S
H1533 C1556 0.950 . S
H1534 C1557 0.950 . S
H1535 C1559 0.950 1_655 S
H1536 C1560 0.950 1_655 S
H1537 C1561 0.951 . S
H1538 C1563 0.951 . S
H1539 C1565 0.950 . S
H1540 C1566 0.950 . S
H1541 C1568 0.950 . S
H1542 C1571 0.950 . S
H1543 C1572 0.950 . S
H1544 C1574 0.950 . S
H1545 C1575 0.950 . S
C1546 H1528 0.951 . S
C1546 C1547 1.366 . S
C1546 C1548 1.388 . S
C1547 C1546 1.366 . S
C1547 C1551 1.385 . S
C1548 H1529 0.951 . S
C1548 C1546 1.388 . S
C1548 C1549 1.366 . S
C1549 C1548 1.366 . S
C1549 C1550 1.414 . S
C1549 C1552 1.499 . S
C1550 H1530 0.950 . S
C1550 C1549 1.414 . S
C1550 C1551 1.374 . S
C1551 H1531 0.950 . S
C1551 C1547 1.385 . S
C1551 C1550 1.374 . S
C1552 C1549 1.499 . S
C1552 C1553 1.373 . S
C1552 C1554 1.389 . S
C1553 H1532 0.950 . S
C1553 C1552 1.373 . S
C1553 C1569 1.375 1_455 S
C1554 C1552 1.389 . S
C1554 C1555 1.524 . S
C1554 C1568 1.377 1_455 S
C1555 C1554 1.524 . S
C1555 C1556 1.397 . S
C1555 C1560 1.363 . S
C1556 H1533 0.950 . S
C1556 C1555 1.397 . S
C1556 C1557 1.334 . S
C1557 H1534 0.950 . S
C1557 C1556 1.334 . S
C1557 C1558 1.287 . S
C1558 C1557 1.287 . S
C1558 C1559 1.524 . S
C1558 H1577 0.913 . S
C1559 H1535 0.950 1_455 S
C1559 C1558 1.524 . S
C1559 C1560 1.415 . S
C1560 H1536 0.950 1_455 S
C1560 C1555 1.363 . S
C1560 C1559 1.415 . S
C1561 H1537 0.951 . S
C1561 C1562 1.366 . S
C1561 C1563 1.388 . S
C1562 C1561 1.366 . S
C1562 C1566 1.385 . S
C1563 H1538 0.951 . S
C1563 C1561 1.388 . S
C1563 C1564 1.366 . S
C1564 C1563 1.366 . S
C1564 C1565 1.414 . S
C1564 C1567 1.499 . S
C1565 H1539 0.950 . S
C1565 C1564 1.414 . S
C1565 C1566 1.374 . S
C1566 H1540 0.950 . S
C1566 C1562 1.385 . S
C1566 C1565 1.374 . S
C1567 C1564 1.499 . S
C1567 C1568 1.373 . S
C1567 C1569 1.390 . S
C1568 H1541 0.950 . S
C1568 C1554 1.377 1_655 S
C1568 C1567 1.373 . S
C1569 C1553 1.375 1_655 S
C1569 C1567 1.390 . S
C1569 C1570 1.525 . S
C1570 C1569 1.525 . S
C1570 C1571 1.397 . S
C1570 C1575 1.363 1_655 S
C1571 H1542 0.950 . S
C1571 C1570 1.397 . S
C1571 C1572 1.334 . S
C1572 H1543 0.950 . S
C1572 C1571 1.334 . S
C1572 C1573 1.287 . S
C1573 C1572 1.287 . S
C1573 C1574 1.524 1_655 S
C1573 H1576 0.999 . S
C1574 H1544 0.950 . S
C1574 C1573 1.524 1_455 S
C1574 C1575 1.415 . S
C1575 H1545 0.950 . S
C1575 C1570 1.363 1_455 S
C1575 C1574 1.415 . S
H1576 C1573 0.999 . S
H1577 C1558 0.913 . S
H1578 C1596 0.951 . S
H1579 C1598 0.951 . S
H1580 C1600 0.950 . S
H1581 C1601 0.950 . S
H1582 C1603 0.950 . S
H1583 C1606 0.950 . S
H1584 C1607 0.950 . S
H1585 C1609 0.950 . S
H1586 C1610 0.950 . S
H1587 C1611 0.951 . S
H1588 C1613 0.951 . S
H1589 C1615 0.950 . S
H1590 C1616 0.950 . S
H1591 C1618 0.950 . S
H1592 C1621 0.950 . S
H1593 C1622 0.950 . S
H1594 C1624 0.950 . S
H1595 C1625 0.950 . S
C1596 H1578 0.951 . S
C1596 C1597 1.366 . S
C1596 C1598 1.388 . S
C1597 C1596 1.366 . S
C1597 C1601 1.385 . S
C1598 H1579 0.951 . S
C1598 C1596 1.388 . S
C1598 C1599 1.366 . S
C1599 C1598 1.366 . S
C1599 C1600 1.414 . S
C1599 C1602 1.499 . S
C1600 H1580 0.950 . S
C1600 C1599 1.414 . S
C1600 C1601 1.374 . S
C1601 H1581 0.950 . S
C1601 C1597 1.385 . S
C1601 C1600 1.374 . S
C1602 C1599 1.499 . S
C1602 C1603 1.373 . S
C1602 C1604 1.389 . S
C1603 H1582 0.950 . S
C1603 C1602 1.373 . S
C1603 C1619 1.377 . S
C1604 C1602 1.389 . S
C1604 C1605 1.524 . S
C1604 C1618 1.377 . S
C1605 C1604 1.524 . S
C1605 C1606 1.397 . S
C1605 C1610 1.363 . S
C1606 H1583 0.950 . S
C1606 C1605 1.397 . S
C1606 C1607 1.334 . S
C1607 H1584 0.950 . S
C1607 C1606 1.334 . S
C1607 C1608 1.287 . S
C1608 C1607 1.287 . S
C1608 C1609 1.524 . S
C1608 H1627 0.913 . S
C1609 H1585 0.950 . S
C1609 C1608 1.524 . S
C1609 C1610 1.415 . S
C1610 H1586 0.950 . S
C1610 C1605 1.363 . S
C1610 C1609 1.415 . S
C1611 H1587 0.951 . S
C1611 C1612 1.366 . S
C1611 C1613 1.388 . S
C1612 C1611 1.366 . S
C1612 C1616 1.385 . S
C1613 H1588 0.951 . S
C1613 C1611 1.388 . S
C1613 C1614 1.366 . S
C1614 C1613 1.366 . S
C1614 C1615 1.414 . S
C1614 C1617 1.499 . S
C1615 H1589 0.950 . S
C1615 C1614 1.414 . S
C1615 C1616 1.374 . S
C1616 H1590 0.950 . S
C1616 C1612 1.385 . S
C1616 C1615 1.374 . S
C1617 C1614 1.499 . S
C1617 C1618 1.373 . S
C1617 C1619 1.389 . S
C1618 H1591 0.950 . S
C1618 C1604 1.377 . S
C1618 C1617 1.373 . S
C1619 C1603 1.377 . S
C1619 C1617 1.389 . S
C1619 C1620 1.524 . S
C1620 C1619 1.524 . S
C1620 C1621 1.397 . S
C1620 C1625 1.363 . S
C1621 H1592 0.950 . S
C1621 C1620 1.397 . S
C1621 C1622 1.334 . S
C1622 H1593 0.950 . S
C1622 C1621 1.334 . S
C1622 C1623 1.287 . S
C1623 C1622 1.287 . S
C1623 C1624 1.524 . S
C1623 H1626 0.999 . S
C1624 H1594 0.950 . S
C1624 C1623 1.524 . S
C1624 C1625 1.415 . S
C1625 H1595 0.950 . S
C1625 C1620 1.363 . S
C1625 C1624 1.415 . S
H1626 C1623 0.999 . S
H1627 C1608 0.913 . S
H1628 C1646 0.951 . S
H1629 C1648 0.951 . S
H1630 C1650 0.950 . S
H1631 C1651 0.950 . S
H1632 C1653 0.950 . S
H1633 C1656 0.950 . S
H1634 C1657 0.950 . S
H1635 C1659 0.950 . S
H1636 C1660 0.950 . S
H1637 C1661 0.951 . S
H1638 C1663 0.951 . S
H1639 C1665 0.950 . S
H1640 C1666 0.950 . S
H1641 C1668 0.950 . S
H1642 C1671 0.950 . S
H1643 C1672 0.950 . S
H1644 C1674 0.950 . S
H1645 C1675 0.950 . S
C1646 H1628 0.951 . S
C1646 C1647 1.366 . S
C1646 C1648 1.388 . S
C1647 C1646 1.366 . S
C1647 C1651 1.385 . S
C1648 H1629 0.951 . S
C1648 C1646 1.388 . S
C1648 C1649 1.366 . S
C1649 C1648 1.366 . S
C1649 C1650 1.414 . S
C1649 C1652 1.499 . S
C1650 H1630 0.950 . S
C1650 C1649 1.414 . S
C1650 C1651 1.374 . S
C1651 H1631 0.950 . S
C1651 C1647 1.385 . S
C1651 C1650 1.374 . S
C1652 C1649 1.499 . S
C1652 C1653 1.373 . S
C1652 C1654 1.389 . S
C1653 H1632 0.950 . S
C1653 C1652 1.373 . S
C1653 C1669 1.377 . S
C1654 C1652 1.389 . S
C1654 C1655 1.524 . S
C1654 C1668 1.377 1_655 S
C1655 C1654 1.524 . S
C1655 C1656 1.397 . S
C1655 C1660 1.363 1_655 S
C1656 H1633 0.950 . S
C1656 C1655 1.397 . S
C1656 C1657 1.334 . S
C1657 H1634 0.950 . S
C1657 C1656 1.334 . S
C1657 C1658 1.303 . S
C1658 C1657 1.303 . S
C1658 C1659 1.508 1_655 S
C1658 H1677 0.913 . S
C1659 H1635 0.950 . S
C1659 C1658 1.508 1_455 S
C1659 C1660 1.415 . S
C1660 H1636 0.950 . S
C1660 C1655 1.363 1_455 S
C1660 C1659 1.415 . S
C1661 H1637 0.951 . S
C1661 C1662 1.366 . S
C1661 C1663 1.388 . S
C1662 C1661 1.366 . S
C1662 C1666 1.385 . S
C1663 H1638 0.951 . S
C1663 C1661 1.388 . S
C1663 C1664 1.366 . S
C1664 C1663 1.366 . S
C1664 C1665 1.414 . S
C1664 C1667 1.499 . S
C1665 H1639 0.950 . S
C1665 C1664 1.414 . S
C1665 C1666 1.374 . S
C1666 H1640 0.950 . S
C1666 C1662 1.385 . S
C1666 C1665 1.374 . S
C1667 C1664 1.499 . S
C1667 C1668 1.373 . S
C1667 C1669 1.389 1_455 S
C1668 H1641 0.950 . S
C1668 C1654 1.377 1_455 S
C1668 C1667 1.373 . S
C1669 C1653 1.377 . S
C1669 C1667 1.389 1_655 S
C1669 C1670 1.524 . S
C1670 C1669 1.524 . S
C1670 C1671 1.397 1_655 S
C1670 C1675 1.363 . S
C1671 H1642 0.950 . S
C1671 C1670 1.397 1_455 S
C1671 C1672 1.334 . S
C1672 H1643 0.950 . S
C1672 C1671 1.334 . S
C1672 C1673 1.287 1_455 S
C1673 C1672 1.287 1_655 S
C1673 C1674 1.524 . S
C1673 H1676 0.999 . S
C1674 H1644 0.950 . S
C1674 C1673 1.524 . S
C1674 C1675 1.415 . S
C1675 H1645 0.950 . S
C1675 C1670 1.363 . S
C1675 C1674 1.415 . S
H1676 C1673 0.999 . S
H1677 C1658 0.913 . S
H1678 C1696 0.951 . S
H1679 C1698 0.951 . S
H1680 C1700 0.950 . S
H1681 C1701 0.950 . S
H1682 C1703 0.950 . S
H1683 C1706 0.950 . S
H1684 C1707 0.950 . S
H1685 C1709 0.950 . S
H1686 C1710 0.950 . S
H1687 C1711 0.951 . S
H1688 C1713 0.951 . S
H1689 C1715 0.950 . S
H1690 C1716 0.950 . S
H1691 C1718 0.950 . S
H1692 C1721 0.950 . S
H1693 C1722 0.950 . S
H1694 C1724 0.950 . S
H1695 C1725 0.950 . S
C1696 H1678 0.951 . S
C1696 C1697 1.366 . S
C1696 C1698 1.388 . S
C1697 C1696 1.366 . S
C1697 C1701 1.385 . S
C1698 H1679 0.951 . S
C1698 C1696 1.388 . S
C1698 C1699 1.366 . S
C1699 C1698 1.366 . S
C1699 C1700 1.414 . S
C1699 C1702 1.499 . S
C1700 H1680 0.950 . S
C1700 C1699 1.414 . S
C1700 C1701 1.374 . S
C1701 H1681 0.950 . S
C1701 C1697 1.385 . S
C1701 C1700 1.374 . S
C1702 C1699 1.499 . S
C1702 C1703 1.373 . S
C1702 C1704 1.389 . S
C1703 H1682 0.950 . S
C1703 C1702 1.373 . S
C1703 C1719 1.377 . S
C1704 C1702 1.389 . S
C1704 C1705 1.524 . S
C1704 C1718 1.377 . S
C1705 C1704 1.524 . S
C1705 C1706 1.397 . S
C1705 C1710 1.363 . S
C1706 H1683 0.950 . S
C1706 C1705 1.397 . S
C1706 C1707 1.334 . S
C1707 H1684 0.950 . S
C1707 C1706 1.334 . S
C1707 C1708 1.287 . S
C1708 C1707 1.287 . S
C1708 C1709 1.524 . S
C1708 H1727 0.913 . S
C1709 H1685 0.950 . S
C1709 C1708 1.524 . S
C1709 C1710 1.415 . S
C1710 H1686 0.950 . S
C1710 C1705 1.363 . S
C1710 C1709 1.415 . S
C1711 H1687 0.951 . S
C1711 C1712 1.366 . S
C1711 C1713 1.388 . S
C1712 C1711 1.366 . S
C1712 C1716 1.385 . S
C1713 H1688 0.951 . S
C1713 C1711 1.388 . S
C1713 C1714 1.366 . S
C1714 C1713 1.366 . S
C1714 C1715 1.414 . S
C1714 C1717 1.499 . S
C1715 H1689 0.950 . S
C1715 C1714 1.414 . S
C1715 C1716 1.374 . S
C1716 H1690 0.950 . S
C1716 C1712 1.385 . S
C1716 C1715 1.374 . S
C1717 C1714 1.499 . S
C1717 C1718 1.373 . S
C1717 C1719 1.389 . S
C1718 H1691 0.950 . S
C1718 C1704 1.377 . S
C1718 C1717 1.373 . S
C1719 C1703 1.377 . S
C1719 C1717 1.389 . S
C1719 C1720 1.524 . S
C1720 C1719 1.524 . S
C1720 C1721 1.397 . S
C1720 C1725 1.363 . S
C1721 H1692 0.950 . S
C1721 C1720 1.397 . S
C1721 C1722 1.334 . S
C1722 H1693 0.950 . S
C1722 C1721 1.334 . S
C1722 C1723 1.287 . S
C1723 C1722 1.287 . S
C1723 C1724 1.524 . S
C1723 H1726 0.999 . S
C1724 H1694 0.950 . S
C1724 C1723 1.524 . S
C1724 C1725 1.415 . S
C1725 H1695 0.950 . S
C1725 C1720 1.363 . S
C1725 C1724 1.415 . S
H1726 C1723 0.999 . S
H1727 C1708 0.913 . S
H1728 C1746 0.951 . S
H1729 C1748 0.951 . S
H1730 C1750 0.950 . S
H1731 C1751 0.950 . S
H1732 C1753 0.950 . S
H1733 C1756 0.950 . S
H1734 C1757 0.950 . S
H1735 C1759 0.950 . S
H1736 C1760 0.950 . S
H1737 C1761 0.951 . S
H1738 C1763 0.951 . S
H1739 C1765 0.950 . S
H1740 C1766 0.950 . S
H1741 C1768 0.950 1_545 S
H1742 C1771 0.950 . S
H1743 C1772 0.950 . S
H1744 C1774 0.950 . S
H1745 C1775 0.950 . S
C1746 H1728 0.951 . S
C1746 C1747 1.366 . S
C1746 C1748 1.388 . S
C1747 C1746 1.366 . S
C1747 C1751 1.385 . S
C1748 H1729 0.951 . S
C1748 C1746 1.388 . S
C1748 C1749 1.366 . S
C1749 C1748 1.366 . S
C1749 C1750 1.414 . S
C1749 C1752 1.499 . S
C1750 H1730 0.950 . S
C1750 C1749 1.414 . S
C1750 C1751 1.374 . S
C1751 H1731 0.950 . S
C1751 C1747 1.385 . S
C1751 C1750 1.374 . S
C1752 C1749 1.499 . S
C1752 C1753 1.373 1_545 S
C1752 C1754 1.389 . S
C1753 H1732 0.950 . S
C1753 C1752 1.373 1_565 S
C1753 C1769 1.377 . S
C1754 C1752 1.389 . S
C1754 C1755 1.524 . S
C1754 C1768 1.377 1_545 S
C1755 C1754 1.524 . S
C1755 C1756 1.397 . S
C1755 C1760 1.363 . S
C1756 H1733 0.950 . S
C1756 C1755 1.397 . S
C1756 C1757 1.334 . S
C1757 H1734 0.950 . S
C1757 C1756 1.334 . S
C1757 C1758 1.287 . S
C1758 C1757 1.287 . S
C1758 C1759 1.524 . S
C1758 H1777 0.913 . S
C1759 H1735 0.950 . S
C1759 C1758 1.524 . S
C1759 C1760 1.415 . S
C1760 H1736 0.950 . S
C1760 C1755 1.363 . S
C1760 C1759 1.415 . S
C1761 H1737 0.951 . S
C1761 C1762 1.366 . S
C1761 C1763 1.388 . S
C1762 C1761 1.366 . S
C1762 C1766 1.385 . S
C1763 H1738 0.951 . S
C1763 C1761 1.388 . S
C1763 C1764 1.366 . S
C1764 C1763 1.366 . S
C1764 C1765 1.414 . S
C1764 C1767 1.499 . S
C1765 H1739 0.950 . S
C1765 C1764 1.414 . S
C1765 C1766 1.374 . S
C1766 H1740 0.950 . S
C1766 C1762 1.385 . S
C1766 C1765 1.374 . S
C1767 C1764 1.499 . S
C1767 C1768 1.373 . S
C1767 C1769 1.389 . S
C1768 H1741 0.950 1_565 S
C1768 C1754 1.377 1_565 S
C1768 C1767 1.373 . S
C1769 C1753 1.377 . S
C1769 C1767 1.389 . S
C1769 C1770 1.524 . S
C1770 C1769 1.524 . S
C1770 C1771 1.397 . S
C1770 C1775 1.363 . S
C1771 H1742 0.950 . S
C1771 C1770 1.397 . S
C1771 C1772 1.334 . S
C1772 H1743 0.950 . S
C1772 C1771 1.334 . S
C1772 C1773 1.287 . S
C1773 C1772 1.287 . S
C1773 C1774 1.524 . S
C1773 H1776 0.999 . S
C1774 H1744 0.950 . S
C1774 C1773 1.524 . S
C1774 C1775 1.415 . S
C1775 H1745 0.950 . S
C1775 C1770 1.363 . S
C1775 C1774 1.415 . S
H1776 C1773 0.999 . S
H1777 C1758 0.913 . S
H1778 C1796 0.951 . S
H1779 C1798 0.951 . S
H1780 C1800 0.950 . S
H1781 C1801 0.950 . S
H1782 C1803 0.950 . S
H1783 C1806 0.950 . S
H1784 C1807 0.950 . S
H1785 C1809 0.950 . S
H1786 C1810 0.950 . S
H1787 C1811 0.951 . S
H1788 C1813 0.951 . S
H1789 C1815 0.950 . S
H1790 C1816 0.950 . S
H1791 C1818 0.950 . S
H1792 C1821 0.950 . S
H1793 C1822 0.950 . S
H1794 C1824 0.950 . S
H1795 C1825 0.950 . S
C1796 H1778 0.951 . S
C1796 C1797 1.366 . S
C1796 C1798 1.388 . S
C1797 C1796 1.366 . S
C1797 C1801 1.385 . S
C1798 H1779 0.951 . S
C1798 C1796 1.388 . S
C1798 C1799 1.366 . S
C1799 C1798 1.366 . S
C1799 C1800 1.414 . S
C1799 C1802 1.499 . S
C1800 H1780 0.950 . S
C1800 C1799 1.414 . S
C1800 C1801 1.374 . S
C1801 H1781 0.950 . S
C1801 C1797 1.385 . S
C1801 C1800 1.374 . S
C1802 C1799 1.499 . S
C1802 C1803 1.373 . S
C1802 C1804 1.389 . S
C1803 H1782 0.950 . S
C1803 C1802 1.373 . S
C1803 C1819 1.377 . S
C1804 C1802 1.389 . S
C1804 C1805 1.524 . S
C1804 C1818 1.377 . S
C1805 C1804 1.524 . S
C1805 C1806 1.397 . S
C1805 C1810 1.363 . S
C1806 H1783 0.950 . S
C1806 C1805 1.397 . S
C1806 C1807 1.334 . S
C1807 H1784 0.950 . S
C1807 C1806 1.334 . S
C1807 C1808 1.287 . S
C1808 C1807 1.287 . S
C1808 C1809 1.524 . S
C1808 H1827 0.913 . S
C1809 H1785 0.950 . S
C1809 C1808 1.524 . S
C1809 C1810 1.415 . S
C1810 H1786 0.950 . S
C1810 C1805 1.363 . S
C1810 C1809 1.415 . S
C1811 H1787 0.951 . S
C1811 C1812 1.366 . S
C1811 C1813 1.388 . S
C1812 C1811 1.366 . S
C1812 C1816 1.385 . S
C1813 H1788 0.951 . S
C1813 C1811 1.388 . S
C1813 C1814 1.366 . S
C1814 C1813 1.366 . S
C1814 C1815 1.414 . S
C1814 C1817 1.499 . S
C1815 H1789 0.950 . S
C1815 C1814 1.414 . S
C1815 C1816 1.374 . S
C1816 H1790 0.950 . S
C1816 C1812 1.385 . S
C1816 C1815 1.374 . S
C1817 C1814 1.499 . S
C1817 C1818 1.373 . S
C1817 C1819 1.389 . S
C1818 H1791 0.950 . S
C1818 C1804 1.377 . S
C1818 C1817 1.373 . S
C1819 C1803 1.377 . S
C1819 C1817 1.389 . S
C1819 C1820 1.524 . S
C1820 C1819 1.524 . S
C1820 C1821 1.397 . S
C1820 C1825 1.363 . S
C1821 H1792 0.950 . S
C1821 C1820 1.397 . S
C1821 C1822 1.334 . S
C1822 H1793 0.950 . S
C1822 C1821 1.334 . S
C1822 C1823 1.287 . S
C1823 C1822 1.287 . S
C1823 C1824 1.524 . S
C1823 H1826 0.999 . S
C1824 H1794 0.950 . S
C1824 C1823 1.524 . S
C1824 C1825 1.415 . S
C1825 H1795 0.950 . S
C1825 C1820 1.363 . S
C1825 C1824 1.415 . S
H1826 C1823 0.999 . S
H1827 C1808 0.913 . S
H1828 C1846 0.951 . S
H1829 C1848 0.951 . S
H1830 C1850 0.950 . S
H1831 C1851 0.950 . S
H1832 C1853 0.950 . S
H1833 C1856 0.950 . S
H1834 C1857 0.950 . S
H1835 C1859 0.950 . S
H1836 C1860 0.950 . S
H1837 C1861 0.951 . S
H1838 C1863 0.951 . S
H1839 C1865 0.950 . S
H1840 C1866 0.950 . S
H1841 C1868 0.950 . S
H1842 C1871 0.950 . S
H1843 C1872 0.950 . S
H1844 C1874 0.950 . S
H1845 C1875 0.950 . S
C1846 H1828 0.951 . S
C1846 C1847 1.366 . S
C1846 C1848 1.388 . S
C1847 C1846 1.366 . S
C1847 C1851 1.385 . S
C1848 H1829 0.951 . S
C1848 C1846 1.388 . S
C1848 C1849 1.366 . S
C1849 C1848 1.366 . S
C1849 C1850 1.414 . S
C1849 C1852 1.499 . S
C1850 H1830 0.950 . S
C1850 C1849 1.414 . S
C1850 C1851 1.374 . S
C1851 H1831 0.950 . S
C1851 C1847 1.385 . S
C1851 C1850 1.374 . S
C1852 C1849 1.499 . S
C1852 C1853 1.373 1_545 S
C1852 C1854 1.389 . S
C1853 H1832 0.950 . S
C1853 C1852 1.373 1_565 S
C1853 C1869 1.377 . S
C1854 C1852 1.389 . S
C1854 C1855 1.524 . S
C1854 C1868 1.377 . S
C1855 C1854 1.524 . S
C1855 C1856 1.397 . S
C1855 C1860 1.363 . S
C1856 H1833 0.950 . S
C1856 C1855 1.397 . S
C1856 C1857 1.334 . S
C1857 H1834 0.950 . S
C1857 C1856 1.334 . S
C1857 C1858 1.287 . S
C1858 C1857 1.287 . S
C1858 C1859 1.524 . S
C1858 H1877 0.913 . S
C1859 H1835 0.950 . S
C1859 C1858 1.524 . S
C1859 C1860 1.415 . S
C1860 H1836 0.950 . S
C1860 C1855 1.363 . S
C1860 C1859 1.415 . S
C1861 H1837 0.951 . S
C1861 C1862 1.366 . S
C1861 C1863 1.388 . S
C1862 C1861 1.366 . S
C1862 C1866 1.385 . S
C1863 H1838 0.951 . S
C1863 C1861 1.388 . S
C1863 C1864 1.366 . S
C1864 C1863 1.366 . S
C1864 C1865 1.414 . S
C1864 C1867 1.499 . S
C1865 H1839 0.950 . S
C1865 C1864 1.414 . S
C1865 C1866 1.374 . S
C1866 H1840 0.950 . S
C1866 C1862 1.385 . S
C1866 C1865 1.374 . S
C1867 C1864 1.499 . S
C1867 C1868 1.373 1_565 S
C1867 C1869 1.389 . S
C1868 H1841 0.950 . S
C1868 C1854 1.377 . S
C1868 C1867 1.373 1_545 S
C1869 C1853 1.377 . S
C1869 C1867 1.389 . S
C1869 C1870 1.524 . S
C1870 C1869 1.524 . S
C1870 C1871 1.397 . S
C1870 C1875 1.363 . S
C1871 H1842 0.950 . S
C1871 C1870 1.397 . S
C1871 C1872 1.334 . S
C1872 H1843 0.950 . S
C1872 C1871 1.334 . S
C1872 C1873 1.287 . S
C1873 C1872 1.287 . S
C1873 C1874 1.524 . S
C1873 H1876 0.999 . S
C1874 H1844 0.950 . S
C1874 C1873 1.524 . S
C1874 C1875 1.415 . S
C1875 H1845 0.950 . S
C1875 C1870 1.363 . S
C1875 C1874 1.415 . S
H1876 C1873 0.999 . S
H1877 C1858 0.913 . S
H1878 C1896 0.951 . S
H1879 C1898 0.951 . S
H1880 C1900 0.950 . S
H1881 C1901 0.950 . S
H1882 C1903 0.950 . S
H1883 C1906 0.950 . S
H1884 C1907 0.950 . S
H1885 C1909 0.950 . S
H1886 C1910 0.950 . S
H1887 C1911 0.951 . S
H1888 C1913 0.951 . S
H1889 C1915 0.950 . S
H1890 C1916 0.950 . S
H1891 C1918 0.950 1_554 S
H1892 C1921 0.950 . S
H1893 C1922 0.950 . S
H1894 C1924 0.950 . S
H1895 C1925 0.950 . S
C1896 H1878 0.951 . S
C1896 C1897 1.366 . S
C1896 C1898 1.388 . S
C1897 C1896 1.366 . S
C1897 C1901 1.385 . S
C1898 H1879 0.951 . S
C1898 C1896 1.388 . S
C1898 C1899 1.366 . S
C1899 C1898 1.366 . S
C1899 C1900 1.414 . S
C1899 C1902 1.499 . S
C1900 H1880 0.950 . S
C1900 C1899 1.414 . S
C1900 C1901 1.374 . S
C1901 H1881 0.950 . S
C1901 C1897 1.385 . S
C1901 C1900 1.374 . S
C1902 C1899 1.499 . S
C1902 C1903 1.373 1_554 S
C1902 C1904 1.389 . S
C1903 H1882 0.950 . S
C1903 C1902 1.373 1_556 S
C1903 C1919 1.377 . S
C1904 C1902 1.389 . S
C1904 C1905 1.524 . S
C1904 C1918 1.377 1_554 S
C1905 C1904 1.524 . S
C1905 C1906 1.397 . S
C1905 C1910 1.363 . S
C1906 H1883 0.950 . S
C1906 C1905 1.397 . S
C1906 C1907 1.334 . S
C1907 H1884 0.950 . S
C1907 C1906 1.334 . S
C1907 C1908 1.287 . S
C1908 C1907 1.287 . S
C1908 C1909 1.524 . S
C1908 H1927 0.913 . S
C1909 H1885 0.950 . S
C1909 C1908 1.524 . S
C1909 C1910 1.415 . S
C1910 H1886 0.950 . S
C1910 C1905 1.363 . S
C1910 C1909 1.415 . S
C1911 H1887 0.951 . S
C1911 C1912 1.366 . S
C1911 C1913 1.388 . S
C1912 C1911 1.366 . S
C1912 C1916 1.385 . S
C1913 H1888 0.951 . S
C1913 C1911 1.388 . S
C1913 C1914 1.366 . S
C1914 C1913 1.366 . S
C1914 C1915 1.414 . S
C1914 C1917 1.499 . S
C1915 H1889 0.950 . S
C1915 C1914 1.414 . S
C1915 C1916 1.374 . S
C1916 H1890 0.950 . S
C1916 C1912 1.385 . S
C1916 C1915 1.374 . S
C1917 C1914 1.499 . S
C1917 C1918 1.373 . S
C1917 C1919 1.389 . S
C1918 H1891 0.950 1_556 S
C1918 C1904 1.377 1_556 S
C1918 C1917 1.373 . S
C1919 C1903 1.377 . S
C1919 C1917 1.389 . S
C1919 C1920 1.524 . S
C1920 C1919 1.524 . S
C1920 C1921 1.397 . S
C1920 C1925 1.363 . S
C1921 H1892 0.950 . S
C1921 C1920 1.397 . S
C1921 C1922 1.334 . S
C1922 H1893 0.950 . S
C1922 C1921 1.334 . S
C1922 C1923 1.287 . S
C1923 C1922 1.287 . S
C1923 C1924 1.524 . S
C1923 H1926 0.999 . S
C1924 H1894 0.950 . S
C1924 C1923 1.524 . S
C1924 C1925 1.415 . S
C1925 H1895 0.950 . S
C1925 C1920 1.363 . S
C1925 C1924 1.415 . S
H1926 C1923 0.999 . S
H1927 C1908 0.913 . S
H1928 C1946 0.951 . S
H1929 C1948 0.951 . S
H1930 C1950 0.950 . S
H1931 C1951 0.950 . S
H1932 C1953 0.950 . S
H1933 C1956 0.915 1_455 S
H1934 C1957 0.927 1_455 S
H1935 C1959 0.950 . S
H1936 C1960 0.950 . S
H1937 C1961 0.951 . S
H1938 C1963 0.951 . S
H1939 C1965 0.950 . S
H1940 C1966 0.950 . S
H1941 C1968 0.950 . S
H1942 C1971 0.950 1_655 S
H1943 C1972 0.950 . S
H1944 C1974 0.950 . S
H1945 C1975 0.950 . S
C1946 H1928 0.951 . S
C1946 C1947 1.366 . S
C1946 C1948 1.388 . S
C1947 C1946 1.366 . S
C1947 C1951 1.385 . S
C1948 H1929 0.951 . S
C1948 C1946 1.388 . S
C1948 C1949 1.366 . S
C1949 C1948 1.366 . S
C1949 C1950 1.414 . S
C1949 C1952 1.499 . S
C1950 H1930 0.950 . S
C1950 C1949 1.414 . S
C1950 C1951 1.374 . S
C1951 H1931 0.950 . S
C1951 C1947 1.385 . S
C1951 C1950 1.374 . S
C1952 C1949 1.499 . S
C1952 C1953 1.373 . S
C1952 C1954 1.389 1_455 S
C1953 H1932 0.950 . S
C1953 C1952 1.373 . S
C1953 C1969 1.377 . S
C1954 C1952 1.389 1_655 S
C1954 C1955 1.524 . S
C1954 C1968 1.377 . S
C1955 C1954 1.524 . S
C1955 C1956 1.421 . S
C1955 C1960 1.363 . S
C1956 H1933 0.915 1_655 S
C1956 C1955 1.421 . S
C1956 C1957 1.346 . S
C1957 H1934 0.927 1_655 S
C1957 C1956 1.346 . S
C1957 C1958 1.287 . S
C1958 C1957 1.287 . S
C1958 C1959 1.524 . S
C1958 H1977 0.913 . S
C1959 H1935 0.950 . S
C1959 C1958 1.524 . S
C1959 C1960 1.415 . S
C1960 H1936 0.950 . S
C1960 C1955 1.363 . S
C1960 C1959 1.415 . S
C1961 H1937 0.951 . S
C1961 C1962 1.366 . S
C1961 C1963 1.388 . S
C1962 C1961 1.366 . S
C1962 C1966 1.385 . S
C1963 H1938 0.951 . S
C1963 C1961 1.388 . S
C1963 C1964 1.366 . S
C1964 C1963 1.366 . S
C1964 C1965 1.414 . S
C1964 C1967 1.499 . S
C1965 H1939 0.950 . S
C1965 C1964 1.414 . S
C1965 C1966 1.374 . S
C1966 H1940 0.950 . S
C1966 C1962 1.385 . S
C1966 C1965 1.374 . S
C1967 C1964 1.499 . S
C1967 C1968 1.373 . S
C1967 C1969 1.389 1_655 S
C1968 H1941 0.950 . S
C1968 C1954 1.377 . S
C1968 C1967 1.373 . S
C1969 C1953 1.377 . S
C1969 C1967 1.389 1_455 S
C1969 C1970 1.524 . S
C1970 C1969 1.524 . S
C1970 C1971 1.397 . S
C1970 C1975 1.363 . S
C1971 H1942 0.950 1_455 S
C1971 C1970 1.397 . S
C1971 C1972 1.334 . S
C1972 H1943 0.950 . S
C1972 C1971 1.334 . S
C1972 C1973 1.287 . S
C1973 C1972 1.287 . S
C1973 C1974 1.524 . S
C1973 H1976 0.999 . S
C1974 H1944 0.950 . S
C1974 C1973 1.524 . S
C1974 C1975 1.415 . S
C1975 H1945 0.950 . S
C1975 C1970 1.363 . S
C1975 C1974 1.415 . S
H1976 C1973 0.999 . S
H1977 C1958 0.913 . S
H1978 C1996 0.951 . S
H1979 C1998 0.951 . S
H1980 C2000 0.950 . S
H1981 C2001 0.950 . S
H1982 C2003 0.950 . S
H1983 C2006 0.950 . S
H1984 C2007 0.950 . S
H1985 C2009 0.950 . S
H1986 C2010 0.950 . S
H1987 C2011 0.951 . S
H1988 C2013 0.951 . S
H1989 C2015 0.950 . S
H1990 C2016 0.950 . S
H1991 C2018 0.950 . S
H1992 C2021 0.950 . S
H1993 C2022 0.950 . S
H1994 C2024 0.950 . S
H1995 C2025 0.950 . S
C1996 H1978 0.951 . S
C1996 C1997 1.366 . S
C1996 C1998 1.388 . S
C1997 C1996 1.366 . S
C1997 C2001 1.385 . S
C1998 H1979 0.951 . S
C1998 C1996 1.388 . S
C1998 C1999 1.366 . S
C1999 C1998 1.366 . S
C1999 C2000 1.414 . S
C1999 C2002 1.499 . S
C2000 H1980 0.950 . S
C2000 C1999 1.414 . S
C2000 C2001 1.374 . S
C2001 H1981 0.950 . S
C2001 C1997 1.385 . S
C2001 C2000 1.374 . S
C2002 C1999 1.499 . S
C2002 C2003 1.373 . S
C2002 C2004 1.389 . S
C2003 H1982 0.950 . S
C2003 C2002 1.373 . S
C2003 C2019 1.377 . S
C2004 C2002 1.389 . S
C2004 C2005 1.524 . S
C2004 C2018 1.377 . S
C2005 C2004 1.524 . S
C2005 C2006 1.397 . S
C2005 C2010 1.363 . S
C2006 H1983 0.950 . S
C2006 C2005 1.397 . S
C2006 C2007 1.334 . S
C2007 H1984 0.950 . S
C2007 C2006 1.334 . S
C2007 C2008 1.287 . S
C2008 C2007 1.287 . S
C2008 C2009 1.524 . S
C2008 H2027 0.913 . S
C2009 H1985 0.950 . S
C2009 C2008 1.524 . S
C2009 C2010 1.415 . S
C2010 H1986 0.950 . S
C2010 C2005 1.363 . S
C2010 C2009 1.415 . S
C2011 H1987 0.951 . S
C2011 C2012 1.366 . S
C2011 C2013 1.388 . S
C2012 C2011 1.366 . S
C2012 C2016 1.385 . S
C2013 H1988 0.951 . S
C2013 C2011 1.388 . S
C2013 C2014 1.366 . S
C2014 C2013 1.366 . S
C2014 C2015 1.414 . S
C2014 C2017 1.499 . S
C2015 H1989 0.950 . S
C2015 C2014 1.414 . S
C2015 C2016 1.374 . S
C2016 H1990 0.950 . S
C2016 C2012 1.385 . S
C2016 C2015 1.374 . S
C2017 C2014 1.499 . S
C2017 C2018 1.373 . S
C2017 C2019 1.389 . S
C2018 H1991 0.950 . S
C2018 C2004 1.377 . S
C2018 C2017 1.373 . S
C2019 C2003 1.377 . S
C2019 C2017 1.389 . S
C2019 C2020 1.524 . S
C2020 C2019 1.524 . S
C2020 C2021 1.397 . S
C2020 C2025 1.363 . S
C2021 H1992 0.950 . S
C2021 C2020 1.397 . S
C2021 C2022 1.334 . S
C2022 H1993 0.950 . S
C2022 C2021 1.334 . S
C2022 C2023 1.287 . S
C2023 C2022 1.287 . S
C2023 C2024 1.524 . S
C2023 H2026 0.999 . S
C2024 H1994 0.950 . S
C2024 C2023 1.524 . S
C2024 C2025 1.415 . S
C2025 H1995 0.950 . S
C2025 C2020 1.363 . S
C2025 C2024 1.415 . S
H2026 C2023 0.999 . S
H2027 C2008 0.913 . S
H2028 C2046 0.951 . S
H2029 C2048 0.951 . S
H2030 C2050 0.950 . S
H2031 C2051 0.950 . S
H2032 C2053 0.965 . S
H2033 C2056 0.952 . S
H2034 C2057 0.950 . S
H2035 C2059 0.950 . S
H2036 C2060 0.950 . S
H2037 C2061 0.951 . S
H2038 C2063 0.951 . S
H2039 C2065 0.950 . S
H2040 C2066 0.950 . S
H2041 C2068 0.950 . S
H2042 C2071 0.950 . S
H2043 C2072 0.950 . S
H2044 C2074 0.950 . S
H2045 C2075 0.950 . S
C2046 H2028 0.951 . S
C2046 C2047 1.366 . S
C2046 C2048 1.388 . S
C2047 C2046 1.366 . S
C2047 C2051 1.385 . S
C2048 H2029 0.951 . S
C2048 C2046 1.388 . S
C2048 C2049 1.366 . S
C2049 C2048 1.366 . S
C2049 C2050 1.414 . S
C2049 C2052 1.499 . S
C2050 H2030 0.950 . S
C2050 C2049 1.414 . S
C2050 C2051 1.374 . S
C2051 H2031 0.950 . S
C2051 C2047 1.385 . S
C2051 C2050 1.374 . S
C2052 C2049 1.499 . S
C2052 C2053 1.383 . S
C2052 C2054 1.389 1_655 S
C2053 H2032 0.965 . S
C2053 C2052 1.383 . S
C2053 C2069 1.354 1_655 S
C2054 C2052 1.389 1_455 S
C2054 C2055 1.524 1_455 S
C2054 C2068 1.377 . S
C2055 C2054 1.524 1_655 S
C2055 C2056 1.395 1_655 S
C2055 C2060 1.363 . S
C2056 H2033 0.952 . S
C2056 C2055 1.395 1_455 S
C2056 C2057 1.333 1_455 S
C2057 H2034 0.950 . S
C2057 C2056 1.333 1_655 S
C2057 C2058 1.287 . S
C2058 C2057 1.287 . S
C2058 C2059 1.524 . S
C2058 H2077 0.913 . S
C2059 H2035 0.950 . S
C2059 C2058 1.524 . S
C2059 C2060 1.415 . S
C2060 H2036 0.950 . S
C2060 C2055 1.363 . S
C2060 C2059 1.415 . S
C2061 H2037 0.951 . S
C2061 C2062 1.366 . S
C2061 C2063 1.388 . S
C2062 C2061 1.366 . S
C2062 C2066 1.385 . S
C2063 H2038 0.951 . S
C2063 C2061 1.388 . S
C2063 C2064 1.366 . S
C2064 C2063 1.366 . S
C2064 C2065 1.414 . S
C2064 C2067 1.499 . S
C2065 H2039 0.950 . S
C2065 C2064 1.414 . S
C2065 C2066 1.374 . S
C2066 H2040 0.950 . S
C2066 C2062 1.385 . S
C2066 C2065 1.374 . S
C2067 C2064 1.499 . S
C2067 C2068 1.373 . S
C2067 C2069 1.389 . S
C2068 H2041 0.950 . S
C2068 C2054 1.377 . S
C2068 C2067 1.373 . S
C2069 C2053 1.354 1_455 S
C2069 C2067 1.389 . S
C2069 C2070 1.524 . S
C2070 C2069 1.524 . S
C2070 C2071 1.397 . S
C2070 C2075 1.363 . S
C2071 H2042 0.950 . S
C2071 C2070 1.397 . S
C2071 C2072 1.334 . S
C2072 H2043 0.950 . S
C2072 C2071 1.334 . S
C2072 C2073 1.287 . S
C2073 C2072 1.287 . S
C2073 C2074 1.524 . S
C2073 H2076 0.999 . S
C2074 H2044 0.950 . S
C2074 C2073 1.524 . S
C2074 C2075 1.415 . S
C2075 H2045 0.950 . S
C2075 C2070 1.363 . S
C2075 C2074 1.415 . S
H2076 C2073 0.999 . S
H2077 C2058 0.913 . S
H2078 C2096 0.951 . S
H2079 C2098 0.951 . S
H2080 C2100 0.950 . S
H2081 C2101 0.950 . S
H2082 C2103 0.950 . S
H2083 C2106 0.950 . S
H2084 C2107 0.950 . S
H2085 C2109 0.950 . S
H2086 C2110 0.950 . S
H2087 C2111 0.951 . S
H2088 C2113 0.951 . S
H2089 C2115 0.950 . S
H2090 C2116 0.950 . S
H2091 C2118 0.950 . S
H2092 C2121 0.950 . S
H2093 C2122 0.950 . S
H2094 C2124 0.950 . S
H2095 C2125 0.950 . S
C2096 H2078 0.951 . S
C2096 C2097 1.366 . S
C2096 C2098 1.388 . S
C2097 C2096 1.366 . S
C2097 C2101 1.385 . S
C2098 H2079 0.951 . S
C2098 C2096 1.388 . S
C2098 C2099 1.366 . S
C2099 C2098 1.366 . S
C2099 C2100 1.414 . S
C2099 C2102 1.499 . S
C2100 H2080 0.950 . S
C2100 C2099 1.414 . S
C2100 C2101 1.374 . S
C2101 H2081 0.950 . S
C2101 C2097 1.385 . S
C2101 C2100 1.374 . S
C2102 C2099 1.499 . S
C2102 C2103 1.373 . S
C2102 C2104 1.389 . S
C2103 H2082 0.950 . S
C2103 C2102 1.373 . S
C2103 C2119 1.377 . S
C2104 C2102 1.389 . S
C2104 C2105 1.524 . S
C2104 C2118 1.377 . S
C2105 C2104 1.524 . S
C2105 C2106 1.397 . S
C2105 C2110 1.363 . S
C2106 H2083 0.950 . S
C2106 C2105 1.397 . S
C2106 C2107 1.334 . S
C2107 H2084 0.950 . S
C2107 C2106 1.334 . S
C2107 C2108 1.287 . S
C2108 C2107 1.287 . S
C2108 C2109 1.524 . S
C2108 H2127 0.913 . S
C2109 H2085 0.950 . S
C2109 C2108 1.524 . S
C2109 C2110 1.415 . S
C2110 H2086 0.950 . S
C2110 C2105 1.363 . S
C2110 C2109 1.415 . S
C2111 H2087 0.951 . S
C2111 C2112 1.366 . S
C2111 C2113 1.388 . S
C2112 C2111 1.366 . S
C2112 C2116 1.385 . S
C2113 H2088 0.951 . S
C2113 C2111 1.388 . S
C2113 C2114 1.366 . S
C2114 C2113 1.366 . S
C2114 C2115 1.414 . S
C2114 C2117 1.499 . S
C2115 H2089 0.950 . S
C2115 C2114 1.414 . S
C2115 C2116 1.374 . S
C2116 H2090 0.950 . S
C2116 C2112 1.385 . S
C2116 C2115 1.374 . S
C2117 C2114 1.499 . S
C2117 C2118 1.373 . S
C2117 C2119 1.389 . S
C2118 H2091 0.950 . S
C2118 C2104 1.377 . S
C2118 C2117 1.373 . S
C2119 C2103 1.377 . S
C2119 C2117 1.389 . S
C2119 C2120 1.524 . S
C2120 C2119 1.524 . S
C2120 C2121 1.397 . S
C2120 C2125 1.363 . S
C2121 H2092 0.950 . S
C2121 C2120 1.397 . S
C2121 C2122 1.334 . S
C2122 H2093 0.950 . S
C2122 C2121 1.334 . S
C2122 C2123 1.287 . S
C2123 C2122 1.287 . S
C2123 C2124 1.524 . S
C2123 H2126 0.999 . S
C2124 H2094 0.950 . S
C2124 C2123 1.524 . S
C2124 C2125 1.415 . S
C2125 H2095 0.950 . S
C2125 C2120 1.363 . S
C2125 C2124 1.415 . S
H2126 C2123 0.999 . S
H2127 C2108 0.913 . S
H2128 C2146 0.951 . S
H2129 C2148 0.951 . S
H2130 C2150 0.950 . S
H2131 C2151 0.950 . S
H2132 C2153 0.950 . S
H2133 C2156 0.950 . S
H2134 C2157 0.950 . S
H2135 C2159 0.950 . S
H2136 C2160 0.950 . S
H2137 C2161 0.951 . S
H2138 C2163 0.951 . S
H2139 C2165 0.950 . S
H2140 C2166 0.950 . S
H2141 C2168 0.950 . S
H2142 C2171 0.950 . S
H2143 C2172 0.950 . S
H2144 C2174 0.950 . S
H2145 C2175 0.950 . S
C2146 H2128 0.951 . S
C2146 C2147 1.366 . S
C2146 C2148 1.388 . S
C2147 C2146 1.366 . S
C2147 C2151 1.385 . S
C2148 H2129 0.951 . S
C2148 C2146 1.388 . S
C2148 C2149 1.366 . S
C2149 C2148 1.366 . S
C2149 C2150 1.414 . S
C2149 C2152 1.499 . S
C2150 H2130 0.950 . S
C2150 C2149 1.414 . S
C2150 C2151 1.374 . S
C2151 H2131 0.950 . S
C2151 C2147 1.385 . S
C2151 C2150 1.374 . S
C2152 C2149 1.499 . S
C2152 C2153 1.373 . S
C2152 C2154 1.389 . S
C2153 H2132 0.950 . S
C2153 C2152 1.373 . S
C2153 C2169 1.377 . S
C2154 C2152 1.389 . S
C2154 C2155 1.524 . S
C2154 C2168 1.377 . S
C2155 C2154 1.524 . S
C2155 C2156 1.397 . S
C2155 C2160 1.363 . S
C2156 H2133 0.950 . S
C2156 C2155 1.397 . S
C2156 C2157 1.334 . S
C2157 H2134 0.950 . S
C2157 C2156 1.334 . S
C2157 C2158 1.287 . S
C2158 C2157 1.287 . S
C2158 C2159 1.524 . S
C2158 H2177 0.913 . S
C2159 H2135 0.950 . S
C2159 C2158 1.524 . S
C2159 C2160 1.415 . S
C2160 H2136 0.950 . S
C2160 C2155 1.363 . S
C2160 C2159 1.415 . S
C2161 H2137 0.951 . S
C2161 C2162 1.366 . S
C2161 C2163 1.388 . S
C2162 C2161 1.366 . S
C2162 C2166 1.385 . S
C2163 H2138 0.951 . S
C2163 C2161 1.388 . S
C2163 C2164 1.366 . S
C2164 C2163 1.366 . S
C2164 C2165 1.414 . S
C2164 C2167 1.499 . S
C2165 H2139 0.950 . S
C2165 C2164 1.414 . S
C2165 C2166 1.374 . S
C2166 H2140 0.950 . S
C2166 C2162 1.385 . S
C2166 C2165 1.374 . S
C2167 C2164 1.499 . S
C2167 C2168 1.373 . S
C2167 C2169 1.389 . S
C2168 H2141 0.950 . S
C2168 C2154 1.377 . S
C2168 C2167 1.373 . S
C2169 C2153 1.377 . S
C2169 C2167 1.389 . S
C2169 C2170 1.524 . S
C2170 C2169 1.524 . S
C2170 C2171 1.397 . S
C2170 C2175 1.363 . S
C2171 H2142 0.950 . S
C2171 C2170 1.397 . S
C2171 C2172 1.334 . S
C2172 H2143 0.950 . S
C2172 C2171 1.334 . S
C2172 C2173 1.287 . S
C2173 C2172 1.287 . S
C2173 C2174 1.524 . S
C2173 H2176 0.999 . S
C2174 H2144 0.950 . S
C2174 C2173 1.524 . S
C2174 C2175 1.415 . S
C2175 H2145 0.950 . S
C2175 C2170 1.363 . S
C2175 C2174 1.415 . S
H2176 C2173 0.999 . S
H2177 C2158 0.913 . S
H2178 C2196 0.951 . S
H2179 C2198 0.951 . S
H2180 C2200 0.950 . S
H2181 C2201 0.950 . S
H2182 C2203 0.950 . S
H2183 C2206 0.950 . S
H2184 C2207 0.950 . S
H2185 C2209 0.950 . S
H2186 C2210 0.950 . S
H2187 C2211 0.951 . S
H2188 C2213 0.951 . S
H2189 C2215 0.950 . S
H2190 C2216 0.950 . S
H2191 C2218 0.950 . S
H2192 C2221 0.950 . S
H2193 C2222 0.950 . S
H2194 C2224 0.950 . S
H2195 C2225 0.950 . S
C2196 H2178 0.951 . S
C2196 C2197 1.366 . S
C2196 C2198 1.388 . S
C2197 C2196 1.366 . S
C2197 C2201 1.385 . S
C2198 H2179 0.951 . S
C2198 C2196 1.388 . S
C2198 C2199 1.366 . S
C2199 C2198 1.366 . S
C2199 C2200 1.414 . S
C2199 C2202 1.499 . S
C2200 H2180 0.950 . S
C2200 C2199 1.414 . S
C2200 C2201 1.374 . S
C2201 H2181 0.950 . S
C2201 C2197 1.385 . S
C2201 C2200 1.374 . S
C2202 C2199 1.499 . S
C2202 C2203 1.373 . S
C2202 C2204 1.389 . S
C2203 H2182 0.950 . S
C2203 C2202 1.373 . S
C2203 C2219 1.377 1_556 S
C2204 C2202 1.389 . S
C2204 C2205 1.524 . S
C2204 C2218 1.377 . S
C2205 C2204 1.524 . S
C2205 C2206 1.397 . S
C2205 C2210 1.363 . S
C2206 H2183 0.950 . S
C2206 C2205 1.397 . S
C2206 C2207 1.334 . S
C2207 H2184 0.950 . S
C2207 C2206 1.334 . S
C2207 C2208 1.287 . S
C2208 C2207 1.287 . S
C2208 C2209 1.524 . S
C2208 H2227 0.913 . S
C2209 H2185 0.950 . S
C2209 C2208 1.524 . S
C2209 C2210 1.415 . S
C2210 H2186 0.950 . S
C2210 C2205 1.363 . S
C2210 C2209 1.415 . S
C2211 H2187 0.951 . S
C2211 C2212 1.366 . S
C2211 C2213 1.388 . S
C2212 C2211 1.366 . S
C2212 C2216 1.385 . S
C2213 H2188 0.951 . S
C2213 C2211 1.388 . S
C2213 C2214 1.366 . S
C2214 C2213 1.366 . S
C2214 C2215 1.414 . S
C2214 C2217 1.499 . S
C2215 H2189 0.950 . S
C2215 C2214 1.414 . S
C2215 C2216 1.374 . S
C2216 H2190 0.950 . S
C2216 C2212 1.385 . S
C2216 C2215 1.374 . S
C2217 C2214 1.499 . S
C2217 C2218 1.373 1_554 S
C2217 C2219 1.389 . S
C2218 H2191 0.950 . S
C2218 C2204 1.377 . S
C2218 C2217 1.373 1_556 S
C2219 C2203 1.377 1_554 S
C2219 C2217 1.389 . S
C2219 C2220 1.524 . S
C2220 C2219 1.524 . S
C2220 C2221 1.397 . S
C2220 C2225 1.363 . S
C2221 H2192 0.950 . S
C2221 C2220 1.397 . S
C2221 C2222 1.334 . S
C2222 H2193 0.950 . S
C2222 C2221 1.334 . S
C2222 C2223 1.287 . S
C2223 C2222 1.287 . S
C2223 C2224 1.524 . S
C2223 H2226 0.999 . S
C2224 H2194 0.950 . S
C2224 C2223 1.524 . S
C2224 C2225 1.415 . S
C2225 H2195 0.950 . S
C2225 C2220 1.363 . S
C2225 C2224 1.415 . S
H2226 C2223 0.999 . S
H2227 C2208 0.913 . S
H2228 C2246 0.951 . S
H2229 C2248 0.951 . S
H2230 C2250 0.950 . S
H2231 C2251 0.950 . S
H2232 C2253 0.950 . S
H2233 C2256 0.950 . S
H2234 C2257 0.950 . S
H2235 C2259 0.950 . S
H2236 C2260 0.950 . S
H2237 C2261 0.951 . S
H2238 C2263 0.951 . S
H2239 C2265 0.950 . S
H2240 C2266 0.950 . S
H2241 C2268 0.950 . S
H2242 C2271 0.950 . S
H2243 C2272 0.950 . S
H2244 C2274 0.950 . S
H2245 C2275 0.950 . S
C2246 H2228 0.951 . S
C2246 C2247 1.366 . S
C2246 C2248 1.388 . S
C2247 C2246 1.366 . S
C2247 C2251 1.385 . S
C2248 H2229 0.951 . S
C2248 C2246 1.388 . S
C2248 C2249 1.366 . S
C2249 C2248 1.366 . S
C2249 C2250 1.414 . S
C2249 C2252 1.499 . S
C2250 H2230 0.950 . S
C2250 C2249 1.414 . S
C2250 C2251 1.374 . S
C2251 H2231 0.950 . S
C2251 C2247 1.385 . S
C2251 C2250 1.374 . S
C2252 C2249 1.499 . S
C2252 C2253 1.373 . S
C2252 C2254 1.389 . S
C2253 H2232 0.950 . S
C2253 C2252 1.373 . S
C2253 C2269 1.377 . S
C2254 C2252 1.389 . S
C2254 C2255 1.524 . S
C2254 C2268 1.377 . S
C2255 C2254 1.524 . S
C2255 C2256 1.397 . S
C2255 C2260 1.363 . S
C2256 H2233 0.950 . S
C2256 C2255 1.397 . S
C2256 C2257 1.334 . S
C2257 H2234 0.950 . S
C2257 C2256 1.334 . S
C2257 C2258 1.287 . S
C2258 C2257 1.287 . S
C2258 C2259 1.524 . S
C2258 H2277 0.913 . S
C2259 H2235 0.950 . S
C2259 C2258 1.524 . S
C2259 C2260 1.415 . S
C2260 H2236 0.950 . S
C2260 C2255 1.363 . S
C2260 C2259 1.415 . S
C2261 H2237 0.951 . S
C2261 C2262 1.366 . S
C2261 C2263 1.388 . S
C2262 C2261 1.366 . S
C2262 C2266 1.385 . S
C2263 H2238 0.951 . S
C2263 C2261 1.388 . S
C2263 C2264 1.366 . S
C2264 C2263 1.366 . S
C2264 C2265 1.414 . S
C2264 C2267 1.499 . S
C2265 H2239 0.950 . S
C2265 C2264 1.414 . S
C2265 C2266 1.374 . S
C2266 H2240 0.950 . S
C2266 C2262 1.385 . S
C2266 C2265 1.374 . S
C2267 C2264 1.499 . S
C2267 C2268 1.373 . S
C2267 C2269 1.389 . S
C2268 H2241 0.950 . S
C2268 C2254 1.377 . S
C2268 C2267 1.373 . S
C2269 C2253 1.377 . S
C2269 C2267 1.389 . S
C2269 C2270 1.524 . S
C2270 C2269 1.524 . S
C2270 C2271 1.397 . S
C2270 C2275 1.363 . S
C2271 H2242 0.950 . S
C2271 C2270 1.397 . S
C2271 C2272 1.334 . S
C2272 H2243 0.950 . S
C2272 C2271 1.334 . S
C2272 C2273 1.287 . S
C2273 C2272 1.287 . S
C2273 C2274 1.524 . S
C2273 H2276 0.999 . S
C2274 H2244 0.950 . S
C2274 C2273 1.524 . S
C2274 C2275 1.415 . S
C2275 H2245 0.950 . S
C2275 C2270 1.363 . S
C2275 C2274 1.415 . S
H2276 C2273 0.999 . S
H2277 C2258 0.913 . S
H2278 C2296 0.951 . S
H2279 C2298 0.951 . S
H2280 C2300 0.950 . S
H2281 C2301 0.950 . S
H2282 C2303 0.950 . S
H2283 C2306 0.950 . S
H2284 C2307 0.950 . S
H2285 C2309 0.950 . S
H2286 C2310 0.950 . S
H2287 C2311 0.951 . S
H2288 C2313 0.951 . S
H2289 C2315 0.950 . S
H2290 C2316 0.950 . S
H2291 C2318 0.950 . S
H2292 C2321 0.950 . S
H2293 C2322 0.950 . S
H2294 C2324 0.950 . S
H2295 C2325 0.950 . S
C2296 H2278 0.951 . S
C2296 C2297 1.366 . S
C2296 C2298 1.388 . S
C2297 C2296 1.366 . S
C2297 C2301 1.385 . S
C2298 H2279 0.951 . S
C2298 C2296 1.388 . S
C2298 C2299 1.366 . S
C2299 C2298 1.366 . S
C2299 C2300 1.414 . S
C2299 C2302 1.499 . S
C2300 H2280 0.950 . S
C2300 C2299 1.414 . S
C2300 C2301 1.374 . S
C2301 H2281 0.950 . S
C2301 C2297 1.385 . S
C2301 C2300 1.374 . S
C2302 C2299 1.499 . S
C2302 C2303 1.373 . S
C2302 C2304 1.389 . S
C2303 H2282 0.950 . S
C2303 C2302 1.373 . S
C2303 C2319 1.377 . S
C2304 C2302 1.389 . S
C2304 C2305 1.524 . S
C2304 C2318 1.377 . S
C2305 C2304 1.524 . S
C2305 C2306 1.397 . S
C2305 C2310 1.363 . S
C2306 H2283 0.950 . S
C2306 C2305 1.397 . S
C2306 C2307 1.334 . S
C2307 H2284 0.950 . S
C2307 C2306 1.334 . S
C2307 C2308 1.287 . S
C2308 C2307 1.287 . S
C2308 C2309 1.524 . S
C2308 H2327 0.913 . S
C2309 H2285 0.950 . S
C2309 C2308 1.524 . S
C2309 C2310 1.415 . S
C2310 H2286 0.950 . S
C2310 C2305 1.363 . S
C2310 C2309 1.415 . S
C2311 H2287 0.951 . S
C2311 C2312 1.366 . S
C2311 C2313 1.388 . S
C2312 C2311 1.366 . S
C2312 C2316 1.385 . S
C2313 H2288 0.951 . S
C2313 C2311 1.388 . S
C2313 C2314 1.366 . S
C2314 C2313 1.366 . S
C2314 C2315 1.414 . S
C2314 C2317 1.499 . S
C2315 H2289 0.950 . S
C2315 C2314 1.414 . S
C2315 C2316 1.374 . S
C2316 H2290 0.950 . S
C2316 C2312 1.385 . S
C2316 C2315 1.374 . S
C2317 C2314 1.499 . S
C2317 C2318 1.373 . S
C2317 C2319 1.389 . S
C2318 H2291 0.950 . S
C2318 C2304 1.377 . S
C2318 C2317 1.373 . S
C2319 C2303 1.377 . S
C2319 C2317 1.389 . S
C2319 C2320 1.524 . S
C2320 C2319 1.524 . S
C2320 C2321 1.397 . S
C2320 C2325 1.363 . S
C2321 H2292 0.950 . S
C2321 C2320 1.397 . S
C2321 C2322 1.334 . S
C2322 H2293 0.950 . S
C2322 C2321 1.334 . S
C2322 C2323 1.287 . S
C2323 C2322 1.287 . S
C2323 C2324 1.524 . S
C2323 H2326 0.999 . S
C2324 H2294 0.950 . S
C2324 C2323 1.524 . S
C2324 C2325 1.415 . S
C2325 H2295 0.950 . S
C2325 C2320 1.363 . S
C2325 C2324 1.415 . S
H2326 C2323 0.999 . S
H2327 C2308 0.913 . S
H2328 C2346 0.951 . S
H2329 C2348 0.951 . S
H2330 C2350 0.950 . S
H2331 C2351 0.950 . S
H2332 C2353 0.950 . S
H2333 C2356 0.950 . S
H2334 C2357 0.950 . S
H2335 C2359 0.950 . S
H2336 C2360 0.950 . S
H2337 C2361 0.951 . S
H2338 C2363 0.951 . S
H2339 C2365 0.950 . S
H2340 C2366 0.950 . S
H2341 C2368 0.950 . S
H2342 C2371 0.950 . S
H2343 C2372 0.950 . S
H2344 C2374 0.950 . S
H2345 C2375 0.950 . S
C2346 H2328 0.951 . S
C2346 C2347 1.366 . S
C2346 C2348 1.388 . S
C2347 C2346 1.366 . S
C2347 C2351 1.385 . S
C2348 H2329 0.951 . S
C2348 C2346 1.388 . S
C2348 C2349 1.366 . S
C2349 C2348 1.366 . S
C2349 C2350 1.414 . S
C2349 C2352 1.499 . S
C2350 H2330 0.950 . S
C2350 C2349 1.414 . S
C2350 C2351 1.374 . S
C2351 H2331 0.950 . S
C2351 C2347 1.385 . S
C2351 C2350 1.374 . S
C2352 C2349 1.499 . S
C2352 C2353 1.373 . S
C2352 C2354 1.389 . S
C2353 H2332 0.950 . S
C2353 C2352 1.373 . S
C2353 C2369 1.377 . S
C2354 C2352 1.389 . S
C2354 C2355 1.524 . S
C2354 C2368 1.377 . S
C2355 C2354 1.524 . S
C2355 C2356 1.397 . S
C2355 C2360 1.363 . S
C2356 H2333 0.950 . S
C2356 C2355 1.397 . S
C2356 C2357 1.334 . S
C2357 H2334 0.950 . S
C2357 C2356 1.334 . S
C2357 C2358 1.287 . S
C2358 C2357 1.287 . S
C2358 C2359 1.524 . S
C2358 H2377 0.913 . S
C2359 H2335 0.950 . S
C2359 C2358 1.524 . S
C2359 C2360 1.415 . S
C2360 H2336 0.950 . S
C2360 C2355 1.363 . S
C2360 C2359 1.415 . S
C2361 H2337 0.951 . S
C2361 C2362 1.366 . S
C2361 C2363 1.388 . S
C2362 C2361 1.366 . S
C2362 C2366 1.385 . S
C2363 H2338 0.951 . S
C2363 C2361 1.388 . S
C2363 C2364 1.366 . S
C2364 C2363 1.366 . S
C2364 C2365 1.414 . S
C2364 C2367 1.499 . S
C2365 H2339 0.950 . S
C2365 C2364 1.414 . S
C2365 C2366 1.374 . S
C2366 H2340 0.950 . S
C2366 C2362 1.385 . S
C2366 C2365 1.374 . S
C2367 C2364 1.499 . S
C2367 C2368 1.373 . S
C2367 C2369 1.389 . S
C2368 H2341 0.950 . S
C2368 C2354 1.377 . S
C2368 C2367 1.373 . S
C2369 C2353 1.377 . S
C2369 C2367 1.389 . S
C2369 C2370 1.524 . S
C2370 C2369 1.524 . S
C2370 C2371 1.397 . S
C2370 C2375 1.363 . S
C2371 H2342 0.950 . S
C2371 C2370 1.397 . S
C2371 C2372 1.334 . S
C2372 H2343 0.950 . S
C2372 C2371 1.334 . S
C2372 C2373 1.287 . S
C2373 C2372 1.287 . S
C2373 C2374 1.524 . S
C2373 H2376 0.999 . S
C2374 H2344 0.950 . S
C2374 C2373 1.524 . S
C2374 C2375 1.415 . S
C2375 H2345 0.950 . S
C2375 C2370 1.363 . S
C2375 C2374 1.415 . S
H2376 C2373 0.999 . S
H2377 C2358 0.913 . S
H2378 C2396 0.951 . S
H2379 C2398 0.951 . S
H2380 C2400 0.950 . S
H2381 C2401 0.950 . S
H2382 C2403 0.950 . S
H2383 C2406 0.950 . S
H2384 C2407 0.950 . S
H2385 C2409 0.950 . S
H2386 C2410 0.950 . S
H2387 C2411 0.951 . S
H2388 C2413 0.951 . S
H2389 C2415 0.950 . S
H2390 C2416 0.950 . S
H2391 C2418 0.950 . S
H2392 C2421 0.950 . S
H2393 C2422 0.950 . S
H2394 C2424 0.950 . S
H2395 C2425 0.950 . S
C2396 H2378 0.951 . S
C2396 C2397 1.366 . S
C2396 C2398 1.388 . S
C2397 C2396 1.366 . S
C2397 C2401 1.385 . S
C2398 H2379 0.951 . S
C2398 C2396 1.388 . S
C2398 C2399 1.366 . S
C2399 C2398 1.366 . S
C2399 C2400 1.414 . S
C2399 C2402 1.499 . S
C2400 H2380 0.950 . S
C2400 C2399 1.414 . S
C2400 C2401 1.374 . S
C2401 H2381 0.950 . S
C2401 C2397 1.385 . S
C2401 C2400 1.374 . S
C2402 C2399 1.499 . S
C2402 C2403 1.373 . S
C2402 C2404 1.376 1_556 S
C2403 H2382 0.950 . S
C2403 C2402 1.373 . S
C2403 C2419 1.377 1_556 S
C2404 C2402 1.376 1_554 S
C2404 C2405 1.522 1_554 S
C2404 C2418 1.395 . S
C2405 C2404 1.522 1_556 S
C2405 C2406 1.397 1_556 S
C2405 C2410 1.363 . S
C2406 H2383 0.950 . S
C2406 C2405 1.397 1_554 S
C2406 C2407 1.334 . S
C2407 H2384 0.950 . S
C2407 C2406 1.334 . S
C2407 C2408 1.287 1_554 S
C2408 C2407 1.287 1_556 S
C2408 C2409 1.524 . S
C2408 H2427 0.913 . S
C2409 H2385 0.950 . S
C2409 C2408 1.524 . S
C2409 C2410 1.415 . S
C2410 H2386 0.950 . S
C2410 C2405 1.363 . S
C2410 C2409 1.415 . S
C2411 H2387 0.951 . S
C2411 C2412 1.366 . S
C2411 C2413 1.388 . S
C2412 C2411 1.366 . S
C2412 C2416 1.385 . S
C2413 H2388 0.951 . S
C2413 C2411 1.388 . S
C2413 C2414 1.366 . S
C2414 C2413 1.366 . S
C2414 C2415 1.414 . S
C2414 C2417 1.499 . S
C2415 H2389 0.950 . S
C2415 C2414 1.414 . S
C2415 C2416 1.374 . S
C2416 H2390 0.950 . S
C2416 C2412 1.385 . S
C2416 C2415 1.374 . S
C2417 C2414 1.499 . S
C2417 C2418 1.373 . S
C2417 C2419 1.389 . S
C2418 H2391 0.950 . S
C2418 C2404 1.395 . S
C2418 C2417 1.373 . S
C2419 C2403 1.377 1_554 S
C2419 C2417 1.389 . S
C2419 C2420 1.524 . S
C2420 C2419 1.524 . S
C2420 C2421 1.397 . S
C2420 C2425 1.363 . S
C2421 H2392 0.950 . S
C2421 C2420 1.397 . S
C2421 C2422 1.334 . S
C2422 H2393 0.950 . S
C2422 C2421 1.334 . S
C2422 C2423 1.287 . S
C2423 C2422 1.287 . S
C2423 C2424 1.524 . S
C2423 H2426 0.999 . S
C2424 H2394 0.950 . S
C2424 C2423 1.524 . S
C2424 C2425 1.415 . S
C2425 H2395 0.950 . S
C2425 C2420 1.363 . S
C2425 C2424 1.415 . S
H2426 C2423 0.999 . S
H2427 C2408 0.913 . S
H2428 C2446 0.951 . S
H2429 C2448 0.951 . S
H2430 C2450 0.950 . S
H2431 C2451 0.950 . S
H2432 C2453 0.950 . S
H2433 C2456 0.950 . S
H2434 C2457 0.950 . S
H2435 C2459 0.950 . S
H2436 C2460 0.950 . S
H2437 C2461 0.951 . S
H2438 C2463 0.951 . S
H2439 C2465 0.950 . S
H2440 C2466 0.950 . S
H2441 C2468 0.950 . S
H2442 C2471 0.950 . S
H2443 C2472 0.950 . S
H2444 C2474 0.950 . S
H2445 C2475 0.950 . S
C2446 H2428 0.951 . S
C2446 C2447 1.366 . S
C2446 C2448 1.388 . S
C2447 C2446 1.366 . S
C2447 C2451 1.385 . S
C2448 H2429 0.951 . S
C2448 C2446 1.388 . S
C2448 C2449 1.366 . S
C2449 C2448 1.366 . S
C2449 C2450 1.414 . S
C2449 C2452 1.499 . S
C2450 H2430 0.950 . S
C2450 C2449 1.414 . S
C2450 C2451 1.374 . S
C2451 H2431 0.950 . S
C2451 C2447 1.385 . S
C2451 C2450 1.374 . S
C2452 C2449 1.499 . S
C2452 C2453 1.373 . S
C2452 C2454 1.389 . S
C2453 H2432 0.950 . S
C2453 C2452 1.373 . S
C2453 C2469 1.377 . S
C2454 C2452 1.389 . S
C2454 C2455 1.524 . S
C2454 C2468 1.377 . S
C2455 C2454 1.524 . S
C2455 C2456 1.397 . S
C2455 C2460 1.363 . S
C2456 H2433 0.950 . S
C2456 C2455 1.397 . S
C2456 C2457 1.334 . S
C2457 H2434 0.950 . S
C2457 C2456 1.334 . S
C2457 C2458 1.287 . S
C2458 C2457 1.287 . S
C2458 C2459 1.524 . S
C2458 H2477 0.913 . S
C2459 H2435 0.950 . S
C2459 C2458 1.524 . S
C2459 C2460 1.415 . S
C2460 H2436 0.950 . S
C2460 C2455 1.363 . S
C2460 C2459 1.415 . S
C2461 H2437 0.951 . S
C2461 C2462 1.366 . S
C2461 C2463 1.388 . S
C2462 C2461 1.366 . S
C2462 C2466 1.385 . S
C2463 H2438 0.951 . S
C2463 C2461 1.388 . S
C2463 C2464 1.366 . S
C2464 C2463 1.366 . S
C2464 C2465 1.414 . S
C2464 C2467 1.499 . S
C2465 H2439 0.950 . S
C2465 C2464 1.414 . S
C2465 C2466 1.374 . S
C2466 H2440 0.950 . S
C2466 C2462 1.385 . S
C2466 C2465 1.374 . S
C2467 C2464 1.499 . S
C2467 C2468 1.373 . S
C2467 C2469 1.389 . S
C2468 H2441 0.950 . S
C2468 C2454 1.377 . S
C2468 C2467 1.373 . S
C2469 C2453 1.377 . S
C2469 C2467 1.389 . S
C2469 C2470 1.524 . S
C2470 C2469 1.524 . S
C2470 C2471 1.397 . S
C2470 C2475 1.363 . S
C2471 H2442 0.950 . S
C2471 C2470 1.397 . S
C2471 C2472 1.334 . S
C2472 H2443 0.950 . S
C2472 C2471 1.334 . S
C2472 C2473 1.287 . S
C2473 C2472 1.287 . S
C2473 C2474 1.524 . S
C2473 H2476 0.999 . S
C2474 H2444 0.950 . S
C2474 C2473 1.524 . S
C2474 C2475 1.415 . S
C2475 H2445 0.950 . S
C2475 C2470 1.363 . S
C2475 C2474 1.415 . S
H2476 C2473 0.999 . S
H2477 C2458 0.913 . S
H2478 C2496 0.951 . S
H2479 C2498 0.951 . S
H2480 C2500 0.950 . S
H2481 C2501 0.950 . S
H2482 C2503 0.950 . S
H2483 C2506 0.950 . S
H2484 C2507 0.950 . S
H2485 C2509 0.950 . S
H2486 C2510 0.950 . S
H2487 C2511 0.951 . S
H2488 C2513 0.951 . S
H2489 C2515 0.950 . S
H2490 C2516 0.950 . S
H2491 C2518 0.950 . S
H2492 C2521 0.950 . S
H2493 C2522 0.950 . S
H2494 C2524 0.950 . S
H2495 C2525 0.950 . S
C2496 H2478 0.951 . S
C2496 C2497 1.366 . S
C2496 C2498 1.388 . S
C2497 C2496 1.366 . S
C2497 C2501 1.385 . S
C2498 H2479 0.951 . S
C2498 C2496 1.388 . S
C2498 C2499 1.366 . S
C2499 C2498 1.366 . S
C2499 C2500 1.414 . S
C2499 C2502 1.499 . S
C2500 H2480 0.950 . S
C2500 C2499 1.414 . S
C2500 C2501 1.374 . S
C2501 H2481 0.950 . S
C2501 C2497 1.385 . S
C2501 C2500 1.374 . S
C2502 C2499 1.499 . S
C2502 C2503 1.373 . S
C2502 C2504 1.389 . S
C2503 H2482 0.950 . S
C2503 C2502 1.373 . S
C2503 C2519 1.377 . S
C2504 C2502 1.389 . S
C2504 C2505 1.524 . S
C2504 C2518 1.377 . S
C2505 C2504 1.524 . S
C2505 C2506 1.397 . S
C2505 C2510 1.363 . S
C2506 H2483 0.950 . S
C2506 C2505 1.397 . S
C2506 C2507 1.334 . S
C2507 H2484 0.950 . S
C2507 C2506 1.334 . S
C2507 C2508 1.287 . S
C2508 C2507 1.287 . S
C2508 C2509 1.524 . S
C2508 H2527 0.913 . S
C2509 H2485 0.950 . S
C2509 C2508 1.524 . S
C2509 C2510 1.415 . S
C2510 H2486 0.950 . S
C2510 C2505 1.363 . S
C2510 C2509 1.415 . S
C2511 H2487 0.951 . S
C2511 C2512 1.366 . S
C2511 C2513 1.388 . S
C2512 C2511 1.366 . S
C2512 C2516 1.385 . S
C2513 H2488 0.951 . S
C2513 C2511 1.388 . S
C2513 C2514 1.366 . S
C2514 C2513 1.366 . S
C2514 C2515 1.414 . S
C2514 C2517 1.499 . S
C2515 H2489 0.950 . S
C2515 C2514 1.414 . S
C2515 C2516 1.374 . S
C2516 H2490 0.950 . S
C2516 C2512 1.385 . S
C2516 C2515 1.374 . S
C2517 C2514 1.499 . S
C2517 C2518 1.373 . S
C2517 C2519 1.389 . S
C2518 H2491 0.950 . S
C2518 C2504 1.377 . S
C2518 C2517 1.373 . S
C2519 C2503 1.377 . S
C2519 C2517 1.389 . S
C2519 C2520 1.524 . S
C2520 C2519 1.524 . S
C2520 C2521 1.397 . S
C2520 C2525 1.363 . S
C2521 H2492 0.950 . S
C2521 C2520 1.397 . S
C2521 C2522 1.334 . S
C2522 H2493 0.950 . S
C2522 C2521 1.334 . S
C2522 C2523 1.287 . S
C2523 C2522 1.287 . S
C2523 C2524 1.524 . S
C2523 H2526 0.999 . S
C2524 H2494 0.950 . S
C2524 C2523 1.524 . S
C2524 C2525 1.415 . S
C2525 H2495 0.950 . S
C2525 C2520 1.363 . S
C2525 C2524 1.415 . S
H2526 C2523 0.999 . S
H2527 C2508 0.913 . S
C547 N13 1.677 . S
C562 N497 1.681 . S
C597 N277 2.319 . S
C612 N46 2.319 . S
C647 N409 1.939 . S
C662 N68 1.950 . S
C697 N101 2.176 . S
C712 N343 2.146 . S
C747 N365 2.361 . S
C762 N35 2.368 . S
C797 N79 1.980 . S
C812 N299 1.983 . S
C847 N112 2.109 . S
C862 N431 2.126 . S
C897 N2 1.684 . S
C912 N244 1.668 . S
C947 N266 2.361 . S
C962 N134 2.369 . S
C997 N398 1.984 . S
C1012 N178 1.980 . S
C1047 N211 2.109 . S
C1062 N332 2.126 . S
C1097 N200 2.176 . S
C1112 N442 2.145 . S
C1147 N145 2.320 . S
C1162 N376 2.319 . S
C1197 N475 1.677 . S
C1212 N233 1.682 . S
C1247 N310 1.940 . S
C1262 N167 1.951 . S
C1297 N508 1.668 . S
C1312 N464 1.683 . S
C1347 C21 0.769 . S
C1362 C51 0.769 . S
C1397 C40 0.784 . S
C1412 C87 0.784 . S
C1447 C73 0.999 . S
C1462 C106 0.998 . S
C1497 C117 0.992 . S
C1512 C7 0.989 . S
C1547 C18 0.359 . S
C1562 C183 0.360 . S
C1597 C153 0.390 . S
C1612 C120 0.390 . S
C1647 C219 0.389 . S
C1662 C54 0.390 . S
C1697 C480 0.360 . S
C1712 C84 0.359 . S
C1747 C285 0.275 . S
C1762 C238 0.277 . S
C1797 C271 0.811 . S
C1812 C304 0.812 . S
C1847 C315 1.129 . S
C1862 C348 1.129 . S
C1897 C351 0.521 . S
C1912 C249 0.522 . S
C1947 C417 0.560 . S
C1962 C252 0.560 . S
C1997 C381 0.856 . S
C2012 C337 0.856 . S
C2047 C282 0.856 . S
C2062 C436 0.856 . S
C2097 C516 0.560 . S
C2112 C318 0.560 . S
C2147 C150 0.769 . S
C2162 C483 0.769 . S
C2197 C139 0.784 . S
C2212 C186 0.784 . S
C2247 C172 0.998 . S
C2262 C205 0.998 . S
C2297 C469 0.989 . S
C2312 C216 0.992 . S
C2347 C384 0.275 . S
C2362 C502 0.277 . S
C2397 C403 0.812 . S
C2412 C370 0.811 . S
C2447 C414 1.129 . S
C2462 C447 1.129 . S
C2497 C513 0.522 . S
C2512 C450 0.521 . S
