# Generated by pormake.
# Topology qdl, (4)-cn, num edge types: 1
# Building blocks:
#     Node 0, Type 0, BuildingBlock: KOZSID_clean_sbu_0, # of connection points: 4
#     Node 1, Type 0, BuildingBlock: KOZSID_clean_sbu_0, # of connection points: 4
#     Node 2, Type 0, BuildingBlock: KOZSID_clean_sbu_0, # of connection points: 4
#     Node 3, Type 0, BuildingBlock: KOZSID_clean_sbu_0, # of connection points: 4
#     Node 4, Type 0, BuildingBlock: KOZSID_clean_sbu_0, # of connection points: 4
#     Node 5, Type 0, BuildingBlock: KOZSID_clean_sbu_0, # of connection points: 4
#     Edge 6, Type (0, 0), BuildingBlock: EZIPEK_clean_linker_0, # of connection points: 2
#     Edge 7, Type (0, 0), BuildingBlock: EZIPEK_clean_linker_0, # of connection points: 2
#     Edge 8, Type (0, 0), BuildingBlock: EZIPEK_clean_linker_0, # of connection points: 2
#     Edge 9, Type (0, 0), BuildingBlock: EZIPEK_clean_linker_0, # of connection points: 2
#     Edge 10, Type (0, 0), BuildingBlock: EZIPEK_clean_linker_0, # of connection points: 2
#     Edge 11, Type (0, 0), BuildingBlock: EZIPEK_clean_linker_0, # of connection points: 2
#     Edge 12, Type (0, 0), BuildingBlock: EZIPEK_clean_linker_0, # of connection points: 2
#     Edge 13, Type (0, 0), BuildingBlock: EZIPEK_clean_linker_0, # of connection points: 2
#     Edge 14, Type (0, 0), BuildingBlock: EZIPEK_clean_linker_0, # of connection points: 2
#     Edge 15, Type (0, 0), BuildingBlock: EZIPEK_clean_linker_0, # of connection points: 2
#     Edge 16, Type (0, 0), BuildingBlock: EZIPEK_clean_linker_0, # of connection points: 2
#     Edge 17, Type (0, 0), BuildingBlock: EZIPEK_clean_linker_0, # of connection points: 2
# Relax obj value: 0.000
# Max RMSD: 0.052
# Mean RMSD: 0.050
data_MOF--net-qdl--node1-KOZSID_clean_sbu_0--edge1-EZIPEK_clean_linker_0
_symmetry_space_group_name_H-M    P1
_symmetry_Int_Tables_number       1
_symmetry_cell_setting            triclinic
loop_
_symmetry_equiv_pos_as_xyz
'x, y, z'
_cell_length_a     12.641365
_cell_length_b     12.627237
_cell_length_c     92.742215
_cell_angle_alpha  101.62757
_cell_angle_beta   101.77615
_cell_angle_gamma 120.11768
loop_
_atom_site_label
_atom_site_type_symbol
_atom_site_fract_x
_atom_site_fract_y
_atom_site_fract_z
_atom_type_partial_charge
C0 C 0.49581 0.69729 0.11114 0.0
C1 C 0.61639 0.81724 0.11707 0.0
C2 C 0.70949 0.79093 0.11957 0.0
C3 C 0.64056 0.65703 0.11502 0.0
N4 N 0.50899 0.59628 0.11004 0.0
Co5 Co 0.37101 0.4026 0.10109 0.0
N6 N 0.50735 0.36307 0.10332 0.0
C7 C 0.6391 0.45024 0.10902 0.0
C8 C 0.70707 0.39317 0.10976 0.0
C9 C 0.61324 0.26177 0.10458 0.0
C10 C 0.49323 0.24661 0.10092 0.0
N11 N 0.23286 0.209 0.09184 0.0
C12 C 0.24562 0.10751 0.09021 0.0
C13 C 0.12489 0.98745 0.08352 0.0
C14 C 1.03206 1.01416 0.08106 0.0
C15 C 0.10129 0.14838 0.08634 0.0
N16 N 0.23466 0.44199 0.09916 0.0
C17 C 0.10318 0.35489 0.09404 0.0
C18 C 0.03529 0.41211 0.0939 0.0
C19 C 0.12885 0.54351 0.09896 0.0
C20 C 0.24859 0.55847 0.10189 0.0
N21 N 0.37538 0.40076 0.12273 0.0
C22 C 0.38173 0.38875 0.15302 0.0
C23 C 0.26311 0.31933 0.14032 0.0
C24 C 0.26207 0.32703 0.12544 0.0
C25 C 0.49715 0.46567 0.15039 0.0
C26 C 0.49186 0.46988 0.13528 0.0
N27 N 0.36675 0.40441 0.07947 0.0
C28 C 0.2459 0.3527 0.05225 0.0
C29 C 0.36154 0.41333 0.0491 0.0
C30 C 0.47971 0.46892 0.06134 0.0
C31 C 0.48017 0.46384 0.07631 0.0
C32 C 0.25061 0.34894 0.06737 0.0
H33 H 0.57367 0.50916 0.08514 0.0
H34 H 0.15901 0.30129 0.069 0.0
H35 H 0.16833 0.27128 0.11627 0.0
H36 H 0.58341 0.52903 0.13401 0.0
C37 C 0.69597 0.58518 0.11431 0.0
C38 C 0.37156 0.68364 0.10592 0.0
C39 C 0.369 0.12058 0.09605 0.0
C40 C 0.04602 0.22007 0.08791 0.0
H41 H 0.6348 0.91338 0.11899 0.0
H42 H 0.8147 0.86069 0.12369 0.0
H43 H 0.81233 0.44154 0.114 0.0
H44 H 0.631 0.18582 0.10391 0.0
H45 H 0.10607 0.89089 0.08121 0.0
H46 H 0.92671 0.9443 0.07663 0.0
H47 H 0.93007 0.36378 0.08995 0.0
H48 H 0.11089 0.61944 0.09985 0.0
H49 H 0.17133 0.25903 0.14189 0.0
H50 H 0.59118 0.52147 0.15996 0.0
H51 H 0.15212 0.30793 0.04305 0.0
H52 H 0.57152 0.51647 0.05936 0.0
C53 C 0.39811 0.08089 0.42526 0.0
C54 C 0.37987 0.95946 0.42092 0.0
C55 C 0.24773 0.86751 0.41503 0.0
C56 C 0.19328 0.93792 0.41609 0.0
N57 N 0.28273 0.06929 0.42256 0.0
Co58 Co 0.24765 0.2088 0.42601 0.0
N59 N 0.05344 0.07414 0.41587 0.0
C60 C 0.99024 0.94253 0.40933 0.0
C61 C 0.8563 0.87576 0.4038 0.0
C62 C 0.8324 0.97018 0.40724 0.0
C63 C 0.95376 0.08924 0.41473 0.0
N64 N 0.21253 0.34824 0.4296 0.0
C65 C 0.09733 0.3363 0.42748 0.0
C66 C 0.11553 0.45759 0.43223 0.0
C67 C 0.24747 0.54973 0.43779 0.0
C68 C 0.3019 0.47962 0.43618 0.0
N69 N 0.44197 0.34355 0.43605 0.0
C70 C 0.50526 0.47538 0.44229 0.0
C71 C 0.63919 0.54225 0.44769 0.0
C72 C 0.66306 0.44768 0.44448 0.0
C73 C 0.5417 0.32839 0.43728 0.0
N74 N 0.23839 0.19827 0.447 0.0
C75 C 0.21343 0.18558 0.47635 0.0
C76 C 0.29755 0.30511 0.47497 0.0
C77 C 0.30745 0.30939 0.46029 0.0
C78 C 0.14355 0.07218 0.46289 0.0
C79 C 0.15876 0.08042 0.44851 0.0
N80 N 0.2565 0.21942 0.40499 0.0
C81 C 0.34095 0.34766 0.38884 0.0
C82 C 0.27319 0.23464 0.37536 0.0
C83 C 0.19647 0.11378 0.37693 0.0
C84 C 0.19083 0.10835 0.39174 0.0
C85 C 0.33031 0.33806 0.40335 0.0
H86 H 0.13325 1.01302 0.39219 0.0
H87 H 0.38328 0.42817 0.41307 0.0
H88 H 0.37053 0.40405 0.45997 0.0
H89 H 0.10373 0.9902 0.43874 0.0
C90 C 0.05929 0.88412 0.40995 0.0
C91 C 0.52613 0.20433 0.43087 0.0
C92 C 0.96951 0.21245 0.4218 0.0
C93 C 0.43605 0.53361 0.44198 0.0
H94 H 0.45434 0.93967 0.42155 0.0
H95 H 0.19731 0.76209 0.41006 0.0
H96 H 0.78466 0.77066 0.39852 0.0
H97 H 0.73671 0.95316 0.40505 0.0
H98 H 0.0413 0.47721 0.43208 0.0
H99 H 0.2979 0.65504 0.44296 0.0
H100 H 0.71081 0.64738 0.45285 0.0
H101 H 0.75874 0.46455 0.44676 0.0
H102 H 0.3536 0.39531 0.48515 0.0
H103 H 0.07784 0.9774 0.46349 0.0
H104 H 0.40136 0.44343 0.38816 0.0
H105 H 0.14234 1.02363 0.36678 0.0
C106 C 0.46045 0.44329 0.76554 0.0
C107 C 0.57168 0.44225 0.76758 0.0
C108 C 0.53386 0.31801 0.76649 0.0
C109 C 0.40223 0.25062 0.76384 0.0
N110 N 0.35423 0.3251 0.76348 0.0
Co111 Co 0.16699 0.26567 0.75872 0.0
N112 N 0.10787 0.07902 0.75488 0.0
C113 C 0.1828 1.03121 0.75539 0.0
C114 C 0.11466 0.89973 0.75286 0.0
C115 C 0.98941 0.86193 0.75105 0.0
C116 C 0.98879 0.97315 0.75256 0.0
N117 N 0.97984 0.20638 0.75401 0.0
C118 C 0.87387 0.08859 0.75209 0.0
C119 C 0.7627 0.08971 0.7501 0.0
C120 C 0.80036 0.2137 0.7511 0.0
C121 C 0.9318 0.28079 0.75365 0.0
N122 N 0.22595 0.45223 0.76253 0.0
C123 C 0.15077 0.49974 0.76189 0.0
C124 C 0.21893 0.63146 0.76457 0.0
C125 C 0.34465 0.66987 0.76664 0.0
C126 C 0.34544 0.55871 0.76512 0.0
N127 N 0.19052 0.29447 0.78147 0.0
C128 C 0.20432 0.31627 0.81288 0.0
C129 C 0.1579 0.37649 0.80502 0.0
C130 C 0.15001 0.36281 0.78937 0.0
C131 C 0.24733 0.24835 0.80494 0.0
C132 C 0.24202 0.24094 0.78951 0.0
N133 N 0.1438 0.23671 0.73596 0.0
C134 C 0.08617 0.27981 0.71223 0.0
C135 C 0.13544 0.21683 0.70472 0.0
C136 C 0.18424 0.15982 0.71288 0.0
C137 C 0.18859 0.17183 0.72836 0.0
C138 C 0.08959 0.28698 0.72764 0.0
H139 H 0.23098 0.12966 0.734 0.0
H140 H 0.05056 0.33623 0.73272 0.0
H141 H 0.10922 0.40698 0.78387 0.0
H142 H 0.27802 0.18923 0.78424 0.0
C143 C 0.31887 0.11496 0.75983 0.0
C144 C 0.45834 0.55601 0.76462 0.0
C145 C 0.87643 0.9765 0.7532 0.0
C146 C 1.01498 0.41613 0.75754 0.0
H147 H 0.66896 0.52187 0.76915 0.0
H148 H 0.5938 0.27978 0.76682 0.0
H149 H 0.15282 0.83995 0.75304 0.0
H150 H 0.90883 0.76494 0.74944 0.0
H151 H 0.66564 1.01043 0.74866 0.0
H152 H 0.74051 0.25205 0.75078 0.0
H153 H 0.18069 0.69118 0.76441 0.0
H154 H 0.42554 0.76731 0.76845 0.0
H155 H 0.12485 0.43126 0.81081 0.0
H156 H 0.28581 0.20181 0.81069 0.0
H157 H 0.04603 0.32415 0.70625 0.0
H158 H 0.22215 0.10891 0.70745 0.0
C159 C 0.85759 0.06055 0.57948 0.0
C160 C 0.73785 0.93986 0.57365 0.0
C161 C 0.76428 0.8468 0.57116 0.0
C162 C 0.89804 0.91588 0.57562 0.0
N163 N 0.95857 0.04747 0.58052 0.0
Co164 Co 0.15209 0.18562 0.58935 0.0
N165 N 0.19196 0.0494 0.58717 0.0
C166 C 0.10491 0.91757 0.58153 0.0
C167 C 0.16198 0.84961 0.58077 0.0
C168 C 0.29325 0.94352 0.5859 0.0
C169 C 0.30837 0.0636 0.58955 0.0
N170 N 0.34555 0.32395 0.59853 0.0
C171 C 0.44714 0.31136 0.60021 0.0
C172 C 0.56701 0.43227 0.60687 0.0
C173 C 0.54009 0.525 0.60924 0.0
C174 C 0.40594 0.45555 0.60395 0.0
N175 N 0.11236 0.32182 0.59121 0.0
C176 C 0.19928 0.45334 0.59622 0.0
C177 C 0.14201 0.5212 0.59639 0.0
C178 C 1.01081 0.4276 0.59147 0.0
C179 C 0.99598 0.30784 0.58859 0.0
N180 N 0.15289 0.18053 0.56767 0.0
C181 C 0.16411 0.17298 0.53734 0.0
C182 C 0.23301 0.29203 0.54994 0.0
C183 C 0.22585 0.29364 0.56486 0.0
C184 C 0.08794 0.05776 0.54006 0.0
C185 C 0.08391 0.06367 0.55519 0.0
N186 N 0.15127 0.19057 0.61101 0.0
C187 C 0.20108 0.3119 0.63811 0.0
C188 C 0.14252 0.19665 0.64141 0.0
C189 C 0.08905 0.07843 0.6293 0.0
C190 C 0.09382 0.07751 0.61431 0.0
C191 C 0.20507 0.30682 0.623 0.0
H192 H 0.0498 0.98394 0.60557 0.0
H193 H 0.25151 0.39821 0.62127 0.0
H194 H 0.2815 0.38765 0.57397 0.0
H195 H 1.02512 0.97227 0.55652 0.0
C196 C 0.97003 0.8606 0.57632 0.0
C197 C 0.87112 0.18484 0.58469 0.0
C198 C 0.43438 0.18799 0.59442 0.0
C199 C 0.33408 0.51063 0.60233 0.0
H200 H 0.64182 0.92137 0.57179 0.0
H201 H 0.69471 0.74154 0.56711 0.0
H202 H 0.11369 0.7443 0.57657 0.0
H203 H 0.36912 0.92575 0.58655 0.0
H204 H 0.66357 0.45124 0.60921 0.0
H205 H 0.60978 0.63042 0.61364 0.0
H206 H 0.19024 0.62647 0.6003 0.0
H207 H 0.935 0.4456 0.59065 0.0
H208 H 0.29281 0.38363 0.54829 0.0
H209 H 1.03263 0.96343 0.53056 0.0
H210 H 0.24427 0.40575 0.6472 0.0
H211 H 0.04318 0.98689 0.63139 0.0
C212 C 0.10774 0.09342 0.92558 0.0
C213 C 0.10851 0.98235 0.92416 0.0
C214 C 0.23254 1.01898 0.92539 0.0
C215 C 0.29996 0.14979 0.92753 0.0
N216 N 0.22567 0.19824 0.92734 0.0
Co217 Co 0.286 0.38553 0.93162 0.0
N218 N 0.47119 0.44254 0.9349 0.0
C219 C 0.51705 0.36589 0.93388 0.0
C220 C 0.64687 0.43184 0.93563 0.0
C221 C 0.68549 0.55742 0.93745 0.0
C222 C 0.57653 0.56061 0.93679 0.0
N223 N 0.34677 0.5733 0.93643 0.0
C224 C 0.46582 0.67979 0.9389 0.0
C225 C 0.46708 0.79263 0.94162 0.0
C226 C 0.34317 0.75547 0.94053 0.0
C227 C 0.27399 0.62277 0.93725 0.0
N228 N 0.10021 0.32823 0.92778 0.0
C229 C 0.05324 0.40374 0.92788 0.0
C230 C 0.92139 0.33637 0.92503 0.0
C231 C 0.88223 0.21086 0.92332 0.0
C232 C 0.99315 0.20932 0.92524 0.0
N233 N 0.25479 0.35945 0.90877 0.0
C234 C 0.23209 0.33991 0.87721 0.0
C235 C 0.19405 0.40997 0.88583 0.0
C236 C 0.20532 0.41777 0.90145 0.0
C237 C 0.2774 0.27623 0.88443 0.0
C238 C 0.2881 0.28734 0.90007 0.0
N239 N 0.31748 0.41098 0.95446 0.0
C240 C 0.26799 0.45958 0.9779 0.0
C241 C 0.34068 0.42027 0.98578 0.0
C242 C 0.40605 0.38179 0.97798 0.0
C243 C 0.39251 0.37698 0.96246 0.0
C244 C 0.2591 0.45581 0.96244 0.0
H245 H 0.44208 0.34315 0.95712 0.0
H246 H 0.20182 0.48657 0.95704 0.0
H247 H 0.17616 0.47392 0.90747 0.0
H248 H 0.32543 0.23813 0.90493 0.0
C249 C 0.43414 0.23119 0.93054 0.0
C250 C 0.99502 0.09656 0.92609 0.0
C251 C 0.57574 0.67599 0.93717 0.0
C252 C 0.13809 0.53993 0.93278 0.0
H253 H 1.02851 0.8859 0.9228 0.0
H254 H 0.27019 0.95857 0.92527 0.0
H255 H 0.70529 0.39234 0.93518 0.0
H256 H 0.78192 0.63695 0.93875 0.0
H257 H 0.54776 0.89042 0.9435 0.0
H258 H 0.30626 0.81662 0.9412 0.0
H259 H 0.8623 0.37539 0.92499 0.0
H260 H 0.78448 0.13084 0.92155 0.0
H261 H 0.15721 0.45978 0.88059 0.0
H262 H 0.3067 0.21992 0.87808 0.0
H263 H 0.21714 0.49185 0.9836 0.0
H264 H 0.46485 0.35222 0.98374 0.0
C265 C 0.4723 0.16081 0.26578 0.0
C266 C 0.59374 0.17916 0.27017 0.0
C267 C 0.68558 0.3112 0.27565 0.0
C268 C 0.61517 0.36552 0.27434 0.0
N269 N 0.48384 0.276 0.26809 0.0
Co270 Co 0.34434 0.31093 0.26464 0.0
N271 N 0.47889 0.50512 0.27493 0.0
C272 C 0.61037 0.56822 0.28153 0.0
C273 C 0.67713 0.70223 0.28723 0.0
C274 C 0.58281 0.72631 0.2839 0.0
C275 C 0.46383 0.60499 0.2763 0.0
N276 N 0.20497 0.34603 0.26095 0.0
C277 C 0.21685 0.46155 0.26353 0.0
C278 C 0.09573 0.44348 0.25873 0.0
C279 C 1.00371 0.31129 0.25265 0.0
C280 C 0.0738 0.25668 0.25404 0.0
N281 N 0.2097 0.11656 0.25465 0.0
C282 C 0.07793 0.05312 0.2484 0.0
C283 C 1.01124 0.91912 0.24304 0.0
C284 C 0.10588 0.89543 0.24632 0.0
C285 C 0.22501 1.01696 0.25353 0.0
N286 N 0.35514 0.32055 0.24364 0.0
C287 C 0.36743 0.34252 0.21413 0.0
C288 C 0.24933 0.25368 0.21542 0.0
C289 C 0.24504 0.2457 0.23017 0.0
C290 C 0.47978 0.41885 0.22779 0.0
C291 C 0.47193 0.40498 0.24225 0.0
N292 N 0.33329 0.30128 0.28559 0.0
C293 C 0.20398 0.22108 0.30175 0.0
C294 C 0.31687 0.28132 0.31503 0.0
C295 C 0.43827 0.35225 0.31339 0.0
C296 C 0.44422 0.36027 0.29867 0.0
C297 C 0.21427 0.23284 0.28731 0.0
H298 H 0.53968 0.41409 0.29813 0.0
H299 H 0.12439 0.18492 0.27768 0.0
H300 H 0.15101 0.17911 0.23035 0.0
H301 H 0.56158 0.46471 0.25214 0.0
C302 C 0.66881 0.49937 0.28063 0.0
C303 C 0.34883 1.03299 0.26029 0.0
C304 C 0.34054 0.58967 0.2695 0.0
C305 C 1.01978 0.12239 0.24838 0.0
H306 H 0.61376 0.10503 0.26987 0.0
H307 H 0.79095 0.36177 0.28067 0.0
H308 H 0.78217 0.77385 0.29254 0.0
H309 H 0.59982 0.82217 0.28628 0.0
H310 H 0.07629 0.51818 0.25923 0.0
H311 H 0.89849 0.26098 0.24745 0.0
H312 H 0.9062 0.84736 0.23781 0.0
H313 H 0.08915 0.79978 0.24414 0.0
H314 H 0.15993 0.19264 0.2051 0.0
H315 H 0.57356 0.4884 0.22728 0.0
H316 H 0.10792 0.16522 0.30252 0.0
H317 H 0.52823 0.4004 0.32341 0.0
C318 C 0.36362 0.98671 0.11289 0.0
C319 C 0.36812 1.00729 0.09848 0.0
C320 C 0.36181 0.80882 0.08843 0.0
C321 C 0.36953 0.79523 0.10335 0.0
N322 N 0.39165 0.87629 0.13038 0.0
N323 N 0.38458 0.94818 0.07306 0.0
C324 C 0.3741 0.88554 0.11576 0.0
C325 C 0.37068 0.92102 0.08637 0.0
N326 N 0.34572 0.06169 0.12363 0.0
N327 N 0.34234 0.71255 0.07611 0.0
H328 H 0.38722 1.02742 0.07095 0.0
H329 H 0.40242 0.89782 0.06462 0.0
H330 H 0.34078 0.63147 0.07731 0.0
H331 H 0.3175 0.70772 0.06448 0.0
H332 H 0.32248 0.03905 0.13322 0.0
H333 H 0.3438 0.14086 0.12232 0.0
H334 H 0.41103 0.94787 0.14038 0.0
H335 H 0.39593 0.80099 0.13279 0.0
C336 C 0.66698 0.22162 0.41471 0.0
C337 C 0.63927 0.20485 0.42847 0.0
C338 C 0.82348 0.18673 0.43744 0.0
C339 C 0.85569 0.21079 0.42413 0.0
N340 N 0.81824 0.26142 0.4007 0.0
N341 N 0.69744 0.18819 0.45392 0.0
C342 C 0.7802 0.23129 0.41292 0.0
C343 C 0.71915 0.19172 0.44011 0.0
N344 N 0.58318 0.22559 0.40324 0.0
N345 N 0.89114 0.15644 0.44733 0.0
H346 H 0.61976 0.18842 0.45609 0.0
H347 H 0.76095 0.19398 0.46365 0.0
H348 H 0.97295 0.15911 0.4463 0.0
H349 H 0.86167 0.12061 0.45597 0.0
H350 H 0.59144 0.22729 0.39237 0.0
H351 H 0.49987 0.21993 0.4042 0.0
H352 H 0.77714 0.2918 0.39304 0.0
H353 H 0.89733 0.26349 0.39867 0.0
C354 C 0.78389 0.87055 0.77182 0.0
C355 C 0.76821 0.86934 0.75617 0.0
C356 C 0.55015 0.66407 0.74613 0.0
C357 C 0.56661 0.6638 0.76173 0.0
N358 N 0.68751 0.77257 0.78971 0.0
N359 N 0.64759 0.75899 0.72818 0.0
C360 C 0.68086 0.76835 0.77467 0.0
C361 C 0.65394 0.7648 0.74325 0.0
N362 N 0.89932 0.9677 0.78387 0.0
N363 N 0.43297 0.57045 0.73416 0.0
H364 H 0.72081 0.83244 0.72564 0.0
H365 H 0.57453 0.67785 0.71816 0.0
H366 H 0.35786 0.49001 0.73554 0.0
H367 H 0.40667 0.57631 0.7231 0.0
H368 H 0.92564 0.96571 0.79514 0.0
H369 H 0.97302 0.04865 0.7824 0.0
H370 H 0.76068 0.85253 0.79982 0.0
H371 H 0.61458 0.69816 0.79217 0.0
C372 C 0.57014 0.19621 0.5778 0.0
C373 C 0.54787 0.18902 0.59206 0.0
C374 C 0.74456 0.1921 0.60206 0.0
C375 C 0.75955 0.18687 0.58724 0.0
N376 N 0.68086 0.16935 0.56034 0.0
N377 N 0.60415 0.16789 0.61727 0.0
C378 C 0.6708 0.18508 0.57492 0.0
C379 C 0.63255 0.18371 0.60408 0.0
N380 N 0.49733 0.21731 0.5672 0.0
N381 N 0.8394 0.20881 0.61432 0.0
H382 H 0.52529 0.16589 0.61937 0.0
H383 H 0.65311 0.14802 0.62561 0.0
H384 H 0.92041 0.21036 0.61314 0.0
H385 H 0.84322 0.23127 0.62593 0.0
H386 H 0.52193 0.24315 0.55782 0.0
H387 H 0.41829 0.21946 0.56847 0.0
H388 H 0.61022 0.15202 0.55038 0.0
H389 H 0.75561 0.1643 0.55792 0.0
C390 C 0.66696 0.78669 0.91886 0.0
C391 C 0.68233 0.78598 0.93441 0.0
C392 C 0.89471 0.99712 0.94464 0.0
C393 C 0.88625 0.98947 0.92894 0.0
N394 N 0.77119 0.87269 0.90092 0.0
N395 N 0.81347 0.88383 0.96213 0.0
C396 C 0.77409 0.88308 0.91598 0.0
C397 C 0.79696 0.88955 0.94733 0.0
N398 N 0.54854 0.69786 0.90692 0.0
N399 N 0.99383 0.10914 0.95697 0.0
H400 H 0.74179 0.80852 0.96462 0.0
H401 H 0.90137 0.94882 0.9717 0.0
H402 H 0.07055 0.18763 0.95551 0.0
H403 H 0.99398 0.1283 0.96844 0.0
H404 H 0.52563 0.70666 0.89598 0.0
H405 H 0.4695 0.62165 0.90837 0.0
H406 H 0.69817 0.78988 0.89105 0.0
H407 H 0.84687 0.94331 0.89836 0.0
C408 C 0.32837 0.78277 0.27867 0.0
C409 C 0.34232 0.70342 0.26711 0.0
C410 C 0.36951 0.84479 0.25156 0.0
C411 C 0.34821 0.91976 0.2627 0.0
N412 N 0.29214 0.95407 0.28576 0.0
N413 N 0.36625 0.64886 0.24209 0.0
C414 C 0.32343 0.88711 0.27596 0.0
C415 C 0.36041 0.7318 0.25341 0.0
N416 N 0.32408 0.76065 0.29245 0.0
N417 N 0.39929 0.88282 0.23932 0.0
H418 H 0.36032 0.56545 0.24309 0.0
H419 H 0.37037 0.65794 0.2313 0.0
H420 H 0.40074 0.96161 0.23724 0.0
H421 H 0.42949 0.8418 0.23165 0.0
H422 H 0.32952 0.82405 0.30214 0.0
H423 H 0.3242 0.68288 0.29466 0.0
H424 H 0.25438 0.92297 0.2942 0.0
H425 H 0.29547 0.03647 0.2848 0.0
C426 C 0.42907 0.30305 0.19025 0.0
C427 C 0.37317 0.35584 0.19855 0.0
C428 C 0.33823 0.44336 0.17792 0.0
C429 C 0.38407 0.38157 0.16901 0.0
N430 N 0.46182 0.24201 0.1658 0.0
N431 N 0.2596 0.4625 0.19943 0.0
C432 C 0.42726 0.30921 0.17499 0.0
C433 C 0.32331 0.4219 0.19211 0.0
N434 N 0.48428 0.24711 0.19698 0.0
N435 N 0.31374 0.52696 0.1731 0.0
H436 H 0.25053 0.45322 0.21009 0.0
H437 H 0.2073 0.49676 0.19441 0.0
H438 H 0.32429 0.54579 0.16285 0.0
H439 H 0.2943 0.58668 0.17989 0.0
H440 H 0.5414 0.22203 0.19261 0.0
H441 H 0.47934 0.23195 0.20753 0.0
H442 H 0.47836 0.17417 0.16847 0.0
H443 H 0.46616 0.24766 0.15487 0.0
C444 C 0.1039 0.20787 0.51188 0.0
C445 C 0.17179 0.16978 0.52136 0.0
C446 C 0.25828 0.13165 0.50077 0.0
C447 C 0.19844 0.17936 0.49185 0.0
N448 N 0.07376 0.27405 0.48938 0.0
N449 N 0.32097 0.10401 0.5256 0.0
C450 C 0.12399 0.22073 0.49756 0.0
C451 C 0.2503 0.13311 0.51595 0.0
N452 N 1.01622 0.227 0.51632 0.0
N453 N 0.32234 0.08419 0.49468 0.0
H454 H 0.31297 0.09805 0.53641 0.0
H455 H 0.39292 0.09274 0.52341 0.0
H456 H 0.33844 0.08975 0.48419 0.0
H457 H 0.35382 1.03287 0.49951 0.0
H458 H 0.95252 0.24073 0.50922 0.0
H459 H 0.99902 0.21849 0.5267 0.0
H460 H 1.03238 0.32062 0.49374 0.0
H461 H 0.08058 0.27943 0.47851 0.0
C462 C 0.33507 0.40239 0.84197 0.0
C463 C 0.2109 0.32608 0.82947 0.0
C464 C 0.10172 0.25317 0.84812 0.0
C465 C 0.22516 0.33368 0.86071 0.0
N466 N 0.4592 0.48993 0.87009 0.0
N467 N 0.97467 0.18984 0.82074 0.0
C468 C 0.34189 0.40915 0.85772 0.0
C469 C 0.09382 0.25501 0.8326 0.0
N470 N 0.44676 0.46815 0.83871 0.0
N471 N 0.99263 0.17004 0.85091 0.0
H472 H 0.96393 0.18237 0.80908 0.0
H473 H 0.88591 0.14971 0.82253 0.0
H474 H 0.99451 0.16593 0.86207 0.0
H475 H 0.90205 0.09766 0.84208 0.0
H476 H 0.54085 0.51164 0.84662 0.0
H477 H 0.44592 0.47609 0.82771 0.0
H478 H 0.54633 0.55949 0.86927 0.0
H479 H 0.46924 0.49174 0.88157 0.0
C480 C 0.30775 0.29822 0.02039 0.0
C481 C 0.35857 0.41591 0.03295 0.0
C482 C 0.41174 0.53845 0.015 0.0
C483 C 0.34819 0.41883 1.0021 0.0
N484 N 0.22038 0.18197 0.99218 0.0
N485 N 0.44417 0.64612 0.04187 0.0
C486 C 0.29213 0.29789 1.00471 0.0
C487 C 0.40658 0.53557 0.03015 0.0
N488 N 0.27911 0.1875 0.02354 0.0
N489 N 0.48213 0.65532 0.01295 0.0
H490 H 0.44522 0.64896 0.05321 0.0
H491 H 0.46476 0.73216 0.04005 0.0
H492 H 0.49049 0.66175 1.00216 0.0
H493 H 0.54223 0.74554 0.02222 0.0
H494 H 0.25596 0.10277 0.01524 0.0
H495 H 0.29004 0.18378 0.03484 0.0
H496 H 0.16312 0.09095 0.99313 0.0
H497 H 0.20958 0.1766 0.98057 0.0
C498 C 0.34504 0.19581 0.33701 0.0
C499 C 0.30735 0.27013 0.33059 0.0
C500 C 0.23256 0.30656 0.35245 0.0
C501 C 0.28213 0.24357 0.3597 0.0
N502 N 0.40327 0.1446 0.35993 0.0
N503 N 0.23748 0.41663 0.33373 0.0
C504 C 0.34306 0.19245 0.35224 0.0
C505 C 0.25726 0.33119 0.33875 0.0
N506 N 0.37866 0.12461 0.32833 0.0
N507 N 0.15723 0.33838 0.35829 0.0
H508 H 0.25584 0.4386 0.32389 0.0
H509 H 0.21479 0.47502 0.34014 0.0
H510 H 0.13441 0.31947 0.36807 0.0
H511 H 0.10683 0.37163 0.35257 0.0
H512 H 0.39157 0.0561 0.33148 0.0
H513 H 0.38344 0.12598 0.31728 0.0
H514 H 0.46307 0.12108 0.35603 0.0
H515 H 0.40201 0.13786 0.3709 0.0
C516 C 1.01937 0.14571 0.66018 0.0
C517 C 0.13999 0.20018 0.65758 0.0
C518 C 0.25826 0.27469 0.68601 0.0
C519 C 0.13692 0.2109 0.68844 0.0
N520 N 0.90111 0.06309 0.67722 0.0
N521 N 0.37159 0.29301 0.66752 0.0
C522 C 1.01712 0.14027 0.67534 0.0
C523 C 0.25875 0.25826 0.67037 0.0
N524 N 0.90714 0.10229 0.64829 0.0
N525 N 0.3735 0.35448 0.69867 0.0
H526 H 0.37596 0.28095 0.65624 0.0
H527 H 0.45799 0.32214 0.67609 0.0
H528 H 0.37847 0.36743 0.71029 0.0
H529 H 0.46338 0.41625 0.69773 0.0
H530 H 0.81949 0.07622 0.64996 0.0
H531 H 0.90407 0.1023 0.63698 0.0
H532 H 0.81196 0.9984 0.66783 0.0
H533 H 0.89522 0.05407 0.68801 0.0
loop_
_geom_bond_atom_site_label_1
_geom_bond_atom_site_label_2
_geom_bond_distance
_geom_bond_site_symmetry_2
_ccdc_geom_bond_type
C0 C1 1.443 . S
C0 N4 1.376 . S
C0 C38 1.389 . S
C1 C0 1.443 . S
C1 C2 1.340 . S
C1 H41 0.951 . S
C2 C1 1.340 . S
C2 C3 1.439 . S
C2 H42 0.950 . S
C3 C2 1.439 . S
C3 N4 1.374 . S
C3 C37 1.395 . S
N4 C0 1.376 . S
N4 C3 1.374 . S
N4 Co5 2.008 . S
Co5 N4 2.008 . S
Co5 N6 1.995 . S
Co5 N11 2.008 . S
Co5 N16 1.995 . S
Co5 N21 2.282 . S
Co5 N27 2.282 . S
N6 Co5 1.995 . S
N6 C7 1.376 . S
N6 C10 1.383 . S
C7 N6 1.376 . S
C7 C8 1.446 . S
C7 C37 1.391 . S
C8 C7 1.446 . S
C8 C9 1.339 . S
C8 H43 0.949 . S
C9 C8 1.339 . S
C9 C10 1.439 . S
C9 H44 0.950 . S
C10 N6 1.383 . S
C10 C9 1.439 . S
C10 C39 1.392 . S
N11 Co5 2.008 . S
N11 C12 1.376 . S
N11 C15 1.374 . S
C12 N11 1.376 . S
C12 C13 1.443 . S
C12 C39 1.389 . S
C13 C12 1.443 . S
C13 C14 1.340 . S
C13 H45 0.951 1_545 S
C14 C13 1.340 . S
C14 C15 1.439 . S
C14 H46 0.950 . S
C15 N11 1.374 . S
C15 C14 1.439 . S
C15 C40 1.395 . S
N16 Co5 1.995 . S
N16 C17 1.376 . S
N16 C20 1.383 . S
C17 N16 1.376 . S
C17 C18 1.446 . S
C17 C40 1.391 . S
C18 C17 1.446 . S
C18 C19 1.339 . S
C18 H47 0.949 . S
C19 C18 1.339 . S
C19 C20 1.439 . S
C19 H48 0.950 . S
C20 N16 1.383 . S
C20 C19 1.439 . S
C20 C38 1.392 . S
N21 Co5 2.282 . S
N21 C24 1.332 . S
N21 C26 1.332 . S
C22 C23 1.386 . S
C22 C25 1.388 . S
C23 C22 1.386 . S
C23 C24 1.382 . S
C23 H49 0.950 . S
C24 N21 1.332 . S
C24 C23 1.382 . S
C24 H35 0.952 . S
C25 C22 1.388 . S
C25 C26 1.382 . S
C25 H50 0.950 . S
C26 N21 1.332 . S
C26 C25 1.382 . S
C26 H36 0.948 . S
N27 Co5 2.282 . S
N27 C31 1.332 . S
N27 C32 1.332 . S
C28 C29 1.388 . S
C28 C32 1.382 . S
C28 H51 0.950 . S
C29 C28 1.388 . S
C29 C30 1.386 . S
C30 C29 1.386 . S
C30 C31 1.382 . S
C30 H52 0.950 . S
C31 N27 1.332 . S
C31 C30 1.382 . S
C31 H33 0.952 . S
C32 N27 1.332 . S
C32 C28 1.382 . S
C32 H34 0.948 . S
H33 C31 0.952 . S
H34 C32 0.948 . S
H35 C24 0.952 . S
H36 C26 0.948 . S
C37 C3 1.395 . S
C37 C7 1.391 . S
C38 C0 1.389 . S
C38 C20 1.392 . S
C39 C10 1.392 . S
C39 C12 1.389 . S
C40 C15 1.395 . S
C40 C17 1.391 . S
H41 C1 0.951 . S
H42 C2 0.950 . S
H43 C8 0.949 . S
H44 C9 0.950 . S
H45 C13 0.951 1_565 S
H46 C14 0.950 . S
H47 C18 0.949 . S
H48 C19 0.950 . S
H49 C23 0.950 . S
H50 C25 0.950 . S
H51 C28 0.950 . S
H52 C30 0.950 . S
C53 C54 1.443 . S
C53 N57 1.376 . S
C53 C91 1.389 1_565 S
C54 C53 1.443 . S
C54 C55 1.340 . S
C54 H94 0.951 . S
C55 C54 1.340 . S
C55 C56 1.439 . S
C55 H95 0.950 . S
C56 C55 1.439 . S
C56 N57 1.374 . S
C56 C90 1.395 1_455 S
N57 C53 1.376 . S
N57 C56 1.374 . S
N57 Co58 2.008 1_565 S
Co58 N57 2.008 1_545 S
Co58 N59 1.995 1_445 S
Co58 N64 2.008 . S
Co58 N69 1.995 . S
Co58 N74 2.282 1_545 S
Co58 N80 2.282 . S
N59 Co58 1.995 1_665 S
N59 C60 1.376 . S
N59 C63 1.383 . S
C60 N59 1.376 . S
C60 C61 1.446 . S
C60 C90 1.391 . S
C61 C60 1.446 . S
C61 C62 1.339 . S
C61 H96 0.949 . S
C62 C61 1.339 . S
C62 C63 1.439 . S
C62 H97 0.950 . S
C63 N59 1.383 . S
C63 C62 1.439 . S
C63 C92 1.392 1_565 S
N64 Co58 2.008 . S
N64 C65 1.376 . S
N64 C68 1.374 . S
C65 N64 1.376 . S
C65 C66 1.443 . S
C65 C92 1.389 1_455 S
C66 C65 1.443 . S
C66 C67 1.340 . S
C66 H98 0.951 1_455 S
C67 C66 1.340 . S
C67 C68 1.439 . S
C67 H99 0.950 . S
C68 N64 1.374 . S
C68 C67 1.439 . S
C68 C93 1.395 . S
N69 Co58 1.995 . S
N69 C70 1.376 . S
N69 C73 1.383 . S
C70 N69 1.376 . S
C70 C71 1.446 . S
C70 C93 1.391 . S
C71 C70 1.446 . S
C71 C72 1.339 . S
C71 H100 0.949 . S
C72 C71 1.339 . S
C72 C73 1.439 . S
C72 H101 0.950 . S
C73 N69 1.383 . S
C73 C72 1.439 . S
C73 C91 1.392 . S
N74 Co58 2.282 1_565 S
N74 C77 1.332 1_565 S
N74 C79 1.332 . S
C75 C76 1.386 1_565 S
C75 C78 1.388 . S
C76 C75 1.386 1_545 S
C76 C77 1.382 . S
C76 H102 0.950 . S
C77 N74 1.332 1_545 S
C77 C76 1.382 . S
C77 H88 0.952 . S
C78 C75 1.388 . S
C78 C79 1.382 . S
C78 H103 0.950 1_455 S
C79 N74 1.332 . S
C79 C78 1.382 . S
C79 H89 0.948 1_455 S
N80 Co58 2.282 . S
N80 C84 1.332 1_545 S
N80 C85 1.332 . S
C81 C82 1.388 . S
C81 C85 1.382 . S
C81 H104 0.950 . S
C82 C81 1.388 . S
C82 C83 1.386 1_545 S
C83 C82 1.386 1_565 S
C83 C84 1.382 . S
C83 H105 0.950 . S
C84 N80 1.332 1_565 S
C84 C83 1.382 . S
C84 H86 0.952 . S
C85 N80 1.332 . S
C85 C81 1.382 . S
C85 H87 0.948 . S
H86 C84 0.952 . S
H87 C85 0.948 . S
H88 C77 0.952 . S
H89 C79 0.948 1_655 S
C90 C56 1.395 1_655 S
C90 C60 1.391 . S
C91 C53 1.389 1_545 S
C91 C73 1.392 . S
C92 C63 1.392 1_545 S
C92 C65 1.389 1_655 S
C93 C68 1.395 . S
C93 C70 1.391 . S
H94 C54 0.951 . S
H95 C55 0.950 . S
H96 C61 0.949 . S
H97 C62 0.950 . S
H98 C66 0.951 1_655 S
H99 C67 0.950 . S
H100 C71 0.949 . S
H101 C72 0.950 . S
H102 C76 0.950 . S
H103 C78 0.950 1_655 S
H104 C81 0.950 . S
H105 C83 0.950 . S
C106 C107 1.443 . S
C106 N110 1.376 . S
C106 C144 1.389 . S
C107 C106 1.443 . S
C107 C108 1.340 . S
C107 H147 0.951 . S
C108 C107 1.340 . S
C108 C109 1.439 . S
C108 H148 0.950 . S
C109 C108 1.439 . S
C109 N110 1.374 . S
C109 C143 1.395 . S
N110 C106 1.376 . S
N110 C109 1.374 . S
N110 Co111 2.008 . S
Co111 N110 2.008 . S
Co111 N112 1.995 . S
Co111 N117 2.008 1_455 S
Co111 N122 1.995 . S
Co111 N127 2.282 . S
Co111 N133 2.282 . S
N112 Co111 1.995 . S
N112 C113 1.376 . S
N112 C116 1.383 1_455 S
C113 N112 1.376 . S
C113 C114 1.446 1_545 S
C113 C143 1.391 . S
C114 C113 1.446 1_565 S
C114 C115 1.339 1_455 S
C114 H149 0.949 . S
C115 C114 1.339 1_655 S
C115 C116 1.439 1_565 S
C115 H150 0.950 . S
C116 N112 1.383 1_655 S
C116 C115 1.439 1_545 S
C116 C145 1.392 . S
N117 Co111 2.008 1_655 S
N117 C118 1.376 . S
N117 C121 1.374 . S
C118 N117 1.376 . S
C118 C119 1.443 . S
C118 C145 1.389 . S
C119 C118 1.443 . S
C119 C120 1.340 . S
C119 H151 0.951 . S
C120 C119 1.340 . S
C120 C121 1.439 . S
C120 H152 0.950 . S
C121 N117 1.374 . S
C121 C120 1.439 . S
C121 C146 1.395 . S
N122 Co111 1.995 . S
N122 C123 1.376 . S
N122 C126 1.383 . S
C123 N122 1.376 . S
C123 C124 1.446 . S
C123 C146 1.391 1_455 S
C124 C123 1.446 . S
C124 C125 1.339 . S
C124 H153 0.949 . S
C125 C124 1.339 . S
C125 C126 1.439 . S
C125 H154 0.950 . S
C126 N122 1.383 . S
C126 C125 1.439 . S
C126 C144 1.392 . S
N127 Co111 2.282 . S
N127 C130 1.332 . S
N127 C132 1.332 . S
C128 C129 1.386 . S
C128 C131 1.388 . S
C129 C128 1.386 . S
C129 C130 1.382 . S
C129 H155 0.950 . S
C130 N127 1.332 . S
C130 C129 1.382 . S
C130 H141 0.952 . S
C131 C128 1.388 . S
C131 C132 1.382 . S
C131 H156 0.950 . S
C132 N127 1.332 . S
C132 C131 1.382 . S
C132 H142 0.948 . S
N133 Co111 2.282 . S
N133 C137 1.332 . S
N133 C138 1.332 1_455 S
C134 C135 1.388 1_655 S
C134 C138 1.382 . S
C134 H157 0.950 . S
C135 C134 1.388 1_455 S
C135 C136 1.386 . S
C136 C135 1.386 . S
C136 C137 1.382 . S
C136 H158 0.950 . S
C137 N133 1.332 . S
C137 C136 1.382 . S
C137 H139 0.952 . S
C138 N133 1.332 1_655 S
C138 C134 1.382 . S
C138 H140 0.948 . S
H139 C137 0.952 . S
H140 C138 0.948 . S
H141 C130 0.952 . S
H142 C132 0.948 . S
C143 C109 1.395 . S
C143 C113 1.391 . S
C144 C106 1.389 . S
C144 C126 1.392 . S
C145 C116 1.392 . S
C145 C118 1.389 . S
C146 C121 1.395 . S
C146 C123 1.391 1_655 S
H147 C107 0.951 . S
H148 C108 0.950 . S
H149 C114 0.949 . S
H150 C115 0.950 . S
H151 C119 0.951 . S
H152 C120 0.950 . S
H153 C124 0.949 . S
H154 C125 0.950 . S
H155 C129 0.950 . S
H156 C131 0.950 . S
H157 C134 0.950 . S
H158 C136 0.950 . S
C159 C160 1.443 . S
C159 N163 1.376 . S
C159 C197 1.389 1_565 S
C160 C159 1.443 . S
C160 C161 1.340 . S
C160 H200 0.951 . S
C161 C160 1.340 . S
C161 C162 1.439 . S
C161 H201 0.950 . S
C162 C161 1.439 . S
C162 N163 1.374 . S
C162 C196 1.395 . S
N163 C159 1.376 . S
N163 C162 1.374 . S
N163 Co164 2.008 1_665 S
Co164 N163 2.008 1_445 S
Co164 N165 1.995 1_545 S
Co164 N170 2.008 . S
Co164 N175 1.995 1_455 S
Co164 N180 2.282 1_545 S
Co164 N186 2.282 . S
N165 Co164 1.995 1_565 S
N165 C166 1.376 1_455 S
N165 C169 1.383 . S
C166 N165 1.376 1_655 S
C166 C167 1.446 1_655 S
C166 C196 1.391 . S
C167 C166 1.446 1_455 S
C167 C168 1.339 . S
C167 H202 0.949 . S
C168 C167 1.339 . S
C168 C169 1.439 . S
C168 H203 0.950 . S
C169 N165 1.383 . S
C169 C168 1.439 . S
C169 C198 1.392 1_565 S
N170 Co164 2.008 . S
N170 C171 1.376 . S
N170 C174 1.374 . S
C171 N170 1.376 . S
C171 C172 1.443 . S
C171 C198 1.389 . S
C172 C171 1.443 . S
C172 C173 1.340 . S
C172 H204 0.951 . S
C173 C172 1.340 . S
C173 C174 1.439 . S
C173 H205 0.950 . S
C174 N170 1.374 . S
C174 C173 1.439 . S
C174 C199 1.395 . S
N175 Co164 1.995 1_655 S
N175 C176 1.376 1_655 S
N175 C179 1.383 . S
C176 N175 1.376 1_455 S
C176 C177 1.446 . S
C176 C199 1.391 . S
C177 C176 1.446 . S
C177 C178 1.339 1_455 S
C177 H206 0.949 . S
C178 C177 1.339 1_655 S
C178 C179 1.439 . S
C178 H207 0.950 . S
C179 N175 1.383 . S
C179 C178 1.439 . S
C179 C197 1.392 . S
N180 Co164 2.282 1_565 S
N180 C183 1.332 1_565 S
N180 C185 1.332 1_455 S
C181 C182 1.386 1_565 S
C181 C184 1.388 . S
C182 C181 1.386 1_545 S
C182 C183 1.382 . S
C182 H208 0.950 . S
C183 N180 1.332 1_545 S
C183 C182 1.382 . S
C183 H194 0.952 . S
C184 C181 1.388 . S
C184 C185 1.382 1_455 S
C184 H209 0.950 1_455 S
C185 N180 1.332 1_655 S
C185 C184 1.382 1_655 S
C185 H195 0.948 . S
N186 Co164 2.282 . S
N186 C190 1.332 1_545 S
N186 C191 1.332 . S
C187 C188 1.388 . S
C187 C191 1.382 . S
C187 H210 0.950 . S
C188 C187 1.388 . S
C188 C189 1.386 1_445 S
C189 C188 1.386 1_665 S
C189 C190 1.382 1_655 S
C189 H211 0.950 . S
C190 N186 1.332 1_565 S
C190 C189 1.382 1_455 S
C190 H192 0.952 1_455 S
C191 N186 1.332 . S
C191 C187 1.382 . S
C191 H193 0.948 . S
H192 C190 0.952 1_655 S
H193 C191 0.948 . S
H194 C183 0.952 . S
H195 C185 0.948 . S
C196 C162 1.395 . S
C196 C166 1.391 . S
C197 C159 1.389 1_545 S
C197 C179 1.392 . S
C198 C169 1.392 1_545 S
C198 C171 1.389 . S
C199 C174 1.395 . S
C199 C176 1.391 . S
H200 C160 0.951 . S
H201 C161 0.950 . S
H202 C167 0.949 . S
H203 C168 0.950 . S
H204 C172 0.951 . S
H205 C173 0.950 . S
H206 C177 0.949 . S
H207 C178 0.950 . S
H208 C182 0.950 . S
H209 C184 0.950 1_655 S
H210 C187 0.950 . S
H211 C189 0.950 . S
C212 C213 1.443 . S
C212 N216 1.376 . S
C212 C250 1.389 1_455 S
C213 C212 1.443 . S
C213 C214 1.340 . S
C213 H253 0.951 1_445 S
C214 C213 1.340 . S
C214 C215 1.439 . S
C214 H254 0.950 . S
C215 C214 1.439 . S
C215 N216 1.374 . S
C215 C249 1.395 . S
N216 C212 1.376 . S
N216 C215 1.374 . S
N216 Co217 2.008 . S
Co217 N216 2.008 . S
Co217 N218 1.995 . S
Co217 N223 2.008 . S
Co217 N228 1.995 . S
Co217 N233 2.282 . S
Co217 N239 2.282 . S
N218 Co217 1.995 . S
N218 C219 1.376 . S
N218 C222 1.383 . S
C219 N218 1.376 . S
C219 C220 1.446 . S
C219 C249 1.391 . S
C220 C219 1.446 . S
C220 C221 1.339 . S
C220 H255 0.949 . S
C221 C220 1.339 . S
C221 C222 1.439 . S
C221 H256 0.950 . S
C222 N218 1.383 . S
C222 C221 1.439 . S
C222 C251 1.392 . S
N223 Co217 2.008 . S
N223 C224 1.376 . S
N223 C227 1.374 . S
C224 N223 1.376 . S
C224 C225 1.443 . S
C224 C251 1.389 . S
C225 C224 1.443 . S
C225 C226 1.340 . S
C225 H257 0.951 . S
C226 C225 1.340 . S
C226 C227 1.439 . S
C226 H258 0.950 . S
C227 N223 1.374 . S
C227 C226 1.439 . S
C227 C252 1.395 . S
N228 Co217 1.995 . S
N228 C229 1.376 1_455 S
N228 C232 1.383 1_455 S
C229 N228 1.376 1_655 S
C229 C230 1.446 . S
C229 C252 1.391 1_655 S
C230 C229 1.446 . S
C230 C231 1.339 . S
C230 H259 0.949 . S
C231 C230 1.339 . S
C231 C232 1.439 . S
C231 H260 0.950 . S
C232 N228 1.383 1_655 S
C232 C231 1.439 . S
C232 C250 1.392 . S
N233 Co217 2.282 . S
N233 C236 1.332 . S
N233 C238 1.332 . S
C234 C235 1.386 . S
C234 C237 1.388 . S
C235 C234 1.386 . S
C235 C236 1.382 . S
C235 H261 0.950 . S
C236 N233 1.332 . S
C236 C235 1.382 . S
C236 H247 0.952 . S
C237 C234 1.388 . S
C237 C238 1.382 . S
C237 H262 0.950 . S
C238 N233 1.332 . S
C238 C237 1.382 . S
C238 H248 0.948 . S
N239 Co217 2.282 . S
N239 C243 1.332 . S
N239 C244 1.332 . S
C240 C241 1.388 . S
C240 C244 1.382 . S
C240 H263 0.950 . S
C241 C240 1.388 . S
C241 C242 1.386 . S
C242 C241 1.386 . S
C242 C243 1.382 . S
C242 H264 0.950 . S
C243 N239 1.332 . S
C243 C242 1.382 . S
C243 H245 0.952 . S
C244 N239 1.332 . S
C244 C240 1.382 . S
C244 H246 0.948 . S
H245 C243 0.952 . S
H246 C244 0.948 . S
H247 C236 0.952 . S
H248 C238 0.948 . S
C249 C215 1.395 . S
C249 C219 1.391 . S
C250 C212 1.389 1_655 S
C250 C232 1.392 . S
C251 C222 1.392 . S
C251 C224 1.389 . S
C252 C227 1.395 . S
C252 C229 1.391 1_455 S
H253 C213 0.951 1_665 S
H254 C214 0.950 . S
H255 C220 0.949 . S
H256 C221 0.950 . S
H257 C225 0.951 . S
H258 C226 0.950 . S
H259 C230 0.949 . S
H260 C231 0.950 . S
H261 C235 0.950 . S
H262 C237 0.950 . S
H263 C240 0.950 . S
H264 C242 0.950 . S
C265 C266 1.443 . S
C265 N269 1.376 . S
C265 C303 1.389 . S
C266 C265 1.443 . S
C266 C267 1.340 . S
C266 H306 0.951 . S
C267 C266 1.340 . S
C267 C268 1.439 . S
C267 H307 0.950 . S
C268 C267 1.439 . S
C268 N269 1.374 . S
C268 C302 1.395 . S
N269 C265 1.376 . S
N269 C268 1.374 . S
N269 Co270 2.008 . S
Co270 N269 2.008 . S
Co270 N271 1.995 . S
Co270 N276 2.008 . S
Co270 N281 1.995 . S
Co270 N286 2.282 . S
Co270 N292 2.282 . S
N271 Co270 1.995 . S
N271 C272 1.376 . S
N271 C275 1.383 . S
C272 N271 1.376 . S
C272 C273 1.446 . S
C272 C302 1.391 . S
C273 C272 1.446 . S
C273 C274 1.339 . S
C273 H308 0.949 . S
C274 C273 1.339 . S
C274 C275 1.439 . S
C274 H309 0.950 . S
C275 N271 1.383 . S
C275 C274 1.439 . S
C275 C304 1.392 . S
N276 Co270 2.008 . S
N276 C277 1.376 . S
N276 C280 1.374 . S
C277 N276 1.376 . S
C277 C278 1.443 . S
C277 C304 1.389 . S
C278 C277 1.443 . S
C278 C279 1.340 . S
C278 H310 0.951 . S
C279 C278 1.340 . S
C279 C280 1.439 . S
C279 H311 0.950 . S
C280 N276 1.374 . S
C280 C279 1.439 . S
C280 C305 1.395 . S
N281 Co270 1.995 . S
N281 C282 1.376 . S
N281 C285 1.383 . S
C282 N281 1.376 . S
C282 C283 1.446 1_545 S
C282 C305 1.391 . S
C283 C282 1.446 1_565 S
C283 C284 1.339 . S
C283 H312 0.949 . S
C284 C283 1.339 . S
C284 C285 1.439 1_565 S
C284 H313 0.950 . S
C285 N281 1.383 . S
C285 C284 1.439 1_545 S
C285 C303 1.392 . S
N286 Co270 2.282 . S
N286 C289 1.332 . S
N286 C291 1.332 . S
C287 C288 1.386 . S
C287 C290 1.388 . S
C288 C287 1.386 . S
C288 C289 1.382 . S
C288 H314 0.950 . S
C289 N286 1.332 . S
C289 C288 1.382 . S
C289 H300 0.952 . S
C290 C287 1.388 . S
C290 C291 1.382 . S
C290 H315 0.950 . S
C291 N286 1.332 . S
C291 C290 1.382 . S
C291 H301 0.948 . S
N292 Co270 2.282 . S
N292 C296 1.332 . S
N292 C297 1.332 . S
C293 C294 1.388 . S
C293 C297 1.382 . S
C293 H316 0.950 . S
C294 C293 1.388 . S
C294 C295 1.386 . S
C295 C294 1.386 . S
C295 C296 1.382 . S
C295 H317 0.950 . S
C296 N292 1.332 . S
C296 C295 1.382 . S
C296 H298 0.952 . S
C297 N292 1.332 . S
C297 C293 1.382 . S
C297 H299 0.948 . S
H298 C296 0.952 . S
H299 C297 0.948 . S
H300 C289 0.952 . S
H301 C291 0.948 . S
C302 C268 1.395 . S
C302 C272 1.391 . S
C303 C265 1.389 . S
C303 C285 1.392 . S
C304 C275 1.392 . S
C304 C277 1.389 . S
C305 C280 1.395 . S
C305 C282 1.391 . S
H306 C266 0.951 . S
H307 C267 0.950 . S
H308 C273 0.949 . S
H309 C274 0.950 . S
H310 C278 0.951 . S
H311 C279 0.950 . S
H312 C283 0.949 . S
H313 C284 0.950 . S
H314 C288 0.950 . S
H315 C290 0.950 . S
H316 C293 0.950 . S
H317 C295 0.950 . S
C318 C319 1.363 . S
C318 C324 1.379 1_545 S
C318 N326 1.356 . S
C319 C318 1.363 . S
C319 C325 1.363 1_545 S
C320 C321 1.363 . S
C320 C325 1.379 . S
C320 N327 1.356 . S
C321 C320 1.363 . S
C321 C324 1.363 . S
N322 C324 1.356 . S
N322 H334 0.984 1_565 S
N322 H335 0.985 . S
N323 C325 1.356 . S
N323 H328 0.984 1_565 S
N323 H329 0.985 . S
C324 C318 1.379 1_565 S
C324 C321 1.363 . S
C324 N322 1.356 . S
C325 C319 1.363 1_565 S
C325 C320 1.379 . S
C325 N323 1.356 . S
N326 C318 1.356 . S
N326 H332 0.984 . S
N326 H333 0.984 . S
N327 C320 1.356 . S
N327 H330 0.984 . S
N327 H331 0.985 . S
H328 N323 0.984 1_545 S
H329 N323 0.985 . S
H330 N327 0.984 . S
H331 N327 0.985 . S
H332 N326 0.984 . S
H333 N326 0.984 . S
H334 N322 0.984 1_545 S
H335 N322 0.985 . S
C336 C337 1.363 . S
C336 C342 1.379 . S
C336 N344 1.356 . S
C337 C336 1.363 . S
C337 C343 1.363 1_545 S
C338 C339 1.363 1_565 S
C338 C343 1.379 . S
C338 N345 1.356 . S
C339 C338 1.363 1_545 S
C339 C342 1.363 . S
N340 C342 1.356 . S
N340 H352 0.984 . S
N340 H353 0.985 . S
N341 C343 1.356 . S
N341 H346 0.984 . S
N341 H347 0.985 . S
C342 C336 1.379 . S
C342 C339 1.363 . S
C342 N340 1.356 . S
C343 C337 1.363 1_565 S
C343 C338 1.379 . S
C343 N341 1.356 . S
N344 C336 1.356 . S
N344 H350 0.984 . S
N344 H351 0.984 . S
N345 C338 1.356 . S
N345 H348 0.984 . S
N345 H349 0.985 . S
H346 N341 0.984 . S
H347 N341 0.985 . S
H348 N345 0.984 . S
H349 N345 0.985 . S
H350 N344 0.984 . S
H351 N344 0.984 . S
H352 N340 0.984 . S
H353 N340 0.985 . S
C354 C355 1.363 . S
C354 C360 1.379 . S
C354 N362 1.356 . S
C355 C354 1.363 . S
C355 C361 1.363 . S
C356 C357 1.363 . S
C356 C361 1.379 . S
C356 N363 1.356 . S
C357 C356 1.363 . S
C357 C360 1.363 . S
N358 C360 1.356 . S
N358 H370 0.984 . S
N358 H371 0.985 . S
N359 C361 1.356 . S
N359 H364 0.984 1_565 S
N359 H365 0.985 1_565 S
C360 C354 1.379 . S
C360 C357 1.363 . S
C360 N358 1.356 . S
C361 C355 1.363 . S
C361 C356 1.379 . S
C361 N359 1.356 . S
N362 C354 1.356 . S
N362 H368 0.984 . S
N362 H369 0.984 . S
N363 C356 1.356 . S
N363 H366 0.984 . S
N363 H367 0.985 . S
H364 N359 0.984 1_545 S
H365 N359 0.985 1_545 S
H366 N363 0.984 . S
H367 N363 0.985 . S
H368 N362 0.984 . S
H369 N362 0.984 . S
H370 N358 0.984 . S
H371 N358 0.985 . S
C372 C373 1.363 . S
C372 C378 1.379 . S
C372 N380 1.356 . S
C373 C372 1.363 . S
C373 C379 1.363 1_545 S
C374 C375 1.363 1_565 S
C374 C379 1.379 . S
C374 N381 1.356 . S
C375 C374 1.363 1_545 S
C375 C378 1.363 . S
N376 C378 1.356 . S
N376 H388 0.984 . S
N376 H389 0.985 . S
N377 C379 1.356 . S
N377 H382 0.984 . S
N377 H383 0.985 . S
C378 C372 1.379 . S
C378 C375 1.363 . S
C378 N376 1.356 . S
C379 C373 1.363 1_565 S
C379 C374 1.379 . S
C379 N377 1.356 . S
N380 C372 1.356 . S
N380 H386 0.984 . S
N380 H387 0.984 . S
N381 C374 1.356 . S
N381 H384 0.984 . S
N381 H385 0.985 . S
H382 N377 0.984 . S
H383 N377 0.985 . S
H384 N381 0.984 . S
H385 N381 0.985 . S
H386 N380 0.984 . S
H387 N380 0.984 . S
H388 N376 0.984 . S
H389 N376 0.985 . S
C390 C391 1.363 . S
C390 C396 1.379 . S
C390 N398 1.356 . S
C391 C390 1.363 . S
C391 C397 1.363 . S
C392 C393 1.363 . S
C392 C397 1.379 1_545 S
C392 N399 1.356 . S
C393 C392 1.363 . S
C393 C396 1.363 1_545 S
N394 C396 1.356 1_545 S
N394 H406 0.984 . S
N394 H407 0.985 . S
N395 C397 1.356 . S
N395 H400 0.984 . S
N395 H401 0.985 . S
C396 C390 1.379 . S
C396 C393 1.363 1_565 S
C396 N394 1.356 1_565 S
C397 C391 1.363 . S
C397 C392 1.379 1_565 S
C397 N395 1.356 . S
N398 C390 1.356 . S
N398 H404 0.984 . S
N398 H405 0.984 . S
N399 C392 1.356 . S
N399 H402 0.984 . S
N399 H403 0.985 . S
H400 N395 0.984 . S
H401 N395 0.985 . S
H402 N399 0.984 . S
H403 N399 0.985 . S
H404 N398 0.984 . S
H405 N398 0.984 . S
H406 N394 0.984 . S
H407 N394 0.985 . S
C408 C409 1.363 . S
C408 C414 1.379 . S
C408 N416 1.356 . S
C409 C408 1.363 . S
C409 C415 1.363 . S
C410 C411 1.363 . S
C410 C415 1.379 . S
C410 N417 1.356 1_565 S
C411 C410 1.363 . S
C411 C414 1.363 . S
N412 C414 1.356 . S
N412 H424 0.984 . S
N412 H425 0.985 . S
N413 C415 1.356 . S
N413 H418 0.984 . S
N413 H419 0.985 . S
C414 C408 1.379 . S
C414 C411 1.363 . S
C414 N412 1.356 . S
C415 C409 1.363 . S
C415 C410 1.379 . S
C415 N413 1.356 . S
N416 C408 1.356 . S
N416 H422 0.984 . S
N416 H423 0.984 . S
N417 C410 1.356 1_545 S
N417 H420 0.984 . S
N417 H421 0.985 . S
H418 N413 0.984 . S
H419 N413 0.985 . S
H420 N417 0.984 . S
H421 N417 0.985 . S
H422 N416 0.984 . S
H423 N416 0.984 . S
H424 N412 0.984 . S
H425 N412 0.985 . S
C426 C427 1.363 . S
C426 C432 1.379 . S
C426 N434 1.356 . S
C427 C426 1.363 . S
C427 C433 1.363 . S
C428 C429 1.363 . S
C428 C433 1.379 . S
C428 N435 1.356 . S
C429 C428 1.363 . S
C429 C432 1.363 . S
N430 C432 1.356 . S
N430 H442 0.984 . S
N430 H443 0.985 . S
N431 C433 1.356 . S
N431 H436 0.984 . S
N431 H437 0.985 . S
C432 C426 1.379 . S
C432 C429 1.363 . S
C432 N430 1.356 . S
C433 C427 1.363 . S
C433 C428 1.379 . S
C433 N431 1.356 . S
N434 C426 1.356 . S
N434 H440 0.984 . S
N434 H441 0.984 . S
N435 C428 1.356 . S
N435 H438 0.984 . S
N435 H439 0.985 . S
H436 N431 0.984 . S
H437 N431 0.985 . S
H438 N435 0.984 . S
H439 N435 0.985 . S
H440 N434 0.984 . S
H441 N434 0.984 . S
H442 N430 0.984 . S
H443 N430 0.985 . S
C444 C445 1.363 1_655 S
C444 C450 1.379 . S
C444 N452 1.356 1_565 S
C445 C444 1.363 1_455 S
C445 C451 1.363 . S
C446 C447 1.363 . S
C446 C451 1.379 . S
C446 N453 1.356 . S
C447 C446 1.363 . S
C447 C450 1.363 1_455 S
N448 C450 1.356 1_545 S
N448 H460 0.984 . S
N448 H461 0.985 . S
N449 C451 1.356 . S
N449 H454 0.984 . S
N449 H455 0.985 . S
C450 C444 1.379 . S
C450 C447 1.363 1_655 S
C450 N448 1.356 1_565 S
C451 C445 1.363 . S
C451 C446 1.379 . S
C451 N449 1.356 . S
N452 C444 1.356 1_545 S
N452 H458 0.984 . S
N452 H459 0.984 . S
N453 C446 1.356 . S
N453 H456 0.984 . S
N453 H457 0.985 . S
H454 N449 0.984 . S
H455 N449 0.985 . S
H456 N453 0.984 . S
H457 N453 0.985 . S
H458 N452 0.984 . S
H459 N452 0.984 . S
H460 N448 0.984 . S
H461 N448 0.985 . S
C462 C463 1.363 . S
C462 C468 1.379 . S
C462 N470 1.356 . S
C463 C462 1.363 . S
C463 C469 1.363 . S
C464 C465 1.363 . S
C464 C469 1.379 . S
C464 N471 1.356 1_455 S
C465 C464 1.363 . S
C465 C468 1.363 . S
N466 C468 1.356 . S
N466 H478 0.984 . S
N466 H479 0.985 . S
N467 C469 1.356 1_655 S
N467 H472 0.984 . S
N467 H473 0.985 . S
C468 C462 1.379 . S
C468 C465 1.363 . S
C468 N466 1.356 . S
C469 C463 1.363 . S
C469 C464 1.379 . S
C469 N467 1.356 1_455 S
N470 C462 1.356 . S
N470 H476 0.984 . S
N470 H477 0.984 . S
N471 C464 1.356 1_655 S
N471 H474 0.984 . S
N471 H475 0.985 . S
H472 N467 0.984 . S
H473 N467 0.985 . S
H474 N471 0.984 . S
H475 N471 0.985 . S
H476 N470 0.984 . S
H477 N470 0.984 . S
H478 N466 0.984 . S
H479 N466 0.985 . S
C480 C481 1.363 . S
C480 C486 1.379 1_554 S
C480 N488 1.356 . S
C481 C480 1.363 . S
C481 C487 1.363 . S
C482 C483 1.363 1_554 S
C482 C487 1.379 . S
C482 N489 1.351 1_554 S
C483 C482 1.363 1_556 S
C483 C486 1.363 . S
N484 C486 1.356 . S
N484 H496 0.984 . S
N484 H497 0.985 . S
N485 C487 1.356 . S
N485 H490 0.984 . S
N485 H491 0.985 . S
C486 C480 1.379 1_556 S
C486 C483 1.363 . S
C486 N484 1.356 . S
C487 C481 1.363 . S
C487 C482 1.379 . S
C487 N485 1.356 . S
N488 C480 1.356 . S
N488 H494 0.984 . S
N488 H495 0.984 . S
N489 C482 1.351 1_556 S
N489 H492 0.992 . S
N489 H493 0.982 1_556 S
H490 N485 0.984 . S
H491 N485 0.985 . S
H492 N489 0.992 . S
H493 N489 0.982 1_554 S
H494 N488 0.984 . S
H495 N488 0.984 . S
H496 N484 0.984 . S
H497 N484 0.985 . S
C498 C499 1.363 . S
C498 C504 1.379 . S
C498 N506 1.356 . S
C499 C498 1.363 . S
C499 C505 1.363 . S
C500 C501 1.363 . S
C500 C505 1.379 . S
C500 N507 1.356 . S
C501 C500 1.363 . S
C501 C504 1.363 . S
N502 C504 1.356 1_565 S
N502 H514 0.984 . S
N502 H515 0.985 . S
N503 C505 1.356 . S
N503 H508 0.984 . S
N503 H509 0.985 . S
C504 C498 1.379 . S
C504 C501 1.363 . S
C504 N502 1.356 1_545 S
C505 C499 1.363 . S
C505 C500 1.379 . S
C505 N503 1.356 . S
N506 C498 1.356 . S
N506 H512 0.984 1_545 S
N506 H513 0.984 . S
N507 C500 1.356 . S
N507 H510 0.984 . S
N507 H511 0.985 . S
H508 N503 0.984 . S
H509 N503 0.985 . S
H510 N507 0.984 . S
H511 N507 0.985 . S
H512 N506 0.984 1_565 S
H513 N506 0.984 . S
H514 N502 0.984 . S
H515 N502 0.985 . S
C516 C517 1.363 1_655 S
C516 C522 1.379 . S
C516 N524 1.356 1_545 S
C517 C516 1.363 1_455 S
C517 C523 1.363 . S
C518 C519 1.363 . S
C518 C523 1.379 . S
C518 N525 1.356 . S
C519 C518 1.363 . S
C519 C522 1.363 1_455 S
N520 C522 1.356 . S
N520 H532 0.984 1_545 S
N520 H533 0.985 . S
N521 C523 1.356 . S
N521 H526 0.984 . S
N521 H527 0.985 . S
C522 C516 1.379 . S
C522 C519 1.363 1_655 S
C522 N520 1.356 . S
C523 C517 1.363 . S
C523 C518 1.379 . S
C523 N521 1.356 . S
N524 C516 1.356 1_565 S
N524 H530 0.984 . S
N524 H531 0.984 . S
N525 C518 1.356 . S
N525 H528 0.984 . S
N525 H529 0.985 . S
H526 N521 0.984 . S
H527 N521 0.985 . S
H528 N525 0.984 . S
H529 N525 0.985 . S
H530 N524 0.984 . S
H531 N524 0.984 . S
H532 N520 0.984 1_565 S
H533 N520 0.985 . S
C319 C39 1.499 . S
C321 C38 1.499 . S
C337 C91 1.499 . S
C339 C92 1.499 . S
C355 C145 1.500 1_565 S
C357 C144 1.500 . S
C373 C198 1.500 . S
C375 C197 1.500 . S
C391 C251 1.500 . S
C393 C250 1.500 . S
C409 C304 1.499 . S
C411 C303 1.499 1_565 S
C427 C287 1.542 . S
C429 C22 1.542 . S
C445 C181 1.543 . S
C447 C75 1.542 . S
C463 C128 1.536 . S
C465 C234 1.536 . S
C481 C29 1.568 . S
C483 C241 1.569 . S
C499 C294 1.577 . S
C501 C82 1.577 . S
C517 C188 1.564 . S
C519 C135 1.564 . S
