# Generated by pormake.
# Topology snl, (6)-cn, num edge types: 1
# Building blocks:
#     Node 0, Type 0, BuildingBlock: CUKXOW_clean_sbu_0, # of connection points: 6
#     Node 1, Type 0, BuildingBlock: CUKXOW_clean_sbu_0, # of connection points: 6
#     Node 2, Type 0, BuildingBlock: CUKXOW_clean_sbu_0, # of connection points: 6
#     Node 3, Type 0, BuildingBlock: CUKXOW_clean_sbu_0, # of connection points: 6
#     Node 4, Type 0, BuildingBlock: CUKXOW_clean_sbu_0, # of connection points: 6
#     Node 5, Type 0, BuildingBlock: CUKXOW_clean_sbu_0, # of connection points: 6
#     Node 6, Type 0, BuildingBlock: CUKXOW_clean_sbu_0, # of connection points: 6
#     Node 7, Type 0, BuildingBlock: CUKXOW_clean_sbu_0, # of connection points: 6
#     Node 8, Type 0, BuildingBlock: CUKXOW_clean_sbu_0, # of connection points: 6
#     Node 9, Type 0, BuildingBlock: CUKXOW_clean_sbu_0, # of connection points: 6
#     Node 10, Type 0, BuildingBlock: CUKXOW_clean_sbu_0, # of connection points: 6
#     Node 11, Type 0, BuildingBlock: CUKXOW_clean_sbu_0, # of connection points: 6
#     Node 12, Type 0, BuildingBlock: CUKXOW_clean_sbu_0, # of connection points: 6
#     Node 13, Type 0, BuildingBlock: CUKXOW_clean_sbu_0, # of connection points: 6
#     Node 14, Type 0, BuildingBlock: CUKXOW_clean_sbu_0, # of connection points: 6
#     Node 15, Type 0, BuildingBlock: CUKXOW_clean_sbu_0, # of connection points: 6
#     Edge 16, Type (0, 0), BuildingBlock: UVAHIK_clean_linker_0, # of connection points: 2
#     Edge 17, Type (0, 0), BuildingBlock: UVAHIK_clean_linker_0, # of connection points: 2
#     Edge 18, Type (0, 0), BuildingBlock: UVAHIK_clean_linker_0, # of connection points: 2
#     Edge 19, Type (0, 0), BuildingBlock: UVAHIK_clean_linker_0, # of connection points: 2
#     Edge 20, Type (0, 0), BuildingBlock: UVAHIK_clean_linker_0, # of connection points: 2
#     Edge 21, Type (0, 0), BuildingBlock: UVAHIK_clean_linker_0, # of connection points: 2
#     Edge 22, Type (0, 0), BuildingBlock: UVAHIK_clean_linker_0, # of connection points: 2
#     Edge 23, Type (0, 0), BuildingBlock: UVAHIK_clean_linker_0, # of connection points: 2
#     Edge 24, Type (0, 0), BuildingBlock: UVAHIK_clean_linker_0, # of connection points: 2
#     Edge 25, Type (0, 0), BuildingBlock: UVAHIK_clean_linker_0, # of connection points: 2
#     Edge 26, Type (0, 0), BuildingBlock: UVAHIK_clean_linker_0, # of connection points: 2
#     Edge 27, Type (0, 0), BuildingBlock: UVAHIK_clean_linker_0, # of connection points: 2
#     Edge 28, Type (0, 0), BuildingBlock: UVAHIK_clean_linker_0, # of connection points: 2
#     Edge 29, Type (0, 0), BuildingBlock: UVAHIK_clean_linker_0, # of connection points: 2
#     Edge 30, Type (0, 0), BuildingBlock: UVAHIK_clean_linker_0, # of connection points: 2
#     Edge 31, Type (0, 0), BuildingBlock: UVAHIK_clean_linker_0, # of connection points: 2
#     Edge 32, Type (0, 0), BuildingBlock: UVAHIK_clean_linker_0, # of connection points: 2
#     Edge 33, Type (0, 0), BuildingBlock: UVAHIK_clean_linker_0, # of connection points: 2
#     Edge 34, Type (0, 0), BuildingBlock: UVAHIK_clean_linker_0, # of connection points: 2
#     Edge 35, Type (0, 0), BuildingBlock: UVAHIK_clean_linker_0, # of connection points: 2
#     Edge 36, Type (0, 0), BuildingBlock: UVAHIK_clean_linker_0, # of connection points: 2
#     Edge 37, Type (0, 0), BuildingBlock: UVAHIK_clean_linker_0, # of connection points: 2
#     Edge 38, Type (0, 0), BuildingBlock: UVAHIK_clean_linker_0, # of connection points: 2
#     Edge 39, Type (0, 0), BuildingBlock: UVAHIK_clean_linker_0, # of connection points: 2
#     Edge 40, Type (0, 0), BuildingBlock: UVAHIK_clean_linker_0, # of connection points: 2
#     Edge 41, Type (0, 0), BuildingBlock: UVAHIK_clean_linker_0, # of connection points: 2
#     Edge 42, Type (0, 0), BuildingBlock: UVAHIK_clean_linker_0, # of connection points: 2
#     Edge 43, Type (0, 0), BuildingBlock: UVAHIK_clean_linker_0, # of connection points: 2
#     Edge 44, Type (0, 0), BuildingBlock: UVAHIK_clean_linker_0, # of connection points: 2
#     Edge 45, Type (0, 0), BuildingBlock: UVAHIK_clean_linker_0, # of connection points: 2
#     Edge 46, Type (0, 0), BuildingBlock: UVAHIK_clean_linker_0, # of connection points: 2
#     Edge 47, Type (0, 0), BuildingBlock: UVAHIK_clean_linker_0, # of connection points: 2
#     Edge 48, Type (0, 0), BuildingBlock: UVAHIK_clean_linker_0, # of connection points: 2
#     Edge 49, Type (0, 0), BuildingBlock: UVAHIK_clean_linker_0, # of connection points: 2
#     Edge 50, Type (0, 0), BuildingBlock: UVAHIK_clean_linker_0, # of connection points: 2
#     Edge 51, Type (0, 0), BuildingBlock: UVAHIK_clean_linker_0, # of connection points: 2
#     Edge 52, Type (0, 0), BuildingBlock: UVAHIK_clean_linker_0, # of connection points: 2
#     Edge 53, Type (0, 0), BuildingBlock: UVAHIK_clean_linker_0, # of connection points: 2
#     Edge 54, Type (0, 0), BuildingBlock: UVAHIK_clean_linker_0, # of connection points: 2
#     Edge 55, Type (0, 0), BuildingBlock: UVAHIK_clean_linker_0, # of connection points: 2
#     Edge 56, Type (0, 0), BuildingBlock: UVAHIK_clean_linker_0, # of connection points: 2
#     Edge 57, Type (0, 0), BuildingBlock: UVAHIK_clean_linker_0, # of connection points: 2
#     Edge 58, Type (0, 0), BuildingBlock: UVAHIK_clean_linker_0, # of connection points: 2
#     Edge 59, Type (0, 0), BuildingBlock: UVAHIK_clean_linker_0, # of connection points: 2
#     Edge 60, Type (0, 0), BuildingBlock: UVAHIK_clean_linker_0, # of connection points: 2
#     Edge 61, Type (0, 0), BuildingBlock: UVAHIK_clean_linker_0, # of connection points: 2
#     Edge 62, Type (0, 0), BuildingBlock: UVAHIK_clean_linker_0, # of connection points: 2
#     Edge 63, Type (0, 0), BuildingBlock: UVAHIK_clean_linker_0, # of connection points: 2
# Relax obj value: 0.191
# Max RMSD: 0.283
# Mean RMSD: 0.224
data_MOF--net-snl--node1-CUKXOW_clean_sbu_0--edge1-UVAHIK_clean_linker_0
_symmetry_space_group_name_H-M    P1
_symmetry_Int_Tables_number       1
_symmetry_cell_setting            triclinic
loop_
_symmetry_equiv_pos_as_xyz
'x, y, z'
_cell_length_a     84.489978
_cell_length_b     82.160254
_cell_length_c     18.848737
_cell_angle_alpha  94.550103
_cell_angle_beta   94.545901
_cell_angle_gamma 90.07929
loop_
_atom_site_label
_atom_site_type_symbol
_atom_site_fract_x
_atom_site_fract_y
_atom_site_fract_z
_atom_type_partial_charge
Tb0 Tb 0.11175 0.62126 0.13319 0.0
C1 C 0.12826 0.65425 0.1981 0.0
Tb2 Tb 0.14916 0.62208 0.18547 0.0
O3 O 0.10315 0.61941 0.24048 0.0
O4 O 0.12684 0.62009 0.22621 0.0
O5 O 0.11631 0.64734 0.15588 0.0
C6 C 0.17714 0.62196 0.26101 0.0
O7 O 0.14099 0.6462 0.22235 0.0
C8 C 0.14354 0.62389 0.04476 0.0
C9 C 0.13234 0.58881 0.12802 0.0
O10 O 0.17181 0.6337 0.2237 0.0
O11 O 0.1666 0.61029 0.25656 0.0
O12 O 0.15764 0.62388 0.07778 0.0
O13 O 0.13404 0.62313 0.09226 0.0
O14 O 0.14435 0.59603 0.16859 0.0
O15 O 0.11975 0.5967 0.10119 0.0
C16 C 0.08421 0.6213 0.05387 0.0
O17 O 0.08916 0.60974 0.09313 0.0
O18 O 0.09485 0.63289 0.05889 0.0
C19 C 0.11727 0.61933 0.27354 0.0
Tb20 Tb 0.60595 0.87567 0.45452 0.0
C21 C 0.62398 0.84213 0.44766 0.0
Tb22 Tb 0.64147 0.87663 0.44428 0.0
O23 O 0.60255 0.86484 0.34516 0.0
O24 O 0.6213 0.88103 0.37435 0.0
O25 O 0.61085 0.84986 0.46506 0.0
C26 C 0.67143 0.87482 0.405 0.0
O27 O 0.6369 0.85011 0.43285 0.0
C28 C 0.63268 0.88074 0.57518 0.0
C29 C 0.62414 0.90969 0.46758 0.0
O30 O 0.65867 0.87178 0.36283 0.0
O31 O 0.66726 0.87874 0.46873 0.0
O32 O 0.64554 0.88683 0.55452 0.0
O33 O 0.62616 0.87143 0.52474 0.0
O34 O 0.63596 0.90231 0.43581 0.0
O35 O 0.61213 0.90128 0.48864 0.0
C36 C 0.575 0.87886 0.47774 0.0
O37 O 0.58269 0.88719 0.4359 0.0
O38 O 0.58484 0.86889 0.50798 0.0
C39 C 0.61513 0.87141 0.32435 0.0
Tb40 Tb 0.39989 0.36903 0.64914 0.0
C41 C 0.37959 0.3376 0.66498 0.0
Tb42 Tb 0.36273 0.37163 0.67656 0.0
O43 O 0.40881 0.37079 0.76364 0.0
O44 O 0.38516 0.37164 0.73361 0.0
O45 O 0.39115 0.34382 0.6309 0.0
C46 C 0.33495 0.37272 0.73426 0.0
O47 O 0.36911 0.34683 0.6982 0.0
C48 C 0.36798 0.36957 0.53799 0.0
C49 C 0.38285 0.40363 0.66475 0.0
O50 O 0.3407 0.36 0.70016 0.0
O51 O 0.34493 0.38484 0.73658 0.0
O52 O 0.35405 0.3715 0.56202 0.0
O53 O 0.37744 0.36864 0.5922 0.0
O54 O 0.37014 0.3971 0.68928 0.0
O55 O 0.39487 0.39492 0.64054 0.0
C56 C 0.4275 0.36748 0.58925 0.0
O57 O 0.41753 0.37947 0.5863 0.0
O58 O 0.42179 0.35625 0.62501 0.0
C59 C 0.39482 0.37188 0.78773 0.0
Tb60 Tb 0.88153 0.14286 0.9073 0.0
C61 C 0.91393 0.12286 0.91088 0.0
Tb62 Tb 0.88175 0.10417 0.93119 0.0
O63 O 0.88121 0.15112 1.02214 0.0
O64 O 0.88191 0.12702 0.98989 0.0
O65 O 0.9057 0.13539 0.8864 0.0
C66 C 0.88106 0.07514 0.98759 0.0
O67 O 0.90719 0.11039 0.93908 0.0
C68 C 0.88134 0.10999 0.79411 0.0
C69 C 0.84915 0.12368 0.91109 0.0
O70 O 0.89293 0.08541 0.99585 0.0
O71 O 0.86961 0.08137 0.94863 0.0
O72 O 0.88167 0.09546 0.81706 0.0
O73 O 0.88129 0.11987 0.84847 0.0
O74 O 0.85688 0.11141 0.9406 0.0
O75 O 0.8565 0.13622 0.88673 0.0
C76 C 0.88194 0.17322 0.86414 0.0
O77 O 0.87024 0.16281 0.85063 0.0
O78 O 0.89351 0.16624 0.89948 0.0
C79 C 0.88157 0.13663 0.04468 0.0
Tb80 Tb 0.10713 0.38243 0.98671 0.0
C81 C 0.12136 0.34893 0.92934 0.0
Tb82 Tb 0.14438 0.3799 0.96002 0.0
O83 O 0.09862 0.38475 0.87348 0.0
O84 O 0.12224 0.38326 0.90428 0.0
O85 O 0.11005 0.35625 0.96523 0.0
C86 C 0.17227 0.37858 0.90359 0.0
O87 O 0.13453 0.35644 0.91429 0.0
C88 C 0.13876 0.37796 0.09675 0.0
C89 C 0.12936 0.41389 1.00549 0.0
O90 O 0.16538 0.36647 0.92946 0.0
O91 O 0.16335 0.39143 0.90869 0.0
O92 O 0.15281 0.37731 0.07323 0.0
O93 O 0.12929 0.3793 0.04288 0.0
O94 O 0.14082 0.40617 0.97202 0.0
O95 O 0.1166 0.40646 0.02527 0.0
C96 C 0.07978 0.38371 0.04787 0.0
O97 O 0.08529 0.39498 1.0117 0.0
O98 O 0.08973 0.37165 0.04987 0.0
C99 C 0.11273 0.38438 0.85026 0.0
Tb100 Tb 0.89936 0.87151 0.14186 0.0
C101 C 0.88035 0.83795 0.13462 0.0
Tb102 Tb 0.86255 0.87159 0.15703 0.0
O103 O 0.90312 0.88332 0.24974 0.0
O104 O 0.88367 0.86801 0.22351 0.0
O105 O 0.8928 0.84581 0.11411 0.0
C106 C 0.8337 0.87152 0.20719 0.0
O107 O 0.86822 0.84573 0.16267 0.0
C108 C 0.86877 0.87117 1.02123 0.0
C109 C 0.88088 0.90486 0.13845 0.0
O110 O 0.83816 0.86242 0.15303 0.0
O111 O 0.84563 0.8807 0.23415 0.0
O112 O 0.85455 0.87132 0.04267 0.0
O113 O 0.87821 0.87136 0.07622 0.0
O114 O 0.86832 0.89784 0.16273 0.0
O115 O 0.89356 0.89652 0.11917 0.0
C116 C 0.93001 0.86737 0.11752 0.0
O117 O 0.9202 0.87692 0.08414 0.0
O118 O 0.92241 0.85997 0.16294 0.0
C119 C 0.89023 0.87775 0.27213 0.0
Tb120 Tb 0.37612 0.63837 0.426 0.0
C121 C 0.40924 0.6226 0.46848 0.0
Tb122 Tb 0.37817 0.60011 0.45457 0.0
O123 O 0.37537 0.64759 0.53976 0.0
O124 O 0.37692 0.62322 0.5103 0.0
O125 O 0.40158 0.63441 0.4359 0.0
C126 C 0.3802 0.5718 0.5142 0.0
O127 O 0.4021 0.6094 0.48832 0.0
C128 C 0.37771 0.60545 0.31621 0.0
C129 C 0.34494 0.61642 0.41911 0.0
O130 O 0.39066 0.57757 0.47576 0.0
O131 O 0.36854 0.58204 0.51945 0.0
O132 O 0.37838 0.59104 0.34019 0.0
O133 O 0.37735 0.61531 0.37035 0.0
O134 O 0.35267 0.60446 0.45051 0.0
O135 O 0.35212 0.62918 0.39582 0.0
C136 C 0.37517 0.66581 0.3596 0.0
O137 O 0.36428 0.66087 0.39808 0.0
O138 O 0.38666 0.65532 0.35873 0.0
C139 C 0.37618 0.63317 0.56401 0.0
Tb140 Tb 0.61167 0.11837 0.63867 0.0
C141 C 0.63093 0.15142 0.66599 0.0
Tb142 Tb 0.64938 0.11838 0.68609 0.0
O143 O 0.60402 0.11728 0.74778 0.0
O144 O 0.62737 0.11895 0.73131 0.0
O145 O 0.61934 0.14324 0.62644 0.0
C146 C 0.67849 0.1203 0.75494 0.0
O147 O 0.64234 0.14402 0.70424 0.0
C148 C 0.64323 0.11764 0.54532 0.0
C149 C 0.63059 0.08488 0.63995 0.0
O150 O 0.67208 0.13097 0.71451 0.0
O151 O 0.66827 0.10855 0.75838 0.0
O152 O 0.6574 0.1173 0.57729 0.0
O153 O 0.63375 0.11822 0.59349 0.0
O154 O 0.64336 0.09219 0.67547 0.0
O155 O 0.61789 0.09288 0.61457 0.0
C156 C 0.58172 0.12075 0.58138 0.0
O157 O 0.59011 0.10746 0.58001 0.0
O158 O 0.59053 0.13268 0.61187 0.0
C159 C 0.61817 0.11797 0.77967 0.0
Tb160 Tb 0.85073 0.38203 0.88349 0.0
C161 C 0.86733 0.41645 0.92934 0.0
Tb162 Tb 0.88795 0.38396 0.93698 0.0
O163 O 0.84192 0.38213 0.99146 0.0
O164 O 0.8656 0.38331 0.97805 0.0
O165 O 0.85526 0.40842 0.89204 0.0
C166 C 0.91557 0.38552 1.01609 0.0
O167 O 0.87994 0.40906 0.95913 0.0
C168 C 0.88272 0.38297 0.79513 0.0
C169 C 0.87148 0.34957 0.89237 0.0
O170 O 0.91009 0.3966 0.97545 0.0
O171 O 0.90541 0.37353 1.01266 0.0
O172 O 0.89675 0.38378 0.82896 0.0
O173 O 0.8731 0.38266 0.84239 0.0
O174 O 0.88328 0.35774 0.93082 0.0
O175 O 0.8589 0.35685 0.86159 0.0
C176 C 0.82335 0.38033 0.80254 0.0
O177 O 0.82838 0.36965 0.84614 0.0
O178 O 0.83379 0.39203 0.80427 0.0
C179 C 0.85597 0.38293 0.02527 0.0
Tb180 Tb 0.34741 0.12926 0.69716 0.0
C181 C 0.36659 0.09664 0.69928 0.0
Tb182 Tb 0.38294 0.13068 0.68486 0.0
O183 O 0.34302 0.11879 0.5869 0.0
O184 O 0.36247 0.13383 0.61471 0.0
O185 O 0.35423 0.10467 0.72371 0.0
C186 C 0.41318 0.12872 0.64918 0.0
O187 O 0.37864 0.10435 0.67528 0.0
C188 C 0.37409 0.13566 0.81645 0.0
C189 C 0.36411 0.16319 0.6786 0.0
O190 O 0.40153 0.11934 0.62141 0.0
O191 O 0.40774 0.1391 0.69644 0.0
O192 O 0.38693 0.1415 0.79483 0.0
O193 O 0.36785 0.12598 0.76714 0.0
O194 O 0.3762 0.15476 0.65424 0.0
O195 O 0.35201 0.15585 0.70465 0.0
C196 C 0.31719 0.1308 0.73403 0.0
O197 O 0.32855 0.14093 0.75833 0.0
O198 O 0.32291 0.11996 0.68962 0.0
C199 C 0.35603 0.12427 0.56539 0.0
Tb200 Tb 0.64365 0.63128 0.42506 0.0
C201 C 0.62395 0.59863 0.43389 0.0
Tb202 Tb 0.60647 0.63259 0.45126 0.0
O203 O 0.65244 0.63302 0.53967 0.0
O204 O 0.62877 0.6334 0.50902 0.0
O205 O 0.63586 0.60571 0.40517 0.0
C206 C 0.57838 0.63415 0.50672 0.0
O207 O 0.61234 0.60704 0.46328 0.0
C208 C 0.6117 0.63007 0.31277 0.0
C209 C 0.62656 0.66544 0.44929 0.0
O210 O 0.58761 0.62151 0.50534 0.0
O211 O 0.58512 0.64593 0.47795 0.0
O212 O 0.59769 0.63096 0.33663 0.0
O213 O 0.6213 0.63036 0.36709 0.0
O214 O 0.6142 0.6581 0.47348 0.0
O215 O 0.63858 0.65731 0.42175 0.0
C216 C 0.67114 0.62968 0.3648 0.0
O217 O 0.66044 0.64082 0.35553 0.0
O218 O 0.6663 0.61943 0.40759 0.0
C219 C 0.63838 0.63372 0.56332 0.0
Tb220 Tb 0.13327 0.89322 0.22016 0.0
C221 C 0.16609 0.87622 0.26017 0.0
Tb222 Tb 0.13407 0.85495 0.24576 0.0
O223 O 0.13276 0.90209 0.33432 0.0
O224 O 0.13308 0.87778 0.3033 0.0
O225 O 0.15877 0.88862 0.23013 0.0
C226 C 0.13328 0.82634 0.30271 0.0
O227 O 0.15849 0.86313 0.27869 0.0
C228 C 0.13457 0.86043 0.10839 0.0
C229 C 0.10137 0.87208 0.20468 0.0
O230 O 0.14531 0.83215 0.27372 0.0
O231 O 0.12178 0.83681 0.30071 0.0
O232 O 0.13486 0.84598 0.13192 0.0
O233 O 0.13411 0.87031 0.16242 0.0
O234 O 0.10862 0.86005 0.23761 0.0
O235 O 0.10911 0.88486 0.18449 0.0
C236 C 0.13205 0.92176 0.16304 0.0
O237 O 0.12163 0.91634 0.2026 0.0
O238 O 0.14322 0.91104 0.15511 0.0
C239 C 0.13281 0.88761 0.35754 0.0
Tb240 Tb 0.85408 0.62795 0.04358 0.0
C241 C 0.87023 0.59373 1.00794 0.0
Tb242 Tb 0.89133 0.62639 1.01727 0.0
O243 O 0.84538 0.62794 0.92931 0.0
O244 O 0.86904 0.62695 0.95994 0.0
O245 O 0.85821 0.60163 0.03657 0.0
C246 C 0.91922 0.62468 0.96019 0.0
O247 O 0.88303 0.60122 0.98839 0.0
C248 C 0.88602 0.62725 0.15524 0.0
C249 C 0.87492 0.66059 0.04999 0.0
O250 O 0.91308 0.61342 0.99427 0.0
O251 O 0.90954 0.63694 0.95742 0.0
O252 O 0.90005 0.62662 0.13158 0.0
O253 O 0.87641 0.62744 0.10104 0.0
O254 O 0.88665 0.6526 1.01931 0.0
O255 O 0.86243 0.65309 0.07238 0.0
C256 C 0.8266 0.6292 0.10382 0.0
O257 O 0.83139 0.63962 0.06164 0.0
O258 O 0.83735 0.61807 0.11249 0.0
C259 C 0.85945 0.62731 0.90578 0.0
Tb260 Tb 0.11833 0.11065 0.8572 0.0
C261 C 0.14903 0.13202 0.84128 0.0
Tb262 Tb 0.11521 0.14871 0.83237 0.0
O263 O 0.1156 0.10158 0.7428 0.0
O264 O 0.11485 0.12592 0.77345 0.0
O265 O 0.14296 0.11942 0.87067 0.0
C266 C 0.1117 0.1776 0.77787 0.0
O267 O 0.14014 0.14386 0.815 0.0
C268 C 0.11893 0.14336 0.97061 0.0
C269 C 0.0843 0.12693 0.84451 0.0
O270 O 0.12487 0.1695 0.78347 0.0
O271 O 0.1005 0.16925 0.80168 0.0
O272 O 0.11719 0.15771 0.9469 0.0
O273 O 0.11885 0.13351 0.91618 0.0
O274 O 0.09048 0.13993 0.81818 0.0
O275 O 0.09312 0.11484 0.86905 0.0
C276 C 0.12246 0.08248 0.91648 0.0
O277 O 0.11061 0.0923 0.92549 0.0
O278 O 0.13193 0.08856 0.87438 0.0
C279 C 0.11433 0.116 0.71917 0.0
Tb280 Tb 0.62738 0.39311 0.53032 0.0
C281 C 0.65982 0.3746 0.54785 0.0
Tb282 Tb 0.6273 0.35529 0.54944 0.0
O283 O 0.63736 0.39801 0.64038 0.0
O284 O 0.62325 0.37739 0.61275 0.0
O285 O 0.65227 0.38715 0.52032 0.0
C286 C 0.62679 0.32541 0.59725 0.0
O287 O 0.65232 0.36196 0.57042 0.0
C288 C 0.6284 0.36122 0.41307 0.0
C289 C 0.59486 0.37362 0.5257 0.0
O290 O 0.63728 0.33676 0.61851 0.0
O291 O 0.61657 0.33109 0.55057 0.0
O292 O 0.62826 0.34672 0.43558 0.0
O293 O 0.62811 0.37101 0.46744 0.0
O294 O 0.60241 0.36144 0.55583 0.0
O295 O 0.60243 0.38625 0.50332 0.0
C296 C 0.6241 0.42395 0.49412 0.0
O297 O 0.61707 0.41751 0.54408 0.0
O298 O 0.63285 0.41289 0.46342 0.0
C299 C 0.63208 0.38463 0.66257 0.0
Tb300 Tb 0.3707 0.89903 0.41759 0.0
C301 C 0.33809 0.8808 0.36783 0.0
Tb302 Tb 0.37045 0.86069 0.36583 0.0
O303 O 0.37052 0.90801 0.30964 0.0
O304 O 0.37062 0.8836 0.32365 0.0
O305 O 0.34526 0.89348 0.40583 0.0
C306 C 0.36956 0.83181 0.29061 0.0
O307 O 0.34588 0.86805 0.3398 0.0
C308 C 0.37056 0.8663 0.50726 0.0
C309 C 0.40312 0.87897 0.41296 0.0
O310 O 0.35849 0.8377 0.32897 0.0
O311 O 0.38117 0.84232 0.29379 0.0
O312 O 0.37048 0.85182 0.47403 0.0
O313 O 0.3706 0.87613 0.45969 0.0
O314 O 0.39586 0.86628 0.37544 0.0
O315 O 0.39544 0.8918 0.44115 0.0
C316 C 0.37084 0.92717 0.49816 0.0
O317 O 0.38165 0.92251 0.45583 0.0
O318 O 0.3599 0.91594 0.49535 0.0
C319 C 0.37056 0.89352 0.2763 0.0
C320 C 0.15287 0.62556 0.92344 0.0
C321 C 0.14017 0.62379 0.96617 0.0
C322 C 0.15033 0.62506 0.84907 0.0
C323 C 0.11929 0.62943 0.70111 0.0
H324 H 0.15014 0.60743 0.58603 0.0
C325 C 0.10791 0.61782 0.39487 0.0
C326 C 0.12062 0.61944 0.35212 0.0
C327 C 0.11045 0.61832 0.46923 0.0
C328 C 0.1415 0.61381 0.6172 0.0
H329 H 0.1148 0.62002 0.96416 0.0
H330 H 0.11024 0.61913 0.83356 0.0
H331 H 0.15379 0.60811 0.71584 0.0
H332 H 0.14604 0.62288 0.35398 0.0
H333 H 0.15059 0.62384 0.4846 0.0
H334 H 0.10702 0.63515 0.60251 0.0
C335 C 0.12221 0.6211 0.85785 0.0
C336 C 0.14358 0.61419 0.6919 0.0
C337 C 0.12478 0.62159 0.9327 0.0
C338 C 0.13603 0.62147 0.38551 0.0
C339 C 0.1386 0.62198 0.46037 0.0
C340 C 0.11722 0.62906 0.62641 0.0
C341 C 0.13499 0.62273 0.81493 0.0
C342 C 0.13252 0.62202 0.73505 0.0
C343 C 0.1258 0.62051 0.50335 0.0
C344 C 0.12828 0.62122 0.58325 0.0
H345 H 0.16488 0.62732 0.94757 0.0
H346 H 0.16044 0.62667 0.81835 0.0
H347 H 0.11066 0.6358 0.73231 0.0
H348 H 0.09588 0.61617 0.37076 0.0
H349 H 0.10032 0.61682 0.49996 0.0
C350 C 0.60931 0.86122 0.19709 0.0
C351 C 0.61827 0.87147 0.24843 0.0
C352 C 0.61104 0.86209 0.12444 0.0
C353 C 0.63767 0.8766 0.99601 0.0
H354 H 0.59919 0.87533 0.86877 0.0
C355 C 0.63855 0.89083 0.70242 0.0
C356 C 0.6295 0.88069 0.65102 0.0
C357 C 0.6368 0.88996 0.77504 0.0
C358 C 0.61006 0.87552 0.9034 0.0
H359 H 0.63644 0.89031 0.26443 0.0
H360 H 0.63946 0.89191 0.13696 0.0
H361 H 0.59747 0.87302 0.99611 0.0
H362 H 0.61113 0.86205 0.6348 0.0
H363 H 0.6081 0.86041 0.76225 0.0
H364 H 0.65027 0.87908 0.90333 0.0
C365 C 0.63114 0.88313 0.15296 0.0
C366 C 0.60908 0.87419 0.97645 0.0
C367 C 0.6294 0.88226 0.2259 0.0
C368 C 0.61825 0.87001 0.67343 0.0
C369 C 0.61651 0.86912 0.74636 0.0
C370 C 0.63865 0.87791 0.92297 0.0
C371 C 0.62177 0.87323 0.10134 0.0
C372 C 0.62288 0.8747 1.02366 0.0
C373 C 0.62597 0.87891 0.79807 0.0
C374 C 0.62485 0.87742 0.87574 0.0
H375 H 0.60073 0.85268 0.21299 0.0
H376 H 0.60389 0.85405 0.08629 0.0
H377 H 0.64854 0.8768 0.03067 0.0
H378 H 0.64722 0.89928 0.68657 0.0
H379 H 0.64402 0.89793 0.81323 0.0
C380 C 0.38685 0.36855 0.43978 0.0
C381 C 0.37138 0.36976 0.46189 0.0
C382 C 0.38953 0.36893 0.36714 0.0
C383 C 0.36992 0.38081 0.19321 0.0
H384 H 0.40225 0.35367 0.11053 0.0
C385 C 0.37603 0.37243 0.88601 0.0
C386 C 0.39155 0.37218 0.86413 0.0
C387 C 0.37343 0.37225 0.9588 0.0
C388 C 0.39325 0.36146 0.13278 0.0
H389 H 0.34659 0.37203 0.42512 0.0
H390 H 0.35113 0.37234 0.2996 0.0
H391 H 0.39845 0.35329 0.23726 0.0
H392 H 0.41646 0.37167 0.90127 0.0
H393 H 0.41199 0.37145 0.02716 0.0
H394 H 0.36465 0.38887 0.08848 0.0
C395 C 0.36131 0.37151 0.33775 0.0
C396 C 0.3911 0.36127 0.20579 0.0
C397 C 0.35868 0.3712 0.40997 0.0
C398 C 0.40435 0.37183 0.91634 0.0
C399 C 0.40178 0.37158 0.98867 0.0
C400 C 0.37203 0.38094 0.12015 0.0
C401 C 0.37677 0.37048 0.31499 0.0
C402 C 0.37939 0.37093 0.23723 0.0
C403 C 0.3863 0.37171 1.01114 0.0
C404 C 0.38374 0.37129 0.08882 0.0
H405 H 0.39685 0.36734 0.47849 0.0
H406 H 0.40162 0.36823 0.35206 0.0
H407 H 0.36096 0.38867 0.21532 0.0
H408 H 0.36594 0.37261 0.84695 0.0
H409 H 0.36133 0.37223 0.97393 0.0
C410 C 0.88158 0.10018 0.66616 0.0
C411 C 0.88141 0.1134 0.71814 0.0
C412 C 0.88165 0.10274 0.59385 0.0
C413 C 0.8721 0.13319 0.46287 0.0
H414 H 0.8977 0.10518 0.34278 0.0
C415 C 0.88109 0.14622 0.17271 0.0
C416 C 0.88131 0.13306 0.12041 0.0
C417 C 0.88092 0.14356 0.24487 0.0
C418 C 0.89031 0.11296 0.37526 0.0
H419 H 0.88118 0.13974 0.73525 0.0
H420 H 0.88137 0.14435 0.60796 0.0
H421 H 0.89827 0.10173 0.47027 0.0
H422 H 0.88146 0.10673 0.10264 0.0
H423 H 0.88111 0.10194 0.22968 0.0
H424 H 0.86414 0.14443 0.36789 0.0
C425 C 0.88132 0.13193 0.62336 0.0
C426 C 0.89066 0.11103 0.44857 0.0
C427 C 0.88128 0.12934 0.69624 0.0
C428 C 0.88135 0.11709 0.14187 0.0
C429 C 0.88121 0.11439 0.21461 0.0
C430 C 0.87174 0.13513 0.38957 0.0
C431 C 0.88156 0.11863 0.57122 0.0
C432 C 0.88155 0.1211 0.49344 0.0
C433 C 0.88095 0.12763 0.26706 0.0
C434 C 0.88087 0.12507 0.34472 0.0
H435 H 0.88161 0.08773 0.68132 0.0
H436 H 0.88153 0.09219 0.5555 0.0
H437 H 0.86471 0.14097 0.49535 0.0
H438 H 0.88113 0.15869 0.15793 0.0
H439 H 0.88103 0.15406 0.28345 0.0
C440 C 0.12023 0.38113 0.19611 0.0
C441 C 0.13545 0.37821 0.17311 0.0
C442 C 0.11772 0.38176 0.26922 0.0
C443 C 0.13945 0.38788 0.45002 0.0
H444 H 0.10184 0.36842 0.51388 0.0
C445 C 0.13143 0.38152 0.75156 0.0
C446 C 0.1161 0.384 0.77398 0.0
C447 C 0.13401 0.38079 0.67848 0.0
C448 C 0.11235 0.3741 0.49715 0.0
H449 H 0.15994 0.3736 0.20862 0.0
H450 H 0.15561 0.37454 0.33493 0.0
H451 H 0.10546 0.36751 0.38662 0.0
H452 H 0.09152 0.38786 0.73766 0.0
H453 H 0.09598 0.38687 0.61159 0.0
H454 H 0.14632 0.39453 0.56049 0.0
C455 C 0.14559 0.37657 0.29725 0.0
C456 C 0.11441 0.37358 0.42386 0.0
C457 C 0.14805 0.37591 0.22455 0.0
C458 C 0.10348 0.38585 0.72212 0.0
C459 C 0.10603 0.38515 0.64953 0.0
C460 C 0.13738 0.38843 0.52332 0.0
C461 C 0.13041 0.37958 0.32092 0.0
C462 C 0.128 0.38044 0.39913 0.0
C463 C 0.1213 0.3825 0.62631 0.0
C464 C 0.12378 0.38158 0.54808 0.0
H465 H 0.11033 0.38315 0.15785 0.0
H466 H 0.10589 0.38427 0.28534 0.0
H467 H 0.14997 0.39353 0.43319 0.0
H468 H 0.14137 0.37996 0.79029 0.0
H469 H 0.14593 0.37858 0.66283 0.0
C470 C 0.88724 0.87538 0.92515 0.0
C471 C 0.87232 0.87095 0.94566 0.0
C472 C 0.8896 0.87625 0.85251 0.0
C473 C 0.86638 0.8792 0.67619 0.0
H474 H 0.90629 0.86769 0.59805 0.0
C475 C 0.87412 0.87034 0.37171 0.0
C476 C 0.88745 0.87803 0.34878 0.0
C477 C 0.87226 0.86986 0.44483 0.0
C478 C 0.8951 0.87102 0.6193 0.0
H479 H 0.84843 0.8633 0.90687 0.0
H480 H 0.85264 0.86412 0.78159 0.0
H481 H 0.90354 0.8658 0.72524 0.0
H482 H 0.90919 0.89136 0.38428 0.0
H483 H 0.90608 0.89024 0.5114 0.0
H484 H 0.85787 0.884 0.56972 0.0
C485 C 0.86241 0.86756 0.82059 0.0
C486 C 0.89354 0.87003 0.69232 0.0
C487 C 0.86003 0.86692 0.89264 0.0
C488 C 0.89878 0.88534 0.40025 0.0
C489 C 0.89707 0.88462 0.47309 0.0
C490 C 0.86789 0.87996 0.60316 0.0
C491 C 0.87711 0.87255 0.79924 0.0
C492 C 0.87912 0.87403 0.72182 0.0
C493 C 0.88385 0.87681 0.49626 0.0
C494 C 0.88224 0.87587 0.57387 0.0
H495 H 0.89688 0.87862 0.96512 0.0
H496 H 0.90107 0.88024 0.83836 0.0
H497 H 0.85521 0.88281 0.69686 0.0
H498 H 0.86525 0.86452 0.33325 0.0
H499 H 0.86197 0.8637 0.46118 0.0
C500 C 0.3784 0.61405 0.66315 0.0
C501 C 0.37622 0.62982 0.64042 0.0
C502 C 0.37851 0.61136 0.73602 0.0
C503 C 0.38369 0.63332 0.91829 0.0
H504 H 0.36371 0.59469 0.97724 0.0
C505 C 0.37505 0.62463 0.21721 0.0
C506 C 0.3774 0.60886 0.23976 0.0
C507 C 0.37479 0.62735 0.14433 0.0
C508 C 0.36951 0.60548 0.9619 0.0
H509 H 0.37241 0.65511 0.67624 0.0
H510 H 0.37242 0.65049 0.80219 0.0
H511 H 0.3638 0.59873 0.85055 0.0
H512 H 0.38126 0.5836 0.20354 0.0
H513 H 0.38097 0.58829 0.07758 0.0
H514 H 0.38939 0.64008 0.02965 0.0
C515 C 0.37428 0.64016 0.76449 0.0
C516 C 0.36958 0.60779 0.88891 0.0
C517 C 0.37417 0.64281 0.69198 0.0
C518 C 0.37939 0.59591 0.18797 0.0
C519 C 0.37912 0.59859 0.11544 0.0
C520 C 0.38361 0.63102 0.99128 0.0
C521 C 0.3765 0.62441 0.78788 0.0
C522 C 0.37666 0.62175 0.86589 0.0
C523 C 0.37679 0.61434 0.09228 0.0
C524 C 0.37655 0.61705 1.01429 0.0
H525 H 0.38018 0.60383 0.62481 0.0
H526 H 0.38043 0.59909 0.7518 0.0
H527 H 0.3895 0.64411 0.90296 0.0
H528 H 0.37325 0.6348 0.25568 0.0
H529 H 0.37277 0.63963 0.12871 0.0
C530 C 0.60892 0.11588 0.89984 0.0
C531 C 0.62171 0.11724 0.85736 0.0
C532 C 0.61145 0.11556 0.97363 0.0
C533 C 0.64055 0.12677 0.12619 0.0
H534 H 0.61393 0.09897 0.22503 0.0
C535 C 0.65275 0.11736 0.42446 0.0
C536 C 0.63986 0.11737 0.46715 0.0
C537 C 0.65032 0.11735 0.3505 0.0
C538 C 0.62131 0.10695 0.19831 0.0
H539 H 0.64725 0.11936 0.85872 0.0
H540 H 0.65185 0.11853 0.98893 0.0
H541 H 0.61103 0.09816 0.09503 0.0
H542 H 0.61423 0.11727 0.46605 0.0
H543 H 0.60984 0.11718 0.3352 0.0
H544 H 0.65093 0.13543 0.22963 0.0
C545 C 0.63978 0.11787 0.96477 0.0
C546 C 0.6197 0.10647 0.12371 0.0
C547 C 0.6372 0.11823 0.89028 0.0
C548 C 0.62436 0.11725 0.43424 0.0
C549 C 0.62189 0.11714 0.35954 0.0
C550 C 0.64221 0.12719 0.20078 0.0
C551 C 0.62688 0.11652 1.00733 0.0
C552 C 0.62925 0.11643 0.08661 0.0
C553 C 0.63489 0.1173 0.31695 0.0
C554 C 0.63261 0.11729 0.23776 0.0
H555 H 0.59681 0.11522 0.87608 0.0
H556 H 0.60121 0.11487 1.00441 0.0
H557 H 0.64791 0.13481 0.09968 0.0
H558 H 0.66485 0.11739 0.44828 0.0
H559 H 0.66058 0.11717 0.31945 0.0
C560 C 0.84658 0.3813 0.14662 0.0
C561 C 0.85929 0.38298 0.10387 0.0
C562 C 0.8492 0.38122 0.22081 0.0
C563 C 0.87837 0.39332 0.37374 0.0
H564 H 0.85353 0.36398 0.47313 0.0
C565 C 0.89213 0.38467 0.67389 0.0
C566 C 0.87943 0.38285 0.7165 0.0
C567 C 0.88955 0.38472 0.59967 0.0
C568 C 0.86043 0.37242 0.4465 0.0
H569 H 0.88474 0.3861 0.10565 0.0
H570 H 0.88944 0.3858 0.23578 0.0
H571 H 0.84978 0.36376 0.34348 0.0
H572 H 0.85402 0.37937 0.71437 0.0
H573 H 0.84935 0.37967 0.5843 0.0
H574 H 0.889 0.402 0.47675 0.0
C575 C 0.87738 0.38464 0.2118 0.0
C576 C 0.8583 0.37227 0.37187 0.0
C577 C 0.87473 0.38469 0.13716 0.0
C578 C 0.86401 0.38094 0.68302 0.0
C579 C 0.86139 0.38097 0.60837 0.0
C580 C 0.88049 0.39347 0.44838 0.0
C581 C 0.86462 0.38283 0.25469 0.0
C582 C 0.86723 0.38273 0.33431 0.0
C583 C 0.87415 0.38293 0.56561 0.0
C584 C 0.87157 0.38301 0.48595 0.0
H585 H 0.83451 0.38005 0.12266 0.0
H586 H 0.83904 0.38011 0.25174 0.0
H587 H 0.88527 0.40174 0.34708 0.0
H588 H 0.90418 0.38608 0.69799 0.0
H589 H 0.89971 0.38593 0.56889 0.0
C590 C 0.37101 0.13424 0.46728 0.0
C591 C 0.35903 0.12436 0.4892 0.0
C592 C 0.37281 0.13528 0.39449 0.0
C593 C 0.35022 0.12885 0.21754 0.0
H594 H 0.39171 0.13126 0.14471 0.0
C595 C 0.35924 0.12548 0.91452 0.0
C596 C 0.37114 0.13548 0.89267 0.0
C597 C 0.35748 0.12437 0.9873 0.0
C598 C 0.38002 0.1308 0.16427 0.0
H599 H 0.33996 0.10733 0.45255 0.0
H600 H 0.34321 0.10894 0.32591 0.0
H601 H 0.38969 0.12842 0.27146 0.0
H602 H 0.39011 0.15261 0.92947 0.0
H603 H 0.38692 0.15086 0.05609 0.0
H604 H 0.34056 0.13122 0.11034 0.0
C605 C 0.35101 0.11618 0.36457 0.0
C606 C 0.37887 0.12916 0.23702 0.0
C607 C 0.34923 0.11515 0.43718 0.0
C608 C 0.3809 0.14471 0.94477 0.0
C609 C 0.37916 0.1436 1.01737 0.0
C610 C 0.35138 0.13049 0.14478 0.0
C611 C 0.36266 0.12644 0.34218 0.0
C612 C 0.36396 0.12815 0.26463 0.0
C613 C 0.36758 0.13324 0.03967 0.0
C614 C 0.36629 0.1315 0.11718 0.0
H615 H 0.37875 0.14147 0.50628 0.0
H616 H 0.38184 0.14339 0.37924 0.0
H617 H 0.33853 0.1284 0.23708 0.0
H618 H 0.35154 0.11823 0.87546 0.0
H619 H 0.3485 0.11619 1.00251 0.0
C620 C 0.6304 0.62908 0.21401 0.0
C621 C 0.61495 0.63 0.23641 0.0
C622 C 0.63297 0.62946 0.14129 0.0
C623 C 0.61312 0.64122 0.96815 0.0
H624 H 0.64559 0.61445 0.88446 0.0
C625 C 0.61949 0.63392 0.66103 0.0
C626 C 0.63503 0.6337 0.63947 0.0
C627 C 0.61682 0.63348 0.73362 0.0
C628 C 0.63655 0.62214 0.907 0.0
H629 H 0.59007 0.63167 0.20004 0.0
H630 H 0.59445 0.63203 0.07428 0.0
H631 H 0.64181 0.61377 1.01108 0.0
H632 H 0.65992 0.63303 0.67695 0.0
H633 H 0.65533 0.6324 0.80249 0.0
H634 H 0.60784 0.64953 0.86391 0.0
C635 C 0.60468 0.6314 0.11233 0.0
C636 C 0.63441 0.62178 0.97991 0.0
C637 C 0.60215 0.63106 0.18464 0.0
C638 C 0.64779 0.63315 0.69178 0.0
C639 C 0.64514 0.63266 0.7639 0.0
C640 C 0.61524 0.64156 0.89519 0.0
C641 C 0.62013 0.63073 0.08937 0.0
C642 C 0.62266 0.63131 1.01168 0.0
C643 C 0.62964 0.63273 0.78605 0.0
C644 C 0.62702 0.63206 0.86353 0.0
H645 H 0.64047 0.6281 0.25252 0.0
H646 H 0.64506 0.62901 0.12596 0.0
H647 H 0.60412 0.64896 0.99062 0.0
H648 H 0.60943 0.63433 0.62188 0.0
H649 H 0.6047 0.63344 0.7485 0.0
C650 C 0.13193 0.89725 0.4857 0.0
C651 C 0.13292 0.88415 0.43364 0.0
C652 C 0.13215 0.89459 0.55808 0.0
C653 C 0.12571 0.86276 0.68234 0.0
H654 H 0.14818 0.89365 0.82133 0.0
C655 C 0.13583 0.8507 0.98046 0.0
C656 C 0.13449 0.86381 0.03218 0.0
C657 C 0.13557 0.85329 0.90797 0.0
C658 C 0.14168 0.88501 0.78341 0.0
H659 H 0.13496 0.85792 0.41666 0.0
H660 H 0.13547 0.85314 0.54384 0.0
H661 H 0.14826 0.89743 0.6944 0.0
H662 H 0.13166 0.88996 0.0483 0.0
H663 H 0.13124 0.89463 0.92109 0.0
H664 H 0.11919 0.85031 0.77145 0.0
C665 C 0.13433 0.86553 0.52846 0.0
C666 C 0.14173 0.88716 0.71037 0.0
C667 C 0.1341 0.86823 0.45559 0.0
C668 C 0.13289 0.87966 1.00975 0.0
C669 C 0.13267 0.88229 0.93685 0.0
C670 C 0.12569 0.86059 0.75539 0.0
C671 C 0.13342 0.87871 0.5808 0.0
C672 C 0.13371 0.87609 0.65869 0.0
C673 C 0.13395 0.86911 0.8849 0.0
C674 C 0.13368 0.87168 0.80703 0.0
H675 H 0.13093 0.90967 0.47047 0.0
H676 H 0.1311 0.90502 0.59624 0.0
H677 H 0.11919 0.85413 0.64446 0.0
H678 H 0.13711 0.83832 0.99602 0.0
H679 H 0.13686 0.84287 0.87 0.0
C680 C 0.85011 0.62885 0.77783 0.0
C681 C 0.8628 0.62735 0.82969 0.0
C682 C 0.85274 0.62899 0.70557 0.0
C683 C 0.88178 0.61716 0.57364 0.0
H684 H 0.8572 0.64634 0.45664 0.0
C685 C 0.89544 0.62563 0.28307 0.0
C686 C 0.88274 0.62739 0.23153 0.0
C687 C 0.8929 0.62564 0.35549 0.0
C688 C 0.86402 0.63795 0.48817 0.0
H689 H 0.88826 0.62466 0.84637 0.0
H690 H 0.89299 0.62501 0.71955 0.0
H691 H 0.85352 0.64661 0.58371 0.0
H692 H 0.85739 0.63088 0.21583 0.0
H693 H 0.85277 0.63062 0.34266 0.0
H694 H 0.89224 0.60845 0.47811 0.0
C695 C 0.88092 0.62599 0.73488 0.0
C696 C 0.86194 0.63813 0.56131 0.0
C697 C 0.87826 0.6259 0.80761 0.0
C698 C 0.86737 0.62931 0.25419 0.0
C699 C 0.86479 0.62932 0.32702 0.0
C700 C 0.88384 0.61697 0.50047 0.0
C701 C 0.86817 0.62761 0.68285 0.0
C702 C 0.87077 0.62772 0.60515 0.0
C703 C 0.87754 0.62741 0.37874 0.0
C704 C 0.87501 0.62738 0.45658 0.0
H705 H 0.83804 0.62992 0.79308 0.0
H706 H 0.84259 0.62996 0.66731 0.0
H707 H 0.8886 0.60878 0.60522 0.0
H708 H 0.90747 0.62424 0.26744 0.0
H709 H 0.90307 0.62448 0.39342 0.0
C710 C 0.11416 0.10627 0.59058 0.0
C711 C 0.11395 0.11942 0.64292 0.0
C712 C 0.11467 0.10895 0.51846 0.0
C713 C 0.10695 0.13979 0.38694 0.0
H714 H 0.1339 0.11199 0.27265 0.0
C715 C 0.11822 0.15312 0.09879 0.0
C716 C 0.11912 0.13997 0.04691 0.0
C717 C 0.11773 0.1505 0.17098 0.0
C718 C 0.12614 0.11974 0.30336 0.0
H719 H 0.1139 0.14577 0.66058 0.0
H720 H 0.11479 0.15056 0.53385 0.0
H721 H 0.13275 0.10813 0.39905 0.0
H722 H 0.12055 0.11369 0.03046 0.0
H723 H 0.11942 0.10894 0.15689 0.0
H724 H 0.10025 0.15134 0.29129 0.0
C725 C 0.11448 0.13811 0.54875 0.0
C726 C 0.1255 0.11754 0.37613 0.0
C727 C 0.114 0.1354 0.62136 0.0
C728 C 0.11976 0.12405 0.06911 0.0
C729 C 0.11922 0.12138 0.14172 0.0
C730 C 0.10755 0.14195 0.31413 0.0
C731 C 0.11498 0.12489 0.49636 0.0
C732 C 0.11589 0.12753 0.41902 0.0
C733 C 0.11806 0.1346 0.1937 0.0
C734 C 0.11719 0.13199 0.27118 0.0
H735 H 0.11407 0.0938 0.60543 0.0
H736 H 0.11474 0.09846 0.47986 0.0
H737 H 0.09922 0.14754 0.41781 0.0
H738 H 0.11781 0.16557 0.08357 0.0
H739 H 0.1172 0.16102 0.20911 0.0
C740 C 0.62439 0.35193 0.28444 0.0
C741 C 0.6283 0.36465 0.33715 0.0
C742 C 0.62476 0.35434 0.21213 0.0
C743 C 0.62621 0.38656 0.08384 0.0
H744 H 0.63912 0.35014 0.95801 0.0
C745 C 0.63943 0.39317 0.79092 0.0
C746 C 0.6325 0.38151 0.73903 0.0
C747 C 0.63904 0.39109 0.86364 0.0
C748 C 0.63536 0.36037 0.99234 0.0
H749 H 0.63568 0.38993 0.35561 0.0
H750 H 0.63682 0.39418 0.22871 0.0
H751 H 0.6386 0.34709 0.08526 0.0
H752 H 0.62009 0.35828 0.72256 0.0
H753 H 0.6197 0.35441 0.85034 0.0
H754 H 0.62342 0.39992 0.99045 0.0
C755 C 0.63308 0.38236 0.2432 0.0
C756 C 0.635 0.35864 0.06549 0.0
C757 C 0.63248 0.37997 0.31601 0.0
C758 C 0.62553 0.36746 0.7614 0.0
C759 C 0.62533 0.36525 0.83444 0.0
C760 C 0.62678 0.38834 1.01074 0.0
C761 C 0.62935 0.3695 0.19017 0.0
C762 C 0.63027 0.37166 0.11238 0.0
C763 C 0.6319 0.37717 0.88638 0.0
C764 C 0.63127 0.37524 0.96407 0.0
H765 H 0.62098 0.34001 0.2991 0.0
H766 H 0.62136 0.34425 0.17345 0.0
H767 H 0.62229 0.39679 0.11764 0.0
H768 H 0.64494 0.40412 0.7754 0.0
H769 H 0.6444 0.40036 0.9022 0.0
C770 C 0.37117 0.90328 0.15483 0.0
C771 C 0.37046 0.89012 0.19778 0.0
C772 C 0.3711 0.90064 0.08062 0.0
C773 C 0.37863 0.86914 0.9351 0.0
H774 H 0.35572 0.89908 0.81582 0.0
C775 C 0.36948 0.85659 0.62857 0.0
C776 C 0.37058 0.86972 0.58575 0.0
C777 C 0.36954 0.85923 0.70277 0.0
C778 C 0.36236 0.89072 0.84825 0.0
H779 H 0.36901 0.86381 0.1965 0.0
H780 H 0.36876 0.85908 0.06611 0.0
H781 H 0.35523 0.90285 0.94522 0.0
H782 H 0.37281 0.89597 0.58736 0.0
H783 H 0.37288 0.90072 0.71768 0.0
H784 H 0.3857 0.85697 0.83804 0.0
C785 C 0.36958 0.8715 0.09007 0.0
C786 C 0.36206 0.89286 0.92269 0.0
C787 C 0.36966 0.87418 0.16476 0.0
C788 C 0.37176 0.88564 0.61891 0.0
C789 C 0.37178 0.88832 0.69356 0.0
C790 C 0.3789 0.86698 0.86066 0.0
C791 C 0.37026 0.88473 0.04692 0.0
C792 C 0.37022 0.88212 0.96729 0.0
C793 C 0.37072 0.87511 0.73654 0.0
C794 C 0.37076 0.87773 0.81611 0.0
H795 H 0.37186 0.91573 0.17868 0.0
H796 H 0.37193 0.91113 0.04974 0.0
H797 H 0.38529 0.86078 0.96747 0.0
H798 H 0.36851 0.84416 0.60464 0.0
H799 H 0.36844 0.84877 0.73363 0.0
C800 C 0.11273 0.68001 0.21719 0.0
C801 C 0.12732 0.67182 0.2211 0.0
C802 C 0.11194 0.69659 0.23997 0.0
C803 C 0.13542 0.73038 0.34376 0.0
H804 H 0.10799 0.75788 0.23051 0.0
C805 C 0.14517 0.79921 0.32241 0.0
C806 C 0.13179 0.8093 0.32016 0.0
C807 C 0.14343 0.7824 0.32613 0.0
C808 C 0.11551 0.75032 0.26343 0.0
H809 H 0.15255 0.67464 0.25131 0.0
H810 H 0.1513 0.70354 0.28822 0.0
H811 H 0.10716 0.72842 0.20346 0.0
H812 H 0.10623 0.81004 0.32396 0.0
H813 H 0.10316 0.78053 0.3292 0.0
H814 H 0.14437 0.75253 0.40093 0.0
C815 C 0.14034 0.69714 0.26992 0.0
C816 C 0.11503 0.73341 0.24805 0.0
C817 C 0.14109 0.68055 0.24809 0.0
C818 C 0.11673 0.80249 0.32571 0.0
C819 C 0.11496 0.78564 0.32832 0.0
C820 C 0.13605 0.74732 0.35843 0.0
C821 C 0.12577 0.70539 0.26627 0.0
C822 C 0.12519 0.72323 0.28714 0.0
C823 C 0.12826 0.77541 0.32665 0.0
C824 C 0.12628 0.75745 0.31766 0.0
H825 H 0.10187 0.67358 0.19733 0.0
H826 H 0.10047 0.70246 0.23729 0.0
H827 H 0.14315 0.72292 0.37614 0.0
H828 H 0.1569 0.8042 0.31816 0.0
H829 H 0.15386 0.77477 0.3243 0.0
C830 C 0.54936 0.86593 0.50411 0.0
C831 C 0.55756 0.87933 0.48227 0.0
C832 C 0.5327 0.86576 0.50104 0.0
C833 C 0.49755 0.89155 0.50326 0.0
H834 H 0.47542 0.85589 0.3898 0.0
C835 C 0.42945 0.89352 0.43592 0.0
C836 C 0.42076 0.87883 0.42434 0.0
C837 C 0.44609 0.89345 0.44519 0.0
C838 C 0.48127 0.86581 0.42305 0.0
H839 H 0.55479 0.90325 0.44233 0.0
H840 H 0.52574 0.90323 0.43984 0.0
H841 H 0.50431 0.8559 0.40612 0.0
H842 H 0.42277 0.85249 0.41518 0.0
H843 H 0.45157 0.85225 0.43509 0.0
H844 H 0.47472 0.90127 0.52287 0.0
C845 C 0.53218 0.89277 0.45831 0.0
C846 C 0.49791 0.86583 0.43194 0.0
C847 C 0.5488 0.89278 0.45969 0.0
C848 C 0.4291 0.86404 0.42329 0.0
C849 C 0.44572 0.86394 0.43421 0.0
C850 C 0.4809 0.89137 0.49583 0.0
C851 C 0.52393 0.87916 0.4778 0.0
C852 C 0.50624 0.87877 0.47154 0.0
C853 C 0.45455 0.87865 0.44485 0.0
C854 C 0.47243 0.87858 0.45489 0.0
H855 H 0.5558 0.85536 0.52128 0.0
H856 H 0.52666 0.85513 0.51663 0.0
H857 H 0.50366 0.90164 0.53456 0.0
H858 H 0.42341 0.90515 0.43631 0.0
H859 H 0.45225 0.90508 0.45138 0.0
C860 C 0.36583 0.31304 0.7022 0.0
C861 C 0.37798 0.31964 0.666 0.0
C862 C 0.36391 0.29618 0.70261 0.0
C863 C 0.37325 0.25722 0.60451 0.0
H864 H 0.36306 0.23858 0.77828 0.0
C865 C 0.37588 0.18824 0.63658 0.0
C866 C 0.36414 0.18108 0.67325 0.0
C867 C 0.37669 0.20512 0.63383 0.0
C868 C 0.36567 0.24362 0.72906 0.0
H869 H 0.39773 0.31357 0.6022 0.0
H870 H 0.39445 0.28403 0.60349 0.0
H871 H 0.36692 0.26801 0.77836 0.0
H872 H 0.34387 0.18611 0.73502 0.0
H873 H 0.34525 0.21578 0.72992 0.0
H874 H 0.37211 0.23282 0.55536 0.0
C875 C 0.3863 0.29199 0.63087 0.0
C876 C 0.36792 0.26048 0.72912 0.0
C877 C 0.38824 0.30892 0.63049 0.0
C878 C 0.35304 0.19124 0.70629 0.0
C879 C 0.3539 0.20822 0.70376 0.0
C880 C 0.371 0.24037 0.60446 0.0
C881 C 0.37408 0.28544 0.66688 0.0
C882 C 0.3718 0.26748 0.6669 0.0
C883 C 0.3658 0.21534 0.66774 0.0
C884 C 0.36727 0.23335 0.66684 0.0
H885 H 0.35765 0.32087 0.73006 0.0
H886 H 0.35425 0.29157 0.73 0.0
H887 H 0.37593 0.26224 0.55536 0.0
H888 H 0.38464 0.18083 0.61042 0.0
H889 H 0.38613 0.21019 0.60651 0.0
C890 C 0.94106 0.10992 0.92759 0.0
C891 C 0.93148 0.12282 0.90471 0.0
C892 C 0.95753 0.11005 0.92113 0.0
C893 C 0.99119 0.13811 0.89703 0.0
H894 H 0.0129 0.09819 0.84076 0.0
C895 C 0.05674 0.13857 0.82518 0.0
C896 C 0.0667 0.12596 0.84808 0.0
C897 C 0.04031 0.13794 0.83141 0.0
C898 C 0.00709 0.10944 0.8573 0.0
H899 H 0.93197 0.14596 0.85662 0.0
H900 H 0.96038 0.14607 0.84493 0.0
H901 H 0.98443 0.0975 0.85428 0.0
H902 H 0.06689 0.10269 0.89518 0.0
H903 H 0.0384 0.10167 0.90643 0.0
H904 H 0.01382 0.15006 0.90014 0.0
C905 C 0.95527 0.13594 0.86887 0.0
C906 C 0.9907 0.10904 0.86514 0.0
C907 C 0.93886 0.13581 0.87521 0.0
C908 C 0.05968 0.11262 0.87664 0.0
C909 C 0.04325 0.11199 0.88281 0.0
C910 C 0.00756 0.13851 0.88921 0.0
C911 C 0.9649 0.12309 0.89179 0.0
C912 C 0.98248 0.12338 0.88487 0.0
C913 C 0.0333 0.12468 0.86071 0.0
C914 C 0.01578 0.1242 0.869 0.0
H915 H 0.93587 0.09971 0.95064 0.0
H916 H 0.96452 0.10001 0.94011 0.0
H917 H 0.9854 0.14937 0.91359 0.0
H918 H 0.06164 0.14903 0.80279 0.0
H919 H 0.03307 0.14784 0.81275 0.0
C920 C 0.13138 0.32267 0.8731 0.0
C921 C 0.11894 0.33162 0.90225 0.0
C922 C 0.12911 0.30636 0.84729 0.0
C923 C 0.1033 0.27082 0.86362 0.0
H924 H 0.12394 0.25256 0.69894 0.0
C925 C 0.09606 0.20314 0.77125 0.0
C926 C 0.11048 0.19496 0.76414 0.0
C927 C 0.09554 0.22015 0.77352 0.0
C928 C 0.1181 0.25751 0.74495 0.0
H929 H 0.09423 0.33052 0.92559 0.0
H930 H 0.09021 0.30217 0.87959 0.0
H931 H 0.12599 0.28185 0.73321 0.0
H932 H 0.13541 0.19791 0.74827 0.0
H933 H 0.13454 0.22768 0.75235 0.0
H934 H 0.0956 0.24652 0.87608 0.0
C935 C 0.10183 0.30766 0.87795 0.0
C936 C 0.11933 0.27426 0.76481 0.0
C937 C 0.10412 0.32394 0.90422 0.0
C938 C 0.12413 0.20395 0.75383 0.0
C939 C 0.12361 0.22099 0.75599 0.0
C940 C 0.10201 0.25414 0.84355 0.0
C941 C 0.11432 0.29864 0.84958 0.0
C942 C 0.11213 0.28107 0.82505 0.0
C943 C 0.10944 0.22928 0.76863 0.0
C944 C 0.10956 0.24725 0.7846 0.0
H945 H 0.14296 0.32818 0.87089 0.0
H946 H 0.13907 0.29971 0.82695 0.0
H947 H 0.09784 0.27557 0.91099 0.0
H948 H 0.08533 0.19647 0.7789 0.0
H949 H 0.08439 0.22621 0.78205 0.0
C950 C 0.07489 0.85835 0.21179 0.0
C951 C 0.08379 0.87117 0.18902 0.0
C952 C 0.05835 0.85762 0.19769 0.0
C953 C 0.02344 0.88338 0.14985 0.0
H954 H 0.00209 0.84153 0.10764 0.0
C955 C 0.95541 0.87811 0.0771 0.0
C956 C 0.94743 0.86658 0.11274 0.0
C957 C 0.97206 0.87833 0.07973 0.0
C958 C 0.00786 0.85332 0.11972 0.0
H959 H 0.08209 0.89321 0.1326 0.0
H960 H 0.0534 0.89179 0.10726 0.0
H961 H 0.03099 0.84266 0.12559 0.0
H962 H 0.95056 0.84595 0.1771 0.0
H963 H 0.97949 0.84619 0.18104 0.0
H964 H 1.00026 0.89401 0.14395 0.0
C965 C 0.05915 0.88242 0.13712 0.0
C966 C 0.02446 0.85397 0.13029 0.0
C967 C 0.07568 0.88318 0.15135 0.0
C968 C 0.95638 0.85496 0.14894 0.0
C969 C 0.97298 0.85506 0.15097 0.0
C970 C 0.00684 0.88272 0.13889 0.0
C971 C 0.05021 0.86965 0.16025 0.0
C972 C 0.03251 0.869 0.14625 0.0
C973 C 0.98107 0.86691 0.1174 0.0
C974 C 0.99881 0.86767 0.12439 0.0
H975 H 0.08066 0.84889 0.2411 0.0
H976 H 0.05191 0.84773 0.21738 0.0
H977 H 0.02913 0.89517 0.16305 0.0
H978 H 0.94881 0.88725 0.04898 0.0
H979 H 0.9779 0.88752 0.05267 0.0
C980 C 0.38813 0.68665 0.29326 0.0
C981 C 0.37481 0.6813 0.3252 0.0
C982 C 0.38813 0.70195 0.26546 0.0
C983 C 0.36193 0.73557 0.20951 0.0
H984 H 0.39756 0.76354 0.28156 0.0
C985 C 0.35672 0.80458 0.26395 0.0
C986 C 0.36996 0.81472 0.26059 0.0
C987 C 0.35779 0.78776 0.24841 0.0
C988 C 0.38769 0.75585 0.25923 0.0
H989 H 0.35085 0.68729 0.35074 0.0
H990 H 0.35081 0.71394 0.30233 0.0
H991 H 0.39862 0.7345 0.29839 0.0
H992 H 0.39436 0.81552 0.23339 0.0
H993 H 0.39625 0.78599 0.20541 0.0
H994 H 0.35076 0.75703 0.17252 0.0
C995 C 0.36123 0.70636 0.29826 0.0
C996 C 0.38829 0.73919 0.2691 0.0
C997 C 0.36129 0.69116 0.32652 0.0
C998 C 0.38399 0.80792 0.23661 0.0
C999 C 0.38509 0.79103 0.2211 0.0
C1000 C 0.36136 0.75223 0.19927 0.0
C1001 C 0.37474 0.71205 0.26851 0.0
C1002 C 0.37519 0.72898 0.2466 0.0
C1003 C 0.37215 0.7807 0.22915 0.0
C1004 C 0.37399 0.76267 0.22637 0.0
H1005 H 0.39869 0.67921 0.29138 0.0
H1006 H 0.39867 0.70597 0.24248 0.0
H1007 H 0.35177 0.72793 0.19047 0.0
H1008 H 0.34574 0.80954 0.28218 0.0
H1009 H 0.34763 0.78022 0.25599 0.0
C1010 C 0.55643 0.13632 0.58593 0.0
C1011 C 0.56419 0.12159 0.56859 0.0
C1012 C 0.53989 0.13679 0.5866 0.0
C1013 C 0.50212 0.11564 0.52584 0.0
H1014 H 0.48776 0.13683 0.70014 0.0
C1015 C 0.43578 0.11404 0.5928 0.0
C1016 C 0.43002 0.12768 0.63229 0.0
C1017 C 0.45197 0.11293 0.58071 0.0
C1018 C 0.49143 0.13111 0.65042 0.0
H1019 H 0.5606 0.09596 0.53463 0.0
H1020 H 0.53153 0.09685 0.53438 0.0
H1021 H 0.51594 0.13591 0.68324 0.0
H1022 H 0.43652 0.15109 0.68782 0.0
H1023 H 0.46439 0.14956 0.66464 0.0
H1024 H 0.47754 0.11114 0.49228 0.0
C1025 C 0.53831 0.10801 0.54786 0.0
C1026 C 0.50767 0.13052 0.64094 0.0
C1027 C 0.55495 0.1075 0.54792 0.0
C1028 C 0.44064 0.14034 0.65778 0.0
C1029 C 0.4567 0.13936 0.64494 0.0
C1030 C 0.48577 0.11642 0.53488 0.0
C1031 C 0.53064 0.12258 0.56933 0.0
C1032 C 0.51324 0.12288 0.57846 0.0
C1033 C 0.46272 0.12553 0.60722 0.0
C1034 C 0.48016 0.12428 0.59722 0.0
H1035 H 0.56318 0.1474 0.60206 0.0
H1036 H 0.53434 0.14826 0.6023 0.0
H1037 H 0.50604 0.1097 0.47701 0.0
H1038 H 0.42785 0.10406 0.57267 0.0
H1039 H 0.45607 0.102 0.55207 0.0
C1040 C 0.86731 0.19817 0.82573 0.0
C1041 C 0.88129 0.19095 0.85366 0.0
C1042 C 0.86625 0.21521 0.82439 0.0
C1043 C 0.88427 0.25319 0.91614 0.0
H1044 H 0.86277 0.27455 0.76 0.0
C1045 C 0.88622 0.32335 0.90942 0.0
C1046 C 0.87251 0.33138 0.8834 0.0
C1047 C 0.88717 0.30628 0.90265 0.0
C1048 C 0.86866 0.2688 0.80454 0.0
H1049 H 0.90529 0.19591 0.89962 0.0
H1050 H 0.90354 0.22547 0.89663 0.0
H1051 H 0.86469 0.24478 0.75233 0.0
H1052 H 0.84903 0.32749 0.82921 0.0
H1053 H 0.85059 0.29774 0.81846 0.0
H1054 H 0.88809 0.27705 0.96892 0.0
C1055 C 0.89327 0.21807 0.87676 0.0
C1056 C 0.86978 0.25169 0.80002 0.0
C1057 C 0.89434 0.20108 0.87789 0.0
C1058 C 0.85981 0.32179 0.84978 0.0
C1059 C 0.86074 0.30468 0.84324 0.0
C1060 C 0.8831 0.27024 0.9208 0.0
C1061 C 0.87912 0.22543 0.8513 0.0
C1062 C 0.87771 0.24365 0.8556 0.0
C1063 C 0.87441 0.29664 0.86999 0.0
C1064 C 0.87536 0.27835 0.86493 0.0
H1065 H 0.85703 0.19068 0.807 0.0
H1066 H 0.85514 0.22041 0.80472 0.0
H1067 H 0.89015 0.24747 0.96076 0.0
H1068 H 0.89632 0.33024 0.93517 0.0
H1069 H 0.89803 0.30065 0.9227 0.0
C1070 C 0.63788 0.81518 0.4275 0.0
C1071 C 0.62444 0.82397 0.4476 0.0
C1072 C 0.63833 0.79813 0.42822 0.0
C1073 C 0.6196 0.76343 0.5063 0.0
H1074 H 0.63791 0.73726 0.35368 0.0
C1075 C 0.6139 0.6928 0.47608 0.0
C1076 C 0.62682 0.68366 0.45238 0.0
C1077 C 0.61387 0.70987 0.47655 0.0
C1078 C 0.63294 0.74436 0.39733 0.0
H1079 H 0.60087 0.82151 0.48394 0.0
H1080 H 0.60165 0.79188 0.4848 0.0
H1081 H 0.63736 0.76689 0.35207 0.0
H1082 H 0.64999 0.68556 0.4114 0.0
H1083 H 0.65004 0.71525 0.41333 0.0
H1084 H 0.61522 0.74093 0.55175 0.0
C1085 C 0.61194 0.79818 0.46921 0.0
C1086 C 0.63261 0.7614 0.39632 0.0
C1087 C 0.61146 0.81522 0.46825 0.0
C1088 C 0.63979 0.69212 0.42984 0.0
C1089 C 0.63977 0.7092 0.43045 0.0
C1090 C 0.61997 0.74639 0.50742 0.0
C1091 C 0.62539 0.78938 0.44931 0.0
C1092 C 0.62589 0.77119 0.45068 0.0
C1093 C 0.62678 0.71834 0.45349 0.0
C1094 C 0.6266 0.73658 0.45285 0.0
H1095 H 0.64812 0.82146 0.41134 0.0
H1096 H 0.64896 0.79181 0.41327 0.0
H1097 H 0.61457 0.77055 0.54973 0.0
H1098 H 0.60365 0.68677 0.49351 0.0
H1099 H 0.60354 0.7164 0.49372 0.0
C1100 C 0.86369 0.68781 0.0918 0.0
C1101 C 0.87579 0.6788 0.05996 0.0
C1102 C 0.86434 0.70491 0.10015 0.0
C1103 C 0.89212 0.7403 0.10437 0.0
H1104 H 0.8534 0.76479 0.07178 0.0
C1105 C 0.89237 0.81088 0.09576 0.0
C1106 C 0.88 0.81972 0.12632 0.0
C1107 C 0.89198 0.79375 0.08778 0.0
C1108 C 0.86431 0.75818 0.08199 0.0
H1109 H 0.89817 0.68098 1.0122 0.0
H1110 H 0.89923 0.71073 0.02627 0.0
H1111 H 0.85253 0.73507 0.05812 0.0
H1112 H 0.85752 0.81722 0.1728 0.0
H1113 H 0.85694 0.7875 0.15969 0.0
H1114 H 0.9039 0.76343 0.12832 0.0
C1115 C 0.88928 0.70455 0.04558 0.0
C1116 C 0.86382 0.74107 0.07412 0.0
C1117 C 0.88862 0.68743 0.03712 0.0
C1118 C 0.86725 0.81091 0.14878 0.0
C1119 C 0.86686 0.7938 0.14082 0.0
C1120 C 0.89262 0.75743 0.11231 0.0
C1121 C 0.87712 0.71356 0.077 0.0
C1122 C 0.8777 0.73186 0.08527 0.0
C1123 C 0.87921 0.78494 0.11011 0.0
C1124 C 0.87872 0.76664 0.10132 0.0
H1125 H 0.85363 0.68167 0.11034 0.0
H1126 H 0.85487 0.71136 0.12556 0.0
H1127 H 0.90303 0.73367 0.11448 0.0
H1128 H 0.90238 0.81718 0.07758 0.0
H1129 H 0.90161 0.78743 0.06304 0.0
C1130 C 0.61878 0.17752 0.62785 0.0
C1131 C 0.63111 0.16957 0.66578 0.0
C1132 C 0.61896 0.19447 0.62503 0.0
C1133 C 0.63651 0.23309 0.71306 0.0
H1134 H 0.62247 0.24978 0.53209 0.0
C1135 C 0.64009 0.30213 0.65745 0.0
C1136 C 0.62728 0.30817 0.61531 0.0
C1137 C 0.64104 0.2854 0.66802 0.0
C1138 C 0.62626 0.24538 0.58333 0.0
H1139 H 0.65324 0.17347 0.73159 0.0
H1140 H 0.65361 0.20315 0.72617 0.0
H1141 H 0.62347 0.22049 0.54173 0.0
H1142 H 0.60516 0.30158 0.55354 0.0
H1143 H 0.60668 0.27264 0.57255 0.0
H1144 H 0.6393 0.25815 0.75437 0.0
C1145 C 0.64372 0.19619 0.69901 0.0
C1146 C 0.62684 0.22852 0.58887 0.0
C1147 C 0.64354 0.17914 0.70185 0.0
C1148 C 0.61523 0.29729 0.58595 0.0
C1149 C 0.61618 0.28065 0.59641 0.0
C1150 C 0.63594 0.25004 0.70746 0.0
C1151 C 0.6315 0.20405 0.65987 0.0
C1152 C 0.63176 0.22211 0.65399 0.0
C1153 C 0.62923 0.27439 0.63642 0.0
C1154 C 0.63059 0.2564 0.64269 0.0
H1155 H 0.60891 0.17066 0.59983 0.0
H1156 H 0.60917 0.20008 0.59561 0.0
H1157 H 0.64027 0.22861 0.76417 0.0
H1158 H 0.64957 0.31024 0.68059 0.0
H1159 H 0.65129 0.28101 0.69892 0.0
C1160 C 0.9416 0.3993 0.05002 0.0
C1161 C 0.93171 0.38563 0.05183 0.0
C1162 C 0.95758 0.39875 0.07472 0.0
C1163 C 0.98947 0.36915 0.09144 0.0
H1164 H 0.01365 0.40706 0.17478 0.0
C1165 C 0.05781 0.37015 0.10315 0.0
C1166 C 0.06395 0.38399 0.07547 0.0
C1167 C 0.04207 0.36992 0.12136 0.0
C1168 C 0.00706 0.39635 0.1517 0.0
H1169 H 0.93045 0.361 0.08441 0.0
H1170 H 0.9585 0.36001 0.12787 0.0
H1171 H 0.98469 0.40745 0.17021 0.0
H1172 H 0.05888 0.40869 0.04843 0.0
H1173 H 0.03148 0.40829 0.07962 0.0
H1174 H 0.01176 0.35831 0.07003 0.0
C1175 C 0.95391 0.3711 0.10674 0.0
C1176 C 0.99049 0.39657 0.1491 0.0
C1177 C 0.93786 0.37168 0.08223 0.0
C1178 C 0.05441 0.39785 0.06956 0.0
C1179 C 0.03874 0.39765 0.08799 0.0
C1180 C 0.00604 0.36893 0.09405 0.0
C1181 C 0.96404 0.3845 0.1016 0.0
C1182 C 0.9815 0.38318 0.11674 0.0
C1183 C 0.03227 0.38356 0.11257 0.0
C1184 C 0.015 0.38273 0.12199 0.0
H1185 H 0.93713 0.41021 0.02689 0.0
H1186 H 0.96506 0.40922 0.06912 0.0
H1187 H 0.98292 0.3587 0.06547 0.0
H1188 H 0.06497 0.35933 0.10843 0.0
H1189 H 0.03746 0.35894 0.14078 0.0
C1190 C 0.43589 0.61134 0.50728 0.0
C1191 C 0.42664 0.62441 0.48409 0.0
C1192 C 0.4524 0.61298 0.51936 0.0
C1193 C 0.48561 0.6378 0.46907 0.0
H1194 H 0.50972 0.61802 0.62315 0.0
C1195 C 0.5526 0.64833 0.51793 0.0
C1196 C 0.56174 0.63422 0.5249 0.0
C1197 C 0.53623 0.64782 0.52347 0.0
C1198 C 0.50313 0.62355 0.57976 0.0
H1199 H 0.42747 0.64965 0.458 0.0
H1200 H 0.45607 0.65257 0.4802 0.0
H1201 H 0.48073 0.61572 0.61165 0.0
H1202 H 0.56122 0.60878 0.54728 0.0
H1203 H 0.53252 0.60784 0.55671 0.0
H1204 H 0.50789 0.64554 0.43679 0.0
C1205 C 0.45066 0.64092 0.48743 0.0
C1206 C 0.48654 0.6222 0.57301 0.0
C1207 C 0.43422 0.63925 0.47495 0.0
C1208 C 0.55441 0.61983 0.54172 0.0
C1209 C 0.538 0.61931 0.54729 0.0
C1210 C 0.50212 0.63921 0.476 0.0
C1211 C 0.45999 0.62774 0.50883 0.0
C1212 C 0.47759 0.6293 0.51747 0.0
C1213 C 0.52868 0.63318 0.53599 0.0
C1214 C 0.51108 0.6321 0.53133 0.0
H1215 H 0.43045 0.59972 0.51479 0.0
H1216 H 0.45923 0.60253 0.5351 0.0
H1217 H 0.47915 0.6431 0.4247 0.0
H1218 H 0.55798 0.65962 0.50538 0.0
H1219 H 0.52941 0.65879 0.51588 0.0
C1220 C 0.44948 0.38153 0.53633 0.0
C1221 C 0.44364 0.36762 0.5646 0.0
C1222 C 0.46533 0.38234 0.52018 0.0
C1223 C 0.50096 0.35708 0.49035 0.0
H1224 H 0.52412 0.39677 0.55893 0.0
C1225 C 0.56907 0.35927 0.53585 0.0
C1226 C 0.57724 0.37321 0.51903 0.0
C1227 C 0.5525 0.35887 0.53187 0.0
C1228 C 0.51779 0.3857 0.53834 0.0
H1229 H 0.44955 0.34342 0.5959 0.0
H1230 H 0.4772 0.34478 0.56783 0.0
H1231 H 0.49551 0.3954 0.56762 0.0
H1232 H 0.5743 0.39761 0.4838 0.0
H1233 H 0.54529 0.39688 0.4768 0.0
H1234 H 0.52329 0.34727 0.46236 0.0
C1235 C 0.46957 0.35505 0.5576 0.0
C1236 C 0.50138 0.38491 0.54331 0.0
C1237 C 0.45374 0.35429 0.574 0.0
C1238 C 0.5684 0.38668 0.49723 0.0
C1239 C 0.55178 0.3863 0.49355 0.0
C1240 C 0.51736 0.35787 0.48535 0.0
C1241 C 0.47563 0.3692 0.53168 0.0
C1242 C 0.49281 0.3705 0.52044 0.0
C1243 C 0.54364 0.3724 0.51111 0.0
C1244 C 0.52602 0.37209 0.51042 0.0
H1245 H 0.44192 0.39199 0.52851 0.0
H1246 H 0.46957 0.39332 0.49945 0.0
H1247 H 0.49467 0.3459 0.47112 0.0
H1248 H 0.57545 0.34864 0.55272 0.0
H1249 H 0.54665 0.34806 0.54677 0.0
C1250 C 0.05808 0.60826 1.01397 0.0
C1251 C 0.06829 0.6218 1.01608 0.0
C1252 C 0.0424 0.60914 0.9852 0.0
C1253 C 0.01092 0.63896 0.95989 0.0
H1254 H 0.98814 0.60173 0.86108 0.0
C1255 C 0.94261 0.63849 0.91653 0.0
C1256 C 0.93559 0.62441 0.93832 0.0
C1257 C 0.95883 0.63877 0.906 0.0
C1258 C 0.99433 0.61225 0.88852 0.0
H1259 H 0.0704 0.64666 0.98724 0.0
H1260 H 0.04284 0.64826 0.9369 0.0
H1261 H 0.01706 0.60116 0.87895 0.0
H1262 H 0.93968 0.59934 0.96238 0.0
H1263 H 0.96787 0.59979 0.94442 0.0
H1264 H 0.98819 0.64978 0.97227 0.0
C1265 C 0.04696 0.63699 0.95789 0.0
C1266 C 0.01089 0.61192 0.89874 0.0
C1267 C 0.06273 0.63606 0.98636 0.0
C1268 C 0.94481 0.61037 0.94561 0.0
C1269 C 0.96096 0.61061 0.93483 0.0
C1270 C 0.99435 0.63929 0.94976 0.0
C1271 C 0.03655 0.62362 0.95818 0.0
C1272 C 0.01933 0.62506 0.93652 0.0
C1273 C 0.96826 0.62493 0.91667 0.0
C1274 C 0.98584 0.62572 0.91597 0.0
H1275 H 0.06208 0.59711 0.03652 0.0
H1276 H 0.03466 0.59869 0.98718 0.0
H1277 H 0.01703 0.64922 0.98981 0.0
H1278 H 0.93573 0.64948 0.91044 0.0
H1279 H 0.96407 0.64993 0.89128 0.0
C1280 C 0.1188 0.56197 0.09333 0.0
C1281 C 0.13288 0.57092 0.11274 0.0
C1282 C 0.11916 0.54497 0.08256 0.0
C1283 C 0.14401 0.51051 0.03425 0.0
H1284 H 0.11576 0.48572 0.1381 0.0
C1285 C 0.14526 0.43992 1.02083 0.0
C1286 C 0.13062 0.43178 1.02064 0.0
C1287 C 0.14624 0.45689 0.03436 0.0
C1288 C 0.12357 0.49242 0.10781 0.0
H1289 H 0.15841 0.56914 0.13396 0.0
H1290 H 0.15902 0.53936 0.11342 0.0
H1291 H 0.1159 0.51542 0.15416 0.0
H1292 H 0.10549 0.43507 0.03313 0.0
H1293 H 0.10707 0.46455 0.05402 0.0
H1294 H 0.1513 0.48762 0.98578 0.0
C1295 C 0.14774 0.54556 0.10736 0.0
C1296 C 0.12368 0.50943 0.11738 0.0
C1297 C 0.14736 0.56256 0.1194 0.0
C1298 C 0.117 0.44094 0.03381 0.0
C1299 C 0.11793 0.45789 0.04624 0.0
C1300 C 0.14372 0.49347 0.02371 0.0
C1301 C 0.13361 0.53663 0.08977 0.0
C1302 C 0.13383 0.51861 0.08044 0.0
C1303 C 0.13257 0.4661 0.04698 0.0
C1304 C 0.13341 0.4842 0.06005 0.0
H1305 H 0.10745 0.56805 0.08802 0.0
H1306 H 0.10812 0.53833 0.06849 0.0
H1307 H 0.15188 0.51738 1.0049 0.0
H1308 H 0.15599 0.43317 1.01122 0.0
H1309 H 0.15776 0.46276 0.03555 0.0
C1310 C 0.70041 0.88053 0.43353 0.0
C1311 C 0.68803 0.87438 0.38458 0.0
C1312 C 0.71614 0.88036 0.41501 0.0
C1313 C 0.74054 0.8757 0.25734 0.0
H1314 H 0.77475 0.86944 0.40216 0.0
C1315 C 0.80516 0.86308 0.1887 0.0
C1316 C 0.81734 0.87182 0.23056 0.0
C1317 C 0.78953 0.8636 0.20832 0.0
C1318 C 0.76534 0.87135 0.36125 0.0
H1319 H 0.68241 0.86307 0.27795 0.0
H1320 H 0.7099 0.86221 0.24602 0.0
H1321 H 0.74732 0.86944 0.43377 0.0
H1322 H 0.82273 0.88777 0.3265 0.0
H1323 H 0.79533 0.88847 0.36171 0.0
H1324 H 0.75866 0.87717 0.18455 0.0
C1325 C 0.7075 0.86759 0.29832 0.0
C1326 C 0.74955 0.87141 0.37934 0.0
C1327 C 0.69171 0.86796 0.31668 0.0
C1328 C 0.81358 0.88091 0.29322 0.0
C1329 C 0.79792 0.88127 0.31343 0.0
C1330 C 0.75631 0.87544 0.23914 0.0
C1331 C 0.71998 0.87383 0.34718 0.0
C1332 C 0.73688 0.87361 0.32769 0.0
C1333 C 0.78567 0.87271 0.27081 0.0
C1334 C 0.76892 0.87327 0.29083 0.0
H1335 H 0.69793 0.88568 0.48617 0.0
H1336 H 0.72525 0.8856 0.45379 0.0
H1337 H 0.73125 0.87777 0.2162 0.0
H1338 H 0.80768 0.85594 0.14013 0.0
H1339 H 0.78045 0.85671 0.17477 0.0
C1340 C 0.37074 0.43131 0.68527 0.0
C1341 C 0.38332 0.42161 0.66189 0.0
C1342 C 0.37069 0.44812 0.67862 0.0
C1343 C 0.39651 0.4831 0.65051 0.0
H1344 H 0.35722 0.50201 0.57568 0.0
C1345 C 0.39409 0.54552 0.53095 0.0
C1346 C 0.38104 0.55563 0.54288 0.0
C1347 C 0.39456 0.52977 0.55386 0.0
C1348 C 0.36822 0.497 0.59775 0.0
H1349 H 0.40591 0.42215 0.61458 0.0
H1350 H 0.40573 0.45144 0.60258 0.0
H1351 H 0.35777 0.47335 0.60031 0.0
H1352 H 0.35845 0.5575 0.58963 0.0
H1353 H 0.35929 0.52994 0.6304 0.0
H1354 H 0.40701 0.50671 0.64691 0.0
C1355 C 0.39598 0.44604 0.6267 0.0
C1356 C 0.36854 0.48056 0.61181 0.0
C1357 C 0.39603 0.42921 0.63326 0.0
C1358 C 0.36862 0.54989 0.57961 0.0
C1359 C 0.36907 0.5341 0.60254 0.0
C1360 C 0.39619 0.49955 0.6365 0.0
C1361 C 0.38322 0.45566 0.64857 0.0
C1362 C 0.38273 0.47337 0.6376 0.0
C1363 C 0.38198 0.5238 0.58923 0.0
C1364 C 0.38208 0.50665 0.60916 0.0
H1365 H 0.36078 0.42592 0.70792 0.0
H1366 H 0.3608 0.45523 0.69689 0.0
H1367 H 0.40756 0.47799 0.67142 0.0
H1368 H 0.40381 0.54965 0.5026 0.0
H1369 H 0.40457 0.52209 0.54187 0.0
C1370 C 0.82288 0.13632 0.87515 0.0
C1371 C 0.83141 0.12327 0.90327 0.0
C1372 C 0.80629 0.13571 0.86416 0.0
C1373 C 0.7701 0.1144 0.91245 0.0
H1374 H 0.75125 0.13184 0.74047 0.0
C1375 C 0.70261 0.10736 0.81477 0.0
C1376 C 0.69543 0.12073 0.78318 0.0
C1377 C 0.71905 0.1074 0.83396 0.0
C1378 C 0.75625 0.12709 0.78927 0.0
H1379 H 0.82891 0.0994 0.94302 0.0
H1380 H 0.79997 0.0983 0.92319 0.0
H1381 H 0.77992 0.13235 0.76487 0.0
H1382 H 0.69974 0.14485 0.74958 0.0
H1383 H 0.72813 0.14505 0.78373 0.0
H1384 H 0.74628 0.10907 0.9363 0.0
C1385 C 0.80615 0.1091 0.91027 0.0
C1386 C 0.77277 0.12739 0.80334 0.0
C1387 C 0.8228 0.10971 0.92138 0.0
C1388 C 0.70491 0.13431 0.77345 0.0
C1389 C 0.72125 0.13436 0.79252 0.0
C1390 C 0.75351 0.11408 0.89825 0.0
C1391 C 0.79767 0.12202 0.88068 0.0
C1392 C 0.77997 0.12121 0.86545 0.0
C1393 C 0.72865 0.1208 0.82173 0.0
C1394 C 0.74634 0.12058 0.83675 0.0
H1395 H 0.829 0.14704 0.86096 0.0
H1396 H 0.80022 0.14606 0.8427 0.0
H1397 H 0.77517 0.10964 0.96109 0.0
H1398 H 0.69562 0.09669 0.82268 0.0
H1399 H 0.72431 0.09671 0.85606 0.0
C1400 C 0.8832 0.56634 0.98854 0.0
C1401 C 0.86938 0.57555 0.99737 0.0
C1402 C 0.88254 0.54923 0.98051 0.0
C1403 C 0.85608 0.51354 1.00425 0.0
H1404 H 0.88636 0.48997 0.89162 0.0
C1405 C 0.85266 0.44321 0.92632 0.0
C1406 C 0.86694 0.43465 0.93771 0.0
C1407 C 0.85249 0.46036 0.93351 0.0
C1408 C 0.87787 0.49637 0.92355 0.0
H1409 H 0.84393 0.57385 1.00333 0.0
H1410 H 0.84264 0.54416 0.98643 0.0
H1411 H 0.88675 0.51969 0.90201 0.0
H1412 H 0.89227 0.43756 0.96509 0.0
H1413 H 0.89199 0.46735 0.97609 0.0
H1414 H 0.84697 0.49 0.02367 0.0
C1415 C 0.85414 0.55006 0.98795 0.0
C1416 C 0.87813 0.51349 0.93 0.0
C1417 C 0.85484 0.56717 0.99716 0.0
C1418 C 0.88103 0.44369 0.95618 0.0
C1419 C 0.88091 0.4608 0.96207 0.0
C1420 C 0.85566 0.4964 0.99675 0.0
C1421 C 0.86799 0.54076 0.97982 0.0
C1422 C 0.86735 0.5224 0.97109 0.0
C1423 C 0.86665 0.46936 0.95087 0.0
C1424 C 0.86665 0.4876 0.95688 0.0
H1425 H 0.89465 0.57233 0.98921 0.0
H1426 H 0.89357 0.54268 0.97611 0.0
H1427 H 0.84773 0.51978 0.0374 0.0
H1428 H 0.84157 0.43667 0.91216 0.0
H1429 H 0.84132 0.4666 0.92422 0.0
C1430 C 0.1755 0.11818 0.83591 0.0
C1431 C 0.16653 0.13261 0.83585 0.0
C1432 C 0.19182 0.1185 0.8272 0.0
C1433 C 0.22764 0.14394 0.85121 0.0
H1434 H 0.24309 0.11483 0.70054 0.0
C1435 C 0.29365 0.14586 0.78054 0.0
C1436 C 0.30035 0.13144 0.75157 0.0
C1437 C 0.27742 0.14645 0.79244 0.0
C1438 C 0.23918 0.12284 0.74399 0.0
H1439 H 0.1679 0.15876 0.8284 0.0
H1440 H 0.19657 0.15934 0.81554 0.0
H1441 H 0.21501 0.11482 0.72038 0.0
H1442 H 0.29552 0.10616 0.71506 0.0
H1443 H 0.26773 0.10679 0.73936 0.0
H1444 H 0.25179 0.15155 0.87709 0.0
C1445 C 0.19084 0.14778 0.82145 0.0
C1446 C 0.22296 0.1229 0.75485 0.0
C1447 C 0.17442 0.14742 0.82852 0.0
C1448 C 0.29065 0.11752 0.73677 0.0
C1449 C 0.27458 0.11797 0.75007 0.0
C1450 C 0.24396 0.14364 0.84143 0.0
C1451 C 0.19969 0.13328 0.8198 0.0
C1452 C 0.21698 0.13343 0.80851 0.0
C1453 C 0.26755 0.13251 0.77695 0.0
C1454 C 0.25005 0.13305 0.78764 0.0
H1455 H 0.16984 0.10654 0.84106 0.0
H1456 H 0.19833 0.10714 0.82648 0.0
H1457 H 0.22338 0.15213 0.89332 0.0
H1458 H 0.30083 0.15682 0.79213 0.0
H1459 H 0.2726 0.15797 0.81224 0.0
C1460 C 0.63485 0.57072 0.39954 0.0
C1461 C 0.62367 0.58048 0.43442 0.0
C1462 C 0.63477 0.55369 0.40216 0.0
C1463 C 0.62146 0.52139 0.51066 0.0
H1464 H 0.62758 0.49212 0.3436 0.0
C1465 C 0.61285 0.45188 0.51557 0.0
C1466 C 0.6233 0.44144 0.47993 0.0
C1467 C 0.61273 0.46863 0.50666 0.0
C1468 C 0.62605 0.50009 0.39106 0.0
H1469 H 0.60353 0.57975 0.49886 0.0
H1470 H 0.60344 0.55023 0.50333 0.0
H1471 H 0.62791 0.52163 0.33465 0.0
H1472 H 0.64168 0.44034 0.40598 0.0
H1473 H 0.64172 0.46968 0.39117 0.0
H1474 H 0.61982 0.50003 0.56752 0.0
C1475 C 0.61235 0.55574 0.47439 0.0
C1476 C 0.62621 0.51704 0.38585 0.0
C1477 C 0.61235 0.57271 0.4714 0.0
C1478 C 0.63344 0.44808 0.43394 0.0
C1479 C 0.6334 0.46491 0.4253 0.0
C1480 C 0.62139 0.50449 0.51599 0.0
C1481 C 0.62361 0.54599 0.44021 0.0
C1482 C 0.6238 0.52792 0.44551 0.0
C1483 C 0.62317 0.47547 0.46228 0.0
C1484 C 0.62355 0.49355 0.45619 0.0
H1485 H 0.64374 0.57622 0.37051 0.0
H1486 H 0.64369 0.54658 0.37565 0.0
H1487 H 0.61988 0.52937 0.55808 0.0
H1488 H 0.60483 0.44711 0.55109 0.0
H1489 H 0.60441 0.47622 0.53481 0.0
C1490 C 0.31173 0.89524 0.36562 0.0
C1491 C 0.32043 0.88074 0.35622 0.0
C1492 C 0.29509 0.89505 0.35528 0.0
C1493 C 0.26028 0.86836 0.35877 0.0
H1494 H 0.23826 0.89916 0.24132 0.0
C1495 C 0.19254 0.86275 0.28349 0.0
C1496 C 0.18371 0.877 0.27359 0.0
C1497 C 0.20915 0.86339 0.29402 0.0
C1498 C 0.24411 0.89063 0.27542 0.0
H1499 H 0.31832 0.85462 0.32906 0.0
H1500 H 0.28936 0.85428 0.31251 0.0
H1501 H 0.26714 0.90018 0.2598 0.0
H1502 H 0.18552 0.9032 0.26863 0.0
H1503 H 0.2143 0.90445 0.28987 0.0
H1504 H 0.23741 0.85907 0.37652 0.0
C1505 C 0.29543 0.86581 0.32745 0.0
C1506 C 0.26074 0.89118 0.28563 0.0
C1507 C 0.31205 0.86604 0.33652 0.0
C1508 C 0.19192 0.89194 0.27546 0.0
C1509 C 0.20852 0.89263 0.28716 0.0
C1510 C 0.24366 0.86797 0.34959 0.0
C1511 C 0.28674 0.88031 0.33661 0.0
C1512 C 0.26903 0.87999 0.32701 0.0
C1513 C 0.21745 0.87835 0.29617 0.0
C1514 C 0.23526 0.87902 0.3073 0.0
H1515 H 0.31777 0.90679 0.38062 0.0
H1516 H 0.28874 0.90641 0.3631 0.0
H1517 H 0.26631 0.8597 0.39174 0.0
H1518 H 0.18664 0.85099 0.28169 0.0
H1519 H 0.21546 0.85204 0.29917 0.0
C1520 C 0.63918 0.93633 0.48228 0.0
C1521 C 0.6248 0.92774 0.48319 0.0
C1522 C 0.64006 0.95321 0.50034 0.0
C1523 C 0.61787 0.98754 0.58999 0.0
H1524 H 0.64716 0.01439 0.50099 0.0
C1525 C 0.61591 0.0583 0.61062 0.0
C1526 C 0.63041 0.06677 0.62639 0.0
C1527 C 0.61556 0.04133 0.5957 0.0
C1528 C 0.63903 0.00703 0.52678 0.0
H1529 H 0.59995 0.93032 0.50231 0.0
H1530 H 0.60126 0.95975 0.53081 0.0
H1531 H 0.64551 0.98513 0.46729 0.0
H1532 H 0.65596 0.06392 0.63859 0.0
H1533 H 0.65535 0.03424 0.61101 0.0
H1534 H 0.61105 0.00967 0.64755 0.0
C1535 C 0.61206 0.95344 0.51848 0.0
C1536 C 0.63809 0.99018 0.50769 0.0
C1537 C 0.61125 0.93651 0.50147 0.0
C1538 C 0.64459 0.0578 0.62697 0.0
C1539 C 0.64425 0.04081 0.61074 0.0
C1540 C 0.61864 0.00441 0.60818 0.0
C1541 C 0.62651 0.96207 0.51886 0.0
C1542 C 0.6275 0.98013 0.53899 0.0
C1543 C 0.62972 0.03238 0.59497 0.0
C1544 C 0.62923 0.01437 0.57685 0.0
H1545 H 0.64992 0.92996 0.46921 0.0
H1546 H 0.65149 0.95921 0.50114 0.0
H1547 H 0.60982 0.98031 0.61674 0.0
H1548 H 0.60475 0.06478 0.6099 0.0
H1549 H 0.60419 0.03524 0.58328 0.0
C1550 C 0.19648 0.36329 0.87197 0.0
C1551 C 0.18847 0.37818 0.88004 0.0
C1552 C 0.21232 0.36294 0.85578 0.0
C1553 C 0.24404 0.38798 0.79042 0.0
H1554 H 0.27166 0.35693 0.88266 0.0
C1555 C 0.31228 0.38874 0.77994 0.0
C1556 C 0.31891 0.3736 0.75947 0.0
C1557 C 0.29651 0.38964 0.79755 0.0
C1558 C 0.26406 0.36561 0.85635 0.0
H1559 H 0.19052 0.40436 0.87634 0.0
H1560 H 0.21834 0.40388 0.84985 0.0
H1561 H 0.24365 0.35788 0.90508 0.0
H1562 H 0.31459 0.34752 0.74335 0.0
H1563 H 0.28713 0.34905 0.77531 0.0
H1564 H 0.26464 0.39585 0.74273 0.0
C1565 C 0.21235 0.3924 0.85457 0.0
C1566 C 0.24799 0.36611 0.86876 0.0
C1567 C 0.19643 0.39271 0.87 0.0
C1568 C 0.30974 0.35934 0.75905 0.0
C1569 C 0.29406 0.36021 0.77751 0.0
C1570 C 0.26017 0.38759 0.77864 0.0
C1571 C 0.22056 0.37752 0.84819 0.0
C1572 C 0.23773 0.3772 0.83548 0.0
C1573 C 0.28722 0.37539 0.7959 0.0
C1574 C 0.2703 0.37632 0.81108 0.0
H1575 H 0.19055 0.35189 0.87906 0.0
H1576 H 0.21812 0.35123 0.84959 0.0
H1577 H 0.23648 0.39652 0.76311 0.0
H1578 H 0.31912 0.39991 0.78054 0.0
H1579 H 0.29156 0.40148 0.81218 0.0
C1580 C 0.89486 0.93133 0.1236 0.0
C1581 C 0.88067 0.92279 0.13062 0.0
C1582 C 0.89471 0.94807 0.11383 0.0
C1583 C 0.86917 0.98028 0.04443 0.0
H1584 H 0.89971 0.01015 0.14991 0.0
C1585 C 0.86657 0.04957 1.00877 0.0
C1586 C 0.88087 0.05845 1.01266 0.0
C1587 C 0.86636 0.03343 0.02786 0.0
C1588 C 0.89122 0.002 0.11903 0.0
H1589 H 0.85518 0.92536 0.13297 0.0
H1590 H 0.85491 0.95453 0.11456 0.0
H1591 H 0.89977 0.98137 0.17356 0.0
H1592 H 0.90618 0.05741 0.04019 0.0
H1593 H 0.90599 0.0291 0.07112 0.0
H1594 H 0.86094 1.00057 0.98789 0.0
C1595 C 0.86617 0.94822 0.11701 0.0
C1596 C 0.89122 0.98547 0.13301 0.0
C1597 C 0.86633 0.93151 0.12798 0.0
C1598 C 0.89495 0.0509 0.03707 0.0
C1599 C 0.89479 0.03464 0.05518 0.0
C1600 C 0.86931 0.99674 0.02966 0.0
C1601 C 0.88036 0.95671 0.10965 0.0
C1602 C 0.88018 0.9744 0.09594 0.0
C1603 C 0.88049 0.02556 0.05028 0.0
C1604 C 0.88032 0.00793 0.06678 0.0
H1605 H 0.90614 0.92506 0.12556 0.0
H1606 H 0.90584 0.95419 0.10785 0.0
H1607 H 0.86066 0.97205 1.01412 0.0
H1608 H 0.8555 0.05508 0.99057 0.0
H1609 H 0.85502 0.02715 0.02493 0.0
C1610 C 0.20384 0.63445 0.29316 0.0
C1611 C 0.1934 0.62124 0.29516 0.0
C1612 C 0.21973 0.63331 0.31858 0.0
C1613 C 0.25091 0.60294 0.34813 0.0
H1614 H 0.27431 0.64048 0.44047 0.0
C1615 C 0.31884 0.60225 0.42905 0.0
C1616 C 0.32734 0.61583 0.41058 0.0
C1617 C 0.30221 0.60213 0.42292 0.0
C1618 C 0.26794 0.62991 0.41452 0.0
H1619 H 0.19114 0.59667 0.32742 0.0
H1620 H 0.21901 0.59469 0.37266 0.0
H1621 H 0.24553 0.64184 0.4192 0.0
H1622 H 0.32492 0.63988 0.37074 0.0
H1623 H 0.29612 0.63959 0.36001 0.0
H1624 H 0.27344 0.59113 0.34254 0.0
C1625 C 0.21494 0.60587 0.35065 0.0
C1626 C 0.25146 0.63068 0.40233 0.0
C1627 C 0.19898 0.60704 0.32525 0.0
C1628 C 0.31883 0.6292 0.38554 0.0
C1629 C 0.30228 0.62912 0.37992 0.0
C1630 C 0.26743 0.60215 0.36059 0.0
C1631 C 0.22554 0.61892 0.3466 0.0
C1632 C 0.24278 0.61735 0.36747 0.0
C1633 C 0.29377 0.61564 0.39887 0.0
C1634 C 0.27615 0.61577 0.39238 0.0
H1635 H 0.19984 0.64554 0.27003 0.0
H1636 H 0.22759 0.64352 0.31369 0.0
H1637 H 0.24461 0.59251 0.3205 0.0
H1638 H 0.325 0.59174 0.44855 0.0
H1639 H 0.29595 0.59159 0.43809 0.0
C1640 C 0.38332 0.95413 0.53815 0.0
C1641 C 0.37055 0.94323 0.5387 0.0
C1642 C 0.38269 0.96984 0.57187 0.0
C1643 C 0.35411 0.0011 0.62308 0.0
H1644 H 0.39144 0.02286 0.72009 0.0
C1645 C 0.35404 0.06974 0.71796 0.0
C1646 C 0.36712 0.07864 0.69941 0.0
C1647 C 0.35418 0.05265 0.71251 0.0
C1648 C 0.38092 0.01696 0.69304 0.0
H1649 H 0.3473 0.93991 0.57649 0.0
H1650 H 0.34614 0.96749 0.63558 0.0
H1651 H 0.39221 0.99365 0.6852 0.0
H1652 H 0.39082 0.07653 0.66282 0.0
H1653 H 0.39099 0.0469 0.65279 0.0
H1654 H 0.34299 0.02449 0.62868 0.0
C1655 C 0.3566 0.96391 0.60871 0.0
C1656 C 0.38136 1.00023 0.67311 0.0
C1657 C 0.35729 0.94813 0.57522 0.0
C1658 C 0.38052 0.07009 0.67751 0.0
C1659 C 0.38068 0.05306 0.67227 0.0
C1660 C 0.35368 0.01784 0.6429 0.0
C1661 C 0.36923 0.97499 0.60664 0.0
C1662 C 0.36809 0.9922 0.63633 0.0
C1663 C 0.36744 0.04413 0.68872 0.0
C1664 C 0.36721 0.02603 0.67649 0.0
H1665 H 0.39368 0.95065 0.51031 0.0
H1666 H 0.39252 0.97814 0.56843 0.0
H1667 H 0.34374 0.9953 0.59417 0.0
H1668 H 0.34354 0.07594 0.7352 0.0
H1669 H 0.34386 0.04611 0.72623 0.0
C1670 C 0.80017 0.64193 0.11786 0.0
C1671 C 0.811 0.62955 0.13369 0.0
C1672 C 0.78508 0.64194 0.14328 0.0
C1673 C 0.76197 0.62544 0.28 0.0
H1674 H 0.72579 0.63562 0.15171 0.0
C1675 C 0.69753 0.61679 0.35118 0.0
C1676 C 0.68674 0.62918 0.33495 0.0
C1677 C 0.71261 0.61666 0.32572 0.0
C1678 C 0.73578 0.63292 0.18844 0.0
H1679 H 0.81477 0.60761 0.18915 0.0
H1680 H 0.78833 0.60754 0.2334 0.0
H1681 H 0.75241 0.63589 0.11045 0.0
H1682 H 0.68307 0.65104 0.2788 0.0
H1683 H 0.7095 0.65092 0.23457 0.0
H1684 H 0.74534 0.62249 0.35802 0.0
C1685 C 0.79151 0.61732 0.20185 0.0
C1686 C 0.75104 0.63308 0.16482 0.0
C1687 C 0.80661 0.61731 0.17632 0.0
C1688 C 0.69118 0.64132 0.29193 0.0
C1689 C 0.70628 0.6412 0.26639 0.0
C1690 C 0.7467 0.62529 0.30363 0.0
C1691 C 0.78053 0.62957 0.18511 0.0
C1692 C 0.76431 0.62936 0.21035 0.0
C1693 C 0.71722 0.62893 0.28347 0.0
C1694 C 0.73343 0.62903 0.25813 0.0
H1695 H 0.80329 0.65155 0.08528 0.0
H1696 H 0.777 0.65169 0.13038 0.0
H1697 H 0.77196 0.62275 0.31672 0.0
H1698 H 0.69436 0.60725 0.38409 0.0
H1699 H 0.72065 0.6069 0.33891 0.0
C1700 C 0.13757 0.05679 0.93025 0.0
C1701 C 0.12448 0.06653 0.94608 0.0
C1702 C 0.13917 0.0413 0.95535 0.0
C1703 C 0.12548 0.01553 0.09041 0.0
H1704 H 0.13776 0.97977 0.95957 0.0
C1705 C 0.11898 0.94855 0.15036 0.0
C1706 C 0.13154 0.938 0.13533 0.0
C1707 C 0.11868 0.96426 0.12732 0.0
C1708 C 0.13451 0.98966 0.99697 0.0
H1709 H 0.10293 0.06797 1.00123 0.0
H1710 H 0.10562 0.0408 0.04479 0.0
H1711 H 0.13633 0.0074 0.92077 0.0
H1712 H 0.15351 0.93536 0.08376 0.0
H1713 H 0.15304 0.96298 0.0434 0.0
H1714 H 0.12354 0.99778 0.16641 0.0
C1715 C 0.11474 0.04518 1.0136 0.0
C1716 C 0.1337 0.00548 0.97481 0.0
C1717 C 0.11314 0.06068 0.98844 0.0
C1718 C 0.14369 0.9433 0.09587 0.0
C1719 C 0.14338 0.95906 0.07265 0.0
C1720 C 0.12628 0.99972 0.11254 0.0
C1721 C 0.1277 0.03527 0.9968 0.0
C1722 C 0.12907 0.01857 1.02115 0.0
C1723 C 0.13094 0.96974 0.08875 0.0
C1724 C 0.13068 0.9866 0.06587 0.0
H1725 H 0.14651 0.06108 0.89786 0.0
H1726 H 0.1494 0.03406 0.94239 0.0
H1727 H 0.12214 0.0254 0.12773 0.0
H1728 H 0.10943 0.94471 0.18048 0.0
H1729 H 0.1088 0.9721 0.13946 0.0
C1730 C 0.68605 0.38869 0.54096 0.0
C1731 C 0.67742 0.37499 0.55717 0.0
C1732 C 0.70257 0.38942 0.55476 0.0
C1733 C 0.73791 0.3638 0.59463 0.0
H1734 H 0.7559 0.40389 0.6906 0.0
C1735 C 0.79777 0.36607 0.76304 0.0
C1736 C 0.80779 0.37962 0.76104 0.0
C1737 C 0.78263 0.36565 0.72733 0.0
C1738 C 0.75113 0.3927 0.66274 0.0
H1739 H 0.67953 0.35112 0.5988 0.0
H1740 H 0.70815 0.35248 0.62333 0.0
H1741 H 0.72795 0.40289 0.64688 0.0
H1742 H 0.8101 0.40322 0.71903 0.0
H1743 H 0.78354 0.40253 0.65635 0.0
H1744 H 0.76101 0.35348 0.6123 0.0
C1745 C 0.70222 0.3626 0.59925 0.0
C1746 C 0.7351 0.39212 0.63761 0.0
C1747 C 0.68574 0.36188 0.5856 0.0
C1748 C 0.80256 0.39264 0.72148 0.0
C1749 C 0.78735 0.39227 0.68595 0.0
C1750 C 0.75392 0.36437 0.61986 0.0
C1751 C 0.71083 0.37645 0.58481 0.0
C1752 C 0.72822 0.37757 0.60454 0.0
C1753 C 0.77717 0.37882 0.68899 0.0
C1754 C 0.76064 0.37873 0.65547 0.0
H1755 H 0.68004 0.399 0.51883 0.0
H1756 H 0.70887 0.40018 0.54228 0.0
H1757 H 0.73306 0.35249 0.56817 0.0
H1758 H 0.80151 0.35587 0.79325 0.0
H1759 H 0.77502 0.35521 0.73159 0.0
loop_
_geom_bond_atom_site_label_1
_geom_bond_atom_site_label_2
_geom_bond_distance
_geom_bond_site_symmetry_2
_ccdc_geom_bond_type
Tb0 O3 2.453 . S
Tb0 O4 2.596 . S
Tb0 O5 2.374 . S
Tb0 O13 2.343 . S
Tb0 O15 2.353 . S
Tb0 O17 2.427 . S
Tb0 O18 2.513 . S
C1 O5 1.251 . S
C1 O7 1.263 . S
Tb2 O4 2.343 . S
Tb2 O7 2.353 . S
Tb2 O10 2.427 . S
Tb2 O11 2.513 . S
Tb2 O12 2.453 1_554 S
Tb2 O13 2.596 . S
Tb2 O14 2.374 . S
O3 Tb0 2.453 . S
O3 C19 1.245 . S
O4 Tb0 2.596 . S
O4 Tb2 2.343 . S
O4 C19 1.259 . S
O5 Tb0 2.374 . S
O5 C1 1.251 . S
C6 O10 1.275 . S
C6 O11 1.246 . S
O7 C1 1.263 . S
O7 Tb2 2.353 . S
C8 O12 1.245 . S
C8 O13 1.259 1_556 S
C9 O14 1.250 . S
C9 O15 1.263 . S
O10 Tb2 2.427 . S
O10 C6 1.275 . S
O11 Tb2 2.513 . S
O11 C6 1.246 . S
O12 Tb2 2.453 1_556 S
O12 C8 1.245 . S
O13 Tb0 2.343 . S
O13 Tb2 2.596 . S
O13 C8 1.259 1_554 S
O14 Tb2 2.374 . S
O14 C9 1.250 . S
O15 Tb0 2.353 . S
O15 C9 1.263 . S
C16 O17 1.275 . S
C16 O18 1.246 . S
O17 Tb0 2.427 . S
O17 C16 1.275 . S
O18 Tb0 2.513 . S
O18 C16 1.246 . S
C19 O3 1.245 . S
C19 O4 1.259 . S
Tb20 O23 2.453 . S
Tb20 O24 2.596 . S
Tb20 O25 2.374 . S
Tb20 O33 2.343 . S
Tb20 O35 2.353 . S
Tb20 O37 2.427 . S
Tb20 O38 2.513 . S
C21 O25 1.251 . S
C21 O27 1.263 . S
Tb22 O24 2.343 . S
Tb22 O27 2.353 . S
Tb22 O30 2.427 . S
Tb22 O31 2.513 . S
Tb22 O32 2.453 . S
Tb22 O33 2.596 . S
Tb22 O34 2.374 . S
O23 Tb20 2.453 . S
O23 C39 1.245 . S
O24 Tb20 2.596 . S
O24 Tb22 2.343 . S
O24 C39 1.259 . S
O25 Tb20 2.374 . S
O25 C21 1.251 . S
C26 O30 1.275 . S
C26 O31 1.246 . S
O27 C21 1.263 . S
O27 Tb22 2.353 . S
C28 O32 1.245 . S
C28 O33 1.259 . S
C29 O34 1.250 . S
C29 O35 1.263 . S
O30 Tb22 2.427 . S
O30 C26 1.275 . S
O31 Tb22 2.513 . S
O31 C26 1.246 . S
O32 Tb22 2.453 . S
O32 C28 1.245 . S
O33 Tb20 2.343 . S
O33 Tb22 2.596 . S
O33 C28 1.259 . S
O34 Tb22 2.374 . S
O34 C29 1.250 . S
O35 Tb20 2.353 . S
O35 C29 1.263 . S
C36 O37 1.275 . S
C36 O38 1.246 . S
O37 Tb20 2.427 . S
O37 C36 1.275 . S
O38 Tb20 2.513 . S
O38 C36 1.246 . S
C39 O23 1.245 . S
C39 O24 1.259 . S
Tb40 O43 2.453 . S
Tb40 O44 2.596 . S
Tb40 O45 2.374 . S
Tb40 O53 2.343 . S
Tb40 O55 2.353 . S
Tb40 O57 2.427 . S
Tb40 O58 2.513 . S
C41 O45 1.251 . S
C41 O47 1.263 . S
Tb42 O44 2.343 . S
Tb42 O47 2.353 . S
Tb42 O50 2.427 . S
Tb42 O51 2.513 . S
Tb42 O52 2.453 . S
Tb42 O53 2.596 . S
Tb42 O54 2.374 . S
O43 Tb40 2.453 . S
O43 C59 1.245 . S
O44 Tb40 2.596 . S
O44 Tb42 2.343 . S
O44 C59 1.259 . S
O45 Tb40 2.374 . S
O45 C41 1.251 . S
C46 O50 1.275 . S
C46 O51 1.246 . S
O47 C41 1.263 . S
O47 Tb42 2.353 . S
C48 O52 1.245 . S
C48 O53 1.259 . S
C49 O54 1.250 . S
C49 O55 1.263 . S
O50 Tb42 2.427 . S
O50 C46 1.275 . S
O51 Tb42 2.513 . S
O51 C46 1.246 . S
O52 Tb42 2.453 . S
O52 C48 1.245 . S
O53 Tb40 2.343 . S
O53 Tb42 2.596 . S
O53 C48 1.259 . S
O54 Tb42 2.374 . S
O54 C49 1.250 . S
O55 Tb40 2.353 . S
O55 C49 1.263 . S
C56 O57 1.275 . S
C56 O58 1.246 . S
O57 Tb40 2.427 . S
O57 C56 1.275 . S
O58 Tb40 2.513 . S
O58 C56 1.246 . S
C59 O43 1.245 . S
C59 O44 1.259 . S
Tb60 O63 2.453 1_556 S
Tb60 O64 2.596 . S
Tb60 O65 2.374 . S
Tb60 O73 2.343 . S
Tb60 O75 2.353 . S
Tb60 O77 2.427 . S
Tb60 O78 2.513 . S
C61 O65 1.251 . S
C61 O67 1.263 . S
Tb62 O64 2.343 . S
Tb62 O67 2.353 . S
Tb62 O70 2.427 . S
Tb62 O71 2.513 . S
Tb62 O72 2.453 . S
Tb62 O73 2.596 . S
Tb62 O74 2.374 . S
O63 Tb60 2.453 1_554 S
O63 C79 1.245 . S
O64 Tb60 2.596 . S
O64 Tb62 2.343 . S
O64 C79 1.259 1_556 S
O65 Tb60 2.374 . S
O65 C61 1.251 . S
C66 O70 1.275 . S
C66 O71 1.246 . S
O67 C61 1.263 . S
O67 Tb62 2.353 . S
C68 O72 1.245 . S
C68 O73 1.259 . S
C69 O74 1.250 . S
C69 O75 1.263 . S
O70 Tb62 2.427 . S
O70 C66 1.275 . S
O71 Tb62 2.513 . S
O71 C66 1.246 . S
O72 Tb62 2.453 . S
O72 C68 1.245 . S
O73 Tb60 2.343 . S
O73 Tb62 2.596 . S
O73 C68 1.259 . S
O74 Tb62 2.374 . S
O74 C69 1.250 . S
O75 Tb60 2.353 . S
O75 C69 1.263 . S
C76 O77 1.275 . S
C76 O78 1.246 . S
O77 Tb60 2.427 . S
O77 C76 1.275 . S
O78 Tb60 2.513 . S
O78 C76 1.246 . S
C79 O63 1.245 . S
C79 O64 1.259 1_554 S
Tb80 O83 2.453 . S
Tb80 O84 2.596 . S
Tb80 O85 2.374 . S
Tb80 O93 2.343 1_556 S
Tb80 O95 2.353 . S
Tb80 O97 2.427 . S
Tb80 O98 2.513 . S
C81 O85 1.251 . S
C81 O87 1.263 . S
Tb82 O84 2.343 . S
Tb82 O87 2.353 . S
Tb82 O90 2.427 . S
Tb82 O91 2.513 . S
Tb82 O92 2.453 1_556 S
Tb82 O93 2.596 1_556 S
Tb82 O94 2.374 . S
O83 Tb80 2.453 . S
O83 C99 1.245 . S
O84 Tb80 2.596 . S
O84 Tb82 2.343 . S
O84 C99 1.259 . S
O85 Tb80 2.374 . S
O85 C81 1.251 . S
C86 O90 1.275 . S
C86 O91 1.246 . S
O87 C81 1.263 . S
O87 Tb82 2.353 . S
C88 O92 1.245 . S
C88 O93 1.259 . S
C89 O94 1.250 . S
C89 O95 1.263 . S
O90 Tb82 2.427 . S
O90 C86 1.275 . S
O91 Tb82 2.513 . S
O91 C86 1.246 . S
O92 Tb82 2.453 1_554 S
O92 C88 1.245 . S
O93 Tb80 2.343 1_554 S
O93 Tb82 2.596 1_554 S
O93 C88 1.259 . S
O94 Tb82 2.374 . S
O94 C89 1.250 . S
O95 Tb80 2.353 . S
O95 C89 1.263 . S
C96 O97 1.275 . S
C96 O98 1.246 . S
O97 Tb80 2.427 . S
O97 C96 1.275 . S
O98 Tb80 2.513 . S
O98 C96 1.246 . S
C99 O83 1.245 . S
C99 O84 1.259 . S
Tb100 O103 2.453 . S
Tb100 O104 2.596 . S
Tb100 O105 2.374 . S
Tb100 O113 2.343 . S
Tb100 O115 2.353 . S
Tb100 O117 2.427 . S
Tb100 O118 2.513 . S
C101 O105 1.251 . S
C101 O107 1.263 . S
Tb102 O104 2.343 . S
Tb102 O107 2.353 . S
Tb102 O110 2.427 . S
Tb102 O111 2.513 . S
Tb102 O112 2.453 1_554 S
Tb102 O113 2.596 . S
Tb102 O114 2.374 . S
O103 Tb100 2.453 . S
O103 C119 1.245 . S
O104 Tb100 2.596 . S
O104 Tb102 2.343 . S
O104 C119 1.259 . S
O105 Tb100 2.374 . S
O105 C101 1.251 . S
C106 O110 1.275 . S
C106 O111 1.246 . S
O107 C101 1.263 . S
O107 Tb102 2.353 . S
C108 O112 1.245 . S
C108 O113 1.259 1_556 S
C109 O114 1.250 . S
C109 O115 1.263 . S
O110 Tb102 2.427 . S
O110 C106 1.275 . S
O111 Tb102 2.513 . S
O111 C106 1.246 . S
O112 Tb102 2.453 1_556 S
O112 C108 1.245 . S
O113 Tb100 2.343 . S
O113 Tb102 2.596 . S
O113 C108 1.259 1_554 S
O114 Tb102 2.374 . S
O114 C109 1.250 . S
O115 Tb100 2.353 . S
O115 C109 1.263 . S
C116 O117 1.275 . S
C116 O118 1.246 . S
O117 Tb100 2.427 . S
O117 C116 1.275 . S
O118 Tb100 2.513 . S
O118 C116 1.246 . S
C119 O103 1.245 . S
C119 O104 1.259 . S
Tb120 O123 2.453 . S
Tb120 O124 2.596 . S
Tb120 O125 2.374 . S
Tb120 O133 2.343 . S
Tb120 O135 2.353 . S
Tb120 O137 2.427 . S
Tb120 O138 2.513 . S
C121 O125 1.251 . S
C121 O127 1.263 . S
Tb122 O124 2.343 . S
Tb122 O127 2.353 . S
Tb122 O130 2.427 . S
Tb122 O131 2.513 . S
Tb122 O132 2.453 . S
Tb122 O133 2.596 . S
Tb122 O134 2.374 . S
O123 Tb120 2.453 . S
O123 C139 1.245 . S
O124 Tb120 2.596 . S
O124 Tb122 2.343 . S
O124 C139 1.259 . S
O125 Tb120 2.374 . S
O125 C121 1.251 . S
C126 O130 1.275 . S
C126 O131 1.246 . S
O127 C121 1.263 . S
O127 Tb122 2.353 . S
C128 O132 1.245 . S
C128 O133 1.259 . S
C129 O134 1.250 . S
C129 O135 1.263 . S
O130 Tb122 2.427 . S
O130 C126 1.275 . S
O131 Tb122 2.513 . S
O131 C126 1.246 . S
O132 Tb122 2.453 . S
O132 C128 1.245 . S
O133 Tb120 2.343 . S
O133 Tb122 2.596 . S
O133 C128 1.259 . S
O134 Tb122 2.374 . S
O134 C129 1.250 . S
O135 Tb120 2.353 . S
O135 C129 1.263 . S
C136 O137 1.275 . S
C136 O138 1.246 . S
O137 Tb120 2.427 . S
O137 C136 1.275 . S
O138 Tb120 2.513 . S
O138 C136 1.246 . S
C139 O123 1.245 . S
C139 O124 1.259 . S
Tb140 O143 2.453 . S
Tb140 O144 2.596 . S
Tb140 O145 2.374 . S
Tb140 O153 2.343 . S
Tb140 O155 2.353 . S
Tb140 O157 2.427 . S
Tb140 O158 2.513 . S
C141 O145 1.251 . S
C141 O147 1.263 . S
Tb142 O144 2.343 . S
Tb142 O147 2.353 . S
Tb142 O150 2.427 . S
Tb142 O151 2.513 . S
Tb142 O152 2.453 . S
Tb142 O153 2.596 . S
Tb142 O154 2.374 . S
O143 Tb140 2.453 . S
O143 C159 1.245 . S
O144 Tb140 2.596 . S
O144 Tb142 2.343 . S
O144 C159 1.259 . S
O145 Tb140 2.374 . S
O145 C141 1.251 . S
C146 O150 1.275 . S
C146 O151 1.246 . S
O147 C141 1.263 . S
O147 Tb142 2.353 . S
C148 O152 1.245 . S
C148 O153 1.259 . S
C149 O154 1.250 . S
C149 O155 1.263 . S
O150 Tb142 2.427 . S
O150 C146 1.275 . S
O151 Tb142 2.513 . S
O151 C146 1.246 . S
O152 Tb142 2.453 . S
O152 C148 1.245 . S
O153 Tb140 2.343 . S
O153 Tb142 2.596 . S
O153 C148 1.259 . S
O154 Tb142 2.374 . S
O154 C149 1.250 . S
O155 Tb140 2.353 . S
O155 C149 1.263 . S
C156 O157 1.275 . S
C156 O158 1.246 . S
O157 Tb140 2.427 . S
O157 C156 1.275 . S
O158 Tb140 2.513 . S
O158 C156 1.246 . S
C159 O143 1.245 . S
C159 O144 1.259 . S
Tb160 O163 2.453 1_556 S
Tb160 O164 2.596 . S
Tb160 O165 2.374 . S
Tb160 O173 2.343 . S
Tb160 O175 2.353 . S
Tb160 O177 2.427 . S
Tb160 O178 2.513 . S
C161 O165 1.251 . S
C161 O167 1.263 . S
Tb162 O164 2.343 . S
Tb162 O167 2.353 . S
Tb162 O170 2.427 . S
Tb162 O171 2.513 . S
Tb162 O172 2.453 . S
Tb162 O173 2.596 . S
Tb162 O174 2.374 . S
O163 Tb160 2.453 1_554 S
O163 C179 1.245 1_554 S
O164 Tb160 2.596 . S
O164 Tb162 2.343 . S
O164 C179 1.259 . S
O165 Tb160 2.374 . S
O165 C161 1.251 . S
C166 O170 1.275 . S
C166 O171 1.246 . S
O167 C161 1.263 . S
O167 Tb162 2.353 . S
C168 O172 1.245 . S
C168 O173 1.259 . S
C169 O174 1.250 . S
C169 O175 1.263 . S
O170 Tb162 2.427 . S
O170 C166 1.275 . S
O171 Tb162 2.513 . S
O171 C166 1.246 . S
O172 Tb162 2.453 . S
O172 C168 1.245 . S
O173 Tb160 2.343 . S
O173 Tb162 2.596 . S
O173 C168 1.259 . S
O174 Tb162 2.374 . S
O174 C169 1.250 . S
O175 Tb160 2.353 . S
O175 C169 1.263 . S
C176 O177 1.275 . S
C176 O178 1.246 . S
O177 Tb160 2.427 . S
O177 C176 1.275 . S
O178 Tb160 2.513 . S
O178 C176 1.246 . S
C179 O163 1.245 1_556 S
C179 O164 1.259 . S
Tb180 O183 2.453 . S
Tb180 O184 2.596 . S
Tb180 O185 2.374 . S
Tb180 O193 2.343 . S
Tb180 O195 2.353 . S
Tb180 O197 2.427 . S
Tb180 O198 2.513 . S
C181 O185 1.251 . S
C181 O187 1.263 . S
Tb182 O184 2.343 . S
Tb182 O187 2.353 . S
Tb182 O190 2.427 . S
Tb182 O191 2.513 . S
Tb182 O192 2.453 . S
Tb182 O193 2.596 . S
Tb182 O194 2.374 . S
O183 Tb180 2.453 . S
O183 C199 1.245 . S
O184 Tb180 2.596 . S
O184 Tb182 2.343 . S
O184 C199 1.259 . S
O185 Tb180 2.374 . S
O185 C181 1.251 . S
C186 O190 1.275 . S
C186 O191 1.246 . S
O187 C181 1.263 . S
O187 Tb182 2.353 . S
C188 O192 1.245 . S
C188 O193 1.259 . S
C189 O194 1.250 . S
C189 O195 1.263 . S
O190 Tb182 2.427 . S
O190 C186 1.275 . S
O191 Tb182 2.513 . S
O191 C186 1.246 . S
O192 Tb182 2.453 . S
O192 C188 1.245 . S
O193 Tb180 2.343 . S
O193 Tb182 2.596 . S
O193 C188 1.259 . S
O194 Tb182 2.374 . S
O194 C189 1.250 . S
O195 Tb180 2.353 . S
O195 C189 1.263 . S
C196 O197 1.275 . S
C196 O198 1.246 . S
O197 Tb180 2.427 . S
O197 C196 1.275 . S
O198 Tb180 2.513 . S
O198 C196 1.246 . S
C199 O183 1.245 . S
C199 O184 1.259 . S
Tb200 O203 2.453 . S
Tb200 O204 2.596 . S
Tb200 O205 2.374 . S
Tb200 O213 2.343 . S
Tb200 O215 2.353 . S
Tb200 O217 2.427 . S
Tb200 O218 2.513 . S
C201 O205 1.251 . S
C201 O207 1.263 . S
Tb202 O204 2.343 . S
Tb202 O207 2.353 . S
Tb202 O210 2.427 . S
Tb202 O211 2.513 . S
Tb202 O212 2.453 . S
Tb202 O213 2.596 . S
Tb202 O214 2.374 . S
O203 Tb200 2.453 . S
O203 C219 1.245 . S
O204 Tb200 2.596 . S
O204 Tb202 2.343 . S
O204 C219 1.259 . S
O205 Tb200 2.374 . S
O205 C201 1.251 . S
C206 O210 1.275 . S
C206 O211 1.246 . S
O207 C201 1.263 . S
O207 Tb202 2.353 . S
C208 O212 1.245 . S
C208 O213 1.259 . S
C209 O214 1.250 . S
C209 O215 1.263 . S
O210 Tb202 2.427 . S
O210 C206 1.275 . S
O211 Tb202 2.513 . S
O211 C206 1.246 . S
O212 Tb202 2.453 . S
O212 C208 1.245 . S
O213 Tb200 2.343 . S
O213 Tb202 2.596 . S
O213 C208 1.259 . S
O214 Tb202 2.374 . S
O214 C209 1.250 . S
O215 Tb200 2.353 . S
O215 C209 1.263 . S
C216 O217 1.275 . S
C216 O218 1.246 . S
O217 Tb200 2.427 . S
O217 C216 1.275 . S
O218 Tb200 2.513 . S
O218 C216 1.246 . S
C219 O203 1.245 . S
C219 O204 1.259 . S
Tb220 O223 2.453 . S
Tb220 O224 2.596 . S
Tb220 O225 2.374 . S
Tb220 O233 2.343 . S
Tb220 O235 2.353 . S
Tb220 O237 2.427 . S
Tb220 O238 2.513 . S
C221 O225 1.251 . S
C221 O227 1.263 . S
Tb222 O224 2.343 . S
Tb222 O227 2.353 . S
Tb222 O230 2.427 . S
Tb222 O231 2.513 . S
Tb222 O232 2.453 . S
Tb222 O233 2.596 . S
Tb222 O234 2.374 . S
O223 Tb220 2.453 . S
O223 C239 1.245 . S
O224 Tb220 2.596 . S
O224 Tb222 2.343 . S
O224 C239 1.259 . S
O225 Tb220 2.374 . S
O225 C221 1.251 . S
C226 O230 1.275 . S
C226 O231 1.246 . S
O227 C221 1.263 . S
O227 Tb222 2.353 . S
C228 O232 1.245 . S
C228 O233 1.259 . S
C229 O234 1.250 . S
C229 O235 1.263 . S
O230 Tb222 2.427 . S
O230 C226 1.275 . S
O231 Tb222 2.513 . S
O231 C226 1.246 . S
O232 Tb222 2.453 . S
O232 C228 1.245 . S
O233 Tb220 2.343 . S
O233 Tb222 2.596 . S
O233 C228 1.259 . S
O234 Tb222 2.374 . S
O234 C229 1.250 . S
O235 Tb220 2.353 . S
O235 C229 1.263 . S
C236 O237 1.275 . S
C236 O238 1.246 . S
O237 Tb220 2.427 . S
O237 C236 1.275 . S
O238 Tb220 2.513 . S
O238 C236 1.246 . S
C239 O223 1.245 . S
C239 O224 1.259 . S
Tb240 O243 2.453 . S
Tb240 O244 2.596 . S
Tb240 O245 2.374 . S
Tb240 O253 2.343 1_556 S
Tb240 O255 2.353 1_556 S
Tb240 O257 2.427 1_556 S
Tb240 O258 2.513 1_556 S
C241 O245 1.251 1_554 S
C241 O247 1.263 . S
Tb242 O244 2.343 1_554 S
Tb242 O247 2.353 . S
Tb242 O250 2.427 1_554 S
Tb242 O251 2.513 1_554 S
Tb242 O252 2.453 . S
Tb242 O253 2.596 . S
Tb242 O254 2.374 . S
O243 Tb240 2.453 . S
O243 C259 1.245 . S
O244 Tb240 2.596 . S
O244 Tb242 2.343 1_556 S
O244 C259 1.259 . S
O245 Tb240 2.374 . S
O245 C241 1.251 1_556 S
C246 O250 1.275 . S
C246 O251 1.246 . S
O247 C241 1.263 . S
O247 Tb242 2.353 . S
C248 O252 1.245 . S
C248 O253 1.259 . S
C249 O254 1.250 . S
C249 O255 1.263 . S
O250 Tb242 2.427 1_556 S
O250 C246 1.275 . S
O251 Tb242 2.513 1_556 S
O251 C246 1.246 . S
O252 Tb242 2.453 . S
O252 C248 1.245 . S
O253 Tb240 2.343 1_554 S
O253 Tb242 2.596 . S
O253 C248 1.259 . S
O254 Tb242 2.374 . S
O254 C249 1.250 . S
O255 Tb240 2.353 1_554 S
O255 C249 1.263 . S
C256 O257 1.275 . S
C256 O258 1.246 . S
O257 Tb240 2.427 1_554 S
O257 C256 1.275 . S
O258 Tb240 2.513 1_554 S
O258 C256 1.246 . S
C259 O243 1.245 . S
C259 O244 1.259 . S
Tb260 O263 2.453 . S
Tb260 O264 2.596 . S
Tb260 O265 2.374 . S
Tb260 O273 2.343 . S
Tb260 O275 2.353 . S
Tb260 O277 2.427 . S
Tb260 O278 2.513 . S
C261 O265 1.251 . S
C261 O267 1.263 . S
Tb262 O264 2.343 . S
Tb262 O267 2.353 . S
Tb262 O270 2.427 . S
Tb262 O271 2.513 . S
Tb262 O272 2.453 1_556 S
Tb262 O273 2.596 . S
Tb262 O274 2.374 . S
O263 Tb260 2.453 . S
O263 C279 1.245 . S
O264 Tb260 2.596 . S
O264 Tb262 2.343 . S
O264 C279 1.259 . S
O265 Tb260 2.374 . S
O265 C261 1.251 . S
C266 O270 1.275 . S
C266 O271 1.246 . S
O267 C261 1.263 . S
O267 Tb262 2.353 . S
C268 O272 1.245 . S
C268 O273 1.259 1_554 S
C269 O274 1.250 . S
C269 O275 1.263 . S
O270 Tb262 2.427 . S
O270 C266 1.275 . S
O271 Tb262 2.513 . S
O271 C266 1.246 . S
O272 Tb262 2.453 1_554 S
O272 C268 1.245 . S
O273 Tb260 2.343 . S
O273 Tb262 2.596 . S
O273 C268 1.259 1_556 S
O274 Tb262 2.374 . S
O274 C269 1.250 . S
O275 Tb260 2.353 . S
O275 C269 1.263 . S
C276 O277 1.275 . S
C276 O278 1.246 . S
O277 Tb260 2.427 . S
O277 C276 1.275 . S
O278 Tb260 2.513 . S
O278 C276 1.246 . S
C279 O263 1.245 . S
C279 O264 1.259 . S
Tb280 O283 2.453 . S
Tb280 O284 2.596 . S
Tb280 O285 2.374 . S
Tb280 O293 2.343 . S
Tb280 O295 2.353 . S
Tb280 O297 2.427 . S
Tb280 O298 2.513 . S
C281 O285 1.251 . S
C281 O287 1.263 . S
Tb282 O284 2.343 . S
Tb282 O287 2.353 . S
Tb282 O290 2.427 . S
Tb282 O291 2.513 . S
Tb282 O292 2.453 . S
Tb282 O293 2.596 . S
Tb282 O294 2.374 . S
O283 Tb280 2.453 . S
O283 C299 1.245 . S
O284 Tb280 2.596 . S
O284 Tb282 2.343 . S
O284 C299 1.259 . S
O285 Tb280 2.374 . S
O285 C281 1.251 . S
C286 O290 1.275 . S
C286 O291 1.246 . S
O287 C281 1.263 . S
O287 Tb282 2.353 . S
C288 O292 1.245 . S
C288 O293 1.259 . S
C289 O294 1.250 . S
C289 O295 1.263 . S
O290 Tb282 2.427 . S
O290 C286 1.275 . S
O291 Tb282 2.513 . S
O291 C286 1.246 . S
O292 Tb282 2.453 . S
O292 C288 1.245 . S
O293 Tb280 2.343 . S
O293 Tb282 2.596 . S
O293 C288 1.259 . S
O294 Tb282 2.374 . S
O294 C289 1.250 . S
O295 Tb280 2.353 . S
O295 C289 1.263 . S
C296 O297 1.275 . S
C296 O298 1.246 . S
O297 Tb280 2.427 . S
O297 C296 1.275 . S
O298 Tb280 2.513 . S
O298 C296 1.246 . S
C299 O283 1.245 . S
C299 O284 1.259 . S
Tb300 O303 2.453 . S
Tb300 O304 2.596 . S
Tb300 O305 2.374 . S
Tb300 O313 2.343 . S
Tb300 O315 2.353 . S
Tb300 O317 2.427 . S
Tb300 O318 2.513 . S
C301 O305 1.251 . S
C301 O307 1.263 . S
Tb302 O304 2.343 . S
Tb302 O307 2.353 . S
Tb302 O310 2.427 . S
Tb302 O311 2.513 . S
Tb302 O312 2.453 . S
Tb302 O313 2.596 . S
Tb302 O314 2.374 . S
O303 Tb300 2.453 . S
O303 C319 1.245 . S
O304 Tb300 2.596 . S
O304 Tb302 2.343 . S
O304 C319 1.259 . S
O305 Tb300 2.374 . S
O305 C301 1.251 . S
C306 O310 1.275 . S
C306 O311 1.246 . S
O307 C301 1.263 . S
O307 Tb302 2.353 . S
C308 O312 1.245 . S
C308 O313 1.259 . S
C309 O314 1.250 . S
C309 O315 1.263 . S
O310 Tb302 2.427 . S
O310 C306 1.275 . S
O311 Tb302 2.513 . S
O311 C306 1.246 . S
O312 Tb302 2.453 . S
O312 C308 1.245 . S
O313 Tb300 2.343 . S
O313 Tb302 2.596 . S
O313 C308 1.259 . S
O314 Tb302 2.374 . S
O314 C309 1.250 . S
O315 Tb300 2.353 . S
O315 C309 1.263 . S
C316 O317 1.275 . S
C316 O318 1.246 . S
O317 Tb300 2.427 . S
O317 C316 1.275 . S
O318 Tb300 2.513 . S
O318 C316 1.246 . S
C319 O303 1.245 . S
C319 O304 1.259 . S
C320 C321 1.349 . S
C320 C322 1.327 . S
C320 H345 0.950 . S
C321 C320 1.349 . S
C321 C337 1.349 . S
C322 C320 1.327 . S
C322 C341 1.429 . S
C322 H346 0.950 . S
C323 C340 1.574 . S
C323 C342 1.368 . S
C323 H347 0.949 . S
H324 C328 0.949 . S
C325 C326 1.349 . S
C325 C327 1.327 . S
C325 H348 0.950 . S
C326 C325 1.349 . S
C326 C338 1.349 . S
C327 C325 1.327 . S
C327 C343 1.429 . S
C327 H349 0.950 . S
C328 H324 0.949 . S
C328 C336 1.574 . S
C328 C344 1.368 . S
H329 C337 0.950 . S
H330 C335 0.950 . S
H331 C336 0.949 . S
H332 C338 0.950 . S
H333 C339 0.950 . S
H334 C340 0.949 . S
C335 H330 0.950 . S
C335 C337 1.327 . S
C335 C341 1.429 . S
C336 C328 1.574 . S
C336 H331 0.949 . S
C336 C342 1.368 . S
C337 C321 1.349 . S
C337 H329 0.950 . S
C337 C335 1.327 . S
C338 C326 1.349 . S
C338 H332 0.950 . S
C338 C339 1.327 . S
C339 H333 0.950 . S
C339 C338 1.327 . S
C339 C343 1.429 . S
C340 C323 1.574 . S
C340 H334 0.949 . S
C340 C344 1.368 . S
C341 C322 1.429 . S
C341 C335 1.429 . S
C341 C342 1.523 . S
C342 C323 1.368 . S
C342 C336 1.368 . S
C342 C341 1.523 . S
C343 C327 1.429 . S
C343 C339 1.429 . S
C343 C344 1.523 . S
C344 C328 1.368 . S
C344 C340 1.368 . S
C344 C343 1.523 . S
H345 C320 0.950 . S
H346 C322 0.950 . S
H347 C323 0.949 . S
H348 C325 0.950 . S
H349 C327 0.950 . S
C350 C351 1.349 . S
C350 C352 1.327 . S
C350 H375 0.950 . S
C351 C350 1.349 . S
C351 C367 1.349 . S
C352 C350 1.327 . S
C352 C371 1.429 . S
C352 H376 0.950 . S
C353 C370 1.574 . S
C353 C372 1.368 . S
C353 H377 0.949 1_556 S
H354 C358 0.949 . S
C355 C356 1.349 . S
C355 C357 1.327 . S
C355 H378 0.950 . S
C356 C355 1.349 . S
C356 C368 1.349 . S
C357 C355 1.327 . S
C357 C373 1.429 . S
C357 H379 0.950 . S
C358 H354 0.949 . S
C358 C366 1.574 . S
C358 C374 1.368 . S
H359 C367 0.950 . S
H360 C365 0.950 . S
H361 C366 0.949 . S
H362 C368 0.950 . S
H363 C369 0.950 . S
H364 C370 0.949 . S
C365 H360 0.950 . S
C365 C367 1.327 . S
C365 C371 1.429 . S
C366 C358 1.574 . S
C366 H361 0.949 . S
C366 C372 1.368 . S
C367 C351 1.349 . S
C367 H359 0.950 . S
C367 C365 1.327 . S
C368 C356 1.349 . S
C368 H362 0.950 . S
C368 C369 1.327 . S
C369 H363 0.950 . S
C369 C368 1.327 . S
C369 C373 1.429 . S
C370 C353 1.574 . S
C370 H364 0.949 . S
C370 C374 1.368 . S
C371 C352 1.429 . S
C371 C365 1.429 . S
C371 C372 1.523 1_554 S
C372 C353 1.368 . S
C372 C366 1.368 . S
C372 C371 1.523 1_556 S
C373 C357 1.429 . S
C373 C369 1.429 . S
C373 C374 1.523 . S
C374 C358 1.368 . S
C374 C370 1.368 . S
C374 C373 1.523 . S
H375 C350 0.950 . S
H376 C352 0.950 . S
H377 C353 0.949 1_554 S
H378 C355 0.950 . S
H379 C357 0.950 . S
C380 C381 1.349 . S
C380 C382 1.327 . S
C380 H405 0.950 . S
C381 C380 1.349 . S
C381 C397 1.349 . S
C382 C380 1.327 . S
C382 C401 1.429 . S
C382 H406 0.950 . S
C383 C400 1.574 . S
C383 C402 1.368 . S
C383 H407 0.949 . S
H384 C388 0.949 . S
C385 C386 1.349 . S
C385 C387 1.327 . S
C385 H408 0.950 . S
C386 C385 1.349 . S
C386 C398 1.349 . S
C387 C385 1.327 . S
C387 C403 1.429 . S
C387 H409 0.950 . S
C388 H384 0.949 . S
C388 C396 1.574 . S
C388 C404 1.368 . S
H389 C397 0.950 . S
H390 C395 0.950 . S
H391 C396 0.949 . S
H392 C398 0.950 . S
H393 C399 0.950 . S
H394 C400 0.949 . S
C395 H390 0.950 . S
C395 C397 1.327 . S
C395 C401 1.429 . S
C396 C388 1.574 . S
C396 H391 0.949 . S
C396 C402 1.368 . S
C397 C381 1.349 . S
C397 H389 0.950 . S
C397 C395 1.327 . S
C398 C386 1.349 . S
C398 H392 0.950 . S
C398 C399 1.327 . S
C399 H393 0.950 . S
C399 C398 1.327 . S
C399 C403 1.429 . S
C400 C383 1.574 . S
C400 H394 0.949 . S
C400 C404 1.368 . S
C401 C382 1.429 . S
C401 C395 1.429 . S
C401 C402 1.523 . S
C402 C383 1.368 . S
C402 C396 1.368 . S
C402 C401 1.523 . S
C403 C387 1.429 . S
C403 C399 1.429 . S
C403 C404 1.523 1_556 S
C404 C388 1.368 . S
C404 C400 1.368 . S
C404 C403 1.523 1_554 S
H405 C380 0.950 . S
H406 C382 0.950 . S
H407 C383 0.949 . S
H408 C385 0.950 . S
H409 C387 0.950 . S
C410 C411 1.349 . S
C410 C412 1.327 . S
C410 H435 0.950 . S
C411 C410 1.349 . S
C411 C427 1.349 . S
C412 C410 1.327 . S
C412 C431 1.429 . S
C412 H436 0.950 . S
C413 C430 1.574 . S
C413 C432 1.368 . S
C413 H437 0.949 . S
H414 C418 0.949 . S
C415 C416 1.349 . S
C415 C417 1.327 . S
C415 H438 0.950 . S
C416 C415 1.349 . S
C416 C428 1.349 . S
C417 C415 1.327 . S
C417 C433 1.429 . S
C417 H439 0.950 . S
C418 H414 0.949 . S
C418 C426 1.574 . S
C418 C434 1.368 . S
H419 C427 0.950 . S
H420 C425 0.950 . S
H421 C426 0.949 . S
H422 C428 0.950 . S
H423 C429 0.950 . S
H424 C430 0.949 . S
C425 H420 0.950 . S
C425 C427 1.327 . S
C425 C431 1.429 . S
C426 C418 1.574 . S
C426 H421 0.949 . S
C426 C432 1.368 . S
C427 C411 1.349 . S
C427 H419 0.950 . S
C427 C425 1.327 . S
C428 C416 1.349 . S
C428 H422 0.950 . S
C428 C429 1.327 . S
C429 H423 0.950 . S
C429 C428 1.327 . S
C429 C433 1.429 . S
C430 C413 1.574 . S
C430 H424 0.949 . S
C430 C434 1.368 . S
C431 C412 1.429 . S
C431 C425 1.429 . S
C431 C432 1.523 . S
C432 C413 1.368 . S
C432 C426 1.368 . S
C432 C431 1.523 . S
C433 C417 1.429 . S
C433 C429 1.429 . S
C433 C434 1.523 . S
C434 C418 1.368 . S
C434 C430 1.368 . S
C434 C433 1.523 . S
H435 C410 0.950 . S
H436 C412 0.950 . S
H437 C413 0.949 . S
H438 C415 0.950 . S
H439 C417 0.950 . S
C440 C441 1.349 . S
C440 C442 1.327 . S
C440 H465 0.950 . S
C441 C440 1.349 . S
C441 C457 1.349 . S
C442 C440 1.327 . S
C442 C461 1.429 . S
C442 H466 0.950 . S
C443 C460 1.574 . S
C443 C462 1.368 . S
C443 H467 0.949 . S
H444 C448 0.949 . S
C445 C446 1.349 . S
C445 C447 1.327 . S
C445 H468 0.950 . S
C446 C445 1.349 . S
C446 C458 1.349 . S
C447 C445 1.327 . S
C447 C463 1.429 . S
C447 H469 0.950 . S
C448 H444 0.949 . S
C448 C456 1.574 . S
C448 C464 1.368 . S
H449 C457 0.950 . S
H450 C455 0.950 . S
H451 C456 0.949 . S
H452 C458 0.950 . S
H453 C459 0.950 . S
H454 C460 0.949 . S
C455 H450 0.950 . S
C455 C457 1.327 . S
C455 C461 1.429 . S
C456 C448 1.574 . S
C456 H451 0.949 . S
C456 C462 1.368 . S
C457 C441 1.349 . S
C457 H449 0.950 . S
C457 C455 1.327 . S
C458 C446 1.349 . S
C458 H452 0.950 . S
C458 C459 1.327 . S
C459 H453 0.950 . S
C459 C458 1.327 . S
C459 C463 1.429 . S
C460 C443 1.574 . S
C460 H454 0.949 . S
C460 C464 1.368 . S
C461 C442 1.429 . S
C461 C455 1.429 . S
C461 C462 1.523 . S
C462 C443 1.368 . S
C462 C456 1.368 . S
C462 C461 1.523 . S
C463 C447 1.429 . S
C463 C459 1.429 . S
C463 C464 1.523 . S
C464 C448 1.368 . S
C464 C460 1.368 . S
C464 C463 1.523 . S
H465 C440 0.950 . S
H466 C442 0.950 . S
H467 C443 0.949 . S
H468 C445 0.950 . S
H469 C447 0.950 . S
C470 C471 1.349 . S
C470 C472 1.327 . S
C470 H495 0.950 . S
C471 C470 1.349 . S
C471 C487 1.349 . S
C472 C470 1.327 . S
C472 C491 1.429 . S
C472 H496 0.950 . S
C473 C490 1.574 . S
C473 C492 1.368 . S
C473 H497 0.949 . S
H474 C478 0.949 . S
C475 C476 1.349 . S
C475 C477 1.327 . S
C475 H498 0.950 . S
C476 C475 1.349 . S
C476 C488 1.349 . S
C477 C475 1.327 . S
C477 C493 1.429 . S
C477 H499 0.950 . S
C478 H474 0.949 . S
C478 C486 1.574 . S
C478 C494 1.368 . S
H479 C487 0.950 . S
H480 C485 0.950 . S
H481 C486 0.949 . S
H482 C488 0.950 . S
H483 C489 0.950 . S
H484 C490 0.949 . S
C485 H480 0.950 . S
C485 C487 1.327 . S
C485 C491 1.429 . S
C486 C478 1.574 . S
C486 H481 0.949 . S
C486 C492 1.368 . S
C487 C471 1.349 . S
C487 H479 0.950 . S
C487 C485 1.327 . S
C488 C476 1.349 . S
C488 H482 0.950 . S
C488 C489 1.327 . S
C489 H483 0.950 . S
C489 C488 1.327 . S
C489 C493 1.429 . S
C490 C473 1.574 . S
C490 H484 0.949 . S
C490 C494 1.368 . S
C491 C472 1.429 . S
C491 C485 1.429 . S
C491 C492 1.523 . S
C492 C473 1.368 . S
C492 C486 1.368 . S
C492 C491 1.523 . S
C493 C477 1.429 . S
C493 C489 1.429 . S
C493 C494 1.523 . S
C494 C478 1.368 . S
C494 C490 1.368 . S
C494 C493 1.523 . S
H495 C470 0.950 . S
H496 C472 0.950 . S
H497 C473 0.949 . S
H498 C475 0.950 . S
H499 C477 0.950 . S
C500 C501 1.349 . S
C500 C502 1.327 . S
C500 H525 0.950 . S
C501 C500 1.349 . S
C501 C517 1.349 . S
C502 C500 1.327 . S
C502 C521 1.429 . S
C502 H526 0.950 . S
C503 C520 1.574 . S
C503 C522 1.368 . S
C503 H527 0.949 . S
H504 C508 0.949 . S
C505 C506 1.349 . S
C505 C507 1.327 . S
C505 H528 0.950 . S
C506 C505 1.349 . S
C506 C518 1.349 . S
C507 C505 1.327 . S
C507 C523 1.429 . S
C507 H529 0.950 . S
C508 H504 0.949 . S
C508 C516 1.574 . S
C508 C524 1.368 . S
H509 C517 0.950 . S
H510 C515 0.950 . S
H511 C516 0.949 . S
H512 C518 0.950 . S
H513 C519 0.950 . S
H514 C520 0.949 . S
C515 H510 0.950 . S
C515 C517 1.327 . S
C515 C521 1.429 . S
C516 C508 1.574 . S
C516 H511 0.949 . S
C516 C522 1.368 . S
C517 C501 1.349 . S
C517 H509 0.950 . S
C517 C515 1.327 . S
C518 C506 1.349 . S
C518 H512 0.950 . S
C518 C519 1.327 . S
C519 H513 0.950 . S
C519 C518 1.327 . S
C519 C523 1.429 . S
C520 C503 1.574 . S
C520 H514 0.949 . S
C520 C524 1.368 . S
C521 C502 1.429 . S
C521 C515 1.429 . S
C521 C522 1.523 . S
C522 C503 1.368 . S
C522 C516 1.368 . S
C522 C521 1.523 . S
C523 C507 1.429 . S
C523 C519 1.429 . S
C523 C524 1.523 1_554 S
C524 C508 1.368 . S
C524 C520 1.368 . S
C524 C523 1.523 1_556 S
H525 C500 0.950 . S
H526 C502 0.950 . S
H527 C503 0.949 . S
H528 C505 0.950 . S
H529 C507 0.950 . S
C530 C531 1.349 . S
C530 C532 1.327 . S
C530 H555 0.950 . S
C531 C530 1.349 . S
C531 C547 1.349 . S
C532 C530 1.327 . S
C532 C551 1.429 . S
C532 H556 0.950 . S
C533 C550 1.574 . S
C533 C552 1.368 . S
C533 H557 0.949 . S
H534 C538 0.949 . S
C535 C536 1.349 . S
C535 C537 1.327 . S
C535 H558 0.950 . S
C536 C535 1.349 . S
C536 C548 1.349 . S
C537 C535 1.327 . S
C537 C553 1.429 . S
C537 H559 0.950 . S
C538 H534 0.949 . S
C538 C546 1.574 . S
C538 C554 1.368 . S
H539 C547 0.950 . S
H540 C545 0.950 . S
H541 C546 0.949 . S
H542 C548 0.950 . S
H543 C549 0.950 . S
H544 C550 0.949 . S
C545 H540 0.950 . S
C545 C547 1.327 . S
C545 C551 1.429 . S
C546 C538 1.574 . S
C546 H541 0.949 . S
C546 C552 1.368 . S
C547 C531 1.349 . S
C547 H539 0.950 . S
C547 C545 1.327 . S
C548 C536 1.349 . S
C548 H542 0.950 . S
C548 C549 1.327 . S
C549 H543 0.950 . S
C549 C548 1.327 . S
C549 C553 1.429 . S
C550 C533 1.574 . S
C550 H544 0.949 . S
C550 C554 1.368 . S
C551 C532 1.429 . S
C551 C545 1.429 . S
C551 C552 1.523 1_556 S
C552 C533 1.368 . S
C552 C546 1.368 . S
C552 C551 1.523 1_554 S
C553 C537 1.429 . S
C553 C549 1.429 . S
C553 C554 1.523 . S
C554 C538 1.368 . S
C554 C550 1.368 . S
C554 C553 1.523 . S
H555 C530 0.950 . S
H556 C532 0.950 . S
H557 C533 0.949 . S
H558 C535 0.950 . S
H559 C537 0.950 . S
C560 C561 1.349 . S
C560 C562 1.327 . S
C560 H585 0.950 . S
C561 C560 1.349 . S
C561 C577 1.349 . S
C562 C560 1.327 . S
C562 C581 1.429 . S
C562 H586 0.950 . S
C563 C580 1.574 . S
C563 C582 1.368 . S
C563 H587 0.949 . S
H564 C568 0.949 . S
C565 C566 1.349 . S
C565 C567 1.327 . S
C565 H588 0.950 . S
C566 C565 1.349 . S
C566 C578 1.349 . S
C567 C565 1.327 . S
C567 C583 1.429 . S
C567 H589 0.950 . S
C568 H564 0.949 . S
C568 C576 1.574 . S
C568 C584 1.368 . S
H569 C577 0.950 . S
H570 C575 0.950 . S
H571 C576 0.949 . S
H572 C578 0.950 . S
H573 C579 0.950 . S
H574 C580 0.949 . S
C575 H570 0.950 . S
C575 C577 1.327 . S
C575 C581 1.429 . S
C576 C568 1.574 . S
C576 H571 0.949 . S
C576 C582 1.368 . S
C577 C561 1.349 . S
C577 H569 0.950 . S
C577 C575 1.327 . S
C578 C566 1.349 . S
C578 H572 0.950 . S
C578 C579 1.327 . S
C579 H573 0.950 . S
C579 C578 1.327 . S
C579 C583 1.429 . S
C580 C563 1.574 . S
C580 H574 0.949 . S
C580 C584 1.368 . S
C581 C562 1.429 . S
C581 C575 1.429 . S
C581 C582 1.523 . S
C582 C563 1.368 . S
C582 C576 1.368 . S
C582 C581 1.523 . S
C583 C567 1.429 . S
C583 C579 1.429 . S
C583 C584 1.523 . S
C584 C568 1.368 . S
C584 C580 1.368 . S
C584 C583 1.523 . S
H585 C560 0.950 . S
H586 C562 0.950 . S
H587 C563 0.949 . S
H588 C565 0.950 . S
H589 C567 0.950 . S
C590 C591 1.349 . S
C590 C592 1.327 . S
C590 H615 0.950 . S
C591 C590 1.349 . S
C591 C607 1.349 . S
C592 C590 1.327 . S
C592 C611 1.429 . S
C592 H616 0.950 . S
C593 C610 1.574 . S
C593 C612 1.368 . S
C593 H617 0.949 . S
H594 C598 0.949 . S
C595 C596 1.349 . S
C595 C597 1.327 . S
C595 H618 0.950 . S
C596 C595 1.349 . S
C596 C608 1.349 . S
C597 C595 1.327 . S
C597 C613 1.429 . S
C597 H619 0.950 . S
C598 H594 0.949 . S
C598 C606 1.574 . S
C598 C614 1.368 . S
H599 C607 0.950 . S
H600 C605 0.950 . S
H601 C606 0.949 . S
H602 C608 0.950 . S
H603 C609 0.950 . S
H604 C610 0.949 . S
C605 H600 0.950 . S
C605 C607 1.327 . S
C605 C611 1.429 . S
C606 C598 1.574 . S
C606 H601 0.949 . S
C606 C612 1.368 . S
C607 C591 1.349 . S
C607 H599 0.950 . S
C607 C605 1.327 . S
C608 C596 1.349 . S
C608 H602 0.950 . S
C608 C609 1.327 . S
C609 H603 0.950 . S
C609 C608 1.327 . S
C609 C613 1.429 . S
C610 C593 1.574 . S
C610 H604 0.949 . S
C610 C614 1.368 . S
C611 C592 1.429 . S
C611 C605 1.429 . S
C611 C612 1.523 . S
C612 C593 1.368 . S
C612 C606 1.368 . S
C612 C611 1.523 . S
C613 C597 1.429 . S
C613 C609 1.429 . S
C613 C614 1.523 1_556 S
C614 C598 1.368 . S
C614 C610 1.368 . S
C614 C613 1.523 1_554 S
H615 C590 0.950 . S
H616 C592 0.950 . S
H617 C593 0.949 . S
H618 C595 0.950 . S
H619 C597 0.950 . S
C620 C621 1.349 . S
C620 C622 1.327 . S
C620 H645 0.950 . S
C621 C620 1.349 . S
C621 C637 1.349 . S
C622 C620 1.327 . S
C622 C641 1.429 . S
C622 H646 0.950 . S
C623 C640 1.574 . S
C623 C642 1.368 . S
C623 H647 0.949 . S
H624 C628 0.949 . S
C625 C626 1.349 . S
C625 C627 1.327 . S
C625 H648 0.950 . S
C626 C625 1.349 . S
C626 C638 1.349 . S
C627 C625 1.327 . S
C627 C643 1.429 . S
C627 H649 0.950 . S
C628 H624 0.949 . S
C628 C636 1.574 . S
C628 C644 1.368 . S
H629 C637 0.950 . S
H630 C635 0.950 . S
H631 C636 0.949 . S
H632 C638 0.950 . S
H633 C639 0.950 . S
H634 C640 0.949 . S
C635 H630 0.950 . S
C635 C637 1.327 . S
C635 C641 1.429 . S
C636 C628 1.574 . S
C636 H631 0.949 . S
C636 C642 1.368 . S
C637 C621 1.349 . S
C637 H629 0.950 . S
C637 C635 1.327 . S
C638 C626 1.349 . S
C638 H632 0.950 . S
C638 C639 1.327 . S
C639 H633 0.950 . S
C639 C638 1.327 . S
C639 C643 1.429 . S
C640 C623 1.574 . S
C640 H634 0.949 . S
C640 C644 1.368 . S
C641 C622 1.429 . S
C641 C635 1.429 . S
C641 C642 1.523 1_554 S
C642 C623 1.368 . S
C642 C636 1.368 . S
C642 C641 1.523 1_556 S
C643 C627 1.429 . S
C643 C639 1.429 . S
C643 C644 1.523 . S
C644 C628 1.368 . S
C644 C640 1.368 . S
C644 C643 1.523 . S
H645 C620 0.950 . S
H646 C622 0.950 . S
H647 C623 0.949 . S
H648 C625 0.950 . S
H649 C627 0.950 . S
C650 C651 1.349 . S
C650 C652 1.327 . S
C650 H675 0.950 . S
C651 C650 1.349 . S
C651 C667 1.349 . S
C652 C650 1.327 . S
C652 C671 1.429 . S
C652 H676 0.950 . S
C653 C670 1.574 . S
C653 C672 1.368 . S
C653 H677 0.949 . S
H654 C658 0.949 . S
C655 C656 1.349 . S
C655 C657 1.327 . S
C655 H678 0.950 . S
C656 C655 1.349 . S
C656 C668 1.349 . S
C657 C655 1.327 . S
C657 C673 1.429 . S
C657 H679 0.950 . S
C658 H654 0.949 . S
C658 C666 1.574 . S
C658 C674 1.368 . S
H659 C667 0.950 . S
H660 C665 0.950 . S
H661 C666 0.949 . S
H662 C668 0.950 . S
H663 C669 0.950 . S
H664 C670 0.949 . S
C665 H660 0.950 . S
C665 C667 1.327 . S
C665 C671 1.429 . S
C666 C658 1.574 . S
C666 H661 0.949 . S
C666 C672 1.368 . S
C667 C651 1.349 . S
C667 H659 0.950 . S
C667 C665 1.327 . S
C668 C656 1.349 . S
C668 H662 0.950 . S
C668 C669 1.327 . S
C669 H663 0.950 . S
C669 C668 1.327 . S
C669 C673 1.429 . S
C670 C653 1.574 . S
C670 H664 0.949 . S
C670 C674 1.368 . S
C671 C652 1.429 . S
C671 C665 1.429 . S
C671 C672 1.523 . S
C672 C653 1.368 . S
C672 C666 1.368 . S
C672 C671 1.523 . S
C673 C657 1.429 . S
C673 C669 1.429 . S
C673 C674 1.523 . S
C674 C658 1.368 . S
C674 C670 1.368 . S
C674 C673 1.523 . S
H675 C650 0.950 . S
H676 C652 0.950 . S
H677 C653 0.949 . S
H678 C655 0.950 . S
H679 C657 0.950 . S
C680 C681 1.349 . S
C680 C682 1.327 . S
C680 H705 0.950 . S
C681 C680 1.349 . S
C681 C697 1.349 . S
C682 C680 1.327 . S
C682 C701 1.429 . S
C682 H706 0.950 . S
C683 C700 1.574 . S
C683 C702 1.368 . S
C683 H707 0.949 . S
H684 C688 0.949 . S
C685 C686 1.349 . S
C685 C687 1.327 . S
C685 H708 0.950 . S
C686 C685 1.349 . S
C686 C698 1.349 . S
C687 C685 1.327 . S
C687 C703 1.429 . S
C687 H709 0.950 . S
C688 H684 0.949 . S
C688 C696 1.574 . S
C688 C704 1.368 . S
H689 C697 0.950 . S
H690 C695 0.950 . S
H691 C696 0.949 . S
H692 C698 0.950 . S
H693 C699 0.950 . S
H694 C700 0.949 . S
C695 H690 0.950 . S
C695 C697 1.327 . S
C695 C701 1.429 . S
C696 C688 1.574 . S
C696 H691 0.949 . S
C696 C702 1.368 . S
C697 C681 1.349 . S
C697 H689 0.950 . S
C697 C695 1.327 . S
C698 C686 1.349 . S
C698 H692 0.950 . S
C698 C699 1.327 . S
C699 H693 0.950 . S
C699 C698 1.327 . S
C699 C703 1.429 . S
C700 C683 1.574 . S
C700 H694 0.949 . S
C700 C704 1.368 . S
C701 C682 1.429 . S
C701 C695 1.429 . S
C701 C702 1.523 . S
C702 C683 1.368 . S
C702 C696 1.368 . S
C702 C701 1.523 . S
C703 C687 1.429 . S
C703 C699 1.429 . S
C703 C704 1.523 . S
C704 C688 1.368 . S
C704 C700 1.368 . S
C704 C703 1.523 . S
H705 C680 0.950 . S
H706 C682 0.950 . S
H707 C683 0.949 . S
H708 C685 0.950 . S
H709 C687 0.950 . S
C710 C711 1.349 . S
C710 C712 1.327 . S
C710 H735 0.950 . S
C711 C710 1.349 . S
C711 C727 1.349 . S
C712 C710 1.327 . S
C712 C731 1.429 . S
C712 H736 0.950 . S
C713 C730 1.574 . S
C713 C732 1.368 . S
C713 H737 0.949 . S
H714 C718 0.949 . S
C715 C716 1.349 . S
C715 C717 1.327 . S
C715 H738 0.950 . S
C716 C715 1.349 . S
C716 C728 1.349 . S
C717 C715 1.327 . S
C717 C733 1.429 . S
C717 H739 0.950 . S
C718 H714 0.949 . S
C718 C726 1.574 . S
C718 C734 1.368 . S
H719 C727 0.950 . S
H720 C725 0.950 . S
H721 C726 0.949 . S
H722 C728 0.950 . S
H723 C729 0.950 . S
H724 C730 0.949 . S
C725 H720 0.950 . S
C725 C727 1.327 . S
C725 C731 1.429 . S
C726 C718 1.574 . S
C726 H721 0.949 . S
C726 C732 1.368 . S
C727 C711 1.349 . S
C727 H719 0.950 . S
C727 C725 1.327 . S
C728 C716 1.349 . S
C728 H722 0.950 . S
C728 C729 1.327 . S
C729 H723 0.950 . S
C729 C728 1.327 . S
C729 C733 1.429 . S
C730 C713 1.574 . S
C730 H724 0.949 . S
C730 C734 1.368 . S
C731 C712 1.429 . S
C731 C725 1.429 . S
C731 C732 1.523 . S
C732 C713 1.368 . S
C732 C726 1.368 . S
C732 C731 1.523 . S
C733 C717 1.429 . S
C733 C729 1.429 . S
C733 C734 1.523 . S
C734 C718 1.368 . S
C734 C730 1.368 . S
C734 C733 1.523 . S
H735 C710 0.950 . S
H736 C712 0.950 . S
H737 C713 0.949 . S
H738 C715 0.950 . S
H739 C717 0.950 . S
C740 C741 1.349 . S
C740 C742 1.327 . S
C740 H765 0.950 . S
C741 C740 1.349 . S
C741 C757 1.349 . S
C742 C740 1.327 . S
C742 C761 1.429 . S
C742 H766 0.950 . S
C743 C760 1.574 . S
C743 C762 1.368 . S
C743 H767 0.949 . S
H744 C748 0.949 1_556 S
C745 C746 1.349 . S
C745 C747 1.327 . S
C745 H768 0.950 . S
C746 C745 1.349 . S
C746 C758 1.349 . S
C747 C745 1.327 . S
C747 C763 1.429 . S
C747 H769 0.950 . S
C748 H744 0.949 1_554 S
C748 C756 1.574 . S
C748 C764 1.368 1_554 S
H749 C757 0.950 . S
H750 C755 0.950 . S
H751 C756 0.949 . S
H752 C758 0.950 . S
H753 C759 0.950 . S
H754 C760 0.949 1_556 S
C755 H750 0.950 . S
C755 C757 1.327 . S
C755 C761 1.429 . S
C756 C748 1.574 . S
C756 H751 0.949 . S
C756 C762 1.368 . S
C757 C741 1.349 . S
C757 H749 0.950 . S
C757 C755 1.327 . S
C758 C746 1.349 . S
C758 H752 0.950 . S
C758 C759 1.327 . S
C759 H753 0.950 . S
C759 C758 1.327 . S
C759 C763 1.429 . S
C760 C743 1.574 . S
C760 H754 0.949 1_554 S
C760 C764 1.368 1_554 S
C761 C742 1.429 . S
C761 C755 1.429 . S
C761 C762 1.523 . S
C762 C743 1.368 . S
C762 C756 1.368 . S
C762 C761 1.523 . S
C763 C747 1.429 . S
C763 C759 1.429 . S
C763 C764 1.523 . S
C764 C748 1.368 1_556 S
C764 C760 1.368 1_556 S
C764 C763 1.523 . S
H765 C740 0.950 . S
H766 C742 0.950 . S
H767 C743 0.949 . S
H768 C745 0.950 . S
H769 C747 0.950 . S
C770 C771 1.349 . S
C770 C772 1.327 . S
C770 H795 0.950 . S
C771 C770 1.349 . S
C771 C787 1.349 . S
C772 C770 1.327 . S
C772 C791 1.429 . S
C772 H796 0.950 . S
C773 C790 1.574 . S
C773 C792 1.368 . S
C773 H797 0.949 . S
H774 C778 0.949 . S
C775 C776 1.349 . S
C775 C777 1.327 . S
C775 H798 0.950 . S
C776 C775 1.349 . S
C776 C788 1.349 . S
C777 C775 1.327 . S
C777 C793 1.429 . S
C777 H799 0.950 . S
C778 H774 0.949 . S
C778 C786 1.574 . S
C778 C794 1.368 . S
H779 C787 0.950 . S
H780 C785 0.950 . S
H781 C786 0.949 . S
H782 C788 0.950 . S
H783 C789 0.950 . S
H784 C790 0.949 . S
C785 H780 0.950 . S
C785 C787 1.327 . S
C785 C791 1.429 . S
C786 C778 1.574 . S
C786 H781 0.949 . S
C786 C792 1.368 . S
C787 C771 1.349 . S
C787 H779 0.950 . S
C787 C785 1.327 . S
C788 C776 1.349 . S
C788 H782 0.950 . S
C788 C789 1.327 . S
C789 H783 0.950 . S
C789 C788 1.327 . S
C789 C793 1.429 . S
C790 C773 1.574 . S
C790 H784 0.949 . S
C790 C794 1.368 . S
C791 C772 1.429 . S
C791 C785 1.429 . S
C791 C792 1.523 1_554 S
C792 C773 1.368 . S
C792 C786 1.368 . S
C792 C791 1.523 1_556 S
C793 C777 1.429 . S
C793 C789 1.429 . S
C793 C794 1.523 . S
C794 C778 1.368 . S
C794 C790 1.368 . S
C794 C793 1.523 . S
H795 C770 0.950 . S
H796 C772 0.950 . S
H797 C773 0.949 . S
H798 C775 0.950 . S
H799 C777 0.950 . S
C800 C801 1.349 . S
C800 C802 1.327 . S
C800 H825 0.950 . S
C801 C800 1.349 . S
C801 C817 1.349 . S
C802 C800 1.327 . S
C802 C821 1.429 . S
C802 H826 0.950 . S
C803 C820 1.574 . S
C803 C822 1.368 . S
C803 H827 0.949 . S
H804 C808 0.949 . S
C805 C806 1.349 . S
C805 C807 1.327 . S
C805 H828 0.950 . S
C806 C805 1.349 . S
C806 C818 1.349 . S
C807 C805 1.327 . S
C807 C823 1.429 . S
C807 H829 0.950 . S
C808 H804 0.949 . S
C808 C816 1.574 . S
C808 C824 1.368 . S
H809 C817 0.950 . S
H810 C815 0.950 . S
H811 C816 0.949 . S
H812 C818 0.950 . S
H813 C819 0.950 . S
H814 C820 0.949 . S
C815 H810 0.950 . S
C815 C817 1.327 . S
C815 C821 1.429 . S
C816 C808 1.574 . S
C816 H811 0.949 . S
C816 C822 1.368 . S
C817 C801 1.349 . S
C817 H809 0.950 . S
C817 C815 1.327 . S
C818 C806 1.349 . S
C818 H812 0.950 . S
C818 C819 1.327 . S
C819 H813 0.950 . S
C819 C818 1.327 . S
C819 C823 1.429 . S
C820 C803 1.574 . S
C820 H814 0.949 . S
C820 C824 1.368 . S
C821 C802 1.429 . S
C821 C815 1.429 . S
C821 C822 1.523 . S
C822 C803 1.368 . S
C822 C816 1.368 . S
C822 C821 1.523 . S
C823 C807 1.429 . S
C823 C819 1.429 . S
C823 C824 1.523 . S
C824 C808 1.368 . S
C824 C820 1.368 . S
C824 C823 1.523 . S
H825 C800 0.950 . S
H826 C802 0.950 . S
H827 C803 0.949 . S
H828 C805 0.950 . S
H829 C807 0.950 . S
C830 C831 1.349 . S
C830 C832 1.327 . S
C830 H855 0.950 . S
C831 C830 1.349 . S
C831 C847 1.349 . S
C832 C830 1.327 . S
C832 C851 1.429 . S
C832 H856 0.950 . S
C833 C850 1.574 . S
C833 C852 1.368 . S
C833 H857 0.949 . S
H834 C838 0.949 . S
C835 C836 1.349 . S
C835 C837 1.327 . S
C835 H858 0.950 . S
C836 C835 1.349 . S
C836 C848 1.349 . S
C837 C835 1.327 . S
C837 C853 1.429 . S
C837 H859 0.950 . S
C838 H834 0.949 . S
C838 C846 1.574 . S
C838 C854 1.368 . S
H839 C847 0.950 . S
H840 C845 0.950 . S
H841 C846 0.949 . S
H842 C848 0.950 . S
H843 C849 0.950 . S
H844 C850 0.949 . S
C845 H840 0.950 . S
C845 C847 1.327 . S
C845 C851 1.429 . S
C846 C838 1.574 . S
C846 H841 0.949 . S
C846 C852 1.368 . S
C847 C831 1.349 . S
C847 H839 0.950 . S
C847 C845 1.327 . S
C848 C836 1.349 . S
C848 H842 0.950 . S
C848 C849 1.327 . S
C849 H843 0.950 . S
C849 C848 1.327 . S
C849 C853 1.429 . S
C850 C833 1.574 . S
C850 H844 0.949 . S
C850 C854 1.368 . S
C851 C832 1.429 . S
C851 C845 1.429 . S
C851 C852 1.523 . S
C852 C833 1.368 . S
C852 C846 1.368 . S
C852 C851 1.523 . S
C853 C837 1.429 . S
C853 C849 1.429 . S
C853 C854 1.523 . S
C854 C838 1.368 . S
C854 C850 1.368 . S
C854 C853 1.523 . S
H855 C830 0.950 . S
H856 C832 0.950 . S
H857 C833 0.949 . S
H858 C835 0.950 . S
H859 C837 0.950 . S
C860 C861 1.349 . S
C860 C862 1.327 . S
C860 H885 0.950 . S
C861 C860 1.349 . S
C861 C877 1.349 . S
C862 C860 1.327 . S
C862 C881 1.429 . S
C862 H886 0.950 . S
C863 C880 1.574 . S
C863 C882 1.368 . S
C863 H887 0.949 . S
H864 C868 0.949 . S
C865 C866 1.349 . S
C865 C867 1.327 . S
C865 H888 0.950 . S
C866 C865 1.349 . S
C866 C878 1.349 . S
C867 C865 1.327 . S
C867 C883 1.429 . S
C867 H889 0.950 . S
C868 H864 0.949 . S
C868 C876 1.574 . S
C868 C884 1.368 . S
H869 C877 0.950 . S
H870 C875 0.950 . S
H871 C876 0.949 . S
H872 C878 0.950 . S
H873 C879 0.950 . S
H874 C880 0.949 . S
C875 H870 0.950 . S
C875 C877 1.327 . S
C875 C881 1.429 . S
C876 C868 1.574 . S
C876 H871 0.949 . S
C876 C882 1.368 . S
C877 C861 1.349 . S
C877 H869 0.950 . S
C877 C875 1.327 . S
C878 C866 1.349 . S
C878 H872 0.950 . S
C878 C879 1.327 . S
C879 H873 0.950 . S
C879 C878 1.327 . S
C879 C883 1.429 . S
C880 C863 1.574 . S
C880 H874 0.949 . S
C880 C884 1.368 . S
C881 C862 1.429 . S
C881 C875 1.429 . S
C881 C882 1.523 . S
C882 C863 1.368 . S
C882 C876 1.368 . S
C882 C881 1.523 . S
C883 C867 1.429 . S
C883 C879 1.429 . S
C883 C884 1.523 . S
C884 C868 1.368 . S
C884 C880 1.368 . S
C884 C883 1.523 . S
H885 C860 0.950 . S
H886 C862 0.950 . S
H887 C863 0.949 . S
H888 C865 0.950 . S
H889 C867 0.950 . S
C890 C891 1.349 . S
C890 C892 1.327 . S
C890 H915 0.950 . S
C891 C890 1.349 . S
C891 C907 1.349 . S
C892 C890 1.327 . S
C892 C911 1.429 . S
C892 H916 0.950 . S
C893 C910 1.574 1_655 S
C893 C912 1.368 . S
C893 H917 0.949 1_556 S
H894 C898 0.949 . S
C895 C896 1.349 . S
C895 C897 1.327 . S
C895 H918 0.950 1_556 S
C896 C895 1.349 . S
C896 C908 1.349 . S
C897 C895 1.327 . S
C897 C913 1.429 . S
C897 H919 0.950 1_556 S
C898 H894 0.949 . S
C898 C906 1.574 1_455 S
C898 C914 1.368 . S
H899 C907 0.950 1_554 S
H900 C905 0.950 1_554 S
H901 C906 0.949 . S
H902 C908 0.950 . S
H903 C909 0.950 . S
H904 C910 0.949 1_554 S
C905 H900 0.950 1_556 S
C905 C907 1.327 . S
C905 C911 1.429 . S
C906 C898 1.574 1_655 S
C906 H901 0.949 . S
C906 C912 1.368 . S
C907 C891 1.349 . S
C907 H899 0.950 1_556 S
C907 C905 1.327 . S
C908 C896 1.349 . S
C908 H902 0.950 . S
C908 C909 1.327 . S
C909 H903 0.950 . S
C909 C908 1.327 . S
C909 C913 1.429 . S
C910 C893 1.574 1_455 S
C910 H904 0.949 1_556 S
C910 C914 1.368 . S
C911 C892 1.429 . S
C911 C905 1.429 . S
C911 C912 1.523 . S
C912 C893 1.368 . S
C912 C906 1.368 . S
C912 C911 1.523 . S
C913 C897 1.429 . S
C913 C909 1.429 . S
C913 C914 1.523 . S
C914 C898 1.368 . S
C914 C910 1.368 . S
C914 C913 1.523 . S
H915 C890 0.950 . S
H916 C892 0.950 . S
H917 C893 0.949 1_554 S
H918 C895 0.950 1_554 S
H919 C897 0.950 1_554 S
C920 C921 1.349 . S
C920 C922 1.327 . S
C920 H945 0.950 . S
C921 C920 1.349 . S
C921 C937 1.349 . S
C922 C920 1.327 . S
C922 C941 1.429 . S
C922 H946 0.950 . S
C923 C940 1.574 . S
C923 C942 1.368 . S
C923 H947 0.949 . S
H924 C928 0.949 . S
C925 C926 1.349 . S
C925 C927 1.327 . S
C925 H948 0.950 . S
C926 C925 1.349 . S
C926 C938 1.349 . S
C927 C925 1.327 . S
C927 C943 1.429 . S
C927 H949 0.950 . S
C928 H924 0.949 . S
C928 C936 1.574 . S
C928 C944 1.368 . S
H929 C937 0.950 . S
H930 C935 0.950 . S
H931 C936 0.949 . S
H932 C938 0.950 . S
H933 C939 0.950 . S
H934 C940 0.949 . S
C935 H930 0.950 . S
C935 C937 1.327 . S
C935 C941 1.429 . S
C936 C928 1.574 . S
C936 H931 0.949 . S
C936 C942 1.368 . S
C937 C921 1.349 . S
C937 H929 0.950 . S
C937 C935 1.327 . S
C938 C926 1.349 . S
C938 H932 0.950 . S
C938 C939 1.327 . S
C939 H933 0.950 . S
C939 C938 1.327 . S
C939 C943 1.429 . S
C940 C923 1.574 . S
C940 H934 0.949 . S
C940 C944 1.368 . S
C941 C922 1.429 . S
C941 C935 1.429 . S
C941 C942 1.523 . S
C942 C923 1.368 . S
C942 C936 1.368 . S
C942 C941 1.523 . S
C943 C927 1.429 . S
C943 C939 1.429 . S
C943 C944 1.523 . S
C944 C928 1.368 . S
C944 C940 1.368 . S
C944 C943 1.523 . S
H945 C920 0.950 . S
H946 C922 0.950 . S
H947 C923 0.949 . S
H948 C925 0.950 . S
H949 C927 0.950 . S
C950 C951 1.349 . S
C950 C952 1.327 . S
C950 H975 0.950 . S
C951 C950 1.349 . S
C951 C967 1.349 . S
C952 C950 1.327 . S
C952 C971 1.429 . S
C952 H976 0.950 . S
C953 C970 1.574 . S
C953 C972 1.368 . S
C953 H977 0.949 . S
H954 C958 0.949 1_656 S
C955 C956 1.349 . S
C955 C957 1.327 . S
C955 H978 0.950 . S
C956 C955 1.349 . S
C956 C968 1.349 . S
C957 C955 1.327 . S
C957 C973 1.429 . S
C957 H979 0.950 . S
C958 H954 0.949 1_454 S
C958 C966 1.574 . S
C958 C974 1.368 1_455 S
H959 C967 0.950 . S
H960 C965 0.950 . S
H961 C966 0.949 1_556 S
H962 C968 0.950 1_556 S
H963 C969 0.950 1_556 S
H964 C970 0.949 1_655 S
C965 H960 0.950 . S
C965 C967 1.327 . S
C965 C971 1.429 . S
C966 C958 1.574 . S
C966 H961 0.949 1_554 S
C966 C972 1.368 . S
C967 C951 1.349 . S
C967 H959 0.950 . S
C967 C965 1.327 . S
C968 C956 1.349 . S
C968 H962 0.950 1_554 S
C968 C969 1.327 . S
C969 H963 0.950 1_554 S
C969 C968 1.327 . S
C969 C973 1.429 . S
C970 C953 1.574 . S
C970 H964 0.949 1_455 S
C970 C974 1.368 1_455 S
C971 C952 1.429 . S
C971 C965 1.429 . S
C971 C972 1.523 . S
C972 C953 1.368 . S
C972 C966 1.368 . S
C972 C971 1.523 . S
C973 C957 1.429 . S
C973 C969 1.429 . S
C973 C974 1.523 . S
C974 C958 1.368 1_655 S
C974 C970 1.368 1_655 S
C974 C973 1.523 . S
H975 C950 0.950 . S
H976 C952 0.950 . S
H977 C953 0.949 . S
H978 C955 0.950 . S
H979 C957 0.950 . S
C980 C981 1.349 . S
C980 C982 1.327 . S
C980 H1005 0.950 . S
C981 C980 1.349 . S
C981 C997 1.349 . S
C982 C980 1.327 . S
C982 C1001 1.429 . S
C982 H1006 0.950 . S
C983 C1000 1.574 . S
C983 C1002 1.368 . S
C983 H1007 0.949 . S
H984 C988 0.949 . S
C985 C986 1.349 . S
C985 C987 1.327 . S
C985 H1008 0.950 . S
C986 C985 1.349 . S
C986 C998 1.349 . S
C987 C985 1.327 . S
C987 C1003 1.429 . S
C987 H1009 0.950 . S
C988 H984 0.949 . S
C988 C996 1.574 . S
C988 C1004 1.368 . S
H989 C997 0.950 . S
H990 C995 0.950 . S
H991 C996 0.949 . S
H992 C998 0.950 . S
H993 C999 0.950 . S
H994 C1000 0.949 . S
C995 H990 0.950 . S
C995 C997 1.327 . S
C995 C1001 1.429 . S
C996 C988 1.574 . S
C996 H991 0.949 . S
C996 C1002 1.368 . S
C997 C981 1.349 . S
C997 H989 0.950 . S
C997 C995 1.327 . S
C998 C986 1.349 . S
C998 H992 0.950 . S
C998 C999 1.327 . S
C999 H993 0.950 . S
C999 C998 1.327 . S
C999 C1003 1.429 . S
C1000 C983 1.574 . S
C1000 H994 0.949 . S
C1000 C1004 1.368 . S
C1001 C982 1.429 . S
C1001 C995 1.429 . S
C1001 C1002 1.523 . S
C1002 C983 1.368 . S
C1002 C996 1.368 . S
C1002 C1001 1.523 . S
C1003 C987 1.429 . S
C1003 C999 1.429 . S
C1003 C1004 1.523 . S
C1004 C988 1.368 . S
C1004 C1000 1.368 . S
C1004 C1003 1.523 . S
H1005 C980 0.950 . S
H1006 C982 0.950 . S
H1007 C983 0.949 . S
H1008 C985 0.950 . S
H1009 C987 0.950 . S
C1010 C1011 1.349 . S
C1010 C1012 1.327 . S
C1010 H1035 0.950 . S
C1011 C1010 1.349 . S
C1011 C1027 1.349 . S
C1012 C1010 1.327 . S
C1012 C1031 1.429 . S
C1012 H1036 0.950 . S
C1013 C1030 1.574 . S
C1013 C1032 1.368 . S
C1013 H1037 0.949 . S
H1014 C1018 0.949 . S
C1015 C1016 1.349 . S
C1015 C1017 1.327 . S
C1015 H1038 0.950 . S
C1016 C1015 1.349 . S
C1016 C1028 1.349 . S
C1017 C1015 1.327 . S
C1017 C1033 1.429 . S
C1017 H1039 0.950 . S
C1018 H1014 0.949 . S
C1018 C1026 1.574 . S
C1018 C1034 1.368 . S
H1019 C1027 0.950 . S
H1020 C1025 0.950 . S
H1021 C1026 0.949 . S
H1022 C1028 0.950 . S
H1023 C1029 0.950 . S
H1024 C1030 0.949 . S
C1025 H1020 0.950 . S
C1025 C1027 1.327 . S
C1025 C1031 1.429 . S
C1026 C1018 1.574 . S
C1026 H1021 0.949 . S
C1026 C1032 1.368 . S
C1027 C1011 1.349 . S
C1027 H1019 0.950 . S
C1027 C1025 1.327 . S
C1028 C1016 1.349 . S
C1028 H1022 0.950 . S
C1028 C1029 1.327 . S
C1029 H1023 0.950 . S
C1029 C1028 1.327 . S
C1029 C1033 1.429 . S
C1030 C1013 1.574 . S
C1030 H1024 0.949 . S
C1030 C1034 1.368 . S
C1031 C1012 1.429 . S
C1031 C1025 1.429 . S
C1031 C1032 1.523 . S
C1032 C1013 1.368 . S
C1032 C1026 1.368 . S
C1032 C1031 1.523 . S
C1033 C1017 1.429 . S
C1033 C1029 1.429 . S
C1033 C1034 1.523 . S
C1034 C1018 1.368 . S
C1034 C1030 1.368 . S
C1034 C1033 1.523 . S
H1035 C1010 0.950 . S
H1036 C1012 0.950 . S
H1037 C1013 0.949 . S
H1038 C1015 0.950 . S
H1039 C1017 0.950 . S
C1040 C1041 1.349 . S
C1040 C1042 1.327 . S
C1040 H1065 0.950 . S
C1041 C1040 1.349 . S
C1041 C1057 1.349 . S
C1042 C1040 1.327 . S
C1042 C1061 1.429 . S
C1042 H1066 0.950 . S
C1043 C1060 1.574 . S
C1043 C1062 1.368 . S
C1043 H1067 0.949 . S
H1044 C1048 0.949 . S
C1045 C1046 1.349 . S
C1045 C1047 1.327 . S
C1045 H1068 0.950 . S
C1046 C1045 1.349 . S
C1046 C1058 1.349 . S
C1047 C1045 1.327 . S
C1047 C1063 1.429 . S
C1047 H1069 0.950 . S
C1048 H1044 0.949 . S
C1048 C1056 1.574 . S
C1048 C1064 1.368 . S
H1049 C1057 0.950 . S
H1050 C1055 0.950 . S
H1051 C1056 0.949 . S
H1052 C1058 0.950 . S
H1053 C1059 0.950 . S
H1054 C1060 0.949 . S
C1055 H1050 0.950 . S
C1055 C1057 1.327 . S
C1055 C1061 1.429 . S
C1056 C1048 1.574 . S
C1056 H1051 0.949 . S
C1056 C1062 1.368 . S
C1057 C1041 1.349 . S
C1057 H1049 0.950 . S
C1057 C1055 1.327 . S
C1058 C1046 1.349 . S
C1058 H1052 0.950 . S
C1058 C1059 1.327 . S
C1059 H1053 0.950 . S
C1059 C1058 1.327 . S
C1059 C1063 1.429 . S
C1060 C1043 1.574 . S
C1060 H1054 0.949 . S
C1060 C1064 1.368 . S
C1061 C1042 1.429 . S
C1061 C1055 1.429 . S
C1061 C1062 1.523 . S
C1062 C1043 1.368 . S
C1062 C1056 1.368 . S
C1062 C1061 1.523 . S
C1063 C1047 1.429 . S
C1063 C1059 1.429 . S
C1063 C1064 1.523 . S
C1064 C1048 1.368 . S
C1064 C1060 1.368 . S
C1064 C1063 1.523 . S
H1065 C1040 0.950 . S
H1066 C1042 0.950 . S
H1067 C1043 0.949 . S
H1068 C1045 0.950 . S
H1069 C1047 0.950 . S
C1070 C1071 1.349 . S
C1070 C1072 1.327 . S
C1070 H1095 0.950 . S
C1071 C1070 1.349 . S
C1071 C1087 1.349 . S
C1072 C1070 1.327 . S
C1072 C1091 1.429 . S
C1072 H1096 0.950 . S
C1073 C1090 1.574 . S
C1073 C1092 1.368 . S
C1073 H1097 0.949 . S
H1074 C1078 0.949 . S
C1075 C1076 1.349 . S
C1075 C1077 1.327 . S
C1075 H1098 0.950 . S
C1076 C1075 1.349 . S
C1076 C1088 1.349 . S
C1077 C1075 1.327 . S
C1077 C1093 1.429 . S
C1077 H1099 0.950 . S
C1078 H1074 0.949 . S
C1078 C1086 1.574 . S
C1078 C1094 1.368 . S
H1079 C1087 0.950 . S
H1080 C1085 0.950 . S
H1081 C1086 0.949 . S
H1082 C1088 0.950 . S
H1083 C1089 0.950 . S
H1084 C1090 0.949 . S
C1085 H1080 0.950 . S
C1085 C1087 1.327 . S
C1085 C1091 1.429 . S
C1086 C1078 1.574 . S
C1086 H1081 0.949 . S
C1086 C1092 1.368 . S
C1087 C1071 1.349 . S
C1087 H1079 0.950 . S
C1087 C1085 1.327 . S
C1088 C1076 1.349 . S
C1088 H1082 0.950 . S
C1088 C1089 1.327 . S
C1089 H1083 0.950 . S
C1089 C1088 1.327 . S
C1089 C1093 1.429 . S
C1090 C1073 1.574 . S
C1090 H1084 0.949 . S
C1090 C1094 1.368 . S
C1091 C1072 1.429 . S
C1091 C1085 1.429 . S
C1091 C1092 1.523 . S
C1092 C1073 1.368 . S
C1092 C1086 1.368 . S
C1092 C1091 1.523 . S
C1093 C1077 1.429 . S
C1093 C1089 1.429 . S
C1093 C1094 1.523 . S
C1094 C1078 1.368 . S
C1094 C1090 1.368 . S
C1094 C1093 1.523 . S
H1095 C1070 0.950 . S
H1096 C1072 0.950 . S
H1097 C1073 0.949 . S
H1098 C1075 0.950 . S
H1099 C1077 0.950 . S
C1100 C1101 1.349 . S
C1100 C1102 1.327 . S
C1100 H1125 0.950 1_554 S
C1101 C1100 1.349 . S
C1101 C1117 1.349 . S
C1102 C1100 1.327 . S
C1102 C1121 1.429 . S
C1102 H1126 0.950 . S
C1103 C1120 1.574 . S
C1103 C1122 1.368 . S
C1103 H1127 0.949 . S
H1104 C1108 0.949 . S
C1105 C1106 1.349 . S
C1105 C1107 1.327 . S
C1105 H1128 0.950 . S
C1106 C1105 1.349 . S
C1106 C1118 1.349 . S
C1107 C1105 1.327 . S
C1107 C1123 1.429 . S
C1107 H1129 0.950 . S
C1108 H1104 0.949 . S
C1108 C1116 1.574 . S
C1108 C1124 1.368 . S
H1109 C1117 0.950 . S
H1110 C1115 0.950 . S
H1111 C1116 0.949 . S
H1112 C1118 0.950 . S
H1113 C1119 0.950 . S
H1114 C1120 0.949 . S
C1115 H1110 0.950 . S
C1115 C1117 1.327 . S
C1115 C1121 1.429 . S
C1116 C1108 1.574 . S
C1116 H1111 0.949 . S
C1116 C1122 1.368 . S
C1117 C1101 1.349 . S
C1117 H1109 0.950 . S
C1117 C1115 1.327 . S
C1118 C1106 1.349 . S
C1118 H1112 0.950 . S
C1118 C1119 1.327 . S
C1119 H1113 0.950 . S
C1119 C1118 1.327 . S
C1119 C1123 1.429 . S
C1120 C1103 1.574 . S
C1120 H1114 0.949 . S
C1120 C1124 1.368 . S
C1121 C1102 1.429 . S
C1121 C1115 1.429 . S
C1121 C1122 1.523 . S
C1122 C1103 1.368 . S
C1122 C1116 1.368 . S
C1122 C1121 1.523 . S
C1123 C1107 1.429 . S
C1123 C1119 1.429 . S
C1123 C1124 1.523 . S
C1124 C1108 1.368 . S
C1124 C1120 1.368 . S
C1124 C1123 1.523 . S
H1125 C1100 0.950 1_556 S
H1126 C1102 0.950 . S
H1127 C1103 0.949 . S
H1128 C1105 0.950 . S
H1129 C1107 0.950 . S
C1130 C1131 1.349 . S
C1130 C1132 1.327 . S
C1130 H1155 0.950 . S
C1131 C1130 1.349 . S
C1131 C1147 1.349 . S
C1132 C1130 1.327 . S
C1132 C1151 1.429 . S
C1132 H1156 0.950 . S
C1133 C1150 1.574 . S
C1133 C1152 1.368 . S
C1133 H1157 0.949 . S
H1134 C1138 0.949 . S
C1135 C1136 1.349 . S
C1135 C1137 1.327 . S
C1135 H1158 0.950 . S
C1136 C1135 1.349 . S
C1136 C1148 1.349 . S
C1137 C1135 1.327 . S
C1137 C1153 1.429 . S
C1137 H1159 0.950 . S
C1138 H1134 0.949 . S
C1138 C1146 1.574 . S
C1138 C1154 1.368 . S
H1139 C1147 0.950 . S
H1140 C1145 0.950 . S
H1141 C1146 0.949 . S
H1142 C1148 0.950 . S
H1143 C1149 0.950 . S
H1144 C1150 0.949 . S
C1145 H1140 0.950 . S
C1145 C1147 1.327 . S
C1145 C1151 1.429 . S
C1146 C1138 1.574 . S
C1146 H1141 0.949 . S
C1146 C1152 1.368 . S
C1147 C1131 1.349 . S
C1147 H1139 0.950 . S
C1147 C1145 1.327 . S
C1148 C1136 1.349 . S
C1148 H1142 0.950 . S
C1148 C1149 1.327 . S
C1149 H1143 0.950 . S
C1149 C1148 1.327 . S
C1149 C1153 1.429 . S
C1150 C1133 1.574 . S
C1150 H1144 0.949 . S
C1150 C1154 1.368 . S
C1151 C1132 1.429 . S
C1151 C1145 1.429 . S
C1151 C1152 1.523 . S
C1152 C1133 1.368 . S
C1152 C1146 1.368 . S
C1152 C1151 1.523 . S
C1153 C1137 1.429 . S
C1153 C1149 1.429 . S
C1153 C1154 1.523 . S
C1154 C1138 1.368 . S
C1154 C1150 1.368 . S
C1154 C1153 1.523 . S
H1155 C1130 0.950 . S
H1156 C1132 0.950 . S
H1157 C1133 0.949 . S
H1158 C1135 0.950 . S
H1159 C1137 0.950 . S
C1160 C1161 1.349 1_554 S
C1160 C1162 1.327 . S
C1160 H1185 0.950 . S
C1161 C1160 1.349 1_556 S
C1161 C1177 1.349 . S
C1162 C1160 1.327 . S
C1162 C1181 1.429 1_554 S
C1162 H1186 0.950 . S
C1163 C1180 1.574 1_655 S
C1163 C1182 1.368 . S
C1163 H1187 0.949 . S
H1164 C1168 0.949 . S
C1165 C1166 1.349 1_556 S
C1165 C1167 1.327 . S
C1165 H1188 0.950 . S
C1166 C1165 1.349 1_554 S
C1166 C1178 1.349 . S
C1167 C1165 1.327 . S
C1167 C1183 1.429 1_556 S
C1167 H1189 0.950 . S
C1168 H1164 0.949 . S
C1168 C1176 1.574 1_455 S
C1168 C1184 1.368 1_554 S
H1169 C1177 0.950 . S
H1170 C1175 0.950 . S
H1171 C1176 0.949 . S
H1172 C1178 0.950 . S
H1173 C1179 0.950 . S
H1174 C1180 0.949 . S
C1175 H1170 0.950 . S
C1175 C1177 1.327 . S
C1175 C1181 1.429 . S
C1176 C1168 1.574 1_655 S
C1176 H1171 0.949 . S
C1176 C1182 1.368 1_554 S
C1177 C1161 1.349 . S
C1177 H1169 0.950 . S
C1177 C1175 1.327 . S
C1178 C1166 1.349 . S
C1178 H1172 0.950 . S
C1178 C1179 1.327 . S
C1179 H1173 0.950 . S
C1179 C1178 1.327 . S
C1179 C1183 1.429 . S
C1180 C1163 1.574 1_455 S
C1180 H1174 0.949 . S
C1180 C1184 1.368 . S
C1181 C1162 1.429 1_556 S
C1181 C1175 1.429 . S
C1181 C1182 1.523 . S
C1182 C1163 1.368 . S
C1182 C1176 1.368 1_556 S
C1182 C1181 1.523 . S
C1183 C1167 1.429 1_554 S
C1183 C1179 1.429 . S
C1183 C1184 1.523 1_554 S
C1184 C1168 1.368 1_556 S
C1184 C1180 1.368 . S
C1184 C1183 1.523 1_556 S
H1185 C1160 0.950 . S
H1186 C1162 0.950 . S
H1187 C1163 0.949 . S
H1188 C1165 0.950 . S
H1189 C1167 0.950 . S
C1190 C1191 1.349 . S
C1190 C1192 1.327 . S
C1190 H1215 0.950 . S
C1191 C1190 1.349 . S
C1191 C1207 1.349 . S
C1192 C1190 1.327 . S
C1192 C1211 1.429 . S
C1192 H1216 0.950 . S
C1193 C1210 1.574 . S
C1193 C1212 1.368 . S
C1193 H1217 0.949 . S
H1194 C1198 0.949 . S
C1195 C1196 1.349 . S
C1195 C1197 1.327 . S
C1195 H1218 0.950 . S
C1196 C1195 1.349 . S
C1196 C1208 1.349 . S
C1197 C1195 1.327 . S
C1197 C1213 1.429 . S
C1197 H1219 0.950 . S
C1198 H1194 0.949 . S
C1198 C1206 1.574 . S
C1198 C1214 1.368 . S
H1199 C1207 0.950 . S
H1200 C1205 0.950 . S
H1201 C1206 0.949 . S
H1202 C1208 0.950 . S
H1203 C1209 0.950 . S
H1204 C1210 0.949 . S
C1205 H1200 0.950 . S
C1205 C1207 1.327 . S
C1205 C1211 1.429 . S
C1206 C1198 1.574 . S
C1206 H1201 0.949 . S
C1206 C1212 1.368 . S
C1207 C1191 1.349 . S
C1207 H1199 0.950 . S
C1207 C1205 1.327 . S
C1208 C1196 1.349 . S
C1208 H1202 0.950 . S
C1208 C1209 1.327 . S
C1209 H1203 0.950 . S
C1209 C1208 1.327 . S
C1209 C1213 1.429 . S
C1210 C1193 1.574 . S
C1210 H1204 0.949 . S
C1210 C1214 1.368 . S
C1211 C1192 1.429 . S
C1211 C1205 1.429 . S
C1211 C1212 1.523 . S
C1212 C1193 1.368 . S
C1212 C1206 1.368 . S
C1212 C1211 1.523 . S
C1213 C1197 1.429 . S
C1213 C1209 1.429 . S
C1213 C1214 1.523 . S
C1214 C1198 1.368 . S
C1214 C1210 1.368 . S
C1214 C1213 1.523 . S
H1215 C1190 0.950 . S
H1216 C1192 0.950 . S
H1217 C1193 0.949 . S
H1218 C1195 0.950 . S
H1219 C1197 0.950 . S
C1220 C1221 1.349 . S
C1220 C1222 1.327 . S
C1220 H1245 0.950 . S
C1221 C1220 1.349 . S
C1221 C1237 1.349 . S
C1222 C1220 1.327 . S
C1222 C1241 1.429 . S
C1222 H1246 0.950 . S
C1223 C1240 1.574 . S
C1223 C1242 1.368 . S
C1223 H1247 0.949 . S
H1224 C1228 0.949 . S
C1225 C1226 1.349 . S
C1225 C1227 1.327 . S
C1225 H1248 0.950 . S
C1226 C1225 1.349 . S
C1226 C1238 1.349 . S
C1227 C1225 1.327 . S
C1227 C1243 1.429 . S
C1227 H1249 0.950 . S
C1228 H1224 0.949 . S
C1228 C1236 1.574 . S
C1228 C1244 1.368 . S
H1229 C1237 0.950 . S
H1230 C1235 0.950 . S
H1231 C1236 0.949 . S
H1232 C1238 0.950 . S
H1233 C1239 0.950 . S
H1234 C1240 0.949 . S
C1235 H1230 0.950 . S
C1235 C1237 1.327 . S
C1235 C1241 1.429 . S
C1236 C1228 1.574 . S
C1236 H1231 0.949 . S
C1236 C1242 1.368 . S
C1237 C1221 1.349 . S
C1237 H1229 0.950 . S
C1237 C1235 1.327 . S
C1238 C1226 1.349 . S
C1238 H1232 0.950 . S
C1238 C1239 1.327 . S
C1239 H1233 0.950 . S
C1239 C1238 1.327 . S
C1239 C1243 1.429 . S
C1240 C1223 1.574 . S
C1240 H1234 0.949 . S
C1240 C1244 1.368 . S
C1241 C1222 1.429 . S
C1241 C1235 1.429 . S
C1241 C1242 1.523 . S
C1242 C1223 1.368 . S
C1242 C1236 1.368 . S
C1242 C1241 1.523 . S
C1243 C1227 1.429 . S
C1243 C1239 1.429 . S
C1243 C1244 1.523 . S
C1244 C1228 1.368 . S
C1244 C1240 1.368 . S
C1244 C1243 1.523 . S
H1245 C1220 0.950 . S
H1246 C1222 0.950 . S
H1247 C1223 0.949 . S
H1248 C1225 0.950 . S
H1249 C1227 0.950 . S
C1250 C1251 1.349 . S
C1250 C1252 1.327 . S
C1250 H1275 0.950 . S
C1251 C1250 1.349 . S
C1251 C1267 1.349 . S
C1252 C1250 1.327 . S
C1252 C1271 1.429 . S
C1252 H1276 0.950 . S
C1253 C1270 1.574 1_455 S
C1253 C1272 1.368 . S
C1253 H1277 0.949 . S
H1254 C1258 0.949 . S
C1255 C1256 1.349 . S
C1255 C1257 1.327 . S
C1255 H1278 0.950 . S
C1256 C1255 1.349 . S
C1256 C1268 1.349 . S
C1257 C1255 1.327 . S
C1257 C1273 1.429 . S
C1257 H1279 0.950 . S
C1258 H1254 0.949 . S
C1258 C1266 1.574 1_655 S
C1258 C1274 1.368 . S
H1259 C1267 0.950 . S
H1260 C1265 0.950 . S
H1261 C1266 0.949 . S
H1262 C1268 0.950 . S
H1263 C1269 0.950 . S
H1264 C1270 0.949 . S
C1265 H1260 0.950 . S
C1265 C1267 1.327 . S
C1265 C1271 1.429 . S
C1266 C1258 1.574 1_455 S
C1266 H1261 0.949 . S
C1266 C1272 1.368 . S
C1267 C1251 1.349 . S
C1267 H1259 0.950 . S
C1267 C1265 1.327 . S
C1268 C1256 1.349 . S
C1268 H1262 0.950 . S
C1268 C1269 1.327 . S
C1269 H1263 0.950 . S
C1269 C1268 1.327 . S
C1269 C1273 1.429 . S
C1270 C1253 1.574 1_655 S
C1270 H1264 0.949 . S
C1270 C1274 1.368 . S
C1271 C1252 1.429 . S
C1271 C1265 1.429 . S
C1271 C1272 1.523 1_554 S
C1272 C1253 1.368 . S
C1272 C1266 1.368 . S
C1272 C1271 1.523 1_556 S
C1273 C1257 1.429 . S
C1273 C1269 1.429 . S
C1273 C1274 1.523 . S
C1274 C1258 1.368 . S
C1274 C1270 1.368 . S
C1274 C1273 1.523 . S
H1275 C1250 0.950 . S
H1276 C1252 0.950 . S
H1277 C1253 0.949 . S
H1278 C1255 0.950 . S
H1279 C1257 0.950 . S
C1280 C1281 1.349 . S
C1280 C1282 1.327 . S
C1280 H1305 0.950 . S
C1281 C1280 1.349 . S
C1281 C1297 1.349 . S
C1282 C1280 1.327 . S
C1282 C1301 1.429 . S
C1282 H1306 0.950 . S
C1283 C1300 1.574 1_554 S
C1283 C1302 1.368 . S
C1283 H1307 0.949 1_554 S
H1284 C1288 0.949 . S
C1285 C1286 1.349 . S
C1285 C1287 1.327 . S
C1285 H1308 0.950 . S
C1286 C1285 1.349 . S
C1286 C1298 1.349 1_556 S
C1287 C1285 1.327 . S
C1287 C1303 1.429 1_556 S
C1287 H1309 0.950 . S
C1288 H1284 0.949 . S
C1288 C1296 1.574 . S
C1288 C1304 1.368 . S
H1289 C1297 0.950 . S
H1290 C1295 0.950 . S
H1291 C1296 0.949 . S
H1292 C1298 0.950 . S
H1293 C1299 0.950 . S
H1294 C1300 0.949 . S
C1295 H1290 0.950 . S
C1295 C1297 1.327 . S
C1295 C1301 1.429 . S
C1296 C1288 1.574 . S
C1296 H1291 0.949 . S
C1296 C1302 1.368 . S
C1297 C1281 1.349 . S
C1297 H1289 0.950 . S
C1297 C1295 1.327 . S
C1298 C1286 1.349 1_554 S
C1298 H1292 0.950 . S
C1298 C1299 1.327 . S
C1299 H1293 0.950 . S
C1299 C1298 1.327 . S
C1299 C1303 1.429 . S
C1300 C1283 1.574 1_556 S
C1300 H1294 0.949 . S
C1300 C1304 1.368 1_556 S
C1301 C1282 1.429 . S
C1301 C1295 1.429 . S
C1301 C1302 1.523 . S
C1302 C1283 1.368 . S
C1302 C1296 1.368 . S
C1302 C1301 1.523 . S
C1303 C1287 1.429 1_554 S
C1303 C1299 1.429 . S
C1303 C1304 1.523 . S
C1304 C1288 1.368 . S
C1304 C1300 1.368 1_554 S
C1304 C1303 1.523 . S
H1305 C1280 0.950 . S
H1306 C1282 0.950 . S
H1307 C1283 0.949 1_556 S
H1308 C1285 0.950 . S
H1309 C1287 0.950 . S
C1310 C1311 1.349 . S
C1310 C1312 1.327 . S
C1310 H1335 0.950 . S
C1311 C1310 1.349 . S
C1311 C1327 1.349 . S
C1312 C1310 1.327 . S
C1312 C1331 1.429 . S
C1312 H1336 0.950 . S
C1313 C1330 1.574 . S
C1313 C1332 1.368 . S
C1313 H1337 0.949 . S
H1314 C1318 0.949 . S
C1315 C1316 1.349 . S
C1315 C1317 1.327 . S
C1315 H1338 0.950 . S
C1316 C1315 1.349 . S
C1316 C1328 1.349 . S
C1317 C1315 1.327 . S
C1317 C1333 1.429 . S
C1317 H1339 0.950 . S
C1318 H1314 0.949 . S
C1318 C1326 1.574 . S
C1318 C1334 1.368 . S
H1319 C1327 0.950 . S
H1320 C1325 0.950 . S
H1321 C1326 0.949 . S
H1322 C1328 0.950 . S
H1323 C1329 0.950 . S
H1324 C1330 0.949 . S
C1325 H1320 0.950 . S
C1325 C1327 1.327 . S
C1325 C1331 1.429 . S
C1326 C1318 1.574 . S
C1326 H1321 0.949 . S
C1326 C1332 1.368 . S
C1327 C1311 1.349 . S
C1327 H1319 0.950 . S
C1327 C1325 1.327 . S
C1328 C1316 1.349 . S
C1328 H1322 0.950 . S
C1328 C1329 1.327 . S
C1329 H1323 0.950 . S
C1329 C1328 1.327 . S
C1329 C1333 1.429 . S
C1330 C1313 1.574 . S
C1330 H1324 0.949 . S
C1330 C1334 1.368 . S
C1331 C1312 1.429 . S
C1331 C1325 1.429 . S
C1331 C1332 1.523 . S
C1332 C1313 1.368 . S
C1332 C1326 1.368 . S
C1332 C1331 1.523 . S
C1333 C1317 1.429 . S
C1333 C1329 1.429 . S
C1333 C1334 1.523 . S
C1334 C1318 1.368 . S
C1334 C1330 1.368 . S
C1334 C1333 1.523 . S
H1335 C1310 0.950 . S
H1336 C1312 0.950 . S
H1337 C1313 0.949 . S
H1338 C1315 0.950 . S
H1339 C1317 0.950 . S
C1340 C1341 1.349 . S
C1340 C1342 1.327 . S
C1340 H1365 0.950 . S
C1341 C1340 1.349 . S
C1341 C1357 1.349 . S
C1342 C1340 1.327 . S
C1342 C1361 1.429 . S
C1342 H1366 0.950 . S
C1343 C1360 1.574 . S
C1343 C1362 1.368 . S
C1343 H1367 0.949 . S
H1344 C1348 0.949 . S
C1345 C1346 1.349 . S
C1345 C1347 1.327 . S
C1345 H1368 0.950 . S
C1346 C1345 1.349 . S
C1346 C1358 1.349 . S
C1347 C1345 1.327 . S
C1347 C1363 1.429 . S
C1347 H1369 0.950 . S
C1348 H1344 0.949 . S
C1348 C1356 1.574 . S
C1348 C1364 1.368 . S
H1349 C1357 0.950 . S
H1350 C1355 0.950 . S
H1351 C1356 0.949 . S
H1352 C1358 0.950 . S
H1353 C1359 0.950 . S
H1354 C1360 0.949 . S
C1355 H1350 0.950 . S
C1355 C1357 1.327 . S
C1355 C1361 1.429 . S
C1356 C1348 1.574 . S
C1356 H1351 0.949 . S
C1356 C1362 1.368 . S
C1357 C1341 1.349 . S
C1357 H1349 0.950 . S
C1357 C1355 1.327 . S
C1358 C1346 1.349 . S
C1358 H1352 0.950 . S
C1358 C1359 1.327 . S
C1359 H1353 0.950 . S
C1359 C1358 1.327 . S
C1359 C1363 1.429 . S
C1360 C1343 1.574 . S
C1360 H1354 0.949 . S
C1360 C1364 1.368 . S
C1361 C1342 1.429 . S
C1361 C1355 1.429 . S
C1361 C1362 1.523 . S
C1362 C1343 1.368 . S
C1362 C1356 1.368 . S
C1362 C1361 1.523 . S
C1363 C1347 1.429 . S
C1363 C1359 1.429 . S
C1363 C1364 1.523 . S
C1364 C1348 1.368 . S
C1364 C1360 1.368 . S
C1364 C1363 1.523 . S
H1365 C1340 0.950 . S
H1366 C1342 0.950 . S
H1367 C1343 0.949 . S
H1368 C1345 0.950 . S
H1369 C1347 0.950 . S
C1370 C1371 1.349 . S
C1370 C1372 1.327 . S
C1370 H1395 0.950 . S
C1371 C1370 1.349 . S
C1371 C1387 1.349 . S
C1372 C1370 1.327 . S
C1372 C1391 1.429 . S
C1372 H1396 0.950 . S
C1373 C1390 1.574 . S
C1373 C1392 1.368 . S
C1373 H1397 0.949 . S
H1374 C1378 0.949 . S
C1375 C1376 1.349 . S
C1375 C1377 1.327 . S
C1375 H1398 0.950 . S
C1376 C1375 1.349 . S
C1376 C1388 1.349 . S
C1377 C1375 1.327 . S
C1377 C1393 1.429 . S
C1377 H1399 0.950 . S
C1378 H1374 0.949 . S
C1378 C1386 1.574 . S
C1378 C1394 1.368 . S
H1379 C1387 0.950 . S
H1380 C1385 0.950 . S
H1381 C1386 0.949 . S
H1382 C1388 0.950 . S
H1383 C1389 0.950 . S
H1384 C1390 0.949 . S
C1385 H1380 0.950 . S
C1385 C1387 1.327 . S
C1385 C1391 1.429 . S
C1386 C1378 1.574 . S
C1386 H1381 0.949 . S
C1386 C1392 1.368 . S
C1387 C1371 1.349 . S
C1387 H1379 0.950 . S
C1387 C1385 1.327 . S
C1388 C1376 1.349 . S
C1388 H1382 0.950 . S
C1388 C1389 1.327 . S
C1389 H1383 0.950 . S
C1389 C1388 1.327 . S
C1389 C1393 1.429 . S
C1390 C1373 1.574 . S
C1390 H1384 0.949 . S
C1390 C1394 1.368 . S
C1391 C1372 1.429 . S
C1391 C1385 1.429 . S
C1391 C1392 1.523 . S
C1392 C1373 1.368 . S
C1392 C1386 1.368 . S
C1392 C1391 1.523 . S
C1393 C1377 1.429 . S
C1393 C1389 1.429 . S
C1393 C1394 1.523 . S
C1394 C1378 1.368 . S
C1394 C1390 1.368 . S
C1394 C1393 1.523 . S
H1395 C1370 0.950 . S
H1396 C1372 0.950 . S
H1397 C1373 0.949 . S
H1398 C1375 0.950 . S
H1399 C1377 0.950 . S
C1400 C1401 1.349 . S
C1400 C1402 1.327 . S
C1400 H1425 0.950 . S
C1401 C1400 1.349 . S
C1401 C1417 1.349 1_556 S
C1402 C1400 1.327 . S
C1402 C1421 1.429 . S
C1402 H1426 0.950 . S
C1403 C1420 1.574 1_554 S
C1403 C1422 1.369 1_554 S
C1403 H1427 0.948 . S
H1404 C1408 0.949 . S
C1405 C1406 1.349 . S
C1405 C1407 1.327 . S
C1405 H1428 0.950 . S
C1406 C1405 1.349 . S
C1406 C1418 1.349 . S
C1407 C1405 1.327 . S
C1407 C1423 1.429 . S
C1407 H1429 0.950 1_556 S
C1408 H1404 0.949 . S
C1408 C1416 1.574 . S
C1408 C1424 1.368 . S
H1409 C1417 0.950 . S
H1410 C1415 0.950 . S
H1411 C1416 0.949 . S
H1412 C1418 0.950 . S
H1413 C1419 0.950 . S
H1414 C1420 0.949 1_554 S
C1415 H1410 0.950 . S
C1415 C1417 1.327 . S
C1415 C1421 1.429 1_554 S
C1416 C1408 1.574 . S
C1416 H1411 0.949 . S
C1416 C1422 1.368 . S
C1417 C1401 1.349 1_554 S
C1417 H1409 0.950 . S
C1417 C1415 1.327 . S
C1418 C1406 1.349 . S
C1418 H1412 0.950 . S
C1418 C1419 1.327 . S
C1419 H1413 0.950 . S
C1419 C1418 1.327 . S
C1419 C1423 1.429 . S
C1420 C1403 1.574 1_556 S
C1420 H1414 0.949 1_556 S
C1420 C1424 1.368 . S
C1421 C1402 1.429 . S
C1421 C1415 1.429 1_556 S
C1421 C1422 1.523 . S
C1422 C1403 1.369 1_556 S
C1422 C1416 1.368 . S
C1422 C1421 1.523 . S
C1423 C1407 1.429 . S
C1423 C1419 1.429 . S
C1423 C1424 1.523 . S
C1424 C1408 1.368 . S
C1424 C1420 1.368 . S
C1424 C1423 1.523 . S
H1425 C1400 0.950 . S
H1426 C1402 0.950 . S
H1427 C1403 0.948 . S
H1428 C1405 0.950 . S
H1429 C1407 0.950 1_554 S
C1430 C1431 1.349 . S
C1430 C1432 1.327 . S
C1430 H1455 0.950 . S
C1431 C1430 1.349 . S
C1431 C1447 1.349 . S
C1432 C1430 1.327 . S
C1432 C1451 1.429 . S
C1432 H1456 0.950 . S
C1433 C1450 1.574 . S
C1433 C1452 1.368 . S
C1433 H1457 0.949 . S
H1434 C1438 0.949 . S
C1435 C1436 1.349 . S
C1435 C1437 1.327 . S
C1435 H1458 0.950 . S
C1436 C1435 1.349 . S
C1436 C1448 1.349 . S
C1437 C1435 1.327 . S
C1437 C1453 1.429 . S
C1437 H1459 0.950 . S
C1438 H1434 0.949 . S
C1438 C1446 1.574 . S
C1438 C1454 1.368 . S
H1439 C1447 0.950 . S
H1440 C1445 0.950 . S
H1441 C1446 0.949 . S
H1442 C1448 0.950 . S
H1443 C1449 0.950 . S
H1444 C1450 0.949 . S
C1445 H1440 0.950 . S
C1445 C1447 1.327 . S
C1445 C1451 1.429 . S
C1446 C1438 1.574 . S
C1446 H1441 0.949 . S
C1446 C1452 1.368 . S
C1447 C1431 1.349 . S
C1447 H1439 0.950 . S
C1447 C1445 1.327 . S
C1448 C1436 1.349 . S
C1448 H1442 0.950 . S
C1448 C1449 1.327 . S
C1449 H1443 0.950 . S
C1449 C1448 1.327 . S
C1449 C1453 1.429 . S
C1450 C1433 1.574 . S
C1450 H1444 0.949 . S
C1450 C1454 1.368 . S
C1451 C1432 1.429 . S
C1451 C1445 1.429 . S
C1451 C1452 1.523 . S
C1452 C1433 1.368 . S
C1452 C1446 1.368 . S
C1452 C1451 1.523 . S
C1453 C1437 1.429 . S
C1453 C1449 1.429 . S
C1453 C1454 1.523 . S
C1454 C1438 1.368 . S
C1454 C1450 1.368 . S
C1454 C1453 1.523 . S
H1455 C1430 0.950 . S
H1456 C1432 0.950 . S
H1457 C1433 0.949 . S
H1458 C1435 0.950 . S
H1459 C1437 0.950 . S
C1460 C1461 1.349 . S
C1460 C1462 1.327 . S
C1460 H1485 0.950 . S
C1461 C1460 1.349 . S
C1461 C1477 1.349 . S
C1462 C1460 1.327 . S
C1462 C1481 1.429 . S
C1462 H1486 0.950 . S
C1463 C1480 1.574 . S
C1463 C1482 1.368 . S
C1463 H1487 0.949 . S
H1464 C1468 0.949 . S
C1465 C1466 1.349 . S
C1465 C1467 1.327 . S
C1465 H1488 0.950 . S
C1466 C1465 1.349 . S
C1466 C1478 1.349 . S
C1467 C1465 1.327 . S
C1467 C1483 1.429 . S
C1467 H1489 0.950 . S
C1468 H1464 0.949 . S
C1468 C1476 1.574 . S
C1468 C1484 1.368 . S
H1469 C1477 0.950 . S
H1470 C1475 0.950 . S
H1471 C1476 0.949 . S
H1472 C1478 0.950 . S
H1473 C1479 0.950 . S
H1474 C1480 0.949 . S
C1475 H1470 0.950 . S
C1475 C1477 1.327 . S
C1475 C1481 1.429 . S
C1476 C1468 1.574 . S
C1476 H1471 0.949 . S
C1476 C1482 1.368 . S
C1477 C1461 1.349 . S
C1477 H1469 0.950 . S
C1477 C1475 1.327 . S
C1478 C1466 1.349 . S
C1478 H1472 0.950 . S
C1478 C1479 1.327 . S
C1479 H1473 0.950 . S
C1479 C1478 1.327 . S
C1479 C1483 1.429 . S
C1480 C1463 1.574 . S
C1480 H1474 0.949 . S
C1480 C1484 1.368 . S
C1481 C1462 1.429 . S
C1481 C1475 1.429 . S
C1481 C1482 1.523 . S
C1482 C1463 1.368 . S
C1482 C1476 1.368 . S
C1482 C1481 1.523 . S
C1483 C1467 1.429 . S
C1483 C1479 1.429 . S
C1483 C1484 1.523 . S
C1484 C1468 1.368 . S
C1484 C1480 1.368 . S
C1484 C1483 1.523 . S
H1485 C1460 0.950 . S
H1486 C1462 0.950 . S
H1487 C1463 0.949 . S
H1488 C1465 0.950 . S
H1489 C1467 0.950 . S
C1490 C1491 1.349 . S
C1490 C1492 1.327 . S
C1490 H1515 0.950 . S
C1491 C1490 1.349 . S
C1491 C1507 1.349 . S
C1492 C1490 1.327 . S
C1492 C1511 1.429 . S
C1492 H1516 0.950 . S
C1493 C1510 1.574 . S
C1493 C1512 1.368 . S
C1493 H1517 0.949 . S
H1494 C1498 0.949 . S
C1495 C1496 1.349 . S
C1495 C1497 1.327 . S
C1495 H1518 0.950 . S
C1496 C1495 1.349 . S
C1496 C1508 1.349 . S
C1497 C1495 1.327 . S
C1497 C1513 1.429 . S
C1497 H1519 0.950 . S
C1498 H1494 0.949 . S
C1498 C1506 1.574 . S
C1498 C1514 1.368 . S
H1499 C1507 0.950 . S
H1500 C1505 0.950 . S
H1501 C1506 0.949 . S
H1502 C1508 0.950 . S
H1503 C1509 0.950 . S
H1504 C1510 0.949 . S
C1505 H1500 0.950 . S
C1505 C1507 1.327 . S
C1505 C1511 1.429 . S
C1506 C1498 1.574 . S
C1506 H1501 0.949 . S
C1506 C1512 1.368 . S
C1507 C1491 1.349 . S
C1507 H1499 0.950 . S
C1507 C1505 1.327 . S
C1508 C1496 1.349 . S
C1508 H1502 0.950 . S
C1508 C1509 1.327 . S
C1509 H1503 0.950 . S
C1509 C1508 1.327 . S
C1509 C1513 1.429 . S
C1510 C1493 1.574 . S
C1510 H1504 0.949 . S
C1510 C1514 1.368 . S
C1511 C1492 1.429 . S
C1511 C1505 1.429 . S
C1511 C1512 1.523 . S
C1512 C1493 1.368 . S
C1512 C1506 1.368 . S
C1512 C1511 1.523 . S
C1513 C1497 1.429 . S
C1513 C1509 1.429 . S
C1513 C1514 1.523 . S
C1514 C1498 1.368 . S
C1514 C1510 1.368 . S
C1514 C1513 1.523 . S
H1515 C1490 0.950 . S
H1516 C1492 0.950 . S
H1517 C1493 0.949 . S
H1518 C1495 0.950 . S
H1519 C1497 0.950 . S
C1520 C1521 1.349 . S
C1520 C1522 1.327 . S
C1520 H1545 0.950 . S
C1521 C1520 1.349 . S
C1521 C1537 1.349 . S
C1522 C1520 1.327 . S
C1522 C1541 1.429 . S
C1522 H1546 0.950 . S
C1523 C1540 1.574 1_565 S
C1523 C1542 1.368 . S
C1523 H1547 0.949 . S
H1524 C1528 0.949 . S
C1525 C1526 1.349 . S
C1525 C1527 1.327 . S
C1525 H1548 0.950 . S
C1526 C1525 1.349 . S
C1526 C1538 1.349 . S
C1527 C1525 1.327 . S
C1527 C1543 1.429 . S
C1527 H1549 0.950 . S
C1528 H1524 0.949 . S
C1528 C1536 1.574 1_545 S
C1528 C1544 1.368 . S
H1529 C1537 0.950 . S
H1530 C1535 0.950 . S
H1531 C1536 0.949 . S
H1532 C1538 0.950 . S
H1533 C1539 0.950 . S
H1534 C1540 0.949 . S
C1535 H1530 0.950 . S
C1535 C1537 1.327 . S
C1535 C1541 1.429 . S
C1536 C1528 1.574 1_565 S
C1536 H1531 0.949 . S
C1536 C1542 1.368 . S
C1537 C1521 1.349 . S
C1537 H1529 0.950 . S
C1537 C1535 1.327 . S
C1538 C1526 1.349 . S
C1538 H1532 0.950 . S
C1538 C1539 1.327 . S
C1539 H1533 0.950 . S
C1539 C1538 1.327 . S
C1539 C1543 1.429 . S
C1540 C1523 1.574 1_545 S
C1540 H1534 0.949 . S
C1540 C1544 1.368 . S
C1541 C1522 1.429 . S
C1541 C1535 1.429 . S
C1541 C1542 1.523 . S
C1542 C1523 1.368 . S
C1542 C1536 1.368 . S
C1542 C1541 1.523 . S
C1543 C1527 1.429 . S
C1543 C1539 1.429 . S
C1543 C1544 1.523 . S
C1544 C1528 1.368 . S
C1544 C1540 1.368 . S
C1544 C1543 1.523 . S
H1545 C1520 0.950 . S
H1546 C1522 0.950 . S
H1547 C1523 0.949 . S
H1548 C1525 0.950 . S
H1549 C1527 0.950 . S
C1550 C1551 1.349 . S
C1550 C1552 1.327 . S
C1550 H1575 0.950 . S
C1551 C1550 1.349 . S
C1551 C1567 1.349 . S
C1552 C1550 1.327 . S
C1552 C1571 1.429 . S
C1552 H1576 0.950 . S
C1553 C1570 1.574 . S
C1553 C1572 1.368 . S
C1553 H1577 0.949 . S
H1554 C1558 0.949 . S
C1555 C1556 1.349 . S
C1555 C1557 1.327 . S
C1555 H1578 0.950 . S
C1556 C1555 1.349 . S
C1556 C1568 1.349 . S
C1557 C1555 1.327 . S
C1557 C1573 1.429 . S
C1557 H1579 0.950 . S
C1558 H1554 0.949 . S
C1558 C1566 1.574 . S
C1558 C1574 1.368 . S
H1559 C1567 0.950 . S
H1560 C1565 0.950 . S
H1561 C1566 0.949 . S
H1562 C1568 0.950 . S
H1563 C1569 0.950 . S
H1564 C1570 0.949 . S
C1565 H1560 0.950 . S
C1565 C1567 1.327 . S
C1565 C1571 1.429 . S
C1566 C1558 1.574 . S
C1566 H1561 0.949 . S
C1566 C1572 1.368 . S
C1567 C1551 1.349 . S
C1567 H1559 0.950 . S
C1567 C1565 1.327 . S
C1568 C1556 1.349 . S
C1568 H1562 0.950 . S
C1568 C1569 1.327 . S
C1569 H1563 0.950 . S
C1569 C1568 1.327 . S
C1569 C1573 1.429 . S
C1570 C1553 1.574 . S
C1570 H1564 0.949 . S
C1570 C1574 1.368 . S
C1571 C1552 1.429 . S
C1571 C1565 1.429 . S
C1571 C1572 1.523 . S
C1572 C1553 1.368 . S
C1572 C1566 1.368 . S
C1572 C1571 1.523 . S
C1573 C1557 1.429 . S
C1573 C1569 1.429 . S
C1573 C1574 1.523 . S
C1574 C1558 1.368 . S
C1574 C1570 1.368 . S
C1574 C1573 1.523 . S
H1575 C1550 0.950 . S
H1576 C1552 0.950 . S
H1577 C1553 0.949 . S
H1578 C1555 0.950 . S
H1579 C1557 0.950 . S
C1580 C1581 1.349 . S
C1580 C1582 1.327 . S
C1580 H1605 0.950 . S
C1581 C1580 1.349 . S
C1581 C1597 1.349 . S
C1582 C1580 1.327 . S
C1582 C1601 1.429 . S
C1582 H1606 0.950 . S
C1583 C1600 1.631 . S
C1583 C1602 1.368 . S
C1583 H1607 0.949 . S
H1584 C1588 0.949 . S
C1585 C1586 1.349 1_556 S
C1585 C1587 1.327 . S
C1585 H1608 0.950 . S
C1586 C1585 1.349 1_554 S
C1586 C1598 1.349 . S
C1587 C1585 1.327 . S
C1587 C1603 1.429 1_556 S
C1587 H1609 0.950 . S
C1588 H1584 0.949 . S
C1588 C1596 1.574 1_545 S
C1588 C1604 1.368 . S
H1589 C1597 0.950 . S
H1590 C1595 0.950 . S
H1591 C1596 0.949 . S
H1592 C1598 0.950 . S
H1593 C1599 0.950 . S
H1594 C1600 0.921 1_546 S
C1595 H1590 0.950 . S
C1595 C1597 1.327 . S
C1595 C1601 1.429 . S
C1596 C1588 1.574 1_565 S
C1596 H1591 0.949 . S
C1596 C1602 1.368 . S
C1597 C1581 1.349 . S
C1597 H1589 0.950 . S
C1597 C1595 1.327 . S
C1598 C1586 1.349 . S
C1598 H1592 0.950 . S
C1598 C1599 1.327 . S
C1599 H1593 0.950 . S
C1599 C1598 1.327 . S
C1599 C1603 1.429 . S
C1600 C1583 1.631 . S
C1600 H1594 0.921 1_564 S
C1600 C1604 1.345 1_565 S
C1601 C1582 1.429 . S
C1601 C1595 1.429 . S
C1601 C1602 1.523 . S
C1602 C1583 1.368 . S
C1602 C1596 1.368 . S
C1602 C1601 1.523 . S
C1603 C1587 1.429 1_554 S
C1603 C1599 1.429 . S
C1603 C1604 1.523 . S
C1604 C1588 1.368 . S
C1604 C1600 1.345 1_545 S
C1604 C1603 1.523 . S
H1605 C1580 0.950 . S
H1606 C1582 0.950 . S
H1607 C1583 0.949 . S
H1608 C1585 0.950 . S
H1609 C1587 0.950 . S
C1610 C1611 1.349 . S
C1610 C1612 1.327 . S
C1610 H1635 0.950 . S
C1611 C1610 1.349 . S
C1611 C1627 1.349 . S
C1612 C1610 1.327 . S
C1612 C1631 1.429 . S
C1612 H1636 0.950 . S
C1613 C1630 1.574 . S
C1613 C1632 1.368 . S
C1613 H1637 0.949 . S
H1614 C1618 0.949 . S
C1615 C1616 1.349 . S
C1615 C1617 1.327 . S
C1615 H1638 0.950 . S
C1616 C1615 1.349 . S
C1616 C1628 1.349 . S
C1617 C1615 1.327 . S
C1617 C1633 1.429 . S
C1617 H1639 0.950 . S
C1618 H1614 0.949 . S
C1618 C1626 1.574 . S
C1618 C1634 1.368 . S
H1619 C1627 0.950 . S
H1620 C1625 0.950 . S
H1621 C1626 0.949 . S
H1622 C1628 0.950 . S
H1623 C1629 0.950 . S
H1624 C1630 0.949 . S
C1625 H1620 0.950 . S
C1625 C1627 1.327 . S
C1625 C1631 1.429 . S
C1626 C1618 1.574 . S
C1626 H1621 0.949 . S
C1626 C1632 1.368 . S
C1627 C1611 1.349 . S
C1627 H1619 0.950 . S
C1627 C1625 1.327 . S
C1628 C1616 1.349 . S
C1628 H1622 0.950 . S
C1628 C1629 1.327 . S
C1629 H1623 0.950 . S
C1629 C1628 1.327 . S
C1629 C1633 1.429 . S
C1630 C1613 1.574 . S
C1630 H1624 0.949 . S
C1630 C1634 1.368 . S
C1631 C1612 1.429 . S
C1631 C1625 1.429 . S
C1631 C1632 1.523 . S
C1632 C1613 1.368 . S
C1632 C1626 1.368 . S
C1632 C1631 1.523 . S
C1633 C1617 1.429 . S
C1633 C1629 1.429 . S
C1633 C1634 1.523 . S
C1634 C1618 1.368 . S
C1634 C1630 1.368 . S
C1634 C1633 1.523 . S
H1635 C1610 0.950 . S
H1636 C1612 0.950 . S
H1637 C1613 0.949 . S
H1638 C1615 0.950 . S
H1639 C1617 0.950 . S
C1640 C1641 1.349 . S
C1640 C1642 1.327 . S
C1640 H1665 0.950 . S
C1641 C1640 1.349 . S
C1641 C1657 1.349 . S
C1642 C1640 1.327 . S
C1642 C1661 1.429 . S
C1642 H1666 0.950 . S
C1643 C1660 1.574 . S
C1643 C1662 1.368 1_545 S
C1643 H1667 0.921 1_545 S
H1644 C1648 0.949 . S
C1645 C1646 1.349 . S
C1645 C1647 1.327 . S
C1645 H1668 0.950 . S
C1646 C1645 1.349 . S
C1646 C1658 1.349 . S
C1647 C1645 1.327 . S
C1647 C1663 1.429 . S
C1647 H1669 0.950 . S
C1648 H1644 0.949 . S
C1648 C1656 1.574 . S
C1648 C1664 1.368 . S
H1649 C1657 0.950 . S
H1650 C1655 0.950 . S
H1651 C1656 0.949 1_565 S
H1652 C1658 0.950 . S
H1653 C1659 0.950 . S
H1654 C1660 0.949 . S
C1655 H1650 0.950 . S
C1655 C1657 1.327 . S
C1655 C1661 1.429 . S
C1656 C1648 1.574 . S
C1656 H1651 0.949 1_545 S
C1656 C1662 1.368 1_545 S
C1657 C1641 1.349 . S
C1657 H1649 0.950 . S
C1657 C1655 1.327 . S
C1658 C1646 1.349 . S
C1658 H1652 0.950 . S
C1658 C1659 1.327 . S
C1659 H1653 0.950 . S
C1659 C1658 1.327 . S
C1659 C1663 1.429 . S
C1660 C1643 1.574 . S
C1660 H1654 0.949 . S
C1660 C1664 1.368 . S
C1661 C1642 1.429 . S
C1661 C1655 1.429 . S
C1661 C1662 1.523 . S
C1662 C1643 1.368 1_565 S
C1662 C1656 1.368 1_565 S
C1662 C1661 1.523 . S
C1663 C1647 1.429 . S
C1663 C1659 1.429 . S
C1663 C1664 1.523 . S
C1664 C1648 1.368 . S
C1664 C1660 1.368 . S
C1664 C1663 1.523 . S
H1665 C1640 0.950 . S
H1666 C1642 0.950 . S
H1667 C1643 0.921 1_565 S
H1668 C1645 0.950 . S
H1669 C1647 0.950 . S
C1670 C1671 1.349 . S
C1670 C1672 1.327 . S
C1670 H1695 0.950 . S
C1671 C1670 1.349 . S
C1671 C1687 1.349 . S
C1672 C1670 1.327 . S
C1672 C1691 1.429 . S
C1672 H1696 0.950 . S
C1673 C1690 1.574 . S
C1673 C1692 1.368 . S
C1673 H1697 0.949 . S
H1674 C1678 0.949 . S
C1675 C1676 1.349 . S
C1675 C1677 1.327 . S
C1675 H1698 0.950 . S
C1676 C1675 1.349 . S
C1676 C1688 1.349 . S
C1677 C1675 1.327 . S
C1677 C1693 1.429 . S
C1677 H1699 0.950 . S
C1678 H1674 0.949 . S
C1678 C1686 1.574 . S
C1678 C1694 1.368 . S
H1679 C1687 0.950 . S
H1680 C1685 0.950 . S
H1681 C1686 0.949 . S
H1682 C1688 0.950 . S
H1683 C1689 0.950 . S
H1684 C1690 0.949 . S
C1685 H1680 0.950 . S
C1685 C1687 1.327 . S
C1685 C1691 1.429 . S
C1686 C1678 1.574 . S
C1686 H1681 0.949 . S
C1686 C1692 1.368 . S
C1687 C1671 1.349 . S
C1687 H1679 0.950 . S
C1687 C1685 1.327 . S
C1688 C1676 1.349 . S
C1688 H1682 0.950 . S
C1688 C1689 1.327 . S
C1689 H1683 0.950 . S
C1689 C1688 1.327 . S
C1689 C1693 1.429 . S
C1690 C1673 1.574 . S
C1690 H1684 0.949 . S
C1690 C1694 1.368 . S
C1691 C1672 1.429 . S
C1691 C1685 1.429 . S
C1691 C1692 1.523 . S
C1692 C1673 1.368 . S
C1692 C1686 1.368 . S
C1692 C1691 1.523 . S
C1693 C1677 1.429 . S
C1693 C1689 1.429 . S
C1693 C1694 1.523 . S
C1694 C1678 1.368 . S
C1694 C1690 1.368 . S
C1694 C1693 1.523 . S
H1695 C1670 0.950 . S
H1696 C1672 0.950 . S
H1697 C1673 0.949 . S
H1698 C1675 0.950 . S
H1699 C1677 0.950 . S
C1700 C1701 1.349 . S
C1700 C1702 1.327 . S
C1700 H1725 0.950 . S
C1701 C1700 1.349 . S
C1701 C1717 1.349 1_556 S
C1702 C1700 1.327 . S
C1702 C1721 1.429 1_556 S
C1702 H1726 0.950 . S
C1703 C1720 1.574 1_545 S
C1703 C1722 1.368 . S
C1703 H1727 0.949 . S
H1704 C1708 0.949 . S
C1705 C1706 1.349 . S
C1705 C1707 1.327 . S
C1705 H1728 0.950 . S
C1706 C1705 1.349 . S
C1706 C1718 1.349 . S
C1707 C1705 1.327 . S
C1707 C1723 1.429 . S
C1707 H1729 0.950 . S
C1708 H1704 0.949 . S
C1708 C1716 1.574 1_565 S
C1708 C1724 1.368 1_556 S
H1709 C1717 0.950 . S
H1710 C1715 0.950 . S
H1711 C1716 0.949 . S
H1712 C1718 0.950 1_556 S
H1713 C1719 0.950 1_556 S
H1714 C1720 0.949 . S
C1715 H1710 0.950 . S
C1715 C1717 1.327 . S
C1715 C1721 1.429 . S
C1716 C1708 1.574 1_545 S
C1716 H1711 0.949 . S
C1716 C1722 1.368 1_556 S
C1717 C1701 1.349 1_554 S
C1717 H1709 0.950 . S
C1717 C1715 1.327 . S
C1718 C1706 1.349 . S
C1718 H1712 0.950 1_554 S
C1718 C1719 1.327 . S
C1719 H1713 0.950 1_554 S
C1719 C1718 1.327 . S
C1719 C1723 1.429 . S
C1720 C1703 1.574 1_565 S
C1720 H1714 0.949 . S
C1720 C1724 1.368 . S
C1721 C1702 1.429 1_554 S
C1721 C1715 1.429 . S
C1721 C1722 1.523 . S
C1722 C1703 1.368 . S
C1722 C1716 1.368 1_554 S
C1722 C1721 1.523 . S
C1723 C1707 1.429 . S
C1723 C1719 1.429 . S
C1723 C1724 1.523 . S
C1724 C1708 1.368 1_554 S
C1724 C1720 1.368 . S
C1724 C1723 1.523 . S
H1725 C1700 0.950 . S
H1726 C1702 0.950 . S
H1727 C1703 0.949 . S
H1728 C1705 0.950 . S
H1729 C1707 0.950 . S
C1730 C1731 1.349 . S
C1730 C1732 1.327 . S
C1730 H1755 0.950 . S
C1731 C1730 1.349 . S
C1731 C1747 1.349 . S
C1732 C1730 1.327 . S
C1732 C1751 1.429 . S
C1732 H1756 0.950 . S
C1733 C1750 1.574 . S
C1733 C1752 1.368 . S
C1733 H1757 0.949 . S
H1734 C1738 0.949 . S
C1735 C1736 1.349 . S
C1735 C1737 1.327 . S
C1735 H1758 0.950 . S
C1736 C1735 1.349 . S
C1736 C1748 1.349 . S
C1737 C1735 1.327 . S
C1737 C1753 1.429 . S
C1737 H1759 0.950 . S
C1738 H1734 0.949 . S
C1738 C1746 1.574 . S
C1738 C1754 1.368 . S
H1739 C1747 0.950 . S
H1740 C1745 0.950 . S
H1741 C1746 0.949 . S
H1742 C1748 0.950 . S
H1743 C1749 0.950 . S
H1744 C1750 0.949 . S
C1745 H1740 0.950 . S
C1745 C1747 1.327 . S
C1745 C1751 1.429 . S
C1746 C1738 1.574 . S
C1746 H1741 0.949 . S
C1746 C1752 1.368 . S
C1747 C1731 1.349 . S
C1747 H1739 0.950 . S
C1747 C1745 1.327 . S
C1748 C1736 1.349 . S
C1748 H1742 0.950 . S
C1748 C1749 1.327 . S
C1749 H1743 0.950 . S
C1749 C1748 1.327 . S
C1749 C1753 1.429 . S
C1750 C1733 1.574 . S
C1750 H1744 0.949 . S
C1750 C1754 1.368 . S
C1751 C1732 1.429 . S
C1751 C1745 1.429 . S
C1751 C1752 1.523 . S
C1752 C1733 1.368 . S
C1752 C1746 1.368 . S
C1752 C1751 1.523 . S
C1753 C1737 1.429 . S
C1753 C1749 1.429 . S
C1753 C1754 1.523 . S
C1754 C1738 1.368 . S
C1754 C1750 1.368 . S
C1754 C1753 1.523 . S
H1755 C1730 0.950 . S
H1756 C1732 0.950 . S
H1757 C1733 0.949 . S
H1758 C1735 0.950 . S
H1759 C1737 0.950 . S
C321 C8 1.795 . S
C326 C19 1.795 . S
C351 C39 1.772 . S
C356 C28 1.772 . S
C381 C48 1.754 . S
C386 C59 1.754 . S
C411 C68 1.773 . S
C416 C79 1.773 . S
C441 C88 1.776 . S
C446 C99 1.776 . S
C471 C108 1.765 . S
C476 C119 1.765 . S
C501 C139 1.777 . S
C506 C128 1.777 . S
C531 C159 1.819 . S
C536 C148 1.819 . S
C561 C179 1.804 1_554 S
C566 C168 1.804 . S
C591 C199 1.775 . S
C596 C188 1.775 . S
C621 C208 1.756 . S
C626 C219 1.756 . S
C651 C239 1.775 . S
C656 C228 1.775 1_556 S
C681 C259 1.775 . S
C686 C248 1.775 . S
C711 C279 1.768 . S
C716 C268 1.768 . S
C741 C288 1.774 . S
C746 C299 1.774 . S
C771 C319 1.814 . S
C776 C308 1.814 . S
C801 C1 1.554 . S
C806 C226 1.467 . S
C831 C36 1.803 . S
C836 C309 1.898 . S
C861 C41 1.638 . S
C866 C189 1.602 . S
C891 C61 1.970 . S
C896 C269 2.006 . S
C921 C81 1.557 . S
C926 C266 1.469 . S
C951 C229 1.904 . S
C956 C116 1.800 . S
C981 C136 1.420 . S
C986 C306 1.374 . S
C1011 C156 1.689 . S
C1016 C186 1.744 . S
C1041 C76 1.714 . S
C1046 C169 1.763 . S
C1071 C21 1.905 . S
C1076 C209 1.906 . S
C1101 C249 1.801 . S
C1106 C101 1.787 . S
C1131 C141 1.621 . S
C1136 C286 1.598 . S
C1161 C166 1.500 . S
C1166 C96 1.497 1_554 S
C1191 C121 1.598 . S
C1196 C206 1.550 . S
C1221 C56 1.683 . S
C1226 C289 1.715 . S
C1251 C16 1.649 . S
C1256 C246 1.619 . S
C1281 C9 1.308 . S
C1286 C89 1.308 . S
C1311 C26 1.707 . S
C1316 C106 1.708 . S
C1341 C49 1.423 . S
C1346 C126 1.390 . S
C1371 C69 1.671 . S
C1376 C146 1.628 . S
C1401 C241 1.621 1_556 S
C1406 C161 1.625 . S
C1431 C261 1.769 . S
C1436 C196 1.732 . S
C1461 C201 1.722 . S
C1466 C296 1.670 . S
C1491 C301 1.679 . S
C1496 C221 1.676 . S
C1521 C29 1.679 . S
C1526 C149 1.685 . S
C1551 C86 1.421 . S
C1556 C46 1.414 . S
C1581 C109 1.787 . S
C1586 C66 1.740 1_554 S
C1611 C6 1.329 . S
C1616 C129 1.372 . S
C1641 C316 1.322 . S
C1646 C181 1.365 . S
C1671 C256 1.503 . S
C1676 C216 1.498 . S
C1701 C276 1.415 . S
C1706 C236 1.416 . S
C1731 C281 1.440 . S
C1736 C176 1.403 . S
