# Generated by pormake.
# Topology wkw, (8)-cn, num edge types: 1
# Building blocks:
#     Node 0, Type 0, BuildingBlock: TAGTUT_clean_sbu_1, # of connection points: 8
#     Node 1, Type 0, BuildingBlock: TAGTUT_clean_sbu_1, # of connection points: 8
#     Node 2, Type 0, BuildingBlock: TAGTUT_clean_sbu_1, # of connection points: 8
#     Node 3, Type 0, BuildingBlock: TAGTUT_clean_sbu_1, # of connection points: 8
#     Node 4, Type 0, BuildingBlock: TAGTUT_clean_sbu_1, # of connection points: 8
#     Node 5, Type 0, BuildingBlock: TAGTUT_clean_sbu_1, # of connection points: 8
#     Edge 6, Type (0, 0), BuildingBlock: ZUJKAS_clean_linker_0, # of connection points: 2
#     Edge 7, Type (0, 0), BuildingBlock: ZUJKAS_clean_linker_0, # of connection points: 2
#     Edge 8, Type (0, 0), BuildingBlock: ZUJKAS_clean_linker_0, # of connection points: 2
#     Edge 9, Type (0, 0), BuildingBlock: ZUJKAS_clean_linker_0, # of connection points: 2
#     Edge 10, Type (0, 0), BuildingBlock: ZUJKAS_clean_linker_0, # of connection points: 2
#     Edge 11, Type (0, 0), BuildingBlock: ZUJKAS_clean_linker_0, # of connection points: 2
#     Edge 12, Type (0, 0), BuildingBlock: ZUJKAS_clean_linker_0, # of connection points: 2
#     Edge 13, Type (0, 0), BuildingBlock: ZUJKAS_clean_linker_0, # of connection points: 2
#     Edge 14, Type (0, 0), BuildingBlock: ZUJKAS_clean_linker_0, # of connection points: 2
#     Edge 15, Type (0, 0), BuildingBlock: ZUJKAS_clean_linker_0, # of connection points: 2
#     Edge 16, Type (0, 0), BuildingBlock: ZUJKAS_clean_linker_0, # of connection points: 2
#     Edge 17, Type (0, 0), BuildingBlock: ZUJKAS_clean_linker_0, # of connection points: 2
#     Edge 18, Type (0, 0), BuildingBlock: ZUJKAS_clean_linker_0, # of connection points: 2
#     Edge 19, Type (0, 0), BuildingBlock: ZUJKAS_clean_linker_0, # of connection points: 2
#     Edge 20, Type (0, 0), BuildingBlock: ZUJKAS_clean_linker_0, # of connection points: 2
#     Edge 21, Type (0, 0), BuildingBlock: ZUJKAS_clean_linker_0, # of connection points: 2
#     Edge 22, Type (0, 0), BuildingBlock: ZUJKAS_clean_linker_0, # of connection points: 2
#     Edge 23, Type (0, 0), BuildingBlock: ZUJKAS_clean_linker_0, # of connection points: 2
#     Edge 24, Type (0, 0), BuildingBlock: ZUJKAS_clean_linker_0, # of connection points: 2
#     Edge 25, Type (0, 0), BuildingBlock: ZUJKAS_clean_linker_0, # of connection points: 2
#     Edge 26, Type (0, 0), BuildingBlock: ZUJKAS_clean_linker_0, # of connection points: 2
#     Edge 27, Type (0, 0), BuildingBlock: ZUJKAS_clean_linker_0, # of connection points: 2
#     Edge 28, Type (0, 0), BuildingBlock: ZUJKAS_clean_linker_0, # of connection points: 2
#     Edge 29, Type (0, 0), BuildingBlock: ZUJKAS_clean_linker_0, # of connection points: 2
# Relax obj value: 0.239
# Max RMSD: 0.271
# Mean RMSD: 0.271
data_MOF--net-wkw--node1-TAGTUT_clean_sbu_1--edge1-ZUJKAS_clean_linker_0
_symmetry_space_group_name_H-M    P1
_symmetry_Int_Tables_number       1
_symmetry_cell_setting            triclinic
loop_
_symmetry_equiv_pos_as_xyz
'x, y, z'
_cell_length_a     50.609866
_cell_length_b     50.397447
_cell_length_c     23.231635
_cell_angle_alpha  90.1607
_cell_angle_beta   89.980225
_cell_angle_gamma 120.20573
loop_
_atom_site_label
_atom_site_type_symbol
_atom_site_fract_x
_atom_site_fract_y
_atom_site_fract_z
_atom_type_partial_charge
C0 C 0.78488 0.24104 0.85908 0.0
C1 C 0.87214 0.31628 0.80743 0.0
C2 C 0.91933 0.27898 0.97859 0.0
Mg3 Mg 0.8282 0.30617 0.90581 0.0
O4 O 0.84252 0.2845 0.94789 0.0
Mg5 Mg 0.85611 0.25968 0.90327 0.0
Mg6 Mg 0.87846 0.30768 -0.00147 0.0
O7 O 0.91421 0.33104 0.05433 0.0
Mg8 Mg 0.92698 0.30363 0.09496 0.0
Mg9 Mg 0.90173 0.36229 0.0925 0.0
C10 C 0.84042 0.34209 0.02514 0.0
C11 C 0.90881 0.37979 0.95631 0.0
O12 O 0.80599 0.23409 0.86506 0.0
O13 O 0.78834 0.26715 0.8733 0.0
O14 O 0.87231 0.29259 0.82632 0.0
O15 O 0.85812 0.3277 0.834 0.0
O16 O 0.82811 0.33508 0.9749 0.0
O17 O 0.85561 0.33004 0.04593 0.0
C18 C 0.84217 0.23437 0.03388 0.0
O19 O 0.85499 0.26195 0.05415 0.0
O20 O 0.8408 0.2289 0.98002 0.0
O21 O 0.94026 0.35202 0.07111 0.0
O22 O 0.97473 0.34165 0.10035 0.0
O23 O 0.89081 0.33371 0.17511 0.0
C24 C 0.96747 0.36214 0.09143 0.0
O25 O 0.90417 0.29734 0.17748 0.0
O26 O 0.90859 0.26839 0.02814 0.0
C27 C 0.89239 0.3121 0.20084 0.0
O28 O 0.90472 0.28825 0.94712 0.0
O29 O 0.89879 0.35176 0.94137 0.0
O30 O 0.91171 0.38798 0.00904 0.0
C31 C 0.57982 0.78732 0.01943 0.0
C32 C 0.57582 0.86665 0.96421 0.0
C33 C 0.65175 0.92729 0.14386 0.0
Mg34 Mg 0.54443 0.81908 0.05925 0.0
O35 O 0.57874 0.83821 0.10745 0.0
Mg36 Mg 0.61971 0.86114 0.06881 0.0
Mg37 Mg 0.58122 0.87046 0.15932 0.0
O38 O 0.58286 0.90284 0.21084 0.0
Mg39 Mg 0.61589 0.92504 0.26033 0.0
Mg40 Mg 0.54114 0.88002 0.24606 0.0
C41 C 0.50864 0.81944 0.1718 0.0
C42 C 0.53268 0.88949 0.11087 0.0
O43 O 0.60565 0.81206 0.02897 0.0
O44 O 0.55391 0.78517 0.0289 0.0
O45 O 0.60113 0.87253 0.98734 0.0
O46 O 0.55028 0.84827 0.98766 0.0
O47 O 0.50822 0.80989 0.1203 0.0
O48 O 0.53395 0.83667 0.19861 0.0
C49 C 0.62955 0.84934 0.20208 0.0
O50 O 0.60897 0.85546 0.21944 0.0
O51 O 0.63666 0.85042 0.14907 0.0
O52 O 0.55191 0.92657 0.28467 0.0
O53 O 0.60292 0.95793 0.28829 0.0
O54 O 0.55929 0.8699 0.32967 0.0
C55 C 0.57559 0.95274 0.29561 0.0
O56 O 0.61026 0.89626 0.33257 0.0
O57 O 0.6511 0.93624 0.19555 0.0
C58 C 0.58455 0.87714 0.35482 0.0
O59 O 0.62764 0.90561 0.11889 0.0
O60 O 0.55407 0.88392 0.09807 0.0
O61 O 0.5245 0.88969 0.1629 0.0
C62 C 0.7831 0.56459 0.16697 0.0
C63 C 0.70528 0.56815 0.10352 0.0
C64 C 0.7229 0.64318 0.28891 0.0
Mg65 Mg 0.71472 0.53174 0.19923 0.0
O66 O 0.73019 0.56561 0.24878 0.0
Mg67 Mg 0.75283 0.60777 0.21401 0.0
Mg68 Mg 0.70151 0.57011 0.29976 0.0
O69 O 0.67229 0.57433 0.35109 0.0
Mg70 Mg 0.68584 0.60709 0.40254 0.0
Mg71 Mg 0.6501 0.53208 0.38433 0.0
C72 C 0.67308 0.49617 0.30732 0.0
C73 C 0.6324 0.52802 0.24904 0.0
O74 O 0.78563 0.59104 0.17634 0.0
O75 O 0.75824 0.53909 0.17452 0.0
O76 O 0.72473 0.59277 0.12942 0.0
O77 O 0.69642 0.54175 0.125 0.0
O78 O 0.68267 0.49531 0.25647 0.0
O79 O 0.68335 0.5215 0.33548 0.0
C80 C 0.77139 0.61262 0.34864 0.0
O81 O 0.74363 0.59323 0.36307 0.0
O82 O 0.77895 0.6211 0.2966 0.0
O83 O 0.61782 0.54629 0.42535 0.0
O84 O 0.64123 0.59775 0.43135 0.0
O85 O 0.67892 0.5468 0.46823 0.0
C86 C 0.61764 0.57101 0.43785 0.0
O87 O 0.70727 0.59787 0.4729 0.0
O88 O 0.71302 0.64259 0.34021 0.0
C89 C 0.6987 0.57139 0.49387 0.0
O90 O 0.71809 0.61854 0.26233 0.0
O91 O 0.66057 0.54648 0.23636 0.0
O92 O 0.62357 0.51993 0.30093 0.0
C93 C 0.22356 0.77718 0.32954 0.0
C94 C 0.13713 0.70214 0.27336 0.0
C95 C 0.08603 0.73323 0.45357 0.0
Mg96 Mg 0.18049 0.71132 0.3725 0.0
O97 O 0.16599 0.73305 0.41501 0.0
Mg98 Mg 0.15133 0.7574 0.3727 0.0
Mg99 Mg 0.13114 0.70979 0.46631 0.0
O100 O 0.0962 0.68591 0.52184 0.0
Mg101 Mg 0.08321 0.70724 0.57192 0.0
Mg102 Mg 0.11172 0.66037 0.55909 0.0
C103 C 0.17168 0.67661 0.4906 0.0
C104 C 0.09802 0.63798 0.42564 0.0
O105 O 0.20211 0.78384 0.33475 0.0
O106 O 0.22016 0.75104 0.34288 0.0
O107 O 0.13597 0.72507 0.29404 0.0
O108 O 0.1514 0.69081 0.2992 0.0
O109 O 0.18231 0.68196 0.4391 0.0
O110 O 0.15722 0.6893 0.5115 0.0
C111 C 0.16549 0.7827 0.50341 0.0
O112 O 0.154 0.75517 0.52283 0.0
O113 O 0.16617 0.78822 0.4498 0.0
O114 O 0.06372 0.63445 0.59719 0.0
O115 O 0.04207 0.66427 0.5978 0.0
O116 O 0.12839 0.68964 0.64113 0.0
C117 C 0.04093 0.63844 0.60625 0.0
O118 O 0.11211 0.72308 0.64667 0.0
O119 O 0.09648 0.74241 0.50417 0.0
C120 C 0.12694 0.71108 0.66751 0.0
O121 O 0.10219 0.72746 0.41808 0.0
O122 O 0.11015 0.66595 0.40909 0.0
O123 O 0.09584 0.63113 0.47895 0.0
C124 C 0.43646 0.2278 0.52612 0.0
C125 C 0.43638 0.14651 0.47432 0.0
C126 C 0.35858 0.08772 0.65047 0.0
Mg127 Mg 0.46895 0.19411 0.5703 0.0
O128 O 0.43414 0.17613 0.61682 0.0
Mg129 Mg 0.39339 0.15459 0.57707 0.0
Mg130 Mg 0.42988 0.14315 0.66831 0.0
O131 O 0.42647 0.10998 0.71945 0.0
Mg132 Mg 0.39287 0.08762 0.76747 0.0
Mg133 Mg 0.46805 0.13136 0.75542 0.0
C134 C 0.5027 0.19202 0.68388 0.0
C135 C 0.4765 0.12156 0.6202 0.0
O136 O 0.40999 0.20345 0.53323 0.0
O137 O 0.46166 0.22927 0.53967 0.0
O138 O 0.41118 0.14131 0.49694 0.0
O139 O 0.46203 0.16455 0.49807 0.0
O140 O 0.50436 0.20185 0.63231 0.0
O141 O 0.47688 0.17537 0.70907 0.0
C142 C 0.38494 0.16824 0.711 0.0
O143 O 0.40409 0.1601 0.72776 0.0
O144 O 0.37771 0.16759 0.65797 0.0
O145 O 0.45572 0.08425 0.79235 0.0
O146 O 0.40461 0.05352 0.7934 0.0
O147 O 0.44999 0.14171 0.839 0.0
C148 C 0.43169 0.05813 0.80149 0.0
O149 O 0.39898 0.11593 0.84122 0.0
O150 O 0.35834 0.07785 0.70166 0.0
C151 C 0.42475 0.13468 0.86398 0.0
O152 O 0.38318 0.10962 0.62749 0.0
O153 O 0.45574 0.128 0.60725 0.0
O154 O 0.48451 0.12122 0.67227 0.0
C155 C 0.23646 0.46747 0.75162 0.0
C156 C 0.30676 0.45075 0.68371 0.0
C157 C 0.27098 0.36566 0.85416 0.0
Mg158 Mg 0.30252 0.48709 0.78624 0.0
O159 O 0.28199 0.45113 0.82897 0.0
Mg160 Mg 0.25365 0.41264 0.78661 0.0
Mg161 Mg 0.30503 0.43646 0.87487 0.0
O162 O 0.32837 0.42203 0.92517 0.0
Mg163 Mg 0.30131 0.38161 0.9657 0.0
Mg164 Mg 0.36367 0.46543 0.95917 0.0
C165 C 0.34468 0.50986 0.89886 0.0
C166 C 0.37408 0.47247 0.8206 0.0
O167 O 0.22934 0.4391 0.75352 0.0
O168 O 0.26298 0.48971 0.76492 0.0
O169 O 0.28364 0.42716 0.70522 0.0
O170 O 0.31933 0.47671 0.70925 0.0
O171 O 0.3356 0.51541 0.85111 0.0
O172 O 0.33244 0.48251 0.91999 0.0
C173 C 0.23468 0.4049 0.92134 0.0
O174 O 0.26288 0.41826 0.93716 0.0
O175 O 0.22664 0.40007 0.8685 0.0
O176 O 0.34886 0.41524 0.93719 0.0
O177 O 0.33646 0.36832 0.95594 0.0
O178 O 0.33844 0.44963 0.04635 0.0
C179 C 0.35786 0.39582 0.94718 0.0
O180 O 0.30122 0.39987 0.05094 0.0
O181 O 0.26322 0.36607 0.90611 0.0
C182 C 0.31748 0.42654 0.07387 0.0
O183 O 0.28072 0.39026 0.82458 0.0
O184 O 0.3453 0.4559 0.81154 0.0
O185 O 0.38554 0.47872 0.87124 0.0
H186 H 0.86104 0.33368 0.26216 0.0
H187 H 0.85954 0.33766 0.36667 0.0
H188 H 0.90587 0.28607 0.38527 0.0
H189 H 0.90787 0.28219 0.28053 0.0
H190 H 0.83705 0.29377 0.45705 0.0
H191 H 0.96326 0.36978 0.46455 0.0
H192 H 0.94163 0.36087 0.39845 0.0
H193 H 0.95015 0.33341 0.42952 0.0
C194 C 0.87044 0.32266 0.28838 0.0
C195 C 0.88499 0.30799 0.26294 0.0
C196 C 0.86961 0.32504 0.34809 0.0
C197 C 0.88335 0.3129 0.38335 0.0
C198 C 0.89578 0.29619 0.35847 0.0
H199 H 0.90707 0.30071 0.74201 0.0
H200 H 0.91319 0.30562 0.63783 0.0
C201 C 0.89658 0.29371 0.29865 0.0
C202 C 0.88585 0.31895 0.44592 0.0
H203 H 0.93755 0.35457 0.55433 0.0
C204 C 0.85896 0.30721 0.47837 0.0
C205 C 0.91455 0.33678 0.4732 0.0
C206 C 0.94408 0.35121 0.43969 0.0
C207 C 0.86001 0.3119 0.53803 0.0
C208 C 0.88873 0.32931 0.5655 0.0
C209 C 0.91562 0.34146 0.5329 0.0
C210 C 0.89111 0.33262 0.62874 0.0
C211 C 0.83044 0.29728 0.5715 0.0
C212 C 0.8785 0.34795 0.65828 0.0
C213 C 0.87496 0.34522 0.71803 0.0
C214 C 0.88387 0.32697 0.74873 0.0
C215 C 0.89949 0.31449 0.71951 0.0
C216 C 0.90305 0.31729 0.65994 0.0
H217 H 0.81086 0.28007 0.5454 0.0
H218 H 0.83239 0.28583 0.61073 0.0
H219 H 0.82533 0.31531 0.5853 0.0
H220 H 0.86973 0.36044 0.63479 0.0
H221 H 0.86318 0.35545 0.73933 0.0
H222 H 0.63295 0.89383 0.42798 0.0
H223 H 0.63081 0.89112 0.53294 0.0
H224 H 0.53232 0.83967 0.52591 0.0
H225 H 0.53412 0.84182 0.42113 0.0
H226 H 0.60319 0.91796 0.59495 0.0
H227 H 0.55109 0.79461 0.65009 0.0
H228 H 0.5677 0.80961 0.58046 0.0
H229 H 0.52998 0.80241 0.59734 0.0
C230 C 0.61082 0.88106 0.44855 0.0
C231 C 0.58369 0.86832 0.41595 0.0
C232 C 0.60966 0.87971 0.50864 0.0
C233 C 0.58142 0.86532 0.53721 0.0
C234 C 0.55438 0.8506 0.50478 0.0
H235 H 0.52664 0.85244 0.89466 0.0
H236 H 0.52732 0.85614 0.78976 0.0
C237 C 0.55548 0.8519 0.44471 0.0
C238 C 0.58015 0.86861 0.60039 0.0
H239 H 0.55386 0.82811 0.72515 0.0
C240 C 0.59258 0.89833 0.62352 0.0
C241 C 0.56598 0.84296 0.63739 0.0
C242 C 0.55316 0.8106 0.61523 0.0
C243 C 0.59103 0.90308 0.68269 0.0
C244 C 0.57698 0.87745 0.71968 0.0
C245 C 0.56439 0.84773 0.69654 0.0
C246 C 0.57663 0.88075 0.783 0.0
C247 C 0.60402 0.93542 0.70503 0.0
C248 C 0.60416 0.89457 0.81401 0.0
C249 C 0.6039 0.89258 0.87398 0.0
C250 C 0.57606 0.8764 0.90397 0.0
C251 C 0.5485 0.86486 0.87302 0.0
C252 C 0.54881 0.86683 0.81299 0.0
H253 H 0.60607 0.95148 0.67032 0.0
H254 H 0.58959 0.93642 0.74003 0.0
H255 H 0.62721 0.9435 0.72273 0.0
H256 H 0.62588 0.90517 0.79169 0.0
H257 H 0.62556 0.90185 0.89633 0.0
H258 H 0.72783 0.61918 0.03521 0.0
H259 H 0.72532 0.61988 0.93032 0.0
H260 H 0.66399 0.5219 0.92858 0.0
H261 H 0.66593 0.52094 0.03334 0.0
H262 H 0.74629 0.58794 0.86475 0.0
H263 H 0.62627 0.55152 0.808 0.0
H264 H 0.64194 0.56549 0.87879 0.0
H265 H 0.62992 0.5266 0.85836 0.0
C266 C 0.713 0.59789 0.01277 0.0
C267 C 0.6974 0.56993 0.04277 0.0
C268 C 0.71175 0.59833 0.95273 0.0
C269 C 0.6946 0.57094 0.9217 0.0
C270 C 0.67712 0.54337 0.95168 0.0
H271 H 0.6767 0.52015 0.5615 0.0
H272 H 0.67909 0.5192 0.66639 0.0
C273 C 0.67835 0.54287 0.0117 0.0
C274 C 0.69783 0.57063 0.85838 0.0
H275 H 0.65776 0.55098 0.73238 0.0
C276 C 0.72698 0.58008 0.83571 0.0
C277 C 0.67256 0.56005 0.82078 0.0
C278 C 0.64094 0.55059 0.84256 0.0
C279 C 0.73148 0.57887 0.77638 0.0
C280 C 0.70622 0.5683 0.73876 0.0
C281 C 0.67706 0.55883 0.76143 0.0
C282 C 0.70953 0.56815 0.67545 0.0
C283 C 0.7631 0.58836 0.75459 0.0
C284 C 0.7269 0.59584 0.64572 0.0
C285 C 0.72575 0.59648 0.5857 0.0
C286 C 0.70688 0.56947 0.55436 0.0
C287 C 0.69142 0.54141 0.58412 0.0
C288 C 0.69258 0.54082 0.64417 0.0
H289 H 0.77779 0.58743 0.78915 0.0
H290 H 0.76212 0.57346 0.71835 0.0
H291 H 0.7741 0.61235 0.7388 0.0
H292 H 0.73987 0.61725 0.66902 0.0
H293 H 0.73802 0.61849 0.56428 0.0
H294 H 0.10475 0.72 0.20575 0.0
H295 H 0.10127 0.71703 0.10121 0.0
H296 H 0.14322 0.6608 0.09933 0.0
H297 H 0.14713 0.66386 0.2043 0.0
H298 H 0.17495 0.7149 0.03604 0.0
H299 H 0.05207 0.65338 0.97796 0.0
H300 H 0.06178 0.68293 0.03082 0.0
H301 H 0.0656 0.65025 0.04815 0.0
C302 C 0.11239 0.70617 0.18341 0.0
C303 C 0.12675 0.69265 0.21338 0.0
C304 C 0.11025 0.70441 0.12351 0.0
C305 C 0.1221 0.68881 0.09256 0.0
C306 C 0.13403 0.67303 0.12256 0.0
H307 H 0.15783 0.68857 0.7277 0.0
H308 H 0.16021 0.68566 0.83213 0.0
C309 C 0.13611 0.67471 0.18259 0.0
C310 C 0.12589 0.69274 0.02945 0.0
H311 H 0.08706 0.68495 0.9048 0.0
C312 C 0.15573 0.708 0.00713 0.0
C313 C 0.1008 0.68398 0.99211 0.0
C314 C 0.06824 0.66647 0.01335 0.0
C315 C 0.16121 0.71557 0.94858 0.0
C316 C 0.13614 0.70733 0.91147 0.0
C317 C 0.10627 0.69159 0.93361 0.0
C318 C 0.14007 0.71391 0.84907 0.0
C319 C 0.19374 0.73306 0.92722 0.0
C320 C 0.1289 0.73164 0.82402 0.0
C321 C 0.12747 0.73338 0.7642 0.0
C322 C 0.13682 0.71703 0.72848 0.0
C323 C 0.15033 0.70137 0.75385 0.0
C324 C 0.15176 0.69969 0.81366 0.0
H325 H 0.21027 0.74433 0.96305 0.0
H326 H 0.19937 0.71689 0.90548 0.0
H327 H 0.19675 0.75084 0.89556 0.0
H328 H 0.11987 0.74288 0.85078 0.0
H329 H 0.11698 0.74569 0.74623 0.0
H330 H 0.47522 0.17001 0.93064 0.0
H331 H 0.47714 0.17152 0.03564 0.0
H332 H 0.37869 0.11967 0.04246 0.0
H333 H 0.37639 0.11765 0.93739 0.0
H334 H 0.45125 0.19014 0.12434 0.0
H335 H 0.40553 0.06415 0.12401 0.0
H336 H 0.41943 0.08714 0.0597 0.0
H337 H 0.38216 0.07624 0.08728 0.0
C338 C 0.45389 0.15954 0.95427 0.0
C339 C 0.42565 0.14317 0.92542 0.0
C340 C 0.45507 0.16035 0.01438 0.0
C341 C 0.4281 0.14487 0.04663 0.0
C342 C 0.3998 0.13105 0.01817 0.0
H343 H 0.38646 0.11101 0.40661 0.0
H344 H 0.38586 0.10817 0.30171 0.0
C345 C 0.39855 0.1302 0.95805 0.0
C346 C 0.42971 0.14148 0.10962 0.0
H347 H 0.41281 0.08813 0.21508 0.0
C348 C 0.44296 0.16789 0.14423 0.0
C349 C 0.41907 0.11237 0.13523 0.0
C350 C 0.40598 0.08334 0.09972 0.0
C351 C 0.44515 0.16592 0.20412 0.0
C352 C 0.43432 0.13679 0.22977 0.0
C353 C 0.42121 0.11039 0.19515 0.0
C354 C 0.43507 0.13338 0.29291 0.0
C355 C 0.45829 0.19494 0.23968 0.0
C356 C 0.46297 0.14672 0.32269 0.0
C357 C 0.46345 0.14832 0.38279 0.0
C358 C 0.43598 0.13669 0.41396 0.0
C359 C 0.40806 0.12055 0.38405 0.0
C360 C 0.40764 0.11895 0.324 0.0
H361 H 0.45968 0.21444 0.21493 0.0
H362 H 0.44428 0.19137 0.2788 0.0
H363 H 0.48174 0.20142 0.25373 0.0
H364 H 0.48439 0.15733 0.29932 0.0
H365 H 0.48538 0.16058 0.40437 0.0
H366 H 0.28394 0.38171 0.15281 0.0
H367 H 0.28484 0.38717 0.25732 0.0
H368 H 0.34534 0.48488 0.24164 0.0
H369 H 0.34503 0.4797 0.13708 0.0
H370 H 0.36587 0.45818 0.32026 0.0
H371 H 0.24423 0.42169 0.36 0.0
H372 H 0.24921 0.39445 0.31846 0.0
H373 H 0.26122 0.43187 0.28933 0.0
C374 C 0.29701 0.40446 0.17138 0.0
C375 C 0.31443 0.43025 0.1364 0.0
C376 C 0.29746 0.40754 0.23121 0.0
C377 C 0.315 0.43646 0.25716 0.0
C378 C 0.33168 0.46236 0.2224 0.0
H379 H 0.34724 0.49748 0.61381 0.0
H380 H 0.35338 0.49442 0.51002 0.0
C381 C 0.33136 0.45932 0.1626 0.0
C382 C 0.31708 0.43946 0.32064 0.0
H383 H 0.27404 0.42523 0.44181 0.0
C384 C 0.34584 0.45114 0.34694 0.0
C385 C 0.29093 0.43037 0.35519 0.0
C386 C 0.2597 0.41918 0.32935 0.0
C387 C 0.34903 0.45319 0.40711 0.0
C388 C 0.32277 0.44355 0.44159 0.0
C389 C 0.2941 0.43227 0.4152 0.0
C390 C 0.32408 0.44506 0.50524 0.0
C391 C 0.3803 0.46511 0.43319 0.0
C392 C 0.30636 0.41826 0.53716 0.0
C393 C 0.30261 0.41993 0.59626 0.0
C394 C 0.31638 0.44851 0.62456 0.0
C395 C 0.33613 0.47512 0.59328 0.0
C396 C 0.33978 0.47342 0.53393 0.0
H397 H 0.39622 0.46335 0.40255 0.0
H398 H 0.39001 0.48969 0.44451 0.0
H399 H 0.37907 0.45243 0.47306 0.0
H400 H 0.29421 0.39614 0.51581 0.0
H401 H 0.28757 0.39893 0.6191 0.0
H402 H 0.55605 0.20771 0.62811 0.0
H403 H 0.59908 0.20367 0.6634 0.0
H404 H 0.55546 0.17426 0.82894 0.0
H405 H 0.51248 0.17942 0.79457 0.0
H406 H 0.61563 0.21635 0.83797 0.0
H407 H 0.60197 0.12566 0.68597 0.0
H408 H 0.60316 0.15754 0.64946 0.0
H409 H 0.57227 0.13489 0.69824 0.0
C410 C 0.55559 0.2007 0.6723 0.0
C411 C 0.53045 0.1934 0.70824 0.0
C412 C 0.58006 0.19788 0.69207 0.0
C413 C 0.57993 0.1875 0.74805 0.0
C414 C 0.55565 0.18161 0.78509 0.0
H415 H 0.73836 0.19373 0.91587 0.0
H416 H 0.68404 0.17096 0.89062 0.0
C417 C 0.53112 0.18457 0.76539 0.0
C418 C 0.60611 0.18457 0.76828 0.0
H419 H 0.65189 0.15563 0.72986 0.0
C420 C 0.62319 0.20252 0.81526 0.0
C421 C 0.61578 0.1663 0.73875 0.0
C422 C 0.59714 0.14476 0.6907 0.0
C423 C 0.65084 0.20441 0.83098 0.0
C424 C 0.66147 0.18764 0.79917 0.0
C425 C 0.64364 0.16844 0.75407 0.0
C426 C 0.69284 0.19326 0.8077 0.0
C427 C 0.66944 0.22582 0.87927 0.0
C428 C 0.7155 0.2116 0.7678 0.0
C429 C 0.74634 0.22443 0.78205 0.0
C430 C 0.75484 0.21869 0.83597 0.0
C431 C 0.73222 0.19785 0.87351 0.0
C432 C 0.70128 0.18512 0.85938 0.0
H433 H 0.65959 0.23983 0.89508 0.0
H434 H 0.67037 0.2122 0.91586 0.0
H435 H 0.69325 0.24155 0.86485 0.0
H436 H 0.70941 0.21823 0.72784 0.0
H437 H 0.76348 0.24098 0.75311 0.0
H438 H 0.58865 0.74922 0.08774 0.0
H439 H 0.5605 0.69329 0.07596 0.0
H440 H 0.53493 0.70372 0.90405 0.0
H441 H 0.56286 0.75933 0.91605 0.0
H442 H 0.49902 0.66912 0.06269 0.0
H443 H 0.54076 0.62669 0.88589 0.0
H444 H 0.565 0.66287 0.92187 0.0
H445 H 0.5398 0.66037 0.86467 0.0
C446 C 0.57879 0.73957 0.04611 0.0
C447 C 0.57827 0.75851 0.00242 0.0
C448 C 0.56235 0.70758 0.03966 0.0
C449 C 0.54555 0.69421 0.98913 0.0
C450 C 0.54815 0.71336 0.943 0.0
H451 H 0.38433 0.56333 0.84555 0.0
H452 H 0.43438 0.60296 0.87712 0.0
C453 C 0.56432 0.74525 0.94967 0.0
C454 C 0.52024 0.66173 0.98876 0.0
H455 H 0.48558 0.59848 0.90204 0.0
C456 C 0.49641 0.6532 0.02865 0.0
C457 C 0.51683 0.64101 0.94439 0.0
C458 C 0.54215 0.64811 0.90216 0.0
C459 C 0.46824 0.62589 0.02211 0.0
C460 C 0.46402 0.6063 0.97501 0.0
C461 C 0.48874 0.6136 0.93797 0.0
C462 C 0.43317 0.58115 0.95787 0.0
C463 C 0.44247 0.61952 0.06282 0.0
C464 C 0.41536 0.55565 -0.00675 0.0
C465 C 0.38605 0.53276 0.97557 0.0
C466 C 0.3743 0.53486 0.92191 0.0
C467 C 0.39227 0.56072 0.88729 0.0
C468 C 0.42123 0.58342 0.90497 0.0
H469 H 0.44828 0.63922 0.09202 0.0
H470 H 0.42149 0.61418 0.03839 0.0
H471 H 0.43721 0.59928 0.08967 0.0
H472 H 0.42417 0.55333 0.03422 0.0
H473 H 0.37274 0.51349 0.00374 0.0
H474 H 0.82996 0.38444 0.97417 0.0
H475 H 0.8388 0.43284 0.01261 0.0
H476 H 0.8673 0.41373 0.17458 0.0
H477 H 0.85753 0.36394 0.13657 0.0
H478 H 0.82701 0.43522 0.18623 0.0
H479 H 0.91919 0.51156 0.03841 0.0
H480 H 0.88788 0.48157 -0.00088 0.0
H481 H 0.90878 0.472 0.04967 0.0
C482 C 0.83793 0.39014 0.01818 0.0
C483 C 0.84337 0.37024 0.05203 0.0
C484 C 0.84351 0.41826 0.03976 0.0
C485 C 0.85483 0.42747 0.09567 0.0
C486 C 0.8593 0.40736 0.13072 0.0
H487 H 0.83144 0.57657 0.23491 0.0
H488 H 0.8616 0.55091 0.22502 0.0
C489 C 0.85369 0.37895 0.10898 0.0
C490 C 0.85929 0.45711 0.1176 0.0
H491 H 0.88617 0.53088 0.07328 0.0
C492 C 0.84079 0.4565 0.16307 0.0
C493 C 0.87753 0.48492 0.08761 0.0
C494 C 0.89971 0.48764 0.0414 0.0
C495 C 0.83742 0.48196 0.17509 0.0
C496 C 0.85325 0.50874 0.14099 0.0
C497 C 0.87395 0.5103 0.09915 0.0
C498 C 0.84377 0.53216 0.14067 0.0
C499 C 0.8148 0.47901 0.2206 0.0
C500 C 0.82565 0.53197 0.09478 0.0
C501 C 0.8086 0.54661 0.10031 0.0
C502 C 0.80982 0.56205 0.15142 0.0
C503 C 0.83069 0.56534 0.1946 0.0
C504 C 0.84761 0.55039 0.18928 0.0
H505 H 0.80269 0.45578 0.24017 0.0
H506 H 0.82695 0.49604 0.25534 0.0
H507 H 0.79753 0.48391 0.20181 0.0
H508 H 0.82233 0.51798 0.05697 0.0
H509 H 0.79222 0.54331 0.06701 0.0
H510 H 0.45536 0.79955 0.1126 0.0
H511 H 0.40997 0.80062 0.14277 0.0
H512 H 0.45002 0.83441 0.30985 0.0
H513 H 0.49588 0.83292 0.28036 0.0
H514 H 0.37118 0.76987 0.2391 0.0
H515 H 0.42406 0.89698 0.25059 0.0
H516 H 0.44129 0.87861 0.21111 0.0
H517 H 0.44308 0.8801 0.28822 0.0
C518 C 0.45464 0.80692 0.15611 0.0
C519 C 0.47969 0.81661 0.19376 0.0
C520 C 0.42862 0.80771 0.17308 0.0
C521 C 0.4269 0.81823 0.22801 0.0
C522 C 0.45125 0.82692 0.26669 0.0
H523 H 0.27254 0.81483 0.39441 0.0
H524 H 0.32537 0.83127 0.36733 0.0
C525 C 0.4774 0.82598 0.24979 0.0
C526 C 0.39899 0.81903 0.2445 0.0
H527 H 0.37137 0.8673 0.27275 0.0
C528 C 0.37123 0.79116 0.24662 0.0
C529 C 0.39919 0.84688 0.25415 0.0
C530 C 0.4284 0.87745 0.25065 0.0
C531 C 0.34362 0.7903 0.25806 0.0
C532 C 0.34362 0.81814 0.26652 0.0
C533 C 0.37144 0.84607 0.26555 0.0
C534 C 0.31467 0.81789 0.27808 0.0
C535 C 0.31459 0.75949 0.26148 0.0
C536 C 0.29164 0.80706 0.23592 0.0
C537 C 0.2615 0.7979 0.25128 0.0
C538 C 0.25415 0.79977 0.30882 0.0
C539 C 0.27782 0.81394 0.34948 0.0
C540 C 0.30796 0.82304 0.33416 0.0
H541 H 0.31934 0.74033 0.2658 0.0
H542 H 0.30038 0.75877 0.29855 0.0
H543 H 0.30104 0.75563 0.2216 0.0
H544 H 0.29642 0.80301 0.19234 0.0
H545 H 0.24354 0.7863 0.21956 0.0
H546 H 0.453 0.28191 0.57727 0.0
H547 H 0.48474 0.33123 0.53042 0.0
H548 H 0.46381 0.28597 0.3651 0.0
H549 H 0.43223 0.23643 0.41242 0.0
H550 H 0.52386 0.3124 0.3939 0.0
H551 H 0.48677 0.39743 0.4286 0.0
H552 H 0.48607 0.37787 0.49349 0.0
H553 H 0.46089 0.35656 0.43501 0.0
C554 C 0.45346 0.28278 0.53064 0.0
C555 C 0.43986 0.25547 0.49835 0.0
C556 C 0.47183 0.31105 0.50379 0.0
C557 C 0.4768 0.31241 0.44415 0.0
C558 C 0.46021 0.28552 0.41114 0.0
H559 H 0.63229 0.44682 0.24373 0.0
H560 H 0.58409 0.40311 0.27502 0.0
C561 C 0.44178 0.25722 0.4381 0.0
C562 C 0.50389 0.33966 0.41915 0.0
H563 H 0.54029 0.41785 0.40832 0.0
C564 C 0.52717 0.33539 0.39609 0.0
C565 C 0.50854 0.36973 0.42311 0.0
C566 C 0.48411 0.37569 0.44593 0.0
C567 C 0.55519 0.3603 0.37844 0.0
C568 C 0.55999 0.39041 0.38285 0.0
C569 C 0.53662 0.39476 0.40517 0.0
C570 C 0.58912 0.41751 0.36407 0.0
C571 C 0.57986 0.35422 0.35719 0.0
C572 C 0.60787 0.44048 0.40361 0.0
C573 C 0.63564 0.46568 0.38583 0.0
C574 C 0.64507 0.46841 0.32809 0.0
C575 C 0.62613 0.44528 0.28875 0.0
C576 C 0.59842 0.42025 0.30649 0.0
H577 H 0.57559 0.33124 0.37061 0.0
H578 H 0.58043 0.35496 0.30946 0.0
H579 H 0.60268 0.3719 0.37344 0.0
H580 H 0.60111 0.43878 0.44831 0.0
H581 H 0.64967 0.48302 0.41724 0.0
H582 H 0.16111 0.66391 0.60578 0.0
H583 H 0.16056 0.62161 0.65839 0.0
H584 H 0.18313 0.59095 0.50225 0.0
H585 H 0.18308 0.63262 0.44911 0.0
H586 H 0.13517 0.5427 0.57107 0.0
H587 H 0.24011 0.62065 0.6961 0.0
H588 H 0.20943 0.62884 0.69905 0.0
H589 H 0.22908 0.6331 0.63236 0.0
C590 C 0.16573 0.64805 0.58256 0.0
C591 C 0.17222 0.65172 0.52329 0.0
C592 C 0.16551 0.62397 0.61272 0.0
C593 C 0.17193 0.6033 0.58414 0.0
C594 C 0.17805 0.60667 0.52497 0.0
H595 H 0.21387 0.46256 0.64393 0.0
H596 H 0.19022 0.49121 0.60703 0.0
C597 C 0.1783 0.63069 0.49483 0.0
C598 C 0.17374 0.57893 0.61602 0.0
H599 H 0.21811 0.56791 0.71204 0.0
C600 C 0.15308 0.54809 0.6024 0.0
C601 C 0.19709 0.58614 0.65683 0.0
C602 C 0.22038 0.61894 0.67188 0.0
C603 C 0.15544 0.52416 0.6281 0.0
C604 C 0.17948 0.53143 0.66744 0.0
C605 C 0.19954 0.56229 0.68217 0.0
C606 C 0.18624 0.50809 0.69065 0.0
C607 C 0.13225 0.49144 0.61277 0.0
C608 C 0.19124 0.50742 0.74995 0.0
C609 C 0.20527 0.49158 0.77069 0.0
C610 C 0.21395 0.47572 0.73261 0.0
C611 C 0.20666 0.47413 0.67405 0.0
C612 C 0.19308 0.49044 0.65307 0.0
H613 H 0.11013 0.4893 0.59973 0.0
H614 H 0.14085 0.48402 0.57572 0.0
H615 H 0.12812 0.47567 0.64932 0.0
H616 H 0.18627 0.52093 0.77969 0.0
H617 H 0.21113 0.49336 0.81595 0.0
H618 H 0.78582 0.20396 0.08246 0.0
H619 H 0.75825 0.14881 0.10398 0.0
H620 H 0.84145 0.14631 0.08048 0.0
H621 H 0.86895 0.20136 0.05931 0.0
H622 H 0.7911 0.1064 0.00531 0.0
H623 H 0.75724 0.0918 0.23579 0.0
H624 H 0.7505 0.11836 0.1958 0.0
H625 H 0.789 0.12687 0.20817 0.0
C626 C 0.79854 0.19199 0.08543 0.0
C627 C 0.82969 0.20708 0.07093 0.0
C628 C 0.7827 0.16038 0.09691 0.0
C629 C 0.79778 0.14339 0.09366 0.0
C630 C 0.82938 0.15894 0.08339 0.0
H631 H 0.71099 0.94993 0.17313 0.0
H632 H 0.75105 1.00254 0.15248 0.0
C633 C 0.84519 0.19049 0.07227 0.0
C634 C 0.7801 0.10922 0.0939 0.0
H635 H 0.73412 0.04715 0.17717 0.0
C636 C 0.77881 0.0934 0.04301 0.0
C637 C 0.76414 0.09231 0.14302 0.0
C638 C 0.76535 0.10807 0.19904 0.0
C639 C 0.76149 0.06113 0.03971 0.0
C640 C 0.74502 0.04425 0.08852 0.0
C641 C 0.7468 0.06009 0.13969 0.0
C642 C 0.72497 0.01023 0.08774 0.0
C643 C 0.76097 0.04532 0.98419 0.0
C644 C 0.69789 0.99624 0.05505 0.0
C645 C 0.67505 0.96583 0.0662 0.0
C646 C 0.6789 0.94924 0.11075 0.0
C647 C 0.70755 0.96203 0.13808 0.0
C648 C 0.7303 0.99231 0.12695 0.0
H649 H 0.78013 0.06066 0.95536 0.0
H650 H 0.76224 0.02432 -0.00726 0.0
H651 H 0.73918 0.0383 0.96127 0.0
H652 H 0.69313 0.00966 0.02488 0.0
H653 H 0.65303 0.95687 0.04531 0.0
H654 H 0.60266 0.79526 0.25987 0.0
H655 H 0.62832 0.76597 0.27989 0.0
H656 H 0.71549 0.84606 0.24301 0.0
H657 H 0.68985 0.87516 0.2227 0.0
H658 H 0.70043 0.79561 0.17022 0.0
H659 H 0.68605 0.76128 0.40005 0.0
H660 H 0.65168 0.75482 0.36482 0.0
H661 H 0.68278 0.79339 0.37475 0.0
C662 C 0.62742 0.80709 0.25974 0.0
C663 C 0.64433 0.83759 0.24069 0.0
C664 C 0.64209 0.79023 0.27042 0.0
C665 C 0.67385 0.80377 0.26253 0.0
C666 C 0.691 0.83512 0.24929 0.0
H667 H 0.76571 0.70052 0.32129 0.0
H668 H 0.75942 0.74501 0.3066 0.0
C669 C 0.67638 0.85189 0.23863 0.0
C670 C 0.68842 0.78449 0.2595 0.0
H671 H 0.70155 0.73461 0.33617 0.0
C672 C 0.70099 0.78252 0.20671 0.0
C673 C 0.68922 0.76749 0.307 0.0
C674 C 0.67696 0.76946 0.36506 0.0
C675 C 0.71361 0.7634 0.19983 0.0
C676 C 0.71354 0.74567 0.24686 0.0
C677 C 0.70167 0.74825 0.30003 0.0
C678 C 0.72417 0.72307 0.24187 0.0
C679 C 0.72686 0.76229 0.14233 0.0
C680 C 0.70825 0.69682 0.20697 0.0
C681 C 0.7123 0.67148 0.21459 0.0
C682 C 0.7319 0.67195 0.2579 0.0
C683 C 0.75073 0.69969 0.28713 0.0
C684 C 0.74676 0.72497 0.27946 0.0
H685 H 0.73274 0.78293 0.11607 0.0
H686 H 0.74767 0.76044 0.14785 0.0
H687 H 0.70972 0.74179 0.11811 0.0
H688 H 0.69051 0.69467 0.17802 0.0
H689 H 0.69704 0.65026 0.19231 0.0
H690 H 0.04425 0.71864 0.54009 0.0
H691 H 0.98937 0.69256 0.53407 0.0
H692 H 0.99419 0.68509 0.34978 0.0
H693 H 0.05012 0.70926 0.35615 0.0
H694 H 0.95694 0.71146 0.49012 0.0
H695 H 0.92487 0.60156 0.38112 0.0
H696 H 0.96301 0.62677 0.40785 0.0
H697 H 0.95128 0.63395 0.33919 0.0
C698 C 0.03398 0.71068 0.49815 0.0
C699 C 0.05199 0.71563 0.44859 0.0
C700 C 1.00224 0.69592 0.49481 0.0
C701 C 0.98724 0.68646 0.44164 0.0
C702 C 1.00497 0.69131 0.3917 0.0
H703 H 0.81591 0.67122 0.36252 0.0
H704 H 0.86752 0.688 0.39547 0.0
C705 C 0.03703 0.70539 0.39525 0.0
C706 C 0.95347 0.67392 0.43927 0.0
H707 H 0.88606 0.6154 0.38671 0.0
C708 C 0.94151 0.69021 0.46799 0.0
C709 C 0.93294 0.6459 0.41154 0.0
C710 C 0.94363 0.62586 0.38375 0.0
C711 C 0.91005 0.67978 0.46877 0.0
C712 C 0.88977 0.65292 0.43779 0.0
C713 C 0.9015 0.63609 0.41033 0.0
C714 C 0.85705 0.6436 0.42849 0.0
C715 C 0.89896 0.69768 0.50337 0.0
C716 C 0.83341 0.61311 0.43716 0.0
C717 C 0.80355 0.60342 0.41804 0.0
C718 C 0.79708 0.62406 0.38961 0.0
C719 C 0.82015 0.655 0.38536 0.0
C720 C 0.8498 0.66461 0.40411 0.0
H721 H 0.91401 0.70892 0.54115 0.0
H722 H 0.89971 0.71609 0.47613 0.0
H723 H 0.8752 0.68278 0.51891 0.0
H724 H 0.83841 0.59643 0.45573 0.0
H725 H 0.7864 0.57929 0.42052 0.0
H726 H 0.14041 0.81738 0.52909 0.0
H727 H 0.16904 0.8719 0.55521 0.0
H728 H 0.25011 0.86567 0.58065 0.0
H729 H 0.22129 0.81092 0.55497 0.0
H730 H 0.24384 0.90616 0.65974 0.0
H731 H 0.2297 0.92976 0.43183 0.0
H732 H 0.19464 0.90546 0.46944 0.0
H733 H 0.22118 0.89232 0.4564 0.0
C734 C 0.16395 0.82732 0.54311 0.0
C735 C 0.17851 0.80984 0.54126 0.0
C736 C 0.18043 0.8586 0.55695 0.0
C737 C 0.2119 0.87305 0.56844 0.0
C738 C 0.22588 0.85503 0.57161 0.0
H739 H 0.35939 0.06099 0.54916 0.0
H740 H 0.32007 0.00864 0.52268 0.0
C741 C 0.20932 0.82365 0.55783 0.0
C742 C 0.23063 0.90714 0.5722 0.0
H743 H 0.25488 0.97285 0.49371 0.0
C744 C 0.24613 0.92074 0.62358 0.0
C745 C 0.2341 0.92615 0.52452 0.0
C746 C 0.21928 0.91278 0.46719 0.0
C747 C 0.26463 0.9528 0.62888 0.0
C748 C 0.26742 0.97187 0.58173 0.0
C749 C 0.25231 0.95827 0.53004 0.0
C750 C 0.28714 1.00587 0.58533 0.0
C751 C 0.28164 0.96598 0.68461 0.0
C752 C 0.28061 0.0226 0.62553 0.0
C753 C 0.30293 0.05258 0.64027 0.0
C754 C 0.33211 0.06635 0.61493 0.0
C755 C 0.33701 0.0512 0.56884 0.0
C756 C 0.31468 0.02103 0.55431 0.0
H757 H 0.28235 0.94821 0.71166 0.0
H758 H 0.30545 0.98458 0.6762 0.0
H759 H 0.26998 0.97594 0.70953 0.0
H760 H 0.25927 0.01156 0.64914 0.0
H761 H 0.29861 0.06362 0.67623 0.0
H762 H 0.41717 0.21612 0.78463 0.0
H763 H 0.39974 0.2504 0.82161 0.0
H764 H 0.30852 0.18734 0.76098 0.0
H765 H 0.32616 0.1538 0.72245 0.0
H766 H 0.33112 0.24348 0.71465 0.0
H767 H 0.34823 0.25481 0.9514 0.0
H768 H 0.3813 0.26152 0.91107 0.0
H769 H 0.34778 0.22396 0.91085 0.0
C770 C 0.39313 0.20897 0.78175 0.0
C771 C 0.37292 0.18229 0.7511 0.0
C772 C 0.38318 0.22864 0.80264 0.0
C773 C 0.3528 0.22152 0.79393 0.0
C774 C 0.33207 0.1934 0.76801 0.0
H775 H 0.25468 0.31086 0.90323 0.0
H776 H 0.27711 0.27834 0.88871 0.0
C777 C 0.34207 0.17409 0.7465 0.0
C778 C 0.34342 0.24481 0.80383 0.0
H779 H 0.3358 0.28937 0.90606 0.0
C780 C 0.3321 0.25345 0.75659 0.0
C781 C 0.34483 0.25794 0.85842 0.0
C782 C 0.35594 0.24895 0.91101 0.0
C783 C 0.32161 0.27433 0.76252 0.0
C784 C 0.32314 0.28761 0.81701 0.0
C785 C 0.33485 0.27934 0.86421 0.0
C786 C 0.31064 0.30838 0.82661 0.0
C787 C 0.308 0.28111 0.71072 0.0
C788 C 0.3221 0.33623 0.79665 0.0
C789 C 0.30906 0.35481 0.80439 0.0
C790 C 0.28459 0.34603 0.84295 0.0
C791 C 0.2735 0.3183 0.87325 0.0
C792 C 0.28639 0.29974 0.86524 0.0
H793 H 0.30202 0.26377 0.67604 0.0
H794 H 0.2871 0.28179 0.72268 0.0
H795 H 0.32489 0.30388 0.69305 0.0
H796 H 0.34116 0.34362 0.76733 0.0
H797 H 0.31844 0.37619 0.78087 0.0
H798 H 0.95884 0.33013 0.91401 0.0
H799 H 0.01509 0.35717 0.91569 0.0
H800 H 0.01221 0.29153 0.03783 0.0
H801 H 0.95659 0.26446 0.03624 0.0
H802 H 0.0543 0.35582 0.06654 0.0
H803 H 0.06768 0.32225 0.84436 0.0
H804 H 0.04465 0.33995 0.85311 0.0
H805 H 0.03182 0.30255 0.88257 0.0
C806 C 0.97022 0.32135 0.94079 0.0
C807 C 0.9532 0.29513 0.97506 0.0
C808 C 1.00232 0.33688 0.94193 0.0
C809 C 0.01775 0.32636 0.9771 0.0
C810 C 1.00077 0.30018 0.01082 0.0
H811 H 0.19474 0.3471 0.95404 0.0
H812 H 0.14152 0.32935 0.9795 0.0
C813 C 0.96895 0.28467 0.00959 0.0
C814 C 0.05157 0.34164 0.97813 0.0
H815 H 0.11229 0.35038 0.89927 0.0
C816 C 0.06712 0.35497 0.02985 0.0
C817 C 0.06806 0.34012 0.9304 0.0
C818 C 0.05235 0.32532 0.87444 0.0
C819 C 0.09876 0.36646 0.03521 0.0
C820 C 0.11508 0.36445 0.98772 0.0
C821 C 0.09961 0.35167 0.93577 0.0
C822 C 0.1482 0.37498 0.99027 0.0
C823 C 0.11439 0.37979 0.09189 0.0
C824 C 0.16996 0.40645 0.9916 0.0
C825 C 0.20056 0.41658 0.97796 0.0
C826 C 0.20962 0.39535 0.96267 0.0
C827 C 0.18847 0.36385 0.96724 0.0
C828 C 0.15798 0.35373 0.98096 0.0
H829 H 0.09775 0.37538 0.12696 0.0
H830 H 0.12896 0.37005 0.10432 0.0
H831 H 0.12947 0.40499 0.0874 0.0
H832 H 0.16283 0.42323 -0.00214 0.0
H833 H 0.21624 0.44097 0.97287 0.0
H834 H 0.01873 0.38619 0.16023 0.0
H835 H 0.04429 0.43679 0.20746 0.0
H836 H 0.98186 0.45925 0.12464 0.0
H837 H 0.95648 0.40921 0.07766 0.0
H838 H 0.07022 0.50148 0.15785 0.0
H839 H 0.9705 0.46279 0.30446 0.0
H840 H 0.9777 0.43617 0.26496 0.0
H841 H 0.96209 0.45664 0.22875 0.0
C842 C 0.01068 0.40205 0.15168 0.0
C843 C 0.98516 0.39346 0.11602 0.0
C844 C 0.02535 0.43094 0.17848 0.0
C845 C 0.01469 0.45153 0.16989 0.0
C846 C 0.99021 0.44354 0.13222 0.0
H847 H 0.08993 0.63929 0.30816 0.0
H848 H 0.07101 0.59582 0.24058 0.0
C849 C 0.97563 0.41483 0.10557 0.0
C850 C 0.02743 0.48038 0.20345 0.0
H851 H 0.00976 0.51438 0.31222 0.0
C852 C 0.05708 0.50445 0.19155 0.0
C853 C 0.01011 0.484 0.24728 0.0
C854 C 0.9784 0.45852 0.26265 0.0
C855 C 0.06998 0.53213 0.22288 0.0
C856 C 0.05263 0.53568 0.26681 0.0
C857 C 0.02289 0.51165 0.27816 0.0
C858 C 0.06568 0.56275 0.30554 0.0
C859 C 0.10229 0.55703 0.21007 0.0
C860 C 0.06873 0.55849 0.36416 0.0
C861 C 0.07934 0.58301 0.4025 0.0
C862 C 0.08711 0.61253 0.38327 0.0
C863 C 0.08435 0.61693 0.32427 0.0
C864 C 0.07363 0.59216 0.28564 0.0
H865 H 0.11417 0.54892 0.18087 0.0
H866 H 0.10189 0.57661 0.18919 0.0
H867 H 0.11566 0.56564 0.25055 0.0
H868 H 0.06273 0.536 0.38038 0.0
H869 H 0.08139 0.57868 0.44746 0.0
H870 H 0.45249 0.09149 0.51851 0.0
H871 H 0.47634 0.0716 0.45235 0.0
H872 H 0.55965 0.11689 0.55194 0.0
H873 H 0.53551 0.13545 0.61931 0.0
H874 H 0.5272 0.09382 0.38409 0.0
H875 H 0.53628 0.02828 0.56745 0.0
H876 H 0.51542 0.04847 0.57245 0.0
H877 H 0.55643 0.06899 0.57905 0.0
C878 C 0.47599 0.09743 0.52568 0.0
C879 C 0.49194 0.11418 0.57467 0.0
C880 C 0.48961 0.08617 0.48792 0.0
C881 C 0.51942 0.09198 0.49843 0.0
C882 C 0.53629 0.11126 0.54423 0.0
H883 H 0.61677 1.00561 0.35131 0.0
H884 H 0.60686 0.04423 0.39447 0.0
C885 C 0.52251 0.1219 0.58254 0.0
C886 C 0.53182 0.07568 0.46495 0.0
H887 H 0.55708 0.02471 0.47913 0.0
C888 C 0.53388 0.07882 0.40482 0.0
C889 C 0.5403 0.05594 0.49219 0.0
C890 C 0.53674 0.04993 0.55622 0.0
C891 C 0.54412 0.06258 0.37119 0.0
C892 C 0.55244 0.04286 0.39856 0.0
C893 C 0.55102 0.04024 0.45859 0.0
C894 C 0.55983 0.02232 0.36589 0.0
C895 C 0.54573 0.06632 0.30669 0.0
C896 C 0.53661 0.99738 0.33572 0.0
C897 C 0.54202 0.97515 0.31185 0.0
C898 C 0.57081 0.97754 0.31759 0.0
C899 C 0.59439 1.00317 0.34613 0.0
C900 C 0.58882 0.02526 0.37061 0.0
H901 H 0.54533 0.08728 0.29343 0.0
H902 H 0.56677 0.06747 0.28954 0.0
H903 H 0.52576 0.04612 0.28689 0.0
H904 H 0.51395 0.99448 0.33259 0.0
H905 H 0.52343 0.95579 0.28978 0.0
H906 H 0.61043 0.61421 0.49686 0.0
H907 H 0.56481 0.60555 0.54973 0.0
H908 H 0.51555 0.51234 0.48702 0.0
H909 H 0.56064 0.52065 0.43405 0.0
H910 H 0.48004 0.54561 0.49801 0.0
H911 H 0.54537 0.54595 0.6916 0.0
H912 H 0.56333 0.57887 0.64517 0.0
H913 H 0.55661 0.54235 0.61962 0.0
C914 C 0.58967 0.5921 0.4933 0.0
C915 C 0.5893 0.56791 0.46234 0.0
C916 C 0.56367 0.58725 0.52334 0.0
C917 C 0.53705 0.55826 0.52241 0.0
C918 C 0.53592 0.53487 0.48805 0.0
H919 H 0.3704 0.44973 0.71182 0.0
H920 H 0.40817 0.47378 0.6346 0.0
C921 C 0.56183 0.53961 0.45833 0.0
C922 C 0.51218 0.55054 0.5638 0.0
H923 H 0.4947 0.53308 0.70515 0.0
C924 C 0.48317 0.54328 0.54352 0.0
C925 C 0.51648 0.54722 0.62281 0.0
C926 C 0.54702 0.55378 0.64639 0.0
C927 C 0.45815 0.53271 0.58119 0.0
C928 C 0.46234 0.52865 0.64006 0.0
C929 C 0.49154 0.53639 0.66009 0.0
C930 C 0.43703 0.5157 0.68228 0.0
C931 C 0.42765 0.52613 0.55767 0.0
C932 C 0.44077 0.53108 0.73471 0.0
C933 C 0.42001 0.51693 0.77923 0.0
C934 C 0.39474 0.48733 0.77185 0.0
C935 C 0.38986 0.47253 0.71841 0.0
C936 C 0.41119 0.48644 0.6741 0.0
H937 H 0.43037 0.53917 0.51749 0.0
H938 H 0.41367 0.50133 0.54725 0.0
H939 H 0.41496 0.5319 0.58958 0.0
H940 H 0.46045 0.55368 0.74194 0.0
H941 H 0.42389 0.52908 0.81973 0.0
H942 H 0.01578 0.58029 0.56784 0.0
H943 H 0.98083 0.53404 0.62052 0.0
H944 H 0.96947 0.58925 0.7495 0.0
H945 H 1.00493 0.636 0.69646 0.0
H946 H 0.99378 0.55511 0.79097 0.0
H947 H 0.89126 0.47973 0.66081 0.0
H948 H 0.92605 0.49386 0.62067 0.0
H949 H 0.91487 0.52038 0.64709 0.0
C950 C 1.00482 0.58248 0.60622 0.0
C951 C 0.01304 0.61161 0.62834 0.0
C952 C 0.98467 0.55598 0.63613 0.0
C953 C 0.97236 0.55811 0.6888 0.0
C954 C 0.97854 0.58712 0.70862 0.0
H955 H 0.90533 0.43098 0.97299 0.0
H956 H 0.91734 0.47236 0.90589 0.0
C957 C 0.99863 0.61377 0.67826 0.0
C958 C 0.95853 0.53112 0.72754 0.0
H959 H 0.90453 0.4549 0.73476 0.0
C960 C 0.97391 0.53336 0.77915 0.0
C961 C 0.93306 0.50257 0.7114 0.0
C962 C 0.91519 0.49902 0.65718 0.0
C963 C 0.96511 0.50773 0.8143 0.0
C964 C 0.93975 0.47912 0.79812 0.0
C965 C 0.92406 0.47683 0.74685 0.0
C966 C 0.92885 0.45184 0.83554 0.0
C967 C 0.98372 0.51135 0.86765 0.0
C968 C 0.92988 0.42573 0.8173 0.0
C969 C 0.92271 0.4016 0.8558 0.0
C970 C 0.91468 0.40355 0.91292 0.0
C971 C 0.91227 0.42911 0.92975 0.0
C972 C 0.91902 0.4528 0.89141 0.0
H973 H 0.00689 0.53204 0.86534 0.0
H974 H 0.97195 0.51394 0.90574 0.0
H975 H 0.98622 0.49092 0.8744 0.0
H976 H 0.93718 0.42449 0.77403 0.0
H977 H 0.92443 0.38205 0.84155 0.0
H978 H 0.47325 0.87406 0.11136 0.0
H979 H 0.44739 0.89019 0.04351 0.0
H980 H 0.52967 0.93602 0.94138 0.0
H981 H 0.5552 0.91848 0.00799 0.0
H982 H 0.46449 0.94758 0.03224 0.0
H983 H 0.46722 0.90293 0.81609 0.0
H984 H 0.47501 0.88821 0.88073 0.0
H985 H 0.50458 0.92281 0.8478 0.0
C986 C 0.48558 0.88697 0.07365 0.0
C987 C 0.51633 0.89551 0.06517 0.0
C988 C 0.47075 0.89606 0.03481 0.0
C989 C 0.48651 0.91428 0.98726 0.0
C990 C 0.51678 0.92142 0.97701 0.0
H991 H 0.48442 0.05603 0.80175 0.0
H992 H 0.49269 0.01605 0.8412 0.0
C993 C 0.53148 0.91169 0.01535 0.0
C994 C 0.47292 0.92963 0.95436 0.0
H995 H 0.46077 0.94749 0.81895 0.0
C996 C 0.46303 0.94694 0.98563 0.0
C997 C 0.47117 0.92894 0.89355 0.0
C998 C 0.47978 0.90945 0.85769 0.0
C999 C 0.45272 0.96462 0.95783 0.0
C1000 C 0.45219 0.96495 0.89712 0.0
C1001 C 0.46117 0.94701 0.86561 0.0
C1002 C 0.44559 0.9865 0.86634 0.0
C1003 C 0.44393 0.98409 -0.0065 0.0
C1004 C 0.41617 0.98271 0.86663 0.0
C1005 C 0.41129 1.00563 0.84421 0.0
C1006 C 0.43587 0.03269 0.82162 0.0
C1007 C 0.46505 0.03569 0.81951 0.0
C1008 C 0.46981 0.01276 0.84152 0.0
H1009 H 0.44905 0.98392 0.03995 0.0
H1010 H 0.45622 0.00821 0.9781 0.0
H1011 H 0.41905 0.97527 0.98881 0.0
H1012 H 0.39723 0.96248 0.88568 0.0
H1013 H 0.38854 1.00257 0.84616 0.0
H1014 H 0.40488 0.4545 0.95976 0.0
H1015 H 0.45676 0.47148 0.99005 0.0
H1016 H 0.43696 0.37757 0.99149 0.0
H1017 H 0.38394 0.36019 0.96371 0.0
H1018 H 0.46289 0.403 0.08557 0.0
H1019 H 0.53266 0.4846 0.91745 0.0
H1020 H 0.50591 0.49533 0.94253 0.0
H1021 H 0.4922 0.45856 0.90782 0.0
C1022 C 0.41149 0.43739 0.96586 0.0
C1023 C 0.39015 0.40596 0.96007 0.0
C1024 C 0.44149 0.44723 0.98234 0.0
C1025 C 0.45116 0.42594 0.99184 0.0
C1026 C 0.43014 0.39449 0.98401 0.0
H1027 H 0.63829 0.51315 0.13769 0.0
H1028 H 0.59687 0.48518 0.06767 0.0
C1029 C 0.39985 0.38457 0.96837 0.0
C1030 C 0.48177 0.4365 0.01747 0.0
H1031 H 0.55522 0.4966 0.01524 0.0
C1032 C 0.48323 0.42295 0.06918 0.0
C1033 C 0.50872 0.46206 -0.00425 0.0
C1034 C 0.50978 0.47564 0.93743 0.0
C1035 C 0.51 0.43595 0.10225 0.0
C1036 C 0.53563 0.46383 0.08418 0.0
C1037 C 0.53523 0.47573 0.02991 0.0
C1038 C 0.56139 0.48236 0.12383 0.0
C1039 C 0.51016 0.4202 0.15733 0.0
C1040 C 0.55535 0.49116 0.1773 0.0
C1041 C 0.57877 0.50689 0.21698 0.0
C1042 C 0.60891 0.51479 0.2036 0.0
C1043 C 0.61535 0.50757 0.14882 0.0
C1044 C 0.59169 0.49141 0.10907 0.0
H1045 H 0.49459 0.39497 0.15409 0.0
H1046 H 0.53347 0.4248 0.16813 0.0
H1047 H 0.50184 0.42868 0.19316 0.0
H1048 H 0.53232 0.48539 0.1888 0.0
H1049 H 0.5732 0.51253 0.2586 0.0
loop_
_geom_bond_atom_site_label_1
_geom_bond_atom_site_label_2
_geom_bond_distance
_geom_bond_site_symmetry_2
_ccdc_geom_bond_type
C0 O12 1.241 . S
C0 O13 1.280 . S
C1 O14 1.277 . S
C1 O15 1.245 . S
C2 O26 1.247 1_556 S
C2 O28 1.289 . S
Mg3 O4 1.926 . S
Mg3 O13 1.984 . S
Mg3 O15 1.988 . S
Mg3 O16 2.061 . S
O4 Mg3 1.926 . S
O4 Mg5 1.986 . S
O4 Mg6 1.912 1_556 S
Mg5 O4 1.986 . S
Mg5 O12 2.042 . S
Mg5 O14 2.041 . S
Mg5 O20 2.038 . S
Mg5 O28 2.238 . S
Mg6 O4 1.912 1_554 S
Mg6 O7 1.922 . S
Mg6 O17 2.110 . S
Mg6 O19 2.083 . S
Mg6 O28 2.103 1_554 S
Mg6 O29 2.075 1_554 S
O7 Mg6 1.922 . S
O7 Mg8 1.926 . S
O7 Mg9 1.986 . S
Mg8 O7 1.926 . S
Mg8 O22 1.984 . S
Mg8 O25 1.988 . S
Mg8 O26 2.061 . S
Mg9 O7 1.986 . S
Mg9 O17 2.238 . S
Mg9 O21 2.042 . S
Mg9 O23 2.041 . S
Mg9 O30 2.038 . S
C10 O16 1.247 1_554 S
C10 O17 1.289 . S
C11 O29 1.245 . S
C11 O30 1.274 1_556 S
O12 C0 1.241 . S
O12 Mg5 2.042 . S
O13 C0 1.280 . S
O13 Mg3 1.984 . S
O14 C1 1.277 . S
O14 Mg5 2.041 . S
O15 C1 1.245 . S
O15 Mg3 1.988 . S
O16 Mg3 2.061 . S
O16 C10 1.247 1_556 S
O17 Mg6 2.110 . S
O17 Mg9 2.238 . S
O17 C10 1.289 . S
C18 O19 1.245 . S
C18 O20 1.274 1_554 S
O19 Mg6 2.083 . S
O19 C18 1.245 . S
O20 Mg5 2.038 . S
O20 C18 1.274 1_556 S
O21 Mg9 2.042 . S
O21 C24 1.241 . S
O22 Mg8 1.984 . S
O22 C24 1.280 . S
O23 Mg9 2.041 . S
O23 C27 1.277 . S
C24 O21 1.241 . S
C24 O22 1.280 . S
O25 Mg8 1.988 . S
O25 C27 1.245 . S
O26 C2 1.247 1_554 S
O26 Mg8 2.061 . S
C27 O23 1.277 . S
C27 O25 1.245 . S
O28 C2 1.289 . S
O28 Mg5 2.238 . S
O28 Mg6 2.103 1_556 S
O29 Mg6 2.075 1_556 S
O29 C11 1.245 . S
O30 Mg9 2.038 . S
O30 C11 1.274 1_554 S
C31 O43 1.241 . S
C31 O44 1.280 . S
C32 O45 1.277 1_556 S
C32 O46 1.245 . S
C33 O57 1.247 . S
C33 O59 1.289 . S
Mg34 O35 1.926 . S
Mg34 O44 1.984 . S
Mg34 O46 1.988 1_554 S
Mg34 O47 2.061 . S
O35 Mg34 1.926 . S
O35 Mg36 1.986 . S
O35 Mg37 1.917 . S
Mg36 O35 1.986 . S
Mg36 O43 2.042 . S
Mg36 O45 2.041 . S
Mg36 O51 2.038 . S
Mg36 O59 2.238 . S
Mg37 O35 1.917 . S
Mg37 O38 1.917 . S
Mg37 O48 2.106 . S
Mg37 O50 2.079 . S
Mg37 O59 2.106 . S
Mg37 O60 2.079 . S
O38 Mg37 1.917 . S
O38 Mg39 1.926 . S
O38 Mg40 1.986 . S
Mg39 O38 1.926 . S
Mg39 O53 1.984 . S
Mg39 O56 1.988 . S
Mg39 O57 2.061 . S
Mg40 O38 1.986 . S
Mg40 O48 2.238 . S
Mg40 O52 2.042 . S
Mg40 O54 2.041 . S
Mg40 O61 2.038 . S
C41 O47 1.247 . S
C41 O48 1.289 . S
C42 O60 1.245 . S
C42 O61 1.274 . S
O43 C31 1.241 . S
O43 Mg36 2.042 . S
O44 C31 1.280 . S
O44 Mg34 1.984 . S
O45 C32 1.277 1_554 S
O45 Mg36 2.041 . S
O46 C32 1.245 . S
O46 Mg34 1.988 1_556 S
O47 Mg34 2.061 . S
O47 C41 1.247 . S
O48 Mg37 2.106 . S
O48 Mg40 2.238 . S
O48 C41 1.289 . S
C49 O50 1.245 . S
C49 O51 1.274 . S
O50 Mg37 2.079 . S
O50 C49 1.245 . S
O51 Mg36 2.038 . S
O51 C49 1.274 . S
O52 Mg40 2.042 . S
O52 C55 1.241 . S
O53 Mg39 1.984 . S
O53 C55 1.280 . S
O54 Mg40 2.041 . S
O54 C58 1.277 . S
C55 O52 1.241 . S
C55 O53 1.280 . S
O56 Mg39 1.988 . S
O56 C58 1.245 . S
O57 C33 1.247 . S
O57 Mg39 2.061 . S
C58 O54 1.277 . S
C58 O56 1.245 . S
O59 C33 1.289 . S
O59 Mg36 2.238 . S
O59 Mg37 2.106 . S
O60 Mg37 2.079 . S
O60 C42 1.245 . S
O61 Mg40 2.038 . S
O61 C42 1.274 . S
C62 O74 1.241 . S
C62 O75 1.280 . S
C63 O76 1.277 . S
C63 O77 1.245 . S
C64 O88 1.247 . S
C64 O90 1.289 . S
Mg65 O66 1.926 . S
Mg65 O75 1.984 . S
Mg65 O77 1.988 . S
Mg65 O78 2.061 . S
O66 Mg65 1.926 . S
O66 Mg67 1.986 . S
O66 Mg68 1.917 . S
Mg67 O66 1.986 . S
Mg67 O74 2.042 . S
Mg67 O76 2.041 . S
Mg67 O82 2.038 . S
Mg67 O90 2.238 . S
Mg68 O66 1.917 . S
Mg68 O69 1.917 . S
Mg68 O79 2.106 . S
Mg68 O81 2.079 . S
Mg68 O90 2.106 . S
Mg68 O91 2.079 . S
O69 Mg68 1.917 . S
O69 Mg70 1.926 . S
O69 Mg71 1.986 . S
Mg70 O69 1.926 . S
Mg70 O84 1.984 . S
Mg70 O87 1.988 . S
Mg70 O88 2.061 . S
Mg71 O69 1.986 . S
Mg71 O79 2.238 . S
Mg71 O83 2.042 . S
Mg71 O85 2.041 . S
Mg71 O92 2.038 . S
C72 O78 1.247 . S
C72 O79 1.289 . S
C73 O91 1.245 . S
C73 O92 1.274 . S
O74 C62 1.241 . S
O74 Mg67 2.042 . S
O75 C62 1.280 . S
O75 Mg65 1.984 . S
O76 C63 1.277 . S
O76 Mg67 2.041 . S
O77 C63 1.245 . S
O77 Mg65 1.988 . S
O78 Mg65 2.061 . S
O78 C72 1.247 . S
O79 Mg68 2.106 . S
O79 Mg71 2.238 . S
O79 C72 1.289 . S
C80 O81 1.245 . S
C80 O82 1.274 . S
O81 Mg68 2.079 . S
O81 C80 1.245 . S
O82 Mg67 2.038 . S
O82 C80 1.274 . S
O83 Mg71 2.042 . S
O83 C86 1.241 . S
O84 Mg70 1.984 . S
O84 C86 1.280 . S
O85 Mg71 2.041 . S
O85 C89 1.277 . S
C86 O83 1.241 . S
C86 O84 1.280 . S
O87 Mg70 1.988 . S
O87 C89 1.245 . S
O88 C64 1.247 . S
O88 Mg70 2.061 . S
C89 O85 1.277 . S
C89 O87 1.245 . S
O90 C64 1.289 . S
O90 Mg67 2.238 . S
O90 Mg68 2.106 . S
O91 Mg68 2.079 . S
O91 C73 1.245 . S
O92 Mg71 2.038 . S
O92 C73 1.274 . S
C93 O105 1.241 . S
C93 O106 1.280 . S
C94 O107 1.277 . S
C94 O108 1.245 . S
C95 O119 1.247 . S
C95 O121 1.289 . S
Mg96 O97 1.926 . S
Mg96 O106 1.984 . S
Mg96 O108 1.988 . S
Mg96 O109 2.061 . S
O97 Mg96 1.926 . S
O97 Mg98 1.986 . S
O97 Mg99 1.917 . S
Mg98 O97 1.986 . S
Mg98 O105 2.042 . S
Mg98 O107 2.041 . S
Mg98 O113 2.038 . S
Mg98 O121 2.238 . S
Mg99 O97 1.917 . S
Mg99 O100 1.917 . S
Mg99 O110 2.106 . S
Mg99 O112 2.079 . S
Mg99 O121 2.106 . S
Mg99 O122 2.079 . S
O100 Mg99 1.917 . S
O100 Mg101 1.926 . S
O100 Mg102 1.986 . S
Mg101 O100 1.926 . S
Mg101 O115 1.984 . S
Mg101 O118 1.988 . S
Mg101 O119 2.061 . S
Mg102 O100 1.986 . S
Mg102 O110 2.238 . S
Mg102 O114 2.042 . S
Mg102 O116 2.041 . S
Mg102 O123 2.038 . S
C103 O109 1.247 . S
C103 O110 1.289 . S
C104 O122 1.245 . S
C104 O123 1.274 . S
O105 C93 1.241 . S
O105 Mg98 2.042 . S
O106 C93 1.280 . S
O106 Mg96 1.984 . S
O107 C94 1.277 . S
O107 Mg98 2.041 . S
O108 C94 1.245 . S
O108 Mg96 1.988 . S
O109 Mg96 2.061 . S
O109 C103 1.247 . S
O110 Mg99 2.106 . S
O110 Mg102 2.238 . S
O110 C103 1.289 . S
C111 O112 1.245 . S
C111 O113 1.274 . S
O112 Mg99 2.079 . S
O112 C111 1.245 . S
O113 Mg98 2.038 . S
O113 C111 1.274 . S
O114 Mg102 2.042 . S
O114 C117 1.241 . S
O115 Mg101 1.984 . S
O115 C117 1.280 . S
O116 Mg102 2.041 . S
O116 C120 1.277 . S
C117 O114 1.241 . S
C117 O115 1.280 . S
O118 Mg101 1.988 . S
O118 C120 1.245 . S
O119 C95 1.247 . S
O119 Mg101 2.061 . S
C120 O116 1.277 . S
C120 O118 1.245 . S
O121 C95 1.289 . S
O121 Mg98 2.238 . S
O121 Mg99 2.106 . S
O122 Mg99 2.079 . S
O122 C104 1.245 . S
O123 Mg102 2.038 . S
O123 C104 1.274 . S
C124 O136 1.241 . S
C124 O137 1.280 . S
C125 O138 1.277 . S
C125 O139 1.245 . S
C126 O150 1.247 . S
C126 O152 1.289 . S
Mg127 O128 1.926 . S
Mg127 O137 1.984 . S
Mg127 O139 1.988 . S
Mg127 O140 2.061 . S
O128 Mg127 1.926 . S
O128 Mg129 1.986 . S
O128 Mg130 1.917 . S
Mg129 O128 1.986 . S
Mg129 O136 2.042 . S
Mg129 O138 2.041 . S
Mg129 O144 2.038 . S
Mg129 O152 2.238 . S
Mg130 O128 1.917 . S
Mg130 O131 1.917 . S
Mg130 O141 2.106 . S
Mg130 O143 2.079 . S
Mg130 O152 2.106 . S
Mg130 O153 2.079 . S
O131 Mg130 1.917 . S
O131 Mg132 1.926 . S
O131 Mg133 1.986 . S
Mg132 O131 1.926 . S
Mg132 O146 1.984 . S
Mg132 O149 1.988 . S
Mg132 O150 2.061 . S
Mg133 O131 1.986 . S
Mg133 O141 2.238 . S
Mg133 O145 2.042 . S
Mg133 O147 2.041 . S
Mg133 O154 2.038 . S
C134 O140 1.247 . S
C134 O141 1.289 . S
C135 O153 1.245 . S
C135 O154 1.274 . S
O136 C124 1.241 . S
O136 Mg129 2.042 . S
O137 C124 1.280 . S
O137 Mg127 1.984 . S
O138 C125 1.277 . S
O138 Mg129 2.041 . S
O139 C125 1.245 . S
O139 Mg127 1.988 . S
O140 Mg127 2.061 . S
O140 C134 1.247 . S
O141 Mg130 2.106 . S
O141 Mg133 2.238 . S
O141 C134 1.289 . S
C142 O143 1.245 . S
C142 O144 1.274 . S
O143 Mg130 2.079 . S
O143 C142 1.245 . S
O144 Mg129 2.038 . S
O144 C142 1.274 . S
O145 Mg133 2.042 . S
O145 C148 1.241 . S
O146 Mg132 1.984 . S
O146 C148 1.280 . S
O147 Mg133 2.041 . S
O147 C151 1.277 . S
C148 O145 1.241 . S
C148 O146 1.280 . S
O149 Mg132 1.988 . S
O149 C151 1.245 . S
O150 C126 1.247 . S
O150 Mg132 2.061 . S
C151 O147 1.277 . S
C151 O149 1.245 . S
O152 C126 1.289 . S
O152 Mg129 2.238 . S
O152 Mg130 2.106 . S
O153 Mg130 2.079 . S
O153 C135 1.245 . S
O154 Mg133 2.038 . S
O154 C135 1.274 . S
C155 O167 1.241 . S
C155 O168 1.280 . S
C156 O169 1.277 . S
C156 O170 1.245 . S
C157 O181 1.247 . S
C157 O183 1.289 . S
Mg158 O159 1.926 . S
Mg158 O168 1.984 . S
Mg158 O170 1.988 . S
Mg158 O171 2.061 . S
O159 Mg158 1.926 . S
O159 Mg160 1.986 . S
O159 Mg161 1.917 . S
Mg160 O159 1.986 . S
Mg160 O167 2.042 . S
Mg160 O169 2.041 . S
Mg160 O175 2.038 . S
Mg160 O183 2.238 . S
Mg161 O159 1.917 . S
Mg161 O162 1.917 . S
Mg161 O172 2.106 . S
Mg161 O174 2.079 . S
Mg161 O183 2.106 . S
Mg161 O184 2.079 . S
O162 Mg161 1.917 . S
O162 Mg163 1.926 . S
O162 Mg164 1.986 . S
Mg163 O162 1.926 . S
Mg163 O177 1.984 . S
Mg163 O180 1.988 1_556 S
Mg163 O181 2.061 . S
Mg164 O162 1.986 . S
Mg164 O172 2.238 . S
Mg164 O176 2.042 . S
Mg164 O178 2.041 . S
Mg164 O185 2.038 . S
C165 O171 1.247 . S
C165 O172 1.289 . S
C166 O184 1.245 . S
C166 O185 1.274 . S
O167 C155 1.241 . S
O167 Mg160 2.042 . S
O168 C155 1.280 . S
O168 Mg158 1.984 . S
O169 C156 1.277 . S
O169 Mg160 2.041 . S
O170 C156 1.245 . S
O170 Mg158 1.988 . S
O171 Mg158 2.061 . S
O171 C165 1.247 . S
O172 Mg161 2.106 . S
O172 Mg164 2.238 . S
O172 C165 1.289 . S
C173 O174 1.245 . S
C173 O175 1.274 . S
O174 Mg161 2.079 . S
O174 C173 1.245 . S
O175 Mg160 2.038 . S
O175 C173 1.274 . S
O176 Mg164 2.042 . S
O176 C179 1.241 . S
O177 Mg163 1.984 . S
O177 C179 1.280 . S
O178 Mg164 2.041 . S
O178 C182 1.277 1_556 S
C179 O176 1.241 . S
C179 O177 1.280 . S
O180 Mg163 1.988 1_554 S
O180 C182 1.245 . S
O181 C157 1.247 . S
O181 Mg163 2.061 . S
C182 O178 1.277 1_554 S
C182 O180 1.245 . S
O183 C157 1.289 . S
O183 Mg160 2.238 . S
O183 Mg161 2.106 . S
O184 Mg161 2.079 . S
O184 C166 1.245 . S
O185 Mg164 2.038 . S
O185 C166 1.274 . S
H186 C194 0.929 . S
H187 C196 0.930 . S
H188 C198 0.930 . S
H189 C201 0.929 . S
H190 C204 0.930 . S
H191 C206 0.960 . S
H192 C206 0.960 . S
H193 C206 0.960 . S
C194 H186 0.929 . S
C194 C195 1.377 . S
C194 C196 1.384 . S
C195 C194 1.377 . S
C195 C201 1.390 . S
C196 H187 0.930 . S
C196 C194 1.384 . S
C196 C197 1.372 . S
C197 C196 1.372 . S
C197 C198 1.400 . S
C197 C202 1.490 . S
C198 H188 0.930 . S
C198 C197 1.400 . S
C198 C201 1.386 . S
H199 C215 0.930 . S
H200 C216 0.931 . S
C201 H189 0.929 . S
C201 C195 1.390 . S
C201 C198 1.386 . S
C202 C197 1.490 . S
C202 C204 1.395 . S
C202 C205 1.403 . S
H203 C209 0.930 . S
C204 H190 0.930 . S
C204 C202 1.395 . S
C204 C207 1.403 . S
C205 C202 1.403 . S
C205 C206 1.524 . S
C205 C209 1.400 . S
C206 H191 0.960 . S
C206 H192 0.960 . S
C206 H193 0.960 . S
C206 C205 1.524 . S
C207 C204 1.403 . S
C207 C208 1.392 . S
C207 C211 1.495 . S
C208 C207 1.392 . S
C208 C209 1.385 . S
C208 C210 1.478 . S
C209 H203 0.930 . S
C209 C205 1.400 . S
C209 C208 1.385 . S
C210 C208 1.478 . S
C210 C212 1.381 . S
C210 C216 1.383 . S
C211 C207 1.495 . S
C211 H217 0.959 . S
C211 H218 0.961 . S
C211 H219 0.960 . S
C212 C210 1.381 . S
C212 C213 1.394 . S
C212 H220 0.930 . S
C213 C212 1.394 . S
C213 C214 1.383 . S
C213 H221 0.929 . S
C214 C213 1.383 . S
C214 C215 1.377 . S
C215 H199 0.930 . S
C215 C214 1.377 . S
C215 C216 1.379 . S
C216 H200 0.931 . S
C216 C210 1.383 . S
C216 C215 1.379 . S
H217 C211 0.959 . S
H218 C211 0.961 . S
H219 C211 0.960 . S
H220 C212 0.930 . S
H221 C213 0.929 . S
H222 C230 0.929 . S
H223 C232 0.930 . S
H224 C234 0.930 . S
H225 C237 0.929 . S
H226 C240 0.930 . S
H227 C242 0.960 . S
H228 C242 0.960 . S
H229 C242 0.960 . S
C230 H222 0.929 . S
C230 C231 1.377 . S
C230 C232 1.384 . S
C231 C230 1.377 . S
C231 C237 1.390 . S
C232 H223 0.930 . S
C232 C230 1.384 . S
C232 C233 1.372 . S
C233 C232 1.372 . S
C233 C234 1.400 . S
C233 C238 1.490 . S
C234 H224 0.930 . S
C234 C233 1.400 . S
C234 C237 1.386 . S
H235 C251 0.930 . S
H236 C252 0.931 . S
C237 H225 0.929 . S
C237 C231 1.390 . S
C237 C234 1.386 . S
C238 C233 1.490 . S
C238 C240 1.395 . S
C238 C241 1.403 . S
H239 C245 0.930 . S
C240 H226 0.930 . S
C240 C238 1.395 . S
C240 C243 1.403 . S
C241 C238 1.403 . S
C241 C242 1.524 . S
C241 C245 1.400 . S
C242 H227 0.960 . S
C242 H228 0.960 . S
C242 H229 0.960 . S
C242 C241 1.524 . S
C243 C240 1.403 . S
C243 C244 1.392 . S
C243 C247 1.495 . S
C244 C243 1.392 . S
C244 C245 1.385 . S
C244 C246 1.478 . S
C245 H239 0.930 . S
C245 C241 1.400 . S
C245 C244 1.385 . S
C246 C244 1.478 . S
C246 C248 1.381 . S
C246 C252 1.383 . S
C247 C243 1.495 . S
C247 H253 0.959 . S
C247 H254 0.961 . S
C247 H255 0.960 . S
C248 C246 1.381 . S
C248 C249 1.394 . S
C248 H256 0.930 . S
C249 C248 1.394 . S
C249 C250 1.383 . S
C249 H257 0.929 . S
C250 C249 1.383 . S
C250 C251 1.377 . S
C251 H235 0.930 . S
C251 C250 1.377 . S
C251 C252 1.379 . S
C252 H236 0.931 . S
C252 C246 1.383 . S
C252 C251 1.379 . S
H253 C247 0.959 . S
H254 C247 0.961 . S
H255 C247 0.960 . S
H256 C248 0.930 . S
H257 C249 0.929 . S
H258 C266 0.929 . S
H259 C268 0.930 . S
H260 C270 0.930 . S
H261 C273 0.929 . S
H262 C276 0.930 . S
H263 C278 0.960 . S
H264 C278 0.960 . S
H265 C278 0.960 . S
C266 H258 0.929 . S
C266 C267 1.377 . S
C266 C268 1.384 1_554 S
C267 C266 1.377 . S
C267 C273 1.390 . S
C268 H259 0.930 . S
C268 C266 1.384 1_556 S
C268 C269 1.372 . S
C269 C268 1.372 . S
C269 C270 1.400 . S
C269 C274 1.490 . S
C270 H260 0.930 . S
C270 C269 1.400 . S
C270 C273 1.386 1_556 S
H271 C287 0.930 . S
H272 C288 0.931 . S
C273 H261 0.929 . S
C273 C267 1.390 . S
C273 C270 1.386 1_554 S
C274 C269 1.490 . S
C274 C276 1.395 . S
C274 C277 1.403 . S
H275 C281 0.930 . S
C276 H262 0.930 . S
C276 C274 1.395 . S
C276 C279 1.403 . S
C277 C274 1.403 . S
C277 C278 1.524 . S
C277 C281 1.400 . S
C278 H263 0.960 . S
C278 H264 0.960 . S
C278 H265 0.960 . S
C278 C277 1.524 . S
C279 C276 1.403 . S
C279 C280 1.392 . S
C279 C283 1.495 . S
C280 C279 1.392 . S
C280 C281 1.385 . S
C280 C282 1.478 . S
C281 H275 0.930 . S
C281 C277 1.400 . S
C281 C280 1.385 . S
C282 C280 1.478 . S
C282 C284 1.381 . S
C282 C288 1.383 . S
C283 C279 1.495 . S
C283 H289 0.959 . S
C283 H290 0.961 . S
C283 H291 0.960 . S
C284 C282 1.381 . S
C284 C285 1.394 . S
C284 H292 0.930 . S
C285 C284 1.394 . S
C285 C286 1.383 . S
C285 H293 0.929 . S
C286 C285 1.383 . S
C286 C287 1.377 . S
C287 H271 0.930 . S
C287 C286 1.377 . S
C287 C288 1.379 . S
C288 H272 0.931 . S
C288 C282 1.383 . S
C288 C287 1.379 . S
H289 C283 0.959 . S
H290 C283 0.961 . S
H291 C283 0.960 . S
H292 C284 0.930 . S
H293 C285 0.929 . S
H294 C302 0.929 . S
H295 C304 0.930 . S
H296 C306 0.930 . S
H297 C309 0.929 . S
H298 C312 0.930 . S
H299 C314 0.960 . S
H300 C314 0.960 . S
H301 C314 0.960 . S
C302 H294 0.929 . S
C302 C303 1.377 . S
C302 C304 1.384 . S
C303 C302 1.377 . S
C303 C309 1.390 . S
C304 H295 0.930 . S
C304 C302 1.384 . S
C304 C305 1.372 . S
C305 C304 1.372 . S
C305 C306 1.400 . S
C305 C310 1.490 . S
C306 H296 0.930 . S
C306 C305 1.400 . S
C306 C309 1.386 . S
H307 C323 0.930 . S
H308 C324 0.931 . S
C309 H297 0.929 . S
C309 C303 1.390 . S
C309 C306 1.386 . S
C310 C305 1.490 . S
C310 C312 1.395 . S
C310 C313 1.403 . S
H311 C317 0.930 . S
C312 H298 0.930 . S
C312 C310 1.395 . S
C312 C315 1.403 1_554 S
C313 C310 1.403 . S
C313 C314 1.524 . S
C313 C317 1.400 1_554 S
C314 H299 0.960 . S
C314 H300 0.960 . S
C314 H301 0.960 . S
C314 C313 1.524 . S
C315 C312 1.403 1_556 S
C315 C316 1.392 . S
C315 C319 1.495 . S
C316 C315 1.392 . S
C316 C317 1.385 . S
C316 C318 1.478 . S
C317 H311 0.930 . S
C317 C313 1.400 1_556 S
C317 C316 1.385 . S
C318 C316 1.478 . S
C318 C320 1.381 . S
C318 C324 1.383 . S
C319 C315 1.495 . S
C319 H325 0.959 . S
C319 H326 0.961 . S
C319 H327 0.960 . S
C320 C318 1.381 . S
C320 C321 1.394 . S
C320 H328 0.930 . S
C321 C320 1.394 . S
C321 C322 1.383 . S
C321 H329 0.929 . S
C322 C321 1.383 . S
C322 C323 1.377 . S
C323 H307 0.930 . S
C323 C322 1.377 . S
C323 C324 1.379 . S
C324 H308 0.931 . S
C324 C318 1.383 . S
C324 C323 1.379 . S
H325 C319 0.959 . S
H326 C319 0.961 . S
H327 C319 0.960 . S
H328 C320 0.930 . S
H329 C321 0.929 . S
H330 C338 0.929 . S
H331 C340 0.930 . S
H332 C342 0.930 . S
H333 C345 0.929 . S
H334 C348 0.930 . S
H335 C350 0.960 . S
H336 C350 0.960 . S
H337 C350 0.960 . S
C338 H330 0.929 . S
C338 C339 1.377 . S
C338 C340 1.384 1_556 S
C339 C338 1.377 . S
C339 C345 1.390 . S
C340 H331 0.930 . S
C340 C338 1.384 1_554 S
C340 C341 1.372 . S
C341 C340 1.372 . S
C341 C342 1.400 . S
C341 C346 1.490 . S
C342 H332 0.930 . S
C342 C341 1.400 . S
C342 C345 1.386 1_554 S
H343 C359 0.930 . S
H344 C360 0.931 . S
C345 H333 0.929 . S
C345 C339 1.390 . S
C345 C342 1.386 1_556 S
C346 C341 1.490 . S
C346 C348 1.395 . S
C346 C349 1.403 . S
H347 C353 0.930 . S
C348 H334 0.930 . S
C348 C346 1.395 . S
C348 C351 1.403 . S
C349 C346 1.403 . S
C349 C350 1.524 . S
C349 C353 1.400 . S
C350 H335 0.960 . S
C350 H336 0.960 . S
C350 H337 0.960 . S
C350 C349 1.524 . S
C351 C348 1.403 . S
C351 C352 1.392 . S
C351 C355 1.495 . S
C352 C351 1.392 . S
C352 C353 1.385 . S
C352 C354 1.478 . S
C353 H347 0.930 . S
C353 C349 1.400 . S
C353 C352 1.385 . S
C354 C352 1.478 . S
C354 C356 1.381 . S
C354 C360 1.383 . S
C355 C351 1.495 . S
C355 H361 0.959 . S
C355 H362 0.961 . S
C355 H363 0.960 . S
C356 C354 1.381 . S
C356 C357 1.394 . S
C356 H364 0.930 . S
C357 C356 1.394 . S
C357 C358 1.383 . S
C357 H365 0.929 . S
C358 C357 1.383 . S
C358 C359 1.377 . S
C359 H343 0.930 . S
C359 C358 1.377 . S
C359 C360 1.379 . S
C360 H344 0.931 . S
C360 C354 1.383 . S
C360 C359 1.379 . S
H361 C355 0.959 . S
H362 C355 0.961 . S
H363 C355 0.960 . S
H364 C356 0.930 . S
H365 C357 0.929 . S
H366 C374 0.929 . S
H367 C376 0.930 . S
H368 C378 0.930 . S
H369 C381 0.929 . S
H370 C384 0.930 . S
H371 C386 0.960 . S
H372 C386 0.960 . S
H373 C386 0.960 . S
C374 H366 0.929 . S
C374 C375 1.377 . S
C374 C376 1.384 . S
C375 C374 1.377 . S
C375 C381 1.390 . S
C376 H367 0.930 . S
C376 C374 1.384 . S
C376 C377 1.372 . S
C377 C376 1.372 . S
C377 C378 1.400 . S
C377 C382 1.490 . S
C378 H368 0.930 . S
C378 C377 1.400 . S
C378 C381 1.386 . S
H379 C395 0.930 . S
H380 C396 0.931 . S
C381 H369 0.929 . S
C381 C375 1.390 . S
C381 C378 1.386 . S
C382 C377 1.490 . S
C382 C384 1.395 . S
C382 C385 1.403 . S
H383 C389 0.930 . S
C384 H370 0.930 . S
C384 C382 1.395 . S
C384 C387 1.403 . S
C385 C382 1.403 . S
C385 C386 1.524 . S
C385 C389 1.400 . S
C386 H371 0.960 . S
C386 H372 0.960 . S
C386 H373 0.960 . S
C386 C385 1.524 . S
C387 C384 1.403 . S
C387 C388 1.392 . S
C387 C391 1.495 . S
C388 C387 1.392 . S
C388 C389 1.385 . S
C388 C390 1.478 . S
C389 H383 0.930 . S
C389 C385 1.400 . S
C389 C388 1.385 . S
C390 C388 1.478 . S
C390 C392 1.381 . S
C390 C396 1.383 . S
C391 C387 1.495 . S
C391 H397 0.959 . S
C391 H398 0.961 . S
C391 H399 0.960 . S
C392 C390 1.381 . S
C392 C393 1.394 . S
C392 H400 0.930 . S
C393 C392 1.394 . S
C393 C394 1.383 . S
C393 H401 0.929 . S
C394 C393 1.383 . S
C394 C395 1.377 . S
C395 H379 0.930 . S
C395 C394 1.377 . S
C395 C396 1.379 . S
C396 H380 0.931 . S
C396 C390 1.383 . S
C396 C395 1.379 . S
H397 C391 0.959 . S
H398 C391 0.961 . S
H399 C391 0.960 . S
H400 C392 0.930 . S
H401 C393 0.929 . S
H402 C410 0.929 . S
H403 C412 0.930 . S
H404 C414 0.930 . S
H405 C417 0.929 . S
H406 C420 0.930 . S
H407 C422 0.960 . S
H408 C422 0.960 . S
H409 C422 0.960 . S
C410 H402 0.929 . S
C410 C411 1.377 . S
C410 C412 1.384 . S
C411 C410 1.377 . S
C411 C417 1.390 . S
C412 H403 0.930 . S
C412 C410 1.384 . S
C412 C413 1.372 . S
C413 C412 1.372 . S
C413 C414 1.400 . S
C413 C418 1.490 . S
C414 H404 0.930 . S
C414 C413 1.400 . S
C414 C417 1.386 . S
H415 C431 0.930 . S
H416 C432 0.931 . S
C417 H405 0.929 . S
C417 C411 1.390 . S
C417 C414 1.386 . S
C418 C413 1.490 . S
C418 C420 1.395 . S
C418 C421 1.403 . S
H419 C425 0.930 . S
C420 H406 0.930 . S
C420 C418 1.395 . S
C420 C423 1.403 . S
C421 C418 1.403 . S
C421 C422 1.524 . S
C421 C425 1.400 . S
C422 H407 0.960 . S
C422 H408 0.960 . S
C422 H409 0.960 . S
C422 C421 1.524 . S
C423 C420 1.403 . S
C423 C424 1.392 . S
C423 C427 1.495 . S
C424 C423 1.392 . S
C424 C425 1.385 . S
C424 C426 1.478 . S
C425 H419 0.930 . S
C425 C421 1.400 . S
C425 C424 1.385 . S
C426 C424 1.478 . S
C426 C428 1.381 . S
C426 C432 1.383 . S
C427 C423 1.495 . S
C427 H433 0.959 . S
C427 H434 0.961 . S
C427 H435 0.960 . S
C428 C426 1.381 . S
C428 C429 1.394 . S
C428 H436 0.930 . S
C429 C428 1.394 . S
C429 C430 1.383 . S
C429 H437 0.929 . S
C430 C429 1.383 . S
C430 C431 1.377 . S
C431 H415 0.930 . S
C431 C430 1.377 . S
C431 C432 1.379 . S
C432 H416 0.931 . S
C432 C426 1.383 . S
C432 C431 1.379 . S
H433 C427 0.959 . S
H434 C427 0.961 . S
H435 C427 0.960 . S
H436 C428 0.930 . S
H437 C429 0.929 . S
H438 C446 0.929 . S
H439 C448 0.930 . S
H440 C450 0.930 . S
H441 C453 0.929 . S
H442 C456 0.930 . S
H443 C458 0.960 . S
H444 C458 0.960 . S
H445 C458 0.960 . S
C446 H438 0.929 . S
C446 C447 1.377 . S
C446 C448 1.384 . S
C447 C446 1.377 . S
C447 C453 1.390 1_554 S
C448 H439 0.930 . S
C448 C446 1.384 . S
C448 C449 1.372 . S
C449 C448 1.372 . S
C449 C450 1.400 1_554 S
C449 C454 1.490 1_554 S
C450 H440 0.930 . S
C450 C449 1.400 1_556 S
C450 C453 1.386 . S
H451 C467 0.930 . S
H452 C468 0.931 . S
C453 H441 0.929 . S
C453 C447 1.390 1_556 S
C453 C450 1.386 . S
C454 C449 1.490 1_556 S
C454 C456 1.395 1_556 S
C454 C457 1.403 . S
H455 C461 0.930 . S
C456 H442 0.930 . S
C456 C454 1.395 1_554 S
C456 C459 1.403 1_554 S
C457 C454 1.403 . S
C457 C458 1.524 . S
C457 C461 1.400 . S
C458 H443 0.960 . S
C458 H444 0.960 . S
C458 H445 0.960 . S
C458 C457 1.524 . S
C459 C456 1.403 1_556 S
C459 C460 1.392 . S
C459 C463 1.495 1_556 S
C460 C459 1.392 . S
C460 C461 1.385 . S
C460 C462 1.478 . S
C461 H455 0.930 . S
C461 C457 1.400 . S
C461 C460 1.385 . S
C462 C460 1.478 . S
C462 C464 1.381 . S
C462 C468 1.383 . S
C463 C459 1.495 1_554 S
C463 H469 0.959 . S
C463 H470 0.961 1_554 S
C463 H471 0.960 . S
C464 C462 1.381 . S
C464 C465 1.394 . S
C464 H472 0.930 1_556 S
C465 C464 1.394 . S
C465 C466 1.383 . S
C465 H473 0.929 . S
C466 C465 1.383 . S
C466 C467 1.377 . S
C467 H451 0.930 . S
C467 C466 1.377 . S
C467 C468 1.379 . S
C468 H452 0.931 . S
C468 C462 1.383 . S
C468 C467 1.379 . S
H469 C463 0.959 . S
H470 C463 0.961 1_556 S
H471 C463 0.960 . S
H472 C464 0.930 1_554 S
H473 C465 0.929 . S
H474 C482 0.929 1_556 S
H475 C484 0.930 . S
H476 C486 0.930 . S
H477 C489 0.929 . S
H478 C492 0.930 . S
H479 C494 0.960 . S
H480 C494 0.960 . S
H481 C494 0.960 . S
C482 H474 0.929 1_554 S
C482 C483 1.377 . S
C482 C484 1.384 . S
C483 C482 1.377 . S
C483 C489 1.390 . S
C484 H475 0.930 . S
C484 C482 1.384 . S
C484 C485 1.372 . S
C485 C484 1.372 . S
C485 C486 1.400 . S
C485 C490 1.490 . S
C486 H476 0.930 . S
C486 C485 1.400 . S
C486 C489 1.386 . S
H487 C503 0.930 . S
H488 C504 0.931 . S
C489 H477 0.929 . S
C489 C483 1.390 . S
C489 C486 1.386 . S
C490 C485 1.490 . S
C490 C492 1.395 . S
C490 C493 1.403 . S
H491 C497 0.930 . S
C492 H478 0.930 . S
C492 C490 1.395 . S
C492 C495 1.403 . S
C493 C490 1.403 . S
C493 C494 1.524 . S
C493 C497 1.400 . S
C494 H479 0.960 . S
C494 H480 0.960 . S
C494 H481 0.960 . S
C494 C493 1.524 . S
C495 C492 1.403 . S
C495 C496 1.392 . S
C495 C499 1.495 . S
C496 C495 1.392 . S
C496 C497 1.385 . S
C496 C498 1.478 . S
C497 H491 0.930 . S
C497 C493 1.400 . S
C497 C496 1.385 . S
C498 C496 1.478 . S
C498 C500 1.381 . S
C498 C504 1.383 . S
C499 C495 1.495 . S
C499 H505 0.959 . S
C499 H506 0.961 . S
C499 H507 0.960 . S
C500 C498 1.381 . S
C500 C501 1.394 . S
C500 H508 0.930 . S
C501 C500 1.394 . S
C501 C502 1.383 . S
C501 H509 0.929 . S
C502 C501 1.383 . S
C502 C503 1.377 . S
C503 H487 0.930 . S
C503 C502 1.377 . S
C503 C504 1.379 . S
C504 H488 0.931 . S
C504 C498 1.383 . S
C504 C503 1.379 . S
H505 C499 0.959 . S
H506 C499 0.961 . S
H507 C499 0.960 . S
H508 C500 0.930 . S
H509 C501 0.929 . S
H510 C518 0.929 . S
H511 C520 0.930 . S
H512 C522 0.930 . S
H513 C525 0.929 . S
H514 C528 0.930 . S
H515 C530 0.960 . S
H516 C530 0.960 . S
H517 C530 0.960 . S
C518 H510 0.929 . S
C518 C519 1.377 . S
C518 C520 1.384 . S
C519 C518 1.377 . S
C519 C525 1.390 . S
C520 H511 0.930 . S
C520 C518 1.384 . S
C520 C521 1.372 . S
C521 C520 1.372 . S
C521 C522 1.400 . S
C521 C526 1.490 . S
C522 H512 0.930 . S
C522 C521 1.400 . S
C522 C525 1.386 . S
H523 C539 0.930 . S
H524 C540 0.931 . S
C525 H513 0.929 . S
C525 C519 1.390 . S
C525 C522 1.386 . S
C526 C521 1.490 . S
C526 C528 1.395 . S
C526 C529 1.403 . S
H527 C533 0.930 . S
C528 H514 0.930 . S
C528 C526 1.395 . S
C528 C531 1.403 . S
C529 C526 1.403 . S
C529 C530 1.524 . S
C529 C533 1.400 . S
C530 H515 0.960 . S
C530 H516 0.960 . S
C530 H517 0.960 . S
C530 C529 1.524 . S
C531 C528 1.403 . S
C531 C532 1.392 . S
C531 C535 1.495 . S
C532 C531 1.392 . S
C532 C533 1.385 . S
C532 C534 1.478 . S
C533 H527 0.930 . S
C533 C529 1.400 . S
C533 C532 1.385 . S
C534 C532 1.478 . S
C534 C536 1.381 . S
C534 C540 1.383 . S
C535 C531 1.495 . S
C535 H541 0.959 . S
C535 H542 0.961 . S
C535 H543 0.960 . S
C536 C534 1.381 . S
C536 C537 1.394 . S
C536 H544 0.930 . S
C537 C536 1.394 . S
C537 C538 1.383 . S
C537 H545 0.929 . S
C538 C537 1.383 . S
C538 C539 1.377 . S
C539 H523 0.930 . S
C539 C538 1.377 . S
C539 C540 1.379 . S
C540 H524 0.931 . S
C540 C534 1.383 . S
C540 C539 1.379 . S
H541 C535 0.959 . S
H542 C535 0.961 . S
H543 C535 0.960 . S
H544 C536 0.930 . S
H545 C537 0.929 . S
H546 C554 0.929 . S
H547 C556 0.930 . S
H548 C558 0.930 . S
H549 C561 0.929 . S
H550 C564 0.930 . S
H551 C566 0.960 . S
H552 C566 0.960 . S
H553 C566 0.960 . S
C554 H546 0.929 . S
C554 C555 1.377 . S
C554 C556 1.384 . S
C555 C554 1.377 . S
C555 C561 1.390 . S
C556 H547 0.930 . S
C556 C554 1.384 . S
C556 C557 1.372 . S
C557 C556 1.372 . S
C557 C558 1.400 . S
C557 C562 1.490 . S
C558 H548 0.930 . S
C558 C557 1.400 . S
C558 C561 1.386 . S
H559 C575 0.930 . S
H560 C576 0.931 . S
C561 H549 0.929 . S
C561 C555 1.390 . S
C561 C558 1.386 . S
C562 C557 1.490 . S
C562 C564 1.395 . S
C562 C565 1.403 . S
H563 C569 0.930 . S
C564 H550 0.930 . S
C564 C562 1.395 . S
C564 C567 1.403 . S
C565 C562 1.403 . S
C565 C566 1.524 . S
C565 C569 1.400 . S
C566 H551 0.960 . S
C566 H552 0.960 . S
C566 H553 0.960 . S
C566 C565 1.524 . S
C567 C564 1.403 . S
C567 C568 1.392 . S
C567 C571 1.495 . S
C568 C567 1.392 . S
C568 C569 1.385 . S
C568 C570 1.478 . S
C569 H563 0.930 . S
C569 C565 1.400 . S
C569 C568 1.385 . S
C570 C568 1.478 . S
C570 C572 1.381 . S
C570 C576 1.383 . S
C571 C567 1.495 . S
C571 H577 0.959 . S
C571 H578 0.961 . S
C571 H579 0.960 . S
C572 C570 1.381 . S
C572 C573 1.394 . S
C572 H580 0.930 . S
C573 C572 1.394 . S
C573 C574 1.383 . S
C573 H581 0.929 . S
C574 C573 1.383 . S
C574 C575 1.377 . S
C575 H559 0.930 . S
C575 C574 1.377 . S
C575 C576 1.379 . S
C576 H560 0.931 . S
C576 C570 1.383 . S
C576 C575 1.379 . S
H577 C571 0.959 . S
H578 C571 0.961 . S
H579 C571 0.960 . S
H580 C572 0.930 . S
H581 C573 0.929 . S
H582 C590 0.929 . S
H583 C592 0.930 . S
H584 C594 0.930 . S
H585 C597 0.929 . S
H586 C600 0.930 . S
H587 C602 0.960 . S
H588 C602 0.960 . S
H589 C602 0.960 . S
C590 H582 0.929 . S
C590 C591 1.377 . S
C590 C592 1.384 . S
C591 C590 1.377 . S
C591 C597 1.390 . S
C592 H583 0.930 . S
C592 C590 1.384 . S
C592 C593 1.372 . S
C593 C592 1.372 . S
C593 C594 1.400 . S
C593 C598 1.490 . S
C594 H584 0.930 . S
C594 C593 1.400 . S
C594 C597 1.386 . S
H595 C611 0.930 . S
H596 C612 0.931 . S
C597 H585 0.929 . S
C597 C591 1.390 . S
C597 C594 1.386 . S
C598 C593 1.490 . S
C598 C600 1.395 . S
C598 C601 1.403 . S
H599 C605 0.930 . S
C600 H586 0.930 . S
C600 C598 1.395 . S
C600 C603 1.403 . S
C601 C598 1.403 . S
C601 C602 1.524 . S
C601 C605 1.400 . S
C602 H587 0.960 . S
C602 H588 0.960 . S
C602 H589 0.960 . S
C602 C601 1.524 . S
C603 C600 1.403 . S
C603 C604 1.392 . S
C603 C607 1.495 . S
C604 C603 1.392 . S
C604 C605 1.385 . S
C604 C606 1.478 . S
C605 H599 0.930 . S
C605 C601 1.400 . S
C605 C604 1.385 . S
C606 C604 1.478 . S
C606 C608 1.381 . S
C606 C612 1.383 . S
C607 C603 1.495 . S
C607 H613 0.959 . S
C607 H614 0.961 . S
C607 H615 0.960 . S
C608 C606 1.381 . S
C608 C609 1.394 . S
C608 H616 0.930 . S
C609 C608 1.394 . S
C609 C610 1.383 . S
C609 H617 0.929 . S
C610 C609 1.383 . S
C610 C611 1.377 . S
C611 H595 0.930 . S
C611 C610 1.377 . S
C611 C612 1.379 . S
C612 H596 0.931 . S
C612 C606 1.383 . S
C612 C611 1.379 . S
H613 C607 0.959 . S
H614 C607 0.961 . S
H615 C607 0.960 . S
H616 C608 0.930 . S
H617 C609 0.929 . S
H618 C626 0.929 . S
H619 C628 0.930 . S
H620 C630 0.930 . S
H621 C633 0.929 . S
H622 C636 0.930 1_556 S
H623 C638 0.960 . S
H624 C638 0.960 . S
H625 C638 0.960 . S
C626 H618 0.929 . S
C626 C627 1.377 . S
C626 C628 1.384 . S
C627 C626 1.377 . S
C627 C633 1.390 . S
C628 H619 0.930 . S
C628 C626 1.384 . S
C628 C629 1.372 . S
C629 C628 1.372 . S
C629 C630 1.400 . S
C629 C634 1.490 . S
C630 H620 0.930 . S
C630 C629 1.400 . S
C630 C633 1.386 . S
H631 C647 0.930 . S
H632 C648 0.931 . S
C633 H621 0.929 . S
C633 C627 1.390 . S
C633 C630 1.386 . S
C634 C629 1.490 . S
C634 C636 1.395 . S
C634 C637 1.403 . S
H635 C641 0.930 . S
C636 H622 0.930 1_554 S
C636 C634 1.395 . S
C636 C639 1.403 . S
C637 C634 1.403 . S
C637 C638 1.524 . S
C637 C641 1.400 . S
C638 H623 0.960 . S
C638 H624 0.960 . S
C638 H625 0.960 . S
C638 C637 1.524 . S
C639 C636 1.403 . S
C639 C640 1.392 . S
C639 C643 1.495 1_554 S
C640 C639 1.392 . S
C640 C641 1.385 . S
C640 C642 1.478 . S
C641 H635 0.930 . S
C641 C637 1.400 . S
C641 C640 1.385 . S
C642 C640 1.478 . S
C642 C644 1.381 . S
C642 C648 1.383 . S
C643 C639 1.495 1_556 S
C643 H649 0.959 . S
C643 H650 0.961 . S
C643 H651 0.960 . S
C644 C642 1.381 . S
C644 C645 1.394 1_545 S
C644 H652 0.930 . S
C645 C644 1.394 1_565 S
C645 C646 1.383 . S
C645 H653 0.929 . S
C646 C645 1.383 . S
C646 C647 1.377 . S
C647 H631 0.930 . S
C647 C646 1.377 . S
C647 C648 1.379 1_565 S
C648 H632 0.931 . S
C648 C642 1.383 . S
C648 C647 1.379 1_545 S
H649 C643 0.959 . S
H650 C643 0.961 . S
H651 C643 0.960 . S
H652 C644 0.930 . S
H653 C645 0.929 . S
H654 C662 0.929 . S
H655 C664 0.930 . S
H656 C666 0.930 . S
H657 C669 0.929 . S
H658 C672 0.930 . S
H659 C674 0.960 . S
H660 C674 0.960 . S
H661 C674 0.960 . S
C662 H654 0.929 . S
C662 C663 1.377 . S
C662 C664 1.384 . S
C663 C662 1.377 . S
C663 C669 1.390 . S
C664 H655 0.930 . S
C664 C662 1.384 . S
C664 C665 1.372 . S
C665 C664 1.372 . S
C665 C666 1.400 . S
C665 C670 1.490 . S
C666 H656 0.930 . S
C666 C665 1.400 . S
C666 C669 1.386 . S
H667 C683 0.930 . S
H668 C684 0.931 . S
C669 H657 0.929 . S
C669 C663 1.390 . S
C669 C666 1.386 . S
C670 C665 1.490 . S
C670 C672 1.395 . S
C670 C673 1.403 . S
H671 C677 0.930 . S
C672 H658 0.930 . S
C672 C670 1.395 . S
C672 C675 1.403 . S
C673 C670 1.403 . S
C673 C674 1.524 . S
C673 C677 1.400 . S
C674 H659 0.960 . S
C674 H660 0.960 . S
C674 H661 0.960 . S
C674 C673 1.524 . S
C675 C672 1.403 . S
C675 C676 1.392 . S
C675 C679 1.495 . S
C676 C675 1.392 . S
C676 C677 1.385 . S
C676 C678 1.478 . S
C677 H671 0.930 . S
C677 C673 1.400 . S
C677 C676 1.385 . S
C678 C676 1.478 . S
C678 C680 1.381 . S
C678 C684 1.383 . S
C679 C675 1.495 . S
C679 H685 0.959 . S
C679 H686 0.961 . S
C679 H687 0.960 . S
C680 C678 1.381 . S
C680 C681 1.394 . S
C680 H688 0.930 . S
C681 C680 1.394 . S
C681 C682 1.383 . S
C681 H689 0.929 . S
C682 C681 1.383 . S
C682 C683 1.377 . S
C683 H667 0.930 . S
C683 C682 1.377 . S
C683 C684 1.379 . S
C684 H668 0.931 . S
C684 C678 1.383 . S
C684 C683 1.379 . S
H685 C679 0.959 . S
H686 C679 0.961 . S
H687 C679 0.960 . S
H688 C680 0.930 . S
H689 C681 0.929 . S
H690 C698 0.929 . S
H691 C700 0.930 . S
H692 C702 0.930 . S
H693 C705 0.929 . S
H694 C708 0.930 . S
H695 C710 0.960 . S
H696 C710 0.960 . S
H697 C710 0.960 . S
C698 H690 0.929 . S
C698 C699 1.377 . S
C698 C700 1.384 1_455 S
C699 C698 1.377 . S
C699 C705 1.390 . S
C700 H691 0.930 . S
C700 C698 1.384 1_655 S
C700 C701 1.372 . S
C701 C700 1.372 . S
C701 C702 1.400 . S
C701 C706 1.490 . S
C702 H692 0.930 . S
C702 C701 1.400 . S
C702 C705 1.386 1_655 S
H703 C719 0.930 . S
H704 C720 0.931 . S
C705 H693 0.929 . S
C705 C699 1.390 . S
C705 C702 1.386 1_455 S
C706 C701 1.490 . S
C706 C708 1.395 . S
C706 C709 1.403 . S
H707 C713 0.930 . S
C708 H694 0.930 . S
C708 C706 1.395 . S
C708 C711 1.403 . S
C709 C706 1.403 . S
C709 C710 1.524 . S
C709 C713 1.400 . S
C710 H695 0.960 . S
C710 H696 0.960 . S
C710 H697 0.960 . S
C710 C709 1.524 . S
C711 C708 1.403 . S
C711 C712 1.392 . S
C711 C715 1.495 . S
C712 C711 1.392 . S
C712 C713 1.385 . S
C712 C714 1.478 . S
C713 H707 0.930 . S
C713 C709 1.400 . S
C713 C712 1.385 . S
C714 C712 1.478 . S
C714 C716 1.381 . S
C714 C720 1.383 . S
C715 C711 1.495 . S
C715 H721 0.959 . S
C715 H722 0.961 . S
C715 H723 0.960 . S
C716 C714 1.381 . S
C716 C717 1.394 . S
C716 H724 0.930 . S
C717 C716 1.394 . S
C717 C718 1.383 . S
C717 H725 0.929 . S
C718 C717 1.383 . S
C718 C719 1.377 . S
C719 H703 0.930 . S
C719 C718 1.377 . S
C719 C720 1.379 . S
C720 H704 0.931 . S
C720 C714 1.383 . S
C720 C719 1.379 . S
H721 C715 0.959 . S
H722 C715 0.961 . S
H723 C715 0.960 . S
H724 C716 0.930 . S
H725 C717 0.929 . S
H726 C734 0.929 . S
H727 C736 0.930 . S
H728 C738 0.930 . S
H729 C741 0.929 . S
H730 C744 0.930 . S
H731 C746 0.960 . S
H732 C746 0.960 . S
H733 C746 0.960 . S
C734 H726 0.929 . S
C734 C735 1.377 . S
C734 C736 1.384 . S
C735 C734 1.377 . S
C735 C741 1.390 . S
C736 H727 0.930 . S
C736 C734 1.384 . S
C736 C737 1.372 . S
C737 C736 1.372 . S
C737 C738 1.400 . S
C737 C742 1.490 . S
C738 H728 0.930 . S
C738 C737 1.400 . S
C738 C741 1.386 . S
H739 C755 0.930 . S
H740 C756 0.931 . S
C741 H729 0.929 . S
C741 C735 1.390 . S
C741 C738 1.386 . S
C742 C737 1.490 . S
C742 C744 1.395 . S
C742 C745 1.403 . S
H743 C749 0.930 . S
C744 H730 0.930 . S
C744 C742 1.395 . S
C744 C747 1.403 . S
C745 C742 1.403 . S
C745 C746 1.524 . S
C745 C749 1.400 . S
C746 H731 0.960 . S
C746 H732 0.960 . S
C746 H733 0.960 . S
C746 C745 1.524 . S
C747 C744 1.403 . S
C747 C748 1.392 . S
C747 C751 1.495 . S
C748 C747 1.392 . S
C748 C749 1.385 . S
C748 C750 1.478 . S
C749 H743 0.930 . S
C749 C745 1.400 . S
C749 C748 1.385 . S
C750 C748 1.478 . S
C750 C752 1.381 . S
C750 C756 1.383 . S
C751 C747 1.495 . S
C751 H757 0.959 . S
C751 H758 0.961 . S
C751 H759 0.960 . S
C752 C750 1.381 . S
C752 C753 1.394 1_565 S
C752 H760 0.930 . S
C753 C752 1.394 1_545 S
C753 C754 1.383 . S
C753 H761 0.929 . S
C754 C753 1.383 . S
C754 C755 1.377 . S
C755 H739 0.930 . S
C755 C754 1.377 . S
C755 C756 1.379 1_545 S
C756 H740 0.931 . S
C756 C750 1.383 . S
C756 C755 1.379 1_565 S
H757 C751 0.959 . S
H758 C751 0.961 . S
H759 C751 0.960 . S
H760 C752 0.930 . S
H761 C753 0.929 . S
H762 C770 0.929 . S
H763 C772 0.930 . S
H764 C774 0.930 . S
H765 C777 0.929 . S
H766 C780 0.930 . S
H767 C782 0.960 . S
H768 C782 0.960 . S
H769 C782 0.960 . S
C770 H762 0.929 . S
C770 C771 1.377 . S
C770 C772 1.384 . S
C771 C770 1.377 . S
C771 C777 1.390 . S
C772 H763 0.930 . S
C772 C770 1.384 . S
C772 C773 1.372 . S
C773 C772 1.372 . S
C773 C774 1.400 . S
C773 C778 1.490 . S
C774 H764 0.930 . S
C774 C773 1.400 . S
C774 C777 1.386 . S
H775 C791 0.930 . S
H776 C792 0.931 . S
C777 H765 0.929 . S
C777 C771 1.390 . S
C777 C774 1.386 . S
C778 C773 1.490 . S
C778 C780 1.395 . S
C778 C781 1.403 . S
H779 C785 0.930 . S
C780 H766 0.930 . S
C780 C778 1.395 . S
C780 C783 1.403 . S
C781 C778 1.403 . S
C781 C782 1.524 . S
C781 C785 1.400 . S
C782 H767 0.960 . S
C782 H768 0.960 . S
C782 H769 0.960 . S
C782 C781 1.524 . S
C783 C780 1.403 . S
C783 C784 1.392 . S
C783 C787 1.495 . S
C784 C783 1.392 . S
C784 C785 1.385 . S
C784 C786 1.478 . S
C785 H779 0.930 . S
C785 C781 1.400 . S
C785 C784 1.385 . S
C786 C784 1.478 . S
C786 C788 1.381 . S
C786 C792 1.383 . S
C787 C783 1.495 . S
C787 H793 0.959 . S
C787 H794 0.961 . S
C787 H795 0.960 . S
C788 C786 1.381 . S
C788 C789 1.394 . S
C788 H796 0.930 . S
C789 C788 1.394 . S
C789 C790 1.383 . S
C789 H797 0.929 . S
C790 C789 1.383 . S
C790 C791 1.377 . S
C791 H775 0.930 . S
C791 C790 1.377 . S
C791 C792 1.379 . S
C792 H776 0.931 . S
C792 C786 1.383 . S
C792 C791 1.379 . S
H793 C787 0.959 . S
H794 C787 0.961 . S
H795 C787 0.960 . S
H796 C788 0.930 . S
H797 C789 0.929 . S
H798 C806 0.929 . S
H799 C808 0.930 . S
H800 C810 0.930 . S
H801 C813 0.929 . S
H802 C816 0.930 1_554 S
H803 C818 0.960 . S
H804 C818 0.960 . S
H805 C818 0.960 . S
C806 H798 0.929 . S
C806 C807 1.377 . S
C806 C808 1.384 1_655 S
C807 C806 1.377 . S
C807 C813 1.390 . S
C808 H799 0.930 . S
C808 C806 1.384 1_455 S
C808 C809 1.372 . S
C809 C808 1.372 . S
C809 C810 1.400 . S
C809 C814 1.490 . S
C810 H800 0.930 . S
C810 C809 1.400 . S
C810 C813 1.386 1_455 S
H811 C827 0.930 . S
H812 C828 0.931 . S
C813 H801 0.929 . S
C813 C807 1.390 . S
C813 C810 1.386 1_655 S
C814 C809 1.490 . S
C814 C816 1.395 . S
C814 C817 1.403 . S
H815 C821 0.930 . S
C816 H802 0.930 1_556 S
C816 C814 1.395 . S
C816 C819 1.403 . S
C817 C814 1.403 . S
C817 C818 1.524 . S
C817 C821 1.400 . S
C818 H803 0.960 . S
C818 H804 0.960 . S
C818 H805 0.960 . S
C818 C817 1.524 . S
C819 C816 1.403 . S
C819 C820 1.392 . S
C819 C823 1.495 1_556 S
C820 C819 1.392 . S
C820 C821 1.385 . S
C820 C822 1.478 . S
C821 H815 0.930 . S
C821 C817 1.400 . S
C821 C820 1.385 . S
C822 C820 1.478 . S
C822 C824 1.381 . S
C822 C828 1.383 . S
C823 C819 1.495 1_554 S
C823 H829 0.959 . S
C823 H830 0.961 . S
C823 H831 0.960 . S
C824 C822 1.381 . S
C824 C825 1.394 . S
C824 H832 0.930 . S
C825 C824 1.394 . S
C825 C826 1.383 . S
C825 H833 0.929 . S
C826 C825 1.383 . S
C826 C827 1.377 . S
C827 H811 0.930 . S
C827 C826 1.377 . S
C827 C828 1.379 . S
C828 H812 0.931 . S
C828 C822 1.383 . S
C828 C827 1.379 . S
H829 C823 0.959 . S
H830 C823 0.961 . S
H831 C823 0.960 . S
H832 C824 0.930 . S
H833 C825 0.929 . S
H834 C842 0.929 . S
H835 C844 0.930 . S
H836 C846 0.930 . S
H837 C849 0.929 . S
H838 C852 0.930 . S
H839 C854 0.960 . S
H840 C854 0.960 . S
H841 C854 0.960 . S
C842 H834 0.929 . S
C842 C843 1.377 1_455 S
C842 C844 1.384 . S
C843 C842 1.377 1_655 S
C843 C849 1.390 . S
C844 H835 0.930 . S
C844 C842 1.384 . S
C844 C845 1.372 . S
C845 C844 1.372 . S
C845 C846 1.400 1_455 S
C845 C850 1.490 . S
C846 H836 0.930 . S
C846 C845 1.400 1_655 S
C846 C849 1.386 . S
H847 C863 0.930 . S
H848 C864 0.931 . S
C849 H837 0.929 . S
C849 C843 1.390 . S
C849 C846 1.386 . S
C850 C845 1.490 . S
C850 C852 1.395 . S
C850 C853 1.403 . S
H851 C857 0.930 . S
C852 H838 0.930 . S
C852 C850 1.395 . S
C852 C855 1.403 . S
C853 C850 1.403 . S
C853 C854 1.524 1_455 S
C853 C857 1.400 . S
C854 H839 0.960 . S
C854 H840 0.960 . S
C854 H841 0.960 . S
C854 C853 1.524 1_655 S
C855 C852 1.403 . S
C855 C856 1.392 . S
C855 C859 1.495 . S
C856 C855 1.392 . S
C856 C857 1.385 . S
C856 C858 1.478 . S
C857 H851 0.930 . S
C857 C853 1.400 . S
C857 C856 1.385 . S
C858 C856 1.478 . S
C858 C860 1.381 . S
C858 C864 1.383 . S
C859 C855 1.495 . S
C859 H865 0.959 . S
C859 H866 0.961 . S
C859 H867 0.960 . S
C860 C858 1.381 . S
C860 C861 1.394 . S
C860 H868 0.930 . S
C861 C860 1.394 . S
C861 C862 1.383 . S
C861 H869 0.929 . S
C862 C861 1.383 . S
C862 C863 1.377 . S
C863 H847 0.930 . S
C863 C862 1.377 . S
C863 C864 1.379 . S
C864 H848 0.931 . S
C864 C858 1.383 . S
C864 C863 1.379 . S
H865 C859 0.959 . S
H866 C859 0.961 . S
H867 C859 0.960 . S
H868 C860 0.930 . S
H869 C861 0.929 . S
H870 C878 0.929 . S
H871 C880 0.930 . S
H872 C882 0.930 . S
H873 C885 0.929 . S
H874 C888 0.930 . S
H875 C890 0.960 . S
H876 C890 0.960 . S
H877 C890 0.960 . S
C878 H870 0.929 . S
C878 C879 1.377 . S
C878 C880 1.384 . S
C879 C878 1.377 . S
C879 C885 1.390 . S
C880 H871 0.930 . S
C880 C878 1.384 . S
C880 C881 1.372 . S
C881 C880 1.372 . S
C881 C882 1.400 . S
C881 C886 1.490 . S
C882 H872 0.930 . S
C882 C881 1.400 . S
C882 C885 1.386 . S
H883 C899 0.930 . S
H884 C900 0.931 . S
C885 H873 0.929 . S
C885 C879 1.390 . S
C885 C882 1.386 . S
C886 C881 1.490 . S
C886 C888 1.395 . S
C886 C889 1.403 . S
H887 C893 0.930 . S
C888 H874 0.930 . S
C888 C886 1.395 . S
C888 C891 1.403 . S
C889 C886 1.403 . S
C889 C890 1.524 . S
C889 C893 1.400 . S
C890 H875 0.960 . S
C890 H876 0.960 . S
C890 H877 0.960 . S
C890 C889 1.524 . S
C891 C888 1.403 . S
C891 C892 1.392 . S
C891 C895 1.495 . S
C892 C891 1.392 . S
C892 C893 1.385 . S
C892 C894 1.478 . S
C893 H887 0.930 . S
C893 C889 1.400 . S
C893 C892 1.385 . S
C894 C892 1.478 . S
C894 C896 1.381 1_545 S
C894 C900 1.383 . S
C895 C891 1.495 . S
C895 H901 0.959 . S
C895 H902 0.961 . S
C895 H903 0.960 . S
C896 C894 1.381 1_565 S
C896 C897 1.394 . S
C896 H904 0.930 . S
C897 C896 1.394 . S
C897 C898 1.383 . S
C897 H905 0.929 . S
C898 C897 1.383 . S
C898 C899 1.377 1_565 S
C899 H883 0.930 . S
C899 C898 1.377 1_545 S
C899 C900 1.379 . S
C900 H884 0.931 . S
C900 C894 1.383 . S
C900 C899 1.379 . S
H901 C895 0.959 . S
H902 C895 0.961 . S
H903 C895 0.960 . S
H904 C896 0.930 . S
H905 C897 0.929 . S
H906 C914 0.929 . S
H907 C916 0.930 . S
H908 C918 0.930 . S
H909 C921 0.929 . S
H910 C924 0.930 . S
H911 C926 0.960 . S
H912 C926 0.960 . S
H913 C926 0.960 . S
C914 H906 0.929 . S
C914 C915 1.377 . S
C914 C916 1.384 . S
C915 C914 1.377 . S
C915 C921 1.390 . S
C916 H907 0.930 . S
C916 C914 1.384 . S
C916 C917 1.372 . S
C917 C916 1.372 . S
C917 C918 1.400 . S
C917 C922 1.490 . S
C918 H908 0.930 . S
C918 C917 1.400 . S
C918 C921 1.386 . S
H919 C935 0.930 . S
H920 C936 0.931 . S
C921 H909 0.929 . S
C921 C915 1.390 . S
C921 C918 1.386 . S
C922 C917 1.490 . S
C922 C924 1.395 . S
C922 C925 1.403 . S
H923 C929 0.930 . S
C924 H910 0.930 . S
C924 C922 1.395 . S
C924 C927 1.403 . S
C925 C922 1.403 . S
C925 C926 1.524 . S
C925 C929 1.400 . S
C926 H911 0.960 . S
C926 H912 0.960 . S
C926 H913 0.960 . S
C926 C925 1.524 . S
C927 C924 1.403 . S
C927 C928 1.392 . S
C927 C931 1.495 . S
C928 C927 1.392 . S
C928 C929 1.385 . S
C928 C930 1.478 . S
C929 H923 0.930 . S
C929 C925 1.400 . S
C929 C928 1.385 . S
C930 C928 1.478 . S
C930 C932 1.381 . S
C930 C936 1.383 . S
C931 C927 1.495 . S
C931 H937 0.959 . S
C931 H938 0.961 . S
C931 H939 0.960 . S
C932 C930 1.381 . S
C932 C933 1.394 . S
C932 H940 0.930 . S
C933 C932 1.394 . S
C933 C934 1.383 . S
C933 H941 0.929 . S
C934 C933 1.383 . S
C934 C935 1.377 . S
C935 H919 0.930 . S
C935 C934 1.377 . S
C935 C936 1.379 . S
C936 H920 0.931 . S
C936 C930 1.383 . S
C936 C935 1.379 . S
H937 C931 0.959 . S
H938 C931 0.961 . S
H939 C931 0.960 . S
H940 C932 0.930 . S
H941 C933 0.929 . S
H942 C950 0.929 . S
H943 C952 0.930 . S
H944 C954 0.930 . S
H945 C957 0.929 . S
H946 C960 0.930 . S
H947 C962 0.960 . S
H948 C962 0.960 . S
H949 C962 0.960 . S
C950 H942 0.929 . S
C950 C951 1.377 . S
C950 C952 1.384 . S
C951 C950 1.377 . S
C951 C957 1.390 1_455 S
C952 H943 0.930 . S
C952 C950 1.384 . S
C952 C953 1.372 1_455 S
C953 C952 1.372 1_655 S
C953 C954 1.400 . S
C953 C958 1.490 . S
C954 H944 0.930 . S
C954 C953 1.400 . S
C954 C957 1.386 . S
H955 C971 0.930 . S
H956 C972 0.931 . S
C957 H945 0.929 . S
C957 C951 1.390 1_655 S
C957 C954 1.386 . S
C958 C953 1.490 . S
C958 C960 1.395 1_655 S
C958 C961 1.403 . S
H959 C965 0.930 . S
C960 H946 0.930 . S
C960 C958 1.395 1_455 S
C960 C963 1.403 1_455 S
C961 C958 1.403 . S
C961 C962 1.524 . S
C961 C965 1.400 . S
C962 H947 0.960 . S
C962 H948 0.960 . S
C962 H949 0.960 . S
C962 C961 1.524 . S
C963 C960 1.403 1_655 S
C963 C964 1.392 . S
C963 C967 1.495 1_655 S
C964 C963 1.392 . S
C964 C965 1.385 . S
C964 C966 1.478 . S
C965 H959 0.930 . S
C965 C961 1.400 . S
C965 C964 1.385 . S
C966 C964 1.478 . S
C966 C968 1.381 . S
C966 C972 1.383 . S
C967 C963 1.495 1_455 S
C967 H973 0.959 . S
C967 H974 0.976 . S
C967 H975 0.960 . S
C968 C966 1.381 . S
C968 C969 1.394 . S
C968 H976 0.930 . S
C969 C968 1.394 . S
C969 C970 1.383 . S
C969 H977 0.929 . S
C970 C969 1.383 . S
C970 C971 1.377 . S
C971 H955 0.930 . S
C971 C970 1.377 . S
C971 C972 1.379 . S
C972 H956 0.931 . S
C972 C966 1.383 . S
C972 C971 1.379 . S
H973 C967 0.959 . S
H974 C967 0.976 . S
H975 C967 0.960 . S
H976 C968 0.930 . S
H977 C969 0.929 . S
H978 C986 0.929 . S
H979 C988 0.930 . S
H980 C990 0.930 1_556 S
H981 C993 0.929 . S
H982 C996 0.930 . S
H983 C998 0.960 . S
H984 C998 0.960 . S
H985 C998 0.960 . S
C986 H978 0.929 . S
C986 C987 1.377 . S
C986 C988 1.384 . S
C987 C986 1.377 . S
C987 C993 1.390 . S
C988 H979 0.930 . S
C988 C986 1.384 . S
C988 C989 1.372 . S
C989 C988 1.372 . S
C989 C990 1.400 . S
C989 C994 1.490 1_554 S
C990 H980 0.930 1_554 S
C990 C989 1.400 . S
C990 C993 1.386 . S
H991 C1007 0.930 . S
H992 C1008 0.931 . S
C993 H981 0.929 . S
C993 C987 1.390 . S
C993 C990 1.386 . S
C994 C989 1.490 1_556 S
C994 C996 1.395 1_556 S
C994 C997 1.403 . S
H995 C1001 0.930 . S
C996 H982 0.930 . S
C996 C994 1.395 1_554 S
C996 C999 1.403 1_564 S
C997 C994 1.403 . S
C997 C998 1.524 . S
C997 C1001 1.400 . S
C998 H983 0.960 . S
C998 H984 0.960 . S
C998 H985 0.960 . S
C998 C997 1.524 . S
C999 C996 1.403 1_546 S
C999 C1000 1.392 1_545 S
C999 C1003 1.495 . S
C1000 C999 1.392 1_565 S
C1000 C1001 1.385 . S
C1000 C1002 1.478 1_565 S
C1001 H995 0.930 . S
C1001 C997 1.400 . S
C1001 C1000 1.385 . S
C1002 C1000 1.478 1_545 S
C1002 C1004 1.368 . S
C1002 C1008 1.383 . S
C1003 C999 1.495 . S
C1003 H1009 0.959 1_556 S
C1003 H1010 0.961 . S
C1003 H1011 0.960 . S
C1004 C1002 1.368 . S
C1004 C1005 1.411 . S
C1004 H1012 0.927 1_545 S
C1005 C1004 1.411 . S
C1005 C1006 1.383 . S
C1005 H1013 0.929 . S
C1006 C1005 1.383 . S
C1006 C1007 1.377 . S
C1007 H991 0.930 . S
C1007 C1006 1.377 . S
C1007 C1008 1.379 . S
C1008 H992 0.931 . S
C1008 C1002 1.383 . S
C1008 C1007 1.379 . S
H1009 C1003 0.959 1_554 S
H1010 C1003 0.961 . S
H1011 C1003 0.960 . S
H1012 C1004 0.927 1_565 S
H1013 C1005 0.929 . S
H1014 C1022 0.929 . S
H1015 C1024 0.930 . S
H1016 C1026 0.930 . S
H1017 C1029 0.929 . S
H1018 C1032 0.930 . S
H1019 C1034 0.960 . S
H1020 C1034 0.960 . S
H1021 C1034 0.960 . S
C1022 H1014 0.929 . S
C1022 C1023 1.377 . S
C1022 C1024 1.384 1_556 S
C1023 C1022 1.377 . S
C1023 C1029 1.390 . S
C1024 H1015 0.930 . S
C1024 C1022 1.384 1_554 S
C1024 C1025 1.372 . S
C1025 C1024 1.372 . S
C1025 C1026 1.400 1_554 S
C1025 C1030 1.490 . S
C1026 H1016 0.930 . S
C1026 C1025 1.400 1_556 S
C1026 C1029 1.386 . S
H1027 C1043 0.930 . S
H1028 C1044 0.931 . S
C1029 H1017 0.929 . S
C1029 C1023 1.390 . S
C1029 C1026 1.386 . S
C1030 C1025 1.490 . S
C1030 C1032 1.395 . S
C1030 C1033 1.403 . S
H1031 C1037 0.930 . S
C1032 H1018 0.930 . S
C1032 C1030 1.395 . S
C1032 C1035 1.403 . S
C1033 C1030 1.403 . S
C1033 C1034 1.524 1_554 S
C1033 C1037 1.400 . S
C1034 H1019 0.960 . S
C1034 H1020 0.960 . S
C1034 H1021 0.960 . S
C1034 C1033 1.524 1_556 S
C1035 C1032 1.403 . S
C1035 C1036 1.392 . S
C1035 C1039 1.495 . S
C1036 C1035 1.392 . S
C1036 C1037 1.385 . S
C1036 C1038 1.478 . S
C1037 H1031 0.930 . S
C1037 C1033 1.400 . S
C1037 C1036 1.385 . S
C1038 C1036 1.478 . S
C1038 C1040 1.381 . S
C1038 C1044 1.383 . S
C1039 C1035 1.495 . S
C1039 H1045 0.959 . S
C1039 H1046 0.961 . S
C1039 H1047 0.960 . S
C1040 C1038 1.381 . S
C1040 C1041 1.394 . S
C1040 H1048 0.930 . S
C1041 C1040 1.394 . S
C1041 C1042 1.383 . S
C1041 H1049 0.929 . S
C1042 C1041 1.383 . S
C1042 C1043 1.377 . S
C1043 H1027 0.930 . S
C1043 C1042 1.377 . S
C1043 C1044 1.379 . S
C1044 H1028 0.931 . S
C1044 C1038 1.383 . S
C1044 C1043 1.379 . S
H1045 C1039 0.959 . S
H1046 C1039 0.961 . S
H1047 C1039 0.960 . S
H1048 C1040 0.930 . S
H1049 C1041 0.929 . S
C195 C27 1.513 . S
C214 C1 1.485 . S
C231 C58 1.518 . S
C250 C32 1.540 . S
C267 C63 1.519 . S
C286 C89 1.498 . S
C303 C94 1.514 . S
C322 C120 1.533 . S
C339 C151 1.511 . S
C358 C125 1.489 . S
C375 C182 1.511 . S
C394 C156 1.514 . S
C411 C134 1.105 . S
C430 C0 1.112 . S
C447 C31 1.126 . S
C466 C165 1.150 . S
C483 C10 1.098 . S
C502 C62 1.073 . S
C519 C41 1.104 . S
C538 C93 1.097 . S
C555 C124 1.125 . S
C574 C72 1.145 . S
C591 C103 1.113 . S
C610 C155 1.137 . S
C627 C18 2.042 . S
C646 C33 2.055 . S
C663 C49 2.044 . S
C682 C64 2.048 . S
C699 C95 2.029 . S
C718 C80 2.044 . S
C735 C111 2.035 . S
C754 C126 2.033 . S
C771 C142 2.038 . S
C790 C157 2.049 . S
C807 C2 2.035 . S
C826 C173 2.060 . S
C843 C24 0.666 . S
C862 C104 0.579 . S
C879 C135 0.580 . S
C898 C55 0.716 . S
C915 C86 0.656 . S
C934 C166 0.559 . S
C951 C117 0.668 . S
C970 C11 0.587 . S
C987 C42 0.567 . S
C1006 C148 0.572 . S
C1023 C179 0.658 . S
C1042 C73 0.566 . S
