# Generated by pormake.
# Topology bcs, (6)-cn, num edge types: 1
# Building blocks:
#     Node 0, Type 0, BuildingBlock: KUMJIN_clean_sbu_1, # of connection points: 6
#     Node 1, Type 0, BuildingBlock: KUMJIN_clean_sbu_1, # of connection points: 6
#     Node 2, Type 0, BuildingBlock: KUMJIN_clean_sbu_1, # of connection points: 6
#     Node 3, Type 0, BuildingBlock: KUMJIN_clean_sbu_1, # of connection points: 6
#     Node 4, Type 0, BuildingBlock: KUMJIN_clean_sbu_1, # of connection points: 6
#     Node 5, Type 0, BuildingBlock: KUMJIN_clean_sbu_1, # of connection points: 6
#     Node 6, Type 0, BuildingBlock: KUMJIN_clean_sbu_1, # of connection points: 6
#     Node 7, Type 0, BuildingBlock: KUMJIN_clean_sbu_1, # of connection points: 6
#     Node 8, Type 0, BuildingBlock: KUMJIN_clean_sbu_1, # of connection points: 6
#     Node 9, Type 0, BuildingBlock: KUMJIN_clean_sbu_1, # of connection points: 6
#     Node 10, Type 0, BuildingBlock: KUMJIN_clean_sbu_1, # of connection points: 6
#     Node 11, Type 0, BuildingBlock: KUMJIN_clean_sbu_1, # of connection points: 6
#     Node 12, Type 0, BuildingBlock: KUMJIN_clean_sbu_1, # of connection points: 6
#     Node 13, Type 0, BuildingBlock: KUMJIN_clean_sbu_1, # of connection points: 6
#     Node 14, Type 0, BuildingBlock: KUMJIN_clean_sbu_1, # of connection points: 6
#     Node 15, Type 0, BuildingBlock: KUMJIN_clean_sbu_1, # of connection points: 6
#     Edge 16, Type (0, 0), BuildingBlock: XIVTED_clean_linker_0, # of connection points: 2
#     Edge 17, Type (0, 0), BuildingBlock: XIVTED_clean_linker_0, # of connection points: 2
#     Edge 18, Type (0, 0), BuildingBlock: XIVTED_clean_linker_0, # of connection points: 2
#     Edge 19, Type (0, 0), BuildingBlock: XIVTED_clean_linker_0, # of connection points: 2
#     Edge 20, Type (0, 0), BuildingBlock: XIVTED_clean_linker_0, # of connection points: 2
#     Edge 21, Type (0, 0), BuildingBlock: XIVTED_clean_linker_0, # of connection points: 2
#     Edge 22, Type (0, 0), BuildingBlock: XIVTED_clean_linker_0, # of connection points: 2
#     Edge 23, Type (0, 0), BuildingBlock: XIVTED_clean_linker_0, # of connection points: 2
#     Edge 24, Type (0, 0), BuildingBlock: XIVTED_clean_linker_0, # of connection points: 2
#     Edge 25, Type (0, 0), BuildingBlock: XIVTED_clean_linker_0, # of connection points: 2
#     Edge 26, Type (0, 0), BuildingBlock: XIVTED_clean_linker_0, # of connection points: 2
#     Edge 27, Type (0, 0), BuildingBlock: XIVTED_clean_linker_0, # of connection points: 2
#     Edge 28, Type (0, 0), BuildingBlock: XIVTED_clean_linker_0, # of connection points: 2
#     Edge 29, Type (0, 0), BuildingBlock: XIVTED_clean_linker_0, # of connection points: 2
#     Edge 30, Type (0, 0), BuildingBlock: XIVTED_clean_linker_0, # of connection points: 2
#     Edge 31, Type (0, 0), BuildingBlock: XIVTED_clean_linker_0, # of connection points: 2
#     Edge 32, Type (0, 0), BuildingBlock: XIVTED_clean_linker_0, # of connection points: 2
#     Edge 33, Type (0, 0), BuildingBlock: XIVTED_clean_linker_0, # of connection points: 2
#     Edge 34, Type (0, 0), BuildingBlock: XIVTED_clean_linker_0, # of connection points: 2
#     Edge 35, Type (0, 0), BuildingBlock: XIVTED_clean_linker_0, # of connection points: 2
#     Edge 36, Type (0, 0), BuildingBlock: XIVTED_clean_linker_0, # of connection points: 2
#     Edge 37, Type (0, 0), BuildingBlock: XIVTED_clean_linker_0, # of connection points: 2
#     Edge 38, Type (0, 0), BuildingBlock: XIVTED_clean_linker_0, # of connection points: 2
#     Edge 39, Type (0, 0), BuildingBlock: XIVTED_clean_linker_0, # of connection points: 2
#     Edge 40, Type (0, 0), BuildingBlock: XIVTED_clean_linker_0, # of connection points: 2
#     Edge 41, Type (0, 0), BuildingBlock: XIVTED_clean_linker_0, # of connection points: 2
#     Edge 42, Type (0, 0), BuildingBlock: XIVTED_clean_linker_0, # of connection points: 2
#     Edge 43, Type (0, 0), BuildingBlock: XIVTED_clean_linker_0, # of connection points: 2
#     Edge 44, Type (0, 0), BuildingBlock: XIVTED_clean_linker_0, # of connection points: 2
#     Edge 45, Type (0, 0), BuildingBlock: XIVTED_clean_linker_0, # of connection points: 2
#     Edge 46, Type (0, 0), BuildingBlock: XIVTED_clean_linker_0, # of connection points: 2
#     Edge 47, Type (0, 0), BuildingBlock: XIVTED_clean_linker_0, # of connection points: 2
#     Edge 48, Type (0, 0), BuildingBlock: XIVTED_clean_linker_0, # of connection points: 2
#     Edge 49, Type (0, 0), BuildingBlock: XIVTED_clean_linker_0, # of connection points: 2
#     Edge 50, Type (0, 0), BuildingBlock: XIVTED_clean_linker_0, # of connection points: 2
#     Edge 51, Type (0, 0), BuildingBlock: XIVTED_clean_linker_0, # of connection points: 2
#     Edge 52, Type (0, 0), BuildingBlock: XIVTED_clean_linker_0, # of connection points: 2
#     Edge 53, Type (0, 0), BuildingBlock: XIVTED_clean_linker_0, # of connection points: 2
#     Edge 54, Type (0, 0), BuildingBlock: XIVTED_clean_linker_0, # of connection points: 2
#     Edge 55, Type (0, 0), BuildingBlock: XIVTED_clean_linker_0, # of connection points: 2
#     Edge 56, Type (0, 0), BuildingBlock: XIVTED_clean_linker_0, # of connection points: 2
#     Edge 57, Type (0, 0), BuildingBlock: XIVTED_clean_linker_0, # of connection points: 2
#     Edge 58, Type (0, 0), BuildingBlock: XIVTED_clean_linker_0, # of connection points: 2
#     Edge 59, Type (0, 0), BuildingBlock: XIVTED_clean_linker_0, # of connection points: 2
#     Edge 60, Type (0, 0), BuildingBlock: XIVTED_clean_linker_0, # of connection points: 2
#     Edge 61, Type (0, 0), BuildingBlock: XIVTED_clean_linker_0, # of connection points: 2
#     Edge 62, Type (0, 0), BuildingBlock: XIVTED_clean_linker_0, # of connection points: 2
#     Edge 63, Type (0, 0), BuildingBlock: XIVTED_clean_linker_0, # of connection points: 2
# Relax obj value: 0.069
# Max RMSD: 0.197
# Mean RMSD: 0.120
data_MOF--net-bcs--node1-KUMJIN_clean_sbu_1--edge1-XIVTED_clean_linker_0
_symmetry_space_group_name_H-M    P1
_symmetry_Int_Tables_number       1
_symmetry_cell_setting            triclinic
loop_
_symmetry_equiv_pos_as_xyz
'x, y, z'
_cell_length_a     42.788767
_cell_length_b     41.106691
_cell_length_c     43.376018
_cell_angle_alpha  102.17265
_cell_angle_beta   78.453846
_cell_angle_gamma 120.53013
loop_
_atom_site_label
_atom_site_type_symbol
_atom_site_fract_x
_atom_site_fract_y
_atom_site_fract_z
_atom_type_partial_charge
Eu0 Eu 1.00994 0.04667 0.0441 0.0
C1 C 0.96071 0.91166 0.92606 0.0
N2 N 0.96988 0.91317 0.95491 0.0
C3 C 0.91597 0.85302 0.96234 0.0
C4 C 0.92797 0.88117 0.91491 0.0
C5 C 0.94911 0.88308 0.97201 0.0
C6 C 0.90502 0.85237 0.93394 0.0
C7 C 0.97719 0.93707 0.87583 0.0
C8 C 0.985 0.93941 0.9066 0.0
C9 C 0.94422 0.90731 0.8652 0.0
C10 C 0.9197 0.8795 0.88469 0.0
Eu11 Eu 0.02653 0.96688 0.96842 0.0
N12 N 1.01653 0.96847 0.91752 0.0
C13 C 1.00296 0.96463 0.85651 0.0
C14 C 0.04222 0.99474 0.89851 0.0
C15 C 0.0357 0.99346 0.86785 0.0
H16 H 0.95802 0.88128 0.99285 0.0
H17 H 0.05597 0.01459 0.85295 0.0
H18 H 0.07548 0.1325 0.01833 0.0
H19 H 0.98732 0.00802 0.16242 0.0
H20 H 0.06776 0.01652 0.90706 0.0
H21 H 0.99795 0.96374 0.83275 0.0
H22 H 0.97132 1.00393 0.10943 0.0
H23 H 0.89926 0.82987 0.97647 0.0
H24 H 0.93767 0.90521 0.84174 0.0
H25 H 0.89483 0.85615 0.87579 0.0
H26 H 0.13652 0.18325 0.03049 0.0
H27 H 0.87957 0.82869 0.92629 0.0
H28 H 0.04951 0.05473 0.17687 0.0
N29 N 0.06792 0.10039 0.05471 0.0
C30 C 0.08023 0.10176 0.08187 0.0
C31 C 0.12133 0.16009 0.04476 0.0
C32 C 0.11469 0.13138 0.09041 0.0
C33 C 0.08684 0.13054 0.03752 0.0
C34 C 0.1357 0.16006 0.0709 0.0
N35 N 0.02369 0.04775 0.09445 0.0
C36 C 0.99833 0.0245 0.11577 0.0
C37 C 0.06782 0.07807 0.13225 0.0
C38 C 0.05719 0.07532 0.10263 0.0
C39 C 0.04246 0.05325 0.15378 0.0
C40 C 1.00732 0.02686 0.14573 0.0
H41 H 0.16221 0.18329 0.07669 0.0
H42 H 0.15283 0.15493 0.12561 0.0
H43 H 0.11162 0.10849 0.16238 0.0
O44 O 0.96039 0.04325 0.0755 0.0
O45 O 0.03533 0.01203 0.05793 0.0
O46 O 0.05114 0.97587 0.01454 0.0
O47 O 0.99876 0.09472 0.05644 0.0
O48 O 0.96754 0.98571 0.0294 0.0
O49 O 0.99041 0.94458 0.01387 0.0
O50 O 0.07478 0.96804 0.93591 0.0
O51 O 0.99788 0.99897 0.9552 0.0
O52 O 0.98773 0.0404 0.99731 0.0
O53 O 0.0379 0.91909 0.95897 0.0
O54 O 0.06888 0.02785 0.9829 0.0
O55 O 0.04508 0.0682 0.99794 0.0
C56 C 0.05108 0.99019 0.04516 0.0
C57 C 0.96311 0.10226 0.10484 0.0
C58 C 0.93028 0.1349 0.14037 0.0
C59 C 0.96081 0.15553 0.1575 0.0
C60 C 0.99224 0.12355 0.12344 0.0
C61 C 0.99108 0.14979 0.14929 0.0
C62 C 0.93158 0.10783 0.11367 0.0
C63 C 0.96883 0.95571 0.03351 0.0
C64 C 0.96838 0.0782 0.07466 0.0
C65 C 0.12637 0.13255 0.11886 0.0
C66 C 0.10288 0.10615 0.13986 0.0
C67 C 0.98483 0.02346 0.96734 0.0
C68 C 0.07162 0.90711 0.91075 0.0
C69 C 0.10584 0.87604 0.87485 0.0
C70 C 0.07322 0.85011 0.86145 0.0
C71 C 0.04039 0.88038 0.89579 0.0
C72 C 0.10476 0.90467 0.90018 0.0
C73 C 0.04117 0.85222 0.87176 0.0
C74 C 0.06707 0.05743 0.97856 0.0
C75 C 0.06732 0.93392 0.93926 0.0
H76 H 0.96129 0.17648 0.1776 0.0
H77 H 1.0166 0.12064 0.11741 0.0
H78 H 1.01421 0.16632 0.16292 0.0
H79 H 0.90898 0.09226 0.09939 0.0
H80 H 0.07249 0.82776 0.84266 0.0
H81 H 1.0148 0.88069 0.90325 0.0
H82 H 0.12921 0.92468 0.91147 0.0
H83 H 1.01648 0.83158 0.86101 0.0
Eu84 Eu 0.21035 0.81915 0.26547 0.0
C85 C 0.3223 0.7475 0.20202 0.0
N86 N 0.28726 0.72738 0.21493 0.0
C87 C 0.27874 0.6732 0.17629 0.0
C88 C 0.33659 0.73136 0.17489 0.0
C89 C 0.26564 0.69057 0.20289 0.0
C90 C 0.31428 0.69378 0.16205 0.0
C91 C 0.38049 0.80593 0.20281 0.0
C92 C 0.34411 0.78429 0.21605 0.0
C93 C 0.39447 0.79023 0.17539 0.0
C94 C 0.37263 0.75301 0.16154 0.0
Eu95 Eu 0.26761 0.75878 0.25987 0.0
N96 N 0.32974 0.79906 0.24241 0.0
C97 C 0.40183 0.84276 0.21754 0.0
C98 C 0.3509 0.83447 0.25733 0.0
C99 C 0.38704 0.85695 0.24506 0.0
H100 H 0.23792 0.6747 0.2136 0.0
H101 H 0.40349 0.88521 0.25691 0.0
H102 H 0.25018 0.90244 0.31273 0.0
H103 H 0.07295 0.69809 0.27794 0.0
H104 H 0.34019 0.84561 0.2786 0.0
H105 H 0.42983 0.86029 0.20806 0.0
H106 H 0.13445 0.73618 0.25061 0.0
H107 H 0.26133 0.64405 0.16668 0.0
H108 H 0.42226 0.80655 0.16484 0.0
H109 H 0.38393 0.74117 0.14057 0.0
H110 H 0.23674 0.93133 0.36613 0.0
H111 H 0.3243 0.68035 0.14131 0.0
H112 H 0.05516 0.7224 0.33189 0.0
N113 N 0.19962 0.85092 0.31484 0.0
C114 C 0.16638 0.83153 0.33135 0.0
C115 C 0.21682 0.90317 0.35669 0.0
C116 C 0.15746 0.84709 0.36177 0.0
C117 C 0.22448 0.88661 0.32661 0.0
C118 C 0.18329 0.88323 0.37446 0.0
N119 N 0.15089 0.78103 0.28888 0.0
C120 C 0.12661 0.74705 0.27398 0.0
C121 C 0.10654 0.77507 0.33439 0.0
C122 C 0.14108 0.79594 0.31781 0.0
C123 C 0.08195 0.73936 0.31988 0.0
C124 C 0.09191 0.72548 0.28943 0.0
H125 H 0.17749 0.89614 0.39779 0.0
H126 H 0.11592 0.8376 0.40202 0.0
H127 H 0.07145 0.77459 0.37809 0.0
O128 O 0.18644 0.81964 0.22432 0.0
O129 O 0.19181 0.77384 0.30041 0.0
O130 O 0.20652 0.72898 0.27193 0.0
O131 O 0.19985 0.86577 0.26133 0.0
O132 O 0.20129 0.77107 0.22492 0.0
O133 O 0.22668 0.73169 0.2243 0.0
O134 O 0.30199 0.75152 0.28689 0.0
O135 O 0.28262 0.79621 0.22198 0.0
O136 O 0.26909 0.84546 0.24194 0.0
O137 O 0.24789 0.70601 0.27897 0.0
O138 O 0.26262 0.79968 0.30238 0.0
O139 O 0.26545 0.85163 0.28774 0.0
C140 C 0.18977 0.73983 0.29702 0.0
C141 C 0.19292 0.87828 0.21082 0.0
C142 C 0.17499 0.90712 0.17523 0.0
C143 C 0.21257 0.93185 0.16848 0.0
C144 C 0.22948 0.90406 0.20223 0.0
C145 C 0.23902 0.93037 0.18165 0.0
C146 C 0.1652 0.88008 0.1972 0.0
C147 C 0.20709 0.74199 0.21278 0.0
C148 C 0.18533 0.85128 0.2346 0.0
C149 C 0.12315 0.8262 0.37852 0.0
C150 C 0.09779 0.79032 0.36487 0.0
C151 C 0.28502 0.82905 0.22025 0.0
C152 C 0.29108 0.68712 0.28213 0.0
C153 C 0.32656 0.66009 0.29389 0.0
C154 C 0.31124 0.62977 0.26966 0.0
C155 C 0.27485 0.65501 0.25953 0.0
C156 C 0.31683 0.68928 0.29958 0.0
C157 C 0.28564 0.62734 0.25273 0.0
C158 C 0.27701 0.83679 0.30443 0.0
C159 C 0.27829 0.71589 0.28955 0.0
H160 H 0.22187 0.95306 0.15275 0.0
H161 H 0.25103 0.90407 0.21177 0.0
H162 H 0.26759 0.9501 0.17574 0.0
H163 H 0.13666 0.86051 0.20329 0.0
H164 H 0.31732 0.60651 0.26492 0.0
H165 H 0.25274 0.65026 0.24774 0.0
H166 H 0.32832 0.71289 0.31811 0.0
H167 H 0.27295 0.603 0.2351 0.0
Eu168 Eu 0.49766 0.95291 0.52094 0.0
C169 C 0.61189 0.11341 0.44794 0.0
N170 N 0.59698 0.11214 0.47866 0.0
C171 C 0.6522 0.16677 0.49521 0.0
C172 C 0.64819 0.14121 0.43979 0.0
C173 C 0.61647 0.13815 0.50226 0.0
C174 C 0.6682 0.16825 0.46382 0.0
C175 C 0.60692 0.08568 0.39278 0.0
C176 C 0.59129 0.08601 0.42472 0.0
C177 C 0.64316 0.11295 0.38471 0.0
C178 C 0.66368 0.14072 0.40815 0.0
Eu179 Eu 0.53738 0.06209 0.48927 0.0
N180 N 0.5567 0.05878 0.43348 0.0
C181 C 0.58603 0.05739 0.36989 0.0
C182 C 0.53641 0.031 0.41095 0.0
C183 C 0.5506 0.03004 0.37903 0.0
H184 H 0.60431 0.13701 0.52658 0.0
H185 H 0.53426 0.00781 0.36152 0.0
H186 H 0.43228 0.8761 0.48262 0.0
H187 H 0.50442 0.99616 0.64975 0.0
H188 H 0.50939 0.00883 0.41681 0.0
H189 H 0.59707 0.05625 0.34516 0.0
H190 H 0.52858 0.99802 0.5941 0.0
H191 H 0.66746 0.18746 0.51401 0.0
H192 H 0.65564 0.11234 0.36044 0.0
H193 H 0.69176 0.16135 0.4018 0.0
H194 H 0.36969 0.82426 0.4947 0.0
H195 H 0.69608 0.19017 0.45843 0.0
H196 H 0.44099 0.94843 0.66542 0.0
N197 N 0.43916 0.9003 0.53066 0.0
C198 C 0.42457 0.89741 0.56145 0.0
C199 C 0.38469 0.84481 0.51368 0.0
C200 C 0.38863 0.86871 0.5694 0.0
C201 C 0.42 0.87437 0.50687 0.0
C202 C 0.36878 0.84216 0.54508 0.0
N203 N 0.47979 0.95131 0.57671 0.0
C204 C 0.50109 0.97663 0.59974 0.0
C205 C 0.43022 0.92216 0.61717 0.0
C206 C 0.44537 0.92356 0.58511 0.0
C207 C 0.45166 0.94874 0.64056 0.0
C208 C 0.48741 0.97572 0.6318 0.0
H209 H 0.34122 0.81953 0.5503 0.0
H210 H 0.34555 0.84647 0.6075 0.0
H211 H 0.38185 0.89454 0.64931 0.0
O212 O 0.54061 0.94101 0.52343 0.0
O213 O 0.46089 0.97685 0.54733 0.0
O214 O 0.50589 0.01993 0.52211 0.0
O215 O 0.49521 0.89895 0.4977 0.0
O216 O 0.54994 1.00452 0.54124 0.0
O217 O 0.5597 0.06518 0.53509 0.0
O218 O 0.49642 0.07658 0.48526 0.0
O219 O 0.57662 0.0397 0.47203 0.0
O220 O 0.52725 0.98434 0.47876 0.0
O221 O 0.54101 0.11637 0.51293 0.0
O222 O 0.48455 0.01231 0.46882 0.0
O223 O 0.46938 0.95125 0.47961 0.0
C224 C 0.47541 0.01067 0.54012 0.0
C225 C 0.52378 0.87695 0.52306 0.0
C226 C 0.54483 0.86006 0.56174 0.0
C227 C 0.52176 0.82133 0.55239 0.0
C228 C 0.50163 0.83811 0.51283 0.0
C229 C 0.50053 0.8104 0.52766 0.0
C230 C 0.54601 0.88761 0.54705 0.0
C231 C 0.56706 0.04263 0.5472 0.0
C232 C 0.52475 0.90659 0.50851 0.0
C233 C 0.3734 0.86773 0.6012 0.0
C234 C 0.39403 0.89471 0.62495 0.0
C235 C 0.56275 1.00382 0.4739 0.0
C236 C 0.51507 0.14177 0.48781 0.0
C237 C 0.49135 0.16286 0.45457 0.0
C238 C 0.51513 0.20091 0.4654 0.0
C239 C 0.53808 0.17992 0.49933 0.0
C240 C 0.49172 0.13352 0.46539 0.0
C241 C 0.53859 0.20936 0.48762 0.0
C242 C 0.46452 0.97421 0.46548 0.0
C243 C 0.51273 0.11047 0.50099 0.0
H244 H 0.52083 0.79971 0.56374 0.0
H245 H 0.48475 0.82923 0.4939 0.0
H246 H 0.48299 0.78051 0.52018 0.0
H247 H 0.56429 0.91738 0.55458 0.0
H248 H 0.51503 0.22393 0.45709 0.0
H249 H 0.55587 0.18696 0.51708 0.0
H250 H 0.47264 0.10427 0.4572 0.0
H251 H 0.55678 0.23873 0.49611 0.0
Eu252 Eu 0.24506 0.2771 0.76559 0.0
C253 C 0.29732 0.17398 0.80377 0.0
N254 N 0.31673 0.21029 0.79657 0.0
C255 C 0.3543 0.22854 0.83803 0.0
C256 C 0.30539 0.16382 0.82911 0.0
C257 C 0.3452 0.23736 0.81289 0.0
C258 C 0.33433 0.19161 0.84618 0.0
C259 C 0.24512 0.11072 0.79629 0.0
C260 C 0.26774 0.14755 0.78716 0.0
C261 C 0.2538 0.10023 0.82083 0.0
C262 C 0.28389 0.12666 0.83713 0.0
Eu263 Eu 0.30242 0.22154 0.7516 0.0
N264 N 0.25928 0.15885 0.76407 0.0
C265 C 0.2135 0.08596 0.78147 0.0
C266 C 0.2272 0.13543 0.75112 0.0
C267 C 0.20422 0.09863 0.75919 0.0
H268 H 0.36158 0.26558 0.80601 0.0
H269 H 0.17895 0.08031 0.74863 0.0
H270 H 0.18083 0.24127 0.71501 0.0
H271 H 0.34383 0.42631 0.79864 0.0
H272 H 0.21807 0.14516 0.73569 0.0
H273 H 0.19535 0.05757 0.78796 0.0
H274 H 0.30577 0.35836 0.80507 0.0
H275 H 0.3769 0.25016 0.85092 0.0
H276 H 0.23683 0.072 0.82795 0.0
H277 H 0.28977 0.11835 0.85644 0.0
H278 H 0.16787 0.26158 0.67172 0.0
H279 H 0.34135 0.18489 0.86577 0.0
H280 H 0.33811 0.45063 0.75371 0.0
N281 N 0.22839 0.29435 0.72506 0.0
C282 C 0.24887 0.33124 0.71948 0.0
C283 C 0.19099 0.28138 0.68472 0.0
C284 C 0.24223 0.34418 0.6951 0.0
C285 C 0.19865 0.2699 0.70912 0.0
C286 C 0.2133 0.31847 0.67726 0.0
N287 N 0.28035 0.34354 0.76307 0.0
C288 C 0.3036 0.36826 0.78493 0.0
C289 C 0.29611 0.39554 0.73498 0.0
C290 C 0.27532 0.35667 0.73927 0.0
C291 C 0.32153 0.42062 0.75626 0.0
C292 C 0.32492 0.40698 0.78158 0.0
H293 H 0.20728 0.3273 0.65838 0.0
H294 H 0.25948 0.39279 0.67102 0.0
H295 H 0.30686 0.43774 0.70586 0.0
O296 O 0.22695 0.29603 0.8137 0.0
O297 O 0.30127 0.30524 0.73783 0.0
O298 O 0.31054 0.25521 0.712 0.0
O299 O 0.19056 0.27057 0.77608 0.0
O300 O 0.28074 0.28829 0.8029 0.0
O301 O 0.3289 0.28328 0.77253 0.0
O302 O 0.32477 0.18605 0.72304 0.0
O303 O 0.26517 0.21836 0.79753 0.0
O304 O 0.21946 0.21657 0.77728 0.0
O305 O 0.36085 0.24248 0.74494 0.0
O306 O 0.26516 0.19957 0.7128 0.0
O307 O 0.22811 0.22847 0.72524 0.0
C308 C 0.31541 0.28987 0.71348 0.0
C309 C 0.16556 0.28779 0.82739 0.0
C310 C 0.14551 0.32013 0.87351 0.0
C311 C 0.10909 0.29192 0.87009 0.0
C312 C 0.12914 0.25996 0.82392 0.0
C313 C 0.10101 0.26203 0.84532 0.0
C314 C 0.17371 0.31793 0.8521 0.0
C315 C 0.31517 0.29676 0.79833 0.0
C316 C 0.19498 0.28496 0.80555 0.0
C317 C 0.26389 0.38249 0.6899 0.0
C318 C 0.29079 0.40812 0.70979 0.0
C319 C 0.23074 0.20917 0.79961 0.0
C320 C 0.38419 0.22029 0.69629 0.0
C321 C 0.40425 0.19596 0.64444 0.0
C322 C 0.43687 0.23109 0.64364 0.0
C323 C 0.41697 0.25502 0.69505 0.0
C324 C 0.3776 0.19145 0.67053 0.0
C325 C 0.44285 0.2605 0.66861 0.0
C326 C 0.23865 0.20467 0.70751 0.0
C327 C 0.35853 0.21277 0.72547 0.0
H328 H 0.08683 0.29358 0.88607 0.0
H329 H 0.12251 0.23646 0.80488 0.0
H330 H 0.07292 0.2406 0.8426 0.0
H331 H 0.20181 0.33974 0.85455 0.0
H332 H 0.45865 0.23552 0.62453 0.0
H333 H 0.42299 0.2777 0.71475 0.0
H334 H 0.35218 0.16488 0.67144 0.0
H335 H 0.46825 0.28712 0.66799 0.0
Eu336 Eu 0.99124 0.03704 0.52034 0.0
C337 C 0.08788 0.96944 0.43013 0.0
N338 N 0.05247 0.95103 0.44291 0.0
C339 C 0.03572 0.90954 0.39414 0.0
C340 C 0.09841 0.95872 0.39839 0.0
C341 C 0.0265 0.92117 0.42566 0.0
C342 C 0.07181 0.9284 0.38042 0.0
C343 C 0.15027 0.02001 0.43554 0.0
C344 C 0.11359 0.99983 0.44859 0.0
C345 C 0.16078 0.00923 0.40399 0.0
C346 C 0.13497 0.97866 0.3855 0.0
Eu347 Eu 0.04077 0.97108 0.49686 0.0
N348 N 0.10259 0.01025 0.47894 0.0
C349 C 0.17536 0.05051 0.4546 0.0
C350 C 0.12727 0.03874 0.49799 0.0
C351 C 0.16384 0.05971 0.48603 0.0
H352 H 0.99883 0.90557 0.4364 0.0
H353 H 0.18323 0.08259 0.50122 0.0
H354 H 0.03383 0.10359 0.58035 0.0
H355 H 0.84738 0.93333 0.51383 0.0
H356 H 0.11923 0.04474 0.52258 0.0
H357 H 0.20375 0.06674 0.44544 0.0
H358 H 0.91281 0.96584 0.49411 0.0
H359 H 1.01506 0.8858 0.38054 0.0
H360 H 0.18885 0.02441 0.39362 0.0
H361 H 0.14354 0.97078 0.36118 0.0
H362 H 1.01789 0.12418 0.63599 0.0
H363 H 0.07886 0.91928 0.35599 0.0
H364 H 0.82663 0.95117 0.569 0.0
N365 N 0.98002 0.05843 0.57404 0.0
C366 C 0.94448 0.04089 0.58673 0.0
C367 C 0.99706 0.10051 0.62249 0.0
C368 C 0.93398 0.05257 0.61817 0.0
C369 C 1.00614 0.08834 0.5911 0.0
C370 C 0.96087 0.08248 0.63614 0.0
N371 N 0.92925 0.99976 0.53813 0.0
C372 C 0.9043 0.97281 0.51848 0.0
C373 C 0.88113 0.99382 0.5803 0.0
C374 C 0.91833 0.01137 0.5681 0.0
C375 C 0.85546 0.96522 0.56055 0.0
C376 C 0.86709 0.95488 0.52945 0.0
H377 H 0.95388 0.09226 0.66038 0.0
H378 H 0.88853 0.04311 0.65465 0.0
H379 H 0.84229 0.99198 0.62146 0.0
O380 O 0.96419 0.04786 0.48898 0.0
O381 O 0.9743 0.99207 0.55247 0.0
O382 O 0.98489 0.9434 0.52384 0.0
O383 O 0.99099 0.09113 0.52728 0.0
O384 O 0.98319 0.99773 0.47391 0.0
O385 O 0.98383 0.94466 0.48277 0.0
O386 O 0.0686 0.95638 0.52548 0.0
O387 O 0.05342 0.01351 0.46351 0.0
O388 O 0.04855 0.06389 0.49514 0.0
O389 O 0.03623 0.91519 0.48803 0.0
O390 O 0.04897 0.01033 0.54366 0.0
O391 O 0.0477 0.06352 0.53561 0.0
C392 C 0.97068 0.95772 0.54878 0.0
C393 C 0.98117 0.11143 0.48422 0.0
C394 C 0.9608 0.13894 0.45289 0.0
C395 C 0.99705 0.16845 0.44841 0.0
C396 C 1.01701 0.14118 0.47945 0.0
C397 C 0.02483 0.1695 0.46161 0.0
C398 C 0.95309 0.11051 0.47105 0.0
C399 C 0.97265 0.96116 0.46812 0.0
C400 C 0.97207 0.08178 0.50369 0.0
C401 C 0.89705 0.03448 0.63055 0.0
C402 C 0.87071 1.00535 0.61164 0.0
C403 C 0.06114 0.04945 0.46893 0.0
C404 C 0.06435 0.89261 0.51505 0.0
C405 C 0.09389 0.87 0.54165 0.0
C406 C 0.07754 0.83458 0.5226 0.0
C407 C 0.04836 0.85672 0.49664 0.0
C408 C 0.08743 0.89929 0.53757 0.0
C409 C 0.055 0.82808 0.50038 0.0
C410 C 0.05952 0.047 0.54968 0.0
C411 C 0.0568 0.92229 0.50959 0.0
H412 H 1.00392 0.19105 0.43495 0.0
H413 H 0.03882 0.14271 0.48975 0.0
H414 H 0.05254 0.19248 0.45809 0.0
H415 H 0.92538 0.08744 0.47467 0.0
H416 H 0.08257 0.81183 0.52456 0.0
H417 H 0.03071 0.85065 0.47905 0.0
H418 H 0.09994 0.92679 0.55193 0.0
H419 H 0.04271 0.8007 0.48587 0.0
Eu420 Eu 0.29485 0.70135 0.74481 0.0
C421 C 0.41496 0.82525 0.64949 0.0
N422 N 0.40164 0.82667 0.68075 0.0
C423 C 0.45649 0.88471 0.69295 0.0
C424 C 0.44921 0.85468 0.63873 0.0
C425 C 0.4217 0.85596 0.70244 0.0
C426 C 0.47021 0.88422 0.66096 0.0
C427 C 0.40506 0.7956 0.59499 0.0
C428 C 0.39325 0.79565 0.62775 0.0
C429 C 0.43833 0.82575 0.58434 0.0
C430 C 0.4606 0.85488 0.60608 0.0
Eu431 Eu 0.33923 0.78239 0.69107 0.0
N432 N 0.35981 0.76815 0.63839 0.0
C433 C 0.3823 0.76613 0.57369 0.0
C434 C 0.33718 0.73978 0.61773 0.0
C435 C 0.34835 0.73789 0.58516 0.0
H436 H 0.41064 0.8585 0.72687 0.0
H437 H 0.33027 0.71536 0.56884 0.0
H438 H 0.21706 0.63715 0.71176 0.0
H439 H 0.31122 0.76811 0.868 0.0
H440 H 0.31013 0.71927 0.62615 0.0
H441 H 0.39042 0.76528 0.54833 0.0
H442 H 0.33141 0.75089 0.81292 0.0
H443 H 0.47217 0.908 0.71017 0.0
H444 H 0.44644 0.82727 0.55927 0.0
H445 H 0.48604 0.87815 0.59738 0.0
H446 H 0.15079 0.61004 0.72522 0.0
H447 H 0.49663 0.90731 0.65355 0.0
H448 H 0.24537 0.74349 0.88559 0.0
N449 N 0.23033 0.67313 0.75542 0.0
C450 C 0.21721 0.68115 0.7857 0.0
C451 C 0.16914 0.63055 0.74229 0.0
C452 C 0.17927 0.66492 0.795 0.0
C453 C 0.20689 0.64693 0.73428 0.0
C454 C 0.15523 0.63989 0.77268 0.0
N455 N 0.27836 0.72103 0.79802 0.0
C456 C 0.30298 0.74217 0.81956 0.0
C457 C 0.22887 0.71333 0.83933 0.0
C458 C 0.24183 0.7054 0.80762 0.0
C459 C 0.25423 0.73675 0.86105 0.0
C460 C 0.29143 0.75097 0.85116 0.0
H461 H 0.12594 0.62682 0.77893 0.0
H462 H 0.13741 0.66134 0.83385 0.0
H463 H 0.18079 0.70359 0.87264 0.0
O464 O 0.31433 0.68074 0.77486 0.0
O465 O 0.26868 0.74104 0.75331 0.0
O466 O 0.31313 0.79955 0.73886 0.0
O467 O 0.26703 0.64103 0.75015 0.0
O468 O 0.35241 0.75022 0.75504 0.0
O469 O 0.35632 0.80303 0.74083 0.0
O470 O 0.30073 0.78802 0.66852 0.0
O471 O 0.36412 0.73994 0.67442 0.0
O472 O 0.32986 0.68697 0.70137 0.0
O473 O 0.35331 0.8365 0.67756 0.0
O474 O 0.28115 0.73542 0.68918 0.0
O475 O 0.2801 0.68148 0.69432 0.0
C476 C 0.28133 0.77813 0.75446 0.0
C477 C 0.30432 0.61795 0.76003 0.0
C478 C 0.3409 0.59505 0.7748 0.0
C479 C 0.33001 0.56541 0.74951 0.0
C480 C 0.29391 0.58861 0.73439 0.0
C481 C 0.30676 0.56244 0.72924 0.0
C482 C 0.32769 0.62086 0.77998 0.0
C483 C 0.36411 0.78726 0.75937 0.0
C484 C 0.29041 0.64513 0.76771 0.0
C485 C 0.16644 0.67355 0.82634 0.0
C486 C 0.19115 0.69759 0.84845 0.0
C487 C 0.35611 0.70498 0.67898 0.0
C488 C 0.30522 0.84959 0.67909 0.0
C489 C 0.26892 0.87646 0.6694 0.0
C490 C 0.27843 0.90146 0.69774 0.0
C491 C 0.31409 0.87479 0.7074 0.0
C492 C 0.2823 0.85031 0.66027 0.0
C493 C 0.30064 0.9004 0.71664 0.0
C494 C 0.27038 0.69944 0.68006 0.0
C495 C 0.32182 0.82456 0.66804 0.0
H496 H 0.33955 0.54482 0.74541 0.0
H497 H 0.27572 0.58565 0.71858 0.0
H498 H 0.29849 0.53969 0.70965 0.0
H499 H 0.33497 0.64293 0.80025 0.0
H500 H 0.26819 0.92149 0.70553 0.0
H501 H 0.33157 0.87483 0.72236 0.0
H502 H 0.27564 0.83122 0.63825 0.0
H503 H 0.30757 0.91963 0.73852 0.0
Eu504 Eu 0.48753 0.02867 0.00986 0.0
C505 C 0.54367 0.92523 0.05028 0.0
N506 N 0.56366 0.9623 0.04519 0.0
C507 C 0.59726 0.97683 0.08887 0.0
C508 C 0.54954 0.91261 0.07534 0.0
C509 C 0.59047 0.98796 0.06376 0.0
C510 C 0.57658 0.93901 0.09481 0.0
C511 C 0.49589 0.86112 0.03532 0.0
C512 C 0.51697 0.89989 0.03059 0.0
C513 C 0.50161 0.84853 0.06028 0.0
C514 C 0.52829 0.87422 0.08028 0.0
Eu515 Eu 0.54958 0.9796 1.00333 0.0
N516 N 0.51113 0.91318 1.00727 0.0
C517 C 0.46932 0.83613 0.01508 0.0
C518 C 0.48591 0.88838 0.9869 0.0
C519 C 0.46451 0.84982 0.99065 0.0
H520 H 0.6072 0.0169 0.05874 0.0
H521 H 0.44442 0.83059 0.97449 0.0
H522 H 0.4313 0.9976 0.95417 0.0
H523 H 0.60024 0.17346 0.03955 0.0
H524 H 0.48215 0.8974 0.96725 0.0
H525 H 0.45256 0.80623 0.01797 0.0
H526 H 0.55352 0.10921 0.04951 0.0
H527 H 0.61855 0.99739 0.10352 0.0
H528 H 0.48545 0.81896 0.06436 0.0
H529 H 0.53234 0.86409 0.09948 0.0
H530 H 0.42531 0.01975 0.90816 0.0
H531 H 0.58187 0.93043 0.1143 0.0
H532 H 0.60189 0.19826 0.99176 0.0
N533 N 0.4782 0.04946 0.96734 0.0
C534 C 0.50232 0.0856 0.96113 0.0
C535 C 0.44721 0.03853 0.92276 0.0
C536 C 0.50021 0.09937 0.93486 0.0
C537 C 0.45074 0.02599 0.94877 0.0
C538 C 0.47218 0.07532 0.91565 0.0
N539 N 0.53067 0.09447 1.00607 0.0
C540 C 0.5547 0.11806 0.02769 0.0
C541 C 0.55525 0.14625 0.97478 0.0
C542 C 0.52952 0.10866 0.98087 0.0
C543 C 0.58161 0.16931 0.99565 0.0
C544 C 0.5809 0.15534 0.02252 0.0
H545 H 0.46955 0.08489 0.89534 0.0
H546 H 0.52509 0.14743 0.90828 0.0
H547 H 0.57337 0.18848 0.9432 0.0
O548 O 0.46395 0.05202 0.05218 0.0
O549 O 0.52887 0.03727 0.96678 0.0
O550 O 0.56994 0.03924 0.99323 0.0
O551 O 0.43042 0.01353 0.0142 0.0
O552 O 0.51797 0.0421 0.05356 0.0
O553 O 0.56989 0.03624 0.03591 0.0
O554 O 0.57209 0.95998 0.95831 0.0
O555 O 0.50491 0.96456 0.04452 0.0
O556 O 0.46528 0.96909 0.02064 0.0
O557 O 0.60643 0.99222 0.99717 0.0
O558 O 0.51656 0.96285 0.9608 0.0
O559 O 0.46624 0.97229 0.97698 0.0
C560 C 0.56203 0.04462 0.96788 0.0
C561 C 0.39946 0.03355 0.05998 0.0
C562 C 0.37399 0.06267 0.10421 0.0
C563 C 0.33907 0.03118 0.1008 0.0
C564 C 0.36451 1.00226 0.05619 0.0
C565 C 0.33439 1.00116 0.07664 0.0
C566 C 0.40399 0.06373 0.08376 0.0
C567 C 0.55065 0.04858 0.05787 0.0
C568 C 0.43174 0.03268 0.04223 0.0
C569 C 0.52614 0.13648 0.92847 0.0
C570 C 0.55366 0.15982 0.94832 0.0
C571 C 0.47289 0.9614 0.04491 0.0
C572 C 0.63505 0.97367 0.94817 0.0
C573 C 0.65743 0.94308 0.90245 0.0
C574 C 0.6932 0.97301 0.90567 0.0
C575 C 0.67083 1.00327 0.95166 0.0
C576 C 0.6285 0.94348 0.92377 0.0
C577 C 0.69983 1.00289 0.93035 0.0
C578 C 0.48436 0.95745 0.95623 0.0
C579 C 0.6042 0.97576 0.96804 0.0
H580 H 0.31548 0.03023 0.11634 0.0
H581 H 0.36069 0.97826 0.03817 0.0
H582 H 0.30748 0.97693 0.07392 0.0
H583 H 0.43101 0.08784 0.08685 0.0
H584 H 0.71599 0.97282 0.88952 0.0
H585 H 0.67622 0.02705 0.97028 0.0
H586 H 0.60088 0.92047 0.92111 0.0
H587 H 0.72741 0.02582 0.93288 0.0
Eu588 Eu 0.23142 0.24254 0.23896 0.0
C589 C 0.34461 0.38257 0.34467 0.0
N590 N 0.34892 0.36777 0.3139 0.0
C591 C 0.39408 0.42988 0.30066 0.0
C592 C 0.36497 0.42202 0.35445 0.0
C593 C 0.37352 0.39061 0.29202 0.0
C594 C 0.38981 0.44566 0.33198 0.0
C595 C 0.31419 0.37307 0.39838 0.0
C596 C 0.31952 0.35827 0.36656 0.0
C597 C 0.33483 0.41229 0.40816 0.0
C598 C 0.36009 0.43664 0.38628 0.0
Eu599 Eu 0.31676 0.30079 0.30413 0.0
N600 N 0.29968 0.32034 0.35654 0.0
C601 C 0.28816 0.34798 0.41945 0.0
C602 C 0.27458 0.29569 0.37695 0.0
C603 C 0.26821 0.30918 0.40866 0.0
H604 H 0.37836 0.37873 0.26811 0.0
H605 H 0.24821 0.28959 0.42484 0.0
H606 H 0.168 0.16539 0.27425 0.0
H607 H 0.28653 0.25348 0.11444 0.0
H608 H 0.25988 0.26559 0.36901 0.0
H609 H 0.28328 0.35826 0.44409 0.0
H610 H 0.27774 0.27737 0.17068 0.0
H611 H 0.41363 0.44788 0.28325 0.0
H612 H 0.33132 0.42413 0.43257 0.0
H613 H 0.37563 0.46683 0.39417 0.0
H614 H 0.13158 0.09622 0.25972 0.0
H615 H 0.40602 0.47608 0.33862 0.0
H616 H 0.25382 0.18433 0.09618 0.0
N617 N 0.19678 0.17554 0.22816 0.0
C618 C 0.19994 0.16028 0.19743 0.0
C619 C 0.15104 0.11385 0.24205 0.0
C620 C 0.17921 0.12078 0.188 0.0
C621 C 0.1722 0.15313 0.25032 0.0
C622 C 0.15471 0.09754 0.21082 0.0
N623 N 0.24203 0.22235 0.18469 0.0
C624 C 0.26406 0.24715 0.16331 0.0
C625 C 0.22692 0.16944 0.14296 0.0
C626 C 0.22326 0.18433 0.17509 0.0
C627 C 0.25028 0.19465 0.12106 0.0
C628 C 0.26882 0.23369 0.13128 0.0
H629 H 0.13808 0.06713 0.20446 0.0
H630 H 0.16724 0.07556 0.14843 0.0
H631 H 0.20925 0.11814 0.10906 0.0
O632 O 0.21594 0.27797 0.22287 0.0
O633 O 0.27183 0.22197 0.22477 0.0
O634 O 0.31384 0.25663 0.26225 0.0
O635 O 0.17441 0.22982 0.24695 0.0
O636 O 0.28057 0.29916 0.22714 0.0
O637 O 0.33154 0.31511 0.25285 0.0
O638 O 0.33664 0.28009 0.3337 0.0
O639 O 0.27888 0.32561 0.31572 0.0
O640 O 0.26185 0.28192 0.27653 0.0
O641 O 0.37509 0.32192 0.30272 0.0
O642 O 0.26885 0.24063 0.31158 0.0
O643 O 0.21689 0.22807 0.28948 0.0
C644 C 0.30132 0.23141 0.23728 0.0
C645 C 0.15811 0.24763 0.20656 0.0
C646 C 0.14146 0.27296 0.17099 0.0
C647 C 0.11827 0.23575 0.1576 0.0
C648 C 0.13499 0.21034 0.19333 0.0
C649 C 0.11488 0.20456 0.169 0.0
C650 C 0.16121 0.27845 0.19525 0.0
C651 C 0.31609 0.31704 0.22999 0.0
C652 C 0.18124 0.25669 0.231 0.0
C653 C 0.183 0.10581 0.15608 0.0
C654 C 0.20687 0.13006 0.13365 0.0
C655 C 0.25621 0.30777 0.29518 0.0
C656 C 0.38822 0.27427 0.30849 0.0
C657 C 0.39606 0.22089 0.31373 0.0
C658 C 0.4243 0.23124 0.28845 0.0
C659 C 0.41656 0.28419 0.28347 0.0
C660 C 0.37735 0.2419 0.32258 0.0
C661 C 0.434 0.26232 0.2732 0.0
C662 C 0.23315 0.22235 0.30918 0.0
C663 C 0.37026 0.29771 0.32069 0.0
H664 H 0.10215 0.2308 0.13908 0.0
H665 H 0.13258 0.18598 0.20161 0.0
H666 H 0.09639 0.17597 0.15914 0.0
H667 H 0.17961 0.30717 0.20532 0.0
H668 H 0.44012 0.21659 0.28116 0.0
H669 H 0.42542 0.30891 0.27195 0.0
H670 H 0.35471 0.23376 0.34113 0.0
H671 H 0.45596 0.27021 0.25402 0.0
Eu672 Eu 0.50152 0.53635 0.01614 0.0
C673 C 0.59232 0.46621 0.92597 0.0
N674 N 0.55675 0.44814 0.93841 0.0
C675 C 0.53979 0.40835 0.88904 0.0
C676 C 0.60277 0.45641 0.89395 0.0
C677 C 0.53062 0.41921 0.92079 0.0
C678 C 0.57601 0.427 0.87555 0.0
C679 C 0.65447 0.51714 0.93152 0.0
C680 C 0.61805 0.49596 0.94486 0.0
C681 C 0.66504 0.50683 0.89985 0.0
C682 C 0.63933 0.47646 0.88118 0.0
Eu683 Eu 0.5449 0.46399 0.99303 0.0
N684 N 0.60699 0.5057 0.9755 0.0
C685 C 0.67905 0.54881 0.95006 0.0
C686 C 0.63074 0.53747 0.99316 0.0
C687 C 0.66699 0.55928 0.98084 0.0
H688 H 0.50285 0.40387 0.93145 0.0
H689 H 0.68556 0.5844 0.99505 0.0
H690 H 0.54015 0.60886 0.07334 0.0
H691 H 0.35701 0.44718 0.99872 0.0
H692 H 0.62215 0.54714 0.01642 0.0
H693 H 0.70715 0.56592 0.94058 0.0
H694 H 0.42311 0.47612 0.98314 0.0
H695 H 0.519 0.38535 0.87508 0.0
H696 H 0.69297 0.5226 0.88938 0.0
H697 H 0.64788 0.46917 0.85669 0.0
H698 H 0.52144 0.6369 0.12484 0.0
H699 H 0.58302 0.41853 0.85091 0.0
H700 H 0.33331 0.46669 0.05198 0.0
N701 N 0.48609 0.56511 0.06569 0.0
C702 C 0.45003 0.55064 0.0761 0.0
C703 C 0.50108 0.6124 0.11154 0.0
C704 C 0.43809 0.56576 0.10539 0.0
C705 C 0.51156 0.5963 0.08243 0.0
C706 C 0.4642 0.59677 0.12328 0.0
N707 N 0.43734 0.5096 0.02788 0.0
C708 C 0.41344 0.48405 1.00677 0.0
C709 C 0.38712 0.50689 0.0663 0.0
C710 C 0.42489 0.52192 0.05669 0.0
C711 C 0.36252 0.47903 0.04544 0.0
C712 C 0.37578 0.46791 0.01539 0.0
H713 H 0.45613 0.60935 0.14579 0.0
H714 H 0.39089 0.5612 0.13804 0.0
H715 H 0.34623 0.50931 0.10392 0.0
O716 O 0.49307 0.55689 0.97768 0.0
O717 O 0.46811 0.48059 0.03698 0.0
O718 O 0.50919 0.46026 0.0402 0.0
O719 O 0.52465 0.59709 0.01516 0.0
O720 O 0.48796 0.49362 0.97153 0.0
O721 O 0.48662 0.4411 0.98436 0.0
O722 O 0.57597 0.4388 1.00157 0.0
O723 O 0.5526 0.50155 0.95822 0.0
O724 O 0.55857 0.54916 0.9968 0.0
O725 O 0.52184 0.40211 0.98664 0.0
O726 O 0.56404 0.5038 0.03853 0.0
O727 O 0.54142 0.54729 0.04941 0.0
C728 C 0.47905 0.46264 0.05037 0.0
C729 C 0.4918 0.61532 0.99119 0.0
C730 C 0.45944 0.63321 0.96391 0.0
C731 C 0.46122 0.66124 0.98949 0.0
C732 C 0.49308 0.64317 0.01691 0.0
C733 C 0.47786 0.66601 0.01596 0.0
C734 C 0.47505 0.61068 0.96485 0.0
C735 C 0.47614 0.45676 0.96817 0.0
C736 C 0.50963 0.59247 0.99023 0.0
C737 C 0.40055 0.55018 0.1155 0.0
C738 C 0.37512 0.52067 0.09605 0.0
C739 C 0.56361 0.53764 0.96683 0.0
C740 C 0.54468 0.3751 0.01312 0.0
C741 C 0.55115 0.35747 0.06084 0.0
C742 C 0.5417 0.32066 0.04459 0.0
C743 C 0.53496 0.33826 0.99762 0.0
C744 C 0.55179 0.38439 0.04491 0.0
C745 C 0.53321 0.31111 0.01341 0.0
C746 C 0.56075 0.53297 0.05557 0.0
C747 C 0.55053 0.40392 0.99445 0.0
H748 H 0.44942 0.67904 0.98915 0.0
H749 H 0.50612 0.64764 0.03755 0.0
H750 H 0.47907 0.68752 0.03573 0.0
H751 H 0.47476 0.58987 0.94465 0.0
H752 H 0.54206 0.29944 0.05541 0.0
H753 H 0.52964 0.33081 0.973 0.0
H754 H 0.55871 0.41281 0.05676 0.0
H755 H 0.52635 0.28289 1.00111 0.0
Eu756 Eu 0.69903 0.23009 0.32224 0.0
C757 C 0.81598 0.32735 0.22374 0.0
N758 N 0.80416 0.33625 0.25424 0.0
C759 C 0.86603 0.37989 0.26504 0.0
C760 C 0.85369 0.34359 0.21318 0.0
C761 C 0.8285 0.36314 0.27442 0.0
C762 C 0.87872 0.36987 0.23435 0.0
C763 C 0.80212 0.29097 0.17167 0.0
C764 C 0.79031 0.30132 0.20313 0.0
C765 C 0.83962 0.30676 0.16133 0.0
C766 C 0.8653 0.3331 0.18196 0.0
Eu767 Eu 0.74012 0.30957 0.26667 0.0
N768 N 0.75399 0.2866 0.2136 0.0
C769 C 0.77588 0.26556 0.15123 0.0
C770 C 0.7286 0.26438 0.19284 0.0
C771 C 0.73899 0.2526 0.16176 0.0
H772 H 0.81912 0.37308 0.29726 0.0
H773 H 0.71855 0.23438 0.14566 0.0
H774 H 0.62807 0.15244 0.28714 0.0
H775 H 0.70914 0.29503 0.44487 0.0
H776 H 0.70051 0.25712 0.19948 0.0
H777 H 0.78386 0.25684 0.12696 0.0
H778 H 0.7291 0.29096 0.38748 0.0
H779 H 0.8851 0.40108 0.28131 0.0
H780 H 0.84906 0.29913 0.13725 0.0
H781 H 0.89411 0.34527 0.1735 0.0
H782 H 0.56661 0.10311 0.30385 0.0
H783 H 0.90784 0.38302 0.2271 0.0
H784 H 0.64818 0.24639 0.46532 0.0
N785 N 0.63663 0.18533 0.33291 0.0
C786 C 0.62315 0.18694 0.36413 0.0
C787 C 0.58206 0.12675 0.32096 0.0
C788 C 0.58882 0.1576 0.37495 0.0
C789 C 0.61684 0.15549 0.31142 0.0
C790 C 0.56803 0.12771 0.35285 0.0
N791 N 0.67854 0.24354 0.37521 0.0
C792 C 0.70174 0.27109 0.39595 0.0
C793 C 0.63312 0.21657 0.41863 0.0
C794 C 0.64489 0.21645 0.38585 0.0
C795 C 0.65628 0.24553 0.43996 0.0
C796 C 0.69069 0.27305 0.42853 0.0
H797 H 0.54163 0.10464 0.3603 0.0
H798 H 0.55149 0.13477 0.41632 0.0
H799 H 0.59132 0.1855 0.45436 0.0
O800 O 0.74002 0.22606 0.34237 0.0
O801 O 0.67892 0.27604 0.34141 0.0
O802 O 0.69356 0.31397 0.30228 0.0
O803 O 0.68669 0.17725 0.33741 0.0
O804 O 0.75629 0.27826 0.32449 0.0
O805 O 0.75513 0.33053 0.31731 0.0
O806 O 0.73221 0.33578 0.23231 0.0
O807 O 0.76934 0.27356 0.26299 0.0
O808 O 0.72405 0.21402 0.27322 0.0
O809 O 0.7656 0.3715 0.27017 0.0
O810 O 0.68293 0.26007 0.25636 0.0
O811 O 0.68017 0.20872 0.27273 0.0
C812 C 0.67693 0.3032 0.33059 0.0
C813 C 0.73546 0.16482 0.33492 0.0
C814 C 0.77498 0.14128 0.34357 0.0
C815 C 0.76467 0.11519 0.31585 0.0
C816 C 0.72576 0.13851 0.30734 0.0
C817 C 0.74021 0.11381 0.29798 0.0
C818 C 0.75988 0.16589 0.35323 0.0
C819 C 0.7663 0.31429 0.33215 0.0
C820 C 0.71912 0.19007 0.34533 0.0
C821 C 0.57716 0.15778 0.40758 0.0
C822 C 0.59952 0.18685 0.42928 0.0
C823 C 0.75667 0.23622 0.25926 0.0
C824 C 0.74098 0.39903 0.2461 0.0
C825 C 0.70138 0.41687 0.22882 0.0
C826 C 0.72728 0.45553 0.23602 0.0
C827 C 0.76619 0.43763 0.25319 0.0
C828 C 0.708 0.38885 0.23535 0.0
C829 C 0.75903 0.46568 0.24868 0.0
C830 C 0.67098 0.22306 0.2539 0.0
C831 C 0.75215 0.37043 0.24542 0.0
H832 H 0.77552 0.09568 0.30801 0.0
H833 H 0.70676 0.13684 0.2931 0.0
H834 H 0.73248 0.09354 0.27673 0.0
H835 H 0.76751 0.18614 0.37455 0.0
H836 H 0.72406 0.47816 0.23075 0.0
H837 H 0.79201 0.44608 0.2612 0.0
H838 H 0.68832 0.35897 0.23086 0.0
H839 H 0.77893 0.49543 0.25367 0.0
Eu840 Eu 0.99124 0.53356 0.52244 0.0
C841 C 0.04623 0.4327 0.54083 0.0
N842 N 0.06387 0.46929 0.53411 0.0
C843 C 0.1031 0.48825 0.57449 0.0
C844 C 0.05466 0.42333 0.56644 0.0
C845 C 0.09407 0.49596 0.54866 0.0
C846 C 0.08267 0.45202 0.58399 0.0
C847 C 1.00278 0.36584 0.52718 0.0
C848 C 0.02084 0.40403 0.52115 0.0
C849 C 1.0101 0.35684 0.55344 0.0
C850 C 0.03591 0.38549 0.57302 0.0
Eu851 Eu 0.0456 0.47891 0.49011 0.0
N852 N 1.01297 0.4137 0.49665 0.0
C853 C 0.9774 0.33789 0.50689 0.0
C854 C 0.98865 0.38656 0.47652 0.0
C855 C 0.97044 0.34828 0.4814 0.0
H856 H 0.11211 0.5229 0.53987 0.0
H857 H 0.95093 0.32683 0.46558 0.0
H858 H 0.92386 0.48974 0.47361 0.0
H859 H 0.08696 0.6855 0.54639 0.0
H860 H 0.98335 0.39457 0.45676 0.0
H861 H 0.96293 0.30826 0.51078 0.0
H862 H 0.05458 0.61777 0.55517 0.0
H863 H 0.12638 0.51001 0.58656 0.0
H864 H 0.99613 0.32773 0.55868 0.0
H865 H 0.04177 0.37794 0.59283 0.0
H866 H 0.90841 0.50307 0.42785 0.0
H867 H 0.08997 0.44598 0.6038 0.0
H868 H 0.07396 0.70428 0.50191 0.0
N869 N 0.97219 0.54336 0.47906 0.0
C870 C 0.98977 0.58 0.47244 0.0
C871 C 0.93198 0.52472 0.4396 0.0
C872 C 0.98073 0.58954 0.44732 0.0
C873 C 0.94165 0.5168 0.46493 0.0
C874 C 0.95223 0.561 0.43019 0.0
N875 N 0.02414 0.59877 0.51584 0.0
C876 C 0.04893 0.62583 0.53565 0.0
C877 C 0.03368 0.64678 0.48582 0.0
C878 C 1.01571 0.60855 0.49176 0.0
C879 C 0.05957 0.67463 0.50574 0.0
C880 C 0.0671 0.66412 0.53082 0.0
H881 H 0.94444 0.56718 0.41076 0.0
H882 H 0.99304 0.63508 0.42137 0.0
H883 H 0.03959 0.68506 0.45484 0.0
O884 O 0.97529 0.56937 0.55843 0.0
O885 O 0.04447 0.56334 0.48926 0.0
O886 O 0.04898 0.51531 0.4546 0.0
O887 O 0.9336 0.51492 0.53828 0.0
O888 O 0.03067 0.54336 0.55529 0.0
O889 O 0.07441 0.5383 0.51736 0.0
O890 O 0.062 0.44385 0.45357 0.0
O891 O 0.99189 0.44885 0.52256 0.0
O892 O 0.98759 0.49664 0.55772 0.0
O893 O 0.10335 0.49726 0.47534 0.0
O894 O 1.00612 0.46887 0.45708 0.0
O895 O 0.96243 0.47455 0.49478 0.0
C896 C 0.0552 0.55078 0.4609 0.0
C897 C 0.92106 0.53919 0.5912 0.0
C898 C 0.90024 0.56816 0.63951 0.0
C899 C 0.88035 0.53259 0.65091 0.0
C900 C 0.90121 0.50366 0.6025 0.0
C901 C 0.8812 0.50058 0.63254 0.0
C902 C 0.9214 0.57118 0.61013 0.0
C903 C 0.06451 0.55123 0.5458 0.0
C904 C 0.94074 0.5447 0.55946 0.0
C905 C 0.99937 0.62741 0.44081 0.0
C906 C 0.02572 0.65593 0.46001 0.0
C907 C 0.98111 0.46107 0.55103 0.0
C908 C 0.11701 0.47571 0.42173 0.0
C909 C 0.13596 0.44818 0.37123 0.0
C910 C 0.16153 0.48518 0.36387 0.0
C911 C 0.14247 0.51247 0.41423 0.0
C912 C 0.11272 0.44414 0.3996 0.0
C913 C 0.16419 0.51708 0.38506 0.0
C914 C 0.97241 0.4617 0.46635 0.0
C915 C 0.09656 0.46843 0.45318 0.0
H916 H 0.86328 0.52923 0.67339 0.0
H917 H 0.90091 0.47852 0.58819 0.0
H918 H 0.86559 0.47317 0.64124 0.0
H919 H 0.93754 0.59858 0.60132 0.0
H920 H 0.18053 0.48967 0.34253 0.0
H921 H 0.14605 0.53743 0.43096 0.0
H922 H 0.09212 0.41604 0.40542 0.0
H923 H 0.18416 0.54539 0.37939 0.0
Eu924 Eu 0.73664 0.79 0.26602 0.0
C925 C 0.78765 0.69303 0.30745 0.0
N926 N 0.80779 0.72811 0.29755 0.0
C927 C 0.84479 0.74997 0.34016 0.0
C928 C 0.79446 0.68569 0.33506 0.0
C929 C 0.83739 0.75568 0.31238 0.0
C930 C 0.82285 0.71504 0.35187 0.0
C931 C 0.74177 0.62643 0.29745 0.0
C932 C 0.7616 0.66363 0.2889 0.0
C933 C 0.74751 0.61947 0.32557 0.0
C934 C 0.77373 0.64903 0.34436 0.0
Eu935 Eu 0.79287 0.73421 0.25009 0.0
N936 N 0.75596 0.67129 0.26216 0.0
C937 C 0.71704 0.59726 0.27725 0.0
C938 C 0.73322 0.64275 0.24163 0.0
C939 C 0.71304 0.60541 0.24905 0.0
H940 H 0.85601 0.78181 0.30246 0.0
H941 H 0.69455 0.58295 0.23298 0.0
H942 H 0.69059 0.7518 0.20223 0.0
H943 H 0.82831 0.93967 0.30784 0.0
H944 H 0.7307 0.64889 0.21956 0.0
H945 H 0.70133 0.56832 0.28298 0.0
H946 H 0.79289 0.87103 0.31115 0.0
H947 H 0.86787 0.77226 0.35216 0.0
H948 H 0.73226 0.59118 0.33272 0.0
H949 H 0.77844 0.64299 0.36562 0.0
H950 H 0.68329 0.77308 0.1564 0.0
H951 H 0.82898 0.71053 0.37315 0.0
H952 H 0.82468 0.96544 0.26289 0.0
N953 N 0.72919 0.80728 0.22084 0.0
C954 C 0.74623 0.84525 0.21901 0.0
C955 C 0.70142 0.79362 0.1736 0.0
C956 C 0.7426 0.85874 0.19331 0.0
C957 C 0.706 0.78156 0.19936 0.0
C958 C 0.72006 0.83235 0.17038 0.0
N959 N 0.77157 0.85693 0.26691 0.0
C960 C 0.79205 0.88131 0.29063 0.0
C961 C 0.78717 0.91014 0.24032 0.0
C962 C 0.76815 0.87069 0.2425 0.0
C963 C 0.80944 0.93501 0.26387 0.0
C964 C 0.81171 0.92054 0.28919 0.0
H965 H 0.71652 0.84161 0.15035 0.0
H966 H 0.75918 0.90878 0.17158 0.0
H967 H 0.79834 0.95372 0.21253 0.0
O968 O 0.70784 0.82018 0.29082 0.0
O969 O 0.77573 0.79787 0.21989 0.0
O970 O 0.82264 0.79126 0.23089 0.0
O971 O 0.67714 0.75957 0.27575 0.0
O972 O 0.77442 0.80456 0.30261 0.0
O973 O 0.8214 0.79532 0.27354 0.0
O974 O 0.80452 0.70514 0.2051 0.0
O975 O 0.73606 0.70958 0.27784 0.0
O976 O 0.73469 0.76191 0.30684 0.0
O977 O 0.84121 0.72732 0.24147 0.0
O978 O 0.75828 0.72409 0.2125 0.0
O979 O 0.70977 0.72991 0.24135 0.0
C980 C 0.80982 0.80455 0.21442 0.0
C981 C 0.65545 0.78486 0.32438 0.0
C982 C 0.63787 0.81547 0.37387 0.0
C983 C 0.6119 0.77944 0.38283 0.0
C984 C 0.62919 0.74899 0.33338 0.0
C985 C 0.60801 0.7464 0.36279 0.0
C986 C 0.6605 0.81762 0.34533 0.0
C987 C 0.80831 0.81111 0.29828 0.0
C988 C 0.67626 0.78939 0.29269 0.0
C989 C 0.76152 0.89795 0.19123 0.0
C990 C 0.78378 0.92355 0.2146 0.0
C991 C 0.72505 0.72569 0.30386 0.0
C992 C 0.86573 0.72276 0.18794 0.0
C993 C 0.89561 0.70296 0.14033 0.0
C994 C 0.92439 0.74062 0.1402 0.0
C995 C 0.89476 0.7602 0.18835 0.0
C996 C 0.86587 0.69478 0.16364 0.0
C997 C 0.92373 0.76918 0.16408 0.0
C998 C 0.72354 0.71419 0.21719 0.0
C999 C 0.83501 0.7108 0.21259 0.0
H1000 H 0.59356 0.77674 0.40451 0.0
H1001 H 0.62471 0.72311 0.31764 0.0
H1002 H 0.58759 0.71873 0.36955 0.0
H1003 H 0.68119 0.84529 0.33865 0.0
H1004 H 0.94787 0.74764 0.12249 0.0
H1005 H 0.89488 0.78229 0.20714 0.0
H1006 H 0.84307 0.66598 0.16355 0.0
H1007 H 0.94611 0.79808 0.16421 0.0
Eu1008 Eu 0.76022 0.25019 0.76185 0.0
C1009 C 0.8716 0.1889 0.68513 0.0
N1010 N 0.83736 0.16727 0.6991 0.0
C1011 C 0.82561 0.1181 0.65493 0.0
C1012 C 0.88396 0.17596 0.65501 0.0
C1013 C 0.81453 0.13209 0.68485 0.0
C1014 C 0.86039 0.14019 0.63987 0.0
C1015 C 0.93012 0.24713 0.6872 0.0
C1016 C 0.89449 0.22415 0.70101 0.0
C1017 C 0.94235 0.23443 0.65706 0.0
C1018 C 0.91935 0.19898 0.64102 0.0
Eu1019 Eu 0.82128 0.19405 0.74888 0.0
N1020 N 0.88146 0.23641 0.72966 0.0
C1021 C 0.95239 0.28218 0.70414 0.0
C1022 C 0.90361 0.26954 0.74702 0.0
C1023 C 0.9392 0.29321 0.73434 0.0
H1024 H 0.78786 0.11465 0.69666 0.0
H1025 H 0.95651 0.31982 0.74792 0.0
H1026 H 0.79756 0.32433 0.81873 0.0
H1027 H 0.62418 0.12581 0.76193 0.0
H1028 H 0.89394 0.27771 0.77062 0.0
H1029 H 0.97996 0.30065 0.69435 0.0
H1030 H 0.68682 0.168 0.73897 0.0
H1031 H 0.80738 0.09025 0.64355 0.0
H1032 H 0.9696 0.25177 0.64599 0.0
H1033 H 0.92926 0.18955 0.61782 0.0
H1034 H 0.78044 0.34463 0.87421 0.0
H1035 H 0.86888 0.12924 0.6167 0.0
H1036 H 0.60284 0.14206 0.81734 0.0
N1037 N 0.74779 0.27211 0.81511 0.0
C1038 C 0.71358 0.25019 0.82898 0.0
C1039 C 0.76155 0.31783 0.8619 0.0
C1040 C 0.70231 0.26123 0.86038 0.0
C1041 C 0.77147 0.30591 0.83071 0.0
C1042 C 0.72689 0.29533 0.87687 0.0
N1043 N 0.70101 0.20636 0.78138 0.0
C1044 C 0.67796 0.17476 0.76333 0.0
C1045 C 0.65393 0.19364 0.82559 0.0
C1046 C 0.68953 0.21665 0.81166 0.0
C1047 C 0.63042 0.16044 0.8075 0.0
C1048 C 0.64241 0.1511 0.77621 0.0
H1049 H 0.7192 0.30482 0.90097 0.0
H1050 H 0.65778 0.24628 0.8983 0.0
H1051 H 0.61554 0.1872 0.86797 0.0
O1052 O 0.73027 0.25672 0.72985 0.0
O1053 O 0.7545 0.21251 0.79647 0.0
O1054 O 0.76161 0.16207 0.76837 0.0
O1055 O 0.75129 0.29899 0.77023 0.0
O1056 O 0.7586 0.21081 0.71633 0.0
O1057 O 0.76748 0.16169 0.72401 0.0
O1058 O 0.84554 0.19354 0.78978 0.0
O1059 O 0.83982 0.24089 0.71519 0.0
O1060 O 0.81532 0.28205 0.73389 0.0
O1061 O 0.83219 0.14745 0.7527 0.0
O1062 O 0.82352 0.23759 0.79188 0.0
O1063 O 0.81697 0.28354 0.77517 0.0
C1064 C 0.74572 0.17644 0.79189 0.0
C1065 C 0.7448 0.32045 0.72704 0.0
C1066 C 0.72718 0.35473 0.7007 0.0
C1067 C 0.7638 0.38335 0.69718 0.0
C1068 C 0.78133 0.34934 0.72316 0.0
C1069 C 0.79068 0.38063 0.70837 0.0
C1070 C 0.71768 0.32328 0.71577 0.0
C1071 C 0.7527 0.1755 0.70946 0.0
C1072 C 0.73437 0.28931 0.74534 0.0
C1073 C 0.66689 0.2382 0.87423 0.0
C1074 C 0.64281 0.20454 0.85693 0.0
C1075 C 0.83767 0.27203 0.71398 0.0
C1076 C 0.84081 0.13551 0.80311 0.0
C1077 C 0.86107 0.10705 0.83717 0.0
C1078 C 0.82387 0.08324 0.84608 0.0
C1079 C 0.80466 0.11049 0.81368 0.0
C1080 C 0.86949 0.13364 0.81515 0.0
C1081 C 0.79644 0.0849 0.83462 0.0
C1082 C 0.82957 0.27265 0.79373 0.0
C1083 C 0.84703 0.16211 0.7793 0.0
H1084 H 0.77154 0.40788 0.68582 0.0
H1085 H 0.80249 0.34804 0.73211 0.0
H1086 H 0.81883 0.40296 0.70574 0.0
H1087 H 0.68936 0.30138 0.71896 0.0
H1088 H 0.81576 0.06279 0.86226 0.0
H1089 H 0.78236 0.11059 0.80552 0.0
H1090 H 0.89778 0.15256 0.80754 0.0
H1091 H 0.76814 0.06587 0.84214 0.0
Eu1092 Eu 0.72271 0.7328 0.73116 0.0
C1093 C 0.84585 0.86626 0.83161 0.0
N1094 N 0.84561 0.84942 0.80095 0.0
C1095 C 0.8866 0.91066 0.7835 0.0
C1096 C 0.86551 0.90624 0.83914 0.0
C1097 C 0.86667 0.87098 0.77713 0.0
C1098 C 0.88572 0.92842 0.81457 0.0
C1099 C 0.82631 0.85999 0.88766 0.0
C1100 C 0.82678 0.84342 0.8557 0.0
C1101 C 0.8453 0.89978 0.8951 0.0
C1102 C 0.86494 0.92283 0.87092 0.0
Eu1103 Eu 0.81142 0.78177 0.79354 0.0
N1104 N 0.80871 0.80499 0.84792 0.0
C1105 C 0.80705 0.83602 0.91126 0.0
C1106 C 0.79063 0.78145 0.87081 0.0
C1107 C 0.78928 0.79657 0.90278 0.0
H1108 H 0.86929 0.85813 0.75319 0.0
H1109 H 0.77469 0.7778 0.92088 0.0
H1110 H 0.64847 0.65931 0.76293 0.0
H1111 H 0.77977 0.74578 0.60747 0.0
H1112 H 0.77751 0.75092 0.86447 0.0
H1113 H 0.80607 0.84765 0.93607 0.0
H1114 H 0.77229 0.76804 0.6645 0.0
H1115 H 0.90301 0.92749 0.76443 0.0
H1116 H 0.8453 0.913 0.91951 0.0
H1117 H 0.87988 0.95347 0.87708 0.0
H1118 H 0.60533 0.59212 0.74649 0.0
H1119 H 0.90133 0.95917 0.81941 0.0
H1120 H 0.74033 0.67842 0.58688 0.0
N1121 N 0.68037 0.6678 0.71795 0.0
C1122 C 0.68265 0.65315 0.68695 0.0
C1123 C 0.62729 0.60878 0.72959 0.0
C1124 C 0.65781 0.61511 0.67623 0.0
C1125 C 0.65232 0.64674 0.739 0.0
C1126 C 0.63028 0.59273 0.69814 0.0
N1127 N 0.73092 0.71375 0.67633 0.0
C1128 C 0.75576 0.73855 0.65592 0.0
C1129 C 0.71126 0.66298 0.63302 0.0
C1130 C 0.70874 0.67682 0.66554 0.0
C1131 C 0.73747 0.68801 0.61202 0.0
C1132 C 0.75977 0.72602 0.62354 0.0
H1133 H 0.6106 0.56346 0.69083 0.0
H1134 H 0.64164 0.57193 0.63525 0.0
H1135 H 0.68861 0.61419 0.59747 0.0
O1136 O 0.70975 0.76972 0.71375 0.0
O1137 O 0.76365 0.71207 0.71277 0.0
O1138 O 0.77762 0.72749 0.76248 0.0
O1139 O 0.67109 0.73252 0.74835 0.0
O1140 O 0.77452 0.78964 0.72363 0.0
O1141 O 0.8251 0.79431 0.74192 0.0
O1142 O 0.83142 0.75436 0.81602 0.0
O1143 O 0.77602 0.8097 0.81068 0.0
O1144 O 0.75591 0.77246 0.76823 0.0
O1145 O 0.8669 0.79032 0.77892 0.0
O1146 O 0.75566 0.73309 0.81097 0.0
O1147 O 0.70743 0.70859 0.77837 0.0
C1148 C 0.78544 0.71721 0.73275 0.0
C1149 C 0.64802 0.74958 0.7127 0.0
C1150 C 0.62529 0.7755 0.68348 0.0
C1151 C 0.59229 0.74114 0.68206 0.0
C1152 C 0.61507 0.71496 0.71137 0.0
C1153 C 0.58717 0.71098 0.69618 0.0
C1154 C 0.65291 0.77963 0.69869 0.0
C1155 C 0.80965 0.79965 0.72116 0.0
C1156 C 0.67746 0.75676 0.7297 0.0
C1157 C 0.66049 0.60104 0.64391 0.0
C1158 C 0.68717 0.62497 0.62239 0.0
C1159 C 0.7516 0.7957 0.79145 0.0
C1160 C 0.89177 0.76088 0.80247 0.0
C1161 C 0.90892 0.71946 0.81835 0.0
C1162 C 0.94541 0.74279 0.8068 0.0
C1163 C 0.92824 0.7841 0.79102 0.0
C1164 C 0.88232 0.72877 0.81623 0.0
C1165 C 0.95498 0.77508 0.79332 0.0
C1166 C 0.72107 0.711 0.80437 0.0
C1167 C 0.86306 0.76881 0.79908 0.0
H1168 H 0.57049 0.73793 0.67048 0.0
H1169 H 0.61073 0.69137 0.72226 0.0
H1170 H 0.56144 0.68471 0.6956 0.0
H1171 H 0.67807 0.80666 0.70015 0.0
H1172 H 0.96657 0.73651 0.80884 0.0
H1173 H 0.93602 0.80912 0.78035 0.0
H1174 H 0.85412 0.71056 0.82489 0.0
H1175 H 0.98315 0.79317 0.78473 0.0
Eu1176 Eu 0.4798 0.48523 0.47554 0.0
C1177 C 0.58791 0.60307 0.57578 0.0
N1178 N 0.59169 0.58872 0.54475 0.0
C1179 C 0.64383 0.64877 0.53399 0.0
C1180 C 0.61251 0.64102 0.58703 0.0
C1181 C 0.61961 0.61074 0.52403 0.0
C1182 C 0.64034 0.66397 0.56561 0.0
C1183 C 0.5567 0.59336 0.62923 0.0
C1184 C 0.56009 0.57946 0.59681 0.0
C1185 C 0.58179 0.6307 0.64041 0.0
C1186 C 0.60937 0.6546 0.6194 0.0
Eu1187 Eu 0.55319 0.52233 0.53351 0.0
N1188 N 0.53683 0.54276 0.58579 0.0
C1189 C 0.52867 0.56897 0.64971 0.0
C1190 C 0.51012 0.5186 0.60574 0.0
C1191 C 0.50519 0.53148 0.63788 0.0
H1192 H 0.62464 0.59894 0.50018 0.0
H1193 H 0.48393 0.51219 0.65366 0.0
H1194 H 0.40306 0.41365 0.50972 0.0
H1195 H 0.54757 0.48551 0.35521 0.0
H1196 H 0.49353 0.4891 0.59722 0.0
H1197 H 0.52525 0.57866 0.67477 0.0
H1198 H 0.53744 0.51321 0.41027 0.0
H1199 H 0.66589 0.66603 0.51746 0.0
H1200 H 0.58034 0.64109 0.66542 0.0
H1201 H 0.62849 0.68339 0.62854 0.0
H1202 H 0.3624 0.34529 0.4964 0.0
H1203 H 0.65974 0.6932 0.57338 0.0
H1204 H 0.50864 0.41684 0.33818 0.0
N1205 N 0.43889 0.4189 0.46677 0.0
C1206 C 0.44401 0.40143 0.43723 0.0
C1207 C 0.38554 0.36062 0.47973 0.0
C1208 C 0.42012 0.36249 0.42815 0.0
C1209 C 0.40934 0.3994 0.48751 0.0
C1210 C 0.39109 0.342 0.45006 0.0
N1211 N 0.4951 0.46037 0.42445 0.0
C1212 C 0.52115 0.48309 0.40317 0.0
C1213 C 0.47672 0.40594 0.38407 0.0
C1214 C 0.4722 0.42286 0.4153 0.0
C1215 C 0.5044 0.42877 0.3624 0.0
C1216 C 0.52656 0.46754 0.37195 0.0
H1217 H 0.3722 0.31208 0.44397 0.0
H1218 H 0.40709 0.31554 0.38999 0.0
H1219 H 0.45645 0.35357 0.35145 0.0
O1220 O 0.47584 0.52291 0.44916 0.0
O1221 O 0.51994 0.45844 0.4594 0.0
O1222 O 0.56494 0.48247 0.4926 0.0
O1223 O 0.42893 0.46853 0.45776 0.0
O1224 O 0.52746 0.54523 0.47535 0.0
O1225 O 0.57442 0.53872 0.48375 0.0
O1226 O 0.56344 0.49299 0.56453 0.0
O1227 O 0.51673 0.5536 0.54635 0.0
O1228 O 0.46333 0.51618 0.52231 0.0
O1229 O 0.60865 0.53983 0.5403 0.0
O1230 O 0.50502 0.46251 0.53545 0.0
O1231 O 0.45787 0.46788 0.52499 0.0
C1232 C 0.5493 0.45961 0.46733 0.0
C1233 C 0.41726 0.51769 0.45374 0.0
C1234 C 0.39461 0.55537 0.43838 0.0
C1235 C 0.36876 0.54688 0.46546 0.0
C1236 C 0.39162 0.51028 0.48081 0.0
C1237 C 0.36748 0.52472 0.4865 0.0
C1238 C 0.4188 0.54038 0.43264 0.0
C1239 C 0.56162 0.5535 0.46918 0.0
C1240 C 0.44118 0.50033 0.44651 0.0
C1241 C 0.42521 0.3454 0.39729 0.0
C1242 C 0.45331 0.36707 0.3753 0.0
C1243 C 0.48287 0.54572 0.54295 0.0
C1244 C 0.62615 0.51152 0.57249 0.0
C1245 C 0.64406 0.47817 0.59963 0.0
C1246 C 0.6806 0.50659 0.59487 0.0
C1247 C 0.66308 0.53914 0.56748 0.0
C1248 C 0.61663 0.48077 0.5887 0.0
C1249 C 0.69 0.53689 0.57893 0.0
C1250 C 0.47044 0.45312 0.53992 0.0
C1251 C 0.59872 0.51429 0.55883 0.0
H1252 H 0.349 0.55685 0.47021 0.0
H1253 H 0.38987 0.49287 0.49736 0.0
H1254 H 0.34742 0.51841 0.50717 0.0
H1255 H 0.43874 0.54621 0.41184 0.0
H1256 H 0.70199 0.50494 0.60312 0.0
H1257 H 0.67132 0.56259 0.55452 0.0
H1258 H 0.58844 0.45866 0.5921 0.0
H1259 H 0.7183 0.55848 0.57508 0.0
Eu1260 Eu 1.00317 0.46855 0.02757 0.0
C1261 C 0.12677 0.57575 0.93017 0.0
N1262 N 0.11244 0.58284 0.9601 0.0
C1263 C 0.17243 0.62531 0.97566 0.0
C1264 C 0.16486 0.59201 0.92227 0.0
C1265 C 0.13448 0.60832 0.98244 0.0
C1266 C 0.1877 0.61678 0.94556 0.0
C1267 C 0.1173 0.54495 0.87607 0.0
C1268 C 0.10315 0.55257 0.90737 0.0
C1269 C 0.15519 0.55998 0.86838 0.0
C1270 C 0.17891 0.5836 0.89137 0.0
Eu1271 Eu 0.04836 0.55448 0.96922 0.0
N1272 N 0.06661 0.53915 0.91532 0.0
C1273 C 0.09303 0.52345 0.85316 0.0
C1274 C 0.04337 0.52116 0.8924 0.0
C1275 C 0.05598 0.51204 0.86126 0.0
H1276 H 0.12273 0.61568 1.0054 0.0
H1277 H 0.0372 0.49677 0.8434 0.0
H1278 H 0.92901 0.39044 0.99875 0.0
H1279 H 0.02085 0.53874 0.14961 0.0
H1280 H 1.01508 0.51416 0.89781 0.0
H1281 H 0.10278 0.51677 0.82892 0.0
H1282 H 0.04047 0.52383 0.09389 0.0
H1283 H 0.18986 0.64519 0.99355 0.0
H1284 H 0.16649 0.55428 0.84449 0.0
H1285 H 0.2081 0.59567 0.88488 0.0
H1286 H 0.86455 0.34949 0.01688 0.0
H1287 H 0.21712 0.63006 0.94035 0.0
H1288 H 0.95581 0.50384 0.17055 0.0
N1289 N 0.94018 0.42818 0.0421 0.0
C1290 C 0.92727 0.43465 0.07274 0.0
C1291 C 0.88173 0.37367 0.03271 0.0
C1292 C 0.89061 0.41114 0.08434 0.0
C1293 C 0.91825 0.39752 0.02233 0.0
C1294 C 0.86774 0.38068 0.06376 0.0
N1295 N 0.9868 0.48426 0.08181 0.0
C1296 C 1.01184 0.50999 0.10195 0.0
C1297 C 0.93894 0.4699 0.12541 0.0
C1298 C 0.95121 0.4635 0.09313 0.0
C1299 C 0.96417 0.49805 0.14565 0.0
C1300 C 1.00086 0.51789 0.13391 0.0
H1301 H 0.83954 0.36185 0.07184 0.0
H1302 H 0.85014 0.40017 0.12552 0.0
H1303 H 0.8924 0.45185 0.16142 0.0
O1304 O 0.04142 0.45702 0.04305 0.0
O1305 O 0.98469 0.51236 0.04021 0.0
O1306 O 0.98907 0.52948 0.99113 0.0
O1307 O 0.99001 0.41011 0.02811 0.0
O1308 O 0.05701 0.52198 0.03733 0.0
O1309 O 0.04977 0.56778 0.02191 0.0
O1310 O 0.04578 0.58946 0.93946 0.0
O1311 O 0.08277 0.52913 0.9747 0.0
O1312 O 0.03274 0.4729 0.97877 0.0
O1313 O 0.0602 0.61281 0.98718 0.0
O1314 O 0.999 0.49966 0.9511 0.0
O1315 O 0.97648 0.44997 0.98235 0.0
C1316 C 0.97493 0.52565 0.02098 0.0
C1317 C 1.01297 0.4036 0.07013 0.0
C1318 C 0.04042 0.39454 0.1089 0.0
C1319 C 1.00542 0.37129 0.12357 0.0
C1320 C 0.978 0.3804 0.08477 0.0
C1321 C 0.97436 0.36445 0.11156 0.0
C1322 C 0.04381 0.41095 0.08255 0.0
C1323 C 0.06474 0.55755 0.03869 0.0
C1324 C 1.01867 0.42056 0.04179 0.0
C1325 C 0.87818 0.41795 0.11627 0.0
C1326 C 0.90225 0.44735 0.13672 0.0
C1327 C 0.06806 0.49268 0.97494 0.0
C1328 C 0.0246 0.63155 0.96844 0.0
C1329 C 0.97056 0.62949 0.95578 0.0
C1330 C 0.9737 0.65775 0.98167 0.0
C1331 C 0.02748 0.66001 0.99396 0.0
C1332 C 0.99604 0.6164 0.94947 0.0
C1333 C 1.00196 0.67278 1.00063 0.0
C1334 C 0.97647 0.46436 0.95787 0.0
C1335 C 0.05103 0.61743 0.96224 0.0
H1336 H 1.00203 0.35742 0.14357 0.0
H1337 H 0.95364 0.37446 0.07554 0.0
H1338 H 0.94747 0.34623 0.12267 0.0
H1339 H 0.0707 0.42911 0.07122 0.0
H1340 H 0.95515 0.66929 0.98662 0.0
H1341 H 0.0494 0.67227 0.00881 0.0
H1342 H 0.99347 0.5943 0.92982 0.0
H1343 H 1.00438 0.69481 0.02028 0.0
H1344 H 0.15587 0.18159 0.81299 0.0
H1345 H 0.13337 0.06518 0.94986 0.0
H1346 H 0.24698 0.18822 0.84753 0.0
H1347 H 0.05536 0.10117 0.94721 0.0
H1348 H 0.17202 0.10206 0.90628 0.0
H1349 H 0.11521 0.14485 0.85654 0.0
C1350 C 0.16736 0.17519 0.82946 0.0
C1351 C 0.205 0.18753 0.82599 0.0
C1352 C 0.14647 0.10196 0.91527 0.0
C1353 C 0.15856 0.14513 0.87562 0.0
C1354 C 0.12437 0.08086 0.94014 0.0
C1355 C 0.09116 0.08026 0.95242 0.0
C1356 C 0.13513 0.12217 0.902 0.0
C1357 C 0.08091 0.10112 0.93871 0.0
C1358 C 0.14414 0.15428 0.85434 0.0
C1359 C 0.21822 0.17864 0.84846 0.0
N1360 N 0.10262 0.12097 0.91413 0.0
N1361 N 0.19513 0.15781 0.87192 0.0
H1362 H 0.10035 0.96257 0.02653 0.0
H1363 H 0.11532 0.92177 0.19837 0.0
H1364 H 0.04077 0.98683 0.1119 0.0
H1365 H 0.17748 0.90691 0.11086 0.0
H1366 H 0.08491 0.94166 0.1689 0.0
H1367 H 0.12586 0.94006 0.05759 0.0
C1368 C 0.09253 0.9636 0.0519 0.0
C1369 C 0.06819 0.97782 0.06601 0.0
C1370 C 0.10492 0.93366 0.15599 0.0
C1371 C 0.09816 0.95053 0.10307 0.0
C1372 C 0.12213 0.92163 0.17294 0.0
C1373 C 0.14922 0.91165 0.15756 0.0
C1374 C 0.11442 0.93612 0.12292 0.0
C1375 C 0.15685 0.91364 0.12434 0.0
C1376 C 0.10736 0.95044 0.06988 0.0
C1377 C 0.0598 0.97747 0.09943 0.0
N1378 N 0.14001 0.92541 0.10866 0.0
N1379 N 0.07442 0.96424 0.11645 0.0
H1380 H 0.42327 0.89774 0.44447 0.0
H1381 H 0.31888 0.91651 0.31901 0.0
H1382 H 0.44146 0.00723 0.43112 0.0
H1383 H 0.29729 0.81115 0.34595 0.0
H1384 H 0.36441 0.95158 0.35785 0.0
H1385 H 0.37829 0.86716 0.40693 0.0
C1386 C 0.41766 0.91558 0.4341 0.0
C1387 C 0.43627 0.9554 0.442 0.0
C1388 C 0.34943 0.92077 0.35528 0.0
C1389 C 0.38414 0.91984 0.39714 0.0
C1390 C 0.32326 0.90069 0.33314 0.0
C1391 C 0.30358 0.86054 0.32901 0.0
C1392 C 0.35621 0.90065 0.37343 0.0
C1393 C 0.3112 0.84192 0.34798 0.0
C1394 C 0.39184 0.89791 0.41217 0.0
C1395 C 0.42787 0.97647 0.42631 0.0
N1396 N 0.33658 0.86191 0.36894 0.0
N1397 N 0.40262 0.95855 0.40475 0.0
H1398 H 0.36841 0.12015 0.65318 0.0
H1399 H 0.508 0.08443 0.56394 0.0
H1400 H 0.4316 0.19491 0.58112 0.0
H1401 H 0.4037 0.98997 0.54074 0.0
H1402 H 0.48049 0.12593 0.57882 0.0
H1403 H 0.37588 0.06951 0.61851 0.0
C1404 C 0.38273 0.12589 0.62974 0.0
C1405 C 0.4004 0.16267 0.62061 0.0
C1406 C 0.46387 0.09627 0.56977 0.0
C1407 C 0.40985 0.10468 0.58161 0.0
C1408 C 0.47946 0.07279 0.5613 0.0
C1409 C 0.45834 0.03463 0.54967 0.0
C1410 C 0.42656 0.08083 0.56801 0.0
C1411 C 0.42086 0.0198 0.5488 0.0
C1412 C 0.38692 0.09668 0.60999 0.0
C1413 C 0.41894 0.1677 0.58989 0.0
N1414 N 0.40579 0.04303 0.5583 0.0
N1415 N 0.42447 0.13942 0.57192 0.0
H1416 H 0.08074 0.82082 0.58217 0.0
H1417 H 0.27415 0.93885 0.65041 0.0
H1418 H 0.16175 0.93071 0.55423 0.0
H1419 H 0.20782 0.81677 0.64482 0.0
H1420 H 0.23095 0.94033 0.62168 0.0
H1421 H 0.12375 0.82367 0.61336 0.0
C1422 C 0.10758 0.84573 0.58276 0.0
C1423 C 0.11786 0.87525 0.56501 0.0
C1424 C 0.22597 0.91326 0.62667 0.0
C1425 C 0.16738 0.87873 0.60098 0.0
C1426 C 0.25053 0.91236 0.64306 0.0
C1427 C 0.24453 0.87758 0.65001 0.0
C1428 C 0.19483 0.87921 0.61768 0.0
C1429 C 0.21365 0.84412 0.63977 0.0
C1430 C 0.13215 0.84726 0.60052 0.0
C1431 C 0.15269 0.90727 0.56745 0.0
N1432 N 0.18984 0.84581 0.62439 0.0
N1433 N 0.17636 0.90807 0.58491 0.0
H1434 H 0.41199 0.78165 0.79025 0.0
H1435 H 0.41732 0.93628 0.93808 0.0
H1436 H 0.36129 0.85008 0.79325 0.0
H1437 H 0.51046 0.91863 0.90726 0.0
H1438 H 0.39043 0.89693 0.88979 0.0
H1439 H 0.44237 0.82316 0.83735 0.0
C1440 C 0.4073 0.80538 0.80068 0.0
C1441 C 0.38417 0.81238 0.78742 0.0
C1442 C 0.41684 0.9018 0.89351 0.0
C1443 C 0.41817 0.85951 0.84198 0.0
C1444 C 0.43253 0.92471 0.92113 0.0
C1445 C 0.46695 0.93205 0.92688 0.0
C1446 C 0.43483 0.88461 0.87153 0.0
C1447 C 0.48412 0.91436 0.90407 0.0
C1448 C 0.42471 0.82911 0.82754 0.0
C1449 C 0.37911 0.84363 0.80226 0.0
N1450 N 0.46785 0.89136 0.87771 0.0
N1451 N 0.3955 0.86556 0.82874 0.0
H1452 H 0.40688 0.13604 0.09352 0.0
H1453 H 0.33661 0.20643 0.26342 0.0
H1454 H 0.35328 0.06394 0.16791 0.0
H1455 H 0.31803 0.22039 0.17405 0.0
H1456 H 0.37191 0.17507 0.23433 0.0
H1457 H 0.40529 0.18902 0.1308 0.0
C1458 C 0.3957 0.13177 0.11797 0.0
C1459 C 0.37909 0.09566 0.12774 0.0
C1460 C 0.36072 0.1859 0.22135 0.0
C1461 C 0.37779 0.15555 0.16994 0.0
C1462 C 0.34053 0.20334 0.23773 0.0
C1463 C 0.32393 0.21481 0.22079 0.0
C1464 C 0.36479 0.18116 0.18813 0.0
C1465 C 0.32977 0.21086 0.18771 0.0
C1466 C 0.39503 0.16189 0.1391 0.0
C1467 C 0.36526 0.09132 0.15954 0.0
N1468 N 0.3497 0.19409 0.17234 0.0
N1469 N 0.36434 0.12098 0.17962 0.0
H1470 H 0.08593 0.12587 0.4718 0.0
H1471 H 0.24248 0.17112 0.33236 0.0
H1472 H 0.09275 0.03147 0.41096 0.0
H1473 H 0.16789 0.21431 0.33874 0.0
H1474 H 0.19962 0.12741 0.37102 0.0
H1475 H 0.12771 0.16769 0.43219 0.0
C1476 C 0.0963 0.11387 0.45034 0.0
C1477 C 0.08623 0.07505 0.4451 0.0
C1478 C 0.193 0.14672 0.36389 0.0
C1479 C 0.135 0.12305 0.40056 0.0
C1480 C 0.21734 0.17163 0.34212 0.0
C1481 C 0.20869 0.19639 0.33262 0.0
C1482 C 0.1607 0.1478 0.37683 0.0
C1483 C 0.17563 0.1958 0.34561 0.0
C1484 C 0.1202 0.1378 0.4279 0.0
C1485 C 0.10068 0.06128 0.41669 0.0
N1486 N 0.15299 0.17223 0.36742 0.0
N1487 N 0.12481 0.08537 0.39565 0.0
H1488 H 0.82934 0.27344 0.23413 0.0
H1489 H 0.85946 0.09134 0.16894 0.0
H1490 H 0.74023 0.15976 0.24095 0.0
H1491 H 0.93162 0.20246 0.14015 0.0
H1492 H 0.81607 0.11388 0.19674 0.0
H1493 H 0.86714 0.24726 0.2019 0.0
C1494 C 0.81724 0.24295 0.22856 0.0
C1495 C 0.78064 0.21933 0.24006 0.0
C1496 C 0.84104 0.13316 0.1838 0.0
C1497 C 0.82564 0.1881 0.20365 0.0
C1498 C 0.86577 0.12007 0.1675 0.0
C1499 C 0.89927 0.14454 0.1512 0.0
C1500 C 0.84975 0.1714 0.18448 0.0
C1501 C 0.90612 0.1821 0.1517 0.0
C1502 C 0.83929 0.2278 0.21025 0.0
C1503 C 0.76799 0.17961 0.23285 0.0
N1504 N 0.88206 0.19419 0.16797 0.0
N1505 N 0.79026 0.16544 0.2155 0.0
H1506 H 0.06771 0.53489 0.39536 0.0
H1507 H 0.16163 0.75272 0.35953 0.0
H1508 H 0.0922 0.62954 0.4695 0.0
H1509 H 0.16809 0.66328 0.29072 0.0
H1510 H 0.12989 0.70727 0.39894 0.0
H1511 H 0.09919 0.58017 0.35593 0.0
C1512 C 0.07942 0.56512 0.40349 0.0
C1513 C 0.07601 0.57802 0.43614 0.0
C1514 C 0.13821 0.69758 0.37518 0.0
C1515 C 0.11214 0.63066 0.39055 0.0
C1516 C 0.15624 0.7236 0.35252 0.0
C1517 C 0.16794 0.7123 0.32144 0.0
C1518 C 0.1311 0.65947 0.36688 0.0
C1519 C 0.15997 0.67382 0.31421 0.0
C1520 C 0.0974 0.5911 0.38084 0.0
C1521 C 0.09244 0.61786 0.44477 0.0
N1522 N 0.14217 0.64911 0.33646 0.0
N1523 N 0.10926 0.64247 0.42237 0.0
H1524 H 0.52794 0.86189 0.62553 0.0
H1525 H 0.65745 0.79688 0.62541 0.0
H1526 H 0.6175 0.88603 0.55148 0.0
H1527 H 0.60655 0.82857 0.71366 0.0
H1528 H 0.65647 0.84525 0.60176 0.0
H1529 H 0.56672 0.86809 0.66303 0.0
C1530 C 0.55612 0.8693 0.61751 0.0
C1531 C 0.56949 0.87186 0.58554 0.0
C1532 C 0.64652 0.84262 0.62661 0.0
C1533 C 0.6134 0.87768 0.62741 0.0
C1534 C 0.64666 0.81469 0.63981 0.0
C1535 C 0.6304 0.80809 0.67075 0.0
C1536 C 0.62888 0.86275 0.64437 0.0
C1537 C 0.61781 0.83221 0.68917 0.0
C1538 C 0.57845 0.87325 0.63884 0.0
C1539 C 0.60625 0.88253 0.57601 0.0
N1540 N 0.61641 0.85804 0.67542 0.0
N1541 N 0.62684 0.88386 0.59673 0.0
H1542 H 0.4876 0.47017 0.90745 0.0
H1543 H 0.29477 0.30277 0.86192 0.0
H1544 H 0.4135 0.38924 0.97187 0.0
H1545 H 0.38861 0.34398 0.79176 0.0
H1546 H 0.33485 0.3409 0.90378 0.0
H1547 H 0.44861 0.43007 0.86519 0.0
C1548 C 0.46293 0.44398 0.91258 0.0
C1549 C 0.45331 0.43274 0.94288 0.0
C1550 C 0.34656 0.34145 0.8792 0.0
C1551 C 0.40876 0.38754 0.89536 0.0
C1552 C 0.32378 0.32008 0.8554 0.0
C1553 C 0.33859 0.32047 0.82352 0.0
C1554 C 0.38413 0.36384 0.87087 0.0
C1555 C 0.3763 0.34298 0.81616 0.0
C1556 C 0.44095 0.42113 0.88857 0.0
C1557 C 0.42158 0.39851 0.9486 0.0
N1558 N 0.39786 0.36407 0.83972 0.0
N1559 N 0.40002 0.37718 0.92504 0.0
H1560 H 0.79274 0.80051 0.36023 0.0
H1561 H 0.96821 0.9867 0.41714 0.0
H1562 H 0.8763 0.87213 0.29355 0.0
H1563 H 0.92358 0.88482 0.46123 0.0
H1564 H 0.9278 0.94986 0.37557 0.0
H1565 H 0.83379 0.836 0.40203 0.0
C1566 C 0.81956 0.82417 0.35467 0.0
C1567 C 0.83142 0.8339 0.32377 0.0
C1568 C 0.92704 0.9356 0.39428 0.0
C1569 C 0.87775 0.87437 0.37094 0.0
C1570 C 0.9499 0.95654 0.41804 0.0
C1571 C 0.94919 0.93864 0.44255 0.0
C1572 C 0.90278 0.89673 0.39544 0.0
C1573 C 0.92502 0.89952 0.44257 0.0
C1574 C 0.84295 0.84399 0.37828 0.0
C1575 C 0.86645 0.86405 0.31725 0.0
N1576 N 0.90239 0.8798 0.41945 0.0
N1577 N 0.88838 0.88363 0.34081 0.0
H1578 H 0.4091 0.52854 0.55489 0.0
H1579 H 0.42824 0.7324 0.64583 0.0
H1580 H 0.51398 0.62018 0.57918 0.0
H1581 H 0.33156 0.62624 0.66251 0.0
H1582 H 0.45902 0.69622 0.61503 0.0
H1583 H 0.38045 0.566 0.58616 0.0
C1584 C 0.42656 0.55652 0.5666 0.0
C1585 C 0.46484 0.57003 0.5636 0.0
C1586 C 0.431 0.68061 0.62526 0.0
C1587 C 0.43067 0.61544 0.60045 0.0
C1588 C 0.41302 0.70159 0.64304 0.0
C1589 C 0.3764 0.68331 0.65769 0.0
C1590 C 0.41262 0.64007 0.62042 0.0
C1591 C 0.35946 0.64268 0.65237 0.0
C1592 C 0.40976 0.57825 0.58483 0.0
C1593 C 0.48464 0.60736 0.58015 0.0
N1594 N 0.3771 0.62317 0.63439 0.0
N1595 N 0.46774 0.62825 0.59708 0.0
H1596 H 0.63605 0.08738 0.96972 0.0
H1597 H 0.68634 0.10535 0.78519 0.0
H1598 H 0.55247 0.04224 0.90711 0.0
H1599 H 0.74759 0.1967 0.85524 0.0
H1600 H 0.6411 0.07156 0.82828 0.0
H1601 H 0.6822 0.11806 0.92617 0.0
C1602 C 0.62748 0.0837 0.94678 0.0
C1603 C 0.59048 0.06234 0.94194 0.0
C1604 C 0.66476 0.09878 0.83408 0.0
C1605 C 0.64288 0.09656 0.89223 0.0
C1606 C 0.69061 0.11773 0.80965 0.0
C1607 C 0.72076 0.15339 0.81691 0.0
C1608 C 0.66988 0.11528 0.86579 0.0
C1609 C 0.72476 0.16898 0.84885 0.0
C1610 C 0.65372 0.10127 0.92207 0.0
C1611 C 0.58076 0.0586 0.91181 0.0
N1612 N 0.69974 0.14969 0.87219 0.0
N1613 N 0.60685 0.07534 0.88797 0.0
H1614 H 0.09831 0.39216 0.07039 0.0
H1615 H 0.14066 0.3338 0.20994 0.0
H1616 H 0.05776 0.40601 0.1691 0.0
H1617 H 0.14901 0.28909 0.11098 0.0
H1618 H 0.13858 0.38629 0.19488 0.0
H1619 H 0.14477 0.38355 0.08604 0.0
C1620 C 0.09982 0.39456 0.09547 0.0
C1621 C 0.07328 0.39833 0.11856 0.0
C1622 C 0.14177 0.36552 0.17643 0.0
C1623 C 0.12569 0.38752 0.13623 0.0
C1624 C 0.14277 0.33544 0.18494 0.0
C1625 C 0.14388 0.30653 0.16158 0.0
C1626 C 0.14097 0.3661 0.14448 0.0
C1627 C 0.14675 0.31013 0.12967 0.0
C1628 C 0.12639 0.38961 0.1043 0.0
C1629 C 0.0768 0.40151 0.15056 0.0
N1630 N 0.14449 0.33911 0.12202 0.0
N1631 N 0.10205 0.39509 0.15849 0.0
H1632 H 0.5988 0.61565 0.97683 0.0
H1633 H 0.67342 0.63526 0.79335 0.0
H1634 H 0.57364 0.52011 0.90287 0.0
H1635 H 0.7115 0.72941 0.86813 0.0
H1636 H 0.63146 0.59339 0.83275 0.0
H1637 H 0.63518 0.65883 0.9368 0.0
C1638 C 0.60075 0.60381 0.95218 0.0
C1639 C 0.58347 0.56434 0.94314 0.0
C1640 C 0.64892 0.62323 0.84059 0.0
C1641 C 0.62495 0.61328 0.89744 0.0
C1642 C 0.67259 0.6471 0.81809 0.0
C1643 C 0.69575 0.68564 0.8277 0.0
C1644 C 0.64848 0.63817 0.87285 0.0
C1645 C 0.6944 0.69961 0.86 0.0
C1646 C 0.62157 0.6284 0.92939 0.0
C1647 C 0.58678 0.5504 0.91091 0.0
N1648 N 0.6711 0.67585 0.88152 0.0
N1649 N 0.60725 0.57486 0.88924 0.0
H1650 H 0.66622 0.35193 0.18705 0.0
H1651 H 0.6028 0.42762 0.08698 0.0
H1652 H 0.6645 0.45648 0.22935 0.0
H1653 H 0.52858 0.31261 0.10853 0.0
H1654 H 0.62976 0.44174 0.13576 0.0
H1655 H 0.61983 0.33751 0.1547 0.0
C1656 C 0.65573 0.3716 0.19043 0.0
C1657 C 0.66989 0.40577 0.21139 0.0
C1658 C 0.60701 0.41371 0.12998 0.0
C1659 C 0.61772 0.38975 0.17254 0.0
C1660 C 0.59138 0.40549 0.10213 0.0
C1661 C 0.56363 0.36846 0.09298 0.0
C1662 C 0.59559 0.38452 0.14825 0.0
C1663 C 0.55079 0.34111 0.11376 0.0
C1664 C 0.62926 0.36326 0.17155 0.0
C1665 C 0.65552 0.43036 0.21307 0.0
N1666 N 0.56759 0.34937 0.13997 0.0
N1667 N 0.63088 0.42235 0.19327 0.0
H1668 H 0.90797 0.39925 0.47987 0.0
H1669 H 0.80174 0.39231 0.35134 0.0
H1670 H 0.97192 0.46962 0.40565 0.0
H1671 H 0.79839 0.28822 0.36158 0.0
H1672 H 0.85449 0.42822 0.38244 0.0
H1673 H 0.85696 0.3635 0.44704 0.0
C1674 C 0.91127 0.4068 0.4565 0.0
C1675 C 0.94403 0.43692 0.4451 0.0
C1676 C 0.84195 0.39748 0.37761 0.0
C1677 C 0.88575 0.39788 0.4086 0.0
C1678 C 0.81192 0.37699 0.36002 0.0
C1679 C 0.79601 0.33718 0.35308 0.0
C1680 C 0.85493 0.37779 0.38935 0.0
C1681 C 0.80984 0.31882 0.3658 0.0
C1682 C 0.88227 0.3867 0.43801 0.0
C1683 C 0.94712 0.44605 0.41486 0.0
N1684 N 0.83829 0.33921 0.38347 0.0
N1685 N 0.91798 0.42696 0.39773 0.0
H1686 H 0.56193 0.61791 0.46058 0.0
H1687 H 0.68648 0.64809 0.29897 0.0
H1688 H 0.61752 0.55221 0.42657 0.0
H1689 H 0.70304 0.74799 0.3655 0.0
H1690 H 0.64963 0.60828 0.3408 0.0
H1691 H 0.60239 0.66246 0.42182 0.0
C1692 C 0.58263 0.61289 0.44495 0.0
C1693 C 0.58643 0.58134 0.44673 0.0
C1694 C 0.66152 0.63894 0.3463 0.0
C1695 C 0.63191 0.63145 0.40208 0.0
C1696 C 0.68301 0.6618 0.32251 0.0
C1697 C 0.69956 0.70166 0.32893 0.0
C1698 C 0.65482 0.65575 0.37665 0.0
C1699 C 0.69153 0.71745 0.35954 0.0
C1700 C 0.60575 0.63838 0.42306 0.0
C1701 C 0.61382 0.57626 0.42608 0.0
N1702 N 0.66955 0.69443 0.38228 0.0
N1703 N 0.63508 0.60065 0.40427 0.0
H1704 H 0.8212 0.26219 0.85541 0.0
H1705 H 0.99541 0.44749 0.89656 0.0
H1706 H 0.87796 0.34638 0.79052 0.0
H1707 H 0.90288 0.41877 0.96804 0.0
H1708 H 0.95514 0.40198 0.85742 0.0
H1709 H 0.85264 0.31163 0.89867 0.0
C1710 C 0.84052 0.29098 0.8504 0.0
C1711 C 0.8481 0.30055 0.81963 0.0
C1712 C 0.94358 0.40622 0.88156 0.0
C1713 C 0.88301 0.35593 0.86795 0.0
C1714 C 0.96638 0.43253 0.90361 0.0
C1715 C 0.95192 0.43789 0.93479 0.0
C1716 C 0.90636 0.38442 0.89118 0.0
C1717 C 0.91456 0.41546 0.9438 0.0
C1718 C 0.85774 0.319 0.87494 0.0
C1719 C 0.87213 0.33814 0.81402 0.0
N1720 N 0.89268 0.38916 0.9219 0.0
N1721 N 0.8893 0.36453 0.83798 0.0
H1722 H 0.85852 0.79018 0.17007 0.0
H1723 H 0.91283 0.96192 0.07349 0.0
H1724 H 0.81748 0.86923 0.19774 0.0
H1725 H 0.97036 0.89758 0.05402 0.0
H1726 H 0.87533 0.92554 0.11741 0.0
H1727 H 0.89813 0.82654 0.12618 0.0
C1728 C 0.85804 0.81537 0.16719 0.0
C1729 C 0.83433 0.8265 0.18781 0.0
C1730 C 0.89611 0.91927 0.10353 0.0
C1731 C 0.87896 0.868 0.13716 0.0
C1732 C 0.91756 0.94008 0.07833 0.0
C1733 C 0.94495 0.93299 0.05988 0.0
C1734 C 0.90161 0.89065 0.11034 0.0
C1735 C 0.94954 0.90407 0.06743 0.0
C1736 C 0.88039 0.83596 0.14194 0.0
C1737 C 0.83421 0.85884 0.18229 0.0
N1738 N 0.92814 0.884 0.09196 0.0
N1739 N 0.85596 0.87831 0.15768 0.0
H1740 H 0.89517 0.06208 0.81394 0.0
H1741 H 0.95991 0.07656 0.98372 0.0
H1742 H 0.88426 0.13436 0.89775 0.0
H1743 H 0.97056 1.00137 0.90211 0.0
H1744 H 0.93459 0.09858 0.95203 0.0
H1745 H 0.9249 0.04181 0.84352 0.0
C1746 C 0.90009 0.07495 0.8382 0.0
C1747 C 0.88811 0.10175 0.85235 0.0
C1748 C 0.94241 0.07725 0.94074 0.0
C1749 C 0.92158 0.07656 0.88793 0.0
C1750 C 0.95711 0.06428 0.95911 0.0
C1751 C 0.96813 0.03636 0.94633 0.0
C1752 C 0.93799 0.06282 0.90839 0.0
C1753 C 0.96308 0.02266 0.91374 0.0
C1754 C 0.91677 0.06273 0.85544 0.0
C1755 C 0.89394 0.11502 0.88482 0.0
N1756 N 0.94869 0.03575 0.89632 0.0
N1757 N 0.90991 0.10259 0.90102 0.0
H1758 H 0.71125 0.09582 0.69343 0.0
H1759 H 0.60369 0.11821 0.57338 0.0
H1760 H 0.73741 0.20222 0.66523 0.0
H1761 H 0.59495 0.00956 0.57591 0.0
H1762 H 0.64959 0.14781 0.6105 0.0
H1763 H 0.66651 0.06199 0.65377 0.0
C1764 C 0.70811 0.1121 0.67881 0.0
C1765 C 0.7284 0.1522 0.68318 0.0
C1766 C 0.6378 0.11746 0.60293 0.0
C1767 C 0.67654 0.1136 0.63802 0.0
C1768 C 0.61149 0.10043 0.58138 0.0
C1769 C 0.59525 0.06113 0.5707 0.0
C1770 C 0.64816 0.09531 0.61477 0.0
C1771 C 0.60646 0.03993 0.58314 0.0
C1772 C 0.68234 0.09276 0.65625 0.0
C1773 C 0.72249 0.17145 0.66344 0.0
N1774 N 0.6319 0.05712 0.60445 0.0
N1775 N 0.69728 0.15222 0.64227 0.0
H1776 H 0.56528 0.97271 0.4137 0.0
H1777 H 0.62721 0.83541 0.43868 0.0
H1778 H 0.60757 0.99248 0.502 0.0
H1779 H 0.64836 0.8759 0.34841 0.0
H1780 H 0.61901 0.89029 0.46474 0.0
H1781 H 0.59475 0.93437 0.39023 0.0
C1782 C 0.58108 0.96897 0.42795 0.0
C1783 C 0.58362 0.98459 0.45971 0.0
C1784 C 0.62663 0.88745 0.43935 0.0
C1785 C 0.61663 0.94068 0.43364 0.0
C1786 C 0.63082 0.85603 0.42445 0.0
C1787 C 0.63819 0.85073 0.39127 0.0
C1788 C 0.62941 0.91306 0.42072 0.0
C1789 C 0.64315 0.87868 0.37402 0.0
C1790 C 0.59798 0.94738 0.41467 0.0
C1791 C 0.60463 0.97982 0.47747 0.0
N1792 N 0.63821 0.90827 0.38891 0.0
N1793 N 0.61979 0.95723 0.46437 0.0
H1794 H 0.84053 0.14613 0.31904 0.0
H1795 H 0.89078 0.12343 0.47887 0.0
H1796 H 0.77217 0.14029 0.40773 0.0
H1797 H 0.96432 0.15198 0.39282 0.0
H1798 H 0.84483 0.12487 0.45367 0.0
H1799 H 0.88429 0.14461 0.34615 0.0
C1800 C 0.83478 0.14459 0.34434 0.0
C1801 C 0.8026 0.14322 0.3611 0.0
C1802 C 0.87108 0.13089 0.44041 0.0
C1803 C 0.85282 0.14126 0.39258 0.0
C1804 C 0.89721 0.1298 0.45467 0.0
C1805 C 0.93165 0.1379 0.43802 0.0
C1806 C 0.87933 0.1397 0.40916 0.0
C1807 C 0.93848 0.14616 0.4068 0.0
C1808 C 0.85985 0.14378 0.35987 0.0
C1809 C 0.79678 0.14161 0.39396 0.0
N1810 N 0.91267 0.14678 0.39348 0.0
N1811 N 0.82154 0.1404 0.40864 0.0
H1812 H 0.61847 0.22335 0.22524 0.0
H1813 H 0.62112 0.07801 0.0728 0.0
H1814 H 0.67767 0.16268 0.21879 0.0
H1815 H 0.52086 0.08018 0.1102 0.0
H1816 H 0.64796 0.11775 0.12107 0.0
H1817 H 0.588 0.18049 0.17858 0.0
C1818 C 0.62497 0.20099 0.21417 0.0
C1819 C 0.6505 0.19655 0.22638 0.0
C1820 C 0.61998 0.1093 0.11883 0.0
C1821 C 0.61649 0.14803 0.17212 0.0
C1822 C 0.6043 0.08602 0.09126 0.0
C1823 C 0.56791 0.07409 0.08737 0.0
C1824 C 0.5999 0.12243 0.14262 0.0
C1825 C 0.54874 0.0879 0.11195 0.0
C1826 C 0.60754 0.17651 0.18753 0.0
C1827 C 0.6579 0.16705 0.21066 0.0
N1828 N 0.56496 0.11141 0.13819 0.0
N1829 N 0.64149 0.14446 0.18432 0.0
H1830 H 0.69521 0.76811 0.83698 0.0
H1831 H 0.67555 0.9433 0.8387 0.0
H1832 H 0.73767 0.83676 0.7607 0.0
H1833 H 0.62364 0.86864 0.91113 0.0
H1834 H 0.67765 0.89115 0.80082 0.0
H1835 H 0.64982 0.78932 0.85488 0.0
C1836 C 0.69417 0.78697 0.82363 0.0
C1837 C 0.72014 0.80151 0.79789 0.0
C1838 C 0.66497 0.88574 0.82478 0.0
C1839 C 0.66964 0.82674 0.81842 0.0
C1840 C 0.66399 0.91557 0.84632 0.0
C1841 C 0.65074 0.91029 0.87806 0.0
C1842 C 0.65413 0.85121 0.83563 0.0
C1843 C 0.63497 0.87383 0.88687 0.0
C1844 C 0.66825 0.79894 0.83364 0.0
C1845 C 0.71811 0.82559 0.78101 0.0
N1846 N 0.6381 0.84581 0.86594 0.0
N1847 N 0.69363 0.83812 0.79196 0.0
H1848 H 0.89973 0.93666 0.56863 0.0
H1849 H 0.878 0.81069 0.69669 0.0
H1850 H 0.9872 0.92037 0.58243 0.0
H1851 H 0.7975 0.841 0.68794 0.0
H1852 H 0.918 0.84835 0.65402 0.0
H1853 H 0.86112 0.89902 0.61097 0.0
C1854 C 0.91095 0.9258 0.58113 0.0
C1855 C 0.94683 0.93276 0.57293 0.0
C1856 C 0.89158 0.84671 0.66148 0.0
C1857 C 0.90267 0.88814 0.62085 0.0
C1858 C 0.86879 0.82535 0.68586 0.0
C1859 C 0.83431 0.82262 0.69578 0.0
C1860 C 0.87971 0.86535 0.64694 0.0
C1861 C 0.8237 0.84204 0.68089 0.0
C1862 C 0.88882 0.90377 0.60507 0.0
C1863 C 0.95959 0.91586 0.58845 0.0
N1864 N 0.84627 0.86247 0.65719 0.0
N1865 N 0.93753 0.89438 0.61192 0.0
H1866 H 0.26088 0.78503 0.81941 0.0
H1867 H 0.14137 0.88617 0.81468 0.0
H1868 H 0.24984 0.81364 0.73408 0.0
H1869 H 0.14425 0.85077 0.90004 0.0
H1870 H 0.18493 0.86489 0.78647 0.0
H1871 H 0.22186 0.8115 0.84993 0.0
C1872 C 0.24995 0.79641 0.80693 0.0
C1873 C 0.2586 0.79621 0.77378 0.0
C1874 C 0.17667 0.86221 0.81148 0.0
C1875 C 0.21408 0.8285 0.80921 0.0
C1876 C 0.15194 0.87492 0.82786 0.0
C1877 C 0.13937 0.8715 0.86033 0.0
C1878 C 0.18931 0.84506 0.82715 0.0
C1879 C 0.15357 0.85523 0.87542 0.0
C1880 C 0.22789 0.81213 0.82454 0.0
C1881 C 0.24455 0.81322 0.75947 0.0
N1882 N 0.17737 0.84263 0.85885 0.0
N1883 N 0.22323 0.82836 0.77702 0.0
H1884 H 0.94323 0.38251 0.5409 0.0
H1885 H 0.86322 0.34907 0.72197 0.0
H1886 H 0.96831 0.47516 0.61694 0.0
H1887 H 0.87003 0.26031 0.65252 0.0
H1888 H 0.89766 0.39431 0.68342 0.0
H1889 H 0.91294 0.33714 0.57989 0.0
C1890 C 0.94299 0.3935 0.56582 0.0
C1891 C 0.95982 0.43318 0.57528 0.0
C1892 C 0.89197 0.36508 0.6765 0.0
C1893 C 0.92292 0.38046 0.6208 0.0
C1894 C 0.87207 0.33891 0.69862 0.0
C1895 C 0.86318 0.30023 0.69082 0.0
C1896 C 0.90314 0.35303 0.64561 0.0
C1897 C 0.87609 0.28958 0.65997 0.0
C1898 C 0.92525 0.36735 0.58819 0.0
C1899 C 0.95635 0.4451 0.60816 0.0
N1900 N 0.89491 0.31556 0.63855 0.0
N1901 N 0.93839 0.41907 0.6295 0.0
H1902 H 0.48512 0.1279 0.39337 0.0
H1903 H 0.37099 0.21808 0.37748 0.0
H1904 H 0.43378 0.17503 0.47111 0.0
H1905 H 0.40633 0.1576 0.29675 0.0
H1906 H 0.37523 0.18254 0.41186 0.0
H1907 H 0.4424 0.12069 0.35875 0.0
C1908 C 0.46443 0.13619 0.40308 0.0
C1909 C 0.46356 0.15361 0.43444 0.0
C1910 C 0.38158 0.17643 0.38657 0.0
C1911 C 0.41484 0.14511 0.39574 0.0
C1912 C 0.37873 0.19667 0.36648 0.0
C1913 C 0.38976 0.19231 0.33375 0.0
C1914 C 0.39747 0.15315 0.37433 0.0
C1915 C 0.39965 0.1638 0.32191 0.0
C1916 C 0.43992 0.13179 0.38354 0.0
C1917 C 0.43593 0.1629 0.44657 0.0
N1918 N 0.40459 0.14626 0.34231 0.0
N1919 N 0.41296 0.15906 0.42705 0.0
H1920 H 0.54186 0.56876 0.11019 0.0
H1921 H 0.74149 0.67873 0.16138 0.0
H1922 H 0.62472 0.53843 0.06576 0.0
H1923 H 0.64922 0.68047 0.22278 0.0
H1924 H 0.69962 0.62879 0.12487 0.0
H1925 H 0.58081 0.6106 0.15149 0.0
C1926 C 0.5685 0.57139 0.10888 0.0
C1927 C 0.58109 0.55214 0.08342 0.0
C1928 C 0.6886 0.6399 0.14651 0.0
C1929 C 0.6253 0.59875 0.13102 0.0
C1930 C 0.71245 0.66852 0.16724 0.0
C1931 C 0.69881 0.68388 0.19504 0.0
C1932 C 0.65098 0.6269 0.15355 0.0
C1933 C 0.66095 0.66963 0.20148 0.0
C1934 C 0.59049 0.59478 0.1327 0.0
C1935 C 0.61462 0.55413 0.08415 0.0
N1936 N 0.63834 0.64207 0.18074 0.0
N1937 N 0.63599 0.57776 0.10728 0.0
H1938 H 0.22244 0.23104 0.66405 0.0
H1939 H 0.08237 0.02246 0.58998 0.0
H1940 H 0.2134 0.12841 0.68447 0.0
H1941 H 0.10028 0.12503 0.56019 0.0
H1942 H 0.13044 0.06108 0.62467 0.0
H1943 H 0.17929 0.19328 0.62467 0.0
C1944 C 0.21058 0.20044 0.66079 0.0
C1945 C 0.21909 0.1826 0.67942 0.0
C1946 C 0.12389 0.07518 0.61056 0.0
C1947 C 0.17115 0.13917 0.63342 0.0
C1948 C 0.09626 0.05315 0.59085 0.0
C1949 C 0.08702 0.07054 0.5723 0.0
C1950 C 0.14243 0.11497 0.61191 0.0
C1951 C 0.10612 0.11042 0.57437 0.0
C1952 C 0.18648 0.17893 0.63795 0.0
C1953 C 0.20602 0.14326 0.67206 0.0
N1954 N 0.13288 0.13131 0.59389 0.0
N1955 N 0.18213 0.12273 0.65 0.0
H1956 H 0.64837 0.34332 0.31169 0.0
H1957 H 0.59503 0.43743 0.48474 0.0
H1958 H 0.65715 0.31352 0.39764 0.0
H1959 H 0.54545 0.424 0.40282 0.0
H1960 H 0.62341 0.39953 0.45372 0.0
H1961 H 0.61745 0.37834 0.34335 0.0
C1962 C 0.64392 0.34378 0.33721 0.0
C1963 C 0.65588 0.32418 0.35115 0.0
C1964 C 0.60629 0.40465 0.4423 0.0
C1965 C 0.61997 0.36694 0.38908 0.0
C1966 C 0.58979 0.42673 0.46023 0.0
C1967 C 0.56676 0.43476 0.44721 0.0
C1968 C 0.6013 0.39028 0.40993 0.0
C1969 C 0.56217 0.41916 0.41479 0.0
C1970 C 0.62594 0.36418 0.35553 0.0
C1971 C 0.64868 0.32721 0.38491 0.0
N1972 N 0.57919 0.3986 0.39769 0.0
N1973 N 0.63198 0.34804 0.40222 0.0
H1974 H 0.44954 0.8912 0.06012 0.0
H1975 H 0.3125 0.90398 0.21111 0.0
H1976 H 0.42923 0.98629 0.08495 0.0
H1977 H 0.31527 0.80056 0.16794 0.0
H1978 H 0.35668 0.93648 0.1672 0.0
H1979 H 0.40235 0.85916 0.10195 0.0
C1980 C 0.4352 0.90535 0.07454 0.0
C1981 C 0.44334 0.94136 0.06927 0.0
C1982 C 0.34745 0.90664 0.16747 0.0
C1983 C 0.38916 0.90516 0.1174 0.0
C1984 C 0.32223 0.88808 0.19249 0.0
C1985 C 0.31044 0.84958 0.1936 0.0
C1986 C 0.36105 0.88656 0.14359 0.0
C1987 C 0.324 0.83043 0.16867 0.0
C1988 C 0.40804 0.88702 0.09832 0.0
C1989 C 0.42344 0.95832 0.08822 0.0
N1990 N 0.34864 0.84913 0.14496 0.0
N1991 N 0.3974 0.94021 0.11172 0.0
H1992 H 0.89912 0.6147 0.96866 0.0
H1993 H 0.86925 0.70265 0.87573 0.0
H1994 H 0.98048 0.61606 0.89106 0.0
H1995 H 0.92559 0.66207 0.79729 0.0
H1996 H 0.86406 0.65717 0.90671 0.0
H1997 H 0.86331 0.61424 0.93105 0.0
C1998 C 0.90922 0.61445 0.94367 0.0
C1999 C 0.94372 0.61748 0.93321 0.0
C2000 C 0.8763 0.65678 0.88238 0.0
C2001 C 0.90376 0.61825 0.89036 0.0
C2002 C 0.87951 0.68316 0.86473 0.0
C2003 C 0.89896 0.68678 0.83442 0.0
C2004 C 0.89305 0.63423 0.86958 0.0
C2005 C 0.91156 0.6609 0.8211 0.0
C2006 C 0.88885 0.61436 0.92221 0.0
C2007 C 0.95455 0.61484 0.90046 0.0
N2008 N 0.90905 0.63619 0.83903 0.0
N2009 N 0.93507 0.61637 0.88031 0.0
H2010 H 0.49509 0.42962 0.08906 0.0
H2011 H 0.29988 0.35095 0.19231 0.0
H2012 H 0.40983 0.45002 0.07454 0.0
H2013 H 0.38814 0.33819 0.21115 0.0
H2014 H 0.33987 0.38784 0.14944 0.0
H2015 H 0.45636 0.39634 0.13393 0.0
C2016 C 0.46823 0.42716 0.09525 0.0
C2017 C 0.45574 0.44268 0.07785 0.0
C2018 C 0.35057 0.37714 0.16303 0.0
C2019 C 0.41119 0.40455 0.12948 0.0
C2020 C 0.32773 0.356 0.18748 0.0
C2021 C 0.34066 0.34135 0.20528 0.0
C2022 C 0.38661 0.38357 0.15618 0.0
C2023 C 0.37707 0.34909 0.19815 0.0
C2024 C 0.44615 0.40821 0.12101 0.0
C2025 C 0.42073 0.43872 0.08726 0.0
N2026 N 0.3987 0.36949 0.17404 0.0
N2027 N 0.39965 0.41995 0.11236 0.0
H2028 H 0.40983 0.56586 0.93498 0.0
H2029 H 0.40162 0.65874 0.79469 0.0
H2030 H 0.46964 0.68651 0.92879 0.0
H2031 H 0.33202 0.54032 0.80724 0.0
H2032 H 0.4321 0.66815 0.84031 0.0
H2033 H 0.38467 0.55503 0.88572 0.0
C2034 C 0.41753 0.59007 0.92319 0.0
C2035 C 0.44178 0.62711 0.93579 0.0
C2036 C 0.41046 0.64 0.83291 0.0
C2037 C 0.41342 0.61498 0.87946 0.0
C2038 C 0.39328 0.63458 0.8068 0.0
C2039 C 0.36427 0.59875 0.79746 0.0
C2040 C 0.39843 0.60935 0.84977 0.0
C2041 C 0.35447 0.5683 0.81367 0.0
C2042 C 0.40324 0.58388 0.89511 0.0
C2043 C 0.45073 0.65757 0.9199 0.0
N2044 N 0.37132 0.57438 0.83934 0.0
N2045 N 0.43661 0.6508 0.89239 0.0
H2046 H 0.06231 0.54651 0.60799 0.0
H2047 H 0.23731 0.72783 0.6543 0.0
H2048 H 0.13129 0.61077 0.53137 0.0
H2049 H 0.23627 0.62273 0.65682 0.0
H2050 H 0.18658 0.69266 0.62187 0.0
H2051 H 0.11383 0.58224 0.64058 0.0
C2052 C 0.08803 0.56873 0.59839 0.0
C2053 C 0.09283 0.57602 0.56716 0.0
C2054 C 0.19753 0.6775 0.62973 0.0
C2055 C 0.15087 0.6165 0.60391 0.0
C2056 C 0.22655 0.6974 0.64815 0.0
C2057 C 0.24088 0.67815 0.65886 0.0
C2058 C 0.18216 0.63801 0.62251 0.0
C2059 C 0.22568 0.63865 0.64969 0.0
C2060 C 0.1173 0.58856 0.61672 0.0
C2061 C 0.12675 0.60448 0.5554 0.0
N2062 N 0.19663 0.61967 0.63243 0.0
N2063 N 0.15454 0.62406 0.57394 0.0
H2064 H 0.34416 0.36653 0.71342 0.0
H2065 H 0.46984 0.38941 0.55054 0.0
H2066 H 0.34162 0.26713 0.65401 0.0
H2067 H 0.41502 0.45611 0.58243 0.0
H2068 H 0.43107 0.3478 0.59159 0.0
H2069 H 0.37851 0.40399 0.66964 0.0
C2070 C 0.35013 0.35232 0.69102 0.0
C2071 C 0.33861 0.31317 0.68727 0.0
C2072 C 0.42743 0.37141 0.58943 0.0
C2073 C 0.38004 0.35669 0.63722 0.0
C2074 C 0.44954 0.39517 0.56611 0.0
C2075 C 0.4455 0.42613 0.56302 0.0
C2076 C 0.402 0.37947 0.61055 0.0
C2077 C 0.41875 0.43231 0.58379 0.0
C2078 C 0.37015 0.3739 0.66608 0.0
C2079 C 0.34944 0.29707 0.65804 0.0
N2080 N 0.39846 0.40961 0.60699 0.0
N2081 N 0.36969 0.31891 0.6342 0.0
H2082 H 0.22607 0.69533 0.16839 0.0
H2083 H 0.06314 0.62261 0.06598 0.0
H2084 H 0.14718 0.73488 0.19195 0.0
H2085 H 0.11715 0.55794 0.06601 0.0
H2086 H 0.09986 0.67009 0.10671 0.0
H2087 H 0.19237 0.65074 0.12529 0.0
C2088 C 0.2013 0.69413 0.16498 0.0
C2089 C 0.1886 0.71762 0.18482 0.0
C2090 C 0.10365 0.64552 0.09779 0.0
C2091 C 0.15073 0.66796 0.13444 0.0
C2092 C 0.08288 0.61852 0.0745 0.0
C2093 C 0.08714 0.58632 0.06285 0.0
C2094 C 0.12909 0.64045 0.10917 0.0
C2095 C 0.11294 0.58228 0.07468 0.0
C2096 C 0.18231 0.669 0.14005 0.0
C2097 C 0.15761 0.71675 0.17769 0.0
N2098 N 0.13309 0.60918 0.09727 0.0
N2099 N 0.13956 0.69209 0.15308 0.0
H2100 H 0.68249 0.38306 0.73281 0.0
H2101 H 0.6471 0.41444 0.571 0.0
H2102 H 0.71118 0.33667 0.63993 0.0
H2103 H 0.62703 0.47005 0.66252 0.0
H2104 H 0.65447 0.37184 0.59713 0.0
H2105 H 0.64714 0.40157 0.7091 0.0
C2106 C 0.68044 0.37589 0.70752 0.0
C2107 C 0.69961 0.3584 0.68816 0.0
C2108 C 0.64745 0.3926 0.61162 0.0
C2109 C 0.66009 0.38001 0.66082 0.0
C2110 C 0.64286 0.4166 0.59667 0.0
C2111 C 0.6363 0.44549 0.61474 0.0
C2112 C 0.64615 0.39808 0.64488 0.0
C2113 C 0.63184 0.44784 0.64788 0.0
C2114 C 0.66046 0.38658 0.69396 0.0
C2115 C 0.69663 0.35008 0.65554 0.0
N2116 N 0.63744 0.42486 0.66194 0.0
N2117 N 0.67763 0.36134 0.64284 0.0
H2118 H 0.91807 0.69875 0.07627 0.0
H2119 H 0.93507 0.51813 0.07921 0.0
H2120 H 0.87788 0.63456 0.15578 0.0
H2121 H 0.95642 0.56621 0.99309 0.0
H2122 H 0.90397 0.55387 0.1048 0.0
H2123 H 0.92464 0.64602 0.04279 0.0
C2124 C 0.91039 0.6735 0.08654 0.0
C2125 C 0.89769 0.67107 0.11878 0.0
C2126 C 0.91509 0.5564 0.08015 0.0
C2127 C 0.90486 0.61105 0.08097 0.0
C2128 C 0.93295 0.53598 0.06554 0.0
C2129 C 0.94979 0.54065 0.0344 0.0
C2130 C 0.91481 0.58221 0.06366 0.0
C2131 C 0.94513 0.56319 0.01755 0.0
C2132 C 0.91376 0.64333 0.06744 0.0
C2133 C 0.88753 0.63757 0.13095 0.0
N2134 N 0.92885 0.58403 0.03265 0.0
N2135 N 0.89169 0.60908 0.1121 0.0
H2136 H 0.89581 0.59257 0.70368 0.0
H2137 H 0.82596 0.727 0.67525 0.0
H2138 H 0.89598 0.61985 0.61267 0.0
H2139 H 0.81597 0.6944 0.76642 0.0
H2140 H 0.87036 0.70487 0.65494 0.0
H2141 H 0.8835 0.6446 0.7296 0.0
C2142 C 0.89368 0.60969 0.6892 0.0
C2143 C 0.89649 0.60152 0.65604 0.0
C2144 C 0.85912 0.70333 0.67962 0.0
C2145 C 0.88298 0.661 0.68524 0.0
C2146 C 0.83377 0.71582 0.69108 0.0
C2147 C 0.81712 0.71168 0.72222 0.0
C2148 C 0.86671 0.68557 0.69929 0.0
C2149 C 0.82835 0.69782 0.74216 0.0
C2150 C 0.8871 0.6396 0.70392 0.0
C2151 C 0.89435 0.62512 0.63831 0.0
N2152 N 0.85197 0.68439 0.73015 0.0
N2153 N 0.88733 0.65345 0.65315 0.0
H2154 H 0.406 0.54682 0.37284 0.0
H2155 H 0.32524 0.67785 0.35871 0.0
H2156 H 0.38452 0.61789 0.45302 0.0
H2157 H 0.37782 0.63579 0.27766 0.0
H2158 H 0.35068 0.65992 0.39355 0.0
H2159 H 0.39946 0.58156 0.33731 0.0
C2160 C 0.40048 0.57006 0.38303 0.0
C2161 C 0.39515 0.57889 0.41611 0.0
C2162 C 0.35715 0.65515 0.36813 0.0
C2163 C 0.38696 0.61835 0.37549 0.0
C2164 C 0.34287 0.66576 0.34817 0.0
C2165 C 0.34876 0.65778 0.31509 0.0
C2166 C 0.37712 0.63593 0.35502 0.0
C2167 C 0.37164 0.64158 0.303 0.0
C2168 C 0.3966 0.58981 0.36269 0.0
C2169 C 0.38779 0.60922 0.42777 0.0
N2170 N 0.38436 0.63053 0.32289 0.0
N2171 N 0.38343 0.62742 0.40757 0.0
H2172 H 0.18387 0.39514 0.86511 0.0
H2173 H 0.0435 0.41877 0.97909 0.0
H2174 H 0.12422 0.32013 0.93687 0.0
H2175 H 0.14223 0.52252 0.95849 0.0
H2176 H 0.07771 0.38507 0.96763 0.0
H2177 H 0.17836 0.44657 0.90179 0.0
C2178 C 0.17095 0.39003 0.88907 0.0
C2179 C 0.15325 0.35328 0.89787 0.0
C2180 C 0.09234 0.41547 0.96651 0.0
C2181 C 0.14667 0.41126 0.93936 0.0
C2182 C 0.07271 0.43483 0.97319 0.0
C2183 C 0.09013 0.47367 0.97044 0.0
C2184 C 0.12941 0.43444 0.95506 0.0
C2185 C 0.12785 0.49251 0.96101 0.0
C2186 C 0.16794 0.41937 0.91 0.0
C2187 C 0.13712 0.34793 0.92906 0.0
N2188 N 0.14622 0.47239 0.95269 0.0
N2189 N 0.13337 0.37643 0.94854 0.0
H2190 H 0.25093 0.35041 0.25883 0.0
H2191 H 0.12053 0.38244 0.39241 0.0
H2192 H 0.19329 0.27954 0.33342 0.0
H2193 H 0.15363 0.43509 0.30652 0.0
H2194 H 0.13217 0.33255 0.36383 0.0
H2195 H 0.20392 0.36958 0.26733 0.0
C2196 C 0.22768 0.33818 0.27641 0.0
C2197 C 0.2254 0.31346 0.2955 0.0
C2198 C 0.13621 0.35446 0.35087 0.0
C2199 C 0.17284 0.33612 0.30629 0.0
C2200 C 0.12918 0.38323 0.36726 0.0
C2201 C 0.13674 0.41399 0.35214 0.0
C2202 C 0.15272 0.35719 0.31951 0.0
C2203 C 0.14879 0.41295 0.31956 0.0
C2204 C 0.20083 0.34891 0.28121 0.0
C2205 C 0.19541 0.29844 0.31817 0.0
N2206 N 0.15745 0.3856 0.3045 0.0
N2207 N 0.17047 0.31051 0.32336 0.0
loop_
_geom_bond_atom_site_label_1
_geom_bond_atom_site_label_2
_geom_bond_distance
_geom_bond_site_symmetry_2
_ccdc_geom_bond_type
Eu0 N29 2.600 . S
Eu0 N35 2.562 . S
Eu0 O44 2.462 1_455 S
Eu0 O45 2.373 . S
Eu0 O47 2.432 . S
Eu0 O48 2.291 1_445 S
Eu0 O52 2.329 1_454 S
Eu0 O55 2.372 1_554 S
Eu0 C64 2.787 1_455 S
C1 N2 1.365 . S
C1 C4 1.405 . S
C1 C8 1.448 . S
N2 C1 1.365 . S
N2 C5 1.319 . S
N2 Eu11 2.600 . S
C3 C5 1.397 . S
C3 C6 1.367 . S
C3 H23 0.931 . S
C4 C1 1.405 . S
C4 C6 1.403 . S
C4 C10 1.439 . S
C5 N2 1.319 . S
C5 C3 1.397 . S
C5 H16 0.930 . S
C6 C3 1.367 . S
C6 C4 1.403 . S
C6 H27 0.929 . S
C7 C8 1.430 . S
C7 C9 1.387 . S
C7 C13 1.404 . S
C8 C1 1.448 . S
C8 C7 1.430 . S
C8 N12 1.351 . S
C9 C7 1.387 . S
C9 C10 1.374 . S
C9 H24 0.931 . S
C10 C4 1.439 . S
C10 C9 1.374 . S
C10 H25 0.931 . S
Eu11 N2 2.600 . S
Eu11 N12 2.562 . S
Eu11 O46 2.322 1_656 S
Eu11 O49 2.372 1_556 S
Eu11 O50 2.462 1_655 S
Eu11 O51 2.373 . S
Eu11 O53 2.432 . S
Eu11 O54 2.291 1_665 S
Eu11 C75 2.787 1_655 S
N12 C8 1.351 . S
N12 Eu11 2.562 . S
N12 C14 1.323 1_655 S
C13 C7 1.404 . S
C13 C15 1.366 . S
C13 H21 0.930 . S
C14 N12 1.323 1_455 S
C14 C15 1.413 1_455 S
C14 H20 0.933 . S
C15 C13 1.366 . S
C15 C14 1.413 1_655 S
C15 H17 0.930 1_655 S
H16 C5 0.930 . S
H17 C15 0.930 1_455 S
H18 C33 0.930 . S
H19 C40 0.930 1_655 S
H20 C14 0.933 . S
H21 C13 0.930 . S
H22 C36 0.927 . S
H23 C3 0.931 . S
H24 C9 0.931 . S
H25 C10 0.931 . S
H26 C31 0.931 . S
H27 C6 0.929 . S
H28 C39 0.930 . S
N29 Eu0 2.600 . S
N29 C30 1.365 . S
N29 C33 1.319 . S
C30 N29 1.365 . S
C30 C32 1.405 . S
C30 C38 1.448 . S
C31 H26 0.931 . S
C31 C33 1.397 . S
C31 C34 1.367 . S
C32 C30 1.405 . S
C32 C34 1.403 . S
C32 C65 1.439 . S
C33 H18 0.930 . S
C33 N29 1.319 . S
C33 C31 1.397 . S
C34 C31 1.367 . S
C34 C32 1.403 . S
C34 H41 0.929 . S
N35 Eu0 2.562 . S
N35 C36 1.325 1_455 S
N35 C38 1.351 . S
C36 H22 0.927 . S
C36 N35 1.325 1_655 S
C36 C40 1.417 1_655 S
C37 C38 1.430 . S
C37 C39 1.404 . S
C37 C66 1.387 . S
C38 C30 1.448 . S
C38 N35 1.351 . S
C38 C37 1.430 . S
C39 H28 0.930 . S
C39 C37 1.404 . S
C39 C40 1.366 . S
C40 H19 0.930 1_455 S
C40 C36 1.417 1_455 S
C40 C39 1.366 . S
H41 C34 0.929 . S
H42 C65 0.931 . S
H43 C66 0.931 . S
O44 Eu0 2.462 1_655 S
O44 C64 1.252 . S
O45 Eu0 2.373 . S
O45 C56 1.249 1_545 S
O46 Eu11 2.322 1_454 S
O46 C56 1.276 . S
O47 Eu0 2.432 . S
O47 C64 1.268 1_455 S
O48 Eu0 2.291 1_665 S
O48 C63 1.255 . S
O49 Eu11 2.372 1_554 S
O49 C63 1.257 . S
O50 Eu11 2.462 1_455 S
O50 C75 1.252 . S
O51 Eu11 2.373 . S
O51 C67 1.249 1_565 S
O52 Eu0 2.329 1_656 S
O52 C67 1.270 . S
O53 Eu11 2.432 . S
O53 C75 1.268 1_655 S
O54 Eu11 2.291 1_445 S
O54 C74 1.255 . S
O55 Eu0 2.372 1_556 S
O55 C74 1.257 . S
C56 O45 1.249 1_565 S
C56 O46 1.276 . S
C57 C60 1.382 . S
C57 C62 1.390 . S
C57 C64 1.506 . S
C58 C59 1.398 . S
C58 C62 1.392 . S
C59 C58 1.398 . S
C59 C61 1.372 . S
C59 H76 0.931 . S
C60 C57 1.382 . S
C60 C61 1.390 . S
C60 H77 0.931 1_655 S
C61 C59 1.372 . S
C61 C60 1.390 . S
C61 H78 0.929 . S
C62 C57 1.390 . S
C62 C58 1.392 . S
C62 H79 0.930 . S
C63 O48 1.255 . S
C63 O49 1.257 . S
C64 Eu0 2.787 1_655 S
C64 O44 1.252 . S
C64 O47 1.268 1_655 S
C64 C57 1.506 . S
C65 C32 1.439 . S
C65 H42 0.931 . S
C65 C66 1.374 . S
C66 C37 1.387 . S
C66 H43 0.931 . S
C66 C65 1.374 . S
C67 O51 1.249 1_545 S
C67 O52 1.270 . S
C68 C71 1.382 . S
C68 C72 1.390 . S
C68 C75 1.506 . S
C69 C70 1.398 . S
C69 C72 1.392 . S
C70 C69 1.398 . S
C70 C73 1.372 . S
C70 H80 0.931 . S
C71 C68 1.382 . S
C71 C73 1.390 . S
C71 H81 0.931 1_455 S
C72 C68 1.390 . S
C72 C69 1.392 . S
C72 H82 0.930 . S
C73 C70 1.372 . S
C73 C71 1.390 . S
C73 H83 0.929 . S
C74 O54 1.255 . S
C74 O55 1.257 . S
C75 Eu11 2.787 1_455 S
C75 O50 1.252 . S
C75 O53 1.268 1_455 S
C75 C68 1.506 . S
H76 C59 0.931 . S
H77 C60 0.931 1_455 S
H78 C61 0.929 . S
H79 C62 0.930 . S
H80 C70 0.931 . S
H81 C71 0.931 1_655 S
H82 C72 0.930 . S
H83 C73 0.929 . S
Eu84 N113 2.600 . S
Eu84 N119 2.562 . S
Eu84 O128 2.462 . S
Eu84 O129 2.373 . S
Eu84 O131 2.432 . S
Eu84 O132 2.291 . S
Eu84 O136 2.335 . S
Eu84 O139 2.372 . S
Eu84 C148 2.787 . S
C85 N86 1.365 . S
C85 C88 1.405 . S
C85 C92 1.448 . S
N86 C85 1.365 . S
N86 C89 1.319 . S
N86 Eu95 2.600 . S
C87 C89 1.397 . S
C87 C90 1.367 . S
C87 H107 0.931 . S
C88 C85 1.405 . S
C88 C90 1.403 . S
C88 C94 1.439 . S
C89 N86 1.319 . S
C89 C87 1.397 . S
C89 H100 0.930 . S
C90 C87 1.367 . S
C90 C88 1.403 . S
C90 H111 0.929 . S
C91 C92 1.430 . S
C91 C93 1.387 . S
C91 C97 1.404 . S
C92 C85 1.448 . S
C92 C91 1.430 . S
C92 N96 1.351 . S
C93 C91 1.387 . S
C93 C94 1.374 . S
C93 H108 0.931 . S
C94 C88 1.439 . S
C94 C93 1.374 . S
C94 H109 0.931 . S
Eu95 N86 2.600 . S
Eu95 N96 2.562 . S
Eu95 O130 2.335 . S
Eu95 O133 2.372 . S
Eu95 O134 2.462 . S
Eu95 O135 2.373 . S
Eu95 O137 2.432 . S
Eu95 O138 2.291 . S
Eu95 C159 2.787 . S
N96 C92 1.351 . S
N96 Eu95 2.562 . S
N96 C98 1.325 . S
C97 C91 1.404 . S
C97 C99 1.366 . S
C97 H105 0.930 . S
C98 N96 1.325 . S
C98 C99 1.416 . S
C98 H104 0.929 . S
C99 C97 1.366 . S
C99 C98 1.416 . S
C99 H101 0.930 . S
H100 C89 0.930 . S
H101 C99 0.930 . S
H102 C117 0.930 . S
H103 C124 0.930 . S
H104 C98 0.929 . S
H105 C97 0.930 . S
H106 C120 0.929 . S
H107 C87 0.931 . S
H108 C93 0.931 . S
H109 C94 0.931 . S
H110 C115 0.931 . S
H111 C90 0.929 . S
H112 C123 0.930 . S
N113 Eu84 2.600 . S
N113 C114 1.365 . S
N113 C117 1.319 . S
C114 N113 1.365 . S
C114 C116 1.405 . S
C114 C122 1.448 . S
C115 H110 0.931 . S
C115 C117 1.397 . S
C115 C118 1.367 . S
C116 C114 1.405 . S
C116 C118 1.403 . S
C116 C149 1.439 . S
C117 H102 0.930 . S
C117 N113 1.319 . S
C117 C115 1.397 . S
C118 C115 1.367 . S
C118 C116 1.403 . S
C118 H125 0.929 . S
N119 Eu84 2.562 . S
N119 C120 1.325 . S
N119 C122 1.351 . S
C120 H106 0.929 . S
C120 N119 1.325 . S
C120 C124 1.416 . S
C121 C122 1.430 . S
C121 C123 1.404 . S
C121 C150 1.387 . S
C122 C114 1.448 . S
C122 N119 1.351 . S
C122 C121 1.430 . S
C123 H112 0.930 . S
C123 C121 1.404 . S
C123 C124 1.366 . S
C124 H103 0.930 . S
C124 C120 1.416 . S
C124 C123 1.366 . S
H125 C118 0.929 . S
H126 C149 0.931 . S
H127 C150 0.931 . S
O128 Eu84 2.462 . S
O128 C148 1.252 . S
O129 Eu84 2.373 . S
O129 C140 1.249 . S
O130 Eu95 2.335 . S
O130 C140 1.264 . S
O131 Eu84 2.432 . S
O131 C148 1.268 . S
O132 Eu84 2.291 . S
O132 C147 1.255 . S
O133 Eu95 2.372 . S
O133 C147 1.257 . S
O134 Eu95 2.462 . S
O134 C159 1.252 . S
O135 Eu95 2.373 . S
O135 C151 1.249 . S
O136 Eu84 2.335 . S
O136 C151 1.264 . S
O137 Eu95 2.432 . S
O137 C159 1.268 . S
O138 Eu95 2.291 . S
O138 C158 1.255 . S
O139 Eu84 2.372 . S
O139 C158 1.257 . S
C140 O129 1.249 . S
C140 O130 1.264 . S
C141 C144 1.382 . S
C141 C146 1.390 . S
C141 C148 1.506 . S
C142 C143 1.398 . S
C142 C146 1.392 . S
C143 C142 1.398 . S
C143 C145 1.372 . S
C143 H160 0.931 . S
C144 C141 1.382 . S
C144 C145 1.390 . S
C144 H161 0.931 . S
C145 C143 1.372 . S
C145 C144 1.390 . S
C145 H162 0.929 . S
C146 C141 1.390 . S
C146 C142 1.392 . S
C146 H163 0.930 . S
C147 O132 1.255 . S
C147 O133 1.257 . S
C148 Eu84 2.787 . S
C148 O128 1.252 . S
C148 O131 1.268 . S
C148 C141 1.506 . S
C149 C116 1.439 . S
C149 H126 0.931 . S
C149 C150 1.374 . S
C150 C121 1.387 . S
C150 H127 0.931 . S
C150 C149 1.374 . S
C151 O135 1.249 . S
C151 O136 1.264 . S
C152 C155 1.382 . S
C152 C156 1.390 . S
C152 C159 1.506 . S
C153 C154 1.398 . S
C153 C156 1.392 . S
C154 C153 1.398 . S
C154 C157 1.372 . S
C154 H164 0.931 . S
C155 C152 1.382 . S
C155 C157 1.390 . S
C155 H165 0.931 . S
C156 C152 1.390 . S
C156 C153 1.392 . S
C156 H166 0.930 . S
C157 C154 1.372 . S
C157 C155 1.390 . S
C157 H167 0.929 . S
C158 O138 1.255 . S
C158 O139 1.257 . S
C159 Eu95 2.787 . S
C159 O134 1.252 . S
C159 O137 1.268 . S
C159 C152 1.506 . S
H160 C143 0.931 . S
H161 C144 0.931 . S
H162 C145 0.929 . S
H163 C146 0.930 . S
H164 C154 0.931 . S
H165 C155 0.931 . S
H166 C156 0.930 . S
H167 C157 0.929 . S
Eu168 N197 2.600 . S
Eu168 N203 2.562 . S
Eu168 O212 2.462 . S
Eu168 O213 2.373 . S
Eu168 O215 2.432 . S
Eu168 O216 2.291 1_565 S
Eu168 O220 2.335 . S
Eu168 O223 2.372 . S
Eu168 C232 2.787 . S
C169 N170 1.365 . S
C169 C172 1.405 . S
C169 C176 1.448 . S
N170 C169 1.365 . S
N170 C173 1.319 . S
N170 Eu179 2.600 . S
C171 C173 1.397 . S
C171 C174 1.367 . S
C171 H191 0.931 . S
C172 C169 1.405 . S
C172 C174 1.403 . S
C172 C178 1.439 . S
C173 N170 1.319 . S
C173 C171 1.397 . S
C173 H184 0.930 . S
C174 C171 1.367 . S
C174 C172 1.403 . S
C174 H195 0.929 . S
C175 C176 1.430 . S
C175 C177 1.387 . S
C175 C181 1.404 . S
C176 C169 1.448 . S
C176 C175 1.430 . S
C176 N180 1.351 . S
C177 C175 1.387 . S
C177 C178 1.374 . S
C177 H192 0.931 . S
C178 C172 1.439 . S
C178 C177 1.374 . S
C178 H193 0.931 . S
Eu179 N170 2.600 . S
Eu179 N180 2.562 . S
Eu179 O214 2.335 . S
Eu179 O217 2.372 . S
Eu179 O218 2.462 . S
Eu179 O219 2.373 . S
Eu179 O221 2.432 . S
Eu179 O222 2.291 1_545 S
Eu179 C243 2.787 . S
N180 C176 1.351 . S
N180 Eu179 2.562 . S
N180 C182 1.325 . S
C181 C175 1.404 . S
C181 C183 1.366 . S
C181 H189 0.930 . S
C182 N180 1.325 . S
C182 C183 1.416 . S
C182 H188 0.929 1_545 S
C183 C181 1.366 . S
C183 C182 1.416 . S
C183 H185 0.930 1_545 S
H184 C173 0.930 . S
H185 C183 0.930 1_565 S
H186 C201 0.930 . S
H187 C208 0.930 1_545 S
H188 C182 0.929 1_565 S
H189 C181 0.930 . S
H190 C204 0.929 1_545 S
H191 C171 0.931 . S
H192 C177 0.931 . S
H193 C178 0.931 . S
H194 C199 0.931 . S
H195 C174 0.929 . S
H196 C207 0.930 . S
N197 Eu168 2.600 . S
N197 C198 1.365 . S
N197 C201 1.319 . S
C198 N197 1.365 . S
C198 C200 1.405 . S
C198 C206 1.448 . S
C199 H194 0.931 . S
C199 C201 1.397 . S
C199 C202 1.367 . S
C200 C198 1.405 . S
C200 C202 1.403 . S
C200 C233 1.439 . S
C201 H186 0.930 . S
C201 N197 1.319 . S
C201 C199 1.397 . S
C202 C199 1.367 . S
C202 C200 1.403 . S
C202 H209 0.929 . S
N203 Eu168 2.562 . S
N203 C204 1.325 . S
N203 C206 1.351 . S
C204 H190 0.929 1_565 S
C204 N203 1.325 . S
C204 C208 1.416 . S
C205 C206 1.430 . S
C205 C207 1.404 . S
C205 C234 1.387 . S
C206 C198 1.448 . S
C206 N203 1.351 . S
C206 C205 1.430 . S
C207 H196 0.930 . S
C207 C205 1.404 . S
C207 C208 1.366 . S
C208 H187 0.930 1_565 S
C208 C204 1.416 . S
C208 C207 1.366 . S
H209 C202 0.929 . S
H210 C233 0.931 . S
H211 C234 0.931 . S
O212 Eu168 2.462 . S
O212 C232 1.252 . S
O213 Eu168 2.373 . S
O213 C224 1.249 1_565 S
O214 Eu179 2.335 . S
O214 C224 1.264 . S
O215 Eu168 2.432 . S
O215 C232 1.268 . S
O216 Eu168 2.291 1_545 S
O216 C231 1.255 . S
O217 Eu179 2.372 . S
O217 C231 1.257 . S
O218 Eu179 2.462 . S
O218 C243 1.252 . S
O219 Eu179 2.373 . S
O219 C235 1.249 1_545 S
O220 Eu168 2.335 . S
O220 C235 1.264 . S
O221 Eu179 2.432 . S
O221 C243 1.268 . S
O222 Eu179 2.291 1_565 S
O222 C242 1.255 . S
O223 Eu168 2.372 . S
O223 C242 1.257 . S
C224 O213 1.249 1_545 S
C224 O214 1.264 . S
C225 C228 1.382 . S
C225 C230 1.390 . S
C225 C232 1.506 . S
C226 C227 1.398 . S
C226 C230 1.392 . S
C227 C226 1.398 . S
C227 C229 1.372 . S
C227 H244 0.931 . S
C228 C225 1.382 . S
C228 C229 1.390 . S
C228 H245 0.931 . S
C229 C227 1.372 . S
C229 C228 1.390 . S
C229 H246 0.929 . S
C230 C225 1.390 . S
C230 C226 1.392 . S
C230 H247 0.930 . S
C231 O216 1.255 . S
C231 O217 1.257 . S
C232 Eu168 2.787 . S
C232 O212 1.252 . S
C232 O215 1.268 . S
C232 C225 1.506 . S
C233 C200 1.439 . S
C233 H210 0.931 . S
C233 C234 1.374 . S
C234 C205 1.387 . S
C234 H211 0.931 . S
C234 C233 1.374 . S
C235 O219 1.249 1_565 S
C235 O220 1.264 . S
C236 C239 1.382 . S
C236 C240 1.390 . S
C236 C243 1.506 . S
C237 C238 1.398 . S
C237 C240 1.392 . S
C238 C237 1.398 . S
C238 C241 1.372 . S
C238 H248 0.931 . S
C239 C236 1.382 . S
C239 C241 1.390 . S
C239 H249 0.931 . S
C240 C236 1.390 . S
C240 C237 1.392 . S
C240 H250 0.930 . S
C241 C238 1.372 . S
C241 C239 1.390 . S
C241 H251 0.929 . S
C242 O222 1.255 . S
C242 O223 1.257 . S
C243 Eu179 2.787 . S
C243 O218 1.252 . S
C243 O221 1.268 . S
C243 C236 1.506 . S
H244 C227 0.931 . S
H245 C228 0.931 . S
H246 C229 0.929 . S
H247 C230 0.930 . S
H248 C238 0.931 . S
H249 C239 0.931 . S
H250 C240 0.930 . S
H251 C241 0.929 . S
Eu252 N281 2.600 . S
Eu252 N287 2.562 . S
Eu252 O296 2.462 . S
Eu252 O297 2.373 . S
Eu252 O299 2.432 . S
Eu252 O300 2.291 . S
Eu252 O304 2.335 . S
Eu252 O307 2.372 . S
Eu252 C316 2.787 . S
C253 N254 1.365 . S
C253 C256 1.405 . S
C253 C260 1.448 . S
N254 C253 1.365 . S
N254 C257 1.319 . S
N254 Eu263 2.600 . S
C255 C257 1.397 . S
C255 C258 1.367 . S
C255 H275 0.931 . S
C256 C253 1.405 . S
C256 C258 1.403 . S
C256 C262 1.439 . S
C257 N254 1.319 . S
C257 C255 1.397 . S
C257 H268 0.930 . S
C258 C255 1.367 . S
C258 C256 1.403 . S
C258 H279 0.929 . S
C259 C260 1.430 . S
C259 C261 1.387 . S
C259 C265 1.404 . S
C260 C253 1.448 . S
C260 C259 1.430 . S
C260 N264 1.351 . S
C261 C259 1.387 . S
C261 C262 1.374 . S
C261 H276 0.931 . S
C262 C256 1.439 . S
C262 C261 1.374 . S
C262 H277 0.931 . S
Eu263 N254 2.600 . S
Eu263 N264 2.562 . S
Eu263 O298 2.335 . S
Eu263 O301 2.372 . S
Eu263 O302 2.462 . S
Eu263 O303 2.373 . S
Eu263 O305 2.432 . S
Eu263 O306 2.291 . S
Eu263 C327 2.787 . S
N264 C260 1.351 . S
N264 Eu263 2.562 . S
N264 C266 1.325 . S
C265 C259 1.404 . S
C265 C267 1.366 . S
C265 H273 0.930 . S
C266 N264 1.325 . S
C266 C267 1.416 . S
C266 H272 0.929 . S
C267 C265 1.366 . S
C267 C266 1.416 . S
C267 H269 0.930 . S
H268 C257 0.930 . S
H269 C267 0.930 . S
H270 C285 0.930 . S
H271 C292 0.930 . S
H272 C266 0.929 . S
H273 C265 0.930 . S
H274 C288 0.929 . S
H275 C255 0.931 . S
H276 C261 0.931 . S
H277 C262 0.931 . S
H278 C283 0.931 . S
H279 C258 0.929 . S
H280 C291 0.930 . S
N281 Eu252 2.600 . S
N281 C282 1.365 . S
N281 C285 1.319 . S
C282 N281 1.365 . S
C282 C284 1.405 . S
C282 C290 1.448 . S
C283 H278 0.931 . S
C283 C285 1.397 . S
C283 C286 1.367 . S
C284 C282 1.405 . S
C284 C286 1.403 . S
C284 C317 1.439 . S
C285 H270 0.930 . S
C285 N281 1.319 . S
C285 C283 1.397 . S
C286 C283 1.367 . S
C286 C284 1.403 . S
C286 H293 0.929 . S
N287 Eu252 2.562 . S
N287 C288 1.325 . S
N287 C290 1.351 . S
C288 H274 0.929 . S
C288 N287 1.325 . S
C288 C292 1.416 . S
C289 C290 1.430 . S
C289 C291 1.404 . S
C289 C318 1.387 . S
C290 C282 1.448 . S
C290 N287 1.351 . S
C290 C289 1.430 . S
C291 H280 0.930 . S
C291 C289 1.404 . S
C291 C292 1.366 . S
C292 H271 0.930 . S
C292 C288 1.416 . S
C292 C291 1.366 . S
H293 C286 0.929 . S
H294 C317 0.931 . S
H295 C318 0.931 . S
O296 Eu252 2.462 . S
O296 C316 1.252 . S
O297 Eu252 2.373 . S
O297 C308 1.249 . S
O298 Eu263 2.335 . S
O298 C308 1.264 . S
O299 Eu252 2.432 . S
O299 C316 1.268 . S
O300 Eu252 2.291 . S
O300 C315 1.255 . S
O301 Eu263 2.372 . S
O301 C315 1.257 . S
O302 Eu263 2.462 . S
O302 C327 1.252 . S
O303 Eu263 2.373 . S
O303 C319 1.249 . S
O304 Eu252 2.335 . S
O304 C319 1.264 . S
O305 Eu263 2.432 . S
O305 C327 1.268 . S
O306 Eu263 2.291 . S
O306 C326 1.255 . S
O307 Eu252 2.372 . S
O307 C326 1.257 . S
C308 O297 1.249 . S
C308 O298 1.264 . S
C309 C312 1.382 . S
C309 C314 1.390 . S
C309 C316 1.506 . S
C310 C311 1.398 . S
C310 C314 1.392 . S
C311 C310 1.398 . S
C311 C313 1.372 . S
C311 H328 0.931 . S
C312 C309 1.382 . S
C312 C313 1.390 . S
C312 H329 0.931 . S
C313 C311 1.372 . S
C313 C312 1.390 . S
C313 H330 0.929 . S
C314 C309 1.390 . S
C314 C310 1.392 . S
C314 H331 0.930 . S
C315 O300 1.255 . S
C315 O301 1.257 . S
C316 Eu252 2.787 . S
C316 O296 1.252 . S
C316 O299 1.268 . S
C316 C309 1.506 . S
C317 C284 1.439 . S
C317 H294 0.931 . S
C317 C318 1.374 . S
C318 C289 1.387 . S
C318 H295 0.931 . S
C318 C317 1.374 . S
C319 O303 1.249 . S
C319 O304 1.264 . S
C320 C323 1.382 . S
C320 C324 1.390 . S
C320 C327 1.506 . S
C321 C322 1.398 . S
C321 C324 1.392 . S
C322 C321 1.398 . S
C322 C325 1.372 . S
C322 H332 0.931 . S
C323 C320 1.382 . S
C323 C325 1.390 . S
C323 H333 0.931 . S
C324 C320 1.390 . S
C324 C321 1.392 . S
C324 H334 0.930 . S
C325 C322 1.372 . S
C325 C323 1.390 . S
C325 H335 0.929 . S
C326 O306 1.255 . S
C326 O307 1.257 . S
C327 Eu263 2.787 . S
C327 O302 1.252 . S
C327 O305 1.268 . S
C327 C320 1.506 . S
H328 C311 0.931 . S
H329 C312 0.931 . S
H330 C313 0.929 . S
H331 C314 0.930 . S
H332 C322 0.931 . S
H333 C323 0.931 . S
H334 C324 0.930 . S
H335 C325 0.929 . S
Eu336 N365 2.600 . S
Eu336 N371 2.563 1_545 S
Eu336 O380 2.462 . S
Eu336 O381 2.373 1_545 S
Eu336 O383 2.432 . S
Eu336 O384 2.291 1_545 S
Eu336 O388 2.335 1_655 S
Eu336 O391 2.372 1_655 S
Eu336 C400 2.787 . S
C337 N338 1.365 . S
C337 C340 1.405 . S
C337 C344 1.448 . S
N338 C337 1.365 . S
N338 C341 1.319 . S
N338 Eu347 2.600 . S
C339 C341 1.397 . S
C339 C342 1.367 . S
C339 H359 0.931 . S
C340 C337 1.405 . S
C340 C342 1.403 . S
C340 C346 1.439 . S
C341 N338 1.319 . S
C341 C339 1.397 . S
C341 H352 0.930 1_455 S
C342 C339 1.367 . S
C342 C340 1.403 . S
C342 H363 0.929 . S
C343 C344 1.430 1_545 S
C343 C345 1.387 . S
C343 C349 1.404 . S
C344 C337 1.448 . S
C344 C343 1.430 1_565 S
C344 N348 1.344 1_565 S
C345 C343 1.387 . S
C345 C346 1.374 1_545 S
C345 H360 0.931 . S
C346 C340 1.439 . S
C346 C345 1.374 1_565 S
C346 H361 0.931 . S
Eu347 N338 2.600 . S
Eu347 N348 2.563 1_565 S
Eu347 O382 2.335 1_455 S
Eu347 O385 2.372 1_455 S
Eu347 O386 2.462 . S
Eu347 O387 2.373 1_565 S
Eu347 O389 2.432 . S
Eu347 O390 2.291 1_565 S
Eu347 C411 2.787 . S
N348 C344 1.344 1_545 S
N348 Eu347 2.563 1_545 S
N348 C350 1.335 . S
C349 C343 1.404 . S
C349 C351 1.366 . S
C349 H357 0.930 . S
C350 N348 1.335 . S
C350 C351 1.416 . S
C350 H356 0.929 . S
C351 C349 1.366 . S
C351 C350 1.416 . S
C351 H353 0.930 . S
H352 C341 0.930 1_655 S
H353 C351 0.930 . S
H354 C369 0.930 1_455 S
H355 C376 0.930 . S
H356 C350 0.929 . S
H357 C349 0.930 . S
H358 C372 0.929 . S
H359 C339 0.931 . S
H360 C345 0.931 . S
H361 C346 0.931 . S
H362 C367 0.931 . S
H363 C342 0.929 . S
H364 C375 0.930 . S
N365 Eu336 2.600 . S
N365 C366 1.365 . S
N365 C369 1.319 . S
C366 N365 1.365 . S
C366 C368 1.405 . S
C366 C374 1.448 . S
C367 H362 0.931 . S
C367 C369 1.397 . S
C367 C370 1.367 . S
C368 C366 1.405 . S
C368 C370 1.403 . S
C368 C401 1.439 . S
C369 H354 0.930 1_655 S
C369 N365 1.319 . S
C369 C367 1.397 . S
C370 C367 1.367 . S
C370 C368 1.403 . S
C370 H377 0.929 . S
N371 Eu336 2.563 1_565 S
N371 C372 1.332 . S
N371 C374 1.346 1_565 S
C372 H358 0.929 . S
C372 N371 1.332 . S
C372 C376 1.416 . S
C373 C374 1.430 1_565 S
C373 C375 1.404 . S
C373 C402 1.387 . S
C374 C366 1.448 . S
C374 N371 1.346 1_545 S
C374 C373 1.430 1_545 S
C375 H364 0.930 . S
C375 C373 1.404 . S
C375 C376 1.366 . S
C376 H355 0.930 . S
C376 C372 1.416 . S
C376 C375 1.366 . S
H377 C370 0.929 . S
H378 C401 0.931 . S
H379 C402 0.931 . S
O380 Eu336 2.462 . S
O380 C400 1.252 . S
O381 Eu336 2.373 1_565 S
O381 C392 1.249 . S
O382 Eu347 2.335 1_655 S
O382 C392 1.264 . S
O383 Eu336 2.432 . S
O383 C400 1.268 . S
O384 Eu336 2.291 1_565 S
O384 C399 1.255 . S
O385 Eu347 2.372 1_655 S
O385 C399 1.257 . S
O386 Eu347 2.462 . S
O386 C411 1.252 . S
O387 Eu347 2.373 1_545 S
O387 C403 1.249 . S
O388 Eu336 2.335 1_455 S
O388 C403 1.264 . S
O389 Eu347 2.432 . S
O389 C411 1.268 . S
O390 Eu347 2.291 1_545 S
O390 C410 1.255 . S
O391 Eu336 2.372 1_455 S
O391 C410 1.257 . S
C392 O381 1.249 . S
C392 O382 1.264 . S
C393 C396 1.382 . S
C393 C398 1.390 . S
C393 C400 1.506 . S
C394 C395 1.398 . S
C394 C398 1.392 . S
C395 C394 1.398 . S
C395 C397 1.372 . S
C395 H412 0.931 . S
C396 C393 1.382 . S
C396 C397 1.390 . S
C396 H413 0.931 . S
C397 C395 1.372 . S
C397 C396 1.390 . S
C397 H414 0.929 . S
C398 C393 1.390 . S
C398 C394 1.392 . S
C398 H415 0.930 . S
C399 O384 1.255 . S
C399 O385 1.257 . S
C400 Eu336 2.787 . S
C400 O380 1.252 . S
C400 O383 1.268 . S
C400 C393 1.506 . S
C401 C368 1.439 . S
C401 H378 0.931 . S
C401 C402 1.374 1_545 S
C402 C373 1.387 . S
C402 H379 0.931 . S
C402 C401 1.374 1_565 S
C403 O387 1.249 . S
C403 O388 1.264 . S
C404 C407 1.382 . S
C404 C408 1.390 . S
C404 C411 1.506 . S
C405 C406 1.398 . S
C405 C408 1.392 . S
C406 C405 1.398 . S
C406 C409 1.372 . S
C406 H416 0.931 . S
C407 C404 1.382 . S
C407 C409 1.390 . S
C407 H417 0.931 . S
C408 C404 1.390 . S
C408 C405 1.392 . S
C408 H418 0.930 . S
C409 C406 1.372 . S
C409 C407 1.390 . S
C409 H419 0.929 . S
C410 O390 1.255 . S
C410 O391 1.257 . S
C411 Eu347 2.787 . S
C411 O386 1.252 . S
C411 O389 1.268 . S
C411 C404 1.506 . S
H412 C395 0.931 . S
H413 C396 0.931 . S
H414 C397 0.929 . S
H415 C398 0.930 . S
H416 C406 0.931 . S
H417 C407 0.931 . S
H418 C408 0.930 . S
H419 C409 0.929 . S
Eu420 N449 2.600 . S
Eu420 N455 2.562 . S
Eu420 O464 2.462 . S
Eu420 O465 2.373 . S
Eu420 O467 2.432 . S
Eu420 O468 2.291 . S
Eu420 O472 2.335 . S
Eu420 O475 2.372 . S
Eu420 C484 2.787 . S
C421 N422 1.365 . S
C421 C424 1.405 . S
C421 C428 1.448 . S
N422 C421 1.365 . S
N422 C425 1.319 . S
N422 Eu431 2.600 . S
C423 C425 1.397 . S
C423 C426 1.367 . S
C423 H443 0.931 . S
C424 C421 1.405 . S
C424 C426 1.403 . S
C424 C430 1.439 . S
C425 N422 1.319 . S
C425 C423 1.397 . S
C425 H436 0.930 . S
C426 C423 1.367 . S
C426 C424 1.403 . S
C426 H447 0.929 . S
C427 C428 1.430 . S
C427 C429 1.387 . S
C427 C433 1.404 . S
C428 C421 1.448 . S
C428 C427 1.430 . S
C428 N432 1.351 . S
C429 C427 1.387 . S
C429 C430 1.374 . S
C429 H444 0.931 . S
C430 C424 1.439 . S
C430 C429 1.374 . S
C430 H445 0.931 . S
Eu431 N422 2.600 . S
Eu431 N432 2.562 . S
Eu431 O466 2.335 . S
Eu431 O469 2.372 . S
Eu431 O470 2.462 . S
Eu431 O471 2.373 . S
Eu431 O473 2.432 . S
Eu431 O474 2.291 . S
Eu431 C495 2.787 . S
N432 C428 1.351 . S
N432 Eu431 2.562 . S
N432 C434 1.325 . S
C433 C427 1.404 . S
C433 C435 1.366 . S
C433 H441 0.930 . S
C434 N432 1.325 . S
C434 C435 1.416 . S
C434 H440 0.929 . S
C435 C433 1.366 . S
C435 C434 1.416 . S
C435 H437 0.930 . S
H436 C425 0.930 . S
H437 C435 0.930 . S
H438 C453 0.930 . S
H439 C460 0.930 . S
H440 C434 0.929 . S
H441 C433 0.930 . S
H442 C456 0.929 . S
H443 C423 0.931 . S
H444 C429 0.931 . S
H445 C430 0.931 . S
H446 C451 0.931 . S
H447 C426 0.929 . S
H448 C459 0.930 . S
N449 Eu420 2.600 . S
N449 C450 1.365 . S
N449 C453 1.319 . S
C450 N449 1.365 . S
C450 C452 1.405 . S
C450 C458 1.448 . S
C451 H446 0.931 . S
C451 C453 1.397 . S
C451 C454 1.367 . S
C452 C450 1.405 . S
C452 C454 1.403 . S
C452 C485 1.439 . S
C453 H438 0.930 . S
C453 N449 1.319 . S
C453 C451 1.397 . S
C454 C451 1.367 . S
C454 C452 1.403 . S
C454 H461 0.929 . S
N455 Eu420 2.562 . S
N455 C456 1.325 . S
N455 C458 1.351 . S
C456 H442 0.929 . S
C456 N455 1.325 . S
C456 C460 1.416 . S
C457 C458 1.430 . S
C457 C459 1.404 . S
C457 C486 1.387 . S
C458 C450 1.448 . S
C458 N455 1.351 . S
C458 C457 1.430 . S
C459 H448 0.930 . S
C459 C457 1.404 . S
C459 C460 1.366 . S
C460 H439 0.930 . S
C460 C456 1.416 . S
C460 C459 1.366 . S
H461 C454 0.929 . S
H462 C485 0.931 . S
H463 C486 0.931 . S
O464 Eu420 2.462 . S
O464 C484 1.252 . S
O465 Eu420 2.373 . S
O465 C476 1.249 . S
O466 Eu431 2.335 . S
O466 C476 1.264 . S
O467 Eu420 2.432 . S
O467 C484 1.268 . S
O468 Eu420 2.291 . S
O468 C483 1.255 . S
O469 Eu431 2.372 . S
O469 C483 1.257 . S
O470 Eu431 2.462 . S
O470 C495 1.252 . S
O471 Eu431 2.373 . S
O471 C487 1.249 . S
O472 Eu420 2.335 . S
O472 C487 1.264 . S
O473 Eu431 2.432 . S
O473 C495 1.268 . S
O474 Eu431 2.291 . S
O474 C494 1.255 . S
O475 Eu420 2.372 . S
O475 C494 1.257 . S
C476 O465 1.249 . S
C476 O466 1.264 . S
C477 C480 1.382 . S
C477 C482 1.390 . S
C477 C484 1.506 . S
C478 C479 1.398 . S
C478 C482 1.392 . S
C479 C478 1.398 . S
C479 C481 1.372 . S
C479 H496 0.931 . S
C480 C477 1.382 . S
C480 C481 1.390 . S
C480 H497 0.931 . S
C481 C479 1.372 . S
C481 C480 1.390 . S
C481 H498 0.929 . S
C482 C477 1.390 . S
C482 C478 1.392 . S
C482 H499 0.930 . S
C483 O468 1.255 . S
C483 O469 1.257 . S
C484 Eu420 2.787 . S
C484 O464 1.252 . S
C484 O467 1.268 . S
C484 C477 1.506 . S
C485 C452 1.439 . S
C485 H462 0.931 . S
C485 C486 1.374 . S
C486 C457 1.387 . S
C486 H463 0.931 . S
C486 C485 1.374 . S
C487 O471 1.249 . S
C487 O472 1.264 . S
C488 C491 1.382 . S
C488 C492 1.390 . S
C488 C495 1.506 . S
C489 C490 1.398 . S
C489 C492 1.392 . S
C490 C489 1.398 . S
C490 C493 1.372 . S
C490 H500 0.931 . S
C491 C488 1.382 . S
C491 C493 1.390 . S
C491 H501 0.931 . S
C492 C488 1.390 . S
C492 C489 1.392 . S
C492 H502 0.930 . S
C493 C490 1.372 . S
C493 C491 1.390 . S
C493 H503 0.929 . S
C494 O474 1.255 . S
C494 O475 1.257 . S
C495 Eu431 2.787 . S
C495 O470 1.252 . S
C495 O473 1.268 . S
C495 C488 1.506 . S
H496 C479 0.931 . S
H497 C480 0.931 . S
H498 C481 0.929 . S
H499 C482 0.930 . S
H500 C490 0.931 . S
H501 C491 0.931 . S
H502 C492 0.930 . S
H503 C493 0.929 . S
Eu504 N533 2.600 1_554 S
Eu504 N539 2.562 1_554 S
Eu504 O548 2.462 . S
Eu504 O549 2.373 1_554 S
Eu504 O551 2.432 . S
Eu504 O552 2.291 . S
Eu504 O556 2.335 1_545 S
Eu504 O559 2.372 1_544 S
Eu504 C568 2.787 . S
C505 N506 1.365 . S
C505 C508 1.405 . S
C505 C512 1.448 . S
N506 C505 1.365 . S
N506 C509 1.319 . S
N506 Eu515 2.568 1_554 S
C507 C509 1.397 . S
C507 C510 1.367 . S
C507 H527 0.931 . S
C508 C505 1.405 . S
C508 C510 1.403 . S
C508 C514 1.439 . S
C509 N506 1.319 . S
C509 C507 1.397 . S
C509 H520 0.930 1_565 S
C510 C507 1.367 . S
C510 C508 1.403 . S
C510 H531 0.929 . S
C511 C512 1.430 . S
C511 C513 1.387 . S
C511 C517 1.404 . S
C512 C505 1.448 . S
C512 C511 1.430 . S
C512 N516 1.351 . S
C513 C511 1.387 . S
C513 C514 1.374 . S
C513 H528 0.931 . S
C514 C508 1.439 . S
C514 C513 1.374 . S
C514 H529 0.931 . S
Eu515 N506 2.568 1_556 S
Eu515 N516 2.553 1_556 S
Eu515 O550 2.361 1_565 S
Eu515 O553 2.353 1_566 S
Eu515 O554 2.487 . S
Eu515 O555 2.352 1_556 S
Eu515 O557 2.435 . S
Eu515 O558 2.314 . S
Eu515 C579 2.803 . S
N516 C512 1.351 . S
N516 Eu515 2.553 1_554 S
N516 C518 1.325 1_554 S
C517 C511 1.404 . S
C517 C519 1.366 1_554 S
C517 H525 0.930 . S
C518 N516 1.325 1_556 S
C518 C519 1.416 . S
C518 H524 0.929 . S
C519 C517 1.366 1_556 S
C519 C518 1.416 . S
C519 H521 0.930 . S
H520 C509 0.930 1_545 S
H521 C519 0.930 . S
H522 C537 0.930 1_565 S
H523 C544 0.930 . S
H524 C518 0.929 . S
H525 C517 0.930 . S
H526 C540 0.929 . S
H527 C507 0.931 . S
H528 C513 0.931 . S
H529 C514 0.931 . S
H530 C535 0.931 . S
H531 C510 0.929 . S
H532 C543 0.930 . S
N533 Eu504 2.600 1_556 S
N533 C534 1.365 . S
N533 C537 1.319 . S
C534 N533 1.365 . S
C534 C536 1.405 . S
C534 C542 1.448 . S
C535 H530 0.931 . S
C535 C537 1.397 . S
C535 C538 1.367 . S
C536 C534 1.405 . S
C536 C538 1.403 . S
C536 C569 1.439 . S
C537 H522 0.930 1_545 S
C537 N533 1.319 . S
C537 C535 1.397 . S
C538 C535 1.367 . S
C538 C536 1.403 . S
C538 H545 0.929 . S
N539 Eu504 2.562 1_556 S
N539 C540 1.325 1_556 S
N539 C542 1.351 . S
C540 H526 0.929 . S
C540 N539 1.325 1_554 S
C540 C544 1.416 . S
C541 C542 1.430 . S
C541 C543 1.404 . S
C541 C570 1.387 . S
C542 C534 1.448 . S
C542 N539 1.351 . S
C542 C541 1.430 . S
C543 H532 0.930 . S
C543 C541 1.404 . S
C543 C544 1.366 1_556 S
C544 H523 0.930 . S
C544 C540 1.416 . S
C544 C543 1.366 1_554 S
H545 C538 0.929 . S
H546 C569 0.931 . S
H547 C570 0.931 . S
O548 Eu504 2.462 . S
O548 C568 1.252 . S
O549 Eu504 2.373 1_556 S
O549 C560 1.249 . S
O550 Eu515 2.361 1_545 S
O550 C560 1.264 . S
O551 Eu504 2.432 . S
O551 C568 1.268 . S
O552 Eu504 2.291 . S
O552 C567 1.255 . S
O553 Eu515 2.353 1_544 S
O553 C567 1.257 . S
O554 Eu515 2.487 . S
O554 C579 1.252 . S
O555 Eu515 2.352 1_554 S
O555 C571 1.249 . S
O556 Eu504 2.335 1_565 S
O556 C571 1.264 . S
O557 Eu515 2.435 . S
O557 C579 1.268 . S
O558 Eu515 2.314 . S
O558 C578 1.255 . S
O559 Eu504 2.372 1_566 S
O559 C578 1.257 . S
C560 O549 1.249 . S
C560 O550 1.264 . S
C561 C564 1.382 . S
C561 C566 1.390 . S
C561 C568 1.506 . S
C562 C563 1.398 . S
C562 C566 1.392 . S
C563 C562 1.398 . S
C563 C565 1.372 . S
C563 H580 0.931 . S
C564 C561 1.382 . S
C564 C565 1.390 . S
C564 H581 0.931 . S
C565 C563 1.372 . S
C565 C564 1.390 . S
C565 H582 0.929 . S
C566 C561 1.390 . S
C566 C562 1.392 . S
C566 H583 0.930 . S
C567 O552 1.255 . S
C567 O553 1.257 . S
C568 Eu504 2.787 . S
C568 O548 1.252 . S
C568 O551 1.268 . S
C568 C561 1.506 . S
C569 C536 1.439 . S
C569 H546 0.931 . S
C569 C570 1.374 . S
C570 C541 1.387 . S
C570 H547 0.931 . S
C570 C569 1.374 . S
C571 O555 1.249 . S
C571 O556 1.264 . S
C572 C575 1.382 . S
C572 C576 1.390 . S
C572 C579 1.506 . S
C573 C574 1.398 . S
C573 C576 1.392 . S
C574 C573 1.398 . S
C574 C577 1.372 . S
C574 H584 0.931 . S
C575 C572 1.382 . S
C575 C577 1.390 . S
C575 H585 0.931 . S
C576 C572 1.390 . S
C576 C573 1.392 . S
C576 H586 0.930 . S
C577 C574 1.372 . S
C577 C575 1.390 . S
C577 H587 0.929 . S
C578 O558 1.255 . S
C578 O559 1.257 . S
C579 Eu515 2.803 . S
C579 O554 1.252 . S
C579 O557 1.268 . S
C579 C572 1.506 . S
H580 C563 0.931 . S
H581 C564 0.931 . S
H582 C565 0.929 . S
H583 C566 0.930 . S
H584 C574 0.931 . S
H585 C575 0.931 . S
H586 C576 0.930 . S
H587 C577 0.929 . S
Eu588 N617 2.600 . S
Eu588 N623 2.562 . S
Eu588 O632 2.462 . S
Eu588 O633 2.373 . S
Eu588 O635 2.432 . S
Eu588 O636 2.291 . S
Eu588 O640 2.335 . S
Eu588 O643 2.372 . S
Eu588 C652 2.787 . S
C589 N590 1.365 . S
C589 C592 1.405 . S
C589 C596 1.448 . S
N590 C589 1.365 . S
N590 C593 1.319 . S
N590 Eu599 2.600 . S
C591 C593 1.397 . S
C591 C594 1.367 . S
C591 H611 0.931 . S
C592 C589 1.405 . S
C592 C594 1.403 . S
C592 C598 1.439 . S
C593 N590 1.319 . S
C593 C591 1.397 . S
C593 H604 0.930 . S
C594 C591 1.367 . S
C594 C592 1.403 . S
C594 H615 0.929 . S
C595 C596 1.430 . S
C595 C597 1.387 . S
C595 C601 1.404 . S
C596 C589 1.448 . S
C596 C595 1.430 . S
C596 N600 1.351 . S
C597 C595 1.387 . S
C597 C598 1.374 . S
C597 H612 0.931 . S
C598 C592 1.439 . S
C598 C597 1.374 . S
C598 H613 0.931 . S
Eu599 N590 2.600 . S
Eu599 N600 2.562 . S
Eu599 O634 2.335 . S
Eu599 O637 2.372 . S
Eu599 O638 2.462 . S
Eu599 O639 2.373 . S
Eu599 O641 2.432 . S
Eu599 O642 2.291 . S
Eu599 C663 2.787 . S
N600 C596 1.351 . S
N600 Eu599 2.562 . S
N600 C602 1.325 . S
C601 C595 1.404 . S
C601 C603 1.366 . S
C601 H609 0.930 . S
C602 N600 1.325 . S
C602 C603 1.416 . S
C602 H608 0.929 . S
C603 C601 1.366 . S
C603 C602 1.416 . S
C603 H605 0.930 . S
H604 C593 0.930 . S
H605 C603 0.930 . S
H606 C621 0.930 . S
H607 C628 0.930 . S
H608 C602 0.929 . S
H609 C601 0.930 . S
H610 C624 0.929 . S
H611 C591 0.931 . S
H612 C597 0.931 . S
H613 C598 0.931 . S
H614 C619 0.931 . S
H615 C594 0.929 . S
H616 C627 0.930 . S
N617 Eu588 2.600 . S
N617 C618 1.365 . S
N617 C621 1.319 . S
C618 N617 1.365 . S
C618 C620 1.405 . S
C618 C626 1.448 . S
C619 H614 0.931 . S
C619 C621 1.397 . S
C619 C622 1.367 . S
C620 C618 1.405 . S
C620 C622 1.403 . S
C620 C653 1.439 . S
C621 H606 0.930 . S
C621 N617 1.319 . S
C621 C619 1.397 . S
C622 C619 1.367 . S
C622 C620 1.403 . S
C622 H629 0.929 . S
N623 Eu588 2.562 . S
N623 C624 1.325 . S
N623 C626 1.351 . S
C624 H610 0.929 . S
C624 N623 1.325 . S
C624 C628 1.416 . S
C625 C626 1.430 . S
C625 C627 1.404 . S
C625 C654 1.387 . S
C626 C618 1.448 . S
C626 N623 1.351 . S
C626 C625 1.430 . S
C627 H616 0.930 . S
C627 C625 1.404 . S
C627 C628 1.366 . S
C628 H607 0.930 . S
C628 C624 1.416 . S
C628 C627 1.366 . S
H629 C622 0.929 . S
H630 C653 0.931 . S
H631 C654 0.931 . S
O632 Eu588 2.462 . S
O632 C652 1.252 . S
O633 Eu588 2.373 . S
O633 C644 1.249 . S
O634 Eu599 2.335 . S
O634 C644 1.264 . S
O635 Eu588 2.432 . S
O635 C652 1.268 . S
O636 Eu588 2.291 . S
O636 C651 1.255 . S
O637 Eu599 2.372 . S
O637 C651 1.257 . S
O638 Eu599 2.462 . S
O638 C663 1.252 . S
O639 Eu599 2.373 . S
O639 C655 1.249 . S
O640 Eu588 2.335 . S
O640 C655 1.264 . S
O641 Eu599 2.432 . S
O641 C663 1.268 . S
O642 Eu599 2.291 . S
O642 C662 1.255 . S
O643 Eu588 2.372 . S
O643 C662 1.257 . S
C644 O633 1.249 . S
C644 O634 1.264 . S
C645 C648 1.382 . S
C645 C650 1.390 . S
C645 C652 1.506 . S
C646 C647 1.398 . S
C646 C650 1.392 . S
C647 C646 1.398 . S
C647 C649 1.372 . S
C647 H664 0.931 . S
C648 C645 1.382 . S
C648 C649 1.390 . S
C648 H665 0.931 . S
C649 C647 1.372 . S
C649 C648 1.390 . S
C649 H666 0.929 . S
C650 C645 1.390 . S
C650 C646 1.392 . S
C650 H667 0.930 . S
C651 O636 1.255 . S
C651 O637 1.257 . S
C652 Eu588 2.787 . S
C652 O632 1.252 . S
C652 O635 1.268 . S
C652 C645 1.506 . S
C653 C620 1.439 . S
C653 H630 0.931 . S
C653 C654 1.374 . S
C654 C625 1.387 . S
C654 H631 0.931 . S
C654 C653 1.374 . S
C655 O639 1.249 . S
C655 O640 1.264 . S
C656 C659 1.382 . S
C656 C660 1.390 . S
C656 C663 1.506 . S
C657 C658 1.398 . S
C657 C660 1.392 . S
C658 C657 1.398 . S
C658 C661 1.372 . S
C658 H668 0.931 . S
C659 C656 1.382 . S
C659 C661 1.390 . S
C659 H669 0.931 . S
C660 C656 1.390 . S
C660 C657 1.392 . S
C660 H670 0.930 . S
C661 C658 1.372 . S
C661 C659 1.390 . S
C661 H671 0.929 . S
C662 O642 1.255 . S
C662 O643 1.257 . S
C663 Eu599 2.787 . S
C663 O638 1.252 . S
C663 O641 1.268 . S
C663 C656 1.506 . S
H664 C647 0.931 . S
H665 C648 0.931 . S
H666 C649 0.929 . S
H667 C650 0.930 . S
H668 C658 0.931 . S
H669 C659 0.931 . S
H670 C660 0.930 . S
H671 C661 0.929 . S
Eu672 N701 2.600 . S
Eu672 N707 2.562 . S
Eu672 O716 2.462 1_554 S
Eu672 O717 2.373 . S
Eu672 O719 2.432 . S
Eu672 O720 2.291 1_554 S
Eu672 O724 2.335 1_554 S
Eu672 O727 2.372 . S
Eu672 C736 2.787 1_554 S
C673 N674 1.365 . S
C673 C676 1.405 . S
C673 C680 1.448 . S
N674 C673 1.365 . S
N674 C677 1.319 . S
N674 Eu683 2.600 . S
C675 C677 1.397 . S
C675 C678 1.367 . S
C675 H695 0.931 . S
C676 C673 1.405 . S
C676 C678 1.403 . S
C676 C682 1.439 . S
C677 N674 1.319 . S
C677 C675 1.397 . S
C677 H688 0.930 . S
C678 C675 1.367 . S
C678 C676 1.403 . S
C678 H699 0.929 . S
C679 C680 1.430 . S
C679 C681 1.387 . S
C679 C685 1.404 . S
C680 C673 1.448 . S
C680 C679 1.430 . S
C680 N684 1.351 . S
C681 C679 1.387 . S
C681 C682 1.374 . S
C681 H696 0.931 . S
C682 C676 1.439 . S
C682 C681 1.374 . S
C682 H697 0.931 . S
Eu683 N674 2.600 . S
Eu683 N684 2.562 . S
Eu683 O718 2.335 1_556 S
Eu683 O721 2.372 . S
Eu683 O722 2.462 1_556 S
Eu683 O723 2.373 . S
Eu683 O725 2.432 . S
Eu683 O726 2.291 1_556 S
Eu683 C747 2.787 1_556 S
N684 C680 1.351 . S
N684 Eu683 2.562 . S
N684 C686 1.325 . S
C685 C679 1.404 . S
C685 C687 1.366 . S
C685 H693 0.930 . S
C686 N684 1.325 . S
C686 C687 1.416 . S
C686 H692 0.929 1_556 S
C687 C685 1.366 . S
C687 C686 1.416 . S
C687 H689 0.930 . S
H688 C677 0.930 . S
H689 C687 0.930 . S
H690 C705 0.930 . S
H691 C712 0.930 . S
H692 C686 0.929 1_554 S
H693 C685 0.930 . S
H694 C708 0.929 1_556 S
H695 C675 0.931 . S
H696 C681 0.931 . S
H697 C682 0.931 . S
H698 C703 0.931 . S
H699 C678 0.929 . S
H700 C711 0.930 . S
N701 Eu672 2.600 . S
N701 C702 1.365 . S
N701 C705 1.319 . S
C702 N701 1.365 . S
C702 C704 1.405 . S
C702 C710 1.448 . S
C703 H698 0.931 . S
C703 C705 1.397 . S
C703 C706 1.367 . S
C704 C702 1.405 . S
C704 C706 1.403 . S
C704 C737 1.439 . S
C705 H690 0.930 . S
C705 N701 1.319 . S
C705 C703 1.397 . S
C706 C703 1.367 . S
C706 C704 1.403 . S
C706 H713 0.929 . S
N707 Eu672 2.562 . S
N707 C708 1.325 . S
N707 C710 1.351 . S
C708 H694 0.929 1_554 S
C708 N707 1.325 . S
C708 C712 1.416 . S
C709 C710 1.430 . S
C709 C711 1.404 . S
C709 C738 1.387 . S
C710 C702 1.448 . S
C710 N707 1.351 . S
C710 C709 1.430 . S
C711 H700 0.930 . S
C711 C709 1.404 . S
C711 C712 1.366 . S
C712 H691 0.930 . S
C712 C708 1.416 . S
C712 C711 1.366 . S
H713 C706 0.929 . S
H714 C737 0.931 . S
H715 C738 0.931 . S
O716 Eu672 2.462 1_556 S
O716 C736 1.252 . S
O717 Eu672 2.373 . S
O717 C728 1.249 . S
O718 Eu683 2.335 1_554 S
O718 C728 1.264 . S
O719 Eu672 2.432 . S
O719 C736 1.268 1_554 S
O720 Eu672 2.291 1_556 S
O720 C735 1.255 . S
O721 Eu683 2.372 . S
O721 C735 1.257 . S
O722 Eu683 2.462 1_554 S
O722 C747 1.252 . S
O723 Eu683 2.373 . S
O723 C739 1.249 . S
O724 Eu672 2.335 1_556 S
O724 C739 1.264 . S
O725 Eu683 2.432 . S
O725 C747 1.268 1_556 S
O726 Eu683 2.291 1_554 S
O726 C746 1.255 . S
O727 Eu672 2.372 . S
O727 C746 1.257 . S
C728 O717 1.249 . S
C728 O718 1.264 . S
C729 C732 1.382 . S
C729 C734 1.390 . S
C729 C736 1.506 . S
C730 C731 1.398 . S
C730 C734 1.392 . S
C731 C730 1.398 . S
C731 C733 1.372 . S
C731 H748 0.931 . S
C732 C729 1.382 . S
C732 C733 1.390 . S
C732 H749 0.931 . S
C733 C731 1.372 . S
C733 C732 1.390 . S
C733 H750 0.929 . S
C734 C729 1.390 . S
C734 C730 1.392 . S
C734 H751 0.930 . S
C735 O720 1.255 . S
C735 O721 1.257 . S
C736 Eu672 2.787 1_556 S
C736 O716 1.252 . S
C736 O719 1.268 1_556 S
C736 C729 1.506 . S
C737 C704 1.439 . S
C737 H714 0.931 . S
C737 C738 1.374 . S
C738 C709 1.387 . S
C738 H715 0.931 . S
C738 C737 1.374 . S
C739 O723 1.249 . S
C739 O724 1.264 . S
C740 C743 1.382 . S
C740 C744 1.390 . S
C740 C747 1.506 . S
C741 C742 1.398 . S
C741 C744 1.392 . S
C742 C741 1.398 . S
C742 C745 1.372 . S
C742 H752 0.931 . S
C743 C740 1.382 . S
C743 C745 1.390 . S
C743 H753 0.931 . S
C744 C740 1.390 . S
C744 C741 1.392 . S
C744 H754 0.930 . S
C745 C742 1.372 . S
C745 C743 1.390 . S
C745 H755 0.929 . S
C746 O726 1.255 . S
C746 O727 1.257 . S
C747 Eu683 2.787 1_554 S
C747 O722 1.252 . S
C747 O725 1.268 1_554 S
C747 C740 1.506 . S
H748 C731 0.931 . S
H749 C732 0.931 . S
H750 C733 0.929 . S
H751 C734 0.930 . S
H752 C742 0.931 . S
H753 C743 0.931 . S
H754 C744 0.930 . S
H755 C745 0.929 . S
Eu756 N785 2.600 . S
Eu756 N791 2.562 . S
Eu756 O800 2.462 . S
Eu756 O801 2.373 . S
Eu756 O803 2.432 . S
Eu756 O804 2.291 . S
Eu756 O808 2.335 . S
Eu756 O811 2.372 . S
Eu756 C820 2.787 . S
C757 N758 1.365 . S
C757 C760 1.405 . S
C757 C764 1.448 . S
N758 C757 1.365 . S
N758 C761 1.319 . S
N758 Eu767 2.600 . S
C759 C761 1.397 . S
C759 C762 1.367 . S
C759 H779 0.931 . S
C760 C757 1.405 . S
C760 C762 1.403 . S
C760 C766 1.439 . S
C761 N758 1.319 . S
C761 C759 1.397 . S
C761 H772 0.930 . S
C762 C759 1.367 . S
C762 C760 1.403 . S
C762 H783 0.929 . S
C763 C764 1.430 . S
C763 C765 1.387 . S
C763 C769 1.404 . S
C764 C757 1.448 . S
C764 C763 1.430 . S
C764 N768 1.351 . S
C765 C763 1.387 . S
C765 C766 1.374 . S
C765 H780 0.931 . S
C766 C760 1.439 . S
C766 C765 1.374 . S
C766 H781 0.931 . S
Eu767 N758 2.600 . S
Eu767 N768 2.562 . S
Eu767 O802 2.335 . S
Eu767 O805 2.372 . S
Eu767 O806 2.462 . S
Eu767 O807 2.373 . S
Eu767 O809 2.432 . S
Eu767 O810 2.291 . S
Eu767 C831 2.787 . S
N768 C764 1.351 . S
N768 Eu767 2.562 . S
N768 C770 1.325 . S
C769 C763 1.404 . S
C769 C771 1.366 . S
C769 H777 0.930 . S
C770 N768 1.325 . S
C770 C771 1.416 . S
C770 H776 0.929 . S
C771 C769 1.366 . S
C771 C770 1.416 . S
C771 H773 0.930 . S
H772 C761 0.930 . S
H773 C771 0.930 . S
H774 C789 0.930 . S
H775 C796 0.930 . S
H776 C770 0.929 . S
H777 C769 0.930 . S
H778 C792 0.929 . S
H779 C759 0.931 . S
H780 C765 0.931 . S
H781 C766 0.931 . S
H782 C787 0.931 . S
H783 C762 0.929 . S
H784 C795 0.930 . S
N785 Eu756 2.600 . S
N785 C786 1.365 . S
N785 C789 1.319 . S
C786 N785 1.365 . S
C786 C788 1.405 . S
C786 C794 1.448 . S
C787 H782 0.931 . S
C787 C789 1.397 . S
C787 C790 1.367 . S
C788 C786 1.405 . S
C788 C790 1.403 . S
C788 C821 1.439 . S
C789 H774 0.930 . S
C789 N785 1.319 . S
C789 C787 1.397 . S
C790 C787 1.367 . S
C790 C788 1.403 . S
C790 H797 0.929 . S
N791 Eu756 2.562 . S
N791 C792 1.325 . S
N791 C794 1.351 . S
C792 H778 0.929 . S
C792 N791 1.325 . S
C792 C796 1.416 . S
C793 C794 1.430 . S
C793 C795 1.404 . S
C793 C822 1.387 . S
C794 C786 1.448 . S
C794 N791 1.351 . S
C794 C793 1.430 . S
C795 H784 0.930 . S
C795 C793 1.404 . S
C795 C796 1.366 . S
C796 H775 0.930 . S
C796 C792 1.416 . S
C796 C795 1.366 . S
H797 C790 0.929 . S
H798 C821 0.931 . S
H799 C822 0.931 . S
O800 Eu756 2.462 . S
O800 C820 1.252 . S
O801 Eu756 2.373 . S
O801 C812 1.249 . S
O802 Eu767 2.335 . S
O802 C812 1.264 . S
O803 Eu756 2.432 . S
O803 C820 1.268 . S
O804 Eu756 2.291 . S
O804 C819 1.255 . S
O805 Eu767 2.372 . S
O805 C819 1.257 . S
O806 Eu767 2.462 . S
O806 C831 1.252 . S
O807 Eu767 2.373 . S
O807 C823 1.249 . S
O808 Eu756 2.335 . S
O808 C823 1.264 . S
O809 Eu767 2.432 . S
O809 C831 1.268 . S
O810 Eu767 2.291 . S
O810 C830 1.255 . S
O811 Eu756 2.372 . S
O811 C830 1.257 . S
C812 O801 1.249 . S
C812 O802 1.264 . S
C813 C816 1.382 . S
C813 C818 1.390 . S
C813 C820 1.506 . S
C814 C815 1.398 . S
C814 C818 1.392 . S
C815 C814 1.398 . S
C815 C817 1.372 . S
C815 H832 0.931 . S
C816 C813 1.382 . S
C816 C817 1.390 . S
C816 H833 0.931 . S
C817 C815 1.372 . S
C817 C816 1.390 . S
C817 H834 0.929 . S
C818 C813 1.390 . S
C818 C814 1.392 . S
C818 H835 0.930 . S
C819 O804 1.255 . S
C819 O805 1.257 . S
C820 Eu756 2.787 . S
C820 O800 1.252 . S
C820 O803 1.268 . S
C820 C813 1.506 . S
C821 C788 1.439 . S
C821 H798 0.931 . S
C821 C822 1.374 . S
C822 C793 1.387 . S
C822 H799 0.931 . S
C822 C821 1.374 . S
C823 O807 1.249 . S
C823 O808 1.264 . S
C824 C827 1.382 . S
C824 C828 1.390 . S
C824 C831 1.506 . S
C825 C826 1.398 . S
C825 C828 1.392 . S
C826 C825 1.398 . S
C826 C829 1.372 . S
C826 H836 0.931 . S
C827 C824 1.382 . S
C827 C829 1.390 . S
C827 H837 0.931 . S
C828 C824 1.390 . S
C828 C825 1.392 . S
C828 H838 0.930 . S
C829 C826 1.372 . S
C829 C827 1.390 . S
C829 H839 0.929 . S
C830 O810 1.255 . S
C830 O811 1.257 . S
C831 Eu767 2.787 . S
C831 O806 1.252 . S
C831 O809 1.268 . S
C831 C824 1.506 . S
H832 C815 0.931 . S
H833 C816 0.931 . S
H834 C817 0.929 . S
H835 C818 0.930 . S
H836 C826 0.931 . S
H837 C827 0.931 . S
H838 C828 0.930 . S
H839 C829 0.929 . S
Eu840 N869 2.600 . S
Eu840 N875 2.562 1_655 S
Eu840 O884 2.462 . S
Eu840 O885 2.373 1_655 S
Eu840 O887 2.432 . S
Eu840 O888 2.291 1_655 S
Eu840 O892 2.335 . S
Eu840 O895 2.372 . S
Eu840 C904 2.787 . S
C841 N842 1.365 . S
C841 C844 1.405 . S
C841 C848 1.448 . S
N842 C841 1.365 . S
N842 C845 1.319 . S
N842 Eu851 2.600 . S
C843 C845 1.397 . S
C843 C846 1.367 . S
C843 H863 0.931 . S
C844 C841 1.405 . S
C844 C846 1.403 . S
C844 C850 1.439 . S
C845 N842 1.319 . S
C845 C843 1.397 . S
C845 H856 0.930 . S
C846 C843 1.367 . S
C846 C844 1.403 . S
C846 H867 0.929 . S
C847 C848 1.430 1_655 S
C847 C849 1.387 . S
C847 C853 1.404 . S
C848 C841 1.448 . S
C848 C847 1.430 1_455 S
C848 N852 1.351 1_455 S
C849 C847 1.387 . S
C849 C850 1.374 1_655 S
C849 H864 0.931 . S
C850 C844 1.439 . S
C850 C849 1.374 1_455 S
C850 H865 0.931 . S
Eu851 N842 2.600 . S
Eu851 N852 2.562 1_455 S
Eu851 O886 2.335 . S
Eu851 O889 2.372 . S
Eu851 O890 2.462 . S
Eu851 O891 2.373 1_455 S
Eu851 O893 2.432 . S
Eu851 O894 2.291 1_455 S
Eu851 C915 2.787 . S
N852 C848 1.351 1_655 S
N852 Eu851 2.562 1_655 S
N852 C854 1.325 . S
C853 C847 1.404 . S
C853 C855 1.366 . S
C853 H861 0.930 . S
C854 N852 1.325 . S
C854 C855 1.416 . S
C854 H860 0.929 . S
C855 C853 1.366 . S
C855 C854 1.416 . S
C855 H857 0.930 . S
H856 C845 0.930 . S
H857 C855 0.930 . S
H858 C873 0.930 . S
H859 C880 0.930 . S
H860 C854 0.929 . S
H861 C853 0.930 . S
H862 C876 0.929 . S
H863 C843 0.931 . S
H864 C849 0.931 . S
H865 C850 0.931 . S
H866 C871 0.931 . S
H867 C846 0.929 . S
H868 C879 0.930 . S
N869 Eu840 2.600 . S
N869 C870 1.365 . S
N869 C873 1.319 . S
C870 N869 1.365 . S
C870 C872 1.405 . S
C870 C878 1.448 . S
C871 H866 0.931 . S
C871 C873 1.397 . S
C871 C874 1.367 . S
C872 C870 1.405 . S
C872 C874 1.403 . S
C872 C905 1.439 . S
C873 H858 0.930 . S
C873 N869 1.319 . S
C873 C871 1.397 . S
C874 C871 1.367 . S
C874 C872 1.403 . S
C874 H881 0.929 . S
N875 Eu840 2.562 1_455 S
N875 C876 1.325 . S
N875 C878 1.351 1_455 S
C876 H862 0.929 . S
C876 N875 1.325 . S
C876 C880 1.416 . S
C877 C878 1.430 1_455 S
C877 C879 1.404 . S
C877 C906 1.387 . S
C878 C870 1.448 . S
C878 N875 1.351 1_655 S
C878 C877 1.430 1_655 S
C879 H868 0.930 . S
C879 C877 1.404 . S
C879 C880 1.366 . S
C880 H859 0.930 . S
C880 C876 1.416 . S
C880 C879 1.366 . S
H881 C874 0.929 . S
H882 C905 0.931 . S
H883 C906 0.931 . S
O884 Eu840 2.462 . S
O884 C904 1.252 . S
O885 Eu840 2.373 1_455 S
O885 C896 1.249 . S
O886 Eu851 2.335 . S
O886 C896 1.264 . S
O887 Eu840 2.432 . S
O887 C904 1.268 . S
O888 Eu840 2.291 1_455 S
O888 C903 1.255 . S
O889 Eu851 2.372 . S
O889 C903 1.257 . S
O890 Eu851 2.462 . S
O890 C915 1.252 . S
O891 Eu851 2.373 1_655 S
O891 C907 1.249 . S
O892 Eu840 2.335 . S
O892 C907 1.264 . S
O893 Eu851 2.432 . S
O893 C915 1.268 . S
O894 Eu851 2.291 1_655 S
O894 C914 1.255 . S
O895 Eu840 2.372 . S
O895 C914 1.257 . S
C896 O885 1.249 . S
C896 O886 1.264 . S
C897 C900 1.382 . S
C897 C902 1.390 . S
C897 C904 1.506 . S
C898 C899 1.398 . S
C898 C902 1.392 . S
C899 C898 1.398 . S
C899 C901 1.372 . S
C899 H916 0.931 . S
C900 C897 1.382 . S
C900 C901 1.390 . S
C900 H917 0.931 . S
C901 C899 1.372 . S
C901 C900 1.390 . S
C901 H918 0.929 . S
C902 C897 1.390 . S
C902 C898 1.392 . S
C902 H919 0.930 . S
C903 O888 1.255 . S
C903 O889 1.257 . S
C904 Eu840 2.787 . S
C904 O884 1.252 . S
C904 O887 1.268 . S
C904 C897 1.506 . S
C905 C872 1.439 . S
C905 H882 0.931 . S
C905 C906 1.374 1_655 S
C906 C877 1.387 . S
C906 H883 0.931 . S
C906 C905 1.374 1_455 S
C907 O891 1.249 . S
C907 O892 1.264 . S
C908 C911 1.382 . S
C908 C912 1.390 . S
C908 C915 1.506 . S
C909 C910 1.398 . S
C909 C912 1.392 . S
C910 C909 1.398 . S
C910 C913 1.372 . S
C910 H920 0.931 . S
C911 C908 1.382 . S
C911 C913 1.390 . S
C911 H921 0.931 . S
C912 C908 1.390 . S
C912 C909 1.392 . S
C912 H922 0.930 . S
C913 C910 1.372 . S
C913 C911 1.390 . S
C913 H923 0.929 . S
C914 O894 1.255 . S
C914 O895 1.257 . S
C915 Eu851 2.787 . S
C915 O890 1.252 . S
C915 O893 1.268 . S
C915 C908 1.506 . S
H916 C899 0.931 . S
H917 C900 0.931 . S
H918 C901 0.929 . S
H919 C902 0.930 . S
H920 C910 0.931 . S
H921 C911 0.931 . S
H922 C912 0.930 . S
H923 C913 0.929 . S
Eu924 N953 2.600 . S
Eu924 N959 2.562 . S
Eu924 O968 2.462 . S
Eu924 O969 2.373 . S
Eu924 O971 2.432 . S
Eu924 O972 2.291 . S
Eu924 O976 2.335 . S
Eu924 O979 2.372 . S
Eu924 C988 2.787 . S
C925 N926 1.365 . S
C925 C928 1.405 . S
C925 C932 1.448 . S
N926 C925 1.365 . S
N926 C929 1.319 . S
N926 Eu935 2.600 . S
C927 C929 1.397 . S
C927 C930 1.367 . S
C927 H947 0.931 . S
C928 C925 1.405 . S
C928 C930 1.403 . S
C928 C934 1.439 . S
C929 N926 1.319 . S
C929 C927 1.397 . S
C929 H940 0.930 . S
C930 C927 1.367 . S
C930 C928 1.403 . S
C930 H951 0.929 . S
C931 C932 1.430 . S
C931 C933 1.387 . S
C931 C937 1.404 . S
C932 C925 1.448 . S
C932 C931 1.430 . S
C932 N936 1.351 . S
C933 C931 1.387 . S
C933 C934 1.374 . S
C933 H948 0.931 . S
C934 C928 1.439 . S
C934 C933 1.374 . S
C934 H949 0.931 . S
Eu935 N926 2.600 . S
Eu935 N936 2.562 . S
Eu935 O970 2.335 . S
Eu935 O973 2.372 . S
Eu935 O974 2.462 . S
Eu935 O975 2.373 . S
Eu935 O977 2.432 . S
Eu935 O978 2.291 . S
Eu935 C999 2.787 . S
N936 C932 1.351 . S
N936 Eu935 2.562 . S
N936 C938 1.325 . S
C937 C931 1.404 . S
C937 C939 1.366 . S
C937 H945 0.930 . S
C938 N936 1.325 . S
C938 C939 1.416 . S
C938 H944 0.929 . S
C939 C937 1.366 . S
C939 C938 1.416 . S
C939 H941 0.930 . S
H940 C929 0.930 . S
H941 C939 0.930 . S
H942 C957 0.930 . S
H943 C964 0.930 . S
H944 C938 0.929 . S
H945 C937 0.930 . S
H946 C960 0.929 . S
H947 C927 0.931 . S
H948 C933 0.931 . S
H949 C934 0.931 . S
H950 C955 0.931 . S
H951 C930 0.929 . S
H952 C963 0.930 . S
N953 Eu924 2.600 . S
N953 C954 1.365 . S
N953 C957 1.319 . S
C954 N953 1.365 . S
C954 C956 1.405 . S
C954 C962 1.448 . S
C955 H950 0.931 . S
C955 C957 1.397 . S
C955 C958 1.367 . S
C956 C954 1.405 . S
C956 C958 1.403 . S
C956 C989 1.439 . S
C957 H942 0.930 . S
C957 N953 1.319 . S
C957 C955 1.397 . S
C958 C955 1.367 . S
C958 C956 1.403 . S
C958 H965 0.929 . S
N959 Eu924 2.562 . S
N959 C960 1.325 . S
N959 C962 1.351 . S
C960 H946 0.929 . S
C960 N959 1.325 . S
C960 C964 1.416 . S
C961 C962 1.430 . S
C961 C963 1.404 . S
C961 C990 1.387 . S
C962 C954 1.448 . S
C962 N959 1.351 . S
C962 C961 1.430 . S
C963 H952 0.930 . S
C963 C961 1.404 . S
C963 C964 1.366 . S
C964 H943 0.930 . S
C964 C960 1.416 . S
C964 C963 1.366 . S
H965 C958 0.929 . S
H966 C989 0.931 . S
H967 C990 0.931 . S
O968 Eu924 2.462 . S
O968 C988 1.252 . S
O969 Eu924 2.373 . S
O969 C980 1.249 . S
O970 Eu935 2.335 . S
O970 C980 1.264 . S
O971 Eu924 2.432 . S
O971 C988 1.268 . S
O972 Eu924 2.291 . S
O972 C987 1.255 . S
O973 Eu935 2.372 . S
O973 C987 1.257 . S
O974 Eu935 2.462 . S
O974 C999 1.252 . S
O975 Eu935 2.373 . S
O975 C991 1.249 . S
O976 Eu924 2.335 . S
O976 C991 1.264 . S
O977 Eu935 2.432 . S
O977 C999 1.268 . S
O978 Eu935 2.291 . S
O978 C998 1.255 . S
O979 Eu924 2.372 . S
O979 C998 1.257 . S
C980 O969 1.249 . S
C980 O970 1.264 . S
C981 C984 1.382 . S
C981 C986 1.390 . S
C981 C988 1.506 . S
C982 C983 1.398 . S
C982 C986 1.392 . S
C983 C982 1.398 . S
C983 C985 1.372 . S
C983 H1000 0.931 . S
C984 C981 1.382 . S
C984 C985 1.390 . S
C984 H1001 0.931 . S
C985 C983 1.372 . S
C985 C984 1.390 . S
C985 H1002 0.929 . S
C986 C981 1.390 . S
C986 C982 1.392 . S
C986 H1003 0.930 . S
C987 O972 1.255 . S
C987 O973 1.257 . S
C988 Eu924 2.787 . S
C988 O968 1.252 . S
C988 O971 1.268 . S
C988 C981 1.506 . S
C989 C956 1.439 . S
C989 H966 0.931 . S
C989 C990 1.374 . S
C990 C961 1.387 . S
C990 H967 0.931 . S
C990 C989 1.374 . S
C991 O975 1.249 . S
C991 O976 1.264 . S
C992 C995 1.382 . S
C992 C996 1.390 . S
C992 C999 1.506 . S
C993 C994 1.398 . S
C993 C996 1.392 . S
C994 C993 1.398 . S
C994 C997 1.372 . S
C994 H1004 0.931 . S
C995 C992 1.382 . S
C995 C997 1.390 . S
C995 H1005 0.931 . S
C996 C992 1.390 . S
C996 C993 1.392 . S
C996 H1006 0.930 . S
C997 C994 1.372 . S
C997 C995 1.390 . S
C997 H1007 0.929 . S
C998 O978 1.255 . S
C998 O979 1.257 . S
C999 Eu935 2.787 . S
C999 O974 1.252 . S
C999 O977 1.268 . S
C999 C992 1.506 . S
H1000 C983 0.931 . S
H1001 C984 0.931 . S
H1002 C985 0.929 . S
H1003 C986 0.930 . S
H1004 C994 0.931 . S
H1005 C995 0.931 . S
H1006 C996 0.930 . S
H1007 C997 0.929 . S
Eu1008 N1037 2.600 . S
Eu1008 N1043 2.562 . S
Eu1008 O1052 2.462 . S
Eu1008 O1053 2.373 . S
Eu1008 O1055 2.432 . S
Eu1008 O1056 2.291 . S
Eu1008 O1060 2.335 . S
Eu1008 O1063 2.372 . S
Eu1008 C1072 2.787 . S
C1009 N1010 1.365 . S
C1009 C1012 1.405 . S
C1009 C1016 1.448 . S
N1010 C1009 1.365 . S
N1010 C1013 1.319 . S
N1010 Eu1019 2.600 . S
C1011 C1013 1.397 . S
C1011 C1014 1.367 . S
C1011 H1031 0.931 . S
C1012 C1009 1.405 . S
C1012 C1014 1.403 . S
C1012 C1018 1.439 . S
C1013 N1010 1.319 . S
C1013 C1011 1.397 . S
C1013 H1024 0.930 . S
C1014 C1011 1.367 . S
C1014 C1012 1.403 . S
C1014 H1035 0.929 . S
C1015 C1016 1.430 . S
C1015 C1017 1.387 . S
C1015 C1021 1.404 . S
C1016 C1009 1.448 . S
C1016 C1015 1.430 . S
C1016 N1020 1.351 . S
C1017 C1015 1.387 . S
C1017 C1018 1.374 . S
C1017 H1032 0.931 . S
C1018 C1012 1.439 . S
C1018 C1017 1.374 . S
C1018 H1033 0.931 . S
Eu1019 N1010 2.600 . S
Eu1019 N1020 2.562 . S
Eu1019 O1054 2.335 . S
Eu1019 O1057 2.372 . S
Eu1019 O1058 2.462 . S
Eu1019 O1059 2.373 . S
Eu1019 O1061 2.432 . S
Eu1019 O1062 2.291 . S
Eu1019 C1083 2.787 . S
N1020 C1016 1.351 . S
N1020 Eu1019 2.562 . S
N1020 C1022 1.325 . S
C1021 C1015 1.404 . S
C1021 C1023 1.366 . S
C1021 H1029 0.930 . S
C1022 N1020 1.325 . S
C1022 C1023 1.416 . S
C1022 H1028 0.929 . S
C1023 C1021 1.366 . S
C1023 C1022 1.416 . S
C1023 H1025 0.930 . S
H1024 C1013 0.930 . S
H1025 C1023 0.930 . S
H1026 C1041 0.930 . S
H1027 C1048 0.930 . S
H1028 C1022 0.929 . S
H1029 C1021 0.930 . S
H1030 C1044 0.929 . S
H1031 C1011 0.931 . S
H1032 C1017 0.931 . S
H1033 C1018 0.931 . S
H1034 C1039 0.931 . S
H1035 C1014 0.929 . S
H1036 C1047 0.930 . S
N1037 Eu1008 2.600 . S
N1037 C1038 1.365 . S
N1037 C1041 1.319 . S
C1038 N1037 1.365 . S
C1038 C1040 1.405 . S
C1038 C1046 1.448 . S
C1039 H1034 0.931 . S
C1039 C1041 1.397 . S
C1039 C1042 1.367 . S
C1040 C1038 1.405 . S
C1040 C1042 1.403 . S
C1040 C1073 1.439 . S
C1041 H1026 0.930 . S
C1041 N1037 1.319 . S
C1041 C1039 1.397 . S
C1042 C1039 1.367 . S
C1042 C1040 1.403 . S
C1042 H1049 0.929 . S
N1043 Eu1008 2.562 . S
N1043 C1044 1.325 . S
N1043 C1046 1.351 . S
C1044 H1030 0.929 . S
C1044 N1043 1.325 . S
C1044 C1048 1.416 . S
C1045 C1046 1.430 . S
C1045 C1047 1.404 . S
C1045 C1074 1.387 . S
C1046 C1038 1.448 . S
C1046 N1043 1.351 . S
C1046 C1045 1.430 . S
C1047 H1036 0.930 . S
C1047 C1045 1.404 . S
C1047 C1048 1.366 . S
C1048 H1027 0.930 . S
C1048 C1044 1.416 . S
C1048 C1047 1.366 . S
H1049 C1042 0.929 . S
H1050 C1073 0.931 . S
H1051 C1074 0.931 . S
O1052 Eu1008 2.462 . S
O1052 C1072 1.252 . S
O1053 Eu1008 2.373 . S
O1053 C1064 1.249 . S
O1054 Eu1019 2.335 . S
O1054 C1064 1.264 . S
O1055 Eu1008 2.432 . S
O1055 C1072 1.268 . S
O1056 Eu1008 2.291 . S
O1056 C1071 1.255 . S
O1057 Eu1019 2.372 . S
O1057 C1071 1.257 . S
O1058 Eu1019 2.462 . S
O1058 C1083 1.252 . S
O1059 Eu1019 2.373 . S
O1059 C1075 1.249 . S
O1060 Eu1008 2.335 . S
O1060 C1075 1.264 . S
O1061 Eu1019 2.432 . S
O1061 C1083 1.268 . S
O1062 Eu1019 2.291 . S
O1062 C1082 1.255 . S
O1063 Eu1008 2.372 . S
O1063 C1082 1.257 . S
C1064 O1053 1.249 . S
C1064 O1054 1.264 . S
C1065 C1068 1.382 . S
C1065 C1070 1.390 . S
C1065 C1072 1.506 . S
C1066 C1067 1.398 . S
C1066 C1070 1.392 . S
C1067 C1066 1.398 . S
C1067 C1069 1.372 . S
C1067 H1084 0.931 . S
C1068 C1065 1.382 . S
C1068 C1069 1.390 . S
C1068 H1085 0.931 . S
C1069 C1067 1.372 . S
C1069 C1068 1.390 . S
C1069 H1086 0.929 . S
C1070 C1065 1.390 . S
C1070 C1066 1.392 . S
C1070 H1087 0.930 . S
C1071 O1056 1.255 . S
C1071 O1057 1.257 . S
C1072 Eu1008 2.787 . S
C1072 O1052 1.252 . S
C1072 O1055 1.268 . S
C1072 C1065 1.506 . S
C1073 C1040 1.439 . S
C1073 H1050 0.931 . S
C1073 C1074 1.374 . S
C1074 C1045 1.387 . S
C1074 H1051 0.931 . S
C1074 C1073 1.374 . S
C1075 O1059 1.249 . S
C1075 O1060 1.264 . S
C1076 C1079 1.382 . S
C1076 C1080 1.390 . S
C1076 C1083 1.506 . S
C1077 C1078 1.398 . S
C1077 C1080 1.392 . S
C1078 C1077 1.398 . S
C1078 C1081 1.372 . S
C1078 H1088 0.931 . S
C1079 C1076 1.382 . S
C1079 C1081 1.390 . S
C1079 H1089 0.931 . S
C1080 C1076 1.390 . S
C1080 C1077 1.392 . S
C1080 H1090 0.930 . S
C1081 C1078 1.372 . S
C1081 C1079 1.390 . S
C1081 H1091 0.929 . S
C1082 O1062 1.255 . S
C1082 O1063 1.257 . S
C1083 Eu1019 2.787 . S
C1083 O1058 1.252 . S
C1083 O1061 1.268 . S
C1083 C1076 1.506 . S
H1084 C1067 0.931 . S
H1085 C1068 0.931 . S
H1086 C1069 0.929 . S
H1087 C1070 0.930 . S
H1088 C1078 0.931 . S
H1089 C1079 0.931 . S
H1090 C1080 0.930 . S
H1091 C1081 0.929 . S
Eu1092 N1121 2.600 . S
Eu1092 N1127 2.562 . S
Eu1092 O1136 2.462 . S
Eu1092 O1137 2.373 . S
Eu1092 O1139 2.432 . S
Eu1092 O1140 2.291 . S
Eu1092 O1144 2.335 . S
Eu1092 O1147 2.372 . S
Eu1092 C1156 2.787 . S
C1093 N1094 1.365 . S
C1093 C1096 1.405 . S
C1093 C1100 1.448 . S
N1094 C1093 1.365 . S
N1094 C1097 1.319 . S
N1094 Eu1103 2.600 . S
C1095 C1097 1.397 . S
C1095 C1098 1.367 . S
C1095 H1115 0.931 . S
C1096 C1093 1.405 . S
C1096 C1098 1.403 . S
C1096 C1102 1.439 . S
C1097 N1094 1.319 . S
C1097 C1095 1.397 . S
C1097 H1108 0.930 . S
C1098 C1095 1.367 . S
C1098 C1096 1.403 . S
C1098 H1119 0.929 . S
C1099 C1100 1.430 . S
C1099 C1101 1.387 . S
C1099 C1105 1.404 . S
C1100 C1093 1.448 . S
C1100 C1099 1.430 . S
C1100 N1104 1.351 . S
C1101 C1099 1.387 . S
C1101 C1102 1.374 . S
C1101 H1116 0.931 . S
C1102 C1096 1.439 . S
C1102 C1101 1.374 . S
C1102 H1117 0.931 . S
Eu1103 N1094 2.600 . S
Eu1103 N1104 2.562 . S
Eu1103 O1138 2.335 . S
Eu1103 O1141 2.372 . S
Eu1103 O1142 2.462 . S
Eu1103 O1143 2.373 . S
Eu1103 O1145 2.432 . S
Eu1103 O1146 2.291 . S
Eu1103 C1167 2.787 . S
N1104 C1100 1.351 . S
N1104 Eu1103 2.562 . S
N1104 C1106 1.325 . S
C1105 C1099 1.404 . S
C1105 C1107 1.366 . S
C1105 H1113 0.930 . S
C1106 N1104 1.325 . S
C1106 C1107 1.416 . S
C1106 H1112 0.929 . S
C1107 C1105 1.366 . S
C1107 C1106 1.416 . S
C1107 H1109 0.930 . S
H1108 C1097 0.930 . S
H1109 C1107 0.930 . S
H1110 C1125 0.930 . S
H1111 C1132 0.930 . S
H1112 C1106 0.929 . S
H1113 C1105 0.930 . S
H1114 C1128 0.929 . S
H1115 C1095 0.931 . S
H1116 C1101 0.931 . S
H1117 C1102 0.931 . S
H1118 C1123 0.931 . S
H1119 C1098 0.929 . S
H1120 C1131 0.930 . S
N1121 Eu1092 2.600 . S
N1121 C1122 1.365 . S
N1121 C1125 1.319 . S
C1122 N1121 1.365 . S
C1122 C1124 1.405 . S
C1122 C1130 1.448 . S
C1123 H1118 0.931 . S
C1123 C1125 1.397 . S
C1123 C1126 1.367 . S
C1124 C1122 1.405 . S
C1124 C1126 1.403 . S
C1124 C1157 1.439 . S
C1125 H1110 0.930 . S
C1125 N1121 1.319 . S
C1125 C1123 1.397 . S
C1126 C1123 1.367 . S
C1126 C1124 1.403 . S
C1126 H1133 0.929 . S
N1127 Eu1092 2.562 . S
N1127 C1128 1.325 . S
N1127 C1130 1.351 . S
C1128 H1114 0.929 . S
C1128 N1127 1.325 . S
C1128 C1132 1.416 . S
C1129 C1130 1.430 . S
C1129 C1131 1.404 . S
C1129 C1158 1.387 . S
C1130 C1122 1.448 . S
C1130 N1127 1.351 . S
C1130 C1129 1.430 . S
C1131 H1120 0.930 . S
C1131 C1129 1.404 . S
C1131 C1132 1.366 . S
C1132 H1111 0.930 . S
C1132 C1128 1.416 . S
C1132 C1131 1.366 . S
H1133 C1126 0.929 . S
H1134 C1157 0.931 . S
H1135 C1158 0.931 . S
O1136 Eu1092 2.462 . S
O1136 C1156 1.252 . S
O1137 Eu1092 2.373 . S
O1137 C1148 1.249 . S
O1138 Eu1103 2.335 . S
O1138 C1148 1.264 . S
O1139 Eu1092 2.432 . S
O1139 C1156 1.268 . S
O1140 Eu1092 2.291 . S
O1140 C1155 1.255 . S
O1141 Eu1103 2.372 . S
O1141 C1155 1.257 . S
O1142 Eu1103 2.462 . S
O1142 C1167 1.252 . S
O1143 Eu1103 2.373 . S
O1143 C1159 1.249 . S
O1144 Eu1092 2.335 . S
O1144 C1159 1.264 . S
O1145 Eu1103 2.432 . S
O1145 C1167 1.268 . S
O1146 Eu1103 2.291 . S
O1146 C1166 1.255 . S
O1147 Eu1092 2.372 . S
O1147 C1166 1.257 . S
C1148 O1137 1.249 . S
C1148 O1138 1.264 . S
C1149 C1152 1.382 . S
C1149 C1154 1.390 . S
C1149 C1156 1.506 . S
C1150 C1151 1.398 . S
C1150 C1154 1.392 . S
C1151 C1150 1.398 . S
C1151 C1153 1.372 . S
C1151 H1168 0.931 . S
C1152 C1149 1.382 . S
C1152 C1153 1.390 . S
C1152 H1169 0.931 . S
C1153 C1151 1.372 . S
C1153 C1152 1.390 . S
C1153 H1170 0.929 . S
C1154 C1149 1.390 . S
C1154 C1150 1.392 . S
C1154 H1171 0.930 . S
C1155 O1140 1.255 . S
C1155 O1141 1.257 . S
C1156 Eu1092 2.787 . S
C1156 O1136 1.252 . S
C1156 O1139 1.268 . S
C1156 C1149 1.506 . S
C1157 C1124 1.439 . S
C1157 H1134 0.931 . S
C1157 C1158 1.374 . S
C1158 C1129 1.387 . S
C1158 H1135 0.931 . S
C1158 C1157 1.374 . S
C1159 O1143 1.249 . S
C1159 O1144 1.264 . S
C1160 C1163 1.382 . S
C1160 C1164 1.390 . S
C1160 C1167 1.506 . S
C1161 C1162 1.398 . S
C1161 C1164 1.392 . S
C1162 C1161 1.398 . S
C1162 C1165 1.372 . S
C1162 H1172 0.931 . S
C1163 C1160 1.382 . S
C1163 C1165 1.390 . S
C1163 H1173 0.931 . S
C1164 C1160 1.390 . S
C1164 C1161 1.392 . S
C1164 H1174 0.930 . S
C1165 C1162 1.372 . S
C1165 C1163 1.390 . S
C1165 H1175 0.929 . S
C1166 O1146 1.255 . S
C1166 O1147 1.257 . S
C1167 Eu1103 2.787 . S
C1167 O1142 1.252 . S
C1167 O1145 1.268 . S
C1167 C1160 1.506 . S
H1168 C1151 0.931 . S
H1169 C1152 0.931 . S
H1170 C1153 0.929 . S
H1171 C1154 0.930 . S
H1172 C1162 0.931 . S
H1173 C1163 0.931 . S
H1174 C1164 0.930 . S
H1175 C1165 0.929 . S
Eu1176 N1205 2.600 . S
Eu1176 N1211 2.562 . S
Eu1176 O1220 2.462 . S
Eu1176 O1221 2.373 . S
Eu1176 O1223 2.432 . S
Eu1176 O1224 2.291 . S
Eu1176 O1228 2.335 . S
Eu1176 O1231 2.372 . S
Eu1176 C1240 2.787 . S
C1177 N1178 1.365 . S
C1177 C1180 1.405 . S
C1177 C1184 1.448 . S
N1178 C1177 1.365 . S
N1178 C1181 1.319 . S
N1178 Eu1187 2.600 . S
C1179 C1181 1.397 . S
C1179 C1182 1.367 . S
C1179 H1199 0.931 . S
C1180 C1177 1.405 . S
C1180 C1182 1.403 . S
C1180 C1186 1.439 . S
C1181 N1178 1.319 . S
C1181 C1179 1.397 . S
C1181 H1192 0.930 . S
C1182 C1179 1.367 . S
C1182 C1180 1.403 . S
C1182 H1203 0.929 . S
C1183 C1184 1.430 . S
C1183 C1185 1.387 . S
C1183 C1189 1.404 . S
C1184 C1177 1.448 . S
C1184 C1183 1.430 . S
C1184 N1188 1.351 . S
C1185 C1183 1.387 . S
C1185 C1186 1.374 . S
C1185 H1200 0.931 . S
C1186 C1180 1.439 . S
C1186 C1185 1.374 . S
C1186 H1201 0.931 . S
Eu1187 N1178 2.600 . S
Eu1187 N1188 2.562 . S
Eu1187 O1222 2.335 . S
Eu1187 O1225 2.372 . S
Eu1187 O1226 2.462 . S
Eu1187 O1227 2.373 . S
Eu1187 O1229 2.432 . S
Eu1187 O1230 2.291 . S
Eu1187 C1251 2.787 . S
N1188 C1184 1.351 . S
N1188 Eu1187 2.562 . S
N1188 C1190 1.325 . S
C1189 C1183 1.404 . S
C1189 C1191 1.366 . S
C1189 H1197 0.930 . S
C1190 N1188 1.325 . S
C1190 C1191 1.416 . S
C1190 H1196 0.929 . S
C1191 C1189 1.366 . S
C1191 C1190 1.416 . S
C1191 H1193 0.930 . S
H1192 C1181 0.930 . S
H1193 C1191 0.930 . S
H1194 C1209 0.930 . S
H1195 C1216 0.930 . S
H1196 C1190 0.929 . S
H1197 C1189 0.930 . S
H1198 C1212 0.929 . S
H1199 C1179 0.931 . S
H1200 C1185 0.931 . S
H1201 C1186 0.931 . S
H1202 C1207 0.931 . S
H1203 C1182 0.929 . S
H1204 C1215 0.930 . S
N1205 Eu1176 2.600 . S
N1205 C1206 1.365 . S
N1205 C1209 1.319 . S
C1206 N1205 1.365 . S
C1206 C1208 1.405 . S
C1206 C1214 1.448 . S
C1207 H1202 0.931 . S
C1207 C1209 1.397 . S
C1207 C1210 1.367 . S
C1208 C1206 1.405 . S
C1208 C1210 1.403 . S
C1208 C1241 1.439 . S
C1209 H1194 0.930 . S
C1209 N1205 1.319 . S
C1209 C1207 1.397 . S
C1210 C1207 1.367 . S
C1210 C1208 1.403 . S
C1210 H1217 0.929 . S
N1211 Eu1176 2.562 . S
N1211 C1212 1.325 . S
N1211 C1214 1.351 . S
C1212 H1198 0.929 . S
C1212 N1211 1.325 . S
C1212 C1216 1.416 . S
C1213 C1214 1.430 . S
C1213 C1215 1.404 . S
C1213 C1242 1.387 . S
C1214 C1206 1.448 . S
C1214 N1211 1.351 . S
C1214 C1213 1.430 . S
C1215 H1204 0.930 . S
C1215 C1213 1.404 . S
C1215 C1216 1.366 . S
C1216 H1195 0.930 . S
C1216 C1212 1.416 . S
C1216 C1215 1.366 . S
H1217 C1210 0.929 . S
H1218 C1241 0.931 . S
H1219 C1242 0.931 . S
O1220 Eu1176 2.462 . S
O1220 C1240 1.252 . S
O1221 Eu1176 2.373 . S
O1221 C1232 1.249 . S
O1222 Eu1187 2.335 . S
O1222 C1232 1.264 . S
O1223 Eu1176 2.432 . S
O1223 C1240 1.268 . S
O1224 Eu1176 2.291 . S
O1224 C1239 1.255 . S
O1225 Eu1187 2.372 . S
O1225 C1239 1.257 . S
O1226 Eu1187 2.462 . S
O1226 C1251 1.252 . S
O1227 Eu1187 2.373 . S
O1227 C1243 1.249 . S
O1228 Eu1176 2.335 . S
O1228 C1243 1.264 . S
O1229 Eu1187 2.432 . S
O1229 C1251 1.268 . S
O1230 Eu1187 2.291 . S
O1230 C1250 1.255 . S
O1231 Eu1176 2.372 . S
O1231 C1250 1.257 . S
C1232 O1221 1.249 . S
C1232 O1222 1.264 . S
C1233 C1236 1.382 . S
C1233 C1238 1.390 . S
C1233 C1240 1.506 . S
C1234 C1235 1.398 . S
C1234 C1238 1.392 . S
C1235 C1234 1.398 . S
C1235 C1237 1.372 . S
C1235 H1252 0.931 . S
C1236 C1233 1.382 . S
C1236 C1237 1.390 . S
C1236 H1253 0.931 . S
C1237 C1235 1.372 . S
C1237 C1236 1.390 . S
C1237 H1254 0.929 . S
C1238 C1233 1.390 . S
C1238 C1234 1.392 . S
C1238 H1255 0.930 . S
C1239 O1224 1.255 . S
C1239 O1225 1.257 . S
C1240 Eu1176 2.787 . S
C1240 O1220 1.252 . S
C1240 O1223 1.268 . S
C1240 C1233 1.506 . S
C1241 C1208 1.439 . S
C1241 H1218 0.931 . S
C1241 C1242 1.374 . S
C1242 C1213 1.387 . S
C1242 H1219 0.931 . S
C1242 C1241 1.374 . S
C1243 O1227 1.249 . S
C1243 O1228 1.264 . S
C1244 C1247 1.382 . S
C1244 C1248 1.390 . S
C1244 C1251 1.506 . S
C1245 C1246 1.398 . S
C1245 C1248 1.392 . S
C1246 C1245 1.398 . S
C1246 C1249 1.372 . S
C1246 H1256 0.931 . S
C1247 C1244 1.382 . S
C1247 C1249 1.390 . S
C1247 H1257 0.931 . S
C1248 C1244 1.390 . S
C1248 C1245 1.392 . S
C1248 H1258 0.930 . S
C1249 C1246 1.372 . S
C1249 C1247 1.390 . S
C1249 H1259 0.929 . S
C1250 O1230 1.255 . S
C1250 O1231 1.257 . S
C1251 Eu1187 2.787 . S
C1251 O1226 1.252 . S
C1251 O1229 1.268 . S
C1251 C1244 1.506 . S
H1252 C1235 0.931 . S
H1253 C1236 0.931 . S
H1254 C1237 0.929 . S
H1255 C1238 0.930 . S
H1256 C1246 0.931 . S
H1257 C1247 0.931 . S
H1258 C1248 0.930 . S
H1259 C1249 0.929 . S
Eu1260 N1289 2.600 . S
Eu1260 N1295 2.562 . S
Eu1260 O1304 2.462 1_655 S
Eu1260 O1305 2.373 . S
Eu1260 O1307 2.432 . S
Eu1260 O1308 2.291 1_655 S
Eu1260 O1312 2.335 1_654 S
Eu1260 O1315 2.372 1_554 S
Eu1260 C1324 2.787 1_655 S
C1261 N1262 1.365 . S
C1261 C1264 1.405 . S
C1261 C1268 1.448 . S
N1262 C1261 1.365 . S
N1262 C1265 1.319 . S
N1262 Eu1271 2.600 . S
C1263 C1265 1.397 . S
C1263 C1266 1.367 . S
C1263 H1283 0.931 . S
C1264 C1261 1.405 . S
C1264 C1266 1.403 . S
C1264 C1270 1.439 . S
C1265 N1262 1.319 . S
C1265 C1263 1.397 . S
C1265 H1276 0.930 . S
C1266 C1263 1.367 . S
C1266 C1264 1.403 . S
C1266 H1287 0.929 . S
C1267 C1268 1.430 . S
C1267 C1269 1.387 . S
C1267 C1273 1.404 . S
C1268 C1261 1.448 . S
C1268 C1267 1.430 . S
C1268 N1272 1.351 . S
C1269 C1267 1.387 . S
C1269 C1270 1.374 . S
C1269 H1284 0.931 . S
C1270 C1264 1.439 . S
C1270 C1269 1.374 . S
C1270 H1285 0.931 . S
Eu1271 N1262 2.600 . S
Eu1271 N1272 2.562 . S
Eu1271 O1306 2.335 1_456 S
Eu1271 O1309 2.372 1_556 S
Eu1271 O1310 2.462 1_455 S
Eu1271 O1311 2.373 . S
Eu1271 O1313 2.432 . S
Eu1271 O1314 2.291 1_455 S
Eu1271 C1335 2.758 1_455 S
N1272 C1268 1.351 . S
N1272 Eu1271 2.562 . S
N1272 C1274 1.325 . S
C1273 C1267 1.404 . S
C1273 C1275 1.366 . S
C1273 H1281 0.930 . S
C1274 N1272 1.325 . S
C1274 C1275 1.416 . S
C1274 H1280 0.929 1_455 S
C1275 C1273 1.366 . S
C1275 C1274 1.416 . S
C1275 H1277 0.930 . S
H1276 C1265 0.930 . S
H1277 C1275 0.930 . S
H1278 C1293 0.930 . S
H1279 C1300 0.930 . S
H1280 C1274 0.929 1_655 S
H1281 C1273 0.930 . S
H1282 C1296 0.929 1_455 S
H1283 C1263 0.931 . S
H1284 C1269 0.931 . S
H1285 C1270 0.931 . S
H1286 C1291 0.931 . S
H1287 C1266 0.929 . S
H1288 C1299 0.930 . S
N1289 Eu1260 2.600 . S
N1289 C1290 1.365 . S
N1289 C1293 1.319 . S
C1290 N1289 1.365 . S
C1290 C1292 1.405 . S
C1290 C1298 1.448 . S
C1291 H1286 0.931 . S
C1291 C1293 1.397 . S
C1291 C1294 1.367 . S
C1292 C1290 1.405 . S
C1292 C1294 1.403 . S
C1292 C1325 1.439 . S
C1293 H1278 0.930 . S
C1293 N1289 1.319 . S
C1293 C1291 1.397 . S
C1294 C1291 1.367 . S
C1294 C1292 1.403 . S
C1294 H1301 0.929 . S
N1295 Eu1260 2.562 . S
N1295 C1296 1.325 . S
N1295 C1298 1.351 . S
C1296 H1282 0.929 1_655 S
C1296 N1295 1.325 . S
C1296 C1300 1.416 . S
C1297 C1298 1.430 . S
C1297 C1299 1.404 . S
C1297 C1326 1.387 . S
C1298 C1290 1.448 . S
C1298 N1295 1.351 . S
C1298 C1297 1.430 . S
C1299 H1288 0.930 . S
C1299 C1297 1.404 . S
C1299 C1300 1.366 . S
C1300 H1279 0.930 . S
C1300 C1296 1.416 . S
C1300 C1299 1.366 . S
H1301 C1294 0.929 . S
H1302 C1325 0.931 . S
H1303 C1326 0.931 . S
O1304 Eu1260 2.462 1_455 S
O1304 C1324 1.252 . S
O1305 Eu1260 2.373 . S
O1305 C1316 1.249 . S
O1306 Eu1271 2.335 1_654 S
O1306 C1316 1.264 . S
O1307 Eu1260 2.432 . S
O1307 C1324 1.268 1_655 S
O1308 Eu1260 2.291 1_455 S
O1308 C1323 1.255 . S
O1309 Eu1271 2.372 1_554 S
O1309 C1323 1.257 . S
O1310 Eu1271 2.462 1_655 S
O1310 C1335 1.253 . S
O1311 Eu1271 2.373 . S
O1311 C1327 1.249 . S
O1312 Eu1260 2.335 1_456 S
O1312 C1327 1.264 . S
O1313 Eu1271 2.432 . S
O1313 C1335 1.242 1_455 S
O1314 Eu1271 2.291 1_655 S
O1314 C1334 1.255 . S
O1315 Eu1260 2.372 1_556 S
O1315 C1334 1.257 . S
C1316 O1305 1.249 . S
C1316 O1306 1.264 . S
C1317 C1320 1.382 1_455 S
C1317 C1322 1.390 . S
C1317 C1324 1.506 . S
C1318 C1319 1.398 . S
C1318 C1322 1.392 . S
C1319 C1318 1.398 . S
C1319 C1321 1.372 . S
C1319 H1336 0.931 . S
C1320 C1317 1.382 1_655 S
C1320 C1321 1.390 1_655 S
C1320 H1337 0.931 . S
C1321 C1319 1.372 . S
C1321 C1320 1.390 1_455 S
C1321 H1338 0.929 1_455 S
C1322 C1317 1.390 . S
C1322 C1318 1.392 . S
C1322 H1339 0.930 . S
C1323 O1308 1.255 . S
C1323 O1309 1.257 . S
C1324 Eu1260 2.787 1_455 S
C1324 O1304 1.252 . S
C1324 O1307 1.268 1_455 S
C1324 C1317 1.506 . S
C1325 C1292 1.439 . S
C1325 H1302 0.931 . S
C1325 C1326 1.374 . S
C1326 C1297 1.387 . S
C1326 H1303 0.931 . S
C1326 C1325 1.374 . S
C1327 O1311 1.249 . S
C1327 O1312 1.264 . S
C1328 C1331 1.382 1_655 S
C1328 C1332 1.390 . S
C1328 C1335 1.534 . S
C1329 C1330 1.398 . S
C1329 C1332 1.392 . S
C1330 C1329 1.398 . S
C1330 C1333 1.372 . S
C1330 H1340 0.931 . S
C1331 C1328 1.382 1_455 S
C1331 C1333 1.390 1_455 S
C1331 H1341 0.931 . S
C1332 C1328 1.390 . S
C1332 C1329 1.392 . S
C1332 H1342 0.930 . S
C1333 C1330 1.372 . S
C1333 C1331 1.390 1_655 S
C1333 H1343 0.929 1_655 S
C1334 O1314 1.255 . S
C1334 O1315 1.257 . S
C1335 Eu1271 2.758 1_655 S
C1335 O1310 1.253 . S
C1335 O1313 1.242 1_655 S
C1335 C1328 1.534 . S
H1336 C1319 0.931 . S
H1337 C1320 0.931 . S
H1338 C1321 0.929 1_655 S
H1339 C1322 0.930 . S
H1340 C1330 0.931 . S
H1341 C1331 0.931 . S
H1342 C1332 0.930 . S
H1343 C1333 0.929 1_455 S
H1344 C1350 0.930 . S
H1345 C1354 0.930 . S
H1346 C1359 0.929 . S
H1347 C1357 0.929 . S
H1348 C1352 0.929 . S
H1349 C1358 0.929 . S
C1350 H1344 0.930 . S
C1350 C1351 1.367 . S
C1350 C1358 1.378 . S
C1351 C1350 1.367 . S
C1351 C1359 1.433 . S
C1352 H1348 0.929 . S
C1352 C1354 1.378 . S
C1352 C1356 1.350 . S
C1353 C1356 1.463 . S
C1353 C1358 1.350 . S
C1353 N1361 1.427 . S
C1354 H1345 0.930 . S
C1354 C1352 1.378 . S
C1354 C1355 1.367 . S
C1355 C1354 1.367 . S
C1355 C1357 1.433 . S
C1356 C1352 1.350 . S
C1356 C1353 1.463 . S
C1356 N1360 1.427 . S
C1357 H1347 0.929 . S
C1357 C1355 1.433 . S
C1357 N1360 1.384 . S
C1358 H1349 0.929 . S
C1358 C1350 1.378 . S
C1358 C1353 1.350 . S
C1359 H1346 0.929 . S
C1359 C1351 1.433 . S
C1359 N1361 1.384 . S
N1360 C1356 1.427 . S
N1360 C1357 1.384 . S
N1361 C1353 1.427 . S
N1361 C1359 1.384 . S
H1362 C1368 0.930 . S
H1363 C1372 0.930 . S
H1364 C1377 0.929 . S
H1365 C1375 0.929 . S
H1366 C1370 0.929 . S
H1367 C1376 0.929 . S
C1368 H1362 0.930 . S
C1368 C1369 1.367 . S
C1368 C1376 1.378 . S
C1369 C1368 1.367 . S
C1369 C1377 1.433 . S
C1370 H1366 0.929 . S
C1370 C1372 1.378 . S
C1370 C1374 1.350 . S
C1371 C1374 1.463 . S
C1371 C1376 1.350 . S
C1371 N1379 1.427 . S
C1372 H1363 0.930 . S
C1372 C1370 1.378 . S
C1372 C1373 1.367 . S
C1373 C1372 1.367 . S
C1373 C1375 1.433 . S
C1374 C1370 1.350 . S
C1374 C1371 1.463 . S
C1374 N1378 1.427 . S
C1375 H1365 0.929 . S
C1375 C1373 1.433 . S
C1375 N1378 1.384 . S
C1376 H1367 0.929 . S
C1376 C1368 1.378 . S
C1376 C1371 1.350 . S
C1377 H1364 0.929 . S
C1377 C1369 1.433 . S
C1377 N1379 1.384 . S
N1378 C1374 1.427 . S
N1378 C1375 1.384 . S
N1379 C1371 1.427 . S
N1379 C1377 1.384 . S
H1380 C1386 0.930 . S
H1381 C1390 0.930 . S
H1382 C1395 0.929 . S
H1383 C1393 0.929 . S
H1384 C1388 0.929 . S
H1385 C1394 0.929 . S
C1386 H1380 0.930 . S
C1386 C1387 1.367 . S
C1386 C1394 1.378 . S
C1387 C1386 1.367 . S
C1387 C1395 1.433 . S
C1388 H1384 0.929 . S
C1388 C1390 1.378 . S
C1388 C1392 1.350 . S
C1389 C1392 1.463 . S
C1389 C1394 1.350 . S
C1389 N1397 1.427 . S
C1390 H1381 0.930 . S
C1390 C1388 1.378 . S
C1390 C1391 1.367 . S
C1391 C1390 1.367 . S
C1391 C1393 1.433 . S
C1392 C1388 1.350 . S
C1392 C1389 1.463 . S
C1392 N1396 1.427 . S
C1393 H1383 0.929 . S
C1393 C1391 1.433 . S
C1393 N1396 1.384 . S
C1394 H1385 0.929 . S
C1394 C1386 1.378 . S
C1394 C1389 1.350 . S
C1395 H1382 0.929 . S
C1395 C1387 1.433 . S
C1395 N1397 1.384 . S
N1396 C1392 1.427 . S
N1396 C1393 1.384 . S
N1397 C1389 1.427 . S
N1397 C1395 1.384 . S
H1398 C1404 0.930 . S
H1399 C1408 0.930 . S
H1400 C1413 0.929 . S
H1401 C1411 0.929 1_565 S
H1402 C1406 0.929 . S
H1403 C1412 0.929 . S
C1404 H1398 0.930 . S
C1404 C1405 1.367 . S
C1404 C1412 1.378 . S
C1405 C1404 1.367 . S
C1405 C1413 1.433 . S
C1406 H1402 0.929 . S
C1406 C1408 1.378 . S
C1406 C1410 1.350 . S
C1407 C1410 1.463 . S
C1407 C1412 1.350 . S
C1407 N1415 1.427 . S
C1408 H1399 0.930 . S
C1408 C1406 1.378 . S
C1408 C1409 1.367 . S
C1409 C1408 1.367 . S
C1409 C1411 1.433 . S
C1410 C1406 1.350 . S
C1410 C1407 1.463 . S
C1410 N1414 1.427 . S
C1411 H1401 0.929 1_545 S
C1411 C1409 1.433 . S
C1411 N1414 1.384 . S
C1412 H1403 0.929 . S
C1412 C1404 1.378 . S
C1412 C1407 1.350 . S
C1413 H1400 0.929 . S
C1413 C1405 1.433 . S
C1413 N1415 1.384 . S
N1414 C1410 1.427 . S
N1414 C1411 1.384 . S
N1415 C1407 1.427 . S
N1415 C1413 1.384 . S
H1416 C1422 0.930 . S
H1417 C1426 0.930 . S
H1418 C1431 0.929 . S
H1419 C1429 0.929 . S
H1420 C1424 0.929 . S
H1421 C1430 0.929 . S
C1422 H1416 0.930 . S
C1422 C1423 1.367 . S
C1422 C1430 1.378 . S
C1423 C1422 1.367 . S
C1423 C1431 1.433 . S
C1424 H1420 0.929 . S
C1424 C1426 1.378 . S
C1424 C1428 1.350 . S
C1425 C1428 1.463 . S
C1425 C1430 1.350 . S
C1425 N1433 1.427 . S
C1426 H1417 0.930 . S
C1426 C1424 1.378 . S
C1426 C1427 1.367 . S
C1427 C1426 1.367 . S
C1427 C1429 1.433 . S
C1428 C1424 1.350 . S
C1428 C1425 1.463 . S
C1428 N1432 1.427 . S
C1429 H1419 0.929 . S
C1429 C1427 1.433 . S
C1429 N1432 1.384 . S
C1430 H1421 0.929 . S
C1430 C1422 1.378 . S
C1430 C1425 1.350 . S
C1431 H1418 0.929 . S
C1431 C1423 1.433 . S
C1431 N1433 1.384 . S
N1432 C1428 1.427 . S
N1432 C1429 1.384 . S
N1433 C1425 1.427 . S
N1433 C1431 1.384 . S
H1434 C1440 0.930 . S
H1435 C1444 0.930 . S
H1436 C1449 0.929 . S
H1437 C1447 0.929 . S
H1438 C1442 0.929 . S
H1439 C1448 0.929 . S
C1440 H1434 0.930 . S
C1440 C1441 1.367 . S
C1440 C1448 1.378 . S
C1441 C1440 1.367 . S
C1441 C1449 1.433 . S
C1442 H1438 0.929 . S
C1442 C1444 1.378 . S
C1442 C1446 1.350 . S
C1443 C1446 1.463 . S
C1443 C1448 1.350 . S
C1443 N1451 1.427 . S
C1444 H1435 0.930 . S
C1444 C1442 1.378 . S
C1444 C1445 1.367 . S
C1445 C1444 1.367 . S
C1445 C1447 1.433 . S
C1446 C1442 1.350 . S
C1446 C1443 1.463 . S
C1446 N1450 1.427 . S
C1447 H1437 0.929 . S
C1447 C1445 1.433 . S
C1447 N1450 1.384 . S
C1448 H1439 0.929 . S
C1448 C1440 1.378 . S
C1448 C1443 1.350 . S
C1449 H1436 0.929 . S
C1449 C1441 1.433 . S
C1449 N1451 1.384 . S
N1450 C1446 1.427 . S
N1450 C1447 1.384 . S
N1451 C1443 1.427 . S
N1451 C1449 1.384 . S
H1452 C1458 0.930 . S
H1453 C1462 0.930 . S
H1454 C1467 0.929 . S
H1455 C1465 0.929 . S
H1456 C1460 0.929 . S
H1457 C1466 0.929 . S
C1458 H1452 0.930 . S
C1458 C1459 1.367 . S
C1458 C1466 1.378 . S
C1459 C1458 1.367 . S
C1459 C1467 1.433 . S
C1460 H1456 0.929 . S
C1460 C1462 1.378 . S
C1460 C1464 1.350 . S
C1461 C1464 1.463 . S
C1461 C1466 1.350 . S
C1461 N1469 1.427 . S
C1462 H1453 0.930 . S
C1462 C1460 1.378 . S
C1462 C1463 1.367 . S
C1463 C1462 1.367 . S
C1463 C1465 1.433 . S
C1464 C1460 1.350 . S
C1464 C1461 1.463 . S
C1464 N1468 1.427 . S
C1465 H1455 0.929 . S
C1465 C1463 1.433 . S
C1465 N1468 1.384 . S
C1466 H1457 0.929 . S
C1466 C1458 1.378 . S
C1466 C1461 1.350 . S
C1467 H1454 0.929 . S
C1467 C1459 1.433 . S
C1467 N1469 1.384 . S
N1468 C1464 1.427 . S
N1468 C1465 1.384 . S
N1469 C1461 1.427 . S
N1469 C1467 1.384 . S
H1470 C1476 0.930 . S
H1471 C1480 0.930 . S
H1472 C1485 0.929 . S
H1473 C1483 0.929 . S
H1474 C1478 0.929 . S
H1475 C1484 0.929 . S
C1476 H1470 0.930 . S
C1476 C1477 1.367 . S
C1476 C1484 1.378 . S
C1477 C1476 1.367 . S
C1477 C1485 1.433 . S
C1478 H1474 0.929 . S
C1478 C1480 1.378 . S
C1478 C1482 1.350 . S
C1479 C1482 1.463 . S
C1479 C1484 1.350 . S
C1479 N1487 1.427 . S
C1480 H1471 0.930 . S
C1480 C1478 1.378 . S
C1480 C1481 1.367 . S
C1481 C1480 1.367 . S
C1481 C1483 1.433 . S
C1482 C1478 1.350 . S
C1482 C1479 1.463 . S
C1482 N1486 1.427 . S
C1483 H1473 0.929 . S
C1483 C1481 1.433 . S
C1483 N1486 1.384 . S
C1484 H1475 0.929 . S
C1484 C1476 1.378 . S
C1484 C1479 1.350 . S
C1485 H1472 0.929 . S
C1485 C1477 1.433 . S
C1485 N1487 1.384 . S
N1486 C1482 1.427 . S
N1486 C1483 1.384 . S
N1487 C1479 1.427 . S
N1487 C1485 1.384 . S
H1488 C1494 0.930 . S
H1489 C1498 0.930 . S
H1490 C1503 0.929 . S
H1491 C1501 0.929 . S
H1492 C1496 0.929 . S
H1493 C1502 0.929 . S
C1494 H1488 0.930 . S
C1494 C1495 1.367 . S
C1494 C1502 1.378 . S
C1495 C1494 1.367 . S
C1495 C1503 1.433 . S
C1496 H1492 0.929 . S
C1496 C1498 1.378 . S
C1496 C1500 1.350 . S
C1497 C1500 1.463 . S
C1497 C1502 1.350 . S
C1497 N1505 1.427 . S
C1498 H1489 0.930 . S
C1498 C1496 1.378 . S
C1498 C1499 1.367 . S
C1499 C1498 1.367 . S
C1499 C1501 1.433 . S
C1500 C1496 1.350 . S
C1500 C1497 1.463 . S
C1500 N1504 1.427 . S
C1501 H1491 0.929 . S
C1501 C1499 1.433 . S
C1501 N1504 1.384 . S
C1502 H1493 0.929 . S
C1502 C1494 1.378 . S
C1502 C1497 1.350 . S
C1503 H1490 0.929 . S
C1503 C1495 1.433 . S
C1503 N1505 1.384 . S
N1504 C1500 1.427 . S
N1504 C1501 1.384 . S
N1505 C1497 1.427 . S
N1505 C1503 1.384 . S
H1506 C1512 0.930 . S
H1507 C1516 0.930 . S
H1508 C1521 0.929 . S
H1509 C1519 0.929 . S
H1510 C1514 0.929 . S
H1511 C1520 0.929 . S
C1512 H1506 0.930 . S
C1512 C1513 1.367 . S
C1512 C1520 1.378 . S
C1513 C1512 1.367 . S
C1513 C1521 1.433 . S
C1514 H1510 0.929 . S
C1514 C1516 1.378 . S
C1514 C1518 1.350 . S
C1515 C1518 1.463 . S
C1515 C1520 1.350 . S
C1515 N1523 1.427 . S
C1516 H1507 0.930 . S
C1516 C1514 1.378 . S
C1516 C1517 1.367 . S
C1517 C1516 1.367 . S
C1517 C1519 1.433 . S
C1518 C1514 1.350 . S
C1518 C1515 1.463 . S
C1518 N1522 1.427 . S
C1519 H1509 0.929 . S
C1519 C1517 1.433 . S
C1519 N1522 1.384 . S
C1520 H1511 0.929 . S
C1520 C1512 1.378 . S
C1520 C1515 1.350 . S
C1521 H1508 0.929 . S
C1521 C1513 1.433 . S
C1521 N1523 1.384 . S
N1522 C1518 1.427 . S
N1522 C1519 1.384 . S
N1523 C1515 1.427 . S
N1523 C1521 1.384 . S
H1524 C1530 0.930 . S
H1525 C1534 0.930 . S
H1526 C1539 0.929 . S
H1527 C1537 0.929 . S
H1528 C1532 0.929 . S
H1529 C1538 0.929 . S
C1530 H1524 0.930 . S
C1530 C1531 1.367 . S
C1530 C1538 1.378 . S
C1531 C1530 1.367 . S
C1531 C1539 1.433 . S
C1532 H1528 0.929 . S
C1532 C1534 1.378 . S
C1532 C1536 1.350 . S
C1533 C1536 1.463 . S
C1533 C1538 1.350 . S
C1533 N1541 1.427 . S
C1534 H1525 0.930 . S
C1534 C1532 1.378 . S
C1534 C1535 1.367 . S
C1535 C1534 1.367 . S
C1535 C1537 1.433 . S
C1536 C1532 1.350 . S
C1536 C1533 1.463 . S
C1536 N1540 1.427 . S
C1537 H1527 0.929 . S
C1537 C1535 1.433 . S
C1537 N1540 1.384 . S
C1538 H1529 0.929 . S
C1538 C1530 1.378 . S
C1538 C1533 1.350 . S
C1539 H1526 0.929 . S
C1539 C1531 1.433 . S
C1539 N1541 1.384 . S
N1540 C1536 1.427 . S
N1540 C1537 1.384 . S
N1541 C1533 1.427 . S
N1541 C1539 1.384 . S
H1542 C1548 0.930 . S
H1543 C1552 0.930 . S
H1544 C1557 0.929 . S
H1545 C1555 0.929 . S
H1546 C1550 0.929 . S
H1547 C1556 0.929 . S
C1548 H1542 0.930 . S
C1548 C1549 1.367 . S
C1548 C1556 1.378 . S
C1549 C1548 1.367 . S
C1549 C1557 1.433 . S
C1550 H1546 0.929 . S
C1550 C1552 1.378 . S
C1550 C1554 1.350 . S
C1551 C1554 1.463 . S
C1551 C1556 1.350 . S
C1551 N1559 1.427 . S
C1552 H1543 0.930 . S
C1552 C1550 1.378 . S
C1552 C1553 1.367 . S
C1553 C1552 1.367 . S
C1553 C1555 1.433 . S
C1554 C1550 1.350 . S
C1554 C1551 1.463 . S
C1554 N1558 1.427 . S
C1555 H1545 0.929 . S
C1555 C1553 1.433 . S
C1555 N1558 1.384 . S
C1556 H1547 0.929 . S
C1556 C1548 1.378 . S
C1556 C1551 1.350 . S
C1557 H1544 0.929 . S
C1557 C1549 1.433 . S
C1557 N1559 1.384 . S
N1558 C1554 1.427 . S
N1558 C1555 1.384 . S
N1559 C1551 1.427 . S
N1559 C1557 1.384 . S
H1560 C1566 0.930 . S
H1561 C1570 0.930 . S
H1562 C1575 0.929 . S
H1563 C1573 0.929 . S
H1564 C1568 0.929 . S
H1565 C1574 0.929 . S
C1566 H1560 0.930 . S
C1566 C1567 1.367 . S
C1566 C1574 1.378 . S
C1567 C1566 1.367 . S
C1567 C1575 1.433 . S
C1568 H1564 0.929 . S
C1568 C1570 1.378 . S
C1568 C1572 1.350 . S
C1569 C1572 1.463 . S
C1569 C1574 1.350 . S
C1569 N1577 1.427 . S
C1570 H1561 0.930 . S
C1570 C1568 1.378 . S
C1570 C1571 1.367 . S
C1571 C1570 1.367 . S
C1571 C1573 1.433 . S
C1572 C1568 1.350 . S
C1572 C1569 1.463 . S
C1572 N1576 1.427 . S
C1573 H1563 0.929 . S
C1573 C1571 1.433 . S
C1573 N1576 1.384 . S
C1574 H1565 0.929 . S
C1574 C1566 1.378 . S
C1574 C1569 1.350 . S
C1575 H1562 0.929 . S
C1575 C1567 1.433 . S
C1575 N1577 1.384 . S
N1576 C1572 1.427 . S
N1576 C1573 1.384 . S
N1577 C1569 1.427 . S
N1577 C1575 1.384 . S
H1578 C1584 0.930 . S
H1579 C1588 0.930 . S
H1580 C1593 0.929 . S
H1581 C1591 0.929 . S
H1582 C1586 0.929 . S
H1583 C1592 0.929 . S
C1584 H1578 0.930 . S
C1584 C1585 1.367 . S
C1584 C1592 1.378 . S
C1585 C1584 1.367 . S
C1585 C1593 1.433 . S
C1586 H1582 0.929 . S
C1586 C1588 1.378 . S
C1586 C1590 1.350 . S
C1587 C1590 1.463 . S
C1587 C1592 1.350 . S
C1587 N1595 1.427 . S
C1588 H1579 0.930 . S
C1588 C1586 1.378 . S
C1588 C1589 1.367 . S
C1589 C1588 1.367 . S
C1589 C1591 1.433 . S
C1590 C1586 1.350 . S
C1590 C1587 1.463 . S
C1590 N1594 1.427 . S
C1591 H1581 0.929 . S
C1591 C1589 1.433 . S
C1591 N1594 1.384 . S
C1592 H1583 0.929 . S
C1592 C1584 1.378 . S
C1592 C1587 1.350 . S
C1593 H1580 0.929 . S
C1593 C1585 1.433 . S
C1593 N1595 1.384 . S
N1594 C1590 1.427 . S
N1594 C1591 1.384 . S
N1595 C1587 1.427 . S
N1595 C1593 1.384 . S
H1596 C1602 0.930 . S
H1597 C1606 0.930 . S
H1598 C1611 0.929 . S
H1599 C1609 0.929 . S
H1600 C1604 0.929 . S
H1601 C1610 0.929 . S
C1602 H1596 0.930 . S
C1602 C1603 1.367 . S
C1602 C1610 1.378 . S
C1603 C1602 1.367 . S
C1603 C1611 1.433 . S
C1604 H1600 0.929 . S
C1604 C1606 1.378 . S
C1604 C1608 1.350 . S
C1605 C1608 1.463 . S
C1605 C1610 1.350 . S
C1605 N1613 1.427 . S
C1606 H1597 0.930 . S
C1606 C1604 1.378 . S
C1606 C1607 1.367 . S
C1607 C1606 1.367 . S
C1607 C1609 1.433 . S
C1608 C1604 1.350 . S
C1608 C1605 1.463 . S
C1608 N1612 1.427 . S
C1609 H1599 0.929 . S
C1609 C1607 1.433 . S
C1609 N1612 1.384 . S
C1610 H1601 0.929 . S
C1610 C1602 1.378 . S
C1610 C1605 1.350 . S
C1611 H1598 0.929 . S
C1611 C1603 1.433 . S
C1611 N1613 1.384 . S
N1612 C1608 1.427 . S
N1612 C1609 1.384 . S
N1613 C1605 1.427 . S
N1613 C1611 1.384 . S
H1614 C1620 0.930 . S
H1615 C1624 0.930 . S
H1616 C1629 0.929 . S
H1617 C1627 0.929 . S
H1618 C1622 0.929 . S
H1619 C1628 0.929 . S
C1620 H1614 0.930 . S
C1620 C1621 1.367 . S
C1620 C1628 1.378 . S
C1621 C1620 1.367 . S
C1621 C1629 1.433 . S
C1622 H1618 0.929 . S
C1622 C1624 1.378 . S
C1622 C1626 1.350 . S
C1623 C1626 1.463 . S
C1623 C1628 1.350 . S
C1623 N1631 1.427 . S
C1624 H1615 0.930 . S
C1624 C1622 1.378 . S
C1624 C1625 1.367 . S
C1625 C1624 1.367 . S
C1625 C1627 1.433 . S
C1626 C1622 1.350 . S
C1626 C1623 1.463 . S
C1626 N1630 1.427 . S
C1627 H1617 0.929 . S
C1627 C1625 1.433 . S
C1627 N1630 1.384 . S
C1628 H1619 0.929 . S
C1628 C1620 1.378 . S
C1628 C1623 1.350 . S
C1629 H1616 0.929 . S
C1629 C1621 1.433 . S
C1629 N1631 1.384 . S
N1630 C1626 1.427 . S
N1630 C1627 1.384 . S
N1631 C1623 1.427 . S
N1631 C1629 1.384 . S
H1632 C1638 0.930 . S
H1633 C1642 0.930 . S
H1634 C1647 0.929 . S
H1635 C1645 0.929 . S
H1636 C1640 0.929 . S
H1637 C1646 0.929 . S
C1638 H1632 0.930 . S
C1638 C1639 1.367 . S
C1638 C1646 1.378 . S
C1639 C1638 1.367 . S
C1639 C1647 1.433 . S
C1640 H1636 0.929 . S
C1640 C1642 1.378 . S
C1640 C1644 1.350 . S
C1641 C1644 1.463 . S
C1641 C1646 1.350 . S
C1641 N1649 1.427 . S
C1642 H1633 0.930 . S
C1642 C1640 1.378 . S
C1642 C1643 1.367 . S
C1643 C1642 1.367 . S
C1643 C1645 1.433 . S
C1644 C1640 1.350 . S
C1644 C1641 1.463 . S
C1644 N1648 1.427 . S
C1645 H1635 0.929 . S
C1645 C1643 1.433 . S
C1645 N1648 1.384 . S
C1646 H1637 0.929 . S
C1646 C1638 1.378 . S
C1646 C1641 1.350 . S
C1647 H1634 0.929 . S
C1647 C1639 1.433 . S
C1647 N1649 1.384 . S
N1648 C1644 1.427 . S
N1648 C1645 1.384 . S
N1649 C1641 1.427 . S
N1649 C1647 1.384 . S
H1650 C1656 0.930 . S
H1651 C1660 0.930 . S
H1652 C1665 0.929 . S
H1653 C1663 0.929 . S
H1654 C1658 0.929 . S
H1655 C1664 0.929 . S
C1656 H1650 0.930 . S
C1656 C1657 1.367 . S
C1656 C1664 1.378 . S
C1657 C1656 1.367 . S
C1657 C1665 1.433 . S
C1658 H1654 0.929 . S
C1658 C1660 1.378 . S
C1658 C1662 1.350 . S
C1659 C1662 1.463 . S
C1659 C1664 1.350 . S
C1659 N1667 1.427 . S
C1660 H1651 0.930 . S
C1660 C1658 1.378 . S
C1660 C1661 1.367 . S
C1661 C1660 1.367 . S
C1661 C1663 1.433 . S
C1662 C1658 1.350 . S
C1662 C1659 1.463 . S
C1662 N1666 1.427 . S
C1663 H1653 0.929 . S
C1663 C1661 1.433 . S
C1663 N1666 1.384 . S
C1664 H1655 0.929 . S
C1664 C1656 1.378 . S
C1664 C1659 1.350 . S
C1665 H1652 0.929 . S
C1665 C1657 1.433 . S
C1665 N1667 1.384 . S
N1666 C1662 1.427 . S
N1666 C1663 1.384 . S
N1667 C1659 1.427 . S
N1667 C1665 1.384 . S
H1668 C1674 0.930 . S
H1669 C1678 0.930 . S
H1670 C1683 0.929 . S
H1671 C1681 0.929 . S
H1672 C1676 0.929 . S
H1673 C1682 0.929 . S
C1674 H1668 0.930 . S
C1674 C1675 1.367 . S
C1674 C1682 1.378 . S
C1675 C1674 1.367 . S
C1675 C1683 1.433 . S
C1676 H1672 0.929 . S
C1676 C1678 1.378 . S
C1676 C1680 1.350 . S
C1677 C1680 1.463 . S
C1677 C1682 1.350 . S
C1677 N1685 1.427 . S
C1678 H1669 0.930 . S
C1678 C1676 1.378 . S
C1678 C1679 1.367 . S
C1679 C1678 1.367 . S
C1679 C1681 1.433 . S
C1680 C1676 1.350 . S
C1680 C1677 1.463 . S
C1680 N1684 1.427 . S
C1681 H1671 0.929 . S
C1681 C1679 1.433 . S
C1681 N1684 1.384 . S
C1682 H1673 0.929 . S
C1682 C1674 1.378 . S
C1682 C1677 1.350 . S
C1683 H1670 0.929 . S
C1683 C1675 1.433 . S
C1683 N1685 1.384 . S
N1684 C1680 1.427 . S
N1684 C1681 1.384 . S
N1685 C1677 1.427 . S
N1685 C1683 1.384 . S
H1686 C1692 0.930 . S
H1687 C1696 0.930 . S
H1688 C1701 0.929 . S
H1689 C1699 0.929 . S
H1690 C1694 0.929 . S
H1691 C1700 0.929 . S
C1692 H1686 0.930 . S
C1692 C1693 1.367 . S
C1692 C1700 1.378 . S
C1693 C1692 1.367 . S
C1693 C1701 1.433 . S
C1694 H1690 0.929 . S
C1694 C1696 1.378 . S
C1694 C1698 1.350 . S
C1695 C1698 1.463 . S
C1695 C1700 1.350 . S
C1695 N1703 1.427 . S
C1696 H1687 0.930 . S
C1696 C1694 1.378 . S
C1696 C1697 1.367 . S
C1697 C1696 1.367 . S
C1697 C1699 1.433 . S
C1698 C1694 1.350 . S
C1698 C1695 1.463 . S
C1698 N1702 1.427 . S
C1699 H1689 0.929 . S
C1699 C1697 1.433 . S
C1699 N1702 1.384 . S
C1700 H1691 0.929 . S
C1700 C1692 1.378 . S
C1700 C1695 1.350 . S
C1701 H1688 0.929 . S
C1701 C1693 1.433 . S
C1701 N1703 1.384 . S
N1702 C1698 1.427 . S
N1702 C1699 1.384 . S
N1703 C1695 1.427 . S
N1703 C1701 1.384 . S
H1704 C1710 0.930 . S
H1705 C1714 0.930 . S
H1706 C1719 0.929 . S
H1707 C1717 0.929 . S
H1708 C1712 0.929 . S
H1709 C1718 0.929 . S
C1710 H1704 0.930 . S
C1710 C1711 1.367 . S
C1710 C1718 1.378 . S
C1711 C1710 1.367 . S
C1711 C1719 1.433 . S
C1712 H1708 0.929 . S
C1712 C1714 1.378 . S
C1712 C1716 1.350 . S
C1713 C1716 1.463 . S
C1713 C1718 1.350 . S
C1713 N1721 1.427 . S
C1714 H1705 0.930 . S
C1714 C1712 1.378 . S
C1714 C1715 1.367 . S
C1715 C1714 1.367 . S
C1715 C1717 1.433 . S
C1716 C1712 1.350 . S
C1716 C1713 1.463 . S
C1716 N1720 1.427 . S
C1717 H1707 0.929 . S
C1717 C1715 1.433 . S
C1717 N1720 1.384 . S
C1718 H1709 0.929 . S
C1718 C1710 1.378 . S
C1718 C1713 1.350 . S
C1719 H1706 0.929 . S
C1719 C1711 1.433 . S
C1719 N1721 1.384 . S
N1720 C1716 1.427 . S
N1720 C1717 1.384 . S
N1721 C1713 1.427 . S
N1721 C1719 1.384 . S
H1722 C1728 0.930 . S
H1723 C1732 0.930 . S
H1724 C1737 0.929 . S
H1725 C1735 0.929 . S
H1726 C1730 0.929 . S
H1727 C1736 0.929 . S
C1728 H1722 0.930 . S
C1728 C1729 1.367 . S
C1728 C1736 1.378 . S
C1729 C1728 1.367 . S
C1729 C1737 1.433 . S
C1730 H1726 0.929 . S
C1730 C1732 1.378 . S
C1730 C1734 1.350 . S
C1731 C1734 1.463 . S
C1731 C1736 1.350 . S
C1731 N1739 1.427 . S
C1732 H1723 0.930 . S
C1732 C1730 1.378 . S
C1732 C1733 1.367 . S
C1733 C1732 1.367 . S
C1733 C1735 1.433 . S
C1734 C1730 1.350 . S
C1734 C1731 1.463 . S
C1734 N1738 1.427 . S
C1735 H1725 0.929 . S
C1735 C1733 1.433 . S
C1735 N1738 1.384 . S
C1736 H1727 0.929 . S
C1736 C1728 1.378 . S
C1736 C1731 1.350 . S
C1737 H1724 0.929 . S
C1737 C1729 1.433 . S
C1737 N1739 1.384 . S
N1738 C1734 1.427 . S
N1738 C1735 1.384 . S
N1739 C1731 1.427 . S
N1739 C1737 1.384 . S
H1740 C1746 0.930 . S
H1741 C1750 0.930 . S
H1742 C1755 0.929 . S
H1743 C1753 0.929 . S
H1744 C1748 0.929 . S
H1745 C1754 0.929 . S
C1746 H1740 0.930 . S
C1746 C1747 1.367 . S
C1746 C1754 1.378 . S
C1747 C1746 1.367 . S
C1747 C1755 1.433 . S
C1748 H1744 0.929 . S
C1748 C1750 1.378 . S
C1748 C1752 1.350 . S
C1749 C1752 1.463 . S
C1749 C1754 1.350 . S
C1749 N1757 1.427 . S
C1750 H1741 0.930 . S
C1750 C1748 1.378 . S
C1750 C1751 1.367 . S
C1751 C1750 1.367 . S
C1751 C1753 1.433 . S
C1752 C1748 1.350 . S
C1752 C1749 1.463 . S
C1752 N1756 1.427 . S
C1753 H1743 0.929 . S
C1753 C1751 1.433 . S
C1753 N1756 1.384 . S
C1754 H1745 0.929 . S
C1754 C1746 1.378 . S
C1754 C1749 1.350 . S
C1755 H1742 0.929 . S
C1755 C1747 1.433 . S
C1755 N1757 1.384 . S
N1756 C1752 1.427 . S
N1756 C1753 1.384 . S
N1757 C1749 1.427 . S
N1757 C1755 1.384 . S
H1758 C1764 0.930 . S
H1759 C1768 0.930 . S
H1760 C1773 0.929 . S
H1761 C1771 0.929 . S
H1762 C1766 0.929 . S
H1763 C1772 0.929 . S
C1764 H1758 0.930 . S
C1764 C1765 1.367 . S
C1764 C1772 1.378 . S
C1765 C1764 1.367 . S
C1765 C1773 1.433 . S
C1766 H1762 0.929 . S
C1766 C1768 1.378 . S
C1766 C1770 1.350 . S
C1767 C1770 1.463 . S
C1767 C1772 1.350 . S
C1767 N1775 1.427 . S
C1768 H1759 0.930 . S
C1768 C1766 1.378 . S
C1768 C1769 1.367 . S
C1769 C1768 1.367 . S
C1769 C1771 1.433 . S
C1770 C1766 1.350 . S
C1770 C1767 1.463 . S
C1770 N1774 1.427 . S
C1771 H1761 0.929 . S
C1771 C1769 1.433 . S
C1771 N1774 1.384 . S
C1772 H1763 0.929 . S
C1772 C1764 1.378 . S
C1772 C1767 1.350 . S
C1773 H1760 0.929 . S
C1773 C1765 1.433 . S
C1773 N1775 1.384 . S
N1774 C1770 1.427 . S
N1774 C1771 1.384 . S
N1775 C1767 1.427 . S
N1775 C1773 1.384 . S
H1776 C1782 0.930 . S
H1777 C1786 0.930 . S
H1778 C1791 0.929 . S
H1779 C1789 0.929 . S
H1780 C1784 0.929 . S
H1781 C1790 0.929 . S
C1782 H1776 0.930 . S
C1782 C1783 1.367 . S
C1782 C1790 1.378 . S
C1783 C1782 1.367 . S
C1783 C1791 1.433 . S
C1784 H1780 0.929 . S
C1784 C1786 1.378 . S
C1784 C1788 1.350 . S
C1785 C1788 1.463 . S
C1785 C1790 1.350 . S
C1785 N1793 1.427 . S
C1786 H1777 0.930 . S
C1786 C1784 1.378 . S
C1786 C1787 1.367 . S
C1787 C1786 1.367 . S
C1787 C1789 1.433 . S
C1788 C1784 1.350 . S
C1788 C1785 1.463 . S
C1788 N1792 1.427 . S
C1789 H1779 0.929 . S
C1789 C1787 1.433 . S
C1789 N1792 1.384 . S
C1790 H1781 0.929 . S
C1790 C1782 1.378 . S
C1790 C1785 1.350 . S
C1791 H1778 0.929 . S
C1791 C1783 1.433 . S
C1791 N1793 1.384 . S
N1792 C1788 1.427 . S
N1792 C1789 1.384 . S
N1793 C1785 1.427 . S
N1793 C1791 1.384 . S
H1794 C1800 0.930 . S
H1795 C1804 0.930 . S
H1796 C1809 0.929 . S
H1797 C1807 0.929 . S
H1798 C1802 0.929 . S
H1799 C1808 0.929 . S
C1800 H1794 0.930 . S
C1800 C1801 1.367 . S
C1800 C1808 1.378 . S
C1801 C1800 1.367 . S
C1801 C1809 1.433 . S
C1802 H1798 0.929 . S
C1802 C1804 1.378 . S
C1802 C1806 1.350 . S
C1803 C1806 1.463 . S
C1803 C1808 1.350 . S
C1803 N1811 1.427 . S
C1804 H1795 0.930 . S
C1804 C1802 1.378 . S
C1804 C1805 1.367 . S
C1805 C1804 1.367 . S
C1805 C1807 1.433 . S
C1806 C1802 1.350 . S
C1806 C1803 1.463 . S
C1806 N1810 1.427 . S
C1807 H1797 0.929 . S
C1807 C1805 1.433 . S
C1807 N1810 1.384 . S
C1808 H1799 0.929 . S
C1808 C1800 1.378 . S
C1808 C1803 1.350 . S
C1809 H1796 0.929 . S
C1809 C1801 1.433 . S
C1809 N1811 1.384 . S
N1810 C1806 1.427 . S
N1810 C1807 1.384 . S
N1811 C1803 1.427 . S
N1811 C1809 1.384 . S
H1812 C1818 0.930 . S
H1813 C1822 0.930 . S
H1814 C1827 0.929 . S
H1815 C1825 0.929 . S
H1816 C1820 0.929 . S
H1817 C1826 0.929 . S
C1818 H1812 0.930 . S
C1818 C1819 1.367 . S
C1818 C1826 1.378 . S
C1819 C1818 1.367 . S
C1819 C1827 1.433 . S
C1820 H1816 0.929 . S
C1820 C1822 1.378 . S
C1820 C1824 1.350 . S
C1821 C1824 1.463 . S
C1821 C1826 1.350 . S
C1821 N1829 1.427 . S
C1822 H1813 0.930 . S
C1822 C1820 1.378 . S
C1822 C1823 1.367 . S
C1823 C1822 1.367 . S
C1823 C1825 1.433 . S
C1824 C1820 1.350 . S
C1824 C1821 1.463 . S
C1824 N1828 1.427 . S
C1825 H1815 0.929 . S
C1825 C1823 1.433 . S
C1825 N1828 1.384 . S
C1826 H1817 0.929 . S
C1826 C1818 1.378 . S
C1826 C1821 1.350 . S
C1827 H1814 0.929 . S
C1827 C1819 1.433 . S
C1827 N1829 1.384 . S
N1828 C1824 1.427 . S
N1828 C1825 1.384 . S
N1829 C1821 1.427 . S
N1829 C1827 1.384 . S
H1830 C1836 0.930 . S
H1831 C1840 0.930 . S
H1832 C1845 0.929 . S
H1833 C1843 0.929 . S
H1834 C1838 0.929 . S
H1835 C1844 0.929 . S
C1836 H1830 0.930 . S
C1836 C1837 1.367 . S
C1836 C1844 1.378 . S
C1837 C1836 1.367 . S
C1837 C1845 1.433 . S
C1838 H1834 0.929 . S
C1838 C1840 1.378 . S
C1838 C1842 1.350 . S
C1839 C1842 1.463 . S
C1839 C1844 1.350 . S
C1839 N1847 1.427 . S
C1840 H1831 0.930 . S
C1840 C1838 1.378 . S
C1840 C1841 1.367 . S
C1841 C1840 1.367 . S
C1841 C1843 1.433 . S
C1842 C1838 1.350 . S
C1842 C1839 1.463 . S
C1842 N1846 1.427 . S
C1843 H1833 0.929 . S
C1843 C1841 1.433 . S
C1843 N1846 1.384 . S
C1844 H1835 0.929 . S
C1844 C1836 1.378 . S
C1844 C1839 1.350 . S
C1845 H1832 0.929 . S
C1845 C1837 1.433 . S
C1845 N1847 1.384 . S
N1846 C1842 1.427 . S
N1846 C1843 1.384 . S
N1847 C1839 1.427 . S
N1847 C1845 1.384 . S
H1848 C1854 0.930 . S
H1849 C1858 0.930 . S
H1850 C1863 0.929 . S
H1851 C1861 0.929 . S
H1852 C1856 0.929 . S
H1853 C1862 0.929 . S
C1854 H1848 0.930 . S
C1854 C1855 1.367 . S
C1854 C1862 1.378 . S
C1855 C1854 1.367 . S
C1855 C1863 1.433 . S
C1856 H1852 0.929 . S
C1856 C1858 1.378 . S
C1856 C1860 1.350 . S
C1857 C1860 1.463 . S
C1857 C1862 1.350 . S
C1857 N1865 1.427 . S
C1858 H1849 0.930 . S
C1858 C1856 1.378 . S
C1858 C1859 1.367 . S
C1859 C1858 1.367 . S
C1859 C1861 1.433 . S
C1860 C1856 1.350 . S
C1860 C1857 1.463 . S
C1860 N1864 1.427 . S
C1861 H1851 0.929 . S
C1861 C1859 1.433 . S
C1861 N1864 1.384 . S
C1862 H1853 0.929 . S
C1862 C1854 1.378 . S
C1862 C1857 1.350 . S
C1863 H1850 0.929 . S
C1863 C1855 1.433 . S
C1863 N1865 1.384 . S
N1864 C1860 1.427 . S
N1864 C1861 1.384 . S
N1865 C1857 1.427 . S
N1865 C1863 1.384 . S
H1866 C1872 0.930 . S
H1867 C1876 0.930 . S
H1868 C1881 0.929 . S
H1869 C1879 0.929 . S
H1870 C1874 0.929 . S
H1871 C1880 0.929 . S
C1872 H1866 0.930 . S
C1872 C1873 1.367 . S
C1872 C1880 1.378 . S
C1873 C1872 1.367 . S
C1873 C1881 1.433 . S
C1874 H1870 0.929 . S
C1874 C1876 1.378 . S
C1874 C1878 1.350 . S
C1875 C1878 1.463 . S
C1875 C1880 1.350 . S
C1875 N1883 1.427 . S
C1876 H1867 0.930 . S
C1876 C1874 1.378 . S
C1876 C1877 1.367 . S
C1877 C1876 1.367 . S
C1877 C1879 1.433 . S
C1878 C1874 1.350 . S
C1878 C1875 1.463 . S
C1878 N1882 1.427 . S
C1879 H1869 0.929 . S
C1879 C1877 1.433 . S
C1879 N1882 1.384 . S
C1880 H1871 0.929 . S
C1880 C1872 1.378 . S
C1880 C1875 1.350 . S
C1881 H1868 0.929 . S
C1881 C1873 1.433 . S
C1881 N1883 1.384 . S
N1882 C1878 1.427 . S
N1882 C1879 1.384 . S
N1883 C1875 1.427 . S
N1883 C1881 1.384 . S
H1884 C1890 0.930 . S
H1885 C1894 0.930 . S
H1886 C1899 0.929 . S
H1887 C1897 0.929 . S
H1888 C1892 0.929 . S
H1889 C1898 0.929 . S
C1890 H1884 0.930 . S
C1890 C1891 1.367 . S
C1890 C1898 1.378 . S
C1891 C1890 1.367 . S
C1891 C1899 1.433 . S
C1892 H1888 0.929 . S
C1892 C1894 1.378 . S
C1892 C1896 1.350 . S
C1893 C1896 1.463 . S
C1893 C1898 1.350 . S
C1893 N1901 1.427 . S
C1894 H1885 0.930 . S
C1894 C1892 1.378 . S
C1894 C1895 1.367 . S
C1895 C1894 1.367 . S
C1895 C1897 1.433 . S
C1896 C1892 1.350 . S
C1896 C1893 1.463 . S
C1896 N1900 1.427 . S
C1897 H1887 0.929 . S
C1897 C1895 1.433 . S
C1897 N1900 1.384 . S
C1898 H1889 0.929 . S
C1898 C1890 1.378 . S
C1898 C1893 1.350 . S
C1899 H1886 0.929 . S
C1899 C1891 1.433 . S
C1899 N1901 1.384 . S
N1900 C1896 1.427 . S
N1900 C1897 1.384 . S
N1901 C1893 1.427 . S
N1901 C1899 1.384 . S
H1902 C1908 0.930 . S
H1903 C1912 0.930 . S
H1904 C1917 0.929 . S
H1905 C1915 0.929 . S
H1906 C1910 0.929 . S
H1907 C1916 0.929 . S
C1908 H1902 0.930 . S
C1908 C1909 1.367 . S
C1908 C1916 1.378 . S
C1909 C1908 1.367 . S
C1909 C1917 1.433 . S
C1910 H1906 0.929 . S
C1910 C1912 1.378 . S
C1910 C1914 1.350 . S
C1911 C1914 1.463 . S
C1911 C1916 1.350 . S
C1911 N1919 1.427 . S
C1912 H1903 0.930 . S
C1912 C1910 1.378 . S
C1912 C1913 1.367 . S
C1913 C1912 1.367 . S
C1913 C1915 1.433 . S
C1914 C1910 1.350 . S
C1914 C1911 1.463 . S
C1914 N1918 1.427 . S
C1915 H1905 0.929 . S
C1915 C1913 1.433 . S
C1915 N1918 1.384 . S
C1916 H1907 0.929 . S
C1916 C1908 1.378 . S
C1916 C1911 1.350 . S
C1917 H1904 0.929 . S
C1917 C1909 1.433 . S
C1917 N1919 1.384 . S
N1918 C1914 1.427 . S
N1918 C1915 1.384 . S
N1919 C1911 1.427 . S
N1919 C1917 1.384 . S
H1920 C1926 0.930 . S
H1921 C1930 0.930 . S
H1922 C1935 0.929 . S
H1923 C1933 0.929 . S
H1924 C1928 0.929 . S
H1925 C1934 0.929 . S
C1926 H1920 0.930 . S
C1926 C1927 1.367 . S
C1926 C1934 1.378 . S
C1927 C1926 1.367 . S
C1927 C1935 1.433 . S
C1928 H1924 0.929 . S
C1928 C1930 1.378 . S
C1928 C1932 1.350 . S
C1929 C1932 1.463 . S
C1929 C1934 1.350 . S
C1929 N1937 1.427 . S
C1930 H1921 0.930 . S
C1930 C1928 1.378 . S
C1930 C1931 1.367 . S
C1931 C1930 1.367 . S
C1931 C1933 1.433 . S
C1932 C1928 1.350 . S
C1932 C1929 1.463 . S
C1932 N1936 1.427 . S
C1933 H1923 0.929 . S
C1933 C1931 1.433 . S
C1933 N1936 1.384 . S
C1934 H1925 0.929 . S
C1934 C1926 1.378 . S
C1934 C1929 1.350 . S
C1935 H1922 0.929 . S
C1935 C1927 1.433 . S
C1935 N1937 1.384 . S
N1936 C1932 1.427 . S
N1936 C1933 1.384 . S
N1937 C1929 1.427 . S
N1937 C1935 1.384 . S
H1938 C1944 0.930 . S
H1939 C1948 0.930 . S
H1940 C1953 0.929 . S
H1941 C1951 0.929 . S
H1942 C1946 0.929 . S
H1943 C1952 0.929 . S
C1944 H1938 0.930 . S
C1944 C1945 1.367 . S
C1944 C1952 1.378 . S
C1945 C1944 1.367 . S
C1945 C1953 1.433 . S
C1946 H1942 0.929 . S
C1946 C1948 1.378 . S
C1946 C1950 1.350 . S
C1947 C1950 1.463 . S
C1947 C1952 1.350 . S
C1947 N1955 1.427 . S
C1948 H1939 0.930 . S
C1948 C1946 1.378 . S
C1948 C1949 1.367 . S
C1949 C1948 1.367 . S
C1949 C1951 1.433 . S
C1950 C1946 1.350 . S
C1950 C1947 1.463 . S
C1950 N1954 1.427 . S
C1951 H1941 0.929 . S
C1951 C1949 1.433 . S
C1951 N1954 1.384 . S
C1952 H1943 0.929 . S
C1952 C1944 1.378 . S
C1952 C1947 1.350 . S
C1953 H1940 0.929 . S
C1953 C1945 1.433 . S
C1953 N1955 1.384 . S
N1954 C1950 1.427 . S
N1954 C1951 1.384 . S
N1955 C1947 1.427 . S
N1955 C1953 1.384 . S
H1956 C1962 0.930 . S
H1957 C1966 0.930 . S
H1958 C1971 0.929 . S
H1959 C1969 0.929 . S
H1960 C1964 0.929 . S
H1961 C1970 0.929 . S
C1962 H1956 0.930 . S
C1962 C1963 1.367 . S
C1962 C1970 1.378 . S
C1963 C1962 1.367 . S
C1963 C1971 1.433 . S
C1964 H1960 0.929 . S
C1964 C1966 1.378 . S
C1964 C1968 1.350 . S
C1965 C1968 1.463 . S
C1965 C1970 1.350 . S
C1965 N1973 1.427 . S
C1966 H1957 0.930 . S
C1966 C1964 1.378 . S
C1966 C1967 1.367 . S
C1967 C1966 1.367 . S
C1967 C1969 1.433 . S
C1968 C1964 1.350 . S
C1968 C1965 1.463 . S
C1968 N1972 1.427 . S
C1969 H1959 0.929 . S
C1969 C1967 1.433 . S
C1969 N1972 1.384 . S
C1970 H1961 0.929 . S
C1970 C1962 1.378 . S
C1970 C1965 1.350 . S
C1971 H1958 0.929 . S
C1971 C1963 1.433 . S
C1971 N1973 1.384 . S
N1972 C1968 1.427 . S
N1972 C1969 1.384 . S
N1973 C1965 1.427 . S
N1973 C1971 1.384 . S
H1974 C1980 0.930 . S
H1975 C1984 0.930 . S
H1976 C1989 0.929 . S
H1977 C1987 0.929 . S
H1978 C1982 0.929 . S
H1979 C1988 0.929 . S
C1980 H1974 0.930 . S
C1980 C1981 1.367 . S
C1980 C1988 1.378 . S
C1981 C1980 1.367 . S
C1981 C1989 1.433 . S
C1982 H1978 0.929 . S
C1982 C1984 1.378 . S
C1982 C1986 1.350 . S
C1983 C1986 1.463 . S
C1983 C1988 1.350 . S
C1983 N1991 1.427 . S
C1984 H1975 0.930 . S
C1984 C1982 1.378 . S
C1984 C1985 1.367 . S
C1985 C1984 1.367 . S
C1985 C1987 1.433 . S
C1986 C1982 1.350 . S
C1986 C1983 1.463 . S
C1986 N1990 1.427 . S
C1987 H1977 0.929 . S
C1987 C1985 1.433 . S
C1987 N1990 1.384 . S
C1988 H1979 0.929 . S
C1988 C1980 1.378 . S
C1988 C1983 1.350 . S
C1989 H1976 0.929 . S
C1989 C1981 1.433 . S
C1989 N1991 1.384 . S
N1990 C1986 1.427 . S
N1990 C1987 1.384 . S
N1991 C1983 1.427 . S
N1991 C1989 1.384 . S
H1992 C1998 0.930 . S
H1993 C2002 0.930 . S
H1994 C2007 0.929 . S
H1995 C2005 0.929 . S
H1996 C2000 0.929 . S
H1997 C2006 0.929 . S
C1998 H1992 0.930 . S
C1998 C1999 1.367 . S
C1998 C2006 1.378 . S
C1999 C1998 1.367 . S
C1999 C2007 1.433 . S
C2000 H1996 0.929 . S
C2000 C2002 1.378 . S
C2000 C2004 1.350 . S
C2001 C2004 1.463 . S
C2001 C2006 1.350 . S
C2001 N2009 1.427 . S
C2002 H1993 0.930 . S
C2002 C2000 1.378 . S
C2002 C2003 1.367 . S
C2003 C2002 1.367 . S
C2003 C2005 1.433 . S
C2004 C2000 1.350 . S
C2004 C2001 1.463 . S
C2004 N2008 1.427 . S
C2005 H1995 0.929 . S
C2005 C2003 1.433 . S
C2005 N2008 1.384 . S
C2006 H1997 0.929 . S
C2006 C1998 1.378 . S
C2006 C2001 1.350 . S
C2007 H1994 0.929 . S
C2007 C1999 1.433 . S
C2007 N2009 1.384 . S
N2008 C2004 1.427 . S
N2008 C2005 1.384 . S
N2009 C2001 1.427 . S
N2009 C2007 1.384 . S
H2010 C2016 0.930 . S
H2011 C2020 0.930 . S
H2012 C2025 0.929 . S
H2013 C2023 0.929 . S
H2014 C2018 0.929 . S
H2015 C2024 0.929 . S
C2016 H2010 0.930 . S
C2016 C2017 1.367 . S
C2016 C2024 1.378 . S
C2017 C2016 1.367 . S
C2017 C2025 1.433 . S
C2018 H2014 0.929 . S
C2018 C2020 1.378 . S
C2018 C2022 1.350 . S
C2019 C2022 1.463 . S
C2019 C2024 1.350 . S
C2019 N2027 1.427 . S
C2020 H2011 0.930 . S
C2020 C2018 1.378 . S
C2020 C2021 1.367 . S
C2021 C2020 1.367 . S
C2021 C2023 1.433 . S
C2022 C2018 1.350 . S
C2022 C2019 1.463 . S
C2022 N2026 1.427 . S
C2023 H2013 0.929 . S
C2023 C2021 1.433 . S
C2023 N2026 1.384 . S
C2024 H2015 0.929 . S
C2024 C2016 1.378 . S
C2024 C2019 1.350 . S
C2025 H2012 0.929 . S
C2025 C2017 1.433 . S
C2025 N2027 1.384 . S
N2026 C2022 1.427 . S
N2026 C2023 1.384 . S
N2027 C2019 1.427 . S
N2027 C2025 1.384 . S
H2028 C2034 0.930 . S
H2029 C2038 0.930 . S
H2030 C2043 0.929 . S
H2031 C2041 0.929 . S
H2032 C2036 0.929 . S
H2033 C2042 0.929 . S
C2034 H2028 0.930 . S
C2034 C2035 1.367 . S
C2034 C2042 1.378 . S
C2035 C2034 1.367 . S
C2035 C2043 1.433 . S
C2036 H2032 0.929 . S
C2036 C2038 1.378 . S
C2036 C2040 1.350 . S
C2037 C2040 1.463 . S
C2037 C2042 1.350 . S
C2037 N2045 1.427 . S
C2038 H2029 0.930 . S
C2038 C2036 1.378 . S
C2038 C2039 1.367 . S
C2039 C2038 1.367 . S
C2039 C2041 1.433 . S
C2040 C2036 1.350 . S
C2040 C2037 1.463 . S
C2040 N2044 1.427 . S
C2041 H2031 0.929 . S
C2041 C2039 1.433 . S
C2041 N2044 1.384 . S
C2042 H2033 0.929 . S
C2042 C2034 1.378 . S
C2042 C2037 1.350 . S
C2043 H2030 0.929 . S
C2043 C2035 1.433 . S
C2043 N2045 1.384 . S
N2044 C2040 1.427 . S
N2044 C2041 1.384 . S
N2045 C2037 1.427 . S
N2045 C2043 1.384 . S
H2046 C2052 0.930 . S
H2047 C2056 0.930 . S
H2048 C2061 0.929 . S
H2049 C2059 0.929 . S
H2050 C2054 0.929 . S
H2051 C2060 0.929 . S
C2052 H2046 0.930 . S
C2052 C2053 1.367 . S
C2052 C2060 1.378 . S
C2053 C2052 1.367 . S
C2053 C2061 1.433 . S
C2054 H2050 0.929 . S
C2054 C2056 1.378 . S
C2054 C2058 1.350 . S
C2055 C2058 1.463 . S
C2055 C2060 1.350 . S
C2055 N2063 1.427 . S
C2056 H2047 0.930 . S
C2056 C2054 1.378 . S
C2056 C2057 1.367 . S
C2057 C2056 1.367 . S
C2057 C2059 1.433 . S
C2058 C2054 1.350 . S
C2058 C2055 1.463 . S
C2058 N2062 1.427 . S
C2059 H2049 0.929 . S
C2059 C2057 1.433 . S
C2059 N2062 1.384 . S
C2060 H2051 0.929 . S
C2060 C2052 1.378 . S
C2060 C2055 1.350 . S
C2061 H2048 0.929 . S
C2061 C2053 1.433 . S
C2061 N2063 1.384 . S
N2062 C2058 1.427 . S
N2062 C2059 1.384 . S
N2063 C2055 1.427 . S
N2063 C2061 1.384 . S
H2064 C2070 0.930 . S
H2065 C2074 0.930 . S
H2066 C2079 0.929 . S
H2067 C2077 0.929 . S
H2068 C2072 0.929 . S
H2069 C2078 0.929 . S
C2070 H2064 0.930 . S
C2070 C2071 1.367 . S
C2070 C2078 1.378 . S
C2071 C2070 1.367 . S
C2071 C2079 1.433 . S
C2072 H2068 0.929 . S
C2072 C2074 1.378 . S
C2072 C2076 1.350 . S
C2073 C2076 1.463 . S
C2073 C2078 1.350 . S
C2073 N2081 1.427 . S
C2074 H2065 0.930 . S
C2074 C2072 1.378 . S
C2074 C2075 1.367 . S
C2075 C2074 1.367 . S
C2075 C2077 1.433 . S
C2076 C2072 1.350 . S
C2076 C2073 1.463 . S
C2076 N2080 1.427 . S
C2077 H2067 0.929 . S
C2077 C2075 1.433 . S
C2077 N2080 1.384 . S
C2078 H2069 0.929 . S
C2078 C2070 1.378 . S
C2078 C2073 1.350 . S
C2079 H2066 0.929 . S
C2079 C2071 1.433 . S
C2079 N2081 1.384 . S
N2080 C2076 1.427 . S
N2080 C2077 1.384 . S
N2081 C2073 1.427 . S
N2081 C2079 1.384 . S
H2082 C2088 0.930 . S
H2083 C2092 0.930 . S
H2084 C2097 0.929 . S
H2085 C2095 0.929 . S
H2086 C2090 0.929 . S
H2087 C2096 0.929 . S
C2088 H2082 0.930 . S
C2088 C2089 1.367 . S
C2088 C2096 1.378 . S
C2089 C2088 1.367 . S
C2089 C2097 1.433 . S
C2090 H2086 0.929 . S
C2090 C2092 1.378 . S
C2090 C2094 1.350 . S
C2091 C2094 1.463 . S
C2091 C2096 1.350 . S
C2091 N2099 1.427 . S
C2092 H2083 0.930 . S
C2092 C2090 1.378 . S
C2092 C2093 1.367 . S
C2093 C2092 1.367 . S
C2093 C2095 1.433 . S
C2094 C2090 1.350 . S
C2094 C2091 1.463 . S
C2094 N2098 1.427 . S
C2095 H2085 0.929 . S
C2095 C2093 1.433 . S
C2095 N2098 1.384 . S
C2096 H2087 0.929 . S
C2096 C2088 1.378 . S
C2096 C2091 1.350 . S
C2097 H2084 0.929 . S
C2097 C2089 1.433 . S
C2097 N2099 1.384 . S
N2098 C2094 1.427 . S
N2098 C2095 1.384 . S
N2099 C2091 1.427 . S
N2099 C2097 1.384 . S
H2100 C2106 0.930 . S
H2101 C2110 0.930 . S
H2102 C2115 0.929 . S
H2103 C2113 0.929 . S
H2104 C2108 0.929 . S
H2105 C2114 0.929 . S
C2106 H2100 0.930 . S
C2106 C2107 1.367 . S
C2106 C2114 1.378 . S
C2107 C2106 1.367 . S
C2107 C2115 1.433 . S
C2108 H2104 0.929 . S
C2108 C2110 1.378 . S
C2108 C2112 1.350 . S
C2109 C2112 1.463 . S
C2109 C2114 1.350 . S
C2109 N2117 1.427 . S
C2110 H2101 0.930 . S
C2110 C2108 1.378 . S
C2110 C2111 1.367 . S
C2111 C2110 1.367 . S
C2111 C2113 1.433 . S
C2112 C2108 1.350 . S
C2112 C2109 1.463 . S
C2112 N2116 1.427 . S
C2113 H2103 0.929 . S
C2113 C2111 1.433 . S
C2113 N2116 1.384 . S
C2114 H2105 0.929 . S
C2114 C2106 1.378 . S
C2114 C2109 1.350 . S
C2115 H2102 0.929 . S
C2115 C2107 1.433 . S
C2115 N2117 1.384 . S
N2116 C2112 1.427 . S
N2116 C2113 1.384 . S
N2117 C2109 1.427 . S
N2117 C2115 1.384 . S
H2118 C2124 0.930 . S
H2119 C2128 0.930 . S
H2120 C2133 0.929 . S
H2121 C2131 0.929 . S
H2122 C2126 0.929 . S
H2123 C2132 0.929 . S
C2124 H2118 0.930 . S
C2124 C2125 1.367 . S
C2124 C2132 1.378 . S
C2125 C2124 1.367 . S
C2125 C2133 1.433 . S
C2126 H2122 0.929 . S
C2126 C2128 1.378 . S
C2126 C2130 1.350 . S
C2127 C2130 1.463 . S
C2127 C2132 1.350 . S
C2127 N2135 1.427 . S
C2128 H2119 0.930 . S
C2128 C2126 1.378 . S
C2128 C2129 1.367 . S
C2129 C2128 1.367 . S
C2129 C2131 1.433 . S
C2130 C2126 1.350 . S
C2130 C2127 1.463 . S
C2130 N2134 1.427 . S
C2131 H2121 0.929 . S
C2131 C2129 1.433 . S
C2131 N2134 1.384 . S
C2132 H2123 0.929 . S
C2132 C2124 1.378 . S
C2132 C2127 1.350 . S
C2133 H2120 0.929 . S
C2133 C2125 1.433 . S
C2133 N2135 1.384 . S
N2134 C2130 1.427 . S
N2134 C2131 1.384 . S
N2135 C2127 1.427 . S
N2135 C2133 1.384 . S
H2136 C2142 0.930 . S
H2137 C2146 0.930 . S
H2138 C2151 0.929 . S
H2139 C2149 0.929 . S
H2140 C2144 0.929 . S
H2141 C2150 0.929 . S
C2142 H2136 0.930 . S
C2142 C2143 1.367 . S
C2142 C2150 1.378 . S
C2143 C2142 1.367 . S
C2143 C2151 1.433 . S
C2144 H2140 0.929 . S
C2144 C2146 1.378 . S
C2144 C2148 1.350 . S
C2145 C2148 1.463 . S
C2145 C2150 1.350 . S
C2145 N2153 1.427 . S
C2146 H2137 0.930 . S
C2146 C2144 1.378 . S
C2146 C2147 1.367 . S
C2147 C2146 1.367 . S
C2147 C2149 1.433 . S
C2148 C2144 1.350 . S
C2148 C2145 1.463 . S
C2148 N2152 1.427 . S
C2149 H2139 0.929 . S
C2149 C2147 1.433 . S
C2149 N2152 1.384 . S
C2150 H2141 0.929 . S
C2150 C2142 1.378 . S
C2150 C2145 1.350 . S
C2151 H2138 0.929 . S
C2151 C2143 1.433 . S
C2151 N2153 1.384 . S
N2152 C2148 1.427 . S
N2152 C2149 1.384 . S
N2153 C2145 1.427 . S
N2153 C2151 1.384 . S
H2154 C2160 0.930 . S
H2155 C2164 0.930 . S
H2156 C2169 0.929 . S
H2157 C2167 0.929 . S
H2158 C2162 0.929 . S
H2159 C2168 0.929 . S
C2160 H2154 0.930 . S
C2160 C2161 1.367 . S
C2160 C2168 1.378 . S
C2161 C2160 1.367 . S
C2161 C2169 1.433 . S
C2162 H2158 0.929 . S
C2162 C2164 1.378 . S
C2162 C2166 1.350 . S
C2163 C2166 1.463 . S
C2163 C2168 1.350 . S
C2163 N2171 1.427 . S
C2164 H2155 0.930 . S
C2164 C2162 1.378 . S
C2164 C2165 1.367 . S
C2165 C2164 1.367 . S
C2165 C2167 1.433 . S
C2166 C2162 1.350 . S
C2166 C2163 1.463 . S
C2166 N2170 1.427 . S
C2167 H2157 0.929 . S
C2167 C2165 1.433 . S
C2167 N2170 1.384 . S
C2168 H2159 0.929 . S
C2168 C2160 1.378 . S
C2168 C2163 1.350 . S
C2169 H2156 0.929 . S
C2169 C2161 1.433 . S
C2169 N2171 1.384 . S
N2170 C2166 1.427 . S
N2170 C2167 1.384 . S
N2171 C2163 1.427 . S
N2171 C2169 1.384 . S
H2172 C2178 0.930 . S
H2173 C2182 0.930 . S
H2174 C2187 0.929 . S
H2175 C2185 0.929 . S
H2176 C2180 0.929 . S
H2177 C2186 0.929 . S
C2178 H2172 0.930 . S
C2178 C2179 1.367 . S
C2178 C2186 1.378 . S
C2179 C2178 1.367 . S
C2179 C2187 1.433 . S
C2180 H2176 0.929 . S
C2180 C2182 1.378 . S
C2180 C2184 1.350 . S
C2181 C2184 1.463 . S
C2181 C2186 1.350 . S
C2181 N2189 1.427 . S
C2182 H2173 0.930 . S
C2182 C2180 1.378 . S
C2182 C2183 1.367 . S
C2183 C2182 1.367 . S
C2183 C2185 1.433 . S
C2184 C2180 1.350 . S
C2184 C2181 1.463 . S
C2184 N2188 1.427 . S
C2185 H2175 0.929 . S
C2185 C2183 1.433 . S
C2185 N2188 1.384 . S
C2186 H2177 0.929 . S
C2186 C2178 1.378 . S
C2186 C2181 1.350 . S
C2187 H2174 0.929 . S
C2187 C2179 1.433 . S
C2187 N2189 1.384 . S
N2188 C2184 1.427 . S
N2188 C2185 1.384 . S
N2189 C2181 1.427 . S
N2189 C2187 1.384 . S
H2190 C2196 0.930 . S
H2191 C2200 0.930 . S
H2192 C2205 0.929 . S
H2193 C2203 0.929 . S
H2194 C2198 0.929 . S
H2195 C2204 0.929 . S
C2196 H2190 0.930 . S
C2196 C2197 1.367 . S
C2196 C2204 1.378 . S
C2197 C2196 1.367 . S
C2197 C2205 1.433 . S
C2198 H2194 0.929 . S
C2198 C2200 1.378 . S
C2198 C2202 1.350 . S
C2199 C2202 1.463 . S
C2199 C2204 1.350 . S
C2199 N2207 1.427 . S
C2200 H2191 0.930 . S
C2200 C2198 1.378 . S
C2200 C2201 1.367 . S
C2201 C2200 1.367 . S
C2201 C2203 1.433 . S
C2202 C2198 1.350 . S
C2202 C2199 1.463 . S
C2202 N2206 1.427 . S
C2203 H2193 0.929 . S
C2203 C2201 1.433 . S
C2203 N2206 1.384 . S
C2204 H2195 0.929 . S
C2204 C2196 1.378 . S
C2204 C2199 1.350 . S
C2205 H2192 0.929 . S
C2205 C2197 1.433 . S
C2205 N2207 1.384 . S
N2206 C2202 1.427 . S
N2206 C2203 1.384 . S
N2207 C2199 1.427 . S
N2207 C2205 1.384 . S
C1351 C319 1.546 . S
C1355 C74 1.495 . S
C1369 C56 2.799 . S
C1373 C142 2.611 . S
C1387 C242 1.857 . S
C1391 C158 1.879 . S
C1405 C321 0.871 . S
C1409 C224 0.954 . S
C1423 C405 1.109 . S
C1427 C489 1.139 . S
C1441 C483 1.689 . S
C1445 C578 1.721 . S
C1459 C562 1.049 . S
C1463 C644 1.222 . S
C1477 C403 1.640 . S
C1481 C662 1.610 . S
C1495 C823 1.856 . S
C1499 C58 1.716 . S
C1513 C896 1.988 . S
C1517 C140 1.988 . S
C1531 C226 0.951 . S
C1535 C1150 0.951 . S
C1549 C735 1.402 . S
C1553 C315 1.393 . S
C1567 C987 1.673 . S
C1571 C399 1.724 . S
C1585 C1243 2.983 . S
C1589 C487 2.981 . S
C1603 C560 1.112 . S
C1607 C1064 1.115 . S
C1621 C1318 0.842 . S
C1625 C646 0.825 . S
C1639 C739 1.561 . S
C1643 C1166 1.531 . S
C1657 C825 0.800 . S
C1661 C741 0.797 . S
C1675 C914 1.523 . S
C1679 C819 1.560 . S
C1693 C1239 1.699 . S
C1697 C991 1.700 . S
C1711 C1082 1.308 . S
C1715 C1334 1.298 . S
C1729 C980 1.543 . S
C1733 C63 1.494 . S
C1747 C1077 2.611 . S
C1751 C67 2.801 . S
C1765 C1071 1.879 . S
C1769 C231 1.857 . S
C1783 C235 0.964 . S
C1787 C982 0.893 . S
C1801 C814 1.145 . S
C1805 C394 1.110 . S
C1819 C830 1.689 . S
C1823 C567 1.713 . S
C1837 C1159 1.232 . S
C1841 C573 1.084 . S
C1855 C392 1.640 . S
C1859 C1155 1.605 . S
C1873 C476 1.857 . S
C1877 C69 1.712 . S
C1891 C907 1.990 . S
C1895 C1075 1.992 . S
C1909 C237 0.965 . S
C1913 C657 0.930 . S
C1927 C746 1.401 . S
C1931 C998 1.387 . S
C1945 C326 1.671 . S
C1949 C410 1.720 . S
C1963 C812 2.980 . S
C1967 C1232 2.983 . S
C1981 C571 1.107 . S
C1985 C151 1.112 . S
C1999 C1329 0.858 . S
C2003 C1161 0.832 . S
C2017 C728 1.557 . S
C2021 C651 1.529 . S
C2035 C730 0.799 . S
C2039 C478 0.803 . S
C2053 C903 1.515 . S
C2057 C494 1.562 . S
C2071 C308 1.701 . S
C2075 C1250 1.698 . S
C2089 C147 1.303 . S
C2093 C1323 1.284 . S
C2107 C1066 1.403 . S
C2111 C1245 1.482 . S
C2125 C993 1.227 . S
C2129 C1316 1.454 . S
C2143 C898 1.019 . S
C2147 C1148 1.236 . S
C2161 C1234 1.483 . S
C2165 C153 1.424 . S
C2179 C310 1.229 . S
C2183 C1327 1.445 . S
C2197 C655 1.221 . S
C2201 C909 0.977 . S
