# Generated by pormake.
# Topology sml, (6)-cn, num edge types: 1
# Building blocks:
#     Node 0, Type 0, BuildingBlock: BETDEL_clean_sbu_0, # of connection points: 6
#     Node 1, Type 0, BuildingBlock: BETDEL_clean_sbu_0, # of connection points: 6
#     Node 2, Type 0, BuildingBlock: BETDEL_clean_sbu_0, # of connection points: 6
#     Node 3, Type 0, BuildingBlock: BETDEL_clean_sbu_0, # of connection points: 6
#     Node 4, Type 0, BuildingBlock: BETDEL_clean_sbu_0, # of connection points: 6
#     Node 5, Type 0, BuildingBlock: BETDEL_clean_sbu_0, # of connection points: 6
#     Edge 6, Type (0, 0), BuildingBlock: AJUNOK_clean_linker_0, # of connection points: 2
#     Edge 7, Type (0, 0), BuildingBlock: AJUNOK_clean_linker_0, # of connection points: 2
#     Edge 8, Type (0, 0), BuildingBlock: AJUNOK_clean_linker_0, # of connection points: 2
#     Edge 9, Type (0, 0), BuildingBlock: AJUNOK_clean_linker_0, # of connection points: 2
#     Edge 10, Type (0, 0), BuildingBlock: AJUNOK_clean_linker_0, # of connection points: 2
#     Edge 11, Type (0, 0), BuildingBlock: AJUNOK_clean_linker_0, # of connection points: 2
#     Edge 12, Type (0, 0), BuildingBlock: AJUNOK_clean_linker_0, # of connection points: 2
#     Edge 13, Type (0, 0), BuildingBlock: AJUNOK_clean_linker_0, # of connection points: 2
#     Edge 14, Type (0, 0), BuildingBlock: AJUNOK_clean_linker_0, # of connection points: 2
#     Edge 15, Type (0, 0), BuildingBlock: AJUNOK_clean_linker_0, # of connection points: 2
#     Edge 16, Type (0, 0), BuildingBlock: AJUNOK_clean_linker_0, # of connection points: 2
#     Edge 17, Type (0, 0), BuildingBlock: AJUNOK_clean_linker_0, # of connection points: 2
#     Edge 18, Type (0, 0), BuildingBlock: AJUNOK_clean_linker_0, # of connection points: 2
#     Edge 19, Type (0, 0), BuildingBlock: AJUNOK_clean_linker_0, # of connection points: 2
#     Edge 20, Type (0, 0), BuildingBlock: AJUNOK_clean_linker_0, # of connection points: 2
#     Edge 21, Type (0, 0), BuildingBlock: AJUNOK_clean_linker_0, # of connection points: 2
#     Edge 22, Type (0, 0), BuildingBlock: AJUNOK_clean_linker_0, # of connection points: 2
#     Edge 23, Type (0, 0), BuildingBlock: AJUNOK_clean_linker_0, # of connection points: 2
# Relax obj value: 0.145
# Max RMSD: 0.181
# Mean RMSD: 0.181
data_MOF--net-sml--node1-BETDEL_clean_sbu_0--edge1-AJUNOK_clean_linker_0
_symmetry_space_group_name_H-M    P1
_symmetry_Int_Tables_number       1
_symmetry_cell_setting            triclinic
loop_
_symmetry_equiv_pos_as_xyz
'x, y, z'
_cell_length_a     25.921106
_cell_length_b     25.968887
_cell_length_c     13.755108
_cell_angle_alpha  89.293541
_cell_angle_beta   90.889008
_cell_angle_gamma 120.41217
loop_
_atom_site_label
_atom_site_type_symbol
_atom_site_fract_x
_atom_site_fract_y
_atom_site_fract_z
_atom_type_partial_charge
Dy0 Dy 0.16459 0.42734 0.07173 0.0
C1 C 0.21119 0.40682 0.47314 0.0
C2 C 0.16943 0.43776 0.87465 0.0
Dy3 Dy 0.21005 0.41546 0.27565 0.0
O4 O 0.12299 0.39834 0.92271 0.0
O5 O 0.21061 0.47353 0.93478 0.0
O6 O 0.07191 0.3914 0.12722 0.0
O7 O 0.1283 0.36322 0.19096 0.0
C8 C 0.07858 0.3612 0.19797 0.0
C9 C 0.29449 0.48494 0.14796 0.0
O10 O 0.21405 0.33998 0.20801 0.0
O11 O 0.20071 0.36578 0.0512 0.0
O12 O 0.25564 0.44612 0.42155 0.0
O13 O 0.16812 0.37052 0.4161 0.0
O14 O 0.30365 0.45502 0.21617 0.0
O15 O 0.24403 0.47992 0.15871 0.0
O16 O 0.16957 0.50811 0.13755 0.0
O17 O 0.17793 0.48059 0.29646 0.0
C18 C 0.21371 0.33401 0.11225 0.0
C19 C 0.17022 0.51507 0.23308 0.0
Dy20 Dy 0.83969 0.26115 0.67053 0.0
C21 C 0.7991 0.20853 0.26502 0.0
C22 C 0.85644 0.28456 0.86476 0.0
Dy23 Dy 0.78616 0.20687 0.46033 0.0
O24 O 0.88749 0.26934 0.81164 0.0
O25 O 0.81845 0.29071 0.80982 0.0
O26 O 0.92975 0.27526 0.6196 0.0
O27 O 0.86864 0.2759 0.52218 0.0
C28 C 0.91727 0.27706 0.52813 0.0
C29 C 0.6969 0.17292 0.58698 0.0
O30 O 0.79503 0.13211 0.52809 0.0
O31 O 0.80057 0.16272 0.68824 0.0
O32 O 0.7554 0.20949 0.30869 0.0
O33 O 0.8326 0.20086 0.32827 0.0
O34 O 0.68833 0.15714 0.49547 0.0
O35 O 0.75263 0.2044 0.6035 0.0
O36 O 0.83119 0.33767 0.6095 0.0
O37 O 0.79393 0.29663 0.45518 0.0
C38 C 0.79282 0.12186 0.62361 0.0
C39 C 0.81129 0.33971 0.52031 0.0
Dy40 Dy 0.57685 0.74176 0.74653 0.0
C41 C 0.59033 0.80451 0.14921 0.0
C42 C 0.55586 0.73144 0.55246 0.0
Dy43 Dy 0.58471 0.79959 0.95189 0.0
O44 O 0.57304 0.69937 0.60236 0.0
O45 O 0.54839 0.76638 0.60932 0.0
O46 O 0.66445 0.74452 0.77707 0.0
O47 O 0.61166 0.74127 0.88993 0.0
C48 C 0.66219 0.74882 0.87107 0.0
C49 C 0.52274 0.81814 0.81214 0.0
O50 O 0.66689 0.87422 0.88248 0.0
O51 O 0.63833 0.83966 0.72475 0.0
O52 O 0.54841 0.80482 0.09624 0.0
O53 O 0.63141 0.80654 0.09358 0.0
O54 O 0.5497 0.85601 0.88289 0.0
O55 O 0.5266 0.77235 0.82677 0.0
O56 O 0.49891 0.66142 0.81486 0.0
O57 O 0.51035 0.70443 0.96907 0.0
C58 C 0.673 0.88208 0.78674 0.0
C59 C 0.48352 0.6589 0.90764 0.0
Dy60 Dy 0.74042 0.57429 0.3176 0.0
C61 C 0.80579 0.58226 0.91625 0.0
C62 C 0.72498 0.55774 0.51362 0.0
Dy63 Dy 0.80063 0.57418 0.1139 0.0
O64 O 0.71509 0.59465 0.46254 0.0
O65 O 0.7378 0.52686 0.45584 0.0
O66 O 0.74011 0.65856 0.26743 0.0
O67 O 0.73967 0.5993 0.1688 0.0
C68 C 0.7436 0.64905 0.17545 0.0
C69 C 0.81792 0.51777 0.26387 0.0
O70 O 0.87516 0.65697 0.18351 0.0
O71 O 0.83903 0.63287 0.34113 0.0
O72 O 0.8018 0.53758 0.96699 0.0
O73 O 0.81212 0.62425 0.97444 0.0
O74 O 0.85464 0.53835 0.1902 0.0
O75 O 0.77343 0.52338 0.24564 0.0
O76 O 0.65906 0.49691 0.24801 0.0
O77 O 0.70612 0.49782 0.10157 0.0
C78 C 0.88245 0.66503 0.27922 0.0
C79 C 0.65888 0.47569 0.15972 0.0
Dy80 Dy 0.26438 0.83827 0.40027 0.0
C81 C 0.20679 0.78833 0.80399 0.0
C82 C 0.27809 0.83185 0.20726 0.0
Dy83 Dy 0.20961 0.78463 0.60799 0.0
O84 O 0.30486 0.88159 0.25662 0.0
O85 O 0.24667 0.78691 0.26418 0.0
O86 O 0.26573 0.92467 0.43928 0.0
O87 O 0.26899 0.86927 0.54419 0.0
C88 C 0.26477 0.91468 0.53269 0.0
C89 C 0.18856 0.70501 0.46954 0.0
O90 O 0.13335 0.7904 0.53967 0.0
O91 O 0.16595 0.80064 0.38045 0.0
O92 O 0.20694 0.7457 0.75515 0.0
O93 O 0.20321 0.826 0.74513 0.0
O94 O 0.15301 0.69291 0.5435 0.0
O95 O 0.2346 0.75559 0.48063 0.0
O96 O 0.34602 0.84173 0.46762 0.0
O97 O 0.30486 0.80646 0.62262 0.0
C98 C 0.12372 0.78914 0.44428 0.0
C99 C 0.3498 0.82754 0.56012 0.0
Dy100 Dy 0.42487 0.16697 0.98051 0.0
C101 C 0.40934 0.21828 0.57887 0.0
C102 C 0.43557 0.16879 0.17817 0.0
Dy103 Dy 0.41303 0.21367 0.77688 0.0
O104 O 0.39198 0.1264 0.12844 0.0
O105 O 0.47503 0.20753 0.11913 0.0
O106 O 0.38468 0.07402 0.92516 0.0
O107 O 0.35969 0.13283 0.86175 0.0
C108 C 0.35535 0.0822 0.85443 0.0
C109 C 0.48558 0.29616 0.9056 0.0
O110 O 0.33846 0.21842 0.84493 0.0
O111 O 0.36627 0.2072 1.00179 0.0
O112 O 0.45235 0.25739 0.63357 0.0
O113 O 0.36638 0.17941 0.63316 0.0
O114 O 0.45599 0.30711 0.83897 0.0
O115 O 0.47848 0.24513 0.89306 0.0
O116 O 0.50164 0.16503 0.9094 0.0
O117 O 0.46871 0.17137 0.75417 0.0
C118 C 0.33389 0.21977 0.94066 0.0
C119 C 0.50461 0.16279 0.81314 0.0
C120 C 0.29676 0.24952 0.0847 0.0
C121 C 0.29551 0.24106 0.98326 0.0
C122 C 0.26733 0.27643 0.12671 0.0
C123 C 0.23525 0.29603 0.06923 0.0
H124 H 0.32257 0.23736 0.1324 0.0
H125 H 0.27215 0.28427 0.20436 0.0
S126 S 0.21093 0.27723 0.80144 0.0
N127 N 0.25438 0.24943 0.82759 0.0
N128 N 0.19867 0.29931 0.9061 0.0
C129 C 0.23042 0.28446 0.96835 0.0
C130 C 0.2606 0.25721 0.92553 0.0
C131 C 0.9965 0.35623 0.2968 0.0
C132 C 0.03717 0.33645 0.28159 0.0
C133 C 0.95827 0.3365 0.37674 0.0
C134 C 0.95973 0.29699 0.44617 0.0
H135 H 0.99445 0.38782 0.24702 0.0
H136 H 0.92764 0.35297 0.3847 0.0
S137 S 0.05137 0.22487 0.43298 0.0
N138 N 0.07099 0.26886 0.33613 0.0
N139 N 1.0015 0.23473 0.49043 0.0
C140 C 0.99899 0.27558 0.43105 0.0
C141 C 0.03701 0.29448 0.34767 0.0
C142 C 0.76649 0.05084 0.76436 0.0
C143 C 0.77249 0.06067 0.66272 0.0
C144 C 0.73778 0.99315 0.80451 0.0
C145 C 0.71393 0.94248 0.74504 0.0
H146 H 0.78161 0.08791 0.81404 0.0
H147 H 0.73164 0.98843 0.88249 0.0
S148 S 0.72682 0.9432 0.47559 0.0
N149 N 0.7584 0.01444 0.50448 0.0
N150 N 0.70552 0.90613 0.5794 0.0
C151 C 0.72392 0.95163 0.64376 0.0
C152 C 0.7529 0.01057 0.6028 0.0
C153 C 0.72292 0.76107 0.02197 0.0
C154 C 0.69141 0.72723 0.93997 0.0
C155 C 0.74164 0.73642 0.09688 0.0
C156 C 0.72858 0.67689 0.0928 0.0
H157 H 0.73195 0.80639 0.02925 0.0
H158 H 0.76557 0.76377 0.159 0.0
S159 S 0.64412 0.569 0.89475 0.0
N160 N 0.64701 0.63138 0.8596 0.0
N161 N 0.68078 0.58463 0.99942 0.0
C162 C 0.69763 0.64307 1.00999 0.0
C163 C 0.67925 0.66831 0.93394 0.0
C164 C 0.05193 0.75901 0.30278 0.0
C165 C 0.06199 0.76674 0.40429 0.0
C166 C 0.994 0.72914 0.2624 0.0
C167 C 0.94321 0.70574 0.32142 0.0
H168 H 0.08905 0.77383 0.25346 0.0
H169 H 0.98924 0.72212 0.18455 0.0
S170 S 0.94428 0.72168 0.59042 0.0
N171 N 0.01566 0.75379 0.56191 0.0
N172 N 0.907 0.69868 0.48662 0.0
C173 C 0.95252 0.71683 0.42256 0.0
C174 C 0.01169 0.74702 0.46375 0.0
C175 C 0.35124 1.00175 0.75413 0.0
C176 C 0.33105 0.04193 0.76946 0.0
C177 C 0.33006 0.96222 0.67615 0.0
C178 C 0.28784 0.96104 0.60914 0.0
H179 H 0.38389 1.00064 0.80292 0.0
H180 H 0.34714 0.93208 0.66864 0.0
S181 S 0.21811 0.05493 0.61885 0.0
N182 N 0.26421 0.07657 0.71368 0.0
N183 N 0.22555 0.00276 0.56404 0.0
C184 C 0.26734 1.00116 0.62262 0.0
C185 C 0.28858 0.04139 0.7036 0.0
C186 C 0.13462 0.38915 0.71298 0.0
C187 C 0.18063 0.43246 0.77152 0.0
C188 C 0.14569 0.37946 0.61758 0.0
C189 C 0.20321 0.41265 0.57747 0.0
H190 H 0.08976 0.36233 0.74108 0.0
H191 H 0.10853 0.34652 0.57441 0.0
S192 S 0.3401 0.52813 0.70325 0.0
N193 N 0.28669 0.50687 0.78431 0.0
N194 N 0.30724 0.4885 0.60487 0.0
C195 C 0.24987 0.4553 0.63576 0.0
C196 C 0.23861 0.46534 0.73282 0.0
C197 C 0.78717 0.25466 0.11298 0.0
C198 C 0.81672 0.2296 0.16408 0.0
C199 C 0.80423 0.27772 0.01885 0.0
C200 C 0.85034 0.27508 0.97118 0.0
H201 H 0.75033 0.25641 0.14568 0.0
H202 H 0.77907 0.29508 0.98151 0.0
S203 S 0.9479 0.22238 0.07865 0.0
N204 N 0.89935 0.21048 0.1648 0.0
N205 N 0.93006 0.2518 0.98625 0.0
C206 C 0.88267 0.25346 0.02352 0.0
C207 C 0.86592 0.23085 0.12017 0.0
C208 C 0.52361 0.75949 0.4004 0.0
C209 C 0.56077 0.74169 0.44698 0.0
C210 C 0.53426 0.78103 0.30458 0.0
C211 C 0.5834 0.787 0.25294 0.0
H212 H 0.48657 0.75769 0.439 0.0
H213 H 0.5039 0.79333 0.271 0.0
S214 S 0.69606 0.74982 0.34549 0.0
N215 N 0.64916 0.73271 0.4363 0.0
N216 N 0.67041 0.77452 0.25686 0.0
C217 C 0.62121 0.76979 0.29932 0.0
C218 C 0.6095 0.74664 0.39617 0.0
C219 C 0.77021 0.52573 0.76015 0.0
C220 C 0.78816 0.57855 0.81221 0.0
C221 C 0.74712 0.51841 0.66509 0.0
C222 C 0.74016 0.5632 0.61873 0.0
H223 H 0.77362 0.48948 0.79322 0.0
H224 H 0.73528 0.4775 0.6271 0.0
S225 S 0.7817 0.71066 0.72225 0.0
N226 N 0.79861 0.67712 0.80923 0.0
N227 N 0.75417 0.66276 0.63151 0.0
C228 C 0.75762 0.61614 0.67001 0.0
C229 C 0.78205 0.62402 0.76632 0.0
C230 C 0.23252 0.75923 0.96225 0.0
C231 C 0.22466 0.8007 0.90712 0.0
C232 C 0.25377 0.77159 0.05814 0.0
C233 C 0.26898 0.82627 0.1016 0.0
H234 H 0.22182 0.7167 0.93144 0.0
H235 H 0.25703 0.73749 0.09943 0.0
S236 S 0.25647 0.9498 0.98898 0.0
N237 N 0.23374 0.89877 0.90307 0.0
N238 N 0.27457 0.92206 0.0834 0.0
C239 C 0.26264 0.86869 0.04694 0.0
C240 C 0.24004 0.85578 0.94966 0.0
C241 C 0.37246 0.15574 0.42961 0.0
C242 C 0.4158 0.20871 0.47509 0.0
C243 C 0.38042 0.1419 0.33486 0.0
C244 C 0.43206 0.18047 0.28207 0.0
H245 H 0.33232 0.12422 0.46787 0.0
H246 H 0.34539 0.10105 0.30235 0.0
S247 S 0.5594 0.32459 0.36839 0.0
N248 N 0.51254 0.29974 0.46039 0.0
N249 N 0.52749 0.27379 0.28243 0.0
C250 C 0.47596 0.23344 0.32685 0.0
C251 C 0.46778 0.24761 0.42326 0.0
C252 C 0.12266 0.56132 0.32549 0.0
C253 C 0.17188 0.56789 0.27376 0.0
C254 C 0.12809 0.60715 0.38575 0.0
C255 C 0.18307 0.66038 0.39778 0.0
H256 H 0.08055 0.51948 0.32252 0.0
H257 H 0.0897 0.60026 0.42626 0.0
S258 S 0.32648 0.6971 0.28237 0.0
N259 N 0.27745 0.63065 0.23925 0.0
N260 N 0.2885 0.71581 0.35489 0.0
C261 C 0.23261 0.6675 0.34554 0.0
C262 C 0.22675 0.62135 0.28298 0.0
C263 C 0.59323 0.15093 0.60781 0.0
C264 C 0.64751 0.16335 0.65172 0.0
C265 C 0.54644 0.14702 0.66226 0.0
C266 C 0.55138 0.15547 0.76385 0.0
H267 H 0.5873 0.14635 0.5296 0.0
H268 H 0.50667 0.13937 0.62281 0.0
S269 S 0.6784 0.17363 0.91678 0.0
N270 N 0.70005 0.1735 0.80443 0.0
N271 N 0.61155 0.16672 0.908 0.0
C272 C 0.60356 0.16294 0.81009 0.0
C273 C 0.65183 0.16703 0.75379 0.0
C274 C 0.3897 0.51991 0.05585 0.0
C275 C 0.33909 0.52472 0.07519 0.0
C276 C 0.43467 0.56035 0.99275 0.0
C277 C 0.42994 0.60629 0.94618 0.0
H278 H 0.39558 0.48594 0.09214 0.0
H279 H 0.47479 0.55773 0.98466 0.0
S280 S 0.30692 0.63834 0.9707 0.0
N281 N 0.28749 0.5796 0.04134 0.0
N282 N 0.37104 0.65398 0.9218 0.0
C283 C 0.37877 0.61018 0.96194 0.0
C284 C 0.3335 0.56977 0.02663 0.0
C285 C 0.76213 0.39173 0.44837 0.0
C286 C 0.81491 0.39457 0.4821 0.0
C287 C 0.76395 0.43351 0.38091 0.0
C288 C 0.81861 0.47902 0.34318 0.0
H289 H 0.71898 0.35465 0.4694 0.0
H290 H 0.72191 0.42795 0.35402 0.0
S291 S 0.96899 0.50656 0.41118 0.0
N292 N 0.92312 0.44761 0.47657 0.0
N293 N 0.92669 0.52597 0.34813 0.0
C294 C 0.87172 0.48373 0.37923 0.0
C295 C 0.86982 0.44164 0.44935 0.0
C296 C 0.44714 0.88069 0.6488 0.0
C297 C 0.40402 0.82975 0.59857 0.0
C298 C 0.48714 0.87731 0.71546 0.0
C299 C 0.48436 0.82263 0.73521 0.0
H300 H 0.44747 0.92243 0.64114 0.0
H301 H 0.51874 0.91718 0.75456 0.0
S302 S 0.37834 0.67655 0.6221 0.0
N303 N 0.36155 0.72401 0.57068 0.0
N304 N 0.4342 0.71642 0.69813 0.0
C305 C 0.44212 0.7718 0.6832 0.0
C306 C 0.40264 0.77573 0.61424 0.0
C307 C 0.55944 0.4295 0.07653 0.0
C308 C 0.6054 0.4232 0.12002 0.0
C309 C 0.51956 0.38738 1.00873 0.0
C310 C 0.52484 0.33806 0.98203 0.0
H311 H 0.55685 0.46916 0.08989 0.0
H312 H 0.48571 0.39454 0.97468 0.0
S313 S 0.63815 0.30219 0.07644 0.0
N314 N 0.65316 0.36375 0.13393 0.0
N315 N 0.57981 0.28565 1.00572 0.0
C316 C 0.56959 0.33059 0.02776 0.0
C317 C 0.60944 0.37291 0.09703 0.0
loop_
_geom_bond_atom_site_label_1
_geom_bond_atom_site_label_2
_geom_bond_distance
_geom_bond_site_symmetry_2
_ccdc_geom_bond_type
Dy0 O4 2.398 . S
Dy0 O5 2.491 . S
Dy0 O6 2.403 . S
Dy0 O7 2.664 . S
Dy0 O11 2.326 . S
Dy0 O15 2.310 . S
Dy0 O16 2.351 . S
C1 O12 1.185 . S
C1 O13 1.355 . S
C2 O4 1.185 1_556 S
C2 O5 1.355 1_556 S
Dy3 O7 2.310 . S
Dy3 O10 2.351 . S
Dy3 O12 2.398 . S
Dy3 O13 2.491 . S
Dy3 O14 2.403 . S
Dy3 O15 2.664 . S
Dy3 O17 2.326 . S
O4 Dy0 2.398 . S
O4 C2 1.185 1_554 S
O5 Dy0 2.491 . S
O5 C2 1.355 1_554 S
O6 Dy0 2.403 . S
O6 C8 1.254 . S
O7 Dy0 2.664 . S
O7 Dy3 2.310 . S
O7 C8 1.268 . S
C8 O6 1.254 . S
C8 O7 1.268 . S
C9 O14 1.254 . S
C9 O15 1.268 . S
O10 Dy3 2.351 . S
O10 C18 1.249 . S
O11 Dy0 2.326 . S
O11 C18 1.267 . S
O12 C1 1.185 . S
O12 Dy3 2.398 . S
O13 C1 1.355 . S
O13 Dy3 2.491 . S
O14 Dy3 2.403 . S
O14 C9 1.254 . S
O15 Dy0 2.310 . S
O15 Dy3 2.664 . S
O15 C9 1.268 . S
O16 Dy0 2.351 . S
O16 C19 1.249 . S
O17 Dy3 2.326 . S
O17 C19 1.267 . S
C18 O10 1.249 . S
C18 O11 1.267 . S
C19 O16 1.249 . S
C19 O17 1.267 . S
Dy20 O24 2.398 . S
Dy20 O25 2.491 . S
Dy20 O26 2.403 . S
Dy20 O27 2.664 . S
Dy20 O31 2.326 . S
Dy20 O35 2.310 . S
Dy20 O36 2.351 . S
C21 O32 1.185 . S
C21 O33 1.355 . S
C22 O24 1.185 . S
C22 O25 1.355 . S
Dy23 O27 2.310 . S
Dy23 O30 2.351 . S
Dy23 O32 2.398 . S
Dy23 O33 2.491 . S
Dy23 O34 2.403 . S
Dy23 O35 2.664 . S
Dy23 O37 2.326 . S
O24 Dy20 2.398 . S
O24 C22 1.185 . S
O25 Dy20 2.491 . S
O25 C22 1.355 . S
O26 Dy20 2.403 . S
O26 C28 1.254 . S
O27 Dy20 2.664 . S
O27 Dy23 2.310 . S
O27 C28 1.268 . S
C28 O26 1.254 . S
C28 O27 1.268 . S
C29 O34 1.254 . S
C29 O35 1.268 . S
O30 Dy23 2.351 . S
O30 C38 1.249 . S
O31 Dy20 2.326 . S
O31 C38 1.267 . S
O32 C21 1.185 . S
O32 Dy23 2.398 . S
O33 C21 1.355 . S
O33 Dy23 2.491 . S
O34 Dy23 2.403 . S
O34 C29 1.254 . S
O35 Dy20 2.310 . S
O35 Dy23 2.664 . S
O35 C29 1.268 . S
O36 Dy20 2.351 . S
O36 C39 1.249 . S
O37 Dy23 2.326 . S
O37 C39 1.267 . S
C38 O30 1.249 . S
C38 O31 1.267 . S
C39 O36 1.249 . S
C39 O37 1.267 . S
Dy40 O44 2.398 . S
Dy40 O45 2.491 . S
Dy40 O46 2.403 . S
Dy40 O47 2.664 . S
Dy40 O51 2.326 . S
Dy40 O55 2.310 . S
Dy40 O56 2.351 . S
C41 O52 1.185 . S
C41 O53 1.355 . S
C42 O44 1.185 . S
C42 O45 1.355 . S
Dy43 O47 2.310 1_554 S
Dy43 O50 2.351 1_554 S
Dy43 O52 2.398 . S
Dy43 O53 2.491 . S
Dy43 O54 2.403 . S
Dy43 O55 2.664 1_554 S
Dy43 O57 2.326 . S
O44 Dy40 2.398 . S
O44 C42 1.185 . S
O45 Dy40 2.491 . S
O45 C42 1.355 . S
O46 Dy40 2.403 . S
O46 C48 1.254 . S
O47 Dy40 2.664 . S
O47 Dy43 2.310 1_556 S
O47 C48 1.268 . S
C48 O46 1.254 . S
C48 O47 1.268 . S
C49 O54 1.254 1_556 S
C49 O55 1.268 . S
O50 Dy43 2.351 1_556 S
O50 C58 1.249 . S
O51 Dy40 2.326 . S
O51 C58 1.267 . S
O52 C41 1.185 . S
O52 Dy43 2.398 . S
O53 C41 1.355 . S
O53 Dy43 2.491 . S
O54 Dy43 2.403 . S
O54 C49 1.254 1_554 S
O55 Dy40 2.310 . S
O55 Dy43 2.664 1_556 S
O55 C49 1.268 . S
O56 Dy40 2.351 . S
O56 C59 1.249 1_556 S
O57 Dy43 2.326 . S
O57 C59 1.267 . S
C58 O50 1.249 . S
C58 O51 1.267 . S
C59 O56 1.249 1_554 S
C59 O57 1.267 . S
Dy60 O64 2.398 . S
Dy60 O65 2.491 . S
Dy60 O66 2.403 . S
Dy60 O67 2.664 . S
Dy60 O71 2.326 . S
Dy60 O75 2.310 . S
Dy60 O76 2.351 . S
C61 O72 1.185 . S
C61 O73 1.355 . S
C62 O64 1.185 . S
C62 O65 1.355 . S
Dy63 O67 2.310 1_556 S
Dy63 O70 2.351 1_556 S
Dy63 O72 2.398 . S
Dy63 O73 2.491 . S
Dy63 O74 2.403 1_556 S
Dy63 O75 2.664 1_556 S
Dy63 O77 2.326 . S
O64 Dy60 2.398 . S
O64 C62 1.185 . S
O65 Dy60 2.491 . S
O65 C62 1.355 . S
O66 Dy60 2.403 . S
O66 C68 1.254 . S
O67 Dy60 2.664 . S
O67 Dy63 2.310 1_554 S
O67 C68 1.268 . S
C68 O66 1.254 . S
C68 O67 1.268 . S
C69 O74 1.254 . S
C69 O75 1.268 . S
O70 Dy63 2.351 1_554 S
O70 C78 1.249 . S
O71 Dy60 2.326 . S
O71 C78 1.267 . S
O72 C61 1.185 . S
O72 Dy63 2.398 . S
O73 C61 1.355 . S
O73 Dy63 2.491 . S
O74 Dy63 2.403 1_554 S
O74 C69 1.254 . S
O75 Dy60 2.310 . S
O75 Dy63 2.664 1_554 S
O75 C69 1.268 . S
O76 Dy60 2.351 . S
O76 C79 1.249 1_554 S
O77 Dy63 2.326 . S
O77 C79 1.267 . S
C78 O70 1.249 . S
C78 O71 1.267 . S
C79 O76 1.249 1_556 S
C79 O77 1.267 . S
Dy80 O84 2.398 . S
Dy80 O85 2.491 . S
Dy80 O86 2.403 . S
Dy80 O87 2.664 . S
Dy80 O91 2.326 . S
Dy80 O95 2.310 . S
Dy80 O96 2.351 . S
C81 O92 1.185 . S
C81 O93 1.355 . S
C82 O84 1.185 . S
C82 O85 1.355 . S
Dy83 O87 2.310 . S
Dy83 O90 2.351 . S
Dy83 O92 2.398 . S
Dy83 O93 2.491 . S
Dy83 O94 2.403 . S
Dy83 O95 2.664 . S
Dy83 O97 2.326 . S
O84 Dy80 2.398 . S
O84 C82 1.185 . S
O85 Dy80 2.491 . S
O85 C82 1.355 . S
O86 Dy80 2.403 . S
O86 C88 1.254 . S
O87 Dy80 2.664 . S
O87 Dy83 2.310 . S
O87 C88 1.268 . S
C88 O86 1.254 . S
C88 O87 1.268 . S
C89 O94 1.254 . S
C89 O95 1.268 . S
O90 Dy83 2.351 . S
O90 C98 1.249 . S
O91 Dy80 2.326 . S
O91 C98 1.267 . S
O92 C81 1.185 . S
O92 Dy83 2.398 . S
O93 C81 1.355 . S
O93 Dy83 2.491 . S
O94 Dy83 2.403 . S
O94 C89 1.254 . S
O95 Dy80 2.310 . S
O95 Dy83 2.664 . S
O95 C89 1.268 . S
O96 Dy80 2.351 . S
O96 C99 1.249 . S
O97 Dy83 2.326 . S
O97 C99 1.267 . S
C98 O90 1.249 . S
C98 O91 1.267 . S
C99 O96 1.249 . S
C99 O97 1.267 . S
Dy100 O104 2.398 1_556 S
Dy100 O105 2.491 1_556 S
Dy100 O106 2.403 . S
Dy100 O107 2.664 . S
Dy100 O111 2.326 . S
Dy100 O115 2.310 . S
Dy100 O116 2.351 . S
C101 O112 1.185 . S
C101 O113 1.355 . S
C102 O104 1.185 . S
C102 O105 1.355 . S
Dy103 O107 2.310 . S
Dy103 O110 2.351 . S
Dy103 O112 2.398 . S
Dy103 O113 2.491 . S
Dy103 O114 2.403 . S
Dy103 O115 2.664 . S
Dy103 O117 2.326 . S
O104 Dy100 2.398 1_554 S
O104 C102 1.185 . S
O105 Dy100 2.491 1_554 S
O105 C102 1.355 . S
O106 Dy100 2.403 . S
O106 C108 1.254 . S
O107 Dy100 2.664 . S
O107 Dy103 2.310 . S
O107 C108 1.268 . S
C108 O106 1.254 . S
C108 O107 1.268 . S
C109 O114 1.254 . S
C109 O115 1.268 . S
O110 Dy103 2.351 . S
O110 C118 1.249 . S
O111 Dy100 2.326 . S
O111 C118 1.267 . S
O112 C101 1.185 . S
O112 Dy103 2.398 . S
O113 C101 1.355 . S
O113 Dy103 2.491 . S
O114 Dy103 2.403 . S
O114 C109 1.254 . S
O115 Dy100 2.310 . S
O115 Dy103 2.664 . S
O115 C109 1.268 . S
O116 Dy100 2.351 . S
O116 C119 1.249 . S
O117 Dy103 2.326 . S
O117 C119 1.267 . S
C118 O110 1.249 . S
C118 O111 1.267 . S
C119 O116 1.249 . S
C119 O117 1.267 . S
C120 C121 1.369 1_554 S
C120 C122 1.419 . S
C120 H124 0.930 . S
C121 C120 1.369 1_556 S
C121 C130 1.429 . S
C122 C120 1.419 . S
C122 C123 1.363 . S
C122 H125 0.929 . S
C123 C122 1.363 . S
C123 C129 1.428 . S
H124 C120 0.930 . S
H125 C122 0.929 . S
S126 N127 1.613 . S
S126 N128 1.610 1_556 S
N127 S126 1.613 . S
N127 C130 1.350 . S
N128 S126 1.610 1_554 S
N128 C129 1.351 . S
C129 C123 1.428 . S
C129 N128 1.351 . S
C129 C130 1.434 1_554 S
C130 C121 1.429 . S
C130 N127 1.350 . S
C130 C129 1.434 1_556 S
C131 C132 1.369 . S
C131 C133 1.419 1_455 S
C131 H135 0.930 . S
C132 C131 1.369 . S
C132 C141 1.429 . S
C133 C131 1.419 1_655 S
C133 C134 1.363 . S
C133 H136 0.929 . S
C134 C133 1.363 . S
C134 C140 1.428 . S
H135 C131 0.930 . S
H136 C133 0.929 . S
S137 N138 1.613 1_655 S
S137 N139 1.610 . S
N138 S137 1.613 1_455 S
N138 C141 1.350 . S
N139 S137 1.610 . S
N139 C140 1.351 . S
C140 C134 1.428 . S
C140 N139 1.351 . S
C140 C141 1.434 1_655 S
C141 C132 1.429 . S
C141 N138 1.350 . S
C141 C140 1.434 1_455 S
C142 C143 1.369 . S
C142 C144 1.419 . S
C142 H146 0.930 . S
C143 C142 1.369 . S
C143 C152 1.429 1_545 S
C144 C142 1.419 . S
C144 C145 1.363 1_545 S
C144 H147 0.929 . S
C145 C144 1.363 1_565 S
C145 C151 1.428 . S
H146 C142 0.930 . S
H147 C144 0.929 . S
S148 N149 1.613 . S
S148 N150 1.610 . S
N149 S148 1.613 . S
N149 C152 1.350 . S
N150 S148 1.610 . S
N150 C151 1.351 . S
C151 C145 1.428 . S
C151 N150 1.351 . S
C151 C152 1.434 . S
C152 C143 1.429 1_565 S
C152 N149 1.350 . S
C152 C151 1.434 . S
C153 C154 1.369 . S
C153 C155 1.419 . S
C153 H157 0.930 1_554 S
C154 C153 1.369 . S
C154 C163 1.429 . S
C155 C153 1.419 . S
C155 C156 1.363 . S
C155 H158 0.929 . S
C156 C155 1.363 . S
C156 C162 1.428 . S
H157 C153 0.930 1_556 S
H158 C155 0.929 . S
S159 N160 1.613 . S
S159 N161 1.610 . S
N160 S159 1.613 . S
N160 C163 1.350 . S
N161 S159 1.610 . S
N161 C162 1.351 . S
C162 C156 1.428 . S
C162 N161 1.351 . S
C162 C163 1.434 . S
C163 C154 1.429 . S
C163 N160 1.350 . S
C163 C162 1.434 . S
C164 C165 1.369 . S
C164 C166 1.419 . S
C164 H168 0.930 . S
C165 C164 1.369 . S
C165 C174 1.429 1_455 S
C166 C164 1.419 . S
C166 C167 1.363 1_455 S
C166 H169 0.929 . S
C167 C166 1.363 1_655 S
C167 C173 1.428 . S
H168 C164 0.930 . S
H169 C166 0.929 . S
S170 N171 1.613 . S
S170 N172 1.610 . S
N171 S170 1.613 . S
N171 C174 1.350 . S
N172 S170 1.610 . S
N172 C173 1.351 . S
C173 C167 1.428 . S
C173 N172 1.351 . S
C173 C174 1.434 . S
C174 C165 1.429 1_655 S
C174 N171 1.350 . S
C174 C173 1.434 . S
C175 C176 1.369 . S
C175 C177 1.419 1_545 S
C175 H179 0.930 . S
C176 C175 1.369 . S
C176 C185 1.429 . S
C177 C175 1.419 1_565 S
C177 C178 1.363 . S
C177 H180 0.929 . S
C178 C177 1.363 . S
C178 C184 1.428 . S
H179 C175 0.930 . S
H180 C177 0.929 . S
S181 N182 1.613 1_565 S
S181 N183 1.610 . S
N182 S181 1.613 1_545 S
N182 C185 1.350 . S
N183 S181 1.610 . S
N183 C184 1.351 . S
C184 C178 1.428 . S
C184 N183 1.351 . S
C184 C185 1.434 1_565 S
C185 C176 1.429 . S
C185 N182 1.350 . S
C185 C184 1.434 1_545 S
C186 C187 1.369 . S
C186 C188 1.419 . S
C186 H190 0.930 . S
C187 C186 1.369 . S
C187 C196 1.429 . S
C188 C186 1.419 . S
C188 C189 1.363 . S
C188 H191 0.929 . S
C189 C188 1.363 . S
C189 C195 1.428 . S
H190 C186 0.930 . S
H191 C188 0.929 . S
S192 N193 1.613 . S
S192 N194 1.610 . S
N193 S192 1.613 . S
N193 C196 1.350 . S
N194 S192 1.610 . S
N194 C195 1.351 . S
C195 C189 1.428 . S
C195 N194 1.351 . S
C195 C196 1.434 . S
C196 C187 1.429 . S
C196 N193 1.350 . S
C196 C195 1.434 . S
C197 C198 1.369 1_556 S
C197 C199 1.419 . S
C197 H201 0.930 . S
C198 C197 1.369 1_554 S
C198 C207 1.429 1_554 S
C199 C197 1.419 . S
C199 C200 1.363 . S
C199 H202 0.929 . S
C200 C199 1.363 . S
C200 C206 1.428 . S
H201 C197 0.930 . S
H202 C199 0.929 . S
S203 N204 1.613 1_556 S
S203 N205 1.610 . S
N204 S203 1.613 1_554 S
N204 C207 1.350 1_554 S
N205 S203 1.610 . S
N205 C206 1.351 . S
C206 C200 1.428 . S
C206 N205 1.351 . S
C206 C207 1.434 . S
C207 C198 1.429 1_556 S
C207 N204 1.350 1_556 S
C207 C206 1.434 . S
C208 C209 1.369 . S
C208 C210 1.419 . S
C208 H212 0.930 . S
C209 C208 1.369 . S
C209 C218 1.429 . S
C210 C208 1.419 . S
C210 C211 1.363 . S
C210 H213 0.929 . S
C211 C210 1.363 . S
C211 C217 1.428 . S
H212 C208 0.930 . S
H213 C210 0.929 . S
S214 N215 1.613 . S
S214 N216 1.610 . S
N215 S214 1.613 . S
N215 C218 1.350 . S
N216 S214 1.610 . S
N216 C217 1.351 . S
C217 C211 1.428 . S
C217 N216 1.351 . S
C217 C218 1.434 . S
C218 C209 1.429 . S
C218 N215 1.350 . S
C218 C217 1.434 . S
C219 C220 1.369 . S
C219 C221 1.419 . S
C219 H223 0.930 . S
C220 C219 1.369 . S
C220 C229 1.429 . S
C221 C219 1.419 . S
C221 C222 1.363 . S
C221 H224 0.929 . S
C222 C221 1.363 . S
C222 C228 1.428 . S
H223 C219 0.930 . S
H224 C221 0.929 . S
S225 N226 1.613 . S
S225 N227 1.610 . S
N226 S225 1.613 . S
N226 C229 1.350 . S
N227 S225 1.610 . S
N227 C228 1.351 . S
C228 C222 1.428 . S
C228 N227 1.351 . S
C228 C229 1.434 . S
C229 C220 1.429 . S
C229 N226 1.350 . S
C229 C228 1.434 . S
C230 C231 1.369 . S
C230 C232 1.419 . S
C230 H234 0.930 . S
C231 C230 1.369 . S
C231 C240 1.429 . S
C232 C230 1.419 . S
C232 C233 1.363 . S
C232 H235 0.929 . S
C233 C232 1.363 . S
C233 C239 1.428 . S
H234 C230 0.930 . S
H235 C232 0.929 . S
S236 N237 1.613 . S
S236 N238 1.610 . S
N237 S236 1.613 . S
N237 C240 1.350 . S
N238 S236 1.610 . S
N238 C239 1.351 . S
C239 C233 1.428 . S
C239 N238 1.351 . S
C239 C240 1.434 . S
C240 C231 1.429 . S
C240 N237 1.350 . S
C240 C239 1.434 . S
C241 C242 1.369 . S
C241 C243 1.419 . S
C241 H245 0.930 . S
C242 C241 1.369 . S
C242 C251 1.429 . S
C243 C241 1.419 . S
C243 C244 1.363 . S
C243 H246 0.929 . S
C244 C243 1.363 . S
C244 C250 1.428 . S
H245 C241 0.930 . S
H246 C243 0.929 . S
S247 N248 1.613 . S
S247 N249 1.610 . S
N248 S247 1.613 . S
N248 C251 1.350 . S
N249 S247 1.610 . S
N249 C250 1.351 . S
C250 C244 1.428 . S
C250 N249 1.351 . S
C250 C251 1.434 . S
C251 C242 1.429 . S
C251 N248 1.350 . S
C251 C250 1.434 . S
C252 C253 1.369 . S
C252 C254 1.419 . S
C252 H256 0.930 . S
C253 C252 1.369 . S
C253 C262 1.429 . S
C254 C252 1.419 . S
C254 C255 1.363 . S
C254 H257 0.929 . S
C255 C254 1.363 . S
C255 C261 1.428 . S
H256 C252 0.930 . S
H257 C254 0.929 . S
S258 N259 1.613 . S
S258 N260 1.610 . S
N259 S258 1.613 . S
N259 C262 1.350 . S
N260 S258 1.610 . S
N260 C261 1.351 . S
C261 C255 1.428 . S
C261 N260 1.351 . S
C261 C262 1.434 . S
C262 C253 1.429 . S
C262 N259 1.350 . S
C262 C261 1.434 . S
C263 C264 1.369 . S
C263 C265 1.419 . S
C263 H267 0.930 . S
C264 C263 1.369 . S
C264 C273 1.429 . S
C265 C263 1.419 . S
C265 C266 1.363 . S
C265 H268 0.929 . S
C266 C265 1.363 . S
C266 C272 1.428 . S
H267 C263 0.930 . S
H268 C265 0.929 . S
S269 N270 1.613 . S
S269 N271 1.610 . S
N270 S269 1.613 . S
N270 C273 1.350 . S
N271 S269 1.610 . S
N271 C272 1.351 . S
C272 C266 1.428 . S
C272 N271 1.351 . S
C272 C273 1.434 . S
C273 C264 1.429 . S
C273 N270 1.350 . S
C273 C272 1.434 . S
C274 C275 1.369 . S
C274 C276 1.419 . S
C274 H278 0.930 . S
C275 C274 1.369 . S
C275 C284 1.429 . S
C276 C274 1.419 . S
C276 C277 1.363 . S
C276 H279 0.929 . S
C277 C276 1.363 . S
C277 C283 1.428 . S
H278 C274 0.930 . S
H279 C276 0.929 . S
S280 N281 1.613 . S
S280 N282 1.610 . S
N281 S280 1.613 . S
N281 C284 1.350 . S
N282 S280 1.610 . S
N282 C283 1.351 . S
C283 C277 1.428 . S
C283 N282 1.351 . S
C283 C284 1.434 . S
C284 C275 1.429 . S
C284 N281 1.350 . S
C284 C283 1.434 . S
C285 C286 1.369 . S
C285 C287 1.419 . S
C285 H289 0.930 . S
C286 C285 1.369 . S
C286 C295 1.429 . S
C287 C285 1.419 . S
C287 C288 1.363 . S
C287 H290 0.929 . S
C288 C287 1.363 . S
C288 C294 1.428 . S
H289 C285 0.930 . S
H290 C287 0.929 . S
S291 N292 1.613 . S
S291 N293 1.610 . S
N292 S291 1.613 . S
N292 C295 1.350 . S
N293 S291 1.610 . S
N293 C294 1.351 . S
C294 C288 1.428 . S
C294 N293 1.351 . S
C294 C295 1.434 . S
C295 C286 1.429 . S
C295 N292 1.350 . S
C295 C294 1.434 . S
C296 C297 1.369 . S
C296 C298 1.419 . S
C296 H300 0.930 . S
C297 C296 1.369 . S
C297 C306 1.429 . S
C298 C296 1.419 . S
C298 C299 1.363 . S
C298 H301 0.929 . S
C299 C298 1.363 . S
C299 C305 1.428 . S
H300 C296 0.930 . S
H301 C298 0.929 . S
S302 N303 1.613 . S
S302 N304 1.610 . S
N303 S302 1.613 . S
N303 C306 1.350 . S
N304 S302 1.610 . S
N304 C305 1.351 . S
C305 C299 1.428 . S
C305 N304 1.351 . S
C305 C306 1.434 . S
C306 C297 1.429 . S
C306 N303 1.350 . S
C306 C305 1.434 . S
C307 C308 1.369 . S
C307 C309 1.419 . S
C307 H311 0.930 . S
C308 C307 1.369 . S
C308 C317 1.429 . S
C309 C307 1.419 . S
C309 C310 1.363 . S
C309 H312 0.929 . S
C310 C309 1.363 . S
C310 C316 1.428 . S
H311 C307 0.930 . S
H312 C309 0.929 . S
S313 N314 1.613 . S
S313 N315 1.610 . S
N314 S313 1.613 . S
N314 C317 1.350 . S
N315 S313 1.610 . S
N315 C316 1.351 . S
C316 C310 1.428 . S
C316 N315 1.351 . S
C316 C317 1.434 . S
C317 C308 1.429 . S
C317 N314 1.350 . S
C317 C316 1.434 . S
C121 C118 1.603 . S
C123 C18 1.601 . S
C132 C8 1.485 . S
C134 C28 1.489 . S
C143 C38 1.604 . S
C145 C58 1.600 . S
C154 C48 1.482 1_554 S
C156 C68 1.480 . S
C165 C98 1.604 . S
C167 C78 1.600 . S
C176 C108 1.481 . S
C178 C88 1.488 . S
C187 C2 1.311 . S
C189 C1 1.317 . S
C198 C21 1.311 . S
C200 C22 1.318 . S
C209 C42 1.318 . S
C211 C41 1.312 . S
C220 C61 1.314 . S
C222 C62 1.316 . S
C231 C81 1.317 1_554 S
C233 C82 1.313 . S
C242 C101 1.318 . S
C244 C102 1.312 . S
C253 C19 1.642 . S
C255 C89 1.657 . S
C264 C29 1.658 . S
C266 C119 1.643 . S
C275 C9 1.657 . S
C277 C59 1.643 . S
C286 C39 1.645 . S
C288 C69 1.658 . S
C297 C99 1.644 . S
C299 C49 1.656 . S
C308 C79 1.644 . S
C310 C109 1.657 . S
