# Generated by pormake.
# Topology wje, (4)-cn, num edge types: 1
# Building blocks:
#     Node 0, Type 0, BuildingBlock: CEKHIL_clean_sbu_0, # of connection points: 4
#     Node 1, Type 0, BuildingBlock: CEKHIL_clean_sbu_0, # of connection points: 4
#     Node 2, Type 0, BuildingBlock: CEKHIL_clean_sbu_0, # of connection points: 4
#     Node 3, Type 0, BuildingBlock: CEKHIL_clean_sbu_0, # of connection points: 4
#     Node 4, Type 0, BuildingBlock: CEKHIL_clean_sbu_0, # of connection points: 4
#     Node 5, Type 0, BuildingBlock: CEKHIL_clean_sbu_0, # of connection points: 4
#     Node 6, Type 0, BuildingBlock: CEKHIL_clean_sbu_0, # of connection points: 4
#     Node 7, Type 0, BuildingBlock: CEKHIL_clean_sbu_0, # of connection points: 4
#     Node 8, Type 0, BuildingBlock: CEKHIL_clean_sbu_0, # of connection points: 4
#     Node 9, Type 0, BuildingBlock: CEKHIL_clean_sbu_0, # of connection points: 4
#     Node 10, Type 0, BuildingBlock: CEKHIL_clean_sbu_0, # of connection points: 4
#     Node 11, Type 0, BuildingBlock: CEKHIL_clean_sbu_0, # of connection points: 4
#     Edge 12, Type (0, 0), BuildingBlock: KIFKEQ_clean_linker_1, # of connection points: 2
#     Edge 13, Type (0, 0), BuildingBlock: KIFKEQ_clean_linker_1, # of connection points: 2
#     Edge 14, Type (0, 0), BuildingBlock: KIFKEQ_clean_linker_1, # of connection points: 2
#     Edge 15, Type (0, 0), BuildingBlock: KIFKEQ_clean_linker_1, # of connection points: 2
#     Edge 16, Type (0, 0), BuildingBlock: KIFKEQ_clean_linker_1, # of connection points: 2
#     Edge 17, Type (0, 0), BuildingBlock: KIFKEQ_clean_linker_1, # of connection points: 2
#     Edge 18, Type (0, 0), BuildingBlock: KIFKEQ_clean_linker_1, # of connection points: 2
#     Edge 19, Type (0, 0), BuildingBlock: KIFKEQ_clean_linker_1, # of connection points: 2
#     Edge 20, Type (0, 0), BuildingBlock: KIFKEQ_clean_linker_1, # of connection points: 2
#     Edge 21, Type (0, 0), BuildingBlock: KIFKEQ_clean_linker_1, # of connection points: 2
#     Edge 22, Type (0, 0), BuildingBlock: KIFKEQ_clean_linker_1, # of connection points: 2
#     Edge 23, Type (0, 0), BuildingBlock: KIFKEQ_clean_linker_1, # of connection points: 2
#     Edge 24, Type (0, 0), BuildingBlock: KIFKEQ_clean_linker_1, # of connection points: 2
#     Edge 25, Type (0, 0), BuildingBlock: KIFKEQ_clean_linker_1, # of connection points: 2
#     Edge 26, Type (0, 0), BuildingBlock: KIFKEQ_clean_linker_1, # of connection points: 2
#     Edge 27, Type (0, 0), BuildingBlock: KIFKEQ_clean_linker_1, # of connection points: 2
#     Edge 28, Type (0, 0), BuildingBlock: KIFKEQ_clean_linker_1, # of connection points: 2
#     Edge 29, Type (0, 0), BuildingBlock: KIFKEQ_clean_linker_1, # of connection points: 2
#     Edge 30, Type (0, 0), BuildingBlock: KIFKEQ_clean_linker_1, # of connection points: 2
#     Edge 31, Type (0, 0), BuildingBlock: KIFKEQ_clean_linker_1, # of connection points: 2
#     Edge 32, Type (0, 0), BuildingBlock: KIFKEQ_clean_linker_1, # of connection points: 2
#     Edge 33, Type (0, 0), BuildingBlock: KIFKEQ_clean_linker_1, # of connection points: 2
#     Edge 34, Type (0, 0), BuildingBlock: KIFKEQ_clean_linker_1, # of connection points: 2
#     Edge 35, Type (0, 0), BuildingBlock: KIFKEQ_clean_linker_1, # of connection points: 2
# Relax obj value: 0.162
# Max RMSD: 0.099
# Mean RMSD: 0.099
data_MOF--net-wje--node1-CEKHIL_clean_sbu_0--edge1-KIFKEQ_clean_linker_1
_symmetry_space_group_name_H-M    P1
_symmetry_Int_Tables_number       1
_symmetry_cell_setting            triclinic
loop_
_symmetry_equiv_pos_as_xyz
'x, y, z'
_cell_length_a     39.991018
_cell_length_b     39.99075
_cell_length_c     38.282731
_cell_angle_alpha  89.946882
_cell_angle_beta   90.086
_cell_angle_gamma 120.00349
loop_
_atom_site_label
_atom_site_type_symbol
_atom_site_fract_x
_atom_site_fract_y
_atom_site_fract_z
_atom_type_partial_charge
Co0 Co 0.3196 0.02467 0.30538 0.0
O1 O 0.32087 0.03984 0.25731 0.0
O2 O 0.34915 0.0811 0.30028 0.0
C3 C 0.25553 0.98222 0.30667 0.0
O4 O 0.32185 0.01783 0.35892 0.0
Co5 Co 0.29379 0.93822 0.32065 0.0
O6 O 0.29353 0.95382 0.36968 0.0
C7 C 0.37125 0.98991 0.29199 0.0
C8 C 0.34059 0.0755 0.26711 0.0
C9 C 0.30881 0.98868 0.38023 0.0
O10 O 0.36732 0.01968 0.29749 0.0
O11 O 0.34376 0.95514 0.29606 0.0
O12 O 0.26804 0.01876 0.31136 0.0
O13 O 0.28146 0.97368 0.29811 0.0
Co14 Co 0.29476 0.31747 0.63877 0.0
O15 O 0.28119 0.31972 0.5908 0.0
O16 O 0.26833 0.34754 0.63418 0.0
C17 C 0.27246 0.25326 0.63898 0.0
O18 O 0.3037 0.31868 0.69233 0.0
Co19 Co 0.35447 0.2903 0.65336 0.0
O20 O 0.33701 0.28772 0.70217 0.0
C21 C 0.38142 0.36871 0.62621 0.0
C22 C 0.26546 0.3395 0.6009 0.0
C23 C 0.31842 0.30383 0.71327 0.0
O24 O 0.34774 0.36495 0.63138 0.0
O25 O 0.38838 0.34097 0.63008 0.0
O26 O 0.24874 0.26605 0.64416 0.0
O27 O 0.30708 0.2791 0.63072 0.0
Co28 Co 0.97591 0.29342 0.97298 0.0
O29 O 0.96059 0.28079 0.92479 0.0
O30 O 0.91942 0.26592 0.9681 0.0
C31 C 0.019 0.27259 0.97244 0.0
O32 O 0.98304 0.301 0.02669 0.0
Co33 Co 0.06211 0.35409 0.98896 0.0
O34 O 0.04725 0.333 0.03687 0.0
C35 C 0.00966 0.38003 0.96205 0.0
C36 C 0.92496 0.26402 0.93475 0.0
C37 C 0.01247 0.31403 0.04771 0.0
O38 O 0.98012 0.34597 0.96667 0.0
O39 O 0.04455 0.38768 0.96622 0.0
O40 O 0.98261 0.24807 0.97728 0.0
O41 O 0.02703 0.3072 0.96501 0.0
Co42 Co 0.68348 0.97567 0.30567 0.0
O43 O 0.68264 0.96084 0.25757 0.0
O44 O 0.65442 0.91921 0.30026 0.0
C45 C 0.74744 0.01866 0.3074 0.0
O46 O 0.68087 0.98229 0.35923 0.0
Co47 Co 0.70837 0.06193 0.32092 0.0
O48 O 0.7086 0.04626 0.36996 0.0
C49 C 0.63122 0.00968 0.29183 0.0
C50 C 0.66311 0.9251 0.26714 0.0
C51 C 0.69356 0.01143 0.38054 0.0
O52 O 0.63547 0.98012 0.2975 0.0
O53 O 0.65846 0.04456 0.29594 0.0
O54 O 0.73528 0.98216 0.31199 0.0
O55 O 0.72127 0.02682 0.29865 0.0
Co56 Co 0.70756 0.68307 0.6354 0.0
O57 O 0.72084 0.68032 0.58748 0.0
O58 O 0.73521 0.65413 0.63131 0.0
C59 C 0.72826 0.74695 0.63474 0.0
O60 O 0.69917 0.68275 0.68897 0.0
Co61 Co 0.64629 0.70829 0.6494 0.0
O62 O 0.66544 0.71339 0.69796 0.0
C63 C 0.62109 0.62986 0.62341 0.0
C64 C 0.73749 0.66149 0.5979 0.0
C65 C 0.68471 0.69816 0.7095 0.0
O66 O 0.65514 0.63458 0.62877 0.0
O67 O 0.61326 0.65706 0.62672 0.0
O68 O 0.75278 0.73516 0.63999 0.0
O69 O 0.69385 0.72034 0.62675 0.0
Co70 Co 0.02366 0.70693 0.96938 0.0
O71 O 0.03951 0.71912 0.92131 0.0
O72 O 0.08013 0.73327 0.9651 0.0
C73 C 0.98177 0.72921 0.9681 0.0
O74 O 0.01601 0.69966 0.02303 0.0
Co75 Co 0.93694 0.64778 0.98474 0.0
O76 O 0.95176 0.66876 0.03269 0.0
C77 C 0.98832 0.61992 0.95938 0.0
C78 C 0.07501 0.73524 0.93165 0.0
C79 C 0.98649 0.68716 0.0438 0.0
O80 O 0.01823 0.65381 0.96365 0.0
O81 O 0.95362 0.61297 0.9632 0.0
O82 O 0.01829 0.75307 0.97315 0.0
O83 O 0.97293 0.69432 0.96084 0.0
Co84 Co 0.97688 0.68389 0.38447 0.0
O85 O 0.96174 0.67959 0.43288 0.0
O86 O 0.92047 0.65392 0.38947 0.0
C87 C 0.01893 0.74805 0.38667 0.0
O88 O 0.98333 0.6848 0.33057 0.0
Co89 Co 0.0633 0.71279 0.36612 0.0
O90 O 0.04709 0.72056 0.31938 0.0
C91 C 0.01242 0.63175 0.38852 0.0
C92 C 0.92608 0.66067 0.42292 0.0
C93 C 0.01205 0.70306 0.30914 0.0
O94 O 0.98244 0.63609 0.38892 0.0
O95 O 0.0467 0.65936 0.38249 0.0
O96 O 0.98242 0.73558 0.38186 0.0
O97 O 0.02784 0.72181 0.39266 0.0
Co98 Co 0.29402 0.97605 0.72025 0.0
O99 O 0.28041 0.96001 0.76811 0.0
O100 O 0.26763 0.91953 0.72453 0.0
C101 C 0.27168 0.0179 0.72025 0.0
O102 O 0.30307 0.98405 0.66677 0.0
Co103 Co 0.35372 0.06302 0.70621 0.0
O104 O 0.33609 0.04838 0.65735 0.0
C105 C 0.38061 0.01141 0.73314 0.0
C106 C 0.26475 0.92456 0.75783 0.0
C107 C 0.31764 0.01376 0.64602 0.0
O108 O 0.34696 0.98152 0.72774 0.0
O109 O 0.38758 0.04613 0.72946 0.0
O110 O 0.24799 0.98143 0.71482 0.0
O111 O 0.30629 0.02666 0.72859 0.0
Co112 Co 0.31889 0.29445 0.05403 0.0
O113 O 0.32073 0.28082 0.10208 0.0
O114 O 0.34859 0.26769 0.05891 0.0
C115 C 0.25477 0.27266 0.05338 0.0
O116 O 0.32062 0.30325 1.00043 0.0
Co117 Co 0.29217 0.35439 0.03855 0.0
O118 O 0.2913 0.33798 0.98962 0.0
C119 C 0.37045 0.38119 0.06619 0.0
C120 C 0.34036 0.26486 0.09213 0.0
C121 C 0.307 0.31881 0.97908 0.0
O122 O 0.36654 0.34735 0.06159 0.0
O123 O 0.34278 0.38817 0.0619 0.0
O124 O 0.26726 0.24867 0.0484 0.0
O125 O 0.28077 0.3072 0.06163 0.0
Co126 Co 0.02505 0.31747 0.3882 0.0
O127 O 0.04075 0.32106 0.43639 0.0
O128 O 0.08153 0.34755 0.39283 0.0
C129 C 0.98312 0.25326 0.38957 0.0
O130 O 0.01777 0.3173 0.33445 0.0
Co131 Co 0.93833 0.28917 0.37167 0.0
O132 O 0.95369 0.28291 0.32403 0.0
C133 C 0.98928 0.369 0.3966 0.0
C134 C 0.07629 0.34034 0.42624 0.0
C135 C 0.98855 0.29991 0.31332 0.0
O136 O 0.01941 0.36509 0.39385 0.0
O137 O 0.9548 0.34113 0.39194 0.0
O138 O 0.01961 0.26587 0.38448 0.0
O139 O 0.97429 0.27935 0.39652 0.0
Co140 Co 0.70657 0.02398 0.72088 0.0
O141 O 0.72032 0.03952 0.76886 0.0
O142 O 0.73403 0.08052 0.72552 0.0
C143 C 0.72747 0.98097 0.72045 0.0
O144 O 0.69753 0.01642 0.66731 0.0
Co145 Co 0.64525 0.93752 0.70654 0.0
O146 O 0.66323 0.95214 0.65778 0.0
C147 C 0.62026 0.99035 0.7339 0.0
C148 C 0.73665 0.07511 0.75881 0.0
C149 C 0.68244 0.98675 0.64651 0.0
O150 O 0.65416 0.01977 0.72829 0.0
O151 O 0.6125 0.95537 0.73027 0.0
O152 O 0.75186 0.01737 0.71544 0.0
O153 O 0.69314 0.97298 0.72886 0.0
Co154 Co 0.68405 0.70858 0.0509 0.0
O155 O 0.6817 0.72095 0.09926 0.0
O156 O 0.65419 0.73512 0.05644 0.0
C157 C 0.7483 0.73081 0.05084 0.0
O158 O 0.68282 0.70112 0.99708 0.0
Co159 Co 0.71217 0.64993 0.03382 0.0
O160 O 0.71298 0.66738 0.98536 0.0
C161 C 0.63206 0.62103 0.05791 0.0
C162 C 0.66221 0.73722 0.08969 0.0
C163 C 0.69672 0.68622 0.97535 0.0
O164 O 0.6364 0.65535 0.05723 0.0
O165 O 0.65949 0.61405 0.05215 0.0
O166 O 0.73559 0.75468 0.04626 0.0
O167 O 0.7224 0.69597 0.0583 0.0
H168 H 0.33021 0.06892 0.1966 0.0
H169 H 0.37084 0.15364 0.27922 0.0
H170 H 0.33684 0.11755 0.15483 0.0
H171 H 0.37844 0.20306 0.23694 0.0
H172 H 0.3312 0.26177 0.16275 0.0
H173 H 0.33788 0.21972 0.20443 0.0
H174 H 0.37737 0.17438 0.12189 0.0
H175 H 0.36973 0.21627 0.0797 0.0
C176 C 0.34121 0.09818 0.20584 0.0
C177 C 0.34974 0.10718 0.24149 0.0
C178 C 0.34531 0.12631 0.18165 0.0
C179 C 0.35804 0.1645 0.19223 0.0
C180 C 0.368 0.1739 0.22774 0.0
C181 C 0.36395 0.14562 0.25204 0.0
C182 C 0.34176 0.24319 0.1534 0.0
C183 C 0.34968 0.24235 0.11766 0.0
C184 C 0.34589 0.21913 0.17753 0.0
C185 C 0.35804 0.19326 0.16681 0.0
C186 C 0.3674 0.19344 0.1312 0.0
C187 C 0.36333 0.21771 0.10695 0.0
H188 H 0.26187 0.32994 0.53035 0.0
H189 H 0.21789 0.3701 0.61336 0.0
H190 H 0.22008 0.33709 0.48874 0.0
H191 H 0.17632 0.37834 0.5712 0.0
H192 H 0.07049 0.33209 0.49697 0.0
H193 H 0.11922 0.33875 0.53864 0.0
H194 H 0.20379 0.37736 0.45588 0.0
H195 H 0.15421 0.3696 0.41371 0.0
C196 C 0.24369 0.34098 0.53971 0.0
C197 C 0.24317 0.34917 0.57543 0.0
C198 C 0.21979 0.34539 0.5156 0.0
C199 C 0.19442 0.35817 0.5263 0.0
C200 C 0.19496 0.36786 0.56189 0.0
C201 C 0.21905 0.36345 0.58613 0.0
C202 C 0.09958 0.34247 0.48757 0.0
C203 C 0.10822 0.35003 0.45176 0.0
C204 C 0.12778 0.34659 0.5117 0.0
C205 C 0.16571 0.35842 0.50093 0.0
C206 C 0.17482 0.36758 0.46525 0.0
C207 C 0.14646 0.36346 0.441 0.0
H208 H 0.78504 0.15324 0.74665 0.0
H209 H 0.73975 0.06864 0.82936 0.0
H210 H 0.82654 0.20264 0.78909 0.0
H211 H 0.78146 0.11715 0.87125 0.0
H212 H 0.93155 0.26143 0.86416 0.0
H213 H 0.88321 0.21958 0.82215 0.0
H214 H 0.79773 0.17362 0.90418 0.0
H215 H 0.84692 0.21522 0.94671 0.0
C216 C 0.7836 0.14524 0.77387 0.0
C217 C 0.75911 0.10684 0.7844 0.0
C218 C 0.80763 0.1735 0.79827 0.0
C219 C 0.80776 0.1641 0.83387 0.0
C220 C 0.78208 0.12594 0.84439 0.0
C221 C 0.75822 0.09787 0.82012 0.0
C222 C 0.90235 0.24275 0.87333 0.0
C223 C 0.89332 0.24162 0.90904 0.0
C224 C 0.87438 0.2188 0.849 0.0
C225 C 0.8363 0.1928 0.85947 0.0
C226 C 0.82683 0.19274 0.89504 0.0
C227 C 0.85497 0.21685 0.9195 0.0
H228 H 0.67136 0.73916 0.16032 0.0
H229 H 0.63333 0.78642 0.0782 0.0
H230 H 0.66523 0.78092 0.20266 0.0
H231 H 0.62621 0.82799 0.12103 0.0
H232 H 0.63306 0.84679 0.27858 0.0
H233 H 0.62536 0.7978 0.23579 0.0
H234 H 0.66695 0.88422 0.15444 0.0
H235 H 0.67369 0.9324 0.1967 0.0
C236 C 0.66101 0.75806 0.15131 0.0
C237 C 0.65307 0.75946 0.11563 0.0
C238 C 0.65721 0.78196 0.17583 0.0
C239 C 0.64538 0.80825 0.16557 0.0
C240 C 0.63597 0.80862 0.13001 0.0
C241 C 0.63972 0.78452 0.10539 0.0
C242 C 0.63995 0.85511 0.25146 0.0
C243 C 0.65415 0.89367 0.24127 0.0
C244 C 0.63584 0.82708 0.22687 0.0
C245 C 0.6457 0.83683 0.19139 0.0
C246 C 0.65853 0.87517 0.1812 0.0
C247 C 0.66269 0.90304 0.20568 0.0
H248 H 0.93265 0.66961 0.4936 0.0
H249 H 0.848 0.63094 0.41089 0.0
H250 H 0.88428 0.66313 0.53548 0.0
H251 H 0.79879 0.62328 0.45327 0.0
H252 H 0.74049 0.6703 0.52728 0.0
H253 H 0.7823 0.66333 0.48576 0.0
H254 H 0.82773 0.62402 0.56862 0.0
H255 H 0.78616 0.63216 0.61071 0.0
C256 C 0.90344 0.65899 0.48437 0.0
C257 C 0.89442 0.65107 0.44865 0.0
C258 C 0.87544 0.65499 0.50863 0.0
C259 C 0.83735 0.64288 0.49806 0.0
C260 C 0.82789 0.63333 0.46249 0.0
C261 C 0.85604 0.63737 0.43812 0.0
C262 C 0.75906 0.65975 0.53676 0.0
C263 C 0.76001 0.65205 0.57256 0.0
C264 C 0.78299 0.65543 0.51269 0.0
C265 C 0.8088 0.64321 0.52351 0.0
C266 C 0.80874 0.63407 0.55921 0.0
C267 C 0.78465 0.63841 0.58341 0.0
H268 H 0.26156 0.93024 0.82841 0.0
H269 H 0.21691 0.84649 0.745 0.0
H270 H 0.21966 0.88129 0.86982 0.0
H271 H 0.17524 0.79662 0.78699 0.0
H272 H 0.15303 0.7831 0.94445 0.0
H273 H 0.20287 0.82453 0.90242 0.0
H274 H 0.11828 0.77958 0.81944 0.0
H275 H 0.0693 0.73785 0.86095 0.0
C276 C 0.24322 0.9011 0.81892 0.0
C277 C 0.24251 0.8925 0.78315 0.0
C278 C 0.21925 0.87277 0.84292 0.0
C279 C 0.19365 0.83473 0.83205 0.0
C280 C 0.19406 0.82567 0.79642 0.0
C281 C 0.2182 0.85419 0.77228 0.0
C282 C 0.14532 0.78162 0.91713 0.0
C283 C 0.10702 0.75723 0.90625 0.0
C284 C 0.17384 0.80563 0.89297 0.0
C285 C 0.16479 0.80586 0.85729 0.0
C286 C 0.12678 0.78014 0.84639 0.0
C287 C 0.09844 0.75627 0.87043 0.0
H288 H 0.38666 0.9365 0.26379 0.0
H289 H 0.44292 0.05415 0.30123 0.0
H290 H 0.44895 0.94033 0.25774 0.0
H291 H 0.5055 0.05776 0.29574 0.0
H292 H 0.6153 0.06225 0.2624 0.0
H293 H 0.55288 0.05819 0.25648 0.0
H294 H 0.49707 0.94168 0.29676 0.0
H295 H 0.55978 0.94551 0.30212 0.0
C296 C 0.41239 0.96338 0.27048 0.0
C297 C 0.40971 0.99496 0.28333 0.0
C298 C 0.44814 0.96543 0.2672 0.0
C299 C 0.48226 0.99909 0.27671 0.0
C300 C 0.47982 0.0314 0.28793 0.0
C301 C 0.44393 0.02939 0.29111 0.0
C302 C 0.58969 0.0355 0.2696 0.0
C303 C 0.59263 0.00427 0.28306 0.0
C304 C 0.55388 0.03333 0.2664 0.0
C305 C 0.51994 0.99989 0.27662 0.0
C306 C 0.5226 0.96786 0.28841 0.0
C307 C 0.55856 0.96999 0.2915 0.0
H308 H 0.61442 0.55902 0.63608 0.0
H309 H 0.55222 0.61252 0.59396 0.0
H310 H 0.55581 0.4959 0.63198 0.0
H311 H 0.49417 0.54969 0.58924 0.0
H312 H 0.38854 0.44036 0.63444 0.0
H313 H 0.44739 0.50303 0.62889 0.0
H314 H 0.5094 0.44658 0.59378 0.0
H315 H 0.45108 0.38421 0.59992 0.0
C316 C 0.58855 0.55725 0.62523 0.0
C317 C 0.58798 0.59088 0.61571 0.0
C318 C 0.55488 0.52106 0.62286 0.0
C319 C 0.52002 0.51774 0.61071 0.0
C320 C 0.52015 0.55122 0.59948 0.0
C321 C 0.55362 0.58726 0.60199 0.0
C322 C 0.41456 0.44139 0.625 0.0
C323 C 0.41507 0.40719 0.61798 0.0
C324 C 0.44836 0.47733 0.62177 0.0
C325 C 0.48335 0.47986 0.61125 0.0
C326 C 0.48328 0.44572 0.60267 0.0
C327 C 0.44965 0.40992 0.606 0.0
H328 H 0.93447 0.54981 0.93357 0.0
H329 H 0.05274 0.61301 0.96939 0.0
H330 H 0.93869 0.49146 0.92884 0.0
H331 H 0.0567 0.55415 0.96539 0.0
H332 H 0.06204 0.44891 0.93331 0.0
H333 H 0.05739 0.50692 0.9273 0.0
H334 H 0.94098 0.44549 0.96767 0.0
H335 H 0.94537 0.3869 0.97293 0.0
C336 C 0.96153 0.55135 0.94026 0.0
C337 C 0.99323 0.58614 0.95215 0.0
C338 C 0.96381 0.51772 0.93775 0.0
C339 C 0.99781 0.51783 0.94715 0.0
C340 C 0.0301 0.553 0.95763 0.0
C341 C 0.02788 0.58682 0.95998 0.0
C342 C 0.03522 0.44756 0.94056 0.0
C343 C 0.00414 0.41326 0.95391 0.0
C344 C 0.0327 0.481 0.93732 0.0
C345 C 0.99907 0.48118 0.94747 0.0
C346 C 0.96728 0.44639 0.95934 0.0
C347 C 0.96974 0.41274 0.9624 0.0
H348 H 0.95637 0.5692 0.42502 0.0
H349 H 0.05923 0.6068 0.36304 0.0
H350 H 0.95249 0.50665 0.43388 0.0
H351 H 0.05458 0.54462 0.3704 0.0
H352 H 0.05623 0.43926 0.40469 0.0
H353 H 0.06196 0.5029 0.4083 0.0
H354 H 0.93763 0.44971 0.40432 0.0
H355 H 0.9319 0.38676 0.40251 0.0
C356 C 0.97791 0.56401 0.41311 0.0
C357 C 0.00815 0.59302 0.39351 0.0
C358 C 0.97576 0.52819 0.41812 0.0
C359 C 0.00347 0.52047 0.40312 0.0
C360 C 0.03336 0.54959 0.38327 0.0
C361 C 0.0358 0.58531 0.37874 0.0
C362 C 0.03016 0.44118 0.40518 0.0
C363 C 0.9937 0.40775 0.40285 0.0
C364 C 0.03339 0.47772 0.40695 0.0
C365 C 1.00023 0.48169 0.40608 0.0
C366 C 0.96384 0.44809 0.40541 0.0
C367 C 0.96062 0.41173 0.40401 0.0
H368 H 0.55175 0.93847 0.76358 0.0
H369 H 0.61337 0.05454 0.72234 0.0
H370 H 0.49366 0.94307 0.7691 0.0
H371 H 0.55475 0.05888 0.72723 0.0
H372 H 0.45014 0.06532 0.76 0.0
H373 H 0.5085 0.06128 0.76596 0.0
H374 H 0.44663 0.94318 0.72973 0.0
H375 H 0.38776 0.94698 0.72436 0.0
C376 C 0.55302 0.96517 0.75594 0.0
C377 C 0.58721 0.99606 0.74219 0.0
C378 C 0.51954 0.96765 0.7589 0.0
C379 C 0.51925 0.00106 0.74813 0.0
C380 C 0.55396 0.03274 0.73601 0.0
C381 C 0.58763 0.03032 0.73318 0.0
C382 C 0.44876 0.03826 0.75365 0.0
C383 C 0.41422 0.00652 0.74137 0.0
C384 C 0.4824 0.03609 0.75688 0.0
C385 C 0.48252 0.00214 0.7479 0.0
C386 C 0.44756 0.96975 0.73715 0.0
C387 C 0.41375 0.97188 0.73402 0.0
H388 H 0.44099 0.38453 0.07051 0.0
H389 H 0.38776 0.45539 0.07862 0.0
H390 H 0.50452 0.44246 0.07445 0.0
H391 H 0.45061 0.51283 0.08063 0.0
H392 H 0.57147 0.61347 0.0984 0.0
H393 H 0.50934 0.55437 0.10798 0.0
H394 H 0.54362 0.49295 0.03688 0.0
H395 H 0.6054 0.55078 0.02887 0.0
C396 C 0.44274 0.4123 0.07342 0.0
C397 C 0.40912 0.41512 0.07365 0.0
C398 C 0.47921 0.44566 0.07533 0.0
C399 C 0.48293 0.48265 0.07714 0.0
C400 C 0.44921 0.48511 0.07946 0.0
C401 C 0.41291 0.45188 0.07795 0.0
C402 C 0.5655 0.58721 0.08498 0.0
C403 C 0.59337 0.58671 0.06312 0.0
C404 C 0.52995 0.5533 0.0904 0.0
C405 C 0.52141 0.51847 0.07356 0.0
C406 C 0.54932 0.51857 0.05128 0.0
C407 C 0.58476 0.55202 0.04636 0.0
H408 H 0.09331 0.78103 0.40664 0.0
H409 H 0.01368 0.80495 0.35065 0.0
H410 H 0.14707 0.84197 0.38667 0.0
H411 H 0.06833 0.86677 0.33058 0.0
H412 H 0.19806 0.98929 0.33944 0.0
H413 H 0.13602 0.93607 0.3608 0.0
H414 H 0.16298 0.85366 0.31543 0.0
H415 H 0.22405 0.90594 0.29408 0.0
C416 C 0.08723 0.7997 0.3906 0.0
C417 C 0.04944 0.78808 0.37975 0.0
C418 C 0.11799 0.83455 0.37926 0.0
C419 C 0.11164 0.85858 0.35689 0.0
C420 C 0.07369 0.84855 0.34794 0.0
C421 C 0.0426 0.81334 0.35937 0.0
C422 C 0.19026 0.95979 0.33353 0.0
C423 C 0.21605 0.95167 0.31556 0.0
C424 C 0.15489 0.92953 0.34565 0.0
C425 C 0.14527 0.89106 0.33996 0.0
C426 C 0.1701 0.88319 0.32036 0.0
C427 C 0.20505 0.91313 0.30822 0.0
H428 H 0.31531 0.22053 0.62301 0.0
H429 H 0.20912 0.19661 0.67377 0.0
H430 H 0.3069 0.15942 0.64403 0.0
H431 H 0.20071 0.13459 0.69481 0.0
H432 H 0.31389 0.09315 0.73766 0.0
H433 H 0.30592 0.14615 0.71675 0.0
H434 H 0.20111 0.06557 0.66337 0.0
H435 H 0.20908 0.01166 0.68433 0.0
C436 C 0.28982 0.20191 0.6382 0.0
C437 C 0.26315 0.21353 0.64722 0.0
C438 C 0.28502 0.16695 0.65011 0.0
C439 C 0.2534 0.14278 0.67118 0.0
C440 C 0.22524 0.15294 0.67847 0.0
C441 C 0.23011 0.18828 0.66652 0.0
C442 C 0.28877 0.0865 0.72194 0.0
C443 C 0.2624 0.04837 0.71216 0.0
C444 C 0.28422 0.11683 0.71009 0.0
C445 C 0.25315 0.10971 0.68832 0.0
C446 C 0.22521 0.0715 0.68028 0.0
C447 C 0.22982 0.04086 0.69218 0.0
H448 H 0.22276 0.31609 0.06945 0.0
H449 H 0.19777 0.20984 0.01808 0.0
H450 H 0.16212 0.30865 0.04833 0.0
H451 H 0.13614 0.20237 0.99691 0.0
H452 H 0.01359 0.20877 1.00537 0.0
H453 H 0.06787 0.20124 0.02594 0.0
H454 H 0.14804 0.31006 0.97817 0.0
H455 H 0.09467 0.3176 0.95764 0.0
C456 C 0.20401 0.2908 0.05405 0.0
C457 C 0.21521 0.26383 0.04494 0.0
C458 C 0.16932 0.28657 0.04203 0.0
C459 C 0.14495 0.25523 0.02074 0.0
C460 C 0.15466 0.22674 0.01336 0.0
C461 C 0.18977 0.23106 0.0254 0.0
C462 C 0.04282 0.23057 0.99869 0.0
C463 C 0.05003 0.26404 0.98038 0.0
C464 C 0.07369 0.22621 1.01038 0.0
C465 C 0.11186 0.25533 1.00387 0.0
C466 C 0.11877 0.28746 0.98375 0.0
C467 C 0.08821 0.29174 0.97208 0.0
H468 H 0.98857 0.19671 0.35324 0.0
H469 H 0.90846 0.22019 0.40865 0.0
H470 H 0.9341 0.13504 0.33263 0.0
H471 H 0.85488 0.15941 0.38814 0.0
H472 H 0.77788 0.09501 0.29577 0.0
H473 H 0.83855 0.14756 0.31755 0.0
H474 H 0.86715 0.06571 0.3617 0.0
H475 H 0.80548 0.01218 0.33994 0.0
C476 C 0.95957 0.18829 0.36167 0.0
C477 C 0.95258 0.21337 0.38209 0.0
C478 C 0.92858 0.15315 0.34995 0.0
C479 C 0.89055 0.14303 0.35859 0.0
C480 C 0.88402 0.16691 0.38092 0.0
C481 C 0.91468 0.20167 0.39258 0.0
C482 C 0.79714 0.08799 0.30976 0.0
C483 C 0.78671 0.0495 0.31661 0.0
C484 C 0.83187 0.1181 0.32216 0.0
C485 C 0.85706 0.11046 0.34153 0.0
C486 C 0.848 0.07208 0.34675 0.0
C487 C 0.81284 0.04164 0.33439 0.0
H488 H 0.79153 0.80499 0.66855 0.0
H489 H 0.68268 0.77723 0.62069 0.0
H490 H 0.79815 0.86591 0.69045 0.0
H491 H 0.68928 0.83724 0.64259 0.0
H492 H 0.68201 0.90491 0.73366 0.0
H493 H 0.68903 0.85189 0.71144 0.0
H494 H 0.79796 0.93286 0.66436 0.0
H495 H 0.79091 0.98679 0.68659 0.0
C496 C 0.76951 0.81223 0.66215 0.0
C497 C 0.73632 0.7862 0.64338 0.0
C498 C 0.77334 0.84695 0.67462 0.0
C499 C 0.74392 0.85569 0.66852 0.0
C500 C 0.71206 0.83076 0.64797 0.0
C501 C 0.70834 0.79645 0.63547 0.0
C502 C 0.70775 0.91161 0.71896 0.0
C503 C 0.73565 0.94996 0.71139 0.0
C504 C 0.71172 0.88124 0.70627 0.0
C505 C 0.74373 0.88849 0.68588 0.0
C506 C 0.77303 0.92676 0.68006 0.0
C507 C 0.76895 0.95744 0.69271 0.0
H508 H 0.78108 0.68808 0.06697 0.0
H509 H 0.80463 0.79378 0.01524 0.0
H510 H 0.84152 0.69572 0.04515 0.0
H511 H 0.86605 0.80145 0.99338 0.0
H512 H 0.9887 0.79298 1.00219 0.0
H513 H 0.93527 0.80154 0.02322 0.0
H514 H 0.85355 0.69493 0.97306 0.0
H515 H 0.90612 0.68635 0.95208 0.0
C516 C 0.79951 0.71333 0.0514 0.0
C517 C 0.78794 0.74005 0.04235 0.0
C518 C 0.83408 0.71767 0.03899 0.0
C519 C 0.85793 0.74888 0.01738 0.0
C520 C 0.84792 0.77719 1.0101 0.0
C521 C 0.81294 0.77277 0.02255 0.0
C522 C 0.95935 0.77195 0.99503 0.0
C523 C 0.95143 0.73871 0.97596 0.0
C524 C 0.92896 0.7769 1.00697 0.0
C525 C 0.89059 0.74865 0.99992 0.0
C526 C 0.883 0.71689 0.97898 0.0
C527 C 0.91309 0.71199 0.96707 0.0
H528 H 0.31463 0.04994 0.41902 0.0
H529 H 0.30831 0.93945 0.42965 0.0
H530 H 0.31379 0.05491 0.48277 0.0
H531 H 0.30886 0.94487 0.49265 0.0
H532 H 0.2768 0.94707 0.60627 0.0
H533 H 0.27334 0.94177 0.54248 0.0
H534 H 0.34961 0.06501 0.53392 0.0
H535 H 0.35191 0.07042 0.59675 0.0
C536 C 0.31358 0.02699 0.43488 0.0
C537 C 0.31143 0.99431 0.41899 0.0
C538 C 0.31311 0.02974 0.47156 0.0
C539 C 0.31094 1.00009 0.49333 0.0
C540 C 0.30953 0.96787 0.47719 0.0
C541 C 0.3096 0.96497 0.44077 0.0
C542 C 0.29268 0.97299 0.59074 0.0
C543 C 0.3146 0.00908 0.60707 0.0
C544 C 0.29092 0.97002 0.55402 0.0
C545 C 0.31124 0.00302 0.53257 0.0
C546 C 0.33293 0.03897 0.54909 0.0
C547 C 0.33448 0.04196 0.58553 0.0
H548 H 0.30295 0.36555 0.9295 0.0
H549 H 0.31666 0.26559 0.9403 0.0
H550 H 0.30431 0.3611 0.86656 0.0
H551 H 0.31668 0.26017 0.87654 0.0
H552 H 0.35548 0.2851 0.76287 0.0
H553 H 0.35242 0.28775 0.8257 0.0
H554 H 0.27047 0.32776 0.81637 0.0
H555 H 0.27463 0.32637 0.75261 0.0
C556 C 0.306 0.34229 0.91845 0.0
C557 C 0.30966 0.31585 0.9403 0.0
C558 C 0.30642 0.33955 0.88204 0.0
C559 C 0.3102 0.31007 0.86592 0.0
C560 C 0.31414 0.28365 0.88774 0.0
C561 C 0.31409 0.28663 0.92443 0.0
C562 C 0.33664 0.29449 0.77394 0.0
C563 C 0.31532 0.30563 0.7522 0.0
C564 C 0.33467 0.29566 0.81037 0.0
C565 C 0.31111 0.3078 0.82667 0.0
C566 C 0.28947 0.31874 0.80501 0.0
C567 C 0.29165 0.31781 0.7683 0.0
H568 H 0.93594 0.25254 0.26508 0.0
H569 H 0.05287 0.34769 0.2733 0.0
H570 H 0.94098 0.25455 0.20196 0.0
H571 H 0.05771 0.35029 0.20944 0.0
H572 H 0.06651 0.32225 0.09573 0.0
H573 H 0.06159 0.31815 0.15881 0.0
H574 H 0.94264 0.29048 0.15189 0.0
H575 H 0.94739 0.2938 0.08802 0.0
C576 C 0.96287 0.27408 0.25345 0.0
C577 C 0.994 0.30013 0.2746 0.0
C578 C 0.9656 0.27538 0.21697 0.0
C579 C 0.99954 0.30283 0.20016 0.0
C580 C 0.0311 0.32845 0.22127 0.0
C581 C 0.02841 0.32704 0.258 0.0
C582 C 0.03912 0.3152 0.10747 0.0
C583 C 0.00733 0.30854 0.08645 0.0
C584 C 0.03645 0.31314 0.14393 0.0
C585 C 0.0019 0.30441 0.1609 0.0
C586 C 0.96974 0.29697 0.13993 0.0
C587 C 0.97239 0.2989 0.10319 0.0
H588 H 0.6871 0.95002 0.41978 0.0
H589 H 0.69425 0.06094 0.42966 0.0
H590 H 0.68744 0.94515 0.48359 0.0
H591 H 0.69329 0.05565 0.49267 0.0
H592 H 0.72424 0.05332 0.60675 0.0
H593 H 0.72835 0.05851 0.54295 0.0
H594 H 0.65113 0.93545 0.53437 0.0
H595 H 0.64813 0.93014 0.5972 0.0
C596 C 0.68826 0.9731 0.43546 0.0
C597 C 0.69077 0.00586 0.41933 0.0
C598 C 0.68844 0.9704 0.47218 0.0
C599 C 0.69071 1.0002 0.49376 0.0
C600 C 0.69252 0.03252 0.47738 0.0
C601 C 0.6927 0.03535 0.44094 0.0
C602 C 0.70829 0.02742 0.59122 0.0
C603 C 0.68587 0.99141 0.60755 0.0
C604 C 0.71043 0.03032 0.55449 0.0
C605 C 0.69004 0.99733 0.53303 0.0
C606 C 0.66787 0.96146 0.54955 0.0
C607 C 0.66592 0.95855 0.58599 0.0
H608 H 0.69465 0.7437 0.93626 0.0
H609 H 0.69161 0.63473 0.92656 0.0
H610 H 0.69511 0.74888 0.87238 0.0
H611 H 0.6906 0.63896 0.86352 0.0
H612 H 0.72274 0.66946 0.74974 0.0
H613 H 0.72698 0.66891 0.81353 0.0
H614 H 0.65879 0.72497 0.82121 0.0
H615 H 0.65585 0.72682 0.75833 0.0
C616 C 0.69349 0.72063 0.92057 0.0
C617 C 0.69327 0.68895 0.9367 0.0
C618 C 0.69377 0.72349 0.88383 0.0
C619 C 0.69333 0.69449 0.8623 0.0
C620 C 0.69211 0.66247 0.87875 0.0
C621 C 0.69228 0.65987 0.91518 0.0
C622 C 0.70888 0.68184 0.76506 0.0
C623 C 0.68884 0.69797 0.74847 0.0
C624 C 0.71104 0.68135 0.8018 0.0
C625 C 0.69306 0.69678 0.82302 0.0
C626 C 0.67356 0.71332 0.80623 0.0
C627 C 0.6716 0.71401 0.76976 0.0
H628 H 0.948 0.6535 0.26959 0.0
H629 H 0.06277 0.75223 0.26074 0.0
H630 H 0.94258 0.6505 0.20574 0.0
H631 H 0.05716 0.74971 0.19762 0.0
H632 H 0.05202 0.70948 0.08423 0.0
H633 H 0.05696 0.71349 0.14807 0.0
H634 H 0.93683 0.68165 0.15483 0.0
H635 H 0.93174 0.67694 0.09178 0.0
C636 C 0.97181 0.67487 0.25416 0.0
C637 C 0.00585 0.70288 0.27055 0.0
C638 C 0.9688 0.67321 0.21744 0.0
C639 C 0.99968 0.69962 0.19618 0.0
C640 C 0.03314 0.72826 0.21279 0.0
C641 C 0.03617 0.72984 0.24924 0.0
C642 C 0.02678 0.70356 0.09935 0.0
C643 C 0.99149 0.69265 0.08256 0.0
C644 C 0.02954 0.70591 0.13606 0.0
C645 C 0.99714 0.69757 0.15696 0.0
C646 C 0.96219 0.68744 0.13998 0.0
C647 C 0.95942 0.68502 0.10352 0.0
loop_
_geom_bond_atom_site_label_1
_geom_bond_atom_site_label_2
_geom_bond_distance
_geom_bond_site_symmetry_2
_ccdc_geom_bond_type
Co0 O1 2.216 . S
Co0 O2 2.091 . S
Co0 O4 2.004 . S
Co0 O10 2.021 . S
Co0 O12 2.137 1_545 S
Co0 O13 2.244 1_545 S
O1 Co0 2.216 . S
O1 C8 1.247 . S
O2 Co0 2.091 . S
O2 C8 1.261 . S
C3 O12 1.247 . S
C3 O13 1.272 . S
O4 Co0 2.004 . S
O4 C9 1.259 . S
Co5 O6 2.061 . S
Co5 O11 2.052 . S
Co5 O13 2.135 . S
O6 Co5 2.061 . S
O6 C9 1.235 1_565 S
C7 O10 1.238 . S
C7 O11 1.241 1_545 S
C8 O1 1.247 . S
C8 O2 1.261 . S
C9 O4 1.259 . S
C9 O6 1.235 1_545 S
O10 Co0 2.021 . S
O10 C7 1.238 . S
O11 Co5 2.052 . S
O11 C7 1.241 1_565 S
O12 Co0 2.137 1_565 S
O12 C3 1.247 . S
O13 Co0 2.244 1_565 S
O13 C3 1.272 . S
O13 Co5 2.135 . S
Co14 O15 2.216 . S
Co14 O16 2.091 . S
Co14 O18 2.004 . S
Co14 O24 2.021 . S
Co14 O26 2.137 . S
Co14 O27 2.244 . S
O15 Co14 2.216 . S
O15 C22 1.247 . S
O16 Co14 2.091 . S
O16 C22 1.261 . S
C17 O26 1.247 . S
C17 O27 1.272 . S
O18 Co14 2.004 . S
O18 C23 1.259 . S
Co19 O20 2.061 . S
Co19 O25 2.052 . S
Co19 O27 2.135 . S
O20 Co19 2.061 . S
O20 C23 1.235 . S
C21 O24 1.238 . S
C21 O25 1.241 . S
C22 O15 1.247 . S
C22 O16 1.261 . S
C23 O18 1.259 . S
C23 O20 1.235 . S
O24 Co14 2.021 . S
O24 C21 1.238 . S
O25 Co19 2.052 . S
O25 C21 1.241 . S
O26 Co14 2.137 . S
O26 C17 1.247 . S
O27 Co14 2.244 . S
O27 C17 1.272 . S
O27 Co19 2.135 . S
Co28 O29 2.216 . S
Co28 O30 2.091 . S
Co28 O32 2.004 1_556 S
Co28 O38 2.021 . S
Co28 O40 2.137 1_655 S
Co28 O41 2.244 1_655 S
O29 Co28 2.216 . S
O29 C36 1.247 . S
O30 Co28 2.091 . S
O30 C36 1.261 . S
C31 O40 1.247 . S
C31 O41 1.272 . S
O32 Co28 2.004 1_554 S
O32 C37 1.259 . S
Co33 O34 2.061 . S
Co33 O39 2.052 1_554 S
Co33 O41 2.135 1_554 S
O34 Co33 2.061 . S
O34 C37 1.235 1_455 S
C35 O38 1.238 . S
C35 O39 1.241 1_655 S
C36 O29 1.247 . S
C36 O30 1.261 . S
C37 O32 1.259 . S
C37 O34 1.235 1_655 S
O38 Co28 2.021 . S
O38 C35 1.238 . S
O39 Co33 2.052 1_556 S
O39 C35 1.241 1_455 S
O40 Co28 2.137 1_455 S
O40 C31 1.247 . S
O41 Co28 2.244 1_455 S
O41 C31 1.272 . S
O41 Co33 2.135 1_556 S
Co42 O43 2.216 . S
Co42 O44 2.091 . S
Co42 O46 2.004 . S
Co42 O52 2.021 . S
Co42 O54 2.137 1_565 S
Co42 O55 2.244 1_565 S
O43 Co42 2.216 . S
O43 C50 1.247 . S
O44 Co42 2.091 . S
O44 C50 1.261 . S
C45 O54 1.247 . S
C45 O55 1.272 . S
O46 Co42 2.004 . S
O46 C51 1.259 . S
Co47 O48 2.061 . S
Co47 O53 2.052 . S
Co47 O55 2.135 . S
O48 Co47 2.061 . S
O48 C51 1.235 1_545 S
C49 O52 1.238 . S
C49 O53 1.241 1_565 S
C50 O43 1.247 . S
C50 O44 1.261 . S
C51 O46 1.259 . S
C51 O48 1.235 1_565 S
O52 Co42 2.021 . S
O52 C49 1.238 . S
O53 Co47 2.052 . S
O53 C49 1.241 1_545 S
O54 Co42 2.137 1_545 S
O54 C45 1.247 . S
O55 Co42 2.244 1_545 S
O55 C45 1.272 . S
O55 Co47 2.135 . S
Co56 O57 2.216 . S
Co56 O58 2.091 . S
Co56 O60 2.004 . S
Co56 O66 2.021 . S
Co56 O68 2.137 . S
Co56 O69 2.244 . S
O57 Co56 2.216 . S
O57 C64 1.247 . S
O58 Co56 2.091 . S
O58 C64 1.261 . S
C59 O68 1.247 . S
C59 O69 1.272 . S
O60 Co56 2.004 . S
O60 C65 1.259 . S
Co61 O62 2.061 . S
Co61 O67 2.052 . S
Co61 O69 2.135 . S
O62 Co61 2.061 . S
O62 C65 1.235 . S
C63 O66 1.238 . S
C63 O67 1.241 . S
C64 O57 1.247 . S
C64 O58 1.261 . S
C65 O60 1.259 . S
C65 O62 1.235 . S
O66 Co56 2.021 . S
O66 C63 1.238 . S
O67 Co61 2.052 . S
O67 C63 1.241 . S
O68 Co56 2.137 . S
O68 C59 1.247 . S
O69 Co56 2.244 . S
O69 C59 1.272 . S
O69 Co61 2.135 . S
Co70 O71 2.216 . S
Co70 O72 2.091 . S
Co70 O74 2.004 1_556 S
Co70 O80 2.021 . S
Co70 O82 2.137 1_455 S
Co70 O83 2.244 1_455 S
O71 Co70 2.216 . S
O71 C78 1.247 . S
O72 Co70 2.091 . S
O72 C78 1.261 . S
C73 O82 1.247 . S
C73 O83 1.272 . S
O74 Co70 2.004 1_554 S
O74 C79 1.259 . S
Co75 O76 2.061 . S
Co75 O81 2.052 1_554 S
Co75 O83 2.135 1_554 S
O76 Co75 2.061 . S
O76 C79 1.235 1_655 S
C77 O80 1.238 . S
C77 O81 1.241 1_455 S
C78 O71 1.247 . S
C78 O72 1.261 . S
C79 O74 1.259 . S
C79 O76 1.235 1_455 S
O80 Co70 2.021 . S
O80 C77 1.238 . S
O81 Co75 2.052 1_556 S
O81 C77 1.241 1_655 S
O82 Co70 2.137 1_655 S
O82 C73 1.247 . S
O83 Co70 2.244 1_655 S
O83 C73 1.272 . S
O83 Co75 2.135 1_556 S
Co84 O85 2.216 . S
Co84 O86 2.091 . S
Co84 O88 2.004 . S
Co84 O94 2.021 . S
Co84 O96 2.137 1_655 S
Co84 O97 2.244 1_655 S
O85 Co84 2.216 . S
O85 C92 1.247 . S
O86 Co84 2.091 . S
O86 C92 1.261 . S
C87 O96 1.247 . S
C87 O97 1.272 . S
O88 Co84 2.004 . S
O88 C93 1.259 . S
Co89 O90 2.061 . S
Co89 O95 2.052 . S
Co89 O97 2.135 . S
O90 Co89 2.061 . S
O90 C93 1.235 1_455 S
C91 O94 1.238 . S
C91 O95 1.241 1_655 S
C92 O85 1.247 . S
C92 O86 1.261 . S
C93 O88 1.259 . S
C93 O90 1.235 1_655 S
O94 Co84 2.021 . S
O94 C91 1.238 . S
O95 Co89 2.052 . S
O95 C91 1.241 1_455 S
O96 Co84 2.137 1_455 S
O96 C87 1.247 . S
O97 Co84 2.244 1_455 S
O97 C87 1.272 . S
O97 Co89 2.135 . S
Co98 O99 2.216 . S
Co98 O100 2.091 . S
Co98 O102 2.004 . S
Co98 O108 2.021 . S
Co98 O110 2.137 1_565 S
Co98 O111 2.244 1_565 S
O99 Co98 2.216 . S
O99 C106 1.247 . S
O100 Co98 2.091 . S
O100 C106 1.261 . S
C101 O110 1.247 . S
C101 O111 1.272 . S
O102 Co98 2.004 . S
O102 C107 1.259 . S
Co103 O104 2.061 . S
Co103 O109 2.052 . S
Co103 O111 2.135 . S
O104 Co103 2.061 . S
O104 C107 1.235 1_545 S
C105 O108 1.238 . S
C105 O109 1.241 1_565 S
C106 O99 1.247 . S
C106 O100 1.261 . S
C107 O102 1.259 . S
C107 O104 1.235 1_565 S
O108 Co98 2.021 . S
O108 C105 1.238 . S
O109 Co103 2.052 . S
O109 C105 1.241 1_545 S
O110 Co98 2.137 1_545 S
O110 C101 1.247 . S
O111 Co98 2.244 1_545 S
O111 C101 1.272 . S
O111 Co103 2.135 . S
Co112 O113 2.216 . S
Co112 O114 2.091 . S
Co112 O116 2.004 1_554 S
Co112 O122 2.021 . S
Co112 O124 2.137 . S
Co112 O125 2.244 . S
O113 Co112 2.216 . S
O113 C120 1.247 . S
O114 Co112 2.091 . S
O114 C120 1.261 . S
C115 O124 1.247 . S
C115 O125 1.272 . S
O116 Co112 2.004 1_556 S
O116 C121 1.259 . S
Co117 O118 2.061 . S
Co117 O123 2.052 1_556 S
Co117 O125 2.135 1_556 S
O118 Co117 2.061 . S
O118 C121 1.235 . S
C119 O122 1.238 . S
C119 O123 1.241 . S
C120 O113 1.247 . S
C120 O114 1.261 . S
C121 O116 1.259 . S
C121 O118 1.235 . S
O122 Co112 2.021 . S
O122 C119 1.238 . S
O123 Co117 2.052 1_554 S
O123 C119 1.241 . S
O124 Co112 2.137 . S
O124 C115 1.247 . S
O125 Co112 2.244 . S
O125 C115 1.272 . S
O125 Co117 2.135 1_554 S
Co126 O127 2.216 . S
Co126 O128 2.091 . S
Co126 O130 2.004 . S
Co126 O136 2.021 . S
Co126 O138 2.137 1_455 S
Co126 O139 2.244 1_455 S
O127 Co126 2.216 . S
O127 C134 1.247 . S
O128 Co126 2.091 . S
O128 C134 1.261 . S
C129 O138 1.247 . S
C129 O139 1.272 . S
O130 Co126 2.004 . S
O130 C135 1.259 . S
Co131 O132 2.061 . S
Co131 O137 2.052 . S
Co131 O139 2.135 . S
O132 Co131 2.061 . S
O132 C135 1.235 1_655 S
C133 O136 1.238 . S
C133 O137 1.241 1_455 S
C134 O127 1.247 . S
C134 O128 1.261 . S
C135 O130 1.259 . S
C135 O132 1.235 1_455 S
O136 Co126 2.021 . S
O136 C133 1.238 . S
O137 Co131 2.052 . S
O137 C133 1.241 1_655 S
O138 Co126 2.137 1_655 S
O138 C129 1.247 . S
O139 Co126 2.244 1_655 S
O139 C129 1.272 . S
O139 Co131 2.135 . S
Co140 O141 2.216 . S
Co140 O142 2.091 . S
Co140 O144 2.004 . S
Co140 O150 2.021 . S
Co140 O152 2.137 1_545 S
Co140 O153 2.244 1_545 S
O141 Co140 2.216 . S
O141 C148 1.247 . S
O142 Co140 2.091 . S
O142 C148 1.261 . S
C143 O152 1.247 . S
C143 O153 1.272 . S
O144 Co140 2.004 . S
O144 C149 1.259 . S
Co145 O146 2.061 . S
Co145 O151 2.052 . S
Co145 O153 2.135 . S
O146 Co145 2.061 . S
O146 C149 1.235 1_565 S
C147 O150 1.238 . S
C147 O151 1.241 1_545 S
C148 O141 1.247 . S
C148 O142 1.261 . S
C149 O144 1.259 . S
C149 O146 1.235 1_545 S
O150 Co140 2.021 . S
O150 C147 1.238 . S
O151 Co145 2.052 . S
O151 C147 1.241 1_565 S
O152 Co140 2.137 1_565 S
O152 C143 1.247 . S
O153 Co140 2.244 1_565 S
O153 C143 1.272 . S
O153 Co145 2.135 . S
Co154 O155 2.216 . S
Co154 O156 2.091 . S
Co154 O158 2.004 1_554 S
Co154 O164 2.021 . S
Co154 O166 2.137 . S
Co154 O167 2.244 . S
O155 Co154 2.216 . S
O155 C162 1.247 . S
O156 Co154 2.091 . S
O156 C162 1.261 . S
C157 O166 1.247 . S
C157 O167 1.272 . S
O158 Co154 2.004 1_556 S
O158 C163 1.259 . S
Co159 O160 2.061 . S
Co159 O165 2.052 1_556 S
Co159 O167 2.135 1_556 S
O160 Co159 2.061 . S
O160 C163 1.235 . S
C161 O164 1.238 . S
C161 O165 1.241 . S
C162 O155 1.247 . S
C162 O156 1.261 . S
C163 O158 1.259 . S
C163 O160 1.235 . S
O164 Co154 2.021 . S
O164 C161 1.238 . S
O165 Co159 2.052 1_554 S
O165 C161 1.241 . S
O166 Co154 2.137 . S
O166 C157 1.247 . S
O167 Co154 2.244 . S
O167 C157 1.272 . S
O167 Co159 2.135 1_554 S
H168 C176 0.950 . S
H169 C181 0.950 . S
H170 C178 0.950 . S
H171 C180 0.950 . S
H172 C182 0.950 . S
H173 C184 0.950 . S
H174 C186 0.950 . S
H175 C187 0.950 . S
C176 H168 0.950 . S
C176 C177 1.386 . S
C176 C178 1.391 . S
C177 C176 1.386 . S
C177 C181 1.393 . S
C178 H170 0.950 . S
C178 C176 1.391 . S
C178 C179 1.400 . S
C179 C178 1.400 . S
C179 C180 1.398 . S
C179 C185 1.491 . S
C180 H171 0.950 . S
C180 C179 1.398 . S
C180 C181 1.391 . S
C181 H169 0.950 . S
C181 C177 1.393 . S
C181 C180 1.391 . S
C182 H172 0.950 . S
C182 C183 1.386 . S
C182 C184 1.391 . S
C183 C182 1.386 . S
C183 C187 1.393 . S
C184 H173 0.950 . S
C184 C182 1.391 . S
C184 C185 1.400 . S
C185 C179 1.491 . S
C185 C184 1.400 . S
C185 C186 1.398 . S
C186 H174 0.950 . S
C186 C185 1.398 . S
C186 C187 1.391 . S
C187 H175 0.950 . S
C187 C183 1.393 . S
C187 C186 1.391 . S
H188 C196 0.950 . S
H189 C201 0.950 . S
H190 C198 0.950 . S
H191 C200 0.950 . S
H192 C202 0.950 . S
H193 C204 0.950 . S
H194 C206 0.950 . S
H195 C207 0.950 . S
C196 H188 0.950 . S
C196 C197 1.386 . S
C196 C198 1.391 . S
C197 C196 1.386 . S
C197 C201 1.393 . S
C198 H190 0.950 . S
C198 C196 1.391 . S
C198 C199 1.400 . S
C199 C198 1.400 . S
C199 C200 1.398 . S
C199 C205 1.491 . S
C200 H191 0.950 . S
C200 C199 1.398 . S
C200 C201 1.391 . S
C201 H189 0.950 . S
C201 C197 1.393 . S
C201 C200 1.391 . S
C202 H192 0.950 . S
C202 C203 1.386 . S
C202 C204 1.391 . S
C203 C202 1.386 . S
C203 C207 1.393 . S
C204 H193 0.950 . S
C204 C202 1.391 . S
C204 C205 1.400 . S
C205 C199 1.491 . S
C205 C204 1.400 . S
C205 C206 1.398 . S
C206 H194 0.950 . S
C206 C205 1.398 . S
C206 C207 1.391 . S
C207 H195 0.950 . S
C207 C203 1.393 . S
C207 C206 1.391 . S
H208 C216 0.950 . S
H209 C221 0.950 . S
H210 C218 0.950 . S
H211 C220 0.950 . S
H212 C222 0.950 . S
H213 C224 0.950 . S
H214 C226 0.950 . S
H215 C227 0.950 . S
C216 H208 0.950 . S
C216 C217 1.386 . S
C216 C218 1.391 . S
C217 C216 1.386 . S
C217 C221 1.393 . S
C218 H210 0.950 . S
C218 C216 1.391 . S
C218 C219 1.400 . S
C219 C218 1.400 . S
C219 C220 1.398 . S
C219 C225 1.491 . S
C220 H211 0.950 . S
C220 C219 1.398 . S
C220 C221 1.391 . S
C221 H209 0.950 . S
C221 C217 1.393 . S
C221 C220 1.391 . S
C222 H212 0.950 . S
C222 C223 1.386 . S
C222 C224 1.391 . S
C223 C222 1.386 . S
C223 C227 1.393 . S
C224 H213 0.950 . S
C224 C222 1.391 . S
C224 C225 1.400 . S
C225 C219 1.491 . S
C225 C224 1.400 . S
C225 C226 1.398 . S
C226 H214 0.950 . S
C226 C225 1.398 . S
C226 C227 1.391 . S
C227 H215 0.950 . S
C227 C223 1.393 . S
C227 C226 1.391 . S
H228 C236 0.950 . S
H229 C241 0.950 . S
H230 C238 0.950 . S
H231 C240 0.950 . S
H232 C242 0.950 . S
H233 C244 0.950 . S
H234 C246 0.950 . S
H235 C247 0.950 . S
C236 H228 0.950 . S
C236 C237 1.386 . S
C236 C238 1.391 . S
C237 C236 1.386 . S
C237 C241 1.393 . S
C238 H230 0.950 . S
C238 C236 1.391 . S
C238 C239 1.400 . S
C239 C238 1.400 . S
C239 C240 1.398 . S
C239 C245 1.491 . S
C240 H231 0.950 . S
C240 C239 1.398 . S
C240 C241 1.391 . S
C241 H229 0.950 . S
C241 C237 1.393 . S
C241 C240 1.391 . S
C242 H232 0.950 . S
C242 C243 1.386 . S
C242 C244 1.391 . S
C243 C242 1.386 . S
C243 C247 1.393 . S
C244 H233 0.950 . S
C244 C242 1.391 . S
C244 C245 1.400 . S
C245 C239 1.491 . S
C245 C244 1.400 . S
C245 C246 1.398 . S
C246 H234 0.950 . S
C246 C245 1.398 . S
C246 C247 1.391 . S
C247 H235 0.950 . S
C247 C243 1.393 . S
C247 C246 1.391 . S
H248 C256 0.950 . S
H249 C261 0.950 . S
H250 C258 0.950 . S
H251 C260 0.950 . S
H252 C262 0.950 . S
H253 C264 0.950 . S
H254 C266 0.950 . S
H255 C267 0.950 . S
C256 H248 0.950 . S
C256 C257 1.386 . S
C256 C258 1.391 . S
C257 C256 1.386 . S
C257 C261 1.393 . S
C258 H250 0.950 . S
C258 C256 1.391 . S
C258 C259 1.400 . S
C259 C258 1.400 . S
C259 C260 1.398 . S
C259 C265 1.491 . S
C260 H251 0.950 . S
C260 C259 1.398 . S
C260 C261 1.391 . S
C261 H249 0.950 . S
C261 C257 1.393 . S
C261 C260 1.391 . S
C262 H252 0.950 . S
C262 C263 1.386 . S
C262 C264 1.391 . S
C263 C262 1.386 . S
C263 C267 1.393 . S
C264 H253 0.950 . S
C264 C262 1.391 . S
C264 C265 1.400 . S
C265 C259 1.491 . S
C265 C264 1.400 . S
C265 C266 1.398 . S
C266 H254 0.950 . S
C266 C265 1.398 . S
C266 C267 1.391 . S
C267 H255 0.950 . S
C267 C263 1.393 . S
C267 C266 1.391 . S
H268 C276 0.950 . S
H269 C281 0.950 . S
H270 C278 0.950 . S
H271 C280 0.950 . S
H272 C282 0.950 . S
H273 C284 0.950 . S
H274 C286 0.950 . S
H275 C287 0.950 . S
C276 H268 0.950 . S
C276 C277 1.386 . S
C276 C278 1.391 . S
C277 C276 1.386 . S
C277 C281 1.393 . S
C278 H270 0.950 . S
C278 C276 1.391 . S
C278 C279 1.400 . S
C279 C278 1.400 . S
C279 C280 1.398 . S
C279 C285 1.491 . S
C280 H271 0.950 . S
C280 C279 1.398 . S
C280 C281 1.391 . S
C281 H269 0.950 . S
C281 C277 1.393 . S
C281 C280 1.391 . S
C282 H272 0.950 . S
C282 C283 1.386 . S
C282 C284 1.391 . S
C283 C282 1.386 . S
C283 C287 1.393 . S
C284 H273 0.950 . S
C284 C282 1.391 . S
C284 C285 1.400 . S
C285 C279 1.491 . S
C285 C284 1.400 . S
C285 C286 1.398 . S
C286 H274 0.950 . S
C286 C285 1.398 . S
C286 C287 1.391 . S
C287 H275 0.950 . S
C287 C283 1.393 . S
C287 C286 1.391 . S
H288 C296 0.950 . S
H289 C301 0.950 . S
H290 C298 0.950 . S
H291 C300 0.950 . S
H292 C302 0.950 . S
H293 C304 0.950 . S
H294 C306 0.950 . S
H295 C307 0.950 . S
C296 H288 0.950 . S
C296 C297 1.386 1_565 S
C296 C298 1.391 . S
C297 C296 1.386 1_545 S
C297 C301 1.393 . S
C298 H290 0.950 . S
C298 C296 1.391 . S
C298 C299 1.400 1_565 S
C299 C298 1.400 1_545 S
C299 C300 1.398 . S
C299 C305 1.491 1_545 S
C300 H291 0.950 . S
C300 C299 1.398 . S
C300 C301 1.391 . S
C301 H289 0.950 . S
C301 C297 1.393 . S
C301 C300 1.391 . S
C302 H292 0.950 . S
C302 C303 1.386 1_545 S
C302 C304 1.391 . S
C303 C302 1.386 1_565 S
C303 C307 1.393 . S
C304 H293 0.950 . S
C304 C302 1.391 . S
C304 C305 1.400 1_545 S
C305 C299 1.491 1_565 S
C305 C304 1.400 1_565 S
C305 C306 1.398 . S
C306 H294 0.950 . S
C306 C305 1.398 . S
C306 C307 1.391 . S
C307 H295 0.950 . S
C307 C303 1.393 . S
C307 C306 1.391 . S
H308 C316 0.950 . S
H309 C321 0.950 . S
H310 C318 0.950 . S
H311 C320 0.950 . S
H312 C322 0.950 . S
H313 C324 0.950 . S
H314 C326 0.950 . S
H315 C327 0.950 . S
C316 H308 0.950 . S
C316 C317 1.386 . S
C316 C318 1.391 . S
C317 C316 1.386 . S
C317 C321 1.393 . S
C318 H310 0.950 . S
C318 C316 1.391 . S
C318 C319 1.400 . S
C319 C318 1.400 . S
C319 C320 1.398 . S
C319 C325 1.491 . S
C320 H311 0.950 . S
C320 C319 1.398 . S
C320 C321 1.391 . S
C321 H309 0.950 . S
C321 C317 1.393 . S
C321 C320 1.391 . S
C322 H312 0.950 . S
C322 C323 1.386 . S
C322 C324 1.391 . S
C323 C322 1.386 . S
C323 C327 1.393 . S
C324 H313 0.950 . S
C324 C322 1.391 . S
C324 C325 1.400 . S
C325 C319 1.491 . S
C325 C324 1.400 . S
C325 C326 1.398 . S
C326 H314 0.950 . S
C326 C325 1.398 . S
C326 C327 1.391 . S
C327 H315 0.950 . S
C327 C323 1.393 . S
C327 C326 1.391 . S
H328 C336 0.950 1_554 S
H329 C341 0.950 . S
H330 C338 0.950 1_554 S
H331 C340 0.950 . S
H332 C342 0.950 . S
H333 C344 0.950 . S
H334 C346 0.950 1_554 S
H335 C347 0.950 1_554 S
C336 H328 0.950 1_556 S
C336 C337 1.386 1_655 S
C336 C338 1.391 . S
C337 C336 1.386 1_455 S
C337 C341 1.393 . S
C338 H330 0.950 1_556 S
C338 C336 1.391 . S
C338 C339 1.400 1_655 S
C339 C338 1.400 1_455 S
C339 C340 1.398 . S
C339 C345 1.491 1_455 S
C340 H331 0.950 . S
C340 C339 1.398 . S
C340 C341 1.391 . S
C341 H329 0.950 . S
C341 C337 1.393 . S
C341 C340 1.391 . S
C342 H332 0.950 . S
C342 C343 1.386 1_455 S
C342 C344 1.391 . S
C343 C342 1.386 1_655 S
C343 C347 1.393 . S
C344 H333 0.950 . S
C344 C342 1.391 . S
C344 C345 1.400 1_455 S
C345 C339 1.491 1_655 S
C345 C344 1.400 1_655 S
C345 C346 1.398 . S
C346 H334 0.950 1_556 S
C346 C345 1.398 . S
C346 C347 1.391 . S
C347 H335 0.950 1_556 S
C347 C343 1.393 . S
C347 C346 1.391 . S
H348 C356 0.950 . S
H349 C361 0.951 1_455 S
H350 C358 0.950 . S
H351 C360 0.950 . S
H352 C362 0.950 . S
H353 C364 0.950 . S
H354 C366 0.950 . S
H355 C367 0.951 1_655 S
C356 H348 0.950 . S
C356 C357 1.386 . S
C356 C358 1.391 . S
C357 C356 1.386 . S
C357 C361 1.413 . S
C358 H350 0.950 . S
C358 C356 1.391 . S
C358 C359 1.400 . S
C359 C358 1.400 . S
C359 C360 1.398 1_655 S
C359 C365 1.491 1_655 S
C360 H351 0.950 . S
C360 C359 1.398 1_455 S
C360 C361 1.370 1_455 S
C361 H349 0.951 1_655 S
C361 C357 1.413 . S
C361 C360 1.370 1_655 S
C362 H352 0.950 . S
C362 C363 1.386 . S
C362 C364 1.391 . S
C363 C362 1.386 . S
C363 C367 1.413 . S
C364 H353 0.950 . S
C364 C362 1.391 . S
C364 C365 1.400 . S
C365 C359 1.491 1_455 S
C365 C364 1.400 . S
C365 C366 1.398 1_455 S
C366 H354 0.950 . S
C366 C365 1.398 1_655 S
C366 C367 1.370 1_655 S
C367 H355 0.951 1_455 S
C367 C363 1.413 . S
C367 C366 1.370 1_455 S
H368 C376 0.950 . S
H369 C381 0.950 . S
H370 C378 0.950 . S
H371 C380 0.950 . S
H372 C382 0.950 . S
H373 C384 0.950 . S
H374 C386 0.950 . S
H375 C387 0.950 . S
C376 H368 0.950 . S
C376 C377 1.386 1_565 S
C376 C378 1.391 . S
C377 C376 1.386 1_545 S
C377 C381 1.393 . S
C378 H370 0.950 . S
C378 C376 1.391 . S
C378 C379 1.400 1_565 S
C379 C378 1.400 1_545 S
C379 C380 1.398 . S
C379 C385 1.491 1_545 S
C380 H371 0.950 . S
C380 C379 1.398 . S
C380 C381 1.391 . S
C381 H369 0.950 . S
C381 C377 1.393 . S
C381 C380 1.391 . S
C382 H372 0.950 . S
C382 C383 1.386 1_545 S
C382 C384 1.391 . S
C383 C382 1.386 1_565 S
C383 C387 1.393 . S
C384 H373 0.950 . S
C384 C382 1.391 . S
C384 C385 1.400 1_545 S
C385 C379 1.491 1_565 S
C385 C384 1.400 1_565 S
C385 C386 1.398 . S
C386 H374 0.950 . S
C386 C385 1.398 . S
C386 C387 1.391 . S
C387 H375 0.950 . S
C387 C383 1.393 . S
C387 C386 1.391 . S
H388 C396 0.923 1_556 S
H389 C401 0.950 . S
H390 C398 0.922 1_556 S
H391 C400 0.950 . S
H392 C402 0.950 . S
H393 C404 0.950 . S
H394 C406 0.950 1_556 S
H395 C407 0.920 1_556 S
C396 H388 0.923 1_554 S
C396 C397 1.413 . S
C396 C398 1.391 . S
C397 C396 1.413 . S
C397 C401 1.393 . S
C398 H390 0.922 1_554 S
C398 C396 1.391 . S
C398 C399 1.427 . S
C399 C398 1.427 . S
C399 C400 1.398 . S
C399 C405 1.491 . S
C400 H391 0.950 . S
C400 C399 1.398 . S
C400 C401 1.391 . S
C401 H389 0.950 . S
C401 C397 1.393 . S
C401 C400 1.391 . S
C402 H392 0.950 . S
C402 C403 1.386 . S
C402 C404 1.391 . S
C403 C402 1.386 . S
C403 C407 1.422 . S
C404 H393 0.950 . S
C404 C402 1.391 . S
C404 C405 1.400 . S
C405 C399 1.491 . S
C405 C404 1.400 . S
C405 C406 1.398 . S
C406 H394 0.950 1_554 S
C406 C405 1.398 . S
C406 C407 1.391 . S
C407 H395 0.920 1_554 S
C407 C403 1.422 . S
C407 C406 1.391 . S
H408 C416 0.950 . S
H409 C421 0.950 . S
H410 C418 0.950 . S
H411 C420 0.950 . S
H412 C422 0.950 . S
H413 C424 0.950 . S
H414 C426 0.950 . S
H415 C427 0.950 . S
C416 H408 0.950 . S
C416 C417 1.386 . S
C416 C418 1.391 . S
C417 C416 1.386 . S
C417 C421 1.393 . S
C418 H410 0.950 . S
C418 C416 1.391 . S
C418 C419 1.400 . S
C419 C418 1.400 . S
C419 C420 1.398 . S
C419 C425 1.491 . S
C420 H411 0.950 . S
C420 C419 1.398 . S
C420 C421 1.391 . S
C421 H409 0.950 . S
C421 C417 1.393 . S
C421 C420 1.391 . S
C422 H412 0.950 . S
C422 C423 1.386 . S
C422 C424 1.391 . S
C423 C422 1.386 . S
C423 C427 1.393 . S
C424 H413 0.950 . S
C424 C422 1.391 . S
C424 C425 1.400 . S
C425 C419 1.491 . S
C425 C424 1.400 . S
C425 C426 1.398 . S
C426 H414 0.950 . S
C426 C425 1.398 . S
C426 C427 1.391 . S
C427 H415 0.950 . S
C427 C423 1.393 . S
C427 C426 1.391 . S
H428 C436 0.950 . S
H429 C441 0.950 . S
H430 C438 0.950 . S
H431 C440 0.950 . S
H432 C442 0.950 . S
H433 C444 0.950 . S
H434 C446 0.950 . S
H435 C447 0.950 . S
C436 H428 0.950 . S
C436 C437 1.386 . S
C436 C438 1.391 . S
C437 C436 1.386 . S
C437 C441 1.393 . S
C438 H430 0.950 . S
C438 C436 1.391 . S
C438 C439 1.400 . S
C439 C438 1.400 . S
C439 C440 1.398 . S
C439 C445 1.491 . S
C440 H431 0.950 . S
C440 C439 1.398 . S
C440 C441 1.391 . S
C441 H429 0.950 . S
C441 C437 1.393 . S
C441 C440 1.391 . S
C442 H432 0.950 . S
C442 C443 1.386 . S
C442 C444 1.391 . S
C443 C442 1.386 . S
C443 C447 1.393 . S
C444 H433 0.950 . S
C444 C442 1.391 . S
C444 C445 1.400 . S
C445 C439 1.491 . S
C445 C444 1.400 . S
C445 C446 1.398 . S
C446 H434 0.950 . S
C446 C445 1.398 . S
C446 C447 1.391 . S
C447 H435 0.950 . S
C447 C443 1.393 . S
C447 C446 1.391 . S
H448 C456 0.950 . S
H449 C461 0.950 1_556 S
H450 C458 0.950 . S
H451 C460 0.950 . S
H452 C462 0.950 . S
H453 C464 0.950 . S
H454 C466 0.950 . S
H455 C467 0.950 1_554 S
C456 H448 0.950 . S
C456 C457 1.386 . S
C456 C458 1.391 . S
C457 C456 1.386 . S
C457 C461 1.393 . S
C458 H450 0.950 . S
C458 C456 1.391 . S
C458 C459 1.400 . S
C459 C458 1.400 . S
C459 C460 1.398 1_554 S
C459 C465 1.491 1_554 S
C460 H451 0.950 . S
C460 C459 1.398 1_556 S
C460 C461 1.391 1_556 S
C461 H449 0.950 1_554 S
C461 C457 1.393 . S
C461 C460 1.391 1_554 S
C462 H452 0.950 . S
C462 C463 1.386 . S
C462 C464 1.391 . S
C463 C462 1.386 . S
C463 C467 1.393 . S
C464 H453 0.950 . S
C464 C462 1.391 . S
C464 C465 1.400 . S
C465 C459 1.491 1_556 S
C465 C464 1.400 . S
C465 C466 1.398 1_556 S
C466 H454 0.950 . S
C466 C465 1.398 1_554 S
C466 C467 1.391 1_554 S
C467 H455 0.950 1_556 S
C467 C463 1.393 . S
C467 C466 1.391 1_556 S
H468 C476 0.950 . S
H469 C481 0.950 . S
H470 C478 0.950 . S
H471 C480 0.950 . S
H472 C482 0.950 . S
H473 C484 0.950 . S
H474 C486 0.950 . S
H475 C487 0.950 . S
C476 H468 0.950 . S
C476 C477 1.386 . S
C476 C478 1.391 . S
C477 C476 1.386 . S
C477 C481 1.393 . S
C478 H470 0.950 . S
C478 C476 1.391 . S
C478 C479 1.400 . S
C479 C478 1.400 . S
C479 C480 1.398 . S
C479 C485 1.491 . S
C480 H471 0.950 . S
C480 C479 1.398 . S
C480 C481 1.391 . S
C481 H469 0.950 . S
C481 C477 1.393 . S
C481 C480 1.391 . S
C482 H472 0.950 . S
C482 C483 1.386 . S
C482 C484 1.391 . S
C483 C482 1.386 . S
C483 C487 1.393 . S
C484 H473 0.950 . S
C484 C482 1.391 . S
C484 C485 1.400 . S
C485 C479 1.491 . S
C485 C484 1.400 . S
C485 C486 1.398 . S
C486 H474 0.950 . S
C486 C485 1.398 . S
C486 C487 1.391 . S
C487 H475 0.950 . S
C487 C483 1.393 . S
C487 C486 1.391 . S
H488 C496 0.950 . S
H489 C501 0.950 . S
H490 C498 0.950 . S
H491 C500 0.950 . S
H492 C502 0.950 . S
H493 C504 0.950 . S
H494 C506 0.950 . S
H495 C507 0.950 . S
C496 H488 0.950 . S
C496 C497 1.386 . S
C496 C498 1.391 . S
C497 C496 1.386 . S
C497 C501 1.393 . S
C498 H490 0.950 . S
C498 C496 1.391 . S
C498 C499 1.400 . S
C499 C498 1.400 . S
C499 C500 1.398 . S
C499 C505 1.491 . S
C500 H491 0.950 . S
C500 C499 1.398 . S
C500 C501 1.391 . S
C501 H489 0.950 . S
C501 C497 1.393 . S
C501 C500 1.391 . S
C502 H492 0.950 . S
C502 C503 1.386 . S
C502 C504 1.391 . S
C503 C502 1.386 . S
C503 C507 1.393 . S
C504 H493 0.950 . S
C504 C502 1.391 . S
C504 C505 1.400 . S
C505 C499 1.491 . S
C505 C504 1.400 . S
C505 C506 1.398 . S
C506 H494 0.950 . S
C506 C505 1.398 . S
C506 C507 1.391 . S
C507 H495 0.950 . S
C507 C503 1.393 . S
C507 C506 1.391 . S
H508 C516 0.950 . S
H509 C521 0.950 . S
H510 C518 0.950 . S
H511 C520 0.938 1_556 S
H512 C522 0.950 . S
H513 C524 0.950 . S
H514 C526 0.938 1_554 S
H515 C527 0.950 . S
C516 H508 0.950 . S
C516 C517 1.386 . S
C516 C518 1.391 . S
C517 C516 1.386 . S
C517 C521 1.393 . S
C518 H510 0.950 . S
C518 C516 1.391 . S
C518 C519 1.400 . S
C519 C518 1.400 . S
C519 C520 1.402 . S
C519 C525 1.491 1_554 S
C520 H511 0.938 1_554 S
C520 C519 1.402 . S
C520 C521 1.400 . S
C521 H509 0.950 . S
C521 C517 1.393 . S
C521 C520 1.400 . S
C522 H512 0.950 . S
C522 C523 1.386 . S
C522 C524 1.391 . S
C523 C522 1.386 . S
C523 C527 1.393 . S
C524 H513 0.950 . S
C524 C522 1.391 . S
C524 C525 1.400 . S
C525 C519 1.491 1_556 S
C525 C524 1.400 . S
C525 C526 1.402 . S
C526 H514 0.938 1_556 S
C526 C525 1.402 . S
C526 C527 1.400 . S
C527 H515 0.950 . S
C527 C523 1.393 . S
C527 C526 1.400 . S
H528 C536 0.950 . S
H529 C541 0.966 . S
H530 C538 0.950 . S
H531 C540 0.950 . S
H532 C542 0.950 . S
H533 C544 0.950 . S
H534 C546 0.950 . S
H535 C547 0.966 . S
C536 H528 0.950 . S
C536 C537 1.386 . S
C536 C538 1.391 . S
C537 C536 1.386 . S
C537 C541 1.372 1_545 S
C538 H530 0.950 . S
C538 C536 1.391 . S
C538 C539 1.400 . S
C539 C538 1.400 . S
C539 C540 1.398 1_545 S
C539 C545 1.491 1_545 S
C540 H531 0.950 . S
C540 C539 1.398 1_565 S
C540 C541 1.395 . S
C541 H529 0.966 . S
C541 C537 1.372 1_565 S
C541 C540 1.395 . S
C542 H532 0.950 . S
C542 C543 1.386 . S
C542 C544 1.391 . S
C543 C542 1.386 . S
C543 C547 1.372 1_565 S
C544 H533 0.950 . S
C544 C542 1.391 . S
C544 C545 1.400 . S
C545 C539 1.491 1_565 S
C545 C544 1.400 . S
C545 C546 1.398 1_565 S
C546 H534 0.950 . S
C546 C545 1.398 1_545 S
C546 C547 1.395 . S
C547 H535 0.966 . S
C547 C543 1.372 1_545 S
C547 C546 1.395 . S
H548 C556 0.950 . S
H549 C561 0.950 . S
H550 C558 0.950 . S
H551 C560 0.950 . S
H552 C562 0.950 . S
H553 C564 0.950 . S
H554 C566 0.950 . S
H555 C567 0.950 . S
C556 H548 0.950 . S
C556 C557 1.386 . S
C556 C558 1.391 . S
C557 C556 1.386 . S
C557 C561 1.393 . S
C558 H550 0.950 . S
C558 C556 1.391 . S
C558 C559 1.400 . S
C559 C558 1.400 . S
C559 C560 1.398 . S
C559 C565 1.491 . S
C560 H551 0.950 . S
C560 C559 1.398 . S
C560 C561 1.391 . S
C561 H549 0.950 . S
C561 C557 1.393 . S
C561 C560 1.391 . S
C562 H552 0.950 . S
C562 C563 1.386 . S
C562 C564 1.391 . S
C563 C562 1.386 . S
C563 C567 1.393 . S
C564 H553 0.950 . S
C564 C562 1.391 . S
C564 C565 1.400 . S
C565 C559 1.491 . S
C565 C564 1.400 . S
C565 C566 1.398 . S
C566 H554 0.950 . S
C566 C565 1.398 . S
C566 C567 1.391 . S
C567 H555 0.950 . S
C567 C563 1.393 . S
C567 C566 1.391 . S
H568 C576 0.950 . S
H569 C581 0.950 . S
H570 C578 0.950 . S
H571 C580 0.950 . S
H572 C582 0.950 . S
H573 C584 0.950 . S
H574 C586 0.950 . S
H575 C587 0.950 . S
C576 H568 0.950 . S
C576 C577 1.386 1_655 S
C576 C578 1.391 . S
C577 C576 1.386 1_455 S
C577 C581 1.393 . S
C578 H570 0.950 . S
C578 C576 1.391 . S
C578 C579 1.400 1_655 S
C579 C578 1.400 1_455 S
C579 C580 1.398 . S
C579 C585 1.491 1_455 S
C580 H571 0.950 . S
C580 C579 1.398 . S
C580 C581 1.391 . S
C581 H569 0.950 . S
C581 C577 1.393 . S
C581 C580 1.391 . S
C582 H572 0.950 . S
C582 C583 1.386 1_455 S
C582 C584 1.391 . S
C583 C582 1.386 1_655 S
C583 C587 1.393 . S
C584 H573 0.950 . S
C584 C582 1.391 . S
C584 C585 1.400 1_455 S
C585 C579 1.491 1_655 S
C585 C584 1.400 1_655 S
C585 C586 1.398 . S
C586 H574 0.950 . S
C586 C585 1.398 . S
C586 C587 1.391 . S
C587 H575 0.950 . S
C587 C583 1.393 . S
C587 C586 1.391 . S
H588 C596 0.950 . S
H589 C601 0.950 . S
H590 C598 0.950 . S
H591 C600 0.950 . S
H592 C602 0.950 . S
H593 C604 0.950 . S
H594 C606 0.950 . S
H595 C607 0.951 . S
C596 H588 0.950 . S
C596 C597 1.386 . S
C596 C598 1.391 . S
C597 C596 1.386 . S
C597 C601 1.392 1_565 S
C598 H590 0.950 . S
C598 C596 1.391 . S
C598 C599 1.400 . S
C599 C598 1.400 . S
C599 C600 1.398 1_565 S
C599 C605 1.491 1_565 S
C600 H591 0.950 . S
C600 C599 1.398 1_545 S
C600 C601 1.391 . S
C601 H589 0.950 . S
C601 C597 1.392 1_545 S
C601 C600 1.391 . S
C602 H592 0.950 . S
C602 C603 1.386 . S
C602 C604 1.391 . S
C603 C602 1.386 . S
C603 C607 1.392 1_545 S
C604 H593 0.950 . S
C604 C602 1.391 . S
C604 C605 1.400 . S
C605 C599 1.491 1_545 S
C605 C604 1.400 . S
C605 C606 1.398 1_545 S
C606 H594 0.950 . S
C606 C605 1.398 1_565 S
C606 C607 1.391 . S
C607 H595 0.951 . S
C607 C603 1.392 1_565 S
C607 C606 1.391 . S
H608 C616 0.950 . S
H609 C621 0.950 . S
H610 C618 0.950 . S
H611 C620 0.950 . S
H612 C622 0.950 . S
H613 C624 0.950 . S
H614 C626 0.950 . S
H615 C627 0.950 . S
C616 H608 0.950 . S
C616 C617 1.386 . S
C616 C618 1.391 . S
C617 C616 1.386 . S
C617 C621 1.393 . S
C618 H610 0.950 . S
C618 C616 1.391 . S
C618 C619 1.400 . S
C619 C618 1.400 . S
C619 C620 1.398 . S
C619 C625 1.491 . S
C620 H611 0.950 . S
C620 C619 1.398 . S
C620 C621 1.391 . S
C621 H609 0.950 . S
C621 C617 1.393 . S
C621 C620 1.391 . S
C622 H612 0.950 . S
C622 C623 1.386 . S
C622 C624 1.391 . S
C623 C622 1.386 . S
C623 C627 1.393 . S
C624 H613 0.950 . S
C624 C622 1.391 . S
C624 C625 1.400 . S
C625 C619 1.491 . S
C625 C624 1.400 . S
C625 C626 1.398 . S
C626 H614 0.950 . S
C626 C625 1.398 . S
C626 C627 1.391 . S
C627 H615 0.950 . S
C627 C623 1.393 . S
C627 C626 1.391 . S
H628 C636 0.950 . S
H629 C641 0.950 . S
H630 C638 0.950 . S
H631 C640 0.950 . S
H632 C642 0.950 . S
H633 C644 0.950 . S
H634 C646 0.950 . S
H635 C647 0.950 . S
C636 H628 0.950 . S
C636 C637 1.386 . S
C636 C638 1.391 . S
C637 C636 1.386 . S
C637 C641 1.393 1_655 S
C638 H630 0.950 . S
C638 C636 1.391 . S
C638 C639 1.400 . S
C639 C638 1.400 . S
C639 C640 1.398 1_655 S
C639 C645 1.491 1_655 S
C640 H631 0.950 . S
C640 C639 1.398 1_455 S
C640 C641 1.391 . S
C641 H629 0.950 . S
C641 C637 1.393 1_455 S
C641 C640 1.391 . S
C642 H632 0.950 . S
C642 C643 1.386 . S
C642 C644 1.391 . S
C643 C642 1.386 . S
C643 C647 1.393 1_455 S
C644 H633 0.950 . S
C644 C642 1.391 . S
C644 C645 1.400 . S
C645 C639 1.491 1_455 S
C645 C644 1.400 . S
C645 C646 1.398 1_455 S
C646 H634 0.950 . S
C646 C645 1.398 1_655 S
C646 C647 1.391 . S
C647 H635 0.950 . S
C647 C643 1.393 1_655 S
C647 C646 1.391 . S
C177 C8 1.788 . S
C183 C120 1.792 . S
C197 C22 1.787 . S
C203 C134 1.790 . S
C217 C148 1.792 . S
C223 C36 1.792 . S
C237 C162 1.788 . S
C243 C50 1.786 . S
C257 C92 1.786 . S
C263 C64 1.788 . S
C277 C106 1.788 . S
C283 C78 1.787 . S
C297 C7 1.518 . S
C303 C49 1.504 . S
C317 C63 1.511 . S
C323 C21 1.529 . S
C337 C77 1.517 . S
C343 C35 1.504 . S
C357 C91 1.524 . S
C363 C133 1.533 . S
C377 C147 1.529 . S
C383 C105 1.512 . S
C397 C119 1.506 . S
C403 C161 1.507 . S
C417 C87 0.855 . S
C423 C3 0.854 . S
C437 C17 0.862 . S
C443 C101 0.863 . S
C457 C115 0.848 . S
C463 C31 0.848 . S
C477 C129 0.877 . S
C483 C45 0.876 . S
C497 C59 0.875 . S
C503 C143 0.875 . S
C517 C157 0.847 . S
C523 C73 0.847 . S
C537 C9 1.006 . S
C543 C107 1.003 . S
C557 C121 1.029 . S
C563 C23 1.036 . S
C577 C135 1.017 . S
C583 C37 1.025 . S
C597 C51 1.006 . S
C603 C149 1.003 . S
C617 C163 1.003 . S
C623 C65 1.003 . S
C637 C93 1.019 . S
C643 C79 1.012 . S
