# Generated by pormake.
# Topology lcy-e, (6)-cn, num edge types: 1
# Building blocks:
#     Node 0, Type 0, BuildingBlock: KUMBOL_clean_sbu_1, # of connection points: 6
#     Node 1, Type 0, BuildingBlock: KUMBOL_clean_sbu_1, # of connection points: 6
#     Node 2, Type 0, BuildingBlock: KUMBOL_clean_sbu_1, # of connection points: 6
#     Node 3, Type 0, BuildingBlock: KUMBOL_clean_sbu_1, # of connection points: 6
#     Node 4, Type 0, BuildingBlock: KUMBOL_clean_sbu_1, # of connection points: 6
#     Node 5, Type 0, BuildingBlock: KUMBOL_clean_sbu_1, # of connection points: 6
#     Node 6, Type 0, BuildingBlock: KUMBOL_clean_sbu_1, # of connection points: 6
#     Node 7, Type 0, BuildingBlock: KUMBOL_clean_sbu_1, # of connection points: 6
#     Node 8, Type 0, BuildingBlock: KUMBOL_clean_sbu_1, # of connection points: 6
#     Node 9, Type 0, BuildingBlock: KUMBOL_clean_sbu_1, # of connection points: 6
#     Node 10, Type 0, BuildingBlock: KUMBOL_clean_sbu_1, # of connection points: 6
#     Node 11, Type 0, BuildingBlock: KUMBOL_clean_sbu_1, # of connection points: 6
#     Edge 12, Type (0, 0), BuildingBlock: CIFDUS_clean_linker_0, # of connection points: 2
#     Edge 13, Type (0, 0), BuildingBlock: CIFDUS_clean_linker_0, # of connection points: 2
#     Edge 14, Type (0, 0), BuildingBlock: CIFDUS_clean_linker_0, # of connection points: 2
#     Edge 15, Type (0, 0), BuildingBlock: CIFDUS_clean_linker_0, # of connection points: 2
#     Edge 16, Type (0, 0), BuildingBlock: CIFDUS_clean_linker_0, # of connection points: 2
#     Edge 17, Type (0, 0), BuildingBlock: CIFDUS_clean_linker_0, # of connection points: 2
#     Edge 18, Type (0, 0), BuildingBlock: CIFDUS_clean_linker_0, # of connection points: 2
#     Edge 19, Type (0, 0), BuildingBlock: CIFDUS_clean_linker_0, # of connection points: 2
#     Edge 20, Type (0, 0), BuildingBlock: CIFDUS_clean_linker_0, # of connection points: 2
#     Edge 21, Type (0, 0), BuildingBlock: CIFDUS_clean_linker_0, # of connection points: 2
#     Edge 22, Type (0, 0), BuildingBlock: CIFDUS_clean_linker_0, # of connection points: 2
#     Edge 23, Type (0, 0), BuildingBlock: CIFDUS_clean_linker_0, # of connection points: 2
#     Edge 24, Type (0, 0), BuildingBlock: CIFDUS_clean_linker_0, # of connection points: 2
#     Edge 25, Type (0, 0), BuildingBlock: CIFDUS_clean_linker_0, # of connection points: 2
#     Edge 26, Type (0, 0), BuildingBlock: CIFDUS_clean_linker_0, # of connection points: 2
#     Edge 27, Type (0, 0), BuildingBlock: CIFDUS_clean_linker_0, # of connection points: 2
#     Edge 28, Type (0, 0), BuildingBlock: CIFDUS_clean_linker_0, # of connection points: 2
#     Edge 29, Type (0, 0), BuildingBlock: CIFDUS_clean_linker_0, # of connection points: 2
#     Edge 30, Type (0, 0), BuildingBlock: CIFDUS_clean_linker_0, # of connection points: 2
#     Edge 31, Type (0, 0), BuildingBlock: CIFDUS_clean_linker_0, # of connection points: 2
#     Edge 32, Type (0, 0), BuildingBlock: CIFDUS_clean_linker_0, # of connection points: 2
#     Edge 33, Type (0, 0), BuildingBlock: CIFDUS_clean_linker_0, # of connection points: 2
#     Edge 34, Type (0, 0), BuildingBlock: CIFDUS_clean_linker_0, # of connection points: 2
#     Edge 35, Type (0, 0), BuildingBlock: CIFDUS_clean_linker_0, # of connection points: 2
#     Edge 36, Type (0, 0), BuildingBlock: CIFDUS_clean_linker_0, # of connection points: 2
#     Edge 37, Type (0, 0), BuildingBlock: CIFDUS_clean_linker_0, # of connection points: 2
#     Edge 38, Type (0, 0), BuildingBlock: CIFDUS_clean_linker_0, # of connection points: 2
#     Edge 39, Type (0, 0), BuildingBlock: CIFDUS_clean_linker_0, # of connection points: 2
#     Edge 40, Type (0, 0), BuildingBlock: CIFDUS_clean_linker_0, # of connection points: 2
#     Edge 41, Type (0, 0), BuildingBlock: CIFDUS_clean_linker_0, # of connection points: 2
#     Edge 42, Type (0, 0), BuildingBlock: CIFDUS_clean_linker_0, # of connection points: 2
#     Edge 43, Type (0, 0), BuildingBlock: CIFDUS_clean_linker_0, # of connection points: 2
#     Edge 44, Type (0, 0), BuildingBlock: CIFDUS_clean_linker_0, # of connection points: 2
#     Edge 45, Type (0, 0), BuildingBlock: CIFDUS_clean_linker_0, # of connection points: 2
#     Edge 46, Type (0, 0), BuildingBlock: CIFDUS_clean_linker_0, # of connection points: 2
#     Edge 47, Type (0, 0), BuildingBlock: CIFDUS_clean_linker_0, # of connection points: 2
# Relax obj value: 0.092
# Max RMSD: 0.246
# Mean RMSD: 0.245
data_MOF--net-lcy-e--node1-KUMBOL_clean_sbu_1--edge1-CIFDUS_clean_linker_0
_symmetry_space_group_name_H-M    P1
_symmetry_Int_Tables_number       1
_symmetry_cell_setting            triclinic
loop_
_symmetry_equiv_pos_as_xyz
'x, y, z'
_cell_length_a     39.52324
_cell_length_b     39.255774
_cell_length_c     39.502841
_cell_angle_alpha  89.777526
_cell_angle_beta   90.138922
_cell_angle_gamma 89.705087
loop_
_atom_site_label
_atom_site_type_symbol
_atom_site_fract_x
_atom_site_fract_y
_atom_site_fract_z
_atom_type_partial_charge
C0 C 0.04834 0.31142 0.46836 0.0
C1 C 0.04458 0.36561 0.49761 0.0
C2 C 0.06384 0.33791 0.48551 0.0
C3 C 1.00931 0.36564 0.49341 0.0
C4 C 0.01317 0.31247 0.46226 0.0
C5 C 0.99364 0.33915 0.47572 0.0
N6 N 0.06799 0.28622 0.45525 0.0
C7 C 0.05469 0.26416 0.43212 0.0
C8 C 0.99891 0.28757 0.44148 0.0
C9 C 0.01991 0.26381 0.42569 0.0
Gd10 Gd 0.15636 0.21072 0.53435 0.0
Gd11 Gd 0.12561 0.28803 0.47077 0.0
N12 N 0.09802 0.33749 0.48873 0.0
C13 C 0.0615 0.393 0.51253 0.0
C14 C 0.11479 0.36486 0.50144 0.0
C15 C 0.09681 0.39289 0.51387 0.0
H16 H 0.14209 0.36525 0.50147 0.0
H17 H 0.11015 0.41454 0.52409 0.0
H18 H 0.12968 0.14697 0.48638 0.0
H19 H 0.07078 0.24679 0.41833 0.0
H20 H 0.15442 0.10042 0.45194 0.0
H21 H 0.04762 0.41482 0.52203 0.0
H22 H 0.99405 0.38656 0.50278 0.0
H23 H 0.22122 0.24176 0.58199 0.0
H24 H 0.97201 0.28748 0.43617 0.0
H25 H 1.0094 0.24549 0.40822 0.0
H26 H 0.27435 0.11309 0.4671 0.0
H27 H 0.96654 0.34014 0.4716 0.0
H28 H 0.31284 0.19787 0.54475 0.0
H29 H 0.28321 0.23779 0.58296 0.0
N30 N 0.21553 0.20743 0.54057 0.0
C31 C 0.23115 0.1836 0.52106 0.0
C32 C 0.23368 0.2255 0.56384 0.0
C33 C 0.28553 0.20014 0.54353 0.0
C34 C 0.26892 0.22278 0.56504 0.0
C35 C 0.26662 0.17951 0.52185 0.0
H36 H 0.30927 0.15131 0.50167 0.0
N37 N 0.17745 0.16679 0.50065 0.0
C38 C 0.21154 0.16217 0.5012 0.0
C39 C 0.20591 0.11402 0.46374 0.0
C40 C 0.22676 0.13604 0.48212 0.0
C41 C 0.15682 0.14416 0.48463 0.0
C42 C 0.17076 0.11781 0.46539 0.0
O43 O 0.10118 0.28872 0.524 0.0
O44 O 0.13175 0.25354 0.56173 0.0
O45 O 0.12336 0.17141 0.55479 0.0
O46 O 0.17061 0.18254 0.57967 0.0
O47 O 0.16644 0.30495 0.50581 0.0
O48 O 0.17719 0.26398 0.54844 0.0
O49 O 0.16682 0.21207 0.4784 0.0
O50 O 0.17915 0.26764 0.4717 0.0
O51 O 0.13732 0.33244 0.43947 0.0
O52 O 0.13807 0.28188 0.41788 0.0
O53 O 0.10231 0.21153 0.51503 0.0
O54 O 0.1106 0.23375 0.46212 0.0
C55 C 0.10925 0.27743 0.55484 0.0
C56 C 0.18051 0.29479 0.53437 0.0
C57 C 0.12749 0.15729 0.61298 0.0
C58 C 0.09843 0.11812 0.65134 0.0
C59 C 0.11215 0.17559 0.66947 0.0
C60 C 0.12661 0.18251 0.63802 0.0
C61 C 0.09806 0.14373 0.67608 0.0
C62 C 0.11355 0.12492 0.61979 0.0
C63 C 0.14339 0.16403 0.57994 0.0
C64 C 0.26213 0.13266 0.48206 0.0
C65 C 0.28202 0.15447 0.50171 0.0
H66 H 0.21666 0.09366 0.44872 0.0
C67 C 0.18556 0.23574 0.46502 0.0
C68 C 0.09357 0.21458 0.48312 0.0
C69 C 0.13071 0.32789 0.37976 0.0
C70 C 0.14302 0.35973 0.32814 0.0
C71 C 0.09126 0.32701 0.33263 0.0
C72 C 0.1002 0.31688 0.36537 0.0
C73 C 0.11266 0.3481 0.31397 0.0
C74 C 0.15193 0.34975 0.36119 0.0
C75 C 0.14248 0.31432 0.41248 0.0
H76 H 0.11172 0.19506 0.68879 0.0
H77 H 0.1372 0.20747 0.63329 0.0
H78 H 0.08684 0.13901 0.70064 0.0
H79 H 0.11399 0.10536 0.60048 0.0
H80 H 0.06785 0.31818 0.32153 0.0
H81 H 0.08367 0.29994 0.3791 0.0
H82 H 0.10543 0.35554 0.28851 0.0
H83 H 0.17568 0.3582 0.37203 0.0
C84 C 0.9536 0.80935 0.70971 0.0
C85 C 0.89807 0.80992 0.73617 0.0
C86 C 0.92832 0.82659 0.72736 0.0
C87 C 0.89372 0.77558 0.72755 0.0
C88 C 0.94846 0.77535 0.69957 0.0
C89 C 0.91877 0.75838 0.70919 0.0
N90 N 0.98223 0.82629 0.70082 0.0
C91 C 1.0046 0.81204 0.67864 0.0
C92 C 0.97274 0.75974 0.67901 0.0
C93 C 1.00052 0.77844 0.66787 0.0
Gd94 Gd 0.05789 0.90348 0.79358 0.0
Gd95 Gd 0.98536 0.88254 0.72047 0.0
N96 N 0.9331 0.85985 0.73547 0.0
C97 C 0.87293 0.82842 0.75315 0.0
C98 C 0.90809 0.87845 0.75026 0.0
C99 C 0.87783 0.86296 0.7599 0.0
H100 H 0.91131 0.90528 0.75386 0.0
H101 H 0.85819 0.87774 0.77213 0.0
H102 H 0.12757 0.87598 0.75603 0.0
H103 H 0.02561 0.82652 0.66886 0.0
H104 H 0.18017 0.90048 0.73213 0.0
H105 H 0.84939 0.81649 0.76047 0.0
H106 H 0.87075 0.76227 0.73433 0.0
H107 H 0.01488 0.97024 0.82972 0.0
H108 H 0.96964 0.73371 0.67059 0.0
H109 H 0.01877 0.76705 0.65089 0.0
H110 H 0.16577 0.02117 0.7459 0.0
H111 H 0.91462 0.73215 0.70192 0.0
H112 H 0.06621 0.06127 0.80199 0.0
H113 H 0.0185 0.03234 0.83011 0.0
N114 N 0.05797 0.96326 0.79781 0.0
C115 C 0.08561 0.97858 0.78401 0.0
C116 C 0.03483 0.98209 0.81547 0.0
C117 C 0.06429 0.03378 0.8008 0.0
C118 C 0.03723 0.01756 0.81655 0.0
C119 C 0.0893 0.01429 0.78492 0.0
H120 H 0.12117 0.05682 0.77098 0.0
N121 N 0.10659 0.92425 0.76821 0.0
C122 C 0.11092 0.95851 0.76961 0.0
C123 C 0.1653 0.95236 0.74237 0.0
C124 C 0.14026 0.97355 0.75612 0.0
C125 C 0.13118 0.90327 0.7558 0.0
C126 C 0.16082 0.91705 0.74241 0.0
O127 O 0.97707 0.85297 0.77033 0.0
O128 O 0.01765 0.86822 0.81071 0.0
O129 O 0.09691 0.87231 0.81873 0.0
O130 O 0.07399 0.91573 0.84469 0.0
O131 O 0.97705 0.92798 0.75429 0.0
O132 O 1.00265 0.9175 0.80616 0.0
O133 O 0.06424 0.91612 0.73801 0.0
O134 O 1.01084 0.93331 0.72688 0.0
O135 O 0.94423 0.89944 0.68681 0.0
O136 O 0.99575 0.89658 0.66869 0.0
O137 O 0.06025 0.85107 0.77067 0.0
O138 O 0.03852 0.86097 0.71728 0.0
C139 C 0.99108 0.85086 0.8009 0.0
C140 C 0.97648 0.92793 0.78754 0.0
C141 C 0.11683 0.88397 0.87642 0.0
C142 C 0.16468 0.85646 0.90543 0.0
C143 C 0.12637 0.89333 0.93649 0.0
C144 C 0.10759 0.89928 0.90715 0.0
C145 C 0.15471 0.87212 0.93567 0.0
C146 C 0.14563 0.86232 0.87562 0.0
C147 C 0.09575 0.89072 0.84598 0.0
C148 C 0.14357 1.00912 0.75648 0.0
C149 C 0.1181 0.02942 0.77067 0.0
H150 H 0.18821 0.96298 0.73177 0.0
C151 C 0.04333 0.93639 0.72185 0.0
C152 C 0.05329 0.84102 0.73978 0.0
C153 C 0.95265 0.89124 0.62724 0.0
C154 C 0.92072 0.90133 0.57442 0.0
C155 C 0.96197 0.85497 0.57856 0.0
C156 C 0.96897 0.86355 0.61188 0.0
C157 C 0.93868 0.8739 0.55984 0.0
C158 C 0.92812 0.9099 0.60854 0.0
C159 C 0.96425 0.90308 0.66091 0.0
H160 H 0.11889 0.9052 0.96001 0.0
H161 H 0.08558 0.91577 0.90863 0.0
H162 H 0.16898 0.86789 0.95879 0.0
H163 H 0.1532 0.85025 0.85218 0.0
H164 H 0.97545 0.83408 0.5668 0.0
H165 H 0.98834 0.84931 0.62503 0.0
H166 H 0.93564 0.86726 0.53348 0.0
H167 H 0.91545 0.93123 0.62044 0.0
C168 C 0.2912 0.81001 0.05049 0.0
C169 C 0.279 0.77713 0.10122 0.0
C170 C 0.30195 0.78833 0.07627 0.0
C171 C 0.24525 0.78829 0.10008 0.0
C172 C 0.25743 0.82182 0.04975 0.0
C173 C 0.23451 0.81064 0.07448 0.0
N174 N 0.31392 0.82063 0.02695 0.0
C175 C 0.3053 0.84518 1.00399 0.0
C176 C 0.24788 0.84525 0.02468 0.0
C177 C 0.27206 0.85734 1.002 0.0
Gd178 Gd 0.40358 0.72913 0.96624 0.0
Gd179 Gd 0.36908 0.79959 0.03343 0.0
N180 N 0.33484 0.7782 0.07703 0.0
C181 C 0.29065 0.75503 0.12664 0.0
C182 C 0.34624 0.75667 0.10177 0.0
C183 C 0.32443 0.74465 0.12681 0.0
H184 H 0.3716 0.74728 0.10123 0.0
H185 H 0.33362 0.7271 0.14597 0.0
H186 H 0.37222 0.77525 0.90175 0.0
H187 H 0.32433 0.85615 0.98777 0.0
H188 H 0.39241 0.80072 0.84845 0.0
H189 H 0.27375 0.74569 0.14609 0.0
H190 H 0.2273 0.78 0.11906 0.0
H191 H 0.46842 0.68318 0.99766 0.0
H192 H 0.2222 0.85495 0.02328 0.0
H193 H 0.26525 0.87645 0.98335 0.0
H194 H 0.50882 0.76609 0.84236 0.0
H195 H 0.20848 0.81943 0.07424 0.0
H196 H 0.55306 0.69593 0.93169 0.0
H197 H 0.52813 0.67151 0.98373 0.0
N198 N 0.46056 0.71649 0.95581 0.0
C199 C 0.47333 0.72909 0.92645 0.0
C200 C 0.47953 0.69542 0.97591 0.0
C201 C 0.52705 0.70179 0.93814 0.0
C202 C 0.51314 0.68811 0.96763 0.0
C203 C 0.50704 0.72225 0.91693 0.0
H204 H 0.5455 0.7309 0.8789 0.0
N205 N 0.4204 0.7555 0.91582 0.0
C206 C 0.45264 0.74899 0.90578 0.0
C207 C 0.44332 0.78183 0.85472 0.0
C208 C 0.46513 0.76243 0.87515 0.0
C209 C 0.39843 0.77254 0.895 0.0
C210 C 0.40972 0.78659 0.86453 0.0
O211 O 0.34333 0.74682 0.03085 0.0
O212 O 0.38487 0.70831 0.01463 0.0
O213 O 0.36624 0.70202 0.93456 0.0
O214 O 0.41466 0.67846 0.94833 0.0
O215 O 0.41019 0.76863 0.05606 0.0
O216 O 0.42901 0.72506 0.01999 0.0
O217 O 0.42173 0.78333 0.9607 0.0
O218 O 0.42352 0.80079 0.01589 0.0
O219 O 0.37491 0.8306 0.07934 0.0
O220 O 0.3836 0.85203 0.02949 0.0
O221 O 0.35024 0.75114 0.96137 0.0
O222 O 0.36079 0.80554 0.97764 0.0
C223 C 0.35697 0.71585 0.03053 0.0
C224 C 0.42942 0.74213 0.04944 0.0
C225 C 0.37804 0.64393 0.9136 0.0
C226 C 0.35091 0.61222 0.86771 0.0
C227 C 0.38623 0.58272 0.90888 0.0
C228 C 0.39245 0.61332 0.92541 0.0
C229 C 0.36563 0.58212 0.88029 0.0
C230 C 0.35714 0.64339 0.88442 0.0
C231 C 0.38643 0.67583 0.93164 0.0
C232 C 0.49875 0.75588 0.86575 0.0
C233 C 0.51964 0.73582 0.88656 0.0
H234 H 0.45199 0.79263 0.83102 0.0
C235 C 0.43456 0.80236 0.98468 0.0
C236 C 0.34269 0.78375 0.96061 0.0
C237 C 0.37358 0.89162 0.07287 0.0
C238 C 0.38867 0.94524 0.10083 0.0
C239 C 0.34181 0.94302 0.06044 0.0
C240 C 0.34705 0.90835 0.05606 0.0
C241 C 0.36281 0.96145 0.08181 0.0
C242 C 0.39392 0.90991 0.09586 0.0
C243 C 0.38407 0.85734 0.06202 0.0
H244 H 0.39751 0.55933 0.91826 0.0
H245 H 0.40861 0.61298 0.94761 0.0
H246 H 0.36127 0.55802 0.86774 0.0
H247 H 0.34607 0.6668 0.87476 0.0
H248 H 0.32202 0.95594 0.04632 0.0
H249 H 0.3314 0.89512 0.03815 0.0
H250 H 0.35886 0.98869 0.0826 0.0
H251 H 0.41418 0.89665 0.10898 0.0
C252 C 0.56473 0.21186 0.21779 0.0
C253 C 0.61767 0.20871 0.24905 0.0
C254 C 0.5882 0.19303 0.23655 0.0
C255 C 0.62283 0.24362 0.24322 0.0
C256 C 0.57056 0.2466 0.2108 0.0
C257 C 0.59938 0.26248 0.22411 0.0
N258 N 0.53689 0.19595 0.20537 0.0
C259 C 0.516 0.21228 0.18298 0.0
C260 C 0.54765 0.26417 0.18994 0.0
C261 C 0.52058 0.24674 0.17549 0.0
Gd262 Gd 0.45862 0.1189 0.29253 0.0
Gd263 Gd 0.53077 0.13889 0.22191 0.0
N264 N 0.58249 0.15928 0.24203 0.0
C265 C 0.64137 0.18868 0.26656 0.0
C266 C 0.60628 0.1393 0.2574 0.0
C267 C 0.63589 0.15373 0.2703 0.0
H268 H 0.60278 0.11217 0.25919 0.0
H269 H 0.65457 0.13789 0.28289 0.0
H270 H 0.39056 0.14928 0.25411 0.0
H271 H 0.49607 0.19871 0.17025 0.0
H272 H 0.33785 0.12725 0.22813 0.0
H273 H 0.66435 0.19977 0.27656 0.0
H274 H 0.64522 0.25614 0.25286 0.0
H275 H 0.49621 0.05048 0.33182 0.0
H276 H 0.55126 0.29085 0.18395 0.0
H277 H 0.50345 0.2597 0.15827 0.0
H278 H 0.34794 1.00578 0.23999 0.0
H279 H 0.60409 0.28922 0.21924 0.0
H280 H 0.4431 0.9615 0.30135 0.0
H281 H 0.49022 0.98854 0.33224 0.0
N282 N 0.45553 0.05909 0.29701 0.0
C283 C 0.42819 0.04484 0.28157 0.0
C284 C 0.47677 0.03937 0.31629 0.0
C285 C 0.44623 0.98888 0.30004 0.0
C286 C 0.47294 1.00403 0.31739 0.0
C287 C 0.42297 1.00934 0.28251 0.0
H288 H 0.39 0.9682 0.26718 0.0
N289 N 0.41006 0.1 0.26517 0.0
C290 C 0.40439 0.06593 0.266 0.0
C291 C 0.35096 0.07462 0.2373 0.0
C292 C 0.37493 0.05224 0.25137 0.0
C293 C 0.38624 0.12214 0.25294 0.0
C294 C 0.35647 0.10975 0.23843 0.0
O295 O 0.52839 0.17403 0.26881 0.0
O296 O 0.5047 0.14323 0.31324 0.0
O297 O 0.42607 0.15563 0.31849 0.0
O298 O 0.43258 0.10461 0.33851 0.0
O299 O 0.5422 0.09376 0.25553 0.0
O300 O 0.5128 0.10124 0.30632 0.0
O301 O 0.45331 0.1073 0.23749 0.0
O302 O 0.50522 0.08744 0.22459 0.0
O303 O 0.57319 0.12566 0.18857 0.0
O304 O 0.52182 0.1269 0.16942 0.0
O305 O 0.4563 0.17087 0.26664 0.0
O306 O 0.47791 0.15987 0.21334 0.0
C307 C 0.52128 0.16944 0.30132 0.0
C308 C 0.53876 0.08936 0.28838 0.0
C309 C 0.40951 0.14591 0.37592 0.0
C310 C 0.36969 0.17319 0.41476 0.0
C311 C 0.42118 0.14641 0.43619 0.0
C312 C 0.43052 0.1374 0.40336 0.0
C313 C 0.39104 0.16416 0.4419 0.0
C314 C 0.37898 0.16369 0.38172 0.0
C315 C 0.41712 0.13377 0.34158 0.0
C316 C 0.37025 0.01684 0.25143 0.0
C317 C 0.39426 0.99544 0.26685 0.0
H318 H 0.32797 0.06506 0.22587 0.0
C319 C 0.47238 0.08554 0.22146 0.0
C320 C 0.45969 0.17851 0.23424 0.0
C321 C 0.56529 0.13325 0.12869 0.0
C322 C 0.59566 0.1216 0.0755 0.0
C323 C 0.55629 0.16961 0.07981 0.0
C324 C 0.54979 0.16157 0.1134 0.0
C325 C 0.57828 0.14957 0.06087 0.0
C326 C 0.58871 0.11359 0.10986 0.0
C327 C 0.55363 0.1215 0.16232 0.0
H328 H 0.43726 0.13943 0.45735 0.0
H329 H 0.45382 0.12332 0.39949 0.0
H330 H 0.3842 0.17057 0.46765 0.0
H331 H 0.3625 0.17003 0.36059 0.0
H332 H 0.54336 0.19096 0.06801 0.0
H333 H 0.53142 0.17667 0.12685 0.0
H334 H 0.58074 0.15591 0.03434 0.0
H335 H 0.6008 0.09189 0.12191 0.0
C336 C 0.53931 0.21566 0.55854 0.0
C337 C 0.52867 0.16693 0.52231 0.0
C338 C 0.55071 0.19212 0.53487 0.0
C339 C 0.4953 0.16538 0.53419 0.0
C340 C 0.50589 0.21375 0.57087 0.0
C341 C 0.48397 0.18865 0.55846 0.0
N342 N 0.56105 0.23959 0.57038 0.0
C343 C 0.55182 0.26053 0.59628 0.0
C344 C 0.49567 0.23664 0.59595 0.0
C345 C 0.51886 0.25988 0.60896 0.0
Gd346 Gd 0.65467 0.31065 0.48645 0.0
Gd347 Gd 0.61608 0.23682 0.54882 0.0
N348 N 0.58325 0.19383 0.52408 0.0
C349 C 0.54076 0.14404 0.49805 0.0
C350 C 0.5949 0.17195 0.49991 0.0
C351 C 0.57396 0.14678 0.48659 0.0
H352 H 0.61951 0.1752 0.48923 0.0
H353 H 0.58334 0.12984 0.46715 0.0
H354 H 0.62817 0.37234 0.53816 0.0
H355 H 0.57022 0.27698 0.60802 0.0
H356 H 0.65324 0.4189 0.5721 0.0
H357 H 0.52454 0.12449 0.48767 0.0
H358 H 0.47808 0.14615 0.52487 0.0
H359 H 0.7161 0.2828 0.43478 0.0
H360 H 0.47024 0.23594 0.60609 0.0
H361 H 0.51156 0.27684 0.62923 0.0
H362 H 0.77185 0.41274 0.54686 0.0
H363 H 0.45824 0.18685 0.56767 0.0
H364 H 0.80763 0.33369 0.46194 0.0
H365 H 0.77729 0.29174 0.42668 0.0
N366 N 0.71255 0.31704 0.47628 0.0
C367 C 0.72832 0.3413 0.4949 0.0
C368 C 0.72941 0.30008 0.4513 0.0
C369 C 0.78092 0.3293 0.46614 0.0
C370 C 0.76393 0.30553 0.44624 0.0
C371 C 0.76305 0.34793 0.49045 0.0
H372 H 0.80539 0.37857 0.50697 0.0
N373 N 0.67574 0.35442 0.52044 0.0
C374 C 0.70941 0.36054 0.51755 0.0
C375 C 0.70431 0.40752 0.55658 0.0
C376 C 0.72472 0.38696 0.53604 0.0
C377 C 0.65525 0.37614 0.53811 0.0
C378 C 0.66935 0.40244 0.55717 0.0
O379 O 0.59387 0.24236 0.49459 0.0
O380 O 0.63504 0.26572 0.459 0.0
O381 O 0.61893 0.34768 0.46555 0.0
O382 O 0.667 0.33952 0.44113 0.0
O383 O 0.6578 0.21803 0.5166 0.0
O384 O 0.67958 0.2571 0.47731 0.0
O385 O 0.6618 0.30935 0.54286 0.0
O386 O 0.67034 0.2536 0.55262 0.0
O387 O 0.62205 0.18885 0.57689 0.0
O388 O 0.6332 0.23707 0.60081 0.0
O389 O 0.59961 0.31045 0.50193 0.0
O390 O 0.60152 0.29188 0.55674 0.0
C391 C 0.60834 0.24672 0.46447 0.0
C392 C 0.67845 0.22619 0.49188 0.0
C393 C 0.62266 0.3628 0.40752 0.0
C394 C 0.59318 0.40183 0.36878 0.0
C395 C 0.60859 0.34458 0.35068 0.0
C396 C 0.62277 0.3377 0.38238 0.0
C397 C 0.59384 0.3763 0.34391 0.0
C398 C 0.60799 0.39497 0.4006 0.0
C399 C 0.63861 0.3564 0.44069 0.0
C400 C 0.75957 0.39275 0.53261 0.0
C401 C 0.77867 0.37332 0.50985 0.0
H402 H 0.71515 0.42808 0.57118 0.0
C403 C 0.6793 0.28508 0.55707 0.0
C404 C 0.58737 0.31032 0.5328 0.0
C405 C 0.62307 0.19087 0.63763 0.0
C406 C 0.63884 0.16516 0.69244 0.0
C407 C 0.58394 0.19311 0.68452 0.0
C408 C 0.59144 0.19961 0.65082 0.0
C409 C 0.60754 0.17691 0.7053 0.0
C410 C 0.64662 0.17301 0.65827 0.0
C411 C 0.63314 0.20398 0.60409 0.0
H412 H 0.60901 0.32523 0.33124 0.0
H413 H 0.63402 0.31292 0.38719 0.0
H414 H 0.58312 0.381 0.31906 0.0
H415 H 0.6078 0.41442 0.42002 0.0
H416 H 0.55986 0.2012 0.69481 0.0
H417 H 0.57284 0.21238 0.63542 0.0
H418 H 0.60096 0.17395 0.73169 0.0
H419 H 0.67081 0.16563 0.64769 0.0
C420 C 0.95692 0.47378 0.71534 0.0
C421 C 0.98233 0.47783 0.65967 0.0
C422 C 0.97401 0.45874 0.68874 0.0
C423 C 0.97496 0.51284 0.65867 0.0
C424 C 0.94769 0.50849 0.71361 0.0
C425 C 0.95769 0.52816 0.68562 0.0
N426 N 0.94627 0.45369 0.74119 0.0
C427 C 0.92342 0.46582 0.76403 0.0
C428 C 0.92703 0.5219 0.73907 0.0
C429 C 0.91432 0.50027 0.76407 0.0
Gd430 Gd 0.03789 0.36707 0.80591 0.0
Gd431 Gd 0.96261 0.39614 0.73919 0.0
N432 N 0.97981 0.42469 0.69006 0.0
C433 C 0.99628 0.4608 0.63185 0.0
C434 C 0.99121 0.4076 0.66226 0.0
C435 C 1.00024 0.42542 0.63297 0.0
H436 H 0.99359 0.3803 0.663 0.0
H437 H 1.01009 0.41187 0.61128 0.0
H438 H 0.98277 0.39499 0.86642 0.0
H439 H 0.91167 0.44873 0.78189 0.0
H440 H 0.94804 0.37004 0.91138 0.0
H441 H 1.00299 0.47456 0.60903 0.0
H442 H 0.98137 0.52801 0.63666 0.0
H443 H 0.08252 0.30273 0.77356 0.0
H444 H 0.91935 0.54843 0.73866 0.0
H445 H 0.89689 0.50993 0.78286 0.0
H446 H 0.9782 0.25168 0.91159 0.0
H447 H 0.95098 0.55491 0.68393 0.0
H448 H 0.05896 0.21263 0.83017 0.0
H449 H 0.09028 0.24096 0.78388 0.0
N450 N 0.04723 0.30888 0.81355 0.0
C451 C 0.03032 0.29409 0.83969 0.0
C452 C 0.06873 0.29048 0.79377 0.0
C453 C 0.0556 0.23971 0.82588 0.0
C454 C 0.07325 0.2556 0.79964 0.0
C455 C 0.03372 0.2589 0.8462 0.0
H456 H 0.01711 0.21685 0.87761 0.0
N457 N 1.00461 0.3478 0.85145 0.0
C458 C 1.00829 0.31398 0.85899 0.0
C459 C 0.96708 0.31919 0.90378 0.0
C460 C 0.98927 0.29878 0.88512 0.0
C461 C 0.98403 0.36799 0.87054 0.0
C462 C 0.96465 0.35395 0.89661 0.0
O463 O 0.01702 0.41309 0.72612 0.0
O464 O 0.04528 0.4162 0.77699 0.0
O465 O 0.06288 0.38156 0.85297 0.0
O466 O 0.09268 0.36321 0.80981 0.0
O467 O 0.99275 0.34825 0.7296 0.0
O468 O 0.04775 0.35243 0.75032 0.0
O469 O 0.99664 0.33056 0.79057 0.0
O470 O 0.95054 0.36546 0.78639 0.0
O471 O 0.93693 0.36076 0.70528 0.0
O472 O 0.90875 0.40046 0.73004 0.0
O473 O 0.01295 0.41839 0.81485 0.0
O474 O 0.95958 0.40908 0.79468 0.0
C475 C 0.0442 0.42103 0.74413 0.0
C476 C 0.02564 0.34408 0.72618 0.0
C477 C 0.12428 0.37984 0.86054 0.0
C478 C 0.1548 0.40176 0.91011 0.0
C479 C 0.18569 0.38074 0.86121 0.0
C480 C 0.15542 0.3732 0.84485 0.0
C481 C 0.18545 0.39504 0.89341 0.0
C482 C 0.12403 0.39375 0.89364 0.0
C483 C 0.09278 0.37519 0.84065 0.0
C484 C 0.99271 0.26373 0.89167 0.0
C485 C 0.0149 0.24388 0.87233 0.0
H486 H 0.95197 0.30844 0.92398 0.0
C487 C 0.96381 0.33521 0.79171 0.0
C488 C 0.98141 0.4282 0.81068 0.0
C489 C 0.88795 0.38243 0.6776 0.0
C490 C 0.83956 0.36979 0.64144 0.0
C491 C 0.87605 0.41757 0.62825 0.0
C492 C 0.89584 0.41023 0.65667 0.0
C493 C 0.84816 0.39737 0.62052 0.0
C494 C 0.85949 0.36242 0.67012 0.0
C495 C 0.90762 0.37563 0.70854 0.0
H496 H 0.20952 0.37576 0.84869 0.0
H497 H 0.15646 0.36283 0.81951 0.0
H498 H 0.20943 0.40062 0.90548 0.0
H499 H 0.10021 0.39936 0.90603 0.0
H500 H 0.88215 0.43918 0.61235 0.0
H501 H 0.91691 0.42656 0.66254 0.0
H502 H 0.83281 0.40368 0.59858 0.0
H503 H 0.85274 0.3414 0.68662 0.0
C504 C 0.96058 0.8222 0.04821 0.0
C505 C 0.95378 0.87447 0.01594 0.0
C506 C 0.94 0.84475 0.03036 0.0
C507 C 0.98868 0.88055 0.01872 0.0
C508 C 0.99528 0.8291 0.05257 0.0
C509 C 1.00935 0.85798 0.03711 0.0
N510 N 0.94633 0.79427 0.06255 0.0
C511 C 0.96433 0.77449 0.08459 0.0
C512 C 0.01454 0.80728 0.07317 0.0
C513 C 0.9988 0.78023 0.0898 0.0
Gd514 Gd 0.86695 0.70828 0.98744 0.0
Gd515 Gd 0.88892 0.786 0.05067 0.0
N516 N 0.90629 0.83833 0.02836 0.0
C517 C 0.9319 0.89764 0.99998 0.0
C518 C 0.88463 0.86195 0.01522 0.0
C519 C 0.89708 0.89169 1.00024 0.0
H520 H 0.85781 0.85828 0.01718 0.0
H521 H 0.87983 0.91024 0.98939 0.0
H522 H 0.88879 0.64786 0.04262 0.0
H523 H 0.952 0.75487 0.09889 0.0
H524 H 0.86117 0.60116 0.0744 0.0
H525 H 0.94148 0.92079 0.98856 0.0
H526 H 0.99977 0.9031 1.00753 0.0
H527 H 0.8077 0.74047 0.93385 0.0
H528 H 0.04124 0.81181 0.07734 0.0
H529 H 0.01308 0.76407 0.10695 0.0
H530 H 0.74503 0.60712 0.03891 0.0
H531 H 0.03605 0.8635 0.03986 0.0
H532 H 0.71475 0.68954 0.95433 0.0
H533 H 0.74712 0.73276 0.92251 0.0
N534 N 0.80923 0.70441 0.97438 0.0
C535 C 0.79222 0.67955 0.99126 0.0
C536 C 0.79369 0.72276 0.94928 0.0
C537 C 0.74125 0.69342 0.96013 0.0
C538 C 0.7594 0.71795 0.94221 0.0
C539 C 0.7577 0.6735 0.98463 0.0
H540 H 0.71426 0.64267 0.99758 0.0
N541 N 0.84292 0.66536 0.02031 0.0
C542 C 0.80956 0.65934 0.01466 0.0
C543 C 0.8116 0.61217 0.05408 0.0
C544 C 0.79287 0.63282 0.03184 0.0
C545 C 0.86184 0.64404 0.04022 0.0
C546 C 0.84632 0.61756 0.05798 0.0
O547 O 0.92445 0.77751 1.00475 0.0
O548 O 0.89247 0.75184 0.9627 0.0
O549 O 0.90421 0.6717 0.9686 0.0
O550 O 0.85592 0.67718 0.94358 0.0
O551 O 0.84406 0.79492 0.01655 0.0
O552 O 0.8516 0.7623 0.96804 0.0
O553 O 0.84906 0.71187 0.04158 0.0
O554 O 0.83503 0.7674 0.04715 0.0
O555 O 0.87907 0.82859 0.08518 0.0
O556 O 0.87737 0.77622 0.10297 0.0
O557 O 0.9177 0.7056 0.01455 0.0
O558 O 0.90501 0.73264 0.06449 0.0
C559 C 0.91805 0.7706 0.97245 0.0
C560 C 0.84114 0.79049 0.98371 0.0
C561 C 0.90058 0.65377 0.91121 0.0
C562 C 0.92888 0.61335 0.87351 0.0
C563 C 0.9132 0.66995 0.85332 0.0
C564 C 0.89984 0.67796 0.885 0.0
C565 C 0.92769 0.63798 0.84761 0.0
C566 C 0.91492 0.6213 0.90532 0.0
C567 C 0.88481 0.66121 0.94414 0.0
C568 C 0.75833 0.6273 0.02582 0.0
C569 C 0.74081 0.64755 1.00227 0.0
H570 H 0.79967 0.59151 0.06774 0.0
C571 C 0.82759 0.73526 0.05113 0.0
C572 C 0.92364 0.71142 0.04679 0.0
C573 C 0.88544 0.81824 0.14488 0.0
C574 C 0.87341 0.84735 0.19854 0.0
C575 C 0.91903 0.80533 0.19468 0.0
C576 C 0.91203 0.8004 0.16056 0.0
C577 C 0.89966 0.82801 0.21364 0.0
C578 C 0.86655 0.84213 0.16375 0.0
C579 C 0.87383 0.80829 0.11084 0.0
H580 H 0.91231 0.68861 0.83309 0.0
H581 H 0.88863 0.70287 0.88892 0.0
H582 H 0.93788 0.63237 0.8228 0.0
H583 H 0.91545 0.60246 0.92546 0.0
H584 H 0.93899 0.79072 0.2068 0.0
H585 H 0.92649 0.78155 0.14685 0.0
H586 H 0.905 0.82959 0.24045 0.0
H587 H 0.84616 0.85591 0.15138 0.0
C588 C 0.55882 0.54357 0.21742 0.0
C589 C 0.52152 0.53355 0.16943 0.0
C590 C 0.53497 0.5556 0.19412 0.0
C591 C 0.53201 0.49937 0.16857 0.0
C592 C 0.57005 0.50942 0.21585 0.0
C593 C 0.5562 0.48736 0.19168 0.0
N594 N 0.57231 0.56546 0.24037 0.0
C595 C 0.59922 0.55574 0.25997 0.0
C596 C 0.5957 0.49863 0.23796 0.0
C597 C 0.61066 0.52203 0.25977 0.0
Gd598 Gd 0.48777 0.65337 0.31299 0.0
Gd599 Gd 0.55101 0.62121 0.23785 0.0
N600 N 0.52518 0.58886 0.19529 0.0
C601 C 0.49803 0.54652 0.14607 0.0
C602 C 0.50256 0.60166 0.17231 0.0
C603 C 0.48853 0.58074 0.14754 0.0
H604 H 0.49369 0.6273 0.17453 0.0
H605 H 0.47007 0.59093 0.12988 0.0
H606 H 0.53574 0.62897 0.37812 0.0
H607 H 0.61201 0.57396 0.27589 0.0
H608 H 0.56833 0.65579 0.42467 0.0
H609 H 0.48708 0.53033 0.12684 0.0
H610 H 0.52187 0.4821 0.14982 0.0
H611 H 0.43544 0.71465 0.28373 0.0
H612 H 0.6049 0.47259 0.23757 0.0
H613 H 0.63133 0.51423 0.2761 0.0
H614 H 0.5491 0.77581 0.40876 0.0
H615 H 0.56448 0.46105 0.19026 0.0
H616 H 0.46803 0.80977 0.32469 0.0
H617 H 0.43038 0.7773 0.28661 0.0
N618 N 0.47835 0.71231 0.31618 0.0
C619 C 0.49749 0.72926 0.33915 0.0
C620 C 0.45324 0.72883 0.29884 0.0
C621 C 0.47104 0.78241 0.32265 0.0
C622 C 0.4498 0.7642 0.30107 0.0
C623 C 0.49456 0.76486 0.34281 0.0
H624 H 0.51259 0.80897 0.37018 0.0
N625 N 0.5201 0.67632 0.35697 0.0
C626 C 0.51832 0.71066 0.36074 0.0
C627 C 0.55508 0.70699 0.40954 0.0
C628 C 0.53639 0.72703 0.38672 0.0
C629 C 0.53629 0.65641 0.38045 0.0
C630 C 0.55462 0.6715 0.40668 0.0
O631 O 0.49708 0.59724 0.24034 0.0
O632 O 0.45983 0.63423 0.26802 0.0
O633 O 0.46601 0.61622 0.34799 0.0
O634 O 0.44416 0.66649 0.34372 0.0
O635 O 0.52532 0.67067 0.22761 0.0
O636 O 0.47583 0.6753 0.25921 0.0
O637 O 0.54391 0.66243 0.31368 0.0
O638 O 0.5573 0.67448 0.25939 0.0
O639 O 0.57355 0.63359 0.18915 0.0
O640 O 0.60529 0.6283 0.23379 0.0
O641 O 0.50779 0.59884 0.31207 0.0
O642 O 0.56151 0.606 0.29177 0.0
C643 C 0.46613 0.60909 0.24698 0.0
C644 C 0.49419 0.68129 0.23143 0.0
C645 C 0.40967 0.62366 0.3684 0.0
C646 C 0.37239 0.59752 0.41054 0.0
C647 C 0.35032 0.61502 0.35556 0.0
C648 C 0.3823 0.62639 0.3459 0.0
C649 C 0.34539 0.60058 0.38754 0.0
C650 C 0.4046 0.60936 0.40091 0.0
C651 C 0.44317 0.63726 0.35925 0.0
C652 C 0.53484 0.76267 0.38938 0.0
C653 C 0.51412 0.78157 0.36734 0.0
H654 H 0.56936 0.71863 0.42983 0.0
C655 C 0.55859 0.68206 0.29155 0.0
C656 C 0.53975 0.58944 0.31052 0.0
C657 C 0.63235 0.62361 0.18055 0.0
C658 C 0.68454 0.63615 0.15001 0.0
C659 C 0.66376 0.57808 0.15357 0.0
C660 C 0.63608 0.58904 0.17264 0.0
C661 C 0.6879 0.60143 0.14239 0.0
C662 C 0.65661 0.64722 0.16911 0.0
C663 C 0.60409 0.63557 0.20156 0.0
H664 H 0.32923 0.61736 0.33817 0.0
H665 H 0.3856 0.63757 0.32101 0.0
H666 H 0.32038 0.59179 0.39442 0.0
H667 H 0.42562 0.60725 0.4185 0.0
H668 H 0.66668 0.55134 0.14766 0.0
H669 H 0.61778 0.57059 0.18135 0.0
H670 H 0.70942 0.59238 0.12799 0.0
H671 H 0.6541 0.67395 0.17554 0.0
C672 C 0.2168 0.57178 0.21638 0.0
C673 C 0.25015 0.6233 0.21179 0.0
C674 C 0.23698 0.59339 0.19731 0.0
C675 C 0.24328 0.63081 0.24584 0.0
C676 C 0.20812 0.58036 0.24991 0.0
C677 C 0.2221 0.60952 0.26477 0.0
N678 N 0.20375 0.54367 0.20145 0.0
C679 C 0.17939 0.52508 0.21719 0.0
C680 C 0.18456 0.56014 0.267 0.0
C681 C 0.16958 0.53282 0.25028 0.0
Gd682 Gd 0.28271 0.45725 0.11259 0.0
Gd683 Gd 0.22003 0.53422 0.14551 0.0
N684 N 0.24221 0.58608 0.16413 0.0
C685 C 0.26897 0.64533 0.19131 0.0
C686 C 0.25869 0.60845 0.1436 0.0
C687 C 0.27287 0.63808 0.15695 0.0
H688 H 0.26037 0.60391 0.11687 0.0
H689 H 0.28644 0.65551 0.14066 0.0
H690 H 0.22895 0.39521 0.13232 0.0
H691 H 0.16782 0.50377 0.2045 0.0
H692 H 0.19715 0.34967 0.10343 0.0
H693 H 0.27965 0.6685 0.20152 0.0
H694 H 0.25332 0.65359 0.25744 0.0
H695 H 0.33203 0.49383 0.05205 0.0
H696 H 0.17699 0.56604 0.29266 0.0
H697 H 0.15059 0.51759 0.26286 0.0
H698 H 0.22373 0.36572 0.98606 0.0
H699 H 0.21602 0.61629 0.29063 0.0
H700 H 0.30285 0.45265 0.95667 0.0
H701 H 0.33742 0.49247 0.9903 0.0
N702 N 0.29136 0.45821 0.05367 0.0
C703 C 0.27354 0.4347 0.03583 0.0
C704 C 0.31515 0.47775 0.03784 0.0
C705 C 0.29954 0.45383 0.98385 0.0
C706 C 0.31897 0.47647 1.00272 0.0
C707 C 0.27708 0.43203 1.0004 0.0
H708 H 0.26082 0.40521 0.95539 0.0
N709 N 0.249 0.41574 0.08708 0.0
C710 C 0.25235 0.41247 0.05306 0.0
C711 C 0.21427 0.36444 0.05377 0.0
C712 C 0.2346 0.38698 0.0354 0.0
C713 C 0.23055 0.39281 0.1053 0.0
C714 C 0.21246 0.36721 0.08893 0.0
O715 O 0.27232 0.53273 0.17196 0.0
O716 O 0.31002 0.49754 0.1417 0.0
O717 O 0.30158 0.41495 0.1434 0.0
O718 O 0.3281 0.4295 0.09807 0.0
O719 O 0.24977 0.54447 0.09818 0.0
O720 O 0.2992 0.51165 0.0979 0.0
O721 O 0.22591 0.46071 0.10465 0.0
O722 O 0.21898 0.51581 0.09191 0.0
O723 O 0.18504 0.57658 0.13508 0.0
O724 O 0.16753 0.52413 0.13446 0.0
O725 O 0.26597 0.45399 0.16688 0.0
O726 O 0.21391 0.48145 0.16886 0.0
C727 C 0.30294 0.51988 0.1656 0.0
C728 C 0.28186 0.53984 0.09067 0.0
C729 C 0.36018 0.40173 0.1412 0.0
C730 C 0.39711 0.36211 0.17236 0.0
C731 C 0.4171 0.41858 0.15678 0.0
C732 C 0.38604 0.4261 0.14159 0.0
C733 C 0.4226 0.38693 0.17211 0.0
C734 C 0.36589 0.36954 0.15647 0.0
C735 C 0.3276 0.40917 0.12417 0.0
C736 C 0.23758 0.3848 1.0001 0.0
C737 C 0.25864 0.40735 0.98263 0.0
H738 H 0.20011 0.34466 0.04108 0.0
C739 C 0.21325 0.48409 0.08461 0.0
C740 C 0.23655 0.45977 0.18112 0.0
C741 C 0.12514 0.5669 0.14086 0.0
C742 C 0.07188 0.59742 0.12875 0.0
C743 C 0.0757 0.55718 0.1758 0.0
C744 C 0.1093 0.55038 0.16802 0.0
C745 C 0.05704 0.58005 0.15624 0.0
C746 C 0.10632 0.59062 0.12126 0.0
C747 C 0.15947 0.55622 0.13009 0.0
H748 H 0.437 0.43742 0.15678 0.0
H749 H 0.38229 0.45091 0.13004 0.0
H750 H 0.44693 0.38177 0.18381 0.0
H751 H 0.34602 0.3506 0.1564 0.0
H752 H 0.06368 0.54381 0.19651 0.0
H753 H 0.12226 0.53108 0.18249 0.0
H754 H 0.03052 0.58319 0.16224 0.0
H755 H 0.11829 0.6031 0.09994 0.0
C756 C 0.72152 0.94437 0.8072 0.0
C757 C 0.75486 0.89292 0.8153 0.0
C758 C 0.73969 0.92261 0.82841 0.0
C759 C 0.75256 0.8861 0.78048 0.0
C760 C 0.71777 0.93678 0.77257 0.0
C761 C 0.73393 0.90789 0.7592 0.0
N762 N 0.70677 0.97251 0.82069 0.0
C763 C 0.68522 0.99215 0.80195 0.0
C764 C 0.69731 0.9581 0.7526 0.0
C765 C 0.68049 0.98558 0.76753 0.0
Gd766 Gd 0.78878 0.05329 0.89865 0.0
Gd767 Gd 0.71813 0.98243 0.87786 0.0
N768 N 0.74145 0.92989 0.86203 0.0
C769 C 0.77102 0.87048 0.83777 0.0
C770 C 0.75444 0.90673 0.88427 0.0
C771 C 0.77005 0.877 0.8725 0.0
H772 H 0.7518 0.91065 0.91103 0.0
H773 H 0.78077 0.85881 0.8902 0.0
H774 H 0.75477 0.12387 0.86743 0.0
H775 H 0.67119 0.01249 0.81363 0.0
H776 H 0.7309 0.17829 0.88845 0.0
H777 H 0.783 0.84737 0.82873 0.0
H778 H 0.76435 0.86356 0.76991 0.0
H779 H 0.82521 0.01457 0.9676 0.0
H780 H 0.69361 0.95304 0.72592 0.0
H781 H 0.66369 1.00154 0.75261 0.0
H782 H 0.7406 0.16906 1.00938 0.0
H783 H 0.73165 0.90184 0.73256 0.0
H784 H 0.79622 0.07053 0.05512 0.0
H785 H 0.8251 0.02124 0.02907 0.0
N786 N 0.79246 0.0571 0.9582 0.0
C787 C 0.77851 0.08569 0.97191 0.0
C788 C 0.81043 0.03499 0.97826 0.0
C789 C 0.79512 0.06714 0.02794 0.0
C790 C 0.8113 0.0392 0.01335 0.0
C791 C 0.77917 0.09126 1.00716 0.0
H792 H 0.76494 0.12569 0.04751 0.0
N793 N 0.76441 0.10426 0.91669 0.0
C794 C 0.76483 0.11031 0.9505 0.0
C795 C 0.73884 0.16537 0.94098 0.0
C796 C 0.75146 0.14085 0.96363 0.0
C797 C 0.75344 0.1285 0.89434 0.0
C798 C 0.74014 0.15929 0.90616 0.0
O799 O 0.76352 0.9893 0.84141 0.0
O800 O 0.80744 1.00473 0.87627 0.0
O801 O 0.81937 0.08391 0.86277 0.0
O802 O 0.83607 0.07431 0.9148 0.0
O803 O 0.74736 0.97488 0.92604 0.0
O804 O 0.80017 0.99818 0.91678 0.0
O805 O 0.73397 0.06128 0.9115 0.0
O806 O 0.71812 1.00879 0.9291 0.0
O807 O 0.68358 0.94099 0.89119 0.0
O808 O 0.66478 0.99253 0.88286 0.0
O809 O 0.76089 0.06007 0.84772 0.0
O810 O 0.70888 0.03545 0.85901 0.0
C811 C 0.79614 0.99032 0.84878 0.0
C812 C 0.78018 0.97491 0.93066 0.0
C813 C 0.87393 0.10826 0.88145 0.0
C814 C 0.90714 0.15537 0.85849 0.0
C815 C 0.93206 0.11655 0.8997 0.0
C816 C 0.90201 0.09836 0.90111 0.0
C817 C 0.93464 0.14485 0.87863 0.0
C818 C 0.87649 0.13704 0.85995 0.0
C819 C 0.8419 0.08959 0.88622 0.0
C820 C 0.75111 0.14592 0.99877 0.0
C821 C 0.76486 0.12116 0.02048 0.0
H822 H 0.72834 0.18916 0.95009 0.0
C823 C 0.71639 0.04201 0.9319 0.0
C824 C 0.72814 0.05618 0.84134 0.0
C825 C 0.62395 0.94833 0.88071 0.0
C826 C 0.5736 0.91528 0.89455 0.0
C827 C 0.57279 0.95466 0.84704 0.0
C828 C 0.60636 0.96337 0.85351 0.0
C829 C 0.55641 0.93092 0.86753 0.0
C830 C 0.6075 0.92389 0.90104 0.0
C831 C 0.65733 0.96126 0.89115 0.0
H832 H 0.95344 0.10873 0.91508 0.0
H833 H 0.90068 0.07654 0.91793 0.0
H834 H 0.95832 0.15864 0.87795 0.0
H835 H 0.85501 0.14515 0.84477 0.0
H836 H 0.55929 0.96663 0.82627 0.0
H837 H 0.61823 0.98253 0.83781 0.0
H838 H 0.53032 0.92449 0.86214 0.0
H839 H 0.62069 0.9123 0.9223 0.0
C840 C 0.80758 0.05639 0.29709 0.0
C841 C 0.77399 0.10622 0.28235 0.0
C842 C 0.78673 0.08316 0.30681 0.0
C843 C 0.78019 0.10038 0.2479 0.0
C844 C 0.81681 0.05278 0.26279 0.0
C845 C 0.80167 0.07374 0.23813 0.0
N846 N 0.8227 0.0372 0.32154 0.0
C847 C 0.85149 0.01926 0.31418 0.0
C848 C 0.84298 0.03016 0.25461 0.0
C849 C 0.8612 0.01425 0.28056 0.0
Gd850 Gd 0.72722 0.96911 0.38896 0.0
Gd851 Gd 0.80142 0.04464 0.37675 0.0
N852 N 0.78228 0.08896 0.3404 0.0
C853 C 0.75729 0.13568 0.29329 0.0
C854 C 0.76969 0.11976 0.35099 0.0
C855 C 0.75597 0.14291 0.32777 0.0
H856 H 0.76879 0.12595 0.37732 0.0
H857 H 0.74458 0.16641 0.3365 0.0
H858 H 0.76578 0.90043 0.35749 0.0
H859 H 0.86624 1.00768 0.33427 0.0
H860 H 0.78981 0.84585 0.37847 0.0
H861 H 0.74707 0.15393 0.27528 0.0
H862 H 0.77015 0.11753 0.22877 0.0
H863 H 0.676 0.99637 0.45201 0.0
H864 H 0.85084 0.02669 0.22859 0.0
H865 H 0.88289 0.99841 0.27473 0.0
H866 H 0.76897 0.84836 0.49828 0.0
H867 H 0.80798 0.07088 0.21161 0.0
H868 H 0.70123 0.93992 0.5414 0.0
H869 H 0.66972 0.9869 0.51346 0.0
N870 N 0.7149 0.95931 0.44645 0.0
C871 C 0.72934 0.93104 0.4604 0.0
C872 C 0.69172 0.9776 0.46445 0.0
C873 C 0.70495 0.94485 0.51467 0.0
C874 C 0.68728 0.9715 0.49905 0.0
C875 C 0.72534 0.92342 0.49507 0.0
H876 H 0.73824 0.88804 0.5354 0.0
N877 N 0.74951 0.91638 0.40613 0.0
C878 C 0.74634 0.90842 0.43949 0.0
C879 C 0.77609 0.85536 0.4304 0.0
C880 C 0.7602 0.878 0.45268 0.0
C881 C 0.76419 0.89411 0.38408 0.0
C882 C 0.77776 0.86329 0.39589 0.0
O883 O 0.74682 0.05891 0.3643 0.0
O884 O 0.7317 1.007 0.3465 0.0
O885 O 0.70182 0.92965 0.35984 0.0
O886 O 0.67234 0.96827 0.3849 0.0
O887 O 0.77141 0.04098 0.42507 0.0
O888 O 0.71756 0.02046 0.41534 0.0
O889 O 0.78057 0.95946 0.40891 0.0
O890 O 0.80376 0.01135 0.42421 0.0
O891 O 0.82299 0.09128 0.39727 0.0
O892 O 0.85479 0.04765 0.3888 0.0
O893 O 0.75848 0.96822 0.34097 0.0
O894 O 0.80996 0.99036 0.35827 0.0
C895 C 0.72413 0.03911 0.35035 0.0
C896 C 0.73852 0.04293 0.42894 0.0
C897 C 0.64636 0.9139 0.37658 0.0
C898 C 0.61543 0.86168 0.36279 0.0
C899 C 0.60162 0.89357 0.41352 0.0
C900 C 0.62662 0.91737 0.40593 0.0
C901 C 0.59611 0.86587 0.39222 0.0
C902 C 0.64048 0.88591 0.35487 0.0
C903 C 0.67163 0.94019 0.36738 0.0
C904 C 0.75791 0.87129 0.48753 0.0
C905 C 0.74058 0.89399 0.5087 0.0
H906 H 0.78706 0.8317 0.43955 0.0
C907 C 0.80065 0.97808 0.42802 0.0
C908 C 0.79171 0.96993 0.33903 0.0
C909 C 0.88069 0.1009 0.38522 0.0
C910 C 0.93297 0.1321 0.39543 0.0
C911 C 0.91143 0.12512 0.33804 0.0
C912 C 0.88392 0.10677 0.35037 0.0
C913 C 0.93585 0.13763 0.36032 0.0
C914 C 0.90505 0.11375 0.40771 0.0
C915 C 0.85359 0.07921 0.39827 0.0
H916 H 0.58636 0.89665 0.43603 0.0
H917 H 0.63023 0.93863 0.42293 0.0
H918 H 0.57652 0.84773 0.39859 0.0
H919 H 0.65528 0.88299 0.33198 0.0
H920 H 0.91395 0.12951 0.31111 0.0
H921 H 0.86546 0.0968 0.33275 0.0
H922 H 0.95686 0.15194 0.35009 0.0
H923 H 0.90275 0.10862 0.4346 0.0
C924 C 0.20757 0.55927 0.54956 0.0
C925 C 0.15195 0.5337 0.5474 0.0
C926 C 0.18063 0.54409 0.56582 0.0
C927 C 0.15174 0.53693 0.51198 0.0
C928 C 0.20636 0.56498 0.51432 0.0
C929 C 0.17895 0.55253 0.49545 0.0
N930 N 0.23308 0.57183 0.56877 0.0
C931 C 0.25494 0.59487 0.55511 0.0
C932 C 0.23165 0.58485 0.4995 0.0
C933 C 0.25548 0.60071 0.52017 0.0
Gd934 Gd 0.30835 0.48907 0.65439 0.0
Gd935 Gd 0.23249 0.55658 0.62664 0.0
N936 N 0.18155 0.5418 0.60006 0.0
C937 C 0.12386 0.52174 0.56527 0.0
C938 C 0.15363 0.53202 0.61772 0.0
C939 C 0.12446 0.52159 0.60063 0.0
H940 H 0.15386 0.53214 0.64505 0.0
H941 H 0.10243 0.51357 0.61471 0.0
H942 H 0.3722 0.5384 0.62968 0.0
H943 H 0.27194 0.60896 0.57114 0.0
H944 H 0.4193 0.57034 0.65608 0.0
H945 H 0.10121 0.51371 0.55208 0.0
H946 H 0.13011 0.52868 0.49731 0.0
H947 H 0.27642 0.43918 0.71713 0.0
H948 H 0.23171 0.58983 0.47251 0.0
H949 H 0.27385 0.61792 0.50932 0.0
H950 H 0.40586 0.54988 0.77519 0.0
H951 H 0.17781 0.55624 0.46827 0.0
H952 H 0.32022 0.47179 0.8103 0.0
H953 H 0.28025 0.43522 0.77903 0.0
N954 N 0.3105 0.48103 0.71333 0.0
C955 C 0.33464 0.49938 0.72969 0.0
C956 C 0.29247 0.45686 0.73042 0.0
C957 C 0.3179 0.47444 0.78308 0.0
C958 C 0.29521 0.45386 0.76556 0.0
C959 C 0.33864 0.49686 0.76511 0.0
H960 H 0.36702 0.51451 0.80859 0.0
N961 N 0.35236 0.52159 0.67677 0.0
C962 C 0.35667 0.51948 0.71088 0.0
C963 C 0.40545 0.55615 0.70695 0.0
C964 C 0.383 0.53734 0.72695 0.0
C965 C 0.37514 0.5384 0.6569 0.0
C966 C 0.40172 0.55636 0.67175 0.0
O967 O 0.22777 0.50413 0.60164 0.0
O968 O 0.26923 0.46561 0.62141 0.0
O969 O 0.35179 0.47063 0.62593 0.0
O970 O 0.33118 0.43981 0.66608 0.0
O971 O 0.2145 0.51729 0.66358 0.0
O972 O 0.25502 0.47411 0.67368 0.0
O973 O 0.30807 0.54501 0.66707 0.0
O974 O 0.25336 0.55453 0.67999 0.0
O975 O 0.19317 0.58506 0.65234 0.0
O976 O 0.23374 0.61216 0.62821 0.0
O977 O 0.30832 0.51054 0.60118 0.0
O978 O 0.28741 0.56415 0.61123 0.0
C979 C 0.24257 0.47365 0.60294 0.0
C980 C 0.22409 0.48773 0.6764 0.0
C981 C 0.36354 0.41155 0.62372 0.0
C982 C 0.40743 0.376 0.59788 0.0
C983 C 0.34836 0.35923 0.59515 0.0
C984 C 0.33893 0.3882 0.61335 0.0
C985 C 0.38228 0.35328 0.58719 0.0
C986 C 0.39784 0.40518 0.61623 0.0
C987 C 0.3544 0.44235 0.64292 0.0
C988 C 0.38612 0.53588 0.76233 0.0
C989 C 0.36391 0.51583 0.78136 0.0
H990 H 0.42597 0.57024 0.7184 0.0
C991 C 0.28537 0.55865 0.68674 0.0
C992 C 0.30563 0.54288 0.59299 0.0
C993 C 0.18047 0.63993 0.63249 0.0
C994 C 0.14576 0.69032 0.64308 0.0
C995 C 0.13902 0.65852 0.5909 0.0
C996 C 0.1643 0.63574 0.60116 0.0
C997 C 0.12968 0.68561 0.61176 0.0
C998 C 0.17126 0.66741 0.65341 0.0
C999 C 0.2053 0.61469 0.6446 0.0
H1000 H 0.32946 0.341 0.58751 0.0
H1001 H 0.31259 0.39216 0.61967 0.0
H1002 H 0.38896 0.33042 0.5734 0.0
H1003 H 0.41701 0.42296 0.62457 0.0
H1004 H 0.12654 0.65512 0.56674 0.0
H1005 H 0.17097 0.61472 0.58484 0.0
H1006 H 0.11006 0.70311 0.60338 0.0
H1007 H 0.1836 0.67075 0.67772 0.0
H1008 H 0.15088 0.3511 0.55838 0.0
H1009 H 0.2478 0.30163 0.54917 0.0
H1010 H 0.27581 0.35445 0.56683 0.0
H1011 H 0.2725 0.41514 0.58221 0.0
H1012 H 0.17526 0.46493 0.58859 0.0
H1013 H 0.14739 0.41173 0.57322 0.0
C1014 C 0.17817 0.35187 0.56047 0.0
C1015 C 0.1973 0.32254 0.55284 0.0
C1016 C 0.19388 0.38249 0.56926 0.0
C1017 C 0.23256 0.32359 0.55589 0.0
C1018 C 0.24851 0.3539 0.56543 0.0
C1019 C 0.24519 0.41437 0.58017 0.0
C1020 C 0.22596 0.44399 0.58692 0.0
C1021 C 0.22943 0.38361 0.5716 0.0
C1022 C 0.19067 0.44276 0.58335 0.0
C1023 C 0.17474 0.41221 0.57487 0.0
H1024 H 0.83554 0.9359 0.86151 0.0
H1025 H 0.81791 0.01464 0.78781 0.0
H1026 H 0.87388 1.00365 0.76295 0.0
H1027 H 0.93002 0.975 0.76595 0.0
H1028 H 0.94937 0.90132 0.84503 0.0
H1029 H 0.89177 0.90886 0.86603 0.0
C1030 C 0.84408 0.95065 0.84016 0.0
C1031 C 0.82264 0.97595 0.82658 0.0
C1032 C 0.87719 0.94606 0.828 0.0
C1033 C 0.83351 0.99432 0.79812 0.0
C1034 C 0.86586 0.98861 0.78451 0.0
C1035 C 0.92175 0.96105 0.78815 0.0
C1036 C 0.94409 0.93765 0.80398 0.0
C1037 C 0.88835 0.96534 0.79999 0.0
C1038 C 0.93293 0.91963 0.83257 0.0
C1039 C 0.89976 0.92354 0.84426 0.0
H1040 H 0.30428 0.67666 0.01196 0.0
H1041 H 0.38133 0.68814 0.08812 0.0
H1042 H 0.36838 0.63191 0.11129 0.0
H1043 H 0.33562 0.5784 0.10904 0.0
H1044 H 0.25898 0.56704 0.03233 0.0
H1045 H 0.27195 0.62322 1.00945 0.0
C1046 C 0.31727 0.66722 0.03437 0.0
C1047 C 0.34236 0.68721 0.04951 0.0
C1048 C 0.31082 0.6341 0.04648 0.0
C1049 C 0.36056 0.67396 0.07726 0.0
C1050 C 0.35376 0.64143 0.08998 0.0
C1051 C 0.32279 0.58779 0.08653 0.0
C1052 C 0.29724 0.56812 0.07161 0.0
C1053 C 0.32936 0.62095 0.07441 0.0
C1054 C 0.27955 0.58124 0.04348 0.0
C1055 C 0.28647 0.61369 0.03082 0.0
H1056 H 0.58386 0.1167 0.33228 0.0
H1057 H 0.55917 0.02406 0.28013 0.0
H1058 H 0.61381 0.99916 0.29657 0.0
H1059 H 0.67109 1.00611 0.32037 0.0
H1060 H 0.69754 0.10093 0.36832 0.0
H1061 H 0.64052 0.12289 0.35821 0.0
C1062 C 0.59015 0.09073 0.32546 0.0
C1063 C 0.56734 0.07193 0.3056 0.0
C1064 C 0.62249 0.07739 0.3333 0.0
C1065 C 0.57616 0.03871 0.2959 0.0
C1066 C 0.60757 0.02468 0.30493 0.0
C1067 C 0.66433 0.03146 0.32888 0.0
C1068 C 0.68885 0.05181 0.34492 0.0
C1069 C 0.63139 0.04415 0.32271 0.0
C1070 C 0.67948 0.0847 0.35564 0.0
C1071 C 0.6467 0.09728 0.35004 0.0
H1072 H 0.66801 0.16018 0.50866 0.0
H1073 H 0.73389 0.22279 0.44767 0.0
H1074 H 0.76184 0.17039 0.42715 0.0
H1075 H 0.76525 0.10621 0.42699 0.0
H1076 H 0.68323 0.04927 0.47022 0.0
H1077 H 0.66217 0.10064 0.49726 0.0
C1078 C 0.68684 0.16335 0.48912 0.0
C1079 C 0.6974 0.19609 0.47854 0.0
C1080 C 0.69952 0.13385 0.47449 0.0
C1081 C 0.72456 0.19825 0.4558 0.0
C1082 C 0.7404 0.16826 0.44404 0.0
C1083 C 0.74167 0.10548 0.44051 0.0
C1084 C 0.72519 0.074 0.44535 0.0
C1085 C 0.72755 0.13591 0.45287 0.0
C1086 C 0.69616 0.07288 0.46549 0.0
C1087 C 0.68417 0.10234 0.48101 0.0
H1088 H 0.10895 0.42652 0.76988 0.0
H1089 H 0.05113 0.44353 0.67864 0.0
H1090 H 0.10221 0.46082 0.64894 0.0
H1091 H 0.16349 0.47217 0.64896 0.0
H1092 H 0.22101 0.46045 0.74078 0.0
H1093 H 0.17069 0.43839 0.76969 0.0
C1094 C 0.10734 0.43427 0.74356 0.0
C1095 C 0.07563 0.43362 0.72665 0.0
C1096 C 0.13716 0.44458 0.72656 0.0
C1097 C 0.07468 0.44348 0.69241 0.0
C1098 C 0.10409 0.45348 0.67535 0.0
C1099 C 0.16493 0.46519 0.67539 0.0
C1100 C 0.19607 0.46827 0.69265 0.0
C1101 C 0.13544 0.45421 0.69216 0.0
C1102 C 0.19774 0.45779 0.72661 0.0
C1103 C 0.16869 0.44575 0.7433 0.0
H1104 H 0.83556 0.93519 0.91573 0.0
H1105 H 0.75437 0.94667 0.98712 0.0
H1106 H 0.76267 0.88816 1.0065 0.0
H1107 H 0.79015 0.83255 1.00061 0.0
H1108 H 0.8686 0.81854 0.92658 0.0
H1109 H 0.86196 0.87782 0.90808 0.0
C1110 C 0.81968 0.92471 0.93523 0.0
C1111 C 0.79387 0.945 0.94927 0.0
C1112 C 0.82287 0.89004 0.94447 0.0
C1113 C 0.77444 0.9316 0.97589 0.0
C1114 C 0.77864 0.8979 0.98646 0.0
C1115 C 0.80504 0.8422 0.97965 0.0
C1116 C 0.82966 0.82105 0.96475 0.0
C1117 C 0.80188 0.87657 0.9701 0.0
C1118 C 0.84917 0.83405 0.93807 0.0
C1119 C 0.8459 0.86826 0.92806 0.0
H1120 H 0.44778 0.54338 0.23055 0.0
H1121 H 0.41581 0.64818 0.22156 0.0
H1122 H 0.36153 0.63066 0.19827 0.0
H1123 H 0.32182 0.58532 0.18136 0.0
H1124 H 0.35361 0.48053 0.18975 0.0
H1125 H 0.40827 0.49798 0.21251 0.0
C1126 C 0.42909 0.56228 0.22303 0.0
C1127 C 0.43593 0.597 0.22795 0.0
C1128 C 0.39728 0.55199 0.21013 0.0
C1129 C 0.41121 0.62121 0.21826 0.0
C1130 C 0.37996 0.61124 0.20506 0.0
C1131 C 0.34041 0.56639 0.18894 0.0
C1132 C 0.33326 0.53166 0.18453 0.0
C1133 C 0.37235 0.57667 0.20143 0.0
C1134 C 0.35824 0.50746 0.19338 0.0
C1135 C 0.38971 0.51741 0.20616 0.0
H1136 H 0.58591 0.17815 0.32232 0.0
H1137 H 0.48314 0.20891 0.34148 0.0
H1138 H 0.49986 0.23355 0.39578 0.0
H1139 H 0.54368 0.24384 0.43955 0.0
H1140 H 0.64614 0.21127 0.42043 0.0
H1141 H 0.62969 0.18913 0.36523 0.0
C1142 C 0.56754 0.19129 0.33792 0.0
C1143 C 0.53364 0.19281 0.32752 0.0
C1144 C 0.5771 0.20402 0.3698 0.0
C1145 C 0.50966 0.20861 0.34856 0.0
C1146 C 0.51908 0.22209 0.3799 0.0
C1147 C 0.56211 0.23132 0.42346 0.0
C1148 C 0.5959 0.22873 0.43417 0.0
C1149 C 0.55262 0.21927 0.3912 0.0
C1150 C 0.61984 0.2132 0.4128 0.0
C1151 C 0.61056 0.20082 0.38108 0.0
H1152 H 0.0446 0.28582 0.57804 0.0
H1153 H 0.14883 0.30546 0.60237 0.0
H1154 H 0.13297 0.32943 0.65659 0.0
H1155 H 0.08955 0.34194 0.69931 0.0
H1156 H 0.98634 0.31259 0.67912 0.0
H1157 H 1.00159 0.29466 0.62247 0.0
C1158 C 0.06357 0.29622 0.59493 0.0
C1159 C 0.09763 0.29595 0.58519 0.0
C1160 C 0.05451 0.30732 0.62765 0.0
C1161 C 0.12223 0.30757 0.6082 0.0
C1162 C 0.11326 0.32051 0.63973 0.0
C1163 C 0.07052 0.33123 0.68269 0.0
C1164 C 0.03686 0.32907 0.69359 0.0
C1165 C 0.07951 0.32002 0.65006 0.0
C1166 C 0.01254 0.31493 0.67155 0.0
C1167 C 0.02112 0.30475 0.63887 0.0
H1168 H 1.00887 0.85005 0.86764 0.0
H1169 H 0.93572 0.80834 0.79782 0.0
H1170 H 0.90788 0.77925 0.84494 0.0
H1171 H 0.90404 0.76679 0.90523 0.0
H1172 H 0.97585 0.81004 0.97549 0.0
H1173 H 1.00494 0.83761 0.92809 0.0
C1174 C 0.98693 0.83449 0.86229 0.0
C1175 C 0.97446 0.83145 0.82872 0.0
C1176 C 0.97092 0.8183 0.88954 0.0
C1177 C 0.94587 0.81127 0.82303 0.0
C1178 C 0.92999 0.79464 0.85006 0.0
C1179 C 0.92613 0.78213 0.91057 0.0
C1180 C 0.93748 0.78656 0.94434 0.0
C1181 C 0.94228 0.79814 0.88334 0.0
C1182 C 0.9662 0.80655 0.95011 0.0
C1183 C 0.98286 0.8222 0.92293 0.0
H1184 H 0.51743 0.6771 0.16694 0.0
H1185 H 0.4403 0.72659 0.22687 0.0
H1186 H 0.41825 0.7539 0.17553 0.0
H1187 H 0.42142 0.7626 0.11474 0.0
H1188 H 0.48291 0.69577 0.05335 0.0
H1189 H 0.51166 0.67579 0.10499 0.0
C1190 C 0.49483 0.69266 0.16907 0.0
C1191 C 0.47995 0.69886 0.20113 0.0
C1192 C 0.47992 0.70487 0.13924 0.0
C1193 C 0.45203 0.72085 0.20291 0.0
C1194 C 0.43942 0.73637 0.17348 0.0
C1195 C 0.43949 0.74208 0.112 0.0
C1196 C 0.4486 0.72958 0.07961 0.0
C1197 C 0.45293 0.72803 0.1416 0.0
C1198 C 0.47471 0.70539 0.07757 0.0
C1199 C 0.49109 0.694 0.10715 0.0
H1200 H 0.18352 0.34208 0.27592 0.0
H1201 H 0.15042 0.42796 0.33492 0.0
H1202 H 0.17928 0.46698 0.29599 0.0
H1203 H 0.21161 0.47619 0.24341 0.0
H1204 H 0.24512 0.39067 0.18508 0.0
H1205 H 0.22043 0.35164 0.22624 0.0
C1206 C 0.18315 0.36933 0.28038 0.0
C1207 C 0.16491 0.38237 0.30796 0.0
C1208 C 0.19961 0.3915 0.25784 0.0
C1209 C 0.16452 0.41758 0.31382 0.0
C1210 C 0.18081 0.43981 0.29149 0.0
C1211 C 0.21167 0.44925 0.23877 0.0
C1212 C 0.22654 0.43658 0.20912 0.0
C1213 C 0.19763 0.42707 0.2629 0.0
C1214 C 0.23132 0.40122 0.20614 0.0
C1215 C 0.21755 0.37884 0.22997 0.0
H1216 H 0.88201 0.8775 0.52222 0.0
H1217 H 0.9019 0.96981 0.5779 0.0
H1218 H 0.86535 1.00161 0.53879 0.0
H1219 H 0.83035 1.00376 0.48595 0.0
H1220 H 0.82142 0.9125 0.42631 0.0
H1221 H 0.85213 0.88017 0.46895 0.0
C1222 C 0.87939 0.90474 0.52569 0.0
C1223 C 0.89577 0.92099 0.55294 0.0
C1224 C 0.86025 0.92326 0.50198 0.0
C1225 C 0.88983 0.95615 0.55747 0.0
C1226 C 0.86917 0.97458 0.53476 0.0
C1227 C 0.83529 0.97683 0.4823 0.0
C1228 C 0.82215 0.96019 0.4535 0.0
C1229 C 0.85475 0.95851 0.50644 0.0
C1230 C 0.82946 0.9255 0.44895 0.0
C1231 C 0.8475 0.90706 0.47319 0.0
H1232 H 0.25883 0.55768 0.75039 0.0
H1233 H 0.3382 0.60197 0.69034 0.0
H1234 H 0.36349 0.62689 0.74096 0.0
H1235 H 0.36668 0.63056 0.8033 0.0
H1236 H 0.28858 0.58455 0.86359 0.0
H1237 H 0.25895 0.5663 0.81232 0.0
C1238 C 0.28114 0.57354 0.74841 0.0
C1239 C 0.29675 0.57791 0.71679 0.0
C1240 C 0.29589 0.58738 0.77782 0.0
C1241 C 0.32588 0.59814 0.71452 0.0
C1242 C 0.34037 0.61239 0.74346 0.0
C1243 C 0.34254 0.61765 0.80504 0.0
C1244 C 0.32938 0.6095 0.83706 0.0
C1245 C 0.32611 0.60647 0.7754 0.0
C1246 C 0.29872 0.59167 0.83912 0.0
C1247 C 0.28198 0.58095 0.80983 0.0
H1248 H 0.63257 0.14324 0.02105 0.0
H1249 H 0.61461 0.05297 0.0812 0.0
H1250 H 0.65102 0.02015 0.04324 0.0
H1251 H 0.68653 0.01671 0.99057 0.0
H1252 H 0.69166 0.10576 0.92636 0.0
H1253 H 0.66038 0.13869 0.96734 0.0
C1254 C 0.63528 0.11617 0.02572 0.0
C1255 C 0.61972 0.10096 0.05404 0.0
C1256 C 0.65407 0.0969 1.00259 0.0
C1257 C 0.62608 0.06599 0.05999 0.0
C1258 C 0.64667 0.04692 0.03792 0.0
C1259 C 0.68042 0.04319 0.98549 0.0
C1260 C 0.69285 0.05906 0.9559 0.0
C1261 C 0.66047 0.062 1.00873 0.0
C1262 C 0.68398 0.0932 0.94948 0.0
C1263 C 0.66575 0.11212 0.97285 0.0
H1264 H 0.62146 0.12398 0.74502 0.0
H1265 H 0.70973 0.15938 0.69151 0.0
H1266 H 0.74604 0.1287 0.73203 0.0
H1267 H 0.75233 0.09276 0.78513 0.0
H1268 H 0.66139 0.06971 0.84141 0.0
H1269 H 0.62716 0.09636 0.79853 0.0
C1270 C 0.64861 0.12645 0.74243 0.0
C1271 C 0.66233 0.14518 0.71535 0.0
C1272 C 0.66924 0.111 0.7669 0.0
C1273 C 0.69791 0.14537 0.71189 0.0
C1274 C 0.71886 0.12808 0.73541 0.0
C1275 C 0.72511 0.09407 0.78814 0.0
C1276 C 0.7097 0.07805 0.81627 0.0
C1277 C 0.7048 0.11109 0.76349 0.0
C1278 C 0.6743 0.08066 0.81982 0.0
C1279 C 0.65439 0.09601 0.7952 0.0
H1280 H 0.16841 0.43474 0.06621 0.0
H1281 H 0.23189 0.5139 0.02583 0.0
H1282 H 0.21664 0.49769 0.96825 0.0
H1283 H 0.1889 0.45817 0.92926 0.0
H1284 H 0.12475 0.37895 0.96843 0.0
H1285 H 0.13596 0.39823 0.02644 0.0
C1286 C 0.17849 0.44859 0.0447 0.0
C1287 C 0.2015 0.47528 0.05015 0.0
C1288 C 0.16935 0.43917 0.01147 0.0
C1289 C 0.2141 0.49339 0.02223 0.0
C1290 C 0.20548 0.48401 0.98929 0.0
C1291 C 0.17691 0.44548 0.95049 0.0
C1292 C 0.15616 0.41705 0.94458 0.0
C1293 C 0.18361 0.45659 0.9836 0.0
C1294 C 0.14063 0.40101 0.9723 0.0
C1295 C 0.14725 0.41188 1.00546 0.0
H1296 H 0.76867 0.93929 0.28083 0.0
H1297 H 0.85618 0.94734 0.34588 0.0
H1298 H 0.88946 0.9139 0.30643 0.0
H1299 H 0.89447 0.88338 0.2537 0.0
H1300 H 0.80593 0.86691 0.1916 0.0
H1301 H 0.77294 0.90386 0.22876 0.0
C1302 C 0.79494 0.93345 0.28642 0.0
C1303 C 0.81013 0.94666 0.31589 0.0
C1304 C 0.81398 0.91316 0.26389 0.0
C1305 C 0.84407 0.93844 0.32297 0.0
C1306 C 0.86317 0.91917 0.30045 0.0
C1307 C 0.86778 0.8869 0.2484 0.0
C1308 C 0.853 0.87158 0.21978 0.0
C1309 C 0.84847 0.90656 0.27081 0.0
C1310 C 0.81853 0.87836 0.21303 0.0
C1311 C 0.79938 0.89924 0.23461 0.0
H1312 H 0.32001 0.51029 0.53396 0.0
H1313 H 0.33461 0.60547 0.5858 0.0
H1314 H 0.35943 0.63037 0.53474 0.0
H1315 H 0.37257 0.62653 0.47343 0.0
H1316 H 0.35682 0.53154 0.42172 0.0
H1317 H 0.33763 0.50499 0.47439 0.0
C1318 C 0.3292 0.53628 0.53422 0.0
C1319 C 0.32493 0.55617 0.56347 0.0
C1320 C 0.34324 0.55053 0.50461 0.0
C1321 C 0.3371 0.58978 0.56343 0.0
C1322 C 0.35131 0.60405 0.53421 0.0
C1323 C 0.3656 0.59984 0.474 0.0
C1324 C 0.36624 0.58088 0.44383 0.0
C1325 C 0.35386 0.58492 0.50437 0.0
C1326 C 0.35663 0.5465 0.44471 0.0
C1327 C 0.34552 0.53139 0.47478 0.0
H1328 H 0.24884 0.26091 0.4723 0.0
H1329 H 0.19096 0.18595 0.41827 0.0
H1330 H 0.24289 0.16164 0.39463 0.0
H1331 H 0.30537 0.15811 0.3942 0.0
H1332 H 0.36297 0.23101 0.45144 0.0
H1333 H 0.31091 0.25963 0.46894 0.0
C1334 C 0.24769 0.23987 0.45461 0.0
C1335 C 0.21634 0.22532 0.44675 0.0
C1336 C 0.27773 0.22531 0.44209 0.0
C1337 C 0.215 0.19759 0.42442 0.0
C1338 C 0.24466 0.18362 0.41105 0.0
C1339 C 0.30645 0.18067 0.40992 0.0
C1340 C 0.33795 0.19241 0.42162 0.0
C1341 C 0.27628 0.19669 0.42041 0.0
C1342 C 0.33898 0.22138 0.44237 0.0
C1343 C 0.30925 0.23779 0.45233 0.0
H1344 H 0.12691 0.05438 0.65225 0.0
H1345 H 0.03312 0.10822 0.66853 0.0
H1346 H 1.00678 0.05611 0.68953 0.0
H1347 H 0.01181 0.99664 0.70816 0.0
H1348 H 0.10528 0.94211 0.69221 0.0
H1349 H 0.13041 0.99281 0.66659 0.0
C1350 C 0.10055 0.05441 0.65982 0.0
C1351 C 0.08193 0.08506 0.65897 0.0
C1352 C 0.08569 0.02436 0.67251 0.0
C1353 C 0.0479 0.08491 0.66913 0.0
C1354 C 0.03288 0.05517 0.68122 0.0
C1355 C 0.0375 0.9957 0.69861 0.0
C1356 C 0.05691 0.96589 0.70275 0.0
C1357 C 0.05173 0.02494 0.68381 0.0
C1358 C 0.09008 0.96504 0.69001 0.0
C1359 C 0.10442 0.994 0.6752 0.0
H1360 H 0.2295 0.87495 0.89427 0.0
H1361 H 0.16779 0.78941 0.92211 0.0
H1362 H 0.21841 0.75682 0.9385 0.0
H1363 H 0.27983 0.75581 0.95196 0.0
H1364 H 0.34091 0.84212 0.92426 0.0
H1365 H 0.29141 0.87104 0.90055 0.0
C1366 C 0.22737 0.84873 0.90278 0.0
C1367 C 0.19515 0.83428 0.90643 0.0
C1368 C 0.25654 0.83048 0.91274 0.0
C1369 C 0.19247 0.8007 0.91848 0.0
C1370 C 0.22139 0.78224 0.92817 0.0
C1371 C 0.28236 0.78049 0.93983 0.0
C1372 C 0.31388 0.797 0.94021 0.0
C1373 C 0.25353 0.79723 0.9264 0.0
C1374 C 0.31682 0.82906 0.92452 0.0
C1375 C 0.2885 0.84568 0.91105 0.0
H1376 H 0.49489 0.02417 0.19438 0.0
H1377 H 0.41262 0.09695 0.19108 0.0
H1378 H 0.37842 0.0578 0.15912 0.0
H1379 H 0.37044 1.00312 0.13413 0.0
H1380 H 0.4553 0.93421 0.12299 0.0
H1381 H 0.48914 0.97064 0.1599 0.0
C1382 C 0.46971 0.03153 0.18612 0.0
C1383 C 0.45581 0.06295 0.19652 0.0
C1384 C 0.45034 1.00931 0.1657 0.0
C1385 C 0.42343 0.07238 0.18495 0.0
C1386 C 0.4038 0.05006 0.16638 0.0
C1387 C 0.39668 0.99619 0.13828 0.0
C1388 C 0.41 0.96591 0.12467 0.0
C1389 C 0.4168 0.0184 0.157 0.0
C1390 C 0.44372 0.95706 0.13299 0.0
C1391 C 0.46342 0.97821 0.15384 0.0
H1392 H 0.8284 0.3301 0.58684 0.0
H1393 H 0.78191 0.36638 0.67846 0.0
H1394 H 0.72762 0.34193 0.66104 0.0
H1395 H 0.69241 0.31507 0.61677 0.0
H1396 H 0.74035 0.27283 0.52855 0.0
H1397 H 0.79522 0.29489 0.54724 0.0
C1398 C 0.80646 0.332 0.60318 0.0
C1399 C 0.8088 0.3501 0.63368 0.0
C1400 C 0.77568 0.31729 0.59333 0.0
C1401 C 0.78046 0.35246 0.65488 0.0
C1402 C 0.74948 0.33869 0.64484 0.0
C1403 C 0.7151 0.31022 0.60212 0.0
C1404 C 0.71266 0.29307 0.57115 0.0
C1405 C 0.74662 0.3218 0.61372 0.0
C1406 C 0.74195 0.28627 0.5524 0.0
C1407 C 0.77319 0.2989 0.56304 0.0
H1408 H 0.01326 0.48843 0.81888 0.0
H1409 H 0.9219 0.43518 0.84493 0.0
H1410 H 0.89822 0.48724 0.86955 0.0
H1411 H 0.90173 0.54954 0.87924 0.0
H1412 H 0.9928 0.60258 0.85153 0.0
H1413 H 0.01852 0.54924 0.83259 0.0
C1414 C 0.98843 0.48817 0.83053 0.0
C1415 C 0.96913 0.45826 0.82969 0.0
C1416 C 0.97485 0.51832 0.84422 0.0
C1417 C 0.93701 0.45813 0.84489 0.0
C1418 C 0.92346 0.48789 0.85894 0.0
C1419 C 0.92741 0.54919 0.86963 0.0
C1420 C 0.94536 0.57993 0.86668 0.0
C1421 C 0.94184 0.51839 0.8581 0.0
C1422 C 0.97848 0.57923 0.85385 0.0
C1423 C 0.99317 0.54876 0.84298 0.0
H1424 H 0.82193 0.70647 0.11279 0.0
H1425 H 0.76343 0.74087 0.02714 0.0
H1426 H 0.71249 0.71451 0.0509 0.0
H1427 H 0.68593 0.67735 0.09436 0.0
H1428 H 0.74408 0.64662 0.18171 0.0
H1429 H 0.79351 0.67695 0.15994 0.0
C1430 C 0.79778 0.70875 0.09983 0.0
C1431 C 0.79619 0.72509 0.06824 0.0
C1432 C 0.76858 0.69439 0.11413 0.0
C1433 C 0.76498 0.72829 0.05157 0.0
C1434 C 0.73596 0.71316 0.0651 0.0
C1435 C 0.70926 0.67804 0.10885 0.0
C1436 C 0.71162 0.65982 0.1395 0.0
C1437 C 0.73759 0.69554 0.0961 0.0
C1438 C 0.7419 0.66054 0.15807 0.0
C1439 C 0.77014 0.67769 0.14554 0.0
H1440 H 0.61907 0.46588 0.3766 0.0
H1441 H 0.53039 0.41237 0.34261 0.0
H1442 H 0.50452 0.466 0.32416 0.0
H1443 H 0.50851 0.52793 0.31416 0.0
H1444 H 0.5985 0.58103 0.34492 0.0
H1445 H 0.62224 0.52826 0.36836 0.0
C1446 C 0.59388 0.46611 0.36565 0.0
C1447 C 0.57667 0.43517 0.36096 0.0
C1448 C 0.5794 0.49709 0.35439 0.0
C1449 C 0.54421 0.43583 0.3463 0.0
C1450 C 0.52939 0.4665 0.33576 0.0
C1451 C 0.53299 0.52795 0.32663 0.0
C1452 C 0.55166 0.55827 0.32812 0.0
C1453 C 0.5469 0.49726 0.33919 0.0
C1454 C 0.58367 0.55793 0.34365 0.0
C1455 C 0.59729 0.52775 0.35694 0.0
H1456 H 0.39484 0.29742 0.1466 0.0
H1457 H 0.41542 0.3534 0.23788 0.0
H1458 H 0.43385 0.30109 0.26635 0.0
H1459 H 0.44858 0.24003 0.26402 0.0
H1460 H 0.43049 0.18428 0.17207 0.0
H1461 H 0.40667 0.23536 0.14532 0.0
C1462 C 0.40276 0.29793 0.1729 0.0
C1463 C 0.40369 0.32921 0.19018 0.0
C1464 C 0.41413 0.26773 0.18894 0.0
C1465 C 0.41451 0.32961 0.2241 0.0
C1466 C 0.42513 0.29971 0.24036 0.0
C1467 C 0.43881 0.23898 0.23837 0.0
C1468 C 0.4414 0.20847 0.22002 0.0
C1469 C 0.42569 0.2687 0.22289 0.0
C1470 C 0.42895 0.20756 0.18665 0.0
C1471 C 0.41537 0.23679 0.1713 0.0
H1472 H 0.97581 0.27027 0.77468 0.0
H1473 H 0.90557 0.33334 0.82964 0.0
H1474 H 0.87776 0.28218 0.85222 0.0
H1475 H 0.8787 0.21917 0.86174 0.0
H1476 H 0.94978 0.15778 0.80585 0.0
H1477 H 0.9718 0.20849 0.7779 0.0
C1478 C 0.95398 0.27283 0.79113 0.0
C1479 C 0.94284 0.30542 0.80073 0.0
C1480 C 0.93839 0.24351 0.80391 0.0
C1481 C 0.91445 0.30845 0.82181 0.0
C1482 C 0.89875 0.2792 0.83487 0.0
C1483 C 0.89811 0.21696 0.84251 0.0
C1484 C 0.91251 0.18482 0.8356 0.0
C1485 C 0.91109 0.24652 0.82679 0.0
C1486 C 0.93816 0.18224 0.81121 0.0
C1487 C 0.95095 0.21123 0.79548 0.0
H1488 H 0.0211 0.63879 0.15057 0.0
H1489 H 0.0737 0.60974 0.05945 0.0
H1490 H 0.03314 0.64296 0.02561 0.0
H1491 H 0.97988 0.67761 0.02188 0.0
H1492 H 0.92515 0.69873 0.11406 0.0
H1493 H 0.96846 0.66999 0.14706 0.0
C1494 C 0.02363 0.63904 0.12325 0.0
C1495 C 0.05027 0.62098 0.10779 0.0
C1496 C 0.99929 0.65646 0.10391 0.0
C1497 C 0.05365 0.62333 0.07234 0.0
C1498 C 0.03013 0.64201 0.05286 0.0
C1499 C 0.97738 0.6756 0.04914 0.0
C1500 C 0.94942 0.69088 0.06541 0.0
C1501 C 1.00233 0.65811 0.06832 0.0
C1502 C 0.94653 0.68779 0.10077 0.0
C1503 C 0.97137 0.67137 0.11981 0.0
H1504 H 0.63071 0.79596 0.37614 0.0
H1505 H 0.583 0.86067 0.30175 0.0
H1506 H 0.56308 0.81039 0.27079 0.0
H1507 H 0.5553 0.74757 0.26791 0.0
H1508 H 0.60301 0.68378 0.3433 0.0
H1509 H 0.62754 0.73377 0.37036 0.0
C1510 C 0.61668 0.79893 0.35267 0.0
C1511 C 0.60863 0.8318 0.34093 0.0
C1512 C 0.60533 0.76998 0.33519 0.0
C1513 C 0.58992 0.83552 0.31087 0.0
C1514 C 0.57836 0.80678 0.29334 0.0
C1515 C 0.5718 0.74472 0.28972 0.0
C1516 C 0.57746 0.71211 0.30365 0.0
C1517 C 0.58541 0.77382 0.30558 0.0
C1518 C 0.59839 0.70867 0.33221 0.0
C1519 C 0.61233 0.73724 0.34774 0.0
H1520 H 0.56249 0.33557 0.59209 0.0
H1521 H 0.53688 0.32084 0.48699 0.0
H1522 H 0.47956 0.34166 0.49746 0.0
H1523 H 0.4354 0.36024 0.5372 0.0
H1524 H 0.4602 0.37395 0.64254 0.0
H1525 H 0.51877 0.35648 0.63156 0.0
C1526 C 0.54424 0.33668 0.57157 0.0
C1527 C 0.5537 0.32586 0.539 0.0
C1528 C 0.51106 0.34814 0.57792 0.0
C1529 C 0.5302 0.32869 0.51238 0.0
C1530 C 0.49733 0.34042 0.51838 0.0
C1531 C 0.45374 0.3596 0.55767 0.0
C1532 C 0.44355 0.36834 0.59062 0.0
C1533 C 0.48729 0.34959 0.55114 0.0
C1534 C 0.46756 0.36766 0.61691 0.0
C1535 C 0.50098 0.35753 0.61066 0.0
H1536 H 0.09294 0.69526 0.68647 0.0
H1537 H 0.1766 0.75157 0.64533 0.0
H1538 H 0.15619 0.80363 0.67287 0.0
H1539 H 0.11166 0.83402 0.70482 0.0
H1540 H 0.02982 0.77719 0.7488 0.0
H1541 H 0.05203 0.72441 0.72408 0.0
C1542 C 0.10691 0.71887 0.68418 0.0
C1543 C 0.13616 0.71988 0.66406 0.0
C1544 C 0.09507 0.74856 0.70022 0.0
C1545 C 0.15411 0.75043 0.66091 0.0
C1546 C 0.14234 0.78014 0.67647 0.0
C1547 C 0.09912 0.80991 0.70929 0.0
C1548 C 0.06909 0.80919 0.72814 0.0
C1549 C 0.11245 0.77968 0.69557 0.0
C1550 C 0.05303 0.77802 0.73428 0.0
C1551 C 0.06565 0.74796 0.72007 0.0
H1552 H 0.48881 0.79099 0.94445 0.0
H1553 H 0.44351 0.86754 1.00743 0.0
H1554 H 0.4852 0.9091 0.98788 0.0
H1555 H 0.53073 0.92502 0.94743 0.0
H1556 H 0.57552 0.8474 0.88486 0.0
H1557 H 0.53775 0.80471 0.90927 0.0
C1558 C 0.48765 0.81674 0.95343 0.0
C1559 C 0.46211 0.82639 0.97611 0.0
C1560 C 0.51171 0.84027 0.94206 0.0
C1561 C 0.46243 0.85955 0.98936 0.0
C1562 C 0.48627 0.88335 0.97813 0.0
C1563 C 0.5326 0.89855 0.93985 0.0
C1564 C 0.55581 0.88909 0.91458 0.0
C1565 C 0.51048 0.87423 0.95375 0.0
C1566 C 0.558 0.85496 0.90454 0.0
C1567 C 0.53622 0.83069 0.91824 0.0
H1568 H 1.00098 0.12864 0.38765 0.0
H1569 H 0.92403 0.16525 0.45578 0.0
H1570 H 0.96752 0.19091 0.49174 0.0
H1571 H 0.02757 0.20688 0.50119 0.0
H1572 H 0.10313 0.17263 0.43043 0.0
H1573 H 0.0603 0.14184 0.39838 0.0
C1574 C 0.99371 0.1422 0.4104 0.0
C1575 C 0.95932 0.14531 0.41883 0.0
C1576 C 0.01873 0.15716 0.43062 0.0
C1577 C 0.95037 0.16238 0.44877 0.0
C1578 C 0.97522 0.17718 0.46927 0.0
C1579 C 0.03458 0.19184 0.4793 0.0
C1580 C 0.06839 0.19144 0.46837 0.0
C1581 C 1.0095 0.17514 0.46021 0.0
C1582 C 0.07724 0.17285 0.43941 0.0
C1583 C 0.05276 0.15549 0.42096 0.0
loop_
_geom_bond_atom_site_label_1
_geom_bond_atom_site_label_2
_geom_bond_distance
_geom_bond_site_symmetry_2
_ccdc_geom_bond_type
C0 C2 1.422 . S
C0 C4 1.415 1_455 S
C0 N6 1.369 . S
C1 C2 1.421 . S
C1 C3 1.417 1_455 S
C1 C13 1.422 . S
C2 C0 1.422 . S
C2 C1 1.421 . S
C2 N12 1.359 . S
C3 C1 1.417 1_655 S
C3 C5 1.329 . S
C3 H22 0.930 . S
C4 C0 1.415 1_655 S
C4 C5 1.437 . S
C4 C8 1.413 . S
C5 C3 1.329 . S
C5 C4 1.437 . S
C5 H27 0.929 . S
N6 C0 1.369 . S
N6 C7 1.338 . S
N6 Gd11 2.622 . S
C7 N6 1.338 . S
C7 C9 1.378 1_455 S
C7 H19 0.929 . S
C8 C4 1.413 . S
C8 C9 1.348 . S
C8 H24 0.931 . S
C9 C7 1.378 1_655 S
C9 C8 1.348 . S
C9 H25 0.930 . S
Gd10 N30 2.622 . S
Gd10 N37 2.570 . S
Gd10 O44 2.353 . S
Gd10 O45 2.468 . S
Gd10 O46 2.427 . S
Gd10 O48 2.388 . S
Gd10 O49 2.386 . S
Gd10 O53 2.307 . S
Gd10 C63 2.805 . S
Gd11 N6 2.622 . S
Gd11 N12 2.570 . S
Gd11 O43 2.386 . S
Gd11 O47 2.307 . S
Gd11 O50 2.353 . S
Gd11 O51 2.468 . S
Gd11 O52 2.427 . S
Gd11 O54 2.388 . S
Gd11 C75 2.805 . S
N12 C2 1.359 . S
N12 Gd11 2.570 . S
N12 C14 1.343 . S
C13 C1 1.422 . S
C13 C15 1.321 . S
C13 H21 0.931 . S
C14 N12 1.343 . S
C14 C15 1.390 . S
C14 H16 0.931 . S
C15 C13 1.321 . S
C15 C14 1.390 . S
C15 H17 0.930 . S
H16 C14 0.931 . S
H17 C15 0.930 . S
H18 C41 0.931 . S
H19 C7 0.929 . S
H20 C42 0.930 . S
H21 C13 0.931 . S
H22 C3 0.930 . S
H23 C32 0.929 . S
H24 C8 0.931 . S
H25 C9 0.930 . S
H26 C64 0.930 . S
H27 C5 0.929 . S
H28 C33 0.931 . S
H29 C34 0.930 . S
N30 Gd10 2.622 . S
N30 C31 1.369 . S
N30 C32 1.338 . S
C31 N30 1.369 . S
C31 C35 1.415 . S
C31 C38 1.422 . S
C32 H23 0.929 . S
C32 N30 1.338 . S
C32 C34 1.378 . S
C33 H28 0.931 . S
C33 C34 1.348 . S
C33 C35 1.413 . S
C34 H29 0.930 . S
C34 C32 1.378 . S
C34 C33 1.348 . S
C35 C31 1.415 . S
C35 C33 1.413 . S
C35 C65 1.437 . S
H36 C65 0.929 . S
N37 Gd10 2.570 . S
N37 C38 1.359 . S
N37 C41 1.343 . S
C38 C31 1.422 . S
C38 N37 1.359 . S
C38 C40 1.421 . S
C39 C40 1.422 . S
C39 C42 1.321 . S
C39 H66 0.931 . S
C40 C38 1.421 . S
C40 C39 1.422 . S
C40 C64 1.417 . S
C41 H18 0.931 . S
C41 N37 1.343 . S
C41 C42 1.390 . S
C42 H20 0.930 . S
C42 C39 1.321 . S
C42 C41 1.390 . S
O43 Gd11 2.386 . S
O43 C55 1.265 . S
O44 Gd10 2.353 . S
O44 C55 1.242 . S
O45 Gd10 2.468 . S
O45 C63 1.263 . S
O46 Gd10 2.427 . S
O46 C63 1.252 . S
O47 Gd11 2.307 . S
O47 C56 1.261 . S
O48 Gd10 2.388 . S
O48 C56 1.252 . S
O49 Gd10 2.386 . S
O49 C67 1.265 . S
O50 Gd11 2.353 . S
O50 C67 1.242 . S
O51 Gd11 2.468 . S
O51 C75 1.263 . S
O52 Gd11 2.427 . S
O52 C75 1.252 . S
O53 Gd10 2.307 . S
O53 C68 1.261 . S
O54 Gd11 2.388 . S
O54 C68 1.252 . S
C55 O43 1.265 . S
C55 O44 1.242 . S
C56 O47 1.261 . S
C56 O48 1.252 . S
C57 C60 1.394 . S
C57 C62 1.370 . S
C57 C63 1.500 . S
C58 C61 1.383 . S
C58 C62 1.395 . S
C59 C60 1.396 . S
C59 C61 1.365 . S
C59 H76 0.929 . S
C60 C57 1.394 . S
C60 C59 1.396 . S
C60 H77 0.930 . S
C61 C58 1.383 . S
C61 C59 1.365 . S
C61 H78 0.931 . S
C62 C57 1.370 . S
C62 C58 1.395 . S
C62 H79 0.930 . S
C63 Gd10 2.805 . S
C63 O45 1.263 . S
C63 O46 1.252 . S
C63 C57 1.500 . S
C64 H26 0.930 . S
C64 C40 1.417 . S
C64 C65 1.329 . S
C65 C35 1.437 . S
C65 H36 0.929 . S
C65 C64 1.329 . S
H66 C39 0.931 . S
C67 O49 1.265 . S
C67 O50 1.242 . S
C68 O53 1.261 . S
C68 O54 1.252 . S
C69 C72 1.394 . S
C69 C74 1.370 . S
C69 C75 1.500 . S
C70 C73 1.383 . S
C70 C74 1.395 . S
C71 C72 1.396 . S
C71 C73 1.365 . S
C71 H80 0.929 . S
C72 C69 1.394 . S
C72 C71 1.396 . S
C72 H81 0.930 . S
C73 C70 1.383 . S
C73 C71 1.365 . S
C73 H82 0.931 . S
C74 C69 1.370 . S
C74 C70 1.395 . S
C74 H83 0.930 . S
C75 Gd11 2.805 . S
C75 O51 1.263 . S
C75 O52 1.252 . S
C75 C69 1.500 . S
H76 C59 0.929 . S
H77 C60 0.930 . S
H78 C61 0.931 . S
H79 C62 0.930 . S
H80 C71 0.929 . S
H81 C72 0.930 . S
H82 C73 0.931 . S
H83 C74 0.930 . S
C84 C86 1.422 . S
C84 C88 1.415 . S
C84 N90 1.369 . S
C85 C86 1.421 . S
C85 C87 1.417 . S
C85 C97 1.422 . S
C86 C84 1.422 . S
C86 C85 1.421 . S
C86 N96 1.359 . S
C87 C85 1.417 . S
C87 C89 1.329 . S
C87 H106 0.930 . S
C88 C84 1.415 . S
C88 C89 1.437 . S
C88 C92 1.413 . S
C89 C87 1.329 . S
C89 C88 1.437 . S
C89 H111 0.929 . S
N90 C84 1.369 . S
N90 C91 1.338 . S
N90 Gd95 2.622 . S
C91 N90 1.338 . S
C91 C93 1.378 . S
C91 H103 0.929 1_655 S
C92 C88 1.413 . S
C92 C93 1.348 . S
C92 H108 0.931 . S
C93 C91 1.378 . S
C93 C92 1.348 . S
C93 H109 0.930 . S
Gd94 N114 2.622 . S
Gd94 N121 2.570 . S
Gd94 O128 2.353 . S
Gd94 O129 2.468 . S
Gd94 O130 2.427 . S
Gd94 O132 2.388 1_455 S
Gd94 O133 2.386 . S
Gd94 O137 2.307 . S
Gd94 C147 2.805 . S
Gd95 N90 2.622 . S
Gd95 N96 2.570 . S
Gd95 O127 2.386 . S
Gd95 O131 2.307 . S
Gd95 O134 2.353 1_655 S
Gd95 O135 2.468 . S
Gd95 O136 2.427 . S
Gd95 O138 2.388 1_655 S
Gd95 C159 2.805 . S
N96 C86 1.359 . S
N96 Gd95 2.570 . S
N96 C98 1.343 . S
C97 C85 1.422 . S
C97 C99 1.321 . S
C97 H105 0.931 . S
C98 N96 1.343 . S
C98 C99 1.390 . S
C98 H100 0.931 . S
C99 C97 1.321 . S
C99 C98 1.390 . S
C99 H101 0.930 . S
H100 C98 0.931 . S
H101 C99 0.930 . S
H102 C125 0.931 . S
H103 C91 0.929 1_455 S
H104 C126 0.930 . S
H105 C97 0.931 . S
H106 C87 0.930 . S
H107 C116 0.929 . S
H108 C92 0.931 . S
H109 C93 0.930 . S
H110 C148 0.930 . S
H111 C89 0.929 . S
H112 C117 0.931 . S
H113 C118 0.930 . S
N114 Gd94 2.622 . S
N114 C115 1.369 . S
N114 C116 1.338 . S
C115 N114 1.369 . S
C115 C119 1.415 1_565 S
C115 C122 1.422 . S
C116 H107 0.929 . S
C116 N114 1.338 . S
C116 C118 1.378 1_565 S
C117 H112 0.931 . S
C117 C118 1.348 . S
C117 C119 1.413 . S
C118 H113 0.930 . S
C118 C116 1.378 1_545 S
C118 C117 1.348 . S
C119 C115 1.415 1_545 S
C119 C117 1.413 . S
C119 C149 1.437 . S
H120 C149 0.929 . S
N121 Gd94 2.570 . S
N121 C122 1.359 . S
N121 C125 1.343 . S
C122 C115 1.422 . S
C122 N121 1.359 . S
C122 C124 1.421 . S
C123 C124 1.422 . S
C123 C126 1.321 . S
C123 H150 0.931 . S
C124 C122 1.421 . S
C124 C123 1.422 . S
C124 C148 1.417 1_565 S
C125 H102 0.931 . S
C125 N121 1.343 . S
C125 C126 1.390 . S
C126 H104 0.930 . S
C126 C123 1.321 . S
C126 C125 1.390 . S
O127 Gd95 2.386 . S
O127 C139 1.265 . S
O128 Gd94 2.353 . S
O128 C139 1.242 1_455 S
O129 Gd94 2.468 . S
O129 C147 1.263 . S
O130 Gd94 2.427 . S
O130 C147 1.252 . S
O131 Gd95 2.307 . S
O131 C140 1.261 . S
O132 Gd94 2.388 1_655 S
O132 C140 1.252 . S
O133 Gd94 2.386 . S
O133 C151 1.265 . S
O134 Gd95 2.353 1_455 S
O134 C151 1.242 . S
O135 Gd95 2.468 . S
O135 C159 1.263 . S
O136 Gd95 2.427 . S
O136 C159 1.252 . S
O137 Gd94 2.307 . S
O137 C152 1.261 . S
O138 Gd95 2.388 1_455 S
O138 C152 1.252 . S
C139 O127 1.265 . S
C139 O128 1.242 1_655 S
C140 O131 1.261 . S
C140 O132 1.252 . S
C141 C144 1.394 . S
C141 C146 1.370 . S
C141 C147 1.500 . S
C142 C145 1.383 . S
C142 C146 1.395 . S
C143 C144 1.396 . S
C143 C145 1.365 . S
C143 H160 0.929 . S
C144 C141 1.394 . S
C144 C143 1.396 . S
C144 H161 0.930 . S
C145 C142 1.383 . S
C145 C143 1.365 . S
C145 H162 0.931 . S
C146 C141 1.370 . S
C146 C142 1.395 . S
C146 H163 0.930 . S
C147 Gd94 2.805 . S
C147 O129 1.263 . S
C147 O130 1.252 . S
C147 C141 1.500 . S
C148 H110 0.930 . S
C148 C124 1.417 1_545 S
C148 C149 1.329 . S
C149 C119 1.437 . S
C149 H120 0.929 . S
C149 C148 1.329 . S
H150 C123 0.931 . S
C151 O133 1.265 . S
C151 O134 1.242 . S
C152 O137 1.261 . S
C152 O138 1.252 . S
C153 C156 1.394 . S
C153 C158 1.370 . S
C153 C159 1.500 . S
C154 C157 1.383 . S
C154 C158 1.395 . S
C155 C156 1.396 . S
C155 C157 1.365 . S
C155 H164 0.929 . S
C156 C153 1.394 . S
C156 C155 1.396 . S
C156 H165 0.930 . S
C157 C154 1.383 . S
C157 C155 1.365 . S
C157 H166 0.931 . S
C158 C153 1.370 . S
C158 C154 1.395 . S
C158 H167 0.930 . S
C159 Gd95 2.805 . S
C159 O135 1.263 . S
C159 O136 1.252 . S
C159 C153 1.500 . S
H160 C143 0.929 . S
H161 C144 0.930 . S
H162 C145 0.931 . S
H163 C146 0.930 . S
H164 C155 0.929 . S
H165 C156 0.930 . S
H166 C157 0.931 . S
H167 C158 0.930 . S
C168 C170 1.422 . S
C168 C172 1.415 . S
C168 N174 1.369 . S
C169 C170 1.421 . S
C169 C171 1.417 . S
C169 C181 1.422 . S
C170 C168 1.422 . S
C170 C169 1.421 . S
C170 N180 1.359 . S
C171 C169 1.417 . S
C171 C173 1.329 . S
C171 H190 0.930 . S
C172 C168 1.415 . S
C172 C173 1.437 . S
C172 C176 1.413 . S
C173 C171 1.329 . S
C173 C172 1.437 . S
C173 H195 0.929 . S
N174 C168 1.369 . S
N174 C175 1.338 . S
N174 Gd179 2.622 . S
C175 N174 1.338 . S
C175 C177 1.378 . S
C175 H187 0.929 1_554 S
C176 C172 1.413 . S
C176 C177 1.348 . S
C176 H192 0.931 . S
C177 C175 1.378 . S
C177 C176 1.348 . S
C177 H193 0.941 . S
Gd178 N198 2.622 . S
Gd178 N205 2.570 . S
Gd178 O212 2.353 . S
Gd178 O213 2.468 . S
Gd178 O214 2.427 . S
Gd178 O216 2.388 1_556 S
Gd178 O217 2.386 . S
Gd178 O221 2.307 . S
Gd178 C231 2.805 . S
Gd179 N174 2.622 . S
Gd179 N180 2.570 . S
Gd179 O211 2.386 . S
Gd179 O215 2.307 . S
Gd179 O218 2.353 1_554 S
Gd179 O219 2.468 . S
Gd179 O220 2.427 . S
Gd179 O222 2.388 1_554 S
Gd179 C243 2.805 . S
N180 C170 1.359 . S
N180 Gd179 2.570 . S
N180 C182 1.343 . S
C181 C169 1.422 . S
C181 C183 1.321 . S
C181 H189 0.931 . S
C182 N180 1.343 . S
C182 C183 1.390 . S
C182 H184 0.931 . S
C183 C181 1.321 . S
C183 C182 1.390 . S
C183 H185 0.930 . S
H184 C182 0.931 . S
H185 C183 0.930 . S
H186 C209 0.931 . S
H187 C175 0.929 1_556 S
H188 C210 0.930 . S
H189 C181 0.931 . S
H190 C171 0.930 . S
H191 C200 0.929 . S
H192 C176 0.931 . S
H193 C177 0.941 . S
H194 C232 0.930 . S
H195 C173 0.929 . S
H196 C201 0.931 . S
H197 C202 0.930 . S
N198 Gd178 2.622 . S
N198 C199 1.369 . S
N198 C200 1.338 . S
C199 N198 1.369 . S
C199 C203 1.415 . S
C199 C206 1.422 . S
C200 H191 0.929 . S
C200 N198 1.338 . S
C200 C202 1.378 . S
C201 H196 0.931 . S
C201 C202 1.348 . S
C201 C203 1.413 . S
C202 H197 0.930 . S
C202 C200 1.378 . S
C202 C201 1.348 . S
C203 C199 1.415 . S
C203 C201 1.413 . S
C203 C233 1.437 . S
H204 C233 0.929 . S
N205 Gd178 2.570 . S
N205 C206 1.359 . S
N205 C209 1.343 . S
C206 C199 1.422 . S
C206 N205 1.359 . S
C206 C208 1.421 . S
C207 C208 1.422 . S
C207 C210 1.321 . S
C207 H234 0.931 . S
C208 C206 1.421 . S
C208 C207 1.422 . S
C208 C232 1.417 . S
C209 H186 0.931 . S
C209 N205 1.343 . S
C209 C210 1.390 . S
C210 H188 0.930 . S
C210 C207 1.321 . S
C210 C209 1.390 . S
O211 Gd179 2.386 . S
O211 C223 1.265 . S
O212 Gd178 2.353 . S
O212 C223 1.242 1_556 S
O213 Gd178 2.468 . S
O213 C231 1.263 . S
O214 Gd178 2.427 . S
O214 C231 1.252 . S
O215 Gd179 2.307 . S
O215 C224 1.261 . S
O216 Gd178 2.388 1_554 S
O216 C224 1.252 . S
O217 Gd178 2.386 . S
O217 C235 1.265 . S
O218 Gd179 2.353 1_556 S
O218 C235 1.242 . S
O219 Gd179 2.468 . S
O219 C243 1.263 . S
O220 Gd179 2.427 . S
O220 C243 1.252 . S
O221 Gd178 2.307 . S
O221 C236 1.261 . S
O222 Gd179 2.388 1_556 S
O222 C236 1.252 . S
C223 O211 1.265 . S
C223 O212 1.242 1_554 S
C224 O215 1.261 . S
C224 O216 1.252 . S
C225 C228 1.394 . S
C225 C230 1.370 . S
C225 C231 1.500 . S
C226 C229 1.383 . S
C226 C230 1.395 . S
C227 C228 1.396 . S
C227 C229 1.365 . S
C227 H244 0.929 . S
C228 C225 1.394 . S
C228 C227 1.396 . S
C228 H245 0.930 . S
C229 C226 1.383 . S
C229 C227 1.365 . S
C229 H246 0.931 . S
C230 C225 1.370 . S
C230 C226 1.395 . S
C230 H247 0.930 . S
C231 Gd178 2.805 . S
C231 O213 1.263 . S
C231 O214 1.252 . S
C231 C225 1.500 . S
C232 H194 0.930 . S
C232 C208 1.417 . S
C232 C233 1.329 . S
C233 C203 1.437 . S
C233 H204 0.929 . S
C233 C232 1.329 . S
H234 C207 0.931 . S
C235 O217 1.265 . S
C235 O218 1.242 . S
C236 O221 1.261 . S
C236 O222 1.252 . S
C237 C240 1.394 . S
C237 C242 1.370 . S
C237 C243 1.500 . S
C238 C241 1.383 . S
C238 C242 1.395 . S
C239 C240 1.396 . S
C239 C241 1.365 . S
C239 H248 0.929 . S
C240 C237 1.394 . S
C240 C239 1.396 . S
C240 H249 0.930 . S
C241 C238 1.383 . S
C241 C239 1.365 . S
C241 H250 0.931 . S
C242 C237 1.370 . S
C242 C238 1.395 . S
C242 H251 0.930 . S
C243 Gd179 2.805 . S
C243 O219 1.263 . S
C243 O220 1.252 . S
C243 C237 1.500 . S
H244 C227 0.929 . S
H245 C228 0.930 . S
H246 C229 0.931 . S
H247 C230 0.930 . S
H248 C239 0.929 . S
H249 C240 0.930 . S
H250 C241 0.931 . S
H251 C242 0.930 . S
C252 C254 1.422 . S
C252 C256 1.415 . S
C252 N258 1.369 . S
C253 C254 1.421 . S
C253 C255 1.417 . S
C253 C265 1.422 . S
C254 C252 1.422 . S
C254 C253 1.421 . S
C254 N264 1.359 . S
C255 C253 1.417 . S
C255 C257 1.329 . S
C255 H274 0.930 . S
C256 C252 1.415 . S
C256 C257 1.437 . S
C256 C260 1.413 . S
C257 C255 1.329 . S
C257 C256 1.437 . S
C257 H279 0.929 . S
N258 C252 1.369 . S
N258 C259 1.338 . S
N258 Gd263 2.622 . S
C259 N258 1.338 . S
C259 C261 1.378 . S
C259 H271 0.929 . S
C260 C256 1.413 . S
C260 C261 1.348 . S
C260 H276 0.931 . S
C261 C259 1.378 . S
C261 C260 1.348 . S
C261 H277 0.930 . S
Gd262 N282 2.622 . S
Gd262 N289 2.570 . S
Gd262 O296 2.353 . S
Gd262 O297 2.468 . S
Gd262 O298 2.427 . S
Gd262 O300 2.388 . S
Gd262 O301 2.386 . S
Gd262 O305 2.307 . S
Gd262 C315 2.805 . S
Gd263 N258 2.622 . S
Gd263 N264 2.570 . S
Gd263 O295 2.386 . S
Gd263 O299 2.307 . S
Gd263 O302 2.353 . S
Gd263 O303 2.468 . S
Gd263 O304 2.427 . S
Gd263 O306 2.388 . S
Gd263 C327 2.805 . S
N264 C254 1.359 . S
N264 Gd263 2.570 . S
N264 C266 1.343 . S
C265 C253 1.422 . S
C265 C267 1.321 . S
C265 H273 0.931 . S
C266 N264 1.343 . S
C266 C267 1.390 . S
C266 H268 0.931 . S
C267 C265 1.321 . S
C267 C266 1.390 . S
C267 H269 0.930 . S
H268 C266 0.931 . S
H269 C267 0.930 . S
H270 C293 0.931 . S
H271 C259 0.929 . S
H272 C294 0.930 . S
H273 C265 0.931 . S
H274 C255 0.930 . S
H275 C284 0.929 . S
H276 C260 0.931 . S
H277 C261 0.930 . S
H278 C316 0.930 . S
H279 C257 0.929 . S
H280 C285 0.931 . S
H281 C286 0.930 . S
N282 Gd262 2.622 . S
N282 C283 1.369 . S
N282 C284 1.338 . S
C283 N282 1.369 . S
C283 C287 1.415 1_545 S
C283 C290 1.422 . S
C284 H275 0.929 . S
C284 N282 1.338 . S
C284 C286 1.378 1_545 S
C285 H280 0.931 . S
C285 C286 1.348 . S
C285 C287 1.413 . S
C286 H281 0.930 . S
C286 C284 1.378 1_565 S
C286 C285 1.348 . S
C287 C283 1.415 1_565 S
C287 C285 1.413 . S
C287 C317 1.437 . S
H288 C317 0.929 . S
N289 Gd262 2.570 . S
N289 C290 1.359 . S
N289 C293 1.343 . S
C290 C283 1.422 . S
C290 N289 1.359 . S
C290 C292 1.421 . S
C291 C292 1.422 . S
C291 C294 1.321 . S
C291 H318 0.931 . S
C292 C290 1.421 . S
C292 C291 1.422 . S
C292 C316 1.417 1_545 S
C293 H270 0.931 . S
C293 N289 1.343 . S
C293 C294 1.390 . S
C294 H272 0.930 . S
C294 C291 1.321 . S
C294 C293 1.390 . S
O295 Gd263 2.386 . S
O295 C307 1.265 . S
O296 Gd262 2.353 . S
O296 C307 1.242 . S
O297 Gd262 2.468 . S
O297 C315 1.263 . S
O298 Gd262 2.427 . S
O298 C315 1.252 . S
O299 Gd263 2.307 . S
O299 C308 1.261 . S
O300 Gd262 2.388 . S
O300 C308 1.252 . S
O301 Gd262 2.386 . S
O301 C319 1.265 . S
O302 Gd263 2.353 . S
O302 C319 1.242 . S
O303 Gd263 2.468 . S
O303 C327 1.263 . S
O304 Gd263 2.427 . S
O304 C327 1.252 . S
O305 Gd262 2.307 . S
O305 C320 1.261 . S
O306 Gd263 2.388 . S
O306 C320 1.252 . S
C307 O295 1.265 . S
C307 O296 1.242 . S
C308 O299 1.261 . S
C308 O300 1.252 . S
C309 C312 1.394 . S
C309 C314 1.370 . S
C309 C315 1.500 . S
C310 C313 1.383 . S
C310 C314 1.395 . S
C311 C312 1.396 . S
C311 C313 1.365 . S
C311 H328 0.929 . S
C312 C309 1.394 . S
C312 C311 1.396 . S
C312 H329 0.930 . S
C313 C310 1.383 . S
C313 C311 1.365 . S
C313 H330 0.931 . S
C314 C309 1.370 . S
C314 C310 1.395 . S
C314 H331 0.930 . S
C315 Gd262 2.805 . S
C315 O297 1.263 . S
C315 O298 1.252 . S
C315 C309 1.500 . S
C316 H278 0.930 . S
C316 C292 1.417 1_565 S
C316 C317 1.329 . S
C317 C287 1.437 . S
C317 H288 0.929 . S
C317 C316 1.329 . S
H318 C291 0.931 . S
C319 O301 1.265 . S
C319 O302 1.242 . S
C320 O305 1.261 . S
C320 O306 1.252 . S
C321 C324 1.394 . S
C321 C326 1.370 . S
C321 C327 1.500 . S
C322 C325 1.383 . S
C322 C326 1.395 . S
C323 C324 1.396 . S
C323 C325 1.365 . S
C323 H332 0.929 . S
C324 C321 1.394 . S
C324 C323 1.396 . S
C324 H333 0.930 . S
C325 C322 1.383 . S
C325 C323 1.365 . S
C325 H334 0.931 . S
C326 C321 1.370 . S
C326 C322 1.395 . S
C326 H335 0.930 . S
C327 Gd263 2.805 . S
C327 O303 1.263 . S
C327 O304 1.252 . S
C327 C321 1.500 . S
H328 C311 0.929 . S
H329 C312 0.930 . S
H330 C313 0.931 . S
H331 C314 0.930 . S
H332 C323 0.929 . S
H333 C324 0.930 . S
H334 C325 0.931 . S
H335 C326 0.930 . S
C336 C338 1.422 . S
C336 C340 1.415 . S
C336 N342 1.369 . S
C337 C338 1.421 . S
C337 C339 1.417 . S
C337 C349 1.422 . S
C338 C336 1.422 . S
C338 C337 1.421 . S
C338 N348 1.359 . S
C339 C337 1.417 . S
C339 C341 1.329 . S
C339 H358 0.930 . S
C340 C336 1.415 . S
C340 C341 1.437 . S
C340 C344 1.413 . S
C341 C339 1.329 . S
C341 C340 1.437 . S
C341 H363 0.929 . S
N342 C336 1.369 . S
N342 C343 1.338 . S
N342 Gd347 2.622 . S
C343 N342 1.338 . S
C343 C345 1.378 . S
C343 H355 0.929 . S
C344 C340 1.413 . S
C344 C345 1.348 . S
C344 H360 0.931 . S
C345 C343 1.378 . S
C345 C344 1.348 . S
C345 H361 0.930 . S
Gd346 N366 2.622 . S
Gd346 N373 2.570 . S
Gd346 O380 2.353 . S
Gd346 O381 2.468 . S
Gd346 O382 2.427 . S
Gd346 O384 2.388 . S
Gd346 O385 2.386 . S
Gd346 O389 2.307 . S
Gd346 C399 2.805 . S
Gd347 N342 2.622 . S
Gd347 N348 2.570 . S
Gd347 O379 2.386 . S
Gd347 O383 2.307 . S
Gd347 O386 2.353 . S
Gd347 O387 2.468 . S
Gd347 O388 2.427 . S
Gd347 O390 2.388 . S
Gd347 C411 2.805 . S
N348 C338 1.359 . S
N348 Gd347 2.570 . S
N348 C350 1.343 . S
C349 C337 1.422 . S
C349 C351 1.321 . S
C349 H357 0.931 . S
C350 N348 1.343 . S
C350 C351 1.390 . S
C350 H352 0.931 . S
C351 C349 1.321 . S
C351 C350 1.390 . S
C351 H353 0.930 . S
H352 C350 0.931 . S
H353 C351 0.930 . S
H354 C377 0.931 . S
H355 C343 0.929 . S
H356 C378 0.930 . S
H357 C349 0.931 . S
H358 C339 0.930 . S
H359 C368 0.929 . S
H360 C344 0.931 . S
H361 C345 0.930 . S
H362 C400 0.930 . S
H363 C341 0.929 . S
H364 C369 0.931 . S
H365 C370 0.930 . S
N366 Gd346 2.622 . S
N366 C367 1.369 . S
N366 C368 1.338 . S
C367 N366 1.369 . S
C367 C371 1.415 . S
C367 C374 1.422 . S
C368 H359 0.929 . S
C368 N366 1.338 . S
C368 C370 1.378 . S
C369 H364 0.931 . S
C369 C370 1.348 . S
C369 C371 1.413 . S
C370 H365 0.930 . S
C370 C368 1.378 . S
C370 C369 1.348 . S
C371 C367 1.415 . S
C371 C369 1.413 . S
C371 C401 1.437 . S
H372 C401 0.929 . S
N373 Gd346 2.570 . S
N373 C374 1.359 . S
N373 C377 1.343 . S
C374 C367 1.422 . S
C374 N373 1.359 . S
C374 C376 1.421 . S
C375 C376 1.422 . S
C375 C378 1.321 . S
C375 H402 0.931 . S
C376 C374 1.421 . S
C376 C375 1.422 . S
C376 C400 1.417 . S
C377 H354 0.931 . S
C377 N373 1.343 . S
C377 C378 1.390 . S
C378 H356 0.930 . S
C378 C375 1.321 . S
C378 C377 1.390 . S
O379 Gd347 2.386 . S
O379 C391 1.265 . S
O380 Gd346 2.353 . S
O380 C391 1.242 . S
O381 Gd346 2.468 . S
O381 C399 1.263 . S
O382 Gd346 2.427 . S
O382 C399 1.252 . S
O383 Gd347 2.307 . S
O383 C392 1.261 . S
O384 Gd346 2.388 . S
O384 C392 1.252 . S
O385 Gd346 2.386 . S
O385 C403 1.265 . S
O386 Gd347 2.353 . S
O386 C403 1.242 . S
O387 Gd347 2.468 . S
O387 C411 1.263 . S
O388 Gd347 2.427 . S
O388 C411 1.252 . S
O389 Gd346 2.307 . S
O389 C404 1.261 . S
O390 Gd347 2.388 . S
O390 C404 1.252 . S
C391 O379 1.265 . S
C391 O380 1.242 . S
C392 O383 1.261 . S
C392 O384 1.252 . S
C393 C396 1.394 . S
C393 C398 1.370 . S
C393 C399 1.500 . S
C394 C397 1.383 . S
C394 C398 1.395 . S
C395 C396 1.396 . S
C395 C397 1.365 . S
C395 H412 0.929 . S
C396 C393 1.394 . S
C396 C395 1.396 . S
C396 H413 0.930 . S
C397 C394 1.383 . S
C397 C395 1.365 . S
C397 H414 0.931 . S
C398 C393 1.370 . S
C398 C394 1.395 . S
C398 H415 0.930 . S
C399 Gd346 2.805 . S
C399 O381 1.263 . S
C399 O382 1.252 . S
C399 C393 1.500 . S
C400 H362 0.930 . S
C400 C376 1.417 . S
C400 C401 1.329 . S
C401 C371 1.437 . S
C401 H372 0.929 . S
C401 C400 1.329 . S
H402 C375 0.931 . S
C403 O385 1.265 . S
C403 O386 1.242 . S
C404 O389 1.261 . S
C404 O390 1.252 . S
C405 C408 1.394 . S
C405 C410 1.370 . S
C405 C411 1.500 . S
C406 C409 1.383 . S
C406 C410 1.395 . S
C407 C408 1.396 . S
C407 C409 1.365 . S
C407 H416 0.929 . S
C408 C405 1.394 . S
C408 C407 1.396 . S
C408 H417 0.930 . S
C409 C406 1.383 . S
C409 C407 1.365 . S
C409 H418 0.931 . S
C410 C405 1.370 . S
C410 C406 1.395 . S
C410 H419 0.930 . S
C411 Gd347 2.805 . S
C411 O387 1.263 . S
C411 O388 1.252 . S
C411 C405 1.500 . S
H412 C395 0.929 . S
H413 C396 0.930 . S
H414 C397 0.931 . S
H415 C398 0.930 . S
H416 C407 0.929 . S
H417 C408 0.930 . S
H418 C409 0.931 . S
H419 C410 0.930 . S
C420 C422 1.422 . S
C420 C424 1.415 . S
C420 N426 1.369 . S
C421 C422 1.421 . S
C421 C423 1.417 . S
C421 C433 1.422 . S
C422 C420 1.422 . S
C422 C421 1.421 . S
C422 N432 1.359 . S
C423 C421 1.417 . S
C423 C425 1.329 . S
C423 H442 0.930 . S
C424 C420 1.415 . S
C424 C425 1.437 . S
C424 C428 1.413 . S
C425 C423 1.329 . S
C425 C424 1.437 . S
C425 H447 0.929 . S
N426 C420 1.369 . S
N426 C427 1.338 . S
N426 Gd431 2.622 . S
C427 N426 1.338 . S
C427 C429 1.378 . S
C427 H439 0.929 . S
C428 C424 1.413 . S
C428 C429 1.348 . S
C428 H444 0.931 . S
C429 C427 1.378 . S
C429 C428 1.348 . S
C429 H445 0.930 . S
Gd430 N450 2.622 . S
Gd430 N457 2.570 . S
Gd430 O464 2.353 . S
Gd430 O465 2.468 . S
Gd430 O466 2.427 . S
Gd430 O468 2.388 . S
Gd430 O469 2.386 1_455 S
Gd430 O473 2.307 1_455 S
Gd430 C483 2.805 . S
Gd431 N426 2.622 . S
Gd431 N432 2.570 . S
Gd431 O463 2.386 1_655 S
Gd431 O467 2.307 . S
Gd431 O470 2.353 . S
Gd431 O471 2.468 . S
Gd431 O472 2.427 . S
Gd431 O474 2.388 . S
Gd431 C495 2.805 . S
N432 C422 1.359 . S
N432 Gd431 2.570 . S
N432 C434 1.343 . S
C433 C421 1.422 . S
C433 C435 1.319 1_655 S
C433 H441 0.931 1_655 S
C434 N432 1.343 . S
C434 C435 1.378 1_655 S
C434 H436 0.931 . S
C435 C433 1.319 1_455 S
C435 C434 1.378 1_455 S
C435 H437 0.945 . S
H436 C434 0.931 . S
H437 C435 0.945 . S
H438 C461 0.931 . S
H439 C427 0.929 . S
H440 C462 0.930 . S
H441 C433 0.931 1_455 S
H442 C423 0.930 . S
H443 C452 0.929 . S
H444 C428 0.931 . S
H445 C429 0.930 . S
H446 C484 0.931 1_655 S
H447 C425 0.929 . S
H448 C453 0.931 . S
H449 C454 0.930 . S
N450 Gd430 2.622 . S
N450 C451 1.369 . S
N450 C452 1.338 . S
C451 N450 1.369 . S
C451 C455 1.415 . S
C451 C458 1.422 . S
C452 H443 0.929 . S
C452 N450 1.338 . S
C452 C454 1.378 . S
C453 H448 0.931 . S
C453 C454 1.348 . S
C453 C455 1.413 . S
C454 H449 0.930 . S
C454 C452 1.378 . S
C454 C453 1.348 . S
C455 C451 1.415 . S
C455 C453 1.413 . S
C455 C485 1.437 . S
H456 C485 0.929 . S
N457 Gd430 2.570 . S
N457 C458 1.359 . S
N457 C461 1.343 1_455 S
C458 C451 1.422 . S
C458 N457 1.359 . S
C458 C460 1.421 1_455 S
C459 C460 1.422 . S
C459 C462 1.321 . S
C459 H486 0.931 . S
C460 C458 1.421 1_655 S
C460 C459 1.422 . S
C460 C484 1.418 1_655 S
C461 H438 0.931 . S
C461 N457 1.343 1_655 S
C461 C462 1.390 . S
C462 H440 0.930 . S
C462 C459 1.321 . S
C462 C461 1.390 . S
O463 Gd431 2.386 1_455 S
O463 C475 1.265 . S
O464 Gd430 2.353 . S
O464 C475 1.242 . S
O465 Gd430 2.468 . S
O465 C483 1.263 . S
O466 Gd430 2.427 . S
O466 C483 1.252 . S
O467 Gd431 2.307 . S
O467 C476 1.261 1_655 S
O468 Gd430 2.388 . S
O468 C476 1.252 . S
O469 Gd430 2.386 1_655 S
O469 C487 1.265 . S
O470 Gd431 2.353 . S
O470 C487 1.242 . S
O471 Gd431 2.468 . S
O471 C495 1.263 . S
O472 Gd431 2.427 . S
O472 C495 1.252 . S
O473 Gd430 2.307 1_655 S
O473 C488 1.261 . S
O474 Gd431 2.388 . S
O474 C488 1.252 . S
C475 O463 1.265 . S
C475 O464 1.242 . S
C476 O467 1.261 1_455 S
C476 O468 1.252 . S
C477 C480 1.394 . S
C477 C482 1.370 . S
C477 C483 1.500 . S
C478 C481 1.383 . S
C478 C482 1.395 . S
C479 C480 1.396 . S
C479 C481 1.365 . S
C479 H496 0.929 . S
C480 C477 1.394 . S
C480 C479 1.396 . S
C480 H497 0.930 . S
C481 C478 1.383 . S
C481 C479 1.365 . S
C481 H498 0.931 . S
C482 C477 1.370 . S
C482 C478 1.395 . S
C482 H499 0.930 . S
C483 Gd430 2.805 . S
C483 O465 1.263 . S
C483 O466 1.252 . S
C483 C477 1.500 . S
C484 H446 0.931 1_455 S
C484 C460 1.418 1_455 S
C484 C485 1.327 . S
C485 C455 1.437 . S
C485 H456 0.929 . S
C485 C484 1.327 . S
H486 C459 0.931 . S
C487 O469 1.265 . S
C487 O470 1.242 . S
C488 O473 1.261 . S
C488 O474 1.252 . S
C489 C492 1.394 . S
C489 C494 1.370 . S
C489 C495 1.500 . S
C490 C493 1.383 . S
C490 C494 1.395 . S
C491 C492 1.396 . S
C491 C493 1.365 . S
C491 H500 0.929 . S
C492 C489 1.394 . S
C492 C491 1.396 . S
C492 H501 0.930 . S
C493 C490 1.383 . S
C493 C491 1.365 . S
C493 H502 0.931 . S
C494 C489 1.370 . S
C494 C490 1.395 . S
C494 H503 0.930 . S
C495 Gd431 2.805 . S
C495 O471 1.263 . S
C495 O472 1.252 . S
C495 C489 1.500 . S
H496 C479 0.929 . S
H497 C480 0.930 . S
H498 C481 0.931 . S
H499 C482 0.930 . S
H500 C491 0.929 . S
H501 C492 0.930 . S
H502 C493 0.931 . S
H503 C494 0.930 . S
C504 C506 1.422 . S
C504 C508 1.415 1_655 S
C504 N510 1.369 . S
C505 C506 1.421 . S
C505 C507 1.390 1_655 S
C505 C517 1.406 1_554 S
C506 C504 1.422 . S
C506 C505 1.421 . S
C506 N516 1.359 . S
C507 C505 1.390 1_455 S
C507 C509 1.345 . S
C507 H526 0.942 . S
C508 C504 1.415 1_455 S
C508 C509 1.437 . S
C508 C512 1.413 . S
C509 C507 1.345 . S
C509 C508 1.437 . S
C509 H531 0.929 . S
N510 C504 1.369 . S
N510 C511 1.338 . S
N510 Gd515 2.622 . S
C511 N510 1.338 . S
C511 C513 1.378 1_655 S
C511 H523 0.929 . S
C512 C508 1.413 . S
C512 C513 1.348 . S
C512 H528 0.931 . S
C513 C511 1.378 1_455 S
C513 C512 1.348 . S
C513 H529 0.930 . S
Gd514 N534 2.622 . S
Gd514 N541 2.570 . S
Gd514 O548 2.353 . S
Gd514 O549 2.468 . S
Gd514 O550 2.427 . S
Gd514 O552 2.388 . S
Gd514 O553 2.386 1_556 S
Gd514 O557 2.307 1_556 S
Gd514 C567 2.805 . S
Gd515 N510 2.622 . S
Gd515 N516 2.570 . S
Gd515 O547 2.386 1_554 S
Gd515 O551 2.307 . S
Gd515 O554 2.353 . S
Gd515 O555 2.468 . S
Gd515 O556 2.427 . S
Gd515 O558 2.388 . S
Gd515 C579 2.805 . S
N516 C506 1.359 . S
N516 Gd515 2.570 . S
N516 C518 1.343 . S
C517 C505 1.406 1_556 S
C517 C519 1.324 . S
C517 H525 0.945 . S
C518 N516 1.343 . S
C518 C519 1.390 1_554 S
C518 H520 0.931 . S
C519 C517 1.324 . S
C519 C518 1.390 1_556 S
C519 H521 0.930 . S
H520 C518 0.931 . S
H521 C519 0.930 . S
H522 C545 0.931 . S
H523 C511 0.929 . S
H524 C546 0.930 . S
H525 C517 0.945 . S
H526 C507 0.942 . S
H527 C536 0.929 . S
H528 C512 0.931 . S
H529 C513 0.930 . S
H530 C568 0.930 1_554 S
H531 C509 0.929 . S
H532 C537 0.931 . S
H533 C538 0.930 . S
N534 Gd514 2.622 . S
N534 C535 1.369 . S
N534 C536 1.338 . S
C535 N534 1.369 . S
C535 C539 1.415 . S
C535 C542 1.422 . S
C536 H527 0.929 . S
C536 N534 1.338 . S
C536 C538 1.378 . S
C537 H532 0.931 . S
C537 C538 1.348 . S
C537 C539 1.413 . S
C538 H533 0.930 . S
C538 C536 1.378 . S
C538 C537 1.348 . S
C539 C535 1.415 . S
C539 C537 1.413 . S
C539 C569 1.437 . S
H540 C569 0.929 . S
N541 Gd514 2.570 . S
N541 C542 1.359 . S
N541 C545 1.343 1_556 S
C542 C535 1.422 . S
C542 N541 1.359 . S
C542 C544 1.421 1_556 S
C543 C544 1.422 . S
C543 C546 1.321 . S
C543 H570 0.931 . S
C544 C542 1.421 1_554 S
C544 C543 1.422 . S
C544 C568 1.417 1_554 S
C545 H522 0.931 . S
C545 N541 1.343 1_554 S
C545 C546 1.390 . S
C546 H524 0.930 . S
C546 C543 1.321 . S
C546 C545 1.390 . S
O547 Gd515 2.386 1_556 S
O547 C559 1.265 . S
O548 Gd514 2.353 . S
O548 C559 1.242 . S
O549 Gd514 2.468 . S
O549 C567 1.263 . S
O550 Gd514 2.427 . S
O550 C567 1.252 . S
O551 Gd515 2.307 . S
O551 C560 1.261 1_554 S
O552 Gd514 2.388 . S
O552 C560 1.252 . S
O553 Gd514 2.386 1_554 S
O553 C571 1.265 . S
O554 Gd515 2.353 . S
O554 C571 1.242 . S
O555 Gd515 2.468 . S
O555 C579 1.263 . S
O556 Gd515 2.427 . S
O556 C579 1.252 . S
O557 Gd514 2.307 1_554 S
O557 C572 1.261 . S
O558 Gd515 2.388 . S
O558 C572 1.252 . S
C559 O547 1.265 . S
C559 O548 1.242 . S
C560 O551 1.261 1_556 S
C560 O552 1.252 . S
C561 C564 1.394 . S
C561 C566 1.370 . S
C561 C567 1.500 . S
C562 C565 1.383 . S
C562 C566 1.395 . S
C563 C564 1.396 . S
C563 C565 1.365 . S
C563 H580 0.929 . S
C564 C561 1.394 . S
C564 C563 1.396 . S
C564 H581 0.930 . S
C565 C562 1.383 . S
C565 C563 1.365 . S
C565 H582 0.931 . S
C566 C561 1.370 . S
C566 C562 1.395 . S
C566 H583 0.930 . S
C567 Gd514 2.805 . S
C567 O549 1.263 . S
C567 O550 1.252 . S
C567 C561 1.500 . S
C568 H530 0.930 1_556 S
C568 C544 1.417 1_556 S
C568 C569 1.329 . S
C569 C539 1.437 . S
C569 H540 0.929 . S
C569 C568 1.329 . S
H570 C543 0.931 . S
C571 O553 1.265 . S
C571 O554 1.242 . S
C572 O557 1.261 . S
C572 O558 1.252 . S
C573 C576 1.394 . S
C573 C578 1.370 . S
C573 C579 1.500 . S
C574 C577 1.383 . S
C574 C578 1.395 . S
C575 C576 1.396 . S
C575 C577 1.365 . S
C575 H584 0.929 . S
C576 C573 1.394 . S
C576 C575 1.396 . S
C576 H585 0.930 . S
C577 C574 1.383 . S
C577 C575 1.365 . S
C577 H586 0.931 . S
C578 C573 1.370 . S
C578 C574 1.395 . S
C578 H587 0.930 . S
C579 Gd515 2.805 . S
C579 O555 1.263 . S
C579 O556 1.252 . S
C579 C573 1.500 . S
H580 C563 0.929 . S
H581 C564 0.930 . S
H582 C565 0.931 . S
H583 C566 0.930 . S
H584 C575 0.929 . S
H585 C576 0.930 . S
H586 C577 0.931 . S
H587 C578 0.930 . S
C588 C590 1.422 . S
C588 C592 1.415 . S
C588 N594 1.369 . S
C589 C590 1.421 . S
C589 C591 1.417 . S
C589 C601 1.422 . S
C590 C588 1.422 . S
C590 C589 1.421 . S
C590 N600 1.359 . S
C591 C589 1.417 . S
C591 C593 1.329 . S
C591 H610 0.930 . S
C592 C588 1.415 . S
C592 C593 1.437 . S
C592 C596 1.413 . S
C593 C591 1.329 . S
C593 C592 1.437 . S
C593 H615 0.929 . S
N594 C588 1.369 . S
N594 C595 1.338 . S
N594 Gd599 2.622 . S
C595 N594 1.338 . S
C595 C597 1.378 . S
C595 H607 0.929 . S
C596 C592 1.413 . S
C596 C597 1.348 . S
C596 H612 0.931 . S
C597 C595 1.378 . S
C597 C596 1.348 . S
C597 H613 0.930 . S
Gd598 N618 2.622 . S
Gd598 N625 2.570 . S
Gd598 O632 2.353 . S
Gd598 O633 2.468 . S
Gd598 O634 2.427 . S
Gd598 O636 2.388 . S
Gd598 O637 2.386 . S
Gd598 O641 2.307 . S
Gd598 C651 2.805 . S
Gd599 N594 2.622 . S
Gd599 N600 2.570 . S
Gd599 O631 2.386 . S
Gd599 O635 2.307 . S
Gd599 O638 2.353 . S
Gd599 O639 2.468 . S
Gd599 O640 2.427 . S
Gd599 O642 2.388 . S
Gd599 C663 2.805 . S
N600 C590 1.359 . S
N600 Gd599 2.570 . S
N600 C602 1.343 . S
C601 C589 1.422 . S
C601 C603 1.321 . S
C601 H609 0.931 . S
C602 N600 1.343 . S
C602 C603 1.390 . S
C602 H604 0.931 . S
C603 C601 1.321 . S
C603 C602 1.390 . S
C603 H605 0.930 . S
H604 C602 0.931 . S
H605 C603 0.930 . S
H606 C629 0.931 . S
H607 C595 0.929 . S
H608 C630 0.930 . S
H609 C601 0.931 . S
H610 C591 0.930 . S
H611 C620 0.929 . S
H612 C596 0.931 . S
H613 C597 0.930 . S
H614 C652 0.930 . S
H615 C593 0.929 . S
H616 C621 0.931 . S
H617 C622 0.930 . S
N618 Gd598 2.622 . S
N618 C619 1.369 . S
N618 C620 1.338 . S
C619 N618 1.369 . S
C619 C623 1.415 . S
C619 C626 1.422 . S
C620 H611 0.929 . S
C620 N618 1.338 . S
C620 C622 1.378 . S
C621 H616 0.931 . S
C621 C622 1.348 . S
C621 C623 1.413 . S
C622 H617 0.930 . S
C622 C620 1.378 . S
C622 C621 1.348 . S
C623 C619 1.415 . S
C623 C621 1.413 . S
C623 C653 1.437 . S
H624 C653 0.929 . S
N625 Gd598 2.570 . S
N625 C626 1.359 . S
N625 C629 1.343 . S
C626 C619 1.422 . S
C626 N625 1.359 . S
C626 C628 1.421 . S
C627 C628 1.422 . S
C627 C630 1.321 . S
C627 H654 0.931 . S
C628 C626 1.421 . S
C628 C627 1.422 . S
C628 C652 1.417 . S
C629 H606 0.931 . S
C629 N625 1.343 . S
C629 C630 1.390 . S
C630 H608 0.930 . S
C630 C627 1.321 . S
C630 C629 1.390 . S
O631 Gd599 2.386 . S
O631 C643 1.265 . S
O632 Gd598 2.353 . S
O632 C643 1.242 . S
O633 Gd598 2.468 . S
O633 C651 1.263 . S
O634 Gd598 2.427 . S
O634 C651 1.252 . S
O635 Gd599 2.307 . S
O635 C644 1.261 . S
O636 Gd598 2.388 . S
O636 C644 1.252 . S
O637 Gd598 2.386 . S
O637 C655 1.265 . S
O638 Gd599 2.353 . S
O638 C655 1.242 . S
O639 Gd599 2.468 . S
O639 C663 1.263 . S
O640 Gd599 2.427 . S
O640 C663 1.252 . S
O641 Gd598 2.307 . S
O641 C656 1.261 . S
O642 Gd599 2.388 . S
O642 C656 1.252 . S
C643 O631 1.265 . S
C643 O632 1.242 . S
C644 O635 1.261 . S
C644 O636 1.252 . S
C645 C648 1.394 . S
C645 C650 1.370 . S
C645 C651 1.500 . S
C646 C649 1.383 . S
C646 C650 1.395 . S
C647 C648 1.396 . S
C647 C649 1.365 . S
C647 H664 0.929 . S
C648 C645 1.394 . S
C648 C647 1.396 . S
C648 H665 0.930 . S
C649 C646 1.383 . S
C649 C647 1.365 . S
C649 H666 0.931 . S
C650 C645 1.370 . S
C650 C646 1.395 . S
C650 H667 0.930 . S
C651 Gd598 2.805 . S
C651 O633 1.263 . S
C651 O634 1.252 . S
C651 C645 1.500 . S
C652 H614 0.930 . S
C652 C628 1.417 . S
C652 C653 1.329 . S
C653 C623 1.437 . S
C653 H624 0.929 . S
C653 C652 1.329 . S
H654 C627 0.931 . S
C655 O637 1.265 . S
C655 O638 1.242 . S
C656 O641 1.261 . S
C656 O642 1.252 . S
C657 C660 1.394 . S
C657 C662 1.370 . S
C657 C663 1.500 . S
C658 C661 1.383 . S
C658 C662 1.395 . S
C659 C660 1.396 . S
C659 C661 1.365 . S
C659 H668 0.929 . S
C660 C657 1.394 . S
C660 C659 1.396 . S
C660 H669 0.930 . S
C661 C658 1.383 . S
C661 C659 1.365 . S
C661 H670 0.931 . S
C662 C657 1.370 . S
C662 C658 1.395 . S
C662 H671 0.930 . S
C663 Gd599 2.805 . S
C663 O639 1.263 . S
C663 O640 1.252 . S
C663 C657 1.500 . S
H664 C647 0.929 . S
H665 C648 0.930 . S
H666 C649 0.931 . S
H667 C650 0.930 . S
H668 C659 0.929 . S
H669 C660 0.930 . S
H670 C661 0.931 . S
H671 C662 0.930 . S
C672 C674 1.422 . S
C672 C676 1.415 . S
C672 N678 1.369 . S
C673 C674 1.421 . S
C673 C675 1.417 . S
C673 C685 1.422 . S
C674 C672 1.422 . S
C674 C673 1.421 . S
C674 N684 1.359 . S
C675 C673 1.417 . S
C675 C677 1.329 . S
C675 H694 0.930 . S
C676 C672 1.415 . S
C676 C677 1.437 . S
C676 C680 1.413 . S
C677 C675 1.329 . S
C677 C676 1.437 . S
C677 H699 0.929 . S
N678 C672 1.369 . S
N678 C679 1.338 . S
N678 Gd683 2.622 . S
C679 N678 1.338 . S
C679 C681 1.378 . S
C679 H691 0.929 . S
C680 C676 1.413 . S
C680 C681 1.348 . S
C680 H696 0.931 . S
C681 C679 1.378 . S
C681 C680 1.348 . S
C681 H697 0.930 . S
Gd682 N702 2.622 . S
Gd682 N709 2.570 . S
Gd682 O716 2.353 . S
Gd682 O717 2.468 . S
Gd682 O718 2.427 . S
Gd682 O720 2.388 . S
Gd682 O721 2.386 . S
Gd682 O725 2.307 . S
Gd682 C735 2.805 . S
Gd683 N678 2.622 . S
Gd683 N684 2.570 . S
Gd683 O715 2.386 . S
Gd683 O719 2.307 . S
Gd683 O722 2.353 . S
Gd683 O723 2.468 . S
Gd683 O724 2.427 . S
Gd683 O726 2.388 . S
Gd683 C747 2.805 . S
N684 C674 1.359 . S
N684 Gd683 2.570 . S
N684 C686 1.343 . S
C685 C673 1.422 . S
C685 C687 1.321 . S
C685 H693 0.931 . S
C686 N684 1.343 . S
C686 C687 1.390 . S
C686 H688 0.931 . S
C687 C685 1.321 . S
C687 C686 1.390 . S
C687 H689 0.930 . S
H688 C686 0.931 . S
H689 C687 0.930 . S
H690 C713 0.931 . S
H691 C679 0.929 . S
H692 C714 0.930 . S
H693 C685 0.931 . S
H694 C675 0.930 . S
H695 C704 0.929 . S
H696 C680 0.931 . S
H697 C681 0.930 . S
H698 C736 0.930 . S
H699 C677 0.929 . S
H700 C705 0.931 . S
H701 C706 0.930 . S
N702 Gd682 2.622 . S
N702 C703 1.369 . S
N702 C704 1.338 . S
C703 N702 1.369 . S
C703 C707 1.415 1_554 S
C703 C710 1.422 . S
C704 H695 0.929 . S
C704 N702 1.338 . S
C704 C706 1.378 1_554 S
C705 H700 0.931 . S
C705 C706 1.348 . S
C705 C707 1.413 . S
C706 H701 0.930 . S
C706 C704 1.378 1_556 S
C706 C705 1.348 . S
C707 C703 1.415 1_556 S
C707 C705 1.413 . S
C707 C737 1.437 . S
H708 C737 0.929 . S
N709 Gd682 2.570 . S
N709 C710 1.359 . S
N709 C713 1.343 . S
C710 C703 1.422 . S
C710 N709 1.359 . S
C710 C712 1.421 . S
C711 C712 1.422 . S
C711 C714 1.321 . S
C711 H738 0.931 . S
C712 C710 1.421 . S
C712 C711 1.422 . S
C712 C736 1.417 1_554 S
C713 H690 0.931 . S
C713 N709 1.343 . S
C713 C714 1.390 . S
C714 H692 0.930 . S
C714 C711 1.321 . S
C714 C713 1.390 . S
O715 Gd683 2.386 . S
O715 C727 1.265 . S
O716 Gd682 2.353 . S
O716 C727 1.242 . S
O717 Gd682 2.468 . S
O717 C735 1.263 . S
O718 Gd682 2.427 . S
O718 C735 1.252 . S
O719 Gd683 2.307 . S
O719 C728 1.261 . S
O720 Gd682 2.388 . S
O720 C728 1.252 . S
O721 Gd682 2.386 . S
O721 C739 1.265 . S
O722 Gd683 2.353 . S
O722 C739 1.242 . S
O723 Gd683 2.468 . S
O723 C747 1.263 . S
O724 Gd683 2.427 . S
O724 C747 1.252 . S
O725 Gd682 2.307 . S
O725 C740 1.261 . S
O726 Gd683 2.388 . S
O726 C740 1.252 . S
C727 O715 1.265 . S
C727 O716 1.242 . S
C728 O719 1.261 . S
C728 O720 1.252 . S
C729 C732 1.394 . S
C729 C734 1.370 . S
C729 C735 1.500 . S
C730 C733 1.383 . S
C730 C734 1.395 . S
C731 C732 1.396 . S
C731 C733 1.365 . S
C731 H748 0.929 . S
C732 C729 1.394 . S
C732 C731 1.396 . S
C732 H749 0.930 . S
C733 C730 1.383 . S
C733 C731 1.365 . S
C733 H750 0.931 . S
C734 C729 1.370 . S
C734 C730 1.395 . S
C734 H751 0.930 . S
C735 Gd682 2.805 . S
C735 O717 1.263 . S
C735 O718 1.252 . S
C735 C729 1.500 . S
C736 H698 0.930 . S
C736 C712 1.417 1_556 S
C736 C737 1.329 . S
C737 C707 1.437 . S
C737 H708 0.929 . S
C737 C736 1.329 . S
H738 C711 0.931 . S
C739 O721 1.265 . S
C739 O722 1.242 . S
C740 O725 1.261 . S
C740 O726 1.252 . S
C741 C744 1.394 . S
C741 C746 1.370 . S
C741 C747 1.500 . S
C742 C745 1.383 . S
C742 C746 1.395 . S
C743 C744 1.396 . S
C743 C745 1.365 . S
C743 H752 0.929 . S
C744 C741 1.394 . S
C744 C743 1.396 . S
C744 H753 0.930 . S
C745 C742 1.383 . S
C745 C743 1.365 . S
C745 H754 0.931 . S
C746 C741 1.370 . S
C746 C742 1.395 . S
C746 H755 0.930 . S
C747 Gd683 2.805 . S
C747 O723 1.263 . S
C747 O724 1.252 . S
C747 C741 1.500 . S
H748 C731 0.929 . S
H749 C732 0.930 . S
H750 C733 0.931 . S
H751 C734 0.930 . S
H752 C743 0.929 . S
H753 C744 0.930 . S
H754 C745 0.931 . S
H755 C746 0.930 . S
C756 C758 1.422 . S
C756 C760 1.415 . S
C756 N762 1.369 . S
C757 C758 1.421 . S
C757 C759 1.417 . S
C757 C769 1.422 . S
C758 C756 1.422 . S
C758 C757 1.421 . S
C758 N768 1.359 . S
C759 C757 1.417 . S
C759 C761 1.329 . S
C759 H778 0.930 . S
C760 C756 1.415 . S
C760 C761 1.437 . S
C760 C764 1.413 . S
C761 C759 1.329 . S
C761 C760 1.437 . S
C761 H783 0.929 . S
N762 C756 1.369 . S
N762 C763 1.338 . S
N762 Gd767 2.622 . S
C763 N762 1.338 . S
C763 C765 1.378 . S
C763 H775 0.929 1_565 S
C764 C760 1.413 . S
C764 C765 1.348 . S
C764 H780 0.931 . S
C765 C763 1.378 . S
C765 C764 1.348 . S
C765 H781 0.930 . S
Gd766 N786 2.622 . S
Gd766 N793 2.570 . S
Gd766 O800 2.353 . S
Gd766 O801 2.468 . S
Gd766 O802 2.427 . S
Gd766 O804 2.388 1_545 S
Gd766 O805 2.386 . S
Gd766 O809 2.307 . S
Gd766 C819 2.805 . S
Gd767 N762 2.622 . S
Gd767 N768 2.570 . S
Gd767 O799 2.386 . S
Gd767 O803 2.307 . S
Gd767 O806 2.353 1_565 S
Gd767 O807 2.468 . S
Gd767 O808 2.427 . S
Gd767 O810 2.388 1_565 S
Gd767 C831 2.805 . S
N768 C758 1.359 . S
N768 Gd767 2.570 . S
N768 C770 1.343 . S
C769 C757 1.422 . S
C769 C771 1.321 . S
C769 H777 0.931 . S
C770 N768 1.343 . S
C770 C771 1.390 . S
C770 H772 0.931 . S
C771 C769 1.321 . S
C771 C770 1.390 . S
C771 H773 0.930 . S
H772 C770 0.931 . S
H773 C771 0.930 . S
H774 C797 0.931 . S
H775 C763 0.929 1_545 S
H776 C798 0.930 . S
H777 C769 0.931 . S
H778 C759 0.930 . S
H779 C788 0.929 . S
H780 C764 0.931 . S
H781 C765 0.930 . S
H782 C820 0.930 . S
H783 C761 0.929 . S
H784 C789 0.931 . S
H785 C790 0.930 . S
N786 Gd766 2.622 . S
N786 C787 1.369 . S
N786 C788 1.338 . S
C787 N786 1.369 . S
C787 C791 1.415 1_556 S
C787 C794 1.422 . S
C788 H779 0.929 . S
C788 N786 1.338 . S
C788 C790 1.378 1_556 S
C789 H784 0.931 . S
C789 C790 1.348 . S
C789 C791 1.413 . S
C790 H785 0.930 . S
C790 C788 1.378 1_554 S
C790 C789 1.348 . S
C791 C787 1.415 1_554 S
C791 C789 1.413 . S
C791 C821 1.437 . S
H792 C821 0.929 . S
N793 Gd766 2.570 . S
N793 C794 1.359 . S
N793 C797 1.343 . S
C794 C787 1.422 . S
C794 N793 1.359 . S
C794 C796 1.421 . S
C795 C796 1.422 . S
C795 C798 1.321 . S
C795 H822 0.931 . S
C796 C794 1.421 . S
C796 C795 1.422 . S
C796 C820 1.417 1_556 S
C797 H774 0.931 . S
C797 N793 1.343 . S
C797 C798 1.390 . S
C798 H776 0.930 . S
C798 C795 1.321 . S
C798 C797 1.390 . S
O799 Gd767 2.386 . S
O799 C811 1.265 . S
O800 Gd766 2.353 . S
O800 C811 1.242 1_545 S
O801 Gd766 2.468 . S
O801 C819 1.263 . S
O802 Gd766 2.427 . S
O802 C819 1.252 . S
O803 Gd767 2.307 . S
O803 C812 1.261 . S
O804 Gd766 2.388 1_565 S
O804 C812 1.252 . S
O805 Gd766 2.386 . S
O805 C823 1.265 . S
O806 Gd767 2.353 1_545 S
O806 C823 1.242 . S
O807 Gd767 2.468 . S
O807 C831 1.263 . S
O808 Gd767 2.427 . S
O808 C831 1.252 . S
O809 Gd766 2.307 . S
O809 C824 1.261 . S
O810 Gd767 2.388 1_545 S
O810 C824 1.252 . S
C811 O799 1.265 . S
C811 O800 1.242 1_565 S
C812 O803 1.261 . S
C812 O804 1.252 . S
C813 C816 1.394 . S
C813 C818 1.370 . S
C813 C819 1.500 . S
C814 C817 1.383 . S
C814 C818 1.395 . S
C815 C816 1.396 . S
C815 C817 1.365 . S
C815 H832 0.929 . S
C816 C813 1.394 . S
C816 C815 1.396 . S
C816 H833 0.930 . S
C817 C814 1.383 . S
C817 C815 1.365 . S
C817 H834 0.931 . S
C818 C813 1.370 . S
C818 C814 1.395 . S
C818 H835 0.930 . S
C819 Gd766 2.805 . S
C819 O801 1.263 . S
C819 O802 1.252 . S
C819 C813 1.500 . S
C820 H782 0.930 . S
C820 C796 1.417 1_554 S
C820 C821 1.329 . S
C821 C791 1.437 . S
C821 H792 0.929 . S
C821 C820 1.329 . S
H822 C795 0.931 . S
C823 O805 1.265 . S
C823 O806 1.242 . S
C824 O809 1.261 . S
C824 O810 1.252 . S
C825 C828 1.394 . S
C825 C830 1.370 . S
C825 C831 1.500 . S
C826 C829 1.383 . S
C826 C830 1.395 . S
C827 C828 1.396 . S
C827 C829 1.365 . S
C827 H836 0.929 . S
C828 C825 1.394 . S
C828 C827 1.396 . S
C828 H837 0.930 . S
C829 C826 1.383 . S
C829 C827 1.365 . S
C829 H838 0.931 . S
C830 C825 1.370 . S
C830 C826 1.395 . S
C830 H839 0.930 . S
C831 Gd767 2.805 . S
C831 O807 1.263 . S
C831 O808 1.252 . S
C831 C825 1.500 . S
H832 C815 0.929 . S
H833 C816 0.930 . S
H834 C817 0.931 . S
H835 C818 0.930 . S
H836 C827 0.929 . S
H837 C828 0.930 . S
H838 C829 0.931 . S
H839 C830 0.930 . S
C840 C842 1.422 . S
C840 C844 1.415 . S
C840 N846 1.369 . S
C841 C842 1.421 . S
C841 C843 1.417 . S
C841 C853 1.422 . S
C842 C840 1.422 . S
C842 C841 1.421 . S
C842 N852 1.359 . S
C843 C841 1.417 . S
C843 C845 1.329 . S
C843 H862 0.930 . S
C844 C840 1.415 . S
C844 C845 1.437 . S
C844 C848 1.413 . S
C845 C843 1.329 . S
C845 C844 1.437 . S
C845 H867 0.929 . S
N846 C840 1.369 . S
N846 C847 1.338 . S
N846 Gd851 2.622 . S
C847 N846 1.338 . S
C847 C849 1.378 . S
C847 H859 0.929 1_545 S
C848 C844 1.413 . S
C848 C849 1.348 . S
C848 H864 0.931 . S
C849 C847 1.378 . S
C849 C848 1.348 . S
C849 H865 0.930 . S
Gd850 N870 2.622 . S
Gd850 N877 2.570 . S
Gd850 O884 2.353 . S
Gd850 O885 2.468 . S
Gd850 O886 2.427 . S
Gd850 O888 2.388 1_565 S
Gd850 O889 2.386 . S
Gd850 O893 2.307 . S
Gd850 C903 2.805 . S
Gd851 N846 2.622 . S
Gd851 N852 2.570 . S
Gd851 O883 2.386 . S
Gd851 O887 2.307 . S
Gd851 O890 2.353 1_545 S
Gd851 O891 2.468 . S
Gd851 O892 2.427 . S
Gd851 O894 2.388 1_545 S
Gd851 C915 2.805 . S
N852 C842 1.359 . S
N852 Gd851 2.570 . S
N852 C854 1.343 . S
C853 C841 1.422 . S
C853 C855 1.321 . S
C853 H861 0.931 . S
C854 N852 1.343 . S
C854 C855 1.390 . S
C854 H856 0.931 . S
C855 C853 1.321 . S
C855 C854 1.390 . S
C855 H857 0.930 . S
H856 C854 0.931 . S
H857 C855 0.930 . S
H858 C881 0.931 . S
H859 C847 0.929 1_565 S
H860 C882 0.930 . S
H861 C853 0.931 . S
H862 C843 0.930 . S
H863 C872 0.929 . S
H864 C848 0.931 . S
H865 C849 0.930 . S
H866 C904 0.930 . S
H867 C845 0.929 . S
H868 C873 0.931 . S
H869 C874 0.930 . S
N870 Gd850 2.622 . S
N870 C871 1.369 . S
N870 C872 1.338 . S
C871 N870 1.369 . S
C871 C875 1.415 . S
C871 C878 1.422 . S
C872 H863 0.929 . S
C872 N870 1.338 . S
C872 C874 1.378 . S
C873 H868 0.931 . S
C873 C874 1.348 . S
C873 C875 1.413 . S
C874 H869 0.930 . S
C874 C872 1.378 . S
C874 C873 1.348 . S
C875 C871 1.415 . S
C875 C873 1.413 . S
C875 C905 1.437 . S
H876 C905 0.929 . S
N877 Gd850 2.570 . S
N877 C878 1.359 . S
N877 C881 1.343 . S
C878 C871 1.422 . S
C878 N877 1.359 . S
C878 C880 1.421 . S
C879 C880 1.422 . S
C879 C882 1.321 . S
C879 H906 0.931 . S
C880 C878 1.421 . S
C880 C879 1.422 . S
C880 C904 1.417 . S
C881 H858 0.931 . S
C881 N877 1.343 . S
C881 C882 1.390 . S
C882 H860 0.930 . S
C882 C879 1.321 . S
C882 C881 1.390 . S
O883 Gd851 2.386 . S
O883 C895 1.265 . S
O884 Gd850 2.353 . S
O884 C895 1.242 1_565 S
O885 Gd850 2.468 . S
O885 C903 1.263 . S
O886 Gd850 2.427 . S
O886 C903 1.252 . S
O887 Gd851 2.307 . S
O887 C896 1.261 . S
O888 Gd850 2.388 1_545 S
O888 C896 1.252 . S
O889 Gd850 2.386 . S
O889 C907 1.265 . S
O890 Gd851 2.353 1_565 S
O890 C907 1.242 . S
O891 Gd851 2.468 . S
O891 C915 1.263 . S
O892 Gd851 2.427 . S
O892 C915 1.252 . S
O893 Gd850 2.307 . S
O893 C908 1.261 . S
O894 Gd851 2.388 1_565 S
O894 C908 1.252 . S
C895 O883 1.265 . S
C895 O884 1.242 1_545 S
C896 O887 1.261 . S
C896 O888 1.252 . S
C897 C900 1.394 . S
C897 C902 1.370 . S
C897 C903 1.500 . S
C898 C901 1.383 . S
C898 C902 1.395 . S
C899 C900 1.396 . S
C899 C901 1.365 . S
C899 H916 0.929 . S
C900 C897 1.394 . S
C900 C899 1.396 . S
C900 H917 0.930 . S
C901 C898 1.383 . S
C901 C899 1.365 . S
C901 H918 0.931 . S
C902 C897 1.370 . S
C902 C898 1.395 . S
C902 H919 0.930 . S
C903 Gd850 2.805 . S
C903 O885 1.263 . S
C903 O886 1.252 . S
C903 C897 1.500 . S
C904 H866 0.930 . S
C904 C880 1.417 . S
C904 C905 1.329 . S
C905 C875 1.437 . S
C905 H876 0.929 . S
C905 C904 1.329 . S
H906 C879 0.931 . S
C907 O889 1.265 . S
C907 O890 1.242 . S
C908 O893 1.261 . S
C908 O894 1.252 . S
C909 C912 1.394 . S
C909 C914 1.370 . S
C909 C915 1.500 . S
C910 C913 1.383 . S
C910 C914 1.395 . S
C911 C912 1.396 . S
C911 C913 1.365 . S
C911 H920 0.929 . S
C912 C909 1.394 . S
C912 C911 1.396 . S
C912 H921 0.930 . S
C913 C910 1.383 . S
C913 C911 1.365 . S
C913 H922 0.931 . S
C914 C909 1.370 . S
C914 C910 1.395 . S
C914 H923 0.930 . S
C915 Gd851 2.805 . S
C915 O891 1.263 . S
C915 O892 1.252 . S
C915 C909 1.500 . S
H916 C899 0.929 . S
H917 C900 0.930 . S
H918 C901 0.931 . S
H919 C902 0.930 . S
H920 C911 0.929 . S
H921 C912 0.930 . S
H922 C913 0.931 . S
H923 C914 0.930 . S
C924 C926 1.422 . S
C924 C928 1.415 . S
C924 N930 1.369 . S
C925 C926 1.421 . S
C925 C927 1.417 . S
C925 C937 1.422 . S
C926 C924 1.422 . S
C926 C925 1.421 . S
C926 N936 1.359 . S
C927 C925 1.417 . S
C927 C929 1.329 . S
C927 H946 0.930 . S
C928 C924 1.415 . S
C928 C929 1.437 . S
C928 C932 1.413 . S
C929 C927 1.329 . S
C929 C928 1.437 . S
C929 H951 0.929 . S
N930 C924 1.369 . S
N930 C931 1.338 . S
N930 Gd935 2.622 . S
C931 N930 1.338 . S
C931 C933 1.378 . S
C931 H943 0.929 . S
C932 C928 1.413 . S
C932 C933 1.348 . S
C932 H948 0.931 . S
C933 C931 1.378 . S
C933 C932 1.348 . S
C933 H949 0.930 . S
Gd934 N954 2.622 . S
Gd934 N961 2.570 . S
Gd934 O968 2.353 . S
Gd934 O969 2.468 . S
Gd934 O970 2.427 . S
Gd934 O972 2.388 . S
Gd934 O973 2.386 . S
Gd934 O977 2.307 . S
Gd934 C987 2.805 . S
Gd935 N930 2.622 . S
Gd935 N936 2.570 . S
Gd935 O967 2.386 . S
Gd935 O971 2.307 . S
Gd935 O974 2.353 . S
Gd935 O975 2.468 . S
Gd935 O976 2.427 . S
Gd935 O978 2.388 . S
Gd935 C999 2.805 . S
N936 C926 1.359 . S
N936 Gd935 2.570 . S
N936 C938 1.343 . S
C937 C925 1.422 . S
C937 C939 1.321 . S
C937 H945 0.931 . S
C938 N936 1.343 . S
C938 C939 1.390 . S
C938 H940 0.931 . S
C939 C937 1.321 . S
C939 C938 1.390 . S
C939 H941 0.930 . S
H940 C938 0.931 . S
H941 C939 0.930 . S
H942 C965 0.931 . S
H943 C931 0.929 . S
H944 C966 0.930 . S
H945 C937 0.931 . S
H946 C927 0.930 . S
H947 C956 0.929 . S
H948 C932 0.931 . S
H949 C933 0.930 . S
H950 C988 0.930 . S
H951 C929 0.929 . S
H952 C957 0.931 . S
H953 C958 0.930 . S
N954 Gd934 2.622 . S
N954 C955 1.369 . S
N954 C956 1.338 . S
C955 N954 1.369 . S
C955 C959 1.415 . S
C955 C962 1.422 . S
C956 H947 0.929 . S
C956 N954 1.338 . S
C956 C958 1.378 . S
C957 H952 0.931 . S
C957 C958 1.348 . S
C957 C959 1.413 . S
C958 H953 0.930 . S
C958 C956 1.378 . S
C958 C957 1.348 . S
C959 C955 1.415 . S
C959 C957 1.413 . S
C959 C989 1.437 . S
H960 C989 0.929 . S
N961 Gd934 2.570 . S
N961 C962 1.359 . S
N961 C965 1.343 . S
C962 C955 1.422 . S
C962 N961 1.359 . S
C962 C964 1.421 . S
C963 C964 1.422 . S
C963 C966 1.321 . S
C963 H990 0.931 . S
C964 C962 1.421 . S
C964 C963 1.422 . S
C964 C988 1.417 . S
C965 H942 0.931 . S
C965 N961 1.343 . S
C965 C966 1.390 . S
C966 H944 0.930 . S
C966 C963 1.321 . S
C966 C965 1.390 . S
O967 Gd935 2.386 . S
O967 C979 1.265 . S
O968 Gd934 2.353 . S
O968 C979 1.242 . S
O969 Gd934 2.468 . S
O969 C987 1.263 . S
O970 Gd934 2.427 . S
O970 C987 1.252 . S
O971 Gd935 2.307 . S
O971 C980 1.261 . S
O972 Gd934 2.388 . S
O972 C980 1.252 . S
O973 Gd934 2.386 . S
O973 C991 1.265 . S
O974 Gd935 2.353 . S
O974 C991 1.242 . S
O975 Gd935 2.468 . S
O975 C999 1.263 . S
O976 Gd935 2.427 . S
O976 C999 1.252 . S
O977 Gd934 2.307 . S
O977 C992 1.261 . S
O978 Gd935 2.388 . S
O978 C992 1.252 . S
C979 O967 1.265 . S
C979 O968 1.242 . S
C980 O971 1.261 . S
C980 O972 1.252 . S
C981 C984 1.394 . S
C981 C986 1.370 . S
C981 C987 1.500 . S
C982 C985 1.383 . S
C982 C986 1.395 . S
C983 C984 1.396 . S
C983 C985 1.365 . S
C983 H1000 0.929 . S
C984 C981 1.394 . S
C984 C983 1.396 . S
C984 H1001 0.930 . S
C985 C982 1.383 . S
C985 C983 1.365 . S
C985 H1002 0.931 . S
C986 C981 1.370 . S
C986 C982 1.395 . S
C986 H1003 0.930 . S
C987 Gd934 2.805 . S
C987 O969 1.263 . S
C987 O970 1.252 . S
C987 C981 1.500 . S
C988 H950 0.930 . S
C988 C964 1.417 . S
C988 C989 1.329 . S
C989 C959 1.437 . S
C989 H960 0.929 . S
C989 C988 1.329 . S
H990 C963 0.931 . S
C991 O973 1.265 . S
C991 O974 1.242 . S
C992 O977 1.261 . S
C992 O978 1.252 . S
C993 C996 1.394 . S
C993 C998 1.370 . S
C993 C999 1.500 . S
C994 C997 1.383 . S
C994 C998 1.395 . S
C995 C996 1.396 . S
C995 C997 1.365 . S
C995 H1004 0.929 . S
C996 C993 1.394 . S
C996 C995 1.396 . S
C996 H1005 0.930 . S
C997 C994 1.383 . S
C997 C995 1.365 . S
C997 H1006 0.931 . S
C998 C993 1.370 . S
C998 C994 1.395 . S
C998 H1007 0.930 . S
C999 Gd935 2.805 . S
C999 O975 1.263 . S
C999 O976 1.252 . S
C999 C993 1.500 . S
H1000 C983 0.929 . S
H1001 C984 0.930 . S
H1002 C985 0.931 . S
H1003 C986 0.930 . S
H1004 C995 0.929 . S
H1005 C996 0.930 . S
H1006 C997 0.931 . S
H1007 C998 0.930 . S
H1008 C1014 0.930 . S
H1009 C1017 0.930 . S
H1010 C1018 0.930 . S
H1011 C1019 0.930 . S
H1012 C1022 0.930 . S
H1013 C1023 0.930 . S
C1014 H1008 0.930 . S
C1014 C1015 1.355 . S
C1014 C1016 1.415 . S
C1015 C1014 1.355 . S
C1015 C1017 1.419 . S
C1016 C1014 1.415 . S
C1016 C1021 1.425 . S
C1016 C1023 1.409 . S
C1017 H1009 0.930 . S
C1017 C1015 1.419 . S
C1017 C1018 1.362 . S
C1018 H1010 0.930 . S
C1018 C1017 1.362 . S
C1018 C1021 1.409 . S
C1019 H1011 0.930 . S
C1019 C1020 1.355 . S
C1019 C1021 1.415 . S
C1020 C1019 1.355 . S
C1020 C1022 1.419 . S
C1021 C1016 1.425 . S
C1021 C1018 1.409 . S
C1021 C1019 1.415 . S
C1022 H1012 0.930 . S
C1022 C1020 1.419 . S
C1022 C1023 1.362 . S
C1023 H1013 0.930 . S
C1023 C1016 1.409 . S
C1023 C1022 1.362 . S
H1024 C1030 0.930 . S
H1025 C1033 0.930 . S
H1026 C1034 0.930 . S
H1027 C1035 0.930 . S
H1028 C1038 0.930 . S
H1029 C1039 0.930 . S
C1030 H1024 0.930 . S
C1030 C1031 1.355 . S
C1030 C1032 1.415 . S
C1031 C1030 1.355 . S
C1031 C1033 1.419 1_565 S
C1032 C1030 1.415 . S
C1032 C1037 1.425 . S
C1032 C1039 1.409 . S
C1033 H1025 0.930 . S
C1033 C1031 1.419 1_545 S
C1033 C1034 1.362 . S
C1034 H1026 0.930 . S
C1034 C1033 1.362 . S
C1034 C1037 1.409 1_545 S
C1035 H1027 0.930 . S
C1035 C1036 1.355 . S
C1035 C1037 1.415 . S
C1036 C1035 1.355 . S
C1036 C1038 1.419 . S
C1037 C1032 1.425 . S
C1037 C1034 1.409 1_565 S
C1037 C1035 1.415 . S
C1038 H1028 0.930 . S
C1038 C1036 1.419 . S
C1038 C1039 1.362 . S
C1039 H1029 0.930 . S
C1039 C1032 1.409 . S
C1039 C1038 1.362 . S
H1040 C1046 0.930 . S
H1041 C1049 0.930 . S
H1042 C1050 0.930 . S
H1043 C1051 0.930 . S
H1044 C1054 0.930 . S
H1045 C1055 0.930 . S
C1046 H1040 0.930 . S
C1046 C1047 1.355 . S
C1046 C1048 1.415 . S
C1047 C1046 1.355 . S
C1047 C1049 1.419 . S
C1048 C1046 1.415 . S
C1048 C1053 1.425 . S
C1048 C1055 1.409 . S
C1049 H1041 0.930 . S
C1049 C1047 1.419 . S
C1049 C1050 1.362 . S
C1050 H1042 0.930 . S
C1050 C1049 1.362 . S
C1050 C1053 1.409 . S
C1051 H1043 0.930 . S
C1051 C1052 1.355 . S
C1051 C1053 1.415 . S
C1052 C1051 1.355 . S
C1052 C1054 1.419 . S
C1053 C1048 1.425 . S
C1053 C1050 1.409 . S
C1053 C1051 1.415 . S
C1054 H1044 0.930 . S
C1054 C1052 1.419 . S
C1054 C1055 1.362 . S
C1055 H1045 0.930 . S
C1055 C1048 1.409 . S
C1055 C1054 1.362 . S
H1056 C1062 0.930 . S
H1057 C1065 0.930 . S
H1058 C1066 0.930 1_565 S
H1059 C1067 0.930 1_565 S
H1060 C1070 0.930 . S
H1061 C1071 0.930 . S
C1062 H1056 0.930 . S
C1062 C1063 1.355 . S
C1062 C1064 1.415 . S
C1063 C1062 1.355 . S
C1063 C1065 1.419 . S
C1064 C1062 1.415 . S
C1064 C1069 1.425 . S
C1064 C1071 1.409 . S
C1065 H1057 0.930 . S
C1065 C1063 1.419 . S
C1065 C1066 1.362 . S
C1066 H1058 0.930 1_545 S
C1066 C1065 1.362 . S
C1066 C1069 1.409 . S
C1067 H1059 0.930 1_545 S
C1067 C1068 1.355 . S
C1067 C1069 1.415 . S
C1068 C1067 1.355 . S
C1068 C1070 1.419 . S
C1069 C1064 1.425 . S
C1069 C1066 1.409 . S
C1069 C1067 1.415 . S
C1070 H1060 0.930 . S
C1070 C1068 1.419 . S
C1070 C1071 1.362 . S
C1071 H1061 0.930 . S
C1071 C1064 1.409 . S
C1071 C1070 1.362 . S
H1072 C1078 0.930 . S
H1073 C1081 0.930 . S
H1074 C1082 0.930 . S
H1075 C1083 0.930 . S
H1076 C1086 0.930 . S
H1077 C1087 0.930 . S
C1078 H1072 0.930 . S
C1078 C1079 1.355 . S
C1078 C1080 1.415 . S
C1079 C1078 1.355 . S
C1079 C1081 1.419 . S
C1080 C1078 1.415 . S
C1080 C1085 1.425 . S
C1080 C1087 1.409 . S
C1081 H1073 0.930 . S
C1081 C1079 1.419 . S
C1081 C1082 1.362 . S
C1082 H1074 0.930 . S
C1082 C1081 1.362 . S
C1082 C1085 1.409 . S
C1083 H1075 0.930 . S
C1083 C1084 1.355 . S
C1083 C1085 1.415 . S
C1084 C1083 1.355 . S
C1084 C1086 1.419 . S
C1085 C1080 1.425 . S
C1085 C1082 1.409 . S
C1085 C1083 1.415 . S
C1086 H1076 0.930 . S
C1086 C1084 1.419 . S
C1086 C1087 1.362 . S
C1087 H1077 0.930 . S
C1087 C1080 1.409 . S
C1087 C1086 1.362 . S
H1088 C1094 0.930 . S
H1089 C1097 0.930 . S
H1090 C1098 0.930 . S
H1091 C1099 0.930 . S
H1092 C1102 0.930 . S
H1093 C1103 0.930 . S
C1094 H1088 0.930 . S
C1094 C1095 1.355 . S
C1094 C1096 1.415 . S
C1095 C1094 1.355 . S
C1095 C1097 1.419 . S
C1096 C1094 1.415 . S
C1096 C1101 1.425 . S
C1096 C1103 1.409 . S
C1097 H1089 0.930 . S
C1097 C1095 1.419 . S
C1097 C1098 1.362 . S
C1098 H1090 0.930 . S
C1098 C1097 1.362 . S
C1098 C1101 1.409 . S
C1099 H1091 0.930 . S
C1099 C1100 1.355 . S
C1099 C1101 1.415 . S
C1100 C1099 1.355 . S
C1100 C1102 1.419 . S
C1101 C1096 1.425 . S
C1101 C1098 1.409 . S
C1101 C1099 1.415 . S
C1102 H1092 0.930 . S
C1102 C1100 1.419 . S
C1102 C1103 1.362 . S
C1103 H1093 0.930 . S
C1103 C1096 1.409 . S
C1103 C1102 1.362 . S
H1104 C1110 0.930 . S
H1105 C1113 0.930 . S
H1106 C1114 0.930 . S
H1107 C1115 0.930 . S
H1108 C1118 0.930 . S
H1109 C1119 0.930 . S
C1110 H1104 0.930 . S
C1110 C1111 1.355 . S
C1110 C1112 1.415 . S
C1111 C1110 1.355 . S
C1111 C1113 1.419 . S
C1112 C1110 1.415 . S
C1112 C1117 1.425 . S
C1112 C1119 1.409 . S
C1113 H1105 0.930 . S
C1113 C1111 1.419 . S
C1113 C1114 1.362 . S
C1114 H1106 0.930 . S
C1114 C1113 1.362 . S
C1114 C1117 1.409 . S
C1115 H1107 0.930 . S
C1115 C1116 1.355 . S
C1115 C1117 1.415 . S
C1116 C1115 1.355 . S
C1116 C1118 1.419 . S
C1117 C1112 1.425 . S
C1117 C1114 1.409 . S
C1117 C1115 1.415 . S
C1118 H1108 0.930 . S
C1118 C1116 1.419 . S
C1118 C1119 1.362 . S
C1119 H1109 0.930 . S
C1119 C1112 1.409 . S
C1119 C1118 1.362 . S
H1120 C1126 0.930 . S
H1121 C1129 0.930 . S
H1122 C1130 0.930 . S
H1123 C1131 0.930 . S
H1124 C1134 0.930 . S
H1125 C1135 0.930 . S
C1126 H1120 0.930 . S
C1126 C1127 1.355 . S
C1126 C1128 1.415 . S
C1127 C1126 1.355 . S
C1127 C1129 1.419 . S
C1128 C1126 1.415 . S
C1128 C1133 1.425 . S
C1128 C1135 1.409 . S
C1129 H1121 0.930 . S
C1129 C1127 1.419 . S
C1129 C1130 1.362 . S
C1130 H1122 0.930 . S
C1130 C1129 1.362 . S
C1130 C1133 1.409 . S
C1131 H1123 0.930 . S
C1131 C1132 1.355 . S
C1131 C1133 1.415 . S
C1132 C1131 1.355 . S
C1132 C1134 1.419 . S
C1133 C1128 1.425 . S
C1133 C1130 1.409 . S
C1133 C1131 1.415 . S
C1134 H1124 0.930 . S
C1134 C1132 1.419 . S
C1134 C1135 1.362 . S
C1135 H1125 0.930 . S
C1135 C1128 1.409 . S
C1135 C1134 1.362 . S
H1136 C1142 0.930 . S
H1137 C1145 0.930 . S
H1138 C1146 0.930 . S
H1139 C1147 0.930 . S
H1140 C1150 0.930 . S
H1141 C1151 0.930 . S
C1142 H1136 0.930 . S
C1142 C1143 1.355 . S
C1142 C1144 1.415 . S
C1143 C1142 1.355 . S
C1143 C1145 1.419 . S
C1144 C1142 1.415 . S
C1144 C1149 1.425 . S
C1144 C1151 1.409 . S
C1145 H1137 0.930 . S
C1145 C1143 1.419 . S
C1145 C1146 1.362 . S
C1146 H1138 0.930 . S
C1146 C1145 1.362 . S
C1146 C1149 1.409 . S
C1147 H1139 0.930 . S
C1147 C1148 1.355 . S
C1147 C1149 1.415 . S
C1148 C1147 1.355 . S
C1148 C1150 1.419 . S
C1149 C1144 1.425 . S
C1149 C1146 1.409 . S
C1149 C1147 1.415 . S
C1150 H1140 0.930 . S
C1150 C1148 1.419 . S
C1150 C1151 1.362 . S
C1151 H1141 0.930 . S
C1151 C1144 1.409 . S
C1151 C1150 1.362 . S
H1152 C1158 0.930 . S
H1153 C1161 0.930 . S
H1154 C1162 0.930 . S
H1155 C1163 0.930 . S
H1156 C1166 0.930 1_655 S
H1157 C1167 0.937 . S
C1158 H1152 0.930 . S
C1158 C1159 1.355 . S
C1158 C1160 1.415 . S
C1159 C1158 1.355 . S
C1159 C1161 1.419 . S
C1160 C1158 1.415 . S
C1160 C1165 1.425 . S
C1160 C1167 1.409 . S
C1161 H1153 0.930 . S
C1161 C1159 1.419 . S
C1161 C1162 1.362 . S
C1162 H1154 0.930 . S
C1162 C1161 1.362 . S
C1162 C1165 1.409 . S
C1163 H1155 0.930 . S
C1163 C1164 1.355 . S
C1163 C1165 1.415 . S
C1164 C1163 1.355 . S
C1164 C1166 1.419 . S
C1165 C1160 1.425 . S
C1165 C1162 1.409 . S
C1165 C1163 1.415 . S
C1166 H1156 0.930 1_455 S
C1166 C1164 1.419 . S
C1166 C1167 1.362 . S
C1167 H1157 0.937 . S
C1167 C1160 1.409 . S
C1167 C1166 1.362 . S
H1168 C1174 0.930 1_455 S
H1169 C1177 0.930 . S
H1170 C1178 0.930 . S
H1171 C1179 0.930 . S
H1172 C1182 0.930 . S
H1173 C1183 0.930 1_455 S
C1174 H1168 0.930 1_655 S
C1174 C1175 1.355 . S
C1174 C1176 1.415 . S
C1175 C1174 1.355 . S
C1175 C1177 1.419 . S
C1176 C1174 1.415 . S
C1176 C1181 1.425 . S
C1176 C1183 1.409 . S
C1177 H1169 0.930 . S
C1177 C1175 1.419 . S
C1177 C1178 1.362 . S
C1178 H1170 0.930 . S
C1178 C1177 1.362 . S
C1178 C1181 1.409 . S
C1179 H1171 0.930 . S
C1179 C1180 1.355 . S
C1179 C1181 1.415 . S
C1180 C1179 1.355 . S
C1180 C1182 1.419 . S
C1181 C1176 1.425 . S
C1181 C1178 1.409 . S
C1181 C1179 1.415 . S
C1182 H1172 0.930 . S
C1182 C1180 1.419 . S
C1182 C1183 1.362 . S
C1183 H1173 0.930 1_655 S
C1183 C1176 1.409 . S
C1183 C1182 1.362 . S
H1184 C1190 0.930 . S
H1185 C1193 0.930 . S
H1186 C1194 0.930 . S
H1187 C1195 0.930 . S
H1188 C1198 0.930 . S
H1189 C1199 0.930 . S
C1190 H1184 0.930 . S
C1190 C1191 1.355 . S
C1190 C1192 1.415 . S
C1191 C1190 1.355 . S
C1191 C1193 1.419 . S
C1192 C1190 1.415 . S
C1192 C1197 1.425 . S
C1192 C1199 1.409 . S
C1193 H1185 0.930 . S
C1193 C1191 1.419 . S
C1193 C1194 1.362 . S
C1194 H1186 0.930 . S
C1194 C1193 1.362 . S
C1194 C1197 1.409 . S
C1195 H1187 0.930 . S
C1195 C1196 1.355 . S
C1195 C1197 1.415 . S
C1196 C1195 1.355 . S
C1196 C1198 1.419 . S
C1197 C1192 1.425 . S
C1197 C1194 1.409 . S
C1197 C1195 1.415 . S
C1198 H1188 0.930 . S
C1198 C1196 1.419 . S
C1198 C1199 1.362 . S
C1199 H1189 0.930 . S
C1199 C1192 1.409 . S
C1199 C1198 1.362 . S
H1200 C1206 0.930 . S
H1201 C1209 0.930 . S
H1202 C1210 0.930 . S
H1203 C1211 0.930 . S
H1204 C1214 0.930 . S
H1205 C1215 0.930 . S
C1206 H1200 0.930 . S
C1206 C1207 1.355 . S
C1206 C1208 1.415 . S
C1207 C1206 1.355 . S
C1207 C1209 1.419 . S
C1208 C1206 1.415 . S
C1208 C1213 1.425 . S
C1208 C1215 1.409 . S
C1209 H1201 0.930 . S
C1209 C1207 1.419 . S
C1209 C1210 1.362 . S
C1210 H1202 0.930 . S
C1210 C1209 1.362 . S
C1210 C1213 1.409 . S
C1211 H1203 0.930 . S
C1211 C1212 1.355 . S
C1211 C1213 1.415 . S
C1212 C1211 1.355 . S
C1212 C1214 1.419 . S
C1213 C1208 1.425 . S
C1213 C1210 1.409 . S
C1213 C1211 1.415 . S
C1214 H1204 0.930 . S
C1214 C1212 1.419 . S
C1214 C1215 1.362 . S
C1215 H1205 0.930 . S
C1215 C1208 1.409 . S
C1215 C1214 1.362 . S
H1216 C1222 0.930 . S
H1217 C1225 0.930 . S
H1218 C1226 0.930 1_545 S
H1219 C1227 0.945 . S
H1220 C1230 0.930 . S
H1221 C1231 0.930 . S
C1222 H1216 0.930 . S
C1222 C1223 1.355 . S
C1222 C1224 1.415 . S
C1223 C1222 1.355 . S
C1223 C1225 1.419 . S
C1224 C1222 1.415 . S
C1224 C1229 1.425 . S
C1224 C1231 1.409 . S
C1225 H1217 0.930 . S
C1225 C1223 1.419 . S
C1225 C1226 1.362 . S
C1226 H1218 0.930 1_565 S
C1226 C1225 1.362 . S
C1226 C1229 1.409 . S
C1227 H1219 0.945 . S
C1227 C1228 1.355 . S
C1227 C1229 1.415 . S
C1228 C1227 1.355 . S
C1228 C1230 1.419 . S
C1229 C1224 1.425 . S
C1229 C1226 1.409 . S
C1229 C1227 1.415 . S
C1230 H1220 0.930 . S
C1230 C1228 1.419 . S
C1230 C1231 1.362 . S
C1231 H1221 0.930 . S
C1231 C1224 1.409 . S
C1231 C1230 1.362 . S
H1232 C1238 0.930 . S
H1233 C1241 0.930 . S
H1234 C1242 0.930 . S
H1235 C1243 0.930 . S
H1236 C1246 0.930 . S
H1237 C1247 0.930 . S
C1238 H1232 0.930 . S
C1238 C1239 1.355 . S
C1238 C1240 1.415 . S
C1239 C1238 1.355 . S
C1239 C1241 1.419 . S
C1240 C1238 1.415 . S
C1240 C1245 1.425 . S
C1240 C1247 1.409 . S
C1241 H1233 0.930 . S
C1241 C1239 1.419 . S
C1241 C1242 1.362 . S
C1242 H1234 0.930 . S
C1242 C1241 1.362 . S
C1242 C1245 1.409 . S
C1243 H1235 0.930 . S
C1243 C1244 1.355 . S
C1243 C1245 1.415 . S
C1244 C1243 1.355 . S
C1244 C1246 1.419 . S
C1245 C1240 1.425 . S
C1245 C1242 1.409 . S
C1245 C1243 1.415 . S
C1246 H1236 0.930 . S
C1246 C1244 1.419 . S
C1246 C1247 1.362 . S
C1247 H1237 0.930 . S
C1247 C1240 1.409 . S
C1247 C1246 1.362 . S
H1248 C1254 0.930 . S
H1249 C1257 0.930 . S
H1250 C1258 0.930 1_565 S
H1251 C1259 0.930 1_565 S
H1252 C1262 0.930 . S
H1253 C1263 0.930 . S
C1254 H1248 0.930 . S
C1254 C1255 1.355 . S
C1254 C1256 1.415 . S
C1255 C1254 1.355 . S
C1255 C1257 1.419 . S
C1256 C1254 1.415 . S
C1256 C1261 1.425 . S
C1256 C1263 1.409 1_554 S
C1257 H1249 0.930 . S
C1257 C1255 1.419 . S
C1257 C1258 1.362 . S
C1258 H1250 0.930 1_545 S
C1258 C1257 1.362 . S
C1258 C1261 1.409 . S
C1259 H1251 0.930 1_545 S
C1259 C1260 1.355 . S
C1259 C1261 1.415 1_556 S
C1260 C1259 1.355 . S
C1260 C1262 1.419 . S
C1261 C1256 1.425 . S
C1261 C1258 1.409 . S
C1261 C1259 1.415 1_554 S
C1262 H1252 0.930 . S
C1262 C1260 1.419 . S
C1262 C1263 1.362 . S
C1263 H1253 0.930 . S
C1263 C1256 1.409 1_556 S
C1263 C1262 1.362 . S
H1264 C1270 0.930 . S
H1265 C1273 0.930 . S
H1266 C1274 0.930 . S
H1267 C1275 0.930 . S
H1268 C1278 0.930 . S
H1269 C1279 0.930 . S
C1270 H1264 0.930 . S
C1270 C1271 1.355 . S
C1270 C1272 1.415 . S
C1271 C1270 1.355 . S
C1271 C1273 1.419 . S
C1272 C1270 1.415 . S
C1272 C1277 1.425 . S
C1272 C1279 1.409 . S
C1273 H1265 0.930 . S
C1273 C1271 1.419 . S
C1273 C1274 1.362 . S
C1274 H1266 0.930 . S
C1274 C1273 1.362 . S
C1274 C1277 1.409 . S
C1275 H1267 0.930 . S
C1275 C1276 1.355 . S
C1275 C1277 1.415 . S
C1276 C1275 1.355 . S
C1276 C1278 1.419 . S
C1277 C1272 1.425 . S
C1277 C1274 1.409 . S
C1277 C1275 1.415 . S
C1278 H1268 0.930 . S
C1278 C1276 1.419 . S
C1278 C1279 1.362 . S
C1279 H1269 0.930 . S
C1279 C1272 1.409 . S
C1279 C1278 1.362 . S
H1280 C1286 0.930 . S
H1281 C1289 0.930 . S
H1282 C1290 0.930 . S
H1283 C1291 0.930 . S
H1284 C1294 0.930 . S
H1285 C1295 0.930 . S
C1286 H1280 0.930 . S
C1286 C1287 1.355 . S
C1286 C1288 1.415 1_554 S
C1287 C1286 1.355 . S
C1287 C1289 1.419 . S
C1288 C1286 1.415 1_556 S
C1288 C1293 1.425 . S
C1288 C1295 1.409 . S
C1289 H1281 0.930 . S
C1289 C1287 1.419 . S
C1289 C1290 1.362 1_554 S
C1290 H1282 0.930 . S
C1290 C1289 1.362 1_556 S
C1290 C1293 1.409 . S
C1291 H1283 0.930 . S
C1291 C1292 1.355 . S
C1291 C1293 1.415 . S
C1292 C1291 1.355 . S
C1292 C1294 1.419 . S
C1293 C1288 1.425 . S
C1293 C1290 1.409 . S
C1293 C1291 1.415 . S
C1294 H1284 0.930 . S
C1294 C1292 1.419 . S
C1294 C1295 1.362 . S
C1295 H1285 0.930 . S
C1295 C1288 1.409 . S
C1295 C1294 1.362 . S
H1296 C1302 0.930 . S
H1297 C1305 0.930 . S
H1298 C1306 0.930 . S
H1299 C1307 0.930 . S
H1300 C1310 0.930 . S
H1301 C1311 0.930 . S
C1302 H1296 0.930 . S
C1302 C1303 1.355 . S
C1302 C1304 1.415 . S
C1303 C1302 1.355 . S
C1303 C1305 1.419 . S
C1304 C1302 1.415 . S
C1304 C1309 1.425 . S
C1304 C1311 1.409 . S
C1305 H1297 0.930 . S
C1305 C1303 1.419 . S
C1305 C1306 1.362 . S
C1306 H1298 0.930 . S
C1306 C1305 1.362 . S
C1306 C1309 1.409 . S
C1307 H1299 0.930 . S
C1307 C1308 1.355 . S
C1307 C1309 1.415 . S
C1308 C1307 1.355 . S
C1308 C1310 1.419 . S
C1309 C1304 1.425 . S
C1309 C1306 1.409 . S
C1309 C1307 1.415 . S
C1310 H1300 0.930 . S
C1310 C1308 1.419 . S
C1310 C1311 1.362 . S
C1311 H1301 0.930 . S
C1311 C1304 1.409 . S
C1311 C1310 1.362 . S
H1312 C1318 0.930 . S
H1313 C1321 0.930 . S
H1314 C1322 0.930 . S
H1315 C1323 0.930 . S
H1316 C1326 0.930 . S
H1317 C1327 0.930 . S
C1318 H1312 0.930 . S
C1318 C1319 1.355 . S
C1318 C1320 1.415 . S
C1319 C1318 1.355 . S
C1319 C1321 1.419 . S
C1320 C1318 1.415 . S
C1320 C1325 1.425 . S
C1320 C1327 1.409 . S
C1321 H1313 0.930 . S
C1321 C1319 1.419 . S
C1321 C1322 1.362 . S
C1322 H1314 0.930 . S
C1322 C1321 1.362 . S
C1322 C1325 1.409 . S
C1323 H1315 0.930 . S
C1323 C1324 1.355 . S
C1323 C1325 1.415 . S
C1324 C1323 1.355 . S
C1324 C1326 1.419 . S
C1325 C1320 1.425 . S
C1325 C1322 1.409 . S
C1325 C1323 1.415 . S
C1326 H1316 0.930 . S
C1326 C1324 1.419 . S
C1326 C1327 1.362 . S
C1327 H1317 0.930 . S
C1327 C1320 1.409 . S
C1327 C1326 1.362 . S
H1328 C1334 0.930 . S
H1329 C1337 0.930 . S
H1330 C1338 0.930 . S
H1331 C1339 0.930 . S
H1332 C1342 0.930 . S
H1333 C1343 0.930 . S
C1334 H1328 0.930 . S
C1334 C1335 1.355 . S
C1334 C1336 1.415 . S
C1335 C1334 1.355 . S
C1335 C1337 1.419 . S
C1336 C1334 1.415 . S
C1336 C1341 1.425 . S
C1336 C1343 1.409 . S
C1337 H1329 0.930 . S
C1337 C1335 1.419 . S
C1337 C1338 1.362 . S
C1338 H1330 0.930 . S
C1338 C1337 1.362 . S
C1338 C1341 1.409 . S
C1339 H1331 0.930 . S
C1339 C1340 1.355 . S
C1339 C1341 1.415 . S
C1340 C1339 1.355 . S
C1340 C1342 1.419 . S
C1341 C1336 1.425 . S
C1341 C1338 1.409 . S
C1341 C1339 1.415 . S
C1342 H1332 0.930 . S
C1342 C1340 1.419 . S
C1342 C1343 1.362 . S
C1343 H1333 0.930 . S
C1343 C1336 1.409 . S
C1343 C1342 1.362 . S
H1344 C1350 0.930 . S
H1345 C1353 0.930 . S
H1346 C1354 0.930 1_655 S
H1347 C1355 0.930 . S
H1348 C1358 0.930 . S
H1349 C1359 0.930 1_545 S
C1350 H1344 0.930 . S
C1350 C1351 1.355 . S
C1350 C1352 1.415 . S
C1351 C1350 1.355 . S
C1351 C1353 1.419 . S
C1352 C1350 1.415 . S
C1352 C1357 1.425 . S
C1352 C1359 1.409 1_545 S
C1353 H1345 0.930 . S
C1353 C1351 1.419 . S
C1353 C1354 1.362 . S
C1354 H1346 0.930 1_455 S
C1354 C1353 1.362 . S
C1354 C1357 1.409 . S
C1355 H1347 0.930 . S
C1355 C1356 1.355 . S
C1355 C1357 1.415 1_565 S
C1356 C1355 1.355 . S
C1356 C1358 1.419 . S
C1357 C1352 1.425 . S
C1357 C1354 1.409 . S
C1357 C1355 1.415 1_545 S
C1358 H1348 0.930 . S
C1358 C1356 1.419 . S
C1358 C1359 1.362 . S
C1359 H1349 0.930 1_565 S
C1359 C1352 1.409 1_565 S
C1359 C1358 1.362 . S
H1360 C1366 0.930 . S
H1361 C1369 0.930 . S
H1362 C1370 0.930 . S
H1363 C1371 0.930 . S
H1364 C1374 0.930 . S
H1365 C1375 0.930 . S
C1366 H1360 0.930 . S
C1366 C1367 1.355 . S
C1366 C1368 1.415 . S
C1367 C1366 1.355 . S
C1367 C1369 1.419 . S
C1368 C1366 1.415 . S
C1368 C1373 1.425 . S
C1368 C1375 1.409 . S
C1369 H1361 0.930 . S
C1369 C1367 1.419 . S
C1369 C1370 1.362 . S
C1370 H1362 0.930 . S
C1370 C1369 1.362 . S
C1370 C1373 1.409 . S
C1371 H1363 0.930 . S
C1371 C1372 1.355 . S
C1371 C1373 1.415 . S
C1372 C1371 1.355 . S
C1372 C1374 1.419 . S
C1373 C1368 1.425 . S
C1373 C1370 1.409 . S
C1373 C1371 1.415 . S
C1374 H1364 0.930 . S
C1374 C1372 1.419 . S
C1374 C1375 1.362 . S
C1375 H1365 0.930 . S
C1375 C1368 1.409 . S
C1375 C1374 1.362 . S
H1376 C1382 0.930 . S
H1377 C1385 0.930 . S
H1378 C1386 0.930 . S
H1379 C1387 0.930 . S
H1380 C1390 0.930 . S
H1381 C1391 0.930 . S
C1382 H1376 0.930 . S
C1382 C1383 1.355 . S
C1382 C1384 1.415 1_545 S
C1383 C1382 1.355 . S
C1383 C1385 1.419 . S
C1384 C1382 1.415 1_565 S
C1384 C1389 1.425 . S
C1384 C1391 1.409 . S
C1385 H1377 0.930 . S
C1385 C1383 1.419 . S
C1385 C1386 1.362 . S
C1386 H1378 0.930 . S
C1386 C1385 1.362 . S
C1386 C1389 1.409 1_545 S
C1387 H1379 0.930 . S
C1387 C1388 1.355 . S
C1387 C1389 1.415 . S
C1388 C1387 1.355 . S
C1388 C1390 1.419 . S
C1389 C1384 1.425 . S
C1389 C1386 1.409 1_565 S
C1389 C1387 1.415 . S
C1390 H1380 0.930 . S
C1390 C1388 1.419 . S
C1390 C1391 1.362 . S
C1391 H1381 0.930 . S
C1391 C1384 1.409 . S
C1391 C1390 1.362 . S
H1392 C1398 0.930 . S
H1393 C1401 0.930 . S
H1394 C1402 0.930 . S
H1395 C1403 0.930 . S
H1396 C1406 0.930 . S
H1397 C1407 0.930 . S
C1398 H1392 0.930 . S
C1398 C1399 1.355 . S
C1398 C1400 1.415 . S
C1399 C1398 1.355 . S
C1399 C1401 1.419 . S
C1400 C1398 1.415 . S
C1400 C1405 1.425 . S
C1400 C1407 1.409 . S
C1401 H1393 0.930 . S
C1401 C1399 1.419 . S
C1401 C1402 1.362 . S
C1402 H1394 0.930 . S
C1402 C1401 1.362 . S
C1402 C1405 1.409 . S
C1403 H1395 0.930 . S
C1403 C1404 1.355 . S
C1403 C1405 1.415 . S
C1404 C1403 1.355 . S
C1404 C1406 1.419 . S
C1405 C1400 1.425 . S
C1405 C1402 1.409 . S
C1405 C1403 1.415 . S
C1406 H1396 0.930 . S
C1406 C1404 1.419 . S
C1406 C1407 1.362 . S
C1407 H1397 0.930 . S
C1407 C1400 1.409 . S
C1407 C1406 1.362 . S
H1408 C1414 0.930 . S
H1409 C1417 0.930 . S
H1410 C1418 0.930 . S
H1411 C1419 0.930 . S
H1412 C1422 0.930 . S
H1413 C1423 0.930 1_455 S
C1414 H1408 0.930 . S
C1414 C1415 1.355 . S
C1414 C1416 1.415 . S
C1415 C1414 1.355 . S
C1415 C1417 1.419 . S
C1416 C1414 1.415 . S
C1416 C1421 1.425 . S
C1416 C1423 1.409 . S
C1417 H1409 0.930 . S
C1417 C1415 1.419 . S
C1417 C1418 1.362 . S
C1418 H1410 0.930 . S
C1418 C1417 1.362 . S
C1418 C1421 1.409 . S
C1419 H1411 0.930 . S
C1419 C1420 1.355 . S
C1419 C1421 1.415 . S
C1420 C1419 1.355 . S
C1420 C1422 1.419 . S
C1421 C1416 1.425 . S
C1421 C1418 1.409 . S
C1421 C1419 1.415 . S
C1422 H1412 0.930 . S
C1422 C1420 1.419 . S
C1422 C1423 1.362 . S
C1423 H1413 0.930 1_655 S
C1423 C1416 1.409 . S
C1423 C1422 1.362 . S
H1424 C1430 0.930 . S
H1425 C1433 0.930 . S
H1426 C1434 0.930 . S
H1427 C1435 0.930 . S
H1428 C1438 0.930 . S
H1429 C1439 0.930 . S
C1430 H1424 0.930 . S
C1430 C1431 1.355 . S
C1430 C1432 1.415 . S
C1431 C1430 1.355 . S
C1431 C1433 1.419 . S
C1432 C1430 1.415 . S
C1432 C1437 1.425 . S
C1432 C1439 1.409 . S
C1433 H1425 0.930 . S
C1433 C1431 1.419 . S
C1433 C1434 1.362 . S
C1434 H1426 0.930 . S
C1434 C1433 1.362 . S
C1434 C1437 1.409 . S
C1435 H1427 0.930 . S
C1435 C1436 1.355 . S
C1435 C1437 1.415 . S
C1436 C1435 1.355 . S
C1436 C1438 1.419 . S
C1437 C1432 1.425 . S
C1437 C1434 1.409 . S
C1437 C1435 1.415 . S
C1438 H1428 0.930 . S
C1438 C1436 1.419 . S
C1438 C1439 1.362 . S
C1439 H1429 0.930 . S
C1439 C1432 1.409 . S
C1439 C1438 1.362 . S
H1440 C1446 0.930 . S
H1441 C1449 0.930 . S
H1442 C1450 0.930 . S
H1443 C1451 0.930 . S
H1444 C1454 0.930 . S
H1445 C1455 0.930 . S
C1446 H1440 0.930 . S
C1446 C1447 1.355 . S
C1446 C1448 1.415 . S
C1447 C1446 1.355 . S
C1447 C1449 1.419 . S
C1448 C1446 1.415 . S
C1448 C1453 1.425 . S
C1448 C1455 1.409 . S
C1449 H1441 0.930 . S
C1449 C1447 1.419 . S
C1449 C1450 1.362 . S
C1450 H1442 0.930 . S
C1450 C1449 1.362 . S
C1450 C1453 1.409 . S
C1451 H1443 0.930 . S
C1451 C1452 1.355 . S
C1451 C1453 1.415 . S
C1452 C1451 1.355 . S
C1452 C1454 1.419 . S
C1453 C1448 1.425 . S
C1453 C1450 1.409 . S
C1453 C1451 1.415 . S
C1454 H1444 0.930 . S
C1454 C1452 1.419 . S
C1454 C1455 1.362 . S
C1455 H1445 0.930 . S
C1455 C1448 1.409 . S
C1455 C1454 1.362 . S
H1456 C1462 0.930 . S
H1457 C1465 0.930 . S
H1458 C1466 0.930 . S
H1459 C1467 0.930 . S
H1460 C1470 0.930 . S
H1461 C1471 0.930 . S
C1462 H1456 0.930 . S
C1462 C1463 1.355 . S
C1462 C1464 1.415 . S
C1463 C1462 1.355 . S
C1463 C1465 1.419 . S
C1464 C1462 1.415 . S
C1464 C1469 1.425 . S
C1464 C1471 1.409 . S
C1465 H1457 0.930 . S
C1465 C1463 1.419 . S
C1465 C1466 1.362 . S
C1466 H1458 0.930 . S
C1466 C1465 1.362 . S
C1466 C1469 1.409 . S
C1467 H1459 0.930 . S
C1467 C1468 1.355 . S
C1467 C1469 1.415 . S
C1468 C1467 1.355 . S
C1468 C1470 1.419 . S
C1469 C1464 1.425 . S
C1469 C1466 1.409 . S
C1469 C1467 1.415 . S
C1470 H1460 0.930 . S
C1470 C1468 1.419 . S
C1470 C1471 1.362 . S
C1471 H1461 0.930 . S
C1471 C1464 1.409 . S
C1471 C1470 1.362 . S
H1472 C1478 0.930 . S
H1473 C1481 0.930 . S
H1474 C1482 0.930 . S
H1475 C1483 0.930 . S
H1476 C1486 0.930 . S
H1477 C1487 0.930 . S
C1478 H1472 0.930 . S
C1478 C1479 1.355 . S
C1478 C1480 1.415 . S
C1479 C1478 1.355 . S
C1479 C1481 1.419 . S
C1480 C1478 1.415 . S
C1480 C1485 1.425 . S
C1480 C1487 1.409 . S
C1481 H1473 0.930 . S
C1481 C1479 1.419 . S
C1481 C1482 1.362 . S
C1482 H1474 0.930 . S
C1482 C1481 1.362 . S
C1482 C1485 1.409 . S
C1483 H1475 0.930 . S
C1483 C1484 1.355 . S
C1483 C1485 1.415 . S
C1484 C1483 1.355 . S
C1484 C1486 1.419 . S
C1485 C1480 1.425 . S
C1485 C1482 1.409 . S
C1485 C1483 1.415 . S
C1486 H1476 0.930 . S
C1486 C1484 1.419 . S
C1486 C1487 1.362 . S
C1487 H1477 0.930 . S
C1487 C1480 1.409 . S
C1487 C1486 1.362 . S
H1488 C1494 0.930 . S
H1489 C1497 0.930 . S
H1490 C1498 0.930 1_556 S
H1491 C1499 0.964 . S
H1492 C1502 0.930 . S
H1493 C1503 0.930 . S
C1494 H1488 0.930 . S
C1494 C1495 1.355 . S
C1494 C1496 1.415 . S
C1495 C1494 1.355 . S
C1495 C1497 1.419 . S
C1496 C1494 1.415 . S
C1496 C1501 1.425 . S
C1496 C1503 1.409 1_455 S
C1497 H1489 0.930 . S
C1497 C1495 1.419 . S
C1497 C1498 1.362 . S
C1498 H1490 0.930 1_554 S
C1498 C1497 1.362 . S
C1498 C1501 1.409 . S
C1499 H1491 0.964 . S
C1499 C1500 1.355 . S
C1499 C1501 1.415 1_655 S
C1500 C1499 1.355 . S
C1500 C1502 1.419 . S
C1501 C1496 1.425 . S
C1501 C1498 1.409 . S
C1501 C1499 1.415 1_455 S
C1502 H1492 0.930 . S
C1502 C1500 1.419 . S
C1502 C1503 1.362 . S
C1503 H1493 0.930 . S
C1503 C1496 1.409 1_655 S
C1503 C1502 1.362 . S
H1504 C1510 0.930 . S
H1505 C1513 0.930 . S
H1506 C1514 0.930 . S
H1507 C1515 0.930 . S
H1508 C1518 0.930 . S
H1509 C1519 0.930 . S
C1510 H1504 0.930 . S
C1510 C1511 1.355 . S
C1510 C1512 1.415 . S
C1511 C1510 1.355 . S
C1511 C1513 1.419 . S
C1512 C1510 1.415 . S
C1512 C1517 1.425 . S
C1512 C1519 1.409 . S
C1513 H1505 0.930 . S
C1513 C1511 1.419 . S
C1513 C1514 1.362 . S
C1514 H1506 0.930 . S
C1514 C1513 1.362 . S
C1514 C1517 1.409 . S
C1515 H1507 0.930 . S
C1515 C1516 1.355 . S
C1515 C1517 1.415 . S
C1516 C1515 1.355 . S
C1516 C1518 1.419 . S
C1517 C1512 1.425 . S
C1517 C1514 1.409 . S
C1517 C1515 1.415 . S
C1518 H1508 0.930 . S
C1518 C1516 1.419 . S
C1518 C1519 1.362 . S
C1519 H1509 0.930 . S
C1519 C1512 1.409 . S
C1519 C1518 1.362 . S
H1520 C1526 0.930 . S
H1521 C1529 0.930 . S
H1522 C1530 0.930 . S
H1523 C1531 0.930 . S
H1524 C1534 0.930 . S
H1525 C1535 0.930 . S
C1526 H1520 0.930 . S
C1526 C1527 1.355 . S
C1526 C1528 1.415 . S
C1527 C1526 1.355 . S
C1527 C1529 1.419 . S
C1528 C1526 1.415 . S
C1528 C1533 1.425 . S
C1528 C1535 1.409 . S
C1529 H1521 0.930 . S
C1529 C1527 1.419 . S
C1529 C1530 1.362 . S
C1530 H1522 0.930 . S
C1530 C1529 1.362 . S
C1530 C1533 1.409 . S
C1531 H1523 0.930 . S
C1531 C1532 1.355 . S
C1531 C1533 1.415 . S
C1532 C1531 1.355 . S
C1532 C1534 1.419 . S
C1533 C1528 1.425 . S
C1533 C1530 1.409 . S
C1533 C1531 1.415 . S
C1534 H1524 0.930 . S
C1534 C1532 1.419 . S
C1534 C1535 1.362 . S
C1535 H1525 0.930 . S
C1535 C1528 1.409 . S
C1535 C1534 1.362 . S
H1536 C1542 0.930 . S
H1537 C1545 0.930 . S
H1538 C1546 0.930 . S
H1539 C1547 0.930 . S
H1540 C1550 0.930 . S
H1541 C1551 0.930 . S
C1542 H1536 0.930 . S
C1542 C1543 1.355 . S
C1542 C1544 1.415 . S
C1543 C1542 1.355 . S
C1543 C1545 1.419 . S
C1544 C1542 1.415 . S
C1544 C1549 1.425 . S
C1544 C1551 1.409 . S
C1545 H1537 0.930 . S
C1545 C1543 1.419 . S
C1545 C1546 1.362 . S
C1546 H1538 0.930 . S
C1546 C1545 1.362 . S
C1546 C1549 1.409 . S
C1547 H1539 0.930 . S
C1547 C1548 1.355 . S
C1547 C1549 1.415 . S
C1548 C1547 1.355 . S
C1548 C1550 1.419 . S
C1549 C1544 1.425 . S
C1549 C1546 1.409 . S
C1549 C1547 1.415 . S
C1550 H1540 0.930 . S
C1550 C1548 1.419 . S
C1550 C1551 1.362 . S
C1551 H1541 0.930 . S
C1551 C1544 1.409 . S
C1551 C1550 1.362 . S
H1552 C1558 0.930 . S
H1553 C1561 0.930 1_554 S
H1554 C1562 0.930 1_554 S
H1555 C1563 0.930 . S
H1556 C1566 0.930 . S
H1557 C1567 0.930 . S
C1558 H1552 0.930 . S
C1558 C1559 1.355 . S
C1558 C1560 1.415 . S
C1559 C1558 1.355 . S
C1559 C1561 1.419 . S
C1560 C1558 1.415 . S
C1560 C1565 1.425 . S
C1560 C1567 1.409 . S
C1561 H1553 0.930 1_556 S
C1561 C1559 1.419 . S
C1561 C1562 1.362 . S
C1562 H1554 0.930 1_556 S
C1562 C1561 1.362 . S
C1562 C1565 1.409 . S
C1563 H1555 0.930 . S
C1563 C1564 1.355 . S
C1563 C1565 1.415 . S
C1564 C1563 1.355 . S
C1564 C1566 1.419 . S
C1565 C1560 1.425 . S
C1565 C1562 1.409 . S
C1565 C1563 1.415 . S
C1566 H1556 0.930 . S
C1566 C1564 1.419 . S
C1566 C1567 1.362 . S
C1567 H1557 0.930 . S
C1567 C1560 1.409 . S
C1567 C1566 1.362 . S
H1568 C1574 0.930 . S
H1569 C1577 0.930 . S
H1570 C1578 0.930 . S
H1571 C1579 0.930 . S
H1572 C1582 0.930 . S
H1573 C1583 0.930 . S
C1574 H1568 0.930 . S
C1574 C1575 1.355 . S
C1574 C1576 1.415 . S
C1575 C1574 1.355 . S
C1575 C1577 1.419 . S
C1576 C1574 1.415 . S
C1576 C1581 1.425 . S
C1576 C1583 1.409 1_655 S
C1577 H1569 0.930 . S
C1577 C1575 1.419 . S
C1577 C1578 1.362 . S
C1578 H1570 0.930 . S
C1578 C1577 1.362 . S
C1578 C1581 1.409 . S
C1579 H1571 0.930 . S
C1579 C1580 1.355 . S
C1579 C1581 1.415 1_455 S
C1580 C1579 1.355 . S
C1580 C1582 1.419 . S
C1581 C1576 1.425 . S
C1581 C1578 1.409 . S
C1581 C1579 1.415 1_655 S
C1582 H1572 0.930 . S
C1582 C1580 1.419 . S
C1582 C1583 1.362 . S
C1583 H1573 0.930 . S
C1583 C1576 1.409 1_455 S
C1583 C1582 1.362 . S
C1015 C56 1.678 . S
C1020 C979 1.689 . S
C1031 C811 1.713 . S
C1036 C140 1.657 . S
C1047 C223 1.679 . S
C1052 C728 1.677 . S
C1063 C308 1.716 . S
C1068 C895 1.724 . S
C1079 C392 1.703 . S
C1084 C896 1.676 . S
C1095 C475 1.725 . S
C1100 C980 1.675 . S
C1111 C812 1.695 . S
C1116 C560 1.674 . S
C1127 C643 1.667 . S
C1132 C727 1.677 . S
C1143 C307 1.671 . S
C1148 C391 1.667 . S
C1159 C55 1.698 . S
C1164 C476 1.677 . S
C1175 C139 1.703 . S
C1180 C559 1.708 . S
C1191 C644 1.720 . S
C1196 C224 1.702 . S
C1207 C70 1.444 . S
C1212 C740 1.701 . S
C1223 C154 1.471 . S
C1228 C907 1.680 . S
C1239 C991 1.713 . S
C1244 C226 1.669 . S
C1255 C322 1.427 . S
C1260 C823 1.631 . S
C1271 C406 1.394 . S
C1276 C824 1.633 . S
C1287 C739 1.632 . S
C1292 C478 1.676 . S
C1303 C908 1.671 . S
C1308 C574 1.470 . S
C1319 C992 1.714 . S
C1324 C646 1.741 . S
C1335 C67 1.698 . S
C1340 C310 1.652 . S
C1351 C58 1.645 . S
C1356 C151 1.603 . S
C1367 C142 1.692 . S
C1372 C236 1.670 . S
C1383 C319 1.646 . S
C1388 C238 1.451 . S
C1399 C490 1.374 . S
C1404 C403 1.636 . S
C1415 C488 1.699 . S
C1420 C562 1.693 . S
C1431 C571 1.649 . S
C1436 C658 1.410 . S
C1447 C394 1.691 . S
C1452 C656 1.698 . S
C1463 C730 1.651 . S
C1468 C320 1.632 . S
C1479 C487 1.664 . S
C1484 C814 1.609 . S
C1495 C742 1.398 . S
C1500 C572 1.621 . S
C1511 C898 1.669 . S
C1516 C655 1.706 . S
C1527 C404 1.710 . S
C1532 C982 1.624 . S
C1543 C994 1.342 . S
C1548 C152 1.662 . S
C1559 C235 1.648 . S
C1564 C826 1.377 . S
C1575 C910 1.485 . S
C1580 C68 1.682 . S
