# Generated by pormake.
# Topology unm, (4)-cn, num edge types: 1
# Building blocks:
#     Node 0, Type 0, BuildingBlock: UXUYUI_clean_sbu_0, # of connection points: 4
#     Node 1, Type 0, BuildingBlock: UXUYUI_clean_sbu_0, # of connection points: 4
#     Node 2, Type 0, BuildingBlock: UXUYUI_clean_sbu_0, # of connection points: 4
#     Node 3, Type 0, BuildingBlock: UXUYUI_clean_sbu_0, # of connection points: 4
#     Node 4, Type 0, BuildingBlock: UXUYUI_clean_sbu_0, # of connection points: 4
#     Node 5, Type 0, BuildingBlock: UXUYUI_clean_sbu_0, # of connection points: 4
#     Node 6, Type 0, BuildingBlock: UXUYUI_clean_sbu_0, # of connection points: 4
#     Node 7, Type 0, BuildingBlock: UXUYUI_clean_sbu_0, # of connection points: 4
#     Edge 8, Type (0, 0), BuildingBlock: XUDNAN_clean_linker_2, # of connection points: 2
#     Edge 9, Type (0, 0), BuildingBlock: XUDNAN_clean_linker_2, # of connection points: 2
#     Edge 10, Type (0, 0), BuildingBlock: XUDNAN_clean_linker_2, # of connection points: 2
#     Edge 11, Type (0, 0), BuildingBlock: XUDNAN_clean_linker_2, # of connection points: 2
#     Edge 12, Type (0, 0), BuildingBlock: XUDNAN_clean_linker_2, # of connection points: 2
#     Edge 13, Type (0, 0), BuildingBlock: XUDNAN_clean_linker_2, # of connection points: 2
#     Edge 14, Type (0, 0), BuildingBlock: XUDNAN_clean_linker_2, # of connection points: 2
#     Edge 15, Type (0, 0), BuildingBlock: XUDNAN_clean_linker_2, # of connection points: 2
#     Edge 16, Type (0, 0), BuildingBlock: XUDNAN_clean_linker_2, # of connection points: 2
#     Edge 17, Type (0, 0), BuildingBlock: XUDNAN_clean_linker_2, # of connection points: 2
#     Edge 18, Type (0, 0), BuildingBlock: XUDNAN_clean_linker_2, # of connection points: 2
#     Edge 19, Type (0, 0), BuildingBlock: XUDNAN_clean_linker_2, # of connection points: 2
#     Edge 20, Type (0, 0), BuildingBlock: XUDNAN_clean_linker_2, # of connection points: 2
#     Edge 21, Type (0, 0), BuildingBlock: XUDNAN_clean_linker_2, # of connection points: 2
#     Edge 22, Type (0, 0), BuildingBlock: XUDNAN_clean_linker_2, # of connection points: 2
#     Edge 23, Type (0, 0), BuildingBlock: XUDNAN_clean_linker_2, # of connection points: 2
# Relax obj value: 0.260
# Max RMSD: 0.186
# Mean RMSD: 0.185
data_MOF--net-unm--node1-UXUYUI_clean_sbu_0--edge1-XUDNAN_clean_linker_2
_symmetry_space_group_name_H-M    P1
_symmetry_Int_Tables_number       1
_symmetry_cell_setting            triclinic
loop_
_symmetry_equiv_pos_as_xyz
'x, y, z'
_cell_length_a     37.986673
_cell_length_b     37.841621
_cell_length_c     61.926941
_cell_angle_alpha  89.942525
_cell_angle_beta   89.966443
_cell_angle_gamma 90.031951
loop_
_atom_site_label
_atom_site_type_symbol
_atom_site_fract_x
_atom_site_fract_y
_atom_site_fract_z
_atom_type_partial_charge
Li0 Li 0.072 0.26268 0.15288 0.0
Li1 Li 0.11133 0.23025 0.17902 0.0
Li2 Li 0.08332 0.20166 0.14563 0.0
Li3 Li 0.04792 0.21752 0.17623 0.0
C4 C 0.13449 0.26756 0.13616 0.0
N5 N 0.1642 0.32346 0.11388 0.0
C6 C 0.16019 0.28856 0.14596 0.0
C7 C 0.12421 0.27477 0.11493 0.0
C8 C 0.17483 0.31674 0.13445 0.0
C9 C 0.13944 0.30321 0.10397 0.0
C10 C 0.05246 0.27594 0.20083 0.0
C11 C 0.03914 0.28149 0.23874 0.0
N12 N 0.01066 0.30167 0.23375 0.0
C13 C 0.02325 0.29696 0.19606 0.0
C14 C 0.06067 0.26828 0.22233 0.0
C15 C 0.00237 0.30964 0.21294 0.0
C16 C 0.04076 0.31405 0.12543 0.0
N17 N 0.06371 0.3085 0.14191 0.0
C18 C 0.07222 0.37048 0.1464 0.0
C19 C 0.07973 0.33574 0.15225 0.0
C20 C 0.04803 0.37705 0.12975 0.0
C21 C 0.03273 0.3484 0.11889 0.0
H22 H 0.02779 0.29196 0.11785 0.0
H23 H 0.0976 0.33041 0.16546 0.0
C24 C 0.17559 0.21132 0.20119 0.0
N25 N 0.15125 0.23688 0.19728 0.0
C26 C 0.20516 0.21874 0.21396 0.0
C27 C 0.18399 0.27852 0.21822 0.0
C28 C 0.15483 0.26988 0.20561 0.0
C29 C 0.20977 0.25285 0.22262 0.0
H30 H 0.17217 0.18529 0.19429 0.0
H31 H 0.13534 0.28985 0.20197 0.0
C32 C 0.01891 0.21001 0.12946 0.0
N33 N 0.98276 0.17611 0.09671 0.0
C34 C 0.99334 0.18463 0.13438 0.0
C35 C 0.02601 0.21813 0.10785 0.0
C36 C 0.97533 0.16784 0.1176 0.0
C37 C 0.00752 0.20068 0.09154 0.0
C38 C 0.0759 0.15613 0.18872 0.0
C39 C 0.04818 0.13482 0.18164 0.0
C40 C 0.09107 0.15 0.20893 0.0
C41 C 0.03572 0.1079 0.19508 0.0
C42 C 0.07792 0.12275 0.22188 0.0
N43 N 0.05072 0.10248 0.21475 0.0
C44 C 0.11913 0.17945 0.1085 0.0
C45 C 0.06947 0.1438 0.1163 0.0
C46 C 0.12267 0.16384 0.08822 0.0
N47 N 0.09198 0.17037 0.1217 0.0
C48 C 0.07171 0.12781 0.09597 0.0
C49 C 0.09796 0.13864 0.08139 0.0
H50 H 0.13711 0.20012 0.11323 0.0
H51 H 0.04844 0.13651 0.12716 0.0
C52 C 0.97606 0.22389 0.18615 0.0
N53 N 0.00667 0.21047 0.19408 0.0
C54 C 0.94637 0.22692 0.19935 0.0
C55 C 0.97985 0.20175 0.22868 0.0
C56 C 0.00891 0.19913 0.21489 0.0
C57 C 0.94823 0.21655 0.22109 0.0
H58 H 0.97526 0.23432 0.1699 0.0
H59 H 0.03377 0.19016 0.22126 0.0
O60 O 0.11919 0.24036 0.14736 0.0
O61 O 0.07253 0.26232 0.18452 0.0
O62 O 0.03685 0.22676 0.14569 0.0
O63 O 0.08847 0.1826 0.17582 0.0
H64 H 0.16874 0.28324 0.16226 0.0
H65 H 0.10441 0.25881 0.10708 0.0
H66 H 0.19464 0.33329 0.14187 0.0
H67 H 0.13151 0.30923 0.0876 0.0
H68 H 0.04498 0.27554 0.25545 0.0
H69 H 0.01648 0.30297 0.17948 0.0
H70 H 0.0831 0.25185 0.22625 0.0
H71 H 0.97949 0.32568 0.20949 0.0
H72 H 0.08457 0.39199 0.1551 0.0
H73 H 0.01353 0.35253 0.10621 0.0
H74 H 0.22405 0.19794 0.21707 0.0
H75 H 0.18659 0.30536 0.22403 0.0
H76 H 0.98769 0.1776 0.15094 0.0
H77 H 0.04601 0.23725 0.10366 0.0
H78 H 0.95558 0.14809 0.12119 0.0
H79 H 0.01299 0.20652 0.07477 0.0
H80 H 0.03626 0.1392 0.16602 0.0
H81 H 0.11258 0.16628 0.21462 0.0
H82 H 0.01413 0.09132 0.18988 0.0
H83 H 0.08927 0.11778 0.2376 0.0
H84 H 0.1433 0.17303 0.07751 0.0
H85 H 0.05242 0.10809 0.09142 0.0
H86 H 0.92288 0.23919 0.19289 0.0
H87 H 0.98251 0.19336 0.24532 0.0
Li88 Li 0.29452 0.57945 0.64698 0.0
Li89 Li 0.26888 0.60808 0.67882 0.0
Li90 Li 0.27491 0.5427 0.67666 0.0
Li91 Li 0.23161 0.57422 0.65483 0.0
C92 C 0.34731 0.5867 0.67358 0.0
N93 N 0.41637 0.60325 0.66396 0.0
C94 C 0.35974 0.62106 0.67674 0.0
C95 C 0.37001 0.56067 0.66572 0.0
C96 C 0.39476 0.62892 0.67174 0.0
C97 C 0.40482 0.56959 0.66089 0.0
C98 C 0.23626 0.63326 0.6339 0.0
C99 C 0.18174 0.66345 0.62621 0.0
N100 N 0.18951 0.66261 0.60477 0.0
C101 C 0.24367 0.63268 0.61179 0.0
C102 C 0.20504 0.6488 0.64118 0.0
C103 C 0.21973 0.64769 0.59733 0.0
C104 C 0.32605 0.56343 0.60654 0.0
N105 N 0.32528 0.58711 0.62305 0.0
C106 C 0.3519 0.63127 0.60082 0.0
C107 C 0.33891 0.62012 0.62078 0.0
C108 C 0.35046 0.60837 0.583 0.0
C109 C 0.33889 0.5735 0.58626 0.0
H110 H 0.31398 0.53778 0.60854 0.0
H111 H 0.3368 0.63882 0.6339 0.0
C112 C 0.27869 0.64666 0.71819 0.0
N113 N 0.269 0.64915 0.69711 0.0
C114 C 0.27384 0.67531 0.73214 0.0
C115 C 0.2514 0.70933 0.70214 0.0
C116 C 0.25655 0.68 0.68882 0.0
C117 C 0.25926 0.70698 0.72425 0.0
H118 H 0.28904 0.62201 0.72434 0.0
H119 H 0.24963 0.68161 0.67195 0.0
C120 C 0.26433 0.50177 0.64263 0.0
N121 N 0.26357 0.42894 0.63954 0.0
C122 C 0.23233 0.48353 0.64224 0.0
C123 C 0.29593 0.48301 0.64123 0.0
C124 C 0.23251 0.4467 0.64071 0.0
C125 C 0.295 0.44619 0.63974 0.0
C126 C 0.22223 0.58141 0.70609 0.0
C127 C 0.23623 0.56622 0.72479 0.0
C128 C 0.19717 0.60831 0.70783 0.0
C129 C 0.22498 0.57832 0.74495 0.0
C130 C 0.18671 0.61975 0.72829 0.0
N131 N 0.20071 0.60464 0.74627 0.0
C132 C 0.30751 0.48073 0.69724 0.0
C133 C 0.24531 0.48363 0.69464 0.0
C134 C 0.30538 0.44626 0.70562 0.0
N135 N 0.27761 0.49835 0.69168 0.0
C136 C 0.24204 0.44931 0.70252 0.0
C137 C 0.27228 0.43 0.70781 0.0
H138 H 0.33291 0.49288 0.69453 0.0
H139 H 0.222 0.49816 0.68998 0.0
C140 C 0.18211 0.56398 0.62114 0.0
N141 N 0.18631 0.56834 0.64278 0.0
C142 C 0.14908 0.55547 0.61272 0.0
C143 C 0.12564 0.55612 0.64904 0.0
C144 C 0.15895 0.56483 0.6567 0.0
C145 C 0.12039 0.55093 0.62679 0.0
H146 H 0.20463 0.56605 0.61053 0.0
H147 H 0.16328 0.56735 0.67385 0.0
O148 O 0.31303 0.57863 0.67807 0.0
O149 O 0.25913 0.61828 0.64834 0.0
O150 O 0.26478 0.53774 0.64487 0.0
O151 O 0.23338 0.57042 0.68619 0.0
H152 H 0.34245 0.64149 0.68282 0.0
H153 H 0.36076 0.53392 0.66328 0.0
H154 H 0.40473 0.65544 0.67399 0.0
H155 H 0.42266 0.54977 0.65469 0.0
H156 H 0.15742 0.67537 0.63162 0.0
H157 H 0.26744 0.62052 0.60576 0.0
H158 H 0.19863 0.6491 0.6582 0.0
H159 H 0.22512 0.64735 0.58017 0.0
H160 H 0.36073 0.65833 0.59899 0.0
H161 H 0.33692 0.5552 0.57288 0.0
H162 H 0.28092 0.6725 0.74898 0.0
H163 H 0.24004 0.73308 0.69532 0.0
H164 H 0.20762 0.49758 0.64344 0.0
H165 H 0.32092 0.49673 0.64157 0.0
H166 H 0.20795 0.43221 0.64057 0.0
H167 H 0.31926 0.43131 0.63883 0.0
H168 H 0.25588 0.54562 0.72377 0.0
H169 H 0.18626 0.62055 0.69353 0.0
H170 H 0.2357 0.56691 0.75956 0.0
H171 H 0.16755 0.64073 0.72987 0.0
H172 H 0.32927 0.43198 0.70947 0.0
H173 H 0.21609 0.4377 0.70409 0.0
H174 H 0.14621 0.55179 0.59547 0.0
H175 H 0.10465 0.55194 0.6606 0.0
Li176 Li 0.88936 0.76761 0.17763 0.0
Li177 Li 0.92647 0.73343 0.15446 0.0
Li178 Li 0.95327 0.77632 0.17712 0.0
Li179 Li 0.91793 0.79412 0.14496 0.0
C180 C 0.92715 0.73154 0.20824 0.0
N181 N 0.92879 0.72637 0.25274 0.0
C182 C 0.93274 0.69883 0.21813 0.0
C183 C 0.92237 0.76165 0.22099 0.0
C184 C 0.93348 0.69675 0.24065 0.0
C185 C 0.9233 0.75848 0.24345 0.0
C186 C 0.86178 0.73326 0.13539 0.0
C187 C 0.8345 0.71418 0.10222 0.0
N188 N 0.82173 0.68514 0.11255 0.0
C189 C 0.84835 0.70326 0.14567 0.0
C190 C 0.85481 0.73882 0.11348 0.0
C191 C 0.82819 0.67922 0.13385 0.0
C192 C 0.83118 0.79698 0.20048 0.0
N193 N 0.84813 0.76648 0.19538 0.0
C194 C 0.80697 0.73275 0.21622 0.0
C195 C 0.83677 0.73474 0.20304 0.0
C196 C 0.78912 0.7638 0.22193 0.0
C197 C 0.80157 0.79627 0.21392 0.0
H198 H 0.84084 0.82186 0.19424 0.0
H199 H 0.85116 0.71095 0.19918 0.0
C200 C 0.96033 0.67041 0.15688 0.0
N201 N 0.93682 0.68731 0.14402 0.0
C202 C 0.97258 0.63699 0.15144 0.0
C203 C 0.93631 0.63869 0.1194 0.0
C204 C 0.92508 0.67247 0.12536 0.0
C205 C 0.96028 0.62043 0.13261 0.0
H206 H 0.97008 0.68329 0.17126 0.0
H207 H 0.90751 0.68686 0.11489 0.0
C208 C 0.93021 0.84705 0.17551 0.0
N209 N 0.95955 0.91389 0.17555 0.0
C210 C 0.96227 0.85323 0.16506 0.0
C211 C 0.91313 0.87485 0.18601 0.0
C212 C 0.97665 0.88721 0.16525 0.0
C213 C 0.92838 0.90846 0.18585 0.0
C214 C 0.97881 0.75223 0.12892 0.0
C215 C 0.0131 0.7392 0.13074 0.0
C216 C 0.96049 0.74809 0.10951 0.0
C217 C 0.02838 0.72193 0.11314 0.0
C218 C 0.9767 0.73072 0.09228 0.0
N219 N 0.01001 0.71807 0.09445 0.0
C220 C 0.01754 0.75527 0.19287 0.0
C221 C 0.99953 0.80907 0.20898 0.0
C222 C 0.04761 0.75418 0.20575 0.0
N223 N 0.99437 0.78245 0.19457 0.0
C224 C 0.02923 0.80885 0.22241 0.0
C225 C 0.0537 0.78104 0.2209 0.0
H226 H 0.01203 0.73377 0.18191 0.0
H227 H 0.98026 0.82994 0.21046 0.0
C228 C 0.87986 0.83355 0.11403 0.0
N229 N 0.91279 0.82556 0.12106 0.0
C230 C 0.87509 0.85034 0.09413 0.0
C231 C 0.93828 0.85221 0.08971 0.0
C232 C 0.94181 0.83539 0.10969 0.0
C233 C 0.90453 0.85899 0.08137 0.0
H234 H 0.85724 0.82524 0.12337 0.0
H235 H 0.96771 0.82844 0.11556 0.0
O236 O 0.92658 0.73382 0.18618 0.0
O237 O 0.8814 0.75723 0.14671 0.0
O238 O 0.91546 0.81405 0.1756 0.0
O239 O 0.96299 0.76849 0.14612 0.0
H240 H 0.93647 0.67527 0.20849 0.0
H241 H 0.91802 0.78722 0.21369 0.0
H242 H 0.93779 0.67159 0.24852 0.0
H243 H 0.91967 0.78155 0.2535 0.0
H244 H 0.82896 0.71811 0.08525 0.0
H245 H 0.85395 0.69826 0.16249 0.0
H246 H 0.86513 0.76175 0.10519 0.0
H247 H 0.8178 0.65578 0.14158 0.0
H248 H 0.79852 0.7073 0.22235 0.0
H249 H 0.78845 0.8208 0.21794 0.0
H250 H 0.99189 0.6245 0.1618 0.0
H251 H 0.92614 0.62699 0.10473 0.0
H252 H 0.9761 0.83209 0.157 0.0
H253 H 0.88835 0.8705 0.19423 0.0
H254 H 0.00145 0.89235 0.15724 0.0
H255 H 0.91544 0.93022 0.19391 0.0
H256 H 0.02785 0.74242 0.14552 0.0
H257 H 0.9338 0.75764 0.10788 0.0
H258 H 0.05487 0.71163 0.11435 0.0
H259 H 0.96271 0.72713 0.07723 0.0
H260 H 0.06527 0.73182 0.20439 0.0
H261 H 0.0329 0.83004 0.23394 0.0
H262 H 0.84861 0.85557 0.08851 0.0
H263 H 0.96172 0.85803 0.08042 0.0
Li264 Li 0.72906 0.45437 0.67445 0.0
Li265 Li 0.77413 0.42451 0.65264 0.0
Li266 Li 0.7119 0.4223 0.64208 0.0
Li267 Li 0.73391 0.38912 0.67376 0.0
C268 C 0.74413 0.49928 0.64323 0.0
N269 N 0.74615 0.57224 0.64355 0.0
C270 C 0.77618 0.51691 0.64585 0.0
C271 C 0.71315 0.51872 0.64058 0.0
C272 C 0.77664 0.55383 0.646 0.0
C273 C 0.71471 0.5556 0.64085 0.0
C274 C 0.7812 0.41184 0.70313 0.0
C275 C 0.81734 0.37091 0.72314 0.0
N276 N 0.80423 0.3841 0.74192 0.0
C277 C 0.7682 0.4251 0.72262 0.0
C278 C 0.80614 0.38469 0.70337 0.0
C279 C 0.78017 0.41071 0.74207 0.0
C280 C 0.69163 0.51223 0.69447 0.0
N281 N 0.72334 0.49648 0.6912 0.0
C282 C 0.75322 0.54498 0.70783 0.0
C283 C 0.75374 0.51189 0.69792 0.0
C284 C 0.72103 0.56252 0.71096 0.0
C285 C 0.68986 0.54541 0.70442 0.0
H286 H 0.66786 0.49955 0.6888 0.0
H287 H 0.77863 0.49897 0.69481 0.0
C288 C 0.82568 0.43539 0.62041 0.0
N289 N 0.8202 0.43111 0.64196 0.0
C290 C 0.85885 0.44523 0.61275 0.0
C291 C 0.87976 0.44628 0.64964 0.0
C292 C 0.84642 0.43597 0.65655 0.0
C293 C 0.88603 0.45158 0.62754 0.0
H294 H 0.80397 0.43252 0.60927 0.0
H295 H 0.84106 0.43335 0.6736 0.0
C296 C 0.65629 0.41142 0.66714 0.0
N297 N 0.58749 0.39546 0.65656 0.0
C298 C 0.64364 0.377 0.66977 0.0
C299 C 0.63397 0.43778 0.65927 0.0
C300 C 0.60875 0.36946 0.66431 0.0
C301 C 0.59928 0.42915 0.65395 0.0
C302 C 0.76888 0.36725 0.62881 0.0
C303 C 0.76227 0.36887 0.60662 0.0
C304 C 0.79919 0.35029 0.6363 0.0
C305 C 0.78635 0.35379 0.59228 0.0
C306 C 0.82265 0.33559 0.62144 0.0
N307 N 0.81581 0.33764 0.59992 0.0
C308 C 0.69373 0.44663 0.60134 0.0
C309 C 0.65974 0.39691 0.61157 0.0
C310 C 0.67948 0.44599 0.58062 0.0
N311 N 0.68397 0.42222 0.6163 0.0
C312 C 0.64436 0.39557 0.59102 0.0
C313 C 0.65465 0.42001 0.57503 0.0
H314 H 0.714 0.46565 0.60512 0.0
H315 H 0.65324 0.37699 0.62343 0.0
C316 C 0.72454 0.34818 0.71205 0.0
N317 N 0.73225 0.34654 0.69062 0.0
C318 C 0.73104 0.31912 0.72542 0.0
C319 C 0.74949 0.28598 0.69406 0.0
C320 C 0.74335 0.31592 0.68137 0.0
C321 C 0.74457 0.28784 0.71648 0.0
H322 H 0.71524 0.37268 0.71896 0.0
H323 H 0.74897 0.31514 0.66428 0.0
O324 O 0.74293 0.46317 0.64373 0.0
O325 O 0.76939 0.42519 0.68392 0.0
O326 O 0.69031 0.41931 0.67239 0.0
O327 O 0.74581 0.38219 0.64311 0.0
H328 H 0.80037 0.50228 0.64804 0.0
H329 H 0.68813 0.50542 0.6386 0.0
H330 H 0.80121 0.56784 0.64816 0.0
H331 H 0.69092 0.57099 0.63899 0.0
H332 H 0.83639 0.34969 0.72356 0.0
H333 H 0.74872 0.44594 0.72275 0.0
H334 H 0.81648 0.37412 0.68844 0.0
H335 H 0.77018 0.42057 0.75727 0.0
H336 H 0.77797 0.55723 0.7122 0.0
H337 H 0.6644 0.5577 0.70671 0.0
H338 H 0.86275 0.44951 0.59561 0.0
H339 H 0.90023 0.45092 0.66149 0.0
H340 H 0.66061 0.35632 0.67588 0.0
H341 H 0.64343 0.46453 0.65712 0.0
H342 H 0.59858 0.34292 0.6662 0.0
H343 H 0.58173 0.44923 0.64772 0.0
H344 H 0.7389 0.38172 0.60051 0.0
H345 H 0.8047 0.34879 0.65341 0.0
H346 H 0.78164 0.35496 0.57507 0.0
H347 H 0.84632 0.32259 0.62702 0.0
H348 H 0.68921 0.46478 0.56885 0.0
H349 H 0.62519 0.37516 0.58761 0.0
H350 H 0.7266 0.32139 0.74264 0.0
H351 H 0.75993 0.26232 0.6866 0.0
Li352 Li 0.54866 0.27549 0.32818 0.0
Li353 Li 0.58377 0.28817 0.36177 0.0
Li354 Li 0.61207 0.26549 0.32897 0.0
Li355 Li 0.57349 0.22857 0.34905 0.0
C356 C 0.57342 0.34521 0.33323 0.0
N357 N 0.54582 0.41269 0.33501 0.0
C358 C 0.54675 0.35325 0.34801 0.0
C359 C 0.58605 0.37149 0.31939 0.0
C360 C 0.53317 0.38754 0.34867 0.0
C361 C 0.57172 0.40544 0.32051 0.0
C362 C 0.51552 0.2446 0.37094 0.0
C363 C 0.5038 0.21043 0.40308 0.0
N364 N 0.47111 0.20278 0.39545 0.0
C365 C 0.48168 0.23667 0.36352 0.0
C366 C 0.52658 0.23164 0.39097 0.0
C367 C 0.45967 0.2154 0.37612 0.0
C368 C 0.49059 0.25439 0.30476 0.0
N369 N 0.50689 0.2845 0.3114 0.0
C370 C 0.4593 0.31935 0.29765 0.0
C371 C 0.4923 0.31675 0.30762 0.0
C372 C 0.44141 0.2885 0.29131 0.0
C373 C 0.45787 0.25577 0.29458 0.0
H374 H 0.50238 0.22902 0.30819 0.0
H375 H 0.50562 0.34046 0.31276 0.0
C376 C 0.61984 0.33528 0.38983 0.0
N377 N 0.58957 0.31662 0.38705 0.0
C378 C 0.62567 0.35388 0.40903 0.0
C379 C 0.56916 0.33361 0.42207 0.0
C380 C 0.56408 0.31614 0.40248 0.0
C381 C 0.60037 0.3525 0.42553 0.0
H382 H 0.63969 0.33517 0.37729 0.0
H383 H 0.53993 0.30183 0.39973 0.0
C384 C 0.57564 0.23472 0.29539 0.0
N385 N 0.5765 0.23663 0.25079 0.0
C386 C 0.57083 0.2037 0.28353 0.0
C387 C 0.58082 0.26676 0.28456 0.0
C388 C 0.57137 0.2052 0.26099 0.0
C389 C 0.58119 0.26715 0.26201 0.0
C390 C 0.64601 0.2267 0.36033 0.0
C391 C 0.64702 0.19656 0.34731 0.0
C392 C 0.67431 0.2343 0.37395 0.0
C393 C 0.67638 0.1744 0.34821 0.0
C394 C 0.7032 0.21147 0.37439 0.0
N395 N 0.70363 0.18225 0.36161 0.0
C396 C 0.67902 0.29248 0.31721 0.0
C397 C 0.665 0.23745 0.30116 0.0
C398 C 0.71302 0.29118 0.30853 0.0
N399 N 0.65596 0.26566 0.31359 0.0
C400 C 0.69863 0.23512 0.29213 0.0
C401 C 0.72341 0.26193 0.29604 0.0
H402 H 0.67132 0.31439 0.32738 0.0
H403 H 0.64662 0.21597 0.29895 0.0
C404 C 0.53375 0.16817 0.34768 0.0
N405 N 0.56178 0.18225 0.3582 0.0
C406 C 0.51831 0.13714 0.35512 0.0
C407 C 0.56244 0.13421 0.38325 0.0
C408 C 0.57665 0.16588 0.37552 0.0
C409 C 0.5324 0.12018 0.37327 0.0
H410 H 0.52238 0.18207 0.33411 0.0
H411 H 0.59848 0.17811 0.38385 0.0
O412 O 0.58773 0.31207 0.33246 0.0
O413 O 0.53785 0.26453 0.35853 0.0
O414 O 0.57497 0.23343 0.31748 0.0
O415 O 0.61792 0.24925 0.35941 0.0
H416 H 0.53629 0.33327 0.3587 0.0
H417 H 0.60676 0.36569 0.30791 0.0
H418 H 0.51249 0.39411 0.35998 0.0
H419 H 0.58124 0.42603 0.30987 0.0
H420 H 0.51219 0.19989 0.41848 0.0
H421 H 0.4725 0.24674 0.3482 0.0
H422 H 0.5528 0.23725 0.39689 0.0
H423 H 0.4335 0.20889 0.3705 0.0
H424 H 0.44766 0.34517 0.29521 0.0
H425 H 0.44489 0.23129 0.29023 0.0
H426 H 0.65007 0.36826 0.41125 0.0
H427 H 0.54898 0.33236 0.43441 0.0
H428 H 0.5667 0.17872 0.29169 0.0
H429 H 0.58451 0.29108 0.29339 0.0
H430 H 0.5677 0.18139 0.25161 0.0
H431 H 0.58519 0.29174 0.25342 0.0
H432 H 0.62551 0.19046 0.3365 0.0
H433 H 0.67398 0.25768 0.38402 0.0
H434 H 0.67755 0.15103 0.33819 0.0
H435 H 0.72531 0.21702 0.38485 0.0
H436 H 0.73112 0.31263 0.31181 0.0
H437 H 0.70558 0.21181 0.28294 0.0
H438 H 0.49534 0.1267 0.34695 0.0
H439 H 0.57384 0.12158 0.3973 0.0
Li440 Li 0.23816 0.10593 0.83021 0.0
Li441 Li 0.2155 0.0837 0.86389 0.0
Li442 Li 0.27676 0.07438 0.85467 0.0
Li443 Li 0.23163 0.04202 0.83557 0.0
C444 C 0.27706 0.14664 0.85925 0.0
N445 N 0.32576 0.2009 0.85781 0.0
C446 C 0.27668 0.1731 0.87498 0.0
C447 C 0.30219 0.14785 0.84275 0.0
C448 C 0.30153 0.20028 0.87398 0.0
C449 C 0.32658 0.17547 0.84231 0.0
C450 C 0.16547 0.10134 0.83278 0.0
C451 C 0.10907 0.11671 0.81759 0.0
N452 N 0.10946 0.14747 0.82893 0.0
C453 C 0.16528 0.13307 0.84432 0.0
C454 C 0.13714 0.09304 0.81933 0.0
C455 C 0.13674 0.15605 0.84214 0.0
C456 C 0.24417 0.1385 0.78885 0.0
N457 N 0.23669 0.14461 0.80999 0.0
C458 C 0.2334 0.2069 0.8034 0.0
C459 C 0.23084 0.17797 0.81736 0.0
C460 C 0.24175 0.20153 0.78155 0.0
C461 C 0.24672 0.16668 0.77427 0.0
H462 H 0.24882 0.11177 0.7834 0.0
H463 H 0.22496 0.18229 0.83423 0.0
C464 C 0.20413 0.10831 0.90522 0.0
N465 N 0.18701 0.09187 0.88883 0.0
C466 C 0.18793 0.11256 0.92525 0.0
C467 C 0.13649 0.08282 0.91126 0.0
C468 C 0.15357 0.07967 0.89129 0.0
C469 C 0.15391 0.09902 0.92873 0.0
H470 H 0.23085 0.11738 0.90288 0.0
H471 H 0.14059 0.06647 0.87802 0.0
C472 C 0.29586 0.04427 0.81464 0.0
N473 N 0.34296 0.99601 0.79773 0.0
C474 C 0.30764 0.01594 0.82721 0.0
C475 C 0.3081 0.04808 0.79349 0.0
C476 C 0.33143 0.99182 0.81837 0.0
C477 C 0.3319 0.0234 0.78523 0.0
C478 C 0.2231 0.01576 0.87777 0.0
C479 C 0.23608 0.99959 0.89643 0.0
C480 C 0.18931 0.00733 0.87043 0.0
C481 C 0.21503 0.97525 0.90746 0.0
C482 C 0.16908 0.98286 0.88191 0.0
N483 N 0.18224 0.96746 0.90003 0.0
C484 C 0.32465 0.0585 0.88737 0.0
C485 C 0.35166 0.07444 0.85424 0.0
C486 C 0.35711 0.04866 0.89603 0.0
N487 N 0.32247 0.07001 0.86663 0.0
C488 C 0.38461 0.06494 0.86222 0.0
C489 C 0.38749 0.05089 0.88318 0.0
H490 H 0.30096 0.05564 0.89688 0.0
H491 H 0.34918 0.08351 0.83775 0.0
C492 C 0.21062 0.99274 0.80209 0.0
N493 N 0.22447 0.99627 0.82225 0.0
C494 C 0.20878 0.95932 0.79228 0.0
C495 C 0.23514 0.93402 0.8242 0.0
C496 C 0.2369 0.96767 0.83319 0.0
C497 C 0.22103 0.92941 0.80349 0.0
H498 H 0.20159 0.01591 0.79347 0.0
H499 H 0.24921 0.97093 0.84875 0.0
O500 O 0.25266 0.12001 0.86002 0.0
O501 O 0.19306 0.07831 0.83457 0.0
O502 O 0.27227 0.0681 0.82284 0.0
O503 O 0.24331 0.03995 0.86691 0.0
H504 H 0.25728 0.17272 0.88778 0.0
H505 H 0.30274 0.12791 0.83029 0.0
H506 H 0.30152 0.22093 0.88605 0.0
H507 H 0.34611 0.17673 0.82962 0.0
H508 H 0.08698 0.11064 0.80722 0.0
H509 H 0.18688 0.13996 0.85485 0.0
H510 H 0.13689 0.06854 0.81031 0.0
H511 H 0.13629 0.18071 0.85096 0.0
H512 H 0.22883 0.23322 0.80966 0.0
H513 H 0.25341 0.16131 0.75759 0.0
H514 H 0.20222 0.12607 0.93791 0.0
H515 H 0.11042 0.07167 0.91313 0.0
H516 H 0.29858 0.01259 0.84363 0.0
H517 H 0.29932 0.06988 0.78354 0.0
H518 H 0.34072 0.96977 0.82792 0.0
H519 H 0.34156 0.02602 0.76887 0.0
H520 H 0.26217 0.0057 0.90234 0.0
H521 H 0.17873 0.01958 0.85605 0.0
H522 H 0.22475 0.96254 0.92193 0.0
H523 H 0.14289 0.97614 0.87641 0.0
H524 H 0.35826 0.03841 0.91235 0.0
H525 H 0.40723 0.06667 0.85162 0.0
H526 H 0.19783 0.95686 0.77621 0.0
H527 H 0.24568 0.91186 0.8332 0.0
Li528 Li 0.45345 0.72552 0.33131 0.0
Li529 Li 0.41472 0.70866 0.3621 0.0
Li530 Li 0.38924 0.7309 0.32847 0.0
Li531 Li 0.422 0.76931 0.35129 0.0
C532 C 0.4335 0.65395 0.3337 0.0
N533 N 0.46682 0.58918 0.33623 0.0
C534 C 0.4622 0.64933 0.34754 0.0
C535 C 0.42179 0.62564 0.32114 0.0
C536 C 0.47867 0.61638 0.3486 0.0
C537 C 0.43898 0.5931 0.32264 0.0
C538 C 0.47357 0.7559 0.37835 0.0
C539 C 0.47145 0.78121 0.41407 0.0
N540 N 0.50288 0.79735 0.41036 0.0
C541 C 0.50592 0.7726 0.37494 0.0
C542 C 0.4562 0.76014 0.39809 0.0
C543 C 0.52027 0.79351 0.3913 0.0
C544 C 0.51209 0.75524 0.31536 0.0
N545 N 0.49829 0.72226 0.31709 0.0
C546 C 0.55042 0.69748 0.30134 0.0
C547 C 0.51636 0.69346 0.30995 0.0
C548 C 0.56567 0.73138 0.30018 0.0
C549 C 0.54556 0.76045 0.30688 0.0
H550 H 0.49716 0.77768 0.32101 0.0
H551 H 0.50481 0.66744 0.31123 0.0
C552 C 0.37198 0.67628 0.39256 0.0
N553 N 0.40638 0.68048 0.38714 0.0
C554 C 0.36275 0.66565 0.41338 0.0
C555 C 0.42456 0.66072 0.42212 0.0
C556 C 0.43266 0.67182 0.40112 0.0
C557 C 0.38921 0.65913 0.42869 0.0
H558 H 0.35169 0.6837 0.38118 0.0
H559 H 0.45981 0.67623 0.39659 0.0
C560 C 0.42915 0.76643 0.29775 0.0
N561 N 0.43676 0.76807 0.25339 0.0
C562 C 0.43176 0.79875 0.28695 0.0
C563 C 0.43063 0.7349 0.28602 0.0
C564 C 0.43551 0.79903 0.2645 0.0
C565 C 0.43444 0.73631 0.2636 0.0
C566 C 0.35047 0.76841 0.35864 0.0
C567 C 0.34879 0.79557 0.34334 0.0
C568 C 0.32354 0.76485 0.37387 0.0
C569 C 0.32002 0.81855 0.34345 0.0
C570 C 0.29523 0.7884 0.37347 0.0
N571 N 0.29406 0.81451 0.35838 0.0
C572 C 0.31923 0.71133 0.32136 0.0
C573 C 0.34067 0.74943 0.29398 0.0
C574 C 0.28489 0.71464 0.31348 0.0
N575 N 0.34622 0.72919 0.31185 0.0
C576 C 0.30686 0.75296 0.28534 0.0
C577 C 0.27831 0.73623 0.29547 0.0
H578 H 0.3241 0.69609 0.33584 0.0
H579 H 0.36182 0.76457 0.28701 0.0
C580 C 0.45058 0.83626 0.35035 0.0
N581 N 0.42746 0.81599 0.36158 0.0
C582 C 0.45871 0.87015 0.35742 0.0
C583 C 0.41849 0.86205 0.38734 0.0
C584 C 0.41122 0.82809 0.3797 0.0
C585 C 0.44281 0.88334 0.37623 0.0
H586 H 0.46304 0.82583 0.33603 0.0
H587 H 0.39325 0.81114 0.38845 0.0
O588 O 0.41672 0.68586 0.33233 0.0
O589 O 0.45859 0.73609 0.36232 0.0
O590 O 0.42604 0.76594 0.31976 0.0
O591 O 0.37807 0.74516 0.35871 0.0
H592 H 0.47195 0.67092 0.35722 0.0
H593 H 0.39961 0.62881 0.31033 0.0
H594 H 0.50094 0.61246 0.35922 0.0
H595 H 0.43019 0.57096 0.31301 0.0
H596 H 0.45818 0.78492 0.42935 0.0
H597 H 0.5198 0.76956 0.35981 0.0
H598 H 0.43085 0.74794 0.40089 0.0
H599 H 0.54522 0.8067 0.38884 0.0
H600 H 0.56498 0.67434 0.29626 0.0
H601 H 0.55571 0.78715 0.3058 0.0
H602 H 0.33519 0.66457 0.41786 0.0
H603 H 0.44566 0.65627 0.43357 0.0
H604 H 0.43087 0.82336 0.29583 0.0
H605 H 0.4289 0.70961 0.29406 0.0
H606 H 0.43748 0.82387 0.25592 0.0
H607 H 0.43558 0.71214 0.25431 0.0
H608 H 0.36933 0.79888 0.33143 0.0
H609 H 0.32446 0.74407 0.38588 0.0
H610 H 0.31834 0.83958 0.33165 0.0
H611 H 0.27418 0.7859 0.38514 0.0
H612 H 0.26358 0.70122 0.32173 0.0
H613 H 0.30283 0.77028 0.27162 0.0
H614 H 0.47704 0.88599 0.34813 0.0
H615 H 0.4058 0.87129 0.40194 0.0
Li616 Li 0.78237 0.95824 0.82829 0.0
Li617 Li 0.73352 0.93011 0.84701 0.0
Li618 Li 0.79307 0.91982 0.86103 0.0
Li619 Li 0.77272 0.89222 0.82652 0.0
C620 C 0.74566 0.98999 0.86759 0.0
N621 N 0.69912 0.03779 0.88555 0.0
C622 C 0.72643 0.01287 0.85434 0.0
C623 C 0.74138 0.99162 0.88998 0.0
C624 C 0.70301 0.03681 0.86372 0.0
C625 C 0.71768 0.01592 0.89874 0.0
C626 C 0.71496 0.93343 0.80201 0.0
C627 C 0.66595 0.90611 0.78371 0.0
N628 N 0.65806 0.93762 0.77431 0.0
C629 C 0.70649 0.9655 0.79204 0.0
C630 C 0.69464 0.90344 0.79772 0.0
C631 C 0.67757 0.9671 0.77815 0.0
C632 C 0.79406 0.00278 0.79146 0.0
N633 N 0.79501 1.00081 0.81338 0.0
C634 C 0.80277 0.06335 0.81598 0.0
C635 C 0.80032 0.03012 0.82562 0.0
C636 C 0.80016 0.06667 0.79342 0.0
C637 C 0.79664 0.03561 0.78108 0.0
H638 H 0.78962 0.97908 0.78209 0.0
H639 H 0.80082 0.02797 0.84302 0.0
C640 C 0.678 0.92613 0.87717 0.0
N641 N 0.68655 0.93754 0.85699 0.0
C642 C 0.64536 0.9347 0.88618 0.0
C643 C 0.63097 0.96619 0.85338 0.0
C644 C 0.66371 0.95706 0.84507 0.0
C645 C 0.62164 0.9555 0.87432 0.0
H646 H 0.697 0.91135 0.88652 0.0
H647 H 0.67132 0.967 0.82948 0.0
C648 C 0.85144 0.93277 0.83324 0.0
N649 N 0.91793 0.96219 0.83537 0.0
C650 C 0.87945 0.91719 0.82216 0.0
C651 C 0.85721 0.96339 0.84536 0.0
C652 C 0.9129 0.93243 0.82346 0.0
C653 C 0.89102 0.97784 0.84624 0.0
C654 C 0.73727 0.85573 0.86178 0.0
C655 C 0.7518 0.83216 0.8767 0.0
C656 C 0.70455 0.84836 0.85253 0.0
C657 C 0.73347 0.8013 0.88192 0.0
C658 C 0.68703 0.81723 0.85818 0.0
N659 N 0.70175 0.79452 0.87262 0.0
C660 C 0.79531 0.90968 0.90506 0.0
C661 C 0.85279 0.91086 0.89022 0.0
C662 C 0.80887 0.90603 0.92588 0.0
N663 N 0.81722 0.91261 0.88779 0.0
C664 C 0.86754 0.90741 0.91083 0.0
C665 C 0.84547 0.90525 0.92903 0.0
H666 H 0.76713 0.91058 0.90263 0.0
H667 H 0.8698 0.91222 0.87628 0.0
C668 C 0.76776 0.85538 0.787 0.0
N669 N 0.77312 0.85095 0.80853 0.0
C670 C 0.76157 0.82618 0.77372 0.0
C671 C 0.76864 0.78815 0.80475 0.0
C672 C 0.77479 0.81811 0.81742 0.0
C673 C 0.76093 0.792 0.78266 0.0
H674 H 0.7668 0.88176 0.78028 0.0
H675 H 0.77959 0.81513 0.83451 0.0
O676 O 0.76791 0.96563 0.85862 0.0
O677 O 0.74339 0.93139 0.81552 0.0
O678 O 0.81847 0.91842 0.83181 0.0
O679 O 0.75503 0.88595 0.85645 0.0
H680 H 0.72898 0.01161 0.83695 0.0
H681 H 0.75611 0.97429 0.9005 0.0
H682 H 0.68774 0.05442 0.85365 0.0
H683 H 0.714 0.01736 0.91604 0.0
H684 H 0.65002 0.8831 0.78027 0.0
H685 H 0.72169 0.98906 0.79527 0.0
H686 H 0.70107 0.87828 0.80497 0.0
H687 H 0.67059 0.9918 0.77046 0.0
H688 H 0.80491 0.08632 0.8263 0.0
H689 H 0.79508 0.03666 0.76364 0.0
H690 H 0.63923 0.92616 0.90245 0.0
H691 H 0.61329 0.98189 0.84357 0.0
H692 H 0.87536 0.89357 0.81262 0.0
H693 H 0.83595 0.97565 0.85419 0.0
H694 H 0.93484 0.92063 0.81498 0.0
H695 H 0.89587 0.00145 0.85562 0.0
H696 H 0.77709 0.83756 0.88404 0.0
H697 H 0.69265 0.86662 0.84129 0.0
H698 H 0.74446 0.78272 0.89336 0.0
H699 H 0.66169 0.81118 0.85113 0.0
H700 H 0.79083 0.90467 0.9394 0.0
H701 H 0.89589 0.90625 0.91249 0.0
H702 H 0.75657 0.83045 0.75671 0.0
H703 H 0.76836 0.76243 0.81243 0.0
H704 H 0.15449 0.11743 0.05702 0.0
H705 H 0.04163 0.134 0.05407 0.0
H706 H 0.04262 0.12167 0.01487 0.0
H707 H 0.17536 0.1597 0.00874 0.0
H708 H 0.20972 0.12948 1.00091 0.0
H709 H 0.19961 0.13572 0.02903 0.0
H710 H 0.1891 0.06843 0.03354 0.0
H711 H 0.19957 0.06191 0.00544 0.0
H712 H 0.15821 0.04629 0.01608 0.0
H713 H 0.0573 0.11431 0.97519 0.0
H714 H 0.08379 0.10897 0.93892 0.0
H715 H 0.18658 0.09436 0.96834 0.0
C716 C 0.1299 0.11785 0.04818 0.0
C717 C 0.09795 0.12645 0.0586 0.0
C718 C 0.06632 0.12686 0.04648 0.0
C719 C 0.06666 0.12012 0.02418 0.0
C720 C 0.09878 0.11259 0.0143 0.0
C721 C 0.12974 0.11091 0.02599 0.0
C722 C 0.16095 0.1037 0.01145 0.0
C723 C 0.18799 0.13396 0.0126 0.0
C724 C 0.17795 0.06795 0.01696 0.0
C725 C 0.1429 0.10261 0.98967 0.0
C726 C 0.10705 0.10768 0.99161 0.0
C727 C 0.08528 0.10967 0.97352 0.0
C728 C 0.10059 0.10645 0.95295 0.0
C729 C 0.13737 0.10122 0.95058 0.0
C730 C 0.15849 0.09885 0.96936 0.0
H731 H 0.38761 0.57882 0.54897 0.0
H732 H 0.32315 0.66899 0.56663 0.0
H733 H 0.32668 0.69126 0.52935 0.0
H734 H 0.44502 0.62696 0.51155 0.0
H735 H 0.44813 0.59077 0.49275 0.0
H736 H 0.44149 0.58205 0.52107 0.0
H737 H 0.38574 0.54557 0.51199 0.0
H738 H 0.39206 0.55437 0.48366 0.0
H739 H 0.35095 0.56565 0.49645 0.0
H740 H 0.33366 0.7022 0.49024 0.0
H741 H 0.34805 0.704 0.45144 0.0
H742 H 0.4101 0.60841 0.4583 0.0
C743 C 0.37455 0.60339 0.54497 0.0
C744 C 0.35545 0.6224 0.56079 0.0
C745 C 0.33855 0.65438 0.55493 0.0
C746 C 0.34014 0.66711 0.53374 0.0
C747 C 0.35893 0.64773 0.51854 0.0
C748 C 0.37622 0.6168 0.52383 0.0
C749 C 0.39463 0.60137 0.5042 0.0
C750 C 0.4347 0.60023 0.5076 0.0
C751 C 0.37996 0.56455 0.49875 0.0
C752 C 0.38459 0.6283 0.48707 0.0
C753 C 0.36374 0.65461 0.49577 0.0
C754 C 0.35012 0.68189 0.48323 0.0
C755 C 0.35823 0.68254 0.4612 0.0
C756 C 0.37998 0.65627 0.4519 0.0
C757 C 0.39347 0.62885 0.46505 0.0
H758 H 0.85579 0.83819 0.05121 0.0
H759 H 0.94374 0.90986 0.06052 0.0
H760 H 0.93877 0.92907 0.02249 0.0
H761 H 0.87748 0.81155 0.99793 0.0
H762 H 0.83251 0.80978 0.98872 0.0
H763 H 0.84247 0.80228 0.01678 0.0
H764 H 0.79959 0.85239 0.02774 0.0
H765 H 0.78927 0.85988 0.99972 0.0
H766 H 0.80501 0.89581 0.01619 0.0
H767 H 0.92491 0.93935 0.98299 0.0
H768 H 0.90168 0.9417 0.94573 0.0
H769 H 0.82261 0.86358 0.96263 0.0
C770 C 0.87363 0.85842 0.04543 0.0
C771 C 0.90013 0.87257 0.05895 0.0
C772 C 0.92343 0.89838 0.05047 0.0
C773 C 0.92074 0.90955 0.0289 0.0
C774 C 0.89456 0.89473 0.01599 0.0
C775 C 0.87129 0.86988 0.02399 0.0
C776 C 0.84574 0.85776 0.00675 0.0
C777 C 0.84982 0.81798 1.00228 0.0
C778 C 0.80765 0.86703 0.01297 0.0
C779 C 0.85826 0.87966 0.98777 0.0
C780 C 0.88651 0.90074 0.99338 0.0
C781 C 0.90276 0.92298 0.97843 0.0
C782 C 0.88955 0.92395 0.95726 0.0
C783 C 0.8603 0.90287 0.95123 0.0
C784 C 0.84471 0.88035 0.96676 0.0
H785 H 0.60647 0.32072 0.46483 0.0
H786 H 0.60908 0.4229 0.43327 0.0
H787 H 0.6189 0.4519 0.46868 0.0
H788 H 0.5638 0.34781 0.51455 0.0
H789 H 0.59038 0.31952 0.53136 0.0
H790 H 0.58126 0.30715 0.50383 0.0
H791 H 0.64814 0.3021 0.49611 0.0
H792 H 0.65742 0.31412 0.52364 0.0
H793 H 0.67645 0.3392 0.50179 0.0
H794 H 0.62763 0.46939 0.50761 0.0
H795 H 0.64157 0.47416 0.54632 0.0
H796 H 0.6386 0.35969 0.55187 0.0
C797 C 0.60886 0.34923 0.4655 0.0
C798 C 0.60672 0.36981 0.44653 0.0
C799 C 0.61058 0.4069 0.44775 0.0
C800 C 0.61597 0.4235 0.46775 0.0
C801 C 0.61785 0.40248 0.48624 0.0
C802 C 0.61492 0.36611 0.48525 0.0
C803 C 0.6203 0.34942 0.50725 0.0
C804 C 0.58694 0.32982 0.51468 0.0
C805 C 0.6525 0.32476 0.50718 0.0
C806 C 0.62683 0.38207 0.52081 0.0
C807 C 0.62474 0.41241 0.50845 0.0
C808 C 0.62969 0.44577 0.5174 0.0
C809 C 0.63786 0.44815 0.53943 0.0
C810 C 0.64172 0.41731 0.55231 0.0
C811 C 0.6355 0.3839 0.54276 0.0
H812 H 0.27838 0.22955 0.21775 0.0
H813 H 0.21282 0.29698 0.25781 0.0
H814 H 0.26514 0.31528 0.2784 0.0
H815 H 0.33475 0.19963 0.26132 0.0
H816 H 0.37373 0.19859 0.24472 0.0
H817 H 0.33113 0.19137 0.23274 0.0
H818 H 0.34289 0.24234 0.20571 0.0
H819 H 0.38539 0.24994 0.21773 0.0
H820 H 0.35408 0.28558 0.21581 0.0
H821 H 0.32469 0.32729 0.29437 0.0
H822 H 0.38664 0.32826 0.30646 0.0
H823 H 0.4133 0.25131 0.25718 0.0
C824 C 0.27484 0.24782 0.231 0.0
C825 C 0.2413 0.26208 0.23589 0.0
C826 C 0.23819 0.28624 0.25331 0.0
C827 C 0.26778 0.2967 0.26523 0.0
C828 C 0.3004 0.28257 0.25976 0.0
C829 C 0.30409 0.25834 0.24323 0.0
C830 C 0.34208 0.24658 0.241 0.0
C831 C 0.34562 0.20668 0.2452 0.0
C832 C 0.35698 0.25673 0.21874 0.0
C833 C 0.35912 0.26801 0.25884 0.0
C834 C 0.33465 0.28882 0.26933 0.0
C835 C 0.3441 0.31108 0.28628 0.0
C836 C 0.37941 0.31168 0.29293 0.0
C837 C 0.40485 0.28996 0.28275 0.0
C838 C 0.39444 0.26807 0.26536 0.0
H839 H 0.26757 0.77871 0.7174 0.0
H840 H 0.23051 0.70248 0.76469 0.0
H841 H 0.21434 0.75119 0.78918 0.0
H842 H 0.30461 0.84005 0.75515 0.0
H843 H 0.29147 0.87872 0.74018 0.0
H844 H 0.29978 0.83785 0.72622 0.0
H845 H 0.23739 0.84045 0.70942 0.0
H846 H 0.22879 0.88124 0.72345 0.0
H847 H 0.19954 0.84412 0.72685 0.0
H848 H 0.20266 0.80775 0.80871 0.0
H849 H 0.19854 0.86863 0.82273 0.0
H850 H 0.24228 0.90882 0.76281 0.0
C851 C 0.25585 0.77225 0.73285 0.0
C852 C 0.25051 0.73664 0.73914 0.0
C853 C 0.23546 0.72943 0.75963 0.0
C854 C 0.22586 0.75695 0.77358 0.0
C855 C 0.23135 0.79166 0.76684 0.0
C856 C 0.2461 0.79945 0.74701 0.0
C857 C 0.24984 0.83909 0.74395 0.0
C858 C 0.28874 0.84953 0.74122 0.0
C859 C 0.22756 0.85198 0.72478 0.0
C860 C 0.23509 0.85232 0.76523 0.0
C861 C 0.22444 0.82445 0.77812 0.0
C862 C 0.21084 0.82978 0.79875 0.0
C863 C 0.20866 0.86444 0.80658 0.0
C864 C 0.22004 0.89344 0.79387 0.0
C865 C 0.2329 0.88723 0.77277 0.0
H866 H 0.60033 0.70071 0.26552 0.0
H867 H 0.61453 0.77539 0.318 0.0
H868 H 0.67319 0.79071 0.304 0.0
H869 H 0.69292 0.67062 0.26428 0.0
H870 H 0.69348 0.66643 0.23529 0.0
H871 H 0.65301 0.65989 0.24997 0.0
H872 H 0.62284 0.70769 0.22643 0.0
H873 H 0.66325 0.7146 0.21182 0.0
H874 H 0.64184 0.75129 0.2249 0.0
H875 H 0.72797 0.80176 0.28305 0.0
H876 H 0.7783 0.80402 0.25779 0.0
H877 H 0.73095 0.72056 0.2196 0.0
C878 C 0.61607 0.71977 0.27427 0.0
C879 C 0.60252 0.73719 0.29271 0.0
C880 C 0.62393 0.76222 0.30359 0.0
C881 C 0.65742 0.77099 0.29584 0.0
C882 C 0.66956 0.7542 0.27732 0.0
C883 C 0.64987 0.72875 0.26681 0.0
C884 C 0.66918 0.71524 0.247 0.0
C885 C 0.67765 0.67569 0.24928 0.0
C886 C 0.64801 0.72266 0.22632 0.0
C887 C 0.70239 0.73754 0.24788 0.0
C888 C 0.70194 0.75988 0.2655 0.0
C889 C 0.72885 0.78412 0.26932 0.0
C890 C 0.75718 0.78541 0.25482 0.0
C891 C 0.75853 0.76244 0.23682 0.0
C892 C 0.73076 0.73813 0.23339 0.0
H893 H 0.72791 0.21721 0.71358 0.0
H894 H 0.78859 0.2925 0.75097 0.0
H895 H 0.81162 0.24381 0.77356 0.0
H896 H 0.70363 0.16202 0.75898 0.0
H897 H 0.70616 0.12145 0.74383 0.0
H898 H 0.69527 0.16216 0.73032 0.0
H899 H 0.74707 0.15242 0.70374 0.0
H900 H 0.75834 0.11185 0.71732 0.0
H901 H 0.7909 0.14615 0.7142 0.0
H902 H 0.82957 0.18689 0.79121 0.0
H903 H 0.83649 0.12649 0.80541 0.0
H904 H 0.76086 0.08834 0.75823 0.0
C905 C 0.74602 0.22332 0.72655 0.0
C906 C 0.7565 0.25854 0.7306 0.0
C907 C 0.78002 0.2657 0.74778 0.0
C908 C 0.79342 0.23821 0.76056 0.0
C909 C 0.78277 0.20374 0.75609 0.0
C910 C 0.75923 0.19622 0.73972 0.0
C911 C 0.75099 0.15702 0.73892 0.0
C912 C 0.71168 0.15028 0.74328 0.0
C913 C 0.76252 0.14092 0.71726 0.0
C914 C 0.77368 0.14369 0.75735 0.0
C915 C 0.79209 0.17104 0.76685 0.0
C916 C 0.81498 0.1653 0.78405 0.0
C917 C 0.81857 0.13084 0.79209 0.0
C918 C 0.79898 0.10243 0.78318 0.0
C919 C 0.7766 0.10915 0.76534 0.0
H920 H 0.74636 0.23722 0.25656 0.0
H921 H 0.78413 0.27797 0.31783 0.0
H922 H 0.84541 0.27019 0.3055 0.0
H923 H 0.81287 0.17045 0.25011 0.0
H924 H 0.81652 0.17627 0.22131 0.0
H925 H 0.77551 0.18562 0.23475 0.0
H926 H 0.77582 0.24899 0.21887 0.0
H927 H 0.81676 0.2398 0.20532 0.0
H928 H 0.81347 0.2771 0.22328 0.0
H929 H 0.90268 0.25715 0.28677 0.0
H930 H 0.95183 0.24207 0.26241 0.0
H931 H 0.87706 0.2086 0.21352 0.0
C932 C 0.7675 0.24442 0.26742 0.0
C933 C 0.76032 0.25838 0.28816 0.0
C934 C 0.78885 0.26779 0.30175 0.0
C935 C 0.82379 0.2632 0.29496 0.0
C936 C 0.8299 0.24919 0.2745 0.0
C937 C 0.80257 0.24009 0.26088 0.0
C938 C 0.81636 0.22573 0.23963 0.0
C939 C 0.80462 0.18723 0.23626 0.0
C940 C 0.80492 0.24932 0.22066 0.0
C941 C 0.85571 0.22813 0.24346 0.0
C942 C 0.86293 0.24162 0.2637 0.0
C943 C 0.89734 0.24642 0.27091 0.0
C944 C 0.92511 0.23747 0.25701 0.0
C945 C 0.91841 0.22385 0.23608 0.0
C946 C 0.88312 0.21907 0.22935 0.0
H947 H 0.29462 0.39833 0.74543 0.0
H948 H 0.24059 0.37766 0.68513 0.0
H949 H 0.22934 0.31612 0.6967 0.0
H950 H 0.33446 0.31019 0.75192 0.0
H951 H 0.32773 0.30956 0.78074 0.0
H952 H 0.33429 0.35099 0.76693 0.0
H953 H 0.27566 0.37438 0.7828 0.0
H954 H 0.2688 0.33298 0.79652 0.0
H955 H 0.23564 0.34978 0.77842 0.0
H956 H 0.22155 0.25785 0.71537 0.0
H957 H 0.21677 0.20694 0.74018 0.0
H958 H 0.27452 0.26539 0.78894 0.0
C959 C 0.28106 0.38053 0.73457 0.0
C960 C 0.26869 0.39247 0.71433 0.0
C961 C 0.25032 0.36883 0.70067 0.0
C962 C 0.24387 0.33388 0.70709 0.0
C963 C 0.25579 0.323 0.7273 0.0
C964 C 0.27399 0.34556 0.74087 0.0
C965 C 0.28206 0.32769 0.76224 0.0
C966 C 0.32201 0.32441 0.76565 0.0
C967 C 0.26448 0.34739 0.78111 0.0
C968 C 0.26524 0.2918 0.75863 0.0
C969 C 0.25055 0.28956 0.73829 0.0
C970 C 0.23316 0.2592 0.7313 0.0
C971 C 0.23069 0.23035 0.74548 0.0
C972 C 0.24526 0.23208 0.76651 0.0
C973 C 0.26283 0.26331 0.77305 0.0
H974 H 0.25222 0.73575 0.25404 0.0
H975 H 0.22198 0.75392 0.32066 0.0
H976 H 0.16174 0.76926 0.30882 0.0
H977 H 0.20155 0.80604 0.2305 0.0
H978 H 0.18937 0.78112 0.20686 0.0
H979 H 0.23013 0.77169 0.22055 0.0
H980 H 0.21158 0.70615 0.22487 0.0
H981 H 0.17087 0.71533 0.21108 0.0
H982 H 0.17017 0.69571 0.23761 0.0
H983 H 0.10508 0.78413 0.28955 0.0
H984 H 0.05498 0.79253 0.26458 0.0
H985 H 0.12189 0.7636 0.21062 0.0
C986 C 0.23288 0.74295 0.26611 0.0
C987 C 0.24171 0.74356 0.28828 0.0
C988 C 0.21563 0.75285 0.30362 0.0
C989 C 0.18144 0.76187 0.29704 0.0
C990 C 0.17365 0.76124 0.27505 0.0
C991 C 0.19852 0.75166 0.25984 0.0
C992 C 0.18311 0.75222 0.23727 0.0
C993 C 0.20218 0.77939 0.22296 0.0
C994 C 0.18398 0.71515 0.22712 0.0
C995 C 0.14574 0.76372 0.24216 0.0
C996 C 0.14089 0.76909 0.26402 0.0
C997 C 0.10857 0.77997 0.27239 0.0
C998 C 0.08034 0.78493 0.25808 0.0
C999 C 0.0845 0.77874 0.23566 0.0
C1000 C 0.11781 0.7683 0.22768 0.0
H1001 H 0.76226 0.59025 0.74351 0.0
H1002 H 0.67889 0.61794 0.69862 0.0
H1003 H 0.67967 0.67913 0.7123 0.0
H1004 H 0.73375 0.64562 0.78763 0.0
H1005 H 0.77786 0.65766 0.79543 0.0
H1006 H 0.76974 0.61564 0.78273 0.0
H1007 H 0.81562 0.63064 0.75312 0.0
H1008 H 0.82382 0.67274 0.7657 0.0
H1009 H 0.81092 0.67081 0.73772 0.0
H1010 H 0.69051 0.73779 0.73021 0.0
H1011 H 0.70952 0.78921 0.75164 0.0
H1012 H 0.78767 0.72406 0.7838 0.0
C1013 C 0.74418 0.60913 0.73649 0.0
C1014 C 0.72036 0.59904 0.72002 0.0
C1015 C 0.69693 0.62468 0.71151 0.0
C1016 C 0.69737 0.65964 0.71905 0.0
C1017 C 0.72143 0.6687 0.7351 0.0
C1018 C 0.74435 0.64418 0.74376 0.0
C1019 C 0.76798 0.66088 0.76064 0.0
C1020 C 0.76196 0.64394 0.78293 0.0
C1021 C 0.80689 0.65864 0.75388 0.0
C1022 C 0.75482 0.69867 0.76009 0.0
C1023 C 0.72797 0.7026 0.74524 0.0
C1024 C 0.71161 0.73505 0.74182 0.0
C1025 C 0.72285 0.76422 0.75397 0.0
C1026 C 0.75032 0.76092 0.76935 0.0
C1027 C 0.76645 0.72755 0.77233 0.0
H1028 H 0.97293 0.5657 0.1604 0.0
H1029 H 0.97554 0.59335 0.09233 0.0
H1030 H 0.99772 0.53354 0.08377 0.0
H1031 H 0.05372 0.51755 0.16038 0.0
H1032 H 0.03849 0.48533 0.1797 0.0
H1033 H 0.02099 0.52953 0.18015 0.0
H1034 H 0.95764 0.5046 0.17666 0.0
H1035 H 0.97492 0.46032 0.17629 0.0
H1036 H 0.94714 0.47544 0.15458 0.0
H1037 H 0.02013 0.47015 0.08298 0.0
H1038 H 0.0417 0.4094 0.09023 0.0
H1039 H 0.02719 0.42627 0.1589 0.0
C1040 C 0.97841 0.55945 0.14367 0.0
C1041 C 0.97253 0.58432 0.12705 0.0
C1042 C 0.97937 0.57461 0.10534 0.0
C1043 C 0.99221 0.5408 0.10033 0.0
C1044 C 0.9982 0.51719 0.11722 0.0
C1045 C 0.99158 0.52621 0.13845 0.0
C1046 C 0.00093 0.49661 0.15377 0.0
C1047 C 0.03028 0.50794 0.16942 0.0
C1048 C 0.9682 0.48347 0.16604 0.0
C1049 C 0.01392 0.46939 0.13787 0.0
C1050 C 0.01198 0.48152 0.11684 0.0
C1051 C 0.02191 0.46046 0.09939 0.0
C1052 C 0.03404 0.4261 0.10363 0.0
C1053 C 0.03644 0.41351 0.12511 0.0
C1054 C 0.02627 0.43553 0.14235 0.0
H1055 H 0.91902 0.50975 0.64306 0.0
H1056 H 0.9297 0.42564 0.59608 0.0
H1057 H 0.98937 0.4475 0.58667 0.0
H1058 H 0.96909 0.57785 0.61215 0.0
H1059 H 0.98807 0.59576 0.63646 0.0
H1060 H 0.94478 0.57626 0.63714 0.0
H1061 H 0.9649 0.53377 0.6676 0.0
H1062 H 0.00812 0.55305 0.66701 0.0
H1063 H 0.0029 0.50609 0.66332 0.0
H1064 H 0.05063 0.47343 0.58659 0.0
H1065 H 0.1076 0.50122 0.59541 0.0
H1066 H 0.05497 0.5706 0.64091 0.0
C1067 C 0.93378 0.4963 0.63055 0.0
C1068 C 0.92014 0.466 0.62033 0.0
C1069 C 0.93987 0.44904 0.60398 0.0
C1070 C 0.97364 0.46131 0.59853 0.0
C1071 C 0.98671 0.49092 0.60931 0.0
C1072 C 0.96713 0.50843 0.62479 0.0
C1073 C 0.98785 0.53796 0.63515 0.0
C1074 C 0.97147 0.5741 0.6299 0.0
C1075 C 0.99114 0.53235 0.65971 0.0
C1076 C 0.02279 0.53331 0.62388 0.0
C1077 C 0.02159 0.50639 0.60882 0.0
C1078 C 0.05168 0.49513 0.59794 0.0
C1079 C 0.08393 0.51123 0.60299 0.0
C1080 C 0.08579 0.5382 0.61883 0.0
C1081 C 0.05451 0.55 0.62879 0.0
H1082 H 0.56083 0.05453 0.37677 0.0
H1083 H 0.46485 0.11385 0.38705 0.0
H1084 H 0.43307 0.05848 0.39556 0.0
H1085 H 0.52302 0.98845 0.34824 0.0
H1086 H 0.54966 0.95279 0.35851 0.0
H1087 H 0.56673 0.99706 0.35832 0.0
H1088 H 0.57843 0.9934 0.39949 0.0
H1089 H 0.56156 0.94885 0.39979 0.0
H1090 H 0.54302 0.98168 0.41753 0.0
H1091 H 0.40995 0.99702 0.39704 0.0
H1092 H 0.39675 0.93413 0.39005 0.0
H1093 H 0.5076 0.91444 0.37832 0.0
C1094 C 0.53348 0.05577 0.38167 0.0
C1095 C 0.51521 0.08812 0.38162 0.0
C1096 C 0.47915 0.08908 0.38725 0.0
C1097 C 0.46102 0.05787 0.3922 0.0
C1098 C 0.47944 0.02606 0.39141 0.0
C1099 C 0.51494 0.02478 0.38637 0.0
C1100 C 0.52737 0.98708 0.38359 0.0
C1101 C 0.54256 0.98102 0.36082 0.0
C1102 C 0.55418 0.97717 0.40115 0.0
C1103 C 0.493 0.96753 0.38675 0.0
C1104 C 0.46584 0.99036 0.39179 0.0
C1105 C 0.43111 0.97874 0.39357 0.0
C1106 C 0.42385 0.943 0.38962 0.0
C1107 C 0.45116 0.91953 0.38366 0.0
C1108 C 0.48622 0.93186 0.38284 0.0
H1109 H 0.45391 0.07736 0.87714 0.0
H1110 H 0.39736 0.98851 0.90475 0.0
H1111 H 0.45359 0.95782 0.91121 0.0
H1112 H 0.51065 0.02882 0.84739 0.0
H1113 H 0.54861 0.05687 0.85077 0.0
H1114 H 0.50518 0.07529 0.85286 0.0
H1115 H 0.51961 0.09929 0.89104 0.0
H1116 H 0.56337 0.08116 0.889 0.0
H1117 H 0.53561 0.06949 0.91152 0.0
H1118 H 0.51437 0.93248 0.90853 0.0
H1119 H 0.57452 0.91536 0.89737 0.0
H1120 H 0.59131 0.02064 0.87157 0.0
C1121 C 0.45344 0.05185 0.88507 0.0
C1122 C 0.42128 0.03545 0.89055 0.0
C1123 C 0.4217 0.00194 0.9008 0.0
C1124 C 0.45355 0.98422 0.90447 0.0
C1125 C 0.48472 1.00053 0.89804 0.0
C1126 C 0.48493 0.03382 0.88879 0.0
C1127 C 0.52131 0.04387 0.881 0.0
C1128 C 0.52142 0.05164 0.85656 0.0
C1129 C 0.53583 0.07532 0.89392 0.0
C1130 C 0.5411 0.01029 0.8862 0.0
C1131 C 0.51981 0.98582 0.89642 0.0
C1132 C 0.53155 0.9517 0.901 0.0
C1133 C 0.56572 0.9422 0.89462 0.0
C1134 C 0.58746 0.96665 0.88357 0.0
C1135 C 0.57519 0.00134 0.8799 0.0
loop_
_geom_bond_atom_site_label_1
_geom_bond_atom_site_label_2
_geom_bond_distance
_geom_bond_site_symmetry_2
_ccdc_geom_bond_type
Li0 N17 1.990 . S
Li0 O60 1.956 . S
Li0 O61 1.970 . S
Li0 O62 1.961 . S
Li1 N25 1.990 . S
Li1 O60 1.970 . S
Li1 O61 1.956 . S
Li1 O63 1.961 . S
Li2 N47 1.990 . S
Li2 O60 1.961 . S
Li2 O62 1.956 . S
Li2 O63 1.970 . S
Li3 N53 1.990 1_455 S
Li3 O61 1.961 . S
Li3 O62 1.970 . S
Li3 O63 1.956 . S
C4 C6 1.348 . S
C4 C7 1.356 . S
C4 O60 1.325 . S
N5 C8 1.314 . S
N5 C9 1.279 . S
C6 C4 1.348 . S
C6 C8 1.353 . S
C6 H64 0.929 . S
C7 C4 1.356 . S
C7 C9 1.358 . S
C7 H65 0.930 . S
C8 N5 1.314 . S
C8 C6 1.353 . S
C8 H66 0.930 . S
C9 N5 1.279 . S
C9 C7 1.358 . S
C9 H67 0.930 . S
C10 C13 1.348 . S
C10 C14 1.356 . S
C10 O61 1.325 . S
C11 N12 1.279 . S
C11 C14 1.358 . S
C11 H68 0.930 . S
N12 C11 1.279 . S
N12 C15 1.314 . S
C13 C10 1.348 . S
C13 C15 1.353 . S
C13 H69 0.929 . S
C14 C10 1.356 . S
C14 C11 1.358 . S
C14 H70 0.930 . S
C15 N12 1.314 . S
C15 C13 1.353 . S
C15 H71 0.930 . S
C16 N17 1.314 . S
C16 C21 1.353 . S
C16 H22 0.930 . S
N17 Li0 1.990 . S
N17 C16 1.314 . S
N17 C19 1.279 . S
C18 C19 1.358 . S
C18 C20 1.356 . S
C18 H72 0.930 . S
C19 N17 1.279 . S
C19 C18 1.358 . S
C19 H23 0.930 . S
C20 C18 1.356 . S
C20 C21 1.348 . S
C21 C16 1.353 . S
C21 C20 1.348 . S
C21 H73 0.929 1_455 S
H22 C16 0.930 . S
H23 C19 0.930 . S
C24 N25 1.314 . S
C24 C26 1.353 . S
C24 H30 0.930 . S
N25 Li1 1.990 . S
N25 C24 1.314 . S
N25 C28 1.279 . S
C26 C24 1.353 . S
C26 C29 1.348 . S
C26 H74 0.929 . S
C27 C28 1.358 . S
C27 C29 1.356 . S
C27 H75 0.930 . S
C28 N25 1.279 . S
C28 C27 1.358 . S
C28 H31 0.930 . S
C29 C26 1.348 . S
C29 C27 1.356 . S
H30 C24 0.930 . S
H31 C28 0.930 . S
C32 C34 1.348 . S
C32 C35 1.356 . S
C32 O62 1.325 1_655 S
N33 C36 1.314 . S
N33 C37 1.279 . S
C34 C32 1.348 . S
C34 C36 1.353 . S
C34 H76 0.929 . S
C35 C32 1.356 . S
C35 C37 1.358 . S
C35 H77 0.930 1_655 S
C36 N33 1.314 . S
C36 C34 1.353 . S
C36 H78 0.930 . S
C37 N33 1.279 . S
C37 C35 1.358 . S
C37 H79 0.930 . S
C38 C39 1.348 . S
C38 C40 1.356 . S
C38 O63 1.325 . S
C39 C38 1.348 . S
C39 C41 1.353 . S
C39 H80 0.929 . S
C40 C38 1.356 . S
C40 C42 1.358 . S
C40 H81 0.930 . S
C41 C39 1.353 . S
C41 N43 1.314 . S
C41 H82 0.930 . S
C42 C40 1.358 . S
C42 N43 1.279 . S
C42 H83 0.930 . S
N43 C41 1.314 . S
N43 C42 1.279 . S
C44 C46 1.353 . S
C44 N47 1.314 . S
C44 H50 0.930 . S
C45 N47 1.279 . S
C45 C48 1.358 . S
C45 H51 0.930 . S
C46 C44 1.353 . S
C46 C49 1.348 . S
C46 H84 0.929 . S
N47 Li2 1.990 . S
N47 C44 1.314 . S
N47 C45 1.279 . S
C48 C45 1.358 . S
C48 C49 1.356 . S
C48 H85 0.930 . S
C49 C46 1.348 . S
C49 C48 1.356 . S
H50 C44 0.930 . S
H51 C45 0.930 . S
C52 N53 1.314 . S
C52 C54 1.353 . S
C52 H58 0.930 . S
N53 Li3 1.990 1_655 S
N53 C52 1.314 . S
N53 C56 1.279 . S
C54 C52 1.353 . S
C54 C57 1.348 . S
C54 H86 0.929 . S
C55 C56 1.358 . S
C55 C57 1.356 . S
C55 H87 0.930 . S
C56 N53 1.279 . S
C56 C55 1.358 . S
C56 H59 0.930 . S
C57 C54 1.348 . S
C57 C55 1.356 . S
H58 C52 0.930 . S
H59 C56 0.930 . S
O60 Li0 1.956 . S
O60 Li1 1.970 . S
O60 Li2 1.961 . S
O60 C4 1.325 . S
O61 Li0 1.970 . S
O61 Li1 1.956 . S
O61 Li3 1.961 . S
O61 C10 1.325 . S
O62 Li0 1.961 . S
O62 Li2 1.956 . S
O62 Li3 1.970 . S
O62 C32 1.325 1_455 S
O63 Li1 1.961 . S
O63 Li2 1.970 . S
O63 Li3 1.956 . S
O63 C38 1.325 . S
H64 C6 0.929 . S
H65 C7 0.930 . S
H66 C8 0.930 . S
H67 C9 0.930 . S
H68 C11 0.930 . S
H69 C13 0.929 . S
H70 C14 0.930 . S
H71 C15 0.930 . S
H72 C18 0.930 . S
H73 C21 0.929 1_655 S
H74 C26 0.929 . S
H75 C27 0.930 . S
H76 C34 0.929 . S
H77 C35 0.930 1_455 S
H78 C36 0.930 . S
H79 C37 0.930 . S
H80 C39 0.929 . S
H81 C40 0.930 . S
H82 C41 0.930 . S
H83 C42 0.930 . S
H84 C46 0.929 . S
H85 C48 0.930 . S
H86 C54 0.929 . S
H87 C55 0.930 . S
Li88 N105 1.990 . S
Li88 O148 1.956 . S
Li88 O149 1.970 . S
Li88 O150 1.961 . S
Li89 N113 1.990 . S
Li89 O148 1.970 . S
Li89 O149 1.956 . S
Li89 O151 1.961 . S
Li90 N135 1.990 . S
Li90 O148 1.961 . S
Li90 O150 1.956 . S
Li90 O151 1.970 . S
Li91 N141 1.990 . S
Li91 O149 1.961 . S
Li91 O150 1.970 . S
Li91 O151 1.956 . S
C92 C94 1.348 . S
C92 C95 1.356 . S
C92 O148 1.325 . S
N93 C96 1.314 . S
N93 C97 1.279 . S
C94 C92 1.348 . S
C94 C96 1.353 . S
C94 H152 0.929 . S
C95 C92 1.356 . S
C95 C97 1.358 . S
C95 H153 0.930 . S
C96 N93 1.314 . S
C96 C94 1.353 . S
C96 H154 0.930 . S
C97 N93 1.279 . S
C97 C95 1.358 . S
C97 H155 0.930 . S
C98 C101 1.348 . S
C98 C102 1.356 . S
C98 O149 1.325 . S
C99 N100 1.279 . S
C99 C102 1.358 . S
C99 H156 0.930 . S
N100 C99 1.279 . S
N100 C103 1.314 . S
C101 C98 1.348 . S
C101 C103 1.353 . S
C101 H157 0.929 . S
C102 C98 1.356 . S
C102 C99 1.358 . S
C102 H158 0.930 . S
C103 N100 1.314 . S
C103 C101 1.353 . S
C103 H159 0.930 . S
C104 N105 1.314 . S
C104 C109 1.353 . S
C104 H110 0.930 . S
N105 Li88 1.990 . S
N105 C104 1.314 . S
N105 C107 1.279 . S
C106 C107 1.358 . S
C106 C108 1.356 . S
C106 H160 0.930 . S
C107 N105 1.279 . S
C107 C106 1.358 . S
C107 H111 0.930 . S
C108 C106 1.356 . S
C108 C109 1.348 . S
C109 C104 1.353 . S
C109 C108 1.348 . S
C109 H161 0.929 . S
H110 C104 0.930 . S
H111 C107 0.930 . S
C112 N113 1.314 . S
C112 C114 1.353 . S
C112 H118 0.930 . S
N113 Li89 1.990 . S
N113 C112 1.314 . S
N113 C116 1.279 . S
C114 C112 1.353 . S
C114 C117 1.348 . S
C114 H162 0.929 . S
C115 C116 1.358 . S
C115 C117 1.356 . S
C115 H163 0.930 . S
C116 N113 1.279 . S
C116 C115 1.358 . S
C116 H119 0.930 . S
C117 C114 1.348 . S
C117 C115 1.356 . S
H118 C112 0.930 . S
H119 C116 0.930 . S
C120 C122 1.348 . S
C120 C123 1.356 . S
C120 O150 1.325 . S
N121 C124 1.314 . S
N121 C125 1.279 . S
C122 C120 1.348 . S
C122 C124 1.353 . S
C122 H164 0.929 . S
C123 C120 1.356 . S
C123 C125 1.358 . S
C123 H165 0.930 . S
C124 N121 1.314 . S
C124 C122 1.353 . S
C124 H166 0.930 . S
C125 N121 1.279 . S
C125 C123 1.358 . S
C125 H167 0.930 . S
C126 C127 1.348 . S
C126 C128 1.356 . S
C126 O151 1.325 . S
C127 C126 1.348 . S
C127 C129 1.353 . S
C127 H168 0.929 . S
C128 C126 1.356 . S
C128 C130 1.358 . S
C128 H169 0.930 . S
C129 C127 1.353 . S
C129 N131 1.314 . S
C129 H170 0.930 . S
C130 C128 1.358 . S
C130 N131 1.279 . S
C130 H171 0.930 . S
N131 C129 1.314 . S
N131 C130 1.279 . S
C132 C134 1.353 . S
C132 N135 1.314 . S
C132 H138 0.930 . S
C133 N135 1.279 . S
C133 C136 1.358 . S
C133 H139 0.930 . S
C134 C132 1.353 . S
C134 C137 1.348 . S
C134 H172 0.929 . S
N135 Li90 1.990 . S
N135 C132 1.314 . S
N135 C133 1.279 . S
C136 C133 1.358 . S
C136 C137 1.356 . S
C136 H173 0.930 . S
C137 C134 1.348 . S
C137 C136 1.356 . S
H138 C132 0.930 . S
H139 C133 0.930 . S
C140 N141 1.314 . S
C140 C142 1.353 . S
C140 H146 0.930 . S
N141 Li91 1.990 . S
N141 C140 1.314 . S
N141 C144 1.279 . S
C142 C140 1.353 . S
C142 C145 1.348 . S
C142 H174 0.929 . S
C143 C144 1.358 . S
C143 C145 1.356 . S
C143 H175 0.930 . S
C144 N141 1.279 . S
C144 C143 1.358 . S
C144 H147 0.930 . S
C145 C142 1.348 . S
C145 C143 1.356 . S
H146 C140 0.930 . S
H147 C144 0.930 . S
O148 Li88 1.956 . S
O148 Li89 1.970 . S
O148 Li90 1.961 . S
O148 C92 1.325 . S
O149 Li88 1.970 . S
O149 Li89 1.956 . S
O149 Li91 1.961 . S
O149 C98 1.325 . S
O150 Li88 1.961 . S
O150 Li90 1.956 . S
O150 Li91 1.970 . S
O150 C120 1.325 . S
O151 Li89 1.961 . S
O151 Li90 1.970 . S
O151 Li91 1.956 . S
O151 C126 1.325 . S
H152 C94 0.929 . S
H153 C95 0.930 . S
H154 C96 0.930 . S
H155 C97 0.930 . S
H156 C99 0.930 . S
H157 C101 0.929 . S
H158 C102 0.930 . S
H159 C103 0.930 . S
H160 C106 0.930 . S
H161 C109 0.929 . S
H162 C114 0.929 . S
H163 C115 0.930 . S
H164 C122 0.929 . S
H165 C123 0.930 . S
H166 C124 0.930 . S
H167 C125 0.930 . S
H168 C127 0.929 . S
H169 C128 0.930 . S
H170 C129 0.930 . S
H171 C130 0.930 . S
H172 C134 0.929 . S
H173 C136 0.930 . S
H174 C142 0.929 . S
H175 C143 0.930 . S
Li176 N193 1.990 . S
Li176 O236 1.956 . S
Li176 O237 1.970 . S
Li176 O238 1.961 . S
Li177 N201 1.990 . S
Li177 O236 1.970 . S
Li177 O237 1.956 . S
Li177 O239 1.961 . S
Li178 N223 1.990 1_655 S
Li178 O236 1.961 . S
Li178 O238 1.956 . S
Li178 O239 1.970 . S
Li179 N229 1.990 . S
Li179 O237 1.961 . S
Li179 O238 1.970 . S
Li179 O239 1.956 . S
C180 C182 1.348 . S
C180 C183 1.356 . S
C180 O236 1.325 . S
N181 C184 1.314 . S
N181 C185 1.279 . S
C182 C180 1.348 . S
C182 C184 1.353 . S
C182 H240 0.929 . S
C183 C180 1.356 . S
C183 C185 1.358 . S
C183 H241 0.930 . S
C184 N181 1.314 . S
C184 C182 1.353 . S
C184 H242 0.930 . S
C185 N181 1.279 . S
C185 C183 1.358 . S
C185 H243 0.930 . S
C186 C189 1.348 . S
C186 C190 1.356 . S
C186 O237 1.325 . S
C187 N188 1.279 . S
C187 C190 1.358 . S
C187 H244 0.930 . S
N188 C187 1.279 . S
N188 C191 1.314 . S
C189 C186 1.348 . S
C189 C191 1.353 . S
C189 H245 0.929 . S
C190 C186 1.356 . S
C190 C187 1.358 . S
C190 H246 0.930 . S
C191 N188 1.314 . S
C191 C189 1.353 . S
C191 H247 0.930 . S
C192 N193 1.314 . S
C192 C197 1.353 . S
C192 H198 0.930 . S
N193 Li176 1.990 . S
N193 C192 1.314 . S
N193 C195 1.279 . S
C194 C195 1.358 . S
C194 C196 1.356 . S
C194 H248 0.930 . S
C195 N193 1.279 . S
C195 C194 1.358 . S
C195 H199 0.930 . S
C196 C194 1.356 . S
C196 C197 1.348 . S
C197 C192 1.353 . S
C197 C196 1.348 . S
C197 H249 0.929 . S
H198 C192 0.930 . S
H199 C195 0.930 . S
C200 N201 1.314 . S
C200 C202 1.353 . S
C200 H206 0.930 . S
N201 Li177 1.990 . S
N201 C200 1.314 . S
N201 C204 1.279 . S
C202 C200 1.353 . S
C202 C205 1.348 . S
C202 H250 0.929 1_655 S
C203 C204 1.358 . S
C203 C205 1.356 . S
C203 H251 0.930 . S
C204 N201 1.279 . S
C204 C203 1.358 . S
C204 H207 0.930 . S
C205 C202 1.348 . S
C205 C203 1.356 . S
H206 C200 0.930 . S
H207 C204 0.930 . S
C208 C210 1.348 . S
C208 C211 1.356 . S
C208 O238 1.325 . S
N209 C212 1.314 . S
N209 C213 1.279 . S
C210 C208 1.348 . S
C210 C212 1.353 . S
C210 H252 0.929 . S
C211 C208 1.356 . S
C211 C213 1.358 . S
C211 H253 0.930 . S
C212 N209 1.314 . S
C212 C210 1.353 . S
C212 H254 0.930 . S
C213 N209 1.279 . S
C213 C211 1.358 . S
C213 H255 0.930 . S
C214 C215 1.348 . S
C214 C216 1.356 . S
C214 O239 1.325 1_455 S
C215 C214 1.348 . S
C215 C217 1.353 . S
C215 H256 0.929 . S
C216 C214 1.356 . S
C216 C218 1.358 . S
C216 H257 0.930 1_455 S
C217 C215 1.353 . S
C217 N219 1.314 . S
C217 H258 0.930 . S
C218 C216 1.358 . S
C218 N219 1.279 . S
C218 H259 0.930 . S
N219 C217 1.314 . S
N219 C218 1.279 . S
C220 C222 1.353 . S
C220 N223 1.314 . S
C220 H226 0.930 . S
C221 N223 1.279 . S
C221 C224 1.358 . S
C221 H227 0.930 . S
C222 C220 1.353 . S
C222 C225 1.348 . S
C222 H260 0.929 . S
N223 Li178 1.990 1_455 S
N223 C220 1.314 . S
N223 C221 1.279 . S
C224 C221 1.358 . S
C224 C225 1.356 . S
C224 H261 0.930 . S
C225 C222 1.348 . S
C225 C224 1.356 . S
H226 C220 0.930 . S
H227 C221 0.930 . S
C228 N229 1.314 . S
C228 C230 1.353 . S
C228 H234 0.930 . S
N229 Li179 1.990 . S
N229 C228 1.314 . S
N229 C232 1.279 . S
C230 C228 1.353 . S
C230 C233 1.348 . S
C230 H262 0.929 . S
C231 C232 1.358 . S
C231 C233 1.356 . S
C231 H263 0.930 . S
C232 N229 1.279 . S
C232 C231 1.358 . S
C232 H235 0.930 . S
C233 C230 1.348 . S
C233 C231 1.356 . S
H234 C228 0.930 . S
H235 C232 0.930 . S
O236 Li176 1.956 . S
O236 Li177 1.970 . S
O236 Li178 1.961 . S
O236 C180 1.325 . S
O237 Li176 1.970 . S
O237 Li177 1.956 . S
O237 Li179 1.961 . S
O237 C186 1.325 . S
O238 Li176 1.961 . S
O238 Li178 1.956 . S
O238 Li179 1.970 . S
O238 C208 1.325 . S
O239 Li177 1.961 . S
O239 Li178 1.970 . S
O239 Li179 1.956 . S
O239 C214 1.325 1_655 S
H240 C182 0.929 . S
H241 C183 0.930 . S
H242 C184 0.930 . S
H243 C185 0.930 . S
H244 C187 0.930 . S
H245 C189 0.929 . S
H246 C190 0.930 . S
H247 C191 0.930 . S
H248 C194 0.930 . S
H249 C197 0.929 . S
H250 C202 0.929 1_455 S
H251 C203 0.930 . S
H252 C210 0.929 . S
H253 C211 0.930 . S
H254 C212 0.930 . S
H255 C213 0.930 . S
H256 C215 0.929 . S
H257 C216 0.930 1_655 S
H258 C217 0.930 . S
H259 C218 0.930 . S
H260 C222 0.929 . S
H261 C224 0.930 . S
H262 C230 0.929 . S
H263 C231 0.930 . S
Li264 N281 1.990 . S
Li264 O324 1.956 . S
Li264 O325 1.970 . S
Li264 O326 1.961 . S
Li265 N289 1.990 . S
Li265 O324 1.970 . S
Li265 O325 1.956 . S
Li265 O327 1.961 . S
Li266 N311 1.990 . S
Li266 O324 1.961 . S
Li266 O326 1.956 . S
Li266 O327 1.970 . S
Li267 N317 1.990 . S
Li267 O325 1.961 . S
Li267 O326 1.970 . S
Li267 O327 1.956 . S
C268 C270 1.348 . S
C268 C271 1.356 . S
C268 O324 1.325 . S
N269 C272 1.314 . S
N269 C273 1.279 . S
C270 C268 1.348 . S
C270 C272 1.353 . S
C270 H328 0.929 . S
C271 C268 1.356 . S
C271 C273 1.358 . S
C271 H329 0.930 . S
C272 N269 1.314 . S
C272 C270 1.353 . S
C272 H330 0.930 . S
C273 N269 1.279 . S
C273 C271 1.358 . S
C273 H331 0.930 . S
C274 C277 1.348 . S
C274 C278 1.356 . S
C274 O325 1.325 . S
C275 N276 1.279 . S
C275 C278 1.358 . S
C275 H332 0.930 . S
N276 C275 1.279 . S
N276 C279 1.314 . S
C277 C274 1.348 . S
C277 C279 1.353 . S
C277 H333 0.929 . S
C278 C274 1.356 . S
C278 C275 1.358 . S
C278 H334 0.930 . S
C279 N276 1.314 . S
C279 C277 1.353 . S
C279 H335 0.930 . S
C280 N281 1.314 . S
C280 C285 1.353 . S
C280 H286 0.930 . S
N281 Li264 1.990 . S
N281 C280 1.314 . S
N281 C283 1.279 . S
C282 C283 1.358 . S
C282 C284 1.356 . S
C282 H336 0.930 . S
C283 N281 1.279 . S
C283 C282 1.358 . S
C283 H287 0.930 . S
C284 C282 1.356 . S
C284 C285 1.348 . S
C285 C280 1.353 . S
C285 C284 1.348 . S
C285 H337 0.929 . S
H286 C280 0.930 . S
H287 C283 0.930 . S
C288 N289 1.314 . S
C288 C290 1.353 . S
C288 H294 0.930 . S
N289 Li265 1.990 . S
N289 C288 1.314 . S
N289 C292 1.279 . S
C290 C288 1.353 . S
C290 C293 1.348 . S
C290 H338 0.929 . S
C291 C292 1.358 . S
C291 C293 1.356 . S
C291 H339 0.930 . S
C292 N289 1.279 . S
C292 C291 1.358 . S
C292 H295 0.930 . S
C293 C290 1.348 . S
C293 C291 1.356 . S
H294 C288 0.930 . S
H295 C292 0.930 . S
C296 C298 1.348 . S
C296 C299 1.356 . S
C296 O326 1.325 . S
N297 C300 1.314 . S
N297 C301 1.279 . S
C298 C296 1.348 . S
C298 C300 1.353 . S
C298 H340 0.929 . S
C299 C296 1.356 . S
C299 C301 1.358 . S
C299 H341 0.930 . S
C300 N297 1.314 . S
C300 C298 1.353 . S
C300 H342 0.930 . S
C301 N297 1.279 . S
C301 C299 1.358 . S
C301 H343 0.930 . S
C302 C303 1.348 . S
C302 C304 1.356 . S
C302 O327 1.325 . S
C303 C302 1.348 . S
C303 C305 1.353 . S
C303 H344 0.929 . S
C304 C302 1.356 . S
C304 C306 1.358 . S
C304 H345 0.930 . S
C305 C303 1.353 . S
C305 N307 1.314 . S
C305 H346 0.930 . S
C306 C304 1.358 . S
C306 N307 1.279 . S
C306 H347 0.930 . S
N307 C305 1.314 . S
N307 C306 1.279 . S
C308 C310 1.353 . S
C308 N311 1.314 . S
C308 H314 0.930 . S
C309 N311 1.279 . S
C309 C312 1.358 . S
C309 H315 0.930 . S
C310 C308 1.353 . S
C310 C313 1.348 . S
C310 H348 0.929 . S
N311 Li266 1.990 . S
N311 C308 1.314 . S
N311 C309 1.279 . S
C312 C309 1.358 . S
C312 C313 1.356 . S
C312 H349 0.930 . S
C313 C310 1.348 . S
C313 C312 1.356 . S
H314 C308 0.930 . S
H315 C309 0.930 . S
C316 N317 1.314 . S
C316 C318 1.353 . S
C316 H322 0.930 . S
N317 Li267 1.990 . S
N317 C316 1.314 . S
N317 C320 1.279 . S
C318 C316 1.353 . S
C318 C321 1.348 . S
C318 H350 0.929 . S
C319 C320 1.358 . S
C319 C321 1.356 . S
C319 H351 0.930 . S
C320 N317 1.279 . S
C320 C319 1.358 . S
C320 H323 0.930 . S
C321 C318 1.348 . S
C321 C319 1.356 . S
H322 C316 0.930 . S
H323 C320 0.930 . S
O324 Li264 1.956 . S
O324 Li265 1.970 . S
O324 Li266 1.961 . S
O324 C268 1.325 . S
O325 Li264 1.970 . S
O325 Li265 1.956 . S
O325 Li267 1.961 . S
O325 C274 1.325 . S
O326 Li264 1.961 . S
O326 Li266 1.956 . S
O326 Li267 1.970 . S
O326 C296 1.325 . S
O327 Li265 1.961 . S
O327 Li266 1.970 . S
O327 Li267 1.956 . S
O327 C302 1.325 . S
H328 C270 0.929 . S
H329 C271 0.930 . S
H330 C272 0.930 . S
H331 C273 0.930 . S
H332 C275 0.930 . S
H333 C277 0.929 . S
H334 C278 0.930 . S
H335 C279 0.930 . S
H336 C282 0.930 . S
H337 C285 0.929 . S
H338 C290 0.929 . S
H339 C291 0.930 . S
H340 C298 0.929 . S
H341 C299 0.930 . S
H342 C300 0.930 . S
H343 C301 0.930 . S
H344 C303 0.929 . S
H345 C304 0.930 . S
H346 C305 0.930 . S
H347 C306 0.930 . S
H348 C310 0.929 . S
H349 C312 0.930 . S
H350 C318 0.929 . S
H351 C319 0.930 . S
Li352 N369 1.990 . S
Li352 O412 1.956 . S
Li352 O413 1.970 . S
Li352 O414 1.961 . S
Li353 N377 1.990 . S
Li353 O412 1.970 . S
Li353 O413 1.956 . S
Li353 O415 1.961 . S
Li354 N399 1.990 . S
Li354 O412 1.961 . S
Li354 O414 1.956 . S
Li354 O415 1.970 . S
Li355 N405 1.990 . S
Li355 O413 1.961 . S
Li355 O414 1.970 . S
Li355 O415 1.956 . S
C356 C358 1.348 . S
C356 C359 1.356 . S
C356 O412 1.325 . S
N357 C360 1.314 . S
N357 C361 1.279 . S
C358 C356 1.348 . S
C358 C360 1.353 . S
C358 H416 0.929 . S
C359 C356 1.356 . S
C359 C361 1.358 . S
C359 H417 0.930 . S
C360 N357 1.314 . S
C360 C358 1.353 . S
C360 H418 0.930 . S
C361 N357 1.279 . S
C361 C359 1.358 . S
C361 H419 0.930 . S
C362 C365 1.348 . S
C362 C366 1.356 . S
C362 O413 1.325 . S
C363 N364 1.279 . S
C363 C366 1.358 . S
C363 H420 0.930 . S
N364 C363 1.279 . S
N364 C367 1.314 . S
C365 C362 1.348 . S
C365 C367 1.353 . S
C365 H421 0.929 . S
C366 C362 1.356 . S
C366 C363 1.358 . S
C366 H422 0.930 . S
C367 N364 1.314 . S
C367 C365 1.353 . S
C367 H423 0.930 . S
C368 N369 1.314 . S
C368 C373 1.353 . S
C368 H374 0.930 . S
N369 Li352 1.990 . S
N369 C368 1.314 . S
N369 C371 1.279 . S
C370 C371 1.358 . S
C370 C372 1.356 . S
C370 H424 0.930 . S
C371 N369 1.279 . S
C371 C370 1.358 . S
C371 H375 0.930 . S
C372 C370 1.356 . S
C372 C373 1.348 . S
C373 C368 1.353 . S
C373 C372 1.348 . S
C373 H425 0.929 . S
H374 C368 0.930 . S
H375 C371 0.930 . S
C376 N377 1.314 . S
C376 C378 1.353 . S
C376 H382 0.930 . S
N377 Li353 1.990 . S
N377 C376 1.314 . S
N377 C380 1.279 . S
C378 C376 1.353 . S
C378 C381 1.348 . S
C378 H426 0.929 . S
C379 C380 1.358 . S
C379 C381 1.356 . S
C379 H427 0.930 . S
C380 N377 1.279 . S
C380 C379 1.358 . S
C380 H383 0.930 . S
C381 C378 1.348 . S
C381 C379 1.356 . S
H382 C376 0.930 . S
H383 C380 0.930 . S
C384 C386 1.348 . S
C384 C387 1.356 . S
C384 O414 1.325 . S
N385 C388 1.314 . S
N385 C389 1.279 . S
C386 C384 1.348 . S
C386 C388 1.353 . S
C386 H428 0.929 . S
C387 C384 1.356 . S
C387 C389 1.358 . S
C387 H429 0.930 . S
C388 N385 1.314 . S
C388 C386 1.353 . S
C388 H430 0.930 . S
C389 N385 1.279 . S
C389 C387 1.358 . S
C389 H431 0.930 . S
C390 C391 1.348 . S
C390 C392 1.356 . S
C390 O415 1.325 . S
C391 C390 1.348 . S
C391 C393 1.353 . S
C391 H432 0.929 . S
C392 C390 1.356 . S
C392 C394 1.358 . S
C392 H433 0.930 . S
C393 C391 1.353 . S
C393 N395 1.314 . S
C393 H434 0.930 . S
C394 C392 1.358 . S
C394 N395 1.279 . S
C394 H435 0.930 . S
N395 C393 1.314 . S
N395 C394 1.279 . S
C396 C398 1.353 . S
C396 N399 1.314 . S
C396 H402 0.930 . S
C397 N399 1.279 . S
C397 C400 1.358 . S
C397 H403 0.930 . S
C398 C396 1.353 . S
C398 C401 1.348 . S
C398 H436 0.929 . S
N399 Li354 1.990 . S
N399 C396 1.314 . S
N399 C397 1.279 . S
C400 C397 1.358 . S
C400 C401 1.356 . S
C400 H437 0.930 . S
C401 C398 1.348 . S
C401 C400 1.356 . S
H402 C396 0.930 . S
H403 C397 0.930 . S
C404 N405 1.314 . S
C404 C406 1.353 . S
C404 H410 0.930 . S
N405 Li355 1.990 . S
N405 C404 1.314 . S
N405 C408 1.279 . S
C406 C404 1.353 . S
C406 C409 1.348 . S
C406 H438 0.929 . S
C407 C408 1.358 . S
C407 C409 1.356 . S
C407 H439 0.930 . S
C408 N405 1.279 . S
C408 C407 1.358 . S
C408 H411 0.930 . S
C409 C406 1.348 . S
C409 C407 1.356 . S
H410 C404 0.930 . S
H411 C408 0.930 . S
O412 Li352 1.956 . S
O412 Li353 1.970 . S
O412 Li354 1.961 . S
O412 C356 1.325 . S
O413 Li352 1.970 . S
O413 Li353 1.956 . S
O413 Li355 1.961 . S
O413 C362 1.325 . S
O414 Li352 1.961 . S
O414 Li354 1.956 . S
O414 Li355 1.970 . S
O414 C384 1.325 . S
O415 Li353 1.961 . S
O415 Li354 1.970 . S
O415 Li355 1.956 . S
O415 C390 1.325 . S
H416 C358 0.929 . S
H417 C359 0.930 . S
H418 C360 0.930 . S
H419 C361 0.930 . S
H420 C363 0.930 . S
H421 C365 0.929 . S
H422 C366 0.930 . S
H423 C367 0.930 . S
H424 C370 0.930 . S
H425 C373 0.929 . S
H426 C378 0.929 . S
H427 C379 0.930 . S
H428 C386 0.929 . S
H429 C387 0.930 . S
H430 C388 0.930 . S
H431 C389 0.930 . S
H432 C391 0.929 . S
H433 C392 0.930 . S
H434 C393 0.930 . S
H435 C394 0.930 . S
H436 C398 0.929 . S
H437 C400 0.930 . S
H438 C406 0.929 . S
H439 C407 0.930 . S
Li440 N457 1.990 . S
Li440 O500 1.956 . S
Li440 O501 1.970 . S
Li440 O502 1.961 . S
Li441 N465 1.990 . S
Li441 O500 1.970 . S
Li441 O501 1.956 . S
Li441 O503 1.961 . S
Li442 N487 1.990 . S
Li442 O500 1.961 . S
Li442 O502 1.956 . S
Li442 O503 1.970 . S
Li443 N493 1.990 1_545 S
Li443 O501 1.961 . S
Li443 O502 1.970 . S
Li443 O503 1.956 . S
C444 C446 1.348 . S
C444 C447 1.356 . S
C444 O500 1.325 . S
N445 C448 1.314 . S
N445 C449 1.279 . S
C446 C444 1.348 . S
C446 C448 1.353 . S
C446 H504 0.929 . S
C447 C444 1.356 . S
C447 C449 1.358 . S
C447 H505 0.930 . S
C448 N445 1.314 . S
C448 C446 1.353 . S
C448 H506 0.930 . S
C449 N445 1.279 . S
C449 C447 1.358 . S
C449 H507 0.930 . S
C450 C453 1.348 . S
C450 C454 1.356 . S
C450 O501 1.325 . S
C451 N452 1.279 . S
C451 C454 1.358 . S
C451 H508 0.930 . S
N452 C451 1.279 . S
N452 C455 1.314 . S
C453 C450 1.348 . S
C453 C455 1.353 . S
C453 H509 0.929 . S
C454 C450 1.356 . S
C454 C451 1.358 . S
C454 H510 0.930 . S
C455 N452 1.314 . S
C455 C453 1.353 . S
C455 H511 0.930 . S
C456 N457 1.314 . S
C456 C461 1.353 . S
C456 H462 0.930 . S
N457 Li440 1.990 . S
N457 C456 1.314 . S
N457 C459 1.279 . S
C458 C459 1.358 . S
C458 C460 1.356 . S
C458 H512 0.930 . S
C459 N457 1.279 . S
C459 C458 1.358 . S
C459 H463 0.930 . S
C460 C458 1.356 . S
C460 C461 1.348 . S
C461 C456 1.353 . S
C461 C460 1.348 . S
C461 H513 0.929 . S
H462 C456 0.930 . S
H463 C459 0.930 . S
C464 N465 1.314 . S
C464 C466 1.353 . S
C464 H470 0.930 . S
N465 Li441 1.990 . S
N465 C464 1.314 . S
N465 C468 1.279 . S
C466 C464 1.353 . S
C466 C469 1.348 . S
C466 H514 0.929 . S
C467 C468 1.358 . S
C467 C469 1.356 . S
C467 H515 0.930 . S
C468 N465 1.279 . S
C468 C467 1.358 . S
C468 H471 0.930 . S
C469 C466 1.348 . S
C469 C467 1.356 . S
H470 C464 0.930 . S
H471 C468 0.930 . S
C472 C474 1.348 . S
C472 C475 1.356 . S
C472 O502 1.325 . S
N473 C476 1.314 . S
N473 C477 1.279 . S
C474 C472 1.348 . S
C474 C476 1.353 . S
C474 H516 0.933 . S
C475 C472 1.356 . S
C475 C477 1.358 . S
C475 H517 0.930 . S
C476 N473 1.314 . S
C476 C474 1.353 . S
C476 H518 0.930 1_545 S
C477 N473 1.279 . S
C477 C475 1.358 . S
C477 H519 0.930 . S
C478 C479 1.348 . S
C478 C480 1.356 . S
C478 O503 1.325 1_565 S
C479 C478 1.348 . S
C479 C481 1.353 . S
C479 H520 0.929 . S
C480 C478 1.356 . S
C480 C482 1.358 . S
C480 H521 0.930 . S
C481 C479 1.353 . S
C481 N483 1.314 . S
C481 H522 0.930 . S
C482 C480 1.358 . S
C482 N483 1.279 . S
C482 H523 0.930 . S
N483 C481 1.314 . S
N483 C482 1.279 . S
C484 C486 1.353 . S
C484 N487 1.314 . S
C484 H490 0.930 . S
C485 N487 1.279 . S
C485 C488 1.358 . S
C485 H491 0.930 . S
C486 C484 1.353 . S
C486 C489 1.348 . S
C486 H524 0.929 . S
N487 Li442 1.990 . S
N487 C484 1.314 . S
N487 C485 1.279 . S
C488 C485 1.358 . S
C488 C489 1.356 . S
C488 H525 0.930 . S
C489 C486 1.348 . S
C489 C488 1.356 . S
H490 C484 0.930 . S
H491 C485 0.930 . S
C492 N493 1.314 . S
C492 C494 1.353 . S
C492 H498 0.930 1_565 S
N493 Li443 1.990 1_565 S
N493 C492 1.314 . S
N493 C496 1.279 . S
C494 C492 1.353 . S
C494 C497 1.348 . S
C494 H526 0.929 . S
C495 C496 1.358 . S
C495 C497 1.356 . S
C495 H527 0.930 . S
C496 N493 1.279 . S
C496 C495 1.358 . S
C496 H499 0.930 . S
C497 C494 1.348 . S
C497 C495 1.356 . S
H498 C492 0.930 1_545 S
H499 C496 0.930 . S
O500 Li440 1.956 . S
O500 Li441 1.970 . S
O500 Li442 1.961 . S
O500 C444 1.325 . S
O501 Li440 1.970 . S
O501 Li441 1.956 . S
O501 Li443 1.961 . S
O501 C450 1.325 . S
O502 Li440 1.961 . S
O502 Li442 1.956 . S
O502 Li443 1.970 . S
O502 C472 1.325 . S
O503 Li441 1.961 . S
O503 Li442 1.970 . S
O503 Li443 1.956 . S
O503 C478 1.325 1_545 S
H504 C446 0.929 . S
H505 C447 0.930 . S
H506 C448 0.930 . S
H507 C449 0.930 . S
H508 C451 0.930 . S
H509 C453 0.929 . S
H510 C454 0.930 . S
H511 C455 0.930 . S
H512 C458 0.930 . S
H513 C461 0.929 . S
H514 C466 0.929 . S
H515 C467 0.930 . S
H516 C474 0.933 . S
H517 C475 0.930 . S
H518 C476 0.930 1_565 S
H519 C477 0.930 . S
H520 C479 0.929 . S
H521 C480 0.930 . S
H522 C481 0.930 . S
H523 C482 0.930 . S
H524 C486 0.929 . S
H525 C488 0.930 . S
H526 C494 0.929 . S
H527 C495 0.930 . S
Li528 N545 1.990 . S
Li528 O588 1.956 . S
Li528 O589 1.970 . S
Li528 O590 1.961 . S
Li529 N553 1.990 . S
Li529 O588 1.970 . S
Li529 O589 1.956 . S
Li529 O591 1.961 . S
Li530 N575 1.990 . S
Li530 O588 1.961 . S
Li530 O590 1.956 . S
Li530 O591 1.970 . S
Li531 N581 1.990 . S
Li531 O589 1.961 . S
Li531 O590 1.970 . S
Li531 O591 1.956 . S
C532 C534 1.348 . S
C532 C535 1.356 . S
C532 O588 1.325 . S
N533 C536 1.314 . S
N533 C537 1.279 . S
C534 C532 1.348 . S
C534 C536 1.353 . S
C534 H592 0.929 . S
C535 C532 1.356 . S
C535 C537 1.358 . S
C535 H593 0.930 . S
C536 N533 1.314 . S
C536 C534 1.353 . S
C536 H594 0.930 . S
C537 N533 1.279 . S
C537 C535 1.358 . S
C537 H595 0.930 . S
C538 C541 1.348 . S
C538 C542 1.356 . S
C538 O589 1.325 . S
C539 N540 1.279 . S
C539 C542 1.358 . S
C539 H596 0.930 . S
N540 C539 1.279 . S
N540 C543 1.314 . S
C541 C538 1.348 . S
C541 C543 1.353 . S
C541 H597 0.929 . S
C542 C538 1.356 . S
C542 C539 1.358 . S
C542 H598 0.930 . S
C543 N540 1.314 . S
C543 C541 1.353 . S
C543 H599 0.930 . S
C544 N545 1.314 . S
C544 C549 1.353 . S
C544 H550 0.930 . S
N545 Li528 1.990 . S
N545 C544 1.314 . S
N545 C547 1.279 . S
C546 C547 1.358 . S
C546 C548 1.356 . S
C546 H600 0.930 . S
C547 N545 1.279 . S
C547 C546 1.358 . S
C547 H551 0.930 . S
C548 C546 1.356 . S
C548 C549 1.348 . S
C549 C544 1.353 . S
C549 C548 1.348 . S
C549 H601 0.929 . S
H550 C544 0.930 . S
H551 C547 0.930 . S
C552 N553 1.314 . S
C552 C554 1.353 . S
C552 H558 0.930 . S
N553 Li529 1.990 . S
N553 C552 1.314 . S
N553 C556 1.279 . S
C554 C552 1.353 . S
C554 C557 1.348 . S
C554 H602 0.929 . S
C555 C556 1.358 . S
C555 C557 1.356 . S
C555 H603 0.930 . S
C556 N553 1.279 . S
C556 C555 1.358 . S
C556 H559 0.930 . S
C557 C554 1.348 . S
C557 C555 1.356 . S
H558 C552 0.930 . S
H559 C556 0.930 . S
C560 C562 1.348 . S
C560 C563 1.356 . S
C560 O590 1.325 . S
N561 C564 1.314 . S
N561 C565 1.279 . S
C562 C560 1.348 . S
C562 C564 1.353 . S
C562 H604 0.929 . S
C563 C560 1.356 . S
C563 C565 1.358 . S
C563 H605 0.930 . S
C564 N561 1.314 . S
C564 C562 1.353 . S
C564 H606 0.930 . S
C565 N561 1.279 . S
C565 C563 1.358 . S
C565 H607 0.930 . S
C566 C567 1.348 . S
C566 C568 1.356 . S
C566 O591 1.325 . S
C567 C566 1.348 . S
C567 C569 1.353 . S
C567 H608 0.929 . S
C568 C566 1.356 . S
C568 C570 1.358 . S
C568 H609 0.930 . S
C569 C567 1.353 . S
C569 N571 1.314 . S
C569 H610 0.930 . S
C570 C568 1.358 . S
C570 N571 1.279 . S
C570 H611 0.930 . S
N571 C569 1.314 . S
N571 C570 1.279 . S
C572 C574 1.353 . S
C572 N575 1.314 . S
C572 H578 0.930 . S
C573 N575 1.279 . S
C573 C576 1.358 . S
C573 H579 0.930 . S
C574 C572 1.353 . S
C574 C577 1.348 . S
C574 H612 0.929 . S
N575 Li530 1.990 . S
N575 C572 1.314 . S
N575 C573 1.279 . S
C576 C573 1.358 . S
C576 C577 1.356 . S
C576 H613 0.930 . S
C577 C574 1.348 . S
C577 C576 1.356 . S
H578 C572 0.930 . S
H579 C573 0.930 . S
C580 N581 1.314 . S
C580 C582 1.353 . S
C580 H586 0.930 . S
N581 Li531 1.990 . S
N581 C580 1.314 . S
N581 C584 1.279 . S
C582 C580 1.353 . S
C582 C585 1.348 . S
C582 H614 0.929 . S
C583 C584 1.358 . S
C583 C585 1.356 . S
C583 H615 0.930 . S
C584 N581 1.279 . S
C584 C583 1.358 . S
C584 H587 0.930 . S
C585 C582 1.348 . S
C585 C583 1.356 . S
H586 C580 0.930 . S
H587 C584 0.930 . S
O588 Li528 1.956 . S
O588 Li529 1.970 . S
O588 Li530 1.961 . S
O588 C532 1.325 . S
O589 Li528 1.970 . S
O589 Li529 1.956 . S
O589 Li531 1.961 . S
O589 C538 1.325 . S
O590 Li528 1.961 . S
O590 Li530 1.956 . S
O590 Li531 1.970 . S
O590 C560 1.325 . S
O591 Li529 1.961 . S
O591 Li530 1.970 . S
O591 Li531 1.956 . S
O591 C566 1.325 . S
H592 C534 0.929 . S
H593 C535 0.930 . S
H594 C536 0.930 . S
H595 C537 0.930 . S
H596 C539 0.930 . S
H597 C541 0.929 . S
H598 C542 0.930 . S
H599 C543 0.930 . S
H600 C546 0.930 . S
H601 C549 0.929 . S
H602 C554 0.929 . S
H603 C555 0.930 . S
H604 C562 0.929 . S
H605 C563 0.930 . S
H606 C564 0.930 . S
H607 C565 0.930 . S
H608 C567 0.929 . S
H609 C568 0.930 . S
H610 C569 0.930 . S
H611 C570 0.930 . S
H612 C574 0.929 . S
H613 C576 0.930 . S
H614 C582 0.929 . S
H615 C583 0.930 . S
Li616 N633 1.990 1_565 S
Li616 O676 1.956 . S
Li616 O677 1.970 . S
Li616 O678 1.961 . S
Li617 N641 1.990 . S
Li617 O676 1.970 . S
Li617 O677 1.956 . S
Li617 O679 1.961 . S
Li618 N663 1.990 . S
Li618 O676 1.961 . S
Li618 O678 1.956 . S
Li618 O679 1.970 . S
Li619 N669 1.990 . S
Li619 O677 1.961 . S
Li619 O678 1.970 . S
Li619 O679 1.956 . S
C620 C622 1.348 . S
C620 C623 1.356 . S
C620 O676 1.325 1_545 S
N621 C624 1.314 . S
N621 C625 1.279 . S
C622 C620 1.348 . S
C622 C624 1.353 . S
C622 H680 0.929 . S
C623 C620 1.356 . S
C623 C625 1.358 . S
C623 H681 0.930 . S
C624 N621 1.314 . S
C624 C622 1.353 . S
C624 H682 0.930 . S
C625 N621 1.279 . S
C625 C623 1.358 . S
C625 H683 0.930 . S
C626 C629 1.348 . S
C626 C630 1.356 . S
C626 O677 1.325 . S
C627 N628 1.279 . S
C627 C630 1.358 . S
C627 H684 0.930 . S
N628 C627 1.279 . S
N628 C631 1.314 . S
C629 C626 1.348 . S
C629 C631 1.353 . S
C629 H685 0.933 . S
C630 C626 1.356 . S
C630 C627 1.358 . S
C630 H686 0.930 . S
C631 N628 1.314 . S
C631 C629 1.353 . S
C631 H687 0.930 1_565 S
C632 N633 1.314 . S
C632 C637 1.353 . S
C632 H638 0.930 1_545 S
N633 Li616 1.990 1_545 S
N633 C632 1.314 . S
N633 C635 1.279 . S
C634 C635 1.358 . S
C634 C636 1.356 . S
C634 H688 0.930 . S
C635 N633 1.279 . S
C635 C634 1.358 . S
C635 H639 0.930 . S
C636 C634 1.356 . S
C636 C637 1.348 . S
C637 C632 1.353 . S
C637 C636 1.348 . S
C637 H689 0.929 . S
H638 C632 0.930 1_565 S
H639 C635 0.930 . S
C640 N641 1.314 . S
C640 C642 1.353 . S
C640 H646 0.930 . S
N641 Li617 1.990 . S
N641 C640 1.314 . S
N641 C644 1.279 . S
C642 C640 1.353 . S
C642 C645 1.348 . S
C642 H690 0.929 . S
C643 C644 1.358 . S
C643 C645 1.356 . S
C643 H691 0.930 . S
C644 N641 1.279 . S
C644 C643 1.358 . S
C644 H647 0.930 . S
C645 C642 1.348 . S
C645 C643 1.356 . S
H646 C640 0.930 . S
H647 C644 0.930 . S
C648 C650 1.348 . S
C648 C651 1.356 . S
C648 O678 1.325 . S
N649 C652 1.314 . S
N649 C653 1.279 . S
C650 C648 1.348 . S
C650 C652 1.353 . S
C650 H692 0.929 . S
C651 C648 1.356 . S
C651 C653 1.358 . S
C651 H693 0.930 . S
C652 N649 1.314 . S
C652 C650 1.353 . S
C652 H694 0.930 . S
C653 N649 1.279 . S
C653 C651 1.358 . S
C653 H695 0.930 . S
C654 C655 1.348 . S
C654 C656 1.356 . S
C654 O679 1.325 . S
C655 C654 1.348 . S
C655 C657 1.353 . S
C655 H696 0.929 . S
C656 C654 1.356 . S
C656 C658 1.358 . S
C656 H697 0.930 . S
C657 C655 1.353 . S
C657 N659 1.314 . S
C657 H698 0.930 . S
C658 C656 1.358 . S
C658 N659 1.279 . S
C658 H699 0.930 . S
N659 C657 1.314 . S
N659 C658 1.279 . S
C660 C662 1.353 . S
C660 N663 1.314 . S
C660 H666 0.930 . S
C661 N663 1.279 . S
C661 C664 1.358 . S
C661 H667 0.930 . S
C662 C660 1.353 . S
C662 C665 1.348 . S
C662 H700 0.929 . S
N663 Li618 1.990 . S
N663 C660 1.314 . S
N663 C661 1.279 . S
C664 C661 1.358 . S
C664 C665 1.356 . S
C664 H701 0.930 . S
C665 C662 1.348 . S
C665 C664 1.356 . S
H666 C660 0.930 . S
H667 C661 0.930 . S
C668 N669 1.314 . S
C668 C670 1.353 . S
C668 H674 0.930 . S
N669 Li619 1.990 . S
N669 C668 1.314 . S
N669 C672 1.279 . S
C670 C668 1.353 . S
C670 C673 1.348 . S
C670 H702 0.929 . S
C671 C672 1.358 . S
C671 C673 1.356 . S
C671 H703 0.930 . S
C672 N669 1.279 . S
C672 C671 1.358 . S
C672 H675 0.930 . S
C673 C670 1.348 . S
C673 C671 1.356 . S
H674 C668 0.930 . S
H675 C672 0.930 . S
O676 Li616 1.956 . S
O676 Li617 1.970 . S
O676 Li618 1.961 . S
O676 C620 1.325 1_565 S
O677 Li616 1.970 . S
O677 Li617 1.956 . S
O677 Li619 1.961 . S
O677 C626 1.325 . S
O678 Li616 1.961 . S
O678 Li618 1.956 . S
O678 Li619 1.970 . S
O678 C648 1.325 . S
O679 Li617 1.961 . S
O679 Li618 1.970 . S
O679 Li619 1.956 . S
O679 C654 1.325 . S
H680 C622 0.929 . S
H681 C623 0.930 . S
H682 C624 0.930 . S
H683 C625 0.930 . S
H684 C627 0.930 . S
H685 C629 0.933 . S
H686 C630 0.930 . S
H687 C631 0.930 1_545 S
H688 C634 0.930 . S
H689 C637 0.929 . S
H690 C642 0.929 . S
H691 C643 0.930 . S
H692 C650 0.929 . S
H693 C651 0.930 . S
H694 C652 0.930 . S
H695 C653 0.930 . S
H696 C655 0.929 . S
H697 C656 0.930 . S
H698 C657 0.930 . S
H699 C658 0.930 . S
H700 C662 0.929 . S
H701 C664 0.930 . S
H702 C670 0.929 . S
H703 C671 0.930 . S
H704 C716 0.930 . S
H705 C718 0.930 . S
H706 C719 0.930 1_556 S
H707 C723 0.959 . S
H708 C723 0.959 . S
H709 C723 0.961 . S
H710 C724 0.960 . S
H711 C724 0.961 . S
H712 C724 0.959 . S
H713 C727 0.929 . S
H714 C728 0.931 . S
H715 C730 0.930 . S
C716 H704 0.930 . S
C716 C717 1.399 . S
C716 C721 1.399 . S
C717 C716 1.399 . S
C717 C718 1.376 . S
C718 H705 0.930 . S
C718 C717 1.376 . S
C718 C719 1.388 . S
C719 H706 0.930 1_554 S
C719 C718 1.388 . S
C719 C720 1.390 . S
C720 C719 1.390 . S
C720 C721 1.394 . S
C720 C726 1.465 1_554 S
C721 C716 1.399 . S
C721 C720 1.394 . S
C721 C722 1.516 . S
C722 C721 1.516 . S
C722 C723 1.502 . S
C722 C724 1.561 . S
C722 C725 1.526 1_554 S
C723 H707 0.959 . S
C723 H708 0.959 . S
C723 H709 0.961 . S
C723 C722 1.502 . S
C724 H710 0.960 . S
C724 H711 0.961 . S
C724 H712 0.959 . S
C724 C722 1.561 . S
C725 C722 1.526 1_556 S
C725 C726 1.396 . S
C725 C730 1.390 . S
C726 C720 1.465 1_556 S
C726 C725 1.396 . S
C726 C727 1.399 . S
C727 H713 0.929 . S
C727 C726 1.399 . S
C727 C728 1.385 . S
C728 H714 0.931 . S
C728 C727 1.385 . S
C728 C729 1.389 . S
C729 C728 1.389 . S
C729 C730 1.387 . S
C730 H715 0.930 . S
C730 C725 1.390 . S
C730 C729 1.387 . S
H731 C743 0.930 . S
H732 C745 0.930 . S
H733 C746 0.930 . S
H734 C750 0.959 . S
H735 C750 0.959 . S
H736 C750 0.961 . S
H737 C751 0.960 . S
H738 C751 0.961 . S
H739 C751 0.959 . S
H740 C754 0.929 . S
H741 C755 0.931 . S
H742 C757 0.930 . S
C743 H731 0.930 . S
C743 C744 1.399 . S
C743 C748 1.399 . S
C744 C743 1.399 . S
C744 C745 1.376 . S
C745 H732 0.930 . S
C745 C744 1.376 . S
C745 C746 1.388 . S
C746 H733 0.930 . S
C746 C745 1.388 . S
C746 C747 1.390 . S
C747 C746 1.390 . S
C747 C748 1.394 . S
C747 C753 1.465 . S
C748 C743 1.399 . S
C748 C747 1.394 . S
C748 C749 1.516 . S
C749 C748 1.516 . S
C749 C750 1.502 . S
C749 C751 1.561 . S
C749 C752 1.526 . S
C750 H734 0.959 . S
C750 H735 0.959 . S
C750 H736 0.961 . S
C750 C749 1.502 . S
C751 H737 0.960 . S
C751 H738 0.961 . S
C751 H739 0.959 . S
C751 C749 1.561 . S
C752 C749 1.526 . S
C752 C753 1.396 . S
C752 C757 1.390 . S
C753 C747 1.465 . S
C753 C752 1.396 . S
C753 C754 1.399 . S
C754 H740 0.929 . S
C754 C753 1.399 . S
C754 C755 1.385 . S
C755 H741 0.931 . S
C755 C754 1.385 . S
C755 C756 1.389 . S
C756 C755 1.389 . S
C756 C757 1.387 . S
C757 H742 0.930 . S
C757 C752 1.390 . S
C757 C756 1.387 . S
H758 C770 0.930 . S
H759 C772 0.930 . S
H760 C773 0.930 . S
H761 C777 0.959 . S
H762 C777 0.959 . S
H763 C777 0.961 1_554 S
H764 C778 0.960 . S
H765 C778 0.961 . S
H766 C778 0.959 . S
H767 C781 0.929 . S
H768 C782 0.931 . S
H769 C784 0.930 . S
C770 H758 0.930 . S
C770 C771 1.399 . S
C770 C775 1.399 . S
C771 C770 1.399 . S
C771 C772 1.376 . S
C772 H759 0.930 . S
C772 C771 1.376 . S
C772 C773 1.388 . S
C773 H760 0.930 . S
C773 C772 1.388 . S
C773 C774 1.390 . S
C774 C773 1.390 . S
C774 C775 1.394 . S
C774 C780 1.465 1_554 S
C775 C770 1.399 . S
C775 C774 1.394 . S
C775 C776 1.516 . S
C776 C775 1.516 . S
C776 C777 1.502 1_554 S
C776 C778 1.561 . S
C776 C779 1.526 1_554 S
C777 H761 0.959 . S
C777 H762 0.959 . S
C777 H763 0.961 1_556 S
C777 C776 1.502 1_556 S
C778 H764 0.960 . S
C778 H765 0.961 . S
C778 H766 0.959 . S
C778 C776 1.561 . S
C779 C776 1.526 1_556 S
C779 C780 1.396 . S
C779 C784 1.390 . S
C780 C774 1.465 1_556 S
C780 C779 1.396 . S
C780 C781 1.399 . S
C781 H767 0.929 . S
C781 C780 1.399 . S
C781 C782 1.385 . S
C782 H768 0.931 . S
C782 C781 1.385 . S
C782 C783 1.389 . S
C783 C782 1.389 . S
C783 C784 1.387 . S
C784 H769 0.930 . S
C784 C779 1.390 . S
C784 C783 1.387 . S
H785 C797 0.930 . S
H786 C799 0.930 . S
H787 C800 0.930 . S
H788 C804 0.959 . S
H789 C804 0.959 . S
H790 C804 0.961 . S
H791 C805 0.960 . S
H792 C805 0.961 . S
H793 C805 0.959 . S
H794 C808 0.929 . S
H795 C809 0.931 . S
H796 C811 0.930 . S
C797 H785 0.930 . S
C797 C798 1.399 . S
C797 C802 1.399 . S
C798 C797 1.399 . S
C798 C799 1.376 . S
C799 H786 0.930 . S
C799 C798 1.376 . S
C799 C800 1.388 . S
C800 H787 0.930 . S
C800 C799 1.388 . S
C800 C801 1.390 . S
C801 C800 1.390 . S
C801 C802 1.394 . S
C801 C807 1.465 . S
C802 C797 1.399 . S
C802 C801 1.394 . S
C802 C803 1.516 . S
C803 C802 1.516 . S
C803 C804 1.502 . S
C803 C805 1.561 . S
C803 C806 1.526 . S
C804 H788 0.959 . S
C804 H789 0.959 . S
C804 H790 0.961 . S
C804 C803 1.502 . S
C805 H791 0.960 . S
C805 H792 0.961 . S
C805 H793 0.959 . S
C805 C803 1.561 . S
C806 C803 1.526 . S
C806 C807 1.396 . S
C806 C811 1.390 . S
C807 C801 1.465 . S
C807 C806 1.396 . S
C807 C808 1.399 . S
C808 H794 0.929 . S
C808 C807 1.399 . S
C808 C809 1.385 . S
C809 H795 0.931 . S
C809 C808 1.385 . S
C809 C810 1.389 . S
C810 C809 1.389 . S
C810 C811 1.387 . S
C811 H796 0.930 . S
C811 C806 1.390 . S
C811 C810 1.387 . S
H812 C824 0.930 . S
H813 C826 0.930 . S
H814 C827 0.930 . S
H815 C831 0.959 . S
H816 C831 0.959 . S
H817 C831 0.961 . S
H818 C832 0.960 . S
H819 C832 0.961 . S
H820 C832 0.959 . S
H821 C835 0.929 . S
H822 C836 0.931 . S
H823 C838 0.930 . S
C824 H812 0.930 . S
C824 C825 1.399 . S
C824 C829 1.399 . S
C825 C824 1.399 . S
C825 C826 1.376 . S
C826 H813 0.930 . S
C826 C825 1.376 . S
C826 C827 1.388 . S
C827 H814 0.930 . S
C827 C826 1.388 . S
C827 C828 1.390 . S
C828 C827 1.390 . S
C828 C829 1.394 . S
C828 C834 1.465 . S
C829 C824 1.399 . S
C829 C828 1.394 . S
C829 C830 1.516 . S
C830 C829 1.516 . S
C830 C831 1.502 . S
C830 C832 1.561 . S
C830 C833 1.526 . S
C831 H815 0.959 . S
C831 H816 0.959 . S
C831 H817 0.961 . S
C831 C830 1.502 . S
C832 H818 0.960 . S
C832 H819 0.961 . S
C832 H820 0.959 . S
C832 C830 1.561 . S
C833 C830 1.526 . S
C833 C834 1.396 . S
C833 C838 1.390 . S
C834 C828 1.465 . S
C834 C833 1.396 . S
C834 C835 1.399 . S
C835 H821 0.929 . S
C835 C834 1.399 . S
C835 C836 1.385 . S
C836 H822 0.931 . S
C836 C835 1.385 . S
C836 C837 1.389 . S
C837 C836 1.389 . S
C837 C838 1.387 . S
C838 H823 0.930 . S
C838 C833 1.390 . S
C838 C837 1.387 . S
H839 C851 0.930 . S
H840 C853 0.930 . S
H841 C854 0.930 . S
H842 C858 0.959 . S
H843 C858 0.959 . S
H844 C858 0.961 . S
H845 C859 0.960 . S
H846 C859 0.961 . S
H847 C859 0.959 . S
H848 C862 0.929 . S
H849 C863 0.931 . S
H850 C865 0.930 . S
C851 H839 0.930 . S
C851 C852 1.399 . S
C851 C856 1.399 . S
C852 C851 1.399 . S
C852 C853 1.376 . S
C853 H840 0.930 . S
C853 C852 1.376 . S
C853 C854 1.388 . S
C854 H841 0.930 . S
C854 C853 1.388 . S
C854 C855 1.390 . S
C855 C854 1.390 . S
C855 C856 1.394 . S
C855 C861 1.465 . S
C856 C851 1.399 . S
C856 C855 1.394 . S
C856 C857 1.516 . S
C857 C856 1.516 . S
C857 C858 1.502 . S
C857 C859 1.561 . S
C857 C860 1.526 . S
C858 H842 0.959 . S
C858 H843 0.959 . S
C858 H844 0.961 . S
C858 C857 1.502 . S
C859 H845 0.960 . S
C859 H846 0.961 . S
C859 H847 0.959 . S
C859 C857 1.561 . S
C860 C857 1.526 . S
C860 C861 1.396 . S
C860 C865 1.390 . S
C861 C855 1.465 . S
C861 C860 1.396 . S
C861 C862 1.399 . S
C862 H848 0.929 . S
C862 C861 1.399 . S
C862 C863 1.385 . S
C863 H849 0.931 . S
C863 C862 1.385 . S
C863 C864 1.389 . S
C864 C863 1.389 . S
C864 C865 1.387 . S
C865 H850 0.930 . S
C865 C860 1.390 . S
C865 C864 1.387 . S
H866 C878 0.930 . S
H867 C880 0.930 . S
H868 C881 0.930 . S
H869 C885 0.959 . S
H870 C885 0.959 . S
H871 C885 0.961 . S
H872 C886 0.960 . S
H873 C886 0.961 . S
H874 C886 0.959 . S
H875 C889 0.929 . S
H876 C890 0.931 . S
H877 C892 0.930 . S
C878 H866 0.930 . S
C878 C879 1.399 . S
C878 C883 1.399 . S
C879 C878 1.399 . S
C879 C880 1.376 . S
C880 H867 0.930 . S
C880 C879 1.376 . S
C880 C881 1.388 . S
C881 H868 0.930 . S
C881 C880 1.388 . S
C881 C882 1.390 . S
C882 C881 1.390 . S
C882 C883 1.394 . S
C882 C888 1.465 . S
C883 C878 1.399 . S
C883 C882 1.394 . S
C883 C884 1.516 . S
C884 C883 1.516 . S
C884 C885 1.502 . S
C884 C886 1.561 . S
C884 C887 1.526 . S
C885 H869 0.959 . S
C885 H870 0.959 . S
C885 H871 0.961 . S
C885 C884 1.502 . S
C886 H872 0.960 . S
C886 H873 0.961 . S
C886 H874 0.959 . S
C886 C884 1.561 . S
C887 C884 1.526 . S
C887 C888 1.396 . S
C887 C892 1.390 . S
C888 C882 1.465 . S
C888 C887 1.396 . S
C888 C889 1.399 . S
C889 H875 0.929 . S
C889 C888 1.399 . S
C889 C890 1.385 . S
C890 H876 0.931 . S
C890 C889 1.385 . S
C890 C891 1.389 . S
C891 C890 1.389 . S
C891 C892 1.387 . S
C892 H877 0.930 . S
C892 C887 1.390 . S
C892 C891 1.387 . S
H893 C905 0.930 . S
H894 C907 0.930 . S
H895 C908 0.930 . S
H896 C912 0.959 . S
H897 C912 0.959 . S
H898 C912 0.961 . S
H899 C913 0.960 . S
H900 C913 0.961 . S
H901 C913 0.959 . S
H902 C916 0.929 . S
H903 C917 0.931 . S
H904 C919 0.930 . S
C905 H893 0.930 . S
C905 C906 1.399 . S
C905 C910 1.399 . S
C906 C905 1.399 . S
C906 C907 1.376 . S
C907 H894 0.930 . S
C907 C906 1.376 . S
C907 C908 1.388 . S
C908 H895 0.930 . S
C908 C907 1.388 . S
C908 C909 1.390 . S
C909 C908 1.390 . S
C909 C910 1.394 . S
C909 C915 1.465 . S
C910 C905 1.399 . S
C910 C909 1.394 . S
C910 C911 1.516 . S
C911 C910 1.516 . S
C911 C912 1.502 . S
C911 C913 1.561 . S
C911 C914 1.526 . S
C912 H896 0.959 . S
C912 H897 0.959 . S
C912 H898 0.961 . S
C912 C911 1.502 . S
C913 H899 0.960 . S
C913 H900 0.961 . S
C913 H901 0.959 . S
C913 C911 1.561 . S
C914 C911 1.526 . S
C914 C915 1.396 . S
C914 C919 1.390 . S
C915 C909 1.465 . S
C915 C914 1.396 . S
C915 C916 1.399 . S
C916 H902 0.929 . S
C916 C915 1.399 . S
C916 C917 1.385 . S
C917 H903 0.931 . S
C917 C916 1.385 . S
C917 C918 1.389 . S
C918 C917 1.389 . S
C918 C919 1.387 . S
C919 H904 0.930 . S
C919 C914 1.390 . S
C919 C918 1.387 . S
H920 C932 0.930 . S
H921 C934 0.930 . S
H922 C935 0.930 . S
H923 C939 0.959 . S
H924 C939 0.959 . S
H925 C939 0.961 . S
H926 C940 0.960 . S
H927 C940 0.961 . S
H928 C940 0.959 . S
H929 C943 0.929 . S
H930 C944 0.931 . S
H931 C946 0.930 . S
C932 H920 0.930 . S
C932 C933 1.399 . S
C932 C937 1.399 . S
C933 C932 1.399 . S
C933 C934 1.376 . S
C934 H921 0.930 . S
C934 C933 1.376 . S
C934 C935 1.388 . S
C935 H922 0.930 . S
C935 C934 1.388 . S
C935 C936 1.390 . S
C936 C935 1.390 . S
C936 C937 1.394 . S
C936 C942 1.465 . S
C937 C932 1.399 . S
C937 C936 1.394 . S
C937 C938 1.516 . S
C938 C937 1.516 . S
C938 C939 1.502 . S
C938 C940 1.561 . S
C938 C941 1.526 . S
C939 H923 0.959 . S
C939 H924 0.959 . S
C939 H925 0.961 . S
C939 C938 1.502 . S
C940 H926 0.960 . S
C940 H927 0.961 . S
C940 H928 0.959 . S
C940 C938 1.561 . S
C941 C938 1.526 . S
C941 C942 1.396 . S
C941 C946 1.390 . S
C942 C936 1.465 . S
C942 C941 1.396 . S
C942 C943 1.399 . S
C943 H929 0.929 . S
C943 C942 1.399 . S
C943 C944 1.385 . S
C944 H930 0.931 . S
C944 C943 1.385 . S
C944 C945 1.389 . S
C945 C944 1.389 . S
C945 C946 1.387 . S
C946 H931 0.930 . S
C946 C941 1.390 . S
C946 C945 1.387 . S
H947 C959 0.930 . S
H948 C961 0.930 . S
H949 C962 0.930 . S
H950 C966 0.959 . S
H951 C966 0.959 . S
H952 C966 0.961 . S
H953 C967 0.960 . S
H954 C967 0.961 . S
H955 C967 0.959 . S
H956 C970 0.929 . S
H957 C971 0.931 . S
H958 C973 0.930 . S
C959 H947 0.930 . S
C959 C960 1.399 . S
C959 C964 1.399 . S
C960 C959 1.399 . S
C960 C961 1.376 . S
C961 H948 0.930 . S
C961 C960 1.376 . S
C961 C962 1.388 . S
C962 H949 0.930 . S
C962 C961 1.388 . S
C962 C963 1.390 . S
C963 C962 1.390 . S
C963 C964 1.394 . S
C963 C969 1.465 . S
C964 C959 1.399 . S
C964 C963 1.394 . S
C964 C965 1.516 . S
C965 C964 1.516 . S
C965 C966 1.502 . S
C965 C967 1.561 . S
C965 C968 1.526 . S
C966 H950 0.959 . S
C966 H951 0.959 . S
C966 H952 0.961 . S
C966 C965 1.502 . S
C967 H953 0.960 . S
C967 H954 0.961 . S
C967 H955 0.959 . S
C967 C965 1.561 . S
C968 C965 1.526 . S
C968 C969 1.396 . S
C968 C973 1.390 . S
C969 C963 1.465 . S
C969 C968 1.396 . S
C969 C970 1.399 . S
C970 H956 0.929 . S
C970 C969 1.399 . S
C970 C971 1.385 . S
C971 H957 0.931 . S
C971 C970 1.385 . S
C971 C972 1.389 . S
C972 C971 1.389 . S
C972 C973 1.387 . S
C973 H958 0.930 . S
C973 C968 1.390 . S
C973 C972 1.387 . S
H974 C986 0.930 . S
H975 C988 0.930 . S
H976 C989 0.930 . S
H977 C993 0.959 . S
H978 C993 0.959 . S
H979 C993 0.961 . S
H980 C994 0.960 . S
H981 C994 0.961 . S
H982 C994 0.959 . S
H983 C997 0.929 . S
H984 C998 0.931 . S
H985 C1000 0.930 . S
C986 H974 0.930 . S
C986 C987 1.399 . S
C986 C991 1.399 . S
C987 C986 1.399 . S
C987 C988 1.376 . S
C988 H975 0.930 . S
C988 C987 1.376 . S
C988 C989 1.388 . S
C989 H976 0.930 . S
C989 C988 1.388 . S
C989 C990 1.390 . S
C990 C989 1.390 . S
C990 C991 1.394 . S
C990 C996 1.465 . S
C991 C986 1.399 . S
C991 C990 1.394 . S
C991 C992 1.516 . S
C992 C991 1.516 . S
C992 C993 1.502 . S
C992 C994 1.561 . S
C992 C995 1.526 . S
C993 H977 0.959 . S
C993 H978 0.959 . S
C993 H979 0.961 . S
C993 C992 1.502 . S
C994 H980 0.960 . S
C994 H981 0.961 . S
C994 H982 0.959 . S
C994 C992 1.561 . S
C995 C992 1.526 . S
C995 C996 1.396 . S
C995 C1000 1.390 . S
C996 C990 1.465 . S
C996 C995 1.396 . S
C996 C997 1.399 . S
C997 H983 0.929 . S
C997 C996 1.399 . S
C997 C998 1.385 . S
C998 H984 0.931 . S
C998 C997 1.385 . S
C998 C999 1.389 . S
C999 C998 1.389 . S
C999 C1000 1.387 . S
C1000 H985 0.930 . S
C1000 C995 1.390 . S
C1000 C999 1.387 . S
H1001 C1013 0.930 . S
H1002 C1015 0.930 . S
H1003 C1016 0.930 . S
H1004 C1020 0.959 . S
H1005 C1020 0.959 . S
H1006 C1020 0.961 . S
H1007 C1021 0.960 . S
H1008 C1021 0.961 . S
H1009 C1021 0.959 . S
H1010 C1024 0.929 . S
H1011 C1025 0.931 . S
H1012 C1027 0.930 . S
C1013 H1001 0.930 . S
C1013 C1014 1.399 . S
C1013 C1018 1.399 . S
C1014 C1013 1.399 . S
C1014 C1015 1.376 . S
C1015 H1002 0.930 . S
C1015 C1014 1.376 . S
C1015 C1016 1.388 . S
C1016 H1003 0.930 . S
C1016 C1015 1.388 . S
C1016 C1017 1.390 . S
C1017 C1016 1.390 . S
C1017 C1018 1.394 . S
C1017 C1023 1.465 . S
C1018 C1013 1.399 . S
C1018 C1017 1.394 . S
C1018 C1019 1.516 . S
C1019 C1018 1.516 . S
C1019 C1020 1.502 . S
C1019 C1021 1.561 . S
C1019 C1022 1.526 . S
C1020 H1004 0.959 . S
C1020 H1005 0.959 . S
C1020 H1006 0.961 . S
C1020 C1019 1.502 . S
C1021 H1007 0.960 . S
C1021 H1008 0.961 . S
C1021 H1009 0.959 . S
C1021 C1019 1.561 . S
C1022 C1019 1.526 . S
C1022 C1023 1.396 . S
C1022 C1027 1.390 . S
C1023 C1017 1.465 . S
C1023 C1022 1.396 . S
C1023 C1024 1.399 . S
C1024 H1010 0.929 . S
C1024 C1023 1.399 . S
C1024 C1025 1.385 . S
C1025 H1011 0.931 . S
C1025 C1024 1.385 . S
C1025 C1026 1.389 . S
C1026 C1025 1.389 . S
C1026 C1027 1.387 . S
C1027 H1012 0.930 . S
C1027 C1022 1.390 . S
C1027 C1026 1.387 . S
H1028 C1040 0.930 . S
H1029 C1042 0.930 . S
H1030 C1043 0.930 . S
H1031 C1047 0.959 . S
H1032 C1047 0.959 . S
H1033 C1047 0.961 . S
H1034 C1048 0.960 . S
H1035 C1048 0.961 1_455 S
H1036 C1048 0.959 . S
H1037 C1051 0.929 1_655 S
H1038 C1052 0.931 . S
H1039 C1054 0.930 . S
C1040 H1028 0.930 . S
C1040 C1041 1.399 . S
C1040 C1045 1.399 . S
C1041 C1040 1.399 . S
C1041 C1042 1.376 . S
C1042 H1029 0.930 . S
C1042 C1041 1.376 . S
C1042 C1043 1.388 . S
C1043 H1030 0.930 . S
C1043 C1042 1.388 . S
C1043 C1044 1.390 . S
C1044 C1043 1.390 . S
C1044 C1045 1.394 . S
C1044 C1050 1.465 1_655 S
C1045 C1040 1.399 . S
C1045 C1044 1.394 . S
C1045 C1046 1.516 1_655 S
C1046 C1045 1.516 1_455 S
C1046 C1047 1.502 . S
C1046 C1048 1.561 1_455 S
C1046 C1049 1.526 . S
C1047 H1031 0.959 . S
C1047 H1032 0.959 . S
C1047 H1033 0.961 . S
C1047 C1046 1.502 . S
C1048 H1034 0.960 . S
C1048 H1035 0.961 1_655 S
C1048 H1036 0.959 . S
C1048 C1046 1.561 1_655 S
C1049 C1046 1.526 . S
C1049 C1050 1.396 . S
C1049 C1054 1.390 . S
C1050 C1044 1.465 1_455 S
C1050 C1049 1.396 . S
C1050 C1051 1.399 . S
C1051 H1037 0.929 1_455 S
C1051 C1050 1.399 . S
C1051 C1052 1.385 . S
C1052 H1038 0.931 . S
C1052 C1051 1.385 . S
C1052 C1053 1.389 . S
C1053 C1052 1.389 . S
C1053 C1054 1.387 . S
C1054 H1039 0.930 . S
C1054 C1049 1.390 . S
C1054 C1053 1.387 . S
H1055 C1067 0.930 . S
H1056 C1069 0.930 . S
H1057 C1070 0.951 . S
H1058 C1074 0.959 . S
H1059 C1074 0.959 . S
H1060 C1074 0.961 . S
H1061 C1075 0.960 . S
H1062 C1075 0.961 . S
H1063 C1075 0.959 . S
H1064 C1078 0.929 . S
H1065 C1079 0.931 . S
H1066 C1081 0.930 . S
C1067 H1055 0.930 . S
C1067 C1068 1.399 . S
C1067 C1072 1.399 . S
C1068 C1067 1.399 . S
C1068 C1069 1.376 . S
C1069 H1056 0.930 . S
C1069 C1068 1.376 . S
C1069 C1070 1.388 . S
C1070 H1057 0.951 . S
C1070 C1069 1.388 . S
C1070 C1071 1.390 . S
C1071 C1070 1.390 . S
C1071 C1072 1.394 . S
C1071 C1077 1.465 1_655 S
C1072 C1067 1.399 . S
C1072 C1071 1.394 . S
C1072 C1073 1.516 . S
C1073 C1072 1.516 . S
C1073 C1074 1.502 . S
C1073 C1075 1.561 . S
C1073 C1076 1.526 1_655 S
C1074 H1058 0.959 . S
C1074 H1059 0.959 . S
C1074 H1060 0.961 . S
C1074 C1073 1.502 . S
C1075 H1061 0.960 . S
C1075 H1062 0.961 . S
C1075 H1063 0.959 . S
C1075 C1073 1.561 . S
C1076 C1073 1.526 1_455 S
C1076 C1077 1.396 . S
C1076 C1081 1.390 . S
C1077 C1071 1.465 1_455 S
C1077 C1076 1.396 . S
C1077 C1078 1.399 . S
C1078 H1064 0.929 . S
C1078 C1077 1.399 . S
C1078 C1079 1.385 . S
C1079 H1065 0.931 . S
C1079 C1078 1.385 . S
C1079 C1080 1.389 . S
C1080 C1079 1.389 . S
C1080 C1081 1.387 . S
C1081 H1066 0.930 . S
C1081 C1076 1.390 . S
C1081 C1080 1.387 . S
H1082 C1094 0.930 . S
H1083 C1096 0.930 . S
H1084 C1097 0.930 . S
H1085 C1101 0.959 . S
H1086 C1101 0.959 . S
H1087 C1101 0.961 . S
H1088 C1102 0.960 . S
H1089 C1102 0.961 . S
H1090 C1102 0.959 . S
H1091 C1105 0.929 1_545 S
H1092 C1106 0.931 . S
H1093 C1108 0.930 . S
C1094 H1082 0.930 . S
C1094 C1095 1.399 . S
C1094 C1099 1.399 . S
C1095 C1094 1.399 . S
C1095 C1096 1.376 . S
C1096 H1083 0.930 . S
C1096 C1095 1.376 . S
C1096 C1097 1.388 . S
C1097 H1084 0.930 . S
C1097 C1096 1.388 . S
C1097 C1098 1.390 . S
C1098 C1097 1.390 . S
C1098 C1099 1.394 . S
C1098 C1104 1.465 1_545 S
C1099 C1094 1.399 . S
C1099 C1098 1.394 . S
C1099 C1100 1.516 1_545 S
C1100 C1099 1.516 1_565 S
C1100 C1101 1.502 . S
C1100 C1102 1.561 . S
C1100 C1103 1.526 . S
C1101 H1085 0.959 . S
C1101 H1086 0.959 . S
C1101 H1087 0.961 . S
C1101 C1100 1.502 . S
C1102 H1088 0.960 . S
C1102 H1089 0.961 . S
C1102 H1090 0.959 . S
C1102 C1100 1.561 . S
C1103 C1100 1.526 . S
C1103 C1104 1.396 . S
C1103 C1108 1.390 . S
C1104 C1098 1.465 1_565 S
C1104 C1103 1.396 . S
C1104 C1105 1.399 . S
C1105 H1091 0.929 1_565 S
C1105 C1104 1.399 . S
C1105 C1106 1.385 . S
C1106 H1092 0.931 . S
C1106 C1105 1.385 . S
C1106 C1107 1.389 . S
C1107 C1106 1.389 . S
C1107 C1108 1.387 . S
C1108 H1093 0.930 . S
C1108 C1103 1.390 . S
C1108 C1107 1.387 . S
H1109 C1121 0.930 . S
H1110 C1123 0.930 . S
H1111 C1124 0.930 1_565 S
H1112 C1128 0.959 . S
H1113 C1128 0.959 . S
H1114 C1128 0.961 . S
H1115 C1129 0.960 . S
H1116 C1129 0.961 . S
H1117 C1129 0.959 . S
H1118 C1132 0.929 . S
H1119 C1133 0.931 . S
H1120 C1135 0.930 . S
C1121 H1109 0.930 . S
C1121 C1122 1.399 . S
C1121 C1126 1.399 . S
C1122 C1121 1.399 . S
C1122 C1123 1.376 . S
C1123 H1110 0.930 . S
C1123 C1122 1.376 . S
C1123 C1124 1.388 . S
C1124 H1111 0.930 1_545 S
C1124 C1123 1.388 . S
C1124 C1125 1.390 . S
C1125 C1124 1.390 . S
C1125 C1126 1.392 . S
C1125 C1131 1.467 1_545 S
C1126 C1121 1.399 . S
C1126 C1125 1.392 . S
C1126 C1127 1.516 . S
C1127 C1126 1.516 . S
C1127 C1128 1.502 . S
C1127 C1129 1.561 1_545 S
C1127 C1130 1.526 1_545 S
C1128 H1112 0.959 . S
C1128 H1113 0.959 . S
C1128 H1114 0.961 . S
C1128 C1127 1.502 . S
C1129 H1115 0.960 . S
C1129 H1116 0.961 . S
C1129 H1117 0.959 . S
C1129 C1127 1.561 1_565 S
C1130 C1127 1.526 1_565 S
C1130 C1131 1.396 . S
C1130 C1135 1.390 . S
C1131 C1125 1.467 1_565 S
C1131 C1130 1.396 . S
C1131 C1132 1.399 . S
C1132 H1118 0.929 . S
C1132 C1131 1.399 . S
C1132 C1133 1.385 . S
C1133 H1119 0.931 . S
C1133 C1132 1.385 . S
C1133 C1134 1.389 . S
C1134 C1133 1.389 . S
C1134 C1135 1.387 . S
C1135 H1120 0.930 . S
C1135 C1130 1.390 . S
C1135 C1134 1.387 . S
C717 C49 1.312 . S
C729 C469 1.299 . S
C744 C108 1.288 . S
C756 C557 1.284 . S
C771 C233 1.318 . S
C783 C665 1.319 . S
C798 C381 1.300 . S
C810 C313 1.316 . S
C825 C29 1.886 . S
C837 C372 1.830 . S
C852 C117 1.893 . S
C864 C497 1.832 . S
C879 C548 1.778 . S
C891 C196 1.925 . S
C906 C321 1.872 . S
C918 C636 1.862 . S
C933 C401 1.903 . S
C945 C57 1.818 . S
C960 C137 1.798 . S
C972 C460 1.920 . S
C987 C577 1.878 . S
C999 C225 1.851 . S
C1014 C284 1.854 . S
C1026 C673 1.878 . S
C1041 C205 0.397 . S
C1053 C20 0.269 . S
C1068 C293 0.347 . S
C1080 C145 0.129 . S
C1095 C409 0.189 . S
C1107 C585 0.399 . S
C1122 C489 0.124 . S
C1134 C645 0.292 . S
