# Generated by pormake.
# Topology ske, (6)-cn, num edge types: 1
# Building blocks:
#     Node 0, Type 0, BuildingBlock: INOVEN_clean_sbu_0, # of connection points: 6
#     Node 1, Type 0, BuildingBlock: INOVEN_clean_sbu_0, # of connection points: 6
#     Node 2, Type 0, BuildingBlock: INOVEN_clean_sbu_0, # of connection points: 6
#     Node 3, Type 0, BuildingBlock: INOVEN_clean_sbu_0, # of connection points: 6
#     Node 4, Type 0, BuildingBlock: INOVEN_clean_sbu_0, # of connection points: 6
#     Node 5, Type 0, BuildingBlock: INOVEN_clean_sbu_0, # of connection points: 6
#     Node 6, Type 0, BuildingBlock: INOVEN_clean_sbu_0, # of connection points: 6
#     Node 7, Type 0, BuildingBlock: INOVEN_clean_sbu_0, # of connection points: 6
#     Edge 8, Type (0, 0), BuildingBlock: MIFKUJ_clean_linker_0, # of connection points: 2
#     Edge 9, Type (0, 0), BuildingBlock: MIFKUJ_clean_linker_0, # of connection points: 2
#     Edge 10, Type (0, 0), BuildingBlock: MIFKUJ_clean_linker_0, # of connection points: 2
#     Edge 11, Type (0, 0), BuildingBlock: MIFKUJ_clean_linker_0, # of connection points: 2
#     Edge 12, Type (0, 0), BuildingBlock: MIFKUJ_clean_linker_0, # of connection points: 2
#     Edge 13, Type (0, 0), BuildingBlock: MIFKUJ_clean_linker_0, # of connection points: 2
#     Edge 14, Type (0, 0), BuildingBlock: MIFKUJ_clean_linker_0, # of connection points: 2
#     Edge 15, Type (0, 0), BuildingBlock: MIFKUJ_clean_linker_0, # of connection points: 2
#     Edge 16, Type (0, 0), BuildingBlock: MIFKUJ_clean_linker_0, # of connection points: 2
#     Edge 17, Type (0, 0), BuildingBlock: MIFKUJ_clean_linker_0, # of connection points: 2
#     Edge 18, Type (0, 0), BuildingBlock: MIFKUJ_clean_linker_0, # of connection points: 2
#     Edge 19, Type (0, 0), BuildingBlock: MIFKUJ_clean_linker_0, # of connection points: 2
#     Edge 20, Type (0, 0), BuildingBlock: MIFKUJ_clean_linker_0, # of connection points: 2
#     Edge 21, Type (0, 0), BuildingBlock: MIFKUJ_clean_linker_0, # of connection points: 2
#     Edge 22, Type (0, 0), BuildingBlock: MIFKUJ_clean_linker_0, # of connection points: 2
#     Edge 23, Type (0, 0), BuildingBlock: MIFKUJ_clean_linker_0, # of connection points: 2
#     Edge 24, Type (0, 0), BuildingBlock: MIFKUJ_clean_linker_0, # of connection points: 2
#     Edge 25, Type (0, 0), BuildingBlock: MIFKUJ_clean_linker_0, # of connection points: 2
#     Edge 26, Type (0, 0), BuildingBlock: MIFKUJ_clean_linker_0, # of connection points: 2
#     Edge 27, Type (0, 0), BuildingBlock: MIFKUJ_clean_linker_0, # of connection points: 2
#     Edge 28, Type (0, 0), BuildingBlock: MIFKUJ_clean_linker_0, # of connection points: 2
#     Edge 29, Type (0, 0), BuildingBlock: MIFKUJ_clean_linker_0, # of connection points: 2
#     Edge 30, Type (0, 0), BuildingBlock: MIFKUJ_clean_linker_0, # of connection points: 2
#     Edge 31, Type (0, 0), BuildingBlock: MIFKUJ_clean_linker_0, # of connection points: 2
# Relax obj value: 0.197
# Max RMSD: 0.205
# Mean RMSD: 0.199
data_MOF--net-ske--node1-INOVEN_clean_sbu_0--edge1-MIFKUJ_clean_linker_0
_symmetry_space_group_name_H-M    P1
_symmetry_Int_Tables_number       1
_symmetry_cell_setting            triclinic
loop_
_symmetry_equiv_pos_as_xyz
'x, y, z'
_cell_length_a     121.0317
_cell_length_b     38.312759
_cell_length_c     20.23342
_cell_angle_alpha  89.932676
_cell_angle_beta   89.843077
_cell_angle_gamma 82.6744
loop_
_atom_site_label
_atom_site_type_symbol
_atom_site_fract_x
_atom_site_fract_y
_atom_site_fract_z
_atom_type_partial_charge
Gd0 Gd 0.14957 0.25695 0.54536 0.0
Gd1 Gd 0.12508 0.25116 0.55173 0.0
C2 C 0.13793 0.24995 0.68914 0.0
C3 C 0.16971 0.27376 0.55474 0.0
C4 C 0.18054 0.2674 0.59068 0.0
C5 C 0.18889 0.24067 0.56991 0.0
C6 C 0.18318 0.29068 0.64028 0.0
C7 C 0.20239 0.26162 0.64511 0.0
C8 C 0.19394 0.28771 0.66737 0.0
C9 C 0.19964 0.23777 0.59681 0.0
C10 C 0.14462 0.18987 0.53546 0.0
C11 C 0.13679 0.2576 0.40767 0.0
C12 C 0.10508 0.23306 0.54774 0.0
C13 C 0.09345 0.23719 0.52277 0.0
C14 C 0.08666 0.26987 0.52347 0.0
C15 C 0.08856 0.20688 0.50755 0.0
C16 C 0.07015 0.24122 0.49978 0.0
C17 C 0.07708 0.20881 0.49625 0.0
C18 C 0.07516 0.27187 0.5118 0.0
C19 C 0.13006 0.31876 0.5566 0.0
O20 O 0.14616 0.26156 0.65592 0.0
O21 O 0.1296 0.23827 0.65758 0.0
O22 O 0.16696 0.24862 0.51692 0.0
O23 O 0.16108 0.29123 0.58433 0.0
O24 O 0.15277 0.20186 0.50509 0.0
O25 O 0.1399 0.21312 0.57401 0.0
O26 O 0.12852 0.24612 0.44102 0.0
O27 O 0.14512 0.26951 0.43916 0.0
O28 O 0.10804 0.25758 0.5862 0.0
O29 O 0.11325 0.21816 0.51077 0.0
O30 O 0.1218 0.30761 0.58727 0.0
O31 O 0.13477 0.29439 0.52078 0.0
H32 H 0.18725 0.22247 0.53132 0.0
H33 H 0.17704 0.31197 0.6567 0.0
H34 H 0.19575 0.3068 0.70394 0.0
H35 H 0.20584 0.21701 0.57906 0.0
H36 H 0.09015 0.29371 0.53565 0.0
H37 H 0.09358 0.18135 0.5072 0.0
H38 H 0.07359 0.18473 0.48606 0.0
H39 H 0.07011 0.29725 0.5153 0.0
Gd40 Gd 0.86962 0.25053 0.5442 0.0
Gd41 Gd 0.89432 0.25449 0.54816 0.0
C42 C 0.88152 0.25641 0.68684 0.0
C43 C 0.84953 0.23349 0.55519 0.0
C44 C 0.8388 0.23904 0.59241 0.0
C45 C 0.83151 0.27063 0.5871 0.0
C46 C 0.83514 0.21084 0.62721 0.0
C47 C 0.81696 0.24495 0.64748 0.0
C48 C 0.8244 0.21378 0.65458 0.0
C49 C 0.82075 0.27354 0.61431 0.0
C50 C 0.87487 0.31743 0.53528 0.0
C51 C 0.88228 0.25011 0.40521 0.0
C52 C 0.91444 0.27159 0.54322 0.0
C53 C 0.92612 0.2663 0.51889 0.0
C54 C 0.93236 0.23277 0.51566 0.0
C55 C 0.93159 0.29597 0.50795 0.0
C56 C 0.94951 0.25904 0.49582 0.0
C57 C 0.94311 0.29245 0.49663 0.0
C58 C 0.94391 0.22919 0.50403 0.0
C59 C 0.8889 0.18723 0.55198 0.0
O60 O 0.87308 0.24587 0.65435 0.0
O61 O 0.89002 0.26692 0.65473 0.0
O62 O 0.85215 0.25914 0.51798 0.0
O63 O 0.85822 0.21579 0.58352 0.0
O64 O 0.86631 0.30641 0.50791 0.0
O65 O 0.87975 0.29342 0.57183 0.0
O66 O 0.89078 0.2603 0.438 0.0
O67 O 0.87377 0.23927 0.43701 0.0
O68 O 0.91128 0.24807 0.58345 0.0
O69 O 0.90643 0.2859 0.50474 0.0
O70 O 0.89749 0.19744 0.58052 0.0
O71 O 0.88418 0.21233 0.51786 0.0
H72 H 0.83399 0.29288 0.56034 0.0
H73 H 0.84047 0.18597 0.6313 0.0
H74 H 0.82178 0.19105 0.67904 0.0
H75 H 0.81535 0.29815 0.60865 0.0
H76 H 0.92839 0.20938 0.52423 0.0
H77 H 0.92702 0.32214 0.51118 0.0
H78 H 0.94705 0.31615 0.49152 0.0
H79 H 0.94846 0.20298 0.50258 0.0
Gd80 Gd 0.12559 0.75439 0.49387 0.0
Gd81 Gd 0.15022 0.75419 0.49717 0.0
C82 C 0.13798 0.75502 0.63511 0.0
C83 C 0.10468 0.74756 0.50616 0.0
C84 C 0.09259 0.7447 0.51396 0.0
C85 C 0.08529 0.77338 0.53816 0.0
C86 C 0.08812 0.71415 0.49481 0.0
C87 C 0.06927 0.74139 0.52259 0.0
C88 C 0.07661 0.71251 0.49903 0.0
C89 C 0.07381 0.77175 0.54243 0.0
C90 C 0.13244 0.81907 0.48121 0.0
C91 C 0.13773 0.7509 0.35358 0.0
C92 C 0.17065 0.76813 0.4856 0.0
C93 C 0.18135 0.76189 0.44812 0.0
C94 C 0.19026 0.73864 0.47351 0.0
C95 C 0.18329 0.78207 0.39209 0.0
C96 C 0.20292 0.75673 0.38939 0.0
C97 C 0.19392 0.77943 0.363 0.0
C98 C 0.20087 0.73602 0.44454 0.0
C99 C 0.14396 0.68894 0.51177 0.0
O100 O 0.12988 0.74285 0.6018 0.0
O101 O 0.14612 0.76777 0.60325 0.0
O102 O 0.10886 0.77608 0.52269 0.0
O103 O 0.11198 0.72202 0.48414 0.0
O104 O 0.12455 0.8082 0.4467 0.0
O105 O 0.13636 0.79525 0.52088 0.0
O106 O 0.14687 0.75591 0.38635 0.0
O107 O 0.12842 0.74656 0.38493 0.0
O108 O 0.16774 0.74232 0.52133 0.0
O109 O 0.1621 0.78736 0.45877 0.0
O110 O 0.15249 0.69967 0.54009 0.0
O111 O 0.13952 0.71242 0.47259 0.0
H112 H 0.08842 0.79743 0.55299 0.0
H113 H 0.0935 0.69159 0.4759 0.0
H114 H 0.07346 0.68851 0.48405 0.0
H115 H 0.06847 0.79473 0.55988 0.0
H116 H 0.18915 0.72324 0.51741 0.0
H117 H 0.17668 0.80062 0.37162 0.0
H118 H 0.1951 0.7955 0.32013 0.0
H119 H 0.20756 0.71868 0.46717 0.0
Gd120 Gd 0.8936 0.75518 0.47785 0.0
Gd121 Gd 0.86898 0.75122 0.4826 0.0
C122 C 0.88152 0.75202 0.62112 0.0
C123 C 0.91375 0.772 0.48278 0.0
C124 C 0.92549 0.76348 0.50468 0.0
C125 C 0.93175 0.73082 0.49045 0.0
C126 C 0.93099 0.79032 0.5314 0.0
C127 C 0.94893 0.75316 0.52413 0.0
C128 C 0.94255 0.78525 0.54116 0.0
C129 C 0.94332 0.72573 0.5001 0.0
C130 C 0.8884 0.68769 0.47595 0.0
C131 C 0.88083 0.75667 0.33939 0.0
C132 C 0.84885 0.73453 0.47298 0.0
C133 C 0.83801 0.74095 0.43715 0.0
C134 C 0.82972 0.76802 0.45731 0.0
C135 C 0.8353 0.71736 0.3883 0.0
C136 C 0.81616 0.74678 0.38299 0.0
C137 C 0.82454 0.72034 0.36133 0.0
C138 C 0.81897 0.77093 0.43053 0.0
C139 C 0.87427 0.81824 0.49006 0.0
O140 O 0.88988 0.76284 0.58765 0.0
O141 O 0.87317 0.74015 0.58979 0.0
O142 O 0.91018 0.75216 0.43714 0.0
O143 O 0.90603 0.78347 0.52573 0.0
O144 O 0.89702 0.69796 0.44763 0.0
O145 O 0.88351 0.71288 0.50928 0.0
O146 O 0.87245 0.74588 0.37233 0.0
O147 O 0.88926 0.76763 0.37129 0.0
O148 O 0.85159 0.7595 0.51123 0.0
O149 O 0.85746 0.71723 0.44298 0.0
O150 O 0.86568 0.80743 0.51783 0.0
O151 O 0.87908 0.79404 0.45379 0.0
H152 H 0.92777 0.70959 0.46959 0.0
H153 H 0.92641 0.8159 0.54192 0.0
H154 H 0.94654 0.80713 0.5591 0.0
H155 H 0.94791 0.70047 0.4875 0.0
H156 H 0.83142 0.78647 0.49533 0.0
H157 H 0.8414 0.69581 0.37241 0.0
H158 H 0.82269 0.70102 0.32537 0.0
H159 H 0.81281 0.79196 0.44777 0.0
Gd160 Gd 0.6497 0.75189 0.04714 0.0
Gd161 Gd 0.62519 0.74768 0.05263 0.0
C162 C 0.638 0.74536 0.19045 0.0
C163 C 0.66981 0.7688 0.05719 0.0
C164 C 0.6806 0.76233 0.09344 0.0
C165 C 0.68891 0.73525 0.07353 0.0
C166 C 0.68325 0.78584 0.14258 0.0
C167 C 0.70239 0.75636 0.14865 0.0
C168 C 0.69398 0.7828 0.17006 0.0
C169 C 0.69963 0.73227 0.10083 0.0
C170 C 0.6446 0.68478 0.03833 0.0
C171 C 0.63711 0.75156 0.90898 0.0
C172 C 0.60494 0.73157 0.04804 0.0
C173 C 0.59315 0.73958 0.02622 0.0
C174 C 0.58611 0.76852 0.05186 0.0
C175 C 0.5884 0.71493 0.98765 0.0
C176 C 0.56973 0.74636 1.00515 0.0
C177 C 0.57686 0.71832 0.97703 0.0
C178 C 0.57456 0.77188 0.04137 0.0
C179 C 0.63051 0.81513 0.05559 0.0
O180 O 0.64623 0.75705 0.15749 0.0
O181 O 0.62969 0.73385 0.1584 0.0
O182 O 0.6671 0.74387 0.01869 0.0
O183 O 0.66116 0.78601 0.08701 0.0
O184 O 0.65313 0.69604 1.01072 0.0
O185 O 0.63972 0.70856 0.0753 0.0
O186 O 0.62882 0.74039 0.94257 0.0
O187 O 0.64543 0.76358 0.94031 0.0
O188 O 0.60855 0.75174 0.093 0.0
O189 O 0.61267 0.71949 1.00556 0.0
O190 O 0.62213 0.8046 0.08609 0.0
O191 O 0.63515 0.79017 0.02087 0.0
H192 H 0.68725 0.71685 0.03533 0.0
H193 H 0.67714 0.80738 0.15833 0.0
H194 H 0.6958 0.80207 0.20622 0.0
H195 H 0.7058 0.71124 0.08376 0.0
H196 H 0.58943 0.78784 0.0825 0.0
H197 H 0.59357 0.69215 0.96784 0.0
H198 H 0.57351 0.69846 0.94786 0.0
H199 H 0.56939 0.79367 0.06441 0.0
Gd200 Gd 0.36932 0.75353 0.04869 0.0
Gd201 Gd 0.39378 0.75825 0.05362 0.0
C202 C 0.3809 0.76068 0.19164 0.0
C203 C 0.34915 0.73705 0.05891 0.0
C204 C 0.33836 0.74338 0.0955 0.0
C205 C 0.3294 0.76592 0.06864 0.0
C206 C 0.33643 0.72405 0.15265 0.0
C207 C 0.31674 0.74876 0.15361 0.0
C208 C 0.32577 0.72678 0.1814 0.0
C209 C 0.31878 0.76867 0.09735 0.0
C210 C 0.3744 0.82063 0.03751 0.0
C211 C 0.38192 0.7535 0.91057 0.0
C212 C 0.41396 0.77505 0.04793 0.0
C213 C 0.42581 0.76636 0.02731 0.0
C214 C 0.43291 0.73949 0.0589 0.0
C215 C 0.43053 0.78866 0.98315 0.0
C216 C 0.44927 0.75923 1.00645 0.0
C217 C 0.44208 0.78508 0.97263 0.0
C218 C 0.44447 0.73596 0.04855 0.0
C219 C 0.38869 0.69049 0.05754 0.0
O220 O 0.37272 0.74871 0.15898 0.0
O221 O 0.3892 0.77227 0.15931 0.0
O222 O 0.35188 0.76231 0.02116 0.0
O223 O 0.35778 0.71943 0.08797 0.0
O224 O 0.36612 0.80874 1.00866 0.0
O225 O 0.37917 0.79731 0.07582 0.0
O226 O 0.39003 0.76572 0.94379 0.0
O227 O 0.37375 0.74071 0.94241 0.0
O228 O 0.41025 0.75646 0.09529 0.0
O229 O 0.40634 0.78537 1.00381 0.0
O230 O 0.3972 0.70116 0.0861 0.0
O231 O 0.38392 0.71536 0.02318 0.0
H232 H 0.33051 0.78068 0.02393 0.0
H233 H 0.34308 0.7061 0.17434 0.0
H234 H 0.3246 0.71135 0.22515 0.0
H235 H 0.31205 0.78546 0.07375 0.0
H236 H 0.42962 0.72205 0.09393 0.0
H237 H 0.42532 0.80985 0.95861 0.0
H238 H 0.4454 0.8031 0.93889 0.0
H239 H 0.44967 0.71596 0.0761 0.0
Gd240 Gd 0.62527 0.24808 0.97434 0.0
Gd241 Gd 0.64983 0.25201 0.97899 0.0
C242 C 0.63723 0.25236 0.11746 0.0
C243 C 0.60504 0.23174 0.97996 0.0
C244 C 0.59321 0.24003 1.00139 0.0
C245 C 0.5862 0.26858 0.97424 0.0
C246 C 0.58841 0.21595 0.04131 0.0
C247 C 0.56975 0.24714 0.02227 0.0
C248 C 0.57685 0.2195 0.05183 0.0
C249 C 0.57464 0.27211 0.98462 0.0
C250 C 0.63057 0.31552 0.97068 0.0
C251 C 0.63813 0.24535 0.83607 0.0
C252 C 0.67005 0.26808 0.96828 0.0
C253 C 0.68071 0.26259 0.9303 0.0
C254 C 0.68798 0.23094 0.93495 0.0
C255 C 0.68433 0.29084 0.8955 0.0
C256 C 0.70246 0.25666 0.87396 0.0
C257 C 0.69503 0.2879 0.86749 0.0
C258 C 0.6987 0.22802 0.90711 0.0
C259 C 0.64446 0.18528 0.99048 0.0
O260 O 0.62895 0.241 0.08431 0.0
O261 O 0.64555 0.26435 0.08568 0.0
O262 O 0.60869 0.25122 0.9338 0.0
O263 O 0.61273 0.22039 0.02304 0.0
O264 O 0.622 0.30519 0.94218 0.0
O265 O 0.63533 0.2905 1.00475 0.0
O266 O 0.64643 0.25666 0.86865 0.0
O267 O 0.62973 0.23434 0.8684 0.0
O268 O 0.66734 0.24202 1.00405 0.0
O269 O 0.66139 0.28668 0.94136 0.0
O270 O 0.65278 0.19687 0.01944 0.0
O271 O 0.63981 0.20871 0.95192 0.0
H272 H 0.58957 0.28746 0.94255 0.0
H273 H 0.59355 0.19347 0.06233 0.0
H274 H 0.57347 0.20009 0.08214 0.0
H275 H 0.5695 0.29356 0.96045 0.0
H276 H 0.68554 0.20864 0.9617 0.0
H277 H 0.67901 0.31576 0.89192 0.0
H278 H 0.69763 0.31067 0.84307 0.0
H279 H 0.70409 0.20336 0.9123 0.0
Gd280 Gd 0.39372 0.25823 0.97477 0.0
Gd281 Gd 0.36916 0.25469 0.97974 0.0
C282 C 0.38164 0.25509 0.11804 0.0
C283 C 0.41402 0.27402 0.97973 0.0
C284 C 0.42583 0.26584 1.00137 0.0
C285 C 0.43302 0.23836 0.97205 0.0
C286 C 0.43044 0.28916 0.04372 0.0
C287 C 0.44925 0.2594 0.02294 0.0
C288 C 0.44198 0.28592 0.0546 0.0
C289 C 0.44455 0.23517 0.98275 0.0
C290 C 0.38829 0.19094 0.97237 0.0
C291 C 0.38101 0.26021 0.83673 0.0
C292 C 0.34894 0.23871 0.96958 0.0
C293 C 0.33813 0.24547 0.93348 0.0
C294 C 0.32979 0.27215 0.95464 0.0
C295 C 0.33548 0.22255 0.88326 0.0
C296 C 0.3163 0.25179 0.87866 0.0
C297 C 0.32473 0.22577 0.85599 0.0
C298 C 0.31906 0.27531 0.92754 0.0
C299 C 0.37455 0.32161 0.98759 0.0
O300 O 0.38995 0.26624 0.08453 0.0
O301 O 0.37337 0.2429 0.08659 0.0
O302 O 0.41037 0.2541 0.93447 0.0
O303 O 0.4063 0.28602 0.02232 0.0
O304 O 0.39674 0.20121 0.94219 0.0
O305 O 0.3836 0.21605 1.0066 0.0
O306 O 0.37275 0.24866 0.86967 0.0
O307 O 0.38929 0.27188 0.86883 0.0
O308 O 0.35174 0.26354 1.00794 0.0
O309 O 0.35753 0.22114 0.93985 0.0
O310 O 0.36599 0.31081 0.01565 0.0
O311 O 0.37929 0.29748 0.95096 0.0
H312 H 0.42981 0.22014 0.9384 0.0
H313 H 0.42517 0.31085 0.06645 0.0
H314 H 0.44521 0.30472 0.08684 0.0
H315 H 0.44982 0.21463 0.95684 0.0
H316 H 0.33144 0.29007 0.9937 0.0
H317 H 0.34161 0.20131 0.8665 0.0
H318 H 0.32293 0.20693 0.81898 0.0
H319 H 0.31286 0.29602 0.94562 0.0
H320 H 0.20957 0.2714 0.77218 0.0
H321 H 0.22874 0.26982 0.81153 0.0
H322 H 0.24098 0.24714 0.61386 0.0
H323 H 0.22188 0.24853 0.57434 0.0
H324 H 0.25339 0.20727 0.69801 0.0
H325 H 0.24009 0.33065 0.68593 0.0
H326 H 0.22728 0.38461 0.70921 0.0
H327 H 0.23345 0.37123 0.91716 0.0
H328 H 0.24619 0.31691 0.89517 0.0
H329 H 0.30913 0.24249 0.75134 0.0
H330 H 0.28998 0.24415 0.71181 0.0
H331 H 0.27769 0.26631 0.90956 0.0
H332 H 0.29679 0.26478 0.9493 0.0
H333 H 0.26532 0.30647 0.82524 0.0
H334 H 0.27863 0.18304 0.83713 0.0
H335 H 0.29145 0.12911 0.81366 0.0
H336 H 0.28527 0.14269 0.60576 0.0
H337 H 0.27252 0.19698 0.62794 0.0
C338 C 0.21633 0.26628 0.73695 0.0
C339 C 0.21411 0.26011 0.66996 0.0
C340 C 0.22732 0.2654 0.75955 0.0
C341 C 0.23639 0.25878 0.71565 0.0
C342 C 0.23419 0.25223 0.64894 0.0
C343 C 0.22322 0.25293 0.62639 0.0
C344 C 0.24815 0.2586 0.73897 0.0
C345 C 0.25601 0.22921 0.72507 0.0
C346 C 0.25162 0.28679 0.77561 0.0
C347 C 0.24401 0.31953 0.78893 0.0
C348 C 0.23865 0.33908 0.73665 0.0
C349 C 0.23141 0.36975 0.74961 0.0
C350 C 0.22953 0.38129 0.81464 0.0
C351 C 0.2349 0.36224 0.86683 0.0
C352 C 0.24214 0.33152 0.85414 0.0
C353 C 0.30237 0.24752 0.78656 0.0
C354 C 0.30458 0.25349 0.85365 0.0
C355 C 0.29138 0.24845 0.76385 0.0
C356 C 0.28231 0.25494 0.80771 0.0
C357 C 0.28449 0.26133 0.8745 0.0
C358 C 0.29546 0.26056 0.89718 0.0
C359 C 0.27055 0.25515 0.78429 0.0
C360 C 0.2627 0.28454 0.79817 0.0
C361 C 0.26709 0.22697 0.74759 0.0
C362 C 0.27471 0.19426 0.73417 0.0
C363 C 0.28007 0.17466 0.78638 0.0
C364 C 0.28731 0.14401 0.77331 0.0
C365 C 0.28919 0.13253 0.70825 0.0
C366 C 0.28381 0.15164 0.65612 0.0
C367 C 0.27657 0.18233 0.66892 0.0
H368 H 0.2948 0.1088 0.69823 0.0
H369 H 0.22392 0.40505 0.82457 0.0
H370 H 0.72162 0.22526 0.9331 0.0
H371 H 0.74082 0.22318 0.89414 0.0
H372 H 0.72934 0.28198 0.72031 0.0
H373 H 0.71005 0.28337 0.75815 0.0
H374 H 0.74539 0.22926 0.68841 0.0
H375 H 0.7411 0.32153 0.84949 0.0
H376 H 0.73634 0.34844 0.95819 0.0
H377 H 0.76109 0.27399 0.05053 0.0
H378 H 0.7659 0.2463 0.94242 0.0
H379 H 0.79785 0.27615 0.58742 0.0
H380 H 0.77861 0.27831 0.62575 0.0
H381 H 0.78992 0.21988 0.8003 0.0
H382 H 0.80925 0.21844 0.76312 0.0
H383 H 0.77393 0.27258 0.83159 0.0
H384 H 0.7782 0.18027 0.67043 0.0
H385 H 0.78295 0.15336 0.5617 0.0
H386 H 0.75822 0.22792 0.46945 0.0
H387 H 0.75343 0.2556 0.57758 0.0
C388 C 0.72313 0.2374 0.88614 0.0
C389 C 0.71421 0.25452 0.84891 0.0
C390 C 0.73417 0.23651 0.86421 0.0
C391 C 0.73661 0.25282 0.80459 0.0
C392 C 0.72772 0.26931 0.76661 0.0
C393 C 0.71667 0.27031 0.78861 0.0
C394 C 0.74842 0.25279 0.78211 0.0
C395 C 0.75158 0.2392 0.71942 0.0
C396 C 0.75663 0.26499 0.8229 0.0
C397 C 0.75378 0.28162 0.88795 0.0
C398 C 0.74547 0.31071 0.89305 0.0
C399 C 0.74277 0.32614 0.95454 0.0
C400 C 0.74839 0.31287 1.01126 0.0
C401 C 0.75674 0.2842 1.00656 0.0
C402 C 0.75946 0.26865 0.94518 0.0
C403 C 0.79629 0.2641 0.6344 0.0
C404 C 0.80518 0.24709 0.67204 0.0
C405 C 0.78523 0.26503 0.65596 0.0
C406 C 0.78273 0.24885 0.71562 0.0
C407 C 0.79158 0.23244 0.75397 0.0
C408 C 0.80265 0.23141 0.73234 0.0
C409 C 0.77091 0.24902 0.7379 0.0
C410 C 0.76774 0.26264 0.80057 0.0
C411 C 0.76269 0.23685 0.69708 0.0
C412 C 0.76554 0.22023 0.63202 0.0
C413 C 0.77384 0.19111 0.62689 0.0
C414 C 0.77652 0.17569 0.56538 0.0
C415 C 0.77091 0.18898 0.50868 0.0
C416 C 0.76257 0.21768 0.5134 0.0
C417 C 0.75986 0.23323 0.57479 0.0
H418 H 0.773 0.177 0.4611 0.0
H419 H 0.74629 0.32486 0.05882 0.0
H420 H 0.3006 0.806 0.16591 0.0
H421 H 0.28144 0.80714 0.20507 0.0
H422 H 0.28743 0.69572 0.24445 0.0
H423 H 0.30649 0.6941 0.20307 0.0
H424 H 0.26792 0.71132 0.18482 0.0
H425 H 0.28579 0.75803 0.37022 0.0
H426 H 0.29699 0.79799 0.42776 0.0
H427 H 0.27354 0.88668 0.37175 0.0
H428 H 0.26227 0.84729 0.31309 0.0
H429 H 0.21899 0.69939 0.37519 0.0
H430 H 0.23814 0.69832 0.3362 0.0
H431 H 0.23228 0.81005 0.29976 0.0
H432 H 0.21325 0.81163 0.34142 0.0
H433 H 0.25174 0.79432 0.3578 0.0
H434 H 0.23387 0.74773 0.17231 0.0
H435 H 0.22267 0.70787 0.11452 0.0
H436 H 0.2461 0.61907 0.17025 0.0
H437 H 0.25738 0.65838 0.22914 0.0
C438 C 0.29786 0.78165 0.18261 0.0
C439 C 0.30518 0.74995 0.18124 0.0
C440 C 0.28689 0.78242 0.20569 0.0
C441 C 0.28295 0.75158 0.22852 0.0
C442 C 0.29024 0.71992 0.22735 0.0
C443 C 0.30121 0.71912 0.20425 0.0
C444 C 0.27119 0.75218 0.25226 0.0
C445 C 0.26444 0.72914 0.22333 0.0
C446 C 0.26649 0.77599 0.30137 0.0
C447 C 0.27324 0.79973 0.33672 0.0
C448 C 0.28306 0.78608 0.36973 0.0
C449 C 0.28942 0.80862 0.40263 0.0
C450 C 0.286 0.84486 0.40326 0.0
C451 C 0.27619 0.85862 0.37114 0.0
C452 C 0.26981 0.83619 0.33811 0.0
C453 C 0.22175 0.72384 0.35924 0.0
C454 C 0.21447 0.75561 0.36159 0.0
C455 C 0.23272 0.72311 0.33618 0.0
C456 C 0.2367 0.75404 0.31414 0.0
C457 C 0.22945 0.78576 0.31621 0.0
C458 C 0.21849 0.78655 0.33945 0.0
C459 C 0.24846 0.75346 0.29034 0.0
C460 C 0.25521 0.77649 0.31926 0.0
C461 C 0.25316 0.72966 0.24118 0.0
C462 C 0.24641 0.70598 0.20568 0.0
C463 C 0.23659 0.71968 0.17267 0.0
C464 C 0.23024 0.69719 0.13964 0.0
C465 C 0.23366 0.66095 0.13886 0.0
C466 C 0.24346 0.64714 0.17097 0.0
C467 C 0.24984 0.66952 0.20413 0.0
H468 H 0.22872 0.64358 0.11325 0.0
H469 H 0.29093 0.86227 0.42876 0.0
H470 H 0.72193 0.74251 0.07867 0.0
H471 H 0.74099 0.74063 0.11882 0.0
H472 H 0.72862 0.76517 0.31558 0.0
H473 H 0.70946 0.76719 0.27558 0.0
H474 H 0.74496 0.8027 0.28792 0.0
H475 H 0.74047 0.68057 0.27021 0.0
H476 H 0.73586 0.62695 0.21498 0.0
H477 H 0.76132 0.63556 0.06983 0.0
H478 H 0.76599 0.68952 0.1237 0.0
H479 H 0.7967 0.76055 0.45377 0.0
H480 H 0.77759 0.76236 0.41438 0.0
H481 H 0.78975 0.73789 0.21716 0.0
H482 H 0.80895 0.73593 0.2564 0.0
H483 H 0.77349 0.70023 0.2456 0.0
H484 H 0.77793 0.82255 0.26346 0.0
H485 H 0.78253 0.87607 0.31909 0.0
H486 H 0.75714 0.86695 0.46447 0.0
H487 H 0.75248 0.81309 0.4102 0.0
C488 C 0.72323 0.74706 0.13071 0.0
C489 C 0.71409 0.75473 0.17388 0.0
C490 C 0.73418 0.74602 0.15367 0.0
C491 C 0.73633 0.75225 0.22059 0.0
C492 C 0.72723 0.76023 0.26375 0.0
C493 C 0.71625 0.76144 0.24073 0.0
C494 C 0.74805 0.75091 0.24521 0.0
C495 C 0.75114 0.78004 0.27945 0.0
C496 C 0.75627 0.72178 0.23301 0.0
C497 C 0.7535 0.68927 0.20065 0.0
C498 C 0.74503 0.67117 0.22623 0.0
C499 C 0.74242 0.6407 0.19522 0.0
C500 C 0.74827 0.62791 0.13884 0.0
C501 C 0.75678 0.64552 0.11345 0.0
C502 C 0.75942 0.67603 0.14424 0.0
C503 C 0.79534 0.756 0.40178 0.0
C504 C 0.80443 0.74836 0.35826 0.0
C505 C 0.78436 0.75699 0.37927 0.0
C506 C 0.78214 0.75076 0.31244 0.0
C507 C 0.79119 0.74282 0.26894 0.0
C508 C 0.80219 0.74165 0.29151 0.0
C509 C 0.7704 0.75203 0.28822 0.0
C510 C 0.7673 0.72288 0.25407 0.0
C511 C 0.76218 0.78113 0.30056 0.0
C512 C 0.76493 0.8136 0.33311 0.0
C513 C 0.77338 0.83181 0.30757 0.0
C514 C 0.77599 0.86224 0.33881 0.0
C515 C 0.77015 0.87485 0.39537 0.0
C516 C 0.76167 0.85712 0.4207 0.0
C517 C 0.75903 0.82667 0.38969 0.0
H518 H 0.77218 0.89841 0.41949 0.0
H519 H 0.74624 0.60431 0.11489 0.0
H520 H 0.12325 0.87395 0.40487 0.0
H521 H 0.12512 0.9365 0.41691 0.0
H522 H 0.14677 0.91248 0.58429 0.0
H523 H 0.14511 0.84973 0.57132 0.0
H524 H 0.11948 0.98313 0.50958 0.0
H525 H 0.16539 0.97148 0.59456 0.0
H526 H 0.18282 0.93095 0.58179 0.0
H527 H 0.17134 0.89526 0.39613 0.0
H528 H 0.15393 0.93595 0.4073 0.0
H529 H 0.13113 0.15419 0.61457 0.0
H530 H 0.12888 0.09131 0.60947 0.0
H531 H 0.15129 0.07852 0.4425 0.0
H532 H 0.15378 0.14055 0.44886 0.0
H533 H 0.1564 0.02604 0.51908 0.0
H534 H 0.12181 0.0826 0.43075 0.0
H535 H 0.10424 0.12307 0.43135 0.0
H536 H 0.09296 0.06989 0.60079 0.0
H537 H 0.11054 0.02944 0.60184 0.0
C538 C 0.12847 0.88197 0.44396 0.0
C539 C 0.13407 0.85681 0.48695 0.0
C540 C 0.12948 0.91784 0.45111 0.0
C541 C 0.13613 0.92951 0.50135 0.0
C542 C 0.14171 0.90433 0.54449 0.0
C543 C 0.14076 0.86839 0.5371 0.0
C544 C 0.13724 0.96791 0.50806 0.0
C545 C 0.12757 0.99246 0.51187 0.0
C546 C 0.14775 0.98047 0.51017 0.0
C547 C 0.15831 0.95649 0.50219 0.0
C548 C 0.16662 0.9551 0.55088 0.0
C549 C 0.17649 0.93209 0.54393 0.0
C550 C 0.17817 0.91045 0.4883 0.0
C551 C 0.17001 0.91194 0.4393 0.0
C552 C 0.16014 0.93496 0.44594 0.0
C553 C 0.13554 0.13788 0.5768 0.0
C554 C 0.14266 0.15235 0.53225 0.0
C555 C 0.13423 0.10192 0.57368 0.0
C556 C 0.13987 0.07985 0.52527 0.0
C557 C 0.14689 0.09461 0.48063 0.0
C558 C 0.14827 0.13025 0.48415 0.0
C559 C 0.13863 0.04141 0.52066 0.0
C560 C 0.1483 0.01678 0.51732 0.0
C561 C 0.12811 0.02891 0.51735 0.0
C562 C 0.11754 0.05322 0.51677 0.0
C563 C 0.11562 0.07971 0.46845 0.0
C564 C 0.10565 0.10262 0.46845 0.0
C565 C 0.0975 0.09908 0.51614 0.0
C566 C 0.09929 0.07262 0.56393 0.0
C567 C 0.10925 0.0497 0.56424 0.0
H568 H 0.08977 0.11676 0.51596 0.0
H569 H 0.1858 0.89259 0.4831 0.0
H570 H 0.89394 0.34697 0.56504 0.0
H571 H 0.89668 0.4093 0.5575 0.0
H572 H 0.8622 0.43576 0.5021 0.0
H573 H 0.85974 0.37369 0.50515 0.0
H574 H 0.87232 0.4728 0.43177 0.0
H575 H 0.87458 0.4524 0.66491 0.0
H576 H 0.88145 0.4233 0.76836 0.0
H577 H 0.91428 0.4493 0.72809 0.0
H578 H 0.90763 0.47818 0.62394 0.0
H579 H 0.86995 0.6593 0.52011 0.0
H580 H 0.86786 0.59651 0.53371 0.0
H581 H 0.9018 0.56806 0.47011 0.0
H582 H 0.9038 0.63036 0.45398 0.0
H583 H 0.89214 0.53379 0.6021 0.0
H584 H 0.88828 0.55292 0.36278 0.0
H585 H 0.8797 0.58531 0.26656 0.0
H586 H 0.84734 0.56445 0.33089 0.0
H587 H 0.85574 0.53239 0.4281 0.0
C588 C 0.88697 0.36619 0.55147 0.0
C589 C 0.87663 0.35529 0.53574 0.0
C590 C 0.88849 0.40202 0.5476 0.0
C591 C 0.87961 0.42796 0.53003 0.0
C592 C 0.86926 0.41679 0.51534 0.0
C593 C 0.86783 0.38108 0.5175 0.0
C594 C 0.88102 0.46649 0.525 0.0
C595 C 0.87656 0.4859 0.46981 0.0
C596 C 0.88661 0.4844 0.57371 0.0
C597 C 0.89063 0.46712 0.6363 0.0
C598 C 0.88328 0.4517 0.67791 0.0
C599 C 0.88713 0.43527 0.73669 0.0
C600 C 0.8983 0.43436 0.75469 0.0
C601 C 0.90564 0.44997 0.71403 0.0
C602 C 0.90183 0.46639 0.65514 0.0
C603 C 0.87695 0.63963 0.50899 0.0
C604 C 0.88702 0.64987 0.48572 0.0
C605 C 0.87576 0.60377 0.51692 0.0
C606 C 0.88469 0.57751 0.50323 0.0
C607 C 0.89481 0.58777 0.48127 0.0
C608 C 0.89591 0.62345 0.47178 0.0
C609 C 0.88342 0.53931 0.50956 0.0
C610 C 0.88791 0.52024 0.56468 0.0
C611 C 0.87763 0.52186 0.46182 0.0
C612 C 0.87262 0.54065 0.40301 0.0
C613 C 0.87933 0.55555 0.35672 0.0
C614 C 0.8745 0.57377 0.30194 0.0
C615 C 0.86298 0.57703 0.29272 0.0
C616 C 0.85626 0.56196 0.33815 0.0
C617 C 0.86105 0.54374 0.39305 0.0
H618 H 0.85926 0.59116 0.2503 0.0
H619 H 0.90127 0.42163 0.80022 0.0
H620 H 0.8936 0.84665 0.46199 0.0
H621 H 0.89654 0.90916 0.46836 0.0
H622 H 0.86201 0.93735 0.52003 0.0
H623 H 0.85914 0.87528 0.51647 0.0
H624 H 0.87436 0.98002 0.40626 0.0
H625 H 0.87352 0.94098 0.63862 0.0
H626 H 0.88021 0.89965 0.72771 0.0
H627 H 0.91375 0.92095 0.69388 0.0
H628 H 0.90725 0.96198 0.60377 0.0
H629 H 0.87063 0.15946 0.50436 0.0
H630 H 0.86829 0.0972 0.4911 0.0
H631 H 0.90171 0.06745 0.5631 0.0
H632 H 0.90373 0.12937 0.58036 0.0
H633 H 0.89072 0.02349 0.61009 0.0
H634 H 0.89286 0.06535 0.38897 0.0
H635 H 0.88799 0.10395 0.293 0.0
H636 H 0.85482 0.07537 0.29406 0.0
H637 H 0.85945 0.03695 0.39065 0.0
C638 C 0.88664 0.86624 0.47433 0.0
C639 C 0.87615 0.85596 0.48883 0.0
C640 C 0.88833 0.90193 0.47797 0.0
C641 C 0.87948 0.92801 0.49456 0.0
C642 C 0.86895 0.9178 0.50698 0.0
C643 C 0.86734 0.88223 0.50509 0.0
C644 C 0.88122 0.96578 0.50183 0.0
C645 C 0.87786 0.9897 0.45092 0.0
C646 C 0.88607 0.97827 0.55919 0.0
C647 C 0.88992 0.95417 0.61404 0.0
C648 C 0.88233 0.93658 0.64979 0.0
C649 C 0.88608 0.91327 0.70054 0.0
C650 C 0.8974 0.90759 0.71632 0.0
C651 C 0.90498 0.92532 0.68153 0.0
C652 C 0.90127 0.94861 0.63064 0.0
C653 C 0.87744 0.13957 0.51752 0.0
C654 C 0.88736 0.14946 0.54328 0.0
C655 C 0.87616 0.10382 0.50932 0.0
C656 C 0.88491 0.07701 0.52461 0.0
C657 C 0.89479 0.08713 0.55076 0.0
C658 C 0.89596 0.12275 0.56043 0.0
C659 C 0.88378 0.03858 0.51441 0.0
C660 C 0.88726 0.01427 0.56493 0.0
C661 C 0.87927 0.02565 0.45579 0.0
C662 C 0.87647 0.04854 0.39745 0.0
C663 C 0.88451 0.06747 0.36899 0.0
C664 C 0.88179 0.0893 0.31446 0.0
C665 C 0.87109 0.09219 0.28756 0.0
C666 C 0.8631 0.07315 0.31501 0.0
C667 C 0.86576 0.05132 0.36962 0.0
H668 H 0.86901 0.10911 0.24536 0.0
H669 H 0.90029 0.88953 0.7556 0.0
H670 H 0.15562 0.63571 0.58027 0.0
H671 H 0.15302 0.57381 0.58348 0.0
H672 H 0.12477 0.5947 0.45328 0.0
H673 H 0.12762 0.65715 0.44828 0.0
H674 H 0.13791 0.54014 0.62803 0.0
H675 H 0.12164 0.5197 0.36433 0.0
H676 H 0.12306 0.54394 0.252 0.0
H677 H 0.15479 0.5761 0.29999 0.0
H678 H 0.15363 0.55165 0.41225 0.0
H679 H 0.11782 0.37479 0.616 0.0
H680 H 0.11978 0.43722 0.60476 0.0
H681 H 0.14762 0.41131 0.47251 0.0
H682 H 0.14552 0.34855 0.48264 0.0
H683 H 0.13488 0.46784 0.42732 0.0
H684 H 0.15127 0.4339 0.63579 0.0
H685 H 0.15225 0.40801 0.74757 0.0
H686 H 0.12455 0.48226 0.80924 0.0
H687 H 0.1233 0.50827 0.69747 0.0
C688 C 0.14886 0.62724 0.55203 0.0
C689 C 0.14187 0.65145 0.5137 0.0
C690 C 0.14734 0.59167 0.55415 0.0
C691 C 0.13875 0.5791 0.5183 0.0
C692 C 0.1316 0.60337 0.48059 0.0
C693 C 0.13318 0.63916 0.47801 0.0
C694 C 0.13736 0.54071 0.52158 0.0
C695 C 0.1372 0.5245 0.58395 0.0
C696 C 0.13664 0.5197 0.46442 0.0
C697 C 0.13747 0.53422 0.3969 0.0
C698 C 0.12893 0.53186 0.35081 0.0
C699 C 0.12969 0.54564 0.28718 0.0
C700 C 0.13899 0.56167 0.26896 0.0
C701 C 0.14757 0.56381 0.31425 0.0
C702 C 0.14686 0.55003 0.37791 0.0
C703 C 0.12438 0.38233 0.58454 0.0
C704 C 0.13154 0.35664 0.55041 0.0
C705 C 0.12551 0.41814 0.57826 0.0
C706 C 0.13393 0.42926 0.53831 0.0
C707 C 0.14105 0.4036 0.50361 0.0
C708 C 0.13988 0.36768 0.5097 0.0
C709 C 0.13536 0.46752 0.53371 0.0
C710 C 0.13553 0.48364 0.47126 0.0
C711 C 0.13639 0.48833 0.59075 0.0
C712 C 0.13712 0.47279 0.65806 0.0
C713 C 0.14533 0.44453 0.67304 0.0
C714 C 0.14594 0.42985 0.73642 0.0
C715 C 0.13845 0.44341 0.78543 0.0
C716 C 0.13034 0.47174 0.77119 0.0
C717 C 0.12968 0.48647 0.70785 0.0
H718 H 0.13894 0.43203 0.83448 0.0
H719 H 0.13956 0.57235 0.21969 0.0
H720 H 0.66019 0.62838 0.0176 0.0
H721 H 0.6577 0.56641 1.01126 0.0
H722 H 0.62248 0.59313 0.04766 0.0
H723 H 0.62518 0.65546 0.05887 0.0
H724 H 0.62798 0.535 0.10387 0.0
H725 H 0.63523 0.57169 0.88487 0.0
H726 H 0.64512 0.59823 0.79476 0.0
H727 H 0.67401 0.52282 0.82714 0.0
H728 H 0.66435 0.4961 0.91803 0.0
H729 H 0.61572 0.37359 0.94296 0.0
H730 H 0.61798 0.43572 0.95933 0.0
H731 H 0.65124 0.40548 0.03214 0.0
H732 H 0.64887 0.343 0.01821 0.0
H733 H 0.64611 0.46446 0.91874 0.0
H734 H 0.63721 0.4292 0.14218 0.0
H735 H 0.62556 0.40268 0.22352 0.0
H736 H 0.59738 0.47686 0.16953 0.0
H737 H 0.60884 0.50344 0.08701 0.0
C738 C 0.65191 0.62109 0.02472 0.0
C739 C 0.64287 0.64695 0.0383 0.0
C740 C 0.65046 0.58548 0.02034 0.0
C741 C 0.63982 0.57462 0.02656 0.0
C742 C 0.63078 0.60044 0.04199 0.0
C743 C 0.63231 0.63617 0.04833 0.0
C744 C 0.63823 0.53654 0.01675 0.0
C745 C 0.63187 0.51992 0.06279 0.0
C746 C 0.64326 0.5161 0.96338 0.0
C747 C 0.6491 0.53208 0.90866 0.0
C748 C 0.64372 0.56091 0.87306 0.0
C749 C 0.64928 0.57597 0.82181 0.0
C750 C 0.66019 0.56226 0.80533 0.0
C751 C 0.66556 0.53342 0.84 0.0
C752 C 0.66004 0.51829 0.89134 0.0
C753 C 0.62352 0.3801 0.96258 0.0
C754 C 0.63212 0.35326 0.97931 0.0
C755 C 0.62478 0.41568 0.972 0.0
C756 C 0.63476 0.42536 0.9971 0.0
C757 C 0.64345 0.39867 1.0128 0.0
C758 C 0.6421 0.36298 1.00485 0.0
C759 C 0.6361 0.46334 1.00626 0.0
C760 C 0.64231 0.47983 0.95974 0.0
C761 C 0.63071 0.4838 0.058 0.0
C762 C 0.62385 0.46802 0.10789 0.0
C763 C 0.6285 0.43961 0.14714 0.0
C764 C 0.62194 0.42462 0.19358 0.0
C765 C 0.61073 0.43801 0.20155 0.0
C766 C 0.60606 0.46648 0.16323 0.0
C767 C 0.61259 0.48152 0.11665 0.0
H768 H 0.60566 0.42638 0.23754 0.0
H769 H 0.66449 0.57389 0.7656 0.0
H770 H 0.39093 0.8536 0.09655 0.0
H771 H 0.39362 0.9161 0.08829 0.0
H772 H 0.36459 0.93527 0.96382 0.0
H773 H 0.36211 0.87328 0.97047 0.0
H774 H 0.3794 0.96868 0.91395 0.0
H775 H 0.36508 0.9599 0.13406 0.0
H776 H 0.36468 0.93668 0.24767 0.0
H777 H 0.39674 0.96913 0.28565 0.0
H778 H 0.39739 0.99215 0.17192 0.0
H779 H 0.37301 0.16239 0.05025 0.0
H780 H 0.37078 0.09987 0.06392 0.0
H781 H 0.39793 0.0716 0.92788 0.0
H782 H 0.40004 0.13376 0.91343 0.0
H783 H 0.38374 0.0434 0.10976 0.0
H784 H 0.39369 0.99914 0.83973 0.0
H785 H 0.39188 0.02358 0.72683 0.0
H786 H 0.36473 0.09945 0.79017 0.0
H787 H 0.36626 0.07513 0.90313 0.0
C788 C 0.38514 0.87124 0.06756 0.0
C789 C 0.37628 0.85838 0.03442 0.0
C790 C 0.38664 0.90708 0.06305 0.0
C791 C 0.37925 0.93092 0.02584 0.0
C792 C 0.37046 0.9178 0.99269 0.0
C793 C 0.36902 0.88217 0.9968 0.0
C794 C 0.38061 0.96936 0.02015 0.0
C795 C 0.3804 0.98484 0.95696 0.0
C796 C 0.38172 0.9911 0.07589 0.0
C797 C 0.38133 0.97741 0.14429 0.0
C798 C 0.37208 0.96186 0.1665 0.0
C799 C 0.3718 0.94877 0.23093 0.0
C800 C 0.38069 0.95134 0.27379 0.0
C801 C 0.38987 0.9671 0.25236 0.0
C802 C 0.39019 0.98019 0.18794 0.0
C803 C 0.37847 0.14281 0.0231 0.0
C804 C 0.38667 0.15316 0.98051 0.0
C805 C 0.37723 0.107 0.03121 0.0
C806 C 0.38412 0.08069 0.99658 0.0
C807 C 0.39237 0.09113 0.95452 0.0
C808 C 0.3936 0.12682 0.94638 0.0
C809 C 0.38263 0.04246 1.00359 0.0
C810 C 0.38281 0.02709 0.06686 0.0
C811 C 0.38125 0.02091 0.94802 0.0
C812 C 0.38019 0.03555 0.88007 0.0
C813 C 0.38731 0.02096 0.8295 0.0
C814 C 0.38633 0.0348 0.7655 0.0
C815 C 0.37822 0.06313 0.7514 0.0
C816 C 0.37104 0.0776 0.80121 0.0
C817 C 0.37197 0.06382 0.86525 0.0
H818 H 0.37748 0.07382 0.70184 0.0
H819 H 0.38047 0.94118 0.32365 0.0
H820 H 0.39394 0.34975 0.96007 0.0
H821 H 0.397 0.41213 0.96736 0.0
H822 H 0.36248 0.44072 0.01899 0.0
H823 H 0.3595 0.37877 0.01447 0.0
H824 H 0.37375 0.48436 0.90942 0.0
H825 H 0.3759 0.44038 0.138 0.0
H826 H 0.3838 0.39791 0.2224 0.0
H827 H 0.41661 0.42347 0.17975 0.0
H828 H 0.4089 0.4657 0.09429 0.0
H829 H 0.3703 0.66206 0.01437 0.0
H830 H 0.36823 0.59975 0.99975 0.0
H831 H 0.40235 0.57113 0.06064 0.0
H832 H 0.4041 0.63312 0.07984 0.0
H833 H 0.3923 0.52537 0.10793 0.0
H834 H 0.39184 0.57073 0.88885 0.0
H835 H 0.38587 0.61059 0.79626 0.0
H836 H 0.35293 0.58054 0.80728 0.0
H837 H 0.35865 0.54085 0.9006 0.0
C838 C 0.38701 0.36941 0.97257 0.0
C839 C 0.37649 0.35927 0.98678 0.0
C840 C 0.38876 0.40502 0.97675 0.0
C841 C 0.37996 0.43119 0.99357 0.0
C842 C 0.36939 0.42113 1.0057 0.0
C843 C 0.36772 0.38562 1.00328 0.0
C844 C 0.38175 0.46889 1.00146 0.0
C845 C 0.37774 0.4935 0.95296 0.0
C846 C 0.38725 0.48068 0.05713 0.0
C847 C 0.39184 0.45586 0.10932 0.0
C848 C 0.38481 0.4367 0.14624 0.0
C849 C 0.38925 0.41273 0.19434 0.0
C850 C 0.40071 0.40791 0.20629 0.0
C851 C 0.40774 0.42718 0.17036 0.0
C852 C 0.40334 0.45115 0.12213 0.0
C853 C 0.37733 0.6424 0.02485 0.0
C854 C 0.38737 0.65262 0.04814 0.0
C855 C 0.3762 0.60662 0.01579 0.0
C856 C 0.38521 0.58012 0.02739 0.0
C857 C 0.39522 0.59056 0.05111 0.0
C858 C 0.39624 0.62621 0.0619 0.0
C859 C 0.38422 0.54169 0.01586 0.0
C860 C 0.38837 0.51669 0.06384 0.0
C861 C 0.37912 0.52944 0.95856 0.0
C862 C 0.37565 0.55307 0.90214 0.0
C863 C 0.3833 0.57278 0.87179 0.0
C864 C 0.37996 0.59533 0.81916 0.0
C865 C 0.36902 0.59816 0.79602 0.0
C866 C 0.3614 0.57836 0.82533 0.0
C867 C 0.36469 0.55581 0.87806 0.0
H868 H 0.36645 0.61565 0.75529 0.0
H869 H 0.40413 0.38932 0.24351 0.0
H870 H 0.65643 0.13262 0.05904 0.0
H871 H 0.6538 0.07076 0.06573 0.0
H872 H 0.62515 0.09016 0.93827 0.0
H873 H 0.62799 0.15257 0.93004 0.0
H874 H 0.63869 0.03776 0.11421 0.0
H875 H 0.62165 0.01391 0.85418 0.0
H876 H 0.62269 0.03674 0.74052 0.0
H877 H 0.65464 0.06907 0.78219 0.0
H878 H 0.65385 0.04603 0.89577 0.0
H879 H 0.61842 0.87218 0.11297 0.0
H880 H 0.62038 0.93443 0.09824 0.0
H881 H 0.648 0.90651 0.96527 0.0
H882 H 0.64589 0.84391 0.97901 0.0
H883 H 0.63514 0.96264 0.91793 0.0
H884 H 0.65191 0.93172 0.12732 0.0
H885 H 0.65288 0.90731 0.2403 0.0
H886 H 0.6252 0.98239 0.29893 0.0
H887 H 0.62396 0.00694 0.18599 0.0
C888 C 0.64957 0.12382 0.03208 0.0
C889 C 0.64246 0.14764 0.99363 0.0
C890 C 0.64804 0.08827 0.03622 0.0
C891 C 0.63932 0.07525 1.00225 0.0
C892 C 0.63208 0.09912 0.96421 0.0
C893 C 0.63366 0.1349 0.9597 0.0
C894 C 0.6379 0.03687 1.00786 0.0
C895 C 0.63786 0.02152 0.07109 0.0
C896 C 0.637 0.01503 0.952 0.0
C897 C 0.63762 0.02861 0.88365 0.0
C898 C 0.62891 0.0258 0.83899 0.0
C899 C 0.62945 0.03879 0.7746 0.0
C900 C 0.6387 0.05446 0.75423 0.0
C901 C 0.64745 0.05705 0.79812 0.0
C902 C 0.64696 0.04407 0.86252 0.0
C903 C 0.62493 0.87922 0.08061 0.0
C904 C 0.63202 0.85296 0.04735 0.0
C905 C 0.62607 0.91496 0.07232 0.0
C906 C 0.63442 0.92552 0.0311 0.0
C907 C 0.64147 0.89929 0.99731 0.0
C908 C 0.64031 0.86343 1.00547 0.0
C909 C 0.63586 0.96378 0.02423 0.0
C910 C 0.63589 0.97904 0.96093 0.0
C911 C 0.637 0.98546 0.07995 0.0
C912 C 0.63778 0.97094 0.14804 0.0
C913 C 0.64598 0.94287 0.16419 0.0
C914 C 0.64659 0.92903 0.22823 0.0
C915 C 0.63909 0.94323 0.27671 0.0
C916 C 0.63099 0.97138 0.26129 0.0
C917 C 0.63034 0.98529 0.19729 0.0
H918 H 0.63957 0.93247 0.32626 0.0
H919 H 0.6391 0.06453 0.70439 0.0
H920 H 0.15335 0.27235 0.32327 0.0
H921 H 0.15353 0.27083 0.2027 0.0
H922 H 0.12024 0.24187 0.20298 0.0
H923 H 0.12014 0.24237 0.32404 0.0
H924 H 0.13218 0.20391 0.11493 0.0
H925 H 0.12638 0.32758 0.1626 0.0
H926 H 0.13046 0.38277 0.21432 0.0
H927 H 0.16233 0.37264 0.11764 0.0
H928 H 0.1585 0.31713 0.06602 0.0
H929 H 0.12135 0.2352 0.77346 0.0
H930 H 0.12115 0.23681 0.89403 0.0
H931 H 0.15445 0.26563 0.89393 0.0
H932 H 0.15459 0.26505 0.77286 0.0
H933 H 0.14249 0.3037 0.98188 0.0
H934 H 0.14827 0.1799 0.93437 0.0
H935 H 0.14413 0.12478 0.88263 0.0
H936 H 0.11223 0.13528 0.97902 0.0
H937 H 0.11611 0.19072 0.03067 0.0
C938 C 0.14603 0.26582 0.29786 0.0
C939 C 0.1367 0.25769 0.33379 0.0
C940 C 0.14612 0.26511 0.22855 0.0
C941 C 0.13683 0.25679 0.19301 0.0
C942 C 0.12752 0.24847 0.22881 0.0
C943 C 0.12746 0.24889 0.29826 0.0
C944 C 0.1369 0.25618 0.1188 0.0
C945 C 0.13428 0.22599 0.08596 0.0
C946 C 0.13991 0.28452 0.08032 0.0
C947 C 0.14219 0.31803 0.11093 0.0
C948 C 0.13429 0.33701 0.15272 0.0
C949 C 0.13655 0.36836 0.18197 0.0
C950 C 0.14666 0.38116 0.1694 0.0
C951 C 0.15451 0.36268 0.12739 0.0
C952 C 0.15229 0.33129 0.09808 0.0
C953 C 0.12868 0.2417 0.79891 0.0
C954 C 0.13802 0.24978 0.76303 0.0
C955 C 0.12857 0.24247 0.86822 0.0
C956 C 0.13786 0.25078 0.90381 0.0
C957 C 0.14718 0.25903 0.86806 0.0
C958 C 0.14726 0.25856 0.79861 0.0
C959 C 0.13777 0.25142 0.97803 0.0
C960 C 0.14039 0.28163 1.01087 0.0
C961 C 0.13475 0.2231 0.01651 0.0
C962 C 0.13244 0.18963 0.98591 0.0
C963 C 0.14034 0.17057 0.94419 0.0
C964 C 0.13805 0.13925 0.91493 0.0
C965 C 0.12792 0.12658 0.9274 0.0
C966 C 0.12007 0.14515 0.96934 0.0
C967 C 0.12232 0.1765 0.99868 0.0
H968 H 0.12616 0.10234 0.90468 0.0
H969 H 0.14839 0.40543 0.19211 0.0
H970 H 0.89965 0.25875 0.32133 0.0
H971 H 0.89962 0.25936 0.20046 0.0
H972 H 0.86499 0.24317 0.20061 0.0
H973 H 0.8651 0.24128 0.32132 0.0
H974 H 0.87501 0.20488 0.10828 0.0
H975 H 0.87463 0.32642 0.16912 0.0
H976 H 0.88144 0.37654 0.22555 0.0
H977 H 0.91266 0.35579 0.12269 0.0
H978 H 0.90609 0.30526 0.06626 0.0
H979 H 0.86411 0.24836 0.77077 0.0
H980 H 0.86413 0.24801 0.89164 0.0
H981 H 0.89878 0.26388 0.89143 0.0
H982 H 0.89869 0.26551 0.77067 0.0
H983 H 0.88874 0.30235 0.9838 0.0
H984 H 0.88905 0.18073 0.92292 0.0
H985 H 0.88218 0.13068 0.86661 0.0
H986 H 0.85098 0.15178 0.96966 0.0
H987 H 0.85763 0.20223 0.02598 0.0
C988 C 0.89203 0.25528 0.29571 0.0
C989 C 0.88237 0.25008 0.3314 0.0
C990 C 0.89199 0.25585 0.22632 0.0
C991 C 0.88224 0.25198 0.19073 0.0
C992 C 0.87264 0.24631 0.2264 0.0
C993 C 0.8727 0.2453 0.29571 0.0
C994 C 0.88201 0.25362 0.11658 0.0
C995 C 0.87788 0.22649 0.08124 0.0
C996 C 0.88597 0.28131 0.08049 0.0
C997 C 0.8899 0.31187 0.11393 0.0
C998 C 0.88297 0.33242 0.15884 0.0
C999 C 0.88678 0.36092 0.19079 0.0
C1000 C 0.89748 0.36929 0.17783 0.0
C1001 C 0.90438 0.34925 0.13274 0.0
C1002 C 0.90061 0.32071 0.10071 0.0
C1003 C 0.87173 0.25184 0.79638 0.0
C1004 C 0.88141 0.25686 0.76066 0.0
C1005 C 0.87176 0.25141 0.86577 0.0
C1006 C 0.88152 0.25524 0.90135 0.0
C1007 C 0.89113 0.26078 0.86564 0.0
C1008 C 0.89107 0.26165 0.79632 0.0
C1009 C 0.88174 0.25361 0.9755 0.0
C1010 C 0.88587 0.28075 1.01084 0.0
C1011 C 0.87777 0.22595 1.01159 0.0
C1012 C 0.8738 0.19544 0.97819 0.0
C1013 C 0.88071 0.17481 0.93327 0.0
C1014 C 0.87685 0.14636 0.90139 0.0
C1015 C 0.86614 0.13811 0.91443 0.0
C1016 C 0.85927 0.15822 0.95954 0.0
C1017 C 0.86308 0.18672 0.9915 0.0
H1018 H 0.86317 0.11608 0.88967 0.0
H1019 H 0.90043 0.39135 0.20264 0.0
H1020 H 0.15515 0.7599 0.27017 0.0
H1021 H 0.15531 0.75978 0.14926 0.0
H1022 H 0.12098 0.74055 0.14789 0.0
H1023 H 0.12079 0.74016 0.26874 0.0
H1024 H 0.13265 0.70048 0.05689 0.0
H1025 H 0.12861 0.82313 0.11608 0.0
H1026 H 0.1338 0.87559 0.17279 0.0
H1027 H 0.16539 0.863 0.07272 0.0
H1028 H 0.16044 0.81016 0.01607 0.0
H1029 H 0.12121 0.74027 0.71854 0.0
H1030 H 0.1212 0.73938 0.83939 0.0
H1031 H 0.15471 0.76654 0.84023 0.0
H1032 H 0.15462 0.7686 0.71946 0.0
H1033 H 0.14359 0.80221 0.93206 0.0
H1034 H 0.148 0.68017 0.87278 0.0
H1035 H 0.14327 0.62695 0.8166 0.0
H1036 H 0.11172 0.63705 0.91691 0.0
H1037 H 0.11619 0.69063 0.97303 0.0
C1038 C 0.14762 0.75558 0.2443 0.0
C1039 C 0.13794 0.75017 0.27967 0.0
C1040 C 0.14771 0.75567 0.17491 0.0
C1041 C 0.13811 0.7506 0.13895 0.0
C1042 C 0.1285 0.74459 0.17415 0.0
C1043 C 0.1284 0.74448 0.24351 0.0
C1044 C 0.13804 0.75172 0.06485 0.0
C1045 C 0.13491 0.72294 0.02966 0.0
C1046 C 0.14125 0.78056 0.02877 0.0
C1047 C 0.14419 0.81251 0.06232 0.0
C1048 C 0.13669 0.83142 0.10651 0.0
C1049 C 0.13959 0.86124 0.13859 0.0
C1050 C 0.14993 0.87257 0.12649 0.0
C1051 C 0.15739 0.85417 0.08211 0.0
C1052 C 0.15454 0.8243 0.04996 0.0
C1053 C 0.12859 0.74604 0.74437 0.0
C1054 C 0.13793 0.7544 0.70893 0.0
C1055 C 0.1286 0.74532 0.81375 0.0
C1056 C 0.13803 0.7523 0.84963 0.0
C1057 C 0.14732 0.76099 0.81421 0.0
C1058 C 0.14727 0.76208 0.74488 0.0
C1059 C 0.1382 0.75093 0.92383 0.0
C1060 C 0.14134 0.77969 0.95913 0.0
C1061 C 0.13507 0.72194 0.95999 0.0
C1062 C 0.13239 0.68961 0.92663 0.0
C1063 C 0.14002 0.67118 0.88252 0.0
C1064 C 0.13739 0.64093 0.85073 0.0
C1065 C 0.12719 0.62868 0.86305 0.0
C1066 C 0.11961 0.6466 0.90735 0.0
C1067 C 0.12219 0.67689 0.9392 0.0
H1068 H 0.12517 0.60526 0.83839 0.0
H1069 H 0.15216 0.89566 0.1514 0.0
H1070 H 0.86454 0.74152 0.70612 0.0
H1071 H 0.86452 0.74309 0.82699 0.0
H1072 H 0.89859 0.7649 0.82544 0.0
H1073 H 0.89866 0.76359 0.70425 0.0
H1074 H 0.89505 0.71419 0.91862 0.0
H1075 H 0.87839 0.82969 0.85815 0.0
H1076 H 0.86514 0.87362 0.80062 0.0
H1077 H 0.83778 0.83401 0.89863 0.0
H1078 H 0.85087 0.78946 0.95608 0.0
H1079 H 0.89785 0.76762 0.25497 0.0
H1080 H 0.8979 0.76683 0.13407 0.0
H1081 H 0.86374 0.74596 0.13443 0.0
H1082 H 0.86363 0.74653 0.25563 0.0
H1083 H 0.86738 0.79639 0.04175 0.0
H1084 H 0.88399 0.68079 0.1018 0.0
H1085 H 0.8972 0.63665 0.1591 0.0
H1086 H 0.92461 0.67628 0.06165 0.0
H1087 H 0.91156 0.72104 1.00446 0.0
C1088 C 0.87205 0.74661 0.7313 0.0
C1089 C 0.8816 0.75246 0.69504 0.0
C1090 C 0.87201 0.74763 0.80064 0.0
C1091 C 0.88153 0.75435 0.83572 0.0
C1092 C 0.89113 0.75967 0.79975 0.0
C1093 C 0.89114 0.75903 0.73029 0.0
C1094 C 0.88142 0.75588 0.90976 0.0
C1095 C 0.8891 0.73253 0.94546 0.0
C1096 C 0.8735 0.7792 0.94525 0.0
C1097 C 0.86561 0.80599 0.9109 0.0
C1098 C 0.86955 0.83013 0.86701 0.0
C1099 C 0.86207 0.85519 0.83449 0.0
C1100 C 0.85063 0.85654 0.84581 0.0
C1101 C 0.84665 0.83289 0.88983 0.0
C1102 C 0.85409 0.80775 0.92243 0.0
C1103 C 0.89032 0.76295 0.22952 0.0
C1104 C 0.88074 0.7571 0.26545 0.0
C1105 C 0.89038 0.76236 0.16015 0.0
C1106 C 0.88085 0.75606 0.12471 0.0
C1107 C 0.87121 0.75085 0.16038 0.0
C1108 C 0.87117 0.75108 0.22985 0.0
C1109 C 0.881 0.7547 0.05064 0.0
C1110 C 0.87333 0.77807 0.01493 0.0
C1111 C 0.88892 0.73139 0.01513 0.0
C1112 C 0.8968 0.70452 0.0494 0.0
C1113 C 0.89284 0.68031 0.09303 0.0
C1114 C 0.9003 0.65514 0.12541 0.0
C1115 C 0.91174 0.65373 0.11417 0.0
C1116 C 0.91575 0.67744 0.07039 0.0
C1117 C 0.90832 0.70271 0.03795 0.0
H1118 H 0.91751 0.63421 0.13926 0.0
H1119 H 0.84485 0.87597 0.82061 0.0
H1120 H 0.62177 0.72776 0.27484 0.0
H1121 H 0.62166 0.7286 0.39566 0.0
H1122 H 0.65424 0.76279 0.3955 0.0
H1123 H 0.65444 0.76186 0.27438 0.0
H1124 H 0.65287 0.71237 0.48878 0.0
H1125 H 0.63107 0.82067 0.42686 0.0
H1126 H 0.61605 0.85819 0.36906 0.0
H1127 H 0.59155 0.80497 0.46783 0.0
H1128 H 0.60644 0.76678 0.52558 0.0
H1129 H 0.65332 0.76841 0.82379 0.0
H1130 H 0.65336 0.76688 0.70303 0.0
H1131 H 0.62081 0.73252 0.70479 0.0
H1132 H 0.62067 0.73412 0.82591 0.0
H1133 H 0.62211 0.78268 0.61079 0.0
H1134 H 0.64383 0.67502 0.67413 0.0
H1135 H 0.65878 0.63791 0.733 0.0
H1136 H 0.68339 0.68944 0.63163 0.0
H1137 H 0.66856 0.72747 0.5731 0.0
C1138 C 0.62895 0.73537 0.3003 0.0
C1139 C 0.63811 0.74481 0.26441 0.0
C1140 C 0.62885 0.736 0.36967 0.0
C1141 C 0.63789 0.74615 0.40519 0.0
C1142 C 0.64714 0.75492 0.36955 0.0
C1143 C 0.64723 0.75445 0.30008 0.0
C1144 C 0.63765 0.74778 0.47929 0.0
C1145 C 0.64622 0.72815 0.51534 0.0
C1146 C 0.62885 0.76765 0.51454 0.0
C1147 C 0.61988 0.79062 0.48002 0.0
C1148 C 0.62248 0.81677 0.43585 0.0
C1149 C 0.61399 0.8382 0.40317 0.0
C1150 C 0.60285 0.8339 0.41462 0.0
C1151 C 0.60019 0.80823 0.45893 0.0
C1152 C 0.60865 0.78671 0.49169 0.0
C1153 C 0.64614 0.76057 0.79871 0.0
C1154 C 0.637 0.7513 0.83504 0.0
C1155 C 0.6462 0.75957 0.72938 0.0
C1156 C 0.63714 0.74923 0.69433 0.0
C1157 C 0.62792 0.74055 0.73039 0.0
C1158 C 0.62787 0.74138 0.79984 0.0
C1159 C 0.63734 0.74732 0.62027 0.0
C1160 C 0.62876 0.7669 0.58424 0.0
C1161 C 0.64612 0.72736 0.58505 0.0
C1162 C 0.65507 0.70435 0.6197 0.0
C1163 C 0.65243 0.67865 0.66476 0.0
C1164 C 0.66088 0.65741 0.69802 0.0
C1165 C 0.67203 0.66131 0.68612 0.0
C1166 C 0.67475 0.68646 0.64085 0.0
C1167 C 0.66632 0.70789 0.60762 0.0
H1168 H 0.67857 0.64481 0.71191 0.0
H1169 H 0.59629 0.85052 0.38928 0.0
H1170 H 0.39757 0.77582 0.82685 0.0
H1171 H 0.39744 0.7771 0.70594 0.0
H1172 H 0.36631 0.73348 0.70527 0.0
H1173 H 0.3665 0.73146 0.82602 0.0
H1174 H 0.37931 0.70297 0.6123 0.0
H1175 H 0.36809 0.82294 0.67547 0.0
H1176 H 0.36975 0.87866 0.73327 0.0
H1177 H 0.40044 0.88719 0.63115 0.0
H1178 H 0.39904 0.83124 0.5734 0.0
H1179 H 0.36507 0.73998 0.27596 0.0
H1180 H 0.3652 0.73928 0.39687 0.0
H1181 H 0.39658 0.78142 0.39654 0.0
H1182 H 0.39641 0.78275 0.27567 0.0
H1183 H 0.3835 0.81279 0.48995 0.0
H1184 H 0.39465 0.69267 0.42685 0.0
H1185 H 0.39294 0.63686 0.36948 0.0
H1186 H 0.36225 0.62872 0.47184 0.0
H1187 H 0.36369 0.68476 0.52917 0.0
C1188 C 0.39069 0.76643 0.80109 0.0
C1189 C 0.38202 0.75366 0.83663 0.0
C1190 C 0.3906 0.76736 0.73168 0.0
C1191 C 0.38177 0.7559 0.69586 0.0
C1192 C 0.37321 0.74259 0.73129 0.0
C1193 C 0.37332 0.74153 0.80064 0.0
C1194 C 0.38145 0.75768 0.62171 0.0
C1195 C 0.38007 0.72716 0.58572 0.0
C1196 C 0.38269 0.78894 0.58628 0.0
C1197 C 0.38351 0.82272 0.62059 0.0
C1198 C 0.37523 0.83657 0.66568 0.0
C1199 C 0.37612 0.86821 0.69839 0.0
C1200 C 0.38521 0.88641 0.68602 0.0
C1201 C 0.39341 0.87304 0.64075 0.0
C1202 C 0.39257 0.84138 0.60798 0.0
C1203 C 0.37199 0.74922 0.30147 0.0
C1204 C 0.38075 0.76132 0.2656 0.0
C1205 C 0.37209 0.74862 0.3709 0.0
C1206 C 0.38099 0.75981 0.40643 0.0
C1207 C 0.38962 0.77256 0.37071 0.0
C1208 C 0.38952 0.77323 0.30131 0.0
C1209 C 0.38133 0.7581 0.48058 0.0
C1210 C 0.38272 0.78862 0.51656 0.0
C1211 C 0.38009 0.72685 0.51603 0.0
C1212 C 0.37922 0.6931 0.48179 0.0
C1213 C 0.38749 0.67912 0.43675 0.0
C1214 C 0.38658 0.64742 0.4043 0.0
C1215 C 0.37748 0.62931 0.41687 0.0
C1216 C 0.36929 0.64281 0.46207 0.0
C1217 C 0.37015 0.67452 0.49459 0.0
H1218 H 0.37679 0.60477 0.3917 0.0
H1219 H 0.38588 0.9109 0.7114 0.0
H1220 H 0.65334 0.26999 0.20202 0.0
H1221 H 0.65341 0.26835 0.32279 0.0
H1222 H 0.62107 0.23247 0.32227 0.0
H1223 H 0.6209 0.23423 0.2012 0.0
H1224 H 0.62208 0.2823 0.41604 0.0
H1225 H 0.64457 0.1756 0.35293 0.0
H1226 H 0.65981 0.13923 0.29451 0.0
H1227 H 0.68385 0.19361 0.39393 0.0
H1228 H 0.66873 0.23069 0.45227 0.0
H1229 H 0.62197 0.22728 0.75222 0.0
H1230 H 0.62185 0.22827 0.6314 0.0
H1231 H 0.65429 0.26342 0.6305 0.0
H1232 H 0.65452 0.26226 0.75156 0.0
H1233 H 0.65318 0.21372 0.53733 0.0
H1234 H 0.63069 0.32059 0.60004 0.0
H1235 H 0.61544 0.35719 0.65798 0.0
H1236 H 0.5914 0.30259 0.55906 0.0
H1237 H 0.60653 0.2653 0.50119 0.0
C1238 C 0.64621 0.2618 0.22739 0.0
C1239 C 0.63712 0.25215 0.19141 0.0
C1240 C 0.64629 0.26071 0.29673 0.0
C1241 C 0.6373 0.24988 0.33213 0.0
C1242 C 0.62813 0.24085 0.29641 0.0
C1243 C 0.62806 0.24179 0.22697 0.0
C1244 C 0.63751 0.24792 0.4062 0.0
C1245 C 0.62881 0.26688 0.44244 0.0
C1246 C 0.64639 0.2285 0.44124 0.0
C1247 C 0.65551 0.20616 0.40647 0.0
C1248 C 0.6531 0.18 0.36195 0.0
C1249 C 0.66172 0.15923 0.32891 0.0
C1250 C 0.67279 0.16417 0.34038 0.0
C1251 C 0.67527 0.18985 0.38504 0.0
C1252 C 0.66668 0.21073 0.41814 0.0
C1253 C 0.62911 0.23513 0.72651 0.0
C1254 C 0.63824 0.24478 0.7621 0.0
C1255 C 0.629 0.23586 0.65714 0.0
C1256 C 0.638 0.24635 0.62131 0.0
C1257 C 0.64723 0.2553 0.65666 0.0
C1258 C 0.64733 0.25469 0.72611 0.0
C1259 C 0.63776 0.24811 0.54721 0.0
C1260 C 0.64645 0.22912 0.51094 0.0
C1261 C 0.62886 0.26751 0.51214 0.0
C1262 C 0.61975 0.2899 0.54681 0.0
C1263 C 0.62215 0.31618 0.59106 0.0
C1264 C 0.61353 0.33709 0.62381 0.0
C1265 C 0.60246 0.33216 0.61235 0.0
C1266 C 0.59998 0.30635 0.56797 0.0
C1267 C 0.60858 0.28533 0.53515 0.0
H1268 H 0.5958 0.34838 0.63774 0.0
H1269 H 0.67946 0.14806 0.31476 0.0
H1270 H 0.39749 0.27622 0.20124 0.0
H1271 H 0.39738 0.27735 0.32222 0.0
H1272 H 0.36587 0.23606 0.32392 0.0
H1273 H 0.36587 0.23516 0.20309 0.0
H1274 H 0.36555 0.28811 0.41191 0.0
H1275 H 0.3904 0.18395 0.36139 0.0
H1276 H 0.40655 0.14911 0.30839 0.0
H1277 H 0.42863 0.21189 0.40512 0.0
H1278 H 0.41259 0.24745 0.45804 0.0
H1279 H 0.3651 0.24018 0.75286 0.0
H1280 H 0.36524 0.23966 0.63193 0.0
H1281 H 0.39682 0.2805 0.63142 0.0
H1282 H 0.39681 0.28072 0.75232 0.0
H1283 H 0.39713 0.22889 0.54277 0.0
H1284 H 0.37217 0.33294 0.59368 0.0
H1285 H 0.35596 0.36746 0.64672 0.0
H1286 H 0.33402 0.3045 0.54925 0.0
H1287 H 0.35012 0.26927 0.49627 0.0
C1288 C 0.39054 0.26726 0.22723 0.0
C1289 C 0.38172 0.25544 0.19197 0.0
C1290 C 0.39051 0.26782 0.29666 0.0
C1291 C 0.38166 0.25645 0.33275 0.0
C1292 C 0.3728 0.24497 0.2976 0.0
C1293 C 0.37284 0.24434 0.22824 0.0
C1294 C 0.3816 0.2567 0.40692 0.0
C1295 C 0.3724 0.27475 0.44042 0.0
C1296 C 0.39062 0.23997 0.44471 0.0
C1297 C 0.40028 0.21859 0.41313 0.0
C1298 C 0.39869 0.19051 0.37095 0.0
C1299 C 0.40783 0.1706 0.34099 0.0
C1300 C 0.41861 0.17835 0.35323 0.0
C1301 C 0.42028 0.20596 0.39561 0.0
C1302 C 0.41116 0.22598 0.42564 0.0
C1303 C 0.37207 0.2492 0.72716 0.0
C1304 C 0.38092 0.26065 0.76279 0.0
C1305 C 0.37212 0.24899 0.65773 0.0
C1306 C 0.38099 0.26039 0.62197 0.0
C1307 C 0.38987 0.27159 0.65747 0.0
C1308 C 0.38982 0.27185 0.72686 0.0
C1309 C 0.38108 0.26032 0.54778 0.0
C1310 C 0.39028 0.24229 0.51427 0.0
C1311 C 0.37206 0.27703 0.50998 0.0
C1312 C 0.36236 0.29825 0.54154 0.0
C1313 C 0.3639 0.32628 0.58395 0.0
C1314 C 0.35473 0.34601 0.61393 0.0
C1315 C 0.34397 0.33812 0.6015 0.0
C1316 C 0.34236 0.31054 0.5589 0.0
C1317 C 0.3515 0.29071 0.52884 0.0
H1318 H 0.33688 0.35342 0.62477 0.0
H1319 H 0.42567 0.1629 0.33 0.0
H1320 H 0.0553 0.29008 0.43493 0.0
H1321 H 0.035 0.29284 0.42941 0.0
H1322 H 0.03653 0.19891 0.54848 0.0
H1323 H 0.05679 0.19579 0.55342 0.0
H1324 H 0.02213 0.19479 0.45498 0.0
H1325 H 0.02819 0.2843 0.61123 0.0
H1326 H 0.03563 0.3373 0.65178 0.0
H1327 H 0.01816 0.399 0.49839 0.0
H1328 H 0.01073 0.34623 0.45636 0.0
H1329 H 0.96518 0.21164 0.55785 0.0
H1330 H 0.98546 0.20809 0.55257 0.0
H1331 H 0.98262 0.29587 0.41762 0.0
H1332 H 0.96232 0.29916 0.42129 0.0
H1333 H 0.99753 0.30368 0.51557 0.0
H1334 H 0.99093 0.2128 0.36297 0.0
H1335 H 0.98333 0.15927 0.32672 0.0
H1336 H 1.00172 0.09948 0.47917 0.0
H1337 H 1.00932 0.15278 0.51693 0.0
C1338 C 0.05132 0.27007 0.46014 0.0
C1339 C 0.05774 0.2427 0.49458 0.0
C1340 C 0.03967 0.2717 0.45706 0.0
C1341 C 0.03412 0.24634 0.48927 0.0
C1342 C 0.04054 0.21879 0.52299 0.0
C1343 C 0.05217 0.21698 0.52562 0.0
C1344 C 0.02165 0.24839 0.48808 0.0
C1345 C 0.01679 0.21853 0.46903 0.0
C1346 C 0.01455 0.27948 0.50507 0.0
C1347 C 0.019 0.31124 0.53023 0.0
C1348 C 0.02601 0.30911 0.58583 0.0
C1349 C 0.03021 0.33912 0.60913 0.0
C1350 C 0.02739 0.37147 0.57756 0.0
C1351 C 0.02034 0.3739 0.52272 0.0
C1352 C 0.01613 0.34396 0.49916 0.0
C1353 C 0.96882 0.22983 0.52594 0.0
C1354 C 0.96199 0.25566 0.48988 0.0
C1355 C 0.98047 0.22785 0.52326 0.0
C1356 C 0.98564 0.2516 0.48443 0.0
C1357 C 0.97887 0.27731 0.44819 0.0
C1358 C 0.96722 0.27921 0.45055 0.0
C1359 C 0.99806 0.25008 0.48276 0.0
C1360 C 1.00291 0.28002 0.50132 0.0
C1361 C 1.00514 0.21898 0.46593 0.0
C1362 C 1.00061 0.18686 0.44315 0.0
C1363 C 0.99329 0.1883 0.38909 0.0
C1364 C 0.98899 0.15798 0.36821 0.0
C1365 C 0.99202 0.12601 0.40072 0.0
C1366 C 0.99937 0.12427 0.45408 0.0
C1367 C 1.00369 0.15452 0.4752 0.0
H1368 H 0.98868 0.10257 0.38448 0.0
H1369 H 0.03065 0.39468 0.59568 0.0
H1370 H 0.96212 0.77754 0.62014 0.0
H1371 H 0.98244 0.77391 0.62216 0.0
H1372 H 0.98441 0.71634 0.43864 0.0
H1373 H 0.96411 0.71991 0.43618 0.0
H1374 H 1.00028 0.68808 0.52018 0.0
H1375 H 0.98742 0.80485 0.4447 0.0
H1376 H 0.97644 0.86362 0.4492 0.0
H1377 H 0.99222 0.88508 0.63193 0.0
H1378 H 1.00319 0.8262 0.62899 0.0
H1379 H 0.05604 0.7121 0.43306 0.0
H1380 H 0.03584 0.71207 0.4363 0.0
H1381 H 0.03422 0.76858 0.62093 0.0
H1382 H 0.05442 0.7685 0.61834 0.0
H1383 H 0.0182 0.79703 0.53986 0.0
H1384 H 0.03134 0.68004 0.61363 0.0
H1385 H 0.04237 0.6214 0.60743 0.0
H1386 H 0.02615 0.60057 0.42584 0.0
H1387 H 0.01512 0.6593 0.43049 0.0
C1388 C 0.96686 0.76418 0.58004 0.0
C1389 C 0.9614 0.74913 0.52788 0.0
C1390 C 0.97851 0.76212 0.58126 0.0
C1391 C 0.98502 0.74527 0.53005 0.0
C1392 C 0.97962 0.72946 0.47881 0.0
C1393 C 0.96797 0.73142 0.47764 0.0
C1394 C 0.99742 0.74451 0.52932 0.0
C1395 C 1.00418 0.71198 0.52369 0.0
C1396 C 1.0026 0.77554 0.53515 0.0
C1397 C 0.99604 0.81098 0.53697 0.0
C1398 C 0.98848 0.822 0.48611 0.0
C1399 C 0.98227 0.85534 0.48833 0.0
C1400 C 0.98361 0.87803 0.54091 0.0
C1401 C 0.99118 0.86745 0.59129 0.0
C1402 C 0.9974 0.83411 0.58935 0.0
C1403 C 0.05143 0.7241 0.47491 0.0
C1404 C 0.05694 0.74027 0.52548 0.0
C1405 C 0.03984 0.72413 0.47662 0.0
C1406 C 0.03345 0.74008 0.52916 0.0
C1407 C 0.03892 0.75619 0.57971 0.0
C1408 C 0.0505 0.7562 0.57803 0.0
C1409 C 0.02107 0.7406 0.53088 0.0
C1410 C 0.0143 0.77312 0.53655 0.0
C1411 C 0.01589 0.70958 0.52487 0.0
C1412 C 0.02248 0.6742 0.52209 0.0
C1413 C 0.03018 0.66306 0.57212 0.0
C1414 C 0.03642 0.62979 0.56892 0.0
C1415 C 0.03498 0.60731 0.51619 0.0
C1416 C 0.02727 0.61802 0.46662 0.0
C1417 C 0.02101 0.65129 0.46953 0.0
H1418 H 0.03982 0.58156 0.51381 0.0
H1419 H 0.97879 0.90384 0.54253 0.0
H1420 H 0.55405 0.8047 0.98954 0.0
H1421 H 0.53376 0.80707 0.98671 0.0
H1422 H 0.53685 0.69417 1.00598 0.0
H1423 H 0.55711 0.69157 1.00962 0.0
H1424 H 0.52135 0.71631 0.91571 0.0
H1425 H 0.52945 0.7485 0.13791 0.0
H1426 H 0.53749 0.78269 0.22459 0.0
H1427 H 0.5182 0.87735 0.15496 0.0
H1428 H 0.51014 0.84377 0.06723 0.0
H1429 H 0.46517 0.70079 1.00466 0.0
H1430 H 0.48542 0.69894 1.00171 0.0
H1431 H 0.48191 0.81222 0.99078 0.0
H1432 H 0.46168 0.81438 0.99673 0.0
H1433 H 0.49766 0.79031 0.07545 0.0
H1434 H 0.48937 0.75801 0.85382 0.0
H1435 H 0.48132 0.72373 0.76729 0.0
H1436 H 0.50095 0.62937 0.8356 0.0
H1437 H 0.50901 0.66303 0.92313 0.0
C1438 C 0.55044 0.78034 0.99354 0.0
C1439 C 0.55731 0.74794 0.99992 0.0
C1440 C 0.5388 0.78174 0.99183 0.0
C1441 C 0.53371 0.75083 0.99686 0.0
C1442 C 0.54054 0.71842 1.00185 0.0
C1443 C 0.55216 0.71698 1.00359 0.0
C1444 C 0.52129 0.7522 0.99755 0.0
C1445 C 0.51619 0.73219 0.95117 0.0
C1446 C 0.51447 0.77345 0.0428 0.0
C1447 C 0.51928 0.79368 0.09557 0.0
C1448 C 0.52699 0.77665 0.14075 0.0
C1449 C 0.53154 0.79591 0.19012 0.0
C1450 C 0.52838 0.83219 0.19516 0.0
C1451 C 0.52065 0.84926 0.15092 0.0
C1452 C 0.51608 0.83013 0.10139 0.0
C1453 C 0.46868 0.72537 1.00194 0.0
C1454 C 0.46169 0.75774 1.0007 0.0
C1455 C 0.48031 0.72425 0.99953 0.0
C1456 C 0.48528 0.75543 0.99517 0.0
C1457 C 0.47833 0.78775 0.99387 0.0
C1458 C 0.46671 0.7889 0.99651 0.0
C1459 C 0.49769 0.75448 0.99348 0.0
C1460 C 0.50281 0.77452 0.03979 0.0
C1461 C 0.50452 0.73327 0.94813 0.0
C1462 C 0.49971 0.713 0.89542 0.0
C1463 C 0.49191 0.72991 0.85069 0.0
C1464 C 0.48735 0.7106 0.80141 0.0
C1465 C 0.4906 0.67438 0.79605 0.0
C1466 C 0.49843 0.65742 0.83986 0.0
C1467 C 0.503 0.67661 0.88928 0.0
H1468 H 0.48706 0.65948 0.75787 0.0
H1469 H 0.53191 0.84705 0.23344 0.0
H1470 H 0.4616 0.31489 0.02899 0.0
H1471 H 0.4818 0.31306 0.03381 0.0
H1472 H 0.48548 0.19964 0.03119 0.0
H1473 H 0.46522 0.2012 0.02938 0.0
H1474 H 0.49985 0.2208 0.11537 0.0
H1475 H 0.48991 0.24934 0.89098 0.0
H1476 H 0.47979 0.28276 0.80075 0.0
H1477 H 0.49311 0.37627 0.86145 0.0
H1478 H 0.5032 0.34349 0.95265 0.0
H1479 H 0.5571 0.19237 0.02144 0.0
H1480 H 0.53686 0.19504 0.02637 0.0
H1481 H 0.53375 0.30821 0.03796 0.0
H1482 H 0.55404 0.30578 0.03392 0.0
H1483 H 0.51913 0.28768 0.95048 0.0
H1484 H 0.52944 0.25774 0.17423 0.0
H1485 H 0.53972 0.22317 0.26253 0.0
H1486 H 0.52584 0.13087 0.20048 0.0
H1487 H 0.51559 0.1648 0.11119 0.0
C1488 C 0.46665 0.28946 0.03056 0.0
C1489 C 0.46167 0.25818 0.02868 0.0
C1490 C 0.47827 0.28848 0.03242 0.0
C1491 C 0.48526 0.25621 0.03168 0.0
C1492 C 0.48032 0.22492 0.03139 0.0
C1493 C 0.46869 0.22587 0.02978 0.0
C1494 C 0.49769 0.25511 0.03076 0.0
C1495 C 0.50405 0.23509 0.07874 0.0
C1496 C 0.50326 0.27427 0.98391 0.0
C1497 C 0.49722 0.29404 0.92905 0.0
C1498 C 0.49061 0.27709 0.8854 0.0
C1499 C 0.48489 0.29591 0.83403 0.0
C1500 C 0.48578 0.33164 0.82548 0.0
C1501 C 0.49242 0.3486 0.8682 0.0
C1502 C 0.49815 0.32991 0.91971 0.0
C1503 C 0.55216 0.21787 0.02624 0.0
C1504 C 0.55731 0.24885 0.02771 0.0
C1505 C 0.54053 0.21935 0.0288 0.0
C1506 C 0.5337 0.25181 0.03321 0.0
C1507 C 0.53879 0.2828 0.0345 0.0
C1508 C 0.55044 0.28136 0.03201 0.0
C1509 C 0.52128 0.25342 0.03511 0.0
C1510 C 0.51491 0.27349 0.98722 0.0
C1511 C 0.51572 0.23416 0.0818 0.0
C1512 C 0.52183 0.21374 0.13565 0.0
C1513 C 0.52864 0.23001 0.17911 0.0
C1514 C 0.53445 0.21054 0.22939 0.0
C1515 C 0.53345 0.17483 0.23701 0.0
C1516 C 0.52662 0.15853 0.19447 0.0
C1517 C 0.5208 0.17787 0.14406 0.0
H1518 H 0.53796 0.1598 0.27597 0.0
H1519 H 0.48135 0.34616 0.78567 0.0
loop_
_geom_bond_atom_site_label_1
_geom_bond_atom_site_label_2
_geom_bond_distance
_geom_bond_site_symmetry_2
_ccdc_geom_bond_type
Gd0 C3 2.818 . S
Gd0 O20 2.377 . S
Gd0 O22 2.448 . S
Gd0 O23 2.506 . S
Gd0 O24 2.435 . S
Gd0 O25 2.717 . S
Gd0 O27 2.395 . S
Gd0 O31 2.327 . S
Gd1 C12 2.818 . S
Gd1 O21 2.395 . S
Gd1 O25 2.327 . S
Gd1 O26 2.377 . S
Gd1 O28 2.448 . S
Gd1 O29 2.506 . S
Gd1 O30 2.435 . S
Gd1 O31 2.717 . S
C2 O20 1.240 . S
C2 O21 1.240 . S
C3 Gd0 2.818 . S
C3 C4 1.510 . S
C3 O22 1.249 . S
C3 O23 1.252 . S
C4 C3 1.510 . S
C4 C5 1.404 . S
C4 C6 1.352 . S
C5 C4 1.404 . S
C5 C9 1.389 . S
C5 H32 0.930 . S
C6 C4 1.352 . S
C6 C8 1.374 . S
C6 H33 0.931 . S
C7 C8 1.359 . S
C7 C9 1.364 . S
C8 C6 1.374 . S
C8 C7 1.359 . S
C8 H34 0.931 . S
C9 C5 1.389 . S
C9 C7 1.364 . S
C9 H35 0.931 . S
C10 O24 1.256 . S
C10 O25 1.257 . S
C11 O26 1.240 . S
C11 O27 1.240 . S
C12 Gd1 2.818 . S
C12 C13 1.510 . S
C12 O28 1.249 . S
C12 O29 1.252 . S
C13 C12 1.510 . S
C13 C14 1.404 . S
C13 C15 1.352 . S
C14 C13 1.404 . S
C14 C18 1.389 . S
C14 H36 0.930 . S
C15 C13 1.352 . S
C15 C17 1.374 . S
C15 H37 0.931 . S
C16 C17 1.359 . S
C16 C18 1.364 . S
C17 C15 1.374 . S
C17 C16 1.359 . S
C17 H38 0.931 . S
C18 C14 1.389 . S
C18 C16 1.364 . S
C18 H39 0.931 . S
C19 O30 1.256 . S
C19 O31 1.257 . S
O20 Gd0 2.377 . S
O20 C2 1.240 . S
O21 Gd1 2.395 . S
O21 C2 1.240 . S
O22 Gd0 2.448 . S
O22 C3 1.249 . S
O23 Gd0 2.506 . S
O23 C3 1.252 . S
O24 Gd0 2.435 . S
O24 C10 1.256 . S
O25 Gd0 2.717 . S
O25 Gd1 2.327 . S
O25 C10 1.257 . S
O26 Gd1 2.377 . S
O26 C11 1.240 . S
O27 Gd0 2.395 . S
O27 C11 1.240 . S
O28 Gd1 2.448 . S
O28 C12 1.249 . S
O29 Gd1 2.506 . S
O29 C12 1.252 . S
O30 Gd1 2.435 . S
O30 C19 1.256 . S
O31 Gd0 2.327 . S
O31 Gd1 2.717 . S
O31 C19 1.257 . S
H32 C5 0.930 . S
H33 C6 0.931 . S
H34 C8 0.931 . S
H35 C9 0.931 . S
H36 C14 0.930 . S
H37 C15 0.931 . S
H38 C17 0.931 . S
H39 C18 0.931 . S
Gd40 C43 2.818 . S
Gd40 O60 2.377 . S
Gd40 O62 2.448 . S
Gd40 O63 2.506 . S
Gd40 O64 2.435 . S
Gd40 O65 2.717 . S
Gd40 O67 2.395 . S
Gd40 O71 2.327 . S
Gd41 C52 2.818 . S
Gd41 O61 2.395 . S
Gd41 O65 2.327 . S
Gd41 O66 2.377 . S
Gd41 O68 2.448 . S
Gd41 O69 2.506 . S
Gd41 O70 2.435 . S
Gd41 O71 2.717 . S
C42 O60 1.240 . S
C42 O61 1.240 . S
C43 Gd40 2.818 . S
C43 C44 1.510 . S
C43 O62 1.249 . S
C43 O63 1.252 . S
C44 C43 1.510 . S
C44 C45 1.404 . S
C44 C46 1.352 . S
C45 C44 1.404 . S
C45 C49 1.389 . S
C45 H72 0.930 . S
C46 C44 1.352 . S
C46 C48 1.374 . S
C46 H73 0.931 . S
C47 C48 1.359 . S
C47 C49 1.364 . S
C48 C46 1.374 . S
C48 C47 1.359 . S
C48 H74 0.931 . S
C49 C45 1.389 . S
C49 C47 1.364 . S
C49 H75 0.931 . S
C50 O64 1.256 . S
C50 O65 1.257 . S
C51 O66 1.240 . S
C51 O67 1.240 . S
C52 Gd41 2.818 . S
C52 C53 1.510 . S
C52 O68 1.249 . S
C52 O69 1.252 . S
C53 C52 1.510 . S
C53 C54 1.404 . S
C53 C55 1.352 . S
C54 C53 1.404 . S
C54 C58 1.389 . S
C54 H76 0.930 . S
C55 C53 1.352 . S
C55 C57 1.374 . S
C55 H77 0.931 . S
C56 C57 1.359 . S
C56 C58 1.364 . S
C57 C55 1.374 . S
C57 C56 1.359 . S
C57 H78 0.931 . S
C58 C54 1.389 . S
C58 C56 1.364 . S
C58 H79 0.931 . S
C59 O70 1.256 . S
C59 O71 1.257 . S
O60 Gd40 2.377 . S
O60 C42 1.240 . S
O61 Gd41 2.395 . S
O61 C42 1.240 . S
O62 Gd40 2.448 . S
O62 C43 1.249 . S
O63 Gd40 2.506 . S
O63 C43 1.252 . S
O64 Gd40 2.435 . S
O64 C50 1.256 . S
O65 Gd40 2.717 . S
O65 Gd41 2.327 . S
O65 C50 1.257 . S
O66 Gd41 2.377 . S
O66 C51 1.240 . S
O67 Gd40 2.395 . S
O67 C51 1.240 . S
O68 Gd41 2.448 . S
O68 C52 1.249 . S
O69 Gd41 2.506 . S
O69 C52 1.252 . S
O70 Gd41 2.435 . S
O70 C59 1.256 . S
O71 Gd40 2.327 . S
O71 Gd41 2.717 . S
O71 C59 1.257 . S
H72 C45 0.930 . S
H73 C46 0.931 . S
H74 C48 0.931 . S
H75 C49 0.931 . S
H76 C54 0.930 . S
H77 C55 0.931 . S
H78 C57 0.931 . S
H79 C58 0.931 . S
Gd80 C83 2.818 . S
Gd80 O100 2.377 . S
Gd80 O102 2.448 . S
Gd80 O103 2.506 . S
Gd80 O104 2.435 . S
Gd80 O105 2.717 . S
Gd80 O107 2.395 . S
Gd80 O111 2.327 . S
Gd81 C92 2.818 . S
Gd81 O101 2.395 . S
Gd81 O105 2.327 . S
Gd81 O106 2.377 . S
Gd81 O108 2.448 . S
Gd81 O109 2.506 . S
Gd81 O110 2.435 . S
Gd81 O111 2.717 . S
C82 O100 1.240 . S
C82 O101 1.240 . S
C83 Gd80 2.818 . S
C83 C84 1.510 . S
C83 O102 1.249 . S
C83 O103 1.252 . S
C84 C83 1.510 . S
C84 C85 1.404 . S
C84 C86 1.352 . S
C85 C84 1.404 . S
C85 C89 1.389 . S
C85 H112 0.930 . S
C86 C84 1.352 . S
C86 C88 1.374 . S
C86 H113 0.931 . S
C87 C88 1.359 . S
C87 C89 1.364 . S
C88 C86 1.374 . S
C88 C87 1.359 . S
C88 H114 0.931 . S
C89 C85 1.389 . S
C89 C87 1.364 . S
C89 H115 0.931 . S
C90 O104 1.256 . S
C90 O105 1.257 . S
C91 O106 1.240 . S
C91 O107 1.240 . S
C92 Gd81 2.818 . S
C92 C93 1.510 . S
C92 O108 1.249 . S
C92 O109 1.252 . S
C93 C92 1.510 . S
C93 C94 1.404 . S
C93 C95 1.352 . S
C94 C93 1.404 . S
C94 C98 1.389 . S
C94 H116 0.930 . S
C95 C93 1.352 . S
C95 C97 1.374 . S
C95 H117 0.931 . S
C96 C97 1.359 . S
C96 C98 1.364 . S
C97 C95 1.374 . S
C97 C96 1.359 . S
C97 H118 0.931 . S
C98 C94 1.389 . S
C98 C96 1.364 . S
C98 H119 0.931 . S
C99 O110 1.256 . S
C99 O111 1.257 . S
O100 Gd80 2.377 . S
O100 C82 1.240 . S
O101 Gd81 2.395 . S
O101 C82 1.240 . S
O102 Gd80 2.448 . S
O102 C83 1.249 . S
O103 Gd80 2.506 . S
O103 C83 1.252 . S
O104 Gd80 2.435 . S
O104 C90 1.256 . S
O105 Gd80 2.717 . S
O105 Gd81 2.327 . S
O105 C90 1.257 . S
O106 Gd81 2.377 . S
O106 C91 1.240 . S
O107 Gd80 2.395 . S
O107 C91 1.240 . S
O108 Gd81 2.448 . S
O108 C92 1.249 . S
O109 Gd81 2.506 . S
O109 C92 1.252 . S
O110 Gd81 2.435 . S
O110 C99 1.256 . S
O111 Gd80 2.327 . S
O111 Gd81 2.717 . S
O111 C99 1.257 . S
H112 C85 0.930 . S
H113 C86 0.931 . S
H114 C88 0.931 . S
H115 C89 0.931 . S
H116 C94 0.930 . S
H117 C95 0.931 . S
H118 C97 0.931 . S
H119 C98 0.931 . S
Gd120 C123 2.818 . S
Gd120 O140 2.377 . S
Gd120 O142 2.448 . S
Gd120 O143 2.506 . S
Gd120 O144 2.435 . S
Gd120 O145 2.717 . S
Gd120 O147 2.395 . S
Gd120 O151 2.327 . S
Gd121 C132 2.818 . S
Gd121 O141 2.395 . S
Gd121 O145 2.327 . S
Gd121 O146 2.377 . S
Gd121 O148 2.448 . S
Gd121 O149 2.506 . S
Gd121 O150 2.435 . S
Gd121 O151 2.717 . S
C122 O140 1.240 . S
C122 O141 1.240 . S
C123 Gd120 2.818 . S
C123 C124 1.510 . S
C123 O142 1.249 . S
C123 O143 1.252 . S
C124 C123 1.510 . S
C124 C125 1.404 . S
C124 C126 1.352 . S
C125 C124 1.404 . S
C125 C129 1.389 . S
C125 H152 0.930 . S
C126 C124 1.352 . S
C126 C128 1.374 . S
C126 H153 0.931 . S
C127 C128 1.359 . S
C127 C129 1.364 . S
C128 C126 1.374 . S
C128 C127 1.359 . S
C128 H154 0.931 . S
C129 C125 1.389 . S
C129 C127 1.364 . S
C129 H155 0.931 . S
C130 O144 1.256 . S
C130 O145 1.257 . S
C131 O146 1.240 . S
C131 O147 1.240 . S
C132 Gd121 2.818 . S
C132 C133 1.510 . S
C132 O148 1.249 . S
C132 O149 1.252 . S
C133 C132 1.510 . S
C133 C134 1.404 . S
C133 C135 1.352 . S
C134 C133 1.404 . S
C134 C138 1.389 . S
C134 H156 0.930 . S
C135 C133 1.352 . S
C135 C137 1.374 . S
C135 H157 0.931 . S
C136 C137 1.359 . S
C136 C138 1.364 . S
C137 C135 1.374 . S
C137 C136 1.359 . S
C137 H158 0.931 . S
C138 C134 1.389 . S
C138 C136 1.364 . S
C138 H159 0.931 . S
C139 O150 1.256 . S
C139 O151 1.257 . S
O140 Gd120 2.377 . S
O140 C122 1.240 . S
O141 Gd121 2.395 . S
O141 C122 1.240 . S
O142 Gd120 2.448 . S
O142 C123 1.249 . S
O143 Gd120 2.506 . S
O143 C123 1.252 . S
O144 Gd120 2.435 . S
O144 C130 1.256 . S
O145 Gd120 2.717 . S
O145 Gd121 2.327 . S
O145 C130 1.257 . S
O146 Gd121 2.377 . S
O146 C131 1.240 . S
O147 Gd120 2.395 . S
O147 C131 1.240 . S
O148 Gd121 2.448 . S
O148 C132 1.249 . S
O149 Gd121 2.506 . S
O149 C132 1.252 . S
O150 Gd121 2.435 . S
O150 C139 1.256 . S
O151 Gd120 2.327 . S
O151 Gd121 2.717 . S
O151 C139 1.257 . S
H152 C125 0.930 . S
H153 C126 0.931 . S
H154 C128 0.931 . S
H155 C129 0.931 . S
H156 C134 0.930 . S
H157 C135 0.931 . S
H158 C137 0.931 . S
H159 C138 0.931 . S
Gd160 C163 2.818 1_556 S
Gd160 O180 2.377 1_556 S
Gd160 O182 2.448 1_556 S
Gd160 O183 2.506 1_556 S
Gd160 O184 2.435 . S
Gd160 O185 2.717 . S
Gd160 O187 2.395 . S
Gd160 O191 2.327 1_556 S
Gd161 C172 2.818 1_554 S
Gd161 O181 2.395 . S
Gd161 O185 2.327 1_554 S
Gd161 O186 2.377 1_554 S
Gd161 O188 2.448 1_554 S
Gd161 O189 2.506 1_554 S
Gd161 O190 2.435 . S
Gd161 O191 2.717 . S
C162 O180 1.240 . S
C162 O181 1.240 . S
C163 Gd160 2.818 1_554 S
C163 C164 1.510 . S
C163 O182 1.249 . S
C163 O183 1.252 . S
C164 C163 1.510 . S
C164 C165 1.404 . S
C164 C166 1.352 . S
C165 C164 1.404 . S
C165 C169 1.389 . S
C165 H192 0.930 . S
C166 C164 1.352 . S
C166 C168 1.374 . S
C166 H193 0.931 . S
C167 C168 1.359 . S
C167 C169 1.364 . S
C168 C166 1.374 . S
C168 C167 1.359 . S
C168 H194 0.931 . S
C169 C165 1.389 . S
C169 C167 1.364 . S
C169 H195 0.931 . S
C170 O184 1.256 . S
C170 O185 1.257 . S
C171 O186 1.240 . S
C171 O187 1.240 . S
C172 Gd161 2.818 1_556 S
C172 C173 1.510 . S
C172 O188 1.249 . S
C172 O189 1.252 . S
C173 C172 1.510 . S
C173 C174 1.404 . S
C173 C175 1.352 . S
C174 C173 1.404 . S
C174 C178 1.389 . S
C174 H196 0.930 . S
C175 C173 1.352 . S
C175 C177 1.374 . S
C175 H197 0.931 . S
C176 C177 1.359 . S
C176 C178 1.364 . S
C177 C175 1.374 . S
C177 C176 1.359 . S
C177 H198 0.931 . S
C178 C174 1.389 . S
C178 C176 1.364 . S
C178 H199 0.931 . S
C179 O190 1.256 . S
C179 O191 1.257 . S
O180 Gd160 2.377 1_554 S
O180 C162 1.240 . S
O181 Gd161 2.395 . S
O181 C162 1.240 . S
O182 Gd160 2.448 1_554 S
O182 C163 1.249 . S
O183 Gd160 2.506 1_554 S
O183 C163 1.252 . S
O184 Gd160 2.435 . S
O184 C170 1.256 . S
O185 Gd160 2.717 . S
O185 Gd161 2.327 1_556 S
O185 C170 1.257 . S
O186 Gd161 2.377 1_556 S
O186 C171 1.240 . S
O187 Gd160 2.395 . S
O187 C171 1.240 . S
O188 Gd161 2.448 1_556 S
O188 C172 1.249 . S
O189 Gd161 2.506 1_556 S
O189 C172 1.252 . S
O190 Gd161 2.435 . S
O190 C179 1.256 . S
O191 Gd160 2.327 1_554 S
O191 Gd161 2.717 . S
O191 C179 1.257 . S
H192 C165 0.930 . S
H193 C166 0.931 . S
H194 C168 0.931 . S
H195 C169 0.931 . S
H196 C174 0.930 . S
H197 C175 0.931 . S
H198 C177 0.931 . S
H199 C178 0.931 . S
Gd200 C203 2.818 1_556 S
Gd200 O220 2.377 1_556 S
Gd200 O222 2.448 1_556 S
Gd200 O223 2.506 1_556 S
Gd200 O224 2.435 . S
Gd200 O225 2.717 . S
Gd200 O227 2.395 . S
Gd200 O231 2.327 1_556 S
Gd201 C212 2.818 1_554 S
Gd201 O221 2.395 . S
Gd201 O225 2.327 1_554 S
Gd201 O226 2.377 1_554 S
Gd201 O228 2.448 1_554 S
Gd201 O229 2.506 1_554 S
Gd201 O230 2.435 . S
Gd201 O231 2.717 . S
C202 O220 1.240 . S
C202 O221 1.240 . S
C203 Gd200 2.818 1_554 S
C203 C204 1.510 . S
C203 O222 1.249 . S
C203 O223 1.252 . S
C204 C203 1.510 . S
C204 C205 1.404 . S
C204 C206 1.352 . S
C205 C204 1.404 . S
C205 C209 1.389 . S
C205 H232 0.930 . S
C206 C204 1.352 . S
C206 C208 1.374 . S
C206 H233 0.931 . S
C207 C208 1.359 . S
C207 C209 1.364 . S
C208 C206 1.374 . S
C208 C207 1.359 . S
C208 H234 0.931 . S
C209 C205 1.389 . S
C209 C207 1.364 . S
C209 H235 0.931 . S
C210 O224 1.256 . S
C210 O225 1.257 . S
C211 O226 1.240 . S
C211 O227 1.240 . S
C212 Gd201 2.818 1_556 S
C212 C213 1.510 . S
C212 O228 1.249 . S
C212 O229 1.252 . S
C213 C212 1.510 . S
C213 C214 1.404 . S
C213 C215 1.352 . S
C214 C213 1.404 . S
C214 C218 1.389 . S
C214 H236 0.930 . S
C215 C213 1.352 . S
C215 C217 1.374 . S
C215 H237 0.931 . S
C216 C217 1.359 . S
C216 C218 1.364 . S
C217 C215 1.374 . S
C217 C216 1.359 . S
C217 H238 0.931 . S
C218 C214 1.389 . S
C218 C216 1.364 . S
C218 H239 0.931 . S
C219 O230 1.256 . S
C219 O231 1.257 . S
O220 Gd200 2.377 1_554 S
O220 C202 1.240 . S
O221 Gd201 2.395 . S
O221 C202 1.240 . S
O222 Gd200 2.448 1_554 S
O222 C203 1.249 . S
O223 Gd200 2.506 1_554 S
O223 C203 1.252 . S
O224 Gd200 2.435 . S
O224 C210 1.256 . S
O225 Gd200 2.717 . S
O225 Gd201 2.327 1_556 S
O225 C210 1.257 . S
O226 Gd201 2.377 1_556 S
O226 C211 1.240 . S
O227 Gd200 2.395 . S
O227 C211 1.240 . S
O228 Gd201 2.448 1_556 S
O228 C212 1.249 . S
O229 Gd201 2.506 1_556 S
O229 C212 1.252 . S
O230 Gd201 2.435 . S
O230 C219 1.256 . S
O231 Gd200 2.327 1_554 S
O231 Gd201 2.717 . S
O231 C219 1.257 . S
H232 C205 0.930 . S
H233 C206 0.931 . S
H234 C208 0.931 . S
H235 C209 0.931 . S
H236 C214 0.930 . S
H237 C215 0.931 . S
H238 C217 0.931 . S
H239 C218 0.931 . S
Gd240 C243 2.818 1_556 S
Gd240 O260 2.377 1_556 S
Gd240 O262 2.448 1_556 S
Gd240 O263 2.506 1_556 S
Gd240 O264 2.435 . S
Gd240 O265 2.717 . S
Gd240 O267 2.395 . S
Gd240 O271 2.327 1_556 S
Gd241 C252 2.818 1_554 S
Gd241 O261 2.395 . S
Gd241 O265 2.327 1_554 S
Gd241 O266 2.377 1_554 S
Gd241 O268 2.448 1_554 S
Gd241 O269 2.506 1_554 S
Gd241 O270 2.435 . S
Gd241 O271 2.717 . S
C242 O260 1.240 . S
C242 O261 1.240 . S
C243 Gd240 2.818 1_554 S
C243 C244 1.510 . S
C243 O262 1.249 . S
C243 O263 1.252 . S
C244 C243 1.510 . S
C244 C245 1.404 . S
C244 C246 1.352 . S
C245 C244 1.404 . S
C245 C249 1.389 . S
C245 H272 0.930 . S
C246 C244 1.352 . S
C246 C248 1.374 . S
C246 H273 0.931 . S
C247 C248 1.359 . S
C247 C249 1.364 . S
C248 C246 1.374 . S
C248 C247 1.359 . S
C248 H274 0.931 . S
C249 C245 1.389 . S
C249 C247 1.364 . S
C249 H275 0.931 . S
C250 O264 1.256 . S
C250 O265 1.257 . S
C251 O266 1.240 . S
C251 O267 1.240 . S
C252 Gd241 2.818 1_556 S
C252 C253 1.510 . S
C252 O268 1.249 . S
C252 O269 1.252 . S
C253 C252 1.510 . S
C253 C254 1.404 . S
C253 C255 1.352 . S
C254 C253 1.404 . S
C254 C258 1.389 . S
C254 H276 0.930 . S
C255 C253 1.352 . S
C255 C257 1.374 . S
C255 H277 0.931 . S
C256 C257 1.359 . S
C256 C258 1.364 . S
C257 C255 1.374 . S
C257 C256 1.359 . S
C257 H278 0.931 . S
C258 C254 1.389 . S
C258 C256 1.364 . S
C258 H279 0.931 . S
C259 O270 1.256 . S
C259 O271 1.257 . S
O260 Gd240 2.377 1_554 S
O260 C242 1.240 . S
O261 Gd241 2.395 . S
O261 C242 1.240 . S
O262 Gd240 2.448 1_554 S
O262 C243 1.249 . S
O263 Gd240 2.506 1_554 S
O263 C243 1.252 . S
O264 Gd240 2.435 . S
O264 C250 1.256 . S
O265 Gd240 2.717 . S
O265 Gd241 2.327 1_556 S
O265 C250 1.257 . S
O266 Gd241 2.377 1_556 S
O266 C251 1.240 . S
O267 Gd240 2.395 . S
O267 C251 1.240 . S
O268 Gd241 2.448 1_556 S
O268 C252 1.249 . S
O269 Gd241 2.506 1_556 S
O269 C252 1.252 . S
O270 Gd241 2.435 . S
O270 C259 1.256 . S
O271 Gd240 2.327 1_554 S
O271 Gd241 2.717 . S
O271 C259 1.257 . S
H272 C245 0.930 . S
H273 C246 0.931 . S
H274 C248 0.931 . S
H275 C249 0.931 . S
H276 C254 0.930 . S
H277 C255 0.931 . S
H278 C257 0.931 . S
H279 C258 0.931 . S
Gd280 C283 2.818 1_556 S
Gd280 O300 2.377 1_556 S
Gd280 O302 2.448 1_556 S
Gd280 O303 2.506 1_556 S
Gd280 O304 2.435 . S
Gd280 O305 2.717 . S
Gd280 O307 2.395 . S
Gd280 O311 2.327 1_556 S
Gd281 C292 2.818 1_554 S
Gd281 O301 2.395 . S
Gd281 O305 2.327 1_554 S
Gd281 O306 2.377 1_554 S
Gd281 O308 2.448 1_554 S
Gd281 O309 2.506 1_554 S
Gd281 O310 2.435 . S
Gd281 O311 2.717 . S
C282 O300 1.240 . S
C282 O301 1.240 . S
C283 Gd280 2.818 1_554 S
C283 C284 1.510 . S
C283 O302 1.249 . S
C283 O303 1.252 . S
C284 C283 1.510 . S
C284 C285 1.404 . S
C284 C286 1.352 . S
C285 C284 1.404 . S
C285 C289 1.389 . S
C285 H312 0.930 . S
C286 C284 1.352 . S
C286 C288 1.374 . S
C286 H313 0.931 . S
C287 C288 1.359 . S
C287 C289 1.364 . S
C288 C286 1.374 . S
C288 C287 1.359 . S
C288 H314 0.931 . S
C289 C285 1.389 . S
C289 C287 1.364 . S
C289 H315 0.931 . S
C290 O304 1.256 . S
C290 O305 1.257 . S
C291 O306 1.240 . S
C291 O307 1.240 . S
C292 Gd281 2.818 1_556 S
C292 C293 1.510 . S
C292 O308 1.249 . S
C292 O309 1.252 . S
C293 C292 1.510 . S
C293 C294 1.404 . S
C293 C295 1.352 . S
C294 C293 1.404 . S
C294 C298 1.389 . S
C294 H316 0.930 . S
C295 C293 1.352 . S
C295 C297 1.374 . S
C295 H317 0.931 . S
C296 C297 1.359 . S
C296 C298 1.364 . S
C297 C295 1.374 . S
C297 C296 1.359 . S
C297 H318 0.931 . S
C298 C294 1.389 . S
C298 C296 1.364 . S
C298 H319 0.931 . S
C299 O310 1.256 . S
C299 O311 1.257 . S
O300 Gd280 2.377 1_554 S
O300 C282 1.240 . S
O301 Gd281 2.395 . S
O301 C282 1.240 . S
O302 Gd280 2.448 1_554 S
O302 C283 1.249 . S
O303 Gd280 2.506 1_554 S
O303 C283 1.252 . S
O304 Gd280 2.435 . S
O304 C290 1.256 . S
O305 Gd280 2.717 . S
O305 Gd281 2.327 1_556 S
O305 C290 1.257 . S
O306 Gd281 2.377 1_556 S
O306 C291 1.240 . S
O307 Gd280 2.395 . S
O307 C291 1.240 . S
O308 Gd281 2.448 1_556 S
O308 C292 1.249 . S
O309 Gd281 2.506 1_556 S
O309 C292 1.252 . S
O310 Gd281 2.435 . S
O310 C299 1.256 . S
O311 Gd280 2.327 1_554 S
O311 Gd281 2.717 . S
O311 C299 1.257 . S
H312 C285 0.930 . S
H313 C286 0.931 . S
H314 C288 0.931 . S
H315 C289 0.931 . S
H316 C294 0.930 . S
H317 C295 0.931 . S
H318 C297 0.931 . S
H319 C298 0.931 . S
H320 C338 0.951 . S
H321 C340 0.951 . S
H322 C342 0.950 . S
H323 C343 0.950 . S
H324 C345 0.950 . S
H325 C348 0.950 . S
H326 C349 0.950 . S
H327 C351 0.950 . S
H328 C352 0.950 . S
H329 C353 0.951 . S
H330 C355 0.951 . S
H331 C357 0.950 . S
H332 C358 0.950 . S
H333 C360 0.950 . S
H334 C363 0.950 . S
H335 C364 0.950 . S
H336 C366 0.950 . S
H337 C367 0.950 . S
C338 H320 0.951 . S
C338 C339 1.366 . S
C338 C340 1.388 . S
C339 C338 1.366 . S
C339 C343 1.385 . S
C340 H321 0.951 . S
C340 C338 1.388 . S
C340 C341 1.366 . S
C341 C340 1.366 . S
C341 C342 1.414 . S
C341 C344 1.499 . S
C342 H322 0.950 . S
C342 C341 1.414 . S
C342 C343 1.374 . S
C343 H323 0.950 . S
C343 C339 1.385 . S
C343 C342 1.374 . S
C344 C341 1.499 . S
C344 C345 1.373 . S
C344 C346 1.389 . S
C345 H324 0.950 . S
C345 C344 1.373 . S
C345 C361 1.377 . S
C346 C344 1.389 . S
C346 C347 1.524 . S
C346 C360 1.377 . S
C347 C346 1.524 . S
C347 C348 1.397 . S
C347 C352 1.363 . S
C348 H325 0.950 . S
C348 C347 1.397 . S
C348 C349 1.334 . S
C349 H326 0.950 . S
C349 C348 1.334 . S
C349 C350 1.287 . S
C350 C349 1.287 . S
C350 C351 1.524 . S
C350 H369 0.913 . S
C351 H327 0.950 . S
C351 C350 1.524 . S
C351 C352 1.415 . S
C352 H328 0.950 . S
C352 C347 1.363 . S
C352 C351 1.415 . S
C353 H329 0.951 . S
C353 C354 1.366 . S
C353 C355 1.388 . S
C354 C353 1.366 . S
C354 C358 1.385 . S
C355 H330 0.951 . S
C355 C353 1.388 . S
C355 C356 1.366 . S
C356 C355 1.366 . S
C356 C357 1.414 . S
C356 C359 1.499 . S
C357 H331 0.950 . S
C357 C356 1.414 . S
C357 C358 1.374 . S
C358 H332 0.950 . S
C358 C354 1.385 . S
C358 C357 1.374 . S
C359 C356 1.499 . S
C359 C360 1.373 . S
C359 C361 1.389 . S
C360 H333 0.950 . S
C360 C346 1.377 . S
C360 C359 1.373 . S
C361 C345 1.377 . S
C361 C359 1.389 . S
C361 C362 1.524 . S
C362 C361 1.524 . S
C362 C363 1.397 . S
C362 C367 1.363 . S
C363 H334 0.950 . S
C363 C362 1.397 . S
C363 C364 1.334 . S
C364 H335 0.950 . S
C364 C363 1.334 . S
C364 C365 1.287 . S
C365 C364 1.287 . S
C365 C366 1.524 . S
C365 H368 0.999 . S
C366 H336 0.950 . S
C366 C365 1.524 . S
C366 C367 1.415 . S
C367 H337 0.950 . S
C367 C362 1.363 . S
C367 C366 1.415 . S
H368 C365 0.999 . S
H369 C350 0.913 . S
H370 C388 0.951 . S
H371 C390 0.951 . S
H372 C392 0.950 . S
H373 C393 0.950 . S
H374 C395 0.950 . S
H375 C398 0.950 . S
H376 C399 0.950 . S
H377 C401 0.950 . S
H378 C402 0.950 . S
H379 C403 0.951 . S
H380 C405 0.951 . S
H381 C407 0.950 . S
H382 C408 0.950 . S
H383 C410 0.950 . S
H384 C413 0.950 . S
H385 C414 0.950 . S
H386 C416 0.950 . S
H387 C417 0.950 . S
C388 H370 0.951 . S
C388 C389 1.366 . S
C388 C390 1.388 . S
C389 C388 1.366 . S
C389 C393 1.385 . S
C390 H371 0.951 . S
C390 C388 1.388 . S
C390 C391 1.366 . S
C391 C390 1.366 . S
C391 C392 1.414 . S
C391 C394 1.499 . S
C392 H372 0.950 . S
C392 C391 1.414 . S
C392 C393 1.374 . S
C393 H373 0.950 . S
C393 C389 1.385 . S
C393 C392 1.374 . S
C394 C391 1.499 . S
C394 C395 1.373 . S
C394 C396 1.389 . S
C395 H374 0.950 . S
C395 C394 1.373 . S
C395 C411 1.377 . S
C396 C394 1.389 . S
C396 C397 1.524 . S
C396 C410 1.377 . S
C397 C396 1.524 . S
C397 C398 1.397 . S
C397 C402 1.363 . S
C398 H375 0.950 . S
C398 C397 1.397 . S
C398 C399 1.334 . S
C399 H376 0.950 . S
C399 C398 1.334 . S
C399 C400 1.287 . S
C400 C399 1.287 . S
C400 C401 1.524 . S
C400 H419 0.913 . S
C401 H377 0.950 . S
C401 C400 1.524 . S
C401 C402 1.415 . S
C402 H378 0.950 . S
C402 C397 1.363 . S
C402 C401 1.415 . S
C403 H379 0.951 . S
C403 C404 1.366 . S
C403 C405 1.388 . S
C404 C403 1.366 . S
C404 C408 1.385 . S
C405 H380 0.951 . S
C405 C403 1.388 . S
C405 C406 1.366 . S
C406 C405 1.366 . S
C406 C407 1.414 . S
C406 C409 1.499 . S
C407 H381 0.950 . S
C407 C406 1.414 . S
C407 C408 1.374 . S
C408 H382 0.950 . S
C408 C404 1.385 . S
C408 C407 1.374 . S
C409 C406 1.499 . S
C409 C410 1.373 . S
C409 C411 1.389 . S
C410 H383 0.950 . S
C410 C396 1.377 . S
C410 C409 1.373 . S
C411 C395 1.377 . S
C411 C409 1.389 . S
C411 C412 1.524 . S
C412 C411 1.524 . S
C412 C413 1.397 . S
C412 C417 1.363 . S
C413 H384 0.950 . S
C413 C412 1.397 . S
C413 C414 1.334 . S
C414 H385 0.950 . S
C414 C413 1.334 . S
C414 C415 1.287 . S
C415 C414 1.287 . S
C415 C416 1.524 . S
C415 H418 0.999 . S
C416 H386 0.950 . S
C416 C415 1.524 . S
C416 C417 1.415 . S
C417 H387 0.950 . S
C417 C412 1.363 . S
C417 C416 1.415 . S
H418 C415 0.999 . S
H419 C400 0.913 . S
H420 C438 0.951 . S
H421 C440 0.951 . S
H422 C442 0.950 . S
H423 C443 0.950 . S
H424 C445 0.950 . S
H425 C448 0.950 . S
H426 C449 0.950 . S
H427 C451 0.950 . S
H428 C452 0.950 . S
H429 C453 0.951 . S
H430 C455 0.951 . S
H431 C457 0.950 . S
H432 C458 0.950 . S
H433 C460 0.950 . S
H434 C463 0.950 . S
H435 C464 0.950 . S
H436 C466 0.950 . S
H437 C467 0.950 . S
C438 H420 0.951 . S
C438 C439 1.366 . S
C438 C440 1.388 . S
C439 C438 1.366 . S
C439 C443 1.385 . S
C440 H421 0.951 . S
C440 C438 1.388 . S
C440 C441 1.366 . S
C441 C440 1.366 . S
C441 C442 1.414 . S
C441 C444 1.499 . S
C442 H422 0.950 . S
C442 C441 1.414 . S
C442 C443 1.374 . S
C443 H423 0.950 . S
C443 C439 1.385 . S
C443 C442 1.374 . S
C444 C441 1.499 . S
C444 C445 1.373 . S
C444 C446 1.389 . S
C445 H424 0.950 . S
C445 C444 1.373 . S
C445 C461 1.377 . S
C446 C444 1.389 . S
C446 C447 1.524 . S
C446 C460 1.377 . S
C447 C446 1.524 . S
C447 C448 1.397 . S
C447 C452 1.363 . S
C448 H425 0.950 . S
C448 C447 1.397 . S
C448 C449 1.334 . S
C449 H426 0.950 . S
C449 C448 1.334 . S
C449 C450 1.287 . S
C450 C449 1.287 . S
C450 C451 1.524 . S
C450 H469 0.913 . S
C451 H427 0.950 . S
C451 C450 1.524 . S
C451 C452 1.415 . S
C452 H428 0.950 . S
C452 C447 1.363 . S
C452 C451 1.415 . S
C453 H429 0.951 . S
C453 C454 1.366 . S
C453 C455 1.388 . S
C454 C453 1.366 . S
C454 C458 1.385 . S
C455 H430 0.951 . S
C455 C453 1.388 . S
C455 C456 1.366 . S
C456 C455 1.366 . S
C456 C457 1.414 . S
C456 C459 1.499 . S
C457 H431 0.950 . S
C457 C456 1.414 . S
C457 C458 1.374 . S
C458 H432 0.950 . S
C458 C454 1.385 . S
C458 C457 1.374 . S
C459 C456 1.499 . S
C459 C460 1.373 . S
C459 C461 1.389 . S
C460 H433 0.950 . S
C460 C446 1.377 . S
C460 C459 1.373 . S
C461 C445 1.377 . S
C461 C459 1.389 . S
C461 C462 1.524 . S
C462 C461 1.524 . S
C462 C463 1.397 . S
C462 C467 1.363 . S
C463 H434 0.950 . S
C463 C462 1.397 . S
C463 C464 1.334 . S
C464 H435 0.950 . S
C464 C463 1.334 . S
C464 C465 1.287 . S
C465 C464 1.287 . S
C465 C466 1.524 . S
C465 H468 0.999 . S
C466 H436 0.950 . S
C466 C465 1.524 . S
C466 C467 1.415 . S
C467 H437 0.950 . S
C467 C462 1.363 . S
C467 C466 1.415 . S
H468 C465 0.999 . S
H469 C450 0.913 . S
H470 C488 0.951 . S
H471 C490 0.951 . S
H472 C492 0.950 . S
H473 C493 0.950 . S
H474 C495 0.950 . S
H475 C498 0.950 . S
H476 C499 0.950 . S
H477 C501 0.950 . S
H478 C502 0.950 . S
H479 C503 0.951 . S
H480 C505 0.951 . S
H481 C507 0.950 . S
H482 C508 0.950 . S
H483 C510 0.950 . S
H484 C513 0.950 . S
H485 C514 0.950 . S
H486 C516 0.950 . S
H487 C517 0.950 . S
C488 H470 0.951 . S
C488 C489 1.366 . S
C488 C490 1.388 . S
C489 C488 1.366 . S
C489 C493 1.385 . S
C490 H471 0.951 . S
C490 C488 1.388 . S
C490 C491 1.366 . S
C491 C490 1.366 . S
C491 C492 1.414 . S
C491 C494 1.499 . S
C492 H472 0.950 . S
C492 C491 1.414 . S
C492 C493 1.374 . S
C493 H473 0.950 . S
C493 C489 1.385 . S
C493 C492 1.374 . S
C494 C491 1.499 . S
C494 C495 1.373 . S
C494 C496 1.389 . S
C495 H474 0.950 . S
C495 C494 1.373 . S
C495 C511 1.377 . S
C496 C494 1.389 . S
C496 C497 1.524 . S
C496 C510 1.377 . S
C497 C496 1.524 . S
C497 C498 1.397 . S
C497 C502 1.363 . S
C498 H475 0.950 . S
C498 C497 1.397 . S
C498 C499 1.334 . S
C499 H476 0.950 . S
C499 C498 1.334 . S
C499 C500 1.287 . S
C500 C499 1.287 . S
C500 C501 1.524 . S
C500 H519 0.913 . S
C501 H477 0.950 . S
C501 C500 1.524 . S
C501 C502 1.415 . S
C502 H478 0.950 . S
C502 C497 1.363 . S
C502 C501 1.415 . S
C503 H479 0.951 . S
C503 C504 1.366 . S
C503 C505 1.388 . S
C504 C503 1.366 . S
C504 C508 1.385 . S
C505 H480 0.951 . S
C505 C503 1.388 . S
C505 C506 1.366 . S
C506 C505 1.366 . S
C506 C507 1.414 . S
C506 C509 1.499 . S
C507 H481 0.950 . S
C507 C506 1.414 . S
C507 C508 1.374 . S
C508 H482 0.950 . S
C508 C504 1.385 . S
C508 C507 1.374 . S
C509 C506 1.499 . S
C509 C510 1.373 . S
C509 C511 1.389 . S
C510 H483 0.950 . S
C510 C496 1.377 . S
C510 C509 1.373 . S
C511 C495 1.377 . S
C511 C509 1.389 . S
C511 C512 1.524 . S
C512 C511 1.524 . S
C512 C513 1.397 . S
C512 C517 1.363 . S
C513 H484 0.950 . S
C513 C512 1.397 . S
C513 C514 1.334 . S
C514 H485 0.950 . S
C514 C513 1.334 . S
C514 C515 1.287 . S
C515 C514 1.287 . S
C515 C516 1.524 . S
C515 H518 0.999 . S
C516 H486 0.950 . S
C516 C515 1.524 . S
C516 C517 1.415 . S
C517 H487 0.950 . S
C517 C512 1.363 . S
C517 C516 1.415 . S
H518 C515 0.999 . S
H519 C500 0.913 . S
H520 C538 0.951 . S
H521 C540 0.951 . S
H522 C542 0.950 . S
H523 C543 0.950 . S
H524 C545 0.950 . S
H525 C548 0.950 . S
H526 C549 0.950 . S
H527 C551 0.950 . S
H528 C552 0.950 . S
H529 C553 0.951 . S
H530 C555 0.951 . S
H531 C557 0.950 . S
H532 C558 0.950 . S
H533 C560 0.950 . S
H534 C563 0.950 . S
H535 C564 0.950 . S
H536 C566 0.950 . S
H537 C567 0.950 . S
C538 H520 0.951 . S
C538 C539 1.366 . S
C538 C540 1.388 . S
C539 C538 1.366 . S
C539 C543 1.385 . S
C540 H521 0.951 . S
C540 C538 1.388 . S
C540 C541 1.366 . S
C541 C540 1.366 . S
C541 C542 1.414 . S
C541 C544 1.499 . S
C542 H522 0.950 . S
C542 C541 1.414 . S
C542 C543 1.374 . S
C543 H523 0.950 . S
C543 C539 1.385 . S
C543 C542 1.374 . S
C544 C541 1.499 . S
C544 C545 1.373 . S
C544 C546 1.389 . S
C545 H524 0.950 . S
C545 C544 1.373 . S
C545 C561 1.377 1_565 S
C546 C544 1.389 . S
C546 C547 1.524 . S
C546 C560 1.377 1_565 S
C547 C546 1.524 . S
C547 C548 1.397 . S
C547 C552 1.363 . S
C548 H525 0.950 . S
C548 C547 1.397 . S
C548 C549 1.334 . S
C549 H526 0.950 . S
C549 C548 1.334 . S
C549 C550 1.287 . S
C550 C549 1.287 . S
C550 C551 1.524 . S
C550 H569 0.913 . S
C551 H527 0.950 . S
C551 C550 1.524 . S
C551 C552 1.415 . S
C552 H528 0.950 . S
C552 C547 1.363 . S
C552 C551 1.415 . S
C553 H529 0.951 . S
C553 C554 1.366 . S
C553 C555 1.388 . S
C554 C553 1.366 . S
C554 C558 1.385 . S
C555 H530 0.951 . S
C555 C553 1.388 . S
C555 C556 1.366 . S
C556 C555 1.366 . S
C556 C557 1.414 . S
C556 C559 1.499 . S
C557 H531 0.950 . S
C557 C556 1.414 . S
C557 C558 1.374 . S
C558 H532 0.950 . S
C558 C554 1.385 . S
C558 C557 1.374 . S
C559 C556 1.499 . S
C559 C560 1.373 . S
C559 C561 1.389 . S
C560 H533 0.950 . S
C560 C546 1.377 1_545 S
C560 C559 1.373 . S
C561 C545 1.377 1_545 S
C561 C559 1.389 . S
C561 C562 1.524 . S
C562 C561 1.524 . S
C562 C563 1.397 . S
C562 C567 1.363 . S
C563 H534 0.950 . S
C563 C562 1.397 . S
C563 C564 1.334 . S
C564 H535 0.950 . S
C564 C563 1.334 . S
C564 C565 1.287 . S
C565 C564 1.287 . S
C565 C566 1.524 . S
C565 H568 0.999 . S
C566 H536 0.950 . S
C566 C565 1.524 . S
C566 C567 1.415 . S
C567 H537 0.950 . S
C567 C562 1.363 . S
C567 C566 1.415 . S
H568 C565 0.999 . S
H569 C550 0.913 . S
H570 C588 0.951 . S
H571 C590 0.951 . S
H572 C592 0.950 . S
H573 C593 0.950 . S
H574 C595 0.950 . S
H575 C598 0.950 . S
H576 C599 0.950 . S
H577 C601 0.950 . S
H578 C602 0.950 . S
H579 C603 0.951 . S
H580 C605 0.951 . S
H581 C607 0.950 . S
H582 C608 0.950 . S
H583 C610 0.950 . S
H584 C613 0.950 . S
H585 C614 0.950 . S
H586 C616 0.950 . S
H587 C617 0.950 . S
C588 H570 0.951 . S
C588 C589 1.366 . S
C588 C590 1.388 . S
C589 C588 1.366 . S
C589 C593 1.385 . S
C590 H571 0.951 . S
C590 C588 1.388 . S
C590 C591 1.366 . S
C591 C590 1.366 . S
C591 C592 1.414 . S
C591 C594 1.499 . S
C592 H572 0.950 . S
C592 C591 1.414 . S
C592 C593 1.374 . S
C593 H573 0.950 . S
C593 C589 1.385 . S
C593 C592 1.374 . S
C594 C591 1.499 . S
C594 C595 1.373 . S
C594 C596 1.389 . S
C595 H574 0.950 . S
C595 C594 1.373 . S
C595 C611 1.377 . S
C596 C594 1.389 . S
C596 C597 1.524 . S
C596 C610 1.377 . S
C597 C596 1.524 . S
C597 C598 1.397 . S
C597 C602 1.363 . S
C598 H575 0.950 . S
C598 C597 1.397 . S
C598 C599 1.334 . S
C599 H576 0.950 . S
C599 C598 1.334 . S
C599 C600 1.287 . S
C600 C599 1.287 . S
C600 C601 1.524 . S
C600 H619 0.913 . S
C601 H577 0.950 . S
C601 C600 1.524 . S
C601 C602 1.415 . S
C602 H578 0.950 . S
C602 C597 1.363 . S
C602 C601 1.415 . S
C603 H579 0.951 . S
C603 C604 1.366 . S
C603 C605 1.388 . S
C604 C603 1.366 . S
C604 C608 1.385 . S
C605 H580 0.951 . S
C605 C603 1.388 . S
C605 C606 1.366 . S
C606 C605 1.366 . S
C606 C607 1.414 . S
C606 C609 1.499 . S
C607 H581 0.950 . S
C607 C606 1.414 . S
C607 C608 1.374 . S
C608 H582 0.950 . S
C608 C604 1.385 . S
C608 C607 1.374 . S
C609 C606 1.499 . S
C609 C610 1.373 . S
C609 C611 1.389 . S
C610 H583 0.950 . S
C610 C596 1.377 . S
C610 C609 1.373 . S
C611 C595 1.377 . S
C611 C609 1.389 . S
C611 C612 1.524 . S
C612 C611 1.524 . S
C612 C613 1.397 . S
C612 C617 1.363 . S
C613 H584 0.950 . S
C613 C612 1.397 . S
C613 C614 1.334 . S
C614 H585 0.950 . S
C614 C613 1.334 . S
C614 C615 1.287 . S
C615 C614 1.287 . S
C615 C616 1.524 . S
C615 H618 0.999 . S
C616 H586 0.950 . S
C616 C615 1.524 . S
C616 C617 1.415 . S
C617 H587 0.950 . S
C617 C612 1.363 . S
C617 C616 1.415 . S
H618 C615 0.999 . S
H619 C600 0.913 . S
H620 C638 0.951 . S
H621 C640 0.951 . S
H622 C642 0.950 . S
H623 C643 0.950 . S
H624 C645 0.950 . S
H625 C648 0.950 . S
H626 C649 0.950 . S
H627 C651 0.950 . S
H628 C652 0.950 . S
H629 C653 0.951 . S
H630 C655 0.951 . S
H631 C657 0.950 . S
H632 C658 0.950 . S
H633 C660 0.950 . S
H634 C663 0.950 . S
H635 C664 0.950 . S
H636 C666 0.950 . S
H637 C667 0.950 . S
C638 H620 0.951 . S
C638 C639 1.366 . S
C638 C640 1.388 . S
C639 C638 1.366 . S
C639 C643 1.385 . S
C640 H621 0.951 . S
C640 C638 1.388 . S
C640 C641 1.366 . S
C641 C640 1.366 . S
C641 C642 1.414 . S
C641 C644 1.499 . S
C642 H622 0.950 . S
C642 C641 1.414 . S
C642 C643 1.374 . S
C643 H623 0.950 . S
C643 C639 1.385 . S
C643 C642 1.374 . S
C644 C641 1.499 . S
C644 C645 1.373 . S
C644 C646 1.389 . S
C645 H624 0.950 . S
C645 C644 1.373 . S
C645 C661 1.377 1_565 S
C646 C644 1.389 . S
C646 C647 1.524 . S
C646 C660 1.377 1_565 S
C647 C646 1.524 . S
C647 C648 1.397 . S
C647 C652 1.363 . S
C648 H625 0.950 . S
C648 C647 1.397 . S
C648 C649 1.334 . S
C649 H626 0.950 . S
C649 C648 1.334 . S
C649 C650 1.287 . S
C650 C649 1.287 . S
C650 C651 1.524 . S
C650 H669 0.913 . S
C651 H627 0.950 . S
C651 C650 1.524 . S
C651 C652 1.415 . S
C652 H628 0.950 . S
C652 C647 1.363 . S
C652 C651 1.415 . S
C653 H629 0.951 . S
C653 C654 1.366 . S
C653 C655 1.388 . S
C654 C653 1.366 . S
C654 C658 1.385 . S
C655 H630 0.951 . S
C655 C653 1.388 . S
C655 C656 1.366 . S
C656 C655 1.366 . S
C656 C657 1.414 . S
C656 C659 1.499 . S
C657 H631 0.950 . S
C657 C656 1.414 . S
C657 C658 1.374 . S
C658 H632 0.950 . S
C658 C654 1.385 . S
C658 C657 1.374 . S
C659 C656 1.499 . S
C659 C660 1.373 . S
C659 C661 1.389 . S
C660 H633 0.950 . S
C660 C646 1.377 1_545 S
C660 C659 1.373 . S
C661 C645 1.377 1_545 S
C661 C659 1.389 . S
C661 C662 1.524 . S
C662 C661 1.524 . S
C662 C663 1.397 . S
C662 C667 1.363 . S
C663 H634 0.950 . S
C663 C662 1.397 . S
C663 C664 1.334 . S
C664 H635 0.950 . S
C664 C663 1.334 . S
C664 C665 1.287 . S
C665 C664 1.287 . S
C665 C666 1.524 . S
C665 H668 0.999 . S
C666 H636 0.950 . S
C666 C665 1.524 . S
C666 C667 1.415 . S
C667 H637 0.950 . S
C667 C662 1.363 . S
C667 C666 1.415 . S
H668 C665 0.999 . S
H669 C650 0.913 . S
H670 C688 0.951 . S
H671 C690 0.951 . S
H672 C692 0.950 . S
H673 C693 0.950 . S
H674 C695 0.950 . S
H675 C698 0.950 . S
H676 C699 0.950 . S
H677 C701 0.950 . S
H678 C702 0.950 . S
H679 C703 0.951 . S
H680 C705 0.951 . S
H681 C707 0.950 . S
H682 C708 0.950 . S
H683 C710 0.950 . S
H684 C713 0.950 . S
H685 C714 0.950 . S
H686 C716 0.950 . S
H687 C717 0.950 . S
C688 H670 0.951 . S
C688 C689 1.366 . S
C688 C690 1.388 . S
C689 C688 1.366 . S
C689 C693 1.385 . S
C690 H671 0.951 . S
C690 C688 1.388 . S
C690 C691 1.366 . S
C691 C690 1.366 . S
C691 C692 1.414 . S
C691 C694 1.499 . S
C692 H672 0.950 . S
C692 C691 1.414 . S
C692 C693 1.374 . S
C693 H673 0.950 . S
C693 C689 1.385 . S
C693 C692 1.374 . S
C694 C691 1.499 . S
C694 C695 1.373 . S
C694 C696 1.389 . S
C695 H674 0.950 . S
C695 C694 1.373 . S
C695 C711 1.377 . S
C696 C694 1.389 . S
C696 C697 1.524 . S
C696 C710 1.377 . S
C697 C696 1.524 . S
C697 C698 1.397 . S
C697 C702 1.363 . S
C698 H675 0.950 . S
C698 C697 1.397 . S
C698 C699 1.334 . S
C699 H676 0.950 . S
C699 C698 1.334 . S
C699 C700 1.287 . S
C700 C699 1.287 . S
C700 C701 1.524 . S
C700 H719 0.913 . S
C701 H677 0.950 . S
C701 C700 1.524 . S
C701 C702 1.415 . S
C702 H678 0.950 . S
C702 C697 1.363 . S
C702 C701 1.415 . S
C703 H679 0.951 . S
C703 C704 1.366 . S
C703 C705 1.388 . S
C704 C703 1.366 . S
C704 C708 1.385 . S
C705 H680 0.951 . S
C705 C703 1.388 . S
C705 C706 1.366 . S
C706 C705 1.366 . S
C706 C707 1.414 . S
C706 C709 1.499 . S
C707 H681 0.950 . S
C707 C706 1.414 . S
C707 C708 1.374 . S
C708 H682 0.950 . S
C708 C704 1.385 . S
C708 C707 1.374 . S
C709 C706 1.499 . S
C709 C710 1.373 . S
C709 C711 1.389 . S
C710 H683 0.950 . S
C710 C696 1.377 . S
C710 C709 1.373 . S
C711 C695 1.377 . S
C711 C709 1.389 . S
C711 C712 1.524 . S
C712 C711 1.524 . S
C712 C713 1.397 . S
C712 C717 1.363 . S
C713 H684 0.950 . S
C713 C712 1.397 . S
C713 C714 1.334 . S
C714 H685 0.950 . S
C714 C713 1.334 . S
C714 C715 1.287 . S
C715 C714 1.287 . S
C715 C716 1.524 . S
C715 H718 0.999 . S
C716 H686 0.950 . S
C716 C715 1.524 . S
C716 C717 1.415 . S
C717 H687 0.950 . S
C717 C712 1.363 . S
C717 C716 1.415 . S
H718 C715 0.999 . S
H719 C700 0.913 . S
H720 C738 0.951 . S
H721 C740 0.951 . S
H722 C742 0.950 . S
H723 C743 0.950 . S
H724 C745 0.950 . S
H725 C748 0.950 . S
H726 C749 0.950 . S
H727 C751 0.950 . S
H728 C752 0.950 . S
H729 C753 0.951 . S
H730 C755 0.951 . S
H731 C757 0.950 . S
H732 C758 0.950 . S
H733 C760 0.950 . S
H734 C763 0.950 . S
H735 C764 0.950 . S
H736 C766 0.950 . S
H737 C767 0.950 . S
C738 H720 0.951 . S
C738 C739 1.366 1_554 S
C738 C740 1.388 . S
C739 C738 1.366 1_556 S
C739 C743 1.385 . S
C740 H721 0.951 . S
C740 C738 1.388 . S
C740 C741 1.366 1_554 S
C741 C740 1.366 1_556 S
C741 C742 1.414 . S
C741 C744 1.499 . S
C742 H722 0.950 . S
C742 C741 1.414 . S
C742 C743 1.374 . S
C743 H723 0.950 . S
C743 C739 1.385 . S
C743 C742 1.374 . S
C744 C741 1.499 . S
C744 C745 1.373 1_556 S
C744 C746 1.389 . S
C745 H724 0.950 . S
C745 C744 1.373 1_554 S
C745 C761 1.377 . S
C746 C744 1.389 . S
C746 C747 1.524 . S
C746 C760 1.377 . S
C747 C746 1.524 . S
C747 C748 1.397 . S
C747 C752 1.363 . S
C748 H725 0.950 . S
C748 C747 1.397 . S
C748 C749 1.334 . S
C749 H726 0.950 . S
C749 C748 1.334 . S
C749 C750 1.287 . S
C750 C749 1.287 . S
C750 C751 1.524 . S
C750 H769 0.913 . S
C751 H727 0.950 . S
C751 C750 1.524 . S
C751 C752 1.415 . S
C752 H728 0.950 . S
C752 C747 1.363 . S
C752 C751 1.415 . S
C753 H729 0.951 . S
C753 C754 1.366 . S
C753 C755 1.388 . S
C754 C753 1.366 . S
C754 C758 1.385 1_556 S
C755 H730 0.951 . S
C755 C753 1.388 . S
C755 C756 1.366 . S
C756 C755 1.366 . S
C756 C757 1.414 1_556 S
C756 C759 1.499 . S
C757 H731 0.950 . S
C757 C756 1.414 1_554 S
C757 C758 1.374 . S
C758 H732 0.950 . S
C758 C754 1.385 1_554 S
C758 C757 1.374 . S
C759 C756 1.499 . S
C759 C760 1.375 . S
C759 C761 1.388 1_556 S
C760 H733 0.950 . S
C760 C746 1.377 . S
C760 C759 1.375 . S
C761 C745 1.377 . S
C761 C759 1.388 1_554 S
C761 C762 1.524 . S
C762 C761 1.524 . S
C762 C763 1.397 . S
C762 C767 1.363 . S
C763 H734 0.950 . S
C763 C762 1.397 . S
C763 C764 1.334 . S
C764 H735 0.950 . S
C764 C763 1.334 . S
C764 C765 1.287 . S
C765 C764 1.287 . S
C765 C766 1.524 . S
C765 H768 0.999 . S
C766 H736 0.950 . S
C766 C765 1.524 . S
C766 C767 1.415 . S
C767 H737 0.950 . S
C767 C762 1.363 . S
C767 C766 1.415 . S
H768 C765 0.999 . S
H769 C750 0.913 . S
H770 C788 0.951 . S
H771 C790 0.951 . S
H772 C792 0.950 . S
H773 C793 0.950 . S
H774 C795 0.950 . S
H775 C798 0.950 . S
H776 C799 0.950 . S
H777 C801 0.950 . S
H778 C802 0.950 . S
H779 C803 0.951 . S
H780 C805 0.951 . S
H781 C807 0.950 . S
H782 C808 0.950 . S
H783 C810 0.950 . S
H784 C813 0.950 . S
H785 C814 0.950 . S
H786 C816 0.950 . S
H787 C817 0.950 . S
C788 H770 0.951 . S
C788 C789 1.366 1_554 S
C788 C790 1.388 . S
C789 C788 1.366 1_556 S
C789 C793 1.385 . S
C790 H771 0.951 . S
C790 C788 1.388 . S
C790 C791 1.366 1_554 S
C791 C790 1.366 1_556 S
C791 C792 1.414 . S
C791 C794 1.499 . S
C792 H772 0.950 . S
C792 C791 1.414 . S
C792 C793 1.374 . S
C793 H773 0.950 . S
C793 C789 1.385 . S
C793 C792 1.374 . S
C794 C791 1.499 . S
C794 C795 1.373 . S
C794 C796 1.389 1_556 S
C795 H774 0.950 . S
C795 C794 1.373 . S
C795 C811 1.377 1_565 S
C796 C794 1.389 1_554 S
C796 C797 1.524 . S
C796 C810 1.377 1_565 S
C797 C796 1.524 . S
C797 C798 1.397 . S
C797 C802 1.363 . S
C798 H775 0.950 . S
C798 C797 1.397 . S
C798 C799 1.334 . S
C799 H776 0.950 . S
C799 C798 1.334 . S
C799 C800 1.287 . S
C800 C799 1.287 . S
C800 C801 1.524 . S
C800 H819 0.913 . S
C801 H777 0.950 . S
C801 C800 1.524 . S
C801 C802 1.415 . S
C802 H778 0.950 . S
C802 C797 1.363 . S
C802 C801 1.415 . S
C803 H779 0.951 . S
C803 C804 1.366 . S
C803 C805 1.388 . S
C804 C803 1.366 . S
C804 C808 1.385 1_556 S
C805 H780 0.951 . S
C805 C803 1.388 . S
C805 C806 1.366 . S
C806 C805 1.366 . S
C806 C807 1.414 1_556 S
C806 C809 1.499 . S
C807 H781 0.950 . S
C807 C806 1.414 1_554 S
C807 C808 1.374 . S
C808 H782 0.950 . S
C808 C804 1.385 1_554 S
C808 C807 1.374 . S
C809 C806 1.499 . S
C809 C810 1.373 1_556 S
C809 C811 1.389 . S
C810 H783 0.950 . S
C810 C796 1.377 1_545 S
C810 C809 1.373 1_554 S
C811 C795 1.377 1_545 S
C811 C809 1.389 . S
C811 C812 1.524 . S
C812 C811 1.524 . S
C812 C813 1.397 . S
C812 C817 1.363 . S
C813 H784 0.950 . S
C813 C812 1.397 . S
C813 C814 1.334 . S
C814 H785 0.950 . S
C814 C813 1.334 . S
C814 C815 1.287 . S
C815 C814 1.287 . S
C815 C816 1.524 . S
C815 H818 0.999 . S
C816 H786 0.950 . S
C816 C815 1.524 . S
C816 C817 1.415 . S
C817 H787 0.950 . S
C817 C812 1.363 . S
C817 C816 1.415 . S
H818 C815 0.999 . S
H819 C800 0.913 . S
H820 C838 0.951 . S
H821 C840 0.951 . S
H822 C842 0.950 . S
H823 C843 0.950 . S
H824 C845 0.950 . S
H825 C848 0.950 . S
H826 C849 0.950 . S
H827 C851 0.950 . S
H828 C852 0.950 . S
H829 C853 0.951 . S
H830 C855 0.951 . S
H831 C857 0.950 . S
H832 C858 0.950 . S
H833 C860 0.950 . S
H834 C863 0.950 . S
H835 C864 0.950 . S
H836 C866 0.950 . S
H837 C867 0.950 . S
C838 H820 0.951 . S
C838 C839 1.366 . S
C838 C840 1.388 . S
C839 C838 1.366 . S
C839 C843 1.385 1_554 S
C840 H821 0.951 . S
C840 C838 1.388 . S
C840 C841 1.366 . S
C841 C840 1.366 . S
C841 C842 1.414 1_554 S
C841 C844 1.499 . S
C842 H822 0.950 . S
C842 C841 1.414 1_556 S
C842 C843 1.374 . S
C843 H823 0.950 . S
C843 C839 1.385 1_556 S
C843 C842 1.374 . S
C844 C841 1.499 . S
C844 C845 1.373 1_554 S
C844 C846 1.389 . S
C845 H824 0.950 . S
C845 C844 1.373 1_556 S
C845 C861 1.377 . S
C846 C844 1.389 . S
C846 C847 1.524 . S
C846 C860 1.377 . S
C847 C846 1.524 . S
C847 C848 1.397 . S
C847 C852 1.363 . S
C848 H825 0.950 . S
C848 C847 1.397 . S
C848 C849 1.334 . S
C849 H826 0.950 . S
C849 C848 1.334 . S
C849 C850 1.287 . S
C850 C849 1.287 . S
C850 C851 1.524 . S
C850 H869 0.913 . S
C851 H827 0.950 . S
C851 C850 1.524 . S
C851 C852 1.415 . S
C852 H828 0.950 . S
C852 C847 1.363 . S
C852 C851 1.415 . S
C853 H829 0.951 . S
C853 C854 1.366 1_556 S
C853 C855 1.388 . S
C854 C853 1.366 1_554 S
C854 C858 1.385 . S
C855 H830 0.951 . S
C855 C853 1.388 . S
C855 C856 1.366 1_556 S
C856 C855 1.366 1_554 S
C856 C857 1.414 . S
C856 C859 1.499 . S
C857 H831 0.950 . S
C857 C856 1.414 . S
C857 C858 1.374 . S
C858 H832 0.950 . S
C858 C854 1.385 . S
C858 C857 1.374 . S
C859 C856 1.499 . S
C859 C860 1.373 . S
C859 C861 1.389 1_554 S
C860 H833 0.950 . S
C860 C846 1.377 . S
C860 C859 1.373 . S
C861 C845 1.377 . S
C861 C859 1.389 1_556 S
C861 C862 1.524 . S
C862 C861 1.524 . S
C862 C863 1.397 . S
C862 C867 1.363 . S
C863 H834 0.950 . S
C863 C862 1.397 . S
C863 C864 1.334 . S
C864 H835 0.950 . S
C864 C863 1.334 . S
C864 C865 1.287 . S
C865 C864 1.287 . S
C865 C866 1.524 . S
C865 H868 0.999 . S
C866 H836 0.950 . S
C866 C865 1.524 . S
C866 C867 1.415 . S
C867 H837 0.950 . S
C867 C862 1.363 . S
C867 C866 1.415 . S
H868 C865 0.999 . S
H869 C850 0.913 . S
H870 C888 0.951 . S
H871 C890 0.951 . S
H872 C892 0.950 . S
H873 C893 0.950 . S
H874 C895 0.950 . S
H875 C898 0.950 . S
H876 C899 0.950 . S
H877 C901 0.950 . S
H878 C902 0.950 . S
H879 C903 0.951 . S
H880 C905 0.951 . S
H881 C907 0.950 . S
H882 C908 0.950 . S
H883 C910 0.950 . S
H884 C913 0.950 . S
H885 C914 0.950 . S
H886 C916 0.950 . S
H887 C917 0.950 . S
C888 H870 0.951 . S
C888 C889 1.366 1_556 S
C888 C890 1.388 . S
C889 C888 1.366 1_554 S
C889 C893 1.385 . S
C890 H871 0.951 . S
C890 C888 1.388 . S
C890 C891 1.366 1_556 S
C891 C890 1.366 1_554 S
C891 C892 1.414 . S
C891 C894 1.499 . S
C892 H872 0.950 . S
C892 C891 1.414 . S
C892 C893 1.374 . S
C893 H873 0.950 . S
C893 C889 1.385 . S
C893 C892 1.374 . S
C894 C891 1.499 . S
C894 C895 1.373 . S
C894 C896 1.389 1_554 S
C895 H874 0.950 . S
C895 C894 1.373 . S
C895 C911 1.377 1_545 S
C896 C894 1.389 1_556 S
C896 C897 1.524 . S
C896 C910 1.377 1_545 S
C897 C896 1.524 . S
C897 C898 1.397 . S
C897 C902 1.363 . S
C898 H875 0.950 . S
C898 C897 1.397 . S
C898 C899 1.334 . S
C899 H876 0.950 . S
C899 C898 1.334 . S
C899 C900 1.287 . S
C900 C899 1.287 . S
C900 C901 1.524 . S
C900 H919 0.913 . S
C901 H877 0.950 . S
C901 C900 1.524 . S
C901 C902 1.415 . S
C902 H878 0.950 . S
C902 C897 1.363 . S
C902 C901 1.415 . S
C903 H879 0.951 . S
C903 C904 1.366 . S
C903 C905 1.388 . S
C904 C903 1.366 . S
C904 C908 1.385 1_554 S
C905 H880 0.951 . S
C905 C903 1.388 . S
C905 C906 1.366 . S
C906 C905 1.366 . S
C906 C907 1.414 1_554 S
C906 C909 1.499 . S
C907 H881 0.950 . S
C907 C906 1.414 1_556 S
C907 C908 1.374 . S
C908 H882 0.950 . S
C908 C904 1.385 1_556 S
C908 C907 1.374 . S
C909 C906 1.499 . S
C909 C910 1.373 1_554 S
C909 C911 1.389 . S
C910 H883 0.950 . S
C910 C896 1.377 1_565 S
C910 C909 1.373 1_556 S
C911 C895 1.377 1_565 S
C911 C909 1.389 . S
C911 C912 1.524 . S
C912 C911 1.524 . S
C912 C913 1.397 . S
C912 C917 1.363 . S
C913 H884 0.950 . S
C913 C912 1.397 . S
C913 C914 1.334 . S
C914 H885 0.950 . S
C914 C913 1.334 . S
C914 C915 1.287 . S
C915 C914 1.287 . S
C915 C916 1.524 . S
C915 H918 0.999 . S
C916 H886 0.950 . S
C916 C915 1.524 . S
C916 C917 1.415 . S
C917 H887 0.950 . S
C917 C912 1.363 . S
C917 C916 1.415 . S
H918 C915 0.999 . S
H919 C900 0.913 . S
H920 C938 0.951 . S
H921 C940 0.951 . S
H922 C942 0.950 . S
H923 C943 0.950 . S
H924 C945 0.950 . S
H925 C948 0.950 . S
H926 C949 0.950 . S
H927 C951 0.950 . S
H928 C952 0.950 1_556 S
H929 C953 0.951 . S
H930 C955 0.951 . S
H931 C957 0.950 . S
H932 C958 0.950 . S
H933 C960 0.950 . S
H934 C963 0.950 . S
H935 C964 0.950 . S
H936 C966 0.950 . S
H937 C967 0.950 . S
C938 H920 0.951 . S
C938 C939 1.366 . S
C938 C940 1.388 . S
C939 C938 1.366 . S
C939 C943 1.385 . S
C940 H921 0.951 . S
C940 C938 1.388 . S
C940 C941 1.366 . S
C941 C940 1.366 . S
C941 C942 1.414 . S
C941 C944 1.499 . S
C942 H922 0.950 . S
C942 C941 1.414 . S
C942 C943 1.374 . S
C943 H923 0.950 . S
C943 C939 1.385 . S
C943 C942 1.374 . S
C944 C941 1.499 . S
C944 C945 1.373 1_554 S
C944 C946 1.389 1_554 S
C945 H924 0.950 . S
C945 C944 1.373 1_556 S
C945 C961 1.377 . S
C946 C944 1.389 1_556 S
C946 C947 1.524 1_556 S
C946 C960 1.377 . S
C947 C946 1.524 1_554 S
C947 C948 1.397 . S
C947 C952 1.363 . S
C948 H925 0.950 . S
C948 C947 1.397 . S
C948 C949 1.334 . S
C949 H926 0.950 . S
C949 C948 1.334 . S
C949 C950 1.287 . S
C950 C949 1.287 . S
C950 C951 1.524 . S
C950 H969 0.913 . S
C951 H927 0.950 . S
C951 C950 1.524 . S
C951 C952 1.415 . S
C952 H928 0.950 1_554 S
C952 C947 1.363 . S
C952 C951 1.415 . S
C953 H929 0.951 . S
C953 C954 1.366 . S
C953 C955 1.388 . S
C954 C953 1.366 . S
C954 C958 1.385 . S
C955 H930 0.951 . S
C955 C953 1.388 . S
C955 C956 1.366 . S
C956 C955 1.366 . S
C956 C957 1.414 . S
C956 C959 1.499 . S
C957 H931 0.950 . S
C957 C956 1.414 . S
C957 C958 1.374 . S
C958 H932 0.950 . S
C958 C954 1.385 . S
C958 C957 1.374 . S
C959 C956 1.499 . S
C959 C960 1.373 . S
C959 C961 1.389 . S
C960 H933 0.950 . S
C960 C946 1.377 . S
C960 C959 1.373 . S
C961 C945 1.377 . S
C961 C959 1.389 . S
C961 C962 1.524 . S
C962 C961 1.524 . S
C962 C963 1.397 . S
C962 C967 1.363 . S
C963 H934 0.950 . S
C963 C962 1.397 . S
C963 C964 1.334 . S
C964 H935 0.950 . S
C964 C963 1.334 . S
C964 C965 1.287 . S
C965 C964 1.287 . S
C965 C966 1.524 . S
C965 H968 0.999 . S
C966 H936 0.950 . S
C966 C965 1.524 . S
C966 C967 1.415 . S
C967 H937 0.950 . S
C967 C962 1.363 . S
C967 C966 1.415 . S
H968 C965 0.999 . S
H969 C950 0.913 . S
H970 C988 0.951 . S
H971 C990 0.951 . S
H972 C992 0.950 . S
H973 C993 0.950 . S
H974 C995 0.950 1_554 S
H975 C998 0.950 . S
H976 C999 0.950 . S
H977 C1001 0.950 . S
H978 C1002 0.950 . S
H979 C1003 0.951 . S
H980 C1005 0.951 . S
H981 C1007 0.950 . S
H982 C1008 0.950 . S
H983 C1010 0.950 . S
H984 C1013 0.950 . S
H985 C1014 0.950 . S
H986 C1016 0.950 . S
H987 C1017 0.950 . S
C988 H970 0.951 . S
C988 C989 1.366 . S
C988 C990 1.388 . S
C989 C988 1.366 . S
C989 C993 1.385 . S
C990 H971 0.951 . S
C990 C988 1.388 . S
C990 C991 1.366 . S
C991 C990 1.366 . S
C991 C992 1.414 . S
C991 C994 1.499 . S
C992 H972 0.950 . S
C992 C991 1.414 . S
C992 C993 1.374 . S
C993 H973 0.950 . S
C993 C989 1.385 . S
C993 C992 1.374 . S
C994 C991 1.499 . S
C994 C995 1.373 1_554 S
C994 C996 1.389 1_554 S
C995 H974 0.950 1_556 S
C995 C994 1.373 1_556 S
C995 C1011 1.377 . S
C996 C994 1.389 1_556 S
C996 C997 1.524 . S
C996 C1010 1.377 . S
C997 C996 1.524 . S
C997 C998 1.397 1_556 S
C997 C1002 1.363 . S
C998 H975 0.950 . S
C998 C997 1.397 1_554 S
C998 C999 1.334 . S
C999 H976 0.950 . S
C999 C998 1.334 . S
C999 C1000 1.287 . S
C1000 C999 1.287 . S
C1000 C1001 1.524 1_554 S
C1000 H1019 0.913 . S
C1001 H977 0.950 . S
C1001 C1000 1.524 1_556 S
C1001 C1002 1.415 . S
C1002 H978 0.950 . S
C1002 C997 1.363 . S
C1002 C1001 1.415 . S
C1003 H979 0.951 . S
C1003 C1004 1.366 . S
C1003 C1005 1.388 . S
C1004 C1003 1.366 . S
C1004 C1008 1.385 . S
C1005 H980 0.951 . S
C1005 C1003 1.388 . S
C1005 C1006 1.366 . S
C1006 C1005 1.366 . S
C1006 C1007 1.414 . S
C1006 C1009 1.499 . S
C1007 H981 0.950 . S
C1007 C1006 1.414 . S
C1007 C1008 1.374 . S
C1008 H982 0.950 . S
C1008 C1004 1.385 . S
C1008 C1007 1.374 . S
C1009 C1006 1.499 . S
C1009 C1010 1.373 . S
C1009 C1011 1.389 . S
C1010 H983 0.950 . S
C1010 C996 1.377 . S
C1010 C1009 1.373 . S
C1011 C995 1.377 . S
C1011 C1009 1.389 . S
C1011 C1012 1.524 . S
C1012 C1011 1.524 . S
C1012 C1013 1.397 . S
C1012 C1017 1.363 . S
C1013 H984 0.950 . S
C1013 C1012 1.397 . S
C1013 C1014 1.334 . S
C1014 H985 0.950 . S
C1014 C1013 1.334 . S
C1014 C1015 1.287 . S
C1015 C1014 1.287 . S
C1015 C1016 1.524 . S
C1015 H1018 0.999 . S
C1016 H986 0.950 . S
C1016 C1015 1.524 . S
C1016 C1017 1.415 . S
C1017 H987 0.950 . S
C1017 C1012 1.363 . S
C1017 C1016 1.415 . S
H1018 C1015 0.999 . S
H1019 C1000 0.913 . S
H1020 C1038 0.951 . S
H1021 C1040 0.951 . S
H1022 C1042 0.950 . S
H1023 C1043 0.950 . S
H1024 C1045 0.950 . S
H1025 C1048 0.950 . S
H1026 C1049 0.950 . S
H1027 C1051 0.950 . S
H1028 C1052 0.950 . S
H1029 C1053 0.951 . S
H1030 C1055 0.951 . S
H1031 C1057 0.950 . S
H1032 C1058 0.950 . S
H1033 C1060 0.950 1_556 S
H1034 C1063 0.950 . S
H1035 C1064 0.950 . S
H1036 C1066 0.950 . S
H1037 C1067 0.950 . S
C1038 H1020 0.951 . S
C1038 C1039 1.366 . S
C1038 C1040 1.388 . S
C1039 C1038 1.366 . S
C1039 C1043 1.385 . S
C1040 H1021 0.951 . S
C1040 C1038 1.388 . S
C1040 C1041 1.366 . S
C1041 C1040 1.366 . S
C1041 C1042 1.414 . S
C1041 C1044 1.499 . S
C1042 H1022 0.950 . S
C1042 C1041 1.414 . S
C1042 C1043 1.374 . S
C1043 H1023 0.950 . S
C1043 C1039 1.385 . S
C1043 C1042 1.374 . S
C1044 C1041 1.499 . S
C1044 C1045 1.373 . S
C1044 C1046 1.389 . S
C1045 H1024 0.950 . S
C1045 C1044 1.373 . S
C1045 C1061 1.377 . S
C1046 C1044 1.389 . S
C1046 C1047 1.524 . S
C1046 C1060 1.377 . S
C1047 C1046 1.524 . S
C1047 C1048 1.397 . S
C1047 C1052 1.363 . S
C1048 H1025 0.950 . S
C1048 C1047 1.397 . S
C1048 C1049 1.334 . S
C1049 H1026 0.950 . S
C1049 C1048 1.334 . S
C1049 C1050 1.287 . S
C1050 C1049 1.287 . S
C1050 C1051 1.524 . S
C1050 H1069 0.913 . S
C1051 H1027 0.950 . S
C1051 C1050 1.524 . S
C1051 C1052 1.415 . S
C1052 H1028 0.950 . S
C1052 C1047 1.363 . S
C1052 C1051 1.415 . S
C1053 H1029 0.951 . S
C1053 C1054 1.366 . S
C1053 C1055 1.388 . S
C1054 C1053 1.366 . S
C1054 C1058 1.385 . S
C1055 H1030 0.951 . S
C1055 C1053 1.388 . S
C1055 C1056 1.366 . S
C1056 C1055 1.366 . S
C1056 C1057 1.414 . S
C1056 C1059 1.499 . S
C1057 H1031 0.950 . S
C1057 C1056 1.414 . S
C1057 C1058 1.374 . S
C1058 H1032 0.950 . S
C1058 C1054 1.385 . S
C1058 C1057 1.374 . S
C1059 C1056 1.499 . S
C1059 C1060 1.373 1_556 S
C1059 C1061 1.389 1_556 S
C1060 H1033 0.950 1_554 S
C1060 C1046 1.377 . S
C1060 C1059 1.373 1_554 S
C1061 C1045 1.377 . S
C1061 C1059 1.389 1_554 S
C1061 C1062 1.524 . S
C1062 C1061 1.524 . S
C1062 C1063 1.397 1_554 S
C1062 C1067 1.363 . S
C1063 H1034 0.950 . S
C1063 C1062 1.397 1_556 S
C1063 C1064 1.334 . S
C1064 H1035 0.950 . S
C1064 C1063 1.334 . S
C1064 C1065 1.287 . S
C1065 C1064 1.287 . S
C1065 C1066 1.524 1_556 S
C1065 H1068 0.999 . S
C1066 H1036 0.950 . S
C1066 C1065 1.524 1_554 S
C1066 C1067 1.415 . S
C1067 H1037 0.950 . S
C1067 C1062 1.363 . S
C1067 C1066 1.415 . S
H1068 C1065 0.999 . S
H1069 C1050 0.913 . S
H1070 C1088 0.951 . S
H1071 C1090 0.951 . S
H1072 C1092 0.950 . S
H1073 C1093 0.950 . S
H1074 C1095 0.950 1_556 S
H1075 C1098 0.950 . S
H1076 C1099 0.950 . S
H1077 C1101 0.950 . S
H1078 C1102 0.950 . S
H1079 C1103 0.951 . S
H1080 C1105 0.951 . S
H1081 C1107 0.950 . S
H1082 C1108 0.950 . S
H1083 C1110 0.950 . S
H1084 C1113 0.950 . S
H1085 C1114 0.950 . S
H1086 C1116 0.950 . S
H1087 C1117 0.950 . S
C1088 H1070 0.951 . S
C1088 C1089 1.366 . S
C1088 C1090 1.388 . S
C1089 C1088 1.366 . S
C1089 C1093 1.385 . S
C1090 H1071 0.951 . S
C1090 C1088 1.388 . S
C1090 C1091 1.366 . S
C1091 C1090 1.366 . S
C1091 C1092 1.414 . S
C1091 C1094 1.499 . S
C1092 H1072 0.950 . S
C1092 C1091 1.414 . S
C1092 C1093 1.374 . S
C1093 H1073 0.950 . S
C1093 C1089 1.385 . S
C1093 C1092 1.374 . S
C1094 C1091 1.499 . S
C1094 C1095 1.373 1_556 S
C1094 C1096 1.389 1_556 S
C1095 H1074 0.950 1_554 S
C1095 C1094 1.373 1_554 S
C1095 C1111 1.377 . S
C1096 C1094 1.389 1_554 S
C1096 C1097 1.529 . S
C1096 C1110 1.377 . S
C1097 C1096 1.529 . S
C1097 C1098 1.391 1_554 S
C1097 C1102 1.365 . S
C1098 H1075 0.950 . S
C1098 C1097 1.391 1_556 S
C1098 C1099 1.334 . S
C1099 H1076 0.950 . S
C1099 C1098 1.334 . S
C1099 C1100 1.287 . S
C1100 C1099 1.287 . S
C1100 C1101 1.524 . S
C1100 H1119 0.913 . S
C1101 H1077 0.950 . S
C1101 C1100 1.524 . S
C1101 C1102 1.415 1_556 S
C1102 H1078 0.950 . S
C1102 C1097 1.365 . S
C1102 C1101 1.415 1_554 S
C1103 H1079 0.951 . S
C1103 C1104 1.366 . S
C1103 C1105 1.388 . S
C1104 C1103 1.366 . S
C1104 C1108 1.385 . S
C1105 H1080 0.951 . S
C1105 C1103 1.388 . S
C1105 C1106 1.366 . S
C1106 C1105 1.366 . S
C1106 C1107 1.414 . S
C1106 C1109 1.499 . S
C1107 H1081 0.950 . S
C1107 C1106 1.414 . S
C1107 C1108 1.374 . S
C1108 H1082 0.950 . S
C1108 C1104 1.385 . S
C1108 C1107 1.374 . S
C1109 C1106 1.499 . S
C1109 C1110 1.373 . S
C1109 C1111 1.389 . S
C1110 H1083 0.950 . S
C1110 C1096 1.377 . S
C1110 C1109 1.373 . S
C1111 C1095 1.377 . S
C1111 C1109 1.389 . S
C1111 C1112 1.524 . S
C1112 C1111 1.524 . S
C1112 C1113 1.397 . S
C1112 C1117 1.363 . S
C1113 H1084 0.950 . S
C1113 C1112 1.397 . S
C1113 C1114 1.334 . S
C1114 H1085 0.950 . S
C1114 C1113 1.334 . S
C1114 C1115 1.287 . S
C1115 C1114 1.287 . S
C1115 C1116 1.524 . S
C1115 H1118 0.999 . S
C1116 H1086 0.950 . S
C1116 C1115 1.524 . S
C1116 C1117 1.415 . S
C1117 H1087 0.950 . S
C1117 C1112 1.363 . S
C1117 C1116 1.415 . S
H1118 C1115 0.999 . S
H1119 C1100 0.913 . S
H1120 C1138 0.951 . S
H1121 C1140 0.951 . S
H1122 C1142 0.950 . S
H1123 C1143 0.950 . S
H1124 C1145 0.950 . S
H1125 C1148 0.950 . S
H1126 C1149 0.950 . S
H1127 C1151 0.950 . S
H1128 C1152 0.950 . S
H1129 C1153 0.951 . S
H1130 C1155 0.951 . S
H1131 C1157 0.950 . S
H1132 C1158 0.950 . S
H1133 C1160 0.950 . S
H1134 C1163 0.950 . S
H1135 C1164 0.950 . S
H1136 C1166 0.950 . S
H1137 C1167 0.950 . S
C1138 H1120 0.951 . S
C1138 C1139 1.366 . S
C1138 C1140 1.388 . S
C1139 C1138 1.366 . S
C1139 C1143 1.385 . S
C1140 H1121 0.951 . S
C1140 C1138 1.388 . S
C1140 C1141 1.366 . S
C1141 C1140 1.366 . S
C1141 C1142 1.414 . S
C1141 C1144 1.499 . S
C1142 H1122 0.950 . S
C1142 C1141 1.414 . S
C1142 C1143 1.374 . S
C1143 H1123 0.950 . S
C1143 C1139 1.385 . S
C1143 C1142 1.374 . S
C1144 C1141 1.499 . S
C1144 C1145 1.373 . S
C1144 C1146 1.389 . S
C1145 H1124 0.950 . S
C1145 C1144 1.373 . S
C1145 C1161 1.377 . S
C1146 C1144 1.389 . S
C1146 C1147 1.524 . S
C1146 C1160 1.377 . S
C1147 C1146 1.524 . S
C1147 C1148 1.397 . S
C1147 C1152 1.363 . S
C1148 H1125 0.950 . S
C1148 C1147 1.397 . S
C1148 C1149 1.334 . S
C1149 H1126 0.950 . S
C1149 C1148 1.334 . S
C1149 C1150 1.287 . S
C1150 C1149 1.287 . S
C1150 C1151 1.524 . S
C1150 H1169 0.913 . S
C1151 H1127 0.950 . S
C1151 C1150 1.524 . S
C1151 C1152 1.415 . S
C1152 H1128 0.950 . S
C1152 C1147 1.363 . S
C1152 C1151 1.415 . S
C1153 H1129 0.951 . S
C1153 C1154 1.366 . S
C1153 C1155 1.388 . S
C1154 C1153 1.366 . S
C1154 C1158 1.385 . S
C1155 H1130 0.951 . S
C1155 C1153 1.388 . S
C1155 C1156 1.366 . S
C1156 C1155 1.366 . S
C1156 C1157 1.414 . S
C1156 C1159 1.499 . S
C1157 H1131 0.950 . S
C1157 C1156 1.414 . S
C1157 C1158 1.374 . S
C1158 H1132 0.950 . S
C1158 C1154 1.385 . S
C1158 C1157 1.374 . S
C1159 C1156 1.499 . S
C1159 C1160 1.373 . S
C1159 C1161 1.389 . S
C1160 H1133 0.950 . S
C1160 C1146 1.377 . S
C1160 C1159 1.373 . S
C1161 C1145 1.377 . S
C1161 C1159 1.389 . S
C1161 C1162 1.524 . S
C1162 C1161 1.524 . S
C1162 C1163 1.397 . S
C1162 C1167 1.363 . S
C1163 H1134 0.950 . S
C1163 C1162 1.397 . S
C1163 C1164 1.334 . S
C1164 H1135 0.950 . S
C1164 C1163 1.334 . S
C1164 C1165 1.287 . S
C1165 C1164 1.287 . S
C1165 C1166 1.524 . S
C1165 H1168 0.999 . S
C1166 H1136 0.950 . S
C1166 C1165 1.524 . S
C1166 C1167 1.415 . S
C1167 H1137 0.950 . S
C1167 C1162 1.363 . S
C1167 C1166 1.415 . S
H1168 C1165 0.999 . S
H1169 C1150 0.913 . S
H1170 C1188 0.951 . S
H1171 C1190 0.951 . S
H1172 C1192 0.950 . S
H1173 C1193 0.950 . S
H1174 C1195 0.950 . S
H1175 C1198 0.950 . S
H1176 C1199 0.950 . S
H1177 C1201 0.950 . S
H1178 C1202 0.950 . S
H1179 C1203 0.951 . S
H1180 C1205 0.951 . S
H1181 C1207 0.950 . S
H1182 C1208 0.950 . S
H1183 C1210 0.950 . S
H1184 C1213 0.950 . S
H1185 C1214 0.950 . S
H1186 C1216 0.950 . S
H1187 C1217 0.950 . S
C1188 H1170 0.951 . S
C1188 C1189 1.366 . S
C1188 C1190 1.388 . S
C1189 C1188 1.366 . S
C1189 C1193 1.385 . S
C1190 H1171 0.951 . S
C1190 C1188 1.388 . S
C1190 C1191 1.366 . S
C1191 C1190 1.366 . S
C1191 C1192 1.414 . S
C1191 C1194 1.499 . S
C1192 H1172 0.950 . S
C1192 C1191 1.414 . S
C1192 C1193 1.374 . S
C1193 H1173 0.950 . S
C1193 C1189 1.385 . S
C1193 C1192 1.374 . S
C1194 C1191 1.499 . S
C1194 C1195 1.373 . S
C1194 C1196 1.389 . S
C1195 H1174 0.950 . S
C1195 C1194 1.373 . S
C1195 C1211 1.377 . S
C1196 C1194 1.389 . S
C1196 C1197 1.524 . S
C1196 C1210 1.377 . S
C1197 C1196 1.524 . S
C1197 C1198 1.397 . S
C1197 C1202 1.363 . S
C1198 H1175 0.950 . S
C1198 C1197 1.397 . S
C1198 C1199 1.334 . S
C1199 H1176 0.950 . S
C1199 C1198 1.334 . S
C1199 C1200 1.287 . S
C1200 C1199 1.287 . S
C1200 C1201 1.524 . S
C1200 H1219 0.913 . S
C1201 H1177 0.950 . S
C1201 C1200 1.524 . S
C1201 C1202 1.415 . S
C1202 H1178 0.950 . S
C1202 C1197 1.363 . S
C1202 C1201 1.415 . S
C1203 H1179 0.951 . S
C1203 C1204 1.366 . S
C1203 C1205 1.388 . S
C1204 C1203 1.366 . S
C1204 C1208 1.385 . S
C1205 H1180 0.951 . S
C1205 C1203 1.388 . S
C1205 C1206 1.366 . S
C1206 C1205 1.366 . S
C1206 C1207 1.414 . S
C1206 C1209 1.499 . S
C1207 H1181 0.950 . S
C1207 C1206 1.414 . S
C1207 C1208 1.374 . S
C1208 H1182 0.950 . S
C1208 C1204 1.385 . S
C1208 C1207 1.374 . S
C1209 C1206 1.499 . S
C1209 C1210 1.373 . S
C1209 C1211 1.389 . S
C1210 H1183 0.950 . S
C1210 C1196 1.377 . S
C1210 C1209 1.373 . S
C1211 C1195 1.377 . S
C1211 C1209 1.389 . S
C1211 C1212 1.524 . S
C1212 C1211 1.524 . S
C1212 C1213 1.397 . S
C1212 C1217 1.363 . S
C1213 H1184 0.950 . S
C1213 C1212 1.397 . S
C1213 C1214 1.334 . S
C1214 H1185 0.950 . S
C1214 C1213 1.334 . S
C1214 C1215 1.287 . S
C1215 C1214 1.287 . S
C1215 C1216 1.524 . S
C1215 H1218 0.999 . S
C1216 H1186 0.950 . S
C1216 C1215 1.524 . S
C1216 C1217 1.415 . S
C1217 H1187 0.950 . S
C1217 C1212 1.363 . S
C1217 C1216 1.415 . S
H1218 C1215 0.999 . S
H1219 C1200 0.913 . S
H1220 C1238 0.951 . S
H1221 C1240 0.951 . S
H1222 C1242 0.950 . S
H1223 C1243 0.950 . S
H1224 C1245 0.950 . S
H1225 C1248 0.950 . S
H1226 C1249 0.950 . S
H1227 C1251 0.950 . S
H1228 C1252 0.950 . S
H1229 C1253 0.951 . S
H1230 C1255 0.951 . S
H1231 C1257 0.950 . S
H1232 C1258 0.950 . S
H1233 C1260 0.950 . S
H1234 C1263 0.950 . S
H1235 C1264 0.950 . S
H1236 C1266 0.950 . S
H1237 C1267 0.950 . S
C1238 H1220 0.951 . S
C1238 C1239 1.366 . S
C1238 C1240 1.388 . S
C1239 C1238 1.366 . S
C1239 C1243 1.385 . S
C1240 H1221 0.951 . S
C1240 C1238 1.388 . S
C1240 C1241 1.366 . S
C1241 C1240 1.366 . S
C1241 C1242 1.414 . S
C1241 C1244 1.499 . S
C1242 H1222 0.950 . S
C1242 C1241 1.414 . S
C1242 C1243 1.374 . S
C1243 H1223 0.950 . S
C1243 C1239 1.385 . S
C1243 C1242 1.374 . S
C1244 C1241 1.499 . S
C1244 C1245 1.373 . S
C1244 C1246 1.389 . S
C1245 H1224 0.950 . S
C1245 C1244 1.373 . S
C1245 C1261 1.377 . S
C1246 C1244 1.389 . S
C1246 C1247 1.524 . S
C1246 C1260 1.377 . S
C1247 C1246 1.524 . S
C1247 C1248 1.397 . S
C1247 C1252 1.363 . S
C1248 H1225 0.950 . S
C1248 C1247 1.397 . S
C1248 C1249 1.334 . S
C1249 H1226 0.950 . S
C1249 C1248 1.334 . S
C1249 C1250 1.287 . S
C1250 C1249 1.287 . S
C1250 C1251 1.524 . S
C1250 H1269 0.913 . S
C1251 H1227 0.950 . S
C1251 C1250 1.524 . S
C1251 C1252 1.415 . S
C1252 H1228 0.950 . S
C1252 C1247 1.363 . S
C1252 C1251 1.415 . S
C1253 H1229 0.951 . S
C1253 C1254 1.366 . S
C1253 C1255 1.388 . S
C1254 C1253 1.366 . S
C1254 C1258 1.385 . S
C1255 H1230 0.951 . S
C1255 C1253 1.388 . S
C1255 C1256 1.366 . S
C1256 C1255 1.366 . S
C1256 C1257 1.414 . S
C1256 C1259 1.499 . S
C1257 H1231 0.950 . S
C1257 C1256 1.414 . S
C1257 C1258 1.374 . S
C1258 H1232 0.950 . S
C1258 C1254 1.385 . S
C1258 C1257 1.374 . S
C1259 C1256 1.499 . S
C1259 C1260 1.373 . S
C1259 C1261 1.389 . S
C1260 H1233 0.950 . S
C1260 C1246 1.377 . S
C1260 C1259 1.373 . S
C1261 C1245 1.377 . S
C1261 C1259 1.389 . S
C1261 C1262 1.524 . S
C1262 C1261 1.524 . S
C1262 C1263 1.397 . S
C1262 C1267 1.363 . S
C1263 H1234 0.950 . S
C1263 C1262 1.397 . S
C1263 C1264 1.334 . S
C1264 H1235 0.950 . S
C1264 C1263 1.334 . S
C1264 C1265 1.287 . S
C1265 C1264 1.287 . S
C1265 C1266 1.524 . S
C1265 H1268 0.999 . S
C1266 H1236 0.950 . S
C1266 C1265 1.524 . S
C1266 C1267 1.415 . S
C1267 H1237 0.950 . S
C1267 C1262 1.363 . S
C1267 C1266 1.415 . S
H1268 C1265 0.999 . S
H1269 C1250 0.913 . S
H1270 C1288 0.951 . S
H1271 C1290 0.951 . S
H1272 C1292 0.950 . S
H1273 C1293 0.950 . S
H1274 C1295 0.950 . S
H1275 C1298 0.950 . S
H1276 C1299 0.950 . S
H1277 C1301 0.950 . S
H1278 C1302 0.950 . S
H1279 C1303 0.951 . S
H1280 C1305 0.951 . S
H1281 C1307 0.950 . S
H1282 C1308 0.950 . S
H1283 C1310 0.950 . S
H1284 C1313 0.950 . S
H1285 C1314 0.950 . S
H1286 C1316 0.950 . S
H1287 C1317 0.950 . S
C1288 H1270 0.951 . S
C1288 C1289 1.366 . S
C1288 C1290 1.388 . S
C1289 C1288 1.366 . S
C1289 C1293 1.385 . S
C1290 H1271 0.951 . S
C1290 C1288 1.388 . S
C1290 C1291 1.366 . S
C1291 C1290 1.366 . S
C1291 C1292 1.414 . S
C1291 C1294 1.499 . S
C1292 H1272 0.950 . S
C1292 C1291 1.414 . S
C1292 C1293 1.374 . S
C1293 H1273 0.950 . S
C1293 C1289 1.385 . S
C1293 C1292 1.374 . S
C1294 C1291 1.499 . S
C1294 C1295 1.373 . S
C1294 C1296 1.389 . S
C1295 H1274 0.950 . S
C1295 C1294 1.373 . S
C1295 C1311 1.377 . S
C1296 C1294 1.389 . S
C1296 C1297 1.524 . S
C1296 C1310 1.377 . S
C1297 C1296 1.524 . S
C1297 C1298 1.397 . S
C1297 C1302 1.363 . S
C1298 H1275 0.950 . S
C1298 C1297 1.397 . S
C1298 C1299 1.334 . S
C1299 H1276 0.950 . S
C1299 C1298 1.334 . S
C1299 C1300 1.287 . S
C1300 C1299 1.287 . S
C1300 C1301 1.524 . S
C1300 H1319 0.913 . S
C1301 H1277 0.950 . S
C1301 C1300 1.524 . S
C1301 C1302 1.415 . S
C1302 H1278 0.950 . S
C1302 C1297 1.363 . S
C1302 C1301 1.415 . S
C1303 H1279 0.951 . S
C1303 C1304 1.366 . S
C1303 C1305 1.388 . S
C1304 C1303 1.366 . S
C1304 C1308 1.385 . S
C1305 H1280 0.951 . S
C1305 C1303 1.388 . S
C1305 C1306 1.366 . S
C1306 C1305 1.366 . S
C1306 C1307 1.414 . S
C1306 C1309 1.499 . S
C1307 H1281 0.950 . S
C1307 C1306 1.414 . S
C1307 C1308 1.374 . S
C1308 H1282 0.950 . S
C1308 C1304 1.385 . S
C1308 C1307 1.374 . S
C1309 C1306 1.499 . S
C1309 C1310 1.373 . S
C1309 C1311 1.389 . S
C1310 H1283 0.950 . S
C1310 C1296 1.377 . S
C1310 C1309 1.373 . S
C1311 C1295 1.377 . S
C1311 C1309 1.389 . S
C1311 C1312 1.524 . S
C1312 C1311 1.524 . S
C1312 C1313 1.397 . S
C1312 C1317 1.363 . S
C1313 H1284 0.950 . S
C1313 C1312 1.397 . S
C1313 C1314 1.334 . S
C1314 H1285 0.950 . S
C1314 C1313 1.334 . S
C1314 C1315 1.287 . S
C1315 C1314 1.287 . S
C1315 C1316 1.524 . S
C1315 H1318 0.999 . S
C1316 H1286 0.950 . S
C1316 C1315 1.524 . S
C1316 C1317 1.415 . S
C1317 H1287 0.950 . S
C1317 C1312 1.363 . S
C1317 C1316 1.415 . S
H1318 C1315 0.999 . S
H1319 C1300 0.913 . S
H1320 C1338 0.951 . S
H1321 C1340 0.951 . S
H1322 C1342 0.950 . S
H1323 C1343 0.950 . S
H1324 C1345 0.950 . S
H1325 C1348 0.950 . S
H1326 C1349 0.950 . S
H1327 C1351 0.950 . S
H1328 C1352 0.950 1_655 S
H1329 C1353 0.951 . S
H1330 C1355 0.951 . S
H1331 C1357 0.950 . S
H1332 C1358 0.950 . S
H1333 C1360 0.950 . S
H1334 C1363 0.950 . S
H1335 C1364 0.950 . S
H1336 C1366 0.950 . S
H1337 C1367 0.950 1_455 S
C1338 H1320 0.951 . S
C1338 C1339 1.366 . S
C1338 C1340 1.388 . S
C1339 C1338 1.366 . S
C1339 C1343 1.385 . S
C1340 H1321 0.951 . S
C1340 C1338 1.388 . S
C1340 C1341 1.366 . S
C1341 C1340 1.366 . S
C1341 C1342 1.414 . S
C1341 C1344 1.499 . S
C1342 H1322 0.950 . S
C1342 C1341 1.414 . S
C1342 C1343 1.374 . S
C1343 H1323 0.950 . S
C1343 C1339 1.385 . S
C1343 C1342 1.374 . S
C1344 C1341 1.499 . S
C1344 C1345 1.373 . S
C1344 C1346 1.389 . S
C1345 H1324 0.950 . S
C1345 C1344 1.373 . S
C1345 C1361 1.377 1_455 S
C1346 C1344 1.389 . S
C1346 C1347 1.524 . S
C1346 C1360 1.377 1_455 S
C1347 C1346 1.524 . S
C1347 C1348 1.397 . S
C1347 C1352 1.363 . S
C1348 H1325 0.950 . S
C1348 C1347 1.397 . S
C1348 C1349 1.334 . S
C1349 H1326 0.950 . S
C1349 C1348 1.334 . S
C1349 C1350 1.287 . S
C1350 C1349 1.287 . S
C1350 C1351 1.524 . S
C1350 H1369 0.913 . S
C1351 H1327 0.950 . S
C1351 C1350 1.524 . S
C1351 C1352 1.415 . S
C1352 H1328 0.950 1_455 S
C1352 C1347 1.363 . S
C1352 C1351 1.415 . S
C1353 H1329 0.951 . S
C1353 C1354 1.366 . S
C1353 C1355 1.388 . S
C1354 C1353 1.366 . S
C1354 C1358 1.385 . S
C1355 H1330 0.951 . S
C1355 C1353 1.388 . S
C1355 C1356 1.366 . S
C1356 C1355 1.366 . S
C1356 C1357 1.414 . S
C1356 C1359 1.499 . S
C1357 H1331 0.950 . S
C1357 C1356 1.414 . S
C1357 C1358 1.374 . S
C1358 H1332 0.950 . S
C1358 C1354 1.385 . S
C1358 C1357 1.374 . S
C1359 C1356 1.499 . S
C1359 C1360 1.373 . S
C1359 C1361 1.389 . S
C1360 H1333 0.950 . S
C1360 C1346 1.377 1_655 S
C1360 C1359 1.373 . S
C1361 C1345 1.377 1_655 S
C1361 C1359 1.389 . S
C1361 C1362 1.524 . S
C1362 C1361 1.524 . S
C1362 C1363 1.397 . S
C1362 C1367 1.363 . S
C1363 H1334 0.950 . S
C1363 C1362 1.397 . S
C1363 C1364 1.334 . S
C1364 H1335 0.950 . S
C1364 C1363 1.334 . S
C1364 C1365 1.287 . S
C1365 C1364 1.287 . S
C1365 C1366 1.524 . S
C1365 H1368 0.999 . S
C1366 H1336 0.950 . S
C1366 C1365 1.524 . S
C1366 C1367 1.415 . S
C1367 H1337 0.950 1_655 S
C1367 C1362 1.363 . S
C1367 C1366 1.415 . S
H1368 C1365 0.999 . S
H1369 C1350 0.913 . S
H1370 C1388 0.951 . S
H1371 C1390 0.951 . S
H1372 C1392 0.950 . S
H1373 C1393 0.950 . S
H1374 C1395 0.950 . S
H1375 C1398 0.950 . S
H1376 C1399 0.950 . S
H1377 C1401 0.950 . S
H1378 C1402 0.950 . S
H1379 C1403 0.951 . S
H1380 C1405 0.951 . S
H1381 C1407 0.950 . S
H1382 C1408 0.950 . S
H1383 C1410 0.950 . S
H1384 C1413 0.950 . S
H1385 C1414 0.950 . S
H1386 C1416 0.950 . S
H1387 C1417 0.950 . S
C1388 H1370 0.951 . S
C1388 C1389 1.366 . S
C1388 C1390 1.388 . S
C1389 C1388 1.366 . S
C1389 C1393 1.385 . S
C1390 H1371 0.951 . S
C1390 C1388 1.388 . S
C1390 C1391 1.366 . S
C1391 C1390 1.366 . S
C1391 C1392 1.414 . S
C1391 C1394 1.499 . S
C1392 H1372 0.950 . S
C1392 C1391 1.414 . S
C1392 C1393 1.374 . S
C1393 H1373 0.950 . S
C1393 C1389 1.385 . S
C1393 C1392 1.374 . S
C1394 C1391 1.499 . S
C1394 C1395 1.373 . S
C1394 C1396 1.389 . S
C1395 H1374 0.950 . S
C1395 C1394 1.373 . S
C1395 C1411 1.377 1_655 S
C1396 C1394 1.389 . S
C1396 C1397 1.524 . S
C1396 C1410 1.377 1_655 S
C1397 C1396 1.524 . S
C1397 C1398 1.397 . S
C1397 C1402 1.363 . S
C1398 H1375 0.950 . S
C1398 C1397 1.397 . S
C1398 C1399 1.334 . S
C1399 H1376 0.950 . S
C1399 C1398 1.334 . S
C1399 C1400 1.287 . S
C1400 C1399 1.287 . S
C1400 C1401 1.524 . S
C1400 H1419 0.913 . S
C1401 H1377 0.950 . S
C1401 C1400 1.524 . S
C1401 C1402 1.415 . S
C1402 H1378 0.950 . S
C1402 C1397 1.363 . S
C1402 C1401 1.415 . S
C1403 H1379 0.951 . S
C1403 C1404 1.366 . S
C1403 C1405 1.388 . S
C1404 C1403 1.366 . S
C1404 C1408 1.385 . S
C1405 H1380 0.951 . S
C1405 C1403 1.388 . S
C1405 C1406 1.366 . S
C1406 C1405 1.366 . S
C1406 C1407 1.414 . S
C1406 C1409 1.499 . S
C1407 H1381 0.950 . S
C1407 C1406 1.414 . S
C1407 C1408 1.374 . S
C1408 H1382 0.950 . S
C1408 C1404 1.385 . S
C1408 C1407 1.374 . S
C1409 C1406 1.499 . S
C1409 C1410 1.373 . S
C1409 C1411 1.389 . S
C1410 H1383 0.950 . S
C1410 C1396 1.377 1_455 S
C1410 C1409 1.373 . S
C1411 C1395 1.377 1_455 S
C1411 C1409 1.389 . S
C1411 C1412 1.524 . S
C1412 C1411 1.524 . S
C1412 C1413 1.397 . S
C1412 C1417 1.363 . S
C1413 H1384 0.950 . S
C1413 C1412 1.397 . S
C1413 C1414 1.334 . S
C1414 H1385 0.950 . S
C1414 C1413 1.334 . S
C1414 C1415 1.287 . S
C1415 C1414 1.287 . S
C1415 C1416 1.524 . S
C1415 H1418 0.999 . S
C1416 H1386 0.950 . S
C1416 C1415 1.524 . S
C1416 C1417 1.415 . S
C1417 H1387 0.950 . S
C1417 C1412 1.363 . S
C1417 C1416 1.415 . S
H1418 C1415 0.999 . S
H1419 C1400 0.913 . S
H1420 C1438 0.951 . S
H1421 C1440 0.951 . S
H1422 C1442 0.950 . S
H1423 C1443 0.950 . S
H1424 C1445 0.950 . S
H1425 C1448 0.950 . S
H1426 C1449 0.950 . S
H1427 C1451 0.950 . S
H1428 C1452 0.950 . S
H1429 C1453 0.951 . S
H1430 C1455 0.951 . S
H1431 C1457 0.950 . S
H1432 C1458 0.950 . S
H1433 C1460 0.950 . S
H1434 C1463 0.950 . S
H1435 C1464 0.950 . S
H1436 C1466 0.950 . S
H1437 C1467 0.950 . S
C1438 H1420 0.951 . S
C1438 C1439 1.366 . S
C1438 C1440 1.388 . S
C1439 C1438 1.366 . S
C1439 C1443 1.385 . S
C1440 H1421 0.951 . S
C1440 C1438 1.388 . S
C1440 C1441 1.366 . S
C1441 C1440 1.366 . S
C1441 C1442 1.414 . S
C1441 C1444 1.499 . S
C1442 H1422 0.950 . S
C1442 C1441 1.414 . S
C1442 C1443 1.374 . S
C1443 H1423 0.950 . S
C1443 C1439 1.385 . S
C1443 C1442 1.374 . S
C1444 C1441 1.499 . S
C1444 C1445 1.373 . S
C1444 C1446 1.389 . S
C1445 H1424 0.950 . S
C1445 C1444 1.373 . S
C1445 C1461 1.377 . S
C1446 C1444 1.389 . S
C1446 C1447 1.524 . S
C1446 C1460 1.377 . S
C1447 C1446 1.524 . S
C1447 C1448 1.397 . S
C1447 C1452 1.363 . S
C1448 H1425 0.950 . S
C1448 C1447 1.397 . S
C1448 C1449 1.334 1_556 S
C1449 H1426 0.950 . S
C1449 C1448 1.334 1_554 S
C1449 C1450 1.287 . S
C1450 C1449 1.287 . S
C1450 C1451 1.524 1_554 S
C1450 H1469 0.913 . S
C1451 H1427 0.950 . S
C1451 C1450 1.524 1_556 S
C1451 C1452 1.415 . S
C1452 H1428 0.950 . S
C1452 C1447 1.363 . S
C1452 C1451 1.415 . S
C1453 H1429 0.951 . S
C1453 C1454 1.366 . S
C1453 C1455 1.388 . S
C1454 C1453 1.366 . S
C1454 C1458 1.385 . S
C1455 H1430 0.951 . S
C1455 C1453 1.388 . S
C1455 C1456 1.366 . S
C1456 C1455 1.366 . S
C1456 C1457 1.414 . S
C1456 C1459 1.499 . S
C1457 H1431 0.950 . S
C1457 C1456 1.414 . S
C1457 C1458 1.374 . S
C1458 H1432 0.950 . S
C1458 C1454 1.385 . S
C1458 C1457 1.374 . S
C1459 C1456 1.499 . S
C1459 C1460 1.373 . S
C1459 C1461 1.389 . S
C1460 H1433 0.950 . S
C1460 C1446 1.377 . S
C1460 C1459 1.373 . S
C1461 C1445 1.377 . S
C1461 C1459 1.389 . S
C1461 C1462 1.524 . S
C1462 C1461 1.524 . S
C1462 C1463 1.397 . S
C1462 C1467 1.363 . S
C1463 H1434 0.950 . S
C1463 C1462 1.397 . S
C1463 C1464 1.334 . S
C1464 H1435 0.950 . S
C1464 C1463 1.334 . S
C1464 C1465 1.287 . S
C1465 C1464 1.287 . S
C1465 C1466 1.524 . S
C1465 H1468 0.999 . S
C1466 H1436 0.950 . S
C1466 C1465 1.524 . S
C1466 C1467 1.415 . S
C1467 H1437 0.950 . S
C1467 C1462 1.363 . S
C1467 C1466 1.415 . S
H1468 C1465 0.999 . S
H1469 C1450 0.913 . S
H1470 C1488 0.951 . S
H1471 C1490 0.951 . S
H1472 C1492 0.950 . S
H1473 C1493 0.950 . S
H1474 C1495 0.950 . S
H1475 C1498 0.950 . S
H1476 C1499 0.950 . S
H1477 C1501 0.950 1_556 S
H1478 C1502 0.950 . S
H1479 C1503 0.951 . S
H1480 C1505 0.951 . S
H1481 C1507 0.950 . S
H1482 C1508 0.950 . S
H1483 C1510 0.950 . S
H1484 C1513 0.950 . S
H1485 C1514 0.950 . S
H1486 C1516 0.950 . S
H1487 C1517 0.950 . S
C1488 H1470 0.951 . S
C1488 C1489 1.366 . S
C1488 C1490 1.388 . S
C1489 C1488 1.366 . S
C1489 C1493 1.385 . S
C1490 H1471 0.951 . S
C1490 C1488 1.388 . S
C1490 C1491 1.366 . S
C1491 C1490 1.366 . S
C1491 C1492 1.414 . S
C1491 C1494 1.499 . S
C1492 H1472 0.950 . S
C1492 C1491 1.414 . S
C1492 C1493 1.374 . S
C1493 H1473 0.950 . S
C1493 C1489 1.385 . S
C1493 C1492 1.374 . S
C1494 C1491 1.499 . S
C1494 C1495 1.373 . S
C1494 C1496 1.389 . S
C1495 H1474 0.950 . S
C1495 C1494 1.373 . S
C1495 C1511 1.377 . S
C1496 C1494 1.389 . S
C1496 C1497 1.524 . S
C1496 C1510 1.377 . S
C1497 C1496 1.524 . S
C1497 C1498 1.397 . S
C1497 C1502 1.363 . S
C1498 H1475 0.950 . S
C1498 C1497 1.397 . S
C1498 C1499 1.334 1_554 S
C1499 H1476 0.950 . S
C1499 C1498 1.334 1_556 S
C1499 C1500 1.287 . S
C1500 C1499 1.287 . S
C1500 C1501 1.524 1_556 S
C1500 H1519 0.913 . S
C1501 H1477 0.950 1_554 S
C1501 C1500 1.524 1_554 S
C1501 C1502 1.415 . S
C1502 H1478 0.950 . S
C1502 C1497 1.363 . S
C1502 C1501 1.415 . S
C1503 H1479 0.951 . S
C1503 C1504 1.366 . S
C1503 C1505 1.388 . S
C1504 C1503 1.366 . S
C1504 C1508 1.385 . S
C1505 H1480 0.951 . S
C1505 C1503 1.388 . S
C1505 C1506 1.366 . S
C1506 C1505 1.366 . S
C1506 C1507 1.414 . S
C1506 C1509 1.499 . S
C1507 H1481 0.950 . S
C1507 C1506 1.414 . S
C1507 C1508 1.374 . S
C1508 H1482 0.950 . S
C1508 C1504 1.385 . S
C1508 C1507 1.374 . S
C1509 C1506 1.499 . S
C1509 C1510 1.373 . S
C1509 C1511 1.389 . S
C1510 H1483 0.950 . S
C1510 C1496 1.377 . S
C1510 C1509 1.373 . S
C1511 C1495 1.377 . S
C1511 C1509 1.389 . S
C1511 C1512 1.524 . S
C1512 C1511 1.524 . S
C1512 C1513 1.397 . S
C1512 C1517 1.363 . S
C1513 H1484 0.950 . S
C1513 C1512 1.397 . S
C1513 C1514 1.334 . S
C1514 H1485 0.950 . S
C1514 C1513 1.334 . S
C1514 C1515 1.287 . S
C1515 C1514 1.287 . S
C1515 C1516 1.524 . S
C1515 H1518 0.999 . S
C1516 H1486 0.950 . S
C1516 C1515 1.524 . S
C1516 C1517 1.415 . S
C1517 H1487 0.950 . S
C1517 C1512 1.363 . S
C1517 C1516 1.415 . S
H1518 C1515 0.999 . S
H1519 C1500 0.913 . S
C339 C7 1.704 . S
C354 C296 1.704 . S
C389 C256 1.705 . S
C404 C47 1.704 . S
C439 C207 1.704 . S
C454 C96 1.704 . S
C489 C167 1.704 . S
C504 C136 1.704 . S
C539 C90 1.545 . S
C554 C10 1.548 . S
C589 C50 1.549 . S
C604 C130 1.546 . S
C639 C139 1.548 . S
C654 C59 1.545 . S
C689 C99 1.548 . S
C704 C19 1.545 . S
C739 C170 1.450 . S
C754 C250 1.450 . S
C789 C210 1.450 . S
C804 C290 1.450 . S
C839 C299 1.451 . S
C854 C219 1.451 . S
C889 C259 1.450 . S
C904 C179 1.451 . S
C939 C11 2.089 . S
C954 C2 2.089 . S
C989 C51 2.088 . S
C1004 C42 2.088 . S
C1039 C91 2.088 . S
C1054 C82 2.088 . S
C1089 C122 2.088 . S
C1104 C131 2.088 . S
C1139 C162 2.088 . S
C1154 C171 2.088 . S
C1189 C211 2.088 . S
C1204 C202 2.088 . S
C1239 C242 2.088 . S
C1254 C251 2.088 . S
C1289 C282 2.088 . S
C1304 C291 2.088 . S
C1339 C16 2.375 . S
C1354 C56 2.375 . S
C1389 C127 2.375 . S
C1404 C87 2.375 . S
C1439 C176 2.377 . S
C1454 C216 2.376 . S
C1489 C287 2.377 . S
C1504 C247 2.376 . S
