# Generated by pormake.
# Topology wkj, (6)-cn, num edge types: 1
# Building blocks:
#     Node 0, Type 0, BuildingBlock: BETDIP_clean_sbu_0, # of connection points: 6
#     Node 1, Type 0, BuildingBlock: BETDIP_clean_sbu_0, # of connection points: 6
#     Node 2, Type 0, BuildingBlock: BETDIP_clean_sbu_0, # of connection points: 6
#     Node 3, Type 0, BuildingBlock: BETDIP_clean_sbu_0, # of connection points: 6
#     Node 4, Type 0, BuildingBlock: BETDIP_clean_sbu_0, # of connection points: 6
#     Node 5, Type 0, BuildingBlock: BETDIP_clean_sbu_0, # of connection points: 6
#     Node 6, Type 0, BuildingBlock: BETDIP_clean_sbu_0, # of connection points: 6
#     Node 7, Type 0, BuildingBlock: BETDIP_clean_sbu_0, # of connection points: 6
#     Node 8, Type 0, BuildingBlock: BETDIP_clean_sbu_0, # of connection points: 6
#     Node 9, Type 0, BuildingBlock: BETDIP_clean_sbu_0, # of connection points: 6
#     Node 10, Type 0, BuildingBlock: BETDIP_clean_sbu_0, # of connection points: 6
#     Node 11, Type 0, BuildingBlock: BETDIP_clean_sbu_0, # of connection points: 6
#     Edge 12, Type (0, 0), BuildingBlock: ZUJKAS_clean_linker_0, # of connection points: 2
#     Edge 13, Type (0, 0), BuildingBlock: ZUJKAS_clean_linker_0, # of connection points: 2
#     Edge 14, Type (0, 0), BuildingBlock: ZUJKAS_clean_linker_0, # of connection points: 2
#     Edge 15, Type (0, 0), BuildingBlock: ZUJKAS_clean_linker_0, # of connection points: 2
#     Edge 16, Type (0, 0), BuildingBlock: ZUJKAS_clean_linker_0, # of connection points: 2
#     Edge 17, Type (0, 0), BuildingBlock: ZUJKAS_clean_linker_0, # of connection points: 2
#     Edge 18, Type (0, 0), BuildingBlock: ZUJKAS_clean_linker_0, # of connection points: 2
#     Edge 19, Type (0, 0), BuildingBlock: ZUJKAS_clean_linker_0, # of connection points: 2
#     Edge 20, Type (0, 0), BuildingBlock: ZUJKAS_clean_linker_0, # of connection points: 2
#     Edge 21, Type (0, 0), BuildingBlock: ZUJKAS_clean_linker_0, # of connection points: 2
#     Edge 22, Type (0, 0), BuildingBlock: ZUJKAS_clean_linker_0, # of connection points: 2
#     Edge 23, Type (0, 0), BuildingBlock: ZUJKAS_clean_linker_0, # of connection points: 2
#     Edge 24, Type (0, 0), BuildingBlock: ZUJKAS_clean_linker_0, # of connection points: 2
#     Edge 25, Type (0, 0), BuildingBlock: ZUJKAS_clean_linker_0, # of connection points: 2
#     Edge 26, Type (0, 0), BuildingBlock: ZUJKAS_clean_linker_0, # of connection points: 2
#     Edge 27, Type (0, 0), BuildingBlock: ZUJKAS_clean_linker_0, # of connection points: 2
#     Edge 28, Type (0, 0), BuildingBlock: ZUJKAS_clean_linker_0, # of connection points: 2
#     Edge 29, Type (0, 0), BuildingBlock: ZUJKAS_clean_linker_0, # of connection points: 2
#     Edge 30, Type (0, 0), BuildingBlock: ZUJKAS_clean_linker_0, # of connection points: 2
#     Edge 31, Type (0, 0), BuildingBlock: ZUJKAS_clean_linker_0, # of connection points: 2
#     Edge 32, Type (0, 0), BuildingBlock: ZUJKAS_clean_linker_0, # of connection points: 2
#     Edge 33, Type (0, 0), BuildingBlock: ZUJKAS_clean_linker_0, # of connection points: 2
#     Edge 34, Type (0, 0), BuildingBlock: ZUJKAS_clean_linker_0, # of connection points: 2
#     Edge 35, Type (0, 0), BuildingBlock: ZUJKAS_clean_linker_0, # of connection points: 2
#     Edge 36, Type (0, 0), BuildingBlock: ZUJKAS_clean_linker_0, # of connection points: 2
#     Edge 37, Type (0, 0), BuildingBlock: ZUJKAS_clean_linker_0, # of connection points: 2
#     Edge 38, Type (0, 0), BuildingBlock: ZUJKAS_clean_linker_0, # of connection points: 2
#     Edge 39, Type (0, 0), BuildingBlock: ZUJKAS_clean_linker_0, # of connection points: 2
#     Edge 40, Type (0, 0), BuildingBlock: ZUJKAS_clean_linker_0, # of connection points: 2
#     Edge 41, Type (0, 0), BuildingBlock: ZUJKAS_clean_linker_0, # of connection points: 2
#     Edge 42, Type (0, 0), BuildingBlock: ZUJKAS_clean_linker_0, # of connection points: 2
#     Edge 43, Type (0, 0), BuildingBlock: ZUJKAS_clean_linker_0, # of connection points: 2
#     Edge 44, Type (0, 0), BuildingBlock: ZUJKAS_clean_linker_0, # of connection points: 2
#     Edge 45, Type (0, 0), BuildingBlock: ZUJKAS_clean_linker_0, # of connection points: 2
#     Edge 46, Type (0, 0), BuildingBlock: ZUJKAS_clean_linker_0, # of connection points: 2
#     Edge 47, Type (0, 0), BuildingBlock: ZUJKAS_clean_linker_0, # of connection points: 2
# Relax obj value: 0.586
# Max RMSD: 0.174
# Mean RMSD: 0.174
data_MOF--net-wkj--node1-BETDIP_clean_sbu_0--edge1-ZUJKAS_clean_linker_0
_symmetry_space_group_name_H-M    P1
_symmetry_Int_Tables_number       1
_symmetry_cell_setting            triclinic
loop_
_symmetry_equiv_pos_as_xyz
'x, y, z'
_cell_length_a     62.14836
_cell_length_b     62.22569
_cell_length_c     36.996497
_cell_angle_alpha  90.136257
_cell_angle_beta   89.856348
_cell_angle_gamma 119.82246
loop_
_atom_site_label
_atom_site_type_symbol
_atom_site_fract_x
_atom_site_fract_y
_atom_site_fract_z
_atom_type_partial_charge
Tb0 Tb 0.4808 0.09014 0.36372 0.0
Tb1 Tb 0.53237 0.10824 0.34371 0.0
C2 C 0.43822 0.07531 0.38892 0.0
C3 C 0.42332 0.06698 0.42206 0.0
C4 C 0.42392 0.04948 0.44522 0.0
C5 C 0.40812 0.04085 0.47518 0.0
C6 C 0.39163 0.04969 0.48248 0.0
C7 C 0.39156 0.06761 0.45954 0.0
C8 C 0.40722 0.0761 0.42957 0.0
C9 C 0.50088 0.13112 0.32252 0.0
C10 C 0.52236 0.10887 0.42892 0.0
C11 C 0.57606 0.13961 0.3262 0.0
C12 C 0.58455 0.16345 0.30807 0.0
C13 C 0.56743 0.16713 0.28836 0.0
C14 C 0.57411 0.19034 0.27431 0.0
C15 C 0.59817 0.21033 0.27931 0.0
C16 C 0.61556 0.20663 0.2985 0.0
C17 C 0.60866 0.18333 0.31325 0.0
C18 C 0.51047 0.06186 0.36792 0.0
C19 C 0.49008 0.07199 0.28875 0.0
O20 O 0.44523 0.06054 0.37424 0.0
O21 O 0.45548 0.09866 0.38789 0.0
O22 O 0.51079 0.1263 0.34855 0.0
O23 O 0.47919 0.11207 0.31821 0.0
O24 O 0.49854 0.10008 0.41942 0.0
O25 O 0.53906 0.11324 0.40309 0.0
O26 O 0.56684 0.13835 0.35828 0.0
O27 O 0.56198 0.11985 0.30702 0.0
O28 O 0.50676 0.07919 0.37635 0.0
O29 O 0.52919 0.07138 0.34566 0.0
O30 O 0.5126 0.09201 0.2914 0.0
O31 O 0.47505 0.06544 0.31718 0.0
H32 H 0.43624 0.0422 0.4399 0.0
H33 H 0.40845 0.02685 0.49211 0.0
H34 H 0.37943 0.07511 0.46475 0.0
H35 H 0.40657 0.08965 0.41195 0.0
H36 H 0.54873 0.15203 0.28408 0.0
H37 H 0.56057 0.1925 0.25868 0.0
H38 H 0.63437 0.22171 0.30203 0.0
H39 H 0.62202 0.18086 0.32879 0.0
Tb40 Tb 0.37325 0.46314 0.68068 0.0
Tb41 Tb 0.41272 0.5133 0.67178 0.0
C42 C 0.341 0.41988 0.69928 0.0
C43 C 0.32684 0.40768 0.73192 0.0
C44 C 0.33496 0.41879 0.76578 0.0
C45 C 0.32201 0.40667 0.79687 0.0
C46 C 0.30052 0.38318 0.79471 0.0
C47 C 0.29192 0.37248 0.76048 0.0
C48 C 0.30502 0.38469 0.72928 0.0
C49 C 0.35891 0.49168 0.64735 0.0
C50 C 0.39093 0.50198 0.74924 0.0
C51 C 0.4352 0.55656 0.6471 0.0
C52 C 0.43083 0.57762 0.64973 0.0
C53 C 0.40746 0.5738 0.6603 0.0
C54 C 0.40132 0.5923 0.65477 0.0
C55 C 0.41857 0.61494 0.63892 0.0
C56 C 0.44275 0.61953 0.63184 0.0
C57 C 0.44878 0.6009 0.63701 0.0
C58 C 0.42687 0.48557 0.70616 0.0
C59 C 0.4074 0.47333 0.61043 0.0
O60 O 0.3649 0.42828 0.7006 0.0
O61 O 0.3358 0.43575 0.68461 0.0
O62 O 0.37287 0.49754 0.67494 0.0
O63 O 0.35476 0.47023 0.63631 0.0
O64 O 0.37873 0.47854 0.73752 0.0
O65 O 0.40239 0.51996 0.72542 0.0
O66 O 0.44187 0.55007 0.67677 0.0
O67 O 0.41808 0.53749 0.62936 0.0
O68 O 0.41187 0.47896 0.68032 0.0
O69 O 0.43725 0.50936 0.71027 0.0
O70 O 0.41876 0.49684 0.62151 0.0
O71 O 0.38912 0.45615 0.63057 0.0
H72 H 0.35168 0.43651 0.76834 0.0
H73 H 0.32963 0.41527 0.82272 0.0
H74 H 0.27544 0.35446 0.75791 0.0
H75 H 0.29838 0.376 0.70316 0.0
H76 H 0.39342 0.55592 0.6704 0.0
H77 H 0.38257 0.58828 0.66039 0.0
H78 H 0.45631 0.63667 0.61917 0.0
H79 H 0.4669 0.60413 0.62876 0.0
Tb80 Tb 0.89371 0.39429 1.02708 0.0
Tb81 Tb 0.86704 0.42042 1.00648 0.0
C82 C 0.91725 0.37389 1.04974 0.0
C83 C 0.932 0.37243 1.07933 0.0
C84 C 0.92927 0.37816 1.11509 0.0
C85 C 0.94262 0.37478 0.14274 0.0
C86 C 0.95902 0.36591 0.13485 0.0
C87 C 0.96182 0.36058 1.0988 0.0
C88 C 0.94844 0.36383 1.07135 0.0
C89 C 0.85057 0.36618 0.99253 0.0
C90 C 0.87153 0.41288 1.09142 0.0
C91 C 0.83398 0.42785 0.9804 0.0
C92 C 0.81715 0.41882 0.94923 0.0
C93 C 0.79239 0.41286 0.95388 0.0
C94 C 0.77536 0.40216 0.92569 0.0
C95 C 0.78285 0.39727 0.89225 0.0
C96 C 0.80788 0.40376 0.88754 0.0
C97 C 0.82482 0.41426 0.91584 0.0
C98 C 0.90897 0.44982 1.03931 0.0
C99 C 0.90591 0.41781 0.94901 0.0
O100 O 0.92735 0.39425 1.03069 0.0
O101 O 0.8936 0.36528 1.05575 0.0
O102 O 0.85501 0.38226 1.01662 0.0
O103 O 0.8708 0.36564 0.98745 0.0
O104 O 0.88685 0.40467 1.08183 0.0
O105 O 0.85951 0.418 1.06598 0.0
O106 O 0.82975 0.41095 1.00464 0.0
O107 O 0.85772 0.44223 0.97396 0.0
O108 O 0.9045 0.43204 1.01832 0.0
O109 O 0.89019 0.45356 1.03839 0.0
O110 O 0.88579 0.42031 0.95359 0.0
O111 O 0.91384 0.40997 0.97642 0.0
H112 H 0.91667 0.38491 0.12163 0.0
H113 H 0.94022 0.37926 0.17022 0.0
H114 H 0.9739 0.3533 1.09184 0.0
H115 H 0.95059 0.35918 1.04382 0.0
H116 H 0.78608 0.41599 0.97967 0.0
H117 H 0.75623 0.39719 0.9304 0.0
H118 H 0.81444 0.40075 0.86193 0.0
H119 H 0.8438 0.41849 0.91173 0.0
Tb120 Tb 0.5128 0.8946 0.36448 0.0
Tb121 Tb 0.46007 0.87186 0.3453 0.0
C122 C 0.55685 0.91299 0.38586 0.0
C123 C 0.57387 0.92448 0.41612 0.0
C124 C 0.56807 0.93503 0.44527 0.0
C125 C 0.58563 0.9475 0.4723 0.0
C126 C 0.60907 0.9491 0.47086 0.0
C127 C 0.61429 0.9376 0.44208 0.0
C128 C 0.59689 0.92555 0.41486 0.0
C129 C 0.49472 0.85229 0.32674 0.0
C130 C 0.4724 0.87429 0.42951 0.0
C131 C 0.41945 0.83958 0.31917 0.0
C132 C 0.41366 0.8187 0.29441 0.0
C133 C 0.40573 0.79491 0.30857 0.0
C134 C 0.40445 0.77604 0.28655 0.0
C135 C 0.41073 0.78048 0.24982 0.0
C136 C 0.41692 0.80376 0.23521 0.0
C137 C 0.41851 0.82269 0.25727 0.0
C138 C 0.47572 0.91441 0.37866 0.0
C139 C 0.50172 0.90968 0.28799 0.0
O140 O 0.54795 0.92588 0.3706 0.0
O141 O 0.54029 0.88955 0.38916 0.0
O142 O 0.4842 0.8569 0.35242 0.0
O143 O 0.51583 0.87192 0.32156 0.0
O144 O 0.49613 0.8881 0.41981 0.0
O145 O 0.45499 0.86377 0.40421 0.0
O146 O 0.42768 0.83773 0.35075 0.0
O147 O 0.43214 0.86211 0.30617 0.0
O148 O 0.48798 0.90837 0.35791 0.0
O149 O 0.4525 0.89748 0.37585 0.0
O150 O 0.47859 0.89077 0.29285 0.0
O151 O 0.51803 0.9161 0.31471 0.0
H152 H 0.55016 0.93386 0.44682 0.0
H153 H 0.58098 0.9563 0.49384 0.0
H154 H 0.63183 0.93789 0.4405 0.0
H155 H 0.60151 0.91723 0.39257 0.0
H156 H 0.40165 0.79121 0.3371 0.0
H157 H 0.39953 0.75834 0.29862 0.0
H158 H 0.42099 0.80754 0.20669 0.0
H159 H 0.42432 0.84065 0.24537 0.0
Tb160 Tb 0.61645 0.52816 0.68553 0.0
Tb161 Tb 0.58043 0.47695 0.67608 0.0
C162 C 0.64517 0.57265 0.70328 0.0
C163 C 0.65199 0.58917 0.73454 0.0
C164 C 0.6406 0.58055 0.7682 0.0
C165 C 0.6463 0.59711 0.79694 0.0
C166 C 0.66342 0.62249 0.79233 0.0
C167 C 0.67508 0.63087 0.75864 0.0
C168 C 0.66939 0.6143 0.72998 0.0
C169 C 0.63439 0.50294 0.65023 0.0
C170 C 0.60218 0.49015 0.75335 0.0
C171 C 0.56094 0.43342 0.65254 0.0
C172 C 0.5687 0.41463 0.65375 0.0
C173 C 0.59397 0.42188 0.65239 0.0
C174 C 0.60137 0.40438 0.6464 0.0
C175 C 0.5836 0.37915 0.64214 0.0
C176 C 0.55839 0.37173 0.64777 0.0
C177 C 0.55099 0.38939 0.6531 0.0
C178 C 0.56263 0.5009 0.71283 0.0
C179 C 0.58289 0.51531 0.61447 0.0
O180 O 0.62273 0.56432 0.69098 0.0
O181 O 0.65135 0.55545 0.70431 0.0
O182 O 0.62042 0.49575 0.6778 0.0
O183 O 0.63744 0.52428 0.64104 0.0
O184 O 0.61062 0.51349 0.74253 0.0
O185 O 0.59391 0.47246 0.72862 0.0
O186 O 0.55457 0.43909 0.68326 0.0
O187 O 0.5752 0.45303 0.63316 0.0
O188 O 0.57736 0.50923 0.68653 0.0
O189 O 0.55451 0.47738 0.71586 0.0
O190 O 0.57312 0.49189 0.62531 0.0
O191 O 0.60005 0.53323 0.63493 0.0
H192 H 0.62701 0.5612 0.77201 0.0
H193 H 0.63674 0.59016 0.82244 0.0
H194 H 0.68847 0.65025 0.7544 0.0
H195 H 0.67831 0.62118 0.70404 0.0
H196 H 0.60797 0.44128 0.65348 0.0
H197 H 0.62092 0.41107 0.64209 0.0
H198 H 0.54422 0.35243 0.64575 0.0
H199 H 0.5314 0.38342 0.65484 0.0
Tb200 Tb 0.08925 0.58741 1.02988 0.0
Tb201 Tb 0.12419 0.57112 1.00531 0.0
C202 C 0.05723 0.59564 1.05835 0.0
C203 C 0.05604 0.61409 1.08218 0.0
C204 C 0.05646 0.61195 0.1199 0.0
C205 C 0.05235 0.62759 0.14234 0.0
C206 C 0.04765 0.64568 0.12762 0.0
C207 C 0.04816 0.64843 1.0899 0.0
C208 C 0.05223 0.63273 1.0674 0.0
C209 C 0.13317 0.6241 1.00599 0.0
C210 C 0.11653 0.57274 1.09121 0.0
C211 C 0.16256 0.57471 0.97678 0.0
C212 C 0.17992 0.59308 0.95114 0.0
C213 C 0.1751 0.61136 0.93805 0.0
C214 C 0.1926 0.63067 0.91693 0.0
C215 C 0.21497 0.63163 0.9073 0.0
C216 C 0.21971 0.61315 0.9205 0.0
C217 C 0.20237 0.59413 0.94256 0.0
C218 C 0.08329 0.5345 1.03133 0.0
C219 C 0.08267 0.56956 0.9495 0.0
O220 O 0.06479 0.58137 1.07272 0.0
O221 O 0.06621 0.60298 1.0259 0.0
O222 O 0.12919 0.60557 1.02456 0.0
O223 O 0.11221 0.62343 1.00275 0.0
O224 O 0.10064 0.58041 1.08311 0.0
O225 O 0.12929 0.56915 1.065 0.0
O226 O 0.16225 0.58413 1.00819 0.0
O227 O 0.14015 0.55971 0.96475 0.0
O228 O 0.08551 0.5529 1.01368 0.0
O229 O 0.10411 0.53435 1.02918 0.0
O230 O 0.10575 0.57311 0.95307 0.0
O231 O 0.0708 0.57 0.97899 0.0
H232 H 0.05904 0.59761 0.13219 0.0
H233 H 0.05155 0.62455 0.17125 0.0
H234 H 0.04469 0.66225 1.07776 0.0
H235 H 0.05161 0.6347 1.03839 0.0
H236 H 0.15793 0.61093 0.94479 0.0
H237 H 0.18847 0.64479 0.908 0.0
H238 H 0.23651 0.61301 0.91314 0.0
H239 H 0.20647 0.58028 0.95288 0.0
Tb240 Tb 0.90556 0.52699 0.54735 0.0
Tb241 Tb 0.89232 0.47581 0.55374 0.0
C242 C 0.9201 0.57147 0.53107 0.0
C243 C 0.92582 0.58716 0.49901 0.0
C244 C 0.91522 0.5772 0.46532 0.0
C245 C 0.9216 0.59256 0.43504 0.0
C246 C 0.9388 0.61802 0.43804 0.0
C247 C 0.94908 0.62791 0.47197 0.0
C248 C 0.94257 0.61258 0.50223 0.0
C249 C 0.86263 0.49985 0.58159 0.0
C250 C 0.88357 0.48975 0.47728 0.0
C251 C 0.86946 0.43179 0.57527 0.0
C252 C 0.84311 0.4128 0.5731 0.0
C253 C 0.83568 0.38769 0.57693 0.0
C254 C 0.8106 0.37027 0.58217 0.0
C255 C 0.79271 0.37789 0.58474 0.0
C256 C 0.80016 0.40281 0.57706 0.0
C257 C 0.82506 0.42 0.57101 0.0
C258 C 0.93438 0.50282 0.51915 0.0
C259 C 0.92737 0.51317 0.61682 0.0
O260 O 0.93505 0.56284 0.53752 0.0
O261 O 0.89687 0.55477 0.536 0.0
O262 O 0.86992 0.49362 0.55338 0.0
O263 O 0.88048 0.52107 0.59219 0.0
O264 O 0.89658 0.51303 0.4896 0.0
O265 O 0.87518 0.4714 0.50079 0.0
O266 O 0.88175 0.4384 0.54479 0.0
O267 O 0.87403 0.45085 0.59562 0.0
O268 O 0.9266 0.50929 0.54587 0.0
O269 O 0.92024 0.47923 0.51409 0.0
O270 O 0.91466 0.49003 0.60442 0.0
O271 O 0.92708 0.53131 0.598 0.0
H272 H 0.90232 0.55756 0.46233 0.0
H273 H 0.91373 0.58438 0.40907 0.0
H274 H 0.96235 0.64745 0.47499 0.0
H275 H 0.95088 0.62052 0.52812 0.0
H276 H 0.84935 0.38174 0.57787 0.0
H277 H 0.80554 0.35115 0.58666 0.0
H278 H 0.7873 0.40973 0.57884 0.0
H279 H 0.83043 0.4393 0.5674 0.0
Tb280 Tb 0.37157 0.89531 0.8781 0.0
Tb281 Tb 0.41205 0.88667 0.89432 0.0
C282 C 0.34156 0.91105 0.86985 0.0
C283 C 0.32903 0.91485 0.83915 0.0
C284 C 0.33829 0.91671 0.80407 0.0
C285 C 0.32737 0.92209 0.77526 0.0
C286 C 0.30681 0.92546 0.78093 0.0
C287 C 0.29705 0.92266 0.81605 0.0
C288 C 0.30814 0.91742 0.84498 0.0
C289 C 0.35654 0.84882 0.89711 0.0
C290 C 0.39434 0.88094 0.81013 0.0
C291 C 0.43372 0.86202 0.90256 0.0
C292 C 0.42972 0.84214 0.92752 0.0
C293 C 0.40817 0.83095 0.94872 0.0
C294 C 0.40259 0.81014 0.96937 0.0
C295 C 0.41862 0.80025 0.96963 0.0
C296 C 0.44035 0.81167 0.94854 0.0
C297 C 0.44581 0.83245 0.9275 0.0
C298 C 0.42594 0.93194 0.86983 0.0
C299 C 0.40102 0.91379 0.9558 0.0
O300 O 0.36565 0.92531 0.87076 0.0
O301 O 0.33476 0.88806 0.87736 0.0
O302 O 0.37368 0.86816 0.91233 0.0
O303 O 0.34811 0.85569 0.87033 0.0
O304 O 0.38009 0.89043 0.82043 0.0
O305 O 0.40701 0.87666 0.83537 0.0
O306 O 0.41522 0.85591 0.88042 0.0
O307 O 0.44191 0.88412 0.91645 0.0
O308 O 0.40798 0.91172 0.86098 0.0
O309 O 0.43981 0.92689 0.89036 0.0
O310 O 0.41033 0.89915 0.9491 0.0
O311 O 0.38646 0.91577 0.93101 0.0
H312 H 0.35439 0.91473 0.79909 0.0
H313 H 0.33577 0.92464 0.7488 0.0
H314 H 0.28115 0.92494 0.82127 0.0
H315 H 0.30071 0.91585 0.87198 0.0
H316 H 0.39531 0.83796 0.94853 0.0
H317 H 0.38549 0.80158 0.98477 0.0
H318 H 0.45321 0.80469 0.94851 0.0
H319 H 0.46236 0.84073 0.91088 0.0
Tb320 Tb 0.49608 0.39263 0.2017 0.0
Tb321 Tb 0.5486 0.41674 0.2231 0.0
C322 C 0.4525 0.37362 0.1782 0.0
C323 C 0.4364 0.37231 0.14819 0.0
C324 C 0.42971 0.39064 0.14347 0.0
C325 C 0.41107 0.38691 0.11904 0.0
C326 C 0.39881 0.36483 1.09899 0.0
C327 C 0.40612 0.34694 1.1029 0.0
C328 C 0.42465 0.3506 0.12736 0.0
C329 C 0.50985 0.36293 0.23448 0.0
C330 C 0.53693 0.41133 0.13784 0.0
C331 C 0.58809 0.42221 0.25018 0.0
C332 C 0.59367 0.41025 0.27997 0.0
C333 C 0.57483 0.38817 0.2949 0.0
C334 C 0.58032 0.37595 0.32175 0.0
C335 C 0.6047 0.38588 0.33482 0.0
C336 C 0.62352 0.40811 0.31975 0.0
C337 C 0.61804 0.42013 0.2924 0.0
C338 C 0.53769 0.44812 0.19261 0.0
C339 C 0.50715 0.41397 0.2806 0.0
O340 O 0.46315 0.39387 0.19764 0.0
O341 O 0.4668 0.36401 0.17301 0.0
O342 O 0.52184 0.37924 0.21101 0.0
O343 O 0.48945 0.36306 0.24016 0.0
O344 O 0.51351 0.40349 0.14737 0.0
O345 O 0.55388 0.41556 0.16326 0.0
O346 O 0.57668 0.40762 0.22285 0.0
O347 O 0.57837 0.43596 0.25906 0.0
O348 O 0.52378 0.42985 0.21236 0.0
O349 O 0.55993 0.45122 0.19408 0.0
O350 O 0.52902 0.4148 0.27618 0.0
O351 O 0.49207 0.40834 0.25263 0.0
H352 H 0.43823 0.40745 0.15947 0.0
H353 H 0.40576 0.40099 1.11662 0.0
H354 H 0.39734 0.32995 1.08729 0.0
H355 H 0.4292 0.33603 0.13084 0.0
H356 H 0.5559 0.38032 0.28559 0.0
H357 H 0.5654 0.3587 0.33226 0.0
H358 H 0.6424 0.41654 0.32955 0.0
H359 H 0.6328 0.43714 0.28102 0.0
Tb360 Tb 0.08765 0.46455 0.54852 0.0
Tb361 Tb 0.09846 0.51531 0.55875 0.0
C362 C 0.07029 0.41843 0.54453 0.0
C363 C 0.07055 0.40209 0.51628 0.0
C364 C 0.08519 0.41223 0.48538 0.0
C365 C 0.08225 0.39721 0.45566 0.0
C366 C 0.06454 0.3718 0.45636 0.0
C367 C 0.05123 0.36143 0.48848 0.0
C368 C 0.05417 0.37653 0.51823 0.0
C369 C 0.13469 0.49533 0.56557 0.0
C370 C 0.10364 0.4985 0.47676 0.0
C371 C 0.12501 0.56172 0.56016 0.0
C372 C 0.1453 0.58058 0.58209 0.0
C373 C 0.16626 0.59918 0.56432 0.0
C374 C 0.18748 0.61526 0.5838 0.0
C375 C 0.18805 0.6131 0.62151 0.0
C376 C 0.16653 0.59508 0.63938 0.0
C377 C 0.14542 0.5788 0.61981 0.0
C378 C 0.05298 0.48424 0.53502 0.0
C379 C 0.06887 0.48056 0.62219 0.0
O380 O 0.05771 0.42947 0.53645 0.0
O381 O 0.09171 0.43363 0.55906 0.0
O382 O 0.11583 0.49508 0.57984 0.0
O383 O 0.12686 0.4782 0.54115 0.0
O384 O 0.09477 0.47548 0.48965 0.0
O385 O 0.10697 0.51645 0.4997 0.0
O386 O 0.13087 0.547 0.54293 0.0
O387 O 0.1027 0.5498 0.57429 0.0
O388 O 0.07292 0.48515 0.52792 0.0
O389 O 0.05864 0.50435 0.55305 0.0
O390 O 0.08438 0.50399 0.61381 0.0
O391 O 0.06663 0.46266 0.59971 0.0
H392 H 0.09789 0.43198 0.48346 0.0
H393 H 0.09252 0.40594 0.43125 0.0
H394 H 0.03761 0.3419 0.48992 0.0
H395 H 0.04277 0.36847 0.54203 0.0
H396 H 0.16656 0.60062 0.53511 0.0
H397 H 0.20371 0.62873 0.56914 0.0
H398 H 0.16608 0.59327 0.66851 0.0
H399 H 0.12951 0.56446 0.63406 0.0
Tb400 Tb 0.61538 0.08845 0.88196 0.0
Tb401 Tb 0.57517 0.09801 0.89619 0.0
C402 C 0.64699 0.07715 0.86048 0.0
C403 C 0.66042 0.07864 0.82706 0.0
C404 C 0.64915 0.07544 0.79324 0.0
C405 C 0.66155 0.0752 0.76198 0.0
C406 C 0.68571 0.07862 0.76378 0.0
C407 C 0.69737 0.083 0.79769 0.0
C408 C 0.68475 0.0829 0.82908 0.0
C409 C 0.62986 0.13032 0.91834 0.0
C410 C 0.59089 0.10349 0.81457 0.0
C411 C 0.55201 0.11905 0.9186 0.0
C412 C 0.55754 0.13854 0.94533 0.0
C413 C 0.58185 0.15322 0.958 0.0
C414 C 0.58794 0.17373 0.97988 0.0
C415 C 0.56975 0.17979 0.98995 0.0
C416 C 0.54527 0.16472 0.97764 0.0
C417 C 0.53926 0.14431 0.95535 0.0
C418 C 0.5605 0.05481 0.86413 0.0
C419 C 0.58667 0.06851 0.95728 0.0
O420 O 0.62307 0.06177 0.86058 0.0
O421 O 0.65273 0.09827 0.87558 0.0
O422 O 0.61493 0.12261 0.89171 0.0
O423 O 0.63549 0.11349 0.92604 0.0
O424 O 0.60856 0.09876 0.82604 0.0
O425 O 0.57594 0.10518 0.83833 0.0
O426 O 0.56701 0.12651 0.89088 0.0
O427 O 0.54791 0.09759 0.93074 0.0
O428 O 0.5772 0.0652 0.88726 0.0
O429 O 0.54897 0.0673 0.8614 0.0
O430 O 0.57789 0.08373 0.95038 0.0
O431 O 0.60045 0.06557 0.9321 0.0
H432 H 0.63054 0.07246 0.79097 0.0
H433 H 0.65167 0.07127 0.73659 0.0
H434 H 0.71604 0.08604 0.80008 0.0
H435 H 0.69384 0.08572 0.85502 0.0
H436 H 0.59628 0.14919 0.95014 0.0
H437 H 0.60703 0.18506 0.9884 0.0
H438 H 0.53071 0.16857 0.9854 0.0
H439 H 0.52044 0.13326 0.9455 0.0
Tb440 Tb 0.49784 0.58869 0.19756 0.0
Tb441 Tb 0.44653 0.57183 0.22153 0.0
C442 C 0.5388 0.59861 0.17007 0.0
C443 C 0.55825 0.61876 0.14861 0.0
C444 C 0.55244 0.62894 0.11895 0.0
C445 C 0.57135 0.6468 1.09744 0.0
C446 C 0.59637 0.65488 1.10536 0.0
C447 C 0.60207 0.64558 0.13628 0.0
C448 C 0.58315 0.62761 0.15762 0.0
C449 C 0.48973 0.62447 0.22341 0.0
C450 C 0.45618 0.57459 0.13569 0.0
C451 C 0.41162 0.57475 0.25086 0.0
C452 C 0.41194 0.59063 0.28037 0.0
C453 C 0.43447 0.6068 0.29726 0.0
C454 C 0.43543 0.62306 0.32396 0.0
C455 C 0.41385 0.62346 0.33436 0.0
C456 C 0.39134 0.60752 0.31687 0.0
C457 C 0.39041 0.59121 0.28998 0.0
C458 C 0.45139 0.53588 0.19375 0.0
C459 C 0.48651 0.57011 0.27714 0.0
O460 O 0.51743 0.58478 0.15425 0.0
O461 O 0.53632 0.6043 0.20319 0.0
O462 O 0.47579 0.60652 0.20354 0.0
O463 O 0.50999 0.62383 0.22718 0.0
O464 O 0.47965 0.58194 0.144 0.0
O465 O 0.43979 0.57094 0.16185 0.0
O466 O 0.42317 0.58699 0.22182 0.0
O467 O 0.41746 0.55786 0.25946 0.0
O468 O 0.46727 0.55382 0.21245 0.0
O469 O 0.43043 0.53577 0.19545 0.0
O470 O 0.46709 0.57385 0.27367 0.0
O471 O 0.49857 0.57029 0.24753 0.0
H472 H 0.53331 0.62259 1.11172 0.0
H473 H 0.56627 0.6533 1.07356 0.0
H474 H 0.62115 0.65164 0.14333 0.0
H475 H 0.58797 0.62017 0.1807 0.0
H476 H 0.45137 0.60696 0.28961 0.0
H477 H 0.45312 0.63531 0.33654 0.0
H478 H 0.37438 0.60724 0.32457 0.0
H479 H 0.37296 0.57908 0.27673 0.0
H480 H 0.53627 0.17622 0.35027 0.0
H481 H 0.5433 0.21758 0.33474 0.0
H482 H 0.48556 0.18523 0.25453 0.0
H483 H 0.47883 0.14399 0.26954 0.0
H484 H 0.52413 0.22792 0.22939 0.0
H485 H 0.49976 0.24498 0.36671 0.0
H486 H 0.52531 0.23919 0.36561 0.0
H487 H 0.49483 0.21507 0.35285 0.0
C488 C 0.52518 0.17794 0.32915 0.0
C489 C 0.50686 0.15666 0.31131 0.0
C490 C 0.52908 0.20166 0.32045 0.0
C491 C 0.51464 0.20478 0.29387 0.0
C492 C 0.49694 0.18357 0.27523 0.0
H493 H 0.47882 0.322 0.27372 0.0
H494 H 0.48234 0.28546 0.2868 0.0
C495 C 0.49305 0.1599 0.28391 0.0
C496 C 0.51725 0.22978 0.286 0.0
H497 H 0.51245 0.27738 0.3246 0.0
C498 C 0.52162 0.23875 0.25027 0.0
C499 C 0.51389 0.24409 0.313 0.0
C500 C 0.50796 0.23531 0.35163 0.0
C501 C 0.52231 0.26112 0.24077 0.0
C502 C 0.51897 0.27547 0.26782 0.0
C503 C 0.51508 0.26667 0.30365 0.0
C504 C 0.51755 0.29855 0.25956 0.0
C505 C 0.52568 0.26854 0.20147 0.0
C506 C 0.53628 0.31877 0.24019 0.0
C507 C 0.53408 0.33979 0.23217 0.0
C508 C 0.51333 0.34138 0.24389 0.0
C509 C 0.49505 0.32151 0.26412 0.0
C510 C 0.49709 0.30049 0.27172 0.0
H511 H 0.52103 0.25253 0.18338 0.0
H512 H 0.51394 0.27663 0.1939 0.0
H513 H 0.54538 0.2826 0.19661 0.0
H514 H 0.55268 0.31839 0.23128 0.0
H515 H 0.54861 0.35477 0.21676 0.0
H516 H 0.3482 0.52336 0.68697 0.0
H517 H 0.31324 0.5309 0.67791 0.0
H518 H 0.29108 0.48408 0.58345 0.0
H519 H 0.32611 0.47719 0.59177 0.0
H520 H 0.28509 0.52254 0.57087 0.0
H521 H 0.24225 0.48338 0.70385 0.0
H522 H 0.27302 0.50956 0.70645 0.0
H523 H 0.26817 0.48114 0.68639 0.0
C524 C 0.33612 0.51504 0.66394 0.0
C525 C 0.34006 0.49959 0.64018 0.0
C526 C 0.31582 0.51906 0.65902 0.0
C527 C 0.29883 0.50759 0.6304 0.0
C528 C 0.30355 0.4931 0.60589 0.0
H529 H 0.14437 0.46385 0.60331 0.0
H530 H 0.18489 0.46988 0.62125 0.0
C531 C 0.32374 0.48916 0.61071 0.0
C532 C 0.2759 0.50997 0.62581 0.0
H533 H 0.22145 0.49801 0.66696 0.0
C534 C 0.27131 0.51736 0.59207 0.0
C535 C 0.25749 0.50295 0.6531 0.0
C536 C 0.26026 0.49359 0.68938 0.0
C537 C 0.24904 0.51751 0.5847 0.0
C538 C 0.23067 0.5106 0.61203 0.0
C539 C 0.23543 0.50359 0.64597 0.0
C540 C 0.20563 0.50833 0.60497 0.0
C541 C 0.24497 0.52393 0.54697 0.0
C542 C 0.20314 0.52813 0.59114 0.0
C543 C 0.17971 0.52467 0.58097 0.0
C544 C 0.15815 0.50144 0.58492 0.0
C545 C 0.16052 0.48211 0.60058 0.0
C546 C 0.18382 0.48553 0.61064 0.0
H547 H 0.25782 0.52281 0.52712 0.0
H548 H 0.22564 0.51137 0.53794 0.0
H549 H 0.24833 0.54319 0.54673 0.0
H550 H 0.21941 0.54612 0.58718 0.0
H551 H 0.17863 0.5398 0.56838 0.0
H552 H 0.80373 0.35834 1.01028 0.0
H553 H 0.76332 0.32181 0.99655 0.0
H554 H 0.80032 0.28867 0.94006 0.0
H555 H 0.84038 0.32528 0.95257 0.0
H556 H 0.7605 0.27924 0.90376 0.0
H557 H 0.73208 0.25664 1.04701 0.0
H558 H 0.7377 0.28672 1.03381 0.0
H559 H 0.76288 0.28024 1.03422 0.0
C560 C 0.80322 0.34333 0.99475 0.0
C561 C 0.82548 0.34484 0.98282 0.0
C562 C 0.78002 0.32221 0.98717 0.0
C563 C 0.77841 0.30184 0.96788 0.0
C564 C 0.80068 0.30379 0.95512 0.0
H565 H 0.66496 0.14744 0.97082 0.0
H566 H 0.6986 0.18949 0.98145 0.0
C567 C 0.82375 0.32487 0.96241 0.0
C568 C 0.75393 0.2784 0.96101 0.0
H569 H 0.70302 0.23134 1.00309 0.0
C570 C 0.74792 0.26888 0.92556 0.0
C571 C 0.7373 0.26439 0.98922 0.0
C572 C 0.74285 0.27233 1.02824 0.0
C573 C 0.72639 0.24598 0.9177 0.0
C574 C 0.70966 0.23209 0.94587 0.0
C575 C 0.71546 0.24183 0.98122 0.0
C576 C 0.68749 0.20649 0.94006 0.0
C577 C 0.72247 0.23641 0.8794 0.0
C578 C 0.66903 0.20147 0.91385 0.0
C579 C 0.64952 0.17701 0.90749 0.0
C580 C 0.64785 0.15695 0.92741 0.0
C581 C 0.66559 0.16227 0.95473 0.0
C582 C 0.68499 0.1865 0.96091 0.0
H583 H 0.73979 0.24596 0.86316 0.0
H584 H 0.7157 0.2162 0.87883 0.0
H585 H 0.70839 0.23975 0.8662 0.0
H586 H 0.66982 0.21641 0.89795 0.0
H587 H 0.6362 0.17373 0.88636 0.0
H588 H 0.51686 0.66099 0.27227 0.0
H589 H 0.51218 0.6964 0.29016 0.0
H590 H 0.44955 0.67145 0.21876 0.0
H591 H 0.45414 0.6358 0.20087 0.0
H592 H 0.48473 0.7224 0.2109 0.0
H593 H 0.45999 0.70004 0.35517 0.0
H594 H 0.48715 0.69874 0.34178 0.0
H595 H 0.45759 0.67737 0.32248 0.0
C596 C 0.50194 0.66289 0.26056 0.0
C597 C 0.48588 0.64544 0.23511 0.0
C598 C 0.49916 0.68314 0.27104 0.0
C599 C 0.48032 0.68669 0.25625 0.0
C600 C 0.46417 0.66921 0.23086 0.0
H601 H 0.45426 0.80591 0.34163 0.0
H602 H 0.44801 0.76515 0.32266 0.0
C603 C 0.46677 0.64874 0.22066 0.0
C604 C 0.47853 0.70935 0.26579 0.0
H605 H 0.47275 0.74151 0.33709 0.0
C606 C 0.48189 0.72642 0.23848 0.0
C607 C 0.47448 0.71473 0.30164 0.0
C608 C 0.46936 0.69669 0.332 0.0
C609 C 0.4824 0.74895 0.24612 0.0
C610 C 0.47959 0.75497 0.28231 0.0
C611 C 0.47512 0.73733 0.30939 0.0
C612 C 0.48251 0.7798 0.29281 0.0
C613 C 0.48617 0.76609 0.215 0.0
C614 C 0.5039 0.8019 0.28273 0.0
C615 C 0.50721 0.82509 0.29295 0.0
C616 C 0.48955 0.82714 0.31443 0.0
C617 C 0.46816 0.8051 0.32488 0.0
C618 C 0.46466 0.78174 0.31417 0.0
H619 H 0.47816 0.75549 0.18969 0.0
H620 H 0.47776 0.77786 0.22035 0.0
H621 H 0.50635 0.7783 0.21037 0.0
H622 H 0.51842 0.80129 0.26733 0.0
H623 H 0.52405 0.84154 0.28458 0.0
H624 H 0.66535 0.51797 0.59212 0.0
H625 H 0.70051 0.51175 0.5797 0.0
H626 H 0.68368 0.46696 0.67559 0.0
H627 H 0.64808 0.47297 0.68788 0.0
H628 H 0.74108 0.52716 0.61858 0.0
H629 H 0.69759 0.42528 0.60571 0.0
H630 H 0.67971 0.44093 0.6053 0.0
H631 H 0.69025 0.43505 0.64738 0.0
C632 C 0.6688 0.5064 0.61029 0.0
C633 C 0.65367 0.4959 0.64094 0.0
C634 C 0.68908 0.5029 0.60319 0.0
C635 C 0.69502 0.48871 0.62641 0.0
C636 C 0.67948 0.47758 0.65664 0.0
H637 H 0.84566 0.51206 0.64151 0.0
H638 H 0.8047 0.50722 0.65258 0.0
C639 C 0.65905 0.48108 0.66376 0.0
C640 C 0.71846 0.48745 0.62016 0.0
H641 H 0.74185 0.44805 0.60895 0.0
C642 C 0.74108 0.50978 0.61641 0.0
C643 C 0.71886 0.46488 0.6168 0.0
C644 C 0.6953 0.44016 0.61864 0.0
C645 C 0.76373 0.51026 0.61 0.0
C646 C 0.76432 0.48778 0.60782 0.0
C647 C 0.74168 0.46536 0.61091 0.0
C648 C 0.78839 0.48761 0.60282 0.0
C649 C 0.7869 0.53506 0.60498 0.0
C650 C 0.79295 0.47707 0.57195 0.0
C651 C 0.8166 0.47966 0.56563 0.0
C652 C 0.83624 0.49276 0.59014 0.0
C653 C 0.83113 0.50199 0.62188 0.0
C654 C 0.80764 0.49937 0.62818 0.0
H655 H 0.78247 0.5497 0.59742 0.0
H656 H 0.79739 0.54069 0.63075 0.0
H657 H 0.79908 0.53409 0.58378 0.0
H658 H 0.77852 0.46775 0.55194 0.0
H659 H 0.81979 0.4724 0.54081 0.0
H660 H 0.34122 0.80286 0.87002 0.0
H661 H 0.30668 0.76337 0.89092 0.0
H662 H 0.29652 0.80052 0.98239 0.0
H663 H 0.33221 0.83982 0.96246 0.0
H664 H 0.28496 0.7565 1.00315 0.0
H665 H 0.23718 0.74324 0.87228 0.0
H666 H 0.26608 0.74381 0.86696 0.0
H667 H 0.26572 0.77112 0.88257 0.0
C668 C 0.3321 0.80244 0.89522 0.0
C669 C 0.33979 0.82448 0.91481 0.0
C670 C 0.31189 0.77985 0.90683 0.0
C671 C 0.29796 0.77871 0.93765 0.0
C672 C 0.30652 0.80057 0.95835 0.0
H673 H 0.14241 0.66593 0.96942 0.0
H674 H 0.18228 0.70221 0.95448 0.0
C675 C 0.32717 0.82313 0.94712 0.0
C676 C 0.27422 0.75517 0.94758 0.0
H677 H 0.21867 0.70976 0.9134 0.0
C678 C 0.27048 0.7464 0.98343 0.0
C679 C 0.25479 0.74175 0.92233 0.0
C680 C 0.25599 0.75059 0.88402 0.0
C681 C 0.24835 0.72502 0.99457 0.0
C682 C 0.22929 0.71121 0.96904 0.0
C683 C 0.23308 0.71994 0.9332 0.0
C684 C 0.2048 0.68859 0.97899 0.0
C685 C 0.24537 0.71805 1.03403 0.0
C686 C 0.20353 0.66824 0.99772 0.0
C687 C 0.18048 0.64747 1.00693 0.0
C688 C 0.15797 0.6461 0.99689 0.0
C689 C 0.15926 0.66623 0.97771 0.0
C690 C 0.18222 0.68707 0.96896 0.0
H691 H 0.2578 0.73409 1.05133 0.0
H692 H 0.22597 0.71089 1.0432 0.0
H693 H 0.25034 0.7034 1.03818 0.0
H694 H 0.22037 0.66821 1.00498 0.0
H695 H 0.18032 0.63239 1.02165 0.0
H696 H 0.60104 0.19469 1.04774 0.0
H697 H 0.60936 0.22746 1.09065 0.0
H698 H 0.56095 0.24594 1.03186 0.0
H699 H 0.55287 0.21324 0.98768 0.0
H700 H 0.62598 0.28207 1.08418 0.0
H701 H 0.52931 0.22301 0.13455 0.0
H702 H 0.54211 0.20927 1.10468 0.0
H703 H 0.53566 0.23254 1.08796 0.0
C704 C 0.59265 0.20608 1.04314 0.0
C705 C 0.57615 0.20117 1.01431 0.0
C706 C 0.59747 0.22489 1.06773 0.0
C707 C 0.58583 0.23915 1.06435 0.0
C708 C 0.5701 0.23511 1.03489 0.0
H709 H 0.57615 0.23899 0.28226 0.0
H710 H 0.57759 0.26634 0.23381 0.0
C711 C 0.56532 0.21625 1.00998 0.0
C712 C 0.58777 0.25522 1.09507 0.0
H713 H 0.56029 0.24439 0.1774 0.0
C714 C 0.61138 0.27468 1.10437 0.0
C715 C 0.56849 0.24653 0.12091 0.0
C716 C 0.54237 0.22676 1.11175 0.0
C717 C 0.61721 0.2823 0.14048 0.0
C718 C 0.5993 0.26932 0.16758 0.0
C719 C 0.5745 0.25379 0.15704 0.0
C720 C 0.60656 0.26449 0.20368 0.0
C721 C 0.64315 0.30237 0.14955 0.0
C722 C 0.62411 0.25644 0.20501 0.0
C723 C 0.62367 0.24134 0.2331 0.0
C724 C 0.60539 0.23366 0.25989 0.0
C725 C 0.59024 0.2445 0.26152 0.0
C726 C 0.59109 0.26015 0.23382 0.0
H727 H 0.64877 0.31842 0.13123 0.0
H728 H 0.64471 0.30875 0.17798 0.0
H729 H 0.65632 0.29546 0.14489 0.0
H730 H 0.63601 0.25889 0.18216 0.0
H731 H 0.63548 0.23315 0.23121 0.0
H732 H 0.3912 0.65179 0.34101 0.0
H733 H 0.39079 0.67502 0.39469 0.0
H734 H 0.43718 0.65244 0.45063 0.0
H735 H 0.4378 0.62983 0.39789 0.0
H736 H 0.37202 0.65879 0.45812 0.0
H737 H 0.46952 0.72191 0.48421 0.0
H738 H 0.45895 0.70843 0.43991 0.0
H739 H 0.46818 0.69329 0.47316 0.0
C740 C 0.40156 0.65217 0.36473 0.0
C741 C 0.41467 0.6391 0.3652 0.0
C742 C 0.40147 0.66559 0.39521 0.0
C743 C 0.41459 0.6662 0.42643 0.0
C744 C 0.42784 0.65333 0.42648 0.0
H745 H 0.37926 0.60006 0.59491 0.0
H746 H 0.37382 0.62489 0.55036 0.0
C747 C 0.42802 0.64014 0.39627 0.0
C748 C 0.41196 0.67675 0.46108 0.0
H749 H 0.44541 0.69494 0.53844 0.0
C750 C 0.3881 0.66763 0.47562 0.0
C751 C 0.43267 0.69008 0.48386 0.0
C752 C 0.45872 0.70425 0.46914 0.0
C753 C 0.3846 0.66684 0.51321 0.0
C754 C 0.40524 0.67375 0.5362 0.0
C755 C 0.42916 0.68796 0.52136 0.0
C756 C 0.40286 0.66036 0.57077 0.0
C757 C 0.35866 0.65674 0.52772 0.0
C758 C 0.42047 0.67151 0.5986 0.0
C759 C 0.42435 0.65686 0.62355 0.0
C760 C 0.41009 0.63091 0.62181 0.0
C761 C 0.39036 0.62003 0.59724 0.0
C762 C 0.38704 0.6345 0.57171 0.0
H763 H 0.34974 0.66629 0.51443 0.0
H764 H 0.34732 0.63678 0.52085 0.0
H765 H 0.35845 0.65922 0.55743 0.0
H766 H 0.43278 0.69137 0.59906 0.0
H767 H 0.43961 0.66569 0.64246 0.0
H768 H 0.77995 0.36238 0.84458 0.0
H769 H 0.75469 0.34743 0.79041 0.0
H770 H 0.7178 0.38829 0.81908 0.0
H771 H 0.74439 0.40482 0.87239 0.0
H772 H 0.70524 0.32193 0.77196 0.0
H773 H 0.74867 0.41998 0.72447 0.0
H774 H 0.75959 0.41242 0.76486 0.0
H775 H 0.73004 0.41112 0.76472 0.0
C776 C 0.76658 0.36835 0.83937 0.0
C777 C 0.7648 0.38545 0.86225 0.0
C778 C 0.75179 0.35941 0.80866 0.0
C779 C 0.73464 0.3671 0.80025 0.0
C780 C 0.73128 0.38253 0.82458 0.0
H781 H 0.74783 0.3766 0.57441 0.0
H782 H 0.71597 0.36476 0.62095 0.0
C783 C 0.74639 0.39181 0.85522 0.0
C784 C 0.72338 0.36142 0.7637 0.0
H785 H 0.73572 0.38924 0.68127 0.0
C786 C 0.7111 0.33661 0.75212 0.0
C787 C 0.73019 0.38048 0.7378 0.0
C788 C 0.74288 0.40751 0.74833 0.0
C789 C 0.70912 0.33066 0.71522 0.0
C790 C 0.71989 0.35 0.68962 0.0
C791 C 0.72794 0.37439 0.70097 0.0
C792 C 0.73069 0.34712 0.65539 0.0
C793 C 0.69778 0.30389 0.70419 0.0
C794 C 0.74844 0.3395 0.65787 0.0
C795 C 0.76707 0.34685 0.63197 0.0
C796 C 0.76831 0.36195 0.60284 0.0
C797 C 0.7481 0.36591 0.59727 0.0
C798 C 0.72958 0.35882 0.62361 0.0
H799 H 0.6811 0.2922 0.72088 0.0
H800 H 0.6925 0.30114 0.67519 0.0
H801 H 0.71129 0.29747 0.70913 0.0
H802 H 0.75005 0.33078 0.68223 0.0
H803 H 0.78203 0.34321 0.63758 0.0
H804 H 0.42478 0.76006 0.95488 0.0
H805 H 0.41595 0.72532 0.99552 0.0
H806 H 0.39116 0.75768 1.07734 0.0
H807 H 0.40024 0.79207 1.0379 0.0
H808 H 0.43654 0.72698 1.06202 0.0
H809 H 0.33718 0.68585 1.08401 0.0
H810 H 0.35188 0.70204 1.04259 0.0
H811 H 0.349 0.71854 1.08088 0.0
C812 C 0.41731 0.75959 0.98152 0.0
C813 C 0.41292 0.77869 0.99302 0.0
C814 C 0.41203 0.73961 1.00447 0.0
C815 C 0.40199 0.73838 1.03892 0.0
C816 C 0.39781 0.75755 1.05027 0.0
H817 H 0.44463 0.78758 0.19804 0.0
H818 H 0.44146 0.75907 0.1517 0.0
C819 C 0.40315 0.77738 1.02769 0.0
C820 C 0.39874 0.71945 1.06587 0.0
H821 H 0.36359 0.70108 0.14167 0.0
C822 C 0.42018 0.72003 1.079 0.0
C823 C 0.37703 0.70822 1.08725 0.0
C824 C 0.3524 0.70333 1.07256 0.0
C825 C 0.42206 0.71592 1.11586 0.0
C826 C 0.40275 0.71293 0.13938 0.0
C827 C 0.37929 0.70532 0.12432 0.0
C828 C 0.40867 0.72719 0.17382 0.0
C829 C 0.4459 0.71841 0.13001 0.0
C830 C 0.39163 0.71925 0.20267 0.0
C831 C 0.39291 0.73621 0.2288 0.0
C832 C 0.41134 0.76133 0.22653 0.0
C833 C 0.42972 0.76856 0.1999 0.0
C834 C 0.4283 0.75185 0.17376 0.0
H835 H 0.45057 0.70598 1.11448 0.0
H836 H 0.46132 0.73762 0.12572 0.0
H837 H 0.44459 0.71366 0.15916 0.0
H838 H 0.37626 0.70042 0.20348 0.0
H839 H 0.37853 0.72998 0.24919 0.0
H840 H 0.57558 0.36367 0.39371 0.0
H841 H 0.58557 0.3477 0.44694 0.0
H842 H 0.65635 0.36578 0.40074 0.0
H843 H 0.64618 0.38136 0.34621 0.0
H844 H 0.60295 0.31086 0.45918 0.0
H845 H 0.67159 0.40861 0.49502 0.0
H846 H 0.64905 0.40274 0.46021 0.0
H847 H 0.67321 0.39544 0.45236 0.0
C848 C 0.59298 0.36363 0.39411 0.0
C849 C 0.61011 0.37395 0.36561 0.0
C850 C 0.59868 0.35447 0.42469 0.0
C851 C 0.62168 0.35555 0.42774 0.0
C852 C 0.63851 0.36483 0.39886 0.0
H853 H 0.62706 0.37739 0.65011 0.0
H854 H 0.64425 0.36159 0.60457 0.0
C855 C 0.63274 0.37393 0.36794 0.0
C856 C 0.62849 0.35007 0.46339 0.0
H857 H 0.64996 0.38154 0.54232 0.0
C858 C 0.61408 0.32608 0.47739 0.0
C859 C 0.64369 0.3697 0.48697 0.0
C860 C 0.66039 0.39562 0.47313 0.0
C861 C 0.61137 0.3221 0.51484 0.0
C862 C 0.62267 0.34272 0.53837 0.0
C863 C 0.64067 0.36572 0.52438 0.0
C864 C 0.61061 0.34321 0.57285 0.0
C865 C 0.59443 0.29628 0.52865 0.0
C866 C 0.5855 0.33672 0.5717 0.0
C867 C 0.57578 0.34604 0.59722 0.0
C868 C 0.59096 0.36217 0.62454 0.0
C869 C 0.61504 0.36568 0.62875 0.0
C870 C 0.62486 0.35641 0.60293 0.0
H871 H 0.59794 0.2828 0.51376 0.0
H872 H 0.59698 0.29469 0.55804 0.0
H873 H 0.57485 0.29113 0.52352 0.0
H874 H 0.57409 0.32707 0.54858 0.0
H875 H 0.55723 0.34286 0.59267 0.0
H876 H 0.26627 0.65589 0.90436 0.0
H877 H 0.29251 0.68036 0.85366 0.0
H878 H 0.22765 0.67302 0.79964 0.0
H879 H 0.20195 0.64894 0.84885 0.0
H880 H 0.29123 0.66301 0.7913 0.0
H881 H 0.27472 0.73818 0.76029 0.0
H882 H 0.27121 0.72665 0.80603 0.0
H883 H 0.24493 0.71472 0.77565 0.0
C884 C 0.2578 0.66005 0.88191 0.0
C885 C 0.23192 0.65025 0.88064 0.0
C886 C 0.27288 0.6743 0.85318 0.0
C887 C 0.26232 0.67913 0.82292 0.0
C888 C 0.23671 0.67067 0.82303 0.0
H889 H 0.20616 0.59945 0.67854 0.0
H890 H 0.24022 0.6257 0.71758 0.0
C891 C 0.22178 0.65651 0.85139 0.0
C892 C 0.27572 0.68728 0.78791 0.0
H893 H 0.25846 0.70319 0.71024 0.0
C894 C 0.2853 0.67286 0.77345 0.0
C895 C 0.27051 0.70178 0.76397 0.0
C896 C 0.26512 0.72145 0.77759 0.0
C897 C 0.28303 0.66739 0.73641 0.0
C898 C 0.26988 0.6756 0.71454 0.0
C899 C 0.26684 0.69522 0.72731 0.0
C900 C 0.25259 0.65927 0.68601 0.0
C901 C 0.29195 0.65049 0.72205 0.0
C902 C 0.24735 0.66909 0.65526 0.0
C903 C 0.22679 0.65405 0.63357 0.0
C904 C 0.21116 0.62888 0.64219 0.0
C905 C 0.21736 0.61885 0.6716 0.0
C906 C 0.23751 0.63386 0.69346 0.0
H907 H 0.31125 0.65715 0.73123 0.0
H908 H 0.28036 0.63159 0.73328 0.0
H909 H 0.29143 0.64956 0.69205 0.0
H910 H 0.25844 0.68862 0.64899 0.0
H911 H 0.22255 0.66241 0.61108 0.0
H912 H 0.42709 0.91154 1.01542 0.0
H913 H 0.4411 0.93761 1.06963 0.0
H914 H 0.40832 0.97968 1.02953 0.0
H915 H 0.39347 0.95297 0.97592 0.0
H916 H 0.47168 0.98187 1.08633 0.0
H917 H 0.38258 0.97359 0.12751 0.0
H918 H 0.3845 0.95494 1.09173 0.0
H919 H 0.39115 0.98616 1.0829 0.0
C920 C 0.42243 0.92607 1.01817 0.0
C921 C 0.40856 0.92947 0.99068 0.0
C922 C 0.43071 0.94132 1.04958 0.0
C923 C 0.42566 0.9609 1.05535 0.0
C924 C 0.41206 0.9645 1.02757 0.0
H925 H 0.51369 0.07969 0.22134 0.0
H926 H 0.49919 0.05438 0.16621 0.0
C927 C 0.40356 0.94908 0.99626 0.0
C928 C 0.43517 0.97758 1.08952 0.0
H929 H 0.41842 0.00474 0.15736 0.0
C930 C 0.4598 0.98669 1.10167 0.0
C931 C 0.4202 0.98413 1.11113 0.0
C932 C 0.39309 0.97399 1.10293 0.0
C933 C 0.46962 0.00176 0.13329 0.0
C934 C 0.45498 0.00919 0.15401 0.0
C935 C 0.43026 -0.00017 0.1421 0.0
C936 C 0.46438 0.02566 0.18841 0.0
C937 C 0.49549 0.00859 0.14479 0.0
C938 C 0.44986 0.01936 0.22031 0.0
C939 C 0.4581 0.03423 0.25207 0.0
C940 C 0.48134 0.05637 0.25383 0.0
C941 C 0.49582 0.06289 0.22187 0.0
C942 C 0.48749 0.04803 0.18996 0.0
H943 H 0.50062 0.99499 0.13435 0.0
H944 H 0.50888 0.02697 0.13345 0.0
H945 H 0.49735 0.00938 0.17466 0.0
H946 H 0.43199 0.00255 0.22096 0.0
H947 H 0.4461 0.02816 0.27555 0.0
H948 H 0.51452 0.40501 0.35316 0.0
H949 H 0.49743 0.41307 0.40858 0.0
H950 H 0.46595 0.4483 0.34461 0.0
H951 H 0.48117 0.43857 0.28977 0.0
H952 H 0.49991 0.44602 0.44937 0.0
H953 H 0.40539 0.40901 0.39681 0.0
H954 H 0.42866 0.40623 0.3716 0.0
H955 H 0.42633 0.43402 0.36854 0.0
C956 C 0.50384 0.41437 0.35086 0.0
C957 C 0.49914 0.42072 0.31623 0.0
C958 C 0.4939 0.41905 0.38293 0.0
C959 C 0.47911 0.43062 0.38195 0.0
C960 C 0.47579 0.43815 0.34733 0.0
H961 H 0.4494 0.50254 0.56917 0.0
H962 H 0.46593 0.49142 0.51669 0.0
C963 C 0.48502 0.43286 0.31545 0.0
C964 C 0.46754 0.43512 0.41641 0.0
H965 H 0.41509 0.43456 0.44949 0.0
C966 C 0.48132 0.44338 0.44894 0.0
C967 C 0.44276 0.43109 0.41795 0.0
C968 C 0.42487 0.41932 0.387 0.0
C969 C 0.47167 0.44825 0.48118 0.0
C970 C 0.44776 0.44611 0.48156 0.0
C971 C 0.43366 0.43711 0.44966 0.0
C972 C 0.43719 0.45293 0.51462 0.0
C973 C 0.48657 0.45426 0.51553 0.0
C974 C 0.41481 0.43553 0.53166 0.0
C975 C 0.40517 0.44193 0.56228 0.0
C976 C 0.4172 0.46619 0.57693 0.0
C977 C 0.43933 0.48365 0.55936 0.0
C978 C 0.44907 0.47718 0.52909 0.0
H979 H 0.5028 0.45146 0.51265 0.0
H980 H 0.49324 0.47373 0.52346 0.0
H981 H 0.47469 0.44238 0.5379 0.0
H982 H 0.40482 0.41672 0.52153 0.0
H983 H 0.38815 0.42776 0.57447 0.0
H984 H 0.06473 0.51271 0.67052 0.0
H985 H 0.0371 0.50363 0.72247 0.0
H986 H 0.00691 0.4255 0.70432 0.0
H987 H 0.03413 0.43458 0.6514 0.0
H988 H 0.96964 0.43214 0.72344 0.0
H989 H 0.04285 0.48709 0.82325 0.0
H990 H 0.0423 0.50531 0.78624 0.0
H991 H 0.05021 0.48147 0.7783 0.0
C992 C 0.05247 0.4935 0.67757 0.0
C993 C 0.05239 0.47452 0.65617 0.0
C994 C 0.03652 0.48824 0.70796 0.0
C995 C 0.01976 0.46368 0.71905 0.0
C996 C 0.01945 0.44468 0.69742 0.0
H997 H 0.94988 0.41832 0.93546 0.0
H998 H 0.97535 0.4294 0.88101 0.0
C999 C 0.03534 0.44994 0.66684 0.0
C1000 C 0.00251 0.4578 0.75236 0.0
H1001 H 0.00148 0.47029 0.84323 0.0
C1002 C 0.97682 0.44064 0.74951 0.0
C1003 C 0.01106 0.46848 0.78728 0.0
C1004 C 0.03813 0.48643 0.79417 0.0
C1005 C 0.96003 0.4341 0.77941 0.0
C1006 C 0.96858 0.44487 0.81423 0.0
C1007 C 0.99428 0.46192 0.8171 0.0
C1008 C 0.9518 0.43787 0.84821 0.0
C1009 C 0.93322 0.41496 0.77345 0.0
C1010 C 0.92945 0.43884 0.84971 0.0
C1011 C 0.91449 0.43245 0.88166 0.0
C1012 C 0.92115 0.42471 0.91365 0.0
C1013 C 0.94356 0.42393 0.91196 0.0
C1014 C 0.95847 0.43044 0.88034 0.0
H1015 H 0.93073 0.40375 0.74878 0.0
H1016 H 0.9256 0.40227 0.79695 0.0
H1017 H 0.92225 0.42445 0.76999 0.0
H1018 H 0.92364 0.445 0.82626 0.0
H1019 H 0.8977 0.43365 0.88125 0.0
H1020 H 0.54797 0.94857 0.26938 0.0
H1021 H 0.56139 0.97427 0.21515 0.0
H1022 H 0.48766 0.93287 0.17146 0.0
H1023 H 0.47415 0.90653 0.22587 0.0
H1024 H 0.51924 0.94284 1.11718 0.0
H1025 H 0.55365 0.03173 0.18858 0.0
H1026 H 0.56895 0.01555 0.20434 0.0
H1027 H 0.53605 0.00243 0.21129 0.0
C1028 C 0.53438 0.94474 0.24844 0.0
C1029 C 0.50971 0.9251 0.25298 0.0
C1030 C 0.54217 0.95987 0.21708 0.0
C1031 C 0.52569 0.95646 0.1885 0.0
C1032 C 0.5011 0.93651 0.19256 0.0
H1033 H 0.55923 0.06997 1.01607 0.0
H1034 H 0.54458 0.04335 1.06983 0.0
C1035 C 0.49326 0.92125 0.22408 0.0
C1036 C 0.53426 0.97331 0.15469 0.0
H1037 H 0.56569 0.0344 0.12678 0.0
C1038 C 0.52937 0.96285 0.11961 0.0
C1039 C 0.54724 -0.00026 0.15649 0.0
C1040 C 0.55156 0.01305 0.19215 0.0
C1041 C 0.53737 0.97752 1.08746 0.0
C1042 C 0.55129 0.00391 1.08936 0.0
C1043 C 0.55562 0.01438 0.12437 0.0
C1044 C 0.56093 0.02083 1.05571 0.0
C1045 C 0.53015 0.9644 1.0515 0.0
C1046 C 0.57573 0.01809 1.02892 0.0
C1047 C 0.58438 0.03362 0.99786 0.0
C1048 C 0.57873 0.05274 0.99194 0.0
C1049 C 0.56424 0.05571 1.01902 0.0
C1050 C 0.55573 0.04028 1.05018 0.0
H1051 H 0.5138 0.94551 1.05403 0.0
H1052 H 0.52577 0.97497 1.03156 0.0
H1053 H 0.54583 0.96249 1.04086 0.0
H1054 H 0.58085 0.00393 1.03205 0.0
H1055 H 0.59539 0.03039 0.97817 0.0
H1056 H 0.5534 0.48408 0.55899 0.0
H1057 H 0.53823 0.49413 0.50387 0.0
H1058 H 0.57356 0.57057 0.53641 0.0
H1059 H 0.58995 0.56089 0.5904 0.0
H1060 H 0.50696 0.50967 0.48892 0.0
H1061 H 0.59653 0.58244 0.435 0.0
H1062 H 0.59472 0.56328 0.47266 0.0
H1063 H 0.59072 0.58977 0.47955 0.0
C1064 C 0.5582 0.50314 0.55449 0.0
C1065 C 0.57332 0.52156 0.57988 0.0
C1066 C 0.54919 0.5089 0.52268 0.0
C1067 C 0.5545 0.53329 0.51468 0.0
C1068 C 0.56935 0.55166 0.54035 0.0
H1069 H 0.46682 0.56466 0.34783 0.0
H1070 H 0.48207 0.55622 0.40457 0.0
C1071 C 0.57871 0.54599 0.57187 0.0
C1072 C 0.54424 0.53921 0.48024 0.0
H1073 H 0.56044 0.57832 0.40658 0.0
C1074 C 0.51883 0.52471 0.47113 0.0
C1075 C 0.5592 0.55863 0.45561 0.0
C1076 C 0.58683 0.57427 0.4609 0.0
C1077 C 0.50824 0.52905 0.43961 0.0
C1078 C 0.52305 0.54896 0.41566 0.0
C1079 C 0.54853 0.56326 0.42447 0.0
C1080 C 0.51305 0.55444 0.38064 0.0
C1081 C 0.48124 0.51151 0.43174 0.0
C1082 C 0.52515 0.55711 0.34724 0.0
C1083 C 0.51642 0.56206 0.31466 0.0
C1084 C 0.49515 0.56487 0.31344 0.0
C1085 C 0.48308 0.56255 0.3469 0.0
C1086 C 0.49183 0.55746 0.37972 0.0
H1087 H 0.47446 0.49353 0.44573 0.0
H1088 H 0.47009 0.51979 0.44153 0.0
H1089 H 0.47796 0.50789 0.4023 0.0
H1090 H 0.54146 0.55507 0.34611 0.0
H1091 H 0.52663 0.56369 0.2901 0.0
H1092 H 0.03816 0.56738 0.93547 0.0
H1093 H 0.01406 0.55756 0.8801 0.0
H1094 H 0.06951 0.54801 0.82408 0.0
H1095 H 0.09443 0.55868 0.88008 0.0
H1096 H 0.05294 0.56954 0.77844 0.0
H1097 H 0.96792 0.49285 0.8372 0.0
H1098 H 0.97729 0.52097 0.86159 0.0
H1099 H -0.00309 0.50725 0.86143 0.0
C1100 C 0.04549 0.56315 0.91161 0.0
C1101 C 0.0686 0.56382 0.91329 0.0
C1102 C 0.03127 0.55717 0.87947 0.0
C1103 C 0.03902 0.55107 0.84703 0.0
C1104 C 0.06244 0.55225 0.84821 0.0
H1105 H 0.93246 0.48054 0.66274 0.0
H1106 H 0.95936 0.48921 0.71557 0.0
C1107 C 0.07689 0.55843 0.88061 0.0
C1108 C 0.02293 0.54412 0.81242 0.0
H1109 H 0.96308 0.50826 0.78059 0.0
C1110 C 0.03332 0.55605 0.77921 0.0
C1111 C -0.0029 0.52612 0.81185 0.0
C1112 C 0.98421 0.51087 0.84482 0.0
C1113 C 0.01896 0.55134 0.74696 0.0
C1114 C 0.99289 0.53433 0.74695 0.0
C1115 C 0.98272 0.5217 0.77977 0.0
C1116 C 0.97606 0.5291 0.7135 0.0
C1117 C 0.03221 0.5644 0.71279 0.0
C1118 C 0.97541 0.54825 0.69368 0.0
C1119 C 0.95972 0.54324 0.66305 0.0
C1120 C 0.94377 0.51879 0.65066 0.0
C1121 C 0.94422 0.49965 0.67077 0.0
C1122 C 0.95981 0.50466 0.70144 0.0
H1123 H 0.05226 0.5703 0.71396 0.0
H1124 H 0.02401 0.55234 0.68875 0.0
H1125 H 0.03063 0.58127 0.70929 0.0
H1126 H 0.9869 0.5673 0.70211 0.0
H1127 H 0.9602 0.5587 0.64895 0.0
H1128 H 0.48591 0.05354 0.43177 0.0
H1129 H 0.49383 0.03725 0.48646 0.0
H1130 H 0.53744 0.01355 0.42453 0.0
H1131 H 0.53222 0.03293 0.3707 0.0
H1132 H 0.48359 0.0004 0.51587 0.0
H1133 H 0.58071 0.03359 0.50802 0.0
H1134 H 0.56776 0.048 0.4797 0.0
H1135 H 0.57315 0.02383 0.46213 0.0
C1136 C 0.49747 0.0451 0.42989 0.0
C1137 C 0.50906 0.04513 0.39709 0.0
C1138 C 0.50208 0.03586 0.46139 0.0
C1139 C 0.51739 0.02528 0.46048 0.0
C1140 C 0.52702 0.02318 0.42687 0.0
H1141 H 0.44959 0.91388 0.43755 0.0
H1142 H 0.46518 0.93274 0.49519 0.0
C1143 C 0.5233 0.03343 0.39563 0.0
C1144 C 0.52036 0.01299 0.49291 0.0
H1145 H 0.55346 0.98414 0.51028 0.0
C1146 C 0.49919 -0.00272 0.51357 0.0
C1147 C 0.54172 0.01056 0.4977 0.0
C1148 C 0.5672 0.0303 0.48614 0.0
C1149 C 0.49734 0.97558 0.52786 0.0
C1150 C 0.51366 0.96817 0.5134 0.0
C1151 C 0.53821 0.9879 0.51113 0.0
C1152 C 0.50429 0.95217 0.47986 0.0
C1153 C 0.47673 0.9595 0.55339 0.0
C1154 C 0.52036 0.95549 0.45047 0.0
C1155 C 0.5111 0.94431 0.41699 0.0
C1156 C 0.48558 0.92931 0.4118 0.0
C1157 C 0.46943 0.92582 0.44052 0.0
C1158 C 0.4786 0.93662 0.4741 0.0
H1159 H 0.47929 0.9697 0.57913 0.0
H1160 H 0.45857 0.95554 0.54211 0.0
H1161 H 0.47652 0.94188 0.55925 0.0
H1162 H 0.54023 0.9673 0.45256 0.0
H1163 H 0.52394 0.94726 0.39523 0.0
H1164 H 0.3969 0.45718 0.76219 0.0
H1165 H 0.41408 0.45275 0.8185 0.0
H1166 H 0.48125 0.46861 0.76224 0.0
H1167 H 0.4656 0.47735 0.70743 0.0
H1168 H 0.45528 0.50244 0.82766 0.0
H1169 H 0.48878 0.43859 0.85866 0.0
H1170 H 0.48164 0.43589 0.81132 0.0
H1171 H 0.45722 0.42812 0.84396 0.0
C1172 C 0.41517 0.4595 0.76154 0.0
C1173 C 0.43057 0.4693 0.73105 0.0
C1174 C 0.42469 0.4561 0.7938 0.0
C1175 C 0.44928 0.46122 0.79504 0.0
C1176 C 0.46234 0.46508 0.76226 0.0
H1177 H 0.5247 0.51033 0.70646 0.0
H1178 H 0.50361 0.51674 0.75731 0.0
C1179 C 0.45344 0.47013 0.7307 0.0
C1180 C 0.46439 0.47318 0.8275 0.0
H1181 H 0.52207 0.48167 0.83711 0.0
C1182 C 0.46975 0.49782 0.8321 0.0
C1183 C 0.48281 0.46736 0.83701 0.0
C1184 C 0.47715 0.44091 0.838 0.0
C1185 C 0.49449 0.517 0.83074 0.0
C1186 C 0.51318 0.51061 0.8269 0.0
C1187 C 0.50757 0.48655 0.83706 0.0
C1188 C 0.53136 0.52157 0.79704 0.0
C1189 C 0.50004 0.54324 0.82566 0.0
C1190 C 0.55518 0.52498 0.80147 0.0
C1191 C 0.56741 0.52187 0.77203 0.0
C1192 C 0.55598 0.51508 0.73795 0.0
C1193 C 0.53397 0.51554 0.73241 0.0
C1194 C 0.52198 0.51934 0.76169 0.0
H1195 H 0.48834 0.54726 0.84412 0.0
H1196 H 0.51993 0.55667 0.83072 0.0
H1197 H 0.49541 0.54566 0.79754 0.0
H1198 H 0.56288 0.52679 0.82829 0.0
H1199 H 0.5845 0.52225 0.77734 0.0
H1200 H 0.90742 0.47352 1.10043 0.0
H1201 H 0.93226 0.48152 0.15504 0.0
H1202 H 0.97369 0.45148 1.10188 0.0
H1203 H 0.9479 0.4422 1.04879 0.0
H1204 H 0.97424 0.51078 0.17008 0.0
H1205 H 0.98066 0.43042 0.19753 0.0
H1206 H 0.97936 0.42805 0.14942 0.0
H1207 H 0.95355 0.42694 0.17416 0.0
C1208 C 0.92182 0.46854 1.1007 0.0
C1209 C 0.92582 0.45719 1.07049 0.0
C1210 C 0.93577 0.4728 0.13215 0.0
C1211 C 0.95442 0.46636 0.13366 0.0
C1212 C 0.95861 0.45545 1.10286 0.0
H1213 H 0.03985 0.5335 1.04343 0.0
H1214 H 0.01569 0.52158 1.09879 0.0
C1215 C 0.9443 0.4507 1.07185 0.0
C1216 C 0.97294 0.47552 0.16344 0.0
H1217 H 0.02284 0.4676 0.16398 0.0
C1218 C 0.98465 0.50105 0.17083 0.0
C1219 C 0.98656 0.46332 0.1703 0.0
C1220 C 0.97407 0.43556 0.17293 0.0
C1221 C 0.01059 0.51496 0.17023 0.0
C1222 C 0.02365 0.50269 0.16014 0.0
C1223 C 0.01245 0.47723 0.1674 0.0
C1224 C 0.03994 0.51165 0.1279 0.0
C1225 C 0.02325 0.54279 0.17184 0.0
C1226 C 0.0604 0.50809 0.12426 0.0
C1227 C 0.07363 0.51401 1.09175 0.0
C1228 C 0.06677 0.52389 1.06265 0.0
C1229 C 0.04571 0.52634 1.06569 0.0
C1230 C 0.03234 0.52013 1.09784 0.0
H1231 H 0.01644 0.54857 0.19565 0.0
H1232 H 0.04371 0.55122 0.1736 0.0
H1233 H 0.01855 0.54996 0.14743 0.0
H1234 H 0.06618 0.50086 0.14651 0.0
H1235 H 0.08986 0.51187 1.09 0.0
H1236 H 0.04865 0.45393 0.47883 0.0
H1237 H 0.0248 0.44888 0.42436 0.0
H1238 H 0.98277 0.47618 0.48158 0.0
H1239 H 0.00913 0.48485 0.53464 0.0
H1240 H 0.95914 0.44723 0.41475 0.0
H1241 H 0.05504 0.52114 0.3866 0.0
H1242 H 0.04711 0.48955 0.39594 0.0
H1243 H 0.05055 0.51016 0.43242 0.0
C1244 C 0.03422 0.45879 0.47999 0.0
C1245 C 0.03196 0.47165 0.50994 0.0
C1246 C 0.0203 0.45539 0.44885 0.0
C1247 C 0.0033 0.46385 0.4482 0.0
C1248 C -0.00296 0.47107 0.48094 0.0
H1249 H 0.98212 0.51355 0.52368 0.0
H1250 H 0.00804 0.52062 0.47075 0.0
C1251 C 0.01193 0.47588 0.51141 0.0
C1252 C -0.00179 0.47307 0.41433 0.0
H1253 H 0.02442 0.53432 0.39558 0.0
C1254 C 0.97337 0.46597 0.40808 0.0
C1255 C 0.01668 0.49685 0.40244 0.0
C1256 C 0.04388 0.50485 0.40421 0.0
C1257 C 0.96665 0.48422 0.40364 0.0
C1258 C 0.98566 0.50951 0.40515 0.0
C1259 C 0.00995 0.51506 0.39719 0.0
C1260 C 0.98322 0.52477 0.43394 0.0
C1261 C 0.93955 0.47629 0.40753 0.0
C1262 C 0.96439 0.53077 0.43209 0.0
C1263 C 0.95025 0.52799 0.46294 0.0
C1264 C 0.95501 0.51917 0.49525 0.0
C1265 C 0.97752 0.51947 0.49877 0.0
C1266 C 0.99228 0.52347 0.46828 0.0
H1267 H 0.93457 0.47428 0.43666 0.0
H1268 H 0.9352 0.48995 0.39559 0.0
H1269 H 0.92776 0.45805 0.39436 0.0
H1270 H 0.95801 0.53346 0.40616 0.0
H1271 H 0.93416 0.52989 0.45971 0.0
H1272 H 0.46874 0.97705 0.87456 0.0
H1273 H 0.48768 0.00616 0.82464 0.0
H1274 H 0.42281 0.96294 0.7592 0.0
H1275 H 0.40247 0.93614 0.81055 0.0
H1276 H 0.46344 0.95606 0.74182 0.0
H1277 H 0.4978 0.05596 0.74466 0.0
H1278 H 0.49151 0.04429 0.78997 0.0
H1279 H 0.46641 0.03329 0.75789 0.0
C1280 C 0.45807 0.97454 0.85024 0.0
C1281 C 0.43476 0.95354 0.84569 0.0
C1282 C 0.46881 0.99119 0.82161 0.0
C1283 C 0.45704 0.98604 0.7876 0.0
C1284 C 0.43236 0.96716 0.78493 0.0
H1285 H 0.5895 0.0586 0.80513 0.0
H1286 H 0.57196 0.03616 0.7497 0.0
C1287 C 0.42105 0.95145 0.81422 0.0
C1288 C 0.47308 0.99365 0.75517 0.0
H1289 H 0.53051 0.04329 0.74742 0.0
C1290 C 0.4779 0.97537 0.74127 0.0
C1291 C 0.49138 0.0187 0.75096 0.0
C1292 C 0.48635 0.03919 0.76123 0.0
C1293 C 0.50254 0.98095 0.73645 0.0
C1294 C 0.52154 0.005 0.74524 0.0
C1295 C 0.5158 0.02424 0.74412 0.0
C1296 C 0.53856 0.00784 0.77513 0.0
C1297 C 0.5081 0.96023 0.73127 0.0
C1298 C 0.5273 -0.00217 0.80877 0.0
C1299 C 0.53616 0.01221 0.84005 0.0
C1300 C 0.5576 0.03542 0.83839 0.0
C1301 C 0.57213 0.04182 0.80685 0.0
C1302 C 0.56249 0.02837 0.77502 0.0
H1303 H 0.49522 0.94673 0.71111 0.0
H1304 H 0.52757 0.96742 0.72232 0.0
H1305 H 0.50525 0.95025 0.75725 0.0
H1306 H 0.50916 0.98138 0.80997 0.0
H1307 H 0.52484 0.00644 0.86428 0.0
H1308 H 0.42282 0.51342 0.13447 0.0
H1309 H 0.43572 0.50187 1.07858 0.0
H1310 H 0.50667 0.52304 0.12742 0.0
H1311 H 0.49424 0.53556 0.18206 0.0
H1312 H 0.44544 0.4681 1.06268 0.0
H1313 H 0.53291 0.54751 1.02988 0.0
H1314 H 0.53272 0.54997 1.07801 0.0
H1315 H 0.50878 0.55113 1.05174 0.0
C1316 C 0.44121 0.51559 0.13306 0.0
C1317 C 0.45773 0.52558 0.16238 0.0
C1318 C 0.44865 0.50934 1.1009 0.0
C1319 C 0.47259 0.51267 1.0978 0.0
C1320 C 0.4886 0.52163 0.12793 0.0
H1321 H 0.49168 0.44154 0.18093 0.0
H1322 H 0.47663 0.45134 0.12671 0.0
C1323 C 0.48132 0.5282 0.1597 0.0
C1324 C 0.47989 0.50295 1.06627 0.0
H1325 H 0.53701 0.5099 1.05875 0.0
C1326 C 0.46544 0.4774 1.05976 0.0
C1327 C 0.50521 0.51468 1.05663 0.0
C1328 C 0.5206 0.54244 1.0539 0.0
C1329 C 0.47715 0.46313 1.05804 0.0
C1330 C 0.50279 0.47505 1.06582 0.0
C1331 C 0.51694 0.50043 1.05757 0.0
C1332 C 0.51145 0.46609 1.09678 0.0
C1333 C 0.46172 0.43536 1.05556 0.0
C1334 C 0.53645 0.47252 1.09992 0.0
C1335 C 0.54527 0.46797 0.132 0.0
C1336 C 0.52915 0.45635 0.16129 0.0
C1337 C 0.50434 0.45017 0.15854 0.0
C1338 C 0.49563 0.4552 0.12686 0.0
H1339 H 0.45061 0.43023 1.03033 0.0
H1340 H 0.47337 0.42642 1.05564 0.0
H1341 H 0.44838 0.42816 1.07838 0.0
H1342 H 0.54931 0.48141 1.07787 0.0
H1343 H 0.56458 0.47282 0.13338 0.0
H1344 H 0.29176 0.96008 0.78333 0.0
H1345 H 0.28691 0.98177 0.73198 0.0
H1346 H 0.29852 0.93411 0.65917 0.0
H1347 H 0.30121 0.91119 0.71005 0.0
H1348 H 0.32378 0.00865 0.69459 0.0
H1349 H 0.25599 0.94689 0.59602 0.0
H1350 H 0.25514 0.93715 0.64221 0.0
H1351 H 0.27325 0.93211 0.60837 0.0
C1352 C 0.29199 0.9534 0.75637 0.0
C1353 C 0.29749 0.93427 0.75076 0.0
C1354 C 0.28933 0.96594 0.72695 0.0
C1355 C 0.29242 0.95975 0.69151 0.0
C1356 C 0.2955 0.93909 0.68599 0.0
H1357 H 0.40114 0.03914 0.55016 0.0
H1358 H 0.37228 0.02132 0.6004 0.0
C1359 C 0.29763 0.92626 0.71528 0.0
C1360 C 0.29836 0.97767 0.66153 0.0
H1361 H 0.29749 0.97849 0.56948 0.0
C1362 C 0.31728 0.00222 0.66739 0.0
C1363 C 0.28955 0.96995 0.62594 0.0
C1364 C 0.26713 0.94512 0.61803 0.0
C1365 C 0.32983 0.01794 0.63841 0.0
C1366 C 0.32386 0.00857 0.60281 0.0
C1367 C 0.30274 0.98537 0.59686 0.0
C1368 C 0.34134 0.02072 0.57253 0.0
C1369 C 0.35034 0.04393 0.64635 0.0
C1370 C 0.33334 0.02551 0.53969 0.0
C1371 C 0.34973 0.03517 0.51049 0.0
C1372 C 0.37436 0.04009 0.51366 0.0
C1373 C 0.38228 0.03537 0.54669 0.0
C1374 C 0.36588 0.02559 0.57568 0.0
H1375 H 0.34588 0.05141 0.67076 0.0
H1376 H 0.36773 0.04365 0.65203 0.0
H1377 H 0.35361 0.0566 0.62329 0.0
H1378 H 0.31438 0.02152 0.53652 0.0
H1379 H 0.34294 0.03823 0.4852 0.0
H1380 H 0.39729 0.39743 1.05143 0.0
H1381 H 0.36535 0.38893 1.00633 0.0
H1382 H 0.32289 0.31359 1.04398 0.0
H1383 H 0.35453 0.32207 1.08992 0.0
H1384 H 0.35287 0.34578 0.95533 0.0
H1385 H 0.27245 0.34226 1.02778 0.0
H1386 H 0.30373 0.36126 1.04431 0.0
H1387 H 0.28915 0.32822 1.04715 0.0
C1388 C 0.38088 0.37924 1.05075 0.0
C1389 C 0.37849 0.36036 1.07395 0.0
C1390 C 0.3627 0.37441 1.02501 0.0
C1391 C 0.3418 0.35071 1.0222 0.0
C1392 C 0.3388 0.33204 1.04614 0.0
H1393 H 0.28353 0.33384 0.80672 0.0
H1394 H 0.28153 0.31546 0.86562 0.0
C1395 C 0.35701 0.33686 1.07197 0.0
C1396 C 0.3252 0.34501 0.991 0.0
H1397 H 0.27121 0.34166 0.96395 0.0
C1398 C 0.33475 0.3443 0.95705 0.0
C1399 C 0.30165 0.34303 0.99388 0.0
C1400 C 0.29095 0.34372 1.03016 0.0
C1401 C 0.32222 0.34359 0.92538 0.0
C1402 C 0.29905 0.34279 0.92793 0.0
C1403 C 0.28875 0.34189 0.96214 0.0
C1404 C 0.28835 0.34805 0.89582 0.0
C1405 C 0.33509 0.34593 0.88965 0.0
C1406 C 0.28952 0.3711 0.89384 0.0
C1407 C 0.28995 0.38141 0.86027 0.0
C1408 C 0.28971 0.36894 0.8284 0.0
C1409 C 0.28421 0.34415 0.83072 0.0
C1410 C 0.2832 0.33362 0.86443 0.0
H1411 H 0.35453 0.35006 0.89314 0.0
H1412 H 0.32497 0.32827 0.87444 0.0
H1413 H 0.33536 0.36091 0.87305 0.0
H1414 H 0.29301 0.38236 0.91785 0.0
H1415 H 0.29319 0.40019 0.8593 0.0
H1416 H 0.94223 0.34651 0.2021 0.0
H1417 H 0.96522 0.33978 0.25004 0.0
H1418 H 0.02945 0.36756 0.18076 0.0
H1419 H 0.00705 0.37549 0.13327 0.0
H1420 H 0.98899 0.31085 0.25105 0.0
H1421 H 0.05541 0.41151 0.27043 0.0
H1422 H 0.02729 0.40043 0.24457 0.0
H1423 H 0.05351 0.39965 0.22553 0.0
C1424 C 0.96135 0.3515 0.19721 0.0
C1425 C 0.97287 0.36174 0.16398 0.0
C1426 C 0.97433 0.34733 0.22443 0.0
C1427 C -0.00097 0.3533 0.21892 0.0
C1428 C 0.01047 0.36306 0.1856 0.0
H1429 H 0.09428 0.37223 0.40092 0.0
H1430 H 0.08109 0.36049 0.33823 0.0
C1431 C -0.00244 0.3674 0.15844 0.0
C1432 C 0.01303 0.35043 0.2489 0.0
H1433 H 0.05867 0.38402 0.30972 0.0
C1434 C 0.00449 0.32677 0.26363 0.0
C1435 C 0.03338 0.37123 0.26494 0.0
C1436 C 0.04291 0.39718 0.25083 0.0
C1437 C 0.01505 0.32352 0.29515 0.0
C1438 C 0.03437 0.3445 0.31241 0.0
C1439 C 0.04396 0.36791 0.29628 0.0
C1440 C 0.04191 0.34378 0.35006 0.0
C1441 C 0.0049 0.29779 0.31029 0.0
C1442 C 0.02419 0.33705 0.37764 0.0
C1443 C 0.03165 0.34387 0.4133 0.0
C1444 C 0.05699 0.35771 0.42194 0.0
C1445 C 0.07463 0.36194 0.39493 0.0
C1446 C 0.06713 0.35511 0.35917 0.0
H1447 H -0.00205 0.28373 0.28832 0.0
H1448 H 0.01914 0.29604 0.32604 0.0
H1449 H 0.98902 0.29358 0.32839 0.0
H1450 H 0.00467 0.32879 0.37123 0.0
H1451 H 0.01755 0.34051 0.43328 0.0
H1452 H 0.71474 0.05684 0.75837 0.0
H1453 H 0.72439 0.04175 0.70344 0.0
H1454 H 0.68992 0.07458 0.64009 0.0
H1455 H 0.68281 0.09194 0.69421 0.0
H1456 H 0.69126 0.00785 0.66996 0.0
H1457 H 0.73585 0.07834 0.56633 0.0
H1458 H 0.73695 0.08704 0.61318 0.0
H1459 H 0.71215 0.08371 0.58393 0.0
C1460 C 0.71043 0.06202 0.73262 0.0
C1461 C 0.6973 0.07503 0.73082 0.0
C1462 C 0.71582 0.05317 0.70111 0.0
C1463 C 0.70777 0.05674 0.66735 0.0
C1464 C 0.6969 0.07183 0.6654 0.0
H1465 H 0.60189 0.95206 0.54332 0.0
H1466 H 0.63267 0.97691 0.58836 0.0
C1467 C 0.69219 0.08128 0.6967 0.0
C1468 C 0.7051 0.04046 0.63621 0.0
H1469 H 0.69758 0.03882 0.54492 0.0
C1470 C 0.69358 0.01482 0.64256 0.0
C1471 C 0.70886 0.04905 0.6001 0.0
C1472 C 0.72444 0.07611 0.59071 0.0
C1473 C 0.68263 -0.00225 0.61438 0.0
C1474 C 0.68225 0.00656 0.57936 0.0
C1475 C 0.69685 0.03199 0.5721 0.0
C1476 C 0.66408 0.99037 0.55185 0.0
C1477 C 0.67045 0.97048 0.62294 0.0
C1478 C 0.67125 0.99041 0.51588 0.0
C1479 C 0.65344 0.97688 0.48961 0.0
C1480 C 0.62812 0.96294 0.49889 0.0
C1481 C 0.62111 0.96275 0.53505 0.0
C1482 C 0.63884 0.97657 0.56108 0.0
H1483 H 0.68126 0.96705 0.64372 0.0
H1484 H 0.65171 0.96412 0.63435 0.0
H1485 H 0.66872 0.95928 0.59857 0.0
H1486 H 0.69055 0.00123 0.508 0.0
H1487 H 0.65949 0.97787 0.4619 0.0
H1488 H 0.63474 0.64869 1.08357 0.0
H1489 H 0.6602 0.66594 1.03033 0.0
H1490 H 0.62769 0.71219 1.01204 0.0
H1491 H 0.60177 0.69472 1.06592 0.0
H1492 H 0.61929 0.68271 0.95777 0.0
H1493 H 0.71842 0.72405 0.98671 0.0
H1494 H 0.70264 0.69564 1.01139 0.0
H1495 H 0.69635 0.72041 1.02145 0.0
C1496 C 0.63374 0.66335 1.06933 0.0
C1497 C 0.61598 0.6701 1.07875 0.0
C1498 C 0.64854 0.67341 1.03882 0.0
C1499 C 0.64611 0.69059 1.01722 0.0
C1500 C 0.62998 0.69905 1.02839 0.0
H1501 H 0.66677 0.66798 0.78817 0.0
H1502 H 0.66921 0.69475 0.83853 0.0
C1503 C 0.61504 0.6889 1.05897 0.0
C1504 C 0.65562 0.69454 0.97964 0.0
H1505 H 0.70357 0.6966 0.93181 0.0
C1506 C 0.63805 0.68681 0.95173 0.0
C1507 C 0.68012 0.70012 0.97157 0.0
C1508 C 0.70044 0.71079 0.99948 0.0
C1509 C 0.64331 0.68119 0.91731 0.0
C1510 C 0.66688 0.68373 0.91069 0.0
C1511 C 0.68538 0.69431 0.93721 0.0
C1512 C 0.67069 0.67095 0.87977 0.0
C1513 C 0.6228 0.67006 0.88958 0.0
C1514 C 0.67175 0.6493 0.88636 0.0
C1515 C 0.67044 0.63406 0.85779 0.0
C1516 C 0.6681 0.64024 0.82211 0.0
C1517 C 0.66863 0.66277 0.8154 0.0
C1518 C 0.66994 0.67804 0.84408 0.0
H1519 H 0.60497 0.66763 0.90017 0.0
H1520 H 0.62814 0.68231 0.86556 0.0
H1521 H 0.6198 0.65174 0.88058 0.0
H1522 H 0.67228 0.64352 0.9138 0.0
H1523 H 0.67053 0.61706 0.86371 0.0
H1524 H 0.0658 0.66583 0.19414 0.0
H1525 H 0.0442 0.67638 0.23986 0.0
H1526 H 0.98933 0.66753 0.16112 0.0
H1527 H 0.01013 0.65579 1.11561 0.0
H1528 H 0.02284 0.70791 0.25179 0.0
H1529 H 0.95262 0.60833 0.23005 0.0
H1530 H 0.98304 0.6221 0.21 0.0
H1531 H 0.96019 0.62887 0.19218 0.0
C1532 C 0.04942 0.66663 0.18634 0.0
C1533 C 0.03925 0.65922 0.1516 0.0
C1534 C 0.03727 0.67296 0.21238 0.0
C1535 C 0.01488 0.67214 0.20398 0.0
C1536 C 0.00641 0.66789 0.16817 0.0
H1537 H 0.9109 0.62076 0.38304 0.0
H1538 H 0.92605 0.64141 0.32463 0.0
C1539 C 0.01844 0.66131 0.14215 0.0
C1540 C -0.00162 0.67053 0.23393 0.0
H1541 H 0.94936 0.62703 0.28224 0.0
C1542 C 0.00637 0.69045 0.25813 0.0
C1543 C 0.97683 0.64774 0.24198 0.0
C1544 C 0.96762 0.62544 0.21741 0.0
C1545 C 0.99424 0.68766 0.29132 0.0
C1546 C 0.97405 0.66421 0.30068 0.0
C1547 C 0.96484 0.64501 0.2751 0.0
C1548 C 0.96492 0.65754 0.3383 0.0
C1549 C 0.00376 0.70958 0.3165 0.0
C1550 C 0.98169 0.66031 0.36572 0.0
C1551 C 0.97309 0.64866 0.39901 0.0
C1552 C 0.94754 0.63368 0.4053 0.0
C1553 C 0.93071 0.63203 0.37868 0.0
C1554 C 0.93933 0.64396 0.34547 0.0
H1555 H 0.01088 0.72708 0.30097 0.0
H1556 H 0.98912 0.70796 0.33541 0.0
H1557 H 0.01945 0.71085 0.33245 0.0
H1558 H 0.00147 0.66993 0.36058 0.0
H1559 H 0.98648 0.65 0.41888 0.0
H1560 H 0.49436 0.10001 0.49249 0.0
H1561 H 0.50671 0.09953 0.55555 0.0
H1562 H 0.57933 0.11644 0.51929 0.0
H1563 H 0.56743 0.11786 0.45691 0.0
H1564 H 0.51941 0.07334 0.59515 0.0
H1565 H 0.60322 0.16576 0.59682 0.0
H1566 H 0.58177 0.15554 0.55955 0.0
H1567 H 0.60518 0.14652 0.5624 0.0
C1568 C 0.51315 0.1041 0.49785 0.0
C1569 C 0.52988 0.10955 0.46871 0.0
C1570 C 0.52027 0.10366 0.53437 0.0
C1571 C 0.54446 0.10864 0.54364 0.0
C1572 C 0.56092 0.11351 0.51432 0.0
H1573 H 0.61806 0.10509 0.75219 0.0
H1574 H 0.60739 0.10577 0.68802 0.0
C1575 C 0.55391 0.11415 0.47799 0.0
C1576 C 0.55217 0.10805 0.58327 0.0
H1577 H 0.59832 0.13955 0.64664 0.0
C1578 C 0.53664 0.08805 0.60614 0.0
C1579 C 0.57474 0.12689 0.59901 0.0
C1580 C 0.59206 0.14999 0.57831 0.0
C1581 C 0.54294 0.08621 0.6427 0.0
C1582 C 0.56549 0.10498 0.65831 0.0
C1583 C 0.58112 0.12489 0.63549 0.0
C1584 C 0.57255 0.10471 0.69825 0.0
C1585 C 0.52546 0.06361 0.66416 0.0
C1586 C 0.55712 0.10424 0.72665 0.0
C1587 C 0.56344 0.10428 0.76348 0.0
C1588 C 0.58553 0.10466 0.77419 0.0
C1589 C 0.60104 0.10503 0.7458 0.0
C1590 C 0.59483 0.10536 0.70869 0.0
H1591 H 0.51288 0.04798 0.64636 0.0
H1592 H 0.5359 0.05746 0.68154 0.0
H1593 H 0.51384 0.0682 0.68178 0.0
H1594 H 0.54005 0.1041 0.72041 0.0
H1595 H 0.5506 0.10374 0.78377 0.0
H1596 H 0.41448 0.54822 0.78215 0.0
H1597 H 0.42383 0.55913 0.84605 0.0
H1598 H 0.38572 0.48177 0.87402 0.0
H1599 H 0.37653 0.47076 0.80994 0.0
H1600 H 0.39882 0.55429 0.90618 0.0
H1601 H 0.44777 0.50191 0.92965 0.0
H1602 H 0.43881 0.50616 0.88514 0.0
H1603 H 0.41647 0.48257 0.91451 0.0
C1604 C 0.40784 0.53334 0.80171 0.0
C1605 C 0.3945 0.50841 0.78981 0.0
C1606 C 0.41333 0.53971 0.8388 0.0
C1607 C 0.4061 0.52153 0.86609 0.0
C1608 C 0.39233 0.49656 0.85436 0.0
H1609 H 0.40968 0.55801 1.1033 0.0
H1610 H 0.39709 0.54514 1.04035 0.0
C1611 C 0.38671 0.49016 0.81718 0.0
C1612 C 0.41279 0.52886 0.90621 0.0
H1613 H 0.44001 0.51959 0.98147 0.0
C1614 C 0.40777 0.54653 0.92242 0.0
C1615 C 0.42493 0.51944 0.92849 0.0
C1616 C 0.43256 0.50165 0.91358 0.0
C1617 C 0.41403 0.55454 0.95907 0.0
C1618 C 0.42562 0.54467 0.98156 0.0
C1619 C 0.43094 0.52725 0.96525 0.0
C1620 C 0.43318 0.55277 1.0212 0.0
C1621 C 0.40877 0.57428 0.97294 0.0
C1622 C 0.45765 0.56109 1.03323 0.0
C1623 C 0.46496 0.56865 1.06952 0.0
C1624 C 0.44812 0.56801 1.09602 0.0
C1625 C 0.42352 0.55937 1.08419 0.0
C1626 C 0.41625 0.55198 1.04767 0.0
H1627 H 0.40659 0.58487 0.95049 0.0
H1628 H 0.39121 0.56539 0.9886 0.0
H1629 H 0.42385 0.58748 0.99097 0.0
H1630 H 0.47139 0.56192 1.01435 0.0
H1631 H 0.48397 0.57467 1.07691 0.0
H1632 H 0.89935 0.41209 0.14964 0.0
H1633 H 0.90065 0.42587 0.21213 0.0
H1634 H 0.84391 0.444 0.18753 0.0
H1635 H 0.84274 0.43048 0.12468 0.0
H1636 H 0.91224 0.47161 0.24195 0.0
H1637 H 0.81564 0.4039 0.28013 0.0
H1638 H 0.8301 0.40037 0.2399 0.0
H1639 H 0.81852 0.4217 0.24041 0.0
C1640 C 0.88678 0.41863 0.15736 0.0
C1641 C 0.87065 0.41964 0.13124 0.0
C1642 C 0.8877 0.42679 0.19355 0.0
C1643 C 0.87217 0.43589 0.20583 0.0
C1644 C 0.85589 0.43675 0.17987 0.0
H1645 H 0.89953 0.52102 0.41617 0.0
H1646 H 0.89728 0.50979 0.35195 0.0
C1647 C 0.85523 0.42893 0.14345 0.0
C1648 C 0.87345 0.44481 0.24515 0.0
H1649 H 0.83896 0.43521 0.32284 0.0
C1650 C 0.89612 0.4636 0.25949 0.0
C1651 C 0.85273 0.43462 0.26909 0.0
C1652 C 0.82788 0.41389 0.25688 0.0
C1653 C 0.89859 0.47239 0.29585 0.0
C1654 C 0.8778 0.46232 0.31991 0.0
C1655 C 0.85515 0.44338 0.30545 0.0
C1656 C 0.87912 0.47006 0.36012 0.0
C1657 C 0.92393 0.49199 0.30818 0.0
C1658 C 0.86892 0.45202 0.38773 0.0
C1659 C 0.86987 0.45849 0.42479 0.0
C1660 C 0.88094 0.48344 0.43659 0.0
C1661 C 0.89082 0.5016 0.40901 0.0
C1662 C 0.88982 0.49507 0.37174 0.0
H1663 H 0.93883 0.49314 0.29022 0.0
H1664 H 0.92497 0.5103 0.30789 0.0
H1665 H 0.9276 0.48817 0.33594 0.0
H1666 H 0.86043 0.43258 0.38073 0.0
H1667 H 0.86212 0.44365 0.44443 0.0
H1668 H 0.42569 0.84762 0.46147 0.0
H1669 H 0.41312 0.84849 0.52403 0.0
H1670 H 0.4886 0.90215 0.5507 0.0
H1671 H 0.5014 0.89992 0.48894 0.0
H1672 H 0.40874 0.877 0.56609 0.0
H1673 H 0.47907 0.86357 0.63676 0.0
H1674 H 0.49356 0.8907 0.6091 0.0
H1675 H 0.47553 0.86056 0.58846 0.0
C1676 C 0.43983 0.85921 0.48075 0.0
C1677 C 0.46482 0.87335 0.46934 0.0
C1678 C 0.4325 0.85991 0.51701 0.0
C1679 C 0.44969 0.87497 0.54384 0.0
C1680 C 0.47465 0.88937 0.53218 0.0
H1681 H 0.41172 0.85203 0.7788 0.0
H1682 H 0.42362 0.85066 0.71609 0.0
C1683 C 0.48207 0.88823 0.49613 0.0
C1684 C 0.4413 0.87595 0.58304 0.0
H1685 H 0.4563 0.87683 0.67307 0.0
C1686 C 0.41924 0.87677 0.58929 0.0
C1687 C 0.45422 0.87535 0.61458 0.0
C1688 C 0.47674 0.87223 0.61195 0.0
C1689 C 0.41006 0.87706 0.62468 0.0
C1690 C 0.42357 0.87759 0.65618 0.0
C1691 C 0.4456 0.8767 0.64991 0.0
C1692 C 0.41503 0.8781 0.69547 0.0
C1693 C 0.38522 0.87574 0.62748 0.0
C1694 C 0.40586 0.89388 0.70679 0.0
C1695 C 0.39822 0.8941 0.74309 0.0
C1696 C 0.40003 0.8791 0.77021 0.0
C1697 C 0.40963 0.86374 0.75915 0.0
C1698 C 0.41673 0.8631 0.72279 0.0
H1699 H 0.37373 0.86703 0.60307 0.0
H1700 H 0.37467 0.86496 0.65149 0.0
H1701 H 0.38811 0.89478 0.62958 0.0
H1702 H 0.40507 0.90663 0.68779 0.0
H1703 H 0.39165 0.90675 0.75015 0.0
H1704 H 0.6145 0.52008 0.81557 0.0
H1705 H 0.60449 0.50744 0.87917 0.0
H1706 H 0.57091 0.43091 0.8474 0.0
H1707 H 0.58052 0.44335 0.78409 0.0
H1708 H 0.56053 0.47968 0.9166 0.0
H1709 H 0.6142 0.43107 0.92867 0.0
H1710 H 0.6179 0.4509 0.89086 0.0
H1711 H 0.59233 0.41962 0.89216 0.0
C1712 C 0.6051 0.50052 0.8219 0.0
C1713 C 0.59854 0.48294 0.79364 0.0
C1714 C 0.59926 0.4932 0.85875 0.0
C1715 C 0.58703 0.46799 0.86931 0.0
C1716 C 0.58075 0.45049 0.84113 0.0
H1717 H 0.50744 0.4076 1.07917 0.0
H1718 H 0.51916 0.42111 1.01667 0.0
C1719 C 0.58632 0.45775 0.80436 0.0
C1720 C 0.58046 0.45997 0.90917 0.0
H1721 H 0.58641 0.42514 0.97687 0.0
C1722 C 0.56632 0.46778 0.92958 0.0
C1723 C 0.58793 0.44459 0.92742 0.0
C1724 C 0.60413 0.43622 0.90885 0.0
C1725 C 0.55921 0.46047 0.96628 0.0
C1726 C 0.56606 0.44445 0.98423 0.0
C1727 C 0.58068 0.43711 0.96401 0.0
C1728 C 0.55855 0.43536 1.02357 0.0
C1729 C 0.54486 0.47067 0.98572 0.0
C1730 C 0.57619 0.43753 1.04967 0.0
C1731 C 0.56937 0.42942 1.08605 0.0
C1732 C 0.54448 0.41841 1.09808 0.0
C1733 C 0.5268 0.41577 1.07172 0.0
C1734 C 0.53363 0.42394 1.0355 0.0
H1735 H 0.54757 0.48798 0.97292 0.0
H1736 H 0.52478 0.45688 0.98468 0.0
H1737 H 0.55052 0.47462 1.01445 0.0
H1738 H 0.59555 0.446 1.0421 0.0
H1739 H 0.58378 0.43214 1.10495 0.0
H1740 H 0.12214 0.54395 0.44329 0.0
H1741 H 0.12435 0.55417 0.37924 0.0
H1742 H 0.09324 0.47709 0.35183 0.0
H1743 H 0.09053 0.46666 0.41651 0.0
H1744 H 0.14861 0.55218 0.32274 0.0
H1745 H 0.04964 0.49066 0.2888 0.0
H1746 H 0.06059 0.49593 0.33473 0.0
H1747 H 0.0645 0.47453 0.30659 0.0
C1748 C 0.11573 0.52897 0.42388 0.0
C1749 C 0.10621 0.50431 0.43608 0.0
C1750 C 0.11703 0.53495 0.38667 0.0
C1751 C 0.10866 0.51663 0.35941 0.0
C1752 C 0.09938 0.49191 0.37143 0.0
H1753 H 0.14643 0.55612 0.12389 0.0
H1754 H 0.1453 0.54243 0.18668 0.0
C1755 C 0.09812 0.48588 0.40888 0.0
C1756 C 0.11025 0.52381 0.3191 0.0
H1757 H 0.07642 0.51238 0.24033 0.0
C1758 C 0.1327 0.54326 0.30495 0.0
C1759 C 0.08977 0.51273 0.2947 0.0
C1760 C 0.06469 0.49245 0.30691 0.0
C1761 C 0.13521 0.5516 0.26843 0.0
C1762 C 0.1148 0.54044 0.24413 0.0
C1763 C 0.09233 0.5211 0.25818 0.0
C1764 C 0.11605 0.54921 0.20488 0.0
C1765 C 0.15974 0.57297 0.25645 0.0
C1766 C 0.1 0.5576 0.19272 0.0
C1767 C 0.10091 0.56584 0.15674 0.0
C1768 C 0.11759 0.56568 0.13068 0.0
C1769 C 0.13353 0.55703 0.14268 0.0
C1770 C 0.13286 0.54911 0.17901 0.0
H1771 H 0.17172 0.58322 0.27977 0.0
H1772 H 0.1697 0.56578 0.23988 0.0
H1773 H 0.15695 0.58612 0.23958 0.0
H1774 H 0.08666 0.55794 0.21126 0.0
H1775 H 0.08797 0.57192 0.14918 0.0
loop_
_geom_bond_atom_site_label_1
_geom_bond_atom_site_label_2
_geom_bond_distance
_geom_bond_site_symmetry_2
_ccdc_geom_bond_type
Tb0 C2 2.809 . S
Tb0 O20 2.484 . S
Tb0 O21 2.440 . S
Tb0 O22 2.658 . S
Tb0 O23 2.409 . S
Tb0 O24 2.378 . S
Tb0 O28 2.325 . S
Tb0 O31 2.341 . S
Tb1 C11 2.809 . S
Tb1 O22 2.325 . S
Tb1 O25 2.341 . S
Tb1 O26 2.484 . S
Tb1 O27 2.440 . S
Tb1 O28 2.658 . S
Tb1 O29 2.409 . S
Tb1 O30 2.378 . S
C2 Tb0 2.809 . S
C2 C3 1.514 . S
C2 O20 1.248 . S
C2 O21 1.266 . S
C3 C2 1.514 . S
C3 C4 1.359 . S
C3 C8 1.348 . S
C4 C3 1.359 . S
C4 C5 1.380 . S
C4 H32 0.929 . S
C5 C4 1.380 . S
C5 C6 1.347 . S
C5 H33 0.931 . S
C6 C5 1.347 . S
C6 C7 1.369 . S
C7 C6 1.369 . S
C7 C8 1.408 . S
C7 H34 0.930 . S
C8 C3 1.348 . S
C8 C7 1.408 . S
C8 H35 0.930 . S
C9 O22 1.281 . S
C9 O23 1.254 . S
C10 O24 1.236 . S
C10 O25 1.266 . S
C11 Tb1 2.809 . S
C11 C12 1.514 . S
C11 O26 1.248 . S
C11 O27 1.266 . S
C12 C11 1.514 . S
C12 C13 1.359 . S
C12 C17 1.348 . S
C13 C12 1.359 . S
C13 C14 1.380 . S
C13 H36 0.929 . S
C14 C13 1.380 . S
C14 C15 1.347 . S
C14 H37 0.931 . S
C15 C14 1.347 . S
C15 C16 1.369 . S
C16 C15 1.369 . S
C16 C17 1.408 . S
C16 H38 0.930 . S
C17 C12 1.348 . S
C17 C16 1.408 . S
C17 H39 0.930 . S
C18 O28 1.281 . S
C18 O29 1.254 . S
C19 O30 1.236 . S
C19 O31 1.266 . S
O20 Tb0 2.484 . S
O20 C2 1.248 . S
O21 Tb0 2.440 . S
O21 C2 1.266 . S
O22 Tb0 2.658 . S
O22 Tb1 2.325 . S
O22 C9 1.281 . S
O23 Tb0 2.409 . S
O23 C9 1.254 . S
O24 Tb0 2.378 . S
O24 C10 1.236 . S
O25 Tb1 2.341 . S
O25 C10 1.266 . S
O26 Tb1 2.484 . S
O26 C11 1.248 . S
O27 Tb1 2.440 . S
O27 C11 1.266 . S
O28 Tb0 2.325 . S
O28 Tb1 2.658 . S
O28 C18 1.281 . S
O29 Tb1 2.409 . S
O29 C18 1.254 . S
O30 Tb1 2.378 . S
O30 C19 1.236 . S
O31 Tb0 2.341 . S
O31 C19 1.266 . S
H32 C4 0.929 . S
H33 C5 0.931 . S
H34 C7 0.930 . S
H35 C8 0.930 . S
H36 C13 0.929 . S
H37 C14 0.931 . S
H38 C16 0.930 . S
H39 C17 0.930 . S
Tb40 C42 2.809 . S
Tb40 O60 2.484 . S
Tb40 O61 2.440 . S
Tb40 O62 2.658 . S
Tb40 O63 2.409 . S
Tb40 O64 2.378 . S
Tb40 O68 2.325 . S
Tb40 O71 2.341 . S
Tb41 C51 2.809 . S
Tb41 O62 2.325 . S
Tb41 O65 2.341 . S
Tb41 O66 2.484 . S
Tb41 O67 2.440 . S
Tb41 O68 2.658 . S
Tb41 O69 2.409 . S
Tb41 O70 2.378 . S
C42 Tb40 2.809 . S
C42 C43 1.514 . S
C42 O60 1.248 . S
C42 O61 1.266 . S
C43 C42 1.514 . S
C43 C44 1.359 . S
C43 C48 1.348 . S
C44 C43 1.359 . S
C44 C45 1.380 . S
C44 H72 0.929 . S
C45 C44 1.380 . S
C45 C46 1.347 . S
C45 H73 0.931 . S
C46 C45 1.347 . S
C46 C47 1.369 . S
C47 C46 1.369 . S
C47 C48 1.408 . S
C47 H74 0.930 . S
C48 C43 1.348 . S
C48 C47 1.408 . S
C48 H75 0.930 . S
C49 O62 1.281 . S
C49 O63 1.254 . S
C50 O64 1.236 . S
C50 O65 1.266 . S
C51 Tb41 2.809 . S
C51 C52 1.514 . S
C51 O66 1.248 . S
C51 O67 1.266 . S
C52 C51 1.514 . S
C52 C53 1.359 . S
C52 C57 1.348 . S
C53 C52 1.359 . S
C53 C54 1.380 . S
C53 H76 0.929 . S
C54 C53 1.380 . S
C54 C55 1.347 . S
C54 H77 0.931 . S
C55 C54 1.347 . S
C55 C56 1.369 . S
C56 C55 1.369 . S
C56 C57 1.408 . S
C56 H78 0.930 . S
C57 C52 1.348 . S
C57 C56 1.408 . S
C57 H79 0.930 . S
C58 O68 1.281 . S
C58 O69 1.254 . S
C59 O70 1.236 . S
C59 O71 1.266 . S
O60 Tb40 2.484 . S
O60 C42 1.248 . S
O61 Tb40 2.440 . S
O61 C42 1.266 . S
O62 Tb40 2.658 . S
O62 Tb41 2.325 . S
O62 C49 1.281 . S
O63 Tb40 2.409 . S
O63 C49 1.254 . S
O64 Tb40 2.378 . S
O64 C50 1.236 . S
O65 Tb41 2.341 . S
O65 C50 1.266 . S
O66 Tb41 2.484 . S
O66 C51 1.248 . S
O67 Tb41 2.440 . S
O67 C51 1.266 . S
O68 Tb40 2.325 . S
O68 Tb41 2.658 . S
O68 C58 1.281 . S
O69 Tb41 2.409 . S
O69 C58 1.254 . S
O70 Tb41 2.378 . S
O70 C59 1.236 . S
O71 Tb40 2.341 . S
O71 C59 1.266 . S
H72 C44 0.929 . S
H73 C45 0.931 . S
H74 C47 0.930 . S
H75 C48 0.930 . S
H76 C53 0.929 . S
H77 C54 0.931 . S
H78 C56 0.930 . S
H79 C57 0.930 . S
Tb80 C82 2.809 . S
Tb80 O100 2.484 . S
Tb80 O101 2.440 . S
Tb80 O102 2.658 . S
Tb80 O103 2.409 . S
Tb80 O104 2.378 . S
Tb80 O108 2.325 . S
Tb80 O111 2.341 . S
Tb81 C91 2.809 . S
Tb81 O102 2.325 . S
Tb81 O105 2.341 . S
Tb81 O106 2.484 . S
Tb81 O107 2.440 . S
Tb81 O108 2.658 . S
Tb81 O109 2.409 . S
Tb81 O110 2.378 . S
C82 Tb80 2.809 . S
C82 C83 1.514 1_556 S
C82 O100 1.248 . S
C82 O101 1.266 . S
C83 C82 1.514 1_554 S
C83 C84 1.359 . S
C83 C88 1.348 . S
C84 C83 1.359 . S
C84 C85 1.380 . S
C84 H112 0.929 . S
C85 C84 1.380 . S
C85 C86 1.347 . S
C85 H113 0.931 . S
C86 C85 1.347 . S
C86 C87 1.369 . S
C87 C86 1.369 . S
C87 C88 1.408 . S
C87 H114 0.930 . S
C88 C83 1.348 . S
C88 C87 1.408 . S
C88 H115 0.930 . S
C89 O102 1.281 . S
C89 O103 1.254 . S
C90 O104 1.236 . S
C90 O105 1.266 . S
C91 Tb81 2.809 . S
C91 C92 1.514 . S
C91 O106 1.248 . S
C91 O107 1.266 . S
C92 C91 1.514 . S
C92 C93 1.359 . S
C92 C97 1.348 . S
C93 C92 1.359 . S
C93 C94 1.380 . S
C93 H116 0.929 . S
C94 C93 1.380 . S
C94 C95 1.347 . S
C94 H117 0.931 . S
C95 C94 1.347 . S
C95 C96 1.369 . S
C96 C95 1.369 . S
C96 C97 1.408 . S
C96 H118 0.930 . S
C97 C92 1.348 . S
C97 C96 1.408 . S
C97 H119 0.930 . S
C98 O108 1.281 . S
C98 O109 1.254 . S
C99 O110 1.236 . S
C99 O111 1.266 . S
O100 Tb80 2.484 . S
O100 C82 1.248 . S
O101 Tb80 2.440 . S
O101 C82 1.266 . S
O102 Tb80 2.658 . S
O102 Tb81 2.325 . S
O102 C89 1.281 . S
O103 Tb80 2.409 . S
O103 C89 1.254 . S
O104 Tb80 2.378 . S
O104 C90 1.236 . S
O105 Tb81 2.341 . S
O105 C90 1.266 . S
O106 Tb81 2.484 . S
O106 C91 1.248 . S
O107 Tb81 2.440 . S
O107 C91 1.266 . S
O108 Tb80 2.325 . S
O108 Tb81 2.658 . S
O108 C98 1.281 . S
O109 Tb81 2.409 . S
O109 C98 1.254 . S
O110 Tb81 2.378 . S
O110 C99 1.236 . S
O111 Tb80 2.341 . S
O111 C99 1.266 . S
H112 C84 0.929 . S
H113 C85 0.931 . S
H114 C87 0.930 . S
H115 C88 0.930 . S
H116 C93 0.929 . S
H117 C94 0.931 . S
H118 C96 0.930 . S
H119 C97 0.930 . S
Tb120 C122 2.809 . S
Tb120 O140 2.484 . S
Tb120 O141 2.440 . S
Tb120 O142 2.658 . S
Tb120 O143 2.409 . S
Tb120 O144 2.378 . S
Tb120 O148 2.325 . S
Tb120 O151 2.341 . S
Tb121 C131 2.809 . S
Tb121 O142 2.325 . S
Tb121 O145 2.341 . S
Tb121 O146 2.484 . S
Tb121 O147 2.440 . S
Tb121 O148 2.658 . S
Tb121 O149 2.409 . S
Tb121 O150 2.378 . S
C122 Tb120 2.809 . S
C122 C123 1.514 . S
C122 O140 1.248 . S
C122 O141 1.266 . S
C123 C122 1.514 . S
C123 C124 1.359 . S
C123 C128 1.348 . S
C124 C123 1.359 . S
C124 C125 1.380 . S
C124 H152 0.929 . S
C125 C124 1.380 . S
C125 C126 1.347 . S
C125 H153 0.931 . S
C126 C125 1.347 . S
C126 C127 1.369 . S
C127 C126 1.369 . S
C127 C128 1.408 . S
C127 H154 0.930 . S
C128 C123 1.348 . S
C128 C127 1.408 . S
C128 H155 0.930 . S
C129 O142 1.281 . S
C129 O143 1.254 . S
C130 O144 1.236 . S
C130 O145 1.266 . S
C131 Tb121 2.809 . S
C131 C132 1.514 . S
C131 O146 1.248 . S
C131 O147 1.266 . S
C132 C131 1.514 . S
C132 C133 1.359 . S
C132 C137 1.348 . S
C133 C132 1.359 . S
C133 C134 1.380 . S
C133 H156 0.929 . S
C134 C133 1.380 . S
C134 C135 1.347 . S
C134 H157 0.931 . S
C135 C134 1.347 . S
C135 C136 1.369 . S
C136 C135 1.369 . S
C136 C137 1.408 . S
C136 H158 0.930 . S
C137 C132 1.348 . S
C137 C136 1.408 . S
C137 H159 0.930 . S
C138 O148 1.281 . S
C138 O149 1.254 . S
C139 O150 1.236 . S
C139 O151 1.266 . S
O140 Tb120 2.484 . S
O140 C122 1.248 . S
O141 Tb120 2.440 . S
O141 C122 1.266 . S
O142 Tb120 2.658 . S
O142 Tb121 2.325 . S
O142 C129 1.281 . S
O143 Tb120 2.409 . S
O143 C129 1.254 . S
O144 Tb120 2.378 . S
O144 C130 1.236 . S
O145 Tb121 2.341 . S
O145 C130 1.266 . S
O146 Tb121 2.484 . S
O146 C131 1.248 . S
O147 Tb121 2.440 . S
O147 C131 1.266 . S
O148 Tb120 2.325 . S
O148 Tb121 2.658 . S
O148 C138 1.281 . S
O149 Tb121 2.409 . S
O149 C138 1.254 . S
O150 Tb121 2.378 . S
O150 C139 1.236 . S
O151 Tb120 2.341 . S
O151 C139 1.266 . S
H152 C124 0.929 . S
H153 C125 0.931 . S
H154 C127 0.930 . S
H155 C128 0.930 . S
H156 C133 0.929 . S
H157 C134 0.931 . S
H158 C136 0.930 . S
H159 C137 0.930 . S
Tb160 C162 2.809 . S
Tb160 O180 2.484 . S
Tb160 O181 2.440 . S
Tb160 O182 2.658 . S
Tb160 O183 2.409 . S
Tb160 O184 2.378 . S
Tb160 O188 2.325 . S
Tb160 O191 2.341 . S
Tb161 C171 2.809 . S
Tb161 O182 2.325 . S
Tb161 O185 2.341 . S
Tb161 O186 2.484 . S
Tb161 O187 2.440 . S
Tb161 O188 2.658 . S
Tb161 O189 2.409 . S
Tb161 O190 2.378 . S
C162 Tb160 2.809 . S
C162 C163 1.514 . S
C162 O180 1.248 . S
C162 O181 1.266 . S
C163 C162 1.514 . S
C163 C164 1.359 . S
C163 C168 1.348 . S
C164 C163 1.359 . S
C164 C165 1.380 . S
C164 H192 0.929 . S
C165 C164 1.380 . S
C165 C166 1.347 . S
C165 H193 0.931 . S
C166 C165 1.347 . S
C166 C167 1.369 . S
C167 C166 1.369 . S
C167 C168 1.408 . S
C167 H194 0.930 . S
C168 C163 1.348 . S
C168 C167 1.408 . S
C168 H195 0.930 . S
C169 O182 1.281 . S
C169 O183 1.254 . S
C170 O184 1.236 . S
C170 O185 1.266 . S
C171 Tb161 2.809 . S
C171 C172 1.514 . S
C171 O186 1.248 . S
C171 O187 1.266 . S
C172 C171 1.514 . S
C172 C173 1.359 . S
C172 C177 1.348 . S
C173 C172 1.359 . S
C173 C174 1.380 . S
C173 H196 0.929 . S
C174 C173 1.380 . S
C174 C175 1.347 . S
C174 H197 0.931 . S
C175 C174 1.347 . S
C175 C176 1.369 . S
C176 C175 1.369 . S
C176 C177 1.408 . S
C176 H198 0.930 . S
C177 C172 1.348 . S
C177 C176 1.408 . S
C177 H199 0.930 . S
C178 O188 1.281 . S
C178 O189 1.254 . S
C179 O190 1.236 . S
C179 O191 1.266 . S
O180 Tb160 2.484 . S
O180 C162 1.248 . S
O181 Tb160 2.440 . S
O181 C162 1.266 . S
O182 Tb160 2.658 . S
O182 Tb161 2.325 . S
O182 C169 1.281 . S
O183 Tb160 2.409 . S
O183 C169 1.254 . S
O184 Tb160 2.378 . S
O184 C170 1.236 . S
O185 Tb161 2.341 . S
O185 C170 1.266 . S
O186 Tb161 2.484 . S
O186 C171 1.248 . S
O187 Tb161 2.440 . S
O187 C171 1.266 . S
O188 Tb160 2.325 . S
O188 Tb161 2.658 . S
O188 C178 1.281 . S
O189 Tb161 2.409 . S
O189 C178 1.254 . S
O190 Tb161 2.378 . S
O190 C179 1.236 . S
O191 Tb160 2.341 . S
O191 C179 1.266 . S
H192 C164 0.929 . S
H193 C165 0.931 . S
H194 C167 0.930 . S
H195 C168 0.930 . S
H196 C173 0.929 . S
H197 C174 0.931 . S
H198 C176 0.930 . S
H199 C177 0.930 . S
Tb200 C202 2.809 . S
Tb200 O220 2.484 . S
Tb200 O221 2.440 . S
Tb200 O222 2.658 . S
Tb200 O223 2.409 . S
Tb200 O224 2.378 . S
Tb200 O228 2.325 . S
Tb200 O231 2.341 . S
Tb201 C211 2.809 . S
Tb201 O222 2.325 . S
Tb201 O225 2.341 . S
Tb201 O226 2.484 . S
Tb201 O227 2.440 . S
Tb201 O228 2.658 . S
Tb201 O229 2.409 . S
Tb201 O230 2.378 . S
C202 Tb200 2.809 . S
C202 C203 1.514 1_556 S
C202 O220 1.248 . S
C202 O221 1.266 . S
C203 C202 1.514 1_554 S
C203 C204 1.359 . S
C203 C208 1.348 . S
C204 C203 1.359 . S
C204 C205 1.380 . S
C204 H232 0.929 . S
C205 C204 1.380 . S
C205 C206 1.347 . S
C205 H233 0.931 . S
C206 C205 1.347 . S
C206 C207 1.369 . S
C207 C206 1.369 . S
C207 C208 1.408 . S
C207 H234 0.930 . S
C208 C203 1.348 . S
C208 C207 1.408 . S
C208 H235 0.930 . S
C209 O222 1.281 . S
C209 O223 1.254 . S
C210 O224 1.236 . S
C210 O225 1.266 . S
C211 Tb201 2.809 . S
C211 C212 1.514 . S
C211 O226 1.248 . S
C211 O227 1.266 . S
C212 C211 1.514 . S
C212 C213 1.359 . S
C212 C217 1.348 . S
C213 C212 1.359 . S
C213 C214 1.380 . S
C213 H236 0.929 . S
C214 C213 1.380 . S
C214 C215 1.347 . S
C214 H237 0.931 . S
C215 C214 1.347 . S
C215 C216 1.369 . S
C216 C215 1.369 . S
C216 C217 1.408 . S
C216 H238 0.930 . S
C217 C212 1.348 . S
C217 C216 1.408 . S
C217 H239 0.930 . S
C218 O228 1.281 . S
C218 O229 1.254 . S
C219 O230 1.236 . S
C219 O231 1.266 . S
O220 Tb200 2.484 . S
O220 C202 1.248 . S
O221 Tb200 2.440 . S
O221 C202 1.266 . S
O222 Tb200 2.658 . S
O222 Tb201 2.325 . S
O222 C209 1.281 . S
O223 Tb200 2.409 . S
O223 C209 1.254 . S
O224 Tb200 2.378 . S
O224 C210 1.236 . S
O225 Tb201 2.341 . S
O225 C210 1.266 . S
O226 Tb201 2.484 . S
O226 C211 1.248 . S
O227 Tb201 2.440 . S
O227 C211 1.266 . S
O228 Tb200 2.325 . S
O228 Tb201 2.658 . S
O228 C218 1.281 . S
O229 Tb201 2.409 . S
O229 C218 1.254 . S
O230 Tb201 2.378 . S
O230 C219 1.236 . S
O231 Tb200 2.341 . S
O231 C219 1.266 . S
H232 C204 0.929 . S
H233 C205 0.931 . S
H234 C207 0.930 . S
H235 C208 0.930 . S
H236 C213 0.929 . S
H237 C214 0.931 . S
H238 C216 0.930 . S
H239 C217 0.930 . S
Tb240 C242 2.809 . S
Tb240 O260 2.484 . S
Tb240 O261 2.440 . S
Tb240 O262 2.658 . S
Tb240 O263 2.409 . S
Tb240 O264 2.378 . S
Tb240 O268 2.325 . S
Tb240 O271 2.341 . S
Tb241 C251 2.809 . S
Tb241 O262 2.325 . S
Tb241 O265 2.341 . S
Tb241 O266 2.484 . S
Tb241 O267 2.440 . S
Tb241 O268 2.658 . S
Tb241 O269 2.409 . S
Tb241 O270 2.378 . S
C242 Tb240 2.809 . S
C242 C243 1.514 . S
C242 O260 1.248 . S
C242 O261 1.266 . S
C243 C242 1.514 . S
C243 C244 1.359 . S
C243 C248 1.348 . S
C244 C243 1.359 . S
C244 C245 1.380 . S
C244 H272 0.929 . S
C245 C244 1.380 . S
C245 C246 1.347 . S
C245 H273 0.931 . S
C246 C245 1.347 . S
C246 C247 1.369 . S
C247 C246 1.369 . S
C247 C248 1.408 . S
C247 H274 0.930 . S
C248 C243 1.348 . S
C248 C247 1.408 . S
C248 H275 0.930 . S
C249 O262 1.281 . S
C249 O263 1.254 . S
C250 O264 1.236 . S
C250 O265 1.266 . S
C251 Tb241 2.809 . S
C251 C252 1.514 . S
C251 O266 1.248 . S
C251 O267 1.266 . S
C252 C251 1.514 . S
C252 C253 1.359 . S
C252 C257 1.348 . S
C253 C252 1.359 . S
C253 C254 1.380 . S
C253 H276 0.929 . S
C254 C253 1.380 . S
C254 C255 1.347 . S
C254 H277 0.931 . S
C255 C254 1.347 . S
C255 C256 1.369 . S
C256 C255 1.369 . S
C256 C257 1.408 . S
C256 H278 0.930 . S
C257 C252 1.348 . S
C257 C256 1.408 . S
C257 H279 0.930 . S
C258 O268 1.281 . S
C258 O269 1.254 . S
C259 O270 1.236 . S
C259 O271 1.266 . S
O260 Tb240 2.484 . S
O260 C242 1.248 . S
O261 Tb240 2.440 . S
O261 C242 1.266 . S
O262 Tb240 2.658 . S
O262 Tb241 2.325 . S
O262 C249 1.281 . S
O263 Tb240 2.409 . S
O263 C249 1.254 . S
O264 Tb240 2.378 . S
O264 C250 1.236 . S
O265 Tb241 2.341 . S
O265 C250 1.266 . S
O266 Tb241 2.484 . S
O266 C251 1.248 . S
O267 Tb241 2.440 . S
O267 C251 1.266 . S
O268 Tb240 2.325 . S
O268 Tb241 2.658 . S
O268 C258 1.281 . S
O269 Tb241 2.409 . S
O269 C258 1.254 . S
O270 Tb241 2.378 . S
O270 C259 1.236 . S
O271 Tb240 2.341 . S
O271 C259 1.266 . S
H272 C244 0.929 . S
H273 C245 0.931 . S
H274 C247 0.930 . S
H275 C248 0.930 . S
H276 C253 0.929 . S
H277 C254 0.931 . S
H278 C256 0.930 . S
H279 C257 0.930 . S
Tb280 C282 2.809 . S
Tb280 O300 2.484 . S
Tb280 O301 2.440 . S
Tb280 O302 2.658 . S
Tb280 O303 2.409 . S
Tb280 O304 2.378 . S
Tb280 O308 2.325 . S
Tb280 O311 2.341 . S
Tb281 C291 2.809 . S
Tb281 O302 2.325 . S
Tb281 O305 2.341 . S
Tb281 O306 2.484 . S
Tb281 O307 2.440 . S
Tb281 O308 2.658 . S
Tb281 O309 2.409 . S
Tb281 O310 2.378 . S
C282 Tb280 2.809 . S
C282 C283 1.514 . S
C282 O300 1.248 . S
C282 O301 1.266 . S
C283 C282 1.514 . S
C283 C284 1.359 . S
C283 C288 1.348 . S
C284 C283 1.359 . S
C284 C285 1.380 . S
C284 H312 0.929 . S
C285 C284 1.380 . S
C285 C286 1.347 . S
C285 H313 0.931 . S
C286 C285 1.347 . S
C286 C287 1.369 . S
C287 C286 1.369 . S
C287 C288 1.408 . S
C287 H314 0.930 . S
C288 C283 1.348 . S
C288 C287 1.408 . S
C288 H315 0.930 . S
C289 O302 1.281 . S
C289 O303 1.254 . S
C290 O304 1.236 . S
C290 O305 1.266 . S
C291 Tb281 2.809 . S
C291 C292 1.514 . S
C291 O306 1.248 . S
C291 O307 1.266 . S
C292 C291 1.514 . S
C292 C293 1.359 . S
C292 C297 1.348 . S
C293 C292 1.359 . S
C293 C294 1.380 . S
C293 H316 0.929 . S
C294 C293 1.380 . S
C294 C295 1.347 . S
C294 H317 0.931 . S
C295 C294 1.347 . S
C295 C296 1.369 . S
C296 C295 1.369 . S
C296 C297 1.408 . S
C296 H318 0.930 . S
C297 C292 1.348 . S
C297 C296 1.408 . S
C297 H319 0.930 . S
C298 O308 1.281 . S
C298 O309 1.254 . S
C299 O310 1.236 . S
C299 O311 1.266 . S
O300 Tb280 2.484 . S
O300 C282 1.248 . S
O301 Tb280 2.440 . S
O301 C282 1.266 . S
O302 Tb280 2.658 . S
O302 Tb281 2.325 . S
O302 C289 1.281 . S
O303 Tb280 2.409 . S
O303 C289 1.254 . S
O304 Tb280 2.378 . S
O304 C290 1.236 . S
O305 Tb281 2.341 . S
O305 C290 1.266 . S
O306 Tb281 2.484 . S
O306 C291 1.248 . S
O307 Tb281 2.440 . S
O307 C291 1.266 . S
O308 Tb280 2.325 . S
O308 Tb281 2.658 . S
O308 C298 1.281 . S
O309 Tb281 2.409 . S
O309 C298 1.254 . S
O310 Tb281 2.378 . S
O310 C299 1.236 . S
O311 Tb280 2.341 . S
O311 C299 1.266 . S
H312 C284 0.929 . S
H313 C285 0.931 . S
H314 C287 0.930 . S
H315 C288 0.930 . S
H316 C293 0.929 . S
H317 C294 0.931 . S
H318 C296 0.930 . S
H319 C297 0.930 . S
Tb320 C322 2.809 . S
Tb320 O340 2.484 . S
Tb320 O341 2.440 . S
Tb320 O342 2.658 . S
Tb320 O343 2.409 . S
Tb320 O344 2.378 . S
Tb320 O348 2.325 . S
Tb320 O351 2.341 . S
Tb321 C331 2.809 . S
Tb321 O342 2.325 . S
Tb321 O345 2.341 . S
Tb321 O346 2.484 . S
Tb321 O347 2.440 . S
Tb321 O348 2.658 . S
Tb321 O349 2.409 . S
Tb321 O350 2.378 . S
C322 Tb320 2.809 . S
C322 C323 1.514 1_554 S
C322 O340 1.248 . S
C322 O341 1.266 . S
C323 C322 1.514 1_556 S
C323 C324 1.359 . S
C323 C328 1.348 . S
C324 C323 1.359 . S
C324 C325 1.380 . S
C324 H352 0.929 . S
C325 C324 1.380 . S
C325 C326 1.347 . S
C325 H353 0.931 . S
C326 C325 1.347 . S
C326 C327 1.369 . S
C327 C326 1.369 . S
C327 C328 1.408 . S
C327 H354 0.930 . S
C328 C323 1.348 . S
C328 C327 1.408 . S
C328 H355 0.930 . S
C329 O342 1.281 . S
C329 O343 1.254 . S
C330 O344 1.236 . S
C330 O345 1.266 . S
C331 Tb321 2.809 . S
C331 C332 1.514 . S
C331 O346 1.248 . S
C331 O347 1.266 . S
C332 C331 1.514 . S
C332 C333 1.359 . S
C332 C337 1.348 . S
C333 C332 1.359 . S
C333 C334 1.380 . S
C333 H356 0.929 . S
C334 C333 1.380 . S
C334 C335 1.347 . S
C334 H357 0.931 . S
C335 C334 1.347 . S
C335 C336 1.369 . S
C336 C335 1.369 . S
C336 C337 1.408 . S
C336 H358 0.930 . S
C337 C332 1.348 . S
C337 C336 1.408 . S
C337 H359 0.930 . S
C338 O348 1.281 . S
C338 O349 1.254 . S
C339 O350 1.236 . S
C339 O351 1.266 . S
O340 Tb320 2.484 . S
O340 C322 1.248 . S
O341 Tb320 2.440 . S
O341 C322 1.266 . S
O342 Tb320 2.658 . S
O342 Tb321 2.325 . S
O342 C329 1.281 . S
O343 Tb320 2.409 . S
O343 C329 1.254 . S
O344 Tb320 2.378 . S
O344 C330 1.236 . S
O345 Tb321 2.341 . S
O345 C330 1.266 . S
O346 Tb321 2.484 . S
O346 C331 1.248 . S
O347 Tb321 2.440 . S
O347 C331 1.266 . S
O348 Tb320 2.325 . S
O348 Tb321 2.658 . S
O348 C338 1.281 . S
O349 Tb321 2.409 . S
O349 C338 1.254 . S
O350 Tb321 2.378 . S
O350 C339 1.236 . S
O351 Tb320 2.341 . S
O351 C339 1.266 . S
H352 C324 0.929 . S
H353 C325 0.931 . S
H354 C327 0.930 . S
H355 C328 0.930 . S
H356 C333 0.929 . S
H357 C334 0.931 . S
H358 C336 0.930 . S
H359 C337 0.930 . S
Tb360 C362 2.809 . S
Tb360 O380 2.484 . S
Tb360 O381 2.440 . S
Tb360 O382 2.658 . S
Tb360 O383 2.409 . S
Tb360 O384 2.378 . S
Tb360 O388 2.325 . S
Tb360 O391 2.341 . S
Tb361 C371 2.809 . S
Tb361 O382 2.325 . S
Tb361 O385 2.341 . S
Tb361 O386 2.484 . S
Tb361 O387 2.440 . S
Tb361 O388 2.658 . S
Tb361 O389 2.409 . S
Tb361 O390 2.378 . S
C362 Tb360 2.809 . S
C362 C363 1.514 . S
C362 O380 1.248 . S
C362 O381 1.266 . S
C363 C362 1.514 . S
C363 C364 1.359 . S
C363 C368 1.348 . S
C364 C363 1.359 . S
C364 C365 1.380 . S
C364 H392 0.929 . S
C365 C364 1.380 . S
C365 C366 1.347 . S
C365 H393 0.931 . S
C366 C365 1.347 . S
C366 C367 1.369 . S
C367 C366 1.369 . S
C367 C368 1.408 . S
C367 H394 0.930 . S
C368 C363 1.348 . S
C368 C367 1.408 . S
C368 H395 0.930 . S
C369 O382 1.281 . S
C369 O383 1.254 . S
C370 O384 1.236 . S
C370 O385 1.266 . S
C371 Tb361 2.809 . S
C371 C372 1.514 . S
C371 O386 1.248 . S
C371 O387 1.266 . S
C372 C371 1.514 . S
C372 C373 1.359 . S
C372 C377 1.348 . S
C373 C372 1.359 . S
C373 C374 1.380 . S
C373 H396 0.929 . S
C374 C373 1.380 . S
C374 C375 1.347 . S
C374 H397 0.931 . S
C375 C374 1.347 . S
C375 C376 1.369 . S
C376 C375 1.369 . S
C376 C377 1.408 . S
C376 H398 0.930 . S
C377 C372 1.348 . S
C377 C376 1.408 . S
C377 H399 0.930 . S
C378 O388 1.281 . S
C378 O389 1.254 . S
C379 O390 1.236 . S
C379 O391 1.266 . S
O380 Tb360 2.484 . S
O380 C362 1.248 . S
O381 Tb360 2.440 . S
O381 C362 1.266 . S
O382 Tb360 2.658 . S
O382 Tb361 2.325 . S
O382 C369 1.281 . S
O383 Tb360 2.409 . S
O383 C369 1.254 . S
O384 Tb360 2.378 . S
O384 C370 1.236 . S
O385 Tb361 2.341 . S
O385 C370 1.266 . S
O386 Tb361 2.484 . S
O386 C371 1.248 . S
O387 Tb361 2.440 . S
O387 C371 1.266 . S
O388 Tb360 2.325 . S
O388 Tb361 2.658 . S
O388 C378 1.281 . S
O389 Tb361 2.409 . S
O389 C378 1.254 . S
O390 Tb361 2.378 . S
O390 C379 1.236 . S
O391 Tb360 2.341 . S
O391 C379 1.266 . S
H392 C364 0.929 . S
H393 C365 0.931 . S
H394 C367 0.930 . S
H395 C368 0.930 . S
H396 C373 0.929 . S
H397 C374 0.931 . S
H398 C376 0.930 . S
H399 C377 0.930 . S
Tb400 C402 2.809 . S
Tb400 O420 2.484 . S
Tb400 O421 2.440 . S
Tb400 O422 2.658 . S
Tb400 O423 2.409 . S
Tb400 O424 2.378 . S
Tb400 O428 2.325 . S
Tb400 O431 2.341 . S
Tb401 C411 2.809 . S
Tb401 O422 2.325 . S
Tb401 O425 2.341 . S
Tb401 O426 2.484 . S
Tb401 O427 2.440 . S
Tb401 O428 2.658 . S
Tb401 O429 2.409 . S
Tb401 O430 2.378 . S
C402 Tb400 2.809 . S
C402 C403 1.514 . S
C402 O420 1.248 . S
C402 O421 1.266 . S
C403 C402 1.514 . S
C403 C404 1.359 . S
C403 C408 1.348 . S
C404 C403 1.359 . S
C404 C405 1.380 . S
C404 H432 0.929 . S
C405 C404 1.380 . S
C405 C406 1.347 . S
C405 H433 0.931 . S
C406 C405 1.347 . S
C406 C407 1.369 . S
C407 C406 1.369 . S
C407 C408 1.408 . S
C407 H434 0.930 . S
C408 C403 1.348 . S
C408 C407 1.408 . S
C408 H435 0.930 . S
C409 O422 1.281 . S
C409 O423 1.254 . S
C410 O424 1.236 . S
C410 O425 1.266 . S
C411 Tb401 2.809 . S
C411 C412 1.514 . S
C411 O426 1.248 . S
C411 O427 1.266 . S
C412 C411 1.514 . S
C412 C413 1.359 . S
C412 C417 1.348 . S
C413 C412 1.359 . S
C413 C414 1.380 . S
C413 H436 0.929 . S
C414 C413 1.380 . S
C414 C415 1.347 . S
C414 H437 0.931 . S
C415 C414 1.347 . S
C415 C416 1.369 . S
C416 C415 1.369 . S
C416 C417 1.408 . S
C416 H438 0.930 . S
C417 C412 1.348 . S
C417 C416 1.408 . S
C417 H439 0.930 . S
C418 O428 1.281 . S
C418 O429 1.254 . S
C419 O430 1.236 . S
C419 O431 1.266 . S
O420 Tb400 2.484 . S
O420 C402 1.248 . S
O421 Tb400 2.440 . S
O421 C402 1.266 . S
O422 Tb400 2.658 . S
O422 Tb401 2.325 . S
O422 C409 1.281 . S
O423 Tb400 2.409 . S
O423 C409 1.254 . S
O424 Tb400 2.378 . S
O424 C410 1.236 . S
O425 Tb401 2.341 . S
O425 C410 1.266 . S
O426 Tb401 2.484 . S
O426 C411 1.248 . S
O427 Tb401 2.440 . S
O427 C411 1.266 . S
O428 Tb400 2.325 . S
O428 Tb401 2.658 . S
O428 C418 1.281 . S
O429 Tb401 2.409 . S
O429 C418 1.254 . S
O430 Tb401 2.378 . S
O430 C419 1.236 . S
O431 Tb400 2.341 . S
O431 C419 1.266 . S
H432 C404 0.929 . S
H433 C405 0.931 . S
H434 C407 0.930 . S
H435 C408 0.930 . S
H436 C413 0.929 . S
H437 C414 0.931 . S
H438 C416 0.930 . S
H439 C417 0.930 . S
Tb440 C442 2.809 . S
Tb440 O460 2.484 . S
Tb440 O461 2.440 . S
Tb440 O462 2.658 . S
Tb440 O463 2.409 . S
Tb440 O464 2.378 . S
Tb440 O468 2.325 . S
Tb440 O471 2.341 . S
Tb441 C451 2.809 . S
Tb441 O462 2.325 . S
Tb441 O465 2.341 . S
Tb441 O466 2.484 . S
Tb441 O467 2.440 . S
Tb441 O468 2.658 . S
Tb441 O469 2.409 . S
Tb441 O470 2.378 . S
C442 Tb440 2.809 . S
C442 C443 1.514 1_554 S
C442 O460 1.248 . S
C442 O461 1.266 . S
C443 C442 1.514 1_556 S
C443 C444 1.359 . S
C443 C448 1.348 . S
C444 C443 1.359 . S
C444 C445 1.380 . S
C444 H472 0.929 . S
C445 C444 1.380 . S
C445 C446 1.347 . S
C445 H473 0.931 . S
C446 C445 1.347 . S
C446 C447 1.369 . S
C447 C446 1.369 . S
C447 C448 1.408 . S
C447 H474 0.930 . S
C448 C443 1.348 . S
C448 C447 1.408 . S
C448 H475 0.930 . S
C449 O462 1.281 . S
C449 O463 1.254 . S
C450 O464 1.236 . S
C450 O465 1.266 . S
C451 Tb441 2.809 . S
C451 C452 1.514 . S
C451 O466 1.248 . S
C451 O467 1.266 . S
C452 C451 1.514 . S
C452 C453 1.359 . S
C452 C457 1.348 . S
C453 C452 1.359 . S
C453 C454 1.380 . S
C453 H476 0.929 . S
C454 C453 1.380 . S
C454 C455 1.347 . S
C454 H477 0.931 . S
C455 C454 1.347 . S
C455 C456 1.369 . S
C456 C455 1.369 . S
C456 C457 1.408 . S
C456 H478 0.930 . S
C457 C452 1.348 . S
C457 C456 1.408 . S
C457 H479 0.930 . S
C458 O468 1.281 . S
C458 O469 1.254 . S
C459 O470 1.236 . S
C459 O471 1.266 . S
O460 Tb440 2.484 . S
O460 C442 1.248 . S
O461 Tb440 2.440 . S
O461 C442 1.266 . S
O462 Tb440 2.658 . S
O462 Tb441 2.325 . S
O462 C449 1.281 . S
O463 Tb440 2.409 . S
O463 C449 1.254 . S
O464 Tb440 2.378 . S
O464 C450 1.236 . S
O465 Tb441 2.341 . S
O465 C450 1.266 . S
O466 Tb441 2.484 . S
O466 C451 1.248 . S
O467 Tb441 2.440 . S
O467 C451 1.266 . S
O468 Tb440 2.325 . S
O468 Tb441 2.658 . S
O468 C458 1.281 . S
O469 Tb441 2.409 . S
O469 C458 1.254 . S
O470 Tb441 2.378 . S
O470 C459 1.236 . S
O471 Tb440 2.341 . S
O471 C459 1.266 . S
H472 C444 0.929 . S
H473 C445 0.931 . S
H474 C447 0.930 . S
H475 C448 0.930 . S
H476 C453 0.929 . S
H477 C454 0.931 . S
H478 C456 0.930 . S
H479 C457 0.930 . S
H480 C488 0.929 . S
H481 C490 0.930 . S
H482 C492 0.930 . S
H483 C495 0.929 . S
H484 C498 0.930 . S
H485 C500 0.960 . S
H486 C500 0.960 . S
H487 C500 0.960 . S
C488 H480 0.929 . S
C488 C489 1.377 . S
C488 C490 1.384 . S
C489 C488 1.377 . S
C489 C495 1.390 . S
C490 H481 0.930 . S
C490 C488 1.384 . S
C490 C491 1.372 . S
C491 C490 1.372 . S
C491 C492 1.400 . S
C491 C496 1.490 . S
C492 H482 0.930 . S
C492 C491 1.400 . S
C492 C495 1.386 . S
H493 C509 0.930 . S
H494 C510 0.931 . S
C495 H483 0.929 . S
C495 C489 1.390 . S
C495 C492 1.386 . S
C496 C491 1.490 . S
C496 C498 1.395 . S
C496 C499 1.403 . S
H497 C503 0.930 . S
C498 H484 0.930 . S
C498 C496 1.395 . S
C498 C501 1.403 . S
C499 C496 1.403 . S
C499 C500 1.524 . S
C499 C503 1.400 . S
C500 H485 0.960 . S
C500 H486 0.960 . S
C500 H487 0.960 . S
C500 C499 1.524 . S
C501 C498 1.403 . S
C501 C502 1.392 . S
C501 C505 1.495 . S
C502 C501 1.392 . S
C502 C503 1.385 . S
C502 C504 1.478 . S
C503 H497 0.930 . S
C503 C499 1.400 . S
C503 C502 1.385 . S
C504 C502 1.478 . S
C504 C506 1.381 . S
C504 C510 1.383 . S
C505 C501 1.495 . S
C505 H511 0.959 . S
C505 H512 0.961 . S
C505 H513 0.960 . S
C506 C504 1.381 . S
C506 C507 1.394 . S
C506 H514 0.930 . S
C507 C506 1.394 . S
C507 C508 1.383 . S
C507 H515 0.929 . S
C508 C507 1.383 . S
C508 C509 1.377 . S
C509 H493 0.930 . S
C509 C508 1.377 . S
C509 C510 1.379 . S
C510 H494 0.931 . S
C510 C504 1.383 . S
C510 C509 1.379 . S
H511 C505 0.959 . S
H512 C505 0.961 . S
H513 C505 0.960 . S
H514 C506 0.930 . S
H515 C507 0.929 . S
H516 C524 0.929 . S
H517 C526 0.930 . S
H518 C528 0.930 . S
H519 C531 0.929 . S
H520 C534 0.930 . S
H521 C536 0.960 . S
H522 C536 0.960 . S
H523 C536 0.960 . S
C524 H516 0.929 . S
C524 C525 1.377 . S
C524 C526 1.384 . S
C525 C524 1.377 . S
C525 C531 1.390 . S
C526 H517 0.930 . S
C526 C524 1.384 . S
C526 C527 1.372 . S
C527 C526 1.372 . S
C527 C528 1.400 . S
C527 C532 1.490 . S
C528 H518 0.930 . S
C528 C527 1.400 . S
C528 C531 1.386 . S
H529 C545 0.930 . S
H530 C546 0.931 . S
C531 H519 0.929 . S
C531 C525 1.390 . S
C531 C528 1.386 . S
C532 C527 1.490 . S
C532 C534 1.395 . S
C532 C535 1.403 . S
H533 C539 0.930 . S
C534 H520 0.930 . S
C534 C532 1.395 . S
C534 C537 1.403 . S
C535 C532 1.403 . S
C535 C536 1.524 . S
C535 C539 1.400 . S
C536 H521 0.960 . S
C536 H522 0.960 . S
C536 H523 0.960 . S
C536 C535 1.524 . S
C537 C534 1.403 . S
C537 C538 1.392 . S
C537 C541 1.495 . S
C538 C537 1.392 . S
C538 C539 1.385 . S
C538 C540 1.478 . S
C539 H533 0.930 . S
C539 C535 1.400 . S
C539 C538 1.385 . S
C540 C538 1.478 . S
C540 C542 1.381 . S
C540 C546 1.383 . S
C541 C537 1.495 . S
C541 H547 0.959 . S
C541 H548 0.961 . S
C541 H549 0.960 . S
C542 C540 1.381 . S
C542 C543 1.394 . S
C542 H550 0.930 . S
C543 C542 1.394 . S
C543 C544 1.383 . S
C543 H551 0.929 . S
C544 C543 1.383 . S
C544 C545 1.377 . S
C545 H529 0.930 . S
C545 C544 1.377 . S
C545 C546 1.379 . S
C546 H530 0.931 . S
C546 C540 1.383 . S
C546 C545 1.379 . S
H547 C541 0.959 . S
H548 C541 0.961 . S
H549 C541 0.960 . S
H550 C542 0.930 . S
H551 C543 0.929 . S
H552 C560 0.929 . S
H553 C562 0.930 . S
H554 C564 0.930 . S
H555 C567 0.929 . S
H556 C570 0.930 . S
H557 C572 0.960 . S
H558 C572 0.960 . S
H559 C572 0.960 . S
C560 H552 0.929 . S
C560 C561 1.377 . S
C560 C562 1.384 . S
C561 C560 1.377 . S
C561 C567 1.390 . S
C562 H553 0.930 . S
C562 C560 1.384 . S
C562 C563 1.372 . S
C563 C562 1.372 . S
C563 C564 1.400 . S
C563 C568 1.490 . S
C564 H554 0.930 . S
C564 C563 1.400 . S
C564 C567 1.386 . S
H565 C581 0.930 . S
H566 C582 0.931 . S
C567 H555 0.929 . S
C567 C561 1.390 . S
C567 C564 1.386 . S
C568 C563 1.490 . S
C568 C570 1.395 . S
C568 C571 1.403 . S
H569 C575 0.930 . S
C570 H556 0.930 . S
C570 C568 1.395 . S
C570 C573 1.403 . S
C571 C568 1.403 . S
C571 C572 1.524 . S
C571 C575 1.400 . S
C572 H557 0.960 . S
C572 H558 0.960 . S
C572 H559 0.960 . S
C572 C571 1.524 . S
C573 C570 1.403 . S
C573 C574 1.392 . S
C573 C577 1.495 . S
C574 C573 1.392 . S
C574 C575 1.385 . S
C574 C576 1.478 . S
C575 H569 0.930 . S
C575 C571 1.400 . S
C575 C574 1.385 . S
C576 C574 1.478 . S
C576 C578 1.381 . S
C576 C582 1.383 . S
C577 C573 1.495 . S
C577 H583 0.959 . S
C577 H584 0.961 . S
C577 H585 0.960 . S
C578 C576 1.381 . S
C578 C579 1.394 . S
C578 H586 0.930 . S
C579 C578 1.394 . S
C579 C580 1.383 . S
C579 H587 0.929 . S
C580 C579 1.383 . S
C580 C581 1.377 . S
C581 H565 0.930 . S
C581 C580 1.377 . S
C581 C582 1.379 . S
C582 H566 0.931 . S
C582 C576 1.383 . S
C582 C581 1.379 . S
H583 C577 0.959 . S
H584 C577 0.961 . S
H585 C577 0.960 . S
H586 C578 0.930 . S
H587 C579 0.929 . S
H588 C596 0.929 . S
H589 C598 0.930 . S
H590 C600 0.930 . S
H591 C603 0.929 . S
H592 C606 0.930 . S
H593 C608 0.960 . S
H594 C608 0.960 . S
H595 C608 0.960 . S
C596 H588 0.929 . S
C596 C597 1.377 . S
C596 C598 1.384 . S
C597 C596 1.377 . S
C597 C603 1.390 . S
C598 H589 0.930 . S
C598 C596 1.384 . S
C598 C599 1.372 . S
C599 C598 1.372 . S
C599 C600 1.400 . S
C599 C604 1.490 . S
C600 H590 0.930 . S
C600 C599 1.400 . S
C600 C603 1.386 . S
H601 C617 0.930 . S
H602 C618 0.931 . S
C603 H591 0.929 . S
C603 C597 1.390 . S
C603 C600 1.386 . S
C604 C599 1.490 . S
C604 C606 1.395 . S
C604 C607 1.403 . S
H605 C611 0.930 . S
C606 H592 0.930 . S
C606 C604 1.395 . S
C606 C609 1.403 . S
C607 C604 1.403 . S
C607 C608 1.524 . S
C607 C611 1.400 . S
C608 H593 0.960 . S
C608 H594 0.960 . S
C608 H595 0.960 . S
C608 C607 1.524 . S
C609 C606 1.403 . S
C609 C610 1.392 . S
C609 C613 1.495 . S
C610 C609 1.392 . S
C610 C611 1.385 . S
C610 C612 1.478 . S
C611 H605 0.930 . S
C611 C607 1.400 . S
C611 C610 1.385 . S
C612 C610 1.478 . S
C612 C614 1.381 . S
C612 C618 1.383 . S
C613 C609 1.495 . S
C613 H619 0.959 . S
C613 H620 0.961 . S
C613 H621 0.960 . S
C614 C612 1.381 . S
C614 C615 1.394 . S
C614 H622 0.930 . S
C615 C614 1.394 . S
C615 C616 1.383 . S
C615 H623 0.929 . S
C616 C615 1.383 . S
C616 C617 1.377 . S
C617 H601 0.930 . S
C617 C616 1.377 . S
C617 C618 1.379 . S
C618 H602 0.931 . S
C618 C612 1.383 . S
C618 C617 1.379 . S
H619 C613 0.959 . S
H620 C613 0.961 . S
H621 C613 0.960 . S
H622 C614 0.930 . S
H623 C615 0.929 . S
H624 C632 0.929 . S
H625 C634 0.930 . S
H626 C636 0.930 . S
H627 C639 0.929 . S
H628 C642 0.930 . S
H629 C644 0.960 . S
H630 C644 0.960 . S
H631 C644 0.960 . S
C632 H624 0.929 . S
C632 C633 1.377 . S
C632 C634 1.384 . S
C633 C632 1.377 . S
C633 C639 1.390 . S
C634 H625 0.930 . S
C634 C632 1.384 . S
C634 C635 1.372 . S
C635 C634 1.372 . S
C635 C636 1.400 . S
C635 C640 1.490 . S
C636 H626 0.930 . S
C636 C635 1.400 . S
C636 C639 1.386 . S
H637 C653 0.930 . S
H638 C654 0.931 . S
C639 H627 0.929 . S
C639 C633 1.390 . S
C639 C636 1.386 . S
C640 C635 1.490 . S
C640 C642 1.395 . S
C640 C643 1.403 . S
H641 C647 0.930 . S
C642 H628 0.930 . S
C642 C640 1.395 . S
C642 C645 1.403 . S
C643 C640 1.403 . S
C643 C644 1.524 . S
C643 C647 1.400 . S
C644 H629 0.960 . S
C644 H630 0.960 . S
C644 H631 0.960 . S
C644 C643 1.524 . S
C645 C642 1.403 . S
C645 C646 1.392 . S
C645 C649 1.495 . S
C646 C645 1.392 . S
C646 C647 1.385 . S
C646 C648 1.478 . S
C647 H641 0.930 . S
C647 C643 1.400 . S
C647 C646 1.385 . S
C648 C646 1.478 . S
C648 C650 1.381 . S
C648 C654 1.383 . S
C649 C645 1.495 . S
C649 H655 0.959 . S
C649 H656 0.961 . S
C649 H657 0.960 . S
C650 C648 1.381 . S
C650 C651 1.394 . S
C650 H658 0.930 . S
C651 C650 1.394 . S
C651 C652 1.383 . S
C651 H659 0.929 . S
C652 C651 1.383 . S
C652 C653 1.377 . S
C653 H637 0.930 . S
C653 C652 1.377 . S
C653 C654 1.379 . S
C654 H638 0.931 . S
C654 C648 1.383 . S
C654 C653 1.379 . S
H655 C649 0.959 . S
H656 C649 0.961 . S
H657 C649 0.960 . S
H658 C650 0.930 . S
H659 C651 0.929 . S
H660 C668 0.929 . S
H661 C670 0.930 . S
H662 C672 0.930 . S
H663 C675 0.929 . S
H664 C678 0.930 . S
H665 C680 0.960 . S
H666 C680 0.960 . S
H667 C680 0.960 . S
C668 H660 0.929 . S
C668 C669 1.377 . S
C668 C670 1.384 . S
C669 C668 1.377 . S
C669 C675 1.390 . S
C670 H661 0.930 . S
C670 C668 1.384 . S
C670 C671 1.372 . S
C671 C670 1.372 . S
C671 C672 1.400 . S
C671 C676 1.490 . S
C672 H662 0.930 . S
C672 C671 1.400 . S
C672 C675 1.386 . S
H673 C689 0.930 . S
H674 C690 0.931 . S
C675 H663 0.929 . S
C675 C669 1.390 . S
C675 C672 1.386 . S
C676 C671 1.490 . S
C676 C678 1.395 . S
C676 C679 1.403 . S
H677 C683 0.930 . S
C678 H664 0.930 . S
C678 C676 1.395 . S
C678 C681 1.403 . S
C679 C676 1.403 . S
C679 C680 1.524 . S
C679 C683 1.400 . S
C680 H665 0.960 . S
C680 H666 0.960 . S
C680 H667 0.960 . S
C680 C679 1.524 . S
C681 C678 1.403 . S
C681 C682 1.392 . S
C681 C685 1.495 . S
C682 C681 1.392 . S
C682 C683 1.385 . S
C682 C684 1.478 . S
C683 H677 0.930 . S
C683 C679 1.400 . S
C683 C682 1.385 . S
C684 C682 1.478 . S
C684 C686 1.381 . S
C684 C690 1.383 . S
C685 C681 1.495 . S
C685 H691 0.959 . S
C685 H692 0.961 . S
C685 H693 0.960 . S
C686 C684 1.381 . S
C686 C687 1.394 . S
C686 H694 0.930 . S
C687 C686 1.394 . S
C687 C688 1.383 . S
C687 H695 0.929 . S
C688 C687 1.383 . S
C688 C689 1.377 . S
C689 H673 0.930 . S
C689 C688 1.377 . S
C689 C690 1.379 . S
C690 H674 0.931 . S
C690 C684 1.383 . S
C690 C689 1.379 . S
H691 C685 0.959 . S
H692 C685 0.961 . S
H693 C685 0.960 . S
H694 C686 0.930 . S
H695 C687 0.929 . S
H696 C704 0.929 . S
H697 C706 0.930 . S
H698 C708 0.930 . S
H699 C711 0.929 . S
H700 C714 0.930 . S
H701 C716 0.960 . S
H702 C716 0.960 . S
H703 C716 0.960 . S
C704 H696 0.929 . S
C704 C705 1.377 . S
C704 C706 1.384 . S
C705 C704 1.377 . S
C705 C711 1.390 . S
C706 H697 0.930 . S
C706 C704 1.384 . S
C706 C707 1.372 . S
C707 C706 1.372 . S
C707 C708 1.400 . S
C707 C712 1.490 . S
C708 H698 0.930 . S
C708 C707 1.400 . S
C708 C711 1.386 . S
H709 C725 0.930 . S
H710 C726 0.931 . S
C711 H699 0.929 . S
C711 C705 1.390 . S
C711 C708 1.386 . S
C712 C707 1.490 . S
C712 C714 1.395 . S
C712 C715 1.403 . S
H713 C719 0.930 . S
C714 H700 0.930 . S
C714 C712 1.395 . S
C714 C717 1.403 1_556 S
C715 C712 1.403 . S
C715 C716 1.524 . S
C715 C719 1.400 1_556 S
C716 H701 0.960 . S
C716 H702 0.960 . S
C716 H703 0.960 . S
C716 C715 1.524 . S
C717 C714 1.403 1_554 S
C717 C718 1.392 . S
C717 C721 1.495 . S
C718 C717 1.392 . S
C718 C719 1.385 . S
C718 C720 1.478 . S
C719 H713 0.930 . S
C719 C715 1.400 1_554 S
C719 C718 1.385 . S
C720 C718 1.478 . S
C720 C722 1.381 . S
C720 C726 1.383 . S
C721 C717 1.495 . S
C721 H727 0.959 . S
C721 H728 0.961 . S
C721 H729 0.960 . S
C722 C720 1.381 . S
C722 C723 1.394 . S
C722 H730 0.930 . S
C723 C722 1.394 . S
C723 C724 1.383 . S
C723 H731 0.929 . S
C724 C723 1.383 . S
C724 C725 1.377 . S
C725 H709 0.930 . S
C725 C724 1.377 . S
C725 C726 1.379 . S
C726 H710 0.931 . S
C726 C720 1.383 . S
C726 C725 1.379 . S
H727 C721 0.959 . S
H728 C721 0.961 . S
H729 C721 0.960 . S
H730 C722 0.930 . S
H731 C723 0.929 . S
H732 C740 0.929 . S
H733 C742 0.930 . S
H734 C744 0.930 . S
H735 C747 0.929 . S
H736 C750 0.930 . S
H737 C752 0.960 . S
H738 C752 0.960 . S
H739 C752 0.960 . S
C740 H732 0.929 . S
C740 C741 1.377 . S
C740 C742 1.384 . S
C741 C740 1.377 . S
C741 C747 1.390 . S
C742 H733 0.930 . S
C742 C740 1.384 . S
C742 C743 1.372 . S
C743 C742 1.372 . S
C743 C744 1.400 . S
C743 C748 1.490 . S
C744 H734 0.930 . S
C744 C743 1.400 . S
C744 C747 1.386 . S
H745 C761 0.930 . S
H746 C762 0.931 . S
C747 H735 0.929 . S
C747 C741 1.390 . S
C747 C744 1.386 . S
C748 C743 1.490 . S
C748 C750 1.395 . S
C748 C751 1.403 . S
H749 C755 0.930 . S
C750 H736 0.930 . S
C750 C748 1.395 . S
C750 C753 1.403 . S
C751 C748 1.403 . S
C751 C752 1.524 . S
C751 C755 1.400 . S
C752 H737 0.960 . S
C752 H738 0.960 . S
C752 H739 0.960 . S
C752 C751 1.524 . S
C753 C750 1.403 . S
C753 C754 1.392 . S
C753 C757 1.495 . S
C754 C753 1.392 . S
C754 C755 1.385 . S
C754 C756 1.478 . S
C755 H749 0.930 . S
C755 C751 1.400 . S
C755 C754 1.385 . S
C756 C754 1.478 . S
C756 C758 1.381 . S
C756 C762 1.383 . S
C757 C753 1.495 . S
C757 H763 0.959 . S
C757 H764 0.961 . S
C757 H765 0.960 . S
C758 C756 1.381 . S
C758 C759 1.394 . S
C758 H766 0.930 . S
C759 C758 1.394 . S
C759 C760 1.383 . S
C759 H767 0.929 . S
C760 C759 1.383 . S
C760 C761 1.377 . S
C761 H745 0.930 . S
C761 C760 1.377 . S
C761 C762 1.379 . S
C762 H746 0.931 . S
C762 C756 1.383 . S
C762 C761 1.379 . S
H763 C757 0.959 . S
H764 C757 0.961 . S
H765 C757 0.960 . S
H766 C758 0.930 . S
H767 C759 0.929 . S
H768 C776 0.929 . S
H769 C778 0.930 . S
H770 C780 0.930 . S
H771 C783 0.929 . S
H772 C786 0.930 . S
H773 C788 0.960 . S
H774 C788 0.960 . S
H775 C788 0.960 . S
C776 H768 0.929 . S
C776 C777 1.377 . S
C776 C778 1.384 . S
C777 C776 1.377 . S
C777 C783 1.390 . S
C778 H769 0.930 . S
C778 C776 1.384 . S
C778 C779 1.372 . S
C779 C778 1.372 . S
C779 C780 1.400 . S
C779 C784 1.490 . S
C780 H770 0.930 . S
C780 C779 1.400 . S
C780 C783 1.386 . S
H781 C797 0.930 . S
H782 C798 0.931 . S
C783 H771 0.929 . S
C783 C777 1.390 . S
C783 C780 1.386 . S
C784 C779 1.490 . S
C784 C786 1.395 . S
C784 C787 1.403 . S
H785 C791 0.930 . S
C786 H772 0.930 . S
C786 C784 1.395 . S
C786 C789 1.403 . S
C787 C784 1.403 . S
C787 C788 1.524 . S
C787 C791 1.400 . S
C788 H773 0.960 . S
C788 H774 0.960 . S
C788 H775 0.960 . S
C788 C787 1.524 . S
C789 C786 1.403 . S
C789 C790 1.392 . S
C789 C793 1.495 . S
C790 C789 1.392 . S
C790 C791 1.385 . S
C790 C792 1.478 . S
C791 H785 0.930 . S
C791 C787 1.400 . S
C791 C790 1.385 . S
C792 C790 1.478 . S
C792 C794 1.381 . S
C792 C798 1.383 . S
C793 C789 1.495 . S
C793 H799 0.959 . S
C793 H800 0.961 . S
C793 H801 0.960 . S
C794 C792 1.381 . S
C794 C795 1.394 . S
C794 H802 0.930 . S
C795 C794 1.394 . S
C795 C796 1.383 . S
C795 H803 0.929 . S
C796 C795 1.383 . S
C796 C797 1.377 . S
C797 H781 0.930 . S
C797 C796 1.377 . S
C797 C798 1.379 . S
C798 H782 0.931 . S
C798 C792 1.383 . S
C798 C797 1.379 . S
H799 C793 0.959 . S
H800 C793 0.961 . S
H801 C793 0.960 . S
H802 C794 0.930 . S
H803 C795 0.929 . S
H804 C812 0.929 . S
H805 C814 0.930 . S
H806 C816 0.930 . S
H807 C819 0.929 . S
H808 C822 0.930 . S
H809 C824 0.960 . S
H810 C824 0.963 . S
H811 C824 0.960 1_556 S
C812 H804 0.929 . S
C812 C813 1.377 . S
C812 C814 1.384 . S
C813 C812 1.377 . S
C813 C819 1.390 . S
C814 H805 0.930 . S
C814 C812 1.384 . S
C814 C815 1.372 . S
C815 C814 1.372 . S
C815 C816 1.400 . S
C815 C820 1.490 . S
C816 H806 0.930 . S
C816 C815 1.400 . S
C816 C819 1.386 . S
H817 C833 0.930 . S
H818 C834 0.931 . S
C819 H807 0.929 . S
C819 C813 1.390 . S
C819 C816 1.386 . S
C820 C815 1.490 . S
C820 C822 1.395 . S
C820 C823 1.400 1_556 S
H821 C827 0.930 . S
C822 H808 0.930 . S
C822 C820 1.395 . S
C822 C825 1.403 . S
C823 C820 1.400 1_554 S
C823 C824 1.524 . S
C823 C827 1.403 . S
C824 H809 0.960 . S
C824 H810 0.963 . S
C824 H811 0.960 1_554 S
C824 C823 1.524 . S
C825 C822 1.403 . S
C825 C826 1.392 1_556 S
C825 C829 1.495 . S
C826 C825 1.392 1_554 S
C826 C827 1.385 . S
C826 C828 1.478 . S
C827 H821 0.930 . S
C827 C823 1.403 . S
C827 C826 1.385 . S
C828 C826 1.478 . S
C828 C830 1.381 . S
C828 C834 1.383 . S
C829 C825 1.495 . S
C829 H835 0.959 . S
C829 H836 0.961 . S
C829 H837 0.960 1_556 S
C830 C828 1.381 . S
C830 C831 1.394 . S
C830 H838 0.930 . S
C831 C830 1.394 . S
C831 C832 1.383 . S
C831 H839 0.929 . S
C832 C831 1.383 . S
C832 C833 1.377 . S
C833 H817 0.930 . S
C833 C832 1.377 . S
C833 C834 1.379 . S
C834 H818 0.931 . S
C834 C828 1.383 . S
C834 C833 1.379 . S
H835 C829 0.959 . S
H836 C829 0.961 . S
H837 C829 0.960 1_554 S
H838 C830 0.930 . S
H839 C831 0.929 . S
H840 C848 0.929 . S
H841 C850 0.930 . S
H842 C852 0.930 . S
H843 C855 0.929 . S
H844 C858 0.930 . S
H845 C860 0.960 . S
H846 C860 0.960 . S
H847 C860 0.960 . S
C848 H840 0.929 . S
C848 C849 1.377 . S
C848 C850 1.384 . S
C849 C848 1.377 . S
C849 C855 1.390 . S
C850 H841 0.930 . S
C850 C848 1.384 . S
C850 C851 1.372 . S
C851 C850 1.372 . S
C851 C852 1.400 . S
C851 C856 1.490 . S
C852 H842 0.930 . S
C852 C851 1.400 . S
C852 C855 1.386 . S
H853 C869 0.930 . S
H854 C870 0.931 . S
C855 H843 0.929 . S
C855 C849 1.390 . S
C855 C852 1.386 . S
C856 C851 1.490 . S
C856 C858 1.395 . S
C856 C859 1.403 . S
H857 C863 0.930 . S
C858 H844 0.930 . S
C858 C856 1.395 . S
C858 C861 1.403 . S
C859 C856 1.403 . S
C859 C860 1.524 . S
C859 C863 1.400 . S
C860 H845 0.960 . S
C860 H846 0.960 . S
C860 H847 0.960 . S
C860 C859 1.524 . S
C861 C858 1.403 . S
C861 C862 1.392 . S
C861 C865 1.495 . S
C862 C861 1.392 . S
C862 C863 1.385 . S
C862 C864 1.478 . S
C863 H857 0.930 . S
C863 C859 1.400 . S
C863 C862 1.385 . S
C864 C862 1.478 . S
C864 C866 1.381 . S
C864 C870 1.383 . S
C865 C861 1.495 . S
C865 H871 0.959 . S
C865 H872 0.961 . S
C865 H873 0.960 . S
C866 C864 1.381 . S
C866 C867 1.394 . S
C866 H874 0.930 . S
C867 C866 1.394 . S
C867 C868 1.383 . S
C867 H875 0.929 . S
C868 C867 1.383 . S
C868 C869 1.377 . S
C869 H853 0.930 . S
C869 C868 1.377 . S
C869 C870 1.379 . S
C870 H854 0.931 . S
C870 C864 1.383 . S
C870 C869 1.379 . S
H871 C865 0.959 . S
H872 C865 0.961 . S
H873 C865 0.960 . S
H874 C866 0.930 . S
H875 C867 0.929 . S
H876 C884 0.929 . S
H877 C886 0.930 . S
H878 C888 0.930 . S
H879 C891 0.929 . S
H880 C894 0.930 . S
H881 C896 0.960 . S
H882 C896 0.960 . S
H883 C896 0.960 . S
C884 H876 0.929 . S
C884 C885 1.377 . S
C884 C886 1.384 . S
C885 C884 1.377 . S
C885 C891 1.390 . S
C886 H877 0.930 . S
C886 C884 1.384 . S
C886 C887 1.372 . S
C887 C886 1.372 . S
C887 C888 1.400 . S
C887 C892 1.490 . S
C888 H878 0.930 . S
C888 C887 1.400 . S
C888 C891 1.386 . S
H889 C905 0.930 . S
H890 C906 0.931 . S
C891 H879 0.929 . S
C891 C885 1.390 . S
C891 C888 1.386 . S
C892 C887 1.490 . S
C892 C894 1.395 . S
C892 C895 1.403 . S
H893 C899 0.930 . S
C894 H880 0.930 . S
C894 C892 1.395 . S
C894 C897 1.403 . S
C895 C892 1.403 . S
C895 C896 1.524 . S
C895 C899 1.400 . S
C896 H881 0.960 . S
C896 H882 0.960 . S
C896 H883 0.960 . S
C896 C895 1.524 . S
C897 C894 1.403 . S
C897 C898 1.392 . S
C897 C901 1.495 . S
C898 C897 1.392 . S
C898 C899 1.385 . S
C898 C900 1.478 . S
C899 H893 0.930 . S
C899 C895 1.400 . S
C899 C898 1.385 . S
C900 C898 1.478 . S
C900 C902 1.381 . S
C900 C906 1.383 . S
C901 C897 1.495 . S
C901 H907 0.959 . S
C901 H908 0.961 . S
C901 H909 0.960 . S
C902 C900 1.381 . S
C902 C903 1.394 . S
C902 H910 0.930 . S
C903 C902 1.394 . S
C903 C904 1.383 . S
C903 H911 0.929 . S
C904 C903 1.383 . S
C904 C905 1.377 . S
C905 H889 0.930 . S
C905 C904 1.377 . S
C905 C906 1.379 . S
C906 H890 0.931 . S
C906 C900 1.383 . S
C906 C905 1.379 . S
H907 C901 0.959 . S
H908 C901 0.961 . S
H909 C901 0.960 . S
H910 C902 0.930 . S
H911 C903 0.929 . S
H912 C920 0.929 . S
H913 C922 0.930 . S
H914 C924 0.930 1_545 S
H915 C927 0.929 . S
H916 C930 0.930 . S
H917 C932 0.960 . S
H918 C932 0.960 1_565 S
H919 C932 0.960 . S
C920 H912 0.929 . S
C920 C921 1.377 . S
C920 C922 1.384 . S
C921 C920 1.377 . S
C921 C927 1.390 . S
C922 H913 0.930 . S
C922 C920 1.384 . S
C922 C923 1.372 . S
C923 C922 1.372 . S
C923 C924 1.400 . S
C923 C928 1.490 . S
C924 H914 0.930 1_565 S
C924 C923 1.400 . S
C924 C927 1.386 . S
H925 C941 0.930 . S
H926 C942 0.931 . S
C927 H915 0.929 . S
C927 C921 1.390 . S
C927 C924 1.386 . S
C928 C923 1.490 . S
C928 C930 1.395 . S
C928 C931 1.403 1_565 S
H929 C935 0.930 . S
C930 H916 0.930 . S
C930 C928 1.395 . S
C930 C933 1.403 1_556 S
C931 C928 1.403 1_545 S
C931 C932 1.524 . S
C931 C935 1.400 1_556 S
C932 H917 0.960 . S
C932 H918 0.960 1_545 S
C932 H919 0.960 . S
C932 C931 1.524 . S
C933 C930 1.403 1_554 S
C933 C934 1.392 1_565 S
C933 C937 1.495 . S
C934 C933 1.392 1_545 S
C934 C935 1.385 . S
C934 C936 1.478 . S
C935 H929 0.930 . S
C935 C931 1.400 1_554 S
C935 C934 1.385 . S
C936 C934 1.478 . S
C936 C938 1.381 . S
C936 C942 1.383 . S
C937 C933 1.495 . S
C937 H943 0.959 . S
C937 H944 0.961 1_565 S
C937 H945 0.960 . S
C938 C936 1.381 . S
C938 C939 1.394 . S
C938 H946 0.930 1_545 S
C939 C938 1.394 . S
C939 C940 1.383 . S
C939 H947 0.929 . S
C940 C939 1.383 . S
C940 C941 1.377 . S
C941 H925 0.930 . S
C941 C940 1.377 . S
C941 C942 1.379 . S
C942 H926 0.931 . S
C942 C936 1.383 . S
C942 C941 1.379 . S
H943 C937 0.959 . S
H944 C937 0.961 1_545 S
H945 C937 0.960 . S
H946 C938 0.930 1_565 S
H947 C939 0.929 . S
H948 C956 0.929 . S
H949 C958 0.930 . S
H950 C960 0.930 . S
H951 C963 0.929 . S
H952 C966 0.930 . S
H953 C968 0.960 . S
H954 C968 0.960 . S
H955 C968 0.960 . S
C956 H948 0.929 . S
C956 C957 1.377 . S
C956 C958 1.384 . S
C957 C956 1.377 . S
C957 C963 1.390 . S
C958 H949 0.930 . S
C958 C956 1.384 . S
C958 C959 1.372 . S
C959 C958 1.372 . S
C959 C960 1.400 . S
C959 C964 1.490 . S
C960 H950 0.930 . S
C960 C959 1.400 . S
C960 C963 1.386 . S
H961 C977 0.930 . S
H962 C978 0.931 . S
C963 H951 0.929 . S
C963 C957 1.390 . S
C963 C960 1.386 . S
C964 C959 1.490 . S
C964 C966 1.395 . S
C964 C967 1.403 . S
H965 C971 0.930 . S
C966 H952 0.930 . S
C966 C964 1.395 . S
C966 C969 1.403 . S
C967 C964 1.403 . S
C967 C968 1.524 . S
C967 C971 1.400 . S
C968 H953 0.960 . S
C968 H954 0.960 . S
C968 H955 0.960 . S
C968 C967 1.524 . S
C969 C966 1.403 . S
C969 C970 1.392 . S
C969 C973 1.495 . S
C970 C969 1.392 . S
C970 C971 1.385 . S
C970 C972 1.478 . S
C971 H965 0.930 . S
C971 C967 1.400 . S
C971 C970 1.385 . S
C972 C970 1.478 . S
C972 C974 1.381 . S
C972 C978 1.383 . S
C973 C969 1.495 . S
C973 H979 0.959 . S
C973 H980 0.961 . S
C973 H981 0.960 . S
C974 C972 1.381 . S
C974 C975 1.394 . S
C974 H982 0.930 . S
C975 C974 1.394 . S
C975 C976 1.383 . S
C975 H983 0.929 . S
C976 C975 1.383 . S
C976 C977 1.377 . S
C977 H961 0.930 . S
C977 C976 1.377 . S
C977 C978 1.379 . S
C978 H962 0.931 . S
C978 C972 1.383 . S
C978 C977 1.379 . S
H979 C973 0.959 . S
H980 C973 0.961 . S
H981 C973 0.960 . S
H982 C974 0.930 . S
H983 C975 0.929 . S
H984 C992 0.929 . S
H985 C994 0.930 . S
H986 C996 0.930 . S
H987 C999 0.929 . S
H988 C1002 0.930 . S
H989 C1004 0.960 . S
H990 C1004 0.960 . S
H991 C1004 0.960 . S
C992 H984 0.929 . S
C992 C993 1.377 . S
C992 C994 1.384 . S
C993 C992 1.377 . S
C993 C999 1.390 . S
C994 H985 0.930 . S
C994 C992 1.384 . S
C994 C995 1.372 . S
C995 C994 1.372 . S
C995 C996 1.400 . S
C995 C1000 1.490 . S
C996 H986 0.930 . S
C996 C995 1.400 . S
C996 C999 1.386 . S
H997 C1013 0.930 . S
H998 C1014 0.931 . S
C999 H987 0.929 . S
C999 C993 1.390 . S
C999 C996 1.386 . S
C1000 C995 1.490 . S
C1000 C1002 1.395 . S
C1000 C1003 1.403 . S
H1001 C1007 0.930 . S
C1002 H988 0.930 . S
C1002 C1000 1.395 . S
C1002 C1005 1.403 1_455 S
C1003 C1000 1.403 . S
C1003 C1004 1.524 . S
C1003 C1007 1.400 1_455 S
C1004 H989 0.960 . S
C1004 H990 0.960 . S
C1004 H991 0.960 . S
C1004 C1003 1.524 . S
C1005 C1002 1.403 1_655 S
C1005 C1006 1.392 . S
C1005 C1009 1.495 . S
C1006 C1005 1.392 . S
C1006 C1007 1.385 . S
C1006 C1008 1.478 . S
C1007 H1001 0.930 . S
C1007 C1003 1.400 1_655 S
C1007 C1006 1.385 . S
C1008 C1006 1.478 . S
C1008 C1010 1.381 . S
C1008 C1014 1.383 . S
C1009 C1005 1.495 . S
C1009 H1015 0.959 . S
C1009 H1016 0.961 . S
C1009 H1017 0.960 . S
C1010 C1008 1.381 . S
C1010 C1011 1.394 . S
C1010 H1018 0.934 . S
C1011 C1010 1.394 . S
C1011 C1012 1.383 . S
C1011 H1019 0.929 . S
C1012 C1011 1.383 . S
C1012 C1013 1.377 . S
C1013 H997 0.930 . S
C1013 C1012 1.377 . S
C1013 C1014 1.379 . S
C1014 H998 0.931 . S
C1014 C1008 1.383 . S
C1014 C1013 1.379 . S
H1015 C1009 0.959 . S
H1016 C1009 0.961 . S
H1017 C1009 0.960 . S
H1018 C1010 0.934 . S
H1019 C1011 0.929 . S
H1020 C1028 0.929 . S
H1021 C1030 0.930 . S
H1022 C1032 0.930 . S
H1023 C1035 0.929 . S
H1024 C1038 0.930 . S
H1025 C1040 0.960 . S
H1026 C1040 0.960 . S
H1027 C1040 0.960 . S
C1028 H1020 0.929 . S
C1028 C1029 1.377 . S
C1028 C1030 1.384 . S
C1029 C1028 1.377 . S
C1029 C1035 1.390 . S
C1030 H1021 0.930 . S
C1030 C1028 1.384 . S
C1030 C1031 1.372 . S
C1031 C1030 1.372 . S
C1031 C1032 1.400 . S
C1031 C1036 1.490 . S
C1032 H1022 0.930 . S
C1032 C1031 1.400 . S
C1032 C1035 1.386 . S
H1033 C1049 0.930 . S
H1034 C1050 0.931 . S
C1035 H1023 0.929 . S
C1035 C1029 1.390 . S
C1035 C1032 1.386 . S
C1036 C1031 1.490 . S
C1036 C1038 1.395 . S
C1036 C1039 1.403 1_565 S
H1037 C1043 0.930 . S
C1038 H1024 0.930 . S
C1038 C1036 1.395 . S
C1038 C1041 1.403 1_554 S
C1039 C1036 1.403 1_545 S
C1039 C1040 1.524 . S
C1039 C1043 1.400 1_554 S
C1040 H1025 0.960 . S
C1040 H1026 0.960 . S
C1040 H1027 0.960 . S
C1040 C1039 1.524 . S
C1041 C1038 1.403 1_556 S
C1041 C1042 1.392 1_565 S
C1041 C1045 1.495 . S
C1042 C1041 1.392 1_545 S
C1042 C1043 1.385 . S
C1042 C1044 1.478 . S
C1043 H1037 0.930 . S
C1043 C1039 1.400 1_556 S
C1043 C1042 1.385 . S
C1044 C1042 1.478 . S
C1044 C1046 1.381 . S
C1044 C1050 1.383 . S
C1045 C1041 1.495 . S
C1045 H1051 0.959 . S
C1045 H1052 0.961 . S
C1045 H1053 0.960 . S
C1046 C1044 1.381 . S
C1046 C1047 1.394 . S
C1046 H1054 0.930 . S
C1047 C1046 1.394 . S
C1047 C1048 1.383 . S
C1047 H1055 0.929 . S
C1048 C1047 1.383 . S
C1048 C1049 1.377 . S
C1049 H1033 0.930 . S
C1049 C1048 1.377 . S
C1049 C1050 1.379 . S
C1050 H1034 0.931 . S
C1050 C1044 1.383 . S
C1050 C1049 1.379 . S
H1051 C1045 0.959 . S
H1052 C1045 0.961 . S
H1053 C1045 0.960 . S
H1054 C1046 0.930 . S
H1055 C1047 0.929 . S
H1056 C1064 0.929 . S
H1057 C1066 0.930 . S
H1058 C1068 0.930 . S
H1059 C1071 0.929 . S
H1060 C1074 0.930 . S
H1061 C1076 0.960 . S
H1062 C1076 0.960 . S
H1063 C1076 0.960 . S
C1064 H1056 0.929 . S
C1064 C1065 1.377 . S
C1064 C1066 1.384 . S
C1065 C1064 1.377 . S
C1065 C1071 1.390 . S
C1066 H1057 0.930 . S
C1066 C1064 1.384 . S
C1066 C1067 1.372 . S
C1067 C1066 1.372 . S
C1067 C1068 1.400 . S
C1067 C1072 1.490 . S
C1068 H1058 0.930 . S
C1068 C1067 1.400 . S
C1068 C1071 1.386 . S
H1069 C1085 0.930 . S
H1070 C1086 0.931 . S
C1071 H1059 0.929 . S
C1071 C1065 1.390 . S
C1071 C1068 1.386 . S
C1072 C1067 1.490 . S
C1072 C1074 1.395 . S
C1072 C1075 1.403 . S
H1073 C1079 0.930 . S
C1074 H1060 0.930 . S
C1074 C1072 1.395 . S
C1074 C1077 1.403 . S
C1075 C1072 1.403 . S
C1075 C1076 1.524 . S
C1075 C1079 1.400 . S
C1076 H1061 0.960 . S
C1076 H1062 0.960 . S
C1076 H1063 0.960 . S
C1076 C1075 1.524 . S
C1077 C1074 1.403 . S
C1077 C1078 1.392 . S
C1077 C1081 1.495 . S
C1078 C1077 1.392 . S
C1078 C1079 1.385 . S
C1078 C1080 1.478 . S
C1079 H1073 0.930 . S
C1079 C1075 1.400 . S
C1079 C1078 1.385 . S
C1080 C1078 1.478 . S
C1080 C1082 1.381 . S
C1080 C1086 1.383 . S
C1081 C1077 1.495 . S
C1081 H1087 0.959 . S
C1081 H1088 0.961 . S
C1081 H1089 0.960 . S
C1082 C1080 1.381 . S
C1082 C1083 1.394 . S
C1082 H1090 0.930 . S
C1083 C1082 1.394 . S
C1083 C1084 1.383 . S
C1083 H1091 0.929 . S
C1084 C1083 1.383 . S
C1084 C1085 1.377 . S
C1085 H1069 0.930 . S
C1085 C1084 1.377 . S
C1085 C1086 1.379 . S
C1086 H1070 0.931 . S
C1086 C1080 1.383 . S
C1086 C1085 1.379 . S
H1087 C1081 0.959 . S
H1088 C1081 0.961 . S
H1089 C1081 0.960 . S
H1090 C1082 0.930 . S
H1091 C1083 0.929 . S
H1092 C1100 0.929 . S
H1093 C1102 0.930 . S
H1094 C1104 0.930 . S
H1095 C1107 0.929 . S
H1096 C1110 0.930 . S
H1097 C1112 0.960 . S
H1098 C1112 0.960 . S
H1099 C1112 0.960 . S
C1100 H1092 0.929 . S
C1100 C1101 1.377 . S
C1100 C1102 1.384 . S
C1101 C1100 1.377 . S
C1101 C1107 1.390 . S
C1102 H1093 0.930 . S
C1102 C1100 1.384 . S
C1102 C1103 1.372 . S
C1103 C1102 1.372 . S
C1103 C1104 1.400 . S
C1103 C1108 1.490 . S
C1104 H1094 0.930 . S
C1104 C1103 1.400 . S
C1104 C1107 1.386 . S
H1105 C1121 0.930 . S
H1106 C1122 0.931 . S
C1107 H1095 0.929 . S
C1107 C1101 1.390 . S
C1107 C1104 1.386 . S
C1108 C1103 1.490 . S
C1108 C1110 1.395 . S
C1108 C1111 1.403 1_455 S
H1109 C1115 0.930 . S
C1110 H1096 0.930 . S
C1110 C1108 1.395 . S
C1110 C1113 1.403 . S
C1111 C1108 1.403 1_655 S
C1111 C1112 1.524 . S
C1111 C1115 1.400 . S
C1112 H1097 0.960 . S
C1112 H1098 0.960 . S
C1112 H1099 0.960 . S
C1112 C1111 1.524 . S
C1113 C1110 1.403 . S
C1113 C1114 1.392 1_455 S
C1113 C1117 1.495 . S
C1114 C1113 1.392 1_655 S
C1114 C1115 1.385 . S
C1114 C1116 1.478 . S
C1115 H1109 0.930 . S
C1115 C1111 1.400 . S
C1115 C1114 1.385 . S
C1116 C1114 1.478 . S
C1116 C1118 1.381 . S
C1116 C1122 1.383 . S
C1117 C1113 1.495 . S
C1117 H1123 0.959 . S
C1117 H1124 0.961 . S
C1117 H1125 0.960 . S
C1118 C1116 1.381 . S
C1118 C1119 1.394 . S
C1118 H1126 0.930 . S
C1119 C1118 1.394 . S
C1119 C1120 1.383 . S
C1119 H1127 0.929 . S
C1120 C1119 1.383 . S
C1120 C1121 1.377 . S
C1121 H1105 0.930 . S
C1121 C1120 1.377 . S
C1121 C1122 1.379 . S
C1122 H1106 0.931 . S
C1122 C1116 1.383 . S
C1122 C1121 1.379 . S
H1123 C1117 0.959 . S
H1124 C1117 0.961 . S
H1125 C1117 0.960 . S
H1126 C1118 0.930 . S
H1127 C1119 0.929 . S
H1128 C1136 0.929 . S
H1129 C1138 0.930 . S
H1130 C1140 0.930 . S
H1131 C1143 0.929 . S
H1132 C1146 0.930 . S
H1133 C1148 0.960 . S
H1134 C1148 0.960 1_545 S
H1135 C1148 0.960 . S
C1136 H1128 0.929 . S
C1136 C1137 1.377 . S
C1136 C1138 1.384 . S
C1137 C1136 1.377 . S
C1137 C1143 1.390 . S
C1138 H1129 0.930 . S
C1138 C1136 1.384 . S
C1138 C1139 1.372 . S
C1139 C1138 1.372 . S
C1139 C1140 1.400 . S
C1139 C1144 1.490 . S
C1140 H1130 0.930 . S
C1140 C1139 1.400 . S
C1140 C1143 1.386 . S
H1141 C1157 0.930 . S
H1142 C1158 0.931 . S
C1143 H1131 0.929 . S
C1143 C1137 1.390 . S
C1143 C1140 1.386 . S
C1144 C1139 1.490 . S
C1144 C1146 1.395 . S
C1144 C1147 1.403 1_545 S
H1145 C1151 0.930 . S
C1146 H1132 0.930 . S
C1146 C1144 1.395 . S
C1146 C1149 1.403 . S
C1147 C1144 1.403 1_565 S
C1147 C1148 1.524 . S
C1147 C1151 1.400 . S
C1148 H1133 0.960 . S
C1148 H1134 0.960 1_565 S
C1148 H1135 0.960 . S
C1148 C1147 1.524 . S
C1149 C1146 1.403 . S
C1149 C1150 1.392 1_545 S
C1149 C1153 1.495 . S
C1150 C1149 1.392 1_565 S
C1150 C1151 1.385 . S
C1150 C1152 1.478 . S
C1151 H1145 0.930 . S
C1151 C1147 1.400 . S
C1151 C1150 1.385 . S
C1152 C1150 1.478 . S
C1152 C1154 1.381 . S
C1152 C1158 1.383 . S
C1153 C1149 1.495 . S
C1153 H1159 0.959 . S
C1153 H1160 0.961 . S
C1153 H1161 0.960 . S
C1154 C1152 1.381 . S
C1154 C1155 1.394 . S
C1154 H1162 0.930 . S
C1155 C1154 1.394 . S
C1155 C1156 1.383 . S
C1155 H1163 0.929 . S
C1156 C1155 1.383 . S
C1156 C1157 1.377 . S
C1157 H1141 0.930 . S
C1157 C1156 1.377 . S
C1157 C1158 1.379 . S
C1158 H1142 0.931 . S
C1158 C1152 1.383 . S
C1158 C1157 1.379 . S
H1159 C1153 0.959 . S
H1160 C1153 0.961 . S
H1161 C1153 0.960 . S
H1162 C1154 0.930 . S
H1163 C1155 0.929 . S
H1164 C1172 0.929 . S
H1165 C1174 0.930 . S
H1166 C1176 0.930 . S
H1167 C1179 0.929 . S
H1168 C1182 0.930 . S
H1169 C1184 0.960 . S
H1170 C1184 0.960 . S
H1171 C1184 0.960 . S
C1172 H1164 0.929 . S
C1172 C1173 1.377 . S
C1172 C1174 1.384 . S
C1173 C1172 1.377 . S
C1173 C1179 1.390 . S
C1174 H1165 0.930 . S
C1174 C1172 1.384 . S
C1174 C1175 1.372 . S
C1175 C1174 1.372 . S
C1175 C1176 1.400 . S
C1175 C1180 1.490 . S
C1176 H1166 0.930 . S
C1176 C1175 1.400 . S
C1176 C1179 1.386 . S
H1177 C1193 0.930 . S
H1178 C1194 0.931 . S
C1179 H1167 0.929 . S
C1179 C1173 1.390 . S
C1179 C1176 1.386 . S
C1180 C1175 1.490 . S
C1180 C1182 1.395 . S
C1180 C1183 1.403 . S
H1181 C1187 0.930 . S
C1182 H1168 0.930 . S
C1182 C1180 1.395 . S
C1182 C1185 1.403 . S
C1183 C1180 1.403 . S
C1183 C1184 1.524 . S
C1183 C1187 1.400 . S
C1184 H1169 0.960 . S
C1184 H1170 0.960 . S
C1184 H1171 0.960 . S
C1184 C1183 1.524 . S
C1185 C1182 1.403 . S
C1185 C1186 1.392 . S
C1185 C1189 1.495 . S
C1186 C1185 1.392 . S
C1186 C1187 1.385 . S
C1186 C1188 1.478 . S
C1187 H1181 0.930 . S
C1187 C1183 1.400 . S
C1187 C1186 1.385 . S
C1188 C1186 1.478 . S
C1188 C1190 1.381 . S
C1188 C1194 1.383 . S
C1189 C1185 1.495 . S
C1189 H1195 0.959 . S
C1189 H1196 0.961 . S
C1189 H1197 0.960 . S
C1190 C1188 1.381 . S
C1190 C1191 1.394 . S
C1190 H1198 0.930 . S
C1191 C1190 1.394 . S
C1191 C1192 1.383 . S
C1191 H1199 0.929 . S
C1192 C1191 1.383 . S
C1192 C1193 1.377 . S
C1193 H1177 0.930 . S
C1193 C1192 1.377 . S
C1193 C1194 1.379 . S
C1194 H1178 0.931 . S
C1194 C1188 1.383 . S
C1194 C1193 1.379 . S
H1195 C1189 0.959 . S
H1196 C1189 0.961 . S
H1197 C1189 0.960 . S
H1198 C1190 0.930 . S
H1199 C1191 0.929 . S
H1200 C1208 0.929 . S
H1201 C1210 0.930 . S
H1202 C1212 0.930 . S
H1203 C1215 0.929 . S
H1204 C1218 0.922 . S
H1205 C1220 0.960 . S
H1206 C1220 0.960 . S
H1207 C1220 0.960 . S
C1208 H1200 0.929 . S
C1208 C1209 1.377 . S
C1208 C1210 1.384 . S
C1209 C1208 1.377 . S
C1209 C1215 1.390 . S
C1210 H1201 0.930 . S
C1210 C1208 1.384 . S
C1210 C1211 1.372 . S
C1211 C1210 1.372 . S
C1211 C1212 1.400 . S
C1211 C1216 1.490 . S
C1212 H1202 0.930 . S
C1212 C1211 1.400 . S
C1212 C1215 1.386 . S
H1213 C1229 0.930 . S
H1214 C1230 0.931 . S
C1215 H1203 0.929 . S
C1215 C1209 1.390 . S
C1215 C1212 1.386 . S
C1216 C1211 1.490 . S
C1216 C1218 1.412 . S
C1216 C1219 1.403 . S
H1217 C1223 0.930 . S
C1218 H1204 0.922 . S
C1218 C1216 1.412 . S
C1218 C1221 1.395 1_655 S
C1219 C1216 1.403 . S
C1219 C1220 1.524 . S
C1219 C1223 1.400 1_655 S
C1220 H1205 0.960 . S
C1220 H1206 0.960 . S
C1220 H1207 0.960 . S
C1220 C1219 1.524 . S
C1221 C1218 1.395 1_455 S
C1221 C1222 1.392 . S
C1221 C1225 1.495 . S
C1222 C1221 1.392 . S
C1222 C1223 1.385 . S
C1222 C1224 1.478 . S
C1223 H1217 0.930 . S
C1223 C1219 1.400 1_455 S
C1223 C1222 1.385 . S
C1224 C1222 1.478 . S
C1224 C1226 1.381 . S
C1224 C1230 1.383 . S
C1225 C1221 1.495 . S
C1225 H1231 0.959 . S
C1225 H1232 0.961 . S
C1225 H1233 0.960 . S
C1226 C1224 1.381 . S
C1226 C1227 1.394 . S
C1226 H1234 0.930 . S
C1227 C1226 1.394 . S
C1227 C1228 1.383 . S
C1227 H1235 0.929 . S
C1228 C1227 1.383 . S
C1228 C1229 1.377 . S
C1229 H1213 0.930 . S
C1229 C1228 1.377 . S
C1229 C1230 1.379 . S
C1230 H1214 0.931 . S
C1230 C1224 1.383 . S
C1230 C1229 1.379 . S
H1231 C1225 0.959 . S
H1232 C1225 0.961 . S
H1233 C1225 0.960 . S
H1234 C1226 0.930 . S
H1235 C1227 0.929 . S
H1236 C1244 0.929 . S
H1237 C1246 0.930 . S
H1238 C1248 0.930 . S
H1239 C1251 0.929 . S
H1240 C1254 0.930 . S
H1241 C1256 0.960 . S
H1242 C1256 0.960 . S
H1243 C1256 0.960 . S
C1244 H1236 0.929 . S
C1244 C1245 1.377 . S
C1244 C1246 1.384 . S
C1245 C1244 1.377 . S
C1245 C1251 1.390 . S
C1246 H1237 0.930 . S
C1246 C1244 1.384 . S
C1246 C1247 1.372 . S
C1247 C1246 1.372 . S
C1247 C1248 1.400 . S
C1247 C1252 1.490 . S
C1248 H1238 0.930 . S
C1248 C1247 1.400 . S
C1248 C1251 1.386 . S
H1249 C1265 0.930 . S
H1250 C1266 0.931 . S
C1251 H1239 0.929 . S
C1251 C1245 1.390 . S
C1251 C1248 1.386 . S
C1252 C1247 1.490 . S
C1252 C1254 1.395 1_455 S
C1252 C1255 1.403 . S
H1253 C1259 0.930 . S
C1254 H1240 0.930 . S
C1254 C1252 1.395 1_655 S
C1254 C1257 1.403 . S
C1255 C1252 1.403 . S
C1255 C1256 1.524 . S
C1255 C1259 1.400 . S
C1256 H1241 0.960 . S
C1256 H1242 0.960 . S
C1256 H1243 0.960 . S
C1256 C1255 1.524 . S
C1257 C1254 1.403 . S
C1257 C1258 1.392 . S
C1257 C1261 1.495 . S
C1258 C1257 1.392 . S
C1258 C1259 1.385 1_655 S
C1258 C1260 1.478 . S
C1259 H1253 0.930 . S
C1259 C1255 1.400 . S
C1259 C1258 1.385 1_455 S
C1260 C1258 1.478 . S
C1260 C1262 1.381 . S
C1260 C1266 1.383 . S
C1261 C1257 1.495 . S
C1261 H1267 0.959 . S
C1261 H1268 0.961 . S
C1261 H1269 0.960 . S
C1262 C1260 1.381 . S
C1262 C1263 1.394 . S
C1262 H1270 0.930 . S
C1263 C1262 1.394 . S
C1263 C1264 1.383 . S
C1263 H1271 0.929 . S
C1264 C1263 1.383 . S
C1264 C1265 1.377 . S
C1265 H1249 0.930 . S
C1265 C1264 1.377 . S
C1265 C1266 1.379 . S
C1266 H1250 0.931 . S
C1266 C1260 1.383 . S
C1266 C1265 1.379 . S
H1267 C1261 0.959 . S
H1268 C1261 0.961 . S
H1269 C1261 0.960 . S
H1270 C1262 0.930 . S
H1271 C1263 0.929 . S
H1272 C1280 0.929 . S
H1273 C1282 0.930 . S
H1274 C1284 0.930 . S
H1275 C1287 0.929 . S
H1276 C1290 0.930 . S
H1277 C1292 0.960 . S
H1278 C1292 0.960 . S
H1279 C1292 0.960 . S
C1280 H1272 0.929 . S
C1280 C1281 1.377 . S
C1280 C1282 1.384 . S
C1281 C1280 1.377 . S
C1281 C1287 1.390 . S
C1282 H1273 0.930 . S
C1282 C1280 1.384 . S
C1282 C1283 1.372 . S
C1283 C1282 1.372 . S
C1283 C1284 1.400 . S
C1283 C1288 1.490 . S
C1284 H1274 0.930 . S
C1284 C1283 1.400 . S
C1284 C1287 1.386 . S
H1285 C1301 0.930 . S
H1286 C1302 0.931 . S
C1287 H1275 0.929 . S
C1287 C1281 1.390 . S
C1287 C1284 1.386 . S
C1288 C1283 1.490 . S
C1288 C1290 1.395 . S
C1288 C1291 1.403 1_565 S
H1289 C1295 0.930 . S
C1290 H1276 0.930 . S
C1290 C1288 1.395 . S
C1290 C1293 1.403 . S
C1291 C1288 1.403 1_545 S
C1291 C1292 1.524 . S
C1291 C1295 1.400 . S
C1292 H1277 0.960 . S
C1292 H1278 0.960 . S
C1292 H1279 0.960 . S
C1292 C1291 1.524 . S
C1293 C1290 1.403 . S
C1293 C1294 1.392 1_565 S
C1293 C1297 1.495 . S
C1294 C1293 1.392 1_545 S
C1294 C1295 1.385 . S
C1294 C1296 1.478 . S
C1295 H1289 0.930 . S
C1295 C1291 1.400 . S
C1295 C1294 1.385 . S
C1296 C1294 1.478 . S
C1296 C1298 1.381 . S
C1296 C1302 1.383 . S
C1297 C1293 1.495 . S
C1297 H1303 0.959 . S
C1297 H1304 0.961 . S
C1297 H1305 0.960 . S
C1298 C1296 1.381 . S
C1298 C1299 1.394 . S
C1298 H1306 0.930 . S
C1299 C1298 1.394 . S
C1299 C1300 1.383 . S
C1299 H1307 0.929 . S
C1300 C1299 1.383 . S
C1300 C1301 1.377 . S
C1301 H1285 0.930 . S
C1301 C1300 1.377 . S
C1301 C1302 1.379 . S
C1302 H1286 0.931 . S
C1302 C1296 1.383 . S
C1302 C1301 1.379 . S
H1303 C1297 0.959 . S
H1304 C1297 0.961 . S
H1305 C1297 0.960 . S
H1306 C1298 0.930 . S
H1307 C1299 0.929 . S
H1308 C1316 0.929 . S
H1309 C1318 0.930 . S
H1310 C1320 0.930 . S
H1311 C1323 0.929 . S
H1312 C1326 0.930 . S
H1313 C1328 0.960 . S
H1314 C1328 0.960 . S
H1315 C1328 0.960 . S
C1316 H1308 0.929 . S
C1316 C1317 1.377 . S
C1316 C1318 1.384 . S
C1317 C1316 1.377 . S
C1317 C1323 1.390 . S
C1318 H1309 0.930 . S
C1318 C1316 1.384 . S
C1318 C1319 1.372 . S
C1319 C1318 1.372 . S
C1319 C1320 1.400 . S
C1319 C1324 1.490 . S
C1320 H1310 0.930 . S
C1320 C1319 1.400 . S
C1320 C1323 1.386 . S
H1321 C1337 0.930 . S
H1322 C1338 0.931 . S
C1323 H1311 0.929 . S
C1323 C1317 1.390 . S
C1323 C1320 1.386 . S
C1324 C1319 1.490 . S
C1324 C1326 1.395 . S
C1324 C1327 1.403 . S
H1325 C1331 0.930 . S
C1326 H1312 0.930 . S
C1326 C1324 1.395 . S
C1326 C1329 1.403 . S
C1327 C1324 1.403 . S
C1327 C1328 1.524 . S
C1327 C1331 1.400 . S
C1328 H1313 0.960 . S
C1328 H1314 0.960 . S
C1328 H1315 0.960 . S
C1328 C1327 1.524 . S
C1329 C1326 1.403 . S
C1329 C1330 1.392 . S
C1329 C1333 1.495 . S
C1330 C1329 1.392 . S
C1330 C1331 1.385 . S
C1330 C1332 1.478 . S
C1331 H1325 0.930 . S
C1331 C1327 1.400 . S
C1331 C1330 1.385 . S
C1332 C1330 1.478 . S
C1332 C1334 1.381 . S
C1332 C1338 1.383 . S
C1333 C1329 1.495 . S
C1333 H1339 0.959 . S
C1333 H1340 0.961 . S
C1333 H1341 0.960 . S
C1334 C1332 1.381 . S
C1334 C1335 1.394 . S
C1334 H1342 0.930 . S
C1335 C1334 1.394 . S
C1335 C1336 1.383 . S
C1335 H1343 0.929 . S
C1336 C1335 1.383 . S
C1336 C1337 1.377 . S
C1337 H1321 0.930 . S
C1337 C1336 1.377 . S
C1337 C1338 1.379 . S
C1338 H1322 0.931 . S
C1338 C1332 1.383 . S
C1338 C1337 1.379 . S
H1339 C1333 0.959 . S
H1340 C1333 0.961 . S
H1341 C1333 0.960 . S
H1342 C1334 0.930 . S
H1343 C1335 0.929 . S
H1344 C1352 0.929 . S
H1345 C1354 0.930 . S
H1346 C1356 0.930 . S
H1347 C1359 0.929 . S
H1348 C1362 0.930 . S
H1349 C1364 0.960 . S
H1350 C1364 0.960 . S
H1351 C1364 0.960 . S
C1352 H1344 0.929 . S
C1352 C1353 1.377 . S
C1352 C1354 1.384 . S
C1353 C1352 1.377 . S
C1353 C1359 1.390 . S
C1354 H1345 0.930 . S
C1354 C1352 1.384 . S
C1354 C1355 1.372 . S
C1355 C1354 1.372 . S
C1355 C1356 1.400 . S
C1355 C1360 1.490 . S
C1356 H1346 0.930 . S
C1356 C1355 1.400 . S
C1356 C1359 1.386 . S
H1357 C1373 0.930 . S
H1358 C1374 0.931 . S
C1359 H1347 0.929 . S
C1359 C1353 1.390 . S
C1359 C1356 1.386 . S
C1360 C1355 1.490 . S
C1360 C1362 1.395 1_565 S
C1360 C1363 1.403 . S
H1361 C1367 0.930 . S
C1362 H1348 0.930 . S
C1362 C1360 1.395 1_545 S
C1362 C1365 1.403 . S
C1363 C1360 1.403 . S
C1363 C1364 1.524 . S
C1363 C1367 1.400 . S
C1364 H1349 0.960 . S
C1364 H1350 0.960 . S
C1364 H1351 0.960 . S
C1364 C1363 1.524 . S
C1365 C1362 1.403 . S
C1365 C1366 1.392 . S
C1365 C1369 1.495 . S
C1366 C1365 1.392 . S
C1366 C1367 1.385 1_545 S
C1366 C1368 1.478 . S
C1367 H1361 0.930 . S
C1367 C1363 1.400 . S
C1367 C1366 1.385 1_565 S
C1368 C1366 1.478 . S
C1368 C1370 1.381 . S
C1368 C1374 1.383 . S
C1369 C1365 1.495 . S
C1369 H1375 0.959 . S
C1369 H1376 0.961 . S
C1369 H1377 0.960 . S
C1370 C1368 1.381 . S
C1370 C1371 1.394 . S
C1370 H1378 0.930 . S
C1371 C1370 1.394 . S
C1371 C1372 1.383 . S
C1371 H1379 0.929 . S
C1372 C1371 1.383 . S
C1372 C1373 1.377 . S
C1373 H1357 0.930 . S
C1373 C1372 1.377 . S
C1373 C1374 1.379 . S
C1374 H1358 0.931 . S
C1374 C1368 1.383 . S
C1374 C1373 1.379 . S
H1375 C1369 0.959 . S
H1376 C1369 0.961 . S
H1377 C1369 0.960 . S
H1378 C1370 0.930 . S
H1379 C1371 0.929 . S
H1380 C1388 0.929 . S
H1381 C1390 0.930 . S
H1382 C1392 0.930 . S
H1383 C1395 0.929 . S
H1384 C1398 0.930 . S
H1385 C1400 0.960 . S
H1386 C1400 0.960 . S
H1387 C1400 0.960 . S
C1388 H1380 0.929 . S
C1388 C1389 1.377 . S
C1388 C1390 1.384 . S
C1389 C1388 1.377 . S
C1389 C1395 1.390 . S
C1390 H1381 0.930 . S
C1390 C1388 1.384 . S
C1390 C1391 1.372 . S
C1391 C1390 1.372 . S
C1391 C1392 1.400 . S
C1391 C1396 1.490 . S
C1392 H1382 0.930 . S
C1392 C1391 1.400 . S
C1392 C1395 1.386 . S
H1393 C1409 0.930 . S
H1394 C1410 0.931 . S
C1395 H1383 0.929 . S
C1395 C1389 1.390 . S
C1395 C1392 1.386 . S
C1396 C1391 1.490 . S
C1396 C1398 1.395 . S
C1396 C1399 1.403 . S
H1397 C1403 0.930 . S
C1398 H1384 0.930 . S
C1398 C1396 1.395 . S
C1398 C1401 1.403 . S
C1399 C1396 1.403 . S
C1399 C1400 1.524 . S
C1399 C1403 1.400 . S
C1400 H1385 0.960 . S
C1400 H1386 0.960 . S
C1400 H1387 0.960 . S
C1400 C1399 1.524 . S
C1401 C1398 1.403 . S
C1401 C1402 1.392 . S
C1401 C1405 1.495 . S
C1402 C1401 1.392 . S
C1402 C1403 1.385 . S
C1402 C1404 1.478 . S
C1403 H1397 0.930 . S
C1403 C1399 1.400 . S
C1403 C1402 1.385 . S
C1404 C1402 1.478 . S
C1404 C1406 1.381 . S
C1404 C1410 1.383 . S
C1405 C1401 1.495 . S
C1405 H1411 0.959 . S
C1405 H1412 0.961 . S
C1405 H1413 0.960 . S
C1406 C1404 1.381 . S
C1406 C1407 1.394 . S
C1406 H1414 0.930 . S
C1407 C1406 1.394 . S
C1407 C1408 1.383 . S
C1407 H1415 0.929 . S
C1408 C1407 1.383 . S
C1408 C1409 1.377 . S
C1409 H1393 0.930 . S
C1409 C1408 1.377 . S
C1409 C1410 1.379 . S
C1410 H1394 0.931 . S
C1410 C1404 1.383 . S
C1410 C1409 1.379 . S
H1411 C1405 0.959 . S
H1412 C1405 0.961 . S
H1413 C1405 0.960 . S
H1414 C1406 0.930 . S
H1415 C1407 0.929 . S
H1416 C1424 0.929 . S
H1417 C1426 0.930 . S
H1418 C1428 0.930 . S
H1419 C1431 0.929 . S
H1420 C1434 0.930 . S
H1421 C1436 0.960 . S
H1422 C1436 0.960 1_655 S
H1423 C1436 0.960 . S
C1424 H1416 0.929 . S
C1424 C1425 1.377 . S
C1424 C1426 1.384 . S
C1425 C1424 1.377 . S
C1425 C1431 1.390 . S
C1426 H1417 0.930 . S
C1426 C1424 1.384 . S
C1426 C1427 1.372 . S
C1427 C1426 1.372 . S
C1427 C1428 1.400 . S
C1427 C1432 1.490 . S
C1428 H1418 0.930 . S
C1428 C1427 1.400 . S
C1428 C1431 1.386 . S
H1429 C1445 0.930 . S
H1430 C1446 0.931 . S
C1431 H1419 0.929 . S
C1431 C1425 1.390 . S
C1431 C1428 1.386 . S
C1432 C1427 1.490 . S
C1432 C1434 1.395 . S
C1432 C1435 1.403 1_655 S
H1433 C1439 0.930 . S
C1434 H1420 0.930 . S
C1434 C1432 1.395 . S
C1434 C1437 1.403 . S
C1435 C1432 1.403 1_455 S
C1435 C1436 1.524 . S
C1435 C1439 1.400 . S
C1436 H1421 0.960 . S
C1436 H1422 0.960 1_455 S
C1436 H1423 0.960 . S
C1436 C1435 1.524 . S
C1437 C1434 1.403 . S
C1437 C1438 1.392 1_655 S
C1437 C1441 1.495 . S
C1438 C1437 1.392 1_455 S
C1438 C1439 1.385 . S
C1438 C1440 1.478 . S
C1439 H1433 0.930 . S
C1439 C1435 1.400 . S
C1439 C1438 1.385 . S
C1440 C1438 1.478 . S
C1440 C1442 1.381 . S
C1440 C1446 1.383 . S
C1441 C1437 1.495 . S
C1441 H1447 0.959 . S
C1441 H1448 0.961 1_655 S
C1441 H1449 0.960 . S
C1442 C1440 1.381 . S
C1442 C1443 1.394 . S
C1442 H1450 0.930 . S
C1443 C1442 1.394 . S
C1443 C1444 1.383 . S
C1443 H1451 0.929 . S
C1444 C1443 1.383 . S
C1444 C1445 1.377 . S
C1445 H1429 0.930 . S
C1445 C1444 1.377 . S
C1445 C1446 1.379 . S
C1446 H1430 0.931 . S
C1446 C1440 1.383 . S
C1446 C1445 1.379 . S
H1447 C1441 0.959 . S
H1448 C1441 0.961 1_455 S
H1449 C1441 0.960 . S
H1450 C1442 0.930 . S
H1451 C1443 0.929 . S
H1452 C1460 0.929 . S
H1453 C1462 0.930 . S
H1454 C1464 0.930 . S
H1455 C1467 0.929 . S
H1456 C1470 0.930 . S
H1457 C1472 0.960 . S
H1458 C1472 0.960 . S
H1459 C1472 0.960 . S
C1460 H1452 0.929 . S
C1460 C1461 1.377 . S
C1460 C1462 1.384 . S
C1461 C1460 1.377 . S
C1461 C1467 1.390 . S
C1462 H1453 0.930 . S
C1462 C1460 1.384 . S
C1462 C1463 1.372 . S
C1463 C1462 1.372 . S
C1463 C1464 1.400 . S
C1463 C1468 1.490 . S
C1464 H1454 0.930 . S
C1464 C1463 1.400 . S
C1464 C1467 1.386 . S
H1465 C1481 0.930 . S
H1466 C1482 0.931 . S
C1467 H1455 0.929 . S
C1467 C1461 1.390 . S
C1467 C1464 1.386 . S
C1468 C1463 1.490 . S
C1468 C1470 1.395 1_545 S
C1468 C1471 1.403 . S
H1469 C1475 0.930 . S
C1470 H1456 0.930 . S
C1470 C1468 1.395 1_565 S
C1470 C1473 1.403 . S
C1471 C1468 1.403 . S
C1471 C1472 1.524 . S
C1471 C1475 1.400 . S
C1472 H1457 0.960 . S
C1472 H1458 0.960 . S
C1472 H1459 0.960 . S
C1472 C1471 1.524 . S
C1473 C1470 1.403 . S
C1473 C1474 1.392 . S
C1473 C1477 1.495 . S
C1474 C1473 1.392 . S
C1474 C1475 1.385 1_565 S
C1474 C1476 1.478 . S
C1475 H1469 0.930 . S
C1475 C1471 1.400 . S
C1475 C1474 1.385 1_545 S
C1476 C1474 1.478 . S
C1476 C1478 1.381 . S
C1476 C1482 1.383 . S
C1477 C1473 1.495 . S
C1477 H1483 0.959 . S
C1477 H1484 0.961 . S
C1477 H1485 0.960 . S
C1478 C1476 1.381 . S
C1478 C1479 1.394 . S
C1478 H1486 0.930 . S
C1479 C1478 1.394 . S
C1479 C1480 1.383 . S
C1479 H1487 0.929 . S
C1480 C1479 1.383 . S
C1480 C1481 1.377 . S
C1481 H1465 0.930 . S
C1481 C1480 1.377 . S
C1481 C1482 1.379 . S
C1482 H1466 0.931 . S
C1482 C1476 1.383 . S
C1482 C1481 1.379 . S
H1483 C1477 0.959 . S
H1484 C1477 0.961 . S
H1485 C1477 0.960 . S
H1486 C1478 0.930 . S
H1487 C1479 0.929 . S
H1488 C1496 0.929 . S
H1489 C1498 0.930 . S
H1490 C1500 0.930 . S
H1491 C1503 0.929 . S
H1492 C1506 0.930 . S
H1493 C1508 0.960 . S
H1494 C1508 0.960 . S
H1495 C1508 0.960 . S
C1496 H1488 0.929 . S
C1496 C1497 1.377 . S
C1496 C1498 1.384 . S
C1497 C1496 1.377 . S
C1497 C1503 1.390 . S
C1498 H1489 0.930 . S
C1498 C1496 1.384 . S
C1498 C1499 1.372 . S
C1499 C1498 1.372 . S
C1499 C1500 1.400 . S
C1499 C1504 1.490 . S
C1500 H1490 0.930 . S
C1500 C1499 1.400 . S
C1500 C1503 1.386 . S
H1501 C1517 0.930 . S
H1502 C1518 0.931 . S
C1503 H1491 0.929 . S
C1503 C1497 1.390 . S
C1503 C1500 1.386 . S
C1504 C1499 1.490 . S
C1504 C1506 1.395 . S
C1504 C1507 1.403 . S
H1505 C1511 0.930 . S
C1506 H1492 0.930 . S
C1506 C1504 1.395 . S
C1506 C1509 1.403 . S
C1507 C1504 1.403 . S
C1507 C1508 1.524 . S
C1507 C1511 1.400 . S
C1508 H1493 0.960 . S
C1508 H1494 0.960 . S
C1508 H1495 0.960 . S
C1508 C1507 1.524 . S
C1509 C1506 1.403 . S
C1509 C1510 1.392 . S
C1509 C1513 1.495 . S
C1510 C1509 1.392 . S
C1510 C1511 1.385 . S
C1510 C1512 1.478 . S
C1511 H1505 0.930 . S
C1511 C1507 1.400 . S
C1511 C1510 1.385 . S
C1512 C1510 1.478 . S
C1512 C1514 1.381 . S
C1512 C1518 1.383 . S
C1513 C1509 1.495 . S
C1513 H1519 0.959 . S
C1513 H1520 0.961 . S
C1513 H1521 0.960 . S
C1514 C1512 1.381 . S
C1514 C1515 1.394 . S
C1514 H1522 0.930 . S
C1515 C1514 1.394 . S
C1515 C1516 1.383 . S
C1515 H1523 0.929 . S
C1516 C1515 1.383 . S
C1516 C1517 1.377 . S
C1517 H1501 0.930 . S
C1517 C1516 1.377 . S
C1517 C1518 1.379 . S
C1518 H1502 0.931 . S
C1518 C1512 1.383 . S
C1518 C1517 1.379 . S
H1519 C1513 0.959 . S
H1520 C1513 0.961 . S
H1521 C1513 0.960 . S
H1522 C1514 0.930 . S
H1523 C1515 0.929 . S
H1524 C1532 0.929 . S
H1525 C1534 0.930 . S
H1526 C1536 0.930 . S
H1527 C1539 0.929 . S
H1528 C1542 0.930 . S
H1529 C1544 0.960 1_655 S
H1530 C1544 0.960 . S
H1531 C1544 0.960 1_655 S
C1532 H1524 0.929 . S
C1532 C1533 1.377 . S
C1532 C1534 1.384 . S
C1533 C1532 1.377 . S
C1533 C1539 1.390 . S
C1534 H1525 0.930 . S
C1534 C1532 1.384 . S
C1534 C1535 1.372 . S
C1535 C1534 1.372 . S
C1535 C1536 1.400 . S
C1535 C1540 1.490 . S
C1536 H1526 0.930 . S
C1536 C1535 1.400 . S
C1536 C1539 1.386 . S
H1537 C1553 0.930 . S
H1538 C1554 0.931 . S
C1539 H1527 0.929 . S
C1539 C1533 1.390 . S
C1539 C1536 1.386 . S
C1540 C1535 1.490 . S
C1540 C1542 1.395 . S
C1540 C1543 1.403 . S
H1541 C1547 0.930 . S
C1542 H1528 0.930 . S
C1542 C1540 1.395 . S
C1542 C1545 1.403 . S
C1543 C1540 1.403 . S
C1543 C1544 1.524 . S
C1543 C1547 1.400 1_455 S
C1544 H1529 0.960 1_455 S
C1544 H1530 0.960 . S
C1544 H1531 0.960 1_455 S
C1544 C1543 1.524 . S
C1545 C1542 1.403 . S
C1545 C1546 1.392 1_455 S
C1545 C1549 1.495 . S
C1546 C1545 1.392 1_655 S
C1546 C1547 1.385 . S
C1546 C1548 1.478 . S
C1547 H1541 0.930 . S
C1547 C1543 1.400 1_655 S
C1547 C1546 1.385 . S
C1548 C1546 1.478 . S
C1548 C1550 1.381 . S
C1548 C1554 1.383 . S
C1549 C1545 1.495 . S
C1549 H1555 0.959 . S
C1549 H1556 0.961 1_455 S
C1549 H1557 0.960 . S
C1550 C1548 1.381 . S
C1550 C1551 1.394 . S
C1550 H1558 0.930 . S
C1551 C1550 1.394 . S
C1551 C1552 1.383 . S
C1551 H1559 0.929 . S
C1552 C1551 1.383 . S
C1552 C1553 1.377 . S
C1553 H1537 0.930 . S
C1553 C1552 1.377 . S
C1553 C1554 1.379 . S
C1554 H1538 0.931 . S
C1554 C1548 1.383 . S
C1554 C1553 1.379 . S
H1555 C1549 0.959 . S
H1556 C1549 0.961 1_655 S
H1557 C1549 0.960 . S
H1558 C1550 0.930 . S
H1559 C1551 0.929 . S
H1560 C1568 0.929 . S
H1561 C1570 0.930 . S
H1562 C1572 0.930 . S
H1563 C1575 0.929 . S
H1564 C1578 0.930 . S
H1565 C1580 0.960 . S
H1566 C1580 0.960 . S
H1567 C1580 0.960 . S
C1568 H1560 0.929 . S
C1568 C1569 1.377 . S
C1568 C1570 1.384 . S
C1569 C1568 1.377 . S
C1569 C1575 1.390 . S
C1570 H1561 0.930 . S
C1570 C1568 1.384 . S
C1570 C1571 1.372 . S
C1571 C1570 1.372 . S
C1571 C1572 1.400 . S
C1571 C1576 1.490 . S
C1572 H1562 0.930 . S
C1572 C1571 1.400 . S
C1572 C1575 1.386 . S
H1573 C1589 0.930 . S
H1574 C1590 0.931 . S
C1575 H1563 0.929 . S
C1575 C1569 1.390 . S
C1575 C1572 1.386 . S
C1576 C1571 1.490 . S
C1576 C1578 1.395 . S
C1576 C1579 1.403 . S
H1577 C1583 0.930 . S
C1578 H1564 0.930 . S
C1578 C1576 1.395 . S
C1578 C1581 1.403 . S
C1579 C1576 1.403 . S
C1579 C1580 1.524 . S
C1579 C1583 1.400 . S
C1580 H1565 0.960 . S
C1580 H1566 0.960 . S
C1580 H1567 0.960 . S
C1580 C1579 1.524 . S
C1581 C1578 1.403 . S
C1581 C1582 1.392 . S
C1581 C1585 1.495 . S
C1582 C1581 1.392 . S
C1582 C1583 1.385 . S
C1582 C1584 1.478 . S
C1583 H1577 0.930 . S
C1583 C1579 1.400 . S
C1583 C1582 1.385 . S
C1584 C1582 1.478 . S
C1584 C1586 1.381 . S
C1584 C1590 1.383 . S
C1585 C1581 1.495 . S
C1585 H1591 0.959 . S
C1585 H1592 0.961 . S
C1585 H1593 0.960 . S
C1586 C1584 1.381 . S
C1586 C1587 1.394 . S
C1586 H1594 0.930 . S
C1587 C1586 1.394 . S
C1587 C1588 1.383 . S
C1587 H1595 0.929 . S
C1588 C1587 1.383 . S
C1588 C1589 1.377 . S
C1589 H1573 0.930 . S
C1589 C1588 1.377 . S
C1589 C1590 1.379 . S
C1590 H1574 0.931 . S
C1590 C1584 1.383 . S
C1590 C1589 1.379 . S
H1591 C1585 0.959 . S
H1592 C1585 0.961 . S
H1593 C1585 0.960 . S
H1594 C1586 0.930 . S
H1595 C1587 0.929 . S
H1596 C1604 0.929 . S
H1597 C1606 0.930 . S
H1598 C1608 0.930 . S
H1599 C1611 0.929 . S
H1600 C1614 0.930 . S
H1601 C1616 0.960 . S
H1602 C1616 0.960 . S
H1603 C1616 0.960 . S
C1604 H1596 0.929 . S
C1604 C1605 1.377 . S
C1604 C1606 1.384 . S
C1605 C1604 1.377 . S
C1605 C1611 1.390 . S
C1606 H1597 0.930 . S
C1606 C1604 1.384 . S
C1606 C1607 1.372 . S
C1607 C1606 1.372 . S
C1607 C1608 1.400 . S
C1607 C1612 1.490 . S
C1608 H1598 0.930 . S
C1608 C1607 1.400 . S
C1608 C1611 1.386 . S
H1609 C1625 0.930 . S
H1610 C1626 0.931 . S
C1611 H1599 0.929 . S
C1611 C1605 1.390 . S
C1611 C1608 1.386 . S
C1612 C1607 1.490 . S
C1612 C1614 1.395 . S
C1612 C1615 1.403 . S
H1613 C1619 0.930 . S
C1614 H1600 0.930 . S
C1614 C1612 1.395 . S
C1614 C1617 1.403 . S
C1615 C1612 1.403 . S
C1615 C1616 1.524 . S
C1615 C1619 1.400 . S
C1616 H1601 0.960 . S
C1616 H1602 0.960 . S
C1616 H1603 0.960 . S
C1616 C1615 1.524 . S
C1617 C1614 1.403 . S
C1617 C1618 1.392 . S
C1617 C1621 1.495 . S
C1618 C1617 1.392 . S
C1618 C1619 1.385 . S
C1618 C1620 1.478 . S
C1619 H1613 0.930 . S
C1619 C1615 1.400 . S
C1619 C1618 1.385 . S
C1620 C1618 1.478 . S
C1620 C1622 1.381 . S
C1620 C1626 1.383 . S
C1621 C1617 1.495 . S
C1621 H1627 0.959 . S
C1621 H1628 0.961 . S
C1621 H1629 0.960 . S
C1622 C1620 1.381 . S
C1622 C1623 1.394 . S
C1622 H1630 0.930 . S
C1623 C1622 1.394 . S
C1623 C1624 1.383 . S
C1623 H1631 0.929 . S
C1624 C1623 1.383 . S
C1624 C1625 1.377 . S
C1625 H1609 0.930 . S
C1625 C1624 1.377 . S
C1625 C1626 1.379 . S
C1626 H1610 0.931 . S
C1626 C1620 1.383 . S
C1626 C1625 1.379 . S
H1627 C1621 0.959 . S
H1628 C1621 0.961 . S
H1629 C1621 0.960 . S
H1630 C1622 0.930 . S
H1631 C1623 0.929 . S
H1632 C1640 0.929 . S
H1633 C1642 0.930 . S
H1634 C1644 0.930 . S
H1635 C1647 0.929 . S
H1636 C1650 0.930 . S
H1637 C1652 0.960 . S
H1638 C1652 0.960 . S
H1639 C1652 0.960 . S
C1640 H1632 0.929 . S
C1640 C1641 1.377 . S
C1640 C1642 1.384 . S
C1641 C1640 1.377 . S
C1641 C1647 1.390 . S
C1642 H1633 0.930 . S
C1642 C1640 1.384 . S
C1642 C1643 1.372 . S
C1643 C1642 1.372 . S
C1643 C1644 1.400 . S
C1643 C1648 1.490 . S
C1644 H1634 0.930 . S
C1644 C1643 1.400 . S
C1644 C1647 1.386 . S
H1645 C1661 0.930 . S
H1646 C1662 0.931 . S
C1647 H1635 0.929 . S
C1647 C1641 1.390 . S
C1647 C1644 1.386 . S
C1648 C1643 1.490 . S
C1648 C1650 1.395 . S
C1648 C1651 1.403 . S
H1649 C1655 0.930 . S
C1650 H1636 0.930 . S
C1650 C1648 1.395 . S
C1650 C1653 1.403 . S
C1651 C1648 1.403 . S
C1651 C1652 1.524 . S
C1651 C1655 1.400 . S
C1652 H1637 0.960 . S
C1652 H1638 0.960 . S
C1652 H1639 0.960 . S
C1652 C1651 1.524 . S
C1653 C1650 1.403 . S
C1653 C1654 1.392 . S
C1653 C1657 1.495 . S
C1654 C1653 1.392 . S
C1654 C1655 1.385 . S
C1654 C1656 1.478 . S
C1655 H1649 0.930 . S
C1655 C1651 1.400 . S
C1655 C1654 1.385 . S
C1656 C1654 1.478 . S
C1656 C1658 1.381 . S
C1656 C1662 1.383 . S
C1657 C1653 1.495 . S
C1657 H1663 0.959 . S
C1657 H1664 0.961 . S
C1657 H1665 0.960 . S
C1658 C1656 1.381 . S
C1658 C1659 1.394 . S
C1658 H1666 0.930 . S
C1659 C1658 1.394 . S
C1659 C1660 1.383 . S
C1659 H1667 0.929 . S
C1660 C1659 1.383 . S
C1660 C1661 1.377 . S
C1661 H1645 0.930 . S
C1661 C1660 1.377 . S
C1661 C1662 1.379 . S
C1662 H1646 0.931 . S
C1662 C1656 1.383 . S
C1662 C1661 1.379 . S
H1663 C1657 0.959 . S
H1664 C1657 0.961 . S
H1665 C1657 0.960 . S
H1666 C1658 0.930 . S
H1667 C1659 0.929 . S
H1668 C1676 0.929 . S
H1669 C1678 0.930 . S
H1670 C1680 0.930 . S
H1671 C1683 0.929 . S
H1672 C1686 0.930 . S
H1673 C1688 0.960 . S
H1674 C1688 0.960 . S
H1675 C1688 0.960 . S
C1676 H1668 0.929 . S
C1676 C1677 1.377 . S
C1676 C1678 1.384 . S
C1677 C1676 1.377 . S
C1677 C1683 1.390 . S
C1678 H1669 0.930 . S
C1678 C1676 1.384 . S
C1678 C1679 1.372 . S
C1679 C1678 1.372 . S
C1679 C1680 1.400 . S
C1679 C1684 1.490 . S
C1680 H1670 0.930 . S
C1680 C1679 1.400 . S
C1680 C1683 1.386 . S
H1681 C1697 0.930 . S
H1682 C1698 0.931 . S
C1683 H1671 0.929 . S
C1683 C1677 1.390 . S
C1683 C1680 1.386 . S
C1684 C1679 1.490 . S
C1684 C1686 1.395 . S
C1684 C1687 1.403 . S
H1685 C1691 0.930 . S
C1686 H1672 0.930 . S
C1686 C1684 1.395 . S
C1686 C1689 1.403 . S
C1687 C1684 1.403 . S
C1687 C1688 1.524 . S
C1687 C1691 1.400 . S
C1688 H1673 0.960 . S
C1688 H1674 0.960 . S
C1688 H1675 0.960 . S
C1688 C1687 1.524 . S
C1689 C1686 1.403 . S
C1689 C1690 1.392 . S
C1689 C1693 1.495 . S
C1690 C1689 1.392 . S
C1690 C1691 1.385 . S
C1690 C1692 1.478 . S
C1691 H1685 0.930 . S
C1691 C1687 1.400 . S
C1691 C1690 1.385 . S
C1692 C1690 1.478 . S
C1692 C1694 1.381 . S
C1692 C1698 1.383 . S
C1693 C1689 1.495 . S
C1693 H1699 0.959 . S
C1693 H1700 0.961 . S
C1693 H1701 0.960 . S
C1694 C1692 1.381 . S
C1694 C1695 1.394 . S
C1694 H1702 0.930 . S
C1695 C1694 1.394 . S
C1695 C1696 1.383 . S
C1695 H1703 0.929 . S
C1696 C1695 1.383 . S
C1696 C1697 1.377 . S
C1697 H1681 0.930 . S
C1697 C1696 1.377 . S
C1697 C1698 1.379 . S
C1698 H1682 0.931 . S
C1698 C1692 1.383 . S
C1698 C1697 1.379 . S
H1699 C1693 0.959 . S
H1700 C1693 0.961 . S
H1701 C1693 0.960 . S
H1702 C1694 0.930 . S
H1703 C1695 0.929 . S
H1704 C1712 0.929 . S
H1705 C1714 0.930 . S
H1706 C1716 0.930 . S
H1707 C1719 0.929 . S
H1708 C1722 0.930 . S
H1709 C1724 0.960 . S
H1710 C1724 0.960 . S
H1711 C1724 0.960 . S
C1712 H1704 0.929 . S
C1712 C1713 1.377 . S
C1712 C1714 1.384 . S
C1713 C1712 1.377 . S
C1713 C1719 1.390 . S
C1714 H1705 0.930 . S
C1714 C1712 1.384 . S
C1714 C1715 1.372 . S
C1715 C1714 1.372 . S
C1715 C1716 1.400 . S
C1715 C1720 1.490 . S
C1716 H1706 0.930 . S
C1716 C1715 1.400 . S
C1716 C1719 1.386 . S
H1717 C1733 0.930 . S
H1718 C1734 0.931 . S
C1719 H1707 0.929 . S
C1719 C1713 1.390 . S
C1719 C1716 1.386 . S
C1720 C1715 1.490 . S
C1720 C1722 1.395 . S
C1720 C1723 1.403 . S
H1721 C1727 0.930 . S
C1722 H1708 0.930 . S
C1722 C1720 1.395 . S
C1722 C1725 1.403 . S
C1723 C1720 1.403 . S
C1723 C1724 1.524 . S
C1723 C1727 1.400 . S
C1724 H1709 0.960 . S
C1724 H1710 0.960 . S
C1724 H1711 0.960 . S
C1724 C1723 1.524 . S
C1725 C1722 1.403 . S
C1725 C1726 1.392 . S
C1725 C1729 1.495 . S
C1726 C1725 1.392 . S
C1726 C1727 1.385 . S
C1726 C1728 1.478 . S
C1727 H1721 0.930 . S
C1727 C1723 1.400 . S
C1727 C1726 1.385 . S
C1728 C1726 1.478 . S
C1728 C1730 1.381 . S
C1728 C1734 1.383 . S
C1729 C1725 1.495 . S
C1729 H1735 0.959 . S
C1729 H1736 0.961 . S
C1729 H1737 0.960 . S
C1730 C1728 1.381 . S
C1730 C1731 1.394 . S
C1730 H1738 0.930 . S
C1731 C1730 1.394 . S
C1731 C1732 1.383 . S
C1731 H1739 0.929 . S
C1732 C1731 1.383 . S
C1732 C1733 1.377 . S
C1733 H1717 0.930 . S
C1733 C1732 1.377 . S
C1733 C1734 1.379 . S
C1734 H1718 0.931 . S
C1734 C1728 1.383 . S
C1734 C1733 1.379 . S
H1735 C1729 0.959 . S
H1736 C1729 0.961 . S
H1737 C1729 0.960 . S
H1738 C1730 0.930 . S
H1739 C1731 0.929 . S
H1740 C1748 0.929 . S
H1741 C1750 0.930 . S
H1742 C1752 0.930 . S
H1743 C1755 0.929 . S
H1744 C1758 0.930 . S
H1745 C1760 0.960 . S
H1746 C1760 0.960 . S
H1747 C1760 0.960 . S
C1748 H1740 0.929 . S
C1748 C1749 1.377 . S
C1748 C1750 1.384 . S
C1749 C1748 1.377 . S
C1749 C1755 1.390 . S
C1750 H1741 0.930 . S
C1750 C1748 1.384 . S
C1750 C1751 1.372 . S
C1751 C1750 1.372 . S
C1751 C1752 1.400 . S
C1751 C1756 1.490 . S
C1752 H1742 0.930 . S
C1752 C1751 1.400 . S
C1752 C1755 1.386 . S
H1753 C1769 0.930 . S
H1754 C1770 0.931 . S
C1755 H1743 0.929 . S
C1755 C1749 1.390 . S
C1755 C1752 1.386 . S
C1756 C1751 1.490 . S
C1756 C1758 1.395 . S
C1756 C1759 1.403 . S
H1757 C1763 0.930 . S
C1758 H1744 0.930 . S
C1758 C1756 1.395 . S
C1758 C1761 1.403 . S
C1759 C1756 1.403 . S
C1759 C1760 1.524 . S
C1759 C1763 1.400 . S
C1760 H1745 0.960 . S
C1760 H1746 0.960 . S
C1760 H1747 0.960 . S
C1760 C1759 1.524 . S
C1761 C1758 1.403 . S
C1761 C1762 1.392 . S
C1761 C1765 1.495 . S
C1762 C1761 1.392 . S
C1762 C1763 1.385 . S
C1762 C1764 1.478 . S
C1763 H1757 0.930 . S
C1763 C1759 1.400 . S
C1763 C1762 1.385 . S
C1764 C1762 1.478 . S
C1764 C1766 1.381 . S
C1764 C1770 1.383 . S
C1765 C1761 1.495 . S
C1765 H1771 0.959 . S
C1765 H1772 0.961 . S
C1765 H1773 0.960 . S
C1766 C1764 1.381 . S
C1766 C1767 1.394 . S
C1766 H1774 0.930 . S
C1767 C1766 1.394 . S
C1767 C1768 1.383 . S
C1767 H1775 0.929 . S
C1768 C1767 1.383 . S
C1768 C1769 1.377 . S
C1769 H1753 0.930 . S
C1769 C1768 1.377 . S
C1769 C1770 1.379 . S
C1770 H1754 0.931 . S
C1770 C1764 1.383 . S
C1770 C1769 1.379 . S
H1771 C1765 0.959 . S
H1772 C1765 0.961 . S
H1773 C1765 0.960 . S
H1774 C1766 0.930 . S
H1775 C1767 0.929 . S
C489 C9 0.992 . S
C508 C329 1.012 . S
C525 C49 0.992 . S
C544 C369 0.999 . S
C561 C89 0.990 . S
C580 C409 1.016 . S
C597 C449 0.979 . S
C616 C129 0.967 . S
C633 C169 0.990 . S
C652 C249 0.983 . S
C669 C289 0.992 . S
C688 C209 1.007 . S
C705 C415 1.636 . S
C724 C15 1.632 . S
C741 C455 1.641 . S
C760 C55 1.664 . S
C777 C95 1.640 . S
C796 C255 1.661 . S
C813 C295 1.642 . S
C832 C135 1.664 . S
C849 C335 1.636 . S
C868 C175 1.633 . S
C885 C215 1.642 . S
C904 C375 1.664 . S
C921 C299 4.173 . S
C940 C19 4.158 . S
C957 C339 4.173 . S
C976 C59 4.158 . S
C993 C379 4.173 . S
C1012 C99 4.161 . S
C1029 C139 4.172 . S
C1048 C419 4.162 . S
C1065 C179 4.173 . S
C1084 C459 4.158 . S
C1101 C219 4.171 . S
C1120 C259 4.167 . S
C1137 C18 0.844 . S
C1156 C138 0.914 . S
C1173 C58 0.855 . S
C1192 C178 0.805 . S
C1209 C98 0.862 . S
C1228 C218 0.821 . S
C1245 C378 0.848 . S
C1264 C258 0.818 . S
C1281 C298 0.850 . S
C1300 C418 0.915 . S
C1317 C458 0.840 . S
C1336 C338 0.892 . S
C1353 C286 0.680 . S
C1372 C6 0.716 . S
C1389 C326 0.660 . S
C1408 C46 0.626 . S
C1425 C86 0.671 . S
C1444 C366 0.688 . S
C1461 C406 0.683 . S
C1480 C126 0.730 . S
C1497 C446 0.675 . S
C1516 C166 0.688 . S
C1533 C206 0.673 . S
C1552 C246 0.699 . S
C1569 C10 4.656 . S
C1588 C410 4.648 . S
C1605 C50 4.656 . S
C1624 C450 4.650 1_556 S
C1641 C90 4.656 1_554 S
C1660 C250 4.648 . S
C1677 C130 4.655 . S
C1696 C290 4.652 . S
C1713 C170 4.656 . S
C1732 C330 4.648 1_556 S
C1749 C370 4.656 . S
C1768 C210 4.652 1_554 S
