# Generated by pormake.
# Topology pts-e, (5)-cn, num edge types: 1
# Building blocks:
#     Node 0, Type 0, BuildingBlock: BEQFEK_clean_sbu_0, # of connection points: 5
#     Node 1, Type 0, BuildingBlock: BEQFEK_clean_sbu_0, # of connection points: 5
#     Node 2, Type 0, BuildingBlock: BEQFEK_clean_sbu_0, # of connection points: 5
#     Node 3, Type 0, BuildingBlock: BEQFEK_clean_sbu_0, # of connection points: 5
#     Node 4, Type 0, BuildingBlock: BEQFEK_clean_sbu_0, # of connection points: 5
#     Node 5, Type 0, BuildingBlock: BEQFEK_clean_sbu_0, # of connection points: 5
#     Node 6, Type 0, BuildingBlock: BEQFEK_clean_sbu_0, # of connection points: 5
#     Node 7, Type 0, BuildingBlock: BEQFEK_clean_sbu_0, # of connection points: 5
#     Edge 8, Type (0, 0), BuildingBlock: MIFKUJ_clean_linker_0, # of connection points: 2
#     Edge 9, Type (0, 0), BuildingBlock: MIFKUJ_clean_linker_0, # of connection points: 2
#     Edge 10, Type (0, 0), BuildingBlock: MIFKUJ_clean_linker_0, # of connection points: 2
#     Edge 11, Type (0, 0), BuildingBlock: MIFKUJ_clean_linker_0, # of connection points: 2
#     Edge 12, Type (0, 0), BuildingBlock: MIFKUJ_clean_linker_0, # of connection points: 2
#     Edge 13, Type (0, 0), BuildingBlock: MIFKUJ_clean_linker_0, # of connection points: 2
#     Edge 14, Type (0, 0), BuildingBlock: MIFKUJ_clean_linker_0, # of connection points: 2
#     Edge 15, Type (0, 0), BuildingBlock: MIFKUJ_clean_linker_0, # of connection points: 2
#     Edge 16, Type (0, 0), BuildingBlock: MIFKUJ_clean_linker_0, # of connection points: 2
#     Edge 17, Type (0, 0), BuildingBlock: MIFKUJ_clean_linker_0, # of connection points: 2
#     Edge 18, Type (0, 0), BuildingBlock: MIFKUJ_clean_linker_0, # of connection points: 2
#     Edge 19, Type (0, 0), BuildingBlock: MIFKUJ_clean_linker_0, # of connection points: 2
#     Edge 20, Type (0, 0), BuildingBlock: MIFKUJ_clean_linker_0, # of connection points: 2
#     Edge 21, Type (0, 0), BuildingBlock: MIFKUJ_clean_linker_0, # of connection points: 2
#     Edge 22, Type (0, 0), BuildingBlock: MIFKUJ_clean_linker_0, # of connection points: 2
#     Edge 23, Type (0, 0), BuildingBlock: MIFKUJ_clean_linker_0, # of connection points: 2
#     Edge 24, Type (0, 0), BuildingBlock: MIFKUJ_clean_linker_0, # of connection points: 2
#     Edge 25, Type (0, 0), BuildingBlock: MIFKUJ_clean_linker_0, # of connection points: 2
#     Edge 26, Type (0, 0), BuildingBlock: MIFKUJ_clean_linker_0, # of connection points: 2
#     Edge 27, Type (0, 0), BuildingBlock: MIFKUJ_clean_linker_0, # of connection points: 2
# Relax obj value: 0.369
# Max RMSD: 0.219
# Mean RMSD: 0.219
data_MOF--net-pts-e--node1-BEQFEK_clean_sbu_0--edge1-MIFKUJ_clean_linker_0
_symmetry_space_group_name_H-M    P1
_symmetry_Int_Tables_number       1
_symmetry_cell_setting            triclinic
loop_
_symmetry_equiv_pos_as_xyz
'x, y, z'
_cell_length_a     44.081174
_cell_length_b     44.105772
_cell_length_c     66.507804
_cell_angle_alpha  89.986386
_cell_angle_beta   89.996377
_cell_angle_gamma 89.968772
loop_
_atom_site_label
_atom_site_type_symbol
_atom_site_fract_x
_atom_site_fract_y
_atom_site_fract_z
_atom_type_partial_charge
Co0 Co 0.21425 0.04847 0.15851 0.0
Co1 Co 0.27249 0.02371 0.17911 0.0
C2 C 0.24952 0.08761 0.18606 0.0
O3 O 0.22812 0.08415 0.17341 0.0
O4 O 0.26813 0.06618 0.19 0.0
C5 C 0.16205 0.0813 0.14217 0.0
O6 O 0.16497 0.10096 0.15688 0.0
C7 C 0.33724 0.01967 0.18857 0.0
C8 C 0.34205 0.97103 0.19597 0.0
C9 C 0.35835 0.99766 0.19378 0.0
N10 N 0.30979 0.00656 0.18771 0.0
N11 N 0.31274 0.97759 0.19238 0.0
C12 C 0.34317 0.0518 0.18251 0.0
H13 H 0.32456 0.06035 0.1728 0.0
H14 H 0.36515 0.05367 0.17447 0.0
H15 H 0.34423 0.06613 0.1962 0.0
C16 C 0.2479 0.03209 0.122 0.0
N17 N 0.24547 0.03314 0.14214 0.0
N18 N 0.27043 0.02251 0.15034 0.0
C19 C 0.28951 0.0139 0.13541 0.0
C20 C 0.27579 0.01993 0.11701 0.0
C21 C 0.2238 0.04253 0.10774 0.0
H22 H 0.21812 0.06657 0.11091 0.0
H23 H 0.23093 0.04029 0.09182 0.0
H24 H 0.20314 0.02867 0.11015 0.0
O25 O 0.19846 0.0183 0.17819 0.0
O26 O 0.24004 -0.00122 0.19173 0.0
H27 H 0.3195 0.98258 0.14991 0.0
H28 H 0.33004 0.99196 0.12432 0.0
C29 C 0.3205 0.00097 0.13857 0.0
H30 H 0.33573 0.01897 0.14432 0.0
H31 H 0.29486 0.96207 0.19248 0.0
O32 O 0.18019 0.05904 0.14095 0.0
C33 C 0.21126 7e-05 0.19038 0.0
Co34 Co 0.00177 0.20778 0.65284 0.0
Co35 Co 0.01943 0.26874 0.67298 0.0
C36 C 0.95879 0.24066 0.68047 0.0
O37 O 0.96559 0.21881 0.66877 0.0
O38 O 0.97741 0.26229 0.68369 0.0
C39 C 0.96574 0.16547 0.62926 0.0
O40 O 0.94153 0.18059 0.63491 0.0
C41 C 0.02055 0.3333 0.68411 0.0
C42 C 0.06997 0.34094 0.68684 0.0
C43 C 0.04217 0.35549 0.68774 0.0
N44 N 0.03502 0.30687 0.68113 0.0
N45 N 0.06449 0.31151 0.68307 0.0
C46 C 0.9871 0.33754 0.68148 0.0
H47 H 0.9776 0.31942 0.67179 0.0
H48 H 0.98209 0.36006 0.6748 0.0
H49 H 0.97595 0.33626 0.69642 0.0
C50 C 0.01499 0.24232 0.61601 0.0
N51 N 0.01401 0.24003 0.63617 0.0
N52 N 0.02026 0.2665 0.64421 0.0
C53 C 0.02495 0.28676 0.62922 0.0
C54 C 0.02142 0.27205 0.61083 0.0
C55 C 0.01075 0.21621 0.6019 0.0
H56 H 0.02315 0.19617 0.60768 0.0
H57 H 0.98627 0.21062 0.6009 0.0
H58 H 0.01936 0.22151 0.58662 0.0
O59 O 0.03417 0.19451 0.6715 0.0
O60 O 0.04671 0.238 0.68588 0.0
H61 H 0.05144 0.32297 0.64136 0.0
H62 H 0.03257 0.33229 0.61801 0.0
C63 C 0.03043 0.31987 0.63243 0.0
H64 H 0.01129 0.32962 0.64108 0.0
H65 H 0.08093 0.29475 0.6811 0.0
O66 O 0.99176 0.17309 0.63571 0.0
C67 C 0.04994 0.20941 0.6841 0.0
Co68 Co 0.83235 0.99652 0.15083 0.0
Co69 Co 0.77056 0.01136 0.17131 0.0
C70 C 0.80182 0.95046 0.17625 0.0
O71 O 0.8233 0.95776 0.16437 0.0
O72 O 0.78037 0.96899 0.18028 0.0
C73 C 0.88316 0.96992 0.12823 0.0
O74 O 0.87524 0.94289 0.13466 0.0
C75 C 0.70513 0.00741 0.18158 0.0
C76 C 0.69562 0.05547 0.18859 0.0
C77 C 0.68198 0.02729 0.18696 0.0
N78 N 0.73101 0.02336 0.17978 0.0
N79 N 0.72515 0.05198 0.18417 0.0
C80 C 0.70312 0.97376 0.1789 0.0
H81 H 0.72484 0.96281 0.18292 0.0
H82 H 0.69824 0.96856 0.1629 0.0
H83 H 0.68482 0.96408 0.18839 0.0
C84 C 0.79775 0.01233 0.11445 0.0
N85 N 0.79979 0.00922 0.13453 0.0
N86 N 0.7733 0.01511 0.14273 0.0
C87 C 0.7534 0.02201 0.12791 0.0
C88 C 0.7684 0.02058 0.10956 0.0
C89 C 0.8231 0.00595 0.10009 0.0
H90 H 0.84198 0.02193 0.10306 0.0
H91 H 0.83154 0.98255 0.10253 0.0
H92 H 0.81586 0.00834 0.08419 0.0
O93 O 0.84322 0.02673 0.17169 0.0
O94 O 0.79925 0.03927 0.18545 0.0
H95 H 0.71886 0.0487 0.14191 0.0
H96 H 0.70937 0.03584 0.11685 0.0
C97 C 0.72071 0.02959 0.13116 0.0
H98 H 0.70901 0.00973 0.1378 0.0
H99 H 0.74128 0.06929 0.1838 0.0
O100 O 0.86833 0.99313 0.13375 0.0
C101 C 0.82796 0.04202 0.18437 0.0
Co102 Co 0.04777 0.82584 0.65292 0.0
Co103 Co 0.02919 0.7662 0.67448 0.0
C104 C 0.09003 0.79728 0.68147 0.0
O105 O 0.08469 0.81752 0.66828 0.0
O106 O 0.07065 0.77657 0.68548 0.0
C107 C 0.06331 0.88589 0.64113 0.0
O108 O 0.07487 0.88777 0.6593 0.0
C109 C 0.03149 0.70108 0.68442 0.0
C110 C 0.98442 0.6934 0.6947 0.0
C111 C 0.01166 0.67871 0.69112 0.0
N112 N 0.01637 0.72753 0.6838 0.0
N113 N 0.98835 0.72281 0.69013 0.0
C114 C 0.06447 0.69788 0.67946 0.0
H115 H 0.06704 0.69211 0.66332 0.0
H116 H 0.07502 0.67964 0.68859 0.0
H117 H 0.07656 0.7195 0.68215 0.0
C118 C 0.03608 0.7892 0.61698 0.0
N119 N 0.03689 0.79238 0.63707 0.0
N120 N 0.02797 0.76708 0.64567 0.0
C121 C 0.02029 0.74711 0.63107 0.0
C122 C 0.02562 0.76045 0.61245 0.0
C123 C 0.04417 0.81376 0.60239 0.0
H124 H 0.02741 0.83242 0.60373 0.0
H125 H 0.06689 0.82297 0.60614 0.0
H126 H 0.04422 0.80554 0.58663 0.0
O127 O 0.01555 0.83831 0.67211 0.0
O128 O 0.00031 0.79565 0.6864 0.0
H129 H 0.99049 0.71694 0.64681 0.0
H130 H 0.99766 0.70647 0.62088 0.0
C131 C 0.00784 0.71607 0.63475 0.0
H132 H 0.02642 0.70094 0.63975 0.0
H133 H 0.97173 0.7396 0.69097 0.0
O134 O 0.05276 0.86075 0.63517 0.0
C135 C -0.00152 0.82427 0.6844 0.0
Co136 Co 0.21324 0.98212 0.8585 0.0
Co137 Co 0.27507 0.00593 0.84258 0.0
C138 C 0.25019 0.94636 0.82898 0.0
O139 O 0.2275 0.94962 0.84059 0.0
O140 O 0.27098 0.96641 0.82795 0.0
C141 C 0.15859 0.94902 0.86463 0.0
O142 O 0.16465 0.93774 0.8468 0.0
C143 C 0.34014 0.01007 0.8338 0.0
C144 C 0.34681 0.05975 0.83317 0.0
C145 C 0.36198 0.0324 0.83117 0.0
N146 N 0.31336 0.02369 0.83713 0.0
N147 N 0.31745 0.05335 0.8366 0.0
C148 C 0.34476 0.9765 0.83492 0.0
H149 H 0.32692 0.96594 0.84438 0.0
H150 H 0.36747 0.97105 0.84116 0.0
H151 H 0.34312 0.96682 0.81956 0.0
C152 C 0.2429 0.9916 0.89762 0.0
N153 N 0.24305 0.99263 0.87741 0.0
N154 N 0.26966 0.00202 0.87107 0.0
C155 C 0.28752 0.0072 0.88724 0.0
C156 C 0.27117 0.00052 0.90462 0.0
C157 C 0.21553 0.98375 0.90991 0.0
H158 H 0.1956 0.99651 0.90421 0.0
H159 H 0.21065 0.95919 0.90828 0.0
H160 H 0.21876 0.98921 0.92605 0.0
O161 O 0.20051 0.01731 0.84175 0.0
O162 O 0.24478 0.03391 0.83049 0.0
H163 H 0.32094 0.03999 0.87902 0.0
H164 H 0.33075 0.01797 0.90105 0.0
C165 C 0.31989 0.01719 0.88602 0.0
H166 H 0.33271 0.00129 0.87632 0.0
H167 H 0.30022 0.06924 0.83891 0.0
O168 O 0.17699 0.96762 0.87255 0.0
C169 C 0.21597 0.0357 0.83112 0.0
Co170 Co 0.05645 0.21104 0.35699 0.0
Co171 Co 0.03371 0.27106 0.33783 0.0
C172 C 0.09559 0.24419 0.32856 0.0
O173 O 0.09202 0.22305 0.34134 0.0
O174 O 0.07475 0.26372 0.32537 0.0
C175 C 0.08369 0.15443 0.36676 0.0
O176 O 0.09839 0.15833 0.34977 0.0
C177 C 0.03347 0.33663 0.32935 0.0
C178 C 0.9851 0.34409 0.32206 0.0
C179 C 0.01251 0.359 0.32445 0.0
N180 N 0.01888 0.3099 0.33017 0.0
N181 N 0.99007 0.31449 0.32562 0.0
C182 C 0.06693 0.34024 0.33246 0.0
H183 H 0.07916 0.31955 0.32773 0.0
H184 H 0.07163 0.34394 0.34865 0.0
H185 H 0.07574 0.35987 0.32381 0.0
C186 C 0.04269 0.24376 0.39442 0.0
N187 N 0.04376 0.24231 0.37423 0.0
N188 N 0.03458 0.26822 0.36656 0.0
C189 C 0.0273 0.28711 0.38185 0.0
C190 C 0.03227 0.27215 0.39995 0.0
C191 C 0.05229 0.21857 0.40809 0.0
H192 H 0.03719 0.19877 0.40573 0.0
H193 H 0.07575 0.21151 0.40426 0.0
H194 H 0.05142 0.22542 0.42414 0.0
O195 O 0.02401 0.19795 0.33812 0.0
O196 O 0.00498 0.24088 0.3262 0.0
H197 H 0.99615 0.3182 0.36823 0.0
H198 H 0.00651 0.32771 0.39381 0.0
C199 C 0.01492 0.31845 0.37932 0.0
H200 H 0.03303 0.3335 0.37353 0.0
H201 H 0.97365 0.29747 0.32532 0.0
O202 O 0.06608 0.17515 0.37297 0.0
C203 C 0.005 0.21205 0.32716 0.0
Co204 Co 0.83157 0.06153 0.85301 0.0
Co205 Co 0.77198 0.03454 0.83581 0.0
C206 C 0.79576 0.09621 0.82339 0.0
O207 O 0.81721 0.09505 0.83614 0.0
O208 O 0.77728 0.07419 0.82116 0.0
C209 C 0.89013 0.08459 0.85824 0.0
O210 O 0.88734 0.08973 0.83886 0.0
C211 C 0.70686 0.03038 0.82618 0.0
C212 C 0.70056 0.98067 0.82493 0.0
C213 C 0.68514 0.00794 0.8235 0.0
N214 N 0.73376 0.01689 0.82945 0.0
N215 N 0.72988 0.98722 0.82848 0.0
C216 C 0.7026 0.06402 0.82495 0.0
H217 H 0.70381 0.07389 0.84027 0.0
H218 H 0.68058 0.07006 0.81793 0.0
H219 H 0.72102 0.07419 0.81587 0.0
C220 C 0.80089 0.04956 0.89148 0.0
N221 N 0.80152 0.04905 0.87127 0.0
N222 N 0.77556 0.03877 0.86439 0.0
C223 C 0.75724 0.03266 0.88021 0.0
C224 C 0.77267 0.03953 0.89794 0.0
C225 C 0.82769 0.05766 0.90424 0.0
H226 H 0.84808 0.04562 0.8986 0.0
H227 H 0.83196 0.08239 0.90309 0.0
H228 H 0.82426 0.05141 0.92023 0.0
O229 O 0.84567 0.02788 0.83545 0.0
O230 O 0.80311 0.00595 0.82528 0.0
H231 H 0.72526 -0.00124 0.87146 0.0
H232 H 0.71352 0.02091 0.89302 0.0
C233 C 0.72526 0.0217 0.87829 0.0
H234 H 0.71254 0.03705 0.86816 0.0
H235 H 0.7472 0.97138 0.83061 0.0
O236 O 0.86742 0.07463 0.86787 0.0
C237 C 0.83196 0.00716 0.82573 0.0
Co238 Co 0.97045 0.826 0.35482 0.0
Co239 Co 0.00232 0.76837 0.33874 0.0
C240 C 0.94049 0.78829 0.32395 0.0
O241 O 0.93945 0.80969 0.33674 0.0
O242 O 0.96357 0.77088 0.32261 0.0
C243 C 0.94286 0.88234 0.35845 0.0
O244 O 0.93868 0.87769 0.33916 0.0
C245 C 0.01064 0.70384 0.33036 0.0
C246 C 0.06065 0.70006 0.32964 0.0
C247 C 0.03421 0.68325 0.32812 0.0
N248 N 0.02266 0.73148 0.33308 0.0
N249 N 0.05253 0.72916 0.33242 0.0
C250 C 0.97743 0.69724 0.33199 0.0
H251 H 0.96584 0.71532 0.34071 0.0
H252 H 0.97359 0.67494 0.33929 0.0
H253 H 0.96745 0.6966 0.31668 0.0
C254 C 0.9814 0.7965 0.39379 0.0
N255 N 0.98323 0.79696 0.37361 0.0
N256 N 0.99611 0.77189 0.36721 0.0
C257 C 0.00292 0.75446 0.38335 0.0
C258 C 0.99358 0.76944 0.40074 0.0
C259 C 0.96995 0.82255 0.40609 0.0
H260 H 0.98148 0.84367 0.40124 0.0
H261 H 0.94527 0.82541 0.40342 0.0
H262 H 0.97411 0.81927 0.42238 0.0
O263 O 0.00444 0.84208 0.33828 0.0
O264 O 0.0294 0.80097 0.32866 0.0
H265 H 0.03971 0.72568 0.37471 0.0
H266 H 0.01992 0.71319 0.39708 0.0
C267 C 0.01721 0.72375 0.38206 0.0
H268 H 0.00284 0.70882 0.37266 0.0
H269 H 0.06736 0.74733 0.33442 0.0
O270 O 0.9541 0.86114 0.36893 0.0
C271 C 0.02641 0.82966 0.32899 0.0
H272 H 0.27963 0.96839 0.09473 0.0
H273 H 0.28829 0.96518 0.05833 0.0
H274 H 0.30602 0.06139 0.05652 0.0
H275 H 0.29666 0.06452 0.09281 0.0
H276 H 0.26502 0.04716 0.02966 0.0
H277 H 0.36247 0.00748 0.04729 0.0
H278 H 0.39857 0.9737 0.06462 0.0
H279 H 0.35833 0.89635 0.03592 0.0
H280 H 0.32169 0.92963 0.01862 0.0
H281 H 0.29428 0.04908 0.92496 0.0
H282 H 0.3047 0.05252 0.9612 0.0
H283 H 0.27978 0.95854 0.96828 0.0
H284 H 0.26972 0.95506 0.9321 0.0
H285 H 0.32863 0.97363 0.99212 0.0
H286 H 0.22892 0.01213 0.97723 0.0
H287 H 0.19206 0.04504 0.95985 0.0
H288 H 0.23607 0.12396 0.98388 0.0
H289 H 0.27354 0.09149 1.00114 0.0
C290 C 0.28636 0.98856 0.08658 0.0
C291 C 0.28794 0.0166 0.09645 0.0
C292 C 0.29126 0.98679 0.0658 0.0
C293 C 0.29796 0.01305 0.05461 0.0
C294 C 0.3009 0.04083 0.06476 0.0
C295 C 0.29585 0.04259 0.08549 0.0
C296 C 0.29894 0.01212 0.03221 0.0
C297 C 0.27946 0.0315 0.02149 0.0
C298 C 0.31708 0.99113 0.02146 0.0
C299 C 0.33916 0.97105 0.03178 0.0
C300 C 0.36116 0.98324 0.04478 0.0
C301 C 0.38175 0.96419 0.05459 0.0
C302 C 0.38071 0.93289 0.05141 0.0
C303 C 0.35911 0.9206 0.03838 0.0
C304 C 0.33844 0.93955 0.02855 0.0
C305 C 0.29167 0.02907 0.93425 0.0
C306 C 0.2811 0.00186 0.92587 0.0
C307 C 0.29746 0.03106 0.95492 0.0
C308 C 0.29271 0.00585 0.9675 0.0
C309 C 0.28362 0.97825 0.9589 0.0
C310 C 0.27774 0.97632 0.93829 0.0
C311 C 0.29487 0.00872 0.98973 0.0
C312 C 0.31465 0.98959 1.00038 0.0
C313 C 0.27694 0.02985 1.00048 0.0
C314 C 0.25424 0.0494 0.99029 0.0
C315 C 0.23089 0.03651 0.97869 0.0
C316 C 0.20986 0.05508 0.96887 0.0
C317 C 0.21177 0.08657 0.97072 0.0
C318 C 0.23466 0.09956 0.98243 0.0
C319 C 0.25579 0.08108 0.99223 0.0
H320 H 0.19547 0.10092 0.96312 0.0
H321 H 0.39667 0.91818 0.05901 0.0
H322 H 0.98845 0.25672 0.4266 0.0
H323 H 0.98633 0.26955 0.46249 0.0
H324 H 0.06692 0.32413 0.45599 0.0
H325 H 0.06861 0.31171 0.41991 0.0
H326 H 0.06981 0.27917 0.48678 0.0
H327 H 0.00461 0.3598 0.46565 0.0
H328 H 0.96145 0.38259 0.44755 0.0
H329 H 0.89943 0.32731 0.48121 0.0
H330 H 0.94225 0.30383 0.49931 0.0
H331 H 0.06571 0.30481 0.59168 0.0
H332 H 0.0675 0.31802 0.55578 0.0
H333 H 0.97851 0.27909 0.54766 0.0
H334 H 0.97625 0.26726 0.58348 0.0
H335 H 0.98361 0.32531 0.52373 0.0
H336 H 0.04544 0.23829 0.53952 0.0
H337 H 0.08643 0.21074 0.55695 0.0
H338 H 0.15218 0.27245 0.53256 0.0
H339 H 0.11146 0.30063 0.5152 0.0
C340 C 0.00518 0.27208 0.4328 0.0
C341 C 0.0285 0.28355 0.42065 0.0
C342 C 0.00401 0.27938 0.45324 0.0
C343 C 0.02639 0.29792 0.46188 0.0
C344 C 0.04936 0.30993 0.44959 0.0
C345 C 0.05024 0.30299 0.42905 0.0
C346 C 0.02709 0.30244 0.484 0.0
C347 C 0.05133 0.28994 0.49486 0.0
C348 C 0.00255 0.31569 0.49452 0.0
C349 C 0.9767 0.32991 0.48375 0.0
C350 C 0.98179 0.35233 0.46909 0.0
C351 C 0.95738 0.3654 0.45884 0.0
C352 C 0.92772 0.35637 0.4632 0.0
C353 C 0.92242 0.33428 0.47785 0.0
C354 C 0.94675 0.32111 0.48813 0.0
C355 C 0.04627 0.29993 0.58226 0.0
C356 C 0.02098 0.28478 0.59021 0.0
C357 C 0.04737 0.30719 0.56174 0.0
C358 C 0.02339 0.29895 0.54886 0.0
C359 C 0.99735 0.28561 0.55717 0.0
C360 C 0.99614 0.27868 0.57763 0.0
C361 C 0.02614 0.30157 0.52658 0.0
C362 C 0.00247 0.31521 0.51567 0.0
C363 C 0.0509 0.28875 0.51596 0.0
C364 C 0.0754 0.27177 0.52628 0.0
C365 C 0.06862 0.2461 0.53799 0.0
C366 C 0.0918 0.23036 0.54784 0.0
C367 C 0.12188 0.23989 0.54591 0.0
C368 C 0.12886 0.26514 0.53408 0.0
C369 C 0.10574 0.281 0.52423 0.0
H370 H 0.1398 0.22768 0.55354 0.0
H371 H 0.90885 0.36652 0.45525 0.0
H372 H 0.77834 0.06805 0.08467 0.0
H373 H 0.76743 0.07056 0.04854 0.0
H374 H 0.72295 0.98358 0.05182 0.0
H375 H 0.73367 0.98132 0.08811 0.0
H376 H 0.7682 0.98634 0.0227 0.0
H377 H 0.68126 0.04451 0.0418 0.0
H378 H 0.65385 0.08521 0.05958 0.0
H379 H 0.70666 0.15228 0.02854 0.0
H380 H 0.73472 0.11197 0.01078 0.0
H381 H 0.74633 0.99126 0.91718 0.0
H382 H 0.73383 0.98721 0.95305 0.0
H383 H 0.76436 0.07917 0.96218 0.0
H384 H 0.77517 0.08368 0.92628 0.0
H385 H 0.71825 0.06984 0.98525 0.0
H386 H 0.81035 0.01487 0.97102 0.0
H387 H 0.84184 0.9763 0.95412 0.0
H388 H 0.78412 0.90582 0.97691 0.0
H389 H 0.75203 0.94405 0.99373 0.0
C390 C 0.76537 0.05 0.07773 0.0
C391 C 0.75638 0.02473 0.08904 0.0
C392 C 0.75921 0.05137 0.05713 0.0
C393 C 0.74423 0.02731 0.04749 0.0
C394 C 0.73439 0.00244 0.05897 0.0
C395 C 0.74028 0.00125 0.07966 0.0
C396 C 0.74152 0.02706 0.02521 0.0
C397 C 0.75665 0.0042 0.01449 0.0
C398 C 0.72724 0.05084 0.01452 0.0
C399 C 0.71022 0.07517 0.02504 0.0
C400 C 0.68718 0.06792 0.03886 0.0
C401 C 0.6715 0.09093 0.04892 0.0
C402 C 0.67854 0.12131 0.04521 0.0
C403 C 0.70123 0.12874 0.0314 0.0
C404 C 0.717 0.10582 0.02131 0.0
C405 C 0.74964 0.01078 0.92681 0.0
C406 C 0.76193 0.0377 0.91905 0.0
C407 C 0.74282 0.00837 0.94734 0.0
C408 C 0.74874 0.03268 0.96049 0.0
C409 C 0.75966 0.06003 0.95246 0.0
C410 C 0.76606 0.06254 0.93196 0.0
C411 C 0.74539 0.02937 0.9827 0.0
C412 C 0.72927 0.05162 0.99342 0.0
C413 C 0.75928 0.00532 0.99345 0.0
C414 C 0.77859 0.98232 0.98341 0.0
C415 C 0.80425 0.99116 0.9723 0.0
C416 C 0.82223 0.96937 0.96275 0.0
C417 C 0.81493 0.93863 0.96438 0.0
C418 C 0.7897 0.92963 0.97562 0.0
C419 C 0.77161 0.95135 0.98516 0.0
H420 H 0.82888 0.92179 0.95699 0.0
H421 H 0.66638 0.13908 0.05302 0.0
H422 H 0.0441 0.75161 0.42153 0.0
H423 H 0.04794 0.74122 0.45774 0.0
H424 H 0.95157 0.75561 0.46399 0.0
H425 H 0.94777 0.76578 0.42786 0.0
H426 H 0.98341 0.78872 0.49081 0.0
H427 H 0.98177 0.6852 0.46862 0.0
H428 H -0.00139 0.64118 0.44868 0.0
H429 H 0.08719 0.64695 0.47526 0.0
H430 H 0.07101 0.69131 0.49515 0.0
H431 H 0.9718 0.75323 0.59319 0.0
H432 H 0.96454 0.74573 0.5569 0.0
H433 H 0.0612 0.73534 0.54936 0.0
H434 H 0.06834 0.74283 0.58562 0.0
H435 H 0.02829 0.69788 0.52332 0.0
H436 H 0.03251 0.80248 0.54303 0.0
H437 H 0.01783 0.84759 0.56267 0.0
H438 H 0.92675 0.84085 0.54023 0.0
H439 H 0.94082 0.79545 0.52062 0.0
C440 C 0.02371 0.75185 0.43061 0.0
C441 C 0.99565 0.75948 0.42199 0.0
C442 C 0.02589 0.74597 0.45128 0.0
C443 C 1e-05 0.74759 0.46361 0.0
C444 C 0.97185 0.75431 0.45482 0.0
C445 C 0.96968 0.76006 0.43421 0.0
C446 C 0.00248 0.74436 0.48583 0.0
C447 C 0.99271 0.76859 0.4979 0.0
C448 C 0.0155 0.71852 0.4951 0.0
C449 C 0.02525 0.69177 0.48323 0.0
C450 C 0.00492 0.67724 0.47009 0.0
C451 C 0.01433 0.6522 0.45882 0.0
C452 C 0.04398 0.64132 0.46067 0.0
C453 C 0.06425 0.65542 0.47383 0.0
C454 C 0.05496 0.6805 0.48512 0.0
C455 C 0.99128 0.74825 0.58382 0.0
C456 C 0.02056 0.74834 0.59204 0.0
C457 C 0.9872 0.7442 0.56312 0.0
C458 C 0.01239 0.74034 0.55039 0.0
C459 C 0.04146 0.7382 0.55888 0.0
C460 C 0.04553 0.7424 0.57955 0.0
C461 C 0.00883 0.74205 0.52818 0.0
C462 C 0.01864 0.71778 0.51617 0.0
C463 C 0.99612 0.76798 0.51886 0.0
C464 C 0.98762 0.79536 0.53054 0.0
C465 C 0.00929 0.81047 0.54241 0.0
C466 C 0.0011 0.83611 0.55352 0.0
C467 C 0.97135 0.847 0.55276 0.0
C468 C 0.94977 0.83234 0.54084 0.0
C469 C 0.95784 0.80667 0.52971 0.0
H470 H 0.96505 0.86685 0.56138 0.0
H471 H 0.05122 0.62192 0.45193 0.0
H472 H 0.10534 0.2745 0.29308 0.0
H473 H 0.14347 0.26194 0.26765 0.0
H474 H 0.18439 0.19768 0.30832 0.0
H475 H 0.1468 0.21029 0.33384 0.0
H476 H 0.22704 0.22331 0.28299 0.0
H477 H 0.12878 0.17445 0.27886 0.0
H478 H 0.07292 0.17404 0.27661 0.0
H479 H 0.07717 0.22373 0.22114 0.0
H480 H 0.1331 0.22483 0.22325 0.0
H481 H 0.26877 0.09426 0.22487 0.0
H482 H 0.25393 0.13476 0.2479 0.0
H483 H 0.2139 0.18414 0.19854 0.0
H484 H 0.22775 0.14319 0.17562 0.0
H485 H 0.17358 0.17465 0.22587 0.0
H486 H 0.27482 0.21286 0.22747 0.0
H487 H 0.33047 0.21034 0.23077 0.0
H488 H 0.32139 0.17776 0.29131 0.0
H489 H 0.26567 0.17967 0.2883 0.0
C490 C 0.12305 0.25845 0.29686 0.0
C491 C 0.12261 0.2429 0.31533 0.0
C492 C 0.14481 0.25126 0.28229 0.0
C493 C 0.16636 0.22842 0.28597 0.0
C494 C 0.16791 0.21527 0.30513 0.0
C495 C 0.14621 0.22239 0.31967 0.0
C496 C 0.18374 0.21458 0.26921 0.0
C497 C 0.21549 0.21274 0.27041 0.0
C498 C 0.16862 0.20101 0.25275 0.0
C499 C 0.13505 0.20007 0.25134 0.0
C500 C 0.11778 0.18548 0.26626 0.0
C501 C 0.08612 0.1851 0.26501 0.0
C502 C 0.0715 0.19894 0.24878 0.0
C503 C 0.08853 0.21309 0.23373 0.0
C504 C 0.1202 0.21361 0.23495 0.0
C505 C 0.25781 0.11426 0.21881 0.0
C506 C 0.24911 0.11541 0.19849 0.0
C507 C 0.24935 0.1375 0.23201 0.0
C508 C 0.23262 0.16254 0.22501 0.0
C509 C 0.22658 0.16499 0.20434 0.0
C510 C 0.2346 0.1416 0.19123 0.0
C511 C 0.21721 0.18325 0.23943 0.0
C512 C 0.18553 0.18601 0.23798 0.0
C513 C 0.23249 0.1973 0.25569 0.0
C514 C 0.26602 0.19626 0.25761 0.0
C515 C 0.28467 0.20496 0.24145 0.0
C516 C 0.31624 0.20367 0.24328 0.0
C517 C 0.32946 0.19385 0.26123 0.0
C518 C 0.31112 0.18536 0.27741 0.0
C519 C 0.27954 0.1866 0.27567 0.0
H520 H 0.3539 0.19286 0.26261 0.0
H521 H 0.04699 0.19862 0.24783 0.0
H522 H 0.80885 0.15533 0.83111 0.0
H523 H 0.82169 0.1943 0.80641 0.0
H524 H 0.79938 0.1321 0.75849 0.0
H525 H 0.78463 0.09404 0.7832 0.0
H526 H 0.8667 0.19098 0.7845 0.0
H527 H 0.79275 0.1639 0.71365 0.0
H528 H 0.73945 0.15213 0.70562 0.0
H529 H 0.71055 0.19553 0.76013 0.0
H530 H 0.76363 0.20797 0.76837 0.0
H531 H 0.91452 0.19767 0.67724 0.0
H532 H 0.87383 0.18743 0.70095 0.0
H533 H 0.89655 0.26853 0.73388 0.0
H534 H 0.93819 0.2786 0.71041 0.0
H535 H 0.82325 0.21273 0.71726 0.0
H536 H 0.8938 0.25075 0.78386 0.0
H537 H 0.94661 0.26491 0.79188 0.0
H538 H 0.97928 0.20232 0.74738 0.0
H539 H 0.92673 0.18735 0.73946 0.0
C540 C 0.80552 0.15053 0.81529 0.0
C541 C 0.79576 0.12174 0.80904 0.0
C542 C 0.81303 0.17273 0.80115 0.0
C543 C 0.81171 0.16633 0.78046 0.0
C544 C 0.80003 0.13813 0.77426 0.0
C545 C 0.79168 0.11621 0.78843 0.0
C546 C 0.82695 0.18681 0.76571 0.0
C547 C 0.85663 0.19644 0.77006 0.0
C548 C 0.81433 0.19381 0.74665 0.0
C549 C 0.78226 0.18672 0.74168 0.0
C550 C 0.77503 0.17112 0.72387 0.0
C551 C 0.74485 0.16428 0.71929 0.0
C552 C 0.72164 0.17302 0.73237 0.0
C553 C 0.72856 0.18869 0.75004 0.0
C554 C 0.75871 0.1956 0.75469 0.0
C555 C 0.91062 0.21374 0.68928 0.0
C556 C 0.93019 0.23858 0.69219 0.0
C557 C 0.88708 0.20793 0.70277 0.0
C558 C 0.8825 0.22683 0.71944 0.0
C559 C 0.90001 0.25334 0.72129 0.0
C560 C 0.92381 0.25908 0.70785 0.0
C561 C 0.86277 0.21605 0.73611 0.0
C562 C 0.83256 0.20803 0.73204 0.0
C563 C 0.87465 0.21076 0.75556 0.0
C564 C 0.90639 0.21827 0.7609 0.0
C565 C 0.9123 0.23987 0.77592 0.0
C566 C 0.94217 0.24802 0.78045 0.0
C567 C 0.96628 0.23463 0.7701 0.0
C568 C 0.9606 0.21273 0.75539 0.0
C569 C 0.93079 0.20435 0.75089 0.0
H570 H 0.98934 0.24127 0.77349 0.0
H571 H 0.69829 0.16768 0.72881 0.0
H572 H 0.84394 0.90535 0.17154 0.0
H573 H 0.85493 0.8643 0.19495 0.0
H574 H 0.77668 0.88889 0.2303 0.0
H575 H 0.76562 0.93033 0.20703 0.0
H576 H 0.82791 0.89152 0.25158 0.0
H577 H 0.78199 0.81846 0.20859 0.0
H578 H 0.77167 0.79186 0.17673 0.0
H579 H 0.86493 0.76425 0.17316 0.0
H580 H 0.87595 0.79106 0.20485 0.0
H581 H 0.88046 0.80073 0.32857 0.0
H582 H 0.84502 0.81495 0.30194 0.0
H583 H 0.91243 0.79258 0.25728 0.0
H584 H 0.94737 0.77682 0.28392 0.0
H585 H 0.85815 0.78422 0.24161 0.0
H586 H 0.90661 0.86909 0.2754 0.0
H587 H 0.92179 0.90132 0.30397 0.0
H588 H 0.82867 0.909 0.32233 0.0
H589 H 0.81293 0.87747 0.29346 0.0
C590 C 0.82853 0.90158 0.18398 0.0
C591 C 0.80419 0.92154 0.18759 0.0
C592 C 0.83474 0.87786 0.1973 0.0
C593 C 0.81666 0.87348 0.21442 0.0
C594 C 0.79094 0.89184 0.21718 0.0
C595 C 0.78466 0.91556 0.20384 0.0
C596 C 0.82769 0.85379 0.23103 0.0
C597 C 0.8336 0.86777 0.24954 0.0
C598 C 0.83635 0.82317 0.22814 0.0
C599 C 0.82983 0.80695 0.20907 0.0
C600 C 0.80037 0.80692 0.20094 0.0
C601 C 0.79438 0.79176 0.18292 0.0
C602 C 0.81764 0.77641 0.17291 0.0
C603 C 0.84693 0.77615 0.18093 0.0
C604 C 0.85305 0.79128 0.19895 0.0
C605 C 0.88726 0.79775 0.31304 0.0
C606 C 0.91671 0.7879 0.3083 0.0
C607 C 0.86712 0.80618 0.29782 0.0
C608 C 0.87641 0.80588 0.27761 0.0
C609 C 0.90477 0.79326 0.27276 0.0
C610 C 0.92473 0.78413 0.288 0.0
C611 C 0.85841 0.82214 0.26201 0.0
C612 C 0.85152 0.80769 0.24374 0.0
C613 C 0.84933 0.85266 0.2648 0.0
C614 C 0.85869 0.87065 0.28252 0.0
C615 C 0.88944 0.87749 0.28564 0.0
C616 C 0.89811 0.89573 0.30182 0.0
C617 C 0.87624 0.90693 0.31511 0.0
C618 C 0.8456 0.90019 0.31209 0.0
C619 C 0.83677 0.88231 0.29575 0.0
H620 H 0.88298 0.92096 0.32768 0.0
H621 H 0.81295 0.76469 0.15896 0.0
H622 H 0.22197 0.89182 0.83311 0.0
H623 H 0.20743 0.85747 0.80599 0.0
H624 H 0.25902 0.91098 0.76387 0.0
H625 H 0.27404 0.94533 0.79105 0.0
H626 H 0.19657 0.90678 0.75541 0.0
H627 H 0.2791 0.83991 0.77073 0.0
H628 H 0.31144 0.80868 0.79277 0.0
H629 H 0.23485 0.75328 0.80824 0.0
H630 H 0.20192 0.78445 0.78651 0.0
H631 H 0.14117 0.82941 0.67276 0.0
H632 H 0.18001 0.846 0.69643 0.0
H633 H 0.13904 0.79169 0.74301 0.0
H634 H 0.10027 0.77446 0.71924 0.0
H635 H 0.2011 0.79496 0.74762 0.0
H636 H 0.11779 0.86297 0.73861 0.0
H637 H 0.08136 0.89411 0.71949 0.0
H638 H 0.15455 0.94778 0.69607 0.0
H639 H 0.19149 0.91661 0.71483 0.0
C640 C 0.23115 0.89565 0.81821 0.0
C641 C 0.24899 0.92137 0.81418 0.0
C642 C 0.22284 0.87595 0.80273 0.0
C643 C 0.23204 0.88175 0.78291 0.0
C644 C 0.25175 0.9061 0.77909 0.0
C645 C 0.26046 0.92559 0.79466 0.0
C646 C 0.21717 0.86551 0.76607 0.0
C647 C 0.19823 0.88242 0.75336 0.0
C648 C 0.2182 0.83358 0.76407 0.0
C649 C 0.23798 0.81467 0.77708 0.0
C650 C 0.26908 0.82122 0.77895 0.0
C651 C 0.28754 0.80349 0.79136 0.0
C652 C 0.2752 0.77905 0.80192 0.0
C653 C 0.24438 0.77223 0.80005 0.0
C654 C 0.22582 0.78989 0.78766 0.0
C655 C 0.14086 0.82031 0.68789 0.0
C656 C 0.11733 0.801 0.69421 0.0
C657 C 0.16307 0.82987 0.70141 0.0
C658 C 0.16198 0.82066 0.7216 0.0
C659 C 0.14021 0.79919 0.72752 0.0
C660 C 0.11806 0.78936 0.7139 0.0
C661 C 0.18089 0.83635 0.73686 0.0
C662 C 0.2001 0.81938 0.7494 0.0
C663 C 0.17959 0.86826 0.73913 0.0
C664 C 0.15744 0.88718 0.7279 0.0
C665 C 0.12614 0.88123 0.72924 0.0
C666 C 0.1054 0.89891 0.71849 0.0
C667 C 0.11565 0.92282 0.70649 0.0
C668 C 0.14666 0.92918 0.70531 0.0
C669 C 0.16751 0.91151 0.716 0.0
H670 H 0.09956 0.93647 0.69817 0.0
H671 H 0.28953 0.76536 0.81153 0.0
H672 H -0.00063 0.88526 0.69139 0.0
H673 H 0.96993 0.91358 0.7162 0.0
H674 H 0.92317 0.83189 0.73338 0.0
H675 H 0.95258 0.8031 0.70855 0.0
H676 H 0.88492 0.88416 0.72951 0.0
H677 H 0.97936 0.85547 0.76191 0.0
H678 H 0.03521 0.85231 0.76313 0.0
H679 H 0.04131 0.94936 0.7602 0.0
H680 H 0.9855 0.95308 0.75868 0.0
H681 H 0.81758 0.94876 0.8157 0.0
H682 H 0.84569 0.9147 0.79341 0.0
H683 H 0.91353 0.98403 0.78449 0.0
H684 H 0.88663 0.01711 0.80789 0.0
H685 H 0.94115 0.93502 0.78463 0.0
H686 H 0.85169 0.96695 0.74964 0.0
H687 H 0.79688 0.97472 0.74422 0.0
H688 H 0.78206 0.87862 0.74747 0.0
H689 H 0.83676 0.87032 0.75316 0.0
C690 C 0.98249 0.87331 0.70018 0.0
C691 C 0.97833 0.84187 0.69795 0.0
C692 C 0.96584 0.88956 0.71443 0.0
C693 C 0.94464 0.87482 0.72674 0.0
C694 C 0.9395 0.84368 0.72406 0.0
C695 C 0.95636 0.82728 0.70989 0.0
C696 C 0.92867 0.89188 0.74282 0.0
C697 C 0.89707 0.8949 0.74178 0.0
C698 C 0.94474 0.90673 0.75838 0.0
C699 C 0.97825 0.90454 0.76009 0.0
C700 C 0.99262 0.87613 0.76148 0.0
C701 C 0.02427 0.87424 0.76221 0.0
C702 C 0.0418 0.90061 0.76172 0.0
C703 C 0.02771 0.92895 0.76059 0.0
C704 C 0.99606 0.93096 0.75983 0.0
C705 C 0.83867 0.95652 0.80912 0.0
C706 C 0.84981 0.98564 0.81341 0.0
C707 C 0.85463 0.93716 0.79622 0.0
C708 C 0.8814 0.94697 0.78668 0.0
C709 C 0.89294 0.97579 0.7915 0.0
C710 C 0.87749 0.99477 0.80487 0.0
C711 C 0.89706 0.92769 0.77138 0.0
C712 C 0.92874 0.9242 0.77252 0.0
C713 C 0.88113 0.91314 0.75552 0.0
C714 C 0.84826 0.91805 0.75205 0.0
C715 C 0.83671 0.9475 0.74933 0.0
C716 C 0.80567 0.95199 0.7462 0.0
C717 C 0.78599 0.92719 0.74557 0.0
C718 C 0.79732 0.89782 0.74801 0.0
C719 C 0.82834 0.8932 0.75117 0.0
H720 H 0.76197 0.93072 0.74314 0.0
H721 H 0.0663 0.89909 0.76222 0.0
H722 H 0.22771 0.94948 0.21176 0.0
H723 H 0.19709 0.92137 0.23622 0.0
H724 H 0.1219 0.98187 0.22565 0.0
H725 H 0.15241 0.0101 0.20123 0.0
H726 H 0.13268 0.97132 0.26667 0.0
H727 H 0.11931 0.91408 0.20582 0.0
H728 H 0.13622 0.88603 0.17578 0.0
H729 H 0.18307 0.82197 0.21322 0.0
H730 H 0.16678 0.84991 0.2435 0.0
H731 H 0.0159 0.88632 0.31399 0.0
H732 H 0.04818 0.91573 0.29147 0.0
H733 H 0.11669 0.84589 0.29438 0.0
H734 H 0.08378 0.81572 0.31623 0.0
H735 H 0.11031 0.86196 0.25764 0.0
H736 H 0.12215 0.91795 0.31895 0.0
H737 H 0.10434 0.94542 0.34903 0.0
H738 H 0.06085 0.0117 0.31155 0.0
H739 H 0.07796 0.98436 0.28122 0.0
C740 C 0.20459 0.95667 0.21454 0.0
C741 C 0.19235 0.9818 0.20434 0.0
C742 C 0.18712 0.9406 0.22853 0.0
C743 C 0.15716 0.94948 0.23273 0.0
C744 C 0.14494 0.97462 0.22265 0.0
C745 C 0.16229 0.99051 0.20852 0.0
C746 C 0.13852 0.93238 0.24754 0.0
C747 C 0.1275 0.94747 0.26465 0.0
C748 C 0.13234 0.90114 0.2451 0.0
C749 C 0.1421 0.88427 0.22692 0.0
C750 C 0.13344 0.89416 0.20764 0.0
C751 C 0.14287 0.87826 0.19057 0.0
C752 C 0.16078 0.85229 0.19258 0.0
C753 C 0.16923 0.84212 0.21168 0.0
C754 C 0.1599 0.85797 0.22881 0.0
C755 C 0.03801 0.87738 0.31003 0.0
C756 C 0.04735 0.84873 0.31697 0.0
C757 C 0.05655 0.89431 0.29719 0.0
C758 C 0.08519 0.88333 0.29138 0.0
C759 C 0.09474 0.85492 0.2986 0.0
C760 C 0.07596 0.83773 0.31117 0.0
C761 C 0.10452 0.90072 0.27702 0.0
C762 C 0.11562 0.88574 0.25988 0.0
C763 C 0.11088 0.93203 0.27955 0.0
C764 C 0.10119 0.94895 0.29778 0.0
C765 C 0.10868 0.93831 0.31711 0.0
C766 C 0.09872 0.95386 0.3342 0.0
C767 C 0.08146 0.98027 0.33219 0.0
C768 C 0.07422 0.99123 0.31307 0.0
C769 C 0.08408 0.97574 0.29592 0.0
H770 H 0.07372 0.99223 0.34544 0.0
H771 H 0.16805 0.84 0.17935 0.0
H772 H 0.05555 0.14801 0.689 0.0
H773 H 0.08538 0.12094 0.71415 0.0
H774 H 0.12135 0.20582 0.73578 0.0
H775 H 0.09081 0.23321 0.71101 0.0
H776 H 0.14228 0.11343 0.7222 0.0
H777 H 0.13391 0.20307 0.78488 0.0
H778 H 0.09926 0.24342 0.79655 0.0
H779 H 0.02367 0.19606 0.77067 0.0
H780 H 0.05782 0.1557 0.75876 0.0
H781 H 0.24084 0.07106 0.80158 0.0
H782 H 0.2143 0.10243 0.77695 0.0
H783 H 0.12888 0.0812 0.8052 0.0
H784 H 0.15522 0.04958 0.82994 0.0
H785 H 0.13279 0.14157 0.79418 0.0
H786 H 0.14754 0.04386 0.76441 0.0
H787 H 0.17675 -0.00096 0.75359 0.0
H788 H 0.23097 0.05499 0.71487 0.0
H789 H 0.20229 0.10024 0.72566 0.0
C790 C 0.06996 0.16099 0.69899 0.0
C791 C 0.07055 0.19287 0.69803 0.0
C792 C 0.08707 0.14542 0.71339 0.0
C793 C 0.10531 0.16127 0.72715 0.0
C794 C 0.10696 0.19304 0.72568 0.0
C795 C 0.0896 0.20869 0.71139 0.0
C796 C 0.1219 0.14451 0.74326 0.0
C797 C 0.1403 0.11976 0.7379 0.0
C798 C 0.11906 0.15224 0.76386 0.0
C799 C 0.09843 0.17658 0.77078 0.0
C800 C 0.10988 0.20137 0.78167 0.0
C801 C 0.09034 0.22427 0.78828 0.0
C802 C 0.05928 0.22245 0.78424 0.0
C803 C 0.04771 0.19769 0.77361 0.0
C804 C 0.06716 0.17483 0.76688 0.0
C805 C 0.21644 0.0733 0.80277 0.0
C806 C 0.20017 0.05759 0.81772 0.0
C807 C 0.20129 0.09117 0.78858 0.0
C808 C 0.16958 0.09386 0.78908 0.0
C809 C 0.15336 0.07937 0.80451 0.0
C810 C 0.16847 0.06126 0.81862 0.0
C811 C 0.15328 0.11081 0.77305 0.0
C812 C 0.135 0.13554 0.77843 0.0
C813 C 0.15567 0.1026 0.75252 0.0
C814 C 0.173 0.07548 0.74601 0.0
C815 C 0.16587 0.04665 0.75373 0.0
C816 C 0.18229 0.02116 0.74757 0.0
C817 C 0.20576 0.02418 0.7336 0.0
C818 C 0.21281 0.0527 0.72571 0.0
C819 C 0.19647 0.07827 0.73183 0.0
H820 H 0.21843 0.00441 0.72884 0.0
H821 H 0.04417 0.24014 0.78943 0.0
H822 H 0.80471 0.08701 0.20853 0.0
H823 H 0.83184 0.11686 0.23399 0.0
H824 H 0.91483 0.07003 0.21943 0.0
H825 H 0.88822 0.04063 0.1938 0.0
H826 H 0.90012 0.07318 0.26209 0.0
H827 H 0.90858 0.1373 0.20299 0.0
H828 H 0.88787 0.16665 0.17457 0.0
H829 H 0.83656 0.22172 0.21554 0.0
H830 H 0.85666 0.19239 0.24421 0.0
H831 H 0.01496 0.15684 0.3102 0.0
H832 H 0.98191 0.12881 0.28747 0.0
H833 H 0.91399 0.19896 0.29268 0.0
H834 H 0.94796 0.22792 0.31465 0.0
H835 H 0.91626 0.18412 0.25636 0.0
H836 H 0.90811 0.12415 0.31572 0.0
H837 H 0.9249 0.09437 0.34508 0.0
H838 H 0.97066 0.03167 0.30613 0.0
H839 H 0.95428 0.06113 0.27651 0.0
C840 C 0.82878 0.08324 0.21065 0.0
C841 C 0.84428 0.06149 0.19905 0.0
C842 C 0.84423 0.10028 0.22521 0.0
C843 C 0.87532 0.09557 0.22862 0.0
C844 C 0.89082 0.07394 0.21708 0.0
C845 C 0.87557 0.0573 0.20233 0.0
C846 C 0.89189 0.11302 0.24426 0.0
C847 C 0.9039 0.09741 0.26083 0.0
C848 C 0.89582 0.14475 0.24293 0.0
C849 C 0.88384 0.16243 0.22571 0.0
C850 C 0.89266 0.15548 0.20592 0.0
C851 C 0.88108 0.17216 0.18977 0.0
C852 C 0.86084 0.19598 0.19324 0.0
C853 C 0.8522 0.20323 0.21288 0.0
C854 C 0.86369 0.1866 0.22908 0.0
C855 C 0.99284 0.16614 0.30666 0.0
C856 C 0.98392 0.19445 0.31435 0.0
C857 C 0.9738 0.14997 0.29374 0.0
C858 C 0.94498 0.16128 0.28861 0.0
C859 C 0.936 0.18957 0.29639 0.0
C860 C 0.95537 0.2061 0.30899 0.0
C861 C 0.92502 0.14432 0.27435 0.0
C862 C 0.91231 0.15996 0.25793 0.0
C863 C 0.91994 0.11264 0.27607 0.0
C864 C 0.9301 0.09499 0.29388 0.0
C865 C 0.92191 0.10413 0.31341 0.0
C866 C 0.9313 0.08726 0.3301 0.0
C867 C 0.94886 0.06118 0.32746 0.0
C868 C 0.95704 0.05188 0.30813 0.0
C869 C 0.94764 0.06861 0.29139 0.0
H870 H 0.95609 0.04814 0.34038 0.0
H871 H 0.8519 0.20886 0.18072 0.0
H872 H 0.10645 0.10543 0.15083 0.0
H873 H 0.05845 0.08787 0.13657 0.0
H874 H 0.10713 0.03631 0.09192 0.0
H875 H 0.15505 0.05425 0.10576 0.0
H876 H 0.04759 0.05342 0.07936 0.0
H877 H 0.09967 0.00321 0.13442 0.0
H878 H 0.12491 0.00211 0.16751 0.0
H879 H 0.04371 0.03548 0.19554 0.0
H880 H 0.01816 0.03718 0.16254 0.0
H881 H 0.93249 0.93228 0.12563 0.0
H882 H 0.98344 0.94735 0.11485 0.0
H883 H 0.94837 0.03383 0.09524 0.0
H884 H 0.89783 0.01881 0.10556 0.0
H885 H 0.0069 0.99159 0.13559 0.0
H886 H 0.99676 0.07086 0.06519 0.0
H887 H 0.97262 0.07008 0.03176 0.0
H888 H 0.9709 0.97277 0.03293 0.0
H889 H 0.99544 0.9729 0.06622 0.0
C890 C 0.10691 0.09154 0.1374 0.0
C891 C 0.13438 0.08029 0.12981 0.0
C892 C 0.07949 0.08151 0.12927 0.0
C893 C 0.07946 0.06014 0.1136 0.0
C894 C 0.10676 0.05256 0.10413 0.0
C895 C 0.13413 0.0626 0.11221 0.0
C896 C 0.05269 0.0407 0.11041 0.0
C897 C 0.03845 0.03993 0.09157 0.0
C898 C 0.04192 0.02202 0.12614 0.0
C899 C 0.05711 0.02053 0.14602 0.0
C900 C 0.08728 0.01046 0.14763 0.0
C901 C 0.10163 0.00972 0.16637 0.0
C902 C 0.08592 0.01877 0.18362 0.0
C903 C 0.05584 0.0285 0.18216 0.0
C904 C 0.04141 0.02933 0.16346 0.0
C905 C 0.93551 0.95397 0.11826 0.0
C906 C 0.91145 0.9747 0.1169 0.0
C907 C 0.96458 0.96255 0.11209 0.0
C908 C 0.96974 0.99181 0.1044 0.0
C909 C 0.945 0.01105 0.10092 0.0
C910 C 0.91608 0.00254 0.10708 0.0
C911 C 0.00056 0.00499 0.10466 0.0
C912 C 0.01592 0.00463 0.12311 0.0
C913 C 0.01236 0.02218 0.08846 0.0
C914 C 0.99783 0.02192 0.0683 0.0
C915 C 0.99143 0.04928 0.05828 0.0
C916 C 0.97762 0.04895 0.03935 0.0
C917 C 0.97018 0.0214 0.03025 0.0
C918 C 0.97658 0.99411 0.04003 0.0
C919 C 0.99039 0.9943 0.05895 0.0
H920 H 0.95948 0.0212 0.0156 0.0
H921 H 0.09699 0.01822 0.19813 0.0
H922 H 0.00834 0.1424 0.60433 0.0
H923 H 0.01136 0.09055 0.59258 0.0
H924 H 0.92095 0.07359 0.61487 0.0
H925 H 0.91795 0.12603 0.6269 0.0
H926 H 0.96097 0.04249 0.63478 0.0
H927 H 0.94018 0.05231 0.56624 0.0
H928 H 0.94037 0.07433 0.53219 0.0
H929 H 0.03646 0.05983 0.52791 0.0
H930 H 0.03701 0.03816 0.56204 0.0
H931 H 0.03006 0.88991 0.60653 0.0
H932 H 0.00468 0.93512 0.59381 0.0
H933 H 0.05264 0.9898 0.63715 0.0
H934 H 0.07741 0.94454 0.6505 0.0
H935 H 0.01685 0.99239 0.57919 0.0
H936 H 0.00447 0.0327 0.66104 0.0
H937 H 0.00439 0.0112 0.69527 0.0
H938 H 0.97076 0.92672 0.67222 0.0
H939 H 0.97055 0.94775 0.63786 0.0
C940 C 0.98863 0.12799 0.60607 0.0
C941 C 0.96327 0.13782 0.61705 0.0
C942 C 0.99019 0.09837 0.59904 0.0
C943 C 0.96647 0.07804 0.60298 0.0
C944 C 0.93951 0.08895 0.61168 0.0
C945 C 0.93786 0.11883 0.61864 0.0
C946 C 0.97374 0.04533 0.60352 0.0
C947 C 0.97249 0.0313 0.62242 0.0
C948 C 0.98863 0.03054 0.58741 0.0
C949 C 0.9886 0.04355 0.56679 0.0
C950 C 0.96141 0.05396 0.55811 0.0
C951 C 0.96138 0.06637 0.53877 0.0
C952 C 0.9884 0.06847 0.52789 0.0
C953 C 0.01552 0.05814 0.53634 0.0
C954 C 0.01569 0.0457 0.55568 0.0
C955 C 0.03579 0.91163 0.61309 0.0
C956 C 0.05509 0.91358 0.62994 0.0
C957 C 0.02129 0.93745 0.60571 0.0
C958 C 0.02613 0.96551 0.61496 0.0
C959 C 0.04811 0.96807 0.63016 0.0
C960 C 0.06233 0.94224 0.63773 0.0
C961 C 0.00568 0.99123 0.61068 0.0
C962 C 0.00446 0.00344 0.59122 0.0
C963 C 0.98831 0.0045 0.62623 0.0
C964 C 0.98759 0.99178 0.64689 0.0
C965 C 0.99688 0.00959 0.6633 0.0
C966 C 0.997 0.99746 0.68271 0.0
C967 C 0.98771 0.96758 0.68591 0.0
C968 C 0.97814 0.9498 0.66972 0.0
C969 C 0.97804 0.9618 0.65026 0.0
H970 H 0.98795 0.95832 0.70096 0.0
H971 H 0.98833 0.07809 0.51292 0.0
H972 H 0.94458 0.08357 0.83884 0.0
H973 H 0.99051 0.05939 0.85147 0.0
H974 H 0.95042 0.05186 0.91035 0.0
H975 H 0.90399 0.07569 0.89784 0.0
H976 H 0.02914 0.06409 0.8957 0.0
H977 H 0.93697 0.99584 0.90214 0.0
H978 H 0.88742 0.98092 0.88793 0.0
H979 H 0.92925 0.96466 0.83062 0.0
H980 H 0.97888 0.98019 0.8444 0.0
H981 H 0.14082 0.95676 0.90353 0.0
H982 H 0.09039 0.97348 0.9141 0.0
H983 H 0.05676 0.95775 0.85404 0.0
H984 H 0.10647 0.93964 0.84376 0.0
H985 H 0.01139 0.95571 0.87902 0.0
H986 H 0.09572 0.02442 0.86596 0.0
H987 H 0.1477 0.04295 0.87221 0.0
H988 H 0.12447 0.06206 0.93364 0.0
H989 H 0.07242 0.04327 0.92776 0.0
C990 C 0.94588 0.07795 0.85467 0.0
C991 C 0.92042 0.08074 0.86723 0.0
C992 C 0.97218 0.06417 0.86185 0.0
C993 C 0.97338 0.05349 0.88168 0.0
C994 C 0.94962 0.05988 0.89496 0.0
C995 C 0.92316 0.07343 0.88776 0.0
C996 C 0.99632 0.03062 0.88685 0.0
C997 C 0.02515 0.0402 0.89283 0.0
C998 C 0.99109 -0.00023 0.88228 0.0
C999 C 0.96151 0.98933 0.87426 0.0
C1000 C 0.93553 0.98922 0.88649 0.0
C1001 C 0.90744 0.98071 0.8785 0.0
C1002 C 0.90517 0.97193 0.85837 0.0
C1003 C 0.93101 0.97155 0.84619 0.0
C1004 C 0.9591 0.98021 0.85408 0.0
C1005 C 0.12224 0.95552 0.89289 0.0
C1006 C 0.12759 0.94782 0.87269 0.0
C1007 C 0.0935 0.96514 0.89892 0.0
C1008 C 0.07026 0.96805 0.88463 0.0
C1009 C 0.0745 0.95608 0.86527 0.0
C1010 C 0.10302 0.94577 0.85936 0.0
C1011 C 0.04452 0.98893 0.88811 0.0
C1012 C 0.01517 0.97917 0.88323 0.0
C1013 C 0.04952 0.01984 0.89312 0.0
C1014 C 0.08036 0.03221 0.89649 0.0
C1015 C 0.10174 0.03259 0.88079 0.0
C1016 C 0.1312 0.04307 0.88427 0.0
C1017 C 0.1394 0.0536 0.90333 0.0
C1018 C 0.11809 0.05384 0.9189 0.0
C1019 C 0.08861 0.04329 0.9155 0.0
H1020 H 0.16224 0.06162 0.90602 0.0
H1021 H 0.88342 0.96533 0.85222 0.0
H1022 H 0.93661 0.93524 0.33749 0.0
H1023 H 0.95746 0.98402 0.34764 0.0
H1024 H 0.97505 0.94878 0.407 0.0
H1025 H 0.95394 0.89991 0.39709 0.0
H1026 H 0.95528 0.02866 0.37805 0.0
H1027 H 0.05137 0.95886 0.41353 0.0
H1028 H 0.07188 0.90676 0.41232 0.0
H1029 H 0.04051 0.89717 0.35156 0.0
H1030 H 0.02021 0.94925 0.35232 0.0
H1031 H 0.05828 0.13935 0.40273 0.0
H1032 H 0.0348 0.09063 0.41036 0.0
H1033 H 0.076 0.05179 0.35747 0.0
H1034 H 0.09968 0.10036 0.34973 0.0
H1035 H 0.06544 0.00894 0.38734 0.0
H1036 H 0.01398 0.08805 0.35119 0.0
H1037 H 0.99481 0.13996 0.34625 0.0
H1038 H 0.93768 0.13078 0.39815 0.0
H1039 H 0.95721 0.07897 0.40376 0.0
C1040 C 0.9436 0.9382 0.35297 0.0
C1041 C 0.94449 0.91351 0.36632 0.0
C1042 C 0.95551 0.96614 0.35875 0.0
C1043 C 0.96844 0.96954 0.37787 0.0
C1044 C 0.96551 0.94628 0.39208 0.0
C1045 C 0.95348 0.91839 0.38636 0.0
C1046 C 0.98983 0.99458 0.38143 0.0
C1047 C 0.97925 0.02444 0.38051 0.0
C1048 C 0.02124 0.98885 0.38386 0.0
C1049 C 0.03393 0.95774 0.38311 0.0
C1050 C 0.04894 0.94561 0.39991 0.0
C1051 C 0.06052 0.9161 0.39929 0.0
C1052 C 0.05737 0.89861 0.38189 0.0
C1053 C 0.04278 0.91066 0.36504 0.0
C1054 C 0.0312 0.94015 0.36557 0.0
C1055 C 0.06336 0.12012 0.39316 0.0
C1056 C 0.07991 0.12383 0.37525 0.0
C1057 C 0.04996 0.09232 0.39758 0.0
C1058 C 0.053 0.06807 0.38413 0.0
C1059 C 0.07322 0.07044 0.36792 0.0
C1060 C 0.08669 0.09826 0.36349 0.0
C1061 C 0.03082 0.04311 0.38442 0.0
C1062 C 0.04132 0.01323 0.38573 0.0
C1063 C -0.00054 0.04884 0.38153 0.0
C1064 C 0.98745 0.07985 0.37811 0.0
C1065 C 0.99764 0.09724 0.36172 0.0
C1066 C 0.98667 0.12663 0.35876 0.0
C1067 C 0.96512 0.13873 0.3719 0.0
C1068 C 0.95446 0.12141 0.38802 0.0
C1069 C 0.96551 0.09205 0.39112 0.0
H1070 H 0.95661 0.16148 0.36954 0.0
H1071 H 0.0663 0.87576 0.38145 0.0
H1072 H 0.39961 0.95757 0.1795 0.0
H1073 H 0.45484 0.96178 0.18018 0.0
H1074 H 0.44746 0.04722 0.21149 0.0
H1075 H 0.39206 0.04334 0.21039 0.0
H1076 H 0.48777 0.05182 0.18308 0.0
H1077 H 0.46949 0.98032 0.2356 0.0
H1078 H 0.44847 0.93431 0.25137 0.0
H1079 H 0.49721 0.87869 0.20937 0.0
H1080 H 0.51821 0.9244 0.19315 0.0
H1081 H 0.64338 0.05729 0.21175 0.0
H1082 H 0.58836 0.05134 0.21444 0.0
H1083 H 0.59105 0.97931 0.17069 0.0
H1084 H 0.64571 0.98607 0.16711 0.0
H1085 H 0.5539 0.96809 0.20692 0.0
H1086 H 0.57025 0.04138 0.15398 0.0
H1087 H 0.59179 0.08811 0.1395 0.0
H1088 H 0.54674 0.14124 0.18462 0.0
H1089 H 0.5253 0.09473 0.19958 0.0
C1090 C 0.40982 0.97718 0.1866 0.0
C1091 C 0.39166 0.00029 0.19471 0.0
C1092 C 0.44136 0.97951 0.18707 0.0
C1093 C 0.45534 0.00463 0.19612 0.0
C1094 C 0.43717 0.02767 0.20438 0.0
C1095 C 0.40556 0.02552 0.20367 0.0
C1096 C 0.48887 0.00726 0.19642 0.0
C1097 C 0.50215 0.03369 0.18862 0.0
C1098 C 0.50774 0.98339 0.20331 0.0
C1099 C 0.49521 0.95582 0.21305 0.0
C1100 C 0.47555 0.95829 0.22963 0.0
C1101 C 0.46367 0.93226 0.23866 0.0
C1102 C 0.47144 0.90359 0.23135 0.0
C1103 C 0.49118 0.90091 0.215 0.0
C1104 C 0.50311 0.92687 0.2059 0.0
C1105 C 0.63231 0.04002 0.20279 0.0
C1106 C 0.64913 0.02161 0.18961 0.0
C1107 C 0.60093 0.03665 0.20439 0.0
C1108 C 0.58584 0.01479 0.19285 0.0
C1109 C 0.60249 0.99601 0.17992 0.0
C1110 C 0.63384 -0.00034 0.1781 0.0
C1111 C 0.55246 0.0125 0.19358 0.0
C1112 C 0.53933 0.98619 0.20153 0.0
C1113 C 0.53372 0.03657 0.18706 0.0
C1114 C 0.54647 0.06455 0.17803 0.0
C1115 C 0.56518 0.063 0.16094 0.0
C1116 C 0.57732 0.08945 0.15262 0.0
C1117 C 0.57072 0.11762 0.16117 0.0
C1118 C 0.55188 0.1194 0.17803 0.0
C1119 C 0.53972 0.09301 0.18643 0.0
H1120 H 0.58013 0.13808 0.1547 0.0
H1121 H 0.46222 0.88347 0.23837 0.0
H1122 H 0.04691 0.64189 0.66731 0.0
H1123 H 0.05135 0.587 0.66896 0.0
H1124 H 0.98836 0.58501 0.71861 0.0
H1125 H 0.98523 0.64039 0.71782 0.0
H1126 H 0.03234 0.54524 0.72474 0.0
H1127 H 0.96519 0.56874 0.67088 0.0
H1128 H 0.94807 0.5941 0.63985 0.0
H1129 H 0.02162 0.55364 0.6071 0.0
H1130 H 0.03947 0.52838 0.63802 0.0
H1131 H -0.00018 0.38612 0.70999 0.0
H1132 H 0.99317 0.44135 0.71217 0.0
H1133 H 0.06828 0.45402 0.67146 0.0
H1134 H 0.07514 0.39906 0.66935 0.0
H1135 H 0.01395 0.4876 0.66182 0.0
H1136 H 0.08138 0.46601 0.71766 0.0
H1137 H 0.09589 0.44023 0.74912 0.0
H1138 H 0.01706 0.47645 0.77851 0.0
H1139 H 0.00185 0.50211 0.7471 0.0
C1140 C 0.03487 0.63003 0.67907 0.0
C1141 C 0.01629 0.64562 0.69277 0.0
C1142 C 0.03694 0.59849 0.67973 0.0
C1143 C 0.01985 0.58188 0.69372 0.0
C1144 C 0.00173 0.59739 0.70768 0.0
C1145 C -0.00012 0.62898 0.70715 0.0
C1146 C 0.02031 0.54832 0.69338 0.0
C1147 C 0.02787 0.53263 0.71105 0.0
C1148 C 0.01456 0.53186 0.6755 0.0
C1149 C 0.00382 0.54688 0.65682 0.0
C1150 C 0.97785 0.56542 0.6571 0.0
C1151 C 0.968 0.57976 0.63952 0.0
C1152 C 0.98379 0.57554 0.62153 0.0
C1153 C 0.00943 0.55691 0.62106 0.0
C1154 C 0.01941 0.54255 0.6386 0.0
C1155 C 0.01472 0.40076 0.70143 0.0
C1156 C 0.03782 0.3885 0.68938 0.0
C1157 C 0.01103 0.43218 0.70278 0.0
C1158 C 0.03025 0.45158 0.69195 0.0
C1159 C 0.05323 0.43932 0.67987 0.0
C1160 C 0.0572 0.40802 0.67877 0.0
C1161 C 0.02651 0.48477 0.69303 0.0
C1162 C 0.01821 0.50031 0.6755 0.0
C1163 C 0.03111 0.501 0.71109 0.0
C1164 C 0.0403 0.48567 0.72997 0.0
C1165 C 0.06699 0.46824 0.73077 0.0
C1166 C 0.07537 0.4537 0.74861 0.0
C1167 C 0.05736 0.45662 0.76579 0.0
C1168 C 0.03096 0.47416 0.76518 0.0
C1169 C 0.02246 0.48872 0.74737 0.0
H1170 H 0.06389 0.44535 0.77958 0.0
H1171 H 0.97613 0.58666 0.60793 0.0
H1172 H 0.40644 0.06719 0.84713 0.0
H1173 H 0.46113 0.06231 0.84231 0.0
H1174 H 0.44664 0.98588 0.80295 0.0
H1175 H 0.39178 0.99061 0.80785 0.0
H1176 H 0.49123 0.97443 0.82889 0.0
H1177 H 0.46677 0.05508 0.78401 0.0
H1178 H 0.44405 0.10363 0.77345 0.0
H1179 H 0.49872 0.1511 0.8166 0.0
H1180 H 0.52147 0.10278 0.82763 0.0
H1181 H 0.6475 0.97437 0.80005 0.0
H1182 H 0.59204 0.97765 0.79798 0.0
H1183 H 0.59271 0.05083 0.84102 0.0
H1184 H 0.64788 0.0473 0.84338 0.0
H1185 H 0.55484 0.06227 0.80902 0.0
H1186 H 0.57545 0.98061 0.85569 0.0
H1187 H 0.59795 0.93189 0.86613 0.0
H1188 H 0.55022 0.88622 0.81871 0.0
H1189 H 0.52775 0.93478 0.80781 0.0
C1190 C 0.41493 0.04939 0.83741 0.0
C1191 C 0.39495 0.029 0.8281 0.0
C1192 C 0.44615 0.0467 0.8346 0.0
C1193 C 0.45793 0.02394 0.82208 0.0
C1194 C 0.438 0.00355 0.81271 0.0
C1195 C 0.40671 0.00613 0.81564 0.0
C1196 C 0.49113 0.0211 0.81928 0.0
C1197 C 0.50509 0.99347 0.82415 0.0
C1198 C 0.50922 0.04608 0.81339 0.0
C1199 C 0.49567 0.07525 0.80674 0.0
C1200 C 0.47379 0.07584 0.79135 0.0
C1201 C 0.46093 0.10333 0.78526 0.0
C1202 C 0.46989 0.13042 0.79437 0.0
C1203 C 0.49179 0.13009 0.80956 0.0
C1204 C 0.5047 0.10266 0.81572 0.0
C1205 C 0.63575 0.99128 0.80893 0.0
C1206 C 0.65198 0.01112 0.82145 0.0
C1207 C 0.60416 0.9931 0.80777 0.0
C1208 C 0.58836 0.01452 0.81934 0.0
C1209 C 0.60456 0.03441 0.83179 0.0
C1210 C 0.63609 0.03255 0.83298 0.0
C1211 C 0.55485 0.01583 0.81898 0.0
C1212 C 0.54088 0.04317 0.81349 0.0
C1213 C 0.53676 0.99056 0.82422 0.0
C1214 C 0.55022 0.96137 0.83079 0.0
C1215 C 0.56997 0.96022 0.84738 0.0
C1216 C 0.58267 0.93263 0.8534 0.0
C1217 C 0.5756 0.90599 0.84305 0.0
C1218 C 0.55573 0.90688 0.82669 0.0
C1219 C 0.54299 0.93442 0.82059 0.0
H1220 H 0.58545 0.88464 0.84774 0.0
H1221 H 0.4599 0.15168 0.78964 0.0
H1222 H 0.04976 0.39489 0.34742 0.0
H1223 H 0.05468 0.44979 0.34617 0.0
H1224 H 0.98676 0.45373 0.29951 0.0
H1225 H 0.98314 0.39836 0.29981 0.0
H1226 H 0.03097 0.49251 0.2916 0.0
H1227 H 0.96941 0.46917 0.34882 0.0
H1228 H 0.95628 0.44368 0.38065 0.0
H1229 H 0.03393 0.48364 0.4092 0.0
H1230 H 0.04778 0.50904 0.37744 0.0
H1231 H 0.99479 0.64938 0.30562 0.0
H1232 H 0.99181 0.59397 0.3039 0.0
H1233 H 0.06759 0.58688 0.34468 0.0
H1234 H 0.07047 0.64223 0.34661 0.0
H1235 H 0.01835 0.5501 0.35515 0.0
H1236 H 0.0792 0.57347 0.29699 0.0
H1237 H 0.0907 0.59918 0.26496 0.0
H1238 H 0.01145 0.55966 0.23811 0.0
H1239 H -0.00076 0.53404 0.27009 0.0
C1240 C 0.03665 0.40722 0.33639 0.0
C1241 C 0.01666 0.39219 0.32331 0.0
C1242 C 0.03903 0.43874 0.33598 0.0
C1243 C 0.02082 0.45588 0.32291 0.0
C1244 C 0.00105 0.44093 0.3097 0.0
C1245 C -0.0011 0.40935 0.30995 0.0
C1246 C 0.02193 0.48942 0.32339 0.0
C1247 C 0.0278 0.50512 0.30545 0.0
C1248 C 0.01819 0.50584 0.34152 0.0
C1249 C 0.00978 0.49079 0.36069 0.0
C1250 C 0.98381 0.47236 0.36185 0.0
C1251 C 0.97622 0.45795 0.37988 0.0
C1252 C 0.9943 0.46198 0.39692 0.0
C1253 C 0.01997 0.48051 0.39598 0.0
C1254 C 0.02768 0.49494 0.37797 0.0
C1255 C 0.01058 0.63598 0.31436 0.0
C1256 C 0.03255 0.64998 0.3265 0.0
C1257 C 0.00906 0.6044 0.31321 0.0
C1258 C 0.02951 0.58645 0.32416 0.0
C1259 C 0.05159 0.60041 0.33617 0.0
C1260 C 0.05328 0.63195 0.33718 0.0
C1261 C 0.02759 0.55305 0.32343 0.0
C1262 C 0.02147 0.53742 0.34133 0.0
C1263 C 0.03079 0.53677 0.30525 0.0
C1264 C 0.03814 0.5521 0.286 0.0
C1265 C 0.06408 0.57048 0.28431 0.0
C1266 C 0.07075 0.58499 0.26615 0.0
C1267 C 0.05177 0.58112 0.24953 0.0
C1268 C 0.02611 0.56267 0.25101 0.0
C1269 C 0.01932 0.54813 0.26914 0.0
H1270 H 0.05698 0.59237 0.23548 0.0
H1271 H 0.98839 0.45079 0.41087 0.0
loop_
_geom_bond_atom_site_label_1
_geom_bond_atom_site_label_2
_geom_bond_distance
_geom_bond_site_symmetry_2
_ccdc_geom_bond_type
Co0 O3 1.970 . S
Co0 N17 1.989 . S
Co0 O25 1.967 1_545 S
Co0 O32 1.920 . S
Co1 O4 1.966 . S
Co1 N10 2.022 . S
Co1 N18 1.993 . S
Co1 O26 1.941 1_545 S
C2 O3 1.258 . S
C2 O4 1.263 . S
O3 Co0 1.970 . S
O3 C2 1.258 . S
O4 Co1 1.966 . S
O4 C2 1.263 . S
C5 O6 1.235 . S
C5 O32 1.289 . S
O6 C5 1.235 . S
C7 C9 1.400 . S
C7 N10 1.351 . S
C7 C12 1.501 . S
C8 C9 1.387 . S
C8 N11 1.340 1_545 S
C9 C7 1.400 . S
C9 C8 1.387 . S
N10 Co1 2.022 . S
N10 C7 1.351 . S
N10 N11 1.364 1_545 S
N11 C8 1.340 1_565 S
N11 N10 1.364 1_565 S
N11 H31 0.863 . S
C12 C7 1.501 . S
C12 H13 0.961 . S
C12 H14 0.961 . S
C12 H15 0.960 . S
H13 C12 0.961 . S
H14 C12 0.961 . S
H15 C12 0.960 . S
C16 N17 1.342 . S
C16 C20 1.401 . S
C16 C21 1.499 . S
N17 Co0 1.989 . S
N17 C16 1.342 . S
N17 N18 1.388 . S
N18 Co1 1.993 . S
N18 N17 1.388 . S
N18 C19 1.346 . S
C19 N18 1.346 . S
C19 C20 1.396 . S
C19 C29 1.510 . S
C20 C16 1.401 . S
C20 C19 1.396 . S
C21 C16 1.499 . S
C21 H22 0.959 . S
C21 H23 0.960 . S
C21 H24 0.988 . S
H22 C21 0.959 . S
H23 C21 0.960 . S
H24 C21 0.988 . S
O25 Co0 1.967 1_565 S
O25 C33 1.258 . S
O26 Co1 1.941 1_565 S
O26 C33 1.266 . S
H27 C29 0.959 . S
H28 C29 0.961 . S
C29 C19 1.510 . S
C29 H27 0.959 . S
C29 H28 0.961 . S
C29 H30 0.960 . S
H30 C29 0.960 . S
H31 N11 0.863 . S
O32 Co0 1.920 . S
O32 C5 1.289 . S
C33 O25 1.258 . S
C33 O26 1.266 . S
Co34 O37 1.970 1_455 S
Co34 N51 1.989 . S
Co34 O59 1.967 . S
Co34 O66 1.920 . S
Co35 O38 1.966 1_455 S
Co35 N44 2.022 . S
Co35 N52 1.993 . S
Co35 O60 1.941 . S
C36 O37 1.258 . S
C36 O38 1.263 . S
O37 Co34 1.970 1_655 S
O37 C36 1.258 . S
O38 Co35 1.966 1_655 S
O38 C36 1.263 . S
C39 O40 1.235 . S
C39 O66 1.289 1_655 S
O40 C39 1.235 . S
C41 C43 1.400 1_655 S
C41 N44 1.351 1_655 S
C41 C46 1.501 . S
C42 C43 1.387 . S
C42 N45 1.341 . S
C43 C41 1.400 1_455 S
C43 C42 1.387 . S
N44 Co35 2.022 . S
N44 C41 1.351 1_455 S
N44 N45 1.365 . S
N45 C42 1.341 . S
N45 N44 1.365 . S
N45 H65 0.862 . S
C46 C41 1.501 . S
C46 H47 0.961 . S
C46 H48 0.961 . S
C46 H49 0.960 . S
H47 C46 0.961 . S
H48 C46 0.961 . S
H49 C46 0.960 . S
C50 N51 1.342 . S
C50 C54 1.401 . S
C50 C55 1.499 . S
N51 Co34 1.989 . S
N51 C50 1.342 . S
N51 N52 1.388 . S
N52 Co35 1.993 . S
N52 N51 1.388 . S
N52 C53 1.346 . S
C53 N52 1.346 . S
C53 C54 1.396 . S
C53 C63 1.510 . S
C54 C50 1.401 . S
C54 C53 1.396 . S
C55 C50 1.499 . S
C55 H56 0.959 . S
C55 H57 0.960 . S
C55 H58 0.961 . S
H56 C55 0.959 . S
H57 C55 0.960 . S
H58 C55 0.961 . S
O59 Co34 1.967 . S
O59 C67 1.258 . S
O60 Co35 1.941 . S
O60 C67 1.266 . S
H61 C63 0.959 . S
H62 C63 0.961 . S
C63 C53 1.510 . S
C63 H61 0.959 . S
C63 H62 0.961 . S
C63 H64 0.960 . S
H64 C63 0.960 . S
H65 N45 0.862 . S
O66 Co34 1.920 . S
O66 C39 1.289 1_455 S
C67 O59 1.258 . S
C67 O60 1.266 . S
Co68 O71 1.970 1_545 S
Co68 N85 1.989 . S
Co68 O93 1.967 . S
Co68 O100 1.920 . S
Co69 O72 1.966 1_545 S
Co69 N78 2.022 . S
Co69 N86 1.993 . S
Co69 O94 1.941 . S
C70 O71 1.258 . S
C70 O72 1.263 . S
O71 Co68 1.970 1_565 S
O71 C70 1.258 . S
O72 Co69 1.966 1_565 S
O72 C70 1.263 . S
C73 O74 1.235 . S
C73 O100 1.289 1_565 S
O74 C73 1.235 . S
C75 C77 1.400 1_565 S
C75 N78 1.351 1_565 S
C75 C80 1.501 . S
C76 C77 1.387 . S
C76 N79 1.341 . S
C77 C75 1.400 1_545 S
C77 C76 1.387 . S
N78 Co69 2.022 . S
N78 C75 1.351 1_545 S
N78 N79 1.365 . S
N79 C76 1.341 . S
N79 N78 1.365 . S
N79 H99 0.862 . S
C80 C75 1.501 . S
C80 H81 0.961 . S
C80 H82 0.961 . S
C80 H83 0.960 . S
H81 C80 0.961 . S
H82 C80 0.961 . S
H83 C80 0.960 . S
C84 N85 1.342 . S
C84 C88 1.401 . S
C84 C89 1.499 . S
N85 Co68 1.989 . S
N85 C84 1.342 . S
N85 N86 1.388 . S
N86 Co69 1.993 . S
N86 N85 1.388 . S
N86 C87 1.346 . S
C87 N86 1.346 . S
C87 C88 1.396 . S
C87 C97 1.510 . S
C88 C84 1.401 . S
C88 C87 1.396 . S
C89 C84 1.499 . S
C89 H90 0.959 . S
C89 H91 0.960 . S
C89 H92 0.961 . S
H90 C89 0.959 . S
H91 C89 0.960 . S
H92 C89 0.961 . S
O93 Co68 1.967 . S
O93 C101 1.258 . S
O94 Co69 1.941 . S
O94 C101 1.266 . S
H95 C97 0.959 . S
H96 C97 0.961 . S
C97 C87 1.510 . S
C97 H95 0.959 . S
C97 H96 0.961 . S
C97 H98 0.960 . S
H98 C97 0.960 . S
H99 N79 0.862 . S
O100 Co68 1.920 . S
O100 C73 1.289 1_545 S
C101 O93 1.258 . S
C101 O94 1.266 . S
Co102 O105 1.970 . S
Co102 N119 1.989 . S
Co102 O127 1.967 1_455 S
Co102 O134 1.920 . S
Co103 O106 1.966 . S
Co103 N112 2.022 . S
Co103 N120 1.993 . S
Co103 O128 1.941 1_455 S
C104 O105 1.258 . S
C104 O106 1.263 . S
O105 Co102 1.970 . S
O105 C104 1.258 . S
O106 Co103 1.966 . S
O106 C104 1.263 . S
C107 O108 1.235 . S
C107 O134 1.289 . S
O108 C107 1.235 . S
C109 C111 1.400 . S
C109 N112 1.351 . S
C109 C114 1.501 . S
C110 C111 1.387 . S
C110 N113 1.340 1_455 S
C111 C109 1.400 . S
C111 C110 1.387 . S
N112 Co103 2.022 . S
N112 C109 1.351 . S
N112 N113 1.365 1_455 S
N113 C110 1.340 1_655 S
N113 N112 1.365 1_655 S
N113 H133 0.863 . S
C114 C109 1.501 . S
C114 H115 0.961 . S
C114 H116 0.961 . S
C114 H117 0.960 . S
H115 C114 0.961 . S
H116 C114 0.961 . S
H117 C114 0.960 . S
C118 N119 1.342 . S
C118 C122 1.401 . S
C118 C123 1.499 . S
N119 Co102 1.989 . S
N119 C118 1.342 . S
N119 N120 1.388 . S
N120 Co103 1.993 . S
N120 N119 1.388 . S
N120 C121 1.346 . S
C121 N120 1.346 . S
C121 C122 1.396 . S
C121 C131 1.510 . S
C122 C118 1.401 . S
C122 C121 1.396 . S
C123 C118 1.499 . S
C123 H124 0.959 . S
C123 H125 0.960 . S
C123 H126 0.989 . S
H124 C123 0.959 . S
H125 C123 0.960 . S
H126 C123 0.989 . S
O127 Co102 1.967 1_655 S
O127 C135 1.258 . S
O128 Co103 1.941 1_655 S
O128 C135 1.266 . S
H129 C131 0.959 . S
H130 C131 0.961 . S
C131 C121 1.510 . S
C131 H129 0.959 . S
C131 H130 0.961 . S
C131 H132 0.960 . S
H132 C131 0.960 . S
H133 N113 0.863 . S
O134 Co102 1.920 . S
O134 C107 1.289 . S
C135 O127 1.258 . S
C135 O128 1.266 . S
Co136 O139 1.970 1_545 S
Co136 N153 1.989 . S
Co136 O161 1.967 . S
Co136 O168 1.920 . S
Co137 O140 1.966 1_545 S
Co137 N146 2.022 . S
Co137 N154 1.993 . S
Co137 O162 1.941 . S
C138 O139 1.258 . S
C138 O140 1.263 . S
O139 Co136 1.970 1_565 S
O139 C138 1.258 . S
O140 Co137 1.966 1_565 S
O140 C138 1.263 . S
C141 O142 1.235 . S
C141 O168 1.289 1_565 S
O142 C141 1.235 . S
C143 C145 1.400 1_565 S
C143 N146 1.351 1_565 S
C143 C148 1.501 . S
C144 C145 1.387 . S
C144 N147 1.341 . S
C145 C143 1.400 1_545 S
C145 C144 1.387 . S
N146 Co137 2.022 . S
N146 C143 1.351 1_545 S
N146 N147 1.365 . S
N147 C144 1.341 . S
N147 N146 1.365 . S
N147 H167 0.862 . S
C148 C143 1.501 . S
C148 H149 0.961 . S
C148 H150 0.961 . S
C148 H151 0.960 . S
H149 C148 0.961 . S
H150 C148 0.961 . S
H151 C148 0.960 . S
C152 N153 1.342 . S
C152 C156 1.401 . S
C152 C157 1.499 . S
N153 Co136 1.989 . S
N153 C152 1.342 . S
N153 N154 1.388 . S
N154 Co137 1.993 . S
N154 N153 1.388 . S
N154 C155 1.346 . S
C155 N154 1.346 . S
C155 C156 1.396 . S
C155 C165 1.510 . S
C156 C152 1.401 . S
C156 C155 1.396 . S
C157 C152 1.499 . S
C157 H158 0.959 . S
C157 H159 0.960 . S
C157 H160 0.961 . S
H158 C157 0.959 . S
H159 C157 0.960 . S
H160 C157 0.961 . S
O161 Co136 1.967 . S
O161 C169 1.258 . S
O162 Co137 1.941 . S
O162 C169 1.266 . S
H163 C165 0.959 . S
H164 C165 0.961 . S
C165 C155 1.510 . S
C165 H163 0.959 . S
C165 H164 0.961 . S
C165 H166 0.960 . S
H166 C165 0.960 . S
H167 N147 0.862 . S
O168 Co136 1.920 . S
O168 C141 1.289 1_545 S
C169 O161 1.258 . S
C169 O162 1.266 . S
Co170 O173 1.970 . S
Co170 N187 1.989 . S
Co170 O195 1.967 1_455 S
Co170 O202 1.920 . S
Co171 O174 1.966 . S
Co171 N180 2.022 . S
Co171 N188 1.993 . S
Co171 O196 1.941 1_455 S
C172 O173 1.258 . S
C172 O174 1.263 . S
O173 Co170 1.970 . S
O173 C172 1.258 . S
O174 Co171 1.966 . S
O174 C172 1.263 . S
C175 O176 1.235 . S
C175 O202 1.289 . S
O176 C175 1.235 . S
C177 C179 1.400 . S
C177 N180 1.351 . S
C177 C182 1.501 . S
C178 C179 1.387 . S
C178 N181 1.340 1_455 S
C179 C177 1.400 . S
C179 C178 1.387 . S
N180 Co171 2.022 . S
N180 C177 1.351 . S
N180 N181 1.364 1_455 S
N181 C178 1.340 1_655 S
N181 N180 1.364 1_655 S
N181 H201 0.863 . S
C182 C177 1.501 . S
C182 H183 0.961 . S
C182 H184 0.961 . S
C182 H185 0.960 . S
H183 C182 0.961 . S
H184 C182 0.961 . S
H185 C182 0.960 . S
C186 N187 1.342 . S
C186 C190 1.401 . S
C186 C191 1.499 . S
N187 Co170 1.989 . S
N187 C186 1.342 . S
N187 N188 1.388 . S
N188 Co171 1.993 . S
N188 N187 1.388 . S
N188 C189 1.346 . S
C189 N188 1.346 . S
C189 C190 1.396 . S
C189 C199 1.510 . S
C190 C186 1.401 . S
C190 C189 1.396 . S
C191 C186 1.499 . S
C191 H192 0.959 . S
C191 H193 0.960 . S
C191 H194 0.988 . S
H192 C191 0.959 . S
H193 C191 0.960 . S
H194 C191 0.988 . S
O195 Co170 1.967 1_655 S
O195 C203 1.258 . S
O196 Co171 1.941 1_655 S
O196 C203 1.266 . S
H197 C199 0.959 . S
H198 C199 0.961 . S
C199 C189 1.510 . S
C199 H197 0.959 . S
C199 H198 0.961 . S
C199 H200 0.960 . S
H200 C199 0.960 . S
H201 N181 0.863 . S
O202 Co170 1.920 . S
O202 C175 1.289 . S
C203 O195 1.258 . S
C203 O196 1.266 . S
Co204 O207 1.970 . S
Co204 N221 1.989 . S
Co204 O229 1.967 1_545 S
Co204 O236 1.920 . S
Co205 O208 1.966 . S
Co205 N214 2.022 . S
Co205 N222 1.993 . S
Co205 O230 1.941 1_545 S
C206 O207 1.258 . S
C206 O208 1.263 . S
O207 Co204 1.970 . S
O207 C206 1.258 . S
O208 Co205 1.966 . S
O208 C206 1.263 . S
C209 O210 1.235 . S
C209 O236 1.289 . S
O210 C209 1.235 . S
C211 C213 1.400 . S
C211 N214 1.351 . S
C211 C216 1.501 . S
C212 C213 1.387 . S
C212 N215 1.340 1_545 S
C213 C211 1.400 . S
C213 C212 1.387 . S
N214 Co205 2.022 . S
N214 C211 1.351 . S
N214 N215 1.365 1_545 S
N215 C212 1.340 1_565 S
N215 N214 1.365 1_565 S
N215 H235 0.863 . S
C216 C211 1.501 . S
C216 H217 0.961 . S
C216 H218 0.961 . S
C216 H219 0.960 . S
H217 C216 0.961 . S
H218 C216 0.961 . S
H219 C216 0.960 . S
C220 N221 1.342 . S
C220 C224 1.401 . S
C220 C225 1.499 . S
N221 Co204 1.989 . S
N221 C220 1.342 . S
N221 N222 1.388 . S
N222 Co205 1.993 . S
N222 N221 1.388 . S
N222 C223 1.346 . S
C223 N222 1.346 . S
C223 C224 1.396 . S
C223 C233 1.510 . S
C224 C220 1.401 . S
C224 C223 1.396 . S
C225 C220 1.499 . S
C225 H226 0.959 . S
C225 H227 0.960 . S
C225 H228 0.989 . S
H226 C225 0.959 . S
H227 C225 0.960 . S
H228 C225 0.989 . S
O229 Co204 1.967 1_565 S
O229 C237 1.258 . S
O230 Co205 1.941 1_565 S
O230 C237 1.266 . S
H231 C233 0.959 . S
H232 C233 0.961 . S
C233 C223 1.510 . S
C233 H231 0.959 . S
C233 H232 0.961 . S
C233 H234 0.960 . S
H234 C233 0.960 . S
H235 N215 0.863 . S
O236 Co204 1.920 . S
O236 C209 1.289 . S
C237 O229 1.258 . S
C237 O230 1.266 . S
Co238 O241 1.970 1_455 S
Co238 N255 1.989 . S
Co238 O263 1.967 . S
Co238 O270 1.920 . S
Co239 O242 1.966 1_455 S
Co239 N248 2.022 . S
Co239 N256 1.993 . S
Co239 O264 1.941 . S
C240 O241 1.258 . S
C240 O242 1.263 . S
O241 Co238 1.970 1_655 S
O241 C240 1.258 . S
O242 Co239 1.966 1_655 S
O242 C240 1.263 . S
C243 O244 1.235 . S
C243 O270 1.289 1_655 S
O244 C243 1.235 . S
C245 C247 1.400 1_655 S
C245 N248 1.351 1_655 S
C245 C250 1.501 . S
C246 C247 1.387 . S
C246 N249 1.341 . S
C247 C245 1.400 1_455 S
C247 C246 1.387 . S
N248 Co239 2.022 . S
N248 C245 1.351 1_455 S
N248 N249 1.365 . S
N249 C246 1.341 . S
N249 N248 1.365 . S
N249 H269 0.862 . S
C250 C245 1.501 . S
C250 H251 0.961 . S
C250 H252 0.961 . S
C250 H253 0.960 . S
H251 C250 0.961 . S
H252 C250 0.961 . S
H253 C250 0.960 . S
C254 N255 1.342 . S
C254 C258 1.401 . S
C254 C259 1.499 . S
N255 Co238 1.989 . S
N255 C254 1.342 . S
N255 N256 1.388 . S
N256 Co239 1.993 . S
N256 N255 1.388 . S
N256 C257 1.346 . S
C257 N256 1.346 . S
C257 C258 1.396 . S
C257 C267 1.510 . S
C258 C254 1.401 . S
C258 C257 1.396 . S
C259 C254 1.499 . S
C259 H260 0.959 . S
C259 H261 0.960 . S
C259 H262 0.961 . S
H260 C259 0.959 . S
H261 C259 0.960 . S
H262 C259 0.961 . S
O263 Co238 1.967 . S
O263 C271 1.258 . S
O264 Co239 1.941 . S
O264 C271 1.266 . S
H265 C267 0.959 . S
H266 C267 0.961 . S
C267 C257 1.510 . S
C267 H265 0.959 . S
C267 H266 0.961 . S
C267 H268 0.960 . S
H268 C267 0.960 . S
H269 N249 0.862 . S
O270 Co238 1.920 . S
O270 C243 1.289 1_455 S
C271 O263 1.258 . S
C271 O264 1.266 . S
H272 C290 0.951 . S
H273 C292 0.951 . S
H274 C294 0.950 . S
H275 C295 0.950 . S
H276 C297 0.950 . S
H277 C300 0.950 . S
H278 C301 0.950 . S
H279 C303 0.950 . S
H280 C304 0.950 . S
H281 C305 0.951 . S
H282 C307 0.951 . S
H283 C309 0.950 . S
H284 C310 0.954 . S
H285 C312 0.950 . S
H286 C315 0.950 . S
H287 C316 0.950 . S
H288 C318 0.950 . S
H289 C319 0.950 . S
C290 H272 0.951 . S
C290 C291 1.366 1_565 S
C290 C292 1.388 . S
C291 C290 1.366 1_545 S
C291 C295 1.385 . S
C292 H273 0.951 . S
C292 C290 1.388 . S
C292 C293 1.366 1_565 S
C293 C292 1.366 1_545 S
C293 C294 1.414 . S
C293 C296 1.499 . S
C294 H274 0.950 . S
C294 C293 1.414 . S
C294 C295 1.374 . S
C295 H275 0.950 . S
C295 C291 1.385 . S
C295 C294 1.374 . S
C296 C293 1.499 . S
C296 C297 1.373 . S
C296 C298 1.389 1_545 S
C297 H276 0.950 . S
C297 C296 1.373 . S
C297 C313 1.377 1_554 S
C298 C296 1.389 1_565 S
C298 C299 1.524 . S
C298 C312 1.377 1_554 S
C299 C298 1.524 . S
C299 C300 1.397 . S
C299 C304 1.363 . S
C300 H277 0.950 . S
C300 C299 1.397 . S
C300 C301 1.334 . S
C301 H278 0.950 . S
C301 C300 1.334 . S
C301 C302 1.287 . S
C302 C301 1.287 . S
C302 C303 1.524 . S
C302 H321 0.913 . S
C303 H279 0.950 . S
C303 C302 1.524 . S
C303 C304 1.415 . S
C304 H280 0.950 . S
C304 C299 1.363 . S
C304 C303 1.415 . S
C305 H281 0.951 . S
C305 C306 1.366 . S
C305 C307 1.388 . S
C306 C305 1.366 . S
C306 C310 1.380 1_545 S
C307 H282 0.951 . S
C307 C305 1.388 . S
C307 C308 1.366 . S
C308 C307 1.366 . S
C308 C309 1.414 1_545 S
C308 C311 1.499 . S
C309 H283 0.950 . S
C309 C308 1.414 1_565 S
C309 C310 1.374 . S
C310 H284 0.954 . S
C310 C306 1.380 1_565 S
C310 C309 1.374 . S
C311 C308 1.499 . S
C311 C312 1.373 1_545 S
C311 C313 1.389 . S
C312 H285 0.950 . S
C312 C298 1.377 1_556 S
C312 C311 1.373 1_565 S
C313 C297 1.377 1_556 S
C313 C311 1.389 . S
C313 C314 1.524 . S
C314 C313 1.524 . S
C314 C315 1.397 . S
C314 C319 1.363 . S
C315 H286 0.950 . S
C315 C314 1.397 . S
C315 C316 1.334 . S
C316 H287 0.950 . S
C316 C315 1.334 . S
C316 C317 1.287 . S
C317 C316 1.287 . S
C317 C318 1.524 . S
C317 H320 0.999 . S
C318 H288 0.950 . S
C318 C317 1.524 . S
C318 C319 1.415 . S
C319 H289 0.950 . S
C319 C314 1.363 . S
C319 C318 1.415 . S
H320 C317 0.999 . S
H321 C302 0.913 . S
H322 C340 0.951 . S
H323 C342 0.951 . S
H324 C344 0.950 . S
H325 C345 0.950 . S
H326 C347 0.950 . S
H327 C350 0.950 . S
H328 C351 0.950 . S
H329 C353 0.950 . S
H330 C354 0.950 . S
H331 C355 0.951 . S
H332 C357 0.951 . S
H333 C359 0.950 1_655 S
H334 C360 0.950 1_655 S
H335 C362 0.950 . S
H336 C365 0.950 . S
H337 C366 0.950 . S
H338 C368 0.950 . S
H339 C369 0.950 . S
C340 H322 0.951 . S
C340 C341 1.366 1_655 S
C340 C342 1.388 . S
C341 C340 1.366 1_455 S
C341 C345 1.385 . S
C342 H323 0.951 . S
C342 C340 1.388 . S
C342 C343 1.366 1_655 S
C343 C342 1.366 1_455 S
C343 C344 1.414 . S
C343 C346 1.499 . S
C344 H324 0.950 . S
C344 C343 1.414 . S
C344 C345 1.374 . S
C345 H325 0.950 . S
C345 C341 1.385 . S
C345 C344 1.374 . S
C346 C343 1.499 . S
C346 C347 1.373 . S
C346 C348 1.389 1_455 S
C347 H326 0.950 . S
C347 C346 1.373 . S
C347 C363 1.377 . S
C348 C346 1.389 1_655 S
C348 C349 1.524 . S
C348 C362 1.377 . S
C349 C348 1.524 . S
C349 C350 1.397 . S
C349 C354 1.363 . S
C350 H327 0.950 . S
C350 C349 1.397 . S
C350 C351 1.334 . S
C351 H328 0.950 . S
C351 C350 1.334 . S
C351 C352 1.287 . S
C352 C351 1.287 . S
C352 C353 1.524 . S
C352 H371 0.913 . S
C353 H329 0.950 . S
C353 C352 1.524 . S
C353 C354 1.415 . S
C354 H330 0.950 . S
C354 C349 1.363 . S
C354 C353 1.415 . S
C355 H331 0.951 . S
C355 C356 1.366 . S
C355 C357 1.388 . S
C356 C355 1.366 . S
C356 C360 1.385 . S
C357 H332 0.951 . S
C357 C355 1.388 . S
C357 C358 1.366 . S
C358 C357 1.366 . S
C358 C359 1.414 . S
C358 C361 1.499 . S
C359 H333 0.950 1_455 S
C359 C358 1.414 . S
C359 C360 1.374 . S
C360 H334 0.950 1_455 S
C360 C356 1.385 . S
C360 C359 1.374 . S
C361 C358 1.499 . S
C361 C362 1.373 1_455 S
C361 C363 1.389 . S
C362 H335 0.950 . S
C362 C348 1.377 . S
C362 C361 1.373 1_655 S
C363 C347 1.377 . S
C363 C361 1.389 . S
C363 C364 1.524 . S
C364 C363 1.524 . S
C364 C365 1.397 . S
C364 C369 1.363 . S
C365 H336 0.950 . S
C365 C364 1.397 . S
C365 C366 1.334 . S
C366 H337 0.950 . S
C366 C365 1.334 . S
C366 C367 1.287 . S
C367 C366 1.287 . S
C367 C368 1.524 . S
C367 H370 0.999 . S
C368 H338 0.950 . S
C368 C367 1.524 . S
C368 C369 1.415 . S
C369 H339 0.950 . S
C369 C364 1.363 . S
C369 C368 1.415 . S
H370 C367 0.999 . S
H371 C352 0.913 . S
H372 C390 0.951 . S
H373 C392 0.951 . S
H374 C394 0.950 1_565 S
H375 C395 0.950 1_565 S
H376 C397 0.950 . S
H377 C400 0.950 . S
H378 C401 0.950 . S
H379 C403 0.950 . S
H380 C404 0.950 . S
H381 C405 0.951 . S
H382 C407 0.963 . S
H383 C409 0.950 . S
H384 C410 0.950 . S
H385 C412 0.950 . S
H386 C415 0.950 . S
H387 C416 0.950 . S
H388 C418 0.950 . S
H389 C419 0.950 . S
C390 H372 0.951 . S
C390 C391 1.366 . S
C390 C392 1.388 . S
C391 C390 1.366 . S
C391 C395 1.385 . S
C392 H373 0.951 . S
C392 C390 1.388 . S
C392 C393 1.366 . S
C393 C392 1.366 . S
C393 C394 1.414 . S
C393 C396 1.499 . S
C394 H374 0.950 1_545 S
C394 C393 1.414 . S
C394 C395 1.374 . S
C395 H375 0.950 1_545 S
C395 C391 1.385 . S
C395 C394 1.374 . S
C396 C393 1.499 . S
C396 C397 1.373 1_545 S
C396 C398 1.389 . S
C397 H376 0.950 . S
C397 C396 1.373 1_565 S
C397 C413 1.377 1_554 S
C398 C396 1.389 . S
C398 C399 1.524 . S
C398 C412 1.377 1_554 S
C399 C398 1.524 . S
C399 C400 1.397 . S
C399 C404 1.363 . S
C400 H377 0.950 . S
C400 C399 1.397 . S
C400 C401 1.334 . S
C401 H378 0.950 . S
C401 C400 1.334 . S
C401 C402 1.287 . S
C402 C401 1.287 . S
C402 C403 1.524 . S
C402 H421 0.913 . S
C403 H379 0.950 . S
C403 C402 1.524 . S
C403 C404 1.415 . S
C404 H380 0.950 . S
C404 C399 1.363 . S
C404 C403 1.415 . S
C405 H381 0.951 . S
C405 C406 1.366 1_565 S
C405 C407 1.388 . S
C406 C405 1.366 1_545 S
C406 C410 1.385 . S
C407 H382 0.963 . S
C407 C405 1.388 . S
C407 C408 1.353 1_565 S
C408 C407 1.353 1_545 S
C408 C409 1.414 . S
C408 C411 1.499 . S
C409 H383 0.950 . S
C409 C408 1.414 . S
C409 C410 1.374 . S
C410 H384 0.950 . S
C410 C406 1.385 . S
C410 C409 1.374 . S
C411 C408 1.499 . S
C411 C412 1.373 . S
C411 C413 1.389 1_545 S
C412 H385 0.950 . S
C412 C398 1.377 1_556 S
C412 C411 1.373 . S
C413 C397 1.377 1_556 S
C413 C411 1.389 1_565 S
C413 C414 1.524 . S
C414 C413 1.524 . S
C414 C415 1.397 . S
C414 C419 1.363 . S
C415 H386 0.950 . S
C415 C414 1.397 . S
C415 C416 1.334 . S
C416 H387 0.950 . S
C416 C415 1.334 . S
C416 C417 1.287 . S
C417 C416 1.287 . S
C417 C418 1.524 . S
C417 H420 0.999 . S
C418 H388 0.950 . S
C418 C417 1.524 . S
C418 C419 1.415 . S
C419 H389 0.950 . S
C419 C414 1.363 . S
C419 C418 1.415 . S
H420 C417 0.999 . S
H421 C402 0.913 . S
H422 C440 0.951 . S
H423 C442 0.951 . S
H424 C444 0.929 1_655 S
H425 C445 0.950 1_655 S
H426 C447 0.950 . S
H427 C450 0.924 1_655 S
H428 C451 0.977 . S
H429 C453 0.950 . S
H430 C454 0.950 . S
H431 C455 0.951 . S
H432 C457 0.951 . S
H433 C459 0.950 . S
H434 C460 0.950 . S
H435 C462 0.950 . S
H436 C465 0.950 . S
H437 C466 0.950 . S
H438 C468 0.950 . S
H439 C469 0.950 . S
C440 H422 0.951 . S
C440 C441 1.366 . S
C440 C442 1.388 . S
C441 C440 1.366 . S
C441 C445 1.385 . S
C442 H423 0.951 . S
C442 C440 1.388 . S
C442 C443 1.366 . S
C443 C442 1.366 . S
C443 C444 1.434 . S
C443 C446 1.499 . S
C444 H424 0.929 1_455 S
C444 C443 1.434 . S
C444 C445 1.375 . S
C445 H425 0.950 1_455 S
C445 C441 1.385 . S
C445 C444 1.375 . S
C446 C443 1.499 . S
C446 C447 1.373 . S
C446 C448 1.389 . S
C447 H426 0.950 . S
C447 C446 1.373 . S
C447 C463 1.377 . S
C448 C446 1.389 . S
C448 C449 1.524 . S
C448 C462 1.377 . S
C449 C448 1.524 . S
C449 C450 1.424 . S
C449 C454 1.363 . S
C450 H427 0.924 1_455 S
C450 C449 1.424 . S
C450 C451 1.332 1_455 S
C451 H428 0.977 . S
C451 C450 1.332 1_655 S
C451 C452 1.262 1_655 S
C452 C451 1.262 1_455 S
C452 C453 1.524 . S
C452 H471 0.913 . S
C453 H429 0.950 . S
C453 C452 1.524 . S
C453 C454 1.415 . S
C454 H430 0.950 . S
C454 C449 1.363 . S
C454 C453 1.415 . S
C455 H431 0.951 . S
C455 C456 1.366 1_655 S
C455 C457 1.388 . S
C456 C455 1.366 1_455 S
C456 C460 1.385 . S
C457 H432 0.951 . S
C457 C455 1.388 . S
C457 C458 1.366 1_655 S
C458 C457 1.366 1_455 S
C458 C459 1.414 . S
C458 C461 1.499 . S
C459 H433 0.950 . S
C459 C458 1.414 . S
C459 C460 1.374 . S
C460 H434 0.950 . S
C460 C456 1.385 . S
C460 C459 1.374 . S
C461 C458 1.499 . S
C461 C462 1.373 . S
C461 C463 1.389 . S
C462 H435 0.950 . S
C462 C448 1.377 . S
C462 C461 1.373 . S
C463 C447 1.377 . S
C463 C461 1.389 . S
C463 C464 1.524 . S
C464 C463 1.524 . S
C464 C465 1.397 . S
C464 C469 1.363 1_455 S
C465 H436 0.950 . S
C465 C464 1.397 . S
C465 C466 1.334 . S
C466 H437 0.950 . S
C466 C465 1.334 . S
C466 C467 1.287 . S
C467 C466 1.287 . S
C467 C468 1.524 1_455 S
C467 H470 0.999 . S
C468 H438 0.950 . S
C468 C467 1.524 1_655 S
C468 C469 1.415 . S
C469 H439 0.950 . S
C469 C464 1.363 1_655 S
C469 C468 1.415 . S
H470 C467 0.999 . S
H471 C452 0.913 . S
H472 C490 0.951 . S
H473 C492 0.951 . S
H474 C494 0.950 . S
H475 C495 0.950 . S
H476 C497 0.950 . S
H477 C500 0.950 . S
H478 C501 0.950 . S
H479 C503 0.950 . S
H480 C504 0.950 . S
H481 C505 0.951 . S
H482 C507 0.951 . S
H483 C509 0.950 . S
H484 C510 0.950 . S
H485 C512 0.950 . S
H486 C515 0.950 . S
H487 C516 0.950 . S
H488 C518 0.950 . S
H489 C519 0.950 . S
C490 H472 0.951 . S
C490 C491 1.366 . S
C490 C492 1.388 . S
C491 C490 1.366 . S
C491 C495 1.385 . S
C492 H473 0.951 . S
C492 C490 1.388 . S
C492 C493 1.366 . S
C493 C492 1.366 . S
C493 C494 1.414 . S
C493 C496 1.499 . S
C494 H474 0.950 . S
C494 C493 1.414 . S
C494 C495 1.374 . S
C495 H475 0.950 . S
C495 C491 1.385 . S
C495 C494 1.374 . S
C496 C493 1.499 . S
C496 C497 1.373 . S
C496 C498 1.389 . S
C497 H476 0.950 . S
C497 C496 1.373 . S
C497 C513 1.377 . S
C498 C496 1.389 . S
C498 C499 1.524 . S
C498 C512 1.377 . S
C499 C498 1.524 . S
C499 C500 1.397 . S
C499 C504 1.363 . S
C500 H477 0.950 . S
C500 C499 1.397 . S
C500 C501 1.334 . S
C501 H478 0.950 . S
C501 C500 1.334 . S
C501 C502 1.287 . S
C502 C501 1.287 . S
C502 C503 1.524 . S
C502 H521 0.913 . S
C503 H479 0.950 . S
C503 C502 1.524 . S
C503 C504 1.415 . S
C504 H480 0.950 . S
C504 C499 1.363 . S
C504 C503 1.415 . S
C505 H481 0.951 . S
C505 C506 1.366 . S
C505 C507 1.388 . S
C506 C505 1.366 . S
C506 C510 1.385 . S
C507 H482 0.951 . S
C507 C505 1.388 . S
C507 C508 1.366 . S
C508 C507 1.366 . S
C508 C509 1.414 . S
C508 C511 1.499 . S
C509 H483 0.950 . S
C509 C508 1.414 . S
C509 C510 1.374 . S
C510 H484 0.950 . S
C510 C506 1.385 . S
C510 C509 1.374 . S
C511 C508 1.499 . S
C511 C512 1.373 . S
C511 C513 1.389 . S
C512 H485 0.950 . S
C512 C498 1.377 . S
C512 C511 1.373 . S
C513 C497 1.377 . S
C513 C511 1.389 . S
C513 C514 1.524 . S
C514 C513 1.524 . S
C514 C515 1.397 . S
C514 C519 1.363 . S
C515 H486 0.950 . S
C515 C514 1.397 . S
C515 C516 1.334 . S
C516 H487 0.950 . S
C516 C515 1.334 . S
C516 C517 1.287 . S
C517 C516 1.287 . S
C517 C518 1.524 . S
C517 H520 0.999 . S
C518 H488 0.950 . S
C518 C517 1.524 . S
C518 C519 1.415 . S
C519 H489 0.950 . S
C519 C514 1.363 . S
C519 C518 1.415 . S
H520 C517 0.999 . S
H521 C502 0.913 . S
H522 C540 0.951 . S
H523 C542 0.951 . S
H524 C544 0.950 . S
H525 C545 0.950 . S
H526 C547 0.950 . S
H527 C550 0.950 . S
H528 C551 0.950 . S
H529 C553 0.950 . S
H530 C554 0.950 . S
H531 C555 0.951 . S
H532 C557 0.951 . S
H533 C559 0.950 . S
H534 C560 0.950 . S
H535 C562 0.950 . S
H536 C565 0.950 . S
H537 C566 0.950 . S
H538 C568 0.950 1_455 S
H539 C569 0.950 . S
C540 H522 0.951 . S
C540 C541 1.366 . S
C540 C542 1.388 . S
C541 C540 1.366 . S
C541 C545 1.385 . S
C542 H523 0.951 . S
C542 C540 1.388 . S
C542 C543 1.366 . S
C543 C542 1.366 . S
C543 C544 1.414 . S
C543 C546 1.499 . S
C544 H524 0.950 . S
C544 C543 1.414 . S
C544 C545 1.374 . S
C545 H525 0.950 . S
C545 C541 1.385 . S
C545 C544 1.374 . S
C546 C543 1.499 . S
C546 C547 1.373 . S
C546 C548 1.389 . S
C547 H526 0.950 . S
C547 C546 1.373 . S
C547 C563 1.377 . S
C548 C546 1.389 . S
C548 C549 1.524 . S
C548 C562 1.377 . S
C549 C548 1.524 . S
C549 C550 1.397 . S
C549 C554 1.363 . S
C550 H527 0.950 . S
C550 C549 1.397 . S
C550 C551 1.334 . S
C551 H528 0.950 . S
C551 C550 1.334 . S
C551 C552 1.287 . S
C552 C551 1.287 . S
C552 C553 1.524 . S
C552 H571 0.913 . S
C553 H529 0.950 . S
C553 C552 1.524 . S
C553 C554 1.415 . S
C554 H530 0.950 . S
C554 C549 1.363 . S
C554 C553 1.415 . S
C555 H531 0.951 . S
C555 C556 1.366 . S
C555 C557 1.388 . S
C556 C555 1.366 . S
C556 C560 1.385 . S
C557 H532 0.951 . S
C557 C555 1.388 . S
C557 C558 1.366 . S
C558 C557 1.366 . S
C558 C559 1.414 . S
C558 C561 1.499 . S
C559 H533 0.950 . S
C559 C558 1.414 . S
C559 C560 1.374 . S
C560 H534 0.950 . S
C560 C556 1.385 . S
C560 C559 1.374 . S
C561 C558 1.499 . S
C561 C562 1.373 . S
C561 C563 1.389 . S
C562 H535 0.950 . S
C562 C548 1.377 . S
C562 C561 1.373 . S
C563 C547 1.377 . S
C563 C561 1.389 . S
C563 C564 1.524 . S
C564 C563 1.524 . S
C564 C565 1.397 . S
C564 C569 1.363 . S
C565 H536 0.950 . S
C565 C564 1.397 . S
C565 C566 1.334 . S
C566 H537 0.950 . S
C566 C565 1.334 . S
C566 C567 1.287 . S
C567 C566 1.287 . S
C567 C568 1.524 . S
C567 H570 0.999 1_655 S
C568 H538 0.950 1_655 S
C568 C567 1.524 . S
C568 C569 1.415 . S
C569 H539 0.950 . S
C569 C564 1.363 . S
C569 C568 1.415 . S
H570 C567 0.999 1_455 S
H571 C552 0.913 . S
H572 C590 0.951 . S
H573 C592 0.951 . S
H574 C594 0.950 . S
H575 C595 0.950 . S
H576 C597 0.950 . S
H577 C600 0.950 . S
H578 C601 0.950 . S
H579 C603 0.950 . S
H580 C604 0.950 . S
H581 C605 0.951 . S
H582 C607 0.951 . S
H583 C609 0.950 . S
H584 C610 0.950 . S
H585 C612 0.950 . S
H586 C615 0.950 . S
H587 C616 0.950 . S
H588 C618 0.950 . S
H589 C619 0.950 . S
C590 H572 0.951 . S
C590 C591 1.366 . S
C590 C592 1.388 . S
C591 C590 1.366 . S
C591 C595 1.385 . S
C592 H573 0.951 . S
C592 C590 1.388 . S
C592 C593 1.366 . S
C593 C592 1.366 . S
C593 C594 1.414 . S
C593 C596 1.499 . S
C594 H574 0.950 . S
C594 C593 1.414 . S
C594 C595 1.374 . S
C595 H575 0.950 . S
C595 C591 1.385 . S
C595 C594 1.374 . S
C596 C593 1.499 . S
C596 C597 1.373 . S
C596 C598 1.389 . S
C597 H576 0.950 . S
C597 C596 1.373 . S
C597 C613 1.377 . S
C598 C596 1.389 . S
C598 C599 1.524 . S
C598 C612 1.377 . S
C599 C598 1.524 . S
C599 C600 1.397 . S
C599 C604 1.363 . S
C600 H577 0.950 . S
C600 C599 1.397 . S
C600 C601 1.334 . S
C601 H578 0.950 . S
C601 C600 1.334 . S
C601 C602 1.287 . S
C602 C601 1.287 . S
C602 C603 1.524 . S
C602 H621 0.913 . S
C603 H579 0.950 . S
C603 C602 1.524 . S
C603 C604 1.415 . S
C604 H580 0.950 . S
C604 C599 1.363 . S
C604 C603 1.415 . S
C605 H581 0.951 . S
C605 C606 1.366 . S
C605 C607 1.388 . S
C606 C605 1.366 . S
C606 C610 1.385 . S
C607 H582 0.951 . S
C607 C605 1.388 . S
C607 C608 1.366 . S
C608 C607 1.366 . S
C608 C609 1.414 . S
C608 C611 1.499 . S
C609 H583 0.950 . S
C609 C608 1.414 . S
C609 C610 1.374 . S
C610 H584 0.950 . S
C610 C606 1.385 . S
C610 C609 1.374 . S
C611 C608 1.499 . S
C611 C612 1.373 . S
C611 C613 1.389 . S
C612 H585 0.950 . S
C612 C598 1.377 . S
C612 C611 1.373 . S
C613 C597 1.377 . S
C613 C611 1.389 . S
C613 C614 1.524 . S
C614 C613 1.524 . S
C614 C615 1.397 . S
C614 C619 1.363 . S
C615 H586 0.950 . S
C615 C614 1.397 . S
C615 C616 1.334 . S
C616 H587 0.950 . S
C616 C615 1.334 . S
C616 C617 1.287 . S
C617 C616 1.287 . S
C617 C618 1.524 . S
C617 H620 0.999 . S
C618 H588 0.950 . S
C618 C617 1.524 . S
C618 C619 1.415 . S
C619 H589 0.950 . S
C619 C614 1.363 . S
C619 C618 1.415 . S
H620 C617 0.999 . S
H621 C602 0.913 . S
H622 C640 0.951 . S
H623 C642 0.951 . S
H624 C644 0.950 . S
H625 C645 0.950 . S
H626 C647 0.950 . S
H627 C650 0.950 . S
H628 C651 0.950 . S
H629 C653 0.950 . S
H630 C654 0.950 . S
H631 C655 0.951 . S
H632 C657 0.951 . S
H633 C659 0.950 . S
H634 C660 0.950 . S
H635 C662 0.950 . S
H636 C665 0.950 . S
H637 C666 0.950 . S
H638 C668 0.950 . S
H639 C669 0.950 . S
C640 H622 0.951 . S
C640 C641 1.366 . S
C640 C642 1.388 . S
C641 C640 1.366 . S
C641 C645 1.385 . S
C642 H623 0.951 . S
C642 C640 1.388 . S
C642 C643 1.366 . S
C643 C642 1.366 . S
C643 C644 1.414 . S
C643 C646 1.499 . S
C644 H624 0.950 . S
C644 C643 1.414 . S
C644 C645 1.374 . S
C645 H625 0.950 . S
C645 C641 1.385 . S
C645 C644 1.374 . S
C646 C643 1.499 . S
C646 C647 1.373 . S
C646 C648 1.389 . S
C647 H626 0.950 . S
C647 C646 1.373 . S
C647 C663 1.377 . S
C648 C646 1.389 . S
C648 C649 1.524 . S
C648 C662 1.377 . S
C649 C648 1.524 . S
C649 C650 1.397 . S
C649 C654 1.363 . S
C650 H627 0.950 . S
C650 C649 1.397 . S
C650 C651 1.334 . S
C651 H628 0.950 . S
C651 C650 1.334 . S
C651 C652 1.287 . S
C652 C651 1.287 . S
C652 C653 1.524 . S
C652 H671 0.913 . S
C653 H629 0.950 . S
C653 C652 1.524 . S
C653 C654 1.415 . S
C654 H630 0.950 . S
C654 C649 1.363 . S
C654 C653 1.415 . S
C655 H631 0.951 . S
C655 C656 1.366 . S
C655 C657 1.388 . S
C656 C655 1.366 . S
C656 C660 1.385 . S
C657 H632 0.951 . S
C657 C655 1.388 . S
C657 C658 1.366 . S
C658 C657 1.366 . S
C658 C659 1.414 . S
C658 C661 1.499 . S
C659 H633 0.950 . S
C659 C658 1.414 . S
C659 C660 1.374 . S
C660 H634 0.950 . S
C660 C656 1.385 . S
C660 C659 1.374 . S
C661 C658 1.499 . S
C661 C662 1.373 . S
C661 C663 1.389 . S
C662 H635 0.950 . S
C662 C648 1.377 . S
C662 C661 1.373 . S
C663 C647 1.377 . S
C663 C661 1.389 . S
C663 C664 1.524 . S
C664 C663 1.524 . S
C664 C665 1.397 . S
C664 C669 1.363 . S
C665 H636 0.950 . S
C665 C664 1.397 . S
C665 C666 1.334 . S
C666 H637 0.950 . S
C666 C665 1.334 . S
C666 C667 1.287 . S
C667 C666 1.287 . S
C667 C668 1.524 . S
C667 H670 0.999 . S
C668 H638 0.950 . S
C668 C667 1.524 . S
C668 C669 1.415 . S
C669 H639 0.950 . S
C669 C664 1.363 . S
C669 C668 1.415 . S
H670 C667 0.999 . S
H671 C652 0.913 . S
H672 C690 0.951 . S
H673 C692 0.951 . S
H674 C694 0.950 . S
H675 C695 0.950 . S
H676 C697 0.950 . S
H677 C700 0.950 . S
H678 C701 0.950 1_455 S
H679 C703 0.950 . S
H680 C704 0.950 . S
H681 C705 0.951 . S
H682 C707 0.951 . S
H683 C709 0.950 . S
H684 C710 0.950 . S
H685 C712 0.950 . S
H686 C715 0.950 . S
H687 C716 0.950 . S
H688 C718 0.950 . S
H689 C719 0.950 . S
C690 H672 0.951 . S
C690 C691 1.366 . S
C690 C692 1.388 . S
C691 C690 1.366 . S
C691 C695 1.385 . S
C692 H673 0.951 . S
C692 C690 1.388 . S
C692 C693 1.366 . S
C693 C692 1.366 . S
C693 C694 1.414 . S
C693 C696 1.499 . S
C694 H674 0.950 . S
C694 C693 1.414 . S
C694 C695 1.374 . S
C695 H675 0.950 . S
C695 C691 1.385 . S
C695 C694 1.374 . S
C696 C693 1.499 . S
C696 C697 1.373 . S
C696 C698 1.389 . S
C697 H676 0.950 . S
C697 C696 1.373 . S
C697 C713 1.377 . S
C698 C696 1.389 . S
C698 C699 1.524 . S
C698 C712 1.377 . S
C699 C698 1.524 . S
C699 C700 1.397 . S
C699 C704 1.363 . S
C700 H677 0.950 . S
C700 C699 1.397 . S
C700 C701 1.334 . S
C701 H678 0.950 1_655 S
C701 C700 1.334 . S
C701 C702 1.287 1_655 S
C702 C701 1.287 1_455 S
C702 C703 1.524 . S
C702 H721 0.913 . S
C703 H679 0.950 . S
C703 C702 1.524 . S
C703 C704 1.415 1_455 S
C704 H680 0.950 . S
C704 C699 1.363 . S
C704 C703 1.415 1_655 S
C705 H681 0.951 . S
C705 C706 1.366 . S
C705 C707 1.388 . S
C706 C705 1.366 . S
C706 C710 1.385 . S
C707 H682 0.951 . S
C707 C705 1.388 . S
C707 C708 1.366 . S
C708 C707 1.366 . S
C708 C709 1.414 . S
C708 C711 1.499 . S
C709 H683 0.950 . S
C709 C708 1.414 . S
C709 C710 1.374 . S
C710 H684 0.950 . S
C710 C706 1.385 . S
C710 C709 1.374 . S
C711 C708 1.499 . S
C711 C712 1.373 . S
C711 C713 1.389 . S
C712 H685 0.950 . S
C712 C698 1.377 . S
C712 C711 1.373 . S
C713 C697 1.377 . S
C713 C711 1.389 . S
C713 C714 1.524 . S
C714 C713 1.524 . S
C714 C715 1.397 . S
C714 C719 1.363 . S
C715 H686 0.950 . S
C715 C714 1.397 . S
C715 C716 1.334 . S
C716 H687 0.950 . S
C716 C715 1.334 . S
C716 C717 1.287 . S
C717 C716 1.287 . S
C717 C718 1.524 . S
C717 H720 0.999 . S
C718 H688 0.950 . S
C718 C717 1.524 . S
C718 C719 1.415 . S
C719 H689 0.950 . S
C719 C714 1.363 . S
C719 C718 1.415 . S
H720 C717 0.999 . S
H721 C702 0.913 . S
H722 C740 0.951 . S
H723 C742 0.951 . S
H724 C744 0.950 . S
H725 C745 0.950 . S
H726 C747 0.950 . S
H727 C750 0.950 . S
H728 C751 0.950 . S
H729 C753 0.950 . S
H730 C754 0.950 . S
H731 C755 0.951 . S
H732 C757 0.951 . S
H733 C759 0.950 . S
H734 C760 0.950 . S
H735 C762 0.950 . S
H736 C765 0.950 . S
H737 C766 0.950 . S
H738 C768 0.950 . S
H739 C769 0.950 . S
C740 H722 0.951 . S
C740 C741 1.366 . S
C740 C742 1.388 . S
C741 C740 1.366 . S
C741 C745 1.385 . S
C742 H723 0.951 . S
C742 C740 1.388 . S
C742 C743 1.366 . S
C743 C742 1.366 . S
C743 C744 1.414 . S
C743 C746 1.499 . S
C744 H724 0.950 . S
C744 C743 1.414 . S
C744 C745 1.374 . S
C745 H725 0.950 . S
C745 C741 1.385 . S
C745 C744 1.374 . S
C746 C743 1.499 . S
C746 C747 1.373 . S
C746 C748 1.389 . S
C747 H726 0.950 . S
C747 C746 1.373 . S
C747 C763 1.377 . S
C748 C746 1.389 . S
C748 C749 1.524 . S
C748 C762 1.377 . S
C749 C748 1.524 . S
C749 C750 1.397 . S
C749 C754 1.363 . S
C750 H727 0.950 . S
C750 C749 1.397 . S
C750 C751 1.334 . S
C751 H728 0.950 . S
C751 C750 1.334 . S
C751 C752 1.287 . S
C752 C751 1.287 . S
C752 C753 1.524 . S
C752 H771 0.913 . S
C753 H729 0.950 . S
C753 C752 1.524 . S
C753 C754 1.415 . S
C754 H730 0.950 . S
C754 C749 1.363 . S
C754 C753 1.415 . S
C755 H731 0.951 . S
C755 C756 1.366 . S
C755 C757 1.388 . S
C756 C755 1.366 . S
C756 C760 1.385 . S
C757 H732 0.951 . S
C757 C755 1.388 . S
C757 C758 1.366 . S
C758 C757 1.366 . S
C758 C759 1.414 . S
C758 C761 1.499 . S
C759 H733 0.950 . S
C759 C758 1.414 . S
C759 C760 1.374 . S
C760 H734 0.950 . S
C760 C756 1.385 . S
C760 C759 1.374 . S
C761 C758 1.499 . S
C761 C762 1.373 . S
C761 C763 1.389 . S
C762 H735 0.950 . S
C762 C748 1.377 . S
C762 C761 1.373 . S
C763 C747 1.377 . S
C763 C761 1.389 . S
C763 C764 1.524 . S
C764 C763 1.524 . S
C764 C765 1.397 . S
C764 C769 1.363 . S
C765 H736 0.950 . S
C765 C764 1.397 . S
C765 C766 1.334 . S
C766 H737 0.950 . S
C766 C765 1.334 . S
C766 C767 1.287 . S
C767 C766 1.287 . S
C767 C768 1.524 . S
C767 H770 0.999 . S
C768 H738 0.950 . S
C768 C767 1.524 . S
C768 C769 1.415 . S
C769 H739 0.950 . S
C769 C764 1.363 . S
C769 C768 1.415 . S
H770 C767 0.999 . S
H771 C752 0.913 . S
H772 C790 0.951 . S
H773 C792 0.951 . S
H774 C794 0.950 . S
H775 C795 0.950 . S
H776 C797 0.950 . S
H777 C800 0.950 . S
H778 C801 0.950 . S
H779 C803 0.950 . S
H780 C804 0.950 . S
H781 C805 0.951 . S
H782 C807 0.951 . S
H783 C809 0.950 . S
H784 C810 0.950 . S
H785 C812 0.950 . S
H786 C815 0.950 . S
H787 C816 0.950 . S
H788 C818 0.950 . S
H789 C819 0.950 . S
C790 H772 0.951 . S
C790 C791 1.366 . S
C790 C792 1.388 . S
C791 C790 1.366 . S
C791 C795 1.385 . S
C792 H773 0.951 . S
C792 C790 1.388 . S
C792 C793 1.366 . S
C793 C792 1.366 . S
C793 C794 1.414 . S
C793 C796 1.499 . S
C794 H774 0.950 . S
C794 C793 1.414 . S
C794 C795 1.374 . S
C795 H775 0.950 . S
C795 C791 1.385 . S
C795 C794 1.374 . S
C796 C793 1.499 . S
C796 C797 1.373 . S
C796 C798 1.389 . S
C797 H776 0.950 . S
C797 C796 1.373 . S
C797 C813 1.377 . S
C798 C796 1.389 . S
C798 C799 1.524 . S
C798 C812 1.377 . S
C799 C798 1.524 . S
C799 C800 1.397 . S
C799 C804 1.363 . S
C800 H777 0.950 . S
C800 C799 1.397 . S
C800 C801 1.334 . S
C801 H778 0.950 . S
C801 C800 1.334 . S
C801 C802 1.287 . S
C802 C801 1.287 . S
C802 C803 1.524 . S
C802 H821 0.913 . S
C803 H779 0.950 . S
C803 C802 1.524 . S
C803 C804 1.415 . S
C804 H780 0.950 . S
C804 C799 1.363 . S
C804 C803 1.415 . S
C805 H781 0.951 . S
C805 C806 1.366 . S
C805 C807 1.388 . S
C806 C805 1.366 . S
C806 C810 1.385 . S
C807 H782 0.951 . S
C807 C805 1.388 . S
C807 C808 1.366 . S
C808 C807 1.366 . S
C808 C809 1.414 . S
C808 C811 1.499 . S
C809 H783 0.950 . S
C809 C808 1.414 . S
C809 C810 1.374 . S
C810 H784 0.950 . S
C810 C806 1.385 . S
C810 C809 1.374 . S
C811 C808 1.499 . S
C811 C812 1.373 . S
C811 C813 1.389 . S
C812 H785 0.950 . S
C812 C798 1.377 . S
C812 C811 1.373 . S
C813 C797 1.377 . S
C813 C811 1.389 . S
C813 C814 1.524 . S
C814 C813 1.524 . S
C814 C815 1.397 . S
C814 C819 1.363 . S
C815 H786 0.950 . S
C815 C814 1.397 . S
C815 C816 1.334 . S
C816 H787 0.950 . S
C816 C815 1.334 . S
C816 C817 1.287 . S
C817 C816 1.287 . S
C817 C818 1.524 . S
C817 H820 0.999 . S
C818 H788 0.950 . S
C818 C817 1.524 . S
C818 C819 1.415 . S
C819 H789 0.950 . S
C819 C814 1.363 . S
C819 C818 1.415 . S
H820 C817 0.999 . S
H821 C802 0.913 . S
H822 C840 0.951 . S
H823 C842 0.951 . S
H824 C844 0.950 . S
H825 C845 0.950 . S
H826 C847 0.950 . S
H827 C850 0.950 . S
H828 C851 0.950 . S
H829 C853 0.950 . S
H830 C854 0.950 . S
H831 C855 0.951 . S
H832 C857 0.951 . S
H833 C859 0.950 . S
H834 C860 0.950 . S
H835 C862 0.950 . S
H836 C865 0.950 . S
H837 C866 0.950 . S
H838 C868 0.950 . S
H839 C869 0.950 . S
C840 H822 0.951 . S
C840 C841 1.366 . S
C840 C842 1.388 . S
C841 C840 1.366 . S
C841 C845 1.385 . S
C842 H823 0.951 . S
C842 C840 1.388 . S
C842 C843 1.366 . S
C843 C842 1.366 . S
C843 C844 1.414 . S
C843 C846 1.499 . S
C844 H824 0.950 . S
C844 C843 1.414 . S
C844 C845 1.374 . S
C845 H825 0.950 . S
C845 C841 1.385 . S
C845 C844 1.374 . S
C846 C843 1.499 . S
C846 C847 1.373 . S
C846 C848 1.389 . S
C847 H826 0.950 . S
C847 C846 1.373 . S
C847 C863 1.377 . S
C848 C846 1.389 . S
C848 C849 1.524 . S
C848 C862 1.377 . S
C849 C848 1.524 . S
C849 C850 1.397 . S
C849 C854 1.363 . S
C850 H827 0.950 . S
C850 C849 1.397 . S
C850 C851 1.334 . S
C851 H828 0.950 . S
C851 C850 1.334 . S
C851 C852 1.287 . S
C852 C851 1.287 . S
C852 C853 1.524 . S
C852 H871 0.913 . S
C853 H829 0.950 . S
C853 C852 1.524 . S
C853 C854 1.415 . S
C854 H830 0.950 . S
C854 C849 1.363 . S
C854 C853 1.415 . S
C855 H831 0.951 . S
C855 C856 1.366 . S
C855 C857 1.388 . S
C856 C855 1.366 . S
C856 C860 1.385 . S
C857 H832 0.951 . S
C857 C855 1.388 . S
C857 C858 1.366 . S
C858 C857 1.366 . S
C858 C859 1.414 . S
C858 C861 1.499 . S
C859 H833 0.950 . S
C859 C858 1.414 . S
C859 C860 1.374 . S
C860 H834 0.950 . S
C860 C856 1.385 . S
C860 C859 1.374 . S
C861 C858 1.499 . S
C861 C862 1.373 . S
C861 C863 1.389 . S
C862 H835 0.950 . S
C862 C848 1.377 . S
C862 C861 1.373 . S
C863 C847 1.377 . S
C863 C861 1.389 . S
C863 C864 1.524 . S
C864 C863 1.524 . S
C864 C865 1.397 . S
C864 C869 1.363 . S
C865 H836 0.950 . S
C865 C864 1.397 . S
C865 C866 1.334 . S
C866 H837 0.950 . S
C866 C865 1.334 . S
C866 C867 1.287 . S
C867 C866 1.287 . S
C867 C868 1.524 . S
C867 H870 0.999 . S
C868 H838 0.950 . S
C868 C867 1.524 . S
C868 C869 1.415 . S
C869 H839 0.950 . S
C869 C864 1.363 . S
C869 C868 1.415 . S
H870 C867 0.999 . S
H871 C852 0.913 . S
H872 C890 0.951 . S
H873 C892 0.951 . S
H874 C894 0.950 1_565 S
H875 C895 0.950 . S
H876 C897 0.950 . S
H877 C900 0.950 . S
H878 C901 0.950 . S
H879 C903 0.950 . S
H880 C904 0.950 . S
H881 C905 0.951 . S
H882 C907 0.951 . S
H883 C909 0.950 . S
H884 C910 0.950 . S
H885 C912 0.950 1_655 S
H886 C915 0.950 . S
H887 C916 0.950 . S
H888 C918 0.950 . S
H889 C919 0.950 . S
C890 H872 0.951 . S
C890 C891 1.366 . S
C890 C892 1.388 . S
C891 C890 1.366 . S
C891 C895 1.385 . S
C892 H873 0.951 . S
C892 C890 1.388 . S
C892 C893 1.366 . S
C893 C892 1.366 . S
C893 C894 1.414 . S
C893 C896 1.499 . S
C894 H874 0.950 1_545 S
C894 C893 1.414 . S
C894 C895 1.374 . S
C895 H875 0.950 . S
C895 C891 1.385 . S
C895 C894 1.374 . S
C896 C893 1.499 . S
C896 C897 1.373 . S
C896 C898 1.389 . S
C897 H876 0.950 . S
C897 C896 1.373 . S
C897 C913 1.377 . S
C898 C896 1.389 . S
C898 C899 1.524 . S
C898 C912 1.377 . S
C899 C898 1.524 . S
C899 C900 1.397 . S
C899 C904 1.363 . S
C900 H877 0.950 . S
C900 C899 1.397 . S
C900 C901 1.334 . S
C901 H878 0.950 . S
C901 C900 1.334 . S
C901 C902 1.287 . S
C902 C901 1.287 . S
C902 C903 1.524 . S
C902 H921 0.913 . S
C903 H879 0.950 . S
C903 C902 1.524 . S
C903 C904 1.415 . S
C904 H880 0.950 . S
C904 C899 1.363 . S
C904 C903 1.415 . S
C905 H881 0.951 . S
C905 C906 1.366 . S
C905 C907 1.388 . S
C906 C905 1.366 . S
C906 C910 1.385 1_565 S
C907 H882 0.951 . S
C907 C905 1.388 . S
C907 C908 1.366 1_565 S
C908 C907 1.366 1_545 S
C908 C909 1.414 . S
C908 C911 1.499 . S
C909 H883 0.950 . S
C909 C908 1.414 . S
C909 C910 1.374 . S
C910 H884 0.950 . S
C910 C906 1.385 1_545 S
C910 C909 1.374 . S
C911 C908 1.499 . S
C911 C912 1.373 1_655 S
C911 C913 1.389 1_655 S
C912 H885 0.950 1_455 S
C912 C898 1.377 . S
C912 C911 1.373 1_455 S
C913 C897 1.377 . S
C913 C911 1.389 1_455 S
C913 C914 1.524 1_445 S
C914 C913 1.524 1_665 S
C914 C915 1.397 1_565 S
C914 C919 1.363 1_655 S
C915 H886 0.950 . S
C915 C914 1.397 1_545 S
C915 C916 1.334 . S
C916 H887 0.950 . S
C916 C915 1.334 . S
C916 C917 1.287 1_545 S
C917 C916 1.287 1_565 S
C917 C918 1.524 1_655 S
C917 H920 0.999 . S
C918 H888 0.950 . S
C918 C917 1.524 1_455 S
C918 C919 1.415 . S
C919 H889 0.950 . S
C919 C914 1.363 1_455 S
C919 C918 1.415 . S
H920 C917 0.999 . S
H921 C902 0.913 . S
H922 C940 0.951 . S
H923 C942 0.951 . S
H924 C944 0.950 . S
H925 C945 0.950 . S
H926 C947 0.950 1_655 S
H927 C950 0.950 1_655 S
H928 C951 0.950 1_655 S
H929 C953 0.950 . S
H930 C954 0.950 . S
H931 C955 0.951 . S
H932 C957 0.951 1_655 S
H933 C959 0.950 . S
H934 C960 0.950 . S
H935 C962 0.949 1_565 S
H936 C965 0.950 . S
H937 C966 0.950 . S
H938 C968 0.950 . S
H939 C969 0.950 . S
C940 H922 0.951 . S
C940 C941 1.366 1_455 S
C940 C942 1.388 . S
C941 C940 1.366 1_655 S
C941 C945 1.385 . S
C942 H923 0.951 . S
C942 C940 1.388 . S
C942 C943 1.366 . S
C943 C942 1.366 . S
C943 C944 1.414 1_455 S
C943 C946 1.499 . S
C944 H924 0.950 . S
C944 C943 1.414 1_655 S
C944 C945 1.374 . S
C945 H925 0.950 . S
C945 C941 1.385 . S
C945 C944 1.374 . S
C946 C943 1.499 . S
C946 C947 1.373 . S
C946 C948 1.389 . S
C947 H926 0.950 1_455 S
C947 C946 1.373 . S
C947 C963 1.377 . S
C948 C946 1.389 . S
C948 C949 1.524 . S
C948 C962 1.377 . S
C949 C948 1.524 . S
C949 C950 1.397 . S
C949 C954 1.363 . S
C950 H927 0.950 1_455 S
C950 C949 1.397 . S
C950 C951 1.334 . S
C951 H928 0.950 1_455 S
C951 C950 1.334 . S
C951 C952 1.287 . S
C952 C951 1.287 . S
C952 C953 1.524 . S
C952 H971 0.913 . S
C953 H929 0.950 . S
C953 C952 1.524 . S
C953 C954 1.415 . S
C954 H930 0.950 . S
C954 C949 1.363 . S
C954 C953 1.415 . S
C955 H931 0.951 . S
C955 C956 1.366 . S
C955 C957 1.388 . S
C956 C955 1.366 . S
C956 C960 1.385 . S
C957 H932 0.951 1_455 S
C957 C955 1.388 . S
C957 C958 1.366 . S
C958 C957 1.366 . S
C958 C959 1.414 . S
C958 C961 1.499 . S
C959 H933 0.950 . S
C959 C958 1.414 . S
C959 C960 1.374 . S
C960 H934 0.950 . S
C960 C956 1.385 . S
C960 C959 1.374 . S
C961 C958 1.499 . S
C961 C962 1.373 1_565 S
C961 C963 1.389 1_565 S
C962 H935 0.949 1_545 S
C962 C948 1.377 . S
C962 C961 1.373 1_545 S
C963 C947 1.377 . S
C963 C961 1.389 1_545 S
C963 C964 1.524 1_545 S
C964 C963 1.524 1_565 S
C964 C965 1.397 . S
C964 C969 1.363 1_455 S
C965 H936 0.950 . S
C965 C964 1.397 . S
C965 C966 1.334 . S
C966 H937 0.950 . S
C966 C965 1.334 . S
C966 C967 1.287 . S
C967 C966 1.287 . S
C967 C968 1.524 1_455 S
C967 H970 1.000 . S
C968 H938 0.950 . S
C968 C967 1.524 1_655 S
C968 C969 1.415 . S
C969 H939 0.950 . S
C969 C964 1.363 1_655 S
C969 C968 1.415 . S
H970 C967 1.000 . S
H971 C952 0.913 . S
H972 C990 0.951 . S
H973 C992 0.951 . S
H974 C994 0.950 . S
H975 C995 0.950 . S
H976 C997 0.950 1_655 S
H977 C1000 0.950 . S
H978 C1001 0.950 . S
H979 C1003 0.950 . S
H980 C1004 0.950 . S
H981 C1005 0.951 . S
H982 C1007 0.951 . S
H983 C1009 0.950 . S
H984 C1010 0.950 . S
H985 C1012 0.950 . S
H986 C1015 0.950 . S
H987 C1016 0.950 . S
H988 C1018 0.950 . S
H989 C1019 0.950 . S
C990 H972 0.951 . S
C990 C991 1.366 . S
C990 C992 1.388 . S
C991 C990 1.366 . S
C991 C995 1.385 . S
C992 H973 0.951 . S
C992 C990 1.388 . S
C992 C993 1.366 . S
C993 C992 1.366 . S
C993 C994 1.414 . S
C993 C996 1.499 . S
C994 H974 0.950 . S
C994 C993 1.414 . S
C994 C995 1.374 . S
C995 H975 0.950 . S
C995 C991 1.385 . S
C995 C994 1.374 . S
C996 C993 1.499 . S
C996 C997 1.373 1_655 S
C996 C998 1.389 1_655 S
C997 H976 0.950 1_455 S
C997 C996 1.373 1_455 S
C997 C1013 1.377 . S
C998 C996 1.389 1_455 S
C998 C999 1.524 1_455 S
C998 C1012 1.377 . S
C999 C998 1.524 1_655 S
C999 C1000 1.397 1_545 S
C999 C1004 1.363 1_655 S
C1000 H977 0.950 . S
C1000 C999 1.397 1_565 S
C1000 C1001 1.334 . S
C1001 H978 0.950 . S
C1001 C1000 1.334 . S
C1001 C1002 1.301 . S
C1002 C1001 1.301 . S
C1002 C1003 1.501 1_565 S
C1002 H1021 0.920 . S
C1003 H979 0.950 . S
C1003 C1002 1.501 1_545 S
C1003 C1004 1.415 1_655 S
C1004 H980 0.950 . S
C1004 C999 1.363 1_455 S
C1004 C1003 1.415 1_455 S
C1005 H981 0.951 . S
C1005 C1006 1.366 . S
C1005 C1007 1.388 . S
C1006 C1005 1.366 . S
C1006 C1010 1.385 1_565 S
C1007 H982 0.951 . S
C1007 C1005 1.388 . S
C1007 C1008 1.366 1_565 S
C1008 C1007 1.366 1_545 S
C1008 C1009 1.414 . S
C1008 C1011 1.499 . S
C1009 H983 0.950 . S
C1009 C1008 1.414 . S
C1009 C1010 1.374 . S
C1010 H984 0.950 . S
C1010 C1006 1.385 1_545 S
C1010 C1009 1.374 . S
C1011 C1008 1.499 . S
C1011 C1012 1.373 . S
C1011 C1013 1.389 . S
C1012 H985 0.950 . S
C1012 C998 1.377 . S
C1012 C1011 1.373 . S
C1013 C997 1.377 . S
C1013 C1011 1.389 . S
C1013 C1014 1.524 . S
C1014 C1013 1.524 . S
C1014 C1015 1.397 . S
C1014 C1019 1.363 . S
C1015 H986 0.950 . S
C1015 C1014 1.397 . S
C1015 C1016 1.334 . S
C1016 H987 0.950 . S
C1016 C1015 1.334 . S
C1016 C1017 1.287 . S
C1017 C1016 1.287 . S
C1017 C1018 1.524 . S
C1017 H1020 0.999 . S
C1018 H988 0.950 . S
C1018 C1017 1.524 . S
C1018 C1019 1.415 . S
C1019 H989 0.950 . S
C1019 C1014 1.363 . S
C1019 C1018 1.415 . S
H1020 C1017 0.999 . S
H1021 C1002 0.920 . S
H1022 C1040 0.951 . S
H1023 C1042 0.951 . S
H1024 C1044 0.950 . S
H1025 C1045 0.950 . S
H1026 C1047 0.950 . S
H1027 C1050 0.950 . S
H1028 C1051 0.950 . S
H1029 C1053 0.950 . S
H1030 C1054 0.950 . S
H1031 C1055 0.951 . S
H1032 C1057 0.951 . S
H1033 C1059 0.950 . S
H1034 C1060 0.950 . S
H1035 C1062 0.950 . S
H1036 C1065 0.920 1_455 S
H1037 C1066 0.950 . S
H1038 C1068 0.950 . S
H1039 C1069 0.950 . S
C1040 H1022 0.951 . S
C1040 C1041 1.366 1_455 S
C1040 C1042 1.388 . S
C1041 C1040 1.366 1_655 S
C1041 C1045 1.385 . S
C1042 H1023 0.951 . S
C1042 C1040 1.388 . S
C1042 C1043 1.366 . S
C1043 C1042 1.366 . S
C1043 C1044 1.414 1_455 S
C1043 C1046 1.499 . S
C1044 H1024 0.950 . S
C1044 C1043 1.414 1_655 S
C1044 C1045 1.374 . S
C1045 H1025 0.950 . S
C1045 C1041 1.385 . S
C1045 C1044 1.374 . S
C1046 C1043 1.499 . S
C1046 C1047 1.373 1_465 S
C1046 C1048 1.379 1_565 S
C1047 H1026 0.950 . S
C1047 C1046 1.373 1_645 S
C1047 C1063 1.377 . S
C1048 C1046 1.379 1_545 S
C1048 C1049 1.503 1_545 S
C1048 C1062 1.410 . S
C1049 C1048 1.503 1_565 S
C1049 C1050 1.397 . S
C1049 C1054 1.363 . S
C1050 H1027 0.950 . S
C1050 C1049 1.397 . S
C1050 C1051 1.334 . S
C1051 H1028 0.950 . S
C1051 C1050 1.334 . S
C1051 C1052 1.287 . S
C1052 C1051 1.287 . S
C1052 C1053 1.524 . S
C1052 H1071 0.913 . S
C1053 H1029 0.950 . S
C1053 C1052 1.524 . S
C1053 C1054 1.415 . S
C1054 H1030 0.950 . S
C1054 C1049 1.363 . S
C1054 C1053 1.415 . S
C1055 H1031 0.951 . S
C1055 C1056 1.366 . S
C1055 C1057 1.388 . S
C1056 C1055 1.366 . S
C1056 C1060 1.385 . S
C1057 H1032 0.951 . S
C1057 C1055 1.388 . S
C1057 C1058 1.366 . S
C1058 C1057 1.366 . S
C1058 C1059 1.414 . S
C1058 C1061 1.499 . S
C1059 H1033 0.950 . S
C1059 C1058 1.414 . S
C1059 C1060 1.374 . S
C1060 H1034 0.950 . S
C1060 C1056 1.385 . S
C1060 C1059 1.374 . S
C1061 C1058 1.499 . S
C1061 C1062 1.373 . S
C1061 C1063 1.386 1_455 S
C1062 H1035 0.950 . S
C1062 C1048 1.410 . S
C1062 C1061 1.373 . S
C1063 C1047 1.377 . S
C1063 C1061 1.386 1_655 S
C1063 C1064 1.527 . S
C1064 C1063 1.527 . S
C1064 C1065 1.397 . S
C1064 C1069 1.363 . S
C1065 H1036 0.920 1_655 S
C1065 C1064 1.397 . S
C1065 C1066 1.334 . S
C1066 H1037 0.950 . S
C1066 C1065 1.334 . S
C1066 C1067 1.287 . S
C1067 C1066 1.287 . S
C1067 C1068 1.524 . S
C1067 H1070 0.999 . S
C1068 H1038 0.950 . S
C1068 C1067 1.524 . S
C1068 C1069 1.415 . S
C1069 H1039 0.950 . S
C1069 C1064 1.363 . S
C1069 C1068 1.415 . S
H1070 C1067 0.999 . S
H1071 C1052 0.913 . S
H1072 C1090 0.951 . S
H1073 C1092 0.951 1_565 S
H1074 C1094 0.950 . S
H1075 C1095 0.950 . S
H1076 C1097 0.950 . S
H1077 C1100 0.950 1_545 S
H1078 C1101 0.950 . S
H1079 C1103 0.950 . S
H1080 C1104 0.950 . S
H1081 C1105 0.951 . S
H1082 C1107 0.951 . S
H1083 C1109 0.950 . S
H1084 C1110 0.950 . S
H1085 C1112 0.950 . S
H1086 C1115 0.950 . S
H1087 C1116 0.950 . S
H1088 C1118 0.950 . S
H1089 C1119 0.950 . S
C1090 H1072 0.951 . S
C1090 C1091 1.366 . S
C1090 C1092 1.388 . S
C1091 C1090 1.366 . S
C1091 C1095 1.385 . S
C1092 H1073 0.951 1_545 S
C1092 C1090 1.388 . S
C1092 C1093 1.366 . S
C1093 C1092 1.366 . S
C1093 C1094 1.414 . S
C1093 C1096 1.499 . S
C1094 H1074 0.950 . S
C1094 C1093 1.414 . S
C1094 C1095 1.374 . S
C1095 H1075 0.950 . S
C1095 C1091 1.385 . S
C1095 C1094 1.374 . S
C1096 C1093 1.499 . S
C1096 C1097 1.373 . S
C1096 C1098 1.389 . S
C1097 H1076 0.950 . S
C1097 C1096 1.373 . S
C1097 C1113 1.377 . S
C1098 C1096 1.389 . S
C1098 C1099 1.524 1_545 S
C1098 C1112 1.377 1_545 S
C1099 C1098 1.524 1_565 S
C1099 C1100 1.397 . S
C1099 C1104 1.363 . S
C1100 H1077 0.950 1_565 S
C1100 C1099 1.397 . S
C1100 C1101 1.334 . S
C1101 H1078 0.950 . S
C1101 C1100 1.334 . S
C1101 C1102 1.287 . S
C1102 C1101 1.287 . S
C1102 C1103 1.524 . S
C1102 H1121 0.913 . S
C1103 H1079 0.950 . S
C1103 C1102 1.524 . S
C1103 C1104 1.415 . S
C1104 H1080 0.950 . S
C1104 C1099 1.363 . S
C1104 C1103 1.415 . S
C1105 H1081 0.951 . S
C1105 C1106 1.366 1_545 S
C1105 C1107 1.388 . S
C1106 C1105 1.366 1_565 S
C1106 C1110 1.385 . S
C1107 H1082 0.951 . S
C1107 C1105 1.388 . S
C1107 C1108 1.366 . S
C1108 C1107 1.366 . S
C1108 C1109 1.414 1_545 S
C1108 C1111 1.499 . S
C1109 H1083 0.950 . S
C1109 C1108 1.414 1_565 S
C1109 C1110 1.374 . S
C1110 H1084 0.950 . S
C1110 C1106 1.385 . S
C1110 C1109 1.374 . S
C1111 C1108 1.499 . S
C1111 C1112 1.373 1_545 S
C1111 C1113 1.389 . S
C1112 H1085 0.950 . S
C1112 C1098 1.377 1_565 S
C1112 C1111 1.373 1_565 S
C1113 C1097 1.377 . S
C1113 C1111 1.389 . S
C1113 C1114 1.524 . S
C1114 C1113 1.524 . S
C1114 C1115 1.397 . S
C1114 C1119 1.363 . S
C1115 H1086 0.950 . S
C1115 C1114 1.397 . S
C1115 C1116 1.334 . S
C1116 H1087 0.950 . S
C1116 C1115 1.334 . S
C1116 C1117 1.287 . S
C1117 C1116 1.287 . S
C1117 C1118 1.524 . S
C1117 H1120 0.999 . S
C1118 H1088 0.950 . S
C1118 C1117 1.524 . S
C1118 C1119 1.415 . S
C1119 H1089 0.950 . S
C1119 C1114 1.363 . S
C1119 C1118 1.415 . S
H1120 C1117 0.999 . S
H1121 C1102 0.913 . S
H1122 C1140 0.951 . S
H1123 C1142 0.951 . S
H1124 C1144 0.950 . S
H1125 C1145 0.950 . S
H1126 C1147 0.950 . S
H1127 C1150 0.950 . S
H1128 C1151 0.950 . S
H1129 C1153 0.950 . S
H1130 C1154 0.931 1_455 S
H1131 C1155 0.951 . S
H1132 C1157 0.951 . S
H1133 C1159 0.950 . S
H1134 C1160 0.950 . S
H1135 C1162 0.950 1_655 S
H1136 C1165 0.950 . S
H1137 C1166 0.950 . S
H1138 C1168 0.950 . S
H1139 C1169 0.950 . S
C1140 H1122 0.951 . S
C1140 C1141 1.366 . S
C1140 C1142 1.388 . S
C1141 C1140 1.366 . S
C1141 C1145 1.385 . S
C1142 H1123 0.951 . S
C1142 C1140 1.388 . S
C1142 C1143 1.366 . S
C1143 C1142 1.366 . S
C1143 C1144 1.414 . S
C1143 C1146 1.499 . S
C1144 H1124 0.950 . S
C1144 C1143 1.414 . S
C1144 C1145 1.374 . S
C1145 H1125 0.950 . S
C1145 C1141 1.385 . S
C1145 C1144 1.374 . S
C1146 C1143 1.499 . S
C1146 C1147 1.373 . S
C1146 C1148 1.389 . S
C1147 H1126 0.950 . S
C1147 C1146 1.373 . S
C1147 C1163 1.377 . S
C1148 C1146 1.389 . S
C1148 C1149 1.524 1_455 S
C1148 C1162 1.377 . S
C1149 C1148 1.524 1_655 S
C1149 C1150 1.397 . S
C1149 C1154 1.367 . S
C1150 H1127 0.950 . S
C1150 C1149 1.397 . S
C1150 C1151 1.334 . S
C1151 H1128 0.950 . S
C1151 C1150 1.334 . S
C1151 C1152 1.287 . S
C1152 C1151 1.287 . S
C1152 C1153 1.524 . S
C1152 H1171 0.913 . S
C1153 H1129 0.950 . S
C1153 C1152 1.524 . S
C1153 C1154 1.431 . S
C1154 H1130 0.931 1_655 S
C1154 C1149 1.367 . S
C1154 C1153 1.431 . S
C1155 H1131 0.951 . S
C1155 C1156 1.366 . S
C1155 C1157 1.388 . S
C1156 C1155 1.366 . S
C1156 C1160 1.385 1_655 S
C1157 H1132 0.951 . S
C1157 C1155 1.388 . S
C1157 C1158 1.366 1_655 S
C1158 C1157 1.366 1_455 S
C1158 C1159 1.414 . S
C1158 C1161 1.499 . S
C1159 H1133 0.950 . S
C1159 C1158 1.414 . S
C1159 C1160 1.374 . S
C1160 H1134 0.950 . S
C1160 C1156 1.385 1_455 S
C1160 C1159 1.374 . S
C1161 C1158 1.499 . S
C1161 C1162 1.373 . S
C1161 C1163 1.389 . S
C1162 H1135 0.950 1_455 S
C1162 C1148 1.377 . S
C1162 C1161 1.373 . S
C1163 C1147 1.377 . S
C1163 C1161 1.389 . S
C1163 C1164 1.524 . S
C1164 C1163 1.524 . S
C1164 C1165 1.397 . S
C1164 C1169 1.363 . S
C1165 H1136 0.950 . S
C1165 C1164 1.397 . S
C1165 C1166 1.334 . S
C1166 H1137 0.950 . S
C1166 C1165 1.334 . S
C1166 C1167 1.287 . S
C1167 C1166 1.287 . S
C1167 C1168 1.524 . S
C1167 H1170 0.999 . S
C1168 H1138 0.950 . S
C1168 C1167 1.524 . S
C1168 C1169 1.415 . S
C1169 H1139 0.950 . S
C1169 C1164 1.363 . S
C1169 C1168 1.415 . S
H1170 C1167 0.999 . S
H1171 C1152 0.913 . S
H1172 C1190 0.951 . S
H1173 C1192 0.951 . S
H1174 C1194 0.950 . S
H1175 C1195 0.950 . S
H1176 C1197 0.950 . S
H1177 C1200 0.950 . S
H1178 C1201 0.950 . S
H1179 C1203 0.950 . S
H1180 C1204 0.950 . S
H1181 C1205 0.951 . S
H1182 C1207 0.951 . S
H1183 C1209 0.950 . S
H1184 C1210 0.950 . S
H1185 C1212 0.950 . S
H1186 C1215 0.950 . S
H1187 C1216 0.950 . S
H1188 C1218 0.950 . S
H1189 C1219 0.950 . S
C1190 H1172 0.951 . S
C1190 C1191 1.366 1_545 S
C1190 C1192 1.388 . S
C1191 C1190 1.366 1_565 S
C1191 C1195 1.385 . S
C1192 H1173 0.951 . S
C1192 C1190 1.388 . S
C1192 C1193 1.366 . S
C1193 C1192 1.366 . S
C1193 C1194 1.414 1_545 S
C1193 C1196 1.499 . S
C1194 H1174 0.950 . S
C1194 C1193 1.414 1_565 S
C1194 C1195 1.374 . S
C1195 H1175 0.950 . S
C1195 C1191 1.385 . S
C1195 C1194 1.374 . S
C1196 C1193 1.499 . S
C1196 C1197 1.373 1_545 S
C1196 C1198 1.389 . S
C1197 H1176 0.950 . S
C1197 C1196 1.373 1_565 S
C1197 C1213 1.377 . S
C1198 C1196 1.389 . S
C1198 C1199 1.524 . S
C1198 C1212 1.377 . S
C1199 C1198 1.524 . S
C1199 C1200 1.397 . S
C1199 C1204 1.363 . S
C1200 H1177 0.950 . S
C1200 C1199 1.397 . S
C1200 C1201 1.334 . S
C1201 H1178 0.950 . S
C1201 C1200 1.334 . S
C1201 C1202 1.287 . S
C1202 C1201 1.287 . S
C1202 C1203 1.524 . S
C1202 H1221 0.913 . S
C1203 H1179 0.950 . S
C1203 C1202 1.524 . S
C1203 C1204 1.415 . S
C1204 H1180 0.950 . S
C1204 C1199 1.363 . S
C1204 C1203 1.415 . S
C1205 H1181 0.951 . S
C1205 C1206 1.366 . S
C1205 C1207 1.388 . S
C1206 C1205 1.366 . S
C1206 C1210 1.385 . S
C1207 H1182 0.951 . S
C1207 C1205 1.388 . S
C1207 C1208 1.366 . S
C1208 C1207 1.366 . S
C1208 C1209 1.414 . S
C1208 C1211 1.499 . S
C1209 H1183 0.950 . S
C1209 C1208 1.414 . S
C1209 C1210 1.374 . S
C1210 H1184 0.950 . S
C1210 C1206 1.385 . S
C1210 C1209 1.374 . S
C1211 C1208 1.499 . S
C1211 C1212 1.373 . S
C1211 C1213 1.389 1_545 S
C1212 H1185 0.950 . S
C1212 C1198 1.377 . S
C1212 C1211 1.373 . S
C1213 C1197 1.377 . S
C1213 C1211 1.389 1_565 S
C1213 C1214 1.524 . S
C1214 C1213 1.524 . S
C1214 C1215 1.397 . S
C1214 C1219 1.363 . S
C1215 H1186 0.950 . S
C1215 C1214 1.397 . S
C1215 C1216 1.334 . S
C1216 H1187 0.950 . S
C1216 C1215 1.334 . S
C1216 C1217 1.287 . S
C1217 C1216 1.287 . S
C1217 C1218 1.524 . S
C1217 H1220 0.999 . S
C1218 H1188 0.950 . S
C1218 C1217 1.524 . S
C1218 C1219 1.415 . S
C1219 H1189 0.950 . S
C1219 C1214 1.363 . S
C1219 C1218 1.415 . S
H1220 C1217 0.999 . S
H1221 C1202 0.913 . S
H1222 C1240 0.951 . S
H1223 C1242 0.951 . S
H1224 C1244 0.950 1_655 S
H1225 C1245 0.950 . S
H1226 C1247 0.950 . S
H1227 C1250 0.950 1_655 S
H1228 C1251 0.950 1_655 S
H1229 C1253 0.950 . S
H1230 C1254 0.950 . S
H1231 C1255 0.951 . S
H1232 C1257 0.951 . S
H1233 C1259 0.950 . S
H1234 C1260 0.950 . S
H1235 C1262 0.950 . S
H1236 C1265 0.950 . S
H1237 C1266 0.950 . S
H1238 C1268 0.950 . S
H1239 C1269 0.950 . S
C1240 H1222 0.951 . S
C1240 C1241 1.366 . S
C1240 C1242 1.388 . S
C1241 C1240 1.366 . S
C1241 C1245 1.385 . S
C1242 H1223 0.951 . S
C1242 C1240 1.388 . S
C1242 C1243 1.366 . S
C1243 C1242 1.366 . S
C1243 C1244 1.414 . S
C1243 C1246 1.499 . S
C1244 H1224 0.950 1_455 S
C1244 C1243 1.414 . S
C1244 C1245 1.374 . S
C1245 H1225 0.950 . S
C1245 C1241 1.385 . S
C1245 C1244 1.374 . S
C1246 C1243 1.499 . S
C1246 C1247 1.373 . S
C1246 C1248 1.389 . S
C1247 H1226 0.950 . S
C1247 C1246 1.373 . S
C1247 C1263 1.377 . S
C1248 C1246 1.389 . S
C1248 C1249 1.524 . S
C1248 C1262 1.377 . S
C1249 C1248 1.524 . S
C1249 C1250 1.397 . S
C1249 C1254 1.363 . S
C1250 H1227 0.950 1_455 S
C1250 C1249 1.397 . S
C1250 C1251 1.334 . S
C1251 H1228 0.950 1_455 S
C1251 C1250 1.334 . S
C1251 C1252 1.287 . S
C1252 C1251 1.287 . S
C1252 C1253 1.524 . S
C1252 H1271 0.913 . S
C1253 H1229 0.950 . S
C1253 C1252 1.524 . S
C1253 C1254 1.415 . S
C1254 H1230 0.950 . S
C1254 C1249 1.363 . S
C1254 C1253 1.415 . S
C1255 H1231 0.951 . S
C1255 C1256 1.366 . S
C1255 C1257 1.388 . S
C1256 C1255 1.366 . S
C1256 C1260 1.385 1_655 S
C1257 H1232 0.951 . S
C1257 C1255 1.388 . S
C1257 C1258 1.366 1_655 S
C1258 C1257 1.366 1_455 S
C1258 C1259 1.414 . S
C1258 C1261 1.499 . S
C1259 H1233 0.950 . S
C1259 C1258 1.414 . S
C1259 C1260 1.374 . S
C1260 H1234 0.950 . S
C1260 C1256 1.385 1_455 S
C1260 C1259 1.374 . S
C1261 C1258 1.499 . S
C1261 C1262 1.373 . S
C1261 C1263 1.389 . S
C1262 H1235 0.950 . S
C1262 C1248 1.377 . S
C1262 C1261 1.373 . S
C1263 C1247 1.377 . S
C1263 C1261 1.389 . S
C1263 C1264 1.524 . S
C1264 C1263 1.524 . S
C1264 C1265 1.397 . S
C1264 C1269 1.363 1_455 S
C1265 H1236 0.950 . S
C1265 C1264 1.397 . S
C1265 C1266 1.334 . S
C1266 H1237 0.950 . S
C1266 C1265 1.334 . S
C1266 C1267 1.287 . S
C1267 C1266 1.287 . S
C1267 C1268 1.524 1_455 S
C1267 H1270 0.999 . S
C1268 H1238 0.950 . S
C1268 C1267 1.524 1_655 S
C1268 C1269 1.415 . S
C1269 H1239 0.950 . S
C1269 C1264 1.363 1_655 S
C1269 C1268 1.415 . S
H1270 C1267 0.999 . S
H1271 C1252 0.913 . S
C291 C20 1.714 . S
C306 C156 1.714 . S
C341 C190 1.714 . S
C356 C54 1.714 . S
C391 C88 1.713 . S
C406 C224 1.714 . S
C441 C258 1.714 . S
C456 C122 1.714 . S
C491 C172 0.878 . S
C506 C2 0.877 . S
C541 C206 0.877 . S
C556 C36 0.877 . S
C591 C70 0.878 . S
C606 C240 0.878 . S
C641 C138 0.877 . S
C656 C104 0.879 . S
C691 C135 1.082 . S
C706 C237 1.082 . S
C741 C33 1.082 . S
C756 C271 1.082 . S
C791 C67 1.082 . S
C806 C169 1.082 . S
C841 C101 1.082 . S
C856 C203 1.082 . S
C891 C5 0.151 . S
C906 C73 0.148 . S
C941 C39 0.148 . S
C956 C107 0.151 . S
C991 C209 0.152 . S
C1006 C141 0.149 . S
C1041 C243 0.150 . S
C1056 C175 0.152 . S
C1091 C9 1.235 . S
C1106 C77 1.235 1_565 S
C1141 C111 1.235 . S
C1156 C43 1.235 1_655 S
C1191 C145 1.236 1_565 S
C1206 C213 1.236 . S
C1241 C179 1.235 . S
C1256 C247 1.235 1_655 S
