# Generated by pormake.
# Topology zfi, (5)-cn, num edge types: 1
# Building blocks:
#     Node 0, Type 0, BuildingBlock: XOMCOT_clean_sbu_0, # of connection points: 5
#     Node 1, Type 0, BuildingBlock: XOMCOT_clean_sbu_0, # of connection points: 5
#     Node 2, Type 0, BuildingBlock: XOMCOT_clean_sbu_0, # of connection points: 5
#     Node 3, Type 0, BuildingBlock: XOMCOT_clean_sbu_0, # of connection points: 5
#     Node 4, Type 0, BuildingBlock: XOMCOT_clean_sbu_0, # of connection points: 5
#     Node 5, Type 0, BuildingBlock: XOMCOT_clean_sbu_0, # of connection points: 5
#     Node 6, Type 0, BuildingBlock: XOMCOT_clean_sbu_0, # of connection points: 5
#     Node 7, Type 0, BuildingBlock: XOMCOT_clean_sbu_0, # of connection points: 5
#     Node 8, Type 0, BuildingBlock: XOMCOT_clean_sbu_0, # of connection points: 5
#     Node 9, Type 0, BuildingBlock: XOMCOT_clean_sbu_0, # of connection points: 5
#     Node 10, Type 0, BuildingBlock: XOMCOT_clean_sbu_0, # of connection points: 5
#     Node 11, Type 0, BuildingBlock: XOMCOT_clean_sbu_0, # of connection points: 5
#     Node 12, Type 0, BuildingBlock: XOMCOT_clean_sbu_0, # of connection points: 5
#     Node 13, Type 0, BuildingBlock: XOMCOT_clean_sbu_0, # of connection points: 5
#     Node 14, Type 0, BuildingBlock: XOMCOT_clean_sbu_0, # of connection points: 5
#     Node 15, Type 0, BuildingBlock: XOMCOT_clean_sbu_0, # of connection points: 5
#     Edge 16, Type (0, 0), BuildingBlock: KIFKEQ_clean_linker_1, # of connection points: 2
#     Edge 17, Type (0, 0), BuildingBlock: KIFKEQ_clean_linker_1, # of connection points: 2
#     Edge 18, Type (0, 0), BuildingBlock: KIFKEQ_clean_linker_1, # of connection points: 2
#     Edge 19, Type (0, 0), BuildingBlock: KIFKEQ_clean_linker_1, # of connection points: 2
#     Edge 20, Type (0, 0), BuildingBlock: KIFKEQ_clean_linker_1, # of connection points: 2
#     Edge 21, Type (0, 0), BuildingBlock: KIFKEQ_clean_linker_1, # of connection points: 2
#     Edge 22, Type (0, 0), BuildingBlock: KIFKEQ_clean_linker_1, # of connection points: 2
#     Edge 23, Type (0, 0), BuildingBlock: KIFKEQ_clean_linker_1, # of connection points: 2
#     Edge 24, Type (0, 0), BuildingBlock: KIFKEQ_clean_linker_1, # of connection points: 2
#     Edge 25, Type (0, 0), BuildingBlock: KIFKEQ_clean_linker_1, # of connection points: 2
#     Edge 26, Type (0, 0), BuildingBlock: KIFKEQ_clean_linker_1, # of connection points: 2
#     Edge 27, Type (0, 0), BuildingBlock: KIFKEQ_clean_linker_1, # of connection points: 2
#     Edge 28, Type (0, 0), BuildingBlock: KIFKEQ_clean_linker_1, # of connection points: 2
#     Edge 29, Type (0, 0), BuildingBlock: KIFKEQ_clean_linker_1, # of connection points: 2
#     Edge 30, Type (0, 0), BuildingBlock: KIFKEQ_clean_linker_1, # of connection points: 2
#     Edge 31, Type (0, 0), BuildingBlock: KIFKEQ_clean_linker_1, # of connection points: 2
#     Edge 32, Type (0, 0), BuildingBlock: KIFKEQ_clean_linker_1, # of connection points: 2
#     Edge 33, Type (0, 0), BuildingBlock: KIFKEQ_clean_linker_1, # of connection points: 2
#     Edge 34, Type (0, 0), BuildingBlock: KIFKEQ_clean_linker_1, # of connection points: 2
#     Edge 35, Type (0, 0), BuildingBlock: KIFKEQ_clean_linker_1, # of connection points: 2
#     Edge 36, Type (0, 0), BuildingBlock: KIFKEQ_clean_linker_1, # of connection points: 2
#     Edge 37, Type (0, 0), BuildingBlock: KIFKEQ_clean_linker_1, # of connection points: 2
#     Edge 38, Type (0, 0), BuildingBlock: KIFKEQ_clean_linker_1, # of connection points: 2
#     Edge 39, Type (0, 0), BuildingBlock: KIFKEQ_clean_linker_1, # of connection points: 2
#     Edge 40, Type (0, 0), BuildingBlock: KIFKEQ_clean_linker_1, # of connection points: 2
#     Edge 41, Type (0, 0), BuildingBlock: KIFKEQ_clean_linker_1, # of connection points: 2
#     Edge 42, Type (0, 0), BuildingBlock: KIFKEQ_clean_linker_1, # of connection points: 2
#     Edge 43, Type (0, 0), BuildingBlock: KIFKEQ_clean_linker_1, # of connection points: 2
#     Edge 44, Type (0, 0), BuildingBlock: KIFKEQ_clean_linker_1, # of connection points: 2
#     Edge 45, Type (0, 0), BuildingBlock: KIFKEQ_clean_linker_1, # of connection points: 2
#     Edge 46, Type (0, 0), BuildingBlock: KIFKEQ_clean_linker_1, # of connection points: 2
#     Edge 47, Type (0, 0), BuildingBlock: KIFKEQ_clean_linker_1, # of connection points: 2
#     Edge 48, Type (0, 0), BuildingBlock: KIFKEQ_clean_linker_1, # of connection points: 2
#     Edge 49, Type (0, 0), BuildingBlock: KIFKEQ_clean_linker_1, # of connection points: 2
#     Edge 50, Type (0, 0), BuildingBlock: KIFKEQ_clean_linker_1, # of connection points: 2
#     Edge 51, Type (0, 0), BuildingBlock: KIFKEQ_clean_linker_1, # of connection points: 2
#     Edge 52, Type (0, 0), BuildingBlock: KIFKEQ_clean_linker_1, # of connection points: 2
#     Edge 53, Type (0, 0), BuildingBlock: KIFKEQ_clean_linker_1, # of connection points: 2
#     Edge 54, Type (0, 0), BuildingBlock: KIFKEQ_clean_linker_1, # of connection points: 2
#     Edge 55, Type (0, 0), BuildingBlock: KIFKEQ_clean_linker_1, # of connection points: 2
# Relax obj value: 0.089
# Max RMSD: 0.118
# Mean RMSD: 0.118
data_MOF--net-zfi--node1-XOMCOT_clean_sbu_0--edge1-KIFKEQ_clean_linker_1
_symmetry_space_group_name_H-M    P1
_symmetry_Int_Tables_number       1
_symmetry_cell_setting            triclinic
loop_
_symmetry_equiv_pos_as_xyz
'x, y, z'
_cell_length_a     39.372626
_cell_length_b     39.345235
_cell_length_c     48.499955
_cell_angle_alpha  89.972972
_cell_angle_beta   90.079958
_cell_angle_gamma 90.0434
loop_
_atom_site_label
_atom_site_type_symbol
_atom_site_fract_x
_atom_site_fract_y
_atom_site_fract_z
_atom_type_partial_charge
Co0 Co 0.65147 0.07368 0.12162 0.0
C1 C 0.68221 0.14297 0.11576 0.0
C2 C 0.64299 0.13504 0.08591 0.0
C3 C 0.65741 0.16648 0.08138 0.0
N4 N 0.65929 0.11957 0.10695 0.0
N5 N 0.6824 0.17135 0.1 0.0
H6 H 0.69888 0.13926 0.1332 0.0
H7 H 0.62178 0.12478 0.07457 0.0
C8 C 0.62074 0.05905 0.06462 0.0
O9 O 0.64949 0.06541 0.05191 0.0
N10 N 0.6437 0.02853 0.13648 0.0
C11 C 0.66629 1.01057 0.1515 0.0
C12 C 0.65634 0.97701 0.1519 0.0
C13 C 0.61985 1.00579 0.12858 0.0
N14 N 0.62731 0.97409 0.13732 0.0
C15 C 0.7219 0.07 0.1082 0.0
C16 C 0.72004 1.00701 0.08326 0.0
C17 C 0.7516 0.02098 0.09056 0.0
C18 C 0.7522 0.05349 0.10214 0.0
C19 C 0.69011 0.02487 0.08916 0.0
N20 N 0.69116 0.05573 0.10222 0.0
H21 H 0.72361 0.09264 0.12032 0.0
H22 H 0.66611 1.01248 0.08526 0.0
H23 H 0.68992 0.02056 0.1595 0.0
H24 H 0.59915 1.01148 0.11466 0.0
O25 O 0.67371 0.08605 0.15574 0.0
O26 O 0.6187 0.09203 0.14731 0.0
O27 O 0.61843 0.06271 0.09073 0.0
C28 C 0.64386 0.09493 0.16463 0.0
H29 H 0.64986 0.1844 0.06559 0.0
H30 H 0.67041 0.95608 0.16081 0.0
H31 H 0.7184 0.98178 0.07443 0.0
H32 H 0.77582 0.0649 0.10895 0.0
Co33 Co 0.46096 0.65558 0.11661 0.0
C34 C 0.38949 0.68106 0.11503 0.0
C35 C 0.40418 0.65875 0.07657 0.0
C36 C 0.37238 0.67279 0.07353 0.0
N37 N 0.415 0.6636 0.10271 0.0
N38 N 0.36334 0.68715 0.09762 0.0
H39 H 0.39068 0.69089 0.13582 0.0
H40 H 0.4191 0.64791 0.06012 0.0
C41 C 0.45846 0.59579 0.08109 0.0
O42 O 0.43315 0.58677 0.09711 0.0
N43 N 0.50678 0.64826 0.13009 0.0
C44 C 0.52502 0.67024 0.14541 0.0
C45 C 0.55843 0.65989 0.14561 0.0
C46 C 0.52925 0.62463 0.12148 0.0
N47 N 0.56114 0.63139 0.13027 0.0
C48 C 0.46201 0.72615 0.10483 0.0
C49 C 0.52332 0.7261 0.07712 0.0
C50 C 0.50976 0.75706 0.08634 0.0
C51 C 0.4779 0.75695 0.09905 0.0
C52 C 0.50594 0.69573 0.08256 0.0
N53 N 0.47663 0.69602 0.09761 0.0
H54 H 0.43942 0.72655 0.11735 0.0
H55 H 0.51765 0.67188 0.07697 0.0
H56 H 0.51522 0.69356 0.15412 0.0
H57 H 0.52278 0.60374 0.10804 0.0
O58 O 0.44923 0.6763 0.15159 0.0
O59 O 0.44463 0.62147 0.14223 0.0
O60 O 0.47162 0.62532 0.08401 0.0
C61 C 0.44149 0.64594 0.16006 0.0
H62 H 0.35812 0.67454 0.05447 0.0
H63 H 0.5794 0.67367 0.15476 0.0
H64 H 0.54794 0.72524 0.06722 0.0
H65 H 0.4668 0.78024 0.10681 0.0
Co66 Co 0.87971 0.46192 0.1218 0.0
C67 C 0.85003 0.39248 0.11539 0.0
C68 C 0.89458 0.39817 0.09068 0.0
C69 C 0.8814 0.36608 0.08644 0.0
N70 N 0.87421 0.41534 0.10815 0.0
N71 N 0.85319 0.36257 0.10192 0.0
H72 H 0.83074 0.39711 0.13064 0.0
H73 H 0.9179 0.40774 0.08193 0.0
C74 C 0.91236 0.47189 0.06455 0.0
O75 O 0.8862 0.4593 0.05115 0.0
N76 N 0.8849 0.5079 0.13565 0.0
C77 C 0.86206 0.52505 0.15094 0.0
C78 C 0.87084 0.55898 0.1512 0.0
C79 C 0.90739 0.53156 0.12713 0.0
N80 N 0.89915 0.56306 0.13589 0.0
C81 C 0.80864 0.46494 0.1108 0.0
C82 C 0.81009 0.52299 0.07887 0.0
C83 C 0.77873 0.51091 0.08851 0.0
C84 C 0.77828 0.48078 0.10376 0.0
C85 C 0.84007 0.5057 0.08581 0.0
N86 N 0.83922 0.47729 0.10213 0.0
H87 H 0.80729 0.44493 0.12571 0.0
H88 H 0.86402 0.51708 0.08017 0.0
H89 H 0.83921 0.51411 0.15957 0.0
H90 H 0.92851 0.52626 0.11371 0.0
O91 O 0.85881 0.44878 0.15638 0.0
O92 O 0.91394 0.44647 0.14732 0.0
O93 O 0.91203 0.4737 0.09082 0.0
C94 C 0.88943 0.44201 0.1649 0.0
H95 H 0.89218 0.34666 0.07331 0.0
H96 H 0.85616 0.57932 0.16031 0.0
H97 H 0.8116 0.54653 0.06735 0.0
H98 H 0.75487 0.47118 0.11254 0.0
Co99 Co 0.07057 0.88173 0.12362 0.0
C100 C 0.13902 0.84968 0.118 0.0
C101 C 0.1334 0.89141 0.09011 0.0
C102 C 0.16528 0.87754 0.08659 0.0
N103 N 0.11636 0.87333 0.10932 0.0
N104 N 0.16859 0.85106 0.10399 0.0
H105 H 0.13472 0.83238 0.13494 0.0
H106 H 0.12393 0.91363 0.07958 0.0
C107 C 0.05807 0.91247 0.06642 0.0
O108 O 0.0648 0.88373 0.05379 0.0
N109 N 0.02546 0.89029 0.13813 0.0
C110 C 1.0075 0.86901 0.15431 0.0
C111 C 0.97416 0.87957 0.15477 0.0
C112 C 1.00288 0.91377 0.12933 0.0
N113 N 0.97121 0.90745 0.13873 0.0
C114 C 0.06528 0.81119 0.11079 0.0
C115 C 1.0032 0.8143 0.08444 0.0
C116 C 1.01612 0.78247 0.0922 0.0
C117 C 0.04819 0.78122 0.10455 0.0
C118 C 0.02165 0.84388 0.09054 0.0
N119 N 0.05207 0.84222 0.10424 0.0
H120 H 0.08744 0.80905 0.12344 0.0
H121 H 1.01006 0.86815 0.08618 0.0
H122 H 1.0173 0.84585 0.16331 0.0
H123 H 1.00897 0.93398 0.11509 0.0
O124 O 0.08246 0.8595 0.15783 0.0
O125 O 0.08931 0.91442 0.14924 0.0
O126 O 0.06053 0.91467 0.09261 0.0
C127 C 0.09199 0.88926 0.16657 0.0
H128 H 0.18436 0.88604 0.07209 0.0
H129 H 0.95331 0.86616 0.16441 0.0
H130 H 0.97835 0.81645 0.075 0.0
H131 H 0.05876 0.75738 0.11174 0.0
Co132 Co 0.15526 0.96311 0.40718 0.0
C133 C 0.18541 0.89368 0.41334 0.0
C134 C 0.15444 0.90616 0.44813 0.0
C135 C 0.17032 0.87562 0.45322 0.0
N136 N 0.16461 0.91827 0.4234 0.0
N137 N 0.18984 0.86791 0.43138 0.0
H138 H 0.19893 0.89546 0.39399 0.0
H139 H 0.13716 0.9184 0.46209 0.0
C140 C 0.12436 0.98264 0.46323 0.0
O141 O 0.15366 0.98111 0.47615 0.0
N142 N 0.14612 1.00726 0.39073 0.0
C143 C 0.1677 0.02435 0.37416 0.0
C144 C 0.15759 0.05778 0.3727 0.0
C145 C 0.12261 0.03041 0.39848 0.0
N146 N 0.12946 0.06156 0.3882 0.0
C147 C 0.22552 0.96765 0.42143 0.0
C148 C 0.22371 0.03343 0.44118 0.0
C149 C 0.25522 0.0185 0.43545 0.0
C150 C 0.25589 0.9847 0.42663 0.0
C151 C 0.19381 1.01512 0.43632 0.0
N152 N 0.19481 0.9829 0.42566 0.0
H153 H 0.22712 0.94335 0.41149 0.0
H154 H 0.16987 0.02796 0.43921 0.0
H155 H 0.19094 1.01403 0.36578 0.0
H156 H 0.10283 0.02561 0.41343 0.0
O157 O 0.17737 0.94965 0.37335 0.0
O158 O 0.12263 0.94265 0.38245 0.0
O159 O 0.12213 0.97463 0.43775 0.0
C160 C 0.14757 0.93963 0.36501 0.0
H161 H 0.1683 0.86056 0.47184 0.0
H162 H 0.1711 0.07816 0.36247 0.0
H163 H 0.22214 0.05961 0.44796 0.0
H164 H 0.27965 0.97247 0.42132 0.0
Co165 Co 0.57411 0.15933 0.40678 0.0
C166 C 0.64494 0.18602 0.41056 0.0
C167 C 0.62948 0.16223 0.44825 0.0
C168 C 0.66107 0.17648 0.45215 0.0
N169 N 0.61929 0.1679 0.42205 0.0
N170 N 0.67059 0.19174 0.42854 0.0
H171 H 0.64428 0.1964 0.38992 0.0
H172 H 0.61434 0.15055 0.4642 0.0
C173 C 0.57343 0.10028 0.44403 0.0
O174 O 0.59834 0.08867 0.42873 0.0
N175 N 0.52908 0.15164 0.39181 0.0
C176 C 0.51167 0.17397 0.37614 0.0
C177 C 0.47812 0.16421 0.37527 0.0
C178 C 0.506 0.12822 0.3998 0.0
N179 N 0.47461 0.13561 0.39032 0.0
C180 C 0.57159 0.23019 0.41746 0.0
C181 C 0.50972 0.22954 0.44437 0.0
C182 C 0.5231 0.26059 0.43517 0.0
C183 C 0.55518 0.26081 0.42281 0.0
C184 C 0.52755 0.19938 0.43933 0.0
N185 N 0.55721 0.19994 0.42475 0.0
H186 H 0.59448 0.23077 0.40532 0.0
H187 H 0.51595 0.17545 0.44491 0.0
H188 H 0.52208 0.19723 0.36777 0.0
H189 H 0.51126 0.10777 0.41404 0.0
O190 O 0.58717 0.17946 0.372 0.0
O191 O 0.59217 0.12488 0.38214 0.0
O192 O 0.56173 0.13009 0.43954 0.0
C193 C 0.59554 0.14909 0.36404 0.0
H194 H 0.6749 0.1776 0.47144 0.0
H195 H 0.45759 0.17803 0.36553 0.0
H196 H 0.48494 0.22842 0.454 0.0
H197 H 0.56616 0.2842 0.41506 0.0
Co198 Co 0.38482 0.57766 0.4032 0.0
C199 C 0.35743 0.64797 0.41007 0.0
C200 C 0.39793 0.63864 0.43853 0.0
C201 C 0.38446 0.67026 0.44396 0.0
N202 N 0.38004 0.62383 0.41798 0.0
N203 N 0.35897 0.67599 0.42605 0.0
H204 H 0.33972 0.64525 0.39318 0.0
H205 H 0.41951 0.62774 0.44896 0.0
C206 C 0.41571 0.56324 0.46035 0.0
O207 O 0.38853 0.57404 0.47336 0.0
N208 N 0.38931 0.53225 0.38813 0.0
C209 C 0.36498 0.51514 0.37429 0.0
C210 C 0.37374 0.48126 0.37334 0.0
C211 C 0.4129 0.50875 0.39473 0.0
N212 N 0.40376 0.47736 0.38636 0.0
C213 C 0.31394 0.57663 0.41555 0.0
C214 C 0.31393 0.51498 0.44274 0.0
C215 C 0.28286 0.52889 0.43415 0.0
C216 C 0.28315 0.56083 0.42147 0.0
C217 C 0.34432 0.53206 0.43685 0.0
N218 N 0.3442 0.56215 0.42264 0.0
H219 H 0.31309 0.59869 0.40262 0.0
H220 H 0.36796 0.51933 0.44137 0.0
H221 H 0.34121 0.52603 0.36742 0.0
H222 H 0.43489 0.51381 0.40735 0.0
O223 O 0.36368 0.59207 0.36906 0.0
O224 O 0.41896 0.59358 0.37777 0.0
O225 O 0.41701 0.56414 0.43403 0.0
C226 C 0.39425 0.59866 0.3604 0.0
H227 H 0.39274 0.68774 0.45985 0.0
H228 H 0.35837 0.46085 0.36504 0.0
H229 H 0.3149 0.49021 0.45246 0.0
H230 H 0.25995 0.57215 0.41373 0.0
Co231 Co 0.96511 0.38371 0.40619 0.0
C232 C 0.89586 0.35348 0.41135 0.0
C233 C 0.90313 0.39314 0.44091 0.0
C234 C 0.871 0.37971 0.44435 0.0
N235 N 0.91926 0.37603 0.42066 0.0
N236 N 0.86669 0.35449 0.42591 0.0
H237 H 0.89951 0.33699 0.3938 0.0
H238 H 0.91343 0.41427 0.45236 0.0
C239 C 0.97972 0.41325 0.4636 0.0
O240 O 0.97325 0.38445 0.47627 0.0
N241 N 1.01022 0.39169 0.39149 0.0
C242 C 0.02824 0.37006 0.37572 0.0
C243 C 0.06145 0.3811 0.37476 0.0
C244 C 0.03253 0.41586 0.39945 0.0
N245 N 0.06419 0.40969 0.39001 0.0
C246 C 0.96819 0.31271 0.41876 0.0
C247 C 0.03154 0.31381 0.44315 0.0
C248 C 1.01723 0.28248 0.43574 0.0
C249 C 0.98455 0.28216 0.42453 0.0
C250 C 1.01369 0.34395 0.43784 0.0
N251 N 0.98273 0.3433 0.42492 0.0
H252 H 0.94541 0.3113 0.40678 0.0
H253 H 0.0262 0.36785 0.44197 0.0
H254 H 0.01856 0.34652 0.36731 0.0
H255 H 0.02617 0.43668 0.413 0.0
O256 O 0.9521 0.36271 0.37169 0.0
O257 O 0.94729 0.41761 0.38137 0.0
O258 O 0.97634 0.41569 0.43751 0.0
C259 C 0.94353 0.39307 0.36362 0.0
H260 H 0.85251 0.38748 0.45959 0.0
H261 H 0.08236 0.36769 0.36524 0.0
H262 H 0.05699 0.3151 0.45161 0.0
H263 H 0.97298 0.25859 0.41776 0.0
Co264 Co 0.38151 0.96156 0.90233 0.0
C265 C 0.35003 0.89325 0.91034 0.0
C266 C 0.39521 0.89822 0.93447 0.0
C267 C 0.38128 0.86655 0.9393 0.0
N268 N 0.37495 0.91559 0.91698 0.0
N269 N 0.3526 0.86362 0.92427 0.0
H270 H 0.33116 0.89759 0.89461 0.0
H271 H 0.41887 0.9074 0.94294 0.0
C272 C 0.41402 0.9722 0.95926 0.0
O273 O 0.38713 0.96037 0.97211 0.0
N274 N 0.38762 1.00689 0.88737 0.0
C275 C 0.36534 0.02331 0.87096 0.0
C276 C 0.37425 0.05712 0.86969 0.0
C277 C 0.40988 0.03092 0.89566 0.0
N278 N 0.40204 0.06191 0.88552 0.0
C279 C 0.31084 0.9665 0.9149 0.0
C280 C 0.31473 0.02671 0.9439 0.0
C281 C 0.28284 1.01459 0.93561 0.0
C282 C 0.28108 0.9834 0.92197 0.0
C283 C 0.34403 1.00823 0.93724 0.0
N284 N 0.34199 0.97883 0.92221 0.0
H285 H 0.30847 0.94556 0.90097 0.0
H286 H 0.3684 0.01938 0.94197 0.0
H287 H 0.34273 1.01206 0.86215 0.0
H288 H 0.43045 0.02633 0.90985 0.0
O289 O 0.35933 0.94834 0.86829 0.0
O290 O 0.41451 0.94402 0.87652 0.0
O291 O 0.41465 0.97335 0.93293 0.0
C292 C 0.38938 0.94025 0.85932 0.0
H293 H 0.39139 0.84736 0.95303 0.0
H294 H 0.36001 0.07697 0.85944 0.0
H295 H 0.31712 0.05111 0.95406 0.0
H296 H 0.25705 0.97376 0.91434 0.0
Co297 Co 0.57684 0.38169 0.90744 0.0
C298 C 0.64637 0.35156 0.91188 0.0
C299 C 0.63836 0.38879 0.94326 0.0
C300 C 0.67008 0.37467 0.94695 0.0
N301 N 0.62278 0.37348 0.92177 0.0
N302 N 0.67491 0.35088 0.92737 0.0
H303 H 0.64301 0.33637 0.89351 0.0
H304 H 0.62793 0.40905 0.95557 0.0
C305 C 0.56238 0.40827 0.96538 0.0
O306 O 0.56914 0.37858 0.9765 0.0
N307 N 0.53165 0.39027 0.89292 0.0
C308 C 0.5138 0.36947 0.87624 0.0
C309 C 0.48053 0.38024 0.87557 0.0
C310 C 0.50911 0.41373 0.90175 0.0
N311 N 0.47752 0.40784 0.89192 0.0
C312 C 0.57399 0.31071 0.91861 0.0
C313 C 0.50904 0.31015 0.93997 0.0
C314 C 0.52324 0.27974 0.93032 0.0
C315 C 0.55687 0.28004 0.92131 0.0
C316 C 0.52751 0.34055 0.93742 0.0
N317 N 0.55905 0.34083 0.92545 0.0
H318 H 0.59762 0.30999 0.90785 0.0
H319 H 0.51494 0.36412 0.94247 0.0
H320 H 0.52364 0.34651 0.86696 0.0
H321 H 0.51523 0.43373 0.91617 0.0
O322 O 0.58901 0.36101 0.87282 0.0
O323 O 0.59505 0.41572 0.88258 0.0
O324 O 0.5659 0.41278 0.93946 0.0
C325 C 0.59787 0.39119 0.86465 0.0
H326 H 0.68781 0.38089 0.96325 0.0
H327 H 0.45976 0.3672 0.86545 0.0
H328 H 0.48298 0.31095 0.94705 0.0
H329 H 0.56886 0.25702 0.91386 0.0
Co330 Co 0.15531 0.57184 0.90917 0.0
C331 C 0.18453 0.64152 0.91412 0.0
C332 C 0.14712 0.63307 0.94529 0.0
C333 C 0.16121 0.66485 0.94919 0.0
N334 N 0.16242 0.61786 0.92367 0.0
N335 N 0.18509 0.66995 0.92973 0.0
H336 H 0.19998 0.63827 0.89592 0.0
H337 H 0.12708 0.62225 0.95761 0.0
C338 C 0.12485 0.55606 0.96632 0.0
O339 O 0.15331 0.56188 0.97968 0.0
N340 N 0.14847 0.5265 0.89443 0.0
C341 C 0.17119 0.50921 0.8791 0.0
C342 C 0.16205 0.47543 0.87864 0.0
C343 C 0.12536 0.50312 0.90251 0.0
N344 N 0.1334 0.47168 0.89353 0.0
C345 C 0.22624 0.56981 0.92127 0.0
C346 C 0.2263 0.50715 0.94686 0.0
C347 C 0.25736 0.52155 0.93883 0.0
C348 C 0.25703 0.55391 0.92691 0.0
C349 C 0.19588 0.52438 0.94134 0.0
N350 N 0.19596 0.55504 0.92796 0.0
H351 H 0.22712 0.59237 0.90894 0.0
H352 H 0.17224 0.51157 0.94571 0.0
H353 H 0.19436 0.51987 0.87081 0.0
H354 H 0.10476 0.50824 0.91662 0.0
O355 O 0.17602 0.58515 0.8746 0.0
O356 O 0.12112 0.58894 0.88434 0.0
O357 O 0.12318 0.56013 0.94025 0.0
C358 C 0.14547 0.593 0.86653 0.0
H359 H 0.15497 0.68239 0.96559 0.0
H360 H 0.17636 0.45494 0.86936 0.0
H361 H 0.22538 0.48203 0.95598 0.0
H362 H 0.28023 0.56563 0.91958 0.0
Co363 Co 0.96544 0.15381 0.90472 0.0
C364 C 0.89691 0.18469 0.91146 0.0
C365 C 0.9019 0.14056 0.93682 0.0
C366 C 0.87011 0.15445 0.94101 0.0
N367 N 0.91933 0.16027 0.91896 0.0
N368 N 0.86721 0.18249 0.92521 0.0
H369 H 0.90136 0.203 0.89531 0.0
H370 H 0.91107 0.1173 0.94597 0.0
C371 C 0.97577 0.12107 0.96151 0.0
O372 O 0.96439 0.1481 0.97443 0.0
N373 N 1.01088 0.14777 0.8901 0.0
C374 C 0.02832 0.17144 0.87579 0.0
C375 C 0.06214 0.16257 0.87546 0.0
C376 C 0.03424 0.12447 0.89772 0.0
N377 N 0.06577 0.13317 0.88943 0.0
C378 C 0.96958 0.22437 0.91832 0.0
C379 C 0.03023 0.22074 0.94677 0.0
C380 C 1.01763 0.25264 0.93896 0.0
C381 C 0.98622 0.25423 0.92566 0.0
C382 C 1.012 0.1913 0.9399 0.0
N383 N 0.98244 0.19323 0.92505 0.0
H384 H 0.94835 0.22673 0.90469 0.0
H385 H 0.02344 0.16695 0.94425 0.0
H386 H 1.0177 0.195 0.86819 0.0
H387 H 0.02902 0.1032 0.91109 0.0
O388 O 0.95268 0.1763 0.87074 0.0
O389 O 0.94806 0.12101 0.87868 0.0
O390 O 0.97683 0.12046 0.9352 0.0
C391 C 0.94429 0.14632 0.86167 0.0
H392 H 0.85084 0.14479 0.95485 0.0
H393 H 0.08269 0.17752 0.86694 0.0
H394 H 0.0548 0.21849 0.95669 0.0
H395 H 0.97617 0.27829 0.91845 0.0
Co396 Co 0.87993 0.07256 0.62084 0.0
C397 C 0.84944 0.14171 0.61439 0.0
C398 C 0.89232 0.13537 0.5879 0.0
C399 C 0.87896 0.16733 0.58366 0.0
N400 N 0.87307 0.11863 0.60648 0.0
N401 N 0.8518 0.17123 0.60024 0.0
H402 H 0.83109 0.1374 0.6305 0.0
H403 H 0.91514 0.12575 0.57842 0.0
C404 C 0.91183 0.06117 0.56379 0.0
O405 O 0.88437 0.07111 0.55065 0.0
N406 N 0.88683 0.02714 0.63545 0.0
C407 C 0.86419 1.00913 0.65031 0.0
C408 C 0.87412 0.97554 0.65066 0.0
C409 C 0.91047 1.00438 0.62744 0.0
N410 N 0.903 0.97253 0.6359 0.0
C411 C 0.80927 0.06845 0.60764 0.0
C412 C 0.81232 1.00707 0.58022 0.0
C413 C 0.78056 0.01997 0.58799 0.0
C414 C 0.77926 0.05172 0.60079 0.0
C415 C 0.84189 0.02533 0.58664 0.0
N416 N 0.84026 0.05525 0.60101 0.0
H417 H 0.80721 0.09018 0.62077 0.0
H418 H 0.86613 1.01372 0.58228 0.0
H419 H 0.84061 0.01914 0.65833 0.0
H420 H 0.93173 1.01056 0.61441 0.0
O421 O 0.85795 0.08519 0.65501 0.0
O422 O 0.91304 0.09021 0.64649 0.0
O423 O 0.91277 0.0614 0.59011 0.0
C424 C 0.88803 0.09377 0.66376 0.0
H425 H 0.88896 0.18641 0.5698 0.0
H426 H 0.85971 0.95466 0.65927 0.0
H427 H 0.81436 0.98231 0.57061 0.0
H428 H 0.75533 0.06209 0.6079 0.0
Co429 Co 0.46105 0.87906 0.61655 0.0
C430 C 0.3901 0.85229 0.61406 0.0
C431 C 0.4039 0.87794 0.57675 0.0
C432 C 0.37246 0.86326 0.57313 0.0
N433 N 0.41513 0.87123 0.60249 0.0
N434 N 0.36396 0.84677 0.59647 0.0
H435 H 0.39165 0.84117 0.63441 0.0
H436 H 0.41825 0.8906 0.56082 0.0
C437 C 0.46227 0.93954 0.58109 0.0
O438 O 0.44037 0.95192 0.59881 0.0
N439 N 0.50688 0.886 0.63021 0.0
C440 C 0.52464 0.86325 0.64522 0.0
C441 C 0.55836 0.87251 0.64522 0.0
C442 C 0.53001 0.90913 0.62168 0.0
N443 N 0.56167 0.90122 0.63028 0.0
C444 C 0.46235 0.8084 0.60569 0.0
C445 C 0.52234 0.80825 0.57616 0.0
C446 C 0.50921 0.77732 0.58597 0.0
C447 C 0.47799 0.77761 0.59973 0.0
C448 C 0.50531 0.83868 0.58203 0.0
N449 N 0.47658 0.83846 0.5978 0.0
H450 H 0.44033 0.80803 0.61882 0.0
H451 H 0.51685 0.86248 0.57602 0.0
H452 H 0.51424 0.84009 0.65378 0.0
H453 H 0.52451 0.92979 0.6077 0.0
O454 O 0.44921 0.85853 0.65157 0.0
O455 O 0.44435 0.91322 0.64214 0.0
O456 O 0.47217 0.90872 0.58362 0.0
C457 C 0.44124 0.88878 0.66002 0.0
H458 H 0.35811 0.86272 0.55408 0.0
H459 H 0.57907 0.85836 0.65439 0.0
H460 H 0.5464 0.80907 0.56538 0.0
H461 H 0.46717 0.75448 0.6081 0.0
Co462 Co 0.6536 0.46231 0.62166 0.0
C463 C 0.68504 0.39341 0.61535 0.0
C464 C 0.64434 0.40074 0.58673 0.0
C465 C 0.65822 0.3691 0.58234 0.0
N466 N 0.66186 0.41669 0.60687 0.0
N467 N 0.68411 0.36456 0.60019 0.0
H468 H 0.70238 0.39738 0.63232 0.0
H469 H 0.62243 0.41072 0.57612 0.0
C470 C 0.62281 0.47647 0.56476 0.0
O471 O 0.65169 0.47058 0.55211 0.0
N472 N 0.64492 0.50719 0.63663 0.0
C473 C 0.6667 0.52586 0.65184 0.0
C474 C 0.65554 0.55905 0.65222 0.0
C475 C 0.62046 0.52907 0.62857 0.0
N476 N 0.62673 0.5611 0.63718 0.0
C477 C 0.72394 0.46739 0.60764 0.0
C478 C 0.72049 0.53126 0.58425 0.0
C479 C 0.75234 0.51783 0.5912 0.0
C480 C 0.75385 0.48487 0.60183 0.0
C481 C 0.69105 0.51236 0.58963 0.0
N482 N 0.69285 0.48119 0.60217 0.0
H483 H 0.72623 0.44434 0.61919 0.0
H484 H 0.66676 0.52423 0.58591 0.0
H485 H 0.6906 0.51669 0.65996 0.0
H486 H 0.59956 0.52221 0.61523 0.0
O487 O 0.67623 0.45026 0.65566 0.0
O488 O 0.62126 0.44331 0.64737 0.0
O489 O 0.62043 0.47274 0.59084 0.0
C490 C 0.64654 0.4409 0.66463 0.0
H491 H 0.64949 0.35072 0.56733 0.0
H492 H 0.66917 0.58041 0.66091 0.0
H493 H 0.71827 0.55683 0.57617 0.0
H494 H 0.77785 0.47389 0.60818 0.0
Co495 Co 0.07112 0.65406 0.62522 0.0
C496 C 0.13941 0.68499 0.61662 0.0
C497 C 0.13584 0.63675 0.59658 0.0
C498 C 0.16792 0.64994 0.59207 0.0
N499 N 0.11748 0.65927 0.61134 0.0
N500 N 0.16994 0.68048 0.60455 0.0
H501 H 0.13428 0.7058 0.63034 0.0
H502 H 0.1269 0.61213 0.58988 0.0
C503 C 0.06318 0.62169 0.56798 0.0
O504 O 0.07836 0.64718 0.55554 0.0
N505 N 0.02533 0.64922 0.63931 0.0
C506 C 1.00823 0.67305 0.65365 0.0
C507 C 0.97424 0.66468 0.65383 0.0
C508 C 1.00161 0.62639 0.63145 0.0
N509 N 0.97017 0.63544 0.63972 0.0
C510 C 0.06687 0.72539 0.61576 0.0
C511 C 1.01084 0.72384 0.58155 0.0
C512 C 0.02195 0.75514 0.59208 0.0
C513 C 0.05105 0.75567 0.60855 0.0
C514 C 0.02827 0.69393 0.58858 0.0
N515 N 0.05579 0.69483 0.60588 0.0
H516 H 0.08555 0.72671 0.63178 0.0
H517 H 1.01754 0.66994 0.58221 0.0
H518 H 0.01928 0.69626 0.66157 0.0
H519 H 1.00661 0.60503 0.61815 0.0
O520 O 0.08487 0.67463 0.65975 0.0
O521 O 0.08664 0.61951 0.65052 0.0
O522 O 0.05885 0.62216 0.59405 0.0
C523 C 0.09164 0.64397 0.6681 0.0
H524 H 0.18806 0.638 0.5804 0.0
H525 H 0.95393 0.67976 0.66254 0.0
H526 H 0.98793 0.72228 0.56923 0.0
H527 H 0.05966 0.77902 0.61814 0.0
H528 H 0.56029 0.9623 0.13075 0.0
H529 H 0.65896 0.91626 0.12208 0.0
H530 H 0.53353 0.90988 0.11481 0.0
H531 H 0.63279 0.86441 0.10477 0.0
H532 H 0.57309 0.7644 0.10753 0.0
H533 H 0.60232 0.81716 0.11831 0.0
H534 H 0.52223 0.87383 0.078 0.0
H535 H 0.49223 0.82072 0.06865 0.0
C536 C 0.57619 0.94093 0.1252 0.0
C537 C 0.61157 0.94308 0.12806 0.0
C538 C 0.56097 0.91095 0.11577 0.0
C539 C 0.58089 0.88259 0.1084 0.0
C540 C 0.61645 0.88522 0.11078 0.0
C541 C 0.63155 0.91497 0.12072 0.0
C542 C 0.56221 0.78812 0.10039 0.0
C543 C 0.53049 0.7885 0.08717 0.0
C544 C 0.57895 0.81852 0.10659 0.0
C545 C 0.5646 0.8501 0.09934 0.0
C546 C 0.53372 0.85021 0.08461 0.0
C547 C 0.5167 0.81978 0.07886 0.0
H548 H 0.77158 0.57858 0.09942 0.0
H549 H 0.71455 0.48961 0.07542 0.0
H550 H 0.71861 0.60952 0.10675 0.0
H551 H 0.66157 0.52023 0.08334 0.0
H552 H 0.57167 0.59379 0.08387 0.0
H553 H 0.62444 0.56719 0.06924 0.0
H554 H 0.67442 0.6051 0.14234 0.0
H555 H 0.62159 0.63146 0.15717 0.0
C556 C 0.74775 0.56592 0.09497 0.0
C557 C 0.74723 0.53162 0.08689 0.0
C558 C 0.71739 0.58347 0.09959 0.0
C559 C 0.68586 0.56717 0.09608 0.0
C560 C 0.68538 0.53359 0.08619 0.0
C561 C 0.71573 0.516 0.08172 0.0
C562 C 0.59372 0.59618 0.09706 0.0
C563 C 0.59218 0.61476 0.12185 0.0
C564 C 0.62409 0.58105 0.08853 0.0
C565 C 0.65375 0.58423 0.10448 0.0
C566 C 0.65224 0.60275 0.12925 0.0
C567 C 0.62186 0.61777 0.13783 0.0
H568 H 0.94969 0.77534 0.10745 0.0
H569 H 0.03535 0.71852 0.0766 0.0
H570 H 0.91891 0.72235 0.11536 0.0
H571 H 1.00515 0.66555 0.08536 0.0
H572 H 0.9332 0.57555 0.08823 0.0
H573 H 0.95814 0.62909 0.07344 0.0
H574 H 0.92406 0.67659 0.14876 0.0
H575 H 0.89896 0.6229 0.16354 0.0
C576 C 0.96163 0.75159 0.10172 0.0
C577 C 0.99501 0.75112 0.09148 0.0
C578 C 0.94421 0.72117 0.10668 0.0
C579 C 0.95974 0.68963 0.10144 0.0
C580 C 0.99232 0.68931 0.08957 0.0
C581 C 1.00972 0.71969 0.08465 0.0
C582 C 0.93129 0.59725 0.10182 0.0
C583 C 0.9143 0.59477 0.12727 0.0
C584 C 0.94549 0.62807 0.09323 0.0
C585 C 0.94308 0.65723 0.10984 0.0
C586 C 0.92587 0.65482 0.13519 0.0
C587 C 0.91162 0.62399 0.14377 0.0
H588 H 0.91167 0.91018 0.16652 0.0
H589 H 0.95945 0.93999 0.0901 0.0
H590 H 0.85824 0.9346 0.15064 0.0
H591 H 0.9061 0.96447 0.07429 0.0
H592 H 0.81526 0.04087 0.07459 0.0
H593 H 0.86872 1.01204 0.08449 0.0
H594 H 0.81325 0.926 0.11671 0.0
H595 H 0.75983 0.95532 0.10758 0.0
C596 C 0.91076 0.92179 0.1463 0.0
C597 C 0.93998 0.92322 0.12973 0.0
C598 C 0.88008 0.93565 0.13711 0.0
C599 C 0.87779 0.95129 0.11108 0.0
C600 C 0.90704 0.95289 0.09454 0.0
C601 C 0.93773 0.939 0.10372 0.0
C602 C 0.81451 1.01554 0.08335 0.0
C603 C 0.78331 1.00048 0.09045 0.0
C604 C 0.84514 0.99895 0.08894 0.0
C605 C 0.84529 0.96692 0.10181 0.0
C606 C 0.81403 0.95094 0.10727 0.0
C607 C 0.78338 0.96751 0.10162 0.0
H608 H 1.00039 0.22007 0.45647 0.0
H609 H 0.07895 0.27328 0.41208 0.0
H610 H 0.02916 0.16616 0.44783 0.0
H611 H 0.10689 0.21964 0.40206 0.0
H612 H 0.16244 0.11994 0.39999 0.0
H613 H 0.13782 0.17296 0.41624 0.0
H614 H 0.03771 0.12778 0.41206 0.0
H615 H 0.06301 0.07422 0.39713 0.0
C616 C 0.02412 0.22017 0.44518 0.0
C617 C 0.03761 0.25081 0.43513 0.0
C618 C 0.04041 0.18926 0.43985 0.0
C619 C 0.07022 0.1882 0.42384 0.0
C620 C 0.08434 0.21919 0.41479 0.0
C621 C 0.06835 0.2501 0.42055 0.0
C622 C 0.13515 0.12152 0.40239 0.0
C623 C 0.11453 0.09316 0.39695 0.0
C624 C 0.12095 0.15196 0.41172 0.0
C625 C 0.08562 0.15504 0.41542 0.0
C626 C 0.06504 0.12643 0.41002 0.0
C627 C 0.0794 0.09577 0.40118 0.0
H628 H 0.26415 0.07943 0.41017 0.0
H629 H 0.31767 1.00307 0.45698 0.0
H630 H 0.31738 0.10844 0.40085 0.0
H631 H 0.37116 0.03289 0.4488 0.0
H632 H 0.46337 0.06875 0.39904 0.0
H633 H 0.41018 0.04203 0.41317 0.0
H634 H 0.36254 0.14098 0.41675 0.0
H635 H 0.41528 0.1671 0.40146 0.0
C636 C 0.28727 0.06948 0.41923 0.0
C637 C 0.28678 0.03906 0.43436 0.0
C638 C 0.31792 0.08611 0.41388 0.0
C639 C 0.34887 0.07298 0.42385 0.0
C640 C 0.34805 0.04338 0.44019 0.0
C641 C 0.31739 0.02646 0.44518 0.0
C642 C 0.44141 0.08462 0.40283 0.0
C643 C 0.44326 0.11987 0.39874 0.0
C644 C 0.41096 0.06942 0.41118 0.0
C645 C 0.38179 0.08926 0.41612 0.0
C646 C 0.38407 0.1247 0.41257 0.0
C647 C 0.41433 0.13975 0.40379 0.0
H648 H 0.54017 0.32444 0.45259 0.0
H649 H 0.45955 0.26721 0.41413 0.0
H650 H 0.50962 0.3772 0.44328 0.0
H651 H 0.42968 0.3197 0.40351 0.0
H652 H 0.37235 0.41911 0.40135 0.0
H653 H 0.399 0.36699 0.41773 0.0
H654 H 0.49798 0.41249 0.4058 0.0
H655 H 0.47091 0.465 0.39065 0.0
C656 C 0.51566 0.32322 0.44245 0.0
C657 C 0.50211 0.29181 0.43422 0.0
C658 C 0.49831 0.35344 0.43676 0.0
C659 C 0.46733 0.35297 0.42218 0.0
C660 C 0.45318 0.32127 0.41505 0.0
C661 C 0.47028 0.29106 0.42117 0.0
C662 C 0.3998 0.41775 0.40203 0.0
C663 C 0.41962 0.44595 0.39449 0.0
C664 C 0.41515 0.38788 0.41146 0.0
C665 C 0.45077 0.38529 0.41319 0.0
C666 C 0.47051 0.41359 0.4054 0.0
C667 C 0.45509 0.44363 0.39642 0.0
H668 H 0.12371 0.41135 0.362 0.0
H669 H 0.07559 0.44612 0.43687 0.0
H670 H 0.17674 0.4379 0.37651 0.0
H671 H 0.1285 0.47281 0.45121 0.0
H672 H 0.21862 0.55002 0.44745 0.0
H673 H 0.16539 0.52026 0.43827 0.0
H674 H 0.22165 0.4322 0.4112 0.0
H675 H 0.27482 0.46232 0.41963 0.0
C676 C 0.12443 0.4245 0.38158 0.0
C677 C 0.09522 0.42663 0.39812 0.0
C678 C 0.15489 0.43962 0.38998 0.0
C679 C 0.15694 0.45731 0.41513 0.0
C680 C 0.12771 0.45966 0.43161 0.0
C681 C 0.09726 0.44446 0.42325 0.0
C682 C 0.21959 0.52412 0.43992 0.0
C683 C 0.25096 0.50861 0.43417 0.0
C684 C 0.18909 0.507 0.43476 0.0
C685 C 0.18925 0.47401 0.42362 0.0
C686 C 0.22064 0.45782 0.41931 0.0
C687 C 0.25114 0.4749 0.42457 0.0
H688 H 0.40344 0.11923 0.85476 0.0
H689 H 0.43462 0.07781 0.9333 0.0
H690 H 0.42879 0.17368 0.8671 0.0
H691 H 0.46092 0.13202 0.94529 0.0
H692 H 0.48023 0.24564 0.96574 0.0
H693 H 0.44795 0.19339 0.95581 0.0
H694 H 0.48723 0.19352 0.87268 0.0
H695 H 0.51858 0.24526 0.8824 0.0
C696 C 0.41562 0.12175 0.87467 0.0
C697 C 0.41728 0.09402 0.89286 0.0
C698 C 0.43031 0.15289 0.8817 0.0
C699 C 0.44698 0.15711 0.90714 0.0
C700 C 0.44804 0.12964 0.92563 0.0
C701 C 0.43343 0.09841 0.91855 0.0
C702 C 0.48162 0.23446 0.94537 0.0
C703 C 0.50221 0.24916 0.92497 0.0
C704 C 0.46339 0.20456 0.93972 0.0
C705 C 0.46507 0.18935 0.91344 0.0
C706 C 0.48506 0.20471 0.89301 0.0
C707 C 0.50334 0.23418 0.89869 0.0
H708 H 0.41806 0.41041 0.86375 0.0
H709 H 0.4656 0.44138 0.94008 0.0
H710 H 0.36467 0.43524 0.87908 0.0
H711 H 0.4123 0.46641 0.95524 0.0
H712 H 0.32117 0.54269 0.95354 0.0
H713 H 0.37481 0.51408 0.94383 0.0
H714 H 0.31976 0.42677 0.91341 0.0
H715 H 0.26616 0.45576 0.92245 0.0
C716 C 0.41714 0.42235 0.88383 0.0
C717 C 0.44629 0.42391 0.90055 0.0
C718 C 0.38646 0.43648 0.89269 0.0
C719 C 0.38412 0.4526 0.91849 0.0
C720 C 0.4133 0.45443 0.93516 0.0
C721 C 0.44397 0.44021 0.92634 0.0
C722 C 0.32055 0.51716 0.9452 0.0
C723 C 0.28941 0.50157 0.93866 0.0
C724 C 0.35129 0.50071 0.93972 0.0
C725 C 0.35158 0.46833 0.92746 0.0
C726 C 0.32041 0.45196 0.92241 0.0
C727 C 0.28967 0.46836 0.92799 0.0
H728 H 0.08089 0.26064 0.9179 0.0
H729 H 1.00142 0.31477 0.96029 0.0
H730 H 0.11017 0.31392 0.9089 0.0
H731 H 0.03146 0.36827 0.95272 0.0
H732 H 0.06675 0.459 0.90124 0.0
H733 H 0.04103 0.4058 0.91646 0.0
H734 H 0.14095 0.36085 0.92337 0.0
H735 H 0.16611 0.41361 0.90686 0.0
C736 C 0.07041 0.28391 0.92624 0.0
C737 C 0.03898 0.28363 0.93985 0.0
C738 C 0.08715 0.31461 0.92105 0.0
C739 C 0.07306 0.34575 0.9297 0.0
C740 C 0.04269 0.34503 0.94503 0.0
C741 C 0.02567 0.31436 0.94978 0.0
C742 C 0.08304 0.43762 0.90598 0.0
C743 C 0.11829 0.44022 0.90247 0.0
C744 C 0.06842 0.40716 0.915 0.0
C745 C 0.08882 0.37873 0.92127 0.0
C746 C 0.12426 0.38177 0.91824 0.0
C747 C 0.13876 0.41203 0.90875 0.0
H748 H 0.22024 0.99856 0.956 0.0
H749 H 0.27597 0.07846 0.91529 0.0
H750 H 0.16727 0.02932 0.94817 0.0
H751 H 0.22319 0.10851 0.90607 0.0
H752 H 0.12384 0.1653 0.90388 0.0
H753 H 0.17618 0.13939 0.92053 0.0
H754 H 0.13084 0.03983 0.91122 0.0
H755 H 0.07812 0.06622 0.8958 0.0
C756 C 0.22111 0.02305 0.9458 0.0
C757 C 0.25213 0.03627 0.93639 0.0
C758 C 0.19075 0.04049 0.94091 0.0
C759 C 0.19065 0.0712 0.92597 0.0
C760 C 0.22206 0.0852 0.91789 0.0
C761 C 0.25245 0.06802 0.92321 0.0
C762 C 0.12526 0.13787 0.90525 0.0
C763 C 0.09708 0.1177 0.89827 0.0
C764 C 0.15526 0.12295 0.91483 0.0
C765 C 0.15802 0.0874 0.91729 0.0
C766 C 0.12965 0.06729 0.91025 0.0
C767 C 0.09947 0.0823 0.90111 0.0
H768 H 0.95422 0.76181 0.60244 0.0
H769 H 0.04308 0.8193 0.57921 0.0
H770 H 0.92321 0.81473 0.6103 0.0
H771 H 1.01244 0.87216 0.58755 0.0
H772 H 0.9019 0.91152 0.66195 0.0
H773 H 0.92757 0.85853 0.64638 0.0
H774 H 0.96575 0.90944 0.57385 0.0
H775 H 0.93996 0.96226 0.58922 0.0
C776 C 0.96679 0.78575 0.59822 0.0
C777 C 1.00106 0.78645 0.59021 0.0
C778 C 0.94922 0.81606 0.60315 0.0
C779 C 0.96552 0.84766 0.6 0.0
C780 C 0.99907 0.8483 0.59011 0.0
C781 C 1.01666 0.81803 0.58535 0.0
C782 C 0.91555 0.91138 0.6426 0.0
C783 C 0.919 0.94134 0.62704 0.0
C784 C 0.93013 0.88095 0.63358 0.0
C785 C 0.94858 0.87969 0.60878 0.0
C786 C 0.952 0.9096 0.59318 0.0
C787 C 0.93735 0.94 0.60215 0.0
H788 H 0.77235 0.9566 0.60907 0.0
H789 H 0.71832 0.03651 0.56689 0.0
H790 H 0.71916 0.92689 0.61733 0.0
H791 H 0.66494 1.00605 0.57371 0.0
H792 H 0.57335 0.96823 0.62295 0.0
H793 H 0.62646 0.99503 0.60888 0.0
H794 H 0.67307 0.89585 0.60184 0.0
H795 H 0.62038 0.86962 0.61724 0.0
C796 C 0.74912 0.96715 0.60066 0.0
C797 C 0.74943 0.99877 0.58727 0.0
C798 C 0.71847 0.95014 0.60541 0.0
C799 C 0.68738 0.96412 0.59651 0.0
C800 C 0.68811 0.99484 0.58157 0.0
C801 C 0.71873 1.01213 0.57727 0.0
C802 C 0.59505 0.95233 0.61838 0.0
C803 C 0.59292 0.91695 0.62156 0.0
C804 C 0.62549 0.96758 0.61004 0.0
C805 C 0.6544 0.94772 0.60415 0.0
C806 C 0.6518 0.91217 0.60675 0.0
C807 C 0.62155 0.89703 0.61556 0.0
H808 H 0.59136 0.57017 0.58947 0.0
H809 H 0.62523 0.6221 0.66305 0.0
H810 H 0.56552 0.62244 0.57289 0.0
H811 H 0.59953 0.67457 0.64626 0.0
H812 H 0.48822 0.71272 0.57377 0.0
H813 H 0.51798 0.65994 0.58441 0.0
H814 H 0.60611 0.71752 0.60976 0.0
H815 H 0.57599 0.77031 0.59976 0.0
C816 C 0.59296 0.59256 0.60234 0.0
C817 C 0.61022 0.59177 0.6278 0.0
C818 C 0.57829 0.62264 0.59268 0.0
C819 C 0.58065 0.65273 0.60814 0.0
C820 C 0.59783 0.65198 0.63358 0.0
C821 C 0.61242 0.62187 0.64329 0.0
C822 C 0.51418 0.71404 0.58111 0.0
C823 C 0.5297 0.74566 0.58604 0.0
C824 C 0.53128 0.68381 0.58715 0.0
C825 C 0.56423 0.68456 0.59835 0.0
C826 C 0.58051 0.71613 0.60163 0.0
C827 C 0.56345 0.74637 0.59548 0.0
H828 H 0.91145 0.66761 0.62707 0.0
H829 H 0.95786 0.56858 0.63223 0.0
H830 H 0.85886 0.64188 0.61071 0.0
H831 H 0.90497 0.5424 0.61693 0.0
H832 H 0.81525 0.50307 0.57065 0.0
H833 H 0.86818 0.53344 0.57971 0.0
H834 H 0.81228 0.60972 0.62502 0.0
H835 H 0.75952 0.58005 0.61479 0.0
C836 C 0.91017 0.64023 0.62512 0.0
C837 C 0.93866 0.62005 0.63115 0.0
C838 C 0.88001 0.62541 0.61569 0.0
C839 C 0.87742 0.58995 0.6124 0.0
C840 C 0.90604 0.56982 0.61857 0.0
C841 C 0.93633 0.58473 0.6276 0.0
C842 C 0.81436 0.52679 0.58196 0.0
C843 C 0.78331 0.5393 0.5919 0.0
C844 C 0.8447 0.54401 0.5875 0.0
C845 C 0.84479 0.57384 0.60355 0.0
C846 C 0.8134 0.58712 0.61234 0.0
C847 C 0.78302 0.57015 0.60644 0.0
H848 H 0.70055 0.21367 0.0582 0.0
H849 H 0.7192 0.19294 0.14436 0.0
H850 H 0.74203 0.25942 0.05951 0.0
H851 H 0.76175 0.23802 0.14538 0.0
H852 H 0.81009 0.34485 0.1435 0.0
H853 H 0.76837 0.29911 0.14339 0.0
H854 H 0.80246 0.26827 0.0626 0.0
H855 H 0.84326 0.31479 0.06225 0.0
C856 C 0.71328 0.21892 0.07751 0.0
C857 C 0.70627 0.19942 0.10119 0.0
C858 C 0.73754 0.24496 0.07815 0.0
C859 C 0.75556 0.25239 0.10249 0.0
C860 C 0.74827 0.23323 0.12629 0.0
C861 C 0.72402 0.20709 0.12564 0.0
C862 C 0.80864 0.3285 0.12562 0.0
C863 C 0.83009 0.33386 0.1028 0.0
C864 C 0.78487 0.30194 0.12569 0.0
C865 C 0.78178 0.27998 0.10292 0.0
C866 C 0.80367 0.28493 0.08034 0.0
C867 C 0.82747 0.31143 0.08029 0.0
H868 H 0.36168 0.74545 0.12741 0.0
H869 H 0.30018 0.67953 0.07678 0.0
H870 H 0.31422 0.78548 0.13106 0.0
H871 H 0.25269 0.71939 0.08048 0.0
H872 H 0.16556 0.78392 0.11586 0.0
H873 H 0.21263 0.74344 0.11677 0.0
H874 H 0.28262 0.82429 0.09702 0.0
H875 H 0.23543 0.86485 0.0961 0.0
C876 C 0.33784 0.73926 0.11746 0.0
C877 C 0.33458 0.70928 0.10188 0.0
C878 C 0.3108 0.76232 0.11931 0.0
C879 C 0.27973 0.75563 0.10602 0.0
C880 C 0.2762 0.72517 0.09111 0.0
C881 C 0.3034 0.70243 0.08888 0.0
C882 C 0.19103 0.79314 0.11206 0.0
C883 C 0.19675 0.82763 0.10593 0.0
C884 C 0.21795 0.7699 0.11235 0.0
C885 C 0.25134 0.78065 0.10695 0.0
C886 C 0.25722 0.81527 0.10146 0.0
C887 C 0.23019 0.83845 0.10073 0.0
H888 H 0.32927 0.70404 0.47042 0.0
H889 H 0.33523 0.71094 0.382 0.0
H890 H 0.28766 0.74955 0.4712 0.0
H891 H 0.29543 0.75859 0.38243 0.0
H892 H 0.20067 0.82508 0.38869 0.0
H893 H 0.24126 0.7781 0.38689 0.0
H894 H 0.27735 0.80557 0.46829 0.0
H895 H 0.23497 0.85032 0.47043 0.0
C896 C 0.32208 0.71596 0.45115 0.0
C897 C 0.33558 0.70418 0.42619 0.0
C898 C 0.2983 0.74236 0.4515 0.0
C899 C 0.28799 0.75854 0.42689 0.0
C900 C 0.30195 0.74672 0.40185 0.0
C901 C 0.32507 0.71958 0.40151 0.0
C902 C 0.2173 0.82068 0.40613 0.0
C903 C 0.21447 0.8409 0.42982 0.0
C904 C 0.24087 0.79393 0.40512 0.0
C905 C 0.26288 0.78738 0.42754 0.0
C906 C 0.26042 0.80862 0.45089 0.0
C907 C 0.23626 0.8346 0.45214 0.0
H908 H 0.8688 0.28792 0.41218 0.0
H909 H 0.80019 0.36854 0.43505 0.0
H910 H 0.82128 0.24792 0.41066 0.0
H911 H 0.75249 0.32846 0.43342 0.0
H912 H 0.67273 0.25118 0.40029 0.0
H913 H 0.72043 0.29117 0.39784 0.0
H914 H 0.7812 0.22301 0.44717 0.0
H915 H 0.73343 0.18324 0.44974 0.0
C916 C 0.84349 0.29719 0.41653 0.0
C917 C 0.83824 0.33143 0.42369 0.0
C918 C 0.81633 0.27422 0.41588 0.0
C919 C 0.78316 0.28503 0.42193 0.0
C920 C 0.77774 0.31944 0.42848 0.0
C921 C 0.80504 0.34232 0.4296 0.0
C922 C 0.69645 0.24457 0.41025 0.0
C923 C 0.69943 0.21402 0.42512 0.0
C924 C 0.72361 0.26759 0.40908 0.0
C925 C 0.75454 0.26025 0.42234 0.0
C926 C 0.75778 0.22928 0.43659 0.0
C927 C 0.73044 0.20659 0.43817 0.0
H928 H 0.17532 0.73497 0.94694 0.0
H929 H 0.24872 0.66913 0.90813 0.0
H930 H 0.21609 0.78176 0.94538 0.0
H931 H 0.28905 0.71602 0.90587 0.0
H932 H 0.36532 0.79706 0.93557 0.0
H933 H 0.3244 0.75039 0.93655 0.0
H934 H 0.24454 0.81973 0.91291 0.0
H935 H 0.28518 0.86644 0.91268 0.0
C936 C 0.20006 0.73047 0.93798 0.0
C937 C 0.20857 0.6982 0.9276 0.0
C938 C 0.22338 0.7574 0.93687 0.0
C939 C 0.25595 0.75272 0.92552 0.0
C940 C 0.26437 0.7205 0.91501 0.0
C941 C 0.241 0.69367 0.91598 0.0
C942 C 0.33904 0.80239 0.93068 0.0
C943 C 0.3287 0.8356 0.92396 0.0
C944 C 0.31558 0.77555 0.931 0.0
C945 C 0.28109 0.78122 0.9248 0.0
C946 C 0.27079 0.81442 0.91805 0.0
C947 C 0.29425 0.84119 0.91758 0.0
H948 H 0.73997 0.36065 0.94432 0.0
H949 H 0.67357 0.28708 0.90606 0.0
H950 H 0.78631 0.3195 0.94337 0.0
H951 H 0.72009 0.24627 0.90442 0.0
H952 H 0.80055 0.1702 0.93626 0.0
H953 H 0.75406 0.21132 0.93606 0.0
H954 H 0.82393 0.29022 0.91124 0.0
H955 H 0.87039 0.24947 0.91219 0.0
C956 C 0.73528 0.33578 0.93558 0.0
C957 C 0.70298 0.32731 0.92522 0.0
C958 C 0.76194 0.31224 0.93483 0.0
C959 C 0.75697 0.27949 0.92385 0.0
C960 C 0.72476 0.27111 0.91328 0.0
C961 C 0.69816 0.29472 0.91388 0.0
C962 C 0.80601 0.19631 0.93085 0.0
C963 C 0.83928 0.20638 0.92416 0.0
C964 C 0.77929 0.21987 0.93049 0.0
C965 C 0.78521 0.25415 0.92363 0.0
C966 C 0.81845 0.26415 0.91687 0.0
C967 C 0.84508 0.24061 0.91708 0.0
H968 H 0.83928 0.21724 0.55978 0.0
H969 H 0.81176 0.19072 0.64324 0.0
H970 H 0.79909 0.26413 0.56076 0.0
H971 H 0.77054 0.23697 0.64385 0.0
H972 H 0.72355 0.34449 0.64357 0.0
H973 H 0.76511 0.29855 0.64421 0.0
H974 H 0.73861 0.27304 0.56031 0.0
H975 H 0.69822 0.31961 0.55925 0.0
C976 C 0.82486 0.22148 0.57844 0.0
C977 C 0.82889 0.19999 0.60141 0.0
C978 C 0.8014 0.24819 0.57887 0.0
C979 C 0.78126 0.25426 0.6023 0.0
C980 C 0.78571 0.23321 0.62549 0.0
C981 C 0.80915 0.2064 0.62503 0.0
C982 C 0.72667 0.32927 0.62519 0.0
C983 C 0.70739 0.33605 0.60133 0.0
C984 C 0.75034 0.30263 0.62566 0.0
C985 C 0.75544 0.28212 0.60226 0.0
C986 C 0.73581 0.28859 0.57858 0.0
C987 C 0.71219 0.31513 0.57812 0.0
H988 H 0.36209 0.78842 0.6265 0.0
H989 H 0.30161 0.85251 0.57353 0.0
H990 H 0.31513 0.7478 0.62948 0.0
H991 H 0.25492 0.81178 0.57611 0.0
H992 H 0.16657 0.749 0.60937 0.0
H993 H 0.21345 0.78934 0.60929 0.0
H994 H 0.28447 0.70679 0.59895 0.0
H995 H 0.23735 0.66613 0.59963 0.0
C996 C 0.33864 0.79406 0.61577 0.0
C997 C 0.33555 0.82382 0.59986 0.0
C998 C 0.31187 0.77056 0.61719 0.0
C999 C 0.28124 0.77645 0.60298 0.0
C1000 C 0.278 0.80653 0.5875 0.0
C1001 C 0.30484 0.82981 0.58587 0.0
C1002 C 0.19216 0.7393 0.6074 0.0
C1003 C 0.1981 0.70419 0.60463 0.0
C1004 C 0.21907 0.76254 0.60706 0.0
C1005 C 0.25277 0.75138 0.60407 0.0
C1006 C 0.25884 0.71625 0.60154 0.0
C1007 C 0.23182 0.69294 0.60166 0.0
H1008 H 0.55453 0.05711 0.08174 0.0
H1009 H 0.61831 0.033 1.01216 0.0
H1010 H 0.50504 0.03653 0.05674 0.0
H1011 H 0.56914 1.01077 0.98752 0.0
H1012 H 0.47145 1.00259 0.93901 0.0
H1013 H 0.51992 0.02439 0.96411 0.0
H1014 H 0.47556 0.98932 0.04051 0.0
H1015 H 0.42572 0.96939 0.01527 0.0
C1016 C 0.55805 0.04723 0.0611 0.0
C1017 C 0.59047 0.04697 0.04892 0.0
C1018 C 0.52958 0.03505 0.04678 0.0
C1019 C 0.53268 0.02176 0.01993 0.0
C1020 C 0.56529 0.02136 1.00786 0.0
C1021 C 0.59369 0.03401 0.02206 0.0
C1022 C 0.47169 0.99979 0.96119 0.0
C1023 C 0.44424 0.98448 0.97504 0.0
C1024 C 0.49996 1.01197 0.97568 0.0
C1025 C 0.50214 1.00871 1.00454 0.0
C1026 C 0.4748 0.99299 0.0184 0.0
C1027 C 0.44619 0.98124 1.00388 0.0
H1028 H 0.43689 0.53084 0.07228 0.0
H1029 H 0.51452 0.60216 0.04735 0.0
H1030 H 0.46361 0.48675 0.04477 0.0
H1031 H 0.54137 0.55758 0.01956 0.0
H1032 H 0.55427 0.47497 0.95042 0.0
H1033 H 0.53007 0.52121 0.97757 0.0
H1034 H 0.51699 0.45284 0.04636 0.0
H1035 H 0.54116 0.40648 0.01925 0.0
C1036 C 0.45957 0.53727 0.06078 0.0
C1037 C 0.47349 0.57019 0.06207 0.0
C1038 C 0.47505 0.51179 0.04515 0.0
C1039 C 0.50483 0.51847 0.03018 0.0
C1040 C 0.51837 0.55162 0.0308 0.0
C1041 C 0.50296 0.57718 0.04668 0.0
C1042 C 0.54647 0.46977 0.97141 0.0
C1043 C 0.54964 0.43687 0.98261 0.0
C1044 C 0.53273 0.4964 0.98701 0.0
C1045 C 0.52143 0.49074 0.01409 0.0
C1046 C 0.52509 0.45798 0.02544 0.0
C1047 C 0.53915 0.43143 1.00995 0.0
H1048 H 0.92606 0.4699 1.00875 0.0
H1049 H 0.96965 0.5004 0.08666 0.0
H1050 H 0.97746 0.48902 0.98521 0.0
H1051 H 0.01955 0.52141 0.06328 0.0
H1052 H 0.12002 0.52848 0.01826 0.0
H1053 H 0.06936 0.50667 0.04111 0.0
H1054 H 1.00856 0.53626 0.97079 0.0
H1055 H 0.05938 0.55644 0.94761 0.0
C1056 C 0.94636 0.48101 0.02085 0.0
C1057 C 0.94333 0.4838 0.04964 0.0
C1058 C 0.97586 0.49227 1.00733 0.0
C1059 C 1.00302 0.50698 0.0222 0.0
C1060 C 0.99974 0.50977 0.05098 0.0
C1061 C 0.97061 0.4981 0.06446 0.0
C1062 C 0.0958 0.53041 1.00775 0.0
C1063 C 0.09387 0.5443 0.98112 0.0
C1064 C 0.06657 0.518 0.0209 0.0
C1065 C 0.03446 0.5196 1.00795 0.0
C1066 C 0.03266 0.53384 0.98136 0.0
C1067 C 0.06191 0.54578 0.9681 0.0
H1068 H 0.97225 0.10897 0.01741 0.0
H1069 H 1.00514 0.06327 0.94107 0.0
H1070 H 0.99096 0.05852 0.04243 0.0
H1071 H 0.02577 1.01417 0.96598 0.0
H1072 H 0.03257 0.91529 0.01372 0.0
H1073 H 1.01125 0.96492 0.98909 0.0
H1074 H 0.03765 0.02845 0.05864 0.0
H1075 H 0.05725 0.97859 0.08359 0.0
C1076 C 0.9838 0.08838 1.00596 0.0
C1077 C 0.98734 0.09051 0.97717 0.0
C1078 C 0.99484 0.05941 0.02035 0.0
C1079 C 1.01015 0.03192 1.00641 0.0
C1080 C 1.01366 0.03427 0.9776 0.0
C1081 C 1.00217 0.06289 0.96323 0.0
C1082 C 0.03391 0.93989 0.02368 0.0
C1083 C 0.04671 0.94288 0.05061 0.0
C1084 C 0.02178 0.96854 1.0095 0.0
C1085 C 0.02261 1.00111 0.0217 0.0
C1086 C 0.03582 1.00396 0.0486 0.0
C1087 C 0.04744 0.97527 0.06289 0.0
H1088 H 0.97137 0.03702 0.58526 0.0
H1089 H 0.92279 0.06022 0.50762 0.0
H1090 H 0.02127 1.01727 0.56116 0.0
H1091 H 0.97399 0.04221 0.48325 0.0
H1092 H 0.05822 0.97657 0.44637 0.0
H1093 H 1.00715 0.99533 0.47009 0.0
H1094 H 0.06889 0.03452 0.53667 0.0
H1095 H 0.1198 1.01431 0.51343 0.0
C1096 C 0.97127 0.03803 0.56298 0.0
C1097 C 0.94268 0.04998 0.54846 0.0
C1098 C 1.00032 0.02704 0.54906 0.0
C1099 C 1.0021 0.02818 0.52011 0.0
C1100 C 0.97357 0.04039 0.50552 0.0
C1101 C 0.94419 0.05101 0.5195 0.0
C1102 C 0.0609 0.98903 0.46617 0.0
C1103 C 0.09319 0.99366 0.47808 0.0
C1104 C 0.03151 1.00012 0.47971 0.0
C1105 C 0.03355 1.01656 0.50544 0.0
C1106 C 0.06599 0.02139 0.5172 0.0
C1107 C 0.09535 1.00991 0.5038 0.0
H1108 H 0.59951 0.04211 0.4665 0.0
H1109 H 0.51119 0.10697 0.46868 0.0
H1110 H 0.57261 1.00342 0.49903 0.0
H1111 H 0.48345 0.06752 0.50012 0.0
H1112 H 0.45493 1.00825 0.57692 0.0
H1113 H 0.48212 0.04691 0.54491 0.0
H1114 H 0.53064 0.96184 0.50464 0.0
H1115 H 0.50446 0.92314 0.53781 0.0
C1116 C 0.57426 0.04808 0.47389 0.0
C1117 C 0.55762 0.07778 0.46507 0.0
C1118 C 0.55861 0.02563 0.49238 0.0
C1119 C 0.52561 0.03197 0.5023 0.0
C1120 C 0.50905 0.06185 0.49346 0.0
C1121 C 0.52494 0.08456 0.47529 0.0
C1122 C 0.47125 0.99765 0.56116 0.0
C1123 C 0.47738 0.96246 0.55996 0.0
C1124 C 0.48679 0.01995 0.54258 0.0
C1125 C 0.5087 1.00779 0.52192 0.0
C1126 C 0.51445 0.97242 0.52047 0.0
C1127 C 0.49916 0.95008 0.53935 0.0
H1128 H 0.47355 0.53427 0.43967 0.0
H1129 H 0.42689 0.56405 0.51644 0.0
H1130 H 0.52217 0.51238 0.46448 0.0
H1131 H 0.47686 0.54408 0.54143 0.0
H1132 H 0.55652 0.47639 0.5815 0.0
H1133 H 0.50688 0.49682 0.55668 0.0
H1134 H 0.57103 0.52614 0.48837 0.0
H1135 H 0.6204 0.50401 0.51279 0.0
C1136 C 0.47361 0.53629 0.4619 0.0
C1137 C 0.44588 0.55066 0.47598 0.0
C1138 C 0.50196 0.52406 0.47623 0.0
C1139 C 0.50392 0.52638 0.50514 0.0
C1140 C 0.47627 0.54114 0.51925 0.0
C1141 C 0.44758 0.5529 0.50488 0.0
C1142 C 0.56001 0.48701 0.56108 0.0
C1143 C 0.5925 0.4883 0.54908 0.0
C1144 C 0.53145 0.4991 0.54688 0.0
C1145 C 0.53454 0.51336 0.52036 0.0
C1146 C 0.56722 0.51477 0.50845 0.0
C1147 C 0.59572 0.50219 0.52252 0.0
H1148 H 0.03012 0.56563 0.58789 0.0
H1149 H 0.06958 0.60828 0.51238 0.0
H1150 H 1.00961 0.51654 0.56296 0.0
H1151 H 0.05065 0.55779 0.4874 0.0
H1152 H 0.98296 0.47898 0.44555 0.0
H1153 H 1.00305 0.52884 0.47021 0.0
H1154 H 0.02536 0.46623 0.54123 0.0
H1155 H 1.00379 0.41651 0.51679 0.0
C1156 C 0.03449 0.56464 0.56591 0.0
C1157 C 0.05121 0.59139 0.55219 0.0
C1158 C 0.02307 0.53599 0.55157 0.0
C1159 C 0.02843 0.53276 0.52303 0.0
C1160 C 0.04546 0.55941 0.50927 0.0
C1161 C 0.05657 0.58839 0.52363 0.0
C1162 C 0.99201 0.47582 0.4665 0.0
C1163 C 0.99152 0.44364 0.47923 0.0
C1164 C 1.00389 0.5045 0.48061 0.0
C1165 C 1.01603 0.50191 0.50783 0.0
C1166 C 1.01568 0.46959 0.52051 0.0
C1167 C 1.00341 0.44091 0.50645 0.0
H1168 H 0.59021 0.19201 0.32022 0.0
H1169 H 0.62338 0.09103 0.34252 0.0
H1170 H 0.60309 0.18021 0.27195 0.0
H1171 H 0.63668 0.07941 0.29407 0.0
H1172 H 0.68761 0.08735 0.20782 0.0
H1173 H 0.67767 0.1011 0.25631 0.0
H1174 H 0.57826 0.13964 0.23554 0.0
H1175 H 0.58798 0.12551 0.18704 0.0
C1176 C 0.60059 0.16739 0.31486 0.0
C1177 C 0.60579 0.14242 0.33519 0.0
C1178 C 0.60774 0.16061 0.28718 0.0
C1179 C 0.62076 0.12888 0.27925 0.0
C1180 C 0.62683 0.10417 0.29964 0.0
C1181 C 0.61915 0.11078 0.32733 0.0
C1182 C 0.66372 0.09899 0.21356 0.0
C1183 C 0.63857 0.1054 0.19361 0.0
C1184 C 0.65798 0.10662 0.24134 0.0
C1185 C 0.62719 0.12136 0.24969 0.0
C1186 C 0.60232 0.12848 0.22966 0.0
C1187 C 0.60784 0.12032 0.20193 0.0
H1188 H 0.3498 0.62706 0.3237 0.0
H1189 H 0.45325 0.59198 0.33176 0.0
H1190 H 0.35984 0.63953 0.27478 0.0
H1191 H 0.46288 0.60363 0.28283 0.0
H1192 H 0.4458 0.5862 0.18824 0.0
H1193 H 0.434 0.57645 0.23717 0.0
H1194 H 0.40298 0.68101 0.24605 0.0
H1195 H 0.41561 0.69112 0.1972 0.0
C1196 C 0.37468 0.6222 0.31505 0.0
C1197 C 0.40078 0.60863 0.33151 0.0
C1198 C 0.38039 0.62936 0.28715 0.0
C1199 C 0.41203 0.62229 0.27512 0.0
C1200 C 0.43819 0.60905 0.29163 0.0
C1201 C 0.43273 0.60263 0.31963 0.0
C1202 C 0.43622 0.60703 0.20058 0.0
C1203 C 0.43166 0.63942 0.18897 0.0
C1204 C 0.42968 0.60149 0.22856 0.0
C1205 C 0.41775 0.62804 0.24529 0.0
C1206 C 0.41212 0.66015 0.23352 0.0
C1207 C 0.4194 0.66591 0.20565 0.0
H1208 H 0.84528 0.41448 0.20227 0.0
H1209 H 0.94916 0.44778 0.19263 0.0
H1210 H 0.85657 0.40136 0.25096 0.0
H1211 H 0.96 0.43554 0.24128 0.0
H1212 H 0.94539 0.4532 0.33599 0.0
H1213 H 0.93132 0.46341 0.28754 0.0
H1214 H 0.90184 0.3584 0.27837 0.0
H1215 H 0.91678 0.34781 0.32679 0.0
C1216 C 0.87048 0.41886 0.21053 0.0
C1217 C 0.89636 0.43211 0.19372 0.0
C1218 C 0.87691 0.41132 0.23828 0.0
C1219 C 0.90906 0.41768 0.24974 0.0
C1220 C 0.93495 0.43064 0.23288 0.0
C1221 C 0.92878 0.43744 0.20506 0.0
C1222 C 0.93564 0.43236 0.32372 0.0
C1223 C 0.93224 0.3997 0.33509 0.0
C1224 C 0.92777 0.43818 0.29603 0.0
C1225 C 0.91565 0.41164 0.27936 0.0
C1226 C 0.91109 0.37924 0.29091 0.0
C1227 C 0.9197 0.37321 0.3185 0.0
H1228 H 0.19087 0.94543 0.32144 0.0
H1229 H 0.09122 0.9086 0.34371 0.0
H1230 H 0.17959 0.93144 0.27318 0.0
H1231 H 0.08012 0.89435 0.29544 0.0
H1232 H 0.08655 0.8449 0.20952 0.0
H1233 H 0.10191 0.85453 0.25773 0.0
H1234 H 0.13839 0.95479 0.23692 0.0
H1235 H 0.12276 0.94532 0.18868 0.0
C1236 C 0.16673 0.93394 0.31609 0.0
C1237 C 0.14189 0.92813 0.33635 0.0
C1238 C 0.16023 0.92616 0.28845 0.0
C1239 C 0.12895 0.91194 0.28056 0.0
C1240 C 0.10454 0.90509 0.30096 0.0
C1241 C 0.11085 0.91333 0.32856 0.0
C1242 C 0.09809 0.8689 0.21518 0.0
C1243 C 0.10341 0.8944 0.19533 0.0
C1244 C 0.1067 0.87445 0.2428 0.0
C1245 C 0.12127 0.90541 0.25106 0.0
C1246 C 0.12742 0.93058 0.23108 0.0
C1247 C 0.11835 0.92522 0.20352 0.0
H1248 H 0.44578 0.91034 0.83735 0.0
H1249 H 0.34599 0.94737 0.81577 0.0
H1250 H 0.45646 0.89672 0.78892 0.0
H1251 H 0.3569 0.93414 0.76728 0.0
H1252 H 0.41274 0.94625 0.68189 0.0
H1253 H 0.39841 0.95695 0.73027 0.0
H1254 H 0.433 0.85631 0.75182 0.0
H1255 H 0.44692 0.84541 0.70356 0.0
C1256 C 0.42606 0.91535 0.82229 0.0
C1257 C 0.39503 0.92984 0.83037 0.0
C1258 C 0.43214 0.90749 0.7946 0.0
C1259 C 0.40754 0.91448 0.77433 0.0
C1260 C 0.3764 0.92871 0.78244 0.0
C1261 C 0.37009 0.93604 0.8102 0.0
C1262 C 0.41704 0.92635 0.69694 0.0
C1263 C 0.43095 0.89501 0.68893 0.0
C1264 C 0.40872 0.93243 0.72459 0.0
C1265 C 0.41469 0.90748 0.7448 0.0
C1266 C 0.42837 0.87607 0.73672 0.0
C1267 C 0.43615 0.86981 0.70906 0.0
H1268 H 0.69038 0.44938 0.70765 0.0
H1269 H 0.59086 0.41034 0.68741 0.0
H1270 H 0.68039 0.43675 0.75634 0.0
H1271 H 0.58108 0.39739 0.7361 0.0
H1272 H 0.59246 0.34737 0.82152 0.0
H1273 H 0.60562 0.35796 0.77314 0.0
H1274 H 0.63946 0.45921 0.79367 0.0
H1275 H 0.62593 0.44878 0.84228 0.0
C1276 C 0.66653 0.43775 0.71355 0.0
C1277 C 0.6414 0.43078 0.6937 0.0
C1278 C 0.66075 0.43078 0.74145 0.0
C1279 C 0.62995 0.41618 0.75 0.0
C1280 C 0.60515 0.40846 0.73006 0.0
C1281 C 0.61071 0.41592 0.70222 0.0
C1282 C 0.60294 0.37184 0.8158 0.0
C1283 C 0.60815 0.39728 0.83573 0.0
C1284 C 0.61027 0.37792 0.78806 0.0
C1285 C 0.62343 0.40942 0.77964 0.0
C1286 C 0.6295 0.43462 0.79963 0.0
C1287 C 0.62168 0.42869 0.8274 0.0
H1288 H 0.08677 0.58426 0.6961 0.0
H1289 H 0.1204 0.68825 0.7047 0.0
H1290 H 0.10054 0.57376 0.74456 0.0
H1291 H 0.13499 0.67734 0.75313 0.0
H1292 H 0.18991 0.61939 0.82887 0.0
H1293 H 0.17839 0.63307 0.78034 0.0
H1294 H 0.07396 0.60253 0.79094 0.0
H1295 H 0.08507 0.58971 0.83945 0.0
C1296 C 0.09751 0.60472 0.70825 0.0
C1297 C 0.10246 0.63708 0.6967 0.0
C1298 C 0.1052 0.59875 0.73596 0.0
C1299 C 0.11866 0.6248 0.75245 0.0
C1300 C 0.12468 0.65687 0.74073 0.0
C1301 C 0.11627 0.66308 0.71313 0.0
C1302 C 0.16444 0.61596 0.82086 0.0
C1303 C 0.13837 0.60352 0.83788 0.0
C1304 C 0.15789 0.62382 0.7932 0.0
C1305 C 0.12538 0.6186 0.78203 0.0
C1306 C 0.09928 0.60654 0.79911 0.0
C1307 C 0.10561 0.59941 0.82685 0.0
H1308 H 0.94909 0.19052 0.81847 0.0
H1309 H 0.91365 0.09006 0.84003 0.0
H1310 H 0.93345 0.1803 0.77033 0.0
H1311 H 0.8977 0.08005 0.79197 0.0
H1312 H 0.84474 0.08833 0.70744 0.0
H1313 H 0.856 0.1031 0.75559 0.0
H1314 H 0.95562 0.13949 0.73302 0.0
H1315 H 0.94456 0.12441 0.68492 0.0
C1316 C 0.93763 0.16642 0.81298 0.0
C1317 C 0.93266 0.14105 0.83299 0.0
C1318 C 0.92885 0.16053 0.78543 0.0
C1319 C 0.9144 0.12939 0.77744 0.0
C1320 C 0.90855 0.10439 0.7976 0.0
C1321 C 0.91782 0.11007 0.82506 0.0
C1322 C 0.86891 0.09977 0.71272 0.0
C1323 C 0.89381 0.10514 0.69244 0.0
C1324 C 0.8754 0.10804 0.74028 0.0
C1325 C 0.90669 0.12236 0.74802 0.0
C1326 C 0.93118 0.12871 0.7276 0.0
C1327 C 0.9249 0.11994 0.70011 0.0
loop_
_geom_bond_atom_site_label_1
_geom_bond_atom_site_label_2
_geom_bond_distance
_geom_bond_site_symmetry_2
_ccdc_geom_bond_type
Co0 N4 2.148 . S
Co0 N10 2.128 1_545 S
Co0 N20 2.194 . S
Co0 O25 2.351 . S
Co0 O26 2.155 . S
Co0 O27 2.096 . S
C1 N4 1.301 . S
C1 N5 1.328 . S
C1 H6 0.930 . S
C2 C3 1.333 . S
C2 N4 1.317 . S
C2 H7 0.930 . S
C3 C2 1.333 . S
C3 N5 1.350 . S
C3 H29 0.931 . S
N4 Co0 2.148 . S
N4 C1 1.301 . S
N4 C2 1.317 . S
N5 C1 1.328 . S
N5 C3 1.350 . S
H6 C1 0.930 . S
H7 C2 0.930 . S
C8 O9 1.224 . S
C8 O27 1.247 . S
O9 C8 1.224 . S
N10 Co0 2.128 1_565 S
N10 C11 1.355 . S
N10 C13 1.311 . S
C11 N10 1.355 . S
C11 C12 1.363 . S
C11 H23 0.929 . S
C12 C11 1.363 . S
C12 N14 1.375 . S
C12 H30 0.931 . S
C13 N10 1.311 . S
C13 N14 1.347 . S
C13 H24 0.929 . S
N14 C12 1.375 . S
N14 C13 1.347 . S
C15 C18 1.365 . S
C15 N20 1.328 . S
C15 H21 0.929 . S
C16 C17 1.362 . S
C16 C19 1.378 1_565 S
C16 H31 0.929 . S
C17 C16 1.362 . S
C17 C18 1.366 1_565 S
C18 C15 1.365 . S
C18 C17 1.366 1_545 S
C18 H32 0.930 . S
C19 C16 1.378 1_545 S
C19 N20 1.315 . S
C19 H22 0.930 . S
N20 Co0 2.194 . S
N20 C15 1.328 . S
N20 C19 1.315 . S
H21 C15 0.929 . S
H22 C19 0.930 . S
H23 C11 0.929 . S
H24 C13 0.929 . S
O25 Co0 2.351 . S
O25 C28 1.244 . S
O26 Co0 2.155 . S
O26 C28 1.240 . S
O27 Co0 2.096 . S
O27 C8 1.247 . S
C28 O25 1.244 . S
C28 O26 1.240 . S
H29 C3 0.931 . S
H30 C12 0.931 . S
H31 C16 0.929 . S
H32 C18 0.930 . S
Co33 N37 2.148 . S
Co33 N43 2.128 . S
Co33 N53 2.194 . S
Co33 O58 2.351 . S
Co33 O59 2.155 . S
Co33 O60 2.096 . S
C34 N37 1.301 . S
C34 N38 1.328 . S
C34 H39 0.930 . S
C35 C36 1.333 . S
C35 N37 1.317 . S
C35 H40 0.930 . S
C36 C35 1.333 . S
C36 N38 1.350 . S
C36 H62 0.931 . S
N37 Co33 2.148 . S
N37 C34 1.301 . S
N37 C35 1.317 . S
N38 C34 1.328 . S
N38 C36 1.350 . S
H39 C34 0.930 . S
H40 C35 0.930 . S
C41 O42 1.224 . S
C41 O60 1.247 . S
O42 C41 1.224 . S
N43 Co33 2.128 . S
N43 C44 1.355 . S
N43 C46 1.311 . S
C44 N43 1.355 . S
C44 C45 1.363 . S
C44 H56 0.929 . S
C45 C44 1.363 . S
C45 N47 1.375 . S
C45 H63 0.931 . S
C46 N43 1.311 . S
C46 N47 1.347 . S
C46 H57 0.929 . S
N47 C45 1.375 . S
N47 C46 1.347 . S
C48 C51 1.365 . S
C48 N53 1.328 . S
C48 H54 0.929 . S
C49 C50 1.362 . S
C49 C52 1.378 . S
C49 H64 0.929 . S
C50 C49 1.362 . S
C50 C51 1.366 . S
C51 C48 1.365 . S
C51 C50 1.366 . S
C51 H65 0.930 . S
C52 C49 1.378 . S
C52 N53 1.315 . S
C52 H55 0.930 . S
N53 Co33 2.194 . S
N53 C48 1.328 . S
N53 C52 1.315 . S
H54 C48 0.929 . S
H55 C52 0.930 . S
H56 C44 0.929 . S
H57 C46 0.929 . S
O58 Co33 2.351 . S
O58 C61 1.244 . S
O59 Co33 2.155 . S
O59 C61 1.240 . S
O60 Co33 2.096 . S
O60 C41 1.247 . S
C61 O58 1.244 . S
C61 O59 1.240 . S
H62 C36 0.931 . S
H63 C45 0.931 . S
H64 C49 0.929 . S
H65 C51 0.930 . S
Co66 N70 2.148 . S
Co66 N76 2.128 . S
Co66 N86 2.194 . S
Co66 O91 2.351 . S
Co66 O92 2.155 . S
Co66 O93 2.096 . S
C67 N70 1.301 . S
C67 N71 1.328 . S
C67 H72 0.930 . S
C68 C69 1.333 . S
C68 N70 1.317 . S
C68 H73 0.930 . S
C69 C68 1.333 . S
C69 N71 1.350 . S
C69 H95 0.931 . S
N70 Co66 2.148 . S
N70 C67 1.301 . S
N70 C68 1.317 . S
N71 C67 1.328 . S
N71 C69 1.350 . S
H72 C67 0.930 . S
H73 C68 0.930 . S
C74 O75 1.224 . S
C74 O93 1.247 . S
O75 C74 1.224 . S
N76 Co66 2.128 . S
N76 C77 1.355 . S
N76 C79 1.311 . S
C77 N76 1.355 . S
C77 C78 1.363 . S
C77 H89 0.929 . S
C78 C77 1.363 . S
C78 N80 1.375 . S
C78 H96 0.931 . S
C79 N76 1.311 . S
C79 N80 1.347 . S
C79 H90 0.929 . S
N80 C78 1.375 . S
N80 C79 1.347 . S
C81 C84 1.365 . S
C81 N86 1.328 . S
C81 H87 0.929 . S
C82 C83 1.362 . S
C82 C85 1.378 . S
C82 H97 0.929 . S
C83 C82 1.362 . S
C83 C84 1.366 . S
C84 C81 1.365 . S
C84 C83 1.366 . S
C84 H98 0.930 . S
C85 C82 1.378 . S
C85 N86 1.315 . S
C85 H88 0.930 . S
N86 Co66 2.194 . S
N86 C81 1.328 . S
N86 C85 1.315 . S
H87 C81 0.929 . S
H88 C85 0.930 . S
H89 C77 0.929 . S
H90 C79 0.929 . S
O91 Co66 2.351 . S
O91 C94 1.244 . S
O92 Co66 2.155 . S
O92 C94 1.240 . S
O93 Co66 2.096 . S
O93 C74 1.247 . S
C94 O91 1.244 . S
C94 O92 1.240 . S
H95 C69 0.931 . S
H96 C78 0.931 . S
H97 C82 0.929 . S
H98 C84 0.930 . S
Co99 N103 2.148 . S
Co99 N109 2.128 1_455 S
Co99 N119 2.194 . S
Co99 O124 2.351 . S
Co99 O125 2.155 . S
Co99 O126 2.096 . S
C100 N103 1.301 . S
C100 N104 1.328 . S
C100 H105 0.930 . S
C101 C102 1.333 . S
C101 N103 1.317 . S
C101 H106 0.930 . S
C102 C101 1.333 . S
C102 N104 1.350 . S
C102 H128 0.931 . S
N103 Co99 2.148 . S
N103 C100 1.301 . S
N103 C101 1.317 . S
N104 C100 1.328 . S
N104 C102 1.350 . S
H105 C100 0.930 . S
H106 C101 0.930 . S
C107 O108 1.224 . S
C107 O126 1.247 . S
O108 C107 1.224 . S
N109 Co99 2.128 1_655 S
N109 C110 1.355 . S
N109 C112 1.311 . S
C110 N109 1.355 . S
C110 C111 1.363 . S
C110 H122 0.929 . S
C111 C110 1.363 . S
C111 N113 1.375 . S
C111 H129 0.931 . S
C112 N109 1.311 . S
C112 N113 1.347 . S
C112 H123 0.929 . S
N113 C111 1.375 . S
N113 C112 1.347 . S
C114 C117 1.365 . S
C114 N119 1.328 . S
C114 H120 0.929 . S
C115 C116 1.362 . S
C115 C118 1.378 1_655 S
C115 H130 0.929 . S
C116 C115 1.362 . S
C116 C117 1.366 1_655 S
C117 C114 1.365 . S
C117 C116 1.366 1_455 S
C117 H131 0.930 . S
C118 C115 1.378 1_455 S
C118 N119 1.315 . S
C118 H121 0.930 . S
N119 Co99 2.194 . S
N119 C114 1.328 . S
N119 C118 1.315 . S
H120 C114 0.929 . S
H121 C118 0.930 . S
H122 C110 0.929 . S
H123 C112 0.929 . S
O124 Co99 2.351 . S
O124 C127 1.244 . S
O125 Co99 2.155 . S
O125 C127 1.240 . S
O126 Co99 2.096 . S
O126 C107 1.247 . S
C127 O124 1.244 . S
C127 O125 1.240 . S
H128 C102 0.931 . S
H129 C111 0.931 . S
H130 C115 0.929 . S
H131 C117 0.930 . S
Co132 N136 2.148 . S
Co132 N142 2.128 1_565 S
Co132 N152 2.194 . S
Co132 O157 2.351 . S
Co132 O158 2.155 . S
Co132 O159 2.096 . S
C133 N136 1.301 . S
C133 N137 1.328 . S
C133 H138 0.930 . S
C134 C135 1.333 . S
C134 N136 1.317 . S
C134 H139 0.930 . S
C135 C134 1.333 . S
C135 N137 1.350 . S
C135 H161 0.931 . S
N136 Co132 2.148 . S
N136 C133 1.301 . S
N136 C134 1.317 . S
N137 C133 1.328 . S
N137 C135 1.350 . S
H138 C133 0.930 . S
H139 C134 0.930 . S
C140 O141 1.224 . S
C140 O159 1.247 . S
O141 C140 1.224 . S
N142 Co132 2.128 1_545 S
N142 C143 1.355 . S
N142 C145 1.311 . S
C143 N142 1.355 . S
C143 C144 1.363 . S
C143 H155 0.929 . S
C144 C143 1.363 . S
C144 N146 1.375 . S
C144 H162 0.931 . S
C145 N142 1.311 . S
C145 N146 1.347 . S
C145 H156 0.929 . S
N146 C144 1.375 . S
N146 C145 1.347 . S
C147 C150 1.365 . S
C147 N152 1.328 . S
C147 H153 0.929 . S
C148 C149 1.362 . S
C148 C151 1.378 1_545 S
C148 H163 0.929 . S
C149 C148 1.362 . S
C149 C150 1.366 1_545 S
C150 C147 1.365 . S
C150 C149 1.366 1_565 S
C150 H164 0.930 . S
C151 C148 1.378 1_565 S
C151 N152 1.315 . S
C151 H154 0.930 . S
N152 Co132 2.194 . S
N152 C147 1.328 . S
N152 C151 1.315 . S
H153 C147 0.929 . S
H154 C151 0.930 . S
H155 C143 0.929 . S
H156 C145 0.929 . S
O157 Co132 2.351 . S
O157 C160 1.244 . S
O158 Co132 2.155 . S
O158 C160 1.240 . S
O159 Co132 2.096 . S
O159 C140 1.247 . S
C160 O157 1.244 . S
C160 O158 1.240 . S
H161 C135 0.931 . S
H162 C144 0.931 . S
H163 C148 0.929 . S
H164 C150 0.930 . S
Co165 N169 2.148 . S
Co165 N175 2.128 . S
Co165 N185 2.194 . S
Co165 O190 2.351 . S
Co165 O191 2.155 . S
Co165 O192 2.096 . S
C166 N169 1.301 . S
C166 N170 1.328 . S
C166 H171 0.930 . S
C167 C168 1.333 . S
C167 N169 1.317 . S
C167 H172 0.930 . S
C168 C167 1.333 . S
C168 N170 1.350 . S
C168 H194 0.931 . S
N169 Co165 2.148 . S
N169 C166 1.301 . S
N169 C167 1.317 . S
N170 C166 1.328 . S
N170 C168 1.350 . S
H171 C166 0.930 . S
H172 C167 0.930 . S
C173 O174 1.224 . S
C173 O192 1.247 . S
O174 C173 1.224 . S
N175 Co165 2.128 . S
N175 C176 1.355 . S
N175 C178 1.311 . S
C176 N175 1.355 . S
C176 C177 1.363 . S
C176 H188 0.929 . S
C177 C176 1.363 . S
C177 N179 1.375 . S
C177 H195 0.931 . S
C178 N175 1.311 . S
C178 N179 1.347 . S
C178 H189 0.929 . S
N179 C177 1.375 . S
N179 C178 1.347 . S
C180 C183 1.365 . S
C180 N185 1.328 . S
C180 H186 0.929 . S
C181 C182 1.362 . S
C181 C184 1.378 . S
C181 H196 0.929 . S
C182 C181 1.362 . S
C182 C183 1.366 . S
C183 C180 1.365 . S
C183 C182 1.366 . S
C183 H197 0.930 . S
C184 C181 1.378 . S
C184 N185 1.315 . S
C184 H187 0.930 . S
N185 Co165 2.194 . S
N185 C180 1.328 . S
N185 C184 1.315 . S
H186 C180 0.929 . S
H187 C184 0.930 . S
H188 C176 0.929 . S
H189 C178 0.929 . S
O190 Co165 2.351 . S
O190 C193 1.244 . S
O191 Co165 2.155 . S
O191 C193 1.240 . S
O192 Co165 2.096 . S
O192 C173 1.247 . S
C193 O190 1.244 . S
C193 O191 1.240 . S
H194 C168 0.931 . S
H195 C177 0.931 . S
H196 C181 0.929 . S
H197 C183 0.930 . S
Co198 N202 2.148 . S
Co198 N208 2.128 . S
Co198 N218 2.194 . S
Co198 O223 2.351 . S
Co198 O224 2.155 . S
Co198 O225 2.096 . S
C199 N202 1.301 . S
C199 N203 1.328 . S
C199 H204 0.930 . S
C200 C201 1.333 . S
C200 N202 1.317 . S
C200 H205 0.930 . S
C201 C200 1.333 . S
C201 N203 1.350 . S
C201 H227 0.931 . S
N202 Co198 2.148 . S
N202 C199 1.301 . S
N202 C200 1.317 . S
N203 C199 1.328 . S
N203 C201 1.350 . S
H204 C199 0.930 . S
H205 C200 0.930 . S
C206 O207 1.224 . S
C206 O225 1.247 . S
O207 C206 1.224 . S
N208 Co198 2.128 . S
N208 C209 1.355 . S
N208 C211 1.311 . S
C209 N208 1.355 . S
C209 C210 1.363 . S
C209 H221 0.929 . S
C210 C209 1.363 . S
C210 N212 1.375 . S
C210 H228 0.931 . S
C211 N208 1.311 . S
C211 N212 1.347 . S
C211 H222 0.929 . S
N212 C210 1.375 . S
N212 C211 1.347 . S
C213 C216 1.365 . S
C213 N218 1.328 . S
C213 H219 0.929 . S
C214 C215 1.362 . S
C214 C217 1.378 . S
C214 H229 0.929 . S
C215 C214 1.362 . S
C215 C216 1.366 . S
C216 C213 1.365 . S
C216 C215 1.366 . S
C216 H230 0.930 . S
C217 C214 1.378 . S
C217 N218 1.315 . S
C217 H220 0.930 . S
N218 Co198 2.194 . S
N218 C213 1.328 . S
N218 C217 1.315 . S
H219 C213 0.929 . S
H220 C217 0.930 . S
H221 C209 0.929 . S
H222 C211 0.929 . S
O223 Co198 2.351 . S
O223 C226 1.244 . S
O224 Co198 2.155 . S
O224 C226 1.240 . S
O225 Co198 2.096 . S
O225 C206 1.247 . S
C226 O223 1.244 . S
C226 O224 1.240 . S
H227 C201 0.931 . S
H228 C210 0.931 . S
H229 C214 0.929 . S
H230 C216 0.930 . S
Co231 N235 2.148 . S
Co231 N241 2.128 1_655 S
Co231 N251 2.194 . S
Co231 O256 2.351 . S
Co231 O257 2.155 . S
Co231 O258 2.096 . S
C232 N235 1.301 . S
C232 N236 1.328 . S
C232 H237 0.930 . S
C233 C234 1.333 . S
C233 N235 1.317 . S
C233 H238 0.930 . S
C234 C233 1.333 . S
C234 N236 1.350 . S
C234 H260 0.931 . S
N235 Co231 2.148 . S
N235 C232 1.301 . S
N235 C233 1.317 . S
N236 C232 1.328 . S
N236 C234 1.350 . S
H237 C232 0.930 . S
H238 C233 0.930 . S
C239 O240 1.224 . S
C239 O258 1.247 . S
O240 C239 1.224 . S
N241 Co231 2.128 1_455 S
N241 C242 1.355 . S
N241 C244 1.311 . S
C242 N241 1.355 . S
C242 C243 1.363 . S
C242 H254 0.929 . S
C243 C242 1.363 . S
C243 N245 1.375 . S
C243 H261 0.931 . S
C244 N241 1.311 . S
C244 N245 1.347 . S
C244 H255 0.929 . S
N245 C243 1.375 . S
N245 C244 1.347 . S
C246 C249 1.365 . S
C246 N251 1.328 . S
C246 H252 0.929 . S
C247 C248 1.362 . S
C247 C250 1.378 1_455 S
C247 H262 0.929 . S
C248 C247 1.362 . S
C248 C249 1.366 1_455 S
C249 C246 1.365 . S
C249 C248 1.366 1_655 S
C249 H263 0.930 . S
C250 C247 1.378 1_655 S
C250 N251 1.315 . S
C250 H253 0.930 . S
N251 Co231 2.194 . S
N251 C246 1.328 . S
N251 C250 1.315 . S
H252 C246 0.929 . S
H253 C250 0.930 . S
H254 C242 0.929 . S
H255 C244 0.929 . S
O256 Co231 2.351 . S
O256 C259 1.244 . S
O257 Co231 2.155 . S
O257 C259 1.240 . S
O258 Co231 2.096 . S
O258 C239 1.247 . S
C259 O256 1.244 . S
C259 O257 1.240 . S
H260 C234 0.931 . S
H261 C243 0.931 . S
H262 C247 0.929 . S
H263 C249 0.930 . S
Co264 N268 2.148 . S
Co264 N274 2.128 1_565 S
Co264 N284 2.194 . S
Co264 O289 2.351 . S
Co264 O290 2.155 . S
Co264 O291 2.096 . S
C265 N268 1.301 . S
C265 N269 1.328 . S
C265 H270 0.930 . S
C266 C267 1.333 . S
C266 N268 1.317 . S
C266 H271 0.930 . S
C267 C266 1.333 . S
C267 N269 1.350 . S
C267 H293 0.931 . S
N268 Co264 2.148 . S
N268 C265 1.301 . S
N268 C266 1.317 . S
N269 C265 1.328 . S
N269 C267 1.350 . S
H270 C265 0.930 . S
H271 C266 0.930 . S
C272 O273 1.224 . S
C272 O291 1.247 . S
O273 C272 1.224 . S
N274 Co264 2.128 1_545 S
N274 C275 1.355 . S
N274 C277 1.311 . S
C275 N274 1.355 . S
C275 C276 1.363 . S
C275 H287 0.929 . S
C276 C275 1.363 . S
C276 N278 1.375 . S
C276 H294 0.931 . S
C277 N274 1.311 . S
C277 N278 1.347 . S
C277 H288 0.929 . S
N278 C276 1.375 . S
N278 C277 1.347 . S
C279 C282 1.365 . S
C279 N284 1.328 . S
C279 H285 0.929 . S
C280 C281 1.362 . S
C280 C283 1.378 1_545 S
C280 H295 0.929 . S
C281 C280 1.362 . S
C281 C282 1.366 1_545 S
C282 C279 1.365 . S
C282 C281 1.366 1_565 S
C282 H296 0.930 . S
C283 C280 1.378 1_565 S
C283 N284 1.315 . S
C283 H286 0.930 . S
N284 Co264 2.194 . S
N284 C279 1.328 . S
N284 C283 1.315 . S
H285 C279 0.929 . S
H286 C283 0.930 . S
H287 C275 0.929 . S
H288 C277 0.929 . S
O289 Co264 2.351 . S
O289 C292 1.244 . S
O290 Co264 2.155 . S
O290 C292 1.240 . S
O291 Co264 2.096 . S
O291 C272 1.247 . S
C292 O289 1.244 . S
C292 O290 1.240 . S
H293 C267 0.931 . S
H294 C276 0.931 . S
H295 C280 0.929 . S
H296 C282 0.930 . S
Co297 N301 2.148 . S
Co297 N307 2.128 . S
Co297 N317 2.194 . S
Co297 O322 2.351 . S
Co297 O323 2.155 . S
Co297 O324 2.096 . S
C298 N301 1.301 . S
C298 N302 1.328 . S
C298 H303 0.930 . S
C299 C300 1.333 . S
C299 N301 1.317 . S
C299 H304 0.930 . S
C300 C299 1.333 . S
C300 N302 1.350 . S
C300 H326 0.931 . S
N301 Co297 2.148 . S
N301 C298 1.301 . S
N301 C299 1.317 . S
N302 C298 1.328 . S
N302 C300 1.350 . S
H303 C298 0.930 . S
H304 C299 0.930 . S
C305 O306 1.224 . S
C305 O324 1.247 . S
O306 C305 1.224 . S
N307 Co297 2.128 . S
N307 C308 1.355 . S
N307 C310 1.311 . S
C308 N307 1.355 . S
C308 C309 1.363 . S
C308 H320 0.929 . S
C309 C308 1.363 . S
C309 N311 1.375 . S
C309 H327 0.931 . S
C310 N307 1.311 . S
C310 N311 1.347 . S
C310 H321 0.929 . S
N311 C309 1.375 . S
N311 C310 1.347 . S
C312 C315 1.365 . S
C312 N317 1.328 . S
C312 H318 0.929 . S
C313 C314 1.362 . S
C313 C316 1.378 . S
C313 H328 0.929 . S
C314 C313 1.362 . S
C314 C315 1.366 . S
C315 C312 1.365 . S
C315 C314 1.366 . S
C315 H329 0.930 . S
C316 C313 1.378 . S
C316 N317 1.315 . S
C316 H319 0.930 . S
N317 Co297 2.194 . S
N317 C312 1.328 . S
N317 C316 1.315 . S
H318 C312 0.929 . S
H319 C316 0.930 . S
H320 C308 0.929 . S
H321 C310 0.929 . S
O322 Co297 2.351 . S
O322 C325 1.244 . S
O323 Co297 2.155 . S
O323 C325 1.240 . S
O324 Co297 2.096 . S
O324 C305 1.247 . S
C325 O322 1.244 . S
C325 O323 1.240 . S
H326 C300 0.931 . S
H327 C309 0.931 . S
H328 C313 0.929 . S
H329 C315 0.930 . S
Co330 N334 2.148 . S
Co330 N340 2.128 . S
Co330 N350 2.194 . S
Co330 O355 2.351 . S
Co330 O356 2.155 . S
Co330 O357 2.096 . S
C331 N334 1.301 . S
C331 N335 1.328 . S
C331 H336 0.930 . S
C332 C333 1.333 . S
C332 N334 1.317 . S
C332 H337 0.930 . S
C333 C332 1.333 . S
C333 N335 1.350 . S
C333 H359 0.931 . S
N334 Co330 2.148 . S
N334 C331 1.301 . S
N334 C332 1.317 . S
N335 C331 1.328 . S
N335 C333 1.350 . S
H336 C331 0.930 . S
H337 C332 0.930 . S
C338 O339 1.224 . S
C338 O357 1.247 . S
O339 C338 1.224 . S
N340 Co330 2.128 . S
N340 C341 1.355 . S
N340 C343 1.311 . S
C341 N340 1.355 . S
C341 C342 1.363 . S
C341 H353 0.929 . S
C342 C341 1.363 . S
C342 N344 1.375 . S
C342 H360 0.931 . S
C343 N340 1.311 . S
C343 N344 1.347 . S
C343 H354 0.929 . S
N344 C342 1.375 . S
N344 C343 1.347 . S
C345 C348 1.365 . S
C345 N350 1.328 . S
C345 H351 0.929 . S
C346 C347 1.362 . S
C346 C349 1.378 . S
C346 H361 0.929 . S
C347 C346 1.362 . S
C347 C348 1.366 . S
C348 C345 1.365 . S
C348 C347 1.366 . S
C348 H362 0.930 . S
C349 C346 1.378 . S
C349 N350 1.315 . S
C349 H352 0.930 . S
N350 Co330 2.194 . S
N350 C345 1.328 . S
N350 C349 1.315 . S
H351 C345 0.929 . S
H352 C349 0.930 . S
H353 C341 0.929 . S
H354 C343 0.929 . S
O355 Co330 2.351 . S
O355 C358 1.244 . S
O356 Co330 2.155 . S
O356 C358 1.240 . S
O357 Co330 2.096 . S
O357 C338 1.247 . S
C358 O355 1.244 . S
C358 O356 1.240 . S
H359 C333 0.931 . S
H360 C342 0.931 . S
H361 C346 0.929 . S
H362 C348 0.930 . S
Co363 N367 2.148 . S
Co363 N373 2.128 1_655 S
Co363 N383 2.194 . S
Co363 O388 2.351 . S
Co363 O389 2.155 . S
Co363 O390 2.096 . S
C364 N367 1.301 . S
C364 N368 1.328 . S
C364 H369 0.930 . S
C365 C366 1.333 . S
C365 N367 1.317 . S
C365 H370 0.930 . S
C366 C365 1.333 . S
C366 N368 1.350 . S
C366 H392 0.931 . S
N367 Co363 2.148 . S
N367 C364 1.301 . S
N367 C365 1.317 . S
N368 C364 1.328 . S
N368 C366 1.350 . S
H369 C364 0.930 . S
H370 C365 0.930 . S
C371 O372 1.224 . S
C371 O390 1.247 . S
O372 C371 1.224 . S
N373 Co363 2.128 1_455 S
N373 C374 1.355 . S
N373 C376 1.311 . S
C374 N373 1.355 . S
C374 C375 1.363 . S
C374 H386 0.929 . S
C375 C374 1.363 . S
C375 N377 1.375 . S
C375 H393 0.931 . S
C376 N373 1.311 . S
C376 N377 1.347 . S
C376 H387 0.929 . S
N377 C375 1.375 . S
N377 C376 1.347 . S
C378 C381 1.365 . S
C378 N383 1.328 . S
C378 H384 0.929 . S
C379 C380 1.362 . S
C379 C382 1.378 1_455 S
C379 H394 0.929 . S
C380 C379 1.362 . S
C380 C381 1.366 1_455 S
C381 C378 1.365 . S
C381 C380 1.366 1_655 S
C381 H395 0.930 . S
C382 C379 1.378 1_655 S
C382 N383 1.315 . S
C382 H385 0.930 . S
N383 Co363 2.194 . S
N383 C378 1.328 . S
N383 C382 1.315 . S
H384 C378 0.929 . S
H385 C382 0.930 . S
H386 C374 0.929 . S
H387 C376 0.929 . S
O388 Co363 2.351 . S
O388 C391 1.244 . S
O389 Co363 2.155 . S
O389 C391 1.240 . S
O390 Co363 2.096 . S
O390 C371 1.247 . S
C391 O388 1.244 . S
C391 O389 1.240 . S
H392 C366 0.931 . S
H393 C375 0.931 . S
H394 C379 0.929 . S
H395 C381 0.930 . S
Co396 N400 2.148 . S
Co396 N406 2.128 1_545 S
Co396 N416 2.194 . S
Co396 O421 2.351 . S
Co396 O422 2.155 . S
Co396 O423 2.096 . S
C397 N400 1.301 . S
C397 N401 1.328 . S
C397 H402 0.930 . S
C398 C399 1.333 . S
C398 N400 1.317 . S
C398 H403 0.930 . S
C399 C398 1.333 . S
C399 N401 1.350 . S
C399 H425 0.931 . S
N400 Co396 2.148 . S
N400 C397 1.301 . S
N400 C398 1.317 . S
N401 C397 1.328 . S
N401 C399 1.350 . S
H402 C397 0.930 . S
H403 C398 0.930 . S
C404 O405 1.224 . S
C404 O423 1.247 . S
O405 C404 1.224 . S
N406 Co396 2.128 1_565 S
N406 C407 1.355 . S
N406 C409 1.311 . S
C407 N406 1.355 . S
C407 C408 1.363 . S
C407 H419 0.929 . S
C408 C407 1.363 . S
C408 N410 1.375 . S
C408 H426 0.931 . S
C409 N406 1.311 . S
C409 N410 1.347 . S
C409 H420 0.929 . S
N410 C408 1.375 . S
N410 C409 1.347 . S
C411 C414 1.365 . S
C411 N416 1.328 . S
C411 H417 0.929 . S
C412 C413 1.362 . S
C412 C415 1.378 1_565 S
C412 H427 0.929 . S
C413 C412 1.362 . S
C413 C414 1.366 1_565 S
C414 C411 1.365 . S
C414 C413 1.366 1_545 S
C414 H428 0.930 . S
C415 C412 1.378 1_545 S
C415 N416 1.315 . S
C415 H418 0.930 . S
N416 Co396 2.194 . S
N416 C411 1.328 . S
N416 C415 1.315 . S
H417 C411 0.929 . S
H418 C415 0.930 . S
H419 C407 0.929 . S
H420 C409 0.929 . S
O421 Co396 2.351 . S
O421 C424 1.244 . S
O422 Co396 2.155 . S
O422 C424 1.240 . S
O423 Co396 2.096 . S
O423 C404 1.247 . S
C424 O421 1.244 . S
C424 O422 1.240 . S
H425 C399 0.931 . S
H426 C408 0.931 . S
H427 C412 0.929 . S
H428 C414 0.930 . S
Co429 N433 2.148 . S
Co429 N439 2.128 . S
Co429 N449 2.194 . S
Co429 O454 2.351 . S
Co429 O455 2.155 . S
Co429 O456 2.096 . S
C430 N433 1.301 . S
C430 N434 1.328 . S
C430 H435 0.930 . S
C431 C432 1.333 . S
C431 N433 1.317 . S
C431 H436 0.930 . S
C432 C431 1.333 . S
C432 N434 1.350 . S
C432 H458 0.931 . S
N433 Co429 2.148 . S
N433 C430 1.301 . S
N433 C431 1.317 . S
N434 C430 1.328 . S
N434 C432 1.350 . S
H435 C430 0.930 . S
H436 C431 0.930 . S
C437 O438 1.224 . S
C437 O456 1.247 . S
O438 C437 1.224 . S
N439 Co429 2.128 . S
N439 C440 1.355 . S
N439 C442 1.311 . S
C440 N439 1.355 . S
C440 C441 1.363 . S
C440 H452 0.929 . S
C441 C440 1.363 . S
C441 N443 1.375 . S
C441 H459 0.931 . S
C442 N439 1.311 . S
C442 N443 1.347 . S
C442 H453 0.929 . S
N443 C441 1.375 . S
N443 C442 1.347 . S
C444 C447 1.365 . S
C444 N449 1.328 . S
C444 H450 0.929 . S
C445 C446 1.362 . S
C445 C448 1.378 . S
C445 H460 0.929 . S
C446 C445 1.362 . S
C446 C447 1.366 . S
C447 C444 1.365 . S
C447 C446 1.366 . S
C447 H461 0.930 . S
C448 C445 1.378 . S
C448 N449 1.315 . S
C448 H451 0.930 . S
N449 Co429 2.194 . S
N449 C444 1.328 . S
N449 C448 1.315 . S
H450 C444 0.929 . S
H451 C448 0.930 . S
H452 C440 0.929 . S
H453 C442 0.929 . S
O454 Co429 2.351 . S
O454 C457 1.244 . S
O455 Co429 2.155 . S
O455 C457 1.240 . S
O456 Co429 2.096 . S
O456 C437 1.247 . S
C457 O454 1.244 . S
C457 O455 1.240 . S
H458 C432 0.931 . S
H459 C441 0.931 . S
H460 C445 0.929 . S
H461 C447 0.930 . S
Co462 N466 2.148 . S
Co462 N472 2.128 . S
Co462 N482 2.194 . S
Co462 O487 2.351 . S
Co462 O488 2.155 . S
Co462 O489 2.096 . S
C463 N466 1.301 . S
C463 N467 1.328 . S
C463 H468 0.930 . S
C464 C465 1.333 . S
C464 N466 1.317 . S
C464 H469 0.930 . S
C465 C464 1.333 . S
C465 N467 1.350 . S
C465 H491 0.931 . S
N466 Co462 2.148 . S
N466 C463 1.301 . S
N466 C464 1.317 . S
N467 C463 1.328 . S
N467 C465 1.350 . S
H468 C463 0.930 . S
H469 C464 0.930 . S
C470 O471 1.224 . S
C470 O489 1.247 . S
O471 C470 1.224 . S
N472 Co462 2.128 . S
N472 C473 1.355 . S
N472 C475 1.311 . S
C473 N472 1.355 . S
C473 C474 1.363 . S
C473 H485 0.929 . S
C474 C473 1.363 . S
C474 N476 1.375 . S
C474 H492 0.931 . S
C475 N472 1.311 . S
C475 N476 1.347 . S
C475 H486 0.929 . S
N476 C474 1.375 . S
N476 C475 1.347 . S
C477 C480 1.365 . S
C477 N482 1.328 . S
C477 H483 0.929 . S
C478 C479 1.362 . S
C478 C481 1.378 . S
C478 H493 0.929 . S
C479 C478 1.362 . S
C479 C480 1.366 . S
C480 C477 1.365 . S
C480 C479 1.366 . S
C480 H494 0.930 . S
C481 C478 1.378 . S
C481 N482 1.315 . S
C481 H484 0.930 . S
N482 Co462 2.194 . S
N482 C477 1.328 . S
N482 C481 1.315 . S
H483 C477 0.929 . S
H484 C481 0.930 . S
H485 C473 0.929 . S
H486 C475 0.929 . S
O487 Co462 2.351 . S
O487 C490 1.244 . S
O488 Co462 2.155 . S
O488 C490 1.240 . S
O489 Co462 2.096 . S
O489 C470 1.247 . S
C490 O487 1.244 . S
C490 O488 1.240 . S
H491 C465 0.931 . S
H492 C474 0.931 . S
H493 C478 0.929 . S
H494 C480 0.930 . S
Co495 N499 2.148 . S
Co495 N505 2.128 1_455 S
Co495 N515 2.194 . S
Co495 O520 2.351 . S
Co495 O521 2.155 . S
Co495 O522 2.096 . S
C496 N499 1.301 . S
C496 N500 1.328 . S
C496 H501 0.930 . S
C497 C498 1.333 . S
C497 N499 1.317 . S
C497 H502 0.930 . S
C498 C497 1.333 . S
C498 N500 1.350 . S
C498 H524 0.931 . S
N499 Co495 2.148 . S
N499 C496 1.301 . S
N499 C497 1.317 . S
N500 C496 1.328 . S
N500 C498 1.350 . S
H501 C496 0.930 . S
H502 C497 0.930 . S
C503 O504 1.224 . S
C503 O522 1.247 . S
O504 C503 1.224 . S
N505 Co495 2.128 1_655 S
N505 C506 1.355 . S
N505 C508 1.311 . S
C506 N505 1.355 . S
C506 C507 1.363 . S
C506 H518 0.929 . S
C507 C506 1.363 . S
C507 N509 1.375 . S
C507 H525 0.931 . S
C508 N505 1.311 . S
C508 N509 1.347 . S
C508 H519 0.929 . S
N509 C507 1.375 . S
N509 C508 1.347 . S
C510 C513 1.365 . S
C510 N515 1.328 . S
C510 H516 0.929 . S
C511 C512 1.362 . S
C511 C514 1.378 1_655 S
C511 H526 0.929 . S
C512 C511 1.362 . S
C512 C513 1.366 1_655 S
C513 C510 1.365 . S
C513 C512 1.366 1_455 S
C513 H527 0.930 . S
C514 C511 1.378 1_455 S
C514 N515 1.315 . S
C514 H517 0.930 . S
N515 Co495 2.194 . S
N515 C510 1.328 . S
N515 C514 1.315 . S
H516 C510 0.929 . S
H517 C514 0.930 . S
H518 C506 0.929 . S
H519 C508 0.929 . S
O520 Co495 2.351 . S
O520 C523 1.244 . S
O521 Co495 2.155 . S
O521 C523 1.240 . S
O522 Co495 2.096 . S
O522 C503 1.247 . S
C523 O520 1.244 . S
C523 O521 1.240 . S
H524 C498 0.931 . S
H525 C507 0.931 . S
H526 C511 0.929 . S
H527 C513 0.930 . S
H528 C536 0.950 . S
H529 C541 0.950 . S
H530 C538 0.950 . S
H531 C540 0.950 . S
H532 C542 0.950 . S
H533 C544 0.950 . S
H534 C546 0.950 . S
H535 C547 0.950 . S
C536 H528 0.950 . S
C536 C537 1.386 . S
C536 C538 1.391 . S
C537 C536 1.386 . S
C537 C541 1.393 . S
C538 H530 0.950 . S
C538 C536 1.391 . S
C538 C539 1.400 . S
C539 C538 1.400 . S
C539 C540 1.398 . S
C539 C545 1.491 . S
C540 H531 0.950 . S
C540 C539 1.398 . S
C540 C541 1.391 . S
C541 H529 0.950 . S
C541 C537 1.393 . S
C541 C540 1.391 . S
C542 H532 0.950 . S
C542 C543 1.386 . S
C542 C544 1.391 . S
C543 C542 1.386 . S
C543 C547 1.393 . S
C544 H533 0.950 . S
C544 C542 1.391 . S
C544 C545 1.400 . S
C545 C539 1.491 . S
C545 C544 1.400 . S
C545 C546 1.398 . S
C546 H534 0.950 . S
C546 C545 1.398 . S
C546 C547 1.391 . S
C547 H535 0.950 . S
C547 C543 1.393 . S
C547 C546 1.391 . S
H548 C556 0.950 . S
H549 C561 0.950 . S
H550 C558 0.950 . S
H551 C560 0.950 . S
H552 C562 0.950 . S
H553 C564 0.950 . S
H554 C566 0.950 . S
H555 C567 0.950 . S
C556 H548 0.950 . S
C556 C557 1.386 . S
C556 C558 1.391 . S
C557 C556 1.386 . S
C557 C561 1.393 . S
C558 H550 0.950 . S
C558 C556 1.391 . S
C558 C559 1.400 . S
C559 C558 1.400 . S
C559 C560 1.398 . S
C559 C565 1.491 . S
C560 H551 0.950 . S
C560 C559 1.398 . S
C560 C561 1.391 . S
C561 H549 0.950 . S
C561 C557 1.393 . S
C561 C560 1.391 . S
C562 H552 0.950 . S
C562 C563 1.386 . S
C562 C564 1.391 . S
C563 C562 1.386 . S
C563 C567 1.393 . S
C564 H553 0.950 . S
C564 C562 1.391 . S
C564 C565 1.400 . S
C565 C559 1.491 . S
C565 C564 1.400 . S
C565 C566 1.398 . S
C566 H554 0.950 . S
C566 C565 1.398 . S
C566 C567 1.391 . S
C567 H555 0.950 . S
C567 C563 1.393 . S
C567 C566 1.391 . S
H568 C576 0.950 . S
H569 C581 0.950 1_455 S
H570 C578 0.950 . S
H571 C580 0.950 . S
H572 C582 0.950 . S
H573 C584 0.950 . S
H574 C586 0.950 . S
H575 C587 0.950 . S
C576 H568 0.950 . S
C576 C577 1.386 . S
C576 C578 1.391 . S
C577 C576 1.386 . S
C577 C581 1.393 . S
C578 H570 0.950 . S
C578 C576 1.391 . S
C578 C579 1.400 . S
C579 C578 1.400 . S
C579 C580 1.398 . S
C579 C585 1.491 . S
C580 H571 0.950 . S
C580 C579 1.398 . S
C580 C581 1.391 . S
C581 H569 0.950 1_655 S
C581 C577 1.393 . S
C581 C580 1.391 . S
C582 H572 0.950 . S
C582 C583 1.386 . S
C582 C584 1.391 . S
C583 C582 1.386 . S
C583 C587 1.393 . S
C584 H573 0.950 . S
C584 C582 1.391 . S
C584 C585 1.400 . S
C585 C579 1.491 . S
C585 C584 1.400 . S
C585 C586 1.398 . S
C586 H574 0.950 . S
C586 C585 1.398 . S
C586 C587 1.391 . S
C587 H575 0.950 . S
C587 C583 1.393 . S
C587 C586 1.391 . S
H588 C596 0.950 . S
H589 C601 0.950 . S
H590 C598 0.950 . S
H591 C600 0.950 . S
H592 C602 0.939 1_545 S
H593 C604 0.950 . S
H594 C606 0.950 . S
H595 C607 0.950 . S
C596 H588 0.950 . S
C596 C597 1.386 . S
C596 C598 1.391 . S
C597 C596 1.386 . S
C597 C601 1.393 . S
C598 H590 0.950 . S
C598 C596 1.391 . S
C598 C599 1.400 . S
C599 C598 1.400 . S
C599 C600 1.398 . S
C599 C605 1.491 . S
C600 H591 0.950 . S
C600 C599 1.398 . S
C600 C601 1.391 . S
C601 H589 0.950 . S
C601 C597 1.393 . S
C601 C600 1.391 . S
C602 H592 0.939 1_565 S
C602 C603 1.391 . S
C602 C604 1.397 . S
C603 C602 1.391 . S
C603 C607 1.393 . S
C604 H593 0.950 . S
C604 C602 1.397 . S
C604 C605 1.400 . S
C605 C599 1.491 . S
C605 C604 1.400 . S
C605 C606 1.398 . S
C606 H594 0.950 . S
C606 C605 1.398 . S
C606 C607 1.391 . S
C607 H595 0.950 . S
C607 C603 1.393 . S
C607 C606 1.391 . S
H608 C616 0.950 1_655 S
H609 C621 0.950 . S
H610 C618 0.950 . S
H611 C620 0.950 . S
H612 C622 0.950 . S
H613 C624 0.950 . S
H614 C626 0.950 . S
H615 C627 0.950 . S
C616 H608 0.950 1_455 S
C616 C617 1.386 . S
C616 C618 1.391 . S
C617 C616 1.386 . S
C617 C621 1.393 . S
C618 H610 0.950 . S
C618 C616 1.391 . S
C618 C619 1.400 . S
C619 C618 1.400 . S
C619 C620 1.398 . S
C619 C625 1.491 . S
C620 H611 0.950 . S
C620 C619 1.398 . S
C620 C621 1.391 . S
C621 H609 0.950 . S
C621 C617 1.393 . S
C621 C620 1.391 . S
C622 H612 0.950 . S
C622 C623 1.386 . S
C622 C624 1.391 . S
C623 C622 1.386 . S
C623 C627 1.393 . S
C624 H613 0.950 . S
C624 C622 1.391 . S
C624 C625 1.400 . S
C625 C619 1.491 . S
C625 C624 1.400 . S
C625 C626 1.398 . S
C626 H614 0.950 . S
C626 C625 1.398 . S
C626 C627 1.391 . S
C627 H615 0.950 . S
C627 C623 1.393 . S
C627 C626 1.391 . S
H628 C636 0.950 . S
H629 C641 0.950 1_565 S
H630 C638 0.950 . S
H631 C640 0.950 . S
H632 C642 0.950 . S
H633 C644 0.950 . S
H634 C646 0.950 . S
H635 C647 0.950 . S
C636 H628 0.950 . S
C636 C637 1.386 . S
C636 C638 1.391 . S
C637 C636 1.386 . S
C637 C641 1.393 . S
C638 H630 0.950 . S
C638 C636 1.391 . S
C638 C639 1.400 . S
C639 C638 1.400 . S
C639 C640 1.398 . S
C639 C645 1.491 . S
C640 H631 0.950 . S
C640 C639 1.398 . S
C640 C641 1.391 . S
C641 H629 0.950 1_545 S
C641 C637 1.393 . S
C641 C640 1.391 . S
C642 H632 0.950 . S
C642 C643 1.386 . S
C642 C644 1.391 . S
C643 C642 1.386 . S
C643 C647 1.393 . S
C644 H633 0.950 . S
C644 C642 1.391 . S
C644 C645 1.400 . S
C645 C639 1.491 . S
C645 C644 1.400 . S
C645 C646 1.398 . S
C646 H634 0.950 . S
C646 C645 1.398 . S
C646 C647 1.391 . S
C647 H635 0.950 . S
C647 C643 1.393 . S
C647 C646 1.391 . S
H648 C656 0.950 . S
H649 C661 0.950 . S
H650 C658 0.950 . S
H651 C660 0.950 . S
H652 C662 0.950 . S
H653 C664 0.950 . S
H654 C666 0.950 . S
H655 C667 0.950 . S
C656 H648 0.950 . S
C656 C657 1.386 . S
C656 C658 1.391 . S
C657 C656 1.386 . S
C657 C661 1.393 . S
C658 H650 0.950 . S
C658 C656 1.391 . S
C658 C659 1.400 . S
C659 C658 1.400 . S
C659 C660 1.398 . S
C659 C665 1.491 . S
C660 H651 0.950 . S
C660 C659 1.398 . S
C660 C661 1.391 . S
C661 H649 0.950 . S
C661 C657 1.393 . S
C661 C660 1.391 . S
C662 H652 0.950 . S
C662 C663 1.386 . S
C662 C664 1.391 . S
C663 C662 1.386 . S
C663 C667 1.393 . S
C664 H653 0.950 . S
C664 C662 1.391 . S
C664 C665 1.400 . S
C665 C659 1.491 . S
C665 C664 1.400 . S
C665 C666 1.398 . S
C666 H654 0.950 . S
C666 C665 1.398 . S
C666 C667 1.391 . S
C667 H655 0.950 . S
C667 C663 1.393 . S
C667 C666 1.391 . S
H668 C676 0.950 . S
H669 C681 0.950 . S
H670 C678 0.950 . S
H671 C680 0.950 . S
H672 C682 0.950 . S
H673 C684 0.950 . S
H674 C686 0.950 . S
H675 C687 0.950 . S
C676 H668 0.950 . S
C676 C677 1.386 . S
C676 C678 1.391 . S
C677 C676 1.386 . S
C677 C681 1.393 . S
C678 H670 0.950 . S
C678 C676 1.391 . S
C678 C679 1.400 . S
C679 C678 1.400 . S
C679 C680 1.398 . S
C679 C685 1.491 . S
C680 H671 0.950 . S
C680 C679 1.398 . S
C680 C681 1.391 . S
C681 H669 0.950 . S
C681 C677 1.393 . S
C681 C680 1.391 . S
C682 H672 0.950 . S
C682 C683 1.386 . S
C682 C684 1.391 . S
C683 C682 1.386 . S
C683 C687 1.393 . S
C684 H673 0.950 . S
C684 C682 1.391 . S
C684 C685 1.400 . S
C685 C679 1.491 . S
C685 C684 1.400 . S
C685 C686 1.398 . S
C686 H674 0.950 . S
C686 C685 1.398 . S
C686 C687 1.391 . S
C687 H675 0.950 . S
C687 C683 1.393 . S
C687 C686 1.391 . S
H688 C696 0.950 . S
H689 C701 0.950 . S
H690 C698 0.950 . S
H691 C700 0.950 . S
H692 C702 0.950 . S
H693 C704 0.950 . S
H694 C706 0.950 . S
H695 C707 0.950 . S
C696 H688 0.950 . S
C696 C697 1.386 . S
C696 C698 1.391 . S
C697 C696 1.386 . S
C697 C701 1.393 . S
C698 H690 0.950 . S
C698 C696 1.391 . S
C698 C699 1.400 . S
C699 C698 1.400 . S
C699 C700 1.398 . S
C699 C705 1.491 . S
C700 H691 0.950 . S
C700 C699 1.398 . S
C700 C701 1.391 . S
C701 H689 0.950 . S
C701 C697 1.393 . S
C701 C700 1.391 . S
C702 H692 0.950 . S
C702 C703 1.386 . S
C702 C704 1.391 . S
C703 C702 1.386 . S
C703 C707 1.393 . S
C704 H693 0.950 . S
C704 C702 1.391 . S
C704 C705 1.400 . S
C705 C699 1.491 . S
C705 C704 1.400 . S
C705 C706 1.398 . S
C706 H694 0.950 . S
C706 C705 1.398 . S
C706 C707 1.391 . S
C707 H695 0.950 . S
C707 C703 1.393 . S
C707 C706 1.391 . S
H708 C716 0.950 . S
H709 C721 0.950 . S
H710 C718 0.950 . S
H711 C720 0.950 . S
H712 C722 0.950 . S
H713 C724 0.950 . S
H714 C726 0.950 . S
H715 C727 0.950 . S
C716 H708 0.950 . S
C716 C717 1.386 . S
C716 C718 1.391 . S
C717 C716 1.386 . S
C717 C721 1.393 . S
C718 H710 0.950 . S
C718 C716 1.391 . S
C718 C719 1.400 . S
C719 C718 1.400 . S
C719 C720 1.398 . S
C719 C725 1.491 . S
C720 H711 0.950 . S
C720 C719 1.398 . S
C720 C721 1.391 . S
C721 H709 0.950 . S
C721 C717 1.393 . S
C721 C720 1.391 . S
C722 H712 0.950 . S
C722 C723 1.386 . S
C722 C724 1.391 . S
C723 C722 1.386 . S
C723 C727 1.393 . S
C724 H713 0.950 . S
C724 C722 1.391 . S
C724 C725 1.400 . S
C725 C719 1.491 . S
C725 C724 1.400 . S
C725 C726 1.398 . S
C726 H714 0.950 . S
C726 C725 1.398 . S
C726 C727 1.391 . S
C727 H715 0.950 . S
C727 C723 1.393 . S
C727 C726 1.391 . S
H728 C736 0.950 . S
H729 C741 0.950 1_655 S
H730 C738 0.950 . S
H731 C740 0.950 . S
H732 C742 0.950 . S
H733 C744 0.950 . S
H734 C746 0.950 . S
H735 C747 0.950 . S
C736 H728 0.950 . S
C736 C737 1.386 . S
C736 C738 1.391 . S
C737 C736 1.386 . S
C737 C741 1.393 . S
C738 H730 0.950 . S
C738 C736 1.391 . S
C738 C739 1.400 . S
C739 C738 1.400 . S
C739 C740 1.398 . S
C739 C745 1.491 . S
C740 H731 0.950 . S
C740 C739 1.398 . S
C740 C741 1.391 . S
C741 H729 0.950 1_455 S
C741 C737 1.393 . S
C741 C740 1.391 . S
C742 H732 0.950 . S
C742 C743 1.386 . S
C742 C744 1.391 . S
C743 C742 1.386 . S
C743 C747 1.393 . S
C744 H733 0.950 . S
C744 C742 1.391 . S
C744 C745 1.400 . S
C745 C739 1.491 . S
C745 C744 1.400 . S
C745 C746 1.398 . S
C746 H734 0.950 . S
C746 C745 1.398 . S
C746 C747 1.391 . S
C747 H735 0.950 . S
C747 C743 1.393 . S
C747 C746 1.391 . S
H748 C756 0.950 . S
H749 C761 0.950 . S
H750 C758 0.942 1_565 S
H751 C760 0.950 . S
H752 C762 0.950 . S
H753 C764 0.950 . S
H754 C766 0.950 . S
H755 C767 0.950 . S
C756 H748 0.950 . S
C756 C757 1.386 1_565 S
C756 C758 1.391 1_565 S
C757 C756 1.386 1_545 S
C757 C761 1.393 . S
C758 H750 0.942 1_545 S
C758 C756 1.391 1_545 S
C758 C759 1.400 . S
C759 C758 1.400 . S
C759 C760 1.398 . S
C759 C765 1.491 . S
C760 H751 0.950 . S
C760 C759 1.398 . S
C760 C761 1.391 . S
C761 H749 0.950 . S
C761 C757 1.393 . S
C761 C760 1.391 . S
C762 H752 0.950 . S
C762 C763 1.386 . S
C762 C764 1.391 . S
C763 C762 1.386 . S
C763 C767 1.393 . S
C764 H753 0.950 . S
C764 C762 1.391 . S
C764 C765 1.400 . S
C765 C759 1.491 . S
C765 C764 1.400 . S
C765 C766 1.398 . S
C766 H754 0.950 . S
C766 C765 1.398 . S
C766 C767 1.391 . S
C767 H755 0.950 . S
C767 C763 1.393 . S
C767 C766 1.391 . S
H768 C776 0.950 . S
H769 C781 0.950 1_455 S
H770 C778 0.950 . S
H771 C780 0.950 . S
H772 C782 0.950 . S
H773 C784 0.950 . S
H774 C786 0.950 . S
H775 C787 0.950 . S
C776 H768 0.950 . S
C776 C777 1.386 . S
C776 C778 1.391 . S
C777 C776 1.386 . S
C777 C781 1.393 . S
C778 H770 0.950 . S
C778 C776 1.391 . S
C778 C779 1.400 . S
C779 C778 1.400 . S
C779 C780 1.398 . S
C779 C785 1.491 . S
C780 H771 0.950 . S
C780 C779 1.398 . S
C780 C781 1.391 . S
C781 H769 0.950 1_655 S
C781 C777 1.393 . S
C781 C780 1.391 . S
C782 H772 0.950 . S
C782 C783 1.386 . S
C782 C784 1.391 . S
C783 C782 1.386 . S
C783 C787 1.393 . S
C784 H773 0.950 . S
C784 C782 1.391 . S
C784 C785 1.400 . S
C785 C779 1.491 . S
C785 C784 1.400 . S
C785 C786 1.398 . S
C786 H774 0.950 . S
C786 C785 1.398 . S
C786 C787 1.391 . S
C787 H775 0.950 . S
C787 C783 1.393 . S
C787 C786 1.391 . S
H788 C796 0.950 . S
H789 C801 0.950 1_545 S
H790 C798 0.950 . S
H791 C800 0.950 . S
H792 C802 0.950 . S
H793 C804 0.950 . S
H794 C806 0.950 . S
H795 C807 0.950 . S
C796 H788 0.950 . S
C796 C797 1.386 . S
C796 C798 1.391 . S
C797 C796 1.386 . S
C797 C801 1.393 . S
C798 H790 0.950 . S
C798 C796 1.391 . S
C798 C799 1.400 . S
C799 C798 1.400 . S
C799 C800 1.398 . S
C799 C805 1.491 . S
C800 H791 0.950 . S
C800 C799 1.398 . S
C800 C801 1.391 . S
C801 H789 0.950 1_565 S
C801 C797 1.393 . S
C801 C800 1.391 . S
C802 H792 0.950 . S
C802 C803 1.386 . S
C802 C804 1.391 . S
C803 C802 1.386 . S
C803 C807 1.393 . S
C804 H793 0.950 . S
C804 C802 1.391 . S
C804 C805 1.400 . S
C805 C799 1.491 . S
C805 C804 1.400 . S
C805 C806 1.398 . S
C806 H794 0.950 . S
C806 C805 1.398 . S
C806 C807 1.391 . S
C807 H795 0.950 . S
C807 C803 1.393 . S
C807 C806 1.391 . S
H808 C816 0.950 . S
H809 C821 0.950 . S
H810 C818 0.950 . S
H811 C820 0.950 . S
H812 C822 0.950 . S
H813 C824 0.950 . S
H814 C826 0.950 . S
H815 C827 0.950 . S
C816 H808 0.950 . S
C816 C817 1.386 . S
C816 C818 1.391 . S
C817 C816 1.386 . S
C817 C821 1.393 . S
C818 H810 0.950 . S
C818 C816 1.391 . S
C818 C819 1.400 . S
C819 C818 1.400 . S
C819 C820 1.398 . S
C819 C825 1.491 . S
C820 H811 0.950 . S
C820 C819 1.398 . S
C820 C821 1.391 . S
C821 H809 0.950 . S
C821 C817 1.393 . S
C821 C820 1.391 . S
C822 H812 0.950 . S
C822 C823 1.386 . S
C822 C824 1.391 . S
C823 C822 1.386 . S
C823 C827 1.393 . S
C824 H813 0.950 . S
C824 C822 1.391 . S
C824 C825 1.400 . S
C825 C819 1.491 . S
C825 C824 1.400 . S
C825 C826 1.398 . S
C826 H814 0.950 . S
C826 C825 1.398 . S
C826 C827 1.391 . S
C827 H815 0.950 . S
C827 C823 1.393 . S
C827 C826 1.391 . S
H828 C836 0.950 . S
H829 C841 0.950 . S
H830 C838 0.950 . S
H831 C840 0.950 . S
H832 C842 0.950 . S
H833 C844 0.950 . S
H834 C846 0.950 . S
H835 C847 0.950 . S
C836 H828 0.950 . S
C836 C837 1.386 . S
C836 C838 1.391 . S
C837 C836 1.386 . S
C837 C841 1.393 . S
C838 H830 0.950 . S
C838 C836 1.391 . S
C838 C839 1.400 . S
C839 C838 1.400 . S
C839 C840 1.398 . S
C839 C845 1.491 . S
C840 H831 0.950 . S
C840 C839 1.398 . S
C840 C841 1.391 . S
C841 H829 0.950 . S
C841 C837 1.393 . S
C841 C840 1.391 . S
C842 H832 0.950 . S
C842 C843 1.386 . S
C842 C844 1.391 . S
C843 C842 1.386 . S
C843 C847 1.393 . S
C844 H833 0.950 . S
C844 C842 1.391 . S
C844 C845 1.400 . S
C845 C839 1.491 . S
C845 C844 1.400 . S
C845 C846 1.398 . S
C846 H834 0.950 . S
C846 C845 1.398 . S
C846 C847 1.391 . S
C847 H835 0.950 . S
C847 C843 1.393 . S
C847 C846 1.391 . S
H848 C856 0.950 . S
H849 C861 0.950 . S
H850 C858 0.950 . S
H851 C860 0.950 . S
H852 C862 0.950 . S
H853 C864 0.950 . S
H854 C866 0.950 . S
H855 C867 0.950 . S
C856 H848 0.950 . S
C856 C857 1.386 . S
C856 C858 1.391 . S
C857 C856 1.386 . S
C857 C861 1.393 . S
C858 H850 0.950 . S
C858 C856 1.391 . S
C858 C859 1.400 . S
C859 C858 1.400 . S
C859 C860 1.398 . S
C859 C865 1.491 . S
C860 H851 0.950 . S
C860 C859 1.398 . S
C860 C861 1.391 . S
C861 H849 0.950 . S
C861 C857 1.393 . S
C861 C860 1.391 . S
C862 H852 0.950 . S
C862 C863 1.386 . S
C862 C864 1.391 . S
C863 C862 1.386 . S
C863 C867 1.393 . S
C864 H853 0.950 . S
C864 C862 1.391 . S
C864 C865 1.400 . S
C865 C859 1.491 . S
C865 C864 1.400 . S
C865 C866 1.398 . S
C866 H854 0.950 . S
C866 C865 1.398 . S
C866 C867 1.391 . S
C867 H855 0.950 . S
C867 C863 1.393 . S
C867 C866 1.391 . S
H868 C876 0.950 . S
H869 C881 0.950 . S
H870 C878 0.950 . S
H871 C880 0.950 . S
H872 C882 0.950 . S
H873 C884 0.950 . S
H874 C886 0.950 . S
H875 C887 0.950 . S
C876 H868 0.950 . S
C876 C877 1.386 . S
C876 C878 1.391 . S
C877 C876 1.386 . S
C877 C881 1.393 . S
C878 H870 0.950 . S
C878 C876 1.391 . S
C878 C879 1.400 . S
C879 C878 1.400 . S
C879 C880 1.398 . S
C879 C885 1.491 . S
C880 H871 0.950 . S
C880 C879 1.398 . S
C880 C881 1.391 . S
C881 H869 0.950 . S
C881 C877 1.393 . S
C881 C880 1.391 . S
C882 H872 0.950 . S
C882 C883 1.386 . S
C882 C884 1.391 . S
C883 C882 1.386 . S
C883 C887 1.393 . S
C884 H873 0.950 . S
C884 C882 1.391 . S
C884 C885 1.400 . S
C885 C879 1.491 . S
C885 C884 1.400 . S
C885 C886 1.398 . S
C886 H874 0.950 . S
C886 C885 1.398 . S
C886 C887 1.391 . S
C887 H875 0.950 . S
C887 C883 1.393 . S
C887 C886 1.391 . S
H888 C896 0.950 . S
H889 C901 0.950 . S
H890 C898 0.950 . S
H891 C900 0.950 . S
H892 C902 0.950 . S
H893 C904 0.950 . S
H894 C906 0.950 . S
H895 C907 0.950 . S
C896 H888 0.950 . S
C896 C897 1.386 . S
C896 C898 1.391 . S
C897 C896 1.386 . S
C897 C901 1.393 . S
C898 H890 0.950 . S
C898 C896 1.391 . S
C898 C899 1.400 . S
C899 C898 1.400 . S
C899 C900 1.398 . S
C899 C905 1.491 . S
C900 H891 0.950 . S
C900 C899 1.398 . S
C900 C901 1.391 . S
C901 H889 0.950 . S
C901 C897 1.393 . S
C901 C900 1.391 . S
C902 H892 0.950 . S
C902 C903 1.386 . S
C902 C904 1.391 . S
C903 C902 1.386 . S
C903 C907 1.393 . S
C904 H893 0.950 . S
C904 C902 1.391 . S
C904 C905 1.400 . S
C905 C899 1.491 . S
C905 C904 1.400 . S
C905 C906 1.398 . S
C906 H894 0.950 . S
C906 C905 1.398 . S
C906 C907 1.391 . S
C907 H895 0.950 . S
C907 C903 1.393 . S
C907 C906 1.391 . S
H908 C916 0.950 . S
H909 C921 0.950 . S
H910 C918 0.950 . S
H911 C920 0.950 . S
H912 C922 0.950 . S
H913 C924 0.950 . S
H914 C926 0.950 . S
H915 C927 0.950 . S
C916 H908 0.950 . S
C916 C917 1.386 . S
C916 C918 1.391 . S
C917 C916 1.386 . S
C917 C921 1.393 . S
C918 H910 0.950 . S
C918 C916 1.391 . S
C918 C919 1.400 . S
C919 C918 1.400 . S
C919 C920 1.398 . S
C919 C925 1.491 . S
C920 H911 0.950 . S
C920 C919 1.398 . S
C920 C921 1.391 . S
C921 H909 0.950 . S
C921 C917 1.393 . S
C921 C920 1.391 . S
C922 H912 0.950 . S
C922 C923 1.386 . S
C922 C924 1.391 . S
C923 C922 1.386 . S
C923 C927 1.393 . S
C924 H913 0.950 . S
C924 C922 1.391 . S
C924 C925 1.400 . S
C925 C919 1.491 . S
C925 C924 1.400 . S
C925 C926 1.398 . S
C926 H914 0.950 . S
C926 C925 1.398 . S
C926 C927 1.391 . S
C927 H915 0.950 . S
C927 C923 1.393 . S
C927 C926 1.391 . S
H928 C936 0.950 . S
H929 C941 0.950 . S
H930 C938 0.950 . S
H931 C940 0.950 . S
H932 C942 0.950 . S
H933 C944 0.950 . S
H934 C946 0.950 . S
H935 C947 0.950 . S
C936 H928 0.950 . S
C936 C937 1.386 . S
C936 C938 1.391 . S
C937 C936 1.386 . S
C937 C941 1.393 . S
C938 H930 0.950 . S
C938 C936 1.391 . S
C938 C939 1.400 . S
C939 C938 1.400 . S
C939 C940 1.398 . S
C939 C945 1.491 . S
C940 H931 0.950 . S
C940 C939 1.398 . S
C940 C941 1.391 . S
C941 H929 0.950 . S
C941 C937 1.393 . S
C941 C940 1.391 . S
C942 H932 0.950 . S
C942 C943 1.386 . S
C942 C944 1.391 . S
C943 C942 1.386 . S
C943 C947 1.393 . S
C944 H933 0.950 . S
C944 C942 1.391 . S
C944 C945 1.400 . S
C945 C939 1.491 . S
C945 C944 1.400 . S
C945 C946 1.398 . S
C946 H934 0.950 . S
C946 C945 1.398 . S
C946 C947 1.391 . S
C947 H935 0.950 . S
C947 C943 1.393 . S
C947 C946 1.391 . S
H948 C956 0.950 . S
H949 C961 0.950 . S
H950 C958 0.950 . S
H951 C960 0.950 . S
H952 C962 0.950 . S
H953 C964 0.950 . S
H954 C966 0.950 . S
H955 C967 0.950 . S
C956 H948 0.950 . S
C956 C957 1.386 . S
C956 C958 1.391 . S
C957 C956 1.386 . S
C957 C961 1.393 . S
C958 H950 0.950 . S
C958 C956 1.391 . S
C958 C959 1.400 . S
C959 C958 1.400 . S
C959 C960 1.398 . S
C959 C965 1.491 . S
C960 H951 0.950 . S
C960 C959 1.398 . S
C960 C961 1.391 . S
C961 H949 0.950 . S
C961 C957 1.393 . S
C961 C960 1.391 . S
C962 H952 0.950 . S
C962 C963 1.386 . S
C962 C964 1.391 . S
C963 C962 1.386 . S
C963 C967 1.393 . S
C964 H953 0.950 . S
C964 C962 1.391 . S
C964 C965 1.400 . S
C965 C959 1.491 . S
C965 C964 1.400 . S
C965 C966 1.398 . S
C966 H954 0.950 . S
C966 C965 1.398 . S
C966 C967 1.391 . S
C967 H955 0.950 . S
C967 C963 1.393 . S
C967 C966 1.391 . S
H968 C976 0.950 . S
H969 C981 0.950 . S
H970 C978 0.950 . S
H971 C980 0.950 . S
H972 C982 0.950 . S
H973 C984 0.950 . S
H974 C986 0.950 . S
H975 C987 0.950 . S
C976 H968 0.950 . S
C976 C977 1.386 . S
C976 C978 1.391 . S
C977 C976 1.386 . S
C977 C981 1.393 . S
C978 H970 0.950 . S
C978 C976 1.391 . S
C978 C979 1.400 . S
C979 C978 1.400 . S
C979 C980 1.398 . S
C979 C985 1.491 . S
C980 H971 0.950 . S
C980 C979 1.398 . S
C980 C981 1.391 . S
C981 H969 0.950 . S
C981 C977 1.393 . S
C981 C980 1.391 . S
C982 H972 0.950 . S
C982 C983 1.386 . S
C982 C984 1.391 . S
C983 C982 1.386 . S
C983 C987 1.393 . S
C984 H973 0.950 . S
C984 C982 1.391 . S
C984 C985 1.400 . S
C985 C979 1.491 . S
C985 C984 1.400 . S
C985 C986 1.398 . S
C986 H974 0.950 . S
C986 C985 1.398 . S
C986 C987 1.391 . S
C987 H975 0.950 . S
C987 C983 1.393 . S
C987 C986 1.391 . S
H988 C996 0.950 . S
H989 C1001 0.950 . S
H990 C998 0.950 . S
H991 C1000 0.950 . S
H992 C1002 0.950 . S
H993 C1004 0.950 . S
H994 C1006 0.950 . S
H995 C1007 0.950 . S
C996 H988 0.950 . S
C996 C997 1.386 . S
C996 C998 1.391 . S
C997 C996 1.386 . S
C997 C1001 1.393 . S
C998 H990 0.950 . S
C998 C996 1.391 . S
C998 C999 1.400 . S
C999 C998 1.400 . S
C999 C1000 1.398 . S
C999 C1005 1.491 . S
C1000 H991 0.950 . S
C1000 C999 1.398 . S
C1000 C1001 1.391 . S
C1001 H989 0.950 . S
C1001 C997 1.393 . S
C1001 C1000 1.391 . S
C1002 H992 0.950 . S
C1002 C1003 1.386 . S
C1002 C1004 1.391 . S
C1003 C1002 1.386 . S
C1003 C1007 1.393 . S
C1004 H993 0.950 . S
C1004 C1002 1.391 . S
C1004 C1005 1.400 . S
C1005 C999 1.491 . S
C1005 C1004 1.400 . S
C1005 C1006 1.398 . S
C1006 H994 0.950 . S
C1006 C1005 1.398 . S
C1006 C1007 1.391 . S
C1007 H995 0.950 . S
C1007 C1003 1.393 . S
C1007 C1006 1.391 . S
H1008 C1016 0.950 . S
H1009 C1021 0.950 1_556 S
H1010 C1018 0.950 . S
H1011 C1020 0.950 . S
H1012 C1022 0.950 . S
H1013 C1024 0.950 . S
H1014 C1026 0.950 . S
H1015 C1027 0.950 1_554 S
C1016 H1008 0.950 . S
C1016 C1017 1.386 . S
C1016 C1018 1.391 . S
C1017 C1016 1.386 . S
C1017 C1021 1.393 . S
C1018 H1010 0.950 . S
C1018 C1016 1.391 . S
C1018 C1019 1.400 . S
C1019 C1018 1.400 . S
C1019 C1020 1.398 1_554 S
C1019 C1025 1.491 1_544 S
C1020 H1011 0.950 . S
C1020 C1019 1.398 1_556 S
C1020 C1021 1.391 1_556 S
C1021 H1009 0.950 1_554 S
C1021 C1017 1.393 . S
C1021 C1020 1.391 1_554 S
C1022 H1012 0.950 . S
C1022 C1023 1.386 . S
C1022 C1024 1.391 . S
C1023 C1022 1.386 . S
C1023 C1027 1.393 . S
C1024 H1013 0.950 . S
C1024 C1022 1.391 . S
C1024 C1025 1.400 . S
C1025 C1019 1.491 1_566 S
C1025 C1024 1.400 . S
C1025 C1026 1.398 1_556 S
C1026 H1014 0.950 . S
C1026 C1025 1.398 1_554 S
C1026 C1027 1.391 1_554 S
C1027 H1015 0.950 1_556 S
C1027 C1023 1.393 . S
C1027 C1026 1.391 1_556 S
H1028 C1036 0.950 . S
H1029 C1041 0.950 . S
H1030 C1038 0.950 1_556 S
H1031 C1040 0.950 . S
H1032 C1042 0.950 . S
H1033 C1044 0.950 1_554 S
H1034 C1046 0.950 . S
H1035 C1047 0.950 . S
C1036 H1028 0.950 . S
C1036 C1037 1.386 . S
C1036 C1038 1.391 . S
C1037 C1036 1.386 . S
C1037 C1041 1.393 . S
C1038 H1030 0.950 1_554 S
C1038 C1036 1.391 . S
C1038 C1039 1.400 . S
C1039 C1038 1.400 . S
C1039 C1040 1.398 . S
C1039 C1045 1.491 1_554 S
C1040 H1031 0.950 . S
C1040 C1039 1.398 . S
C1040 C1041 1.391 . S
C1041 H1029 0.950 . S
C1041 C1037 1.393 . S
C1041 C1040 1.391 . S
C1042 H1032 0.950 . S
C1042 C1043 1.386 . S
C1042 C1044 1.391 . S
C1043 C1042 1.386 . S
C1043 C1047 1.393 . S
C1044 H1033 0.950 1_556 S
C1044 C1042 1.391 . S
C1044 C1045 1.400 . S
C1045 C1039 1.491 1_556 S
C1045 C1044 1.400 . S
C1045 C1046 1.398 . S
C1046 H1034 0.950 . S
C1046 C1045 1.398 . S
C1046 C1047 1.391 . S
C1047 H1035 0.950 . S
C1047 C1043 1.393 . S
C1047 C1046 1.391 . S
H1048 C1056 0.950 1_556 S
H1049 C1061 0.950 . S
H1050 C1058 0.950 . S
H1051 C1060 0.950 1_455 S
H1052 C1062 0.950 1_554 S
H1053 C1064 0.950 . S
H1054 C1066 0.950 1_655 S
H1055 C1067 0.950 . S
C1056 H1048 0.950 1_554 S
C1056 C1057 1.386 . S
C1056 C1058 1.391 1_554 S
C1057 C1056 1.386 . S
C1057 C1061 1.393 . S
C1058 H1050 0.950 . S
C1058 C1056 1.391 1_556 S
C1058 C1059 1.400 1_556 S
C1059 C1058 1.400 1_554 S
C1059 C1060 1.398 . S
C1059 C1065 1.491 1_654 S
C1060 H1051 0.950 1_655 S
C1060 C1059 1.398 . S
C1060 C1061 1.391 . S
C1061 H1049 0.950 . S
C1061 C1057 1.393 . S
C1061 C1060 1.391 . S
C1062 H1052 0.950 1_556 S
C1062 C1063 1.386 . S
C1062 C1064 1.391 1_556 S
C1063 C1062 1.386 . S
C1063 C1067 1.393 . S
C1064 H1053 0.950 . S
C1064 C1062 1.391 1_554 S
C1064 C1065 1.400 1_554 S
C1065 C1059 1.491 1_456 S
C1065 C1064 1.400 1_556 S
C1065 C1066 1.398 . S
C1066 H1054 0.950 1_455 S
C1066 C1065 1.398 . S
C1066 C1067 1.391 . S
C1067 H1055 0.950 . S
C1067 C1063 1.393 . S
C1067 C1066 1.391 . S
H1068 C1076 0.941 1_554 S
H1069 C1081 0.950 . S
H1070 C1078 0.954 . S
H1071 C1080 0.950 1_565 S
H1072 C1082 0.941 1_556 S
H1073 C1084 0.954 . S
H1074 C1086 0.950 1_545 S
H1075 C1087 0.950 . S
C1076 H1068 0.941 1_556 S
C1076 C1077 1.386 . S
C1076 C1078 1.391 1_556 S
C1077 C1076 1.386 . S
C1077 C1081 1.393 . S
C1078 H1070 0.954 . S
C1078 C1076 1.391 1_554 S
C1078 C1079 1.400 1_554 S
C1079 C1078 1.400 1_556 S
C1079 C1080 1.398 . S
C1079 C1085 1.491 1_646 S
C1080 H1071 0.950 1_545 S
C1080 C1079 1.398 . S
C1080 C1081 1.391 . S
C1081 H1069 0.950 . S
C1081 C1077 1.393 . S
C1081 C1080 1.391 . S
C1082 H1072 0.941 1_554 S
C1082 C1083 1.386 . S
C1082 C1084 1.391 1_554 S
C1083 C1082 1.386 . S
C1083 C1087 1.393 . S
C1084 H1073 0.954 . S
C1084 C1082 1.391 1_556 S
C1084 C1085 1.400 1_556 S
C1085 C1079 1.491 1_464 S
C1085 C1084 1.400 1_554 S
C1085 C1086 1.398 . S
C1086 H1074 0.950 1_565 S
C1086 C1085 1.398 . S
C1086 C1087 1.391 . S
C1087 H1075 0.950 . S
C1087 C1083 1.393 . S
C1087 C1086 1.391 . S
H1088 C1096 0.950 . S
H1089 C1101 0.950 . S
H1090 C1098 0.943 1_455 S
H1091 C1100 0.950 . S
H1092 C1102 0.950 . S
H1093 C1104 0.943 1_655 S
H1094 C1106 0.950 . S
H1095 C1107 0.950 . S
C1096 H1088 0.950 . S
C1096 C1097 1.386 . S
C1096 C1098 1.391 . S
C1097 C1096 1.386 . S
C1097 C1101 1.393 1_545 S
C1098 H1090 0.943 1_655 S
C1098 C1096 1.391 . S
C1098 C1099 1.400 . S
C1099 C1098 1.400 . S
C1099 C1100 1.398 1_545 S
C1099 C1105 1.491 1_645 S
C1100 H1091 0.950 . S
C1100 C1099 1.398 1_565 S
C1100 C1101 1.391 . S
C1101 H1089 0.950 . S
C1101 C1097 1.393 1_565 S
C1101 C1100 1.391 . S
C1102 H1092 0.950 . S
C1102 C1103 1.386 . S
C1102 C1104 1.391 . S
C1103 C1102 1.386 . S
C1103 C1107 1.393 1_565 S
C1104 H1093 0.943 1_455 S
C1104 C1102 1.391 . S
C1104 C1105 1.400 . S
C1105 C1099 1.491 1_465 S
C1105 C1104 1.400 . S
C1105 C1106 1.398 1_565 S
C1106 H1094 0.950 . S
C1106 C1105 1.398 1_545 S
C1106 C1107 1.391 . S
C1107 H1095 0.950 . S
C1107 C1103 1.393 1_545 S
C1107 C1106 1.391 . S
H1108 C1116 0.950 . S
H1109 C1121 0.950 . S
H1110 C1118 0.950 . S
H1111 C1120 0.950 . S
H1112 C1122 0.950 . S
H1113 C1124 0.950 . S
H1114 C1126 0.950 . S
H1115 C1127 0.950 . S
C1116 H1108 0.950 . S
C1116 C1117 1.386 . S
C1116 C1118 1.391 . S
C1117 C1116 1.386 . S
C1117 C1121 1.393 . S
C1118 H1110 0.950 . S
C1118 C1116 1.391 . S
C1118 C1119 1.400 . S
C1119 C1118 1.400 . S
C1119 C1120 1.398 . S
C1119 C1125 1.491 1_545 S
C1120 H1111 0.950 . S
C1120 C1119 1.398 . S
C1120 C1121 1.391 . S
C1121 H1109 0.950 . S
C1121 C1117 1.393 . S
C1121 C1120 1.391 . S
C1122 H1112 0.950 . S
C1122 C1123 1.386 . S
C1122 C1124 1.391 . S
C1123 C1122 1.386 . S
C1123 C1127 1.393 . S
C1124 H1113 0.950 . S
C1124 C1122 1.391 . S
C1124 C1125 1.400 . S
C1125 C1119 1.491 1_565 S
C1125 C1124 1.400 . S
C1125 C1126 1.398 . S
C1126 H1114 0.950 . S
C1126 C1125 1.398 . S
C1126 C1127 1.391 . S
C1127 H1115 0.950 . S
C1127 C1123 1.393 . S
C1127 C1126 1.391 . S
H1128 C1136 0.950 . S
H1129 C1141 0.950 . S
H1130 C1138 0.950 . S
H1131 C1140 0.950 . S
H1132 C1142 0.950 . S
H1133 C1144 0.950 . S
H1134 C1146 0.950 . S
H1135 C1147 0.950 . S
C1136 H1128 0.950 . S
C1136 C1137 1.386 . S
C1136 C1138 1.391 . S
C1137 C1136 1.386 . S
C1137 C1141 1.393 . S
C1138 H1130 0.950 . S
C1138 C1136 1.391 . S
C1138 C1139 1.400 . S
C1139 C1138 1.400 . S
C1139 C1140 1.398 . S
C1139 C1145 1.491 . S
C1140 H1131 0.950 . S
C1140 C1139 1.398 . S
C1140 C1141 1.391 . S
C1141 H1129 0.950 . S
C1141 C1137 1.393 . S
C1141 C1140 1.391 . S
C1142 H1132 0.950 . S
C1142 C1143 1.386 . S
C1142 C1144 1.391 . S
C1143 C1142 1.386 . S
C1143 C1147 1.393 . S
C1144 H1133 0.950 . S
C1144 C1142 1.391 . S
C1144 C1145 1.400 . S
C1145 C1139 1.491 . S
C1145 C1144 1.400 . S
C1145 C1146 1.398 . S
C1146 H1134 0.950 . S
C1146 C1145 1.398 . S
C1146 C1147 1.391 . S
C1147 H1135 0.950 . S
C1147 C1143 1.393 . S
C1147 C1146 1.391 . S
H1148 C1156 0.965 . S
H1149 C1161 0.950 . S
H1150 C1158 0.950 . S
H1151 C1160 0.950 . S
H1152 C1162 0.965 . S
H1153 C1164 0.950 . S
H1154 C1166 0.950 . S
H1155 C1167 0.950 . S
C1156 H1148 0.965 . S
C1156 C1157 1.362 1_655 S
C1156 C1158 1.401 . S
C1157 C1156 1.362 1_455 S
C1157 C1161 1.393 . S
C1158 H1150 0.950 . S
C1158 C1156 1.401 . S
C1158 C1159 1.400 1_655 S
C1159 C1158 1.400 1_455 S
C1159 C1160 1.398 . S
C1159 C1165 1.491 1_455 S
C1160 H1151 0.950 . S
C1160 C1159 1.398 . S
C1160 C1161 1.391 . S
C1161 H1149 0.950 . S
C1161 C1157 1.393 . S
C1161 C1160 1.391 . S
C1162 H1152 0.965 . S
C1162 C1163 1.362 1_455 S
C1162 C1164 1.401 . S
C1163 C1162 1.362 1_655 S
C1163 C1167 1.393 . S
C1164 H1153 0.950 . S
C1164 C1162 1.401 . S
C1164 C1165 1.400 1_455 S
C1165 C1159 1.491 1_655 S
C1165 C1164 1.400 1_655 S
C1165 C1166 1.398 . S
C1166 H1154 0.950 . S
C1166 C1165 1.398 . S
C1166 C1167 1.391 . S
C1167 H1155 0.950 . S
C1167 C1163 1.393 . S
C1167 C1166 1.391 . S
H1168 C1176 0.950 . S
H1169 C1181 0.950 . S
H1170 C1178 0.950 . S
H1171 C1180 0.950 . S
H1172 C1182 0.950 . S
H1173 C1184 0.950 . S
H1174 C1186 0.950 . S
H1175 C1187 0.950 . S
C1176 H1168 0.950 . S
C1176 C1177 1.386 . S
C1176 C1178 1.391 . S
C1177 C1176 1.386 . S
C1177 C1181 1.393 . S
C1178 H1170 0.950 . S
C1178 C1176 1.391 . S
C1178 C1179 1.400 . S
C1179 C1178 1.400 . S
C1179 C1180 1.398 . S
C1179 C1185 1.491 . S
C1180 H1171 0.950 . S
C1180 C1179 1.398 . S
C1180 C1181 1.391 . S
C1181 H1169 0.950 . S
C1181 C1177 1.393 . S
C1181 C1180 1.391 . S
C1182 H1172 0.950 . S
C1182 C1183 1.386 . S
C1182 C1184 1.391 . S
C1183 C1182 1.386 . S
C1183 C1187 1.393 . S
C1184 H1173 0.950 . S
C1184 C1182 1.391 . S
C1184 C1185 1.400 . S
C1185 C1179 1.491 . S
C1185 C1184 1.400 . S
C1185 C1186 1.398 . S
C1186 H1174 0.950 . S
C1186 C1185 1.398 . S
C1186 C1187 1.391 . S
C1187 H1175 0.950 . S
C1187 C1183 1.393 . S
C1187 C1186 1.391 . S
H1188 C1196 0.950 . S
H1189 C1201 0.950 . S
H1190 C1198 0.950 . S
H1191 C1200 0.950 . S
H1192 C1202 0.950 . S
H1193 C1204 0.950 . S
H1194 C1206 0.950 . S
H1195 C1207 0.950 . S
C1196 H1188 0.950 . S
C1196 C1197 1.386 . S
C1196 C1198 1.391 . S
C1197 C1196 1.386 . S
C1197 C1201 1.393 . S
C1198 H1190 0.950 . S
C1198 C1196 1.391 . S
C1198 C1199 1.400 . S
C1199 C1198 1.400 . S
C1199 C1200 1.398 . S
C1199 C1205 1.491 . S
C1200 H1191 0.950 . S
C1200 C1199 1.398 . S
C1200 C1201 1.391 . S
C1201 H1189 0.950 . S
C1201 C1197 1.393 . S
C1201 C1200 1.391 . S
C1202 H1192 0.950 . S
C1202 C1203 1.386 . S
C1202 C1204 1.391 . S
C1203 C1202 1.386 . S
C1203 C1207 1.393 . S
C1204 H1193 0.950 . S
C1204 C1202 1.391 . S
C1204 C1205 1.400 . S
C1205 C1199 1.491 . S
C1205 C1204 1.400 . S
C1205 C1206 1.398 . S
C1206 H1194 0.950 . S
C1206 C1205 1.398 . S
C1206 C1207 1.391 . S
C1207 H1195 0.950 . S
C1207 C1203 1.393 . S
C1207 C1206 1.391 . S
H1208 C1216 0.950 . S
H1209 C1221 0.950 . S
H1210 C1218 0.950 . S
H1211 C1220 0.950 . S
H1212 C1222 0.950 . S
H1213 C1224 0.950 . S
H1214 C1226 0.950 . S
H1215 C1227 0.950 . S
C1216 H1208 0.950 . S
C1216 C1217 1.386 . S
C1216 C1218 1.391 . S
C1217 C1216 1.386 . S
C1217 C1221 1.393 . S
C1218 H1210 0.950 . S
C1218 C1216 1.391 . S
C1218 C1219 1.400 . S
C1219 C1218 1.400 . S
C1219 C1220 1.398 . S
C1219 C1225 1.491 . S
C1220 H1211 0.950 . S
C1220 C1219 1.398 . S
C1220 C1221 1.391 . S
C1221 H1209 0.950 . S
C1221 C1217 1.393 . S
C1221 C1220 1.391 . S
C1222 H1212 0.950 . S
C1222 C1223 1.386 . S
C1222 C1224 1.391 . S
C1223 C1222 1.386 . S
C1223 C1227 1.393 . S
C1224 H1213 0.950 . S
C1224 C1222 1.391 . S
C1224 C1225 1.400 . S
C1225 C1219 1.491 . S
C1225 C1224 1.400 . S
C1225 C1226 1.398 . S
C1226 H1214 0.950 . S
C1226 C1225 1.398 . S
C1226 C1227 1.391 . S
C1227 H1215 0.950 . S
C1227 C1223 1.393 . S
C1227 C1226 1.391 . S
H1228 C1236 0.950 . S
H1229 C1241 0.950 . S
H1230 C1238 0.950 . S
H1231 C1240 0.950 . S
H1232 C1242 0.950 . S
H1233 C1244 0.950 . S
H1234 C1246 0.950 . S
H1235 C1247 0.950 . S
C1236 H1228 0.950 . S
C1236 C1237 1.386 . S
C1236 C1238 1.391 . S
C1237 C1236 1.386 . S
C1237 C1241 1.393 . S
C1238 H1230 0.950 . S
C1238 C1236 1.391 . S
C1238 C1239 1.400 . S
C1239 C1238 1.400 . S
C1239 C1240 1.398 . S
C1239 C1245 1.491 . S
C1240 H1231 0.950 . S
C1240 C1239 1.398 . S
C1240 C1241 1.391 . S
C1241 H1229 0.950 . S
C1241 C1237 1.393 . S
C1241 C1240 1.391 . S
C1242 H1232 0.950 . S
C1242 C1243 1.386 . S
C1242 C1244 1.391 . S
C1243 C1242 1.386 . S
C1243 C1247 1.393 . S
C1244 H1233 0.950 . S
C1244 C1242 1.391 . S
C1244 C1245 1.400 . S
C1245 C1239 1.491 . S
C1245 C1244 1.400 . S
C1245 C1246 1.398 . S
C1246 H1234 0.950 . S
C1246 C1245 1.398 . S
C1246 C1247 1.391 . S
C1247 H1235 0.950 . S
C1247 C1243 1.393 . S
C1247 C1246 1.391 . S
H1248 C1256 0.950 . S
H1249 C1261 0.950 . S
H1250 C1258 0.950 . S
H1251 C1260 0.950 . S
H1252 C1262 0.950 . S
H1253 C1264 0.950 . S
H1254 C1266 0.950 . S
H1255 C1267 0.950 . S
C1256 H1248 0.950 . S
C1256 C1257 1.386 . S
C1256 C1258 1.391 . S
C1257 C1256 1.386 . S
C1257 C1261 1.393 . S
C1258 H1250 0.950 . S
C1258 C1256 1.391 . S
C1258 C1259 1.400 . S
C1259 C1258 1.400 . S
C1259 C1260 1.398 . S
C1259 C1265 1.491 . S
C1260 H1251 0.950 . S
C1260 C1259 1.398 . S
C1260 C1261 1.391 . S
C1261 H1249 0.950 . S
C1261 C1257 1.393 . S
C1261 C1260 1.391 . S
C1262 H1252 0.950 . S
C1262 C1263 1.386 . S
C1262 C1264 1.391 . S
C1263 C1262 1.386 . S
C1263 C1267 1.393 . S
C1264 H1253 0.950 . S
C1264 C1262 1.391 . S
C1264 C1265 1.400 . S
C1265 C1259 1.491 . S
C1265 C1264 1.400 . S
C1265 C1266 1.398 . S
C1266 H1254 0.950 . S
C1266 C1265 1.398 . S
C1266 C1267 1.391 . S
C1267 H1255 0.950 . S
C1267 C1263 1.393 . S
C1267 C1266 1.391 . S
H1268 C1276 0.950 . S
H1269 C1281 0.950 . S
H1270 C1278 0.950 . S
H1271 C1280 0.950 . S
H1272 C1282 0.950 . S
H1273 C1284 0.950 . S
H1274 C1286 0.950 . S
H1275 C1287 0.950 . S
C1276 H1268 0.950 . S
C1276 C1277 1.386 . S
C1276 C1278 1.391 . S
C1277 C1276 1.386 . S
C1277 C1281 1.393 . S
C1278 H1270 0.950 . S
C1278 C1276 1.391 . S
C1278 C1279 1.400 . S
C1279 C1278 1.400 . S
C1279 C1280 1.398 . S
C1279 C1285 1.491 . S
C1280 H1271 0.950 . S
C1280 C1279 1.398 . S
C1280 C1281 1.391 . S
C1281 H1269 0.950 . S
C1281 C1277 1.393 . S
C1281 C1280 1.391 . S
C1282 H1272 0.950 . S
C1282 C1283 1.386 . S
C1282 C1284 1.391 . S
C1283 C1282 1.386 . S
C1283 C1287 1.393 . S
C1284 H1273 0.950 . S
C1284 C1282 1.391 . S
C1284 C1285 1.400 . S
C1285 C1279 1.491 . S
C1285 C1284 1.400 . S
C1285 C1286 1.398 . S
C1286 H1274 0.950 . S
C1286 C1285 1.398 . S
C1286 C1287 1.391 . S
C1287 H1275 0.950 . S
C1287 C1283 1.393 . S
C1287 C1286 1.391 . S
H1288 C1296 0.950 . S
H1289 C1301 0.950 . S
H1290 C1298 0.950 . S
H1291 C1300 0.950 . S
H1292 C1302 0.950 . S
H1293 C1304 0.950 . S
H1294 C1306 0.950 . S
H1295 C1307 0.950 . S
C1296 H1288 0.950 . S
C1296 C1297 1.386 . S
C1296 C1298 1.391 . S
C1297 C1296 1.386 . S
C1297 C1301 1.393 . S
C1298 H1290 0.950 . S
C1298 C1296 1.391 . S
C1298 C1299 1.400 . S
C1299 C1298 1.400 . S
C1299 C1300 1.398 . S
C1299 C1305 1.491 . S
C1300 H1291 0.950 . S
C1300 C1299 1.398 . S
C1300 C1301 1.391 . S
C1301 H1289 0.950 . S
C1301 C1297 1.393 . S
C1301 C1300 1.391 . S
C1302 H1292 0.950 . S
C1302 C1303 1.386 . S
C1302 C1304 1.391 . S
C1303 C1302 1.386 . S
C1303 C1307 1.393 . S
C1304 H1293 0.950 . S
C1304 C1302 1.391 . S
C1304 C1305 1.400 . S
C1305 C1299 1.491 . S
C1305 C1304 1.400 . S
C1305 C1306 1.398 . S
C1306 H1294 0.950 . S
C1306 C1305 1.398 . S
C1306 C1307 1.391 . S
C1307 H1295 0.950 . S
C1307 C1303 1.393 . S
C1307 C1306 1.391 . S
H1308 C1316 0.950 . S
H1309 C1321 0.950 . S
H1310 C1318 0.950 . S
H1311 C1320 0.950 . S
H1312 C1322 0.950 . S
H1313 C1324 0.950 . S
H1314 C1326 0.950 . S
H1315 C1327 0.950 . S
C1316 H1308 0.950 . S
C1316 C1317 1.386 . S
C1316 C1318 1.391 . S
C1317 C1316 1.386 . S
C1317 C1321 1.393 . S
C1318 H1310 0.950 . S
C1318 C1316 1.391 . S
C1318 C1319 1.400 . S
C1319 C1318 1.400 . S
C1319 C1320 1.398 . S
C1319 C1325 1.491 . S
C1320 H1311 0.950 . S
C1320 C1319 1.398 . S
C1320 C1321 1.391 . S
C1321 H1309 0.950 . S
C1321 C1317 1.393 . S
C1321 C1320 1.391 . S
C1322 H1312 0.950 . S
C1322 C1323 1.386 . S
C1322 C1324 1.391 . S
C1323 C1322 1.386 . S
C1323 C1327 1.393 . S
C1324 H1313 0.950 . S
C1324 C1322 1.391 . S
C1324 C1325 1.400 . S
C1325 C1319 1.491 . S
C1325 C1324 1.400 . S
C1325 C1326 1.398 . S
C1326 H1314 0.950 . S
C1326 C1325 1.398 . S
C1326 C1327 1.391 . S
C1327 H1315 0.950 . S
C1327 C1323 1.393 . S
C1327 C1326 1.391 . S
C537 N14 0.888 . S
C543 C50 0.872 . S
C557 C83 0.884 . S
C563 N47 0.893 . S
C577 C116 0.893 . S
C583 N80 0.884 . S
C597 N113 0.884 . S
C603 C17 0.893 . S
C617 C248 0.878 . S
C623 N146 0.894 . S
C637 C149 0.888 . S
C643 N179 0.873 . S
C657 C182 0.879 . S
C663 N212 0.894 . S
C677 N245 0.887 . S
C683 C215 0.891 . S
C697 N278 0.874 . S
C703 C314 0.884 . S
C717 N311 0.874 . S
C723 C347 0.883 . S
C737 C380 0.877 . S
C743 N344 0.894 . S
C757 C281 0.893 . S
C763 N377 0.876 . S
C777 C512 0.879 . S
C783 N410 0.894 . S
C797 C413 0.877 . S
C803 N443 0.894 . S
C817 N476 0.894 . S
C823 C446 0.880 . S
C837 N509 0.892 . S
C843 C479 0.874 . S
C857 N5 1.893 . S
C863 N71 1.896 . S
C877 N38 1.891 . S
C883 N104 1.900 . S
C897 N203 1.894 . S
C903 N137 1.895 . S
C917 N236 1.891 . S
C923 N170 1.901 . S
C937 N335 1.892 . S
C943 N269 1.901 . S
C957 N302 1.892 . S
C963 N368 1.901 . S
C977 N401 1.900 . S
C983 N467 1.893 . S
C997 N434 1.901 . S
C1003 N500 1.891 . S
C1017 C8 1.800 . S
C1023 C272 1.800 . S
C1037 C41 1.796 . S
C1043 C305 1.796 . S
C1057 C74 1.785 . S
C1063 C338 1.785 . S
C1077 C371 1.799 . S
C1083 C107 1.799 . S
C1097 C404 1.783 . S
C1103 C140 1.783 . S
C1117 C173 1.796 . S
C1123 C437 1.796 . S
C1137 C206 1.801 . S
C1143 C470 1.801 . S
C1157 C503 1.793 . S
C1163 C239 1.793 . S
C1177 C193 1.589 . S
C1183 C28 1.583 . S
C1197 C226 1.588 . S
C1203 C61 1.587 . S
C1217 C94 1.589 . S
C1223 C259 1.585 . S
C1237 C160 1.589 . S
C1243 C127 1.584 . S
C1257 C292 1.589 . S
C1263 C457 1.583 . S
C1277 C490 1.584 . S
C1283 C325 1.589 . S
C1297 C523 1.587 . S
C1303 C358 1.588 . S
C1317 C391 1.583 . S
C1323 C424 1.589 . S
