# Generated by pormake.
# Topology crs, (6)-cn, num edge types: 1
# Building blocks:
#     Node 0, Type 0, BuildingBlock: MIFKUJ_clean_sbu_0, # of connection points: 6
#     Node 1, Type 0, BuildingBlock: MIFKUJ_clean_sbu_0, # of connection points: 6
#     Node 2, Type 0, BuildingBlock: MIFKUJ_clean_sbu_0, # of connection points: 6
#     Node 3, Type 0, BuildingBlock: MIFKUJ_clean_sbu_0, # of connection points: 6
#     Node 4, Type 0, BuildingBlock: MIFKUJ_clean_sbu_0, # of connection points: 6
#     Node 5, Type 0, BuildingBlock: MIFKUJ_clean_sbu_0, # of connection points: 6
#     Node 6, Type 0, BuildingBlock: MIFKUJ_clean_sbu_0, # of connection points: 6
#     Node 7, Type 0, BuildingBlock: MIFKUJ_clean_sbu_0, # of connection points: 6
#     Node 8, Type 0, BuildingBlock: MIFKUJ_clean_sbu_0, # of connection points: 6
#     Node 9, Type 0, BuildingBlock: MIFKUJ_clean_sbu_0, # of connection points: 6
#     Node 10, Type 0, BuildingBlock: MIFKUJ_clean_sbu_0, # of connection points: 6
#     Node 11, Type 0, BuildingBlock: MIFKUJ_clean_sbu_0, # of connection points: 6
#     Node 12, Type 0, BuildingBlock: MIFKUJ_clean_sbu_0, # of connection points: 6
#     Node 13, Type 0, BuildingBlock: MIFKUJ_clean_sbu_0, # of connection points: 6
#     Node 14, Type 0, BuildingBlock: MIFKUJ_clean_sbu_0, # of connection points: 6
#     Node 15, Type 0, BuildingBlock: MIFKUJ_clean_sbu_0, # of connection points: 6
#     Edge 16, Type (0, 0), BuildingBlock: CIFDUS_clean_linker_0, # of connection points: 2
#     Edge 17, Type (0, 0), BuildingBlock: CIFDUS_clean_linker_0, # of connection points: 2
#     Edge 18, Type (0, 0), BuildingBlock: CIFDUS_clean_linker_0, # of connection points: 2
#     Edge 19, Type (0, 0), BuildingBlock: CIFDUS_clean_linker_0, # of connection points: 2
#     Edge 20, Type (0, 0), BuildingBlock: CIFDUS_clean_linker_0, # of connection points: 2
#     Edge 21, Type (0, 0), BuildingBlock: CIFDUS_clean_linker_0, # of connection points: 2
#     Edge 22, Type (0, 0), BuildingBlock: CIFDUS_clean_linker_0, # of connection points: 2
#     Edge 23, Type (0, 0), BuildingBlock: CIFDUS_clean_linker_0, # of connection points: 2
#     Edge 24, Type (0, 0), BuildingBlock: CIFDUS_clean_linker_0, # of connection points: 2
#     Edge 25, Type (0, 0), BuildingBlock: CIFDUS_clean_linker_0, # of connection points: 2
#     Edge 26, Type (0, 0), BuildingBlock: CIFDUS_clean_linker_0, # of connection points: 2
#     Edge 27, Type (0, 0), BuildingBlock: CIFDUS_clean_linker_0, # of connection points: 2
#     Edge 28, Type (0, 0), BuildingBlock: CIFDUS_clean_linker_0, # of connection points: 2
#     Edge 29, Type (0, 0), BuildingBlock: CIFDUS_clean_linker_0, # of connection points: 2
#     Edge 30, Type (0, 0), BuildingBlock: CIFDUS_clean_linker_0, # of connection points: 2
#     Edge 31, Type (0, 0), BuildingBlock: CIFDUS_clean_linker_0, # of connection points: 2
#     Edge 32, Type (0, 0), BuildingBlock: CIFDUS_clean_linker_0, # of connection points: 2
#     Edge 33, Type (0, 0), BuildingBlock: CIFDUS_clean_linker_0, # of connection points: 2
#     Edge 34, Type (0, 0), BuildingBlock: CIFDUS_clean_linker_0, # of connection points: 2
#     Edge 35, Type (0, 0), BuildingBlock: CIFDUS_clean_linker_0, # of connection points: 2
#     Edge 36, Type (0, 0), BuildingBlock: CIFDUS_clean_linker_0, # of connection points: 2
#     Edge 37, Type (0, 0), BuildingBlock: CIFDUS_clean_linker_0, # of connection points: 2
#     Edge 38, Type (0, 0), BuildingBlock: CIFDUS_clean_linker_0, # of connection points: 2
#     Edge 39, Type (0, 0), BuildingBlock: CIFDUS_clean_linker_0, # of connection points: 2
#     Edge 40, Type (0, 0), BuildingBlock: CIFDUS_clean_linker_0, # of connection points: 2
#     Edge 41, Type (0, 0), BuildingBlock: CIFDUS_clean_linker_0, # of connection points: 2
#     Edge 42, Type (0, 0), BuildingBlock: CIFDUS_clean_linker_0, # of connection points: 2
#     Edge 43, Type (0, 0), BuildingBlock: CIFDUS_clean_linker_0, # of connection points: 2
#     Edge 44, Type (0, 0), BuildingBlock: CIFDUS_clean_linker_0, # of connection points: 2
#     Edge 45, Type (0, 0), BuildingBlock: CIFDUS_clean_linker_0, # of connection points: 2
#     Edge 46, Type (0, 0), BuildingBlock: CIFDUS_clean_linker_0, # of connection points: 2
#     Edge 47, Type (0, 0), BuildingBlock: CIFDUS_clean_linker_0, # of connection points: 2
#     Edge 48, Type (0, 0), BuildingBlock: CIFDUS_clean_linker_0, # of connection points: 2
#     Edge 49, Type (0, 0), BuildingBlock: CIFDUS_clean_linker_0, # of connection points: 2
#     Edge 50, Type (0, 0), BuildingBlock: CIFDUS_clean_linker_0, # of connection points: 2
#     Edge 51, Type (0, 0), BuildingBlock: CIFDUS_clean_linker_0, # of connection points: 2
#     Edge 52, Type (0, 0), BuildingBlock: CIFDUS_clean_linker_0, # of connection points: 2
#     Edge 53, Type (0, 0), BuildingBlock: CIFDUS_clean_linker_0, # of connection points: 2
#     Edge 54, Type (0, 0), BuildingBlock: CIFDUS_clean_linker_0, # of connection points: 2
#     Edge 55, Type (0, 0), BuildingBlock: CIFDUS_clean_linker_0, # of connection points: 2
#     Edge 56, Type (0, 0), BuildingBlock: CIFDUS_clean_linker_0, # of connection points: 2
#     Edge 57, Type (0, 0), BuildingBlock: CIFDUS_clean_linker_0, # of connection points: 2
#     Edge 58, Type (0, 0), BuildingBlock: CIFDUS_clean_linker_0, # of connection points: 2
#     Edge 59, Type (0, 0), BuildingBlock: CIFDUS_clean_linker_0, # of connection points: 2
#     Edge 60, Type (0, 0), BuildingBlock: CIFDUS_clean_linker_0, # of connection points: 2
#     Edge 61, Type (0, 0), BuildingBlock: CIFDUS_clean_linker_0, # of connection points: 2
#     Edge 62, Type (0, 0), BuildingBlock: CIFDUS_clean_linker_0, # of connection points: 2
#     Edge 63, Type (0, 0), BuildingBlock: CIFDUS_clean_linker_0, # of connection points: 2
# Relax obj value: 0.327
# Max RMSD: 0.293
# Mean RMSD: 0.248
data_MOF--net-crs--node1-MIFKUJ_clean_sbu_0--edge1-CIFDUS_clean_linker_0
_symmetry_space_group_name_H-M    P1
_symmetry_Int_Tables_number       1
_symmetry_cell_setting            triclinic
loop_
_symmetry_equiv_pos_as_xyz
'x, y, z'
_cell_length_a     38.987405
_cell_length_b     39.005134
_cell_length_c     39.612144
_cell_angle_alpha  90.668967
_cell_angle_beta   90.15952
_cell_angle_gamma 77.664917
loop_
_atom_site_label
_atom_site_type_symbol
_atom_site_fract_x
_atom_site_fract_y
_atom_site_fract_z
_atom_type_partial_charge
Zn0 Zn -0.00125 0.01966 0.99075 0.0
Zn1 Zn 0.9452 0.98094 0.01234 0.0
C2 C 0.96797 0.08518 0.02437 0.0
O3 O 0.9683 0.09745 0.99365 0.0
C4 C 0.97978 0.91415 0.98311 0.0
O5 O 0.98416 0.90559 0.01504 0.0
O6 O 0.03414 0.04354 0.97099 0.0
O7 O 0.0242 0.97503 0.01201 0.0
O8 O 0.98135 0.98136 0.04881 0.0
C9 C 0.06433 0.02921 0.95985 0.0
O10 O 0.07496 0.99493 0.96079 0.0
O11 O 0.97747 0.0523 0.02881 0.0
C12 C 0.90793 0.9403 0.0559 0.0
O13 O 0.93791 0.92955 0.07167 0.0
O14 O 0.90594 0.96217 0.03207 0.0
O15 O 0.92118 0.02562 0.98922 0.0
O16 O 0.96477 0.018 0.95341 0.0
O17 O 0.9652 0.94553 0.97573 0.0
C18 C 0.01381 0.97149 0.04187 0.0
C19 C 0.93245 0.02915 0.9597 0.0
Zn20 Zn 0.96 0.24645 0.26916 0.0
Zn21 Zn 0.00532 0.26241 0.21232 0.0
C22 C -0.00131 0.27458 0.32102 0.0
O23 O 0.00353 0.24213 0.3317 0.0
C24 C 0.9709 0.24025 0.15545 0.0
O25 O 0.9687 0.27348 0.14834 0.0
O26 O 0.92767 0.23397 0.30411 0.0
O27 O 0.93055 0.27021 0.23105 0.0
O28 O 0.96754 0.30465 0.22445 0.0
C29 C 0.89466 0.23789 0.3007 0.0
O30 O 0.88002 0.24848 0.27168 0.0
O31 O 0.98209 0.28255 0.29353 0.0
C32 C 0.0691 0.28309 0.19089 0.0
O33 O 0.07638 0.28249 0.22331 0.0
O34 O 0.03974 0.27737 0.18115 0.0
O35 O 0.03459 0.23517 0.24919 0.0
O36 O -0.00386 0.20287 0.25888 0.0
O37 O 0.98451 0.22876 0.18344 0.0
C38 C 0.93613 0.30039 0.22484 0.0
C39 C 0.02774 0.20629 0.25839 0.0
Zn40 Zn 0.75358 0.3007 0.52102 0.0
Zn41 Zn 0.70061 0.27505 0.48578 0.0
C42 C 0.80981 0.25605 0.48294 0.0
O43 O 0.82476 0.24979 0.51265 0.0
C44 C 0.64589 0.32047 0.52507 0.0
O45 O 0.62962 0.32699 0.49601 0.0
O46 O 0.78843 0.3223 0.54586 0.0
O47 O 0.71801 0.34155 0.50293 0.0
O48 O 0.71626 0.31118 0.45638 0.0
C49 C 0.77946 0.35096 0.56231 0.0
O50 O 0.74594 0.36529 0.56583 0.0
O51 O 0.77961 0.27607 0.48099 0.0
C52 C 0.66535 0.2276 0.44814 0.0
O53 O 0.69647 0.20645 0.44698 0.0
O54 O 0.66219 0.25775 0.4617 0.0
O55 O 0.73426 0.23268 0.50576 0.0
O56 O 0.73953 0.26478 0.55062 0.0
O57 O 0.67599 0.30019 0.52594 0.0
C58 C 0.71446 0.34068 0.47108 0.0
C59 C 0.73986 0.23487 0.53737 0.0
Zn60 Zn 0.77512 0.04159 0.75111 0.0
Zn61 Zn 0.73684 0.01875 0.6911 0.0
C62 C 0.73304 0.01862 0.79962 0.0
O63 O 0.73007 0.05185 0.8079 0.0
C64 C 0.75605 0.05164 0.63114 0.0
O65 O 0.7549 0.02093 0.61774 0.0
O66 O 0.80219 0.05827 0.78871 0.0
O67 O 0.81107 0.0167 0.71758 0.0
O68 O 0.77724 0.98061 0.70375 0.0
C69 C 0.83263 0.0645 0.78525 0.0
O70 O 0.8464 0.06334 0.75491 0.0
O71 O 0.752 0.00632 0.77435 0.0
C72 C 0.68098 0.98476 0.67052 0.0
O73 O 0.67359 0.98496 0.70287 0.0
O74 O 0.70714 0.99659 0.66078 0.0
O75 O 0.70426 0.04302 0.72691 0.0
O76 O 0.7365 0.08178 0.73657 0.0
O77 O 0.75152 0.05621 0.66282 0.0
C78 C 0.8077 0.98653 0.70777 0.0
C79 C 0.70655 0.0738 0.73578 0.0
Zn80 Zn 0.48242 0.77803 0.30809 0.0
Zn81 Zn 0.51912 0.78822 0.23608 0.0
C82 C 0.51342 0.82949 0.34817 0.0
O83 O 0.53803 0.80275 0.35749 0.0
C84 C 0.47995 0.75657 0.18965 0.0
O85 O 0.47172 0.78972 0.18089 0.0
O86 O 0.45558 0.75974 0.34479 0.0
O87 O 0.44922 0.79051 0.26885 0.0
O88 O 0.47986 0.82754 0.2504 0.0
C89 C 0.47038 0.75043 0.37287 0.0
O90 O 0.5037 0.75093 0.37689 0.0
O91 O 0.49032 0.82458 0.32698 0.0
C92 C 0.56358 0.78127 0.18005 0.0
O93 O 0.56888 0.74881 0.1908 0.0
O94 O 0.54306 0.80521 0.19668 0.0
O95 O 0.55736 0.76987 0.26933 0.0
O96 O 0.52696 0.74121 0.30123 0.0
O97 O 0.49932 0.74835 0.21551 0.0
C98 C 0.45033 0.81984 0.25575 0.0
C99 C 0.55607 0.74477 0.28902 0.0
Zn100 Zn 0.25367 0.72554 0.53148 0.0
Zn101 Zn 0.29048 0.78966 0.55112 0.0
C102 C 0.28144 0.66771 0.57544 0.0
O103 O 0.28861 0.65127 0.54633 0.0
C104 C 0.24421 0.84421 0.51579 0.0
O105 O 0.23863 0.8559 0.54698 0.0
O106 O 0.22523 0.69441 0.50908 0.0
O107 O 0.22115 0.77112 0.54327 0.0
O108 O 0.25533 0.77974 0.58499 0.0
C109 C 0.1939 0.70428 0.49857 0.0
O110 O 0.1784 0.73762 0.5007 0.0
O111 O 0.26921 0.70067 0.57549 0.0
C112 C 0.34615 0.82055 0.58136 0.0
O113 O 0.36562 0.78862 0.5797 0.0
O114 O 0.31431 0.82589 0.57184 0.0
O115 O 0.32819 0.75001 0.53308 0.0
O116 O 0.29298 0.72781 0.49971 0.0
O117 O 0.26484 0.81463 0.51074 0.0
C118 C 0.22472 0.78014 0.57371 0.0
C119 C 0.32294 0.7343 0.50587 0.0
Zn120 Zn 0.25231 0.51379 0.82035 0.0
Zn121 Zn 0.21044 0.50392 0.75535 0.0
C122 C 0.21815 0.48276 0.87325 0.0
O123 O 0.21351 0.51462 0.88613 0.0
C124 C 0.25755 0.52418 0.70874 0.0
O125 O 0.25968 0.49113 0.70021 0.0
O126 O 0.28602 0.52756 0.85377 0.0
O127 O 0.28139 0.48888 0.78202 0.0
O128 O 0.24143 0.4588 0.7697 0.0
C129 C 0.3148 0.53523 0.84511 0.0
O130 O 0.32267 0.5355 0.8129 0.0
O131 O 0.23221 0.47678 0.84427 0.0
C132 C 0.16879 0.51776 0.69678 0.0
O133 O 0.17283 0.54955 0.70435 0.0
O134 O 0.1815 0.49265 0.71638 0.0
O135 O 0.17686 0.52935 0.78978 0.0
O136 O 0.21541 0.55739 0.81081 0.0
O137 O 0.23915 0.53645 0.73439 0.0
C138 C 0.27342 0.46028 0.77279 0.0
C139 C 0.18384 0.55651 0.80365 0.0
Zn140 Zn 0.04427 0.51683 0.49542 0.0
Zn141 Zn -0.00141 0.45791 0.51086 0.0
C142 C 0.00846 0.57618 0.53272 0.0
O143 O 0.00536 0.58871 0.50195 0.0
C144 C 0.03209 0.39644 0.47441 0.0
O145 O 0.03792 0.38525 0.5055 0.0
O146 O 0.07638 0.54703 0.47873 0.0
O147 O 0.074 0.47133 0.5108 0.0
O148 O 0.03468 0.46043 0.54609 0.0
C149 C 0.10961 0.53746 0.4773 0.0
O150 O 0.12456 0.50469 0.48367 0.0
O151 O 0.0224 0.5439 0.53668 0.0
C152 C 0.93978 0.44301 0.54942 0.0
O153 O 0.93196 0.47682 0.55623 0.0
O154 O 0.96643 0.43041 0.53137 0.0
O155 O 0.96856 0.50368 0.49535 0.0
O156 O 0.00768 0.51548 0.45975 0.0
O157 O 0.01792 0.42858 0.46987 0.0
C158 C 0.06622 0.4615 0.53965 0.0
C159 C 0.97589 0.51682 0.46779 0.0
Zn160 Zn 0.22826 0.19576 0.98808 0.0
Zn161 Zn 0.27114 0.24756 0.01275 0.0
C162 C 0.22532 0.15845 0.04835 0.0
O163 O 0.19253 0.17532 0.04514 0.0
C164 C 0.23453 0.30885 0.98018 0.0
O165 O 0.23087 0.31841 0.01212 0.0
O166 O 0.19738 0.16864 0.96438 0.0
O167 O 0.19689 0.23967 0.0076 0.0
O168 O 0.23426 0.24621 0.04751 0.0
C169 C 0.16711 0.1815 0.95269 0.0
O170 O 0.15505 0.21562 0.95399 0.0
O171 O 0.24779 0.1635 0.02672 0.0
C172 C 0.32519 0.28145 0.00776 0.0
O173 O 0.32339 0.26707 0.97785 0.0
O174 O 0.3045 0.27584 0.03078 0.0
O175 O 0.30178 0.20201 0.99669 0.0
O176 O 0.26585 0.20039 0.95481 0.0
O177 O 0.24919 0.2772 0.97306 0.0
C178 C 0.20281 0.24974 0.03729 0.0
C179 C 0.29707 0.1959 0.96572 0.0
Zn180 Zn 0.23706 0.99218 0.29376 0.0
Zn181 Zn 0.18854 0.97524 0.23686 0.0
C182 C 0.21326 0.95972 0.35018 0.0
O183 O 0.20575 0.99276 0.36005 0.0
C184 C 0.2214 0.0137 0.1867 0.0
O185 O 0.2353 0.98259 0.174 0.0
O186 O 0.27264 0.00763 0.32385 0.0
O187 O 0.26287 0.97303 0.25162 0.0
O188 O 0.22966 0.93496 0.24445 0.0
C189 C 0.29882 0.98275 0.3296 0.0
O190 O 0.30036 0.95239 0.31431 0.0
O191 O 0.22454 0.95248 0.32029 0.0
C192 C 0.12546 0.95531 0.21058 0.0
O193 O 0.11438 0.95931 0.24196 0.0
O194 O 0.15612 0.95934 0.20357 0.0
O195 O 0.15992 0.99631 0.2772 0.0
O196 O 0.19553 0.03169 0.28795 0.0
O197 O 0.20289 0.01592 0.21335 0.0
C198 C 0.25989 0.94214 0.24406 0.0
C199 C 0.16454 0.02642 0.28604 0.0
Zn200 Zn 0.47743 0.2602 0.80106 0.0
Zn201 Zn 0.51838 0.28094 0.73784 0.0
C202 C 0.50168 0.2922 0.86082 0.0
O203 O 0.50964 0.25945 0.87083 0.0
C204 C 0.49134 0.24283 0.68407 0.0
O205 O 0.48822 0.27334 0.66933 0.0
O206 O 0.44837 0.23519 0.82978 0.0
O207 O 0.44438 0.28485 0.76505 0.0
O208 O 0.47881 0.31961 0.74961 0.0
C209 C 0.42394 0.2221 0.81722 0.0
O210 O 0.41867 0.22346 0.78444 0.0
O211 O 0.48922 0.29869 0.83129 0.0
C212 C 0.57434 0.3098 0.70783 0.0
O213 O 0.58936 0.30598 0.73767 0.0
O214 O 0.54527 0.30078 0.70316 0.0
O215 O 0.55072 0.26474 0.77615 0.0
O216 O 0.5213 0.2245 0.78759 0.0
O217 O 0.50247 0.23971 0.71443 0.0
C218 C 0.44831 0.31445 0.75464 0.0
C219 C 0.55054 0.2335 0.78417 0.0
Zn220 Zn 0.95291 0.75535 0.7682 0.0
Zn221 Zn 0.01218 0.76329 0.72459 0.0
C222 C 0.97924 0.78526 0.82627 0.0
O223 O 0.97825 0.75409 0.83794 0.0
C224 C -0.01009 0.73637 0.66259 0.0
O225 O -0.01198 0.76916 0.65399 0.0
O226 O 0.91191 0.74918 0.79574 0.0
O227 O 0.93394 0.77578 0.72419 0.0
O228 O 0.97404 0.80731 0.72597 0.0
C229 C 0.8885 0.7766 0.80197 0.0
O230 O 0.89086 0.80627 0.78773 0.0
O231 O 0.97144 0.79181 0.79548 0.0
C232 C 0.08233 0.77763 0.71605 0.0
O233 O 0.08634 0.77175 0.74856 0.0
O234 O 0.05336 0.77613 0.70197 0.0
O235 O 0.02998 0.73869 0.76765 0.0
O236 O -0.01224 0.70959 0.76713 0.0
O237 O -0.00149 0.72732 0.6927 0.0
C238 C 0.94312 0.80443 0.71838 0.0
C239 C 0.01926 0.7109 0.77392 0.0
Zn240 Zn 0.7728 0.53161 0.30065 0.0
Zn241 Zn 0.72516 0.51421 0.24631 0.0
C242 C 0.73528 0.4962 0.34977 0.0
O243 O 0.72529 0.52724 0.36411 0.0
C244 C 0.76402 0.54089 0.19386 0.0
O245 O 0.77534 0.50735 0.18713 0.0
O246 O 0.80805 0.5442 0.3328 0.0
O247 O 0.80162 0.50884 0.26152 0.0
O248 O 0.76539 0.47331 0.25502 0.0
C249 C 0.80129 0.56204 0.3599 0.0
O250 O 0.76855 0.57586 0.36791 0.0
O251 O 0.75384 0.49304 0.32314 0.0
C252 C 0.69792 0.47409 0.19379 0.0
O253 O 0.73103 0.45932 0.18845 0.0
O254 O 0.6899 0.49686 0.21727 0.0
O255 O 0.69728 0.53981 0.28534 0.0
O256 O 0.73453 0.57419 0.29246 0.0
O257 O 0.74265 0.55017 0.21816 0.0
C258 C 0.79638 0.47869 0.25379 0.0
C259 C 0.70326 0.56965 0.29322 0.0
Zn260 Zn 0.72652 0.72017 1.00372 0.0
Zn261 Zn 0.70797 0.82271 0.9669 0.0
C262 C 0.76761 0.68806 0.06016 0.0
O263 O 0.79149 0.67729 0.03683 0.0
C264 C 0.6835 0.87607 0.92003 0.0
O265 O 0.67201 0.89235 0.94836 0.0
O266 O 0.7012 0.68378 0.98742 0.0
O267 O 0.69576 0.76731 0.9997 0.0
O268 O 0.66519 0.81996 0.99651 0.0
C269 C 0.71729 0.65192 0.98469 0.0
O270 O 0.75125 0.64364 0.99036 0.0
O271 O 0.73936 0.70917 0.05207 0.0
C272 C 0.75261 0.84715 0.01626 0.0
O273 O 0.75666 0.81543 0.02866 0.0
O274 O 0.73303 0.85545 0.99069 0.0
O275 O 0.74315 0.77556 0.96235 0.0
O276 O 0.76736 0.72058 0.97273 0.0
O277 O 0.69699 0.84344 0.92092 0.0
C278 C 0.66965 0.78992 0.00987 0.0
C279 C 0.76705 0.74847 0.95616 0.0
Zn280 Zn 0.45914 0.02326 0.53674 0.0
Zn281 Zn 0.49614 0.06176 0.48948 0.0
C282 C 0.40869 0.01205 0.49242 0.0
O283 O 0.42277 0.98085 0.50421 0.0
C284 C 0.56149 0.01989 0.51157 0.0
O285 O 0.56808 0.01738 0.47902 0.0
O286 O 0.44198 0.992 0.57001 0.0
O287 O 0.49541 0.99024 0.50797 0.0
O288 O 0.48121 0.02264 0.46298 0.0
C289 C 0.46172 0.96352 0.57969 0.0
O290 O 0.49539 0.95754 0.57256 0.0
O291 O 0.41859 0.03868 0.50459 0.0
C292 C 0.51759 0.1191 0.45396 0.0
O293 O 0.48875 0.1388 0.46648 0.0
O294 O 0.52394 0.08624 0.45883 0.0
O295 O 0.46256 0.09845 0.51709 0.0
O296 O 0.47145 0.06492 0.56179 0.0
O297 O 0.53247 0.03819 0.52202 0.0
C298 C 0.49265 0.99267 0.47599 0.0
C299 C 0.4653 0.09542 0.54904 0.0
Zn300 Zn 0.50789 0.52882 0.03085 0.0
Zn301 Zn 0.46133 0.48189 0.0535 0.0
C302 C 0.47833 0.5942 0.06635 0.0
O303 O 0.47211 0.60619 0.03557 0.0
C304 C 0.49937 0.42043 0.01977 0.0
O305 O 0.50099 0.40981 0.05121 0.0
O306 O 0.54161 0.55198 0.00686 0.0
O307 O 0.53566 0.4842 0.05127 0.0
O308 O 0.49554 0.48653 0.09024 0.0
C309 C 0.57375 0.53845 1.00143 0.0
O310 O 0.58674 0.50611 0.01089 0.0
O311 O 0.49115 0.56169 0.07032 0.0
C312 C 0.41126 0.44436 0.04458 0.0
O313 O 0.41342 0.45969 0.01554 0.0
O314 O 0.4289 0.45197 0.06949 0.0
O315 O 0.43028 0.52606 0.03623 0.0
O316 O 0.46935 0.52717 0.99709 0.0
O317 O 0.48585 0.45249 0.01384 0.0
C318 C 0.52769 0.48033 0.08186 0.0
C319 C 0.43742 0.53261 0.0061 0.0
H320 H 0.9472 0.1563 0.02388 0.0
H321 H 0.97779 0.06884 0.09123 0.0
H322 H 0.97847 0.10929 0.13861 0.0
H323 H 0.97621 0.16938 0.15979 0.0
H324 H 0.9461 0.25655 0.09196 0.0
H325 H 0.93917 0.21636 0.04617 0.0
C326 C 0.95354 0.14605 0.04899 0.0
C327 C 0.96283 0.10957 0.05383 0.0
C328 C 0.95428 0.16944 0.0761 0.0
C329 C 0.97067 0.0968 0.08667 0.0
C330 C 0.97122 0.11993 0.11381 0.0
C331 C 0.96768 0.17963 0.13512 0.0
C332 C 0.96215 0.21595 0.1293 0.0
C333 C 0.96399 0.15629 0.10866 0.0
C334 C 0.95084 0.22874 0.09718 0.0
C335 C 0.94691 0.20575 0.07088 0.0
H336 H 0.78485 0.26181 0.41879 0.0
H337 H 0.87875 0.22279 0.47677 0.0
H338 H 0.91276 0.21006 0.42474 0.0
H339 H 0.91686 0.21591 0.36342 0.0
H340 H 0.82315 0.25626 0.3056 0.0
H341 H 0.78796 0.26216 0.35704 0.0
C342 C 0.81269 0.25015 0.42007 0.0
C343 C 0.82935 0.24375 0.45163 0.0
C344 C 0.83215 0.24331 0.39012 0.0
C345 C 0.86532 0.2282 0.45282 0.0
C346 C 0.88482 0.22101 0.42308 0.0
C347 C 0.88867 0.22555 0.36197 0.0
C348 C 0.87274 0.23608 0.33076 0.0
C349 C 0.86867 0.22936 0.39167 0.0
C350 C 0.83613 0.24814 0.3293 0.0
C351 C 0.81599 0.25167 0.35873 0.0
H352 H 0.75491 0.11931 0.64999 0.0
H353 H 0.76002 0.05174 0.56224 0.0
H354 H 0.75625 0.10211 0.5254 0.0
H355 H 0.74852 0.16598 0.51795 0.0
H356 H 0.74356 0.23315 0.60602 0.0
H357 H 0.7502 0.18244 0.6426 0.0
C358 C 0.75556 0.1155 0.62282 0.0
C359 C 0.75761 0.08173 0.60901 0.0
C360 C 0.75313 0.14464 0.60169 0.0
C361 C 0.75844 0.07739 0.57367 0.0
C362 C 0.75615 0.10624 0.5525 0.0
C363 C 0.74903 0.16949 0.54513 0.0
C364 C 0.74536 0.20342 0.55911 0.0
C365 C 0.75296 0.14009 0.56622 0.0
C366 C 0.74629 0.20741 0.59445 0.0
C367 C 0.75007 0.17839 0.61549 0.0
H368 H 0.94928 0.04687 0.89693 0.0
H369 H 0.86065 0.04117 0.96011 0.0
H370 H 0.82114 0.05587 0.91195 0.0
H371 H 0.81278 0.06415 0.85096 0.0
H372 H 0.9018 0.06827 0.78765 0.0
H373 H 0.94009 0.0609 0.83705 0.0
C374 C 0.92127 0.04916 0.90028 0.0
C375 C 0.90798 0.04242 0.93194 0.0
C376 C 0.89881 0.05723 0.87246 0.0
C377 C 0.87158 0.04603 0.93596 0.0
C378 C 0.84899 0.05433 0.90841 0.0
C379 C 0.84047 0.06396 0.84798 0.0
C380 C 0.85447 0.06628 0.81555 0.0
C381 C 0.86245 0.05908 0.87639 0.0
C382 C 0.89034 0.06632 0.81224 0.0
C383 C 0.91231 0.06194 0.84047 0.0
H384 H 0.00051 0.9634 0.10829 0.0
H385 H 0.08538 0.95647 0.03697 0.0
H386 H 0.12783 0.94717 0.08307 0.0
H387 H 0.14031 0.94692 0.14367 0.0
H388 H 0.05543 0.95547 0.21519 0.0
H389 H 0.0136 0.95779 0.16885 0.0
C390 C 0.02832 0.95945 0.10277 0.0
C391 C 0.03968 0.96111 0.06925 0.0
C392 C 0.05259 0.9546 0.12942 0.0
C393 C 0.07585 0.95557 0.06254 0.0
C394 C 0.10018 0.95034 0.0889 0.0
C395 C 0.11272 0.94886 0.14919 0.0
C396 C 0.10098 0.95147 0.18287 0.0
C397 C 0.08876 0.95072 0.12246 0.0
C398 C 0.06519 0.95361 0.18952 0.0
C399 C 0.0412 0.95507 0.16302 0.0
H400 H 0.00861 0.40772 0.40945 0.0
H401 H 0.06287 0.32685 0.47579 0.0
H402 H 0.06009 0.28231 0.4328 0.0
H403 H 0.03693 0.26555 0.37894 0.0
H404 H 0.98159 0.34588 0.31272 0.0
H405 H -0.00955 0.39125 0.35289 0.0
C406 C 0.02039 0.38044 0.4143 0.0
C407 C 0.0356 0.37069 0.44604 0.0
C408 C 0.0182 0.35473 0.38958 0.0
C409 C 0.05075 0.33516 0.45176 0.0
C410 C 0.04909 0.30958 0.4272 0.0
C411 C 0.02714 0.29299 0.37306 0.0
C412 C 0.00824 0.3022 0.34301 0.0
C413 C 0.03199 0.31894 0.39643 0.0
C414 C -0.00391 0.33796 0.33571 0.0
C415 C 0.00105 0.36396 0.35875 0.0
H416 H 0.67469 0.31912 0.58735 0.0
H417 H 0.57549 0.34458 0.53477 0.0
H418 H 0.54421 0.34834 0.58846 0.0
H419 H 0.54532 0.33511 0.6488 0.0
H420 H 0.64446 0.30779 0.70119 0.0
H421 H 0.67561 0.31441 0.64899 0.0
C422 C 0.64621 0.32612 0.58769 0.0
C423 C 0.62736 0.33078 0.55717 0.0
C424 C 0.62847 0.32747 0.6185 0.0
C425 C 0.59056 0.34055 0.55794 0.0
C426 C 0.57267 0.34248 0.5886 0.0
C427 C 0.57373 0.33114 0.64889 0.0
C428 C 0.59268 0.32026 0.67851 0.0
C429 C 0.59138 0.33449 0.6188 0.0
C430 C 0.62936 0.31591 0.67857 0.0
C431 C 0.64717 0.31953 0.64873 0.0
H432 H 0.74206 0.94708 0.79739 0.0
H433 H 0.68481 0.03982 0.84903 0.0
H434 H 0.66061 0.00355 0.88812 0.0
H435 H 0.66042 0.94596 0.91134 0.0
H436 H 0.71902 0.85274 0.86162 0.0
H437 H 0.73731 0.88866 0.81783 0.0
C438 C 0.72396 0.95932 0.81695 0.0
C439 C 0.71573 0.9961 0.82058 0.0
C440 C 0.71038 0.93823 0.83978 0.0
C441 C 0.69204 0.01156 0.84592 0.0
C442 C 0.67809 0.99085 0.86831 0.0
C443 C 0.6767 0.93339 0.89063 0.0
C444 C 0.68862 0.89675 0.89004 0.0
C445 C 0.68779 0.9542 0.86603 0.0
C446 C 0.7095 0.88092 0.86281 0.0
C447 C 0.72019 0.90148 0.83784 0.0
H448 H 0.2061 0.26822 0.10352 0.0
H449 H 0.13281 0.25736 0.02418 0.0
H450 H 0.08441 0.27033 0.06437 0.0
H451 H 0.06362 0.27964 0.12263 0.0
H452 H 0.13691 0.28874 0.20247 0.0
H453 H 0.18447 0.28207 0.16131 0.0
C454 C 0.1795 0.26908 0.09492 0.0
C455 C 0.17319 0.2615 0.06093 0.0
C456 C 0.15177 0.27613 0.11825 0.0
C457 C 0.1385 0.2629 0.05021 0.0
C458 C 0.11077 0.27027 0.07319 0.0
C459 C 0.08989 0.28064 0.13105 0.0
C460 C 0.09672 0.28434 0.16565 0.0
C461 C 0.11721 0.27617 0.10738 0.0
C462 C 0.13091 0.28576 0.17602 0.0
C463 C 0.15817 0.28182 0.15251 0.0
H464 H 0.71103 0.4911 0.41332 0.0
H465 H 0.74422 0.42992 0.32317 0.0
H466 H 0.73791 0.37658 0.35197 0.0
H467 H 0.72695 0.34672 0.404 0.0
H468 H 0.69678 0.40787 0.49479 0.0
H469 H 0.69771 0.46172 0.46445 0.0
C470 C 0.71647 0.46618 0.39982 0.0
C471 C 0.72818 0.46453 0.36619 0.0
C472 C 0.71351 0.43551 0.41673 0.0
C473 C 0.7353 0.43194 0.34914 0.0
C474 C 0.73174 0.40139 0.36559 0.0
C475 C 0.72012 0.37188 0.41701 0.0
C476 C 0.71188 0.37326 0.45161 0.0
C477 C 0.72145 0.40276 0.39957 0.0
C478 C 0.70339 0.40605 0.46819 0.0
C479 C 0.70393 0.43688 0.45087 0.0
H480 H 0.5505 0.00589 0.5768 0.0
H481 H 0.63164 0.99604 0.50116 0.0
H482 H 0.67651 0.97716 0.54415 0.0
H483 H 0.6925 0.97282 0.6039 0.0
H484 H 0.61148 0.98508 0.67986 0.0
H485 H 0.56656 0.99256 0.63584 0.0
C486 C 0.578 0.99919 0.56969 0.0
C487 C 0.58794 0.00319 0.53614 0.0
C488 C 0.60356 0.98879 0.59453 0.0
C489 C 0.62347 0.99357 0.52698 0.0
C490 C 0.6491 0.98284 0.55152 0.0
C491 C 0.66504 0.97637 0.6108 0.0
C492 C 0.65518 0.97924 0.64498 0.0
C493 C 0.63945 0.98173 0.5855 0.0
C494 C 0.61966 0.98307 0.65367 0.0
C495 C 0.59397 0.98768 0.62854 0.0
H496 H 0.97146 0.92197 0.91488 0.0
H497 H 0.00523 0.84406 0.99146 0.0
H498 H 0.01099 0.7975 0.94901 0.0
H499 H 0.00146 0.77849 0.89127 0.0
H500 H 0.96728 0.85587 0.81442 0.0
H501 H 0.96712 0.90293 0.85576 0.0
C502 C 0.98049 0.89484 0.92223 0.0
C503 C -0.01251 0.88658 0.95644 0.0
C504 C 0.98353 0.86801 0.89766 0.0
C505 C -0.00058 0.85126 0.96541 0.0
C506 C 0.00266 0.82453 0.94114 0.0
C507 C -0.00564 0.80564 0.88343 0.0
C508 C 0.98405 0.8136 0.84987 0.0
C509 C -0.00599 0.83255 0.90736 0.0
C510 C 0.97528 0.84895 0.8401 0.0
C511 C 0.97502 0.87591 0.86377 0.0
H512 H 0.0469 0.09837 0.94564 0.0
H513 H 0.13561 0.01088 0.95183 0.0
H514 H 0.17571 0.05069 0.945 0.0
H515 H 0.18525 0.11077 0.94516 0.0
H516 H 0.09635 0.19834 0.94122 0.0
H517 H 0.05653 0.15784 0.93866 0.0
C518 C 0.07502 0.08792 0.94506 0.0
C519 C 0.08835 0.05185 0.94991 0.0
C520 C 0.09781 0.11095 0.94171 0.0
C521 C 0.12474 0.03859 0.94843 0.0
C522 C 0.14766 0.06135 0.94467 0.0
C523 C 0.15718 0.12104 0.94319 0.0
C524 C 0.14372 0.15752 0.94405 0.0
C525 C 0.13446 0.09767 0.94249 0.0
C526 C 0.10737 0.17038 0.9409 0.0
C527 C 0.08457 0.14725 0.93962 0.0
H528 H 0.70264 0.63893 0.28662 0.0
H529 H 0.63713 0.56718 0.31343 0.0
H530 H 0.58632 0.61602 0.31824 0.0
H531 H 0.55963 0.67815 0.31001 0.0
H532 H 0.62424 0.74925 0.27894 0.0
H533 H 0.67635 0.70168 0.28094 0.0
C534 C 0.67734 0.63407 0.29401 0.0
C535 C 0.67358 0.59953 0.29956 0.0
C536 C 0.64806 0.66212 0.29576 0.0
C537 C 0.6406 0.59355 0.30881 0.0
C538 C 0.61156 0.62144 0.31156 0.0
C539 C 0.58518 0.68339 0.30419 0.0
C540 C 0.58804 0.71717 0.29426 0.0
C541 C 0.61484 0.65572 0.30438 0.0
C542 C 0.62131 0.72343 0.28651 0.0
C543 C 0.65112 0.69624 0.2876 0.0
H544 H 0.41512 0.82018 0.59372 0.0
H545 H 0.31296 0.88944 0.58676 0.0
H546 H 0.33978 0.94029 0.59086 0.0
H547 H 0.39237 0.96492 0.58897 0.0
H548 H 0.49482 0.89598 0.5937 0.0
H549 H 0.46768 0.84537 0.5987 0.0
C550 C 0.39866 0.84638 0.59367 0.0
C551 C 0.36212 0.85091 0.58937 0.0
C552 C 0.41431 0.87565 0.59548 0.0
C553 C 0.34119 0.8851 0.58962 0.0
C554 C 0.3565 0.91427 0.59194 0.0
C555 C 0.40883 0.93892 0.59177 0.0
C556 C 0.4456 0.93427 0.59042 0.0
C557 C 0.39309 0.90985 0.59376 0.0
C558 C 0.46645 0.90037 0.59439 0.0
C559 C 0.45094 0.87133 0.59705 0.0
H560 H 0.08611 0.7065 0.79575 0.0
H561 H 0.00871 0.64411 0.77714 0.0
H562 H 0.05245 0.59067 0.78825 0.0
H563 H 0.11375 0.56152 0.79744 0.0
H564 H 0.19144 0.62366 0.81551 0.0
H565 H 0.14627 0.67741 0.81088 0.0
C566 C 0.07871 0.68123 0.79449 0.0
C567 C 0.04438 0.67923 0.78512 0.0
C568 C 0.10402 0.65059 0.80066 0.0
C569 C 0.03504 0.64637 0.78407 0.0
C570 C 0.06005 0.61577 0.79033 0.0
C571 C 0.12076 0.58681 0.80078 0.0
C572 C 0.15596 0.58861 0.80629 0.0
C573 C 0.09479 0.61755 0.79774 0.0
C574 C 0.16454 0.62155 0.81107 0.0
C575 C 0.13877 0.65231 0.80827 0.0
H576 H 0.84998 0.32834 0.55857 0.0
H577 H 0.7695 0.41907 0.58477 0.0
H578 H 0.81345 0.45527 0.58734 0.0
H579 H 0.87319 0.46257 0.57422 0.0
H580 H 0.95254 0.37177 0.54547 0.0
H581 H 0.91057 0.33424 0.55203 0.0
C582 C 0.84207 0.35592 0.5654 0.0
C583 C 0.80644 0.3711 0.57087 0.0
C584 C 0.86724 0.3767 0.56596 0.0
C585 C 0.79674 0.40675 0.58017 0.0
C586 C 0.82183 0.42754 0.58146 0.0
C587 C 0.88144 0.4345 0.56998 0.0
C588 C 0.91575 0.4201 0.5588 0.0
C589 C 0.85694 0.41304 0.57315 0.0
C590 C 0.92612 0.38363 0.5536 0.0
C591 C 0.90215 0.36209 0.55734 0.0
H592 H 0.32629 0.95017 0.2348 0.0
H593 H 0.26514 0.87119 0.24791 0.0
H594 H 0.319 0.82581 0.25139 0.0
H595 H 0.38349 0.80941 0.25481 0.0
H596 H 0.44403 0.88904 0.24187 0.0
H597 H 0.39027 0.93335 0.23435 0.0
C598 C 0.32472 0.92297 0.23808 0.0
C599 C 0.29184 0.91408 0.24139 0.0
C600 C 0.35566 0.8972 0.24044 0.0
C601 C 0.29017 0.87871 0.24528 0.0
C602 C 0.32095 0.85278 0.24749 0.0
C603 C 0.38489 0.83643 0.2502 0.0
C604 C 0.41768 0.84596 0.24922 0.0
C605 C 0.35384 0.86186 0.24581 0.0
C606 C 0.41912 0.881 0.24283 0.0
C607 C 0.3884 0.9064 0.23855 0.0
H608 H 0.3401 0.45873 0.75455 0.0
H609 H 0.26853 0.39181 0.7774 0.0
H610 H 0.31621 0.3399 0.77172 0.0
H611 H 0.3791 0.31417 0.76389 0.0
H612 H 0.44979 0.38199 0.73991 0.0
H613 H 0.40143 0.43287 0.74207 0.0
C614 C 0.33497 0.43275 0.75814 0.0
C615 C 0.30117 0.42895 0.76674 0.0
C616 C 0.36228 0.40323 0.75465 0.0
C617 C 0.29452 0.39523 0.77077 0.0
C618 C 0.32173 0.36561 0.76763 0.0
C619 C 0.38382 0.34004 0.75881 0.0
C620 C 0.41805 0.34428 0.75219 0.0
C621 C 0.35585 0.36936 0.76009 0.0
C622 C 0.42373 0.37794 0.74532 0.0
C623 C 0.39612 0.40715 0.74662 0.0
H624 H 0.22506 0.77955 0.64247 0.0
H625 H 0.15585 0.79218 0.55609 0.0
H626 H 0.1054 0.79519 0.59302 0.0
H627 H 0.08149 0.7902 0.64902 0.0
H628 H 0.15022 0.77552 0.73572 0.0
H629 H 0.20033 0.77773 0.69942 0.0
C630 C 0.19888 0.78341 0.63179 0.0
C631 C 0.19422 0.7854 0.59659 0.0
C632 C 0.16997 0.78458 0.65316 0.0
C633 C 0.16017 0.79027 0.58309 0.0
C634 C 0.1313 0.79201 0.60417 0.0
C635 C 0.10736 0.78777 0.66012 0.0
C636 C 0.11214 0.78244 0.695 0.0
C637 C 0.13599 0.78853 0.63913 0.0
C638 C 0.14582 0.77955 0.70892 0.0
C639 C 0.17451 0.78072 0.68817 0.0
H640 H 0.18836 0.96648 0.41433 0.0
H641 H 0.24357 0.88979 0.34312 0.0
H642 H 0.25559 0.84602 0.3877 0.0
H643 H 0.2556 0.83143 0.44818 0.0
H644 H 0.20101 0.90901 0.51906 0.0
H645 H 0.1835 0.95027 0.47333 0.0
C646 C 0.20259 0.94005 0.4084 0.0
C647 C 0.2153 0.93159 0.37547 0.0
C648 C 0.20986 0.91517 0.43423 0.0
C649 C 0.23346 0.89709 0.36823 0.0
C650 C 0.24055 0.87206 0.39379 0.0
C651 C 0.23948 0.85719 0.45357 0.0
C652 C 0.23004 0.86717 0.48715 0.0
C653 C 0.22969 0.88109 0.42709 0.0
C654 C 0.20896 0.90063 0.49357 0.0
C655 C 0.19893 0.92434 0.4674 0.0
H656 H 0.00609 0.66478 0.66748 0.0
H657 H 0.96465 0.74865 0.59878 0.0
H658 H 0.96366 0.7061 0.55347 0.0
H659 H 0.97901 0.64576 0.53202 0.0
H660 H 0.02242 0.56153 0.59959 0.0
H661 H 0.01776 0.60344 0.64664 0.0
C662 C -0.0036 0.67371 0.64272 0.0
C663 C -0.01428 0.70994 0.63653 0.0
C664 C -0.0036 0.64903 0.61647 0.0
C665 C 0.97329 0.721 0.60425 0.0
C666 C 0.97272 0.69667 0.57825 0.0
C667 C -0.01293 0.63643 0.5571 0.0
C668 C 0.00121 0.60054 0.56215 0.0
C669 C 0.98491 0.66071 0.58388 0.0
C670 C 0.01139 0.58899 0.59492 0.0
C671 C 0.00889 0.61299 0.62184 0.0
H672 H 0.39057 0.74294 0.50957 0.0
H673 H 0.31506 0.71423 0.44067 0.0
H674 H 0.35487 0.71481 0.39361 0.0
H675 H 0.40875 0.72882 0.37109 0.0
H676 H 0.48515 0.75588 0.43971 0.0
H677 H 0.44749 0.75042 0.48768 0.0
C678 C 0.38303 0.7363 0.48435 0.0
C679 C 0.34965 0.72902 0.47871 0.0
C680 C 0.40608 0.73671 0.45721 0.0
C681 C 0.34049 0.72013 0.44585 0.0
C682 C 0.36318 0.7206 0.41879 0.0
C683 C 0.41726 0.73317 0.39659 0.0
C684 C 0.44942 0.74312 0.40184 0.0
C685 C 0.39563 0.72975 0.42405 0.0
C686 C 0.46043 0.74821 0.43501 0.0
C687 C 0.43887 0.74522 0.46245 0.0
H688 H 0.26464 0.02071 0.13422 0.0
H689 H 0.18068 0.07918 0.19611 0.0
H690 H 0.17654 0.13014 0.16014 0.0
H691 H 0.19274 0.15627 0.10812 0.0
H692 H 0.27765 0.09919 0.04677 0.0
H693 H 0.28577 0.04975 0.08572 0.0
C694 C 0.24574 0.04474 0.14006 0.0
C695 C 0.22268 0.04587 0.16756 0.0
C696 C 0.24354 0.07418 0.11928 0.0
C697 C 0.19866 0.07741 0.17504 0.0
C698 C 0.19615 0.10661 0.1544 0.0
C699 C 0.21333 0.13317 0.10353 0.0
C700 C 0.23429 0.13116 0.07444 0.0
C701 C 0.21784 0.10499 0.126 0.0
C702 C 0.26119 0.10134 0.06902 0.0
C703 C 0.26568 0.07299 0.09116 0.0
H704 H 0.76909 0.80088 0.91205 0.0
H705 H 0.82322 0.69641 0.93955 0.0
H706 H 0.86457 0.69543 0.8933 0.0
H707 H 0.88538 0.72403 0.84524 0.0
H708 H 0.83177 0.8286 0.81772 0.0
H709 H 0.78988 0.82952 0.86364 0.0
C710 C 0.79003 0.77796 0.90804 0.0
C711 C 0.7931 0.7488 0.92927 0.0
C712 C 0.81359 0.77743 0.88124 0.0
C713 C 0.82029 0.71924 0.92362 0.0
C714 C 0.8439 0.71859 0.89712 0.0
C715 C 0.86436 0.74692 0.84907 0.0
C716 C 0.86163 0.77615 0.82804 0.0
C717 C 0.84069 0.74745 0.87571 0.0
C718 C 0.83442 0.80572 0.83354 0.0
C719 C 0.81052 0.80632 0.85985 0.0
H720 H 0.24448 0.59618 0.70867 0.0
H721 H 0.30163 0.50434 0.65569 0.0
H722 H 0.31715 0.54111 0.61148 0.0
H723 H 0.3093 0.59846 0.58465 0.0
H724 H 0.25167 0.6907 0.63656 0.0
H725 H 0.24211 0.65482 0.68439 0.0
C726 C 0.26088 0.58428 0.68778 0.0
C727 C 0.27149 0.54745 0.68539 0.0
C728 C 0.26945 0.60565 0.66201 0.0
C729 C 0.29276 0.53253 0.6581 0.0
C730 C 0.30165 0.55356 0.63269 0.0
C731 C 0.2951 0.61085 0.60663 0.0
C732 C 0.28095 0.64719 0.60676 0.0
C733 C 0.2893 0.59002 0.63387 0.0
C734 C 0.26286 0.66278 0.63565 0.0
C735 C 0.25719 0.64222 0.66301 0.0
H736 H 0.29912 0.03793 0.37291 0.0
H737 H 0.35726 0.9342 0.34548 0.0
H738 H 0.39664 0.93498 0.393 0.0
H739 H 0.41204 0.96281 0.44431 0.0
H740 H 0.35656 0.06708 0.47214 0.0
H741 H 0.31845 0.06842 0.42239 0.0
C742 C 0.32064 0.0157 0.37714 0.0
C743 C 0.3249 0.98586 0.35593 0.0
C744 C 0.34331 0.01621 0.40474 0.0
C745 C 0.35309 0.95735 0.36159 0.0
C746 C 0.37563 0.95769 0.38882 0.0
C747 C 0.39159 0.98588 0.43953 0.0
C748 C 0.38652 0.01455 0.46205 0.0
C749 C 0.37045 0.98657 0.41093 0.0
C750 C 0.36061 0.0446 0.45517 0.0
C751 C 0.33891 0.04533 0.42681 0.0
H752 H 0.80913 0.83323 0.05849 0.0
H753 H 0.74384 0.91639 1.00178 0.0
H754 H 0.78411 0.95475 0.014 0.0
H755 H 0.84139 0.96186 0.03378 0.0
H756 H 0.90869 0.87832 0.08814 0.0
H757 H 0.8637 0.84327 0.0846 0.0
C758 C 0.8034 0.85995 0.04936 0.0
C759 C 0.7739 0.87171 0.02874 0.0
C760 C 0.82711 0.88175 0.05588 0.0
C761 C 0.76668 0.90649 0.01727 0.0
C762 C 0.78968 0.92849 0.02423 0.0
C763 C 0.84603 0.93621 0.04537 0.0
C764 C 0.87854 0.92243 0.06062 0.0
C765 C 0.82057 0.91594 0.04242 0.0
C766 C 0.88393 0.88945 0.07605 0.0
C767 C 0.85831 0.86929 0.07381 0.0
H768 H 0.66113 0.16151 0.42833 0.0
H769 H 0.59732 0.26409 0.45054 0.0
H770 H 0.54457 0.24006 0.44908 0.0
H771 H 0.51779 0.18868 0.45013 0.0
H772 H 0.58185 0.08576 0.42991 0.0
H773 H 0.63295 0.11131 0.42136 0.0
C774 C 0.63564 0.17876 0.43218 0.0
C775 C 0.63332 0.21438 0.44021 0.0
C776 C 0.60537 0.16466 0.43199 0.0
C777 C 0.59999 0.23643 0.44476 0.0
C778 C 0.56974 0.22271 0.44402 0.0
C779 C 0.54274 0.17189 0.44315 0.0
C780 C 0.54607 0.13531 0.44135 0.0
C781 C 0.57228 0.18664 0.43901 0.0
C782 C 0.57857 0.114 0.43191 0.0
C783 C 0.60791 0.12856 0.42713 0.0
H784 H 0.79393 0.41158 0.23714 0.0
H785 H 0.86578 0.48109 0.24962 0.0
H786 H 0.91537 0.43238 0.23858 0.0
H787 H 0.9385 0.36937 0.22959 0.0
H788 H 0.8666 0.29972 0.21872 0.0
H789 H 0.81684 0.34932 0.22464 0.0
C790 C 0.8204 0.41617 0.23722 0.0
C791 C 0.82614 0.44985 0.24453 0.0
C792 C 0.84881 0.38802 0.23122 0.0
C793 C 0.86062 0.45537 0.24429 0.0
C794 C 0.88902 0.42753 0.23799 0.0
C795 C 0.91195 0.36509 0.22803 0.0
C796 C 0.90627 0.33087 0.22404 0.0
C797 C 0.88345 0.39364 0.23201 0.0
C798 C 0.87169 0.32577 0.22212 0.0
C799 C 0.84321 0.35411 0.22553 0.0
H800 H 0.08649 0.60788 0.47014 0.0
H801 H 0.18114 0.52745 0.47901 0.0
H802 H 0.21599 0.57236 0.4834 0.0
H803 H 0.21889 0.63417 0.4903 0.0
H804 H 0.12408 0.7146 0.48303 0.0
H805 H 0.09005 0.66985 0.47218 0.0
C806 C 0.1148 0.60009 0.47253 0.0
C807 C 0.13112 0.56431 0.47458 0.0
C808 C 0.13463 0.62604 0.47563 0.0
C809 C 0.16785 0.55477 0.47752 0.0
C810 C 0.18781 0.58045 0.48017 0.0
C811 C 0.19083 0.64199 0.48598 0.0
C812 C 0.17401 0.67768 0.48786 0.0
C813 C 0.17137 0.61613 0.48016 0.0
C814 C 0.13769 0.68733 0.48189 0.0
C815 C 0.11817 0.66174 0.47577 0.0
H816 H 0.70105 0.14206 0.75472 0.0
H817 H 0.64059 0.06194 0.74258 0.0
H818 H 0.58752 0.10353 0.75981 0.0
H819 H 0.55759 0.16332 0.77515 0.0
H820 H 0.61734 0.24415 0.78533 0.0
H821 H 0.6714 0.20145 0.77252 0.0
C822 C 0.6763 0.13367 0.75598 0.0
C823 C 0.67478 0.09906 0.74712 0.0
C824 C 0.64573 0.15779 0.76567 0.0
C825 C 0.6425 0.08854 0.74901 0.0
C826 C 0.61209 0.11226 0.75895 0.0
C827 C 0.5825 0.17148 0.77511 0.0
C828 C 0.58347 0.20681 0.78108 0.0
C829 C 0.61333 0.14703 0.76696 0.0
C830 C 0.61592 0.21706 0.78067 0.0
C831 C 0.64683 0.19272 0.77325 0.0
H832 H 0.73338 0.61035 0.18933 0.0
H833 H 0.81729 0.53038 0.1482 0.0
H834 H 0.82959 0.57135 0.10623 0.0
H835 H 0.8119 0.62714 0.07697 0.0
H836 H 0.72541 0.70597 0.11539 0.0
H837 H 0.71928 0.66853 0.16303 0.0
C838 C 0.7547 0.60208 0.17151 0.0
C839 C 0.77406 0.56724 0.17158 0.0
C840 C 0.76113 0.62555 0.14687 0.0
C841 C 0.80166 0.55692 0.14839 0.0
C842 C 0.80876 0.58034 0.12439 0.0
C843 C 0.79222 0.63651 0.09615 0.0
C844 C 0.76897 0.66916 0.09245 0.0
C845 C 0.78799 0.61436 0.12275 0.0
C846 C 0.74355 0.68083 0.11754 0.0
C847 C 0.73988 0.65935 0.1447 0.0
H848 H 0.90678 0.54092 0.48167 0.0
H849 H 0.98143 0.52299 0.39971 0.0
H850 H 0.93374 0.53874 0.35895 0.0
H851 H 0.87069 0.55215 0.34648 0.0
H852 H 0.79589 0.57135 0.42823 0.0
H853 H 0.84386 0.56113 0.46928 0.0
C854 C 0.91258 0.54079 0.45489 0.0
C855 C 0.94747 0.53034 0.44366 0.0
C856 C 0.88507 0.55005 0.43161 0.0
C857 C 0.95475 0.53084 0.40897 0.0
C858 C 0.92751 0.53972 0.38564 0.0
C859 C 0.86492 0.55458 0.37329 0.0
C860 C 0.82987 0.56205 0.38436 0.0
C861 C 0.89255 0.54858 0.39666 0.0
C862 C 0.82269 0.56561 0.41911 0.0
C863 C 0.85009 0.55953 0.44258 0.0
H864 H 0.14374 0.46016 0.67891 0.0
H865 H 0.15661 0.56049 0.64235 0.0
H866 H 0.12968 0.54977 0.58871 0.0
H867 H 0.10005 0.51322 0.55317 0.0
H868 H 0.0822 0.41545 0.59108 0.0
H869 H 0.1141 0.42338 0.64307 0.0
C870 C 0.14074 0.47959 0.65914 0.0
C871 C 0.15204 0.51109 0.66462 0.0
C872 C 0.12469 0.47351 0.62853 0.0
C873 C 0.14783 0.53615 0.63888 0.0
C874 C 0.13262 0.52998 0.60812 0.0
C875 C 0.10397 0.49329 0.57252 0.0
C876 C 0.08969 0.46343 0.56827 0.0
C877 C 0.12079 0.49887 0.60275 0.0
C878 C 0.09361 0.43834 0.59386 0.0
C879 C 0.11155 0.44302 0.62357 0.0
H880 H 0.60288 0.7347 0.13694 0.0
H881 H 0.56052 0.8455 0.1514 0.0
H882 H 0.58757 0.8579 0.09853 0.0
H883 H 0.62503 0.83721 0.04913 0.0
H884 H 0.6673 0.72627 0.03576 0.0
H885 H 0.63825 0.71399 0.08713 0.0
C886 C 0.59953 0.7616 0.12862 0.0
C887 C 0.57992 0.78914 0.14823 0.0
C888 C 0.61503 0.7685 0.09828 0.0
C889 C 0.57565 0.82381 0.13686 0.0
C890 C 0.59104 0.83091 0.10659 0.0
C891 C 0.62745 0.81034 0.05725 0.0
C892 C 0.64842 0.7827 0.0387 0.0
C893 C 0.61093 0.80346 0.08716 0.0
C894 C 0.65152 0.74803 0.04965 0.0
C895 C 0.63494 0.74097 0.07908 0.0
H896 H 0.62787 0.48646 0.2053 0.0
H897 H 0.70636 0.44722 0.1297 0.0
H898 H 0.66036 0.44336 0.08867 0.0
H899 H 0.59781 0.45584 0.07312 0.0
H900 H 0.51953 0.49397 0.14929 0.0
H901 H 0.5655 0.49322 0.19132 0.0
C902 C 0.63489 0.47674 0.17993 0.0
C903 C 0.6704 0.46753 0.17042 0.0
C904 C 0.60837 0.47451 0.15655 0.0
C905 C 0.67918 0.45451 0.13763 0.0
C906 C 0.6529 0.45244 0.11411 0.0
C907 C 0.59084 0.46359 0.09901 0.0
C908 C 0.55535 0.47525 0.10798 0.0
C909 C 0.61741 0.46308 0.12311 0.0
C910 C 0.54665 0.48486 0.1417 0.0
C911 C 0.57293 0.48462 0.16575 0.0
H912 H 0.41367 0.39694 0.99534 0.0
H913 H 0.37422 0.42278 0.09604 0.0
H914 H 0.34551 0.3724 0.0947 0.0
H915 H 0.32901 0.32332 0.06288 0.0
H916 H 0.37111 0.29781 0.96268 0.0
H917 H 0.40195 0.34566 0.96605 0.0
C918 C 0.39866 0.39159 0.01697 0.0
C919 C 0.39517 0.41371 0.04543 0.0
C920 C 0.38295 0.36265 0.01612 0.0
C921 C 0.37676 0.40608 0.07375 0.0
C922 C 0.36044 0.37739 0.07294 0.0
C923 C 0.34528 0.32801 0.042 0.0
C924 C 0.34734 0.30736 0.0124 0.0
C925 C 0.36298 0.35577 0.04401 0.0
C926 C 0.36874 0.31353 0.98562 0.0
C927 C 0.38634 0.34094 0.98744 0.0
H928 H 0.02347 0.13869 0.26967 0.0
H929 H 0.09674 0.20751 0.26779 0.0
H930 H 0.14503 0.15815 0.27974 0.0
H931 H 0.16689 0.09527 0.28689 0.0
H932 H 0.09448 0.02554 0.28587 0.0
H933 H 0.04526 0.07567 0.27939 0.0
C934 C 0.04996 0.14294 0.27216 0.0
C935 C 0.05651 0.17669 0.26764 0.0
C936 C 0.07772 0.11435 0.27853 0.0
C937 C 0.09099 0.18176 0.27091 0.0
C938 C 0.11863 0.15357 0.2778 0.0
C939 C 0.14032 0.09098 0.28575 0.0
C940 C 0.13439 0.05669 0.28677 0.0
C941 C 0.11235 0.11971 0.28114 0.0
C942 C 0.09978 0.05167 0.28508 0.0
C943 C 0.07164 0.0803 0.28125 0.0
H944 H 0.20121 0.37703 0.98767 0.0
H945 H 0.25258 0.302 0.91311 0.0
H946 H 0.24896 0.34904 0.87207 0.0
H947 H 0.23658 0.41231 0.85935 0.0
H948 H 0.18679 0.48699 0.93502 0.0
H949 H 0.18423 0.43923 0.97342 0.0
C950 C 0.21122 0.37081 0.9623 0.0
C951 C 0.22742 0.33602 0.95363 0.0
C952 C 0.20958 0.39804 0.93905 0.0
C953 C 0.23998 0.32851 0.92053 0.0
C954 C 0.23809 0.35546 0.89708 0.0
C955 C 0.22467 0.41813 0.88405 0.0
C956 C 0.2122 0.45333 0.89435 0.0
C957 C 0.22375 0.39046 0.90634 0.0
C958 C 0.19683 0.46027 0.92645 0.0
C959 C 0.1954 0.43293 0.94851 0.0
H960 H 0.29481 0.19197 0.89716 0.0
H961 H 0.36629 0.19209 0.98061 0.0
H962 H 0.413 0.1973 0.94146 0.0
H963 H 0.43157 0.20839 0.88422 0.0
H964 H 0.36014 0.20834 0.80075 0.0
H965 H 0.31557 0.19614 0.83925 0.0
C966 C 0.32075 0.19253 0.90679 0.0
C967 C 0.3268 0.19232 0.94182 0.0
C968 C 0.34746 0.19586 0.88416 0.0
C969 C 0.36075 0.19259 0.95379 0.0
C970 C 0.38749 0.19572 0.93142 0.0
C971 C 0.4064 0.20529 0.87438 0.0
C972 C 0.39901 0.20979 0.83975 0.0
C973 C 0.38081 0.19847 0.89666 0.0
C974 C 0.36646 0.20521 0.82733 0.0
C975 C 0.34089 0.19833 0.84935 0.0
H976 H 0.44432 0.54137 0.93863 0.0
H977 H 0.36692 0.53886 0.01583 0.0
H978 H 0.3216 0.54189 0.97272 0.0
H979 H 0.305 0.54019 0.91307 0.0
H980 H 0.38252 0.54182 0.83581 0.0
H981 H 0.42665 0.54439 0.87907 0.0
C982 C 0.41746 0.54194 0.9461 0.0
C983 C 0.40916 0.53953 0.98043 0.0
C984 C 0.39157 0.54323 0.92116 0.0
C985 C 0.37414 0.54053 0.98961 0.0
C986 C 0.34819 0.54212 0.96495 0.0
C987 C 0.33147 0.54142 0.90565 0.0
C988 C 0.3405 0.54044 0.87123 0.0
C989 C 0.35678 0.54265 0.93064 0.0
C990 C 0.37485 0.54239 0.8621 0.0
C991 C 0.40015 0.54378 0.88683 0.0
H992 H 0.64887 0.66038 0.96741 0.0
H993 H 0.74007 0.58137 0.99409 0.0
H994 H 0.70387 0.53757 0.99768 0.0
H995 H 0.64523 0.52384 1.00021 0.0
H996 H 0.55413 0.60391 0.97526 0.0
H997 H 0.59151 0.64503 0.9637 0.0
C998 C 0.66094 0.63346 0.97353 0.0
C999 C 0.69695 0.62426 0.98097 0.0
C1000 C 0.63995 0.60865 0.97614 0.0
C1001 C 0.71232 0.58918 0.98841 0.0
C1002 C 0.69162 0.56415 0.99064 0.0
C1003 C 0.63362 0.55008 0.99166 0.0
C1004 C 0.59694 0.56095 0.98913 0.0
C1005 C 0.65522 0.57388 0.98561 0.0
C1006 C 0.58229 0.595 0.97785 0.0
C1007 C 0.60362 0.61858 0.97125 0.0
H1008 H 0.94784 0.87284 0.72247 0.0
H1009 H 0.87817 0.80545 0.69257 0.0
H1010 H 0.83103 0.85664 0.68324 0.0
H1011 H 0.80818 0.91965 0.68876 0.0
H1012 H 0.87652 0.98732 0.72149 0.0
H1013 H 0.92584 0.93678 0.72409 0.0
C1014 C 0.9225 0.86939 0.7134 0.0
C1015 C 0.91638 0.83543 0.70849 0.0
C1016 C 0.89527 0.8989 0.70883 0.0
C1017 C 0.88342 0.83134 0.69681 0.0
C1018 C 0.85645 0.86057 0.6915 0.0
C1019 C 0.83393 0.9235 0.69614 0.0
C1020 C 0.83857 0.95714 0.70529 0.0
C1021 C 0.86185 0.89436 0.69828 0.0
C1022 C 0.87219 0.96165 0.71448 0.0
C1023 C 0.90037 0.93276 0.71608 0.0
H1024 H 0.46972 0.24135 0.61867 0.0
H1025 H 0.4983 0.1748 0.70502 0.0
H1026 H 0.49101 0.12378 0.67145 0.0
H1027 H 0.47911 0.09756 0.61679 0.0
H1028 H 0.45167 0.16437 0.5304 0.0
H1029 H 0.4558 0.21562 0.56483 0.0
C1030 C 0.47415 0.21575 0.63032 0.0
C1031 C 0.48464 0.21206 0.66443 0.0
C1032 C 0.4702 0.18644 0.61077 0.0
C1033 C 0.49021 0.17855 0.6789 0.0
C1034 C 0.4861 0.1493 0.65966 0.0
C1035 C 0.4737 0.12335 0.6055 0.0
C1036 C 0.46512 0.1269 0.57087 0.0
C1037 C 0.47646 0.15285 0.62545 0.0
C1038 C 0.45836 0.16065 0.55685 0.0
C1039 C 0.46077 0.19006 0.57655 0.0
H1040 H 0.52875 0.28697 0.92438 0.0
H1041 H 0.47787 0.36296 0.85189 0.0
H1042 H 0.47513 0.40999 0.89381 0.0
H1043 H 0.48326 0.42896 0.95253 0.0
H1044 H 0.53353 0.3522 0.02469 0.0
H1045 H 0.5406 0.30635 0.98143 0.0
C1046 C 0.51735 0.31384 0.91757 0.0
C1047 C 0.50334 0.32126 0.88502 0.0
C1048 C 0.51562 0.34075 0.94186 0.0
C1049 C 0.48884 0.35637 0.87672 0.0
C1050 C 0.48716 0.38333 0.90075 0.0
C1051 C 0.4963 0.40232 0.95864 0.0
C1052 C 0.50774 0.39411 0.99194 0.0
C1053 C 0.49994 0.37577 0.93361 0.0
C1054 C 0.52435 0.35934 0.99938 0.0
C1055 C 0.52834 0.333 0.97464 0.0
H1056 H 0.54284 0.84344 0.40765 0.0
H1057 H 0.4734 0.89275 0.32894 0.0
H1058 H 0.46208 0.94819 0.36069 0.0
H1059 H 0.46999 0.98208 0.41215 0.0
H1060 H 0.53643 0.93108 0.49218 0.0
H1061 H 0.55093 0.8771 0.45857 0.0
C1062 C 0.52563 0.86642 0.39717 0.0
C1063 C 0.50922 0.86394 0.36583 0.0
C1064 C 0.51854 0.89797 0.41594 0.0
C1065 C 0.48651 0.89392 0.35295 0.0
C1066 C 0.47995 0.92565 0.37113 0.0
C1067 C 0.48787 0.95922 0.42206 0.0
C1068 C 0.50214 0.96063 0.45461 0.0
C1069 C 0.49552 0.9279 0.40285 0.0
C1070 C 0.52495 0.93065 0.46728 0.0
C1071 C 0.53332 0.89977 0.44805 0.0
H1072 H 0.44674 0.66344 0.068 0.0
H1073 H 0.50503 0.58079 0.13005 0.0
H1074 H 0.50838 0.62329 0.17509 0.0
H1075 H 0.49945 0.68493 0.19478 0.0
H1076 H 0.44084 0.76707 0.13224 0.0
H1077 H 0.43278 0.72382 0.08987 0.0
C1078 C 0.45981 0.65462 0.09153 0.0
C1079 C 0.47589 0.61901 0.09541 0.0
C1080 C 0.46183 0.67921 0.11729 0.0
C1081 C 0.49244 0.60804 0.12626 0.0
C1082 C 0.49453 0.63239 0.15203 0.0
C1083 C 0.48447 0.69331 0.17212 0.0
C1084 C 0.47116 0.72933 0.16665 0.0
C1085 C 0.48002 0.6682 0.14754 0.0
C1086 C 0.45168 0.73962 0.13713 0.0
C1087 C 0.44707 0.71488 0.11274 0.0
loop_
_geom_bond_atom_site_label_1
_geom_bond_atom_site_label_2
_geom_bond_distance
_geom_bond_site_symmetry_2
_ccdc_geom_bond_type
Zn0 O6 1.969 1_554 S
Zn0 O7 1.965 . S
Zn0 O11 2.024 1_455 S
Zn0 O16 1.969 1_454 S
Zn1 O8 1.969 1_656 S
Zn1 O14 1.969 1_556 S
Zn1 O15 1.965 1_565 S
Zn1 O17 2.024 1_655 S
C2 O3 1.229 . S
C2 O11 1.058 . S
O3 C2 1.229 . S
C4 O5 1.229 . S
C4 O17 1.058 . S
O5 C4 1.229 . S
O6 Zn0 1.969 1_556 S
O6 C9 1.267 . S
O7 Zn0 1.965 . S
O7 C18 1.260 1_545 S
O8 Zn1 1.969 1_454 S
O8 C18 1.258 . S
C9 O6 1.267 . S
C9 O10 1.228 1_556 S
O10 C9 1.228 1_554 S
O11 Zn0 2.024 1_655 S
O11 C2 1.058 . S
C12 O13 1.228 1_554 S
C12 O14 1.267 . S
O13 C12 1.228 1_556 S
O14 Zn1 1.969 1_554 S
O14 C12 1.267 . S
O15 Zn1 1.965 1_545 S
O15 C19 1.260 . S
O16 Zn0 1.969 1_656 S
O16 C19 1.258 . S
O17 Zn1 2.024 1_455 S
O17 C4 1.058 . S
C18 O7 1.260 1_565 S
C18 O8 1.258 . S
C19 O15 1.260 . S
C19 O16 1.258 . S
Zn20 O26 1.969 1_455 S
Zn20 O27 1.965 1_455 S
Zn20 O31 2.024 . S
Zn20 O36 1.969 . S
Zn21 O28 1.969 1_455 S
Zn21 O34 1.969 . S
Zn21 O35 1.965 . S
Zn21 O37 2.024 . S
C22 O23 1.229 . S
C22 O31 1.058 . S
O23 C22 1.229 . S
C24 O25 1.229 . S
C24 O37 1.058 . S
O25 C24 1.229 . S
O26 Zn20 1.969 1_655 S
O26 C29 1.267 . S
O27 Zn20 1.965 1_655 S
O27 C38 1.260 . S
O28 Zn21 1.969 1_655 S
O28 C38 1.258 . S
C29 O26 1.267 . S
C29 O30 1.228 . S
O30 C29 1.228 . S
O31 Zn20 2.024 . S
O31 C22 1.058 . S
C32 O33 1.228 . S
C32 O34 1.267 . S
O33 C32 1.228 . S
O34 Zn21 1.969 . S
O34 C32 1.267 . S
O35 Zn21 1.965 . S
O35 C39 1.260 . S
O36 Zn20 1.969 . S
O36 C39 1.258 . S
O37 Zn21 2.024 . S
O37 C24 1.058 . S
C38 O27 1.260 . S
C38 O28 1.258 . S
C39 O35 1.260 . S
C39 O36 1.258 . S
Zn40 O46 1.969 . S
Zn40 O47 1.965 . S
Zn40 O51 2.024 . S
Zn40 O56 1.969 . S
Zn41 O48 1.969 . S
Zn41 O54 1.969 . S
Zn41 O55 1.965 . S
Zn41 O57 2.024 . S
C42 O43 1.229 . S
C42 O51 1.058 . S
O43 C42 1.229 . S
C44 O45 1.229 . S
C44 O57 1.058 . S
O45 C44 1.229 . S
O46 Zn40 1.969 . S
O46 C49 1.267 . S
O47 Zn40 1.965 . S
O47 C58 1.260 . S
O48 Zn41 1.969 . S
O48 C58 1.258 . S
C49 O46 1.267 . S
C49 O50 1.228 . S
O50 C49 1.228 . S
O51 Zn40 2.024 . S
O51 C42 1.058 . S
C52 O53 1.228 . S
C52 O54 1.267 . S
O53 C52 1.228 . S
O54 Zn41 1.969 . S
O54 C52 1.267 . S
O55 Zn41 1.965 . S
O55 C59 1.260 . S
O56 Zn40 1.969 . S
O56 C59 1.258 . S
O57 Zn41 2.024 . S
O57 C44 1.058 . S
C58 O47 1.260 . S
C58 O48 1.258 . S
C59 O55 1.260 . S
C59 O56 1.258 . S
Zn60 O66 1.969 . S
Zn60 O67 1.965 . S
Zn60 O71 2.024 1_545 S
Zn60 O76 1.969 . S
Zn61 O68 1.969 . S
Zn61 O74 1.969 . S
Zn61 O75 1.965 . S
Zn61 O77 2.024 . S
C62 O63 1.229 1_565 S
C62 O71 1.058 . S
O63 C62 1.229 1_545 S
C64 O65 1.229 . S
C64 O77 1.058 . S
O65 C64 1.229 . S
O66 Zn60 1.969 . S
O66 C69 1.267 . S
O67 Zn60 1.965 . S
O67 C78 1.260 1_545 S
O68 Zn61 1.969 . S
O68 C78 1.258 1_545 S
C69 O66 1.267 . S
C69 O70 1.222 1_545 S
O70 C69 1.222 1_565 S
O71 Zn60 2.024 1_565 S
O71 C62 1.058 . S
C72 O73 1.228 . S
C72 O74 1.267 . S
O73 C72 1.228 . S
O74 Zn61 1.969 . S
O74 C72 1.267 . S
O75 Zn61 1.965 . S
O75 C79 1.260 . S
O76 Zn60 1.969 . S
O76 C79 1.258 . S
O77 Zn61 2.024 . S
O77 C64 1.058 . S
C78 O67 1.260 1_565 S
C78 O68 1.258 1_565 S
C79 O75 1.260 . S
C79 O76 1.258 . S
Zn80 O86 1.969 . S
Zn80 O87 1.965 . S
Zn80 O91 2.024 . S
Zn80 O96 1.969 . S
Zn81 O88 1.969 . S
Zn81 O94 1.969 . S
Zn81 O95 1.965 . S
Zn81 O97 2.024 . S
C82 O83 1.229 . S
C82 O91 1.058 . S
O83 C82 1.229 . S
C84 O85 1.229 . S
C84 O97 1.058 . S
O85 C84 1.229 . S
O86 Zn80 1.969 . S
O86 C89 1.267 . S
O87 Zn80 1.965 . S
O87 C98 1.260 . S
O88 Zn81 1.969 . S
O88 C98 1.258 . S
C89 O86 1.267 . S
C89 O90 1.228 . S
O90 C89 1.228 . S
O91 Zn80 2.024 . S
O91 C82 1.058 . S
C92 O93 1.228 . S
C92 O94 1.267 . S
O93 C92 1.228 . S
O94 Zn81 1.969 . S
O94 C92 1.267 . S
O95 Zn81 1.965 . S
O95 C99 1.260 . S
O96 Zn80 1.969 . S
O96 C99 1.258 . S
O97 Zn81 2.024 . S
O97 C84 1.058 . S
C98 O87 1.260 . S
C98 O88 1.258 . S
C99 O95 1.260 . S
C99 O96 1.258 . S
Zn100 O106 1.969 . S
Zn100 O107 1.965 . S
Zn100 O111 2.024 . S
Zn100 O116 1.969 . S
Zn101 O108 1.969 . S
Zn101 O114 1.969 . S
Zn101 O115 1.965 . S
Zn101 O117 2.024 . S
C102 O103 1.229 . S
C102 O111 1.058 . S
O103 C102 1.229 . S
C104 O105 1.229 . S
C104 O117 1.058 . S
O105 C104 1.229 . S
O106 Zn100 1.969 . S
O106 C109 1.267 . S
O107 Zn100 1.965 . S
O107 C118 1.260 . S
O108 Zn101 1.969 . S
O108 C118 1.258 . S
C109 O106 1.267 . S
C109 O110 1.228 . S
O110 C109 1.228 . S
O111 Zn100 2.024 . S
O111 C102 1.058 . S
C112 O113 1.228 . S
C112 O114 1.267 . S
O113 C112 1.228 . S
O114 Zn101 1.969 . S
O114 C112 1.267 . S
O115 Zn101 1.965 . S
O115 C119 1.260 . S
O116 Zn100 1.969 . S
O116 C119 1.258 . S
O117 Zn101 2.024 . S
O117 C104 1.058 . S
C118 O107 1.260 . S
C118 O108 1.258 . S
C119 O115 1.260 . S
C119 O116 1.258 . S
Zn120 O126 1.969 . S
Zn120 O127 1.965 . S
Zn120 O131 2.024 . S
Zn120 O136 1.969 . S
Zn121 O128 1.969 . S
Zn121 O134 1.969 . S
Zn121 O135 1.965 . S
Zn121 O137 2.024 . S
C122 O123 1.229 . S
C122 O131 1.058 . S
O123 C122 1.229 . S
C124 O125 1.229 . S
C124 O137 1.058 . S
O125 C124 1.229 . S
O126 Zn120 1.969 . S
O126 C129 1.267 . S
O127 Zn120 1.965 . S
O127 C138 1.260 . S
O128 Zn121 1.969 . S
O128 C138 1.258 . S
C129 O126 1.267 . S
C129 O130 1.228 . S
O130 C129 1.228 . S
O131 Zn120 2.024 . S
O131 C122 1.058 . S
C132 O133 1.228 . S
C132 O134 1.267 . S
O133 C132 1.228 . S
O134 Zn121 1.969 . S
O134 C132 1.267 . S
O135 Zn121 1.965 . S
O135 C139 1.260 . S
O136 Zn120 1.969 . S
O136 C139 1.258 . S
O137 Zn121 2.024 . S
O137 C124 1.058 . S
C138 O127 1.260 . S
C138 O128 1.258 . S
C139 O135 1.260 . S
C139 O136 1.258 . S
Zn140 O146 1.969 . S
Zn140 O147 1.965 . S
Zn140 O151 2.024 . S
Zn140 O156 1.969 1_455 S
Zn141 O148 1.969 . S
Zn141 O154 1.969 1_455 S
Zn141 O155 1.965 1_455 S
Zn141 O157 2.024 . S
C142 O143 1.229 . S
C142 O151 1.058 1_655 S
O143 C142 1.229 . S
C144 O145 1.229 . S
C144 O157 1.058 . S
O145 C144 1.229 . S
O146 Zn140 1.969 . S
O146 C149 1.267 . S
O147 Zn140 1.965 . S
O147 C158 1.260 . S
O148 Zn141 1.969 . S
O148 C158 1.258 . S
C149 O146 1.267 . S
C149 O150 1.228 . S
O150 C149 1.228 . S
O151 Zn140 2.024 . S
O151 C142 1.058 1_455 S
C152 O153 1.228 . S
C152 O154 1.267 . S
O153 C152 1.228 . S
O154 Zn141 1.969 1_655 S
O154 C152 1.267 . S
O155 Zn141 1.965 1_655 S
O155 C159 1.260 . S
O156 Zn140 1.969 1_655 S
O156 C159 1.258 . S
O157 Zn141 2.024 . S
O157 C144 1.058 . S
C158 O147 1.260 . S
C158 O148 1.258 . S
C159 O155 1.260 . S
C159 O156 1.258 . S
Zn160 O166 1.969 1_554 S
Zn160 O167 1.965 . S
Zn160 O171 2.024 . S
Zn160 O176 1.969 1_554 S
Zn161 O168 1.969 1_556 S
Zn161 O174 1.969 1_556 S
Zn161 O175 1.965 . S
Zn161 O177 2.024 . S
C162 O163 1.229 . S
C162 O171 1.058 . S
O163 C162 1.229 . S
C164 O165 1.229 . S
C164 O177 1.058 . S
O165 C164 1.229 . S
O166 Zn160 1.969 1_556 S
O166 C169 1.267 . S
O167 Zn160 1.965 . S
O167 C178 1.260 . S
O168 Zn161 1.969 1_554 S
O168 C178 1.258 . S
C169 O166 1.267 . S
C169 O170 1.228 1_556 S
O170 C169 1.228 1_554 S
O171 Zn160 2.024 . S
O171 C162 1.058 . S
C172 O173 1.228 1_554 S
C172 O174 1.267 . S
O173 C172 1.228 1_556 S
O174 Zn161 1.969 1_554 S
O174 C172 1.267 . S
O175 Zn161 1.965 . S
O175 C179 1.260 . S
O176 Zn160 1.969 1_556 S
O176 C179 1.258 . S
O177 Zn161 2.024 . S
O177 C164 1.058 . S
C178 O167 1.260 . S
C178 O168 1.258 . S
C179 O175 1.260 . S
C179 O176 1.258 . S
Zn180 O186 1.969 1_565 S
Zn180 O187 1.965 . S
Zn180 O191 2.024 . S
Zn180 O196 1.969 1_565 S
Zn181 O188 1.969 1_545 S
Zn181 O194 1.969 1_545 S
Zn181 O195 1.965 . S
Zn181 O197 2.024 . S
C182 O183 1.229 . S
C182 O191 1.058 . S
O183 C182 1.229 . S
C184 O185 1.229 . S
C184 O197 1.058 . S
O185 C184 1.229 . S
O186 Zn180 1.969 1_545 S
O186 C189 1.278 . S
O187 Zn180 1.965 . S
O187 C198 1.260 . S
O188 Zn181 1.969 1_565 S
O188 C198 1.258 . S
C189 O186 1.278 . S
C189 O190 1.206 1_545 S
O190 C189 1.206 1_565 S
O191 Zn180 2.024 . S
O191 C182 1.058 . S
C192 O193 1.230 1_565 S
C192 O194 1.267 . S
O193 C192 1.230 1_545 S
O194 Zn181 1.969 1_565 S
O194 C192 1.267 . S
O195 Zn181 1.965 . S
O195 C199 1.260 . S
O196 Zn180 1.969 1_545 S
O196 C199 1.258 . S
O197 Zn181 2.024 . S
O197 C184 1.058 . S
C198 O187 1.260 . S
C198 O188 1.258 . S
C199 O195 1.260 . S
C199 O196 1.258 . S
Zn200 O206 1.969 . S
Zn200 O207 1.965 . S
Zn200 O211 2.024 . S
Zn200 O216 1.969 . S
Zn201 O208 1.969 . S
Zn201 O214 1.969 . S
Zn201 O215 1.965 . S
Zn201 O217 2.024 . S
C202 O203 1.229 . S
C202 O211 1.058 . S
O203 C202 1.229 . S
C204 O205 1.229 . S
C204 O217 1.058 . S
O205 C204 1.229 . S
O206 Zn200 1.969 . S
O206 C209 1.267 . S
O207 Zn200 1.965 . S
O207 C218 1.260 . S
O208 Zn201 1.969 . S
O208 C218 1.258 . S
C209 O206 1.267 . S
C209 O210 1.228 . S
O210 C209 1.228 . S
O211 Zn200 2.024 . S
O211 C202 1.058 . S
C212 O213 1.228 . S
C212 O214 1.267 . S
O213 C212 1.228 . S
O214 Zn201 1.969 . S
O214 C212 1.267 . S
O215 Zn201 1.965 . S
O215 C219 1.260 . S
O216 Zn200 1.969 . S
O216 C219 1.258 . S
O217 Zn201 2.024 . S
O217 C204 1.058 . S
C218 O207 1.260 . S
C218 O208 1.258 . S
C219 O215 1.260 . S
C219 O216 1.258 . S
Zn220 O226 1.969 . S
Zn220 O227 1.965 . S
Zn220 O231 2.024 1_655 S
Zn220 O236 1.969 1_655 S
Zn221 O228 1.969 1_455 S
Zn221 O234 1.969 . S
Zn221 O235 1.965 . S
Zn221 O237 2.024 1_455 S
C222 O223 1.229 . S
C222 O231 1.058 . S
O223 C222 1.229 . S
C224 O225 1.229 . S
C224 O237 1.058 . S
O225 C224 1.229 . S
O226 Zn220 1.969 . S
O226 C229 1.267 . S
O227 Zn220 1.965 . S
O227 C238 1.260 . S
O228 Zn221 1.969 1_655 S
O228 C238 1.258 . S
C229 O226 1.267 . S
C229 O230 1.228 . S
O230 C229 1.228 . S
O231 Zn220 2.024 1_455 S
O231 C222 1.058 . S
C232 O233 1.228 . S
C232 O234 1.267 . S
O233 C232 1.228 . S
O234 Zn221 1.969 . S
O234 C232 1.267 . S
O235 Zn221 1.965 . S
O235 C239 1.260 . S
O236 Zn220 1.969 1_455 S
O236 C239 1.258 . S
O237 Zn221 2.024 1_655 S
O237 C224 1.058 . S
C238 O227 1.260 . S
C238 O228 1.258 . S
C239 O235 1.260 . S
C239 O236 1.258 . S
Zn240 O246 1.969 . S
Zn240 O247 1.965 . S
Zn240 O251 2.024 . S
Zn240 O256 1.969 . S
Zn241 O248 1.969 . S
Zn241 O254 1.969 . S
Zn241 O255 1.965 . S
Zn241 O257 2.024 . S
C242 O243 1.229 . S
C242 O251 1.058 . S
O243 C242 1.229 . S
C244 O245 1.229 . S
C244 O257 1.058 . S
O245 C244 1.229 . S
O246 Zn240 1.969 . S
O246 C249 1.267 . S
O247 Zn240 1.965 . S
O247 C258 1.260 . S
O248 Zn241 1.969 . S
O248 C258 1.258 . S
C249 O246 1.267 . S
C249 O250 1.228 . S
O250 C249 1.228 . S
O251 Zn240 2.024 . S
O251 C242 1.058 . S
C252 O253 1.228 . S
C252 O254 1.267 . S
O253 C252 1.228 . S
O254 Zn241 1.969 . S
O254 C252 1.267 . S
O255 Zn241 1.965 . S
O255 C259 1.260 . S
O256 Zn240 1.969 . S
O256 C259 1.258 . S
O257 Zn241 2.024 . S
O257 C244 1.058 . S
C258 O247 1.260 . S
C258 O248 1.258 . S
C259 O255 1.260 . S
C259 O256 1.258 . S
Zn260 O266 1.969 1_554 S
Zn260 O267 1.965 . S
Zn260 O271 2.024 . S
Zn260 O276 1.969 1_554 S
Zn261 O268 1.969 . S
Zn261 O274 1.969 . S
Zn261 O275 1.965 1_554 S
Zn261 O277 2.024 1_554 S
C262 O263 1.229 . S
C262 O271 1.058 . S
O263 C262 1.229 . S
C264 O265 1.229 . S
C264 O277 1.058 . S
O265 C264 1.229 . S
O266 Zn260 1.969 1_556 S
O266 C269 1.267 1_556 S
O267 Zn260 1.965 . S
O267 C278 1.260 . S
O268 Zn261 1.969 . S
O268 C278 1.258 . S
C269 O266 1.267 1_554 S
C269 O270 1.228 . S
O270 C269 1.228 . S
O271 Zn260 2.024 . S
O271 C262 1.058 . S
C272 O273 1.228 1_554 S
C272 O274 1.267 . S
O273 C272 1.228 1_556 S
O274 Zn261 1.969 . S
O274 C272 1.267 . S
O275 Zn261 1.965 1_556 S
O275 C279 1.260 . S
O276 Zn260 1.969 1_556 S
O276 C279 1.258 . S
O277 Zn261 2.024 1_556 S
O277 C264 1.058 . S
C278 O267 1.260 . S
C278 O268 1.258 . S
C279 O275 1.260 . S
C279 O276 1.258 . S
Zn280 O286 1.969 1_545 S
Zn280 O287 1.965 1_545 S
Zn280 O291 2.024 . S
Zn280 O296 1.969 . S
Zn281 O288 1.969 1_545 S
Zn281 O294 1.969 . S
Zn281 O295 1.965 . S
Zn281 O297 2.024 . S
C282 O283 1.229 . S
C282 O291 1.058 . S
O283 C282 1.229 . S
C284 O285 1.229 . S
C284 O297 1.058 . S
O285 C284 1.229 . S
O286 Zn280 1.969 1_565 S
O286 C289 1.267 . S
O287 Zn280 1.965 1_565 S
O287 C298 1.260 . S
O288 Zn281 1.969 1_565 S
O288 C298 1.258 . S
C289 O286 1.267 . S
C289 O290 1.228 . S
O290 C289 1.228 . S
O291 Zn280 2.024 . S
O291 C282 1.058 . S
C292 O293 1.228 . S
C292 O294 1.267 . S
O293 C292 1.228 . S
O294 Zn281 1.969 . S
O294 C292 1.267 . S
O295 Zn281 1.965 . S
O295 C299 1.260 . S
O296 Zn280 1.969 . S
O296 C299 1.258 . S
O297 Zn281 2.024 . S
O297 C284 1.058 . S
C298 O287 1.260 . S
C298 O288 1.258 . S
C299 O295 1.260 . S
C299 O296 1.258 . S
Zn300 O306 1.969 1_554 S
Zn300 O307 1.965 . S
Zn300 O311 2.024 . S
Zn300 O316 1.969 1_554 S
Zn301 O308 1.969 . S
Zn301 O314 1.969 . S
Zn301 O315 1.965 1_554 S
Zn301 O317 2.024 1_554 S
C302 O303 1.229 . S
C302 O311 1.058 . S
O303 C302 1.229 . S
C304 O305 1.229 . S
C304 O317 1.058 . S
O305 C304 1.229 . S
O306 Zn300 1.969 1_556 S
O306 C309 1.267 1_556 S
O307 Zn300 1.965 . S
O307 C318 1.260 . S
O308 Zn301 1.969 . S
O308 C318 1.258 . S
C309 O306 1.267 1_554 S
C309 O310 1.228 . S
O310 C309 1.228 . S
O311 Zn300 2.024 . S
O311 C302 1.058 . S
C312 O313 1.228 1_554 S
C312 O314 1.267 . S
O313 C312 1.228 1_556 S
O314 Zn301 1.969 . S
O314 C312 1.267 . S
O315 Zn301 1.965 1_556 S
O315 C319 1.260 . S
O316 Zn300 1.969 1_556 S
O316 C319 1.258 . S
O317 Zn301 2.024 1_556 S
O317 C304 1.058 . S
C318 O307 1.260 . S
C318 O308 1.258 . S
C319 O315 1.260 . S
C319 O316 1.258 . S
H320 C326 0.930 . S
H321 C329 0.930 . S
H322 C330 0.930 . S
H323 C331 0.930 . S
H324 C334 0.930 . S
H325 C335 0.930 . S
C326 H320 0.930 . S
C326 C327 1.355 . S
C326 C328 1.415 . S
C327 C326 1.355 . S
C327 C329 1.419 1_655 S
C328 C326 1.415 . S
C328 C333 1.425 1_655 S
C328 C335 1.409 . S
C329 H321 0.930 . S
C329 C327 1.419 1_455 S
C329 C330 1.362 . S
C330 H322 0.930 . S
C330 C329 1.362 . S
C330 C333 1.409 . S
C331 H323 0.930 . S
C331 C332 1.355 1_455 S
C331 C333 1.415 . S
C332 C331 1.355 1_655 S
C332 C334 1.419 . S
C333 C328 1.425 1_455 S
C333 C330 1.409 . S
C333 C331 1.415 . S
C334 H324 0.930 . S
C334 C332 1.419 . S
C334 C335 1.362 . S
C335 H325 0.930 . S
C335 C328 1.409 . S
C335 C334 1.362 . S
H336 C342 0.930 . S
H337 C345 0.930 . S
H338 C346 0.930 . S
H339 C347 0.930 . S
H340 C350 0.930 . S
H341 C351 0.930 . S
C342 H336 0.930 . S
C342 C343 1.355 . S
C342 C344 1.415 . S
C343 C342 1.355 . S
C343 C345 1.419 . S
C344 C342 1.415 . S
C344 C349 1.425 . S
C344 C351 1.409 . S
C345 H337 0.930 . S
C345 C343 1.419 . S
C345 C346 1.362 . S
C346 H338 0.930 . S
C346 C345 1.362 . S
C346 C349 1.409 . S
C347 H339 0.930 . S
C347 C348 1.355 . S
C347 C349 1.415 . S
C348 C347 1.355 . S
C348 C350 1.419 . S
C349 C344 1.425 . S
C349 C346 1.409 . S
C349 C347 1.415 . S
C350 H340 0.930 . S
C350 C348 1.419 . S
C350 C351 1.362 . S
C351 H341 0.930 . S
C351 C344 1.409 . S
C351 C350 1.362 . S
H352 C358 0.930 . S
H353 C361 0.930 . S
H354 C362 0.930 . S
H355 C363 0.930 . S
H356 C366 0.930 . S
H357 C367 0.930 . S
C358 H352 0.930 . S
C358 C359 1.355 . S
C358 C360 1.415 . S
C359 C358 1.355 . S
C359 C361 1.419 . S
C360 C358 1.415 . S
C360 C365 1.425 . S
C360 C367 1.409 . S
C361 H353 0.930 . S
C361 C359 1.419 . S
C361 C362 1.362 . S
C362 H354 0.930 . S
C362 C361 1.362 . S
C362 C365 1.409 . S
C363 H355 0.930 . S
C363 C364 1.355 . S
C363 C365 1.415 . S
C364 C363 1.355 . S
C364 C366 1.419 . S
C365 C360 1.425 . S
C365 C362 1.409 . S
C365 C363 1.415 . S
C366 H356 0.930 . S
C366 C364 1.419 . S
C366 C367 1.362 . S
C367 H357 0.930 . S
C367 C360 1.409 . S
C367 C366 1.362 . S
H368 C374 0.930 . S
H369 C377 0.930 . S
H370 C378 0.944 . S
H371 C379 0.930 . S
H372 C382 0.930 . S
H373 C383 0.930 . S
C374 H368 0.930 . S
C374 C375 1.355 . S
C374 C376 1.415 . S
C375 C374 1.355 . S
C375 C377 1.419 . S
C376 C374 1.415 . S
C376 C381 1.425 . S
C376 C383 1.409 . S
C377 H369 0.930 . S
C377 C375 1.419 . S
C377 C378 1.362 . S
C378 H370 0.944 . S
C378 C377 1.362 . S
C378 C381 1.409 . S
C379 H371 0.930 . S
C379 C380 1.355 . S
C379 C381 1.415 . S
C380 C379 1.355 . S
C380 C382 1.419 . S
C381 C376 1.425 . S
C381 C378 1.409 . S
C381 C379 1.415 . S
C382 H372 0.930 . S
C382 C380 1.419 . S
C382 C383 1.362 . S
C383 H373 0.930 . S
C383 C376 1.409 . S
C383 C382 1.362 . S
H384 C390 0.930 . S
H385 C393 0.930 . S
H386 C394 0.930 . S
H387 C395 0.930 . S
H388 C398 0.933 . S
H389 C399 0.930 . S
C390 H384 0.930 . S
C390 C391 1.355 . S
C390 C392 1.415 . S
C391 C390 1.355 . S
C391 C393 1.419 . S
C392 C390 1.415 . S
C392 C397 1.425 . S
C392 C399 1.409 . S
C393 H385 0.930 . S
C393 C391 1.419 . S
C393 C394 1.362 . S
C394 H386 0.930 . S
C394 C393 1.362 . S
C394 C397 1.409 . S
C395 H387 0.930 . S
C395 C396 1.355 . S
C395 C397 1.415 . S
C396 C395 1.355 . S
C396 C398 1.419 . S
C397 C392 1.425 . S
C397 C394 1.409 . S
C397 C395 1.415 . S
C398 H388 0.933 . S
C398 C396 1.419 . S
C398 C399 1.362 . S
C399 H389 0.930 . S
C399 C392 1.409 . S
C399 C398 1.362 . S
H400 C406 0.930 . S
H401 C409 0.930 . S
H402 C410 0.930 . S
H403 C411 0.930 . S
H404 C414 0.930 . S
H405 C415 0.930 . S
C406 H400 0.930 . S
C406 C407 1.355 . S
C406 C408 1.415 . S
C407 C406 1.355 . S
C407 C409 1.419 . S
C408 C406 1.415 . S
C408 C413 1.425 . S
C408 C415 1.409 . S
C409 H401 0.930 . S
C409 C407 1.419 . S
C409 C410 1.362 . S
C410 H402 0.930 . S
C410 C409 1.362 . S
C410 C413 1.409 . S
C411 H403 0.930 . S
C411 C412 1.355 . S
C411 C413 1.415 . S
C412 C411 1.355 . S
C412 C414 1.419 . S
C413 C408 1.425 . S
C413 C410 1.409 . S
C413 C411 1.415 . S
C414 H404 0.930 . S
C414 C412 1.419 . S
C414 C415 1.362 . S
C415 H405 0.930 . S
C415 C408 1.409 . S
C415 C414 1.362 . S
H416 C422 0.930 . S
H417 C425 0.930 . S
H418 C426 0.930 . S
H419 C427 0.930 . S
H420 C430 0.930 . S
H421 C431 0.930 . S
C422 H416 0.930 . S
C422 C423 1.355 . S
C422 C424 1.415 . S
C423 C422 1.355 . S
C423 C425 1.419 . S
C424 C422 1.415 . S
C424 C429 1.425 . S
C424 C431 1.409 . S
C425 H417 0.930 . S
C425 C423 1.419 . S
C425 C426 1.362 . S
C426 H418 0.930 . S
C426 C425 1.362 . S
C426 C429 1.409 . S
C427 H419 0.930 . S
C427 C428 1.355 . S
C427 C429 1.415 . S
C428 C427 1.355 . S
C428 C430 1.419 . S
C429 C424 1.425 . S
C429 C426 1.409 . S
C429 C427 1.415 . S
C430 H420 0.930 . S
C430 C428 1.419 . S
C430 C431 1.362 . S
C431 H421 0.930 . S
C431 C424 1.409 . S
C431 C430 1.362 . S
H432 C438 0.930 . S
H433 C441 0.930 . S
H434 C442 0.930 . S
H435 C443 0.930 . S
H436 C446 0.930 . S
H437 C447 0.930 . S
C438 H432 0.930 . S
C438 C439 1.355 . S
C438 C440 1.415 . S
C439 C438 1.355 . S
C439 C441 1.419 . S
C440 C438 1.415 . S
C440 C445 1.425 . S
C440 C447 1.409 . S
C441 H433 0.930 . S
C441 C439 1.419 . S
C441 C442 1.362 . S
C442 H434 0.930 . S
C442 C441 1.362 . S
C442 C445 1.409 . S
C443 H435 0.930 . S
C443 C444 1.355 . S
C443 C445 1.415 . S
C444 C443 1.355 . S
C444 C446 1.419 . S
C445 C440 1.425 . S
C445 C442 1.409 . S
C445 C443 1.415 . S
C446 H436 0.930 . S
C446 C444 1.419 . S
C446 C447 1.362 . S
C447 H437 0.930 . S
C447 C440 1.409 . S
C447 C446 1.362 . S
H448 C454 0.930 . S
H449 C457 0.930 . S
H450 C458 0.930 . S
H451 C459 0.930 . S
H452 C462 0.930 . S
H453 C463 0.930 . S
C454 H448 0.930 . S
C454 C455 1.355 . S
C454 C456 1.415 . S
C455 C454 1.355 . S
C455 C457 1.419 . S
C456 C454 1.415 . S
C456 C461 1.425 . S
C456 C463 1.409 . S
C457 H449 0.930 . S
C457 C455 1.419 . S
C457 C458 1.362 . S
C458 H450 0.930 . S
C458 C457 1.362 . S
C458 C461 1.409 . S
C459 H451 0.930 . S
C459 C460 1.355 . S
C459 C461 1.415 . S
C460 C459 1.355 . S
C460 C462 1.419 . S
C461 C456 1.425 . S
C461 C458 1.409 . S
C461 C459 1.415 . S
C462 H452 0.930 . S
C462 C460 1.419 . S
C462 C463 1.362 . S
C463 H453 0.930 . S
C463 C456 1.409 . S
C463 C462 1.362 . S
H464 C470 0.930 . S
H465 C473 0.930 . S
H466 C474 0.930 . S
H467 C475 0.930 . S
H468 C478 0.930 . S
H469 C479 0.930 . S
C470 H464 0.930 . S
C470 C471 1.355 . S
C470 C472 1.415 . S
C471 C470 1.355 . S
C471 C473 1.419 . S
C472 C470 1.415 . S
C472 C477 1.425 . S
C472 C479 1.409 . S
C473 H465 0.930 . S
C473 C471 1.419 . S
C473 C474 1.362 . S
C474 H466 0.930 . S
C474 C473 1.362 . S
C474 C477 1.409 . S
C475 H467 0.930 . S
C475 C476 1.355 . S
C475 C477 1.415 . S
C476 C475 1.355 . S
C476 C478 1.419 . S
C477 C472 1.425 . S
C477 C474 1.409 . S
C477 C475 1.415 . S
C478 H468 0.930 . S
C478 C476 1.419 . S
C478 C479 1.362 . S
C479 H469 0.930 . S
C479 C472 1.409 . S
C479 C478 1.362 . S
H480 C486 0.930 . S
H481 C489 0.930 . S
H482 C490 0.930 . S
H483 C491 0.930 . S
H484 C494 0.930 . S
H485 C495 0.930 . S
C486 H480 0.930 . S
C486 C487 1.355 1_545 S
C486 C488 1.415 . S
C487 C486 1.355 1_565 S
C487 C489 1.419 . S
C488 C486 1.415 . S
C488 C493 1.425 . S
C488 C495 1.409 . S
C489 H481 0.930 . S
C489 C487 1.419 . S
C489 C490 1.362 . S
C490 H482 0.930 . S
C490 C489 1.362 . S
C490 C493 1.409 1_565 S
C491 H483 0.930 . S
C491 C492 1.355 . S
C491 C493 1.415 . S
C492 C491 1.355 . S
C492 C494 1.419 . S
C493 C488 1.425 . S
C493 C490 1.409 1_545 S
C493 C491 1.415 . S
C494 H484 0.930 . S
C494 C492 1.419 . S
C494 C495 1.362 . S
C495 H485 0.930 . S
C495 C488 1.409 . S
C495 C494 1.362 . S
H496 C502 0.930 1_655 S
H497 C505 0.930 . S
H498 C506 0.930 . S
H499 C507 0.930 . S
H500 C510 0.930 . S
H501 C511 0.930 . S
C502 H496 0.930 1_455 S
C502 C503 1.355 . S
C502 C504 1.415 . S
C503 C502 1.355 . S
C503 C505 1.419 . S
C504 C502 1.415 . S
C504 C509 1.425 . S
C504 C511 1.409 1_455 S
C505 H497 0.930 . S
C505 C503 1.419 . S
C505 C506 1.362 . S
C506 H498 0.930 . S
C506 C505 1.362 . S
C506 C509 1.409 . S
C507 H499 0.930 . S
C507 C508 1.355 . S
C507 C509 1.415 . S
C508 C507 1.355 . S
C508 C510 1.419 1_455 S
C509 C504 1.425 . S
C509 C506 1.409 . S
C509 C507 1.415 . S
C510 H500 0.930 . S
C510 C508 1.419 1_655 S
C510 C511 1.362 . S
C511 H501 0.930 . S
C511 C504 1.409 1_655 S
C511 C510 1.362 . S
H512 C518 0.930 1_554 S
H513 C521 0.930 . S
H514 C522 0.930 . S
H515 C523 0.930 . S
H516 C526 0.930 . S
H517 C527 0.930 . S
C518 H512 0.930 1_556 S
C518 C519 1.355 . S
C518 C520 1.415 . S
C519 C518 1.355 . S
C519 C521 1.419 . S
C520 C518 1.415 . S
C520 C525 1.425 . S
C520 C527 1.409 1_556 S
C521 H513 0.930 . S
C521 C519 1.419 . S
C521 C522 1.362 . S
C522 H514 0.930 . S
C522 C521 1.362 . S
C522 C525 1.409 . S
C523 H515 0.930 . S
C523 C524 1.355 . S
C523 C525 1.415 . S
C524 C523 1.355 . S
C524 C526 1.419 1_556 S
C525 C520 1.425 . S
C525 C522 1.409 . S
C525 C523 1.415 . S
C526 H516 0.930 . S
C526 C524 1.419 1_554 S
C526 C527 1.362 . S
C527 H517 0.930 . S
C527 C520 1.409 1_554 S
C527 C526 1.362 . S
H528 C534 0.930 . S
H529 C537 0.930 . S
H530 C538 0.930 . S
H531 C539 0.930 . S
H532 C542 0.930 . S
H533 C543 0.930 . S
C534 H528 0.930 . S
C534 C535 1.355 . S
C534 C536 1.415 . S
C535 C534 1.355 . S
C535 C537 1.419 . S
C536 C534 1.415 . S
C536 C541 1.425 . S
C536 C543 1.409 . S
C537 H529 0.930 . S
C537 C535 1.419 . S
C537 C538 1.362 . S
C538 H530 0.930 . S
C538 C537 1.362 . S
C538 C541 1.409 . S
C539 H531 0.930 . S
C539 C540 1.355 . S
C539 C541 1.415 . S
C540 C539 1.355 . S
C540 C542 1.419 . S
C541 C536 1.425 . S
C541 C538 1.409 . S
C541 C539 1.415 . S
C542 H532 0.930 . S
C542 C540 1.419 . S
C542 C543 1.362 . S
C543 H533 0.930 . S
C543 C536 1.409 . S
C543 C542 1.362 . S
H544 C550 0.930 . S
H545 C553 0.930 . S
H546 C554 0.930 . S
H547 C555 0.930 . S
H548 C558 0.930 . S
H549 C559 0.930 . S
C550 H544 0.930 . S
C550 C551 1.355 . S
C550 C552 1.415 . S
C551 C550 1.355 . S
C551 C553 1.419 . S
C552 C550 1.415 . S
C552 C557 1.425 . S
C552 C559 1.409 . S
C553 H545 0.930 . S
C553 C551 1.419 . S
C553 C554 1.362 . S
C554 H546 0.930 . S
C554 C553 1.362 . S
C554 C557 1.409 . S
C555 H547 0.930 . S
C555 C556 1.355 . S
C555 C557 1.415 . S
C556 C555 1.355 . S
C556 C558 1.419 . S
C557 C552 1.425 . S
C557 C554 1.409 . S
C557 C555 1.415 . S
C558 H548 0.930 . S
C558 C556 1.419 . S
C558 C559 1.362 . S
C559 H549 0.930 . S
C559 C552 1.409 . S
C559 C558 1.362 . S
H560 C566 0.930 . S
H561 C569 0.930 . S
H562 C570 0.930 . S
H563 C571 0.930 . S
H564 C574 0.930 . S
H565 C575 0.930 . S
C566 H560 0.930 . S
C566 C567 1.355 . S
C566 C568 1.415 . S
C567 C566 1.355 . S
C567 C569 1.419 . S
C568 C566 1.415 . S
C568 C573 1.425 . S
C568 C575 1.409 . S
C569 H561 0.930 . S
C569 C567 1.419 . S
C569 C570 1.362 . S
C570 H562 0.930 . S
C570 C569 1.362 . S
C570 C573 1.409 . S
C571 H563 0.930 . S
C571 C572 1.355 . S
C571 C573 1.415 . S
C572 C571 1.355 . S
C572 C574 1.419 . S
C573 C568 1.425 . S
C573 C570 1.409 . S
C573 C571 1.415 . S
C574 H564 0.930 . S
C574 C572 1.419 . S
C574 C575 1.362 . S
C575 H565 0.930 . S
C575 C568 1.409 . S
C575 C574 1.362 . S
H576 C582 0.930 . S
H577 C585 0.930 . S
H578 C586 0.930 . S
H579 C587 0.930 . S
H580 C590 0.930 . S
H581 C591 0.930 . S
C582 H576 0.930 . S
C582 C583 1.355 . S
C582 C584 1.415 . S
C583 C582 1.355 . S
C583 C585 1.419 . S
C584 C582 1.415 . S
C584 C589 1.425 . S
C584 C591 1.409 . S
C585 H577 0.930 . S
C585 C583 1.419 . S
C585 C586 1.362 . S
C586 H578 0.930 . S
C586 C585 1.362 . S
C586 C589 1.409 . S
C587 H579 0.930 . S
C587 C588 1.355 . S
C587 C589 1.415 . S
C588 C587 1.355 . S
C588 C590 1.419 . S
C589 C584 1.425 . S
C589 C586 1.409 . S
C589 C587 1.415 . S
C590 H580 0.930 . S
C590 C588 1.419 . S
C590 C591 1.362 . S
C591 H581 0.930 . S
C591 C584 1.409 . S
C591 C590 1.362 . S
H592 C598 0.930 . S
H593 C601 0.930 . S
H594 C602 0.930 . S
H595 C603 0.930 . S
H596 C606 0.930 . S
H597 C607 0.930 . S
C598 H592 0.930 . S
C598 C599 1.355 . S
C598 C600 1.415 . S
C599 C598 1.355 . S
C599 C601 1.419 . S
C600 C598 1.415 . S
C600 C605 1.425 . S
C600 C607 1.409 . S
C601 H593 0.930 . S
C601 C599 1.419 . S
C601 C602 1.362 . S
C602 H594 0.930 . S
C602 C601 1.362 . S
C602 C605 1.409 . S
C603 H595 0.930 . S
C603 C604 1.355 . S
C603 C605 1.415 . S
C604 C603 1.355 . S
C604 C606 1.419 . S
C605 C600 1.425 . S
C605 C602 1.409 . S
C605 C603 1.415 . S
C606 H596 0.930 . S
C606 C604 1.419 . S
C606 C607 1.362 . S
C607 H597 0.930 . S
C607 C600 1.409 . S
C607 C606 1.362 . S
H608 C614 0.930 . S
H609 C617 0.930 . S
H610 C618 0.930 . S
H611 C619 0.930 . S
H612 C622 0.930 . S
H613 C623 0.930 . S
C614 H608 0.930 . S
C614 C615 1.355 . S
C614 C616 1.415 . S
C615 C614 1.355 . S
C615 C617 1.419 . S
C616 C614 1.415 . S
C616 C621 1.425 . S
C616 C623 1.409 . S
C617 H609 0.930 . S
C617 C615 1.419 . S
C617 C618 1.362 . S
C618 H610 0.930 . S
C618 C617 1.362 . S
C618 C621 1.409 . S
C619 H611 0.930 . S
C619 C620 1.355 . S
C619 C621 1.415 . S
C620 C619 1.355 . S
C620 C622 1.419 . S
C621 C616 1.425 . S
C621 C618 1.409 . S
C621 C619 1.415 . S
C622 H612 0.930 . S
C622 C620 1.419 . S
C622 C623 1.362 . S
C623 H613 0.930 . S
C623 C616 1.409 . S
C623 C622 1.362 . S
H624 C630 0.930 . S
H625 C633 0.930 . S
H626 C634 0.930 . S
H627 C635 0.930 . S
H628 C638 0.930 . S
H629 C639 0.930 . S
C630 H624 0.930 . S
C630 C631 1.355 . S
C630 C632 1.415 . S
C631 C630 1.355 . S
C631 C633 1.419 . S
C632 C630 1.415 . S
C632 C637 1.425 . S
C632 C639 1.409 . S
C633 H625 0.930 . S
C633 C631 1.419 . S
C633 C634 1.362 . S
C634 H626 0.930 . S
C634 C633 1.362 . S
C634 C637 1.409 . S
C635 H627 0.930 . S
C635 C636 1.355 . S
C635 C637 1.415 . S
C636 C635 1.355 . S
C636 C638 1.419 . S
C637 C632 1.425 . S
C637 C634 1.409 . S
C637 C635 1.415 . S
C638 H628 0.930 . S
C638 C636 1.419 . S
C638 C639 1.362 . S
C639 H629 0.930 . S
C639 C632 1.409 . S
C639 C638 1.362 . S
H640 C646 0.930 . S
H641 C649 0.930 . S
H642 C650 0.930 . S
H643 C651 0.930 . S
H644 C654 0.930 . S
H645 C655 0.930 . S
C646 H640 0.930 . S
C646 C647 1.355 . S
C646 C648 1.415 . S
C647 C646 1.355 . S
C647 C649 1.419 . S
C648 C646 1.415 . S
C648 C653 1.425 . S
C648 C655 1.409 . S
C649 H641 0.930 . S
C649 C647 1.419 . S
C649 C650 1.362 . S
C650 H642 0.930 . S
C650 C649 1.362 . S
C650 C653 1.409 . S
C651 H643 0.930 . S
C651 C652 1.355 . S
C651 C653 1.415 . S
C652 C651 1.355 . S
C652 C654 1.419 . S
C653 C648 1.425 . S
C653 C650 1.409 . S
C653 C651 1.415 . S
C654 H644 0.930 . S
C654 C652 1.419 . S
C654 C655 1.362 . S
C655 H645 0.930 . S
C655 C648 1.409 . S
C655 C654 1.362 . S
H656 C662 0.930 . S
H657 C665 0.930 . S
H658 C666 0.930 . S
H659 C667 0.930 . S
H660 C670 0.930 . S
H661 C671 0.930 . S
C662 H656 0.930 . S
C662 C663 1.355 1_455 S
C662 C664 1.414 . S
C663 C662 1.355 1_655 S
C663 C665 1.419 . S
C664 C662 1.414 . S
C664 C669 1.427 1_455 S
C664 C671 1.408 . S
C665 H657 0.930 . S
C665 C663 1.419 . S
C665 C666 1.362 . S
C666 H658 0.930 . S
C666 C665 1.362 . S
C666 C669 1.409 . S
C667 H659 0.930 . S
C667 C668 1.355 . S
C667 C669 1.415 . S
C668 C667 1.355 . S
C668 C670 1.419 1_655 S
C669 C664 1.427 1_655 S
C669 C666 1.409 . S
C669 C667 1.415 . S
C670 H660 0.930 . S
C670 C668 1.419 1_455 S
C670 C671 1.362 . S
C671 H661 0.930 . S
C671 C664 1.408 . S
C671 C670 1.362 . S
H672 C678 0.930 . S
H673 C681 0.930 . S
H674 C682 0.930 . S
H675 C683 0.930 . S
H676 C686 0.930 . S
H677 C687 0.930 . S
C678 H672 0.930 . S
C678 C679 1.355 . S
C678 C680 1.415 . S
C679 C678 1.355 . S
C679 C681 1.419 . S
C680 C678 1.415 . S
C680 C685 1.425 . S
C680 C687 1.409 . S
C681 H673 0.930 . S
C681 C679 1.419 . S
C681 C682 1.362 . S
C682 H674 0.930 . S
C682 C681 1.362 . S
C682 C685 1.409 . S
C683 H675 0.930 . S
C683 C684 1.355 . S
C683 C685 1.415 . S
C684 C683 1.355 . S
C684 C686 1.419 . S
C685 C680 1.425 . S
C685 C682 1.409 . S
C685 C683 1.415 . S
C686 H676 0.930 . S
C686 C684 1.419 . S
C686 C687 1.362 . S
C687 H677 0.930 . S
C687 C680 1.409 . S
C687 C686 1.362 . S
H688 C694 0.930 . S
H689 C697 0.930 . S
H690 C698 0.930 . S
H691 C699 0.930 . S
H692 C702 0.930 . S
H693 C703 0.930 . S
C694 H688 0.930 . S
C694 C695 1.355 . S
C694 C696 1.415 . S
C695 C694 1.355 . S
C695 C697 1.419 . S
C696 C694 1.415 . S
C696 C701 1.425 . S
C696 C703 1.409 . S
C697 H689 0.930 . S
C697 C695 1.419 . S
C697 C698 1.362 . S
C698 H690 0.930 . S
C698 C697 1.362 . S
C698 C701 1.409 . S
C699 H691 0.930 . S
C699 C700 1.355 . S
C699 C701 1.415 . S
C700 C699 1.355 . S
C700 C702 1.419 . S
C701 C696 1.425 . S
C701 C698 1.409 . S
C701 C699 1.415 . S
C702 H692 0.930 . S
C702 C700 1.419 . S
C702 C703 1.362 . S
C703 H693 0.930 . S
C703 C696 1.409 . S
C703 C702 1.362 . S
H704 C710 0.930 . S
H705 C713 0.930 . S
H706 C714 0.930 . S
H707 C715 0.930 . S
H708 C718 0.930 . S
H709 C719 0.930 . S
C710 H704 0.930 . S
C710 C711 1.355 . S
C710 C712 1.415 . S
C711 C710 1.355 . S
C711 C713 1.419 . S
C712 C710 1.415 . S
C712 C717 1.425 . S
C712 C719 1.409 . S
C713 H705 0.930 . S
C713 C711 1.419 . S
C713 C714 1.362 . S
C714 H706 0.930 . S
C714 C713 1.362 . S
C714 C717 1.409 . S
C715 H707 0.930 . S
C715 C716 1.355 . S
C715 C717 1.415 . S
C716 C715 1.355 . S
C716 C718 1.419 . S
C717 C712 1.425 . S
C717 C714 1.409 . S
C717 C715 1.415 . S
C718 H708 0.930 . S
C718 C716 1.419 . S
C718 C719 1.362 . S
C719 H709 0.930 . S
C719 C712 1.409 . S
C719 C718 1.362 . S
H720 C726 0.930 . S
H721 C729 0.930 . S
H722 C730 0.930 . S
H723 C731 0.930 . S
H724 C734 0.930 . S
H725 C735 0.930 . S
C726 H720 0.930 . S
C726 C727 1.355 . S
C726 C728 1.415 . S
C727 C726 1.355 . S
C727 C729 1.419 . S
C728 C726 1.415 . S
C728 C733 1.425 . S
C728 C735 1.409 . S
C729 H721 0.930 . S
C729 C727 1.419 . S
C729 C730 1.362 . S
C730 H722 0.930 . S
C730 C729 1.362 . S
C730 C733 1.409 . S
C731 H723 0.930 . S
C731 C732 1.355 . S
C731 C733 1.415 . S
C732 C731 1.355 . S
C732 C734 1.419 . S
C733 C728 1.425 . S
C733 C730 1.409 . S
C733 C731 1.415 . S
C734 H724 0.930 . S
C734 C732 1.419 . S
C734 C735 1.362 . S
C735 H725 0.930 . S
C735 C728 1.409 . S
C735 C734 1.362 . S
H736 C742 0.930 . S
H737 C745 0.930 . S
H738 C746 0.930 1_565 S
H739 C747 0.930 . S
H740 C750 0.930 . S
H741 C751 0.930 . S
C742 H736 0.930 . S
C742 C743 1.355 . S
C742 C744 1.415 . S
C743 C742 1.355 . S
C743 C745 1.419 1_545 S
C744 C742 1.415 . S
C744 C749 1.425 . S
C744 C751 1.409 . S
C745 H737 0.930 . S
C745 C743 1.419 1_565 S
C745 C746 1.362 1_565 S
C746 H738 0.930 1_545 S
C746 C745 1.362 1_545 S
C746 C749 1.409 . S
C747 H739 0.930 . S
C747 C748 1.355 . S
C747 C749 1.415 . S
C748 C747 1.355 . S
C748 C750 1.419 . S
C749 C744 1.425 . S
C749 C746 1.409 . S
C749 C747 1.415 . S
C750 H740 0.930 . S
C750 C748 1.419 . S
C750 C751 1.362 . S
C751 H741 0.930 . S
C751 C744 1.409 . S
C751 C750 1.362 . S
H752 C758 0.930 . S
H753 C761 0.930 . S
H754 C762 0.930 . S
H755 C763 0.930 . S
H756 C766 0.930 1_556 S
H757 C767 0.930 1_556 S
C758 H752 0.930 . S
C758 C759 1.355 . S
C758 C760 1.415 . S
C759 C758 1.355 . S
C759 C761 1.419 . S
C760 C758 1.415 . S
C760 C765 1.425 . S
C760 C767 1.409 . S
C761 H753 0.930 . S
C761 C759 1.419 . S
C761 C762 1.362 . S
C762 H754 0.930 . S
C762 C761 1.362 . S
C762 C765 1.409 . S
C763 H755 0.930 . S
C763 C764 1.355 . S
C763 C765 1.415 . S
C764 C763 1.355 . S
C764 C766 1.419 . S
C765 C760 1.425 . S
C765 C762 1.409 . S
C765 C763 1.415 . S
C766 H756 0.930 1_554 S
C766 C764 1.419 . S
C766 C767 1.362 . S
C767 H757 0.930 1_554 S
C767 C760 1.409 . S
C767 C766 1.362 . S
H768 C774 0.930 . S
H769 C777 0.930 . S
H770 C778 0.930 . S
H771 C779 0.930 . S
H772 C782 0.930 . S
H773 C783 0.930 . S
C774 H768 0.930 . S
C774 C775 1.355 . S
C774 C776 1.415 . S
C775 C774 1.355 . S
C775 C777 1.419 . S
C776 C774 1.415 . S
C776 C781 1.425 . S
C776 C783 1.409 . S
C777 H769 0.930 . S
C777 C775 1.419 . S
C777 C778 1.362 . S
C778 H770 0.930 . S
C778 C777 1.362 . S
C778 C781 1.409 . S
C779 H771 0.930 . S
C779 C780 1.355 . S
C779 C781 1.415 . S
C780 C779 1.355 . S
C780 C782 1.419 . S
C781 C776 1.425 . S
C781 C778 1.409 . S
C781 C779 1.415 . S
C782 H772 0.930 . S
C782 C780 1.419 . S
C782 C783 1.362 . S
C783 H773 0.930 . S
C783 C776 1.409 . S
C783 C782 1.362 . S
H784 C790 0.930 . S
H785 C793 0.930 . S
H786 C794 0.930 . S
H787 C795 0.930 . S
H788 C798 0.930 . S
H789 C799 0.930 . S
C790 H784 0.930 . S
C790 C791 1.355 . S
C790 C792 1.415 . S
C791 C790 1.355 . S
C791 C793 1.419 . S
C792 C790 1.415 . S
C792 C797 1.425 . S
C792 C799 1.409 . S
C793 H785 0.930 . S
C793 C791 1.419 . S
C793 C794 1.362 . S
C794 H786 0.930 . S
C794 C793 1.362 . S
C794 C797 1.409 . S
C795 H787 0.930 . S
C795 C796 1.355 . S
C795 C797 1.415 . S
C796 C795 1.355 . S
C796 C798 1.419 . S
C797 C792 1.425 . S
C797 C794 1.409 . S
C797 C795 1.415 . S
C798 H788 0.930 . S
C798 C796 1.419 . S
C798 C799 1.362 . S
C799 H789 0.930 . S
C799 C792 1.409 . S
C799 C798 1.362 . S
H800 C806 0.930 . S
H801 C809 0.930 . S
H802 C810 0.930 . S
H803 C811 0.930 . S
H804 C814 0.930 . S
H805 C815 0.930 . S
C806 H800 0.930 . S
C806 C807 1.355 . S
C806 C808 1.415 . S
C807 C806 1.355 . S
C807 C809 1.419 . S
C808 C806 1.415 . S
C808 C813 1.425 . S
C808 C815 1.409 . S
C809 H801 0.930 . S
C809 C807 1.419 . S
C809 C810 1.362 . S
C810 H802 0.930 . S
C810 C809 1.362 . S
C810 C813 1.409 . S
C811 H803 0.930 . S
C811 C812 1.355 . S
C811 C813 1.415 . S
C812 C811 1.355 . S
C812 C814 1.419 . S
C813 C808 1.425 . S
C813 C810 1.409 . S
C813 C811 1.415 . S
C814 H804 0.930 . S
C814 C812 1.419 . S
C814 C815 1.362 . S
C815 H805 0.930 . S
C815 C808 1.409 . S
C815 C814 1.362 . S
H816 C822 0.930 . S
H817 C825 0.930 . S
H818 C826 0.930 . S
H819 C827 0.930 . S
H820 C830 0.930 . S
H821 C831 0.930 . S
C822 H816 0.930 . S
C822 C823 1.355 . S
C822 C824 1.415 . S
C823 C822 1.355 . S
C823 C825 1.419 . S
C824 C822 1.415 . S
C824 C829 1.425 . S
C824 C831 1.409 . S
C825 H817 0.930 . S
C825 C823 1.419 . S
C825 C826 1.362 . S
C826 H818 0.930 . S
C826 C825 1.362 . S
C826 C829 1.409 . S
C827 H819 0.930 . S
C827 C828 1.355 . S
C827 C829 1.415 . S
C828 C827 1.355 . S
C828 C830 1.419 . S
C829 C824 1.425 . S
C829 C826 1.409 . S
C829 C827 1.415 . S
C830 H820 0.930 . S
C830 C828 1.419 . S
C830 C831 1.362 . S
C831 H821 0.930 . S
C831 C824 1.409 . S
C831 C830 1.362 . S
H832 C838 0.930 . S
H833 C841 0.930 . S
H834 C842 0.930 . S
H835 C843 0.930 . S
H836 C846 0.930 . S
H837 C847 0.930 . S
C838 H832 0.930 . S
C838 C839 1.355 . S
C838 C840 1.415 . S
C839 C838 1.355 . S
C839 C841 1.419 . S
C840 C838 1.415 . S
C840 C845 1.425 . S
C840 C847 1.409 . S
C841 H833 0.930 . S
C841 C839 1.419 . S
C841 C842 1.362 . S
C842 H834 0.930 . S
C842 C841 1.362 . S
C842 C845 1.409 . S
C843 H835 0.930 . S
C843 C844 1.355 . S
C843 C845 1.415 . S
C844 C843 1.355 . S
C844 C846 1.419 . S
C845 C840 1.425 . S
C845 C842 1.409 . S
C845 C843 1.415 . S
C846 H836 0.930 . S
C846 C844 1.419 . S
C846 C847 1.362 . S
C847 H837 0.930 . S
C847 C840 1.409 . S
C847 C846 1.362 . S
H848 C854 0.930 . S
H849 C857 0.930 . S
H850 C858 0.930 . S
H851 C859 0.930 . S
H852 C862 0.930 . S
H853 C863 0.930 . S
C854 H848 0.930 . S
C854 C855 1.355 . S
C854 C856 1.415 . S
C855 C854 1.355 . S
C855 C857 1.419 . S
C856 C854 1.415 . S
C856 C861 1.425 . S
C856 C863 1.409 . S
C857 H849 0.930 . S
C857 C855 1.419 . S
C857 C858 1.362 . S
C858 H850 0.930 . S
C858 C857 1.362 . S
C858 C861 1.409 . S
C859 H851 0.930 . S
C859 C860 1.355 . S
C859 C861 1.415 . S
C860 C859 1.355 . S
C860 C862 1.419 . S
C861 C856 1.425 . S
C861 C858 1.409 . S
C861 C859 1.415 . S
C862 H852 0.930 . S
C862 C860 1.419 . S
C862 C863 1.362 . S
C863 H853 0.930 . S
C863 C856 1.409 . S
C863 C862 1.362 . S
H864 C870 0.930 . S
H865 C873 0.930 . S
H866 C874 0.930 . S
H867 C875 0.930 . S
H868 C878 0.930 . S
H869 C879 0.930 . S
C870 H864 0.930 . S
C870 C871 1.355 . S
C870 C872 1.415 . S
C871 C870 1.355 . S
C871 C873 1.419 . S
C872 C870 1.415 . S
C872 C877 1.425 . S
C872 C879 1.409 . S
C873 H865 0.930 . S
C873 C871 1.419 . S
C873 C874 1.362 . S
C874 H866 0.930 . S
C874 C873 1.362 . S
C874 C877 1.409 . S
C875 H867 0.930 . S
C875 C876 1.355 . S
C875 C877 1.415 . S
C876 C875 1.355 . S
C876 C878 1.419 . S
C877 C872 1.425 . S
C877 C874 1.409 . S
C877 C875 1.415 . S
C878 H868 0.930 . S
C878 C876 1.419 . S
C878 C879 1.362 . S
C879 H869 0.930 . S
C879 C872 1.409 . S
C879 C878 1.362 . S
H880 C886 0.930 . S
H881 C889 0.930 . S
H882 C890 0.930 . S
H883 C891 0.930 . S
H884 C894 0.930 . S
H885 C895 0.930 . S
C886 H880 0.930 . S
C886 C887 1.355 . S
C886 C888 1.415 . S
C887 C886 1.355 . S
C887 C889 1.419 . S
C888 C886 1.415 . S
C888 C893 1.425 . S
C888 C895 1.409 . S
C889 H881 0.930 . S
C889 C887 1.419 . S
C889 C890 1.362 . S
C890 H882 0.930 . S
C890 C889 1.362 . S
C890 C893 1.409 . S
C891 H883 0.930 . S
C891 C892 1.355 . S
C891 C893 1.415 . S
C892 C891 1.355 . S
C892 C894 1.419 . S
C893 C888 1.425 . S
C893 C890 1.409 . S
C893 C891 1.415 . S
C894 H884 0.930 . S
C894 C892 1.419 . S
C894 C895 1.362 . S
C895 H885 0.930 . S
C895 C888 1.409 . S
C895 C894 1.362 . S
H896 C902 0.930 . S
H897 C905 0.930 . S
H898 C906 0.930 . S
H899 C907 0.930 . S
H900 C910 0.930 . S
H901 C911 0.930 . S
C902 H896 0.930 . S
C902 C903 1.355 . S
C902 C904 1.415 . S
C903 C902 1.355 . S
C903 C905 1.419 . S
C904 C902 1.415 . S
C904 C909 1.425 . S
C904 C911 1.409 . S
C905 H897 0.930 . S
C905 C903 1.419 . S
C905 C906 1.362 . S
C906 H898 0.930 . S
C906 C905 1.362 . S
C906 C909 1.409 . S
C907 H899 0.930 . S
C907 C908 1.355 . S
C907 C909 1.415 . S
C908 C907 1.355 . S
C908 C910 1.419 . S
C909 C904 1.425 . S
C909 C906 1.409 . S
C909 C907 1.415 . S
C910 H900 0.930 . S
C910 C908 1.419 . S
C910 C911 1.362 . S
C911 H901 0.930 . S
C911 C904 1.409 . S
C911 C910 1.362 . S
H912 C918 0.930 . S
H913 C921 0.930 . S
H914 C922 0.930 . S
H915 C923 0.930 . S
H916 C926 0.930 . S
H917 C927 0.930 . S
C918 H912 0.930 . S
C918 C919 1.355 . S
C918 C920 1.415 . S
C919 C918 1.355 . S
C919 C921 1.419 . S
C920 C918 1.415 . S
C920 C925 1.425 . S
C920 C927 1.409 . S
C921 H913 0.930 . S
C921 C919 1.419 . S
C921 C922 1.362 . S
C922 H914 0.930 . S
C922 C921 1.362 . S
C922 C925 1.409 . S
C923 H915 0.930 . S
C923 C924 1.355 . S
C923 C925 1.415 . S
C924 C923 1.355 . S
C924 C926 1.419 . S
C925 C920 1.425 . S
C925 C922 1.409 . S
C925 C923 1.415 . S
C926 H916 0.930 . S
C926 C924 1.419 . S
C926 C927 1.362 . S
C927 H917 0.930 . S
C927 C920 1.409 . S
C927 C926 1.362 . S
H928 C934 0.930 . S
H929 C937 0.930 . S
H930 C938 0.930 . S
H931 C939 0.930 . S
H932 C942 0.930 . S
H933 C943 0.930 . S
C934 H928 0.930 . S
C934 C935 1.355 . S
C934 C936 1.415 . S
C935 C934 1.355 . S
C935 C937 1.419 . S
C936 C934 1.415 . S
C936 C941 1.425 . S
C936 C943 1.409 . S
C937 H929 0.930 . S
C937 C935 1.419 . S
C937 C938 1.362 . S
C938 H930 0.930 . S
C938 C937 1.362 . S
C938 C941 1.409 . S
C939 H931 0.930 . S
C939 C940 1.355 . S
C939 C941 1.415 . S
C940 C939 1.355 . S
C940 C942 1.419 . S
C941 C936 1.425 . S
C941 C938 1.409 . S
C941 C939 1.415 . S
C942 H932 0.930 . S
C942 C940 1.419 . S
C942 C943 1.362 . S
C943 H933 0.930 . S
C943 C936 1.409 . S
C943 C942 1.362 . S
H944 C950 0.930 . S
H945 C953 0.930 . S
H946 C954 0.930 . S
H947 C955 0.930 . S
H948 C958 0.930 . S
H949 C959 0.930 . S
C950 H944 0.930 . S
C950 C951 1.355 . S
C950 C952 1.415 . S
C951 C950 1.355 . S
C951 C953 1.419 . S
C952 C950 1.415 . S
C952 C957 1.425 . S
C952 C959 1.409 . S
C953 H945 0.930 . S
C953 C951 1.419 . S
C953 C954 1.362 . S
C954 H946 0.930 . S
C954 C953 1.362 . S
C954 C957 1.409 . S
C955 H947 0.930 . S
C955 C956 1.355 . S
C955 C957 1.415 . S
C956 C955 1.355 . S
C956 C958 1.419 . S
C957 C952 1.425 . S
C957 C954 1.409 . S
C957 C955 1.415 . S
C958 H948 0.930 . S
C958 C956 1.419 . S
C958 C959 1.362 . S
C959 H949 0.930 . S
C959 C952 1.409 . S
C959 C958 1.362 . S
H960 C966 0.930 . S
H961 C969 0.930 . S
H962 C970 0.930 . S
H963 C971 0.930 . S
H964 C974 0.930 . S
H965 C975 0.930 . S
C966 H960 0.930 . S
C966 C967 1.355 . S
C966 C968 1.415 . S
C967 C966 1.355 . S
C967 C969 1.419 . S
C968 C966 1.415 . S
C968 C973 1.425 . S
C968 C975 1.409 . S
C969 H961 0.930 . S
C969 C967 1.419 . S
C969 C970 1.362 . S
C970 H962 0.930 . S
C970 C969 1.362 . S
C970 C973 1.409 . S
C971 H963 0.930 . S
C971 C972 1.355 . S
C971 C973 1.415 . S
C972 C971 1.355 . S
C972 C974 1.419 . S
C973 C968 1.425 . S
C973 C970 1.409 . S
C973 C971 1.415 . S
C974 H964 0.930 . S
C974 C972 1.419 . S
C974 C975 1.362 . S
C975 H965 0.930 . S
C975 C968 1.409 . S
C975 C974 1.362 . S
H976 C982 0.930 . S
H977 C985 0.930 . S
H978 C986 0.930 . S
H979 C987 0.930 . S
H980 C990 0.930 . S
H981 C991 0.930 . S
C982 H976 0.930 . S
C982 C983 1.355 . S
C982 C984 1.415 . S
C983 C982 1.355 . S
C983 C985 1.419 . S
C984 C982 1.415 . S
C984 C989 1.425 . S
C984 C991 1.409 . S
C985 H977 0.930 . S
C985 C983 1.419 . S
C985 C986 1.362 . S
C986 H978 0.930 . S
C986 C985 1.362 . S
C986 C989 1.409 . S
C987 H979 0.930 . S
C987 C988 1.355 . S
C987 C989 1.415 . S
C988 C987 1.355 . S
C988 C990 1.419 . S
C989 C984 1.425 . S
C989 C986 1.409 . S
C989 C987 1.415 . S
C990 H980 0.930 . S
C990 C988 1.419 . S
C990 C991 1.362 . S
C991 H981 0.930 . S
C991 C984 1.409 . S
C991 C990 1.362 . S
H992 C998 0.930 . S
H993 C1001 0.930 . S
H994 C1002 0.930 . S
H995 C1003 0.930 . S
H996 C1006 0.930 . S
H997 C1007 0.930 . S
C998 H992 0.930 . S
C998 C999 1.355 . S
C998 C1000 1.415 . S
C999 C998 1.355 . S
C999 C1001 1.419 1_556 S
C1000 C998 1.415 . S
C1000 C1005 1.425 1_556 S
C1000 C1007 1.409 . S
C1001 H993 0.930 . S
C1001 C999 1.419 1_554 S
C1001 C1002 1.362 . S
C1002 H994 0.930 . S
C1002 C1001 1.362 . S
C1002 C1005 1.409 . S
C1003 H995 0.930 . S
C1003 C1004 1.355 1_554 S
C1003 C1005 1.415 . S
C1004 C1003 1.355 1_556 S
C1004 C1006 1.419 . S
C1005 C1000 1.425 1_554 S
C1005 C1002 1.409 . S
C1005 C1003 1.415 . S
C1006 H996 0.930 . S
C1006 C1004 1.419 . S
C1006 C1007 1.362 . S
C1007 H997 0.930 . S
C1007 C1000 1.409 . S
C1007 C1006 1.362 . S
H1008 C1014 0.930 . S
H1009 C1017 0.930 . S
H1010 C1018 0.930 . S
H1011 C1019 0.930 . S
H1012 C1022 0.930 . S
H1013 C1023 0.930 . S
C1014 H1008 0.930 . S
C1014 C1015 1.355 . S
C1014 C1016 1.415 . S
C1015 C1014 1.355 . S
C1015 C1017 1.419 . S
C1016 C1014 1.415 . S
C1016 C1021 1.425 . S
C1016 C1023 1.409 . S
C1017 H1009 0.930 . S
C1017 C1015 1.419 . S
C1017 C1018 1.362 . S
C1018 H1010 0.930 . S
C1018 C1017 1.362 . S
C1018 C1021 1.409 . S
C1019 H1011 0.930 . S
C1019 C1020 1.355 . S
C1019 C1021 1.415 . S
C1020 C1019 1.355 . S
C1020 C1022 1.419 . S
C1021 C1016 1.425 . S
C1021 C1018 1.409 . S
C1021 C1019 1.415 . S
C1022 H1012 0.930 . S
C1022 C1020 1.419 . S
C1022 C1023 1.362 . S
C1023 H1013 0.930 . S
C1023 C1016 1.409 . S
C1023 C1022 1.362 . S
H1024 C1030 0.930 . S
H1025 C1033 0.930 . S
H1026 C1034 0.930 . S
H1027 C1035 0.930 . S
H1028 C1038 0.930 . S
H1029 C1039 0.930 . S
C1030 H1024 0.930 . S
C1030 C1031 1.355 . S
C1030 C1032 1.415 . S
C1031 C1030 1.355 . S
C1031 C1033 1.419 . S
C1032 C1030 1.415 . S
C1032 C1037 1.425 . S
C1032 C1039 1.409 . S
C1033 H1025 0.930 . S
C1033 C1031 1.419 . S
C1033 C1034 1.362 . S
C1034 H1026 0.930 . S
C1034 C1033 1.362 . S
C1034 C1037 1.409 . S
C1035 H1027 0.930 . S
C1035 C1036 1.355 . S
C1035 C1037 1.415 . S
C1036 C1035 1.355 . S
C1036 C1038 1.419 . S
C1037 C1032 1.425 . S
C1037 C1034 1.409 . S
C1037 C1035 1.415 . S
C1038 H1028 0.930 . S
C1038 C1036 1.419 . S
C1038 C1039 1.362 . S
C1039 H1029 0.930 . S
C1039 C1032 1.409 . S
C1039 C1038 1.362 . S
H1040 C1046 0.930 . S
H1041 C1049 0.930 . S
H1042 C1050 0.930 . S
H1043 C1051 0.930 . S
H1044 C1054 0.930 . S
H1045 C1055 0.930 . S
C1046 H1040 0.930 . S
C1046 C1047 1.355 . S
C1046 C1048 1.415 . S
C1047 C1046 1.355 . S
C1047 C1049 1.419 . S
C1048 C1046 1.415 . S
C1048 C1053 1.425 . S
C1048 C1055 1.409 . S
C1049 H1041 0.930 . S
C1049 C1047 1.419 . S
C1049 C1050 1.362 . S
C1050 H1042 0.930 . S
C1050 C1049 1.362 . S
C1050 C1053 1.409 . S
C1051 H1043 0.930 . S
C1051 C1052 1.355 . S
C1051 C1053 1.415 . S
C1052 C1051 1.355 . S
C1052 C1054 1.419 . S
C1053 C1048 1.425 . S
C1053 C1050 1.409 . S
C1053 C1051 1.415 . S
C1054 H1044 0.930 . S
C1054 C1052 1.419 . S
C1054 C1055 1.362 . S
C1055 H1045 0.930 . S
C1055 C1048 1.409 . S
C1055 C1054 1.362 . S
H1056 C1062 0.930 . S
H1057 C1065 0.930 . S
H1058 C1066 0.930 . S
H1059 C1067 0.930 . S
H1060 C1070 0.930 . S
H1061 C1071 0.930 . S
C1062 H1056 0.930 . S
C1062 C1063 1.355 . S
C1062 C1064 1.415 . S
C1063 C1062 1.355 . S
C1063 C1065 1.419 . S
C1064 C1062 1.415 . S
C1064 C1069 1.425 . S
C1064 C1071 1.409 . S
C1065 H1057 0.930 . S
C1065 C1063 1.419 . S
C1065 C1066 1.362 . S
C1066 H1058 0.930 . S
C1066 C1065 1.362 . S
C1066 C1069 1.409 . S
C1067 H1059 0.930 . S
C1067 C1068 1.355 . S
C1067 C1069 1.415 . S
C1068 C1067 1.355 . S
C1068 C1070 1.419 . S
C1069 C1064 1.425 . S
C1069 C1066 1.409 . S
C1069 C1067 1.415 . S
C1070 H1060 0.930 . S
C1070 C1068 1.419 . S
C1070 C1071 1.362 . S
C1071 H1061 0.930 . S
C1071 C1064 1.409 . S
C1071 C1070 1.362 . S
H1072 C1078 0.930 . S
H1073 C1081 0.930 . S
H1074 C1082 0.930 . S
H1075 C1083 0.930 . S
H1076 C1086 0.930 . S
H1077 C1087 0.930 . S
C1078 H1072 0.930 . S
C1078 C1079 1.355 . S
C1078 C1080 1.415 . S
C1079 C1078 1.355 . S
C1079 C1081 1.419 . S
C1080 C1078 1.415 . S
C1080 C1085 1.425 . S
C1080 C1087 1.409 . S
C1081 H1073 0.930 . S
C1081 C1079 1.419 . S
C1081 C1082 1.362 . S
C1082 H1074 0.930 . S
C1082 C1081 1.362 . S
C1082 C1085 1.409 . S
C1083 H1075 0.930 . S
C1083 C1084 1.355 . S
C1083 C1085 1.415 . S
C1084 C1083 1.355 . S
C1084 C1086 1.419 . S
C1085 C1080 1.425 . S
C1085 C1082 1.409 . S
C1085 C1083 1.415 . S
C1086 H1076 0.930 . S
C1086 C1084 1.419 . S
C1086 C1087 1.362 . S
C1087 H1077 0.930 . S
C1087 C1080 1.409 . S
C1087 C1086 1.362 . S
C327 C2 0.736 . S
C332 C24 0.911 1_655 S
C343 C42 0.915 . S
C348 C29 0.861 . S
C359 C64 1.148 . S
C364 C59 1.180 . S
C375 C19 0.876 . S
C380 C69 0.909 . S
C391 C18 0.832 . S
C396 C192 0.867 . S
C407 C144 0.647 . S
C412 C22 0.829 . S
C423 C44 0.853 . S
C428 C212 0.978 . S
C439 C62 1.251 . S
C444 C264 1.043 . S
C455 C178 0.867 . S
C460 C32 0.797 . S
C471 C242 1.303 . S
C476 C58 1.412 . S
C487 C284 0.989 1_565 S
C492 C72 0.961 . S
C503 C4 0.808 . S
C508 C222 0.843 . S
C519 C9 0.696 . S
C524 C169 0.586 . S
C535 C259 1.950 . S
C540 C99 1.952 . S
C551 C112 0.739 . S
C556 C289 0.665 . S
C567 C239 1.648 . S
C572 C139 1.647 . S
C583 C49 0.746 . S
C588 C152 0.662 . S
C599 C198 1.704 . S
C604 C98 1.704 . S
C615 C138 1.748 . S
C620 C218 1.746 . S
C631 C118 1.252 . S
C636 C232 1.276 . S
C647 C182 0.703 . S
C652 C104 0.809 . S
C663 C224 0.907 . S
C668 C142 0.793 . S
C679 C119 1.470 . S
C684 C89 1.461 . S
C695 C184 0.906 . S
C700 C162 0.745 . S
C711 C279 1.257 . S
C716 C229 1.225 . S
C727 C124 0.919 . S
C732 C102 0.775 . S
C743 C189 0.856 . S
C748 C282 0.925 . S
C759 C272 0.704 . S
C764 C12 0.580 . S
C775 C52 0.681 . S
C780 C292 0.620 . S
C791 C258 1.669 . S
C796 C38 1.668 . S
C807 C149 0.684 . S
C812 C109 0.650 . S
C823 C79 1.719 . S
C828 C219 1.718 . S
C839 C244 1.144 . S
C844 C262 1.110 . S
C855 C159 1.467 . S
C860 C249 1.465 . S
C871 C132 1.276 . S
C876 C158 1.238 . S
C887 C92 1.250 . S
C892 C278 1.279 . S
C903 C252 1.249 . S
C908 C318 1.280 . S
C919 C312 0.652 . S
C924 C172 0.618 . S
C935 C39 1.595 . S
C940 C199 1.593 . S
C951 C164 0.812 . S
C956 C122 0.807 . S
C967 C179 0.887 . S
C972 C209 0.854 . S
C983 C319 1.268 . S
C988 C129 1.206 . S
C999 C269 0.646 1_556 S
C1004 C309 0.758 1_556 S
C1015 C238 1.767 . S
C1020 C78 1.768 . S
C1031 C204 1.170 . S
C1036 C299 1.186 . S
C1047 C202 1.233 . S
C1052 C304 1.120 . S
C1063 C82 1.340 . S
C1068 C298 1.398 . S
C1079 C302 1.082 . S
C1084 C84 1.163 . S
