# Generated by pormake.
# Topology wjv, (5)-cn, num edge types: 1
# Building blocks:
#     Node 0, Type 0, BuildingBlock: XOMCOT_clean_sbu_1, # of connection points: 5
#     Node 1, Type 0, BuildingBlock: XOMCOT_clean_sbu_1, # of connection points: 5
#     Node 2, Type 0, BuildingBlock: XOMCOT_clean_sbu_1, # of connection points: 5
#     Node 3, Type 0, BuildingBlock: XOMCOT_clean_sbu_1, # of connection points: 5
#     Node 4, Type 0, BuildingBlock: XOMCOT_clean_sbu_1, # of connection points: 5
#     Node 5, Type 0, BuildingBlock: XOMCOT_clean_sbu_1, # of connection points: 5
#     Node 6, Type 0, BuildingBlock: XOMCOT_clean_sbu_1, # of connection points: 5
#     Node 7, Type 0, BuildingBlock: XOMCOT_clean_sbu_1, # of connection points: 5
#     Node 8, Type 0, BuildingBlock: XOMCOT_clean_sbu_1, # of connection points: 5
#     Node 9, Type 0, BuildingBlock: XOMCOT_clean_sbu_1, # of connection points: 5
#     Node 10, Type 0, BuildingBlock: XOMCOT_clean_sbu_1, # of connection points: 5
#     Node 11, Type 0, BuildingBlock: XOMCOT_clean_sbu_1, # of connection points: 5
#     Edge 12, Type (0, 0), BuildingBlock: FUNLAD_clean_linker_0, # of connection points: 2
#     Edge 13, Type (0, 0), BuildingBlock: FUNLAD_clean_linker_0, # of connection points: 2
#     Edge 14, Type (0, 0), BuildingBlock: FUNLAD_clean_linker_0, # of connection points: 2
#     Edge 15, Type (0, 0), BuildingBlock: FUNLAD_clean_linker_0, # of connection points: 2
#     Edge 16, Type (0, 0), BuildingBlock: FUNLAD_clean_linker_0, # of connection points: 2
#     Edge 17, Type (0, 0), BuildingBlock: FUNLAD_clean_linker_0, # of connection points: 2
#     Edge 18, Type (0, 0), BuildingBlock: FUNLAD_clean_linker_0, # of connection points: 2
#     Edge 19, Type (0, 0), BuildingBlock: FUNLAD_clean_linker_0, # of connection points: 2
#     Edge 20, Type (0, 0), BuildingBlock: FUNLAD_clean_linker_0, # of connection points: 2
#     Edge 21, Type (0, 0), BuildingBlock: FUNLAD_clean_linker_0, # of connection points: 2
#     Edge 22, Type (0, 0), BuildingBlock: FUNLAD_clean_linker_0, # of connection points: 2
#     Edge 23, Type (0, 0), BuildingBlock: FUNLAD_clean_linker_0, # of connection points: 2
#     Edge 24, Type (0, 0), BuildingBlock: FUNLAD_clean_linker_0, # of connection points: 2
#     Edge 25, Type (0, 0), BuildingBlock: FUNLAD_clean_linker_0, # of connection points: 2
#     Edge 26, Type (0, 0), BuildingBlock: FUNLAD_clean_linker_0, # of connection points: 2
#     Edge 27, Type (0, 0), BuildingBlock: FUNLAD_clean_linker_0, # of connection points: 2
#     Edge 28, Type (0, 0), BuildingBlock: FUNLAD_clean_linker_0, # of connection points: 2
#     Edge 29, Type (0, 0), BuildingBlock: FUNLAD_clean_linker_0, # of connection points: 2
#     Edge 30, Type (0, 0), BuildingBlock: FUNLAD_clean_linker_0, # of connection points: 2
#     Edge 31, Type (0, 0), BuildingBlock: FUNLAD_clean_linker_0, # of connection points: 2
#     Edge 32, Type (0, 0), BuildingBlock: FUNLAD_clean_linker_0, # of connection points: 2
#     Edge 33, Type (0, 0), BuildingBlock: FUNLAD_clean_linker_0, # of connection points: 2
#     Edge 34, Type (0, 0), BuildingBlock: FUNLAD_clean_linker_0, # of connection points: 2
#     Edge 35, Type (0, 0), BuildingBlock: FUNLAD_clean_linker_0, # of connection points: 2
#     Edge 36, Type (0, 0), BuildingBlock: FUNLAD_clean_linker_0, # of connection points: 2
#     Edge 37, Type (0, 0), BuildingBlock: FUNLAD_clean_linker_0, # of connection points: 2
#     Edge 38, Type (0, 0), BuildingBlock: FUNLAD_clean_linker_0, # of connection points: 2
#     Edge 39, Type (0, 0), BuildingBlock: FUNLAD_clean_linker_0, # of connection points: 2
#     Edge 40, Type (0, 0), BuildingBlock: FUNLAD_clean_linker_0, # of connection points: 2
#     Edge 41, Type (0, 0), BuildingBlock: FUNLAD_clean_linker_0, # of connection points: 2
# Relax obj value: 0.259
# Max RMSD: 0.171
# Mean RMSD: 0.171
data_MOF--net-wjv--node1-XOMCOT_clean_sbu_1--edge1-FUNLAD_clean_linker_0
_symmetry_space_group_name_H-M    P1
_symmetry_Int_Tables_number       1
_symmetry_cell_setting            triclinic
loop_
_symmetry_equiv_pos_as_xyz
'x, y, z'
_cell_length_a     40.064193
_cell_length_b     40.033528
_cell_length_c     57.530703
_cell_angle_alpha  90.025276
_cell_angle_beta   89.963642
_cell_angle_gamma 120.1021
loop_
_atom_site_label
_atom_site_type_symbol
_atom_site_fract_x
_atom_site_fract_y
_atom_site_fract_z
_atom_type_partial_charge
C0 C 0.22193 0.31312 0.21617 0.0
C1 C 0.22592 0.30344 0.23848 0.0
N2 N 0.25998 0.33115 0.24703 0.0
N3 N 0.25316 0.34695 0.21033 0.0
C4 C 0.276 0.35734 0.22956 0.0
H5 H 0.19806 0.29593 0.20465 0.0
Co6 Co 0.25856 0.36781 0.18008 0.0
C7 C 0.33995 0.43104 0.17588 0.0
O8 O 0.33659 0.41802 0.15454 0.0
N9 N 0.26194 0.38874 0.14959 0.0
C10 C 0.26285 0.4322 0.12498 0.0
C11 C 0.26954 0.42551 0.14737 0.0
C12 C 0.25012 0.37349 0.12793 0.0
N13 N 0.25048 0.39952 0.11271 0.0
O14 O 0.22287 0.38623 0.18869 0.0
H15 H 0.27738 0.44574 0.1616 0.0
H16 H 0.23835 0.3434 0.12365 0.0
O17 O 0.30971 0.41582 0.18918 0.0
C18 C 0.19063 0.36037 0.17965 0.0
O19 O 0.19055 0.33232 0.16776 0.0
N20 N 0.2855 0.34269 0.17162 0.0
C21 C 0.28561 0.27596 0.18322 0.0
C22 C 0.31564 0.31151 0.19079 0.0
C23 C 0.31519 0.34496 0.18469 0.0
C24 C 0.26019 0.30891 0.16103 0.0
C25 C 0.25992 0.27502 0.16648 0.0
H26 H 0.33427 0.37056 0.19434 0.0
H27 H 0.2352 0.30618 0.1523 0.0
H28 H 0.30398 0.38323 0.23064 0.0
H29 H 0.20573 0.27718 0.24742 0.0
H30 H 0.265 0.45858 0.11846 0.0
H31 H 0.33569 0.31301 0.20396 0.0
H32 H 0.23621 0.24774 0.16044 0.0
C33 C 0.90464 0.21297 0.54978 0.0
C34 C 0.9222 0.21744 0.57095 0.0
N35 N 0.92901 0.25107 0.5805 0.0
N36 N 0.89984 0.24336 0.54562 0.0
C37 C 0.91471 0.26611 0.56479 0.0
H38 H 0.89643 0.18918 0.53789 0.0
Co39 Co 0.87916 0.24734 0.5168 0.0
C40 C 0.89437 0.32836 0.5135 0.0
O41 O 0.89965 0.32486 0.49129 0.0
N42 N 0.85681 0.24934 0.48778 0.0
C43 C 0.81234 0.25079 0.46532 0.0
C44 C 0.82696 0.25599 0.48736 0.0
C45 C 0.85905 0.23911 0.46548 0.0
N46 N 0.83213 0.2397 0.45145 0.0
O47 O 0.82696 0.21162 0.52827 0.0
H48 H 0.81581 0.26333 0.50244 0.0
H49 H 0.87829 0.22923 0.45979 0.0
O50 O 0.88276 0.29841 0.52688 0.0
C51 C 0.81862 0.17919 0.5187 0.0
O52 O 0.84407 0.17848 0.50462 0.0
N53 N 0.92924 0.27482 0.50534 0.0
C54 C 0.00571 0.29518 0.49975 0.0
C55 C 0.99613 0.31898 0.51234 0.0
C56 C 0.95767 0.30772 0.51552 0.0
C57 C 0.93844 0.25258 0.49187 0.0
C58 C 0.97674 0.26257 0.4885 0.0
H59 H 0.95142 0.32309 0.52851 0.0
H60 H 0.91609 0.22453 0.48614 0.0
H61 H 0.91621 0.29367 0.56686 0.0
H62 H 0.92932 0.19716 0.57866 0.0
H63 H 0.78839 0.25437 0.46009 0.0
H64 H 0.01797 0.34389 0.52171 0.0
H65 H 0.98327 0.24286 0.47935 0.0
C66 C 0.69957 0.91847 0.88103 0.0
C67 C 0.71105 0.93309 0.903 0.0
N68 N 0.68067 0.93088 0.91445 0.0
N69 N 0.66181 0.90643 0.87825 0.0
C70 C 0.65103 0.91464 0.89899 0.0
H71 H 0.71823 0.91823 0.86756 0.0
Co72 Co 0.63746 0.88838 0.84894 0.0
C73 C 0.55678 0.87837 0.86964 0.0
O74 O 0.53722 0.84608 0.88138 0.0
N75 N 0.61395 0.87082 0.81931 0.0
C76 C 0.57646 0.85898 0.78827 0.0
C77 C 0.58242 0.87084 0.81105 0.0
C78 C 0.62669 0.85897 0.80094 0.0
N79 N 0.60437 0.8515 0.7818 0.0
O80 O 0.6246 0.83519 0.85699 0.0
H81 H 0.56532 0.88019 0.82051 0.0
H82 H 0.65245 0.85678 0.80133 0.0
O83 O 0.58915 0.88586 0.8606 0.0
C84 C 0.65336 0.83237 0.84929 0.0
O85 O 0.68212 0.86307 0.83968 0.0
N86 N 0.65489 0.93853 0.8401 0.0
C87 C 0.69523 0.01608 0.82861 0.0
C88 C 0.66688 1.00261 0.846 0.0
C89 C 0.64815 0.96388 0.85212 0.0
C90 C 0.68069 0.95066 0.8223 0.0
C91 C 0.70114 0.98936 0.81616 0.0
H92 H 0.62966 0.9548 0.8672 0.0
H93 H 0.6874 0.93063 0.81386 0.0
H94 H 0.62237 0.90966 0.90253 0.0
H95 H 0.74018 0.94597 0.90966 0.0
H96 H 0.55404 0.85756 0.77713 0.0
H97 H 0.66129 0.0222 0.856 0.0
H98 H 0.7236 0.99843 0.80316 0.0
C99 C 0.80602 0.70089 0.22276 0.0
C100 C 0.7986 0.70944 0.24463 0.0
N101 N 0.76422 0.68043 0.25161 0.0
N102 N 0.77643 0.66657 0.21578 0.0
C103 C 0.75116 0.65475 0.23387 0.0
H104 H 0.83094 0.71935 0.21227 0.0
Co105 Co 0.7746 0.64637 0.18579 0.0
C106 C 0.69406 0.58098 0.17927 0.0
O107 O 0.69867 0.5936 0.15777 0.0
N108 N 0.77449 0.62603 0.15569 0.0
C109 C 0.77444 0.5824 0.13163 0.0
C110 C 0.76837 0.58972 0.15398 0.0
C111 C 0.78497 0.64046 0.13376 0.0
N112 N 0.78518 0.6143 0.11883 0.0
O113 O 0.80953 0.62825 0.19612 0.0
H114 H 0.76089 0.56991 0.16841 0.0
H115 H 0.79439 0.66994 0.12895 0.0
O116 O 0.72301 0.59734 0.19351 0.0
C117 C 0.843 0.65586 0.18982 0.0
O118 O 0.84482 0.68553 0.17891 0.0
N119 N 0.74779 0.67054 0.17563 0.0
C120 C 0.72503 0.72516 0.17067 0.0
C121 C 0.70177 0.69085 0.18268 0.0
C122 C 0.71418 0.66448 0.18553 0.0
C123 C 0.77013 0.70331 0.16318 0.0
C124 C 0.75902 0.73089 0.16017 0.0
H125 H 0.69842 0.64144 0.19764 0.0
H126 H 0.79854 0.71 0.15757 0.0
H127 H 0.72322 0.62868 0.23377 0.0
H128 H 0.81639 0.73567 0.25435 0.0
H129 H 0.77198 0.55575 0.12537 0.0
H130 H 0.67555 0.68571 0.1913 0.0
H131 H 0.77833 0.75772 0.15139 0.0
C132 C 0.07839 0.78387 0.5396 0.0
C133 C 0.06205 0.78066 0.56113 0.0
N134 N 0.07031 0.75841 0.57483 0.0
N135 N 0.09717 0.76388 0.53935 0.0
C136 C 0.09204 0.74891 0.56118 0.0
H137 H 0.07588 0.79907 0.52477 0.0
Co138 Co 0.12002 0.75756 0.51196 0.0
C139 C 0.12239 0.68489 0.5363 0.0
O140 O 0.15042 0.69266 0.551 0.0
N141 N 0.14315 0.75183 0.48432 0.0
C142 C 0.16435 0.72811 0.45669 0.0
C143 C 0.14976 0.72288 0.47885 0.0
C144 C 0.1546 0.77461 0.46504 0.0
N145 N 0.16733 0.76065 0.4478 0.0
O146 O 0.17105 0.79751 0.52275 0.0
H147 H 0.14366 0.69871 0.48987 0.0
H148 H 0.1527 0.8005 0.46346 0.0
O149 O 0.12139 0.71339 0.52671 0.0
C150 C 0.1759 0.82933 0.51421 0.0
O151 O 0.14731 0.8282 0.50239 0.0
N152 N 0.07125 0.72377 0.50027 0.0
C153 C 0.9958 0.68602 0.48395 0.0
C154 C 1.0054 0.67395 0.50456 0.0
C155 C 0.04334 0.69345 0.51252 0.0
C156 C 0.06258 0.73506 0.47991 0.0
C157 C 0.02536 0.71581 0.47104 0.0
H158 H 0.04963 0.68587 0.52929 0.0
H159 H 0.08393 0.76075 0.47115 0.0
H160 H 0.10275 0.73022 0.56674 0.0
H161 H 0.04519 0.79375 0.56619 0.0
H162 H 0.1709 0.70843 0.44762 0.0
H163 H 0.98343 0.65191 0.51552 0.0
H164 H 0.01935 0.7262 0.4551 0.0
C165 C 0.30506 0.0876 0.88043 0.0
C166 C 0.29597 0.07493 0.90295 0.0
N167 N 0.32785 0.07914 0.91351 0.0
N168 N 0.34273 0.10033 0.87647 0.0
C169 C 0.35597 0.09494 0.8971 0.0
H170 H 0.28471 0.0855 0.86738 0.0
Co171 Co 0.36481 0.11463 0.84627 0.0
C172 C 0.44617 0.12498 0.86515 0.0
O173 O 0.46671 0.15917 0.87473 0.0
N174 N 0.38656 0.12875 0.81601 0.0
C175 C 0.41593 0.12826 0.78322 0.0
C176 C 0.40949 0.11695 0.80609 0.0
C177 C 0.37986 0.14768 0.79868 0.0
N178 N 0.39726 0.14753 0.77856 0.0
O179 O 0.37976 0.16907 0.8527 0.0
H180 H 0.4195 0.09954 0.81457 0.0
H181 H 0.36105 0.15964 0.80024 0.0
O182 O 0.41298 0.11576 0.85674 0.0
C183 C 0.34899 0.16921 0.84617 0.0
O184 O 0.32101 0.1368 0.83754 0.0
N185 N 0.34475 0.0628 0.83911 0.0
C186 C 0.30235 0.98401 0.83021 0.0
C187 C 0.32697 0.99818 0.84952 0.0
C188 C 0.34794 0.03765 0.85363 0.0
C189 C 0.32154 0.04973 0.82004 0.0
C190 C 0.30091 0.01053 0.81489 0.0
H191 H 0.36565 0.04775 0.86901 0.0
H192 H 0.3179 0.06968 0.80915 0.0
H193 H 0.38512 0.10074 0.89974 0.0
H194 H 0.26738 0.06137 0.9105 0.0
H195 H 0.43249 0.12213 0.77081 0.0
H196 H 0.32846 0.97909 0.86226 0.0
H197 H 0.28272 1.00113 0.7996 0.0
C198 C 0.70697 0.79293 0.4759 0.0
C199 C 0.71685 0.78824 0.45376 0.0
N200 N 0.68721 0.75615 0.44454 0.0
N201 N 0.671 0.7642 0.48083 0.0
C202 C 0.65965 0.74207 0.4613 0.0
H203 H 0.7253 0.81567 0.48781 0.0
Co204 Co 0.64694 0.76021 0.50988 0.0
C205 C 0.58048 0.68008 0.5123 0.0
O206 O 0.59048 0.68245 0.53425 0.0
N207 N 0.62254 0.75805 0.53894 0.0
C208 C 0.57619 0.75705 0.5609 0.0
C209 C 0.58585 0.75105 0.53911 0.0
C210 C 0.63489 0.76949 0.56112 0.0
N211 N 0.60709 0.76898 0.5748 0.0
O212 O 0.63269 0.79841 0.49947 0.0
H213 H 0.56753 0.74345 0.52394 0.0
H214 H 0.66417 0.78083 0.56696 0.0
O215 O 0.59849 0.71043 0.49923 0.0
C216 C 0.6612 0.82932 0.50814 0.0
O217 O 0.68683 0.82525 0.52017 0.0
N218 N 0.66777 0.73035 0.52068 0.0
C219 C 0.71872 0.70349 0.52892 0.0
C220 C 0.68826 0.68446 0.51316 0.0
C221 C 0.66354 0.69867 0.50906 0.0
C222 C 0.69662 0.74849 0.53652 0.0
C223 C 0.72155 0.73475 0.54155 0.0
H224 H 0.64384 0.68646 0.49475 0.0
H225 H 0.70326 0.77611 0.54344 0.0
H226 H 0.63192 0.71607 0.45937 0.0
H227 H 0.7443 0.80646 0.44532 0.0
H228 H 0.54875 0.75396 0.56593 0.0
H229 H 0.68579 0.66128 0.50224 0.0
H230 H 0.74492 0.75067 0.55369 0.0
C231 C 0.92192 0.71093 0.80821 0.0
C232 C 0.93516 0.72123 0.78583 0.0
N233 N 0.93702 0.69181 0.77587 0.0
N234 N 0.91476 0.67484 0.81253 0.0
C235 C 0.92434 0.66381 0.79236 0.0
H236 H 0.91735 0.72859 0.82057 0.0
Co237 Co 0.8946 0.65126 0.84168 0.0
C238 C 0.90829 0.58411 0.84483 0.0
O239 O 0.91406 0.59299 0.86702 0.0
N240 N 0.87248 0.62791 0.87115 0.0
C241 C 0.82966 0.58358 0.89544 0.0
C242 C 0.84322 0.59104 0.87299 0.0
C243 C 0.87474 0.64262 0.89281 0.0
N244 N 0.84942 0.61614 0.90795 0.0
O245 O 0.84193 0.63605 0.83104 0.0
H246 H 0.83163 0.57098 0.85862 0.0
H247 H 0.89318 0.6724 0.8975 0.0
O248 O 0.89632 0.60241 0.83168 0.0
C249 C 0.83548 0.66165 0.84038 0.0
O250 O 0.86301 0.68867 0.8531 0.0
N251 N 0.94519 0.67227 0.85262 0.0
C252 C 0.02135 0.71237 0.86796 0.0
C253 C 0.01027 0.68518 0.85 0.0
C254 C 0.97235 0.66617 0.84224 0.0
C255 C 0.95612 0.70063 0.86883 0.0
C256 C 0.99357 0.71986 0.87751 0.0
H257 H 0.96551 0.64804 0.8271 0.0
H258 H 0.93646 0.71022 0.874 0.0
H259 H 0.92129 0.63568 0.78961 0.0
H260 H 0.9426 0.74825 0.77737 0.0
H261 H 0.80586 0.55669 0.90179 0.0
H262 H 0.03114 0.68036 0.84088 0.0
H263 H 1.00101 0.74176 0.89071 0.0
C264 C 0.26581 0.87078 0.13028 0.0
C265 C 0.26981 0.881 0.10718 0.0
N266 N 0.27584 0.91718 0.10553 0.0
N267 N 0.26865 0.89994 0.14353 0.0
C268 C 0.27502 0.92794 0.12779 0.0
H269 H 0.26192 0.84387 0.13709 0.0
Co270 Co 0.27136 0.89967 0.17687 0.0
C271 C 0.3417 0.91599 0.17149 0.0
O272 O 0.33971 0.94763 0.16987 0.0
N273 N 0.27601 0.9006 0.20953 0.0
C274 C 0.29735 0.92796 0.24406 0.0
C275 C 0.30275 0.93269 0.22049 0.0
C276 C 0.25467 0.87637 0.227 0.0
N277 N 0.26696 0.89265 0.24827 0.0
O278 O 0.22369 0.84583 0.17822 0.0
H279 H 0.32395 0.95872 0.21184 0.0
H280 H 0.22949 0.84833 0.22422 0.0
O281 O 0.31007 0.88365 0.17425 0.0
C282 C 0.19262 0.83393 0.166 0.0
O283 O 0.19231 0.85616 0.14932 0.0
N284 N 0.24065 0.92193 0.18043 0.0
C285 C 0.22195 0.97252 0.20142 0.0
C286 C 0.25362 0.98631 0.18656 0.0
C287 C 0.26297 0.96056 0.17674 0.0
C288 C 0.20819 0.90775 0.19398 0.0
C289 C 0.1981 0.93286 0.20458 0.0
H290 H 0.29101 0.97207 0.16884 0.0
H291 H 0.19266 0.87792 0.19925 0.0
H292 H 0.28078 0.95643 0.13234 0.0
H293 H 0.26871 0.86309 0.09279 0.0
H294 H 0.31412 0.9493 0.25714 0.0
H295 H 0.2732 0.01705 0.18447 0.0
H296 H 0.17413 0.92173 0.21664 0.0
C297 C 0.31677 0.21655 0.47304 0.0
C298 C 0.30435 0.22202 0.45193 0.0
N299 N 0.3319 0.25567 0.44291 0.0
N300 N 0.35214 0.24654 0.47767 0.0
C301 C 0.36087 0.27003 0.4588 0.0
H302 H 0.30028 0.19277 0.48477 0.0
Co303 Co 0.37472 0.24972 0.50697 0.0
C304 C 0.4436 0.32908 0.51062 0.0
O305 O 0.43487 0.32585 0.53282 0.0
N306 N 0.39653 0.25072 0.53674 0.0
C307 C 0.43813 0.25067 0.5625 0.0
C308 C 0.43209 0.25525 0.53949 0.0
C309 C 0.38104 0.24182 0.55843 0.0
N310 N 0.4059 0.24204 0.57439 0.0
O311 O 0.38952 0.21205 0.49685 0.0
H312 H 0.4522 0.26087 0.52544 0.0
H313 H 0.3518 0.23402 0.56263 0.0
O314 O 0.42422 0.29929 0.49727 0.0
C315 C 0.36372 0.18033 0.50639 0.0
O316 O 0.33703 0.18131 0.51915 0.0
N317 N 0.35396 0.27959 0.51732 0.0
C318 C 0.3094 0.31199 0.52987 0.0
C319 C 0.342 0.33243 0.51581 0.0
C320 C 0.36274 0.31495 0.50883 0.0
C321 C 0.32192 0.2591 0.53062 0.0
C322 C 0.2996 0.27496 0.53752 0.0
H323 H 0.38395 0.32903 0.49541 0.0
H324 H 0.31205 0.22921 0.53458 0.0
H325 H 0.38678 0.2979 0.45727 0.0
H326 H 0.27654 0.20317 0.44406 0.0
H327 H 0.46361 0.25179 0.56975 0.0
H328 H 0.34985 0.36057 0.50886 0.0
H329 H 0.27332 0.25716 0.54719 0.0
C330 C 0.10076 0.30948 0.80902 0.0
C331 C 0.08583 0.29619 0.78732 0.0
N332 N 0.08727 0.32545 0.77497 0.0
N333 N 0.11219 0.34728 0.81071 0.0
C334 C 0.10326 0.35628 0.78961 0.0
H335 H 0.10224 0.29226 0.82301 0.0
Co336 Co 0.13134 0.37347 0.8394 0.0
C337 C 0.13258 0.45048 0.81822 0.0
O338 O 0.16131 0.47173 0.80411 0.0
N339 N 0.15018 0.39845 0.86857 0.0
C340 C 0.16745 0.43892 0.8986 0.0
C341 C 0.15576 0.43299 0.87574 0.0
C342 C 0.15911 0.38421 0.88754 0.0
N343 N 0.16945 0.40811 0.90612 0.0
O344 O 0.1842 0.38857 0.8298 0.0
H345 H 0.1512 0.45275 0.86533 0.0
H346 H 0.15668 0.35611 0.88807 0.0
O347 O 0.13077 0.41999 0.82695 0.0
C348 C 0.19017 0.36175 0.83747 0.0
O349 O 0.16226 0.33295 0.84893 0.0
N350 N 0.08143 0.35377 0.84936 0.0
C351 C 1.00462 0.29995 0.85539 0.0
C352 C 0.01544 0.33131 0.84045 0.0
C353 C 0.05428 0.35762 0.83729 0.0
C354 C 0.07105 0.3254 0.86553 0.0
C355 C 0.03252 0.29817 0.86901 0.0
H356 H 0.06221 0.37804 0.82327 0.0
H357 H 0.09271 0.321 0.87377 0.0
H358 H 0.10816 0.38461 0.78509 0.0
H359 H 0.07396 0.26679 0.78124 0.0
H360 H 0.17397 0.46414 0.90885 0.0
H361 H 0.99437 0.33324 0.8296 0.0
H362 H 0.02514 0.27378 0.88031 0.0
C363 C 0.79172 0.08716 0.14706 0.0
C364 C 0.78809 0.06913 0.12616 0.0
N365 N 0.76181 0.07212 0.11306 0.0
N366 N 0.76817 0.10204 0.14753 0.0
C367 C 0.75069 0.09301 0.12627 0.0
H368 H 0.80912 0.08764 0.16154 0.0
Co369 Co 0.76109 0.12262 0.17567 0.0
C370 C 0.69226 0.13222 0.15336 0.0
O371 O 0.6939 0.15886 0.13932 0.0
N372 N 0.75517 0.14353 0.20422 0.0
C373 C 0.73811 0.17188 0.23133 0.0
C374 C 0.73323 0.15964 0.20863 0.0
C375 C 0.77377 0.14726 0.22466 0.0
N376 N 0.76379 0.16424 0.24158 0.0
O377 O 0.8072 0.17305 0.16857 0.0
H378 H 0.71491 0.16297 0.19628 0.0
H379 H 0.79456 0.13791 0.22704 0.0
O380 O 0.72464 0.13559 0.15995 0.0
C381 C 0.83692 0.17512 0.17853 0.0
O382 O 0.83193 0.14496 0.19042 0.0
N383 N 0.72099 0.07356 0.18359 0.0
C384 C 0.67621 0.99472 0.19222 0.0
C385 C 0.66773 0.01158 0.17351 0.0
C386 C 0.69166 0.05061 0.16888 0.0
C387 C 0.72787 0.05812 0.20283 0.0
C388 C 0.70573 0.01886 0.20758 0.0
H389 H 0.68804 0.0614 0.15258 0.0
H390 H 0.75304 0.07531 0.21332 0.0
H391 H 0.72834 0.09918 0.12119 0.0
H392 H 0.80291 0.05382 0.1213 0.0
H393 H 0.72344 0.18525 0.23951 0.0
H394 H 0.64512 0.99424 0.16122 0.0
H395 H 0.71446 0.00726 0.22182 0.0
C396 C 0.35572 0.28879 0.40467 0.0
C397 C 0.32734 0.27346 0.42216 0.0
C398 C 0.3482 0.30099 0.38323 0.0
C399 C 0.31223 0.29853 0.37909 0.0
C400 C 0.28485 0.28468 0.39713 0.0
C401 C 0.29216 0.27219 0.41818 0.0
C402 C 0.30069 0.30885 0.35651 0.0
C403 C 0.32015 0.31714 0.33609 0.0
C404 C 0.30443 0.32307 0.31363 0.0
C405 C 0.32964 0.34289 0.29504 0.0
C406 C 0.31546 0.34689 0.27343 0.0
C407 C 0.27555 0.33064 0.26974 0.0
H408 H 0.24367 0.2909 0.32322 0.0
C409 C 0.25048 0.31132 0.28841 0.0
C410 C 0.26455 0.30742 0.30991 0.0
H411 H 0.21962 0.29865 0.28634 0.0
H412 H 0.38303 0.28989 0.40724 0.0
H413 H 0.37039 0.31181 0.37003 0.0
H414 H 0.257 0.28252 0.39476 0.0
H415 H 0.26986 0.26081 0.43136 0.0
H416 H 0.27347 0.30854 0.35684 0.0
H417 H 0.34821 0.3193 0.33549 0.0
H418 H 0.36045 0.35499 0.29716 0.0
H419 H 0.33561 0.36156 0.2594 0.0
C420 C 0.9735 0.25503 0.61187 0.0
C421 C 0.94867 0.26696 0.6025 0.0
C422 C 0.99069 0.26776 0.63372 0.0
C423 C 0.98424 0.29355 0.64709 0.0
C424 C 0.96 0.30616 0.63752 0.0
C425 C 0.94259 0.29322 0.61553 0.0
C426 C 1.00076 0.30645 0.67124 0.0
C427 C 0.02859 0.30062 0.6805 0.0
C428 C 0.04381 0.30951 0.705 0.0
C429 C 0.06427 0.29177 0.71304 0.0
C430 C 0.07912 0.29799 0.73559 0.0
C431 C 0.07447 0.32254 0.75105 0.0
H432 H 0.02452 0.34958 0.71475 0.0
C433 C 0.05495 0.34141 0.74304 0.0
C434 C 0.03952 0.33479 0.72027 0.0
H435 H 0.05071 0.36036 0.75455 0.0
H436 H 0.9797 0.23545 0.60237 0.0
H437 H 0.00824 0.25623 0.64001 0.0
H438 H 0.95411 0.32583 0.64722 0.0
H439 H 0.92362 0.30303 0.60905 0.0
H440 H 0.98885 0.32046 0.68177 0.0
H441 H 0.04081 0.28717 0.66982 0.0
H442 H 0.06845 0.27236 0.70187 0.0
H443 H 0.09429 0.2833 0.74102 0.0
C444 C 0.70895 0.94689 0.95398 0.0
C445 C 0.68196 0.9455 0.93777 0.0
C446 C 0.71357 0.96428 0.97577 0.0
C447 C 0.69097 0.98064 0.98236 0.0
C448 C 0.6635 0.9788 0.9663 0.0
C449 C 0.65882 0.96123 0.94435 0.0
C450 C 0.69685 1.00122 1.00528 0.0
C451 C 0.71249 0.99387 0.0241 0.0
C452 C 0.72156 0.01416 0.04723 0.0
C453 C 0.73331 0.99865 0.06523 0.0
C454 C 0.74518 0.01709 0.08673 0.0
C455 C 0.74609 0.05209 0.09119 0.0
H456 H 0.71239 0.06179 0.03844 0.0
C457 C 0.73297 0.06724 0.07359 0.0
C458 C 0.72101 0.0486 0.05176 0.0
H459 H 0.73319 0.09408 0.07643 0.0
H460 H 0.72712 0.93491 0.94969 0.0
H461 H 0.73589 0.96579 0.98702 0.0
H462 H 0.64579 0.99131 0.97066 0.0
H463 H 0.63806 0.96111 0.93228 0.0
H464 H 0.68747 0.0223 1.0066 0.0
H465 H 0.71894 0.97065 0.02279 0.0
H466 H 0.73392 0.97216 0.06258 0.0
H467 H 0.75396 1.00381 0.09992 0.0
C468 C 0.7498 0.6679 0.29346 0.0
C469 C 0.74406 0.68127 0.27213 0.0
C470 C 0.73644 0.67553 0.31429 0.0
C471 C 0.71735 0.69709 0.31414 0.0
C472 C 0.71085 0.70944 0.29257 0.0
C473 C 0.72396 0.70155 0.27183 0.0
C474 C 0.70731 0.71064 0.33594 0.0
C475 C 0.70187 0.69366 0.35701 0.0
C476 C 0.69501 0.7099 0.37882 0.0
C477 C 0.67518 0.68522 0.39757 0.0
C478 C 0.67088 0.70005 0.41883 0.0
C479 C 0.68713 0.74007 0.42198 0.0
H480 H 0.72646 0.77007 0.36814 0.0
C481 C 0.7064 0.76466 0.40313 0.0
C482 C 0.71022 0.74987 0.38184 0.0
H483 H 0.71917 0.79561 0.405 0.0
H484 H 0.76616 0.65309 0.29407 0.0
H485 H 0.74294 0.66627 0.33048 0.0
H486 H 0.69661 0.72636 0.29181 0.0
H487 H 0.72003 0.71283 0.25559 0.0
H488 H 0.70384 0.73577 0.33434 0.0
H489 H 0.70182 0.6666 0.35844 0.0
H490 H 0.66342 0.65436 0.39589 0.0
H491 H 0.65629 0.68041 0.43309 0.0
C492 C 0.02366 0.74621 0.60684 0.0
C493 C 0.05691 0.74643 0.59857 0.0
C494 C 0.0112 0.73629 0.62991 0.0
C495 C 0.03134 0.72579 0.64566 0.0
C496 C 0.06447 0.72575 0.63736 0.0
C497 C 0.07696 0.73568 0.61417 0.0
C498 C 0.01979 0.71639 0.67089 0.0
C499 C 0.98489 0.70801 0.67955 0.0
C500 C 0.97283 0.70115 0.70473 0.0
C501 C 0.93926 0.70191 0.71104 0.0
C502 C 0.92691 0.69728 0.73419 0.0
C503 C 0.94719 0.69088 0.75184 0.0
H504 H 0.01864 0.69267 0.71847 0.0
C505 C 0.9801 0.68876 0.74573 0.0
C506 C 0.99296 0.69402 0.72242 0.0
H507 H 0.99659 0.68447 0.7591 0.0
H508 H 0.00697 0.75374 0.59547 0.0
H509 H 0.98616 0.73785 0.63523 0.0
H510 H 0.08098 0.71819 0.64892 0.0
H511 H 0.10281 0.73575 0.60864 0.0
H512 H 0.0412 0.71684 0.68262 0.0
H513 H 0.96343 0.70689 0.66762 0.0
H514 H 0.92285 0.70712 0.69803 0.0
H515 H 0.90172 0.69941 0.73848 0.0
C516 C 0.30259 0.06139 0.95368 0.0
C517 C 0.32899 0.0646 0.93643 0.0
C518 C 0.30027 0.04349 0.97502 0.0
C519 C 0.32461 0.02842 0.97993 0.0
C520 C 0.35165 0.03243 0.96286 0.0
C521 C 0.35396 0.05041 0.94145 0.0
C522 C 0.32135 0.00658 1.00188 0.0
C523 C 0.3023 0.0071 0.02125 0.0
C524 C 0.2973 0.98407 0.04291 0.0
C525 C 0.28448 0.99351 0.06334 0.0
C526 C 0.27777 0.97198 0.08381 0.0
C527 C 0.28348 0.94005 0.08449 0.0
H528 H 0.31216 0.94309 0.02828 0.0
C529 C 0.29645 0.93064 0.06404 0.0
C530 C 0.30314 0.95218 0.04356 0.0
H531 H 0.30162 0.90661 0.06376 0.0
H532 H 0.28307 0.0722 0.95053 0.0
H533 H 0.27843 0.04063 0.98719 0.0
H534 H 0.37069 0.02099 0.96593 0.0
H535 H 0.3743 0.05185 0.92853 0.0
H536 H 0.33589 0.9899 1.00197 0.0
H537 H 0.29017 0.02596 0.02174 0.0
H538 H 0.27933 0.01762 0.06347 0.0
H539 H 0.2674 0.98004 0.09895 0.0
C540 C 0.17364 0.42027 0.94862 0.0
C541 C 0.17891 0.40162 0.92942 0.0
C542 C 0.18334 0.41483 0.97113 0.0
C543 C 0.19837 0.39019 0.97524 0.0
C544 C 0.20382 0.37165 0.95604 0.0
C545 C 0.194 0.37705 0.93345 0.0
C546 C 0.21035 0.38485 0.99905 0.0
C547 C 0.19586 0.39087 0.01884 0.0
C548 C 0.20903 0.38968 0.04307 0.0
C549 C 0.19716 0.40539 0.06091 0.0
C550 C 0.20981 0.40731 0.08372 0.0
C551 C 0.23441 0.39314 0.08958 0.0
H552 H 0.24217 0.36122 0.03599 0.0
C553 C 0.24516 0.37576 0.07213 0.0
C554 C 0.23281 0.37424 0.04901 0.0
H555 H 0.26415 0.36465 0.07625 0.0
H556 H 0.16186 0.43915 0.94635 0.0
H557 H 0.17975 0.43083 0.9851 0.0
H558 H 0.21577 0.35289 0.95851 0.0
H559 H 0.19895 0.36255 0.91912 0.0
H560 H 0.23183 0.37599 1.00004 0.0
H561 H 0.17345 0.39842 0.01741 0.0
H562 H 0.17864 0.41721 0.05711 0.0
H563 H 0.20072 0.42045 0.09687 0.0
C564 C 0.77016 0.19743 0.27931 0.0
C565 C 0.77734 0.1726 0.2655 0.0
C566 C 0.78207 0.20483 0.30253 0.0
C567 C 0.80164 0.18763 0.31282 0.0
C568 C 0.80985 0.16371 0.29897 0.0
C569 C 0.79769 0.15607 0.27569 0.0
C570 C 0.81433 0.19475 0.33772 0.0
C571 C 0.79557 0.20319 0.35414 0.0
C572 C 0.80613 0.21017 0.37933 0.0
C573 C 0.77799 0.20757 0.39491 0.0
C574 C 0.78635 0.21612 0.41843 0.0
C575 C 0.82346 0.22823 0.42726 0.0
H576 H 0.86585 0.22401 0.37662 0.0
C577 C 0.85165 0.22999 0.41183 0.0
C578 C 0.84313 0.22111 0.38808 0.0
H579 H 0.88056 0.23931 0.41794 0.0
H580 H 0.75559 0.21172 0.27225 0.0
H581 H 0.77639 0.22463 0.3122 0.0
H582 H 0.8252 0.15033 0.30629 0.0
H583 H 0.80389 0.13676 0.26591 0.0
H584 H 0.83833 0.19094 0.34272 0.0
H585 H 0.7696 0.20352 0.34914 0.0
H586 H 0.7492 0.19907 0.38885 0.0
H587 H 0.76343 0.21327 0.42967 0.0
C588 C 0.57894 0.82306 0.74302 0.0
C589 C 0.60989 0.84015 0.75881 0.0
C590 C 0.58424 0.81374 0.72042 0.0
C591 C 0.62081 0.82137 0.7128 0.0
C592 C 0.65149 0.83712 0.72876 0.0
C593 C 0.64621 0.84658 0.75145 0.0
C594 C 0.62744 0.81254 0.68851 0.0
C595 C 0.60595 0.81236 0.67038 0.0
C596 C 0.60994 0.80318 0.64568 0.0
C597 C 0.58798 0.80902 0.62888 0.0
C598 C 0.58806 0.79882 0.60572 0.0
C599 C 0.61002 0.78224 0.5985 0.0
H600 H 0.6502 0.78226 0.65074 0.0
C601 C 0.63317 0.77743 0.61502 0.0
C602 C 0.63301 0.78759 0.63845 0.0
H603 H 0.65033 0.76462 0.60999 0.0
H604 H 0.5503 0.81652 0.74812 0.0
H605 H 0.55934 0.80006 0.70912 0.0
H606 H 0.67988 0.84288 0.72352 0.0
H607 H 0.67083 0.85969 0.76298 0.0
H608 H 0.65144 0.80772 0.6856 0.0
H609 H 0.58407 0.82023 0.67361 0.0
H610 H 0.57009 0.82114 0.63372 0.0
H611 H 0.57058 0.80381 0.59343 0.0
C612 C 0.82887 0.59058 0.9478 0.0
C613 C 0.84299 0.62163 0.93209 0.0
C614 C 0.82183 0.59532 0.97108 0.0
C615 C 0.82887 0.63142 0.97938 0.0
C616 C 0.84251 0.66235 0.9636 0.0
C617 C 0.84977 0.65764 0.9403 0.0
C618 C 0.82134 0.63736 1.00414 0.0
C619 C 0.82276 0.61593 0.02183 0.0
C620 C 0.81541 0.61987 0.04693 0.0
C621 C 0.82555 0.60045 0.06325 0.0
C622 C 0.81696 0.60013 0.08677 0.0
C623 C 0.7977 0.61908 0.09486 0.0
H624 H 0.78849 0.65517 0.04307 0.0
C625 C 0.78867 0.63989 0.07882 0.0
C626 C 0.79725 0.64016 0.05502 0.0
H627 H 0.77361 0.65456 0.08454 0.0
H628 H 0.82339 0.56249 0.94213 0.0
H629 H 0.81019 0.57032 0.98233 0.0
H630 H 0.84778 0.69036 0.96935 0.0
H631 H 0.85998 0.68203 0.92863 0.0
H632 H 0.81621 0.661 1.00781 0.0
H633 H 0.83099 0.5945 0.01791 0.0
H634 H 0.8397 0.58474 0.05776 0.0
H635 H 0.82499 0.58442 0.09867 0.0
C636 C 0.16871 0.8006 0.41398 0.0
C637 C 0.17922 0.77526 0.42431 0.0
C638 C 0.17842 0.81252 0.39072 0.0
C639 C 0.19903 0.79945 0.37718 0.0
C640 C 0.20985 0.77464 0.38765 0.0
C641 C 0.2004 0.76297 0.41079 0.0
C642 C 0.2091 0.80978 0.35206 0.0
C643 C 0.21002 0.84029 0.3414 0.0
C644 C 0.22294 0.85195 0.31678 0.0
C645 C 0.23754 0.89071 0.31054 0.0
C646 C 0.2511 0.90359 0.28804 0.0
C647 C 0.25007 0.87801 0.2709 0.0
H648 H 0.20876 0.79554 0.30334 0.0
C649 C 0.23405 0.8388 0.27673 0.0
C650 C 0.22079 0.82588 0.29947 0.0
H651 H 0.23272 0.81839 0.26389 0.0
H652 H 0.15208 0.81048 0.42359 0.0
H653 H 0.16879 0.83109 0.38336 0.0
H654 H 0.22582 0.76411 0.37786 0.0
H655 H 0.20979 0.74413 0.41801 0.0
H656 H 0.21827 0.79253 0.34234 0.0
H657 H 0.20383 0.85945 0.35148 0.0
H658 H 0.23917 0.91144 0.32327 0.0
H659 H 0.26251 0.93382 0.28406 0.0
C660 C 0.39091 0.14091 0.73593 0.0
C661 C 0.39451 0.16213 0.75616 0.0
C662 C 0.39087 0.15585 0.71397 0.0
C663 C 0.39487 0.19267 0.7117 0.0
C664 C 0.39816 0.2138 0.73196 0.0
C665 C 0.39739 0.19844 0.75401 0.0
C666 C 0.39855 0.21055 0.68842 0.0
C667 C 0.3803 0.18974 0.66935 0.0
C668 C 0.38637 0.20639 0.64552 0.0
C669 C 0.35652 0.18881 0.62909 0.0
C670 C 0.3624 0.20145 0.60596 0.0
C671 C 0.39861 0.23138 0.59862 0.0
H672 H 0.44621 0.25086 0.65035 0.0
C673 C 0.42835 0.24932 0.6151 0.0
C674 C 0.42228 0.23715 0.63833 0.0
H675 H 0.45649 0.27251 0.60992 0.0
H676 H 0.38845 0.11277 0.73712 0.0
H677 H 0.38912 0.13905 0.69879 0.0
H678 H 0.40161 0.24237 0.73071 0.0
H679 H 0.40047 0.21545 0.76935 0.0
H680 H 0.4164 0.24173 0.68708 0.0
H681 H 0.35957 0.15914 0.67122 0.0
H682 H 0.3287 0.16481 0.6341 0.0
H683 H 0.33908 0.18677 0.59362 0.0
C684 C 0.63489 0.56298 0.20457 0.0
C685 C 0.653 0.55414 0.18643 0.0
C686 C 0.59409 0.54544 0.20556 0.0
C687 C 0.57054 0.51847 0.18848 0.0
C688 C 0.58887 0.50785 0.17156 0.0
C689 C 0.62913 0.52531 0.17053 0.0
C690 C 0.52776 0.50326 0.18564 0.0
C691 C 0.50288 0.50384 0.20151 0.0
C692 C 0.46076 0.48885 0.19595 0.0
C693 C 0.43175 0.47059 0.21304 0.0
C694 C 0.39214 0.45402 0.20736 0.0
C695 C 0.38063 0.45588 0.18448 0.0
H696 H 0.47021 0.50767 0.16 0.0
C697 C 0.40992 0.47653 0.16794 0.0
C698 C 0.44908 0.49262 0.17352 0.0
H699 H 0.40249 0.47897 0.15016 0.0
H700 H 0.65212 0.58543 0.21697 0.0
H701 H 0.58137 0.55472 0.21884 0.0
H702 H 0.572 0.48718 0.15817 0.0
H703 H 0.64179 0.51805 0.15614 0.0
H704 H 0.51577 0.48994 0.16895 0.0
H705 H 0.5129 0.51395 0.21903 0.0
H706 H 0.43963 0.46763 0.23061 0.0
H707 H 0.37066 0.43807 0.22054 0.0
C708 C 0.91687 0.39838 0.50667 0.0
C709 C 0.91231 0.3692 0.52229 0.0
C710 C 0.94125 0.43773 0.51165 0.0
C711 C 0.96247 0.44967 0.53252 0.0
C712 C 0.95626 0.42056 0.54876 0.0
C713 C 0.9316 0.38095 0.54376 0.0
C714 C 0.99121 0.49169 0.53793 0.0
C715 C 1.00491 0.52122 0.52222 0.0
C716 C 0.03434 0.56326 0.52685 0.0
C717 C 0.04278 0.59066 0.50902 0.0
C718 C 0.07066 0.62995 0.51197 0.0
C719 C 0.09122 0.6434 0.53292 0.0
H720 H 0.05008 0.55736 0.56214 0.0
C721 C 0.0829 0.61611 0.55077 0.0
C722 C 0.0549 0.57682 0.54788 0.0
H723 H 0.09813 0.62516 0.56718 0.0
H724 H 0.90255 0.3907 0.48993 0.0
H725 H 0.94354 0.45838 0.49876 0.0
H726 H 0.97161 0.4284 0.56516 0.0
H727 H 0.92942 0.35962 0.55616 0.0
H728 H 1.00195 0.49794 0.55561 0.0
H729 H 0.99452 0.51466 0.5045 0.0
H730 H 0.02789 0.58158 0.4925 0.0
H731 H 0.07655 0.6496 0.49761 0.0
C732 C 0.44319 0.06163 0.85281 0.0
C733 C 0.46206 0.09757 0.86446 0.0
C734 C 0.45817 0.03626 0.853 0.0
C735 C 0.49342 0.0466 0.86409 0.0
C736 C 0.51292 0.08294 0.87502 0.0
C737 C 0.49736 0.10766 0.87548 0.0
C738 C 0.51186 0.02157 0.86339 0.0
C739 C 0.49213 0.98249 0.86543 0.0
C740 C 0.51065 0.95759 0.8665 0.0
C741 C 0.49543 0.92575 0.88167 0.0
C742 C 0.51073 0.90085 0.88267 0.0
C743 C 0.5413 0.90606 0.86807 0.0
H744 H 0.55283 0.98642 0.83925 0.0
C745 C 0.55554 0.93716 0.85216 0.0
C746 C 0.54111 0.96302 0.85174 0.0
H747 H 0.57716 0.9411 0.83954 0.0
H748 H 0.41727 0.05322 0.84303 0.0
H749 H 0.44276 0.00909 0.84376 0.0
H750 H 0.54034 0.09222 0.88349 0.0
H751 H 0.51335 0.13502 0.88445 0.0
H752 H 0.54318 0.03621 0.86289 0.0
H753 H 0.46116 0.96821 0.86826 0.0
H754 H 0.47164 0.92021 0.89305 0.0
H755 H 0.49828 0.87722 0.89499 0.0
C756 C 0.48842 0.39953 0.51791 0.0
C757 C 0.46663 0.36992 0.50174 0.0
C758 C 0.50256 0.43852 0.51257 0.0
C759 C 0.49585 0.44972 0.49071 0.0
C760 C 0.47661 0.42057 0.47384 0.0
C761 C 0.46189 0.38111 0.47932 0.0
C762 C 0.50887 0.49155 0.48559 0.0
C763 C 0.50754 0.51533 0.50196 0.0
C764 C 0.52105 0.55782 0.49962 0.0
C765 C 0.50792 0.57436 0.51623 0.0
C766 C 0.5243 0.61444 0.51812 0.0
C767 C 0.55462 0.63984 0.50351 0.0
H768 H 0.56045 0.57149 0.4706 0.0
C769 C 0.5658 0.62352 0.48548 0.0
C770 C 0.54928 0.5829 0.48359 0.0
H771 H 0.58936 0.64196 0.47402 0.0
H772 H 0.49319 0.39248 0.53532 0.0
H773 H 0.5184 0.45991 0.52583 0.0
H774 H 0.47143 0.42817 0.45669 0.0
H775 H 0.44514 0.35944 0.46641 0.0
H776 H 0.51811 0.50224 0.46806 0.0
H777 H 0.49492 0.50256 0.51867 0.0
H778 H 0.4862 0.55621 0.52881 0.0
H779 H 0.51517 0.62573 0.53238 0.0
C780 C 0.93033 0.53598 0.85127 0.0
C781 C 0.92584 0.56086 0.8358 0.0
C782 C 0.95439 0.5207 0.84608 0.0
C783 C 0.97537 0.52979 0.82509 0.0
C784 C 0.96936 0.55315 0.80906 0.0
C785 C 0.94503 0.5684 0.81428 0.0
C786 C 1.00418 0.51659 0.8194 0.0
C787 C 0.01486 0.4965 0.83393 0.0
C788 C 0.04465 0.48436 0.82893 0.0
C789 C 0.04986 0.46084 0.84519 0.0
C790 C 0.07781 0.44959 0.8419 0.0
C791 C 0.10169 0.46127 0.82209 0.0
H792 H 0.06659 0.51448 0.79614 0.0
C793 C 0.09664 0.48489 0.80586 0.0
C794 C 0.0687 0.49615 0.80913 0.0
H795 H 0.11442 0.4948 0.79039 0.0
H796 H 0.91626 0.52942 0.86809 0.0
H797 H 0.9569 0.50255 0.85901 0.0
H798 H 0.9846 0.56076 0.79262 0.0
H799 H 0.94305 0.5878 0.80199 0.0
H800 H 0.01753 0.52463 0.80239 0.0
H801 H 1.00134 0.48825 0.85086 0.0
H802 H 0.03232 0.45126 0.86077 0.0
H803 H 0.08108 0.43224 0.85513 0.0
C804 C 0.62477 0.08312 0.14149 0.0
C805 C 0.65278 0.09907 0.1592 0.0
C806 C 0.58664 0.05405 0.14619 0.0
C807 C 0.57493 0.03994 0.16894 0.0
C808 C 0.60301 0.05583 0.18668 0.0
C809 C 0.64132 0.08492 0.18193 0.0
C810 C 0.53348 0.01116 0.17514 0.0
C811 C 0.50573 0.98795 0.15967 0.0
C812 C 0.4632 0.96216 0.16497 0.0
C813 C 0.43803 0.94023 0.14677 0.0
C814 C 0.39767 0.92029 0.14971 0.0
C815 C 0.38116 0.92123 0.17105 0.0
H816 H 0.46404 0.97721 0.20142 0.0
C817 C 0.40616 0.94104 0.18967 0.0
C818 C 0.44651 0.96103 0.18678 0.0
H819 H 0.39437 0.94365 0.20609 0.0
H820 H 0.63233 0.0935 0.1238 0.0
H821 H 0.5663 0.04381 0.13195 0.0
H822 H 0.59518 0.04603 0.20445 0.0
H823 H 0.66167 0.09647 0.19612 0.0
H824 H 0.52595 0.00966 0.19335 0.0
H825 H 0.51415 0.9883 0.14171 0.0
H826 H 0.44952 0.94029 0.12971 0.0
H827 H 0.37939 0.90682 0.13473 0.0
C828 C 0.12877 0.34841 0.16216 0.0
C829 C 0.15249 0.35832 0.18202 0.0
C830 C 0.08869 0.33307 0.16397 0.0
C831 C 0.07074 0.32686 0.18586 0.0
C832 C 0.09491 0.33906 0.20569 0.0
C833 C 0.13519 0.35454 0.20383 0.0
C834 C 0.02731 0.30476 0.18904 0.0
C835 C 1.00051 0.29259 0.17169 0.0
C836 C 0.9575 0.26596 0.17491 0.0
C837 C 0.93172 0.26112 0.15668 0.0
C838 C 0.89195 0.23346 0.15808 0.0
C839 C 0.87697 0.20945 0.17767 0.0
H840 H 0.96001 0.24461 0.20923 0.0
C841 C 0.90246 0.21524 0.19615 0.0
C842 C 0.94186 0.24289 0.19486 0.0
H843 H 0.89209 0.19735 0.21156 0.0
H844 H 0.14099 0.35011 0.14508 0.0
H845 H 0.072 0.32422 0.14812 0.0
H846 H 0.08234 0.33476 0.22287 0.0
H847 H 0.15221 0.36061 0.21952 0.0
H848 H 0.01725 0.29742 0.20682 0.0
H849 H 0.0101 0.30174 0.15402 0.0
H850 H 0.94258 0.27811 0.14096 0.0
H851 H 0.87343 0.22961 0.14341 0.0
C852 C 0.70586 0.90045 0.51062 0.0
C853 C 0.66825 0.86979 0.50591 0.0
C854 C 0.71424 0.93874 0.5119 0.0
C855 C 0.68541 0.94833 0.50839 0.0
C856 C 0.64799 0.91815 0.50253 0.0
C857 C 0.63936 0.87918 0.50149 0.0
C858 C 0.69508 0.98991 0.50968 0.0
C859 C 0.72187 0.0157 0.5247 0.0
C860 C 0.73806 0.05882 0.52492 0.0
C861 C 0.75978 0.08028 0.54433 0.0
C862 C 0.78214 0.12086 0.54366 0.0
C863 C 0.78358 0.14124 0.52348 0.0
H864 H 0.72159 0.06444 0.48985 0.0
C865 C 0.75992 0.12008 0.5046 0.0
C866 C 0.73722 0.07949 0.50533 0.0
H867 H 0.76151 0.13474 0.48846 0.0
H868 H 0.72934 0.89492 0.51368 0.0
H869 H 0.74369 0.96094 0.51544 0.0
H870 H 0.62519 0.9246 0.4993 0.0
H871 H 0.61011 0.85655 0.49789 0.0
H872 H 0.68006 0.9992 0.498 0.0
H873 H 0.73386 0.0047 0.53752 0.0
H874 H 0.76145 0.06545 0.55965 0.0
H875 H 0.80114 0.13591 0.55811 0.0
C876 C 0.67031 0.78781 0.82895 0.0
C877 C 0.65641 0.79655 0.84924 0.0
C878 C 0.68456 0.76207 0.82927 0.0
C879 C 0.68574 0.74413 0.85009 0.0
C880 C 0.66988 0.75137 0.87019 0.0
C881 C 0.65542 0.77717 0.8698 0.0
C882 C 0.7057 0.72047 0.85212 0.0
C883 C 0.72094 0.71004 0.83416 0.0
C884 C 0.74509 0.69062 0.83638 0.0
C885 C 0.75816 0.68073 0.81604 0.0
C886 C 0.78467 0.66721 0.81707 0.0
C887 C 0.79894 0.66315 0.83853 0.0
H888 H 0.74918 0.69123 0.87411 0.0
C889 C 0.78435 0.67098 0.85886 0.0
C890 C 0.75786 0.68428 0.85788 0.0
H891 H 0.79523 0.66888 0.87572 0.0
H892 H 0.67215 0.80269 0.81284 0.0
H893 H 0.69626 0.75807 0.81328 0.0
H894 H 0.67021 0.73828 0.8866 0.0
H895 H 0.64602 0.78391 0.88589 0.0
H896 H 0.7087 0.71236 0.86962 0.0
H897 H 0.71668 0.71689 0.8166 0.0
H898 H 0.74918 0.68515 0.79912 0.0
H899 H 0.79603 0.66264 0.80104 0.0
C900 C 0.90775 0.68415 0.20843 0.0
C901 C 0.8803 0.65672 0.19307 0.0
C902 C 0.94752 0.69783 0.20565 0.0
C903 C 0.96114 0.68479 0.18712 0.0
C904 C 0.93336 0.65574 0.17258 0.0
C905 C 0.89362 0.64198 0.17546 0.0
C906 C 1.00339 0.70346 0.18063 0.0
C907 C 0.0337 0.72752 0.19437 0.0
C908 C 0.07535 0.74972 0.18644 0.0
C909 C 0.10535 0.76538 0.20305 0.0
C910 C 0.14416 0.79016 0.19648 0.0
C911 C 0.15408 0.80058 0.17306 0.0
H912 H 0.06396 0.74828 0.14943 0.0
C913 C 0.12428 0.78371 0.1564 0.0
C914 C 0.08571 0.75871 0.1629 0.0
H915 H 0.13056 0.79128 0.13821 0.0
H916 H 0.89867 0.6974 0.22153 0.0
H917 H 0.9674 0.72054 0.2171 0.0
H918 H 0.94253 0.64511 0.15802 0.0
H919 H 0.8736 0.62223 0.16267 0.0
H920 H 0.00954 0.69726 0.16329 0.0
H921 H 0.02811 0.73164 0.21228 0.0
H922 H 0.09861 0.7594 0.22135 0.0
H923 H 0.1659 0.80294 0.20989 0.0
C924 C 0.2261 0.88937 0.49494 0.0
C925 C 0.21244 0.86732 0.51542 0.0
C926 C 0.25384 0.92884 0.49559 0.0
C927 C 0.26869 0.94789 0.51693 0.0
C928 C 0.25638 0.9252 0.53738 0.0
C929 C 0.22869 0.88544 0.53666 0.0
C930 C 0.29439 0.99129 0.51893 0.0
C931 C 0.30875 0.01657 0.50078 0.0
C932 C 0.33008 0.06021 0.50266 0.0
C933 C 0.33916 0.08261 0.48215 0.0
C934 C 0.35448 0.12295 0.48298 0.0
C935 C 0.36134 0.14205 0.50441 0.0
H936 H 0.33404 0.06493 0.5404 0.0
C937 C 0.35468 0.12019 0.52484 0.0
C938 C 0.33956 0.08006 0.52405 0.0
H939 H 0.35902 0.13394 0.54168 0.0
H940 H 0.2138 0.87636 0.47828 0.0
H941 H 0.26191 0.94425 0.47929 0.0
H942 H 0.26701 0.93862 0.55417 0.0
H943 H 0.21818 0.86961 0.5528 0.0
H944 H 0.30015 1.0026 0.53648 0.0
H945 H 0.30339 0.0052 0.48325 0.0
H946 H 0.33252 0.06859 0.46532 0.0
H947 H 0.35812 0.1386 0.46694 0.0
C948 C 0.24792 0.35973 0.85196 0.0
C949 C 0.22523 0.35877 0.83294 0.0
C950 C 0.27074 0.34201 0.85078 0.0
C951 C 0.27088 0.32209 0.83061 0.0
C952 C 0.24988 0.32315 0.8112 0.0
C953 C 0.22748 0.34123 0.81232 0.0
C954 C 0.28741 0.29545 0.82998 0.0
C955 C 0.3141 0.29575 0.84479 0.0
C956 C 0.32438 0.26418 0.84503 0.0
C957 C 0.3615 0.27142 0.85159 0.0
C958 C 0.37045 0.24128 0.8523 0.0
C959 C 0.34219 0.20305 0.84685 0.0
H960 H 0.26704 0.21846 0.83584 0.0
C961 C 0.30498 0.19616 0.84096 0.0
C962 C 0.29631 0.22589 0.84004 0.0
H963 H 0.28184 0.1673 0.83698 0.0
H964 H 0.24561 0.37155 0.86843 0.0
H965 H 0.28574 0.34147 0.86628 0.0
H966 H 0.24888 0.30785 0.79544 0.0
H967 H 0.20916 0.33836 0.79772 0.0
H968 H 0.27593 0.27343 0.81654 0.0
H969 H 0.32858 0.31928 0.85711 0.0
H970 H 0.38376 0.30053 0.85591 0.0
H971 H 0.39934 0.24795 0.85694 0.0
C972 C 0.29901 0.22632 0.20011 0.0
C973 C 0.27436 0.24125 0.19718 0.0
C974 C 0.28626 0.19191 0.21238 0.0
C975 C 0.24888 0.17258 0.22222 0.0
C976 C 0.22549 0.1892 0.22042 0.0
C977 C 0.23809 0.2232 0.20804 0.0
C978 C 0.23071 0.13233 0.23062 0.0
C979 C 0.25073 0.11466 0.23548 0.0
C980 C 0.23394 0.07254 0.23262 0.0
C981 C 0.2031 0.05133 0.21707 0.0
C982 C 0.19569 0.01554 0.20882 0.0
C983 C 0.21882 1.0006 0.21605 0.0
H984 H 0.27837 0.07126 0.25331 0.0
C985 C 0.24675 0.01958 0.23335 0.0
C986 C 0.25436 0.05546 0.24153 0.0
H987 H 0.26522 0.00845 0.2388 0.0
H988 H 0.3273 0.24031 0.19209 0.0
H989 H 0.30497 0.1797 0.21288 0.0
H990 H 0.19667 0.17493 0.22773 0.0
H991 H 0.21905 0.235 0.2065 0.0
H992 H 0.19941 0.11545 0.22999 0.0
H993 H 0.28159 0.13166 0.23856 0.0
H994 H 0.18717 0.06367 0.20929 0.0
H995 H 0.17462 1.00149 0.19512 0.0
C996 C 0.27285 0.34116 0.51313 0.0
C997 C 0.28145 0.32541 0.53248 0.0
C998 C 0.24075 0.34564 0.51338 0.0
C999 C 0.21633 0.33381 0.53279 0.0
C1000 C 0.2267 0.32159 0.55294 0.0
C1001 C 0.25917 0.31732 0.55279 0.0
C1002 C 0.17815 0.33019 0.53126 0.0
C1003 C 0.15653 0.3152 0.51206 0.0
C1004 C 0.11745 0.30931 0.50932 0.0
C1005 C 0.10228 0.30493 0.48679 0.0
C1006 C 0.0657 0.30019 0.48344 0.0
C1007 C 0.04414 0.29998 0.50262 0.0
H1008 H 0.10457 0.30852 0.54621 0.0
C1009 C 0.05863 0.30285 0.52517 0.0
C1010 C 0.09488 0.30728 0.52854 0.0
H1011 H 0.04164 0.30117 0.54027 0.0
H1012 H 0.28906 0.34734 0.4971 0.0
H1013 H 0.23379 0.35624 0.49787 0.0
H1014 H 0.2083 0.31284 0.56817 0.0
H1015 H 0.26557 0.30569 0.56804 0.0
H1016 H 0.16741 0.33784 0.54645 0.0
H1017 H 0.16815 0.30708 0.49741 0.0
H1018 H 0.11894 0.30566 0.47176 0.0
H1019 H 0.05452 0.29725 0.46596 0.0
C1020 C 0.73753 0.079 0.84771 0.0
C1021 C 0.72409 0.05751 0.82707 0.0
C1022 C 0.77125 0.1144 0.84768 0.0
C1023 C 0.79265 0.12855 0.82715 0.0
C1024 C 0.77751 0.10934 0.8061 0.0
C1025 C 0.74323 0.07391 0.80603 0.0
C1026 C 0.832 0.16156 0.82792 0.0
C1027 C 0.85549 0.16581 0.84575 0.0
C1028 C 0.89436 0.19927 0.84793 0.0
C1029 C 0.9094 0.21239 0.87022 0.0
C1030 C 0.94522 0.24561 0.87286 0.0
C1031 C 0.96628 0.26577 0.85317 0.0
H1032 H 0.90634 0.20786 0.81087 0.0
C1033 C 0.95198 0.2515 0.83089 0.0
C1034 C 0.91634 0.21843 0.82826 0.0
H1035 H 0.96867 0.26559 0.81546 0.0
H1036 H 0.72396 0.06739 0.86432 0.0
H1037 H 0.78167 0.12962 0.86401 0.0
H1038 H 0.79341 0.1204 0.79002 0.0
H1039 H 0.73307 0.05833 0.78979 0.0
H1040 H 0.84179 0.18166 0.81345 0.0
H1041 H 0.8453 0.14501 0.8599 0.0
H1042 H 0.89303 0.19744 0.88557 0.0
H1043 H 0.95627 0.25575 0.89018 0.0
C1044 C 0.65772 0.93347 0.17124 0.0
C1045 C 0.66162 0.95263 0.19245 0.0
C1046 C 0.65503 0.89757 0.17091 0.0
C1047 C 0.65709 0.88049 0.19171 0.0
C1048 C 0.65651 0.89722 0.21298 0.0
C1049 C 0.65865 0.93312 0.21338 0.0
C1050 C 0.66394 0.84767 0.19134 0.0
C1051 C 0.68753 0.84587 0.17534 0.0
C1052 C 0.69748 0.81515 0.17465 0.0
C1053 C 0.7097 0.80735 0.15348 0.0
C1054 C 0.71892 0.77817 0.15206 0.0
C1055 C 0.71617 0.75656 0.17185 0.0
H1056 H 0.68881 0.80091 0.21148 0.0
C1057 C 0.70544 0.76539 0.19322 0.0
C1058 C 0.69622 0.79446 0.19464 0.0
H1059 H 0.70456 0.75007 0.20894 0.0
H1060 H 0.66007 0.94729 0.15469 0.0
H1061 H 0.65384 0.8844 0.15425 0.0
H1062 H 0.65728 0.88396 0.22924 0.0
H1063 H 0.6606 0.94667 0.23 0.0
H1064 H 0.65153 0.82651 0.20519 0.0
H1065 H 0.70025 0.8679 0.16193 0.0
H1066 H 0.71155 0.8235 0.13795 0.0
H1067 H 0.72756 0.77207 0.13547 0.0
C1068 C 0.74507 0.6588 0.52379 0.0
C1069 C 0.75135 0.69608 0.5282 0.0
C1070 C 0.77586 0.65347 0.51787 0.0
C1071 C 0.81339 0.68537 0.51658 0.0
C1072 C 0.82001 0.72201 0.52279 0.0
C1073 C 0.78934 0.72745 0.52831 0.0
C1074 C 0.84641 0.68246 0.50798 0.0
C1075 C 0.84356 0.65538 0.49298 0.0
C1076 C 0.87919 0.65872 0.48357 0.0
C1077 C 0.88733 0.62896 0.48709 0.0
C1078 C 0.9252 0.63646 0.48479 0.0
C1079 C 0.95501 0.6738 0.479 0.0
H1080 H 0.90175 0.71743 0.47154 0.0
C1081 C 0.94548 0.70192 0.47262 0.0
C1082 C 0.90782 0.69431 0.47475 0.0
H1083 H 0.96746 0.73109 0.46821 0.0
H1084 H 0.7162 0.63396 0.524 0.0
H1085 H 0.77004 0.6246 0.51395 0.0
H1086 H 0.84881 0.74699 0.52207 0.0
H1087 H 0.79542 0.75671 0.53114 0.0
H1088 H 0.87497 0.70581 0.51278 0.0
H1089 H 0.81595 0.63108 0.48788 0.0
H1090 H 0.86531 0.60116 0.49362 0.0
H1091 H 0.9316 0.61399 0.48927 0.0
C1092 C 0.28365 0.91479 0.83687 0.0
C1093 C 0.27454 0.94211 0.82813 0.0
C1094 C 0.25479 0.87646 0.83991 0.0
C1095 C 0.21674 0.86475 0.83355 0.0
C1096 C 0.20828 0.89089 0.82268 0.0
C1097 C 0.23677 0.92938 0.82028 0.0
C1098 C 0.18443 0.82715 0.84053 0.0
C1099 C 0.18119 0.81435 0.86244 0.0
C1100 C 0.14244 0.78772 0.87112 0.0
C1101 C 0.12792 0.74789 0.87049 0.0
C1102 C 0.0882 0.7227 0.87194 0.0
C1103 C 0.06277 0.73731 0.87342 0.0
H1104 H 0.12864 0.83311 0.8755 0.0
C1105 C 0.07803 0.77726 0.87625 0.0
C1106 C 0.11763 0.80223 0.87524 0.0
H1107 H 0.05956 0.78974 0.87711 0.0
H1108 H 0.31266 0.92332 0.84242 0.0
H1109 H 0.26188 0.85637 0.84798 0.0
H1110 H 0.17894 0.88225 0.81774 0.0
H1111 H 0.22826 0.94938 0.8138 0.0
H1112 H 0.15915 0.81412 0.82928 0.0
H1113 H 0.2046 0.82877 0.87485 0.0
H1114 H 0.1469 0.73645 0.86718 0.0
H1115 H 0.07728 0.69199 0.87023 0.0
loop_
_geom_bond_atom_site_label_1
_geom_bond_atom_site_label_2
_geom_bond_distance
_geom_bond_site_symmetry_2
_ccdc_geom_bond_type
C0 C1 1.351 . S
C0 N3 1.368 . S
C0 H5 0.931 . S
C1 C0 1.351 . S
C1 N2 1.373 . S
C1 H29 0.930 . S
N2 C1 1.373 . S
N2 C4 1.340 . S
N3 C0 1.368 . S
N3 C4 1.321 . S
N3 Co6 2.135 . S
C4 N2 1.340 . S
C4 N3 1.321 . S
C4 H28 0.930 . S
H5 C0 0.931 . S
Co6 N3 2.135 . S
Co6 N9 2.121 . S
Co6 O14 2.055 . S
Co6 O17 2.039 . S
Co6 N20 2.140 . S
C7 O8 1.227 . S
C7 O17 1.265 . S
O8 C7 1.227 . S
N9 Co6 2.121 . S
N9 C11 1.375 . S
N9 C12 1.313 . S
C10 C11 1.338 . S
C10 N13 1.377 . S
C10 H30 0.930 . S
C11 N9 1.375 . S
C11 C10 1.338 . S
C11 H15 0.931 . S
C12 N9 1.313 . S
C12 N13 1.344 . S
C12 H16 0.930 . S
N13 C10 1.377 . S
N13 C12 1.344 . S
O14 Co6 2.055 . S
O14 C18 1.253 . S
H15 C11 0.931 . S
H16 C12 0.930 . S
O17 Co6 2.039 . S
O17 C7 1.265 . S
C18 O14 1.253 . S
C18 O19 1.227 . S
O19 C18 1.227 . S
N20 Co6 2.140 . S
N20 C23 1.346 . S
N20 C24 1.345 . S
C21 C22 1.387 . S
C21 C25 1.391 . S
C22 C21 1.387 . S
C22 C23 1.369 . S
C22 H31 0.929 . S
C23 N20 1.346 . S
C23 C22 1.369 . S
C23 H26 0.928 . S
C24 N20 1.345 . S
C24 C25 1.371 . S
C24 H27 0.931 . S
C25 C21 1.391 . S
C25 C24 1.371 . S
C25 H32 0.930 . S
H26 C23 0.928 . S
H27 C24 0.931 . S
H28 C4 0.930 . S
H29 C1 0.930 . S
H30 C10 0.930 . S
H31 C22 0.929 . S
H32 C25 0.930 . S
C33 C34 1.351 . S
C33 N36 1.368 . S
C33 H38 0.931 . S
C34 C33 1.351 . S
C34 N35 1.373 . S
C34 H62 0.930 . S
N35 C34 1.373 . S
N35 C37 1.340 . S
N36 C33 1.368 . S
N36 C37 1.321 . S
N36 Co39 2.135 . S
C37 N35 1.340 . S
C37 N36 1.321 . S
C37 H61 0.930 . S
H38 C33 0.931 . S
Co39 N36 2.135 . S
Co39 N42 2.121 . S
Co39 O47 2.055 . S
Co39 O50 2.039 . S
Co39 N53 2.140 . S
C40 O41 1.227 . S
C40 O50 1.265 . S
O41 C40 1.227 . S
N42 Co39 2.121 . S
N42 C44 1.375 . S
N42 C45 1.313 . S
C43 C44 1.338 . S
C43 N46 1.377 . S
C43 H63 0.930 . S
C44 N42 1.375 . S
C44 C43 1.338 . S
C44 H48 0.931 . S
C45 N42 1.313 . S
C45 N46 1.344 . S
C45 H49 0.930 . S
N46 C43 1.377 . S
N46 C45 1.344 . S
O47 Co39 2.055 . S
O47 C51 1.253 . S
H48 C44 0.931 . S
H49 C45 0.930 . S
O50 Co39 2.039 . S
O50 C40 1.265 . S
C51 O47 1.253 . S
C51 O52 1.227 . S
O52 C51 1.227 . S
N53 Co39 2.140 . S
N53 C56 1.346 . S
N53 C57 1.345 . S
C54 C55 1.387 . S
C54 C58 1.391 1_455 S
C55 C54 1.387 . S
C55 C56 1.369 1_455 S
C55 H64 0.929 . S
C56 N53 1.346 . S
C56 C55 1.369 1_655 S
C56 H59 0.928 . S
C57 N53 1.345 . S
C57 C58 1.371 . S
C57 H60 0.931 . S
C58 C54 1.391 1_655 S
C58 C57 1.371 . S
C58 H65 0.930 . S
H59 C56 0.928 . S
H60 C57 0.931 . S
H61 C37 0.930 . S
H62 C34 0.930 . S
H63 C43 0.930 . S
H64 C55 0.929 . S
H65 C58 0.930 . S
C66 C67 1.351 . S
C66 N69 1.368 . S
C66 H71 0.931 . S
C67 C66 1.351 . S
C67 N68 1.373 . S
C67 H95 0.930 . S
N68 C67 1.373 . S
N68 C70 1.340 . S
N69 C66 1.368 . S
N69 C70 1.321 . S
N69 Co72 2.135 . S
C70 N68 1.340 . S
C70 N69 1.321 . S
C70 H94 0.930 . S
H71 C66 0.931 . S
Co72 N69 2.135 . S
Co72 N75 2.121 . S
Co72 O80 2.055 . S
Co72 O83 2.039 . S
Co72 N86 2.140 . S
C73 O74 1.227 . S
C73 O83 1.265 . S
O74 C73 1.227 . S
N75 Co72 2.121 . S
N75 C77 1.375 . S
N75 C78 1.313 . S
C76 C77 1.338 . S
C76 N79 1.377 . S
C76 H96 0.930 . S
C77 N75 1.375 . S
C77 C76 1.338 . S
C77 H81 0.931 . S
C78 N75 1.313 . S
C78 N79 1.344 . S
C78 H82 0.930 . S
N79 C76 1.377 . S
N79 C78 1.344 . S
O80 Co72 2.055 . S
O80 C84 1.253 . S
H81 C77 0.931 . S
H82 C78 0.930 . S
O83 Co72 2.039 . S
O83 C73 1.265 . S
C84 O80 1.253 . S
C84 O85 1.227 . S
O85 C84 1.227 . S
N86 Co72 2.140 . S
N86 C89 1.346 . S
N86 C90 1.345 . S
C87 C88 1.387 . S
C87 C91 1.391 1_545 S
C88 C87 1.387 . S
C88 C89 1.369 1_545 S
C88 H97 0.929 . S
C89 N86 1.346 . S
C89 C88 1.369 1_565 S
C89 H92 0.928 . S
C90 N86 1.345 . S
C90 C91 1.371 . S
C90 H93 0.931 . S
C91 C87 1.391 1_565 S
C91 C90 1.371 . S
C91 H98 0.930 . S
H92 C89 0.928 . S
H93 C90 0.931 . S
H94 C70 0.930 . S
H95 C67 0.930 . S
H96 C76 0.930 . S
H97 C88 0.929 . S
H98 C91 0.930 . S
C99 C100 1.351 . S
C99 N102 1.368 . S
C99 H104 0.931 . S
C100 C99 1.351 . S
C100 N101 1.373 . S
C100 H128 0.930 . S
N101 C100 1.373 . S
N101 C103 1.340 . S
N102 C99 1.368 . S
N102 C103 1.321 . S
N102 Co105 2.135 . S
C103 N101 1.340 . S
C103 N102 1.321 . S
C103 H127 0.930 . S
H104 C99 0.931 . S
Co105 N102 2.135 . S
Co105 N108 2.121 . S
Co105 O113 2.055 . S
Co105 O116 2.039 . S
Co105 N119 2.140 . S
C106 O107 1.227 . S
C106 O116 1.265 . S
O107 C106 1.227 . S
N108 Co105 2.121 . S
N108 C110 1.375 . S
N108 C111 1.313 . S
C109 C110 1.338 . S
C109 N112 1.377 . S
C109 H129 0.930 . S
C110 N108 1.375 . S
C110 C109 1.338 . S
C110 H114 0.931 . S
C111 N108 1.313 . S
C111 N112 1.344 . S
C111 H115 0.930 . S
N112 C109 1.377 . S
N112 C111 1.344 . S
O113 Co105 2.055 . S
O113 C117 1.253 . S
H114 C110 0.931 . S
H115 C111 0.930 . S
O116 Co105 2.039 . S
O116 C106 1.265 . S
C117 O113 1.253 . S
C117 O118 1.227 . S
O118 C117 1.227 . S
N119 Co105 2.140 . S
N119 C122 1.346 . S
N119 C123 1.345 . S
C120 C121 1.387 . S
C120 C124 1.391 . S
C121 C120 1.387 . S
C121 C122 1.369 . S
C121 H130 0.929 . S
C122 N119 1.346 . S
C122 C121 1.369 . S
C122 H125 0.928 . S
C123 N119 1.345 . S
C123 C124 1.371 . S
C123 H126 0.931 . S
C124 C120 1.391 . S
C124 C123 1.371 . S
C124 H131 0.930 . S
H125 C122 0.928 . S
H126 C123 0.931 . S
H127 C103 0.930 . S
H128 C100 0.930 . S
H129 C109 0.930 . S
H130 C121 0.929 . S
H131 C124 0.930 . S
C132 C133 1.351 . S
C132 N135 1.368 . S
C132 H137 0.931 . S
C133 C132 1.351 . S
C133 N134 1.373 . S
C133 H161 0.930 . S
N134 C133 1.373 . S
N134 C136 1.340 . S
N135 C132 1.368 . S
N135 C136 1.321 . S
N135 Co138 2.135 . S
C136 N134 1.340 . S
C136 N135 1.321 . S
C136 H160 0.930 . S
H137 C132 0.931 . S
Co138 N135 2.135 . S
Co138 N141 2.121 . S
Co138 O146 2.055 . S
Co138 O149 2.039 . S
Co138 N152 2.140 . S
C139 O140 1.227 . S
C139 O149 1.265 . S
O140 C139 1.227 . S
N141 Co138 2.121 . S
N141 C143 1.375 . S
N141 C144 1.313 . S
C142 C143 1.338 . S
C142 N145 1.377 . S
C142 H162 0.930 . S
C143 N141 1.375 . S
C143 C142 1.338 . S
C143 H147 0.931 . S
C144 N141 1.313 . S
C144 N145 1.344 . S
C144 H148 0.930 . S
N145 C142 1.377 . S
N145 C144 1.344 . S
O146 Co138 2.055 . S
O146 C150 1.253 . S
H147 C143 0.931 . S
H148 C144 0.930 . S
O149 Co138 2.039 . S
O149 C139 1.265 . S
C150 O146 1.253 . S
C150 O151 1.227 . S
O151 C150 1.227 . S
N152 Co138 2.140 . S
N152 C155 1.346 . S
N152 C156 1.345 . S
C153 C154 1.387 . S
C153 C157 1.391 1_655 S
C154 C153 1.387 . S
C154 C155 1.369 1_655 S
C154 H163 0.929 . S
C155 N152 1.346 . S
C155 C154 1.369 1_455 S
C155 H158 0.928 . S
C156 N152 1.345 . S
C156 C157 1.371 . S
C156 H159 0.931 . S
C157 C153 1.391 1_455 S
C157 C156 1.371 . S
C157 H164 0.930 . S
H158 C155 0.928 . S
H159 C156 0.931 . S
H160 C136 0.930 . S
H161 C133 0.930 . S
H162 C142 0.930 . S
H163 C154 0.929 . S
H164 C157 0.930 . S
C165 C166 1.351 . S
C165 N168 1.368 . S
C165 H170 0.931 . S
C166 C165 1.351 . S
C166 N167 1.373 . S
C166 H194 0.930 . S
N167 C166 1.373 . S
N167 C169 1.340 . S
N168 C165 1.368 . S
N168 C169 1.321 . S
N168 Co171 2.135 . S
C169 N167 1.340 . S
C169 N168 1.321 . S
C169 H193 0.930 . S
H170 C165 0.931 . S
Co171 N168 2.135 . S
Co171 N174 2.121 . S
Co171 O179 2.055 . S
Co171 O182 2.039 . S
Co171 N185 2.140 . S
C172 O173 1.227 . S
C172 O182 1.265 . S
O173 C172 1.227 . S
N174 Co171 2.121 . S
N174 C176 1.375 . S
N174 C177 1.313 . S
C175 C176 1.338 . S
C175 N178 1.377 . S
C175 H195 0.930 . S
C176 N174 1.375 . S
C176 C175 1.338 . S
C176 H180 0.931 . S
C177 N174 1.313 . S
C177 N178 1.344 . S
C177 H181 0.930 . S
N178 C175 1.377 . S
N178 C177 1.344 . S
O179 Co171 2.055 . S
O179 C183 1.253 . S
H180 C176 0.931 . S
H181 C177 0.930 . S
O182 Co171 2.039 . S
O182 C172 1.265 . S
C183 O179 1.253 . S
C183 O184 1.227 . S
O184 C183 1.227 . S
N185 Co171 2.140 . S
N185 C188 1.346 . S
N185 C189 1.345 . S
C186 C187 1.387 . S
C186 C190 1.391 1_565 S
C187 C186 1.387 . S
C187 C188 1.369 1_565 S
C187 H196 0.929 . S
C188 N185 1.346 . S
C188 C187 1.369 1_545 S
C188 H191 0.928 . S
C189 N185 1.345 . S
C189 C190 1.371 . S
C189 H192 0.931 . S
C190 C186 1.391 1_545 S
C190 C189 1.371 . S
C190 H197 0.930 . S
H191 C188 0.928 . S
H192 C189 0.931 . S
H193 C169 0.930 . S
H194 C166 0.930 . S
H195 C175 0.930 . S
H196 C187 0.929 . S
H197 C190 0.930 . S
C198 C199 1.351 . S
C198 N201 1.368 . S
C198 H203 0.931 . S
C199 C198 1.351 . S
C199 N200 1.373 . S
C199 H227 0.930 . S
N200 C199 1.373 . S
N200 C202 1.340 . S
N201 C198 1.368 . S
N201 C202 1.321 . S
N201 Co204 2.135 . S
C202 N200 1.340 . S
C202 N201 1.321 . S
C202 H226 0.930 . S
H203 C198 0.931 . S
Co204 N201 2.135 . S
Co204 N207 2.121 . S
Co204 O212 2.055 . S
Co204 O215 2.039 . S
Co204 N218 2.140 . S
C205 O206 1.227 . S
C205 O215 1.265 . S
O206 C205 1.227 . S
N207 Co204 2.121 . S
N207 C209 1.375 . S
N207 C210 1.313 . S
C208 C209 1.338 . S
C208 N211 1.377 . S
C208 H228 0.930 . S
C209 N207 1.375 . S
C209 C208 1.338 . S
C209 H213 0.931 . S
C210 N207 1.313 . S
C210 N211 1.344 . S
C210 H214 0.930 . S
N211 C208 1.377 . S
N211 C210 1.344 . S
O212 Co204 2.055 . S
O212 C216 1.253 . S
H213 C209 0.931 . S
H214 C210 0.930 . S
O215 Co204 2.039 . S
O215 C205 1.265 . S
C216 O212 1.253 . S
C216 O217 1.227 . S
O217 C216 1.227 . S
N218 Co204 2.140 . S
N218 C221 1.346 . S
N218 C222 1.345 . S
C219 C220 1.387 . S
C219 C223 1.391 . S
C220 C219 1.387 . S
C220 C221 1.369 . S
C220 H229 0.929 . S
C221 N218 1.346 . S
C221 C220 1.369 . S
C221 H224 0.928 . S
C222 N218 1.345 . S
C222 C223 1.371 . S
C222 H225 0.931 . S
C223 C219 1.391 . S
C223 C222 1.371 . S
C223 H230 0.930 . S
H224 C221 0.928 . S
H225 C222 0.931 . S
H226 C202 0.930 . S
H227 C199 0.930 . S
H228 C208 0.930 . S
H229 C220 0.929 . S
H230 C223 0.930 . S
C231 C232 1.351 . S
C231 N234 1.368 . S
C231 H236 0.931 . S
C232 C231 1.351 . S
C232 N233 1.373 . S
C232 H260 0.930 . S
N233 C232 1.373 . S
N233 C235 1.340 . S
N234 C231 1.368 . S
N234 C235 1.321 . S
N234 Co237 2.135 . S
C235 N233 1.340 . S
C235 N234 1.321 . S
C235 H259 0.930 . S
H236 C231 0.931 . S
Co237 N234 2.135 . S
Co237 N240 2.121 . S
Co237 O245 2.055 . S
Co237 O248 2.039 . S
Co237 N251 2.140 . S
C238 O239 1.227 . S
C238 O248 1.265 . S
O239 C238 1.227 . S
N240 Co237 2.121 . S
N240 C242 1.375 . S
N240 C243 1.313 . S
C241 C242 1.338 . S
C241 N244 1.377 . S
C241 H261 0.930 . S
C242 N240 1.375 . S
C242 C241 1.338 . S
C242 H246 0.931 . S
C243 N240 1.313 . S
C243 N244 1.344 . S
C243 H247 0.930 . S
N244 C241 1.377 . S
N244 C243 1.344 . S
O245 Co237 2.055 . S
O245 C249 1.253 . S
H246 C242 0.931 . S
H247 C243 0.930 . S
O248 Co237 2.039 . S
O248 C238 1.265 . S
C249 O245 1.253 . S
C249 O250 1.227 . S
O250 C249 1.227 . S
N251 Co237 2.140 . S
N251 C254 1.346 . S
N251 C255 1.345 . S
C252 C253 1.387 . S
C252 C256 1.391 1_455 S
C253 C252 1.387 . S
C253 C254 1.369 1_455 S
C253 H262 0.929 . S
C254 N251 1.346 . S
C254 C253 1.369 1_655 S
C254 H257 0.928 . S
C255 N251 1.345 . S
C255 C256 1.371 . S
C255 H258 0.931 . S
C256 C252 1.391 1_655 S
C256 C255 1.371 . S
C256 H263 0.930 . S
H257 C254 0.928 . S
H258 C255 0.931 . S
H259 C235 0.930 . S
H260 C232 0.930 . S
H261 C241 0.930 . S
H262 C253 0.929 . S
H263 C256 0.930 . S
C264 C265 1.351 . S
C264 N267 1.368 . S
C264 H269 0.931 . S
C265 C264 1.351 . S
C265 N266 1.373 . S
C265 H293 0.930 . S
N266 C265 1.373 . S
N266 C268 1.340 . S
N267 C264 1.368 . S
N267 C268 1.321 . S
N267 Co270 2.135 . S
C268 N266 1.340 . S
C268 N267 1.321 . S
C268 H292 0.930 . S
H269 C264 0.931 . S
Co270 N267 2.135 . S
Co270 N273 2.121 . S
Co270 O278 2.055 . S
Co270 O281 2.039 . S
Co270 N284 2.140 . S
C271 O272 1.227 . S
C271 O281 1.265 . S
O272 C271 1.227 . S
N273 Co270 2.121 . S
N273 C275 1.375 . S
N273 C276 1.313 . S
C274 C275 1.338 . S
C274 N277 1.377 . S
C274 H294 0.930 . S
C275 N273 1.375 . S
C275 C274 1.338 . S
C275 H279 0.931 . S
C276 N273 1.313 . S
C276 N277 1.344 . S
C276 H280 0.930 . S
N277 C274 1.377 . S
N277 C276 1.344 . S
O278 Co270 2.055 . S
O278 C282 1.253 . S
H279 C275 0.931 . S
H280 C276 0.930 . S
O281 Co270 2.039 . S
O281 C271 1.265 . S
C282 O278 1.253 . S
C282 O283 1.227 . S
O283 C282 1.227 . S
N284 Co270 2.140 . S
N284 C287 1.346 . S
N284 C288 1.345 . S
C285 C286 1.387 . S
C285 C289 1.391 1_545 S
C286 C285 1.387 . S
C286 C287 1.369 1_545 S
C286 H295 0.929 . S
C287 N284 1.346 . S
C287 C286 1.369 1_565 S
C287 H290 0.928 . S
C288 N284 1.345 . S
C288 C289 1.371 . S
C288 H291 0.931 . S
C289 C285 1.391 1_565 S
C289 C288 1.371 . S
C289 H296 0.930 . S
H290 C287 0.928 . S
H291 C288 0.931 . S
H292 C268 0.930 . S
H293 C265 0.930 . S
H294 C274 0.930 . S
H295 C286 0.929 . S
H296 C289 0.930 . S
C297 C298 1.351 . S
C297 N300 1.368 . S
C297 H302 0.931 . S
C298 C297 1.351 . S
C298 N299 1.373 . S
C298 H326 0.930 . S
N299 C298 1.373 . S
N299 C301 1.340 . S
N300 C297 1.368 . S
N300 C301 1.321 . S
N300 Co303 2.135 . S
C301 N299 1.340 . S
C301 N300 1.321 . S
C301 H325 0.930 . S
H302 C297 0.931 . S
Co303 N300 2.135 . S
Co303 N306 2.121 . S
Co303 O311 2.055 . S
Co303 O314 2.039 . S
Co303 N317 2.140 . S
C304 O305 1.227 . S
C304 O314 1.265 . S
O305 C304 1.227 . S
N306 Co303 2.121 . S
N306 C308 1.375 . S
N306 C309 1.313 . S
C307 C308 1.338 . S
C307 N310 1.377 . S
C307 H327 0.930 . S
C308 N306 1.375 . S
C308 C307 1.338 . S
C308 H312 0.931 . S
C309 N306 1.313 . S
C309 N310 1.344 . S
C309 H313 0.930 . S
N310 C307 1.377 . S
N310 C309 1.344 . S
O311 Co303 2.055 . S
O311 C315 1.253 . S
H312 C308 0.931 . S
H313 C309 0.930 . S
O314 Co303 2.039 . S
O314 C304 1.265 . S
C315 O311 1.253 . S
C315 O316 1.227 . S
O316 C315 1.227 . S
N317 Co303 2.140 . S
N317 C320 1.346 . S
N317 C321 1.345 . S
C318 C319 1.387 . S
C318 C322 1.391 . S
C319 C318 1.387 . S
C319 C320 1.369 . S
C319 H328 0.929 . S
C320 N317 1.346 . S
C320 C319 1.369 . S
C320 H323 0.928 . S
C321 N317 1.345 . S
C321 C322 1.371 . S
C321 H324 0.931 . S
C322 C318 1.391 . S
C322 C321 1.371 . S
C322 H329 0.930 . S
H323 C320 0.928 . S
H324 C321 0.931 . S
H325 C301 0.930 . S
H326 C298 0.930 . S
H327 C307 0.930 . S
H328 C319 0.929 . S
H329 C322 0.930 . S
C330 C331 1.351 . S
C330 N333 1.368 . S
C330 H335 0.931 . S
C331 C330 1.351 . S
C331 N332 1.373 . S
C331 H359 0.930 . S
N332 C331 1.373 . S
N332 C334 1.340 . S
N333 C330 1.368 . S
N333 C334 1.321 . S
N333 Co336 2.135 . S
C334 N332 1.340 . S
C334 N333 1.321 . S
C334 H358 0.930 . S
H335 C330 0.931 . S
Co336 N333 2.135 . S
Co336 N339 2.121 . S
Co336 O344 2.055 . S
Co336 O347 2.039 . S
Co336 N350 2.140 . S
C337 O338 1.227 . S
C337 O347 1.265 . S
O338 C337 1.227 . S
N339 Co336 2.121 . S
N339 C341 1.375 . S
N339 C342 1.313 . S
C340 C341 1.338 . S
C340 N343 1.377 . S
C340 H360 0.930 . S
C341 N339 1.375 . S
C341 C340 1.338 . S
C341 H345 0.931 . S
C342 N339 1.313 . S
C342 N343 1.344 . S
C342 H346 0.930 . S
N343 C340 1.377 . S
N343 C342 1.344 . S
O344 Co336 2.055 . S
O344 C348 1.253 . S
H345 C341 0.931 . S
H346 C342 0.930 . S
O347 Co336 2.039 . S
O347 C337 1.265 . S
C348 O344 1.253 . S
C348 O349 1.227 . S
O349 C348 1.227 . S
N350 Co336 2.140 . S
N350 C353 1.346 . S
N350 C354 1.345 . S
C351 C352 1.387 . S
C351 C355 1.391 1_655 S
C352 C351 1.387 . S
C352 C353 1.369 1_655 S
C352 H361 0.929 . S
C353 N350 1.346 . S
C353 C352 1.369 1_455 S
C353 H356 0.928 . S
C354 N350 1.345 . S
C354 C355 1.371 . S
C354 H357 0.931 . S
C355 C351 1.391 1_455 S
C355 C354 1.371 . S
C355 H362 0.930 . S
H356 C353 0.928 . S
H357 C354 0.931 . S
H358 C334 0.930 . S
H359 C331 0.930 . S
H360 C340 0.930 . S
H361 C352 0.929 . S
H362 C355 0.930 . S
C363 C364 1.351 . S
C363 N366 1.368 . S
C363 H368 0.931 . S
C364 C363 1.351 . S
C364 N365 1.373 . S
C364 H392 0.930 . S
N365 C364 1.373 . S
N365 C367 1.340 . S
N366 C363 1.368 . S
N366 C367 1.321 . S
N366 Co369 2.135 . S
C367 N365 1.340 . S
C367 N366 1.321 . S
C367 H391 0.930 . S
H368 C363 0.931 . S
Co369 N366 2.135 . S
Co369 N372 2.121 . S
Co369 O377 2.055 . S
Co369 O380 2.039 . S
Co369 N383 2.140 . S
C370 O371 1.227 . S
C370 O380 1.265 . S
O371 C370 1.227 . S
N372 Co369 2.121 . S
N372 C374 1.375 . S
N372 C375 1.313 . S
C373 C374 1.338 . S
C373 N376 1.377 . S
C373 H393 0.930 . S
C374 N372 1.375 . S
C374 C373 1.338 . S
C374 H378 0.931 . S
C375 N372 1.313 . S
C375 N376 1.344 . S
C375 H379 0.930 . S
N376 C373 1.377 . S
N376 C375 1.344 . S
O377 Co369 2.055 . S
O377 C381 1.253 . S
H378 C374 0.931 . S
H379 C375 0.930 . S
O380 Co369 2.039 . S
O380 C370 1.265 . S
C381 O377 1.253 . S
C381 O382 1.227 . S
O382 C381 1.227 . S
N383 Co369 2.140 . S
N383 C386 1.346 . S
N383 C387 1.345 . S
C384 C385 1.387 . S
C384 C388 1.391 1_565 S
C385 C384 1.387 . S
C385 C386 1.369 1_565 S
C385 H394 0.929 . S
C386 N383 1.346 . S
C386 C385 1.369 1_545 S
C386 H389 0.928 . S
C387 N383 1.345 . S
C387 C388 1.371 . S
C387 H390 0.931 . S
C388 C384 1.391 1_545 S
C388 C387 1.371 . S
C388 H395 0.930 . S
H389 C386 0.928 . S
H390 C387 0.931 . S
H391 C367 0.930 . S
H392 C364 0.930 . S
H393 C373 0.930 . S
H394 C385 0.929 . S
H395 C388 0.930 . S
C396 C397 1.386 . S
C396 C398 1.383 . S
C396 H412 0.951 . S
C397 C396 1.386 . S
C397 C401 1.383 . S
C398 C396 1.383 . S
C398 C399 1.402 . S
C398 H413 0.951 . S
C399 C398 1.402 . S
C399 C400 1.375 . S
C399 C402 1.481 . S
C400 C399 1.375 . S
C400 C401 1.367 . S
C400 H414 0.951 . S
C401 C397 1.383 . S
C401 C400 1.367 . S
C401 H415 0.950 . S
C402 C399 1.481 . S
C402 C403 1.297 . S
C402 H416 0.950 . S
C403 C402 1.297 . S
C403 C404 1.479 . S
C403 H417 0.950 . S
C404 C403 1.479 . S
C404 C405 1.375 . S
C404 C410 1.404 . S
C405 C404 1.375 . S
C405 C406 1.369 . S
C405 H418 0.950 . S
C406 C405 1.369 . S
C406 C407 1.392 . S
C406 H419 0.951 . S
C407 C406 1.392 . S
C407 C409 1.384 . S
H408 C410 0.949 . S
C409 C407 1.384 . S
C409 C410 1.385 . S
C409 H411 0.950 . S
C410 C404 1.404 . S
C410 H408 0.949 . S
C410 C409 1.385 . S
H411 C409 0.950 . S
H412 C396 0.951 . S
H413 C398 0.951 . S
H414 C400 0.951 . S
H415 C401 0.950 . S
H416 C402 0.950 . S
H417 C403 0.950 . S
H418 C405 0.950 . S
H419 C406 0.951 . S
C420 C421 1.386 . S
C420 C422 1.383 . S
C420 H436 0.951 . S
C421 C420 1.386 . S
C421 C425 1.383 . S
C422 C420 1.383 . S
C422 C423 1.402 . S
C422 H437 0.951 . S
C423 C422 1.402 . S
C423 C424 1.375 . S
C423 C426 1.481 1_655 S
C424 C423 1.375 . S
C424 C425 1.367 . S
C424 H438 0.951 . S
C425 C421 1.383 . S
C425 C424 1.367 . S
C425 H439 0.950 . S
C426 C423 1.481 1_455 S
C426 C427 1.297 . S
C426 H440 0.950 . S
C427 C426 1.297 . S
C427 C428 1.479 . S
C427 H441 0.950 . S
C428 C427 1.479 . S
C428 C429 1.375 . S
C428 C434 1.404 . S
C429 C428 1.375 . S
C429 C430 1.369 . S
C429 H442 0.950 . S
C430 C429 1.369 . S
C430 C431 1.392 . S
C430 H443 0.951 . S
C431 C430 1.392 . S
C431 C433 1.384 . S
H432 C434 0.949 . S
C433 C431 1.384 . S
C433 C434 1.385 . S
C433 H435 0.950 . S
C434 C428 1.404 . S
C434 H432 0.949 . S
C434 C433 1.385 . S
H435 C433 0.950 . S
H436 C420 0.951 . S
H437 C422 0.951 . S
H438 C424 0.951 . S
H439 C425 0.950 . S
H440 C426 0.950 . S
H441 C427 0.950 . S
H442 C429 0.950 . S
H443 C430 0.951 . S
C444 C445 1.386 . S
C444 C446 1.383 . S
C444 H460 0.951 . S
C445 C444 1.386 . S
C445 C449 1.383 . S
C446 C444 1.383 . S
C446 C447 1.402 . S
C446 H461 0.951 . S
C447 C446 1.402 . S
C447 C448 1.375 . S
C447 C450 1.481 1_565 S
C448 C447 1.375 . S
C448 C449 1.367 . S
C448 H462 0.951 1_565 S
C449 C445 1.383 . S
C449 C448 1.367 . S
C449 H463 0.950 . S
C450 C447 1.481 1_545 S
C450 C451 1.297 1_556 S
C450 H464 0.950 . S
C451 C450 1.297 1_554 S
C451 C452 1.479 . S
C451 H465 0.950 1_545 S
C452 C451 1.479 . S
C452 C453 1.375 . S
C452 C458 1.404 . S
C453 C452 1.375 . S
C453 C454 1.369 . S
C453 H466 0.982 . S
C454 C453 1.369 . S
C454 C455 1.392 . S
C454 H467 0.951 . S
C455 C454 1.392 . S
C455 C457 1.384 . S
H456 C458 0.949 . S
C457 C455 1.384 . S
C457 C458 1.385 . S
C457 H459 0.950 . S
C458 C452 1.404 . S
C458 H456 0.949 . S
C458 C457 1.385 . S
H459 C457 0.950 . S
H460 C444 0.951 . S
H461 C446 0.951 . S
H462 C448 0.951 1_545 S
H463 C449 0.950 . S
H464 C450 0.950 . S
H465 C451 0.950 1_565 S
H466 C453 0.982 . S
H467 C454 0.951 . S
C468 C469 1.386 . S
C468 C470 1.383 . S
C468 H484 0.951 . S
C469 C468 1.386 . S
C469 C473 1.383 . S
C470 C468 1.383 . S
C470 C471 1.402 . S
C470 H485 0.951 . S
C471 C470 1.402 . S
C471 C472 1.375 . S
C471 C474 1.481 . S
C472 C471 1.375 . S
C472 C473 1.367 . S
C472 H486 0.951 . S
C473 C469 1.383 . S
C473 C472 1.367 . S
C473 H487 0.950 . S
C474 C471 1.481 . S
C474 C475 1.297 . S
C474 H488 0.950 . S
C475 C474 1.297 . S
C475 C476 1.479 . S
C475 H489 0.950 . S
C476 C475 1.479 . S
C476 C477 1.375 . S
C476 C482 1.404 . S
C477 C476 1.375 . S
C477 C478 1.369 . S
C477 H490 0.950 . S
C478 C477 1.369 . S
C478 C479 1.392 . S
C478 H491 0.951 . S
C479 C478 1.392 . S
C479 C481 1.384 . S
H480 C482 0.949 . S
C481 C479 1.384 . S
C481 C482 1.385 . S
C481 H483 0.950 . S
C482 C476 1.404 . S
C482 H480 0.949 . S
C482 C481 1.385 . S
H483 C481 0.950 . S
H484 C468 0.951 . S
H485 C470 0.951 . S
H486 C472 0.951 . S
H487 C473 0.950 . S
H488 C474 0.950 . S
H489 C475 0.950 . S
H490 C477 0.950 . S
H491 C478 0.951 . S
C492 C493 1.386 . S
C492 C494 1.383 . S
C492 H508 0.951 . S
C493 C492 1.386 . S
C493 C497 1.383 . S
C494 C492 1.383 . S
C494 C495 1.402 . S
C494 H509 0.951 1_455 S
C495 C494 1.402 . S
C495 C496 1.375 . S
C495 C498 1.481 . S
C496 C495 1.375 . S
C496 C497 1.367 . S
C496 H510 0.951 . S
C497 C493 1.383 . S
C497 C496 1.367 . S
C497 H511 0.950 . S
C498 C495 1.481 . S
C498 C499 1.297 1_455 S
C498 H512 0.950 . S
C499 C498 1.297 1_655 S
C499 C500 1.479 . S
C499 H513 0.950 . S
C500 C499 1.479 . S
C500 C501 1.375 . S
C500 C506 1.404 . S
C501 C500 1.375 . S
C501 C502 1.369 . S
C501 H514 0.950 . S
C502 C501 1.369 . S
C502 C503 1.392 . S
C502 H515 0.951 . S
C503 C502 1.392 . S
C503 C505 1.384 . S
H504 C506 0.926 1_455 S
C505 C503 1.384 . S
C505 C506 1.385 . S
C505 H507 0.950 . S
C506 C500 1.404 . S
C506 H504 0.926 1_655 S
C506 C505 1.385 . S
H507 C505 0.950 . S
H508 C492 0.951 . S
H509 C494 0.951 1_655 S
H510 C496 0.951 . S
H511 C497 0.950 . S
H512 C498 0.950 . S
H513 C499 0.950 . S
H514 C501 0.950 . S
H515 C502 0.951 . S
C516 C517 1.386 . S
C516 C518 1.383 . S
C516 H532 0.951 . S
C517 C516 1.386 . S
C517 C521 1.383 . S
C518 C516 1.383 . S
C518 C519 1.402 . S
C518 H533 0.951 . S
C519 C518 1.402 . S
C519 C520 1.375 . S
C519 C522 1.481 1_545 S
C520 C519 1.375 . S
C520 C521 1.367 . S
C520 H534 0.951 1_545 S
C521 C517 1.383 . S
C521 C520 1.367 . S
C521 H535 0.950 . S
C522 C519 1.481 1_565 S
C522 C523 1.297 1_556 S
C522 H536 0.950 . S
C523 C522 1.297 1_554 S
C523 C524 1.479 . S
C523 H537 0.950 1_565 S
C524 C523 1.479 . S
C524 C525 1.375 . S
C524 C530 1.404 . S
C525 C524 1.375 . S
C525 C526 1.369 . S
C525 H538 0.950 1_565 S
C526 C525 1.369 . S
C526 C527 1.392 . S
C526 H539 0.951 . S
C527 C526 1.392 . S
C527 C529 1.384 . S
H528 C530 0.949 . S
C529 C527 1.384 . S
C529 C530 1.385 . S
C529 H531 0.950 . S
C530 C524 1.404 . S
C530 H528 0.949 . S
C530 C529 1.385 . S
H531 C529 0.950 . S
H532 C516 0.951 . S
H533 C518 0.951 . S
H534 C520 0.951 1_565 S
H535 C521 0.950 . S
H536 C522 0.950 . S
H537 C523 0.950 1_545 S
H538 C525 0.950 1_545 S
H539 C526 0.951 . S
C540 C541 1.386 . S
C540 C542 1.383 . S
C540 H556 0.951 . S
C541 C540 1.386 . S
C541 C545 1.383 . S
C542 C540 1.383 . S
C542 C543 1.402 . S
C542 H557 0.951 . S
C543 C542 1.402 . S
C543 C544 1.375 . S
C543 C546 1.481 . S
C544 C543 1.375 . S
C544 C545 1.367 . S
C544 H558 0.951 . S
C545 C541 1.383 . S
C545 C544 1.367 . S
C545 H559 0.950 . S
C546 C543 1.481 . S
C546 C547 1.297 1_556 S
C546 H560 0.950 . S
C547 C546 1.297 1_554 S
C547 C548 1.479 . S
C547 H561 0.950 . S
C548 C547 1.479 . S
C548 C549 1.375 . S
C548 C554 1.404 . S
C549 C548 1.375 . S
C549 C550 1.369 . S
C549 H562 0.950 . S
C550 C549 1.369 . S
C550 C551 1.392 . S
C550 H563 0.951 . S
C551 C550 1.392 . S
C551 C553 1.384 . S
H552 C554 0.949 . S
C553 C551 1.384 . S
C553 C554 1.385 . S
C553 H555 0.950 . S
C554 C548 1.404 . S
C554 H552 0.949 . S
C554 C553 1.385 . S
H555 C553 0.950 . S
H556 C540 0.951 . S
H557 C542 0.951 . S
H558 C544 0.951 . S
H559 C545 0.950 . S
H560 C546 0.950 . S
H561 C547 0.950 . S
H562 C549 0.950 . S
H563 C550 0.951 . S
C564 C565 1.386 . S
C564 C566 1.383 . S
C564 H580 0.951 . S
C565 C564 1.386 . S
C565 C569 1.383 . S
C566 C564 1.383 . S
C566 C567 1.402 . S
C566 H581 0.951 . S
C567 C566 1.402 . S
C567 C568 1.375 . S
C567 C570 1.481 . S
C568 C567 1.375 . S
C568 C569 1.367 . S
C568 H582 0.951 . S
C569 C565 1.383 . S
C569 C568 1.367 . S
C569 H583 0.950 . S
C570 C567 1.481 . S
C570 C571 1.297 . S
C570 H584 0.950 . S
C571 C570 1.297 . S
C571 C572 1.479 . S
C571 H585 0.950 . S
C572 C571 1.479 . S
C572 C573 1.375 . S
C572 C578 1.404 . S
C573 C572 1.375 . S
C573 C574 1.369 . S
C573 H586 0.950 . S
C574 C573 1.369 . S
C574 C575 1.392 . S
C574 H587 0.951 . S
C575 C574 1.392 . S
C575 C577 1.384 . S
H576 C578 0.949 . S
C577 C575 1.384 . S
C577 C578 1.385 . S
C577 H579 0.950 . S
C578 C572 1.404 . S
C578 H576 0.949 . S
C578 C577 1.385 . S
H579 C577 0.950 . S
H580 C564 0.951 . S
H581 C566 0.951 . S
H582 C568 0.951 . S
H583 C569 0.950 . S
H584 C570 0.950 . S
H585 C571 0.950 . S
H586 C573 0.950 . S
H587 C574 0.951 . S
C588 C589 1.386 . S
C588 C590 1.383 . S
C588 H604 0.951 . S
C589 C588 1.386 . S
C589 C593 1.383 . S
C590 C588 1.383 . S
C590 C591 1.402 . S
C590 H605 0.951 . S
C591 C590 1.402 . S
C591 C592 1.375 . S
C591 C594 1.481 . S
C592 C591 1.375 . S
C592 C593 1.367 . S
C592 H606 0.951 . S
C593 C589 1.383 . S
C593 C592 1.367 . S
C593 H607 0.950 . S
C594 C591 1.481 . S
C594 C595 1.297 . S
C594 H608 0.950 . S
C595 C594 1.297 . S
C595 C596 1.479 . S
C595 H609 0.950 . S
C596 C595 1.479 . S
C596 C597 1.375 . S
C596 C602 1.404 . S
C597 C596 1.375 . S
C597 C598 1.369 . S
C597 H610 0.950 . S
C598 C597 1.369 . S
C598 C599 1.392 . S
C598 H611 0.951 . S
C599 C598 1.392 . S
C599 C601 1.384 . S
H600 C602 0.949 . S
C601 C599 1.384 . S
C601 C602 1.385 . S
C601 H603 0.950 . S
C602 C596 1.404 . S
C602 H600 0.949 . S
C602 C601 1.385 . S
H603 C601 0.950 . S
H604 C588 0.951 . S
H605 C590 0.951 . S
H606 C592 0.951 . S
H607 C593 0.950 . S
H608 C594 0.950 . S
H609 C595 0.950 . S
H610 C597 0.950 . S
H611 C598 0.951 . S
C612 C613 1.386 . S
C612 C614 1.383 . S
C612 H628 0.951 . S
C613 C612 1.386 . S
C613 C617 1.383 . S
C614 C612 1.383 . S
C614 C615 1.402 . S
C614 H629 0.951 . S
C615 C614 1.402 . S
C615 C616 1.375 . S
C615 C618 1.481 . S
C616 C615 1.375 . S
C616 C617 1.367 . S
C616 H630 0.951 . S
C617 C613 1.383 . S
C617 C616 1.367 . S
C617 H631 0.950 . S
C618 C615 1.481 . S
C618 C619 1.297 1_556 S
C618 H632 0.950 . S
C619 C618 1.297 1_554 S
C619 C620 1.479 . S
C619 H633 0.950 . S
C620 C619 1.479 . S
C620 C621 1.375 . S
C620 C626 1.404 . S
C621 C620 1.375 . S
C621 C622 1.369 . S
C621 H634 0.950 . S
C622 C621 1.369 . S
C622 C623 1.392 . S
C622 H635 0.951 . S
C623 C622 1.392 . S
C623 C625 1.384 . S
H624 C626 0.949 . S
C625 C623 1.384 . S
C625 C626 1.385 . S
C625 H627 0.950 . S
C626 C620 1.404 . S
C626 H624 0.949 . S
C626 C625 1.385 . S
H627 C625 0.950 . S
H628 C612 0.951 . S
H629 C614 0.951 . S
H630 C616 0.951 . S
H631 C617 0.950 . S
H632 C618 0.950 . S
H633 C619 0.950 . S
H634 C621 0.950 . S
H635 C622 0.951 . S
C636 C637 1.386 . S
C636 C638 1.383 . S
C636 H652 0.951 . S
C637 C636 1.386 . S
C637 C641 1.383 . S
C638 C636 1.383 . S
C638 C639 1.402 . S
C638 H653 0.951 . S
C639 C638 1.402 . S
C639 C640 1.375 . S
C639 C642 1.481 . S
C640 C639 1.375 . S
C640 C641 1.367 . S
C640 H654 0.951 . S
C641 C637 1.383 . S
C641 C640 1.367 . S
C641 H655 0.950 . S
C642 C639 1.481 . S
C642 C643 1.297 . S
C642 H656 0.950 . S
C643 C642 1.297 . S
C643 C644 1.479 . S
C643 H657 0.950 . S
C644 C643 1.479 . S
C644 C645 1.375 . S
C644 C650 1.404 . S
C645 C644 1.375 . S
C645 C646 1.369 . S
C645 H658 0.950 . S
C646 C645 1.369 . S
C646 C647 1.392 . S
C646 H659 0.951 . S
C647 C646 1.392 . S
C647 C649 1.384 . S
H648 C650 0.949 . S
C649 C647 1.384 . S
C649 C650 1.385 . S
C649 H651 0.950 . S
C650 C644 1.404 . S
C650 H648 0.949 . S
C650 C649 1.385 . S
H651 C649 0.950 . S
H652 C636 0.951 . S
H653 C638 0.951 . S
H654 C640 0.951 . S
H655 C641 0.950 . S
H656 C642 0.950 . S
H657 C643 0.950 . S
H658 C645 0.950 . S
H659 C646 0.951 . S
C660 C661 1.386 . S
C660 C662 1.383 . S
C660 H676 0.951 . S
C661 C660 1.386 . S
C661 C665 1.383 . S
C662 C660 1.383 . S
C662 C663 1.402 . S
C662 H677 0.951 . S
C663 C662 1.402 . S
C663 C664 1.375 . S
C663 C666 1.481 . S
C664 C663 1.375 . S
C664 C665 1.367 . S
C664 H678 0.951 . S
C665 C661 1.383 . S
C665 C664 1.367 . S
C665 H679 0.950 . S
C666 C663 1.481 . S
C666 C667 1.297 . S
C666 H680 0.950 . S
C667 C666 1.297 . S
C667 C668 1.479 . S
C667 H681 0.950 . S
C668 C667 1.479 . S
C668 C669 1.375 . S
C668 C674 1.404 . S
C669 C668 1.375 . S
C669 C670 1.369 . S
C669 H682 0.950 . S
C670 C669 1.369 . S
C670 C671 1.392 . S
C670 H683 0.951 . S
C671 C670 1.392 . S
C671 C673 1.384 . S
H672 C674 0.949 . S
C673 C671 1.384 . S
C673 C674 1.385 . S
C673 H675 0.950 . S
C674 C668 1.404 . S
C674 H672 0.949 . S
C674 C673 1.385 . S
H675 C673 0.950 . S
H676 C660 0.951 . S
H677 C662 0.951 . S
H678 C664 0.951 . S
H679 C665 0.950 . S
H680 C666 0.950 . S
H681 C667 0.950 . S
H682 C669 0.950 . S
H683 C670 0.951 . S
C684 C685 1.386 . S
C684 C686 1.383 . S
C684 H700 0.951 . S
C685 C684 1.386 . S
C685 C689 1.383 . S
C686 C684 1.383 . S
C686 C687 1.402 . S
C686 H701 0.951 . S
C687 C686 1.402 . S
C687 C688 1.375 . S
C687 C690 1.481 . S
C688 C687 1.375 . S
C688 C689 1.367 . S
C688 H702 0.951 . S
C689 C685 1.383 . S
C689 C688 1.367 . S
C689 H703 0.950 . S
C690 C687 1.481 . S
C690 C691 1.297 . S
C690 H704 0.950 . S
C691 C690 1.297 . S
C691 C692 1.479 . S
C691 H705 0.950 . S
C692 C691 1.479 . S
C692 C693 1.375 . S
C692 C698 1.404 . S
C693 C692 1.375 . S
C693 C694 1.369 . S
C693 H706 0.950 . S
C694 C693 1.369 . S
C694 C695 1.392 . S
C694 H707 0.951 . S
C695 C694 1.392 . S
C695 C697 1.384 . S
H696 C698 0.949 . S
C697 C695 1.384 . S
C697 C698 1.385 . S
C697 H699 0.950 . S
C698 C692 1.404 . S
C698 H696 0.949 . S
C698 C697 1.385 . S
H699 C697 0.950 . S
H700 C684 0.951 . S
H701 C686 0.951 . S
H702 C688 0.951 . S
H703 C689 0.950 . S
H704 C690 0.950 . S
H705 C691 0.950 . S
H706 C693 0.950 . S
H707 C694 0.951 . S
C708 C709 1.386 . S
C708 C710 1.383 . S
C708 H724 0.951 . S
C709 C708 1.386 . S
C709 C713 1.383 . S
C710 C708 1.383 . S
C710 C711 1.402 . S
C710 H725 0.951 . S
C711 C710 1.402 . S
C711 C712 1.375 . S
C711 C714 1.481 . S
C712 C711 1.375 . S
C712 C713 1.367 . S
C712 H726 0.951 . S
C713 C709 1.383 . S
C713 C712 1.367 . S
C713 H727 0.950 . S
C714 C711 1.481 . S
C714 C715 1.297 . S
C714 H728 0.950 1_655 S
C715 C714 1.297 . S
C715 C716 1.479 1_655 S
C715 H729 0.950 . S
C716 C715 1.479 1_455 S
C716 C717 1.375 . S
C716 C722 1.404 . S
C717 C716 1.375 . S
C717 C718 1.369 . S
C717 H730 0.950 . S
C718 C717 1.369 . S
C718 C719 1.392 . S
C718 H731 0.951 . S
C719 C718 1.392 . S
C719 C721 1.384 . S
H720 C722 0.949 . S
C721 C719 1.384 . S
C721 C722 1.385 . S
C721 H723 0.950 . S
C722 C716 1.404 . S
C722 H720 0.949 . S
C722 C721 1.385 . S
H723 C721 0.950 . S
H724 C708 0.951 . S
H725 C710 0.951 . S
H726 C712 0.951 . S
H727 C713 0.950 . S
H728 C714 0.950 1_455 S
H729 C715 0.950 . S
H730 C717 0.950 . S
H731 C718 0.951 . S
C732 C733 1.386 . S
C732 C734 1.383 . S
C732 H748 0.951 . S
C733 C732 1.386 . S
C733 C737 1.383 . S
C734 C732 1.383 . S
C734 C735 1.402 . S
C734 H749 0.951 1_545 S
C735 C734 1.402 . S
C735 C736 1.375 . S
C735 C738 1.481 . S
C736 C735 1.375 . S
C736 C737 1.367 . S
C736 H750 0.951 . S
C737 C733 1.383 . S
C737 C736 1.367 . S
C737 H751 0.950 . S
C738 C735 1.481 . S
C738 C739 1.297 1_545 S
C738 H752 0.950 . S
C739 C738 1.297 1_565 S
C739 C740 1.479 . S
C739 H753 0.950 . S
C740 C739 1.479 . S
C740 C741 1.375 . S
C740 C746 1.404 . S
C741 C740 1.375 . S
C741 C742 1.369 . S
C741 H754 0.950 . S
C742 C741 1.369 . S
C742 C743 1.392 . S
C742 H755 0.951 . S
C743 C742 1.392 . S
C743 C745 1.384 . S
H744 C746 0.949 1_545 S
C745 C743 1.384 . S
C745 C746 1.385 . S
C745 H747 0.950 . S
C746 C740 1.404 . S
C746 H744 0.949 1_565 S
C746 C745 1.385 . S
H747 C745 0.950 . S
H748 C732 0.951 . S
H749 C734 0.951 1_565 S
H750 C736 0.951 . S
H751 C737 0.950 . S
H752 C738 0.950 . S
H753 C739 0.950 . S
H754 C741 0.950 . S
H755 C742 0.951 . S
C756 C757 1.386 . S
C756 C758 1.383 . S
C756 H772 0.951 . S
C757 C756 1.386 . S
C757 C761 1.383 . S
C758 C756 1.383 . S
C758 C759 1.402 . S
C758 H773 0.951 . S
C759 C758 1.402 . S
C759 C760 1.375 . S
C759 C762 1.481 . S
C760 C759 1.375 . S
C760 C761 1.367 . S
C760 H774 0.951 . S
C761 C757 1.383 . S
C761 C760 1.367 . S
C761 H775 0.950 . S
C762 C759 1.481 . S
C762 C763 1.297 . S
C762 H776 0.950 . S
C763 C762 1.297 . S
C763 C764 1.479 . S
C763 H777 0.950 . S
C764 C763 1.479 . S
C764 C765 1.375 . S
C764 C770 1.404 . S
C765 C764 1.375 . S
C765 C766 1.369 . S
C765 H778 0.950 . S
C766 C765 1.369 . S
C766 C767 1.392 . S
C766 H779 0.951 . S
C767 C766 1.392 . S
C767 C769 1.384 . S
H768 C770 0.949 . S
C769 C767 1.384 . S
C769 C770 1.385 . S
C769 H771 0.950 . S
C770 C764 1.404 . S
C770 H768 0.949 . S
C770 C769 1.385 . S
H771 C769 0.950 . S
H772 C756 0.951 . S
H773 C758 0.951 . S
H774 C760 0.951 . S
H775 C761 0.950 . S
H776 C762 0.950 . S
H777 C763 0.950 . S
H778 C765 0.950 . S
H779 C766 0.951 . S
C780 C781 1.386 . S
C780 C782 1.383 . S
C780 H796 0.951 . S
C781 C780 1.386 . S
C781 C785 1.383 . S
C782 C780 1.383 . S
C782 C783 1.402 . S
C782 H797 0.951 . S
C783 C782 1.402 . S
C783 C784 1.375 . S
C783 C786 1.481 . S
C784 C783 1.375 . S
C784 C785 1.367 . S
C784 H798 0.951 . S
C785 C781 1.383 . S
C785 C784 1.367 . S
C785 H799 0.950 . S
C786 C783 1.481 . S
C786 C787 1.297 . S
C786 H800 0.950 1_655 S
C787 C786 1.297 . S
C787 C788 1.479 1_655 S
C787 H801 0.950 . S
C788 C787 1.479 1_455 S
C788 C789 1.375 . S
C788 C794 1.404 . S
C789 C788 1.375 . S
C789 C790 1.369 . S
C789 H802 0.950 . S
C790 C789 1.369 . S
C790 C791 1.392 . S
C790 H803 0.951 . S
C791 C790 1.392 . S
C791 C793 1.384 . S
H792 C794 0.949 . S
C793 C791 1.384 . S
C793 C794 1.385 . S
C793 H795 0.950 . S
C794 C788 1.404 . S
C794 H792 0.949 . S
C794 C793 1.385 . S
H795 C793 0.950 . S
H796 C780 0.951 . S
H797 C782 0.951 . S
H798 C784 0.951 . S
H799 C785 0.950 . S
H800 C786 0.950 1_455 S
H801 C787 0.950 . S
H802 C789 0.950 . S
H803 C790 0.951 . S
C804 C805 1.386 . S
C804 C806 1.383 . S
C804 H820 0.951 . S
C805 C804 1.386 . S
C805 C809 1.383 . S
C806 C804 1.383 . S
C806 C807 1.402 . S
C806 H821 0.951 . S
C807 C806 1.402 . S
C807 C808 1.375 . S
C807 C810 1.481 1_545 S
C808 C807 1.375 . S
C808 C809 1.367 . S
C808 H822 0.951 1_545 S
C809 C805 1.383 . S
C809 C808 1.367 . S
C809 H823 0.950 . S
C810 C807 1.481 1_565 S
C810 C811 1.297 . S
C810 H824 0.950 . S
C811 C810 1.297 . S
C811 C812 1.479 . S
C811 H825 0.950 1_565 S
C812 C811 1.479 . S
C812 C813 1.375 . S
C812 C818 1.404 . S
C813 C812 1.375 . S
C813 C814 1.369 . S
C813 H826 0.950 1_565 S
C814 C813 1.369 . S
C814 C815 1.392 . S
C814 H827 0.951 . S
C815 C814 1.392 . S
C815 C817 1.384 . S
H816 C818 0.949 . S
C817 C815 1.384 . S
C817 C818 1.385 . S
C817 H819 0.950 . S
C818 C812 1.404 . S
C818 H816 0.949 . S
C818 C817 1.385 . S
H819 C817 0.950 . S
H820 C804 0.951 . S
H821 C806 0.951 . S
H822 C808 0.951 1_565 S
H823 C809 0.950 . S
H824 C810 0.950 . S
H825 C811 0.950 1_545 S
H826 C813 0.950 1_545 S
H827 C814 0.951 . S
C828 C829 1.386 . S
C828 C830 1.383 . S
C828 H844 0.951 . S
C829 C828 1.386 . S
C829 C833 1.383 . S
C830 C828 1.383 . S
C830 C831 1.402 . S
C830 H845 0.951 . S
C831 C830 1.402 . S
C831 C832 1.375 . S
C831 C834 1.481 . S
C832 C831 1.375 . S
C832 C833 1.367 . S
C832 H846 0.951 . S
C833 C829 1.383 . S
C833 C832 1.367 . S
C833 H847 0.950 . S
C834 C831 1.481 . S
C834 C835 1.297 1_455 S
C834 H848 0.950 . S
C835 C834 1.297 1_655 S
C835 C836 1.479 . S
C835 H849 0.950 . S
C836 C835 1.479 . S
C836 C837 1.375 . S
C836 C842 1.404 . S
C837 C836 1.375 . S
C837 C838 1.369 . S
C837 H850 0.950 . S
C838 C837 1.369 . S
C838 C839 1.392 . S
C838 H851 0.951 . S
C839 C838 1.392 . S
C839 C841 1.384 . S
H840 C842 0.949 . S
C841 C839 1.384 . S
C841 C842 1.385 . S
C841 H843 0.950 . S
C842 C836 1.404 . S
C842 H840 0.949 . S
C842 C841 1.385 . S
H843 C841 0.950 . S
H844 C828 0.951 . S
H845 C830 0.951 . S
H846 C832 0.951 . S
H847 C833 0.950 . S
H848 C834 0.950 . S
H849 C835 0.950 . S
H850 C837 0.950 . S
H851 C838 0.951 . S
C852 C853 1.386 . S
C852 C854 1.383 . S
C852 H868 0.951 . S
C853 C852 1.386 . S
C853 C857 1.383 . S
C854 C852 1.383 . S
C854 C855 1.402 . S
C854 H869 0.951 . S
C855 C854 1.402 . S
C855 C856 1.375 . S
C855 C858 1.481 . S
C856 C855 1.375 . S
C856 C857 1.367 . S
C856 H870 0.951 . S
C857 C853 1.383 . S
C857 C856 1.367 . S
C857 H871 0.950 . S
C858 C855 1.481 . S
C858 C859 1.297 1_565 S
C858 H872 0.950 . S
C859 C858 1.297 1_545 S
C859 C860 1.479 . S
C859 H873 0.950 . S
C860 C859 1.479 . S
C860 C861 1.375 . S
C860 C866 1.404 . S
C861 C860 1.375 . S
C861 C862 1.369 . S
C861 H874 0.950 . S
C862 C861 1.369 . S
C862 C863 1.392 . S
C862 H875 0.951 . S
C863 C862 1.392 . S
C863 C865 1.384 . S
H864 C866 0.949 . S
C865 C863 1.384 . S
C865 C866 1.385 . S
C865 H867 0.950 . S
C866 C860 1.404 . S
C866 H864 0.949 . S
C866 C865 1.385 . S
H867 C865 0.950 . S
H868 C852 0.951 . S
H869 C854 0.951 . S
H870 C856 0.951 . S
H871 C857 0.950 . S
H872 C858 0.950 . S
H873 C859 0.950 . S
H874 C861 0.950 . S
H875 C862 0.951 . S
C876 C877 1.386 . S
C876 C878 1.383 . S
C876 H892 0.951 . S
C877 C876 1.386 . S
C877 C881 1.383 . S
C878 C876 1.383 . S
C878 C879 1.402 . S
C878 H893 0.951 . S
C879 C878 1.402 . S
C879 C880 1.375 . S
C879 C882 1.481 . S
C880 C879 1.375 . S
C880 C881 1.367 . S
C880 H894 0.951 . S
C881 C877 1.383 . S
C881 C880 1.367 . S
C881 H895 0.950 . S
C882 C879 1.481 . S
C882 C883 1.297 . S
C882 H896 0.950 . S
C883 C882 1.297 . S
C883 C884 1.479 . S
C883 H897 0.950 . S
C884 C883 1.479 . S
C884 C885 1.375 . S
C884 C890 1.404 . S
C885 C884 1.375 . S
C885 C886 1.369 . S
C885 H898 0.950 . S
C886 C885 1.369 . S
C886 C887 1.392 . S
C886 H899 0.951 . S
C887 C886 1.392 . S
C887 C889 1.384 . S
H888 C890 0.949 . S
C889 C887 1.384 . S
C889 C890 1.385 . S
C889 H891 0.950 . S
C890 C884 1.404 . S
C890 H888 0.949 . S
C890 C889 1.385 . S
H891 C889 0.950 . S
H892 C876 0.951 . S
H893 C878 0.951 . S
H894 C880 0.951 . S
H895 C881 0.950 . S
H896 C882 0.950 . S
H897 C883 0.950 . S
H898 C885 0.950 . S
H899 C886 0.951 . S
C900 C901 1.386 . S
C900 C902 1.383 . S
C900 H916 0.951 . S
C901 C900 1.386 . S
C901 C905 1.383 . S
C902 C900 1.383 . S
C902 C903 1.402 . S
C902 H917 0.951 . S
C903 C902 1.402 . S
C903 C904 1.375 . S
C903 C906 1.481 . S
C904 C903 1.375 . S
C904 C905 1.367 . S
C904 H918 0.951 . S
C905 C901 1.383 . S
C905 C904 1.367 . S
C905 H919 0.950 . S
C906 C903 1.481 . S
C906 C907 1.297 1_655 S
C906 H920 0.950 . S
C907 C906 1.297 1_455 S
C907 C908 1.479 . S
C907 H921 0.950 . S
C908 C907 1.479 . S
C908 C909 1.375 . S
C908 C914 1.404 . S
C909 C908 1.375 . S
C909 C910 1.369 . S
C909 H922 0.950 . S
C910 C909 1.369 . S
C910 C911 1.392 . S
C910 H923 0.951 . S
C911 C910 1.392 . S
C911 C913 1.384 . S
H912 C914 0.949 . S
C913 C911 1.384 . S
C913 C914 1.385 . S
C913 H915 0.950 . S
C914 C908 1.404 . S
C914 H912 0.949 . S
C914 C913 1.385 . S
H915 C913 0.950 . S
H916 C900 0.951 . S
H917 C902 0.951 . S
H918 C904 0.951 . S
H919 C905 0.950 . S
H920 C906 0.950 . S
H921 C907 0.950 . S
H922 C909 0.950 . S
H923 C910 0.951 . S
C924 C925 1.386 . S
C924 C926 1.383 . S
C924 H940 0.951 . S
C925 C924 1.386 . S
C925 C929 1.383 . S
C926 C924 1.383 . S
C926 C927 1.402 . S
C926 H941 0.951 . S
C927 C926 1.402 . S
C927 C928 1.375 . S
C927 C930 1.481 . S
C928 C927 1.375 . S
C928 C929 1.367 . S
C928 H942 0.951 . S
C929 C925 1.383 . S
C929 C928 1.367 . S
C929 H943 0.950 . S
C930 C927 1.481 . S
C930 C931 1.297 1_565 S
C930 H944 0.949 1_565 S
C931 C930 1.297 1_545 S
C931 C932 1.479 . S
C931 H945 0.954 . S
C932 C931 1.479 . S
C932 C933 1.375 . S
C932 C938 1.404 . S
C933 C932 1.375 . S
C933 C934 1.369 . S
C933 H946 0.950 . S
C934 C933 1.369 . S
C934 C935 1.392 . S
C934 H947 0.951 . S
C935 C934 1.392 . S
C935 C937 1.384 . S
H936 C938 0.949 . S
C937 C935 1.384 . S
C937 C938 1.385 . S
C937 H939 0.950 . S
C938 C932 1.404 . S
C938 H936 0.949 . S
C938 C937 1.385 . S
H939 C937 0.950 . S
H940 C924 0.951 . S
H941 C926 0.951 . S
H942 C928 0.951 . S
H943 C929 0.950 . S
H944 C930 0.949 1_545 S
H945 C931 0.954 . S
H946 C933 0.950 . S
H947 C934 0.951 . S
C948 C949 1.386 . S
C948 C950 1.383 . S
C948 H964 0.951 . S
C949 C948 1.386 . S
C949 C953 1.383 . S
C950 C948 1.383 . S
C950 C951 1.402 . S
C950 H965 0.951 . S
C951 C950 1.402 . S
C951 C952 1.375 . S
C951 C954 1.481 . S
C952 C951 1.375 . S
C952 C953 1.367 . S
C952 H966 0.951 . S
C953 C949 1.383 . S
C953 C952 1.367 . S
C953 H967 0.950 . S
C954 C951 1.481 . S
C954 C955 1.297 . S
C954 H968 0.950 . S
C955 C954 1.297 . S
C955 C956 1.479 . S
C955 H969 0.950 . S
C956 C955 1.479 . S
C956 C957 1.375 . S
C956 C962 1.404 . S
C957 C956 1.375 . S
C957 C958 1.369 . S
C957 H970 0.950 . S
C958 C957 1.369 . S
C958 C959 1.392 . S
C958 H971 0.951 . S
C959 C958 1.392 . S
C959 C961 1.384 . S
H960 C962 0.949 . S
C961 C959 1.384 . S
C961 C962 1.385 . S
C961 H963 0.950 . S
C962 C956 1.404 . S
C962 H960 0.949 . S
C962 C961 1.385 . S
H963 C961 0.950 . S
H964 C948 0.951 . S
H965 C950 0.951 . S
H966 C952 0.951 . S
H967 C953 0.950 . S
H968 C954 0.950 . S
H969 C955 0.950 . S
H970 C957 0.950 . S
H971 C958 0.951 . S
C972 C973 1.386 . S
C972 C974 1.383 . S
C972 H988 0.951 . S
C973 C972 1.386 . S
C973 C977 1.383 . S
C974 C972 1.383 . S
C974 C975 1.402 . S
C974 H989 0.951 . S
C975 C974 1.402 . S
C975 C976 1.375 . S
C975 C978 1.481 . S
C976 C975 1.375 . S
C976 C977 1.367 . S
C976 H990 0.951 . S
C977 C973 1.383 . S
C977 C976 1.367 . S
C977 H991 0.950 . S
C978 C975 1.481 . S
C978 C979 1.297 . S
C978 H992 0.950 . S
C979 C978 1.297 . S
C979 C980 1.479 . S
C979 H993 0.950 . S
C980 C979 1.479 . S
C980 C981 1.375 . S
C980 C986 1.404 . S
C981 C980 1.375 . S
C981 C982 1.369 . S
C981 H994 0.950 . S
C982 C981 1.369 . S
C982 C983 1.392 . S
C982 H995 0.951 . S
C983 C982 1.392 . S
C983 C985 1.384 . S
H984 C986 0.949 . S
C985 C983 1.384 . S
C985 C986 1.385 . S
C985 H987 0.950 . S
C986 C980 1.404 . S
C986 H984 0.949 . S
C986 C985 1.385 . S
H987 C985 0.950 . S
H988 C972 0.951 . S
H989 C974 0.951 . S
H990 C976 0.951 . S
H991 C977 0.950 . S
H992 C978 0.950 . S
H993 C979 0.950 . S
H994 C981 0.950 . S
H995 C982 0.951 . S
C996 C997 1.386 . S
C996 C998 1.383 . S
C996 H1012 0.951 . S
C997 C996 1.386 . S
C997 C1001 1.383 . S
C998 C996 1.383 . S
C998 C999 1.402 . S
C998 H1013 0.951 . S
C999 C998 1.402 . S
C999 C1000 1.375 . S
C999 C1002 1.481 . S
C1000 C999 1.375 . S
C1000 C1001 1.367 . S
C1000 H1014 0.951 . S
C1001 C997 1.383 . S
C1001 C1000 1.367 . S
C1001 H1015 0.950 . S
C1002 C999 1.481 . S
C1002 C1003 1.297 . S
C1002 H1016 0.950 . S
C1003 C1002 1.297 . S
C1003 C1004 1.479 . S
C1003 H1017 0.950 . S
C1004 C1003 1.479 . S
C1004 C1005 1.375 . S
C1004 C1010 1.404 . S
C1005 C1004 1.375 . S
C1005 C1006 1.369 . S
C1005 H1018 0.950 . S
C1006 C1005 1.369 . S
C1006 C1007 1.392 . S
C1006 H1019 0.951 . S
C1007 C1006 1.392 . S
C1007 C1009 1.384 . S
H1008 C1010 0.949 . S
C1009 C1007 1.384 . S
C1009 C1010 1.385 . S
C1009 H1011 0.950 . S
C1010 C1004 1.404 . S
C1010 H1008 0.949 . S
C1010 C1009 1.385 . S
H1011 C1009 0.950 . S
H1012 C996 0.951 . S
H1013 C998 0.951 . S
H1014 C1000 0.951 . S
H1015 C1001 0.950 . S
H1016 C1002 0.950 . S
H1017 C1003 0.950 . S
H1018 C1005 0.950 . S
H1019 C1006 0.951 . S
C1020 C1021 1.386 . S
C1020 C1022 1.383 . S
C1020 H1036 0.951 . S
C1021 C1020 1.386 . S
C1021 C1025 1.383 . S
C1022 C1020 1.383 . S
C1022 C1023 1.402 . S
C1022 H1037 0.951 . S
C1023 C1022 1.402 . S
C1023 C1024 1.375 . S
C1023 C1026 1.481 . S
C1024 C1023 1.375 . S
C1024 C1025 1.367 . S
C1024 H1038 0.951 . S
C1025 C1021 1.383 . S
C1025 C1024 1.367 . S
C1025 H1039 0.950 . S
C1026 C1023 1.481 . S
C1026 C1027 1.297 . S
C1026 H1040 0.950 . S
C1027 C1026 1.297 . S
C1027 C1028 1.479 . S
C1027 H1041 0.950 . S
C1028 C1027 1.479 . S
C1028 C1029 1.375 . S
C1028 C1034 1.404 . S
C1029 C1028 1.375 . S
C1029 C1030 1.369 . S
C1029 H1042 0.950 . S
C1030 C1029 1.369 . S
C1030 C1031 1.392 . S
C1030 H1043 0.951 . S
C1031 C1030 1.392 . S
C1031 C1033 1.384 . S
H1032 C1034 0.949 . S
C1033 C1031 1.384 . S
C1033 C1034 1.385 . S
C1033 H1035 0.950 . S
C1034 C1028 1.404 . S
C1034 H1032 0.949 . S
C1034 C1033 1.385 . S
H1035 C1033 0.950 . S
H1036 C1020 0.951 . S
H1037 C1022 0.951 . S
H1038 C1024 0.951 . S
H1039 C1025 0.950 . S
H1040 C1026 0.950 . S
H1041 C1027 0.950 . S
H1042 C1029 0.950 . S
H1043 C1030 0.951 . S
C1044 C1045 1.386 . S
C1044 C1046 1.383 . S
C1044 H1060 0.951 . S
C1045 C1044 1.386 . S
C1045 C1049 1.383 . S
C1046 C1044 1.383 . S
C1046 C1047 1.402 . S
C1046 H1061 0.951 . S
C1047 C1046 1.402 . S
C1047 C1048 1.375 . S
C1047 C1050 1.481 . S
C1048 C1047 1.375 . S
C1048 C1049 1.367 . S
C1048 H1062 0.951 . S
C1049 C1045 1.383 . S
C1049 C1048 1.367 . S
C1049 H1063 0.950 . S
C1050 C1047 1.481 . S
C1050 C1051 1.297 . S
C1050 H1064 0.950 . S
C1051 C1050 1.297 . S
C1051 C1052 1.479 . S
C1051 H1065 0.950 . S
C1052 C1051 1.479 . S
C1052 C1053 1.375 . S
C1052 C1058 1.404 . S
C1053 C1052 1.375 . S
C1053 C1054 1.369 . S
C1053 H1066 0.950 . S
C1054 C1053 1.369 . S
C1054 C1055 1.392 . S
C1054 H1067 0.951 . S
C1055 C1054 1.392 . S
C1055 C1057 1.384 . S
H1056 C1058 0.949 . S
C1057 C1055 1.384 . S
C1057 C1058 1.385 . S
C1057 H1059 0.950 . S
C1058 C1052 1.404 . S
C1058 H1056 0.949 . S
C1058 C1057 1.385 . S
H1059 C1057 0.950 . S
H1060 C1044 0.951 . S
H1061 C1046 0.951 . S
H1062 C1048 0.951 . S
H1063 C1049 0.950 . S
H1064 C1050 0.950 . S
H1065 C1051 0.950 . S
H1066 C1053 0.950 . S
H1067 C1054 0.951 . S
C1068 C1069 1.386 . S
C1068 C1070 1.383 . S
C1068 H1084 0.951 . S
C1069 C1068 1.386 . S
C1069 C1073 1.383 . S
C1070 C1068 1.383 . S
C1070 C1071 1.402 . S
C1070 H1085 0.951 . S
C1071 C1070 1.402 . S
C1071 C1072 1.375 . S
C1071 C1074 1.481 . S
C1072 C1071 1.375 . S
C1072 C1073 1.367 . S
C1072 H1086 0.951 . S
C1073 C1069 1.383 . S
C1073 C1072 1.367 . S
C1073 H1087 0.950 . S
C1074 C1071 1.481 . S
C1074 C1075 1.297 . S
C1074 H1088 0.950 . S
C1075 C1074 1.297 . S
C1075 C1076 1.479 . S
C1075 H1089 0.950 . S
C1076 C1075 1.479 . S
C1076 C1077 1.375 . S
C1076 C1082 1.404 . S
C1077 C1076 1.375 . S
C1077 C1078 1.369 . S
C1077 H1090 0.950 . S
C1078 C1077 1.369 . S
C1078 C1079 1.392 . S
C1078 H1091 0.951 . S
C1079 C1078 1.392 . S
C1079 C1081 1.384 . S
H1080 C1082 0.949 . S
C1081 C1079 1.384 . S
C1081 C1082 1.385 . S
C1081 H1083 0.950 1_655 S
C1082 C1076 1.404 . S
C1082 H1080 0.949 . S
C1082 C1081 1.385 . S
H1083 C1081 0.950 1_455 S
H1084 C1068 0.951 . S
H1085 C1070 0.951 . S
H1086 C1072 0.951 . S
H1087 C1073 0.950 . S
H1088 C1074 0.950 . S
H1089 C1075 0.950 . S
H1090 C1077 0.950 . S
H1091 C1078 0.951 . S
C1092 C1093 1.386 . S
C1092 C1094 1.383 . S
C1092 H1108 0.951 . S
C1093 C1092 1.386 . S
C1093 C1097 1.383 . S
C1094 C1092 1.383 . S
C1094 C1095 1.402 . S
C1094 H1109 0.951 . S
C1095 C1094 1.402 . S
C1095 C1096 1.375 . S
C1095 C1098 1.481 . S
C1096 C1095 1.375 . S
C1096 C1097 1.367 . S
C1096 H1110 0.951 . S
C1097 C1093 1.383 . S
C1097 C1096 1.367 . S
C1097 H1111 0.950 1_565 S
C1098 C1095 1.481 . S
C1098 C1099 1.297 . S
C1098 H1112 0.950 . S
C1099 C1098 1.297 . S
C1099 C1100 1.479 . S
C1099 H1113 0.950 . S
C1100 C1099 1.479 . S
C1100 C1101 1.375 . S
C1100 C1106 1.404 . S
C1101 C1100 1.375 . S
C1101 C1102 1.369 . S
C1101 H1114 0.950 . S
C1102 C1101 1.369 . S
C1102 C1103 1.392 . S
C1102 H1115 0.951 . S
C1103 C1102 1.392 . S
C1103 C1105 1.384 . S
H1104 C1106 0.949 . S
C1105 C1103 1.384 . S
C1105 C1106 1.385 . S
C1105 H1107 0.950 . S
C1106 C1100 1.404 . S
C1106 H1104 0.949 . S
C1106 C1105 1.385 . S
H1107 C1105 0.950 . S
H1108 C1092 0.951 . S
H1109 C1094 0.951 . S
H1110 C1096 0.951 . S
H1111 C1097 0.950 1_545 S
H1112 C1098 0.950 . S
H1113 C1099 0.950 . S
H1114 C1101 0.950 . S
H1115 C1102 0.951 . S
C397 N299 1.512 . S
C407 N2 1.496 . S
C421 N35 1.552 . S
C431 N332 1.529 . S
C445 N68 1.534 . S
C455 N365 1.497 . S
C469 N101 1.513 . S
C479 N200 1.493 . S
C493 N134 1.556 . S
C503 N233 1.560 . S
C517 N167 1.530 . S
C527 N266 1.493 . S
C541 N343 1.667 . S
C551 N13 1.672 . S
C565 N376 1.650 . S
C575 N46 1.671 . S
C589 N79 1.662 . S
C599 N211 1.676 . S
C613 N244 1.663 . S
C623 N112 1.675 . S
C637 N145 1.644 . S
C647 N277 1.620 . S
C661 N178 1.665 . S
C671 N310 1.629 . S
C685 C106 1.383 . S
C695 C7 1.464 . S
C709 C40 1.402 . S
C719 C139 1.333 . S
C733 C172 1.443 . S
C743 C73 1.401 . S
C757 C304 1.425 . S
C767 C205 1.330 . S
C781 C238 1.407 . S
C791 C337 1.331 . S
C805 C370 1.367 . S
C815 C271 1.392 . S
C829 C18 1.554 . S
C839 C381 1.525 . S
C853 C216 1.589 . S
C863 C51 1.533 . S
C877 C84 1.579 . S
C887 C249 1.517 . S
C901 C117 1.548 . S
C911 C282 1.595 . S
C925 C150 1.560 . S
C935 C315 1.519 . S
C949 C348 1.541 . S
C959 C183 1.576 . S
C973 C21 0.140 . S
C983 C285 0.344 . S
C997 C318 0.269 . S
C1007 C54 0.258 . S
C1021 C87 0.270 . S
C1031 C351 0.256 . S
C1045 C384 0.241 . S
C1055 C120 0.303 . S
C1069 C219 0.143 . S
C1079 C153 0.375 . S
C1093 C186 0.124 . S
C1103 C252 0.376 . S
