# Generated by pormake.
# Topology msp, (4)-cn, num edge types: 1
# Building blocks:
#     Node 0, Type 0, BuildingBlock: QUQFOY_clean_sbu_1, # of connection points: 4
#     Node 1, Type 0, BuildingBlock: QUQFOY_clean_sbu_1, # of connection points: 4
#     Node 2, Type 0, BuildingBlock: QUQFOY_clean_sbu_1, # of connection points: 4
#     Node 3, Type 0, BuildingBlock: QUQFOY_clean_sbu_1, # of connection points: 4
#     Node 4, Type 0, BuildingBlock: QUQFOY_clean_sbu_1, # of connection points: 4
#     Node 5, Type 0, BuildingBlock: QUQFOY_clean_sbu_1, # of connection points: 4
#     Node 6, Type 0, BuildingBlock: QUQFOY_clean_sbu_1, # of connection points: 4
#     Node 7, Type 0, BuildingBlock: QUQFOY_clean_sbu_1, # of connection points: 4
#     Edge 8, Type (0, 0), BuildingBlock: FUNLAD_clean_linker_1, # of connection points: 2
#     Edge 9, Type (0, 0), BuildingBlock: FUNLAD_clean_linker_1, # of connection points: 2
#     Edge 10, Type (0, 0), BuildingBlock: FUNLAD_clean_linker_1, # of connection points: 2
#     Edge 11, Type (0, 0), BuildingBlock: FUNLAD_clean_linker_1, # of connection points: 2
#     Edge 12, Type (0, 0), BuildingBlock: FUNLAD_clean_linker_1, # of connection points: 2
#     Edge 13, Type (0, 0), BuildingBlock: FUNLAD_clean_linker_1, # of connection points: 2
#     Edge 14, Type (0, 0), BuildingBlock: FUNLAD_clean_linker_1, # of connection points: 2
#     Edge 15, Type (0, 0), BuildingBlock: FUNLAD_clean_linker_1, # of connection points: 2
#     Edge 16, Type (0, 0), BuildingBlock: FUNLAD_clean_linker_1, # of connection points: 2
#     Edge 17, Type (0, 0), BuildingBlock: FUNLAD_clean_linker_1, # of connection points: 2
#     Edge 18, Type (0, 0), BuildingBlock: FUNLAD_clean_linker_1, # of connection points: 2
#     Edge 19, Type (0, 0), BuildingBlock: FUNLAD_clean_linker_1, # of connection points: 2
#     Edge 20, Type (0, 0), BuildingBlock: FUNLAD_clean_linker_1, # of connection points: 2
#     Edge 21, Type (0, 0), BuildingBlock: FUNLAD_clean_linker_1, # of connection points: 2
#     Edge 22, Type (0, 0), BuildingBlock: FUNLAD_clean_linker_1, # of connection points: 2
#     Edge 23, Type (0, 0), BuildingBlock: FUNLAD_clean_linker_1, # of connection points: 2
# Relax obj value: 0.067
# Max RMSD: 0.124
# Mean RMSD: 0.124
data_MOF--net-msp--node1-QUQFOY_clean_sbu_1--edge1-FUNLAD_clean_linker_1
_symmetry_space_group_name_H-M    P1
_symmetry_Int_Tables_number       1
_symmetry_cell_setting            triclinic
loop_
_symmetry_equiv_pos_as_xyz
'x, y, z'
_cell_length_a     24.676723
_cell_length_b     39.201146
_cell_length_c     35.356869
_cell_angle_alpha  89.641219
_cell_angle_beta   93.620173
_cell_angle_gamma 90.239011
loop_
_atom_site_label
_atom_site_type_symbol
_atom_site_fract_x
_atom_site_fract_y
_atom_site_fract_z
_atom_type_partial_charge
O0 O 0.07287 0.31186 0.3364 0.0
Cd1 Cd 0.01145 0.30204 0.37113 0.0
Cd2 Cd 0.0593 0.36079 0.40682 0.0
O3 O 0.10735 0.35981 0.36047 0.0
O4 O 0.97062 0.26481 0.34326 0.0
O5 O 0.93378 0.3146 0.35476 0.0
C6 C 0.92954 0.28483 0.33943 0.0
C7 C 0.02934 0.41246 0.43195 0.0
C8 C 0.10781 0.33575 0.33645 0.0
C9 C 0.06954 0.29142 0.44653 0.0
O10 O 0.07964 0.32326 0.44616 0.0
O11 O 0.03981 0.27777 0.42014 0.0
O12 O 0.07972 0.40381 0.43512 0.0
O13 O 0.99588 0.39241 0.41331 0.0
O14 O 0.43367 0.30899 0.67195 0.0
Cd15 Cd 0.49189 0.3004 0.63465 0.0
Cd16 Cd 0.44245 0.35433 0.5981 0.0
O17 O 0.39528 0.35453 0.64492 0.0
O18 O 0.54673 0.27219 0.66421 0.0
O19 O 0.56496 0.3233 0.64103 0.0
C20 C 0.58065 0.29696 0.66088 0.0
C21 C 0.47527 0.40493 0.57174 0.0
C22 C 0.39742 0.33191 0.67095 0.0
C23 C 0.43242 0.2841 0.56202 0.0
O24 O 0.42191 0.31583 0.56038 0.0
O25 O 0.46252 0.27188 0.58919 0.0
O26 O 0.42442 0.39709 0.56849 0.0
O27 O 0.50756 0.3846 0.59109 0.0
O28 O 0.93621 0.74487 0.67289 0.0
Cd29 Cd 0.99789 0.74877 0.63671 0.0
Cd30 Cd 0.94929 0.68728 0.61371 0.0
O31 O 0.90816 0.69187 0.66283 0.0
O32 O 0.0435 0.78665 0.65922 0.0
O33 O 0.07368 0.73391 0.65472 0.0
C34 C 0.08179 0.76489 0.66605 0.0
C35 C 0.98173 0.63506 0.59184 0.0
C36 C 0.90543 0.71999 0.68042 0.0
C37 C 0.93528 0.75082 0.56339 0.0
O38 O 0.92137 0.72056 0.57178 0.0
O39 O 0.9718 0.76639 0.58356 0.0
O40 O 0.9305 0.64145 0.5912 0.0
O41 O 0.0148 0.65763 0.60662 0.0
O42 O 0.57234 0.72409 0.31294 0.0
Cd43 Cd 0.52258 0.73095 0.35621 0.0
Cd44 Cd 0.57534 0.67418 0.38432 0.0
O45 O 0.6198 0.6803 0.33654 0.0
O46 O 0.46607 0.7623 0.33342 0.0
O47 O 0.44806 0.7098 0.35265 0.0
C48 C 0.4316 0.73774 0.33619 0.0
C49 C 0.54074 0.62182 0.40457 0.0
C50 C 0.61075 0.70297 0.31099 0.0
C51 C 0.58968 0.73949 0.42853 0.0
O52 O 0.59752 0.70757 0.42699 0.0
O53 O 0.56008 0.75479 0.40306 0.0
O54 O 0.59213 0.62824 0.40731 0.0
O55 O 0.50897 0.64444 0.38846 0.0
O56 O 0.57174 0.80892 0.83905 0.0
Cd57 Cd 0.51175 0.80531 0.87656 0.0
Cd58 Cd 0.56855 0.86585 0.90071 0.0
O59 O 0.60166 0.86163 0.84845 0.0
O60 O 0.46549 0.76762 0.8542 0.0
O61 O 0.43535 0.8202 0.85983 0.0
C62 C 0.42702 0.78936 0.84816 0.0
C63 C 0.55701 0.91954 0.92931 0.0
C64 C 0.60231 0.83359 0.83052 0.0
C65 C 0.58076 0.79916 0.94658 0.0
O66 O 0.59736 0.82888 0.93827 0.0
O67 O 0.53975 0.78604 0.92855 0.0
O68 O 0.60421 0.90806 0.92284 0.0
O69 O 0.51537 0.90138 0.91808 0.0
O70 O 0.94595 0.81466 0.18551 0.0
Cd71 Cd 0.99584 0.80668 0.14257 0.0
Cd72 Cd 0.94217 0.86306 0.1127 0.0
O73 O 0.89799 0.8578 0.16076 0.0
O74 O 0.05191 0.7756 0.16642 0.0
O75 O 0.0706 0.82754 0.14581 0.0
C76 C 0.08666 0.79991 0.16307 0.0
C77 C 0.97387 0.91534 0.08996 0.0
C78 C 0.9074 0.83575 0.18694 0.0
C79 C 0.92915 0.79644 0.07045 0.0
O80 O 0.92103 0.82836 0.0712 0.0
O81 O 0.95865 0.78169 0.09638 0.0
O82 O 0.92286 0.90783 0.08769 0.0
O83 O 0.00687 0.894 0.10713 0.0
O84 O 0.4383 0.24191 0.17791 0.0
Cd85 Cd 0.49458 0.24201 0.1376 0.0
Cd86 Cd 0.4386 0.18053 0.12235 0.0
O87 O 0.40942 0.18849 0.1754 0.0
O88 O 0.54388 0.2801 0.15485 0.0
O89 O 0.57104 0.22652 0.15255 0.0
C90 C 0.58153 0.25788 0.16145 0.0
C91 C 0.45231 0.12562 0.09757 0.0
C92 C 0.40949 0.21793 0.19042 0.0
C93 C 0.42052 0.2426 0.07006 0.0
O94 O 0.40517 0.21383 0.0824 0.0
O95 O 0.46263 0.25722 0.08489 0.0
O96 O 0.40493 0.13605 0.10521 0.0
O97 O 0.49311 0.1455 0.10593 0.0
O98 O 0.06813 0.2414 0.8343 0.0
Cd99 Cd 0.00804 0.24303 0.87136 0.0
Cd100 Cd 0.0592 0.18543 0.89859 0.0
O101 O 0.10607 0.1924 0.85194 0.0
O102 O 0.95057 0.27167 0.84523 0.0
O103 O 0.93837 0.21731 0.86032 0.0
C104 C 0.91991 0.24491 0.84413 0.0
C105 C 0.02876 0.13209 0.91932 0.0
C106 C 0.10411 0.21881 0.83071 0.0
C107 C 0.06351 0.24982 0.94674 0.0
O108 O 0.07698 0.21897 0.94214 0.0
O109 O 0.03285 0.26528 0.9221 0.0
O110 O 0.07941 0.14041 0.92274 0.0
O111 O 0.99556 0.15317 0.90195 0.0
H112 H 0.96697 0.44971 0.4469 0.0
C113 C 0.00991 0.44358 0.45045 0.0
H114 H 0.08637 0.45777 0.47594 0.0
H115 H 0.02405 0.61209 0.50195 0.0
H116 H 0.08066 0.61809 0.44883 0.0
H117 H 0.11218 0.5675 0.41554 0.0
H118 H 0.0867 0.51052 0.43499 0.0
C119 C 0.0432 0.46331 0.47281 0.0
C120 C 0.02347 0.49379 0.49311 0.0
C121 C 0.03977 0.52697 0.48214 0.0
C122 C 0.02244 0.55619 0.50191 0.0
C123 C 0.03733 0.58897 0.48893 0.0
C124 C 0.06955 0.59282 0.45822 0.0
C125 C 0.08725 0.56434 0.43945 0.0
C126 C 0.07246 0.53176 0.45101 0.0
H127 H 0.04572 0.59892 0.57688 0.0
C128 C 1.00231 0.60376 0.57435 0.0
H129 H 0.92585 0.5871 0.55118 0.0
H130 H 0.98836 0.43392 0.52382 0.0
H131 H 0.93208 0.42781 0.57716 0.0
H132 H 0.90145 0.47832 0.61102 0.0
H133 H 0.9273 0.53531 0.59188 0.0
C134 C 0.96938 0.58265 0.55341 0.0
C135 C 0.98982 0.5522 0.53336 0.0
C136 C 0.97368 0.51898 0.54439 0.0
C137 C 0.9908 0.48979 0.5245 0.0
C138 C 0.97553 0.457 0.53719 0.0
C139 C 0.94344 0.45309 0.56796 0.0
C140 C 0.92623 0.48153 0.58704 0.0
C141 C 0.94121 0.51412 0.57564 0.0
H142 H 0.4747 0.58632 0.41846 0.0
C143 C 0.51831 0.59053 0.42151 0.0
H144 H 0.59299 0.5738 0.44737 0.0
H145 H 0.49496 0.49752 0.58459 0.0
H146 H 0.53568 0.54716 0.61552 0.0
H147 H 0.57276 0.59411 0.57813 0.0
H148 H 0.56893 0.59183 0.50956 0.0
C149 C 0.54973 0.5688 0.44279 0.0
C150 C 0.5265 0.5402 0.46492 0.0
C151 C 0.53003 0.54151 0.50513 0.0
C152 C 0.50942 0.51412 0.52679 0.0
C153 C 0.51145 0.51697 0.56677 0.0
C154 C 0.53436 0.5455 0.58492 0.0
C155 C 0.55518 0.57195 0.56388 0.0
C156 C 0.55292 0.57021 0.52448 0.0
H157 H 0.53981 0.44079 0.55609 0.0
C158 C 0.49649 0.43555 0.55277 0.0
H159 H 0.42126 0.45017 0.52594 0.0
H160 H 0.51612 0.5283 0.38856 0.0
H161 H 0.47498 0.47877 0.35758 0.0
H162 H 0.43852 0.4316 0.39497 0.0
H163 H 0.44329 0.43355 0.46357 0.0
C164 C 0.46425 0.45605 0.5305 0.0
C165 C 0.48622 0.48501 0.50826 0.0
C166 C 0.48231 0.48383 0.46804 0.0
C167 C 0.50278 0.51128 0.44638 0.0
C168 C 0.50007 0.50867 0.40637 0.0
C169 C 0.47683 0.48025 0.3882 0.0
C170 C 0.45635 0.45368 0.40925 0.0
C171 C 0.45917 0.45522 0.44867 0.0
H172 H 0.42158 0.07688 0.07378 0.0
C173 C 0.45764 0.09284 0.07754 0.0
H174 H 0.53927 0.09917 0.06398 0.0
H175 H 0.56484 0.94119 0.02565 0.0
H176 H 0.61609 0.94393 0.08626 0.0
H177 H 0.61696 0.99628 0.12462 0.0
H178 H 0.56604 0.04619 0.10266 0.0
C179 C 0.50267 0.08371 0.06061 0.0
C180 C 0.50363 0.05247 0.03644 0.0
C181 C 0.53469 0.02377 0.04904 0.0
C182 C 0.53515 0.99377 0.02643 0.0
C183 C 0.56448 0.96502 0.04084 0.0
C184 C 0.59376 0.96614 0.07581 0.0
C185 C 0.59418 0.99559 0.09744 0.0
C186 C 0.56486 0.02408 0.08446 0.0
H187 H 0.58938 0.96665 0.9561 0.0
C188 C 0.55252 0.95172 0.95064 0.0
H189 H 0.46941 0.94723 0.96087 0.0
H190 H 0.44338 0.10378 1.00191 0.0
H191 H 0.39226 0.10115 0.94122 0.0
H192 H 0.39217 0.04904 0.90249 0.0
H193 H 0.44355 0.99926 0.92415 0.0
C194 C 0.50679 0.96164 0.96618 0.0
C195 C 0.50566 0.99276 0.99057 0.0
C196 C 0.47455 1.02148 0.97799 0.0
C197 C 0.47393 0.05142 1.00068 0.0
C198 C 0.44416 0.08008 0.98649 0.0
C199 C 0.41489 0.07901 0.95152 0.0
C200 C 0.4149 0.04968 0.92969 0.0
C201 C 0.44447 1.02125 0.94253 0.0
H202 H 0.03756 0.9523 0.07537 0.0
C203 C 0.99455 0.94633 0.07136 0.0
H204 H 0.91939 0.95989 0.04352 0.0
H205 H 0.98082 0.11275 0.00787 0.0
H206 H 0.91974 0.1206 0.05803 0.0
H207 H 0.88691 0.07135 0.09392 0.0
H208 H 0.91546 1.0139 0.08006 0.0
C209 C 0.96254 0.9655 0.04741 0.0
C210 C 0.98363 0.99517 0.02587 0.0
C211 C 0.96574 0.0286 0.03367 0.0
C212 C 0.98399 0.057 0.01247 0.0
C213 C 0.96713 0.09015 0.02217 0.0
C214 C 0.9323 0.09508 0.05113 0.0
C215 C 0.91386 0.06735 0.07137 0.0
C216 C 0.93043 0.03448 0.06301 0.0
H217 H 0.96572 0.09424 0.93266 0.0
C218 C 0.00853 0.10061 0.93719 0.0
H219 H 0.08341 0.08763 0.96585 0.0
H220 H 0.022 0.93433 1.00072 0.0
H221 H 0.08321 0.9265 0.95064 0.0
H222 H 0.11623 0.97579 0.91487 0.0
H223 H 0.0877 0.03325 0.92878 0.0
C224 C 0.04046 0.08163 0.96138 0.0
C225 C 0.01935 0.05192 0.98284 0.0
C226 C 0.03726 1.0185 0.97505 0.0
C227 C 0.01898 0.99008 0.99623 0.0
C228 C 0.03578 0.95694 0.98649 0.0
C229 C 0.07068 0.95203 0.95756 0.0
C230 C 0.08922 0.97977 0.93739 0.0
C231 C 0.07266 1.01264 0.94577 0.0
H232 H 0.63928 0.29555 0.18652 0.0
C233 C 0.63316 0.26845 0.18135 0.0
H234 H 0.66218 0.21886 0.19379 0.0
H235 H 0.87117 0.32341 0.24271 0.0
H236 H 0.87266 0.33678 0.1757 0.0
H237 H 0.80287 0.3135 0.1298 0.0
H238 H 0.73097 0.2769 0.15064 0.0
C239 C 0.66934 0.2461 0.19686 0.0
C240 C 0.71458 0.25789 0.22372 0.0
C241 C 0.75683 0.27889 0.21099 0.0
C242 C 0.79769 0.2918 0.2374 0.0
C243 C 0.83919 0.31285 0.22391 0.0
C244 C 0.84059 0.32069 0.1855 0.0
C245 C 0.80125 0.30763 0.15966 0.0
C246 C 0.75992 0.28685 0.17206 0.0
H247 H 0.87792 0.24692 0.30872 0.0
C248 C 0.88049 0.27362 0.31683 0.0
H249 H 0.84514 0.32234 0.30924 0.0
H250 H 0.63991 0.21802 0.25776 0.0
H251 H 0.63929 0.20415 0.3246 0.0
H252 H 0.71022 0.22652 0.37022 0.0
H253 H 0.78227 0.26292 0.34923 0.0
C254 C 0.8417 0.29521 0.30344 0.0
C255 C 0.79709 0.28304 0.27635 0.0
C256 C 0.75518 0.26181 0.28905 0.0
C257 C 0.71407 0.24909 0.26271 0.0
C258 C 0.6724 0.22824 0.27635 0.0
C259 C 0.67144 0.22013 0.31472 0.0
C260 C 0.7114 0.2327 0.3404 0.0
C261 C 0.75273 0.2534 0.32792 0.0
H262 H 0.66173 0.31795 0.67828 0.0
C263 C 0.63471 0.29627 0.68127 0.0
H264 H 0.62295 0.24882 0.70845 0.0
H265 H 0.87489 0.22742 0.75003 0.0
H266 H 0.86303 0.19026 0.69563 0.0
H267 H 0.77697 0.18961 0.65615 0.0
H268 H 0.70237 0.22646 0.6707 0.0
C269 C 0.64928 0.27083 0.70547 0.0
C270 C 0.70123 0.27164 0.72922 0.0
C271 C 0.74395 0.2494 0.72093 0.0
C272 C 0.79319 0.24932 0.74416 0.0
C273 C 0.83601 0.22787 0.73413 0.0
C274 C 0.82989 0.20654 0.70278 0.0
C275 C 0.78147 0.2062 0.68052 0.0
C276 C 0.73893 0.22741 0.68925 0.0
H277 H 0.84118 0.22241 0.82361 0.0
C278 C 0.8665 0.24512 0.82284 0.0
H279 H 0.87545 0.29452 0.79966 0.0
H280 H 0.626 0.31595 0.75455 0.0
H281 H 0.63772 0.35312 0.80897 0.0
H282 H 0.72331 0.35328 0.84898 0.0
H283 H 0.79761 0.31607 0.8349 0.0
C284 C 0.85071 0.27155 0.80038 0.0
C285 C 0.79906 0.27096 0.77622 0.0
C286 C 0.75636 0.29327 0.78444 0.0
C287 C 0.70723 0.29345 0.7611 0.0
C288 C 0.66462 0.31522 0.77077 0.0
C289 C 0.67069 0.3366 0.80208 0.0
C290 C 0.71886 0.33668 0.82462 0.0
C291 C 0.76125 0.31525 0.81614 0.0
H292 H 0.13694 0.80259 0.69401 0.0
C293 C 0.13177 0.77555 0.68803 0.0
H294 H 0.16179 0.72604 0.69984 0.0
H295 H 0.37218 0.82792 0.75019 0.0
H296 H 0.375 0.84064 0.68316 0.0
H297 H 0.3045 0.81841 0.63712 0.0
H298 H 0.2306 0.78343 0.65785 0.0
C299 C 0.16802 0.7533 0.70365 0.0
C300 C 0.2128 0.7651 0.73089 0.0
C301 C 0.25601 0.78534 0.71829 0.0
C302 C 0.29709 0.7978 0.74484 0.0
C303 C 0.33981 0.81785 0.73137 0.0
C304 C 0.34202 0.82529 0.69292 0.0
C305 C 0.30229 0.81281 0.667 0.0
C306 C 0.25985 0.79295 0.67934 0.0
H307 H 0.37129 0.75184 0.8205 0.0
C308 C 0.37665 0.77885 0.82655 0.0
H309 H 0.34689 0.82844 0.81491 0.0
H310 H 0.13617 0.72669 0.76458 0.0
H311 H 0.1334 0.71392 0.8316 0.0
H312 H 0.20392 0.73613 0.87765 0.0
H313 H 0.27778 0.77115 0.85692 0.0
C314 C 0.34043 0.8012 0.81111 0.0
C315 C 0.29553 0.78952 0.78389 0.0
C316 C 0.25232 0.76928 0.79649 0.0
C317 C 0.21124 0.75683 0.76994 0.0
C318 C 0.16854 0.73676 0.7834 0.0
C319 C 0.16636 0.72929 0.82185 0.0
C320 C 0.20609 0.74176 0.84776 0.0
C321 C 0.24851 0.76164 0.83543 0.0
H322 H 0.34835 0.71906 0.32111 0.0
C323 C 0.37619 0.74032 0.3181 0.0
H324 H 0.389 0.78807 0.29187 0.0
H325 H 0.20436 0.72557 0.16873 0.0
H326 H 0.27515 0.6864 0.15266 0.0
H327 H 0.36255 0.68435 0.19052 0.0
H328 H 0.37956 0.72116 0.2448 0.0
C329 C 0.36166 0.76658 0.29502 0.0
C330 C 0.30876 0.76726 0.27235 0.0
C331 C 0.29977 0.74572 0.24042 0.0
C332 C 0.24971 0.74726 0.2182 0.0
C333 C 0.24165 0.72541 0.18657 0.0
C334 C 0.28197 0.70287 0.17697 0.0
C335 C 0.33116 0.7017 0.19831 0.0
C336 C 0.34027 0.72288 0.22958 0.0
H337 H 0.17007 0.81846 0.17791 0.0
C338 C 0.142 0.79739 0.18131 0.0
H339 H 0.12869 0.75007 0.20837 0.0
H340 H 0.31352 0.81242 0.3311 0.0
H341 H 0.24279 0.85166 0.34708 0.0
H342 H 0.1555 0.85382 0.30909 0.0
H343 H 0.13853 0.81702 0.25479 0.0
C344 C 0.15626 0.77138 0.20483 0.0
C345 C 0.2092 0.77075 0.22744 0.0
C346 C 0.21821 0.79233 0.25933 0.0
C347 C 0.26825 0.79076 0.28158 0.0
C348 C 0.27628 0.81261 0.31322 0.0
C349 C 0.23598 0.83519 0.32277 0.0
C350 C 0.18686 0.83642 0.30136 0.0
C351 C 0.17776 0.81524 0.27009 0.0
H352 H 0.34061 0.20638 0.22576 0.0
C353 C 0.36899 0.22614 0.21807 0.0
H354 H 0.38851 0.2788 0.22062 0.0
H355 H 0.13067 0.30252 0.22637 0.0
H356 H 0.13016 0.29087 0.15898 0.0
H357 H 0.21225 0.26956 0.13071 0.0
H358 H 0.29559 0.26045 0.16932 0.0
C359 C 0.36103 0.25864 0.22859 0.0
C360 C 0.31081 0.26951 0.24618 0.0
C361 C 0.26265 0.27529 0.22297 0.0
C362 C 0.21521 0.2874 0.2393 0.0
C363 C 0.16768 0.29297 0.21548 0.0
C364 C 0.16688 0.28654 0.17674 0.0
C365 C 0.21315 0.27464 0.1608 0.0
C366 C 0.26069 0.26932 0.1834 0.0
H367 H 0.18477 0.35239 0.31251 0.0
C368 C 0.15456 0.33214 0.31257 0.0
H369 H 0.13434 0.28161 0.29615 0.0
H370 H 0.39692 0.26226 0.29793 0.0
H371 H 0.39704 0.27243 0.36566 0.0
H372 H 0.31399 0.29146 0.39456 0.0
H373 H 0.23076 0.30095 0.35604 0.0
C374 C 0.16425 0.30204 0.29607 0.0
C375 C 0.21597 0.29385 0.27872 0.0
C376 C 0.26425 0.28811 0.30195 0.0
C377 C 0.31189 0.27635 0.28549 0.0
C378 C 0.35964 0.27106 0.30911 0.0
C379 C 0.36022 0.27671 0.348 0.0
C380 C 0.31348 0.28746 0.36425 0.0
C381 C 0.26593 0.293 0.3417 0.0
H382 H 0.31974 0.34718 0.69412 0.0
C383 C 0.35232 0.32856 0.69636 0.0
H384 H 0.37846 0.28085 0.71911 0.0
H385 H 0.20326 0.28287 0.84462 0.0
H386 H 0.27702 0.31008 0.88203 0.0
H387 H 0.3602 0.32863 0.85238 0.0
H388 H 0.36972 0.3205 0.78502 0.0
C389 C 0.34678 0.30006 0.71728 0.0
C390 C 0.29536 0.29105 0.73465 0.0
C391 C 0.29079 0.2956 0.77399 0.0
C392 C 0.24336 0.28424 0.7912 0.0
C393 C 0.23902 0.2902 0.83034 0.0
C394 C 0.28093 0.30595 0.85207 0.0
C395 C 0.32774 0.31642 0.83537 0.0
C396 C 0.33275 0.31151 0.79675 0.0
H397 H 0.1808 0.20747 0.80383 0.0
C398 C 0.14803 0.22579 0.80507 0.0
H399 H 0.11978 0.27513 0.78918 0.0
H400 H 0.29131 0.27805 0.65837 0.0
H401 H 0.2176 0.2507 0.62125 0.0
H402 H 0.13561 0.23072 0.65137 0.0
H403 H 0.12702 0.23786 0.71897 0.0
C404 C 0.15153 0.25621 0.78737 0.0
C405 C 0.20139 0.26735 0.76924 0.0
C406 C 0.20566 0.26312 0.72982 0.0
C407 C 0.25277 0.27492 0.71246 0.0
C408 C 0.2563 0.2699 0.67304 0.0
C409 C 0.21428 0.25418 0.65137 0.0
C410 C 0.16813 0.24292 0.66834 0.0
C411 C 0.16368 0.2472 0.70711 0.0
H412 H 0.67204 0.84842 0.79728 0.0
C413 C 0.64499 0.82755 0.80383 0.0
H414 H 0.62924 0.77456 0.79891 0.0
H415 H 0.77631 0.74838 0.66237 0.0
H416 H 0.68764 0.74778 0.62894 0.0
H417 H 0.60619 0.76523 0.66076 0.0
H418 H 0.61305 0.78339 0.72639 0.0
C419 C 0.65586 0.79568 0.79244 0.0
C420 C 0.70562 0.78698 0.77294 0.0
C421 C 0.70091 0.7759 0.7348 0.0
C422 C 0.74786 0.76542 0.71662 0.0
C423 C 0.74204 0.75572 0.67803 0.0
C424 C 0.69131 0.75546 0.65835 0.0
C425 C 0.64546 0.76531 0.67626 0.0
C426 C 0.64996 0.77556 0.71397 0.0
H427 H 0.83441 0.70445 0.71207 0.0
C428 C 0.86114 0.72561 0.70595 0.0
H429 H 0.87573 0.77867 0.71139 0.0
H430 H 0.72855 0.80353 0.84771 0.0
H431 H 0.81709 0.80379 0.88126 0.0
H432 H 0.89859 0.78645 0.84942 0.0
H433 H 0.89185 0.76868 0.78365 0.0
C434 C 0.84928 0.75732 0.71734 0.0
C435 C 0.79938 0.76546 0.73695 0.0
C436 C 0.80403 0.77636 0.77516 0.0
C437 C 0.75709 0.78681 0.79334 0.0
C438 C 0.76284 0.79629 0.83202 0.0
C439 C 0.81351 0.79636 0.85177 0.0
C440 C 0.85938 0.78655 0.83386 0.0
C441 C 0.85494 0.77653 0.79606 0.0
H442 H 0.88289 0.82417 0.24428 0.0
C443 C 0.86761 0.82881 0.21519 0.0
H444 H 0.80597 0.81717 0.17339 0.0
H445 H 0.75083 0.67919 0.25541 0.0
H446 H 0.81205 0.6586 0.20949 0.0
H447 H 0.86413 0.69896 0.17192 0.0
H448 H 0.85526 0.76003 0.17989 0.0
C449 C 0.81872 0.81637 0.2034 0.0
C450 C 0.78928 0.7924 0.22772 0.0
C451 C 0.79549 0.75669 0.22304 0.0
C452 C 0.76583 0.73337 0.24485 0.0
C453 C 0.77248 0.69793 0.23949 0.0
C454 C 0.80751 0.68579 0.2133 0.0
C455 C 0.83685 0.70851 0.19217 0.0
C456 C 0.83126 0.74354 0.19697 0.0
H457 H 0.63559 0.71607 0.25412 0.0
C458 C 0.65072 0.71039 0.28301 0.0
H459 H 0.71299 0.7199 0.32513 0.0
H460 H 0.76923 0.85898 0.24404 0.0
H461 H 0.70864 0.87955 0.29038 0.0
H462 H 0.657 0.83918 0.32823 0.0
H463 H 0.66552 0.77812 0.32001 0.0
C464 C 0.70012 0.72176 0.29519 0.0
C465 C 0.73056 0.74577 0.27156 0.0
C466 C 0.72474 0.78148 0.2765 0.0
C467 C 0.75429 0.8048 0.25461 0.0
C468 C 0.74773 0.84024 0.26004 0.0
C469 C 0.71307 0.85236 0.28648 0.0
C470 C 0.68399 0.82964 0.30779 0.0
C471 C 0.68937 0.79462 0.30284 0.0
H472 H 0.37508 0.24261 0.55694 0.0
C473 C 0.39578 0.26104 0.5398 0.0
H474 H 0.39479 0.28858 0.48939 0.0
H475 H 0.14731 0.21773 0.51683 0.0
H476 H 0.19075 0.1622 0.51883 0.0
H477 H 0.28891 0.15693 0.51054 0.0
H478 H 0.34454 0.20728 0.5016 0.0
C479 C 0.3716 0.27176 0.5068 0.0
C480 C 0.31095 0.27363 0.50246 0.0
C481 C 0.27835 0.24386 0.50487 0.0
C482 C 0.22107 0.2467 0.50689 0.0
C483 C 0.19042 0.2168 0.51299 0.0
C484 C 0.21492 0.18483 0.51449 0.0
C485 C 0.27023 0.18187 0.51001 0.0
C486 C 0.30175 0.21096 0.50521 0.0
H487 H 0.12187 0.24752 0.45573 0.0
C488 C 0.1063 0.26942 0.47024 0.0
H489 H 0.11765 0.3034 0.51514 0.0
H490 H 0.36044 0.33713 0.49898 0.0
H491 H 0.31645 0.39134 0.4916 0.0
H492 H 0.2167 0.39556 0.48743 0.0
H493 H 0.16095 0.3456 0.4918 0.0
C494 C 0.13523 0.28241 0.50026 0.0
C495 C 0.19572 0.27907 0.50307 0.0
C496 C 0.22811 0.30884 0.49887 0.0
C497 C 0.28569 0.30622 0.49946 0.0
C498 C 0.3167 0.33676 0.49743 0.0
C499 C 0.29192 0.36848 0.49329 0.0
C500 C 0.23587 0.37086 0.49107 0.0
C501 C 0.20423 0.34162 0.49379 0.0
H502 H 0.91148 0.79641 0.52864 0.0
C503 C 0.90173 0.7699 0.53436 0.0
H504 H 0.8438 0.7303 0.52677 0.0
H505 H 0.63573 0.81567 0.51018 0.0
H506 H 0.65065 0.82355 0.57847 0.0
H507 H 0.73965 0.81056 0.6111 0.0
H508 H 0.81394 0.78917 0.57598 0.0
C509 C 0.85462 0.75646 0.5201 0.0
C510 C 0.81111 0.77672 0.49993 0.0
C511 C 0.76871 0.78977 0.52077 0.0
C512 C 0.71747 0.79718 0.50204 0.0
C513 C 0.67518 0.80934 0.52345 0.0
C514 C 0.68334 0.81408 0.56245 0.0
C515 C 0.73344 0.8067 0.58085 0.0
C516 C 0.77569 0.79444 0.56043 0.0
H517 H 0.6394 0.74447 0.48136 0.0
C518 C 0.62454 0.7586 0.45624 0.0
H519 H 0.64074 0.79882 0.4189 0.0
H520 H 0.88825 0.7601 0.45168 0.0
H521 H 0.87572 0.75611 0.38294 0.0
H522 H 0.78699 0.76876 0.35004 0.0
H523 H 0.71019 0.78541 0.38536 0.0
C524 C 0.65264 0.78611 0.4455 0.0
C525 C 0.70884 0.79123 0.46268 0.0
C526 C 0.75372 0.78309 0.44115 0.0
C527 C 0.80495 0.77565 0.45999 0.0
C528 C 0.84854 0.76579 0.43842 0.0
C529 C 0.8419 0.76352 0.3991 0.0
C530 C 0.79186 0.77066 0.38057 0.0
C531 C 0.74808 0.78016 0.4012 0.0
H532 H 0.88046 0.79057 0.01746 0.0
C533 C 0.89469 0.77682 0.04299 0.0
H534 H 0.87714 0.7377 0.08126 0.0
H535 H 0.63253 0.78208 0.0504 0.0
H536 H 0.64519 0.78264 0.11917 0.0
H537 H 0.73228 0.76532 0.15127 0.0
H538 H 0.80757 0.74757 0.11505 0.0
C539 C 0.86555 0.74997 0.05437 0.0
C540 C 0.80896 0.74562 0.03748 0.0
C541 C 0.76466 0.75399 0.05946 0.0
C542 C 0.71413 0.76377 0.04105 0.0
C543 C 0.67156 0.77434 0.06319 0.0
C544 C 0.67829 0.77472 0.10258 0.0
C545 C 0.72745 0.76499 0.12067 0.0
C546 C 0.77038 0.75493 0.09952 0.0
H547 H 0.60038 0.75301 0.98173 0.0
C548 C 0.6151 0.77781 0.97295 0.0
H549 H 0.68255 0.81091 0.97085 0.0
H550 H 0.87968 0.72019 0.9889 0.0
H551 H 0.8639 0.71478 0.92031 0.0
H552 H 0.77603 0.73154 0.88843 0.0
H553 H 0.70367 0.75424 0.92471 0.0
C554 C 0.66693 0.78703 0.98164 0.0
C555 C 0.70809 0.76448 1.00106 0.0
C556 C 0.7492 0.75067 0.97964 0.0
C557 C 0.79971 0.74103 0.99793 0.0
C558 C 0.84082 0.72816 0.97594 0.0
C559 C 0.83214 0.72483 0.93678 0.0
C560 C 0.78266 0.73432 0.91881 0.0
C561 C 0.74161 0.74734 0.93984 0.0
H562 H 0.39753 0.28516 0.03034 0.0
C563 C 0.38422 0.26117 0.04229 0.0
H564 H 0.31883 0.22693 0.04823 0.0
H565 H 0.13485 0.33446 0.02053 0.0
H566 H 0.16583 0.35677 0.0824 0.0
H567 H 0.25456 0.33974 0.11269 0.0
H568 H 0.31278 0.30024 0.08154 0.0
C569 C 0.33268 0.25049 0.03559 0.0
C570 C 0.29066 0.26986 0.01286 0.0
C571 C 0.25796 0.29359 0.03105 0.0
C572 C 0.20678 0.30335 0.0137 0.0
C573 C 0.17398 0.32623 0.03279 0.0
C574 C 0.19134 0.33922 0.06814 0.0
C575 C 0.24135 0.32966 0.08518 0.0
C576 C 0.27431 0.30693 0.06709 0.0
H577 H 0.10641 0.255 1.00191 0.0
C578 C 0.09573 0.26892 0.97578 0.0
H579 H 0.12322 0.30434 0.93645 0.0
H580 H 0.34819 0.22871 0.96837 0.0
H581 H 0.31785 0.20651 0.90647 0.0
H582 H 0.22818 0.22209 0.87677 0.0
H583 H 0.16898 0.26054 0.90805 0.0
C584 C 0.13097 0.29237 0.96409 0.0
C585 C 0.18871 0.28933 0.97835 0.0
C586 C 0.22374 0.26804 0.95863 0.0
C587 C 0.27492 0.25845 0.97595 0.0
C588 C 0.30854 0.23629 0.95646 0.0
C589 C 0.2917 0.22348 0.92097 0.0
C590 C 0.24124 0.23229 0.90424 0.0
C591 C 0.20759 0.25439 0.9226 0.0
loop_
_geom_bond_atom_site_label_1
_geom_bond_atom_site_label_2
_geom_bond_distance
_geom_bond_site_symmetry_2
_ccdc_geom_bond_type
O0 Cd1 2.223 . S
O0 C8 1.315 . S
Cd1 O0 2.223 . S
Cd1 O4 2.297 1_455 S
Cd1 O5 2.439 1_455 S
Cd1 O11 2.240 . S
Cd2 O3 2.240 . S
Cd2 O10 2.223 . S
Cd2 O12 2.297 . S
Cd2 O13 2.439 1_455 S
O3 Cd2 2.240 . S
O3 C8 1.279 . S
O4 Cd1 2.297 1_655 S
O4 C6 1.247 . S
O5 Cd1 2.439 1_655 S
O5 C6 1.208 . S
C6 O4 1.247 . S
C6 O5 1.208 . S
C7 O12 1.247 . S
C7 O13 1.208 1_455 S
C8 O0 1.315 . S
C8 O3 1.279 . S
C9 O10 1.315 . S
C9 O11 1.279 . S
O10 Cd2 2.223 . S
O10 C9 1.315 . S
O11 Cd1 2.240 . S
O11 C9 1.279 . S
O12 Cd2 2.297 . S
O12 C7 1.247 . S
O13 Cd2 2.439 1_655 S
O13 C7 1.208 1_655 S
O14 Cd15 2.223 . S
O14 C22 1.315 . S
Cd15 O14 2.223 . S
Cd15 O18 2.297 . S
Cd15 O19 2.439 . S
Cd15 O25 2.240 . S
Cd16 O17 2.240 . S
Cd16 O24 2.223 . S
Cd16 O26 2.297 . S
Cd16 O27 2.439 . S
O17 Cd16 2.240 . S
O17 C22 1.279 . S
O18 Cd15 2.297 . S
O18 C20 1.247 . S
O19 Cd15 2.439 . S
O19 C20 1.208 . S
C20 O18 1.247 . S
C20 O19 1.208 . S
C21 O26 1.247 . S
C21 O27 1.208 . S
C22 O14 1.315 . S
C22 O17 1.279 . S
C23 O24 1.315 . S
C23 O25 1.279 . S
O24 Cd16 2.223 . S
O24 C23 1.315 . S
O25 Cd15 2.240 . S
O25 C23 1.279 . S
O26 Cd16 2.297 . S
O26 C21 1.247 . S
O27 Cd16 2.439 . S
O27 C21 1.208 . S
O28 Cd29 2.223 . S
O28 C36 1.315 . S
Cd29 O28 2.223 . S
Cd29 O32 2.297 1_655 S
Cd29 O33 2.439 1_655 S
Cd29 O39 2.240 . S
Cd30 O31 2.240 . S
Cd30 O38 2.223 . S
Cd30 O40 2.297 . S
Cd30 O41 2.439 1_655 S
O31 Cd30 2.240 . S
O31 C36 1.279 . S
O32 Cd29 2.297 1_455 S
O32 C34 1.247 . S
O33 Cd29 2.439 1_455 S
O33 C34 1.208 . S
C34 O32 1.247 . S
C34 O33 1.208 . S
C35 O40 1.247 . S
C35 O41 1.208 1_655 S
C36 O28 1.315 . S
C36 O31 1.279 . S
C37 O38 1.315 . S
C37 O39 1.279 . S
O38 Cd30 2.223 . S
O38 C37 1.315 . S
O39 Cd29 2.240 . S
O39 C37 1.279 . S
O40 Cd30 2.297 . S
O40 C35 1.247 . S
O41 Cd30 2.439 1_455 S
O41 C35 1.208 1_455 S
O42 Cd43 2.223 . S
O42 C50 1.315 . S
Cd43 O42 2.223 . S
Cd43 O46 2.297 . S
Cd43 O47 2.439 . S
Cd43 O53 2.240 . S
Cd44 O45 2.240 . S
Cd44 O52 2.223 . S
Cd44 O54 2.297 . S
Cd44 O55 2.439 . S
O45 Cd44 2.240 . S
O45 C50 1.279 . S
O46 Cd43 2.297 . S
O46 C48 1.247 . S
O47 Cd43 2.439 . S
O47 C48 1.208 . S
C48 O46 1.247 . S
C48 O47 1.208 . S
C49 O54 1.247 . S
C49 O55 1.208 . S
C50 O42 1.315 . S
C50 O45 1.279 . S
C51 O52 1.315 . S
C51 O53 1.279 . S
O52 Cd44 2.223 . S
O52 C51 1.315 . S
O53 Cd43 2.240 . S
O53 C51 1.279 . S
O54 Cd44 2.297 . S
O54 C49 1.247 . S
O55 Cd44 2.439 . S
O55 C49 1.208 . S
O56 Cd57 2.223 . S
O56 C64 1.315 . S
Cd57 O56 2.223 . S
Cd57 O60 2.297 . S
Cd57 O61 2.439 . S
Cd57 O67 2.240 . S
Cd58 O59 2.240 . S
Cd58 O66 2.223 . S
Cd58 O68 2.297 . S
Cd58 O69 2.439 . S
O59 Cd58 2.240 . S
O59 C64 1.279 . S
O60 Cd57 2.297 . S
O60 C62 1.247 . S
O61 Cd57 2.439 . S
O61 C62 1.208 . S
C62 O60 1.247 . S
C62 O61 1.208 . S
C63 O68 1.247 . S
C63 O69 1.208 . S
C64 O56 1.315 . S
C64 O59 1.279 . S
C65 O66 1.315 . S
C65 O67 1.279 . S
O66 Cd58 2.223 . S
O66 C65 1.315 . S
O67 Cd57 2.240 . S
O67 C65 1.279 . S
O68 Cd58 2.297 . S
O68 C63 1.247 . S
O69 Cd58 2.439 . S
O69 C63 1.208 . S
O70 Cd71 2.223 . S
O70 C78 1.315 . S
Cd71 O70 2.223 . S
Cd71 O74 2.297 1_655 S
Cd71 O75 2.439 1_655 S
Cd71 O81 2.240 . S
Cd72 O73 2.240 . S
Cd72 O80 2.223 . S
Cd72 O82 2.297 . S
Cd72 O83 2.439 1_655 S
O73 Cd72 2.240 . S
O73 C78 1.279 . S
O74 Cd71 2.297 1_455 S
O74 C76 1.247 . S
O75 Cd71 2.439 1_455 S
O75 C76 1.208 . S
C76 O74 1.247 . S
C76 O75 1.208 . S
C77 O82 1.247 . S
C77 O83 1.208 1_655 S
C78 O70 1.315 . S
C78 O73 1.279 . S
C79 O80 1.315 . S
C79 O81 1.279 . S
O80 Cd72 2.223 . S
O80 C79 1.315 . S
O81 Cd71 2.240 . S
O81 C79 1.279 . S
O82 Cd72 2.297 . S
O82 C77 1.247 . S
O83 Cd72 2.439 1_455 S
O83 C77 1.208 1_455 S
O84 Cd85 2.223 . S
O84 C92 1.315 . S
Cd85 O84 2.223 . S
Cd85 O88 2.297 . S
Cd85 O89 2.439 . S
Cd85 O95 2.240 . S
Cd86 O87 2.240 . S
Cd86 O94 2.223 . S
Cd86 O96 2.297 . S
Cd86 O97 2.439 . S
O87 Cd86 2.240 . S
O87 C92 1.279 . S
O88 Cd85 2.297 . S
O88 C90 1.247 . S
O89 Cd85 2.439 . S
O89 C90 1.208 . S
C90 O88 1.247 . S
C90 O89 1.208 . S
C91 O96 1.247 . S
C91 O97 1.208 . S
C92 O84 1.315 . S
C92 O87 1.279 . S
C93 O94 1.315 . S
C93 O95 1.279 . S
O94 Cd86 2.223 . S
O94 C93 1.315 . S
O95 Cd85 2.240 . S
O95 C93 1.279 . S
O96 Cd86 2.297 . S
O96 C91 1.247 . S
O97 Cd86 2.439 . S
O97 C91 1.208 . S
O98 Cd99 2.223 . S
O98 C106 1.315 . S
Cd99 O98 2.223 . S
Cd99 O102 2.297 1_455 S
Cd99 O103 2.439 1_455 S
Cd99 O109 2.240 . S
Cd100 O101 2.240 . S
Cd100 O108 2.223 . S
Cd100 O110 2.297 . S
Cd100 O111 2.439 1_455 S
O101 Cd100 2.240 . S
O101 C106 1.279 . S
O102 Cd99 2.297 1_655 S
O102 C104 1.247 . S
O103 Cd99 2.439 1_655 S
O103 C104 1.208 . S
C104 O102 1.247 . S
C104 O103 1.208 . S
C105 O110 1.247 . S
C105 O111 1.208 1_455 S
C106 O98 1.315 . S
C106 O101 1.279 . S
C107 O108 1.315 . S
C107 O109 1.279 . S
O108 Cd100 2.223 . S
O108 C107 1.315 . S
O109 Cd99 2.240 . S
O109 C107 1.279 . S
O110 Cd100 2.297 . S
O110 C105 1.247 . S
O111 Cd100 2.439 1_655 S
O111 C105 1.208 1_655 S
H112 C113 0.951 . S
C113 H112 0.951 . S
C113 C119 1.265 1_655 S
H114 C119 0.950 . S
H115 C123 0.949 . S
H116 C124 0.950 . S
H117 C125 0.951 . S
H118 C126 0.951 . S
C119 C113 1.265 1_455 S
C119 H114 0.950 . S
C119 C120 1.478 . S
C120 C119 1.478 . S
C120 C121 1.397 . S
C120 C137 1.394 1_455 S
C121 C120 1.397 . S
C121 C122 1.438 . S
C121 C126 1.429 . S
C122 C121 1.438 . S
C122 C123 1.428 . S
C122 C135 1.394 1_455 S
C123 H115 0.949 . S
C123 C122 1.428 . S
C123 C124 1.345 . S
C124 H116 0.950 . S
C124 C123 1.345 . S
C124 C125 1.424 . S
C125 H117 0.951 . S
C125 C124 1.424 . S
C125 C126 1.347 . S
C126 H118 0.951 . S
C126 C121 1.429 . S
C126 C125 1.347 . S
H127 C128 0.951 . S
C128 H127 0.951 . S
C128 C134 1.265 1_455 S
H129 C134 0.950 . S
H130 C138 0.949 . S
H131 C139 0.950 . S
H132 C140 0.951 . S
H133 C141 0.951 . S
C134 C128 1.265 1_655 S
C134 H129 0.950 . S
C134 C135 1.478 . S
C135 C122 1.394 1_655 S
C135 C134 1.478 . S
C135 C136 1.397 . S
C136 C135 1.397 . S
C136 C137 1.438 . S
C136 C141 1.429 . S
C137 C120 1.394 1_655 S
C137 C136 1.438 . S
C137 C138 1.428 . S
C138 H130 0.949 . S
C138 C137 1.428 . S
C138 C139 1.345 . S
C139 H131 0.950 . S
C139 C138 1.345 . S
C139 C140 1.424 . S
C140 H132 0.951 . S
C140 C139 1.424 . S
C140 C141 1.347 . S
C141 H133 0.951 . S
C141 C136 1.429 . S
C141 C140 1.347 . S
H142 C143 0.951 . S
C143 H142 0.951 . S
C143 C149 1.265 . S
H144 C149 0.950 . S
H145 C153 0.949 . S
H146 C154 0.950 . S
H147 C155 0.951 . S
H148 C156 0.951 . S
C149 C143 1.265 . S
C149 H144 0.950 . S
C149 C150 1.478 . S
C150 C149 1.478 . S
C150 C151 1.397 . S
C150 C167 1.394 . S
C151 C150 1.397 . S
C151 C152 1.438 . S
C151 C156 1.429 . S
C152 C151 1.438 . S
C152 C153 1.428 . S
C152 C165 1.394 . S
C153 H145 0.949 . S
C153 C152 1.428 . S
C153 C154 1.345 . S
C154 H146 0.950 . S
C154 C153 1.345 . S
C154 C155 1.424 . S
C155 H147 0.951 . S
C155 C154 1.424 . S
C155 C156 1.347 . S
C156 H148 0.951 . S
C156 C151 1.429 . S
C156 C155 1.347 . S
H157 C158 0.951 . S
C158 H157 0.951 . S
C158 C164 1.265 . S
H159 C164 0.950 . S
H160 C168 0.949 . S
H161 C169 0.950 . S
H162 C170 0.951 . S
H163 C171 0.951 . S
C164 C158 1.265 . S
C164 H159 0.950 . S
C164 C165 1.478 . S
C165 C152 1.394 . S
C165 C164 1.478 . S
C165 C166 1.397 . S
C166 C165 1.397 . S
C166 C167 1.438 . S
C166 C171 1.429 . S
C167 C150 1.394 . S
C167 C166 1.438 . S
C167 C168 1.428 . S
C168 H160 0.949 . S
C168 C167 1.428 . S
C168 C169 1.345 . S
C169 H161 0.950 . S
C169 C168 1.345 . S
C169 C170 1.424 . S
C170 H162 0.951 . S
C170 C169 1.424 . S
C170 C171 1.347 . S
C171 H163 0.951 . S
C171 C166 1.429 . S
C171 C170 1.347 . S
H172 C173 0.951 . S
C173 H172 0.951 . S
C173 C179 1.265 . S
H174 C179 0.950 . S
H175 C183 0.949 . S
H176 C184 0.950 . S
H177 C185 0.951 . S
H178 C186 0.951 . S
C179 C173 1.265 . S
C179 H174 0.950 . S
C179 C180 1.478 . S
C180 C179 1.478 . S
C180 C181 1.397 . S
C180 C197 1.394 1_554 S
C181 C180 1.397 . S
C181 C182 1.438 1_545 S
C181 C186 1.429 . S
C182 C181 1.438 1_565 S
C182 C183 1.428 . S
C182 C195 1.394 1_554 S
C183 H175 0.949 . S
C183 C182 1.428 . S
C183 C184 1.345 . S
C184 H176 0.950 . S
C184 C183 1.345 . S
C184 C185 1.424 . S
C185 H177 0.951 . S
C185 C184 1.424 . S
C185 C186 1.347 1_565 S
C186 H178 0.951 . S
C186 C181 1.429 . S
C186 C185 1.347 1_545 S
H187 C188 0.951 . S
C188 H187 0.951 . S
C188 C194 1.265 . S
H189 C194 0.950 . S
H190 C198 0.949 . S
H191 C199 0.950 . S
H192 C200 0.951 . S
H193 C201 0.951 . S
C194 C188 1.265 . S
C194 H189 0.950 . S
C194 C195 1.478 . S
C195 C182 1.394 1_556 S
C195 C194 1.478 . S
C195 C196 1.397 . S
C196 C195 1.397 . S
C196 C197 1.438 1_565 S
C196 C201 1.429 . S
C197 C180 1.394 1_556 S
C197 C196 1.438 1_545 S
C197 C198 1.428 . S
C198 H190 0.949 . S
C198 C197 1.428 . S
C198 C199 1.345 . S
C199 H191 0.950 . S
C199 C198 1.345 . S
C199 C200 1.424 . S
C200 H192 0.951 . S
C200 C199 1.424 . S
C200 C201 1.347 1_545 S
C201 H193 0.951 . S
C201 C196 1.429 . S
C201 C200 1.347 1_565 S
H202 C203 0.951 . S
C203 H202 0.951 . S
C203 C209 1.265 1_455 S
H204 C209 0.950 . S
H205 C213 0.949 . S
H206 C214 0.950 . S
H207 C215 0.951 . S
H208 C216 0.951 . S
C209 C203 1.265 1_655 S
C209 H204 0.950 . S
C209 C210 1.478 . S
C210 C209 1.478 . S
C210 C211 1.397 . S
C210 C227 1.394 1_654 S
C211 C210 1.397 . S
C211 C212 1.438 1_565 S
C211 C216 1.429 . S
C212 C211 1.438 1_545 S
C212 C213 1.428 . S
C212 C225 1.394 1_654 S
C213 H205 0.949 . S
C213 C212 1.428 . S
C213 C214 1.345 . S
C214 H206 0.950 . S
C214 C213 1.345 . S
C214 C215 1.424 . S
C215 H207 0.951 . S
C215 C214 1.424 . S
C215 C216 1.347 1_545 S
C216 H208 0.951 . S
C216 C211 1.429 . S
C216 C215 1.347 1_565 S
H217 C218 0.951 . S
C218 H217 0.951 . S
C218 C224 1.265 1_655 S
H219 C224 0.950 . S
H220 C228 0.949 . S
H221 C229 0.950 . S
H222 C230 0.951 . S
H223 C231 0.951 . S
C224 C218 1.265 1_455 S
C224 H219 0.950 . S
C224 C225 1.478 . S
C225 C212 1.394 1_456 S
C225 C224 1.478 . S
C225 C226 1.397 . S
C226 C225 1.397 . S
C226 C227 1.438 1_545 S
C226 C231 1.429 . S
C227 C210 1.394 1_456 S
C227 C226 1.438 1_565 S
C227 C228 1.428 . S
C228 H220 0.949 . S
C228 C227 1.428 . S
C228 C229 1.345 . S
C229 H221 0.950 . S
C229 C228 1.345 . S
C229 C230 1.424 . S
C230 H222 0.951 . S
C230 C229 1.424 . S
C230 C231 1.347 1_565 S
C231 H223 0.951 . S
C231 C226 1.429 . S
C231 C230 1.347 1_545 S
H232 C233 0.951 . S
C233 H232 0.951 . S
C233 C239 1.265 . S
H234 C239 0.950 . S
H235 C243 0.949 . S
H236 C244 0.950 . S
H237 C245 0.951 . S
H238 C246 0.951 . S
C239 C233 1.265 . S
C239 H234 0.950 . S
C239 C240 1.478 . S
C240 C239 1.478 . S
C240 C241 1.397 . S
C240 C257 1.394 . S
C241 C240 1.397 . S
C241 C242 1.438 . S
C241 C246 1.429 . S
C242 C241 1.438 . S
C242 C243 1.428 . S
C242 C255 1.394 . S
C243 H235 0.949 . S
C243 C242 1.428 . S
C243 C244 1.345 . S
C244 H236 0.950 . S
C244 C243 1.345 . S
C244 C245 1.424 . S
C245 H237 0.951 . S
C245 C244 1.424 . S
C245 C246 1.347 . S
C246 H238 0.951 . S
C246 C241 1.429 . S
C246 C245 1.347 . S
H247 C248 0.951 . S
C248 H247 0.951 . S
C248 C254 1.265 . S
H249 C254 0.950 . S
H250 C258 0.949 . S
H251 C259 0.950 . S
H252 C260 0.951 . S
H253 C261 0.951 . S
C254 C248 1.265 . S
C254 H249 0.950 . S
C254 C255 1.478 . S
C255 C242 1.394 . S
C255 C254 1.478 . S
C255 C256 1.397 . S
C256 C255 1.397 . S
C256 C257 1.438 . S
C256 C261 1.429 . S
C257 C240 1.394 . S
C257 C256 1.438 . S
C257 C258 1.428 . S
C258 H250 0.949 . S
C258 C257 1.428 . S
C258 C259 1.345 . S
C259 H251 0.950 . S
C259 C258 1.345 . S
C259 C260 1.424 . S
C260 H252 0.951 . S
C260 C259 1.424 . S
C260 C261 1.347 . S
C261 H253 0.951 . S
C261 C256 1.429 . S
C261 C260 1.347 . S
H262 C263 0.951 . S
C263 H262 0.951 . S
C263 C269 1.265 . S
H264 C269 0.950 . S
H265 C273 0.949 . S
H266 C274 0.950 . S
H267 C275 0.951 . S
H268 C276 0.951 . S
C269 C263 1.265 . S
C269 H264 0.950 . S
C269 C270 1.478 . S
C270 C269 1.478 . S
C270 C271 1.397 . S
C270 C287 1.394 . S
C271 C270 1.397 . S
C271 C272 1.438 . S
C271 C276 1.429 . S
C272 C271 1.438 . S
C272 C273 1.428 . S
C272 C285 1.394 . S
C273 H265 0.949 . S
C273 C272 1.428 . S
C273 C274 1.345 . S
C274 H266 0.950 . S
C274 C273 1.345 . S
C274 C275 1.424 . S
C275 H267 0.951 . S
C275 C274 1.424 . S
C275 C276 1.347 . S
C276 H268 0.951 . S
C276 C271 1.429 . S
C276 C275 1.347 . S
H277 C278 0.951 . S
C278 H277 0.951 . S
C278 C284 1.265 . S
H279 C284 0.950 . S
H280 C288 0.949 . S
H281 C289 0.950 . S
H282 C290 0.951 . S
H283 C291 0.951 . S
C284 C278 1.265 . S
C284 H279 0.950 . S
C284 C285 1.478 . S
C285 C272 1.394 . S
C285 C284 1.478 . S
C285 C286 1.397 . S
C286 C285 1.397 . S
C286 C287 1.438 . S
C286 C291 1.429 . S
C287 C270 1.394 . S
C287 C286 1.438 . S
C287 C288 1.428 . S
C288 H280 0.949 . S
C288 C287 1.428 . S
C288 C289 1.345 . S
C289 H281 0.950 . S
C289 C288 1.345 . S
C289 C290 1.424 . S
C290 H282 0.951 . S
C290 C289 1.424 . S
C290 C291 1.347 . S
C291 H283 0.951 . S
C291 C286 1.429 . S
C291 C290 1.347 . S
H292 C293 0.951 . S
C293 H292 0.951 . S
C293 C299 1.265 . S
H294 C299 0.950 . S
H295 C303 0.949 . S
H296 C304 0.950 . S
H297 C305 0.951 . S
H298 C306 0.951 . S
C299 C293 1.265 . S
C299 H294 0.950 . S
C299 C300 1.478 . S
C300 C299 1.478 . S
C300 C301 1.397 . S
C300 C317 1.394 . S
C301 C300 1.397 . S
C301 C302 1.438 . S
C301 C306 1.429 . S
C302 C301 1.438 . S
C302 C303 1.428 . S
C302 C315 1.394 . S
C303 H295 0.949 . S
C303 C302 1.428 . S
C303 C304 1.345 . S
C304 H296 0.950 . S
C304 C303 1.345 . S
C304 C305 1.424 . S
C305 H297 0.951 . S
C305 C304 1.424 . S
C305 C306 1.347 . S
C306 H298 0.951 . S
C306 C301 1.429 . S
C306 C305 1.347 . S
H307 C308 0.951 . S
C308 H307 0.951 . S
C308 C314 1.265 . S
H309 C314 0.950 . S
H310 C318 0.949 . S
H311 C319 0.950 . S
H312 C320 0.951 . S
H313 C321 0.951 . S
C314 C308 1.265 . S
C314 H309 0.950 . S
C314 C315 1.478 . S
C315 C302 1.394 . S
C315 C314 1.478 . S
C315 C316 1.397 . S
C316 C315 1.397 . S
C316 C317 1.438 . S
C316 C321 1.429 . S
C317 C300 1.394 . S
C317 C316 1.438 . S
C317 C318 1.428 . S
C318 H310 0.949 . S
C318 C317 1.428 . S
C318 C319 1.345 . S
C319 H311 0.950 . S
C319 C318 1.345 . S
C319 C320 1.424 . S
C320 H312 0.951 . S
C320 C319 1.424 . S
C320 C321 1.347 . S
C321 H313 0.951 . S
C321 C316 1.429 . S
C321 C320 1.347 . S
H322 C323 0.951 . S
C323 H322 0.951 . S
C323 C329 1.265 . S
H324 C329 0.950 . S
H325 C333 0.949 . S
H326 C334 0.950 . S
H327 C335 0.951 . S
H328 C336 0.951 . S
C329 C323 1.265 . S
C329 H324 0.950 . S
C329 C330 1.478 . S
C330 C329 1.478 . S
C330 C331 1.397 . S
C330 C347 1.394 . S
C331 C330 1.397 . S
C331 C332 1.438 . S
C331 C336 1.429 . S
C332 C331 1.438 . S
C332 C333 1.428 . S
C332 C345 1.394 . S
C333 H325 0.949 . S
C333 C332 1.428 . S
C333 C334 1.345 . S
C334 H326 0.950 . S
C334 C333 1.345 . S
C334 C335 1.424 . S
C335 H327 0.951 . S
C335 C334 1.424 . S
C335 C336 1.347 . S
C336 H328 0.951 . S
C336 C331 1.429 . S
C336 C335 1.347 . S
H337 C338 0.951 . S
C338 H337 0.951 . S
C338 C344 1.265 . S
H339 C344 0.950 . S
H340 C348 0.949 . S
H341 C349 0.950 . S
H342 C350 0.951 . S
H343 C351 0.951 . S
C344 C338 1.265 . S
C344 H339 0.950 . S
C344 C345 1.478 . S
C345 C332 1.394 . S
C345 C344 1.478 . S
C345 C346 1.397 . S
C346 C345 1.397 . S
C346 C347 1.438 . S
C346 C351 1.429 . S
C347 C330 1.394 . S
C347 C346 1.438 . S
C347 C348 1.428 . S
C348 H340 0.949 . S
C348 C347 1.428 . S
C348 C349 1.345 . S
C349 H341 0.950 . S
C349 C348 1.345 . S
C349 C350 1.424 . S
C350 H342 0.951 . S
C350 C349 1.424 . S
C350 C351 1.347 . S
C351 H343 0.951 . S
C351 C346 1.429 . S
C351 C350 1.347 . S
H352 C353 0.951 . S
C353 H352 0.951 . S
C353 C359 1.265 . S
H354 C359 0.950 . S
H355 C363 0.949 . S
H356 C364 0.950 . S
H357 C365 0.951 . S
H358 C366 0.951 . S
C359 C353 1.265 . S
C359 H354 0.950 . S
C359 C360 1.478 . S
C360 C359 1.478 . S
C360 C361 1.397 . S
C360 C377 1.394 . S
C361 C360 1.397 . S
C361 C362 1.438 . S
C361 C366 1.429 . S
C362 C361 1.438 . S
C362 C363 1.428 . S
C362 C375 1.394 . S
C363 H355 0.949 . S
C363 C362 1.428 . S
C363 C364 1.345 . S
C364 H356 0.950 . S
C364 C363 1.345 . S
C364 C365 1.424 . S
C365 H357 0.951 . S
C365 C364 1.424 . S
C365 C366 1.347 . S
C366 H358 0.951 . S
C366 C361 1.429 . S
C366 C365 1.347 . S
H367 C368 0.951 . S
C368 H367 0.951 . S
C368 C374 1.265 . S
H369 C374 0.950 . S
H370 C378 0.949 . S
H371 C379 0.950 . S
H372 C380 0.951 . S
H373 C381 0.951 . S
C374 C368 1.265 . S
C374 H369 0.950 . S
C374 C375 1.478 . S
C375 C362 1.394 . S
C375 C374 1.478 . S
C375 C376 1.397 . S
C376 C375 1.397 . S
C376 C377 1.438 . S
C376 C381 1.429 . S
C377 C360 1.394 . S
C377 C376 1.438 . S
C377 C378 1.428 . S
C378 H370 0.949 . S
C378 C377 1.428 . S
C378 C379 1.345 . S
C379 H371 0.950 . S
C379 C378 1.345 . S
C379 C380 1.424 . S
C380 H372 0.951 . S
C380 C379 1.424 . S
C380 C381 1.347 . S
C381 H373 0.951 . S
C381 C376 1.429 . S
C381 C380 1.347 . S
H382 C383 0.951 . S
C383 H382 0.951 . S
C383 C389 1.265 . S
H384 C389 0.950 . S
H385 C393 0.949 . S
H386 C394 0.950 . S
H387 C395 0.951 . S
H388 C396 0.951 . S
C389 C383 1.265 . S
C389 H384 0.950 . S
C389 C390 1.478 . S
C390 C389 1.478 . S
C390 C391 1.397 . S
C390 C407 1.394 . S
C391 C390 1.397 . S
C391 C392 1.438 . S
C391 C396 1.429 . S
C392 C391 1.438 . S
C392 C393 1.428 . S
C392 C405 1.394 . S
C393 H385 0.949 . S
C393 C392 1.428 . S
C393 C394 1.345 . S
C394 H386 0.950 . S
C394 C393 1.345 . S
C394 C395 1.424 . S
C395 H387 0.951 . S
C395 C394 1.424 . S
C395 C396 1.347 . S
C396 H388 0.951 . S
C396 C391 1.429 . S
C396 C395 1.347 . S
H397 C398 0.951 . S
C398 H397 0.951 . S
C398 C404 1.265 . S
H399 C404 0.950 . S
H400 C408 0.949 . S
H401 C409 0.950 . S
H402 C410 0.951 . S
H403 C411 0.951 . S
C404 C398 1.265 . S
C404 H399 0.950 . S
C404 C405 1.478 . S
C405 C392 1.394 . S
C405 C404 1.478 . S
C405 C406 1.397 . S
C406 C405 1.397 . S
C406 C407 1.438 . S
C406 C411 1.429 . S
C407 C390 1.394 . S
C407 C406 1.438 . S
C407 C408 1.428 . S
C408 H400 0.949 . S
C408 C407 1.428 . S
C408 C409 1.345 . S
C409 H401 0.950 . S
C409 C408 1.345 . S
C409 C410 1.424 . S
C410 H402 0.951 . S
C410 C409 1.424 . S
C410 C411 1.347 . S
C411 H403 0.951 . S
C411 C406 1.429 . S
C411 C410 1.347 . S
H412 C413 0.951 . S
C413 H412 0.951 . S
C413 C419 1.265 . S
H414 C419 0.950 . S
H415 C423 0.949 . S
H416 C424 0.950 . S
H417 C425 0.951 . S
H418 C426 0.951 . S
C419 C413 1.265 . S
C419 H414 0.950 . S
C419 C420 1.478 . S
C420 C419 1.478 . S
C420 C421 1.397 . S
C420 C437 1.394 . S
C421 C420 1.397 . S
C421 C422 1.438 . S
C421 C426 1.429 . S
C422 C421 1.438 . S
C422 C423 1.428 . S
C422 C435 1.394 . S
C423 H415 0.949 . S
C423 C422 1.428 . S
C423 C424 1.345 . S
C424 H416 0.950 . S
C424 C423 1.345 . S
C424 C425 1.424 . S
C425 H417 0.951 . S
C425 C424 1.424 . S
C425 C426 1.347 . S
C426 H418 0.951 . S
C426 C421 1.429 . S
C426 C425 1.347 . S
H427 C428 0.951 . S
C428 H427 0.951 . S
C428 C434 1.265 . S
H429 C434 0.950 . S
H430 C438 0.949 . S
H431 C439 0.950 . S
H432 C440 0.951 . S
H433 C441 0.951 . S
C434 C428 1.265 . S
C434 H429 0.950 . S
C434 C435 1.478 . S
C435 C422 1.394 . S
C435 C434 1.478 . S
C435 C436 1.397 . S
C436 C435 1.397 . S
C436 C437 1.438 . S
C436 C441 1.429 . S
C437 C420 1.394 . S
C437 C436 1.438 . S
C437 C438 1.428 . S
C438 H430 0.949 . S
C438 C437 1.428 . S
C438 C439 1.345 . S
C439 H431 0.950 . S
C439 C438 1.345 . S
C439 C440 1.424 . S
C440 H432 0.951 . S
C440 C439 1.424 . S
C440 C441 1.347 . S
C441 H433 0.951 . S
C441 C436 1.429 . S
C441 C440 1.347 . S
H442 C443 0.951 . S
C443 H442 0.951 . S
C443 C449 1.265 . S
H444 C449 0.950 . S
H445 C453 0.949 . S
H446 C454 0.950 . S
H447 C455 0.951 . S
H448 C456 0.951 . S
C449 C443 1.265 . S
C449 H444 0.950 . S
C449 C450 1.478 . S
C450 C449 1.478 . S
C450 C451 1.397 . S
C450 C467 1.394 . S
C451 C450 1.397 . S
C451 C452 1.438 . S
C451 C456 1.429 . S
C452 C451 1.438 . S
C452 C453 1.428 . S
C452 C465 1.394 . S
C453 H445 0.949 . S
C453 C452 1.428 . S
C453 C454 1.345 . S
C454 H446 0.950 . S
C454 C453 1.345 . S
C454 C455 1.424 . S
C455 H447 0.951 . S
C455 C454 1.424 . S
C455 C456 1.347 . S
C456 H448 0.951 . S
C456 C451 1.429 . S
C456 C455 1.347 . S
H457 C458 0.951 . S
C458 H457 0.951 . S
C458 C464 1.265 . S
H459 C464 0.950 . S
H460 C468 0.949 . S
H461 C469 0.950 . S
H462 C470 0.951 . S
H463 C471 0.951 . S
C464 C458 1.265 . S
C464 H459 0.950 . S
C464 C465 1.478 . S
C465 C452 1.394 . S
C465 C464 1.478 . S
C465 C466 1.397 . S
C466 C465 1.397 . S
C466 C467 1.438 . S
C466 C471 1.429 . S
C467 C450 1.394 . S
C467 C466 1.438 . S
C467 C468 1.428 . S
C468 H460 0.949 . S
C468 C467 1.428 . S
C468 C469 1.345 . S
C469 H461 0.950 . S
C469 C468 1.345 . S
C469 C470 1.424 . S
C470 H462 0.951 . S
C470 C469 1.424 . S
C470 C471 1.347 . S
C471 H463 0.951 . S
C471 C466 1.429 . S
C471 C470 1.347 . S
H472 C473 0.951 . S
C473 H472 0.951 . S
C473 C479 1.265 . S
H474 C479 0.950 . S
H475 C483 0.949 . S
H476 C484 0.950 . S
H477 C485 0.951 . S
H478 C486 0.951 . S
C479 C473 1.265 . S
C479 H474 0.950 . S
C479 C480 1.478 . S
C480 C479 1.478 . S
C480 C481 1.397 . S
C480 C497 1.394 . S
C481 C480 1.397 . S
C481 C482 1.438 . S
C481 C486 1.429 . S
C482 C481 1.438 . S
C482 C483 1.428 . S
C482 C495 1.394 . S
C483 H475 0.949 . S
C483 C482 1.428 . S
C483 C484 1.345 . S
C484 H476 0.950 . S
C484 C483 1.345 . S
C484 C485 1.424 . S
C485 H477 0.951 . S
C485 C484 1.424 . S
C485 C486 1.347 . S
C486 H478 0.951 . S
C486 C481 1.429 . S
C486 C485 1.347 . S
H487 C488 0.951 . S
C488 H487 0.951 . S
C488 C494 1.265 . S
H489 C494 0.950 . S
H490 C498 0.949 . S
H491 C499 0.950 . S
H492 C500 0.951 . S
H493 C501 0.951 . S
C494 C488 1.265 . S
C494 H489 0.950 . S
C494 C495 1.478 . S
C495 C482 1.394 . S
C495 C494 1.478 . S
C495 C496 1.397 . S
C496 C495 1.397 . S
C496 C497 1.438 . S
C496 C501 1.429 . S
C497 C480 1.394 . S
C497 C496 1.438 . S
C497 C498 1.428 . S
C498 H490 0.949 . S
C498 C497 1.428 . S
C498 C499 1.345 . S
C499 H491 0.950 . S
C499 C498 1.345 . S
C499 C500 1.424 . S
C500 H492 0.951 . S
C500 C499 1.424 . S
C500 C501 1.347 . S
C501 H493 0.951 . S
C501 C496 1.429 . S
C501 C500 1.347 . S
H502 C503 0.951 . S
C503 H502 0.951 . S
C503 C509 1.265 . S
H504 C509 0.950 . S
H505 C513 0.949 . S
H506 C514 0.950 . S
H507 C515 0.951 . S
H508 C516 0.951 . S
C509 C503 1.265 . S
C509 H504 0.950 . S
C509 C510 1.478 . S
C510 C509 1.478 . S
C510 C511 1.397 . S
C510 C527 1.394 . S
C511 C510 1.397 . S
C511 C512 1.438 . S
C511 C516 1.429 . S
C512 C511 1.438 . S
C512 C513 1.428 . S
C512 C525 1.394 . S
C513 H505 0.949 . S
C513 C512 1.428 . S
C513 C514 1.345 . S
C514 H506 0.950 . S
C514 C513 1.345 . S
C514 C515 1.424 . S
C515 H507 0.951 . S
C515 C514 1.424 . S
C515 C516 1.347 . S
C516 H508 0.951 . S
C516 C511 1.429 . S
C516 C515 1.347 . S
H517 C518 0.951 . S
C518 H517 0.951 . S
C518 C524 1.265 . S
H519 C524 0.950 . S
H520 C528 0.949 . S
H521 C529 0.950 . S
H522 C530 0.951 . S
H523 C531 0.951 . S
C524 C518 1.265 . S
C524 H519 0.950 . S
C524 C525 1.478 . S
C525 C512 1.394 . S
C525 C524 1.478 . S
C525 C526 1.397 . S
C526 C525 1.397 . S
C526 C527 1.438 . S
C526 C531 1.429 . S
C527 C510 1.394 . S
C527 C526 1.438 . S
C527 C528 1.428 . S
C528 H520 0.949 . S
C528 C527 1.428 . S
C528 C529 1.345 . S
C529 H521 0.950 . S
C529 C528 1.345 . S
C529 C530 1.424 . S
C530 H522 0.951 . S
C530 C529 1.424 . S
C530 C531 1.347 . S
C531 H523 0.951 . S
C531 C526 1.429 . S
C531 C530 1.347 . S
H532 C533 0.951 . S
C533 H532 0.951 . S
C533 C539 1.265 . S
H534 C539 0.950 . S
H535 C543 0.949 . S
H536 C544 0.950 . S
H537 C545 0.951 . S
H538 C546 0.951 . S
C539 C533 1.265 . S
C539 H534 0.950 . S
C539 C540 1.478 . S
C540 C539 1.478 . S
C540 C541 1.397 . S
C540 C557 1.394 1_554 S
C541 C540 1.397 . S
C541 C542 1.438 . S
C541 C546 1.429 . S
C542 C541 1.438 . S
C542 C543 1.428 . S
C542 C555 1.394 1_554 S
C543 H535 0.949 . S
C543 C542 1.428 . S
C543 C544 1.345 . S
C544 H536 0.950 . S
C544 C543 1.345 . S
C544 C545 1.424 . S
C545 H537 0.951 . S
C545 C544 1.424 . S
C545 C546 1.347 . S
C546 H538 0.951 . S
C546 C541 1.429 . S
C546 C545 1.347 . S
H547 C548 0.951 . S
C548 H547 0.951 . S
C548 C554 1.265 . S
H549 C554 0.950 . S
H550 C558 0.949 . S
H551 C559 0.950 . S
H552 C560 0.951 . S
H553 C561 0.951 . S
C554 C548 1.265 . S
C554 H549 0.950 . S
C554 C555 1.478 . S
C555 C542 1.394 1_556 S
C555 C554 1.478 . S
C555 C556 1.397 . S
C556 C555 1.397 . S
C556 C557 1.438 . S
C556 C561 1.429 . S
C557 C540 1.394 1_556 S
C557 C556 1.438 . S
C557 C558 1.428 . S
C558 H550 0.949 . S
C558 C557 1.428 . S
C558 C559 1.345 . S
C559 H551 0.950 . S
C559 C558 1.345 . S
C559 C560 1.424 . S
C560 H552 0.951 . S
C560 C559 1.424 . S
C560 C561 1.347 . S
C561 H553 0.951 . S
C561 C556 1.429 . S
C561 C560 1.347 . S
H562 C563 0.951 . S
C563 H562 0.951 . S
C563 C569 1.265 . S
H564 C569 0.950 . S
H565 C573 0.949 . S
H566 C574 0.950 . S
H567 C575 0.951 . S
H568 C576 0.951 . S
C569 C563 1.265 . S
C569 H564 0.950 . S
C569 C570 1.478 . S
C570 C569 1.478 . S
C570 C571 1.397 . S
C570 C587 1.394 . S
C571 C570 1.397 . S
C571 C572 1.438 1_554 S
C571 C576 1.429 . S
C572 C571 1.438 1_556 S
C572 C573 1.428 . S
C572 C585 1.394 . S
C573 H565 0.949 . S
C573 C572 1.428 . S
C573 C574 1.345 1_556 S
C574 H566 0.950 . S
C574 C573 1.345 1_554 S
C574 C575 1.424 . S
C575 H567 0.951 . S
C575 C574 1.424 . S
C575 C576 1.347 . S
C576 H568 0.951 . S
C576 C571 1.429 . S
C576 C575 1.347 . S
H577 C578 0.951 . S
C578 H577 0.951 . S
C578 C584 1.265 . S
H579 C584 0.950 . S
H580 C588 0.949 . S
H581 C589 0.950 . S
H582 C590 0.951 . S
H583 C591 0.951 . S
C584 C578 1.265 . S
C584 H579 0.950 . S
C584 C585 1.478 . S
C585 C572 1.394 . S
C585 C584 1.478 . S
C585 C586 1.397 . S
C586 C585 1.397 . S
C586 C587 1.438 1_556 S
C586 C591 1.429 . S
C587 C570 1.394 . S
C587 C586 1.438 1_554 S
C587 C588 1.428 . S
C588 H580 0.949 . S
C588 C587 1.428 . S
C588 C589 1.345 1_554 S
C589 H581 0.950 . S
C589 C588 1.345 1_556 S
C589 C590 1.424 . S
C590 H582 0.951 . S
C590 C589 1.424 . S
C590 C591 1.347 . S
C591 H583 0.951 . S
C591 C586 1.429 . S
C591 C590 1.347 . S
C113 C7 1.530 1_655 S
C128 C35 1.530 1_455 S
C143 C49 1.518 . S
C158 C21 1.518 . S
C173 C91 1.443 . S
C188 C63 1.443 . S
C203 C77 1.525 1_455 S
C218 C105 1.525 1_655 S
C233 C90 1.650 . S
C248 C6 1.650 . S
C263 C20 1.675 . S
C278 C104 1.675 . S
C293 C34 1.650 . S
C308 C62 1.650 . S
C323 C48 1.676 . S
C338 C76 1.676 . S
C353 C92 1.578 . S
C368 C8 1.578 . S
C383 C22 1.599 . S
C398 C106 1.599 . S
C413 C64 1.583 . S
C428 C36 1.583 . S
C443 C78 1.578 . S
C458 C50 1.578 . S
C473 C23 0.519 . S
C488 C9 0.505 . S
C503 C37 0.657 . S
C518 C51 0.662 . S
C533 C79 0.465 . S
C548 C65 0.713 . S
C563 C93 0.655 . S
C578 C107 0.665 . S
