# Generated by pormake.
# Topology une, (4)-cn, num edge types: 1
# Building blocks:
#     Node 0, Type 0, BuildingBlock: NAHDIM_clean_sbu_0, # of connection points: 4
#     Node 1, Type 0, BuildingBlock: NAHDIM_clean_sbu_0, # of connection points: 4
#     Node 2, Type 0, BuildingBlock: NAHDIM_clean_sbu_0, # of connection points: 4
#     Node 3, Type 0, BuildingBlock: NAHDIM_clean_sbu_0, # of connection points: 4
#     Node 4, Type 0, BuildingBlock: NAHDIM_clean_sbu_0, # of connection points: 4
#     Node 5, Type 0, BuildingBlock: NAHDIM_clean_sbu_0, # of connection points: 4
#     Node 6, Type 0, BuildingBlock: NAHDIM_clean_sbu_0, # of connection points: 4
#     Node 7, Type 0, BuildingBlock: NAHDIM_clean_sbu_0, # of connection points: 4
#     Node 8, Type 0, BuildingBlock: NAHDIM_clean_sbu_0, # of connection points: 4
#     Node 9, Type 0, BuildingBlock: NAHDIM_clean_sbu_0, # of connection points: 4
#     Node 10, Type 0, BuildingBlock: NAHDIM_clean_sbu_0, # of connection points: 4
#     Node 11, Type 0, BuildingBlock: NAHDIM_clean_sbu_0, # of connection points: 4
#     Node 12, Type 0, BuildingBlock: NAHDIM_clean_sbu_0, # of connection points: 4
#     Node 13, Type 0, BuildingBlock: NAHDIM_clean_sbu_0, # of connection points: 4
#     Node 14, Type 0, BuildingBlock: NAHDIM_clean_sbu_0, # of connection points: 4
#     Node 15, Type 0, BuildingBlock: NAHDIM_clean_sbu_0, # of connection points: 4
#     Node 16, Type 0, BuildingBlock: NAHDIM_clean_sbu_0, # of connection points: 4
#     Node 17, Type 0, BuildingBlock: NAHDIM_clean_sbu_0, # of connection points: 4
#     Edge 18, Type (0, 0), BuildingBlock: OJICUG_clean_linker_0, # of connection points: 2
#     Edge 19, Type (0, 0), BuildingBlock: OJICUG_clean_linker_0, # of connection points: 2
#     Edge 20, Type (0, 0), BuildingBlock: OJICUG_clean_linker_0, # of connection points: 2
#     Edge 21, Type (0, 0), BuildingBlock: OJICUG_clean_linker_0, # of connection points: 2
#     Edge 22, Type (0, 0), BuildingBlock: OJICUG_clean_linker_0, # of connection points: 2
#     Edge 23, Type (0, 0), BuildingBlock: OJICUG_clean_linker_0, # of connection points: 2
#     Edge 24, Type (0, 0), BuildingBlock: OJICUG_clean_linker_0, # of connection points: 2
#     Edge 25, Type (0, 0), BuildingBlock: OJICUG_clean_linker_0, # of connection points: 2
#     Edge 26, Type (0, 0), BuildingBlock: OJICUG_clean_linker_0, # of connection points: 2
#     Edge 27, Type (0, 0), BuildingBlock: OJICUG_clean_linker_0, # of connection points: 2
#     Edge 28, Type (0, 0), BuildingBlock: OJICUG_clean_linker_0, # of connection points: 2
#     Edge 29, Type (0, 0), BuildingBlock: OJICUG_clean_linker_0, # of connection points: 2
#     Edge 30, Type (0, 0), BuildingBlock: OJICUG_clean_linker_0, # of connection points: 2
#     Edge 31, Type (0, 0), BuildingBlock: OJICUG_clean_linker_0, # of connection points: 2
#     Edge 32, Type (0, 0), BuildingBlock: OJICUG_clean_linker_0, # of connection points: 2
#     Edge 33, Type (0, 0), BuildingBlock: OJICUG_clean_linker_0, # of connection points: 2
#     Edge 34, Type (0, 0), BuildingBlock: OJICUG_clean_linker_0, # of connection points: 2
#     Edge 35, Type (0, 0), BuildingBlock: OJICUG_clean_linker_0, # of connection points: 2
#     Edge 36, Type (0, 0), BuildingBlock: OJICUG_clean_linker_0, # of connection points: 2
#     Edge 37, Type (0, 0), BuildingBlock: OJICUG_clean_linker_0, # of connection points: 2
#     Edge 38, Type (0, 0), BuildingBlock: OJICUG_clean_linker_0, # of connection points: 2
#     Edge 39, Type (0, 0), BuildingBlock: OJICUG_clean_linker_0, # of connection points: 2
#     Edge 40, Type (0, 0), BuildingBlock: OJICUG_clean_linker_0, # of connection points: 2
#     Edge 41, Type (0, 0), BuildingBlock: OJICUG_clean_linker_0, # of connection points: 2
#     Edge 42, Type (0, 0), BuildingBlock: OJICUG_clean_linker_0, # of connection points: 2
#     Edge 43, Type (0, 0), BuildingBlock: OJICUG_clean_linker_0, # of connection points: 2
#     Edge 44, Type (0, 0), BuildingBlock: OJICUG_clean_linker_0, # of connection points: 2
#     Edge 45, Type (0, 0), BuildingBlock: OJICUG_clean_linker_0, # of connection points: 2
#     Edge 46, Type (0, 0), BuildingBlock: OJICUG_clean_linker_0, # of connection points: 2
#     Edge 47, Type (0, 0), BuildingBlock: OJICUG_clean_linker_0, # of connection points: 2
#     Edge 48, Type (0, 0), BuildingBlock: OJICUG_clean_linker_0, # of connection points: 2
#     Edge 49, Type (0, 0), BuildingBlock: OJICUG_clean_linker_0, # of connection points: 2
#     Edge 50, Type (0, 0), BuildingBlock: OJICUG_clean_linker_0, # of connection points: 2
#     Edge 51, Type (0, 0), BuildingBlock: OJICUG_clean_linker_0, # of connection points: 2
#     Edge 52, Type (0, 0), BuildingBlock: OJICUG_clean_linker_0, # of connection points: 2
#     Edge 53, Type (0, 0), BuildingBlock: OJICUG_clean_linker_0, # of connection points: 2
# Relax obj value: 0.222
# Max RMSD: 0.185
# Mean RMSD: 0.171
data_MOF--net-une--node1-NAHDIM_clean_sbu_0--edge1-OJICUG_clean_linker_0
_symmetry_space_group_name_H-M    P1
_symmetry_Int_Tables_number       1
_symmetry_cell_setting            triclinic
loop_
_symmetry_equiv_pos_as_xyz
'x, y, z'
_cell_length_a     27.717321
_cell_length_b     27.509942
_cell_length_c     41.267963
_cell_angle_alpha  90.373229
_cell_angle_beta   89.951496
_cell_angle_gamma 120.5363
loop_
_atom_site_label
_atom_site_type_symbol
_atom_site_fract_x
_atom_site_fract_y
_atom_site_fract_z
_atom_type_partial_charge
C0 C 0.44063 -0.00128 0.99638 0.0
O1 O 0.40592 0.00177 0.97598 0.0
O2 O 0.39515 0.09774 0.00381 0.0
Zn3 Zn 0.38544 0.03801 0.0355 0.0
O4 O 0.31056 0.9679 0.02884 0.0
C5 C 0.3649 0.09844 0.08353 0.0
O6 O 0.33831 0.10261 0.05835 0.0
O7 O 0.44215 0.01459 0.02563 0.0
C8 C 0.26464 0.95178 0.04355 0.0
O9 O 0.26203 0.98296 0.06692 0.0
C10 C 0.3578 0.09004 0.98323 0.0
O11 O 0.31297 0.03973 0.98026 0.0
O12 O 0.39031 0.07089 0.08048 0.0
C13 C 0.89016 0.20883 0.13327 0.0
O14 O 0.94327 0.22403 0.13126 0.0
O15 O -0.00956 0.27429 0.0719 0.0
Zn16 Zn 0.91525 0.26822 0.07245 0.0
O17 O 0.87588 0.22203 0.0333 0.0
C18 C 0.95476 0.36679 0.03817 0.0
O19 O 0.97165 0.33735 0.02147 0.0
O20 O 0.86935 0.22618 0.11196 0.0
C21 C 0.84157 0.22804 0.01586 0.0
O22 O 0.82713 0.26504 0.02427 0.0
C23 C -0.00611 0.23166 0.06347 0.0
O24 O 0.9476 0.1829 0.05905 0.0
O25 O 0.92774 0.34611 0.06434 0.0
C26 C 0.73894 0.69499 0.14631 0.0
O27 O 0.72778 0.73551 0.14185 0.0
O28 O 0.69259 0.73139 0.07535 0.0
Zn29 Zn 0.68601 0.65629 0.08316 0.0
O30 O 0.73183 0.64867 0.04818 0.0
C31 C 0.58568 0.59759 0.04877 0.0
O32 O 0.61698 0.64037 0.02974 0.0
O33 O 0.72165 0.65503 0.12565 0.0
C34 C 0.72105 0.60425 0.03267 0.0
O35 O 0.67584 0.55609 0.03964 0.0
C36 C 0.73913 0.77039 0.06452 0.0
O37 O 0.78182 0.76219 0.06308 0.0
O38 O 0.60574 0.59439 0.0759 0.0
C39 C 0.64849 0.87741 0.85363 0.0
O40 O 0.59919 0.87155 0.8594 0.0
O41 O 0.60609 0.92942 0.9257 0.0
Zn42 Zn 0.68143 0.93621 0.91652 0.0
O43 O 0.70222 0.89953 0.95124 0.0
C44 C 0.72535 0.05595 0.92058 0.0
O45 O 0.67439 0.04249 0.91201 0.0
O46 O 0.688 0.90415 0.87383 0.0
C47 C 0.71602 0.92005 0.97969 0.0
O48 O 0.71417 0.96532 0.9878 0.0
C49 C 0.5811 0.91227 0.95274 0.0
O50 O 0.59813 0.88782 0.97324 0.0
O51 O 0.7387 0.01807 0.92043 0.0
C52 C 0.05278 0.74052 0.89195 0.0
O53 O 0.04591 0.76961 0.915 0.0
O54 O 0.00713 0.59161 0.95693 0.0
Zn55 Zn 0.01483 0.6657 0.94374 0.0
O56 O 0.07537 0.72568 0.97138 0.0
C57 C 0.89568 0.61679 0.95184 0.0
O58 O 0.89365 0.57093 0.94072 0.0
O59 O 0.0391 0.68961 0.89755 0.0
C60 C 0.06861 0.75486 0.99293 0.0
O61 O 0.01799 0.74504 0.99931 0.0
C62 C -0.00797 0.57796 0.98623 0.0
O63 O 0.98345 0.61212 0.00452 0.0
O64 O 0.94256 0.66255 0.95338 0.0
C65 C 0.21661 0.37104 0.91887 0.0
O66 O 0.21145 0.39146 0.94668 0.0
O67 O 0.35742 0.41621 0.97173 0.0
Zn68 Zn 0.28676 0.34532 0.9576 0.0
O69 O 0.23035 0.32416 0.99309 0.0
C70 C 0.35001 0.28722 0.94968 0.0
O71 O 0.39466 0.33799 0.94982 0.0
O72 O 0.25011 0.3523 0.91694 0.0
C73 C 0.19337 0.27307 0.99834 0.0
O74 O 0.19347 0.23294 0.98096 0.0
C75 C 0.37458 0.41504 1.00019 0.0
O76 O 0.34574 0.36934 0.01763 0.0
O77 O 0.30176 0.28168 0.95191 0.0
C78 C 0.09433 0.32869 0.33498 0.0
O79 O 0.06113 0.33405 0.31447 0.0
O80 O 0.05444 0.43294 0.34411 0.0
Zn81 Zn 0.04033 0.36949 0.37398 0.0
O82 O 0.96364 0.30385 0.36528 0.0
C83 C -0.00074 0.40506 0.4245 0.0
O84 O 0.96088 0.38985 0.40183 0.0
O85 O 0.09503 0.34311 0.36446 0.0
C86 C 0.93475 0.26475 0.38526 0.0
O87 O 0.95549 0.26552 0.414 0.0
C88 C 0.02053 0.42719 0.32167 0.0
O89 O 0.97675 0.3771 0.31589 0.0
O90 O 0.04133 0.39919 0.41916 0.0
C91 C 0.55865 0.55456 0.45366 0.0
O92 O 0.61191 0.57236 0.44886 0.0
O93 O 0.64166 0.60642 0.38544 0.0
Zn94 Zn 0.57131 0.60893 0.39217 0.0
O95 O 0.51962 0.56618 0.35555 0.0
C96 C 0.64073 0.72936 0.38509 0.0
O97 O 0.68068 0.71916 0.39283 0.0
O98 O 0.53305 0.56895 0.43384 0.0
C99 C 0.53758 0.56982 0.3268 0.0
O100 O 0.59125 0.60231 0.32077 0.0
C101 C 0.64294 0.56295 0.37629 0.0
O102 O 0.59572 0.51505 0.37193 0.0
O103 O 0.5899 0.68958 0.38674 0.0
C104 C 0.39611 0.03282 0.48231 0.0
O105 O 0.38301 0.07217 0.47891 0.0
O106 O 0.3508 0.07101 0.41122 0.0
Zn107 Zn 0.34383 -0.00432 0.41872 0.0
O108 O 0.38821 0.9875 0.38299 0.0
C109 C 0.24333 0.93718 0.38475 0.0
O110 O 0.27475 0.97998 0.36576 0.0
O111 O 0.38041 -0.00574 0.46084 0.0
C112 C 0.37724 0.94214 0.36851 0.0
O113 O 0.33356 0.89408 0.37734 0.0
C114 C 0.3974 0.10982 0.40034 0.0
O115 O 0.43987 0.10126 0.39888 0.0
O116 O 0.26329 0.93396 0.41192 0.0
C117 C 0.36344 0.20754 0.20373 0.0
O118 O 0.39921 0.21527 0.22688 0.0
O119 O 0.26023 0.26187 0.26228 0.0
Zn120 Zn 0.33316 0.26526 0.25007 0.0
O121 O 0.35731 0.23268 0.28553 0.0
C122 C 0.38067 0.38561 0.24938 0.0
O123 O 0.32804 0.37194 0.24666 0.0
O124 O 0.32973 0.2257 0.20785 0.0
C125 C 0.3719 0.25524 0.31348 0.0
O126 O 0.36897 0.30026 0.32064 0.0
C127 C 0.23567 0.24429 0.28941 0.0
O128 O 0.25205 0.21828 0.30918 0.0
O129 O 0.39299 0.347 0.24842 0.0
C130 C 0.75454 0.05246 0.2336 0.0
O131 O 0.78073 0.04781 0.25884 0.0
O132 O 0.66315 0.93534 0.29698 0.0
Zn133 Zn 0.66996 0.00758 0.28033 0.0
O134 O 0.72345 0.07194 0.30834 0.0
C135 C 0.55057 0.95349 0.28739 0.0
O136 O 0.55257 0.90759 0.28138 0.0
O137 O 0.7018 0.03179 0.23527 0.0
C138 C 0.72877 0.07539 0.33895 0.0
O139 O 0.69501 0.03213 0.35701 0.0
C140 C 0.6999 0.93281 0.31412 0.0
O141 O 0.74916 0.9784 0.31834 0.0
O142 O 0.59529 0.00129 0.28569 0.0
C143 C 0.88937 0.7152 0.24963 0.0
O144 O 0.88792 0.73815 0.27736 0.0
O145 O 0.02023 0.75332 0.30523 0.0
Zn146 Zn 0.95244 0.68208 0.28854 0.0
O147 O 0.89156 0.65601 0.32149 0.0
C148 C 0.01831 0.62623 0.28511 0.0
O149 O 0.06194 0.67702 0.28932 0.0
O150 O 0.91863 0.69163 0.2475 0.0
C151 C 0.84921 0.60663 0.3188 0.0
O152 O 0.8484 0.57309 0.29573 0.0
C153 C 0.03492 0.75301 0.33443 0.0
O154 O 0.00526 0.70747 0.35185 0.0
O155 O 0.96974 0.61996 0.28299 0.0
C156 C 0.7829 0.68591 0.66247 0.0
O157 O 0.74081 0.67391 0.64293 0.0
O158 O 0.7269 0.77881 0.66239 0.0
Zn159 Zn 0.72234 0.72458 0.69634 0.0
O160 O 0.65142 0.65019 0.69016 0.0
C161 C 0.68232 0.7724 0.7407 0.0
O162 O 0.64925 0.76113 0.71551 0.0
O163 O 0.78618 0.71041 0.68938 0.0
C164 C 0.61152 0.62324 0.70997 0.0
O165 O 0.61381 0.64377 0.73911 0.0
C166 C 0.68773 0.76681 0.64223 0.0
O167 O 0.64406 0.71542 0.64147 0.0
O168 O 0.72038 0.75941 0.73941 0.0
C169 C 0.17541 0.85463 0.77633 0.0
O170 O 0.17725 0.82528 0.75163 0.0
O171 O 0.32985 0.95331 0.74212 0.0
Zn172 Zn 0.25452 0.94543 0.73654 0.0
O173 O 0.22101 0.89665 0.69727 0.0
C174 C 0.29786 0.04346 0.70017 0.0
O175 O 0.31766 0.01485 0.68533 0.0
O176 O 0.2048 0.90833 0.77553 0.0
C177 C 0.19023 0.90245 0.67675 0.0
O178 O 0.17651 0.94116 0.68152 0.0
C179 C 0.33618 0.91109 0.73801 0.0
O180 O 0.29159 0.86067 0.73479 0.0
O181 O 0.2677 0.02241 0.72529 0.0
C182 C 0.06712 0.3413 0.81276 0.0
O183 O 0.04989 0.37745 0.80906 0.0
O184 O 0.02402 0.3779 0.74051 0.0
Zn185 Zn 0.02216 0.30526 0.74762 0.0
O186 O 0.07248 0.3042 0.71319 0.0
C187 C 0.92359 0.24813 0.71182 0.0
O188 O 0.95523 0.29292 0.69422 0.0
O189 O 0.05628 0.30443 0.79081 0.0
C190 C 0.06316 0.2634 0.69457 0.0
O191 O 0.01679 0.21446 0.69772 0.0
C192 C 0.07038 0.42164 0.73364 0.0
O193 O 0.11684 0.42027 0.73678 0.0
O194 O 0.94312 0.242 0.73844 0.0
C195 C 0.97772 0.51854 0.53704 0.0
O196 O 0.93025 0.49669 0.55299 0.0
O197 O 0.94782 0.60709 0.59663 0.0
Zn198 Zn 0.01714 0.60215 0.58853 0.0
O199 O 0.02304 0.55876 0.62559 0.0
C200 C 0.07716 0.7232 0.58515 0.0
O201 O 0.03149 0.71513 0.5706 0.0
O202 O 0.01935 0.56463 0.54692 0.0
C203 C 0.06811 0.57534 0.64145 0.0
O204 O 0.1139 0.62167 0.63277 0.0
C205 C 0.94919 0.62888 0.62422 0.0
O206 O -0.00789 0.64275 0.64346 0.0
O207 O 0.08205 0.68086 0.59169 0.0
C208 C 0.44161 0.39338 0.55583 0.0
O209 O 0.47152 0.3874 0.57844 0.0
O210 O 0.35548 0.26936 0.61785 0.0
Zn211 Zn 0.36261 0.34376 0.60572 0.0
O212 O 0.42156 0.40283 0.63435 0.0
C213 C 0.24339 0.29323 0.61218 0.0
O214 O 0.24284 0.24947 0.59883 0.0
O215 O 0.38925 0.37184 0.56034 0.0
C216 C 0.41574 0.42649 0.65934 0.0
O217 O 0.36531 0.41124 0.66993 0.0
C218 C 0.33824 0.25472 0.64676 0.0
O219 O 0.32803 0.28814 0.66464 0.0
O220 O 0.28973 0.33921 0.61542 0.0
C221 C 0.54655 0.05141 0.58531 0.0
O222 O 0.54379 0.07188 0.61366 0.0
O223 O 0.68781 0.08503 0.63544 0.0
Zn224 Zn 0.6138 0.01814 0.62153 0.0
O225 O 0.56043 -0.00042 0.65854 0.0
C226 C 0.6707 0.95692 0.60581 0.0
O227 O 0.71453 0.0074 0.60143 0.0
O228 O 0.57741 0.02976 0.58221 0.0
C229 C 0.53379 0.95168 0.67209 0.0
O230 O 0.54139 0.91057 0.6622 0.0
C231 C 0.70671 0.07841 0.66215 0.0
O232 O 0.6773 0.03062 0.67773 0.0
O233 O 0.62403 0.95205 0.61339 0.0
C234 C 0.4995 0.95535 0.00767 0.0
C235 C 0.47555 0.97531 0.98532 0.0
H236 H 0.55035 0.9183 0.01481 0.0
C237 C 0.48407 0.97149 0.95201 0.0
H238 H 0.49324 0.95725 0.03345 0.0
C239 C 0.5171 0.94956 0.94129 0.0
C240 C 0.54144 0.93001 0.96363 0.0
H241 H 0.46602 0.98639 0.93418 0.0
H242 H 0.52406 0.94849 0.91553 0.0
C243 C 0.5317 0.93248 0.99692 0.0
C244 C 0.95053 0.45556 0.04338 0.0
C245 C 0.96498 0.42136 0.02539 0.0
H246 H 0.94794 0.53195 0.04515 0.0
C247 C 0.98874 0.43928 0.99447 0.0
H248 H 0.93215 0.44294 0.06723 0.0
C249 C -0.00251 0.49003 0.9817 0.0
C250 C 0.98303 0.52423 0.99966 0.0
H251 H 0.00027 0.41388 0.97989 0.0
H252 H 0.01565 0.50244 0.95779 0.0
C253 C 0.95965 0.50657 0.03068 0.0
C254 C 0.45934 0.51162 0.99465 0.0
C255 C 0.42728 0.46296 0.0132 0.0
H256 H 0.53414 0.5923 0.99142 0.0
C257 C 0.44668 0.45987 0.0442 0.0
H258 H 0.44556 0.51543 0.97074 0.0
C259 C 0.49754 0.50398 0.05612 0.0
C260 C 0.53011 0.55217 0.0373 0.0
H261 H 0.42294 0.42301 0.05919 0.0
H262 H 0.51169 0.49991 0.07986 0.0
C263 C 0.51014 0.55572 0.00657 0.0
C264 C 0.13841 0.30324 0.29015 0.0
C265 C 0.12932 0.30556 0.32352 0.0
H266 H 0.17904 0.28207 0.25317 0.0
C267 C 0.15317 0.28485 0.34546 0.0
H268 H 0.12051 0.31878 0.27259 0.0
C269 C 0.18583 0.26273 0.33423 0.0
C270 C 0.19605 0.26175 0.30088 0.0
H271 H 0.14656 0.28565 0.37128 0.0
H272 H 0.20437 0.24789 0.35179 0.0
C273 C 0.17179 0.28204 0.27896 0.0
C274 C 0.71116 0.82742 0.36762 0.0
C275 C 0.65517 0.78303 0.36898 0.0
H276 H 0.7693 0.90929 0.34908 0.0
C277 C 0.61405 0.78845 0.3522 0.0
H278 H 0.7439 0.8245 0.38015 0.0
C279 C 0.62875 0.83666 0.33398 0.0
C280 C 0.68484 0.8808 0.33234 0.0
H281 H 0.57059 0.75489 0.3525 0.0
H282 H 0.59602 0.83935 0.32127 0.0
C283 C 0.72579 0.87588 0.34962 0.0
C284 C 0.10492 0.79882 0.37946 0.0
C285 C 0.08648 0.80154 0.34811 0.0
H286 H 0.16877 0.83947 0.41574 0.0
C287 C 0.1187 0.85034 0.32969 0.0
H288 H 0.08103 0.76185 0.39435 0.0
C289 C 0.16884 0.89483 0.34202 0.0
C290 C 0.18805 0.89155 0.37303 0.0
H291 H 0.10565 0.85392 0.30553 0.0
H292 H 0.19302 0.93143 0.32691 0.0
C293 C 0.15521 0.84332 0.39178 0.0
C294 C 0.91002 0.66846 0.66421 0.0
C295 C 0.90563 0.64191 0.63418 0.0
H296 H 0.87497 0.70328 0.69671 0.0
C297 C 0.86031 0.62952 0.61373 0.0
H298 H 0.9445 0.67872 0.68057 0.0
C299 C 0.82046 0.64372 0.62304 0.0
C300 C 0.82509 0.67066 0.65297 0.0
H301 H 0.85577 0.6092 0.59046 0.0
H302 H 0.7861 0.63373 0.60663 0.0
C303 C 0.87022 0.68269 0.6735 0.0
C304 C 0.34496 0.16724 0.64339 0.0
C305 C 0.32836 0.20075 0.66028 0.0
H306 H 0.34872 0.09149 0.64289 0.0
C307 C 0.30193 0.18229 0.69052 0.0
H308 H 0.36546 0.18033 0.62009 0.0
C309 C 0.29204 0.1313 0.70355 0.0
C310 C 0.30874 0.09783 0.68672 0.0
H311 H 0.28845 0.20707 0.70415 0.0
H312 H 0.27139 0.11819 0.72681 0.0
C313 C 0.33545 0.1164 0.65655 0.0
C314 C 0.78164 0.11421 0.70479 0.0
C315 C 0.76152 0.12254 0.67527 0.0
H316 H 0.84844 0.14725 0.73959 0.0
C317 C 0.79465 0.17289 0.65832 0.0
H318 H 0.75713 0.07587 0.7185 0.0
C319 C 0.84695 0.21372 0.67045 0.0
C320 C 0.86734 0.2052 0.6998 0.0
H321 H 0.78041 0.18065 0.63555 0.0
H322 H 0.87155 0.25191 0.65661 0.0
C323 C 0.83398 0.15512 0.71694 0.0
C324 C 0.3307 0.14996 0.11788 0.0
C325 C 0.36415 0.12519 0.11466 0.0
H326 H 0.30398 0.195 0.14839 0.0
C327 C 0.39679 0.12704 0.14116 0.0
H328 H 0.30488 0.1492 0.09798 0.0
C329 C 0.39644 0.15367 0.17012 0.0
C330 C 0.36314 0.17865 0.17323 0.0
H331 H 0.42298 0.10838 0.13946 0.0
H332 H 0.42232 0.15468 0.19005 0.0
C333 C 0.33007 0.17619 0.14684 0.0
C334 C 0.87878 0.15013 0.18183 0.0
C335 C 0.85453 0.16835 0.15856 0.0
H336 H 0.86626 0.0988 0.22317 0.0
C337 C 0.79619 0.1458 0.15911 0.0
H338 H 0.92347 0.16622 0.18204 0.0
C339 C 0.76306 0.10646 0.18274 0.0
C340 C 0.78766 0.08908 0.20631 0.0
H341 H 0.77613 0.15856 0.14135 0.0
H342 H 0.71841 0.09062 0.18293 0.0
C343 C 0.84583 0.11109 0.20537 0.0
C344 C 0.8262 0.74367 0.2232 0.0
C345 C 0.85236 0.71128 0.22262 0.0
H346 H 0.76984 0.76388 0.19963 0.0
C347 C 0.84016 0.67277 0.19701 0.0
H348 H 0.83453 0.77355 0.24267 0.0
C349 C 0.80229 0.6665 0.17265 0.0
C350 C 0.77638 0.69915 0.17313 0.0
H351 H 0.85919 0.6468 0.19601 0.0
H352 H 0.79392 0.63657 0.15321 0.0
C353 C 0.78894 0.73796 0.1986 0.0
C354 C 0.70614 0.84709 0.82184 0.0
C355 C 0.65759 0.85106 0.82464 0.0
H356 H 0.75186 0.81856 0.79333 0.0
C357 C 0.61744 0.82867 0.79977 0.0
H358 H 0.73781 0.86371 0.84068 0.0
C359 C 0.62571 0.8032 0.77262 0.0
C360 C 0.67406 0.79897 0.76985 0.0
H361 H 0.57963 0.831 0.80117 0.0
H362 H 0.59392 0.78656 0.75385 0.0
C363 C 0.71413 0.82101 0.7948 0.0
C364 C 0.10451 0.82747 0.85824 0.0
C365 C 0.08091 0.76877 0.86141 0.0
H366 H 0.15301 0.90067 0.82908 0.0
C367 C 0.08689 0.73834 0.83583 0.0
H368 H 0.10077 0.85228 0.87749 0.0
C369 C 0.11664 0.76616 0.80795 0.0
C370 C 0.14148 0.82508 0.80517 0.0
H371 H 0.06918 0.69312 0.83749 0.0
H372 H 0.12104 0.74152 0.78885 0.0
C373 C 0.13465 0.85533 0.8305 0.0
C374 C 0.17325 0.32926 0.86488 0.0
C375 C 0.1795 0.36453 0.8913 0.0
H376 H 0.1321 0.29335 0.81972 0.0
C377 C 0.14761 0.39117 0.89197 0.0
H378 H 0.19681 0.3077 0.86375 0.0
C379 C 0.11063 0.38308 0.86667 0.0
C380 C 0.10414 0.34758 0.84034 0.0
H381 H 0.15126 0.41843 0.91204 0.0
H382 H 0.08707 0.40465 0.86779 0.0
C383 C 0.13573 0.3206 0.83978 0.0
C384 C 0.04177 0.4704 0.47218 0.0
C385 C -0.00584 0.43156 0.45456 0.0
H386 H 0.07398 0.52942 0.51176 0.0
C387 C 0.94116 0.42082 0.46461 0.0
H388 H 0.08313 0.47976 0.46482 0.0
C389 C 0.9358 0.44858 0.49162 0.0
C390 C 0.98345 0.48862 0.50873 0.0
H391 H 0.90369 0.39101 0.4515 0.0
H392 H 0.8944 0.43946 0.49872 0.0
C393 C 0.03651 0.49914 0.49883 0.0
C394 C 0.46961 0.4883 0.48315 0.0
C395 C 0.52802 0.51358 0.47983 0.0
H396 H 0.39615 0.42974 0.50943 0.0
C397 C 0.55699 0.49717 0.50085 0.0
H398 H 0.44596 0.49962 0.46718 0.0
C399 C 0.5285 0.45695 0.52478 0.0
C400 C 0.47024 0.43198 0.52837 0.0
H401 H 0.6019 0.51541 0.49888 0.0
H402 H 0.55245 0.44596 0.54074 0.0
C403 C 0.441 0.44786 0.50717 0.0
C404 C 0.48115 0.07833 0.56012 0.0
C405 C 0.50943 0.04802 0.55847 0.0
H406 H 0.42321 0.09731 0.53741 0.0
C407 C 0.49944 0.01204 0.5318 0.0
H408 H 0.48775 0.10624 0.58041 0.0
C409 C 0.46169 0.00614 0.50746 0.0
C410 C 0.43365 0.03669 0.50902 0.0
H411 H 0.52016 0.98771 0.52991 0.0
H412 H 0.45506 0.97815 0.48721 0.0
C413 C 0.444 0.07305 0.53554 0.0
C414 C 0.16043 0.88631 0.04294 0.0
C415 C 0.21414 0.89926 0.03293 0.0
H416 H 0.07186 0.83021 0.03808 0.0
C417 C 0.21943 0.86255 0.01137 0.0
H418 H 0.1551 0.91385 0.05956 0.0
C419 C 0.1721 0.81482 0.99928 0.0
C420 C 0.11826 0.80276 0.00829 0.0
H421 H 0.26023 0.87105 0.00339 0.0
H422 H 0.17787 0.78807 0.98225 0.0
C423 C 0.11282 0.83848 0.03063 0.0
C424 C 0.09641 0.29348 0.05347 0.0
C425 C 0.04815 0.23955 0.05259 0.0
H426 H 0.18048 0.3463 0.03718 0.0
C427 C 0.05083 0.195 0.03757 0.0
H428 H 0.09591 0.32861 0.06513 0.0
C429 C 0.09942 0.20516 0.02148 0.0
C430 C 0.14611 0.26007 0.02014 0.0
H431 H 0.01448 0.15284 0.0367 0.0
H432 H 0.09927 0.17057 0.00871 0.0
C433 C 0.1449 0.30364 0.03738 0.0
C434 C 0.70542 0.83773 0.05446 0.0
C435 C 0.74059 0.8167 0.04615 0.0
H436 H 0.67142 0.88911 0.03992 0.0
C437 C 0.77198 0.83485 0.01746 0.0
H438 H 0.68071 0.82408 0.07643 0.0
C439 C 0.76525 0.87022 0.99627 0.0
C440 C 0.72859 0.88951 0.004 0.0
H441 H 0.79897 0.81882 0.01032 0.0
H442 H 0.78752 0.88129 0.97342 0.0
C443 C 0.70017 0.87478 0.03371 0.0
C444 C 0.73966 0.14296 0.94903 0.0
C445 C 0.76088 0.10847 0.93901 0.0
H446 H 0.7487 0.20822 0.9815 0.0
C447 C 0.8127 0.1193 0.95128 0.0
H448 H 0.69991 0.13581 0.93992 0.0
C449 C 0.84012 0.16012 0.97525 0.0
C450 C 0.81655 0.19132 0.98725 0.0
H451 H 0.83056 0.09395 0.94381 0.0
H452 H 0.87869 0.16559 0.9853 0.0
C453 C 0.7674 0.18422 0.97296 0.0
C454 C 0.75676 0.55777 0.99495 0.0
C455 C 0.76161 0.60707 0.00846 0.0
H456 H 0.7954 0.52212 0.96598 0.0
C457 C 0.80765 0.6597 0.99997 0.0
H458 H 0.72153 0.51665 1.00085 0.0
C459 C 0.84967 0.66286 0.98001 0.0
C460 C 0.84663 0.61347 0.96807 0.0
H461 H 0.81224 0.6986 0.00956 0.0
H462 H 0.88558 0.70402 0.97497 0.0
C463 C 0.79897 0.56095 0.9749 0.0
C464 C 0.40578 0.24144 0.96267 0.0
C465 C 0.3554 0.23669 0.95213 0.0
H466 H 0.4462 0.19831 0.98071 0.0
C467 C 0.30827 0.18274 0.94735 0.0
H468 H 0.44286 0.28246 0.96645 0.0
C469 C 0.31032 0.13455 0.95518 0.0
C470 C 0.35933 0.13947 0.96834 0.0
H471 H 0.26901 0.17778 0.9389 0.0
H472 H 0.27245 0.09374 0.95275 0.0
C473 C 0.40765 0.19323 0.97089 0.0
C474 C 0.85755 0.21962 0.34482 0.0
C475 C 0.87908 0.2181 0.37533 0.0
H476 H 0.79292 0.17616 0.30976 0.0
C477 C 0.84791 0.17103 0.3953 0.0
H478 H 0.88007 0.2555 0.32896 0.0
C479 C 0.79731 0.1252 0.38423 0.0
C480 C 0.77743 0.12586 0.35303 0.0
H481 H 0.86331 0.16887 0.41904 0.0
H482 H 0.77503 0.08853 0.39955 0.0
C483 C 0.80741 0.17408 0.33381 0.0
C484 C 0.79733 0.62984 0.35958 0.0
C485 C 0.79827 0.59087 0.33782 0.0
H486 H 0.74737 0.65119 0.38908 0.0
C487 C 0.74866 0.53918 0.33214 0.0
H488 H 0.83493 0.66983 0.36474 0.0
C489 C 0.69831 0.52839 0.34623 0.0
C490 C 0.69681 0.56923 0.3661 0.0
H491 H 0.74814 0.50811 0.31567 0.0
H492 H 0.66023 0.48939 0.34019 0.0
C493 C 0.7471 0.61919 0.37351 0.0
C494 C 0.42281 0.20769 0.33114 0.0
C495 C 0.38579 0.22673 0.33844 0.0
H496 H 0.45719 0.15725 0.34595 0.0
C497 C 0.35773 0.21292 0.36826 0.0
H498 H 0.44474 0.21798 0.30818 0.0
C499 C 0.36353 0.17682 0.38953 0.0
C500 C 0.39887 0.15581 0.38159 0.0
H501 H 0.32866 0.22701 0.37414 0.0
H502 H 0.33894 0.16369 0.41155 0.0
C503 C 0.43008 0.17328 0.35281 0.0
C504 C 0.51822 0.50599 0.27939 0.0
C505 C 0.49941 0.53125 0.30181 0.0
H506 H 0.49456 0.43902 0.24486 0.0
C507 C 0.4424 0.51424 0.30274 0.0
H508 H 0.56207 0.51844 0.27832 0.0
C509 C 0.4041 0.46998 0.28307 0.0
C510 C 0.42213 0.44107 0.26285 0.0
H511 H 0.42712 0.5335 0.31973 0.0
H512 H 0.35996 0.45568 0.28564 0.0
C513 C 0.47969 0.46065 0.2603 0.0
C514 C 0.5008 -0.00112 0.31193 0.0
C515 C 0.5006 0.94949 0.30286 0.0
H516 H 0.46181 0.03518 0.33968 0.0
C517 C 0.45553 0.89691 0.31242 0.0
H518 H 0.53457 0.04003 0.30472 0.0
C519 C 0.41365 0.89411 0.33261 0.0
C520 C 0.4163 0.94384 0.34359 0.0
H521 H 0.45404 0.85804 0.3057 0.0
H522 H 0.38079 0.8532 0.3408 0.0
C523 C 0.45917 -0.00391 0.33212 0.0
C524 C 0.97836 0.52214 0.2807 0.0
C525 C 0.02369 0.57582 0.28859 0.0
H526 H 0.94227 0.43284 0.28443 0.0
C527 C 0.07139 0.58008 0.30329 0.0
H528 H 0.94125 0.51756 0.26904 0.0
C529 C 0.0718 0.53145 0.31239 0.0
C530 C 0.02475 0.47777 0.30662 0.0
H531 H 0.10707 0.62088 0.30956 0.0
H532 H 0.10791 0.53603 0.32529 0.0
C533 C 0.97901 0.47357 0.28946 0.0
C534 C 0.46243 0.50091 0.70261 0.0
C535 C 0.46601 0.47416 0.67433 0.0
H536 H 0.50621 0.56919 0.73646 0.0
C537 C 0.51831 0.49491 0.65928 0.0
H538 H 0.42271 0.48571 0.71478 0.0
C539 C 0.56556 0.54253 0.67145 0.0
C540 C 0.56188 0.57029 0.69915 0.0
H541 H 0.5227 0.47528 0.63752 0.0
H542 H 0.60494 0.55802 0.65881 0.0
C543 C 0.51016 0.54851 0.71506 0.0
C544 C 0.48477 0.98589 0.70803 0.0
C545 C 0.48875 0.94067 0.69517 0.0
H546 H 0.43378 0.01195 0.73255 0.0
C547 C 0.44609 0.88518 0.70175 0.0
H548 H 0.51748 0.02915 0.70383 0.0
C549 C 0.39781 0.87523 0.71817 0.0
C550 C 0.39168 0.92064 0.72841 0.0
H551 H 0.44826 0.84945 0.69242 0.0
H552 H 0.36398 0.83206 0.72102 0.0
C553 C 0.43683 0.97599 0.72463 0.0
C554 C 0.12082 0.51293 0.70368 0.0
C555 C 0.07032 0.46711 0.71488 0.0
H556 H 0.15978 0.58345 0.67159 0.0
C557 C 0.01933 0.46103 0.70429 0.0
H558 H 0.16078 0.51888 0.7115 0.0
C559 C 0.01879 0.49746 0.68118 0.0
C560 C 0.06919 0.54109 0.66846 0.0
H561 H 0.97964 0.42636 0.71255 0.0
H562 H 0.97876 0.49032 0.67259 0.0
C563 C 0.12025 0.54978 0.68074 0.0
C564 C 0.12362 0.8596 0.63007 0.0
C565 C 0.1675 0.86323 0.64894 0.0
H566 H 0.0608 0.81247 0.59429 0.0
C567 C 0.18737 0.82631 0.64238 0.0
H568 H 0.10791 0.88797 0.63434 0.0
C569 C 0.16087 0.78357 0.6193 0.0
C570 C 0.11377 0.77668 0.60244 0.0
H571 H 0.22192 0.82881 0.65605 0.0
H572 H 0.17529 0.75389 0.61609 0.0
C573 C 0.0969 0.81658 0.60697 0.0
C574 C 0.10193 0.22524 0.65316 0.0
C575 C 0.10585 0.2713 0.67042 0.0
H576 H 0.14238 0.1961 0.62074 0.0
C577 C 0.15246 0.32537 0.66543 0.0
H578 H 0.06629 0.18315 0.65632 0.0
C579 C 0.19569 0.33285 0.645 0.0
C580 C 0.1934 0.28641 0.62914 0.0
H581 H 0.15639 0.36193 0.67799 0.0
H582 H 0.23188 0.37483 0.64262 0.0
C583 C 0.14541 0.23273 0.63269 0.0
C584 C 0.63403 0.80595 0.61572 0.0
C585 C 0.68569 0.81314 0.62574 0.0
H586 H 0.58881 0.84636 0.60151 0.0
C587 C 0.73388 0.86702 0.62408 0.0
H588 H 0.59617 0.76492 0.61663 0.0
C589 C 0.72974 0.91361 0.61503 0.0
C590 C 0.67721 0.90709 0.608 0.0
H591 H 0.77434 0.87369 0.6314 0.0
H592 H 0.76707 0.95509 0.61575 0.0
C593 C 0.62975 0.85262 0.60719 0.0
loop_
_geom_bond_atom_site_label_1
_geom_bond_atom_site_label_2
_geom_bond_distance
_geom_bond_site_symmetry_2
_ccdc_geom_bond_type
C0 O1 1.160 . S
C0 O7 1.185 . S
O1 C0 1.160 . S
O2 Zn3 1.899 . S
O2 C10 1.284 . S
Zn3 O2 1.899 . S
Zn3 O4 2.032 1_545 S
Zn3 O7 2.086 . S
Zn3 O12 1.977 . S
O4 Zn3 2.032 1_565 S
O4 C8 1.278 . S
C5 O6 1.203 . S
C5 O12 1.267 . S
O6 C5 1.203 . S
O7 C0 1.185 . S
O7 Zn3 2.086 . S
C8 O4 1.278 . S
C8 O9 1.211 . S
O9 C8 1.211 . S
C10 O2 1.284 . S
C10 O11 1.273 . S
O11 C10 1.273 . S
O12 Zn3 1.977 . S
O12 C5 1.267 . S
C13 O14 1.160 . S
C13 O20 1.185 . S
O14 C13 1.160 . S
O15 Zn16 1.899 1_455 S
O15 C23 1.284 . S
Zn16 O15 1.899 1_655 S
Zn16 O17 2.032 . S
Zn16 O20 2.086 . S
Zn16 O25 1.977 . S
O17 Zn16 2.032 . S
O17 C21 1.278 . S
C18 O19 1.203 1_655 S
C18 O25 1.267 . S
O19 C18 1.203 1_455 S
O20 C13 1.185 . S
O20 Zn16 2.086 . S
C21 O17 1.278 . S
C21 O22 1.211 1_554 S
O22 C21 1.211 1_556 S
C23 O15 1.284 . S
C23 O24 1.273 . S
O24 C23 1.273 . S
O25 Zn16 1.977 . S
O25 C18 1.267 . S
C26 O27 1.160 . S
C26 O33 1.185 . S
O27 C26 1.160 . S
O28 Zn29 1.899 . S
O28 C36 1.284 . S
Zn29 O28 1.899 . S
Zn29 O30 2.032 . S
Zn29 O33 2.086 . S
Zn29 O38 1.977 . S
O30 Zn29 2.032 . S
O30 C34 1.278 . S
C31 O32 1.203 . S
C31 O38 1.267 . S
O32 C31 1.203 . S
O33 C26 1.185 . S
O33 Zn29 2.086 . S
C34 O30 1.278 . S
C34 O35 1.211 1_554 S
O35 C34 1.211 1_556 S
C36 O28 1.284 . S
C36 O37 1.273 . S
O37 C36 1.273 . S
O38 Zn29 1.977 . S
O38 C31 1.267 . S
C39 O40 1.160 . S
C39 O46 1.185 . S
O40 C39 1.160 . S
O41 Zn42 1.899 . S
O41 C49 1.284 . S
Zn42 O41 1.899 . S
Zn42 O43 2.032 . S
Zn42 O46 2.086 . S
Zn42 O51 1.977 1_565 S
O43 Zn42 2.032 . S
O43 C47 1.278 . S
C44 O45 1.203 . S
C44 O51 1.267 . S
O45 C44 1.203 . S
O46 C39 1.185 . S
O46 Zn42 2.086 . S
C47 O43 1.278 . S
C47 O48 1.211 1_556 S
O48 C47 1.211 1_554 S
C49 O41 1.284 . S
C49 O50 1.273 . S
O50 C49 1.273 . S
O51 Zn42 1.977 1_545 S
O51 C44 1.267 . S
C52 O53 1.160 . S
C52 O59 1.185 . S
O53 C52 1.160 . S
O54 Zn55 1.899 . S
O54 C62 1.284 . S
Zn55 O54 1.899 . S
Zn55 O56 2.032 . S
Zn55 O59 2.086 . S
Zn55 O64 1.977 1_455 S
O56 Zn55 2.032 . S
O56 C60 1.278 . S
C57 O58 1.203 . S
C57 O64 1.267 . S
O58 C57 1.203 . S
O59 C52 1.185 . S
O59 Zn55 2.086 . S
C60 O56 1.278 . S
C60 O61 1.211 1_556 S
O61 C60 1.211 1_554 S
C62 O54 1.284 . S
C62 O63 1.273 . S
O63 C62 1.273 . S
O64 Zn55 1.977 1_655 S
O64 C57 1.267 . S
C65 O66 1.160 . S
C65 O72 1.185 . S
O66 C65 1.160 . S
O67 Zn68 1.899 . S
O67 C75 1.284 . S
Zn68 O67 1.899 . S
Zn68 O69 2.032 . S
Zn68 O72 2.086 . S
Zn68 O77 1.977 . S
O69 Zn68 2.032 . S
O69 C73 1.278 . S
C70 O71 1.203 . S
C70 O77 1.267 . S
O71 C70 1.203 . S
O72 C65 1.185 . S
O72 Zn68 2.086 . S
C73 O69 1.278 . S
C73 O74 1.211 1_556 S
O74 C73 1.211 1_554 S
C75 O67 1.284 . S
C75 O76 1.273 . S
O76 C75 1.273 . S
O77 Zn68 1.977 . S
O77 C70 1.267 . S
C78 O79 1.160 . S
C78 O85 1.185 . S
O79 C78 1.160 . S
O80 Zn81 1.899 . S
O80 C88 1.284 1_455 S
Zn81 O80 1.899 . S
Zn81 O82 2.032 1_455 S
Zn81 O85 2.086 . S
Zn81 O90 1.977 . S
O82 Zn81 2.032 1_655 S
O82 C86 1.278 . S
C83 O84 1.203 . S
C83 O90 1.267 1_655 S
O84 C83 1.203 . S
O85 C78 1.185 . S
O85 Zn81 2.086 . S
C86 O82 1.278 . S
C86 O87 1.211 . S
O87 C86 1.211 . S
C88 O80 1.284 1_655 S
C88 O89 1.273 . S
O89 C88 1.273 . S
O90 Zn81 1.977 . S
O90 C83 1.267 1_455 S
C91 O92 1.160 . S
C91 O98 1.185 . S
O92 C91 1.160 . S
O93 Zn94 1.899 . S
O93 C101 1.284 . S
Zn94 O93 1.899 . S
Zn94 O95 2.032 . S
Zn94 O98 2.086 . S
Zn94 O103 1.977 . S
O95 Zn94 2.032 . S
O95 C99 1.278 . S
C96 O97 1.203 . S
C96 O103 1.267 . S
O97 C96 1.203 . S
O98 C91 1.185 . S
O98 Zn94 2.086 . S
C99 O95 1.278 . S
C99 O100 1.211 . S
O100 C99 1.211 . S
C101 O93 1.284 . S
C101 O102 1.273 . S
O102 C101 1.273 . S
O103 Zn94 1.977 . S
O103 C96 1.267 . S
C104 O105 1.160 . S
C104 O111 1.185 1_545 S
O105 C104 1.160 . S
O106 Zn107 1.899 1_545 S
O106 C114 1.284 . S
Zn107 O106 1.899 1_565 S
Zn107 O108 2.032 1_565 S
Zn107 O111 2.086 . S
Zn107 O116 1.977 . S
O108 Zn107 2.032 1_545 S
O108 C112 1.278 1_545 S
C109 O110 1.203 . S
C109 O116 1.267 . S
O110 C109 1.203 . S
O111 C104 1.185 1_565 S
O111 Zn107 2.086 . S
C112 O108 1.278 1_565 S
C112 O113 1.211 . S
O113 C112 1.211 . S
C114 O106 1.284 . S
C114 O115 1.273 . S
O115 C114 1.273 . S
O116 Zn107 1.977 . S
O116 C109 1.267 . S
C117 O118 1.160 . S
C117 O124 1.185 . S
O118 C117 1.160 . S
O119 Zn120 1.899 . S
O119 C127 1.284 . S
Zn120 O119 1.899 . S
Zn120 O121 2.032 . S
Zn120 O124 2.086 . S
Zn120 O129 1.977 . S
O121 Zn120 2.032 . S
O121 C125 1.278 . S
C122 O123 1.203 . S
C122 O129 1.267 . S
O123 C122 1.203 . S
O124 C117 1.185 . S
O124 Zn120 2.086 . S
C125 O121 1.278 . S
C125 O126 1.211 . S
O126 C125 1.211 . S
C127 O119 1.284 . S
C127 O128 1.273 . S
O128 C127 1.273 . S
O129 Zn120 1.977 . S
O129 C122 1.267 . S
C130 O131 1.160 . S
C130 O137 1.185 . S
O131 C130 1.160 . S
O132 Zn133 1.899 1_565 S
O132 C140 1.284 . S
Zn133 O132 1.899 1_545 S
Zn133 O134 2.032 . S
Zn133 O137 2.086 . S
Zn133 O142 1.977 . S
O134 Zn133 2.032 . S
O134 C138 1.278 . S
C135 O136 1.203 1_545 S
C135 O142 1.267 . S
O136 C135 1.203 1_565 S
O137 C130 1.185 . S
O137 Zn133 2.086 . S
C138 O134 1.278 . S
C138 O139 1.211 . S
O139 C138 1.211 . S
C140 O132 1.284 . S
C140 O141 1.273 . S
O141 C140 1.273 . S
O142 Zn133 1.977 . S
O142 C135 1.267 . S
C143 O144 1.160 . S
C143 O150 1.185 . S
O144 C143 1.160 . S
O145 Zn146 1.899 1_455 S
O145 C153 1.284 . S
Zn146 O145 1.899 1_655 S
Zn146 O147 2.032 . S
Zn146 O150 2.086 . S
Zn146 O155 1.977 . S
O147 Zn146 2.032 . S
O147 C151 1.278 . S
C148 O149 1.203 1_655 S
C148 O155 1.267 . S
O149 C148 1.203 1_455 S
O150 C143 1.185 . S
O150 Zn146 2.086 . S
C151 O147 1.278 . S
C151 O152 1.211 . S
O152 C151 1.211 . S
C153 O145 1.284 . S
C153 O154 1.273 . S
O154 C153 1.273 . S
O155 Zn146 1.977 . S
O155 C148 1.267 . S
C156 O157 1.160 . S
C156 O163 1.185 . S
O157 C156 1.160 . S
O158 Zn159 1.899 . S
O158 C166 1.284 . S
Zn159 O158 1.899 . S
Zn159 O160 2.032 . S
Zn159 O163 2.086 . S
Zn159 O168 1.977 . S
O160 Zn159 2.032 . S
O160 C164 1.278 . S
C161 O162 1.203 . S
C161 O168 1.267 . S
O162 C161 1.203 . S
O163 C156 1.185 . S
O163 Zn159 2.086 . S
C164 O160 1.278 . S
C164 O165 1.211 . S
O165 C164 1.211 . S
C166 O158 1.284 . S
C166 O167 1.273 . S
O167 C166 1.273 . S
O168 Zn159 1.977 . S
O168 C161 1.267 . S
C169 O170 1.160 . S
C169 O176 1.185 . S
O170 C169 1.160 . S
O171 Zn172 1.899 . S
O171 C179 1.284 . S
Zn172 O171 1.899 . S
Zn172 O173 2.032 . S
Zn172 O176 2.086 . S
Zn172 O181 1.977 1_565 S
O173 Zn172 2.032 . S
O173 C177 1.278 . S
C174 O175 1.203 . S
C174 O181 1.267 . S
O175 C174 1.203 . S
O176 C169 1.185 . S
O176 Zn172 2.086 . S
C177 O173 1.278 . S
C177 O178 1.211 . S
O178 C177 1.211 . S
C179 O171 1.284 . S
C179 O180 1.273 . S
O180 C179 1.273 . S
O181 Zn172 1.977 1_545 S
O181 C174 1.267 . S
C182 O183 1.160 . S
C182 O189 1.185 . S
O183 C182 1.160 . S
O184 Zn185 1.899 . S
O184 C192 1.284 . S
Zn185 O184 1.899 . S
Zn185 O186 2.032 . S
Zn185 O189 2.086 . S
Zn185 O194 1.977 1_455 S
O186 Zn185 2.032 . S
O186 C190 1.278 . S
C187 O188 1.203 . S
C187 O194 1.267 . S
O188 C187 1.203 . S
O189 C182 1.185 . S
O189 Zn185 2.086 . S
C190 O186 1.278 . S
C190 O191 1.211 . S
O191 C190 1.211 . S
C192 O184 1.284 . S
C192 O193 1.273 . S
O193 C192 1.273 . S
O194 Zn185 1.977 1_655 S
O194 C187 1.267 . S
C195 O196 1.160 . S
C195 O202 1.185 1_655 S
O196 C195 1.160 . S
O197 Zn198 1.899 1_655 S
O197 C205 1.284 . S
Zn198 O197 1.899 1_455 S
Zn198 O199 2.032 1_455 S
Zn198 O202 2.086 . S
Zn198 O207 1.977 . S
O199 Zn198 2.032 1_655 S
O199 C203 1.278 1_655 S
C200 O201 1.203 . S
C200 O207 1.267 . S
O201 C200 1.203 . S
O202 C195 1.185 1_455 S
O202 Zn198 2.086 . S
C203 O199 1.278 1_455 S
C203 O204 1.211 . S
O204 C203 1.211 . S
C205 O197 1.284 . S
C205 O206 1.273 . S
O206 C205 1.273 . S
O207 Zn198 1.977 . S
O207 C200 1.267 . S
C208 O209 1.160 . S
C208 O215 1.185 . S
O209 C208 1.160 . S
O210 Zn211 1.899 . S
O210 C218 1.284 . S
Zn211 O210 1.899 . S
Zn211 O212 2.032 . S
Zn211 O215 2.086 . S
Zn211 O220 1.977 . S
O212 Zn211 2.032 . S
O212 C216 1.278 . S
C213 O214 1.203 . S
C213 O220 1.267 . S
O214 C213 1.203 . S
O215 C208 1.185 . S
O215 Zn211 2.086 . S
C216 O212 1.278 . S
C216 O217 1.211 . S
O217 C216 1.211 . S
C218 O210 1.284 . S
C218 O219 1.273 . S
O219 C218 1.273 . S
O220 Zn211 1.977 . S
O220 C213 1.267 . S
C221 O222 1.160 . S
C221 O228 1.185 1_545 S
O222 C221 1.160 . S
O223 Zn224 1.899 1_545 S
O223 C231 1.284 . S
Zn224 O223 1.899 1_565 S
Zn224 O225 2.032 1_565 S
Zn224 O228 2.086 . S
Zn224 O233 1.977 . S
O225 Zn224 2.032 1_545 S
O225 C229 1.278 1_545 S
C226 O227 1.203 . S
C226 O233 1.267 . S
O227 C226 1.203 . S
O228 C221 1.185 1_565 S
O228 Zn224 2.086 . S
C229 O225 1.278 1_565 S
C229 O230 1.211 . S
O230 C229 1.211 . S
C231 O223 1.284 . S
C231 O232 1.273 . S
O232 C231 1.273 . S
O233 Zn224 1.977 . S
O233 C226 1.267 . S
C234 C235 1.366 1_565 S
C234 H238 0.950 . S
C234 C243 1.390 1_554 S
C235 C234 1.366 1_545 S
C235 C237 1.396 1_554 S
H236 C243 0.950 1_554 S
C237 C235 1.396 1_556 S
C237 C239 1.390 . S
C237 H241 0.950 . S
H238 C234 0.950 . S
C239 C237 1.390 . S
C239 C240 1.387 1_545 S
C239 H242 0.950 . S
C240 C239 1.387 1_565 S
C240 C243 1.387 . S
H241 C237 0.950 . S
H242 C239 0.950 . S
C243 C234 1.390 1_556 S
C243 H236 0.950 1_556 S
C243 C240 1.387 . S
C244 C245 1.387 . S
C244 H248 0.950 . S
C244 C253 1.390 . S
C245 C244 1.387 . S
C245 C247 1.387 1_654 S
H246 C253 0.950 . S
C247 C245 1.387 1_456 S
C247 C249 1.390 . S
C247 H251 0.950 . S
H248 C244 0.950 . S
C249 C247 1.390 . S
C249 C250 1.387 . S
C249 H252 0.950 . S
C250 C249 1.387 . S
C250 C253 1.387 1_456 S
H251 C247 0.950 . S
H252 C249 0.950 . S
C253 C244 1.390 . S
C253 H246 0.950 . S
C253 C250 1.387 1_654 S
C254 C255 1.387 . S
C254 H258 0.950 . S
C254 C263 1.390 . S
C255 C254 1.387 . S
C255 C257 1.387 1_556 S
H256 C263 0.950 . S
C257 C255 1.387 1_554 S
C257 C259 1.390 . S
C257 H261 0.950 . S
H258 C254 0.950 . S
C259 C257 1.390 . S
C259 C260 1.387 . S
C259 H262 0.950 . S
C260 C259 1.387 . S
C260 C263 1.387 1_554 S
H261 C257 0.950 . S
H262 C259 0.950 . S
C263 C254 1.390 . S
C263 H256 0.950 . S
C263 C260 1.387 1_556 S
C264 C265 1.387 . S
C264 H268 0.950 . S
C264 C273 1.390 . S
C265 C264 1.387 . S
C265 C267 1.387 . S
H266 C273 0.950 . S
C267 C265 1.387 . S
C267 C269 1.390 . S
C267 H271 0.950 . S
H268 C264 0.950 . S
C269 C267 1.390 . S
C269 C270 1.387 . S
C269 H272 0.950 . S
C270 C269 1.387 . S
C270 C273 1.387 . S
H271 C267 0.950 . S
H272 C269 0.950 . S
C273 C264 1.390 . S
C273 H266 0.950 . S
C273 C270 1.387 . S
C274 C275 1.387 . S
C274 H278 0.950 . S
C274 C283 1.390 . S
C275 C274 1.387 . S
C275 C277 1.387 . S
H276 C283 0.950 . S
C277 C275 1.387 . S
C277 C279 1.390 . S
C277 H281 0.950 . S
H278 C274 0.950 . S
C279 C277 1.390 . S
C279 C280 1.387 . S
C279 H282 0.950 . S
C280 C279 1.387 . S
C280 C283 1.387 . S
H281 C277 0.950 . S
H282 C279 0.950 . S
C283 C274 1.390 . S
C283 H276 0.950 . S
C283 C280 1.387 . S
C284 C285 1.387 . S
C284 H288 0.950 . S
C284 C293 1.390 . S
C285 C284 1.387 . S
C285 C287 1.387 . S
H286 C293 0.950 . S
C287 C285 1.387 . S
C287 C289 1.390 . S
C287 H291 0.950 . S
H288 C284 0.950 . S
C289 C287 1.390 . S
C289 C290 1.387 . S
C289 H292 0.950 . S
C290 C289 1.387 . S
C290 C293 1.387 . S
H291 C287 0.950 . S
H292 C289 0.950 . S
C293 C284 1.390 . S
C293 H286 0.950 . S
C293 C290 1.387 . S
C294 C295 1.387 . S
C294 H298 0.950 . S
C294 C303 1.390 . S
C295 C294 1.387 . S
C295 C297 1.387 . S
H296 C303 0.950 . S
C297 C295 1.387 . S
C297 C299 1.390 . S
C297 H301 0.950 . S
H298 C294 0.950 . S
C299 C297 1.390 . S
C299 C300 1.387 . S
C299 H302 0.950 . S
C300 C299 1.387 . S
C300 C303 1.387 . S
H301 C297 0.950 . S
H302 C299 0.950 . S
C303 C294 1.390 . S
C303 H296 0.950 . S
C303 C300 1.387 . S
C304 C305 1.387 . S
C304 H308 0.950 . S
C304 C313 1.390 . S
C305 C304 1.387 . S
C305 C307 1.387 . S
H306 C313 0.950 . S
C307 C305 1.387 . S
C307 C309 1.390 . S
C307 H311 0.950 . S
H308 C304 0.950 . S
C309 C307 1.390 . S
C309 C310 1.387 . S
C309 H312 0.950 . S
C310 C309 1.387 . S
C310 C313 1.387 . S
H311 C307 0.950 . S
H312 C309 0.950 . S
C313 C304 1.390 . S
C313 H306 0.950 . S
C313 C310 1.387 . S
C314 C315 1.387 . S
C314 H318 0.950 . S
C314 C323 1.390 . S
C315 C314 1.387 . S
C315 C317 1.387 . S
H316 C323 0.950 . S
C317 C315 1.387 . S
C317 C319 1.390 . S
C317 H321 0.950 . S
H318 C314 0.950 . S
C319 C317 1.390 . S
C319 C320 1.387 . S
C319 H322 0.950 . S
C320 C319 1.387 . S
C320 C323 1.387 . S
H321 C317 0.950 . S
H322 C319 0.950 . S
C323 C314 1.390 . S
C323 H316 0.950 . S
C323 C320 1.387 . S
C324 C325 1.387 . S
C324 H328 0.950 . S
C324 C333 1.390 . S
C325 C324 1.387 . S
C325 C327 1.387 . S
H326 C333 0.950 . S
C327 C325 1.387 . S
C327 C329 1.390 . S
C327 H331 0.950 . S
H328 C324 0.950 . S
C329 C327 1.390 . S
C329 C330 1.387 . S
C329 H332 0.950 . S
C330 C329 1.387 . S
C330 C333 1.387 . S
H331 C327 0.950 . S
H332 C329 0.950 . S
C333 C324 1.390 . S
C333 H326 0.950 . S
C333 C330 1.387 . S
C334 C335 1.387 . S
C334 H338 0.950 . S
C334 C343 1.390 . S
C335 C334 1.387 . S
C335 C337 1.387 . S
H336 C343 0.950 . S
C337 C335 1.387 . S
C337 C339 1.390 . S
C337 H341 0.950 . S
H338 C334 0.950 . S
C339 C337 1.390 . S
C339 C340 1.387 . S
C339 H342 0.950 . S
C340 C339 1.387 . S
C340 C343 1.387 . S
H341 C337 0.950 . S
H342 C339 0.950 . S
C343 C334 1.390 . S
C343 H336 0.950 . S
C343 C340 1.387 . S
C344 C345 1.387 . S
C344 H348 0.950 . S
C344 C353 1.390 . S
C345 C344 1.387 . S
C345 C347 1.387 . S
H346 C353 0.950 . S
C347 C345 1.387 . S
C347 C349 1.390 . S
C347 H351 0.950 . S
H348 C344 0.950 . S
C349 C347 1.390 . S
C349 C350 1.387 . S
C349 H352 0.950 . S
C350 C349 1.387 . S
C350 C353 1.387 . S
H351 C347 0.950 . S
H352 C349 0.950 . S
C353 C344 1.390 . S
C353 H346 0.950 . S
C353 C350 1.387 . S
C354 C355 1.387 . S
C354 H358 0.950 . S
C354 C363 1.390 . S
C355 C354 1.387 . S
C355 C357 1.387 . S
H356 C363 0.950 . S
C357 C355 1.387 . S
C357 C359 1.390 . S
C357 H361 0.950 . S
H358 C354 0.950 . S
C359 C357 1.390 . S
C359 C360 1.387 . S
C359 H362 0.950 . S
C360 C359 1.387 . S
C360 C363 1.387 . S
H361 C357 0.950 . S
H362 C359 0.950 . S
C363 C354 1.390 . S
C363 H356 0.950 . S
C363 C360 1.387 . S
C364 C365 1.387 . S
C364 H368 0.950 . S
C364 C373 1.390 . S
C365 C364 1.387 . S
C365 C367 1.387 . S
H366 C373 0.950 . S
C367 C365 1.387 . S
C367 C369 1.390 . S
C367 H371 0.950 . S
H368 C364 0.950 . S
C369 C367 1.390 . S
C369 C370 1.387 . S
C369 H372 0.950 . S
C370 C369 1.387 . S
C370 C373 1.387 . S
H371 C367 0.950 . S
H372 C369 0.950 . S
C373 C364 1.390 . S
C373 H366 0.950 . S
C373 C370 1.387 . S
C374 C375 1.387 . S
C374 H378 0.950 . S
C374 C383 1.390 . S
C375 C374 1.387 . S
C375 C377 1.387 . S
H376 C383 0.950 . S
C377 C375 1.387 . S
C377 C379 1.390 . S
C377 H381 0.950 . S
H378 C374 0.950 . S
C379 C377 1.390 . S
C379 C380 1.387 . S
C379 H382 0.950 . S
C380 C379 1.387 . S
C380 C383 1.387 . S
H381 C377 0.950 . S
H382 C379 0.950 . S
C383 C374 1.390 . S
C383 H376 0.950 . S
C383 C380 1.387 . S
C384 C385 1.387 1_455 S
C384 H388 0.950 . S
C384 C393 1.390 . S
C385 C384 1.387 1_655 S
C385 C387 1.387 . S
H386 C393 0.950 . S
C387 C385 1.387 . S
C387 C389 1.390 . S
C387 H391 0.950 . S
H388 C384 0.950 . S
C389 C387 1.390 . S
C389 C390 1.387 . S
C389 H392 0.950 . S
C390 C389 1.387 . S
C390 C393 1.387 1_655 S
H391 C387 0.950 . S
H392 C389 0.950 . S
C393 C384 1.390 . S
C393 H386 0.950 . S
C393 C390 1.387 1_455 S
C394 C395 1.387 . S
C394 H398 0.950 . S
C394 C403 1.390 . S
C395 C394 1.387 . S
C395 C397 1.387 . S
H396 C403 0.950 . S
C397 C395 1.387 . S
C397 C399 1.390 . S
C397 H401 0.950 . S
H398 C394 0.950 . S
C399 C397 1.390 . S
C399 C400 1.387 . S
C399 H402 0.950 . S
C400 C399 1.387 . S
C400 C403 1.387 . S
H401 C397 0.950 . S
H402 C399 0.950 . S
C403 C394 1.390 . S
C403 H396 0.950 . S
C403 C400 1.387 . S
C404 C405 1.387 . S
C404 H408 0.950 . S
C404 C413 1.390 . S
C405 C404 1.387 . S
C405 C407 1.387 1_545 S
H406 C413 0.950 . S
C407 C405 1.387 1_565 S
C407 C409 1.390 . S
C407 H411 0.950 . S
H408 C404 0.950 . S
C409 C407 1.390 . S
C409 C410 1.387 1_565 S
C409 H412 0.950 . S
C410 C409 1.387 1_545 S
C410 C413 1.387 . S
H411 C407 0.950 . S
H412 C409 0.950 . S
C413 C404 1.390 . S
C413 H406 0.950 . S
C413 C410 1.387 . S
C414 C415 1.387 . S
C414 H418 0.950 . S
C414 C423 1.390 1_554 S
C415 C414 1.387 . S
C415 C417 1.387 . S
H416 C423 0.950 . S
C417 C415 1.387 . S
C417 C419 1.390 . S
C417 H421 0.950 . S
H418 C414 0.950 . S
C419 C417 1.390 . S
C419 C420 1.387 1_554 S
C419 H422 0.950 . S
C420 C419 1.387 1_556 S
C420 C423 1.387 . S
H421 C417 0.950 . S
H422 C419 0.950 . S
C423 C414 1.390 1_556 S
C423 H416 0.950 . S
C423 C420 1.387 . S
C424 C425 1.387 . S
C424 H428 0.950 . S
C424 C433 1.390 . S
C425 C424 1.387 . S
C425 C427 1.387 . S
H426 C433 0.950 . S
C427 C425 1.387 . S
C427 C429 1.390 . S
C427 H431 0.950 . S
H428 C424 0.950 . S
C429 C427 1.390 . S
C429 C430 1.387 1_554 S
C429 H432 0.950 1_554 S
C430 C429 1.387 1_556 S
C430 C433 1.387 1_556 S
H431 C427 0.950 . S
H432 C429 0.950 1_556 S
C433 C424 1.390 . S
C433 H426 0.950 . S
C433 C430 1.387 1_554 S
C434 C435 1.387 . S
C434 H438 0.950 . S
C434 C443 1.390 . S
C435 C434 1.387 . S
C435 C437 1.387 . S
H436 C443 0.950 . S
C437 C435 1.387 . S
C437 C439 1.390 1_554 S
C437 H441 0.950 . S
H438 C434 0.950 . S
C439 C437 1.390 1_556 S
C439 C440 1.387 . S
C439 H442 0.950 . S
C440 C439 1.387 . S
C440 C443 1.387 1_556 S
H441 C437 0.950 . S
H442 C439 0.950 . S
C443 C434 1.390 . S
C443 H436 0.950 . S
C443 C440 1.387 1_554 S
C444 C445 1.387 . S
C444 H448 0.950 . S
C444 C453 1.390 . S
C445 C444 1.387 . S
C445 C447 1.387 . S
H446 C453 0.950 . S
C447 C445 1.387 . S
C447 C449 1.390 1_556 S
C447 H451 0.950 . S
H448 C444 0.950 . S
C449 C447 1.390 1_554 S
C449 C450 1.387 . S
C449 H452 0.950 . S
C450 C449 1.387 . S
C450 C453 1.387 1_554 S
H451 C447 0.950 . S
H452 C449 0.950 . S
C453 C444 1.390 . S
C453 H446 0.950 . S
C453 C450 1.387 1_556 S
C454 C455 1.387 1_556 S
C454 H458 0.950 . S
C454 C463 1.390 . S
C455 C454 1.387 1_554 S
C455 C457 1.387 . S
H456 C463 0.950 . S
C457 C455 1.387 . S
C457 C459 1.390 1_554 S
C457 H461 0.950 . S
H458 C454 0.950 . S
C459 C457 1.390 1_556 S
C459 C460 1.387 . S
C459 H462 0.950 . S
C460 C459 1.387 . S
C460 C463 1.387 . S
H461 C457 0.950 . S
H462 C459 0.950 . S
C463 C454 1.390 . S
C463 H456 0.950 . S
C463 C460 1.387 . S
C464 C465 1.387 . S
C464 H468 0.950 . S
C464 C473 1.390 . S
C465 C464 1.387 . S
C465 C467 1.387 1_556 S
H466 C473 0.950 . S
C467 C465 1.387 1_554 S
C467 C469 1.390 . S
C467 H471 0.950 . S
H468 C464 0.950 . S
C469 C467 1.390 . S
C469 C470 1.387 . S
C469 H472 0.950 . S
C470 C469 1.387 . S
C470 C473 1.387 1_554 S
H471 C467 0.950 . S
H472 C469 0.950 . S
C473 C464 1.390 . S
C473 H466 0.950 . S
C473 C470 1.387 1_556 S
C474 C475 1.387 . S
C474 H478 0.950 . S
C474 C483 1.390 . S
C475 C474 1.387 . S
C475 C477 1.387 . S
H476 C483 0.950 . S
C477 C475 1.387 . S
C477 C479 1.390 . S
C477 H481 0.950 . S
H478 C474 0.950 . S
C479 C477 1.390 . S
C479 C480 1.387 . S
C479 H482 0.950 . S
C480 C479 1.387 . S
C480 C483 1.387 . S
H481 C477 0.950 . S
H482 C479 0.950 . S
C483 C474 1.390 . S
C483 H476 0.950 . S
C483 C480 1.387 . S
C484 C485 1.387 . S
C484 H488 0.950 . S
C484 C493 1.390 . S
C485 C484 1.387 . S
C485 C487 1.387 . S
H486 C493 0.950 . S
C487 C485 1.387 . S
C487 C489 1.390 . S
C487 H491 0.950 . S
H488 C484 0.950 . S
C489 C487 1.390 . S
C489 C490 1.387 . S
C489 H492 0.950 . S
C490 C489 1.387 . S
C490 C493 1.387 . S
H491 C487 0.950 . S
H492 C489 0.950 . S
C493 C484 1.390 . S
C493 H486 0.950 . S
C493 C490 1.387 . S
C494 C495 1.387 . S
C494 H498 0.950 . S
C494 C503 1.390 . S
C495 C494 1.387 . S
C495 C497 1.387 . S
H496 C503 0.950 . S
C497 C495 1.387 . S
C497 C499 1.390 . S
C497 H501 0.950 . S
H498 C494 0.950 . S
C499 C497 1.390 . S
C499 C500 1.387 . S
C499 H502 0.950 . S
C500 C499 1.387 . S
C500 C503 1.387 . S
H501 C497 0.950 . S
H502 C499 0.950 . S
C503 C494 1.390 . S
C503 H496 0.950 . S
C503 C500 1.387 . S
C504 C505 1.387 . S
C504 H508 0.950 . S
C504 C513 1.390 . S
C505 C504 1.387 . S
C505 C507 1.387 . S
H506 C513 0.950 . S
C507 C505 1.387 . S
C507 C509 1.390 . S
C507 H511 0.950 . S
H508 C504 0.950 . S
C509 C507 1.390 . S
C509 C510 1.387 . S
C509 H512 0.950 . S
C510 C509 1.387 . S
C510 C513 1.387 . S
H511 C507 0.950 . S
H512 C509 0.950 . S
C513 C504 1.390 . S
C513 H506 0.950 . S
C513 C510 1.387 . S
C514 C515 1.387 . S
C514 H518 0.950 . S
C514 C523 1.390 . S
C515 C514 1.387 . S
C515 C517 1.387 1_545 S
H516 C523 0.950 . S
C517 C515 1.387 1_565 S
C517 C519 1.390 . S
C517 H521 0.950 . S
H518 C514 0.950 . S
C519 C517 1.390 . S
C519 C520 1.396 . S
C519 H522 0.950 . S
C520 C519 1.396 . S
C520 C523 1.382 1_565 S
H521 C517 0.950 . S
H522 C519 0.950 . S
C523 C514 1.390 . S
C523 H516 0.950 . S
C523 C520 1.382 1_545 S
C524 C525 1.387 . S
C524 H528 0.950 . S
C524 C533 1.390 . S
C525 C524 1.387 . S
C525 C527 1.387 1_655 S
H526 C533 0.950 . S
C527 C525 1.387 1_455 S
C527 C529 1.390 . S
C527 H531 0.950 . S
H528 C524 0.950 . S
C529 C527 1.390 . S
C529 C530 1.387 1_455 S
C529 H532 0.950 . S
C530 C529 1.387 1_655 S
C530 C533 1.387 . S
H531 C527 0.950 . S
H532 C529 0.950 . S
C533 C524 1.390 . S
C533 H526 0.950 . S
C533 C530 1.387 . S
C534 C535 1.387 . S
C534 H538 0.950 . S
C534 C543 1.390 . S
C535 C534 1.387 . S
C535 C537 1.387 . S
H536 C543 0.950 . S
C537 C535 1.387 . S
C537 C539 1.390 . S
C537 H541 0.950 . S
H538 C534 0.950 . S
C539 C537 1.390 . S
C539 C540 1.387 . S
C539 H542 0.950 . S
C540 C539 1.387 . S
C540 C543 1.387 . S
H541 C537 0.950 . S
H542 C539 0.950 . S
C543 C534 1.390 . S
C543 H536 0.950 . S
C543 C540 1.387 . S
C544 C545 1.387 1_545 S
C544 H548 0.950 . S
C544 C553 1.390 . S
C545 C544 1.387 1_565 S
C545 C547 1.387 . S
H546 C553 0.950 . S
C547 C545 1.387 . S
C547 C549 1.390 . S
C547 H551 0.950 . S
H548 C544 0.950 . S
C549 C547 1.390 . S
C549 C550 1.387 . S
C549 H552 0.950 . S
C550 C549 1.387 . S
C550 C553 1.387 1_565 S
H551 C547 0.950 . S
H552 C549 0.950 . S
C553 C544 1.390 . S
C553 H546 0.950 . S
C553 C550 1.387 1_545 S
C554 C555 1.387 . S
C554 H558 0.950 . S
C554 C563 1.390 . S
C555 C554 1.387 . S
C555 C557 1.393 . S
H556 C563 0.950 . S
C557 C555 1.393 . S
C557 C559 1.380 1_455 S
C557 H561 0.955 1_455 S
H558 C554 0.950 . S
C559 C557 1.380 1_655 S
C559 C560 1.387 1_655 S
C559 H562 0.950 . S
C560 C559 1.387 1_455 S
C560 C563 1.387 . S
H561 C557 0.955 1_655 S
H562 C559 0.950 . S
C563 C554 1.390 . S
C563 H556 0.950 . S
C563 C560 1.387 . S
C564 C565 1.387 . S
C564 H568 0.950 . S
C564 C573 1.390 . S
C565 C564 1.387 . S
C565 C567 1.387 . S
H566 C573 0.950 . S
C567 C565 1.387 . S
C567 C569 1.390 . S
C567 H571 0.950 . S
H568 C564 0.950 . S
C569 C567 1.390 . S
C569 C570 1.387 . S
C569 H572 0.950 . S
C570 C569 1.387 . S
C570 C573 1.387 . S
H571 C567 0.950 . S
H572 C569 0.950 . S
C573 C564 1.390 . S
C573 H566 0.950 . S
C573 C570 1.387 . S
C574 C575 1.387 . S
C574 H578 0.950 . S
C574 C583 1.390 . S
C575 C574 1.387 . S
C575 C577 1.387 . S
H576 C583 0.950 . S
C577 C575 1.387 . S
C577 C579 1.390 . S
C577 H581 0.950 . S
H578 C574 0.950 . S
C579 C577 1.390 . S
C579 C580 1.387 . S
C579 H582 0.950 . S
C580 C579 1.387 . S
C580 C583 1.387 . S
H581 C577 0.950 . S
H582 C579 0.950 . S
C583 C574 1.390 . S
C583 H576 0.950 . S
C583 C580 1.387 . S
C584 C585 1.387 . S
C584 H588 0.950 . S
C584 C593 1.390 . S
C585 C584 1.387 . S
C585 C587 1.387 . S
H586 C593 0.950 . S
C587 C585 1.387 . S
C587 C589 1.390 . S
C587 H591 0.950 . S
H588 C584 0.950 . S
C589 C587 1.390 . S
C589 C590 1.387 . S
C589 H592 0.950 . S
C590 C589 1.387 . S
C590 C593 1.387 . S
H591 C587 0.950 . S
H592 C589 0.950 . S
C593 C584 1.390 . S
C593 H586 0.950 . S
C593 C590 1.387 . S
C235 C0 1.606 . S
C240 C49 1.595 . S
C245 C18 1.566 . S
C250 C62 1.608 . S
C255 C75 1.582 . S
C260 C31 1.530 . S
C265 C78 1.582 . S
C270 C127 1.585 . S
C275 C96 1.567 . S
C280 C140 1.608 . S
C285 C153 1.573 . S
C290 C109 1.522 . S
C295 C205 1.589 . S
C300 C156 1.583 . S
C305 C218 1.607 . S
C310 C174 1.564 . S
C315 C231 1.573 . S
C320 C187 1.521 . S
C325 C5 1.657 . S
C330 C117 1.829 . S
C335 C13 1.845 . S
C340 C130 1.836 . S
C345 C143 1.812 . S
C350 C26 1.814 . S
C355 C39 1.829 . S
C360 C161 1.656 . S
C365 C52 1.838 . S
C370 C169 1.845 . S
C375 C65 1.814 . S
C380 C182 1.817 . S
C385 C83 1.658 . S
C390 C195 1.838 . S
C395 C91 1.858 . S
C400 C208 1.846 . S
C405 C221 1.800 . S
C410 C104 1.796 . S
C415 C8 0.889 . S
C420 C60 0.877 . S
C425 C23 0.862 . S
C430 C73 0.872 . S
C435 C36 0.869 . S
C440 C47 0.878 . S
C445 C44 0.875 . S
C450 C21 0.895 . S
C455 C34 0.892 . S
C460 C57 0.875 . S
C465 C70 0.889 . S
C470 C10 0.906 . S
C475 C86 0.902 . S
C480 C138 0.889 . S
C485 C151 0.878 . S
C490 C101 0.867 . S
C495 C125 0.886 . S
C500 C114 0.878 . S
C505 C99 0.892 . S
C510 C122 0.873 . S
C515 C135 0.874 . S
C520 C112 0.893 . S
C525 C148 0.880 . S
C530 C88 0.900 . S
C535 C216 0.871 . S
C540 C164 0.887 . S
C545 C229 0.877 . S
C550 C179 0.868 . S
C555 C192 0.871 . S
C560 C203 0.877 . S
C565 C177 0.910 . S
C570 C200 0.891 . S
C575 C190 0.896 . S
C580 C213 0.878 . S
C585 C166 0.909 . S
C590 C226 0.893 . S
