# Generated by pormake.
# Topology wjl, (5)-cn, num edge types: 1
# Building blocks:
#     Node 0, Type 0, BuildingBlock: XOMCOT_clean_sbu_1, # of connection points: 5
#     Node 1, Type 0, BuildingBlock: XOMCOT_clean_sbu_1, # of connection points: 5
#     Node 2, Type 0, BuildingBlock: XOMCOT_clean_sbu_1, # of connection points: 5
#     Node 3, Type 0, BuildingBlock: XOMCOT_clean_sbu_1, # of connection points: 5
#     Node 4, Type 0, BuildingBlock: XOMCOT_clean_sbu_1, # of connection points: 5
#     Node 5, Type 0, BuildingBlock: XOMCOT_clean_sbu_1, # of connection points: 5
#     Node 6, Type 0, BuildingBlock: XOMCOT_clean_sbu_1, # of connection points: 5
#     Node 7, Type 0, BuildingBlock: XOMCOT_clean_sbu_1, # of connection points: 5
#     Node 8, Type 0, BuildingBlock: XOMCOT_clean_sbu_1, # of connection points: 5
#     Node 9, Type 0, BuildingBlock: XOMCOT_clean_sbu_1, # of connection points: 5
#     Node 10, Type 0, BuildingBlock: XOMCOT_clean_sbu_1, # of connection points: 5
#     Node 11, Type 0, BuildingBlock: XOMCOT_clean_sbu_1, # of connection points: 5
#     Edge 12, Type (0, 0), BuildingBlock: ZUJKAS_clean_linker_0, # of connection points: 2
#     Edge 13, Type (0, 0), BuildingBlock: ZUJKAS_clean_linker_0, # of connection points: 2
#     Edge 14, Type (0, 0), BuildingBlock: ZUJKAS_clean_linker_0, # of connection points: 2
#     Edge 15, Type (0, 0), BuildingBlock: ZUJKAS_clean_linker_0, # of connection points: 2
#     Edge 16, Type (0, 0), BuildingBlock: ZUJKAS_clean_linker_0, # of connection points: 2
#     Edge 17, Type (0, 0), BuildingBlock: ZUJKAS_clean_linker_0, # of connection points: 2
#     Edge 18, Type (0, 0), BuildingBlock: ZUJKAS_clean_linker_0, # of connection points: 2
#     Edge 19, Type (0, 0), BuildingBlock: ZUJKAS_clean_linker_0, # of connection points: 2
#     Edge 20, Type (0, 0), BuildingBlock: ZUJKAS_clean_linker_0, # of connection points: 2
#     Edge 21, Type (0, 0), BuildingBlock: ZUJKAS_clean_linker_0, # of connection points: 2
#     Edge 22, Type (0, 0), BuildingBlock: ZUJKAS_clean_linker_0, # of connection points: 2
#     Edge 23, Type (0, 0), BuildingBlock: ZUJKAS_clean_linker_0, # of connection points: 2
#     Edge 24, Type (0, 0), BuildingBlock: ZUJKAS_clean_linker_0, # of connection points: 2
#     Edge 25, Type (0, 0), BuildingBlock: ZUJKAS_clean_linker_0, # of connection points: 2
#     Edge 26, Type (0, 0), BuildingBlock: ZUJKAS_clean_linker_0, # of connection points: 2
#     Edge 27, Type (0, 0), BuildingBlock: ZUJKAS_clean_linker_0, # of connection points: 2
#     Edge 28, Type (0, 0), BuildingBlock: ZUJKAS_clean_linker_0, # of connection points: 2
#     Edge 29, Type (0, 0), BuildingBlock: ZUJKAS_clean_linker_0, # of connection points: 2
#     Edge 30, Type (0, 0), BuildingBlock: ZUJKAS_clean_linker_0, # of connection points: 2
#     Edge 31, Type (0, 0), BuildingBlock: ZUJKAS_clean_linker_0, # of connection points: 2
#     Edge 32, Type (0, 0), BuildingBlock: ZUJKAS_clean_linker_0, # of connection points: 2
#     Edge 33, Type (0, 0), BuildingBlock: ZUJKAS_clean_linker_0, # of connection points: 2
#     Edge 34, Type (0, 0), BuildingBlock: ZUJKAS_clean_linker_0, # of connection points: 2
#     Edge 35, Type (0, 0), BuildingBlock: ZUJKAS_clean_linker_0, # of connection points: 2
#     Edge 36, Type (0, 0), BuildingBlock: ZUJKAS_clean_linker_0, # of connection points: 2
#     Edge 37, Type (0, 0), BuildingBlock: ZUJKAS_clean_linker_0, # of connection points: 2
#     Edge 38, Type (0, 0), BuildingBlock: ZUJKAS_clean_linker_0, # of connection points: 2
#     Edge 39, Type (0, 0), BuildingBlock: ZUJKAS_clean_linker_0, # of connection points: 2
#     Edge 40, Type (0, 0), BuildingBlock: ZUJKAS_clean_linker_0, # of connection points: 2
#     Edge 41, Type (0, 0), BuildingBlock: ZUJKAS_clean_linker_0, # of connection points: 2
# Relax obj value: 0.420
# Max RMSD: 0.220
# Mean RMSD: 0.220
data_MOF--net-wjl--node1-XOMCOT_clean_sbu_1--edge1-ZUJKAS_clean_linker_0
_symmetry_space_group_name_H-M    P1
_symmetry_Int_Tables_number       1
_symmetry_cell_setting            triclinic
loop_
_symmetry_equiv_pos_as_xyz
'x, y, z'
_cell_length_a     33.665378
_cell_length_b     33.659637
_cell_length_c     106.496
_cell_angle_alpha  90.044563
_cell_angle_beta   89.933451
_cell_angle_gamma 120.0445
loop_
_atom_site_label
_atom_site_type_symbol
_atom_site_fract_x
_atom_site_fract_y
_atom_site_fract_z
_atom_type_partial_charge
C0 C 0.30737 0.26786 0.35698 0.0
C1 C 0.32699 0.27893 0.36875 0.0
N2 N 0.36922 0.31579 0.36759 0.0
N3 N 0.33679 0.29858 0.34859 0.0
C4 C 0.37444 0.32683 0.35532 0.0
H5 H 0.27328 0.24022 0.35478 0.0
Co6 Co 0.32782 0.3045 0.33163 0.0
C7 C 0.35104 0.40142 0.32915 0.0
O8 O 0.31335 0.38702 0.32251 0.0
N9 N 0.32059 0.31062 0.31424 0.0
C10 C 0.34213 0.33573 0.2947 0.0
C11 C 0.35362 0.34411 0.30712 0.0
C12 C 0.29012 0.28113 0.30574 0.0
N13 N 0.30238 0.29572 0.29377 0.0
O14 O 0.38322 0.30407 0.32803 0.0
H15 H 0.38573 0.37177 0.31063 0.0
H16 H 0.26183 0.24773 0.30811 0.0
O17 O 0.36141 0.3722 0.33345 0.0
C18 C 0.3736 0.26419 0.32435 0.0
O19 O 0.33026 0.23301 0.32273 0.0
N20 N 0.2709 0.29965 0.33567 0.0
C21 C 0.18678 0.2713 0.34751 0.0
C22 C 0.22449 0.3149 0.34984 0.0
C23 C 0.26652 0.32793 0.3441 0.0
C24 C 0.23397 0.25772 0.333 0.0
C25 C 0.19149 0.24299 0.33872 0.0
H26 H 0.29619 0.3585 0.34755 0.0
H27 H 0.23856 0.23323 0.32759 0.0
H28 H 0.40448 0.3562 0.35141 0.0
H29 H 0.31131 0.26185 0.3775 0.0
H30 H 0.36285 0.35661 0.28696 0.0
H31 H 0.22285 0.33693 0.357 0.0
H32 H 0.16356 0.2085 0.33698 0.0
C33 C 0.02751 0.31806 0.52014 0.0
C34 C 0.03316 0.33673 0.53196 0.0
N35 N 0.03285 0.37651 0.531 0.0
N36 N 0.02317 0.3457 0.5118 0.0
C37 C 0.02692 0.38115 0.51865 0.0
H38 H 0.02697 0.28655 0.51776 0.0
Co39 Co 0.01607 0.33686 0.49459 0.0
C40 C 0.95147 0.36733 0.48699 0.0
O41 O 0.93213 0.33129 0.47957 0.0
N42 N 0.01089 0.32926 0.47699 0.0
C43 C 0.02055 0.35182 0.45705 0.0
C44 C 0.02438 0.36565 0.46927 0.0
C45 C 0.99985 0.29356 0.4691 0.0
N46 N 0.00508 0.30641 0.45689 0.0
O47 O 0.07563 0.3896 0.49233 0.0
H48 H 0.03726 0.4006 0.47237 0.0
H49 H 0.98929 0.25914 0.47216 0.0
O50 O 0.98613 0.37455 0.49369 0.0
C51 C 0.10542 0.37723 0.49078 0.0
O52 O 0.09135 0.33307 0.49063 0.0
N53 N 0.95974 0.28276 0.49755 0.0
C54 C 0.89308 0.20226 0.50906 0.0
C55 C 0.88977 0.24204 0.50937 0.0
C56 C 0.92414 0.28226 0.50392 0.0
C57 C 0.96235 0.24369 0.49672 0.0
C58 C 0.92925 0.20293 0.50236 0.0
H59 H 0.92422 0.31356 0.50608 0.0
H60 H 0.99279 0.24527 0.49285 0.0
H61 H 0.02526 0.4098 0.51466 0.0
H62 H 0.03813 0.32255 0.54054 0.0
H63 H 0.03072 0.37415 0.44894 0.0
H64 H 0.8636 0.24345 0.51497 0.0
H65 H 0.93375 0.17324 0.50229 0.0
C66 C 0.76503 0.13716 0.68674 0.0
C67 C 0.74639 0.14342 0.69756 0.0
N68 N 0.70161 0.11103 0.69797 0.0
N69 N 0.73214 0.10107 0.68038 0.0
C70 C 0.69398 0.08578 0.68747 0.0
H71 H 0.80033 0.15746 0.68371 0.0
Co72 Co 0.74039 0.07811 0.66542 0.0
C73 C 0.6462 0.01343 0.65568 0.0
O74 O 0.6614 0.9895 0.64973 0.0
N75 N 0.74995 0.05542 0.65009 0.0
C76 C 0.76403 0.01638 0.63553 0.0
C77 C 0.76251 0.02341 0.64819 0.0
C78 C 0.74482 0.06769 0.63836 0.0
N79 N 0.753 0.04435 0.6294 0.0
O80 O 0.75099 0.1334 0.65736 0.0
H81 H 0.76964 0.00543 0.65541 0.0
H82 H 0.73421 0.09252 0.63637 0.0
O83 O 0.6741 0.04889 0.66202 0.0
C84 C 0.79335 0.16146 0.65529 0.0
O85 O 0.82299 0.1474 0.65704 0.0
N86 N 0.73441 0.02748 0.67427 0.0
C87 C 0.74103 0.96643 0.69061 0.0
C88 C 0.69806 0.95827 0.68642 0.0
C89 C 0.6954 0.98959 0.67838 0.0
C90 C 0.77634 0.03608 0.67833 0.0
C91 C 0.78053 0.0058 0.68637 0.0
H92 H 0.6619 0.98402 0.67608 0.0
H93 H 0.80674 0.0673 0.67542 0.0
H94 H 0.66144 0.05591 0.68515 0.0
H95 H 0.76436 0.16997 0.70451 0.0
H96 H 0.77327 0.99308 0.63115 0.0
H97 H 0.66666 0.92851 0.68957 0.0
H98 H 0.81431 0.01417 0.68963 0.0
C99 C 0.68317 0.72306 0.85502 0.0
C100 C 0.65744 0.71196 0.86587 0.0
N101 N 0.61935 0.67065 0.86425 0.0
N102 N 0.6616 0.68867 0.84669 0.0
C103 C 0.62258 0.6578 0.85245 0.0
H104 H 0.71611 0.75349 0.85343 0.0
Co105 Co 0.68181 0.68401 0.83087 0.0
C106 C 0.66136 0.58766 0.83014 0.0
O107 O 0.70376 0.60311 0.82632 0.0
N108 N 0.70103 0.68032 0.81443 0.0
C109 C 0.69682 0.65937 0.79439 0.0
C110 C 0.67905 0.64534 0.80619 0.0
C111 C 0.73057 0.71591 0.80714 0.0
N112 N 0.72895 0.70401 0.79496 0.0
O113 O 0.63015 0.68524 0.82391 0.0
H114 H 0.64853 0.61301 0.80817 0.0
H115 H 0.74957 0.75095 0.81042 0.0
O116 O 0.64709 0.61605 0.83211 0.0
C117 C 0.64142 0.72632 0.82103 0.0
O118 O 0.6846 0.7585 0.8222 0.0
N119 N 0.73445 0.68717 0.83836 0.0
C120 C 0.81033 0.7079 0.85353 0.0
C121 C 0.7672 0.66977 0.85611 0.0
C122 C 0.72979 0.66035 0.84854 0.0
C123 C 0.77636 0.724 0.83561 0.0
C124 C 0.81486 0.73454 0.84292 0.0
H125 H 0.69634 0.63343 0.8515 0.0
H126 H 0.77982 0.74767 0.82835 0.0
H127 H 0.59718 0.62629 0.84805 0.0
H128 H 0.66705 0.73207 0.8744 0.0
H129 H 0.68333 0.63973 0.78584 0.0
H130 H 0.7614 0.64913 0.86444 0.0
H131 H 0.84736 0.76461 0.84063 0.0
C132 C 0.92092 0.65942 0.02535 0.0
C133 C 0.9074 0.63532 0.03646 0.0
N134 N 0.91869 0.60215 0.03607 0.0
N135 N 0.94106 0.6418 0.01806 0.0
C136 C 0.93862 0.6066 0.02475 0.0
H137 H 0.91736 0.68861 0.02283 0.0
Co138 Co 0.968 0.66449 0.00252 0.0
C139 C 0.04888 0.652 0.00263 0.0
O140 O 0.07333 0.69535 -0.0007 0.0
N141 N 0.99339 0.68633 0.98633 0.0
C142 C 0.01905 0.68758 0.96692 0.0
C143 C 0.00997 0.66657 0.97841 0.0
C144 C 0.98975 0.71723 0.97899 0.0
N145 N 0.00616 0.71934 0.96729 0.0
O146 O 0.91821 0.61162 0.99483 0.0
H147 H 0.01186 0.63611 0.98038 0.0
H148 H 0.97194 0.73511 0.98172 0.0
O149 O 0.00534 0.6339 0.00415 0.0
C150 C 0.88838 0.62232 0.99149 0.0
O151 O 0.89816 0.66505 0.99296 0.0
N152 N 0.01362 0.71818 0.01067 0.0
C153 C 0.06291 0.79413 0.02627 0.0
C154 C 0.06088 0.7524 0.02885 0.0
C155 C 0.03561 0.71478 0.02107 0.0
C156 C 0.0155 0.75879 0.00804 0.0
C157 C 0.04082 0.79753 0.01556 0.0
H158 H 0.03153 0.68216 0.0239 0.0
H159 H 0.99455 0.76068 0.00073 0.0
H160 H 0.95274 0.58567 0.02159 0.0
H161 H 0.89084 0.64195 0.04425 0.0
H162 H 0.0299 0.6772 0.95857 0.0
H163 H 0.0771 0.74831 0.03715 0.0
H164 H 0.04046 0.82887 0.01351 0.0
C165 C 0.24883 0.90993 0.19477 0.0
C166 C 0.26199 0.90198 0.20632 0.0
N167 N 0.30442 0.90763 0.20518 0.0
N168 N 0.28298 0.9208 0.18646 0.0
C169 C 0.31589 0.91834 0.19301 0.0
H170 H 0.21702 0.90911 0.19263 0.0
Co171 Co 0.2858 0.93797 0.16983 0.0
C172 C 0.3814 0.01282 0.16612 0.0
O173 O 0.36483 0.03537 0.16006 0.0
N174 N 0.28891 0.95413 0.15273 0.0
C175 C 0.31329 0.96471 0.1329 0.0
C176 C 0.31887 0.95192 0.14468 0.0
C177 C 0.26407 0.96656 0.1454 0.0
N178 N 0.27884 0.9739 0.13339 0.0
O179 O 0.28507 0.88279 0.165 0.0
H180 H 0.34314 0.94113 0.1472 0.0
H181 H 0.23509 0.96926 0.14858 0.0
O182 O 0.35378 0.9729 0.17058 0.0
C183 C 0.24421 0.85255 0.16203 0.0
O184 O 0.21286 0.86491 0.16164 0.0
N185 N 0.2813 0.98887 0.17525 0.0
C186 C 0.2579 0.04718 0.18786 0.0
C187 C 0.30115 0.05141 0.18951 0.0
C188 C 0.31171 0.02121 0.18341 0.0
C189 C 0.2389 0.98402 0.17366 0.0
C190 C 0.22672 0.01326 0.17969 0.0
H191 H 0.34276 0.02165 0.18613 0.0
H192 H 0.21295 0.95493 0.1685 0.0
H193 H 0.34785 0.92444 0.18891 0.0
H194 H 0.24247 0.89427 0.21494 0.0
H195 H 0.33156 0.96505 0.12449 0.0
H196 H 0.32538 0.07547 0.19624 0.0
H197 H 0.19244 0.00788 0.17845 0.0
C198 C 0.72497 0.68718 0.47017 0.0
C199 C 0.71279 0.66561 0.45866 0.0
N200 N 0.67425 0.62489 0.46021 0.0
N201 N 0.69338 0.66051 0.4788 0.0
C202 C 0.66335 0.62249 0.47246 0.0
H203 H 0.75423 0.72068 0.47203 0.0
Co204 Co 0.6889 0.67278 0.49558 0.0
C205 C 0.59506 0.65821 0.49801 0.0
O206 O 0.61263 0.69717 0.50422 0.0
N207 N 0.68383 0.68339 0.51279 0.0
C208 C 0.6584 0.66718 0.5325 0.0
C209 C 0.64988 0.65257 0.52028 0.0
C210 C 0.71355 0.71568 0.52087 0.0
N211 N 0.69861 0.70678 0.53286 0.0
O212 O 0.68394 0.61535 0.49987 0.0
H213 H 0.62174 0.62002 0.51716 0.0
H214 H 0.7468 0.74367 0.51827 0.0
O215 O 0.62159 0.64412 0.49384 0.0
C216 C 0.72243 0.62234 0.504 0.0
O217 O 0.75557 0.66492 0.50564 0.0
N218 N 0.69936 0.73123 0.49093 0.0
C219 C 0.73462 0.81668 0.47929 0.0
C220 C 0.6895 0.78163 0.47696 0.0
C221 C 0.67292 0.73878 0.48261 0.0
C222 C 0.74312 0.76524 0.49337 0.0
C223 C 0.76119 0.8084 0.48784 0.0
H224 H 0.64063 0.71089 0.47934 0.0
H225 H 0.76594 0.75753 0.49856 0.0
H226 H 0.63306 0.59419 0.47664 0.0
H227 H 0.73046 0.67889 0.44982 0.0
H228 H 0.63846 0.64827 0.5406 0.0
H229 H 0.66862 0.78589 0.46995 0.0
H230 H 0.79667 0.83404 0.48957 0.0
C231 C 0.13307 0.76295 0.63943 0.0
C232 C 0.13795 0.74298 0.62869 0.0
N233 N 0.10398 0.69876 0.62841 0.0
N234 N 0.09643 0.73143 0.64592 0.0
C235 C 0.07931 0.69278 0.63896 0.0
H236 H 0.15466 0.79826 0.64231 0.0
Co237 Co 0.07524 0.74166 0.66094 0.0
C238 C 0.01155 0.64831 0.67152 0.0
O239 O 0.98803 0.66374 0.67759 0.0
N240 N 0.05449 0.75325 0.67627 0.0
C241 C 0.02249 0.77586 0.69082 0.0
C242 C 0.02795 0.77236 0.67817 0.0
C243 C 0.06497 0.74587 0.688 0.0
N244 N 0.04583 0.75921 0.69701 0.0
O245 O 0.13114 0.75283 0.66874 0.0
H246 H 0.01328 0.78346 0.67094 0.0
H247 H 0.08668 0.73137 0.68987 0.0
O248 O 0.04621 0.67589 0.66487 0.0
C249 C 0.1594 0.79519 0.67074 0.0
O250 O 0.14564 0.82502 0.6689 0.0
N251 N 0.02365 0.73494 0.65241 0.0
C252 C 0.9594 0.73993 0.637 0.0
C253 C 0.95153 0.69753 0.6416 0.0
C254 C 0.9844 0.69564 0.64915 0.0
C255 C 0.03227 0.77622 0.64777 0.0
C256 C 1.0004 0.77965 0.6402 0.0
H257 H 0.9786 0.66235 0.65178 0.0
H258 H 0.06448 0.80676 0.64996 0.0
H259 H 0.04938 0.66076 0.6416 0.0
H260 H 0.164 0.75999 0.62156 0.0
H261 H 0.00265 0.78952 0.69509 0.0
H262 H 0.92059 0.66592 0.63919 0.0
H263 H 0.00854 0.81292 0.63656 0.0
C264 C 0.32189 0.02203 0.80783 0.0
C265 C 0.34063 0.031 0.79596 0.0
N266 N 0.38218 0.03431 0.79659 0.0
N267 N 0.3513 0.0192 0.81585 0.0
C268 C 0.38782 0.02721 0.80877 0.0
H269 H 0.28905 0.018 0.81048 0.0
Co270 Co 0.34294 0.00857 0.83296 0.0
C271 C 0.37949 0.9474 0.83884 0.0
O272 O 0.34367 0.92463 0.8462 0.0
N273 N 0.33564 1.00005 0.8505 0.0
C274 C 0.35826 0.00884 0.87042 0.0
C275 C 0.37189 0.01238 0.85818 0.0
C276 C 0.30038 0.99026 0.85842 0.0
N277 N 0.3132 0.99502 0.87064 0.0
O278 O 0.3929 0.06938 0.83583 0.0
H279 H 0.40682 0.02537 0.85505 0.0
H280 H 0.26661 0.98209 0.85539 0.0
O281 O 0.38458 0.98286 0.83293 0.0
C282 C 0.37808 0.09711 0.83768 0.0
O283 O 0.33346 0.0805 0.83786 0.0
N284 N 0.29138 0.95055 0.82941 0.0
C285 C 0.21341 0.88016 0.81773 0.0
C286 C 0.25608 0.88279 0.81654 0.0
C287 C 0.29469 0.91881 0.82213 0.0
C288 C 0.24982 0.94778 0.83094 0.0
C289 C 0.21027 0.91253 0.82532 0.0
H290 H 0.32754 0.92343 0.81937 0.0
H291 H 0.24794 0.97564 0.83537 0.0
H292 H 0.41788 0.02757 0.81248 0.0
H293 H 0.32519 0.03556 0.78758 0.0
H294 H 0.38077 0.01893 0.87848 0.0
H295 H 0.26066 0.86007 0.81025 0.0
H296 H 0.17824 0.91259 0.82617 0.0
C297 C 0.26428 0.32266 0.97043 0.0
C298 C 0.27369 0.34405 0.9589 0.0
N299 N 0.31486 0.38277 0.9596 0.0
N300 N 0.29975 0.3475 0.97823 0.0
C301 C 0.32972 0.38411 0.97143 0.0
H302 H 0.23383 0.29084 0.97293 0.0
Co303 Co 0.30565 0.33438 0.99475 0.0
C304 C 0.4012 0.35351 0.99674 0.0
O305 O 0.38465 0.314 0.00262 0.0
N306 N 0.31124 0.32265 0.0118 0.0
C307 C 0.33605 0.33815 0.03153 0.0
C308 C 0.34525 0.35282 0.01936 0.0
C309 C 0.28051 0.29097 0.01982 0.0
N310 N 0.29492 0.29942 0.0319 0.0
O311 O 0.30607 0.38921 -0.00023 0.0
H312 H 0.37393 0.38521 0.01636 0.0
H313 H 0.24644 0.26484 0.01713 0.0
O314 O 0.37365 0.36699 0.99297 0.0
C315 C 0.26469 0.3775 0.00247 0.0
O316 O 0.23361 0.33366 0.00197 0.0
N317 N 0.29971 0.27817 0.98933 0.0
C318 C 0.27354 0.19545 0.97695 0.0
C319 C 0.31602 0.23446 0.97445 0.0
C320 C 0.32781 0.27576 0.98043 0.0
C321 C 0.25821 0.24035 0.99184 0.0
C322 C 0.24459 0.19852 0.98585 0.0
H323 H 0.35775 0.30634 0.97708 0.0
H324 H 0.23351 0.24349 0.99755 0.0
H325 H 0.36234 0.4108 0.975 0.0
H326 H 0.25198 0.33211 0.95066 0.0
H327 H 0.35715 0.35623 0.03953 0.0
H328 H 0.33829 0.23407 0.96716 0.0
H329 H 0.21072 0.16957 0.98765 0.0
C330 C 0.88898 0.24026 0.14447 0.0
C331 C 0.87821 0.25631 0.1339 0.0
N332 N 0.90477 0.30243 0.13362 0.0
N333 N 0.92214 0.27597 0.15086 0.0
C334 C 0.93112 0.31339 0.14404 0.0
H335 H 0.87403 0.20475 0.14729 0.0
Co336 Co 0.94775 0.26963 0.16557 0.0
C337 C 0.02439 0.36246 0.1721 0.0
O338 O 0.04776 0.34368 0.17637 0.0
N339 N 0.97289 0.26174 0.18077 0.0
C340 C 0.00896 0.24336 0.19518 0.0
C341 C 0.00144 0.24482 0.18258 0.0
C342 C 0.96412 0.27066 0.19254 0.0
N343 N 0.9852 0.25933 0.20147 0.0
O344 O 0.89745 0.26737 0.17456 0.0
H345 H 0.01661 0.23425 0.17535 0.0
H346 H 0.94159 0.28407 0.19458 0.0
O347 O 0.98422 0.3369 0.16752 0.0
C348 C 0.8674 0.22601 0.17713 0.0
O349 O 0.87756 0.19363 0.17502 0.0
N350 N 0.99241 0.26676 0.15589 0.0
C351 C 0.04129 0.24599 0.13849 0.0
C352 C 0.05257 0.29168 0.14061 0.0
C353 C 0.02714 0.30134 0.14921 0.0
C354 C 0.98022 0.22222 0.15366 0.0
C355 C 0.00476 0.21109 0.14524 0.0
H356 H 0.03388 0.33612 0.14985 0.0
H357 H 0.95082 0.19507 0.15847 0.0
H358 H 0.95644 0.34797 0.14666 0.0
H359 H 0.85341 0.23537 0.12684 0.0
H360 H 0.03023 0.23123 0.19935 0.0
H361 H 0.07923 0.31954 0.13521 0.0
H362 H 0.99462 0.17536 0.14387 0.0
C363 C 0.687 0.96687 0.30933 0.0
C364 C 0.66511 0.9564 0.29787 0.0
N365 N 0.62277 0.95047 0.29954 0.0
N366 N 0.65873 0.96811 0.31809 0.0
C367 C 0.61981 0.9576 0.31188 0.0
H368 H 0.72121 0.97302 0.31118 0.0
Co369 Co 0.6701 0.97928 0.33506 0.0
C370 C 0.63471 0.04033 0.34214 0.0
O371 O 0.67197 0.06318 0.34897 0.0
N372 N 0.68027 0.98848 0.35251 0.0
C373 C 0.66067 0.98176 0.37267 0.0
C374 C 0.64481 0.97449 0.36061 0.0
C375 C 0.71753 0.00329 0.36002 0.0
N376 N 0.7065 0.99993 0.37236 0.0
O377 O 0.62056 0.91844 0.33833 0.0
H378 H 0.60914 0.95883 0.3579 0.0
H379 H 0.75184 0.01507 0.35666 0.0
O380 O 0.62848 0.00497 0.33593 0.0
C381 C 0.63479 0.89034 0.34035 0.0
O382 O 0.67929 0.90632 0.34064 0.0
N383 N 0.72093 0.03725 0.33106 0.0
C384 C 0.79744 0.10919 0.31925 0.0
C385 C 0.75424 0.10559 0.31842 0.0
C386 C 0.71638 0.06887 0.32408 0.0
C387 C 0.76285 0.04049 0.33207 0.0
C388 C 0.8017 0.07656 0.32641 0.0
H389 H 0.68304 0.06388 0.32174 0.0
H390 H 0.76556 0.01277 0.33629 0.0
H391 H 0.58992 0.95549 0.31634 0.0
H392 H 0.679 0.95272 0.28906 0.0
H393 H 0.63956 0.97194 0.38103 0.0
H394 H 0.74877 0.12848 0.31246 0.0
H395 H 0.83416 0.07726 0.32699 0.0
H396 H 0.45529 0.29965 0.33701 0.0
H397 H 0.50397 0.26462 0.33874 0.0
H398 H 0.41763 0.16033 0.31212 0.0
H399 H 0.36912 0.19488 0.31038 0.0
H400 H 0.46439 0.17014 0.34702 0.0
H401 H 0.54974 0.19847 0.30057 0.0
H402 H 0.5269 0.23359 0.30628 0.0
H403 H 0.48905 0.17744 0.30004 0.0
C404 C 0.44763 0.27013 0.33124 0.0
C405 C 0.40848 0.24994 0.32356 0.0
C406 C 0.47523 0.25001 0.33229 0.0
C407 C 0.46451 0.21005 0.32549 0.0
C408 C 0.42692 0.19149 0.3173 0.0
H409 H 0.56415 0.01486 0.32521 0.0
H410 H 0.51999 0.05375 0.32135 0.0
C411 C 0.39914 0.21119 0.31636 0.0
C412 C 0.489 0.18457 0.32797 0.0
H413 H 0.55363 0.14445 0.31412 0.0
C414 C 0.48428 0.16485 0.33987 0.0
C415 C 0.51405 0.17698 0.31854 0.0
C416 C 0.52065 0.19798 0.30566 0.0
C417 C 0.50357 0.1373 0.34258 0.0
C418 C 0.52926 0.13021 0.33321 0.0
C419 C 0.53379 0.14976 0.32127 0.0
C420 C 0.55388 0.10488 0.33586 0.0
C421 C 0.49537 0.11524 0.35537 0.0
C422 C 0.5874 0.12067 0.34528 0.0
C423 C 0.61224 0.09848 0.34755 0.0
C424 C 0.60458 0.06022 0.34035 0.0
C425 C 0.57061 0.044 0.33098 0.0
C426 C 0.54557 0.06632 0.32872 0.0
H427 H 0.46394 0.11179 0.35983 0.0
H428 H 0.49197 0.08073 0.3548 0.0
H429 H 0.52485 0.13709 0.36156 0.0
H430 H 0.59513 0.1509 0.35072 0.0
H431 H 0.63824 0.11208 0.35481 0.0
H432 H 0.15111 0.4698 0.49595 0.0
H433 H 0.23458 0.52247 0.49551 0.0
H434 H 0.25474 0.41224 0.48272 0.0
H435 H 0.17215 0.35987 0.48309 0.0
H436 H 0.29935 0.50889 0.50966 0.0
H437 H 0.33497 0.51814 0.45855 0.0
H438 H 0.2783 0.49917 0.46478 0.0
H439 H 0.30091 0.4608 0.46451 0.0
C440 C 0.17336 0.45708 0.49286 0.0
C441 C 0.15505 0.41069 0.48957 0.0
C442 C 0.22096 0.48711 0.49264 0.0
C443 C 0.25076 0.47134 0.48893 0.0
C444 C 0.23237 0.42535 0.48539 0.0
H445 H 0.54392 0.57183 0.48788 0.0
H446 H 0.46015 0.52734 0.48553 0.0
C447 C 0.18508 0.39537 0.4857 0.0
C448 C 0.30125 0.50163 0.48963 0.0
H449 H 0.39957 0.54551 0.4722 0.0
C450 C 0.32128 0.51742 0.50146 0.0
C451 C 0.32974 0.51211 0.47893 0.0
C452 C 0.30996 0.49704 0.46595 0.0
C453 C 0.36914 0.54243 0.50295 0.0
C454 C 0.39772 0.55285 0.49225 0.0
C455 C 0.37764 0.5374 0.48039 0.0
C456 C 0.44849 0.58021 0.49321 0.0
C457 C 0.38863 0.55611 0.51602 0.0
C458 C 0.46973 0.62497 0.49802 0.0
C459 C 0.51729 0.65021 0.49945 0.0
C460 C 0.54482 0.63148 0.49595 0.0
C461 C 0.52367 0.58714 0.49073 0.0
C462 C 0.47586 0.56173 0.48937 0.0
H463 H 0.3632 0.53475 0.5233 0.0
H464 H 0.41975 0.55303 0.51717 0.0
H465 H 0.39833 0.59239 0.51771 0.0
H466 H 0.44944 0.64038 0.50074 0.0
H467 H 0.53242 0.68446 0.50335 0.0
H468 H 0.04637 0.60229 0.65832 0.0
H469 H 0.00837 0.51964 0.65408 0.0
H470 H 0.89327 0.49804 0.67683 0.0
H471 H 0.93073 0.58021 0.68116 0.0
H472 H 0.97188 0.44291 0.67278 0.0
H473 H 0.83875 0.4402 0.64134 0.0
H474 H 0.89214 0.4921 0.64469 0.0
H475 H 0.84699 0.46899 0.65616 0.0
C476 C 0.01315 0.57995 0.66251 0.0
C477 C 0.99152 0.59801 0.67003 0.0
C478 C 0.99146 0.53277 0.66005 0.0
C479 C 0.9477 0.50298 0.66496 0.0
C480 C 0.92672 0.52063 0.67278 0.0
H481 H 0.75255 0.21109 0.66221 0.0
H482 H 0.78978 0.29498 0.66355 0.0
C483 C 0.9484 0.56763 0.67531 0.0
C484 C 0.92386 0.4533 0.66201 0.0
H485 H 0.83041 0.36824 0.64686 0.0
C486 C 0.94116 0.42656 0.66704 0.0
C487 C 0.88359 0.43217 0.65461 0.0
C488 C 0.86426 0.45974 0.64879 0.0
C489 C 0.91866 0.37891 0.6651 0.0
C490 C 0.87846 0.35767 0.65761 0.0
C491 C 0.86127 0.38455 0.65254 0.0
C492 C 0.85362 0.30747 0.65515 0.0
C493 C 0.93738 0.3516 0.67144 0.0
C494 C 0.87624 0.2868 0.6494 0.0
C495 C 0.85521 0.23906 0.6487 0.0
C496 C 0.81081 0.21105 0.65353 0.0
C497 C 0.7867 0.2318 0.65835 0.0
C498 C 0.80803 0.27971 0.65918 0.0
H499 H 0.96015 0.37066 0.67944 0.0
H500 H 0.9092 0.31826 0.67495 0.0
H501 H 0.95789 0.34455 0.66457 0.0
H502 H 0.91092 0.30757 0.64589 0.0
H503 H 0.87446 0.22401 0.64483 0.0
H504 H 0.45087 0.97735 0.82193 0.0
H505 H 0.49353 0.93838 0.81616 0.0
H506 H 0.41565 0.8321 0.84322 0.0
H507 H 0.37332 0.87046 0.84907 0.0
H508 H 0.54545 0.91121 0.83307 0.0
H509 H 0.40014 0.76283 0.80929 0.0
H510 H 0.40143 0.81649 0.81198 0.0
H511 H 0.38735 0.77618 0.82459 0.0
C512 C 0.44309 0.94587 0.82671 0.0
C513 C 0.40851 0.92695 0.83592 0.0
C514 C 0.46732 0.92357 0.82336 0.0
C515 C 0.45698 0.88189 0.82909 0.0
C516 C 0.42344 0.86371 0.8385 0.0
H517 H 0.55484 0.68948 0.83085 0.0
H518 H 0.50785 0.72654 0.83127 0.0
C519 C 0.3995 0.88596 0.84189 0.0
C520 C 0.48179 0.85754 0.82557 0.0
H521 H 0.46581 0.75608 0.81378 0.0
C522 C 0.52831 0.87758 0.8287 0.0
C523 C 0.45905 0.81348 0.81999 0.0
C524 C 0.40931 0.79099 0.81616 0.0
C525 C 0.55242 0.85405 0.8268 0.0
C526 C 0.52963 0.80974 0.82128 0.0
C527 C 0.48322 0.79002 0.81797 0.0
C528 C 0.5534 0.78314 0.81926 0.0
C529 C 0.60158 0.87615 0.8312 0.0
C530 C 0.59304 0.80122 0.81181 0.0
C531 C 0.61991 0.78036 0.81164 0.0
C532 C 0.60712 0.7405 0.81871 0.0
C533 C 0.56524 0.71996 0.82524 0.0
C534 C 0.53858 0.74128 0.82554 0.0
H535 H 0.60993 0.90411 0.83807 0.0
H536 H 0.60871 0.8505 0.83561 0.0
H537 H 0.62484 0.89131 0.82302 0.0
H538 H 0.60443 0.83276 0.80661 0.0
H539 H 0.65193 0.79669 0.80646 0.0
H540 H 0.8317 0.63573 0.97641 0.0
H541 H 0.74867 0.58668 0.97444 0.0
H542 H 0.75389 0.4832 0.99706 0.0
H543 H 0.83767 0.53223 -0.00107 0.0
H544 H 0.6881 0.44875 0.97618 0.0
H545 H 0.6721 0.5754 0.00611 0.0
H546 H 0.70665 0.59887 0.99227 0.0
H547 H 0.72528 0.57505 0.00446 0.0
C548 C 0.81534 0.60203 0.98071 0.0
C549 C 0.84102 0.58787 0.9879 0.0
C550 C 0.76787 0.57418 0.97963 0.0
C551 C 0.74504 0.53186 0.98586 0.0
C552 C 0.77092 0.51595 0.99225 0.0
H553 H 0.46605 0.33226 0.00372 0.0
H554 H 0.54825 0.37539 -0.00015 0.0
C555 C 0.81874 0.5438 0.99325 0.0
C556 C 0.69417 0.5064 0.98655 0.0
H557 H 0.60343 0.51414 0.99803 0.0
C558 C 0.66954 0.46296 0.98095 0.0
C559 C 0.67004 0.52517 0.99275 0.0
C560 C 0.69475 0.571 -0.00066 0.0
C561 C 0.62129 0.43788 0.98132 0.0
C562 C 0.59721 0.45644 0.98766 0.0
C563 C 0.62189 0.50012 0.99311 0.0
C564 C 0.54671 0.42987 0.98951 0.0
C565 C 0.59652 0.39192 0.97482 0.0
C566 C 0.51841 0.44678 0.98529 0.0
C567 C 0.47098 0.4222 0.98757 0.0
C568 C 0.45123 0.38052 0.99422 0.0
C569 C 0.47989 0.36407 -0.0015 0.0
C570 C 0.52701 0.38851 0.99621 0.0
H571 H 0.61804 0.38908 0.96735 0.0
H572 H 0.58836 0.36438 0.98179 0.0
H573 H 0.56387 0.38596 0.97057 0.0
H574 H 0.53303 0.47895 0.98021 0.0
H575 H 0.44989 0.43583 0.98416 0.0
H576 H 0.16489 0.78594 0.15181 0.0
H577 H 0.1337 0.70323 0.15263 0.0
H578 H 0.2583 0.72399 0.17003 0.0
H579 H 0.28974 0.80751 0.16942 0.0
H580 H 0.16226 0.64412 0.14339 0.0
H581 H 0.15852 0.64435 0.19562 0.0
H582 H 0.16876 0.69361 0.18642 0.0
H583 H 0.21376 0.68032 0.18858 0.0
C584 C 0.18601 0.77307 0.15568 0.0
C585 C 0.22963 0.8033 0.16067 0.0
C586 C 0.16809 0.72568 0.15612 0.0
C587 C 0.19323 0.70735 0.16161 0.0
C588 C 0.23793 0.73742 0.16597 0.0
H589 H 0.11017 0.42487 0.18026 0.0
H590 H 0.15136 0.50783 0.17733 0.0
C591 C 0.25605 0.78511 0.1655 0.0
C592 C 0.17117 0.65685 0.16329 0.0
H593 H 0.13086 0.57283 0.18566 0.0
C594 C 0.15557 0.6285 0.15263 0.0
C595 C 0.16215 0.63651 0.17536 0.0
C596 C 0.17626 0.66511 0.18718 0.0
C597 C 0.13143 0.5804 0.1537 0.0
C598 C 0.12188 0.5601 0.16577 0.0
C599 C 0.13803 0.58844 0.17642 0.0
C600 C 0.0959 0.50951 0.16759 0.0
C601 C 0.11692 0.55175 0.1419 0.0
C602 C 0.05049 0.48278 0.16332 0.0
C603 C 0.02663 0.43504 0.16499 0.0
C604 C 0.04773 0.41322 0.171 0.0
C605 C 0.0928 0.44036 0.17554 0.0
C606 C 0.11652 0.48791 0.17387 0.0
H607 H 0.13683 0.57185 0.13359 0.0
H608 H 0.12129 0.52132 0.1429 0.0
H609 H 0.08011 0.53944 0.14008 0.0
H610 H 0.03348 0.49884 0.15871 0.0
H611 H 0.9919 0.41529 0.16146 0.0
H612 H 0.87824 0.35947 0.47409 0.0
H613 H 0.83516 0.3985 0.47808 0.0
H614 H 0.92812 0.47557 0.50806 0.0
H615 H 0.97131 0.43568 0.50429 0.0
H616 H 0.83547 0.43698 0.51463 0.0
H617 H 0.87047 0.52937 0.46926 0.0
H618 H 0.84775 0.46879 0.46745 0.0
H619 H 0.9031 0.50341 0.4746 0.0
C620 C 0.88997 0.38501 0.48147 0.0
C621 C 0.9284 0.39455 0.48885 0.0
C622 C 0.86531 0.40747 0.48369 0.0
C623 C 0.87875 0.44037 0.49324 0.0
C624 C 0.91732 0.45039 0.50059 0.0
H625 H 0.78611 0.62101 0.51916 0.0
H626 H 0.81812 0.57027 0.51758 0.0
C627 C 0.94209 0.42778 0.49838 0.0
C628 C 0.85143 0.46304 0.49573 0.0
H629 H 0.8116 0.52788 0.48194 0.0
C630 C 0.83041 0.45706 0.50751 0.0
C631 C 0.84464 0.48896 0.4864 0.0
C632 C 0.86802 0.49844 0.47376 0.0
C633 C 0.80237 0.47594 0.51017 0.0
C634 C 0.79552 0.50172 0.50082 0.0
C635 C 0.81636 0.5075 0.48903 0.0
C636 C 0.77039 0.52657 0.50334 0.0
C637 C 0.77995 0.46784 0.5229 0.0
C638 C 0.73225 0.51831 0.49603 0.0
C639 C 0.71361 0.54726 0.49697 0.0
C640 C 0.73352 0.58528 0.50508 0.0
C641 C 0.77004 0.59187 0.51286 0.0
C642 C 0.78826 0.56277 0.512 0.0
H643 H 0.77779 0.43738 0.52761 0.0
H644 H 0.80068 0.4982 0.52894 0.0
H645 H 0.74488 0.46296 0.52214 0.0
H646 H 0.71821 0.49071 0.48921 0.0
H647 H 0.68585 0.54178 0.49076 0.0
H648 H 0.20836 0.75301 0.66456 0.0
H649 H 0.29225 0.78891 0.66376 0.0
H650 H 0.3059 0.91253 0.67997 0.0
H651 H 0.22237 0.87715 0.68073 0.0
H652 H 0.34541 0.87583 0.64949 0.0
H653 H 0.4019 0.88956 0.69916 0.0
H654 H 0.34505 0.84708 0.69401 0.0
H655 H 0.35949 0.90578 0.6959 0.0
C656 C 0.22924 0.78731 0.66831 0.0
C657 C 0.20885 0.81231 0.6727 0.0
C658 C 0.27712 0.80784 0.66779 0.0
C659 C 0.3052 0.85328 0.67186 0.0
C660 C 0.28486 0.87727 0.67693 0.0
H661 H 0.59994 0.048 0.66896 0.0
H662 H 0.51696 0.01087 0.67258 0.0
C663 C 0.23713 0.85703 0.67732 0.0
C664 C 0.3553 0.87753 0.66948 0.0
H665 H 0.45986 0.92915 0.68393 0.0
C666 C 0.37051 0.88722 0.657 0.0
C667 C 0.38778 0.89312 0.67932 0.0
C668 C 0.37299 0.88322 0.69287 0.0
C669 C 0.41743 0.91246 0.65407 0.0
C670 C 0.45014 0.92726 0.66389 0.0
C671 C 0.43484 0.91782 0.6764 0.0
C672 C 0.50027 0.95092 0.66133 0.0
C673 C 0.43136 0.92394 0.64049 0.0
C674 C 0.5185 0.92964 0.65382 0.0
C675 C 0.56564 0.95089 0.65164 0.0
C676 C 0.59591 0.99369 0.65708 0.0
C677 C 0.57763 0.01517 0.66457 0.0
C678 C 0.53023 0.99389 0.6667 0.0
H679 H 0.40353 0.92373 0.63484 0.0
H680 H 0.46273 0.95812 0.63954 0.0
H681 H 0.43848 0.89772 0.63647 0.0
H682 H 0.49631 0.89601 0.64983 0.0
H683 H 0.57839 0.93305 0.64591 0.0
H684 H 0.68214 0.52038 0.82589 0.0
H685 H 0.63304 0.43791 0.82861 0.0
H686 H 0.52297 0.45822 0.84145 0.0
H687 H 0.57201 0.54144 0.83861 0.0
H688 H 0.58954 0.38779 0.85028 0.0
H689 H 0.46388 0.36366 0.81299 0.0
H690 H 0.51889 0.41547 0.81435 0.0
H691 H 0.47283 0.4056 0.82477 0.0
C692 C 0.64746 0.50751 0.82927 0.0
C693 C 0.6309 0.53759 0.83194 0.0
C694 C 0.61948 0.46025 0.83085 0.0
C695 C 0.57423 0.44184 0.83509 0.0
C696 C 0.55759 0.47167 0.83795 0.0
H697 H 0.35522 0.16078 0.84464 0.0
H698 H 0.40395 0.24398 0.84497 0.0
C699 C 0.58567 0.5192 0.83637 0.0
C700 C 0.54486 0.39136 0.83644 0.0
H701 H 0.44905 0.29829 0.82475 0.0
C702 C 0.55875 0.36817 0.84473 0.0
C703 C 0.50485 0.36587 0.82914 0.0
C704 C 0.48926 0.38871 0.81973 0.0
C705 C 0.53344 0.32017 0.84599 0.0
C706 C 0.49366 0.29465 0.83861 0.0
C707 C 0.47961 0.31791 0.83039 0.0
C708 C 0.46556 0.24382 0.8393 0.0
C709 C 0.54909 0.2973 0.85537 0.0
C710 C 0.48409 0.21584 0.8361 0.0
C711 C 0.45621 0.16791 0.83595 0.0
C712 C 0.40927 0.14729 0.83887 0.0
C713 C 0.39119 0.17547 0.84229 0.0
C714 C 0.41899 0.22313 0.84248 0.0
H715 H 0.57259 0.32203 0.86249 0.0
H716 H 0.51936 0.26883 0.86029 0.0
H717 H 0.56786 0.28277 0.85037 0.0
H718 H 0.51977 0.23108 0.83338 0.0
H719 H 0.47106 0.14716 0.8332 0.0
H720 H 0.18249 0.3595 0.01184 0.0
H721 H 0.1517 0.41104 0.01332 0.0
H722 H 0.28085 0.52344 0.00051 0.0
H723 H 0.31193 0.47127 -0.00131 0.0
H724 H 0.17578 0.48979 0.02634 0.0
H725 H 0.19036 0.52214 0.97489 0.0
H726 H 0.19853 0.47799 0.9819 0.0
H727 H 0.24333 0.53705 0.98268 0.0
C728 C 0.20465 0.39526 0.0094 0.0
C729 C 0.24955 0.41118 0.00499 0.0
C730 C 0.18693 0.42474 0.0103 0.0
C731 C 0.21357 0.47089 0.0068 0.0
C732 C 0.25933 0.48767 0.00301 0.0
H733 H 0.13941 0.68162 -0.00109 0.0
H734 H 0.17908 0.63816 0.00068 0.0
C735 C 0.27721 0.45798 0.00209 0.0
C736 C 0.19211 0.5002 0.00663 0.0
H737 H 0.15995 0.55928 0.98698 0.0
C738 C 0.17248 0.50517 0.01775 0.0
C739 C 0.18738 0.51982 0.99538 0.0
C740 C 0.20561 0.51377 0.983 0.0
C741 C 0.14851 0.52941 0.01794 0.0
C742 C 0.1436 0.54873 0.00668 0.0
C743 C 0.16367 0.54427 0.9956 0.0
C744 C 0.11883 0.57482 0.00618 0.0
C745 C 0.12909 0.53463 0.0302 0.0
C746 C 0.0715 0.55356 0.00866 0.0
C747 C 0.0484 0.57843 0.00763 0.0
C748 C 0.07233 0.6249 0.00407 0.0
C749 C 0.11975 0.64591 0.00167 0.0
C750 C 0.14263 0.62113 0.00267 0.0
H751 H 0.14438 0.52676 0.03839 0.0
H752 H 0.13502 0.57003 0.03123 0.0
H753 H 0.0915 0.51057 0.03034 0.0
H754 H 0.05231 0.51759 0.01119 0.0
H755 H 0.01189 0.56124 0.00952 0.0
H756 H 0.8029 0.14616 0.18769 0.0
H757 H 0.7201 0.11565 0.18815 0.0
H758 H 0.7396 0.24351 0.17344 0.0
H759 H 0.82291 0.27434 0.17285 0.0
H760 H 0.65953 0.14469 0.19866 0.0
H761 H 0.66296 0.14533 0.14641 0.0
H762 H 0.71113 0.15333 0.15574 0.0
H763 H 0.69945 0.19953 0.15391 0.0
C764 C 0.7897 0.16821 0.18481 0.0
C765 C 0.81935 0.21248 0.18011 0.0
C766 C 0.74235 0.15071 0.1851 0.0
C767 C 0.72371 0.17699 0.18062 0.0
C768 C 0.75337 0.22247 0.17679 0.0
H769 H 0.44631 0.09928 0.15927 0.0
H770 H 0.5282 0.13907 0.16368 0.0
C771 C 0.80094 0.24018 0.17655 0.0
C772 C 0.67338 0.15499 0.17884 0.0
H773 H 0.59105 0.11708 0.15608 0.0
C774 C 0.64444 0.13883 0.18937 0.0
C775 C 0.65389 0.14696 0.16669 0.0
C776 C 0.68329 0.16179 0.155 0.0
C777 C 0.5964 0.11541 0.18808 0.0
C778 C 0.57693 0.10709 0.17591 0.0
C779 C 0.60599 0.12343 0.1654 0.0
C780 C 0.52654 0.08251 0.17377 0.0
C781 C 0.56702 0.10056 0.19975 0.0
C782 C 0.49818 0.03712 0.17788 0.0
C783 C 0.45092 0.01409 0.17541 0.0
C784 C 0.43137 0.03597 0.16866 0.0
C785 C 0.46007 0.08125 0.16448 0.0
C786 C 0.50702 0.10419 0.167 0.0
H787 H 0.58672 0.11995 0.20815 0.0
H788 H 0.53688 0.10534 0.19865 0.0
H789 H 0.55429 0.0636 0.20146 0.0
H790 H 0.51263 0.01928 0.18287 0.0
H791 H 0.42982 0.97921 0.17873 0.0
H792 H 0.43496 0.44619 0.34095 0.0
H793 H 0.48246 0.52902 0.34488 0.0
H794 H 0.37999 0.55141 0.32733 0.0
H795 H 0.33258 0.46936 0.32338 0.0
H796 H 0.5157 0.60019 0.32594 0.0
H797 H 0.40571 0.62062 0.36121 0.0
H798 H 0.40046 0.56571 0.35762 0.0
H799 H 0.37623 0.59008 0.34726 0.0
C800 C 0.42248 0.46876 0.338 0.0
C801 C 0.37998 0.45112 0.33185 0.0
C802 C 0.4496 0.51601 0.34025 0.0
C803 C 0.43438 0.54622 0.33656 0.0
C804 C 0.39198 0.52864 0.33047 0.0
H805 H 0.54333 0.84098 0.33407 0.0
H806 H 0.49438 0.75702 0.33374 0.0
C807 C 0.36507 0.48165 0.32815 0.0
C808 C 0.46361 0.59646 0.3384 0.0
H809 H 0.46631 0.68925 0.35236 0.0
C810 C 0.5052 0.61966 0.33181 0.0
C811 C 0.4495 0.62174 0.34596 0.0
C812 C 0.40572 0.59833 0.35351 0.0
C813 C 0.53259 0.66766 0.33233 0.0
C814 C 0.5185 0.69307 0.3399 0.0
C815 C 0.47703 0.66978 0.34656 0.0
C816 C 0.54667 0.74379 0.34102 0.0
C817 C 0.57563 0.69082 0.32445 0.0
C818 C 0.59166 0.76415 0.34561 0.0
C819 C 0.6196 0.81182 0.34574 0.0
C820 C 0.60297 0.84027 0.34144 0.0
C821 C 0.55711 0.81997 0.33744 0.0
C822 C 0.52917 0.77205 0.33723 0.0
H823 H 0.57478 0.66832 0.31669 0.0
H824 H 0.58065 0.72335 0.32036 0.0
H825 H 0.60571 0.69898 0.33045 0.0
H826 H 0.6055 0.74309 0.3489 0.0
H827 H 0.65459 0.82635 0.34904 0.0
H828 H 0.64541 0.64326 0.43864 0.0
H829 H 0.59368 0.58737 0.42317 0.0
H830 H 0.59324 0.47809 0.44453 0.0
H831 H 0.64224 0.53398 0.46043 0.0
H832 H 0.59875 0.53291 0.40787 0.0
H833 H 0.46005 0.42464 0.44114 0.0
H834 H 0.50872 0.47853 0.44576 0.0
H835 H 0.51276 0.42709 0.44529 0.0
C836 C 0.63409 0.60723 0.43995 0.0
C837 C 0.64725 0.59255 0.45067 0.0
C838 C 0.60458 0.57529 0.43115 0.0
C839 C 0.58846 0.52817 0.4328 0.0
C840 C 0.60357 0.51387 0.44326 0.0
H841 H 0.45876 0.34218 0.36902 0.0
H842 H 0.51307 0.39095 0.38525 0.0
C843 C 0.63194 0.54572 0.45225 0.0
C844 C 0.55619 0.49439 0.4235 0.0
H845 H 0.45412 0.39427 0.42062 0.0
C846 C 0.56697 0.50275 0.41067 0.0
C847 C 0.51424 0.45532 0.42709 0.0
C848 C 0.49802 0.44613 0.44055 0.0
C849 C 0.53708 0.47357 0.40137 0.0
C850 C 0.49627 0.43326 0.40498 0.0
C851 C 0.48561 0.42475 0.41781 0.0
C852 C 0.46309 0.40057 0.39565 0.0
C853 C 0.54893 0.48755 0.38779 0.0
C854 C 0.4163 0.38712 0.3965 0.0
C855 C 0.38511 0.35771 0.38754 0.0
C856 C 0.40028 0.34198 0.37746 0.0
C857 C 0.44667 0.35444 0.37671 0.0
C858 C 0.47766 0.3827 0.38588 0.0
H859 H 0.5721 0.52521 0.38686 0.0
H860 H 0.56715 0.47058 0.38383 0.0
H861 H 0.5177 0.47759 0.38211 0.0
H862 H 0.40402 0.40018 0.40394 0.0
H863 H 0.34944 0.34863 0.38819 0.0
H864 H 0.01249 0.35604 0.55566 0.0
H865 H 0.0221 0.40924 0.57259 0.0
H866 H 0.07521 0.52106 0.5461 0.0
H867 H 0.06603 0.46827 0.52914 0.0
H868 H 0.10174 0.48648 0.58077 0.0
H869 H 0.97406 0.53275 0.56412 0.0
H870 H 0.97662 0.48393 0.55809 0.0
H871 H 0.01625 0.54075 0.55254 0.0
C872 C 0.02641 0.39196 0.55343 0.0
C873 C 0.03828 0.40778 0.541 0.0
C874 C 0.03167 0.42228 0.56311 0.0
C875 C 0.04868 0.46894 0.56057 0.0
C876 C 0.06099 0.48497 0.54822 0.0
H877 H 0.1663 0.69748 0.61248 0.0
H878 H 0.15198 0.64055 0.59623 0.0
C879 C 0.05569 0.4547 0.53853 0.0
C880 C 0.05476 0.5011 0.57089 0.0
H881 H 0.02338 0.5781 0.5807 0.0
C882 C 0.08446 0.50637 0.5808 0.0
C883 C 0.03167 0.52651 0.57098 0.0
C884 C 0.99751 0.52048 0.56093 0.0
C885 C 0.09255 0.53722 0.59066 0.0
C886 C 0.07088 0.56397 0.59048 0.0
C887 C 0.04032 0.55789 0.58074 0.0
C888 C 0.07954 0.59856 0.60032 0.0
C889 C 0.12382 0.54054 0.60125 0.0
C890 C 0.04335 0.59447 0.6078 0.0
C891 C 0.05132 0.62726 0.61701 0.0
C892 C 0.09566 0.66499 0.61887 0.0
C893 C 0.13173 0.66914 0.61125 0.0
C894 C 0.12371 0.63632 0.60205 0.0
H895 H 0.12775 0.50971 0.60171 0.0
H896 H 0.15832 0.57091 0.59972 0.0
H897 H 0.11065 0.54474 0.61042 0.0
H898 H 0.00891 0.56577 0.60654 0.0
H899 H 0.02259 0.6233 0.62254 0.0
H900 H 0.71919 0.13406 0.72257 0.0
H901 H 0.66328 0.1212 0.73902 0.0
H902 H 0.55382 0.05976 0.71188 0.0
H903 H 0.60947 0.07252 0.69538 0.0
H904 H 0.60152 0.15308 0.74071 0.0
H905 H 0.51004 0.96256 0.73943 0.0
H906 H 0.56499 0.99755 0.73196 0.0
H907 H 0.51338 0.98905 0.72454 0.0
C908 C 0.68328 0.11805 0.72008 0.0
C909 C 0.66881 0.10407 0.70766 0.0
C910 C 0.65135 0.11055 0.7295 0.0
C911 C 0.60436 0.08884 0.72671 0.0
C912 C 0.58982 0.07555 0.7143 0.0
H913 H 0.36181 0.01495 0.77191 0.0
H914 H 0.41584 0.03017 0.75471 0.0
C915 C 0.6217 0.08289 0.70487 0.0
C916 C 0.57072 0.08086 0.73676 0.0
H917 H 0.47759 0.9967 0.75221 0.0
C918 C 0.5745 0.1189 0.74326 0.0
C919 C 0.53544 0.03621 0.74003 0.0
C920 C 0.53081 0.99393 0.73371 0.0
C921 C 0.54363 0.11354 0.75287 0.0
C922 C 0.50854 0.0689 0.75617 0.0
C923 C 0.50453 0.03088 0.74962 0.0
C924 C 0.47608 0.06082 0.76656 0.0
C925 C 0.54838 0.15571 0.75927 0.0
C926 C 0.49207 0.07268 0.77892 0.0
C927 C 0.46134 0.06422 0.78875 0.0
C928 C 0.41396 0.04351 0.78642 0.0
C929 C 0.39808 0.03153 0.77401 0.0
C930 C 0.42886 0.03992 0.76418 0.0
H931 H 0.56899 0.18715 0.75357 0.0
H932 H 0.51421 0.152 0.76112 0.0
H933 H 0.56601 0.16046 0.76841 0.0
H934 H 0.52834 0.08817 0.78097 0.0
H935 H 0.4748 0.07426 0.79816 0.0
H936 H 0.59917 0.70122 0.88568 0.0
H937 H 0.54448 0.65442 0.90198 0.0
H938 H 0.50456 0.53273 0.87992 0.0
H939 H 0.56034 0.57838 0.86396 0.0
H940 H 0.45046 0.59585 0.90165 0.0
H941 H 0.54048 0.5004 0.91302 0.0
H942 H 0.56611 0.55144 0.90343 0.0
H943 H 0.52567 0.4968 0.89672 0.0
C944 C 0.57911 0.66449 0.88432 0.0
C945 C 0.58477 0.64377 0.87349 0.0
C946 C 0.54758 0.63784 0.89361 0.0
C947 C 0.52117 0.59004 0.89226 0.0
C948 C 0.52536 0.56947 0.88128 0.0
H949 H 0.31258 0.3634 0.93487 0.0
H950 H 0.36037 0.4162 0.91827 0.0
C951 C 0.55702 0.59591 0.87205 0.0
C952 C 0.48974 0.56134 0.90239 0.0
H953 H 0.4657 0.47107 0.92169 0.0
C954 C 0.45393 0.56878 0.9061 0.0
C955 C 0.49461 0.52626 0.90824 0.0
C956 C 0.53406 0.51849 0.90525 0.0
C957 C 0.4221 0.54113 0.91529 0.0
C958 C 0.42637 0.50538 0.92084 0.0
C959 C 0.4624 0.4983 0.91726 0.0
C960 C 0.39423 0.47509 0.93055 0.0
C961 C 0.38366 0.5496 0.91891 0.0
C962 C 0.39744 0.49105 0.94287 0.0
C963 C 0.37043 0.46098 0.95236 0.0
C964 C 0.33971 0.41453 0.94965 0.0
C965 C 0.33557 0.39907 0.9372 0.0
C966 C 0.36291 0.42908 0.92774 0.0
H967 H 0.38189 0.57512 0.91268 0.0
H968 H 0.35028 0.51699 0.91857 0.0
H969 H 0.38888 0.56254 0.92871 0.0
H970 H 0.42177 0.52643 0.9452 0.0
H971 H 0.37395 0.4739 0.96184 0.0
H972 H 0.83686 0.28636 0.11709 0.0
H973 H 0.83893 0.33707 0.10045 0.0
H974 H 0.97471 0.44024 0.11204 0.0
H975 H 0.97391 0.389 0.12835 0.0
H976 H 0.84768 0.42173 0.10167 0.0
H977 H 0.99275 0.42969 0.0748 0.0
H978 H 0.96379 0.3885 0.08717 0.0
H979 H 0.00629 0.44668 0.09092 0.0
C980 C 0.8675 0.31951 0.11603 0.0
C981 C 0.9054 0.33318 0.12405 0.0
C982 C 0.86844 0.34867 0.10656 0.0
C983 C 0.90725 0.39215 0.10486 0.0
C984 C 0.94475 0.40644 0.113 0.0
H985 H 0.91834 0.61583 0.06115 0.0
H986 H 0.91387 0.56418 0.07791 0.0
C987 C 0.94397 0.37721 0.12245 0.0
C988 C 0.90811 0.42256 0.09465 0.0
H989 H 0.96706 0.48066 0.06844 0.0
C990 C 0.87372 0.43455 0.09438 0.0
C991 C 0.9417 0.43869 0.08504 0.0
C992 C 0.97797 0.42492 0.08438 0.0
C993 C 0.87232 0.46269 0.08487 0.0
C994 C 0.90681 0.48007 0.0755 0.0
C995 C 0.94087 0.46763 0.07568 0.0
C996 C 0.90809 0.51092 0.06536 0.0
C997 C 0.83337 0.47273 0.08479 0.0
C998 C 0.90721 0.4986 0.05273 0.0
C999 C 0.91003 0.52821 0.04313 0.0
C1000 C 0.91387 0.57081 0.04597 0.0
C1001 C 0.91453 0.58295 0.05864 0.0
C1002 C 0.91195 0.55342 0.06824 0.0
H1003 H 0.80351 0.44691 0.0903 0.0
H1004 H 0.84516 0.50686 0.0891 0.0
H1005 H 0.82186 0.47336 0.07507 0.0
H1006 H 0.90432 0.466 0.05029 0.0
H1007 H 0.90901 0.51764 0.03348 0.0
H1008 H 0.53061 0.90406 0.30293 0.0
H1009 H 0.4719 0.88845 0.28713 0.0
H1010 H 0.57735 0.95694 0.25913 0.0
H1011 H 0.63618 0.97252 0.27486 0.0
H1012 H 0.46064 0.95086 0.27357 0.0
H1013 H 0.48937 0.83805 0.24148 0.0
H1014 H 0.51288 0.85153 0.25715 0.0
H1015 H 0.54075 0.89153 0.24451 0.0
C1016 C 0.5413 0.91575 0.29341 0.0
C1017 C 0.58807 0.93953 0.29014 0.0
C1018 C 0.5077 0.90659 0.28438 0.0
C1019 C 0.52021 0.92089 0.27192 0.0
C1020 C 0.56685 0.94452 0.26862 0.0
H1021 H 0.39751 0.95109 0.2054 0.0
H1022 H 0.44635 0.94979 0.22204 0.0
C1023 C 0.60046 0.95349 0.27762 0.0
C1024 C 0.48473 0.91349 0.26253 0.0
H1025 H 0.44446 0.86937 0.2334 0.0
C1026 C 0.45663 0.93251 0.26486 0.0
C1027 C 0.47955 0.88942 0.2512 0.0
C1028 C 0.50693 0.86606 0.24847 0.0
C1029 C 0.42472 0.92969 0.25593 0.0
C1030 C 0.42061 0.90688 0.24445 0.0
C1031 C 0.44787 0.88691 0.24223 0.0
C1032 C 0.39016 0.90581 0.23431 0.0
C1033 C 0.39687 0.95258 0.2586 0.0
C1034 C 0.34229 0.881 0.23568 0.0
C1035 C 0.31403 0.88126 0.22609 0.0
C1036 C 0.33324 0.90627 0.21499 0.0
C1037 C 0.38133 0.93073 0.21368 0.0
C1038 C 0.40943 0.9303 0.22322 0.0
H1039 H 0.40939 0.975 0.26703 0.0
H1040 H 0.3978 0.97352 0.25044 0.0
H1041 H 0.36056 0.9259 0.26024 0.0
H1042 H 0.32685 0.86144 0.24414 0.0
H1043 H 0.27721 0.86163 0.22735 0.0
H1044 H 0.17722 0.0158 0.20067 0.0
H1045 H 0.16011 0.05621 0.217 0.0
H1046 H 0.29087 0.17796 0.21034 0.0
H1047 H 0.30758 0.13825 0.1938 0.0
H1048 H 0.2117 0.08635 0.23794 0.0
H1049 H 0.20919 0.2327 0.21555 0.0
H1050 H 0.20259 0.18397 0.20668 0.0
H1051 H 0.25891 0.2301 0.21077 0.0
C1052 C 0.20156 0.05171 0.20236 0.0
C1053 C 0.24384 0.07387 0.19597 0.0
C1054 C 0.19181 0.07466 0.21174 0.0
C1055 C 0.22395 0.12023 0.21481 0.0
C1056 C 0.26506 0.14315 0.20796 0.0
H1057 H 0.34488 0.30545 0.27137 0.0
H1058 H 0.31248 0.26054 0.2525 0.0
C1059 C 0.27484 0.12026 0.1986 0.0
C1060 C 0.21832 0.14169 0.22632 0.0
H1061 H 0.23367 0.24343 0.2375 0.0
C1062 C 0.21505 0.12012 0.23787 0.0
C1063 C 0.22245 0.1856 0.22619 0.0
C1064 C 0.22297 0.20917 0.2141 0.0
C1065 C 0.22015 0.14305 0.24928 0.0
C1066 C 0.22815 0.18846 0.24909 0.0
C1067 C 0.22774 0.20864 0.23759 0.0
C1068 C 0.24483 0.21796 0.26037 0.0
C1069 C 0.22071 0.11999 0.26137 0.0
C1070 C 0.21722 0.20936 0.27105 0.0
C1071 C 0.23572 0.23542 0.28198 0.0
C1072 C 0.28206 0.27046 0.28236 0.0
C1073 C 0.30897 0.27947 0.27147 0.0
C1074 C 0.29052 0.25364 0.26062 0.0
H1075 H 0.21845 0.08631 0.25975 0.0
H1076 H 0.25261 0.14233 0.26671 0.0
H1077 H 0.19117 0.11428 0.2673 0.0
H1078 H 0.18168 0.18215 0.27099 0.0
H1079 H 0.21387 0.22798 0.29013 0.0
H1080 H 0.14752 0.19064 0.36037 0.0
H1081 H 0.09362 0.16887 0.37793 0.0
H1082 H 0.08285 0.28971 0.37178 0.0
H1083 H 0.137 0.31185 0.35423 0.0
H1084 H 0.12278 0.23609 0.3982 0.0
H1085 H 0.94841 0.18466 0.38078 0.0
H1086 H 0.99033 0.17906 0.37146 0.0
H1087 H 0.99434 0.23404 0.37317 0.0
C1088 C 0.13226 0.21161 0.36244 0.0
C1089 C 0.14638 0.25297 0.35594 0.0
C1090 C 0.10159 0.19917 0.37249 0.0
C1091 C 0.08399 0.22745 0.37606 0.0
C1092 C 0.09546 0.26702 0.36902 0.0
H1093 H 0.98915 0.323 0.43313 0.0
H1094 H 0.99997 0.28988 0.41408 0.0
C1095 C 0.12657 0.27979 0.35907 0.0
C1096 C 0.06105 0.22083 0.38835 0.0
H1097 H 0.96487 0.21046 0.40214 0.0
C1098 C 0.08786 0.22939 0.39915 0.0
C1099 C 0.01565 0.21221 0.38946 0.0
C1100 C 0.98524 0.20156 0.37811 0.0
C1101 C 0.07192 0.23347 0.41098 0.0
C1102 C 0.0271 0.2271 0.41207 0.0
C1103 C 0.99912 0.21524 0.40133 0.0
C1104 C 0.01192 0.24014 0.42368 0.0
C1105 C 0.10477 0.24839 0.42194 0.0
C1106 C 0.01262 0.22173 0.43547 0.0
C1107 C 0.00781 0.24173 0.44649 0.0
C1108 C 1.00135 0.27988 0.44585 0.0
C1109 C 0.99577 0.2948 0.43399 0.0
C1110 C 1.00134 0.27542 0.42305 0.0
H1111 H 0.14061 0.26041 0.41891 0.0
H1112 H 0.10433 0.27659 0.42724 0.0
H1113 H 0.09437 0.21897 0.4284 0.0
H1114 H 0.01923 0.19347 0.43618 0.0
H1115 H 0.01177 0.22897 0.45544 0.0
H1116 H 0.78595 0.12361 0.61665 0.0
H1117 H 0.79177 0.13324 0.59386 0.0
H1118 H 0.7231 0.98611 0.58919 0.0
H1119 H 0.71973 0.97687 0.61207 0.0
H1120 H 0.79115 0.02106 0.57459 0.0
H1121 H 0.70486 0.12112 0.5675 0.0
H1122 H 0.74974 0.15063 0.57873 0.0
H1123 H 0.70241 0.09419 0.58234 0.0
C1124 C 0.77147 0.09343 0.61071 0.0
C1125 C 0.75233 0.04956 0.61604 0.0
C1126 C 0.77441 0.09883 0.59769 0.0
C1127 C 0.75685 0.06035 0.58972 0.0
C1128 C 0.73669 0.01634 0.59509 0.0
H1129 H 0.79963 0.15508 0.51181 0.0
H1130 H 0.75641 0.10614 0.52961 0.0
C1131 C 0.73477 0.01103 0.60813 0.0
C1132 C 0.76346 0.06654 0.5759 0.0
H1133 H 0.76313 0.13312 0.55186 0.0
C1134 C 0.78401 0.04479 0.56956 0.0
C1135 C 0.75281 0.09612 0.5691 0.0
C1136 C 0.72571 0.11629 0.57478 0.0
C1137 C 0.79751 0.0547 0.55695 0.0
C1138 C 0.79224 0.08882 0.55066 0.0
C1139 C 0.76826 0.10768 0.55668 0.0
C1140 C 0.81575 0.10947 0.53858 0.0
C1141 C 0.81782 0.02882 0.55061 0.0
C1142 C 0.86314 0.12636 0.53743 0.0
C1143 C 0.88745 0.15313 0.52714 0.0
C1144 C 0.86515 0.16468 0.51794 0.0
C1145 C 0.81746 0.14627 0.51875 0.0
C1146 C 0.79288 0.11856 0.52894 0.0
H1147 H 0.8013 0.99295 0.55412 0.0
H1148 H 0.81382 0.02803 0.54025 0.0
H1149 H 0.85487 0.0454 0.55292 0.0
H1150 H 0.88211 0.12152 0.54489 0.0
H1151 H 0.92437 0.16784 0.52691 0.0
H1152 H 0.74398 0.79084 0.79313 0.0
H1153 H 0.759 0.83525 0.77385 0.0
H1154 H 0.76757 0.72963 0.75315 0.0
H1155 H 0.75257 0.68484 0.7725 0.0
H1156 H 0.8282 0.86852 0.75449 0.0
H1157 H 0.65576 0.73311 0.73812 0.0
H1158 H 0.67434 0.73651 0.75416 0.0
H1159 H 0.69553 0.7143 0.74219 0.0
C1160 C 0.75052 0.77766 0.78458 0.0
C1161 C 0.74669 0.73411 0.78429 0.0
C1162 C 0.7589 0.80302 0.77355 0.0
C1163 C 0.76356 0.78526 0.76208 0.0
C1164 C 0.7633 0.74349 0.76191 0.0
H1165 H 0.80373 0.93714 0.69153 0.0
H1166 H 0.81253 0.89153 0.70807 0.0
C1167 C 0.75478 0.71803 0.77293 0.0
C1168 C 0.76366 0.80821 0.75026 0.0
H1169 H 0.69613 0.79748 0.72514 0.0
C1170 C 0.79971 0.85288 0.74796 0.0
C1171 C 0.726 0.78771 0.7419 0.0
C1172 C 0.68546 0.74042 0.7442 0.0
C1173 C 0.79864 0.87808 0.73759 0.0
C1174 C 0.76071 0.85773 0.72934 0.0
C1175 C 0.72524 0.81269 0.73148 0.0
C1176 C 0.75507 0.88394 0.71907 0.0
C1177 C 0.83698 0.9269 0.73586 0.0
C1178 C 0.71919 0.89366 0.71967 0.0
C1179 C 0.71408 0.91961 0.71028 0.0
C1180 C 0.74467 0.93613 0.70008 0.0
C1181 C 0.78 0.92539 0.69936 0.0
C1182 C 0.78511 0.89941 0.70878 0.0
H1183 H 0.85985 0.93987 0.74418 0.0
H1184 H 0.85798 0.92868 0.72761 0.0
H1185 H 0.82287 0.94992 0.73402 0.0
H1186 H 0.69568 0.88195 0.72756 0.0
H1187 H 0.68698 0.92785 0.71123 0.0
H1188 H 0.06927 0.76678 0.94964 0.0
H1189 H 0.05506 0.79001 0.92907 0.0
H1190 H 0.91347 0.73811 0.93949 0.0
H1191 H 0.92866 0.7175 0.96019 0.0
H1192 H 0.00504 0.73454 0.91236 0.0
H1193 H 0.9334 0.84728 0.92074 0.0
H1194 H 0.9622 0.83435 0.93298 0.0
H1195 H 0.9018 0.7966 0.93002 0.0
C1196 C 0.03567 0.7621 0.94761 0.0
C1197 C 1.00013 0.74087 0.95643 0.0
C1198 C 0.02746 0.77513 0.93589 0.0
C1199 C 0.98327 0.76632 0.93271 0.0
C1200 C 0.94822 0.7468 0.94178 0.0
H1201 H 0.83327 0.65337 0.86715 0.0
H1202 H 0.88493 0.67591 0.88504 0.0
C1203 C 0.95676 0.73477 0.95361 0.0
C1204 C 0.97199 0.77084 0.91949 0.0
H1205 H 0.90514 0.79891 0.90187 0.0
C1206 C 0.98417 0.74972 0.91004 0.0
C1207 C 0.94576 0.79156 0.91626 0.0
C1208 C 0.9356 0.81916 0.92555 0.0
C1209 C 0.96784 0.74558 0.89773 0.0
C1210 C 0.93704 0.76134 0.8949 0.0
C1211 C 0.92792 0.7858 0.90407 0.0
C1212 C 0.91027 0.7488 0.88305 0.0
C1213 C 0.98318 0.72353 0.88798 0.0
C1214 C 0.90677 0.7821 0.87598 0.0
C1215 C 0.87607 0.76909 0.86593 0.0
C1216 C 0.84831 0.72246 0.86273 0.0
C1217 C 0.8537 0.68949 0.86943 0.0
C1218 C 0.88388 0.70246 0.87957 0.0
H1219 H 0.01872 0.73106 0.8899 0.0
H1220 H 0.9605 0.68572 0.88837 0.0
H1221 H 0.98196 0.73556 0.87836 0.0
H1222 H 0.92655 0.81803 0.87854 0.0
H1223 H 0.8724 0.7954 0.86113 0.0
H1224 H 0.32279 0.03127 0.11422 0.0
H1225 H 0.2892 0.03274 0.09395 0.0
H1226 H 0.15513 0.93342 0.10793 0.0
H1227 H 0.18859 0.93378 0.12827 0.0
H1228 H 0.25524 0.96201 0.08002 0.0
H1229 H 0.11852 0.00424 0.08593 0.0
H1230 H 0.16133 0.01738 0.0979 0.0
H1231 H 0.1101 0.96159 0.0973 0.0
C1232 C 0.28594 0.01116 0.11303 0.0
C1233 C 0.25817 0.98227 0.1227 0.0
C1234 C 0.26675 0.01203 0.10149 0.0
C1235 C 0.21953 0.98343 0.09938 0.0
C1236 C 0.19139 0.95687 0.10937 0.0
H1237 H 0.04704 0.78892 0.05129 0.0
H1238 H 0.08708 0.84873 0.06701 0.0
C1239 C 0.21052 0.95674 0.12099 0.0
C1240 C 0.20128 0.97406 0.08636 0.0
H1241 H 0.10451 0.94609 0.06954 0.0
C1242 C 0.22313 0.96022 0.07757 0.0
C1243 C 0.15954 0.9719 0.08306 0.0
C1244 C 0.13643 0.99013 0.09154 0.0
C1245 C 0.20215 0.93996 0.06615 0.0
C1246 C 0.15823 0.93346 0.06346 0.0
C1247 C 0.13811 0.95088 0.07171 0.0
C1248 C 0.12965 0.90104 0.05356 0.0
C1249 C 0.22518 0.92188 0.05755 0.0
C1250 C 0.13974 0.91112 0.04077 0.0
C1251 C 0.11688 0.8768 0.03173 0.0
C1252 C 0.08421 0.83207 0.03545 0.0
C1253 C 0.07274 0.82292 0.04821 0.0
C1254 C 0.09517 0.85713 0.05718 0.0
H1255 H 0.25853 0.92797 0.06133 0.0
H1256 H 0.20246 0.88443 0.05607 0.0
H1257 H 0.23145 0.93891 0.04826 0.0
H1258 H 0.16633 0.94492 0.03784 0.0
H1259 H 0.12605 0.88463 0.02192 0.0
H1260 H 0.66475 0.71691 0.55481 0.0
H1261 H 0.70535 0.73972 0.57493 0.0
H1262 H 0.83 0.76513 0.5564 0.0
H1263 H 0.78982 0.74337 0.53634 0.0
H1264 H 0.73832 0.69191 0.58535 0.0
H1265 H 0.88091 0.86987 0.58069 0.0
H1266 H 0.83313 0.84527 0.5699 0.0
H1267 H 0.88107 0.83611 0.5677 0.0
C1268 C 0.70112 0.72863 0.55503 0.0
C1269 C 0.72415 0.72831 0.54406 0.0
C1270 C 0.72428 0.74173 0.56649 0.0
C1271 C 0.77084 0.75458 0.56717 0.0
C1272 C 0.79445 0.75665 0.55608 0.0
H1273 H 0.91449 0.68282 0.6174 0.0
H1274 H 0.86395 0.68923 0.60219 0.0
C1275 C 0.7714 0.74401 0.54461 0.0
C1276 C 0.79278 0.75849 0.57951 0.0
H1277 H 0.89326 0.8214 0.59542 0.0
C1278 C 0.77172 0.72078 0.58769 0.0
C1279 C 0.83601 0.79635 0.58269 0.0
C1280 C 0.85877 0.83935 0.57482 0.0
C1281 C 0.79419 0.71845 0.59848 0.0
C1282 C 0.83926 0.75427 0.60098 0.0
C1283 C 0.85897 0.79355 0.59335 0.0
C1284 C 0.86796 0.74958 0.61069 0.0
C1285 C 0.76994 0.67699 0.60689 0.0
C1286 C 0.88761 0.7819 0.62039 0.0
C1287 C 0.91662 0.7783 0.62912 0.0
C1288 C 0.92661 0.74249 0.62823 0.0
C1289 C 0.90667 0.71016 0.61852 0.0
C1290 C 0.87779 0.7138 0.60981 0.0
H1291 H 0.73208 0.66131 0.60624 0.0
H1292 H 0.77876 0.65076 0.60389 0.0
H1293 H 0.78039 0.68597 0.61685 0.0
H1294 H 0.88063 0.80992 0.62116 0.0
H1295 H 0.93131 0.80358 0.63655 0.0
H1296 H 0.18327 0.79019 0.81175 0.0
H1297 H 0.13748 0.749 0.79333 0.0
H1298 H 0.11483 0.86162 0.78529 0.0
H1299 H 0.16027 0.90283 0.80359 0.0
H1300 H 0.03853 0.77252 0.77922 0.0
H1301 H 0.20526 0.80272 0.75981 0.0
H1302 H 0.18631 0.77073 0.7742 0.0
H1303 H 0.20188 0.83015 0.774 0.0
C1304 C 0.16741 0.80555 0.80625 0.0
C1305 C 0.17583 0.84998 0.80904 0.0
C1306 C 0.1414 0.78205 0.79573 0.0
C1307 C 0.12372 0.80278 0.78782 0.0
C1308 C 0.12831 0.8451 0.79127 0.0
H1309 H 0.03988 0.81511 0.71429 0.0
H1310 H 0.05152 0.81546 0.73684 0.0
C1311 C 0.15415 0.86854 0.80179 0.0
C1312 C 0.10617 0.7841 0.77516 0.0
H1313 H 0.14271 0.77304 0.74614 0.0
C1314 C 0.06101 0.77189 0.77202 0.0
C1315 C 0.13569 0.78342 0.76578 0.0
C1316 C 0.18509 0.79771 0.76852 0.0
C1317 C 0.04496 0.76027 0.75964 0.0
C1318 C 0.0752 0.76182 0.75016 0.0
C1319 C 0.1196 0.77183 0.75343 0.0
C1320 C 0.06346 0.75799 0.73663 0.0
C1321 C 0.99601 0.74718 0.75679 0.0
C1322 C 0.06719 0.72611 0.72894 0.0
C1323 C 0.06077 0.72598 0.71596 0.0
C1324 C 0.05079 0.75794 0.71043 0.0
C1325 C 0.04664 0.78945 0.71822 0.0
C1326 C 0.05309 0.78958 0.73116 0.0
H1327 H 0.97375 0.73245 0.76519 0.0
H1328 H 0.99487 0.77833 0.75398 0.0
H1329 H 0.98176 0.72189 0.749 0.0
H1330 H 0.07564 0.70172 0.73297 0.0
H1331 H 0.06369 0.70093 0.71026 0.0
H1332 H 0.23662 0.00355 0.87166 0.0
H1333 H 0.20262 0.01534 0.89055 0.0
H1334 H 0.29897 0.99876 0.91343 0.0
H1335 H 0.33062 0.98344 0.89477 0.0
H1336 H 0.22018 0.9669 0.92553 0.0
H1337 H 0.27142 0.13967 0.9061 0.0
H1338 H 0.22944 0.09227 0.89705 0.0
H1339 H 0.28666 0.10136 0.89851 0.0
C1340 C 0.24979 1.0011 0.8807 0.0
C1341 C 0.28753 0.99403 0.88163 0.0
C1342 C 0.2306 0.00841 0.89152 0.0
C1343 C 0.24942 0.00974 0.90338 0.0
C1344 C 0.28426 0.99864 0.90438 0.0
H1345 H 0.318 0.14875 0.9712 0.0
H1346 H 0.29852 0.09244 0.95433 0.0
C1347 C 0.30281 0.99049 0.89364 0.0
C1348 C 0.23697 0.02728 0.91463 0.0
H1349 H 0.24508 0.12506 0.92675 0.0
C1350 C 0.22489 0.00121 0.92575 0.0
C1351 C 0.24335 0.07224 0.91494 0.0
C1352 C 0.25879 0.10324 0.90357 0.0
C1353 C 0.22126 0.0197 0.93723 0.0
C1354 C 0.22944 0.06508 0.93756 0.0
C1355 C 0.2386 0.09009 0.92638 0.0
C1356 C 0.23489 0.08986 0.94946 0.0
C1357 C 0.21034 0.99138 0.94903 0.0
C1358 C 0.20498 0.10612 0.95246 0.0
C1359 C 0.21586 0.13794 0.96215 0.0
C1360 C 0.25725 0.15457 0.9688 0.0
C1361 C 0.28587 0.13634 0.96622 0.0
C1362 C 0.27465 0.10405 0.95666 0.0
H1363 H 0.19483 0.95422 0.9469 0.0
H1364 H 0.24249 0.0025 0.95438 0.0
H1365 H 0.1865 0.99657 0.95511 0.0
H1366 H 0.17451 0.09602 0.94687 0.0
H1367 H 0.19354 0.15195 0.96384 0.0
H1368 H 0.22198 0.21263 0.03385 0.0
H1369 H 0.1727 0.17873 0.05232 0.0
H1370 H 0.25884 0.30144 0.07353 0.0
H1371 H 0.30722 0.33574 0.05534 0.0
H1372 H 0.22839 0.21478 0.08684 0.0
H1373 H 0.08809 0.2303 0.06368 0.0
H1374 H 0.1115 0.19942 0.0557 0.0
H1375 H 0.14611 0.26033 0.05775 0.0
C1376 C 0.23049 0.23233 0.04246 0.0
C1377 C 0.26846 0.27719 0.043 0.0
C1378 C 0.20246 0.21279 0.053 0.0
C1379 C 0.21213 0.2378 0.06422 0.0
C1380 C 0.25104 0.28152 0.06495 0.0
H1381 H 0.13296 0.29152 0.13287 0.0
H1382 H 0.17066 0.27699 0.11531 0.0
C1383 C 0.27882 0.30107 0.05448 0.0
C1384 C 0.18018 0.22124 0.07497 0.0
H1385 H 0.08238 0.21718 0.08528 0.0
C1386 C 0.19587 0.21414 0.08648 0.0
C1387 C 0.13776 0.22026 0.07442 0.0
C1388 C 0.11965 0.22811 0.06227 0.0
C1389 C 0.17149 0.20884 0.09763 0.0
C1390 C 0.13105 0.21174 0.09722 0.0
C1391 C 0.11359 0.21528 0.08557 0.0
C1392 C 0.10917 0.21667 0.10872 0.0
C1393 C 0.19004 0.20163 0.10977 0.0
C1394 C 0.06198 0.18805 0.11073 0.0
C1395 C 0.04018 0.19685 0.12061 0.0
C1396 C 0.06519 0.23457 0.12865 0.0
C1397 C 0.1127 0.26244 0.12679 0.0
C1398 C 0.13442 0.2537 0.11689 0.0
H1399 H 0.20976 0.18373 0.1081 0.0
H1400 H 0.21379 0.23549 0.11403 0.0
H1401 H 0.16208 0.18135 0.11657 0.0
H1402 H 0.04177 0.15969 0.10443 0.0
H1403 H 0.00341 0.17512 0.12163 0.0
H1404 H 0.96269 0.3138 0.21502 0.0
H1405 H 0.94673 0.30881 0.23759 0.0
H1406 H 0.97831 0.1999 0.24088 0.0
H1407 H 0.99399 0.20444 0.2185 0.0
H1408 H 0.87953 0.2338 0.24923 0.0
H1409 H 0.04541 0.27777 0.27097 0.0
H1410 H 0.04073 0.29088 0.25478 0.0
H1411 H 0.02945 0.23446 0.25915 0.0
C1412 C 0.96662 0.28907 0.22057 0.0
C1413 C 0.97963 0.25952 0.21491 0.0
C1414 C 0.95784 0.28652 0.23348 0.0
C1415 C 0.96222 0.25461 0.24097 0.0
C1416 C 0.97612 0.2258 0.23539 0.0
H1417 H 0.85386 0.09181 0.30473 0.0
H1418 H 0.9016 0.1381 0.2873 0.0
C1419 C 0.98494 0.22836 0.22252 0.0
C1420 C 0.94704 0.24721 0.25426 0.0
H1421 H 0.97751 0.23087 0.28357 0.0
C1422 C 0.90125 0.23429 0.25681 0.0
C1423 C 0.97544 0.2478 0.26414 0.0
C1424 C 0.02563 0.26396 0.26214 0.0
C1425 C 0.88217 0.21889 0.26876 0.0
C1426 C 0.90992 0.21712 0.27847 0.0
C1427 C 0.95635 0.23225 0.2761 0.0
C1428 C 0.88968 0.19468 0.29061 0.0
C1429 C 0.83168 0.20182 0.27067 0.0
C1430 C 0.86918 0.21231 0.29864 0.0
C1431 C 0.8419 0.18594 0.30867 0.0
C1432 C 0.8349 0.14164 0.31083 0.0
C1433 C 0.85883 0.12591 0.30342 0.0
C1434 C 0.886 0.15226 0.29339 0.0
H1435 H 0.81362 0.19864 0.26168 0.0
H1436 H 0.81477 0.16784 0.2754 0.0
H1437 H 0.82755 0.22623 0.27678 0.0
H1438 H 0.87226 0.24536 0.29674 0.0
H1439 H 0.82437 0.1992 0.31433 0.0
H1440 H 0.78711 0.99899 0.37317 0.0
H1441 H 0.82574 0.99494 0.39216 0.0
H1442 H 0.72808 0.01014 0.41493 0.0
H1443 H 0.69184 0.01784 0.39612 0.0
H1444 H 0.80805 0.04627 0.42669 0.0
H1445 H 0.76136 0.87239 0.40879 0.0
H1446 H 0.80203 0.91998 0.39954 0.0
H1447 H 0.74381 0.9082 0.40083 0.0
C1448 C 0.77478 0.00297 0.3822 0.0
C1449 C 0.73523 0.00701 0.38313 0.0
C1450 C 0.79663 1.00015 0.39307 0.0
C1451 C 0.77862 1.00029 0.40497 0.0
C1452 C 0.74223 0.00917 0.40586 0.0
H1453 H 0.69957 0.87168 0.47287 0.0
H1454 H 0.72683 0.9288 0.45602 0.0
C1455 C 0.72105 0.01289 0.39507 0.0
C1456 C 0.79237 0.98495 0.41639 0.0
H1457 H 0.78267 0.88823 0.42967 0.0
C1458 C 0.80349 0.01206 0.42729 0.0
C1459 C 0.78638 0.94021 0.41719 0.0
C1460 C 0.77244 0.90828 0.40602 0.0
C1461 C 0.80555 0.99448 0.43908 0.0
C1462 C 0.79667 0.94892 0.43991 0.0
C1463 C 0.7895 0.92325 0.42893 0.0
C1464 C 0.78752 0.92433 0.45201 0.0
C1465 C 0.81515 0.0239 0.4506 0.0
C1466 C 0.81313 0.90368 0.45548 0.0
C1467 C 0.79759 0.87105 0.46508 0.0
C1468 C 0.75582 0.85811 0.47123 0.0
C1469 C 0.73178 0.88097 0.46826 0.0
C1470 C 0.74758 0.91392 0.45874 0.0
H1471 H 0.83407 0.06102 0.44821 0.0
H1472 H 0.78212 0.01595 0.45503 0.0
H1473 H 0.83534 0.01685 0.45758 0.0
H1474 H 0.84363 0.91077 0.45026 0.0
H1475 H 0.81654 0.85357 0.46703 0.0
loop_
_geom_bond_atom_site_label_1
_geom_bond_atom_site_label_2
_geom_bond_distance
_geom_bond_site_symmetry_2
_ccdc_geom_bond_type
C0 C1 1.351 . S
C0 N3 1.368 . S
C0 H5 0.931 . S
C1 C0 1.351 . S
C1 N2 1.373 . S
C1 H29 0.930 . S
N2 C1 1.373 . S
N2 C4 1.340 . S
N3 C0 1.368 . S
N3 C4 1.321 . S
N3 Co6 2.135 . S
C4 N2 1.340 . S
C4 N3 1.321 . S
C4 H28 0.930 . S
H5 C0 0.931 . S
Co6 N3 2.135 . S
Co6 N9 2.121 . S
Co6 O14 2.055 . S
Co6 O17 2.039 . S
Co6 N20 2.140 . S
C7 O8 1.227 . S
C7 O17 1.265 . S
O8 C7 1.227 . S
N9 Co6 2.121 . S
N9 C11 1.375 . S
N9 C12 1.313 . S
C10 C11 1.338 . S
C10 N13 1.377 . S
C10 H30 0.930 . S
C11 N9 1.375 . S
C11 C10 1.338 . S
C11 H15 0.931 . S
C12 N9 1.313 . S
C12 N13 1.344 . S
C12 H16 0.930 . S
N13 C10 1.377 . S
N13 C12 1.344 . S
O14 Co6 2.055 . S
O14 C18 1.253 . S
H15 C11 0.931 . S
H16 C12 0.930 . S
O17 Co6 2.039 . S
O17 C7 1.265 . S
C18 O14 1.253 . S
C18 O19 1.227 . S
O19 C18 1.227 . S
N20 Co6 2.140 . S
N20 C23 1.346 . S
N20 C24 1.345 . S
C21 C22 1.387 . S
C21 C25 1.391 . S
C22 C21 1.387 . S
C22 C23 1.369 . S
C22 H31 0.929 . S
C23 N20 1.346 . S
C23 C22 1.369 . S
C23 H26 0.928 . S
C24 N20 1.345 . S
C24 C25 1.371 . S
C24 H27 0.931 . S
C25 C21 1.391 . S
C25 C24 1.371 . S
C25 H32 0.930 . S
H26 C23 0.928 . S
H27 C24 0.931 . S
H28 C4 0.930 . S
H29 C1 0.930 . S
H30 C10 0.930 . S
H31 C22 0.929 . S
H32 C25 0.930 . S
C33 C34 1.351 . S
C33 N36 1.368 . S
C33 H38 0.931 . S
C34 C33 1.351 . S
C34 N35 1.373 . S
C34 H62 0.930 . S
N35 C34 1.373 . S
N35 C37 1.340 . S
N36 C33 1.368 . S
N36 C37 1.321 . S
N36 Co39 2.135 . S
C37 N35 1.340 . S
C37 N36 1.321 . S
C37 H61 0.930 1_455 S
H38 C33 0.931 . S
Co39 N36 2.135 . S
Co39 N42 2.121 . S
Co39 O47 2.055 . S
Co39 O50 2.039 1_455 S
Co39 N53 2.140 1_455 S
C40 O41 1.227 . S
C40 O50 1.265 . S
O41 C40 1.227 . S
N42 Co39 2.121 . S
N42 C44 1.375 1_455 S
N42 C45 1.313 . S
C43 C44 1.338 . S
C43 N46 1.377 1_655 S
C43 H63 0.930 . S
C44 N42 1.375 1_655 S
C44 C43 1.338 . S
C44 H48 0.931 . S
C45 N42 1.313 . S
C45 N46 1.344 . S
C45 H49 0.930 . S
N46 C43 1.377 1_455 S
N46 C45 1.344 . S
O47 Co39 2.055 . S
O47 C51 1.253 . S
H48 C44 0.931 . S
H49 C45 0.930 . S
O50 Co39 2.039 1_655 S
O50 C40 1.265 . S
C51 O47 1.253 . S
C51 O52 1.227 . S
O52 C51 1.227 . S
N53 Co39 2.140 1_655 S
N53 C56 1.346 . S
N53 C57 1.345 . S
C54 C55 1.387 . S
C54 C58 1.391 . S
C55 C54 1.387 . S
C55 C56 1.369 . S
C55 H64 0.929 . S
C56 N53 1.346 . S
C56 C55 1.369 . S
C56 H59 0.928 . S
C57 N53 1.345 . S
C57 C58 1.371 . S
C57 H60 0.931 1_655 S
C58 C54 1.391 . S
C58 C57 1.371 . S
C58 H65 0.930 . S
H59 C56 0.928 . S
H60 C57 0.931 1_455 S
H61 C37 0.930 1_655 S
H62 C34 0.930 . S
H63 C43 0.930 . S
H64 C55 0.929 . S
H65 C58 0.930 . S
C66 C67 1.351 . S
C66 N69 1.368 . S
C66 H71 0.931 . S
C67 C66 1.351 . S
C67 N68 1.373 . S
C67 H95 0.930 . S
N68 C67 1.373 . S
N68 C70 1.340 . S
N69 C66 1.368 . S
N69 C70 1.321 . S
N69 Co72 2.135 . S
C70 N68 1.340 . S
C70 N69 1.321 . S
C70 H94 0.930 1_545 S
H71 C66 0.931 . S
Co72 N69 2.135 . S
Co72 N75 2.121 . S
Co72 O80 2.055 . S
Co72 O83 2.039 1_545 S
Co72 N86 2.140 1_545 S
C73 O74 1.227 . S
C73 O83 1.265 . S
O74 C73 1.227 . S
N75 Co72 2.121 . S
N75 C77 1.375 1_545 S
N75 C78 1.313 . S
C76 C77 1.338 . S
C76 N79 1.377 1_565 S
C76 H96 0.930 . S
C77 N75 1.375 1_565 S
C77 C76 1.338 . S
C77 H81 0.931 . S
C78 N75 1.313 . S
C78 N79 1.344 . S
C78 H82 0.930 . S
N79 C76 1.377 1_545 S
N79 C78 1.344 . S
O80 Co72 2.055 . S
O80 C84 1.253 . S
H81 C77 0.931 . S
H82 C78 0.930 . S
O83 Co72 2.039 1_565 S
O83 C73 1.265 . S
C84 O80 1.253 . S
C84 O85 1.227 . S
O85 C84 1.227 . S
N86 Co72 2.140 1_565 S
N86 C89 1.346 . S
N86 C90 1.345 . S
C87 C88 1.387 . S
C87 C91 1.391 . S
C88 C87 1.387 . S
C88 C89 1.369 . S
C88 H97 0.929 . S
C89 N86 1.346 . S
C89 C88 1.369 . S
C89 H92 0.928 . S
C90 N86 1.345 . S
C90 C91 1.371 . S
C90 H93 0.931 1_565 S
C91 C87 1.391 . S
C91 C90 1.371 . S
C91 H98 0.930 . S
H92 C89 0.928 . S
H93 C90 0.931 1_545 S
H94 C70 0.930 1_565 S
H95 C67 0.930 . S
H96 C76 0.930 . S
H97 C88 0.929 . S
H98 C91 0.930 . S
C99 C100 1.351 . S
C99 N102 1.368 . S
C99 H104 0.931 . S
C100 C99 1.351 . S
C100 N101 1.373 . S
C100 H128 0.930 . S
N101 C100 1.373 . S
N101 C103 1.340 . S
N102 C99 1.368 . S
N102 C103 1.321 . S
N102 Co105 2.135 . S
C103 N101 1.340 . S
C103 N102 1.321 . S
C103 H127 0.930 . S
H104 C99 0.931 . S
Co105 N102 2.135 . S
Co105 N108 2.121 . S
Co105 O113 2.055 . S
Co105 O116 2.039 . S
Co105 N119 2.140 . S
C106 O107 1.227 . S
C106 O116 1.265 . S
O107 C106 1.227 . S
N108 Co105 2.121 . S
N108 C110 1.375 . S
N108 C111 1.313 . S
C109 C110 1.338 . S
C109 N112 1.377 . S
C109 H129 0.930 . S
C110 N108 1.375 . S
C110 C109 1.338 . S
C110 H114 0.931 . S
C111 N108 1.313 . S
C111 N112 1.344 . S
C111 H115 0.930 . S
N112 C109 1.377 . S
N112 C111 1.344 . S
O113 Co105 2.055 . S
O113 C117 1.253 . S
H114 C110 0.931 . S
H115 C111 0.930 . S
O116 Co105 2.039 . S
O116 C106 1.265 . S
C117 O113 1.253 . S
C117 O118 1.227 . S
O118 C117 1.227 . S
N119 Co105 2.140 . S
N119 C122 1.346 . S
N119 C123 1.345 . S
C120 C121 1.387 . S
C120 C124 1.391 . S
C121 C120 1.387 . S
C121 C122 1.369 . S
C121 H130 0.929 . S
C122 N119 1.346 . S
C122 C121 1.369 . S
C122 H125 0.928 . S
C123 N119 1.345 . S
C123 C124 1.371 . S
C123 H126 0.931 . S
C124 C120 1.391 . S
C124 C123 1.371 . S
C124 H131 0.930 . S
H125 C122 0.928 . S
H126 C123 0.931 . S
H127 C103 0.930 . S
H128 C100 0.930 . S
H129 C109 0.930 . S
H130 C121 0.929 . S
H131 C124 0.930 . S
C132 C133 1.351 . S
C132 N135 1.368 . S
C132 H137 0.931 . S
C133 C132 1.351 . S
C133 N134 1.373 . S
C133 H161 0.930 . S
N134 C133 1.373 . S
N134 C136 1.340 . S
N135 C132 1.368 . S
N135 C136 1.321 . S
N135 Co138 2.135 . S
C136 N134 1.340 . S
C136 N135 1.321 . S
C136 H160 0.930 1_655 S
H137 C132 0.931 . S
Co138 N135 2.135 . S
Co138 N141 2.121 1_554 S
Co138 O146 2.055 . S
Co138 O149 2.039 1_655 S
Co138 N152 2.140 1_655 S
C139 O140 1.227 . S
C139 O149 1.265 . S
O140 C139 1.227 . S
N141 Co138 2.121 1_556 S
N141 C143 1.375 1_655 S
N141 C144 1.313 . S
C142 C143 1.338 . S
C142 N145 1.377 1_455 S
C142 H162 0.930 . S
C143 N141 1.375 1_455 S
C143 C142 1.338 . S
C143 H147 0.931 . S
C144 N141 1.313 . S
C144 N145 1.344 . S
C144 H148 0.930 . S
N145 C142 1.377 1_655 S
N145 C144 1.344 . S
O146 Co138 2.055 . S
O146 C150 1.253 . S
H147 C143 0.931 . S
H148 C144 0.930 . S
O149 Co138 2.039 1_455 S
O149 C139 1.265 . S
C150 O146 1.253 . S
C150 O151 1.227 . S
O151 C150 1.227 . S
N152 Co138 2.140 1_455 S
N152 C155 1.346 . S
N152 C156 1.345 . S
C153 C154 1.387 . S
C153 C157 1.391 . S
C154 C153 1.387 . S
C154 C155 1.369 . S
C154 H163 0.929 . S
C155 N152 1.346 . S
C155 C154 1.369 . S
C155 H158 0.928 . S
C156 N152 1.345 . S
C156 C157 1.371 . S
C156 H159 0.931 1_455 S
C157 C153 1.391 . S
C157 C156 1.371 . S
C157 H164 0.930 . S
H158 C155 0.928 . S
H159 C156 0.931 1_655 S
H160 C136 0.930 1_455 S
H161 C133 0.930 . S
H162 C142 0.930 . S
H163 C154 0.929 . S
H164 C157 0.930 . S
C165 C166 1.351 . S
C165 N168 1.368 . S
C165 H170 0.931 . S
C166 C165 1.351 . S
C166 N167 1.373 . S
C166 H194 0.930 . S
N167 C166 1.373 . S
N167 C169 1.340 . S
N168 C165 1.368 . S
N168 C169 1.321 . S
N168 Co171 2.135 . S
C169 N167 1.340 . S
C169 N168 1.321 . S
C169 H193 0.930 1_565 S
H170 C165 0.931 . S
Co171 N168 2.135 . S
Co171 N174 2.121 . S
Co171 O179 2.055 . S
Co171 O182 2.039 1_565 S
Co171 N185 2.140 1_565 S
C172 O173 1.227 . S
C172 O182 1.265 . S
O173 C172 1.227 . S
N174 Co171 2.121 . S
N174 C176 1.375 1_565 S
N174 C177 1.313 . S
C175 C176 1.338 . S
C175 N178 1.377 1_545 S
C175 H195 0.930 . S
C176 N174 1.375 1_545 S
C176 C175 1.338 . S
C176 H180 0.931 . S
C177 N174 1.313 . S
C177 N178 1.344 . S
C177 H181 0.930 . S
N178 C175 1.377 1_565 S
N178 C177 1.344 . S
O179 Co171 2.055 . S
O179 C183 1.253 . S
H180 C176 0.931 . S
H181 C177 0.930 . S
O182 Co171 2.039 1_545 S
O182 C172 1.265 . S
C183 O179 1.253 . S
C183 O184 1.227 . S
O184 C183 1.227 . S
N185 Co171 2.140 1_545 S
N185 C188 1.346 . S
N185 C189 1.345 . S
C186 C187 1.387 . S
C186 C190 1.391 . S
C187 C186 1.387 . S
C187 C188 1.369 . S
C187 H196 0.929 . S
C188 N185 1.346 . S
C188 C187 1.369 . S
C188 H191 0.928 . S
C189 N185 1.345 . S
C189 C190 1.371 . S
C189 H192 0.931 1_545 S
C190 C186 1.391 . S
C190 C189 1.371 . S
C190 H197 0.930 . S
H191 C188 0.928 . S
H192 C189 0.931 1_565 S
H193 C169 0.930 1_545 S
H194 C166 0.930 . S
H195 C175 0.930 . S
H196 C187 0.929 . S
H197 C190 0.930 . S
C198 C199 1.351 . S
C198 N201 1.368 . S
C198 H203 0.931 . S
C199 C198 1.351 . S
C199 N200 1.373 . S
C199 H227 0.930 . S
N200 C199 1.373 . S
N200 C202 1.340 . S
N201 C198 1.368 . S
N201 C202 1.321 . S
N201 Co204 2.135 . S
C202 N200 1.340 . S
C202 N201 1.321 . S
C202 H226 0.930 . S
H203 C198 0.931 . S
Co204 N201 2.135 . S
Co204 N207 2.121 . S
Co204 O212 2.055 . S
Co204 O215 2.039 . S
Co204 N218 2.140 . S
C205 O206 1.227 . S
C205 O215 1.265 . S
O206 C205 1.227 . S
N207 Co204 2.121 . S
N207 C209 1.375 . S
N207 C210 1.313 . S
C208 C209 1.338 . S
C208 N211 1.377 . S
C208 H228 0.930 . S
C209 N207 1.375 . S
C209 C208 1.338 . S
C209 H213 0.931 . S
C210 N207 1.313 . S
C210 N211 1.344 . S
C210 H214 0.930 . S
N211 C208 1.377 . S
N211 C210 1.344 . S
O212 Co204 2.055 . S
O212 C216 1.253 . S
H213 C209 0.931 . S
H214 C210 0.930 . S
O215 Co204 2.039 . S
O215 C205 1.265 . S
C216 O212 1.253 . S
C216 O217 1.227 . S
O217 C216 1.227 . S
N218 Co204 2.140 . S
N218 C221 1.346 . S
N218 C222 1.345 . S
C219 C220 1.387 . S
C219 C223 1.391 . S
C220 C219 1.387 . S
C220 C221 1.369 . S
C220 H229 0.929 . S
C221 N218 1.346 . S
C221 C220 1.369 . S
C221 H224 0.928 . S
C222 N218 1.345 . S
C222 C223 1.371 . S
C222 H225 0.931 . S
C223 C219 1.391 . S
C223 C222 1.371 . S
C223 H230 0.930 . S
H224 C221 0.928 . S
H225 C222 0.931 . S
H226 C202 0.930 . S
H227 C199 0.930 . S
H228 C208 0.930 . S
H229 C220 0.929 . S
H230 C223 0.930 . S
C231 C232 1.351 . S
C231 N234 1.368 . S
C231 H236 0.931 . S
C232 C231 1.351 . S
C232 N233 1.373 . S
C232 H260 0.930 . S
N233 C232 1.373 . S
N233 C235 1.340 . S
N234 C231 1.368 . S
N234 C235 1.321 . S
N234 Co237 2.135 . S
C235 N233 1.340 . S
C235 N234 1.321 . S
C235 H259 0.930 1_455 S
H236 C231 0.931 . S
Co237 N234 2.135 . S
Co237 N240 2.121 . S
Co237 O245 2.055 . S
Co237 O248 2.039 1_455 S
Co237 N251 2.140 1_455 S
C238 O239 1.227 . S
C238 O248 1.265 . S
O239 C238 1.227 . S
N240 Co237 2.121 . S
N240 C242 1.375 1_455 S
N240 C243 1.313 . S
C241 C242 1.338 . S
C241 N244 1.377 1_655 S
C241 H261 0.930 . S
C242 N240 1.375 1_655 S
C242 C241 1.338 . S
C242 H246 0.931 . S
C243 N240 1.313 . S
C243 N244 1.344 . S
C243 H247 0.930 . S
N244 C241 1.377 1_455 S
N244 C243 1.344 . S
O245 Co237 2.055 . S
O245 C249 1.253 . S
H246 C242 0.931 . S
H247 C243 0.930 . S
O248 Co237 2.039 1_655 S
O248 C238 1.265 . S
C249 O245 1.253 . S
C249 O250 1.227 . S
O250 C249 1.227 . S
N251 Co237 2.140 1_655 S
N251 C254 1.346 . S
N251 C255 1.345 . S
C252 C253 1.387 . S
C252 C256 1.391 . S
C253 C252 1.387 . S
C253 C254 1.369 . S
C253 H262 0.929 . S
C254 N251 1.346 . S
C254 C253 1.369 . S
C254 H257 0.928 . S
C255 N251 1.345 . S
C255 C256 1.371 . S
C255 H258 0.931 1_655 S
C256 C252 1.391 . S
C256 C255 1.371 . S
C256 H263 0.930 . S
H257 C254 0.928 . S
H258 C255 0.931 1_455 S
H259 C235 0.930 1_655 S
H260 C232 0.930 . S
H261 C241 0.930 . S
H262 C253 0.929 . S
H263 C256 0.930 . S
C264 C265 1.351 . S
C264 N267 1.368 . S
C264 H269 0.931 . S
C265 C264 1.351 . S
C265 N266 1.373 . S
C265 H293 0.930 . S
N266 C265 1.373 . S
N266 C268 1.340 . S
N267 C264 1.368 . S
N267 C268 1.321 . S
N267 Co270 2.135 . S
C268 N266 1.340 . S
C268 N267 1.321 . S
C268 H292 0.930 1_545 S
H269 C264 0.931 . S
Co270 N267 2.135 . S
Co270 N273 2.121 . S
Co270 O278 2.055 . S
Co270 O281 2.039 1_545 S
Co270 N284 2.140 1_545 S
C271 O272 1.227 . S
C271 O281 1.265 . S
O272 C271 1.227 . S
N273 Co270 2.121 . S
N273 C275 1.375 1_545 S
N273 C276 1.313 . S
C274 C275 1.338 . S
C274 N277 1.377 1_565 S
C274 H294 0.930 . S
C275 N273 1.375 1_565 S
C275 C274 1.338 . S
C275 H279 0.931 . S
C276 N273 1.313 . S
C276 N277 1.344 . S
C276 H280 0.930 . S
N277 C274 1.377 1_545 S
N277 C276 1.344 . S
O278 Co270 2.055 . S
O278 C282 1.253 . S
H279 C275 0.931 . S
H280 C276 0.930 . S
O281 Co270 2.039 1_565 S
O281 C271 1.265 . S
C282 O278 1.253 . S
C282 O283 1.227 . S
O283 C282 1.227 . S
N284 Co270 2.140 1_565 S
N284 C287 1.346 . S
N284 C288 1.345 . S
C285 C286 1.387 . S
C285 C289 1.391 . S
C286 C285 1.387 . S
C286 C287 1.369 . S
C286 H295 0.929 . S
C287 N284 1.346 . S
C287 C286 1.369 . S
C287 H290 0.928 . S
C288 N284 1.345 . S
C288 C289 1.371 . S
C288 H291 0.931 1_565 S
C289 C285 1.391 . S
C289 C288 1.371 . S
C289 H296 0.930 . S
H290 C287 0.928 . S
H291 C288 0.931 1_545 S
H292 C268 0.930 1_565 S
H293 C265 0.930 . S
H294 C274 0.930 . S
H295 C286 0.929 . S
H296 C289 0.930 . S
C297 C298 1.351 . S
C297 N300 1.368 . S
C297 H302 0.931 . S
C298 C297 1.351 . S
C298 N299 1.373 . S
C298 H326 0.930 . S
N299 C298 1.373 . S
N299 C301 1.340 . S
N300 C297 1.368 . S
N300 C301 1.321 . S
N300 Co303 2.135 . S
C301 N299 1.340 . S
C301 N300 1.321 . S
C301 H325 0.930 . S
H302 C297 0.931 . S
Co303 N300 2.135 . S
Co303 N306 2.121 1_556 S
Co303 O311 2.055 . S
Co303 O314 2.039 . S
Co303 N317 2.140 . S
C304 O305 1.227 . S
C304 O314 1.265 . S
O305 C304 1.227 . S
N306 Co303 2.121 1_554 S
N306 C308 1.375 . S
N306 C309 1.313 . S
C307 C308 1.338 . S
C307 N310 1.377 . S
C307 H327 0.930 . S
C308 N306 1.375 . S
C308 C307 1.338 . S
C308 H312 0.931 . S
C309 N306 1.313 . S
C309 N310 1.344 . S
C309 H313 0.930 . S
N310 C307 1.377 . S
N310 C309 1.344 . S
O311 Co303 2.055 . S
O311 C315 1.253 . S
H312 C308 0.931 . S
H313 C309 0.930 . S
O314 Co303 2.039 . S
O314 C304 1.265 . S
C315 O311 1.253 . S
C315 O316 1.227 . S
O316 C315 1.227 . S
N317 Co303 2.140 . S
N317 C320 1.346 . S
N317 C321 1.345 . S
C318 C319 1.387 . S
C318 C322 1.391 . S
C319 C318 1.387 . S
C319 C320 1.369 . S
C319 H328 0.929 . S
C320 N317 1.346 . S
C320 C319 1.369 . S
C320 H323 0.928 . S
C321 N317 1.345 . S
C321 C322 1.371 . S
C321 H324 0.931 . S
C322 C318 1.391 . S
C322 C321 1.371 . S
C322 H329 0.930 . S
H323 C320 0.928 . S
H324 C321 0.931 . S
H325 C301 0.930 . S
H326 C298 0.930 . S
H327 C307 0.930 . S
H328 C319 0.929 . S
H329 C322 0.930 . S
C330 C331 1.351 . S
C330 N333 1.368 . S
C330 H335 0.931 . S
C331 C330 1.351 . S
C331 N332 1.373 . S
C331 H359 0.930 . S
N332 C331 1.373 . S
N332 C334 1.340 . S
N333 C330 1.368 . S
N333 C334 1.321 . S
N333 Co336 2.135 . S
C334 N332 1.340 . S
C334 N333 1.321 . S
C334 H358 0.930 1_655 S
H335 C330 0.931 . S
Co336 N333 2.135 . S
Co336 N339 2.121 . S
Co336 O344 2.055 . S
Co336 O347 2.039 1_655 S
Co336 N350 2.140 1_655 S
C337 O338 1.227 . S
C337 O347 1.265 . S
O338 C337 1.227 . S
N339 Co336 2.121 . S
N339 C341 1.375 1_655 S
N339 C342 1.313 . S
C340 C341 1.338 . S
C340 N343 1.377 1_455 S
C340 H360 0.930 . S
C341 N339 1.375 1_455 S
C341 C340 1.338 . S
C341 H345 0.931 . S
C342 N339 1.313 . S
C342 N343 1.344 . S
C342 H346 0.930 . S
N343 C340 1.377 1_655 S
N343 C342 1.344 . S
O344 Co336 2.055 . S
O344 C348 1.253 . S
H345 C341 0.931 . S
H346 C342 0.930 . S
O347 Co336 2.039 1_455 S
O347 C337 1.265 . S
C348 O344 1.253 . S
C348 O349 1.227 . S
O349 C348 1.227 . S
N350 Co336 2.140 1_455 S
N350 C353 1.346 . S
N350 C354 1.345 . S
C351 C352 1.387 . S
C351 C355 1.391 . S
C352 C351 1.387 . S
C352 C353 1.369 . S
C352 H361 0.929 . S
C353 N350 1.346 . S
C353 C352 1.369 . S
C353 H356 0.928 . S
C354 N350 1.345 . S
C354 C355 1.371 . S
C354 H357 0.931 1_455 S
C355 C351 1.391 . S
C355 C354 1.371 . S
C355 H362 0.930 . S
H356 C353 0.928 . S
H357 C354 0.931 1_655 S
H358 C334 0.930 1_455 S
H359 C331 0.930 . S
H360 C340 0.930 . S
H361 C352 0.929 . S
H362 C355 0.930 . S
C363 C364 1.351 . S
C363 N366 1.368 . S
C363 H368 0.931 . S
C364 C363 1.351 . S
C364 N365 1.373 . S
C364 H392 0.930 . S
N365 C364 1.373 . S
N365 C367 1.340 . S
N366 C363 1.368 . S
N366 C367 1.321 . S
N366 Co369 2.135 . S
C367 N365 1.340 . S
C367 N366 1.321 . S
C367 H391 0.930 1_565 S
H368 C363 0.931 . S
Co369 N366 2.135 . S
Co369 N372 2.121 . S
Co369 O377 2.055 . S
Co369 O380 2.039 1_565 S
Co369 N383 2.140 1_565 S
C370 O371 1.227 . S
C370 O380 1.265 . S
O371 C370 1.227 . S
N372 Co369 2.121 . S
N372 C374 1.375 1_565 S
N372 C375 1.313 . S
C373 C374 1.338 . S
C373 N376 1.377 1_545 S
C373 H393 0.930 . S
C374 N372 1.375 1_545 S
C374 C373 1.338 . S
C374 H378 0.931 . S
C375 N372 1.313 . S
C375 N376 1.344 . S
C375 H379 0.930 . S
N376 C373 1.377 1_565 S
N376 C375 1.344 . S
O377 Co369 2.055 . S
O377 C381 1.253 . S
H378 C374 0.931 . S
H379 C375 0.930 . S
O380 Co369 2.039 1_545 S
O380 C370 1.265 . S
C381 O377 1.253 . S
C381 O382 1.227 . S
O382 C381 1.227 . S
N383 Co369 2.140 1_545 S
N383 C386 1.346 . S
N383 C387 1.345 . S
C384 C385 1.387 . S
C384 C388 1.391 . S
C385 C384 1.387 . S
C385 C386 1.369 . S
C385 H394 0.929 . S
C386 N383 1.346 . S
C386 C385 1.369 . S
C386 H389 0.928 . S
C387 N383 1.345 . S
C387 C388 1.371 . S
C387 H390 0.931 1_545 S
C388 C384 1.391 . S
C388 C387 1.371 . S
C388 H395 0.930 . S
H389 C386 0.928 . S
H390 C387 0.931 1_565 S
H391 C367 0.930 1_545 S
H392 C364 0.930 . S
H393 C373 0.930 . S
H394 C385 0.929 . S
H395 C388 0.930 . S
H396 C404 0.929 . S
H397 C406 0.930 . S
H398 C408 0.930 . S
H399 C411 0.929 . S
H400 C414 0.930 . S
H401 C416 0.960 . S
H402 C416 0.960 . S
H403 C416 0.960 . S
C404 H396 0.929 . S
C404 C405 1.377 . S
C404 C406 1.384 . S
C405 C404 1.377 . S
C405 C411 1.390 . S
C406 H397 0.930 . S
C406 C404 1.384 . S
C406 C407 1.372 . S
C407 C406 1.372 . S
C407 C408 1.400 . S
C407 C412 1.490 . S
C408 H398 0.930 . S
C408 C407 1.400 . S
C408 C411 1.386 . S
H409 C425 0.930 . S
H410 C426 0.931 . S
C411 H399 0.929 . S
C411 C405 1.390 . S
C411 C408 1.386 . S
C412 C407 1.490 . S
C412 C414 1.395 . S
C412 C415 1.403 . S
H413 C419 0.930 . S
C414 H400 0.930 . S
C414 C412 1.395 . S
C414 C417 1.403 . S
C415 C412 1.403 . S
C415 C416 1.524 . S
C415 C419 1.400 . S
C416 H401 0.960 . S
C416 H402 0.960 . S
C416 H403 0.960 . S
C416 C415 1.524 . S
C417 C414 1.403 . S
C417 C418 1.392 . S
C417 C421 1.495 . S
C418 C417 1.392 . S
C418 C419 1.385 . S
C418 C420 1.478 . S
C419 H413 0.930 . S
C419 C415 1.400 . S
C419 C418 1.385 . S
C420 C418 1.478 . S
C420 C422 1.381 . S
C420 C426 1.383 . S
C421 C417 1.495 . S
C421 H427 0.959 . S
C421 H428 0.961 . S
C421 H429 0.960 . S
C422 C420 1.381 . S
C422 C423 1.394 . S
C422 H430 0.930 . S
C423 C422 1.394 . S
C423 C424 1.383 . S
C423 H431 0.929 . S
C424 C423 1.383 . S
C424 C425 1.377 . S
C425 H409 0.930 . S
C425 C424 1.377 . S
C425 C426 1.379 . S
C426 H410 0.931 . S
C426 C420 1.383 . S
C426 C425 1.379 . S
H427 C421 0.959 . S
H428 C421 0.961 . S
H429 C421 0.960 . S
H430 C422 0.930 . S
H431 C423 0.929 . S
H432 C440 0.929 . S
H433 C442 0.930 . S
H434 C444 0.930 . S
H435 C447 0.929 . S
H436 C450 0.930 . S
H437 C452 0.960 . S
H438 C452 0.960 . S
H439 C452 0.960 . S
C440 H432 0.929 . S
C440 C441 1.377 . S
C440 C442 1.384 . S
C441 C440 1.377 . S
C441 C447 1.390 . S
C442 H433 0.930 . S
C442 C440 1.384 . S
C442 C443 1.372 . S
C443 C442 1.372 . S
C443 C444 1.400 . S
C443 C448 1.490 . S
C444 H434 0.930 . S
C444 C443 1.400 . S
C444 C447 1.386 . S
H445 C461 0.930 . S
H446 C462 0.931 . S
C447 H435 0.929 . S
C447 C441 1.390 . S
C447 C444 1.386 . S
C448 C443 1.490 . S
C448 C450 1.395 . S
C448 C451 1.403 . S
H449 C455 0.930 . S
C450 H436 0.930 . S
C450 C448 1.395 . S
C450 C453 1.403 . S
C451 C448 1.403 . S
C451 C452 1.524 . S
C451 C455 1.400 . S
C452 H437 0.960 . S
C452 H438 0.960 . S
C452 H439 0.960 . S
C452 C451 1.524 . S
C453 C450 1.403 . S
C453 C454 1.392 . S
C453 C457 1.495 . S
C454 C453 1.392 . S
C454 C455 1.385 . S
C454 C456 1.478 . S
C455 H449 0.930 . S
C455 C451 1.400 . S
C455 C454 1.385 . S
C456 C454 1.478 . S
C456 C458 1.381 . S
C456 C462 1.383 . S
C457 C453 1.495 . S
C457 H463 0.959 . S
C457 H464 0.961 . S
C457 H465 0.960 . S
C458 C456 1.381 . S
C458 C459 1.394 . S
C458 H466 0.930 . S
C459 C458 1.394 . S
C459 C460 1.383 . S
C459 H467 0.929 . S
C460 C459 1.383 . S
C460 C461 1.377 . S
C461 H445 0.930 . S
C461 C460 1.377 . S
C461 C462 1.379 . S
C462 H446 0.931 . S
C462 C456 1.383 . S
C462 C461 1.379 . S
H463 C457 0.959 . S
H464 C457 0.961 . S
H465 C457 0.960 . S
H466 C458 0.930 . S
H467 C459 0.929 . S
H468 C476 0.929 . S
H469 C478 0.930 . S
H470 C480 0.930 . S
H471 C483 0.929 . S
H472 C486 0.930 . S
H473 C488 0.960 . S
H474 C488 0.960 . S
H475 C488 0.960 . S
C476 H468 0.929 . S
C476 C477 1.377 . S
C476 C478 1.384 . S
C477 C476 1.377 . S
C477 C483 1.390 . S
C478 H469 0.930 . S
C478 C476 1.384 . S
C478 C479 1.372 . S
C479 C478 1.372 . S
C479 C480 1.400 . S
C479 C484 1.490 . S
C480 H470 0.930 . S
C480 C479 1.400 . S
C480 C483 1.386 . S
H481 C497 0.930 . S
H482 C498 0.931 . S
C483 H471 0.929 . S
C483 C477 1.390 . S
C483 C480 1.386 . S
C484 C479 1.490 . S
C484 C486 1.395 . S
C484 C487 1.403 . S
H485 C491 0.930 . S
C486 H472 0.930 . S
C486 C484 1.395 . S
C486 C489 1.403 . S
C487 C484 1.403 . S
C487 C488 1.524 . S
C487 C491 1.400 . S
C488 H473 0.960 . S
C488 H474 0.960 . S
C488 H475 0.960 . S
C488 C487 1.524 . S
C489 C486 1.403 . S
C489 C490 1.392 . S
C489 C493 1.495 . S
C490 C489 1.392 . S
C490 C491 1.385 . S
C490 C492 1.478 . S
C491 H485 0.930 . S
C491 C487 1.400 . S
C491 C490 1.385 . S
C492 C490 1.478 . S
C492 C494 1.381 . S
C492 C498 1.383 . S
C493 C489 1.495 . S
C493 H499 0.959 . S
C493 H500 0.961 . S
C493 H501 0.960 . S
C494 C492 1.381 . S
C494 C495 1.394 . S
C494 H502 0.930 . S
C495 C494 1.394 . S
C495 C496 1.383 . S
C495 H503 0.929 . S
C496 C495 1.383 . S
C496 C497 1.377 . S
C497 H481 0.930 . S
C497 C496 1.377 . S
C497 C498 1.379 . S
C498 H482 0.931 . S
C498 C492 1.383 . S
C498 C497 1.379 . S
H499 C493 0.959 . S
H500 C493 0.961 . S
H501 C493 0.960 . S
H502 C494 0.930 . S
H503 C495 0.929 . S
H504 C512 0.929 . S
H505 C514 0.930 . S
H506 C516 0.930 . S
H507 C519 0.929 . S
H508 C522 0.930 . S
H509 C524 0.960 . S
H510 C524 0.960 . S
H511 C524 0.960 . S
C512 H504 0.929 . S
C512 C513 1.377 . S
C512 C514 1.384 . S
C513 C512 1.377 . S
C513 C519 1.390 . S
C514 H505 0.930 . S
C514 C512 1.384 . S
C514 C515 1.372 . S
C515 C514 1.372 . S
C515 C516 1.400 . S
C515 C520 1.490 . S
C516 H506 0.930 . S
C516 C515 1.400 . S
C516 C519 1.386 . S
H517 C533 0.930 . S
H518 C534 0.931 . S
C519 H507 0.929 . S
C519 C513 1.390 . S
C519 C516 1.386 . S
C520 C515 1.490 . S
C520 C522 1.395 . S
C520 C523 1.403 . S
H521 C527 0.930 . S
C522 H508 0.930 . S
C522 C520 1.395 . S
C522 C525 1.403 . S
C523 C520 1.403 . S
C523 C524 1.524 . S
C523 C527 1.400 . S
C524 H509 0.960 . S
C524 H510 0.960 . S
C524 H511 0.960 . S
C524 C523 1.524 . S
C525 C522 1.403 . S
C525 C526 1.392 . S
C525 C529 1.495 . S
C526 C525 1.392 . S
C526 C527 1.385 . S
C526 C528 1.478 . S
C527 H521 0.930 . S
C527 C523 1.400 . S
C527 C526 1.385 . S
C528 C526 1.478 . S
C528 C530 1.381 . S
C528 C534 1.383 . S
C529 C525 1.495 . S
C529 H535 0.959 . S
C529 H536 0.961 . S
C529 H537 0.960 . S
C530 C528 1.381 . S
C530 C531 1.394 . S
C530 H538 0.930 . S
C531 C530 1.394 . S
C531 C532 1.383 . S
C531 H539 0.929 . S
C532 C531 1.383 . S
C532 C533 1.377 . S
C533 H517 0.930 . S
C533 C532 1.377 . S
C533 C534 1.379 . S
C534 H518 0.931 . S
C534 C528 1.383 . S
C534 C533 1.379 . S
H535 C529 0.959 . S
H536 C529 0.961 . S
H537 C529 0.960 . S
H538 C530 0.930 . S
H539 C531 0.929 . S
H540 C548 0.929 . S
H541 C550 0.930 . S
H542 C552 0.930 . S
H543 C555 0.929 . S
H544 C558 0.930 . S
H545 C560 0.960 . S
H546 C560 0.960 . S
H547 C560 0.960 . S
C548 H540 0.929 . S
C548 C549 1.377 1_556 S
C548 C550 1.384 . S
C549 C548 1.377 1_554 S
C549 C555 1.390 . S
C550 H541 0.930 . S
C550 C548 1.384 . S
C550 C551 1.372 1_556 S
C551 C550 1.372 1_554 S
C551 C552 1.400 . S
C551 C556 1.490 . S
C552 H542 0.930 . S
C552 C551 1.400 . S
C552 C555 1.386 . S
H553 C569 0.930 . S
H554 C570 0.931 . S
C555 H543 0.929 . S
C555 C549 1.390 . S
C555 C552 1.386 . S
C556 C551 1.490 . S
C556 C558 1.395 1_554 S
C556 C559 1.403 . S
H557 C563 0.930 . S
C558 H544 0.930 . S
C558 C556 1.395 1_556 S
C558 C561 1.403 . S
C559 C556 1.403 . S
C559 C560 1.524 . S
C559 C563 1.400 . S
C560 H545 0.960 . S
C560 H546 0.960 . S
C560 H547 0.960 . S
C560 C559 1.524 . S
C561 C558 1.403 . S
C561 C562 1.392 1_556 S
C561 C565 1.495 . S
C562 C561 1.392 1_554 S
C562 C563 1.385 . S
C562 C564 1.479 . S
C563 H557 0.930 . S
C563 C559 1.400 . S
C563 C562 1.385 . S
C564 C562 1.479 . S
C564 C566 1.365 1_554 S
C564 C570 1.397 . S
C565 C561 1.495 . S
C565 H571 0.959 . S
C565 H572 0.961 . S
C565 H573 0.960 . S
C566 C564 1.365 1_556 S
C566 C567 1.394 . S
C566 H574 0.930 . S
C567 C566 1.394 . S
C567 C568 1.383 . S
C567 H575 0.929 . S
C568 C567 1.383 . S
C568 C569 1.377 1_556 S
C569 H553 0.930 . S
C569 C568 1.377 1_554 S
C569 C570 1.379 . S
C570 H554 0.931 . S
C570 C564 1.397 . S
C570 C569 1.379 . S
H571 C565 0.959 . S
H572 C565 0.961 . S
H573 C565 0.960 . S
H574 C566 0.930 . S
H575 C567 0.929 . S
H576 C584 0.929 . S
H577 C586 0.930 . S
H578 C588 0.930 . S
H579 C591 0.929 . S
H580 C594 0.930 . S
H581 C596 0.960 . S
H582 C596 0.960 . S
H583 C596 0.960 . S
C584 H576 0.929 . S
C584 C585 1.377 . S
C584 C586 1.384 . S
C585 C584 1.377 . S
C585 C591 1.390 . S
C586 H577 0.930 . S
C586 C584 1.384 . S
C586 C587 1.372 . S
C587 C586 1.372 . S
C587 C588 1.400 . S
C587 C592 1.490 . S
C588 H578 0.930 . S
C588 C587 1.400 . S
C588 C591 1.386 . S
H589 C605 0.930 . S
H590 C606 0.931 . S
C591 H579 0.929 . S
C591 C585 1.390 . S
C591 C588 1.386 . S
C592 C587 1.490 . S
C592 C594 1.395 . S
C592 C595 1.403 . S
H593 C599 0.930 . S
C594 H580 0.930 . S
C594 C592 1.395 . S
C594 C597 1.403 . S
C595 C592 1.403 . S
C595 C596 1.524 . S
C595 C599 1.400 . S
C596 H581 0.960 . S
C596 H582 0.960 . S
C596 H583 0.960 . S
C596 C595 1.524 . S
C597 C594 1.403 . S
C597 C598 1.392 . S
C597 C601 1.495 . S
C598 C597 1.392 . S
C598 C599 1.385 . S
C598 C600 1.478 . S
C599 H593 0.930 . S
C599 C595 1.400 . S
C599 C598 1.385 . S
C600 C598 1.478 . S
C600 C602 1.381 . S
C600 C606 1.383 . S
C601 C597 1.495 . S
C601 H607 0.959 . S
C601 H608 0.961 . S
C601 H609 0.960 . S
C602 C600 1.381 . S
C602 C603 1.394 . S
C602 H610 0.930 . S
C603 C602 1.394 . S
C603 C604 1.383 . S
C603 H611 0.929 . S
C604 C603 1.383 . S
C604 C605 1.377 . S
C605 H589 0.930 . S
C605 C604 1.377 . S
C605 C606 1.379 . S
C606 H590 0.931 . S
C606 C600 1.383 . S
C606 C605 1.379 . S
H607 C601 0.959 . S
H608 C601 0.961 . S
H609 C601 0.960 . S
H610 C602 0.930 . S
H611 C603 0.929 . S
H612 C620 0.929 . S
H613 C622 0.930 . S
H614 C624 0.930 . S
H615 C627 0.929 . S
H616 C630 0.930 . S
H617 C632 0.960 . S
H618 C632 0.960 . S
H619 C632 0.960 . S
C620 H612 0.929 . S
C620 C621 1.377 . S
C620 C622 1.384 . S
C621 C620 1.377 . S
C621 C627 1.390 . S
C622 H613 0.930 . S
C622 C620 1.384 . S
C622 C623 1.372 . S
C623 C622 1.372 . S
C623 C624 1.400 . S
C623 C628 1.490 . S
C624 H614 0.930 . S
C624 C623 1.400 . S
C624 C627 1.386 . S
H625 C641 0.930 . S
H626 C642 0.931 . S
C627 H615 0.929 . S
C627 C621 1.390 . S
C627 C624 1.386 . S
C628 C623 1.490 . S
C628 C630 1.395 . S
C628 C631 1.403 . S
H629 C635 0.930 . S
C630 H616 0.930 . S
C630 C628 1.395 . S
C630 C633 1.403 . S
C631 C628 1.403 . S
C631 C632 1.524 . S
C631 C635 1.400 . S
C632 H617 0.960 . S
C632 H618 0.960 . S
C632 H619 0.960 . S
C632 C631 1.524 . S
C633 C630 1.403 . S
C633 C634 1.392 . S
C633 C637 1.495 . S
C634 C633 1.392 . S
C634 C635 1.385 . S
C634 C636 1.478 . S
C635 H629 0.930 . S
C635 C631 1.400 . S
C635 C634 1.385 . S
C636 C634 1.478 . S
C636 C638 1.381 . S
C636 C642 1.383 . S
C637 C633 1.495 . S
C637 H643 0.959 . S
C637 H644 0.961 . S
C637 H645 0.960 . S
C638 C636 1.381 . S
C638 C639 1.394 . S
C638 H646 0.930 . S
C639 C638 1.394 . S
C639 C640 1.383 . S
C639 H647 0.929 . S
C640 C639 1.383 . S
C640 C641 1.377 . S
C641 H625 0.930 . S
C641 C640 1.377 . S
C641 C642 1.379 . S
C642 H626 0.931 . S
C642 C636 1.383 . S
C642 C641 1.379 . S
H643 C637 0.959 . S
H644 C637 0.961 . S
H645 C637 0.960 . S
H646 C638 0.930 . S
H647 C639 0.929 . S
H648 C656 0.929 . S
H649 C658 0.930 . S
H650 C660 0.930 . S
H651 C663 0.929 . S
H652 C666 0.930 . S
H653 C668 0.960 . S
H654 C668 0.960 . S
H655 C668 0.960 . S
C656 H648 0.929 . S
C656 C657 1.377 . S
C656 C658 1.384 . S
C657 C656 1.377 . S
C657 C663 1.390 . S
C658 H649 0.930 . S
C658 C656 1.384 . S
C658 C659 1.372 . S
C659 C658 1.372 . S
C659 C660 1.400 . S
C659 C664 1.490 . S
C660 H650 0.930 . S
C660 C659 1.400 . S
C660 C663 1.386 . S
H661 C677 0.930 . S
H662 C678 0.931 . S
C663 H651 0.929 . S
C663 C657 1.390 . S
C663 C660 1.386 . S
C664 C659 1.490 . S
C664 C666 1.395 . S
C664 C667 1.403 . S
H665 C671 0.930 . S
C666 H652 0.930 . S
C666 C664 1.395 . S
C666 C669 1.403 . S
C667 C664 1.403 . S
C667 C668 1.524 . S
C667 C671 1.400 . S
C668 H653 0.960 . S
C668 H654 0.960 . S
C668 H655 0.960 . S
C668 C667 1.524 . S
C669 C666 1.403 . S
C669 C670 1.392 . S
C669 C673 1.495 . S
C670 C669 1.392 . S
C670 C671 1.385 . S
C670 C672 1.478 . S
C671 H665 0.930 . S
C671 C667 1.400 . S
C671 C670 1.385 . S
C672 C670 1.478 . S
C672 C674 1.381 . S
C672 C678 1.383 . S
C673 C669 1.495 . S
C673 H679 0.959 . S
C673 H680 0.961 . S
C673 H681 0.960 . S
C674 C672 1.381 . S
C674 C675 1.394 . S
C674 H682 0.930 . S
C675 C674 1.394 . S
C675 C676 1.383 . S
C675 H683 0.929 . S
C676 C675 1.383 . S
C676 C677 1.377 . S
C677 H661 0.930 . S
C677 C676 1.377 . S
C677 C678 1.379 . S
C678 H662 0.931 . S
C678 C672 1.383 . S
C678 C677 1.379 . S
H679 C673 0.959 . S
H680 C673 0.961 . S
H681 C673 0.960 . S
H682 C674 0.930 . S
H683 C675 0.929 . S
H684 C692 0.929 . S
H685 C694 0.930 . S
H686 C696 0.930 . S
H687 C699 0.929 . S
H688 C702 0.930 . S
H689 C704 0.960 . S
H690 C704 0.960 . S
H691 C704 0.960 . S
C692 H684 0.929 . S
C692 C693 1.377 . S
C692 C694 1.384 . S
C693 C692 1.377 . S
C693 C699 1.390 . S
C694 H685 0.930 . S
C694 C692 1.384 . S
C694 C695 1.372 . S
C695 C694 1.372 . S
C695 C696 1.400 . S
C695 C700 1.490 . S
C696 H686 0.930 . S
C696 C695 1.400 . S
C696 C699 1.386 . S
H697 C713 0.930 . S
H698 C714 0.931 . S
C699 H687 0.929 . S
C699 C693 1.390 . S
C699 C696 1.386 . S
C700 C695 1.490 . S
C700 C702 1.395 . S
C700 C703 1.403 . S
H701 C707 0.930 . S
C702 H688 0.930 . S
C702 C700 1.395 . S
C702 C705 1.403 . S
C703 C700 1.403 . S
C703 C704 1.524 . S
C703 C707 1.400 . S
C704 H689 0.960 . S
C704 H690 0.960 . S
C704 H691 0.960 . S
C704 C703 1.524 . S
C705 C702 1.403 . S
C705 C706 1.392 . S
C705 C709 1.495 . S
C706 C705 1.392 . S
C706 C707 1.385 . S
C706 C708 1.478 . S
C707 H701 0.930 . S
C707 C703 1.400 . S
C707 C706 1.385 . S
C708 C706 1.478 . S
C708 C710 1.381 . S
C708 C714 1.383 . S
C709 C705 1.495 . S
C709 H715 0.959 . S
C709 H716 0.961 . S
C709 H717 0.960 . S
C710 C708 1.381 . S
C710 C711 1.394 . S
C710 H718 0.930 . S
C711 C710 1.394 . S
C711 C712 1.383 . S
C711 H719 0.929 . S
C712 C711 1.383 . S
C712 C713 1.377 . S
C713 H697 0.930 . S
C713 C712 1.377 . S
C713 C714 1.379 . S
C714 H698 0.931 . S
C714 C708 1.383 . S
C714 C713 1.379 . S
H715 C709 0.959 . S
H716 C709 0.961 . S
H717 C709 0.960 . S
H718 C710 0.930 . S
H719 C711 0.929 . S
H720 C728 0.929 . S
H721 C730 0.930 . S
H722 C732 0.930 . S
H723 C735 0.947 . S
H724 C738 0.930 . S
H725 C740 0.960 . S
H726 C740 0.960 . S
H727 C740 0.960 . S
C728 H720 0.929 . S
C728 C729 1.377 . S
C728 C730 1.384 . S
C729 C728 1.377 . S
C729 C735 1.371 1_556 S
C730 H721 0.930 . S
C730 C728 1.384 . S
C730 C731 1.372 . S
C731 C730 1.372 . S
C731 C732 1.400 1_556 S
C731 C736 1.490 . S
C732 H722 0.930 . S
C732 C731 1.400 1_554 S
C732 C735 1.388 . S
H733 C749 0.930 . S
H734 C750 0.931 . S
C735 H723 0.947 . S
C735 C729 1.371 1_554 S
C735 C732 1.388 . S
C736 C731 1.490 . S
C736 C738 1.395 . S
C736 C739 1.403 . S
H737 C743 0.930 . S
C738 H724 0.930 . S
C738 C736 1.395 . S
C738 C741 1.403 . S
C739 C736 1.403 . S
C739 C740 1.524 . S
C739 C743 1.400 . S
C740 H725 0.960 . S
C740 H726 0.960 . S
C740 H727 0.960 . S
C740 C739 1.524 . S
C741 C738 1.403 . S
C741 C742 1.392 . S
C741 C745 1.495 . S
C742 C741 1.392 . S
C742 C743 1.385 . S
C742 C744 1.478 . S
C743 H737 0.930 . S
C743 C739 1.400 . S
C743 C742 1.385 . S
C744 C742 1.478 . S
C744 C746 1.381 . S
C744 C750 1.383 1_556 S
C745 C741 1.495 . S
C745 H751 0.959 . S
C745 H752 0.961 1_556 S
C745 H753 0.960 . S
C746 C744 1.381 . S
C746 C747 1.394 . S
C746 H754 0.930 . S
C747 C746 1.394 . S
C747 C748 1.318 1_556 S
C747 H755 0.929 . S
C748 C747 1.318 1_554 S
C748 C749 1.436 . S
C749 H733 0.930 . S
C749 C748 1.436 . S
C749 C750 1.379 . S
C750 H734 0.931 . S
C750 C744 1.383 1_554 S
C750 C749 1.379 . S
H751 C745 0.959 . S
H752 C745 0.961 1_554 S
H753 C745 0.960 . S
H754 C746 0.930 . S
H755 C747 0.929 . S
H756 C764 0.929 . S
H757 C766 0.930 . S
H758 C768 0.930 . S
H759 C771 0.929 . S
H760 C774 0.930 . S
H761 C776 0.960 . S
H762 C776 0.960 . S
H763 C776 0.960 . S
C764 H756 0.929 . S
C764 C765 1.377 . S
C764 C766 1.384 . S
C765 C764 1.377 . S
C765 C771 1.390 . S
C766 H757 0.930 . S
C766 C764 1.384 . S
C766 C767 1.372 . S
C767 C766 1.372 . S
C767 C768 1.400 . S
C767 C772 1.490 . S
C768 H758 0.930 . S
C768 C767 1.400 . S
C768 C771 1.386 . S
H769 C785 0.930 . S
H770 C786 0.931 . S
C771 H759 0.929 . S
C771 C765 1.390 . S
C771 C768 1.386 . S
C772 C767 1.490 . S
C772 C774 1.395 . S
C772 C775 1.403 . S
H773 C779 0.930 . S
C774 H760 0.930 . S
C774 C772 1.395 . S
C774 C777 1.403 . S
C775 C772 1.403 . S
C775 C776 1.524 . S
C775 C779 1.400 . S
C776 H761 0.960 . S
C776 H762 0.960 . S
C776 H763 0.960 . S
C776 C775 1.524 . S
C777 C774 1.403 . S
C777 C778 1.392 . S
C777 C781 1.495 . S
C778 C777 1.392 . S
C778 C779 1.385 . S
C778 C780 1.478 . S
C779 H773 0.930 . S
C779 C775 1.400 . S
C779 C778 1.385 . S
C780 C778 1.478 . S
C780 C782 1.381 . S
C780 C786 1.383 . S
C781 C777 1.495 . S
C781 H787 0.959 . S
C781 H788 0.961 . S
C781 H789 0.960 . S
C782 C780 1.381 . S
C782 C783 1.394 . S
C782 H790 0.930 . S
C783 C782 1.394 . S
C783 C784 1.383 . S
C783 H791 0.929 . S
C784 C783 1.383 . S
C784 C785 1.377 . S
C785 H769 0.930 . S
C785 C784 1.377 . S
C785 C786 1.379 . S
C786 H770 0.931 . S
C786 C780 1.383 . S
C786 C785 1.379 . S
H787 C781 0.959 . S
H788 C781 0.961 . S
H789 C781 0.960 . S
H790 C782 0.930 . S
H791 C783 0.929 . S
H792 C800 0.929 . S
H793 C802 0.930 . S
H794 C804 0.930 . S
H795 C807 0.929 . S
H796 C810 0.930 . S
H797 C812 0.960 . S
H798 C812 0.960 . S
H799 C812 0.960 . S
C800 H792 0.929 . S
C800 C801 1.377 . S
C800 C802 1.384 . S
C801 C800 1.377 . S
C801 C807 1.390 . S
C802 H793 0.930 . S
C802 C800 1.384 . S
C802 C803 1.372 . S
C803 C802 1.372 . S
C803 C804 1.400 . S
C803 C808 1.490 . S
C804 H794 0.930 . S
C804 C803 1.400 . S
C804 C807 1.386 . S
H805 C821 0.930 . S
H806 C822 0.931 . S
C807 H795 0.929 . S
C807 C801 1.390 . S
C807 C804 1.386 . S
C808 C803 1.490 . S
C808 C810 1.395 . S
C808 C811 1.403 . S
H809 C815 0.930 . S
C810 H796 0.930 . S
C810 C808 1.395 . S
C810 C813 1.403 . S
C811 C808 1.403 . S
C811 C812 1.524 . S
C811 C815 1.400 . S
C812 H797 0.960 . S
C812 H798 0.960 . S
C812 H799 0.960 . S
C812 C811 1.524 . S
C813 C810 1.403 . S
C813 C814 1.392 . S
C813 C817 1.495 . S
C814 C813 1.392 . S
C814 C815 1.385 . S
C814 C816 1.478 . S
C815 H809 0.930 . S
C815 C811 1.400 . S
C815 C814 1.385 . S
C816 C814 1.478 . S
C816 C818 1.381 . S
C816 C822 1.383 . S
C817 C813 1.495 . S
C817 H823 0.959 . S
C817 H824 0.961 . S
C817 H825 0.960 . S
C818 C816 1.381 . S
C818 C819 1.394 . S
C818 H826 0.930 . S
C819 C818 1.394 . S
C819 C820 1.383 . S
C819 H827 0.929 . S
C820 C819 1.383 . S
C820 C821 1.377 . S
C821 H805 0.930 . S
C821 C820 1.377 . S
C821 C822 1.379 . S
C822 H806 0.931 . S
C822 C816 1.383 . S
C822 C821 1.379 . S
H823 C817 0.959 . S
H824 C817 0.961 . S
H825 C817 0.960 . S
H826 C818 0.930 . S
H827 C819 0.929 . S
H828 C836 0.929 . S
H829 C838 0.930 . S
H830 C840 0.930 . S
H831 C843 0.929 . S
H832 C846 0.930 . S
H833 C848 0.960 . S
H834 C848 0.960 . S
H835 C848 0.960 . S
C836 H828 0.929 . S
C836 C837 1.377 . S
C836 C838 1.384 . S
C837 C836 1.377 . S
C837 C843 1.390 . S
C838 H829 0.930 . S
C838 C836 1.384 . S
C838 C839 1.372 . S
C839 C838 1.372 . S
C839 C840 1.400 . S
C839 C844 1.490 . S
C840 H830 0.930 . S
C840 C839 1.400 . S
C840 C843 1.386 . S
H841 C857 0.930 . S
H842 C858 0.931 . S
C843 H831 0.929 . S
C843 C837 1.390 . S
C843 C840 1.386 . S
C844 C839 1.490 . S
C844 C846 1.395 . S
C844 C847 1.403 . S
H845 C851 0.930 . S
C846 H832 0.930 . S
C846 C844 1.395 . S
C846 C849 1.403 . S
C847 C844 1.403 . S
C847 C848 1.524 . S
C847 C851 1.400 . S
C848 H833 0.960 . S
C848 H834 0.960 . S
C848 H835 0.960 . S
C848 C847 1.524 . S
C849 C846 1.403 . S
C849 C850 1.392 . S
C849 C853 1.495 . S
C850 C849 1.392 . S
C850 C851 1.385 . S
C850 C852 1.478 . S
C851 H845 0.930 . S
C851 C847 1.400 . S
C851 C850 1.385 . S
C852 C850 1.478 . S
C852 C854 1.381 . S
C852 C858 1.383 . S
C853 C849 1.495 . S
C853 H859 0.959 . S
C853 H860 0.961 . S
C853 H861 0.960 . S
C854 C852 1.381 . S
C854 C855 1.394 . S
C854 H862 0.930 . S
C855 C854 1.394 . S
C855 C856 1.383 . S
C855 H863 0.929 . S
C856 C855 1.383 . S
C856 C857 1.377 . S
C857 H841 0.930 . S
C857 C856 1.377 . S
C857 C858 1.379 . S
C858 H842 0.931 . S
C858 C852 1.383 . S
C858 C857 1.379 . S
H859 C853 0.959 . S
H860 C853 0.961 . S
H861 C853 0.960 . S
H862 C854 0.930 . S
H863 C855 0.929 . S
H864 C872 0.929 . S
H865 C874 0.930 . S
H866 C876 0.930 . S
H867 C879 0.929 . S
H868 C882 0.930 . S
H869 C884 0.960 . S
H870 C884 0.960 . S
H871 C884 0.960 1_455 S
C872 H864 0.929 . S
C872 C873 1.377 1_655 S
C872 C874 1.384 . S
C873 C872 1.377 1_455 S
C873 C879 1.390 . S
C874 H865 0.930 . S
C874 C872 1.384 . S
C874 C875 1.372 1_655 S
C875 C874 1.372 1_455 S
C875 C876 1.400 . S
C875 C880 1.490 . S
C876 H866 0.930 . S
C876 C875 1.400 . S
C876 C879 1.386 . S
H877 C893 0.930 . S
H878 C894 0.931 . S
C879 H867 0.929 . S
C879 C873 1.390 . S
C879 C876 1.386 . S
C880 C875 1.490 . S
C880 C882 1.395 . S
C880 C883 1.387 1_455 S
H881 C887 0.930 1_655 S
C882 H868 0.930 . S
C882 C880 1.395 . S
C882 C885 1.403 . S
C883 C880 1.387 1_655 S
C883 C884 1.534 . S
C883 C887 1.406 1_655 S
C884 H869 0.960 . S
C884 H870 0.960 . S
C884 H871 0.960 1_655 S
C884 C883 1.534 . S
C885 C882 1.403 . S
C885 C886 1.392 . S
C885 C889 1.495 . S
C886 C885 1.392 . S
C886 C887 1.385 . S
C886 C888 1.478 . S
C887 H881 0.930 1_455 S
C887 C883 1.406 1_455 S
C887 C886 1.385 . S
C888 C886 1.478 . S
C888 C890 1.381 1_455 S
C888 C894 1.383 . S
C889 C885 1.495 . S
C889 H895 0.959 . S
C889 H896 0.961 . S
C889 H897 0.960 . S
C890 C888 1.381 1_655 S
C890 C891 1.394 . S
C890 H898 0.930 . S
C891 C890 1.394 . S
C891 C892 1.383 1_655 S
C891 H899 0.929 . S
C892 C891 1.383 1_455 S
C892 C893 1.377 . S
C893 H877 0.930 . S
C893 C892 1.377 . S
C893 C894 1.379 . S
C894 H878 0.931 . S
C894 C888 1.383 . S
C894 C893 1.379 . S
H895 C889 0.959 . S
H896 C889 0.961 . S
H897 C889 0.960 . S
H898 C890 0.930 . S
H899 C891 0.929 . S
H900 C908 0.929 . S
H901 C910 0.930 . S
H902 C912 0.930 . S
H903 C915 0.929 . S
H904 C918 0.930 . S
H905 C920 0.960 . S
H906 C920 0.960 . S
H907 C920 0.960 . S
C908 H900 0.929 . S
C908 C909 1.377 . S
C908 C910 1.384 . S
C909 C908 1.377 . S
C909 C915 1.390 . S
C910 H901 0.930 . S
C910 C908 1.384 . S
C910 C911 1.372 . S
C911 C910 1.372 . S
C911 C912 1.400 . S
C911 C916 1.490 . S
C912 H902 0.930 . S
C912 C911 1.400 . S
C912 C915 1.386 . S
H913 C929 0.930 . S
H914 C930 0.931 . S
C915 H903 0.929 . S
C915 C909 1.390 . S
C915 C912 1.386 . S
C916 C911 1.490 . S
C916 C918 1.395 . S
C916 C919 1.403 1_545 S
H917 C923 0.930 . S
C918 H904 0.930 . S
C918 C916 1.395 . S
C918 C921 1.403 . S
C919 C916 1.403 1_565 S
C919 C920 1.524 . S
C919 C923 1.400 . S
C920 H905 0.960 . S
C920 H906 0.960 . S
C920 H907 0.960 . S
C920 C919 1.524 . S
C921 C918 1.403 . S
C921 C922 1.392 . S
C921 C925 1.495 . S
C922 C921 1.392 . S
C922 C923 1.385 1_545 S
C922 C924 1.478 . S
C923 H917 0.930 . S
C923 C919 1.400 . S
C923 C922 1.385 1_565 S
C924 C922 1.478 . S
C924 C926 1.381 . S
C924 C930 1.383 . S
C925 C921 1.495 . S
C925 H931 0.959 . S
C925 H932 0.961 . S
C925 H933 0.960 . S
C926 C924 1.381 . S
C926 C927 1.394 . S
C926 H934 0.930 . S
C927 C926 1.394 . S
C927 C928 1.383 . S
C927 H935 0.929 . S
C928 C927 1.383 . S
C928 C929 1.377 . S
C929 H913 0.930 . S
C929 C928 1.377 . S
C929 C930 1.379 . S
C930 H914 0.931 . S
C930 C924 1.383 . S
C930 C929 1.379 . S
H931 C925 0.959 . S
H932 C925 0.961 . S
H933 C925 0.960 . S
H934 C926 0.930 . S
H935 C927 0.929 . S
H936 C944 0.929 . S
H937 C946 0.930 . S
H938 C948 0.930 . S
H939 C951 0.929 . S
H940 C954 0.930 . S
H941 C956 0.960 . S
H942 C956 0.960 . S
H943 C956 0.960 . S
C944 H936 0.929 . S
C944 C945 1.377 . S
C944 C946 1.384 . S
C945 C944 1.377 . S
C945 C951 1.390 . S
C946 H937 0.930 . S
C946 C944 1.384 . S
C946 C947 1.372 . S
C947 C946 1.372 . S
C947 C948 1.400 . S
C947 C952 1.490 . S
C948 H938 0.930 . S
C948 C947 1.400 . S
C948 C951 1.386 . S
H949 C965 0.930 . S
H950 C966 0.931 . S
C951 H939 0.929 . S
C951 C945 1.390 . S
C951 C948 1.386 . S
C952 C947 1.490 . S
C952 C954 1.395 . S
C952 C955 1.403 . S
H953 C959 0.930 . S
C954 H940 0.930 . S
C954 C952 1.395 . S
C954 C957 1.403 . S
C955 C952 1.403 . S
C955 C956 1.524 . S
C955 C959 1.400 . S
C956 H941 0.960 . S
C956 H942 0.960 . S
C956 H943 0.960 . S
C956 C955 1.524 . S
C957 C954 1.403 . S
C957 C958 1.392 . S
C957 C961 1.495 . S
C958 C957 1.392 . S
C958 C959 1.385 . S
C958 C960 1.478 . S
C959 H953 0.930 . S
C959 C955 1.400 . S
C959 C958 1.385 . S
C960 C958 1.478 . S
C960 C962 1.381 . S
C960 C966 1.383 . S
C961 C957 1.495 . S
C961 H967 0.959 . S
C961 H968 0.961 . S
C961 H969 0.960 . S
C962 C960 1.381 . S
C962 C963 1.394 . S
C962 H970 0.930 . S
C963 C962 1.394 . S
C963 C964 1.383 . S
C963 H971 0.929 . S
C964 C963 1.383 . S
C964 C965 1.377 . S
C965 H949 0.930 . S
C965 C964 1.377 . S
C965 C966 1.379 . S
C966 H950 0.931 . S
C966 C960 1.383 . S
C966 C965 1.379 . S
H967 C961 0.959 . S
H968 C961 0.961 . S
H969 C961 0.960 . S
H970 C962 0.930 . S
H971 C963 0.929 . S
H972 C980 0.929 . S
H973 C982 0.930 . S
H974 C984 0.930 . S
H975 C987 0.929 . S
H976 C990 0.930 . S
H977 C992 0.960 . S
H978 C992 0.960 . S
H979 C992 0.960 . S
C980 H972 0.929 . S
C980 C981 1.377 . S
C980 C982 1.384 . S
C981 C980 1.377 . S
C981 C987 1.390 1_655 S
C982 H973 0.930 . S
C982 C980 1.384 . S
C982 C983 1.372 . S
C983 C982 1.372 . S
C983 C984 1.400 1_655 S
C983 C988 1.490 . S
C984 H974 0.930 . S
C984 C983 1.400 1_455 S
C984 C987 1.386 . S
H985 C1001 0.930 1_455 S
H986 C1002 0.931 1_455 S
C987 H975 0.929 . S
C987 C981 1.390 1_455 S
C987 C984 1.386 . S
C988 C983 1.490 . S
C988 C990 1.395 . S
C988 C991 1.403 1_655 S
H989 C995 0.930 . S
C990 H976 0.930 . S
C990 C988 1.395 . S
C990 C993 1.403 . S
C991 C988 1.403 1_455 S
C991 C992 1.524 . S
C991 C995 1.400 . S
C992 H977 0.960 . S
C992 H978 0.960 . S
C992 H979 0.960 . S
C992 C991 1.524 . S
C993 C990 1.403 . S
C993 C994 1.392 . S
C993 C997 1.495 . S
C994 C993 1.392 . S
C994 C995 1.385 1_655 S
C994 C996 1.478 . S
C995 H989 0.930 . S
C995 C991 1.400 . S
C995 C994 1.385 1_455 S
C996 C994 1.478 . S
C996 C998 1.381 . S
C996 C1002 1.383 . S
C997 C993 1.495 . S
C997 H1003 0.959 . S
C997 H1004 0.961 . S
C997 H1005 0.960 . S
C998 C996 1.381 . S
C998 C999 1.394 . S
C998 H1006 0.930 . S
C999 C998 1.394 . S
C999 C1000 1.383 . S
C999 H1007 0.929 . S
C1000 C999 1.383 . S
C1000 C1001 1.377 . S
C1001 H985 0.930 1_655 S
C1001 C1000 1.377 . S
C1001 C1002 1.379 . S
C1002 H986 0.931 1_655 S
C1002 C996 1.383 . S
C1002 C1001 1.379 . S
H1003 C997 0.959 . S
H1004 C997 0.961 . S
H1005 C997 0.960 . S
H1006 C998 0.930 . S
H1007 C999 0.929 . S
H1008 C1016 0.929 . S
H1009 C1018 0.930 . S
H1010 C1020 0.930 . S
H1011 C1023 0.929 . S
H1012 C1026 0.930 . S
H1013 C1028 0.960 . S
H1014 C1028 0.960 . S
H1015 C1028 0.960 . S
C1016 H1008 0.929 . S
C1016 C1017 1.377 . S
C1016 C1018 1.384 . S
C1017 C1016 1.377 . S
C1017 C1023 1.390 1_565 S
C1018 H1009 0.930 . S
C1018 C1016 1.384 . S
C1018 C1019 1.372 . S
C1019 C1018 1.372 . S
C1019 C1020 1.400 1_565 S
C1019 C1024 1.490 . S
C1020 H1010 0.930 . S
C1020 C1019 1.400 1_545 S
C1020 C1023 1.386 . S
H1021 C1037 0.930 . S
H1022 C1038 0.931 . S
C1023 H1011 0.929 . S
C1023 C1017 1.390 1_545 S
C1023 C1020 1.386 . S
C1024 C1019 1.490 . S
C1024 C1026 1.395 . S
C1024 C1027 1.403 . S
H1025 C1031 0.930 . S
C1026 H1012 0.930 . S
C1026 C1024 1.395 . S
C1026 C1029 1.403 . S
C1027 C1024 1.403 . S
C1027 C1028 1.524 . S
C1027 C1031 1.400 . S
C1028 H1013 0.960 . S
C1028 H1014 0.960 . S
C1028 H1015 0.960 . S
C1028 C1027 1.524 . S
C1029 C1026 1.403 . S
C1029 C1030 1.392 . S
C1029 C1033 1.495 . S
C1030 C1029 1.392 . S
C1030 C1031 1.385 . S
C1030 C1032 1.478 . S
C1031 H1025 0.930 . S
C1031 C1027 1.400 . S
C1031 C1030 1.385 . S
C1032 C1030 1.478 . S
C1032 C1034 1.381 . S
C1032 C1038 1.383 1_565 S
C1033 C1029 1.495 . S
C1033 H1039 0.959 . S
C1033 H1040 0.961 1_565 S
C1033 H1041 0.960 . S
C1034 C1032 1.381 . S
C1034 C1035 1.394 . S
C1034 H1042 0.930 . S
C1035 C1034 1.394 . S
C1035 C1036 1.383 . S
C1035 H1043 0.929 . S
C1036 C1035 1.383 . S
C1036 C1037 1.377 1_565 S
C1037 H1021 0.930 . S
C1037 C1036 1.377 1_545 S
C1037 C1038 1.379 . S
C1038 H1022 0.931 . S
C1038 C1032 1.383 1_545 S
C1038 C1037 1.379 . S
H1039 C1033 0.959 . S
H1040 C1033 0.961 1_545 S
H1041 C1033 0.960 . S
H1042 C1034 0.930 . S
H1043 C1035 0.929 . S
H1044 C1052 0.929 . S
H1045 C1054 0.930 . S
H1046 C1056 0.930 . S
H1047 C1059 0.929 . S
H1048 C1062 0.930 . S
H1049 C1064 0.960 . S
H1050 C1064 0.960 . S
H1051 C1064 0.960 . S
C1052 H1044 0.929 . S
C1052 C1053 1.377 . S
C1052 C1054 1.384 . S
C1053 C1052 1.377 . S
C1053 C1059 1.390 . S
C1054 H1045 0.930 . S
C1054 C1052 1.384 . S
C1054 C1055 1.372 . S
C1055 C1054 1.372 . S
C1055 C1056 1.400 . S
C1055 C1060 1.490 . S
C1056 H1046 0.930 . S
C1056 C1055 1.400 . S
C1056 C1059 1.386 . S
H1057 C1073 0.930 . S
H1058 C1074 0.931 . S
C1059 H1047 0.929 . S
C1059 C1053 1.390 . S
C1059 C1056 1.386 . S
C1060 C1055 1.490 . S
C1060 C1062 1.395 . S
C1060 C1063 1.403 . S
H1061 C1067 0.930 . S
C1062 H1048 0.930 . S
C1062 C1060 1.395 . S
C1062 C1065 1.403 . S
C1063 C1060 1.403 . S
C1063 C1064 1.524 . S
C1063 C1067 1.400 . S
C1064 H1049 0.960 . S
C1064 H1050 0.960 . S
C1064 H1051 0.960 . S
C1064 C1063 1.524 . S
C1065 C1062 1.403 . S
C1065 C1066 1.392 . S
C1065 C1069 1.495 . S
C1066 C1065 1.392 . S
C1066 C1067 1.385 . S
C1066 C1068 1.478 . S
C1067 H1061 0.930 . S
C1067 C1063 1.400 . S
C1067 C1066 1.385 . S
C1068 C1066 1.478 . S
C1068 C1070 1.381 . S
C1068 C1074 1.383 . S
C1069 C1065 1.495 . S
C1069 H1075 0.959 . S
C1069 H1076 0.961 . S
C1069 H1077 0.960 . S
C1070 C1068 1.381 . S
C1070 C1071 1.394 . S
C1070 H1078 0.930 . S
C1071 C1070 1.394 . S
C1071 C1072 1.383 . S
C1071 H1079 0.929 . S
C1072 C1071 1.383 . S
C1072 C1073 1.377 . S
C1073 H1057 0.930 . S
C1073 C1072 1.377 . S
C1073 C1074 1.379 . S
C1074 H1058 0.931 . S
C1074 C1068 1.383 . S
C1074 C1073 1.379 . S
H1075 C1069 0.959 . S
H1076 C1069 0.961 . S
H1077 C1069 0.960 . S
H1078 C1070 0.930 . S
H1079 C1071 0.929 . S
H1080 C1088 0.929 . S
H1081 C1090 0.930 . S
H1082 C1092 0.930 . S
H1083 C1095 0.929 . S
H1084 C1098 0.930 . S
H1085 C1100 0.960 1_655 S
H1086 C1100 0.960 . S
H1087 C1100 0.960 . S
C1088 H1080 0.929 . S
C1088 C1089 1.377 . S
C1088 C1090 1.384 . S
C1089 C1088 1.377 . S
C1089 C1095 1.390 . S
C1090 H1081 0.930 . S
C1090 C1088 1.384 . S
C1090 C1091 1.372 . S
C1091 C1090 1.372 . S
C1091 C1092 1.400 . S
C1091 C1096 1.490 . S
C1092 H1082 0.930 . S
C1092 C1091 1.400 . S
C1092 C1095 1.386 . S
H1093 C1109 0.930 . S
H1094 C1110 0.931 . S
C1095 H1083 0.929 . S
C1095 C1089 1.390 . S
C1095 C1092 1.386 . S
C1096 C1091 1.490 . S
C1096 C1098 1.395 . S
C1096 C1099 1.403 . S
H1097 C1103 0.930 . S
C1098 H1084 0.930 . S
C1098 C1096 1.395 . S
C1098 C1101 1.403 . S
C1099 C1096 1.403 . S
C1099 C1100 1.524 . S
C1099 C1103 1.400 . S
C1100 H1085 0.960 1_455 S
C1100 H1086 0.960 . S
C1100 H1087 0.960 . S
C1100 C1099 1.524 . S
C1101 C1098 1.403 . S
C1101 C1102 1.392 . S
C1101 C1105 1.495 . S
C1102 C1101 1.392 . S
C1102 C1103 1.385 . S
C1102 C1104 1.478 . S
C1103 H1097 0.930 . S
C1103 C1099 1.400 . S
C1103 C1102 1.385 . S
C1104 C1102 1.478 . S
C1104 C1106 1.381 . S
C1104 C1110 1.383 . S
C1105 C1101 1.495 . S
C1105 H1111 0.959 . S
C1105 H1112 0.961 . S
C1105 H1113 0.960 . S
C1106 C1104 1.381 . S
C1106 C1107 1.394 . S
C1106 H1114 0.930 . S
C1107 C1106 1.394 . S
C1107 C1108 1.383 . S
C1107 H1115 0.929 . S
C1108 C1107 1.383 . S
C1108 C1109 1.377 . S
C1109 H1093 0.930 . S
C1109 C1108 1.377 . S
C1109 C1110 1.379 . S
C1110 H1094 0.931 . S
C1110 C1104 1.383 . S
C1110 C1109 1.379 . S
H1111 C1105 0.959 . S
H1112 C1105 0.961 . S
H1113 C1105 0.960 . S
H1114 C1106 0.930 . S
H1115 C1107 0.929 . S
H1116 C1124 0.929 . S
H1117 C1126 0.930 . S
H1118 C1128 0.930 . S
H1119 C1131 0.929 1_565 S
H1120 C1134 0.930 . S
H1121 C1136 0.960 . S
H1122 C1136 0.960 . S
H1123 C1136 0.960 . S
C1124 H1116 0.929 . S
C1124 C1125 1.377 . S
C1124 C1126 1.384 . S
C1125 C1124 1.377 . S
C1125 C1131 1.390 . S
C1126 H1117 0.930 . S
C1126 C1124 1.384 . S
C1126 C1127 1.372 . S
C1127 C1126 1.372 . S
C1127 C1128 1.400 . S
C1127 C1132 1.490 . S
C1128 H1118 0.930 . S
C1128 C1127 1.400 . S
C1128 C1131 1.386 . S
H1129 C1145 0.930 . S
H1130 C1146 0.931 . S
C1131 H1119 0.929 1_545 S
C1131 C1125 1.390 . S
C1131 C1128 1.386 . S
C1132 C1127 1.490 . S
C1132 C1134 1.395 . S
C1132 C1135 1.403 . S
H1133 C1139 0.930 . S
C1134 H1120 0.930 . S
C1134 C1132 1.395 . S
C1134 C1137 1.403 . S
C1135 C1132 1.403 . S
C1135 C1136 1.524 . S
C1135 C1139 1.400 . S
C1136 H1121 0.960 . S
C1136 H1122 0.960 . S
C1136 H1123 0.960 . S
C1136 C1135 1.524 . S
C1137 C1134 1.403 . S
C1137 C1138 1.392 . S
C1137 C1141 1.495 . S
C1138 C1137 1.392 . S
C1138 C1139 1.385 . S
C1138 C1140 1.478 . S
C1139 H1133 0.930 . S
C1139 C1135 1.400 . S
C1139 C1138 1.385 . S
C1140 C1138 1.478 . S
C1140 C1142 1.381 . S
C1140 C1146 1.383 . S
C1141 C1137 1.495 . S
C1141 H1147 0.959 . S
C1141 H1148 0.961 . S
C1141 H1149 0.960 . S
C1142 C1140 1.381 . S
C1142 C1143 1.394 . S
C1142 H1150 0.930 . S
C1143 C1142 1.394 . S
C1143 C1144 1.383 . S
C1143 H1151 0.929 . S
C1144 C1143 1.383 . S
C1144 C1145 1.377 . S
C1145 H1129 0.930 . S
C1145 C1144 1.377 . S
C1145 C1146 1.379 . S
C1146 H1130 0.931 . S
C1146 C1140 1.383 . S
C1146 C1145 1.379 . S
H1147 C1141 0.959 . S
H1148 C1141 0.961 . S
H1149 C1141 0.960 . S
H1150 C1142 0.930 . S
H1151 C1143 0.929 . S
H1152 C1160 0.929 . S
H1153 C1162 0.930 . S
H1154 C1164 0.930 . S
H1155 C1167 0.929 . S
H1156 C1170 0.930 . S
H1157 C1172 0.960 . S
H1158 C1172 0.960 . S
H1159 C1172 0.960 . S
C1160 H1152 0.929 . S
C1160 C1161 1.377 . S
C1160 C1162 1.384 . S
C1161 C1160 1.377 . S
C1161 C1167 1.390 . S
C1162 H1153 0.930 . S
C1162 C1160 1.384 . S
C1162 C1163 1.372 . S
C1163 C1162 1.372 . S
C1163 C1164 1.400 . S
C1163 C1168 1.490 . S
C1164 H1154 0.930 . S
C1164 C1163 1.400 . S
C1164 C1167 1.386 . S
H1165 C1181 0.930 . S
H1166 C1182 0.931 . S
C1167 H1155 0.929 . S
C1167 C1161 1.390 . S
C1167 C1164 1.386 . S
C1168 C1163 1.490 . S
C1168 C1170 1.395 . S
C1168 C1171 1.403 . S
H1169 C1175 0.930 . S
C1170 H1156 0.930 . S
C1170 C1168 1.395 . S
C1170 C1173 1.403 . S
C1171 C1168 1.403 . S
C1171 C1172 1.524 . S
C1171 C1175 1.400 . S
C1172 H1157 0.960 . S
C1172 H1158 0.960 . S
C1172 H1159 0.960 . S
C1172 C1171 1.524 . S
C1173 C1170 1.403 . S
C1173 C1174 1.392 . S
C1173 C1177 1.495 . S
C1174 C1173 1.392 . S
C1174 C1175 1.385 . S
C1174 C1176 1.478 . S
C1175 H1169 0.930 . S
C1175 C1171 1.400 . S
C1175 C1174 1.385 . S
C1176 C1174 1.478 . S
C1176 C1178 1.381 . S
C1176 C1182 1.383 . S
C1177 C1173 1.495 . S
C1177 H1183 0.959 . S
C1177 H1184 0.961 . S
C1177 H1185 0.960 . S
C1178 C1176 1.381 . S
C1178 C1179 1.394 . S
C1178 H1186 0.930 . S
C1179 C1178 1.394 . S
C1179 C1180 1.383 . S
C1179 H1187 0.929 . S
C1180 C1179 1.383 . S
C1180 C1181 1.377 . S
C1181 H1165 0.930 . S
C1181 C1180 1.377 . S
C1181 C1182 1.379 . S
C1182 H1166 0.931 . S
C1182 C1176 1.383 . S
C1182 C1181 1.379 . S
H1183 C1177 0.959 . S
H1184 C1177 0.961 . S
H1185 C1177 0.960 . S
H1186 C1178 0.930 . S
H1187 C1179 0.929 . S
H1188 C1196 0.929 1_455 S
H1189 C1198 0.930 1_455 S
H1190 C1200 0.930 . S
H1191 C1203 0.929 . S
H1192 C1206 0.930 . S
H1193 C1208 0.960 . S
H1194 C1208 0.960 . S
H1195 C1208 0.960 . S
C1196 H1188 0.929 1_655 S
C1196 C1197 1.377 . S
C1196 C1198 1.384 . S
C1197 C1196 1.377 . S
C1197 C1203 1.390 . S
C1198 H1189 0.930 1_655 S
C1198 C1196 1.384 . S
C1198 C1199 1.372 . S
C1199 C1198 1.372 . S
C1199 C1200 1.400 . S
C1199 C1204 1.490 . S
C1200 H1190 0.930 . S
C1200 C1199 1.400 . S
C1200 C1203 1.386 . S
H1201 C1217 0.930 . S
H1202 C1218 0.931 . S
C1203 H1191 0.929 . S
C1203 C1197 1.390 . S
C1203 C1200 1.386 . S
C1204 C1199 1.490 . S
C1204 C1206 1.395 . S
C1204 C1207 1.403 . S
H1205 C1211 0.930 . S
C1206 H1192 0.930 . S
C1206 C1204 1.395 . S
C1206 C1209 1.403 . S
C1207 C1204 1.403 . S
C1207 C1208 1.524 . S
C1207 C1211 1.400 . S
C1208 H1193 0.960 . S
C1208 H1194 0.960 . S
C1208 H1195 0.960 . S
C1208 C1207 1.524 . S
C1209 C1206 1.403 . S
C1209 C1210 1.392 . S
C1209 C1213 1.495 . S
C1210 C1209 1.392 . S
C1210 C1211 1.385 . S
C1210 C1212 1.478 . S
C1211 H1205 0.930 . S
C1211 C1207 1.400 . S
C1211 C1210 1.385 . S
C1212 C1210 1.478 . S
C1212 C1214 1.381 . S
C1212 C1218 1.383 . S
C1213 C1209 1.495 . S
C1213 H1219 0.959 . S
C1213 H1220 0.961 . S
C1213 H1221 0.960 . S
C1214 C1212 1.381 . S
C1214 C1215 1.394 . S
C1214 H1222 0.930 . S
C1215 C1214 1.394 . S
C1215 C1216 1.383 . S
C1215 H1223 0.929 . S
C1216 C1215 1.383 . S
C1216 C1217 1.377 . S
C1217 H1201 0.930 . S
C1217 C1216 1.377 . S
C1217 C1218 1.379 . S
C1218 H1202 0.931 . S
C1218 C1212 1.383 . S
C1218 C1217 1.379 . S
H1219 C1213 0.959 . S
H1220 C1213 0.961 . S
H1221 C1213 0.960 . S
H1222 C1214 0.930 . S
H1223 C1215 0.929 . S
H1224 C1232 0.929 . S
H1225 C1234 0.930 1_545 S
H1226 C1236 0.930 . S
H1227 C1239 0.929 . S
H1228 C1242 0.930 . S
H1229 C1244 0.960 . S
H1230 C1244 0.960 . S
H1231 C1244 0.960 . S
C1232 H1224 0.929 . S
C1232 C1233 1.377 1_545 S
C1232 C1234 1.384 1_545 S
C1233 C1232 1.377 1_565 S
C1233 C1239 1.390 . S
C1234 H1225 0.930 1_565 S
C1234 C1232 1.384 1_565 S
C1234 C1235 1.372 . S
C1235 C1234 1.372 . S
C1235 C1236 1.400 . S
C1235 C1240 1.490 . S
C1236 H1226 0.930 . S
C1236 C1235 1.400 . S
C1236 C1239 1.386 . S
H1237 C1253 0.930 . S
H1238 C1254 0.931 . S
C1239 H1227 0.929 . S
C1239 C1233 1.390 . S
C1239 C1236 1.386 . S
C1240 C1235 1.490 . S
C1240 C1242 1.395 . S
C1240 C1243 1.403 . S
H1241 C1247 0.930 . S
C1242 H1228 0.930 . S
C1242 C1240 1.395 . S
C1242 C1245 1.403 . S
C1243 C1240 1.403 . S
C1243 C1244 1.524 . S
C1243 C1247 1.400 . S
C1244 H1229 0.960 . S
C1244 H1230 0.960 . S
C1244 H1231 0.960 . S
C1244 C1243 1.524 . S
C1245 C1242 1.403 . S
C1245 C1246 1.392 . S
C1245 C1249 1.495 . S
C1246 C1245 1.392 . S
C1246 C1247 1.385 . S
C1246 C1248 1.478 . S
C1247 H1241 0.930 . S
C1247 C1243 1.400 . S
C1247 C1246 1.385 . S
C1248 C1246 1.478 . S
C1248 C1250 1.381 . S
C1248 C1254 1.383 . S
C1249 C1245 1.495 . S
C1249 H1255 0.959 . S
C1249 H1256 0.961 . S
C1249 H1257 0.960 . S
C1250 C1248 1.381 . S
C1250 C1251 1.394 . S
C1250 H1258 0.930 . S
C1251 C1250 1.394 . S
C1251 C1252 1.383 . S
C1251 H1259 0.929 . S
C1252 C1251 1.383 . S
C1252 C1253 1.377 . S
C1253 H1237 0.930 . S
C1253 C1252 1.377 . S
C1253 C1254 1.379 . S
C1254 H1238 0.931 . S
C1254 C1248 1.383 . S
C1254 C1253 1.379 . S
H1255 C1249 0.959 . S
H1256 C1249 0.961 . S
H1257 C1249 0.960 . S
H1258 C1250 0.930 . S
H1259 C1251 0.929 . S
H1260 C1268 0.929 . S
H1261 C1270 0.930 . S
H1262 C1272 0.930 . S
H1263 C1275 0.929 . S
H1264 C1278 0.930 . S
H1265 C1280 0.960 . S
H1266 C1280 0.960 . S
H1267 C1280 0.960 . S
C1268 H1260 0.929 . S
C1268 C1269 1.377 . S
C1268 C1270 1.384 . S
C1269 C1268 1.377 . S
C1269 C1275 1.390 . S
C1270 H1261 0.930 . S
C1270 C1268 1.384 . S
C1270 C1271 1.372 . S
C1271 C1270 1.372 . S
C1271 C1272 1.400 . S
C1271 C1276 1.490 . S
C1272 H1262 0.930 . S
C1272 C1271 1.400 . S
C1272 C1275 1.386 . S
H1273 C1289 0.930 . S
H1274 C1290 0.931 . S
C1275 H1263 0.929 . S
C1275 C1269 1.390 . S
C1275 C1272 1.386 . S
C1276 C1271 1.490 . S
C1276 C1278 1.395 . S
C1276 C1279 1.403 . S
H1277 C1283 0.930 . S
C1278 H1264 0.930 . S
C1278 C1276 1.395 . S
C1278 C1281 1.403 . S
C1279 C1276 1.403 . S
C1279 C1280 1.524 . S
C1279 C1283 1.400 . S
C1280 H1265 0.960 . S
C1280 H1266 0.960 . S
C1280 H1267 0.960 . S
C1280 C1279 1.524 . S
C1281 C1278 1.403 . S
C1281 C1282 1.392 . S
C1281 C1285 1.495 . S
C1282 C1281 1.392 . S
C1282 C1283 1.385 . S
C1282 C1284 1.478 . S
C1283 H1277 0.930 . S
C1283 C1279 1.400 . S
C1283 C1282 1.385 . S
C1284 C1282 1.478 . S
C1284 C1286 1.381 . S
C1284 C1290 1.383 . S
C1285 C1281 1.495 . S
C1285 H1291 0.959 . S
C1285 H1292 0.961 . S
C1285 H1293 0.960 . S
C1286 C1284 1.381 . S
C1286 C1287 1.394 . S
C1286 H1294 0.930 . S
C1287 C1286 1.394 . S
C1287 C1288 1.383 . S
C1287 H1295 0.929 . S
C1288 C1287 1.383 . S
C1288 C1289 1.377 . S
C1289 H1273 0.930 . S
C1289 C1288 1.377 . S
C1289 C1290 1.379 . S
C1290 H1274 0.931 . S
C1290 C1284 1.383 . S
C1290 C1289 1.379 . S
H1291 C1285 0.959 . S
H1292 C1285 0.961 . S
H1293 C1285 0.960 . S
H1294 C1286 0.930 . S
H1295 C1287 0.929 . S
H1296 C1304 0.929 . S
H1297 C1306 0.930 . S
H1298 C1308 0.930 . S
H1299 C1311 0.929 . S
H1300 C1314 0.930 . S
H1301 C1316 0.960 . S
H1302 C1316 0.960 . S
H1303 C1316 0.960 . S
C1304 H1296 0.929 . S
C1304 C1305 1.377 . S
C1304 C1306 1.384 . S
C1305 C1304 1.377 . S
C1305 C1311 1.390 . S
C1306 H1297 0.930 . S
C1306 C1304 1.384 . S
C1306 C1307 1.372 . S
C1307 C1306 1.372 . S
C1307 C1308 1.400 . S
C1307 C1312 1.490 . S
C1308 H1298 0.930 . S
C1308 C1307 1.400 . S
C1308 C1311 1.386 . S
H1309 C1325 0.930 . S
H1310 C1326 0.931 . S
C1311 H1299 0.929 . S
C1311 C1305 1.390 . S
C1311 C1308 1.386 . S
C1312 C1307 1.490 . S
C1312 C1314 1.395 . S
C1312 C1315 1.403 . S
H1313 C1319 0.930 . S
C1314 H1300 0.930 . S
C1314 C1312 1.395 . S
C1314 C1317 1.403 . S
C1315 C1312 1.403 . S
C1315 C1316 1.524 . S
C1315 C1319 1.400 . S
C1316 H1301 0.960 . S
C1316 H1302 0.960 . S
C1316 H1303 0.960 . S
C1316 C1315 1.524 . S
C1317 C1314 1.403 . S
C1317 C1318 1.392 . S
C1317 C1321 1.495 1_455 S
C1318 C1317 1.392 . S
C1318 C1319 1.385 . S
C1318 C1320 1.478 . S
C1319 H1313 0.930 . S
C1319 C1315 1.400 . S
C1319 C1318 1.385 . S
C1320 C1318 1.478 . S
C1320 C1322 1.381 . S
C1320 C1326 1.383 . S
C1321 C1317 1.495 1_655 S
C1321 H1327 0.959 . S
C1321 H1328 0.961 . S
C1321 H1329 0.960 . S
C1322 C1320 1.381 . S
C1322 C1323 1.394 . S
C1322 H1330 0.930 . S
C1323 C1322 1.394 . S
C1323 C1324 1.383 . S
C1323 H1331 0.929 . S
C1324 C1323 1.383 . S
C1324 C1325 1.377 . S
C1325 H1309 0.930 . S
C1325 C1324 1.377 . S
C1325 C1326 1.379 . S
C1326 H1310 0.931 . S
C1326 C1320 1.383 . S
C1326 C1325 1.379 . S
H1327 C1321 0.959 . S
H1328 C1321 0.961 . S
H1329 C1321 0.960 . S
H1330 C1322 0.930 . S
H1331 C1323 0.929 . S
H1332 C1340 0.929 . S
H1333 C1342 0.930 . S
H1334 C1344 0.930 . S
H1335 C1347 0.929 . S
H1336 C1350 0.930 . S
H1337 C1352 0.960 . S
H1338 C1352 0.960 . S
H1339 C1352 0.960 . S
C1340 H1332 0.929 . S
C1340 C1341 1.377 . S
C1340 C1342 1.384 . S
C1341 C1340 1.377 . S
C1341 C1347 1.390 . S
C1342 H1333 0.930 . S
C1342 C1340 1.384 . S
C1342 C1343 1.372 . S
C1343 C1342 1.372 . S
C1343 C1344 1.400 . S
C1343 C1348 1.490 . S
C1344 H1334 0.930 . S
C1344 C1343 1.400 . S
C1344 C1347 1.386 . S
H1345 C1361 0.930 . S
H1346 C1362 0.931 . S
C1347 H1335 0.929 . S
C1347 C1341 1.390 . S
C1347 C1344 1.386 . S
C1348 C1343 1.490 . S
C1348 C1350 1.395 . S
C1348 C1351 1.403 . S
H1349 C1355 0.930 . S
C1350 H1336 0.930 . S
C1350 C1348 1.395 . S
C1350 C1353 1.403 . S
C1351 C1348 1.403 . S
C1351 C1352 1.524 . S
C1351 C1355 1.400 . S
C1352 H1337 0.960 . S
C1352 H1338 0.960 . S
C1352 H1339 0.960 . S
C1352 C1351 1.524 . S
C1353 C1350 1.403 . S
C1353 C1354 1.392 . S
C1353 C1357 1.495 . S
C1354 C1353 1.392 . S
C1354 C1355 1.385 . S
C1354 C1356 1.478 . S
C1355 H1349 0.930 . S
C1355 C1351 1.400 . S
C1355 C1354 1.385 . S
C1356 C1354 1.478 . S
C1356 C1358 1.381 . S
C1356 C1362 1.383 . S
C1357 C1353 1.495 . S
C1357 H1363 0.959 1_545 S
C1357 H1364 0.961 . S
C1357 H1365 0.960 . S
C1358 C1356 1.381 . S
C1358 C1359 1.394 . S
C1358 H1366 0.930 . S
C1359 C1358 1.394 . S
C1359 C1360 1.383 . S
C1359 H1367 0.929 . S
C1360 C1359 1.383 . S
C1360 C1361 1.377 . S
C1361 H1345 0.930 . S
C1361 C1360 1.377 . S
C1361 C1362 1.379 . S
C1362 H1346 0.931 . S
C1362 C1356 1.383 . S
C1362 C1361 1.379 . S
H1363 C1357 0.959 1_565 S
H1364 C1357 0.961 . S
H1365 C1357 0.960 . S
H1366 C1358 0.930 . S
H1367 C1359 0.929 . S
H1368 C1376 0.929 . S
H1369 C1378 0.930 . S
H1370 C1380 0.930 . S
H1371 C1383 0.929 . S
H1372 C1386 0.930 . S
H1373 C1388 0.960 . S
H1374 C1388 0.960 . S
H1375 C1388 0.960 . S
C1376 H1368 0.929 . S
C1376 C1377 1.377 . S
C1376 C1378 1.384 . S
C1377 C1376 1.377 . S
C1377 C1383 1.390 . S
C1378 H1369 0.930 . S
C1378 C1376 1.384 . S
C1378 C1379 1.372 . S
C1379 C1378 1.372 . S
C1379 C1380 1.400 . S
C1379 C1384 1.490 . S
C1380 H1370 0.930 . S
C1380 C1379 1.400 . S
C1380 C1383 1.386 . S
H1381 C1397 0.930 . S
H1382 C1398 0.931 . S
C1383 H1371 0.929 . S
C1383 C1377 1.390 . S
C1383 C1380 1.386 . S
C1384 C1379 1.490 . S
C1384 C1386 1.395 . S
C1384 C1387 1.403 . S
H1385 C1391 0.930 . S
C1386 H1372 0.930 . S
C1386 C1384 1.395 . S
C1386 C1389 1.403 . S
C1387 C1384 1.403 . S
C1387 C1388 1.524 . S
C1387 C1391 1.400 . S
C1388 H1373 0.960 . S
C1388 H1374 0.960 . S
C1388 H1375 0.960 . S
C1388 C1387 1.524 . S
C1389 C1386 1.403 . S
C1389 C1390 1.392 . S
C1389 C1393 1.495 . S
C1390 C1389 1.392 . S
C1390 C1391 1.385 . S
C1390 C1392 1.478 . S
C1391 H1385 0.930 . S
C1391 C1387 1.400 . S
C1391 C1390 1.385 . S
C1392 C1390 1.478 . S
C1392 C1394 1.381 . S
C1392 C1398 1.383 . S
C1393 C1389 1.495 . S
C1393 H1399 0.959 . S
C1393 H1400 0.961 . S
C1393 H1401 0.960 . S
C1394 C1392 1.381 . S
C1394 C1395 1.394 . S
C1394 H1402 0.930 . S
C1395 C1394 1.394 . S
C1395 C1396 1.383 . S
C1395 H1403 0.929 . S
C1396 C1395 1.383 . S
C1396 C1397 1.377 . S
C1397 H1381 0.930 . S
C1397 C1396 1.377 . S
C1397 C1398 1.379 . S
C1398 H1382 0.931 . S
C1398 C1392 1.383 . S
C1398 C1397 1.379 . S
H1399 C1393 0.959 . S
H1400 C1393 0.961 . S
H1401 C1393 0.960 . S
H1402 C1394 0.930 . S
H1403 C1395 0.929 . S
H1404 C1412 0.929 . S
H1405 C1414 0.930 . S
H1406 C1416 0.930 . S
H1407 C1419 0.929 1_455 S
H1408 C1422 0.930 . S
H1409 C1424 0.960 . S
H1410 C1424 0.960 . S
H1411 C1424 0.960 . S
C1412 H1404 0.929 . S
C1412 C1413 1.377 . S
C1412 C1414 1.384 . S
C1413 C1412 1.377 . S
C1413 C1419 1.390 . S
C1414 H1405 0.930 . S
C1414 C1412 1.384 . S
C1414 C1415 1.372 . S
C1415 C1414 1.372 . S
C1415 C1416 1.400 . S
C1415 C1420 1.490 . S
C1416 H1406 0.930 . S
C1416 C1415 1.400 . S
C1416 C1419 1.386 . S
H1417 C1433 0.930 . S
H1418 C1434 0.931 . S
C1419 H1407 0.929 1_655 S
C1419 C1413 1.390 . S
C1419 C1416 1.386 . S
C1420 C1415 1.490 . S
C1420 C1422 1.395 . S
C1420 C1423 1.403 . S
H1421 C1427 0.930 . S
C1422 H1408 0.930 . S
C1422 C1420 1.395 . S
C1422 C1425 1.403 . S
C1423 C1420 1.403 . S
C1423 C1424 1.524 1_655 S
C1423 C1427 1.400 . S
C1424 H1409 0.960 . S
C1424 H1410 0.960 . S
C1424 H1411 0.960 . S
C1424 C1423 1.524 1_455 S
C1425 C1422 1.403 . S
C1425 C1426 1.392 . S
C1425 C1429 1.495 . S
C1426 C1425 1.392 . S
C1426 C1427 1.385 . S
C1426 C1428 1.478 . S
C1427 H1421 0.930 . S
C1427 C1423 1.400 . S
C1427 C1426 1.385 . S
C1428 C1426 1.478 . S
C1428 C1430 1.381 . S
C1428 C1434 1.383 . S
C1429 C1425 1.495 . S
C1429 H1435 0.959 . S
C1429 H1436 0.961 . S
C1429 H1437 0.960 . S
C1430 C1428 1.381 . S
C1430 C1431 1.394 . S
C1430 H1438 0.930 . S
C1431 C1430 1.394 . S
C1431 C1432 1.383 . S
C1431 H1439 0.929 . S
C1432 C1431 1.383 . S
C1432 C1433 1.377 . S
C1433 H1417 0.930 . S
C1433 C1432 1.377 . S
C1433 C1434 1.379 . S
C1434 H1418 0.931 . S
C1434 C1428 1.383 . S
C1434 C1433 1.379 . S
H1435 C1429 0.959 . S
H1436 C1429 0.961 . S
H1437 C1429 0.960 . S
H1438 C1430 0.930 . S
H1439 C1431 0.929 . S
H1440 C1448 0.929 . S
H1441 C1450 0.930 . S
H1442 C1452 0.930 . S
H1443 C1455 0.929 . S
H1444 C1458 0.930 . S
H1445 C1460 0.960 . S
H1446 C1460 0.960 . S
H1447 C1460 0.960 . S
C1448 H1440 0.929 . S
C1448 C1449 1.377 . S
C1448 C1450 1.384 . S
C1449 C1448 1.377 . S
C1449 C1455 1.390 . S
C1450 H1441 0.930 . S
C1450 C1448 1.384 . S
C1450 C1451 1.372 . S
C1451 C1450 1.372 . S
C1451 C1452 1.400 . S
C1451 C1456 1.490 . S
C1452 H1442 0.930 . S
C1452 C1451 1.400 . S
C1452 C1455 1.386 . S
H1453 C1469 0.930 . S
H1454 C1470 0.931 . S
C1455 H1443 0.929 . S
C1455 C1449 1.390 . S
C1455 C1452 1.386 . S
C1456 C1451 1.490 . S
C1456 C1458 1.395 . S
C1456 C1459 1.403 . S
H1457 C1463 0.930 . S
C1458 H1444 0.930 . S
C1458 C1456 1.395 . S
C1458 C1461 1.403 . S
C1459 C1456 1.403 . S
C1459 C1460 1.524 . S
C1459 C1463 1.400 . S
C1460 H1445 0.960 . S
C1460 H1446 0.960 . S
C1460 H1447 0.960 . S
C1460 C1459 1.524 . S
C1461 C1458 1.403 . S
C1461 C1462 1.392 . S
C1461 C1465 1.495 . S
C1462 C1461 1.392 . S
C1462 C1463 1.385 . S
C1462 C1464 1.478 . S
C1463 H1457 0.930 . S
C1463 C1459 1.400 . S
C1463 C1462 1.385 . S
C1464 C1462 1.478 . S
C1464 C1466 1.381 . S
C1464 C1470 1.383 . S
C1465 C1461 1.495 . S
C1465 H1471 0.959 . S
C1465 H1472 0.961 . S
C1465 H1473 0.960 . S
C1466 C1464 1.381 . S
C1466 C1467 1.394 . S
C1466 H1474 0.930 . S
C1467 C1466 1.394 . S
C1467 C1468 1.383 . S
C1467 H1475 0.929 . S
C1468 C1467 1.383 . S
C1468 C1469 1.377 . S
C1469 H1453 0.930 . S
C1469 C1468 1.377 . S
C1469 C1470 1.379 . S
C1470 H1454 0.931 . S
C1470 C1464 1.383 . S
C1470 C1469 1.379 . S
H1471 C1465 0.959 . S
H1472 C1465 0.961 . S
H1473 C1465 0.960 . S
H1474 C1466 0.930 . S
H1475 C1467 0.929 . S
C405 C18 1.809 . S
C424 C370 1.754 . S
C441 C51 1.811 . S
C460 C205 1.759 . S
C477 C238 1.750 . S
C496 C84 1.815 . S
C513 C271 1.750 . S
C532 C117 1.814 . S
C549 C150 1.812 . S
C568 C304 1.748 . S
C585 C183 1.810 . S
C604 C337 1.743 . S
C621 C40 1.757 . S
C640 C216 1.807 . S
C657 C249 1.811 . S
C676 C73 1.764 . S
C693 C106 1.757 . S
C712 C282 1.806 . S
C729 C315 1.810 . S
C748 C139 1.760 . S
C765 C348 1.812 . S
C784 C172 1.732 . S
C801 C7 1.749 . S
C820 C381 1.814 . S
C837 N200 0.340 . S
C856 N2 0.349 . S
C873 N35 0.342 . S
C892 N233 0.297 . S
C909 N68 0.337 . S
C928 N266 0.237 . S
C945 N101 0.327 . S
C964 N299 0.228 . S
C981 N332 0.328 . S
C1000 N134 0.226 . S
C1017 N365 0.302 . S
C1036 N167 0.354 . S
C1053 C186 0.896 . S
C1072 N13 0.932 . S
C1089 C21 0.892 . S
C1108 N46 0.909 . S
C1125 N79 0.897 . S
C1144 C54 0.912 . S
C1161 N112 0.888 . S
C1180 C87 0.857 . S
C1197 N145 0.904 . S
C1216 C120 0.925 . S
C1233 N178 0.902 . S
C1252 C153 0.911 . S
C1269 N211 0.896 . S
C1288 C252 0.874 . S
C1305 C285 0.879 . S
C1324 N244 0.881 . S
C1341 N277 0.902 . S
C1360 C318 0.934 . S
C1377 N310 0.903 . S
C1396 C351 0.935 . S
C1413 N343 0.886 . S
C1432 C384 0.833 . S
C1449 N376 0.902 . S
C1468 C219 0.932 . S
