# Generated by pormake.
# Topology bcs, (6)-cn, num edge types: 1
# Building blocks:
#     Node 0, Type 0, BuildingBlock: CUWYAW_clean_sbu_0, # of connection points: 6
#     Node 1, Type 0, BuildingBlock: CUWYAW_clean_sbu_0, # of connection points: 6
#     Node 2, Type 0, BuildingBlock: CUWYAW_clean_sbu_0, # of connection points: 6
#     Node 3, Type 0, BuildingBlock: CUWYAW_clean_sbu_0, # of connection points: 6
#     Node 4, Type 0, BuildingBlock: CUWYAW_clean_sbu_0, # of connection points: 6
#     Node 5, Type 0, BuildingBlock: CUWYAW_clean_sbu_0, # of connection points: 6
#     Node 6, Type 0, BuildingBlock: CUWYAW_clean_sbu_0, # of connection points: 6
#     Node 7, Type 0, BuildingBlock: CUWYAW_clean_sbu_0, # of connection points: 6
#     Node 8, Type 0, BuildingBlock: CUWYAW_clean_sbu_0, # of connection points: 6
#     Node 9, Type 0, BuildingBlock: CUWYAW_clean_sbu_0, # of connection points: 6
#     Node 10, Type 0, BuildingBlock: CUWYAW_clean_sbu_0, # of connection points: 6
#     Node 11, Type 0, BuildingBlock: CUWYAW_clean_sbu_0, # of connection points: 6
#     Node 12, Type 0, BuildingBlock: CUWYAW_clean_sbu_0, # of connection points: 6
#     Node 13, Type 0, BuildingBlock: CUWYAW_clean_sbu_0, # of connection points: 6
#     Node 14, Type 0, BuildingBlock: CUWYAW_clean_sbu_0, # of connection points: 6
#     Node 15, Type 0, BuildingBlock: CUWYAW_clean_sbu_0, # of connection points: 6
#     Edge 16, Type (0, 0), BuildingBlock: ZUJKAS_clean_linker_0, # of connection points: 2
#     Edge 17, Type (0, 0), BuildingBlock: ZUJKAS_clean_linker_0, # of connection points: 2
#     Edge 18, Type (0, 0), BuildingBlock: ZUJKAS_clean_linker_0, # of connection points: 2
#     Edge 19, Type (0, 0), BuildingBlock: ZUJKAS_clean_linker_0, # of connection points: 2
#     Edge 20, Type (0, 0), BuildingBlock: ZUJKAS_clean_linker_0, # of connection points: 2
#     Edge 21, Type (0, 0), BuildingBlock: ZUJKAS_clean_linker_0, # of connection points: 2
#     Edge 22, Type (0, 0), BuildingBlock: ZUJKAS_clean_linker_0, # of connection points: 2
#     Edge 23, Type (0, 0), BuildingBlock: ZUJKAS_clean_linker_0, # of connection points: 2
#     Edge 24, Type (0, 0), BuildingBlock: ZUJKAS_clean_linker_0, # of connection points: 2
#     Edge 25, Type (0, 0), BuildingBlock: ZUJKAS_clean_linker_0, # of connection points: 2
#     Edge 26, Type (0, 0), BuildingBlock: ZUJKAS_clean_linker_0, # of connection points: 2
#     Edge 27, Type (0, 0), BuildingBlock: ZUJKAS_clean_linker_0, # of connection points: 2
#     Edge 28, Type (0, 0), BuildingBlock: ZUJKAS_clean_linker_0, # of connection points: 2
#     Edge 29, Type (0, 0), BuildingBlock: ZUJKAS_clean_linker_0, # of connection points: 2
#     Edge 30, Type (0, 0), BuildingBlock: ZUJKAS_clean_linker_0, # of connection points: 2
#     Edge 31, Type (0, 0), BuildingBlock: ZUJKAS_clean_linker_0, # of connection points: 2
#     Edge 32, Type (0, 0), BuildingBlock: ZUJKAS_clean_linker_0, # of connection points: 2
#     Edge 33, Type (0, 0), BuildingBlock: ZUJKAS_clean_linker_0, # of connection points: 2
#     Edge 34, Type (0, 0), BuildingBlock: ZUJKAS_clean_linker_0, # of connection points: 2
#     Edge 35, Type (0, 0), BuildingBlock: ZUJKAS_clean_linker_0, # of connection points: 2
#     Edge 36, Type (0, 0), BuildingBlock: ZUJKAS_clean_linker_0, # of connection points: 2
#     Edge 37, Type (0, 0), BuildingBlock: ZUJKAS_clean_linker_0, # of connection points: 2
#     Edge 38, Type (0, 0), BuildingBlock: ZUJKAS_clean_linker_0, # of connection points: 2
#     Edge 39, Type (0, 0), BuildingBlock: ZUJKAS_clean_linker_0, # of connection points: 2
#     Edge 40, Type (0, 0), BuildingBlock: ZUJKAS_clean_linker_0, # of connection points: 2
#     Edge 41, Type (0, 0), BuildingBlock: ZUJKAS_clean_linker_0, # of connection points: 2
#     Edge 42, Type (0, 0), BuildingBlock: ZUJKAS_clean_linker_0, # of connection points: 2
#     Edge 43, Type (0, 0), BuildingBlock: ZUJKAS_clean_linker_0, # of connection points: 2
#     Edge 44, Type (0, 0), BuildingBlock: ZUJKAS_clean_linker_0, # of connection points: 2
#     Edge 45, Type (0, 0), BuildingBlock: ZUJKAS_clean_linker_0, # of connection points: 2
#     Edge 46, Type (0, 0), BuildingBlock: ZUJKAS_clean_linker_0, # of connection points: 2
#     Edge 47, Type (0, 0), BuildingBlock: ZUJKAS_clean_linker_0, # of connection points: 2
#     Edge 48, Type (0, 0), BuildingBlock: ZUJKAS_clean_linker_0, # of connection points: 2
#     Edge 49, Type (0, 0), BuildingBlock: ZUJKAS_clean_linker_0, # of connection points: 2
#     Edge 50, Type (0, 0), BuildingBlock: ZUJKAS_clean_linker_0, # of connection points: 2
#     Edge 51, Type (0, 0), BuildingBlock: ZUJKAS_clean_linker_0, # of connection points: 2
#     Edge 52, Type (0, 0), BuildingBlock: ZUJKAS_clean_linker_0, # of connection points: 2
#     Edge 53, Type (0, 0), BuildingBlock: ZUJKAS_clean_linker_0, # of connection points: 2
#     Edge 54, Type (0, 0), BuildingBlock: ZUJKAS_clean_linker_0, # of connection points: 2
#     Edge 55, Type (0, 0), BuildingBlock: ZUJKAS_clean_linker_0, # of connection points: 2
#     Edge 56, Type (0, 0), BuildingBlock: ZUJKAS_clean_linker_0, # of connection points: 2
#     Edge 57, Type (0, 0), BuildingBlock: ZUJKAS_clean_linker_0, # of connection points: 2
#     Edge 58, Type (0, 0), BuildingBlock: ZUJKAS_clean_linker_0, # of connection points: 2
#     Edge 59, Type (0, 0), BuildingBlock: ZUJKAS_clean_linker_0, # of connection points: 2
#     Edge 60, Type (0, 0), BuildingBlock: ZUJKAS_clean_linker_0, # of connection points: 2
#     Edge 61, Type (0, 0), BuildingBlock: ZUJKAS_clean_linker_0, # of connection points: 2
#     Edge 62, Type (0, 0), BuildingBlock: ZUJKAS_clean_linker_0, # of connection points: 2
#     Edge 63, Type (0, 0), BuildingBlock: ZUJKAS_clean_linker_0, # of connection points: 2
# Relax obj value: 0.202
# Max RMSD: 0.213
# Mean RMSD: 0.158
data_MOF--net-bcs--node1-CUWYAW_clean_sbu_0--edge1-ZUJKAS_clean_linker_0
_symmetry_space_group_name_H-M    P1
_symmetry_Int_Tables_number       1
_symmetry_cell_setting            triclinic
loop_
_symmetry_equiv_pos_as_xyz
'x, y, z'
_cell_length_a     52.702232
_cell_length_b     52.329022
_cell_length_c     49.157421
_cell_angle_alpha  82.048811
_cell_angle_beta   109.69282
_cell_angle_gamma 104.39239
loop_
_atom_site_label
_atom_site_type_symbol
_atom_site_fract_x
_atom_site_fract_y
_atom_site_fract_z
_atom_type_partial_charge
C0 C 1.02888 0.06428 0.06665 0.0
Eu1 Eu 0.04958 0.0387 0.03744 0.0
C2 C 1.01464 0.07818 0.08234 0.0
C3 C 1.02916 0.09792 0.10266 0.0
C4 C 1.01547 0.11112 0.1157 0.0
C5 C 0.98617 0.10554 0.1096 0.0
C6 C 0.97182 0.08563 0.08934 0.0
C7 C 0.98546 0.07261 0.07622 0.0
C8 C 0.08251 0.06082 0.99776 0.0
C9 C 1.0075 0.04071 0.96886 0.0
C10 C 0.06589 0.96873 0.96466 0.0
Eu11 Eu 1.04466 0.99407 0.99352 0.0
C12 C 0.07993 0.95533 0.94834 0.0
C13 C 0.06824 0.93003 0.9367 0.0
C14 C 0.08242 0.91705 0.92406 0.0
C15 C 0.1092 0.92859 0.9216 0.0
C16 C 0.1206 0.95411 0.93287 0.0
C17 C 0.10668 0.9668 0.94602 0.0
C18 C 1.01162 0.97189 0.03305 0.0
C19 C 0.08641 0.99174 0.06218 0.0
O20 O 1.01437 0.04758 0.04664 0.0
O21 O 0.05561 0.06657 0.07184 0.0
O22 O 0.08101 0.07188 0.01951 0.0
O23 O 0.06677 0.03744 1.00003 0.0
O24 O 1.01605 0.04756 0.99603 0.0
O25 O 1.0163 0.02127 0.96161 0.0
O26 O 0.08012 0.98693 0.98309 0.0
O27 O 1.03919 0.96499 0.96069 0.0
O28 O 1.01317 0.9609 1.01127 0.0
O29 O 1.02739 0.99531 0.03093 0.0
O30 O 0.07796 0.98493 0.03502 0.0
O31 O 0.07761 1.01121 0.06936 0.0
H32 H 0.05143 0.10349 0.10847 0.0
H33 H 1.0283 0.12576 0.13101 0.0
H34 H 0.94954 0.08014 0.08291 0.0
H35 H 0.97275 0.05799 0.06081 0.0
H36 H 0.04806 0.91976 0.93787 0.0
H37 H 0.07201 0.89775 0.91591 0.0
H38 H 0.14095 0.96434 0.93224 0.0
H39 H 0.11722 0.98594 0.95461 0.0
C40 C 0.35751 0.8088 0.24062 0.0
Eu41 Eu 0.31719 0.78113 0.25823 0.0
C42 C 0.35775 0.83018 0.21808 0.0
C43 C 0.33369 0.83977 0.20381 0.0
C44 C 0.33416 0.86149 0.18392 0.0
C45 C 0.35863 0.87366 0.1777 0.0
C46 C 0.38256 0.86362 0.19156 0.0
C47 C 0.38214 0.84206 0.21175 0.0
C48 C 0.27238 0.74875 0.22462 0.0
C49 C 0.26215 0.80572 0.24312 0.0
C50 C 0.24098 0.72162 0.30866 0.0
Eu51 Eu 0.2764 0.75471 0.28765 0.0
C52 C 0.23699 0.69367 0.31885 0.0
C53 C 0.22333 0.68511 0.33948 0.0
C54 C 0.22063 0.65903 0.35086 0.0
C55 C 0.23154 0.641 0.34178 0.0
C56 C 0.24493 0.6495 0.32074 0.0
C57 C 0.24785 0.67579 0.30951 0.0
C58 C 0.30981 0.79984 0.3117 0.0
C59 C 0.33158 0.7291 0.30202 0.0
O60 O 0.35199 0.81453 0.26281 0.0
O61 O 0.34394 0.78535 0.23161 0.0
O62 O 0.28389 0.77159 0.21542 0.0
O63 O 0.28529 0.74375 0.25073 0.0
O64 O 0.289 0.81134 0.24623 0.0
O65 O 0.25128 0.78258 0.25429 0.0
O66 O 0.23685 0.7268 0.28084 0.0
O67 O 0.26295 0.73713 0.32458 0.0
O68 O 0.2839 0.79247 0.30955 0.0
O69 O 0.31724 0.78235 0.3028 0.0
O70 O 0.30806 0.72792 0.30715 0.0
O71 O 0.33948 0.74792 0.2835 0.0
H72 H 0.31462 0.83067 0.20835 0.0
H73 H 0.31542 0.86871 0.17333 0.0
H74 H 0.40176 0.87285 0.18728 0.0
H75 H 0.40089 0.83494 0.22271 0.0
H76 H 0.21495 0.69868 0.34699 0.0
H77 H 0.20974 0.6529 0.36664 0.0
H78 H 0.25351 0.63599 0.31341 0.0
H79 H 0.2588 0.68221 0.2938 0.0
C80 C 0.54242 0.99568 0.43874 0.0
Eu81 Eu 0.55019 1.0148 0.48762 0.0
C82 C 0.54173 0.96943 0.43099 0.0
C83 C 0.5473 0.96671 0.40582 0.0
C84 C 0.54891 0.94204 0.39961 0.0
C85 C 0.54472 0.91959 0.41839 0.0
C86 C 0.53805 0.92235 0.44307 0.0
C87 C 0.53689 0.94712 0.44946 0.0
C88 C 0.58827 0.05636 0.51461 0.0
C89 C 0.58041 0.98545 0.54808 0.0
C90 C 0.54899 0.0484 0.58889 0.0
Eu91 Eu 0.54132 0.02923 0.54011 0.0
C92 C 0.54863 0.07436 0.59658 0.0
C93 C 0.53276 0.09063 0.57641 0.0
C94 C 0.53208 0.11508 0.58404 0.0
C95 C 0.54745 0.12374 0.61186 0.0
C96 C 0.56435 0.10793 0.63152 0.0
C97 C 0.56489 0.08336 0.62391 0.0
C98 C 0.50294 0.98829 0.51256 0.0
C99 C 0.51054 0.05799 0.47946 0.0
O100 O 0.52225 0.99713 0.44793 0.0
O101 O 0.56652 1.00847 0.45441 0.0
O102 O 0.59416 0.03933 0.50213 0.0
O103 O 0.56271 0.05179 0.51026 0.0
O104 O 0.57126 0.98433 0.51949 0.0
O105 O 0.57293 1.00229 0.56037 0.0
O106 O 0.56918 0.04813 0.57922 0.0
O107 O 0.52524 0.03441 0.57388 0.0
O108 O 0.49701 1.00597 0.52411 0.0
O109 O 0.52858 0.99227 0.51749 0.0
O110 O 0.51997 0.05948 0.50802 0.0
O111 O 0.51802 0.04108 0.46728 0.0
H112 H 0.55128 0.9838 0.39146 0.0
H113 H 0.55474 0.94092 0.38076 0.0
H114 H 0.53437 0.90553 0.45783 0.0
H115 H 0.5329 0.94898 0.4692 0.0
H116 H 0.52053 0.08424 0.55494 0.0
H117 H 0.51905 0.12699 0.56843 0.0
H118 H 0.57618 0.11402 0.65321 0.0
H119 H 0.57759 0.07119 0.63954 0.0
C120 C 0.25402 0.31637 0.76142 0.0
Eu121 Eu 0.28109 0.2829 0.75691 0.0
C122 C 0.23709 0.31466 0.78033 0.0
C123 C 0.21019 0.31891 0.76863 0.0
C124 C 0.19361 0.316 0.78633 0.0
C125 C 0.20376 0.30895 0.81609 0.0
C126 C 0.23059 0.30427 0.82756 0.0
C127 C 0.24701 0.30695 0.80987 0.0
C128 C 0.2618 0.24659 0.71658 0.0
C129 C 0.26269 0.22903 0.80198 0.0
C130 C 0.34048 0.21101 0.76807 0.0
Eu131 Eu 0.31274 0.24475 0.77087 0.0
C132 C 0.36518 0.21359 0.75943 0.0
C133 C 0.3859 0.20034 0.77614 0.0
C134 C 0.40986 0.20328 0.76868 0.0
C135 C 0.41351 0.21967 0.74448 0.0
C136 C 0.39286 0.23319 0.728 0.0
C137 C 0.36887 0.2301 0.73534 0.0
C138 C 0.33185 0.28116 0.81109 0.0
C139 C 0.33147 0.29933 0.72626 0.0
O140 O 0.28051 0.31858 0.77447 0.0
O141 O 0.2442 0.29949 0.74121 0.0
O142 O 0.26466 0.27187 0.71043 0.0
O143 O 0.26939 0.24157 0.74367 0.0
O144 O 0.26077 0.25396 0.79107 0.0
O145 O 0.28123 0.21969 0.79517 0.0
O146 O 0.31821 0.21517 0.74751 0.0
O147 O 0.34454 0.22211 0.79182 0.0
O148 O 0.3291 0.25594 0.81736 0.0
O149 O 0.32445 0.28595 0.78401 0.0
O150 O 0.33514 0.27533 0.73927 0.0
O151 O 0.31096 0.30754 0.73057 0.0
H152 H 0.20197 0.32435 0.74579 0.0
H153 H 0.1729 0.31942 0.77673 0.0
H154 H 0.23929 0.29925 0.85042 0.0
H155 H 0.26754 0.30305 0.81944 0.0
H156 H 0.38354 0.18772 0.79495 0.0
H157 H 0.42553 0.19272 0.78183 0.0
H158 H 0.39491 0.24558 0.70896 0.0
H159 H 0.35317 0.2405 0.72199 0.0
C160 C 0.14566 0.02453 0.53092 0.0
Eu161 Eu 0.09229 1.01068 0.51351 0.0
C162 C 0.16335 0.05066 0.52723 0.0
C163 C 0.17982 0.05384 0.50928 0.0
C164 C 0.19122 0.0791 0.49976 0.0
C165 C 0.18638 0.10167 0.50812 0.0
C166 C 0.17185 0.09851 0.52803 0.0
C167 C 0.16048 0.07326 0.53752 0.0
C168 C 0.05829 0.97173 0.47917 0.0
C169 C 0.06989 0.04926 0.45736 0.0
C170 C 0.97778 1.00108 0.47297 0.0
Eu171 Eu 1.03129 1.01387 0.49036 0.0
C172 C 0.95862 0.98482 0.48783 0.0
C173 C 0.95992 0.99096 0.51527 0.0
C174 C 0.94564 0.97301 0.53162 0.0
C175 C 0.92985 0.94846 0.521 0.0
C176 C 0.92758 0.94278 0.49304 0.0
C177 C 0.94178 0.96086 0.47656 0.0
C178 C 0.06528 0.05258 0.5253 0.0
C179 C 0.05378 0.97618 0.54861 0.0
O180 O 0.13078 0.02299 0.54798 0.0
O181 O 0.13162 1.01245 0.50697 0.0
O182 O 0.07955 0.96797 0.50104 0.0
O183 O 0.05737 0.9958 0.47548 0.0
O184 O 0.08998 0.04686 0.48179 0.0
O185 O 1.04484 0.03446 0.453 0.0
O186 O 0.99312 0.98808 0.4667 0.0
O187 O 0.99175 0.02402 0.48334 0.0
O188 O 1.04442 0.05664 0.50302 0.0
O189 O 0.06614 0.0285 0.52868 0.0
O190 O 1.03243 0.98303 0.52809 0.0
O191 O 0.07958 0.98567 0.54917 0.0
H192 H 0.18234 0.03678 0.50103 0.0
H193 H 0.20214 0.08082 0.48424 0.0
H194 H 0.16816 0.11551 0.53524 0.0
H195 H 0.14816 0.07154 0.5516 0.0
H196 H 0.97302 1.00907 0.52478 0.0
H197 H 0.94816 0.97783 0.55324 0.0
H198 H 0.91541 0.92409 0.48422 0.0
H199 H 0.94064 0.9556 0.45556 0.0
C200 C 0.32798 0.72602 0.83615 0.0
Eu201 Eu 0.30187 0.75107 0.79006 0.0
C202 C 0.35159 0.71381 0.84117 0.0
C203 C 0.35203 0.69787 0.82062 0.0
C204 C 0.37653 0.69104 0.82235 0.0
C205 C 0.401 0.70008 0.8446 0.0
C206 C 0.40021 0.71513 0.86578 0.0
C207 C 0.37571 0.72189 0.86409 0.0
C208 C 0.2551 0.73242 0.74774 0.0
C209 C 0.33006 0.74429 0.73879 0.0
C210 C 0.27034 0.81498 0.69472 0.0
Eu211 Eu 0.29366 0.78657 0.73943 0.0
C212 C 0.25462 0.83505 0.6928 0.0
C213 C 0.25967 0.84913 0.71714 0.0
C214 C 0.24112 0.86385 0.71768 0.0
C215 C 0.21746 0.8648 0.69387 0.0
C216 C 0.21332 0.85213 0.66885 0.0
C217 C 0.23173 0.83717 0.66839 0.0
C218 C 0.3403 0.80485 0.78244 0.0
C219 C 0.26471 0.79245 0.79073 0.0
O220 O 0.33373 0.75173 0.83192 0.0
O221 O 0.30434 0.71494 0.81809 0.0
O222 O 0.25696 0.73032 0.77501 0.0
O223 O 0.27808 0.74362 0.74427 0.0
O224 O 0.32874 0.73846 0.76582 0.0
O225 O 0.31636 0.76225 0.72265 0.0
O226 O 0.25844 0.79102 0.70153 0.0
O227 O 0.29671 0.82091 0.7091 0.0
O228 O 0.33898 0.80633 0.75544 0.0
O229 O 0.31694 0.7942 0.78507 0.0
O230 O 0.26812 0.80012 0.7647 0.0
O231 O 0.27642 0.77291 0.80586 0.0
H232 H 0.33374 0.6915 0.80258 0.0
H233 H 0.37641 0.67891 0.80613 0.0
H234 H 0.41877 0.72249 0.88313 0.0
H235 H 0.37592 0.73453 0.8799 0.0
H236 H 0.27724 0.84776 0.73625 0.0
H237 H 0.24478 0.87392 0.73691 0.0
H238 H 0.19509 0.85267 0.65025 0.0
H239 H 0.22737 0.82623 0.64958 0.0
C240 C 0.54083 0.09464 0.99434 0.0
Eu241 Eu 0.5477 0.04651 1.00786 0.0
C242 C 0.52815 0.11018 1.0066 0.0
C243 C 0.51368 0.12873 0.98904 0.0
C244 C 0.49857 0.14094 0.99984 0.0
C245 C 0.49761 0.13451 0.02828 0.0
C246 C 0.51295 0.11658 0.04607 0.0
C247 C 0.52805 0.1045 0.03533 0.0
C248 C 0.52644 1.00491 0.97343 0.0
C249 C 0.50348 1.01459 0.03991 0.0
C250 C 0.56382 0.94677 0.05522 0.0
Eu251 Eu 0.55461 0.99388 0.03986 0.0
C252 C 0.57517 0.93143 0.04107 0.0
C253 C 0.59806 0.92075 0.05726 0.0
C254 C 0.61303 0.91183 0.04321 0.0
C255 C 0.60527 0.91361 1.01282 0.0
C256 C 0.58126 0.92261 0.99675 0.0
C257 C 0.56645 0.93157 1.01072 0.0
C258 C 0.574 0.03538 0.07405 0.0
C259 C 0.59661 0.02451 1.00424 0.0
O260 O 0.56394 0.08883 1.01163 0.0
O261 O 0.5238 0.07438 0.98046 0.0
O262 O 0.53774 0.02831 0.96503 0.0
O263 O 0.52536 1.00515 0.99859 0.0
O264 O 0.51681 0.03802 0.03268 0.0
O265 O 0.51237 0.99294 0.04089 0.0
O266 O 0.53932 0.95117 0.04059 0.0
O267 O 0.58116 0.96796 0.06684 0.0
O268 O 0.56185 1.01213 0.08175 0.0
O269 O 0.57662 0.03519 0.04953 0.0
O270 O 0.58356 1.00142 1.01271 0.0
O271 O 0.58856 0.04645 1.00396 0.0
H272 H 0.51335 0.13311 0.96674 0.0
H273 H 0.48677 0.15457 0.98563 0.0
H274 H 0.5129 0.11155 0.06819 0.0
H275 H 0.53899 0.09012 0.04925 0.0
H276 H 0.60533 0.9208 0.08066 0.0
H277 H 0.63156 0.90505 0.0561 0.0
H278 H 0.57457 0.92379 0.9733 0.0
H279 H 0.54912 0.94 0.99761 0.0
C280 C 0.31271 0.30839 0.33703 0.0
Eu281 Eu 0.30005 0.28573 0.28892 0.0
C282 C 0.29877 0.32377 0.34776 0.0
C283 C 0.31018 0.33228 0.37597 0.0
C284 C 0.29594 0.34559 0.38671 0.0
C285 C 0.27005 0.35044 0.36934 0.0
C286 C 0.25908 0.34232 0.34081 0.0
C287 C 0.27335 0.32916 0.33012 0.0
C288 C 0.3273 0.29635 0.24958 0.0
C289 C 0.25364 0.30293 0.23146 0.0
C290 C 0.26647 0.22846 0.19099 0.0
Eu291 Eu 0.27825 0.2483 0.24057 0.0
C292 C 0.28252 0.2196 0.17641 0.0
C293 C 0.27389 0.22028 0.14612 0.0
C294 C 0.2909 0.21532 0.13186 0.0
C295 C 0.31691 0.21004 0.14779 0.0
C296 C 0.32514 0.2087 0.17817 0.0
C297 C 0.308 0.21334 0.19238 0.0
C298 C 0.24993 0.23756 0.27895 0.0
C299 C 0.32527 0.23162 0.29812 0.0
O300 O 0.3004 0.28349 0.33356 0.0
O301 O 0.32124 0.31959 0.31526 0.0
O302 O 0.32315 0.31455 0.26198 0.0
O303 O 0.31863 0.27382 0.2598 0.0
O304 O 0.26534 0.30571 0.25972 0.0
O305 O 0.25762 0.28364 0.21935 0.0
O306 O 0.27324 0.25384 0.1946 0.0
O307 O 0.26281 0.21421 0.21401 0.0
O308 O 0.25302 0.21949 0.26548 0.0
O309 O 0.25947 0.26018 0.26953 0.0
O310 O 0.31358 0.2289 0.2698 0.0
O311 O 0.32098 0.25068 0.31032 0.0
H312 H 0.32984 0.32828 0.3898 0.0
H313 H 0.30506 0.35183 0.40867 0.0
H314 H 0.239 0.34531 0.32702 0.0
H315 H 0.26425 0.32266 0.30828 0.0
H316 H 0.2544 0.22542 0.13351 0.0
H317 H 0.28419 0.21662 0.10842 0.0
H318 H 0.34495 0.20434 0.19093 0.0
H319 H 0.31504 0.21288 0.21581 0.0
C320 C 0.62087 0.53064 0.03334 0.0
Eu321 Eu 0.56837 0.51657 0.02634 0.0
C322 C 0.63554 0.54978 0.01593 0.0
C323 C 0.62306 0.55287 0.98589 0.0
C324 C 0.6342 0.57403 0.96988 0.0
C325 C 0.658 0.59249 0.98356 0.0
C326 C 0.6713 0.58874 0.01337 0.0
C327 C 0.65998 0.56757 0.02952 0.0
C328 C 0.53071 0.47605 0.99712 0.0
C329 C 0.53599 0.55102 0.97002 0.0
C330 C 0.4553 0.50373 1.00795 0.0
Eu331 Eu 0.50785 0.51803 0.01529 0.0
C332 C 0.43946 0.47864 0.01712 0.0
C333 C 0.44984 0.46695 0.0449 0.0
C334 C 0.43745 0.44142 0.05227 0.0
C335 C 0.41431 0.42712 0.03215 0.0
C336 C 0.40315 0.43899 1.00469 0.0
C337 C 0.41588 0.46457 0.99709 0.0
C338 C 0.5457 0.55866 0.04414 0.0
C339 C 0.53954 0.48135 0.0691 0.0
O340 O 0.60871 0.54111 0.04682 0.0
O341 O 0.60521 0.50907 0.02093 0.0
O342 O 0.5544 0.47329 0.01557 0.0
O343 O 0.52898 0.4999 0.99393 0.0
O344 O 0.55983 0.54736 0.98868 0.0
O345 O 0.51217 0.53956 0.97413 0.0
O346 O 0.46612 0.50166 0.98825 0.0
O347 O 0.47254 0.51882 0.02855 0.0
O348 O 0.52211 0.56142 0.02548 0.0
O349 O 0.54722 0.53474 0.04774 0.0
O350 O 0.51607 0.48387 0.0489 0.0
O351 O 0.56353 0.49553 0.06753 0.0
H352 H 0.60406 0.53955 0.9749 0.0
H353 H 0.62386 0.57628 0.94682 0.0
H354 H 0.68973 0.60275 0.02432 0.0
H355 H 0.66968 0.56568 0.05273 0.0
H356 H 0.468 0.47723 0.0608 0.0
H357 H 0.44594 0.43279 0.07382 0.0
H358 H 0.38507 0.42829 0.98903 0.0
H359 H 0.40775 0.47311 0.97543 0.0
C360 C 0.8539 0.24829 0.34431 0.0
Eu361 Eu 0.81418 0.25668 0.29793 0.0
C362 C 0.8784 0.23759 0.34895 0.0
C363 C 0.87731 0.21759 0.33204 0.0
C364 C 0.90146 0.21024 0.3335 0.0
C365 C 0.92719 0.22289 0.35172 0.0
C366 C 0.92813 0.24257 0.36905 0.0
C367 C 0.90391 0.24989 0.36761 0.0
C368 C 0.76808 0.22408 0.26766 0.0
C369 C 0.83273 0.24427 0.24109 0.0
C370 C 0.7477 0.28821 0.19213 0.0
Eu371 Eu 0.78679 0.27839 0.23838 0.0
C372 C 0.72444 0.30043 0.18843 0.0
C373 C 0.72716 0.3199 0.2068 0.0
C374 C 0.70399 0.32817 0.20686 0.0
C375 C 0.67761 0.31707 0.18864 0.0
C376 C 0.6751 0.29812 0.16962 0.0
C377 C 0.69833 0.28982 0.16961 0.0
C378 C 0.83258 0.3113 0.26907 0.0
C379 C 0.76772 0.29019 0.29514 0.0
O380 O 0.85416 0.27092 0.3292 0.0
O381 O 0.82975 0.23188 0.33661 0.0
O382 O 0.77465 0.22578 0.29551 0.0
O383 O 0.78668 0.23827 0.2581 0.0
O384 O 0.83765 0.24383 0.26987 0.0
O385 O 0.81269 0.25597 0.22366 0.0
O386 O 0.74646 0.26548 0.20706 0.0
O387 O 0.77246 0.30355 0.19964 0.0
O388 O 0.82622 0.30965 0.24126 0.0
O389 O 0.81392 0.29681 0.27827 0.0
O390 O 0.76275 0.29041 0.26637 0.0
O391 O 0.78808 0.27893 0.31265 0.0
H392 H 0.85789 0.20805 0.31717 0.0
H393 H 0.89996 0.19461 0.32035 0.0
H394 H 0.94763 0.25275 0.38321 0.0
H395 H 0.9052 0.26571 0.38042 0.0
H396 H 0.74706 0.32804 0.22192 0.0
H397 H 0.7067 0.34265 0.22193 0.0
H398 H 0.65518 0.2896 0.15481 0.0
H399 H 0.6958 0.27452 0.15555 0.0
C400 C 1.04353 0.60637 0.481 0.0
Eu401 Eu 1.04204 0.55621 0.48793 0.0
C402 C 1.03049 0.62077 0.49455 0.0
C403 C 1.00227 0.62087 0.48218 0.0
C404 C 0.98768 0.62676 0.49859 0.0
C405 C 1.00109 0.63316 0.52756 0.0
C406 C 1.02984 0.63573 0.53895 0.0
C407 C 1.04443 0.62963 0.5226 0.0
C408 C 1.01213 0.51835 0.45057 0.0
C409 C 0.99689 0.53024 0.52202 0.0
C410 C 1.03741 0.44995 0.52386 0.0
Eu411 Eu 1.03846 0.50006 0.51488 0.0
C412 C 0.04814 0.43396 0.50969 0.0
C413 C 0.06912 0.42103 0.5265 0.0
C414 C 0.08474 0.41198 0.51341 0.0
C415 C 0.07951 0.41568 0.48329 0.0
C416 C 0.05697 0.42656 0.46628 0.0
C417 C 1.0415 0.43575 0.47936 0.0
C418 C 0.06856 0.53865 0.55162 0.0
C419 C 0.08175 0.5248 0.47848 0.0
O420 O 0.06402 0.59646 0.49881 0.0
O421 O 1.02652 0.58961 0.46199 0.0
O422 O 1.0273 0.54015 0.4434 0.0
O423 O 1.01208 0.51842 0.47619 0.0
O424 O 1.01313 0.55194 0.51492 0.0
O425 O 1.00023 0.5065 0.52013 0.0
O426 O 1.01602 0.45933 0.50745 0.0
O427 O 0.05633 0.46763 0.54036 0.0
O428 O 0.05284 0.51738 0.55898 0.0
O429 O 0.06856 0.53777 0.52618 0.0
O430 O 0.06573 0.50348 0.48657 0.0
O431 O 0.07914 0.54882 0.48064 0.0
H432 H 0.99092 0.61439 0.46055 0.0
H433 H 0.96555 0.62453 0.48909 0.0
H434 H 1.04089 0.64136 0.56094 0.0
H435 H 0.06625 0.6301 0.53268 0.0
H436 H 0.07464 0.4195 0.54989 0.0
H437 H 0.10167 0.40315 0.52697 0.0
H438 H 0.05253 0.42981 0.44306 0.0
H439 H 1.02561 0.44586 0.46576 0.0
C440 C 0.76684 0.82606 0.27818 0.0
Eu441 Eu 0.78369 0.78918 0.26328 0.0
C442 C 0.74667 0.82558 0.29296 0.0
C443 C 0.7274 0.84165 0.28189 0.0
C444 C 0.70766 0.84084 0.29529 0.0
C445 C 0.70691 0.82391 0.32002 0.0
C446 C 0.72615 0.8077 0.33094 0.0
C447 C 0.74585 0.80853 0.31755 0.0
C448 C 0.75444 0.75575 0.22095 0.0
C449 C 0.76277 0.73235 0.30416 0.0
C450 C 0.82397 0.70895 0.24969 0.0
Eu451 Eu 0.8083 0.74528 0.26688 0.0
C452 C 0.83987 0.7109 0.2297 0.0
C453 C 0.86506 0.72936 0.23313 0.0
C454 C 0.87734 0.73421 0.21123 0.0
C455 C 0.86429 0.72113 0.18543 0.0
C456 C 0.83953 0.70224 0.18237 0.0
C457 C 0.82753 0.69705 0.2044 0.0
C458 C 0.83757 0.77876 0.30906 0.0
C459 C 0.82954 0.80204 0.22628 0.0
O460 O 0.78921 0.81787 0.29387 0.0
O461 O 0.75666 0.81718 0.25221 0.0
O462 O 0.75837 0.78129 0.2166 0.0
O463 O 0.76535 0.74935 0.24725 0.0
O464 O 0.76279 0.75822 0.29584 0.0
O465 O 0.77898 0.72202 0.29456 0.0
O466 O 0.79978 0.71481 0.23736 0.0
O467 O 0.83695 0.71919 0.27487 0.0
O468 O 0.83352 0.75317 0.31353 0.0
O469 O 0.82663 0.78517 0.28272 0.0
O470 O 0.82928 0.77611 0.23433 0.0
O471 O 0.81353 0.81241 0.23614 0.0
H472 H 0.72755 0.85475 0.26281 0.0
H473 H 0.69288 0.85334 0.28618 0.0
H474 H 0.72633 0.79473 0.35016 0.0
H475 H 0.76048 0.79587 0.32656 0.0
H476 H 0.8748 0.74068 0.25222 0.0
H477 H 0.89656 0.74872 0.21406 0.0
H478 H 0.82942 0.6915 0.16287 0.0
H479 H 0.80798 0.68296 0.20119 0.0
C480 C 0.86015 0.32028 0.74041 0.0
Eu481 Eu 0.82118 0.28163 0.74902 0.0
C482 C 0.86207 0.34597 0.72394 0.0
C483 C 0.84124 0.35048 0.69822 0.0
C484 C 0.84368 0.37508 0.68285 0.0
C485 C 0.86683 0.39559 0.69315 0.0
C486 C 0.88721 0.39113 0.71936 0.0
C487 C 0.88485 0.36651 0.73458 0.0
C488 C 0.78609 0.24479 0.71266 0.0
C489 C 0.76273 0.30465 0.7302 0.0
C490 C 0.73481 0.21142 0.77673 0.0
Eu491 Eu 0.77387 0.25017 0.76877 0.0
C492 C 0.73285 0.18575 0.79319 0.0
C493 C 0.75199 0.18209 0.82051 0.0
C494 C 0.74897 0.15776 0.83626 0.0
C495 C 0.72689 0.13666 0.82483 0.0
C496 C 0.70862 0.14014 0.79681 0.0
C497 C 0.71154 0.1645 0.78121 0.0
C498 C 0.80913 0.28686 0.80524 0.0
C499 C 0.83251 0.22748 0.78871 0.0
O500 O 0.8505 0.31863 0.76201 0.0
O501 O 0.85039 0.2991 0.72552 0.0
O502 O 0.81262 0.25048 0.71735 0.0
O503 O 0.77944 0.25971 0.72592 0.0
O504 O 0.78932 0.30903 0.73192 0.0
O505 O 0.75111 0.28199 0.74142 0.0
O506 O 0.74468 0.2132 0.75527 0.0
O507 O 0.74422 0.2326 0.79164 0.0
O508 O 0.78267 0.28099 0.80099 0.0
O509 O 0.81556 0.27199 0.79177 0.0
O510 O 0.80574 0.22281 0.7863 0.0
O511 O 0.84413 0.25025 0.77759 0.0
H512 H 0.82323 0.33497 0.68992 0.0
H513 H 0.82756 0.37802 0.66283 0.0
H514 H 0.90545 0.40641 0.72766 0.0
H515 H 0.90098 0.36343 0.75455 0.0
H516 H 0.76891 0.19817 0.82994 0.0
H517 H 0.76327 0.15587 0.85784 0.0
H518 H 0.69171 0.12417 0.78715 0.0
H519 H 0.69688 0.16686 0.75991 0.0
C520 C 0.81692 0.80868 0.8342 0.0
Eu521 Eu 0.80806 0.79017 0.78459 0.0
C522 C 0.80193 0.82225 0.8456 0.0
C523 C 0.81449 0.8329 0.87277 0.0
C524 C 0.79972 0.84477 0.88431 0.0
C525 C 0.77218 0.84589 0.86884 0.0
C526 C 0.75994 0.83577 0.84127 0.0
C527 C 0.77478 0.82415 0.82966 0.0
C528 C 0.83838 0.80789 0.74854 0.0
C529 C 0.76303 0.8083 0.72662 0.0
C530 C 0.78428 0.73739 0.6854 0.0
Eu531 Eu 0.79242 0.75711 0.73414 0.0
C532 C 0.79844 0.72067 0.67678 0.0
C533 C 0.7853 0.70681 0.65161 0.0
C534 C 0.79886 0.69084 0.64345 0.0
C535 C 0.8258 0.68858 0.6604 0.0
C536 C 0.83864 0.70223 0.68592 0.0
C537 C 0.82503 0.71806 0.69408 0.0
C538 C 0.76262 0.73944 0.77066 0.0
C539 C 0.83645 0.73829 0.79271 0.0
O540 O 0.80504 0.78412 0.82812 0.0
O541 O 0.82673 0.82203 0.81409 0.0
O542 O 0.83092 0.82322 0.76155 0.0
O543 O 0.83104 0.78401 0.7564 0.0
O544 O 0.77267 0.80919 0.75525 0.0
O545 O 0.7698 0.79133 0.71381 0.0
O546 O 0.79846 0.7613 0.69196 0.0
O547 O 0.77133 0.72608 0.70385 0.0
O548 O 0.77042 0.72404 0.75805 0.0
O549 O 0.76952 0.76323 0.76234 0.0
O550 O 0.82686 0.7371 0.76411 0.0
O551 O 0.83016 0.75582 0.80514 0.0
H552 H 0.8355 0.83161 0.88522 0.0
H553 H 0.8095 0.85226 0.9057 0.0
H554 H 0.73883 0.83666 0.82882 0.0
H555 H 0.76497 0.8163 0.80845 0.0
H556 H 0.76462 0.70842 0.63824 0.0
H557 H 0.78832 0.68035 0.62385 0.0
H558 H 0.85951 0.70128 0.69922 0.0
H559 H 0.8354 0.7285 0.71374 0.0
C560 C 0.52761 0.56502 0.56607 0.0
Eu561 Eu 0.54859 0.53933 0.53724 0.0
C562 C 0.51385 0.57867 0.58252 0.0
C563 C 0.52505 0.6046 0.59265 0.0
C564 C 0.51103 0.61777 0.60529 0.0
C565 C 0.48495 0.60585 0.60932 0.0
C566 C 0.47405 0.57971 0.5996 0.0
C567 C 0.48776 0.56681 0.58638 0.0
C568 C 0.58153 0.56189 0.49747 0.0
C569 C 0.50705 0.53931 0.46931 0.0
C570 C 0.56758 0.469 0.46585 0.0
Eu571 Eu 0.54643 0.49437 0.49483 0.0
C572 C 0.58232 0.45459 0.45124 0.0
C573 C 0.56917 0.44188 0.42468 0.0
C574 C 0.58331 0.42891 0.41193 0.0
C575 C 0.61166 0.42738 0.42488 0.0
C576 C 0.62462 0.44011 0.4515 0.0
C577 C 0.61058 0.45321 0.46406 0.0
C578 C 0.51313 0.4717 0.53412 0.0
C579 C 0.5883 0.49488 0.56284 0.0
O580 O 0.51328 0.54657 0.54798 0.0
O581 O 0.55425 0.56878 0.56974 0.0
O582 O 0.57853 0.57332 0.51808 0.0
O583 O 0.56687 0.53813 0.50052 0.0
O584 O 0.51327 0.54515 0.49647 0.0
O585 O 0.51855 0.52179 0.46241 0.0
O586 O 0.58177 0.48399 0.48754 0.0
O587 O 0.54089 0.4681 0.45901 0.0
O588 O 0.51578 0.46051 0.51312 0.0
O589 O 0.52806 0.49543 0.53145 0.0
O590 O 0.5818 0.48869 0.53574 0.0
O591 O 0.57703 0.51259 0.56972 0.0
H592 H 0.54468 0.6152 0.59023 0.0
H593 H 0.52102 0.63757 0.61218 0.0
H594 H 0.45423 0.56914 0.60151 0.0
H595 H 0.4776 0.54718 0.57899 0.0
H596 H 0.54763 0.44194 0.41346 0.0
H597 H 0.57155 0.41966 0.39177 0.0
H598 H 0.64617 0.44043 0.4629 0.0
H599 H 0.62223 0.46238 0.48431 0.0
C600 C 0.07342 0.50878 0.95165 0.0
Eu601 Eu 0.05474 0.52004 0.9902 0.0
C602 C 0.08827 0.48883 0.95084 0.0
C603 C 0.10412 0.47756 0.97658 0.0
C604 C 0.1155 0.45637 0.97581 0.0
C605 C 0.11153 0.44652 0.94922 0.0
C606 C 0.09638 0.4584 0.92343 0.0
C607 C 0.08469 0.47932 0.92427 0.0
C608 C 0.0797 0.55962 0.02666 0.0
C609 C 0.0746 0.48171 0.05029 0.0
C610 C 1.01226 0.53155 0.07428 0.0
Eu611 Eu 1.03048 0.51816 0.03673 0.0
C612 C 0.99894 0.55341 0.07324 0.0
C613 C 0.97314 0.54795 0.07755 0.0
C614 C 0.95931 0.56823 0.0745 0.0
C615 C 0.97119 0.59443 0.06737 0.0
C616 C 0.99705 0.59982 0.063 0.0
C617 C 1.01074 0.57949 0.06575 0.0
C618 C 1.00526 0.47819 1.0009 0.0
C619 C 1.01041 0.55624 0.97649 0.0
O620 O 0.04813 0.4994 0.95206 0.0
O621 O 0.08695 0.52721 0.96989 0.0
O622 O 0.075 0.56309 0.99888 0.0
O623 O 0.07185 0.53567 0.03374 0.0
O624 O 0.07188 0.48667 0.02224 0.0
O625 O 0.06211 0.49371 0.0624 0.0
O626 O 1.03826 0.53814 0.0756 0.0
O627 O 0.99782 0.51325 0.05611 0.0
O628 O 1.00987 0.47534 0.02871 0.0
O629 O 1.01319 0.50206 0.99323 0.0
O630 O 1.01326 0.55152 1.00458 0.0
O631 O 1.02277 0.54402 0.96448 0.0
H632 H 0.10735 0.48485 0.9973 0.0
H633 H 0.12732 0.44767 0.99592 0.0
H634 H 0.09287 0.45096 0.90267 0.0
H635 H 0.07233 0.48767 0.90425 0.0
H636 H 0.96348 0.52792 0.08284 0.0
H637 H 0.93918 0.56331 0.07751 0.0
H638 H 1.00696 0.61978 0.05788 0.0
H639 H 1.03047 0.58425 0.06183 0.0
H640 H 0.21828 0.23851 0.81985 0.0
H641 H 0.19025 0.21146 0.84911 0.0
H642 H 0.23581 0.15089 0.86217 0.0
H643 H 0.26271 0.17733 0.83211 0.0
H644 H 0.18144 0.19155 0.89428 0.0
H645 H 0.17579 0.09401 0.86091 0.0
H646 H 0.21093 0.11097 0.87595 0.0
H647 H 0.18914 0.12379 0.84254 0.0
C648 C 0.22253 0.21929 0.82846 0.0
C649 C 0.24399 0.21134 0.82181 0.0
C650 C 0.20584 0.20312 0.84602 0.0
C651 C 0.20847 0.17698 0.85903 0.0
C652 C 0.23044 0.16947 0.85279 0.0
H653 H 0.08909 0.04787 0.9434 0.0
H654 H 0.11659 0.07388 0.91272 0.0
C655 C 0.24695 0.18551 0.83511 0.0
C656 C 0.18944 0.15887 0.87876 0.0
H657 H 0.16111 0.09392 0.9011 0.0
C658 C 0.17745 0.17018 0.89526 0.0
C659 C 0.1817 0.13012 0.88163 0.0
C660 C 0.18974 0.11389 0.86415 0.0
C661 C 0.16027 0.15537 0.91307 0.0
C662 C 0.15373 0.12665 0.91714 0.0
C663 C 0.16518 0.1153 0.90013 0.0
C664 C 0.13544 0.10879 0.93768 0.0
C665 C 0.14819 0.17158 0.92649 0.0
C666 C 0.13499 0.11692 0.9643 0.0
C667 C 0.11858 0.1016 0.98227 0.0
C668 C 0.10085 0.07583 0.9765 0.0
C669 C 0.10158 0.06705 0.95029 0.0
C670 C 0.11801 0.08263 0.93202 0.0
H671 H 0.14652 0.19094 0.91431 0.0
H672 H 0.12731 0.16112 0.92714 0.0
H673 H 0.16197 0.17565 0.94885 0.0
H674 H 0.14802 0.13554 0.9722 0.0
H675 H 0.1201 0.11041 1.00158 0.0
H676 H 0.10809 0.98995 0.12405 0.0
H677 H 0.13701 0.96041 0.15661 0.0
H678 H 0.13808 0.92564 0.08274 0.0
H679 H 0.10954 0.95434 0.05071 0.0
H680 H 0.13129 0.8869 0.11975 0.0
H681 H 0.21763 0.96125 0.18317 0.0
H682 H 0.18466 0.96258 0.18531 0.0
H683 H 0.19145 0.97038 0.15127 0.0
C684 C 0.11467 0.97626 0.11462 0.0
C685 C 0.10595 0.97523 0.08411 0.0
C686 C 0.13157 0.95917 0.13349 0.0
C687 C 0.14063 0.94028 0.12277 0.0
C688 C 0.13189 0.93949 0.09239 0.0
H689 H 0.27678 0.85497 0.2156 0.0
H690 H 0.24793 0.88615 0.18819 0.0
C691 C 0.11527 0.95639 0.07375 0.0
C692 C 0.15828 0.92083 0.14225 0.0
H693 H 0.21861 0.91636 0.1979 0.0
C694 C 0.15031 0.89361 0.13687 0.0
C695 C 0.18371 0.92868 0.16471 0.0
C696 C 0.19512 0.95732 0.17138 0.0
C697 C 0.16626 0.87471 0.15267 0.0
C698 C 0.19138 0.88241 0.17559 0.0
C699 C 0.19951 0.90968 0.18087 0.0
C700 C 0.20959 0.86283 0.19353 0.0
C701 C 0.15626 0.84661 0.14365 0.0
C702 C 0.19873 0.83872 0.20685 0.0
C703 C 0.21544 0.82055 0.22271 0.0
C704 C 0.24405 0.82555 0.2264 0.0
C705 C 0.25503 0.84988 0.21356 0.0
C706 C 0.2383 0.86803 0.19769 0.0
H707 H 0.14227 0.84547 0.12095 0.0
H708 H 0.17377 0.83752 0.14562 0.0
H709 H 0.14447 0.83478 0.15776 0.0
H710 H 0.17712 0.83385 0.20527 0.0
H711 H 0.20578 0.80243 0.23216 0.0
H712 H 0.5069 0.93914 0.50512 0.0
H713 H 0.47398 0.90784 0.4702 0.0
H714 H 0.42099 0.96373 0.43853 0.0
H715 H 0.45326 0.99435 0.47462 0.0
H716 H 0.39079 0.91826 0.44152 0.0
H717 H 0.46335 0.90717 0.38718 0.0
H718 H 0.47517 0.89748 0.4249 0.0
H719 H 0.47262 0.9313 0.41365 0.0
C720 C 0.48816 0.94461 0.49067 0.0
C721 C 0.48256 0.96907 0.49238 0.0
C722 C 0.46948 0.92686 0.47049 0.0
C723 C 0.44524 0.93361 0.45102 0.0
C724 C 0.43954 0.95802 0.45312 0.0
H725 H 0.3461 0.84297 0.29906 0.0
H726 H 0.37823 0.87638 0.33208 0.0
C727 C 0.45792 0.97549 0.47377 0.0
C728 C 0.42535 0.91494 0.42919 0.0
H729 H 0.4205 0.8751 0.37731 0.0
C730 C 0.39732 0.90904 0.42731 0.0
C731 C 0.43358 0.90321 0.4101 0.0
C732 C 0.46276 0.91036 0.40882 0.0
C733 C 0.37748 0.89151 0.40743 0.0
C734 C 0.38599 0.87841 0.38973 0.0
C735 C 0.41393 0.88472 0.39115 0.0
C736 C 0.36631 0.85819 0.36959 0.0
C737 C 0.34753 0.88785 0.40519 0.0
C738 C 0.34904 0.83662 0.37956 0.0
C739 C 0.33035 0.8179 0.36055 0.0
C740 C 0.32922 0.81987 0.33144 0.0
C741 C 0.34685 0.84095 0.32151 0.0
C742 C 0.36515 0.86004 0.34037 0.0
H743 H 0.34367 0.90549 0.41209 0.0
H744 H 0.3337 0.88415 0.38276 0.0
H745 H 0.342 0.87076 0.41976 0.0
H746 H 0.35012 0.83412 0.40212 0.0
H747 H 0.31712 0.80158 0.3687 0.0
H748 H 0.44628 0.26375 0.72678 0.0
H749 H 0.4836 0.265 0.70693 0.0
H750 H 0.47163 0.18014 0.72037 0.0
H751 H 0.43505 0.17886 0.74058 0.0
H752 H 0.5262 0.20461 0.73447 0.0
H753 H 0.46712 0.24291 0.62594 0.0
H754 H 0.47615 0.26268 0.65632 0.0
H755 H 0.45147 0.23179 0.65414 0.0
C756 C 0.45189 0.24544 0.72568 0.0
C757 C 0.43776 0.22117 0.73511 0.0
C758 C 0.47312 0.24619 0.71431 0.0
C759 C 0.48013 0.22264 0.71183 0.0
C760 C 0.46667 0.19859 0.72223 0.0
H761 H 0.4986 0.13603 0.60456 0.0
H762 H 0.49041 0.1701 0.62745 0.0
C763 C 0.44577 0.19786 0.73381 0.0
C764 C 0.49991 0.22196 0.69669 0.0
H765 H 0.50272 0.22298 0.62826 0.0
C766 C 0.52166 0.20923 0.71134 0.0
C767 C 0.49405 0.22843 0.66661 0.0
C768 C 0.4709 0.24211 0.64965 0.0
C769 C 0.53533 0.19965 0.69624 0.0
C770 C 0.52758 0.20384 0.66572 0.0
C771 C 0.50839 0.21964 0.65161 0.0
C772 C 0.53372 0.18702 0.64786 0.0
C773 C 0.55571 0.18275 0.7128 0.0
C774 C 0.56083 0.18577 0.65076 0.0
C775 C 0.56556 0.16583 0.63799 0.0
C776 C 0.54321 0.1474 0.6216 0.0
C777 C 0.51621 0.15008 0.61688 0.0
C778 C 0.51152 0.16961 0.62997 0.0
H779 H 0.55681 0.179 0.73593 0.0
H780 H 0.55 0.1634 0.70302 0.0
H781 H 0.5766 0.19287 0.71193 0.0
H782 H 0.57826 0.19943 0.66386 0.0
H783 H 0.58659 0.16433 0.6416 0.0
H784 H 0.06146 0.92668 0.55789 0.0
H785 H 0.07057 0.90178 0.60425 0.0
H786 H 0.04731 0.95978 0.64034 0.0
H787 H 1.03822 0.9849 0.59326 0.0
H788 H 0.09878 0.95939 0.66586 0.0
H789 H 0.04719 0.85548 0.66631 0.0
H790 H 0.05321 0.86264 0.63209 0.0
H791 H 1.03119 0.87969 0.6407 0.0
C792 C 0.05688 0.93329 0.57532 0.0
C793 C 0.04928 0.95752 0.57235 0.0
C794 C 0.06178 0.9189 0.60187 0.0
C795 C 0.05949 0.92874 0.62598 0.0
C796 C 0.04895 0.95165 0.62204 0.0
H797 H 0.18843 0.85161 0.73204 0.0
H798 H 0.14792 0.86797 0.73034 0.0
C799 C 1.0438 0.96599 0.59523 0.0
C800 C 0.07582 0.91973 0.6551 0.0
H801 H 0.10044 0.86416 0.68231 0.0
C802 C 0.09847 0.93846 0.67056 0.0
C803 C 0.07527 0.89257 0.66255 0.0
C804 C 0.05013 0.87157 0.64964 0.0
C805 C 0.12273 0.93081 0.68824 0.0
C806 C 0.12409 0.90401 0.69016 0.0
C807 C 0.09971 0.88492 0.67984 0.0
C808 C 0.15059 0.89665 0.69476 0.0
C809 C 0.14769 0.95177 0.70179 0.0
C810 C 0.1651 0.90716 0.67499 0.0
C811 C 0.18753 0.89743 0.67536 0.0
C812 C 0.19602 0.87727 0.69575 0.0
C813 C 0.18229 0.86743 0.71634 0.0
C814 C 0.15936 0.87678 0.71552 0.0
H815 H 0.14145 0.9681 0.70844 0.0
H816 H 0.16234 0.94348 0.72094 0.0
H817 H 0.15846 0.96029 0.68563 0.0
H818 H 0.15817 0.92196 0.65822 0.0
H819 H 0.19777 0.9051 0.65923 0.0
H820 H 0.33042 0.84481 0.80403 0.0
H821 H 0.36401 0.87846 0.83539 0.0
H822 H 0.42928 0.84038 0.83958 0.0
H823 H 0.3957 0.80793 0.80613 0.0
H824 H 0.39401 0.87791 0.88652 0.0
H825 H 0.46581 0.91261 0.82249 0.0
H826 H 0.43317 0.88996 0.80882 0.0
H827 H 0.46284 0.87806 0.8327 0.0
C828 C 0.35201 0.84381 0.81157 0.0
C829 C 0.36064 0.824 0.80269 0.0
C830 C 0.37123 0.86301 0.82953 0.0
C831 C 0.39947 0.86248 0.83956 0.0
C832 C 0.4079 0.84199 0.83138 0.0
H833 H 0.50467 0.95434 0.98849 0.0
H834 H 0.47642 0.91902 0.95667 0.0
C835 C 0.38871 0.82324 0.81259 0.0
C836 C 0.41961 0.88299 0.85917 0.0
H837 H 0.48158 0.92716 0.87038 0.0
C838 C 0.41304 0.88878 0.88276 0.0
C839 C 0.44437 0.89765 0.85425 0.0
C840 C 0.45181 0.89447 0.82801 0.0
C841 C 0.43016 0.90872 0.90127 0.0
C842 C 0.45566 0.92235 0.89733 0.0
C843 C 0.4623 0.91656 0.87379 0.0
C844 C 0.4753 0.94311 0.91687 0.0
C845 C 0.41997 0.91555 0.92405 0.0
C846 C 0.48599 0.96802 0.90538 0.0
C847 C 0.50344 0.9879 0.92371 0.0
C848 C 0.51012 0.9834 0.95389 0.0
C849 C 0.49993 0.95838 0.96535 0.0
C850 C 0.48332 0.93827 0.94709 0.0
H851 H 0.39706 0.91029 0.9177 0.0
H852 H 0.42797 0.90408 0.94462 0.0
H853 H 0.42686 0.93694 0.92796 0.0
H854 H 0.48036 0.97233 0.88218 0.0
H855 H 0.51096 1.00702 0.91425 0.0
H856 H 0.49138 0.18562 0.02262 0.0
H857 H 0.46204 0.20316 0.04168 0.0
H858 H 0.43365 0.12513 0.07657 0.0
H859 H 0.4628 0.10756 0.05775 0.0
H860 H 0.40482 0.18923 0.03108 0.0
H861 H 0.46146 0.17015 0.14675 0.0
H862 H 0.47546 0.16935 0.11811 0.0
H863 H 0.4508 0.14134 0.12625 0.0
C864 C 0.4788 0.17226 0.0343 0.0
C865 C 0.47963 0.14533 0.03908 0.0
C866 C 0.46215 0.18228 0.04519 0.0
C867 C 0.44617 0.1655 0.061 0.0
C868 C 0.44641 0.1385 0.06508 0.0
H869 H 0.30494 0.17905 0.10289 0.0
H870 H 0.33703 0.17146 0.08016 0.0
C871 C 0.46307 0.12852 0.05434 0.0
C872 C 0.42895 0.17597 0.07312 0.0
H873 H 0.41679 0.17928 0.13625 0.0
C874 C 0.40757 0.18736 0.0541 0.0
C875 C 0.43292 0.17385 0.10318 0.0
C876 C 0.45658 0.16326 0.1248 0.0
C877 C 0.3893 0.19575 0.06431 0.0
C878 C 0.39231 0.19218 0.0942 0.0
C879 C 0.41436 0.18174 0.1133 0.0
C880 C 0.37247 0.19837 0.10621 0.0
C881 C 0.36699 0.20834 0.04303 0.0
C882 C 0.38186 0.2157 0.12863 0.0
C883 C 0.36367 0.21978 0.14184 0.0
C884 C 0.3358 0.20656 0.13286 0.0
C885 C 0.32628 0.18964 0.11001 0.0
C886 C 0.34454 0.18542 0.09693 0.0
H887 H 0.37258 0.21691 0.0233 0.0
H888 H 0.34762 0.19307 0.03624 0.0
H889 H 0.36295 0.22416 0.05289 0.0
H890 H 0.40335 0.22582 0.13614 0.0
H891 H 0.37141 0.23321 0.15916 0.0
H892 H 0.23353 0.12355 0.49408 0.0
H893 H 0.24013 0.16117 0.46011 0.0
H894 H 0.16175 0.17677 0.45429 0.0
H895 H 0.15443 0.13834 0.4873 0.0
H896 H 0.16277 0.17136 0.40322 0.0
H897 H 0.25961 0.23981 0.45577 0.0
H898 H 0.26593 0.20712 0.46152 0.0
H899 H 0.2419 0.21487 0.47637 0.0
C900 C 0.21798 0.13534 0.48607 0.0
C901 C 0.19339 0.12782 0.49319 0.0
C902 C 0.22196 0.15715 0.46697 0.0
C903 C 0.20161 0.1721 0.4549 0.0
C904 C 0.17786 0.16571 0.46355 0.0
H905 H 0.243 0.27333 0.31006 0.0
H906 H 0.22627 0.26369 0.3522 0.0
C907 C 0.17379 0.14379 0.48256 0.0
C908 C 0.20305 0.19083 0.42964 0.0
H909 H 0.24975 0.23541 0.40335 0.0
C910 C 0.18147 0.18599 0.40347 0.0
C911 C 0.22704 0.21045 0.42984 0.0
C912 C 0.24973 0.21853 0.45753 0.0
C913 C 0.18461 0.19796 0.37716 0.0
C914 C 0.21012 0.21475 0.37705 0.0
C915 C 0.23041 0.22201 0.40342 0.0
C916 C 0.21777 0.22122 0.35021 0.0
C917 C 0.16116 0.19133 0.34957 0.0
C918 C 0.21867 0.20057 0.33537 0.0
C919 C 0.22848 0.206 0.31172 0.0
C920 C 0.23766 0.2322 0.30253 0.0
C921 C 0.23617 0.25295 0.3169 0.0
C922 C 0.22654 0.24749 0.34083 0.0
H923 H 0.1409 0.18681 0.35353 0.0
H924 H 0.16145 0.20781 0.33272 0.0
H925 H 0.16305 0.1735 0.34118 0.0
H926 H 0.21262 0.18015 0.34269 0.0
H927 H 0.22949 0.18964 0.30109 0.0
H928 H 0.83041 0.24236 0.18309 0.0
H929 H 0.8554 0.22095 0.16227 0.0
H930 H 0.89813 0.19174 0.24735 0.0
H931 H 0.87367 0.21408 0.26826 0.0
H932 H 0.93387 0.19858 0.22186 0.0
H933 H 0.84326 0.15163 0.13573 0.0
H934 H 0.84728 0.1868 0.13188 0.0
H935 H 0.83975 0.1686 0.16327 0.0
C936 C 0.84502 0.23138 0.1977 0.0
C937 C 0.84918 0.23047 0.22796 0.0
C938 C 0.85945 0.21846 0.18543 0.0
C939 C 0.87896 0.20316 0.20234 0.0
C940 C 0.8835 0.20269 0.23271 0.0
H941 H 0.93259 0.09041 0.11658 0.0
H942 H 0.90907 0.11279 0.13812 0.0
C943 C 0.86913 0.21576 0.24502 0.0
C944 C 0.89464 0.18844 0.18883 0.0
H945 H 0.88681 0.15118 0.13181 0.0
C946 C 0.92316 0.1883 0.20213 0.0
C947 C 0.88196 0.17382 0.16314 0.0
C948 C 0.85135 0.16991 0.14783 0.0
C949 C 0.93857 0.1753 0.19095 0.0
C950 C 0.92618 0.16176 0.1645 0.0
C951 C 0.89753 0.16143 0.15156 0.0
C952 C 0.94186 0.14746 0.15054 0.0
C953 C 0.96813 0.17554 0.20879 0.0
C954 C 0.96897 0.15832 0.14877 0.0
C955 C 0.98295 0.14512 0.13616 0.0
C956 C 0.97087 0.12007 0.12378 0.0
C957 C 0.94356 0.10944 0.12513 0.0
C958 C 0.92967 0.12259 0.13789 0.0
H959 H 0.97181 0.17816 0.23196 0.0
H960 H 0.97401 0.15694 0.20734 0.0
H961 H 0.98184 0.19241 0.20085 0.0
H962 H 0.97959 0.17764 0.15671 0.0
H963 H 1.00339 0.15517 0.1357 0.0
H964 H 0.11797 0.56384 0.45969 0.0
H965 H 0.14851 0.55933 0.43384 0.0
H966 H 0.12212 0.47447 0.44034 0.0
H967 H 0.09124 0.47875 0.46667 0.0
H968 H 0.1896 0.50977 0.45319 0.0
H969 H 0.10939 0.51975 0.34761 0.0
H970 H 0.10822 0.53817 0.37534 0.0
H971 H 0.10157 0.50268 0.37942 0.0
C972 C 0.11872 0.54416 0.45596 0.0
C973 C 0.1019 0.52167 0.46498 0.0
C974 C 0.13625 0.54162 0.44124 0.0
C975 C 0.13738 0.51661 0.43517 0.0
C976 C 0.12144 0.49392 0.44489 0.0
H977 H 0.21316 0.59529 0.31298 0.0
H978 H 0.19714 0.55087 0.33281 0.0
C979 C 0.1038 0.49645 0.4598 0.0
C980 C 0.15418 0.51546 0.41693 0.0
H981 H 0.15618 0.5425 0.35067 0.0
C982 C 0.18229 0.51582 0.43038 0.0
C983 C 0.14451 0.52222 0.38702 0.0
C984 C 0.11419 0.52046 0.37134 0.0
C985 C 0.20146 0.52696 0.41563 0.0
C986 C 0.19215 0.53895 0.38746 0.0
C987 C 0.16367 0.53409 0.37255 0.0
C988 C 0.20982 0.56229 0.37694 0.0
C989 C 0.23162 0.52787 0.43125 0.0
C990 C 0.22349 0.58327 0.39525 0.0
C991 C 0.23267 0.60845 0.38401 0.0
C992 C 0.2281 0.61336 0.35414 0.0
C993 C 0.21687 0.59201 0.33611 0.0
C994 C 0.20773 0.56663 0.34744 0.0
H995 H 0.23433 0.50845 0.44283 0.0
H996 H 0.24406 0.53285 0.4162 0.0
H997 H 0.23955 0.54278 0.44783 0.0
H998 H 0.22483 0.58094 0.41788 0.0
H999 H 0.24166 0.6245 0.39844 0.0
H1000 H 0.59952 0.94722 0.53119 0.0
H1001 H 0.62936 0.91786 0.56122 0.0
H1002 H 0.63432 0.95267 0.63776 0.0
H1003 H 0.60416 0.98174 0.60789 0.0
H1004 H 0.68139 0.92516 0.59643 0.0
H1005 H 0.61632 0.87695 0.66479 0.0
H1006 H 0.60402 0.89769 0.63288 0.0
H1007 H 0.62556 0.91219 0.66645 0.0
C1008 C 0.60675 0.94862 0.55444 0.0
C1009 C 0.59889 0.96707 0.56678 0.0
C1010 C 0.62405 0.93167 0.57178 0.0
C1011 C 0.63413 0.9322 0.60228 0.0
C1012 C 0.62655 0.95087 0.61458 0.0
H1013 H 0.7435 0.84583 0.74432 0.0
H1014 H 0.71346 0.87526 0.71473 0.0
C1015 C 0.60926 0.96783 0.59726 0.0
C1016 C 0.65289 0.91383 0.62086 0.0
H1017 H 0.66144 0.86853 0.67949 0.0
C1018 C 0.67677 0.91272 0.61446 0.0
C1019 C 0.64756 0.89728 0.64477 0.0
C1020 C 0.62185 0.89582 0.65252 0.0
C1021 C 0.69528 0.89645 0.63116 0.0
C1022 C 0.68991 0.87985 0.65504 0.0
C1023 C 0.66606 0.88098 0.66147 0.0
C1024 C 0.70858 0.86132 0.67343 0.0
C1025 C 0.72102 0.89798 0.62345 0.0
C1026 C 0.71609 0.84281 0.66084 0.0
C1027 C 0.73347 0.82584 0.67789 0.0
C1028 C 0.744 0.82639 0.70839 0.0
C1029 C 0.73614 0.8446 0.72104 0.0
C1030 C 0.71873 0.86158 0.70396 0.0
H1031 H 0.72664 0.91697 0.6114 0.0
H1032 H 0.7388 0.89593 0.64307 0.0
H1033 H 0.71729 0.88177 0.60929 0.0
H1034 H 0.70825 0.84119 0.63764 0.0
H1035 H 0.73862 0.81217 0.667 0.0
H1036 H 0.4833 0.48093 0.95401 0.0
H1037 H 0.44745 0.44591 0.92674 0.0
H1038 H 0.49394 0.388 0.97486 0.0
H1039 H 0.52968 0.42304 1.00299 0.0
H1040 H 0.47533 0.38873 0.91012 0.0
H1041 H 0.3912 0.38454 0.95608 0.0
H1042 H 0.40876 0.41698 0.94673 0.0
H1043 H 0.42718 0.3969 0.97549 0.0
C1044 C 0.48565 0.46069 0.95924 0.0
C1045 C 0.50912 0.45467 0.98088 0.0
C1046 C 0.46516 0.44072 0.94358 0.0
C1047 C 0.46789 0.41436 0.94904 0.0
C1048 C 0.49138 0.40823 0.97052 0.0
H1049 H 0.35162 0.2737 0.86985 0.0
H1050 H 0.38377 0.30588 0.9044 0.0
C1051 C 0.51178 0.42823 0.98648 0.0
C1052 C 0.44701 0.3936 0.93092 0.0
H1053 H 0.37925 0.36123 0.91365 0.0
C1054 C 0.45438 0.38256 0.91101 0.0
C1055 C 0.41975 0.38559 0.93226 0.0
C1056 C 0.41114 0.3964 0.9539 0.0
C1057 C 0.43498 0.36419 0.89182 0.0
C1058 C 0.4075 0.35675 0.89251 0.0
C1059 C 0.40028 0.36721 0.91299 0.0
C1060 C 0.38615 0.33805 0.87201 0.0
C1061 C 0.44393 0.35286 0.87082 0.0
C1062 C 0.37636 0.34572 0.84248 0.0
C1063 C 0.35789 0.32746 0.82274 0.0
C1064 C 0.34908 0.30116 0.8322 0.0
C1065 C 0.35818 0.29379 0.86193 0.0
C1066 C 0.37649 0.31213 0.88169 0.0
H1067 H 0.46677 0.35703 0.87638 0.0
H1068 H 0.43587 0.33114 0.87037 0.0
H1069 H 0.43535 0.36168 0.84872 0.0
H1070 H 0.38345 0.36571 0.83465 0.0
H1071 H 0.35115 0.33373 0.79999 0.0
H1072 H 0.85156 0.83212 0.30027 0.0
H1073 H 0.88898 0.86332 0.33157 0.0
H1074 H 0.90904 0.79967 0.39498 0.0
H1075 H 0.87127 0.76818 0.36371 0.0
H1076 H 0.90967 0.84771 0.41848 0.0
H1077 H 0.97092 0.86633 0.34264 0.0
H1078 H 0.93618 0.87086 0.3263 0.0
H1079 H 0.94216 0.83853 0.3403 0.0
C1080 C 0.86377 0.82475 0.32094 0.0
C1081 C 0.85865 0.79767 0.32941 0.0
C1082 C 0.88526 0.84259 0.33878 0.0
C1083 C 0.90214 0.83373 0.36536 0.0
C1084 C 0.89638 0.80687 0.37447 0.0
H1085 H 0.04823 0.91879 0.49423 0.0
H1086 H 1.01044 0.88421 0.46783 0.0
C1087 C 0.87483 0.78895 0.35658 0.0
C1088 C 0.9262 0.85253 0.38312 0.0
H1089 H 0.98655 0.89493 0.38128 0.0
C1090 C 0.92663 0.85787 0.41052 0.0
C1091 C 0.94831 0.86573 0.37267 0.0
C1092 C 0.94961 0.85995 0.34398 0.0
C1093 C 0.94817 0.87673 0.42732 0.0
C1094 C 0.96999 0.89023 0.41658 0.0
C1095 C 0.96976 0.88457 0.38942 0.0
C1096 C 0.99288 0.91092 0.43276 0.0
C1097 C 0.94704 0.88276 0.45598 0.0
C1098 C 0.99584 0.93723 0.42147 0.0
C1099 C 1.01736 0.95691 0.43642 0.0
C1100 C 1.03644 0.9506 0.46284 0.0
C1101 C 1.03381 0.92417 0.47388 0.0
C1102 C 1.01214 0.90447 0.45897 0.0
H1103 H 0.92647 0.87425 0.45874 0.0
H1104 H 0.96271 0.87432 0.47381 0.0
H1105 H 0.95195 0.90445 0.45806 0.0
H1106 H 0.9813 0.94258 0.40118 0.0
H1107 H 1.019 0.97712 0.42736 0.0
H1108 H 0.4492 0.58535 0.64331 0.0
H1109 H 0.42507 0.60774 0.66459 0.0
H1110 H 0.45956 0.68246 0.62863 0.0
H1111 H 0.48414 0.66027 0.60777 0.0
H1112 H 0.44296 0.64923 0.7061 0.0
H1113 H 0.37715 0.68671 0.60243 0.0
H1114 H 0.39478 0.66069 0.60427 0.0
H1115 H 0.41351 0.69445 0.6071 0.0
C1116 C 0.45184 0.60658 0.63959 0.0
C1117 C 0.46935 0.62029 0.6231 0.0
C1118 C 0.43777 0.61969 0.65219 0.0
C1119 C 0.43944 0.64747 0.64865 0.0
C1120 C 0.45683 0.66121 0.6321 0.0
H1121 H 0.34993 0.75862 0.69063 0.0
H1122 H 0.37576 0.7366 0.6713 0.0
C1123 C 0.47141 0.64819 0.62006 0.0
C1124 C 0.42351 0.66174 0.66211 0.0
H1125 H 0.37471 0.70057 0.64483 0.0
C1126 C 0.42799 0.66033 0.6924 0.0
C1127 C 0.40376 0.67705 0.64545 0.0
C1128 C 0.39669 0.6798 0.61299 0.0
C1129 C 0.41464 0.67361 0.7059 0.0
C1130 C 0.39417 0.68841 0.68918 0.0
C1131 C 0.38975 0.68969 0.65878 0.0
C1132 C 0.37774 0.70276 0.70227 0.0
C1133 C 0.42418 0.67251 0.73852 0.0
C1134 C 0.36862 0.69235 0.72668 0.0
C1135 C 0.35405 0.70564 0.73841 0.0
C1136 C 0.3466 0.73006 0.72625 0.0
C1137 C 0.35489 0.74017 0.70139 0.0
C1138 C 0.36995 0.72714 0.68998 0.0
H1139 H 0.4456 0.66932 0.7477 0.0
H1140 H 0.42365 0.69102 0.74673 0.0
H1141 H 0.41068 0.6556 0.74666 0.0
H1142 H 0.37212 0.67332 0.73676 0.0
H1143 H 0.34794 0.69618 0.75689 0.0
H1144 H 0.61692 0.98358 0.99572 0.0
H1145 H 0.65334 0.98696 0.97377 0.0
H1146 H 0.66437 0.07181 0.96578 0.0
H1147 H 0.62904 0.0688 0.98796 0.0
H1148 H 0.65099 1.00558 0.9199 0.0
H1149 H 0.7432 0.06535 0.9924 0.0
H1150 H 0.71418 0.04803 1.0043 0.0
H1151 H 0.71513 0.08093 0.98709 0.0
C1152 C 0.62752 1.00296 0.98975 0.0
C1153 C 0.61995 0.02594 0.9934 0.0
C1154 C 0.64832 1.00481 0.97731 0.0
C1155 C 0.66195 0.02962 0.96867 0.0
C1156 C 0.65484 0.05248 0.9731 0.0
H1157 H 0.67698 0.10919 0.82859 0.0
H1158 H 0.66767 0.07336 0.86304 0.0
C1159 C 0.63425 0.05069 0.98545 0.0
C1160 C 0.68068 0.03223 0.95127 0.0
H1161 H 0.73544 0.07716 0.93945 0.0
C1162 C 0.67006 0.02051 0.92457 0.0
C1163 C 0.70621 0.05076 0.95764 0.0
C1164 C 0.72042 0.06168 0.98713 0.0
C1165 C 0.68196 0.03 0.90254 0.0
C1166 C 0.70442 0.0521 0.90724 0.0
C1167 C 0.71763 0.06079 0.93538 0.0
C1168 C 0.71027 0.06997 0.88287 0.0
C1169 C 0.66907 1.01752 0.87379 0.0
C1170 C 0.73742 0.08034 0.88246 0.0
C1171 C 0.74289 0.10122 0.86266 0.0
C1172 C 0.72128 0.11216 0.84309 0.0
C1173 C 0.69407 0.10094 0.84283 0.0
C1174 C 0.68867 0.08021 0.86253 0.0
H1175 H 0.66229 0.99578 0.87706 0.0
H1176 H 0.65043 0.02528 0.86118 0.0
H1177 H 0.68361 0.0217 0.86101 0.0
H1178 H 0.75446 0.07297 0.89816 0.0
H1179 H 0.76406 0.10928 0.86322 0.0
H1180 H 0.09339 0.47327 0.11004 0.0
H1181 H 0.12331 0.44384 0.13955 0.0
H1182 H 0.12582 0.41636 0.06202 0.0
H1183 H 0.0966 0.44631 0.03256 0.0
H1184 H 0.12019 0.39349 0.14838 0.0
H1185 H 0.20577 0.42945 0.10235 0.0
H1186 H 0.17766 0.44605 0.09383 0.0
H1187 H 0.17387 0.41733 0.07512 0.0
C1188 C 0.10036 0.46109 0.09913 0.0
C1189 C 0.09251 0.46275 0.06857 0.0
C1190 C 0.11765 0.44405 0.11621 0.0
C1191 C 0.12792 0.42786 0.10356 0.0
C1192 C 0.11946 0.42902 0.07295 0.0
H1193 H 0.22942 0.30644 0.17181 0.0
H1194 H 0.19957 0.33589 0.14202 0.0
C1195 C 0.10236 0.44622 0.05587 0.0
C1196 C 0.14673 0.40957 0.1223 0.0
H1197 H 0.20739 0.39002 0.13286 0.0
C1198 C 0.13932 0.39302 0.14493 0.0
C1199 C 0.17204 0.40837 0.11846 0.0
C1200 C 0.18298 0.42643 0.09634 0.0
C1201 C 0.1557 0.37544 0.16291 0.0
C1202 C 0.18085 0.37413 0.1589 0.0
C1203 C 0.18827 0.39059 0.13628 0.0
C1204 C 0.19956 0.35588 0.1777 0.0
C1205 C 0.14538 0.35781 0.18567 0.0
C1206 C 0.21039 0.35697 0.20813 0.0
C1207 C 0.22776 0.34006 0.22538 0.0
C1208 C 0.23506 0.32126 0.21298 0.0
C1209 C 0.22439 0.32035 0.18251 0.0
C1210 C 0.2072 0.3374 0.16526 0.0
H1211 H 0.1228 0.35561 0.18088 0.0
H1212 H 0.14982 0.33787 0.18749 0.0
H1213 H 0.15595 0.36667 0.20693 0.0
H1214 H 0.20569 0.37121 0.21868 0.0
H1215 H 0.23546 0.34174 0.2486 0.0
H1216 H 0.71027 0.61048 0.98061 0.0
H1217 H 0.72527 0.64536 0.94714 0.0
H1218 H 0.6437 0.66201 0.91495 0.0
H1219 H 0.62853 0.6267 0.94789 0.0
H1220 H 0.65907 0.65323 0.87239 0.0
H1221 H 0.74444 0.72465 0.94082 0.0
H1222 H 0.75011 0.69175 0.95039 0.0
H1223 H 0.7208 0.70006 0.95531 0.0
C1224 C 0.6958 0.62204 0.96684 0.0
C1225 C 0.66824 0.61583 0.96651 0.0
C1226 C 0.7044 0.6421 0.94789 0.0
C1227 C 0.6857 0.65656 0.92878 0.0
C1228 C 0.6585 0.65119 0.92956 0.0
H1229 H 0.7452 0.76879 0.80006 0.0
H1230 H 0.72354 0.75251 0.83818 0.0
C1231 C 0.64983 0.63097 0.94823 0.0
C1232 C 0.69341 0.67443 0.90537 0.0
H1233 H 0.74502 0.72307 0.89167 0.0
C1234 C 0.67753 0.66891 0.87667 0.0
C1235 C 0.71722 0.69518 0.91083 0.0
C1236 C 0.73391 0.70343 0.94104 0.0
C1237 C 0.6859 0.68226 0.85339 0.0
C1238 C 0.71106 0.70122 0.85902 0.0
C1239 C 0.72592 0.7082 0.88751 0.0
C1240 C 0.72373 0.71153 0.83601 0.0
C1241 C 0.66821 0.67529 0.823 0.0
C1242 C 0.73125 0.69391 0.82263 0.0
C1243 C 0.74361 0.7031 0.80117 0.0
C1244 C 0.74881 0.73012 0.79279 0.0
C1245 C 0.74137 0.74786 0.80621 0.0
C1246 C 0.72904 0.73862 0.82789 0.0
H1247 H 0.64626 0.66727 0.82174 0.0
H1248 H 0.66938 0.69277 0.80747 0.0
H1249 H 0.6756 0.65985 0.81626 0.0
H1250 H 0.72778 0.67299 0.82903 0.0
H1251 H 0.74932 0.68903 0.79132 0.0
H1252 H 0.6735 0.36685 0.19458 0.0
H1253 H 0.63236 0.3818 0.19068 0.0
H1254 H 0.58407 0.3021 0.17888 0.0
H1255 H 0.62569 0.28665 0.18359 0.0
H1256 H 0.56531 0.33624 0.1347 0.0
H1257 H 0.57978 0.38026 0.23522 0.0
H1258 H 0.61141 0.39005 0.22665 0.0
H1259 H 0.59805 0.35552 0.23421 0.0
C1260 C 0.65441 0.35225 0.19219 0.0
C1261 C 0.65291 0.32557 0.18914 0.0
C1262 C 0.63084 0.36083 0.1902 0.0
C1263 C 0.6052 0.34298 0.1851 0.0
C1264 C 0.60373 0.31612 0.18323 0.0
H1265 H 0.49657 0.44072 0.07401 0.0
H1266 H 0.49914 0.40239 0.10881 0.0
C1267 C 0.62744 0.30744 0.18546 0.0
C1268 C 0.57996 0.35374 0.17581 0.0
H1269 H 0.5602 0.40648 0.18949 0.0
C1270 C 0.56315 0.35084 0.14696 0.0
C1271 C 0.57666 0.37219 0.19208 0.0
C1272 C 0.59229 0.37441 0.22388 0.0
C1273 C 0.54696 0.36917 0.13247 0.0
C1274 C 0.54741 0.39051 0.14763 0.0
C1275 C 0.56036 0.39047 0.17773 0.0
C1276 C 0.54255 0.41596 0.13186 0.0
C1277 C 0.53266 0.36749 0.10028 0.0
C1278 C 0.56547 0.43713 0.13462 0.0
C1279 C 0.56391 0.45916 0.11524 0.0
C1280 C 0.5394 0.46043 0.09255 0.0
C1281 C 0.51575 0.44028 0.09124 0.0
C1282 C 0.51724 0.41826 0.11098 0.0
H1283 H 0.53547 0.35014 0.09177 0.0
H1284 H 0.5102 0.36583 0.09544 0.0
H1285 H 0.54079 0.38563 0.08848 0.0
H1286 H 0.58525 0.43585 0.15057 0.0
H1287 H 0.58239 0.47452 0.11717 0.0
H1288 H 1.01316 0.51355 0.3964 0.0
H1289 H 0.98494 0.47874 0.36323 0.0
H1290 H 0.94678 0.44014 0.42749 0.0
H1291 H 0.97456 0.47499 0.46049 0.0
H1292 H 0.97976 0.42232 0.37064 0.0
H1293 H 0.88127 0.45145 0.35517 0.0
H1294 H 0.91456 0.47279 0.37047 0.0
H1295 H 0.90094 0.44612 0.3924 0.0
C1296 C 0.99871 0.49763 0.40339 0.0
C1297 C 0.99586 0.49704 0.4309 0.0
C1298 C 0.98272 0.47774 0.3845 0.0
C1299 C 0.96351 0.4571 0.39276 0.0
C1300 C 0.96116 0.45615 0.42052 0.0
H1301 H 0.84185 0.3206 0.32485 0.0
H1302 H 0.87553 0.35604 0.35314 0.0
C1303 C 0.97713 0.47598 0.43939 0.0
C1304 C 0.94548 0.43675 0.37229 0.0
H1305 H 0.87782 0.41023 0.33758 0.0
C1306 C 0.95748 0.41978 0.36314 0.0
C1307 C 0.91646 0.43365 0.36242 0.0
C1308 C 0.90249 0.4521 0.37037 0.0
C1309 C 0.94107 0.39902 0.34532 0.0
C1310 C 0.91201 0.39548 0.33619 0.0
C1311 C 0.90012 0.41293 0.34472 0.0
C1312 C 0.89329 0.37295 0.31918 0.0
C1313 C 0.95483 0.38046 0.33729 0.0
C1314 C 0.89221 0.37054 0.29066 0.0
C1315 C 0.87291 0.3501 0.27434 0.0
C1316 C 0.85441 0.33191 0.28634 0.0
C1317 C 0.85592 0.3342 0.31502 0.0
C1318 C 0.87511 0.3545 0.33123 0.0
H1319 H 0.97697 0.38293 0.35038 0.0
H1320 H 0.94419 0.3596 0.34023 0.0
H1321 H 0.95348 0.38443 0.31413 0.0
H1322 H 0.90577 0.38483 0.2808 0.0
H1323 H 0.87209 0.34885 0.25224 0.0
H1324 H 0.60486 0.61638 0.48899 0.0
H1325 H 0.632 0.6415 0.45849 0.0
H1326 H 0.63064 0.56902 0.42588 0.0
H1327 H 0.60208 0.54418 0.45533 0.0
H1328 H 0.67206 0.65964 0.4447 0.0
H1329 H 0.63306 0.59623 0.35259 0.0
H1330 H 0.61572 0.59163 0.3793 0.0
H1331 H 0.64607 0.57835 0.38623 0.0
C1332 C 0.60975 0.60525 0.47515 0.0
C1333 C 0.59953 0.57702 0.47596 0.0
C1334 C 0.62614 0.62029 0.45696 0.0
C1335 C 0.6347 0.60908 0.43722 0.0
C1336 C 0.62487 0.58055 0.43848 0.0
H1337 H 0.75034 0.67606 0.32011 0.0
H1338 H 0.72202 0.64929 0.34925 0.0
C1339 C 0.60803 0.56544 0.45648 0.0
C1340 C 0.65355 0.62693 0.41711 0.0
H1341 H 0.67182 0.62999 0.35351 0.0
C1342 C 0.67121 0.6525 0.42471 0.0
C1343 C 0.65469 0.62018 0.38981 0.0
C1344 C 0.63626 0.59529 0.3762 0.0
C1345 C 0.68848 0.66949 0.40808 0.0
C1346 C 0.6898 0.66256 0.38106 0.0
C1347 C 0.67236 0.637 0.37346 0.0
C1348 C 0.70855 0.68075 0.36126 0.0
C1349 C 0.70623 0.69502 0.42078 0.0
C1350 C 0.71233 0.70905 0.35548 0.0
C1351 C 0.72897 0.72498 0.33782 0.0
C1352 C 0.74405 0.71462 0.32393 0.0
C1353 C 0.74018 0.68637 0.32952 0.0
C1354 C 0.72323 0.67038 0.34685 0.0
H1355 H 0.71021 0.69433 0.44452 0.0
H1356 H 0.72637 0.69967 0.41662 0.0
H1357 H 0.69537 0.71129 0.41076 0.0
H1358 H 0.70179 0.71942 0.36428 0.0
H1359 H 0.72992 0.74603 0.3351 0.0
H1360 H 0.86507 0.29875 0.81791 0.0
H1361 H 0.89869 0.33128 0.85067 0.0
H1362 H 0.83297 0.3502 0.87244 0.0
H1363 H 0.79905 0.3185 0.8385 0.0
H1364 H 0.8684 0.39394 0.86423 0.0
H1365 H 0.92762 0.3236 0.93696 0.0
H1366 H 0.92631 0.32304 0.90012 0.0
H1367 H 0.89498 0.31279 0.90965 0.0
C1368 C 0.85776 0.30993 0.82958 0.0
C1369 C 0.82943 0.30616 0.82559 0.0
C1370 C 0.87706 0.32832 0.84858 0.0
C1371 C 0.86849 0.34284 0.86455 0.0
C1372 C 0.84013 0.33914 0.86049 0.0
H1373 H 0.97706 0.42962 0.01427 0.0
H1374 H 0.94383 0.39735 0.98082 0.0
C1375 C 0.82077 0.32098 0.84117 0.0
C1376 C 0.889 0.36231 0.88493 0.0
H1377 H 0.94819 0.36938 0.94268 0.0
C1378 C 0.88576 0.38853 0.88148 0.0
C1379 C 0.91148 0.35522 0.90774 0.0
C1380 C 0.91518 0.32708 0.91406 0.0
C1381 C 0.90448 0.40788 0.89993 0.0
C1382 C 0.92764 0.40104 0.92194 0.0
C1383 C 0.93069 0.37475 0.92559 0.0
C1384 C 0.94841 0.42059 0.94206 0.0
C1385 C 0.89877 0.43525 0.89607 0.0
C1386 C 0.96255 0.44421 0.93153 0.0
C1387 C 0.98129 0.46286 0.95064 0.0
C1388 C 0.98666 0.45799 0.98067 0.0
C1389 C 0.97329 0.43395 0.99123 0.0
C1390 C 0.9543 0.41548 0.97212 0.0
H1391 H 0.87662 0.43508 0.88453 0.0
H1392 H 0.90466 0.444 0.91724 0.0
H1393 H 0.91095 0.44819 0.88292 0.0
H1394 H 0.95902 0.4483 0.90851 0.0
H1395 H 0.9914 0.48117 0.9419 0.0
H1396 H 0.87125 0.79139 0.20491 0.0
H1397 H 0.8996 0.81869 0.17615 0.0
H1398 H 0.85951 0.88219 0.1704 0.0
H1399 H 0.83246 0.85543 0.20011 0.0
H1400 H 0.90898 0.8404 0.13226 0.0
H1401 H 0.92124 0.93685 0.17243 0.0
H1402 H 0.90698 0.90677 0.18964 0.0
H1403 H 0.88549 0.92165 0.15752 0.0
C1404 C 0.86829 0.81128 0.19802 0.0
C1405 C 0.84829 0.81989 0.20658 0.0
C1406 C 0.88518 0.82763 0.18076 0.0
C1407 C 0.88422 0.85463 0.16994 0.0
C1408 C 0.86365 0.86285 0.17806 0.0
H1409 H 1.00614 0.98357 0.08849 0.0
H1410 H 0.97834 0.95726 0.11873 0.0
C1411 C 0.847 0.84663 0.19551 0.0
C1412 C 0.90347 0.87289 0.15049 0.0
H1413 H 0.93454 0.9379 0.13118 0.0
C1414 C 0.91415 0.86174 0.13259 0.0
C1415 C 0.91273 0.90158 0.14926 0.0
C1416 C 0.90635 0.91752 0.1684 0.0
C1417 C 0.93148 0.87664 0.11497 0.0
C1418 C 0.93947 0.90539 0.1125 0.0
C1419 C 0.92932 0.91655 0.13088 0.0
C1420 C 0.95799 0.92345 0.09225 0.0
C1421 C 0.94211 0.8604 0.09999 0.0
C1422 C 0.95777 0.9161 0.06499 0.0
C1423 C 0.97441 0.93156 0.04732 0.0
C1424 C 0.993 0.95679 0.054 0.0
C1425 C 0.99293 0.96486 0.08085 0.0
C1426 C 0.97632 0.94909 0.09887 0.0
H1427 H 0.94283 0.84045 0.11101 0.0
H1428 H 0.92796 0.85764 0.07755 0.0
H1429 H 0.9632 0.87013 0.0994 0.0
H1430 H 0.94402 0.89802 0.05633 0.0
H1431 H 0.97234 0.92331 0.02747 0.0
H1432 H 0.81756 0.17903 0.81781 0.0
H1433 H 0.84604 0.14745 0.84513 0.0
H1434 H 0.91626 0.19721 0.82446 0.0
H1435 H 0.88809 0.22899 0.79776 0.0
H1436 H 0.8738 0.11564 0.83517 0.0
H1437 H 0.95336 0.18753 0.9085 0.0
H1438 H 0.9217 0.19565 0.88446 0.0
H1439 H 0.9501 0.19715 0.87126 0.0
C1440 C 0.8391 0.18346 0.81905 0.0
C1441 C 0.85011 0.20721 0.8053 0.0
C1442 C 0.85561 0.16509 0.83487 0.0
C1443 C 0.88409 0.16951 0.83801 0.0
C1444 C 0.89489 0.193 0.82371 0.0
H1445 H 0.98422 0.04136 0.90712 0.0
H1446 H 0.95504 0.07076 0.87466 0.0
C1447 C 0.87843 0.21136 0.80796 0.0
C1448 C 0.90218 0.14985 0.85593 0.0
H1449 H 0.9634 0.14559 0.91009 0.0
C1450 C 0.89339 0.12242 0.8515 0.0
C1451 C 0.92796 0.1577 0.87794 0.0
C1452 C 0.93876 0.18604 0.88609 0.0
C1453 C 0.90919 0.10341 0.86759 0.0
C1454 C 0.93526 0.11139 0.8891 0.0
C1455 C 0.94387 0.13877 0.89367 0.0
C1456 C 0.95298 0.092 0.90851 0.0
C1457 C 0.89716 0.07463 0.86192 0.0
C1458 C 0.96263 0.09345 0.93883 0.0
C1459 C 0.97935 0.07662 0.9574 0.0
C1460 C 0.9879 0.0572 0.94702 0.0
C1461 C 0.97828 0.05553 0.91656 0.0
C1462 C 0.96124 0.07253 0.89776 0.0
H1463 H 0.87451 0.07086 0.85086 0.0
H1464 H 0.90682 0.06856 0.8477 0.0
H1465 H 0.90126 0.06207 0.88239 0.0
H1466 H 0.95708 0.10777 0.94848 0.0
H1467 H 0.9858 0.07921 0.9804 0.0
H1468 H 0.72986 0.23544 0.69596 0.0
H1469 H 0.69659 0.20327 0.66222 0.0
H1470 H 0.76359 0.17852 0.64911 0.0
H1471 H 0.79698 0.21045 0.68314 0.0
H1472 H 0.69036 0.19975 0.60369 0.0
H1473 H 0.71535 0.10851 0.66878 0.0
H1474 H 0.7262 0.14042 0.68403 0.0
H1475 H 0.74454 0.13201 0.66284 0.0
C1476 C 0.7375 0.22302 0.68601 0.0
C1477 C 0.76602 0.22534 0.69229 0.0
C1478 C 0.71847 0.2047 0.6667 0.0
C1479 C 0.72758 0.18823 0.65343 0.0
C1480 C 0.75608 0.19065 0.65951 0.0
H1481 H 0.6445 0.06545 0.53059 0.0
H1482 H 0.67819 0.09824 0.5634 0.0
C1483 C 0.77513 0.20901 0.67881 0.0
C1484 C 0.70724 0.16901 0.63269 0.0
H1485 H 0.68489 0.10315 0.62084 0.0
C1486 C 0.68908 0.17862 0.60747 0.0
C1487 C 0.70561 0.14144 0.63764 0.0
C1488 C 0.72377 0.12988 0.66489 0.0
C1489 C 0.66969 0.16146 0.58683 0.0
C1490 C 0.66805 0.13388 0.59178 0.0
C1491 C 0.68621 0.12428 0.61701 0.0
C1492 C 0.64753 0.11461 0.57117 0.0
C1493 C 0.65156 0.17311 0.5596 0.0
C1494 C 0.61909 0.11283 0.5647 0.0
C1495 C 0.59987 0.09429 0.54579 0.0
C1496 C 0.60869 0.0769 0.53332 0.0
C1497 C 0.63713 0.07867 0.53979 0.0
C1498 C 0.65637 0.09732 0.55861 0.0
H1499 H 0.66043 0.1943 0.5554 0.0
H1500 H 0.64849 0.1622 0.5405 0.0
H1501 H 0.63106 0.1717 0.562 0.0
H1502 H 0.61173 0.12551 0.5746 0.0
H1503 H 0.57807 0.09331 0.54128 0.0
H1504 H 0.53391 0.89777 0.36693 0.0
H1505 H 0.55487 0.86419 0.35922 0.0
H1506 H 0.58783 0.84901 0.45158 0.0
H1507 H 0.56901 0.88427 0.45949 0.0
H1508 H 0.62724 0.86141 0.43142 0.0
H1509 H 0.55035 0.78812 0.35962 0.0
H1510 H 0.54501 0.8199 0.34335 0.0
H1511 H 0.54027 0.80939 0.37825 0.0
C1512 C 0.54528 0.88706 0.38565 0.0
C1513 C 0.55042 0.89435 0.4138 0.0
C1514 C 0.55677 0.86731 0.3812 0.0
C1515 C 0.57293 0.85387 0.40482 0.0
C1516 C 0.57547 0.85909 0.43299 0.0
H1517 H 0.67652 0.78128 0.34286 0.0
H1518 H 0.64446 0.78203 0.3691 0.0
C1519 C 0.5645 0.87925 0.43746 0.0
C1520 C 0.59181 0.83939 0.40004 0.0
H1521 H 0.59595 0.80245 0.35029 0.0
C1522 C 0.6202 0.84775 0.41436 0.0
C1523 C 0.58299 0.82109 0.37828 0.0
C1524 C 0.55292 0.80894 0.36433 0.0
C1525 C 0.63987 0.84078 0.40524 0.0
C1526 C 0.63092 0.82569 0.38074 0.0
C1527 C 0.60272 0.81472 0.36858 0.0
C1528 C 0.65011 0.82459 0.36515 0.0
C1529 C 0.67008 0.851 0.42086 0.0
C1530 C 0.66336 0.84822 0.35385 0.0
C1531 C 0.68161 0.84791 0.33907 0.0
C1532 C 0.68681 0.82389 0.33503 0.0
C1533 C 0.67315 0.80012 0.34596 0.0
C1534 C 0.65479 0.80047 0.3608 0.0
H1535 H 0.67359 0.8536 0.444 0.0
H1536 H 0.68281 0.83744 0.41961 0.0
H1537 H 0.67721 0.87061 0.4108 0.0
H1538 H 0.65957 0.86701 0.35651 0.0
H1539 H 0.692 0.86655 0.3312 0.0
H1540 H 0.94189 0.21187 0.30688 0.0
H1541 H 0.98 0.19132 0.31046 0.0
H1542 H 1.00822 0.19536 0.40321 0.0
H1543 H 0.97016 0.21555 0.39995 0.0
H1544 H 0.05239 0.20277 0.37292 0.0
H1545 H 0.96625 0.11357 0.34771 0.0
H1546 H 0.96419 0.1424 0.32316 0.0
H1547 H 0.96161 0.14321 0.35849 0.0
C1548 C 0.95649 0.20875 0.328 0.0
C1549 C 0.95271 0.21482 0.35321 0.0
C1550 C 0.9784 0.19733 0.32994 0.0
C1551 C 0.99677 0.19178 0.35709 0.0
C1552 C 0.99437 0.19976 0.38203 0.0
H1553 H 0.09203 0.10027 0.47001 0.0
H1554 H 0.08231 0.13822 0.43686 0.0
C1555 C 0.97252 0.21118 0.38014 0.0
C1556 C 1.01468 0.17313 0.36048 0.0
H1557 H 1.01068 0.10692 0.36745 0.0
C1558 C 1.04348 0.1818 0.37108 0.0
C1559 C 1.00295 0.14589 0.35756 0.0
C1560 C 0.97208 0.13551 0.34622 0.0
C1561 C 0.0608 0.16361 0.38063 0.0
C1562 C 0.0488 0.13619 0.3806 0.0
C1563 C 1.02014 0.12784 0.36763 0.0
C1564 C 0.06389 0.1159 0.39825 0.0
C1565 C 0.09162 0.17401 0.39128 0.0
C1566 C 0.05802 0.09067 0.38778 0.0
C1567 C 0.06221 0.06874 0.40707 0.0
C1568 C 0.07357 0.07195 0.43689 0.0
C1569 C 0.08327 0.09745 0.44701 0.0
C1570 C 0.07801 0.11928 0.42788 0.0
H1571 H 0.09769 0.19179 0.37775 0.0
H1572 H 0.09782 0.18018 0.41373 0.0
H1573 H 0.10314 0.159 0.39097 0.0
H1574 H 0.04743 0.08751 0.36504 0.0
H1575 H 0.05477 0.04915 0.39889 0.0
H1576 H 0.72556 0.19052 0.28353 0.0
H1577 H 0.68677 0.15918 0.25303 0.0
H1578 H 0.71844 0.1845 0.18118 0.0
H1579 H 0.757 0.21545 0.2113 0.0
H1580 H 0.65959 0.18065 0.16781 0.0
H1581 H 0.69479 0.09017 0.22578 0.0
H1582 H 0.69158 0.11373 0.2472 0.0
H1583 H 0.71752 0.12249 0.22948 0.0
C1584 C 0.72415 0.18935 0.26122 0.0
C1585 C 0.74426 0.20544 0.24978 0.0
C1586 C 0.70207 0.17146 0.24387 0.0
C1587 C 0.69985 0.16946 0.21489 0.0
C1588 C 0.71972 0.18578 0.20344 0.0
H1589 H 0.60836 0.0818 0.06476 0.0
H1590 H 0.63567 0.11522 0.09966 0.0
C1591 C 0.74176 0.20346 0.22071 0.0
C1592 C 0.67732 0.15009 0.19631 0.0
H1593 H 0.65549 0.08426 0.18466 0.0
C1594 C 0.65846 0.15954 0.17162 0.0
C1595 C 0.6759 0.12259 0.2014 0.0
C1596 C 0.69606 0.11147 0.22727 0.0
C1597 C 0.6385 0.14222 0.15156 0.0
C1598 C 0.63782 0.11479 0.15599 0.0
C1599 C 0.65607 0.10529 0.18124 0.0
C1600 C 0.61949 0.0957 0.13407 0.0
C1601 C 0.61836 0.1535 0.12581 0.0
C1602 C 0.6015 0.07346 0.14182 0.0
C1603 C 0.58608 0.05422 0.12197 0.0
C1604 C 0.5885 0.05681 0.09406 0.0
C1605 C 0.60599 0.07937 0.08607 0.0
C1606 C 0.62147 0.09856 0.10596 0.0
H1607 H 0.6156 0.17268 0.13035 0.0
H1608 H 0.62647 0.15711 0.1072 0.0
H1609 H 0.59788 0.13967 0.11945 0.0
H1610 H 0.59972 0.07077 0.16341 0.0
H1611 H 0.5727 0.03705 0.12868 0.0
H1612 H 0.78636 0.89192 0.89604 0.0
H1613 H 0.75926 0.90758 0.91967 0.0
H1614 H 0.69435 0.838 0.89572 0.0
H1615 H 0.72099 0.82262 0.87167 0.0
H1616 H 0.67442 0.88254 0.88615 0.0
H1617 H 0.74924 0.87789 0.99696 0.0
H1618 H 0.76308 0.89868 0.97078 0.0
H1619 H 0.7519 0.86363 0.96691 0.0
C1620 C 0.76629 0.88006 0.89588 0.0
C1621 C 0.75571 0.8561 0.88213 0.0
C1622 C 0.75093 0.88894 0.90942 0.0
C1623 C 0.72504 0.8737 0.90982 0.0
C1624 C 0.7143 0.85001 0.89565 0.0
H1625 H 0.63095 0.87212 0.02304 0.0
H1626 H 0.66072 0.86401 0.99755 0.0
C1627 C 0.72947 0.8413 0.88188 0.0
C1628 C 0.70895 0.88208 0.92508 0.0
H1629 H 0.70957 0.89373 0.9919 0.0
C1630 C 0.6821 0.88509 0.90925 0.0
C1631 C 0.71903 0.8851 0.95526 0.0
C1632 C 0.74729 0.88095 0.97358 0.0
C1633 C 0.6648 0.89062 0.92287 0.0
C1634 C 0.67496 0.89388 0.95301 0.0
C1635 C 0.70195 0.89128 0.96878 0.0
C1636 C 0.65757 0.89917 0.96874 0.0
C1637 C 0.63552 0.89197 0.90501 0.0
C1638 C 0.64636 0.92177 0.9612 0.0
C1639 C 0.62916 0.92619 0.97539 0.0
C1640 C 0.6233 0.90838 0.99778 0.0
C1641 C 0.63516 0.88613 1.00587 0.0
C1642 C 0.65212 0.88153 0.99137 0.0
H1643 H 0.62891 0.88211 0.88437 0.0
H1644 H 0.62089 0.8826 0.91716 0.0
H1645 H 0.63414 0.91298 0.89959 0.0
H1646 H 0.65092 0.93598 0.94433 0.0
H1647 H 0.62066 0.94373 0.96906 0.0
H1648 H 0.93018 0.8957 0.52886 0.0
H1649 H 0.91584 0.864 0.56542 0.0
H1650 H 0.88907 0.92423 0.5936 0.0
H1651 H 0.90281 0.95587 0.5569 0.0
H1652 H 0.93294 0.89471 0.63702 0.0
H1653 H 0.83368 0.83199 0.5738 0.0
H1654 H 0.86246 0.8418 0.55976 0.0
H1655 H 0.84456 0.86601 0.56197 0.0
C1656 C 0.92055 0.90199 0.54233 0.0
C1657 C 0.91772 0.92833 0.54012 0.0
C1658 C 0.91252 0.8839 0.56324 0.0
C1659 C 0.90149 0.8919 0.58209 0.0
C1660 C 0.89761 0.9178 0.57918 0.0
H1661 H 0.85149 0.85848 0.72839 0.0
H1662 H 0.87023 0.87484 0.68868 0.0
C1663 C 0.90555 0.93584 0.55831 0.0
C1664 C 0.896 0.8742 0.60647 0.0
H1665 H 0.84657 0.82599 0.62468 0.0
C1666 C 0.9143 0.87936 0.63435 0.0
C1667 C 0.87188 0.85405 0.60272 0.0
C1668 C 0.85186 0.84795 0.57301 0.0
C1669 C 0.90837 0.86573 0.65884 0.0
C1670 C 0.88328 0.84687 0.65525 0.0
C1671 C 0.86578 0.84052 0.62728 0.0
C1672 C 0.8732 0.83641 0.68009 0.0
C1673 C 0.92855 0.87228 0.68842 0.0
C1674 C 0.86846 0.80929 0.68823 0.0
C1675 C 0.85783 0.79986 0.71116 0.0
C1676 C 0.85137 0.81741 0.72574 0.0
C1677 C 0.85635 0.84451 0.7176 0.0
C1678 C 0.86712 0.8539 0.69497 0.0
H1679 H 0.9498 0.88056 0.68741 0.0
H1680 H 0.92231 0.88735 0.69714 0.0
H1681 H 0.92879 0.85452 0.70368 0.0
H1682 H 0.87293 0.79552 0.67684 0.0
H1683 H 0.85432 0.77889 0.7172 0.0
H1684 H 0.2388 0.77463 0.83405 0.0
H1685 H 0.21317 0.79651 0.85383 0.0
H1686 H 0.22922 0.86605 0.79901 0.0
H1687 H 0.25329 0.84349 0.77833 0.0
H1688 H 0.21526 0.8299 0.88449 0.0
H1689 H 0.15693 0.87623 0.78311 0.0
H1690 H 0.17677 0.85287 0.78292 0.0
H1691 H 0.19314 0.8873 0.78865 0.0
C1692 C 0.23661 0.79449 0.82569 0.0
C1693 C 0.24822 0.8065 0.80349 0.0
C1694 C 0.22168 0.80742 0.83738 0.0
C1695 C 0.2174 0.83355 0.82809 0.0
C1696 C 0.22989 0.84577 0.80649 0.0
H1697 H 0.1479 0.94979 0.89113 0.0
H1698 H 0.17239 0.92779 0.86997 0.0
C1699 C 0.24433 0.83264 0.79443 0.0
C1700 C 0.20103 0.84771 0.84144 0.0
H1701 H 0.15724 0.89176 0.82622 0.0
C1702 C 0.20247 0.84314 0.87117 0.0
C1703 C 0.18348 0.86555 0.82553 0.0
C1704 C 0.1772 0.87059 0.79327 0.0
C1705 C 0.18832 0.85543 0.88468 0.0
C1706 C 0.17139 0.87362 0.86888 0.0
C1707 C 0.16995 0.87833 0.83929 0.0
C1708 C 0.1553 0.88763 0.88241 0.0
C1709 C 0.19235 0.84915 0.9165 0.0
C1710 C 0.13623 0.87353 0.89691 0.0
C1711 C 0.1215 0.88637 0.90894 0.0
C1712 C 0.12498 0.91437 0.90785 0.0
C1713 C 0.14411 0.92844 0.89333 0.0
C1714 C 0.1584 0.91556 0.88079 0.0
H1715 H 0.21102 0.8409 0.92746 0.0
H1716 H 0.19419 0.86704 0.92742 0.0
H1717 H 0.17419 0.8342 0.91923 0.0
H1718 H 0.13224 0.85216 0.89871 0.0
H1719 H 0.10747 0.87401 0.91962 0.0
H1720 H 0.94788 0.49617 0.51618 0.0
H1721 H 0.91722 0.49308 0.54455 0.0
H1722 H 0.96751 0.56457 0.58538 0.0
H1723 H 0.99834 0.56802 0.55631 0.0
H1724 H 0.96402 0.52069 0.62318 0.0
H1725 H 0.85929 0.52731 0.55394 0.0
H1726 H 0.8727 0.50733 0.53766 0.0
H1727 H 0.88938 0.54166 0.54267 0.0
C1728 C 0.95192 0.51172 0.53049 0.0
C1729 C 0.9756 0.53212 0.53438 0.0
C1730 C 0.93417 0.51014 0.54647 0.0
C1731 C 0.93987 0.52877 0.56688 0.0
C1732 C 0.96254 0.55024 0.56943 0.0
H1733 H 0.88418 0.44609 0.71151 0.0
H1734 H 0.8978 0.48679 0.68364 0.0
C1735 C 0.98014 0.55212 0.55293 0.0
C1736 C 0.92577 0.52198 0.5892 0.0
H1737 H 0.86201 0.49287 0.59454 0.0
C1738 C 0.94169 0.51553 0.6174 0.0
C1739 C 0.89669 0.51548 0.58165 0.0
C1740 C 0.8786 0.52361 0.55235 0.0
C1741 C 0.92941 0.4995 0.63691 0.0
C1742 C 0.90035 0.49034 0.62809 0.0
C1743 C 0.88429 0.49957 0.60116 0.0
C1744 C 0.88714 0.46754 0.64383 0.0
C1745 C 0.94788 0.49026 0.66551 0.0
C1746 C 0.87513 0.44357 0.63026 0.0
C1747 C 0.86709 0.42045 0.64597 0.0
C1748 C 0.87102 0.42083 0.67564 0.0
C1749 C 0.88137 0.44517 0.68877 0.0
C1750 C 0.88915 0.4684 0.67291 0.0
H1751 H 0.9701 0.49657 0.66729 0.0
H1752 H 0.9448 0.4986 0.68343 0.0
H1753 H 0.94266 0.46837 0.66852 0.0
H1754 H 0.87342 0.44241 0.60785 0.0
H1755 H 0.85935 0.40202 0.63528 0.0
H1756 H 0.4924 0.09739 0.49564 0.0
H1757 H 0.46155 0.12575 0.46522 0.0
H1758 H 0.45486 0.08847 0.38958 0.0
H1759 H 0.48535 0.05988 0.41988 0.0
H1760 H 0.46429 0.16296 0.42189 0.0
H1761 H 0.37447 0.08315 0.37572 0.0
H1762 H 0.40386 0.07693 0.40566 0.0
H1763 H 0.4051 0.08031 0.36916 0.0
C1764 C 0.48434 0.09504 0.47254 0.0
C1765 C 0.49162 0.0759 0.46059 0.0
C1766 C 0.46654 0.11147 0.45497 0.0
C1767 C 0.45496 0.10934 0.42471 0.0
C1768 C 0.46252 0.09045 0.41273 0.0
H1769 H 0.34211 0.19147 0.28145 0.0
H1770 H 0.37315 0.16305 0.31143 0.0
C1771 C 0.48037 0.07407 0.43026 0.0
C1772 C 0.43563 0.12709 0.40586 0.0
H1773 H 0.37193 0.12646 0.35459 0.0
C1774 C 0.44405 0.1548 0.40734 0.0
C1775 C 0.40896 0.11708 0.38641 0.0
C1776 C 0.39739 0.08775 0.38427 0.0
C1777 C 0.4273 0.17236 0.38998 0.0
C1778 C 0.40057 0.16236 0.37061 0.0
C1779 C 0.39218 0.13463 0.3691 0.0
C1780 C 0.38115 0.18012 0.35196 0.0
C1781 C 0.43904 0.20167 0.392 0.0
C1782 C 0.37428 0.1994 0.36409 0.0
C1783 C 0.35645 0.21587 0.34681 0.0
C1784 C 0.34438 0.2137 0.31658 0.0
C1785 C 0.35084 0.1941 0.30448 0.0
C1786 C 0.36874 0.17764 0.3218 0.0
H1787 H 0.46198 0.20616 0.4 0.0
H1788 H 0.43223 0.21253 0.37069 0.0
H1789 H 0.43191 0.20918 0.40755 0.0
H1790 H 0.38248 0.20162 0.38719 0.0
H1791 H 0.35203 0.23034 0.35734 0.0
H1792 H 0.59058 0.55398 0.09098 0.0
H1793 H 0.62612 0.58943 0.11794 0.0
H1794 H 0.58564 0.64745 0.06 0.0
H1795 H 0.54961 0.61192 0.03337 0.0
H1796 H 0.66284 0.62891 0.10168 0.0
H1797 H 0.59364 0.67163 0.13732 0.0
H1798 H 0.58244 0.64019 0.1211 0.0
H1799 H 0.58401 0.67047 0.09877 0.0
C1800 C 0.58923 0.5743 0.08403 0.0
C1801 C 0.56725 0.58021 0.06019 0.0
C1802 C 0.60957 0.59456 0.09944 0.0
C1803 C 0.60838 0.62116 0.09136 0.0
C1804 C 0.58667 0.62711 0.06716 0.0
H1805 H 0.72071 0.7665 0.1665 0.0
H1806 H 0.68589 0.73468 0.1331 0.0
C1807 C 0.56617 0.60681 0.05185 0.0
C1808 C 0.63005 0.6425 0.10819 0.0
H1809 H 0.64027 0.69482 0.14824 0.0
C1810 C 0.65786 0.64331 0.11183 0.0
C1811 C 0.62362 0.66135 0.1215 0.0
C1812 C 0.59435 0.6608 0.11976 0.0
C1813 C 0.67932 0.66232 0.12841 0.0
C1814 C 0.67286 0.68098 0.14179 0.0
C1815 C 0.64511 0.68055 0.13778 0.0
C1816 C 0.69466 0.70023 0.16131 0.0
C1817 C 0.7088 0.66237 0.13153 0.0
C1818 C 0.71101 0.69138 0.18823 0.0
C1819 C 0.73066 0.70945 0.20738 0.0
C1820 C 0.73447 0.73675 0.19993 0.0
C1821 C 0.71832 0.74558 0.17279 0.0
C1822 C 0.69842 0.72746 0.15372 0.0
H1823 H 0.7101 0.65056 0.1151 0.0
H1824 H 0.72072 0.68287 0.12949 0.0
H1825 H 0.71869 0.65371 0.15332 0.0
H1826 H 0.70819 0.67048 0.19466 0.0
H1827 H 0.74263 0.70204 0.22821 0.0
H1828 H 0.24968 0.19283 0.72602 0.0
H1829 H 0.21805 0.16025 0.69169 0.0
H1830 H 0.20286 0.22267 0.62515 0.0
H1831 H 0.23445 0.25531 0.65931 0.0
H1832 H 0.15431 0.18754 0.63316 0.0
H1833 H 0.22749 0.1332 0.62078 0.0
H1834 H 0.23036 0.13727 0.6575 0.0
H1835 H 0.23855 0.16578 0.63457 0.0
C1836 C 0.23985 0.19955 0.70397 0.0
C1837 C 0.24451 0.22662 0.69537 0.0
C1838 C 0.22188 0.18092 0.68435 0.0
C1839 C 0.20825 0.189 0.65577 0.0
C1840 C 0.21322 0.21598 0.64705 0.0
H1841 H 0.07596 0.10599 0.5132 0.0
H1842 H 0.11094 0.13976 0.54372 0.0
C1843 C 0.23131 0.2346 0.66658 0.0
C1844 C 0.18758 0.16955 0.63551 0.0
H1845 H 0.17975 0.11463 0.60055 0.0
C1846 C 0.15986 0.17168 0.62587 0.0
C1847 C 0.19488 0.14885 0.6261 0.0
C1848 C 0.22446 0.14614 0.63502 0.0
C1849 C 0.13912 0.15328 0.6077 0.0
C1850 C 0.14637 0.13248 0.59833 0.0
C1851 C 0.17417 0.13053 0.60775 0.0
C1852 C 0.12534 0.11214 0.57943 0.0
C1853 C 0.10952 0.1558 0.59949 0.0
C1854 C 0.12222 0.08532 0.58897 0.0
C1855 C 0.10259 0.06601 0.57137 0.0
C1856 C 0.0856 0.07317 0.54394 0.0
C1857 C 0.08865 0.09998 0.53437 0.0
C1858 C 0.10854 0.11928 0.55184 0.0
H1859 H 0.10669 0.16826 0.61435 0.0
H1860 H 0.10334 0.16525 0.5773 0.0
H1861 H 0.09546 0.13611 0.59966 0.0
H1862 H 0.13497 0.0793 0.61009 0.0
H1863 H 0.10069 0.04547 0.57927 0.0
H1864 H 0.77541 0.29995 0.35303 0.0
H1865 H 0.74979 0.32175 0.37299 0.0
H1866 H 0.69575 0.33496 0.2871 0.0
H1867 H 0.72097 0.31263 0.26739 0.0
H1868 H 0.7398 0.36765 0.37389 0.0
H1869 H 0.63502 0.31207 0.31948 0.0
H1870 H 0.66523 0.30266 0.31823 0.0
H1871 H 0.6521 0.32899 0.29408 0.0
C1872 C 0.75792 0.30719 0.33811 0.0
C1873 C 0.75089 0.30379 0.30799 0.0
C1874 C 0.74296 0.32007 0.34981 0.0
C1875 C 0.71953 0.33031 0.3324 0.0
C1876 C 0.71269 0.32709 0.30221 0.0
H1877 H 0.60082 0.41447 0.36666 0.0
H1878 H 0.62576 0.39272 0.34598 0.0
C1879 C 0.72771 0.31429 0.29052 0.0
C1880 C 0.70321 0.34449 0.34563 0.0
H1881 H 0.63778 0.34926 0.3437 0.0
C1882 C 0.71745 0.36321 0.36712 0.0
C1883 C 0.67365 0.33995 0.33772 0.0
C1884 C 0.65555 0.31967 0.31634 0.0
C1885 C 0.70395 0.37717 0.37969 0.0
C1886 C 0.67437 0.37242 0.37206 0.0
C1887 C 0.66013 0.35373 0.35048 0.0
C1888 C 0.65814 0.38638 0.3857 0.0
C1889 C 0.72217 0.39798 0.40037 0.0
C1890 C 0.66622 0.39067 0.41576 0.0
C1891 C 0.65169 0.40358 0.42793 0.0
C1892 C 0.62746 0.41295 0.41122 0.0
C1893 C 0.61893 0.40805 0.38124 0.0
C1894 C 0.63363 0.39528 0.36903 0.0
H1895 H 0.74228 0.4059 0.39633 0.0
H1896 H 0.7122 0.41475 0.39859 0.0
H1897 H 0.72661 0.38903 0.42284 0.0
H1898 H 0.68382 0.38357 0.43048 0.0
H1899 H 0.6595 0.40568 0.45104 0.0
H1900 H 0.46372 0.97037 0.03932 0.0
H1901 H 0.4224 0.96509 0.05273 0.0
H1902 H 0.44283 0.04803 0.0684 0.0
H1903 H 0.48479 0.05357 0.05473 0.0
H1904 H 0.43458 1.01501 0.11486 0.0
H1905 H 0.34707 0.98343 0.01871 0.0
H1906 H 0.37412 0.96753 0.02072 0.0
H1907 H 0.37983 1.00312 0.01627 0.0
C1908 C 0.45934 0.98762 0.04523 0.0
C1909 C 0.47763 1.0123 0.04632 0.0
C1910 C 0.43539 0.98468 0.05239 0.0
C1911 C 0.42914 1.00631 0.06084 0.0
C1912 C 0.44702 0.03123 0.06136 0.0
H1913 H 0.33948 0.91813 0.17599 0.0
H1914 H 0.34581 0.95877 0.14493 0.0
C1915 C 0.47101 0.03428 0.05377 0.0
C1916 C 0.40673 1.00095 0.07388 0.0
H1917 H 0.34609 0.95585 0.0649 0.0
C1918 C 0.4145 1.00322 0.10382 0.0
C1919 C 0.38027 0.98618 0.05937 0.0
C1920 C 0.36979 0.98523 0.02689 0.0
C1921 C 0.39882 0.987 0.12023 0.0
C1922 C 0.37498 0.96844 0.10606 0.0
C1923 C 0.36473 0.96974 0.07574 0.0
C1924 C 0.36641 0.94335 0.12161 0.0
C1925 C 0.40993 0.98705 0.1528 0.0
C1926 C 0.37534 0.92124 0.11815 0.0
C1927 C 0.37199 0.89831 0.1358 0.0
C1928 C 0.35948 0.89703 0.15714 0.0
C1929 C 0.34917 0.91869 0.15961 0.0
C1930 C 0.35275 0.94184 0.14198 0.0
H1931 H 0.42782 1.00376 0.16034 0.0
H1932 H 0.39351 0.98848 0.16155 0.0
H1933 H 0.41655 0.96825 0.16186 0.0
H1934 H 0.38608 0.92215 0.1026 0.0
H1935 H 0.37975 0.88177 0.13323 0.0
H1936 H 0.98432 0.58887 0.9931 0.0
H1937 H 0.95546 0.61903 0.96264 0.0
H1938 H 0.96739 0.59766 0.88704 0.0
H1939 H 0.99605 0.56753 0.91721 0.0
H1940 H 0.9653 0.66332 0.92647 0.0
H1941 H 0.88431 0.58738 0.85944 0.0
H1942 H 0.9099 0.57891 0.89231 0.0
H1943 H 0.91836 0.5877 0.8592 0.0
C1944 C 0.9808 0.59045 0.96997 0.0
C1945 C 0.99274 0.57531 0.95794 0.0
C1946 C 0.96417 0.6079 0.95241 0.0
C1947 C 0.95841 0.61068 0.92203 0.0
C1948 C 0.9706 0.59578 0.9101 0.0
H1949 H 0.8588 0.70215 0.7763 0.0
H1950 H 0.88815 0.6726 0.80714 0.0
C1951 C 0.98735 0.57851 0.92762 0.0
C1952 C 0.94024 0.6293 0.903 0.0
H1953 H 0.88248 0.63206 0.84384 0.0
C1954 C 0.94711 0.65632 0.90854 0.0
C1955 C 0.91634 0.62078 0.87917 0.0
C1956 C 0.90656 0.59208 0.87225 0.0
C1957 C 0.9316 0.67475 0.89096 0.0
C1958 C 0.90755 0.66621 0.86719 0.0
C1959 C 0.90068 0.63914 0.86173 0.0
C1960 C 0.88934 0.68481 0.84797 0.0
C1961 C 0.94199 0.70349 0.8976 0.0
C1962 C 0.87925 0.70177 0.85984 0.0
C1963 C 0.86255 0.71898 0.84209 0.0
C1964 C 0.8547 0.7198 0.81154 0.0
C1965 C 0.86428 0.70247 0.79958 0.0
C1966 C 0.88119 0.68535 0.8174 0.0
H1967 H 0.96454 0.70805 0.90921 0.0
H1968 H 0.93783 0.71663 0.87757 0.0
H1969 H 0.93147 0.70808 0.91186 0.0
H1970 H 0.88398 0.70155 0.88305 0.0
H1971 H 0.85551 0.73155 0.85247 0.0
H1972 H 0.36316 0.41077 0.03744 0.0
H1973 H 0.34866 0.37264 0.06786 0.0
H1974 H 0.42247 0.3455 0.07824 0.0
H1975 H 0.43747 0.38424 0.04864 0.0
H1976 H 0.34183 0.31662 0.07653 0.0
H1977 H 0.4353 0.37094 0.15763 0.0
H1978 H 0.42207 0.38475 0.12136 0.0
H1979 H 0.44053 0.35871 0.128 0.0
C1980 C 0.37566 0.39606 0.04524 0.0
C1981 C 0.40152 0.40044 0.04121 0.0
C1982 C 0.3674 0.37428 0.06258 0.0
C1983 C 0.38486 0.35665 0.07585 0.0
C1984 C 0.40898 0.35917 0.06861 0.0
H1985 H 0.33907 0.26045 0.22291 0.0
H1986 H 0.35476 0.26868 0.18005 0.0
C1987 C 0.41746 0.38118 0.05167 0.0
C1988 C 0.3806 0.3398 0.10137 0.0
H1989 H 0.40433 0.33904 0.17514 0.0
C1990 C 0.35577 0.32095 0.09812 0.0
C1991 C 0.39891 0.34563 0.12952 0.0
C1992 C 0.42563 0.36618 0.13454 0.0
C1993 C 0.3479 0.30911 0.12236 0.0
C1994 C 0.36534 0.31647 0.15026 0.0
C1995 C 0.39107 0.33363 0.15357 0.0
C1996 C 0.35551 0.31055 0.1757 0.0
C1997 C 0.32026 0.29026 0.118 0.0
C1998 C 0.35116 0.33141 0.18749 0.0
C1999 C 0.3423 0.32678 0.21175 0.0
C2000 C 0.33767 0.30119 0.22466 0.0
C2001 C 0.34226 0.28029 0.21305 0.0
C2002 C 0.35113 0.28493 0.18864 0.0
H2003 H 0.30845 0.28771 0.09474 0.0
H2004 H 0.32343 0.27067 0.12863 0.0
H2005 H 0.30775 0.29747 0.12829 0.0
H2006 H 0.3545 0.35134 0.17776 0.0
H2007 H 0.33885 0.34321 0.22023 0.0
H2008 H 0.49142 0.55613 0.92347 0.0
H2009 H 0.48899 0.58842 0.88325 0.0
H2010 H 0.57735 0.61733 0.91509 0.0
H2011 H 0.57966 0.58538 0.95688 0.0
H2012 H 0.55585 0.65628 0.90684 0.0
H2013 H 0.49999 0.60665 0.80765 0.0
H2014 H 0.48155 0.58953 0.83167 0.0
H2015 H 0.51754 0.58876 0.83986 0.0
C2016 C 0.51049 0.56898 0.9218 0.0
C2017 C 0.53569 0.56841 0.94361 0.0
C2018 C 0.50919 0.58718 0.89822 0.0
C2019 C 0.5331 0.60508 0.89548 0.0
C2020 C 0.55866 0.60354 0.91643 0.0
H2021 H 0.42159 0.70076 0.79993 0.0
H2022 H 0.46426 0.68796 0.80276 0.0
C2023 C 0.55994 0.58532 0.94034 0.0
C2024 C 0.52969 0.62844 0.87479 0.0
H2025 H 0.47629 0.64177 0.8169 0.0
C2026 C 0.53939 0.65343 0.88637 0.0
C2027 C 0.5097 0.62587 0.84703 0.0
C2028 C 0.50199 0.60121 0.83082 0.0
C2029 C 0.52495 0.67357 0.87443 0.0
C2030 C 0.50003 0.66797 0.8513 0.0
C2031 C 0.49448 0.64556 0.83578 0.0
C2032 C 0.47655 0.67972 0.84918 0.0
C2033 C 0.53455 0.69939 0.8889 0.0
C2034 C 0.46906 0.67892 0.87421 0.0
C2035 C 0.44483 0.68595 0.87266 0.0
C2036 C 0.42725 0.69367 0.84596 0.0
C2037 C 0.43472 0.6947 0.82081 0.0
C2038 C 0.45918 0.68769 0.82241 0.0
H2039 H 0.55734 0.70598 0.89452 0.0
H2040 H 0.52474 0.71509 0.87484 0.0
H2041 H 0.52952 0.69657 0.90945 0.0
H2042 H 0.48131 0.67162 0.89495 0.0
H2043 H 0.43938 0.68437 0.89228 0.0
H2044 H 0.06662 0.54652 0.60465 0.0
H2045 H 0.09543 0.58206 0.63662 0.0
H2046 H 0.13655 0.61541 0.57328 0.0
H2047 H 0.10812 0.57985 0.5415 0.0
H2048 H 0.17246 0.6081 0.62978 0.0
H2049 H 0.0933 0.66128 0.62942 0.0
H2050 H 0.0853 0.62619 0.63746 0.0
H2051 H 0.08756 0.63867 0.60225 0.0
C2052 C 0.08171 0.56154 0.59753 0.0
C2053 C 0.08515 0.56045 0.57062 0.0
C2054 C 0.09798 0.58194 0.61568 0.0
C2055 C 0.11791 0.60157 0.60718 0.0
C2056 C 0.12119 0.60057 0.5802 0.0
H2057 H 0.25072 0.72974 0.69128 0.0
H2058 H 0.21628 0.69935 0.65631 0.0
C2059 C 0.1049 0.58026 0.56205 0.0
C2060 C 0.13661 0.6222 0.62709 0.0
H2061 H 0.13818 0.67447 0.66281 0.0
C2062 C 0.16499 0.62271 0.63688 0.0
C2063 C 0.12678 0.64115 0.63641 0.0
C2064 C 0.0966 0.64206 0.62571 0.0
C2065 C 0.18381 0.64136 0.6561 0.0
C2066 C 0.17406 0.66043 0.66537 0.0
C2067 C 0.14563 0.65991 0.65563 0.0
C2068 C 0.19319 0.68076 0.68548 0.0
C2069 C 0.21391 0.64004 0.66689 0.0
C2070 C 0.19093 0.68127 0.71305 0.0
C2071 C 0.21049 0.69878 0.73302 0.0
C2072 C 0.23261 0.71611 0.72571 0.0
C2073 C 0.23406 0.71644 0.69762 0.0
C2074 C 0.21447 0.699 0.67767 0.0
H2075 H 0.21687 0.62051 0.6637 0.0
H2076 H 0.22529 0.65535 0.6547 0.0
H2077 H 0.22317 0.64388 0.69024 0.0
H2078 H 0.17457 0.6675 0.71947 0.0
H2079 H 0.20876 0.69817 0.75445 0.0
H2080 H 0.32932 0.34961 0.69263 0.0
H2081 H 0.35763 0.37641 0.6636 0.0
H2082 H 0.40852 0.31934 0.68613 0.0
H2083 H 0.37968 0.29233 0.71408 0.0
H2084 H 0.39976 0.40721 0.65726 0.0
H2085 H 0.41986 0.32602 0.61351 0.0
H2086 H 0.39509 0.31991 0.63269 0.0
H2087 H 0.43151 0.32364 0.65227 0.0
C2088 C 0.34631 0.34214 0.6915 0.0
C2089 C 0.35054 0.31725 0.70692 0.0
C2090 C 0.3633 0.35819 0.67422 0.0
C2091 C 0.38657 0.35131 0.67007 0.0
C2092 C 0.39103 0.32657 0.68607 0.0
H2093 H 0.47978 0.4198 0.53354 0.0
H2094 H 0.45217 0.39439 0.5635 0.0
C2095 C 0.37398 0.31048 0.70322 0.0
C2096 C 0.40545 0.36961 0.65032 0.0
H2097 H 0.44606 0.36822 0.60638 0.0
C2098 C 0.40962 0.39798 0.64639 0.0
C2099 C 0.41942 0.36008 0.63407 0.0
C2100 C 0.41613 0.3308 0.63298 0.0
C2101 C 0.42592 0.41536 0.62898 0.0
C2102 C 0.44077 0.40589 0.61366 0.0
C2103 C 0.43622 0.3775 0.61722 0.0
C2104 C 0.45958 0.42396 0.59371 0.0
C2105 C 0.42598 0.44435 0.62657 0.0
C2106 C 0.47545 0.4509 0.59799 0.0
C2107 C 0.49193 0.46632 0.57977 0.0
C2108 C 0.49472 0.45649 0.55522 0.0
C2109 C 0.47926 0.42962 0.55126 0.0
C2110 C 0.46283 0.41435 0.56929 0.0
H2111 H 0.40811 0.44794 0.63149 0.0
H2112 H 0.44507 0.45469 0.64244 0.0
H2113 H 0.42525 0.45309 0.60449 0.0
H2114 H 0.47592 0.46053 0.61626 0.0
H2115 H 0.50289 0.48625 0.58543 0.0
H2116 H 0.24825 0.69869 0.23972 0.0
H2117 H 0.21249 0.66655 0.20772 0.0
H2118 H 0.2106 0.7235 0.13507 0.0
H2119 H 0.24588 0.75584 0.16704 0.0
H2120 H 0.15827 0.6964 0.13559 0.0
H2121 H 0.22687 0.62686 0.15055 0.0
H2122 H 0.22383 0.63481 0.18354 0.0
H2123 H 0.23985 0.66018 0.16219 0.0
C2124 C 0.2401 0.70435 0.21695 0.0
C2125 C 0.24999 0.72965 0.20579 0.0
C2126 C 0.2198 0.68594 0.19866 0.0
C2127 C 0.20925 0.69246 0.1689 0.0
C2128 C 0.21855 0.718 0.15792 0.0
H2129 H 0.10013 0.61188 0.01535 0.0
H2130 H 0.12993 0.64452 0.05047 0.0
C2131 C 0.23875 0.73642 0.17619 0.0
C2132 C 0.18888 0.67263 0.149 0.0
H2133 H 0.18016 0.61287 0.12267 0.0
C2134 C 0.16304 0.67813 0.13275 0.0
C2135 C 0.19516 0.64882 0.14527 0.0
C2136 C 0.223 0.64233 0.16109 0.0
C2137 C 0.14323 0.66036 0.11307 0.0
C2138 C 0.1496 0.63666 0.10927 0.0
C2139 C 0.17532 0.63105 0.12569 0.0
C2140 C 0.13013 0.6175 0.08806 0.0
C2141 C 0.11551 0.6669 0.0968 0.0
C2142 C 0.12056 0.59145 0.09752 0.0
C2143 C 0.10368 0.57281 0.07753 0.0
C2144 C 0.09623 0.57982 0.04768 0.0
C2145 C 0.10552 0.60598 0.03823 0.0
C2146 C 0.12238 0.62466 0.05826 0.0
H2147 H 0.11134 0.68218 0.10734 0.0
H2148 H 0.11519 0.6747 0.07454 0.0
H2149 H 0.09864 0.64899 0.09512 0.0
H2150 H 0.12641 0.58549 0.12039 0.0
H2151 H 0.09689 0.55277 0.08544 0.0
H2152 H 0.77441 0.34878 0.69363 0.0
H2153 H 0.74605 0.38101 0.66799 0.0
H2154 H 0.68276 0.34048 0.70522 0.0
H2155 H 0.71073 0.30793 0.73041 0.0
H2156 H 0.69007 0.37317 0.62619 0.0
H2157 H 0.69282 0.41877 0.72267 0.0
H2158 H 0.71745 0.39961 0.724 0.0
H2159 H 0.68301 0.38327 0.72334 0.0
C2160 C 0.7545 0.3466 0.69656 0.0
C2161 C 0.74533 0.32526 0.71456 0.0
C2162 C 0.73807 0.36527 0.68166 0.0
C2163 C 0.7119 0.36396 0.68448 0.0
C2164 C 0.70278 0.34273 0.70256 0.0
H2165 H 0.58638 0.46676 0.6157 0.0
H2166 H 0.61523 0.43566 0.64448 0.0
C2167 C 0.71897 0.3238 0.71704 0.0
C2168 C 0.69407 0.38416 0.66816 0.0
H2169 H 0.6641 0.43265 0.67757 0.0
C2170 C 0.6846 0.38621 0.63761 0.0
C2171 C 0.68602 0.40133 0.68232 0.0
C2172 C 0.69542 0.40093 0.71488 0.0
C2173 C 0.66747 0.40398 0.62128 0.0
C2174 C 0.66003 0.42186 0.63537 0.0
C2175 C 0.66942 0.41962 0.66603 0.0
C2176 C 0.64291 0.44273 0.61879 0.0
C2177 C 0.65652 0.40227 0.58886 0.0
C2178 C 0.64864 0.45873 0.59499 0.0
C2179 C 0.63188 0.4764 0.57833 0.0
C2180 C 0.60897 0.48005 0.58505 0.0
C2181 C 0.60399 0.46529 0.60984 0.0
C2182 C 0.62058 0.44709 0.62632 0.0
H2183 H 0.65515 0.38223 0.58263 0.0
H2184 H 0.63572 0.40688 0.57965 0.0
H2185 H 0.67089 0.41644 0.57893 0.0
H2186 H 0.66609 0.45742 0.5888 0.0
H2187 H 0.63664 0.48701 0.5595 0.0
H2188 H 0.91637 0.71897 0.18977 0.0
H2189 H 0.93323 0.71623 0.15015 0.0
H2190 H 0.85733 0.73201 0.08841 0.0
H2191 H 0.83997 0.73363 0.12837 0.0
H2192 H 0.86329 0.68833 0.07859 0.0
H2193 H 0.96378 0.7545 0.0894 0.0
H2194 H 0.96555 0.73967 0.12482 0.0
H2195 H 0.94099 0.76031 0.10724 0.0
C2196 C 0.90374 0.72281 0.16777 0.0
C2197 C 0.8768 0.72608 0.16198 0.0
C2198 C 0.9135 0.72159 0.14502 0.0
C2199 C 0.89669 0.72417 0.11611 0.0
C2200 C 0.87072 0.73002 0.11046 0.0
H2201 H 0.96837 0.63827 0.02916 0.0
H2202 H 0.94722 0.67517 0.02914 0.0
C2203 C 0.86076 0.73079 0.13324 0.0
C2204 C 0.90353 0.71438 0.0931 0.0
H2205 H 0.96042 0.7072 0.0792 0.0
C2206 C 0.88424 0.69332 0.0777 0.0
C2207 C 0.93052 0.72109 0.09092 0.0
C2208 C 0.95118 0.74538 0.10378 0.0
C2209 C 0.89248 0.67637 0.0643 0.0
C2210 C 0.92063 0.68041 0.06683 0.0
C2211 C 0.93892 0.70373 0.07806 0.0
C2212 C 0.93225 0.65809 0.06496 0.0
C2213 C 0.87159 0.65269 0.05017 0.0
C2214 C 0.93108 0.63666 0.08537 0.0
C2215 C 0.94343 0.61596 0.08583 0.0
C2216 C 0.95717 0.61617 0.06577 0.0
C2217 C 0.95815 0.63765 0.04509 0.0
C2218 C 0.94594 0.65861 0.04486 0.0
H2219 H 0.85065 0.65704 0.04095 0.0
H2220 H 0.87727 0.64639 0.03273 0.0
H2221 H 0.8707 0.63602 0.06669 0.0
H2222 H 0.92115 0.63627 0.10152 0.0
H2223 H 0.94285 0.60016 0.1025 0.0
H2224 H 1.009 0.6147 0.58412 0.0
H2225 H 0.97987 0.61463 0.61382 0.0
H2226 H 0.92628 0.65369 0.54287 0.0
H2227 H 0.95573 0.65487 0.51337 0.0
H2228 H 0.96345 0.66358 0.6244 0.0
H2229 H 0.87664 0.58337 0.57129 0.0
H2230 H 0.91167 0.58651 0.57152 0.0
H2231 H 0.89038 0.60725 0.54693 0.0
C2232 C 0.99133 0.62376 0.57499 0.0
C2233 C 0.9847 0.63483 0.54632 0.0
C2234 C 0.97457 0.62338 0.59188 0.0
C2235 C 0.95079 0.6337 0.58023 0.0
C2236 C 0.94434 0.64516 0.55193 0.0
H2237 H 0.82666 0.68706 0.60547 0.0
H2238 H 0.85656 0.66714 0.59032 0.0
C2239 C 0.96119 0.64581 0.53514 0.0
C2240 C 0.93303 0.6338 0.59775 0.0
H2241 H 0.86644 0.61262 0.59784 0.0
C2242 C 0.94244 0.652 0.61924 0.0
C2243 C 0.90581 0.61844 0.59092 0.0
C2244 C 0.89549 0.59758 0.56909 0.0
C2245 C 0.92452 0.65683 0.63254 0.0
C2246 C 0.89667 0.64283 0.62418 0.0
C2247 C 0.88779 0.62334 0.60406 0.0
C2248 C 0.87588 0.65086 0.6331 0.0
C2249 C 0.93492 0.67815 0.6539 0.0
C2250 C 0.87632 0.6475 0.66202 0.0
C2251 C 0.85911 0.65874 0.67076 0.0
C2252 C 0.84127 0.67354 0.65068 0.0
C2253 C 0.83992 0.67559 0.62143 0.0
C2254 C 0.85705 0.66429 0.61274 0.0
H2255 H 0.95632 0.68908 0.65562 0.0
H2256 H 0.92122 0.69248 0.64748 0.0
H2257 H 0.93468 0.66909 0.67562 0.0
H2258 H 0.89058 0.63693 0.67794 0.0
H2259 H 0.86024 0.65641 0.69335 0.0
H2260 H 0.50666 0.56436 0.41423 0.0
H2261 H 0.47795 0.59551 0.38504 0.0
H2262 H 0.43193 0.58038 0.44531 0.0
H2263 H 0.46099 0.55056 0.4747 0.0
H2264 H 0.427 0.59817 0.35435 0.0
H2265 H 0.44763 0.65709 0.44692 0.0
H2266 H 0.46536 0.63107 0.44971 0.0
H2267 H 0.43156 0.62362 0.45408 0.0
C2268 C 0.49014 0.5673 0.42106 0.0
C2269 C 0.48646 0.55436 0.44718 0.0
C2270 C 0.47365 0.58553 0.40432 0.0
C2271 C 0.45278 0.59174 0.41294 0.0
C2272 C 0.44827 0.57756 0.43815 0.0
H2273 H 0.32621 0.69119 0.34686 0.0
H2274 H 0.35495 0.65924 0.37198 0.0
C2275 C 0.46486 0.55981 0.45494 0.0
C2276 C 0.43585 0.6127 0.39615 0.0
H2277 H 0.41043 0.6649 0.40504 0.0
C2278 C 0.42375 0.61281 0.36567 0.0
C2279 C 0.43104 0.63257 0.40996 0.0
C2280 C 0.44483 0.63631 0.44189 0.0
C2281 C 0.40689 0.63092 0.3494 0.0
C2282 C 0.40154 0.65024 0.36339 0.0
C2283 C 0.41382 0.6503 0.39375 0.0
C2284 C 0.38344 0.67034 0.34721 0.0
C2285 C 0.39418 0.62861 0.31717 0.0
C2286 C 0.38926 0.68827 0.32459 0.0
C2287 C 0.3728 0.70705 0.31022 0.0
C2288 C 0.34949 0.70882 0.31753 0.0
C2289 C 0.34369 0.69086 0.34015 0.0
C2290 C 0.36036 0.67233 0.35475 0.0
H2291 H 0.39392 0.60903 0.31065 0.0
H2292 H 0.37273 0.63167 0.30966 0.0
H2293 H 0.40651 0.64401 0.30599 0.0
H2294 H 0.40696 0.68812 0.3182 0.0
H2295 H 0.37844 0.72027 0.2932 0.0
H2296 H 0.17158 0.34319 0.81367 0.0
H2297 H 0.15165 0.3481 0.85004 0.0
H2298 H 0.18053 0.28073 0.90044 0.0
H2299 H 0.19996 0.27496 0.86336 0.0
H2300 H 0.11403 0.31088 0.87978 0.0
H2301 H 0.22201 0.34843 0.94954 0.0
H2302 H 0.21473 0.34602 0.91128 0.0
H2303 H 0.21208 0.31654 0.93451 0.0
C2304 C 0.17291 0.32876 0.83187 0.0
C2305 C 0.18766 0.30886 0.83572 0.0
C2306 C 0.16157 0.33166 0.85273 0.0
C2307 C 0.16486 0.3149 0.87793 0.0
C2308 C 0.17798 0.29393 0.88115 0.0
H2309 H 0.10591 0.399 0.98017 0.0
H2310 H 0.11956 0.35913 0.97354 0.0
C2311 C 0.18921 0.29084 0.86008 0.0
C2312 C 0.15762 0.32222 0.90181 0.0
H2313 H 0.18694 0.36492 0.95588 0.0
C2314 C 0.1298 0.32169 0.89739 0.0
C2315 C 0.17836 0.33619 0.92473 0.0
C2316 C 0.20853 0.33696 0.93052 0.0
C2317 C 0.12241 0.33749 0.91303 0.0
C2318 C 0.14345 0.35412 0.93329 0.0
C2319 C 0.17096 0.35209 0.94024 0.0
C2320 C 0.1382 0.37813 0.94083 0.0
C2321 C 0.09252 0.33878 0.90539 0.0
C2322 C 0.14477 0.40186 0.92504 0.0
C2323 C 0.13691 0.42435 0.92856 0.0
C2324 C 0.12252 0.42351 0.94811 0.0
C2325 C 0.11711 0.40006 0.96503 0.0
C2326 C 0.1248 0.37737 0.96127 0.0
H2327 H 0.07851 0.32326 0.89063 0.0
H2328 H 0.08657 0.33643 0.92536 0.0
H2329 H 0.08956 0.35843 0.89468 0.0
H2330 H 0.15507 0.40268 0.90911 0.0
H2331 H 0.14153 0.44226 0.91553 0.0
H2332 H 0.26396 0.34044 0.42308 0.0
H2333 H 0.23263 0.35579 0.44083 0.0
H2334 H 0.20637 0.40124 0.36025 0.0
H2335 H 0.23856 0.38685 0.34268 0.0
H2336 H 0.21248 0.4273 0.40936 0.0
H2337 H 0.14934 0.32516 0.40895 0.0
H2338 H 0.18498 0.3277 0.43007 0.0
H2339 H 0.17576 0.33493 0.39157 0.0
C2340 C 0.25205 0.35421 0.40936 0.0
C2341 C 0.25354 0.36222 0.38134 0.0
C2342 C 0.23394 0.36272 0.41943 0.0
C2343 C 0.21681 0.37914 0.40156 0.0
C2344 C 0.21927 0.38834 0.37421 0.0
H2345 H 0.06744 0.3926 0.4324 0.0
H2346 H 0.10013 0.38635 0.40968 0.0
C2347 C 0.2375 0.37995 0.36416 0.0
C2348 C 0.1953 0.38543 0.41086 0.0
H2349 H 0.13876 0.35651 0.43179 0.0
C2350 C 0.19625 0.4119 0.41414 0.0
C2351 C 0.1738 0.3653 0.41634 0.0
C2352 C 0.17066 0.3367 0.41128 0.0
C2353 C 0.17674 0.41868 0.42386 0.0
C2354 C 0.15619 0.39834 0.4309 0.0
C2355 C 0.15472 0.37201 0.42663 0.0
C2356 C 0.1365 0.40368 0.44367 0.0
C2357 C 0.17818 0.44748 0.42631 0.0
C2358 C 0.1462 0.41521 0.47039 0.0
C2359 C 0.12763 0.4188 0.48336 0.0
C2360 C 0.09902 0.41069 0.46995 0.0
C2361 C 0.08936 0.39911 0.44317 0.0
C2362 C 0.10797 0.39554 0.4302 0.0
H2363 H 0.18921 0.46049 0.4121 0.0
H2364 H 0.15722 0.45153 0.42056 0.0
H2365 H 0.18965 0.45281 0.44895 0.0
H2366 H 0.16814 0.42111 0.48143 0.0
H2367 H 0.1357 0.42824 0.50373 0.0
loop_
_geom_bond_atom_site_label_1
_geom_bond_atom_site_label_2
_geom_bond_distance
_geom_bond_site_symmetry_2
_ccdc_geom_bond_type
C0 Eu1 2.835 1_655 S
C0 C2 1.500 . S
C0 O20 1.257 . S
C0 O21 1.260 1_655 S
Eu1 C0 2.835 1_455 S
Eu1 O20 2.473 1_455 S
Eu1 O21 2.480 . S
Eu1 O22 2.430 . S
Eu1 O23 2.670 1_554 S
Eu1 O24 2.394 1_454 S
Eu1 O29 2.355 1_445 S
Eu1 O31 2.374 1_545 S
C2 C0 1.500 . S
C2 C3 1.377 . S
C2 C7 1.377 . S
C3 C2 1.377 . S
C3 C4 1.395 . S
C3 H32 0.931 1_655 S
C4 C3 1.395 . S
C4 C5 1.383 . S
C4 H33 0.931 . S
C5 C4 1.383 . S
C5 C6 1.394 . S
C6 C5 1.394 . S
C6 C7 1.378 . S
C6 H34 0.931 . S
C7 C2 1.377 . S
C7 C6 1.378 . S
C7 H35 0.931 . S
C8 O22 1.259 1_556 S
C8 O23 1.270 . S
C9 O24 1.251 . S
C9 O25 1.251 . S
C10 Eu11 2.835 1_455 S
C10 C12 1.500 . S
C10 O26 1.257 . S
C10 O27 1.260 1_455 S
Eu11 C10 2.835 1_655 S
Eu11 O23 2.355 1_665 S
Eu11 O25 2.374 1_565 S
Eu11 O26 2.473 1_655 S
Eu11 O27 2.480 . S
Eu11 O28 2.430 . S
Eu11 O29 2.670 1_556 S
Eu11 O30 2.394 1_656 S
C12 C10 1.500 . S
C12 C13 1.377 . S
C12 C17 1.377 . S
C13 C12 1.377 . S
C13 C14 1.395 . S
C13 H36 0.931 1_455 S
C14 C13 1.395 . S
C14 C15 1.383 . S
C14 H37 0.931 . S
C15 C14 1.383 . S
C15 C16 1.394 . S
C16 C15 1.394 . S
C16 C17 1.378 . S
C16 H38 0.931 . S
C17 C12 1.377 . S
C17 C16 1.378 . S
C17 H39 0.931 . S
C18 O28 1.259 1_554 S
C18 O29 1.270 . S
C19 O30 1.251 . S
C19 O31 1.251 . S
O20 C0 1.257 . S
O20 Eu1 2.473 1_655 S
O21 C0 1.260 1_455 S
O21 Eu1 2.480 . S
O22 Eu1 2.430 . S
O22 C8 1.259 1_554 S
O23 Eu1 2.670 1_556 S
O23 C8 1.270 . S
O23 Eu11 2.355 1_445 S
O24 Eu1 2.394 1_656 S
O24 C9 1.251 . S
O25 C9 1.251 . S
O25 Eu11 2.374 1_545 S
O26 C10 1.257 . S
O26 Eu11 2.473 1_455 S
O27 C10 1.260 1_655 S
O27 Eu11 2.480 . S
O28 Eu11 2.430 . S
O28 C18 1.259 1_556 S
O29 Eu1 2.355 1_665 S
O29 Eu11 2.670 1_554 S
O29 C18 1.270 . S
O30 Eu11 2.394 1_454 S
O30 C19 1.251 . S
O31 Eu1 2.374 1_565 S
O31 C19 1.251 . S
H32 C3 0.931 1_455 S
H33 C4 0.931 . S
H34 C6 0.931 . S
H35 C7 0.931 . S
H36 C13 0.931 1_655 S
H37 C14 0.931 . S
H38 C16 0.931 . S
H39 C17 0.931 . S
C40 Eu41 2.835 . S
C40 C42 1.500 . S
C40 O60 1.257 . S
C40 O61 1.260 . S
Eu41 C40 2.835 . S
Eu41 O60 2.473 . S
Eu41 O61 2.480 . S
Eu41 O62 2.430 . S
Eu41 O63 2.670 . S
Eu41 O64 2.394 . S
Eu41 O69 2.355 . S
Eu41 O71 2.374 . S
C42 C40 1.500 . S
C42 C43 1.377 . S
C42 C47 1.377 . S
C43 C42 1.377 . S
C43 C44 1.395 . S
C43 H72 0.931 . S
C44 C43 1.395 . S
C44 C45 1.383 . S
C44 H73 0.931 . S
C45 C44 1.383 . S
C45 C46 1.394 . S
C46 C45 1.394 . S
C46 C47 1.378 . S
C46 H74 0.931 . S
C47 C42 1.377 . S
C47 C46 1.378 . S
C47 H75 0.931 . S
C48 O62 1.259 . S
C48 O63 1.270 . S
C49 O64 1.251 . S
C49 O65 1.251 . S
C50 Eu51 2.835 . S
C50 C52 1.500 . S
C50 O66 1.257 . S
C50 O67 1.260 . S
Eu51 C50 2.835 . S
Eu51 O63 2.355 . S
Eu51 O65 2.374 . S
Eu51 O66 2.473 . S
Eu51 O67 2.480 . S
Eu51 O68 2.430 . S
Eu51 O69 2.670 . S
Eu51 O70 2.394 . S
C52 C50 1.500 . S
C52 C53 1.377 . S
C52 C57 1.377 . S
C53 C52 1.377 . S
C53 C54 1.395 . S
C53 H76 0.931 . S
C54 C53 1.395 . S
C54 C55 1.383 . S
C54 H77 0.931 . S
C55 C54 1.383 . S
C55 C56 1.394 . S
C56 C55 1.394 . S
C56 C57 1.378 . S
C56 H78 0.931 . S
C57 C52 1.377 . S
C57 C56 1.378 . S
C57 H79 0.931 . S
C58 O68 1.259 . S
C58 O69 1.270 . S
C59 O70 1.251 . S
C59 O71 1.251 . S
O60 C40 1.257 . S
O60 Eu41 2.473 . S
O61 C40 1.260 . S
O61 Eu41 2.480 . S
O62 Eu41 2.430 . S
O62 C48 1.259 . S
O63 Eu41 2.670 . S
O63 C48 1.270 . S
O63 Eu51 2.355 . S
O64 Eu41 2.394 . S
O64 C49 1.251 . S
O65 C49 1.251 . S
O65 Eu51 2.374 . S
O66 C50 1.257 . S
O66 Eu51 2.473 . S
O67 C50 1.260 . S
O67 Eu51 2.480 . S
O68 Eu51 2.430 . S
O68 C58 1.259 . S
O69 Eu41 2.355 . S
O69 Eu51 2.670 . S
O69 C58 1.270 . S
O70 Eu51 2.394 . S
O70 C59 1.251 . S
O71 Eu41 2.374 . S
O71 C59 1.251 . S
H72 C43 0.931 . S
H73 C44 0.931 . S
H74 C46 0.931 . S
H75 C47 0.931 . S
H76 C53 0.931 . S
H77 C54 0.931 . S
H78 C56 0.931 . S
H79 C57 0.931 . S
C80 Eu81 2.835 1_565 S
C80 C82 1.500 . S
C80 O100 1.257 . S
C80 O101 1.260 1_565 S
Eu81 C80 2.835 1_545 S
Eu81 O100 2.473 1_545 S
Eu81 O101 2.480 . S
Eu81 O102 2.430 . S
Eu81 O103 2.670 . S
Eu81 O104 2.394 1_545 S
Eu81 O109 2.355 1_545 S
Eu81 O111 2.374 . S
C82 C80 1.500 . S
C82 C83 1.377 . S
C82 C87 1.377 . S
C83 C82 1.377 . S
C83 C84 1.395 . S
C83 H112 0.931 . S
C84 C83 1.395 . S
C84 C85 1.383 . S
C84 H113 0.931 . S
C85 C84 1.383 . S
C85 C86 1.394 . S
C86 C85 1.394 . S
C86 C87 1.378 . S
C86 H114 0.931 . S
C87 C82 1.377 . S
C87 C86 1.378 . S
C87 H115 0.931 . S
C88 O102 1.259 . S
C88 O103 1.270 . S
C89 O104 1.251 . S
C89 O105 1.251 . S
C90 Eu91 2.835 1_545 S
C90 C92 1.500 . S
C90 O106 1.257 . S
C90 O107 1.260 1_545 S
Eu91 C90 2.835 1_565 S
Eu91 O103 2.355 1_565 S
Eu91 O105 2.374 . S
Eu91 O106 2.473 1_565 S
Eu91 O107 2.480 . S
Eu91 O108 2.430 . S
Eu91 O109 2.670 . S
Eu91 O110 2.394 1_565 S
C92 C90 1.500 . S
C92 C93 1.377 . S
C92 C97 1.377 . S
C93 C92 1.377 . S
C93 C94 1.395 . S
C93 H116 0.931 . S
C94 C93 1.395 . S
C94 C95 1.383 . S
C94 H117 0.931 . S
C95 C94 1.383 . S
C95 C96 1.394 . S
C96 C95 1.394 . S
C96 C97 1.378 . S
C96 H118 0.931 . S
C97 C92 1.377 . S
C97 C96 1.378 . S
C97 H119 0.931 . S
C98 O108 1.259 . S
C98 O109 1.270 . S
C99 O110 1.251 . S
C99 O111 1.251 . S
O100 C80 1.257 . S
O100 Eu81 2.473 1_565 S
O101 C80 1.260 1_545 S
O101 Eu81 2.480 . S
O102 Eu81 2.430 . S
O102 C88 1.259 . S
O103 Eu81 2.670 . S
O103 C88 1.270 . S
O103 Eu91 2.355 1_545 S
O104 Eu81 2.394 1_565 S
O104 C89 1.251 . S
O105 C89 1.251 . S
O105 Eu91 2.374 . S
O106 C90 1.257 . S
O106 Eu91 2.473 1_545 S
O107 C90 1.260 1_565 S
O107 Eu91 2.480 . S
O108 Eu91 2.430 . S
O108 C98 1.259 . S
O109 Eu81 2.355 1_565 S
O109 Eu91 2.670 . S
O109 C98 1.270 . S
O110 Eu91 2.394 1_545 S
O110 C99 1.251 . S
O111 Eu81 2.374 . S
O111 C99 1.251 . S
H112 C83 0.931 . S
H113 C84 0.931 . S
H114 C86 0.931 . S
H115 C87 0.931 . S
H116 C93 0.931 . S
H117 C94 0.931 . S
H118 C96 0.931 . S
H119 C97 0.931 . S
C120 Eu121 2.835 . S
C120 C122 1.500 . S
C120 O140 1.257 . S
C120 O141 1.260 . S
Eu121 C120 2.835 . S
Eu121 O140 2.473 . S
Eu121 O141 2.480 . S
Eu121 O142 2.430 . S
Eu121 O143 2.670 . S
Eu121 O144 2.394 . S
Eu121 O149 2.355 . S
Eu121 O151 2.374 . S
C122 C120 1.500 . S
C122 C123 1.377 . S
C122 C127 1.377 . S
C123 C122 1.377 . S
C123 C124 1.395 . S
C123 H152 0.931 . S
C124 C123 1.395 . S
C124 C125 1.383 . S
C124 H153 0.931 . S
C125 C124 1.383 . S
C125 C126 1.394 . S
C126 C125 1.394 . S
C126 C127 1.378 . S
C126 H154 0.931 . S
C127 C122 1.377 . S
C127 C126 1.378 . S
C127 H155 0.931 . S
C128 O142 1.259 . S
C128 O143 1.270 . S
C129 O144 1.251 . S
C129 O145 1.251 . S
C130 Eu131 2.835 . S
C130 C132 1.500 . S
C130 O146 1.257 . S
C130 O147 1.260 . S
Eu131 C130 2.835 . S
Eu131 O143 2.355 . S
Eu131 O145 2.374 . S
Eu131 O146 2.473 . S
Eu131 O147 2.480 . S
Eu131 O148 2.430 . S
Eu131 O149 2.670 . S
Eu131 O150 2.394 . S
C132 C130 1.500 . S
C132 C133 1.377 . S
C132 C137 1.377 . S
C133 C132 1.377 . S
C133 C134 1.395 . S
C133 H156 0.931 . S
C134 C133 1.395 . S
C134 C135 1.383 . S
C134 H157 0.931 . S
C135 C134 1.383 . S
C135 C136 1.394 . S
C136 C135 1.394 . S
C136 C137 1.378 . S
C136 H158 0.931 . S
C137 C132 1.377 . S
C137 C136 1.378 . S
C137 H159 0.931 . S
C138 O148 1.259 . S
C138 O149 1.270 . S
C139 O150 1.251 . S
C139 O151 1.251 . S
O140 C120 1.257 . S
O140 Eu121 2.473 . S
O141 C120 1.260 . S
O141 Eu121 2.480 . S
O142 Eu121 2.430 . S
O142 C128 1.259 . S
O143 Eu121 2.670 . S
O143 C128 1.270 . S
O143 Eu131 2.355 . S
O144 Eu121 2.394 . S
O144 C129 1.251 . S
O145 C129 1.251 . S
O145 Eu131 2.374 . S
O146 C130 1.257 . S
O146 Eu131 2.473 . S
O147 C130 1.260 . S
O147 Eu131 2.480 . S
O148 Eu131 2.430 . S
O148 C138 1.259 . S
O149 Eu121 2.355 . S
O149 Eu131 2.670 . S
O149 C138 1.270 . S
O150 Eu131 2.394 . S
O150 C139 1.251 . S
O151 Eu121 2.374 . S
O151 C139 1.251 . S
H152 C123 0.931 . S
H153 C124 0.931 . S
H154 C126 0.931 . S
H155 C127 0.931 . S
H156 C133 0.931 . S
H157 C134 0.931 . S
H158 C136 0.931 . S
H159 C137 0.931 . S
C160 Eu161 2.835 . S
C160 C162 1.500 . S
C160 O180 1.257 . S
C160 O181 1.260 . S
Eu161 C160 2.835 . S
Eu161 O180 2.473 . S
Eu161 O181 2.480 . S
Eu161 O182 2.430 1_445 S
Eu161 O183 2.670 1_445 S
Eu161 O184 2.394 1_455 S
Eu161 O189 2.355 . S
Eu161 O191 2.374 1_545 S
C162 C160 1.500 . S
C162 C163 1.377 . S
C162 C167 1.377 . S
C163 C162 1.377 . S
C163 C164 1.395 . S
C163 H192 0.931 . S
C164 C163 1.395 . S
C164 C165 1.383 . S
C164 H193 0.931 . S
C165 C164 1.383 . S
C165 C166 1.394 . S
C166 C165 1.394 . S
C166 C167 1.378 . S
C166 H194 0.931 . S
C167 C162 1.377 . S
C167 C166 1.378 . S
C167 H195 0.931 . S
C168 O182 1.259 . S
C168 O183 1.270 . S
C169 O184 1.251 . S
C169 O185 1.251 . S
C170 Eu171 2.835 . S
C170 C172 1.500 . S
C170 O186 1.257 . S
C170 O187 1.260 . S
Eu171 C170 2.835 . S
Eu171 O183 2.355 . S
Eu171 O185 2.374 1_565 S
Eu171 O186 2.473 . S
Eu171 O187 2.480 . S
Eu171 O188 2.430 1_665 S
Eu171 O189 2.670 1_665 S
Eu171 O190 2.394 1_655 S
C172 C170 1.500 . S
C172 C173 1.377 . S
C172 C177 1.377 . S
C173 C172 1.377 . S
C173 C174 1.395 . S
C173 H196 0.931 . S
C174 C173 1.395 . S
C174 C175 1.383 . S
C174 H197 0.931 . S
C175 C174 1.383 . S
C175 C176 1.394 . S
C176 C175 1.394 . S
C176 C177 1.378 . S
C176 H198 0.931 . S
C177 C172 1.377 . S
C177 C176 1.378 . S
C177 H199 0.931 . S
C178 O188 1.259 . S
C178 O189 1.270 . S
C179 O190 1.251 . S
C179 O191 1.251 . S
O180 C160 1.257 . S
O180 Eu161 2.473 . S
O181 C160 1.260 . S
O181 Eu161 2.480 . S
O182 Eu161 2.430 1_665 S
O182 C168 1.259 . S
O183 Eu161 2.670 1_665 S
O183 C168 1.270 . S
O183 Eu171 2.355 . S
O184 Eu161 2.394 1_655 S
O184 C169 1.251 . S
O185 C169 1.251 . S
O185 Eu171 2.374 1_545 S
O186 C170 1.257 . S
O186 Eu171 2.473 . S
O187 C170 1.260 . S
O187 Eu171 2.480 . S
O188 Eu171 2.430 1_445 S
O188 C178 1.259 . S
O189 Eu161 2.355 . S
O189 Eu171 2.670 1_445 S
O189 C178 1.270 . S
O190 Eu171 2.394 1_455 S
O190 C179 1.251 . S
O191 Eu161 2.374 1_565 S
O191 C179 1.251 . S
H192 C163 0.931 . S
H193 C164 0.931 . S
H194 C166 0.931 . S
H195 C167 0.931 . S
H196 C173 0.931 . S
H197 C174 0.931 . S
H198 C176 0.931 . S
H199 C177 0.931 . S
C200 Eu201 2.835 . S
C200 C202 1.500 . S
C200 O220 1.257 . S
C200 O221 1.260 . S
Eu201 C200 2.835 . S
Eu201 O220 2.473 . S
Eu201 O221 2.480 . S
Eu201 O222 2.430 . S
Eu201 O223 2.670 . S
Eu201 O224 2.394 . S
Eu201 O229 2.355 . S
Eu201 O231 2.374 . S
C202 C200 1.500 . S
C202 C203 1.377 . S
C202 C207 1.377 . S
C203 C202 1.377 . S
C203 C204 1.395 . S
C203 H232 0.931 . S
C204 C203 1.395 . S
C204 C205 1.383 . S
C204 H233 0.931 . S
C205 C204 1.383 . S
C205 C206 1.394 . S
C206 C205 1.394 . S
C206 C207 1.378 . S
C206 H234 0.931 . S
C207 C202 1.377 . S
C207 C206 1.378 . S
C207 H235 0.931 . S
C208 O222 1.259 . S
C208 O223 1.270 . S
C209 O224 1.251 . S
C209 O225 1.251 . S
C210 Eu211 2.835 . S
C210 C212 1.500 . S
C210 O226 1.257 . S
C210 O227 1.260 . S
Eu211 C210 2.835 . S
Eu211 O223 2.355 . S
Eu211 O225 2.374 . S
Eu211 O226 2.473 . S
Eu211 O227 2.480 . S
Eu211 O228 2.430 . S
Eu211 O229 2.670 . S
Eu211 O230 2.394 . S
C212 C210 1.500 . S
C212 C213 1.377 . S
C212 C217 1.377 . S
C213 C212 1.377 . S
C213 C214 1.395 . S
C213 H236 0.931 . S
C214 C213 1.395 . S
C214 C215 1.383 . S
C214 H237 0.931 . S
C215 C214 1.383 . S
C215 C216 1.394 . S
C216 C215 1.394 . S
C216 C217 1.378 . S
C216 H238 0.931 . S
C217 C212 1.377 . S
C217 C216 1.378 . S
C217 H239 0.931 . S
C218 O228 1.259 . S
C218 O229 1.270 . S
C219 O230 1.251 . S
C219 O231 1.251 . S
O220 C200 1.257 . S
O220 Eu201 2.473 . S
O221 C200 1.260 . S
O221 Eu201 2.480 . S
O222 Eu201 2.430 . S
O222 C208 1.259 . S
O223 Eu201 2.670 . S
O223 C208 1.270 . S
O223 Eu211 2.355 . S
O224 Eu201 2.394 . S
O224 C209 1.251 . S
O225 C209 1.251 . S
O225 Eu211 2.374 . S
O226 C210 1.257 . S
O226 Eu211 2.473 . S
O227 C210 1.260 . S
O227 Eu211 2.480 . S
O228 Eu211 2.430 . S
O228 C218 1.259 . S
O229 Eu201 2.355 . S
O229 Eu211 2.670 . S
O229 C218 1.270 . S
O230 Eu211 2.394 . S
O230 C219 1.251 . S
O231 Eu201 2.374 . S
O231 C219 1.251 . S
H232 C203 0.931 . S
H233 C204 0.931 . S
H234 C206 0.931 . S
H235 C207 0.931 . S
H236 C213 0.931 . S
H237 C214 0.931 . S
H238 C216 0.931 . S
H239 C217 0.931 . S
C240 Eu241 2.835 1_554 S
C240 C242 1.500 . S
C240 O260 1.257 . S
C240 O261 1.260 1_554 S
Eu241 C240 2.835 1_556 S
Eu241 O260 2.473 1_556 S
Eu241 O261 2.480 . S
Eu241 O262 2.430 1_545 S
Eu241 O263 2.670 1_545 S
Eu241 O264 2.394 1_546 S
Eu241 O269 2.355 1_556 S
Eu241 O271 2.374 . S
C242 C240 1.500 . S
C242 C243 1.377 . S
C242 C247 1.377 . S
C243 C242 1.377 . S
C243 C244 1.395 . S
C243 H272 0.937 . S
C244 C243 1.395 . S
C244 C245 1.383 . S
C244 H273 0.931 . S
C245 C244 1.383 . S
C245 C246 1.394 . S
C246 C245 1.394 . S
C246 C247 1.378 . S
C246 H274 0.931 . S
C247 C242 1.377 . S
C247 C246 1.378 . S
C247 H275 0.931 . S
C248 O262 1.259 . S
C248 O263 1.270 . S
C249 O264 1.251 . S
C249 O265 1.251 . S
C250 Eu251 2.835 1_556 S
C250 C252 1.500 . S
C250 O266 1.257 . S
C250 O267 1.260 1_556 S
Eu251 C250 2.835 1_554 S
Eu251 O263 2.355 1_554 S
Eu251 O265 2.374 . S
Eu251 O266 2.473 1_554 S
Eu251 O267 2.480 . S
Eu251 O268 2.430 1_565 S
Eu251 O269 2.670 1_565 S
Eu251 O270 2.394 1_564 S
C252 C250 1.500 . S
C252 C253 1.377 . S
C252 C257 1.377 . S
C253 C252 1.377 . S
C253 C254 1.395 . S
C253 H276 0.924 1_556 S
C254 C253 1.395 . S
C254 C255 1.383 . S
C254 H277 0.931 . S
C255 C254 1.383 . S
C255 C256 1.394 . S
C256 C255 1.394 . S
C256 C257 1.378 . S
C256 H278 0.931 . S
C257 C252 1.377 . S
C257 C256 1.378 . S
C257 H279 0.931 . S
C258 O268 1.259 . S
C258 O269 1.270 . S
C259 O270 1.251 . S
C259 O271 1.251 . S
O260 C240 1.257 . S
O260 Eu241 2.473 1_554 S
O261 C240 1.260 1_556 S
O261 Eu241 2.480 . S
O262 Eu241 2.430 1_565 S
O262 C248 1.259 . S
O263 Eu241 2.670 1_565 S
O263 C248 1.270 . S
O263 Eu251 2.355 1_556 S
O264 Eu241 2.394 1_564 S
O264 C249 1.251 . S
O265 C249 1.251 . S
O265 Eu251 2.374 . S
O266 C250 1.257 . S
O266 Eu251 2.473 1_556 S
O267 C250 1.260 1_554 S
O267 Eu251 2.480 . S
O268 Eu251 2.430 1_545 S
O268 C258 1.259 . S
O269 Eu241 2.355 1_554 S
O269 Eu251 2.670 1_545 S
O269 C258 1.270 . S
O270 Eu251 2.394 1_546 S
O270 C259 1.251 . S
O271 Eu241 2.374 . S
O271 C259 1.251 . S
H272 C243 0.937 . S
H273 C244 0.931 . S
H274 C246 0.931 . S
H275 C247 0.931 . S
H276 C253 0.924 1_554 S
H277 C254 0.931 . S
H278 C256 0.931 . S
H279 C257 0.931 . S
C280 Eu281 2.835 . S
C280 C282 1.500 . S
C280 O300 1.257 . S
C280 O301 1.260 . S
Eu281 C280 2.835 . S
Eu281 O300 2.473 . S
Eu281 O301 2.480 . S
Eu281 O302 2.430 . S
Eu281 O303 2.670 . S
Eu281 O304 2.394 . S
Eu281 O309 2.355 . S
Eu281 O311 2.374 . S
C282 C280 1.500 . S
C282 C283 1.377 . S
C282 C287 1.377 . S
C283 C282 1.377 . S
C283 C284 1.395 . S
C283 H312 0.931 . S
C284 C283 1.395 . S
C284 C285 1.383 . S
C284 H313 0.931 . S
C285 C284 1.383 . S
C285 C286 1.394 . S
C286 C285 1.394 . S
C286 C287 1.378 . S
C286 H314 0.931 . S
C287 C282 1.377 . S
C287 C286 1.378 . S
C287 H315 0.931 . S
C288 O302 1.259 . S
C288 O303 1.270 . S
C289 O304 1.251 . S
C289 O305 1.251 . S
C290 Eu291 2.835 . S
C290 C292 1.500 . S
C290 O306 1.257 . S
C290 O307 1.260 . S
Eu291 C290 2.835 . S
Eu291 O303 2.355 . S
Eu291 O305 2.374 . S
Eu291 O306 2.473 . S
Eu291 O307 2.480 . S
Eu291 O308 2.430 . S
Eu291 O309 2.670 . S
Eu291 O310 2.394 . S
C292 C290 1.500 . S
C292 C293 1.377 . S
C292 C297 1.377 . S
C293 C292 1.377 . S
C293 C294 1.395 . S
C293 H316 0.931 . S
C294 C293 1.395 . S
C294 C295 1.383 . S
C294 H317 0.931 . S
C295 C294 1.383 . S
C295 C296 1.394 . S
C296 C295 1.394 . S
C296 C297 1.378 . S
C296 H318 0.931 . S
C297 C292 1.377 . S
C297 C296 1.378 . S
C297 H319 0.931 . S
C298 O308 1.259 . S
C298 O309 1.270 . S
C299 O310 1.251 . S
C299 O311 1.251 . S
O300 C280 1.257 . S
O300 Eu281 2.473 . S
O301 C280 1.260 . S
O301 Eu281 2.480 . S
O302 Eu281 2.430 . S
O302 C288 1.259 . S
O303 Eu281 2.670 . S
O303 C288 1.270 . S
O303 Eu291 2.355 . S
O304 Eu281 2.394 . S
O304 C289 1.251 . S
O305 C289 1.251 . S
O305 Eu291 2.374 . S
O306 C290 1.257 . S
O306 Eu291 2.473 . S
O307 C290 1.260 . S
O307 Eu291 2.480 . S
O308 Eu291 2.430 . S
O308 C298 1.259 . S
O309 Eu281 2.355 . S
O309 Eu291 2.670 . S
O309 C298 1.270 . S
O310 Eu291 2.394 . S
O310 C299 1.251 . S
O311 Eu281 2.374 . S
O311 C299 1.251 . S
H312 C283 0.931 . S
H313 C284 0.931 . S
H314 C286 0.931 . S
H315 C287 0.931 . S
H316 C293 0.931 . S
H317 C294 0.931 . S
H318 C296 0.931 . S
H319 C297 0.931 . S
C320 Eu321 2.835 . S
C320 C322 1.500 . S
C320 O340 1.257 . S
C320 O341 1.260 . S
Eu321 C320 2.835 . S
Eu321 O340 2.473 . S
Eu321 O341 2.480 . S
Eu321 O342 2.430 . S
Eu321 O343 2.670 . S
Eu321 O344 2.394 . S
Eu321 O349 2.355 1_556 S
Eu321 O351 2.374 1_556 S
C322 C320 1.500 . S
C322 C323 1.377 . S
C322 C327 1.377 . S
C323 C322 1.377 . S
C323 C324 1.395 . S
C323 H352 0.931 . S
C324 C323 1.395 . S
C324 C325 1.383 . S
C324 H353 0.931 . S
C325 C324 1.383 . S
C325 C326 1.394 . S
C326 C325 1.394 . S
C326 C327 1.378 . S
C326 H354 0.931 . S
C327 C322 1.377 . S
C327 C326 1.378 . S
C327 H355 0.931 . S
C328 O342 1.259 . S
C328 O343 1.270 . S
C329 O344 1.251 . S
C329 O345 1.251 . S
C330 Eu331 2.835 . S
C330 C332 1.500 . S
C330 O346 1.257 . S
C330 O347 1.260 . S
Eu331 C330 2.835 . S
Eu331 O343 2.355 1_554 S
Eu331 O345 2.374 1_554 S
Eu331 O346 2.473 . S
Eu331 O347 2.480 . S
Eu331 O348 2.430 . S
Eu331 O349 2.670 . S
Eu331 O350 2.394 . S
C332 C330 1.500 . S
C332 C333 1.377 . S
C332 C337 1.377 . S
C333 C332 1.377 . S
C333 C334 1.395 . S
C333 H356 0.931 . S
C334 C333 1.395 . S
C334 C335 1.383 . S
C334 H357 0.931 . S
C335 C334 1.383 . S
C335 C336 1.394 . S
C336 C335 1.394 . S
C336 C337 1.378 . S
C336 H358 0.931 . S
C337 C332 1.377 . S
C337 C336 1.378 . S
C337 H359 0.931 . S
C338 O348 1.259 . S
C338 O349 1.270 . S
C339 O350 1.251 . S
C339 O351 1.251 . S
O340 C320 1.257 . S
O340 Eu321 2.473 . S
O341 C320 1.260 . S
O341 Eu321 2.480 . S
O342 Eu321 2.430 . S
O342 C328 1.259 . S
O343 Eu321 2.670 . S
O343 C328 1.270 . S
O343 Eu331 2.355 1_556 S
O344 Eu321 2.394 . S
O344 C329 1.251 . S
O345 C329 1.251 . S
O345 Eu331 2.374 1_556 S
O346 C330 1.257 . S
O346 Eu331 2.473 . S
O347 C330 1.260 . S
O347 Eu331 2.480 . S
O348 Eu331 2.430 . S
O348 C338 1.259 . S
O349 Eu321 2.355 1_554 S
O349 Eu331 2.670 . S
O349 C338 1.270 . S
O350 Eu331 2.394 . S
O350 C339 1.251 . S
O351 Eu321 2.374 1_554 S
O351 C339 1.251 . S
H352 C323 0.931 . S
H353 C324 0.931 . S
H354 C326 0.931 . S
H355 C327 0.931 . S
H356 C333 0.931 . S
H357 C334 0.931 . S
H358 C336 0.931 . S
H359 C337 0.931 . S
C360 Eu361 2.835 . S
C360 C362 1.500 . S
C360 O380 1.257 . S
C360 O381 1.260 . S
Eu361 C360 2.835 . S
Eu361 O380 2.473 . S
Eu361 O381 2.480 . S
Eu361 O382 2.430 . S
Eu361 O383 2.670 . S
Eu361 O384 2.394 . S
Eu361 O389 2.355 . S
Eu361 O391 2.374 . S
C362 C360 1.500 . S
C362 C363 1.377 . S
C362 C367 1.377 . S
C363 C362 1.377 . S
C363 C364 1.395 . S
C363 H392 0.931 . S
C364 C363 1.395 . S
C364 C365 1.383 . S
C364 H393 0.931 . S
C365 C364 1.383 . S
C365 C366 1.394 . S
C366 C365 1.394 . S
C366 C367 1.378 . S
C366 H394 0.931 . S
C367 C362 1.377 . S
C367 C366 1.378 . S
C367 H395 0.931 . S
C368 O382 1.259 . S
C368 O383 1.270 . S
C369 O384 1.251 . S
C369 O385 1.251 . S
C370 Eu371 2.835 . S
C370 C372 1.500 . S
C370 O386 1.257 . S
C370 O387 1.260 . S
Eu371 C370 2.835 . S
Eu371 O383 2.355 . S
Eu371 O385 2.374 . S
Eu371 O386 2.473 . S
Eu371 O387 2.480 . S
Eu371 O388 2.430 . S
Eu371 O389 2.670 . S
Eu371 O390 2.394 . S
C372 C370 1.500 . S
C372 C373 1.377 . S
C372 C377 1.377 . S
C373 C372 1.377 . S
C373 C374 1.395 . S
C373 H396 0.931 . S
C374 C373 1.395 . S
C374 C375 1.383 . S
C374 H397 0.931 . S
C375 C374 1.383 . S
C375 C376 1.394 . S
C376 C375 1.394 . S
C376 C377 1.378 . S
C376 H398 0.931 . S
C377 C372 1.377 . S
C377 C376 1.378 . S
C377 H399 0.931 . S
C378 O388 1.259 . S
C378 O389 1.270 . S
C379 O390 1.251 . S
C379 O391 1.251 . S
O380 C360 1.257 . S
O380 Eu361 2.473 . S
O381 C360 1.260 . S
O381 Eu361 2.480 . S
O382 Eu361 2.430 . S
O382 C368 1.259 . S
O383 Eu361 2.670 . S
O383 C368 1.270 . S
O383 Eu371 2.355 . S
O384 Eu361 2.394 . S
O384 C369 1.251 . S
O385 C369 1.251 . S
O385 Eu371 2.374 . S
O386 C370 1.257 . S
O386 Eu371 2.473 . S
O387 C370 1.260 . S
O387 Eu371 2.480 . S
O388 Eu371 2.430 . S
O388 C378 1.259 . S
O389 Eu361 2.355 . S
O389 Eu371 2.670 . S
O389 C378 1.270 . S
O390 Eu371 2.394 . S
O390 C379 1.251 . S
O391 Eu361 2.374 . S
O391 C379 1.251 . S
H392 C363 0.931 . S
H393 C364 0.931 . S
H394 C366 0.931 . S
H395 C367 0.931 . S
H396 C373 0.931 . S
H397 C374 0.931 . S
H398 C376 0.931 . S
H399 C377 0.931 . S
C400 Eu401 2.835 . S
C400 C402 1.500 . S
C400 O420 1.257 . S
C400 O421 1.260 . S
Eu401 C400 2.835 . S
Eu401 O420 2.473 . S
Eu401 O421 2.480 . S
Eu401 O422 2.430 . S
Eu401 O423 2.670 . S
Eu401 O424 2.394 . S
Eu401 O429 2.355 1_655 S
Eu401 O431 2.374 1_655 S
C402 C400 1.500 . S
C402 C403 1.377 . S
C402 C407 1.377 . S
C403 C402 1.377 . S
C403 C404 1.395 . S
C403 H432 0.931 . S
C404 C403 1.395 . S
C404 C405 1.383 . S
C404 H433 0.931 . S
C405 C404 1.383 . S
C405 C406 1.394 . S
C406 C405 1.394 . S
C406 C407 1.378 . S
C406 H434 0.931 . S
C407 C402 1.377 . S
C407 C406 1.378 . S
C407 H435 0.931 . S
C408 O422 1.259 . S
C408 O423 1.270 . S
C409 O424 1.251 . S
C409 O425 1.251 . S
C410 Eu411 2.835 . S
C410 C412 1.500 . S
C410 O426 1.257 . S
C410 O427 1.260 . S
Eu411 C410 2.835 . S
Eu411 O423 2.355 1_455 S
Eu411 O425 2.374 1_455 S
Eu411 O426 2.473 . S
Eu411 O427 2.480 . S
Eu411 O428 2.430 . S
Eu411 O429 2.670 . S
Eu411 O430 2.394 . S
C412 C410 1.500 . S
C412 C413 1.377 . S
C412 C417 1.377 . S
C413 C412 1.377 . S
C413 C414 1.395 . S
C413 H436 0.931 . S
C414 C413 1.395 . S
C414 C415 1.383 . S
C414 H437 0.931 . S
C415 C414 1.383 . S
C415 C416 1.394 . S
C416 C415 1.394 . S
C416 C417 1.378 . S
C416 H438 0.931 . S
C417 C412 1.377 . S
C417 C416 1.378 . S
C417 H439 0.931 . S
C418 O428 1.259 . S
C418 O429 1.270 . S
C419 O430 1.251 . S
C419 O431 1.251 . S
O420 C400 1.257 . S
O420 Eu401 2.473 . S
O421 C400 1.260 . S
O421 Eu401 2.480 . S
O422 Eu401 2.430 . S
O422 C408 1.259 . S
O423 Eu401 2.670 . S
O423 C408 1.270 . S
O423 Eu411 2.355 1_655 S
O424 Eu401 2.394 . S
O424 C409 1.251 . S
O425 C409 1.251 . S
O425 Eu411 2.374 1_655 S
O426 C410 1.257 . S
O426 Eu411 2.473 . S
O427 C410 1.260 . S
O427 Eu411 2.480 . S
O428 Eu411 2.430 . S
O428 C418 1.259 . S
O429 Eu401 2.355 1_455 S
O429 Eu411 2.670 . S
O429 C418 1.270 . S
O430 Eu411 2.394 . S
O430 C419 1.251 . S
O431 Eu401 2.374 1_455 S
O431 C419 1.251 . S
H432 C403 0.931 . S
H433 C404 0.931 . S
H434 C406 0.931 . S
H435 C407 0.931 . S
H436 C413 0.931 . S
H437 C414 0.931 . S
H438 C416 0.931 . S
H439 C417 0.931 . S
C440 Eu441 2.835 . S
C440 C442 1.500 . S
C440 O460 1.257 . S
C440 O461 1.260 . S
Eu441 C440 2.835 . S
Eu441 O460 2.473 . S
Eu441 O461 2.480 . S
Eu441 O462 2.430 . S
Eu441 O463 2.670 . S
Eu441 O464 2.394 . S
Eu441 O469 2.355 . S
Eu441 O471 2.374 . S
C442 C440 1.500 . S
C442 C443 1.377 . S
C442 C447 1.377 . S
C443 C442 1.377 . S
C443 C444 1.395 . S
C443 H472 0.931 . S
C444 C443 1.395 . S
C444 C445 1.383 . S
C444 H473 0.931 . S
C445 C444 1.383 . S
C445 C446 1.394 . S
C446 C445 1.394 . S
C446 C447 1.378 . S
C446 H474 0.931 . S
C447 C442 1.377 . S
C447 C446 1.378 . S
C447 H475 0.931 . S
C448 O462 1.259 . S
C448 O463 1.270 . S
C449 O464 1.251 . S
C449 O465 1.251 . S
C450 Eu451 2.835 . S
C450 C452 1.500 . S
C450 O466 1.257 . S
C450 O467 1.260 . S
Eu451 C450 2.835 . S
Eu451 O463 2.355 . S
Eu451 O465 2.374 . S
Eu451 O466 2.473 . S
Eu451 O467 2.480 . S
Eu451 O468 2.430 . S
Eu451 O469 2.670 . S
Eu451 O470 2.394 . S
C452 C450 1.500 . S
C452 C453 1.377 . S
C452 C457 1.377 . S
C453 C452 1.377 . S
C453 C454 1.395 . S
C453 H476 0.931 . S
C454 C453 1.395 . S
C454 C455 1.383 . S
C454 H477 0.931 . S
C455 C454 1.383 . S
C455 C456 1.394 . S
C456 C455 1.394 . S
C456 C457 1.378 . S
C456 H478 0.931 . S
C457 C452 1.377 . S
C457 C456 1.378 . S
C457 H479 0.931 . S
C458 O468 1.259 . S
C458 O469 1.270 . S
C459 O470 1.251 . S
C459 O471 1.251 . S
O460 C440 1.257 . S
O460 Eu441 2.473 . S
O461 C440 1.260 . S
O461 Eu441 2.480 . S
O462 Eu441 2.430 . S
O462 C448 1.259 . S
O463 Eu441 2.670 . S
O463 C448 1.270 . S
O463 Eu451 2.355 . S
O464 Eu441 2.394 . S
O464 C449 1.251 . S
O465 C449 1.251 . S
O465 Eu451 2.374 . S
O466 C450 1.257 . S
O466 Eu451 2.473 . S
O467 C450 1.260 . S
O467 Eu451 2.480 . S
O468 Eu451 2.430 . S
O468 C458 1.259 . S
O469 Eu441 2.355 . S
O469 Eu451 2.670 . S
O469 C458 1.270 . S
O470 Eu451 2.394 . S
O470 C459 1.251 . S
O471 Eu441 2.374 . S
O471 C459 1.251 . S
H472 C443 0.931 . S
H473 C444 0.931 . S
H474 C446 0.931 . S
H475 C447 0.931 . S
H476 C453 0.931 . S
H477 C454 0.931 . S
H478 C456 0.931 . S
H479 C457 0.931 . S
C480 Eu481 2.835 . S
C480 C482 1.500 . S
C480 O500 1.257 . S
C480 O501 1.260 . S
Eu481 C480 2.835 . S
Eu481 O500 2.473 . S
Eu481 O501 2.480 . S
Eu481 O502 2.430 . S
Eu481 O503 2.670 . S
Eu481 O504 2.394 . S
Eu481 O509 2.355 . S
Eu481 O511 2.374 . S
C482 C480 1.500 . S
C482 C483 1.377 . S
C482 C487 1.377 . S
C483 C482 1.377 . S
C483 C484 1.395 . S
C483 H512 0.931 . S
C484 C483 1.395 . S
C484 C485 1.383 . S
C484 H513 0.931 . S
C485 C484 1.383 . S
C485 C486 1.394 . S
C486 C485 1.394 . S
C486 C487 1.378 . S
C486 H514 0.931 . S
C487 C482 1.377 . S
C487 C486 1.378 . S
C487 H515 0.931 . S
C488 O502 1.259 . S
C488 O503 1.270 . S
C489 O504 1.251 . S
C489 O505 1.251 . S
C490 Eu491 2.835 . S
C490 C492 1.500 . S
C490 O506 1.257 . S
C490 O507 1.260 . S
Eu491 C490 2.835 . S
Eu491 O503 2.355 . S
Eu491 O505 2.374 . S
Eu491 O506 2.473 . S
Eu491 O507 2.480 . S
Eu491 O508 2.430 . S
Eu491 O509 2.670 . S
Eu491 O510 2.394 . S
C492 C490 1.500 . S
C492 C493 1.377 . S
C492 C497 1.377 . S
C493 C492 1.377 . S
C493 C494 1.395 . S
C493 H516 0.931 . S
C494 C493 1.395 . S
C494 C495 1.383 . S
C494 H517 0.931 . S
C495 C494 1.383 . S
C495 C496 1.394 . S
C496 C495 1.394 . S
C496 C497 1.378 . S
C496 H518 0.931 . S
C497 C492 1.377 . S
C497 C496 1.378 . S
C497 H519 0.931 . S
C498 O508 1.259 . S
C498 O509 1.270 . S
C499 O510 1.251 . S
C499 O511 1.251 . S
O500 C480 1.257 . S
O500 Eu481 2.473 . S
O501 C480 1.260 . S
O501 Eu481 2.480 . S
O502 Eu481 2.430 . S
O502 C488 1.259 . S
O503 Eu481 2.670 . S
O503 C488 1.270 . S
O503 Eu491 2.355 . S
O504 Eu481 2.394 . S
O504 C489 1.251 . S
O505 C489 1.251 . S
O505 Eu491 2.374 . S
O506 C490 1.257 . S
O506 Eu491 2.473 . S
O507 C490 1.260 . S
O507 Eu491 2.480 . S
O508 Eu491 2.430 . S
O508 C498 1.259 . S
O509 Eu481 2.355 . S
O509 Eu491 2.670 . S
O509 C498 1.270 . S
O510 Eu491 2.394 . S
O510 C499 1.251 . S
O511 Eu481 2.374 . S
O511 C499 1.251 . S
H512 C483 0.931 . S
H513 C484 0.931 . S
H514 C486 0.931 . S
H515 C487 0.931 . S
H516 C493 0.931 . S
H517 C494 0.931 . S
H518 C496 0.931 . S
H519 C497 0.931 . S
C520 Eu521 2.835 . S
C520 C522 1.500 . S
C520 O540 1.257 . S
C520 O541 1.260 . S
Eu521 C520 2.835 . S
Eu521 O540 2.473 . S
Eu521 O541 2.480 . S
Eu521 O542 2.430 . S
Eu521 O543 2.670 . S
Eu521 O544 2.394 . S
Eu521 O549 2.355 . S
Eu521 O551 2.374 . S
C522 C520 1.500 . S
C522 C523 1.377 . S
C522 C527 1.377 . S
C523 C522 1.377 . S
C523 C524 1.395 . S
C523 H552 0.931 . S
C524 C523 1.395 . S
C524 C525 1.383 . S
C524 H553 0.931 . S
C525 C524 1.383 . S
C525 C526 1.394 . S
C526 C525 1.394 . S
C526 C527 1.378 . S
C526 H554 0.931 . S
C527 C522 1.377 . S
C527 C526 1.378 . S
C527 H555 0.931 . S
C528 O542 1.259 . S
C528 O543 1.270 . S
C529 O544 1.251 . S
C529 O545 1.251 . S
C530 Eu531 2.835 . S
C530 C532 1.500 . S
C530 O546 1.257 . S
C530 O547 1.260 . S
Eu531 C530 2.835 . S
Eu531 O543 2.355 . S
Eu531 O545 2.374 . S
Eu531 O546 2.473 . S
Eu531 O547 2.480 . S
Eu531 O548 2.430 . S
Eu531 O549 2.670 . S
Eu531 O550 2.394 . S
C532 C530 1.500 . S
C532 C533 1.377 . S
C532 C537 1.377 . S
C533 C532 1.377 . S
C533 C534 1.395 . S
C533 H556 0.931 . S
C534 C533 1.395 . S
C534 C535 1.383 . S
C534 H557 0.931 . S
C535 C534 1.383 . S
C535 C536 1.394 . S
C536 C535 1.394 . S
C536 C537 1.378 . S
C536 H558 0.931 . S
C537 C532 1.377 . S
C537 C536 1.378 . S
C537 H559 0.931 . S
C538 O548 1.259 . S
C538 O549 1.270 . S
C539 O550 1.251 . S
C539 O551 1.251 . S
O540 C520 1.257 . S
O540 Eu521 2.473 . S
O541 C520 1.260 . S
O541 Eu521 2.480 . S
O542 Eu521 2.430 . S
O542 C528 1.259 . S
O543 Eu521 2.670 . S
O543 C528 1.270 . S
O543 Eu531 2.355 . S
O544 Eu521 2.394 . S
O544 C529 1.251 . S
O545 C529 1.251 . S
O545 Eu531 2.374 . S
O546 C530 1.257 . S
O546 Eu531 2.473 . S
O547 C530 1.260 . S
O547 Eu531 2.480 . S
O548 Eu531 2.430 . S
O548 C538 1.259 . S
O549 Eu521 2.355 . S
O549 Eu531 2.670 . S
O549 C538 1.270 . S
O550 Eu531 2.394 . S
O550 C539 1.251 . S
O551 Eu521 2.374 . S
O551 C539 1.251 . S
H552 C523 0.931 . S
H553 C524 0.931 . S
H554 C526 0.931 . S
H555 C527 0.931 . S
H556 C533 0.931 . S
H557 C534 0.931 . S
H558 C536 0.931 . S
H559 C537 0.931 . S
C560 Eu561 2.835 . S
C560 C562 1.500 . S
C560 O580 1.257 . S
C560 O581 1.260 . S
Eu561 C560 2.835 . S
Eu561 O580 2.473 . S
Eu561 O581 2.480 . S
Eu561 O582 2.430 . S
Eu561 O583 2.670 . S
Eu561 O584 2.394 . S
Eu561 O589 2.355 . S
Eu561 O591 2.374 . S
C562 C560 1.500 . S
C562 C563 1.377 . S
C562 C567 1.377 . S
C563 C562 1.377 . S
C563 C564 1.395 . S
C563 H592 0.931 . S
C564 C563 1.395 . S
C564 C565 1.383 . S
C564 H593 0.931 . S
C565 C564 1.383 . S
C565 C566 1.394 . S
C566 C565 1.394 . S
C566 C567 1.378 . S
C566 H594 0.931 . S
C567 C562 1.377 . S
C567 C566 1.378 . S
C567 H595 0.931 . S
C568 O582 1.259 . S
C568 O583 1.270 . S
C569 O584 1.251 . S
C569 O585 1.251 . S
C570 Eu571 2.835 . S
C570 C572 1.500 . S
C570 O586 1.257 . S
C570 O587 1.260 . S
Eu571 C570 2.835 . S
Eu571 O583 2.355 . S
Eu571 O585 2.374 . S
Eu571 O586 2.473 . S
Eu571 O587 2.480 . S
Eu571 O588 2.430 . S
Eu571 O589 2.670 . S
Eu571 O590 2.394 . S
C572 C570 1.500 . S
C572 C573 1.377 . S
C572 C577 1.377 . S
C573 C572 1.377 . S
C573 C574 1.395 . S
C573 H596 0.931 . S
C574 C573 1.395 . S
C574 C575 1.383 . S
C574 H597 0.931 . S
C575 C574 1.383 . S
C575 C576 1.394 . S
C576 C575 1.394 . S
C576 C577 1.378 . S
C576 H598 0.931 . S
C577 C572 1.377 . S
C577 C576 1.378 . S
C577 H599 0.931 . S
C578 O588 1.259 . S
C578 O589 1.270 . S
C579 O590 1.251 . S
C579 O591 1.251 . S
O580 C560 1.257 . S
O580 Eu561 2.473 . S
O581 C560 1.260 . S
O581 Eu561 2.480 . S
O582 Eu561 2.430 . S
O582 C568 1.259 . S
O583 Eu561 2.670 . S
O583 C568 1.270 . S
O583 Eu571 2.355 . S
O584 Eu561 2.394 . S
O584 C569 1.251 . S
O585 C569 1.251 . S
O585 Eu571 2.374 . S
O586 C570 1.257 . S
O586 Eu571 2.473 . S
O587 C570 1.260 . S
O587 Eu571 2.480 . S
O588 Eu571 2.430 . S
O588 C578 1.259 . S
O589 Eu561 2.355 . S
O589 Eu571 2.670 . S
O589 C578 1.270 . S
O590 Eu571 2.394 . S
O590 C579 1.251 . S
O591 Eu561 2.374 . S
O591 C579 1.251 . S
H592 C563 0.931 . S
H593 C564 0.931 . S
H594 C566 0.931 . S
H595 C567 0.931 . S
H596 C573 0.931 . S
H597 C574 0.931 . S
H598 C576 0.931 . S
H599 C577 0.931 . S
C600 Eu601 2.835 . S
C600 C602 1.500 . S
C600 O620 1.257 . S
C600 O621 1.260 . S
Eu601 C600 2.835 . S
Eu601 O620 2.473 . S
Eu601 O621 2.480 . S
Eu601 O622 2.430 1_556 S
Eu601 O623 2.670 1_556 S
Eu601 O624 2.394 1_556 S
Eu601 O629 2.355 1_455 S
Eu601 O631 2.374 1_455 S
C602 C600 1.500 . S
C602 C603 1.377 . S
C602 C607 1.377 . S
C603 C602 1.377 . S
C603 C604 1.395 . S
C603 H632 0.931 . S
C604 C603 1.395 . S
C604 C605 1.383 . S
C604 H633 0.931 . S
C605 C604 1.383 . S
C605 C606 1.394 . S
C606 C605 1.394 . S
C606 C607 1.378 . S
C606 H634 0.931 . S
C607 C602 1.377 . S
C607 C606 1.378 . S
C607 H635 0.931 . S
C608 O622 1.259 . S
C608 O623 1.270 . S
C609 O624 1.251 . S
C609 O625 1.251 . S
C610 Eu611 2.835 . S
C610 C612 1.500 . S
C610 O626 1.257 . S
C610 O627 1.260 . S
Eu611 C610 2.835 . S
Eu611 O623 2.355 1_655 S
Eu611 O625 2.374 1_655 S
Eu611 O626 2.473 . S
Eu611 O627 2.480 . S
Eu611 O628 2.430 1_554 S
Eu611 O629 2.670 1_554 S
Eu611 O630 2.394 1_554 S
C612 C610 1.500 . S
C612 C613 1.377 . S
C612 C617 1.377 . S
C613 C612 1.377 . S
C613 C614 1.395 . S
C613 H636 0.931 . S
C614 C613 1.395 . S
C614 C615 1.383 . S
C614 H637 0.931 . S
C615 C614 1.383 . S
C615 C616 1.394 . S
C616 C615 1.394 . S
C616 C617 1.378 . S
C616 H638 0.931 . S
C617 C612 1.377 . S
C617 C616 1.378 . S
C617 H639 0.931 . S
C618 O628 1.259 . S
C618 O629 1.270 . S
C619 O630 1.251 . S
C619 O631 1.251 . S
O620 C600 1.257 . S
O620 Eu601 2.473 . S
O621 C600 1.260 . S
O621 Eu601 2.480 . S
O622 Eu601 2.430 1_554 S
O622 C608 1.259 . S
O623 Eu601 2.670 1_554 S
O623 C608 1.270 . S
O623 Eu611 2.355 1_455 S
O624 Eu601 2.394 1_554 S
O624 C609 1.251 . S
O625 C609 1.251 . S
O625 Eu611 2.374 1_455 S
O626 C610 1.257 . S
O626 Eu611 2.473 . S
O627 C610 1.260 . S
O627 Eu611 2.480 . S
O628 Eu611 2.430 1_556 S
O628 C618 1.259 . S
O629 Eu601 2.355 1_655 S
O629 Eu611 2.670 1_556 S
O629 C618 1.270 . S
O630 Eu611 2.394 1_556 S
O630 C619 1.251 . S
O631 Eu601 2.374 1_655 S
O631 C619 1.251 . S
H632 C603 0.931 . S
H633 C604 0.931 . S
H634 C606 0.931 . S
H635 C607 0.931 . S
H636 C613 0.931 . S
H637 C614 0.931 . S
H638 C616 0.931 . S
H639 C617 0.931 . S
H640 C648 0.929 . S
H641 C650 0.930 . S
H642 C652 0.930 . S
H643 C655 0.929 . S
H644 C658 0.930 . S
H645 C660 0.960 . S
H646 C660 0.960 . S
H647 C660 0.960 . S
C648 H640 0.929 . S
C648 C649 1.377 . S
C648 C650 1.384 . S
C649 C648 1.377 . S
C649 C655 1.390 . S
C650 H641 0.930 . S
C650 C648 1.384 . S
C650 C651 1.372 . S
C651 C650 1.372 . S
C651 C652 1.400 . S
C651 C656 1.490 . S
C652 H642 0.930 . S
C652 C651 1.400 . S
C652 C655 1.386 . S
H653 C669 0.930 . S
H654 C670 0.931 . S
C655 H643 0.929 . S
C655 C649 1.390 . S
C655 C652 1.386 . S
C656 C651 1.490 . S
C656 C658 1.395 . S
C656 C659 1.403 . S
H657 C663 0.930 . S
C658 H644 0.930 . S
C658 C656 1.395 . S
C658 C661 1.403 . S
C659 C656 1.403 . S
C659 C660 1.524 . S
C659 C663 1.400 . S
C660 H645 0.960 . S
C660 H646 0.960 . S
C660 H647 0.960 . S
C660 C659 1.524 . S
C661 C658 1.403 . S
C661 C662 1.392 . S
C661 C665 1.495 . S
C662 C661 1.392 . S
C662 C663 1.385 . S
C662 C664 1.478 . S
C663 H657 0.930 . S
C663 C659 1.400 . S
C663 C662 1.385 . S
C664 C662 1.478 . S
C664 C666 1.381 . S
C664 C670 1.383 . S
C665 C661 1.495 . S
C665 H671 0.959 . S
C665 H672 0.961 . S
C665 H673 0.960 . S
C666 C664 1.381 . S
C666 C667 1.394 . S
C666 H674 0.930 . S
C667 C666 1.394 . S
C667 C668 1.383 . S
C667 H675 0.929 . S
C668 C667 1.383 . S
C668 C669 1.377 . S
C669 H653 0.930 . S
C669 C668 1.377 . S
C669 C670 1.379 . S
C670 H654 0.931 . S
C670 C664 1.383 . S
C670 C669 1.379 . S
H671 C665 0.959 . S
H672 C665 0.961 . S
H673 C665 0.960 . S
H674 C666 0.930 . S
H675 C667 0.929 . S
H676 C684 0.929 . S
H677 C686 0.930 . S
H678 C688 0.930 . S
H679 C691 0.929 . S
H680 C694 0.930 . S
H681 C696 0.960 . S
H682 C696 0.960 . S
H683 C696 0.960 . S
C684 H676 0.929 . S
C684 C685 1.377 . S
C684 C686 1.384 . S
C685 C684 1.377 . S
C685 C691 1.390 . S
C686 H677 0.930 . S
C686 C684 1.384 . S
C686 C687 1.372 . S
C687 C686 1.372 . S
C687 C688 1.400 . S
C687 C692 1.490 . S
C688 H678 0.930 . S
C688 C687 1.400 . S
C688 C691 1.386 . S
H689 C705 0.930 . S
H690 C706 0.931 . S
C691 H679 0.929 . S
C691 C685 1.390 . S
C691 C688 1.386 . S
C692 C687 1.490 . S
C692 C694 1.395 . S
C692 C695 1.403 . S
H693 C699 0.930 . S
C694 H680 0.930 . S
C694 C692 1.395 . S
C694 C697 1.403 . S
C695 C692 1.403 . S
C695 C696 1.524 . S
C695 C699 1.400 . S
C696 H681 0.960 . S
C696 H682 0.960 . S
C696 H683 0.960 . S
C696 C695 1.524 . S
C697 C694 1.403 . S
C697 C698 1.392 . S
C697 C701 1.495 . S
C698 C697 1.392 . S
C698 C699 1.385 . S
C698 C700 1.478 . S
C699 H693 0.930 . S
C699 C695 1.400 . S
C699 C698 1.385 . S
C700 C698 1.478 . S
C700 C702 1.381 . S
C700 C706 1.383 . S
C701 C697 1.495 . S
C701 H707 0.959 . S
C701 H708 0.961 . S
C701 H709 0.960 . S
C702 C700 1.381 . S
C702 C703 1.394 . S
C702 H710 0.930 . S
C703 C702 1.394 . S
C703 C704 1.383 . S
C703 H711 0.929 . S
C704 C703 1.383 . S
C704 C705 1.377 . S
C705 H689 0.930 . S
C705 C704 1.377 . S
C705 C706 1.379 . S
C706 H690 0.931 . S
C706 C700 1.383 . S
C706 C705 1.379 . S
H707 C701 0.959 . S
H708 C701 0.961 . S
H709 C701 0.960 . S
H710 C702 0.930 . S
H711 C703 0.929 . S
H712 C720 0.929 . S
H713 C722 0.930 . S
H714 C724 0.930 . S
H715 C727 0.929 . S
H716 C730 0.930 . S
H717 C732 0.960 . S
H718 C732 0.960 . S
H719 C732 0.960 . S
C720 H712 0.929 . S
C720 C721 1.377 . S
C720 C722 1.384 . S
C721 C720 1.377 . S
C721 C727 1.390 . S
C722 H713 0.930 . S
C722 C720 1.384 . S
C722 C723 1.372 . S
C723 C722 1.372 . S
C723 C724 1.400 . S
C723 C728 1.490 . S
C724 H714 0.930 . S
C724 C723 1.400 . S
C724 C727 1.386 . S
H725 C741 0.930 . S
H726 C742 0.931 . S
C727 H715 0.929 . S
C727 C721 1.390 . S
C727 C724 1.386 . S
C728 C723 1.490 . S
C728 C730 1.395 . S
C728 C731 1.403 . S
H729 C735 0.930 . S
C730 H716 0.930 . S
C730 C728 1.395 . S
C730 C733 1.403 . S
C731 C728 1.403 . S
C731 C732 1.524 . S
C731 C735 1.400 . S
C732 H717 0.960 . S
C732 H718 0.960 . S
C732 H719 0.960 . S
C732 C731 1.524 . S
C733 C730 1.403 . S
C733 C734 1.392 . S
C733 C737 1.495 . S
C734 C733 1.392 . S
C734 C735 1.385 . S
C734 C736 1.478 . S
C735 H729 0.930 . S
C735 C731 1.400 . S
C735 C734 1.385 . S
C736 C734 1.478 . S
C736 C738 1.381 . S
C736 C742 1.383 . S
C737 C733 1.495 . S
C737 H743 0.959 . S
C737 H744 0.961 . S
C737 H745 0.960 . S
C738 C736 1.381 . S
C738 C739 1.394 . S
C738 H746 0.930 . S
C739 C738 1.394 . S
C739 C740 1.383 . S
C739 H747 0.929 . S
C740 C739 1.383 . S
C740 C741 1.377 . S
C741 H725 0.930 . S
C741 C740 1.377 . S
C741 C742 1.379 . S
C742 H726 0.931 . S
C742 C736 1.383 . S
C742 C741 1.379 . S
H743 C737 0.959 . S
H744 C737 0.961 . S
H745 C737 0.960 . S
H746 C738 0.930 . S
H747 C739 0.929 . S
H748 C756 0.929 . S
H749 C758 0.930 . S
H750 C760 0.930 . S
H751 C763 0.929 . S
H752 C766 0.930 . S
H753 C768 0.960 . S
H754 C768 0.960 . S
H755 C768 0.960 . S
C756 H748 0.929 . S
C756 C757 1.377 . S
C756 C758 1.384 . S
C757 C756 1.377 . S
C757 C763 1.390 . S
C758 H749 0.930 . S
C758 C756 1.384 . S
C758 C759 1.372 . S
C759 C758 1.372 . S
C759 C760 1.400 . S
C759 C764 1.490 . S
C760 H750 0.930 . S
C760 C759 1.400 . S
C760 C763 1.386 . S
H761 C777 0.930 . S
H762 C778 0.931 . S
C763 H751 0.929 . S
C763 C757 1.390 . S
C763 C760 1.386 . S
C764 C759 1.490 . S
C764 C766 1.395 . S
C764 C767 1.403 . S
H765 C771 0.930 . S
C766 H752 0.930 . S
C766 C764 1.395 . S
C766 C769 1.403 . S
C767 C764 1.403 . S
C767 C768 1.524 . S
C767 C771 1.400 . S
C768 H753 0.960 . S
C768 H754 0.960 . S
C768 H755 0.960 . S
C768 C767 1.524 . S
C769 C766 1.403 . S
C769 C770 1.392 . S
C769 C773 1.495 . S
C770 C769 1.392 . S
C770 C771 1.385 . S
C770 C772 1.478 . S
C771 H765 0.930 . S
C771 C767 1.400 . S
C771 C770 1.385 . S
C772 C770 1.478 . S
C772 C774 1.381 . S
C772 C778 1.383 . S
C773 C769 1.495 . S
C773 H779 0.959 . S
C773 H780 0.961 . S
C773 H781 0.960 . S
C774 C772 1.381 . S
C774 C775 1.394 . S
C774 H782 0.930 . S
C775 C774 1.394 . S
C775 C776 1.383 . S
C775 H783 0.929 . S
C776 C775 1.383 . S
C776 C777 1.377 . S
C777 H761 0.930 . S
C777 C776 1.377 . S
C777 C778 1.379 . S
C778 H762 0.931 . S
C778 C772 1.383 . S
C778 C777 1.379 . S
H779 C773 0.959 . S
H780 C773 0.961 . S
H781 C773 0.960 . S
H782 C774 0.930 . S
H783 C775 0.929 . S
H784 C792 0.929 . S
H785 C794 0.930 . S
H786 C796 0.930 . S
H787 C799 0.929 1_655 S
H788 C802 0.930 . S
H789 C804 0.960 . S
H790 C804 0.960 . S
H791 C804 0.960 . S
C792 H784 0.929 . S
C792 C793 1.377 . S
C792 C794 1.384 . S
C793 C792 1.377 . S
C793 C799 1.390 . S
C794 H785 0.930 . S
C794 C792 1.384 . S
C794 C795 1.372 . S
C795 C794 1.372 . S
C795 C796 1.400 . S
C795 C800 1.490 . S
C796 H786 0.930 . S
C796 C795 1.400 . S
C796 C799 1.386 . S
H797 C813 0.930 . S
H798 C814 0.931 . S
C799 H787 0.929 1_455 S
C799 C793 1.390 . S
C799 C796 1.386 . S
C800 C795 1.490 . S
C800 C802 1.395 . S
C800 C803 1.403 . S
H801 C807 0.930 . S
C802 H788 0.930 . S
C802 C800 1.395 . S
C802 C805 1.403 . S
C803 C800 1.403 . S
C803 C804 1.524 . S
C803 C807 1.400 . S
C804 H789 0.960 . S
C804 H790 0.960 . S
C804 H791 0.960 . S
C804 C803 1.524 . S
C805 C802 1.403 . S
C805 C806 1.392 . S
C805 C809 1.495 . S
C806 C805 1.392 . S
C806 C807 1.385 . S
C806 C808 1.478 . S
C807 H801 0.930 . S
C807 C803 1.400 . S
C807 C806 1.385 . S
C808 C806 1.478 . S
C808 C810 1.381 . S
C808 C814 1.383 . S
C809 C805 1.495 . S
C809 H815 0.959 . S
C809 H816 0.961 . S
C809 H817 0.960 . S
C810 C808 1.381 . S
C810 C811 1.394 . S
C810 H818 0.930 . S
C811 C810 1.394 . S
C811 C812 1.383 . S
C811 H819 0.929 . S
C812 C811 1.383 . S
C812 C813 1.377 . S
C813 H797 0.930 . S
C813 C812 1.377 . S
C813 C814 1.379 . S
C814 H798 0.931 . S
C814 C808 1.383 . S
C814 C813 1.379 . S
H815 C809 0.959 . S
H816 C809 0.961 . S
H817 C809 0.960 . S
H818 C810 0.930 . S
H819 C811 0.929 . S
H820 C828 0.929 . S
H821 C830 0.930 . S
H822 C832 0.930 . S
H823 C835 0.929 . S
H824 C838 0.930 . S
H825 C840 0.960 . S
H826 C840 0.960 . S
H827 C840 0.960 . S
C828 H820 0.929 . S
C828 C829 1.377 . S
C828 C830 1.384 . S
C829 C828 1.377 . S
C829 C835 1.390 . S
C830 H821 0.930 . S
C830 C828 1.384 . S
C830 C831 1.372 . S
C831 C830 1.372 . S
C831 C832 1.400 . S
C831 C836 1.490 . S
C832 H822 0.930 . S
C832 C831 1.400 . S
C832 C835 1.386 . S
H833 C849 0.930 . S
H834 C850 0.931 . S
C835 H823 0.929 . S
C835 C829 1.390 . S
C835 C832 1.386 . S
C836 C831 1.490 . S
C836 C838 1.395 . S
C836 C839 1.403 . S
H837 C843 0.930 . S
C838 H824 0.930 . S
C838 C836 1.395 . S
C838 C841 1.403 . S
C839 C836 1.403 . S
C839 C840 1.524 . S
C839 C843 1.400 . S
C840 H825 0.960 . S
C840 H826 0.960 . S
C840 H827 0.960 . S
C840 C839 1.524 . S
C841 C838 1.403 . S
C841 C842 1.392 . S
C841 C845 1.495 . S
C842 C841 1.392 . S
C842 C843 1.385 . S
C842 C844 1.478 . S
C843 H837 0.930 . S
C843 C839 1.400 . S
C843 C842 1.385 . S
C844 C842 1.478 . S
C844 C846 1.381 . S
C844 C850 1.383 . S
C845 C841 1.495 . S
C845 H851 0.959 . S
C845 H852 0.961 . S
C845 H853 0.960 . S
C846 C844 1.381 . S
C846 C847 1.394 . S
C846 H854 0.930 . S
C847 C846 1.394 . S
C847 C848 1.383 . S
C847 H855 0.929 . S
C848 C847 1.383 . S
C848 C849 1.377 . S
C849 H833 0.930 . S
C849 C848 1.377 . S
C849 C850 1.379 . S
C850 H834 0.931 . S
C850 C844 1.383 . S
C850 C849 1.379 . S
H851 C845 0.959 . S
H852 C845 0.961 . S
H853 C845 0.960 . S
H854 C846 0.930 . S
H855 C847 0.929 . S
H856 C864 0.929 . S
H857 C866 0.930 . S
H858 C868 0.930 . S
H859 C871 0.929 . S
H860 C874 0.930 . S
H861 C876 0.960 . S
H862 C876 0.960 . S
H863 C876 0.960 . S
C864 H856 0.929 . S
C864 C865 1.377 . S
C864 C866 1.384 . S
C865 C864 1.377 . S
C865 C871 1.390 . S
C866 H857 0.930 . S
C866 C864 1.384 . S
C866 C867 1.372 . S
C867 C866 1.372 . S
C867 C868 1.400 . S
C867 C872 1.490 . S
C868 H858 0.930 . S
C868 C867 1.400 . S
C868 C871 1.386 . S
H869 C885 0.930 . S
H870 C886 0.931 . S
C871 H859 0.929 . S
C871 C865 1.390 . S
C871 C868 1.386 . S
C872 C867 1.490 . S
C872 C874 1.395 . S
C872 C875 1.403 . S
H873 C879 0.930 . S
C874 H860 0.930 . S
C874 C872 1.395 . S
C874 C877 1.403 . S
C875 C872 1.403 . S
C875 C876 1.524 . S
C875 C879 1.400 . S
C876 H861 0.960 . S
C876 H862 0.960 . S
C876 H863 0.960 . S
C876 C875 1.524 . S
C877 C874 1.403 . S
C877 C878 1.392 . S
C877 C881 1.495 . S
C878 C877 1.392 . S
C878 C879 1.385 . S
C878 C880 1.478 . S
C879 H873 0.930 . S
C879 C875 1.400 . S
C879 C878 1.385 . S
C880 C878 1.478 . S
C880 C882 1.381 . S
C880 C886 1.383 . S
C881 C877 1.495 . S
C881 H887 0.959 . S
C881 H888 0.961 . S
C881 H889 0.960 . S
C882 C880 1.381 . S
C882 C883 1.394 . S
C882 H890 0.930 . S
C883 C882 1.394 . S
C883 C884 1.383 . S
C883 H891 0.929 . S
C884 C883 1.383 . S
C884 C885 1.377 . S
C885 H869 0.930 . S
C885 C884 1.377 . S
C885 C886 1.379 . S
C886 H870 0.931 . S
C886 C880 1.383 . S
C886 C885 1.379 . S
H887 C881 0.959 . S
H888 C881 0.961 . S
H889 C881 0.960 . S
H890 C882 0.930 . S
H891 C883 0.929 . S
H892 C900 0.929 . S
H893 C902 0.930 . S
H894 C904 0.930 . S
H895 C907 0.929 . S
H896 C910 0.930 . S
H897 C912 0.960 . S
H898 C912 0.960 . S
H899 C912 0.960 . S
C900 H892 0.929 . S
C900 C901 1.377 . S
C900 C902 1.384 . S
C901 C900 1.377 . S
C901 C907 1.390 . S
C902 H893 0.930 . S
C902 C900 1.384 . S
C902 C903 1.372 . S
C903 C902 1.372 . S
C903 C904 1.400 . S
C903 C908 1.490 . S
C904 H894 0.930 . S
C904 C903 1.400 . S
C904 C907 1.386 . S
H905 C921 0.930 . S
H906 C922 0.931 . S
C907 H895 0.929 . S
C907 C901 1.390 . S
C907 C904 1.386 . S
C908 C903 1.490 . S
C908 C910 1.395 . S
C908 C911 1.403 . S
H909 C915 0.930 . S
C910 H896 0.930 . S
C910 C908 1.395 . S
C910 C913 1.403 . S
C911 C908 1.403 . S
C911 C912 1.524 . S
C911 C915 1.400 . S
C912 H897 0.960 . S
C912 H898 0.960 . S
C912 H899 0.960 . S
C912 C911 1.524 . S
C913 C910 1.403 . S
C913 C914 1.392 . S
C913 C917 1.495 . S
C914 C913 1.392 . S
C914 C915 1.385 . S
C914 C916 1.478 . S
C915 H909 0.930 . S
C915 C911 1.400 . S
C915 C914 1.385 . S
C916 C914 1.478 . S
C916 C918 1.381 . S
C916 C922 1.383 . S
C917 C913 1.495 . S
C917 H923 0.959 . S
C917 H924 0.961 . S
C917 H925 0.960 . S
C918 C916 1.381 . S
C918 C919 1.394 . S
C918 H926 0.930 . S
C919 C918 1.394 . S
C919 C920 1.383 . S
C919 H927 0.929 . S
C920 C919 1.383 . S
C920 C921 1.377 . S
C921 H905 0.930 . S
C921 C920 1.377 . S
C921 C922 1.379 . S
C922 H906 0.931 . S
C922 C916 1.383 . S
C922 C921 1.379 . S
H923 C917 0.959 . S
H924 C917 0.961 . S
H925 C917 0.960 . S
H926 C918 0.930 . S
H927 C919 0.929 . S
H928 C936 0.929 . S
H929 C938 0.930 . S
H930 C940 0.930 . S
H931 C943 0.929 . S
H932 C946 0.930 . S
H933 C948 0.960 . S
H934 C948 0.960 . S
H935 C948 0.960 . S
C936 H928 0.929 . S
C936 C937 1.377 . S
C936 C938 1.384 . S
C937 C936 1.377 . S
C937 C943 1.390 . S
C938 H929 0.930 . S
C938 C936 1.384 . S
C938 C939 1.372 . S
C939 C938 1.372 . S
C939 C940 1.400 . S
C939 C944 1.490 . S
C940 H930 0.930 . S
C940 C939 1.400 . S
C940 C943 1.386 . S
H941 C957 0.930 . S
H942 C958 0.931 . S
C943 H931 0.929 . S
C943 C937 1.390 . S
C943 C940 1.386 . S
C944 C939 1.490 . S
C944 C946 1.395 . S
C944 C947 1.403 . S
H945 C951 0.930 . S
C946 H932 0.930 . S
C946 C944 1.395 . S
C946 C949 1.403 . S
C947 C944 1.403 . S
C947 C948 1.524 . S
C947 C951 1.400 . S
C948 H933 0.960 . S
C948 H934 0.960 . S
C948 H935 0.960 . S
C948 C947 1.524 . S
C949 C946 1.403 . S
C949 C950 1.392 . S
C949 C953 1.495 . S
C950 C949 1.392 . S
C950 C951 1.385 . S
C950 C952 1.478 . S
C951 H945 0.930 . S
C951 C947 1.400 . S
C951 C950 1.385 . S
C952 C950 1.478 . S
C952 C954 1.381 . S
C952 C958 1.383 . S
C953 C949 1.495 . S
C953 H959 0.959 . S
C953 H960 0.961 . S
C953 H961 0.960 . S
C954 C952 1.381 . S
C954 C955 1.394 . S
C954 H962 0.930 . S
C955 C954 1.394 . S
C955 C956 1.383 . S
C955 H963 0.929 . S
C956 C955 1.383 . S
C956 C957 1.377 . S
C957 H941 0.930 . S
C957 C956 1.377 . S
C957 C958 1.379 . S
C958 H942 0.931 . S
C958 C952 1.383 . S
C958 C957 1.379 . S
H959 C953 0.959 . S
H960 C953 0.961 . S
H961 C953 0.960 . S
H962 C954 0.930 . S
H963 C955 0.929 . S
H964 C972 0.929 . S
H965 C974 0.930 . S
H966 C976 0.930 . S
H967 C979 0.929 . S
H968 C982 0.930 . S
H969 C984 0.960 . S
H970 C984 0.960 . S
H971 C984 0.960 . S
C972 H964 0.929 . S
C972 C973 1.377 . S
C972 C974 1.384 . S
C973 C972 1.377 . S
C973 C979 1.390 . S
C974 H965 0.930 . S
C974 C972 1.384 . S
C974 C975 1.372 . S
C975 C974 1.372 . S
C975 C976 1.400 . S
C975 C980 1.490 . S
C976 H966 0.930 . S
C976 C975 1.400 . S
C976 C979 1.386 . S
H977 C993 0.930 . S
H978 C994 0.931 . S
C979 H967 0.929 . S
C979 C973 1.390 . S
C979 C976 1.386 . S
C980 C975 1.490 . S
C980 C982 1.395 . S
C980 C983 1.403 . S
H981 C987 0.930 . S
C982 H968 0.930 . S
C982 C980 1.395 . S
C982 C985 1.403 . S
C983 C980 1.403 . S
C983 C984 1.524 . S
C983 C987 1.400 . S
C984 H969 0.960 . S
C984 H970 0.960 . S
C984 H971 0.960 . S
C984 C983 1.524 . S
C985 C982 1.403 . S
C985 C986 1.392 . S
C985 C989 1.495 . S
C986 C985 1.392 . S
C986 C987 1.385 . S
C986 C988 1.478 . S
C987 H981 0.930 . S
C987 C983 1.400 . S
C987 C986 1.385 . S
C988 C986 1.478 . S
C988 C990 1.381 . S
C988 C994 1.383 . S
C989 C985 1.495 . S
C989 H995 0.959 . S
C989 H996 0.961 . S
C989 H997 0.960 . S
C990 C988 1.381 . S
C990 C991 1.394 . S
C990 H998 0.930 . S
C991 C990 1.394 . S
C991 C992 1.383 . S
C991 H999 0.929 . S
C992 C991 1.383 . S
C992 C993 1.377 . S
C993 H977 0.930 . S
C993 C992 1.377 . S
C993 C994 1.379 . S
C994 H978 0.931 . S
C994 C988 1.383 . S
C994 C993 1.379 . S
H995 C989 0.959 . S
H996 C989 0.961 . S
H997 C989 0.960 . S
H998 C990 0.930 . S
H999 C991 0.929 . S
H1000 C1008 0.929 . S
H1001 C1010 0.930 . S
H1002 C1012 0.930 . S
H1003 C1015 0.929 . S
H1004 C1018 0.930 . S
H1005 C1020 0.960 . S
H1006 C1020 0.960 . S
H1007 C1020 0.960 . S
C1008 H1000 0.929 . S
C1008 C1009 1.377 . S
C1008 C1010 1.384 . S
C1009 C1008 1.377 . S
C1009 C1015 1.390 . S
C1010 H1001 0.930 . S
C1010 C1008 1.384 . S
C1010 C1011 1.372 . S
C1011 C1010 1.372 . S
C1011 C1012 1.400 . S
C1011 C1016 1.490 . S
C1012 H1002 0.930 . S
C1012 C1011 1.400 . S
C1012 C1015 1.386 . S
H1013 C1029 0.930 . S
H1014 C1030 0.931 . S
C1015 H1003 0.929 . S
C1015 C1009 1.390 . S
C1015 C1012 1.386 . S
C1016 C1011 1.490 . S
C1016 C1018 1.395 . S
C1016 C1019 1.403 . S
H1017 C1023 0.930 . S
C1018 H1004 0.930 . S
C1018 C1016 1.395 . S
C1018 C1021 1.403 . S
C1019 C1016 1.403 . S
C1019 C1020 1.524 . S
C1019 C1023 1.400 . S
C1020 H1005 0.960 . S
C1020 H1006 0.960 . S
C1020 H1007 0.960 . S
C1020 C1019 1.524 . S
C1021 C1018 1.403 . S
C1021 C1022 1.392 . S
C1021 C1025 1.495 . S
C1022 C1021 1.392 . S
C1022 C1023 1.385 . S
C1022 C1024 1.478 . S
C1023 H1017 0.930 . S
C1023 C1019 1.400 . S
C1023 C1022 1.385 . S
C1024 C1022 1.478 . S
C1024 C1026 1.381 . S
C1024 C1030 1.383 . S
C1025 C1021 1.495 . S
C1025 H1031 0.959 . S
C1025 H1032 0.961 . S
C1025 H1033 0.960 . S
C1026 C1024 1.381 . S
C1026 C1027 1.394 . S
C1026 H1034 0.930 . S
C1027 C1026 1.394 . S
C1027 C1028 1.383 . S
C1027 H1035 0.929 . S
C1028 C1027 1.383 . S
C1028 C1029 1.377 . S
C1029 H1013 0.930 . S
C1029 C1028 1.377 . S
C1029 C1030 1.379 . S
C1030 H1014 0.931 . S
C1030 C1024 1.383 . S
C1030 C1029 1.379 . S
H1031 C1025 0.959 . S
H1032 C1025 0.961 . S
H1033 C1025 0.960 . S
H1034 C1026 0.930 . S
H1035 C1027 0.929 . S
H1036 C1044 0.929 . S
H1037 C1046 0.930 . S
H1038 C1048 0.930 . S
H1039 C1051 0.929 . S
H1040 C1054 0.930 . S
H1041 C1056 0.960 . S
H1042 C1056 0.960 . S
H1043 C1056 0.960 . S
C1044 H1036 0.929 . S
C1044 C1045 1.377 . S
C1044 C1046 1.384 . S
C1045 C1044 1.377 . S
C1045 C1051 1.390 . S
C1046 H1037 0.930 . S
C1046 C1044 1.384 . S
C1046 C1047 1.372 . S
C1047 C1046 1.372 . S
C1047 C1048 1.400 . S
C1047 C1052 1.490 . S
C1048 H1038 0.930 . S
C1048 C1047 1.400 . S
C1048 C1051 1.386 . S
H1049 C1065 0.930 . S
H1050 C1066 0.931 . S
C1051 H1039 0.929 . S
C1051 C1045 1.390 . S
C1051 C1048 1.386 . S
C1052 C1047 1.490 . S
C1052 C1054 1.395 . S
C1052 C1055 1.403 . S
H1053 C1059 0.930 . S
C1054 H1040 0.930 . S
C1054 C1052 1.395 . S
C1054 C1057 1.403 . S
C1055 C1052 1.403 . S
C1055 C1056 1.524 . S
C1055 C1059 1.400 . S
C1056 H1041 0.960 . S
C1056 H1042 0.960 . S
C1056 H1043 0.960 . S
C1056 C1055 1.524 . S
C1057 C1054 1.403 . S
C1057 C1058 1.392 . S
C1057 C1061 1.495 . S
C1058 C1057 1.392 . S
C1058 C1059 1.385 . S
C1058 C1060 1.478 . S
C1059 H1053 0.930 . S
C1059 C1055 1.400 . S
C1059 C1058 1.385 . S
C1060 C1058 1.478 . S
C1060 C1062 1.381 . S
C1060 C1066 1.383 . S
C1061 C1057 1.495 . S
C1061 H1067 0.959 . S
C1061 H1068 0.961 . S
C1061 H1069 0.960 . S
C1062 C1060 1.381 . S
C1062 C1063 1.394 . S
C1062 H1070 0.930 . S
C1063 C1062 1.394 . S
C1063 C1064 1.383 . S
C1063 H1071 0.929 . S
C1064 C1063 1.383 . S
C1064 C1065 1.377 . S
C1065 H1049 0.930 . S
C1065 C1064 1.377 . S
C1065 C1066 1.379 . S
C1066 H1050 0.931 . S
C1066 C1060 1.383 . S
C1066 C1065 1.379 . S
H1067 C1061 0.959 . S
H1068 C1061 0.961 . S
H1069 C1061 0.960 . S
H1070 C1062 0.930 . S
H1071 C1063 0.929 . S
H1072 C1080 0.929 . S
H1073 C1082 0.930 . S
H1074 C1084 0.930 . S
H1075 C1087 0.929 . S
H1076 C1090 0.930 . S
H1077 C1092 0.960 . S
H1078 C1092 0.960 . S
H1079 C1092 0.960 . S
C1080 H1072 0.929 . S
C1080 C1081 1.377 . S
C1080 C1082 1.384 . S
C1081 C1080 1.377 . S
C1081 C1087 1.390 . S
C1082 H1073 0.930 . S
C1082 C1080 1.384 . S
C1082 C1083 1.372 . S
C1083 C1082 1.372 . S
C1083 C1084 1.400 . S
C1083 C1088 1.490 . S
C1084 H1074 0.930 . S
C1084 C1083 1.400 . S
C1084 C1087 1.386 . S
H1085 C1101 0.930 . S
H1086 C1102 0.931 . S
C1087 H1075 0.929 . S
C1087 C1081 1.390 . S
C1087 C1084 1.386 . S
C1088 C1083 1.490 . S
C1088 C1090 1.395 . S
C1088 C1091 1.403 . S
H1089 C1095 0.930 . S
C1090 H1076 0.930 . S
C1090 C1088 1.395 . S
C1090 C1093 1.403 . S
C1091 C1088 1.403 . S
C1091 C1092 1.524 . S
C1091 C1095 1.400 . S
C1092 H1077 0.960 . S
C1092 H1078 0.960 . S
C1092 H1079 0.960 . S
C1092 C1091 1.524 . S
C1093 C1090 1.403 . S
C1093 C1094 1.392 . S
C1093 C1097 1.495 . S
C1094 C1093 1.392 . S
C1094 C1095 1.385 . S
C1094 C1096 1.478 . S
C1095 H1089 0.930 . S
C1095 C1091 1.400 . S
C1095 C1094 1.385 . S
C1096 C1094 1.478 . S
C1096 C1098 1.381 . S
C1096 C1102 1.383 . S
C1097 C1093 1.495 . S
C1097 H1103 0.959 . S
C1097 H1104 0.961 . S
C1097 H1105 0.960 . S
C1098 C1096 1.381 . S
C1098 C1099 1.394 . S
C1098 H1106 0.930 . S
C1099 C1098 1.394 . S
C1099 C1100 1.383 . S
C1099 H1107 0.929 . S
C1100 C1099 1.383 . S
C1100 C1101 1.377 . S
C1101 H1085 0.930 . S
C1101 C1100 1.377 . S
C1101 C1102 1.379 . S
C1102 H1086 0.931 . S
C1102 C1096 1.383 . S
C1102 C1101 1.379 . S
H1103 C1097 0.959 . S
H1104 C1097 0.961 . S
H1105 C1097 0.960 . S
H1106 C1098 0.930 . S
H1107 C1099 0.929 . S
H1108 C1116 0.929 . S
H1109 C1118 0.930 . S
H1110 C1120 0.930 . S
H1111 C1123 0.929 . S
H1112 C1126 0.930 . S
H1113 C1128 0.960 . S
H1114 C1128 0.960 . S
H1115 C1128 0.960 . S
C1116 H1108 0.929 . S
C1116 C1117 1.377 . S
C1116 C1118 1.384 . S
C1117 C1116 1.377 . S
C1117 C1123 1.390 . S
C1118 H1109 0.930 . S
C1118 C1116 1.384 . S
C1118 C1119 1.372 . S
C1119 C1118 1.372 . S
C1119 C1120 1.400 . S
C1119 C1124 1.490 . S
C1120 H1110 0.930 . S
C1120 C1119 1.400 . S
C1120 C1123 1.386 . S
H1121 C1137 0.930 . S
H1122 C1138 0.931 . S
C1123 H1111 0.929 . S
C1123 C1117 1.390 . S
C1123 C1120 1.386 . S
C1124 C1119 1.490 . S
C1124 C1126 1.395 . S
C1124 C1127 1.403 . S
H1125 C1131 0.930 . S
C1126 H1112 0.930 . S
C1126 C1124 1.395 . S
C1126 C1129 1.403 . S
C1127 C1124 1.403 . S
C1127 C1128 1.524 . S
C1127 C1131 1.400 . S
C1128 H1113 0.960 . S
C1128 H1114 0.960 . S
C1128 H1115 0.960 . S
C1128 C1127 1.524 . S
C1129 C1126 1.403 . S
C1129 C1130 1.392 . S
C1129 C1133 1.495 . S
C1130 C1129 1.392 . S
C1130 C1131 1.385 . S
C1130 C1132 1.478 . S
C1131 H1125 0.930 . S
C1131 C1127 1.400 . S
C1131 C1130 1.385 . S
C1132 C1130 1.478 . S
C1132 C1134 1.381 . S
C1132 C1138 1.383 . S
C1133 C1129 1.495 . S
C1133 H1139 0.959 . S
C1133 H1140 0.961 . S
C1133 H1141 0.960 . S
C1134 C1132 1.381 . S
C1134 C1135 1.394 . S
C1134 H1142 0.930 . S
C1135 C1134 1.394 . S
C1135 C1136 1.383 . S
C1135 H1143 0.929 . S
C1136 C1135 1.383 . S
C1136 C1137 1.377 . S
C1137 H1121 0.930 . S
C1137 C1136 1.377 . S
C1137 C1138 1.379 . S
C1138 H1122 0.931 . S
C1138 C1132 1.383 . S
C1138 C1137 1.379 . S
H1139 C1133 0.959 . S
H1140 C1133 0.961 . S
H1141 C1133 0.960 . S
H1142 C1134 0.930 . S
H1143 C1135 0.929 . S
H1144 C1152 0.929 . S
H1145 C1154 0.930 . S
H1146 C1156 0.930 . S
H1147 C1159 0.929 . S
H1148 C1162 0.930 . S
H1149 C1164 0.960 . S
H1150 C1164 0.960 . S
H1151 C1164 0.960 . S
C1152 H1144 0.929 . S
C1152 C1153 1.377 . S
C1152 C1154 1.384 . S
C1153 C1152 1.377 . S
C1153 C1159 1.390 . S
C1154 H1145 0.930 . S
C1154 C1152 1.384 . S
C1154 C1155 1.372 . S
C1155 C1154 1.372 . S
C1155 C1156 1.400 . S
C1155 C1160 1.490 . S
C1156 H1146 0.930 . S
C1156 C1155 1.400 . S
C1156 C1159 1.386 . S
H1157 C1173 0.930 . S
H1158 C1174 0.931 . S
C1159 H1147 0.929 . S
C1159 C1153 1.390 . S
C1159 C1156 1.386 . S
C1160 C1155 1.490 . S
C1160 C1162 1.395 . S
C1160 C1163 1.403 . S
H1161 C1167 0.930 . S
C1162 H1148 0.930 . S
C1162 C1160 1.395 . S
C1162 C1165 1.403 . S
C1163 C1160 1.403 . S
C1163 C1164 1.524 . S
C1163 C1167 1.400 . S
C1164 H1149 0.960 . S
C1164 H1150 0.960 . S
C1164 H1151 0.960 . S
C1164 C1163 1.524 . S
C1165 C1162 1.403 . S
C1165 C1166 1.392 . S
C1165 C1169 1.495 . S
C1166 C1165 1.392 . S
C1166 C1167 1.385 . S
C1166 C1168 1.478 . S
C1167 H1161 0.930 . S
C1167 C1163 1.400 . S
C1167 C1166 1.385 . S
C1168 C1166 1.478 . S
C1168 C1170 1.381 . S
C1168 C1174 1.383 . S
C1169 C1165 1.495 . S
C1169 H1175 0.959 . S
C1169 H1176 0.961 . S
C1169 H1177 0.960 . S
C1170 C1168 1.381 . S
C1170 C1171 1.394 . S
C1170 H1178 0.930 . S
C1171 C1170 1.394 . S
C1171 C1172 1.383 . S
C1171 H1179 0.929 . S
C1172 C1171 1.383 . S
C1172 C1173 1.377 . S
C1173 H1157 0.930 . S
C1173 C1172 1.377 . S
C1173 C1174 1.379 . S
C1174 H1158 0.931 . S
C1174 C1168 1.383 . S
C1174 C1173 1.379 . S
H1175 C1169 0.959 . S
H1176 C1169 0.961 . S
H1177 C1169 0.960 . S
H1178 C1170 0.930 . S
H1179 C1171 0.929 . S
H1180 C1188 0.929 . S
H1181 C1190 0.930 . S
H1182 C1192 0.930 . S
H1183 C1195 0.929 . S
H1184 C1198 0.930 . S
H1185 C1200 0.960 . S
H1186 C1200 0.960 . S
H1187 C1200 0.960 . S
C1188 H1180 0.929 . S
C1188 C1189 1.377 . S
C1188 C1190 1.384 . S
C1189 C1188 1.377 . S
C1189 C1195 1.390 . S
C1190 H1181 0.930 . S
C1190 C1188 1.384 . S
C1190 C1191 1.372 . S
C1191 C1190 1.372 . S
C1191 C1192 1.400 . S
C1191 C1196 1.490 . S
C1192 H1182 0.930 . S
C1192 C1191 1.400 . S
C1192 C1195 1.386 . S
H1193 C1209 0.930 . S
H1194 C1210 0.931 . S
C1195 H1183 0.929 . S
C1195 C1189 1.390 . S
C1195 C1192 1.386 . S
C1196 C1191 1.490 . S
C1196 C1198 1.395 . S
C1196 C1199 1.403 . S
H1197 C1203 0.930 . S
C1198 H1184 0.930 . S
C1198 C1196 1.395 . S
C1198 C1201 1.403 . S
C1199 C1196 1.403 . S
C1199 C1200 1.524 . S
C1199 C1203 1.400 . S
C1200 H1185 0.960 . S
C1200 H1186 0.960 . S
C1200 H1187 0.960 . S
C1200 C1199 1.524 . S
C1201 C1198 1.403 . S
C1201 C1202 1.392 . S
C1201 C1205 1.495 . S
C1202 C1201 1.392 . S
C1202 C1203 1.385 . S
C1202 C1204 1.478 . S
C1203 H1197 0.930 . S
C1203 C1199 1.400 . S
C1203 C1202 1.385 . S
C1204 C1202 1.478 . S
C1204 C1206 1.381 . S
C1204 C1210 1.383 . S
C1205 C1201 1.495 . S
C1205 H1211 0.959 . S
C1205 H1212 0.961 . S
C1205 H1213 0.960 . S
C1206 C1204 1.381 . S
C1206 C1207 1.394 . S
C1206 H1214 0.930 . S
C1207 C1206 1.394 . S
C1207 C1208 1.383 . S
C1207 H1215 0.929 . S
C1208 C1207 1.383 . S
C1208 C1209 1.377 . S
C1209 H1193 0.930 . S
C1209 C1208 1.377 . S
C1209 C1210 1.379 . S
C1210 H1194 0.931 . S
C1210 C1204 1.383 . S
C1210 C1209 1.379 . S
H1211 C1205 0.959 . S
H1212 C1205 0.961 . S
H1213 C1205 0.960 . S
H1214 C1206 0.930 . S
H1215 C1207 0.929 . S
H1216 C1224 0.929 . S
H1217 C1226 0.930 . S
H1218 C1228 0.930 . S
H1219 C1231 0.929 . S
H1220 C1234 0.930 . S
H1221 C1236 0.960 . S
H1222 C1236 0.960 . S
H1223 C1236 0.960 . S
C1224 H1216 0.929 . S
C1224 C1225 1.377 . S
C1224 C1226 1.384 . S
C1225 C1224 1.377 . S
C1225 C1231 1.390 . S
C1226 H1217 0.930 . S
C1226 C1224 1.384 . S
C1226 C1227 1.372 . S
C1227 C1226 1.372 . S
C1227 C1228 1.400 . S
C1227 C1232 1.490 . S
C1228 H1218 0.930 . S
C1228 C1227 1.400 . S
C1228 C1231 1.386 . S
H1229 C1245 0.930 . S
H1230 C1246 0.931 . S
C1231 H1219 0.929 . S
C1231 C1225 1.390 . S
C1231 C1228 1.386 . S
C1232 C1227 1.490 . S
C1232 C1234 1.395 . S
C1232 C1235 1.403 . S
H1233 C1239 0.930 . S
C1234 H1220 0.930 . S
C1234 C1232 1.395 . S
C1234 C1237 1.403 . S
C1235 C1232 1.403 . S
C1235 C1236 1.524 . S
C1235 C1239 1.400 . S
C1236 H1221 0.960 . S
C1236 H1222 0.960 . S
C1236 H1223 0.960 . S
C1236 C1235 1.524 . S
C1237 C1234 1.403 . S
C1237 C1238 1.392 . S
C1237 C1241 1.495 . S
C1238 C1237 1.392 . S
C1238 C1239 1.385 . S
C1238 C1240 1.478 . S
C1239 H1233 0.930 . S
C1239 C1235 1.400 . S
C1239 C1238 1.385 . S
C1240 C1238 1.478 . S
C1240 C1242 1.381 . S
C1240 C1246 1.383 . S
C1241 C1237 1.495 . S
C1241 H1247 0.959 . S
C1241 H1248 0.961 . S
C1241 H1249 0.960 . S
C1242 C1240 1.381 . S
C1242 C1243 1.394 . S
C1242 H1250 0.930 . S
C1243 C1242 1.394 . S
C1243 C1244 1.383 . S
C1243 H1251 0.929 . S
C1244 C1243 1.383 . S
C1244 C1245 1.377 . S
C1245 H1229 0.930 . S
C1245 C1244 1.377 . S
C1245 C1246 1.379 . S
C1246 H1230 0.931 . S
C1246 C1240 1.383 . S
C1246 C1245 1.379 . S
H1247 C1241 0.959 . S
H1248 C1241 0.961 . S
H1249 C1241 0.960 . S
H1250 C1242 0.930 . S
H1251 C1243 0.929 . S
H1252 C1260 0.929 . S
H1253 C1262 0.930 . S
H1254 C1264 0.930 . S
H1255 C1267 0.929 . S
H1256 C1270 0.930 . S
H1257 C1272 0.960 . S
H1258 C1272 0.960 . S
H1259 C1272 0.960 . S
C1260 H1252 0.929 . S
C1260 C1261 1.377 . S
C1260 C1262 1.384 . S
C1261 C1260 1.377 . S
C1261 C1267 1.390 . S
C1262 H1253 0.930 . S
C1262 C1260 1.384 . S
C1262 C1263 1.372 . S
C1263 C1262 1.372 . S
C1263 C1264 1.400 . S
C1263 C1268 1.490 . S
C1264 H1254 0.930 . S
C1264 C1263 1.400 . S
C1264 C1267 1.386 . S
H1265 C1281 0.930 . S
H1266 C1282 0.931 . S
C1267 H1255 0.929 . S
C1267 C1261 1.390 . S
C1267 C1264 1.386 . S
C1268 C1263 1.490 . S
C1268 C1270 1.395 . S
C1268 C1271 1.403 . S
H1269 C1275 0.930 . S
C1270 H1256 0.930 . S
C1270 C1268 1.395 . S
C1270 C1273 1.403 . S
C1271 C1268 1.403 . S
C1271 C1272 1.524 . S
C1271 C1275 1.400 . S
C1272 H1257 0.960 . S
C1272 H1258 0.960 . S
C1272 H1259 0.960 . S
C1272 C1271 1.524 . S
C1273 C1270 1.403 . S
C1273 C1274 1.392 . S
C1273 C1277 1.495 . S
C1274 C1273 1.392 . S
C1274 C1275 1.385 . S
C1274 C1276 1.478 . S
C1275 H1269 0.930 . S
C1275 C1271 1.400 . S
C1275 C1274 1.385 . S
C1276 C1274 1.478 . S
C1276 C1278 1.381 . S
C1276 C1282 1.383 . S
C1277 C1273 1.495 . S
C1277 H1283 0.959 . S
C1277 H1284 0.961 . S
C1277 H1285 0.960 . S
C1278 C1276 1.381 . S
C1278 C1279 1.394 . S
C1278 H1286 0.930 . S
C1279 C1278 1.394 . S
C1279 C1280 1.383 . S
C1279 H1287 0.929 . S
C1280 C1279 1.383 . S
C1280 C1281 1.377 . S
C1281 H1265 0.930 . S
C1281 C1280 1.377 . S
C1281 C1282 1.379 . S
C1282 H1266 0.931 . S
C1282 C1276 1.383 . S
C1282 C1281 1.379 . S
H1283 C1277 0.959 . S
H1284 C1277 0.961 . S
H1285 C1277 0.960 . S
H1286 C1278 0.930 . S
H1287 C1279 0.929 . S
H1288 C1296 0.929 . S
H1289 C1298 0.930 . S
H1290 C1300 0.930 . S
H1291 C1303 0.929 . S
H1292 C1306 0.930 . S
H1293 C1308 0.960 . S
H1294 C1308 0.960 . S
H1295 C1308 0.960 . S
C1296 H1288 0.929 . S
C1296 C1297 1.377 . S
C1296 C1298 1.384 . S
C1297 C1296 1.377 . S
C1297 C1303 1.390 . S
C1298 H1289 0.930 . S
C1298 C1296 1.384 . S
C1298 C1299 1.372 . S
C1299 C1298 1.372 . S
C1299 C1300 1.400 . S
C1299 C1304 1.490 . S
C1300 H1290 0.930 . S
C1300 C1299 1.400 . S
C1300 C1303 1.386 . S
H1301 C1317 0.930 . S
H1302 C1318 0.931 . S
C1303 H1291 0.929 . S
C1303 C1297 1.390 . S
C1303 C1300 1.386 . S
C1304 C1299 1.490 . S
C1304 C1306 1.395 . S
C1304 C1307 1.403 . S
H1305 C1311 0.930 . S
C1306 H1292 0.930 . S
C1306 C1304 1.395 . S
C1306 C1309 1.403 . S
C1307 C1304 1.403 . S
C1307 C1308 1.524 . S
C1307 C1311 1.400 . S
C1308 H1293 0.960 . S
C1308 H1294 0.960 . S
C1308 H1295 0.960 . S
C1308 C1307 1.524 . S
C1309 C1306 1.403 . S
C1309 C1310 1.392 . S
C1309 C1313 1.495 . S
C1310 C1309 1.392 . S
C1310 C1311 1.385 . S
C1310 C1312 1.478 . S
C1311 H1305 0.930 . S
C1311 C1307 1.400 . S
C1311 C1310 1.385 . S
C1312 C1310 1.478 . S
C1312 C1314 1.381 . S
C1312 C1318 1.383 . S
C1313 C1309 1.495 . S
C1313 H1319 0.959 . S
C1313 H1320 0.961 . S
C1313 H1321 0.960 . S
C1314 C1312 1.381 . S
C1314 C1315 1.394 . S
C1314 H1322 0.930 . S
C1315 C1314 1.394 . S
C1315 C1316 1.383 . S
C1315 H1323 0.929 . S
C1316 C1315 1.383 . S
C1316 C1317 1.377 . S
C1317 H1301 0.930 . S
C1317 C1316 1.377 . S
C1317 C1318 1.379 . S
C1318 H1302 0.931 . S
C1318 C1312 1.383 . S
C1318 C1317 1.379 . S
H1319 C1313 0.959 . S
H1320 C1313 0.961 . S
H1321 C1313 0.960 . S
H1322 C1314 0.930 . S
H1323 C1315 0.929 . S
H1324 C1332 0.929 . S
H1325 C1334 0.930 . S
H1326 C1336 0.930 . S
H1327 C1339 0.929 . S
H1328 C1342 0.930 . S
H1329 C1344 0.960 . S
H1330 C1344 0.960 . S
H1331 C1344 0.960 . S
C1332 H1324 0.929 . S
C1332 C1333 1.377 . S
C1332 C1334 1.384 . S
C1333 C1332 1.377 . S
C1333 C1339 1.390 . S
C1334 H1325 0.930 . S
C1334 C1332 1.384 . S
C1334 C1335 1.372 . S
C1335 C1334 1.372 . S
C1335 C1336 1.400 . S
C1335 C1340 1.490 . S
C1336 H1326 0.930 . S
C1336 C1335 1.400 . S
C1336 C1339 1.386 . S
H1337 C1353 0.930 . S
H1338 C1354 0.931 . S
C1339 H1327 0.929 . S
C1339 C1333 1.390 . S
C1339 C1336 1.386 . S
C1340 C1335 1.490 . S
C1340 C1342 1.395 . S
C1340 C1343 1.403 . S
H1341 C1347 0.930 . S
C1342 H1328 0.930 . S
C1342 C1340 1.395 . S
C1342 C1345 1.403 . S
C1343 C1340 1.403 . S
C1343 C1344 1.524 . S
C1343 C1347 1.400 . S
C1344 H1329 0.960 . S
C1344 H1330 0.960 . S
C1344 H1331 0.960 . S
C1344 C1343 1.524 . S
C1345 C1342 1.403 . S
C1345 C1346 1.392 . S
C1345 C1349 1.495 . S
C1346 C1345 1.392 . S
C1346 C1347 1.385 . S
C1346 C1348 1.478 . S
C1347 H1341 0.930 . S
C1347 C1343 1.400 . S
C1347 C1346 1.385 . S
C1348 C1346 1.478 . S
C1348 C1350 1.381 . S
C1348 C1354 1.383 . S
C1349 C1345 1.495 . S
C1349 H1355 0.959 . S
C1349 H1356 0.961 . S
C1349 H1357 0.960 . S
C1350 C1348 1.381 . S
C1350 C1351 1.394 . S
C1350 H1358 0.930 . S
C1351 C1350 1.394 . S
C1351 C1352 1.383 . S
C1351 H1359 0.929 . S
C1352 C1351 1.383 . S
C1352 C1353 1.377 . S
C1353 H1337 0.930 . S
C1353 C1352 1.377 . S
C1353 C1354 1.379 . S
C1354 H1338 0.931 . S
C1354 C1348 1.383 . S
C1354 C1353 1.379 . S
H1355 C1349 0.959 . S
H1356 C1349 0.961 . S
H1357 C1349 0.960 . S
H1358 C1350 0.930 . S
H1359 C1351 0.929 . S
H1360 C1368 0.929 . S
H1361 C1370 0.930 . S
H1362 C1372 0.930 . S
H1363 C1375 0.929 . S
H1364 C1378 0.930 . S
H1365 C1380 0.960 . S
H1366 C1380 0.960 . S
H1367 C1380 0.960 . S
C1368 H1360 0.929 . S
C1368 C1369 1.377 . S
C1368 C1370 1.384 . S
C1369 C1368 1.377 . S
C1369 C1375 1.390 . S
C1370 H1361 0.930 . S
C1370 C1368 1.384 . S
C1370 C1371 1.372 . S
C1371 C1370 1.372 . S
C1371 C1372 1.400 . S
C1371 C1376 1.490 . S
C1372 H1362 0.930 . S
C1372 C1371 1.400 . S
C1372 C1375 1.386 . S
H1373 C1389 0.930 . S
H1374 C1390 0.931 . S
C1375 H1363 0.929 . S
C1375 C1369 1.390 . S
C1375 C1372 1.386 . S
C1376 C1371 1.490 . S
C1376 C1378 1.395 . S
C1376 C1379 1.403 . S
H1377 C1383 0.930 . S
C1378 H1364 0.930 . S
C1378 C1376 1.395 . S
C1378 C1381 1.403 . S
C1379 C1376 1.403 . S
C1379 C1380 1.524 . S
C1379 C1383 1.400 . S
C1380 H1365 0.960 . S
C1380 H1366 0.960 . S
C1380 H1367 0.960 . S
C1380 C1379 1.524 . S
C1381 C1378 1.403 . S
C1381 C1382 1.392 . S
C1381 C1385 1.495 . S
C1382 C1381 1.392 . S
C1382 C1383 1.385 . S
C1382 C1384 1.478 . S
C1383 H1377 0.930 . S
C1383 C1379 1.400 . S
C1383 C1382 1.385 . S
C1384 C1382 1.478 . S
C1384 C1386 1.381 . S
C1384 C1390 1.383 . S
C1385 C1381 1.495 . S
C1385 H1391 0.959 . S
C1385 H1392 0.961 . S
C1385 H1393 0.960 . S
C1386 C1384 1.381 . S
C1386 C1387 1.394 . S
C1386 H1394 0.930 . S
C1387 C1386 1.394 . S
C1387 C1388 1.383 . S
C1387 H1395 0.929 . S
C1388 C1387 1.383 . S
C1388 C1389 1.377 . S
C1389 H1373 0.930 . S
C1389 C1388 1.377 . S
C1389 C1390 1.379 . S
C1390 H1374 0.931 . S
C1390 C1384 1.383 . S
C1390 C1389 1.379 . S
H1391 C1385 0.959 . S
H1392 C1385 0.961 . S
H1393 C1385 0.960 . S
H1394 C1386 0.930 . S
H1395 C1387 0.929 . S
H1396 C1404 0.929 . S
H1397 C1406 0.930 . S
H1398 C1408 0.930 . S
H1399 C1411 0.929 . S
H1400 C1414 0.930 . S
H1401 C1416 0.960 . S
H1402 C1416 0.960 . S
H1403 C1416 0.960 . S
C1404 H1396 0.929 . S
C1404 C1405 1.377 . S
C1404 C1406 1.384 . S
C1405 C1404 1.377 . S
C1405 C1411 1.390 . S
C1406 H1397 0.930 . S
C1406 C1404 1.384 . S
C1406 C1407 1.372 . S
C1407 C1406 1.372 . S
C1407 C1408 1.400 . S
C1407 C1412 1.490 . S
C1408 H1398 0.930 . S
C1408 C1407 1.400 . S
C1408 C1411 1.386 . S
H1409 C1425 0.930 . S
H1410 C1426 0.931 . S
C1411 H1399 0.929 . S
C1411 C1405 1.390 . S
C1411 C1408 1.386 . S
C1412 C1407 1.490 . S
C1412 C1414 1.395 . S
C1412 C1415 1.403 . S
H1413 C1419 0.930 . S
C1414 H1400 0.930 . S
C1414 C1412 1.395 . S
C1414 C1417 1.403 . S
C1415 C1412 1.403 . S
C1415 C1416 1.524 . S
C1415 C1419 1.400 . S
C1416 H1401 0.960 . S
C1416 H1402 0.960 . S
C1416 H1403 0.960 . S
C1416 C1415 1.524 . S
C1417 C1414 1.403 . S
C1417 C1418 1.392 . S
C1417 C1421 1.495 . S
C1418 C1417 1.392 . S
C1418 C1419 1.385 . S
C1418 C1420 1.478 . S
C1419 H1413 0.930 . S
C1419 C1415 1.400 . S
C1419 C1418 1.385 . S
C1420 C1418 1.478 . S
C1420 C1422 1.381 . S
C1420 C1426 1.383 . S
C1421 C1417 1.495 . S
C1421 H1427 0.959 . S
C1421 H1428 0.961 . S
C1421 H1429 0.960 . S
C1422 C1420 1.381 . S
C1422 C1423 1.394 . S
C1422 H1430 0.930 . S
C1423 C1422 1.394 . S
C1423 C1424 1.383 . S
C1423 H1431 0.929 . S
C1424 C1423 1.383 . S
C1424 C1425 1.377 . S
C1425 H1409 0.930 . S
C1425 C1424 1.377 . S
C1425 C1426 1.379 . S
C1426 H1410 0.931 . S
C1426 C1420 1.383 . S
C1426 C1425 1.379 . S
H1427 C1421 0.959 . S
H1428 C1421 0.961 . S
H1429 C1421 0.960 . S
H1430 C1422 0.930 . S
H1431 C1423 0.929 . S
H1432 C1440 0.929 . S
H1433 C1442 0.930 . S
H1434 C1444 0.930 . S
H1435 C1447 0.929 . S
H1436 C1450 0.930 . S
H1437 C1452 0.960 . S
H1438 C1452 0.960 . S
H1439 C1452 0.960 . S
C1440 H1432 0.929 . S
C1440 C1441 1.377 . S
C1440 C1442 1.384 . S
C1441 C1440 1.377 . S
C1441 C1447 1.390 . S
C1442 H1433 0.930 . S
C1442 C1440 1.384 . S
C1442 C1443 1.372 . S
C1443 C1442 1.372 . S
C1443 C1444 1.400 . S
C1443 C1448 1.490 . S
C1444 H1434 0.930 . S
C1444 C1443 1.400 . S
C1444 C1447 1.386 . S
H1445 C1461 0.930 . S
H1446 C1462 0.931 . S
C1447 H1435 0.929 . S
C1447 C1441 1.390 . S
C1447 C1444 1.386 . S
C1448 C1443 1.490 . S
C1448 C1450 1.395 . S
C1448 C1451 1.403 . S
H1449 C1455 0.930 . S
C1450 H1436 0.930 . S
C1450 C1448 1.395 . S
C1450 C1453 1.403 . S
C1451 C1448 1.403 . S
C1451 C1452 1.524 . S
C1451 C1455 1.400 . S
C1452 H1437 0.960 . S
C1452 H1438 0.960 . S
C1452 H1439 0.960 . S
C1452 C1451 1.524 . S
C1453 C1450 1.403 . S
C1453 C1454 1.392 . S
C1453 C1457 1.495 . S
C1454 C1453 1.392 . S
C1454 C1455 1.385 . S
C1454 C1456 1.478 . S
C1455 H1449 0.930 . S
C1455 C1451 1.400 . S
C1455 C1454 1.385 . S
C1456 C1454 1.478 . S
C1456 C1458 1.381 . S
C1456 C1462 1.383 . S
C1457 C1453 1.495 . S
C1457 H1463 0.959 . S
C1457 H1464 0.961 . S
C1457 H1465 0.960 . S
C1458 C1456 1.381 . S
C1458 C1459 1.394 . S
C1458 H1466 0.930 . S
C1459 C1458 1.394 . S
C1459 C1460 1.383 . S
C1459 H1467 0.929 . S
C1460 C1459 1.383 . S
C1460 C1461 1.377 . S
C1461 H1445 0.930 . S
C1461 C1460 1.377 . S
C1461 C1462 1.379 . S
C1462 H1446 0.931 . S
C1462 C1456 1.383 . S
C1462 C1461 1.379 . S
H1463 C1457 0.959 . S
H1464 C1457 0.961 . S
H1465 C1457 0.960 . S
H1466 C1458 0.930 . S
H1467 C1459 0.929 . S
H1468 C1476 0.929 . S
H1469 C1478 0.930 . S
H1470 C1480 0.930 . S
H1471 C1483 0.929 . S
H1472 C1486 0.930 . S
H1473 C1488 0.960 . S
H1474 C1488 0.960 . S
H1475 C1488 0.960 . S
C1476 H1468 0.929 . S
C1476 C1477 1.377 . S
C1476 C1478 1.384 . S
C1477 C1476 1.377 . S
C1477 C1483 1.390 . S
C1478 H1469 0.930 . S
C1478 C1476 1.384 . S
C1478 C1479 1.372 . S
C1479 C1478 1.372 . S
C1479 C1480 1.400 . S
C1479 C1484 1.490 . S
C1480 H1470 0.930 . S
C1480 C1479 1.400 . S
C1480 C1483 1.386 . S
H1481 C1497 0.930 . S
H1482 C1498 0.931 . S
C1483 H1471 0.929 . S
C1483 C1477 1.390 . S
C1483 C1480 1.386 . S
C1484 C1479 1.490 . S
C1484 C1486 1.395 . S
C1484 C1487 1.403 . S
H1485 C1491 0.930 . S
C1486 H1472 0.930 . S
C1486 C1484 1.395 . S
C1486 C1489 1.403 . S
C1487 C1484 1.403 . S
C1487 C1488 1.524 . S
C1487 C1491 1.400 . S
C1488 H1473 0.960 . S
C1488 H1474 0.960 . S
C1488 H1475 0.960 . S
C1488 C1487 1.524 . S
C1489 C1486 1.403 . S
C1489 C1490 1.392 . S
C1489 C1493 1.495 . S
C1490 C1489 1.392 . S
C1490 C1491 1.385 . S
C1490 C1492 1.478 . S
C1491 H1485 0.930 . S
C1491 C1487 1.400 . S
C1491 C1490 1.385 . S
C1492 C1490 1.478 . S
C1492 C1494 1.381 . S
C1492 C1498 1.383 . S
C1493 C1489 1.495 . S
C1493 H1499 0.959 . S
C1493 H1500 0.961 . S
C1493 H1501 0.960 . S
C1494 C1492 1.381 . S
C1494 C1495 1.394 . S
C1494 H1502 0.930 . S
C1495 C1494 1.394 . S
C1495 C1496 1.383 . S
C1495 H1503 0.929 . S
C1496 C1495 1.383 . S
C1496 C1497 1.377 . S
C1497 H1481 0.930 . S
C1497 C1496 1.377 . S
C1497 C1498 1.379 . S
C1498 H1482 0.931 . S
C1498 C1492 1.383 . S
C1498 C1497 1.379 . S
H1499 C1493 0.959 . S
H1500 C1493 0.961 . S
H1501 C1493 0.960 . S
H1502 C1494 0.930 . S
H1503 C1495 0.929 . S
H1504 C1512 0.929 . S
H1505 C1514 0.930 . S
H1506 C1516 0.930 . S
H1507 C1519 0.929 . S
H1508 C1522 0.930 . S
H1509 C1524 0.960 . S
H1510 C1524 0.960 . S
H1511 C1524 0.960 . S
C1512 H1504 0.929 . S
C1512 C1513 1.377 . S
C1512 C1514 1.384 . S
C1513 C1512 1.377 . S
C1513 C1519 1.390 . S
C1514 H1505 0.930 . S
C1514 C1512 1.384 . S
C1514 C1515 1.372 . S
C1515 C1514 1.372 . S
C1515 C1516 1.400 . S
C1515 C1520 1.490 . S
C1516 H1506 0.930 . S
C1516 C1515 1.400 . S
C1516 C1519 1.386 . S
H1517 C1533 0.930 . S
H1518 C1534 0.931 . S
C1519 H1507 0.929 . S
C1519 C1513 1.390 . S
C1519 C1516 1.386 . S
C1520 C1515 1.490 . S
C1520 C1522 1.395 . S
C1520 C1523 1.403 . S
H1521 C1527 0.930 . S
C1522 H1508 0.930 . S
C1522 C1520 1.395 . S
C1522 C1525 1.403 . S
C1523 C1520 1.403 . S
C1523 C1524 1.524 . S
C1523 C1527 1.400 . S
C1524 H1509 0.960 . S
C1524 H1510 0.960 . S
C1524 H1511 0.960 . S
C1524 C1523 1.524 . S
C1525 C1522 1.403 . S
C1525 C1526 1.392 . S
C1525 C1529 1.495 . S
C1526 C1525 1.392 . S
C1526 C1527 1.385 . S
C1526 C1528 1.478 . S
C1527 H1521 0.930 . S
C1527 C1523 1.400 . S
C1527 C1526 1.385 . S
C1528 C1526 1.478 . S
C1528 C1530 1.381 . S
C1528 C1534 1.383 . S
C1529 C1525 1.495 . S
C1529 H1535 0.959 . S
C1529 H1536 0.961 . S
C1529 H1537 0.960 . S
C1530 C1528 1.381 . S
C1530 C1531 1.394 . S
C1530 H1538 0.930 . S
C1531 C1530 1.394 . S
C1531 C1532 1.383 . S
C1531 H1539 0.929 . S
C1532 C1531 1.383 . S
C1532 C1533 1.377 . S
C1533 H1517 0.930 . S
C1533 C1532 1.377 . S
C1533 C1534 1.379 . S
C1534 H1518 0.931 . S
C1534 C1528 1.383 . S
C1534 C1533 1.379 . S
H1535 C1529 0.959 . S
H1536 C1529 0.961 . S
H1537 C1529 0.960 . S
H1538 C1530 0.930 . S
H1539 C1531 0.929 . S
H1540 C1548 0.929 . S
H1541 C1550 0.930 . S
H1542 C1552 0.930 . S
H1543 C1555 0.929 . S
H1544 C1558 0.930 . S
H1545 C1560 0.960 . S
H1546 C1560 0.960 . S
H1547 C1560 0.960 . S
C1548 H1540 0.929 . S
C1548 C1549 1.377 . S
C1548 C1550 1.384 . S
C1549 C1548 1.377 . S
C1549 C1555 1.390 . S
C1550 H1541 0.930 . S
C1550 C1548 1.384 . S
C1550 C1551 1.372 . S
C1551 C1550 1.372 . S
C1551 C1552 1.400 . S
C1551 C1556 1.490 . S
C1552 H1542 0.930 . S
C1552 C1551 1.400 . S
C1552 C1555 1.386 . S
H1553 C1569 0.930 . S
H1554 C1570 0.931 . S
C1555 H1543 0.929 . S
C1555 C1549 1.390 . S
C1555 C1552 1.386 . S
C1556 C1551 1.490 . S
C1556 C1558 1.395 . S
C1556 C1559 1.403 . S
H1557 C1563 0.930 . S
C1558 H1544 0.930 . S
C1558 C1556 1.395 . S
C1558 C1561 1.403 . S
C1559 C1556 1.403 . S
C1559 C1560 1.524 . S
C1559 C1563 1.400 . S
C1560 H1545 0.960 . S
C1560 H1546 0.960 . S
C1560 H1547 0.960 . S
C1560 C1559 1.524 . S
C1561 C1558 1.403 . S
C1561 C1562 1.392 . S
C1561 C1565 1.495 . S
C1562 C1561 1.392 . S
C1562 C1563 1.385 . S
C1562 C1564 1.478 . S
C1563 H1557 0.930 . S
C1563 C1559 1.400 . S
C1563 C1562 1.385 . S
C1564 C1562 1.478 . S
C1564 C1566 1.381 . S
C1564 C1570 1.383 . S
C1565 C1561 1.495 . S
C1565 H1571 0.959 . S
C1565 H1572 0.961 . S
C1565 H1573 0.960 . S
C1566 C1564 1.381 . S
C1566 C1567 1.394 . S
C1566 H1574 0.930 . S
C1567 C1566 1.394 . S
C1567 C1568 1.383 . S
C1567 H1575 0.929 . S
C1568 C1567 1.383 . S
C1568 C1569 1.377 . S
C1569 H1553 0.930 . S
C1569 C1568 1.377 . S
C1569 C1570 1.379 . S
C1570 H1554 0.931 . S
C1570 C1564 1.383 . S
C1570 C1569 1.379 . S
H1571 C1565 0.959 . S
H1572 C1565 0.961 . S
H1573 C1565 0.960 . S
H1574 C1566 0.930 . S
H1575 C1567 0.929 . S
H1576 C1584 0.929 . S
H1577 C1586 0.930 . S
H1578 C1588 0.930 . S
H1579 C1591 0.929 . S
H1580 C1594 0.930 . S
H1581 C1596 0.960 . S
H1582 C1596 0.960 . S
H1583 C1596 0.960 . S
C1584 H1576 0.929 . S
C1584 C1585 1.377 . S
C1584 C1586 1.384 . S
C1585 C1584 1.377 . S
C1585 C1591 1.390 . S
C1586 H1577 0.930 . S
C1586 C1584 1.384 . S
C1586 C1587 1.372 . S
C1587 C1586 1.372 . S
C1587 C1588 1.400 . S
C1587 C1592 1.490 . S
C1588 H1578 0.930 . S
C1588 C1587 1.400 . S
C1588 C1591 1.386 . S
H1589 C1605 0.930 . S
H1590 C1606 0.931 . S
C1591 H1579 0.929 . S
C1591 C1585 1.390 . S
C1591 C1588 1.386 . S
C1592 C1587 1.490 . S
C1592 C1594 1.395 . S
C1592 C1595 1.403 . S
H1593 C1599 0.930 . S
C1594 H1580 0.930 . S
C1594 C1592 1.395 . S
C1594 C1597 1.403 . S
C1595 C1592 1.403 . S
C1595 C1596 1.524 . S
C1595 C1599 1.400 . S
C1596 H1581 0.960 . S
C1596 H1582 0.960 . S
C1596 H1583 0.960 . S
C1596 C1595 1.524 . S
C1597 C1594 1.403 . S
C1597 C1598 1.392 . S
C1597 C1601 1.495 . S
C1598 C1597 1.392 . S
C1598 C1599 1.385 . S
C1598 C1600 1.478 . S
C1599 H1593 0.930 . S
C1599 C1595 1.400 . S
C1599 C1598 1.385 . S
C1600 C1598 1.478 . S
C1600 C1602 1.381 . S
C1600 C1606 1.383 . S
C1601 C1597 1.495 . S
C1601 H1607 0.959 . S
C1601 H1608 0.961 . S
C1601 H1609 0.960 . S
C1602 C1600 1.381 . S
C1602 C1603 1.394 . S
C1602 H1610 0.930 . S
C1603 C1602 1.394 . S
C1603 C1604 1.383 . S
C1603 H1611 0.929 . S
C1604 C1603 1.383 . S
C1604 C1605 1.377 . S
C1605 H1589 0.930 . S
C1605 C1604 1.377 . S
C1605 C1606 1.379 . S
C1606 H1590 0.931 . S
C1606 C1600 1.383 . S
C1606 C1605 1.379 . S
H1607 C1601 0.959 . S
H1608 C1601 0.961 . S
H1609 C1601 0.960 . S
H1610 C1602 0.930 . S
H1611 C1603 0.929 . S
H1612 C1620 0.929 . S
H1613 C1622 0.930 . S
H1614 C1624 0.930 . S
H1615 C1627 0.929 . S
H1616 C1630 0.930 . S
H1617 C1632 0.960 . S
H1618 C1632 0.960 . S
H1619 C1632 0.960 . S
C1620 H1612 0.929 . S
C1620 C1621 1.377 . S
C1620 C1622 1.384 . S
C1621 C1620 1.377 . S
C1621 C1627 1.390 . S
C1622 H1613 0.930 . S
C1622 C1620 1.384 . S
C1622 C1623 1.372 . S
C1623 C1622 1.372 . S
C1623 C1624 1.400 . S
C1623 C1628 1.490 . S
C1624 H1614 0.930 . S
C1624 C1623 1.400 . S
C1624 C1627 1.386 . S
H1625 C1641 0.930 . S
H1626 C1642 0.931 . S
C1627 H1615 0.929 . S
C1627 C1621 1.390 . S
C1627 C1624 1.386 . S
C1628 C1623 1.490 . S
C1628 C1630 1.395 . S
C1628 C1631 1.403 . S
H1629 C1635 0.930 . S
C1630 H1616 0.930 . S
C1630 C1628 1.395 . S
C1630 C1633 1.403 . S
C1631 C1628 1.403 . S
C1631 C1632 1.524 . S
C1631 C1635 1.400 . S
C1632 H1617 0.960 . S
C1632 H1618 0.960 . S
C1632 H1619 0.960 . S
C1632 C1631 1.524 . S
C1633 C1630 1.403 . S
C1633 C1634 1.392 . S
C1633 C1637 1.495 . S
C1634 C1633 1.392 . S
C1634 C1635 1.385 . S
C1634 C1636 1.478 . S
C1635 H1629 0.930 . S
C1635 C1631 1.400 . S
C1635 C1634 1.385 . S
C1636 C1634 1.478 . S
C1636 C1638 1.381 . S
C1636 C1642 1.383 . S
C1637 C1633 1.495 . S
C1637 H1643 0.959 . S
C1637 H1644 0.961 . S
C1637 H1645 0.960 . S
C1638 C1636 1.381 . S
C1638 C1639 1.394 . S
C1638 H1646 0.930 . S
C1639 C1638 1.394 . S
C1639 C1640 1.383 . S
C1639 H1647 0.929 . S
C1640 C1639 1.383 . S
C1640 C1641 1.377 . S
C1641 H1625 0.930 . S
C1641 C1640 1.377 . S
C1641 C1642 1.379 . S
C1642 H1626 0.931 . S
C1642 C1636 1.383 . S
C1642 C1641 1.379 . S
H1643 C1637 0.959 . S
H1644 C1637 0.961 . S
H1645 C1637 0.960 . S
H1646 C1638 0.930 . S
H1647 C1639 0.929 . S
H1648 C1656 0.929 . S
H1649 C1658 0.930 . S
H1650 C1660 0.930 . S
H1651 C1663 0.929 . S
H1652 C1666 0.930 . S
H1653 C1668 0.960 . S
H1654 C1668 0.960 . S
H1655 C1668 0.960 . S
C1656 H1648 0.929 . S
C1656 C1657 1.377 . S
C1656 C1658 1.384 . S
C1657 C1656 1.377 . S
C1657 C1663 1.390 . S
C1658 H1649 0.930 . S
C1658 C1656 1.384 . S
C1658 C1659 1.372 . S
C1659 C1658 1.372 . S
C1659 C1660 1.400 . S
C1659 C1664 1.490 . S
C1660 H1650 0.930 . S
C1660 C1659 1.400 . S
C1660 C1663 1.386 . S
H1661 C1677 0.930 . S
H1662 C1678 0.931 . S
C1663 H1651 0.929 . S
C1663 C1657 1.390 . S
C1663 C1660 1.386 . S
C1664 C1659 1.490 . S
C1664 C1666 1.395 . S
C1664 C1667 1.403 . S
H1665 C1671 0.930 . S
C1666 H1652 0.930 . S
C1666 C1664 1.395 . S
C1666 C1669 1.403 . S
C1667 C1664 1.403 . S
C1667 C1668 1.524 . S
C1667 C1671 1.400 . S
C1668 H1653 0.960 . S
C1668 H1654 0.960 . S
C1668 H1655 0.960 . S
C1668 C1667 1.524 . S
C1669 C1666 1.403 . S
C1669 C1670 1.392 . S
C1669 C1673 1.495 . S
C1670 C1669 1.392 . S
C1670 C1671 1.385 . S
C1670 C1672 1.478 . S
C1671 H1665 0.930 . S
C1671 C1667 1.400 . S
C1671 C1670 1.385 . S
C1672 C1670 1.478 . S
C1672 C1674 1.381 . S
C1672 C1678 1.383 . S
C1673 C1669 1.495 . S
C1673 H1679 0.959 . S
C1673 H1680 0.961 . S
C1673 H1681 0.960 . S
C1674 C1672 1.381 . S
C1674 C1675 1.394 . S
C1674 H1682 0.930 . S
C1675 C1674 1.394 . S
C1675 C1676 1.383 . S
C1675 H1683 0.929 . S
C1676 C1675 1.383 . S
C1676 C1677 1.377 . S
C1677 H1661 0.930 . S
C1677 C1676 1.377 . S
C1677 C1678 1.379 . S
C1678 H1662 0.931 . S
C1678 C1672 1.383 . S
C1678 C1677 1.379 . S
H1679 C1673 0.959 . S
H1680 C1673 0.961 . S
H1681 C1673 0.960 . S
H1682 C1674 0.930 . S
H1683 C1675 0.929 . S
H1684 C1692 0.929 . S
H1685 C1694 0.930 . S
H1686 C1696 0.930 . S
H1687 C1699 0.929 . S
H1688 C1702 0.930 . S
H1689 C1704 0.960 . S
H1690 C1704 0.960 . S
H1691 C1704 0.960 . S
C1692 H1684 0.929 . S
C1692 C1693 1.377 . S
C1692 C1694 1.384 . S
C1693 C1692 1.377 . S
C1693 C1699 1.390 . S
C1694 H1685 0.930 . S
C1694 C1692 1.384 . S
C1694 C1695 1.372 . S
C1695 C1694 1.372 . S
C1695 C1696 1.400 . S
C1695 C1700 1.490 . S
C1696 H1686 0.930 . S
C1696 C1695 1.400 . S
C1696 C1699 1.386 . S
H1697 C1713 0.930 . S
H1698 C1714 0.931 . S
C1699 H1687 0.929 . S
C1699 C1693 1.390 . S
C1699 C1696 1.386 . S
C1700 C1695 1.490 . S
C1700 C1702 1.395 . S
C1700 C1703 1.403 . S
H1701 C1707 0.930 . S
C1702 H1688 0.930 . S
C1702 C1700 1.395 . S
C1702 C1705 1.403 . S
C1703 C1700 1.403 . S
C1703 C1704 1.524 . S
C1703 C1707 1.400 . S
C1704 H1689 0.960 . S
C1704 H1690 0.960 . S
C1704 H1691 0.960 . S
C1704 C1703 1.524 . S
C1705 C1702 1.403 . S
C1705 C1706 1.392 . S
C1705 C1709 1.495 . S
C1706 C1705 1.392 . S
C1706 C1707 1.385 . S
C1706 C1708 1.478 . S
C1707 H1701 0.930 . S
C1707 C1703 1.400 . S
C1707 C1706 1.385 . S
C1708 C1706 1.478 . S
C1708 C1710 1.381 . S
C1708 C1714 1.383 . S
C1709 C1705 1.495 . S
C1709 H1715 0.959 . S
C1709 H1716 0.961 . S
C1709 H1717 0.960 . S
C1710 C1708 1.381 . S
C1710 C1711 1.394 . S
C1710 H1718 0.930 . S
C1711 C1710 1.394 . S
C1711 C1712 1.383 . S
C1711 H1719 0.929 . S
C1712 C1711 1.383 . S
C1712 C1713 1.377 . S
C1713 H1697 0.930 . S
C1713 C1712 1.377 . S
C1713 C1714 1.379 . S
C1714 H1698 0.931 . S
C1714 C1708 1.383 . S
C1714 C1713 1.379 . S
H1715 C1709 0.959 . S
H1716 C1709 0.961 . S
H1717 C1709 0.960 . S
H1718 C1710 0.930 . S
H1719 C1711 0.929 . S
H1720 C1728 0.929 . S
H1721 C1730 0.930 . S
H1722 C1732 0.930 . S
H1723 C1735 0.929 . S
H1724 C1738 0.930 . S
H1725 C1740 0.960 . S
H1726 C1740 0.960 . S
H1727 C1740 0.960 . S
C1728 H1720 0.929 . S
C1728 C1729 1.377 . S
C1728 C1730 1.384 . S
C1729 C1728 1.377 . S
C1729 C1735 1.390 . S
C1730 H1721 0.930 . S
C1730 C1728 1.384 . S
C1730 C1731 1.372 . S
C1731 C1730 1.372 . S
C1731 C1732 1.400 . S
C1731 C1736 1.490 . S
C1732 H1722 0.930 . S
C1732 C1731 1.400 . S
C1732 C1735 1.386 . S
H1733 C1749 0.930 . S
H1734 C1750 0.931 . S
C1735 H1723 0.929 . S
C1735 C1729 1.390 . S
C1735 C1732 1.386 . S
C1736 C1731 1.490 . S
C1736 C1738 1.395 . S
C1736 C1739 1.403 . S
H1737 C1743 0.930 . S
C1738 H1724 0.930 . S
C1738 C1736 1.395 . S
C1738 C1741 1.403 . S
C1739 C1736 1.403 . S
C1739 C1740 1.524 . S
C1739 C1743 1.400 . S
C1740 H1725 0.960 . S
C1740 H1726 0.960 . S
C1740 H1727 0.960 . S
C1740 C1739 1.524 . S
C1741 C1738 1.403 . S
C1741 C1742 1.392 . S
C1741 C1745 1.495 . S
C1742 C1741 1.392 . S
C1742 C1743 1.385 . S
C1742 C1744 1.478 . S
C1743 H1737 0.930 . S
C1743 C1739 1.400 . S
C1743 C1742 1.385 . S
C1744 C1742 1.478 . S
C1744 C1746 1.381 . S
C1744 C1750 1.383 . S
C1745 C1741 1.495 . S
C1745 H1751 0.959 . S
C1745 H1752 0.961 . S
C1745 H1753 0.960 . S
C1746 C1744 1.381 . S
C1746 C1747 1.394 . S
C1746 H1754 0.930 . S
C1747 C1746 1.394 . S
C1747 C1748 1.383 . S
C1747 H1755 0.929 . S
C1748 C1747 1.383 . S
C1748 C1749 1.377 . S
C1749 H1733 0.930 . S
C1749 C1748 1.377 . S
C1749 C1750 1.379 . S
C1750 H1734 0.931 . S
C1750 C1744 1.383 . S
C1750 C1749 1.379 . S
H1751 C1745 0.959 . S
H1752 C1745 0.961 . S
H1753 C1745 0.960 . S
H1754 C1746 0.930 . S
H1755 C1747 0.929 . S
H1756 C1764 0.929 . S
H1757 C1766 0.930 . S
H1758 C1768 0.930 . S
H1759 C1771 0.929 . S
H1760 C1774 0.930 . S
H1761 C1776 0.960 . S
H1762 C1776 0.960 . S
H1763 C1776 0.960 . S
C1764 H1756 0.929 . S
C1764 C1765 1.377 . S
C1764 C1766 1.384 . S
C1765 C1764 1.377 . S
C1765 C1771 1.390 . S
C1766 H1757 0.930 . S
C1766 C1764 1.384 . S
C1766 C1767 1.372 . S
C1767 C1766 1.372 . S
C1767 C1768 1.400 . S
C1767 C1772 1.490 . S
C1768 H1758 0.930 . S
C1768 C1767 1.400 . S
C1768 C1771 1.386 . S
H1769 C1785 0.930 . S
H1770 C1786 0.931 . S
C1771 H1759 0.929 . S
C1771 C1765 1.390 . S
C1771 C1768 1.386 . S
C1772 C1767 1.490 . S
C1772 C1774 1.395 . S
C1772 C1775 1.403 . S
H1773 C1779 0.930 . S
C1774 H1760 0.930 . S
C1774 C1772 1.395 . S
C1774 C1777 1.403 . S
C1775 C1772 1.403 . S
C1775 C1776 1.524 . S
C1775 C1779 1.400 . S
C1776 H1761 0.960 . S
C1776 H1762 0.960 . S
C1776 H1763 0.960 . S
C1776 C1775 1.524 . S
C1777 C1774 1.403 . S
C1777 C1778 1.392 . S
C1777 C1781 1.495 . S
C1778 C1777 1.392 . S
C1778 C1779 1.385 . S
C1778 C1780 1.478 . S
C1779 H1773 0.930 . S
C1779 C1775 1.400 . S
C1779 C1778 1.385 . S
C1780 C1778 1.478 . S
C1780 C1782 1.381 . S
C1780 C1786 1.383 . S
C1781 C1777 1.495 . S
C1781 H1787 0.959 . S
C1781 H1788 0.961 . S
C1781 H1789 0.960 . S
C1782 C1780 1.381 . S
C1782 C1783 1.394 . S
C1782 H1790 0.930 . S
C1783 C1782 1.394 . S
C1783 C1784 1.383 . S
C1783 H1791 0.929 . S
C1784 C1783 1.383 . S
C1784 C1785 1.377 . S
C1785 H1769 0.930 . S
C1785 C1784 1.377 . S
C1785 C1786 1.379 . S
C1786 H1770 0.931 . S
C1786 C1780 1.383 . S
C1786 C1785 1.379 . S
H1787 C1781 0.959 . S
H1788 C1781 0.961 . S
H1789 C1781 0.960 . S
H1790 C1782 0.930 . S
H1791 C1783 0.929 . S
H1792 C1800 0.929 . S
H1793 C1802 0.930 . S
H1794 C1804 0.930 . S
H1795 C1807 0.929 . S
H1796 C1810 0.930 . S
H1797 C1812 0.960 . S
H1798 C1812 0.960 . S
H1799 C1812 0.960 . S
C1800 H1792 0.929 . S
C1800 C1801 1.377 . S
C1800 C1802 1.384 . S
C1801 C1800 1.377 . S
C1801 C1807 1.390 . S
C1802 H1793 0.930 . S
C1802 C1800 1.384 . S
C1802 C1803 1.372 . S
C1803 C1802 1.372 . S
C1803 C1804 1.400 . S
C1803 C1808 1.490 . S
C1804 H1794 0.930 . S
C1804 C1803 1.400 . S
C1804 C1807 1.386 . S
H1805 C1821 0.930 . S
H1806 C1822 0.931 . S
C1807 H1795 0.929 . S
C1807 C1801 1.390 . S
C1807 C1804 1.386 . S
C1808 C1803 1.490 . S
C1808 C1810 1.395 . S
C1808 C1811 1.403 . S
H1809 C1815 0.930 . S
C1810 H1796 0.930 . S
C1810 C1808 1.395 . S
C1810 C1813 1.403 . S
C1811 C1808 1.403 . S
C1811 C1812 1.524 . S
C1811 C1815 1.400 . S
C1812 H1797 0.960 . S
C1812 H1798 0.960 . S
C1812 H1799 0.960 . S
C1812 C1811 1.524 . S
C1813 C1810 1.403 . S
C1813 C1814 1.392 . S
C1813 C1817 1.495 . S
C1814 C1813 1.392 . S
C1814 C1815 1.385 . S
C1814 C1816 1.478 . S
C1815 H1809 0.930 . S
C1815 C1811 1.400 . S
C1815 C1814 1.385 . S
C1816 C1814 1.478 . S
C1816 C1818 1.381 . S
C1816 C1822 1.383 . S
C1817 C1813 1.495 . S
C1817 H1823 0.959 . S
C1817 H1824 0.961 . S
C1817 H1825 0.960 . S
C1818 C1816 1.381 . S
C1818 C1819 1.394 . S
C1818 H1826 0.930 . S
C1819 C1818 1.394 . S
C1819 C1820 1.383 . S
C1819 H1827 0.929 . S
C1820 C1819 1.383 . S
C1820 C1821 1.377 . S
C1821 H1805 0.930 . S
C1821 C1820 1.377 . S
C1821 C1822 1.379 . S
C1822 H1806 0.931 . S
C1822 C1816 1.383 . S
C1822 C1821 1.379 . S
H1823 C1817 0.959 . S
H1824 C1817 0.961 . S
H1825 C1817 0.960 . S
H1826 C1818 0.930 . S
H1827 C1819 0.929 . S
H1828 C1836 0.929 . S
H1829 C1838 0.930 . S
H1830 C1840 0.930 . S
H1831 C1843 0.929 . S
H1832 C1846 0.930 . S
H1833 C1848 0.960 . S
H1834 C1848 0.960 . S
H1835 C1848 0.960 . S
C1836 H1828 0.929 . S
C1836 C1837 1.377 . S
C1836 C1838 1.384 . S
C1837 C1836 1.377 . S
C1837 C1843 1.390 . S
C1838 H1829 0.930 . S
C1838 C1836 1.384 . S
C1838 C1839 1.372 . S
C1839 C1838 1.372 . S
C1839 C1840 1.400 . S
C1839 C1844 1.490 . S
C1840 H1830 0.930 . S
C1840 C1839 1.400 . S
C1840 C1843 1.386 . S
H1841 C1857 0.930 . S
H1842 C1858 0.931 . S
C1843 H1831 0.929 . S
C1843 C1837 1.390 . S
C1843 C1840 1.386 . S
C1844 C1839 1.490 . S
C1844 C1846 1.395 . S
C1844 C1847 1.403 . S
H1845 C1851 0.930 . S
C1846 H1832 0.930 . S
C1846 C1844 1.395 . S
C1846 C1849 1.403 . S
C1847 C1844 1.403 . S
C1847 C1848 1.524 . S
C1847 C1851 1.400 . S
C1848 H1833 0.960 . S
C1848 H1834 0.960 . S
C1848 H1835 0.960 . S
C1848 C1847 1.524 . S
C1849 C1846 1.403 . S
C1849 C1850 1.392 . S
C1849 C1853 1.495 . S
C1850 C1849 1.392 . S
C1850 C1851 1.385 . S
C1850 C1852 1.478 . S
C1851 H1845 0.930 . S
C1851 C1847 1.400 . S
C1851 C1850 1.385 . S
C1852 C1850 1.478 . S
C1852 C1854 1.381 . S
C1852 C1858 1.383 . S
C1853 C1849 1.495 . S
C1853 H1859 0.959 . S
C1853 H1860 0.961 . S
C1853 H1861 0.960 . S
C1854 C1852 1.381 . S
C1854 C1855 1.394 . S
C1854 H1862 0.930 . S
C1855 C1854 1.394 . S
C1855 C1856 1.383 . S
C1855 H1863 0.929 . S
C1856 C1855 1.383 . S
C1856 C1857 1.377 . S
C1857 H1841 0.930 . S
C1857 C1856 1.377 . S
C1857 C1858 1.379 . S
C1858 H1842 0.931 . S
C1858 C1852 1.383 . S
C1858 C1857 1.379 . S
H1859 C1853 0.959 . S
H1860 C1853 0.961 . S
H1861 C1853 0.960 . S
H1862 C1854 0.930 . S
H1863 C1855 0.929 . S
H1864 C1872 0.929 . S
H1865 C1874 0.930 . S
H1866 C1876 0.930 . S
H1867 C1879 0.929 . S
H1868 C1882 0.930 . S
H1869 C1884 0.960 . S
H1870 C1884 0.960 . S
H1871 C1884 0.960 . S
C1872 H1864 0.929 . S
C1872 C1873 1.377 . S
C1872 C1874 1.384 . S
C1873 C1872 1.377 . S
C1873 C1879 1.390 . S
C1874 H1865 0.930 . S
C1874 C1872 1.384 . S
C1874 C1875 1.372 . S
C1875 C1874 1.372 . S
C1875 C1876 1.400 . S
C1875 C1880 1.490 . S
C1876 H1866 0.930 . S
C1876 C1875 1.400 . S
C1876 C1879 1.386 . S
H1877 C1893 0.930 . S
H1878 C1894 0.931 . S
C1879 H1867 0.929 . S
C1879 C1873 1.390 . S
C1879 C1876 1.386 . S
C1880 C1875 1.490 . S
C1880 C1882 1.395 . S
C1880 C1883 1.403 . S
H1881 C1887 0.930 . S
C1882 H1868 0.930 . S
C1882 C1880 1.395 . S
C1882 C1885 1.403 . S
C1883 C1880 1.403 . S
C1883 C1884 1.524 . S
C1883 C1887 1.400 . S
C1884 H1869 0.960 . S
C1884 H1870 0.960 . S
C1884 H1871 0.960 . S
C1884 C1883 1.524 . S
C1885 C1882 1.403 . S
C1885 C1886 1.392 . S
C1885 C1889 1.495 . S
C1886 C1885 1.392 . S
C1886 C1887 1.385 . S
C1886 C1888 1.478 . S
C1887 H1881 0.930 . S
C1887 C1883 1.400 . S
C1887 C1886 1.385 . S
C1888 C1886 1.478 . S
C1888 C1890 1.381 . S
C1888 C1894 1.383 . S
C1889 C1885 1.495 . S
C1889 H1895 0.959 . S
C1889 H1896 0.961 . S
C1889 H1897 0.960 . S
C1890 C1888 1.381 . S
C1890 C1891 1.394 . S
C1890 H1898 0.930 . S
C1891 C1890 1.394 . S
C1891 C1892 1.383 . S
C1891 H1899 0.929 . S
C1892 C1891 1.383 . S
C1892 C1893 1.377 . S
C1893 H1877 0.930 . S
C1893 C1892 1.377 . S
C1893 C1894 1.379 . S
C1894 H1878 0.931 . S
C1894 C1888 1.383 . S
C1894 C1893 1.379 . S
H1895 C1889 0.959 . S
H1896 C1889 0.961 . S
H1897 C1889 0.960 . S
H1898 C1890 0.930 . S
H1899 C1891 0.929 . S
H1900 C1908 0.929 . S
H1901 C1910 0.930 . S
H1902 C1912 0.930 . S
H1903 C1915 0.931 . S
H1904 C1918 0.930 . S
H1905 C1920 0.960 . S
H1906 C1920 0.960 . S
H1907 C1920 0.960 . S
C1908 H1900 0.929 . S
C1908 C1909 1.377 . S
C1908 C1910 1.384 . S
C1909 C1908 1.377 . S
C1909 C1915 1.390 . S
C1910 H1901 0.930 . S
C1910 C1908 1.384 . S
C1910 C1911 1.372 . S
C1911 C1910 1.372 . S
C1911 C1912 1.400 . S
C1911 C1916 1.490 . S
C1912 H1902 0.930 . S
C1912 C1911 1.400 . S
C1912 C1915 1.386 . S
H1913 C1929 0.930 . S
H1914 C1930 0.931 . S
C1915 H1903 0.931 . S
C1915 C1909 1.390 . S
C1915 C1912 1.386 . S
C1916 C1911 1.490 . S
C1916 C1918 1.395 . S
C1916 C1919 1.403 . S
H1917 C1923 0.930 . S
C1918 H1904 0.930 . S
C1918 C1916 1.395 . S
C1918 C1921 1.403 . S
C1919 C1916 1.403 . S
C1919 C1920 1.524 . S
C1919 C1923 1.400 . S
C1920 H1905 0.960 . S
C1920 H1906 0.960 . S
C1920 H1907 0.960 . S
C1920 C1919 1.524 . S
C1921 C1918 1.403 . S
C1921 C1922 1.392 . S
C1921 C1925 1.495 . S
C1922 C1921 1.392 . S
C1922 C1923 1.385 . S
C1922 C1924 1.478 . S
C1923 H1917 0.930 . S
C1923 C1919 1.400 . S
C1923 C1922 1.385 . S
C1924 C1922 1.478 . S
C1924 C1926 1.381 . S
C1924 C1930 1.383 . S
C1925 C1921 1.495 . S
C1925 H1931 0.959 . S
C1925 H1932 0.961 . S
C1925 H1933 0.960 . S
C1926 C1924 1.381 . S
C1926 C1927 1.394 . S
C1926 H1934 0.930 . S
C1927 C1926 1.394 . S
C1927 C1928 1.383 . S
C1927 H1935 0.929 . S
C1928 C1927 1.383 . S
C1928 C1929 1.377 . S
C1929 H1913 0.930 . S
C1929 C1928 1.377 . S
C1929 C1930 1.379 . S
C1930 H1914 0.931 . S
C1930 C1924 1.383 . S
C1930 C1929 1.379 . S
H1931 C1925 0.959 . S
H1932 C1925 0.961 . S
H1933 C1925 0.960 . S
H1934 C1926 0.930 . S
H1935 C1927 0.929 . S
H1936 C1944 0.929 . S
H1937 C1946 0.930 . S
H1938 C1948 0.930 . S
H1939 C1951 0.929 . S
H1940 C1954 0.930 . S
H1941 C1956 0.960 . S
H1942 C1956 0.960 . S
H1943 C1956 0.960 . S
C1944 H1936 0.929 . S
C1944 C1945 1.377 . S
C1944 C1946 1.384 . S
C1945 C1944 1.377 . S
C1945 C1951 1.390 . S
C1946 H1937 0.930 . S
C1946 C1944 1.384 . S
C1946 C1947 1.372 . S
C1947 C1946 1.372 . S
C1947 C1948 1.400 . S
C1947 C1952 1.490 . S
C1948 H1938 0.930 . S
C1948 C1947 1.400 . S
C1948 C1951 1.386 . S
H1949 C1965 0.930 . S
H1950 C1966 0.931 . S
C1951 H1939 0.929 . S
C1951 C1945 1.390 . S
C1951 C1948 1.386 . S
C1952 C1947 1.490 . S
C1952 C1954 1.395 . S
C1952 C1955 1.403 . S
H1953 C1959 0.930 . S
C1954 H1940 0.930 . S
C1954 C1952 1.395 . S
C1954 C1957 1.403 . S
C1955 C1952 1.403 . S
C1955 C1956 1.524 . S
C1955 C1959 1.400 . S
C1956 H1941 0.960 . S
C1956 H1942 0.960 . S
C1956 H1943 0.960 . S
C1956 C1955 1.524 . S
C1957 C1954 1.403 . S
C1957 C1958 1.392 . S
C1957 C1961 1.495 . S
C1958 C1957 1.392 . S
C1958 C1959 1.385 . S
C1958 C1960 1.478 . S
C1959 H1953 0.930 . S
C1959 C1955 1.400 . S
C1959 C1958 1.385 . S
C1960 C1958 1.478 . S
C1960 C1962 1.381 . S
C1960 C1966 1.383 . S
C1961 C1957 1.495 . S
C1961 H1967 0.959 . S
C1961 H1968 0.961 . S
C1961 H1969 0.960 . S
C1962 C1960 1.381 . S
C1962 C1963 1.394 . S
C1962 H1970 0.930 . S
C1963 C1962 1.394 . S
C1963 C1964 1.383 . S
C1963 H1971 0.929 . S
C1964 C1963 1.383 . S
C1964 C1965 1.377 . S
C1965 H1949 0.930 . S
C1965 C1964 1.377 . S
C1965 C1966 1.379 . S
C1966 H1950 0.931 . S
C1966 C1960 1.383 . S
C1966 C1965 1.379 . S
H1967 C1961 0.959 . S
H1968 C1961 0.961 . S
H1969 C1961 0.960 . S
H1970 C1962 0.930 . S
H1971 C1963 0.929 . S
H1972 C1980 0.929 . S
H1973 C1982 0.930 . S
H1974 C1984 0.930 . S
H1975 C1987 0.929 . S
H1976 C1990 0.930 . S
H1977 C1992 0.960 . S
H1978 C1992 0.960 . S
H1979 C1992 0.960 . S
C1980 H1972 0.929 . S
C1980 C1981 1.377 . S
C1980 C1982 1.384 . S
C1981 C1980 1.377 . S
C1981 C1987 1.390 . S
C1982 H1973 0.930 . S
C1982 C1980 1.384 . S
C1982 C1983 1.372 . S
C1983 C1982 1.372 . S
C1983 C1984 1.400 . S
C1983 C1988 1.490 . S
C1984 H1974 0.930 . S
C1984 C1983 1.400 . S
C1984 C1987 1.386 . S
H1985 C2001 0.930 . S
H1986 C2002 0.931 . S
C1987 H1975 0.929 . S
C1987 C1981 1.390 . S
C1987 C1984 1.386 . S
C1988 C1983 1.490 . S
C1988 C1990 1.395 . S
C1988 C1991 1.403 . S
H1989 C1995 0.930 . S
C1990 H1976 0.930 . S
C1990 C1988 1.395 . S
C1990 C1993 1.403 . S
C1991 C1988 1.403 . S
C1991 C1992 1.524 . S
C1991 C1995 1.400 . S
C1992 H1977 0.960 . S
C1992 H1978 0.960 . S
C1992 H1979 0.960 . S
C1992 C1991 1.524 . S
C1993 C1990 1.403 . S
C1993 C1994 1.392 . S
C1993 C1997 1.495 . S
C1994 C1993 1.392 . S
C1994 C1995 1.385 . S
C1994 C1996 1.478 . S
C1995 H1989 0.930 . S
C1995 C1991 1.400 . S
C1995 C1994 1.385 . S
C1996 C1994 1.478 . S
C1996 C1998 1.381 . S
C1996 C2002 1.383 . S
C1997 C1993 1.495 . S
C1997 H2003 0.959 . S
C1997 H2004 0.961 . S
C1997 H2005 0.960 . S
C1998 C1996 1.381 . S
C1998 C1999 1.394 . S
C1998 H2006 0.930 . S
C1999 C1998 1.394 . S
C1999 C2000 1.383 . S
C1999 H2007 0.929 . S
C2000 C1999 1.383 . S
C2000 C2001 1.377 . S
C2001 H1985 0.930 . S
C2001 C2000 1.377 . S
C2001 C2002 1.379 . S
C2002 H1986 0.931 . S
C2002 C1996 1.383 . S
C2002 C2001 1.379 . S
H2003 C1997 0.959 . S
H2004 C1997 0.961 . S
H2005 C1997 0.960 . S
H2006 C1998 0.930 . S
H2007 C1999 0.929 . S
H2008 C2016 0.929 . S
H2009 C2018 0.930 . S
H2010 C2020 0.930 . S
H2011 C2023 0.929 . S
H2012 C2026 0.930 . S
H2013 C2028 0.960 . S
H2014 C2028 0.960 . S
H2015 C2028 0.960 . S
C2016 H2008 0.929 . S
C2016 C2017 1.377 . S
C2016 C2018 1.384 . S
C2017 C2016 1.377 . S
C2017 C2023 1.390 . S
C2018 H2009 0.930 . S
C2018 C2016 1.384 . S
C2018 C2019 1.372 . S
C2019 C2018 1.372 . S
C2019 C2020 1.400 . S
C2019 C2024 1.490 . S
C2020 H2010 0.930 . S
C2020 C2019 1.400 . S
C2020 C2023 1.386 . S
H2021 C2037 0.930 . S
H2022 C2038 0.931 . S
C2023 H2011 0.929 . S
C2023 C2017 1.390 . S
C2023 C2020 1.386 . S
C2024 C2019 1.490 . S
C2024 C2026 1.395 . S
C2024 C2027 1.403 . S
H2025 C2031 0.930 . S
C2026 H2012 0.930 . S
C2026 C2024 1.395 . S
C2026 C2029 1.403 . S
C2027 C2024 1.403 . S
C2027 C2028 1.524 . S
C2027 C2031 1.400 . S
C2028 H2013 0.960 . S
C2028 H2014 0.960 . S
C2028 H2015 0.960 . S
C2028 C2027 1.524 . S
C2029 C2026 1.403 . S
C2029 C2030 1.392 . S
C2029 C2033 1.495 . S
C2030 C2029 1.392 . S
C2030 C2031 1.385 . S
C2030 C2032 1.478 . S
C2031 H2025 0.930 . S
C2031 C2027 1.400 . S
C2031 C2030 1.385 . S
C2032 C2030 1.478 . S
C2032 C2034 1.381 . S
C2032 C2038 1.383 . S
C2033 C2029 1.495 . S
C2033 H2039 0.959 . S
C2033 H2040 0.961 . S
C2033 H2041 0.960 . S
C2034 C2032 1.381 . S
C2034 C2035 1.394 . S
C2034 H2042 0.930 . S
C2035 C2034 1.394 . S
C2035 C2036 1.383 . S
C2035 H2043 0.929 . S
C2036 C2035 1.383 . S
C2036 C2037 1.377 . S
C2037 H2021 0.930 . S
C2037 C2036 1.377 . S
C2037 C2038 1.379 . S
C2038 H2022 0.931 . S
C2038 C2032 1.383 . S
C2038 C2037 1.379 . S
H2039 C2033 0.959 . S
H2040 C2033 0.961 . S
H2041 C2033 0.960 . S
H2042 C2034 0.930 . S
H2043 C2035 0.929 . S
H2044 C2052 0.929 . S
H2045 C2054 0.930 . S
H2046 C2056 0.930 . S
H2047 C2059 0.929 . S
H2048 C2062 0.930 . S
H2049 C2064 0.960 . S
H2050 C2064 0.960 . S
H2051 C2064 0.960 . S
C2052 H2044 0.929 . S
C2052 C2053 1.377 . S
C2052 C2054 1.384 . S
C2053 C2052 1.377 . S
C2053 C2059 1.390 . S
C2054 H2045 0.930 . S
C2054 C2052 1.384 . S
C2054 C2055 1.372 . S
C2055 C2054 1.372 . S
C2055 C2056 1.400 . S
C2055 C2060 1.490 . S
C2056 H2046 0.930 . S
C2056 C2055 1.400 . S
C2056 C2059 1.386 . S
H2057 C2073 0.930 . S
H2058 C2074 0.931 . S
C2059 H2047 0.929 . S
C2059 C2053 1.390 . S
C2059 C2056 1.386 . S
C2060 C2055 1.490 . S
C2060 C2062 1.395 . S
C2060 C2063 1.403 . S
H2061 C2067 0.930 . S
C2062 H2048 0.930 . S
C2062 C2060 1.395 . S
C2062 C2065 1.403 . S
C2063 C2060 1.403 . S
C2063 C2064 1.524 . S
C2063 C2067 1.400 . S
C2064 H2049 0.960 . S
C2064 H2050 0.960 . S
C2064 H2051 0.960 . S
C2064 C2063 1.524 . S
C2065 C2062 1.403 . S
C2065 C2066 1.392 . S
C2065 C2069 1.495 . S
C2066 C2065 1.392 . S
C2066 C2067 1.385 . S
C2066 C2068 1.478 . S
C2067 H2061 0.930 . S
C2067 C2063 1.400 . S
C2067 C2066 1.385 . S
C2068 C2066 1.478 . S
C2068 C2070 1.381 . S
C2068 C2074 1.383 . S
C2069 C2065 1.495 . S
C2069 H2075 0.959 . S
C2069 H2076 0.961 . S
C2069 H2077 0.960 . S
C2070 C2068 1.381 . S
C2070 C2071 1.394 . S
C2070 H2078 0.930 . S
C2071 C2070 1.394 . S
C2071 C2072 1.383 . S
C2071 H2079 0.929 . S
C2072 C2071 1.383 . S
C2072 C2073 1.377 . S
C2073 H2057 0.930 . S
C2073 C2072 1.377 . S
C2073 C2074 1.379 . S
C2074 H2058 0.931 . S
C2074 C2068 1.383 . S
C2074 C2073 1.379 . S
H2075 C2069 0.959 . S
H2076 C2069 0.961 . S
H2077 C2069 0.960 . S
H2078 C2070 0.930 . S
H2079 C2071 0.929 . S
H2080 C2088 0.929 . S
H2081 C2090 0.930 . S
H2082 C2092 0.930 . S
H2083 C2095 0.929 . S
H2084 C2098 0.930 . S
H2085 C2100 0.960 . S
H2086 C2100 0.960 . S
H2087 C2100 0.960 . S
C2088 H2080 0.929 . S
C2088 C2089 1.377 . S
C2088 C2090 1.384 . S
C2089 C2088 1.377 . S
C2089 C2095 1.390 . S
C2090 H2081 0.930 . S
C2090 C2088 1.384 . S
C2090 C2091 1.372 . S
C2091 C2090 1.372 . S
C2091 C2092 1.400 . S
C2091 C2096 1.490 . S
C2092 H2082 0.930 . S
C2092 C2091 1.400 . S
C2092 C2095 1.386 . S
H2093 C2109 0.930 . S
H2094 C2110 0.931 . S
C2095 H2083 0.929 . S
C2095 C2089 1.390 . S
C2095 C2092 1.386 . S
C2096 C2091 1.490 . S
C2096 C2098 1.395 . S
C2096 C2099 1.403 . S
H2097 C2103 0.930 . S
C2098 H2084 0.930 . S
C2098 C2096 1.395 . S
C2098 C2101 1.403 . S
C2099 C2096 1.403 . S
C2099 C2100 1.524 . S
C2099 C2103 1.400 . S
C2100 H2085 0.960 . S
C2100 H2086 0.960 . S
C2100 H2087 0.960 . S
C2100 C2099 1.524 . S
C2101 C2098 1.403 . S
C2101 C2102 1.392 . S
C2101 C2105 1.495 . S
C2102 C2101 1.392 . S
C2102 C2103 1.385 . S
C2102 C2104 1.478 . S
C2103 H2097 0.930 . S
C2103 C2099 1.400 . S
C2103 C2102 1.385 . S
C2104 C2102 1.478 . S
C2104 C2106 1.381 . S
C2104 C2110 1.383 . S
C2105 C2101 1.495 . S
C2105 H2111 0.959 . S
C2105 H2112 0.961 . S
C2105 H2113 0.960 . S
C2106 C2104 1.381 . S
C2106 C2107 1.394 . S
C2106 H2114 0.930 . S
C2107 C2106 1.394 . S
C2107 C2108 1.383 . S
C2107 H2115 0.929 . S
C2108 C2107 1.383 . S
C2108 C2109 1.377 . S
C2109 H2093 0.930 . S
C2109 C2108 1.377 . S
C2109 C2110 1.379 . S
C2110 H2094 0.931 . S
C2110 C2104 1.383 . S
C2110 C2109 1.379 . S
H2111 C2105 0.959 . S
H2112 C2105 0.961 . S
H2113 C2105 0.960 . S
H2114 C2106 0.930 . S
H2115 C2107 0.929 . S
H2116 C2124 0.929 . S
H2117 C2126 0.930 . S
H2118 C2128 0.930 . S
H2119 C2131 0.929 . S
H2120 C2134 0.930 . S
H2121 C2136 0.960 . S
H2122 C2136 0.960 . S
H2123 C2136 0.960 . S
C2124 H2116 0.929 . S
C2124 C2125 1.377 . S
C2124 C2126 1.384 . S
C2125 C2124 1.377 . S
C2125 C2131 1.390 . S
C2126 H2117 0.930 . S
C2126 C2124 1.384 . S
C2126 C2127 1.372 . S
C2127 C2126 1.372 . S
C2127 C2128 1.400 . S
C2127 C2132 1.490 . S
C2128 H2118 0.930 . S
C2128 C2127 1.400 . S
C2128 C2131 1.386 . S
H2129 C2145 0.930 . S
H2130 C2146 0.931 . S
C2131 H2119 0.929 . S
C2131 C2125 1.390 . S
C2131 C2128 1.386 . S
C2132 C2127 1.490 . S
C2132 C2134 1.395 . S
C2132 C2135 1.403 . S
H2133 C2139 0.930 . S
C2134 H2120 0.930 . S
C2134 C2132 1.395 . S
C2134 C2137 1.403 . S
C2135 C2132 1.403 . S
C2135 C2136 1.524 . S
C2135 C2139 1.400 . S
C2136 H2121 0.960 . S
C2136 H2122 0.960 . S
C2136 H2123 0.960 . S
C2136 C2135 1.524 . S
C2137 C2134 1.403 . S
C2137 C2138 1.392 . S
C2137 C2141 1.495 . S
C2138 C2137 1.392 . S
C2138 C2139 1.385 . S
C2138 C2140 1.478 . S
C2139 H2133 0.930 . S
C2139 C2135 1.400 . S
C2139 C2138 1.385 . S
C2140 C2138 1.478 . S
C2140 C2142 1.381 . S
C2140 C2146 1.383 . S
C2141 C2137 1.495 . S
C2141 H2147 0.959 . S
C2141 H2148 0.961 . S
C2141 H2149 0.960 . S
C2142 C2140 1.381 . S
C2142 C2143 1.394 . S
C2142 H2150 0.930 . S
C2143 C2142 1.394 . S
C2143 C2144 1.383 . S
C2143 H2151 0.929 . S
C2144 C2143 1.383 . S
C2144 C2145 1.377 . S
C2145 H2129 0.930 . S
C2145 C2144 1.377 . S
C2145 C2146 1.379 . S
C2146 H2130 0.931 . S
C2146 C2140 1.383 . S
C2146 C2145 1.379 . S
H2147 C2141 0.959 . S
H2148 C2141 0.961 . S
H2149 C2141 0.960 . S
H2150 C2142 0.930 . S
H2151 C2143 0.929 . S
H2152 C2160 0.929 . S
H2153 C2162 0.930 . S
H2154 C2164 0.930 . S
H2155 C2167 0.929 . S
H2156 C2170 0.930 . S
H2157 C2172 0.960 . S
H2158 C2172 0.960 . S
H2159 C2172 0.960 . S
C2160 H2152 0.929 . S
C2160 C2161 1.377 . S
C2160 C2162 1.384 . S
C2161 C2160 1.377 . S
C2161 C2167 1.390 . S
C2162 H2153 0.930 . S
C2162 C2160 1.384 . S
C2162 C2163 1.372 . S
C2163 C2162 1.372 . S
C2163 C2164 1.400 . S
C2163 C2168 1.490 . S
C2164 H2154 0.930 . S
C2164 C2163 1.400 . S
C2164 C2167 1.386 . S
H2165 C2181 0.930 . S
H2166 C2182 0.931 . S
C2167 H2155 0.929 . S
C2167 C2161 1.390 . S
C2167 C2164 1.386 . S
C2168 C2163 1.490 . S
C2168 C2170 1.395 . S
C2168 C2171 1.403 . S
H2169 C2175 0.930 . S
C2170 H2156 0.930 . S
C2170 C2168 1.395 . S
C2170 C2173 1.403 . S
C2171 C2168 1.403 . S
C2171 C2172 1.524 . S
C2171 C2175 1.400 . S
C2172 H2157 0.960 . S
C2172 H2158 0.960 . S
C2172 H2159 0.960 . S
C2172 C2171 1.524 . S
C2173 C2170 1.403 . S
C2173 C2174 1.392 . S
C2173 C2177 1.495 . S
C2174 C2173 1.392 . S
C2174 C2175 1.385 . S
C2174 C2176 1.478 . S
C2175 H2169 0.930 . S
C2175 C2171 1.400 . S
C2175 C2174 1.385 . S
C2176 C2174 1.478 . S
C2176 C2178 1.381 . S
C2176 C2182 1.383 . S
C2177 C2173 1.495 . S
C2177 H2183 0.959 . S
C2177 H2184 0.961 . S
C2177 H2185 0.960 . S
C2178 C2176 1.381 . S
C2178 C2179 1.394 . S
C2178 H2186 0.930 . S
C2179 C2178 1.394 . S
C2179 C2180 1.383 . S
C2179 H2187 0.929 . S
C2180 C2179 1.383 . S
C2180 C2181 1.377 . S
C2181 H2165 0.930 . S
C2181 C2180 1.377 . S
C2181 C2182 1.379 . S
C2182 H2166 0.931 . S
C2182 C2176 1.383 . S
C2182 C2181 1.379 . S
H2183 C2177 0.959 . S
H2184 C2177 0.961 . S
H2185 C2177 0.960 . S
H2186 C2178 0.930 . S
H2187 C2179 0.929 . S
H2188 C2196 0.929 . S
H2189 C2198 0.930 . S
H2190 C2200 0.930 . S
H2191 C2203 0.929 . S
H2192 C2206 0.930 . S
H2193 C2208 0.960 . S
H2194 C2208 0.960 . S
H2195 C2208 0.960 . S
C2196 H2188 0.929 . S
C2196 C2197 1.377 . S
C2196 C2198 1.384 . S
C2197 C2196 1.377 . S
C2197 C2203 1.390 . S
C2198 H2189 0.930 . S
C2198 C2196 1.384 . S
C2198 C2199 1.372 . S
C2199 C2198 1.372 . S
C2199 C2200 1.400 . S
C2199 C2204 1.490 . S
C2200 H2190 0.930 . S
C2200 C2199 1.400 . S
C2200 C2203 1.386 . S
H2201 C2217 0.930 . S
H2202 C2218 0.931 . S
C2203 H2191 0.929 . S
C2203 C2197 1.390 . S
C2203 C2200 1.386 . S
C2204 C2199 1.490 . S
C2204 C2206 1.395 . S
C2204 C2207 1.403 . S
H2205 C2211 0.930 . S
C2206 H2192 0.930 . S
C2206 C2204 1.395 . S
C2206 C2209 1.403 . S
C2207 C2204 1.403 . S
C2207 C2208 1.524 . S
C2207 C2211 1.400 . S
C2208 H2193 0.960 . S
C2208 H2194 0.960 . S
C2208 H2195 0.960 . S
C2208 C2207 1.524 . S
C2209 C2206 1.403 . S
C2209 C2210 1.392 . S
C2209 C2213 1.495 . S
C2210 C2209 1.392 . S
C2210 C2211 1.385 . S
C2210 C2212 1.478 . S
C2211 H2205 0.930 . S
C2211 C2207 1.400 . S
C2211 C2210 1.385 . S
C2212 C2210 1.478 . S
C2212 C2214 1.381 . S
C2212 C2218 1.383 . S
C2213 C2209 1.495 . S
C2213 H2219 0.959 . S
C2213 H2220 0.961 . S
C2213 H2221 0.960 . S
C2214 C2212 1.381 . S
C2214 C2215 1.394 . S
C2214 H2222 0.930 . S
C2215 C2214 1.394 . S
C2215 C2216 1.383 . S
C2215 H2223 0.929 . S
C2216 C2215 1.383 . S
C2216 C2217 1.377 . S
C2217 H2201 0.930 . S
C2217 C2216 1.377 . S
C2217 C2218 1.379 . S
C2218 H2202 0.931 . S
C2218 C2212 1.383 . S
C2218 C2217 1.379 . S
H2219 C2213 0.959 . S
H2220 C2213 0.961 . S
H2221 C2213 0.960 . S
H2222 C2214 0.930 . S
H2223 C2215 0.929 . S
H2224 C2232 0.929 . S
H2225 C2234 0.930 . S
H2226 C2236 0.930 . S
H2227 C2239 0.929 . S
H2228 C2242 0.930 . S
H2229 C2244 0.960 . S
H2230 C2244 0.960 . S
H2231 C2244 0.960 . S
C2232 H2224 0.929 . S
C2232 C2233 1.377 . S
C2232 C2234 1.384 . S
C2233 C2232 1.377 . S
C2233 C2239 1.390 . S
C2234 H2225 0.930 . S
C2234 C2232 1.384 . S
C2234 C2235 1.372 . S
C2235 C2234 1.372 . S
C2235 C2236 1.400 . S
C2235 C2240 1.490 . S
C2236 H2226 0.930 . S
C2236 C2235 1.400 . S
C2236 C2239 1.386 . S
H2237 C2253 0.930 . S
H2238 C2254 0.931 . S
C2239 H2227 0.929 . S
C2239 C2233 1.390 . S
C2239 C2236 1.386 . S
C2240 C2235 1.490 . S
C2240 C2242 1.395 . S
C2240 C2243 1.403 . S
H2241 C2247 0.930 . S
C2242 H2228 0.930 . S
C2242 C2240 1.395 . S
C2242 C2245 1.403 . S
C2243 C2240 1.403 . S
C2243 C2244 1.524 . S
C2243 C2247 1.400 . S
C2244 H2229 0.960 . S
C2244 H2230 0.960 . S
C2244 H2231 0.960 . S
C2244 C2243 1.524 . S
C2245 C2242 1.403 . S
C2245 C2246 1.392 . S
C2245 C2249 1.495 . S
C2246 C2245 1.392 . S
C2246 C2247 1.385 . S
C2246 C2248 1.478 . S
C2247 H2241 0.930 . S
C2247 C2243 1.400 . S
C2247 C2246 1.385 . S
C2248 C2246 1.478 . S
C2248 C2250 1.381 . S
C2248 C2254 1.383 . S
C2249 C2245 1.495 . S
C2249 H2255 0.959 . S
C2249 H2256 0.961 . S
C2249 H2257 0.960 . S
C2250 C2248 1.381 . S
C2250 C2251 1.394 . S
C2250 H2258 0.930 . S
C2251 C2250 1.394 . S
C2251 C2252 1.383 . S
C2251 H2259 0.929 . S
C2252 C2251 1.383 . S
C2252 C2253 1.377 . S
C2253 H2237 0.930 . S
C2253 C2252 1.377 . S
C2253 C2254 1.379 . S
C2254 H2238 0.931 . S
C2254 C2248 1.383 . S
C2254 C2253 1.379 . S
H2255 C2249 0.959 . S
H2256 C2249 0.961 . S
H2257 C2249 0.960 . S
H2258 C2250 0.930 . S
H2259 C2251 0.929 . S
H2260 C2268 0.929 . S
H2261 C2270 0.930 . S
H2262 C2272 0.930 . S
H2263 C2275 0.929 . S
H2264 C2278 0.930 . S
H2265 C2280 0.960 . S
H2266 C2280 0.960 . S
H2267 C2280 0.960 . S
C2268 H2260 0.929 . S
C2268 C2269 1.377 . S
C2268 C2270 1.384 . S
C2269 C2268 1.377 . S
C2269 C2275 1.390 . S
C2270 H2261 0.930 . S
C2270 C2268 1.384 . S
C2270 C2271 1.372 . S
C2271 C2270 1.372 . S
C2271 C2272 1.400 . S
C2271 C2276 1.490 . S
C2272 H2262 0.930 . S
C2272 C2271 1.400 . S
C2272 C2275 1.386 . S
H2273 C2289 0.930 . S
H2274 C2290 0.931 . S
C2275 H2263 0.929 . S
C2275 C2269 1.390 . S
C2275 C2272 1.386 . S
C2276 C2271 1.490 . S
C2276 C2278 1.395 . S
C2276 C2279 1.403 . S
H2277 C2283 0.930 . S
C2278 H2264 0.930 . S
C2278 C2276 1.395 . S
C2278 C2281 1.403 . S
C2279 C2276 1.403 . S
C2279 C2280 1.524 . S
C2279 C2283 1.400 . S
C2280 H2265 0.960 . S
C2280 H2266 0.960 . S
C2280 H2267 0.960 . S
C2280 C2279 1.524 . S
C2281 C2278 1.403 . S
C2281 C2282 1.392 . S
C2281 C2285 1.495 . S
C2282 C2281 1.392 . S
C2282 C2283 1.385 . S
C2282 C2284 1.478 . S
C2283 H2277 0.930 . S
C2283 C2279 1.400 . S
C2283 C2282 1.385 . S
C2284 C2282 1.478 . S
C2284 C2286 1.381 . S
C2284 C2290 1.383 . S
C2285 C2281 1.495 . S
C2285 H2291 0.959 . S
C2285 H2292 0.961 . S
C2285 H2293 0.960 . S
C2286 C2284 1.381 . S
C2286 C2287 1.394 . S
C2286 H2294 0.930 . S
C2287 C2286 1.394 . S
C2287 C2288 1.383 . S
C2287 H2295 0.929 . S
C2288 C2287 1.383 . S
C2288 C2289 1.377 . S
C2289 H2273 0.930 . S
C2289 C2288 1.377 . S
C2289 C2290 1.379 . S
C2290 H2274 0.931 . S
C2290 C2284 1.383 . S
C2290 C2289 1.379 . S
H2291 C2285 0.959 . S
H2292 C2285 0.961 . S
H2293 C2285 0.960 . S
H2294 C2286 0.930 . S
H2295 C2287 0.929 . S
H2296 C2304 0.929 . S
H2297 C2306 0.930 . S
H2298 C2308 0.930 . S
H2299 C2311 0.929 . S
H2300 C2314 0.930 . S
H2301 C2316 0.960 . S
H2302 C2316 0.960 . S
H2303 C2316 0.960 . S
C2304 H2296 0.929 . S
C2304 C2305 1.377 . S
C2304 C2306 1.384 . S
C2305 C2304 1.377 . S
C2305 C2311 1.390 . S
C2306 H2297 0.930 . S
C2306 C2304 1.384 . S
C2306 C2307 1.372 . S
C2307 C2306 1.372 . S
C2307 C2308 1.400 . S
C2307 C2312 1.490 . S
C2308 H2298 0.930 . S
C2308 C2307 1.400 . S
C2308 C2311 1.386 . S
H2309 C2325 0.930 . S
H2310 C2326 0.931 . S
C2311 H2299 0.929 . S
C2311 C2305 1.390 . S
C2311 C2308 1.386 . S
C2312 C2307 1.490 . S
C2312 C2314 1.395 . S
C2312 C2315 1.403 . S
H2313 C2319 0.930 . S
C2314 H2300 0.930 . S
C2314 C2312 1.395 . S
C2314 C2317 1.403 . S
C2315 C2312 1.403 . S
C2315 C2316 1.524 . S
C2315 C2319 1.400 . S
C2316 H2301 0.960 . S
C2316 H2302 0.960 . S
C2316 H2303 0.960 . S
C2316 C2315 1.524 . S
C2317 C2314 1.403 . S
C2317 C2318 1.392 . S
C2317 C2321 1.495 . S
C2318 C2317 1.392 . S
C2318 C2319 1.385 . S
C2318 C2320 1.478 . S
C2319 H2313 0.930 . S
C2319 C2315 1.400 . S
C2319 C2318 1.385 . S
C2320 C2318 1.478 . S
C2320 C2322 1.381 . S
C2320 C2326 1.383 . S
C2321 C2317 1.495 . S
C2321 H2327 0.959 . S
C2321 H2328 0.961 . S
C2321 H2329 0.960 . S
C2322 C2320 1.381 . S
C2322 C2323 1.394 . S
C2322 H2330 0.930 . S
C2323 C2322 1.394 . S
C2323 C2324 1.383 . S
C2323 H2331 0.929 . S
C2324 C2323 1.383 . S
C2324 C2325 1.377 . S
C2325 H2309 0.930 . S
C2325 C2324 1.377 . S
C2325 C2326 1.379 . S
C2326 H2310 0.931 . S
C2326 C2320 1.383 . S
C2326 C2325 1.379 . S
H2327 C2321 0.959 . S
H2328 C2321 0.961 . S
H2329 C2321 0.960 . S
H2330 C2322 0.930 . S
H2331 C2323 0.929 . S
H2332 C2340 0.929 . S
H2333 C2342 0.930 . S
H2334 C2344 0.930 . S
H2335 C2347 0.929 . S
H2336 C2350 0.930 . S
H2337 C2352 0.960 . S
H2338 C2352 0.960 . S
H2339 C2352 0.960 . S
C2340 H2332 0.929 . S
C2340 C2341 1.377 . S
C2340 C2342 1.384 . S
C2341 C2340 1.377 . S
C2341 C2347 1.390 . S
C2342 H2333 0.930 . S
C2342 C2340 1.384 . S
C2342 C2343 1.372 . S
C2343 C2342 1.372 . S
C2343 C2344 1.400 . S
C2343 C2348 1.490 . S
C2344 H2334 0.930 . S
C2344 C2343 1.400 . S
C2344 C2347 1.386 . S
H2345 C2361 0.930 . S
H2346 C2362 0.931 . S
C2347 H2335 0.929 . S
C2347 C2341 1.390 . S
C2347 C2344 1.386 . S
C2348 C2343 1.490 . S
C2348 C2350 1.395 . S
C2348 C2351 1.403 . S
H2349 C2355 0.930 . S
C2350 H2336 0.930 . S
C2350 C2348 1.395 . S
C2350 C2353 1.403 . S
C2351 C2348 1.403 . S
C2351 C2352 1.524 . S
C2351 C2355 1.400 . S
C2352 H2337 0.960 . S
C2352 H2338 0.960 . S
C2352 H2339 0.960 . S
C2352 C2351 1.524 . S
C2353 C2350 1.403 . S
C2353 C2354 1.392 . S
C2353 C2357 1.495 . S
C2354 C2353 1.392 . S
C2354 C2355 1.385 . S
C2354 C2356 1.478 . S
C2355 H2349 0.930 . S
C2355 C2351 1.400 . S
C2355 C2354 1.385 . S
C2356 C2354 1.478 . S
C2356 C2358 1.381 . S
C2356 C2362 1.383 . S
C2357 C2353 1.495 . S
C2357 H2363 0.959 . S
C2357 H2364 0.961 . S
C2357 H2365 0.960 . S
C2358 C2356 1.381 . S
C2358 C2359 1.394 . S
C2358 H2366 0.930 . S
C2359 C2358 1.394 . S
C2359 C2360 1.383 . S
C2359 H2367 0.929 . S
C2360 C2359 1.383 . S
C2360 C2361 1.377 . S
C2361 H2345 0.930 . S
C2361 C2360 1.377 . S
C2361 C2362 1.379 . S
C2362 H2346 0.931 . S
C2362 C2356 1.383 . S
C2362 C2361 1.379 . S
H2363 C2357 0.959 . S
H2364 C2357 0.961 . S
H2365 C2357 0.960 . S
H2366 C2358 0.930 . S
H2367 C2359 0.929 . S
C649 C129 3.506 . S
C668 C8 3.517 . S
C685 C19 3.018 . S
C704 C49 3.019 . S
C721 C98 0.826 . S
C740 C58 0.791 . S
C757 C135 0.444 . S
C776 C95 0.394 . S
C793 C179 0.328 . S
C812 C215 0.147 . S
C829 C218 0.851 . S
C848 C248 0.862 . S
C865 C245 0.388 . S
C884 C295 0.427 . S
C901 C165 0.686 . S
C920 C298 0.683 . S
C937 C369 3.281 . S
C956 C5 3.299 . S
C973 C419 0.604 . S
C992 C55 0.637 . S
C1009 C89 3.028 . S
C1028 C529 2.979 . S
C1045 C328 0.840 . S
C1064 C138 0.814 . S
C1081 C458 0.849 . S
C1100 C168 0.871 . S
C1117 C565 3.295 . S
C1136 C209 3.286 . S
C1153 C259 0.598 . S
C1172 C495 0.624 . S
C1189 C609 3.026 . S
C1208 C289 3.000 . S
C1225 C325 0.690 . S
C1244 C538 0.703 . S
C1261 C375 0.103 . S
C1280 C339 0.420 . S
C1297 C408 0.868 . S
C1316 C378 0.900 . S
C1333 C568 3.526 . S
C1352 C449 3.503 . S
C1369 C498 0.835 . S
C1388 C618 0.847 . S
C1405 C459 3.504 . S
C1424 C18 3.517 . S
C1441 C499 3.030 . S
C1460 C9 3.023 . S
C1477 C488 0.836 . S
C1496 C88 0.797 . S
C1513 C85 0.434 . S
C1532 C445 0.388 . S
C1549 C365 0.106 . S
C1568 C169 0.391 . S
C1585 C368 0.852 . S
C1604 C258 0.894 . S
C1621 C525 0.422 . S
C1640 C255 0.371 . S
C1657 C175 0.686 . S
C1676 C528 0.665 . S
C1693 C219 3.285 . S
C1712 C15 3.291 . S
C1729 C409 0.598 . S
C1748 C485 0.554 . S
C1765 C99 3.028 . S
C1784 C299 3.002 . S
C1801 C338 0.832 . S
C1820 C448 0.872 . S
C1837 C128 0.848 . S
C1856 C178 0.803 . S
C1873 C379 3.284 . S
C1892 C575 3.287 . S
C1909 C249 0.598 . S
C1928 C45 0.554 . S
C1945 C619 3.026 . S
C1964 C539 2.992 . S
C1981 C335 0.681 . S
C2000 C288 0.720 . S
C2017 C329 0.311 . S
C2036 C205 0.148 . S
C2053 C418 0.865 . S
C2072 C208 0.878 . S
C2089 C139 3.507 . S
C2108 C578 3.528 . S
C2125 C48 0.834 . S
C2144 C608 0.821 . S
C2161 C489 3.034 . S
C2180 C579 3.010 . S
C2197 C455 0.453 . S
C2216 C615 0.490 . S
C2233 C405 0.383 . S
C2252 C535 0.363 . S
C2269 C569 3.018 . S
C2288 C59 3.036 . S
C2305 C125 0.431 . S
C2324 C605 0.426 . S
C2341 C285 0.408 . S
C2360 C415 0.383 . S
