# Generated by pormake.
# Topology tsi, (8)-cn, num edge types: 1
# Building blocks:
#     Node 0, Type 0, BuildingBlock: TAGTUT_clean_sbu_3, # of connection points: 8
#     Node 1, Type 0, BuildingBlock: TAGTUT_clean_sbu_3, # of connection points: 8
#     Node 2, Type 0, BuildingBlock: TAGTUT_clean_sbu_3, # of connection points: 8
#     Node 3, Type 0, BuildingBlock: TAGTUT_clean_sbu_3, # of connection points: 8
#     Edge 4, Type (0, 0), BuildingBlock: EZIPEK_clean_linker_0, # of connection points: 2
#     Edge 5, Type (0, 0), BuildingBlock: EZIPEK_clean_linker_0, # of connection points: 2
#     Edge 6, Type (0, 0), BuildingBlock: EZIPEK_clean_linker_0, # of connection points: 2
#     Edge 7, Type (0, 0), BuildingBlock: EZIPEK_clean_linker_0, # of connection points: 2
#     Edge 8, Type (0, 0), BuildingBlock: EZIPEK_clean_linker_0, # of connection points: 2
#     Edge 9, Type (0, 0), BuildingBlock: EZIPEK_clean_linker_0, # of connection points: 2
#     Edge 10, Type (0, 0), BuildingBlock: EZIPEK_clean_linker_0, # of connection points: 2
#     Edge 11, Type (0, 0), BuildingBlock: EZIPEK_clean_linker_0, # of connection points: 2
#     Edge 12, Type (0, 0), BuildingBlock: EZIPEK_clean_linker_0, # of connection points: 2
#     Edge 13, Type (0, 0), BuildingBlock: EZIPEK_clean_linker_0, # of connection points: 2
#     Edge 14, Type (0, 0), BuildingBlock: EZIPEK_clean_linker_0, # of connection points: 2
#     Edge 15, Type (0, 0), BuildingBlock: EZIPEK_clean_linker_0, # of connection points: 2
#     Edge 16, Type (0, 0), BuildingBlock: EZIPEK_clean_linker_0, # of connection points: 2
#     Edge 17, Type (0, 0), BuildingBlock: EZIPEK_clean_linker_0, # of connection points: 2
#     Edge 18, Type (0, 0), BuildingBlock: EZIPEK_clean_linker_0, # of connection points: 2
#     Edge 19, Type (0, 0), BuildingBlock: EZIPEK_clean_linker_0, # of connection points: 2
# Relax obj value: 0.151
# Max RMSD: 0.223
# Mean RMSD: 0.223
data_MOF--net-tsi--node1-TAGTUT_clean_sbu_3--edge1-EZIPEK_clean_linker_0
_symmetry_space_group_name_H-M    P1
_symmetry_Int_Tables_number       1
_symmetry_cell_setting            triclinic
loop_
_symmetry_equiv_pos_as_xyz
'x, y, z'
_cell_length_a     12.093686
_cell_length_b     12.201048
_cell_length_c     56.796455
_cell_angle_alpha  90.618376
_cell_angle_beta   90.089408
_cell_angle_gamma 90.327893
loop_
_atom_site_label
_atom_site_type_symbol
_atom_site_fract_x
_atom_site_fract_y
_atom_site_fract_z
_atom_type_partial_charge
C0 C 0.24476 0.19674 0.32426 0.0
C1 C 0.10675 0.09806 0.24024 0.0
C2 C 0.80719 0.24476 0.25882 0.0
Mg3 Mg 0.11118 0.23857 0.37436 0.0
Mg4 Mg 0.87211 0.12218 0.38791 0.0
O5 O 0.96242 0.18267 0.36512 0.0
Mg6 Mg 0.97954 0.14675 0.33096 0.0
O7 O 0.00943 0.12119 0.29657 0.0
Mg8 Mg 0.05443 0.27123 0.28621 0.0
Mg9 Mg 0.92461 0.03632 0.27562 0.0
C10 C 0.70868 0.11684 0.34417 0.0
O11 O 0.97131 0.95423 0.33402 0.0
O12 O 0.03368 0.31709 0.40763 0.0
O13 O 0.91011 0.89451 0.29825 0.0
O14 O 0.14609 0.08726 0.39756 0.0
O15 O 0.85766 0.25897 0.41127 0.0
O16 O 0.98021 0.02052 0.40848 0.0
O17 O -0.01411 0.33224 0.32241 0.0
O18 O 0.06473 0.39321 0.35518 0.0
C19 C 0.01918 0.41216 0.33543 0.0
C20 C 0.93922 0.31878 0.41784 0.0
O21 O 0.78551 0.14227 0.32934 0.0
O22 O 0.11656 0.18898 0.2518 0.0
O23 O 0.72737 0.09326 0.36583 0.0
O24 O 0.89125 0.29844 0.26639 0.0
O25 O 0.04246 0.02129 0.24709 0.0
O26 O 0.79401 0.14254 0.26299 0.0
O27 O 0.16988 0.15783 0.33799 0.0
O28 O 0.21946 0.23775 0.30438 0.0
C29 C 0.08536 0.02795 0.41094 0.0
C30 C 0.94126 0.87682 0.31953 0.0
C31 C 0.24667 0.73296 0.59249 0.0
C32 C 0.07348 0.81622 0.67789 0.0
C33 C 0.78507 0.6798 0.64901 0.0
Mg34 Mg 0.117 0.68623 0.54206 0.0
Mg35 Mg 0.87494 0.7977 0.52838 0.0
O36 O 0.96701 0.74008 0.55109 0.0
Mg37 Mg -0.01575 0.77966 0.58496 0.0
O38 O 0.01497 0.80812 0.61922 0.0
Mg39 Mg 0.04945 0.65524 0.62954 0.0
Mg40 Mg 0.91479 0.88628 0.63778 0.0
C41 C 0.71209 0.80554 0.57227 0.0
O42 O 0.98118 0.97299 0.5813 0.0
O43 O 0.03834 0.60368 0.50909 0.0
O44 O 0.91327 0.03244 0.61637 0.0
O45 O 0.1479 0.83726 0.51836 0.0
O46 O 0.86159 0.65873 0.50561 0.0
O47 O 0.98115 0.9004 0.50744 0.0
O48 O -0.01262 0.59395 0.59306 0.0
O49 O 0.07914 0.53063 0.56198 0.0
C50 C 0.02807 0.51406 0.58116 0.0
C51 C 0.94312 0.59975 0.49909 0.0
O52 O 0.78976 0.78349 0.58711 0.0
O53 O 0.10047 0.7305 0.66588 0.0
O54 O 0.73023 0.82617 0.55044 0.0
O55 O 0.87644 0.62953 0.64582 0.0
O56 O 0.00572 0.88808 0.67038 0.0
O57 O 0.77555 0.7808 0.64366 0.0
O58 O 0.17278 0.76933 0.57832 0.0
O59 O 0.22065 0.69048 0.61236 0.0
C60 C 0.08628 0.895 0.50495 0.0
C61 C 0.94981 0.05044 0.59553 0.0
C62 C 0.52954 0.9384 0.83167 0.0
C63 C 0.44651 0.85244 0.91387 0.0
C64 C 0.5889 0.55896 0.90811 0.0
Mg65 Mg 0.55171 0.79667 0.78334 0.0
Mg66 Mg 0.41432 0.56555 0.77529 0.0
O67 O 0.51652 0.64356 0.79368 0.0
Mg68 Mg 0.48657 0.67188 0.82794 0.0
O69 O 0.4697 0.7115 0.86182 0.0
Mg70 Mg 0.61948 0.76769 0.87088 0.0
Mg71 Mg 0.37741 0.65397 0.88456 0.0
C72 C 0.44958 0.40119 0.81737 0.0
O73 O 0.29174 0.6667 0.82577 0.0
O74 O 0.60126 0.72123 0.74703 0.0
O75 O 0.2321 0.62521 0.8625 0.0
O76 O 0.37855 0.82189 0.76708 0.0
O77 O 0.50434 0.56368 0.74264 0.0
O78 O 0.27601 0.67073 0.76948 0.0
O79 O 0.67536 0.68397 0.8347 0.0
O80 O 0.72304 0.76193 0.80051 0.0
C81 C 0.74919 0.71986 0.82041 0.0
C82 C 0.57288 0.63538 0.73508 0.0
O83 O 0.4835 0.47845 0.83149 0.0
O84 O 0.54137 0.84957 0.9038 0.0
O85 O 0.4112 0.41936 0.79669 0.0
O86 O 0.65055 0.61754 0.89476 0.0
O87 O 0.3647 0.79282 0.90734 0.0
O88 O 0.48376 0.55227 0.90552 0.0
O89 O 0.49054 0.85719 0.81978 0.0
O90 O 0.58069 0.92304 0.85092 0.0
C91 C 0.28649 0.77158 0.76401 0.0
C92 C 0.21396 0.64511 0.84064 0.0
C93 C 0.74632 0.26776 0.08935 0.0
C94 C 0.60955 0.3681 0.1729 0.0
C95 C 0.30944 0.2184 0.15442 0.0
Mg96 Mg 0.61477 0.2153 0.03924 0.0
Mg97 Mg 0.37599 0.32824 0.02494 0.0
O98 O 0.46487 0.26896 0.04807 0.0
Mg99 Mg 0.48172 0.30953 0.08208 0.0
O100 O 0.51155 0.33952 0.11639 0.0
Mg101 Mg 0.55652 0.19163 0.12743 0.0
Mg102 Mg 0.42886 0.42626 0.13708 0.0
C103 C 0.21196 0.33825 0.06858 0.0
O104 O 0.47362 0.49971 0.07788 0.0
O105 O 0.5373 0.13234 0.00627 0.0
O106 O 0.41786 0.5644 0.11346 0.0
O107 O 0.64959 0.36465 0.01536 0.0
O108 O 0.36218 0.19033 0.00185 0.0
O109 O 0.48432 0.43097 0.00443 0.0
O110 O 0.48789 0.1247 0.09142 0.0
O111 O 0.57092 0.06245 0.05934 0.0
C112 C 0.52324 0.04427 0.0789 0.0
C113 C 0.44338 0.13001 -0.00425 0.0
O114 O 0.28853 0.31587 0.08369 0.0
O115 O 0.61846 0.2767 0.16157 0.0
O116 O 0.2311 0.35751 0.04673 0.0
O117 O 0.39305 0.16416 0.14715 0.0
O118 O 0.54613 0.44439 0.16579 0.0
O119 O 0.29742 0.32032 0.14991 0.0
O120 O 0.67098 0.30069 0.07513 0.0
O121 O 0.72116 0.2289 0.10946 0.0
C122 C 0.58938 0.42397 0.002 0.0
C123 C 0.44718 0.5792 0.09196 0.0
C124 C 0.92066 0.34313 0.46129 0.0
C125 C 0.9259 0.39046 0.43856 0.0
C126 C 0.922 0.57505 0.45572 0.0
C127 C 0.92883 0.52774 0.47843 0.0
N128 N 0.93219 0.37047 0.5037 0.0
N129 N 0.92966 0.54785 0.41331 0.0
C130 C 0.92665 0.41264 0.48147 0.0
C131 C 0.92519 0.50558 0.43554 0.0
N132 N 0.91012 0.23192 0.46346 0.0
N133 N 0.91233 0.68625 0.45356 0.0
H134 H 0.92537 0.49925 0.39811 0.0
H135 H 0.94109 0.63044 0.40965 0.0
H136 H 0.91584 0.74064 0.46781 0.0
H137 H 0.89525 0.72553 0.43782 0.0
H138 H 0.89465 0.19242 0.47926 0.0
H139 H 0.91142 0.17768 0.44917 0.0
H140 H 0.94182 0.2878 0.50737 0.0
H141 H 0.93045 0.41925 0.5189 0.0
C142 C 0.55913 0.69154 0.69298 0.0
C143 C 0.60976 0.62551 0.7104 0.0
C144 C 0.73125 0.54607 0.68048 0.0
C145 C 0.70031 0.63099 0.66504 0.0
N146 N 0.55054 0.74093 0.65157 0.0
N147 N 0.73902 0.48419 0.72087 0.0
C148 C 0.60256 0.69011 0.66973 0.0
C149 C 0.69293 0.54927 0.7041 0.0
N150 N 0.47252 0.75789 0.69893 0.0
N151 N 0.79237 0.46037 0.67218 0.0
H152 H 0.71185 0.48356 0.73829 0.0
H153 H 0.80872 0.43634 0.71785 0.0
H154 H 0.81015 0.4512 0.65429 0.0
H155 H 0.81187 0.39207 0.68218 0.0
H156 H 0.43915 0.81621 0.68778 0.0
H157 H 0.43562 0.75715 0.71552 0.0
H158 H 0.47508 0.78089 0.65302 0.0
H159 H 0.57909 0.73219 0.63432 0.0
C160 C 0.64625 0.60539 0.94964 0.0
C161 C 0.63326 0.52502 0.93136 0.0
C162 C 0.64972 0.38122 -0.03943 0.0
C163 C 0.63541 0.46035 -0.02096 0.0
N164 N 0.62848 0.64861 -0.00856 0.0
N165 N 0.63954 0.33597 0.91921 0.0
C166 C 0.63785 0.57303 -0.02636 0.0
C167 C 0.64086 0.4131 0.9368 0.0
N168 N 0.66705 0.71211 0.94409 0.0
N169 N 0.66856 0.27361 -0.03504 0.0
H170 H 0.63604 0.35675 0.90143 0.0
H171 H 0.64315 0.25206 0.92253 0.0
H172 H 0.68171 0.242 -0.01831 0.0
H173 H 0.68171 0.242 -0.01831 0.0
H174 H 0.68424 0.77319 -0.04349 0.0
H175 H 0.6794 0.73775 0.9269 0.0
H176 H 0.61744 0.73206 -0.01125 0.0
H177 H 0.62811 0.62638 0.00914 0.0
C178 C 0.80553 0.26535 0.21543 0.0
C179 C 0.75461 0.28968 0.23739 0.0
C180 C 0.62521 0.41159 0.21708 0.0
C181 C 0.67375 0.37897 0.19524 0.0
N182 N 0.84073 0.3259 0.17577 0.0
N183 N 0.63251 0.40384 0.26012 0.0
C184 C 0.77521 0.32415 0.19534 0.0
C185 C 0.6698 0.36946 0.2386 0.0
N186 N 0.8784 0.18128 0.21323 0.0
N187 N 0.53761 0.48155 0.21727 0.0
H188 H 0.66161 0.37073 0.27581 0.0
H189 H 0.5769 0.46759 0.26262 0.0
H190 H 0.51135 0.52269 0.20235 0.0
H191 H 0.49083 0.49948 0.23216 0.0
H192 H 0.9077 0.15475 0.19694 0.0
H193 H 0.89754 0.12958 0.22698 0.0
H194 H 0.92069 0.29433 0.17545 0.0
H195 H 0.81884 0.37024 0.16085 0.0
C196 C 0.16934 0.09537 0.17456 0.0
C197 C 0.25537 0.17478 0.17581 0.0
C198 C 0.27331 0.14284 0.21802 0.0
C199 C 0.1712 0.08794 0.21796 0.0
N200 N 0.03449 -0.01524 0.19572 0.0
N201 N 0.37984 0.28399 0.20001 0.0
C202 C 0.12315 0.05443 0.19604 0.0
C203 C 0.30556 0.20026 0.19785 0.0
N204 N 0.13246 0.06013 0.15301 0.0
N205 N 0.33809 0.14184 0.23775 0.0
H206 H 0.40092 0.33439 0.18613 0.0
H207 H 0.4087 0.31154 0.21631 0.0
H208 H 0.31521 0.09805 0.25271 0.0
H209 H 0.41844 0.17329 0.23821 0.0
H210 H 0.07615 -0.00366 0.15048 0.0
H211 H 0.16261 0.09255 0.13733 0.0
H212 H -0.01205 0.96674 0.18074 0.0
H213 H 0.00693 0.94396 0.21059 0.0
C214 C 0.06003 0.75909 0.71995 0.0
C215 C 0.11087 0.82568 0.70259 0.0
C216 C 0.23313 0.90532 0.7326 0.0
C217 C 0.20185 0.82 0.74797 0.0
N218 N 0.05153 0.70893 0.76133 0.0
N219 N 0.24106 0.96774 0.69226 0.0
C220 C 0.1037 0.76037 0.74322 0.0
C221 C 0.19461 0.90224 0.70896 0.0
N222 N 0.97293 0.69241 0.71394 0.0
N223 N 0.29482 -0.00876 0.74098 0.0
H224 H 0.21384 0.96841 0.67482 0.0
H225 H 0.31111 0.01587 0.69533 0.0
H226 H 0.31287 0.00019 0.75888 0.0
H227 H 0.31458 0.05982 0.73104 0.0
H228 H 0.93932 0.63371 0.72503 0.0
H229 H 0.93582 0.69327 0.69735 0.0
H230 H 0.97583 0.66855 0.75982 0.0
H231 H 0.0802 0.71742 0.7786 0.0
C232 C 0.4246 0.87528 -0.04272 0.0
C233 C 0.43323 0.92356 0.93468 0.0
C234 C 0.4281 0.10736 0.95221 0.0
C235 C 0.43102 0.05904 -0.02514 0.0
N236 N 0.43165 0.90051 -0.00023 0.0
N237 N 0.44381 0.08223 0.90986 0.0
C238 C 0.42843 0.94381 -0.02237 0.0
C239 C 0.43447 0.03883 0.93191 0.0
N240 N 0.41296 0.76404 -0.04079 0.0
N241 N 0.4189 0.21865 0.95017 0.0
H242 H 0.44157 0.03457 0.8945 0.0
H243 H 0.45808 0.16477 0.90657 0.0
H244 H 0.41993 0.27248 -0.03546 0.0
H245 H 0.40441 0.25848 0.93438 0.0
H246 H 0.3946 0.72421 -0.02517 0.0
H247 H 0.41643 0.71015 0.94488 0.0
H248 H 0.44147 0.81769 0.00328 0.0
H249 H 0.42816 0.94849 0.01507 0.0
C250 C 0.14529 0.07393 0.45222 0.0
C251 C 0.13077 -0.00674 0.43407 0.0
C252 C 0.1454 0.84982 0.46364 0.0
C253 C 0.13093 0.93031 0.48179 0.0
N254 N 0.12558 0.11906 0.49386 0.0
N255 N 0.12529 0.80442 0.42201 0.0
C256 C 0.13492 0.04266 0.47622 0.0
C257 C 0.13484 0.88096 0.43964 0.0
N258 N 0.1683 0.18015 0.44658 0.0
N259 N 0.1685 0.74388 0.4693 0.0
H260 H 0.12331 0.82581 0.40426 0.0
H261 H 0.11541 0.72086 0.42489 0.0
H262 H 0.18135 0.71868 0.4865 0.0
H263 H 0.18701 0.68326 0.45692 0.0
H264 H 0.18669 0.24104 0.45897 0.0
H265 H 0.18134 0.20549 0.42939 0.0
H266 H 0.11582 0.20253 0.49098 0.0
H267 H 0.12367 0.09762 0.5116 0.0
C268 C 0.87078 0.68305 0.32281 0.0
C269 C 0.95868 0.75955 0.32574 0.0
C270 C 0.0862 0.60823 0.3338 0.0
C271 C 7e-05 0.53009 0.32931 0.0
N272 N 0.81089 0.49535 0.31667 0.0
N273 N 0.15463 0.79312 0.3299 0.0
C274 C 0.89272 0.56803 0.32283 0.0
C275 C 0.06722 0.72169 0.33035 0.0
N276 N 0.76494 0.72088 0.32096 0.0
N277 N 0.18762 0.57466 0.34146 0.0
H278 H 0.14597 0.87712 0.32809 0.0
H279 H 0.23689 0.7685 0.3295 0.0
H280 H 0.21283 0.49356 0.34115 0.0
H281 H 0.24569 0.62723 0.3492 0.0
H282 H 0.69495 0.67101 0.32172 0.0
H283 H 0.74638 0.80417 0.3208 0.0
H284 H 0.7372 0.51847 0.3087 0.0
H285 H 0.81747 0.4109 0.31793 0.0
C286 C 0.42315 0.83988 0.599 0.0
C287 C 0.3659 0.75238 0.58737 0.0
C288 C 0.53905 0.69303 0.56883 0.0
C289 C 0.59479 0.78506 0.57899 0.0
N290 N 0.59284 0.94701 0.60341 0.0
N291 N 0.36536 0.60166 0.55969 0.0
C292 C 0.53764 0.85861 0.59409 0.0
C293 C 0.42283 0.68078 0.57184 0.0
N294 N 0.36795 0.9041 0.61496 0.0
N295 N 0.59854 0.61446 0.55712 0.0
H296 H 0.28162 0.58653 0.56241 0.0
H297 H 0.39837 0.55571 0.54588 0.0
H298 H 0.68374 0.61984 0.55456 0.0
H299 H 0.56587 0.53931 0.55165 0.0
H300 H 0.40587 0.96188 0.62592 0.0
H301 H 0.28333 0.89642 0.61813 0.0
H302 H 0.55516 0.01108 0.6125 0.0
H303 H 0.67777 0.95811 0.60137 0.0
C304 C 0.38258 0.2134 0.82853 0.0
C305 C 0.47176 0.28425 0.82291 0.0
C306 C 0.59736 0.12613 0.82079 0.0
C307 C 0.5069 0.05438 0.82519 0.0
N308 N 0.31071 0.02738 0.83065 0.0
N309 N 0.66117 0.30875 0.81069 0.0
C310 C 0.3985 0.0974 0.82815 0.0
C311 C 0.57857 0.24078 0.81833 0.0
N312 N 0.28363 0.25786 0.83509 0.0
N313 N 0.70182 0.08433 0.81919 0.0
H314 H 0.65226 0.39346 0.80946 0.0
H315 H 0.7367 0.28121 0.80425 0.0
H316 H 0.71759 0.00035 0.81872 0.0
H317 H 0.77325 0.13232 0.81927 0.0
H318 H 0.21738 0.21269 0.84159 0.0
H319 H 0.27098 0.34232 0.83599 0.0
H320 H 0.22854 0.05211 0.83041 0.0
H321 H 0.31894 0.94257 0.83128 0.0
C322 C 0.05647 0.21623 0.08136 0.0
C323 C 0.09425 0.32284 0.07534 0.0
C324 C 0.90566 0.39443 0.07986 0.0
C325 C 0.86613 0.28652 0.08426 0.0
N326 N 0.90356 0.09458 0.0902 0.0
N327 N 0.05549 0.5115 0.06651 0.0
C328 C 0.94186 0.19773 0.08558 0.0
C329 C 0.01885 0.41125 0.07382 0.0
N330 N 0.13033 0.13185 0.08271 0.0
N331 N 0.83696 0.48194 0.08318 0.0
H332 H 0.1388 0.52924 0.06361 0.0
H333 H 0.00307 0.57535 0.06201 0.0
H334 H 0.7554 0.47398 0.08884 0.0
H335 H 0.86315 0.56327 0.0827 0.0
H336 H 0.11317 0.05648 0.09027 0.0
H337 H 0.21145 0.13694 0.07669 0.0
H338 H 0.94895 0.02314 0.088 0.0
H339 H 0.82374 0.07888 0.09589 0.0
C340 C 0.87889 0.2382 0.58563 0.0
C341 C 0.96984 0.16762 0.58958 0.0
C342 C 0.09423 0.32788 0.59256 0.0
C343 C 0.00451 0.3978 0.58721 0.0
N344 N 0.81431 0.41957 0.57537 0.0
N345 N 0.16638 0.14266 0.59435 0.0
C346 C 0.89731 0.35306 0.58303 0.0
C347 C 0.07835 0.21183 0.59222 0.0
N348 N 0.77449 0.19509 0.58447 0.0
N349 N 0.19399 0.3733 0.59873 0.0
H350 H 0.15812 0.05766 0.595 0.0
H351 H 0.24854 0.16823 0.5938 0.0
H352 H 0.2074 0.45784 0.59943 0.0
H353 H 0.26062 0.32876 0.60506 0.0
H354 H 0.70298 0.24217 0.58484 0.0
H355 H 0.75936 0.11092 0.58409 0.0
H356 H 0.73836 0.39069 0.5692 0.0
H357 H 0.82342 0.50412 0.57374 0.0
C358 C 0.92734 0.77262 0.8406 0.0
C359 C 0.86838 0.70009 0.82544 0.0
C360 C 0.0372 0.59033 0.81952 0.0
C361 C 0.09684 0.6658 0.8339 0.0
N362 N 0.10519 0.83972 0.85449 0.0
N363 N 0.86726 0.54633 0.79836 0.0
C364 C 0.04356 0.75997 0.84344 0.0
C365 C 0.92351 0.61075 0.81425 0.0
N366 N 0.87182 0.85279 0.85262 0.0
N367 N 0.08881 0.49808 0.81138 0.0
H368 H 0.78318 0.55558 0.79484 0.0
H369 H 0.90449 0.48762 0.78764 0.0
H370 H 0.17281 0.48388 0.81408 0.0
H371 H 0.04821 0.43318 0.80298 0.0
H372 H 0.9068 0.90001 0.86609 0.0
H373 H 0.78776 0.86713 0.85027 0.0
H374 H 0.07416 0.91595 0.85943 0.0
H375 H 0.19043 0.83394 0.85696 0.0
C376 C 0.37544 0.77104 0.09097 0.0
C377 C 0.45989 0.69586 0.0847 0.0
C378 C 0.5881 0.84921 0.07864 0.0
C379 C 0.50419 0.92578 0.08496 0.0
N380 N 0.32303 0.95527 0.1022 0.0
N381 N 0.63772 0.66655 0.06611 0.0
C382 C 0.39908 0.88577 0.09253 0.0
C383 C 0.56337 0.73562 0.07659 0.0
N384 N 0.27011 0.73226 0.09404 0.0
N385 N 0.69473 0.88457 0.07607 0.0
H386 H 0.62598 0.58287 0.06385 0.0
H387 H 0.70717 0.69399 0.05705 0.0
H388 H 0.71735 0.96628 0.0778 0.0
H389 H 0.76246 0.83248 0.07486 0.0
H390 H 0.20106 0.78212 0.09589 0.0
H391 H 0.24986 0.64938 0.09209 0.0
H392 H 0.25203 0.92852 0.11078 0.0
H393 H 0.33409 0.03919 0.10406 0.0
C394 C 0.51743 0.04729 0.33442 0.0
C395 C 0.59164 0.13641 0.33764 0.0
C396 C 0.44 0.26622 0.33111 0.0
C397 C 0.36454 0.17688 0.32894 0.0
N398 N 0.34073 -0.01414 0.31915 0.0
N399 N 0.62143 0.33068 0.3433 0.0
C400 C 0.40556 0.06805 0.3282 0.0
C401 C 0.55256 0.24599 0.33692 0.0
N402 N 0.55297 0.94268 0.33798 0.0
N403 N 0.40567 0.37013 0.32636 0.0
H404 H 0.70408 0.31983 0.34793 0.0
H405 H 0.59493 0.41083 0.34603 0.0
H406 H 0.32514 0.38794 0.32138 0.0
H407 H 0.45888 0.43705 0.32487 0.0
H408 H 0.49988 0.87523 0.3386 0.0
H409 H 0.63464 0.9245 0.34225 0.0
H410 H 0.36991 0.9074 0.31549 0.0
H411 H 0.262 9e-05 0.31239 0.0
loop_
_geom_bond_atom_site_label_1
_geom_bond_atom_site_label_2
_geom_bond_distance
_geom_bond_site_symmetry_2
_ccdc_geom_bond_type
C0 O27 1.312 . S
C0 O28 1.208 . S
C1 O22 1.331 . S
C1 O25 1.244 . S
C2 O24 1.264 . S
C2 O26 1.273 . S
Mg3 O5 1.936 1_455 S
Mg3 O12 2.081 1_455 S
Mg3 O14 2.023 . S
Mg3 O18 2.031 . S
Mg3 O27 2.291 . S
Mg4 O5 1.963 . S
Mg4 O15 1.942 . S
Mg4 O16 1.955 . S
Mg4 O23 1.986 . S
O5 Mg3 1.936 1_655 S
O5 Mg4 1.963 . S
O5 Mg6 1.915 . S
Mg6 O5 1.915 . S
Mg6 O7 1.915 1_655 S
Mg6 O11 2.013 . S
Mg6 O17 2.114 1_655 S
Mg6 O21 2.013 . S
Mg6 O27 2.114 1_655 S
O7 Mg6 1.915 1_455 S
O7 Mg8 1.936 . S
O7 Mg9 1.963 1_455 S
Mg8 O7 1.936 . S
Mg8 O17 2.291 . S
Mg8 O22 2.081 . S
Mg8 O24 2.023 1_455 S
Mg8 O28 2.031 . S
Mg9 O7 1.963 1_655 S
Mg9 O13 1.986 1_545 S
Mg9 O25 1.942 1_655 S
Mg9 O26 1.955 . S
C10 O21 1.191 . S
C10 O23 1.307 . S
O11 Mg6 2.013 . S
O11 C30 1.191 1_545 S
O12 Mg3 2.081 1_655 S
O12 C20 1.331 . S
O13 Mg9 1.986 1_565 S
O13 C30 1.307 . S
O14 Mg3 2.023 . S
O14 C29 1.264 . S
O15 Mg4 1.942 . S
O15 C20 1.244 . S
O16 Mg4 1.955 . S
O16 C29 1.273 1_655 S
O17 Mg6 2.114 1_455 S
O17 Mg8 2.291 . S
O17 C19 1.312 . S
O18 Mg3 2.031 . S
O18 C19 1.208 . S
C19 O17 1.312 . S
C19 O18 1.208 . S
C20 O12 1.331 . S
C20 O15 1.244 . S
O21 Mg6 2.013 . S
O21 C10 1.191 . S
O22 C1 1.331 . S
O22 Mg8 2.081 . S
O23 Mg4 1.986 . S
O23 C10 1.307 . S
O24 C2 1.264 . S
O24 Mg8 2.023 1_655 S
O25 C1 1.244 . S
O25 Mg9 1.942 1_455 S
O26 C2 1.273 . S
O26 Mg9 1.955 . S
O27 C0 1.312 . S
O27 Mg3 2.291 . S
O27 Mg6 2.114 1_455 S
O28 C0 1.208 . S
O28 Mg8 2.031 . S
C29 O14 1.264 . S
C29 O16 1.273 1_455 S
C30 O11 1.191 1_565 S
C30 O13 1.307 . S
C31 O58 1.312 . S
C31 O59 1.208 . S
C32 O53 1.331 . S
C32 O56 1.244 . S
C33 O55 1.264 . S
C33 O57 1.273 . S
Mg34 O36 1.936 1_455 S
Mg34 O43 2.081 1_455 S
Mg34 O45 2.023 . S
Mg34 O49 2.031 . S
Mg34 O58 2.291 . S
Mg35 O36 1.963 . S
Mg35 O46 1.942 . S
Mg35 O47 1.955 . S
Mg35 O54 1.986 . S
O36 Mg34 1.936 1_655 S
O36 Mg35 1.963 . S
O36 Mg37 1.915 . S
Mg37 O36 1.915 . S
Mg37 O38 1.915 1_655 S
Mg37 O42 2.013 . S
Mg37 O48 2.114 1_655 S
Mg37 O52 2.013 . S
Mg37 O58 2.114 1_655 S
O38 Mg37 1.915 1_455 S
O38 Mg39 1.936 . S
O38 Mg40 1.963 1_455 S
Mg39 O38 1.936 . S
Mg39 O48 2.291 . S
Mg39 O53 2.081 . S
Mg39 O55 2.023 1_455 S
Mg39 O59 2.031 . S
Mg40 O38 1.963 1_655 S
Mg40 O44 1.986 1_565 S
Mg40 O56 1.942 1_655 S
Mg40 O57 1.955 . S
C41 O52 1.191 . S
C41 O54 1.307 . S
O42 Mg37 2.013 . S
O42 C61 1.191 1_565 S
O43 Mg34 2.081 1_655 S
O43 C51 1.331 . S
O44 Mg40 1.986 1_545 S
O44 C61 1.307 . S
O45 Mg34 2.023 . S
O45 C60 1.264 . S
O46 Mg35 1.942 . S
O46 C51 1.244 . S
O47 Mg35 1.955 . S
O47 C60 1.273 1_655 S
O48 Mg37 2.114 1_455 S
O48 Mg39 2.291 . S
O48 C50 1.312 . S
O49 Mg34 2.031 . S
O49 C50 1.208 . S
C50 O48 1.312 . S
C50 O49 1.208 . S
C51 O43 1.331 . S
C51 O46 1.244 . S
O52 Mg37 2.013 . S
O52 C41 1.191 . S
O53 C32 1.331 . S
O53 Mg39 2.081 . S
O54 Mg35 1.986 . S
O54 C41 1.307 . S
O55 C33 1.264 . S
O55 Mg39 2.023 1_655 S
O56 C32 1.244 . S
O56 Mg40 1.942 1_455 S
O57 C33 1.273 . S
O57 Mg40 1.955 . S
O58 C31 1.312 . S
O58 Mg34 2.291 . S
O58 Mg37 2.114 1_455 S
O59 C31 1.208 . S
O59 Mg39 2.031 . S
C60 O45 1.264 . S
C60 O47 1.273 1_455 S
C61 O42 1.191 1_545 S
C61 O44 1.307 . S
C62 O89 1.312 . S
C62 O90 1.208 . S
C63 O84 1.331 . S
C63 O87 1.244 . S
C64 O86 1.264 . S
C64 O88 1.273 . S
Mg65 O67 1.936 . S
Mg65 O74 2.081 . S
Mg65 O76 2.023 . S
Mg65 O80 2.031 . S
Mg65 O89 2.291 . S
Mg66 O67 1.963 . S
Mg66 O77 1.942 . S
Mg66 O78 1.955 . S
Mg66 O85 1.986 . S
O67 Mg65 1.936 . S
O67 Mg66 1.963 . S
O67 Mg68 1.915 . S
Mg68 O67 1.915 . S
Mg68 O69 1.915 . S
Mg68 O73 2.013 . S
Mg68 O79 2.114 . S
Mg68 O83 2.013 . S
Mg68 O89 2.114 . S
O69 Mg68 1.915 . S
O69 Mg70 1.936 . S
O69 Mg71 1.963 . S
Mg70 O69 1.936 . S
Mg70 O79 2.291 . S
Mg70 O84 2.081 . S
Mg70 O86 2.023 . S
Mg70 O90 2.031 . S
Mg71 O69 1.963 . S
Mg71 O75 1.986 . S
Mg71 O87 1.942 . S
Mg71 O88 1.955 . S
C72 O83 1.191 . S
C72 O85 1.307 . S
O73 Mg68 2.013 . S
O73 C92 1.191 . S
O74 Mg65 2.081 . S
O74 C82 1.331 . S
O75 Mg71 1.986 . S
O75 C92 1.307 . S
O76 Mg65 2.023 . S
O76 C91 1.264 . S
O77 Mg66 1.942 . S
O77 C82 1.244 . S
O78 Mg66 1.955 . S
O78 C91 1.273 . S
O79 Mg68 2.114 . S
O79 Mg70 2.291 . S
O79 C81 1.312 . S
O80 Mg65 2.031 . S
O80 C81 1.208 . S
C81 O79 1.312 . S
C81 O80 1.208 . S
C82 O74 1.331 . S
C82 O77 1.244 . S
O83 Mg68 2.013 . S
O83 C72 1.191 . S
O84 C63 1.331 . S
O84 Mg70 2.081 . S
O85 Mg66 1.986 . S
O85 C72 1.307 . S
O86 C64 1.264 . S
O86 Mg70 2.023 . S
O87 C63 1.244 . S
O87 Mg71 1.942 . S
O88 C64 1.273 . S
O88 Mg71 1.955 . S
O89 C62 1.312 . S
O89 Mg65 2.291 . S
O89 Mg68 2.114 . S
O90 C62 1.208 . S
O90 Mg70 2.031 . S
C91 O76 1.264 . S
C91 O78 1.273 . S
C92 O73 1.191 . S
C92 O75 1.307 . S
C93 O120 1.312 . S
C93 O121 1.208 . S
C94 O115 1.331 . S
C94 O118 1.244 . S
C95 O117 1.264 . S
C95 O119 1.273 . S
Mg96 O98 1.936 . S
Mg96 O105 2.081 . S
Mg96 O107 2.023 . S
Mg96 O111 2.031 . S
Mg96 O120 2.291 . S
Mg97 O98 1.963 . S
Mg97 O108 1.942 . S
Mg97 O109 1.955 . S
Mg97 O116 1.986 . S
O98 Mg96 1.936 . S
O98 Mg97 1.963 . S
O98 Mg99 1.915 . S
Mg99 O98 1.915 . S
Mg99 O100 1.915 . S
Mg99 O104 2.013 . S
Mg99 O110 2.114 . S
Mg99 O114 2.013 . S
Mg99 O120 2.114 . S
O100 Mg99 1.915 . S
O100 Mg101 1.936 . S
O100 Mg102 1.963 . S
Mg101 O100 1.936 . S
Mg101 O110 2.291 . S
Mg101 O115 2.081 . S
Mg101 O117 2.023 . S
Mg101 O121 2.031 . S
Mg102 O100 1.963 . S
Mg102 O106 1.986 . S
Mg102 O118 1.942 . S
Mg102 O119 1.955 . S
C103 O114 1.191 . S
C103 O116 1.307 . S
O104 Mg99 2.013 . S
O104 C123 1.191 . S
O105 Mg96 2.081 . S
O105 C113 1.331 . S
O106 Mg102 1.986 . S
O106 C123 1.307 . S
O107 Mg96 2.023 . S
O107 C122 1.264 . S
O108 Mg97 1.942 . S
O108 C113 1.244 . S
O109 Mg97 1.955 . S
O109 C122 1.273 . S
O110 Mg99 2.114 . S
O110 Mg101 2.291 . S
O110 C112 1.312 . S
O111 Mg96 2.031 . S
O111 C112 1.208 . S
C112 O110 1.312 . S
C112 O111 1.208 . S
C113 O105 1.331 . S
C113 O108 1.244 . S
O114 Mg99 2.013 . S
O114 C103 1.191 . S
O115 C94 1.331 . S
O115 Mg101 2.081 . S
O116 Mg97 1.986 . S
O116 C103 1.307 . S
O117 C95 1.264 . S
O117 Mg101 2.023 . S
O118 C94 1.244 . S
O118 Mg102 1.942 . S
O119 C95 1.273 . S
O119 Mg102 1.955 . S
O120 C93 1.312 . S
O120 Mg96 2.291 . S
O120 Mg99 2.114 . S
O121 C93 1.208 . S
O121 Mg101 2.031 . S
C122 O107 1.264 . S
C122 O109 1.273 . S
C123 O104 1.191 . S
C123 O106 1.307 . S
C124 C125 1.363 . S
C124 C130 1.379 . S
C124 N132 1.356 1_655 S
C125 C124 1.363 . S
C125 C131 1.363 . S
C126 C127 1.363 . S
C126 C131 1.379 . S
C126 N133 1.356 . S
C127 C126 1.363 . S
C127 C130 1.363 . S
N128 C130 1.356 1_455 S
N128 H140 0.984 . S
N128 H141 0.985 1_455 S
N129 C131 1.356 . S
N129 H134 0.984 . S
N129 H135 0.985 . S
C130 C124 1.379 . S
C130 C127 1.363 . S
C130 N128 1.356 1_655 S
C131 C125 1.363 . S
C131 C126 1.379 . S
C131 N129 1.356 . S
N132 C124 1.356 1_455 S
N132 H138 0.984 . S
N132 H139 0.984 1_455 S
N133 C126 1.356 . S
N133 H136 0.984 . S
N133 H137 0.985 . S
H134 N129 0.984 . S
H135 N129 0.985 . S
H136 N133 0.984 . S
H137 N133 0.985 . S
H138 N132 0.984 . S
H139 N132 0.984 1_655 S
H140 N128 0.984 . S
H141 N128 0.985 1_655 S
C142 C143 1.363 . S
C142 C148 1.379 . S
C142 N150 1.356 . S
C143 C142 1.363 . S
C143 C149 1.363 . S
C144 C145 1.363 . S
C144 C149 1.379 . S
C144 N151 1.356 . S
C145 C144 1.363 . S
C145 C148 1.363 . S
N146 C148 1.356 . S
N146 H158 0.984 . S
N146 H159 0.985 . S
N147 C149 1.356 . S
N147 H152 0.984 . S
N147 H153 0.985 . S
C148 C142 1.379 . S
C148 C145 1.363 . S
C148 N146 1.356 . S
C149 C143 1.363 . S
C149 C144 1.379 . S
C149 N147 1.356 . S
N150 C142 1.356 . S
N150 H156 0.984 . S
N150 H157 0.984 . S
N151 C144 1.356 . S
N151 H154 0.984 . S
N151 H155 0.985 . S
H152 N147 0.984 . S
H153 N147 0.985 . S
H154 N151 0.984 . S
H155 N151 0.985 . S
H156 N150 0.984 . S
H157 N150 0.984 . S
H158 N146 0.984 . S
H159 N146 0.985 . S
C160 C161 1.363 . S
C160 C166 1.379 1_556 S
C160 N168 1.356 . S
C161 C160 1.363 . S
C161 C167 1.363 . S
C162 C163 1.363 . S
C162 C167 1.379 1_554 S
C162 N169 1.356 . S
C163 C162 1.363 . S
C163 C166 1.363 . S
N164 C166 1.356 . S
N164 H176 0.984 . S
N164 H177 0.985 . S
N165 C167 1.356 . S
N165 H170 0.984 . S
N165 H171 0.985 . S
C166 C160 1.379 1_554 S
C166 C163 1.363 . S
C166 N164 1.356 . S
C167 C161 1.363 . S
C167 C162 1.379 1_556 S
C167 N165 1.356 . S
N168 C160 1.356 . S
N168 H174 0.984 . S
N168 H175 0.984 . S
N169 C162 1.356 . S
N169 H172 0.984 . S
N169 H173 0.985 . S
H170 N165 0.984 . S
H171 N165 0.985 . S
H172 N169 0.984 . S
H173 N169 0.985 . S
H174 N168 0.984 . S
H175 N168 0.984 . S
H176 N164 0.984 . S
H177 N164 0.985 . S
C178 C179 1.363 . S
C178 C184 1.379 . S
C178 N186 1.356 . S
C179 C178 1.363 . S
C179 C185 1.363 . S
C180 C181 1.363 . S
C180 C185 1.379 . S
C180 N187 1.356 . S
C181 C180 1.363 . S
C181 C184 1.363 . S
N182 C184 1.356 . S
N182 H194 0.984 . S
N182 H195 0.985 . S
N183 C185 1.356 . S
N183 H188 0.984 . S
N183 H189 0.985 . S
C184 C178 1.379 . S
C184 C181 1.363 . S
C184 N182 1.356 . S
C185 C179 1.363 . S
C185 C180 1.379 . S
C185 N183 1.356 . S
N186 C178 1.356 . S
N186 H192 0.984 . S
N186 H193 0.984 . S
N187 C180 1.356 . S
N187 H190 0.984 . S
N187 H191 0.985 . S
H188 N183 0.984 . S
H189 N183 0.985 . S
H190 N187 0.984 . S
H191 N187 0.985 . S
H192 N186 0.984 . S
H193 N186 0.984 . S
H194 N182 0.984 . S
H195 N182 0.985 . S
C196 C197 1.363 . S
C196 C202 1.379 . S
C196 N204 1.356 1_545 S
C197 C196 1.363 . S
C197 C203 1.363 . S
C198 C199 1.363 . S
C198 C203 1.379 . S
C198 N205 1.356 . S
C199 C198 1.363 . S
C199 C202 1.363 . S
N200 C202 1.356 1_565 S
N200 H212 0.984 . S
N200 H213 0.985 . S
N201 C203 1.356 . S
N201 H206 0.984 . S
N201 H207 0.985 . S
C202 C196 1.379 . S
C202 C199 1.363 . S
C202 N200 1.356 1_545 S
C203 C197 1.363 . S
C203 C198 1.379 . S
C203 N201 1.356 . S
N204 C196 1.356 1_565 S
N204 H210 0.984 . S
N204 H211 0.984 1_565 S
N205 C198 1.356 . S
N205 H208 0.984 . S
N205 H209 0.985 . S
H206 N201 0.984 . S
H207 N201 0.985 . S
H208 N205 0.984 . S
H209 N205 0.985 . S
H210 N204 0.984 . S
H211 N204 0.984 1_545 S
H212 N200 0.984 . S
H213 N200 0.985 . S
C214 C215 1.363 . S
C214 C220 1.379 . S
C214 N222 1.356 . S
C215 C214 1.363 . S
C215 C221 1.363 . S
C216 C217 1.363 . S
C216 C221 1.379 . S
C216 N223 1.356 1_565 S
C217 C216 1.363 . S
C217 C220 1.363 . S
N218 C220 1.356 . S
N218 H230 0.984 . S
N218 H231 0.985 . S
N219 C221 1.356 1_545 S
N219 H224 0.984 . S
N219 H225 0.985 . S
C220 C214 1.379 . S
C220 C217 1.363 . S
C220 N218 1.356 . S
C221 C215 1.363 . S
C221 C216 1.379 . S
C221 N219 1.356 1_565 S
N222 C214 1.356 . S
N222 H228 0.984 . S
N222 H229 0.984 . S
N223 C216 1.356 1_545 S
N223 H226 0.984 . S
N223 H227 0.985 . S
H224 N219 0.984 . S
H225 N219 0.985 . S
H226 N223 0.984 . S
H227 N223 0.985 . S
H228 N222 0.984 . S
H229 N222 0.984 . S
H230 N218 0.984 . S
H231 N218 0.985 . S
C232 C233 1.363 . S
C232 C238 1.379 1_556 S
C232 N240 1.356 . S
C233 C232 1.363 . S
C233 C239 1.363 1_565 S
C234 C235 1.363 . S
C234 C239 1.379 1_554 S
C234 N241 1.356 . S
C235 C234 1.363 . S
C235 C238 1.363 1_545 S
N236 C238 1.356 . S
N236 H248 0.984 . S
N236 H249 0.985 . S
N237 C239 1.356 . S
N237 H242 0.984 . S
N237 H243 0.985 . S
C238 C232 1.379 1_554 S
C238 C235 1.363 1_565 S
C238 N236 1.356 . S
C239 C233 1.363 1_545 S
C239 C234 1.379 1_556 S
C239 N237 1.356 . S
N240 C232 1.356 . S
N240 H246 0.984 . S
N240 H247 0.984 . S
N241 C234 1.356 . S
N241 H244 0.984 . S
N241 H245 0.985 . S
H242 N237 0.984 . S
H243 N237 0.985 . S
H244 N241 0.984 . S
H245 N241 0.985 . S
H246 N240 0.984 . S
H247 N240 0.984 . S
H248 N236 0.984 . S
H249 N236 0.985 . S
C250 C251 1.363 . S
C250 C256 1.379 . S
C250 N258 1.356 . S
C251 C250 1.363 . S
C251 C257 1.363 1_545 S
C252 C253 1.363 . S
C252 C257 1.379 . S
C252 N259 1.356 . S
C253 C252 1.363 . S
C253 C256 1.363 1_565 S
N254 C256 1.356 . S
N254 H266 0.984 . S
N254 H267 0.985 . S
N255 C257 1.356 . S
N255 H260 0.984 . S
N255 H261 0.985 1_455 S
C256 C250 1.379 . S
C256 C253 1.363 1_545 S
C256 N254 1.356 . S
C257 C251 1.363 1_565 S
C257 C252 1.379 . S
C257 N255 1.356 . S
N258 C250 1.356 . S
N258 H264 0.984 . S
N258 H265 0.984 . S
N259 C252 1.356 . S
N259 H262 0.984 . S
N259 H263 0.985 1_455 S
H260 N255 0.984 . S
H261 N255 0.985 1_655 S
H262 N259 0.984 . S
H263 N259 0.985 1_655 S
H264 N258 0.984 . S
H265 N258 0.984 . S
H266 N254 0.984 . S
H267 N254 0.985 . S
C268 C269 1.365 . S
C268 C274 1.379 . S
C268 N276 1.356 . S
C269 C268 1.365 . S
C269 C275 1.361 1_655 S
C270 C271 1.362 1_455 S
C270 C275 1.379 . S
C270 N277 1.356 . S
C271 C270 1.362 1_655 S
C271 C274 1.364 . S
N272 C274 1.356 . S
N272 H284 0.984 . S
N272 H285 0.985 . S
N273 C275 1.356 . S
N273 H278 0.984 . S
N273 H279 0.985 . S
C274 C268 1.379 . S
C274 C271 1.364 . S
C274 N272 1.356 . S
C275 C269 1.361 1_455 S
C275 C270 1.379 . S
C275 N273 1.356 . S
N276 C268 1.356 . S
N276 H282 0.984 . S
N276 H283 0.984 . S
N277 C270 1.356 . S
N277 H280 0.984 . S
N277 H281 0.985 . S
H278 N273 0.984 . S
H279 N273 0.985 . S
H280 N277 0.984 . S
H281 N277 0.985 . S
H282 N276 0.984 . S
H283 N276 0.984 . S
H284 N272 0.984 . S
H285 N272 0.985 . S
C286 C287 1.363 . S
C286 C292 1.379 . S
C286 N294 1.356 . S
C287 C286 1.363 . S
C287 C293 1.363 . S
C288 C289 1.363 . S
C288 C293 1.379 . S
C288 N295 1.356 . S
C289 C288 1.363 . S
C289 C292 1.363 . S
N290 C292 1.356 . S
N290 H302 0.984 . S
N290 H303 0.985 . S
N291 C293 1.356 . S
N291 H296 0.984 . S
N291 H297 0.985 . S
C292 C286 1.379 . S
C292 C289 1.363 . S
C292 N290 1.356 . S
C293 C287 1.363 . S
C293 C288 1.379 . S
C293 N291 1.356 . S
N294 C286 1.356 . S
N294 H300 0.984 . S
N294 H301 0.984 . S
N295 C288 1.356 . S
N295 H298 0.984 . S
N295 H299 0.985 . S
H296 N291 0.984 . S
H297 N291 0.985 . S
H298 N295 0.984 . S
H299 N295 0.985 . S
H300 N294 0.984 . S
H301 N294 0.984 . S
H302 N290 0.984 . S
H303 N290 0.985 . S
C304 C305 1.363 . S
C304 C310 1.379 . S
C304 N312 1.356 . S
C305 C304 1.363 . S
C305 C311 1.363 . S
C306 C307 1.363 . S
C306 C311 1.379 . S
C306 N313 1.356 . S
C307 C306 1.363 . S
C307 C310 1.363 . S
N308 C310 1.356 . S
N308 H320 0.984 . S
N308 H321 0.985 . S
N309 C311 1.356 . S
N309 H314 0.984 . S
N309 H315 0.985 . S
C310 C304 1.379 . S
C310 C307 1.363 . S
C310 N308 1.356 . S
C311 C305 1.363 . S
C311 C306 1.379 . S
C311 N309 1.356 . S
N312 C304 1.356 . S
N312 H318 0.984 . S
N312 H319 0.984 . S
N313 C306 1.356 . S
N313 H316 0.984 . S
N313 H317 0.985 . S
H314 N309 0.984 . S
H315 N309 0.985 . S
H316 N313 0.984 . S
H317 N313 0.985 . S
H318 N312 0.984 . S
H319 N312 0.984 . S
H320 N308 0.984 . S
H321 N308 0.985 . S
C322 C323 1.363 . S
C322 C328 1.379 1_455 S
C322 N330 1.356 . S
C323 C322 1.363 . S
C323 C329 1.363 . S
C324 C325 1.363 . S
C324 C329 1.379 1_655 S
C324 N331 1.356 . S
C325 C324 1.363 . S
C325 C328 1.363 . S
N326 C328 1.356 . S
N326 H338 0.984 . S
N326 H339 0.985 . S
N327 C329 1.356 . S
N327 H332 0.984 . S
N327 H333 0.985 . S
C328 C322 1.379 1_655 S
C328 C325 1.363 . S
C328 N326 1.356 . S
C329 C323 1.363 . S
C329 C324 1.379 1_455 S
C329 N327 1.356 . S
N330 C322 1.356 . S
N330 H336 0.984 . S
N330 H337 0.984 . S
N331 C324 1.356 . S
N331 H334 0.984 . S
N331 H335 0.985 . S
H332 N327 0.984 . S
H333 N327 0.985 . S
H334 N331 0.984 . S
H335 N331 0.985 . S
H336 N330 0.984 . S
H337 N330 0.984 . S
H338 N326 0.984 . S
H339 N326 0.985 . S
C340 C341 1.365 . S
C340 C346 1.379 . S
C340 N348 1.356 . S
C341 C340 1.365 . S
C341 C347 1.361 1_655 S
C342 C343 1.362 1_455 S
C342 C347 1.379 . S
C342 N349 1.356 . S
C343 C342 1.362 1_655 S
C343 C346 1.364 . S
N344 C346 1.356 . S
N344 H356 0.984 . S
N344 H357 0.985 . S
N345 C347 1.356 . S
N345 H350 0.984 . S
N345 H351 0.985 . S
C346 C340 1.379 . S
C346 C343 1.364 . S
C346 N344 1.356 . S
C347 C341 1.361 1_455 S
C347 C342 1.379 . S
C347 N345 1.356 . S
N348 C340 1.356 . S
N348 H354 0.984 . S
N348 H355 0.984 . S
N349 C342 1.356 . S
N349 H352 0.984 . S
N349 H353 0.985 . S
H350 N345 0.984 . S
H351 N345 0.985 . S
H352 N349 0.984 . S
H353 N349 0.985 . S
H354 N348 0.984 . S
H355 N348 0.984 . S
H356 N344 0.984 . S
H357 N344 0.985 . S
C358 C359 1.363 . S
C358 C364 1.379 1_655 S
C358 N366 1.356 . S
C359 C358 1.363 . S
C359 C365 1.363 . S
C360 C361 1.363 . S
C360 C365 1.379 1_455 S
C360 N367 1.356 . S
C361 C360 1.363 . S
C361 C364 1.363 . S
N362 C364 1.356 . S
N362 H374 0.984 . S
N362 H375 0.985 . S
N363 C365 1.356 . S
N363 H368 0.984 . S
N363 H369 0.985 . S
C364 C358 1.379 1_455 S
C364 C361 1.363 . S
C364 N362 1.356 . S
C365 C359 1.363 . S
C365 C360 1.379 1_655 S
C365 N363 1.356 . S
N366 C358 1.356 . S
N366 H372 0.984 . S
N366 H373 0.984 . S
N367 C360 1.356 . S
N367 H370 0.984 . S
N367 H371 0.985 . S
H368 N363 0.984 . S
H369 N363 0.985 . S
H370 N367 0.984 . S
H371 N367 0.985 . S
H372 N366 0.984 . S
H373 N366 0.984 . S
H374 N362 0.984 . S
H375 N362 0.985 . S
C376 C377 1.363 . S
C376 C382 1.379 . S
C376 N384 1.356 . S
C377 C376 1.363 . S
C377 C383 1.363 . S
C378 C379 1.363 . S
C378 C383 1.379 . S
C378 N385 1.356 . S
C379 C378 1.363 . S
C379 C382 1.363 . S
N380 C382 1.356 . S
N380 H392 0.984 . S
N380 H393 0.985 . S
N381 C383 1.356 . S
N381 H386 0.984 . S
N381 H387 0.985 . S
C382 C376 1.379 . S
C382 C379 1.363 . S
C382 N380 1.356 . S
C383 C377 1.363 . S
C383 C378 1.379 . S
C383 N381 1.356 . S
N384 C376 1.356 . S
N384 H390 0.984 . S
N384 H391 0.984 . S
N385 C378 1.356 . S
N385 H388 0.984 . S
N385 H389 0.985 . S
H386 N381 0.984 . S
H387 N381 0.985 . S
H388 N385 0.984 . S
H389 N385 0.985 . S
H390 N384 0.984 . S
H391 N384 0.984 . S
H392 N380 0.984 . S
H393 N380 0.985 . S
C394 C395 1.363 . S
C394 C400 1.379 . S
C394 N402 1.356 . S
C395 C394 1.363 . S
C395 C401 1.363 . S
C396 C397 1.363 . S
C396 C401 1.379 . S
C396 N403 1.356 . S
C397 C396 1.363 . S
C397 C400 1.363 . S
N398 C400 1.356 . S
N398 H410 0.984 1_545 S
N398 H411 0.985 . S
N399 C401 1.356 . S
N399 H404 0.984 . S
N399 H405 0.985 . S
C400 C394 1.379 . S
C400 C397 1.363 . S
C400 N398 1.356 . S
C401 C395 1.363 . S
C401 C396 1.379 . S
C401 N399 1.356 . S
N402 C394 1.356 . S
N402 H408 0.984 1_545 S
N402 H409 0.984 . S
N403 C396 1.356 . S
N403 H406 0.984 . S
N403 H407 0.985 . S
H404 N399 0.984 . S
H405 N399 0.985 . S
H406 N403 0.984 . S
H407 N403 0.985 . S
H408 N402 0.984 1_565 S
H409 N402 0.984 . S
H410 N398 0.984 1_565 S
H411 N398 0.985 . S
C125 C20 1.266 . S
C127 C51 1.266 . S
C143 C82 1.368 . S
C145 C33 1.380 . S
C161 C64 1.484 . S
C163 C122 1.484 . S
C179 C2 1.379 . S
C181 C94 1.369 . S
C197 C95 1.379 . S
C199 C1 1.367 . S
C215 C32 1.368 . S
C217 C91 1.378 . S
C233 C63 1.266 . S
C235 C113 1.266 . S
C251 C29 1.484 . S
C253 C60 1.484 . S
C269 C30 1.555 . S
C271 C19 1.536 1_655 S
C287 C31 1.540 . S
C289 C41 1.559 . S
C305 C72 1.555 . S
C307 C62 1.536 1_545 S
C323 C103 1.559 . S
C325 C93 1.540 . S
C341 C61 1.555 . S
C343 C50 1.536 1_655 S
C359 C81 1.540 . S
C361 C92 1.559 . S
C377 C123 1.555 . S
C379 C112 1.536 1_565 S
C395 C10 1.559 . S
C397 C0 1.540 . S
