# Generated by pormake.
# Topology ums, (4)-cn, num edge types: 1
# Building blocks:
#     Node 0, Type 0, BuildingBlock: AZAVOO_clean_sbu_0, # of connection points: 4
#     Node 1, Type 0, BuildingBlock: AZAVOO_clean_sbu_0, # of connection points: 4
#     Node 2, Type 0, BuildingBlock: AZAVOO_clean_sbu_0, # of connection points: 4
#     Node 3, Type 0, BuildingBlock: AZAVOO_clean_sbu_0, # of connection points: 4
#     Node 4, Type 0, BuildingBlock: AZAVOO_clean_sbu_0, # of connection points: 4
#     Node 5, Type 0, BuildingBlock: AZAVOO_clean_sbu_0, # of connection points: 4
#     Node 6, Type 0, BuildingBlock: AZAVOO_clean_sbu_0, # of connection points: 4
#     Node 7, Type 0, BuildingBlock: AZAVOO_clean_sbu_0, # of connection points: 4
#     Node 8, Type 0, BuildingBlock: AZAVOO_clean_sbu_0, # of connection points: 4
#     Node 9, Type 0, BuildingBlock: AZAVOO_clean_sbu_0, # of connection points: 4
#     Node 10, Type 0, BuildingBlock: AZAVOO_clean_sbu_0, # of connection points: 4
#     Node 11, Type 0, BuildingBlock: AZAVOO_clean_sbu_0, # of connection points: 4
#     Node 12, Type 0, BuildingBlock: AZAVOO_clean_sbu_0, # of connection points: 4
#     Node 13, Type 0, BuildingBlock: AZAVOO_clean_sbu_0, # of connection points: 4
#     Node 14, Type 0, BuildingBlock: AZAVOO_clean_sbu_0, # of connection points: 4
#     Node 15, Type 0, BuildingBlock: AZAVOO_clean_sbu_0, # of connection points: 4
#     Node 16, Type 0, BuildingBlock: AZAVOO_clean_sbu_0, # of connection points: 4
#     Node 17, Type 0, BuildingBlock: AZAVOO_clean_sbu_0, # of connection points: 4
#     Node 18, Type 0, BuildingBlock: AZAVOO_clean_sbu_0, # of connection points: 4
#     Node 19, Type 0, BuildingBlock: AZAVOO_clean_sbu_0, # of connection points: 4
#     Node 20, Type 0, BuildingBlock: AZAVOO_clean_sbu_0, # of connection points: 4
#     Node 21, Type 0, BuildingBlock: AZAVOO_clean_sbu_0, # of connection points: 4
#     Node 22, Type 0, BuildingBlock: AZAVOO_clean_sbu_0, # of connection points: 4
#     Node 23, Type 0, BuildingBlock: AZAVOO_clean_sbu_0, # of connection points: 4
#     Node 24, Type 0, BuildingBlock: AZAVOO_clean_sbu_0, # of connection points: 4
#     Node 25, Type 0, BuildingBlock: AZAVOO_clean_sbu_0, # of connection points: 4
#     Node 26, Type 0, BuildingBlock: AZAVOO_clean_sbu_0, # of connection points: 4
#     Node 27, Type 0, BuildingBlock: AZAVOO_clean_sbu_0, # of connection points: 4
#     Node 28, Type 0, BuildingBlock: AZAVOO_clean_sbu_0, # of connection points: 4
#     Node 29, Type 0, BuildingBlock: AZAVOO_clean_sbu_0, # of connection points: 4
#     Node 30, Type 0, BuildingBlock: AZAVOO_clean_sbu_0, # of connection points: 4
#     Node 31, Type 0, BuildingBlock: AZAVOO_clean_sbu_0, # of connection points: 4
#     Node 32, Type 0, BuildingBlock: AZAVOO_clean_sbu_0, # of connection points: 4
#     Node 33, Type 0, BuildingBlock: AZAVOO_clean_sbu_0, # of connection points: 4
#     Node 34, Type 0, BuildingBlock: AZAVOO_clean_sbu_0, # of connection points: 4
#     Node 35, Type 0, BuildingBlock: AZAVOO_clean_sbu_0, # of connection points: 4
#     Edge 36, Type (0, 0), BuildingBlock: XIVTED_clean_linker_0, # of connection points: 2
#     Edge 37, Type (0, 0), BuildingBlock: XIVTED_clean_linker_0, # of connection points: 2
#     Edge 38, Type (0, 0), BuildingBlock: XIVTED_clean_linker_0, # of connection points: 2
#     Edge 39, Type (0, 0), BuildingBlock: XIVTED_clean_linker_0, # of connection points: 2
#     Edge 40, Type (0, 0), BuildingBlock: XIVTED_clean_linker_0, # of connection points: 2
#     Edge 41, Type (0, 0), BuildingBlock: XIVTED_clean_linker_0, # of connection points: 2
#     Edge 42, Type (0, 0), BuildingBlock: XIVTED_clean_linker_0, # of connection points: 2
#     Edge 43, Type (0, 0), BuildingBlock: XIVTED_clean_linker_0, # of connection points: 2
#     Edge 44, Type (0, 0), BuildingBlock: XIVTED_clean_linker_0, # of connection points: 2
#     Edge 45, Type (0, 0), BuildingBlock: XIVTED_clean_linker_0, # of connection points: 2
#     Edge 46, Type (0, 0), BuildingBlock: XIVTED_clean_linker_0, # of connection points: 2
#     Edge 47, Type (0, 0), BuildingBlock: XIVTED_clean_linker_0, # of connection points: 2
#     Edge 48, Type (0, 0), BuildingBlock: XIVTED_clean_linker_0, # of connection points: 2
#     Edge 49, Type (0, 0), BuildingBlock: XIVTED_clean_linker_0, # of connection points: 2
#     Edge 50, Type (0, 0), BuildingBlock: XIVTED_clean_linker_0, # of connection points: 2
#     Edge 51, Type (0, 0), BuildingBlock: XIVTED_clean_linker_0, # of connection points: 2
#     Edge 52, Type (0, 0), BuildingBlock: XIVTED_clean_linker_0, # of connection points: 2
#     Edge 53, Type (0, 0), BuildingBlock: XIVTED_clean_linker_0, # of connection points: 2
#     Edge 54, Type (0, 0), BuildingBlock: XIVTED_clean_linker_0, # of connection points: 2
#     Edge 55, Type (0, 0), BuildingBlock: XIVTED_clean_linker_0, # of connection points: 2
#     Edge 56, Type (0, 0), BuildingBlock: XIVTED_clean_linker_0, # of connection points: 2
#     Edge 57, Type (0, 0), BuildingBlock: XIVTED_clean_linker_0, # of connection points: 2
#     Edge 58, Type (0, 0), BuildingBlock: XIVTED_clean_linker_0, # of connection points: 2
#     Edge 59, Type (0, 0), BuildingBlock: XIVTED_clean_linker_0, # of connection points: 2
#     Edge 60, Type (0, 0), BuildingBlock: XIVTED_clean_linker_0, # of connection points: 2
#     Edge 61, Type (0, 0), BuildingBlock: XIVTED_clean_linker_0, # of connection points: 2
#     Edge 62, Type (0, 0), BuildingBlock: XIVTED_clean_linker_0, # of connection points: 2
#     Edge 63, Type (0, 0), BuildingBlock: XIVTED_clean_linker_0, # of connection points: 2
#     Edge 64, Type (0, 0), BuildingBlock: XIVTED_clean_linker_0, # of connection points: 2
#     Edge 65, Type (0, 0), BuildingBlock: XIVTED_clean_linker_0, # of connection points: 2
#     Edge 66, Type (0, 0), BuildingBlock: XIVTED_clean_linker_0, # of connection points: 2
#     Edge 67, Type (0, 0), BuildingBlock: XIVTED_clean_linker_0, # of connection points: 2
#     Edge 68, Type (0, 0), BuildingBlock: XIVTED_clean_linker_0, # of connection points: 2
#     Edge 69, Type (0, 0), BuildingBlock: XIVTED_clean_linker_0, # of connection points: 2
#     Edge 70, Type (0, 0), BuildingBlock: XIVTED_clean_linker_0, # of connection points: 2
#     Edge 71, Type (0, 0), BuildingBlock: XIVTED_clean_linker_0, # of connection points: 2
#     Edge 72, Type (0, 0), BuildingBlock: XIVTED_clean_linker_0, # of connection points: 2
#     Edge 73, Type (0, 0), BuildingBlock: XIVTED_clean_linker_0, # of connection points: 2
#     Edge 74, Type (0, 0), BuildingBlock: XIVTED_clean_linker_0, # of connection points: 2
#     Edge 75, Type (0, 0), BuildingBlock: XIVTED_clean_linker_0, # of connection points: 2
#     Edge 76, Type (0, 0), BuildingBlock: XIVTED_clean_linker_0, # of connection points: 2
#     Edge 77, Type (0, 0), BuildingBlock: XIVTED_clean_linker_0, # of connection points: 2
#     Edge 78, Type (0, 0), BuildingBlock: XIVTED_clean_linker_0, # of connection points: 2
#     Edge 79, Type (0, 0), BuildingBlock: XIVTED_clean_linker_0, # of connection points: 2
#     Edge 80, Type (0, 0), BuildingBlock: XIVTED_clean_linker_0, # of connection points: 2
#     Edge 81, Type (0, 0), BuildingBlock: XIVTED_clean_linker_0, # of connection points: 2
#     Edge 82, Type (0, 0), BuildingBlock: XIVTED_clean_linker_0, # of connection points: 2
#     Edge 83, Type (0, 0), BuildingBlock: XIVTED_clean_linker_0, # of connection points: 2
#     Edge 84, Type (0, 0), BuildingBlock: XIVTED_clean_linker_0, # of connection points: 2
#     Edge 85, Type (0, 0), BuildingBlock: XIVTED_clean_linker_0, # of connection points: 2
#     Edge 86, Type (0, 0), BuildingBlock: XIVTED_clean_linker_0, # of connection points: 2
#     Edge 87, Type (0, 0), BuildingBlock: XIVTED_clean_linker_0, # of connection points: 2
#     Edge 88, Type (0, 0), BuildingBlock: XIVTED_clean_linker_0, # of connection points: 2
#     Edge 89, Type (0, 0), BuildingBlock: XIVTED_clean_linker_0, # of connection points: 2
#     Edge 90, Type (0, 0), BuildingBlock: XIVTED_clean_linker_0, # of connection points: 2
#     Edge 91, Type (0, 0), BuildingBlock: XIVTED_clean_linker_0, # of connection points: 2
#     Edge 92, Type (0, 0), BuildingBlock: XIVTED_clean_linker_0, # of connection points: 2
#     Edge 93, Type (0, 0), BuildingBlock: XIVTED_clean_linker_0, # of connection points: 2
#     Edge 94, Type (0, 0), BuildingBlock: XIVTED_clean_linker_0, # of connection points: 2
#     Edge 95, Type (0, 0), BuildingBlock: XIVTED_clean_linker_0, # of connection points: 2
#     Edge 96, Type (0, 0), BuildingBlock: XIVTED_clean_linker_0, # of connection points: 2
#     Edge 97, Type (0, 0), BuildingBlock: XIVTED_clean_linker_0, # of connection points: 2
#     Edge 98, Type (0, 0), BuildingBlock: XIVTED_clean_linker_0, # of connection points: 2
#     Edge 99, Type (0, 0), BuildingBlock: XIVTED_clean_linker_0, # of connection points: 2
#     Edge 100, Type (0, 0), BuildingBlock: XIVTED_clean_linker_0, # of connection points: 2
#     Edge 101, Type (0, 0), BuildingBlock: XIVTED_clean_linker_0, # of connection points: 2
#     Edge 102, Type (0, 0), BuildingBlock: XIVTED_clean_linker_0, # of connection points: 2
#     Edge 103, Type (0, 0), BuildingBlock: XIVTED_clean_linker_0, # of connection points: 2
#     Edge 104, Type (0, 0), BuildingBlock: XIVTED_clean_linker_0, # of connection points: 2
#     Edge 105, Type (0, 0), BuildingBlock: XIVTED_clean_linker_0, # of connection points: 2
#     Edge 106, Type (0, 0), BuildingBlock: XIVTED_clean_linker_0, # of connection points: 2
#     Edge 107, Type (0, 0), BuildingBlock: XIVTED_clean_linker_0, # of connection points: 2
# Relax obj value: 0.200
# Max RMSD: 0.160
# Mean RMSD: 0.152
data_MOF--net-ums--node1-AZAVOO_clean_sbu_0--edge1-XIVTED_clean_linker_0
_symmetry_space_group_name_H-M    P1
_symmetry_Int_Tables_number       1
_symmetry_cell_setting            triclinic
loop_
_symmetry_equiv_pos_as_xyz
'x, y, z'
_cell_length_a     101.75789
_cell_length_b     100.76869
_cell_length_c     23.208726
_cell_angle_alpha  89.09436
_cell_angle_beta   90.020418
_cell_angle_gamma 120.28832
loop_
_atom_site_label
_atom_site_type_symbol
_atom_site_fract_x
_atom_site_fract_y
_atom_site_fract_z
_atom_type_partial_charge
Mg0 Mg 0.17839 0.24827 0.18446 0.0
O1 O 0.18374 0.27247 0.15611 0.0
O2 O 0.16217 0.27139 0.12863 0.0
Mg3 Mg 0.14283 0.24676 0.14415 0.0
C4 C 0.17654 0.27887 0.13614 0.0
C5 C 0.2065 0.25238 0.25559 0.0
O6 O 0.1958 0.24254 0.29091 0.0
O7 O 0.16914 0.25077 0.27174 0.0
O8 O 0.14786 0.24984 0.24035 0.0
O9 O 0.18036 0.24355 0.09233 0.0
O10 O 0.15882 0.23842 0.13513 0.0
C11 C 0.1569 0.2511 0.28084 0.0
C12 C 0.16606 0.23912 0.08874 0.0
O13 O 0.20282 0.25801 0.21357 0.0
Mg14 Mg 0.74029 0.91784 0.27333 0.0
O15 O 0.715 0.90193 0.26162 0.0
O16 O 0.70218 0.90063 0.34128 0.0
Mg17 Mg 0.72045 0.9164 0.40586 0.0
C18 C 0.70255 0.89687 0.2893 0.0
C19 C 0.75519 0.91918 0.15521 0.0
O20 O 0.76717 0.92425 0.18846 0.0
O21 O 0.73677 0.93816 0.26492 0.0
O22 O 0.72601 0.93786 0.34936 0.0
O23 O 0.74285 0.89867 0.30815 0.0
O24 O 0.73854 0.914 0.36231 0.0
C25 C 0.73148 0.94398 0.29991 0.0
C26 C 0.74056 0.90239 0.35878 0.0
O27 O 0.74268 0.91663 0.17701 0.0
Mg28 Mg 0.06795 0.82028 0.1841 0.0
O29 O 0.08563 0.81574 0.14107 0.0
O30 O 0.10435 0.83793 0.10422 0.0
Mg31 Mg 0.09923 0.85674 0.1279 0.0
C32 C 0.09804 0.82344 0.1125 0.0
C33 C 0.05131 0.78491 0.19005 0.0
O34 O 0.05552 0.7877 0.13563 0.0
O35 O 0.08292 0.83105 0.2631 0.0
O36 O 0.10151 0.853 0.22416 0.0
O37 O 0.05738 0.81659 0.09787 0.0
O38 O 0.07483 0.83933 0.1303 0.0
C39 C 0.09535 0.84387 0.26728 0.0
C40 C 0.06699 0.83099 0.08793 0.0
O41 O 0.05588 0.79618 0.2239 0.0
Mg42 Mg 0.26798 0.1817 0.27638 0.0
O43 O 0.292 0.1884 0.3077 0.0
O44 O 0.29153 0.16696 0.33771 0.0
Mg45 Mg 0.26773 0.14665 0.32242 0.0
C46 C 0.2985 0.18151 0.32987 0.0
C47 C 0.26868 0.20788 0.20362 0.0
O48 O 0.25889 0.19591 0.1742 0.0
O49 O 0.27124 0.17235 0.19106 0.0
O50 O 0.27059 0.15113 0.22531 0.0
O51 O 0.26242 0.18379 0.36728 0.0
O52 O 0.2586 0.16216 0.32856 0.0
C53 C 0.27168 0.16003 0.18351 0.0
C54 C 0.25862 0.16951 0.37339 0.0
O55 O 0.27638 0.20593 0.24241 0.0
Mg56 Mg 0.81694 0.08056 0.21954 0.0
O57 O 0.80698 0.0962 0.2225 0.0
O58 O 0.79394 0.09371 0.14223 0.0
Mg59 Mg 0.79804 0.07785 0.08365 0.0
C60 C 0.79859 0.09946 0.19184 0.0
C61 C 0.82798 0.07889 0.34333 0.0
O62 O 0.83329 0.07121 0.31613 0.0
O63 O 0.7935 0.05972 0.23107 0.0
O64 O 0.78308 0.05706 0.14409 0.0
O65 O 0.8383 0.09961 0.18299 0.0
O66 O 0.81912 0.08282 0.13009 0.0
C67 C 0.78263 0.05236 0.19599 0.0
C68 C 0.83243 0.09499 0.13259 0.0
O69 O 0.82018 0.08344 0.31569 0.0
Mg70 Mg 0.9345 0.74966 0.31634 0.0
O71 O 0.91487 0.7263 0.34619 0.0
O72 O 0.89636 0.72969 0.38127 0.0
Mg73 Mg 0.90424 0.75539 0.37326 0.0
C74 C 0.90179 0.72104 0.36957 0.0
C75 C 0.95022 0.73053 0.30346 0.0
O76 O 0.94565 0.72757 0.35749 0.0
O77 O 0.92131 0.74932 0.23553 0.0
O78 O 0.90442 0.75468 0.2747 0.0
O79 O 0.94348 0.75302 0.40622 0.0
O80 O 0.92793 0.76076 0.37394 0.0
C81 C 0.91051 0.75228 0.23097 0.0
C82 C 0.93493 0.75883 0.41641 0.0
O83 O 0.94601 0.73818 0.27223 0.0
Mg84 Mg 0.83863 0.74244 0.76259 0.0
O85 O 0.85403 0.74982 0.84148 0.0
O86 O 0.87407 0.77323 0.82472 0.0
Mg87 Mg 0.87171 0.78047 0.73306 0.0
C88 C 0.86657 0.76135 0.85706 0.0
C89 C 0.81025 0.7108 0.79638 0.0
O90 O 0.81075 0.70875 0.74083 0.0
O91 O 0.83015 0.75902 0.78131 0.0
O92 O 0.8505 0.78168 0.75783 0.0
O93 O 0.85186 0.73213 0.72863 0.0
O94 O 0.85742 0.75604 0.71044 0.0
C95 C 0.83663 0.77358 0.77425 0.0
C96 C 0.86105 0.74556 0.70619 0.0
O97 O 0.8199 0.72358 0.81769 0.0
Mg98 Mg 0.26712 0.08485 0.73621 0.0
O99 O 0.26149 0.09513 0.81217 0.0
O100 O 0.24028 0.09588 0.79636 0.0
Mg101 Mg 0.23145 0.08444 0.70906 0.0
C102 C 0.25173 0.09879 0.82747 0.0
C103 C 0.29857 0.09196 0.78647 0.0
O104 O 0.30357 0.10072 0.73985 0.0
O105 O 0.24885 0.06043 0.76069 0.0
O106 O 0.22771 0.06096 0.7391 0.0
O107 O 0.27907 0.10835 0.69508 0.0
O108 O 0.25483 0.09107 0.68208 0.0
C109 C 0.2344 0.05374 0.75582 0.0
C110 C 0.266 0.10479 0.67324 0.0
O111 O 0.28433 0.08351 0.79457 0.0
Mg112 Mg 0.91049 0.17496 0.69146 0.0
O113 O 0.90114 0.15885 0.77022 0.0
O114 O 0.90114 0.13718 0.75164 0.0
Mg115 Mg 0.91204 0.14014 0.66262 0.0
C116 C 0.89811 0.14532 0.7846 0.0
C117 C 0.90883 0.20391 0.72293 0.0
O118 O 0.90694 0.20377 0.66689 0.0
O119 O 0.9349 0.18177 0.71286 0.0
O120 O 0.93506 0.16034 0.69074 0.0
O121 O 0.88714 0.16315 0.6548 0.0
O122 O 0.90424 0.15624 0.63837 0.0
C123 C 0.94186 0.17427 0.70727 0.0
C124 C 0.89053 0.15355 0.63246 0.0
O125 O 0.9113 0.19387 0.74607 0.0
Mg126 Mg 0.74265 0.82456 0.79914 0.0
O127 O 0.74895 0.84074 0.72109 0.0
O128 O 0.77051 0.86262 0.73819 0.0
Mg129 Mg 0.77892 0.8596 0.82637 0.0
C130 C 0.75921 0.85429 0.70605 0.0
C131 C 0.71101 0.79793 0.76203 0.0
O132 O 0.70793 0.79961 0.81548 0.0
O133 O 0.76032 0.81804 0.77533 0.0
O134 O 0.78191 0.83961 0.79619 0.0
O135 O 0.73116 0.83621 0.83802 0.0
O136 O 0.75525 0.84318 0.85266 0.0
C137 C 0.7748 0.82568 0.77954 0.0
C138 C 0.7442 0.84576 0.8601 0.0
O139 O 0.72459 0.80596 0.74344 0.0
Mg140 Mg 0.16676 0.90599 0.73479 0.0
O141 O 0.15188 0.89848 0.6546 0.0
O142 O 0.13175 0.90131 0.66834 0.0
Mg143 Mg 0.13456 0.91213 0.7568 0.0
C144 C 0.13934 0.8971 0.63763 0.0
C145 C 0.19306 0.89956 0.69845 0.0
O146 O 0.19139 0.89425 0.75164 0.0
O147 O 0.1766 0.93144 0.71338 0.0
O148 O 0.15655 0.93423 0.73134 0.0
O149 O 0.1519 0.8823 0.77283 0.0
O150 O 0.14821 0.90187 0.78524 0.0
C151 C 0.17053 0.93982 0.7173 0.0
C152 C 0.14359 0.88754 0.79332 0.0
O153 O 0.185 0.90515 0.68107 0.0
Mg154 Mg 0.08797 0.2586 0.73322 0.0
O155 O 0.09771 0.25194 0.65775 0.0
O156 O 0.09577 0.22921 0.67598 0.0
Mg157 Mg 0.08331 0.22066 0.76279 0.0
C158 C 0.1001 0.24113 0.64393 0.0
C159 C 0.09271 0.29071 0.6989 0.0
O160 O 0.09445 0.29228 0.75494 0.0
O161 O 0.06359 0.24207 0.70688 0.0
O162 O 0.0614 0.21938 0.72935 0.0
O163 O 0.11068 0.26869 0.77476 0.0
O164 O 0.09205 0.24466 0.7881 0.0
C165 C 0.05571 0.22744 0.71117 0.0
C166 C 0.10596 0.25511 0.7967 0.0
O167 O 0.08933 0.27791 0.67705 0.0
Mg168 Mg 0.84381 0.5794 0.54789 0.0
O169 O 0.84994 0.60398 0.52052 0.0
O170 O 0.82906 0.60239 0.48179 0.0
Mg171 Mg 0.80972 0.57747 0.48718 0.0
C172 C 0.84304 0.61018 0.49605 0.0
C173 C 0.87829 0.59335 0.56953 0.0
O174 O 0.87845 0.59642 0.51423 0.0
O175 O 0.83081 0.58011 0.62712 0.0
O176 O 0.81032 0.57878 0.5856 0.0
O177 O 0.8498 0.57623 0.45839 0.0
O178 O 0.82672 0.57025 0.48778 0.0
C179 C 0.81805 0.57967 0.63026 0.0
C180 C 0.83576 0.57168 0.44642 0.0
O181 O 0.86584 0.58801 0.59743 0.0
Mg182 Mg 0.42174 0.25478 0.62921 0.0
O183 O 0.39979 0.2377 0.58332 0.0
O184 O 0.38138 0.23341 0.64681 0.0
Mg185 Mg 0.39131 0.24271 0.73602 0.0
C186 C 0.38575 0.23201 0.59672 0.0
C187 C 0.43328 0.26226 0.49188 0.0
O188 O 0.4426 0.27275 0.45461 0.0
O189 O 0.41372 0.27195 0.62484 0.0
O190 O 0.39822 0.267 0.70053 0.0
O191 O 0.42694 0.23677 0.66277 0.0
O192 O 0.41247 0.24389 0.70716 0.0
C193 C 0.40568 0.27529 0.6569 0.0
C194 C 0.41859 0.23543 0.7071 0.0
O195 O 0.43477 0.26557 0.54501 0.0
Mg196 Mg 0.73621 0.16797 0.44177 0.0
O197 O 0.75208 0.16011 0.40501 0.0
O198 O 0.77325 0.1808 0.37185 0.0
Mg199 Mg 0.77122 0.2019 0.38985 0.0
C200 C 0.7651 0.16631 0.3802 0.0
C201 C 0.71479 0.1329 0.44571 0.0
O202 O 0.71918 0.13539 0.39145 0.0
O203 O 0.75049 0.1771 0.52366 0.0
O204 O 0.77124 0.19766 0.48691 0.0
O205 O 0.72724 0.16614 0.35288 0.0
O206 O 0.74632 0.18739 0.38881 0.0
C207 C 0.76371 0.18893 0.52948 0.0
C208 C 0.73819 0.18015 0.34521 0.0
O209 O 0.72076 0.14408 0.48029 0.0
Mg210 Mg 0.90666 0.49449 0.68608 0.0
O211 O 0.93036 0.50352 0.72548 0.0
O212 O 0.93336 0.48344 0.74556 0.0
Mg213 Mg 0.91212 0.4618 0.71562 0.0
C214 C 0.93814 0.49783 0.74598 0.0
C215 C 0.91654 0.52896 0.69887 0.0
O216 O 0.91701 0.52518 0.75295 0.0
O217 O 0.91422 0.49022 0.59867 0.0
O218 O 0.91721 0.47026 0.62171 0.0
O219 O 0.8979 0.49156 0.7761 0.0
O220 O 0.89891 0.47336 0.72745 0.0
C221 C 0.9176 0.48006 0.5851 0.0
C222 C 0.89658 0.4781 0.7754 0.0
O223 O 0.91315 0.51895 0.66026 0.0
Mg224 Mg 0.48404 0.41078 0.58085 0.0
O225 O 0.47413 0.42646 0.58411 0.0
O226 O 0.46119 0.42407 0.50359 0.0
Mg227 Mg 0.46535 0.40832 0.44474 0.0
C228 C 0.46581 0.42978 0.55328 0.0
C229 C 0.49542 0.40918 0.7032 0.0
O230 O 0.50109 0.40206 0.67441 0.0
O231 O 0.46063 0.38985 0.5918 0.0
O232 O 0.4504 0.38739 0.50459 0.0
O233 O 0.50543 0.42993 0.54511 0.0
O234 O 0.48637 0.41323 0.49147 0.0
C235 C 0.44986 0.38254 0.55631 0.0
C236 C 0.49966 0.42541 0.49451 0.0
O237 O 0.48716 0.41339 0.677 0.0
Mg238 Mg 0.59595 0.08712 0.66652 0.0
O239 O 0.57721 0.06279 0.69258 0.0
O240 O 0.55849 0.06469 0.73503 0.0
Mg241 Mg 0.56427 0.08982 0.72823 0.0
C242 C 0.5644 0.05679 0.71883 0.0
C243 C 0.61152 0.078 0.56664 0.0
O244 O 0.60389 0.08187 0.53128 0.0
O245 O 0.58218 0.08649 0.58738 0.0
O246 O 0.56405 0.08951 0.6293 0.0
O247 O 0.60493 0.09017 0.7565 0.0
O248 O 0.58833 0.09676 0.72642 0.0
C249 C 0.57055 0.08817 0.58449 0.0
C250 C 0.59577 0.09519 0.76804 0.0
O251 O 0.60933 0.07783 0.62059 0.0
Mg252 Mg 0.4992 0.0775 0.11313 0.0
O253 O 0.51417 0.08486 0.19317 0.0
O254 O 0.5336 0.10879 0.17914 0.0
Mg255 Mg 0.53134 0.11631 0.08778 0.0
C256 C 0.52632 0.09663 0.21023 0.0
C257 C 0.47229 0.04482 0.1442 0.0
O258 O 0.47399 0.04294 0.08935 0.0
O259 O 0.48967 0.09309 0.13323 0.0
O260 O 0.50946 0.11636 0.11226 0.0
O261 O 0.51323 0.06816 0.07908 0.0
O262 O 0.51813 0.09194 0.06275 0.0
C263 C 0.49559 0.10763 0.12775 0.0
C264 C 0.52223 0.08182 0.05804 0.0
O265 O 0.48065 0.05791 0.16609 0.0
Mg266 Mg 0.92299 0.40705 0.15462 0.0
O267 O 0.91843 0.42188 0.21677 0.0
O268 O 0.89703 0.4221 0.19586 0.0
Mg269 Mg 0.88437 0.40158 0.13591 0.0
C270 C 0.90935 0.427 0.22443 0.0
C271 C 0.95657 0.41616 0.18348 0.0
O272 O 0.95803 0.41776 0.12715 0.0
O273 O 0.90848 0.38504 0.2072 0.0
O274 O 0.88981 0.38927 0.20557 0.0
O275 O 0.93087 0.42627 0.09094 0.0
O276 O 0.90685 0.40742 0.09751 0.0
C277 C 0.89479 0.38036 0.19358 0.0
C278 C 0.91683 0.42046 0.07527 0.0
O279 O 0.9437 0.41186 0.2066 0.0
Mg280 Mg 0.57864 0.50421 0.05435 0.0
O281 O 0.56859 0.48767 0.13154 0.0
O282 O 0.56878 0.46609 0.11309 0.0
Mg283 Mg 0.58055 0.46959 0.02565 0.0
C284 C 0.56545 0.47409 0.1456 0.0
C285 C 0.57457 0.53153 0.08834 0.0
O286 O 0.57136 0.53063 0.03319 0.0
O287 O 0.60275 0.5109 0.07944 0.0
O288 O 0.60318 0.48958 0.05788 0.0
O289 O 0.55569 0.49262 0.01466 0.0
O290 O 0.57296 0.48581 0.00029 0.0
C291 C 0.60975 0.50342 0.07544 0.0
C292 C 0.5593 0.48313 0.99278 0.0
O293 O 0.57882 0.52265 0.10978 0.0
Mg294 Mg 0.39895 0.15515 0.17382 0.0
O295 O 0.40612 0.17307 0.10124 0.0
O296 O 0.42825 0.19387 0.12166 0.0
Mg297 Mg 0.43419 0.18965 0.21359 0.0
C298 C 0.41711 0.18637 0.08777 0.0
C299 C 0.36864 0.12879 0.11825 0.0
O300 O 0.36274 0.12826 0.16918 0.0
O301 O 0.41762 0.14991 0.1496 0.0
O302 O 0.43855 0.17089 0.18001 0.0
O303 O 0.38646 0.16531 0.21849 0.0
O304 O 0.41037 0.17191 0.23487 0.0
C305 C 0.43198 0.15752 0.1581 0.0
C306 C 0.39899 0.17367 0.24614 0.0
O307 O 0.38272 0.13801 0.10935 0.0
Mg308 Mg 0.83656 0.25644 0.98946 0.0
O309 O 0.82217 0.24786 0.90832 0.0
O310 O 0.80199 0.25083 0.91774 0.0
Mg311 Mg 0.80402 0.26235 0.00404 0.0
C312 C 0.80968 0.24625 0.88956 0.0
C313 C 0.863 0.24992 0.96767 0.0
O314 O 0.8604 0.24616 0.02267 0.0
O315 O 0.84628 0.28161 0.96376 0.0
O316 O 0.82623 0.28451 0.97976 0.0
O317 O 0.82197 0.23316 0.02973 0.0
O318 O 0.81758 0.25244 0.03696 0.0
C319 C 0.84025 0.29006 0.96647 0.0
C320 C 0.81326 0.23824 0.04726 0.0
O321 O 0.85537 0.25504 0.94216 0.0
Mg322 Mg 0.75668 0.58913 0.10051 0.0
O323 O 0.76399 0.58121 0.02124 0.0
O324 O 0.76176 0.55836 0.03996 0.0
Mg325 Mg 0.75148 0.55096 0.13042 0.0
C326 C 0.76552 0.56992 0.00653 0.0
C327 C 0.7619 0.62139 0.06606 0.0
O328 O 0.76526 0.62349 0.12107 0.0
O329 O 0.73163 0.57291 0.08196 0.0
O330 O 0.72935 0.55016 0.10388 0.0
O331 O 0.78029 0.59908 0.13401 0.0
O332 O 0.76167 0.57536 0.15288 0.0
C333 C 0.7236 0.55832 0.08789 0.0
C334 C 0.77585 0.58564 0.1568 0.0
O335 O 0.75733 0.60822 0.04511 0.0
Mg336 Mg 0.51476 0.91549 0.88234 0.0
O337 O 0.51961 0.93971 0.85572 0.0
O338 O 0.49858 0.93702 0.81376 0.0
Mg339 Mg 0.47965 0.91203 0.82512 0.0
C340 C 0.51243 0.94527 0.829 0.0
C341 C 0.54956 0.93173 0.89471 0.0
O342 O 0.54819 0.93495 0.84075 0.0
O343 O 0.50225 0.91597 0.96357 0.0
O344 O 0.48139 0.91416 0.92351 0.0
O345 O 0.52 0.91223 0.79167 0.0
O346 O 0.497 0.90537 0.8246 0.0
C347 C 0.48942 0.91536 0.96763 0.0
C348 C 0.50573 0.907 0.78185 0.0
O349 O 0.53771 0.9253 0.92661 0.0
Mg350 Mg 0.06976 0.5853 0.955 0.0
O351 O 0.04457 0.56864 0.94499 0.0
O352 O 0.0319 0.56942 0.02193 0.0
Mg353 Mg 0.05033 0.58519 0.0863 0.0
C354 C 0.03217 0.5644 0.97203 0.0
C355 C 0.08424 0.58598 0.83631 0.0
O356 O 0.09633 0.59076 0.86877 0.0
O357 O 0.06581 0.60527 0.94367 0.0
O358 O 0.05617 0.60651 0.02868 0.0
O359 O 0.07276 0.56667 0.99114 0.0
O360 O 0.06827 0.58208 0.04424 0.0
C361 C 0.06113 0.6118 0.97792 0.0
C362 C 0.07036 0.57048 0.04142 0.0
O363 O 0.07191 0.58369 0.85899 0.0
Mg364 Mg 0.399 0.49247 0.81041 0.0
O365 O 0.41605 0.4865 0.7716 0.0
O366 O 0.43515 0.50751 0.72957 0.0
Mg367 Mg 0.43064 0.5272 0.74511 0.0
C368 C 0.42843 0.4932 0.74245 0.0
C369 C 0.38211 0.45735 0.8256 0.0
O370 O 0.38596 0.45922 0.77079 0.0
O371 O 0.41454 0.50464 0.88668 0.0
O372 O 0.43331 0.52559 0.84279 0.0
O373 O 0.38792 0.4873 0.72485 0.0
O374 O 0.40605 0.51045 0.75116 0.0
C375 C 0.42715 0.51739 0.88808 0.0
C376 C 0.39761 0.50145 0.71123 0.0
O377 O 0.3868 0.46918 0.85658 0.0
Mg378 Mg 0.57725 0.83861 0.01127 0.0
O379 O 0.59987 0.84283 0.05043 0.0
O380 O 0.59536 0.82084 0.09329 0.0
Mg381 Mg 0.57141 0.80212 0.07015 0.0
C382 C 0.60411 0.8351 0.08163 0.0
C383 C 0.59562 0.87389 0.00251 0.0
O384 O 0.59759 0.87136 0.05667 0.0
O385 O 0.58046 0.82709 0.9326 0.0
O386 O 0.57717 0.80533 0.97329 0.0
O387 O 0.57148 0.84315 0.09827 0.0
O388 O 0.56518 0.82 0.06732 0.0
C389 C 0.57995 0.81419 0.92935 0.0
C390 C 0.5664 0.82874 0.10933 0.0
O391 O 0.58902 0.86248 0.96922 0.0
Mg392 Mg 0.15152 0.74635 0.8882 0.0
O393 O 0.14252 0.76265 0.8985 0.0
O394 O 0.12885 0.76149 0.82165 0.0
Mg395 Mg 0.13172 0.74595 0.7572 0.0
C396 C 0.13411 0.76659 0.87148 0.0
C397 C 0.1663 0.74647 0.00488 0.0
O398 O 0.17321 0.74147 0.97127 0.0
O399 O 0.12776 0.726 0.90057 0.0
O400 O 0.11666 0.7249 0.81619 0.0
O401 O 0.17286 0.76514 0.85065 0.0
O402 O 0.15286 0.74934 0.79888 0.0
C403 C 0.11645 0.71949 0.86665 0.0
C404 C 0.16646 0.76108 0.80077 0.0
O405 O 0.15589 0.74846 0.98395 0.0
Mg406 Mg 0.26678 0.41965 0.97251 0.0
O407 O 0.24713 0.39627 0.00172 0.0
O408 O 0.22868 0.39957 0.03817 0.0
Mg409 Mg 0.23678 0.42536 0.03239 0.0
C410 C 0.23404 0.39094 0.02516 0.0
C411 C 0.28256 0.4007 0.95699 0.0
O412 O 0.27837 0.3978 0.01141 0.0
O413 O 0.25335 0.41954 0.893 0.0
O414 O 0.23661 0.42487 0.93377 0.0
O415 O 0.27612 0.42285 0.06177 0.0
O416 O 0.26047 0.43064 0.03132 0.0
C417 C 0.24256 0.42252 0.88945 0.0
C418 C 0.2677 0.42874 0.073 0.0
O419 O 0.27802 0.4082 0.92653 0.0
Mg420 Mg 0.17291 0.41481 0.41594 0.0
O421 O 0.18752 0.42144 0.49696 0.0
O422 O 0.20761 0.44503 0.48378 0.0
Mg423 Mg 0.20615 0.45312 0.39263 0.0
C424 C 0.19986 0.43289 0.51455 0.0
C425 C 0.14455 0.38277 0.443 0.0
O426 O 0.14613 0.38136 0.38763 0.0
O427 O 0.16431 0.43117 0.43593 0.0
O428 O 0.18477 0.4541 0.4164 0.0
O429 O 0.18639 0.40479 0.3824 0.0
O430 O 0.19222 0.4289 0.36701 0.0
C431 C 0.17079 0.44578 0.43117 0.0
C432 C 0.19585 0.41843 0.36229 0.0
O433 O 0.15359 0.39537 0.46697 0.0
Mg434 Mg 0.59196 0.75344 0.45915 0.0
O435 O 0.58466 0.76036 0.54155 0.0
O436 O 0.56183 0.75789 0.52818 0.0
Mg437 Mg 0.55372 0.74783 0.43903 0.0
C438 C 0.57353 0.76174 0.55907 0.0
C439 C 0.62465 0.75952 0.49061 0.0
O440 O 0.62751 0.76456 0.43692 0.0
O441 O 0.57631 0.72769 0.47728 0.0
O442 O 0.55371 0.72564 0.46098 0.0
O443 O 0.60082 0.77744 0.42351 0.0
O444 O 0.57755 0.75806 0.41034 0.0
C445 C 0.56184 0.71964 0.47325 0.0
C446 C 0.5873 0.7724 0.40307 0.0
O447 O 0.61124 0.754 0.51065 0.0
Mg448 Mg 0.24798 0.84069 0.36584 0.0
O449 O 0.23681 0.8236 0.44035 0.0
O450 O 0.23605 0.80159 0.4215 0.0
Mg451 Mg 0.24862 0.80547 0.33539 0.0
C452 C 0.23297 0.8098 0.45383 0.0
C453 C 0.24176 0.86613 0.40903 0.0
O454 O 0.23636 0.86446 0.35655 0.0
O455 O 0.27156 0.84617 0.39408 0.0
O456 O 0.27129 0.82452 0.37179 0.0
O457 O 0.22544 0.83003 0.32247 0.0
O458 O 0.24238 0.82273 0.30953 0.0
C459 C 0.27811 0.83822 0.39081 0.0
C460 C 0.22898 0.82054 0.30002 0.0
O461 O 0.24817 0.85864 0.42448 0.0
Mg462 Mg 0.07492 0.49337 0.47934 0.0
O463 O 0.08063 0.51 0.40298 0.0
O464 O 0.1016 0.53222 0.42256 0.0
Mg465 Mg 0.11021 0.52899 0.50997 0.0
C466 C 0.0905 0.52385 0.38963 0.0
C467 C 0.04505 0.46414 0.44488 0.0
O468 O 0.04276 0.46406 0.50064 0.0
O469 O 0.09333 0.48824 0.45388 0.0
O470 O 0.11448 0.51003 0.47639 0.0
O471 O 0.06231 0.50363 0.51891 0.0
O472 O 0.08666 0.51171 0.53434 0.0
C473 C 0.10778 0.49627 0.45802 0.0
C474 C 0.07514 0.51357 0.54143 0.0
O475 O 0.05759 0.47449 0.42317 0.0
Mg476 Mg 0.49546 0.57515 0.36381 0.0
O477 O 0.48292 0.57086 0.27793 0.0
O478 O 0.46349 0.57494 0.2897 0.0
Mg479 Mg 0.46429 0.58304 0.38168 0.0
C480 C 0.47118 0.57088 0.25878 0.0
C481 C 0.52293 0.57005 0.3395 0.0
O482 O 0.5208 0.566 0.39431 0.0
O483 O 0.50727 0.60129 0.35418 0.0
O484 O 0.48762 0.60477 0.37091 0.0
O485 O 0.47896 0.55073 0.39021 0.0
O486 O 0.47574 0.57035 0.40844 0.0
C487 C 0.5018 0.6101 0.3617 0.0
C488 C 0.47047 0.55576 0.41054 0.0
O489 O 0.51459 0.57457 0.3158 0.0
Mg490 Mg 0.42447 0.92135 0.43535 0.0
O491 O 0.43238 0.91432 0.35539 0.0
O492 O 0.43051 0.89152 0.37148 0.0
Mg493 Mg 0.41985 0.88333 0.46135 0.0
C494 C 0.43424 0.90332 0.33939 0.0
C495 C 0.42826 0.95328 0.40313 0.0
O496 O 0.43131 0.95533 0.45839 0.0
O497 O 0.39969 0.90492 0.41523 0.0
O498 O 0.39738 0.88206 0.43493 0.0
O499 O 0.44796 0.93156 0.46967 0.0
O500 O 0.42968 0.90754 0.48648 0.0
C501 C 0.39165 0.89031 0.41973 0.0
C502 C 0.44375 0.91806 0.49132 0.0
O503 O 0.42461 0.94038 0.38155 0.0
H504 H 0.27704 0.22873 0.29038 0.0
H505 H 0.2202 0.24479 0.34129 0.0
H506 H 0.25533 0.21762 0.12424 0.0
H507 H 0.22644 0.26113 0.16476 0.0
H508 H 0.24122 0.23987 0.32886 0.0
H509 H 0.26681 0.24571 0.30697 0.0
C510 C 0.2705 0.23018 0.25662 0.0
C511 C 0.2667 0.22143 0.20633 0.0
C512 C 0.23835 0.24505 0.29347 0.0
C513 C 0.25489 0.24069 0.22556 0.0
C514 C 0.22628 0.24777 0.30049 0.0
C515 C 0.22142 0.25319 0.25387 0.0
C516 C 0.24536 0.24746 0.23909 0.0
C517 C 0.22972 0.25685 0.20186 0.0
C518 C 0.26454 0.23976 0.26651 0.0
C519 C 0.25828 0.22392 0.16405 0.0
N520 N 0.24098 0.25347 0.19533 0.0
N521 N 0.25248 0.23318 0.17494 0.0
H522 H 0.77454 0.04074 0.30584 0.0
H523 H 0.72835 0.96387 0.37056 0.0
H524 H 0.76218 0.02905 0.12812 0.0
H525 H 0.73866 0.95869 0.19472 0.0
H526 H 0.73591 0.99058 0.34827 0.0
H527 H 0.75731 0.01407 0.33398 0.0
C528 C 0.76791 0.03262 0.27284 0.0
C529 C 0.76999 0.0371 0.21443 0.0
C530 C 0.73651 0.9836 0.3146 0.0
C531 C 0.75004 0.00646 0.2464 0.0
C532 C 0.73203 0.96828 0.32711 0.0
C533 C 0.73327 0.95914 0.28485 0.0
C534 C 0.7423 0.98978 0.2595 0.0
C535 C 0.73787 0.96541 0.22906 0.0
C536 C 0.75792 0.01737 0.28903 0.0
C537 C 0.76102 0.0261 0.17361 0.0
N538 N 0.74238 0.98039 0.21821 0.0
N539 N 0.7517 0.01121 0.19026 0.0
H540 H 0.97019 0.72688 0.3713 0.0
H541 H 0.03192 0.76156 0.12035 0.0
H542 H 0.96086 0.73221 0.19366 0.0
H543 H 0.04072 0.77396 0.29925 0.0
H544 H 0.00654 0.74066 0.1473 0.0
H545 H 0.99601 0.73359 0.34335 0.0
C546 C 0.97337 0.72892 0.32611 0.0
C547 C 0.96353 0.72946 0.28489 0.0
C548 C 0.01422 0.74769 0.18075 0.0
C549 C 0.99295 0.73705 0.25297 0.0
C550 C 0.02873 0.75961 0.16553 0.0
C551 C 0.03826 0.76982 0.20751 0.0
C552 C 0.00933 0.74591 0.2383 0.0
C553 C 0.03357 0.76659 0.26538 0.0
C554 C 0.98813 0.7328 0.31033 0.0
C555 C 0.96823 0.73204 0.22697 0.0
N556 N 0.0193 0.75507 0.27901 0.0
N557 N 0.98273 0.73604 0.21282 0.0
H558 H 0.847 0.80444 0.77485 0.0
H559 H 0.76398 0.79478 0.76705 0.0
H560 H 0.80555 0.76032 0.78393 0.0
H561 H 0.80575 0.83851 0.77568 0.0
H562 H 0.77889 0.78187 0.76724 0.0
H563 H 0.83191 0.817 0.77235 0.0
C564 C 0.83471 0.79737 0.7768 0.0
C565 C 0.82755 0.78127 0.77951 0.0
C566 C 0.78477 0.79429 0.76881 0.0
C567 C 0.81014 0.79565 0.77592 0.0
C568 C 0.77628 0.80169 0.76822 0.0
C569 C 0.7836 0.81777 0.77162 0.0
C570 C 0.8007 0.80303 0.7726 0.0
C571 C 0.79957 0.82609 0.77333 0.0
C572 C 0.82609 0.80457 0.77516 0.0
C573 C 0.81158 0.77276 0.78202 0.0
N574 N 0.80756 0.81863 0.77402 0.0
N575 N 0.8034 0.78005 0.77983 0.0
H576 H 0.24453 0.0331 0.76297 0.0
H577 H 0.16146 0.96108 0.7099 0.0
H578 H 0.20342 0.0356 0.75512 0.0
H579 H 0.20176 0.9572 0.72121 0.0
H580 H 0.17707 0.98863 0.72372 0.0
H581 H 0.22928 0.00529 0.75013 0.0
C582 C 0.23229 0.0278 0.75963 0.0
C583 C 0.22527 0.03676 0.75975 0.0
C584 C 0.18255 0.9818 0.72286 0.0
C585 C 0.20782 0.00501 0.74383 0.0
C586 C 0.17364 0.96605 0.71452 0.0
C587 C 0.18028 0.95676 0.71469 0.0
C588 C 0.19826 0.9884 0.73165 0.0
C589 C 0.19615 0.9639 0.72066 0.0
C590 C 0.22361 0.01194 0.75169 0.0
C591 C 0.20937 0.02922 0.75489 0.0
N592 N 0.20459 0.97929 0.72939 0.0
N593 N 0.20122 0.01384 0.74671 0.0
H594 H 0.03564 0.19655 0.70483 0.0
H595 H 0.96176 0.20524 0.71877 0.0
H596 H 0.03769 0.24042 0.69991 0.0
H597 H 0.96026 0.16175 0.70757 0.0
H598 H 0.98957 0.21841 0.71567 0.0
H599 H 0.00796 0.18369 0.70582 0.0
C600 C 0.03028 0.2035 0.70327 0.0
C601 C 0.03905 0.21961 0.70254 0.0
C602 C 0.98313 0.20598 0.71411 0.0
C603 C 0.00725 0.20491 0.70462 0.0
C604 C 0.96725 0.19844 0.7164 0.0
C605 C 0.95862 0.18235 0.71326 0.0
C606 C 0.99044 0.19737 0.70886 0.0
C607 C 0.9664 0.17417 0.70987 0.0
C608 C 0.01444 0.19613 0.70412 0.0
C609 C 0.03142 0.22798 0.7004 0.0
N610 N 0.98183 0.18177 0.70758 0.0
N611 N 0.01595 0.22053 0.70201 0.0
H612 H 0.90212 0.59386 0.51263 0.0
H613 H 0.91492 0.54911 0.77219 0.0
H614 H 0.88231 0.58781 0.68235 0.0
H615 H 0.91992 0.54232 0.59214 0.0
H616 H 0.91138 0.57068 0.74533 0.0
H617 H 0.91726 0.58292 0.54843 0.0
C618 C 0.90126 0.59067 0.55783 0.0
C619 C 0.8906 0.59135 0.59421 0.0
C620 C 0.91356 0.56465 0.71186 0.0
C621 C 0.90785 0.57877 0.63513 0.0
C622 C 0.9156 0.55235 0.7271 0.0
C623 C 0.91738 0.5437 0.68419 0.0
C624 C 0.91343 0.56837 0.65342 0.0
C625 C 0.91829 0.54849 0.62652 0.0
C626 C 0.90986 0.58433 0.57809 0.0
C627 C 0.89014 0.58718 0.6525 0.0
N628 N 0.91612 0.5604 0.61275 0.0
N629 N 0.89843 0.5808 0.67095 0.0
H630 H 0.40467 0.2953 0.73298 0.0
H631 H 0.42909 0.35991 0.48689 0.0
H632 H 0.40754 0.28827 0.55163 0.0
H633 H 0.44236 0.36967 0.66495 0.0
H634 H 0.41274 0.33282 0.51337 0.0
H635 H 0.41026 0.32158 0.71047 0.0
C636 C 0.40608 0.29916 0.6884 0.0
C637 C 0.40593 0.28978 0.64411 0.0
C638 C 0.41901 0.34097 0.54676 0.0
C639 C 0.41216 0.31954 0.61822 0.0
C640 C 0.42831 0.35645 0.53176 0.0
C641 C 0.43742 0.36703 0.57354 0.0
C642 C 0.41875 0.33605 0.6039 0.0
C643 C 0.4358 0.36186 0.6311 0.0
C644 C 0.40932 0.31413 0.67564 0.0
C645 C 0.40784 0.29528 0.58707 0.0
N646 N 0.42684 0.34668 0.64448 0.0
N647 N 0.41102 0.30986 0.57579 0.0
H648 H 0.69356 0.11114 0.37533 0.0
H649 H 0.63294 0.07587 0.63126 0.0
H650 H 0.70379 0.12224 0.5547 0.0
H651 H 0.62199 0.0809 0.45544 0.0
H652 H 0.65881 0.08368 0.60039 0.0
H653 H 0.66771 0.09131 0.4029 0.0
C654 C 0.69052 0.10914 0.42065 0.0
C655 C 0.70073 0.11861 0.46277 0.0
C656 C 0.65062 0.08271 0.56843 0.0
C657 C 0.67125 0.09592 0.49429 0.0
C658 C 0.63582 0.07821 0.58588 0.0
C659 C 0.6254 0.0782 0.54609 0.0
C660 C 0.65498 0.0871 0.51081 0.0
C661 C 0.62975 0.08109 0.48779 0.0
C662 C 0.67575 0.09785 0.43622 0.0
C663 C 0.69618 0.11541 0.52078 0.0
N664 N 0.64432 0.08571 0.47201 0.0
N665 N 0.68169 0.10446 0.53481 0.0
H666 H 0.46448 0.09302 0.14098 0.0
H667 H 0.46296 0.17153 0.15241 0.0
H668 H 0.50457 0.13818 0.12984 0.0
H669 H 0.42226 0.12702 0.1402 0.0
H670 H 0.47827 0.15928 0.14557 0.0
H671 H 0.44873 0.10501 0.14464 0.0
C672 C 0.46999 0.10545 0.1398 0.0
C673 C 0.4859 0.1146 0.13505 0.0
C674 C 0.466 0.15217 0.14403 0.0
C675 C 0.46792 0.12836 0.1387 0.0
C676 C 0.45722 0.15917 0.14782 0.0
C677 C 0.44128 0.15029 0.1471 0.0
C678 C 0.45882 0.13612 0.13993 0.0
C679 C 0.43452 0.13433 0.14081 0.0
C680 C 0.46098 0.11227 0.14148 0.0
C681 C 0.49237 0.13064 0.13336 0.0
N682 N 0.44333 0.12773 0.13792 0.0
N683 N 0.48337 0.13698 0.13515 0.0
H684 H 0.83198 0.31207 0.96861 0.0
H685 H 0.90858 0.36801 0.12951 0.0
H686 H 0.87146 0.30668 0.97215 0.0
H687 H 0.86751 0.3705 0.13979 0.0
H688 H 0.89742 0.34973 0.05167 0.0
H689 H 0.8473 0.33777 0.00726 0.0
C690 C 0.84397 0.31643 0.97592 0.0
C691 C 0.8503 0.30697 0.96884 0.0
C692 C 0.89093 0.35446 0.07028 0.0
C693 C 0.86783 0.33631 0.01416 0.0
C694 C 0.89728 0.36489 0.11494 0.0
C695 C 0.88891 0.37072 0.14177 0.0
C696 C 0.87602 0.34964 0.0526 0.0
C697 C 0.87436 0.36628 0.1206 0.0
C698 C 0.8527 0.3311 -0.00159 0.0
C699 C 0.86599 0.31341 0.97801 0.0
N700 N 0.86831 0.35587 0.07779 0.0
N701 N 0.87413 0.32754 0.00156 0.0
H702 H 0.62791 0.49071 0.08377 0.0
H703 H 0.70578 0.57155 0.07584 0.0
H704 H 0.62959 0.53439 0.08648 0.0
H705 H 0.70321 0.52747 0.08748 0.0
H706 H 0.67794 0.55833 0.07668 0.0
H707 H 0.65559 0.5042 0.08544 0.0
C708 C 0.63409 0.50315 0.08531 0.0
C709 C 0.62638 0.51142 0.08471 0.0
C710 C 0.6835 0.55158 0.07888 0.0
C711 C 0.65819 0.52699 0.08583 0.0
C712 C 0.69939 0.55911 0.07794 0.0
C713 C 0.70687 0.55062 0.08175 0.0
C714 C 0.67505 0.53546 0.08345 0.0
C715 C 0.69797 0.53452 0.08471 0.0
C716 C 0.64993 0.51085 0.08604 0.0
C717 C 0.63503 0.52753 0.08697 0.0
N718 N 0.68257 0.52749 0.08563 0.0
N719 N 0.6505 0.5348 0.08697 0.0
H720 H 0.5721 0.93332 0.82564 0.0
H721 H 0.59905 0.89696 0.07266 0.0
H722 H 0.55777 0.92802 0.0037 0.0
H723 H 0.59441 0.8843 0.8938 0.0
H724 H 0.59373 0.9174 0.04712 0.0
H725 H 0.58989 0.92468 0.85169 0.0
C726 C 0.57301 0.93081 0.87053 0.0
C727 C 0.56316 0.93102 0.91242 0.0
C728 C 0.59428 0.91039 0.01335 0.0
C729 C 0.58352 0.92122 0.9422 0.0
C730 C 0.59737 0.89875 0.02774 0.0
C731 C 0.59679 0.88865 0.98542 0.0
C732 C 0.59079 0.91206 0.95622 0.0
C733 C 0.59467 0.89163 0.92793 0.0
C734 C 0.58313 0.92582 0.8852 0.0
C735 C 0.56495 0.92773 0.96989 0.0
N736 N 0.59151 0.90293 0.91509 0.0
N737 N 0.57476 0.92273 0.98299 0.0
H738 H 0.06322 0.62296 0.86837 0.0
H739 H 0.09232 0.69929 0.801 0.0
H740 H 0.06423 0.63508 0.04648 0.0
H741 H 0.11057 0.70528 0.97284 0.0
H742 H 0.07345 0.67275 0.82667 0.0
H743 H 0.07208 0.64949 0.83979 0.0
C744 C 0.06494 0.63115 0.9014 0.0
C745 C 0.06318 0.62686 0.95993 0.0
C746 C 0.08158 0.67988 0.85872 0.0
C747 C 0.07327 0.65734 0.92754 0.0
C748 C 0.09229 0.69509 0.84429 0.0
C749 C 0.10335 0.70441 0.88431 0.0
C750 C 0.08201 0.67396 0.91344 0.0
C751 C 0.10252 0.69842 0.94011 0.0
C752 C 0.06988 0.64632 0.885 0.0
C753 C 0.0655 0.63792 0.00087 0.0
N754 N 0.09216 0.68351 0.95278 0.0
N755 N 0.0708 0.65275 0.98397 0.0
H756 H 0.30387 0.39884 0.02276 0.0
H757 H 0.36266 0.43257 0.76187 0.0
H758 H 0.29206 0.40151 0.84604 0.0
H759 H 0.37271 0.44812 0.93717 0.0
H760 H 0.33804 0.41129 0.79428 0.0
H761 H 0.3297 0.40648 0.99126 0.0
C762 C 0.30652 0.40047 0.97709 0.0
C763 C 0.29595 0.39999 0.93701 0.0
C764 C 0.34585 0.41911 0.82578 0.0
C765 C 0.32537 0.40865 0.90109 0.0
C766 C 0.35991 0.43126 0.80745 0.0
C767 C 0.36954 0.44239 0.84674 0.0
C768 C 0.34151 0.41803 0.88376 0.0
C769 C 0.36545 0.44 0.90529 0.0
C770 C 0.32129 0.40489 0.95929 0.0
C771 C 0.29999 0.40211 0.87842 0.0
N772 N 0.3516 0.4282 0.92195 0.0
N773 N 0.3145 0.40664 0.86226 0.0
H774 H 0.09765 0.46596 0.43563 0.0
H775 H 0.18101 0.47658 0.43624 0.0
H776 H 0.13885 0.50967 0.45712 0.0
H777 H 0.13973 0.43226 0.44073 0.0
H778 H 0.16573 0.48897 0.43884 0.0
H779 H 0.11294 0.45358 0.42963 0.0
C780 C 0.10991 0.473 0.43845 0.0
C781 C 0.11696 0.4889 0.44721 0.0
C782 C 0.16001 0.47653 0.4395 0.0
C783 C 0.1345 0.47473 0.44094 0.0
C784 C 0.16873 0.46943 0.43816 0.0
C785 C 0.16165 0.45333 0.43823 0.0
C786 C 0.14407 0.4675 0.44057 0.0
C787 C 0.14569 0.4447 0.44081 0.0
C788 C 0.11862 0.46589 0.43543 0.0
C789 C 0.1329 0.49739 0.45065 0.0
N790 N 0.13743 0.4519 0.44158 0.0
N791 N 0.14111 0.49019 0.4477 0.0
H792 H 0.53306 0.6259 0.37413 0.0
H793 H 0.53198 0.69911 0.49427 0.0
H794 H 0.49411 0.63222 0.37236 0.0
H795 H 0.57413 0.70167 0.44537 0.0
H796 H 0.51816 0.67236 0.46574 0.0
H797 H 0.5487 0.65225 0.40907 0.0
C798 C 0.52785 0.63287 0.37999 0.0
C799 C 0.51219 0.62675 0.37067 0.0
C800 C 0.53045 0.6787 0.46168 0.0
C801 C 0.52987 0.65658 0.41218 0.0
C802 C 0.53837 0.69394 0.4786 0.0
C803 C 0.55421 0.70269 0.47156 0.0
C804 C 0.53839 0.67209 0.43732 0.0
C805 C 0.5619 0.69532 0.45149 0.0
C806 C 0.53675 0.64783 0.40048 0.0
C807 C 0.50607 0.63632 0.37938 0.0
N808 N 0.55388 0.68044 0.43428 0.0
N809 N 0.51486 0.65064 0.40017 0.0
H810 H 0.37439 0.90395 0.40352 0.0
H811 H 0.29534 0.82446 0.40053 0.0
H812 H 0.37074 0.85946 0.42092 0.0
H813 H 0.29856 0.86881 0.40697 0.0
H814 H 0.32297 0.8371 0.40723 0.0
H815 H 0.34667 0.8913 0.40093 0.0
C816 C 0.36779 0.89152 0.40629 0.0
C817 C 0.37496 0.88277 0.41251 0.0
C818 C 0.31763 0.84407 0.4076 0.0
C819 C 0.34317 0.86823 0.41015 0.0
C820 C 0.30183 0.83685 0.40395 0.0
C821 C 0.29458 0.84558 0.40291 0.0
C822 C 0.32631 0.86016 0.40977 0.0
C823 C 0.30362 0.86161 0.40767 0.0
C824 C 0.35194 0.88431 0.40523 0.0
C825 C 0.36576 0.8667 0.41616 0.0
N826 N 0.31902 0.86839 0.41039 0.0
N827 N 0.35036 0.85996 0.41498 0.0
H828 H 0.13688 0.27301 0.81117 0.0
H829 H 0.13698 0.21904 0.06073 0.0
H830 H 0.09829 0.22857 0.85534 0.0
H831 H 0.17848 0.25728 0.99265 0.0
H832 H 0.12324 0.22103 0.97822 0.0
H833 H 0.15299 0.26677 0.87089 0.0
C834 C 0.13183 0.2619 0.8329 0.0
C835 C 0.1162 0.25134 0.82869 0.0
C836 C 0.13541 0.22882 0.98044 0.0
C837 C 0.13448 0.24415 0.8966 0.0
C838 C 0.14323 0.22763 0.02743 0.0
C839 C 0.1588 0.23802 0.03316 0.0
C840 C 0.14315 0.2408 0.93979 0.0
C841 C 0.16645 0.24901 0.98928 0.0
C842 C 0.14104 0.25832 0.86662 0.0
C843 C 0.11026 0.23708 0.85729 0.0
N844 N 0.15847 0.25034 0.9448 0.0
N845 N 0.11937 0.23398 0.89044 0.0
H846 H 0.77898 0.91936 0.09936 0.0
H847 H 0.72381 0.85551 0.87903 0.0
H848 H 0.73141 0.90488 0.08039 0.0
H849 H 0.77006 0.86709 0.91345 0.0
H850 H 0.72764 0.87704 0.93842 0.0
H851 H 0.77731 0.90432 0.01544 0.0
C852 C 0.76825 0.91325 0.07695 0.0
C853 C 0.75524 0.9131 0.09773 0.0
C854 C 0.737 0.87497 0.93226 0.0
C855 C 0.75318 0.89568 0.00216 0.0
C856 C 0.73481 0.86267 0.89849 0.0
C857 C 0.74659 0.85942 0.89157 0.0
C858 C 0.75107 0.88404 0.95929 0.0
C859 C 0.76064 0.86913 0.91748 0.0
C860 C 0.76728 0.9046 0.02914 0.0
C861 C 0.74168 0.90512 0.06647 0.0
N862 N 0.76244 0.88091 0.95052 0.0
N863 N 0.74094 0.89651 0.0208 0.0
H864 H 0.07152 0.81611 3e-05 0.0
H865 H 0.12508 0.8964 0.84263 0.0
H866 H 0.07541 0.85928 0.045 0.0
H867 H 0.12897 0.85624 0.81482 0.0
H868 H 0.10211 0.8809 0.89823 0.0
H869 H 0.0875 0.82857 0.91446 0.0
C870 C 0.07523 0.82806 0.99049 0.0
C871 C 0.07222 0.83677 0.0292 0.0
C872 C 0.10784 0.87537 0.87953 0.0
C873 C 0.09056 0.85103 0.93283 0.0
C874 C 0.12099 0.88424 0.84726 0.0
C875 C 0.12902 0.87764 0.82381 0.0
C876 C 0.10275 0.85977 0.88975 0.0
C877 C 0.12318 0.86181 0.83248 0.0
C878 C 0.08448 0.83518 0.94219 0.0
C879 C 0.07753 0.85224 0.016 0.0
N880 N 0.11045 0.85341 0.8655 0.0
N881 N 0.08657 0.85891 0.96917 0.0
H882 H 0.24014 0.09938 0.61907 0.0
H883 H 0.27659 0.18204 0.46742 0.0
H884 H 0.28607 0.13563 0.65256 0.0
H885 H 0.23772 0.14069 0.40624 0.0
H886 H 0.27718 0.16764 0.55318 0.0
H887 H 0.23622 0.11703 0.55996 0.0
C888 C 0.24938 0.11114 0.6148 0.0
C889 C 0.2635 0.116 0.64072 0.0
C890 C 0.26833 0.16186 0.52156 0.0
C891 C 0.25914 0.13627 0.57136 0.0
C892 C 0.2679 0.17006 0.47316 0.0
C893 C 0.25708 0.16242 0.43026 0.0
C894 C 0.25775 0.14607 0.52676 0.0
C895 C 0.24623 0.1469 0.43859 0.0
C896 C 0.24712 0.12121 0.58065 0.0
C897 C 0.27505 0.13138 0.63285 0.0
N898 N 0.24689 0.13921 0.48577 0.0
N899 N 0.27268 0.14098 0.59816 0.0
H900 H 0.84972 0.07701 0.40662 0.0
H901 H 0.86035 0.14387 0.61535 0.0
H902 H 0.81932 0.09518 0.41114 0.0
H903 H 0.89459 0.13167 0.58111 0.0
H904 H 0.84224 0.12191 0.55857 0.0
H905 H 0.86284 0.09229 0.4905 0.0
C906 C 0.84561 0.08397 0.42591 0.0
C907 C 0.83366 0.08513 0.40099 0.0
C908 C 0.85367 0.12395 0.56432 0.0
C909 C 0.84871 0.10274 0.49643 0.0
C910 C 0.86401 0.13649 0.59656 0.0
C911 C 0.87904 0.13968 0.6027 0.0
C912 C 0.85843 0.11457 0.53823 0.0
C913 C 0.88315 0.12968 0.57773 0.0
C914 C 0.85315 0.09274 0.47364 0.0
C915 C 0.8287 0.09419 0.42827 0.0
N916 N 0.87294 0.11765 0.54629 0.0
N917 N 0.83641 0.10285 0.474 0.0
H918 H 0.87303 0.72665 0.6946 0.0
H919 H 0.93175 0.7819 0.45782 0.0
H920 H 0.88179 0.77232 0.65258 0.0
H921 H 0.92697 0.73817 0.50558 0.0
H922 H 0.9173 0.78059 0.5435 0.0
H923 H 0.89568 0.73208 0.63863 0.0
C924 C 0.87981 0.73788 0.6743 0.0
C925 C 0.87542 0.74899 0.67775 0.0
C926 C 0.91966 0.7714 0.53625 0.0
C927 C 0.90129 0.75528 0.61409 0.0
C928 C 0.928 0.77223 0.48755 0.0
C929 C 0.93045 0.76012 0.475 0.0
C930 C 0.9133 0.75811 0.57155 0.0
C931 C 0.92533 0.74777 0.51431 0.0
C932 C 0.89277 0.74099 0.64262 0.0
C933 C 0.88468 0.76337 0.65108 0.0
N934 N 0.91664 0.74689 0.56036 0.0
N935 N 0.89705 0.76602 0.61994 0.0
H936 H 0.88512 0.78486 0.92788 0.0
H937 H 0.90674 0.73534 0.13422 0.0
H938 H 0.86346 0.73567 0.91098 0.0
H939 H 0.90207 0.77276 0.19781 0.0
H940 H 0.8962 0.7376 0.04126 0.0
H941 H 0.89676 0.78289 0.01794 0.0
C942 C 0.88282 0.77367 0.94317 0.0
C943 C 0.87321 0.76039 0.91242 0.0
C944 C 0.89758 0.74532 0.07572 0.0
C945 C 0.88677 0.75814 0.01385 0.0
C946 C 0.90364 0.74409 0.12836 0.0
C947 C 0.90515 0.75381 0.17358 0.0
C948 C 0.89347 0.75661 0.06817 0.0
C949 C 0.90093 0.76495 0.16409 0.0
C950 C 0.88944 0.77256 0.99435 0.0
C951 C 0.87064 0.74616 0.9339 0.0
N952 N 0.89538 0.76612 0.11231 0.0
N953 N 0.8775 0.74541 0.98314 0.0
H954 H 0.2723 0.10355 0.91179 0.0
H955 H 0.2584 0.16351 0.08568 0.0
H956 H 0.2386 0.11551 0.86214 0.0
H957 H 0.28436 0.14336 0.14944 0.0
H958 H 0.2539 0.14916 0.99606 0.0
H959 H 0.27904 0.12059 0.9934 0.0
C960 C 0.26622 0.10968 0.91823 0.0
C961 C 0.2548 0.10801 0.88009 0.0
C962 C 0.26074 0.14807 0.02946 0.0
C963 C 0.26265 0.12779 0.97347 0.0
C964 C 0.26348 0.1564 0.08017 0.0
C965 C 0.27171 0.15455 0.12496 0.0
C966 C 0.26642 0.138 0.02365 0.0
C967 C 0.27786 0.14503 0.11606 0.0
C968 C 0.27013 0.11947 0.96481 0.0
C969 C 0.24739 0.11632 0.89072 0.0
N970 N 0.27502 0.13706 0.06667 0.0
N971 N 0.25147 0.12591 0.93636 0.0
H972 H 0.82785 0.08404 0.023 0.0
H973 H 0.89591 0.15996 0.87947 0.0
H974 H 0.8571 0.12396 0.12285 0.0
H975 H 0.8801 0.11478 0.81157 0.0
H976 H 0.87946 0.14805 0.96421 0.0
H977 H 0.84425 0.09647 0.9386 0.0
C978 C 0.8376 0.09549 0.02696 0.0
C979 C 0.84116 0.10298 0.07995 0.0
C980 C 0.87969 0.14078 0.93084 0.0
C981 C 0.85991 0.1172 0.98391 0.0
C982 C 0.88907 0.14755 0.88257 0.0
C983 C 0.88942 0.13834 0.83851 0.0
C984 C 0.87038 0.12474 0.93441 0.0
C985 C 0.88029 0.12231 0.84471 0.0
C986 C 0.84701 0.10251 0.97899 0.0
C987 C 0.854 0.11777 0.08281 0.0
N988 N 0.87103 0.11602 0.8915 0.0
N989 N 0.8629 0.12443 0.03538 0.0
H990 H 0.74516 0.91249 0.46941 0.0
H991 H 0.74291 0.83908 0.61113 0.0
H992 H 0.73869 0.87435 0.36669 0.0
H993 H 0.77018 0.88462 0.67919 0.0
H994 H 0.7375 0.85029 0.52623 0.0
H995 H 0.74996 0.90059 0.55343 0.0
C996 C 0.74453 0.90151 0.46472 0.0
C997 C 0.74156 0.8944 0.41101 0.0
C998 C 0.74474 0.85779 0.55966 0.0
C999 C 0.74705 0.88079 0.50675 0.0
C1000 C 0.74784 0.85144 0.60801 0.0
C1001 C 0.75706 0.86095 0.65214 0.0
C1002 C 0.7506 0.87372 0.55615 0.0
C1003 C 0.76314 0.87688 0.64596 0.0
C1004 C 0.74741 0.89481 0.51251 0.0
C1005 C 0.74099 0.88022 0.40731 0.0
N1006 N 0.75966 0.88275 0.59913 0.0
N1007 N 0.74368 0.87384 0.45462 0.0
H1008 H 0.12531 0.86289 0.29096 0.0
H1009 H 0.10964 0.88306 0.60288 0.0
H1010 H 0.08108 0.83788 0.37258 0.0
H1011 H 0.15419 0.89263 0.54835 0.0
H1012 H 0.09891 0.86837 0.51509 0.0
H1013 H 0.13618 0.8753 0.38236 0.0
C1014 C 0.11793 0.85985 0.32841 0.0
C1015 C 0.10228 0.84935 0.32427 0.0
C1016 C 0.11103 0.87368 0.52248 0.0
C1017 C 0.11457 0.8638 0.42851 0.0
C1018 C 0.11719 0.8822 0.57222 0.0
C1019 C 0.13286 0.88915 0.58286 0.0
C1020 C 0.12063 0.87231 0.48264 0.0
C1021 C 0.14206 0.88748 0.54191 0.0
C1022 C 0.12414 0.86696 0.38049 0.0
C1023 C 0.09322 0.84584 0.37408 0.0
N1024 N 0.13582 0.87932 0.49345 0.0
N1025 N 0.09947 0.85324 0.42404 0.0
H1026 H 0.10824 0.26293 0.55849 0.0
H1027 H 0.15902 0.23727 0.38077 0.0
H1028 H 0.11317 0.22431 0.61012 0.0
H1029 H 0.14339 0.267 0.31353 0.0
H1030 H 0.14611 0.23545 0.47287 0.0
H1031 H 0.12446 0.26716 0.47498 0.0
C1032 C 0.11267 0.25528 0.5522 0.0
C1033 C 0.10921 0.24316 0.59128 0.0
C1034 C 0.14571 0.24252 0.43809 0.0
C1035 C 0.12802 0.2481 0.4957 0.0
C1036 C 0.1532 0.2437 0.38595 0.0
C1037 C 0.15218 0.25225 0.3397 0.0
C1038 C 0.13736 0.25011 0.44375 0.0
C1039 C 0.14435 0.26021 0.34814 0.0
C1040 C 0.12199 0.25774 0.50451 0.0
C1041 C 0.1154 0.2337 0.58083 0.0
N1042 N 0.1372 0.25889 0.39895 0.0
N1043 N 0.12453 0.23637 0.53404 0.0
H1044 H 0.84957 0.59282 0.35932 0.0
H1045 H 0.76956 0.55829 0.20603 0.0
H1046 H 0.8097 0.54933 0.40162 0.0
H1047 H 0.80664 0.60442 0.17246 0.0
H1048 H 0.78665 0.55259 0.2587 0.0
H1049 H 0.83672 0.59482 0.27265 0.0
C1050 C 0.83836 0.58342 0.34895 0.0
C1051 C 0.83057 0.57091 0.38721 0.0
C1052 C 0.79117 0.56393 0.2393 0.0
C1053 C 0.81582 0.5732 0.28986 0.0
C1054 C 0.78137 0.56719 0.20881 0.0
C1055 C 0.78662 0.5819 0.18488 0.0
C1056 C 0.80631 0.57553 0.24736 0.0
C1057 C 0.80208 0.59296 0.19076 0.0
C1058 C 0.83098 0.58463 0.30001 0.0
C1059 C 0.81599 0.55916 0.37298 0.0
N1060 N 0.81137 0.58963 0.22228 0.0
N1061 N 0.80902 0.56067 0.32576 0.0
H1062 H 0.41748 0.18243 0.33855 0.0
H1063 H 0.41427 0.25583 0.40137 0.0
H1064 H 0.38367 0.18967 0.25508 0.0
H1065 H 0.42784 0.23433 0.53167 0.0
H1066 H 0.40169 0.23164 0.34905 0.0
H1067 H 0.42106 0.20138 0.41016 0.0
C1068 C 0.41077 0.18801 0.33543 0.0
C1069 C 0.40041 0.18465 0.29045 0.0
C1070 C 0.40704 0.23207 0.38987 0.0
C1071 C 0.40451 0.20644 0.37227 0.0
C1072 C 0.41417 0.24583 0.41977 0.0
C1073 C 0.4221 0.24699 0.47064 0.0
C1074 C 0.40836 0.2196 0.41007 0.0
C1075 C 0.42178 0.23383 0.49264 0.0
C1076 C 0.4127 0.1987 0.3767 0.0
C1077 C 0.39184 0.19204 0.28895 0.0
N1078 N 0.41537 0.22075 0.4614 0.0
N1079 N 0.3943 0.20286 0.3287 0.0
H1080 H 0.79418 0.24671 0.09459 0.0
H1081 H 0.74118 0.16586 0.25157 0.0
H1082 H 0.79931 0.20715 0.07013 0.0
H1083 H 0.74846 0.20943 0.31009 0.0
H1084 H 0.75662 0.17886 0.16516 0.0
H1085 H 0.77163 0.231 0.15309 0.0
C1086 C 0.79044 0.23464 0.10067 0.0
C1087 C 0.79874 0.22827 0.07778 0.0
C1088 C 0.75448 0.18547 0.19626 0.0
C1089 C 0.77296 0.21024 0.14572 0.0
C1090 C 0.74557 0.17806 0.24504 0.0
C1091 C 0.74363 0.18668 0.28749 0.0
C1092 C 0.76123 0.20149 0.19017 0.0
C1093 C 0.74976 0.20246 0.27809 0.0
C1094 C 0.77756 0.22569 0.13434 0.0
C1095 C 0.79333 0.21256 0.08752 0.0
N1096 N 0.75839 0.20939 0.23056 0.0
N1097 N 0.78083 0.20408 0.12145 0.0
H1098 H 0.90987 0.49028 0.87819 0.0
H1099 H 0.89038 0.40918 0.01566 0.0
H1100 H 0.8826 0.44726 0.79233 0.0
H1101 H 0.93233 0.45125 0.04885 0.0
H1102 H 0.88284 0.42343 0.95028 0.0
H1103 H 0.91328 0.47627 0.95897 0.0
C1104 C 0.90423 0.47785 0.87725 0.0
C1105 C 0.89594 0.46984 0.8289 0.0
C1106 C 0.89364 0.42952 0.97225 0.0
C1107 C 0.89983 0.45391 0.92014 0.0
C1108 C 0.89795 0.42143 0.00945 0.0
C1109 C 0.91207 0.42905 0.03707 0.0
C1110 C 0.90341 0.44536 0.96341 0.0
C1111 C 0.92144 0.44493 0.02773 0.0
C1112 C 0.90631 0.46992 0.92287 0.0
C1113 C 0.88908 0.4538 0.82902 0.0
N1114 N 0.91693 0.45259 0.99157 0.0
N1115 N 0.89122 0.44633 0.87393 0.0
H1116 H 0.56373 0.46135 0.94248 0.0
H1117 H 0.48599 0.42418 0.77456 0.0
H1118 H 0.52925 0.47347 0.9726 0.0
H1119 H 0.51832 0.4085 0.76261 0.0
H1120 H 0.4996 0.43939 0.85781 0.0
H1121 H 0.54566 0.43957 0.88678 0.0
C1122 C 0.55229 0.45932 0.93817 0.0
C1123 C 0.54804 0.46931 0.96216 0.0
C1124 C 0.50356 0.43241 0.83764 0.0
C1125 C 0.52727 0.44445 0.89709 0.0
C1126 C 0.49579 0.4237 0.79012 0.0
C1127 C 0.50126 0.41535 0.76075 0.0
C1128 C 0.51697 0.43289 0.85548 0.0
C1129 C 0.51384 0.41496 0.78334 0.0
C1130 C 0.54194 0.44684 0.90617 0.0
C1131 C 0.53305 0.46613 0.95445 0.0
N1132 N 0.52145 0.42386 0.82873 0.0
N1133 N 0.52325 0.45407 0.92193 0.0
H1134 H 0.58898 0.07471 0.85737 0.0
H1135 H 0.54342 0.10945 0.01071 0.0
H1136 H 0.59168 0.11757 0.81044 0.0
H1137 H 0.53435 0.06322 0.04188 0.0
H1138 H 0.56615 0.11516 0.95663 0.0
H1139 H 0.57433 0.07312 0.94401 0.0
C1140 C 0.587 0.08407 0.86665 0.0
C1141 C 0.59141 0.09626 0.82711 0.0
C1142 C 0.55932 0.1038 0.97588 0.0
C1143 C 0.57458 0.09442 0.92453 0.0
C1144 C 0.54631 0.10054 0.00694 0.0
C1145 C 0.53684 0.08577 0.0303 0.0
C1146 C 0.56282 0.09217 0.96727 0.0
C1147 C 0.54123 0.07471 0.0239 0.0
C1148 C 0.57852 0.08308 0.91559 0.0
C1149 C 0.58837 0.10796 0.84007 0.0
N1150 N 0.5538 0.07806 0.99221 0.0
N1151 N 0.57998 0.10667 0.88735 0.0
H1152 H 0.54283 0.11979 0.28537 0.0
H1153 H 0.56917 0.07321 0.4847 0.0
H1154 H 0.52487 0.07131 0.26068 0.0
H1155 H 0.55868 0.10613 0.55573 0.0
H1156 H 0.55836 0.07524 0.39212 0.0
H1157 H 0.55419 0.11787 0.3763 0.0
C1158 C 0.54128 0.10877 0.29914 0.0
C1159 C 0.5328 0.09566 0.26595 0.0
C1160 C 0.5585 0.08201 0.42817 0.0
C1161 C 0.54607 0.09351 0.3683 0.0
C1162 C 0.5647 0.08091 0.48063 0.0
C1163 C 0.56469 0.08943 0.52779 0.0
C1164 C 0.55274 0.09203 0.42273 0.0
C1165 C 0.55874 0.09925 0.5205 0.0
C1166 C 0.54774 0.10769 0.35081 0.0
C1167 C 0.53117 0.08164 0.28551 0.0
N1168 N 0.55312 0.10039 0.4688 0.0
N1169 N 0.53788 0.08095 0.33523 0.0
H1170 H 0.93437 0.43998 0.29373 0.0
H1171 H 0.90434 0.48409 0.48867 0.0
H1172 H 0.89314 0.44084 0.25765 0.0
H1173 H 0.93653 0.47071 0.54396 0.0
H1174 H 0.90451 0.4745 0.3921 0.0
H1175 H 0.93938 0.45724 0.37353 0.0
C1176 C 0.9264 0.44387 0.30221 0.0
C1177 C 0.91314 0.43867 0.2694 0.0
C1178 C 0.91176 0.47396 0.42515 0.0
C1179 C 0.91891 0.45857 0.36107 0.0
C1180 C 0.91178 0.47957 0.47998 0.0
C1181 C 0.92033 0.47804 0.52431 0.0
C1182 C 0.9205 0.467 0.41478 0.0
C1183 C 0.92966 0.47195 0.51105 0.0
C1184 C 0.9293 0.45376 0.34785 0.0
C1185 C 0.90339 0.44435 0.28221 0.0
N1186 N 0.9294 0.46654 0.45766 0.0
N1187 N 0.90639 0.45388 0.32745 0.0
H1188 H 0.52395 0.45461 0.4855 0.0
H1189 H 0.54779 0.44346 0.17225 0.0
H1190 H 0.49582 0.41439 0.38523 0.0
H1191 H 0.56229 0.48847 0.23932 0.0
H1192 H 0.53116 0.43191 0.25651 0.0
H1193 H 0.54025 0.46675 0.40074 0.0
C1194 C 0.52113 0.44839 0.44549 0.0
C1195 C 0.50852 0.43348 0.44225 0.0
C1196 C 0.53802 0.44431 0.25273 0.0
C1197 C 0.52728 0.44715 0.34587 0.0
C1198 C 0.54762 0.45092 0.205 0.0
C1199 C 0.55645 0.46696 0.19877 0.0
C1200 C 0.53743 0.45381 0.29499 0.0
C1201 C 0.55565 0.47605 0.24233 0.0
C1202 C 0.53044 0.45532 0.39726 0.0
C1203 C 0.50539 0.42593 0.38943 0.0
N1204 N 0.54634 0.46934 0.28878 0.0
N1205 N 0.51483 0.43279 0.34341 0.0
H1206 H 0.43897 0.22712 0.74366 0.0
H1207 H 0.3923 0.18041 0.02332 0.0
H1208 H 0.39561 0.22237 0.78755 0.0
H1209 H 0.44136 0.20725 0.02145 0.0
H1210 H 0.39204 0.19098 0.92775 0.0
H1211 H 0.43856 0.21463 0.83591 0.0
C1212 C 0.42923 0.22318 0.77217 0.0
C1213 C 0.41731 0.22581 0.75803 0.0
C1214 C 0.40285 0.19453 0.94835 0.0
C1215 C 0.41679 0.21155 0.86321 0.0
C1216 C 0.40302 0.18851 0.00278 0.0
C1217 C 0.41689 0.19303 0.03057 0.0
C1218 C 0.41663 0.20486 0.92078 0.0
C1219 C 0.43043 0.20357 0.00185 0.0
C1220 C 0.4291 0.21622 0.82496 0.0
C1221 C 0.40506 0.22064 0.7969 0.0
N1222 N 0.42997 0.20904 0.94828 0.0
N1223 N 0.40508 0.21371 0.84766 0.0
H1224 H 0.74849 0.18495 0.63164 0.0
H1225 H 0.8243 0.2393 0.80663 0.0
H1226 H 0.79363 0.20496 0.55825 0.0
H1227 H 0.78019 0.23257 0.85247 0.0
H1228 H 0.81294 0.22307 0.72289 0.0
H1229 H 0.75972 0.19808 0.72219 0.0
C1230 C 0.76076 0.1918 0.63505 0.0
C1231 C 0.77016 0.19397 0.58739 0.0
C1232 C 0.80577 0.22518 0.75128 0.0
C1233 C 0.783 0.20907 0.69008 0.0
C1234 C 0.81225 0.23448 0.79896 0.0
C1235 C 0.80321 0.23743 0.83637 0.0
C1236 C 0.79011 0.21859 0.74131 0.0
C1237 C 0.78763 0.23078 0.82442 0.0
C1238 C 0.76714 0.19942 0.68639 0.0
C1239 C 0.78598 0.20309 0.59388 0.0
N1240 N 0.78156 0.22162 0.77804 0.0
N1241 N 0.7919 0.21036 0.64414 0.0
H1242 H 0.77926 0.55385 0.97274 0.0
H1243 H 0.79787 0.58906 0.65442 0.0
H1244 H 0.76893 0.58839 0.91337 0.0
H1245 H 0.82289 0.56975 0.7348 0.0
H1246 H 0.78513 0.58672 0.74619 0.0
H1247 H 0.79296 0.55697 0.88218 0.0
C1248 C 0.77975 0.56198 0.9405 0.0
C1249 C 0.77291 0.57085 0.95058 0.0
C1250 C 0.79348 0.58309 0.74389 0.0
C1251 C 0.78858 0.57448 0.84726 0.0
C1252 C 0.80075 0.5844 0.69154 0.0
C1253 C 0.81144 0.57956 0.68702 0.0
C1254 C 0.79671 0.57665 0.79196 0.0
C1255 C 0.81478 0.57368 0.73655 0.0
C1256 C 0.78768 0.56384 0.88913 0.0
C1257 C 0.77405 0.58132 0.90749 0.0
N1258 N 0.8073 0.57223 0.78697 0.0
N1259 N 0.78167 0.58279 0.85761 0.0
H1260 H 0.43802 0.89086 0.54045 0.0
H1261 H 0.5188 0.92717 0.69128 0.0
H1262 H 0.47439 0.93738 0.50749 0.0
H1263 H 0.47891 0.88456 0.74213 0.0
H1264 H 0.5053 0.92835 0.60522 0.0
H1265 H 0.45542 0.88585 0.59512 0.0
C1266 C 0.44973 0.89999 0.54391 0.0
C1267 C 0.4547 0.91461 0.51976 0.0
C1268 C 0.49967 0.91853 0.63443 0.0
C1269 C 0.47469 0.90902 0.5837 0.0
C1270 C 0.50741 0.91779 0.68304 0.0
C1271 C 0.49985 0.90577 0.72344 0.0
C1272 C 0.48439 0.90712 0.62662 0.0
C1273 C 0.48504 0.89403 0.71181 0.0
C1274 C 0.45968 0.89712 0.57538 0.0
C1275 C 0.47004 0.92598 0.52601 0.0
N1276 N 0.47773 0.89507 0.66475 0.0
N1277 N 0.47948 0.92301 0.55815 0.0
H1278 H 0.06059 0.57394 0.76054 0.0
H1279 H 0.05467 0.52355 0.54931 0.0
H1280 H 0.10692 0.58411 0.78028 0.0
H1281 H 0.09948 0.53422 0.60347 0.0
H1282 H 0.05709 0.54473 0.60596 0.0
H1283 H 0.05812 0.55896 0.67664 0.0
C1284 C 0.07038 0.57326 0.7464 0.0
C1285 C 0.08387 0.57999 0.77833 0.0
C1286 C 0.06643 0.54253 0.60598 0.0
C1287 C 0.08117 0.56265 0.68159 0.0
C1288 C 0.06503 0.53039 0.57324 0.0
C1289 C 0.07678 0.52697 0.5724 0.0
C1290 C 0.07963 0.55118 0.63882 0.0
C1291 C 0.09007 0.53636 0.60319 0.0
C1292 C 0.06897 0.56462 0.69807 0.0
C1293 C 0.09622 0.57892 0.75756 0.0
N1294 N 0.09105 0.54791 0.63554 0.0
N1295 N 0.09447 0.57017 0.7111 0.0
H1296 H 0.40108 0.48538 0.62515 0.0
H1297 H 0.44951 0.56318 0.4469 0.0
H1298 H 0.40459 0.5288 0.66272 0.0
H1299 H 0.45698 0.52476 0.43504 0.0
H1300 H 0.42663 0.54736 0.50255 0.0
H1301 H 0.41508 0.49651 0.5344 0.0
C1302 C 0.40428 0.49706 0.61307 0.0
C1303 C 0.40179 0.50628 0.65103 0.0
C1304 C 0.43312 0.54228 0.48709 0.0
C1305 C 0.41778 0.519 0.54862 0.0
C1306 C 0.44624 0.55133 0.45487 0.0
C1307 C 0.45536 0.54539 0.43666 0.0
C1308 C 0.42919 0.52722 0.50255 0.0
C1309 C 0.45038 0.52986 0.44882 0.0
C1310 C 0.41237 0.50343 0.56173 0.0
C1311 C 0.40637 0.5214 0.63441 0.0
N1312 N 0.43773 0.52135 0.4821 0.0
N1313 N 0.41428 0.52733 0.58462 0.0
H1314 H 0.58709 0.84374 0.19359 0.0
H1315 H 0.5598 0.76397 0.35583 0.0
H1316 H 0.54639 0.80101 0.15614 0.0
H1317 H 0.60436 0.80364 0.3802 0.0
H1318 H 0.55247 0.77961 0.30066 0.0
H1319 H 0.59111 0.8315 0.27879 0.0
C1320 C 0.57867 0.83197 0.20477 0.0
C1321 C 0.56637 0.8233 0.16823 0.0
C1322 C 0.56381 0.78502 0.3185 0.0
C1323 C 0.57099 0.80927 0.26425 0.0
C1324 C 0.56802 0.77607 0.35063 0.0
C1325 C 0.58274 0.78247 0.37309 0.0
C1326 C 0.57448 0.80051 0.30721 0.0
C1327 C 0.59291 0.79822 0.36344 0.0
C1328 C 0.58107 0.82495 0.25286 0.0
C1329 C 0.55599 0.80803 0.18345 0.0
N1330 N 0.58865 0.8067 0.33044 0.0
N1331 N 0.55861 0.80146 0.23003 0.0
H1332 H 0.19893 0.81095 0.27952 0.0
H1333 H 0.19056 0.74718 0.05888 0.0
H1334 H 0.23386 0.79977 0.24421 0.0
H1335 H 0.15694 0.76093 0.07944 0.0
H1336 H 0.20421 0.76272 0.14141 0.0
H1337 H 0.18141 0.78957 0.2191 0.0
C1338 C 0.20287 0.80393 0.25954 0.0
C1339 C 0.2179 0.8072 0.26674 0.0
C1340 C 0.19373 0.76218 0.12834 0.0
C1341 C 0.19797 0.78275 0.19795 0.0
C1342 C 0.18589 0.75325 0.08134 0.0
C1343 C 0.17277 0.75301 0.06147 0.0
C1344 C 0.18845 0.77101 0.15544 0.0
C1345 C 0.16716 0.76097 0.09273 0.0
C1346 C 0.19287 0.79171 0.22523 0.0
C1347 C 0.22238 0.79768 0.24012 0.0
N1348 N 0.17517 0.76985 0.13763 0.0
N1349 N 0.2125 0.78597 0.20666 0.0
H1350 H 0.26153 0.40911 0.16474 0.0
H1351 H 0.21772 0.44588 0.31609 0.0
H1352 H 0.26417 0.45168 0.11339 0.0
H1353 H 0.2073 0.3992 0.34744 0.0
H1354 H 0.24041 0.45101 0.26315 0.0
H1355 H 0.24764 0.40844 0.25236 0.0
C1356 C 0.25969 0.4186 0.17315 0.0
C1357 C 0.2638 0.43041 0.13207 0.0
C1358 C 0.23329 0.43969 0.28226 0.0
C1359 C 0.24789 0.42963 0.2307 0.0
C1360 C 0.2203 0.43675 0.31269 0.0
C1361 C 0.21046 0.42202 0.33562 0.0
C1362 C 0.23637 0.42777 0.27378 0.0
C1363 C 0.21447 0.41066 0.32968 0.0
C1364 C 0.25166 0.41815 0.22269 0.0
C1365 C 0.26103 0.44233 0.14412 0.0
N1366 N 0.22702 0.4137 0.29847 0.0
N1367 N 0.25307 0.44155 0.19204 0.0
H1368 H 0.23936 0.40623 0.79142 0.0
H1369 H 0.21726 0.45587 0.58896 0.0
H1370 H 0.23309 0.44237 0.85858 0.0
H1371 H 0.19672 0.40696 0.56642 0.0
H1372 H 0.22825 0.45343 0.67992 0.0
H1373 H 0.22882 0.40867 0.69878 0.0
C1374 C 0.23588 0.41472 0.78646 0.0
C1375 C 0.23698 0.42405 0.83253 0.0
C1376 C 0.22131 0.44326 0.65494 0.0
C1377 C 0.2253 0.42705 0.7275 0.0
C1378 C 0.21506 0.44464 0.60324 0.0
C1379 C 0.20598 0.43158 0.57058 0.0
C1380 C 0.2188 0.42881 0.67307 0.0
C1381 C 0.20351 0.41728 0.59081 0.0
C1382 C 0.22982 0.41604 0.73399 0.0
C1383 C 0.23228 0.43486 0.82418 0.0
N1384 N 0.21002 0.41628 0.64061 0.0
N1385 N 0.22675 0.43615 0.77252 0.0
H1386 H 0.57337 0.82138 0.8228 0.0
H1387 H 0.592 0.76484 0.6502 0.0
H1388 H 0.58916 0.79359 0.90716 0.0
H1389 H 0.55846 0.77633 0.59374 0.0
H1390 H 0.59507 0.77889 0.73922 0.0
H1391 H 0.57236 0.80892 0.73157 0.0
C1392 C 0.57687 0.81286 0.82194 0.0
C1393 C 0.58128 0.80845 0.87264 0.0
C1394 C 0.58702 0.77827 0.7073 0.0
C1395 C 0.58014 0.7942 0.76881 0.0
C1396 C 0.58524 0.77025 0.65661 0.0
C1397 C 0.57487 0.7693 0.61467 0.0
C1398 C 0.5786 0.78565 0.71554 0.0
C1399 C 0.56646 0.77661 0.62516 0.0
C1400 C 0.57615 0.80567 0.77007 0.0
C1401 C 0.58558 0.79725 0.86913 0.0
N1402 N 0.56859 0.78457 0.67435 0.0
N1403 N 0.58491 0.79051 0.81812 0.0
H1404 H 0.16076 0.75044 0.69064 0.0
H1405 H 0.23135 0.82463 0.54873 0.0
H1406 H 0.19187 0.7895 0.79074 0.0
H1407 H 0.21315 0.77937 0.47815 0.0
H1408 H 0.21445 0.81321 0.63245 0.0
H1409 H 0.17708 0.76243 0.6056 0.0
C1410 C 0.17089 0.76163 0.6945 0.0
C1411 C 0.17502 0.76898 0.74776 0.0
C1412 C 0.21423 0.80579 0.59871 0.0
C1413 C 0.19365 0.78268 0.65107 0.0
C1414 C 0.22385 0.81228 0.551 0.0
C1415 C 0.2237 0.80291 0.50657 0.0
C1416 C 0.20416 0.78987 0.60147 0.0
C1417 C 0.21374 0.78699 0.51168 0.0
C1418 C 0.18025 0.76838 0.64618 0.0
C1419 C 0.18832 0.78342 0.75051 0.0
N1420 N 0.20426 0.78096 0.55809 0.0
N1421 N 0.19716 0.78982 0.70278 0.0
H1422 H 0.0673 0.54201 0.04979 0.0
H1423 H 0.10145 0.55432 0.36483 0.0
H1424 H 0.07609 0.58108 0.15159 0.0
H1425 H 0.0738 0.50906 0.29483 0.0
H1426 H 0.09542 0.56527 0.281 0.0
H1427 H 0.07213 0.53038 0.13458 0.0
C1428 C 0.07009 0.54806 0.09017 0.0
C1429 C 0.07129 0.56252 0.09379 0.0
C1430 C 0.09071 0.55295 0.28406 0.0
C1431 C 0.07718 0.54947 0.19026 0.0
C1432 C 0.09427 0.5467 0.33153 0.0
C1433 C 0.08813 0.53075 0.33677 0.0
C1434 C 0.08117 0.5432 0.24109 0.0
C1435 C 0.07875 0.52142 0.29257 0.0
C1436 C 0.07286 0.54143 0.13842 0.0
C1437 C 0.07497 0.56987 0.14708 0.0
N1438 N 0.07561 0.52779 0.24641 0.0
N1439 N 0.07797 0.56335 0.19314 0.0
H1440 H 0.4572 0.53724 0.90925 0.0
H1441 H 0.44217 0.55918 0.21908 0.0
H1442 H 0.41329 0.51269 0.99362 0.0
H1443 H 0.48629 0.56652 0.16968 0.0
H1444 H 0.43164 0.54521 0.13003 0.0
H1445 H 0.46835 0.55054 -0.00077 0.0
C1446 C 0.44994 0.53453 0.94692 0.0
C1447 C 0.43429 0.52383 0.94404 0.0
C1448 C 0.44363 0.54992 0.13868 0.0
C1449 C 0.44691 0.53928 0.04641 0.0
C1450 C 0.44971 0.55806 0.18916 0.0
C1451 C 0.46517 0.56407 0.20187 0.0
C1452 C 0.4531 0.54799 0.10005 0.0
C1453 C 0.47432 0.56207 0.16165 0.0
C1454 C 0.45631 0.54213 0.99813 0.0
C1455 C 0.42542 0.52076 0.99409 0.0
N1456 N 0.46816 0.55425 0.11238 0.0
N1457 N 0.43182 0.52861 0.04307 0.0
H1458 H 0.49483 0.90562 0.07159 0.0
H1459 H 0.43742 0.9222 0.24806 0.0
H1460 H 0.46895 0.92426 0.99347 0.0
H1461 H 0.44921 0.88853 0.30462 0.0
H1462 H 0.45189 0.92614 0.15917 0.0
H1463 H 0.48148 0.90272 0.16327 0.0
C1464 C 0.48651 0.9093 0.07394 0.0
C1465 C 0.48294 0.91513 0.02487 0.0
C1466 C 0.45126 0.91785 0.19096 0.0
C1467 C 0.46769 0.91183 0.12901 0.0
C1468 C 0.44299 0.91558 0.24168 0.0
C1469 C 0.44203 0.90495 0.28371 0.0
C1470 C 0.45884 0.90962 0.1825 0.0
C1471 C 0.44953 0.89672 0.27312 0.0
C1472 C 0.47882 0.90751 0.126 0.0
C1473 C 0.47198 0.9196 0.03014 0.0
N1474 N 0.45771 0.8993 0.22368 0.0
N1475 N 0.46476 0.91788 0.08123 0.0
H1476 H 0.2041 0.37394 0.05961 0.0
H1477 H 0.20744 0.29759 0.12436 0.0
H1478 H 0.24372 0.37004 0.02502 0.0
H1479 H 0.16526 0.29793 0.1117 0.0
H1480 H 0.22132 0.32481 0.09657 0.0
H1481 H 0.19001 0.34664 0.08681 0.0
C1482 C 0.20984 0.36736 0.05758 0.0
C1483 C 0.22512 0.37432 0.03987 0.0
C1484 C 0.20902 0.31891 0.09982 0.0
C1485 C 0.20909 0.34312 0.07146 0.0
C1486 C 0.20109 0.30338 0.11594 0.0
C1487 C 0.18514 0.29543 0.12034 0.0
C1488 C 0.20099 0.32662 0.0886 0.0
C1489 C 0.17754 0.30356 0.10865 0.0
C1490 C 0.20177 0.35177 0.07304 0.0
C1491 C 0.23194 0.36518 0.03811 0.0
N1492 N 0.18554 0.31872 0.09352 0.0
N1493 N 0.2239 0.35009 0.05399 0.0
H1494 H 0.69823 0.8951 0.1732 0.0
H1495 H 0.61208 0.82748 0.18376 0.0
H1496 H 0.67421 0.87652 0.3344 0.0
H1497 H 0.62983 0.86153 0.04621 0.0
H1498 H 0.63614 0.84212 0.23499 0.0
H1499 H 0.67448 0.8796 0.12162 0.0
C1500 C 0.68797 0.88768 0.19781 0.0
C1501 C 0.6882 0.88711 0.25832 0.0
C1502 C 0.63477 0.84631 0.19346 0.0
C1503 C 0.66103 0.86926 0.19923 0.0
C1504 C 0.62112 0.83792 0.16392 0.0
C1505 C 0.61901 0.84327 0.11041 0.0
C1506 C 0.64648 0.85998 0.16884 0.0
C1507 C 0.63101 0.857 0.08728 0.0
C1508 C 0.67443 0.87891 0.16826 0.0
C1509 C 0.67453 0.87735 0.2878 0.0
N1510 N 0.64429 0.86485 0.11649 0.0
N1511 N 0.66148 0.86871 0.25791 0.0
H1512 H 0.10726 0.76651 0.8623 0.0
H1513 H 0.12766 0.83364 0.08191 0.0
H1514 H 0.15029 0.78858 0.95052 0.0
H1515 H 0.08224 0.79461 0.06909 0.0
H1516 H 0.137 0.82052 0.02008 0.0
H1517 H 0.09868 0.78057 0.92254 0.0
C1518 C 0.11498 0.77451 0.89359 0.0
C1519 C 0.12948 0.77639 0.90161 0.0
C1520 C 0.12502 0.81483 0.03129 0.0
C1521 C 0.11979 0.79242 0.97015 0.0
C1522 C 0.1197 0.82226 0.06657 0.0
C1523 C 0.1042 0.8151 0.08114 0.0
C1524 C 0.11467 0.80038 0.00915 0.0
C1525 C 0.09432 0.80042 0.05967 0.0
C1526 C 0.11004 0.78238 0.92824 0.0
C1527 C 0.13899 0.78677 0.94323 0.0
N1528 N 0.09969 0.79361 0.02417 0.0
N1529 N 0.134 0.79445 0.97587 0.0
H1530 H 0.31219 0.21124 0.36516 0.0
H1531 H 0.38561 0.2152 0.50416 0.0
H1532 H 0.3194 0.17264 0.35415 0.0
H1533 H 0.35975 0.23302 0.58567 0.0
H1534 H 0.36606 0.20409 0.4287 0.0
H1535 H 0.33504 0.22452 0.42409 0.0
C1536 C 0.31878 0.20571 0.37387 0.0
C1537 C 0.3138 0.19074 0.35516 0.0
C1538 C 0.36477 0.21047 0.46318 0.0
C1539 C 0.33991 0.20591 0.42238 0.0
C1540 C 0.37587 0.21679 0.506 0.0
C1541 C 0.37417 0.22487 0.55141 0.0
C1542 C 0.35222 0.2127 0.4652 0.0
C1543 C 0.36137 0.22667 0.55193 0.0
C1544 C 0.33173 0.21325 0.40786 0.0
C1545 C 0.32277 0.18411 0.36819 0.0
N1546 N 0.35095 0.22072 0.50931 0.0
N1547 N 0.33539 0.19172 0.40131 0.0
H1548 H 0.7944 0.17318 0.36115 0.0
H1549 H 0.7724 0.10015 0.17111 0.0
H1550 H 0.74775 0.13697 0.34197 0.0
H1551 H 0.81394 0.12227 0.26877 0.0
H1552 H 0.76412 0.11637 0.21858 0.0
H1553 H 0.80277 0.15711 0.31358 0.0
C1554 C 0.78594 0.16182 0.3472 0.0
C1555 C 0.77037 0.15634 0.35581 0.0
C1556 C 0.77506 0.11766 0.22933 0.0
C1557 C 0.77983 0.13815 0.30023 0.0
C1558 C 0.77983 0.10852 0.20199 0.0
C1559 C 0.79385 0.10987 0.21617 0.0
C1560 C 0.78454 0.1284 0.27001 0.0
C1561 C 0.80301 0.12082 0.25686 0.0
C1562 C 0.79071 0.15269 0.32012 0.0
C1563 C 0.75987 0.14156 0.33674 0.0
N1564 N 0.79824 0.12973 0.28213 0.0
N1565 N 0.76478 0.13302 0.30925 0.0
H1566 H 0.91192 0.70051 0.37534 0.0
H1567 H 0.83155 0.62874 0.46692 0.0
H1568 H 0.87186 0.70404 0.40383 0.0
H1569 H 0.874 0.62942 0.48974 0.0
H1570 H 0.84575 0.6557 0.4361 0.0
H1571 H 0.89774 0.67371 0.4083 0.0
C1572 C 0.90011 0.69564 0.38815 0.0
C1573 C 0.89307 0.70457 0.38672 0.0
C1574 C 0.85196 0.64998 0.44816 0.0
C1575 C 0.8768 0.67386 0.42463 0.0
C1576 C 0.84387 0.63457 0.4657 0.0
C1577 C 0.8516 0.62678 0.48097 0.0
C1578 C 0.8679 0.65764 0.44505 0.0
C1579 C 0.86757 0.63497 0.47864 0.0
C1580 C 0.89206 0.68036 0.40733 0.0
C1581 C 0.87776 0.69762 0.40426 0.0
N1582 N 0.87519 0.64993 0.46058 0.0
N1583 N 0.87013 0.68267 0.42229 0.0
H1584 H 0.78985 0.68111 0.76714 0.0
H1585 H 0.77364 0.65154 0.09491 0.0
H1586 H 0.80691 0.71101 0.91333 0.0
H1587 H 0.75833 0.62143 0.94906 0.0
H1588 H 0.78256 0.67359 0.02896 0.0
H1589 H 0.77501 0.65936 0.83287 0.0
C1590 C 0.79035 0.68314 0.813 0.0
C1591 C 0.7998 0.69788 0.83479 0.0
C1592 C 0.77711 0.66215 0.0114 0.0
C1593 C 0.7829 0.67301 0.91029 0.0
C1594 C 0.77198 0.64954 0.04907 0.0
C1595 C 0.76542 0.63462 0.02746 0.0
C1596 C 0.7757 0.65983 0.95165 0.0
C1597 C 0.76346 0.63273 0.96765 0.0
C1598 C 0.78188 0.6707 0.85052 0.0
C1599 C 0.79991 0.69983 0.89461 0.0
N1600 N 0.76874 0.6452 0.93181 0.0
N1601 N 0.79171 0.68751 0.93026 0.0
H1602 H 0.37704 0.12959 0.00574 0.0
H1603 H 0.29149 0.07957 0.89572 0.0
H1604 H 0.33782 0.10853 0.11919 0.0
H1605 H 0.32974 0.10877 0.78484 0.0
H1606 H 0.30886 0.08582 0.97665 0.0
H1607 H 0.36035 0.1178 0.92379 0.0
C1608 C 0.36493 0.12235 0.01357 0.0
C1609 C 0.3588 0.1202 0.06946 0.0
C1610 C 0.31347 0.09072 0.93447 0.0
C1611 C 0.33962 0.10669 0.97555 0.0
C1612 C 0.30357 0.08711 0.88813 0.0
C1613 C 0.30915 0.09381 0.83347 0.0
C1614 C 0.32907 0.10104 0.92612 0.0
C1615 C 0.32492 0.10346 0.8263 0.0
C1616 C 0.3554 0.11565 0.96667 0.0
C1617 C 0.34303 0.11061 0.07684 0.0
N1618 N 0.33431 0.10688 0.87221 0.0
N1619 N 0.33396 0.1043 0.03035 0.0
H1620 H 0.90174 0.22564 0.68821 0.0
H1621 H 0.8793 0.23671 0.00631 0.0
H1622 H 0.90916 0.20531 0.84085 0.0
H1623 H 0.87005 0.2552 0.85259 0.0
H1624 H 0.89368 0.22834 0.94796 0.0
H1625 H 0.89362 0.23977 0.74917 0.0
C1626 C 0.90184 0.22428 0.73457 0.0
C1627 C 0.90595 0.21411 0.75939 0.0
C1628 C 0.88864 0.23437 0.92708 0.0
C1629 C 0.89655 0.23018 0.82948 0.0
C1630 C 0.88043 0.23917 0.9604 0.0
C1631 C 0.87328 0.24649 0.93422 0.0
C1632 C 0.88968 0.23687 0.86711 0.0
C1633 C 0.87523 0.24946 0.87458 0.0
C1634 C 0.89718 0.23234 0.76938 0.0
C1635 C 0.90596 0.21291 0.81977 0.0
N1636 N 0.88311 0.24451 0.843 0.0
N1637 N 0.90116 0.22071 0.85271 0.0
H1638 H 0.71295 0.79531 0.64534 0.0
H1639 H 0.62274 0.75181 0.60516 0.0
H1640 H 0.6806 0.77976 0.78636 0.0
H1641 H 0.65503 0.77241 0.46468 0.0
H1642 H 0.64375 0.75815 0.67083 0.0
H1643 H 0.69185 0.78311 0.57789 0.0
C1644 C 0.70142 0.78915 0.66224 0.0
C1645 C 0.69854 0.78873 0.72162 0.0
C1646 C 0.64624 0.76117 0.62556 0.0
C1647 C 0.67433 0.77481 0.6445 0.0
C1648 C 0.63424 0.75753 0.58796 0.0
C1649 C 0.63713 0.76176 0.52937 0.0
C1650 C 0.66127 0.7691 0.60457 0.0
C1651 C 0.65227 0.76905 0.50959 0.0
C1652 C 0.68938 0.78223 0.62364 0.0
C1653 C 0.68337 0.78052 0.74093 0.0
N1654 N 0.66378 0.77261 0.5472 0.0
N1655 N 0.67183 0.77401 0.70246 0.0
H1656 H 0.19807 0.90827 0.58466 0.0
H1657 H 0.2469 0.86774 0.52539 0.0
H1658 H 0.21099 0.88676 0.71792 0.0
H1659 H 0.22825 0.88345 0.39142 0.0
H1660 H 0.23758 0.87852 0.59741 0.0
H1661 H 0.21272 0.90304 0.51485 0.0
C1662 C 0.2041 0.90256 0.59941 0.0
C1663 C 0.20314 0.89778 0.65721 0.0
C1664 C 0.23567 0.87975 0.55221 0.0
C1665 C 0.21994 0.89173 0.5772 0.0
C1666 C 0.24104 0.87365 0.511 0.0
C1667 C 0.2382 0.87454 0.45224 0.0
C1668 C 0.22744 0.88682 0.53459 0.0
C1669 C 0.23058 0.88237 0.43624 0.0
C1670 C 0.21246 0.89957 0.55944 0.0
C1671 C 0.21129 0.89053 0.67375 0.0
N1672 N 0.22536 0.88809 0.47719 0.0
N1673 N 0.21926 0.88762 0.63384 0.0
H1674 H 0.12542 0.35329 0.40802 0.0
H1675 H 0.10254 0.32034 0.73037 0.0
H1676 H 0.13875 0.38166 0.55869 0.0
H1677 H 0.09206 0.29182 0.58096 0.0
H1678 H 0.11227 0.34294 0.66681 0.0
H1679 H 0.10968 0.33078 0.46932 0.0
C1680 C 0.12491 0.35483 0.45389 0.0
C1681 C 0.13358 0.36936 0.47835 0.0
C1682 C 0.1077 0.33172 0.6479 0.0
C1683 C 0.11564 0.34363 0.54878 0.0
C1684 C 0.10211 0.3188 0.68419 0.0
C1685 C 0.09667 0.30418 0.66101 0.0
C1686 C 0.10789 0.33003 0.58799 0.0
C1687 C 0.09629 0.30288 0.60079 0.0
C1688 C 0.11593 0.34195 0.48889 0.0
C1689 C 0.13239 0.37066 0.53802 0.0
N1690 N 0.10198 0.31565 0.5664 0.0
N1691 N 0.12371 0.35794 0.57124 0.0
H1692 H 0.00399 0.56141 0.98647 0.0
H1693 H 0.96213 0.49329 0.76455 0.0
H1694 H 0.02779 0.54362 0.88976 0.0
H1695 H 0.9466 0.52519 0.7977 0.0
H1696 H 0.98484 0.50914 0.82175 0.0
H1697 H 0.98102 0.54532 0.93008 0.0
C1698 C 0.00432 0.55399 0.95393 0.0
C1699 C 0.0178 0.55386 0.94267 0.0
C1700 C 0.97649 0.51269 0.81618 0.0
C1701 C 0.9917 0.53551 0.87847 0.0
C1702 C 0.96355 0.50368 0.78356 0.0
C1703 C 0.95252 0.50798 0.77606 0.0
C1704 C 0.97825 0.52593 0.84258 0.0
C1705 C 0.95491 0.52154 0.80186 0.0
C1706 C 0.99129 0.54495 0.9215 0.0
C1707 C 0.01766 0.54414 0.89964 0.0
N1708 N 0.96746 0.52997 0.83447 0.0
N1709 N 0.00481 0.53531 0.86929 0.0
H1710 H 0.41208 0.46314 0.71214 0.0
H1711 H 0.48173 0.4535 0.62612 0.0
H1712 H 0.45787 0.50192 0.71385 0.0
H1713 H 0.43899 0.42942 0.53672 0.0
H1714 H 0.47294 0.46938 0.67237 0.0
H1715 H 0.42145 0.44819 0.66279 0.0
C1716 C 0.42414 0.46844 0.70288 0.0
C1717 C 0.43425 0.48376 0.71738 0.0
C1718 C 0.46556 0.46069 0.64231 0.0
C1719 C 0.44497 0.46675 0.66108 0.0
C1720 C 0.47052 0.45162 0.61604 0.0
C1721 C 0.46105 0.44016 0.57752 0.0
C1722 C 0.45088 0.45798 0.63117 0.0
C1723 C 0.44666 0.4382 0.56586 0.0
C1724 C 0.42942 0.45996 0.67419 0.0
C1725 C 0.44972 0.49014 0.70345 0.0
N1726 N 0.44191 0.4469 0.59325 0.0
N1727 N 0.45465 0.48155 0.67645 0.0
H1728 H 0.53212 0.96946 0.89476 0.0
H1729 H 0.56108 0.03333 0.65158 0.0
H1730 H 0.51098 0.9584 0.72778 0.0
H1731 H 0.55023 0.04286 0.81993 0.0
H1732 H 0.54834 0.00584 0.67838 0.0
H1733 H 0.54478 0.99697 0.86783 0.0
C1734 C 0.53025 0.97285 0.8524 0.0
C1735 C 0.52047 0.96176 0.81346 0.0
C1736 C 0.54877 0.01401 0.70922 0.0
C1737 C 0.53507 0.99285 0.78226 0.0
C1738 C 0.55602 0.02961 0.69411 0.0
C1739 C 0.55654 0.04026 0.73352 0.0
C1740 C 0.54253 0.0092 0.76471 0.0
C1741 C 0.54988 0.03493 0.78819 0.0
C1742 C 0.53737 0.98845 0.83728 0.0
C1743 C 0.51835 0.96666 0.75911 0.0
N1744 N 0.54329 0.01975 0.80253 0.0
N1745 N 0.52573 0.98188 0.74479 0.0
H1746 H 0.467 0.04461 0.25995 0.0
H1747 H 0.42405 0.95312 0.28659 0.0
H1748 H 0.45479 0.01463 0.1142 0.0
H1749 H 0.43867 0.98318 0.43259 0.0
H1750 H 0.4316 0.97533 0.22281 0.0
H1751 H 0.45307 0.02214 0.32325 0.0
C1752 C 0.46125 0.03331 0.24112 0.0
C1753 C 0.46225 0.03149 0.18173 0.0
C1754 C 0.43302 0.97706 0.26884 0.0
C1755 C 0.44635 0.0057 0.25411 0.0
C1756 C 0.42869 0.96437 0.30535 0.0
C1757 C 0.43093 0.96632 0.36502 0.0
C1758 C 0.43969 0.99182 0.29207 0.0
C1759 C 0.43687 0.98115 0.38684 0.0
C1760 C 0.45331 0.02048 0.27735 0.0
C1761 C 0.45445 0.01658 0.15978 0.0
N1762 N 0.4412 0.99336 0.35031 0.0
N1763 N 0.44697 0.00425 0.19605 0.0
H1764 H 0.01595 0.44231 0.47561 0.0
H1765 H 0.98652 0.42919 0.15064 0.0
H1766 H 0.04551 0.46252 0.32728 0.0
H1767 H 0.95699 0.41271 0.30034 0.0
H1768 H 0.00852 0.43816 0.21387 0.0
H1769 H 0.99456 0.42793 0.41117 0.0
C1770 C 0.01799 0.44359 0.42951 0.0
C1771 C 0.0325 0.4538 0.40681 0.0
C1772 C 0.99721 0.43245 0.2328 0.0
C1773 C 0.00804 0.43746 0.33278 0.0
C1774 C 0.98465 0.42733 0.19672 0.0
C1775 C 0.96991 0.42037 0.22028 0.0
C1776 C 0.995 0.43059 0.2928 0.0
C1777 C 0.96816 0.41817 0.28029 0.0
C1778 C 0.00576 0.4354 0.39271 0.0
C1779 C 0.03448 0.4549 0.34669 0.0
N1780 N 0.98056 0.42337 0.31447 0.0
N1781 N 0.02235 0.44696 0.31174 0.0
H1782 H 0.57698 0.53367 0.2059 0.0
H1783 H 0.5299 0.57724 0.22522 0.0
H1784 H 0.56367 0.55053 0.05798 0.0
H1785 H 0.54066 0.55796 0.37286 0.0
H1786 H 0.54565 0.57106 0.165 0.0
H1787 H 0.56732 0.54607 0.26888 0.0
C1788 C 0.57222 0.54016 0.1866 0.0
C1789 C 0.57094 0.54088 0.12652 0.0
C1790 C 0.54469 0.5683 0.21066 0.0
C1791 C 0.55975 0.55501 0.19846 0.0
C1792 C 0.53569 0.57183 0.24513 0.0
C1793 C 0.53378 0.56792 0.30409 0.0
C1794 C 0.55181 0.56074 0.23516 0.0
C1795 C 0.54169 0.56106 0.32751 0.0
C1796 C 0.56667 0.54721 0.22262 0.0
C1797 C 0.56475 0.54953 0.10403 0.0
N1798 N 0.55023 0.55754 0.29287 0.0
N1799 N 0.55924 0.55612 0.14001 0.0
loop_
_geom_bond_atom_site_label_1
_geom_bond_atom_site_label_2
_geom_bond_distance
_geom_bond_site_symmetry_2
_ccdc_geom_bond_type
Mg0 O1 2.028 . S
Mg0 O7 1.986 . S
Mg0 O9 2.114 . S
Mg0 O10 2.251 . S
Mg0 O13 2.010 . S
O1 Mg0 2.028 . S
O1 C4 1.250 . S
O2 Mg3 2.028 . S
O2 C4 1.248 . S
Mg3 O2 2.028 . S
Mg3 O8 2.032 . S
Mg3 O10 2.079 . S
C4 O1 1.250 . S
C4 O2 1.248 . S
C5 O6 1.264 . S
C5 O13 1.249 . S
O6 C5 1.264 . S
O7 Mg0 1.986 . S
O7 C11 1.246 . S
O8 Mg3 2.032 . S
O8 C11 1.259 . S
O9 Mg0 2.114 . S
O9 C12 1.252 . S
O10 Mg0 2.251 . S
O10 Mg3 2.079 . S
O10 C12 1.273 . S
C11 O7 1.246 . S
C11 O8 1.259 . S
C12 O9 1.252 . S
C12 O10 1.273 . S
O13 Mg0 2.010 . S
O13 C5 1.249 . S
Mg14 O15 2.028 . S
Mg14 O21 1.986 . S
Mg14 O23 2.114 . S
Mg14 O24 2.251 . S
Mg14 O27 2.010 . S
O15 Mg14 2.028 . S
O15 C18 1.250 . S
O16 Mg17 2.028 . S
O16 C18 1.248 . S
Mg17 O16 2.028 . S
Mg17 O22 2.032 . S
Mg17 O24 2.079 . S
C18 O15 1.250 . S
C18 O16 1.248 . S
C19 O20 1.264 . S
C19 O27 1.249 . S
O20 C19 1.264 . S
O21 Mg14 1.986 . S
O21 C25 1.246 . S
O22 Mg17 2.032 . S
O22 C25 1.259 . S
O23 Mg14 2.114 . S
O23 C26 1.252 . S
O24 Mg14 2.251 . S
O24 Mg17 2.079 . S
O24 C26 1.273 . S
C25 O21 1.246 . S
C25 O22 1.259 . S
C26 O23 1.252 . S
C26 O24 1.273 . S
O27 Mg14 2.010 . S
O27 C19 1.249 . S
Mg28 O29 2.028 . S
Mg28 O35 1.986 . S
Mg28 O37 2.114 . S
Mg28 O38 2.251 . S
Mg28 O41 2.010 . S
O29 Mg28 2.028 . S
O29 C32 1.250 . S
O30 Mg31 2.028 . S
O30 C32 1.248 . S
Mg31 O30 2.028 . S
Mg31 O36 2.032 . S
Mg31 O38 2.079 . S
C32 O29 1.250 . S
C32 O30 1.248 . S
C33 O34 1.264 . S
C33 O41 1.249 . S
O34 C33 1.264 . S
O35 Mg28 1.986 . S
O35 C39 1.246 . S
O36 Mg31 2.032 . S
O36 C39 1.259 . S
O37 Mg28 2.114 . S
O37 C40 1.252 . S
O38 Mg28 2.251 . S
O38 Mg31 2.079 . S
O38 C40 1.273 . S
C39 O35 1.246 . S
C39 O36 1.259 . S
C40 O37 1.252 . S
C40 O38 1.273 . S
O41 Mg28 2.010 . S
O41 C33 1.249 . S
Mg42 O43 2.028 . S
Mg42 O49 1.986 . S
Mg42 O51 2.114 . S
Mg42 O52 2.251 . S
Mg42 O55 2.010 . S
O43 Mg42 2.028 . S
O43 C46 1.250 . S
O44 Mg45 2.028 . S
O44 C46 1.248 . S
Mg45 O44 2.028 . S
Mg45 O50 2.032 . S
Mg45 O52 2.079 . S
C46 O43 1.250 . S
C46 O44 1.248 . S
C47 O48 1.264 . S
C47 O55 1.249 . S
O48 C47 1.264 . S
O49 Mg42 1.986 . S
O49 C53 1.246 . S
O50 Mg45 2.032 . S
O50 C53 1.259 . S
O51 Mg42 2.114 . S
O51 C54 1.252 . S
O52 Mg42 2.251 . S
O52 Mg45 2.079 . S
O52 C54 1.273 . S
C53 O49 1.246 . S
C53 O50 1.259 . S
C54 O51 1.252 . S
C54 O52 1.273 . S
O55 Mg42 2.010 . S
O55 C47 1.249 . S
Mg56 O57 2.028 . S
Mg56 O63 1.986 . S
Mg56 O65 2.114 . S
Mg56 O66 2.251 . S
Mg56 O69 2.010 . S
O57 Mg56 2.028 . S
O57 C60 1.250 . S
O58 Mg59 2.028 . S
O58 C60 1.248 . S
Mg59 O58 2.028 . S
Mg59 O64 2.032 . S
Mg59 O66 2.079 . S
C60 O57 1.250 . S
C60 O58 1.248 . S
C61 O62 1.264 . S
C61 O69 1.249 . S
O62 C61 1.264 . S
O63 Mg56 1.986 . S
O63 C67 1.246 . S
O64 Mg59 2.032 . S
O64 C67 1.259 . S
O65 Mg56 2.114 . S
O65 C68 1.252 . S
O66 Mg56 2.251 . S
O66 Mg59 2.079 . S
O66 C68 1.273 . S
C67 O63 1.246 . S
C67 O64 1.259 . S
C68 O65 1.252 . S
C68 O66 1.273 . S
O69 Mg56 2.010 . S
O69 C61 1.249 . S
Mg70 O71 2.028 . S
Mg70 O77 1.986 . S
Mg70 O79 2.114 . S
Mg70 O80 2.251 . S
Mg70 O83 2.010 . S
O71 Mg70 2.028 . S
O71 C74 1.250 . S
O72 Mg73 2.028 . S
O72 C74 1.248 . S
Mg73 O72 2.028 . S
Mg73 O78 2.032 . S
Mg73 O80 2.079 . S
C74 O71 1.250 . S
C74 O72 1.248 . S
C75 O76 1.264 . S
C75 O83 1.249 . S
O76 C75 1.264 . S
O77 Mg70 1.986 . S
O77 C81 1.246 . S
O78 Mg73 2.032 . S
O78 C81 1.259 . S
O79 Mg70 2.114 . S
O79 C82 1.252 . S
O80 Mg70 2.251 . S
O80 Mg73 2.079 . S
O80 C82 1.273 . S
C81 O77 1.246 . S
C81 O78 1.259 . S
C82 O79 1.252 . S
C82 O80 1.273 . S
O83 Mg70 2.010 . S
O83 C75 1.249 . S
Mg84 O85 2.028 . S
Mg84 O91 1.986 . S
Mg84 O93 2.114 . S
Mg84 O94 2.251 . S
Mg84 O97 2.010 . S
O85 Mg84 2.028 . S
O85 C88 1.250 . S
O86 Mg87 2.028 . S
O86 C88 1.248 . S
Mg87 O86 2.028 . S
Mg87 O92 2.032 . S
Mg87 O94 2.079 . S
C88 O85 1.250 . S
C88 O86 1.248 . S
C89 O90 1.264 . S
C89 O97 1.249 . S
O90 C89 1.264 . S
O91 Mg84 1.986 . S
O91 C95 1.246 . S
O92 Mg87 2.032 . S
O92 C95 1.259 . S
O93 Mg84 2.114 . S
O93 C96 1.252 . S
O94 Mg84 2.251 . S
O94 Mg87 2.079 . S
O94 C96 1.273 . S
C95 O91 1.246 . S
C95 O92 1.259 . S
C96 O93 1.252 . S
C96 O94 1.273 . S
O97 Mg84 2.010 . S
O97 C89 1.249 . S
Mg98 O99 2.028 . S
Mg98 O105 1.986 . S
Mg98 O107 2.114 . S
Mg98 O108 2.251 . S
Mg98 O111 2.010 . S
O99 Mg98 2.028 . S
O99 C102 1.250 . S
O100 Mg101 2.028 . S
O100 C102 1.248 . S
Mg101 O100 2.028 . S
Mg101 O106 2.032 . S
Mg101 O108 2.079 . S
C102 O99 1.250 . S
C102 O100 1.248 . S
C103 O104 1.264 . S
C103 O111 1.249 . S
O104 C103 1.264 . S
O105 Mg98 1.986 . S
O105 C109 1.246 . S
O106 Mg101 2.032 . S
O106 C109 1.259 . S
O107 Mg98 2.114 . S
O107 C110 1.252 . S
O108 Mg98 2.251 . S
O108 Mg101 2.079 . S
O108 C110 1.273 . S
C109 O105 1.246 . S
C109 O106 1.259 . S
C110 O107 1.252 . S
C110 O108 1.273 . S
O111 Mg98 2.010 . S
O111 C103 1.249 . S
Mg112 O113 2.028 . S
Mg112 O119 1.986 . S
Mg112 O121 2.114 . S
Mg112 O122 2.251 . S
Mg112 O125 2.010 . S
O113 Mg112 2.028 . S
O113 C116 1.250 . S
O114 Mg115 2.028 . S
O114 C116 1.248 . S
Mg115 O114 2.028 . S
Mg115 O120 2.032 . S
Mg115 O122 2.079 . S
C116 O113 1.250 . S
C116 O114 1.248 . S
C117 O118 1.264 . S
C117 O125 1.249 . S
O118 C117 1.264 . S
O119 Mg112 1.986 . S
O119 C123 1.246 . S
O120 Mg115 2.032 . S
O120 C123 1.259 . S
O121 Mg112 2.114 . S
O121 C124 1.252 . S
O122 Mg112 2.251 . S
O122 Mg115 2.079 . S
O122 C124 1.273 . S
C123 O119 1.246 . S
C123 O120 1.259 . S
C124 O121 1.252 . S
C124 O122 1.273 . S
O125 Mg112 2.010 . S
O125 C117 1.249 . S
Mg126 O127 2.028 . S
Mg126 O133 1.986 . S
Mg126 O135 2.114 . S
Mg126 O136 2.251 . S
Mg126 O139 2.010 . S
O127 Mg126 2.028 . S
O127 C130 1.250 . S
O128 Mg129 2.028 . S
O128 C130 1.248 . S
Mg129 O128 2.028 . S
Mg129 O134 2.032 . S
Mg129 O136 2.079 . S
C130 O127 1.250 . S
C130 O128 1.248 . S
C131 O132 1.264 . S
C131 O139 1.249 . S
O132 C131 1.264 . S
O133 Mg126 1.986 . S
O133 C137 1.246 . S
O134 Mg129 2.032 . S
O134 C137 1.259 . S
O135 Mg126 2.114 . S
O135 C138 1.252 . S
O136 Mg126 2.251 . S
O136 Mg129 2.079 . S
O136 C138 1.273 . S
C137 O133 1.246 . S
C137 O134 1.259 . S
C138 O135 1.252 . S
C138 O136 1.273 . S
O139 Mg126 2.010 . S
O139 C131 1.249 . S
Mg140 O141 2.028 . S
Mg140 O147 1.986 . S
Mg140 O149 2.114 . S
Mg140 O150 2.251 . S
Mg140 O153 2.010 . S
O141 Mg140 2.028 . S
O141 C144 1.250 . S
O142 Mg143 2.028 . S
O142 C144 1.248 . S
Mg143 O142 2.028 . S
Mg143 O148 2.032 . S
Mg143 O150 2.079 . S
C144 O141 1.250 . S
C144 O142 1.248 . S
C145 O146 1.264 . S
C145 O153 1.249 . S
O146 C145 1.264 . S
O147 Mg140 1.986 . S
O147 C151 1.246 . S
O148 Mg143 2.032 . S
O148 C151 1.259 . S
O149 Mg140 2.114 . S
O149 C152 1.252 . S
O150 Mg140 2.251 . S
O150 Mg143 2.079 . S
O150 C152 1.273 . S
C151 O147 1.246 . S
C151 O148 1.259 . S
C152 O149 1.252 . S
C152 O150 1.273 . S
O153 Mg140 2.010 . S
O153 C145 1.249 . S
Mg154 O155 2.028 . S
Mg154 O161 1.986 . S
Mg154 O163 2.114 . S
Mg154 O164 2.251 . S
Mg154 O167 2.010 . S
O155 Mg154 2.028 . S
O155 C158 1.250 . S
O156 Mg157 2.028 . S
O156 C158 1.248 . S
Mg157 O156 2.028 . S
Mg157 O162 2.032 . S
Mg157 O164 2.079 . S
C158 O155 1.250 . S
C158 O156 1.248 . S
C159 O160 1.264 . S
C159 O167 1.249 . S
O160 C159 1.264 . S
O161 Mg154 1.986 . S
O161 C165 1.246 . S
O162 Mg157 2.032 . S
O162 C165 1.259 . S
O163 Mg154 2.114 . S
O163 C166 1.252 . S
O164 Mg154 2.251 . S
O164 Mg157 2.079 . S
O164 C166 1.273 . S
C165 O161 1.246 . S
C165 O162 1.259 . S
C166 O163 1.252 . S
C166 O164 1.273 . S
O167 Mg154 2.010 . S
O167 C159 1.249 . S
Mg168 O169 2.028 . S
Mg168 O175 1.986 . S
Mg168 O177 2.114 . S
Mg168 O178 2.251 . S
Mg168 O181 2.010 . S
O169 Mg168 2.028 . S
O169 C172 1.250 . S
O170 Mg171 2.028 . S
O170 C172 1.248 . S
Mg171 O170 2.028 . S
Mg171 O176 2.032 . S
Mg171 O178 2.079 . S
C172 O169 1.250 . S
C172 O170 1.248 . S
C173 O174 1.264 . S
C173 O181 1.249 . S
O174 C173 1.264 . S
O175 Mg168 1.986 . S
O175 C179 1.246 . S
O176 Mg171 2.032 . S
O176 C179 1.259 . S
O177 Mg168 2.114 . S
O177 C180 1.252 . S
O178 Mg168 2.251 . S
O178 Mg171 2.079 . S
O178 C180 1.273 . S
C179 O175 1.246 . S
C179 O176 1.259 . S
C180 O177 1.252 . S
C180 O178 1.273 . S
O181 Mg168 2.010 . S
O181 C173 1.249 . S
Mg182 O183 2.028 . S
Mg182 O189 1.986 . S
Mg182 O191 2.114 . S
Mg182 O192 2.251 . S
Mg182 O195 2.010 . S
O183 Mg182 2.028 . S
O183 C186 1.250 . S
O184 Mg185 2.028 . S
O184 C186 1.248 . S
Mg185 O184 2.028 . S
Mg185 O190 2.032 . S
Mg185 O192 2.079 . S
C186 O183 1.250 . S
C186 O184 1.248 . S
C187 O188 1.264 . S
C187 O195 1.249 . S
O188 C187 1.264 . S
O189 Mg182 1.986 . S
O189 C193 1.246 . S
O190 Mg185 2.032 . S
O190 C193 1.259 . S
O191 Mg182 2.114 . S
O191 C194 1.252 . S
O192 Mg182 2.251 . S
O192 Mg185 2.079 . S
O192 C194 1.273 . S
C193 O189 1.246 . S
C193 O190 1.259 . S
C194 O191 1.252 . S
C194 O192 1.273 . S
O195 Mg182 2.010 . S
O195 C187 1.249 . S
Mg196 O197 2.028 . S
Mg196 O203 1.986 . S
Mg196 O205 2.114 . S
Mg196 O206 2.251 . S
Mg196 O209 2.010 . S
O197 Mg196 2.028 . S
O197 C200 1.250 . S
O198 Mg199 2.028 . S
O198 C200 1.248 . S
Mg199 O198 2.028 . S
Mg199 O204 2.032 . S
Mg199 O206 2.079 . S
C200 O197 1.250 . S
C200 O198 1.248 . S
C201 O202 1.264 . S
C201 O209 1.249 . S
O202 C201 1.264 . S
O203 Mg196 1.986 . S
O203 C207 1.246 . S
O204 Mg199 2.032 . S
O204 C207 1.259 . S
O205 Mg196 2.114 . S
O205 C208 1.252 . S
O206 Mg196 2.251 . S
O206 Mg199 2.079 . S
O206 C208 1.273 . S
C207 O203 1.246 . S
C207 O204 1.259 . S
C208 O205 1.252 . S
C208 O206 1.273 . S
O209 Mg196 2.010 . S
O209 C201 1.249 . S
Mg210 O211 2.028 . S
Mg210 O217 1.986 . S
Mg210 O219 2.114 . S
Mg210 O220 2.251 . S
Mg210 O223 2.010 . S
O211 Mg210 2.028 . S
O211 C214 1.250 . S
O212 Mg213 2.028 . S
O212 C214 1.248 . S
Mg213 O212 2.028 . S
Mg213 O218 2.032 . S
Mg213 O220 2.079 . S
C214 O211 1.250 . S
C214 O212 1.248 . S
C215 O216 1.264 . S
C215 O223 1.249 . S
O216 C215 1.264 . S
O217 Mg210 1.986 . S
O217 C221 1.246 . S
O218 Mg213 2.032 . S
O218 C221 1.259 . S
O219 Mg210 2.114 . S
O219 C222 1.252 . S
O220 Mg210 2.251 . S
O220 Mg213 2.079 . S
O220 C222 1.273 . S
C221 O217 1.246 . S
C221 O218 1.259 . S
C222 O219 1.252 . S
C222 O220 1.273 . S
O223 Mg210 2.010 . S
O223 C215 1.249 . S
Mg224 O225 2.028 . S
Mg224 O231 1.986 . S
Mg224 O233 2.114 . S
Mg224 O234 2.251 . S
Mg224 O237 2.010 . S
O225 Mg224 2.028 . S
O225 C228 1.250 . S
O226 Mg227 2.028 . S
O226 C228 1.248 . S
Mg227 O226 2.028 . S
Mg227 O232 2.032 . S
Mg227 O234 2.079 . S
C228 O225 1.250 . S
C228 O226 1.248 . S
C229 O230 1.264 . S
C229 O237 1.249 . S
O230 C229 1.264 . S
O231 Mg224 1.986 . S
O231 C235 1.246 . S
O232 Mg227 2.032 . S
O232 C235 1.259 . S
O233 Mg224 2.114 . S
O233 C236 1.252 . S
O234 Mg224 2.251 . S
O234 Mg227 2.079 . S
O234 C236 1.273 . S
C235 O231 1.246 . S
C235 O232 1.259 . S
C236 O233 1.252 . S
C236 O234 1.273 . S
O237 Mg224 2.010 . S
O237 C229 1.249 . S
Mg238 O239 2.028 . S
Mg238 O245 1.986 . S
Mg238 O247 2.114 . S
Mg238 O248 2.251 . S
Mg238 O251 2.010 . S
O239 Mg238 2.028 . S
O239 C242 1.250 . S
O240 Mg241 2.028 . S
O240 C242 1.248 . S
Mg241 O240 2.028 . S
Mg241 O246 2.032 . S
Mg241 O248 2.079 . S
C242 O239 1.250 . S
C242 O240 1.248 . S
C243 O244 1.264 . S
C243 O251 1.249 . S
O244 C243 1.264 . S
O245 Mg238 1.986 . S
O245 C249 1.246 . S
O246 Mg241 2.032 . S
O246 C249 1.259 . S
O247 Mg238 2.114 . S
O247 C250 1.252 . S
O248 Mg238 2.251 . S
O248 Mg241 2.079 . S
O248 C250 1.273 . S
C249 O245 1.246 . S
C249 O246 1.259 . S
C250 O247 1.252 . S
C250 O248 1.273 . S
O251 Mg238 2.010 . S
O251 C243 1.249 . S
Mg252 O253 2.028 . S
Mg252 O259 1.986 . S
Mg252 O261 2.114 . S
Mg252 O262 2.251 . S
Mg252 O265 2.010 . S
O253 Mg252 2.028 . S
O253 C256 1.250 . S
O254 Mg255 2.028 . S
O254 C256 1.248 . S
Mg255 O254 2.028 . S
Mg255 O260 2.032 . S
Mg255 O262 2.079 . S
C256 O253 1.250 . S
C256 O254 1.248 . S
C257 O258 1.264 . S
C257 O265 1.249 . S
O258 C257 1.264 . S
O259 Mg252 1.986 . S
O259 C263 1.246 . S
O260 Mg255 2.032 . S
O260 C263 1.259 . S
O261 Mg252 2.114 . S
O261 C264 1.252 . S
O262 Mg252 2.251 . S
O262 Mg255 2.079 . S
O262 C264 1.273 . S
C263 O259 1.246 . S
C263 O260 1.259 . S
C264 O261 1.252 . S
C264 O262 1.273 . S
O265 Mg252 2.010 . S
O265 C257 1.249 . S
Mg266 O267 2.028 . S
Mg266 O273 1.986 . S
Mg266 O275 2.114 . S
Mg266 O276 2.251 . S
Mg266 O279 2.010 . S
O267 Mg266 2.028 . S
O267 C270 1.250 . S
O268 Mg269 2.028 . S
O268 C270 1.248 . S
Mg269 O268 2.028 . S
Mg269 O274 2.032 . S
Mg269 O276 2.079 . S
C270 O267 1.250 . S
C270 O268 1.248 . S
C271 O272 1.264 . S
C271 O279 1.249 . S
O272 C271 1.264 . S
O273 Mg266 1.986 . S
O273 C277 1.246 . S
O274 Mg269 2.032 . S
O274 C277 1.259 . S
O275 Mg266 2.114 . S
O275 C278 1.252 . S
O276 Mg266 2.251 . S
O276 Mg269 2.079 . S
O276 C278 1.273 . S
C277 O273 1.246 . S
C277 O274 1.259 . S
C278 O275 1.252 . S
C278 O276 1.273 . S
O279 Mg266 2.010 . S
O279 C271 1.249 . S
Mg280 O281 2.028 . S
Mg280 O287 1.986 . S
Mg280 O289 2.114 . S
Mg280 O290 2.251 . S
Mg280 O293 2.010 . S
O281 Mg280 2.028 . S
O281 C284 1.250 . S
O282 Mg283 2.028 . S
O282 C284 1.248 . S
Mg283 O282 2.028 . S
Mg283 O288 2.032 . S
Mg283 O290 2.079 . S
C284 O281 1.250 . S
C284 O282 1.248 . S
C285 O286 1.264 . S
C285 O293 1.249 . S
O286 C285 1.264 . S
O287 Mg280 1.986 . S
O287 C291 1.246 . S
O288 Mg283 2.032 . S
O288 C291 1.259 . S
O289 Mg280 2.114 . S
O289 C292 1.252 . S
O290 Mg280 2.251 . S
O290 Mg283 2.079 . S
O290 C292 1.273 . S
C291 O287 1.246 . S
C291 O288 1.259 . S
C292 O289 1.252 . S
C292 O290 1.273 . S
O293 Mg280 2.010 . S
O293 C285 1.249 . S
Mg294 O295 2.028 1_554 S
Mg294 O301 1.986 . S
Mg294 O303 2.114 . S
Mg294 O304 2.251 . S
Mg294 O307 2.010 . S
O295 Mg294 2.028 1_556 S
O295 C298 1.250 . S
O296 Mg297 2.028 1_556 S
O296 C298 1.248 . S
Mg297 O296 2.028 1_554 S
Mg297 O302 2.032 . S
Mg297 O304 2.079 . S
C298 O295 1.250 . S
C298 O296 1.248 . S
C299 O300 1.264 1_556 S
C299 O307 1.249 1_556 S
O300 C299 1.264 1_554 S
O301 Mg294 1.986 . S
O301 C305 1.246 . S
O302 Mg297 2.032 . S
O302 C305 1.259 . S
O303 Mg294 2.114 . S
O303 C306 1.252 . S
O304 Mg294 2.251 . S
O304 Mg297 2.079 . S
O304 C306 1.273 . S
C305 O301 1.246 . S
C305 O302 1.259 . S
C306 O303 1.252 . S
C306 O304 1.273 . S
O307 Mg294 2.010 . S
O307 C299 1.249 1_554 S
Mg308 O309 2.028 1_554 S
Mg308 O315 1.986 . S
Mg308 O317 2.114 . S
Mg308 O318 2.251 . S
Mg308 O321 2.010 . S
O309 Mg308 2.028 1_556 S
O309 C312 1.250 . S
O310 Mg311 2.028 1_556 S
O310 C312 1.248 . S
Mg311 O310 2.028 1_554 S
Mg311 O316 2.032 . S
Mg311 O318 2.079 . S
C312 O309 1.250 . S
C312 O310 1.248 . S
C313 O314 1.264 . S
C313 O321 1.249 . S
O314 C313 1.264 . S
O315 Mg308 1.986 . S
O315 C319 1.246 . S
O316 Mg311 2.032 . S
O316 C319 1.259 . S
O317 Mg308 2.114 . S
O317 C320 1.252 . S
O318 Mg308 2.251 . S
O318 Mg311 2.079 . S
O318 C320 1.273 . S
C319 O315 1.246 . S
C319 O316 1.259 . S
C320 O317 1.252 . S
C320 O318 1.273 . S
O321 Mg308 2.010 . S
O321 C313 1.249 . S
Mg322 O323 2.028 1_554 S
Mg322 O329 1.986 . S
Mg322 O331 2.114 . S
Mg322 O332 2.251 . S
Mg322 O335 2.010 . S
O323 Mg322 2.028 1_556 S
O323 C326 1.250 . S
O324 Mg325 2.028 1_556 S
O324 C326 1.248 . S
Mg325 O324 2.028 1_554 S
Mg325 O330 2.032 . S
Mg325 O332 2.079 . S
C326 O323 1.250 . S
C326 O324 1.248 . S
C327 O328 1.264 . S
C327 O335 1.249 . S
O328 C327 1.264 . S
O329 Mg322 1.986 . S
O329 C333 1.246 . S
O330 Mg325 2.032 . S
O330 C333 1.259 . S
O331 Mg322 2.114 . S
O331 C334 1.252 . S
O332 Mg322 2.251 . S
O332 Mg325 2.079 . S
O332 C334 1.273 . S
C333 O329 1.246 . S
C333 O330 1.259 . S
C334 O331 1.252 . S
C334 O332 1.273 . S
O335 Mg322 2.010 . S
O335 C327 1.249 . S
Mg336 O337 2.028 . S
Mg336 O343 1.986 . S
Mg336 O345 2.114 . S
Mg336 O346 2.251 . S
Mg336 O349 2.010 . S
O337 Mg336 2.028 . S
O337 C340 1.250 . S
O338 Mg339 2.028 . S
O338 C340 1.248 . S
Mg339 O338 2.028 . S
Mg339 O344 2.032 . S
Mg339 O346 2.079 . S
C340 O337 1.250 . S
C340 O338 1.248 . S
C341 O342 1.264 . S
C341 O349 1.249 . S
O342 C341 1.264 . S
O343 Mg336 1.986 . S
O343 C347 1.246 . S
O344 Mg339 2.032 . S
O344 C347 1.259 . S
O345 Mg336 2.114 . S
O345 C348 1.252 . S
O346 Mg336 2.251 . S
O346 Mg339 2.079 . S
O346 C348 1.273 . S
C347 O343 1.246 . S
C347 O344 1.259 . S
C348 O345 1.252 . S
C348 O346 1.273 . S
O349 Mg336 2.010 . S
O349 C341 1.249 . S
Mg350 O351 2.028 . S
Mg350 O357 1.986 . S
Mg350 O359 2.114 . S
Mg350 O360 2.251 . S
Mg350 O363 2.010 . S
O351 Mg350 2.028 . S
O351 C354 1.250 . S
O352 Mg353 2.028 . S
O352 C354 1.248 . S
Mg353 O352 2.028 . S
Mg353 O358 2.032 . S
Mg353 O360 2.079 . S
C354 O351 1.250 . S
C354 O352 1.248 . S
C355 O356 1.264 . S
C355 O363 1.249 . S
O356 C355 1.264 . S
O357 Mg350 1.986 . S
O357 C361 1.246 . S
O358 Mg353 2.032 . S
O358 C361 1.259 . S
O359 Mg350 2.114 . S
O359 C362 1.252 . S
O360 Mg350 2.251 . S
O360 Mg353 2.079 . S
O360 C362 1.273 . S
C361 O357 1.246 . S
C361 O358 1.259 . S
C362 O359 1.252 . S
C362 O360 1.273 . S
O363 Mg350 2.010 . S
O363 C355 1.249 . S
Mg364 O365 2.028 . S
Mg364 O371 1.986 . S
Mg364 O373 2.114 . S
Mg364 O374 2.251 . S
Mg364 O377 2.010 . S
O365 Mg364 2.028 . S
O365 C368 1.250 . S
O366 Mg367 2.028 . S
O366 C368 1.248 . S
Mg367 O366 2.028 . S
Mg367 O372 2.032 . S
Mg367 O374 2.079 . S
C368 O365 1.250 . S
C368 O366 1.248 . S
C369 O370 1.264 . S
C369 O377 1.249 . S
O370 C369 1.264 . S
O371 Mg364 1.986 . S
O371 C375 1.246 . S
O372 Mg367 2.032 . S
O372 C375 1.259 . S
O373 Mg364 2.114 . S
O373 C376 1.252 . S
O374 Mg364 2.251 . S
O374 Mg367 2.079 . S
O374 C376 1.273 . S
C375 O371 1.246 . S
C375 O372 1.259 . S
C376 O373 1.252 . S
C376 O374 1.273 . S
O377 Mg364 2.010 . S
O377 C369 1.249 . S
Mg378 O379 2.028 . S
Mg378 O385 1.986 . S
Mg378 O387 2.114 1_556 S
Mg378 O388 2.251 1_556 S
Mg378 O391 2.010 . S
O379 Mg378 2.028 . S
O379 C382 1.250 1_556 S
O380 Mg381 2.029 . S
O380 C382 1.248 . S
Mg381 O380 2.029 . S
Mg381 O386 2.025 1_554 S
Mg381 O388 2.082 . S
C382 O379 1.250 1_554 S
C382 O380 1.248 . S
C383 O384 1.264 . S
C383 O391 1.249 . S
O384 C383 1.264 . S
O385 Mg378 1.986 . S
O385 C389 1.246 . S
O386 Mg381 2.025 1_556 S
O386 C389 1.259 . S
O387 Mg378 2.114 1_554 S
O387 C390 1.252 . S
O388 Mg378 2.251 1_554 S
O388 Mg381 2.082 . S
O388 C390 1.273 . S
C389 O385 1.246 . S
C389 O386 1.259 . S
C390 O387 1.252 . S
C390 O388 1.273 . S
O391 Mg378 2.010 . S
O391 C383 1.249 . S
Mg392 O393 2.028 1_556 S
Mg392 O399 1.986 1_556 S
Mg392 O401 2.114 . S
Mg392 O402 2.251 . S
Mg392 O405 2.010 1_556 S
O393 Mg392 2.028 1_554 S
O393 C396 1.242 1_554 S
O394 Mg395 2.028 . S
O394 C396 1.265 . S
Mg395 O394 2.028 . S
Mg395 O400 2.032 . S
Mg395 O402 2.079 . S
C396 O393 1.242 1_556 S
C396 O394 1.265 . S
C397 O398 1.264 . S
C397 O405 1.249 . S
O398 C397 1.264 . S
O399 Mg392 1.986 1_554 S
O399 C403 1.246 1_554 S
O400 Mg395 2.032 . S
O400 C403 1.259 . S
O401 Mg392 2.114 . S
O401 C404 1.252 . S
O402 Mg392 2.251 . S
O402 Mg395 2.079 . S
O402 C404 1.273 . S
C403 O399 1.246 1_556 S
C403 O400 1.259 . S
C404 O401 1.252 . S
C404 O402 1.273 . S
O405 Mg392 2.010 1_554 S
O405 C397 1.249 . S
Mg406 O407 2.028 . S
Mg406 O413 1.986 . S
Mg406 O415 2.114 1_556 S
Mg406 O416 2.251 1_556 S
Mg406 O419 2.010 . S
O407 Mg406 2.028 . S
O407 C410 1.250 1_556 S
O408 Mg409 2.027 1_554 S
O408 C410 1.248 . S
Mg409 O408 2.027 1_556 S
Mg409 O414 2.049 . S
Mg409 O416 2.071 1_556 S
C410 O407 1.250 1_554 S
C410 O408 1.248 . S
C411 O412 1.264 . S
C411 O419 1.249 . S
O412 C411 1.264 . S
O413 Mg406 1.986 . S
O413 C417 1.246 . S
O414 Mg409 2.049 . S
O414 C417 1.259 . S
O415 Mg406 2.114 1_554 S
O415 C418 1.252 . S
O416 Mg406 2.251 1_554 S
O416 Mg409 2.071 1_554 S
O416 C418 1.273 . S
C417 O413 1.246 . S
C417 O414 1.259 . S
C418 O415 1.252 . S
C418 O416 1.273 . S
O419 Mg406 2.010 . S
O419 C411 1.249 . S
Mg420 O421 2.028 . S
Mg420 O427 1.986 . S
Mg420 O429 2.114 . S
Mg420 O430 2.251 . S
Mg420 O433 2.010 . S
O421 Mg420 2.028 . S
O421 C424 1.250 . S
O422 Mg423 2.028 . S
O422 C424 1.248 . S
Mg423 O422 2.028 . S
Mg423 O428 2.032 . S
Mg423 O430 2.079 . S
C424 O421 1.250 . S
C424 O422 1.248 . S
C425 O426 1.264 . S
C425 O433 1.249 . S
O426 C425 1.264 . S
O427 Mg420 1.986 . S
O427 C431 1.246 . S
O428 Mg423 2.032 . S
O428 C431 1.259 . S
O429 Mg420 2.114 . S
O429 C432 1.252 . S
O430 Mg420 2.251 . S
O430 Mg423 2.079 . S
O430 C432 1.273 . S
C431 O427 1.246 . S
C431 O428 1.259 . S
C432 O429 1.252 . S
C432 O430 1.273 . S
O433 Mg420 2.010 . S
O433 C425 1.249 . S
Mg434 O435 2.028 . S
Mg434 O441 1.986 . S
Mg434 O443 2.114 . S
Mg434 O444 2.251 . S
Mg434 O447 2.010 . S
O435 Mg434 2.028 . S
O435 C438 1.250 . S
O436 Mg437 2.028 . S
O436 C438 1.248 . S
Mg437 O436 2.028 . S
Mg437 O442 2.032 . S
Mg437 O444 2.079 . S
C438 O435 1.250 . S
C438 O436 1.248 . S
C439 O440 1.264 . S
C439 O447 1.249 . S
O440 C439 1.264 . S
O441 Mg434 1.986 . S
O441 C445 1.246 . S
O442 Mg437 2.032 . S
O442 C445 1.259 . S
O443 Mg434 2.114 . S
O443 C446 1.252 . S
O444 Mg434 2.251 . S
O444 Mg437 2.079 . S
O444 C446 1.273 . S
C445 O441 1.246 . S
C445 O442 1.259 . S
C446 O443 1.252 . S
C446 O444 1.273 . S
O447 Mg434 2.010 . S
O447 C439 1.249 . S
Mg448 O449 2.028 . S
Mg448 O455 1.986 . S
Mg448 O457 2.114 . S
Mg448 O458 2.251 . S
Mg448 O461 2.010 . S
O449 Mg448 2.028 . S
O449 C452 1.250 . S
O450 Mg451 2.028 . S
O450 C452 1.248 . S
Mg451 O450 2.028 . S
Mg451 O456 2.032 . S
Mg451 O458 2.079 . S
C452 O449 1.250 . S
C452 O450 1.248 . S
C453 O454 1.264 . S
C453 O461 1.249 . S
O454 C453 1.264 . S
O455 Mg448 1.986 . S
O455 C459 1.246 . S
O456 Mg451 2.032 . S
O456 C459 1.259 . S
O457 Mg448 2.114 . S
O457 C460 1.252 . S
O458 Mg448 2.251 . S
O458 Mg451 2.079 . S
O458 C460 1.273 . S
C459 O455 1.246 . S
C459 O456 1.259 . S
C460 O457 1.252 . S
C460 O458 1.273 . S
O461 Mg448 2.010 . S
O461 C453 1.249 . S
Mg462 O463 2.028 . S
Mg462 O469 1.986 . S
Mg462 O471 2.114 . S
Mg462 O472 2.251 . S
Mg462 O475 2.010 . S
O463 Mg462 2.028 . S
O463 C466 1.250 . S
O464 Mg465 2.028 . S
O464 C466 1.248 . S
Mg465 O464 2.028 . S
Mg465 O470 2.032 . S
Mg465 O472 2.079 . S
C466 O463 1.250 . S
C466 O464 1.248 . S
C467 O468 1.264 . S
C467 O475 1.249 . S
O468 C467 1.264 . S
O469 Mg462 1.986 . S
O469 C473 1.246 . S
O470 Mg465 2.032 . S
O470 C473 1.259 . S
O471 Mg462 2.114 . S
O471 C474 1.252 . S
O472 Mg462 2.251 . S
O472 Mg465 2.079 . S
O472 C474 1.273 . S
C473 O469 1.246 . S
C473 O470 1.259 . S
C474 O471 1.252 . S
C474 O472 1.273 . S
O475 Mg462 2.010 . S
O475 C467 1.249 . S
Mg476 O477 2.028 . S
Mg476 O483 1.986 . S
Mg476 O485 2.114 . S
Mg476 O486 2.251 . S
Mg476 O489 2.010 . S
O477 Mg476 2.028 . S
O477 C480 1.250 . S
O478 Mg479 2.028 . S
O478 C480 1.248 . S
Mg479 O478 2.028 . S
Mg479 O484 2.032 . S
Mg479 O486 2.079 . S
C480 O477 1.250 . S
C480 O478 1.248 . S
C481 O482 1.264 . S
C481 O489 1.249 . S
O482 C481 1.264 . S
O483 Mg476 1.986 . S
O483 C487 1.246 . S
O484 Mg479 2.032 . S
O484 C487 1.259 . S
O485 Mg476 2.114 . S
O485 C488 1.252 . S
O486 Mg476 2.251 . S
O486 Mg479 2.079 . S
O486 C488 1.273 . S
C487 O483 1.246 . S
C487 O484 1.259 . S
C488 O485 1.252 . S
C488 O486 1.273 . S
O489 Mg476 2.010 . S
O489 C481 1.249 . S
Mg490 O491 2.028 . S
Mg490 O497 1.986 . S
Mg490 O499 2.114 . S
Mg490 O500 2.251 . S
Mg490 O503 2.010 . S
O491 Mg490 2.028 . S
O491 C494 1.250 . S
O492 Mg493 2.028 . S
O492 C494 1.248 . S
Mg493 O492 2.028 . S
Mg493 O498 2.032 . S
Mg493 O500 2.079 . S
C494 O491 1.250 . S
C494 O492 1.248 . S
C495 O496 1.264 . S
C495 O503 1.249 . S
O496 C495 1.264 . S
O497 Mg490 1.986 . S
O497 C501 1.246 . S
O498 Mg493 2.032 . S
O498 C501 1.259 . S
O499 Mg490 2.114 . S
O499 C502 1.252 . S
O500 Mg490 2.251 . S
O500 Mg493 2.079 . S
O500 C502 1.273 . S
C501 O497 1.246 . S
C501 O498 1.259 . S
C502 O499 1.252 . S
C502 O500 1.273 . S
O503 Mg490 2.010 . S
O503 C495 1.249 . S
H504 C510 0.930 . S
H505 C514 0.930 . S
H506 C519 0.929 . S
H507 C517 0.929 . S
H508 C512 0.929 . S
H509 C518 0.929 . S
C510 H504 0.930 . S
C510 C511 1.367 . S
C510 C518 1.378 . S
C511 C510 1.367 . S
C511 C519 1.433 . S
C512 H508 0.929 . S
C512 C514 1.378 . S
C512 C516 1.350 . S
C513 C516 1.463 . S
C513 C518 1.350 . S
C513 N521 1.427 . S
C514 H505 0.930 . S
C514 C512 1.378 . S
C514 C515 1.367 . S
C515 C514 1.367 . S
C515 C517 1.433 . S
C516 C512 1.350 . S
C516 C513 1.463 . S
C516 N520 1.427 . S
C517 H507 0.929 . S
C517 C515 1.433 . S
C517 N520 1.384 . S
C518 H509 0.929 . S
C518 C510 1.378 . S
C518 C513 1.350 . S
C519 H506 0.929 . S
C519 C511 1.433 . S
C519 N521 1.384 . S
N520 C516 1.427 . S
N520 C517 1.384 . S
N521 C513 1.427 . S
N521 C519 1.384 . S
H522 C528 0.930 . S
H523 C532 0.930 . S
H524 C537 0.929 . S
H525 C535 0.929 . S
H526 C530 0.929 . S
H527 C536 0.929 . S
C528 H522 0.930 . S
C528 C529 1.367 . S
C528 C536 1.378 . S
C529 C528 1.367 . S
C529 C537 1.433 . S
C530 H526 0.929 . S
C530 C532 1.378 . S
C530 C534 1.350 . S
C531 C534 1.463 1_545 S
C531 C536 1.350 . S
C531 N539 1.427 . S
C532 H523 0.930 . S
C532 C530 1.378 . S
C532 C533 1.367 . S
C533 C532 1.367 . S
C533 C535 1.433 . S
C534 C530 1.350 . S
C534 C531 1.463 1_565 S
C534 N538 1.427 . S
C535 H525 0.929 . S
C535 C533 1.433 . S
C535 N538 1.384 . S
C536 H527 0.929 . S
C536 C528 1.378 . S
C536 C531 1.350 . S
C537 H524 0.929 . S
C537 C529 1.433 . S
C537 N539 1.384 . S
N538 C534 1.427 . S
N538 C535 1.384 . S
N539 C531 1.427 . S
N539 C537 1.384 . S
H540 C546 0.930 . S
H541 C550 0.930 . S
H542 C555 0.929 . S
H543 C553 0.929 . S
H544 C548 0.929 . S
H545 C554 0.929 . S
C546 H540 0.930 . S
C546 C547 1.367 . S
C546 C554 1.378 . S
C547 C546 1.367 . S
C547 C555 1.433 . S
C548 H544 0.929 . S
C548 C550 1.378 . S
C548 C552 1.350 . S
C549 C552 1.463 1_655 S
C549 C554 1.350 . S
C549 N557 1.427 . S
C550 H541 0.930 . S
C550 C548 1.378 . S
C550 C551 1.367 . S
C551 C550 1.367 . S
C551 C553 1.433 . S
C552 C548 1.350 . S
C552 C549 1.463 1_455 S
C552 N556 1.427 . S
C553 H543 0.929 . S
C553 C551 1.433 . S
C553 N556 1.384 . S
C554 H545 0.929 . S
C554 C546 1.378 . S
C554 C549 1.350 . S
C555 H542 0.929 . S
C555 C547 1.433 . S
C555 N557 1.384 . S
N556 C552 1.427 . S
N556 C553 1.384 . S
N557 C549 1.427 . S
N557 C555 1.384 . S
H558 C564 0.930 . S
H559 C568 0.930 . S
H560 C573 0.929 . S
H561 C571 0.929 . S
H562 C566 0.929 . S
H563 C572 0.929 . S
C564 H558 0.930 . S
C564 C565 1.367 . S
C564 C572 1.378 . S
C565 C564 1.367 . S
C565 C573 1.433 . S
C566 H562 0.929 . S
C566 C568 1.378 . S
C566 C570 1.350 . S
C567 C570 1.463 . S
C567 C572 1.350 . S
C567 N575 1.427 . S
C568 H559 0.930 . S
C568 C566 1.378 . S
C568 C569 1.367 . S
C569 C568 1.367 . S
C569 C571 1.433 . S
C570 C566 1.350 . S
C570 C567 1.463 . S
C570 N574 1.427 . S
C571 H561 0.929 . S
C571 C569 1.433 . S
C571 N574 1.384 . S
C572 H563 0.929 . S
C572 C564 1.378 . S
C572 C567 1.350 . S
C573 H560 0.929 . S
C573 C565 1.433 . S
C573 N575 1.384 . S
N574 C570 1.427 . S
N574 C571 1.384 . S
N575 C567 1.427 . S
N575 C573 1.384 . S
H576 C582 0.930 . S
H577 C586 0.930 . S
H578 C591 0.929 . S
H579 C589 0.929 . S
H580 C584 0.929 . S
H581 C590 0.929 . S
C582 H576 0.930 . S
C582 C583 1.367 . S
C582 C590 1.378 . S
C583 C582 1.367 . S
C583 C591 1.433 . S
C584 H580 0.929 . S
C584 C586 1.378 . S
C584 C588 1.350 . S
C585 C588 1.463 1_545 S
C585 C590 1.350 . S
C585 N593 1.427 . S
C586 H577 0.930 . S
C586 C584 1.378 . S
C586 C587 1.367 . S
C587 C586 1.367 . S
C587 C589 1.433 . S
C588 C584 1.350 . S
C588 C585 1.463 1_565 S
C588 N592 1.427 . S
C589 H579 0.929 . S
C589 C587 1.433 . S
C589 N592 1.384 . S
C590 H581 0.929 . S
C590 C582 1.378 . S
C590 C585 1.350 . S
C591 H578 0.929 . S
C591 C583 1.433 . S
C591 N593 1.384 . S
N592 C588 1.427 . S
N592 C589 1.384 . S
N593 C585 1.427 . S
N593 C591 1.384 . S
H594 C600 0.930 . S
H595 C604 0.930 . S
H596 C609 0.929 . S
H597 C607 0.929 . S
H598 C602 0.929 . S
H599 C608 0.941 . S
C600 H594 0.930 . S
C600 C601 1.367 . S
C600 C608 1.378 . S
C601 C600 1.367 . S
C601 C609 1.433 . S
C602 H598 0.929 . S
C602 C604 1.378 . S
C602 C606 1.350 . S
C603 C606 1.463 1_455 S
C603 C608 1.350 . S
C603 N611 1.427 . S
C604 H595 0.930 . S
C604 C602 1.378 . S
C604 C605 1.367 . S
C605 C604 1.367 . S
C605 C607 1.433 . S
C606 C602 1.350 . S
C606 C603 1.463 1_655 S
C606 N610 1.427 . S
C607 H597 0.929 . S
C607 C605 1.433 . S
C607 N610 1.384 . S
C608 H599 0.941 . S
C608 C600 1.378 . S
C608 C603 1.350 . S
C609 H596 0.929 . S
C609 C601 1.433 . S
C609 N611 1.384 . S
N610 C606 1.427 . S
N610 C607 1.384 . S
N611 C603 1.427 . S
N611 C609 1.384 . S
H612 C618 0.930 . S
H613 C622 0.930 . S
H614 C627 0.929 . S
H615 C625 0.929 . S
H616 C620 0.929 . S
H617 C626 0.929 . S
C618 H612 0.930 . S
C618 C619 1.367 . S
C618 C626 1.378 . S
C619 C618 1.367 . S
C619 C627 1.433 . S
C620 H616 0.929 . S
C620 C622 1.378 . S
C620 C624 1.350 . S
C621 C624 1.463 . S
C621 C626 1.350 . S
C621 N629 1.427 . S
C622 H613 0.930 . S
C622 C620 1.378 . S
C622 C623 1.367 . S
C623 C622 1.367 . S
C623 C625 1.433 . S
C624 C620 1.350 . S
C624 C621 1.463 . S
C624 N628 1.427 . S
C625 H615 0.929 . S
C625 C623 1.433 . S
C625 N628 1.384 . S
C626 H617 0.929 . S
C626 C618 1.378 . S
C626 C621 1.350 . S
C627 H614 0.929 . S
C627 C619 1.433 . S
C627 N629 1.384 . S
N628 C624 1.427 . S
N628 C625 1.384 . S
N629 C621 1.427 . S
N629 C627 1.384 . S
H630 C636 0.930 . S
H631 C640 0.930 . S
H632 C645 0.929 . S
H633 C643 0.929 . S
H634 C638 0.929 . S
H635 C644 0.929 . S
C636 H630 0.930 . S
C636 C637 1.367 . S
C636 C644 1.378 . S
C637 C636 1.367 . S
C637 C645 1.433 . S
C638 H634 0.929 . S
C638 C640 1.378 . S
C638 C642 1.350 . S
C639 C642 1.463 . S
C639 C644 1.350 . S
C639 N647 1.427 . S
C640 H631 0.930 . S
C640 C638 1.378 . S
C640 C641 1.367 . S
C641 C640 1.367 . S
C641 C643 1.433 . S
C642 C638 1.350 . S
C642 C639 1.463 . S
C642 N646 1.427 . S
C643 H633 0.929 . S
C643 C641 1.433 . S
C643 N646 1.384 . S
C644 H635 0.929 . S
C644 C636 1.378 . S
C644 C639 1.350 . S
C645 H632 0.929 . S
C645 C637 1.433 . S
C645 N647 1.384 . S
N646 C642 1.427 . S
N646 C643 1.384 . S
N647 C639 1.427 . S
N647 C645 1.384 . S
H648 C654 0.930 . S
H649 C658 0.930 . S
H650 C663 0.929 . S
H651 C661 0.929 . S
H652 C656 0.929 . S
H653 C662 0.929 . S
C654 H648 0.930 . S
C654 C655 1.367 . S
C654 C662 1.378 . S
C655 C654 1.367 . S
C655 C663 1.433 . S
C656 H652 0.929 . S
C656 C658 1.378 . S
C656 C660 1.350 . S
C657 C660 1.463 . S
C657 C662 1.350 . S
C657 N665 1.427 . S
C658 H649 0.930 . S
C658 C656 1.378 . S
C658 C659 1.367 . S
C659 C658 1.367 . S
C659 C661 1.433 . S
C660 C656 1.350 . S
C660 C657 1.463 . S
C660 N664 1.427 . S
C661 H651 0.929 . S
C661 C659 1.433 . S
C661 N664 1.384 . S
C662 H653 0.929 . S
C662 C654 1.378 . S
C662 C657 1.350 . S
C663 H650 0.929 . S
C663 C655 1.433 . S
C663 N665 1.384 . S
N664 C660 1.427 . S
N664 C661 1.384 . S
N665 C657 1.427 . S
N665 C663 1.384 . S
H666 C672 0.930 . S
H667 C676 0.930 . S
H668 C681 0.929 . S
H669 C679 0.929 . S
H670 C674 0.929 1_556 S
H671 C680 0.929 . S
C672 H666 0.930 . S
C672 C673 1.367 . S
C672 C680 1.378 . S
C673 C672 1.367 . S
C673 C681 1.433 . S
C674 H670 0.929 1_554 S
C674 C676 1.378 1_554 S
C674 C678 1.350 . S
C675 C678 1.463 . S
C675 C680 1.350 . S
C675 N683 1.427 . S
C676 H667 0.930 . S
C676 C674 1.378 1_556 S
C676 C677 1.367 1_556 S
C677 C676 1.367 1_554 S
C677 C679 1.433 . S
C678 C674 1.350 . S
C678 C675 1.463 . S
C678 N682 1.427 . S
C679 H669 0.929 . S
C679 C677 1.433 . S
C679 N682 1.384 . S
C680 H671 0.929 . S
C680 C672 1.378 . S
C680 C675 1.350 . S
C681 H668 0.929 . S
C681 C673 1.433 . S
C681 N683 1.384 . S
N682 C678 1.427 . S
N682 C679 1.384 . S
N683 C675 1.427 . S
N683 C681 1.384 . S
H684 C690 0.930 . S
H685 C694 0.930 . S
H686 C699 0.929 . S
H687 C697 0.929 . S
H688 C692 0.929 . S
H689 C698 0.929 1_556 S
C690 H684 0.930 . S
C690 C691 1.367 1_556 S
C690 C698 1.378 1_556 S
C691 C690 1.367 1_554 S
C691 C699 1.433 . S
C692 H688 0.929 . S
C692 C694 1.378 . S
C692 C696 1.350 . S
C693 C696 1.463 . S
C693 C698 1.350 . S
C693 N701 1.427 . S
C694 H685 0.930 . S
C694 C692 1.378 . S
C694 C695 1.367 . S
C695 C694 1.367 . S
C695 C697 1.433 . S
C696 C692 1.350 . S
C696 C693 1.463 . S
C696 N700 1.427 . S
C697 H687 0.929 . S
C697 C695 1.433 . S
C697 N700 1.384 . S
C698 H689 0.929 1_554 S
C698 C690 1.378 1_554 S
C698 C693 1.350 . S
C699 H686 0.929 . S
C699 C691 1.433 . S
C699 N701 1.384 . S
N700 C696 1.427 . S
N700 C697 1.384 . S
N701 C693 1.427 . S
N701 C699 1.384 . S
H702 C708 0.930 . S
H703 C712 0.930 . S
H704 C717 0.929 . S
H705 C715 0.929 . S
H706 C710 0.929 . S
H707 C716 0.929 . S
C708 H702 0.930 . S
C708 C709 1.367 . S
C708 C716 1.378 . S
C709 C708 1.367 . S
C709 C717 1.433 . S
C710 H706 0.929 . S
C710 C712 1.378 . S
C710 C714 1.350 . S
C711 C714 1.463 . S
C711 C716 1.350 . S
C711 N719 1.427 . S
C712 H703 0.930 . S
C712 C710 1.378 . S
C712 C713 1.367 . S
C713 C712 1.367 . S
C713 C715 1.433 . S
C714 C710 1.350 . S
C714 C711 1.463 . S
C714 N718 1.427 . S
C715 H705 0.929 . S
C715 C713 1.433 . S
C715 N718 1.384 . S
C716 H707 0.929 . S
C716 C708 1.378 . S
C716 C711 1.350 . S
C717 H704 0.929 . S
C717 C709 1.433 . S
C717 N719 1.384 . S
N718 C714 1.427 . S
N718 C715 1.384 . S
N719 C711 1.427 . S
N719 C717 1.384 . S
H720 C726 0.930 . S
H721 C730 0.930 . S
H722 C735 0.929 . S
H723 C733 0.929 . S
H724 C728 0.929 1_554 S
H725 C734 0.929 . S
C726 H720 0.930 . S
C726 C727 1.367 . S
C726 C734 1.378 . S
C727 C726 1.367 . S
C727 C735 1.433 . S
C728 H724 0.929 1_556 S
C728 C730 1.378 1_556 S
C728 C732 1.350 . S
C729 C732 1.463 . S
C729 C734 1.350 . S
C729 N737 1.427 . S
C730 H721 0.930 . S
C730 C728 1.378 1_554 S
C730 C731 1.367 1_554 S
C731 C730 1.367 1_556 S
C731 C733 1.433 . S
C732 C728 1.350 . S
C732 C729 1.463 . S
C732 N736 1.427 . S
C733 H723 0.929 . S
C733 C731 1.433 . S
C733 N736 1.384 . S
C734 H725 0.929 . S
C734 C726 1.378 . S
C734 C729 1.350 . S
C735 H722 0.929 . S
C735 C727 1.433 . S
C735 N737 1.384 . S
N736 C732 1.427 . S
N736 C733 1.384 . S
N737 C729 1.427 . S
N737 C735 1.384 . S
H738 C744 0.930 . S
H739 C748 0.930 . S
H740 C753 0.929 . S
H741 C751 0.929 . S
H742 C746 0.929 . S
H743 C752 0.929 . S
C744 H738 0.930 . S
C744 C745 1.367 . S
C744 C752 1.378 . S
C745 C744 1.367 . S
C745 C753 1.433 . S
C746 H742 0.929 . S
C746 C748 1.378 . S
C746 C750 1.350 . S
C747 C750 1.463 . S
C747 C752 1.350 . S
C747 N755 1.427 . S
C748 H739 0.930 . S
C748 C746 1.378 . S
C748 C749 1.367 . S
C749 C748 1.367 . S
C749 C751 1.433 . S
C750 C746 1.350 . S
C750 C747 1.463 . S
C750 N754 1.427 . S
C751 H741 0.929 . S
C751 C749 1.433 . S
C751 N754 1.384 . S
C752 H743 0.929 . S
C752 C744 1.378 . S
C752 C747 1.350 . S
C753 H740 0.929 . S
C753 C745 1.433 . S
C753 N755 1.384 . S
N754 C750 1.427 . S
N754 C751 1.384 . S
N755 C747 1.427 . S
N755 C753 1.384 . S
H756 C762 0.930 . S
H757 C766 0.930 . S
H758 C771 0.929 . S
H759 C769 0.929 . S
H760 C764 0.929 . S
H761 C770 0.929 1_554 S
C762 H756 0.930 . S
C762 C763 1.367 1_554 S
C762 C770 1.378 1_554 S
C763 C762 1.367 1_556 S
C763 C771 1.433 . S
C764 H760 0.929 . S
C764 C766 1.378 . S
C764 C768 1.350 . S
C765 C768 1.463 . S
C765 C770 1.350 . S
C765 N773 1.427 . S
C766 H757 0.930 . S
C766 C764 1.378 . S
C766 C767 1.367 . S
C767 C766 1.367 . S
C767 C769 1.433 . S
C768 C764 1.350 . S
C768 C765 1.463 . S
C768 N772 1.427 . S
C769 H759 0.929 . S
C769 C767 1.433 . S
C769 N772 1.384 . S
C770 H761 0.929 1_556 S
C770 C762 1.378 1_556 S
C770 C765 1.350 . S
C771 H758 0.929 . S
C771 C763 1.433 . S
C771 N773 1.384 . S
N772 C768 1.427 . S
N772 C769 1.384 . S
N773 C765 1.427 . S
N773 C771 1.384 . S
H774 C780 0.930 . S
H775 C784 0.930 . S
H776 C789 0.929 . S
H777 C787 0.929 . S
H778 C782 0.929 . S
H779 C788 0.929 . S
C780 H774 0.930 . S
C780 C781 1.367 . S
C780 C788 1.378 . S
C781 C780 1.367 . S
C781 C789 1.433 . S
C782 H778 0.929 . S
C782 C784 1.378 . S
C782 C786 1.350 . S
C783 C786 1.463 . S
C783 C788 1.350 . S
C783 N791 1.427 . S
C784 H775 0.930 . S
C784 C782 1.378 . S
C784 C785 1.367 . S
C785 C784 1.367 . S
C785 C787 1.433 . S
C786 C782 1.350 . S
C786 C783 1.463 . S
C786 N790 1.427 . S
C787 H777 0.929 . S
C787 C785 1.433 . S
C787 N790 1.384 . S
C788 H779 0.929 . S
C788 C780 1.378 . S
C788 C783 1.350 . S
C789 H776 0.929 . S
C789 C781 1.433 . S
C789 N791 1.384 . S
N790 C786 1.427 . S
N790 C787 1.384 . S
N791 C783 1.427 . S
N791 C789 1.384 . S
H792 C798 0.930 . S
H793 C802 0.930 . S
H794 C807 0.929 . S
H795 C805 0.929 . S
H796 C800 0.929 . S
H797 C806 0.929 . S
C798 H792 0.930 . S
C798 C799 1.367 . S
C798 C806 1.378 . S
C799 C798 1.367 . S
C799 C807 1.433 . S
C800 H796 0.929 . S
C800 C802 1.378 . S
C800 C804 1.350 . S
C801 C804 1.463 . S
C801 C806 1.350 . S
C801 N809 1.427 . S
C802 H793 0.930 . S
C802 C800 1.378 . S
C802 C803 1.367 . S
C803 C802 1.367 . S
C803 C805 1.433 . S
C804 C800 1.350 . S
C804 C801 1.463 . S
C804 N808 1.427 . S
C805 H795 0.929 . S
C805 C803 1.433 . S
C805 N808 1.384 . S
C806 H797 0.929 . S
C806 C798 1.378 . S
C806 C801 1.350 . S
C807 H794 0.929 . S
C807 C799 1.433 . S
C807 N809 1.384 . S
N808 C804 1.427 . S
N808 C805 1.384 . S
N809 C801 1.427 . S
N809 C807 1.384 . S
H810 C816 0.930 . S
H811 C820 0.930 . S
H812 C825 0.929 . S
H813 C823 0.929 . S
H814 C818 0.929 . S
H815 C824 0.929 . S
C816 H810 0.930 . S
C816 C817 1.367 . S
C816 C824 1.378 . S
C817 C816 1.367 . S
C817 C825 1.433 . S
C818 H814 0.929 . S
C818 C820 1.378 . S
C818 C822 1.350 . S
C819 C822 1.463 . S
C819 C824 1.350 . S
C819 N827 1.427 . S
C820 H811 0.930 . S
C820 C818 1.378 . S
C820 C821 1.367 . S
C821 C820 1.367 . S
C821 C823 1.433 . S
C822 C818 1.350 . S
C822 C819 1.463 . S
C822 N826 1.427 . S
C823 H813 0.929 . S
C823 C821 1.433 . S
C823 N826 1.384 . S
C824 H815 0.929 . S
C824 C816 1.378 . S
C824 C819 1.350 . S
C825 H812 0.929 . S
C825 C817 1.433 . S
C825 N827 1.384 . S
N826 C822 1.427 . S
N826 C823 1.384 . S
N827 C819 1.427 . S
N827 C825 1.384 . S
H828 C834 0.930 . S
H829 C838 0.930 . S
H830 C843 0.929 . S
H831 C841 0.929 . S
H832 C836 0.929 . S
H833 C842 0.929 . S
C834 H828 0.930 . S
C834 C835 1.367 . S
C834 C842 1.378 . S
C835 C834 1.367 . S
C835 C843 1.433 . S
C836 H832 0.929 . S
C836 C838 1.378 . S
C836 C840 1.350 1_554 S
C837 C840 1.463 . S
C837 C842 1.350 . S
C837 N845 1.427 . S
C838 H829 0.930 . S
C838 C836 1.378 . S
C838 C839 1.367 . S
C839 C838 1.367 . S
C839 C841 1.433 . S
C840 C836 1.350 1_556 S
C840 C837 1.463 . S
C840 N844 1.427 . S
C841 H831 0.929 . S
C841 C839 1.433 . S
C841 N844 1.384 1_554 S
C842 H833 0.929 . S
C842 C834 1.378 . S
C842 C837 1.350 . S
C843 H830 0.929 . S
C843 C835 1.433 . S
C843 N845 1.384 . S
N844 C840 1.427 . S
N844 C841 1.384 1_556 S
N845 C837 1.427 . S
N845 C843 1.384 . S
H846 C852 0.930 . S
H847 C856 0.930 . S
H848 C861 0.929 . S
H849 C859 0.929 . S
H850 C854 0.929 . S
H851 C860 0.929 . S
C852 H846 0.930 . S
C852 C853 1.367 1_556 S
C852 C860 1.378 . S
C853 C852 1.367 1_554 S
C853 C861 1.433 . S
C854 H850 0.929 . S
C854 C856 1.378 . S
C854 C858 1.350 . S
C855 C858 1.463 . S
C855 C860 1.350 . S
C855 N863 1.427 . S
C856 H847 0.930 . S
C856 C854 1.378 . S
C856 C857 1.367 . S
C857 C856 1.367 . S
C857 C859 1.433 . S
C858 C854 1.350 . S
C858 C855 1.463 . S
C858 N862 1.427 . S
C859 H849 0.929 . S
C859 C857 1.433 . S
C859 N862 1.384 . S
C860 H851 0.929 . S
C860 C852 1.378 . S
C860 C855 1.350 . S
C861 H848 0.929 . S
C861 C853 1.433 . S
C861 N863 1.384 1_554 S
N862 C858 1.427 . S
N862 C859 1.384 . S
N863 C855 1.427 . S
N863 C861 1.384 1_556 S
H864 C870 0.930 . S
H865 C874 0.930 . S
H866 C879 0.929 . S
H867 C877 0.929 . S
H868 C872 0.929 . S
H869 C878 0.929 . S
C870 H864 0.930 . S
C870 C871 1.367 1_556 S
C870 C878 1.378 . S
C871 C870 1.367 1_554 S
C871 C879 1.433 . S
C872 H868 0.929 . S
C872 C874 1.378 . S
C872 C876 1.350 . S
C873 C876 1.463 . S
C873 C878 1.350 . S
C873 N881 1.427 1_556 S
C874 H865 0.930 . S
C874 C872 1.378 . S
C874 C875 1.367 . S
C875 C874 1.367 . S
C875 C877 1.433 . S
C876 C872 1.350 . S
C876 C873 1.463 . S
C876 N880 1.427 . S
C877 H867 0.929 . S
C877 C875 1.433 . S
C877 N880 1.384 . S
C878 H869 0.929 . S
C878 C870 1.378 . S
C878 C873 1.350 . S
C879 H866 0.929 . S
C879 C871 1.433 . S
C879 N881 1.384 . S
N880 C876 1.427 . S
N880 C877 1.384 . S
N881 C873 1.427 1_554 S
N881 C879 1.384 . S
H882 C888 0.930 . S
H883 C892 0.930 . S
H884 C897 0.929 . S
H885 C895 0.929 . S
H886 C890 0.929 . S
H887 C896 0.929 . S
C888 H882 0.930 . S
C888 C889 1.367 . S
C888 C896 1.378 . S
C889 C888 1.367 . S
C889 C897 1.433 . S
C890 H886 0.929 . S
C890 C892 1.378 . S
C890 C894 1.350 . S
C891 C894 1.463 . S
C891 C896 1.350 . S
C891 N899 1.427 . S
C892 H883 0.930 . S
C892 C890 1.378 . S
C892 C893 1.367 . S
C893 C892 1.367 . S
C893 C895 1.433 . S
C894 C890 1.350 . S
C894 C891 1.463 . S
C894 N898 1.427 . S
C895 H885 0.929 . S
C895 C893 1.433 . S
C895 N898 1.384 . S
C896 H887 0.929 . S
C896 C888 1.378 . S
C896 C891 1.350 . S
C897 H884 0.929 . S
C897 C889 1.433 . S
C897 N899 1.384 . S
N898 C894 1.427 . S
N898 C895 1.384 . S
N899 C891 1.427 . S
N899 C897 1.384 . S
H900 C906 0.930 . S
H901 C910 0.930 . S
H902 C915 0.929 . S
H903 C913 0.929 . S
H904 C908 0.929 . S
H905 C914 0.929 . S
C906 H900 0.930 . S
C906 C907 1.367 . S
C906 C914 1.378 . S
C907 C906 1.367 . S
C907 C915 1.433 . S
C908 H904 0.929 . S
C908 C910 1.378 . S
C908 C912 1.350 . S
C909 C912 1.463 . S
C909 C914 1.350 . S
C909 N917 1.427 . S
C910 H901 0.930 . S
C910 C908 1.378 . S
C910 C911 1.367 . S
C911 C910 1.367 . S
C911 C913 1.433 . S
C912 C908 1.350 . S
C912 C909 1.463 . S
C912 N916 1.427 . S
C913 H903 0.929 . S
C913 C911 1.433 . S
C913 N916 1.384 . S
C914 H905 0.929 . S
C914 C906 1.378 . S
C914 C909 1.350 . S
C915 H902 0.929 . S
C915 C907 1.433 . S
C915 N917 1.384 . S
N916 C912 1.427 . S
N916 C913 1.384 . S
N917 C909 1.427 . S
N917 C915 1.384 . S
H918 C924 0.930 . S
H919 C928 0.930 . S
H920 C933 0.929 . S
H921 C931 0.929 . S
H922 C926 0.929 . S
H923 C932 0.929 . S
C924 H918 0.930 . S
C924 C925 1.367 . S
C924 C932 1.378 . S
C925 C924 1.367 . S
C925 C933 1.433 . S
C926 H922 0.929 . S
C926 C928 1.378 . S
C926 C930 1.350 . S
C927 C930 1.463 . S
C927 C932 1.350 . S
C927 N935 1.427 . S
C928 H919 0.930 . S
C928 C926 1.378 . S
C928 C929 1.367 . S
C929 C928 1.367 . S
C929 C931 1.433 . S
C930 C926 1.350 . S
C930 C927 1.463 . S
C930 N934 1.427 . S
C931 H921 0.929 . S
C931 C929 1.433 . S
C931 N934 1.384 . S
C932 H923 0.929 . S
C932 C924 1.378 . S
C932 C927 1.350 . S
C933 H920 0.929 . S
C933 C925 1.433 . S
C933 N935 1.384 . S
N934 C930 1.427 . S
N934 C931 1.384 . S
N935 C927 1.427 . S
N935 C933 1.384 . S
H936 C942 0.930 . S
H937 C946 0.930 . S
H938 C951 0.929 . S
H939 C949 0.929 . S
H940 C944 0.929 . S
H941 C950 0.929 . S
C942 H936 0.930 . S
C942 C943 1.367 . S
C942 C950 1.378 1_556 S
C943 C942 1.367 . S
C943 C951 1.433 . S
C944 H940 0.929 . S
C944 C946 1.378 . S
C944 C948 1.350 . S
C945 C948 1.463 . S
C945 C950 1.350 . S
C945 N953 1.427 1_554 S
C946 H937 0.930 . S
C946 C944 1.378 . S
C946 C947 1.367 . S
C947 C946 1.367 . S
C947 C949 1.433 . S
C948 C944 1.350 . S
C948 C945 1.463 . S
C948 N952 1.427 . S
C949 H939 0.929 . S
C949 C947 1.433 . S
C949 N952 1.384 . S
C950 H941 0.929 . S
C950 C942 1.378 1_554 S
C950 C945 1.350 . S
C951 H938 0.929 . S
C951 C943 1.433 . S
C951 N953 1.384 . S
N952 C948 1.427 . S
N952 C949 1.384 . S
N953 C945 1.427 1_556 S
N953 C951 1.384 . S
H954 C960 0.930 . S
H955 C964 0.930 . S
H956 C969 0.929 . S
H957 C967 0.929 . S
H958 C962 0.929 . S
H959 C968 0.929 . S
C960 H954 0.930 . S
C960 C961 1.367 . S
C960 C968 1.378 1_556 S
C961 C960 1.367 . S
C961 C969 1.433 . S
C962 H958 0.929 . S
C962 C964 1.378 . S
C962 C966 1.350 . S
C963 C966 1.463 . S
C963 C968 1.350 . S
C963 N971 1.427 1_554 S
C964 H955 0.930 . S
C964 C962 1.378 . S
C964 C965 1.367 . S
C965 C964 1.367 . S
C965 C967 1.433 . S
C966 C962 1.350 . S
C966 C963 1.463 . S
C966 N970 1.427 . S
C967 H957 0.929 . S
C967 C965 1.433 . S
C967 N970 1.384 . S
C968 H959 0.929 . S
C968 C960 1.378 1_554 S
C968 C963 1.350 . S
C969 H956 0.929 . S
C969 C961 1.433 . S
C969 N971 1.384 . S
N970 C966 1.427 . S
N970 C967 1.384 . S
N971 C963 1.427 1_556 S
N971 C969 1.384 . S
H972 C978 0.930 . S
H973 C982 0.930 . S
H974 C987 0.929 . S
H975 C985 0.929 . S
H976 C980 0.929 . S
H977 C986 0.929 . S
C978 H972 0.930 . S
C978 C979 1.367 . S
C978 C986 1.378 . S
C979 C978 1.367 . S
C979 C987 1.433 . S
C980 H976 0.929 . S
C980 C982 1.378 . S
C980 C984 1.350 . S
C981 C984 1.463 . S
C981 C986 1.350 . S
C981 N989 1.427 . S
C982 H973 0.930 . S
C982 C980 1.378 . S
C982 C983 1.367 1_554 S
C983 C982 1.367 1_556 S
C983 C985 1.433 . S
C984 C980 1.350 . S
C984 C981 1.463 . S
C984 N988 1.427 . S
C985 H975 0.929 . S
C985 C983 1.433 . S
C985 N988 1.384 1_556 S
C986 H977 0.929 . S
C986 C978 1.378 . S
C986 C981 1.350 . S
C987 H974 0.929 . S
C987 C979 1.433 . S
C987 N989 1.384 . S
N988 C984 1.427 . S
N988 C985 1.384 1_554 S
N989 C981 1.427 . S
N989 C987 1.384 . S
H990 C996 0.930 . S
H991 C1000 0.930 . S
H992 C1005 0.929 . S
H993 C1003 0.929 . S
H994 C998 0.929 . S
H995 C1004 0.929 . S
C996 H990 0.930 . S
C996 C997 1.367 . S
C996 C1004 1.378 . S
C997 C996 1.367 . S
C997 C1005 1.433 . S
C998 H994 0.929 . S
C998 C1000 1.378 . S
C998 C1002 1.350 . S
C999 C1002 1.463 . S
C999 C1004 1.350 . S
C999 N1007 1.427 . S
C1000 H991 0.930 . S
C1000 C998 1.378 . S
C1000 C1001 1.367 . S
C1001 C1000 1.367 . S
C1001 C1003 1.433 . S
C1002 C998 1.350 . S
C1002 C999 1.463 . S
C1002 N1006 1.427 . S
C1003 H993 0.929 . S
C1003 C1001 1.433 . S
C1003 N1006 1.384 . S
C1004 H995 0.929 . S
C1004 C996 1.378 . S
C1004 C999 1.350 . S
C1005 H992 0.929 . S
C1005 C997 1.433 . S
C1005 N1007 1.384 . S
N1006 C1002 1.427 . S
N1006 C1003 1.384 . S
N1007 C999 1.427 . S
N1007 C1005 1.384 . S
H1008 C1014 0.930 . S
H1009 C1018 0.930 . S
H1010 C1023 0.929 . S
H1011 C1021 0.929 . S
H1012 C1016 0.929 . S
H1013 C1022 0.929 . S
C1014 H1008 0.930 . S
C1014 C1015 1.367 . S
C1014 C1022 1.378 . S
C1015 C1014 1.367 . S
C1015 C1023 1.433 . S
C1016 H1012 0.929 . S
C1016 C1018 1.378 . S
C1016 C1020 1.350 . S
C1017 C1020 1.463 . S
C1017 C1022 1.350 . S
C1017 N1025 1.427 . S
C1018 H1009 0.930 . S
C1018 C1016 1.378 . S
C1018 C1019 1.367 . S
C1019 C1018 1.367 . S
C1019 C1021 1.433 . S
C1020 C1016 1.350 . S
C1020 C1017 1.463 . S
C1020 N1024 1.427 . S
C1021 H1011 0.929 . S
C1021 C1019 1.433 . S
C1021 N1024 1.384 . S
C1022 H1013 0.929 . S
C1022 C1014 1.378 . S
C1022 C1017 1.350 . S
C1023 H1010 0.929 . S
C1023 C1015 1.433 . S
C1023 N1025 1.384 . S
N1024 C1020 1.427 . S
N1024 C1021 1.384 . S
N1025 C1017 1.427 . S
N1025 C1023 1.384 . S
H1026 C1032 0.930 . S
H1027 C1036 0.930 . S
H1028 C1041 0.929 . S
H1029 C1039 0.929 . S
H1030 C1034 0.929 . S
H1031 C1040 0.929 . S
C1032 H1026 0.930 . S
C1032 C1033 1.367 . S
C1032 C1040 1.378 . S
C1033 C1032 1.367 . S
C1033 C1041 1.433 . S
C1034 H1030 0.929 . S
C1034 C1036 1.378 . S
C1034 C1038 1.350 . S
C1035 C1038 1.463 . S
C1035 C1040 1.350 . S
C1035 N1043 1.427 . S
C1036 H1027 0.930 . S
C1036 C1034 1.378 . S
C1036 C1037 1.367 . S
C1037 C1036 1.367 . S
C1037 C1039 1.433 . S
C1038 C1034 1.350 . S
C1038 C1035 1.463 . S
C1038 N1042 1.427 . S
C1039 H1029 0.929 . S
C1039 C1037 1.433 . S
C1039 N1042 1.384 . S
C1040 H1031 0.929 . S
C1040 C1032 1.378 . S
C1040 C1035 1.350 . S
C1041 H1028 0.929 . S
C1041 C1033 1.433 . S
C1041 N1043 1.384 . S
N1042 C1038 1.427 . S
N1042 C1039 1.384 . S
N1043 C1035 1.427 . S
N1043 C1041 1.384 . S
H1044 C1050 0.930 . S
H1045 C1054 0.930 . S
H1046 C1059 0.929 . S
H1047 C1057 0.929 . S
H1048 C1052 0.929 . S
H1049 C1058 0.929 . S
C1050 H1044 0.930 . S
C1050 C1051 1.367 . S
C1050 C1058 1.378 . S
C1051 C1050 1.367 . S
C1051 C1059 1.433 . S
C1052 H1048 0.929 . S
C1052 C1054 1.378 . S
C1052 C1056 1.350 . S
C1053 C1056 1.463 . S
C1053 C1058 1.350 . S
C1053 N1061 1.427 . S
C1054 H1045 0.930 . S
C1054 C1052 1.378 . S
C1054 C1055 1.367 . S
C1055 C1054 1.367 . S
C1055 C1057 1.433 . S
C1056 C1052 1.350 . S
C1056 C1053 1.463 . S
C1056 N1060 1.427 . S
C1057 H1047 0.929 . S
C1057 C1055 1.433 . S
C1057 N1060 1.384 . S
C1058 H1049 0.929 . S
C1058 C1050 1.378 . S
C1058 C1053 1.350 . S
C1059 H1046 0.929 . S
C1059 C1051 1.433 . S
C1059 N1061 1.384 . S
N1060 C1056 1.427 . S
N1060 C1057 1.384 . S
N1061 C1053 1.427 . S
N1061 C1059 1.384 . S
H1062 C1068 0.930 . S
H1063 C1072 0.930 . S
H1064 C1077 0.929 . S
H1065 C1075 0.929 . S
H1066 C1070 0.929 . S
H1067 C1076 0.929 . S
C1068 H1062 0.930 . S
C1068 C1069 1.367 . S
C1068 C1076 1.378 . S
C1069 C1068 1.367 . S
C1069 C1077 1.433 . S
C1070 H1066 0.929 . S
C1070 C1072 1.378 . S
C1070 C1074 1.350 . S
C1071 C1074 1.463 . S
C1071 C1076 1.350 . S
C1071 N1079 1.427 . S
C1072 H1063 0.930 . S
C1072 C1070 1.378 . S
C1072 C1073 1.367 . S
C1073 C1072 1.367 . S
C1073 C1075 1.433 . S
C1074 C1070 1.350 . S
C1074 C1071 1.463 . S
C1074 N1078 1.427 . S
C1075 H1065 0.929 . S
C1075 C1073 1.433 . S
C1075 N1078 1.384 . S
C1076 H1067 0.929 . S
C1076 C1068 1.378 . S
C1076 C1071 1.350 . S
C1077 H1064 0.929 . S
C1077 C1069 1.433 . S
C1077 N1079 1.384 . S
N1078 C1074 1.427 . S
N1078 C1075 1.384 . S
N1079 C1071 1.427 . S
N1079 C1077 1.384 . S
H1080 C1086 0.930 . S
H1081 C1090 0.930 . S
H1082 C1095 0.929 . S
H1083 C1093 0.929 . S
H1084 C1088 0.929 . S
H1085 C1094 0.929 . S
C1086 H1080 0.930 . S
C1086 C1087 1.367 . S
C1086 C1094 1.378 . S
C1087 C1086 1.367 . S
C1087 C1095 1.433 . S
C1088 H1084 0.929 . S
C1088 C1090 1.378 . S
C1088 C1092 1.350 . S
C1089 C1092 1.463 . S
C1089 C1094 1.350 . S
C1089 N1097 1.427 . S
C1090 H1081 0.930 . S
C1090 C1088 1.378 . S
C1090 C1091 1.367 . S
C1091 C1090 1.367 . S
C1091 C1093 1.433 . S
C1092 C1088 1.350 . S
C1092 C1089 1.463 . S
C1092 N1096 1.427 . S
C1093 H1083 0.929 . S
C1093 C1091 1.433 . S
C1093 N1096 1.384 . S
C1094 H1085 0.929 . S
C1094 C1086 1.378 . S
C1094 C1089 1.350 . S
C1095 H1082 0.929 . S
C1095 C1087 1.433 . S
C1095 N1097 1.384 . S
N1096 C1092 1.427 . S
N1096 C1093 1.384 . S
N1097 C1089 1.427 . S
N1097 C1095 1.384 . S
H1098 C1104 0.930 . S
H1099 C1108 0.930 . S
H1100 C1113 0.929 . S
H1101 C1111 0.931 . S
H1102 C1106 0.929 . S
H1103 C1112 0.929 . S
C1104 H1098 0.930 . S
C1104 C1105 1.367 . S
C1104 C1112 1.378 . S
C1105 C1104 1.367 . S
C1105 C1113 1.433 . S
C1106 H1102 0.929 . S
C1106 C1108 1.378 1_556 S
C1106 C1110 1.350 . S
C1107 C1110 1.463 . S
C1107 C1112 1.350 . S
C1107 N1115 1.427 . S
C1108 H1099 0.930 . S
C1108 C1106 1.378 1_554 S
C1108 C1109 1.367 . S
C1109 C1108 1.367 . S
C1109 C1111 1.433 1_554 S
C1110 C1106 1.350 . S
C1110 C1107 1.463 . S
C1110 N1114 1.427 . S
C1111 H1101 0.931 . S
C1111 C1109 1.433 1_556 S
C1111 N1114 1.384 . S
C1112 H1103 0.929 . S
C1112 C1104 1.378 . S
C1112 C1107 1.350 . S
C1113 H1100 0.929 . S
C1113 C1105 1.433 . S
C1113 N1115 1.384 . S
N1114 C1110 1.427 . S
N1114 C1111 1.384 . S
N1115 C1107 1.427 . S
N1115 C1113 1.384 . S
H1116 C1122 0.930 . S
H1117 C1126 0.930 . S
H1118 C1131 0.929 . S
H1119 C1129 0.929 . S
H1120 C1124 0.929 . S
H1121 C1130 0.929 . S
C1122 H1116 0.930 . S
C1122 C1123 1.367 . S
C1122 C1130 1.378 1_554 S
C1123 C1122 1.367 . S
C1123 C1131 1.433 . S
C1124 H1120 0.929 . S
C1124 C1126 1.378 . S
C1124 C1128 1.350 . S
C1125 C1128 1.463 . S
C1125 C1130 1.350 . S
C1125 N1133 1.427 . S
C1126 H1117 0.930 . S
C1126 C1124 1.378 . S
C1126 C1127 1.367 . S
C1127 C1126 1.367 . S
C1127 C1129 1.433 . S
C1128 C1124 1.350 . S
C1128 C1125 1.463 . S
C1128 N1132 1.427 . S
C1129 H1119 0.929 . S
C1129 C1127 1.433 . S
C1129 N1132 1.384 . S
C1130 H1121 0.929 . S
C1130 C1122 1.378 1_556 S
C1130 C1125 1.350 . S
C1131 H1118 0.929 . S
C1131 C1123 1.433 . S
C1131 N1133 1.384 1_554 S
N1132 C1128 1.427 . S
N1132 C1129 1.384 . S
N1133 C1125 1.427 . S
N1133 C1131 1.384 1_556 S
H1134 C1140 0.930 . S
H1135 C1144 0.930 . S
H1136 C1149 0.929 . S
H1137 C1147 0.929 . S
H1138 C1142 0.929 . S
H1139 C1148 0.929 . S
C1140 H1134 0.930 . S
C1140 C1141 1.367 . S
C1140 C1148 1.378 . S
C1141 C1140 1.367 . S
C1141 C1149 1.433 . S
C1142 H1138 0.929 . S
C1142 C1144 1.378 . S
C1142 C1146 1.350 . S
C1143 C1146 1.463 . S
C1143 C1148 1.350 . S
C1143 N1151 1.427 . S
C1144 H1135 0.930 . S
C1144 C1142 1.378 . S
C1144 C1145 1.367 1_556 S
C1145 C1144 1.367 1_554 S
C1145 C1147 1.433 . S
C1146 C1142 1.350 . S
C1146 C1143 1.463 . S
C1146 N1150 1.427 . S
C1147 H1137 0.929 . S
C1147 C1145 1.433 . S
C1147 N1150 1.384 1_554 S
C1148 H1139 0.929 . S
C1148 C1140 1.378 . S
C1148 C1143 1.350 . S
C1149 H1136 0.929 . S
C1149 C1141 1.433 . S
C1149 N1151 1.384 . S
N1150 C1146 1.427 . S
N1150 C1147 1.384 1_556 S
N1151 C1143 1.427 . S
N1151 C1149 1.384 . S
H1152 C1158 0.930 . S
H1153 C1162 0.930 . S
H1154 C1167 0.929 . S
H1155 C1165 0.929 . S
H1156 C1160 0.929 . S
H1157 C1166 0.929 . S
C1158 H1152 0.930 . S
C1158 C1159 1.367 . S
C1158 C1166 1.378 . S
C1159 C1158 1.367 . S
C1159 C1167 1.433 . S
C1160 H1156 0.929 . S
C1160 C1162 1.378 . S
C1160 C1164 1.350 . S
C1161 C1164 1.463 . S
C1161 C1166 1.350 . S
C1161 N1169 1.427 . S
C1162 H1153 0.930 . S
C1162 C1160 1.378 . S
C1162 C1163 1.367 . S
C1163 C1162 1.367 . S
C1163 C1165 1.433 . S
C1164 C1160 1.350 . S
C1164 C1161 1.463 . S
C1164 N1168 1.427 . S
C1165 H1155 0.929 . S
C1165 C1163 1.433 . S
C1165 N1168 1.384 . S
C1166 H1157 0.929 . S
C1166 C1158 1.378 . S
C1166 C1161 1.350 . S
C1167 H1154 0.929 . S
C1167 C1159 1.433 . S
C1167 N1169 1.384 . S
N1168 C1164 1.427 . S
N1168 C1165 1.384 . S
N1169 C1161 1.427 . S
N1169 C1167 1.384 . S
H1170 C1176 0.930 . S
H1171 C1180 0.930 . S
H1172 C1185 0.929 . S
H1173 C1183 0.929 . S
H1174 C1178 0.929 . S
H1175 C1184 0.929 . S
C1176 H1170 0.930 . S
C1176 C1177 1.367 . S
C1176 C1184 1.378 . S
C1177 C1176 1.367 . S
C1177 C1185 1.433 . S
C1178 H1174 0.929 . S
C1178 C1180 1.378 . S
C1178 C1182 1.350 . S
C1179 C1182 1.463 . S
C1179 C1184 1.350 . S
C1179 N1187 1.427 . S
C1180 H1171 0.930 . S
C1180 C1178 1.378 . S
C1180 C1181 1.367 . S
C1181 C1180 1.367 . S
C1181 C1183 1.433 . S
C1182 C1178 1.350 . S
C1182 C1179 1.463 . S
C1182 N1186 1.427 . S
C1183 H1173 0.929 . S
C1183 C1181 1.433 . S
C1183 N1186 1.384 . S
C1184 H1175 0.929 . S
C1184 C1176 1.378 . S
C1184 C1179 1.350 . S
C1185 H1172 0.929 . S
C1185 C1177 1.433 . S
C1185 N1187 1.384 . S
N1186 C1182 1.427 . S
N1186 C1183 1.384 . S
N1187 C1179 1.427 . S
N1187 C1185 1.384 . S
H1188 C1194 0.930 . S
H1189 C1198 0.930 . S
H1190 C1203 0.929 . S
H1191 C1201 0.929 . S
H1192 C1196 0.929 . S
H1193 C1202 0.929 . S
C1194 H1188 0.930 . S
C1194 C1195 1.367 . S
C1194 C1202 1.378 . S
C1195 C1194 1.367 . S
C1195 C1203 1.433 . S
C1196 H1192 0.929 . S
C1196 C1198 1.378 . S
C1196 C1200 1.350 . S
C1197 C1200 1.463 . S
C1197 C1202 1.350 . S
C1197 N1205 1.427 . S
C1198 H1189 0.930 . S
C1198 C1196 1.378 . S
C1198 C1199 1.367 . S
C1199 C1198 1.367 . S
C1199 C1201 1.433 . S
C1200 C1196 1.350 . S
C1200 C1197 1.463 . S
C1200 N1204 1.427 . S
C1201 H1191 0.929 . S
C1201 C1199 1.433 . S
C1201 N1204 1.384 . S
C1202 H1193 0.929 . S
C1202 C1194 1.378 . S
C1202 C1197 1.350 . S
C1203 H1190 0.929 . S
C1203 C1195 1.433 . S
C1203 N1205 1.384 . S
N1204 C1200 1.427 . S
N1204 C1201 1.384 . S
N1205 C1197 1.427 . S
N1205 C1203 1.384 . S
H1206 C1212 0.930 . S
H1207 C1216 0.930 . S
H1208 C1221 0.929 . S
H1209 C1219 0.929 . S
H1210 C1214 0.929 . S
H1211 C1220 0.929 . S
C1212 H1206 0.930 . S
C1212 C1213 1.367 . S
C1212 C1220 1.378 . S
C1213 C1212 1.367 . S
C1213 C1221 1.433 . S
C1214 H1210 0.929 . S
C1214 C1216 1.378 . S
C1214 C1218 1.350 . S
C1215 C1218 1.463 . S
C1215 C1220 1.350 . S
C1215 N1223 1.427 . S
C1216 H1207 0.930 . S
C1216 C1214 1.378 . S
C1216 C1217 1.367 . S
C1217 C1216 1.367 . S
C1217 C1219 1.433 . S
C1218 C1214 1.350 . S
C1218 C1215 1.463 . S
C1218 N1222 1.427 . S
C1219 H1209 0.929 . S
C1219 C1217 1.433 . S
C1219 N1222 1.384 . S
C1220 H1211 0.929 . S
C1220 C1212 1.378 . S
C1220 C1215 1.350 . S
C1221 H1208 0.929 . S
C1221 C1213 1.433 . S
C1221 N1223 1.384 . S
N1222 C1218 1.427 . S
N1222 C1219 1.384 . S
N1223 C1215 1.427 . S
N1223 C1221 1.384 . S
H1224 C1230 0.930 . S
H1225 C1234 0.930 . S
H1226 C1239 0.929 . S
H1227 C1237 0.929 . S
H1228 C1232 0.929 . S
H1229 C1238 0.929 . S
C1230 H1224 0.930 . S
C1230 C1231 1.367 . S
C1230 C1238 1.378 . S
C1231 C1230 1.367 . S
C1231 C1239 1.433 . S
C1232 H1228 0.929 . S
C1232 C1234 1.378 . S
C1232 C1236 1.350 . S
C1233 C1236 1.463 . S
C1233 C1238 1.350 . S
C1233 N1241 1.427 . S
C1234 H1225 0.930 . S
C1234 C1232 1.378 . S
C1234 C1235 1.367 . S
C1235 C1234 1.367 . S
C1235 C1237 1.433 . S
C1236 C1232 1.350 . S
C1236 C1233 1.463 . S
C1236 N1240 1.427 . S
C1237 H1227 0.929 . S
C1237 C1235 1.433 . S
C1237 N1240 1.384 . S
C1238 H1229 0.929 . S
C1238 C1230 1.378 . S
C1238 C1233 1.350 . S
C1239 H1226 0.929 . S
C1239 C1231 1.433 . S
C1239 N1241 1.384 . S
N1240 C1236 1.427 . S
N1240 C1237 1.384 . S
N1241 C1233 1.427 . S
N1241 C1239 1.384 . S
H1242 C1248 0.930 . S
H1243 C1252 0.930 . S
H1244 C1257 0.929 . S
H1245 C1255 0.929 . S
H1246 C1250 0.929 . S
H1247 C1256 0.929 . S
C1248 H1242 0.930 . S
C1248 C1249 1.367 . S
C1248 C1256 1.378 . S
C1249 C1248 1.367 . S
C1249 C1257 1.433 . S
C1250 H1246 0.929 . S
C1250 C1252 1.378 . S
C1250 C1254 1.350 . S
C1251 C1254 1.463 . S
C1251 C1256 1.350 . S
C1251 N1259 1.427 . S
C1252 H1243 0.930 . S
C1252 C1250 1.378 . S
C1252 C1253 1.367 . S
C1253 C1252 1.367 . S
C1253 C1255 1.433 . S
C1254 C1250 1.350 . S
C1254 C1251 1.463 . S
C1254 N1258 1.427 . S
C1255 H1245 0.929 . S
C1255 C1253 1.433 . S
C1255 N1258 1.384 . S
C1256 H1247 0.929 . S
C1256 C1248 1.378 . S
C1256 C1251 1.350 . S
C1257 H1244 0.929 . S
C1257 C1249 1.433 . S
C1257 N1259 1.384 . S
N1258 C1254 1.427 . S
N1258 C1255 1.384 . S
N1259 C1251 1.427 . S
N1259 C1257 1.384 . S
H1260 C1266 0.930 . S
H1261 C1270 0.930 . S
H1262 C1275 0.929 . S
H1263 C1273 0.929 . S
H1264 C1268 0.929 . S
H1265 C1274 0.929 . S
C1266 H1260 0.930 . S
C1266 C1267 1.367 . S
C1266 C1274 1.378 . S
C1267 C1266 1.367 . S
C1267 C1275 1.433 . S
C1268 H1264 0.929 . S
C1268 C1270 1.378 . S
C1268 C1272 1.350 . S
C1269 C1272 1.463 . S
C1269 C1274 1.350 . S
C1269 N1277 1.427 . S
C1270 H1261 0.930 . S
C1270 C1268 1.378 . S
C1270 C1271 1.367 . S
C1271 C1270 1.367 . S
C1271 C1273 1.433 . S
C1272 C1268 1.350 . S
C1272 C1269 1.463 . S
C1272 N1276 1.427 . S
C1273 H1263 0.929 . S
C1273 C1271 1.433 . S
C1273 N1276 1.384 . S
C1274 H1265 0.929 . S
C1274 C1266 1.378 . S
C1274 C1269 1.350 . S
C1275 H1262 0.929 . S
C1275 C1267 1.433 . S
C1275 N1277 1.384 . S
N1276 C1272 1.427 . S
N1276 C1273 1.384 . S
N1277 C1269 1.427 . S
N1277 C1275 1.384 . S
H1278 C1284 0.930 . S
H1279 C1288 0.930 . S
H1280 C1293 0.929 . S
H1281 C1291 0.929 . S
H1282 C1286 0.929 . S
H1283 C1292 0.929 . S
C1284 H1278 0.930 . S
C1284 C1285 1.367 . S
C1284 C1292 1.378 . S
C1285 C1284 1.367 . S
C1285 C1293 1.433 . S
C1286 H1282 0.929 . S
C1286 C1288 1.378 . S
C1286 C1290 1.350 . S
C1287 C1290 1.463 . S
C1287 C1292 1.350 . S
C1287 N1295 1.427 . S
C1288 H1279 0.930 . S
C1288 C1286 1.378 . S
C1288 C1289 1.367 . S
C1289 C1288 1.367 . S
C1289 C1291 1.433 . S
C1290 C1286 1.350 . S
C1290 C1287 1.463 . S
C1290 N1294 1.427 . S
C1291 H1281 0.929 . S
C1291 C1289 1.433 . S
C1291 N1294 1.384 . S
C1292 H1283 0.929 . S
C1292 C1284 1.378 . S
C1292 C1287 1.350 . S
C1293 H1280 0.929 . S
C1293 C1285 1.433 . S
C1293 N1295 1.384 . S
N1294 C1290 1.427 . S
N1294 C1291 1.384 . S
N1295 C1287 1.427 . S
N1295 C1293 1.384 . S
H1296 C1302 0.930 . S
H1297 C1306 0.930 . S
H1298 C1311 0.929 . S
H1299 C1309 0.929 . S
H1300 C1304 0.929 . S
H1301 C1310 0.929 . S
C1302 H1296 0.930 . S
C1302 C1303 1.367 . S
C1302 C1310 1.378 . S
C1303 C1302 1.367 . S
C1303 C1311 1.433 . S
C1304 H1300 0.929 . S
C1304 C1306 1.378 . S
C1304 C1308 1.350 . S
C1305 C1308 1.463 . S
C1305 C1310 1.350 . S
C1305 N1313 1.427 . S
C1306 H1297 0.930 . S
C1306 C1304 1.378 . S
C1306 C1307 1.367 . S
C1307 C1306 1.367 . S
C1307 C1309 1.433 . S
C1308 C1304 1.350 . S
C1308 C1305 1.463 . S
C1308 N1312 1.427 . S
C1309 H1299 0.929 . S
C1309 C1307 1.433 . S
C1309 N1312 1.384 . S
C1310 H1301 0.929 . S
C1310 C1302 1.378 . S
C1310 C1305 1.350 . S
C1311 H1298 0.929 . S
C1311 C1303 1.433 . S
C1311 N1313 1.384 . S
N1312 C1308 1.427 . S
N1312 C1309 1.384 . S
N1313 C1305 1.427 . S
N1313 C1311 1.384 . S
H1314 C1320 0.930 . S
H1315 C1324 0.930 . S
H1316 C1329 0.929 . S
H1317 C1327 0.929 . S
H1318 C1322 0.929 . S
H1319 C1328 0.929 . S
C1320 H1314 0.930 . S
C1320 C1321 1.367 . S
C1320 C1328 1.378 . S
C1321 C1320 1.367 . S
C1321 C1329 1.433 . S
C1322 H1318 0.929 . S
C1322 C1324 1.378 . S
C1322 C1326 1.350 . S
C1323 C1326 1.463 . S
C1323 C1328 1.350 . S
C1323 N1331 1.427 . S
C1324 H1315 0.930 . S
C1324 C1322 1.378 . S
C1324 C1325 1.367 . S
C1325 C1324 1.367 . S
C1325 C1327 1.433 . S
C1326 C1322 1.350 . S
C1326 C1323 1.463 . S
C1326 N1330 1.427 . S
C1327 H1317 0.929 . S
C1327 C1325 1.433 . S
C1327 N1330 1.384 . S
C1328 H1319 0.929 . S
C1328 C1320 1.378 . S
C1328 C1323 1.350 . S
C1329 H1316 0.929 . S
C1329 C1321 1.433 . S
C1329 N1331 1.384 . S
N1330 C1326 1.427 . S
N1330 C1327 1.384 . S
N1331 C1323 1.427 . S
N1331 C1329 1.384 . S
H1332 C1338 0.930 . S
H1333 C1342 0.930 . S
H1334 C1347 0.929 . S
H1335 C1345 0.929 . S
H1336 C1340 0.929 . S
H1337 C1346 0.929 . S
C1338 H1332 0.930 . S
C1338 C1339 1.367 . S
C1338 C1346 1.378 . S
C1339 C1338 1.367 . S
C1339 C1347 1.433 . S
C1340 H1336 0.929 . S
C1340 C1342 1.378 . S
C1340 C1344 1.350 . S
C1341 C1344 1.463 . S
C1341 C1346 1.350 . S
C1341 N1349 1.427 . S
C1342 H1333 0.930 . S
C1342 C1340 1.378 . S
C1342 C1343 1.367 . S
C1343 C1342 1.367 . S
C1343 C1345 1.433 . S
C1344 C1340 1.350 . S
C1344 C1341 1.463 . S
C1344 N1348 1.427 . S
C1345 H1335 0.929 . S
C1345 C1343 1.433 . S
C1345 N1348 1.384 . S
C1346 H1337 0.929 . S
C1346 C1338 1.378 . S
C1346 C1341 1.350 . S
C1347 H1334 0.929 . S
C1347 C1339 1.433 . S
C1347 N1349 1.384 . S
N1348 C1344 1.427 . S
N1348 C1345 1.384 . S
N1349 C1341 1.427 . S
N1349 C1347 1.384 . S
H1350 C1356 0.930 . S
H1351 C1360 0.930 . S
H1352 C1365 0.929 . S
H1353 C1363 0.929 . S
H1354 C1358 0.929 . S
H1355 C1364 0.929 . S
C1356 H1350 0.930 . S
C1356 C1357 1.367 . S
C1356 C1364 1.378 . S
C1357 C1356 1.367 . S
C1357 C1365 1.433 . S
C1358 H1354 0.929 . S
C1358 C1360 1.378 . S
C1358 C1362 1.350 . S
C1359 C1362 1.463 . S
C1359 C1364 1.350 . S
C1359 N1367 1.427 . S
C1360 H1351 0.930 . S
C1360 C1358 1.378 . S
C1360 C1361 1.367 . S
C1361 C1360 1.367 . S
C1361 C1363 1.433 . S
C1362 C1358 1.350 . S
C1362 C1359 1.463 . S
C1362 N1366 1.427 . S
C1363 H1353 0.929 . S
C1363 C1361 1.433 . S
C1363 N1366 1.384 . S
C1364 H1355 0.929 . S
C1364 C1356 1.378 . S
C1364 C1359 1.350 . S
C1365 H1352 0.929 . S
C1365 C1357 1.433 . S
C1365 N1367 1.384 . S
N1366 C1362 1.427 . S
N1366 C1363 1.384 . S
N1367 C1359 1.427 . S
N1367 C1365 1.384 . S
H1368 C1374 0.930 . S
H1369 C1378 0.930 . S
H1370 C1383 0.929 . S
H1371 C1381 0.929 . S
H1372 C1376 0.929 . S
H1373 C1382 0.929 . S
C1374 H1368 0.930 . S
C1374 C1375 1.367 . S
C1374 C1382 1.378 . S
C1375 C1374 1.367 . S
C1375 C1383 1.433 . S
C1376 H1372 0.929 . S
C1376 C1378 1.378 . S
C1376 C1380 1.350 . S
C1377 C1380 1.463 . S
C1377 C1382 1.350 . S
C1377 N1385 1.427 . S
C1378 H1369 0.930 . S
C1378 C1376 1.378 . S
C1378 C1379 1.367 . S
C1379 C1378 1.367 . S
C1379 C1381 1.433 . S
C1380 C1376 1.350 . S
C1380 C1377 1.463 . S
C1380 N1384 1.427 . S
C1381 H1371 0.929 . S
C1381 C1379 1.433 . S
C1381 N1384 1.384 . S
C1382 H1373 0.929 . S
C1382 C1374 1.378 . S
C1382 C1377 1.350 . S
C1383 H1370 0.929 . S
C1383 C1375 1.433 . S
C1383 N1385 1.384 . S
N1384 C1380 1.427 . S
N1384 C1381 1.384 . S
N1385 C1377 1.427 . S
N1385 C1383 1.384 . S
H1386 C1392 0.930 . S
H1387 C1396 0.930 . S
H1388 C1401 0.929 . S
H1389 C1399 0.929 . S
H1390 C1394 0.929 . S
H1391 C1400 0.929 . S
C1392 H1386 0.930 . S
C1392 C1393 1.367 . S
C1392 C1400 1.378 . S
C1393 C1392 1.367 . S
C1393 C1401 1.433 . S
C1394 H1390 0.929 . S
C1394 C1396 1.378 . S
C1394 C1398 1.350 . S
C1395 C1398 1.463 . S
C1395 C1400 1.350 . S
C1395 N1403 1.427 . S
C1396 H1387 0.930 . S
C1396 C1394 1.378 . S
C1396 C1397 1.367 . S
C1397 C1396 1.367 . S
C1397 C1399 1.433 . S
C1398 C1394 1.350 . S
C1398 C1395 1.463 . S
C1398 N1402 1.427 . S
C1399 H1389 0.929 . S
C1399 C1397 1.433 . S
C1399 N1402 1.384 . S
C1400 H1391 0.929 . S
C1400 C1392 1.378 . S
C1400 C1395 1.350 . S
C1401 H1388 0.929 . S
C1401 C1393 1.433 . S
C1401 N1403 1.384 . S
N1402 C1398 1.427 . S
N1402 C1399 1.384 . S
N1403 C1395 1.427 . S
N1403 C1401 1.384 . S
H1404 C1410 0.930 . S
H1405 C1414 0.930 . S
H1406 C1419 0.929 . S
H1407 C1417 0.929 . S
H1408 C1412 0.929 . S
H1409 C1418 0.929 . S
C1410 H1404 0.930 . S
C1410 C1411 1.367 . S
C1410 C1418 1.378 . S
C1411 C1410 1.367 . S
C1411 C1419 1.433 . S
C1412 H1408 0.929 . S
C1412 C1414 1.378 . S
C1412 C1416 1.350 . S
C1413 C1416 1.463 . S
C1413 C1418 1.350 . S
C1413 N1421 1.427 . S
C1414 H1405 0.930 . S
C1414 C1412 1.378 . S
C1414 C1415 1.367 . S
C1415 C1414 1.367 . S
C1415 C1417 1.433 . S
C1416 C1412 1.350 . S
C1416 C1413 1.463 . S
C1416 N1420 1.427 . S
C1417 H1407 0.929 . S
C1417 C1415 1.433 . S
C1417 N1420 1.384 . S
C1418 H1409 0.929 . S
C1418 C1410 1.378 . S
C1418 C1413 1.350 . S
C1419 H1406 0.929 . S
C1419 C1411 1.433 . S
C1419 N1421 1.384 . S
N1420 C1416 1.427 . S
N1420 C1417 1.384 . S
N1421 C1413 1.427 . S
N1421 C1419 1.384 . S
H1422 C1428 0.930 . S
H1423 C1432 0.930 . S
H1424 C1437 0.929 . S
H1425 C1435 0.929 . S
H1426 C1430 0.929 . S
H1427 C1436 0.929 . S
C1428 H1422 0.930 . S
C1428 C1429 1.367 . S
C1428 C1436 1.378 1_556 S
C1429 C1428 1.367 . S
C1429 C1437 1.433 1_556 S
C1430 H1426 0.929 . S
C1430 C1432 1.378 . S
C1430 C1434 1.350 . S
C1431 C1434 1.463 . S
C1431 C1436 1.350 . S
C1431 N1439 1.427 . S
C1432 H1423 0.930 . S
C1432 C1430 1.378 . S
C1432 C1433 1.367 . S
C1433 C1432 1.367 . S
C1433 C1435 1.433 . S
C1434 C1430 1.350 . S
C1434 C1431 1.463 . S
C1434 N1438 1.427 . S
C1435 H1425 0.929 . S
C1435 C1433 1.433 . S
C1435 N1438 1.384 . S
C1436 H1427 0.929 . S
C1436 C1428 1.378 1_554 S
C1436 C1431 1.350 . S
C1437 H1424 0.929 . S
C1437 C1429 1.433 1_554 S
C1437 N1439 1.384 . S
N1438 C1434 1.427 . S
N1438 C1435 1.384 . S
N1439 C1431 1.427 . S
N1439 C1437 1.384 . S
H1440 C1446 0.930 . S
H1441 C1450 0.930 . S
H1442 C1455 0.929 1_556 S
H1443 C1453 0.929 . S
H1444 C1448 0.929 . S
H1445 C1454 0.929 . S
C1446 H1440 0.930 . S
C1446 C1447 1.361 1_554 S
C1446 C1454 1.378 . S
C1447 C1446 1.361 1_556 S
C1447 C1455 1.432 1_556 S
C1448 H1444 0.929 . S
C1448 C1450 1.378 . S
C1448 C1452 1.350 . S
C1449 C1452 1.463 . S
C1449 C1454 1.350 . S
C1449 N1457 1.427 . S
C1450 H1441 0.930 . S
C1450 C1448 1.378 . S
C1450 C1451 1.367 . S
C1451 C1450 1.367 . S
C1451 C1453 1.433 . S
C1452 C1448 1.350 . S
C1452 C1449 1.463 . S
C1452 N1456 1.427 . S
C1453 H1443 0.929 . S
C1453 C1451 1.433 . S
C1453 N1456 1.384 . S
C1454 H1445 0.929 . S
C1454 C1446 1.378 . S
C1454 C1449 1.350 . S
C1455 H1442 0.929 1_554 S
C1455 C1447 1.432 1_554 S
C1455 N1457 1.384 . S
N1456 C1452 1.427 . S
N1456 C1453 1.384 . S
N1457 C1449 1.427 . S
N1457 C1455 1.384 . S
H1458 C1464 0.930 . S
H1459 C1468 0.930 . S
H1460 C1473 0.929 1_556 S
H1461 C1471 0.929 . S
H1462 C1466 0.929 . S
H1463 C1472 0.929 . S
C1464 H1458 0.930 . S
C1464 C1465 1.374 . S
C1464 C1472 1.378 . S
C1465 C1464 1.374 . S
C1465 C1473 1.436 . S
C1466 H1462 0.929 . S
C1466 C1468 1.378 . S
C1466 C1470 1.350 . S
C1467 C1470 1.463 . S
C1467 C1472 1.350 . S
C1467 N1475 1.427 . S
C1468 H1459 0.930 . S
C1468 C1466 1.378 . S
C1468 C1469 1.367 . S
C1469 C1468 1.367 . S
C1469 C1471 1.433 . S
C1470 C1466 1.350 . S
C1470 C1467 1.463 . S
C1470 N1474 1.427 . S
C1471 H1461 0.929 . S
C1471 C1469 1.433 . S
C1471 N1474 1.384 . S
C1472 H1463 0.929 . S
C1472 C1464 1.378 . S
C1472 C1467 1.350 . S
C1473 H1460 0.929 1_554 S
C1473 C1465 1.436 . S
C1473 N1475 1.384 . S
N1474 C1470 1.427 . S
N1474 C1471 1.384 . S
N1475 C1467 1.427 . S
N1475 C1473 1.384 . S
H1476 C1482 0.930 . S
H1477 C1486 0.930 . S
H1478 C1491 0.929 1_556 S
H1479 C1489 0.929 . S
H1480 C1484 0.929 . S
H1481 C1490 0.929 . S
C1482 H1476 0.930 . S
C1482 C1483 1.367 . S
C1482 C1490 1.378 . S
C1483 C1482 1.367 . S
C1483 C1491 1.433 . S
C1484 H1480 0.929 . S
C1484 C1486 1.378 . S
C1484 C1488 1.350 . S
C1485 C1488 1.463 . S
C1485 C1490 1.350 . S
C1485 N1493 1.427 . S
C1486 H1477 0.930 . S
C1486 C1484 1.378 . S
C1486 C1487 1.367 . S
C1487 C1486 1.367 . S
C1487 C1489 1.433 . S
C1488 C1484 1.350 . S
C1488 C1485 1.463 . S
C1488 N1492 1.427 . S
C1489 H1479 0.929 . S
C1489 C1487 1.433 . S
C1489 N1492 1.384 . S
C1490 H1481 0.929 . S
C1490 C1482 1.378 . S
C1490 C1485 1.350 . S
C1491 H1478 0.929 1_554 S
C1491 C1483 1.433 . S
C1491 N1493 1.384 . S
N1492 C1488 1.427 . S
N1492 C1489 1.384 . S
N1493 C1485 1.427 . S
N1493 C1491 1.384 . S
H1494 C1500 0.930 . S
H1495 C1504 0.930 . S
H1496 C1509 0.929 . S
H1497 C1507 0.929 1_556 S
H1498 C1502 0.929 . S
H1499 C1508 0.929 . S
C1500 H1494 0.930 . S
C1500 C1501 1.367 . S
C1500 C1508 1.378 . S
C1501 C1500 1.367 . S
C1501 C1509 1.433 . S
C1502 H1498 0.929 . S
C1502 C1504 1.378 . S
C1502 C1506 1.350 . S
C1503 C1506 1.463 . S
C1503 C1508 1.350 . S
C1503 N1511 1.427 . S
C1504 H1495 0.930 . S
C1504 C1502 1.378 . S
C1504 C1505 1.367 . S
C1505 C1504 1.367 . S
C1505 C1507 1.433 . S
C1506 C1502 1.350 . S
C1506 C1503 1.463 . S
C1506 N1510 1.427 . S
C1507 H1497 0.929 1_554 S
C1507 C1505 1.433 . S
C1507 N1510 1.384 . S
C1508 H1499 0.929 . S
C1508 C1500 1.378 . S
C1508 C1503 1.350 . S
C1509 H1496 0.929 . S
C1509 C1501 1.433 . S
C1509 N1511 1.384 . S
N1510 C1506 1.427 . S
N1510 C1507 1.384 . S
N1511 C1503 1.427 . S
N1511 C1509 1.384 . S
H1512 C1518 0.943 . S
H1513 C1522 0.930 . S
H1514 C1527 0.929 . S
H1515 C1525 0.929 . S
H1516 C1520 0.929 . S
H1517 C1526 0.931 . S
C1518 H1512 0.943 . S
C1518 C1519 1.359 1_556 S
C1518 C1526 1.373 1_556 S
C1519 C1518 1.359 1_554 S
C1519 C1527 1.433 . S
C1520 H1516 0.929 . S
C1520 C1522 1.378 . S
C1520 C1524 1.350 . S
C1521 C1524 1.463 . S
C1521 C1526 1.350 . S
C1521 N1529 1.427 . S
C1522 H1513 0.930 . S
C1522 C1520 1.378 . S
C1522 C1523 1.367 . S
C1523 C1522 1.367 . S
C1523 C1525 1.433 . S
C1524 C1520 1.350 . S
C1524 C1521 1.463 . S
C1524 N1528 1.427 . S
C1525 H1515 0.929 . S
C1525 C1523 1.433 . S
C1525 N1528 1.384 . S
C1526 H1517 0.931 . S
C1526 C1518 1.373 1_554 S
C1526 C1521 1.350 . S
C1527 H1514 0.929 . S
C1527 C1519 1.433 . S
C1527 N1529 1.384 . S
N1528 C1524 1.427 . S
N1528 C1525 1.384 . S
N1529 C1521 1.427 . S
N1529 C1527 1.384 . S
H1530 C1536 0.930 . S
H1531 C1540 0.930 . S
H1532 C1545 0.929 . S
H1533 C1543 0.929 . S
H1534 C1538 0.929 . S
H1535 C1544 0.929 . S
C1536 H1530 0.930 . S
C1536 C1537 1.367 . S
C1536 C1544 1.378 . S
C1537 C1536 1.367 . S
C1537 C1545 1.433 . S
C1538 H1534 0.929 . S
C1538 C1540 1.378 . S
C1538 C1542 1.350 . S
C1539 C1542 1.463 . S
C1539 C1544 1.350 . S
C1539 N1547 1.427 . S
C1540 H1531 0.930 . S
C1540 C1538 1.378 . S
C1540 C1541 1.367 . S
C1541 C1540 1.367 . S
C1541 C1543 1.433 . S
C1542 C1538 1.350 . S
C1542 C1539 1.463 . S
C1542 N1546 1.427 . S
C1543 H1533 0.929 . S
C1543 C1541 1.433 . S
C1543 N1546 1.384 . S
C1544 H1535 0.929 . S
C1544 C1536 1.378 . S
C1544 C1539 1.350 . S
C1545 H1532 0.929 . S
C1545 C1537 1.433 . S
C1545 N1547 1.384 . S
N1546 C1542 1.427 . S
N1546 C1543 1.384 . S
N1547 C1539 1.427 . S
N1547 C1545 1.384 . S
H1548 C1554 0.930 . S
H1549 C1558 0.930 . S
H1550 C1563 0.929 . S
H1551 C1561 0.929 . S
H1552 C1556 0.929 . S
H1553 C1562 0.929 . S
C1554 H1548 0.930 . S
C1554 C1555 1.367 . S
C1554 C1562 1.378 . S
C1555 C1554 1.367 . S
C1555 C1563 1.433 . S
C1556 H1552 0.929 . S
C1556 C1558 1.378 . S
C1556 C1560 1.350 . S
C1557 C1560 1.463 . S
C1557 C1562 1.350 . S
C1557 N1565 1.427 . S
C1558 H1549 0.930 . S
C1558 C1556 1.378 . S
C1558 C1559 1.367 . S
C1559 C1558 1.367 . S
C1559 C1561 1.433 . S
C1560 C1556 1.350 . S
C1560 C1557 1.463 . S
C1560 N1564 1.427 . S
C1561 H1551 0.929 . S
C1561 C1559 1.433 . S
C1561 N1564 1.384 . S
C1562 H1553 0.929 . S
C1562 C1554 1.378 . S
C1562 C1557 1.350 . S
C1563 H1550 0.929 . S
C1563 C1555 1.433 . S
C1563 N1565 1.384 . S
N1564 C1560 1.427 . S
N1564 C1561 1.384 . S
N1565 C1557 1.427 . S
N1565 C1563 1.384 . S
H1566 C1572 0.930 . S
H1567 C1576 0.930 . S
H1568 C1581 0.929 . S
H1569 C1579 0.929 . S
H1570 C1574 0.929 . S
H1571 C1580 0.929 . S
C1572 H1566 0.930 . S
C1572 C1573 1.367 . S
C1572 C1580 1.378 . S
C1573 C1572 1.367 . S
C1573 C1581 1.433 . S
C1574 H1570 0.929 . S
C1574 C1576 1.378 . S
C1574 C1578 1.350 . S
C1575 C1578 1.463 . S
C1575 C1580 1.350 . S
C1575 N1583 1.427 . S
C1576 H1567 0.930 . S
C1576 C1574 1.378 . S
C1576 C1577 1.367 . S
C1577 C1576 1.367 . S
C1577 C1579 1.433 . S
C1578 C1574 1.350 . S
C1578 C1575 1.463 . S
C1578 N1582 1.427 . S
C1579 H1569 0.929 . S
C1579 C1577 1.433 . S
C1579 N1582 1.384 . S
C1580 H1571 0.929 . S
C1580 C1572 1.378 . S
C1580 C1575 1.350 . S
C1581 H1568 0.929 . S
C1581 C1573 1.433 . S
C1581 N1583 1.384 . S
N1582 C1578 1.427 . S
N1582 C1579 1.384 . S
N1583 C1575 1.427 . S
N1583 C1581 1.384 . S
H1584 C1590 0.930 . S
H1585 C1594 0.930 . S
H1586 C1599 0.929 . S
H1587 C1597 0.929 . S
H1588 C1592 0.929 1_554 S
H1589 C1598 0.929 . S
C1590 H1584 0.930 . S
C1590 C1591 1.367 . S
C1590 C1598 1.378 . S
C1591 C1590 1.367 . S
C1591 C1599 1.433 . S
C1592 H1588 0.929 1_556 S
C1592 C1594 1.378 1_556 S
C1592 C1596 1.350 . S
C1593 C1596 1.463 . S
C1593 C1598 1.350 . S
C1593 N1601 1.427 . S
C1594 H1585 0.930 . S
C1594 C1592 1.378 1_554 S
C1594 C1595 1.367 1_554 S
C1595 C1594 1.367 1_556 S
C1595 C1597 1.433 . S
C1596 C1592 1.350 . S
C1596 C1593 1.463 . S
C1596 N1600 1.427 . S
C1597 H1587 0.929 . S
C1597 C1595 1.433 . S
C1597 N1600 1.384 . S
C1598 H1589 0.929 . S
C1598 C1590 1.378 . S
C1598 C1593 1.350 . S
C1599 H1586 0.929 . S
C1599 C1591 1.433 . S
C1599 N1601 1.384 . S
N1600 C1596 1.427 . S
N1600 C1597 1.384 . S
N1601 C1593 1.427 . S
N1601 C1599 1.384 . S
H1602 C1608 0.930 . S
H1603 C1612 0.930 . S
H1604 C1617 0.929 1_554 S
H1605 C1615 0.929 . S
H1606 C1610 0.929 . S
H1607 C1616 0.929 . S
C1608 H1602 0.930 . S
C1608 C1609 1.367 . S
C1608 C1616 1.378 . S
C1609 C1608 1.367 . S
C1609 C1617 1.433 . S
C1610 H1606 0.929 . S
C1610 C1612 1.378 . S
C1610 C1614 1.350 . S
C1611 C1614 1.463 . S
C1611 C1616 1.350 . S
C1611 N1619 1.427 . S
C1612 H1603 0.930 . S
C1612 C1610 1.378 . S
C1612 C1613 1.367 . S
C1613 C1612 1.367 . S
C1613 C1615 1.433 . S
C1614 C1610 1.350 . S
C1614 C1611 1.463 . S
C1614 N1618 1.427 . S
C1615 H1605 0.929 . S
C1615 C1613 1.433 . S
C1615 N1618 1.384 . S
C1616 H1607 0.929 . S
C1616 C1608 1.378 . S
C1616 C1611 1.350 . S
C1617 H1604 0.929 1_556 S
C1617 C1609 1.433 . S
C1617 N1619 1.384 . S
N1618 C1614 1.427 . S
N1618 C1615 1.384 . S
N1619 C1611 1.427 . S
N1619 C1617 1.384 . S
H1620 C1626 0.930 . S
H1621 C1630 0.930 . S
H1622 C1635 0.929 . S
H1623 C1633 0.929 . S
H1624 C1628 0.929 1_554 S
H1625 C1634 0.929 . S
C1626 H1620 0.930 . S
C1626 C1627 1.367 . S
C1626 C1634 1.378 . S
C1627 C1626 1.367 . S
C1627 C1635 1.433 . S
C1628 H1624 0.929 1_556 S
C1628 C1630 1.378 1_556 S
C1628 C1632 1.350 . S
C1629 C1632 1.463 . S
C1629 C1634 1.350 . S
C1629 N1637 1.427 . S
C1630 H1621 0.930 . S
C1630 C1628 1.378 1_554 S
C1630 C1631 1.367 1_554 S
C1631 C1630 1.367 1_556 S
C1631 C1633 1.433 . S
C1632 C1628 1.350 . S
C1632 C1629 1.463 . S
C1632 N1636 1.427 . S
C1633 H1623 0.929 . S
C1633 C1631 1.433 . S
C1633 N1636 1.384 . S
C1634 H1625 0.929 . S
C1634 C1626 1.378 . S
C1634 C1629 1.350 . S
C1635 H1622 0.929 . S
C1635 C1627 1.433 . S
C1635 N1637 1.384 . S
N1636 C1632 1.427 . S
N1636 C1633 1.384 . S
N1637 C1629 1.427 . S
N1637 C1635 1.384 . S
H1638 C1644 0.930 . S
H1639 C1648 0.930 . S
H1640 C1653 0.929 . S
H1641 C1651 0.929 . S
H1642 C1646 0.929 . S
H1643 C1652 0.929 . S
C1644 H1638 0.930 . S
C1644 C1645 1.367 . S
C1644 C1652 1.378 . S
C1645 C1644 1.367 . S
C1645 C1653 1.433 . S
C1646 H1642 0.929 . S
C1646 C1648 1.378 . S
C1646 C1650 1.350 . S
C1647 C1650 1.463 . S
C1647 C1652 1.350 . S
C1647 N1655 1.427 . S
C1648 H1639 0.930 . S
C1648 C1646 1.378 . S
C1648 C1649 1.367 . S
C1649 C1648 1.367 . S
C1649 C1651 1.433 . S
C1650 C1646 1.350 . S
C1650 C1647 1.463 . S
C1650 N1654 1.427 . S
C1651 H1641 0.929 . S
C1651 C1649 1.433 . S
C1651 N1654 1.384 . S
C1652 H1643 0.929 . S
C1652 C1644 1.378 . S
C1652 C1647 1.350 . S
C1653 H1640 0.929 . S
C1653 C1645 1.433 . S
C1653 N1655 1.384 . S
N1654 C1650 1.427 . S
N1654 C1651 1.384 . S
N1655 C1647 1.427 . S
N1655 C1653 1.384 . S
H1656 C1662 0.930 . S
H1657 C1666 0.930 . S
H1658 C1671 0.929 . S
H1659 C1669 0.929 . S
H1660 C1664 0.929 . S
H1661 C1670 0.929 . S
C1662 H1656 0.930 . S
C1662 C1663 1.367 . S
C1662 C1670 1.378 . S
C1663 C1662 1.367 . S
C1663 C1671 1.433 . S
C1664 H1660 0.929 . S
C1664 C1666 1.378 . S
C1664 C1668 1.350 . S
C1665 C1668 1.463 . S
C1665 C1670 1.350 . S
C1665 N1673 1.427 . S
C1666 H1657 0.930 . S
C1666 C1664 1.378 . S
C1666 C1667 1.367 . S
C1667 C1666 1.367 . S
C1667 C1669 1.433 . S
C1668 C1664 1.350 . S
C1668 C1665 1.463 . S
C1668 N1672 1.427 . S
C1669 H1659 0.929 . S
C1669 C1667 1.433 . S
C1669 N1672 1.384 . S
C1670 H1661 0.929 . S
C1670 C1662 1.378 . S
C1670 C1665 1.350 . S
C1671 H1658 0.929 . S
C1671 C1663 1.433 . S
C1671 N1673 1.384 . S
N1672 C1668 1.427 . S
N1672 C1669 1.384 . S
N1673 C1665 1.427 . S
N1673 C1671 1.384 . S
H1674 C1680 0.930 . S
H1675 C1684 0.930 . S
H1676 C1689 0.929 . S
H1677 C1687 0.929 . S
H1678 C1682 0.929 . S
H1679 C1688 0.929 . S
C1680 H1674 0.930 . S
C1680 C1681 1.367 . S
C1680 C1688 1.378 . S
C1681 C1680 1.367 . S
C1681 C1689 1.433 . S
C1682 H1678 0.929 . S
C1682 C1684 1.378 . S
C1682 C1686 1.350 . S
C1683 C1686 1.463 . S
C1683 C1688 1.350 . S
C1683 N1691 1.427 . S
C1684 H1675 0.930 . S
C1684 C1682 1.378 . S
C1684 C1685 1.367 . S
C1685 C1684 1.367 . S
C1685 C1687 1.433 . S
C1686 C1682 1.350 . S
C1686 C1683 1.463 . S
C1686 N1690 1.427 . S
C1687 H1677 0.929 . S
C1687 C1685 1.433 . S
C1687 N1690 1.384 . S
C1688 H1679 0.929 . S
C1688 C1680 1.378 . S
C1688 C1683 1.350 . S
C1689 H1676 0.929 . S
C1689 C1681 1.433 . S
C1689 N1691 1.384 . S
N1690 C1686 1.427 . S
N1690 C1687 1.384 . S
N1691 C1683 1.427 . S
N1691 C1689 1.384 . S
H1692 C1698 0.930 . S
H1693 C1702 0.930 . S
H1694 C1707 0.929 . S
H1695 C1705 0.929 . S
H1696 C1700 0.971 . S
H1697 C1706 0.929 . S
C1698 H1692 0.930 . S
C1698 C1699 1.367 . S
C1698 C1706 1.378 . S
C1699 C1698 1.367 . S
C1699 C1707 1.433 . S
C1700 H1696 0.971 . S
C1700 C1702 1.378 . S
C1700 C1704 1.350 . S
C1701 C1704 1.463 1_455 S
C1701 C1706 1.350 . S
C1701 N1709 1.427 . S
C1702 H1693 0.930 . S
C1702 C1700 1.378 . S
C1702 C1703 1.367 . S
C1703 C1702 1.367 . S
C1703 C1705 1.433 . S
C1704 C1700 1.350 . S
C1704 C1701 1.463 1_655 S
C1704 N1708 1.427 . S
C1705 H1695 0.929 . S
C1705 C1703 1.433 . S
C1705 N1708 1.384 . S
C1706 H1697 0.929 . S
C1706 C1698 1.378 . S
C1706 C1701 1.350 . S
C1707 H1694 0.929 . S
C1707 C1699 1.433 . S
C1707 N1709 1.384 . S
N1708 C1704 1.427 . S
N1708 C1705 1.384 . S
N1709 C1701 1.427 . S
N1709 C1707 1.384 . S
H1710 C1716 0.930 . S
H1711 C1720 0.930 . S
H1712 C1725 0.929 . S
H1713 C1723 0.929 . S
H1714 C1718 0.929 . S
H1715 C1724 0.929 . S
C1716 H1710 0.930 . S
C1716 C1717 1.367 . S
C1716 C1724 1.378 . S
C1717 C1716 1.367 . S
C1717 C1725 1.433 . S
C1718 H1714 0.929 . S
C1718 C1720 1.378 . S
C1718 C1722 1.350 . S
C1719 C1722 1.463 . S
C1719 C1724 1.350 . S
C1719 N1727 1.427 . S
C1720 H1711 0.930 . S
C1720 C1718 1.378 . S
C1720 C1721 1.367 . S
C1721 C1720 1.367 . S
C1721 C1723 1.433 . S
C1722 C1718 1.350 . S
C1722 C1719 1.463 . S
C1722 N1726 1.427 . S
C1723 H1713 0.929 . S
C1723 C1721 1.433 . S
C1723 N1726 1.384 . S
C1724 H1715 0.929 . S
C1724 C1716 1.378 . S
C1724 C1719 1.350 . S
C1725 H1712 0.929 . S
C1725 C1717 1.433 . S
C1725 N1727 1.384 . S
N1726 C1722 1.427 . S
N1726 C1723 1.384 . S
N1727 C1719 1.427 . S
N1727 C1725 1.384 . S
H1728 C1734 0.930 . S
H1729 C1738 0.930 . S
H1730 C1743 0.929 . S
H1731 C1741 0.929 . S
H1732 C1736 0.985 . S
H1733 C1742 0.929 . S
C1734 H1728 0.930 . S
C1734 C1735 1.367 . S
C1734 C1742 1.378 . S
C1735 C1734 1.367 . S
C1735 C1743 1.433 . S
C1736 H1732 0.985 . S
C1736 C1738 1.378 . S
C1736 C1740 1.350 . S
C1737 C1740 1.463 1_565 S
C1737 C1742 1.350 . S
C1737 N1745 1.427 . S
C1738 H1729 0.930 . S
C1738 C1736 1.378 . S
C1738 C1739 1.367 . S
C1739 C1738 1.367 . S
C1739 C1741 1.433 . S
C1740 C1736 1.350 . S
C1740 C1737 1.463 1_545 S
C1740 N1744 1.427 . S
C1741 H1731 0.929 . S
C1741 C1739 1.433 . S
C1741 N1744 1.384 . S
C1742 H1733 0.929 . S
C1742 C1734 1.378 . S
C1742 C1737 1.350 . S
C1743 H1730 0.929 . S
C1743 C1735 1.433 . S
C1743 N1745 1.384 . S
N1744 C1740 1.427 . S
N1744 C1741 1.384 . S
N1745 C1737 1.427 . S
N1745 C1743 1.384 . S
H1746 C1752 0.930 . S
H1747 C1756 0.930 . S
H1748 C1761 0.929 . S
H1749 C1759 0.929 . S
H1750 C1754 0.929 . S
H1751 C1760 0.929 . S
C1752 H1746 0.930 . S
C1752 C1753 1.367 . S
C1752 C1760 1.378 . S
C1753 C1752 1.367 . S
C1753 C1761 1.433 . S
C1754 H1750 0.929 . S
C1754 C1756 1.378 . S
C1754 C1758 1.350 . S
C1755 C1758 1.463 1_545 S
C1755 C1760 1.350 . S
C1755 N1763 1.427 . S
C1756 H1747 0.930 . S
C1756 C1754 1.378 . S
C1756 C1757 1.367 . S
C1757 C1756 1.367 . S
C1757 C1759 1.433 . S
C1758 C1754 1.350 . S
C1758 C1755 1.463 1_565 S
C1758 N1762 1.427 . S
C1759 H1749 0.929 . S
C1759 C1757 1.433 . S
C1759 N1762 1.384 . S
C1760 H1751 0.929 . S
C1760 C1752 1.378 . S
C1760 C1755 1.350 . S
C1761 H1748 0.929 . S
C1761 C1753 1.433 . S
C1761 N1763 1.384 . S
N1762 C1758 1.427 . S
N1762 C1759 1.384 . S
N1763 C1755 1.427 . S
N1763 C1761 1.384 . S
H1764 C1770 0.930 . S
H1765 C1774 0.930 . S
H1766 C1779 0.929 . S
H1767 C1777 0.929 . S
H1768 C1772 0.929 . S
H1769 C1778 0.929 . S
C1770 H1764 0.930 . S
C1770 C1771 1.367 . S
C1770 C1778 1.378 . S
C1771 C1770 1.367 . S
C1771 C1779 1.433 . S
C1772 H1768 0.929 . S
C1772 C1774 1.378 . S
C1772 C1776 1.350 . S
C1773 C1776 1.463 1_455 S
C1773 C1778 1.350 . S
C1773 N1781 1.427 . S
C1774 H1765 0.930 . S
C1774 C1772 1.378 . S
C1774 C1775 1.367 . S
C1775 C1774 1.367 . S
C1775 C1777 1.433 . S
C1776 C1772 1.350 . S
C1776 C1773 1.463 1_655 S
C1776 N1780 1.427 . S
C1777 H1767 0.929 . S
C1777 C1775 1.433 . S
C1777 N1780 1.384 . S
C1778 H1769 0.929 . S
C1778 C1770 1.378 . S
C1778 C1773 1.350 . S
C1779 H1766 0.929 . S
C1779 C1771 1.433 . S
C1779 N1781 1.384 . S
N1780 C1776 1.427 . S
N1780 C1777 1.384 . S
N1781 C1773 1.427 . S
N1781 C1779 1.384 . S
H1782 C1788 0.930 . S
H1783 C1792 0.930 . S
H1784 C1797 0.929 . S
H1785 C1795 0.929 . S
H1786 C1790 0.929 . S
H1787 C1796 0.929 . S
C1788 H1782 0.930 . S
C1788 C1789 1.367 . S
C1788 C1796 1.378 . S
C1789 C1788 1.367 . S
C1789 C1797 1.433 . S
C1790 H1786 0.929 . S
C1790 C1792 1.378 . S
C1790 C1794 1.350 . S
C1791 C1794 1.463 . S
C1791 C1796 1.350 . S
C1791 N1799 1.427 . S
C1792 H1783 0.930 . S
C1792 C1790 1.378 . S
C1792 C1793 1.367 . S
C1793 C1792 1.367 . S
C1793 C1795 1.433 . S
C1794 C1790 1.350 . S
C1794 C1791 1.463 . S
C1794 N1798 1.427 . S
C1795 H1785 0.929 . S
C1795 C1793 1.433 . S
C1795 N1798 1.384 . S
C1796 H1787 0.929 . S
C1796 C1788 1.378 . S
C1796 C1791 1.350 . S
C1797 H1784 0.929 . S
C1797 C1789 1.433 . S
C1797 N1799 1.384 . S
N1798 C1794 1.427 . S
N1798 C1795 1.384 . S
N1799 C1791 1.427 . S
N1799 C1797 1.384 . S
C511 C47 1.066 . S
C515 C5 1.032 . S
C529 C67 1.176 . S
C533 C25 1.172 . S
C547 C75 1.052 . S
C551 C33 1.052 . S
C565 C95 1.211 . S
C569 C137 1.224 . S
C583 C109 1.183 . S
C587 C151 1.173 . S
C601 C165 1.222 . S
C605 C123 1.229 . S
C619 C173 1.049 . S
C623 C215 1.049 . S
C637 C193 1.171 . S
C641 C235 1.169 . S
C655 C201 1.028 . S
C659 C243 1.068 . S
C673 C263 1.217 . S
C677 C305 1.217 . S
C691 C319 1.172 . S
C695 C277 1.175 . S
C709 C291 1.225 . S
C713 C333 1.229 . S
C727 C341 1.044 . S
C731 C383 1.055 . S
C745 C361 1.182 . S
C749 C403 1.176 . S
C763 C411 1.058 . S
C767 C369 1.042 . S
C781 C473 1.224 . S
C785 C431 1.217 . S
C799 C487 1.167 . S
C803 C445 1.162 . S
C817 C501 1.220 . S
C821 C459 1.216 . S
C835 C166 1.193 . S
C839 C12 1.186 . S
C853 C19 1.005 . S
C857 C138 1.103 . S
C871 C40 1.116 . S
C875 C152 1.121 . S
C889 C110 1.129 . S
C893 C54 1.116 . S
C907 C61 0.999 . S
C911 C124 1.102 . S
C925 C96 1.193 . S
C929 C82 1.190 . S
C943 C88 1.351 . S
C947 C81 1.336 . S
C961 C102 1.376 . S
C965 C53 1.365 . S
C979 C68 1.342 . S
C983 C116 1.340 . S
C997 C26 1.341 . S
C1001 C130 1.338 . S
C1015 C39 1.361 . S
C1019 C144 1.379 . S
C1033 C158 1.346 . S
C1037 C11 1.332 . S
C1051 C180 1.174 . S
C1055 C334 1.191 . S
C1069 C306 1.088 . S
C1073 C187 1.009 . S
C1087 C320 1.127 . S
C1091 C208 1.113 . S
C1105 C222 1.112 . S
C1109 C278 1.127 . S
C1123 C292 1.101 . S
C1127 C229 1.023 . S
C1141 C250 1.185 . S
C1145 C264 1.192 . S
C1159 C256 1.348 . S
C1163 C249 1.333 . S
C1177 C270 1.369 . S
C1181 C221 1.357 . S
C1195 C236 1.346 . S
C1199 C284 1.340 . S
C1213 C194 1.352 . S
C1217 C298 1.349 . S
C1231 C207 1.356 . S
C1235 C312 1.367 . S
C1249 C326 1.355 . S
C1253 C179 1.337 . S
C1267 C502 1.190 . S
C1271 C348 1.186 . S
C1285 C355 1.007 . S
C1289 C474 1.096 . S
C1303 C376 1.112 . S
C1307 C488 1.127 . S
C1321 C390 1.118 . S
C1325 C446 1.124 . S
C1339 C460 1.118 . S
C1343 C397 1.011 . S
C1357 C418 1.179 . S
C1361 C432 1.191 . S
C1375 C417 1.345 . S
C1379 C424 1.359 . S
C1393 C389 1.353 . S
C1397 C438 1.366 . S
C1411 C404 1.318 . S
C1415 C452 1.314 . S
C1429 C362 1.345 . S
C1433 C466 1.339 . S
C1447 C375 1.359 . S
C1451 C480 1.369 . S
C1465 C347 1.323 1_554 S
C1469 C494 1.346 . S
C1483 C410 1.645 . S
C1487 C4 1.655 . S
C1501 C18 1.769 . S
C1505 C382 1.657 . S
C1519 C396 1.763 1_554 S
C1523 C32 1.668 . S
C1537 C46 1.675 . S
C1541 C186 1.770 . S
C1555 C200 1.662 . S
C1559 C60 1.767 . S
C1573 C74 1.660 . S
C1577 C172 1.645 . S
C1591 C89 1.041 . S
C1595 C327 1.036 1_556 S
C1609 C299 1.035 . S
C1613 C103 1.049 . S
C1627 C117 1.011 . S
C1631 C313 1.009 1_556 S
C1645 C131 1.038 . S
C1649 C439 1.040 . S
C1663 C145 1.038 . S
C1667 C453 1.021 . S
C1681 C425 1.037 . S
C1685 C159 1.041 . S
C1699 C354 1.766 . S
C1703 C214 1.668 . S
C1717 C368 1.663 . S
C1721 C228 1.770 . S
C1735 C340 1.654 . S
C1739 C242 1.651 . S
C1753 C257 1.060 . S
C1757 C495 1.064 . S
C1771 C467 1.005 . S
C1775 C271 1.017 . S
C1789 C285 1.035 . S
C1793 C481 1.044 . S
