# Generated by pormake.
# Topology uof, (4)-cn, num edge types: 1
# Building blocks:
#     Node 0, Type 0, BuildingBlock: NAHDIM_clean_sbu_0, # of connection points: 4
#     Node 1, Type 0, BuildingBlock: NAHDIM_clean_sbu_0, # of connection points: 4
#     Node 2, Type 0, BuildingBlock: NAHDIM_clean_sbu_0, # of connection points: 4
#     Node 3, Type 0, BuildingBlock: NAHDIM_clean_sbu_0, # of connection points: 4
#     Node 4, Type 0, BuildingBlock: NAHDIM_clean_sbu_0, # of connection points: 4
#     Node 5, Type 0, BuildingBlock: NAHDIM_clean_sbu_0, # of connection points: 4
#     Node 6, Type 0, BuildingBlock: NAHDIM_clean_sbu_0, # of connection points: 4
#     Node 7, Type 0, BuildingBlock: NAHDIM_clean_sbu_0, # of connection points: 4
#     Node 8, Type 0, BuildingBlock: NAHDIM_clean_sbu_0, # of connection points: 4
#     Node 9, Type 0, BuildingBlock: NAHDIM_clean_sbu_0, # of connection points: 4
#     Node 10, Type 0, BuildingBlock: NAHDIM_clean_sbu_0, # of connection points: 4
#     Node 11, Type 0, BuildingBlock: NAHDIM_clean_sbu_0, # of connection points: 4
#     Edge 12, Type (0, 0), BuildingBlock: CIFDUS_clean_linker_0, # of connection points: 2
#     Edge 13, Type (0, 0), BuildingBlock: CIFDUS_clean_linker_0, # of connection points: 2
#     Edge 14, Type (0, 0), BuildingBlock: CIFDUS_clean_linker_0, # of connection points: 2
#     Edge 15, Type (0, 0), BuildingBlock: CIFDUS_clean_linker_0, # of connection points: 2
#     Edge 16, Type (0, 0), BuildingBlock: CIFDUS_clean_linker_0, # of connection points: 2
#     Edge 17, Type (0, 0), BuildingBlock: CIFDUS_clean_linker_0, # of connection points: 2
#     Edge 18, Type (0, 0), BuildingBlock: CIFDUS_clean_linker_0, # of connection points: 2
#     Edge 19, Type (0, 0), BuildingBlock: CIFDUS_clean_linker_0, # of connection points: 2
#     Edge 20, Type (0, 0), BuildingBlock: CIFDUS_clean_linker_0, # of connection points: 2
#     Edge 21, Type (0, 0), BuildingBlock: CIFDUS_clean_linker_0, # of connection points: 2
#     Edge 22, Type (0, 0), BuildingBlock: CIFDUS_clean_linker_0, # of connection points: 2
#     Edge 23, Type (0, 0), BuildingBlock: CIFDUS_clean_linker_0, # of connection points: 2
#     Edge 24, Type (0, 0), BuildingBlock: CIFDUS_clean_linker_0, # of connection points: 2
#     Edge 25, Type (0, 0), BuildingBlock: CIFDUS_clean_linker_0, # of connection points: 2
#     Edge 26, Type (0, 0), BuildingBlock: CIFDUS_clean_linker_0, # of connection points: 2
#     Edge 27, Type (0, 0), BuildingBlock: CIFDUS_clean_linker_0, # of connection points: 2
#     Edge 28, Type (0, 0), BuildingBlock: CIFDUS_clean_linker_0, # of connection points: 2
#     Edge 29, Type (0, 0), BuildingBlock: CIFDUS_clean_linker_0, # of connection points: 2
#     Edge 30, Type (0, 0), BuildingBlock: CIFDUS_clean_linker_0, # of connection points: 2
#     Edge 31, Type (0, 0), BuildingBlock: CIFDUS_clean_linker_0, # of connection points: 2
#     Edge 32, Type (0, 0), BuildingBlock: CIFDUS_clean_linker_0, # of connection points: 2
#     Edge 33, Type (0, 0), BuildingBlock: CIFDUS_clean_linker_0, # of connection points: 2
#     Edge 34, Type (0, 0), BuildingBlock: CIFDUS_clean_linker_0, # of connection points: 2
#     Edge 35, Type (0, 0), BuildingBlock: CIFDUS_clean_linker_0, # of connection points: 2
# Relax obj value: 0.215
# Max RMSD: 0.169
# Mean RMSD: 0.169
data_MOF--net-uof--node1-NAHDIM_clean_sbu_0--edge1-CIFDUS_clean_linker_0
_symmetry_space_group_name_H-M    P1
_symmetry_Int_Tables_number       1
_symmetry_cell_setting            triclinic
loop_
_symmetry_equiv_pos_as_xyz
'x, y, z'
_cell_length_a     28.633325
_cell_length_b     28.761257
_cell_length_c     53.228468
_cell_angle_alpha  89.962416
_cell_angle_beta   90.002142
_cell_angle_gamma 120.21269
loop_
_atom_site_label
_atom_site_type_symbol
_atom_site_fract_x
_atom_site_fract_y
_atom_site_fract_z
_atom_type_partial_charge
C0 C 0.15839 0.30913 0.18595 0.0
O1 O 0.19279 0.30742 0.17018 0.0
O2 O 0.23964 0.32195 0.26019 0.0
Zn3 Zn 0.23666 0.31592 0.22243 0.0
O4 O 0.22914 0.24497 0.21196 0.0
C5 C 0.34862 0.37241 0.2188 0.0
O6 O 0.33791 0.33649 0.23642 0.0
O7 O 0.17036 0.31631 0.20919 0.0
C8 C 0.24279 0.21593 0.22446 0.0
O9 O 0.2636 0.23102 0.247 0.0
C10 C 0.21103 0.28325 0.27503 0.0
O11 O 0.17416 0.23666 0.26586 0.0
O12 O 0.30932 0.37452 0.20875 0.0
C13 C 0.81818 0.1565 0.5118 0.0
O14 O 0.82215 0.14776 0.53573 0.0
O15 O 0.91488 0.25241 0.55862 0.0
Zn16 Zn 0.90696 0.26633 0.522 0.0
O17 O 0.97688 0.28002 0.50716 0.0
C18 C 0.87956 0.34528 0.53679 0.0
O19 O 0.84895 0.30742 0.55289 0.0
O20 O 0.84754 0.20362 0.50298 0.0
C21 C 0.01595 0.32569 0.50075 0.0
O22 O 0.01018 0.36817 0.50155 0.0
C23 C 0.95342 0.29378 0.5691 0.0
O24 O 0.97963 0.33841 0.55602 0.0
O25 O 0.90393 0.33462 0.51982 0.0
C26 C 0.69777 0.81317 0.88529 0.0
O27 O 0.72541 0.83124 0.90623 0.0
O28 O 0.68388 0.90747 0.93044 0.0
Zn29 Zn 0.6738 0.8997 0.89281 0.0
O30 O 0.73937 0.96433 0.87914 0.0
C31 C 0.60858 0.94022 0.8699 0.0
O32 O 0.65316 0.97209 0.85754 0.0
O33 O 0.67043 0.83391 0.87737 0.0
C34 C 0.75895 0.96583 0.85758 0.0
O35 O 0.73513 0.92338 0.84294 0.0
C36 C 0.68374 0.94953 0.9378 0.0
O37 O 0.67581 0.97856 0.92112 0.0
O38 O 0.60744 0.90455 0.88447 0.0
C39 C 0.86581 0.67166 0.19173 0.0
O40 O 0.86786 0.67842 0.21619 0.0
O41 O 0.76775 0.66619 0.23558 0.0
Zn42 Zn 0.75794 0.65633 0.1979 0.0
O43 O 0.75408 0.7188 0.18411 0.0
C44 C 0.66907 0.54952 0.20557 0.0
O45 O 0.70332 0.54838 0.22164 0.0
O46 O 0.82162 0.65773 0.18031 0.0
C47 C 0.72149 0.73273 0.19261 0.0
O48 O 0.6881 0.70465 0.21082 0.0
C49 C 0.78752 0.71208 0.24601 0.0
O50 O 0.80704 0.75547 0.23197 0.0
O51 O 0.68494 0.59057 0.1916 0.0
C52 C 0.16986 0.88014 0.54891 0.0
O53 O 0.16299 0.89122 0.57209 0.0
O54 O 0.08416 0.77919 0.59741 0.0
Zn55 Zn 0.07601 0.77432 0.55956 0.0
O56 O 0.01138 0.77957 0.54898 0.0
C57 C 0.03042 0.66063 0.56267 0.0
O58 O 0.01771 0.66981 0.58509 0.0
O59 O 0.1398 0.83272 0.54055 0.0
C60 C 0.96404 0.75062 0.55784 0.0
O61 O 0.95588 0.71676 0.57616 0.0
C62 C 0.05999 0.79638 0.61134 0.0
O63 O 0.03432 0.81858 0.60098 0.0
O64 O 0.05926 0.7003 0.5483 0.0
C65 C 0.32459 0.18787 0.85313 0.0
O66 O 0.32466 0.19351 0.87762 0.0
O67 O 0.33381 0.10581 0.90257 0.0
Zn68 Zn 0.33756 0.09558 0.86516 0.0
O69 O 0.27345 0.02454 0.85498 0.0
C70 C 0.41133 0.06013 0.87294 0.0
O71 O 0.38034 0.04156 0.89288 0.0
O72 O 0.33281 0.15166 0.84413 0.0
C73 C 0.25157 0.98174 0.8681 0.0
O74 O 0.27043 0.98176 0.89058 0.0
C75 C 0.28894 0.08687 0.91405 0.0
O76 O 0.2439 0.06596 0.90101 0.0
O77 O 0.40358 0.08946 0.85756 0.0
C78 C 0.69652 0.8805 0.43839 0.0
O79 O 0.72525 0.89091 0.41774 0.0
O80 O 0.70882 0.78915 0.39502 0.0
Zn81 Zn 0.68663 0.77689 0.43154 0.0
O82 O 0.75027 0.78468 0.45041 0.0
C83 C 0.5963 0.67313 0.41798 0.0
O84 O 0.60034 0.69806 0.3967 0.0
O85 O 0.67168 0.83252 0.44669 0.0
C86 C 0.74478 0.76828 0.47294 0.0
O87 O 0.6968 0.74592 0.48349 0.0
C88 C 0.72518 0.75827 0.38677 0.0
O89 O 0.72603 0.72295 0.40216 0.0
O90 O 0.6264 0.69982 0.43628 0.0
C91 C 0.82005 0.66318 0.8084 0.0
O92 O 0.82677 0.68091 0.78518 0.0
O93 O 0.9134 0.67136 0.76049 0.0
Zn94 Zn 0.90859 0.64484 0.79613 0.0
O95 O 0.97541 0.70206 0.81276 0.0
C96 C 0.95203 0.57352 0.79969 0.0
O97 O 0.99558 0.61834 0.8063 0.0
O98 O 0.84724 0.64213 0.81616 0.0
C99 C 0.98438 0.70534 0.83623 0.0
O100 O 0.94889 0.66802 0.85126 0.0
C101 C 0.95817 0.68515 0.74965 0.0
O102 O 0.99472 0.67914 0.7618 0.0
O103 O 0.90863 0.5742 0.79534 0.0
C104 C 0.11704 0.82709 0.10049 0.0
O105 O 0.11491 0.84922 0.07924 0.0
O106 O 0.22121 0.92834 0.06229 0.0
Zn107 Zn 0.22657 0.91593 0.0993 0.0
O108 O 0.22248 0.97476 0.11715 0.0
C109 C 0.33971 0.96599 0.1138 0.0
O110 O 0.33354 0.00767 0.11764 0.0
O111 O 0.16212 0.84652 0.11188 0.0
C112 C 0.22166 0.97656 0.14096 0.0
O113 O 0.2243 0.93933 0.15416 0.0
C114 C 0.25356 0.97519 0.05384 0.0
O115 O 0.28921 0.0115 0.06915 0.0
O116 O 0.29929 0.92176 0.1065 0.0
C117 C 0.32191 0.15241 0.47183 0.0
O118 O 0.29856 0.14281 0.44969 0.0
O119 O 0.31874 0.24165 0.42492 0.0
Zn120 Zn 0.34292 0.25966 0.46125 0.0
O121 O 0.28184 0.26317 0.47764 0.0
C122 C 0.43802 0.35679 0.4443 0.0
O123 O 0.42866 0.32905 0.42346 0.0
O124 O 0.34765 0.20066 0.47977 0.0
C125 C 0.28142 0.30633 0.48211 0.0
O126 O 0.32478 0.35301 0.4775 0.0
C127 C 0.3084 0.27507 0.41423 0.0
O128 O 0.3168 0.31799 0.42668 0.0
O129 O 0.40982 0.33377 0.4637 0.0
C130 C 0.16433 0.26301 0.75522 0.0
O131 O 0.13859 0.23392 0.7355 0.0
O132 O 0.06995 0.28803 0.71583 0.0
Zn133 Zn 0.07979 0.28984 0.75344 0.0
O134 O 0.0186 0.22178 0.76714 0.0
C135 C 0.02832 0.34938 0.76612 0.0
O136 O 0.98728 0.30671 0.756 0.0
O137 O 0.14846 0.29294 0.76504 0.0
C138 C 0.00675 0.21585 0.79031 0.0
O139 O 0.03529 0.25568 0.80588 0.0
C140 C 0.04031 0.24378 0.70444 0.0
O141 O 0.02101 0.19838 0.71693 0.0
O142 O 0.07393 0.35191 0.76731 0.0
C143 C 0.87174 0.17825 0.11851 0.0
O144 O 0.8623 0.16376 0.09482 0.0
O145 O 0.7609 0.07141 0.0871 0.0
Zn146 Zn 0.76145 0.09027 0.1237 0.0
O147 O 0.75375 0.02707 0.14287 0.0
C148 C 0.65111 0.04984 0.12295 0.0
O149 O 0.65727 0.01034 0.11449 0.0
O150 O 0.83317 0.15534 0.13425 0.0
C151 C 0.72701 0.00689 0.1629 0.0
O152 O 0.70249 0.02966 0.17388 0.0
C153 C 0.77441 0.03763 0.07987 0.0
O154 O 0.79414 0.01794 0.09629 0.0
O155 O 0.69312 0.09374 0.12927 0.0
H156 H 0.90848 0.20941 0.16662 0.0
H157 H 0.96283 0.22633 0.08973 0.0
H158 H 0.05649 0.27248 0.10371 0.0
H159 H 0.1228 0.30006 0.13782 0.0
H160 H 0.06938 0.28364 0.21479 0.0
H161 H 0.97603 0.24607 0.2007 0.0
C162 C 0.9408 0.22391 0.15289 0.0
C163 C 0.92832 0.21366 0.12715 0.0
C164 C 0.99496 0.25026 0.16108 0.0
C165 C 0.97094 0.23315 0.10966 0.0
C166 C 0.02471 0.2595 0.11764 0.0
C167 C 0.09087 0.28892 0.15153 0.0
C168 C 0.10318 0.29415 0.17734 0.0
C169 C 0.03716 0.26699 0.14332 0.0
C170 C 0.06121 0.27998 0.1948 0.0
C171 C 0.00767 0.25822 0.18676 0.0
H172 H 0.74999 0.05097 0.52372 0.0
H173 H 0.81786 0.15888 0.46051 0.0
H174 H 0.78053 0.0826 0.43181 0.0
H175 H 0.73825 0.98527 0.42505 0.0
H176 H 0.67015 0.87698 0.48805 0.0
H177 H 0.69709 0.95324 0.51625 0.0
C178 C 0.75592 0.05786 0.50364 0.0
C179 C 0.78752 0.11065 0.49439 0.0
C180 C 0.73456 0.01366 0.48714 0.0
C181 C 0.79415 0.11877 0.46826 0.0
C182 C 0.77293 0.07509 0.45177 0.0
C183 C 0.72846 0.97827 0.44488 0.0
C184 C 0.70292 0.9255 0.45443 0.0
C185 C 0.74455 0.02235 0.46106 0.0
C186 C 0.68995 0.91715 0.48015 0.0
C187 C 0.70566 0.96082 0.49636 0.0
H188 H 0.74458 0.75374 0.89736 0.0
H189 H 0.67046 0.79074 0.83582 0.0
H190 H 0.69714 0.74264 0.80686 0.0
H191 H 0.7502 0.69882 0.79817 0.0
H192 H 0.82359 0.6609 0.85969 0.0
H193 H 0.78786 0.69978 0.8894 0.0
C194 C 0.73357 0.7506 0.87768 0.0
C195 C 0.7062 0.77649 0.86878 0.0
C196 C 0.7492 0.72293 0.86102 0.0
C197 C 0.69169 0.77144 0.84324 0.0
C198 C 0.70715 0.7441 0.82659 0.0
C199 C 0.75766 0.69828 0.81811 0.0
C200 C 0.79014 0.67759 0.82659 0.0
C201 C 0.73724 0.72101 0.83514 0.0
C202 C 0.79887 0.67667 0.85256 0.0
C203 C 0.77869 0.69921 0.8696 0.0
H204 H 0.87988 0.6829 0.14091 0.0
H205 H 0.96648 0.70314 0.21019 0.0
H206 H 0.05218 0.74785 0.1875 0.0
H207 H 0.10299 0.79045 0.14885 0.0
H208 H 0.01617 0.7731 0.07995 0.0
H209 H 0.93047 0.7177 0.10157 0.0
C210 C 0.91739 0.69619 0.15102 0.0
C211 C 0.91659 0.6901 0.1773 0.0
C212 C 0.96674 0.72296 0.13793 0.0
C213 C 0.96576 0.70759 0.19001 0.0
C214 C 0.01492 0.73336 0.17705 0.0
C215 C 0.0654 0.77376 0.13845 0.0
C216 C 0.06615 0.78648 0.11284 0.0
C217 C 0.016 0.74271 0.15113 0.0
C218 C 0.01691 0.76443 0.0997 0.0
C219 C 0.96776 0.73277 0.11207 0.0
H220 H 0.27396 0.04602 0.46031 0.0
H221 H 0.33937 0.15669 0.52256 0.0
H222 H 0.30236 0.08142 0.55203 0.0
H223 H 0.24219 0.98481 0.56032 0.0
H224 H 0.17695 0.87443 0.49793 0.0
H225 H 0.22354 0.94881 0.46846 0.0
C226 C 0.28091 0.0537 0.4803 0.0
C227 C 0.30874 0.10702 0.48917 0.0
C228 C 0.25904 0.01022 0.4972 0.0
C229 C 0.3179 0.11613 0.51515 0.0
C230 C 0.29646 0.07305 0.53207 0.0
C231 C 0.23878 0.9769 0.54029 0.0
C232 C 0.20535 0.92411 0.53141 0.0
C233 C 0.26549 0.02001 0.52335 0.0
C234 C 0.20202 0.91461 0.50536 0.0
C235 C 0.22854 0.95721 0.48844 0.0
H236 H 0.30436 0.17344 0.80287 0.0
H237 H 0.30137 0.2661 0.866 0.0
H238 H 0.25681 0.30259 0.8402 0.0
H239 H 0.2097 0.30027 0.80124 0.0
H240 H 0.20935 0.20443 0.73876 0.0
H241 H 0.26467 0.17768 0.76273 0.0
C242 C 0.29478 0.20227 0.81093 0.0
C243 C 0.30571 0.21647 0.83646 0.0
C244 C 0.26809 0.22224 0.79614 0.0
C245 C 0.29312 0.25408 0.84648 0.0
C246 C 0.26746 0.2749 0.83175 0.0
C247 C 0.22244 0.27424 0.79268 0.0
C248 C 0.20483 0.25395 0.7683 0.0
C249 C 0.25335 0.25805 0.80677 0.0
C250 C 0.22189 0.22033 0.75755 0.0
C251 C 0.25347 0.20488 0.77127 0.0
H252 H 0.58298 0.5527 0.18508 0.0
H253 H 0.62463 0.4526 0.22913 0.0
H254 H 0.52916 0.38833 0.23595 0.0
H255 H 0.43474 0.36346 0.23193 0.0
H256 H 0.3909 0.46279 0.18876 0.0
H257 H 0.48652 0.52446 0.17898 0.0
C258 C 0.57114 0.51642 0.19586 0.0
C259 C 0.61106 0.50764 0.20668 0.0
C260 C 0.51589 0.47984 0.20008 0.0
C261 C 0.59492 0.46054 0.22068 0.0
C262 C 0.54028 0.42379 0.22466 0.0
C263 C 0.44586 0.39851 0.22031 0.0
C264 C 0.40568 0.4088 0.21132 0.0
C265 C 0.50056 0.4336 0.2149 0.0
C266 C 0.421 0.45405 0.19602 0.0
C267 C 0.47567 0.48931 0.19045 0.0
H268 H 0.94555 0.57161 0.58251 0.0
H269 H 0.06176 0.62431 0.52211 0.0
H270 H 0.02202 0.53141 0.50734 0.0
H271 H 0.95672 0.43504 0.51279 0.0
H272 H 0.84044 0.3832 0.57323 0.0
H273 H 0.8772 0.47636 0.58645 0.0
C274 C 0.96237 0.56283 0.56615 0.0
C275 C 0.00701 0.60469 0.55362 0.0
C276 C 0.93897 0.50962 0.55763 0.0
C277 C 0.02764 0.59273 0.53219 0.0
C278 C 0.00485 0.53967 0.52371 0.0
C279 C 0.93884 0.4441 0.52863 0.0
C280 C 0.89599 0.40204 0.54207 0.0
C281 C 0.96071 0.49776 0.53639 0.0
C282 C 0.87343 0.41467 0.56256 0.0
C283 C 0.89465 0.46794 0.57024 0.0
H284 H 0.41382 0.97585 0.89357 0.0
H285 H 0.49807 0.10588 0.84076 0.0
H286 H 0.56497 0.07782 0.83376 0.0
H287 H 0.60135 0.01859 0.8443 0.0
H288 H 0.51505 0.88813 0.89686 0.0
H289 H 0.44653 0.91382 0.902 0.0
C290 C 0.44687 0.99823 0.88055 0.0
C291 C 0.45148 0.04335 0.86797 0.0
C292 C 0.48456 0.98159 0.87648 0.0
C293 C 0.4939 0.0712 0.85079 0.0
C294 C 0.53206 0.05514 0.84678 0.0
C295 C 0.56725 0.99539 0.85667 0.0
C296 C 0.56365 0.95169 0.87031 0.0
C297 C 0.52803 0.01064 0.85972 0.0
C298 C 0.51902 0.92199 0.88617 0.0
C299 C 0.47988 0.93679 0.88923 0.0
H300 H 0.57554 0.60877 0.45917 0.0
H301 H 0.54308 0.60365 0.37966 0.0
H302 H 0.49459 0.50569 0.38066 0.0
H303 H 0.46164 0.42145 0.40382 0.0
H304 H 0.48902 0.42503 0.48364 0.0
H305 H 0.53987 0.52364 0.48276 0.0
C306 C 0.55758 0.58622 0.44209 0.0
C307 C 0.56304 0.61368 0.41938 0.0
C308 C 0.52941 0.52963 0.44279 0.0
C309 C 0.53939 0.58374 0.39744 0.0
C310 C 0.51186 0.52762 0.39794 0.0
C311 C 0.47935 0.44376 0.42099 0.0
C312 C 0.47235 0.41605 0.44371 0.0
C313 C 0.50696 0.50019 0.42044 0.0
C314 C 0.49432 0.44554 0.46589 0.0
C315 C 0.52315 0.50186 0.4654 0.0
H316 H 0.04022 0.56238 0.80467 0.0
H317 H 0.8719 0.47491 0.78337 0.0
H318 H 0.88034 0.39715 0.77195 0.0
H319 H 0.93662 0.35574 0.76611 0.0
H320 H 0.10528 0.44424 0.78684 0.0
H321 H 0.09544 0.51991 0.80039 0.0
C322 C 0.00518 0.52622 0.79771 0.0
C323 C 0.95553 0.52465 0.79479 0.0
C324 C 0.01046 0.48195 0.79092 0.0
C325 C 0.91062 0.47731 0.78578 0.0
C326 C 0.91545 0.43286 0.77918 0.0
C327 C 0.97122 0.39148 0.77368 0.0
C328 C 0.02171 0.39436 0.7753 0.0
C329 C 0.96536 0.43501 0.78134 0.0
C330 C 0.066 0.44094 0.78527 0.0
C331 C 0.06042 0.48428 0.79303 0.0
H332 H 0.43338 0.05553 0.12772 0.0
H333 H 0.36852 0.88992 0.1054 0.0
H334 H 0.45888 0.90126 0.10715 0.0
H335 H 0.55627 0.9587 0.11343 0.0
H336 H 0.62205 0.12456 0.13541 0.0
H337 H 0.53105 0.11244 0.13546 0.0
C338 C 0.43887 0.02177 0.12336 0.0
C339 C 0.39408 0.97194 0.11633 0.0
C340 C 0.49107 0.02866 0.12426 0.0
C341 C 0.40212 0.9287 0.11082 0.0
C342 C 0.45385 0.93518 0.11178 0.0
C343 C 0.55087 0.99231 0.11832 0.0
C344 C 0.59609 0.04262 0.12427 0.0
C345 C 0.49861 0.98509 0.11821 0.0
C346 C 0.58806 0.08547 0.13071 0.0
C347 C 0.53602 0.07855 0.1307 0.0
H348 H 0.23952 0.00442 0.1903 0.0
H349 H 0.20067 0.04994 0.11941 0.0
H350 H 0.20152 0.12662 0.13932 0.0
H351 H 0.21619 0.18235 0.17634 0.0
H352 H 0.25801 0.13924 0.2471 0.0
H353 H 0.2529 0.05983 0.22772 0.0
C354 C 0.23092 0.03094 0.17926 0.0
C355 C 0.22017 0.02156 0.15343 0.0
C356 C 0.23215 0.07543 0.19075 0.0
C357 C 0.20933 0.05641 0.13933 0.0
C358 C 0.20976 0.10026 0.15068 0.0
C359 C 0.2239 0.15546 0.1876 0.0
C360 C 0.23755 0.16674 0.2131 0.0
C361 C 0.22157 0.11039 0.17631 0.0
C362 C 0.2476 0.13156 0.22738 0.0
C363 C 0.24468 0.08614 0.21633 0.0
H364 H 0.04353 0.24903 0.50567 0.0
H365 H 0.10842 0.41553 0.48489 0.0
H366 H 0.19759 0.42524 0.4787 0.0
H367 H 0.2566 0.38584 0.47885 0.0
H368 H 0.19023 0.2191 0.49963 0.0
H369 H 0.10207 0.21043 0.50656 0.0
C370 C 0.07702 0.28747 0.49965 0.0
C371 C 0.06927 0.33141 0.49561 0.0
C372 C 0.12799 0.29287 0.4964 0.0
C373 C 0.11328 0.38098 0.48803 0.0
C374 C 0.16429 0.38662 0.48458 0.0
C375 C 0.22299 0.34781 0.48518 0.0
C376 C 0.22993 0.3032 0.48874 0.0
C377 C 0.17211 0.34283 0.48879 0.0
C378 C 0.1859 0.25403 0.49672 0.0
C379 C 0.13544 0.24895 0.50061 0.0
H380 H 0.96279 0.19373 0.83706 0.0
H381 H 0.94706 0.12337 0.76368 0.0
H382 H 0.86976 0.03943 0.77817 0.0
H383 H 0.80569 0.98642 0.81142 0.0
H384 H 0.82039 0.05739 0.88457 0.0
H385 H 0.89904 0.14055 0.87038 0.0
C386 C 0.94258 0.15999 0.82427 0.0
C387 C 0.96064 0.16484 0.79936 0.0
C388 C 0.89789 0.11192 0.83264 0.0
C389 C 0.93388 0.12078 0.78297 0.0
C390 C 0.88966 0.0727 0.79122 0.0
C391 C 0.82618 0.02001 0.82428 0.0
C392 C 0.80716 0.01567 0.84897 0.0
C393 C 0.87118 0.0679 0.81598 0.0
C394 C 0.83412 0.05965 0.8654 0.0
C395 C 0.87914 0.10728 0.85733 0.0
H396 H 0.76892 0.94987 0.14258 0.0
H397 H 0.6706 0.9488 0.20433 0.0
H398 H 0.65854 0.86248 0.21864 0.0
H399 H 0.67647 0.78758 0.21346 0.0
H400 H 0.77538 0.79076 0.15145 0.0
H401 H 0.78618 0.87608 0.13726 0.0
C402 C 0.7449 0.93099 0.15923 0.0
C403 C 0.72078 0.95581 0.1724 0.0
C404 C 0.73797 0.8816 0.1672 0.0
C405 C 0.68973 0.93058 0.19389 0.0
C406 C 0.6827 0.88119 0.20203 0.0
C407 C 0.70003 0.80679 0.19675 0.0
C408 C 0.72504 0.78284 0.18352 0.0
C409 C 0.70657 0.85628 0.18877 0.0
C410 C 0.7558 0.80838 0.162 0.0
C411 C 0.76209 0.85721 0.15388 0.0
H412 H 0.74462 0.72415 0.51813 0.0
H413 H 0.85046 0.82368 0.45867 0.0
H414 H 0.92799 0.82951 0.48055 0.0
H415 H 0.96518 0.8035 0.51552 0.0
H416 H 0.85955 0.70145 0.57441 0.0
H417 H 0.78246 0.69981 0.55383 0.0
C418 C 0.78469 0.74736 0.51004 0.0
C419 C 0.79171 0.77325 0.48678 0.0
C420 C 0.82908 0.75007 0.52257 0.0
C421 C 0.84388 0.80309 0.4765 0.0
C422 C 0.88828 0.80653 0.489 0.0
C423 C 0.9254 0.78123 0.524 0.0
C424 C 0.91809 0.75256 0.54642 0.0
C425 C 0.88126 0.77976 0.5119 0.0
C426 C 0.86623 0.72375 0.5571 0.0
C427 C 0.82213 0.72273 0.54533 0.0
H428 H 0.18335 0.89095 0.89398 0.0
H429 H 0.21324 0.96295 0.82018 0.0
H430 H 0.13408 0.88298 0.80387 0.0
H431 H 0.05599 0.7939 0.81058 0.0
H432 H 0.02337 0.72189 0.8844 0.0
H433 H 0.10438 0.80082 0.9007 0.0
C434 C 0.17266 0.88902 0.87431 0.0
C435 C 0.20413 0.9328 0.85832 0.0
C436 C 0.12671 0.8431 0.86508 0.0
C437 C 0.18959 0.92988 0.83291 0.0
C438 C 0.14438 0.88416 0.82355 0.0
C439 C 0.06659 0.79522 0.83024 0.0
C440 C 0.03375 0.75207 0.84625 0.0
C441 C 0.1126 0.84073 0.83948 0.0
C442 C 0.04798 0.75465 0.87169 0.0
C443 C 0.09426 0.79973 0.88101 0.0
H444 H 0.30395 0.34859 0.38436 0.0
H445 H 0.26486 0.18281 0.38601 0.0
H446 H 0.22697 0.16949 0.34359 0.0
H447 H 0.20665 0.20587 0.30574 0.0
H448 H 0.25132 0.37317 0.30371 0.0
H449 H 0.28465 0.38487 0.34686 0.0
C450 C 0.28705 0.30944 0.3755 0.0
C451 C 0.2871 0.2667 0.38832 0.0
C452 C 0.26596 0.30232 0.35115 0.0
C453 C 0.2655 0.21641 0.37647 0.0
C454 C 0.24362 0.20873 0.35228 0.0
C455 C 0.22293 0.24461 0.31495 0.0
C456 C 0.22602 0.2885 0.30178 0.0
C457 C 0.24364 0.25143 0.33945 0.0
C458 C 0.24834 0.33883 0.3136 0.0
C459 C 0.26754 0.34555 0.33819 0.0
H460 H 0.93207 0.20556 0.59715 0.0
H461 H 0.01658 0.37918 0.59881 0.0
H462 H 0.05268 0.3791 0.6402 0.0
H463 H 0.06088 0.33031 0.67587 0.0
H464 H 0.97726 0.15672 0.67473 0.0
H465 H 0.94088 0.15633 0.63317 0.0
C466 C 0.95799 0.24327 0.6067 0.0
C467 C 0.97148 0.29224 0.59494 0.0
C468 C 0.97933 0.24306 0.63049 0.0
C469 C 0.0056 0.34086 0.60742 0.0
C470 C 0.02642 0.34094 0.63109 0.0
C471 C 0.03505 0.29234 0.66649 0.0
C472 C 0.02197 0.24368 0.67842 0.0
C473 C 0.01386 0.29235 0.64273 0.0
C474 C 0.98814 0.19486 0.66598 0.0
C475 C 0.96709 0.19455 0.64223 0.0
H476 H 0.72549 0.06296 0.04308 0.0
H477 H 0.79658 0.96443 0.05828 0.0
H478 H 0.77274 0.92629 0.01603 0.0
H479 H 0.73148 0.92103 0.97454 0.0
H480 H 0.66158 0.0209 0.95999 0.0
H481 H 0.68463 0.05777 0.00225 0.0
C482 C 0.73609 0.03336 0.03716 0.0
C483 C 0.76293 0.01676 0.05383 0.0
C484 C 0.72202 0.01139 0.01297 0.0
C485 C 0.77606 0.97812 0.04581 0.0
C486 C 0.76226 0.9561 0.02167 0.0
C487 C 0.72094 0.95049 0.98075 0.0
C488 C 0.69484 0.96813 0.96414 0.0
C489 C 0.73501 0.97227 0.0051 0.0
C490 C 0.68184 0.00673 0.97235 0.0
C491 C 0.69507 0.02797 -0.00348 0.0
H492 H 0.78467 0.79236 0.2714 0.0
H493 H 0.77517 0.63903 0.28184 0.0
H494 H 0.75735 0.64121 0.32661 0.0
H495 H 0.74037 0.6845 0.36221 0.0
H496 H 0.74447 0.83528 0.3515 0.0
H497 H 0.76841 0.83624 0.30729 0.0
C498 C 0.77943 0.75979 0.28355 0.0
C499 C 0.78153 0.71572 0.27338 0.0
C500 C 0.76774 0.76063 0.30911 0.0
C501 C 0.77377 0.67338 0.28925 0.0
C502 C 0.76348 0.67456 0.31482 0.0
C503 C 0.7468 0.71779 0.35027 0.0
C504 C 0.74068 0.75979 0.36014 0.0
C505 C 0.75968 0.71762 0.32486 0.0
C506 C 0.74876 0.80237 0.34434 0.0
C507 C 0.76254 0.80298 0.31909 0.0
H508 H 0.97792 0.78397 0.64142 0.0
H509 H 0.12348 0.77423 0.64131 0.0
H510 H 0.10519 0.74021 0.6844 0.0
H511 H 0.04584 0.70919 0.72114 0.0
H512 H 0.89784 0.71452 0.7208 0.0
H513 H 0.91893 0.75403 0.67868 0.0
C514 C 0.00609 0.77522 0.65098 0.0
C515 C 0.05221 0.78194 0.63828 0.0
C516 C 0.99449 0.75422 0.67549 0.0
C517 C 0.0878 0.76951 0.65073 0.0
C518 C 0.07725 0.74988 0.67531 0.0
C519 C 0.01815 0.71907 0.71193 0.0
C520 C 0.97022 0.70875 0.7241 0.0
C521 C 0.03031 0.7413 0.68771 0.0
C522 C 0.93485 0.72177 0.71181 0.0
C523 C 0.94699 0.74452 0.68776 0.0
H524 H 0.32696 0.06443 0.02876 0.0
H525 H 0.17345 0.91829 0.01961 0.0
H526 H 0.16857 0.94287 0.9761 0.0
H527 H 0.20951 0.0043 0.94027 0.0
H528 H 0.36572 0.14721 0.94871 0.0
H529 H 0.36761 0.12594 0.99309 0.0
C530 C 0.29232 0.03799 0.01729 0.0
C531 C 0.25066 0.98955 0.02741 0.0
C532 C 0.29012 0.05203 0.99224 0.0
C533 C 0.20622 0.95564 0.01224 0.0
C534 C 0.20329 0.96978 0.98739 0.0
C535 C 0.2435 0.03127 0.95196 0.0
C536 C 0.28717 0.07759 0.94138 0.0
C537 C 0.24512 0.01776 0.97718 0.0
C538 C 0.33154 0.11152 0.95654 0.0
C539 C 0.33272 0.09923 0.98184 0.0
loop_
_geom_bond_atom_site_label_1
_geom_bond_atom_site_label_2
_geom_bond_distance
_geom_bond_site_symmetry_2
_ccdc_geom_bond_type
C0 O1 1.160 . S
C0 O7 1.185 . S
O1 C0 1.160 . S
O2 Zn3 1.899 . S
O2 C10 1.284 . S
Zn3 O2 1.899 . S
Zn3 O4 2.032 . S
Zn3 O7 2.086 . S
Zn3 O12 1.977 . S
O4 Zn3 2.032 . S
O4 C8 1.278 . S
C5 O6 1.203 . S
C5 O12 1.267 . S
O6 C5 1.203 . S
O7 C0 1.185 . S
O7 Zn3 2.086 . S
C8 O4 1.278 . S
C8 O9 1.211 . S
O9 C8 1.211 . S
C10 O2 1.284 . S
C10 O11 1.273 . S
O11 C10 1.273 . S
O12 Zn3 1.977 . S
O12 C5 1.267 . S
C13 O14 1.160 . S
C13 O20 1.185 . S
O14 C13 1.160 . S
O15 Zn16 1.899 . S
O15 C23 1.284 . S
Zn16 O15 1.899 . S
Zn16 O17 2.032 . S
Zn16 O20 2.086 . S
Zn16 O25 1.977 . S
O17 Zn16 2.032 . S
O17 C21 1.278 1_655 S
C18 O19 1.203 . S
C18 O25 1.267 . S
O19 C18 1.203 . S
O20 C13 1.185 . S
O20 Zn16 2.086 . S
C21 O17 1.278 1_455 S
C21 O22 1.211 . S
O22 C21 1.211 . S
C23 O15 1.284 . S
C23 O24 1.273 1_655 S
O24 C23 1.273 1_455 S
O25 Zn16 1.977 . S
O25 C18 1.267 . S
C26 O27 1.160 . S
C26 O33 1.185 . S
O27 C26 1.160 . S
O28 Zn29 1.899 . S
O28 C36 1.284 . S
Zn29 O28 1.899 . S
Zn29 O30 2.032 . S
Zn29 O33 2.086 . S
Zn29 O38 1.977 . S
O30 Zn29 2.032 . S
O30 C34 1.278 1_565 S
C31 O32 1.203 . S
C31 O38 1.267 . S
O32 C31 1.203 . S
O33 C26 1.185 . S
O33 Zn29 2.086 . S
C34 O30 1.278 1_545 S
C34 O35 1.211 . S
O35 C34 1.211 . S
C36 O28 1.284 . S
C36 O37 1.273 1_565 S
O37 C36 1.273 1_545 S
O38 Zn29 1.977 . S
O38 C31 1.267 . S
C39 O40 1.160 . S
C39 O46 1.185 . S
O40 C39 1.160 . S
O41 Zn42 1.899 . S
O41 C49 1.284 . S
Zn42 O41 1.899 . S
Zn42 O43 2.032 . S
Zn42 O46 2.086 . S
Zn42 O51 1.977 . S
O43 Zn42 2.032 . S
O43 C47 1.278 . S
C44 O45 1.203 . S
C44 O51 1.267 . S
O45 C44 1.203 . S
O46 C39 1.185 . S
O46 Zn42 2.086 . S
C47 O43 1.278 . S
C47 O48 1.211 . S
O48 C47 1.211 . S
C49 O41 1.284 . S
C49 O50 1.273 . S
O50 C49 1.273 . S
O51 Zn42 1.977 . S
O51 C44 1.267 . S
C52 O53 1.160 . S
C52 O59 1.185 . S
O53 C52 1.160 . S
O54 Zn55 1.899 . S
O54 C62 1.284 . S
Zn55 O54 1.899 . S
Zn55 O56 2.032 . S
Zn55 O59 2.086 . S
Zn55 O64 1.977 . S
O56 Zn55 2.032 . S
O56 C60 1.278 1_455 S
C57 O58 1.203 . S
C57 O64 1.267 . S
O58 C57 1.203 . S
O59 C52 1.185 . S
O59 Zn55 2.086 . S
C60 O56 1.278 1_655 S
C60 O61 1.211 . S
O61 C60 1.211 . S
C62 O54 1.284 . S
C62 O63 1.273 1_455 S
O63 C62 1.273 1_655 S
O64 Zn55 1.977 . S
O64 C57 1.267 . S
C65 O66 1.160 . S
C65 O72 1.185 . S
O66 C65 1.160 . S
O67 Zn68 1.899 . S
O67 C75 1.284 . S
Zn68 O67 1.899 . S
Zn68 O69 2.032 . S
Zn68 O72 2.086 . S
Zn68 O77 1.977 . S
O69 Zn68 2.032 . S
O69 C73 1.278 1_545 S
C70 O71 1.203 . S
C70 O77 1.267 . S
O71 C70 1.203 . S
O72 C65 1.185 . S
O72 Zn68 2.086 . S
C73 O69 1.278 1_565 S
C73 O74 1.211 . S
O74 C73 1.211 . S
C75 O67 1.284 . S
C75 O76 1.273 1_545 S
O76 C75 1.273 1_565 S
O77 Zn68 1.977 . S
O77 C70 1.267 . S
C78 O79 1.160 . S
C78 O85 1.185 . S
O79 C78 1.160 . S
O80 Zn81 1.899 . S
O80 C88 1.284 . S
Zn81 O80 1.899 . S
Zn81 O82 2.032 . S
Zn81 O85 2.086 . S
Zn81 O90 1.977 . S
O82 Zn81 2.032 . S
O82 C86 1.278 . S
C83 O84 1.203 . S
C83 O90 1.267 . S
O84 C83 1.203 . S
O85 C78 1.185 . S
O85 Zn81 2.086 . S
C86 O82 1.278 . S
C86 O87 1.211 . S
O87 C86 1.211 . S
C88 O80 1.284 . S
C88 O89 1.273 . S
O89 C88 1.273 . S
O90 Zn81 1.977 . S
O90 C83 1.267 . S
C91 O92 1.160 . S
C91 O98 1.185 . S
O92 C91 1.160 . S
O93 Zn94 1.899 . S
O93 C101 1.284 . S
Zn94 O93 1.899 . S
Zn94 O95 2.032 . S
Zn94 O98 2.086 . S
Zn94 O103 1.977 . S
O95 Zn94 2.032 . S
O95 C99 1.278 1_655 S
C96 O97 1.203 . S
C96 O103 1.267 . S
O97 C96 1.203 . S
O98 C91 1.185 . S
O98 Zn94 2.086 . S
C99 O95 1.278 1_455 S
C99 O100 1.211 . S
O100 C99 1.211 . S
C101 O93 1.284 . S
C101 O102 1.273 1_655 S
O102 C101 1.273 1_455 S
O103 Zn94 1.977 . S
O103 C96 1.267 . S
C104 O105 1.160 . S
C104 O111 1.185 . S
O105 C104 1.160 . S
O106 Zn107 1.899 . S
O106 C114 1.284 . S
Zn107 O106 1.899 . S
Zn107 O108 2.032 . S
Zn107 O111 2.086 . S
Zn107 O116 1.977 . S
O108 Zn107 2.032 . S
O108 C112 1.278 1_565 S
C109 O110 1.203 . S
C109 O116 1.267 . S
O110 C109 1.203 . S
O111 C104 1.185 . S
O111 Zn107 2.086 . S
C112 O108 1.278 1_545 S
C112 O113 1.211 . S
O113 C112 1.211 . S
C114 O106 1.284 . S
C114 O115 1.273 1_565 S
O115 C114 1.273 1_545 S
O116 Zn107 1.977 . S
O116 C109 1.267 . S
C117 O118 1.160 . S
C117 O124 1.185 . S
O118 C117 1.160 . S
O119 Zn120 1.899 . S
O119 C127 1.284 . S
Zn120 O119 1.899 . S
Zn120 O121 2.032 . S
Zn120 O124 2.086 . S
Zn120 O129 1.977 . S
O121 Zn120 2.032 . S
O121 C125 1.278 . S
C122 O123 1.203 . S
C122 O129 1.267 . S
O123 C122 1.203 . S
O124 C117 1.185 . S
O124 Zn120 2.086 . S
C125 O121 1.278 . S
C125 O126 1.211 . S
O126 C125 1.211 . S
C127 O119 1.284 . S
C127 O128 1.273 . S
O128 C127 1.273 . S
O129 Zn120 1.977 . S
O129 C122 1.267 . S
C130 O131 1.160 . S
C130 O137 1.185 . S
O131 C130 1.160 . S
O132 Zn133 1.899 . S
O132 C140 1.284 . S
Zn133 O132 1.899 . S
Zn133 O134 2.032 . S
Zn133 O137 2.086 . S
Zn133 O142 1.977 . S
O134 Zn133 2.032 . S
O134 C138 1.278 1_455 S
C135 O136 1.203 . S
C135 O142 1.267 . S
O136 C135 1.203 . S
O137 C130 1.185 . S
O137 Zn133 2.086 . S
C138 O134 1.278 1_655 S
C138 O139 1.211 . S
O139 C138 1.211 . S
C140 O132 1.284 . S
C140 O141 1.273 1_455 S
O141 C140 1.273 1_655 S
O142 Zn133 1.977 . S
O142 C135 1.267 . S
C143 O144 1.160 . S
C143 O150 1.185 . S
O144 C143 1.160 . S
O145 Zn146 1.899 . S
O145 C153 1.284 . S
Zn146 O145 1.899 . S
Zn146 O147 2.032 . S
Zn146 O150 2.086 . S
Zn146 O155 1.977 . S
O147 Zn146 2.032 . S
O147 C151 1.278 1_545 S
C148 O149 1.203 . S
C148 O155 1.267 . S
O149 C148 1.203 . S
O150 C143 1.185 . S
O150 Zn146 2.086 . S
C151 O147 1.278 1_565 S
C151 O152 1.211 . S
O152 C151 1.211 . S
C153 O145 1.284 . S
C153 O154 1.273 1_545 S
O154 C153 1.273 1_565 S
O155 Zn146 1.977 . S
O155 C148 1.267 . S
H156 C162 0.930 . S
H157 C165 0.930 . S
H158 C166 0.930 . S
H159 C167 0.930 . S
H160 C170 0.930 . S
H161 C171 0.930 . S
C162 H156 0.930 . S
C162 C163 1.355 . S
C162 C164 1.415 . S
C163 C162 1.355 . S
C163 C165 1.419 . S
C164 C162 1.415 . S
C164 C169 1.425 1_655 S
C164 C171 1.409 1_655 S
C165 H157 0.930 . S
C165 C163 1.419 . S
C165 C166 1.362 . S
C166 H158 0.930 . S
C166 C165 1.362 . S
C166 C169 1.409 1_655 S
C167 H159 0.930 . S
C167 C168 1.355 . S
C167 C169 1.415 . S
C168 C167 1.355 . S
C168 C170 1.419 . S
C169 C164 1.425 1_455 S
C169 C166 1.409 1_455 S
C169 C167 1.415 . S
C170 H160 0.930 . S
C170 C168 1.419 . S
C170 C171 1.362 . S
C171 H161 0.930 . S
C171 C164 1.409 1_455 S
C171 C170 1.362 . S
H172 C178 0.930 . S
H173 C181 0.930 . S
H174 C182 0.930 . S
H175 C183 0.930 . S
H176 C186 0.930 . S
H177 C187 0.930 . S
C178 H172 0.930 . S
C178 C179 1.355 . S
C178 C180 1.415 . S
C179 C178 1.355 . S
C179 C181 1.419 . S
C180 C178 1.415 . S
C180 C185 1.425 1_545 S
C180 C187 1.409 1_545 S
C181 H173 0.930 . S
C181 C179 1.419 . S
C181 C182 1.362 . S
C182 H174 0.930 . S
C182 C181 1.362 . S
C182 C185 1.409 1_545 S
C183 H175 0.930 . S
C183 C184 1.355 . S
C183 C185 1.415 . S
C184 C183 1.355 . S
C184 C186 1.419 . S
C185 C180 1.425 1_565 S
C185 C182 1.409 1_565 S
C185 C183 1.415 . S
C186 H176 0.930 . S
C186 C184 1.419 . S
C186 C187 1.362 . S
C187 H177 0.930 . S
C187 C180 1.409 1_565 S
C187 C186 1.362 . S
H188 C194 0.930 . S
H189 C197 0.930 . S
H190 C198 0.930 . S
H191 C199 0.930 . S
H192 C202 0.930 . S
H193 C203 0.930 . S
C194 H188 0.930 . S
C194 C195 1.355 . S
C194 C196 1.415 . S
C195 C194 1.355 . S
C195 C197 1.419 . S
C196 C194 1.415 . S
C196 C201 1.425 . S
C196 C203 1.409 . S
C197 H189 0.930 . S
C197 C195 1.419 . S
C197 C198 1.362 . S
C198 H190 0.930 . S
C198 C197 1.362 . S
C198 C201 1.409 . S
C199 H191 0.930 . S
C199 C200 1.355 . S
C199 C201 1.415 . S
C200 C199 1.355 . S
C200 C202 1.419 . S
C201 C196 1.425 . S
C201 C198 1.409 . S
C201 C199 1.415 . S
C202 H192 0.930 . S
C202 C200 1.419 . S
C202 C203 1.362 . S
C203 H193 0.930 . S
C203 C196 1.409 . S
C203 C202 1.362 . S
H204 C210 0.930 . S
H205 C213 0.930 . S
H206 C214 0.930 . S
H207 C215 0.930 . S
H208 C218 0.930 . S
H209 C219 0.930 . S
C210 H204 0.930 . S
C210 C211 1.355 . S
C210 C212 1.415 . S
C211 C210 1.355 . S
C211 C213 1.419 . S
C212 C210 1.415 . S
C212 C217 1.425 1_655 S
C212 C219 1.409 1_655 S
C213 H205 0.930 . S
C213 C211 1.419 . S
C213 C214 1.362 . S
C214 H206 0.930 . S
C214 C213 1.362 . S
C214 C217 1.409 1_655 S
C215 H207 0.930 . S
C215 C216 1.355 . S
C215 C217 1.415 . S
C216 C215 1.355 . S
C216 C218 1.419 . S
C217 C212 1.425 1_455 S
C217 C214 1.409 1_455 S
C217 C215 1.415 . S
C218 H208 0.930 . S
C218 C216 1.419 . S
C218 C219 1.362 . S
C219 H209 0.930 . S
C219 C212 1.409 1_455 S
C219 C218 1.362 . S
H220 C226 0.930 . S
H221 C229 0.930 . S
H222 C230 0.930 . S
H223 C231 0.930 . S
H224 C234 0.930 . S
H225 C235 0.930 . S
C226 H220 0.930 . S
C226 C227 1.355 . S
C226 C228 1.431 . S
C227 C226 1.355 . S
C227 C229 1.419 . S
C228 C226 1.431 . S
C228 C233 1.416 1_545 S
C228 C235 1.398 1_545 S
C229 H221 0.930 . S
C229 C227 1.419 . S
C229 C230 1.362 . S
C230 H222 0.930 . S
C230 C229 1.362 . S
C230 C233 1.398 1_545 S
C231 H223 0.930 . S
C231 C232 1.355 . S
C231 C233 1.431 . S
C232 C231 1.355 . S
C232 C234 1.419 . S
C233 C228 1.416 1_565 S
C233 C230 1.398 1_565 S
C233 C231 1.431 . S
C234 H224 0.930 . S
C234 C232 1.419 . S
C234 C235 1.362 . S
C235 H225 0.930 . S
C235 C228 1.398 1_565 S
C235 C234 1.362 . S
H236 C242 0.930 . S
H237 C245 0.930 . S
H238 C246 0.930 . S
H239 C247 0.930 . S
H240 C250 0.930 . S
H241 C251 0.930 . S
C242 H236 0.930 . S
C242 C243 1.355 . S
C242 C244 1.415 . S
C243 C242 1.355 . S
C243 C245 1.419 . S
C244 C242 1.415 . S
C244 C249 1.425 . S
C244 C251 1.409 . S
C245 H237 0.930 . S
C245 C243 1.419 . S
C245 C246 1.362 . S
C246 H238 0.930 . S
C246 C245 1.362 . S
C246 C249 1.409 . S
C247 H239 0.930 . S
C247 C248 1.355 . S
C247 C249 1.415 . S
C248 C247 1.355 . S
C248 C250 1.419 . S
C249 C244 1.425 . S
C249 C246 1.409 . S
C249 C247 1.415 . S
C250 H240 0.930 . S
C250 C248 1.419 . S
C250 C251 1.362 . S
C251 H241 0.930 . S
C251 C244 1.409 . S
C251 C250 1.362 . S
H252 C258 0.930 . S
H253 C261 0.930 . S
H254 C262 0.930 . S
H255 C263 0.930 . S
H256 C266 0.930 . S
H257 C267 0.930 . S
C258 H252 0.930 . S
C258 C259 1.355 . S
C258 C260 1.415 . S
C259 C258 1.355 . S
C259 C261 1.419 . S
C260 C258 1.415 . S
C260 C265 1.425 . S
C260 C267 1.409 . S
C261 H253 0.930 . S
C261 C259 1.419 . S
C261 C262 1.362 . S
C262 H254 0.930 . S
C262 C261 1.362 . S
C262 C265 1.409 . S
C263 H255 0.930 . S
C263 C264 1.355 . S
C263 C265 1.415 . S
C264 C263 1.355 . S
C264 C266 1.419 . S
C265 C260 1.425 . S
C265 C262 1.409 . S
C265 C263 1.415 . S
C266 H256 0.930 . S
C266 C264 1.419 . S
C266 C267 1.362 . S
C267 H257 0.930 . S
C267 C260 1.409 . S
C267 C266 1.362 . S
H268 C274 0.930 . S
H269 C277 0.930 1_655 S
H270 C278 0.930 . S
H271 C279 0.930 . S
H272 C282 0.930 1_455 S
H273 C283 0.930 . S
C274 H268 0.930 . S
C274 C275 1.355 . S
C274 C276 1.415 . S
C275 C274 1.355 . S
C275 C277 1.419 . S
C276 C274 1.415 . S
C276 C281 1.425 1_455 S
C276 C283 1.409 . S
C277 H269 0.930 1_455 S
C277 C275 1.419 . S
C277 C278 1.362 1_455 S
C278 H270 0.930 . S
C278 C277 1.362 1_655 S
C278 C281 1.409 . S
C279 H271 0.930 . S
C279 C280 1.355 . S
C279 C281 1.415 . S
C280 C279 1.355 . S
C280 C282 1.419 . S
C281 C276 1.425 1_655 S
C281 C278 1.409 . S
C281 C279 1.415 . S
C282 H272 0.930 1_655 S
C282 C280 1.419 . S
C282 C283 1.362 1_655 S
C283 H273 0.930 . S
C283 C276 1.409 . S
C283 C282 1.362 1_455 S
H284 C290 0.928 1_565 S
H285 C293 0.930 . S
H286 C294 0.930 . S
H287 C295 0.928 1_545 S
H288 C298 0.930 . S
H289 C299 0.930 . S
C290 H284 0.928 1_545 S
C290 C291 1.365 . S
C290 C292 1.406 1_545 S
C291 C290 1.365 . S
C291 C293 1.419 . S
C292 C290 1.406 1_565 S
C292 C297 1.425 1_565 S
C292 C299 1.409 . S
C293 H285 0.930 . S
C293 C291 1.419 . S
C293 C294 1.362 . S
C294 H286 0.930 . S
C294 C293 1.362 . S
C294 C297 1.409 . S
C295 H287 0.928 1_565 S
C295 C296 1.365 . S
C295 C297 1.406 1_565 S
C296 C295 1.365 . S
C296 C298 1.419 . S
C297 C292 1.425 1_545 S
C297 C294 1.409 . S
C297 C295 1.406 1_545 S
C298 H288 0.930 . S
C298 C296 1.419 . S
C298 C299 1.362 . S
C299 H289 0.930 . S
C299 C292 1.409 . S
C299 C298 1.362 . S
H300 C306 0.930 . S
H301 C309 0.930 . S
H302 C310 0.930 . S
H303 C311 0.930 . S
H304 C314 0.930 . S
H305 C315 0.930 . S
C306 H300 0.930 . S
C306 C307 1.355 . S
C306 C308 1.415 . S
C307 C306 1.355 . S
C307 C309 1.419 . S
C308 C306 1.415 . S
C308 C313 1.425 . S
C308 C315 1.409 . S
C309 H301 0.930 . S
C309 C307 1.419 . S
C309 C310 1.362 . S
C310 H302 0.930 . S
C310 C309 1.362 . S
C310 C313 1.409 . S
C311 H303 0.930 . S
C311 C312 1.355 . S
C311 C313 1.415 . S
C312 C311 1.355 . S
C312 C314 1.419 . S
C313 C308 1.425 . S
C313 C310 1.409 . S
C313 C311 1.415 . S
C314 H304 0.930 . S
C314 C312 1.419 . S
C314 C315 1.362 . S
C315 H305 0.930 . S
C315 C308 1.409 . S
C315 C314 1.362 . S
H316 C322 0.925 1_455 S
H317 C325 0.930 . S
H318 C326 0.930 . S
H319 C327 0.925 1_655 S
H320 C330 0.930 . S
H321 C331 0.930 . S
C322 H316 0.925 1_655 S
C322 C323 1.377 . S
C322 C324 1.396 1_655 S
C323 C322 1.377 . S
C323 C325 1.419 . S
C324 C322 1.396 1_455 S
C324 C329 1.425 1_455 S
C324 C331 1.409 . S
C325 H317 0.930 . S
C325 C323 1.419 . S
C325 C326 1.362 . S
C326 H318 0.930 . S
C326 C325 1.362 . S
C326 C329 1.409 . S
C327 H319 0.925 1_455 S
C327 C328 1.377 . S
C327 C329 1.396 1_455 S
C328 C327 1.377 . S
C328 C330 1.419 . S
C329 C324 1.425 1_655 S
C329 C326 1.409 . S
C329 C327 1.396 1_655 S
C330 H320 0.930 . S
C330 C328 1.419 . S
C330 C331 1.362 . S
C331 H321 0.930 . S
C331 C324 1.409 . S
C331 C330 1.362 . S
H332 C338 0.930 1_545 S
H333 C341 0.930 . S
H334 C342 0.930 . S
H335 C343 0.930 1_565 S
H336 C346 0.930 . S
H337 C347 0.930 . S
C338 H332 0.930 1_565 S
C338 C339 1.355 . S
C338 C340 1.415 1_565 S
C339 C338 1.355 . S
C339 C341 1.419 . S
C340 C338 1.415 1_545 S
C340 C345 1.425 1_545 S
C340 C347 1.409 . S
C341 H333 0.930 . S
C341 C339 1.419 . S
C341 C342 1.362 . S
C342 H334 0.930 . S
C342 C341 1.362 . S
C342 C345 1.409 . S
C343 H335 0.930 1_545 S
C343 C344 1.355 . S
C343 C345 1.415 1_545 S
C344 C343 1.355 . S
C344 C346 1.419 . S
C345 C340 1.425 1_565 S
C345 C342 1.409 . S
C345 C343 1.415 1_565 S
C346 H336 0.930 . S
C346 C344 1.419 . S
C346 C347 1.362 . S
C347 H337 0.930 . S
C347 C340 1.409 . S
C347 C346 1.362 . S
H348 C354 0.930 . S
H349 C357 0.930 . S
H350 C358 0.930 . S
H351 C359 0.930 . S
H352 C362 0.930 . S
H353 C363 0.930 . S
C354 H348 0.930 . S
C354 C355 1.355 . S
C354 C356 1.415 . S
C355 C354 1.355 . S
C355 C357 1.419 . S
C356 C354 1.415 . S
C356 C361 1.425 . S
C356 C363 1.409 . S
C357 H349 0.930 . S
C357 C355 1.419 . S
C357 C358 1.362 . S
C358 H350 0.930 . S
C358 C357 1.362 . S
C358 C361 1.409 . S
C359 H351 0.930 . S
C359 C360 1.355 . S
C359 C361 1.415 . S
C360 C359 1.355 . S
C360 C362 1.419 . S
C361 C356 1.425 . S
C361 C358 1.409 . S
C361 C359 1.415 . S
C362 H352 0.930 . S
C362 C360 1.419 . S
C362 C363 1.362 . S
C363 H353 0.930 . S
C363 C356 1.409 . S
C363 C362 1.362 . S
H364 C370 0.930 . S
H365 C373 0.930 . S
H366 C374 0.930 . S
H367 C375 0.930 . S
H368 C378 0.930 . S
H369 C379 0.930 . S
C370 H364 0.930 . S
C370 C371 1.355 . S
C370 C372 1.415 . S
C371 C370 1.355 . S
C371 C373 1.419 . S
C372 C370 1.415 . S
C372 C377 1.425 . S
C372 C379 1.409 . S
C373 H365 0.930 . S
C373 C371 1.419 . S
C373 C374 1.362 . S
C374 H366 0.930 . S
C374 C373 1.362 . S
C374 C377 1.409 . S
C375 H367 0.930 . S
C375 C376 1.355 . S
C375 C377 1.415 . S
C376 C375 1.355 . S
C376 C378 1.419 . S
C377 C372 1.425 . S
C377 C374 1.409 . S
C377 C375 1.415 . S
C378 H368 0.930 . S
C378 C376 1.419 . S
C378 C379 1.362 . S
C379 H369 0.930 . S
C379 C372 1.409 . S
C379 C378 1.362 . S
H380 C386 0.930 . S
H381 C389 0.930 . S
H382 C390 0.930 . S
H383 C391 0.930 . S
H384 C394 0.930 . S
H385 C395 0.930 . S
C386 H380 0.930 . S
C386 C387 1.355 . S
C386 C388 1.415 . S
C387 C386 1.355 . S
C387 C389 1.419 . S
C388 C386 1.415 . S
C388 C393 1.425 . S
C388 C395 1.409 . S
C389 H381 0.930 . S
C389 C387 1.419 . S
C389 C390 1.362 . S
C390 H382 0.930 . S
C390 C389 1.362 . S
C390 C393 1.409 . S
C391 H383 0.930 . S
C391 C392 1.355 . S
C391 C393 1.415 . S
C392 C391 1.355 . S
C392 C394 1.419 . S
C393 C388 1.425 . S
C393 C390 1.409 . S
C393 C391 1.415 . S
C394 H384 0.930 . S
C394 C392 1.419 . S
C394 C395 1.362 . S
C395 H385 0.930 . S
C395 C388 1.409 . S
C395 C394 1.362 . S
H396 C402 0.930 . S
H397 C405 0.930 . S
H398 C406 0.930 . S
H399 C407 0.930 . S
H400 C410 0.930 . S
H401 C411 0.930 . S
C402 H396 0.930 . S
C402 C403 1.355 . S
C402 C404 1.415 . S
C403 C402 1.355 . S
C403 C405 1.419 . S
C404 C402 1.415 . S
C404 C409 1.425 . S
C404 C411 1.409 . S
C405 H397 0.930 . S
C405 C403 1.419 . S
C405 C406 1.362 . S
C406 H398 0.930 . S
C406 C405 1.362 . S
C406 C409 1.409 . S
C407 H399 0.930 . S
C407 C408 1.355 . S
C407 C409 1.415 . S
C408 C407 1.355 . S
C408 C410 1.419 . S
C409 C404 1.425 . S
C409 C406 1.409 . S
C409 C407 1.415 . S
C410 H400 0.930 . S
C410 C408 1.419 . S
C410 C411 1.362 . S
C411 H401 0.930 . S
C411 C404 1.409 . S
C411 C410 1.362 . S
H412 C418 0.930 . S
H413 C421 0.930 . S
H414 C422 0.930 . S
H415 C423 0.930 . S
H416 C426 0.930 . S
H417 C427 0.930 . S
C418 H412 0.930 . S
C418 C419 1.355 . S
C418 C420 1.415 . S
C419 C418 1.355 . S
C419 C421 1.419 . S
C420 C418 1.415 . S
C420 C425 1.425 . S
C420 C427 1.409 . S
C421 H413 0.930 . S
C421 C419 1.419 . S
C421 C422 1.362 . S
C422 H414 0.930 . S
C422 C421 1.362 . S
C422 C425 1.409 . S
C423 H415 0.930 . S
C423 C424 1.355 . S
C423 C425 1.415 . S
C424 C423 1.355 . S
C424 C426 1.419 . S
C425 C420 1.425 . S
C425 C422 1.409 . S
C425 C423 1.415 . S
C426 H416 0.930 . S
C426 C424 1.419 . S
C426 C427 1.362 . S
C427 H417 0.930 . S
C427 C420 1.409 . S
C427 C426 1.362 . S
H428 C434 0.930 . S
H429 C437 0.930 . S
H430 C438 0.930 . S
H431 C439 0.930 . S
H432 C442 0.930 . S
H433 C443 0.930 . S
C434 H428 0.930 . S
C434 C435 1.355 . S
C434 C436 1.415 . S
C435 C434 1.355 . S
C435 C437 1.419 . S
C436 C434 1.415 . S
C436 C441 1.425 . S
C436 C443 1.409 . S
C437 H429 0.930 . S
C437 C435 1.419 . S
C437 C438 1.362 . S
C438 H430 0.930 . S
C438 C437 1.362 . S
C438 C441 1.409 . S
C439 H431 0.930 . S
C439 C440 1.355 . S
C439 C441 1.415 . S
C440 C439 1.355 . S
C440 C442 1.419 . S
C441 C436 1.425 . S
C441 C438 1.409 . S
C441 C439 1.415 . S
C442 H432 0.930 . S
C442 C440 1.419 . S
C442 C443 1.362 . S
C443 H433 0.930 . S
C443 C436 1.409 . S
C443 C442 1.362 . S
H444 C450 0.930 . S
H445 C453 0.930 . S
H446 C454 0.930 . S
H447 C455 0.930 . S
H448 C458 0.930 . S
H449 C459 0.930 . S
C450 H444 0.930 . S
C450 C451 1.355 . S
C450 C452 1.415 . S
C451 C450 1.355 . S
C451 C453 1.419 . S
C452 C450 1.415 . S
C452 C457 1.425 . S
C452 C459 1.409 . S
C453 H445 0.930 . S
C453 C451 1.419 . S
C453 C454 1.362 . S
C454 H446 0.930 . S
C454 C453 1.362 . S
C454 C457 1.409 . S
C455 H447 0.930 . S
C455 C456 1.355 . S
C455 C457 1.415 . S
C456 C455 1.355 . S
C456 C458 1.419 . S
C457 C452 1.425 . S
C457 C454 1.409 . S
C457 C455 1.415 . S
C458 H448 0.930 . S
C458 C456 1.419 . S
C458 C459 1.362 . S
C459 H449 0.930 . S
C459 C452 1.409 . S
C459 C458 1.362 . S
H460 C466 0.930 . S
H461 C469 0.930 . S
H462 C470 0.930 . S
H463 C471 0.930 . S
H464 C474 0.930 . S
H465 C475 0.930 . S
C466 H460 0.930 . S
C466 C467 1.355 . S
C466 C468 1.415 . S
C467 C466 1.355 . S
C467 C469 1.419 1_655 S
C468 C466 1.415 . S
C468 C473 1.425 1_655 S
C468 C475 1.409 . S
C469 H461 0.930 . S
C469 C467 1.419 1_455 S
C469 C470 1.362 . S
C470 H462 0.930 . S
C470 C469 1.362 . S
C470 C473 1.409 . S
C471 H463 0.930 . S
C471 C472 1.355 . S
C471 C473 1.415 . S
C472 C471 1.355 . S
C472 C474 1.419 1_455 S
C473 C468 1.425 1_455 S
C473 C470 1.409 . S
C473 C471 1.415 . S
C474 H464 0.930 . S
C474 C472 1.419 1_655 S
C474 C475 1.362 . S
C475 H465 0.930 . S
C475 C468 1.409 . S
C475 C474 1.362 . S
H476 C482 0.930 . S
H477 C485 0.930 . S
H478 C486 0.930 . S
H479 C487 0.930 . S
H480 C490 0.930 . S
H481 C491 0.930 . S
C482 H476 0.930 . S
C482 C483 1.355 . S
C482 C484 1.437 . S
C483 C482 1.355 . S
C483 C485 1.419 1_545 S
C484 C482 1.437 . S
C484 C489 1.424 1_544 S
C484 C491 1.388 1_554 S
C485 H477 0.930 . S
C485 C483 1.419 1_565 S
C485 C486 1.362 . S
C486 H478 0.930 . S
C486 C485 1.362 . S
C486 C489 1.388 1_554 S
C487 H479 0.930 . S
C487 C488 1.355 . S
C487 C489 1.437 . S
C488 C487 1.355 . S
C488 C490 1.419 1_565 S
C489 C484 1.424 1_566 S
C489 C486 1.388 1_556 S
C489 C487 1.437 . S
C490 H480 0.930 . S
C490 C488 1.419 1_545 S
C490 C491 1.362 . S
C491 H481 0.930 . S
C491 C484 1.388 1_556 S
C491 C490 1.362 . S
H492 C498 0.930 . S
H493 C501 0.930 . S
H494 C502 0.930 . S
H495 C503 0.930 . S
H496 C506 0.930 . S
H497 C507 0.930 . S
C498 H492 0.930 . S
C498 C499 1.355 . S
C498 C500 1.415 . S
C499 C498 1.355 . S
C499 C501 1.419 . S
C500 C498 1.415 . S
C500 C505 1.425 . S
C500 C507 1.409 . S
C501 H493 0.930 . S
C501 C499 1.419 . S
C501 C502 1.362 . S
C502 H494 0.930 . S
C502 C501 1.362 . S
C502 C505 1.409 . S
C503 H495 0.930 . S
C503 C504 1.355 . S
C503 C505 1.415 . S
C504 C503 1.355 . S
C504 C506 1.419 . S
C505 C500 1.425 . S
C505 C502 1.409 . S
C505 C503 1.415 . S
C506 H496 0.930 . S
C506 C504 1.419 . S
C506 C507 1.362 . S
C507 H497 0.930 . S
C507 C500 1.409 . S
C507 C506 1.362 . S
H508 C514 0.930 . S
H509 C517 0.930 . S
H510 C518 0.930 . S
H511 C519 0.930 . S
H512 C522 0.930 . S
H513 C523 0.930 . S
C514 H508 0.930 . S
C514 C515 1.355 . S
C514 C516 1.415 1_455 S
C515 C514 1.355 . S
C515 C517 1.419 . S
C516 C514 1.415 1_655 S
C516 C521 1.425 1_655 S
C516 C523 1.409 . S
C517 H509 0.930 . S
C517 C515 1.419 . S
C517 C518 1.362 . S
C518 H510 0.930 . S
C518 C517 1.362 . S
C518 C521 1.409 . S
C519 H511 0.930 . S
C519 C520 1.355 . S
C519 C521 1.415 1_655 S
C520 C519 1.355 . S
C520 C522 1.419 . S
C521 C516 1.425 1_455 S
C521 C518 1.409 . S
C521 C519 1.415 1_455 S
C522 H512 0.930 . S
C522 C520 1.419 . S
C522 C523 1.362 . S
C523 H513 0.930 . S
C523 C516 1.409 . S
C523 C522 1.362 . S
H524 C530 0.930 . S
H525 C533 0.930 . S
H526 C534 0.930 . S
H527 C535 0.930 . S
H528 C538 0.930 . S
H529 C539 0.930 . S
C530 H524 0.930 . S
C530 C531 1.355 . S
C530 C532 1.415 1_565 S
C531 C530 1.355 . S
C531 C533 1.419 . S
C532 C530 1.415 1_545 S
C532 C537 1.425 1_544 S
C532 C539 1.409 1_554 S
C533 H525 0.930 . S
C533 C531 1.419 . S
C533 C534 1.362 . S
C534 H526 0.930 . S
C534 C533 1.362 . S
C534 C537 1.409 1_554 S
C535 H527 0.930 . S
C535 C536 1.355 . S
C535 C537 1.415 1_545 S
C536 C535 1.355 . S
C536 C538 1.419 . S
C537 C532 1.425 1_566 S
C537 C534 1.409 1_556 S
C537 C535 1.415 1_565 S
C538 H528 0.930 . S
C538 C536 1.419 . S
C538 C539 1.362 . S
C539 H529 0.930 . S
C539 C532 1.409 1_556 S
C539 C538 1.362 . S
C163 C143 1.446 . S
C168 C0 1.483 . S
C179 C13 1.505 . S
C184 C78 1.464 . S
C195 C26 1.496 . S
C200 C91 1.509 . S
C211 C39 1.503 . S
C216 C104 1.461 . S
C227 C117 1.507 . S
C232 C52 1.501 . S
C243 C65 1.508 . S
C248 C130 1.469 . S
C259 C44 1.156 . S
C264 C5 1.137 . S
C275 C57 1.210 . S
C280 C18 1.139 . S
C291 C70 1.244 . S
C296 C31 1.256 . S
C307 C83 1.148 . S
C312 C122 1.143 . S
C323 C96 1.247 . S
C328 C135 1.255 . S
C339 C109 1.261 . S
C344 C148 1.236 . S
C355 C112 0.752 . S
C360 C8 0.697 . S
C371 C21 0.712 . S
C376 C125 0.736 . S
C387 C138 0.738 . S
C392 C34 0.712 . S
C403 C151 0.687 . S
C408 C47 0.761 . S
C419 C86 0.746 . S
C424 C60 0.703 . S
C435 C73 0.759 . S
C440 C99 0.688 . S
C451 C127 1.550 . S
C456 C10 1.555 . S
C467 C23 1.524 . S
C472 C140 1.519 . S
C483 C153 1.519 . S
C488 C36 1.515 . S
C499 C49 1.568 . S
C504 C88 1.565 . S
C515 C62 1.558 . S
C520 C101 1.553 . S
C531 C114 1.563 . S
C536 C75 1.558 . S
