# Generated by pormake.
# Topology whh, (6)-cn, num edge types: 1
# Building blocks:
#     Node 0, Type 0, BuildingBlock: MIFKUJ_clean_sbu_0, # of connection points: 6
#     Node 1, Type 0, BuildingBlock: MIFKUJ_clean_sbu_0, # of connection points: 6
#     Node 2, Type 0, BuildingBlock: MIFKUJ_clean_sbu_0, # of connection points: 6
#     Node 3, Type 0, BuildingBlock: MIFKUJ_clean_sbu_0, # of connection points: 6
#     Node 4, Type 0, BuildingBlock: MIFKUJ_clean_sbu_0, # of connection points: 6
#     Node 5, Type 0, BuildingBlock: MIFKUJ_clean_sbu_0, # of connection points: 6
#     Node 6, Type 0, BuildingBlock: MIFKUJ_clean_sbu_0, # of connection points: 6
#     Node 7, Type 0, BuildingBlock: MIFKUJ_clean_sbu_0, # of connection points: 6
#     Node 8, Type 0, BuildingBlock: MIFKUJ_clean_sbu_0, # of connection points: 6
#     Node 9, Type 0, BuildingBlock: MIFKUJ_clean_sbu_0, # of connection points: 6
#     Node 10, Type 0, BuildingBlock: MIFKUJ_clean_sbu_0, # of connection points: 6
#     Node 11, Type 0, BuildingBlock: MIFKUJ_clean_sbu_0, # of connection points: 6
#     Node 12, Type 0, BuildingBlock: MIFKUJ_clean_sbu_0, # of connection points: 6
#     Node 13, Type 0, BuildingBlock: MIFKUJ_clean_sbu_0, # of connection points: 6
#     Node 14, Type 0, BuildingBlock: MIFKUJ_clean_sbu_0, # of connection points: 6
#     Node 15, Type 0, BuildingBlock: MIFKUJ_clean_sbu_0, # of connection points: 6
#     Edge 16, Type (0, 0), BuildingBlock: XUDNAN_clean_linker_2, # of connection points: 2
#     Edge 17, Type (0, 0), BuildingBlock: XUDNAN_clean_linker_2, # of connection points: 2
#     Edge 18, Type (0, 0), BuildingBlock: XUDNAN_clean_linker_2, # of connection points: 2
#     Edge 19, Type (0, 0), BuildingBlock: XUDNAN_clean_linker_2, # of connection points: 2
#     Edge 20, Type (0, 0), BuildingBlock: XUDNAN_clean_linker_2, # of connection points: 2
#     Edge 21, Type (0, 0), BuildingBlock: XUDNAN_clean_linker_2, # of connection points: 2
#     Edge 22, Type (0, 0), BuildingBlock: XUDNAN_clean_linker_2, # of connection points: 2
#     Edge 23, Type (0, 0), BuildingBlock: XUDNAN_clean_linker_2, # of connection points: 2
#     Edge 24, Type (0, 0), BuildingBlock: XUDNAN_clean_linker_2, # of connection points: 2
#     Edge 25, Type (0, 0), BuildingBlock: XUDNAN_clean_linker_2, # of connection points: 2
#     Edge 26, Type (0, 0), BuildingBlock: XUDNAN_clean_linker_2, # of connection points: 2
#     Edge 27, Type (0, 0), BuildingBlock: XUDNAN_clean_linker_2, # of connection points: 2
#     Edge 28, Type (0, 0), BuildingBlock: XUDNAN_clean_linker_2, # of connection points: 2
#     Edge 29, Type (0, 0), BuildingBlock: XUDNAN_clean_linker_2, # of connection points: 2
#     Edge 30, Type (0, 0), BuildingBlock: XUDNAN_clean_linker_2, # of connection points: 2
#     Edge 31, Type (0, 0), BuildingBlock: XUDNAN_clean_linker_2, # of connection points: 2
#     Edge 32, Type (0, 0), BuildingBlock: XUDNAN_clean_linker_2, # of connection points: 2
#     Edge 33, Type (0, 0), BuildingBlock: XUDNAN_clean_linker_2, # of connection points: 2
#     Edge 34, Type (0, 0), BuildingBlock: XUDNAN_clean_linker_2, # of connection points: 2
#     Edge 35, Type (0, 0), BuildingBlock: XUDNAN_clean_linker_2, # of connection points: 2
#     Edge 36, Type (0, 0), BuildingBlock: XUDNAN_clean_linker_2, # of connection points: 2
#     Edge 37, Type (0, 0), BuildingBlock: XUDNAN_clean_linker_2, # of connection points: 2
#     Edge 38, Type (0, 0), BuildingBlock: XUDNAN_clean_linker_2, # of connection points: 2
#     Edge 39, Type (0, 0), BuildingBlock: XUDNAN_clean_linker_2, # of connection points: 2
#     Edge 40, Type (0, 0), BuildingBlock: XUDNAN_clean_linker_2, # of connection points: 2
#     Edge 41, Type (0, 0), BuildingBlock: XUDNAN_clean_linker_2, # of connection points: 2
#     Edge 42, Type (0, 0), BuildingBlock: XUDNAN_clean_linker_2, # of connection points: 2
#     Edge 43, Type (0, 0), BuildingBlock: XUDNAN_clean_linker_2, # of connection points: 2
#     Edge 44, Type (0, 0), BuildingBlock: XUDNAN_clean_linker_2, # of connection points: 2
#     Edge 45, Type (0, 0), BuildingBlock: XUDNAN_clean_linker_2, # of connection points: 2
#     Edge 46, Type (0, 0), BuildingBlock: XUDNAN_clean_linker_2, # of connection points: 2
#     Edge 47, Type (0, 0), BuildingBlock: XUDNAN_clean_linker_2, # of connection points: 2
#     Edge 48, Type (0, 0), BuildingBlock: XUDNAN_clean_linker_2, # of connection points: 2
#     Edge 49, Type (0, 0), BuildingBlock: XUDNAN_clean_linker_2, # of connection points: 2
#     Edge 50, Type (0, 0), BuildingBlock: XUDNAN_clean_linker_2, # of connection points: 2
#     Edge 51, Type (0, 0), BuildingBlock: XUDNAN_clean_linker_2, # of connection points: 2
#     Edge 52, Type (0, 0), BuildingBlock: XUDNAN_clean_linker_2, # of connection points: 2
#     Edge 53, Type (0, 0), BuildingBlock: XUDNAN_clean_linker_2, # of connection points: 2
#     Edge 54, Type (0, 0), BuildingBlock: XUDNAN_clean_linker_2, # of connection points: 2
#     Edge 55, Type (0, 0), BuildingBlock: XUDNAN_clean_linker_2, # of connection points: 2
#     Edge 56, Type (0, 0), BuildingBlock: XUDNAN_clean_linker_2, # of connection points: 2
#     Edge 57, Type (0, 0), BuildingBlock: XUDNAN_clean_linker_2, # of connection points: 2
#     Edge 58, Type (0, 0), BuildingBlock: XUDNAN_clean_linker_2, # of connection points: 2
#     Edge 59, Type (0, 0), BuildingBlock: XUDNAN_clean_linker_2, # of connection points: 2
#     Edge 60, Type (0, 0), BuildingBlock: XUDNAN_clean_linker_2, # of connection points: 2
#     Edge 61, Type (0, 0), BuildingBlock: XUDNAN_clean_linker_2, # of connection points: 2
#     Edge 62, Type (0, 0), BuildingBlock: XUDNAN_clean_linker_2, # of connection points: 2
#     Edge 63, Type (0, 0), BuildingBlock: XUDNAN_clean_linker_2, # of connection points: 2
# Relax obj value: 0.480
# Max RMSD: 0.312
# Mean RMSD: 0.291
data_MOF--net-whh--node1-MIFKUJ_clean_sbu_0--edge1-XUDNAN_clean_linker_2
_symmetry_space_group_name_H-M    P1
_symmetry_Int_Tables_number       1
_symmetry_cell_setting            triclinic
loop_
_symmetry_equiv_pos_as_xyz
'x, y, z'
_cell_length_a     37.117325
_cell_length_b     37.119516
_cell_length_c     42.449075
_cell_angle_alpha  93.021765
_cell_angle_beta   86.020356
_cell_angle_gamma 89.908867
loop_
_atom_site_label
_atom_site_type_symbol
_atom_site_fract_x
_atom_site_fract_y
_atom_site_fract_z
_atom_type_partial_charge
Zn0 Zn 0.07348 0.65802 0.09174 0.0
Zn1 Zn 0.99593 0.63722 0.10862 0.0
C2 C 0.04791 0.72244 0.0596 0.0
O3 O 0.06606 0.71083 0.03335 0.0
C4 C 0.01709 0.58533 0.14887 0.0
O5 O 0.99746 0.60751 0.16818 0.0
O6 O 0.12703 0.66635 0.08459 0.0
O7 O 0.06459 0.65416 0.1386 0.0
O8 O 0.00926 0.67646 0.14108 0.0
C9 C 0.13944 0.69648 0.09451 0.0
O10 O 0.11693 0.72108 0.10775 0.0
O11 O 0.04786 0.70406 0.08398 0.0
C12 C 0.93769 0.59588 0.09427 0.0
O13 O 0.96608 0.57927 0.08017 0.0
O14 O 0.94251 0.62447 0.11138 0.0
O15 O 0.00709 0.64601 0.0625 0.0
O16 O 0.05798 0.61663 0.06256 0.0
O17 O 0.02124 0.5917 0.11978 0.0
C18 C 0.03948 0.67312 0.15329 0.0
C19 C 0.02936 0.62316 0.04913 0.0
Zn20 Zn 0.8423 0.07391 0.10584 0.0
Zn21 Zn 0.934 0.03435 0.1395 0.0
C22 C 0.80108 0.02311 0.06711 0.0
O23 O 0.83074 0.01984 0.0484 0.0
C24 C 0.97593 0.05729 0.19102 0.0
O25 O 0.94564 0.07385 0.20102 0.0
O26 O 0.82882 0.126 0.10464 0.0
O27 O 0.84679 0.05685 0.15057 0.0
O28 O 0.89305 0.03121 0.17186 0.0
C29 C 0.80175 0.14059 0.12029 0.0
O30 O 0.78263 0.1218 0.14079 0.0
O31 O 0.80028 0.04495 0.09123 0.0
C32 C 0.9464 0.95889 0.12937 0.0
O33 O 0.94651 0.96163 0.16035 0.0
O34 O 0.94 0.98683 0.11466 0.0
O35 O 0.92079 0.07304 0.11245 0.0
O36 O 0.885 0.06417 0.07464 0.0
O37 O 0.97865 0.04259 0.16321 0.0
C38 C 0.86068 0.04289 0.17382 0.0
C39 C 0.91679 0.06429 0.08368 0.0
Zn40 Zn 0.43889 0.84032 0.11109 0.0
Zn41 Zn 0.51301 0.86762 0.11342 0.0
C42 C 0.46197 0.79 0.05681 0.0
O43 O 0.42972 0.79394 0.04648 0.0
C44 C 0.49821 0.93525 0.14911 0.0
O45 O 0.51918 0.94883 0.12654 0.0
O46 O 0.38874 0.81948 0.10924 0.0
O47 O 0.45614 0.8294 0.15417 0.0
O48 O 0.511 0.81886 0.13238 0.0
C49 C 0.38645 0.78571 0.1128 0.0
O50 O 0.4156 0.7678 0.11867 0.0
O51 O 0.4705 0.80846 0.08117 0.0
C52 C 0.58238 0.87496 0.08064 0.0
O53 O 0.5675 0.85421 0.05917 0.0
O54 O 0.56474 0.88263 0.10687 0.0
O55 O 0.49234 0.87698 0.07219 0.0
O56 O 0.44011 0.89179 0.09617 0.0
O57 O 0.49074 0.90187 0.14729 0.0
C58 C 0.48656 0.81332 0.15416 0.0
C59 C 0.46497 0.8976 0.07487 0.0
Zn60 Zn 0.61694 0.50511 0.10366 0.0
Zn61 Zn 0.65835 0.43935 0.13297 0.0
C62 C 0.59716 0.45074 0.05431 0.0
O63 O 0.60455 0.423 0.03441 0.0
C64 C 0.68569 0.43658 0.19433 0.0
O65 O 0.67032 0.40471 0.19348 0.0
O66 O 0.59252 0.54393 0.08168 0.0
O67 O 0.5868 0.49666 0.14251 0.0
O68 O 0.60494 0.44085 0.14866 0.0
C69 C 0.5991 0.57698 0.088 0.0
O70 O 0.62264 0.58559 0.10882 0.0
O71 O 0.61988 0.46015 0.07422 0.0
C72 C 0.68782 0.37583 0.09784 0.0
O73 O 0.68995 0.39748 0.07429 0.0
O74 O 0.67361 0.38735 0.12459 0.0
O75 O 0.68376 0.46749 0.09789 0.0
O76 O 0.66643 0.52248 0.11288 0.0
O77 O 0.68361 0.45648 0.1711 0.0
C78 C 0.58248 0.4666 0.15507 0.0
C79 C 0.69117 0.50063 0.10249 0.0
Zn80 Zn 0.07548 0.82982 0.4175 0.0
Zn81 Zn 0.9982 0.86046 0.39753 0.0
C82 C 0.05408 0.76753 0.45331 0.0
O83 O 0.08697 0.76997 0.46276 0.0
C84 C 0.02493 0.89794 0.34329 0.0
O85 O 0.01331 0.86867 0.32863 0.0
O86 O 0.12743 0.81605 0.42316 0.0
O87 O 0.07056 0.82338 0.37077 0.0
O88 O 0.0118 0.81321 0.37257 0.0
C89 C 0.13902 0.7872 0.40826 0.0
O90 O 0.11675 0.76813 0.39143 0.0
O91 O 0.04234 0.79207 0.4368 0.0
C92 C 0.93693 0.90303 0.40621 0.0
O93 O 0.96318 0.92564 0.41188 0.0
O94 O 0.94477 0.87028 0.39823 0.0
O95 O 0.00883 0.86697 0.44347 0.0
O96 O 0.0656 0.88063 0.43524 0.0
O97 O 0.02182 0.90101 0.37332 0.0
C98 C 0.04339 0.80812 0.35922 0.0
C99 C 0.03455 0.88856 0.44816 0.0
Zn100 Zn 0.64519 0.0653 0.4002 0.0
Zn101 Zn 0.62068 0.98428 0.38837 0.0
C102 C 0.71139 0.04008 0.41719 0.0
O103 O 0.72028 0.06964 0.40287 0.0
C104 C 0.56921 0.0171 0.34701 0.0
O105 O 0.58642 0.04763 0.35096 0.0
O106 O 0.66223 0.11543 0.41056 0.0
O107 O 0.65772 0.0534 0.35398 0.0
O108 O 0.66736 0.99637 0.36373 0.0
C109 C 0.66617 0.13917 0.39017 0.0
O110 O 0.65552 0.13217 0.36162 0.0
O111 O 0.67813 0.03234 0.42165 0.0
C112 C 0.59288 0.92062 0.41051 0.0
O113 O 0.56527 0.94286 0.41479 0.0
O114 O 0.62232 0.93146 0.39728 0.0
O115 O 0.60765 0.00849 0.43129 0.0
O116 O 0.59321 0.0618 0.41653 0.0
O117 O 0.57907 0.98926 0.36044 0.0
C118 C 0.67437 0.02368 0.34748 0.0
C119 C 0.58628 0.03532 0.43354 0.0
Zn120 Zn 0.44985 0.64305 0.39009 0.0
Zn121 Zn 0.51846 0.59828 0.373 0.0
C122 C 0.48953 0.6882 0.43502 0.0
O123 O 0.46355 0.68099 0.45635 0.0
C124 C 0.46267 0.55244 0.33816 0.0
O125 O 0.43686 0.57669 0.34285 0.0
O126 O 0.40379 0.67076 0.40202 0.0
O127 O 0.45997 0.64578 0.34285 0.0
O128 O 0.51892 0.64258 0.34655 0.0
C129 C 0.37586 0.66638 0.38659 0.0
O130 O 0.37675 0.64255 0.36253 0.0
O131 O 0.48924 0.67348 0.40739 0.0
C132 C 0.56669 0.54712 0.38621 0.0
O133 O 0.53449 0.53412 0.39363 0.0
O134 O 0.5689 0.57785 0.37423 0.0
O135 O 0.50236 0.60076 0.41963 0.0
O136 O 0.44559 0.5947 0.41074 0.0
O137 O 0.49345 0.55831 0.34871 0.0
C138 C 0.49194 0.65298 0.33223 0.0
C139 C 0.4719 0.58702 0.4268 0.0
Zn140 Zn 0.8643 0.4136 0.39685 0.0
Zn141 Zn 0.94854 0.46411 0.36006 0.0
C142 C 0.79968 0.44117 0.42847 0.0
O143 O 0.80693 0.41581 0.44759 0.0
C144 C 0.99287 0.43303 0.30626 0.0
O145 O 0.9691 0.40683 0.3067 0.0
O146 O 0.8449 0.36366 0.4022 0.0
O147 O 0.88213 0.41954 0.35094 0.0
O148 O 0.90362 0.47225 0.33772 0.0
C149 C 0.81634 0.3557 0.38859 0.0
O150 O 0.80221 0.37949 0.3712 0.0
O151 O 0.82245 0.44753 0.4058 0.0
C152 C 0.98484 0.52466 0.39132 0.0
O153 O 0.01406 0.51071 0.37614 0.0
O154 O 0.9547 0.50901 0.38849 0.0
O155 O 0.93841 0.42031 0.38412 0.0
O156 O 0.90351 0.42366 0.42723 0.0
O157 O 0.99013 0.45814 0.32783 0.0
C158 C 0.87822 0.44927 0.33787 0.0
C159 C 0.935 0.42559 0.4138 0.0
Zn160 Zn 0.94462 0.44133 0.86686 0.0
Zn161 Zn 0.91701 0.35088 0.91095 0.0
C162 C 0.90406 0.48503 0.82775 0.0
O163 O 0.88413 0.45588 0.82574 0.0
C164 C 0.98135 0.30956 0.91421 0.0
O165 O 0.99601 0.33803 0.90146 0.0
O166 O 0.99355 0.44833 0.88388 0.0
O167 O 0.91065 0.42348 0.8999 0.0
O168 O 0.92602 0.39502 0.93998 0.0
C169 C 0.01987 0.46046 0.86693 0.0
O170 O 0.01476 0.46919 0.83797 0.0
O171 O 0.92957 0.48589 0.84624 0.0
C172 C 0.85786 0.30568 0.90043 0.0
O173 O 0.88219 0.29163 0.87934 0.0
O174 O 0.86594 0.33352 0.91718 0.0
O175 O 0.9311 0.35509 0.86324 0.0
O176 O 0.94873 0.40102 0.83415 0.0
O177 O 0.94781 0.31003 0.92248 0.0
C178 C 0.92199 0.42474 0.92733 0.0
C179 C 0.94108 0.3678 0.83663 0.0
Zn180 Zn 0.07985 0.99078 0.84979 0.0
Zn181 Zn 0.14308 0.92195 0.87865 0.0
C182 C 0.03012 0.95453 0.80635 0.0
O183 O 0.05263 0.92703 0.80321 0.0
C184 C 0.19613 0.95971 0.90999 0.0
O185 O 0.18189 0.94004 0.93246 0.0
O186 O 0.08128 0.04434 0.85831 0.0
O187 O 0.06962 0.97208 0.89258 0.0
O188 O 0.10418 0.93212 0.91297 0.0
C189 C 0.05395 0.05835 0.87407 0.0
O190 O 0.02697 0.03744 0.88295 0.0
O191 O 0.03703 0.98172 0.82436 0.0
C192 C 0.19469 0.86323 0.87854 0.0
O193 O 0.21397 0.88185 0.85804 0.0
O194 O 0.16365 0.8746 0.88898 0.0
O195 O 0.12912 0.91919 0.83361 0.0
O196 O 0.12532 0.97656 0.82372 0.0
O197 O 0.18271 0.95798 0.88325 0.0
C198 C 0.07669 0.95257 0.91497 0.0
C199 C 0.1392 0.94555 0.81728 0.0
Zn200 Zn 0.48918 0.11951 0.88196 0.0
Zn201 Zn 0.55921 0.14714 0.90393 0.0
C202 C 0.52146 0.0779 0.83094 0.0
O203 O 0.50329 0.10219 0.81705 0.0
C204 C 0.53395 0.21839 0.91777 0.0
O205 O 0.56457 0.22472 0.90161 0.0
O206 O 0.43784 0.10244 0.87843 0.0
O207 O 0.49227 0.12218 0.92925 0.0
O208 O 0.54668 0.09968 0.92456 0.0
C209 C 0.4338 0.07248 0.8915 0.0
O210 O 0.46224 0.05651 0.9013 0.0
O211 O 0.5204 0.07892 0.86094 0.0
C212 C 0.6358 0.16318 0.89713 0.0
O213 O 0.63373 0.14824 0.86856 0.0
O214 O 0.60807 0.16356 0.91646 0.0
O215 O 0.55831 0.1525 0.85656 0.0
O216 O 0.50001 0.16458 0.8579 0.0
O217 O 0.52538 0.18602 0.92291 0.0
C218 C 0.51551 0.10118 0.939 0.0
C219 C 0.53188 0.16826 0.84526 0.0
Zn220 Zn 0.30925 0.56304 0.8641 0.0
Zn221 Zn 0.34532 0.49812 0.93021 0.0
C222 C 0.29867 0.57255 0.80013 0.0
O223 O 0.32892 0.59047 0.80271 0.0
C224 C 0.36557 0.52135 0.99206 0.0
O225 O 0.34099 0.49819 0.00166 0.0
O226 O 0.30576 0.61488 0.8795 0.0
O227 O 0.2852 0.53087 0.89443 0.0
O228 O 0.29071 0.49552 0.93324 0.0
C229 C 0.29149 0.62516 0.90655 0.0
O230 O 0.28098 0.60089 0.92662 0.0
O231 O 0.28399 0.55813 0.82423 0.0
C232 C 0.39509 0.44298 0.9382 0.0
O233 O 0.41672 0.47047 0.93415 0.0
O234 O 0.3613 0.44791 0.93792 0.0
O235 O 0.37234 0.51007 0.88843 0.0
O236 O 0.35949 0.54783 0.85193 0.0
O237 O 0.36718 0.52979 0.96342 0.0
C238 C 0.27093 0.51008 0.91431 0.0
C239 C 0.38042 0.52506 0.86255 0.0
Zn240 Zn 0.98704 0.13253 0.61527 0.0
Zn241 Zn 0.91938 0.16813 0.60085 0.0
C242 C 0.95028 0.09516 0.66382 0.0
O243 O 0.96796 0.11938 0.68024 0.0
C244 C 0.95744 0.22108 0.55938 0.0
O245 O 0.93477 0.21334 0.5376 0.0
O246 O 0.03543 0.10999 0.62082 0.0
O247 O 0.98401 0.13491 0.56897 0.0
O248 O 0.92766 0.11882 0.57545 0.0
C249 C 0.03754 0.07643 0.61312 0.0
O250 O 0.00966 0.06027 0.60125 0.0
O251 O 0.95174 0.09649 0.63393 0.0
C252 C 0.86689 0.22318 0.59914 0.0
O253 O 0.89391 0.24121 0.61059 0.0
O254 O 0.87048 0.18935 0.59291 0.0
O255 O 0.92448 0.17587 0.64878 0.0
O256 O 0.9834 0.17955 0.63976 0.0
O257 O 0.95587 0.20387 0.58447 0.0
C258 C 0.958 0.11633 0.55946 0.0
C259 C 0.95467 0.18929 0.65598 0.0
Zn260 Zn 0.40834 0.0113 0.64279 0.0
Zn261 Zn 0.34249 0.92802 0.61772 0.0
C262 C 0.46387 0.96032 0.66372 0.0
O263 O 0.44161 0.93334 0.65938 0.0
C264 C 0.27975 0.97522 0.62391 0.0
O265 O 0.3039 0.00103 0.62242 0.0
O266 O 0.41871 0.06121 0.62881 0.0
O267 O 0.39123 0.9835 0.60514 0.0
O268 O 0.36453 0.94411 0.57525 0.0
C269 C 0.44347 0.06007 0.60645 0.0
O270 O 0.45809 0.02871 0.59707 0.0
O271 O 0.45471 0.99198 0.65722 0.0
C272 C 0.32131 0.85713 0.63139 0.0
O273 O 0.2951 0.87516 0.6476 0.0
O274 O 0.34662 0.87443 0.61749 0.0
O275 O 0.36905 0.95338 0.65243 0.0
O276 O 0.3687 0.00566 0.67813 0.0
O277 O 0.29018 0.94253 0.62223 0.0
C278 C 0.38555 0.97087 0.57778 0.0
C279 C 0.35488 0.97447 0.67433 0.0
Zn280 Zn 0.47652 0.36394 0.63512 0.0
Zn281 Zn 0.55385 0.35469 0.60611 0.0
C282 C 0.49185 0.39459 0.69364 0.0
O283 O 0.47697 0.36375 0.70081 0.0
C284 C 0.53475 0.29667 0.55968 0.0
O285 O 0.56305 0.30598 0.54165 0.0
O286 O 0.42212 0.36727 0.64329 0.0
O287 O 0.48293 0.37763 0.58973 0.0
O288 O 0.53599 0.40299 0.59192 0.0
C289 C 0.41095 0.39961 0.64201 0.0
O290 O 0.43491 0.42517 0.63747 0.0
O291 O 0.49548 0.40258 0.66485 0.0
C292 C 0.61994 0.316 0.59667 0.0
O293 O 0.59824 0.29079 0.60738 0.0
O294 O 0.60695 0.34716 0.59297 0.0
O295 O 0.54947 0.34285 0.65224 0.0
O296 O 0.49668 0.31652 0.64845 0.0
O297 O 0.52644 0.31476 0.58535 0.0
C298 C 0.50487 0.40198 0.5811 0.0
C299 C 0.52712 0.3185 0.66063 0.0
Zn300 Zn 0.06253 0.53635 0.61198 0.0
Zn301 Zn 0.15689 0.58297 0.58064 0.0
C302 C 0.01483 0.58378 0.65067 0.0
O303 O 0.04548 0.59809 0.65855 0.0
C304 C 0.18498 0.51148 0.59428 0.0
O305 O 0.15162 0.50012 0.5927 0.0
O306 O 0.05247 0.4853 0.59815 0.0
O307 O 0.09067 0.55429 0.57425 0.0
O308 O 0.13147 0.57245 0.54001 0.0
C309 C 0.05786 0.45681 0.61238 0.0
O310 O 0.0703 0.45909 0.64064 0.0
O311 O 0.01536 0.56044 0.6276 0.0
C312 C 0.21643 0.62849 0.56733 0.0
O313 O 0.2297 0.59884 0.55266 0.0
O314 O 0.18404 0.62894 0.57915 0.0
O315 O 0.11951 0.58386 0.61794 0.0
O316 O 0.09801 0.54088 0.64677 0.0
O317 O 0.19262 0.54392 0.58835 0.0
C318 C 0.1006 0.55854 0.54566 0.0
C319 C 0.12243 0.5643 0.6413 0.0
H320 H 0.727 0.55632 0.13154 0.0
H321 H 0.73873 0.47283 0.05602 0.0
H322 H 0.80169 0.49159 0.0438 0.0
H323 H 0.78478 0.62439 0.0942 0.0
H324 H 0.80431 0.6386 0.1305 0.0
H325 H 0.75899 0.62113 0.13152 0.0
H326 H 0.77653 0.57305 0.1699 0.0
H327 H 0.82187 0.59032 0.16899 0.0
H328 H 0.81426 0.54334 0.15876 0.0
H329 H 0.8629 0.5176 0.04049 0.0
H330 H 0.92114 0.54674 0.04823 0.0
H331 H 0.87238 0.61162 0.12819 0.0
C332 C 0.74272 0.54254 0.11206 0.0
C333 C 0.72801 0.51348 0.09436 0.0
C334 C 0.74953 0.49528 0.06968 0.0
C335 C 0.78522 0.50581 0.06252 0.0
C336 C 0.79909 0.53428 0.08056 0.0
C337 C 0.77874 0.55226 0.10499 0.0
C338 C 0.80132 0.58002 0.12221 0.0
C339 C 0.78646 0.61831 0.11943 0.0
C340 C 0.80363 0.57114 0.15702 0.0
C341 C 0.83753 0.57472 0.10364 0.0
C342 C 0.83532 0.54842 0.07954 0.0
C343 C 0.86503 0.53812 0.05934 0.0
C344 C 0.89809 0.55471 0.06411 0.0
C345 C 0.90147 0.58107 0.08912 0.0
C346 C 0.8706 0.59159 0.10888 0.0
H347 H 0.01669 0.7565 0.11309 0.0
H348 H 0.03854 0.76919 0.01247 0.0
H349 H 0.01073 0.83012 0.01859 0.0
H350 H 0.93082 0.80459 0.12245 0.0
H351 H 0.94009 0.8245 0.16068 0.0
H352 H 0.95898 0.78107 0.14768 0.0
H353 H 0.02307 0.80482 0.15684 0.0
H354 H 0.00458 0.84833 0.16983 0.0
H355 H 0.03907 0.84461 0.13775 0.0
H356 H 0.98293 0.89102 0.03668 0.0
H357 H 0.95965 0.94695 0.06519 0.0
H358 H 0.95804 0.89361 0.15388 0.0
C359 C 0.01524 0.77176 0.09215 0.0
C360 C 0.02961 0.75799 0.06221 0.0
C361 C 0.02756 0.77916 0.0356 0.0
C362 C 0.01177 0.81372 0.03885 0.0
C363 C 0.99823 0.82658 0.06885 0.0
C364 C -0.00012 0.80617 0.09501 0.0
C365 C 0.98542 0.82666 0.12497 0.0
C366 C 0.95182 0.8081 0.1398 0.0
C367 C 0.0148 0.83139 0.14872 0.0
C368 C 0.97577 0.86214 0.11171 0.0
C369 C 0.98296 0.86153 0.07928 0.0
C370 C 0.97702 0.89167 0.06203 0.0
C371 C 0.96379 0.92333 0.07844 0.0
C372 C 0.95707 0.92466 0.11178 0.0
C373 C 0.9628 0.89346 0.12841 0.0
H374 H 0.61515 0.92756 0.11604 0.0
H375 H 0.62853 0.86247 0.02793 0.0
H376 H 0.68541 0.89429 0.01408 0.0
H377 H 0.64755 0.00989 0.08473 0.0
H378 H 0.66995 0.02417 0.11958 0.0
H379 H 0.63079 0.99568 0.12297 0.0
H380 H 0.66711 0.94872 0.15105 0.0
H381 H 0.70626 0.97723 0.14807 0.0
H382 H 0.70904 0.9312 0.13225 0.0
H383 H 0.74106 0.93328 0.01003 0.0
H384 H 0.79156 0.97579 0.01651 0.0
H385 H 0.74036 0.01595 0.10668 0.0
C386 C 0.63016 0.91971 0.09394 0.0
C387 C 0.61751 0.89235 0.07314 0.0
C388 C 0.63779 0.88324 0.0443 0.0
C389 C 0.67007 0.90121 0.03619 0.0
C390 C 0.68157 0.9283 0.05711 0.0
C391 C 0.66225 0.93747 0.08541 0.0
C392 C 0.6802 0.96778 0.10362 0.0
C393 C 0.65566 0.00136 0.10796 0.0
C394 C 0.69132 0.95548 0.13563 0.0
C395 C 0.71282 0.97407 0.08122 0.0
C396 C 0.71315 0.95109 0.05452 0.0
C397 C 0.74105 0.95148 0.0308 0.0
C398 C 0.76958 0.97573 0.03468 0.0
C399 C 0.76989 -0.00073 0.06203 0.0
C400 C 0.74086 0.99853 0.08536 0.0
H401 H 0.53007 0.77609 0.07288 0.0
H402 H 0.44348 0.73085 0.01987 0.0
H403 H 0.47444 0.6717 0.01592 0.0
H404 H 0.60598 0.71789 0.03419 0.0
H405 H 0.62593 0.71488 0.0715 0.0
H406 H 0.60154 0.75501 0.06336 0.0
H407 H 0.56091 0.74836 0.11465 0.0
H408 H 0.58422 0.70782 0.12277 0.0
H409 H 0.53595 0.70729 0.12016 0.0
H410 H 0.50741 0.61593 0.02771 0.0
H411 H 0.54386 0.56818 0.0489 0.0
H412 H 0.60806 0.65004 0.09522 0.0
C413 C 0.51827 0.75412 0.05935 0.0
C414 C 0.48438 0.75805 0.04666 0.0
C415 C 0.4696 0.72855 0.02951 0.0
C416 C 0.48694 0.69481 0.02726 0.0
C417 C 0.51915 0.69129 0.04194 0.0
C418 C 0.53504 0.72036 0.05714 0.0
C419 C 0.56717 0.70882 0.07432 0.0
C420 C 0.60224 0.72511 0.05997 0.0
C421 C 0.5617 0.71863 0.11008 0.0
C422 C 0.56611 0.6685 0.06744 0.0
C423 C 0.53847 0.65894 0.04848 0.0
C424 C 0.53002 0.623 0.04152 0.0
C425 C 0.55069 0.59613 0.05385 0.0
C426 C 0.57909 0.60538 0.07334 0.0
C427 C 0.58695 0.64208 0.07995 0.0
H428 H 0.9142 0.97269 0.40809 0.0
H429 H 0.8747 0.86297 0.41216 0.0
H430 H 0.81187 0.8863 0.41984 0.0
H431 H 0.85063 0.01465 0.4658 0.0
H432 H 0.84583 0.0548 0.44431 0.0
H433 H 0.88765 0.02981 0.44012 0.0
H434 H 0.88407 0.02289 0.37939 0.0
H435 H 0.84284 0.0488 0.38307 0.0
H436 H 0.84382 0.00454 0.36343 0.0
H437 H 0.75311 0.92256 0.42661 0.0
H438 H 0.70384 0.96771 0.42688 0.0
H439 H 0.78344 0.05262 0.41714 0.0
C440 C 0.8924 0.95349 0.41077 0.0
C441 C 0.89923 0.91604 0.40974 0.0
C442 C 0.86995 0.8918 0.41286 0.0
C443 C 0.83427 0.90481 0.41741 0.0
C444 C 0.82853 0.94204 0.41854 0.0
C445 C 0.85686 0.96593 0.41494 0.0
C446 C 0.84373 0.00447 0.41518 0.0
C447 C 0.85779 0.02725 0.44302 0.0
C448 C 0.85423 0.02113 0.38338 0.0
C449 C 0.80349 0.99869 0.41967 0.0
C450 C 0.7951 0.9626 0.42181 0.0
C451 C 0.7594 0.9509 0.42512 0.0
C452 C 0.73162 0.97673 0.42548 0.0
C453 C 0.73987 0.01365 0.42222 0.0
C454 C 0.77627 0.02462 0.41988 0.0
H455 H 0.59794 0.85637 0.3764 0.0
H456 H 0.57733 0.90436 0.47106 0.0
H457 H 0.55853 0.84509 0.4903 0.0
H458 H 0.52281 0.80547 0.37654 0.0
H459 H 0.54201 0.76658 0.3542 0.0
H460 H 0.56188 0.81017 0.3494 0.0
H461 H 0.62369 0.78537 0.36361 0.0
H462 H 0.60389 0.74149 0.36836 0.0
H463 H 0.62685 0.76329 0.40015 0.0
H464 H 0.53149 0.78458 0.49701 0.0
H465 H 0.49793 0.72757 0.4906 0.0
H466 H 0.5366 0.71813 0.39162 0.0
C467 C 0.59104 0.8538 0.40139 0.0
C468 C 0.5894 0.8844 0.42249 0.0
C469 C 0.57886 0.88085 0.45478 0.0
C470 C 0.56839 0.84732 0.46589 0.0
C471 C 0.56885 0.81765 0.44434 0.0
C472 C 0.58023 0.82045 0.41277 0.0
C473 C 0.57335 0.78581 0.39371 0.0
C474 C 0.54853 0.79243 0.36691 0.0
C475 C 0.60908 0.76793 0.3807 0.0
C476 C 0.55461 0.76393 0.41909 0.0
C477 C 0.55293 0.78244 0.44825 0.0
C478 C 0.5334 0.76938 0.47449 0.0
C479 C 0.51433 0.73701 0.47063 0.0
C480 C 0.51476 0.71828 0.4407 0.0
C481 C 0.53619 0.73144 0.41497 0.0
H482 H 0.63904 0.55802 0.36796 0.0
H483 H 0.56661 0.49066 0.42376 0.0
H484 H 0.61851 0.45983 0.44324 0.0
H485 H 0.70286 0.48402 0.34463 0.0
H486 H 0.7419 0.51274 0.34494 0.0
H487 H 0.69896 0.53085 0.33601 0.0
H488 H 0.70359 0.58017 0.38119 0.0
H489 H 0.74632 0.5618 0.39045 0.0
H490 H 0.70986 0.56696 0.42072 0.0
H491 H 0.67704 0.43831 0.45902 0.0
H492 H 0.74002 0.41951 0.4634 0.0
H493 H 0.77583 0.49608 0.39394 0.0
C494 C 0.63423 0.5368 0.38427 0.0
C495 C 0.59876 0.52745 0.3951 0.0
C496 C 0.59352 0.49889 0.41575 0.0
C497 C 0.62282 0.48114 0.42697 0.0
C498 C 0.65736 0.49151 0.41658 0.0
C499 C 0.66338 0.51787 0.39502 0.0
C500 C 0.70347 0.52174 0.38621 0.0
C501 C 0.7123 0.51174 0.35086 0.0
C502 C 0.71657 0.55995 0.39519 0.0
C503 C 0.71875 0.49404 0.40678 0.0
C504 C 0.69158 0.47729 0.42432 0.0
C505 C 0.69866 0.45098 0.44527 0.0
C506 C 0.73456 0.44067 0.44775 0.0
C507 C 0.76285 0.45632 0.42906 0.0
C508 C 0.75479 0.48373 0.40864 0.0
H509 H 0.08448 0.70082 0.45177 0.0
H510 H 0.98115 0.75576 0.45415 0.0
H511 H 0.95071 0.69689 0.44669 0.0
H512 H 0.06845 0.64369 0.38906 0.0
H513 H 0.09226 0.60523 0.40169 0.0
H514 H 0.10496 0.64999 0.41466 0.0
H515 H 0.09506 0.63372 0.47356 0.0
H516 H 0.08383 0.58864 0.45994 0.0
H517 H 0.05279 0.61399 0.4872 0.0
H518 H 0.93265 0.63296 0.43289 0.0
H519 H 0.92879 0.57078 0.40969 0.0
H520 H 0.04477 0.55854 0.41249 0.0
C521 C 0.05528 0.70033 0.45208 0.0
C522 C 0.03498 0.73269 0.45435 0.0
C523 C 0.99703 0.73116 0.45303 0.0
C524 C 0.97957 0.69785 0.44888 0.0
C525 C 0.00054 0.66644 0.44574 0.0
C526 C 0.03762 0.66746 0.44719 0.0
C527 C 0.05462 0.63086 0.43833 0.0
C528 C 0.08164 0.63257 0.40921 0.0
C529 C 0.07261 0.61595 0.46648 0.0
C530 C 0.02149 0.60927 0.43072 0.0
C531 C 0.99045 0.63 0.43593 0.0
C532 C 0.95674 0.6164 0.42905 0.0
C533 C 0.95482 0.58104 0.41585 0.0
C534 C 0.98652 0.55993 0.40909 0.0
C535 C 0.0201 0.57407 0.41732 0.0
H536 H 0.08083 0.48994 0.83854 0.0
H537 H 0.04054 0.43932 0.92384 0.0
H538 H 0.10039 0.44655 0.94539 0.0
H539 H 0.17019 0.44875 0.83624 0.0
H540 H 0.19285 0.4876 0.82085 0.0
H541 H 0.14702 0.4779 0.81161 0.0
H542 H 0.12672 0.54169 0.83377 0.0
H543 H 0.17234 0.55185 0.84295 0.0
H544 H 0.13617 0.55618 0.87356 0.0
H545 H 0.16422 0.46085 0.95835 0.0
H546 H 0.22828 0.47857 0.96041 0.0
H547 H 0.22618 0.52055 0.86702 0.0
C548 C 0.0845 0.48048 0.86181 0.0
C549 C 0.05586 0.46442 0.87965 0.0
C550 C 0.06198 0.45201 0.90984 0.0
C551 C 0.09587 0.45598 0.92229 0.0
C552 C 0.12329 0.47258 0.90437 0.0
C553 C 0.11809 0.48432 0.87465 0.0
C554 C 0.1523 0.50036 0.85987 0.0
C555 C 0.16641 0.47731 0.83039 0.0
C556 C 0.14652 0.53987 0.8521 0.0
C557 C 0.17704 0.49733 0.8865 0.0
C558 C 0.16001 0.48071 0.91177 0.0
C559 C 0.17783 0.47395 0.93872 0.0
C560 C 0.21416 0.48415 0.9397 0.0
C561 C 0.2321 0.50125 0.91404 0.0
C562 C 0.21307 0.50806 0.88724 0.0
H563 H 0.95518 0.24311 0.92853 0.0
H564 H 0.05309 0.29814 0.89656 0.0
H565 H 0.08431 0.23936 0.88703 0.0
H566 H -0.00058 0.16782 0.96596 0.0
H567 H 0.96657 0.13574 0.95272 0.0
H568 H 0.95375 0.18225 0.96146 0.0
H569 H 0.93108 0.18543 0.90527 0.0
H570 H 0.94417 0.13918 0.89622 0.0
H571 H 0.96156 0.17389 0.87129 0.0
H572 H 0.10241 0.17454 0.8748 0.0
H573 H 0.10672 0.1087 0.86298 0.0
H574 H 0.99675 0.09663 0.90285 0.0
C575 C 0.98349 0.24296 0.92039 0.0
C576 C 0.00176 0.27526 0.91343 0.0
C577 C 0.0386 0.27375 0.90222 0.0
C578 C 0.05657 0.2405 0.89674 0.0
C579 C 0.03735 0.20909 0.90278 0.0
C580 C 0.00173 0.21007 0.9147 0.0
C581 C 0.98623 0.17251 0.91675 0.0
C582 C 0.9759 0.16409 0.95128 0.0
C583 C 0.95386 0.16748 0.89615 0.0
C584 C 0.01841 0.15027 0.90333 0.0
C585 C 0.04773 0.17178 0.89564 0.0
C586 C 0.07981 0.15737 0.88118 0.0
C587 C 0.08195 0.11999 0.87443 0.0
C588 C 0.05212 0.09754 0.88206 0.0
C589 C 0.02013 0.113 0.89694 0.0
H590 H 0.23361 0.00259 0.86817 0.0
H591 H 0.23505 0.9618 0.96216 0.0
H592 H 0.29423 0.99002 0.96841 0.0
H593 H 0.32629 0.98798 0.84604 0.0
H594 H 0.3311 0.02821 0.82414 0.0
H595 H 0.28788 0.00641 0.82869 0.0
H596 H 0.26017 0.0674 0.85214 0.0
H597 H 0.3039 0.08842 0.84861 0.0
H598 H 0.27859 0.08906 0.88645 0.0
H599 H 0.35543 0.01534 0.96227 0.0
H600 H 0.41414 0.0416 0.94596 0.0
H601 H 0.37312 0.07015 0.85729 0.0
C602 C 0.24608 0.00019 0.89029 0.0
C603 C 0.22968 0.98001 0.91471 0.0
C604 C 0.24699 0.9772 0.94317 0.0
C605 C 0.28064 0.99313 0.94696 0.0
C606 C 0.29641 0.01215 0.92224 0.0
C607 C 0.27963 0.01621 0.8946 0.0
C608 C 0.30338 0.03678 0.87125 0.0
C609 C 0.31273 0.01347 0.84072 0.0
C610 C 0.28543 0.07255 0.86421 0.0
C611 C 0.33634 0.04311 0.88995 0.0
C612 C 0.33165 0.02838 0.91922 0.0
C613 C 0.35919 0.02771 0.93976 0.0
C614 C 0.39246 0.04255 0.93022 0.0
C615 C 0.39781 0.05834 0.90065 0.0
C616 C 0.36931 0.05898 0.88034 0.0
H617 H 0.54539 0.29036 0.91141 0.0
H618 H 0.4651 0.21392 0.94523 0.0
H619 H 0.4214 0.26388 0.95731 0.0
H620 H 0.51946 0.36485 0.96903 0.0
H621 H 0.52808 0.39831 0.94022 0.0
H622 H 0.55353 0.35677 0.93703 0.0
H623 H 0.53402 0.34506 0.87979 0.0
H624 H 0.50817 0.38629 0.8832 0.0
H625 H 0.48662 0.34421 0.87298 0.0
H626 H 0.38503 0.32161 0.96142 0.0
H627 H 0.35963 0.38301 0.95894 0.0
H628 H 0.46437 0.42088 0.92304 0.0
C629 C 0.5188 0.28412 0.92178 0.0
C630 C 0.50865 0.24829 0.92744 0.0
C631 C 0.4735 0.24124 0.94083 0.0
C632 C 0.4485 0.26941 0.94777 0.0
C633 C 0.45924 0.30439 0.94141 0.0
C634 C 0.49365 0.31184 0.92894 0.0
C635 C 0.49803 0.35144 0.92297 0.0
C636 C 0.52646 0.36886 0.94356 0.0
C637 C 0.50724 0.35706 0.88764 0.0
C638 C 0.4605 0.36502 0.93349 0.0
C639 C 0.4385 0.33757 0.94414 0.0
C640 C 0.40213 0.34342 0.95353 0.0
C641 C 0.38793 0.37828 0.95193 0.0
C642 C 0.41015 0.40668 0.94111 0.0
C643 C 0.44689 0.39987 0.932 0.0
H644 H 0.10588 0.1016 0.62227 0.0
H645 H 0.04293 0.00343 0.61456 0.0
H646 H 0.09743 0.96727 0.62098 0.0
H647 H 0.18286 0.06786 0.57707 0.0
H648 H 0.21511 0.09125 0.60047 0.0
H649 H 0.17053 0.10978 0.59854 0.0
H650 H 0.16149 0.11144 0.65958 0.0
H651 H 0.20587 0.09239 0.66194 0.0
H652 H 0.16688 0.07062 0.67998 0.0
H653 H 0.15867 0.94156 0.62567 0.0
H654 H 0.22363 0.92764 0.62523 0.0
H655 H 0.24764 0.04222 0.62818 0.0
C656 C 0.10353 0.07253 0.62238 0.0
C657 C 0.0702 0.0553 0.61802 0.0
C658 C 0.06824 0.01718 0.6178 0.0
C659 C 0.09898 0.99641 0.62162 0.0
C660 C 0.1315 0.01414 0.62555 0.0
C661 C 0.13408 0.0513 0.62584 0.0
C662 C 0.17282 0.06338 0.62826 0.0
C663 C 0.1861 0.08429 0.59936 0.0
C664 C 0.17701 0.08578 0.65929 0.0
C665 C 0.19164 0.02716 0.62842 0.0
C666 C 0.1672 0.99918 0.62742 0.0
C667 C 0.1781 0.96323 0.62658 0.0
C668 C 0.21509 0.95561 0.62626 0.0
C669 C 0.24075 0.98383 0.62643 0.0
C670 C 0.22871 0.02006 0.62795 0.0
H671 H 0.47774 0.26953 0.59467 0.0
H672 H 0.55427 0.24284 0.51477 0.0
H673 H 0.53373 0.17954 0.51449 0.0
H674 H 0.49405 0.19547 0.63519 0.0
H675 H 0.44835 0.18894 0.65101 0.0
H676 H 0.46331 0.23323 0.64113 0.0
H677 H 0.41132 0.2387 0.60393 0.0
H678 H 0.39562 0.1946 0.61412 0.0
H679 H 0.40566 0.20412 0.57325 0.0
H680 H 0.51285 0.11818 0.52885 0.0
H681 H 0.48998 0.06375 0.5541 0.0
H682 H 0.42665 0.13057 0.62456 0.0
C683 C 0.48945 0.2507 0.57642 0.0
C684 C 0.51761 0.26114 0.55469 0.0
C685 C 0.53248 0.23552 0.53149 0.0
C686 C 0.52103 0.1995 0.5312 0.0
C687 C 0.49451 0.18978 0.55406 0.0
C688 C 0.47853 0.21477 0.57596 0.0
C689 C 0.45338 0.19699 0.60004 0.0
C690 C 0.46552 0.20408 0.63381 0.0
C691 C 0.41416 0.20933 0.59768 0.0
C692 C 0.45858 0.15786 0.58889 0.0
C693 C 0.48219 0.1543 0.56221 0.0
C694 C 0.49363 0.12066 0.54922 0.0
C695 C 0.48053 0.08989 0.56382 0.0
C696 C 0.45602 0.09292 0.59099 0.0
C697 C 0.44477 0.12739 0.60347 0.0
H698 H 0.2507 0.53174 0.61405 0.0
H699 H 0.18277 0.43806 0.59993 0.0
H700 H 0.23119 0.39895 0.61687 0.0
H701 H 0.33156 0.49251 0.58376 0.0
H702 H 0.35899 0.51542 0.61189 0.0
H703 H 0.31761 0.53578 0.6019 0.0
H704 H 0.29525 0.54053 0.66107 0.0
H705 H 0.33642 0.51982 0.67147 0.0
H706 H 0.29341 0.50065 0.68355 0.0
H707 H 0.28992 0.36964 0.63026 0.0
H708 H 0.35327 0.35317 0.63816 0.0
H709 H 0.38101 0.46672 0.64442 0.0
C710 C 0.24584 0.50301 0.61468 0.0
C711 C 0.21313 0.48786 0.60533 0.0
C712 C 0.20772 0.45021 0.60686 0.0
C713 C 0.23499 0.42783 0.61659 0.0
C714 C 0.2672 0.44363 0.62519 0.0
C715 C 0.27252 0.48045 0.62455 0.0
C716 C 0.3101 0.49076 0.63318 0.0
C717 C 0.33077 0.50971 0.60606 0.0
C718 C 0.3087 0.51431 0.66417 0.0
C719 C 0.32573 0.45383 0.63749 0.0
C720 C 0.30053 0.42695 0.63327 0.0
C721 C 0.30971 0.39052 0.63407 0.0
C722 C 0.34573 0.38139 0.63858 0.0
C723 C 0.37208 0.40861 0.64192 0.0
C724 C 0.36152 0.44522 0.6421 0.0
H725 H 0.04677 0.39248 0.64033 0.0
H726 H 0.0487 0.44185 0.54983 0.0
H727 H 0.0286 0.38457 0.52467 0.0
H728 H 0.07719 0.30229 0.61009 0.0
H729 H 0.04735 0.27975 0.63784 0.0
H730 H 0.06475 0.32365 0.64845 0.0
H731 H 0.00019 0.34738 0.6614 0.0
H732 H 0.98065 0.30483 0.64977 0.0
H733 H 0.9681 0.34503 0.63135 0.0
H734 H 0.00221 0.3236 0.51065 0.0
H735 H 0.97238 0.26393 0.50914 0.0
H736 H 0.99022 0.25445 0.60835 0.0
C737 C 0.04372 0.39101 0.61511 0.0
C738 C 0.04907 0.42159 0.59707 0.0
C739 C 0.04428 0.41877 0.56418 0.0
C740 C 0.03316 0.38629 0.54961 0.0
C741 C 0.02732 0.35677 0.56821 0.0
C742 C 0.03266 0.3588 0.6002 0.0
C743 C 0.02203 0.32411 0.61536 0.0
C744 C 0.05478 0.30641 0.62872 0.0
C745 C 0.99095 0.33075 0.64099 0.0
C746 C 0.00959 0.30237 0.58702 0.0
C747 C 0.01283 0.32156 0.55999 0.0
C748 C 0.00016 0.308 0.53153 0.0
C749 C 0.98326 0.27414 0.53087 0.0
C750 C 0.97935 0.2543 0.55846 0.0
C751 C 0.99343 0.26848 0.58662 0.0
H752 H 0.99037 0.70825 0.19651 0.0
H753 H 0.1038 0.67904 0.18023 0.0
H754 H 0.11633 0.70978 0.23099 0.0
H755 H 0.00425 0.79625 0.23332 0.0
H756 H 0.96623 0.79375 0.26192 0.0
H757 H 0.96565 0.76927 0.22416 0.0
H758 H 0.95378 0.70977 0.25241 0.0
H759 H 0.95428 0.73404 0.29028 0.0
H760 H 0.98424 0.69613 0.28091 0.0
H761 H 0.11764 0.74536 0.28183 0.0
H762 H 0.10716 0.78145 0.33182 0.0
H763 H 0.99242 0.78579 0.31783 0.0
C764 C 0.0178 0.70825 0.20369 0.0
C765 C 0.04607 0.69112 0.18434 0.0
C766 C 0.08161 0.69175 0.19463 0.0
C767 C 0.08907 0.70924 0.22343 0.0
C768 C 0.06071 0.72584 0.24189 0.0
C769 C 0.02574 0.72538 0.23265 0.0
C770 C 0.00036 0.7453 0.25727 0.0
C771 C 0.98311 0.77809 0.24334 0.0
C772 C 0.97146 0.71978 0.27103 0.0
C773 C 0.02661 0.75693 0.28171 0.0
C774 C 0.06129 0.7456 0.27209 0.0
C775 C 0.09054 0.75404 0.28985 0.0
C776 C 0.08425 0.77454 0.31831 0.0
C777 C 0.04888 0.78602 0.32912 0.0
C778 C 0.01967 0.77695 0.31049 0.0
H779 H 0.68343 0.0588 0.29228 0.0
H780 H 0.73627 0.98565 0.35112 0.0
H781 H 0.79042 0.98449 0.31397 0.0
H782 H 0.71791 0.01545 0.21789 0.0
H783 H 0.72287 0.05705 0.19802 0.0
H784 H 0.68867 0.05325 0.22989 0.0
H785 H 0.71481 0.10935 0.25923 0.0
H786 H 0.74919 0.11316 0.22749 0.0
H787 H 0.76181 0.10972 0.26747 0.0
H788 H 0.83888 0.99201 0.27144 0.0
H789 H 0.87752 0.00376 0.22364 0.0
H790 H 0.79228 0.06941 0.19037 0.0
C791 C 0.70647 0.04261 0.29723 0.0
C792 C 0.70586 0.02235 0.32446 0.0
C793 C 0.73622 0.00115 0.3302 0.0
C794 C 0.76713 0.00046 0.30936 0.0
C795 C 0.76692 0.02064 0.28265 0.0
C796 C 0.7373 0.04096 0.27625 0.0
C797 C 0.74371 0.05891 0.24513 0.0
C798 C 0.71669 0.04534 0.22133 0.0
C799 C 0.7423 0.10024 0.25015 0.0
C800 C 0.78166 0.04572 0.23524 0.0
C801 C 0.79459 0.02395 0.25739 0.0
C802 C 0.82904 0.00884 0.25379 0.0
C803 C 0.8508 0.01577 0.22655 0.0
C804 C 0.83789 0.03737 0.20312 0.0
C805 C 0.80289 0.05266 0.20773 0.0
H806 H 0.4381 0.7841 0.19819 0.0
H807 H 0.55197 0.786 0.16701 0.0
H808 H 0.56525 0.74454 0.20818 0.0
H809 H 0.44977 0.78197 0.28149 0.0
H810 H 0.41279 0.75152 0.28917 0.0
H811 H 0.41196 0.7812 0.257 0.0
H812 H 0.40352 0.72628 0.21798 0.0
H813 H 0.40436 0.69644 0.25007 0.0
H814 H 0.43556 0.68953 0.2158 0.0
H815 H 0.5668 0.70433 0.25364 0.0
H816 H 0.55621 0.66672 0.29955 0.0
H817 H 0.44122 0.68929 0.30107 0.0
C818 C 0.46583 0.77586 0.20007 0.0
C819 C 0.49399 0.7884 0.17927 0.0
C820 C 0.52987 0.7767 0.18246 0.0
C821 C 0.53774 0.75317 0.20587 0.0
C822 C 0.50945 0.74132 0.22594 0.0
C823 C 0.47419 0.7521 0.22326 0.0
C824 C 0.44886 0.7351 0.24786 0.0
C825 C 0.42973 0.76418 0.2702 0.0
C826 C 0.42146 0.71037 0.23197 0.0
C827 C 0.47547 0.71345 0.26494 0.0
C828 C 0.51027 0.71749 0.2519 0.0
C829 C 0.53963 0.7008 0.26396 0.0
C830 C 0.53332 0.67948 0.2901 0.0
C831 C 0.49788 0.67482 0.30394 0.0
C832 C 0.46862 0.69201 0.29096 0.0
H833 H 0.7131 0.39359 0.23722 0.0
H834 H 0.71081 0.50422 0.20907 0.0
H835 H 0.75458 0.52116 0.24845 0.0
H836 H 0.72753 0.41489 0.32309 0.0
H837 H 0.75695 0.3764 0.32398 0.0
H838 H 0.72047 0.37502 0.29815 0.0
H839 H 0.76649 0.35872 0.25058 0.0
H840 H 0.80288 0.36069 0.27637 0.0
H841 H 0.80422 0.38819 0.24255 0.0
H842 H 0.80363 0.52449 0.28597 0.0
H843 H 0.85552 0.51373 0.31768 0.0
H844 H 0.82835 0.40018 0.31844 0.0
C845 C 0.72099 0.42159 0.23999 0.0
C846 C 0.70838 0.44765 0.22031 0.0
C847 C 0.72004 0.48385 0.22404 0.0
C848 C 0.74474 0.49376 0.24645 0.0
C849 C 0.75746 0.46716 0.26489 0.0
C850 C 0.74593 0.43182 0.26194 0.0
C851 C 0.7666 0.40762 0.28199 0.0
C852 C 0.74137 0.39262 0.30837 0.0
C853 C 0.78621 0.37703 0.26164 0.0
C854 C 0.79292 0.43448 0.29533 0.0
C855 C 0.78654 0.46886 0.28591 0.0
C856 C 0.80859 0.49779 0.29385 0.0
C857 C 0.83814 0.49136 0.31167 0.0
C858 C 0.84564 0.45616 0.32094 0.0
C859 C 0.82254 0.42753 0.31273 0.0
H860 H 0.90607 0.20682 0.70782 0.0
H861 H 0.01044 0.23471 0.66318 0.0
H862 H 0.01736 0.28253 0.70423 0.0
H863 H 0.87736 0.2968 0.73439 0.0
H864 H 0.85739 0.28431 0.77216 0.0
H865 H 0.85949 0.25208 0.73883 0.0
H866 H 0.89322 0.20699 0.77105 0.0
H867 H 0.89112 0.23915 0.80447 0.0
H868 H 0.93409 0.22093 0.78871 0.0
H869 H 0.01226 0.32952 0.7469 0.0
H870 H 0.99827 0.37004 0.79403 0.0
H871 H 0.90014 0.31019 0.81588 0.0
C872 C 0.93025 0.2231 0.70676 0.0
C873 C 0.9575 0.21726 0.68194 0.0
C874 C 0.98908 0.23871 0.68173 0.0
C875 C 0.99333 0.26602 0.70499 0.0
C876 C 0.96608 0.27135 0.72886 0.0
C877 C 0.93541 0.25026 0.73046 0.0
C878 C 0.91119 0.26131 0.75979 0.0
C879 C 0.87416 0.27441 0.75074 0.0
C880 C 0.90718 0.23024 0.78234 0.0
C881 C 0.9329 0.29219 0.77383 0.0
C882 C 0.96424 0.29757 0.75522 0.0
C883 C 0.98806 0.32538 0.76198 0.0
C884 C 0.97982 0.34832 0.78868 0.0
C885 C 0.94837 0.343 0.80861 0.0
C886 C 0.92465 0.31443 0.80122 0.0
H887 H 0.29767 0.01656 0.69985 0.0
H888 H 0.33968 0.90717 0.6919 0.0
H889 H 0.28695 0.88679 0.72478 0.0
H890 H 0.26398 0.01685 0.77892 0.0
H891 H 0.22335 0.04206 0.77424 0.0
H892 H 0.26279 0.04809 0.74796 0.0
H893 H 0.22636 0.03216 0.69951 0.0
H894 H 0.18637 0.02649 0.7253 0.0
H895 H 0.20167 0.99042 0.69751 0.0
H896 H 0.23207 0.87892 0.76124 0.0
H897 H 0.17801 0.88412 0.79859 0.0
H898 H 0.17079 0.99835 0.78211 0.0
C899 C 0.29552 0.98834 0.70494 0.0
C900 C 0.32244 0.96328 0.69323 0.0
C901 C 0.31892 0.92659 0.70032 0.0
C902 C 0.28915 0.91478 0.71899 0.0
C903 C 0.26292 0.94001 0.73013 0.0
C904 C 0.26558 0.97596 0.72319 0.0
C905 C 0.23393 0.99755 0.73878 0.0
C906 C 0.24678 0.02793 0.76132 0.0
C907 C 0.21071 0.01252 0.71378 0.0
C908 C 0.21406 0.96842 0.75663 0.0
C909 C 0.23098 0.93534 0.75099 0.0
C910 C 0.21833 0.90461 0.76565 0.0
C911 C 0.18765 0.90783 0.78687 0.0
C912 C 0.17012 0.94159 0.79334 0.0
C913 C 0.18342 0.97209 0.77764 0.0
H914 H 0.48204 0.19165 0.80533 0.0
H915 H 0.59632 0.19418 0.82121 0.0
H916 H 0.60758 0.23125 0.77501 0.0
H917 H 0.49387 0.18534 0.71911 0.0
H918 H 0.45528 0.21348 0.71418 0.0
H919 H 0.45612 0.18661 0.74827 0.0
H920 H 0.44462 0.24407 0.78509 0.0
H921 H 0.44382 0.27102 0.75109 0.0
H922 H 0.47463 0.28196 0.78113 0.0
H923 H 0.60626 0.27032 0.72857 0.0
H924 H 0.59268 0.307 0.68397 0.0
H925 H 0.47967 0.27748 0.69652 0.0
C926 C 0.50944 0.19995 0.79906 0.0
C927 C 0.53831 0.18999 0.817 0.0
C928 C 0.57378 0.20128 0.80783 0.0
C929 C 0.58046 0.22242 0.78162 0.0
C930 C 0.55146 0.2318 0.76449 0.0
C931 C 0.51668 0.22073 0.77265 0.0
C932 C 0.4904 0.23457 0.75015 0.0
C933 C 0.47289 0.20312 0.73185 0.0
C934 C 0.46168 0.25938 0.76793 0.0
C935 C 0.51576 0.2556 0.72843 0.0
C936 C 0.55085 0.25365 0.73717 0.0
C937 C 0.57891 0.27182 0.72137 0.0
C938 C 0.57091 0.29267 0.6961 0.0
C939 C 0.53515 0.2951 0.68664 0.0
C940 C 0.50734 0.27595 0.70295 0.0
H941 H 0.13989 0.523 0.69005 0.0
H942 H 0.17859 0.61076 0.63366 0.0
H943 H 0.23343 0.61485 0.66259 0.0
H944 H 0.16252 0.56529 0.75937 0.0
H945 H 0.17576 0.52608 0.77888 0.0
H946 H 0.1433 0.52191 0.7494 0.0
H947 H 0.18203 0.47401 0.7164 0.0
H948 H 0.21451 0.47587 0.74611 0.0
H949 H 0.22877 0.48308 0.70544 0.0
H950 H 0.28095 0.61381 0.7006 0.0
H951 H 0.3146 0.61222 0.74862 0.0
H952 H 0.24233 0.52946 0.78413 0.0
C953 C 0.1604 0.54235 0.68322 0.0
C954 C 0.1557 0.56549 0.6585 0.0
C955 C 0.1824 0.59157 0.65131 0.0
C956 C 0.21366 0.59421 0.66778 0.0
C957 C 0.21748 0.5711 0.69204 0.0
C958 C 0.19141 0.54597 0.70007 0.0
C959 C 0.19926 0.52859 0.73031 0.0
C960 C 0.16836 0.53589 0.75597 0.0
C961 C 0.20659 0.48797 0.72419 0.0
C962 C 0.2332 0.54855 0.73838 0.0
C963 C 0.24372 0.57231 0.71558 0.0
C964 C 0.27322 0.59509 0.71854 0.0
C965 C 0.29211 0.59403 0.7459 0.0
C966 C 0.28092 0.57087 0.77011 0.0
C967 C 0.25149 0.54743 0.76597 0.0
H968 H 0.17364 0.7611 0.10365 0.0
H969 H 0.19413 0.64684 0.08287 0.0
H970 H 0.25969 0.65754 0.08454 0.0
H971 H 0.25211 0.79266 0.05652 0.0
H972 H 0.25998 0.82991 0.08414 0.0
H973 H 0.21481 0.81329 0.08039 0.0
H974 H 0.2084 0.80366 0.14054 0.0
H975 H 0.25358 0.82003 0.14447 0.0
H976 H 0.24113 0.77613 0.15774 0.0
H977 H 0.32243 0.68007 0.09207 0.0
H978 H 0.37863 0.71341 0.10073 0.0
H979 H 0.31756 0.81353 0.11435 0.0
C980 C 0.19191 0.73834 0.09923 0.0
C981 C 0.17879 0.7031 0.09322 0.0
C982 C 0.20359 0.67408 0.08741 0.0
C983 C 0.24085 0.67988 0.08841 0.0
C984 C 0.25283 0.7149 0.09484 0.0
C985 C 0.22916 0.74371 0.09975 0.0
C986 C 0.24902 0.77868 0.1062 0.0
C987 C 0.24366 0.80519 0.08026 0.0
C988 C 0.23733 0.79561 0.1392 0.0
C989 C 0.28757 0.76495 0.10468 0.0
C990 C 0.28913 0.72805 0.09823 0.0
C991 C 0.32159 0.709 0.09682 0.0
C992 C 0.35333 0.72818 0.10194 0.0
C993 C 0.35246 0.76608 0.10812 0.0
C994 C 0.31909 0.78462 0.1094 0.0
H995 H 0.75138 0.18492 0.15357 0.0
H996 H 0.82418 0.17772 0.06879 0.0
H997 H 0.80096 0.23576 0.05299 0.0
H998 H 0.6765 0.22491 0.11921 0.0
H999 H 0.66397 0.25455 0.15322 0.0
H1000 H 0.68605 0.21218 0.15819 0.0
H1001 H 0.73632 0.2455 0.18742 0.0
H1002 H 0.7142 0.28793 0.18284 0.0
H1003 H 0.76075 0.28139 0.16861 0.0
H1004 H 0.76849 0.29305 0.0451 0.0
H1005 H 0.73355 0.34983 0.04865 0.0
H1006 H 0.68351 0.32157 0.13954 0.0
C1007 C 0.76252 0.19565 0.13177 0.0
C1008 C 0.7895 0.17671 0.11238 0.0
C1009 C 0.80357 0.19176 0.0841 0.0
C1010 C 0.79043 0.22463 0.0748 0.0
C1011 C 0.76348 0.24234 0.09417 0.0
C1012 C 0.75004 0.22874 0.12229 0.0
C1013 C 0.72186 0.25384 0.13914 0.0
C1014 C 0.68491 0.23525 0.14264 0.0
C1015 C 0.73402 0.268 0.17141 0.0
C1016 C 0.72159 0.28357 0.11602 0.0
C1017 C 0.7455 0.27614 0.09009 0.0
C1018 C 0.74981 0.29932 0.06537 0.0
C1019 C 0.7297 0.33143 0.06755 0.0
C1020 C 0.70588 0.3402 0.09441 0.0
C1021 C 0.70155 0.31566 0.11874 0.0
H1022 H 0.31076 0.66221 0.35976 0.0
H1023 H 0.36675 0.72076 0.4328 0.0
H1024 H 0.3124 0.75841 0.44639 0.0
H1025 H 0.26275 0.73796 0.33408 0.0
H1026 H 0.22232 0.71271 0.32731 0.0
H1027 H 0.26559 0.69031 0.32348 0.0
H1028 H 0.24249 0.64457 0.36425 0.0
H1029 H 0.19912 0.66678 0.36816 0.0
H1030 H 0.22376 0.66096 0.40268 0.0
H1031 H 0.25187 0.79056 0.45129 0.0
H1032 H 0.18946 0.81305 0.44812 0.0
H1033 H 0.17346 0.73252 0.37252 0.0
C1034 C 0.31164 0.68289 0.37865 0.0
C1035 C 0.34306 0.68852 0.39518 0.0
C1036 C 0.34299 0.7159 0.41979 0.0
C1037 C 0.31226 0.73747 0.42767 0.0
C1038 C 0.28179 0.73129 0.41079 0.0
C1039 C 0.28122 0.70456 0.38689 0.0
C1040 C 0.24506 0.70327 0.37244 0.0
C1041 C 0.24919 0.71157 0.33725 0.0
C1042 C 0.22652 0.66673 0.37718 0.0
C1043 C 0.22536 0.7334 0.39198 0.0
C1044 C 0.24698 0.74939 0.41388 0.0
C1045 C 0.23465 0.77816 0.43428 0.0
C1046 C 0.19922 0.7908 0.43228 0.0
C1047 C 0.17655 0.77448 0.41018 0.0
C1048 C 0.19 0.74546 0.38982 0.0
H1049 H 0.76881 0.32148 0.3512 0.0
H1050 H 0.8207 0.31352 0.43909 0.0
H1051 H 0.78526 0.25873 0.45039 0.0
H1052 H 0.68085 0.29226 0.3787 0.0
H1053 H 0.67283 0.26676 0.34255 0.0
H1054 H 0.70193 0.30554 0.34157 0.0
H1055 H 0.75371 0.26641 0.31354 0.0
H1056 H 0.72472 0.22757 0.31414 0.0
H1057 H 0.76775 0.22607 0.33127 0.0
H1058 H 0.74315 0.20607 0.45261 0.0
H1059 H 0.7021 0.15513 0.44321 0.0
H1060 H 0.67917 0.19656 0.35284 0.0
C1061 C 0.77267 0.30823 0.37283 0.0
C1062 C 0.79726 0.32172 0.39439 0.0
C1063 C 0.80205 0.30342 0.42223 0.0
C1064 C 0.78189 0.2725 0.42893 0.0
C1065 C 0.75746 0.26018 0.40735 0.0
C1066 C 0.75316 0.27715 0.37966 0.0
C1067 C 0.72615 0.25767 0.35985 0.0
C1068 C 0.69351 0.28202 0.35542 0.0
C1069 C 0.74417 0.24359 0.32781 0.0
C1070 C 0.71581 0.22708 0.3808 0.0
C1071 C 0.7339 0.22925 0.40822 0.0
C1072 C 0.7289 0.204 0.4312 0.0
C1073 C 0.70539 0.17524 0.42567 0.0
C1074 C 0.68744 0.17183 0.39725 0.0
C1075 C 0.69243 0.19844 0.37479 0.0
H1076 H 0.6999 0.16866 0.86142 0.0
H1077 H 0.64456 0.20544 0.95087 0.0
H1078 H 0.69577 0.24535 0.96184 0.0
H1079 H 0.79123 0.16975 0.88938 0.0
H1080 H 0.81128 0.18508 0.8526 0.0
H1081 H 0.77116 0.15782 0.8528 0.0
H1082 H 0.73878 0.20708 0.82397 0.0
H1083 H 0.77863 0.23465 0.82402 0.0
H1084 H 0.7361 0.25255 0.84117 0.0
H1085 H 0.75081 0.28473 0.96119 0.0
H1086 H 0.80824 0.31706 0.95089 0.0
H1087 H 0.82811 0.25351 0.86253 0.0
C1088 C 0.69875 0.18468 0.88353 0.0
C1089 C 0.6682 0.18389 0.90527 0.0
C1090 C 0.66772 0.20545 0.93388 0.0
C1091 C 0.69663 0.22831 0.9403 0.0
C1092 C 0.72594 0.22908 0.91802 0.0
C1093 C 0.72744 0.2075 0.8904 0.0
C1094 C 0.76177 0.21393 0.87011 0.0
C1095 C 0.78525 0.1796 0.86599 0.0
C1096 C 0.7533 0.22789 0.83792 0.0
C1097 C 0.77905 0.24288 0.89041 0.0
C1098 C 0.75792 0.25133 0.91791 0.0
C1099 C 0.76775 0.27812 0.93988 0.0
C1100 C 0.8003 0.29647 0.93374 0.0
C1101 C 0.82267 0.28772 0.90597 0.0
C1102 C 0.81171 0.26064 0.88407 0.0
H1103 H 0.30823 0.68147 0.86926 0.0
H1104 H 0.2498 0.65492 0.95712 0.0
H1105 H 0.22326 0.71609 0.9622 0.0
H1106 H 0.3237 0.77918 0.89218 0.0
H1107 H 0.31744 0.79221 0.85261 0.0
H1108 H 0.3365 0.74866 0.85882 0.0
H1109 H 0.28687 0.71807 0.82687 0.0
H1110 H 0.2673 0.76132 0.821 0.0
H1111 H 0.24002 0.72682 0.839 0.0
H1112 H 0.19549 0.77549 0.95308 0.0
H1113 H 0.17232 0.83153 0.93295 0.0
H1114 H 0.24978 0.82022 0.85157 0.0
C1115 C 0.29069 0.68883 0.89007 0.0
C1116 C 0.28103 0.6634 0.91278 0.0
C1117 C 0.2577 0.67397 0.93949 0.0
C1118 C 0.24247 0.70867 0.94257 0.0
C1119 C 0.25131 0.73253 0.919 0.0
C1120 C 0.2754 0.72333 0.89355 0.0
C1121 C 0.27815 0.75284 0.8702 0.0
C1122 C 0.31621 0.7692 0.86836 0.0
C1123 C 0.26743 0.73892 0.83734 0.0
C1124 C 0.25061 0.77938 0.88576 0.0
C1125 C 0.23567 0.76728 0.91402 0.0
C1126 C 0.20752 0.78565 0.93137 0.0
C1127 C 0.19436 0.81727 0.91959 0.0
C1128 C 0.20941 0.83023 0.89078 0.0
C1129 C 0.23815 0.8112 0.87389 0.0
H1130 H 0.7983 0.19553 0.5961 0.0
H1131 H 0.85935 0.29488 0.59081 0.0
H1132 H 0.80321 0.32873 0.58485 0.0
H1133 H 0.73032 0.2179 0.5406 0.0
H1134 H 0.69404 0.19741 0.56364 0.0
H1135 H 0.73944 0.18023 0.56402 0.0
H1136 H 0.73601 0.18913 0.62514 0.0
H1137 H 0.69067 0.2063 0.62494 0.0
H1138 H 0.72464 0.23298 0.64347 0.0
H1139 H 0.74022 0.35247 0.58223 0.0
H1140 H 0.67453 0.36466 0.58632 0.0
H1141 H 0.65411 0.25042 0.59541 0.0
C1142 C 0.79986 0.22429 0.59309 0.0
C1143 C 0.83319 0.24255 0.5937 0.0
C1144 C 0.83409 0.28033 0.59041 0.0
C1145 C 0.80237 0.2998 0.58685 0.0
C1146 C 0.76986 0.28115 0.58679 0.0
C1147 C 0.76831 0.24427 0.58995 0.0
C1148 C 0.72957 0.23126 0.5916 0.0
C1149 C 0.72297 0.20516 0.56327 0.0
C1150 C 0.71965 0.21391 0.62317 0.0
C1151 C 0.70966 0.26665 0.58955 0.0
C1152 C 0.73341 0.29502 0.58624 0.0
C1153 C 0.72134 0.33044 0.58464 0.0
C1154 C 0.68398 0.33711 0.58695 0.0
C1155 C 0.65916 0.30855 0.59124 0.0
C1156 C 0.67235 0.27286 0.59213 0.0
H1157 H 0.26675 0.81396 0.65272 0.0
H1158 H 0.36614 0.81282 0.59239 0.0
H1159 H 0.35255 0.75109 0.57217 0.0
H1160 H 0.2664 0.71546 0.66862 0.0
H1161 H 0.218 0.71359 0.66744 0.0
H1162 H 0.2392 0.75452 0.68135 0.0
H1163 H 0.20739 0.78969 0.63987 0.0
H1164 H 0.18676 0.74891 0.62535 0.0
H1165 H 0.21404 0.77548 0.59859 0.0
H1166 H 0.32382 0.69306 0.5533 0.0
H1167 H 0.28372 0.64215 0.53967 0.0
H1168 H 0.2029 0.68355 0.61136 0.0
C1169 C 0.28627 0.80037 0.636 0.0
C1170 C 0.31743 0.81815 0.6241 0.0
C1171 C 0.3421 0.7996 0.60192 0.0
C1172 C 0.33462 0.76455 0.59028 0.0
C1173 C 0.30263 0.74849 0.60135 0.0
C1174 C 0.27914 0.76562 0.62409 0.0
C1175 C 0.24504 0.74417 0.62998 0.0
C1176 C 0.242 0.73116 0.66386 0.0
C1177 C 0.21135 0.76586 0.62301 0.0
C1178 C 0.25226 0.71312 0.60599 0.0
C1179 C 0.28582 0.71563 0.59005 0.0
C1180 C 0.29768 0.69055 0.56593 0.0
C1181 C 0.27469 0.66193 0.55822 0.0
C1182 C 0.24017 0.65916 0.57428 0.0
C1183 C 0.22901 0.68512 0.59843 0.0
H1184 H 0.97074 0.43303 0.97365 0.0
H1185 H 0.90847 0.49283 0.91083 0.0
H1186 H 0.93343 0.54981 0.93214 0.0
H1187 H 0.95928 0.49432 0.03958 0.0
H1188 H 0.00424 0.49044 0.05257 0.0
H1189 H 0.98459 0.45314 0.0311 0.0
H1190 H 0.03784 0.45138 0.98755 0.0
H1191 H 0.05848 0.48646 0.01106 0.0
H1192 H 0.05146 0.49313 0.97029 0.0
H1193 H 0.96105 0.60039 0.96268 0.0
H1194 H 0.9906 0.64158 0.00054 0.0
H1195 H 0.03768 0.5498 0.04197 0.0
C1196 C 0.96255 0.45812 0.96429 0.0
C1197 C 0.93776 0.45849 0.94043 0.0
C1198 C 0.92767 0.49188 0.92884 0.0
C1199 C 0.9417 0.52439 0.9408 0.0
C1200 C 0.96605 0.52315 0.96422 0.0
C1201 C 0.97664 0.49094 0.97577 0.0
C1202 C 0.00237 0.49748 0.00175 0.0
C1203 C 0.98668 0.48302 0.03311 0.0
C1204 C 0.03974 0.48105 0.99206 0.0
C1205 C 0.00399 0.53834 0.0033 0.0
C1206 C 0.98286 0.55255 0.98139 0.0
C1207 C 0.97823 0.58962 0.97954 0.0
C1208 C 0.99519 0.61279 0.00098 0.0
C1209 C 0.017 0.59884 0.02355 0.0
C1210 C 0.02207 0.56116 0.02424 0.0
H1211 H 0.0059 0.9718 0.92413 0.0
H1212 H 0.10076 0.94957 0.97418 0.0
H1213 H 0.06928 0.97386 0.02412 0.0
H1214 H 0.98369 0.05334 0.96165 0.0
H1215 H 0.93541 0.0475 0.96376 0.0
H1216 H 0.9632 0.02404 0.93284 0.0
H1217 H 0.93716 0.96253 0.94952 0.0
H1218 H 0.90844 0.98581 0.98003 0.0
H1219 H 0.93837 0.95054 0.99006 0.0
H1220 H 0.03142 0.0111 0.06585 0.0
H1221 H 0.98553 0.04706 0.09886 0.0
H1222 H 0.91394 0.03976 0.02218 0.0
C1223 C 0.01961 0.97103 0.94581 0.0
C1224 C 0.05563 0.95882 0.94545 0.0
C1225 C 0.07294 0.95843 0.97412 0.0
C1226 C 0.05539 0.97243 0.0025 0.0
C1227 C 0.02039 0.98588 0.00175 0.0
C1228 C 0.00231 0.98424 0.97432 0.0
C1229 C 0.96532 0.00149 0.97947 0.0
C1230 C 0.96173 0.03348 0.95818 0.0
C1231 C 0.93556 0.97341 0.97448 0.0
C1232 C 0.96581 0.01412 0.01385 0.0
C1233 C 0.99789 0.00525 0.02626 0.0
C1234 C 0.00571 0.01713 0.05672 0.0
C1235 C 0.97954 0.03764 0.07525 0.0
C1236 C 0.9456 0.04505 0.06357 0.0
C1237 C 0.93912 0.03357 0.03224 0.0
H1238 H 0.55026 0.0396 0.9555 0.0
H1239 H 0.4537 0.1048 0.9776 0.0
H1240 H 0.43025 0.06015 0.0146 0.0
H1241 H 0.50668 0.95475 0.95603 0.0
H1242 H 0.54206 0.93176 0.97414 0.0
H1243 H 0.55274 0.96987 0.95072 0.0
H1244 H 0.58267 0.00192 0.99789 0.0
H1245 H 0.57243 0.96369 0.02132 0.0
H1246 H 0.55728 0.00813 0.03557 0.0
H1247 H 0.41563 0.00702 0.04756 0.0
H1248 H 0.41278 0.95049 0.07604 0.0
H1249 H 0.51838 0.91966 0.03237 0.0
C1250 C 0.52449 0.04477 0.96854 0.0
C1251 C 0.50392 0.07583 0.96364 0.0
C1252 C 0.47007 0.08131 0.98093 0.0
C1253 C 0.45643 0.05605 0.00203 0.0
C1254 C 0.4769 0.02534 0.00575 0.0
C1255 C 0.51037 0.01971 0.98975 0.0
C1256 C 0.52647 0.98398 0.99761 0.0
C1257 C 0.53232 0.9586 0.96785 0.0
C1258 C 0.5618 0.98979 0.01408 0.0
C1259 C 0.4967 0.97037 0.02019 0.0
C1260 C 0.46836 0.99462 0.02462 0.0
C1261 C 0.43774 0.98784 0.04437 0.0
C1262 C 0.43628 0.95561 0.06036 0.0
C1263 C 0.46521 0.93051 0.05643 0.0
C1264 C 0.49565 0.93811 0.03585 0.0
H1265 H 0.57003 0.47715 0.00226 0.0
H1266 H 0.54635 0.46571 0.10233 0.0
H1267 H 0.48697 0.49486 0.09948 0.0
H1268 H 0.52081 0.56352 0.99448 0.0
H1269 H 0.50466 0.54809 0.9572 0.0
H1270 H 0.54751 0.53223 0.96876 0.0
H1271 H 0.526 0.46581 0.96126 0.0
H1272 H 0.48425 0.4826 0.94886 0.0
H1273 H 0.48386 0.45268 0.98102 0.0
H1274 H 0.42652 0.51375 0.0836 0.0
H1275 H 0.37065 0.52225 0.05617 0.0
H1276 H 0.43473 0.52704 0.96713 0.0
C1277 C 0.55264 0.48184 0.02365 0.0
C1278 C 0.56314 0.47071 0.05288 0.0
C1279 C 0.53946 0.47595 0.08023 0.0
C1280 C 0.50553 0.49211 0.07867 0.0
C1281 C 0.49579 0.50282 0.04944 0.0
C1282 C 0.51876 0.49809 0.02242 0.0
C1283 C 0.50044 0.50817 0.99338 0.0
C1284 C 0.5195 0.5399 0.97755 0.0
C1285 C 0.49848 0.47534 0.9698 0.0
C1286 C 0.4634 0.51887 0.00822 0.0
C1287 C 0.46113 0.51534 0.04055 0.0
C1288 C 0.42815 0.51783 0.05849 0.0
C1289 C 0.39656 0.52273 0.04279 0.0
C1290 C 0.39837 0.52579 0.00966 0.0
C1291 C 0.43245 0.52559 0.99257 0.0
H1292 H 0.9289 0.04772 0.55223 0.0
H1293 H 0.00855 0.12013 0.51106 0.0
H1294 H 0.03453 0.07012 0.47649 0.0
H1295 H 0.98514 0.97505 0.55622 0.0
H1296 H 0.95417 0.94003 0.54508 0.0
H1297 H 0.93713 0.98209 0.56334 0.0
H1298 H 0.89831 0.99192 0.5158 0.0
H1299 H 0.91436 0.94911 0.49809 0.0
H1300 H 0.91969 0.98928 0.47628 0.0
H1301 H 0.05811 0.012 0.45283 0.0
H1302 H 0.07304 0.94912 0.43528 0.0
H1303 H 0.97749 0.91268 0.48913 0.0
C1304 C 0.9508 0.05323 0.53499 0.0
C1305 C 0.9666 0.0879 0.53421 0.0
C1306 C 0.99598 0.09385 0.512 0.0
C1307 C 0.011 0.06558 0.49227 0.0
C1308 C 0.99613 0.03141 0.49465 0.0
C1309 C 0.96615 0.02509 0.51479 0.0
C1310 C 0.95708 0.9851 0.5137 0.0
C1311 C 0.95848 0.96967 0.54654 0.0
C1312 C 0.92015 0.97847 0.50018 0.0
C1313 C 0.98751 0.97005 0.49093 0.0
C1314 C 0.00957 0.99738 0.48022 0.0
C1315 C 0.04067 0.99036 0.46053 0.0
C1316 C 0.04914 0.95448 0.45095 0.0
C1317 C 0.02647 0.92595 0.46079 0.0
C1318 C 0.99523 0.93395 0.4811 0.0
H1319 H 0.44043 0.93729 0.54368 0.0
H1320 H 0.37872 0.03668 0.55349 0.0
H1321 H 0.42162 0.06408 0.51421 0.0
H1322 H 0.52334 0.97739 0.54429 0.0
H1323 H 0.54658 0.94559 0.51637 0.0
H1324 H 0.5075 0.93162 0.53993 0.0
H1325 H 0.47668 0.91068 0.48951 0.0
H1326 H 0.51507 0.92465 0.46496 0.0
H1327 H 0.47093 0.94196 0.45913 0.0
H1328 H 0.475 0.08165 0.47701 0.0
H1329 H 0.53338 0.08763 0.44558 0.0
H1330 H 0.56222 0.97877 0.46725 0.0
C1331 C 0.43531 0.9643 0.5365 0.0
C1332 C 0.406 0.98469 0.55046 0.0
C1333 C 0.40068 0.02054 0.54202 0.0
C1334 C 0.42491 0.03624 0.51991 0.0
C1335 C 0.45447 0.01577 0.50718 0.0
C1336 C 0.45966 0.98056 0.51524 0.0
C1337 C 0.49527 0.96547 0.50113 0.0
C1338 C 0.51959 0.95439 0.52697 0.0
C1339 C 0.48912 0.93382 0.47729 0.0
C1340 C 0.50996 0.99798 0.48474 0.0
C1341 C 0.48586 0.02652 0.48774 0.0
C1342 C 0.49393 0.05931 0.47428 0.0
C1343 C 0.52721 0.06257 0.4567 0.0
C1344 C 0.55216 0.03345 0.4535 0.0
C1345 C 0.54349 0.00123 0.46844 0.0
H1346 H 0.5427 0.46023 0.55721 0.0
H1347 H 0.44017 0.40428 0.55444 0.0
H1348 H 0.4197 0.44721 0.51723 0.0
H1349 H 0.50454 0.55166 0.55181 0.0
H1350 H 0.5428 0.56646 0.52742 0.0
H1351 H 0.54865 0.53266 0.55564 0.0
H1352 H 0.5777 0.49052 0.51111 0.0
H1353 H 0.57086 0.52278 0.48188 0.0
H1354 H 0.55272 0.47774 0.47749 0.0
H1355 H 0.41042 0.49503 0.47906 0.0
H1356 H 0.41415 0.54338 0.44115 0.0
H1357 H 0.5227 0.56823 0.46746 0.0
C1358 C 0.5159 0.45713 0.5489 0.0
C1359 C 0.49323 0.42862 0.55876 0.0
C1360 C 0.45827 0.42566 0.54725 0.0
C1361 C 0.44622 0.45007 0.52614 0.0
C1362 C 0.46923 0.47765 0.51675 0.0
C1363 C 0.50325 0.48149 0.52783 0.0
C1364 C 0.52291 0.51298 0.51316 0.0
C1365 C 0.53014 0.5427 0.53852 0.0
C1366 C 0.55814 0.50027 0.49477 0.0
C1367 C 0.49512 0.52531 0.49128 0.0
C1368 C 0.46408 0.50497 0.49422 0.0
C1369 C 0.43455 0.51125 0.4766 0.0
C1370 C 0.43688 0.53885 0.45515 0.0
C1371 C 0.46863 0.5597 0.45125 0.0
C1372 C 0.49798 0.55285 0.46984 0.0
H1373 H 0.02837 0.54579 0.54635 0.0
H1374 H 0.12896 0.53066 0.48866 0.0
H1375 H 0.09696 0.49479 0.44873 0.0
H1376 H 0.9903 0.45905 0.53145 0.0
H1377 H 0.94524 0.47645 0.53002 0.0
H1378 H 0.97713 0.50059 0.5532 0.0
H1379 H 0.96445 0.55723 0.5219 0.0
H1380 H 0.93442 0.53211 0.49748 0.0
H1381 H 0.97268 0.55511 0.47955 0.0
H1382 H 0.05586 0.45618 0.41818 0.0
H1383 H 0.00589 0.42396 0.39396 0.0
H1384 H 0.93102 0.46642 0.47014 0.0
C1385 C 0.04348 0.5352 0.52511 0.0
C1386 C 0.081 0.54081 0.5204 0.0
C1387 C 0.1001 0.52675 0.49246 0.0
C1388 C 0.08224 0.50624 0.4698 0.0
C1389 C 0.04533 0.50055 0.47543 0.0
C1390 C 0.02598 0.51515 0.50205 0.0
C1391 C 0.98638 0.50546 0.50199 0.0
C1392 C 0.97409 0.48415 0.53091 0.0
C1393 C 0.9631 0.53949 0.5001 0.0
C1394 C 0.98679 0.48198 0.47174 0.0
C1395 C 0.02113 0.47947 0.45692 0.0
C1396 C 0.02874 0.45829 0.42928 0.0
C1397 C 0.00023 0.44003 0.41581 0.0
C1398 C 0.96462 0.44302 0.43005 0.0
C1399 C 0.95795 0.46381 0.45867 0.0
H1400 H 0.04156 0.48652 0.29768 0.0
H1401 H 0.9932 0.39558 0.24859 0.0
H1402 H 0.01406 0.41956 0.19754 0.0
H1403 H 0.0072 0.54661 0.25945 0.0
H1404 H 0.04383 0.57844 0.25701 0.0
H1405 H 0.04103 0.54769 0.28803 0.0
H1406 H 0.10535 0.5237 0.27102 0.0
H1407 H 0.10864 0.55503 0.23988 0.0
H1408 H 0.11624 0.50755 0.23069 0.0
H1409 H 0.02147 0.46134 0.15416 0.0
H1410 H 0.01294 0.51605 0.12459 0.0
H1411 H 0.05191 0.58198 0.20193 0.0
C1412 C 0.03702 0.47071 0.27617 0.0
C1413 C 0.01552 0.43945 0.27706 0.0
C1414 C 0.00974 0.41959 0.24851 0.0
C1415 C 0.02163 0.43303 0.21932 0.0
C1416 C 0.03957 0.46608 0.21914 0.0
C1417 C 0.04786 0.48437 0.24701 0.0
C1418 C 0.05937 0.52274 0.24142 0.0
C1419 C 0.03645 0.55042 0.26269 0.0
C1420 C 0.09981 0.52752 0.24601 0.0
C1421 C 0.05201 0.52455 0.20697 0.0
C1422 C 0.04264 0.49114 0.19397 0.0
C1423 C 0.02991 0.48732 0.16374 0.0
C1424 C 0.02508 0.51847 0.14708 0.0
C1425 C 0.032 0.55279 0.16123 0.0
C1426 C 0.04706 0.5557 0.19073 0.0
H1427 H 0.99516 0.96474 0.34782 0.0
H1428 H 0.07607 0.89799 0.29467 0.0
H1429 H 0.08408 0.94418 0.25502 0.0
H1430 H 0.9508 0.98333 0.28627 0.0
H1431 H 0.93747 0.02905 0.29808 0.0
H1432 H 0.94708 0.99822 0.32751 0.0
H1433 H 0.99485 0.04212 0.34897 0.0
H1434 H 0.98526 0.07337 0.31947 0.0
H1435 H 0.03086 0.05784 0.32253 0.0
H1436 H 0.07327 0.9885 0.21586 0.0
H1437 H 0.0416 0.02395 0.1788 0.0
H1438 H 0.96525 0.06172 0.25545 0.0
C1439 C 0.01597 0.96108 0.32872 0.0
C1440 C 0.03588 0.92863 0.32455 0.0
C1441 C 0.06135 0.92325 0.29845 0.0
C1442 C 0.06611 0.94941 0.27595 0.0
C1443 C 0.04483 0.98057 0.27974 0.0
C1444 C 0.02023 0.98658 0.30557 0.0
C1445 C 0.99534 0.01796 0.3008 0.0
C1446 C 0.95536 0.00641 0.30328 0.0
C1447 C 0.00199 0.04971 0.32434 0.0
C1448 C 0.00793 0.0268 0.26736 0.0
C1449 C 0.03742 0.00589 0.25613 0.0
C1450 C 0.05081 0.00571 0.2246 0.0
C1451 C 0.03259 0.02592 0.20366 0.0
C1452 C 0.00098 0.04565 0.21423 0.0
C1453 C 0.98975 0.04752 0.24679 0.0
H1454 H 0.5731 0.04613 0.28966 0.0
H1455 H 0.50823 0.97648 0.34923 0.0
H1456 H 0.47087 0.96035 0.3047 0.0
H1457 H 0.49979 0.07103 0.23432 0.0
H1458 H 0.53241 0.06795 0.20078 0.0
H1459 H 0.54613 0.08333 0.23914 0.0
H1460 H 0.59565 0.03369 0.23549 0.0
H1461 H 0.58212 0.01825 0.19739 0.0
H1462 H 0.58298 0.9872 0.22859 0.0
H1463 H 0.44989 0.94169 0.25283 0.0
H1464 H 0.45037 0.91785 0.19761 0.0
H1465 H 0.53061 0.99717 0.17012 0.0
C1466 C 0.54984 0.02894 0.2936 0.0
C1467 C 0.54285 0.01307 0.32283 0.0
C1468 C 0.51349 0.98924 0.327 0.0
C1469 C 0.49204 0.98017 0.30192 0.0
C1470 C 0.50055 0.99498 0.27281 0.0
C1471 C 0.52882 0.01892 0.2685 0.0
C1472 C 0.53718 0.02514 0.23376 0.0
C1473 C 0.52833 0.06419 0.22659 0.0
C1474 C 0.57679 0.01546 0.22322 0.0
C1475 C 0.51107 0.99897 0.2191 0.0
C1476 C 0.48922 0.98294 0.24207 0.0
C1477 C 0.46619 0.95463 0.2346 0.0
C1478 C 0.46674 0.94117 0.20314 0.0
C1479 C 0.49055 0.9557 0.17962 0.0
C1480 C 0.51163 0.98605 0.1875 0.0
H1481 H 0.44681 0.56091 0.27817 0.0
H1482 H 0.48027 0.48194 0.34156 0.0
H1483 H 0.50001 0.44101 0.29599 0.0
H1484 H 0.42823 0.49354 0.20612 0.0
H1485 H 0.44792 0.52552 0.17952 0.0
H1486 H 0.42225 0.54124 0.21527 0.0
H1487 H 0.47663 0.58003 0.23111 0.0
H1488 H 0.50261 0.56413 0.19605 0.0
H1489 H 0.51977 0.55852 0.23421 0.0
H1490 H 0.53225 0.41787 0.24672 0.0
H1491 H 0.57445 0.4153 0.19919 0.0
H1492 H 0.52377 0.51066 0.16685 0.0
C1493 C 0.45585 0.53389 0.2822 0.0
C1494 C 0.46107 0.52388 0.31309 0.0
C1495 C 0.47516 0.48942 0.31794 0.0
C1496 C 0.48646 0.46607 0.29214 0.0
C1497 C 0.48378 0.47779 0.26168 0.0
C1498 C 0.46831 0.51084 0.25655 0.0
C1499 C 0.47625 0.52101 0.22266 0.0
C1500 C 0.44159 0.52026 0.20484 0.0
C1501 C 0.49494 0.55806 0.22096 0.0
C1502 C 0.50146 0.4905 0.21054 0.0
C1503 C 0.50419 0.46501 0.23287 0.0
C1504 C 0.52952 0.43703 0.22867 0.0
C1505 C 0.55352 0.43582 0.2016 0.0
C1506 C 0.55245 0.46289 0.17943 0.0
C1507 C 0.52504 0.48951 0.18337 0.0
H1508 H 0.01448 0.60379 0.71325 0.0
H1509 H 0.94541 0.56253 0.64159 0.0
H1510 H 0.89952 0.54666 0.68333 0.0
H1511 H 0.00571 0.53518 0.75732 0.0
H1512 H 0.00611 0.55845 0.79566 0.0
H1513 H 0.0271 0.57859 0.76169 0.0
H1514 H 0.98728 0.63578 0.77325 0.0
H1515 H 0.96627 0.61587 0.80772 0.0
H1516 H 0.93884 0.63159 0.77778 0.0
H1517 H 0.86964 0.52073 0.73088 0.0
H1518 H 0.85954 0.48654 0.77887 0.0
H1519 H 0.9486 0.54287 0.82014 0.0
C1520 C 0.98886 0.59328 0.70629 0.0
C1521 C 0.98339 0.58468 0.67417 0.0
C1522 C 0.95003 0.56968 0.66605 0.0
C1523 C 0.92374 0.56067 0.68966 0.0
C1524 C 0.93111 0.567 0.72127 0.0
C1525 C 0.96276 0.58347 0.72962 0.0
C1526 C 0.96771 0.58083 0.76457 0.0
C1527 C 0.00375 0.56213 0.77008 0.0
C1528 C 0.96484 0.61825 0.78185 0.0
C1529 C 0.93559 0.55773 0.77401 0.0
C1530 C 0.91405 0.55113 0.74903 0.0
C1531 C 0.88569 0.52654 0.75085 0.0
C1532 C 0.88019 0.50711 0.77824 0.0
C1533 C 0.90333 0.51197 0.80326 0.0
C1534 C 0.93014 0.5389 0.80161 0.0
H1535 H 0.9247 0.09021 0.72429 0.0
H1536 H 0.9536 0.02596 0.63831 0.0
H1537 H 0.95909 0.97218 0.6692 0.0
H1538 H 0.98578 0.06522 0.76433 0.0
H1539 H 0.9625 0.0625 0.80285 0.0
H1540 H 0.94486 0.09072 0.7748 0.0
H1541 H 0.88374 0.05732 0.77896 0.0
H1542 H 0.90108 0.029 0.80775 0.0
H1543 H 0.88257 0.00892 0.77284 0.0
H1544 H 0.98383 0.93409 0.70825 0.0
H1545 H 0.02103 0.91559 0.75058 0.0
H1546 H 0.9749 0.0026 0.81257 0.0
C1547 C 0.92988 0.06422 0.71199 0.0
C1548 C 0.9388 0.06205 0.67919 0.0
C1549 C 0.94623 0.02805 0.66349 0.0
C1550 C 0.94943 0.9973 0.68094 0.0
C1551 C 0.94412 0.00094 0.71386 0.0
C1552 C 0.93317 0.03344 0.72921 0.0
C1553 C 0.93629 0.03268 0.76454 0.0
C1554 C 0.95873 0.06461 0.7773 0.0
C1555 C 0.89868 0.03191 0.78205 0.0
C1556 C 0.95552 0.99694 0.7661 0.0
C1557 C 0.95833 0.97817 0.73695 0.0
C1558 C 0.9806 0.94777 0.73143 0.0
C1559 C 0.00179 0.93745 0.75562 0.0
C1560 C 0.0009 0.95788 0.78474 0.0
C1561 C 0.97584 0.98644 0.79054 0.0
H1562 H 0.5215 0.00409 0.66653 0.0
H1563 H 0.47209 0.91117 0.70867 0.0
H1564 H 0.506 0.9227 0.75584 0.0
H1565 H 0.61016 0.00518 0.71671 0.0
H1566 H 0.60772 0.05375 0.71861 0.0
H1567 H 0.59654 0.02839 0.6832 0.0
H1568 H 0.5347 0.06096 0.68607 0.0
H1569 H 0.54534 0.08582 0.72121 0.0
H1570 H 0.50492 0.05888 0.72141 0.0
H1571 H 0.52226 0.95635 0.80359 0.0
H1572 H 0.51833 0.00668 0.84399 0.0
H1573 H 0.55601 0.08025 0.77354 0.0
C1574 C 0.51972 0.98504 0.68502 0.0
C1575 C 0.49408 0.95713 0.68427 0.0
C1576 C 0.49182 0.93265 0.70868 0.0
C1577 C 0.5111 0.93907 0.73568 0.0
C1578 C 0.53289 0.9697 0.73758 0.0
C1579 C 0.53821 0.99178 0.71229 0.0
C1580 C 0.55507 0.02733 0.72235 0.0
C1581 C 0.59473 0.02872 0.70946 0.0
C1582 C 0.53366 0.06008 0.71222 0.0
C1583 C 0.55254 0.02432 0.75784 0.0
C1584 C 0.5421 0.99003 0.76611 0.0
C1585 C 0.53175 0.9828 0.79746 0.0
C1586 C 0.52958 0.01154 0.82036 0.0
C1587 C 0.53696 0.04703 0.81151 0.0
C1588 C 0.55083 0.05301 0.78056 0.0
H1589 H 0.39797 0.54079 0.80141 0.0
H1590 H 0.43654 0.48274 0.87849 0.0
H1591 H 0.48433 0.45474 0.84233 0.0
H1592 H 0.39981 0.47288 0.74978 0.0
H1593 H 0.4142 0.4962 0.71492 0.0
H1594 H 0.39156 0.52061 0.74803 0.0
H1595 H 0.44535 0.56486 0.75048 0.0
H1596 H 0.46831 0.54035 0.71712 0.0
H1597 H 0.49036 0.54762 0.75342 0.0
H1598 H 0.51466 0.42088 0.79735 0.0
H1599 H 0.52372 0.38356 0.74765 0.0
H1600 H 0.46809 0.46358 0.69836 0.0
C1601 C 0.41745 0.52341 0.81101 0.0
C1602 C 0.41344 0.51392 0.84287 0.0
C1603 C 0.43895 0.49041 0.85428 0.0
C1604 C 0.4665 0.47463 0.83387 0.0
C1605 C 0.46846 0.48296 0.80214 0.0
C1606 C 0.44483 0.50722 0.7908 0.0
C1607 C 0.44798 0.50649 0.755 0.0
C1608 C 0.41124 0.49853 0.74117 0.0
C1609 C 0.46397 0.54194 0.74332 0.0
C1610 C 0.47444 0.47558 0.74791 0.0
C1611 C 0.48696 0.46326 0.77545 0.0
C1612 C 0.50632 0.43105 0.77555 0.0
C1613 C 0.51134 0.40999 0.74727 0.0
C1614 C 0.49728 0.4214 0.71937 0.0
C1615 C 0.48037 0.45533 0.71927 0.0
loop_
_geom_bond_atom_site_label_1
_geom_bond_atom_site_label_2
_geom_bond_distance
_geom_bond_site_symmetry_2
_ccdc_geom_bond_type
Zn0 O6 1.969 . S
Zn0 O7 1.965 . S
Zn0 O11 2.024 . S
Zn0 O16 1.969 . S
Zn1 O8 1.969 . S
Zn1 O14 1.969 1_455 S
Zn1 O15 1.965 . S
Zn1 O17 2.024 . S
C2 O3 1.229 . S
C2 O11 1.058 . S
O3 C2 1.229 . S
C4 O5 1.229 . S
C4 O17 1.058 . S
O5 C4 1.229 . S
O6 Zn0 1.969 . S
O6 C9 1.267 . S
O7 Zn0 1.965 . S
O7 C18 1.260 . S
O8 Zn1 1.969 . S
O8 C18 1.258 . S
C9 O6 1.267 . S
C9 O10 1.228 . S
O10 C9 1.228 . S
O11 Zn0 2.024 . S
O11 C2 1.058 . S
C12 O13 1.228 . S
C12 O14 1.267 . S
O13 C12 1.228 . S
O14 Zn1 1.969 1_655 S
O14 C12 1.267 . S
O15 Zn1 1.965 . S
O15 C19 1.260 . S
O16 Zn0 1.969 . S
O16 C19 1.258 . S
O17 Zn1 2.024 . S
O17 C4 1.058 . S
C18 O7 1.260 . S
C18 O8 1.258 . S
C19 O15 1.260 . S
C19 O16 1.258 . S
Zn20 O26 1.969 . S
Zn20 O27 1.965 . S
Zn20 O31 2.024 . S
Zn20 O36 1.969 . S
Zn21 O28 1.969 . S
Zn21 O34 1.969 1_545 S
Zn21 O35 1.965 . S
Zn21 O37 2.024 . S
C22 O23 1.229 . S
C22 O31 1.058 . S
O23 C22 1.229 . S
C24 O25 1.229 . S
C24 O37 1.058 . S
O25 C24 1.229 . S
O26 Zn20 1.969 . S
O26 C29 1.267 . S
O27 Zn20 1.965 . S
O27 C38 1.260 . S
O28 Zn21 1.969 . S
O28 C38 1.258 . S
C29 O26 1.267 . S
C29 O30 1.228 . S
O30 C29 1.228 . S
O31 Zn20 2.024 . S
O31 C22 1.058 . S
C32 O33 1.228 . S
C32 O34 1.267 . S
O33 C32 1.228 . S
O34 Zn21 1.969 1_565 S
O34 C32 1.267 . S
O35 Zn21 1.965 . S
O35 C39 1.260 . S
O36 Zn20 1.969 . S
O36 C39 1.258 . S
O37 Zn21 2.024 . S
O37 C24 1.058 . S
C38 O27 1.260 . S
C38 O28 1.258 . S
C39 O35 1.260 . S
C39 O36 1.258 . S
Zn40 O46 1.969 . S
Zn40 O47 1.965 . S
Zn40 O51 2.024 . S
Zn40 O56 1.969 . S
Zn41 O48 1.969 . S
Zn41 O54 1.969 . S
Zn41 O55 1.965 . S
Zn41 O57 2.024 . S
C42 O43 1.229 . S
C42 O51 1.058 . S
O43 C42 1.229 . S
C44 O45 1.229 . S
C44 O57 1.058 . S
O45 C44 1.229 . S
O46 Zn40 1.969 . S
O46 C49 1.267 . S
O47 Zn40 1.965 . S
O47 C58 1.260 . S
O48 Zn41 1.969 . S
O48 C58 1.258 . S
C49 O46 1.267 . S
C49 O50 1.228 . S
O50 C49 1.228 . S
O51 Zn40 2.024 . S
O51 C42 1.058 . S
C52 O53 1.228 . S
C52 O54 1.267 . S
O53 C52 1.228 . S
O54 Zn41 1.969 . S
O54 C52 1.267 . S
O55 Zn41 1.965 . S
O55 C59 1.260 . S
O56 Zn40 1.969 . S
O56 C59 1.258 . S
O57 Zn41 2.024 . S
O57 C44 1.058 . S
C58 O47 1.260 . S
C58 O48 1.258 . S
C59 O55 1.260 . S
C59 O56 1.258 . S
Zn60 O66 1.969 . S
Zn60 O67 1.965 . S
Zn60 O71 2.024 . S
Zn60 O76 1.969 . S
Zn61 O68 1.969 . S
Zn61 O74 1.969 . S
Zn61 O75 1.965 . S
Zn61 O77 2.024 . S
C62 O63 1.229 . S
C62 O71 1.058 . S
O63 C62 1.229 . S
C64 O65 1.229 . S
C64 O77 1.058 . S
O65 C64 1.229 . S
O66 Zn60 1.969 . S
O66 C69 1.267 . S
O67 Zn60 1.965 . S
O67 C78 1.260 . S
O68 Zn61 1.969 . S
O68 C78 1.258 . S
C69 O66 1.267 . S
C69 O70 1.228 . S
O70 C69 1.228 . S
O71 Zn60 2.024 . S
O71 C62 1.058 . S
C72 O73 1.228 . S
C72 O74 1.267 . S
O73 C72 1.228 . S
O74 Zn61 1.969 . S
O74 C72 1.267 . S
O75 Zn61 1.965 . S
O75 C79 1.260 . S
O76 Zn60 1.969 . S
O76 C79 1.258 . S
O77 Zn61 2.024 . S
O77 C64 1.058 . S
C78 O67 1.260 . S
C78 O68 1.258 . S
C79 O75 1.260 . S
C79 O76 1.258 . S
Zn80 O86 1.969 . S
Zn80 O87 1.965 . S
Zn80 O91 2.024 . S
Zn80 O96 1.969 . S
Zn81 O88 1.969 . S
Zn81 O94 1.969 1_455 S
Zn81 O95 1.965 . S
Zn81 O97 2.024 . S
C82 O83 1.229 . S
C82 O91 1.058 . S
O83 C82 1.229 . S
C84 O85 1.229 . S
C84 O97 1.058 . S
O85 C84 1.229 . S
O86 Zn80 1.969 . S
O86 C89 1.267 . S
O87 Zn80 1.965 . S
O87 C98 1.260 . S
O88 Zn81 1.969 . S
O88 C98 1.258 . S
C89 O86 1.267 . S
C89 O90 1.228 . S
O90 C89 1.228 . S
O91 Zn80 2.024 . S
O91 C82 1.058 . S
C92 O93 1.228 . S
C92 O94 1.267 . S
O93 C92 1.228 . S
O94 Zn81 1.969 1_655 S
O94 C92 1.267 . S
O95 Zn81 1.965 . S
O95 C99 1.260 . S
O96 Zn80 1.969 . S
O96 C99 1.258 . S
O97 Zn81 2.024 . S
O97 C84 1.058 . S
C98 O87 1.260 . S
C98 O88 1.258 . S
C99 O95 1.260 . S
C99 O96 1.258 . S
Zn100 O106 1.969 . S
Zn100 O107 1.965 . S
Zn100 O111 2.024 . S
Zn100 O116 1.969 . S
Zn101 O108 1.969 . S
Zn101 O114 1.969 1_545 S
Zn101 O115 1.965 . S
Zn101 O117 2.024 . S
C102 O103 1.229 . S
C102 O111 1.058 . S
O103 C102 1.229 . S
C104 O105 1.229 . S
C104 O117 1.058 . S
O105 C104 1.229 . S
O106 Zn100 1.969 . S
O106 C109 1.267 . S
O107 Zn100 1.965 . S
O107 C118 1.260 . S
O108 Zn101 1.969 . S
O108 C118 1.258 . S
C109 O106 1.267 . S
C109 O110 1.228 . S
O110 C109 1.228 . S
O111 Zn100 2.024 . S
O111 C102 1.058 . S
C112 O113 1.228 . S
C112 O114 1.267 . S
O113 C112 1.228 . S
O114 Zn101 1.969 1_565 S
O114 C112 1.267 . S
O115 Zn101 1.965 . S
O115 C119 1.260 . S
O116 Zn100 1.969 . S
O116 C119 1.258 . S
O117 Zn101 2.024 . S
O117 C104 1.058 . S
C118 O107 1.260 . S
C118 O108 1.258 . S
C119 O115 1.260 . S
C119 O116 1.258 . S
Zn120 O126 1.969 . S
Zn120 O127 1.965 . S
Zn120 O131 2.024 . S
Zn120 O136 1.969 . S
Zn121 O128 1.969 . S
Zn121 O134 1.969 . S
Zn121 O135 1.965 . S
Zn121 O137 2.024 . S
C122 O123 1.229 . S
C122 O131 1.058 . S
O123 C122 1.229 . S
C124 O125 1.229 . S
C124 O137 1.058 . S
O125 C124 1.229 . S
O126 Zn120 1.969 . S
O126 C129 1.267 . S
O127 Zn120 1.965 . S
O127 C138 1.260 . S
O128 Zn121 1.969 . S
O128 C138 1.258 . S
C129 O126 1.267 . S
C129 O130 1.228 . S
O130 C129 1.228 . S
O131 Zn120 2.024 . S
O131 C122 1.058 . S
C132 O133 1.228 . S
C132 O134 1.267 . S
O133 C132 1.228 . S
O134 Zn121 1.969 . S
O134 C132 1.267 . S
O135 Zn121 1.965 . S
O135 C139 1.260 . S
O136 Zn120 1.969 . S
O136 C139 1.258 . S
O137 Zn121 2.024 . S
O137 C124 1.058 . S
C138 O127 1.260 . S
C138 O128 1.258 . S
C139 O135 1.260 . S
C139 O136 1.258 . S
Zn140 O146 1.969 . S
Zn140 O147 1.965 . S
Zn140 O151 2.024 . S
Zn140 O156 1.969 . S
Zn141 O148 1.969 . S
Zn141 O154 1.969 . S
Zn141 O155 1.965 . S
Zn141 O157 2.024 . S
C142 O143 1.229 . S
C142 O151 1.058 . S
O143 C142 1.229 . S
C144 O145 1.229 . S
C144 O157 1.058 . S
O145 C144 1.229 . S
O146 Zn140 1.969 . S
O146 C149 1.267 . S
O147 Zn140 1.965 . S
O147 C158 1.260 . S
O148 Zn141 1.969 . S
O148 C158 1.258 . S
C149 O146 1.267 . S
C149 O150 1.228 . S
O150 C149 1.228 . S
O151 Zn140 2.024 . S
O151 C142 1.058 . S
C152 O153 1.228 . S
C152 O154 1.267 . S
O153 C152 1.228 . S
O154 Zn141 1.969 . S
O154 C152 1.267 . S
O155 Zn141 1.965 . S
O155 C159 1.260 . S
O156 Zn140 1.969 . S
O156 C159 1.258 . S
O157 Zn141 2.024 . S
O157 C144 1.058 . S
C158 O147 1.260 . S
C158 O148 1.258 . S
C159 O155 1.260 . S
C159 O156 1.258 . S
Zn160 O166 1.969 1_655 S
Zn160 O167 1.965 . S
Zn160 O171 2.024 . S
Zn160 O176 1.969 . S
Zn161 O168 1.969 . S
Zn161 O174 1.969 . S
Zn161 O175 1.965 . S
Zn161 O177 2.024 . S
C162 O163 1.229 . S
C162 O171 1.058 . S
O163 C162 1.229 . S
C164 O165 1.229 . S
C164 O177 1.058 . S
O165 C164 1.229 . S
O166 Zn160 1.969 1_455 S
O166 C169 1.267 . S
O167 Zn160 1.965 . S
O167 C178 1.260 . S
O168 Zn161 1.969 . S
O168 C178 1.258 . S
C169 O166 1.267 . S
C169 O170 1.228 . S
O170 C169 1.228 . S
O171 Zn160 2.024 . S
O171 C162 1.058 . S
C172 O173 1.228 . S
C172 O174 1.267 . S
O173 C172 1.228 . S
O174 Zn161 1.969 . S
O174 C172 1.267 . S
O175 Zn161 1.965 . S
O175 C179 1.260 . S
O176 Zn160 1.969 . S
O176 C179 1.258 . S
O177 Zn161 2.024 . S
O177 C164 1.058 . S
C178 O167 1.260 . S
C178 O168 1.258 . S
C179 O175 1.260 . S
C179 O176 1.258 . S
Zn180 O186 1.969 1_565 S
Zn180 O187 1.965 . S
Zn180 O191 2.024 . S
Zn180 O196 1.969 . S
Zn181 O188 1.969 . S
Zn181 O194 1.969 . S
Zn181 O195 1.965 . S
Zn181 O197 2.024 . S
C182 O183 1.229 . S
C182 O191 1.058 . S
O183 C182 1.229 . S
C184 O185 1.229 . S
C184 O197 1.058 . S
O185 C184 1.229 . S
O186 Zn180 1.969 1_545 S
O186 C189 1.267 . S
O187 Zn180 1.965 . S
O187 C198 1.260 . S
O188 Zn181 1.969 . S
O188 C198 1.258 . S
C189 O186 1.267 . S
C189 O190 1.228 . S
O190 C189 1.228 . S
O191 Zn180 2.024 . S
O191 C182 1.058 . S
C192 O193 1.228 . S
C192 O194 1.267 . S
O193 C192 1.228 . S
O194 Zn181 1.969 . S
O194 C192 1.267 . S
O195 Zn181 1.965 . S
O195 C199 1.260 . S
O196 Zn180 1.969 . S
O196 C199 1.258 . S
O197 Zn181 2.024 . S
O197 C184 1.058 . S
C198 O187 1.260 . S
C198 O188 1.258 . S
C199 O195 1.260 . S
C199 O196 1.258 . S
Zn200 O206 1.969 . S
Zn200 O207 1.965 . S
Zn200 O211 2.024 . S
Zn200 O216 1.969 . S
Zn201 O208 1.969 . S
Zn201 O214 1.969 . S
Zn201 O215 1.965 . S
Zn201 O217 2.024 . S
C202 O203 1.229 . S
C202 O211 1.058 . S
O203 C202 1.229 . S
C204 O205 1.229 . S
C204 O217 1.058 . S
O205 C204 1.229 . S
O206 Zn200 1.969 . S
O206 C209 1.267 . S
O207 Zn200 1.965 . S
O207 C218 1.260 . S
O208 Zn201 1.969 . S
O208 C218 1.258 . S
C209 O206 1.267 . S
C209 O210 1.228 . S
O210 C209 1.228 . S
O211 Zn200 2.024 . S
O211 C202 1.058 . S
C212 O213 1.228 . S
C212 O214 1.267 . S
O213 C212 1.228 . S
O214 Zn201 1.969 . S
O214 C212 1.267 . S
O215 Zn201 1.965 . S
O215 C219 1.260 . S
O216 Zn200 1.969 . S
O216 C219 1.258 . S
O217 Zn201 2.024 . S
O217 C204 1.058 . S
C218 O207 1.260 . S
C218 O208 1.258 . S
C219 O215 1.260 . S
C219 O216 1.258 . S
Zn220 O226 1.969 . S
Zn220 O227 1.965 . S
Zn220 O231 2.024 . S
Zn220 O236 1.969 . S
Zn221 O228 1.969 . S
Zn221 O234 1.969 . S
Zn221 O235 1.965 . S
Zn221 O237 2.024 . S
C222 O223 1.229 . S
C222 O231 1.058 . S
O223 C222 1.229 . S
C224 O225 1.229 . S
C224 O237 1.058 . S
O225 C224 1.229 . S
O226 Zn220 1.969 . S
O226 C229 1.267 . S
O227 Zn220 1.965 . S
O227 C238 1.260 . S
O228 Zn221 1.969 . S
O228 C238 1.258 . S
C229 O226 1.267 . S
C229 O230 1.228 . S
O230 C229 1.228 . S
O231 Zn220 2.024 . S
O231 C222 1.058 . S
C232 O233 1.228 . S
C232 O234 1.267 . S
O233 C232 1.228 . S
O234 Zn221 1.969 . S
O234 C232 1.267 . S
O235 Zn221 1.965 . S
O235 C239 1.260 . S
O236 Zn220 1.969 . S
O236 C239 1.258 . S
O237 Zn221 2.024 . S
O237 C224 1.058 . S
C238 O227 1.260 . S
C238 O228 1.258 . S
C239 O235 1.260 . S
C239 O236 1.258 . S
Zn240 O246 1.969 1_655 S
Zn240 O247 1.965 . S
Zn240 O251 2.024 . S
Zn240 O256 1.969 . S
Zn241 O248 1.969 . S
Zn241 O254 1.969 . S
Zn241 O255 1.965 . S
Zn241 O257 2.024 . S
C242 O243 1.229 . S
C242 O251 1.058 . S
O243 C242 1.229 . S
C244 O245 1.229 . S
C244 O257 1.058 . S
O245 C244 1.229 . S
O246 Zn240 1.969 1_455 S
O246 C249 1.267 . S
O247 Zn240 1.965 . S
O247 C258 1.260 . S
O248 Zn241 1.969 . S
O248 C258 1.258 . S
C249 O246 1.267 . S
C249 O250 1.228 . S
O250 C249 1.228 . S
O251 Zn240 2.024 . S
O251 C242 1.058 . S
C252 O253 1.228 . S
C252 O254 1.267 . S
O253 C252 1.228 . S
O254 Zn241 1.969 . S
O254 C252 1.267 . S
O255 Zn241 1.965 . S
O255 C259 1.260 . S
O256 Zn240 1.969 . S
O256 C259 1.258 . S
O257 Zn241 2.024 . S
O257 C244 1.058 . S
C258 O247 1.260 . S
C258 O248 1.258 . S
C259 O255 1.260 . S
C259 O256 1.258 . S
Zn260 O266 1.969 1_565 S
Zn260 O267 1.965 . S
Zn260 O271 2.024 . S
Zn260 O276 1.969 . S
Zn261 O268 1.969 . S
Zn261 O274 1.969 . S
Zn261 O275 1.965 . S
Zn261 O277 2.024 . S
C262 O263 1.229 . S
C262 O271 1.058 . S
O263 C262 1.229 . S
C264 O265 1.229 . S
C264 O277 1.058 . S
O265 C264 1.229 . S
O266 Zn260 1.969 1_545 S
O266 C269 1.267 . S
O267 Zn260 1.965 . S
O267 C278 1.260 . S
O268 Zn261 1.969 . S
O268 C278 1.258 . S
C269 O266 1.267 . S
C269 O270 1.228 . S
O270 C269 1.228 . S
O271 Zn260 2.024 . S
O271 C262 1.058 . S
C272 O273 1.228 . S
C272 O274 1.267 . S
O273 C272 1.228 . S
O274 Zn261 1.969 . S
O274 C272 1.267 . S
O275 Zn261 1.965 . S
O275 C279 1.260 . S
O276 Zn260 1.969 . S
O276 C279 1.258 . S
O277 Zn261 2.024 . S
O277 C264 1.058 . S
C278 O267 1.260 . S
C278 O268 1.258 . S
C279 O275 1.260 . S
C279 O276 1.258 . S
Zn280 O286 1.969 . S
Zn280 O287 1.965 . S
Zn280 O291 2.024 . S
Zn280 O296 1.969 . S
Zn281 O288 1.969 . S
Zn281 O294 1.969 . S
Zn281 O295 1.965 . S
Zn281 O297 2.024 . S
C282 O283 1.229 . S
C282 O291 1.058 . S
O283 C282 1.229 . S
C284 O285 1.229 . S
C284 O297 1.058 . S
O285 C284 1.229 . S
O286 Zn280 1.969 . S
O286 C289 1.267 . S
O287 Zn280 1.965 . S
O287 C298 1.260 . S
O288 Zn281 1.969 . S
O288 C298 1.258 . S
C289 O286 1.267 . S
C289 O290 1.228 . S
O290 C289 1.228 . S
O291 Zn280 2.024 . S
O291 C282 1.058 . S
C292 O293 1.228 . S
C292 O294 1.267 . S
O293 C292 1.228 . S
O294 Zn281 1.969 . S
O294 C292 1.267 . S
O295 Zn281 1.965 . S
O295 C299 1.260 . S
O296 Zn280 1.969 . S
O296 C299 1.258 . S
O297 Zn281 2.024 . S
O297 C284 1.058 . S
C298 O287 1.260 . S
C298 O288 1.258 . S
C299 O295 1.260 . S
C299 O296 1.258 . S
Zn300 O306 1.969 . S
Zn300 O307 1.965 . S
Zn300 O311 2.024 . S
Zn300 O316 1.969 . S
Zn301 O308 1.969 . S
Zn301 O314 1.969 . S
Zn301 O315 1.965 . S
Zn301 O317 2.024 . S
C302 O303 1.229 . S
C302 O311 1.058 . S
O303 C302 1.229 . S
C304 O305 1.229 . S
C304 O317 1.058 . S
O305 C304 1.229 . S
O306 Zn300 1.969 . S
O306 C309 1.267 . S
O307 Zn300 1.965 . S
O307 C318 1.260 . S
O308 Zn301 1.969 . S
O308 C318 1.258 . S
C309 O306 1.267 . S
C309 O310 1.228 . S
O310 C309 1.228 . S
O311 Zn300 2.024 . S
O311 C302 1.058 . S
C312 O313 1.228 . S
C312 O314 1.267 . S
O313 C312 1.228 . S
O314 Zn301 1.969 . S
O314 C312 1.267 . S
O315 Zn301 1.965 . S
O315 C319 1.260 . S
O316 Zn300 1.969 . S
O316 C319 1.258 . S
O317 Zn301 2.024 . S
O317 C304 1.058 . S
C318 O307 1.260 . S
C318 O308 1.258 . S
C319 O315 1.260 . S
C319 O316 1.258 . S
H320 C332 0.930 . S
H321 C334 0.930 . S
H322 C335 0.930 . S
H323 C339 0.959 . S
H324 C339 0.959 . S
H325 C339 0.961 . S
H326 C340 0.960 . S
H327 C340 0.961 . S
H328 C340 0.959 . S
H329 C343 0.929 . S
H330 C344 0.931 . S
H331 C346 0.930 . S
C332 H320 0.930 . S
C332 C333 1.399 . S
C332 C337 1.399 . S
C333 C332 1.399 . S
C333 C334 1.376 . S
C334 H321 0.930 . S
C334 C333 1.376 . S
C334 C335 1.388 . S
C335 H322 0.930 . S
C335 C334 1.388 . S
C335 C336 1.390 . S
C336 C335 1.390 . S
C336 C337 1.394 . S
C336 C342 1.465 . S
C337 C332 1.399 . S
C337 C336 1.394 . S
C337 C338 1.516 . S
C338 C337 1.516 . S
C338 C339 1.502 . S
C338 C340 1.561 . S
C338 C341 1.526 . S
C339 H323 0.959 . S
C339 H324 0.959 . S
C339 H325 0.961 . S
C339 C338 1.502 . S
C340 H326 0.960 . S
C340 H327 0.961 . S
C340 H328 0.959 . S
C340 C338 1.561 . S
C341 C338 1.526 . S
C341 C342 1.396 . S
C341 C346 1.390 . S
C342 C336 1.465 . S
C342 C341 1.396 . S
C342 C343 1.399 . S
C343 H329 0.929 . S
C343 C342 1.399 . S
C343 C344 1.385 . S
C344 H330 0.931 . S
C344 C343 1.385 . S
C344 C345 1.389 . S
C345 C344 1.389 . S
C345 C346 1.387 . S
C346 H331 0.930 . S
C346 C341 1.390 . S
C346 C345 1.387 . S
H347 C359 0.930 1_655 S
H348 C361 0.930 . S
H349 C362 0.930 . S
H350 C366 0.959 . S
H351 C366 0.959 . S
H352 C366 0.961 . S
H353 C367 0.960 . S
H354 C367 0.961 . S
H355 C367 0.959 . S
H356 C370 0.929 . S
H357 C371 0.931 . S
H358 C373 0.930 . S
C359 H347 0.930 1_455 S
C359 C360 1.399 . S
C359 C364 1.399 . S
C360 C359 1.399 . S
C360 C361 1.376 . S
C361 H348 0.930 . S
C361 C360 1.376 . S
C361 C362 1.388 . S
C362 H349 0.930 . S
C362 C361 1.388 . S
C362 C363 1.390 . S
C363 C362 1.390 . S
C363 C364 1.394 . S
C363 C369 1.465 . S
C364 C359 1.399 . S
C364 C363 1.394 . S
C364 C365 1.516 1_455 S
C365 C364 1.516 1_655 S
C365 C366 1.502 . S
C365 C367 1.561 . S
C365 C368 1.526 . S
C366 H350 0.959 . S
C366 H351 0.959 . S
C366 H352 0.961 . S
C366 C365 1.502 . S
C367 H353 0.960 . S
C367 H354 0.961 . S
C367 H355 0.959 . S
C367 C365 1.561 . S
C368 C365 1.526 . S
C368 C369 1.396 1_655 S
C368 C373 1.390 . S
C369 C363 1.465 . S
C369 C368 1.396 1_455 S
C369 C370 1.399 . S
C370 H356 0.929 . S
C370 C369 1.399 . S
C370 C371 1.385 1_455 S
C371 H357 0.931 . S
C371 C370 1.385 1_655 S
C371 C372 1.389 . S
C372 C371 1.389 . S
C372 C373 1.387 . S
C373 H358 0.930 . S
C373 C368 1.390 . S
C373 C372 1.387 . S
H374 C386 0.930 . S
H375 C388 0.930 . S
H376 C389 0.930 . S
H377 C393 0.959 . S
H378 C393 0.959 . S
H379 C393 0.961 . S
H380 C394 0.960 . S
H381 C394 0.961 1_545 S
H382 C394 0.959 . S
H383 C397 0.929 . S
H384 C398 0.931 . S
H385 C400 0.930 . S
C386 H374 0.930 . S
C386 C387 1.399 . S
C386 C391 1.399 . S
C387 C386 1.399 . S
C387 C388 1.376 . S
C388 H375 0.930 . S
C388 C387 1.376 . S
C388 C389 1.388 . S
C389 H376 0.930 . S
C389 C388 1.388 . S
C389 C390 1.390 . S
C390 C389 1.390 . S
C390 C391 1.394 . S
C390 C396 1.465 . S
C391 C386 1.399 . S
C391 C390 1.394 . S
C391 C392 1.516 1_565 S
C392 C391 1.516 1_545 S
C392 C393 1.502 . S
C392 C394 1.561 1_545 S
C392 C395 1.526 . S
C393 H377 0.959 . S
C393 H378 0.959 . S
C393 H379 0.961 . S
C393 C392 1.502 . S
C394 H380 0.960 . S
C394 H381 0.961 1_565 S
C394 H382 0.959 . S
C394 C392 1.561 1_565 S
C395 C392 1.526 . S
C395 C396 1.396 1_545 S
C395 C400 1.390 . S
C396 C390 1.465 . S
C396 C395 1.396 1_565 S
C396 C397 1.399 . S
C397 H383 0.929 . S
C397 C396 1.399 . S
C397 C398 1.385 1_565 S
C398 H384 0.931 . S
C398 C397 1.385 1_545 S
C398 C399 1.389 . S
C399 C398 1.389 . S
C399 C400 1.387 . S
C400 H385 0.930 . S
C400 C395 1.390 . S
C400 C399 1.387 . S
H401 C413 0.930 . S
H402 C415 0.930 . S
H403 C416 0.930 . S
H404 C420 0.959 . S
H405 C420 0.959 . S
H406 C420 0.961 . S
H407 C421 0.960 . S
H408 C421 0.961 . S
H409 C421 0.959 . S
H410 C424 0.929 . S
H411 C425 0.931 . S
H412 C427 0.930 . S
C413 H401 0.930 . S
C413 C414 1.399 . S
C413 C418 1.399 . S
C414 C413 1.399 . S
C414 C415 1.376 . S
C415 H402 0.930 . S
C415 C414 1.376 . S
C415 C416 1.388 . S
C416 H403 0.930 . S
C416 C415 1.388 . S
C416 C417 1.390 . S
C417 C416 1.390 . S
C417 C418 1.394 . S
C417 C423 1.465 . S
C418 C413 1.399 . S
C418 C417 1.394 . S
C418 C419 1.516 . S
C419 C418 1.516 . S
C419 C420 1.502 . S
C419 C421 1.561 . S
C419 C422 1.526 . S
C420 H404 0.959 . S
C420 H405 0.959 . S
C420 H406 0.961 . S
C420 C419 1.502 . S
C421 H407 0.960 . S
C421 H408 0.961 . S
C421 H409 0.959 . S
C421 C419 1.561 . S
C422 C419 1.526 . S
C422 C423 1.396 . S
C422 C427 1.390 . S
C423 C417 1.465 . S
C423 C422 1.396 . S
C423 C424 1.399 . S
C424 H410 0.929 . S
C424 C423 1.399 . S
C424 C425 1.385 . S
C425 H411 0.931 . S
C425 C424 1.385 . S
C425 C426 1.389 . S
C426 C425 1.389 . S
C426 C427 1.387 . S
C427 H412 0.930 . S
C427 C422 1.390 . S
C427 C426 1.387 . S
H428 C440 0.930 . S
H429 C442 0.930 . S
H430 C443 0.930 . S
H431 C447 0.959 . S
H432 C447 0.959 . S
H433 C447 0.961 . S
H434 C448 0.960 . S
H435 C448 0.961 . S
H436 C448 0.959 . S
H437 C451 0.929 . S
H438 C452 0.931 . S
H439 C454 0.930 . S
C440 H428 0.930 . S
C440 C441 1.399 . S
C440 C445 1.399 . S
C441 C440 1.399 . S
C441 C442 1.376 . S
C442 H429 0.930 . S
C442 C441 1.376 . S
C442 C443 1.388 . S
C443 H430 0.930 . S
C443 C442 1.388 . S
C443 C444 1.390 . S
C444 C443 1.390 . S
C444 C445 1.394 . S
C444 C450 1.465 . S
C445 C440 1.399 . S
C445 C444 1.394 . S
C445 C446 1.516 1_565 S
C446 C445 1.516 1_545 S
C446 C447 1.502 . S
C446 C448 1.561 . S
C446 C449 1.526 . S
C447 H431 0.959 . S
C447 H432 0.959 . S
C447 H433 0.961 . S
C447 C446 1.502 . S
C448 H434 0.960 . S
C448 H435 0.961 . S
C448 H436 0.959 . S
C448 C446 1.561 . S
C449 C446 1.526 . S
C449 C450 1.396 1_545 S
C449 C454 1.390 . S
C450 C444 1.465 . S
C450 C449 1.396 1_565 S
C450 C451 1.399 . S
C451 H437 0.929 . S
C451 C450 1.399 . S
C451 C452 1.385 . S
C452 H438 0.931 . S
C452 C451 1.385 . S
C452 C453 1.389 1_565 S
C453 C452 1.389 1_545 S
C453 C454 1.387 . S
C454 H439 0.930 . S
C454 C449 1.390 . S
C454 C453 1.387 . S
H455 C467 0.930 . S
H456 C469 0.930 . S
H457 C470 0.930 . S
H458 C474 0.959 . S
H459 C474 0.959 . S
H460 C474 0.961 . S
H461 C475 0.960 . S
H462 C475 0.961 . S
H463 C475 0.959 . S
H464 C478 0.929 . S
H465 C479 0.931 . S
H466 C481 0.930 . S
C467 H455 0.930 . S
C467 C468 1.399 . S
C467 C472 1.399 . S
C468 C467 1.399 . S
C468 C469 1.376 . S
C469 H456 0.930 . S
C469 C468 1.376 . S
C469 C470 1.388 . S
C470 H457 0.930 . S
C470 C469 1.388 . S
C470 C471 1.390 . S
C471 C470 1.390 . S
C471 C472 1.394 . S
C471 C477 1.465 . S
C472 C467 1.399 . S
C472 C471 1.394 . S
C472 C473 1.516 . S
C473 C472 1.516 . S
C473 C474 1.502 . S
C473 C475 1.561 . S
C473 C476 1.526 . S
C474 H458 0.959 . S
C474 H459 0.959 . S
C474 H460 0.961 . S
C474 C473 1.502 . S
C475 H461 0.960 . S
C475 H462 0.961 . S
C475 H463 0.959 . S
C475 C473 1.561 . S
C476 C473 1.526 . S
C476 C477 1.396 . S
C476 C481 1.390 . S
C477 C471 1.465 . S
C477 C476 1.396 . S
C477 C478 1.399 . S
C478 H464 0.929 . S
C478 C477 1.399 . S
C478 C479 1.385 . S
C479 H465 0.931 . S
C479 C478 1.385 . S
C479 C480 1.389 . S
C480 C479 1.389 . S
C480 C481 1.387 . S
C481 H466 0.930 . S
C481 C476 1.390 . S
C481 C480 1.387 . S
H482 C494 0.930 . S
H483 C496 0.930 . S
H484 C497 0.930 . S
H485 C501 0.959 . S
H486 C501 0.959 . S
H487 C501 0.961 . S
H488 C502 0.960 . S
H489 C502 0.961 . S
H490 C502 0.959 . S
H491 C505 0.929 . S
H492 C506 0.931 . S
H493 C508 0.930 . S
C494 H482 0.930 . S
C494 C495 1.399 . S
C494 C499 1.399 . S
C495 C494 1.399 . S
C495 C496 1.376 . S
C496 H483 0.930 . S
C496 C495 1.376 . S
C496 C497 1.388 . S
C497 H484 0.930 . S
C497 C496 1.388 . S
C497 C498 1.390 . S
C498 C497 1.390 . S
C498 C499 1.394 . S
C498 C504 1.465 . S
C499 C494 1.399 . S
C499 C498 1.394 . S
C499 C500 1.516 . S
C500 C499 1.516 . S
C500 C501 1.502 . S
C500 C502 1.561 . S
C500 C503 1.526 . S
C501 H485 0.959 . S
C501 H486 0.959 . S
C501 H487 0.961 . S
C501 C500 1.502 . S
C502 H488 0.960 . S
C502 H489 0.961 . S
C502 H490 0.959 . S
C502 C500 1.561 . S
C503 C500 1.526 . S
C503 C504 1.396 . S
C503 C508 1.390 . S
C504 C498 1.465 . S
C504 C503 1.396 . S
C504 C505 1.399 . S
C505 H491 0.929 . S
C505 C504 1.399 . S
C505 C506 1.385 . S
C506 H492 0.931 . S
C506 C505 1.385 . S
C506 C507 1.389 . S
C507 C506 1.389 . S
C507 C508 1.387 . S
C508 H493 0.930 . S
C508 C503 1.390 . S
C508 C507 1.387 . S
H509 C521 0.930 . S
H510 C523 0.930 . S
H511 C524 0.930 . S
H512 C528 0.959 . S
H513 C528 0.959 . S
H514 C528 0.961 . S
H515 C529 0.960 . S
H516 C529 0.961 . S
H517 C529 0.959 . S
H518 C532 0.929 . S
H519 C533 0.931 . S
H520 C535 0.930 . S
C521 H509 0.930 . S
C521 C522 1.399 . S
C521 C526 1.399 . S
C522 C521 1.399 . S
C522 C523 1.376 . S
C523 H510 0.930 . S
C523 C522 1.376 . S
C523 C524 1.388 . S
C524 H511 0.930 . S
C524 C523 1.388 . S
C524 C525 1.390 . S
C525 C524 1.390 . S
C525 C526 1.394 . S
C525 C531 1.465 1_455 S
C526 C521 1.399 . S
C526 C525 1.394 . S
C526 C527 1.516 . S
C527 C526 1.516 . S
C527 C528 1.502 . S
C527 C529 1.561 1_455 S
C527 C530 1.526 1_455 S
C528 H512 0.959 . S
C528 H513 0.959 . S
C528 H514 0.961 . S
C528 C527 1.502 . S
C529 H515 0.960 . S
C529 H516 0.961 . S
C529 H517 0.959 . S
C529 C527 1.561 1_655 S
C530 C527 1.526 1_655 S
C530 C531 1.396 . S
C530 C535 1.390 . S
C531 C525 1.465 1_655 S
C531 C530 1.396 . S
C531 C532 1.399 . S
C532 H518 0.929 . S
C532 C531 1.399 . S
C532 C533 1.385 . S
C533 H519 0.931 . S
C533 C532 1.385 . S
C533 C534 1.389 . S
C534 C533 1.389 . S
C534 C535 1.387 . S
C535 H520 0.930 . S
C535 C530 1.390 . S
C535 C534 1.387 . S
H536 C548 0.930 . S
H537 C550 0.930 . S
H538 C551 0.930 . S
H539 C555 0.959 . S
H540 C555 0.959 . S
H541 C555 0.961 . S
H542 C556 0.960 . S
H543 C556 0.961 . S
H544 C556 0.959 . S
H545 C559 0.929 . S
H546 C560 0.931 . S
H547 C562 0.930 . S
C548 H536 0.930 . S
C548 C549 1.399 . S
C548 C553 1.399 . S
C549 C548 1.399 . S
C549 C550 1.376 . S
C550 H537 0.930 . S
C550 C549 1.376 . S
C550 C551 1.388 . S
C551 H538 0.930 . S
C551 C550 1.388 . S
C551 C552 1.390 . S
C552 C551 1.390 . S
C552 C553 1.394 . S
C552 C558 1.465 . S
C553 C548 1.399 . S
C553 C552 1.394 . S
C553 C554 1.516 . S
C554 C553 1.516 . S
C554 C555 1.502 . S
C554 C556 1.561 . S
C554 C557 1.526 . S
C555 H539 0.959 . S
C555 H540 0.959 . S
C555 H541 0.961 . S
C555 C554 1.502 . S
C556 H542 0.960 . S
C556 H543 0.961 . S
C556 H544 0.959 . S
C556 C554 1.561 . S
C557 C554 1.526 . S
C557 C558 1.396 . S
C557 C562 1.390 . S
C558 C552 1.465 . S
C558 C557 1.396 . S
C558 C559 1.399 . S
C559 H545 0.929 . S
C559 C558 1.399 . S
C559 C560 1.385 . S
C560 H546 0.931 . S
C560 C559 1.385 . S
C560 C561 1.389 . S
C561 C560 1.389 . S
C561 C562 1.387 . S
C562 H547 0.930 . S
C562 C557 1.390 . S
C562 C561 1.387 . S
H563 C575 0.930 . S
H564 C577 0.930 . S
H565 C578 0.930 . S
H566 C582 0.959 . S
H567 C582 0.959 . S
H568 C582 0.961 . S
H569 C583 0.960 1_655 S
H570 C583 0.961 . S
H571 C583 0.959 . S
H572 C586 0.929 . S
H573 C587 0.931 . S
H574 C589 0.930 . S
C575 H563 0.930 . S
C575 C576 1.399 . S
C575 C580 1.399 . S
C576 C575 1.399 . S
C576 C577 1.376 . S
C577 H564 0.930 . S
C577 C576 1.376 . S
C577 C578 1.388 1_655 S
C578 H565 0.930 . S
C578 C577 1.388 1_455 S
C578 C579 1.390 . S
C579 C578 1.390 . S
C579 C580 1.394 1_455 S
C579 C585 1.465 . S
C580 C575 1.399 . S
C580 C579 1.394 1_655 S
C580 C581 1.516 . S
C581 C580 1.516 . S
C581 C582 1.502 . S
C581 C583 1.561 1_655 S
C581 C584 1.526 1_655 S
C582 H566 0.959 . S
C582 H567 0.959 . S
C582 H568 0.961 . S
C582 C581 1.502 . S
C583 H569 0.960 1_455 S
C583 H570 0.961 . S
C583 H571 0.959 . S
C583 C581 1.561 1_455 S
C584 C581 1.526 1_455 S
C584 C585 1.396 . S
C584 C589 1.390 . S
C585 C579 1.465 . S
C585 C584 1.396 . S
C585 C586 1.399 . S
C586 H572 0.929 . S
C586 C585 1.399 . S
C586 C587 1.385 . S
C587 H573 0.931 . S
C587 C586 1.385 . S
C587 C588 1.389 . S
C588 C587 1.389 . S
C588 C589 1.387 . S
C589 H574 0.930 . S
C589 C584 1.390 . S
C589 C588 1.387 . S
H590 C602 0.930 1_545 S
H591 C604 0.930 . S
H592 C605 0.930 . S
H593 C609 0.959 . S
H594 C609 0.959 . S
H595 C609 0.961 . S
H596 C610 0.960 . S
H597 C610 0.961 . S
H598 C610 0.959 . S
H599 C613 0.929 . S
H600 C614 0.931 . S
H601 C616 0.930 . S
C602 H590 0.930 1_565 S
C602 C603 1.399 . S
C602 C607 1.399 1_565 S
C603 C602 1.399 . S
C603 C604 1.376 . S
C604 H591 0.930 . S
C604 C603 1.376 . S
C604 C605 1.388 . S
C605 H592 0.930 . S
C605 C604 1.388 . S
C605 C606 1.390 . S
C606 C605 1.390 . S
C606 C607 1.394 1_565 S
C606 C612 1.465 1_565 S
C607 C602 1.399 1_545 S
C607 C606 1.394 1_545 S
C607 C608 1.516 . S
C608 C607 1.516 . S
C608 C609 1.502 . S
C608 C610 1.561 . S
C608 C611 1.526 . S
C609 H593 0.959 . S
C609 H594 0.959 . S
C609 H595 0.961 . S
C609 C608 1.502 . S
C610 H596 0.960 . S
C610 H597 0.961 . S
C610 H598 0.959 . S
C610 C608 1.561 . S
C611 C608 1.526 . S
C611 C612 1.396 . S
C611 C616 1.390 . S
C612 C606 1.465 1_545 S
C612 C611 1.396 . S
C612 C613 1.399 1_545 S
C613 H599 0.929 . S
C613 C612 1.399 1_565 S
C613 C614 1.385 1_565 S
C614 H600 0.931 . S
C614 C613 1.385 1_545 S
C614 C615 1.389 . S
C615 C614 1.389 . S
C615 C616 1.387 . S
C616 H601 0.930 . S
C616 C611 1.390 . S
C616 C615 1.387 . S
H617 C629 0.930 . S
H618 C631 0.930 . S
H619 C632 0.930 . S
H620 C636 0.959 . S
H621 C636 0.959 . S
H622 C636 0.961 . S
H623 C637 0.960 . S
H624 C637 0.961 . S
H625 C637 0.959 . S
H626 C640 0.929 . S
H627 C641 0.931 . S
H628 C643 0.930 . S
C629 H617 0.930 . S
C629 C630 1.399 . S
C629 C634 1.399 . S
C630 C629 1.399 . S
C630 C631 1.376 . S
C631 H618 0.930 . S
C631 C630 1.376 . S
C631 C632 1.388 . S
C632 H619 0.930 . S
C632 C631 1.388 . S
C632 C633 1.390 . S
C633 C632 1.390 . S
C633 C634 1.394 . S
C633 C639 1.465 . S
C634 C629 1.399 . S
C634 C633 1.394 . S
C634 C635 1.516 . S
C635 C634 1.516 . S
C635 C636 1.502 . S
C635 C637 1.561 . S
C635 C638 1.526 . S
C636 H620 0.959 . S
C636 H621 0.959 . S
C636 H622 0.961 . S
C636 C635 1.502 . S
C637 H623 0.960 . S
C637 H624 0.961 . S
C637 H625 0.959 . S
C637 C635 1.561 . S
C638 C635 1.526 . S
C638 C639 1.396 . S
C638 C643 1.390 . S
C639 C633 1.465 . S
C639 C638 1.396 . S
C639 C640 1.399 . S
C640 H626 0.929 . S
C640 C639 1.399 . S
C640 C641 1.385 . S
C641 H627 0.931 . S
C641 C640 1.385 . S
C641 C642 1.389 . S
C642 C641 1.389 . S
C642 C643 1.387 . S
C643 H628 0.930 . S
C643 C638 1.390 . S
C643 C642 1.387 . S
H644 C656 0.930 . S
H645 C658 0.930 . S
H646 C659 0.930 . S
H647 C663 0.959 . S
H648 C663 0.959 . S
H649 C663 0.961 . S
H650 C664 0.960 . S
H651 C664 0.961 . S
H652 C664 0.959 . S
H653 C667 0.929 . S
H654 C668 0.931 . S
H655 C670 0.930 1_545 S
C656 H644 0.930 . S
C656 C657 1.399 . S
C656 C661 1.399 . S
C657 C656 1.399 . S
C657 C658 1.376 . S
C658 H645 0.930 . S
C658 C657 1.376 . S
C658 C659 1.388 1_545 S
C659 H646 0.930 . S
C659 C658 1.388 1_565 S
C659 C660 1.390 1_565 S
C660 C659 1.390 1_545 S
C660 C661 1.394 . S
C660 C666 1.465 1_545 S
C661 C656 1.399 . S
C661 C660 1.394 . S
C661 C662 1.516 . S
C662 C661 1.516 . S
C662 C663 1.502 . S
C662 C664 1.561 . S
C662 C665 1.526 . S
C663 H647 0.959 . S
C663 H648 0.959 . S
C663 H649 0.961 . S
C663 C662 1.502 . S
C664 H650 0.960 . S
C664 H651 0.961 . S
C664 H652 0.959 . S
C664 C662 1.561 . S
C665 C662 1.526 . S
C665 C666 1.396 1_545 S
C665 C670 1.390 1_545 S
C666 C660 1.465 1_565 S
C666 C665 1.396 1_565 S
C666 C667 1.399 . S
C667 H653 0.929 . S
C667 C666 1.399 . S
C667 C668 1.385 . S
C668 H654 0.931 . S
C668 C667 1.385 . S
C668 C669 1.389 . S
C669 C668 1.389 . S
C669 C670 1.387 . S
C670 H655 0.930 1_565 S
C670 C665 1.390 1_565 S
C670 C669 1.387 . S
H671 C683 0.930 . S
H672 C685 0.930 . S
H673 C686 0.930 . S
H674 C690 0.959 . S
H675 C690 0.959 . S
H676 C690 0.961 . S
H677 C691 0.960 . S
H678 C691 0.961 . S
H679 C691 0.959 . S
H680 C694 0.929 . S
H681 C695 0.931 . S
H682 C697 0.930 . S
C683 H671 0.930 . S
C683 C684 1.399 . S
C683 C688 1.399 . S
C684 C683 1.399 . S
C684 C685 1.376 . S
C685 H672 0.930 . S
C685 C684 1.376 . S
C685 C686 1.388 . S
C686 H673 0.930 . S
C686 C685 1.388 . S
C686 C687 1.390 . S
C687 C686 1.390 . S
C687 C688 1.394 . S
C687 C693 1.465 . S
C688 C683 1.399 . S
C688 C687 1.394 . S
C688 C689 1.516 . S
C689 C688 1.516 . S
C689 C690 1.502 . S
C689 C691 1.561 . S
C689 C692 1.526 . S
C690 H674 0.959 . S
C690 H675 0.959 . S
C690 H676 0.961 . S
C690 C689 1.502 . S
C691 H677 0.960 . S
C691 H678 0.961 . S
C691 H679 0.959 . S
C691 C689 1.561 . S
C692 C689 1.526 . S
C692 C693 1.396 . S
C692 C697 1.390 . S
C693 C687 1.465 . S
C693 C692 1.396 . S
C693 C694 1.399 . S
C694 H680 0.929 . S
C694 C693 1.399 . S
C694 C695 1.385 . S
C695 H681 0.931 . S
C695 C694 1.385 . S
C695 C696 1.389 . S
C696 C695 1.389 . S
C696 C697 1.387 . S
C697 H682 0.930 . S
C697 C692 1.390 . S
C697 C696 1.387 . S
H698 C710 0.930 . S
H699 C712 0.930 . S
H700 C713 0.930 . S
H701 C717 0.959 . S
H702 C717 0.959 . S
H703 C717 0.961 . S
H704 C718 0.960 . S
H705 C718 0.961 . S
H706 C718 0.959 . S
H707 C721 0.929 . S
H708 C722 0.931 . S
H709 C724 0.930 . S
C710 H698 0.930 . S
C710 C711 1.399 . S
C710 C715 1.399 . S
C711 C710 1.399 . S
C711 C712 1.376 . S
C712 H699 0.930 . S
C712 C711 1.376 . S
C712 C713 1.388 . S
C713 H700 0.930 . S
C713 C712 1.388 . S
C713 C714 1.390 . S
C714 C713 1.390 . S
C714 C715 1.394 . S
C714 C720 1.465 . S
C715 C710 1.399 . S
C715 C714 1.394 . S
C715 C716 1.516 . S
C716 C715 1.516 . S
C716 C717 1.502 . S
C716 C718 1.561 . S
C716 C719 1.526 . S
C717 H701 0.959 . S
C717 H702 0.959 . S
C717 H703 0.961 . S
C717 C716 1.502 . S
C718 H704 0.960 . S
C718 H705 0.961 . S
C718 H706 0.959 . S
C718 C716 1.561 . S
C719 C716 1.526 . S
C719 C720 1.396 . S
C719 C724 1.390 . S
C720 C714 1.465 . S
C720 C719 1.396 . S
C720 C721 1.399 . S
C721 H707 0.929 . S
C721 C720 1.399 . S
C721 C722 1.385 . S
C722 H708 0.931 . S
C722 C721 1.385 . S
C722 C723 1.389 . S
C723 C722 1.389 . S
C723 C724 1.387 . S
C724 H709 0.930 . S
C724 C719 1.390 . S
C724 C723 1.387 . S
H725 C737 0.930 . S
H726 C739 0.930 . S
H727 C740 0.930 . S
H728 C744 0.959 . S
H729 C744 0.959 1_655 S
H730 C744 0.961 . S
H731 C745 0.960 . S
H732 C745 0.961 . S
H733 C745 0.959 . S
H734 C748 0.929 . S
H735 C749 0.931 . S
H736 C751 0.930 . S
C737 H725 0.930 . S
C737 C738 1.399 . S
C737 C742 1.399 . S
C738 C737 1.399 . S
C738 C739 1.376 . S
C739 H726 0.930 . S
C739 C738 1.376 . S
C739 C740 1.388 . S
C740 H727 0.930 . S
C740 C739 1.388 . S
C740 C741 1.395 . S
C741 C740 1.395 . S
C741 C742 1.396 . S
C741 C747 1.459 1_455 S
C742 C737 1.399 . S
C742 C741 1.396 . S
C742 C743 1.516 1_455 S
C743 C742 1.516 1_655 S
C743 C744 1.502 1_655 S
C743 C745 1.561 . S
C743 C746 1.526 . S
C744 H728 0.959 . S
C744 H729 0.959 1_455 S
C744 H730 0.961 . S
C744 C743 1.502 1_455 S
C745 H731 0.960 . S
C745 H732 0.961 . S
C745 H733 0.959 . S
C745 C743 1.561 . S
C746 C743 1.526 . S
C746 C747 1.396 . S
C746 C751 1.390 . S
C747 C741 1.459 1_655 S
C747 C746 1.396 . S
C747 C748 1.399 . S
C748 H734 0.929 . S
C748 C747 1.399 . S
C748 C749 1.385 . S
C749 H735 0.931 . S
C749 C748 1.385 . S
C749 C750 1.389 . S
C750 C749 1.389 . S
C750 C751 1.387 . S
C751 H736 0.930 . S
C751 C746 1.390 . S
C751 C750 1.387 . S
H752 C764 0.930 . S
H753 C766 0.930 . S
H754 C767 0.930 . S
H755 C771 0.959 . S
H756 C771 0.959 . S
H757 C771 0.961 . S
H758 C772 0.960 1_655 S
H759 C772 0.961 1_655 S
H760 C772 0.959 . S
H761 C775 0.929 . S
H762 C776 0.931 . S
H763 C778 0.930 . S
C764 H752 0.930 . S
C764 C765 1.399 . S
C764 C769 1.399 . S
C765 C764 1.399 . S
C765 C766 1.376 . S
C766 H753 0.930 . S
C766 C765 1.376 . S
C766 C767 1.388 . S
C767 H754 0.930 . S
C767 C766 1.388 . S
C767 C768 1.390 . S
C768 C767 1.390 . S
C768 C769 1.394 . S
C768 C774 1.465 . S
C769 C764 1.399 . S
C769 C768 1.394 . S
C769 C770 1.516 . S
C770 C769 1.516 . S
C770 C771 1.502 1_455 S
C770 C772 1.561 . S
C770 C773 1.526 . S
C771 H755 0.959 . S
C771 H756 0.959 . S
C771 H757 0.961 . S
C771 C770 1.502 1_655 S
C772 H758 0.960 1_455 S
C772 H759 0.961 1_455 S
C772 H760 0.959 . S
C772 C770 1.561 . S
C773 C770 1.526 . S
C773 C774 1.396 . S
C773 C778 1.390 . S
C774 C768 1.465 . S
C774 C773 1.396 . S
C774 C775 1.399 . S
C775 H761 0.929 . S
C775 C774 1.399 . S
C775 C776 1.385 . S
C776 H762 0.931 . S
C776 C775 1.385 . S
C776 C777 1.389 . S
C777 C776 1.389 . S
C777 C778 1.387 . S
C778 H763 0.930 . S
C778 C773 1.390 . S
C778 C777 1.387 . S
H779 C791 0.930 . S
H780 C793 0.930 . S
H781 C794 0.930 1_565 S
H782 C798 0.959 . S
H783 C798 0.959 . S
H784 C798 0.961 . S
H785 C799 0.960 . S
H786 C799 0.961 . S
H787 C799 0.959 . S
H788 C802 0.929 1_565 S
H789 C803 0.931 . S
H790 C805 0.930 . S
C791 H779 0.930 . S
C791 C792 1.399 . S
C791 C796 1.399 . S
C792 C791 1.399 . S
C792 C793 1.376 . S
C793 H780 0.930 . S
C793 C792 1.376 . S
C793 C794 1.388 . S
C794 H781 0.930 1_545 S
C794 C793 1.388 . S
C794 C795 1.390 . S
C795 C794 1.390 . S
C795 C796 1.394 . S
C795 C801 1.465 . S
C796 C791 1.399 . S
C796 C795 1.394 . S
C796 C797 1.516 . S
C797 C796 1.516 . S
C797 C798 1.502 . S
C797 C799 1.561 . S
C797 C800 1.526 . S
C798 H782 0.959 . S
C798 H783 0.959 . S
C798 H784 0.961 . S
C798 C797 1.502 . S
C799 H785 0.960 . S
C799 H786 0.961 . S
C799 H787 0.959 . S
C799 C797 1.561 . S
C800 C797 1.526 . S
C800 C801 1.396 . S
C800 C805 1.390 . S
C801 C795 1.465 . S
C801 C800 1.396 . S
C801 C802 1.399 . S
C802 H788 0.929 1_545 S
C802 C801 1.399 . S
C802 C803 1.385 . S
C803 H789 0.931 . S
C803 C802 1.385 . S
C803 C804 1.389 . S
C804 C803 1.389 . S
C804 C805 1.387 . S
C805 H790 0.930 . S
C805 C800 1.390 . S
C805 C804 1.387 . S
H806 C818 0.930 . S
H807 C820 0.930 . S
H808 C821 0.930 . S
H809 C825 0.959 . S
H810 C825 0.959 . S
H811 C825 0.961 . S
H812 C826 0.960 . S
H813 C826 0.961 . S
H814 C826 0.959 . S
H815 C829 0.929 . S
H816 C830 0.931 . S
H817 C832 0.930 . S
C818 H806 0.930 . S
C818 C819 1.399 . S
C818 C823 1.399 . S
C819 C818 1.399 . S
C819 C820 1.376 . S
C820 H807 0.930 . S
C820 C819 1.376 . S
C820 C821 1.388 . S
C821 H808 0.930 . S
C821 C820 1.388 . S
C821 C822 1.390 . S
C822 C821 1.390 . S
C822 C823 1.394 . S
C822 C828 1.465 . S
C823 C818 1.399 . S
C823 C822 1.394 . S
C823 C824 1.516 . S
C824 C823 1.516 . S
C824 C825 1.502 . S
C824 C826 1.561 . S
C824 C827 1.526 . S
C825 H809 0.959 . S
C825 H810 0.959 . S
C825 H811 0.961 . S
C825 C824 1.502 . S
C826 H812 0.960 . S
C826 H813 0.961 . S
C826 H814 0.959 . S
C826 C824 1.561 . S
C827 C824 1.526 . S
C827 C828 1.396 . S
C827 C832 1.390 . S
C828 C822 1.465 . S
C828 C827 1.396 . S
C828 C829 1.399 . S
C829 H815 0.929 . S
C829 C828 1.399 . S
C829 C830 1.385 . S
C830 H816 0.931 . S
C830 C829 1.385 . S
C830 C831 1.389 . S
C831 C830 1.389 . S
C831 C832 1.387 . S
C832 H817 0.930 . S
C832 C827 1.390 . S
C832 C831 1.387 . S
H833 C845 0.930 . S
H834 C847 0.930 . S
H835 C848 0.930 . S
H836 C852 0.959 . S
H837 C852 0.959 . S
H838 C852 0.961 . S
H839 C853 0.960 . S
H840 C853 0.961 . S
H841 C853 0.959 . S
H842 C856 0.929 . S
H843 C857 0.931 . S
H844 C859 0.930 . S
C845 H833 0.930 . S
C845 C846 1.399 . S
C845 C850 1.399 . S
C846 C845 1.399 . S
C846 C847 1.376 . S
C847 H834 0.930 . S
C847 C846 1.376 . S
C847 C848 1.388 . S
C848 H835 0.930 . S
C848 C847 1.388 . S
C848 C849 1.390 . S
C849 C848 1.390 . S
C849 C850 1.394 . S
C849 C855 1.465 . S
C850 C845 1.399 . S
C850 C849 1.394 . S
C850 C851 1.516 . S
C851 C850 1.516 . S
C851 C852 1.502 . S
C851 C853 1.561 . S
C851 C854 1.526 . S
C852 H836 0.959 . S
C852 H837 0.959 . S
C852 H838 0.961 . S
C852 C851 1.502 . S
C853 H839 0.960 . S
C853 H840 0.961 . S
C853 H841 0.959 . S
C853 C851 1.561 . S
C854 C851 1.526 . S
C854 C855 1.396 . S
C854 C859 1.390 . S
C855 C849 1.465 . S
C855 C854 1.396 . S
C855 C856 1.399 . S
C856 H842 0.929 . S
C856 C855 1.399 . S
C856 C857 1.385 . S
C857 H843 0.931 . S
C857 C856 1.385 . S
C857 C858 1.389 . S
C858 C857 1.389 . S
C858 C859 1.387 . S
C859 H844 0.930 . S
C859 C854 1.390 . S
C859 C858 1.387 . S
H860 C872 0.930 . S
H861 C874 0.930 . S
H862 C875 0.930 . S
H863 C879 0.959 . S
H864 C879 0.959 . S
H865 C879 0.961 . S
H866 C880 0.960 . S
H867 C880 0.961 . S
H868 C880 0.959 . S
H869 C883 0.929 . S
H870 C884 0.931 . S
H871 C886 0.930 . S
C872 H860 0.930 . S
C872 C873 1.399 . S
C872 C877 1.399 . S
C873 C872 1.399 . S
C873 C874 1.376 . S
C874 H861 0.930 . S
C874 C873 1.376 . S
C874 C875 1.388 . S
C875 H862 0.930 . S
C875 C874 1.388 . S
C875 C876 1.390 . S
C876 C875 1.390 . S
C876 C877 1.394 . S
C876 C882 1.465 . S
C877 C872 1.399 . S
C877 C876 1.394 . S
C877 C878 1.516 . S
C878 C877 1.516 . S
C878 C879 1.502 . S
C878 C880 1.561 . S
C878 C881 1.526 . S
C879 H863 0.959 . S
C879 H864 0.959 . S
C879 H865 0.961 . S
C879 C878 1.502 . S
C880 H866 0.960 . S
C880 H867 0.961 . S
C880 H868 0.959 . S
C880 C878 1.561 . S
C881 C878 1.526 . S
C881 C882 1.396 . S
C881 C886 1.390 . S
C882 C876 1.465 . S
C882 C881 1.396 . S
C882 C883 1.399 . S
C883 H869 0.929 . S
C883 C882 1.399 . S
C883 C884 1.385 . S
C884 H870 0.931 . S
C884 C883 1.385 . S
C884 C885 1.389 . S
C885 C884 1.389 . S
C885 C886 1.387 . S
C886 H871 0.930 . S
C886 C881 1.390 . S
C886 C885 1.387 . S
H887 C899 0.930 . S
H888 C901 0.930 . S
H889 C902 0.930 . S
H890 C906 0.959 1_565 S
H891 C906 0.959 . S
H892 C906 0.961 . S
H893 C907 0.960 . S
H894 C907 0.961 . S
H895 C907 0.959 . S
H896 C910 0.929 . S
H897 C911 0.931 . S
H898 C913 0.930 . S
C899 H887 0.930 . S
C899 C900 1.399 . S
C899 C904 1.399 . S
C900 C899 1.399 . S
C900 C901 1.376 . S
C901 H888 0.930 . S
C901 C900 1.376 . S
C901 C902 1.388 . S
C902 H889 0.930 . S
C902 C901 1.388 . S
C902 C903 1.390 . S
C903 C902 1.390 . S
C903 C904 1.394 . S
C903 C909 1.465 . S
C904 C899 1.399 . S
C904 C903 1.394 . S
C904 C905 1.516 . S
C905 C904 1.516 . S
C905 C906 1.502 1_565 S
C905 C907 1.561 1_565 S
C905 C908 1.526 . S
C906 H890 0.959 1_545 S
C906 H891 0.959 . S
C906 H892 0.961 . S
C906 C905 1.502 1_545 S
C907 H893 0.960 . S
C907 H894 0.961 . S
C907 H895 0.959 . S
C907 C905 1.561 1_545 S
C908 C905 1.526 . S
C908 C909 1.396 . S
C908 C913 1.390 . S
C909 C903 1.465 . S
C909 C908 1.396 . S
C909 C910 1.399 . S
C910 H896 0.929 . S
C910 C909 1.399 . S
C910 C911 1.385 . S
C911 H897 0.931 . S
C911 C910 1.385 . S
C911 C912 1.389 . S
C912 C911 1.389 . S
C912 C913 1.387 . S
C913 H898 0.930 . S
C913 C908 1.390 . S
C913 C912 1.387 . S
H914 C926 0.930 . S
H915 C928 0.930 . S
H916 C929 0.930 . S
H917 C933 0.959 . S
H918 C933 0.959 . S
H919 C933 0.961 . S
H920 C934 0.960 . S
H921 C934 0.961 . S
H922 C934 0.959 . S
H923 C937 0.929 . S
H924 C938 0.931 . S
H925 C940 0.930 . S
C926 H914 0.930 . S
C926 C927 1.399 . S
C926 C931 1.399 . S
C927 C926 1.399 . S
C927 C928 1.376 . S
C928 H915 0.930 . S
C928 C927 1.376 . S
C928 C929 1.388 . S
C929 H916 0.930 . S
C929 C928 1.388 . S
C929 C930 1.390 . S
C930 C929 1.390 . S
C930 C931 1.394 . S
C930 C936 1.465 . S
C931 C926 1.399 . S
C931 C930 1.394 . S
C931 C932 1.516 . S
C932 C931 1.516 . S
C932 C933 1.502 . S
C932 C934 1.561 . S
C932 C935 1.526 . S
C933 H917 0.959 . S
C933 H918 0.959 . S
C933 H919 0.961 . S
C933 C932 1.502 . S
C934 H920 0.960 . S
C934 H921 0.961 . S
C934 H922 0.959 . S
C934 C932 1.561 . S
C935 C932 1.526 . S
C935 C936 1.396 . S
C935 C940 1.390 . S
C936 C930 1.465 . S
C936 C935 1.396 . S
C936 C937 1.399 . S
C937 H923 0.929 . S
C937 C936 1.399 . S
C937 C938 1.385 . S
C938 H924 0.931 . S
C938 C937 1.385 . S
C938 C939 1.389 . S
C939 C938 1.389 . S
C939 C940 1.387 . S
C940 H925 0.930 . S
C940 C935 1.390 . S
C940 C939 1.387 . S
H941 C953 0.930 . S
H942 C955 0.930 . S
H943 C956 0.930 . S
H944 C960 0.959 . S
H945 C960 0.959 . S
H946 C960 0.961 . S
H947 C961 0.960 . S
H948 C961 0.961 . S
H949 C961 0.959 . S
H950 C964 0.929 . S
H951 C965 0.931 . S
H952 C967 0.930 . S
C953 H941 0.930 . S
C953 C954 1.399 . S
C953 C958 1.399 . S
C954 C953 1.399 . S
C954 C955 1.376 . S
C955 H942 0.930 . S
C955 C954 1.376 . S
C955 C956 1.388 . S
C956 H943 0.930 . S
C956 C955 1.388 . S
C956 C957 1.390 . S
C957 C956 1.390 . S
C957 C958 1.394 . S
C957 C963 1.465 . S
C958 C953 1.399 . S
C958 C957 1.394 . S
C958 C959 1.516 . S
C959 C958 1.516 . S
C959 C960 1.502 . S
C959 C961 1.561 . S
C959 C962 1.526 . S
C960 H944 0.959 . S
C960 H945 0.959 . S
C960 H946 0.961 . S
C960 C959 1.502 . S
C961 H947 0.960 . S
C961 H948 0.961 . S
C961 H949 0.959 . S
C961 C959 1.561 . S
C962 C959 1.526 . S
C962 C963 1.396 . S
C962 C967 1.390 . S
C963 C957 1.465 . S
C963 C962 1.396 . S
C963 C964 1.399 . S
C964 H950 0.929 . S
C964 C963 1.399 . S
C964 C965 1.385 . S
C965 H951 0.931 . S
C965 C964 1.385 . S
C965 C966 1.389 . S
C966 C965 1.389 . S
C966 C967 1.387 . S
C967 H952 0.930 . S
C967 C962 1.390 . S
C967 C966 1.387 . S
H968 C980 0.930 . S
H969 C982 0.930 . S
H970 C983 0.930 . S
H971 C987 0.959 . S
H972 C987 0.959 . S
H973 C987 0.961 . S
H974 C988 0.960 . S
H975 C988 0.961 . S
H976 C988 0.959 . S
H977 C991 0.929 . S
H978 C992 0.931 . S
H979 C994 0.930 . S
C980 H968 0.930 . S
C980 C981 1.399 . S
C980 C985 1.399 . S
C981 C980 1.399 . S
C981 C982 1.376 . S
C982 H969 0.930 . S
C982 C981 1.376 . S
C982 C983 1.388 . S
C983 H970 0.930 . S
C983 C982 1.388 . S
C983 C984 1.390 . S
C984 C983 1.390 . S
C984 C985 1.394 . S
C984 C990 1.465 . S
C985 C980 1.399 . S
C985 C984 1.394 . S
C985 C986 1.516 . S
C986 C985 1.516 . S
C986 C987 1.502 . S
C986 C988 1.561 . S
C986 C989 1.526 . S
C987 H971 0.959 . S
C987 H972 0.959 . S
C987 H973 0.961 . S
C987 C986 1.502 . S
C988 H974 0.960 . S
C988 H975 0.961 . S
C988 H976 0.959 . S
C988 C986 1.561 . S
C989 C986 1.526 . S
C989 C990 1.396 . S
C989 C994 1.390 . S
C990 C984 1.465 . S
C990 C989 1.396 . S
C990 C991 1.399 . S
C991 H977 0.929 . S
C991 C990 1.399 . S
C991 C992 1.385 . S
C992 H978 0.931 . S
C992 C991 1.385 . S
C992 C993 1.389 . S
C993 C992 1.389 . S
C993 C994 1.387 . S
C994 H979 0.930 . S
C994 C989 1.390 . S
C994 C993 1.387 . S
H995 C1007 0.930 . S
H996 C1009 0.930 . S
H997 C1010 0.930 . S
H998 C1014 0.959 . S
H999 C1014 0.959 . S
H1000 C1014 0.961 . S
H1001 C1015 0.960 . S
H1002 C1015 0.961 . S
H1003 C1015 0.959 . S
H1004 C1018 0.929 . S
H1005 C1019 0.931 . S
H1006 C1021 0.930 . S
C1007 H995 0.930 . S
C1007 C1008 1.399 . S
C1007 C1012 1.399 . S
C1008 C1007 1.399 . S
C1008 C1009 1.376 . S
C1009 H996 0.930 . S
C1009 C1008 1.376 . S
C1009 C1010 1.388 . S
C1010 H997 0.930 . S
C1010 C1009 1.388 . S
C1010 C1011 1.390 . S
C1011 C1010 1.390 . S
C1011 C1012 1.394 . S
C1011 C1017 1.465 . S
C1012 C1007 1.399 . S
C1012 C1011 1.394 . S
C1012 C1013 1.516 . S
C1013 C1012 1.516 . S
C1013 C1014 1.502 . S
C1013 C1015 1.561 . S
C1013 C1016 1.526 . S
C1014 H998 0.959 . S
C1014 H999 0.959 . S
C1014 H1000 0.961 . S
C1014 C1013 1.502 . S
C1015 H1001 0.960 . S
C1015 H1002 0.961 . S
C1015 H1003 0.959 . S
C1015 C1013 1.561 . S
C1016 C1013 1.526 . S
C1016 C1017 1.396 . S
C1016 C1021 1.390 . S
C1017 C1011 1.465 . S
C1017 C1016 1.396 . S
C1017 C1018 1.399 . S
C1018 H1004 0.929 . S
C1018 C1017 1.399 . S
C1018 C1019 1.385 . S
C1019 H1005 0.931 . S
C1019 C1018 1.385 . S
C1019 C1020 1.389 . S
C1020 C1019 1.389 . S
C1020 C1021 1.387 . S
C1021 H1006 0.930 . S
C1021 C1016 1.390 . S
C1021 C1020 1.387 . S
H1022 C1034 0.930 . S
H1023 C1036 0.930 . S
H1024 C1037 0.930 . S
H1025 C1041 0.959 . S
H1026 C1041 0.959 . S
H1027 C1041 0.961 . S
H1028 C1042 0.960 . S
H1029 C1042 0.961 . S
H1030 C1042 0.959 . S
H1031 C1045 0.929 . S
H1032 C1046 0.931 . S
H1033 C1048 0.930 . S
C1034 H1022 0.930 . S
C1034 C1035 1.399 . S
C1034 C1039 1.399 . S
C1035 C1034 1.399 . S
C1035 C1036 1.376 . S
C1036 H1023 0.930 . S
C1036 C1035 1.376 . S
C1036 C1037 1.388 . S
C1037 H1024 0.930 . S
C1037 C1036 1.388 . S
C1037 C1038 1.390 . S
C1038 C1037 1.390 . S
C1038 C1039 1.394 . S
C1038 C1044 1.465 . S
C1039 C1034 1.399 . S
C1039 C1038 1.394 . S
C1039 C1040 1.516 . S
C1040 C1039 1.516 . S
C1040 C1041 1.502 . S
C1040 C1042 1.561 . S
C1040 C1043 1.526 . S
C1041 H1025 0.959 . S
C1041 H1026 0.959 . S
C1041 H1027 0.961 . S
C1041 C1040 1.502 . S
C1042 H1028 0.960 . S
C1042 H1029 0.961 . S
C1042 H1030 0.959 . S
C1042 C1040 1.561 . S
C1043 C1040 1.526 . S
C1043 C1044 1.396 . S
C1043 C1048 1.390 . S
C1044 C1038 1.465 . S
C1044 C1043 1.396 . S
C1044 C1045 1.399 . S
C1045 H1031 0.929 . S
C1045 C1044 1.399 . S
C1045 C1046 1.385 . S
C1046 H1032 0.931 . S
C1046 C1045 1.385 . S
C1046 C1047 1.389 . S
C1047 C1046 1.389 . S
C1047 C1048 1.387 . S
C1048 H1033 0.930 . S
C1048 C1043 1.390 . S
C1048 C1047 1.387 . S
H1049 C1061 0.930 . S
H1050 C1063 0.930 . S
H1051 C1064 0.930 . S
H1052 C1068 0.959 . S
H1053 C1068 0.959 . S
H1054 C1068 0.961 . S
H1055 C1069 0.960 . S
H1056 C1069 0.961 . S
H1057 C1069 0.959 . S
H1058 C1072 0.929 . S
H1059 C1073 0.931 . S
H1060 C1075 0.930 . S
C1061 H1049 0.930 . S
C1061 C1062 1.399 . S
C1061 C1066 1.399 . S
C1062 C1061 1.399 . S
C1062 C1063 1.376 . S
C1063 H1050 0.930 . S
C1063 C1062 1.376 . S
C1063 C1064 1.388 . S
C1064 H1051 0.930 . S
C1064 C1063 1.388 . S
C1064 C1065 1.390 . S
C1065 C1064 1.390 . S
C1065 C1066 1.394 . S
C1065 C1071 1.465 . S
C1066 C1061 1.399 . S
C1066 C1065 1.394 . S
C1066 C1067 1.516 . S
C1067 C1066 1.516 . S
C1067 C1068 1.502 . S
C1067 C1069 1.561 . S
C1067 C1070 1.526 . S
C1068 H1052 0.959 . S
C1068 H1053 0.959 . S
C1068 H1054 0.961 . S
C1068 C1067 1.502 . S
C1069 H1055 0.960 . S
C1069 H1056 0.961 . S
C1069 H1057 0.959 . S
C1069 C1067 1.561 . S
C1070 C1067 1.526 . S
C1070 C1071 1.396 . S
C1070 C1075 1.390 . S
C1071 C1065 1.465 . S
C1071 C1070 1.396 . S
C1071 C1072 1.399 . S
C1072 H1058 0.929 . S
C1072 C1071 1.399 . S
C1072 C1073 1.385 . S
C1073 H1059 0.931 . S
C1073 C1072 1.385 . S
C1073 C1074 1.389 . S
C1074 C1073 1.389 . S
C1074 C1075 1.387 . S
C1075 H1060 0.930 . S
C1075 C1070 1.390 . S
C1075 C1074 1.387 . S
H1076 C1088 0.930 . S
H1077 C1090 0.930 . S
H1078 C1091 0.930 . S
H1079 C1095 0.959 . S
H1080 C1095 0.959 . S
H1081 C1095 0.961 . S
H1082 C1096 0.960 . S
H1083 C1096 0.961 . S
H1084 C1096 0.959 . S
H1085 C1099 0.929 . S
H1086 C1100 0.931 . S
H1087 C1102 0.930 . S
C1088 H1076 0.930 . S
C1088 C1089 1.399 . S
C1088 C1093 1.399 . S
C1089 C1088 1.399 . S
C1089 C1090 1.376 . S
C1090 H1077 0.930 . S
C1090 C1089 1.376 . S
C1090 C1091 1.388 . S
C1091 H1078 0.930 . S
C1091 C1090 1.388 . S
C1091 C1092 1.390 . S
C1092 C1091 1.390 . S
C1092 C1093 1.394 . S
C1092 C1098 1.465 . S
C1093 C1088 1.399 . S
C1093 C1092 1.394 . S
C1093 C1094 1.516 . S
C1094 C1093 1.516 . S
C1094 C1095 1.502 . S
C1094 C1096 1.561 . S
C1094 C1097 1.526 . S
C1095 H1079 0.959 . S
C1095 H1080 0.959 . S
C1095 H1081 0.961 . S
C1095 C1094 1.502 . S
C1096 H1082 0.960 . S
C1096 H1083 0.961 . S
C1096 H1084 0.959 . S
C1096 C1094 1.561 . S
C1097 C1094 1.526 . S
C1097 C1098 1.396 . S
C1097 C1102 1.390 . S
C1098 C1092 1.465 . S
C1098 C1097 1.396 . S
C1098 C1099 1.399 . S
C1099 H1085 0.929 . S
C1099 C1098 1.399 . S
C1099 C1100 1.385 . S
C1100 H1086 0.931 . S
C1100 C1099 1.385 . S
C1100 C1101 1.389 . S
C1101 C1100 1.389 . S
C1101 C1102 1.387 . S
C1102 H1087 0.930 . S
C1102 C1097 1.390 . S
C1102 C1101 1.387 . S
H1103 C1115 0.930 . S
H1104 C1117 0.930 . S
H1105 C1118 0.930 . S
H1106 C1122 0.959 . S
H1107 C1122 0.959 . S
H1108 C1122 0.961 . S
H1109 C1123 0.960 . S
H1110 C1123 0.961 . S
H1111 C1123 0.959 . S
H1112 C1126 0.929 . S
H1113 C1127 0.931 . S
H1114 C1129 0.930 . S
C1115 H1103 0.930 . S
C1115 C1116 1.399 . S
C1115 C1120 1.399 . S
C1116 C1115 1.399 . S
C1116 C1117 1.376 . S
C1117 H1104 0.930 . S
C1117 C1116 1.376 . S
C1117 C1118 1.388 . S
C1118 H1105 0.930 . S
C1118 C1117 1.388 . S
C1118 C1119 1.390 . S
C1119 C1118 1.390 . S
C1119 C1120 1.394 . S
C1119 C1125 1.465 . S
C1120 C1115 1.399 . S
C1120 C1119 1.394 . S
C1120 C1121 1.516 . S
C1121 C1120 1.516 . S
C1121 C1122 1.502 . S
C1121 C1123 1.561 . S
C1121 C1124 1.526 . S
C1122 H1106 0.959 . S
C1122 H1107 0.959 . S
C1122 H1108 0.961 . S
C1122 C1121 1.502 . S
C1123 H1109 0.960 . S
C1123 H1110 0.961 . S
C1123 H1111 0.959 . S
C1123 C1121 1.561 . S
C1124 C1121 1.526 . S
C1124 C1125 1.396 . S
C1124 C1129 1.390 . S
C1125 C1119 1.465 . S
C1125 C1124 1.396 . S
C1125 C1126 1.399 . S
C1126 H1112 0.929 . S
C1126 C1125 1.399 . S
C1126 C1127 1.385 . S
C1127 H1113 0.931 . S
C1127 C1126 1.385 . S
C1127 C1128 1.389 . S
C1128 C1127 1.389 . S
C1128 C1129 1.387 . S
C1129 H1114 0.930 . S
C1129 C1124 1.390 . S
C1129 C1128 1.387 . S
H1130 C1142 0.930 . S
H1131 C1144 0.930 . S
H1132 C1145 0.930 . S
H1133 C1149 0.959 . S
H1134 C1149 0.959 . S
H1135 C1149 0.961 . S
H1136 C1150 0.960 . S
H1137 C1150 0.961 . S
H1138 C1150 0.959 . S
H1139 C1153 0.929 . S
H1140 C1154 0.931 . S
H1141 C1156 0.930 . S
C1142 H1130 0.930 . S
C1142 C1143 1.399 . S
C1142 C1147 1.399 . S
C1143 C1142 1.399 . S
C1143 C1144 1.376 . S
C1144 H1131 0.930 . S
C1144 C1143 1.376 . S
C1144 C1145 1.388 . S
C1145 H1132 0.930 . S
C1145 C1144 1.388 . S
C1145 C1146 1.390 . S
C1146 C1145 1.390 . S
C1146 C1147 1.394 . S
C1146 C1152 1.465 . S
C1147 C1142 1.399 . S
C1147 C1146 1.394 . S
C1147 C1148 1.516 . S
C1148 C1147 1.516 . S
C1148 C1149 1.502 . S
C1148 C1150 1.561 . S
C1148 C1151 1.526 . S
C1149 H1133 0.959 . S
C1149 H1134 0.959 . S
C1149 H1135 0.961 . S
C1149 C1148 1.502 . S
C1150 H1136 0.960 . S
C1150 H1137 0.961 . S
C1150 H1138 0.959 . S
C1150 C1148 1.561 . S
C1151 C1148 1.526 . S
C1151 C1152 1.396 . S
C1151 C1156 1.390 . S
C1152 C1146 1.465 . S
C1152 C1151 1.396 . S
C1152 C1153 1.399 . S
C1153 H1139 0.929 . S
C1153 C1152 1.399 . S
C1153 C1154 1.385 . S
C1154 H1140 0.931 . S
C1154 C1153 1.385 . S
C1154 C1155 1.389 . S
C1155 C1154 1.389 . S
C1155 C1156 1.387 . S
C1156 H1141 0.930 . S
C1156 C1151 1.390 . S
C1156 C1155 1.387 . S
H1157 C1169 0.930 . S
H1158 C1171 0.930 . S
H1159 C1172 0.930 . S
H1160 C1176 0.959 . S
H1161 C1176 0.959 . S
H1162 C1176 0.961 . S
H1163 C1177 0.960 . S
H1164 C1177 0.961 . S
H1165 C1177 0.959 . S
H1166 C1180 0.929 . S
H1167 C1181 0.931 . S
H1168 C1183 0.930 . S
C1169 H1157 0.930 . S
C1169 C1170 1.399 . S
C1169 C1174 1.399 . S
C1170 C1169 1.399 . S
C1170 C1171 1.376 . S
C1171 H1158 0.930 . S
C1171 C1170 1.376 . S
C1171 C1172 1.388 . S
C1172 H1159 0.930 . S
C1172 C1171 1.388 . S
C1172 C1173 1.390 . S
C1173 C1172 1.390 . S
C1173 C1174 1.394 . S
C1173 C1179 1.465 . S
C1174 C1169 1.399 . S
C1174 C1173 1.394 . S
C1174 C1175 1.516 . S
C1175 C1174 1.516 . S
C1175 C1176 1.502 . S
C1175 C1177 1.561 . S
C1175 C1178 1.526 . S
C1176 H1160 0.959 . S
C1176 H1161 0.959 . S
C1176 H1162 0.961 . S
C1176 C1175 1.502 . S
C1177 H1163 0.960 . S
C1177 H1164 0.961 . S
C1177 H1165 0.959 . S
C1177 C1175 1.561 . S
C1178 C1175 1.526 . S
C1178 C1179 1.396 . S
C1178 C1183 1.390 . S
C1179 C1173 1.465 . S
C1179 C1178 1.396 . S
C1179 C1180 1.399 . S
C1180 H1166 0.929 . S
C1180 C1179 1.399 . S
C1180 C1181 1.385 . S
C1181 H1167 0.931 . S
C1181 C1180 1.385 . S
C1181 C1182 1.389 . S
C1182 C1181 1.389 . S
C1182 C1183 1.387 . S
C1183 H1168 0.930 . S
C1183 C1178 1.390 . S
C1183 C1182 1.387 . S
H1184 C1196 0.930 . S
H1185 C1198 0.930 . S
H1186 C1199 0.930 . S
H1187 C1203 0.959 . S
H1188 C1203 0.959 . S
H1189 C1203 0.961 . S
H1190 C1204 0.960 . S
H1191 C1204 0.961 . S
H1192 C1204 0.959 1_455 S
H1193 C1207 0.929 . S
H1194 C1208 0.931 . S
H1195 C1210 0.930 . S
C1196 H1184 0.930 . S
C1196 C1197 1.399 . S
C1196 C1201 1.399 . S
C1197 C1196 1.399 . S
C1197 C1198 1.376 . S
C1198 H1185 0.930 . S
C1198 C1197 1.376 . S
C1198 C1199 1.388 1_655 S
C1199 H1186 0.930 . S
C1199 C1198 1.388 1_455 S
C1199 C1200 1.390 . S
C1200 C1199 1.390 . S
C1200 C1201 1.394 1_455 S
C1200 C1206 1.465 . S
C1201 C1196 1.399 . S
C1201 C1200 1.394 1_655 S
C1201 C1202 1.516 1_556 S
C1202 C1201 1.516 1_554 S
C1202 C1203 1.502 . S
C1202 C1204 1.561 . S
C1202 C1205 1.526 1_655 S
C1203 H1187 0.959 . S
C1203 H1188 0.959 . S
C1203 H1189 0.961 . S
C1203 C1202 1.502 . S
C1204 H1190 0.960 . S
C1204 H1191 0.961 . S
C1204 H1192 0.959 1_655 S
C1204 C1202 1.561 . S
C1205 C1202 1.526 1_455 S
C1205 C1206 1.396 1_554 S
C1205 C1210 1.390 . S
C1206 C1200 1.465 . S
C1206 C1205 1.396 1_556 S
C1206 C1207 1.399 . S
C1207 H1193 0.929 . S
C1207 C1206 1.399 . S
C1207 C1208 1.385 1_556 S
C1208 H1194 0.931 . S
C1208 C1207 1.385 1_554 S
C1208 C1209 1.389 . S
C1209 C1208 1.389 . S
C1209 C1210 1.387 . S
C1210 H1195 0.930 . S
C1210 C1205 1.390 . S
C1210 C1209 1.387 . S
H1211 C1223 0.930 . S
H1212 C1225 0.930 . S
H1213 C1226 0.930 1_554 S
H1214 C1230 0.959 . S
H1215 C1230 0.959 . S
H1216 C1230 0.961 . S
H1217 C1231 0.960 . S
H1218 C1231 0.961 1_545 S
H1219 C1231 0.959 . S
H1220 C1234 0.929 1_455 S
H1221 C1235 0.931 . S
H1222 C1237 0.930 . S
C1223 H1211 0.930 . S
C1223 C1224 1.399 . S
C1223 C1228 1.399 . S
C1224 C1223 1.399 . S
C1224 C1225 1.376 . S
C1225 H1212 0.930 . S
C1225 C1224 1.376 . S
C1225 C1226 1.388 . S
C1226 H1213 0.930 1_556 S
C1226 C1225 1.388 . S
C1226 C1227 1.390 . S
C1227 C1226 1.390 . S
C1227 C1228 1.394 . S
C1227 C1233 1.465 1_456 S
C1228 C1223 1.399 . S
C1228 C1227 1.394 . S
C1228 C1229 1.516 1_465 S
C1229 C1228 1.516 1_645 S
C1229 C1230 1.502 . S
C1229 C1231 1.561 1_545 S
C1229 C1232 1.526 1_556 S
C1230 H1214 0.959 . S
C1230 H1215 0.959 . S
C1230 H1216 0.961 . S
C1230 C1229 1.502 . S
C1231 H1217 0.960 . S
C1231 H1218 0.961 1_565 S
C1231 H1219 0.959 . S
C1231 C1229 1.561 1_565 S
C1232 C1229 1.526 1_554 S
C1232 C1233 1.396 1_545 S
C1232 C1237 1.390 . S
C1233 C1227 1.465 1_654 S
C1233 C1232 1.396 1_565 S
C1233 C1234 1.399 . S
C1234 H1220 0.929 1_655 S
C1234 C1233 1.399 . S
C1234 C1235 1.385 1_565 S
C1235 H1221 0.931 . S
C1235 C1234 1.385 1_545 S
C1235 C1236 1.389 . S
C1236 C1235 1.389 . S
C1236 C1237 1.387 . S
C1237 H1222 0.930 . S
C1237 C1232 1.390 . S
C1237 C1236 1.387 . S
H1238 C1250 0.930 . S
H1239 C1252 0.930 . S
H1240 C1253 0.930 . S
H1241 C1257 0.959 . S
H1242 C1257 0.959 . S
H1243 C1257 0.961 . S
H1244 C1258 0.960 . S
H1245 C1258 0.961 . S
H1246 C1258 0.959 . S
H1247 C1261 0.929 1_545 S
H1248 C1262 0.931 . S
H1249 C1264 0.930 . S
C1250 H1238 0.930 . S
C1250 C1251 1.399 . S
C1250 C1255 1.399 . S
C1251 C1250 1.399 . S
C1251 C1252 1.376 . S
C1252 H1239 0.930 . S
C1252 C1251 1.376 . S
C1252 C1253 1.388 1_556 S
C1253 H1240 0.930 . S
C1253 C1252 1.388 1_554 S
C1253 C1254 1.390 . S
C1254 C1253 1.390 . S
C1254 C1255 1.394 1_554 S
C1254 C1260 1.465 1_545 S
C1255 C1250 1.399 . S
C1255 C1254 1.394 1_556 S
C1255 C1256 1.516 1_545 S
C1256 C1255 1.516 1_565 S
C1256 C1257 1.502 . S
C1256 C1258 1.561 . S
C1256 C1259 1.526 1_556 S
C1257 H1241 0.959 . S
C1257 H1242 0.959 . S
C1257 H1243 0.961 . S
C1257 C1256 1.502 . S
C1258 H1244 0.960 . S
C1258 H1245 0.961 . S
C1258 H1246 0.959 . S
C1258 C1256 1.561 . S
C1259 C1256 1.526 1_554 S
C1259 C1260 1.396 . S
C1259 C1264 1.390 . S
C1260 C1254 1.465 1_565 S
C1260 C1259 1.396 . S
C1260 C1261 1.399 . S
C1261 H1247 0.929 1_565 S
C1261 C1260 1.399 . S
C1261 C1262 1.385 . S
C1262 H1248 0.931 . S
C1262 C1261 1.385 . S
C1262 C1263 1.389 . S
C1263 C1262 1.389 . S
C1263 C1264 1.387 . S
C1264 H1249 0.930 . S
C1264 C1259 1.390 . S
C1264 C1263 1.387 . S
H1265 C1277 0.930 . S
H1266 C1279 0.930 . S
H1267 C1280 0.930 . S
H1268 C1284 0.959 . S
H1269 C1284 0.959 . S
H1270 C1284 0.961 . S
H1271 C1285 0.960 . S
H1272 C1285 0.961 . S
H1273 C1285 0.959 1_554 S
H1274 C1288 0.929 . S
H1275 C1289 0.931 . S
H1276 C1291 0.930 . S
C1277 H1265 0.930 . S
C1277 C1278 1.399 . S
C1277 C1282 1.399 . S
C1278 C1277 1.399 . S
C1278 C1279 1.376 . S
C1279 H1266 0.930 . S
C1279 C1278 1.376 . S
C1279 C1280 1.388 . S
C1280 H1267 0.930 . S
C1280 C1279 1.388 . S
C1280 C1281 1.390 . S
C1281 C1280 1.390 . S
C1281 C1282 1.394 . S
C1281 C1287 1.465 . S
C1282 C1277 1.399 . S
C1282 C1281 1.394 . S
C1282 C1283 1.516 1_554 S
C1283 C1282 1.516 1_556 S
C1283 C1284 1.502 . S
C1283 C1285 1.561 . S
C1283 C1286 1.526 . S
C1284 H1268 0.959 . S
C1284 H1269 0.959 . S
C1284 H1270 0.961 . S
C1284 C1283 1.502 . S
C1285 H1271 0.960 . S
C1285 H1272 0.961 . S
C1285 H1273 0.959 1_556 S
C1285 C1283 1.561 . S
C1286 C1283 1.526 . S
C1286 C1287 1.396 1_556 S
C1286 C1291 1.390 . S
C1287 C1281 1.465 . S
C1287 C1286 1.396 1_554 S
C1287 C1288 1.399 . S
C1288 H1274 0.929 . S
C1288 C1287 1.399 . S
C1288 C1289 1.385 1_554 S
C1289 H1275 0.931 . S
C1289 C1288 1.385 1_556 S
C1289 C1290 1.389 . S
C1290 C1289 1.389 . S
C1290 C1291 1.387 . S
C1291 H1276 0.930 . S
C1291 C1286 1.390 . S
C1291 C1290 1.387 . S
H1292 C1304 0.930 . S
H1293 C1306 0.930 . S
H1294 C1307 0.930 . S
H1295 C1311 0.959 . S
H1296 C1311 0.959 . S
H1297 C1311 0.961 . S
H1298 C1312 0.960 . S
H1299 C1312 0.961 . S
H1300 C1312 0.959 . S
H1301 C1315 0.929 1_545 S
H1302 C1316 0.931 . S
H1303 C1318 0.930 . S
C1304 H1292 0.930 . S
C1304 C1305 1.399 . S
C1304 C1309 1.399 . S
C1305 C1304 1.399 . S
C1305 C1306 1.376 . S
C1306 H1293 0.930 . S
C1306 C1305 1.376 . S
C1306 C1307 1.388 . S
C1307 H1294 0.930 . S
C1307 C1306 1.388 . S
C1307 C1308 1.390 . S
C1308 C1307 1.390 . S
C1308 C1309 1.394 . S
C1308 C1314 1.465 1_645 S
C1309 C1304 1.399 . S
C1309 C1308 1.394 . S
C1309 C1310 1.516 1_545 S
C1310 C1309 1.516 1_565 S
C1310 C1311 1.502 1_655 S
C1310 C1312 1.561 . S
C1310 C1313 1.526 1_655 S
C1311 H1295 0.959 . S
C1311 H1296 0.959 . S
C1311 H1297 0.961 . S
C1311 C1310 1.502 1_455 S
C1312 H1298 0.960 . S
C1312 H1299 0.961 . S
C1312 H1300 0.959 . S
C1312 C1310 1.561 . S
C1313 C1310 1.526 1_455 S
C1313 C1314 1.396 . S
C1313 C1318 1.390 . S
C1314 C1308 1.465 1_465 S
C1314 C1313 1.396 . S
C1314 C1315 1.399 . S
C1315 H1301 0.929 1_565 S
C1315 C1314 1.399 . S
C1315 C1316 1.385 . S
C1316 H1302 0.931 . S
C1316 C1315 1.385 . S
C1316 C1317 1.389 . S
C1317 C1316 1.389 . S
C1317 C1318 1.387 . S
C1318 H1303 0.930 . S
C1318 C1313 1.390 . S
C1318 C1317 1.387 . S
H1319 C1331 0.930 . S
H1320 C1333 0.928 1_545 S
H1321 C1334 0.930 . S
H1322 C1338 0.959 . S
H1323 C1338 0.959 . S
H1324 C1338 0.961 . S
H1325 C1339 0.960 . S
H1326 C1339 0.961 . S
H1327 C1339 0.959 . S
H1328 C1342 0.929 . S
H1329 C1343 0.931 . S
H1330 C1345 0.930 1_565 S
C1331 H1319 0.930 . S
C1331 C1332 1.399 . S
C1331 C1336 1.399 . S
C1332 C1331 1.399 . S
C1332 C1333 1.383 . S
C1333 H1320 0.928 1_565 S
C1333 C1332 1.383 . S
C1333 C1334 1.384 1_565 S
C1334 H1321 0.930 . S
C1334 C1333 1.384 1_545 S
C1334 C1335 1.390 . S
C1335 C1334 1.390 . S
C1335 C1336 1.394 1_545 S
C1335 C1341 1.465 . S
C1336 C1331 1.399 . S
C1336 C1335 1.394 1_565 S
C1336 C1337 1.516 . S
C1337 C1336 1.516 . S
C1337 C1338 1.502 . S
C1337 C1339 1.561 . S
C1337 C1340 1.526 . S
C1338 H1322 0.959 . S
C1338 H1323 0.959 . S
C1338 H1324 0.961 . S
C1338 C1337 1.502 . S
C1339 H1325 0.960 . S
C1339 H1326 0.961 . S
C1339 H1327 0.959 . S
C1339 C1337 1.561 . S
C1340 C1337 1.526 . S
C1340 C1341 1.396 1_565 S
C1340 C1345 1.390 1_565 S
C1341 C1335 1.465 . S
C1341 C1340 1.396 1_545 S
C1341 C1342 1.399 . S
C1342 H1328 0.929 . S
C1342 C1341 1.399 . S
C1342 C1343 1.385 . S
C1343 H1329 0.931 . S
C1343 C1342 1.385 . S
C1343 C1344 1.389 . S
C1344 C1343 1.389 . S
C1344 C1345 1.387 . S
C1345 H1330 0.930 1_545 S
C1345 C1340 1.390 1_545 S
C1345 C1344 1.387 . S
H1346 C1358 0.930 . S
H1347 C1360 0.930 . S
H1348 C1361 0.930 . S
H1349 C1365 0.959 . S
H1350 C1365 0.959 . S
H1351 C1365 0.961 . S
H1352 C1366 0.960 . S
H1353 C1366 0.961 . S
H1354 C1366 0.959 . S
H1355 C1369 0.929 . S
H1356 C1370 0.931 . S
H1357 C1372 0.930 . S
C1358 H1346 0.930 . S
C1358 C1359 1.399 . S
C1358 C1363 1.399 . S
C1359 C1358 1.399 . S
C1359 C1360 1.376 . S
C1360 H1347 0.930 . S
C1360 C1359 1.376 . S
C1360 C1361 1.388 . S
C1361 H1348 0.930 . S
C1361 C1360 1.388 . S
C1361 C1362 1.390 . S
C1362 C1361 1.390 . S
C1362 C1363 1.394 . S
C1362 C1368 1.465 . S
C1363 C1358 1.399 . S
C1363 C1362 1.394 . S
C1363 C1364 1.516 . S
C1364 C1363 1.516 . S
C1364 C1365 1.502 . S
C1364 C1366 1.561 . S
C1364 C1367 1.526 . S
C1365 H1349 0.959 . S
C1365 H1350 0.959 . S
C1365 H1351 0.961 . S
C1365 C1364 1.502 . S
C1366 H1352 0.960 . S
C1366 H1353 0.961 . S
C1366 H1354 0.959 . S
C1366 C1364 1.561 . S
C1367 C1364 1.526 . S
C1367 C1368 1.396 . S
C1367 C1372 1.390 . S
C1368 C1362 1.465 . S
C1368 C1367 1.396 . S
C1368 C1369 1.399 . S
C1369 H1355 0.929 . S
C1369 C1368 1.399 . S
C1369 C1370 1.385 . S
C1370 H1356 0.931 . S
C1370 C1369 1.385 . S
C1370 C1371 1.389 . S
C1371 C1370 1.389 . S
C1371 C1372 1.387 . S
C1372 H1357 0.930 . S
C1372 C1367 1.390 . S
C1372 C1371 1.387 . S
H1373 C1385 0.930 . S
H1374 C1387 0.930 . S
H1375 C1388 0.930 . S
H1376 C1392 0.959 . S
H1377 C1392 0.959 1_655 S
H1378 C1392 0.961 . S
H1379 C1393 0.960 . S
H1380 C1393 0.961 . S
H1381 C1393 0.959 . S
H1382 C1396 0.929 . S
H1383 C1397 0.931 . S
H1384 C1399 0.930 . S
C1385 H1373 0.930 . S
C1385 C1386 1.399 . S
C1385 C1390 1.399 . S
C1386 C1385 1.399 . S
C1386 C1387 1.376 . S
C1387 H1374 0.930 . S
C1387 C1386 1.376 . S
C1387 C1388 1.388 . S
C1388 H1375 0.930 . S
C1388 C1387 1.388 . S
C1388 C1389 1.390 . S
C1389 C1388 1.390 . S
C1389 C1390 1.394 . S
C1389 C1395 1.465 1_455 S
C1390 C1385 1.399 . S
C1390 C1389 1.394 . S
C1390 C1391 1.516 1_455 S
C1391 C1390 1.516 1_655 S
C1391 C1392 1.502 1_655 S
C1391 C1393 1.561 . S
C1391 C1394 1.526 . S
C1392 H1376 0.959 . S
C1392 H1377 0.959 1_455 S
C1392 H1378 0.961 . S
C1392 C1391 1.502 1_455 S
C1393 H1379 0.960 . S
C1393 H1380 0.961 . S
C1393 H1381 0.959 . S
C1393 C1391 1.561 . S
C1394 C1391 1.526 . S
C1394 C1395 1.396 . S
C1394 C1399 1.390 . S
C1395 C1389 1.465 1_655 S
C1395 C1394 1.396 . S
C1395 C1396 1.399 . S
C1396 H1382 0.929 . S
C1396 C1395 1.399 . S
C1396 C1397 1.385 . S
C1397 H1383 0.931 . S
C1397 C1396 1.385 . S
C1397 C1398 1.389 . S
C1398 C1397 1.389 . S
C1398 C1399 1.387 . S
C1399 H1384 0.930 . S
C1399 C1394 1.390 . S
C1399 C1398 1.387 . S
H1400 C1412 0.930 . S
H1401 C1414 0.930 . S
H1402 C1415 0.930 . S
H1403 C1419 0.959 . S
H1404 C1419 0.959 . S
H1405 C1419 0.961 . S
H1406 C1420 0.960 . S
H1407 C1420 0.961 . S
H1408 C1420 0.959 . S
H1409 C1423 0.929 . S
H1410 C1424 0.931 1_655 S
H1411 C1426 0.930 . S
C1412 H1400 0.930 . S
C1412 C1413 1.399 . S
C1412 C1417 1.399 . S
C1413 C1412 1.399 . S
C1413 C1414 1.376 1_455 S
C1414 H1401 0.930 . S
C1414 C1413 1.376 1_655 S
C1414 C1415 1.388 . S
C1415 H1402 0.930 . S
C1415 C1414 1.388 . S
C1415 C1416 1.390 1_655 S
C1416 C1415 1.390 1_455 S
C1416 C1417 1.394 . S
C1416 C1422 1.465 . S
C1417 C1412 1.399 . S
C1417 C1416 1.394 . S
C1417 C1418 1.516 . S
C1418 C1417 1.516 . S
C1418 C1419 1.502 . S
C1418 C1420 1.561 . S
C1418 C1421 1.526 . S
C1419 H1403 0.959 . S
C1419 H1404 0.959 . S
C1419 H1405 0.961 . S
C1419 C1418 1.502 . S
C1420 H1406 0.960 . S
C1420 H1407 0.961 . S
C1420 H1408 0.959 . S
C1420 C1418 1.561 . S
C1421 C1418 1.526 . S
C1421 C1422 1.396 . S
C1421 C1426 1.390 . S
C1422 C1416 1.465 . S
C1422 C1421 1.396 . S
C1422 C1423 1.399 1_455 S
C1423 H1409 0.929 . S
C1423 C1422 1.399 1_655 S
C1423 C1424 1.385 1_655 S
C1424 H1410 0.931 1_455 S
C1424 C1423 1.385 1_455 S
C1424 C1425 1.389 . S
C1425 C1424 1.389 . S
C1425 C1426 1.387 . S
C1426 H1411 0.930 . S
C1426 C1421 1.390 . S
C1426 C1425 1.387 . S
H1427 C1439 0.930 . S
H1428 C1441 0.930 . S
H1429 C1442 0.930 . S
H1430 C1446 0.959 . S
H1431 C1446 0.959 . S
H1432 C1446 0.961 . S
H1433 C1447 0.960 . S
H1434 C1447 0.961 . S
H1435 C1447 0.959 . S
H1436 C1450 0.929 . S
H1437 C1451 0.931 1_565 S
H1438 C1453 0.930 . S
C1439 H1427 0.930 . S
C1439 C1440 1.399 1_545 S
C1439 C1444 1.399 . S
C1440 C1439 1.399 1_565 S
C1440 C1441 1.376 . S
C1441 H1428 0.930 . S
C1441 C1440 1.376 . S
C1441 C1442 1.388 . S
C1442 H1429 0.930 . S
C1442 C1441 1.388 . S
C1442 C1443 1.390 . S
C1443 C1442 1.390 . S
C1443 C1444 1.394 1_565 S
C1443 C1449 1.465 1_565 S
C1444 C1439 1.399 . S
C1444 C1443 1.394 1_545 S
C1444 C1445 1.516 . S
C1445 C1444 1.516 . S
C1445 C1446 1.502 1_455 S
C1445 C1447 1.561 . S
C1445 C1448 1.526 . S
C1446 H1430 0.959 . S
C1446 H1431 0.959 . S
C1446 H1432 0.961 . S
C1446 C1445 1.502 1_655 S
C1447 H1433 0.960 . S
C1447 H1434 0.961 . S
C1447 H1435 0.959 . S
C1447 C1445 1.561 . S
C1448 C1445 1.526 . S
C1448 C1449 1.396 . S
C1448 C1453 1.390 1_455 S
C1449 C1443 1.465 1_545 S
C1449 C1448 1.396 . S
C1449 C1450 1.399 1_545 S
C1450 H1436 0.929 . S
C1450 C1449 1.399 1_565 S
C1450 C1451 1.385 1_565 S
C1451 H1437 0.931 1_545 S
C1451 C1450 1.385 1_545 S
C1451 C1452 1.389 1_455 S
C1452 C1451 1.389 1_655 S
C1452 C1453 1.387 . S
C1453 H1438 0.930 . S
C1453 C1448 1.390 1_655 S
C1453 C1452 1.387 . S
H1454 C1466 0.930 . S
H1455 C1468 0.930 1_565 S
H1456 C1469 0.930 . S
H1457 C1473 0.959 . S
H1458 C1473 0.959 . S
H1459 C1473 0.961 . S
H1460 C1474 0.960 . S
H1461 C1474 0.961 . S
H1462 C1474 0.959 . S
H1463 C1477 0.929 . S
H1464 C1478 0.931 . S
H1465 C1480 0.930 . S
C1466 H1454 0.930 . S
C1466 C1467 1.399 . S
C1466 C1471 1.399 . S
C1467 C1466 1.399 . S
C1467 C1468 1.376 . S
C1468 H1455 0.930 1_545 S
C1468 C1467 1.376 . S
C1468 C1469 1.388 1_545 S
C1469 H1456 0.930 . S
C1469 C1468 1.388 1_565 S
C1469 C1470 1.378 1_565 S
C1470 C1469 1.378 1_545 S
C1470 C1471 1.419 . S
C1470 C1476 1.456 1_545 S
C1471 C1466 1.399 . S
C1471 C1470 1.419 . S
C1471 C1472 1.516 . S
C1472 C1471 1.516 . S
C1472 C1473 1.502 . S
C1472 C1474 1.561 . S
C1472 C1475 1.526 . S
C1473 H1457 0.959 . S
C1473 H1458 0.959 . S
C1473 H1459 0.961 . S
C1473 C1472 1.502 . S
C1474 H1460 0.960 . S
C1474 H1461 0.961 . S
C1474 H1462 0.959 . S
C1474 C1472 1.561 . S
C1475 C1472 1.526 . S
C1475 C1476 1.396 1_545 S
C1475 C1480 1.390 . S
C1476 C1470 1.456 1_565 S
C1476 C1475 1.396 1_565 S
C1476 C1477 1.399 . S
C1477 H1463 0.929 . S
C1477 C1476 1.399 . S
C1477 C1478 1.385 . S
C1478 H1464 0.931 . S
C1478 C1477 1.385 . S
C1478 C1479 1.389 . S
C1479 C1478 1.389 . S
C1479 C1480 1.387 1_565 S
C1480 H1465 0.930 . S
C1480 C1475 1.390 . S
C1480 C1479 1.387 1_545 S
H1481 C1493 0.930 . S
H1482 C1495 0.930 . S
H1483 C1496 0.930 . S
H1484 C1500 0.959 . S
H1485 C1500 0.959 . S
H1486 C1500 0.961 . S
H1487 C1501 0.960 . S
H1488 C1501 0.961 . S
H1489 C1501 0.959 . S
H1490 C1504 0.929 . S
H1491 C1505 0.931 . S
H1492 C1507 0.930 . S
C1493 H1481 0.930 . S
C1493 C1494 1.399 . S
C1493 C1498 1.399 . S
C1494 C1493 1.399 . S
C1494 C1495 1.376 . S
C1495 H1482 0.930 . S
C1495 C1494 1.376 . S
C1495 C1496 1.388 . S
C1496 H1483 0.930 . S
C1496 C1495 1.388 . S
C1496 C1497 1.390 . S
C1497 C1496 1.390 . S
C1497 C1498 1.394 . S
C1497 C1503 1.465 . S
C1498 C1493 1.399 . S
C1498 C1497 1.394 . S
C1498 C1499 1.516 . S
C1499 C1498 1.516 . S
C1499 C1500 1.502 . S
C1499 C1501 1.561 . S
C1499 C1502 1.526 . S
C1500 H1484 0.959 . S
C1500 H1485 0.959 . S
C1500 H1486 0.961 . S
C1500 C1499 1.502 . S
C1501 H1487 0.960 . S
C1501 H1488 0.961 . S
C1501 H1489 0.959 . S
C1501 C1499 1.561 . S
C1502 C1499 1.526 . S
C1502 C1503 1.396 . S
C1502 C1507 1.390 . S
C1503 C1497 1.465 . S
C1503 C1502 1.396 . S
C1503 C1504 1.399 . S
C1504 H1490 0.929 . S
C1504 C1503 1.399 . S
C1504 C1505 1.385 . S
C1505 H1491 0.931 . S
C1505 C1504 1.385 . S
C1505 C1506 1.389 . S
C1506 C1505 1.389 . S
C1506 C1507 1.387 . S
C1507 H1492 0.930 . S
C1507 C1502 1.390 . S
C1507 C1506 1.387 . S
H1508 C1520 0.930 1_455 S
H1509 C1522 0.930 . S
H1510 C1523 0.930 . S
H1511 C1527 0.959 . S
H1512 C1527 0.959 . S
H1513 C1527 0.961 . S
H1514 C1528 0.960 . S
H1515 C1528 0.961 . S
H1516 C1528 0.959 . S
H1517 C1531 0.929 . S
H1518 C1532 0.931 . S
H1519 C1534 0.930 . S
C1520 H1508 0.930 1_655 S
C1520 C1521 1.399 . S
C1520 C1525 1.399 . S
C1521 C1520 1.399 . S
C1521 C1522 1.376 . S
C1522 H1509 0.930 . S
C1522 C1521 1.376 . S
C1522 C1523 1.388 . S
C1523 H1510 0.930 . S
C1523 C1522 1.388 . S
C1523 C1524 1.390 . S
C1524 C1523 1.390 . S
C1524 C1525 1.394 . S
C1524 C1530 1.465 . S
C1525 C1520 1.399 . S
C1525 C1524 1.394 . S
C1525 C1526 1.516 . S
C1526 C1525 1.516 . S
C1526 C1527 1.502 1_655 S
C1526 C1528 1.561 . S
C1526 C1529 1.526 . S
C1527 H1511 0.959 . S
C1527 H1512 0.959 . S
C1527 H1513 0.961 . S
C1527 C1526 1.502 1_455 S
C1528 H1514 0.960 . S
C1528 H1515 0.961 . S
C1528 H1516 0.959 . S
C1528 C1526 1.561 . S
C1529 C1526 1.526 . S
C1529 C1530 1.396 . S
C1529 C1534 1.390 . S
C1530 C1524 1.465 . S
C1530 C1529 1.396 . S
C1530 C1531 1.399 . S
C1531 H1517 0.929 . S
C1531 C1530 1.399 . S
C1531 C1532 1.385 . S
C1532 H1518 0.931 . S
C1532 C1531 1.385 . S
C1532 C1533 1.389 . S
C1533 C1532 1.389 . S
C1533 C1534 1.387 . S
C1534 H1519 0.930 . S
C1534 C1529 1.390 . S
C1534 C1533 1.387 . S
H1535 C1547 0.930 . S
H1536 C1549 0.930 . S
H1537 C1550 0.930 1_455 S
H1538 C1554 0.959 . S
H1539 C1554 0.959 . S
H1540 C1554 0.961 . S
H1541 C1555 0.957 1_545 S
H1542 C1555 0.961 . S
H1543 C1555 0.959 . S
H1544 C1558 0.929 . S
H1545 C1559 0.931 . S
H1546 C1561 0.930 . S
C1547 H1535 0.930 . S
C1547 C1548 1.399 . S
C1547 C1552 1.399 . S
C1548 C1547 1.399 . S
C1548 C1549 1.376 1_545 S
C1549 H1536 0.930 . S
C1549 C1548 1.376 1_565 S
C1549 C1550 1.388 . S
C1550 H1537 0.930 1_655 S
C1550 C1549 1.388 . S
C1550 C1551 1.390 . S
C1551 C1550 1.390 . S
C1551 C1552 1.394 1_565 S
C1551 C1557 1.465 . S
C1552 C1547 1.399 . S
C1552 C1551 1.394 1_545 S
C1552 C1553 1.516 . S
C1553 C1552 1.516 . S
C1553 C1554 1.502 . S
C1553 C1555 1.561 1_545 S
C1553 C1556 1.526 1_545 S
C1554 H1538 0.959 . S
C1554 H1539 0.959 . S
C1554 H1540 0.961 . S
C1554 C1553 1.502 . S
C1555 H1541 0.957 1_565 S
C1555 H1542 0.961 . S
C1555 H1543 0.959 . S
C1555 C1553 1.561 1_565 S
C1556 C1553 1.526 1_565 S
C1556 C1557 1.396 . S
C1556 C1561 1.390 . S
C1557 C1551 1.465 . S
C1557 C1556 1.396 . S
C1557 C1558 1.399 1_655 S
C1558 H1544 0.929 . S
C1558 C1557 1.399 1_455 S
C1558 C1559 1.385 . S
C1559 H1545 0.931 . S
C1559 C1558 1.385 . S
C1559 C1560 1.389 . S
C1560 C1559 1.389 . S
C1560 C1561 1.387 1_455 S
C1561 H1546 0.930 . S
C1561 C1556 1.390 . S
C1561 C1560 1.387 1_655 S
H1562 C1574 0.930 . S
H1563 C1576 0.930 . S
H1564 C1577 0.930 . S
H1565 C1581 0.959 1_565 S
H1566 C1581 0.959 . S
H1567 C1581 0.961 . S
H1568 C1582 0.960 . S
H1569 C1582 0.961 . S
H1570 C1582 0.959 . S
H1571 C1585 0.929 . S
H1572 C1586 0.934 . S
H1573 C1588 0.930 . S
C1574 H1562 0.930 . S
C1574 C1575 1.399 . S
C1574 C1579 1.399 . S
C1575 C1574 1.399 . S
C1575 C1576 1.376 . S
C1576 H1563 0.930 . S
C1576 C1575 1.376 . S
C1576 C1577 1.388 . S
C1577 H1564 0.930 . S
C1577 C1576 1.388 . S
C1577 C1578 1.390 . S
C1578 C1577 1.390 . S
C1578 C1579 1.394 . S
C1578 C1584 1.465 . S
C1579 C1574 1.399 . S
C1579 C1578 1.394 . S
C1579 C1580 1.516 1_565 S
C1580 C1579 1.516 1_545 S
C1580 C1581 1.502 . S
C1580 C1582 1.561 . S
C1580 C1583 1.526 . S
C1581 H1565 0.959 1_545 S
C1581 H1566 0.959 . S
C1581 H1567 0.961 . S
C1581 C1580 1.502 . S
C1582 H1568 0.960 . S
C1582 H1569 0.961 . S
C1582 H1570 0.959 . S
C1582 C1580 1.561 . S
C1583 C1580 1.526 . S
C1583 C1584 1.396 1_545 S
C1583 C1588 1.390 . S
C1584 C1578 1.465 . S
C1584 C1583 1.396 1_565 S
C1584 C1585 1.399 . S
C1585 H1571 0.929 . S
C1585 C1584 1.399 . S
C1585 C1586 1.390 . S
C1586 H1572 0.934 . S
C1586 C1585 1.390 . S
C1586 C1587 1.381 1_565 S
C1587 C1586 1.381 1_545 S
C1587 C1588 1.387 . S
C1588 H1573 0.930 . S
C1588 C1583 1.390 . S
C1588 C1587 1.387 . S
H1589 C1601 0.930 . S
H1590 C1603 0.930 . S
H1591 C1604 0.930 . S
H1592 C1608 0.959 . S
H1593 C1608 0.959 . S
H1594 C1608 0.961 . S
H1595 C1609 0.960 . S
H1596 C1609 0.961 . S
H1597 C1609 0.959 . S
H1598 C1612 0.929 . S
H1599 C1613 0.931 . S
H1600 C1615 0.930 . S
C1601 H1589 0.930 . S
C1601 C1602 1.399 . S
C1601 C1606 1.399 . S
C1602 C1601 1.399 . S
C1602 C1603 1.376 . S
C1603 H1590 0.930 . S
C1603 C1602 1.376 . S
C1603 C1604 1.388 . S
C1604 H1591 0.930 . S
C1604 C1603 1.388 . S
C1604 C1605 1.390 . S
C1605 C1604 1.390 . S
C1605 C1606 1.394 . S
C1605 C1611 1.465 . S
C1606 C1601 1.399 . S
C1606 C1605 1.394 . S
C1606 C1607 1.516 . S
C1607 C1606 1.516 . S
C1607 C1608 1.502 . S
C1607 C1609 1.561 . S
C1607 C1610 1.526 . S
C1608 H1592 0.959 . S
C1608 H1593 0.959 . S
C1608 H1594 0.961 . S
C1608 C1607 1.502 . S
C1609 H1595 0.960 . S
C1609 H1596 0.961 . S
C1609 H1597 0.959 . S
C1609 C1607 1.561 . S
C1610 C1607 1.526 . S
C1610 C1611 1.396 . S
C1610 C1615 1.390 . S
C1611 C1605 1.465 . S
C1611 C1610 1.396 . S
C1611 C1612 1.399 . S
C1612 H1598 0.929 . S
C1612 C1611 1.399 . S
C1612 C1613 1.385 . S
C1613 H1599 0.931 . S
C1613 C1612 1.385 . S
C1613 C1614 1.389 . S
C1614 C1613 1.389 . S
C1614 C1615 1.387 . S
C1615 H1600 0.930 . S
C1615 C1610 1.390 . S
C1615 C1614 1.387 . S
C333 C79 2.006 . S
C345 C12 1.972 . S
C360 C2 1.605 . S
C372 C32 1.608 . S
C387 C52 1.680 . S
C399 C22 1.687 . S
C414 C42 1.910 . S
C426 C69 1.844 . S
C441 C92 1.844 . S
C453 C102 1.811 . S
C468 C112 1.856 . S
C480 C122 1.870 . S
C495 C132 1.986 . S
C507 C142 1.968 . S
C522 C82 1.773 . S
C534 C152 1.859 . S
C549 C169 1.980 . S
C561 C238 1.999 . S
C576 C164 1.658 . S
C588 C189 1.644 . S
C603 C184 1.642 . S
C615 C209 1.629 . S
C630 C204 1.904 . S
C642 C232 1.881 . S
C657 C249 1.804 . S
C669 C264 1.763 . S
C684 C284 1.864 . S
C696 C269 1.838 . S
C711 C304 2.005 . S
C723 C289 2.021 . S
C738 C309 1.802 . S
C750 C244 1.824 . S
C765 C18 1.850 . S
C777 C98 1.853 . S
C792 C118 1.734 . S
C804 C38 1.723 . S
C819 C58 2.233 . S
C831 C138 2.226 . S
C846 C64 1.253 . S
C858 C158 1.288 . S
C873 C259 1.848 . S
C885 C179 1.849 . S
C900 C279 1.733 . S
C912 C199 1.729 . S
C927 C219 2.227 . S
C939 C299 2.230 . S
C954 C319 1.299 . S
C966 C222 1.224 . S
C981 C9 1.108 . S
C993 C49 1.105 . S
C1008 C29 0.907 . S
C1020 C72 0.828 . S
C1035 C129 1.285 . S
C1047 C89 1.217 . S
C1062 C149 1.180 . S
C1074 C109 1.103 . S
C1089 C212 1.074 . S
C1101 C172 1.149 . S
C1116 C229 0.808 . S
C1128 C192 0.879 . S
C1143 C252 1.279 . S
C1155 C292 1.226 . S
C1170 C272 1.057 . S
C1182 C312 1.188 . S
C1197 C178 1.461 . S
C1209 C19 1.502 . S
C1224 C198 1.430 . S
C1236 C39 1.419 . S
C1251 C218 1.805 . S
C1263 C59 1.784 . S
C1278 C62 0.882 . S
C1290 C224 1.055 . S
C1305 C258 1.425 . S
C1317 C99 1.410 . S
C1332 C278 1.277 . S
C1344 C119 1.347 . S
C1359 C298 1.552 . S
C1371 C139 1.602 . S
C1386 C318 1.410 . S
C1398 C159 1.346 . S
C1413 C144 0.850 1_455 S
C1425 C4 0.860 . S
C1440 C84 0.900 . S
C1452 C24 0.827 . S
C1467 C104 0.774 . S
C1479 C44 0.799 . S
C1494 C124 0.821 . S
C1506 C78 1.010 . S
C1521 C302 0.842 1_655 S
C1533 C162 0.888 . S
C1548 C242 0.895 . S
C1560 C182 0.889 . S
C1575 C262 0.855 . S
C1587 C202 0.871 . S
C1602 C239 1.103 . S
C1614 C282 0.887 . S
