# Generated by pormake.
# Topology fcu, (12)-cn, num edge types: 1
# Building blocks:
#     Node 0, Type 0, BuildingBlock: ZALLEG_clean_sbu_0, # of connection points: 12
#     Node 1, Type 0, BuildingBlock: ZALLEG_clean_sbu_0, # of connection points: 12
#     Node 2, Type 0, BuildingBlock: ZALLEG_clean_sbu_0, # of connection points: 12
#     Node 3, Type 0, BuildingBlock: ZALLEG_clean_sbu_0, # of connection points: 12
#     Edge 4, Type (0, 0), BuildingBlock: EYOCIG_clean_linker_4, # of connection points: 2
#     Edge 5, Type (0, 0), BuildingBlock: EYOCIG_clean_linker_4, # of connection points: 2
#     Edge 6, Type (0, 0), BuildingBlock: EYOCIG_clean_linker_4, # of connection points: 2
#     Edge 7, Type (0, 0), BuildingBlock: EYOCIG_clean_linker_4, # of connection points: 2
#     Edge 8, Type (0, 0), BuildingBlock: EYOCIG_clean_linker_4, # of connection points: 2
#     Edge 9, Type (0, 0), BuildingBlock: EYOCIG_clean_linker_4, # of connection points: 2
#     Edge 10, Type (0, 0), BuildingBlock: EYOCIG_clean_linker_4, # of connection points: 2
#     Edge 11, Type (0, 0), BuildingBlock: EYOCIG_clean_linker_4, # of connection points: 2
#     Edge 12, Type (0, 0), BuildingBlock: EYOCIG_clean_linker_4, # of connection points: 2
#     Edge 13, Type (0, 0), BuildingBlock: EYOCIG_clean_linker_4, # of connection points: 2
#     Edge 14, Type (0, 0), BuildingBlock: EYOCIG_clean_linker_4, # of connection points: 2
#     Edge 15, Type (0, 0), BuildingBlock: EYOCIG_clean_linker_4, # of connection points: 2
#     Edge 16, Type (0, 0), BuildingBlock: EYOCIG_clean_linker_4, # of connection points: 2
#     Edge 17, Type (0, 0), BuildingBlock: EYOCIG_clean_linker_4, # of connection points: 2
#     Edge 18, Type (0, 0), BuildingBlock: EYOCIG_clean_linker_4, # of connection points: 2
#     Edge 19, Type (0, 0), BuildingBlock: EYOCIG_clean_linker_4, # of connection points: 2
#     Edge 20, Type (0, 0), BuildingBlock: EYOCIG_clean_linker_4, # of connection points: 2
#     Edge 21, Type (0, 0), BuildingBlock: EYOCIG_clean_linker_4, # of connection points: 2
#     Edge 22, Type (0, 0), BuildingBlock: EYOCIG_clean_linker_4, # of connection points: 2
#     Edge 23, Type (0, 0), BuildingBlock: EYOCIG_clean_linker_4, # of connection points: 2
#     Edge 24, Type (0, 0), BuildingBlock: EYOCIG_clean_linker_4, # of connection points: 2
#     Edge 25, Type (0, 0), BuildingBlock: EYOCIG_clean_linker_4, # of connection points: 2
#     Edge 26, Type (0, 0), BuildingBlock: EYOCIG_clean_linker_4, # of connection points: 2
#     Edge 27, Type (0, 0), BuildingBlock: EYOCIG_clean_linker_4, # of connection points: 2
# Relax obj value: 0.000
# Max RMSD: 0.000
# Mean RMSD: 0.000
data_MOF--net-fcu--node1-ZALLEG_clean_sbu_0--edge1-EYOCIG_clean_linker_4
_symmetry_space_group_name_H-M    P1
_symmetry_Int_Tables_number       1
_symmetry_cell_setting            triclinic
loop_
_symmetry_equiv_pos_as_xyz
'x, y, z'
_cell_length_a     22.080974
_cell_length_b     22.079483
_cell_length_c     22.083899
_cell_angle_alpha  90.00186
_cell_angle_beta   90.002641
_cell_angle_gamma 89.996955
loop_
_atom_site_label
_atom_site_type_symbol
_atom_site_fract_x
_atom_site_fract_y
_atom_site_fract_z
_atom_type_partial_charge
H0 H 0.93385 0.93404 0.93396 0.0
O1 O 0.95974 0.95987 0.95967 0.0
Tb2 Tb 0.90613 1.01532 0.01547 0.0
Tb3 Tb 0.01532 0.90608 1.01503 0.0
Tb4 Tb 0.01545 0.01556 0.90616 0.0
O5 O 0.95964 0.95957 0.0709 0.0
O6 O 0.95972 0.07107 0.95982 0.0
O7 O 0.95988 0.07086 0.07088 0.0
O8 O 0.07094 0.95942 0.0711 0.0
O9 O 0.07117 0.07103 0.95988 0.0
O10 O 0.07113 0.95964 0.95958 0.0
H11 H 0.93369 0.93392 0.09675 0.0
H12 H 0.93376 0.09684 0.9341 0.0
Tb13 Tb 1.01524 1.01512 0.12453 0.0
Tb14 Tb 0.01548 0.12466 0.01539 0.0
H15 H 0.93407 0.09665 0.0967 0.0
H16 H 0.09664 0.93369 0.09712 0.0
Tb17 Tb 0.1246 1.01511 0.01566 0.0
H18 H 0.09696 0.09695 0.93413 0.0
H19 H 0.09694 0.93377 0.93379 0.0
O20 O 0.07089 0.07087 0.07109 0.0
H21 H 0.09652 0.09675 0.09702 0.0
O22 O 0.85416 0.93005 0.01574 0.0
O23 O 0.17709 0.09972 0.01602 0.0
O24 O 0.17645 0.92988 0.01622 0.0
O25 O 0.8541 0.10032 0.01591 0.0
O26 O 1.01482 0.85442 0.92947 0.0
O27 O 1.01487 0.17658 0.10057 0.0
O28 O 1.01504 0.17672 0.9302 0.0
O29 O 1.01474 0.85359 0.09967 0.0
O30 O 0.92996 1.01513 0.8544 0.0
O31 O 0.09982 0.01573 0.17704 0.0
O32 O 0.93052 0.01574 0.17686 0.0
O33 O 0.10106 0.01576 0.85458 0.0
O34 O 0.93071 0.85376 0.01527 0.0
O35 O 0.10087 0.17638 0.01591 0.0
O36 O 0.93047 0.17684 0.01591 0.0
O37 O 0.09992 0.85361 0.01565 0.0
O38 O 0.85408 0.01595 0.10051 0.0
O39 O 0.17728 0.01535 0.93123 0.0
O40 O 0.17645 0.01581 0.10089 0.0
O41 O 0.85363 1.01504 0.93093 0.0
O42 O 1.01474 0.92984 0.17627 0.0
O43 O 1.01492 0.10026 0.85383 0.0
O44 O 1.01497 0.93121 0.85345 0.0
O45 O 1.01468 0.09995 0.17681 0.0
C46 C 0.87301 0.87233 0.01565 0.0
C47 C 0.15856 0.15745 0.01627 0.0
C48 C 0.15762 0.87219 0.01633 0.0
C49 C 0.87276 0.15804 0.01626 0.0
C50 C 1.01453 0.87346 0.87181 0.0
C51 C 1.01438 0.1577 0.15824 0.0
C52 C 1.01468 0.15795 0.87248 0.0
C53 C 1.01441 0.87216 0.1574 0.0
C54 C 0.87222 1.0148 0.87323 0.0
C55 C 0.15755 0.0162 0.15854 0.0
C56 C 0.87283 0.01623 0.1582 0.0
C57 C 0.15878 0.0157 0.8735 0.0
H58 H 0.93374 0.43442 0.43337 0.0
O59 O 0.95969 0.46004 0.45924 0.0
Tb60 Tb 0.90619 0.51568 0.51489 0.0
Tb61 Tb 1.01497 0.40614 0.51485 0.0
Tb62 Tb 0.01574 0.51552 0.40587 0.0
O63 O 0.95946 0.45978 0.57064 0.0
O64 O 0.96005 0.5712 0.45952 0.0
O65 O 0.96002 0.57081 0.5707 0.0
O66 O 0.07066 0.45944 0.57079 0.0
O67 O 0.07141 0.57109 0.45955 0.0
O68 O 0.07105 0.45948 0.45939 0.0
H69 H 0.93344 0.43405 0.59634 0.0
H70 H 0.93416 0.59715 0.43393 0.0
Tb71 Tb 1.01526 0.51504 0.62459 0.0
Tb72 Tb 0.01572 0.62455 0.51531 0.0
H73 H 0.9342 0.59663 0.59648 0.0
H74 H 0.09632 0.43352 0.59665 0.0
Tb75 Tb 0.12449 0.51502 0.51531 0.0
H76 H 0.09727 0.59698 0.43384 0.0
H77 H 0.09681 0.43352 0.43364 0.0
O78 O 0.07102 0.57069 0.57109 0.0
H79 H 0.09677 0.59641 0.59706 0.0
O80 O 0.8537 0.431 0.51461 0.0
O81 O 0.17692 0.59976 0.51601 0.0
O82 O 0.17619 0.42977 0.51582 0.0
O83 O 0.8543 0.6009 0.51563 0.0
O84 O 1.01452 0.35418 0.42981 0.0
O85 O 1.015 0.67662 0.60026 0.0
O86 O 1.01506 0.67678 0.43031 0.0
O87 O 1.0146 0.35356 0.59928 0.0
O88 O 0.93112 0.51602 0.35333 0.0
O89 O 0.10083 0.51478 0.6763 0.0
O90 O 0.92988 0.51575 0.67634 0.0
O91 O 0.10116 0.5153 0.35421 0.0
O92 O 0.92978 0.35427 0.51466 0.0
O93 O 0.10082 0.67648 0.51599 0.0
O94 O 0.93101 0.67702 0.51593 0.0
O95 O 0.09962 0.35352 0.51544 0.0
O96 O 0.85374 0.51598 0.59958 0.0
O97 O 0.17722 0.51495 0.43094 0.0
O98 O 0.17709 0.51469 0.59971 0.0
O99 O 0.85448 0.51621 0.42954 0.0
O100 O 1.01478 0.4295 0.67621 0.0
O101 O 1.01517 0.60042 0.35382 0.0
O102 O 1.01494 0.43072 0.35354 0.0
O103 O 1.01486 0.60016 0.6767 0.0
C104 C 0.87214 0.37323 0.51449 0.0
C105 C 0.15846 0.65754 0.5164 0.0
C106 C 0.15736 0.3721 0.516 0.0
C107 C 0.87324 0.65856 0.5162 0.0
C108 C 1.01433 0.37299 0.37215 0.0
C109 C 1.01454 0.65791 0.65796 0.0
C110 C 1.01469 0.65809 0.37257 0.0
C111 C 1.01448 0.37186 0.65706 0.0
C112 C 0.87338 0.5164 0.37186 0.0
C113 C 0.15856 0.51455 0.6574 0.0
C114 C 0.87221 0.51624 0.65736 0.0
C115 C 0.15881 0.51505 0.3732 0.0
H116 H 0.43351 0.93393 0.43377 0.0
O117 O 0.45947 0.9597 0.45951 0.0
Tb118 Tb 0.40602 0.01547 0.51531 0.0
Tb119 Tb 0.51515 0.9062 0.51516 0.0
Tb120 Tb 0.51549 1.01509 0.40598 0.0
O121 O 0.45961 0.9598 0.57089 0.0
O122 O 0.4597 0.07093 0.45952 0.0
O123 O 0.45971 0.07099 0.57094 0.0
O124 O 0.57083 0.95972 0.57085 0.0
O125 O 0.57087 0.07086 0.45973 0.0
O126 O 0.57118 0.95959 0.45962 0.0
H127 H 0.43381 0.93408 0.5968 0.0
H128 H 0.43394 0.09694 0.43383 0.0
Tb129 Tb 0.51535 1.01523 0.62449 0.0
Tb130 Tb 0.51514 0.12457 0.51513 0.0
H131 H 0.43407 0.09687 0.59686 0.0
H132 H 0.59651 0.93385 0.59673 0.0
Tb133 Tb 0.62458 0.01546 0.51548 0.0
H134 H 0.59666 0.09672 0.43396 0.0
H135 H 0.59704 0.93374 0.43386 0.0
O136 O 0.57089 0.07103 0.57092 0.0
H137 H 0.59686 0.09675 0.59668 0.0
O138 O 0.35362 0.93076 0.51581 0.0
O139 O 0.67612 0.1011 0.51528 0.0
O140 O 0.67663 0.93035 0.51597 0.0
O141 O 0.35379 0.10027 0.51585 0.0
O142 O 0.5149 0.85377 0.43059 0.0
O143 O 0.51581 0.17669 0.60015 0.0
O144 O 0.51537 0.17616 0.42956 0.0
O145 O 0.51509 0.85346 0.59946 0.0
O146 O 0.43059 0.01589 0.35377 0.0
O147 O 0.60012 1.01468 0.67681 0.0
O148 O 0.43071 0.01563 0.67686 0.0
O149 O 0.60099 0.01565 0.35433 0.0
O150 O 0.42997 0.85428 0.51583 0.0
O151 O 0.59946 0.1773 0.51485 0.0
O152 O 0.43013 0.17674 0.5157 0.0
O153 O 0.60009 0.85402 0.51577 0.0
O154 O 0.35411 0.0157 0.60061 0.0
O155 O 0.67716 0.0159 0.43102 0.0
O156 O 0.67666 1.01508 0.60055 0.0
O157 O 0.35408 0.01613 0.43014 0.0
O158 O 0.5151 0.92964 0.6761 0.0
O159 O 0.51579 0.09952 0.35334 0.0
O160 O 0.51517 0.92991 0.35398 0.0
O161 O 0.51601 0.10025 0.67658 0.0
C162 C 0.37227 0.87304 0.51622 0.0
C163 C 0.65718 0.15882 0.51489 0.0
C164 C 0.65783 0.87264 0.51627 0.0
C165 C 0.37243 0.15797 0.51611 0.0
C166 C 0.51486 0.87224 0.37288 0.0
C167 C 0.51627 0.15796 0.65787 0.0
C168 C 0.51578 0.15724 0.37186 0.0
C169 C 0.51501 0.87192 0.65717 0.0
C170 C 0.37287 0.01643 0.37244 0.0
C171 C 0.65784 1.01458 0.65823 0.0
C172 C 0.37299 0.01582 0.65832 0.0
C173 C 0.65868 0.01613 0.37329 0.0
H174 H 0.43381 0.43355 0.93397 0.0
O175 O 0.45958 0.45952 0.95969 0.0
Tb176 Tb 0.40612 0.51529 0.0154 0.0
Tb177 Tb 0.51523 0.40606 0.01538 0.0
Tb178 Tb 0.5154 0.51505 0.90612 0.0
O179 O 0.45969 0.45961 0.07106 0.0
O180 O 0.4598 0.57089 0.95977 0.0
O181 O 0.45998 0.5708 0.07091 0.0
O182 O 0.57112 0.45943 0.07099 0.0
O183 O 0.57097 0.57077 0.95975 0.0
O184 O 0.57108 0.45938 0.95961 0.0
H185 H 0.43399 0.43382 0.097 0.0
H186 H 0.43386 0.59669 0.93404 0.0
Tb187 Tb 0.51558 0.51506 0.1245 0.0
Tb188 Tb 0.51552 0.62461 0.01537 0.0
H189 H 0.43421 0.59653 0.09684 0.0
H190 H 0.59697 0.43375 0.09691 0.0
Tb191 Tb 0.62462 0.51499 0.01527 0.0
H192 H 0.59673 0.59669 0.93399 0.0
H193 H 0.59705 0.43364 0.93387 0.0
O194 O 0.57108 0.57078 0.07086 0.0
H195 H 0.59684 0.59664 0.09668 0.0
O196 O 0.35379 0.43041 0.01598 0.0
O197 O 0.6773 0.59946 0.01543 0.0
O198 O 0.67633 0.42963 0.01577 0.0
O199 O 0.35416 0.60032 0.01592 0.0
O200 O 0.51563 0.35357 0.93087 0.0
O201 O 0.51541 0.67623 0.10093 0.0
O202 O 0.51526 0.67653 0.93001 0.0
O203 O 0.51552 0.35369 0.09997 0.0
O204 O 0.43065 0.51472 0.85385 0.0
O205 O 0.60054 0.51579 0.17659 0.0
O206 O 0.43103 0.51512 0.17698 0.0
O207 O 0.60038 0.51593 0.85397 0.0
O208 O 0.43025 0.35404 0.01589 0.0
O209 O 0.60109 0.67615 0.01548 0.0
O210 O 0.43048 0.6769 0.01604 0.0
O211 O 0.59971 0.35344 0.01581 0.0
O212 O 0.35436 0.5154 0.10079 0.0
O213 O 0.6768 0.51562 0.93036 0.0
O214 O 0.67684 0.51563 0.1001 0.0
O215 O 0.35409 0.51504 0.93014 0.0
O216 O 0.51591 0.42993 0.1765 0.0
O217 O 0.51498 0.59982 0.85382 0.0
O218 O 0.51597 0.42971 0.85422 0.0
O219 O 0.51521 0.59951 0.17707 0.0
C220 C 0.37255 0.3727 0.01627 0.0
C221 C 0.65879 0.65721 0.01557 0.0
C222 C 0.65743 0.37196 0.01612 0.0
C223 C 0.37277 0.65805 0.01635 0.0
C224 C 0.51614 0.37202 0.87315 0.0
C225 C 0.51514 0.65724 0.15861 0.0
C226 C 0.51499 0.65758 0.87231 0.0
C227 C 0.51592 0.37224 0.15766 0.0
C228 C 0.37293 0.51467 0.87242 0.0
C229 C 0.65822 0.5161 0.1578 0.0
C230 C 0.3733 0.51526 0.15848 0.0
C231 C 0.6581 0.51622 0.87266 0.0
C232 C 1.01185 0.24246 0.24279 0.0
C233 C 1.013 0.20357 0.20438 0.0
C234 C 1.01184 0.28813 0.28772 0.0
C235 C 1.01298 0.32704 0.3261 0.0
C236 C 0.78883 0.01836 0.2435 0.0
C237 C 0.82695 0.01739 0.20433 0.0
C238 C 0.74379 0.01832 0.28906 0.0
C239 C 0.70502 0.01732 0.32759 0.0
C240 C 1.01226 0.78689 0.24145 0.0
C241 C 1.01324 0.82594 0.20321 0.0
C242 C 1.01226 0.74189 0.28705 0.0
C243 C 1.01337 0.70395 0.3264 0.0
C244 C 0.28783 0.01892 0.28816 0.0
C245 C 0.32687 0.01778 0.32642 0.0
C246 C 0.24212 0.01885 0.24327 0.0
C247 C 0.20335 0.01764 0.20475 0.0
C248 C 1.01228 0.78894 0.78695 0.0
C249 C 1.01331 0.82782 0.82539 0.0
C250 C 1.01228 0.74321 0.74204 0.0
C251 C 1.01331 0.70408 0.70385 0.0
C252 C 0.24457 0.01657 0.7899 0.0
C253 C 0.20519 0.01617 0.82784 0.0
C254 C 0.28961 0.01661 0.74431 0.0
C255 C 0.32734 0.01625 0.70473 0.0
C256 C 1.01297 0.28659 0.74114 0.0
C257 C 1.01366 0.32531 0.70255 0.0
C258 C 1.01295 0.24175 0.78691 0.0
C259 C 1.01374 0.20375 0.82622 0.0
C260 C 0.7416 1.01274 0.74384 0.0
C261 C 0.70362 1.01358 0.70451 0.0
C262 C 0.78672 1.0128 0.78935 0.0
C263 C 0.8259 1.01371 0.82749 0.0
C264 C 0.28887 0.28707 0.01829 0.0
C265 C 0.32677 0.32646 0.01737 0.0
C266 C 0.24391 0.24143 0.01826 0.0
C267 C 0.20486 0.20318 0.01735 0.0
C268 C 0.2882 0.74284 0.01879 0.0
C269 C 0.32655 0.70389 0.01767 0.0
C270 C 0.24263 0.78789 0.01884 0.0
C271 C 0.20355 0.8261 0.01769 0.0
C272 C 0.74143 0.28664 0.01831 0.0
C273 C 0.70317 0.32569 0.01731 0.0
C274 C 0.7871 0.24171 0.01834 0.0
C275 C 0.8265 0.20382 0.01739 0.0
C276 C 0.78969 0.78632 0.01653 0.0
C277 C 0.82738 0.82593 0.01613 0.0
C278 C 0.74463 0.74075 0.01647 0.0
C279 C 0.70518 0.70289 0.01606 0.0
C280 C 0.7423 0.5187 0.78749 0.0
C281 C 0.70409 0.51757 0.82659 0.0
C282 C 0.78723 0.51865 0.74178 0.0
C283 C 0.82588 0.51755 0.7031 0.0
C284 C 0.2443 0.51328 0.74104 0.0
C285 C 0.20499 0.51386 0.70304 0.0
C286 C 0.28943 0.51326 0.78654 0.0
C287 C 0.32725 0.5139 0.82603 0.0
C288 C 0.24456 0.51477 0.28963 0.0
C289 C 0.20525 0.5149 0.32761 0.0
C290 C 0.28979 0.51485 0.24427 0.0
C291 C 0.32768 0.51504 0.20487 0.0
C292 C 0.74365 0.51829 0.24166 0.0
C293 C 0.7044 0.51729 0.20362 0.0
C294 C 0.78924 0.51829 0.28667 0.0
C295 C 0.82758 0.51743 0.32563 0.0
C296 C 0.28793 0.78804 0.51873 0.0
C297 C 0.32622 0.82705 0.51758 0.0
C298 C 0.24307 0.74228 0.51876 0.0
C299 C 0.20467 0.70336 0.51768 0.0
C300 C 0.24128 0.28673 0.51818 0.0
C301 C 0.20322 0.32596 0.51719 0.0
C302 C 0.28682 0.24167 0.5182 0.0
C303 C 0.32621 0.20377 0.51724 0.0
C304 C 0.78849 0.74323 0.51869 0.0
C305 C 0.8274 0.70481 0.51756 0.0
C306 C 0.74274 0.78814 0.5187 0.0
C307 C 0.70379 0.82652 0.51759 0.0
C308 C 0.74082 0.24455 0.51374 0.0
C309 C 0.70281 0.20524 0.51427 0.0
C310 C 0.78631 0.28969 0.51365 0.0
C311 C 0.82574 0.32757 0.51403 0.0
C312 C 0.51847 0.28709 0.78873 0.0
C313 C 0.51741 0.32566 0.82747 0.0
C314 C 0.51851 0.24215 0.74304 0.0
C315 C 0.51749 0.20391 0.70397 0.0
C316 C 0.51436 0.78609 0.74073 0.0
C317 C 0.51466 0.82546 0.70277 0.0
C318 C 0.51431 0.74096 0.78626 0.0
C319 C 0.51462 0.7032 0.82582 0.0
C320 C 0.51396 0.74077 0.24441 0.0
C321 C 0.5145 0.70281 0.20508 0.0
C322 C 0.51388 0.78628 0.28951 0.0
C323 C 0.51433 0.8258 0.32729 0.0
C324 C 0.51718 0.24099 0.28627 0.0
C325 C 0.51654 0.20292 0.3255 0.0
C326 C 0.51724 0.28647 0.24117 0.0
C327 C 0.51664 0.3259 0.20331 0.0
loop_
_geom_bond_atom_site_label_1
_geom_bond_atom_site_label_2
_geom_bond_distance
_geom_bond_site_symmetry_2
_ccdc_geom_bond_type
H0 O1 0.850 . S
O1 H0 0.850 . S
O1 Tb2 2.341 1_566 S
O1 Tb3 2.341 1_656 S
O1 Tb4 2.341 1_665 S
Tb2 O1 2.341 1_544 S
Tb2 O5 2.341 1_545 S
Tb2 O6 2.341 1_554 S
Tb2 O7 2.341 . S
Tb2 O22 2.344 1_545 S
Tb2 O25 2.344 . S
Tb2 O38 2.344 . S
Tb2 O41 2.344 1_554 S
Tb3 O1 2.341 1_454 S
Tb3 O5 2.341 1_455 S
Tb3 O8 2.341 . S
Tb3 O10 2.341 1_554 S
Tb3 O26 2.344 1_554 S
Tb3 O29 2.344 . S
Tb3 O34 2.344 1_455 S
Tb3 O37 2.344 . S
Tb4 O1 2.341 1_445 S
Tb4 O6 2.341 1_455 S
Tb4 O9 2.341 . S
Tb4 O10 2.341 1_545 S
Tb4 O30 2.344 1_455 S
Tb4 O33 2.344 . S
Tb4 O43 2.344 . S
Tb4 O44 2.344 1_545 S
O5 Tb2 2.341 1_565 S
O5 Tb3 2.341 1_655 S
O5 H11 0.850 . S
O5 Tb13 2.341 1_665 S
O6 Tb2 2.341 1_556 S
O6 Tb4 2.341 1_655 S
O6 H12 0.850 . S
O6 Tb14 2.341 1_656 S
O7 Tb2 2.341 . S
O7 Tb13 2.341 1_655 S
O7 Tb14 2.341 1_655 S
O7 H15 0.850 . S
O8 Tb3 2.341 . S
O8 Tb13 2.341 1_565 S
O8 H16 0.850 . S
O8 Tb17 2.341 1_565 S
O9 Tb4 2.341 . S
O9 Tb14 2.341 1_556 S
O9 Tb17 2.341 1_556 S
O9 H18 0.850 . S
O10 Tb3 2.341 1_556 S
O10 Tb4 2.341 1_565 S
O10 Tb17 2.341 1_566 S
O10 H19 0.850 . S
H11 O5 0.850 . S
H12 O6 0.850 . S
Tb13 O5 2.341 1_445 S
Tb13 O7 2.341 1_455 S
Tb13 O8 2.341 1_545 S
Tb13 O20 2.341 . S
Tb13 O31 2.344 . S
Tb13 O32 2.344 1_455 S
Tb13 O42 2.344 1_545 S
Tb13 O45 2.344 . S
Tb14 O6 2.341 1_454 S
Tb14 O7 2.341 1_455 S
Tb14 O9 2.341 1_554 S
Tb14 O20 2.341 . S
Tb14 O27 2.344 . S
Tb14 O28 2.344 1_554 S
Tb14 O35 2.344 . S
Tb14 O36 2.344 1_455 S
H15 O7 0.850 . S
H16 O8 0.850 . S
Tb17 O8 2.341 1_545 S
Tb17 O9 2.341 1_554 S
Tb17 O10 2.341 1_544 S
Tb17 O20 2.341 . S
Tb17 O23 2.344 . S
Tb17 O24 2.344 1_545 S
Tb17 O39 2.344 1_554 S
Tb17 O40 2.344 . S
H18 O9 0.850 . S
H19 O10 0.850 . S
O20 Tb13 2.341 . S
O20 Tb14 2.341 . S
O20 Tb17 2.341 . S
O20 H21 0.850 . S
H21 O20 0.850 . S
O22 Tb2 2.344 1_565 S
O22 C46 1.272 . S
O23 Tb17 2.344 . S
O23 C47 1.272 . S
O24 Tb17 2.344 1_565 S
O24 C48 1.272 . S
O25 Tb2 2.344 . S
O25 C49 1.272 . S
O26 Tb3 2.344 1_556 S
O26 C50 1.272 . S
O27 Tb14 2.344 . S
O27 C51 1.272 . S
O28 Tb14 2.344 1_556 S
O28 C52 1.272 . S
O29 Tb3 2.344 . S
O29 C53 1.272 . S
O30 Tb4 2.344 1_655 S
O30 C54 1.272 . S
O31 Tb13 2.344 . S
O31 C55 1.272 . S
O32 Tb13 2.344 1_655 S
O32 C56 1.272 . S
O33 Tb4 2.344 . S
O33 C57 1.272 . S
O34 Tb3 2.344 1_655 S
O34 C46 1.272 . S
O35 Tb14 2.344 . S
O35 C47 1.272 . S
O36 Tb14 2.344 1_655 S
O36 C49 1.272 . S
O37 Tb3 2.344 . S
O37 C48 1.272 . S
O38 Tb2 2.344 . S
O38 C56 1.272 . S
O39 Tb17 2.344 1_556 S
O39 C57 1.272 . S
O40 Tb17 2.344 . S
O40 C55 1.272 . S
O41 Tb2 2.344 1_556 S
O41 C54 1.272 . S
O42 Tb13 2.344 1_565 S
O42 C53 1.272 . S
O43 Tb4 2.344 . S
O43 C52 1.272 . S
O44 Tb4 2.344 1_565 S
O44 C50 1.272 . S
O45 Tb13 2.344 . S
O45 C51 1.272 . S
C46 O22 1.272 . S
C46 O34 1.272 . S
C47 O23 1.272 . S
C47 O35 1.272 . S
C48 O24 1.272 . S
C48 O37 1.272 . S
C49 O25 1.272 . S
C49 O36 1.272 . S
C50 O26 1.272 . S
C50 O44 1.272 . S
C51 O27 1.272 . S
C51 O45 1.272 . S
C52 O28 1.272 . S
C52 O43 1.272 . S
C53 O29 1.272 . S
C53 O42 1.272 . S
C54 O30 1.272 . S
C54 O41 1.272 . S
C55 O31 1.272 . S
C55 O40 1.272 . S
C56 O32 1.272 . S
C56 O38 1.272 . S
C57 O33 1.272 . S
C57 O39 1.272 . S
H58 O59 0.850 . S
O59 H58 0.850 . S
O59 Tb60 2.341 . S
O59 Tb61 2.341 1_655 S
O59 Tb62 2.341 1_655 S
Tb60 O59 2.341 . S
Tb60 O63 2.341 . S
Tb60 O64 2.341 . S
Tb60 O65 2.341 . S
Tb60 O80 2.344 . S
Tb60 O83 2.344 . S
Tb60 O96 2.344 . S
Tb60 O99 2.344 . S
Tb61 O59 2.341 1_455 S
Tb61 O63 2.341 1_455 S
Tb61 O66 2.341 . S
Tb61 O68 2.341 . S
Tb61 O84 2.344 . S
Tb61 O87 2.344 . S
Tb61 O92 2.344 1_455 S
Tb61 O95 2.344 . S
Tb62 O59 2.341 1_455 S
Tb62 O64 2.341 1_455 S
Tb62 O67 2.341 . S
Tb62 O68 2.341 . S
Tb62 O88 2.344 1_455 S
Tb62 O91 2.344 . S
Tb62 O101 2.344 . S
Tb62 O102 2.344 . S
O63 Tb60 2.341 . S
O63 Tb61 2.341 1_655 S
O63 H69 0.850 . S
O63 Tb71 2.341 1_655 S
O64 Tb60 2.341 . S
O64 Tb62 2.341 1_655 S
O64 H70 0.850 . S
O64 Tb72 2.341 1_655 S
O65 Tb60 2.341 . S
O65 Tb71 2.341 1_655 S
O65 Tb72 2.341 1_655 S
O65 H73 0.850 . S
O66 Tb61 2.341 . S
O66 Tb71 2.341 . S
O66 H74 0.850 . S
O66 Tb75 2.341 . S
O67 Tb62 2.341 . S
O67 Tb72 2.341 . S
O67 Tb75 2.341 . S
O67 H76 0.850 . S
O68 Tb61 2.341 . S
O68 Tb62 2.341 . S
O68 Tb75 2.341 . S
O68 H77 0.850 . S
H69 O63 0.850 . S
H70 O64 0.850 . S
Tb71 O63 2.341 1_455 S
Tb71 O65 2.341 1_455 S
Tb71 O66 2.341 . S
Tb71 O78 2.341 . S
Tb71 O89 2.344 . S
Tb71 O90 2.344 1_455 S
Tb71 O100 2.344 . S
Tb71 O103 2.344 . S
Tb72 O64 2.341 1_455 S
Tb72 O65 2.341 1_455 S
Tb72 O67 2.341 . S
Tb72 O78 2.341 . S
Tb72 O85 2.344 . S
Tb72 O86 2.344 . S
Tb72 O93 2.344 . S
Tb72 O94 2.344 1_455 S
H73 O65 0.850 . S
H74 O66 0.850 . S
Tb75 O66 2.341 . S
Tb75 O67 2.341 . S
Tb75 O68 2.341 . S
Tb75 O78 2.341 . S
Tb75 O81 2.344 . S
Tb75 O82 2.344 . S
Tb75 O97 2.344 . S
Tb75 O98 2.344 . S
H76 O67 0.850 . S
H77 O68 0.850 . S
O78 Tb71 2.341 . S
O78 Tb72 2.341 . S
O78 Tb75 2.341 . S
O78 H79 0.850 . S
H79 O78 0.850 . S
O80 Tb60 2.344 . S
O80 C104 1.272 . S
O81 Tb75 2.344 . S
O81 C105 1.272 . S
O82 Tb75 2.344 . S
O82 C106 1.272 . S
O83 Tb60 2.344 . S
O83 C107 1.272 . S
O84 Tb61 2.344 . S
O84 C108 1.272 . S
O85 Tb72 2.344 . S
O85 C109 1.272 . S
O86 Tb72 2.344 . S
O86 C110 1.272 . S
O87 Tb61 2.344 . S
O87 C111 1.272 . S
O88 Tb62 2.344 1_655 S
O88 C112 1.272 . S
O89 Tb71 2.344 . S
O89 C113 1.272 . S
O90 Tb71 2.344 1_655 S
O90 C114 1.272 . S
O91 Tb62 2.344 . S
O91 C115 1.272 . S
O92 Tb61 2.344 1_655 S
O92 C104 1.272 . S
O93 Tb72 2.344 . S
O93 C105 1.272 . S
O94 Tb72 2.344 1_655 S
O94 C107 1.272 . S
O95 Tb61 2.344 . S
O95 C106 1.272 . S
O96 Tb60 2.344 . S
O96 C114 1.272 . S
O97 Tb75 2.344 . S
O97 C115 1.272 . S
O98 Tb75 2.344 . S
O98 C113 1.272 . S
O99 Tb60 2.344 . S
O99 C112 1.272 . S
O100 Tb71 2.344 . S
O100 C111 1.272 . S
O101 Tb62 2.344 . S
O101 C110 1.272 . S
O102 Tb62 2.344 . S
O102 C108 1.272 . S
O103 Tb71 2.344 . S
O103 C109 1.272 . S
C104 O80 1.272 . S
C104 O92 1.272 . S
C105 O81 1.272 . S
C105 O93 1.272 . S
C106 O82 1.272 . S
C106 O95 1.272 . S
C107 O83 1.272 . S
C107 O94 1.272 . S
C108 O84 1.272 . S
C108 O102 1.272 . S
C109 O85 1.272 . S
C109 O103 1.272 . S
C110 O86 1.272 . S
C110 O101 1.272 . S
C111 O87 1.272 . S
C111 O100 1.272 . S
C112 O88 1.272 . S
C112 O99 1.272 . S
C113 O89 1.272 . S
C113 O98 1.272 . S
C114 O90 1.272 . S
C114 O96 1.272 . S
C115 O91 1.272 . S
C115 O97 1.272 . S
H116 O117 0.850 . S
O117 H116 0.850 . S
O117 Tb118 2.341 1_565 S
O117 Tb119 2.341 . S
O117 Tb120 2.341 1_565 S
Tb118 O117 2.341 1_545 S
Tb118 O121 2.341 1_545 S
Tb118 O122 2.341 . S
Tb118 O123 2.341 . S
Tb118 O138 2.344 1_545 S
Tb118 O141 2.344 . S
Tb118 O154 2.344 . S
Tb118 O157 2.344 . S
Tb119 O117 2.341 . S
Tb119 O121 2.341 . S
Tb119 O124 2.341 . S
Tb119 O126 2.341 . S
Tb119 O142 2.344 . S
Tb119 O145 2.344 . S
Tb119 O150 2.344 . S
Tb119 O153 2.344 . S
Tb120 O117 2.341 1_545 S
Tb120 O122 2.341 . S
Tb120 O125 2.341 . S
Tb120 O126 2.341 1_545 S
Tb120 O146 2.344 . S
Tb120 O149 2.344 . S
Tb120 O159 2.344 . S
Tb120 O160 2.344 1_545 S
O121 Tb118 2.341 1_565 S
O121 Tb119 2.341 . S
O121 H127 0.850 . S
O121 Tb129 2.341 1_565 S
O122 Tb118 2.341 . S
O122 Tb120 2.341 . S
O122 H128 0.850 . S
O122 Tb130 2.341 . S
O123 Tb118 2.341 . S
O123 Tb129 2.341 . S
O123 Tb130 2.341 . S
O123 H131 0.850 . S
O124 Tb119 2.341 . S
O124 Tb129 2.341 1_565 S
O124 H132 0.850 . S
O124 Tb133 2.341 1_565 S
O125 Tb120 2.341 . S
O125 Tb130 2.341 . S
O125 Tb133 2.341 . S
O125 H134 0.850 . S
O126 Tb119 2.341 . S
O126 Tb120 2.341 1_565 S
O126 Tb133 2.341 1_565 S
O126 H135 0.850 . S
H127 O121 0.850 . S
H128 O122 0.850 . S
Tb129 O121 2.341 1_545 S
Tb129 O123 2.341 . S
Tb129 O124 2.341 1_545 S
Tb129 O136 2.341 . S
Tb129 O147 2.344 . S
Tb129 O148 2.344 . S
Tb129 O158 2.344 1_545 S
Tb129 O161 2.344 . S
Tb130 O122 2.341 . S
Tb130 O123 2.341 . S
Tb130 O125 2.341 . S
Tb130 O136 2.341 . S
Tb130 O143 2.344 . S
Tb130 O144 2.344 . S
Tb130 O151 2.344 . S
Tb130 O152 2.344 . S
H131 O123 0.850 . S
H132 O124 0.850 . S
Tb133 O124 2.341 1_545 S
Tb133 O125 2.341 . S
Tb133 O126 2.341 1_545 S
Tb133 O136 2.341 . S
Tb133 O139 2.344 . S
Tb133 O140 2.344 1_545 S
Tb133 O155 2.344 . S
Tb133 O156 2.344 . S
H134 O125 0.850 . S
H135 O126 0.850 . S
O136 Tb129 2.341 . S
O136 Tb130 2.341 . S
O136 Tb133 2.341 . S
O136 H137 0.850 . S
H137 O136 0.850 . S
O138 Tb118 2.344 1_565 S
O138 C162 1.272 . S
O139 Tb133 2.344 . S
O139 C163 1.272 . S
O140 Tb133 2.344 1_565 S
O140 C164 1.272 . S
O141 Tb118 2.344 . S
O141 C165 1.272 . S
O142 Tb119 2.344 . S
O142 C166 1.272 . S
O143 Tb130 2.344 . S
O143 C167 1.272 . S
O144 Tb130 2.344 . S
O144 C168 1.272 . S
O145 Tb119 2.344 . S
O145 C169 1.272 . S
O146 Tb120 2.344 . S
O146 C170 1.272 . S
O147 Tb129 2.344 . S
O147 C171 1.272 . S
O148 Tb129 2.344 . S
O148 C172 1.272 . S
O149 Tb120 2.344 . S
O149 C173 1.272 . S
O150 Tb119 2.344 . S
O150 C162 1.272 . S
O151 Tb130 2.344 . S
O151 C163 1.272 . S
O152 Tb130 2.344 . S
O152 C165 1.272 . S
O153 Tb119 2.344 . S
O153 C164 1.272 . S
O154 Tb118 2.344 . S
O154 C172 1.272 . S
O155 Tb133 2.344 . S
O155 C173 1.272 . S
O156 Tb133 2.344 . S
O156 C171 1.272 . S
O157 Tb118 2.344 . S
O157 C170 1.272 . S
O158 Tb129 2.344 1_565 S
O158 C169 1.272 . S
O159 Tb120 2.344 . S
O159 C168 1.272 . S
O160 Tb120 2.344 1_565 S
O160 C166 1.272 . S
O161 Tb129 2.344 . S
O161 C167 1.272 . S
C162 O138 1.272 . S
C162 O150 1.272 . S
C163 O139 1.272 . S
C163 O151 1.272 . S
C164 O140 1.272 . S
C164 O153 1.272 . S
C165 O141 1.272 . S
C165 O152 1.272 . S
C166 O142 1.272 . S
C166 O160 1.272 . S
C167 O143 1.272 . S
C167 O161 1.272 . S
C168 O144 1.272 . S
C168 O159 1.272 . S
C169 O145 1.272 . S
C169 O158 1.272 . S
C170 O146 1.272 . S
C170 O157 1.272 . S
C171 O147 1.272 . S
C171 O156 1.272 . S
C172 O148 1.272 . S
C172 O154 1.272 . S
C173 O149 1.272 . S
C173 O155 1.272 . S
H174 O175 0.850 . S
O175 H174 0.850 . S
O175 Tb176 2.341 1_556 S
O175 Tb177 2.341 1_556 S
O175 Tb178 2.341 . S
Tb176 O175 2.341 1_554 S
Tb176 O179 2.341 . S
Tb176 O180 2.341 1_554 S
Tb176 O181 2.341 . S
Tb176 O196 2.344 . S
Tb176 O199 2.344 . S
Tb176 O212 2.344 . S
Tb176 O215 2.344 1_554 S
Tb177 O175 2.341 1_554 S
Tb177 O179 2.341 . S
Tb177 O182 2.341 . S
Tb177 O184 2.341 1_554 S
Tb177 O200 2.344 1_554 S
Tb177 O203 2.344 . S
Tb177 O208 2.344 . S
Tb177 O211 2.344 . S
Tb178 O175 2.341 . S
Tb178 O180 2.341 . S
Tb178 O183 2.341 . S
Tb178 O184 2.341 . S
Tb178 O204 2.344 . S
Tb178 O207 2.344 . S
Tb178 O217 2.344 . S
Tb178 O218 2.344 . S
O179 Tb176 2.341 . S
O179 Tb177 2.341 . S
O179 H185 0.850 . S
O179 Tb187 2.341 . S
O180 Tb176 2.341 1_556 S
O180 Tb178 2.341 . S
O180 H186 0.850 . S
O180 Tb188 2.341 1_556 S
O181 Tb176 2.341 . S
O181 Tb187 2.341 . S
O181 Tb188 2.341 . S
O181 H189 0.850 . S
O182 Tb177 2.341 . S
O182 Tb187 2.341 . S
O182 H190 0.850 . S
O182 Tb191 2.341 . S
O183 Tb178 2.341 . S
O183 Tb188 2.341 1_556 S
O183 Tb191 2.341 1_556 S
O183 H192 0.850 . S
O184 Tb177 2.341 1_556 S
O184 Tb178 2.341 . S
O184 Tb191 2.341 1_556 S
O184 H193 0.850 . S
H185 O179 0.850 . S
H186 O180 0.850 . S
Tb187 O179 2.341 . S
Tb187 O181 2.341 . S
Tb187 O182 2.341 . S
Tb187 O194 2.341 . S
Tb187 O205 2.344 . S
Tb187 O206 2.344 . S
Tb187 O216 2.344 . S
Tb187 O219 2.344 . S
Tb188 O180 2.341 1_554 S
Tb188 O181 2.341 . S
Tb188 O183 2.341 1_554 S
Tb188 O194 2.341 . S
Tb188 O201 2.344 . S
Tb188 O202 2.344 1_554 S
Tb188 O209 2.344 . S
Tb188 O210 2.344 . S
H189 O181 0.850 . S
H190 O182 0.850 . S
Tb191 O182 2.341 . S
Tb191 O183 2.341 1_554 S
Tb191 O184 2.341 1_554 S
Tb191 O194 2.341 . S
Tb191 O197 2.344 . S
Tb191 O198 2.344 . S
Tb191 O213 2.344 1_554 S
Tb191 O214 2.344 . S
H192 O183 0.850 . S
H193 O184 0.850 . S
O194 Tb187 2.341 . S
O194 Tb188 2.341 . S
O194 Tb191 2.341 . S
O194 H195 0.850 . S
H195 O194 0.850 . S
O196 Tb176 2.344 . S
O196 C220 1.272 . S
O197 Tb191 2.344 . S
O197 C221 1.272 . S
O198 Tb191 2.344 . S
O198 C222 1.272 . S
O199 Tb176 2.344 . S
O199 C223 1.272 . S
O200 Tb177 2.344 1_556 S
O200 C224 1.272 . S
O201 Tb188 2.344 . S
O201 C225 1.272 . S
O202 Tb188 2.344 1_556 S
O202 C226 1.272 . S
O203 Tb177 2.344 . S
O203 C227 1.272 . S
O204 Tb178 2.344 . S
O204 C228 1.272 . S
O205 Tb187 2.344 . S
O205 C229 1.272 . S
O206 Tb187 2.344 . S
O206 C230 1.272 . S
O207 Tb178 2.344 . S
O207 C231 1.272 . S
O208 Tb177 2.344 . S
O208 C220 1.272 . S
O209 Tb188 2.344 . S
O209 C221 1.272 . S
O210 Tb188 2.344 . S
O210 C223 1.272 . S
O211 Tb177 2.344 . S
O211 C222 1.272 . S
O212 Tb176 2.344 . S
O212 C230 1.272 . S
O213 Tb191 2.344 1_556 S
O213 C231 1.272 . S
O214 Tb191 2.344 . S
O214 C229 1.272 . S
O215 Tb176 2.344 1_556 S
O215 C228 1.272 . S
O216 Tb187 2.344 . S
O216 C227 1.272 . S
O217 Tb178 2.344 . S
O217 C226 1.272 . S
O218 Tb178 2.344 . S
O218 C224 1.272 . S
O219 Tb187 2.344 . S
O219 C225 1.272 . S
C220 O196 1.272 . S
C220 O208 1.272 . S
C221 O197 1.272 . S
C221 O209 1.272 . S
C222 O198 1.272 . S
C222 O211 1.272 . S
C223 O199 1.272 . S
C223 O210 1.272 . S
C224 O200 1.272 . S
C224 O218 1.272 . S
C225 O201 1.272 . S
C225 O219 1.272 . S
C226 O202 1.272 . S
C226 O217 1.272 . S
C227 O203 1.272 . S
C227 O216 1.272 . S
C228 O204 1.272 . S
C228 O215 1.272 . S
C229 O205 1.272 . S
C229 O214 1.272 . S
C230 O206 1.272 . S
C230 O212 1.272 . S
C231 O207 1.272 . S
C231 O213 1.272 . S
C232 C233 1.170 . S
C232 C234 1.380 . S
C233 C232 1.170 . S
C234 C232 1.380 . S
C234 C235 1.170 . S
C235 C234 1.170 . S
C236 C237 1.170 . S
C236 C238 1.380 . S
C237 C236 1.170 . S
C238 C236 1.380 . S
C238 C239 1.170 . S
C239 C238 1.170 . S
C240 C241 1.170 . S
C240 C242 1.380 . S
C241 C240 1.170 . S
C242 C240 1.380 . S
C242 C243 1.170 . S
C243 C242 1.170 . S
C244 C245 1.170 . S
C244 C246 1.380 . S
C245 C244 1.170 . S
C246 C244 1.380 . S
C246 C247 1.170 . S
C247 C246 1.170 . S
C248 C249 1.170 . S
C248 C250 1.380 . S
C249 C248 1.170 . S
C250 C248 1.380 . S
C250 C251 1.170 . S
C251 C250 1.170 . S
C252 C253 1.170 . S
C252 C254 1.380 . S
C253 C252 1.170 . S
C254 C252 1.380 . S
C254 C255 1.170 . S
C255 C254 1.170 . S
C256 C257 1.170 . S
C256 C258 1.380 . S
C257 C256 1.170 . S
C258 C256 1.380 . S
C258 C259 1.170 . S
C259 C258 1.170 . S
C260 C261 1.170 . S
C260 C262 1.380 . S
C261 C260 1.170 . S
C262 C260 1.380 . S
C262 C263 1.170 . S
C263 C262 1.170 . S
C264 C265 1.170 . S
C264 C266 1.380 . S
C265 C264 1.170 . S
C266 C264 1.380 . S
C266 C267 1.170 . S
C267 C266 1.170 . S
C268 C269 1.170 . S
C268 C270 1.380 . S
C269 C268 1.170 . S
C270 C268 1.380 . S
C270 C271 1.170 . S
C271 C270 1.170 . S
C272 C273 1.170 . S
C272 C274 1.380 . S
C273 C272 1.170 . S
C274 C272 1.380 . S
C274 C275 1.170 . S
C275 C274 1.170 . S
C276 C277 1.170 . S
C276 C278 1.380 . S
C277 C276 1.170 . S
C278 C276 1.380 . S
C278 C279 1.170 . S
C279 C278 1.170 . S
C280 C281 1.170 . S
C280 C282 1.380 . S
C281 C280 1.170 . S
C282 C280 1.380 . S
C282 C283 1.170 . S
C283 C282 1.170 . S
C284 C285 1.170 . S
C284 C286 1.380 . S
C285 C284 1.170 . S
C286 C284 1.380 . S
C286 C287 1.170 . S
C287 C286 1.170 . S
C288 C289 1.170 . S
C288 C290 1.380 . S
C289 C288 1.170 . S
C290 C288 1.380 . S
C290 C291 1.170 . S
C291 C290 1.170 . S
C292 C293 1.170 . S
C292 C294 1.380 . S
C293 C292 1.170 . S
C294 C292 1.380 . S
C294 C295 1.170 . S
C295 C294 1.170 . S
C296 C297 1.170 . S
C296 C298 1.380 . S
C297 C296 1.170 . S
C298 C296 1.380 . S
C298 C299 1.170 . S
C299 C298 1.170 . S
C300 C301 1.170 . S
C300 C302 1.380 . S
C301 C300 1.170 . S
C302 C300 1.380 . S
C302 C303 1.170 . S
C303 C302 1.170 . S
C304 C305 1.170 . S
C304 C306 1.380 . S
C305 C304 1.170 . S
C306 C304 1.380 . S
C306 C307 1.170 . S
C307 C306 1.170 . S
C308 C309 1.170 . S
C308 C310 1.380 . S
C309 C308 1.170 . S
C310 C308 1.380 . S
C310 C311 1.170 . S
C311 C310 1.170 . S
C312 C313 1.170 . S
C312 C314 1.380 . S
C313 C312 1.170 . S
C314 C312 1.380 . S
C314 C315 1.170 . S
C315 C314 1.170 . S
C316 C317 1.170 . S
C316 C318 1.380 . S
C317 C316 1.170 . S
C318 C316 1.380 . S
C318 C319 1.170 . S
C319 C318 1.170 . S
C320 C321 1.170 . S
C320 C322 1.380 . S
C321 C320 1.170 . S
C322 C320 1.380 . S
C322 C323 1.170 . S
C323 C322 1.170 . S
C324 C325 1.170 . S
C324 C326 1.380 . S
C325 C324 1.170 . S
C326 C324 1.380 . S
C326 C327 1.170 . S
C327 C326 1.170 . S
C233 C51 1.498 1_655 S
C235 C108 1.495 1_655 S
C237 C56 1.498 . S
C239 C173 1.498 . S
C241 C53 1.498 1_655 S
C243 C110 1.498 1_655 S
C245 C170 1.498 . S
C247 C55 1.495 . S
C249 C50 1.498 1_655 S
C251 C109 1.501 1_655 S
C253 C57 1.498 . S
C255 C172 1.498 . S
C257 C111 1.498 1_655 S
C259 C52 1.498 1_655 S
C261 C171 1.498 1_565 S
C263 C54 1.501 1_565 S
C265 C220 1.498 . S
C267 C47 1.495 . S
C269 C223 1.498 . S
C271 C48 1.498 . S
C273 C222 1.498 . S
C275 C49 1.498 . S
C277 C46 1.498 . S
C279 C221 1.501 . S
C281 C231 1.498 . S
C283 C114 1.501 . S
C285 C113 1.498 . S
C287 C228 1.498 . S
C289 C115 1.498 . S
C291 C230 1.495 . S
C293 C229 1.498 . S
C295 C112 1.498 . S
C297 C162 1.498 . S
C299 C105 1.498 . S
C301 C106 1.498 . S
C303 C165 1.495 . S
C305 C107 1.498 . S
C307 C164 1.501 . S
C309 C163 1.498 . S
C311 C104 1.498 . S
C313 C224 1.498 . S
C315 C167 1.498 . S
C317 C169 1.498 . S
C319 C226 1.501 . S
C321 C225 1.498 . S
C323 C166 1.498 . S
C325 C168 1.498 . S
C327 C227 1.495 . S
