# Generated by pormake.
# Topology snl, (6)-cn, num edge types: 1
# Building blocks:
#     Node 0, Type 0, BuildingBlock: NUHQIS_clean_sbu_0, # of connection points: 6
#     Node 1, Type 0, BuildingBlock: NUHQIS_clean_sbu_0, # of connection points: 6
#     Node 2, Type 0, BuildingBlock: NUHQIS_clean_sbu_0, # of connection points: 6
#     Node 3, Type 0, BuildingBlock: NUHQIS_clean_sbu_0, # of connection points: 6
#     Node 4, Type 0, BuildingBlock: NUHQIS_clean_sbu_0, # of connection points: 6
#     Node 5, Type 0, BuildingBlock: NUHQIS_clean_sbu_0, # of connection points: 6
#     Node 6, Type 0, BuildingBlock: NUHQIS_clean_sbu_0, # of connection points: 6
#     Node 7, Type 0, BuildingBlock: NUHQIS_clean_sbu_0, # of connection points: 6
#     Node 8, Type 0, BuildingBlock: NUHQIS_clean_sbu_0, # of connection points: 6
#     Node 9, Type 0, BuildingBlock: NUHQIS_clean_sbu_0, # of connection points: 6
#     Node 10, Type 0, BuildingBlock: NUHQIS_clean_sbu_0, # of connection points: 6
#     Node 11, Type 0, BuildingBlock: NUHQIS_clean_sbu_0, # of connection points: 6
#     Node 12, Type 0, BuildingBlock: NUHQIS_clean_sbu_0, # of connection points: 6
#     Node 13, Type 0, BuildingBlock: NUHQIS_clean_sbu_0, # of connection points: 6
#     Node 14, Type 0, BuildingBlock: NUHQIS_clean_sbu_0, # of connection points: 6
#     Node 15, Type 0, BuildingBlock: NUHQIS_clean_sbu_0, # of connection points: 6
#     Edge 16, Type (0, 0), BuildingBlock: KIFKEQ_clean_linker_1, # of connection points: 2
#     Edge 17, Type (0, 0), BuildingBlock: KIFKEQ_clean_linker_1, # of connection points: 2
#     Edge 18, Type (0, 0), BuildingBlock: KIFKEQ_clean_linker_1, # of connection points: 2
#     Edge 19, Type (0, 0), BuildingBlock: KIFKEQ_clean_linker_1, # of connection points: 2
#     Edge 20, Type (0, 0), BuildingBlock: KIFKEQ_clean_linker_1, # of connection points: 2
#     Edge 21, Type (0, 0), BuildingBlock: KIFKEQ_clean_linker_1, # of connection points: 2
#     Edge 22, Type (0, 0), BuildingBlock: KIFKEQ_clean_linker_1, # of connection points: 2
#     Edge 23, Type (0, 0), BuildingBlock: KIFKEQ_clean_linker_1, # of connection points: 2
#     Edge 24, Type (0, 0), BuildingBlock: KIFKEQ_clean_linker_1, # of connection points: 2
#     Edge 25, Type (0, 0), BuildingBlock: KIFKEQ_clean_linker_1, # of connection points: 2
#     Edge 26, Type (0, 0), BuildingBlock: KIFKEQ_clean_linker_1, # of connection points: 2
#     Edge 27, Type (0, 0), BuildingBlock: KIFKEQ_clean_linker_1, # of connection points: 2
#     Edge 28, Type (0, 0), BuildingBlock: KIFKEQ_clean_linker_1, # of connection points: 2
#     Edge 29, Type (0, 0), BuildingBlock: KIFKEQ_clean_linker_1, # of connection points: 2
#     Edge 30, Type (0, 0), BuildingBlock: KIFKEQ_clean_linker_1, # of connection points: 2
#     Edge 31, Type (0, 0), BuildingBlock: KIFKEQ_clean_linker_1, # of connection points: 2
#     Edge 32, Type (0, 0), BuildingBlock: KIFKEQ_clean_linker_1, # of connection points: 2
#     Edge 33, Type (0, 0), BuildingBlock: KIFKEQ_clean_linker_1, # of connection points: 2
#     Edge 34, Type (0, 0), BuildingBlock: KIFKEQ_clean_linker_1, # of connection points: 2
#     Edge 35, Type (0, 0), BuildingBlock: KIFKEQ_clean_linker_1, # of connection points: 2
#     Edge 36, Type (0, 0), BuildingBlock: KIFKEQ_clean_linker_1, # of connection points: 2
#     Edge 37, Type (0, 0), BuildingBlock: KIFKEQ_clean_linker_1, # of connection points: 2
#     Edge 38, Type (0, 0), BuildingBlock: KIFKEQ_clean_linker_1, # of connection points: 2
#     Edge 39, Type (0, 0), BuildingBlock: KIFKEQ_clean_linker_1, # of connection points: 2
#     Edge 40, Type (0, 0), BuildingBlock: KIFKEQ_clean_linker_1, # of connection points: 2
#     Edge 41, Type (0, 0), BuildingBlock: KIFKEQ_clean_linker_1, # of connection points: 2
#     Edge 42, Type (0, 0), BuildingBlock: KIFKEQ_clean_linker_1, # of connection points: 2
#     Edge 43, Type (0, 0), BuildingBlock: KIFKEQ_clean_linker_1, # of connection points: 2
#     Edge 44, Type (0, 0), BuildingBlock: KIFKEQ_clean_linker_1, # of connection points: 2
#     Edge 45, Type (0, 0), BuildingBlock: KIFKEQ_clean_linker_1, # of connection points: 2
#     Edge 46, Type (0, 0), BuildingBlock: KIFKEQ_clean_linker_1, # of connection points: 2
#     Edge 47, Type (0, 0), BuildingBlock: KIFKEQ_clean_linker_1, # of connection points: 2
#     Edge 48, Type (0, 0), BuildingBlock: KIFKEQ_clean_linker_1, # of connection points: 2
#     Edge 49, Type (0, 0), BuildingBlock: KIFKEQ_clean_linker_1, # of connection points: 2
#     Edge 50, Type (0, 0), BuildingBlock: KIFKEQ_clean_linker_1, # of connection points: 2
#     Edge 51, Type (0, 0), BuildingBlock: KIFKEQ_clean_linker_1, # of connection points: 2
#     Edge 52, Type (0, 0), BuildingBlock: KIFKEQ_clean_linker_1, # of connection points: 2
#     Edge 53, Type (0, 0), BuildingBlock: KIFKEQ_clean_linker_1, # of connection points: 2
#     Edge 54, Type (0, 0), BuildingBlock: KIFKEQ_clean_linker_1, # of connection points: 2
#     Edge 55, Type (0, 0), BuildingBlock: KIFKEQ_clean_linker_1, # of connection points: 2
#     Edge 56, Type (0, 0), BuildingBlock: KIFKEQ_clean_linker_1, # of connection points: 2
#     Edge 57, Type (0, 0), BuildingBlock: KIFKEQ_clean_linker_1, # of connection points: 2
#     Edge 58, Type (0, 0), BuildingBlock: KIFKEQ_clean_linker_1, # of connection points: 2
#     Edge 59, Type (0, 0), BuildingBlock: KIFKEQ_clean_linker_1, # of connection points: 2
#     Edge 60, Type (0, 0), BuildingBlock: KIFKEQ_clean_linker_1, # of connection points: 2
#     Edge 61, Type (0, 0), BuildingBlock: KIFKEQ_clean_linker_1, # of connection points: 2
#     Edge 62, Type (0, 0), BuildingBlock: KIFKEQ_clean_linker_1, # of connection points: 2
#     Edge 63, Type (0, 0), BuildingBlock: KIFKEQ_clean_linker_1, # of connection points: 2
# Relax obj value: 0.182
# Max RMSD: 0.251
# Mean RMSD: 0.224
data_MOF--net-snl--node1-NUHQIS_clean_sbu_0--edge1-KIFKEQ_clean_linker_1
_symmetry_space_group_name_H-M    P1
_symmetry_Int_Tables_number       1
_symmetry_cell_setting            triclinic
loop_
_symmetry_equiv_pos_as_xyz
'x, y, z'
_cell_length_a     59.127534
_cell_length_b     56.826784
_cell_length_c     25.876396
_cell_angle_alpha  85.195177
_cell_angle_beta   95.108905
_cell_angle_gamma 90.054965
loop_
_atom_site_label
_atom_site_type_symbol
_atom_site_fract_x
_atom_site_fract_y
_atom_site_fract_z
_atom_type_partial_charge
Tb0 Tb 0.12951 0.62237 0.21472 0.0
Eu1 Eu 0.14069 0.64767 0.09831 0.0
C2 C 0.09034 0.63792 0.13011 0.0
C3 C 0.13468 0.59236 0.1181 0.0
C4 C 0.12447 0.60787 0.35743 0.0
C5 C 0.1245 0.59412 0.449 0.0
C6 C 0.12185 0.58967 0.39642 0.0
C7 C 0.13017 0.63058 0.37172 0.0
C8 C 0.13272 0.63508 0.42432 0.0
C9 C 0.12973 0.61694 0.46365 0.0
C10 C 0.12019 0.6031 0.30227 0.0
O11 O 0.16627 0.62235 0.21666 0.0
O12 O 0.17276 0.65127 0.15182 0.0
O13 O 0.13452 0.67741 0.14718 0.0
O14 O 0.13771 0.65874 0.2308 0.0
C15 C 0.17966 0.6377 0.19403 0.0
O16 O 0.16329 0.65249 0.03604 0.0
O17 O 0.13071 0.67049 0.02778 0.0
O18 O 0.10361 0.6366 0.09229 0.0
O19 O 0.09896 0.63962 0.178 0.0
O20 O 0.12337 0.59543 0.15875 0.0
O21 O 0.14726 0.60908 0.09807 0.0
C22 C 0.13656 0.6779 0.19812 0.0
O23 O 0.10703 0.61809 0.27308 0.0
O24 O 0.13768 0.59739 0.27866 0.0
C25 C 0.1459 0.66029 0.95059 0.0
C26 C 0.14125 0.65029 0.84484 0.0
C27 C 0.15717 0.66692 0.86251 0.0
C28 C 0.15942 0.67186 0.91474 0.0
C29 C 0.13011 0.6435 0.93361 0.0
C30 C 0.12777 0.63857 0.88117 0.0
C31 C 0.14895 0.66579 1.00543 0.0
H32 H 0.12185 0.57981 0.47814 0.0
H33 H 0.11737 0.57206 0.38615 0.0
H34 H 0.13235 0.64487 0.34219 0.0
H35 H 0.13706 0.65277 0.43422 0.0
H36 H 0.16817 0.67595 0.83612 0.0
H37 H 0.17186 0.68471 0.92722 0.0
H38 H 0.11959 0.63426 0.96083 0.0
H39 H 0.1152 0.62582 0.869 0.0
Tb40 Tb 0.62954 0.91105 0.34406 0.0
Eu41 Eu 0.64549 0.88915 0.46509 0.0
C42 C 0.59314 0.89886 0.42497 0.0
C43 C 0.63613 0.94381 0.43734 0.0
C44 C 0.62426 0.9246 0.19844 0.0
C45 C 0.6242 0.94008 0.10794 0.0
C46 C 0.6201 0.94308 0.15941 0.0
C47 C 0.63314 0.90315 0.18556 0.0
C48 C 0.63718 0.90008 0.13397 0.0
C49 C 0.63248 0.91842 0.09431 0.0
C50 C 0.61811 0.92771 0.25148 0.0
O51 O 0.66629 0.91322 0.35332 0.0
O52 O 0.67481 0.88315 0.41671 0.0
O53 O 0.63297 0.85897 0.42061 0.0
O54 O 0.63779 0.87387 0.33693 0.0
C55 C 0.68049 0.89725 0.37701 0.0
O56 O 0.67055 0.88748 0.53281 0.0
O57 O 0.64011 0.86635 0.53498 0.0
O58 O 0.60847 0.8997 0.46494 0.0
O59 O 0.59892 0.89845 0.37718 0.0
O60 O 0.6236 0.93925 0.39466 0.0
O61 O 0.65037 0.92815 0.46165 0.0
C62 C 0.63454 0.85599 0.37131 0.0
O63 O 0.60826 0.90989 0.27505 0.0
O64 O 0.63324 0.9373 0.28279 0.0
C65 C 0.65589 0.87966 0.61456 0.0
C66 C 0.65126 0.89042 0.71784 0.0
C67 C 0.66882 0.87545 0.70672 0.0
C68 C 0.67108 0.87012 0.65562 0.0
C69 C 0.63849 0.89486 0.62514 0.0
C70 C 0.63615 0.90013 0.67636 0.0
C71 C 0.65839 0.87333 0.56127 0.0
H72 H 0.6208 0.95475 0.07879 0.0
H73 H 0.61333 0.9598 0.1686 0.0
H74 H 0.6365 0.88863 0.21514 0.0
H75 H 0.64336 0.8831 0.12499 0.0
H76 H 0.68059 0.86744 0.73769 0.0
H77 H 0.68461 0.85834 0.64819 0.0
H78 H 0.62669 0.90255 0.59385 0.0
H79 H 0.62261 0.91194 0.68345 0.0
Tb80 Tb 0.3678 0.39134 0.63599 0.0
Eu81 Eu 0.39202 0.39606 0.75433 0.0
C82 C 0.38169 0.34648 0.70996 0.0
C83 C 0.33768 0.39224 0.73203 0.0
C84 C 0.35684 0.3855 0.49194 0.0
C85 C 0.34716 0.36988 0.40822 0.0
C86 C 0.34241 0.3724 0.45946 0.0
C87 C 0.37657 0.39541 0.47293 0.0
C88 C 0.38125 0.39304 0.42157 0.0
C89 C 0.36639 0.38059 0.38822 0.0
C90 C 0.35006 0.39014 0.5437 0.0
O91 O 0.36262 0.42625 0.66039 0.0
O92 O 0.39726 0.42953 0.70264 0.0
O93 O 0.41958 0.38478 0.70783 0.0
O94 O 0.404 0.39713 0.62522 0.0
C95 C 0.38021 0.43921 0.67256 0.0
O96 O 0.39896 0.4177 0.81948 0.0
O97 O 0.41379 0.38264 0.82316 0.0
O98 O 0.37971 0.35845 0.75068 0.0
O99 O 0.38273 0.35724 0.66331 0.0
O100 O 0.34007 0.3845 0.6861 0.0
O101 O 0.35473 0.40096 0.76029 0.0
C102 C 0.42146 0.38987 0.65802 0.0
O103 O 0.35009 0.37226 0.57879 0.0
O104 O 0.35826 0.40911 0.56325 0.0
C105 C 0.40518 0.3968 0.90241 0.0
C106 C 0.39538 0.38958 1.00727 0.0
C107 C 0.41799 0.39107 0.9944 0.0
C108 C 0.42281 0.39468 0.94244 0.0
C109 C 0.38258 0.39498 0.91483 0.0
C110 C 0.37772 0.39148 0.96687 0.0
C111 C 0.41071 0.40122 0.84817 0.0
H112 H 0.33558 0.35976 0.38408 0.0
H113 H 0.32713 0.36456 0.47338 0.0
H114 H 0.38804 0.40559 0.49722 0.0
H115 H 0.39609 0.40173 0.40752 0.0
H116 H 0.43196 0.38995 0.02458 0.0
H117 H 0.44035 0.39606 0.93353 0.0
H118 H 0.36873 0.39641 0.88434 0.0
H119 H 0.36014 0.39014 0.97547 0.0
Tb120 Tb 0.88443 0.12798 0.84039 0.0
Eu121 Eu 0.879 0.15382 0.94939 0.0
C122 C 0.927 0.14326 0.90941 0.0
C123 C 0.88343 0.09746 0.94962 0.0
C124 C 0.89176 0.1155 0.70194 0.0
C125 C 0.89615 0.10335 0.61554 0.0
C126 C 0.89423 0.09766 0.6686 0.0
C127 C 0.89194 0.13922 0.68192 0.0
C128 C 0.89385 0.14495 0.62875 0.0
C129 C 0.89559 0.12705 0.5947 0.0
C130 C 0.88702 0.10886 0.75612 0.0
O131 O 0.8504 0.12259 0.86333 0.0
O132 O 0.84597 0.1576 0.89733 0.0
O133 O 0.88784 0.1826 0.8906 0.0
O134 O 0.87752 0.16528 0.81437 0.0
C135 C 0.83743 0.14031 0.8713 0.0
O136 O 0.85796 0.16144 1.01121 0.0
O137 O 0.89179 0.17611 1.01013 0.0
O138 O 0.91548 0.14122 0.95077 0.0
O139 O 0.91657 0.1445 0.86227 0.0
O140 O 0.89077 0.09946 0.90272 0.0
O141 O 0.87484 0.1153 0.97047 0.0
C142 C 0.88306 0.18385 0.84001 0.0
O143 O 0.90386 0.10958 0.7921 0.0
O144 O 0.86847 0.11769 0.77043 0.0
C145 C 0.87731 0.16823 0.09235 0.0
C146 C 0.88291 0.15862 0.20165 0.0
C147 C 0.8684 0.17693 0.1786 0.0
C148 C 0.86566 0.18166 0.12454 0.0
C149 C 0.89184 0.14993 0.11488 0.0
C150 C 0.89469 0.14522 0.16915 0.0
C151 C 0.87372 0.1735 0.03553 0.0
H152 H 0.89716 0.0891 0.59055 0.0
H153 H 0.89396 0.07925 0.68331 0.0
H154 H 0.89002 0.15324 0.70712 0.0
H155 H 0.89367 0.16338 0.6142 0.0
H156 H 0.85931 0.18779 0.20242 0.0
H157 H 0.85437 0.19586 0.10781 0.0
H158 H 0.90087 0.13925 0.09055 0.0
H159 H 0.90581 0.13086 0.18561 0.0
Tb160 Tb 0.13242 0.40918 0.84365 0.0
Eu161 Eu 0.14914 0.38816 0.96457 0.0
C162 C 0.09687 0.39485 0.92399 0.0
C163 C 0.13891 0.44224 0.93622 0.0
C164 C 0.1258 0.42289 0.6982 0.0
C165 C 0.12499 0.43844 0.60761 0.0
C166 C 0.12101 0.44128 0.65922 0.0
C167 C 0.13511 0.4017 0.68508 0.0
C168 C 0.13903 0.39879 0.63336 0.0
C169 C 0.13379 0.41705 0.59379 0.0
C170 C 0.12 0.42586 0.75156 0.0
O171 O 0.16921 0.41183 0.8512 0.0
O172 O 0.1788 0.38294 0.91686 0.0
O173 O 0.13873 0.35722 0.92023 0.0
O174 O 0.14192 0.37241 0.83581 0.0
C175 C 0.18397 0.39672 0.87619 0.0
O176 O 0.17388 0.38739 0.03277 0.0
O177 O 0.14385 0.36561 0.03485 0.0
O178 O 0.11191 0.39821 0.96325 0.0
O179 O 0.10293 0.39356 0.87676 0.0
O180 O 0.12582 0.43705 0.89481 0.0
O181 O 0.154 0.42713 0.95908 0.0
C182 C 0.14013 0.35436 0.87076 0.0
O183 O 0.11056 0.40788 0.77554 0.0
O184 O 0.13526 0.43559 0.78229 0.0
C185 C 0.15907 0.37949 0.11435 0.0
C186 C 0.15385 0.3903 0.21732 0.0
C187 C 0.17182 0.37576 0.2066 0.0
C188 C 0.17437 0.37041 0.15565 0.0
C189 C 0.14126 0.39426 0.12451 0.0
C190 C 0.13862 0.39955 0.1756 0.0
C191 C 0.16188 0.37308 0.06127 0.0
H192 H 0.12116 0.45305 0.57852 0.0
H193 H 0.1139 0.45781 0.6686 0.0
H194 H 0.13895 0.38725 0.71462 0.0
H195 H 0.14561 0.382 0.62422 0.0
H196 H 0.18369 0.36811 0.23778 0.0
H197 H 0.18821 0.35897 0.14855 0.0
H198 H 0.12936 0.40159 0.09303 0.0
H199 H 0.12477 0.41102 0.1824 0.0
Tb200 Tb 0.8656 0.89277 0.14019 0.0
Eu201 Eu 0.88769 0.90231 0.25886 0.0
C202 C 0.8825 0.85109 0.21937 0.0
C203 C 0.83426 0.89481 0.23388 0.0
C204 C 0.85498 0.88218 0.99826 0.0
C205 C 0.8439 0.87559 0.90805 0.0
C206 C 0.83822 0.8775 0.9588 0.0
C207 C 0.87772 0.88402 0.98694 0.0
C208 C 0.88344 0.88213 0.93609 0.0
C209 C 0.86651 0.8784 0.89578 0.0
C210 C 0.84802 0.88748 0.04918 0.0
O211 O 0.859 0.92872 0.15649 0.0
O212 O 0.89175 0.93521 0.20497 0.0
O213 O 0.91725 0.89537 0.21416 0.0
O214 O 0.90152 0.89986 0.12882 0.0
C215 C 0.87563 0.94282 0.16949 0.0
O216 O 0.89133 0.92504 0.32304 0.0
O217 O 0.9098 0.89178 0.32887 0.0
O218 O 0.87844 0.8636 0.25807 0.0
O219 O 0.88388 0.86113 0.17226 0.0
O220 O 0.83803 0.88521 0.19068 0.0
O221 O 0.85012 0.90616 0.26026 0.0
C222 C 0.91926 0.8979 0.16384 0.0
O223 O 0.84977 0.87056 0.08663 0.0
O224 O 0.85503 0.90758 0.06525 0.0
C225 C 0.89987 0.906 0.40722 0.0
C226 C 0.89182 0.89834 0.51312 0.0
C227 C 0.90706 0.91584 0.49662 0.0
C228 C 0.91103 0.9196 0.4442 0.0
C229 C 0.88454 0.88856 0.42316 0.0
C230 C 0.88059 0.88471 0.47579 0.0
C231 C 0.90473 0.91023 0.35253 0.0
H232 H 0.83039 0.87301 0.87799 0.0
H233 H 0.82056 0.8762 0.96681 0.0
H234 H 0.8909 0.88766 1.017 0.0
H235 H 0.90105 0.88406 0.92812 0.0
H236 H 0.91621 0.92642 0.52439 0.0
H237 H 0.92296 0.93309 0.43254 0.0
H238 H 0.87568 0.87796 0.39499 0.0
H239 H 0.86859 0.87127 0.48718 0.0
Tb240 Tb 0.38653 0.62453 0.34471 0.0
Eu241 Eu 0.38008 0.65057 0.4521 0.0
C242 C 0.42826 0.64023 0.41488 0.0
C243 C 0.3834 0.59446 0.4525 0.0
C244 C 0.39246 0.61294 0.20548 0.0
C245 C 0.40841 0.60698 0.12402 0.0
C246 C 0.40796 0.60159 0.17771 0.0
C247 C 0.37777 0.63025 0.1789 0.0
C248 C 0.37809 0.6355 0.12516 0.0
C249 C 0.39322 0.62371 0.09698 0.0
C250 C 0.39088 0.60541 0.26111 0.0
O251 O 0.35154 0.62072 0.36248 0.0
O252 O 0.34736 0.65525 0.39931 0.0
O253 O 0.38888 0.6792 0.39261 0.0
O254 O 0.37818 0.66137 0.31734 0.0
C255 C 0.33885 0.63859 0.37122 0.0
O256 O 0.35925 0.65826 0.51403 0.0
O257 O 0.39313 0.67276 0.51305 0.0
O258 O 0.41645 0.63741 0.45561 0.0
O259 O 0.41799 0.64203 0.36766 0.0
O260 O 0.39336 0.59679 0.40871 0.0
O261 O 0.37319 0.61226 0.46992 0.0
C262 C 0.38368 0.68019 0.34214 0.0
O263 O 0.40793 0.61035 0.29376 0.0
O264 O 0.37153 0.6091 0.27949 0.0
C265 C 0.37915 0.66404 0.59532 0.0
C266 C 0.38513 0.65365 0.70436 0.0
C267 C 0.38476 0.67718 0.68249 0.0
C268 C 0.38176 0.6823 0.62851 0.0
C269 C 0.37989 0.6405 0.61674 0.0
C270 C 0.38278 0.63534 0.67082 0.0
C271 C 0.37518 0.66998 0.53874 0.0
H272 H 0.42015 0.59748 0.10341 0.0
H273 H 0.41938 0.58814 0.19738 0.0
H274 H 0.36573 0.6394 0.1994 0.0
H275 H 0.36641 0.64872 0.10559 0.0
H276 H 0.38625 0.69169 0.70716 0.0
H277 H 0.3812 0.70058 0.61266 0.0
H278 H 0.37804 0.62613 0.5917 0.0
H279 H 0.38325 0.61704 0.68639 0.0
Tb280 Tb 0.62711 0.12698 0.70716 0.0
Eu281 Eu 0.6414 0.15041 0.59183 0.0
C282 C 0.59019 0.14371 0.618 0.0
C283 C 0.63348 0.09565 0.61333 0.0
C284 C 0.62037 0.11259 0.84928 0.0
C285 C 0.62072 0.09744 0.9401 0.0
C286 C 0.61746 0.09394 0.88705 0.0
C287 C 0.62701 0.13477 0.8653 0.0
C288 C 0.63019 0.13833 0.9184 0.0
C289 C 0.62689 0.11976 0.95658 0.0
C290 C 0.61553 0.10878 0.79365 0.0
O291 O 0.66403 0.12632 0.71459 0.0
O292 O 0.67297 0.15293 0.64712 0.0
O293 O 0.63561 0.18098 0.63899 0.0
O294 O 0.63671 0.16293 0.72295 0.0
C295 C 0.67854 0.14015 0.69124 0.0
O296 O 0.66467 0.15335 0.53069 0.0
O297 O 0.63314 0.17327 0.52047 0.0
O298 O 0.60421 0.14005 0.58286 0.0
O299 O 0.59773 0.14534 0.66669 0.0
O300 O 0.62116 0.09978 0.6517 0.0
O301 O 0.64714 0.1116 0.5945 0.0
C302 C 0.63684 0.18186 0.68985 0.0
O303 O 0.60427 0.12549 0.76489 0.0
O304 O 0.63217 0.10086 0.77008 0.0
C305 C 0.64807 0.16128 0.44455 0.0
C306 C 0.64325 0.15023 0.33957 0.0
C307 C 0.65936 0.16686 0.35631 0.0
C308 C 0.66171 0.17231 0.40822 0.0
C309 C 0.63199 0.14461 0.42834 0.0
C310 C 0.62953 0.1392 0.37622 0.0
C311 C 0.65122 0.16722 0.4991 0.0
H312 H 0.61844 0.08261 0.96821 0.0
H313 H 0.61243 0.07667 0.87549 0.0
H314 H 0.62936 0.14944 0.83678 0.0
H315 H 0.63471 0.1558 0.92944 0.0
H316 H 0.66999 0.17591 0.3291 0.0
H317 H 0.67423 0.18521 0.42002 0.0
H318 H 0.62142 0.13575 0.45596 0.0
H319 H 0.61713 0.12615 0.36477 0.0
Tb320 Tb 0.87842 0.38361 0.94365 0.0
Eu321 Eu 0.88199 0.41083 0.8263 0.0
C322 C 0.8361 0.39617 0.8667 0.0
C323 C 0.88412 0.35406 0.84758 0.0
C324 C 0.87601 0.36972 0.088 0.0
C325 C 0.8674 0.36077 0.17764 0.0
C326 C 0.86546 0.35552 0.1256 0.0
C327 C 0.88867 0.38931 0.10318 0.0
C328 C 0.89072 0.39454 0.15546 0.0
C329 C 0.87999 0.38038 0.19332 0.0
C330 C 0.8731 0.36395 0.0333 0.0
O331 O 0.91333 0.39654 0.94328 0.0
O332 O 0.91661 0.39669 0.8555 0.0
O333 O 0.88839 0.43924 0.88193 0.0
O334 O 0.87326 0.42072 0.95366 0.0
C335 C 0.92588 0.3966 0.90361 0.0
O336 O 0.89997 0.43013 0.76558 0.0
O337 O 0.86426 0.42225 0.75103 0.0
O338 O 0.84722 0.41509 0.85234 0.0
O339 O 0.84716 0.37846 0.89339 0.0
O340 O 0.88921 0.35626 0.89744 0.0
O341 O 0.87699 0.372 0.81467 0.0
C342 C 0.88145 0.43954 0.92888 0.0
O343 O 0.85721 0.37557 1.00362 0.0
O344 O 0.89148 0.36203 1.00956 0.0
C345 C 0.88581 0.42487 0.67836 0.0
C346 C 0.88855 0.41402 0.57426 0.0
C347 C 0.88791 0.43763 0.58683 0.0
C348 C 0.88655 0.44296 0.6383 0.0
C349 C 0.88694 0.40127 0.66648 0.0
C350 C 0.88831 0.39589 0.61492 0.0
C351 C 0.88232 0.43098 0.73137 0.0
H352 H 0.85918 0.3493 0.20575 0.0
H353 H 0.85561 0.34034 0.11464 0.0
H354 H 0.89682 0.4006 0.0746 0.0
H355 H 0.90035 0.4099 0.16606 0.0
H356 H 0.88772 0.45206 0.55667 0.0
H357 H 0.88552 0.46128 0.64665 0.0
H358 H 0.88636 0.38703 0.69691 0.0
H359 H 0.88908 0.37753 0.60691 0.0
Tb360 Tb 0.36943 0.13817 0.58641 0.0
Eu361 Eu 0.38585 0.11647 0.70771 0.0
C362 C 0.33399 0.12876 0.67095 0.0
C363 C 0.37701 0.17195 0.67784 0.0
C364 C 0.35978 0.14774 0.44014 0.0
C365 C 0.35252 0.15758 0.34694 0.0
C366 C 0.34984 0.16244 0.39812 0.0
C367 C 0.37241 0.12793 0.43041 0.0
C368 C 0.37506 0.12297 0.37907 0.0
C369 C 0.36523 0.13783 0.33666 0.0
C370 C 0.35683 0.15358 0.49353 0.0
O371 O 0.40556 0.12915 0.58567 0.0
O372 O 0.41633 0.13173 0.67238 0.0
O373 O 0.39247 0.08803 0.65414 0.0
O374 O 0.36549 0.10028 0.58844 0.0
C375 C 0.4214 0.1313 0.62417 0.0
O376 O 0.40826 0.11749 0.7793 0.0
O377 O 0.38314 0.0899 0.773 0.0
O378 O 0.34803 0.11322 0.69671 0.0
O379 O 0.3403 0.14289 0.6318 0.0
O380 O 0.37909 0.16837 0.62895 0.0
O381 O 0.3757 0.15446 0.71416 0.0
C382 C 0.38 0.08437 0.61086 0.0
O383 O 0.34525 0.13869 0.5216 0.0
O384 O 0.37482 0.16085 0.52026 0.0
C385 C 0.39352 0.10248 0.8572 0.0
C386 C 0.38523 0.10853 0.96137 0.0
C387 C 0.4063 0.0999 0.94946 0.0
C388 C 0.41036 0.0969 0.89799 0.0
C389 C 0.37245 0.11114 0.86855 0.0
C390 C 0.36833 0.1141 0.92018 0.0
C391 C 0.39864 0.09962 0.80331 0.0
H392 H 0.34443 0.16919 0.31535 0.0
H393 H 0.33997 0.17777 0.40489 0.0
H394 H 0.38031 0.11643 0.46246 0.0
H395 H 0.38512 0.10775 0.3726 0.0
H396 H 0.41987 0.09584 0.97982 0.0
H397 H 0.42679 0.09038 0.88996 0.0
H398 H 0.35924 0.11566 0.83755 0.0
H399 H 0.35184 0.12057 0.92784 0.0
Tb400 Tb 0.62793 0.63248 0.29503 0.0
Eu401 Eu 0.65028 0.64302 0.41179 0.0
C402 C 0.64033 0.59189 0.38081 0.0
C403 C 0.59621 0.6355 0.3877 0.0
C404 C 0.61771 0.63023 0.15003 0.0
C405 C 0.60505 0.64112 0.05927 0.0
C406 C 0.60032 0.63691 0.11117 0.0
C407 C 0.64005 0.62814 0.13637 0.0
C408 C 0.64476 0.63217 0.08431 0.0
C409 C 0.62728 0.63859 0.04516 0.0
C410 C 0.61192 0.62508 0.20404 0.0
O411 O 0.63703 0.66998 0.29303 0.0
O412 O 0.63043 0.67481 0.37697 0.0
O413 O 0.67752 0.65123 0.35655 0.0
O414 O 0.66422 0.62706 0.29417 0.0
C415 C 0.63176 0.68355 0.32896 0.0
O416 O 0.6636 0.66701 0.46924 0.0
O417 O 0.66522 0.62912 0.4879 0.0
O418 O 0.65689 0.60546 0.39685 0.0
O419 O 0.62398 0.6006 0.34701 0.0
O420 O 0.59879 0.6384 0.33757 0.0
O421 O 0.61355 0.63406 0.42364 0.0
C422 C 0.68057 0.63957 0.31582 0.0
O423 O 0.62502 0.61022 0.2341 0.0
O424 O 0.60634 0.64315 0.22818 0.0
C425 C 0.66147 0.65256 0.55759 0.0
C426 C 0.65153 0.65343 0.66205 0.0
C427 C 0.67037 0.66567 0.64404 0.0
C428 C 0.67533 0.66515 0.59228 0.0
C429 C 0.64209 0.64116 0.57479 0.0
C430 C 0.63722 0.64152 0.62662 0.0
C431 C 0.66851 0.64985 0.50523 0.0
H432 H 0.59117 0.64578 0.02998 0.0
H433 H 0.58298 0.63859 0.12092 0.0
H434 H 0.65381 0.6232 0.16578 0.0
H435 H 0.6621 0.63033 0.07468 0.0
H436 H 0.6818 0.67486 0.67045 0.0
H437 H 0.6904 0.67398 0.57975 0.0
H438 H 0.63108 0.63143 0.54854 0.0
H439 H 0.62241 0.63221 0.63919 0.0
Tb440 Tb 0.13398 0.87916 0.097 0.0
Eu441 Eu 0.12702 0.9046 0.2048 0.0
C442 C 0.17504 0.89207 0.17421 0.0
C443 C 0.13043 0.84815 0.20308 0.0
C444 C 0.13648 0.86641 0.9569 0.0
C445 C 0.14726 0.85999 0.87073 0.0
C446 C 0.1499 0.8549 0.9247 0.0
C447 C 0.12034 0.88323 0.93443 0.0
C448 C 0.11759 0.88827 0.88023 0.0
C449 C 0.13107 0.87672 0.84775 0.0
C450 C 0.13977 0.86049 1.0136 0.0
O451 O 0.09856 0.89145 0.09243 0.0
O452 O 0.0949 0.88628 0.17969 0.0
O453 O 0.12047 0.93321 0.13839 0.0
O454 O 0.13994 0.91632 0.07769 0.0
C455 C 0.08579 0.88778 0.13149 0.0
O456 O 0.10568 0.9214 0.2565 0.0
O457 O 0.14194 0.91789 0.27647 0.0
O458 O 0.16266 0.90985 0.18438 0.0
O459 O 0.16576 0.87508 0.14807 0.0
O460 O 0.12543 0.85046 0.15243 0.0
O461 O 0.1356 0.86624 0.23045 0.0
C462 C 0.13015 0.93464 0.09429 0.0
O463 O 0.15528 0.87237 0.03899 0.0
O464 O 0.12156 0.85784 0.03837 0.0
C465 C 0.11898 0.91776 0.34626 0.0
C466 C 0.11684 0.90676 0.45427 0.0
C467 C 0.1136 0.93011 0.43201 0.0
C468 C 0.11468 0.93553 0.37857 0.0
C469 C 0.12155 0.89432 0.36777 0.0
C470 C 0.12048 0.88886 0.42131 0.0
C471 C 0.12256 0.92434 0.29137 0.0
H472 H 0.1577 0.85055 0.84692 0.0
H473 H 0.16244 0.84186 0.94135 0.0
H474 H 0.10991 0.89244 0.95871 0.0
H475 H 0.10514 0.90141 0.86382 0.0
H476 H 0.11106 0.94439 0.45615 0.0
H477 H 0.11282 0.95375 0.36268 0.0
H478 H 0.12491 0.88036 0.34338 0.0
H479 H 0.12273 0.87066 0.43697 0.0
Tb480 Tb 0.86843 0.64424 0.08564 0.0
Eu481 Eu 0.88504 0.62252 0.20612 0.0
C482 C 0.83327 0.63421 0.16892 0.0
C483 C 0.87691 0.67794 0.177 0.0
C484 C 0.85823 0.65301 0.93948 0.0
C485 C 0.84448 0.65611 0.84777 0.0
C486 C 0.84196 0.66091 0.89909 0.0
C487 C 0.87693 0.63979 0.92802 0.0
C488 C 0.87952 0.63502 0.87655 0.0
C489 C 0.86342 0.64334 0.83561 0.0
C490 C 0.85553 0.6593 0.99276 0.0
O491 O 0.90429 0.63456 0.08432 0.0
O492 O 0.91536 0.63836 0.17041 0.0
O493 O 0.89172 0.59412 0.15273 0.0
O494 O 0.86415 0.6063 0.08837 0.0
C495 C 0.92016 0.63786 0.122 0.0
O496 O 0.90754 0.62302 0.27748 0.0
O497 O 0.88167 0.59621 0.27186 0.0
O498 O 0.84729 0.61823 0.19309 0.0
O499 O 0.83987 0.64946 0.13222 0.0
O500 O 0.87894 0.67433 0.12806 0.0
O501 O 0.87476 0.6604 0.21279 0.0
C502 C 0.87869 0.59029 0.11037 0.0
O503 O 0.84385 0.64477 1.02144 0.0
O504 O 0.87361 0.66665 1.01908 0.0
C505 C 0.892 0.60923 0.35539 0.0
C506 C 0.88399 0.61623 0.45923 0.0
C507 C 0.89394 0.59512 0.44707 0.0
C508 C 0.89792 0.59169 0.39569 0.0
C509 C 0.8817 0.63017 0.367 0.0
C510 C 0.87778 0.63366 0.41845 0.0
C511 C 0.89738 0.60566 0.302 0.0
H512 H 0.8315 0.66238 0.81761 0.0
H513 H 0.82733 0.671 0.90719 0.0
H514 H 0.88966 0.63345 0.95873 0.0
H515 H 0.89441 0.62531 0.86873 0.0
H516 H 0.89918 0.58144 0.47745 0.0
H517 H 0.90594 0.57544 0.38753 0.0
H518 H 0.87691 0.6439 0.33638 0.0
H519 H 0.86981 0.64998 0.42627 0.0
Tb520 Tb 0.12731 0.13105 0.79153 0.0
Eu521 Eu 0.14958 0.13962 0.90985 0.0
C522 C 0.13962 0.08961 0.87551 0.0
C523 C 0.09521 0.13482 0.88294 0.0
C524 C 0.1162 0.12731 0.64686 0.0
C525 C 0.10948 0.11752 0.55734 0.0
C526 C 0.10495 0.11401 0.60943 0.0
C527 C 0.13221 0.14418 0.63172 0.0
C528 C 0.13671 0.14781 0.57939 0.0
C529 C 0.12539 0.13447 0.54163 0.0
C530 C 0.11073 0.12329 0.70114 0.0
O531 O 0.13655 0.16848 0.7913 0.0
O532 O 0.13117 0.17255 0.87653 0.0
O533 O 0.17769 0.14726 0.8569 0.0
O534 O 0.16364 0.12722 0.78742 0.0
C535 C 0.13228 0.18173 0.82869 0.0
O536 O 0.16613 0.16172 0.96738 0.0
O537 O 0.16061 0.12446 0.98786 0.0
O538 O 0.15656 0.10278 0.89094 0.0
O539 O 0.1231 0.09904 0.84321 0.0
O540 O 0.09821 0.13817 0.83311 0.0
O541 O 0.11231 0.1322 0.91941 0.0
C542 C 0.1803 0.13798 0.81282 0.0
O543 O 0.12375 0.10839 0.73121 0.0
O544 O 0.10608 0.14194 0.72448 0.0
C545 C 0.16138 0.14953 0.05581 0.0
C546 C 0.15074 0.15324 0.15896 0.0
C547 C 0.17327 0.15563 0.14589 0.0
C548 C 0.17851 0.15377 0.09479 0.0
C549 C 0.13874 0.14806 0.06797 0.0
C550 C 0.13346 0.14991 0.11916 0.0
C551 C 0.16775 0.14449 1.00425 0.0
H552 H 0.10025 0.1072 0.5292 0.0
H553 H 0.09251 0.10095 0.62048 0.0
H554 H 0.14116 0.15453 0.66027 0.0
H555 H 0.14921 0.16083 0.56857 0.0
H556 H 0.18703 0.1579 0.17555 0.0
H557 H 0.1961 0.1548 0.08609 0.0
H558 H 0.12528 0.14478 0.03825 0.0
H559 H 0.1159 0.14831 0.12775 0.0
Tb560 Tb 0.63674 0.38153 0.60536 0.0
Eu561 Eu 0.63361 0.40792 0.71316 0.0
C562 C 0.67954 0.3942 0.67582 0.0
C563 C 0.63324 0.35128 0.71149 0.0
C564 C 0.63841 0.36789 0.46555 0.0
C565 C 0.64899 0.36032 0.37983 0.0
C566 C 0.65096 0.35512 0.43379 0.0
C567 C 0.62378 0.38604 0.4426 0.0
C568 C 0.6217 0.3912 0.3884 0.0
C569 C 0.63437 0.37844 0.35638 0.0
C570 C 0.64116 0.36199 0.52231 0.0
O571 O 0.60176 0.39474 0.60352 0.0
O572 O 0.59967 0.39227 0.69167 0.0
O573 O 0.62641 0.4365 0.64718 0.0
O574 O 0.64284 0.41848 0.58325 0.0
C575 C 0.58971 0.39311 0.64417 0.0
O576 O 0.61533 0.42735 0.76637 0.0
O577 O 0.651 0.41884 0.78482 0.0
O578 O 0.66812 0.41282 0.6849 0.0
O579 O 0.66868 0.37647 0.65568 0.0
O580 O 0.62695 0.35382 0.66144 0.0
O581 O 0.64054 0.36906 0.73783 0.0
C582 C 0.6344 0.43725 0.60113 0.0
O583 O 0.6575 0.3727 0.5479 0.0
O584 O 0.62279 0.36096 0.54673 0.0
C585 C 0.62896 0.4215 0.85572 0.0
C586 C 0.62564 0.41058 0.96341 0.0
C587 C 0.62449 0.43415 0.94169 0.0
C588 C 0.62616 0.43953 0.88841 0.0
C589 C 0.6295 0.3979 0.87671 0.0
C590 C 0.62786 0.39249 0.93008 0.0
C591 C 0.63282 0.42778 0.80081 0.0
H592 H 0.65875 0.34993 0.35639 0.0
H593 H 0.66234 0.34105 0.4508 0.0
H594 H 0.61405 0.39623 0.46653 0.0
H595 H 0.61045 0.40541 0.37164 0.0
H596 H 0.62309 0.44855 0.96613 0.0
H597 H 0.62584 0.45785 0.87294 0.0
H598 H 0.63164 0.38372 0.85203 0.0
H599 H 0.62849 0.37413 0.94529 0.0
Tb600 Tb 0.3731 0.8824 0.43891 0.0
Eu601 Eu 0.38765 0.90584 0.32373 0.0
C602 C 0.33579 0.89256 0.34283 0.0
C603 C 0.3774 0.85026 0.34438 0.0
C604 C 0.36676 0.8726 0.58276 0.0
C605 C 0.35595 0.86726 0.67141 0.0
C606 C 0.35341 0.86158 0.6197 0.0
C607 C 0.38275 0.88951 0.59818 0.0
C608 C 0.38541 0.89515 0.65014 0.0
C609 C 0.37197 0.88412 0.68738 0.0
C610 C 0.36337 0.86633 0.52849 0.0
O611 O 0.40924 0.89174 0.44879 0.0
O612 O 0.41752 0.88637 0.36612 0.0
O613 O 0.39418 0.93334 0.38204 0.0
O614 O 0.36812 0.92011 0.43789 0.0
C615 C 0.42397 0.88742 0.41553 0.0
O616 O 0.41104 0.90799 0.26304 0.0
O617 O 0.38254 0.9322 0.25683 0.0
O618 O 0.34959 0.9069 0.31867 0.0
O619 O 0.34239 0.87944 0.38598 0.0
O620 O 0.37869 0.85221 0.39498 0.0
O621 O 0.37771 0.8685 0.30957 0.0
C622 C 0.38205 0.93639 0.42123 0.0
O623 O 0.3502 0.88036 0.49671 0.0
O624 O 0.38135 0.86012 0.50705 0.0
C625 C 0.39516 0.92066 0.17815 0.0
C626 C 0.3891 0.91373 0.0707 0.0
C627 C 0.39497 0.93606 0.08753 0.0
C628 C 0.39799 0.93944 0.14066 0.0
C629 C 0.38891 0.89844 0.16177 0.0
C630 C 0.38596 0.895 0.1086 0.0
C631 C 0.39947 0.92441 0.2339 0.0
H632 H 0.34555 0.85819 0.6991 0.0
H633 H 0.34097 0.84849 0.60852 0.0
H634 H 0.39311 0.89836 0.57006 0.0
H635 H 0.39774 0.90837 0.66101 0.0
H636 H 0.39714 0.951 0.05963 0.0
H637 H 0.40273 0.95675 0.15251 0.0
H638 H 0.38662 0.88367 0.19009 0.0
H639 H 0.38169 0.87751 0.09728 0.0
H640 H 0.13385 0.60759 0.8035 0.0
H641 H 0.14323 0.68168 0.75885 0.0
H642 H 0.13044 0.59958 0.71202 0.0
H643 H 0.14102 0.67351 0.66783 0.0
H644 H 0.11307 0.65512 0.50643 0.0
H645 H 0.11517 0.66288 0.59789 0.0
H646 H 0.15258 0.59774 0.63921 0.0
H647 H 0.1502 0.58987 0.54766 0.0
C648 C 0.13513 0.6222 0.77425 0.0
C649 C 0.13886 0.64529 0.78882 0.0
C650 C 0.13349 0.61755 0.72171 0.0
C651 C 0.13554 0.63587 0.68228 0.0
C652 C 0.1391 0.65897 0.69689 0.0
C653 C 0.14068 0.66362 0.74933 0.0
C654 C 0.12193 0.64255 0.53497 0.0
C655 C 0.1315 0.62189 0.51959 0.0
C656 C 0.12314 0.647 0.58754 0.0
C657 C 0.13406 0.63096 0.62621 0.0
C658 C 0.1437 0.61031 0.61075 0.0
C659 C 0.14239 0.60582 0.55817 0.0
H660 H 0.6666 0.89421 0.05549 0.0
H661 H 0.60525 0.93438 1.00703 0.0
H662 H 0.67093 0.8876 0.96501 0.0
H663 H 0.6102 0.92878 0.91654 0.0
H664 H 0.61192 0.89211 0.76601 0.0
H665 H 0.6076 0.89903 0.85632 0.0
H666 H 0.68022 0.90725 0.88401 0.0
H667 H 0.68451 0.90006 0.79381 0.0
C668 C 0.65404 0.90167 0.02561 0.0
C669 C 0.63557 0.91484 0.03881 0.0
C670 C 0.65668 0.89812 0.97355 0.0
C671 C 0.64093 0.90766 0.93323 0.0
C672 C 0.62253 0.92091 0.94645 0.0
C673 C 0.61987 0.92441 0.99846 0.0
C674 C 0.62695 0.89564 0.79123 0.0
C675 C 0.64856 0.89549 0.7726 0.0
C676 C 0.62448 0.89962 0.8431 0.0
C677 C 0.64356 0.90368 0.87772 0.0
C678 C 0.66517 0.90377 0.85887 0.0
C679 C 0.66764 0.89969 0.80704 0.0
H680 H 0.40699 0.37617 0.34561 0.0
H681 H 0.33478 0.38343 0.30371 0.0
H682 H 0.41349 0.37768 0.25378 0.0
H683 H 0.34119 0.38357 0.21219 0.0
H684 H 0.36309 0.41253 0.05384 0.0
H685 H 0.35591 0.40907 0.14539 0.0
H686 H 0.40899 0.35628 0.17774 0.0
H687 H 0.41637 0.36006 0.08616 0.0
C688 C 0.39248 0.37795 0.3169 0.0
C689 C 0.37036 0.37977 0.33228 0.0
C690 C 0.39619 0.37851 0.26416 0.0
C691 C 0.37787 0.3808 0.2254 0.0
C692 C 0.35573 0.38213 0.24084 0.0
C693 C 0.35203 0.38169 0.29352 0.0
C694 C 0.37305 0.39999 0.0804 0.0
C695 C 0.39033 0.38661 0.06273 0.0
C696 C 0.36892 0.39797 0.13296 0.0
C697 C 0.38188 0.3824 0.16914 0.0
C698 C 0.39894 0.36875 0.15123 0.0
C699 C 0.40314 0.37087 0.0987 0.0
H700 H 0.87029 0.16081 0.53345 0.0
H701 H 0.92047 0.10631 0.52577 0.0
H702 H 0.86835 0.16883 0.43928 0.0
H703 H 0.91778 0.11363 0.43117 0.0
H704 H 0.92201 0.14856 0.26513 0.0
H705 H 0.9262 0.14174 0.36002 0.0
H706 H 0.85375 0.15028 0.36321 0.0
H707 H 0.84965 0.15726 0.26875 0.0
C708 C 0.88108 0.15067 0.51178 0.0
C709 C 0.89552 0.13288 0.53737 0.0
C710 C 0.87972 0.15504 0.45758 0.0
C711 C 0.89273 0.14173 0.42742 0.0
C712 C 0.9076 0.12433 0.45309 0.0
C713 C 0.90897 0.11996 0.50735 0.0
C714 C 0.90698 0.14879 0.28613 0.0
C715 C 0.88551 0.1536 0.25933 0.0
C716 C 0.90937 0.14489 0.34054 0.0
C717 C 0.89034 0.14564 0.36944 0.0
C718 C 0.86886 0.1501 0.34244 0.0
C719 C 0.86648 0.15405 0.28818 0.0
H720 H 0.11434 0.39094 0.26512 0.0
H721 H 0.18664 0.40098 0.29334 0.0
H722 H 0.10964 0.39761 0.3554 0.0
H723 H 0.18196 0.40794 0.38348 0.0
H724 H 0.16854 0.39396 0.55471 0.0
H725 H 0.1731 0.38773 0.46416 0.0
H726 H 0.11131 0.4272 0.41606 0.0
H727 H 0.10615 0.43239 0.50666 0.0
C728 C 0.12921 0.39488 0.29042 0.0
C729 C 0.15087 0.39536 0.27194 0.0
C730 C 0.12652 0.39872 0.34228 0.0
C731 C 0.14543 0.40327 0.37701 0.0
C732 C 0.16706 0.40405 0.35826 0.0
C733 C 0.16975 0.40011 0.30647 0.0
C734 C 0.15579 0.40111 0.5249 0.0
C735 C 0.13697 0.41368 0.53824 0.0
C736 C 0.15856 0.3978 0.4728 0.0
C737 C 0.1426 0.40699 0.43256 0.0
C738 C 0.12383 0.41963 0.44591 0.0
C739 C 0.12103 0.42289 0.49797 0.0
H740 H 0.84968 0.85047 0.81978 0.0
H741 H 0.89546 0.90839 0.84648 0.0
H742 H 0.8557 0.85469 0.72738 0.0
H743 H 0.90218 0.91194 0.75475 0.0
H744 H 0.88613 0.93168 0.5811 0.0
H745 H 0.88103 0.92558 0.67355 0.0
H746 H 0.88346 0.85005 0.66475 0.0
H747 H 0.88846 0.8562 0.57186 0.0
C748 C 0.86118 0.86396 0.80604 0.0
C749 C 0.87199 0.87916 0.84059 0.0
C750 C 0.86479 0.86624 0.75314 0.0
C751 C 0.87928 0.88379 0.73352 0.0
C752 C 0.89062 0.89848 0.76837 0.0
C753 C 0.88702 0.89621 0.82119 0.0
C754 C 0.88572 0.91377 0.59893 0.0
C755 C 0.88782 0.89443 0.56914 0.0
C756 C 0.88286 0.91026 0.652 0.0
C757 C 0.88205 0.88732 0.67676 0.0
C758 C 0.88381 0.86795 0.64683 0.0
C759 C 0.88665 0.87147 0.59359 0.0
H760 H 0.41367 0.6742 0.77667 0.0
H761 H 0.36157 0.62123 0.76239 0.0
H762 H 0.41592 0.66692 0.87137 0.0
H763 H 0.36419 0.61359 0.857 0.0
H764 H 0.35583 0.62772 0.02666 0.0
H765 H 0.35454 0.63454 0.93209 0.0
H766 H 0.42782 0.63605 0.94207 0.0
H767 H 0.42909 0.62965 0.03696 0.0
C768 C 0.40274 0.66096 0.79374 0.0
C769 C 0.38739 0.64835 0.76194 0.0
C770 C 0.40418 0.65664 0.84798 0.0
C771 C 0.39019 0.63973 0.87175 0.0
C772 C 0.37503 0.62692 0.83993 0.0
C773 C 0.3737 0.63112 0.78569 0.0
C774 C 0.37167 0.62972 1.00873 0.0
C775 C 0.39257 0.62822 0.03936 0.0
C776 C 0.37093 0.63336 0.95448 0.0
C777 C 0.39108 0.63575 0.92951 0.0
C778 C 0.41199 0.63443 0.96014 0.0
C779 C 0.41273 0.63059 1.01443 0.0
H780 H 0.65845 0.14695 1.00838 0.0
H781 H 0.6011 0.10158 0.0335 0.0
H782 H 0.662 0.15406 0.10024 0.0
H783 H 0.60539 0.10771 0.12582 0.0
H784 H 0.60403 0.14441 0.27698 0.0
H785 H 0.60014 0.13684 0.1852 0.0
H786 H 0.67319 0.1355 0.18484 0.0
H787 H 0.67701 0.14338 0.2763 0.0
C788 C 0.64659 0.13846 0.03342 0.0
C789 C 0.62947 0.12369 1.01322 0.0
C790 C 0.64881 0.1423 0.0864 0.0
C791 C 0.63402 0.13143 0.12077 0.0
C792 C 0.61695 0.11661 0.10059 0.0
C793 C 0.61468 0.11282 0.0476 0.0
C794 C 0.61925 0.14228 0.25742 0.0
C795 C 0.64082 0.14462 0.28403 0.0
C796 C 0.61704 0.13791 0.20471 0.0
C797 C 0.63634 0.13564 0.17727 0.0
C798 C 0.65792 0.13762 0.20423 0.0
C799 C 0.66012 0.14209 0.25681 0.0
H800 H 0.84629 0.37895 0.2595 0.0
H801 H 0.91753 0.39445 0.25316 0.0
H802 H 0.84907 0.38678 0.35088 0.0
H803 H 0.92043 0.40208 0.34503 0.0
H804 H 0.91134 0.43674 0.49656 0.0
H805 H 0.90936 0.42918 0.40492 0.0
H806 H 0.86451 0.37051 0.43481 0.0
H807 H 0.86565 0.37875 0.52581 0.0
C808 C 0.86262 0.38384 0.27774 0.0
C809 C 0.88171 0.38594 0.24893 0.0
C810 C 0.86424 0.38829 0.33031 0.0
C811 C 0.88502 0.3949 0.35573 0.0
C812 C 0.90408 0.39729 0.32673 0.0
C813 C 0.90243 0.3929 0.27399 0.0
C814 C 0.90093 0.42231 0.48356 0.0
C815 C 0.88858 0.40844 0.51879 0.0
C816 C 0.9 0.4178 0.43099 0.0
C817 C 0.88669 0.39928 0.41215 0.0
C818 C 0.87467 0.38515 0.4476 0.0
C819 C 0.87559 0.38967 0.50011 0.0
H820 H 0.36352 0.09516 0.29382 0.0
H821 H 0.37375 0.16959 0.25527 0.0
H822 H 0.36744 0.08761 0.20353 0.0
H823 H 0.37787 0.16208 0.16534 0.0
H824 H 0.36221 0.14477 0.998 0.0
H825 H 0.35666 0.15106 0.08799 0.0
H826 H 0.39458 0.08721 0.13997 0.0
H827 H 0.39917 0.08031 0.04989 0.0
C828 C 0.36683 0.10989 0.26621 0.0
C829 C 0.36822 0.133 0.28186 0.0
C830 C 0.36907 0.10557 0.21437 0.0
C831 C 0.37286 0.12424 0.17685 0.0
C832 C 0.37448 0.1473 0.19274 0.0
C833 C 0.37217 0.15162 0.24445 0.0
C834 C 0.36907 0.13186 0.0285 0.0
C835 C 0.3812 0.11205 1.01643 0.0
C836 C 0.36615 0.13564 0.0803 0.0
C837 C 0.3753 0.11975 0.12151 0.0
C838 C 0.38712 0.09975 0.10938 0.0
C839 C 0.39 0.09594 0.0576 0.0
H840 H 0.61173 0.67387 0.97216 0.0
H841 H 0.65319 0.61068 0.99241 0.0
H842 H 0.61758 0.67795 0.8795 0.0
H843 H 0.65934 0.61498 0.90001 0.0
H844 H 0.64091 0.61442 0.72376 0.0
H845 H 0.63558 0.61158 0.81649 0.0
H846 H 0.64849 0.68625 0.82038 0.0
H847 H 0.65351 0.68917 0.72719 0.0
C848 C 0.62215 0.66091 0.95683 0.0
C849 C 0.63195 0.64192 0.98954 0.0
C850 C 0.62565 0.66335 0.90389 0.0
C851 C 0.63883 0.64673 0.88243 0.0
C852 C 0.64889 0.62793 0.9153 0.0
C853 C 0.64556 0.6256 0.96831 0.0
C854 C 0.64237 0.63028 0.74427 0.0
C855 C 0.64755 0.65204 0.71812 0.0
C856 C 0.63958 0.6286 0.7975 0.0
C857 C 0.64173 0.64867 0.82578 0.0
C858 C 0.64662 0.6705 0.79955 0.0
C859 C 0.64963 0.67215 0.74633 0.0
H860 H 0.08981 0.92495 0.52257 0.0
H861 H 0.14573 0.87666 0.51667 0.0
H862 H 0.09298 0.9183 0.61732 0.0
H863 H 0.14825 0.86925 0.61102 0.0
H864 H 0.16447 0.88257 0.78125 0.0
H865 H 0.16024 0.88943 0.68673 0.0
H866 H 0.08726 0.88927 0.68889 0.0
H867 H 0.09154 0.88258 0.78376 0.0
C868 C 0.10271 0.91282 0.54142 0.0
C869 C 0.11756 0.90141 0.51185 0.0
C870 C 0.10437 0.90882 0.59578 0.0
C871 C 0.12096 0.89333 0.62197 0.0
C872 C 0.1355 0.88158 0.59229 0.0
C873 C 0.13384 0.88557 0.53801 0.0
C874 C 0.14751 0.88387 0.76156 0.0
C875 C 0.12834 0.88189 0.79011 0.0
C876 C 0.14508 0.88775 0.70729 0.0
C877 C 0.1234 0.88971 0.67999 0.0
C878 C 0.10422 0.8881 0.7086 0.0
C879 C 0.10666 0.88427 0.76302 0.0
H880 H 0.87965 0.60347 0.79738 0.0
H881 H 0.85422 0.6738 0.74833 0.0
H882 H 0.8849 0.59705 0.70717 0.0
H883 H 0.85841 0.66697 0.65816 0.0
H884 H 0.89143 0.6567 0.5087 0.0
H885 H 0.88672 0.663 0.5991 0.0
H886 H 0.86408 0.59102 0.62521 0.0
H887 H 0.86899 0.58469 0.53481 0.0
C888 C 0.87518 0.61758 0.76745 0.0
C889 C 0.86648 0.63916 0.78038 0.0
C890 C 0.87792 0.61379 0.71553 0.0
C891 C 0.87205 0.63147 0.67513 0.0
C892 C 0.86337 0.65303 0.68813 0.0
C893 C 0.86067 0.65683 0.73996 0.0
C894 C 0.88523 0.64227 0.53356 0.0
C895 C 0.88057 0.62019 0.51433 0.0
C896 C 0.88252 0.64588 0.58552 0.0
C897 C 0.875 0.62754 0.61971 0.0
C898 C 0.87026 0.60546 0.60039 0.0
C899 C 0.87303 0.60183 0.54843 0.0
H900 H 0.1309 0.10083 0.47432 0.0
H901 H 0.13004 0.17639 0.48294 0.0
H902 H 0.13636 0.10658 0.382 0.0
H903 H 0.13539 0.1822 0.39014 0.0
H904 H 0.16861 0.18078 0.23469 0.0
H905 H 0.16294 0.1768 0.32731 0.0
H906 H 0.11525 0.12048 0.30095 0.0
H907 H 0.12161 0.12379 0.20903 0.0
C908 C 0.13174 0.1187 0.45638 0.0
C909 C 0.12989 0.13815 0.48591 0.0
C910 C 0.13481 0.122 0.40339 0.0
C911 C 0.13607 0.14486 0.37847 0.0
C912 C 0.13467 0.16436 0.4082 0.0
C913 C 0.13163 0.16103 0.46137 0.0
C914 C 0.15694 0.16753 0.24871 0.0
C915 C 0.14564 0.15254 0.21439 0.0
C916 C 0.15353 0.1654 0.30173 0.0
C917 C 0.13878 0.14818 0.32168 0.0
C918 C 0.12701 0.13367 0.28707 0.0
C919 C 0.13041 0.1358 0.23415 0.0
H920 H 0.66866 0.38116 0.2919 0.0
H921 H 0.59588 0.38802 0.29042 0.0
H922 H 0.66575 0.38856 0.1975 0.0
H923 H 0.5929 0.39527 0.19562 0.0
H924 H 0.59977 0.43102 0.03089 0.0
H925 H 0.60163 0.4238 0.12546 0.0
H926 H 0.65268 0.36991 0.12039 0.0
H927 H 0.6515 0.3778 0.02627 0.0
C928 C 0.652 0.38407 0.27135 0.0
C929 C 0.63249 0.38386 0.29877 0.0
C930 C 0.65031 0.38827 0.21713 0.0
C931 C 0.62907 0.39233 0.18873 0.0
C932 C 0.60957 0.39246 0.2162 0.0
C933 C 0.61126 0.38831 0.27058 0.0
C934 C 0.61147 0.41771 0.04998 0.0
C935 C 0.62555 0.40507 1.02082 0.0
C936 C 0.61237 0.41339 0.10422 0.0
C937 C 0.62739 0.39635 0.13075 0.0
C938 C 0.64114 0.38341 0.10145 0.0
C939 C 0.64024 0.38772 0.04727 0.0
H940 H 0.35773 0.88648 1.01865 0.0
H941 H 0.4147 0.93243 0.99385 0.0
H942 H 0.35406 0.87977 0.9266 0.0
H943 H 0.4103 0.92666 0.90131 0.0
H944 H 0.41137 0.89035 0.7491 0.0
H945 H 0.41553 0.89783 0.84098 0.0
H946 H 0.34253 0.89878 0.84264 0.0
H947 H 0.33845 0.891 0.75114 0.0
C948 C 0.36949 0.89517 0.99364 0.0
C949 C 0.38653 0.90999 1.01397 0.0
C950 C 0.36719 0.89157 0.94056 0.0
C951 C 0.38183 0.90272 0.9062 0.0
C952 C 0.39885 0.91757 0.92652 0.0
C953 C 0.40119 0.92113 0.97964 0.0
C954 C 0.39622 0.89239 0.76898 0.0
C955 C 0.37458 0.88993 0.74276 0.0
C956 C 0.39859 0.8967 0.82173 0.0
C957 C 0.37937 0.89878 0.84957 0.0
C958 C 0.35773 0.89678 0.82294 0.0
C959 C 0.35538 0.89237 0.77034 0.0
H960 H 0.11231 0.696 0.2712 0.0
H961 H 0.16488 0.71272 0.16894 0.0
H962 H 0.11146 0.73756 0.29174 0.0
H963 H 0.16462 0.7537 0.19059 0.0
H964 H 0.16703 0.82436 0.25278 0.0
H965 H 0.17056 0.78124 0.26892 0.0
H966 H 0.09911 0.77427 0.22235 0.0
H967 H 0.09583 0.81717 0.20486 0.0
C968 C 0.12412 0.70841 0.25448 0.0
C969 C 0.13858 0.70136 0.21836 0.0
C970 C 0.12362 0.73209 0.26612 0.0
C971 C 0.13808 0.74877 0.24297 0.0
C972 C 0.15353 0.7412 0.20956 0.0
C973 C 0.15358 0.71781 0.19689 0.0
C974 C 0.15196 0.81361 0.24817 0.0
C975 C 0.13113 0.82392 0.22801 0.0
C976 C 0.15398 0.78899 0.25706 0.0
C977 C 0.13509 0.77446 0.24686 0.0
C978 C 0.11386 0.78504 0.23116 0.0
C979 C 0.11197 0.80954 0.22113 0.0
H980 H 0.57177 0.89318 0.51666 0.0
H981 H 0.55829 0.90193 0.34912 0.0
H982 H 0.5307 0.88847 0.52459 0.0
H983 H 0.51818 0.89736 0.35723 0.0
H984 H 0.45409 0.86046 0.37445 0.0
H985 H 0.49526 0.86223 0.38574 0.0
H986 H 0.49137 0.91194 0.50199 0.0
H987 H 0.44958 0.9098 0.49124 0.0
C988 C 0.56016 0.89424 0.48171 0.0
C989 C 0.56846 0.89758 0.43224 0.0
C990 C 0.5367 0.89158 0.48629 0.0
C991 C 0.52128 0.89206 0.44147 0.0
C992 C 0.52963 0.89629 0.39248 0.0
C993 C 0.55276 0.899 0.38792 0.0
C994 C 0.46195 0.87143 0.40322 0.0
C995 C 0.44862 0.88526 0.4314 0.0
C996 C 0.48556 0.87249 0.40959 0.0
C997 C 0.49655 0.88763 0.44388 0.0
C998 C 0.48334 0.90015 0.47522 0.0
C999 C 0.45948 0.89892 0.46908 0.0
H1000 H 0.36556 0.31505 0.78512 0.0
H1001 H 0.40168 0.31899 0.64674 0.0
H1002 H 0.36419 0.27173 0.78451 0.0
H1003 H 0.40069 0.27636 0.64675 0.0
H1004 H 0.3654 0.2099 0.61087 0.0
H1005 H 0.36725 0.25121 0.62654 0.0
H1006 H 0.38839 0.23266 0.78885 0.0
H1007 H 0.38626 0.19046 0.77316 0.0
C1008 C 0.37353 0.30667 0.75526 0.0
C1009 C 0.38329 0.3204 0.71534 0.0
C1010 C 0.37279 0.28194 0.75499 0.0
C1011 C 0.3819 0.27075 0.71491 0.0
C1012 C 0.39299 0.28451 0.67734 0.0
C1013 C 0.39357 0.30897 0.67738 0.0
C1014 C 0.37042 0.21444 0.65008 0.0
C1015 C 0.37614 0.19686 0.69058 0.0
C1016 C 0.37152 0.2382 0.659 0.0
C1017 C 0.37851 0.2452 0.70863 0.0
C1018 C 0.38308 0.22772 0.75011 0.0
C1019 C 0.38189 0.20365 0.74114 0.0
H1020 H 0.95384 0.16115 0.83648 0.0
H1021 H 0.95718 0.12771 0.99319 0.0
H1022 H 0.99481 0.15887 0.83797 0.0
H1023 H 0.99882 0.12509 0.9943 0.0
H1024 H 0.0773 0.14619 0.97335 0.0
H1025 H 0.03663 0.14912 0.98707 0.0
H1026 H 0.01918 0.12362 0.83617 0.0
H1027 H 0.05899 0.12104 0.82237 0.0
C1028 C 0.96335 0.15336 0.87147 0.0
C1029 C 0.95218 0.14422 0.91438 0.0
C1030 C 0.98689 0.15202 0.87226 0.0
C1031 C 1.00004 0.14131 0.9158 0.0
C1032 C 0.98912 0.13337 0.96013 0.0
C1033 C 0.96532 0.13483 0.95945 0.0
C1034 C 0.06468 0.14097 0.9436 0.0
C1035 C 0.07133 0.13387 0.89634 0.0
C1036 C 0.04146 0.14263 0.95142 0.0
C1037 C 0.0247 0.13716 0.91211 0.0
C1038 C 0.0316 0.12865 0.86657 0.0
C1039 C 0.0545 0.12712 0.85873 0.0
H1040 H 0.136 0.3383 0.7719 0.0
H1041 H 0.14312 0.31431 0.93567 0.0
H1042 H 0.13216 0.2969 0.75046 0.0
H1043 H 0.13937 0.27391 0.91434 0.0
H1044 H 0.10459 0.20941 0.87477 0.0
H1045 H 0.10548 0.25215 0.87514 0.0
H1046 H 0.15573 0.25576 0.76357 0.0
H1047 H 0.15448 0.21243 0.76238 0.0
C1048 C 0.1369 0.32433 0.80316 0.0
C1049 C 0.1395 0.32972 0.85552 0.0
C1050 C 0.13472 0.3007 0.79087 0.0
C1051 C 0.13498 0.28226 0.8308 0.0
C1052 C 0.13851 0.28775 0.88274 0.0
C1053 C 0.14073 0.31104 0.89491 0.0
C1054 C 0.11548 0.21932 0.8494 0.0
C1055 C 0.12973 0.20763 0.81918 0.0
C1056 C 0.11601 0.24379 0.84967 0.0
C1057 C 0.13105 0.25722 0.82028 0.0
C1058 C 0.14401 0.2458 0.78664 0.0
C1059 C 0.1433 0.22108 0.78598 0.0
H1060 H 0.05823 0.86362 0.19417 0.0
H1061 H 0.05671 0.90853 0.05076 0.0
H1062 H 0.01717 0.8662 0.19188 0.0
H1063 H 0.01497 0.91128 0.04879 0.0
H1064 H 0.93487 0.88788 0.0698 0.0
H1065 H 0.97497 0.88422 0.05142 0.0
H1066 H 0.99632 0.90573 0.20408 0.0
H1067 H 0.95713 0.9094 0.22231 0.0
C1068 C 0.04906 0.8738 0.16166 0.0
C1069 C 0.06073 0.88623 0.12315 0.0
C1070 C 0.02552 0.87525 0.16034 0.0
C1071 C 0.01294 0.88927 0.12067 0.0
C1072 C 0.0243 0.90035 0.07981 0.0
C1073 C 0.04813 0.8988 0.08098 0.0
C1074 C 0.9482 0.89214 0.09894 0.0
C1075 C 0.9428 0.89845 0.14791 0.0
C1076 C 0.97107 0.89006 0.08842 0.0
C1077 C 0.98869 0.89424 0.12679 0.0
C1078 C 0.98311 0.9019 0.17421 0.0
C1079 C 0.96057 0.90397 0.18461 0.0
H1080 H 0.41801 0.7107 0.32766 0.0
H1081 H 0.34545 0.70338 0.30094 0.0
H1082 H 0.41417 0.75359 0.31045 0.0
H1083 H 0.34145 0.74643 0.28513 0.0
H1084 H 0.35291 0.81425 0.38518 0.0
H1085 H 0.35248 0.77324 0.36383 0.0
H1086 H 0.39769 0.79061 0.24439 0.0
H1087 H 0.39752 0.83218 0.26477 0.0
C1088 C 0.40136 0.71827 0.31571 0.0
C1089 C 0.38204 0.70391 0.31489 0.0
C1090 C 0.39914 0.74277 0.30596 0.0
C1091 C 0.37751 0.75326 0.2967 0.0
C1092 C 0.35831 0.73871 0.29199 0.0
C1093 C 0.36059 0.71414 0.30062 0.0
C1094 C 0.36241 0.80941 0.35367 0.0
C1095 C 0.37537 0.82626 0.32682 0.0
C1096 C 0.36199 0.78601 0.34114 0.0
C1097 C 0.37494 0.77883 0.30227 0.0
C1098 C 0.38744 0.7958 0.27426 0.0
C1099 C 0.38735 0.81947 0.2859 0.0
H1100 H 0.56319 0.12076 0.54564 0.0
H1101 H 0.56105 0.17095 0.66139 0.0
H1102 H 0.5214 0.11862 0.53898 0.0
H1103 H 0.51986 0.16932 0.65392 0.0
H1104 H 0.45719 0.13095 0.69745 0.0
H1105 H 0.49696 0.13572 0.6859 0.0
H1106 H 0.48213 0.14075 0.51897 0.0
H1107 H 0.44138 0.13568 0.53048 0.0
C1108 C 0.55379 0.13181 0.56844 0.0
C1109 C 0.56534 0.14573 0.60466 0.0
C1110 C 0.52991 0.1306 0.56464 0.0
C1111 C 0.51737 0.14341 0.5968 0.0
C1112 C 0.52902 0.15878 0.62956 0.0
C1113 C 0.55265 0.15978 0.63372 0.0
C1114 C 0.46212 0.13311 0.65801 0.0
C1115 C 0.44586 0.13324 0.61486 0.0
C1116 C 0.48509 0.13596 0.65145 0.0
C1117 C 0.49272 0.13913 0.60154 0.0
C1118 C 0.47672 0.13847 0.55796 0.0
C1119 C 0.45343 0.13563 0.56456 0.0
H1120 H 0.92051 0.20868 0.82005 0.0
H1121 H 0.84743 0.21255 0.8041 0.0
H1122 H 0.92248 0.25161 0.80452 0.0
H1123 H 0.84921 0.25565 0.78992 0.0
H1124 H 0.91246 0.31896 0.89022 0.0
H1125 H 0.9132 0.27825 0.8691 0.0
H1126 H 0.86104 0.29387 0.74306 0.0
H1127 H 0.86031 0.3352 0.7646 0.0
C1128 C 0.90488 0.21873 0.81094 0.0
C1129 C 0.88384 0.20748 0.81271 0.0
C1130 C 0.90597 0.24329 0.80264 0.0
C1131 C 0.88601 0.25708 0.79702 0.0
C1132 C 0.86489 0.24557 0.79379 0.0
C1133 C 0.86383 0.2209 0.80175 0.0
C1134 C 0.90136 0.31386 0.85748 0.0
C1135 C 0.88621 0.33023 0.82933 0.0
C1136 C 0.90195 0.29052 0.84497 0.0
C1137 C 0.88725 0.28278 0.80417 0.0
C1138 C 0.87256 0.29932 0.77471 0.0
C1139 C 0.8722 0.32294 0.78687 0.0
H1140 H 0.6387 0.83944 0.27459 0.0
H1141 H 0.62662 0.81653 0.43336 0.0
H1142 H 0.63549 0.7982 0.25219 0.0
H1143 H 0.62382 0.77627 0.41141 0.0
H1144 H 0.59893 0.70975 0.36188 0.0
H1145 H 0.5973 0.75254 0.36118 0.0
H1146 H 0.6561 0.75833 0.27321 0.0
H1147 H 0.65709 0.71507 0.27223 0.0
C1148 C 0.63534 0.82575 0.30457 0.0
C1149 C 0.63279 0.83142 0.35571 0.0
C1150 C 0.63357 0.80217 0.29178 0.0
C1151 C 0.629 0.78401 0.32981 0.0
C1152 C 0.62674 0.78982 0.38076 0.0
C1153 C 0.62855 0.81307 0.39346 0.0
C1154 C 0.61113 0.7202 0.34117 0.0
C1155 C 0.62827 0.70921 0.31761 0.0
C1156 C 0.6103 0.7447 0.34098 0.0
C1157 C 0.62694 0.75881 0.31834 0.0
C1158 C 0.64306 0.74794 0.29101 0.0
C1159 C 0.64365 0.72323 0.29044 0.0
H1160 H 0.87505 0.71742 0.11025 0.0
H1161 H 0.87977 0.69488 0.2747 0.0
H1162 H 0.87811 0.75811 0.13004 0.0
H1163 H 0.8831 0.73643 0.29462 0.0
H1164 H 0.8613 0.81941 0.28533 0.0
H1165 H 0.86063 0.77621 0.28254 0.0
H1166 H 0.9095 0.78172 0.1677 0.0
H1167 H 0.9097 0.82438 0.16952 0.0
C1168 C 0.87683 0.72109 0.15082 0.0
C1169 C 0.87749 0.70275 0.19089 0.0
C1170 C 0.87868 0.74453 0.16214 0.0
C1171 C 0.88136 0.75047 0.21389 0.0
C1172 C 0.88118 0.73233 0.25435 0.0
C1173 C 0.87931 0.7086 0.24293 0.0
C1174 C 0.87224 0.81122 0.2605 0.0
C1175 C 0.88525 0.82518 0.22695 0.0
C1176 C 0.87187 0.78655 0.2589 0.0
C1177 C 0.88461 0.77567 0.22398 0.0
C1178 C 0.89904 0.78963 0.19398 0.0
C1179 C 0.89922 0.81407 0.19515 0.0
H1180 H 0.61639 0.19833 0.77081 0.0
H1181 H 0.66191 0.2184 0.65352 0.0
H1182 H 0.61655 0.23924 0.79571 0.0
H1183 H 0.66272 0.25874 0.67951 0.0
H1184 H 0.59814 0.32107 0.71826 0.0
H1185 H 0.60104 0.27798 0.73045 0.0
H1186 H 0.67355 0.28321 0.76445 0.0
H1187 H 0.67047 0.32647 0.75399 0.0
C1188 C 0.62683 0.21135 0.75133 0.0
C1189 C 0.63898 0.20538 0.70997 0.0
C1190 C 0.62693 0.23464 0.76556 0.0
C1191 C 0.63981 0.25201 0.73981 0.0
C1192 C 0.65291 0.24562 0.70047 0.0
C1193 C 0.65229 0.22262 0.6853 0.0
C1194 C 0.6145 0.31299 0.731 0.0
C1195 C 0.63406 0.32694 0.73577 0.0
C1196 C 0.61618 0.28837 0.73789 0.0
C1197 C 0.63752 0.27734 0.74817 0.0
C1198 C 0.6569 0.29135 0.75677 0.0
C1199 C 0.65513 0.31604 0.75116 0.0
H1200 H 0.95602 0.40131 0.82998 0.0
H1201 H 0.95302 0.39201 0.99673 0.0
H1202 H 0.99704 0.4 0.84182 0.0
H1203 H 0.9947 0.39024 1.00856 0.0
H1204 H 0.07203 0.41391 0.99617 0.0
H1205 H 0.03039 0.41405 0.9965 0.0
H1206 H 0.02531 0.36971 0.86835 0.0
H1207 H 0.06625 0.37007 0.86726 0.0
C1208 C 0.96408 0.39887 0.86933 0.0
C1209 C 0.95109 0.39651 0.91237 0.0
C1210 C 0.98772 0.398 0.87611 0.0
C1211 C 0.99922 0.39458 0.92612 0.0
C1212 C 0.98636 0.39288 0.96951 0.0
C1213 C 0.9625 0.39379 0.9627 0.0
C1214 C 0.06193 0.40394 0.96873 0.0
C1215 C 0.07236 0.39233 0.93112 0.0
C1216 C 0.03813 0.404 0.96889 0.0
C1217 C 0.02448 0.39235 0.93161 0.0
C1218 C 0.0352 0.37947 0.89656 0.0
C1219 C 0.05873 0.37959 0.89611 0.0
H1220 H 0.45516 0.65887 0.34294 0.0
H1221 H 0.45833 0.62475 0.49906 0.0
H1222 H 0.49615 0.65713 0.34505 0.0
H1223 H 0.50007 0.62281 0.50084 0.0
H1224 H 0.57839 0.64734 0.47781 0.0
H1225 H 0.53775 0.64907 0.49256 0.0
H1226 H 0.52054 0.62077 0.34452 0.0
H1227 H 0.56034 0.61926 0.32974 0.0
C1228 C 0.46463 0.65107 0.37796 0.0
C1229 C 0.45341 0.64155 0.42049 0.0
C1230 C 0.48818 0.65007 0.37912 0.0
C1231 C 0.5013 0.63939 0.42268 0.0
C1232 C 0.49034 0.63108 0.4667 0.0
C1233 C 0.46651 0.63216 0.46562 0.0
C1234 C 0.56585 0.64119 0.44898 0.0
C1235 C 0.57252 0.63366 0.40211 0.0
C1236 C 0.54266 0.64217 0.45741 0.0
C1237 C 0.52598 0.63557 0.41909 0.0
C1238 C 0.53293 0.62657 0.37414 0.0
C1239 C 0.5558 0.62569 0.36572 0.0
H1240 H 0.45176 0.3552 0.68958 0.0
H1241 H 0.44301 0.41933 0.588 0.0
H1242 H 0.49201 0.35462 0.67703 0.0
H1243 H 0.48391 0.41911 0.57619 0.0
H1244 H 0.56062 0.39954 0.55391 0.0
H1245 H 0.51885 0.39722 0.54657 0.0
H1246 H 0.52062 0.38194 0.71314 0.0
H1247 H 0.56155 0.38403 0.72053 0.0
C1248 C 0.45844 0.36899 0.66378 0.0
C1249 C 0.44437 0.38747 0.64031 0.0
C1250 C 0.48152 0.36872 0.65674 0.0
C1251 C 0.49126 0.38712 0.62663 0.0
C1252 C 0.47689 0.4047 0.59967 0.0
C1253 C 0.45352 0.40484 0.60637 0.0
C1254 C 0.55201 0.39561 0.58881 0.0
C1255 C 0.56451 0.39187 0.63776 0.0
C1256 C 0.52813 0.39439 0.5846 0.0
C1257 C 0.51645 0.38908 0.62919 0.0
C1258 C 0.52905 0.38558 0.67786 0.0
C1259 C 0.55264 0.38695 0.6821 0.0
H1260 H 0.06294 0.6439 0.03664 0.0
H1261 H 0.0605 0.63067 0.20299 0.0
H1262 H 0.02103 0.64543 0.02595 0.0
H1263 H 0.0196 0.63188 0.19228 0.0
H1264 H 0.9516 0.66324 0.17468 0.0
H1265 H 0.99225 0.66432 0.16826 0.0
H1266 H 0.9847 0.61996 0.04035 0.0
H1267 H 0.94328 0.61937 0.04603 0.0
C1268 C 0.05356 0.64122 0.07071 0.0
C1269 C 0.06515 0.63765 0.12074 0.0
C1270 C 0.02962 0.64202 0.06459 0.0
C1271 C 0.01701 0.6393 0.10841 0.0
C1272 C 0.02873 0.63475 0.15783 0.0
C1273 C 0.05233 0.63401 0.1639 0.0
C1274 C 0.95848 0.65391 0.1447 0.0
C1275 C 0.94428 0.64085 0.11151 0.0
C1276 C 0.98183 0.6545 0.14106 0.0
C1277 C 0.9918 0.64176 0.10463 0.0
C1278 C 0.97752 0.6299 0.06892 0.0
C1279 C 0.95386 0.62952 0.07223 0.0
H1280 H 0.12032 0.54857 0.15584 0.0
H1281 H 0.14357 0.58629 1.01868 0.0
H1282 H 0.11832 0.5122 0.11072 0.0
H1283 H 0.14151 0.55025 0.97407 0.0
H1284 H 0.11817 0.48395 0.89442 0.0
H1285 H 0.11413 0.52026 0.93827 0.0
H1286 H 0.14773 0.48613 0.07975 0.0
H1287 H 0.15184 0.45028 0.03653 0.0
C1288 C 0.12486 0.54914 0.11612 0.0
C1289 C 0.13239 0.57026 0.09123 0.0
C1290 C 0.12376 0.52835 0.09029 0.0
C1291 C 0.12977 0.52836 0.03876 0.0
C1292 C 0.13656 0.54966 1.01347 0.0
C1293 C 0.13797 0.57028 0.03941 0.0
C1294 C 0.12459 0.48424 0.93489 0.0
C1295 C 0.13558 0.46432 0.96165 0.0
C1296 C 0.12232 0.505 0.95999 0.0
C1297 C 0.13058 0.50604 1.01258 0.0
C1298 C 0.14097 0.48587 0.0395 0.0
C1299 C 0.14354 0.46537 1.01436 0.0
H1300 H 0.71888 0.87426 0.42429 0.0
H1301 H 0.6931 0.91483 0.28266 0.0
H1302 H 0.75591 0.87133 0.38939 0.0
H1303 H 0.72984 0.91184 0.24813 0.0
H1304 H 0.79324 0.8836 0.18304 0.0
H1305 H 0.75599 0.88205 0.2179 0.0
H1306 H 0.78707 0.8995 0.36706 0.0
H1307 H 0.82407 0.90109 0.33257 0.0
C1308 C 0.72106 0.88249 0.38579 0.0
C1309 C 0.70305 0.89496 0.35658 0.0
C1310 C 0.74228 0.88086 0.36582 0.0
C1311 C 0.74581 0.89132 0.3159 0.0
C1312 C 0.72765 0.90337 0.28642 0.0
C1313 C 0.70662 0.90527 0.30657 0.0
C1314 C 0.79212 0.88695 0.22333 0.0
C1315 C 0.81164 0.89266 0.25478 0.0
C1316 C 0.77079 0.88616 0.24326 0.0
C1317 C 0.76856 0.89068 0.2953 0.0
C1318 C 0.78819 0.89572 0.32702 0.0
C1319 C 0.8094 0.89683 0.30699 0.0
H1320 H 0.41845 0.4648 0.653 0.0
H1321 H 0.34525 0.46701 0.62854 0.0
H1322 H 0.42027 0.50235 0.59902 0.0
H1323 H 0.34707 0.50419 0.57516 0.0
H1324 H 0.35804 0.58229 0.53309 0.0
H1325 H 0.35869 0.54567 0.58847 0.0
H1326 H 0.41026 0.51774 0.50211 0.0
H1327 H 0.40973 0.55485 0.44589 0.0
C1328 C 0.40278 0.47347 0.63682 0.0
C1329 C 0.3817 0.46306 0.64534 0.0
C1330 C 0.40383 0.49476 0.60543 0.0
C1331 C 0.38381 0.50617 0.58278 0.0
C1332 C 0.36279 0.49594 0.59235 0.0
C1333 C 0.36175 0.47463 0.62298 0.0
C1334 C 0.36957 0.56843 0.52557 0.0
C1335 C 0.38377 0.57153 0.4847 0.0
C1336 C 0.36987 0.54737 0.5574 0.0
C1337 C 0.38448 0.5288 0.54964 0.0
C1338 C 0.39893 0.53184 0.50921 0.0
C1339 C 0.39847 0.55298 0.47677 0.0
H1340 H 0.8206 0.11736 0.78833 0.0
H1341 H 0.80103 0.16602 0.89627 0.0
H1342 H 0.78241 0.11944 0.74423 0.0
H1343 H 0.76232 0.16754 0.85244 0.0
H1344 H 0.69161 0.13271 0.79499 0.0
H1345 H 0.72984 0.13478 0.83884 0.0
H1346 H 0.75645 0.15314 0.69095 0.0
H1347 H 0.71802 0.15163 0.64687 0.0
C1348 C 0.8081 0.12841 0.80293 0.0
C1349 C 0.81385 0.14145 0.84609 0.0
C1350 C 0.78627 0.12972 0.7773 0.0
C1351 C 0.76945 0.14371 0.79477 0.0
C1352 C 0.77501 0.15661 0.83823 0.0
C1353 C 0.79711 0.15574 0.86326 0.0
C1354 C 0.70559 0.13726 0.77175 0.0
C1355 C 0.70181 0.14183 0.71734 0.0
C1356 C 0.72743 0.13863 0.79699 0.0
C1357 C 0.74607 0.14412 0.76832 0.0
C1358 C 0.74234 0.14882 0.71395 0.0
C1359 C 0.72038 0.14798 0.68877 0.0
H1360 H 0.90096 0.54898 0.1487 0.0
H1361 H 0.86065 0.58116 1.01369 0.0
H1362 H 0.90346 0.51257 0.10481 0.0
H1363 H 0.86307 0.54507 0.97054 0.0
H1364 H 0.8898 0.48459 0.88771 0.0
H1365 H 0.89102 0.52087 0.93245 0.0
H1366 H 0.87733 0.48084 0.07545 0.0
H1367 H 0.87626 0.44467 0.03119 0.0
C1368 C 0.89265 0.54831 0.10983 0.0
C1369 C 0.88048 0.56795 0.08499 0.0
C1370 C 0.89403 0.52746 0.08474 0.0
C1371 C 0.88352 0.52596 0.03408 0.0
C1372 C 0.8716 0.5457 1.00921 0.0
C1373 C 0.87004 0.56636 0.03433 0.0
C1374 C 0.88713 0.48351 0.92871 0.0
C1375 C 0.88272 0.46171 0.95561 0.0
C1376 C 0.88777 0.50431 0.95432 0.0
C1377 C 0.88423 0.50374 1.00753 0.0
C1378 C 0.88034 0.48188 0.03464 0.0
C1379 C 0.8795 0.46115 1.009 0.0
H1380 H 0.18949 0.13079 0.71365 0.0
H1381 H 0.22198 0.14756 0.86219 0.0
H1382 H 0.22638 0.13033 0.67838 0.0
H1383 H 0.25897 0.14704 0.82667 0.0
H1384 H 0.32003 0.11112 0.764 0.0
H1385 H 0.28322 0.11547 0.79718 0.0
H1386 H 0.25914 0.15678 0.65542 0.0
H1387 H 0.29633 0.15252 0.62181 0.0
C1388 C 0.20449 0.13447 0.7388 0.0
C1389 C 0.20276 0.13903 0.79098 0.0
C1390 C 0.22563 0.13438 0.71836 0.0
C1391 C 0.24563 0.13856 0.74971 0.0
C1392 C 0.24388 0.14354 0.80163 0.0
C1393 C 0.22268 0.14394 0.82193 0.0
C1394 C 0.30694 0.1211 0.7396 0.0
C1395 C 0.31116 0.13135 0.68993 0.0
C1396 C 0.28586 0.12378 0.75898 0.0
C1397 C 0.26826 0.13656 0.72912 0.0
C1398 C 0.27235 0.14674 0.6793 0.0
C1399 C 0.29364 0.14434 0.66008 0.0
H1400 H 0.67513 0.56419 0.42665 0.0
H1401 H 0.60211 0.56587 0.39644 0.0
H1402 H 0.67281 0.52666 0.47904 0.0
H1403 H 0.59979 0.52825 0.44978 0.0
H1404 H 0.60929 0.47763 0.60659 0.0
H1405 H 0.60965 0.51438 0.54944 0.0
H1406 H 0.66026 0.48436 0.46367 0.0
H1407 H 0.65983 0.44784 0.51981 0.0
C1408 C 0.65859 0.55639 0.43076 0.0
C1409 C 0.63882 0.56787 0.40715 0.0
C1410 C 0.65727 0.53492 0.46078 0.0
C1411 C 0.63611 0.52462 0.46867 0.0
C1412 C 0.6163 0.53592 0.4446 0.0
C1413 C 0.61765 0.55726 0.41364 0.0
C1414 C 0.62049 0.47893 0.57557 0.0
C1415 C 0.63457 0.45983 0.56792 0.0
C1416 C 0.62055 0.49985 0.54264 0.0
C1417 C 0.63498 0.50217 0.50213 0.0
C1418 C 0.64906 0.48311 0.4947 0.0
C1419 C 0.64874 0.46217 0.5269 0.0
H1420 H 0.29759 0.87858 0.38987 0.0
H1421 H 0.32086 0.90134 0.24027 0.0
H1422 H 0.25868 0.87633 0.34885 0.0
H1423 H 0.28218 0.89857 0.19944 0.0
H1424 H 0.21111 0.86764 0.14346 0.0
H1425 H 0.25033 0.86572 0.1846 0.0
H1426 H 0.23116 0.90966 0.30183 0.0
H1427 H 0.19249 0.91209 0.26056 0.0
C1428 C 0.29444 0.88291 0.34828 0.0
C1429 C 0.31227 0.89038 0.31847 0.0
C1430 C 0.27221 0.88163 0.32483 0.0
C1431 C 0.26746 0.88721 0.27093 0.0
C1432 C 0.28538 0.89399 0.24094 0.0
C1433 C 0.30748 0.89577 0.26449 0.0
C1434 C 0.21534 0.87686 0.17798 0.0
C1435 C 0.19876 0.89019 0.1984 0.0
C1436 C 0.23772 0.87578 0.20145 0.0
C1437 C 0.24371 0.88747 0.24654 0.0
C1438 C 0.22699 0.90033 0.26744 0.0
C1439 C 0.20488 0.90186 0.24342 0.0
H1440 H 0.61724 0.98598 0.39317 0.0
H1441 H 0.64818 0.95213 0.53801 0.0
H1442 H 0.61366 0.02274 0.43552 0.0
H1443 H 0.64451 0.98848 0.57981 0.0
H1444 H 0.61727 0.05266 0.65112 0.0
H1445 H 0.6151 0.01589 0.6074 0.0
H1446 H 0.64162 0.05198 0.47241 0.0
H1447 H 0.64388 0.08838 0.51565 0.0
C1448 C 0.62318 0.98633 0.43392 0.0
C1449 C 0.63325 0.9662 0.46192 0.0
C1450 C 0.62115 1.00735 0.45817 0.0
C1451 C 0.62876 1.00848 0.5111 0.0
C1452 C 0.63826 0.98815 0.53923 0.0
C1453 C 0.64059 0.96736 0.51494 0.0
C1454 C 0.6225 0.05272 0.61205 0.0
C1455 C 0.63102 0.07336 0.58724 0.0
C1456 C 0.62131 0.03169 0.58704 0.0
C1457 C 0.6282 0.03105 0.5364 0.0
C1458 C 0.63599 0.05191 0.51113 0.0
C1459 C 0.63751 0.07273 0.53629 0.0
H1460 H 0.19691 0.41555 0.78294 0.0
H1461 H 0.2224 0.3737 0.92313 0.0
H1462 H 0.23368 0.41283 0.74856 0.0
H1463 H 0.25943 0.37097 0.88829 0.0
H1464 H 0.32817 0.39825 0.83161 0.0
H1465 H 0.29128 0.39789 0.86665 0.0
H1466 H 0.25894 0.38333 0.71658 0.0
H1467 H 0.29598 0.38373 0.68117 0.0
C1468 C 0.21037 0.40578 0.8066 0.0
C1469 C 0.20667 0.39497 0.8561 0.0
C1470 C 0.23143 0.40405 0.78653 0.0
C1471 C 0.2495 0.39163 0.81553 0.0
C1472 C 0.24589 0.3808 0.86509 0.0
C1473 C 0.22466 0.38232 0.88501 0.0
C1474 C 0.31324 0.39491 0.80594 0.0
C1475 C 0.31509 0.39116 0.75335 0.0
C1476 C 0.29208 0.39452 0.82627 0.0
C1477 C 0.27214 0.39061 0.79447 0.0
C1478 C 0.27397 0.3866 0.74201 0.0
C1479 C 0.2952 0.38674 0.72176 0.0
H1480 H 0.85053 0.95867 0.07985 0.0
H1481 H 0.90513 0.97907 0.18912 0.0
H1482 H 0.85476 0.99536 0.02602 0.0
H1483 H 0.90915 0.01611 0.13504 0.0
H1484 H 0.88526 0.09024 0.05507 0.0
H1485 H 0.88482 0.05287 0.10835 0.0
H1486 H 0.88421 1.01514 0.97022 0.0
H1487 H 0.8848 0.05279 0.9164 0.0
C1488 C 0.86335 0.97104 0.09266 0.0
C1489 C 0.87742 0.96596 0.13907 0.0
C1490 C 0.86591 0.99197 0.06141 0.0
C1491 C 0.88239 1.00851 0.07607 0.0
C1492 C 0.89628 1.00367 0.12282 0.0
C1493 C 0.89394 0.98251 0.15381 0.0
C1494 C 0.88517 0.074 0.03593 0.0
C1495 C 0.88488 0.07447 0.98138 0.0
C1496 C 0.88509 0.05258 0.0666 0.0
C1497 C 0.8844 0.0311 0.04349 0.0
C1498 C 0.88457 0.03149 0.98903 0.0
C1499 C 0.88503 0.05299 0.95827 0.0
H1500 H 0.1939 0.62859 0.29657 0.0
H1501 H 0.21812 0.65258 0.14867 0.0
H1502 H 0.23225 0.63146 0.33899 0.0
H1503 H 0.2568 0.65492 0.19134 0.0
H1504 H 0.32276 0.61909 0.28306 0.0
H1505 H 0.28452 0.62161 0.23907 0.0
H1506 H 0.26339 0.66453 0.35617 0.0
H1507 H 0.3021 0.66252 0.39998 0.0
C1508 C 0.20744 0.63445 0.27306 0.0
C1509 C 0.20302 0.64015 0.2191 0.0
C1510 C 0.22935 0.63629 0.29753 0.0
C1511 C 0.24748 0.64342 0.26851 0.0
C1512 C 0.2431 0.64933 0.2146 0.0
C1513 C 0.22101 0.64801 0.19022 0.0
C1514 C 0.31001 0.6291 0.29956 0.0
C1515 C 0.31541 0.64043 0.34537 0.0
C1516 C 0.28816 0.63071 0.27399 0.0
C1517 C 0.27102 0.6433 0.2941 0.0
C1518 C 0.27633 0.65468 0.33989 0.0
C1519 C 0.29842 0.65354 0.36492 0.0
H1520 H 0.37163 0.94164 0.51985 0.0
H1521 H 0.39805 0.97997 0.38717 0.0
H1522 H 0.37394 0.97711 0.56663 0.0
H1523 H 0.40021 1.01575 0.43433 0.0
H1524 H 0.36685 0.07756 0.50992 0.0
H1525 H 0.37029 0.04209 0.46489 0.0
H1526 H 0.40251 1.00585 0.60553 0.0
H1527 H 0.39929 0.04177 0.65109 0.0
C1528 C 0.37795 0.95767 0.5006 0.0
C1529 C 0.38439 0.95807 0.44942 0.0
C1530 C 0.3795 0.97793 0.52774 0.0
C1531 C 0.38724 0.99921 0.50422 0.0
C1532 C 0.39405 0.99959 0.45334 0.0
C1533 C 0.39285 0.97914 0.42637 0.0
C1534 C 0.37474 0.0621 0.53148 0.0
C1535 C 0.38263 0.06246 0.58439 0.0
C1536 C 0.3769 0.04181 0.50536 0.0
C1537 C 0.38672 0.0212 0.53154 0.0
C1538 C 0.39478 0.0215 0.5844 0.0
C1539 C 0.39297 0.04203 0.61046 0.0
H1540 H 0.80984 0.59902 0.21759 0.0
H1541 H 0.80471 0.67275 0.16167 0.0
H1542 H 0.77302 0.6014 0.25241 0.0
H1543 H 0.76771 0.67517 0.19746 0.0
H1544 H 0.71608 0.67056 0.3301 0.0
H1545 H 0.75262 0.67038 0.29163 0.0
H1546 H 0.7319 0.60878 0.21319 0.0
H1547 H 0.69561 0.60902 0.25064 0.0
C1548 C 0.80079 0.61574 0.21252 0.0
C1549 C 0.81015 0.63567 0.18659 0.0
C1550 C 0.77968 0.61708 0.23245 0.0
C1551 C 0.76751 0.63848 0.22777 0.0
C1552 C 0.7768 0.65849 0.20189 0.0
C1553 C 0.79784 0.65704 0.181 0.0
C1554 C 0.71936 0.657 0.30467 0.0
C1555 C 0.70293 0.63976 0.2937 0.0
C1556 C 0.74018 0.65701 0.28236 0.0
C1557 C 0.74509 0.63954 0.24947 0.0
C1558 C 0.72866 0.62237 0.23862 0.0
C1559 C 0.70783 0.62257 0.26009 0.0
H1560 H 0.10089 0.06407 0.88947 0.0
H1561 H 0.1737 0.06166 0.92408 0.0
H1562 H 0.09767 0.0266 0.94283 0.0
H1563 H 0.17048 0.02438 0.97672 0.0
H1564 H 0.1574 0.94597 1.01673 0.0
H1565 H 0.15862 0.9826 0.96156 0.0
H1566 H 0.10549 1.0118 0.04134 0.0
H1567 H 0.10424 0.9748 0.09747 0.0
C1568 C 0.1162 0.05537 0.90773 0.0
C1569 C 0.13757 0.06572 0.9023 0.0
C1570 C 0.11433 0.0341 0.93874 0.0
C1571 C 0.13381 0.02262 0.96408 0.0
C1572 C 0.15517 0.03273 0.95746 0.0
C1573 C 0.15701 0.05408 0.92728 0.0
C1574 C 0.14591 0.96012 1.02277 0.0
C1575 C 0.13075 0.95743 0.06179 0.0
C1576 C 0.14669 0.98116 0.99111 0.0
C1577 C 0.13218 1.00007 0.9971 0.0
C1578 C 0.11678 0.99743 0.03563 0.0
C1579 C 0.11619 0.97635 0.06801 0.0
H1580 H 0.70177 0.35536 0.72613 0.0
H1581 H 0.71106 0.42872 0.67618 0.0
H1582 H 0.73904 0.35448 0.77555 0.0
H1583 H 0.74878 0.42768 0.7219 0.0
H1584 H 0.80373 0.4303 0.84994 0.0
H1585 H 0.7663 0.42825 0.80369 0.0
H1586 H 0.7784 0.3549 0.78086 0.0
H1587 H 0.81539 0.35681 0.83073 0.0
C1588 C 0.71211 0.3711 0.72454 0.0
C1589 C 0.70354 0.39213 0.69751 0.0
C1590 C 0.73353 0.37066 0.75293 0.0
C1591 C 0.74702 0.39116 0.75403 0.0
C1592 C 0.73876 0.41174 0.72406 0.0
C1593 C 0.71722 0.4123 0.69697 0.0
C1594 C 0.79818 0.41365 0.83573 0.0
C1595 C 0.81241 0.39372 0.84408 0.0
C1596 C 0.77679 0.4125 0.80836 0.0
C1597 C 0.76925 0.39154 0.78696 0.0
C1598 C 0.78335 0.37134 0.79679 0.0
C1599 C 0.8046 0.37238 0.82545 0.0
loop_
_geom_bond_atom_site_label_1
_geom_bond_atom_site_label_2
_geom_bond_distance
_geom_bond_site_symmetry_2
_ccdc_geom_bond_type
Tb0 C10 2.825 . S
Tb0 O11 2.347 . S
Tb0 O14 2.366 . S
Tb0 O19 2.418 . S
Tb0 O20 2.384 . S
Tb0 O23 2.479 . S
Tb0 O24 2.471 . S
Eu1 O12 2.418 . S
Eu1 O13 2.384 . S
Eu1 O16 2.479 . S
Eu1 O17 2.471 . S
Eu1 O18 2.347 . S
Eu1 O21 2.366 . S
Eu1 C31 2.825 . S
C2 O18 1.259 . S
C2 O19 1.265 . S
C3 O20 1.255 . S
C3 O21 1.265 . S
C4 C6 1.380 . S
C4 C7 1.374 . S
C4 C10 1.507 . S
C5 C6 1.384 . S
C5 C9 1.387 . S
C5 H32 0.930 . S
C6 C4 1.380 . S
C6 C5 1.384 . S
C6 H33 0.931 . S
C7 C4 1.374 . S
C7 C8 1.390 . S
C7 H34 0.930 . S
C8 C7 1.390 . S
C8 C9 1.391 . S
C8 H35 0.930 . S
C9 C5 1.387 . S
C9 C8 1.391 . S
C10 Tb0 2.825 . S
C10 C4 1.507 . S
C10 O23 1.238 . S
C10 O24 1.247 . S
O11 Tb0 2.347 . S
O11 C15 1.259 . S
O12 Eu1 2.418 . S
O12 C15 1.265 . S
O13 Eu1 2.384 . S
O13 C22 1.255 . S
O14 Tb0 2.366 . S
O14 C22 1.265 . S
C15 O11 1.259 . S
C15 O12 1.265 . S
O16 Eu1 2.479 . S
O16 C31 1.238 . S
O17 Eu1 2.471 . S
O17 C31 1.247 . S
O18 Eu1 2.347 . S
O18 C2 1.259 . S
O19 Tb0 2.418 . S
O19 C2 1.265 . S
O20 Tb0 2.384 . S
O20 C3 1.255 . S
O21 Eu1 2.366 . S
O21 C3 1.265 . S
C22 O13 1.255 . S
C22 O14 1.265 . S
O23 Tb0 2.479 . S
O23 C10 1.238 . S
O24 Tb0 2.471 . S
O24 C10 1.247 . S
C25 C28 1.380 . S
C25 C29 1.374 . S
C25 C31 1.507 1_556 S
C26 C27 1.387 . S
C26 C30 1.391 . S
C27 C26 1.387 . S
C27 C28 1.384 . S
C27 H36 0.930 . S
C28 C25 1.380 . S
C28 C27 1.384 . S
C28 H37 0.931 . S
C29 C25 1.374 . S
C29 C30 1.390 . S
C29 H38 0.930 . S
C30 C26 1.391 . S
C30 C29 1.390 . S
C30 H39 0.930 . S
C31 Eu1 2.825 . S
C31 O16 1.238 . S
C31 O17 1.247 . S
C31 C25 1.507 1_554 S
H32 C5 0.930 . S
H33 C6 0.931 . S
H34 C7 0.930 . S
H35 C8 0.930 . S
H36 C27 0.930 . S
H37 C28 0.931 . S
H38 C29 0.930 . S
H39 C30 0.930 . S
Tb40 C50 2.825 . S
Tb40 O51 2.347 . S
Tb40 O54 2.366 . S
Tb40 O59 2.418 . S
Tb40 O60 2.384 . S
Tb40 O63 2.479 . S
Tb40 O64 2.471 . S
Eu41 O52 2.418 . S
Eu41 O53 2.384 . S
Eu41 O56 2.479 . S
Eu41 O57 2.471 . S
Eu41 O58 2.347 . S
Eu41 O61 2.366 . S
Eu41 C71 2.825 . S
C42 O58 1.259 . S
C42 O59 1.265 . S
C43 O60 1.255 . S
C43 O61 1.265 . S
C44 C46 1.380 . S
C44 C47 1.374 . S
C44 C50 1.507 . S
C45 C46 1.384 . S
C45 C49 1.387 . S
C45 H72 0.930 . S
C46 C44 1.380 . S
C46 C45 1.384 . S
C46 H73 0.931 . S
C47 C44 1.374 . S
C47 C48 1.390 . S
C47 H74 0.930 . S
C48 C47 1.390 . S
C48 C49 1.391 . S
C48 H75 0.930 . S
C49 C45 1.387 . S
C49 C48 1.391 . S
C50 Tb40 2.825 . S
C50 C44 1.507 . S
C50 O63 1.238 . S
C50 O64 1.247 . S
O51 Tb40 2.347 . S
O51 C55 1.259 . S
O52 Eu41 2.418 . S
O52 C55 1.265 . S
O53 Eu41 2.384 . S
O53 C62 1.255 . S
O54 Tb40 2.366 . S
O54 C62 1.265 . S
C55 O51 1.259 . S
C55 O52 1.265 . S
O56 Eu41 2.479 . S
O56 C71 1.238 . S
O57 Eu41 2.471 . S
O57 C71 1.247 . S
O58 Eu41 2.347 . S
O58 C42 1.259 . S
O59 Tb40 2.418 . S
O59 C42 1.265 . S
O60 Tb40 2.384 . S
O60 C43 1.255 . S
O61 Eu41 2.366 . S
O61 C43 1.265 . S
C62 O53 1.255 . S
C62 O54 1.265 . S
O63 Tb40 2.479 . S
O63 C50 1.238 . S
O64 Tb40 2.471 . S
O64 C50 1.247 . S
C65 C68 1.380 . S
C65 C69 1.374 . S
C65 C71 1.507 . S
C66 C67 1.387 . S
C66 C70 1.391 . S
C67 C66 1.387 . S
C67 C68 1.384 . S
C67 H76 0.930 . S
C68 C65 1.380 . S
C68 C67 1.384 . S
C68 H77 0.931 . S
C69 C65 1.374 . S
C69 C70 1.390 . S
C69 H78 0.930 . S
C70 C66 1.391 . S
C70 C69 1.390 . S
C70 H79 0.930 . S
C71 Eu41 2.825 . S
C71 O56 1.238 . S
C71 O57 1.247 . S
C71 C65 1.507 . S
H72 C45 0.930 . S
H73 C46 0.931 . S
H74 C47 0.930 . S
H75 C48 0.930 . S
H76 C67 0.930 . S
H77 C68 0.931 . S
H78 C69 0.930 . S
H79 C70 0.930 . S
Tb80 C90 2.825 . S
Tb80 O91 2.347 . S
Tb80 O94 2.366 . S
Tb80 O99 2.418 . S
Tb80 O100 2.384 . S
Tb80 O103 2.479 . S
Tb80 O104 2.471 . S
Eu81 O92 2.418 . S
Eu81 O93 2.384 . S
Eu81 O96 2.479 . S
Eu81 O97 2.471 . S
Eu81 O98 2.347 . S
Eu81 O101 2.366 . S
Eu81 C111 2.825 . S
C82 O98 1.259 . S
C82 O99 1.265 . S
C83 O100 1.255 . S
C83 O101 1.265 . S
C84 C86 1.380 . S
C84 C87 1.374 . S
C84 C90 1.507 . S
C85 C86 1.384 . S
C85 C89 1.387 . S
C85 H112 0.930 . S
C86 C84 1.380 . S
C86 C85 1.384 . S
C86 H113 0.931 . S
C87 C84 1.374 . S
C87 C88 1.390 . S
C87 H114 0.930 . S
C88 C87 1.390 . S
C88 C89 1.391 . S
C88 H115 0.930 . S
C89 C85 1.387 . S
C89 C88 1.391 . S
C90 Tb80 2.825 . S
C90 C84 1.507 . S
C90 O103 1.238 . S
C90 O104 1.247 . S
O91 Tb80 2.347 . S
O91 C95 1.259 . S
O92 Eu81 2.418 . S
O92 C95 1.265 . S
O93 Eu81 2.384 . S
O93 C102 1.255 . S
O94 Tb80 2.366 . S
O94 C102 1.265 . S
C95 O91 1.259 . S
C95 O92 1.265 . S
O96 Eu81 2.479 . S
O96 C111 1.238 . S
O97 Eu81 2.471 . S
O97 C111 1.247 . S
O98 Eu81 2.347 . S
O98 C82 1.259 . S
O99 Tb80 2.418 . S
O99 C82 1.265 . S
O100 Tb80 2.384 . S
O100 C83 1.255 . S
O101 Eu81 2.366 . S
O101 C83 1.265 . S
C102 O93 1.255 . S
C102 O94 1.265 . S
O103 Tb80 2.479 . S
O103 C90 1.238 . S
O104 Tb80 2.471 . S
O104 C90 1.247 . S
C105 C108 1.380 . S
C105 C109 1.374 . S
C105 C111 1.507 . S
C106 C107 1.387 . S
C106 C110 1.391 . S
C107 C106 1.387 . S
C107 C108 1.384 . S
C107 H116 0.930 . S
C108 C105 1.380 . S
C108 C107 1.384 . S
C108 H117 0.931 . S
C109 C105 1.374 . S
C109 C110 1.390 . S
C109 H118 0.930 . S
C110 C106 1.391 . S
C110 C109 1.390 . S
C110 H119 0.930 . S
C111 Eu81 2.825 . S
C111 O96 1.238 . S
C111 O97 1.247 . S
C111 C105 1.507 . S
H112 C85 0.930 . S
H113 C86 0.931 . S
H114 C87 0.930 . S
H115 C88 0.930 . S
H116 C107 0.930 . S
H117 C108 0.931 . S
H118 C109 0.930 . S
H119 C110 0.930 . S
Tb120 C130 2.825 . S
Tb120 O131 2.347 . S
Tb120 O134 2.366 . S
Tb120 O139 2.418 . S
Tb120 O140 2.384 . S
Tb120 O143 2.479 . S
Tb120 O144 2.471 . S
Eu121 O132 2.418 . S
Eu121 O133 2.384 . S
Eu121 O136 2.479 1_556 S
Eu121 O137 2.471 1_556 S
Eu121 O138 2.347 . S
Eu121 O141 2.366 . S
Eu121 C151 2.825 1_556 S
C122 O138 1.259 . S
C122 O139 1.265 . S
C123 O140 1.255 . S
C123 O141 1.265 . S
C124 C126 1.380 . S
C124 C127 1.374 . S
C124 C130 1.507 . S
C125 C126 1.384 . S
C125 C129 1.387 . S
C125 H152 0.930 . S
C126 C124 1.380 . S
C126 C125 1.384 . S
C126 H153 0.931 . S
C127 C124 1.374 . S
C127 C128 1.390 . S
C127 H154 0.930 . S
C128 C127 1.390 . S
C128 C129 1.391 . S
C128 H155 0.930 . S
C129 C125 1.387 . S
C129 C128 1.391 . S
C130 Tb120 2.825 . S
C130 C124 1.507 . S
C130 O143 1.238 . S
C130 O144 1.247 . S
O131 Tb120 2.347 . S
O131 C135 1.259 . S
O132 Eu121 2.418 . S
O132 C135 1.265 . S
O133 Eu121 2.384 . S
O133 C142 1.255 . S
O134 Tb120 2.366 . S
O134 C142 1.265 . S
C135 O131 1.259 . S
C135 O132 1.265 . S
O136 Eu121 2.479 1_554 S
O136 C151 1.238 . S
O137 Eu121 2.471 1_554 S
O137 C151 1.247 . S
O138 Eu121 2.347 . S
O138 C122 1.259 . S
O139 Tb120 2.418 . S
O139 C122 1.265 . S
O140 Tb120 2.384 . S
O140 C123 1.255 . S
O141 Eu121 2.366 . S
O141 C123 1.265 . S
C142 O133 1.255 . S
C142 O134 1.265 . S
O143 Tb120 2.479 . S
O143 C130 1.238 . S
O144 Tb120 2.471 . S
O144 C130 1.247 . S
C145 C148 1.380 . S
C145 C149 1.374 . S
C145 C151 1.507 . S
C146 C147 1.387 . S
C146 C150 1.391 . S
C147 C146 1.387 . S
C147 C148 1.384 . S
C147 H156 0.930 . S
C148 C145 1.380 . S
C148 C147 1.384 . S
C148 H157 0.931 . S
C149 C145 1.374 . S
C149 C150 1.390 . S
C149 H158 0.930 . S
C150 C146 1.391 . S
C150 C149 1.390 . S
C150 H159 0.930 . S
C151 Eu121 2.825 1_554 S
C151 O136 1.238 . S
C151 O137 1.247 . S
C151 C145 1.507 . S
H152 C125 0.930 . S
H153 C126 0.931 . S
H154 C127 0.930 . S
H155 C128 0.930 . S
H156 C147 0.930 . S
H157 C148 0.931 . S
H158 C149 0.930 . S
H159 C150 0.930 . S
Tb160 C170 2.825 . S
Tb160 O171 2.347 . S
Tb160 O174 2.366 . S
Tb160 O179 2.418 . S
Tb160 O180 2.384 . S
Tb160 O183 2.479 . S
Tb160 O184 2.471 . S
Eu161 O172 2.418 . S
Eu161 O173 2.384 . S
Eu161 O176 2.479 1_556 S
Eu161 O177 2.471 1_556 S
Eu161 O178 2.347 . S
Eu161 O181 2.366 . S
Eu161 C191 2.825 1_556 S
C162 O178 1.259 . S
C162 O179 1.265 . S
C163 O180 1.255 . S
C163 O181 1.265 . S
C164 C166 1.380 . S
C164 C167 1.374 . S
C164 C170 1.507 . S
C165 C166 1.384 . S
C165 C169 1.387 . S
C165 H192 0.930 . S
C166 C164 1.380 . S
C166 C165 1.384 . S
C166 H193 0.931 . S
C167 C164 1.374 . S
C167 C168 1.390 . S
C167 H194 0.930 . S
C168 C167 1.390 . S
C168 C169 1.391 . S
C168 H195 0.930 . S
C169 C165 1.387 . S
C169 C168 1.391 . S
C170 Tb160 2.825 . S
C170 C164 1.507 . S
C170 O183 1.238 . S
C170 O184 1.247 . S
O171 Tb160 2.347 . S
O171 C175 1.259 . S
O172 Eu161 2.418 . S
O172 C175 1.265 . S
O173 Eu161 2.384 . S
O173 C182 1.255 . S
O174 Tb160 2.366 . S
O174 C182 1.265 . S
C175 O171 1.259 . S
C175 O172 1.265 . S
O176 Eu161 2.479 1_554 S
O176 C191 1.238 . S
O177 Eu161 2.471 1_554 S
O177 C191 1.247 . S
O178 Eu161 2.347 . S
O178 C162 1.259 . S
O179 Tb160 2.418 . S
O179 C162 1.265 . S
O180 Tb160 2.384 . S
O180 C163 1.255 . S
O181 Eu161 2.366 . S
O181 C163 1.265 . S
C182 O173 1.255 . S
C182 O174 1.265 . S
O183 Tb160 2.479 . S
O183 C170 1.238 . S
O184 Tb160 2.471 . S
O184 C170 1.247 . S
C185 C188 1.380 . S
C185 C189 1.374 . S
C185 C191 1.507 . S
C186 C187 1.387 . S
C186 C190 1.391 . S
C187 C186 1.387 . S
C187 C188 1.384 . S
C187 H196 0.930 . S
C188 C185 1.380 . S
C188 C187 1.384 . S
C188 H197 0.931 . S
C189 C185 1.374 . S
C189 C190 1.390 . S
C189 H198 0.930 . S
C190 C186 1.391 . S
C190 C189 1.390 . S
C190 H199 0.930 . S
C191 Eu161 2.825 1_554 S
C191 O176 1.238 . S
C191 O177 1.247 . S
C191 C185 1.507 . S
H192 C165 0.930 . S
H193 C166 0.931 . S
H194 C167 0.930 . S
H195 C168 0.930 . S
H196 C187 0.930 . S
H197 C188 0.931 . S
H198 C189 0.930 . S
H199 C190 0.930 . S
Tb200 C210 2.825 . S
Tb200 O211 2.347 . S
Tb200 O214 2.366 . S
Tb200 O219 2.418 . S
Tb200 O220 2.384 . S
Tb200 O223 2.479 . S
Tb200 O224 2.471 . S
Eu201 O212 2.418 . S
Eu201 O213 2.384 . S
Eu201 O216 2.479 . S
Eu201 O217 2.471 . S
Eu201 O218 2.347 . S
Eu201 O221 2.366 . S
Eu201 C231 2.825 . S
C202 O218 1.259 . S
C202 O219 1.265 . S
C203 O220 1.255 . S
C203 O221 1.265 . S
C204 C206 1.380 . S
C204 C207 1.374 . S
C204 C210 1.507 1_556 S
C205 C206 1.384 . S
C205 C209 1.387 . S
C205 H232 0.930 . S
C206 C204 1.380 . S
C206 C205 1.384 . S
C206 H233 0.931 . S
C207 C204 1.374 . S
C207 C208 1.390 . S
C207 H234 0.930 . S
C208 C207 1.390 . S
C208 C209 1.391 . S
C208 H235 0.930 . S
C209 C205 1.387 . S
C209 C208 1.391 . S
C210 Tb200 2.825 . S
C210 C204 1.507 1_554 S
C210 O223 1.238 . S
C210 O224 1.247 . S
O211 Tb200 2.347 . S
O211 C215 1.259 . S
O212 Eu201 2.418 . S
O212 C215 1.265 . S
O213 Eu201 2.384 . S
O213 C222 1.255 . S
O214 Tb200 2.366 . S
O214 C222 1.265 . S
C215 O211 1.259 . S
C215 O212 1.265 . S
O216 Eu201 2.479 . S
O216 C231 1.238 . S
O217 Eu201 2.471 . S
O217 C231 1.247 . S
O218 Eu201 2.347 . S
O218 C202 1.259 . S
O219 Tb200 2.418 . S
O219 C202 1.265 . S
O220 Tb200 2.384 . S
O220 C203 1.255 . S
O221 Eu201 2.366 . S
O221 C203 1.265 . S
C222 O213 1.255 . S
C222 O214 1.265 . S
O223 Tb200 2.479 . S
O223 C210 1.238 . S
O224 Tb200 2.471 . S
O224 C210 1.247 . S
C225 C228 1.380 . S
C225 C229 1.374 . S
C225 C231 1.507 . S
C226 C227 1.387 . S
C226 C230 1.391 . S
C227 C226 1.387 . S
C227 C228 1.384 . S
C227 H236 0.930 . S
C228 C225 1.380 . S
C228 C227 1.384 . S
C228 H237 0.931 . S
C229 C225 1.374 . S
C229 C230 1.390 . S
C229 H238 0.930 . S
C230 C226 1.391 . S
C230 C229 1.390 . S
C230 H239 0.930 . S
C231 Eu201 2.825 . S
C231 O216 1.238 . S
C231 O217 1.247 . S
C231 C225 1.507 . S
H232 C205 0.930 . S
H233 C206 0.931 . S
H234 C207 0.930 . S
H235 C208 0.930 . S
H236 C227 0.930 . S
H237 C228 0.931 . S
H238 C229 0.930 . S
H239 C230 0.930 . S
Tb240 C250 2.825 . S
Tb240 O251 2.347 . S
Tb240 O254 2.366 . S
Tb240 O259 2.418 . S
Tb240 O260 2.384 . S
Tb240 O263 2.479 . S
Tb240 O264 2.471 . S
Eu241 O252 2.418 . S
Eu241 O253 2.384 . S
Eu241 O256 2.479 . S
Eu241 O257 2.471 . S
Eu241 O258 2.347 . S
Eu241 O261 2.366 . S
Eu241 C271 2.825 . S
C242 O258 1.259 . S
C242 O259 1.265 . S
C243 O260 1.255 . S
C243 O261 1.265 . S
C244 C246 1.380 . S
C244 C247 1.374 . S
C244 C250 1.507 . S
C245 C246 1.384 . S
C245 C249 1.387 . S
C245 H272 0.930 . S
C246 C244 1.380 . S
C246 C245 1.384 . S
C246 H273 0.931 . S
C247 C244 1.374 . S
C247 C248 1.390 . S
C247 H274 0.930 . S
C248 C247 1.390 . S
C248 C249 1.391 . S
C248 H275 0.930 . S
C249 C245 1.387 . S
C249 C248 1.391 . S
C250 Tb240 2.825 . S
C250 C244 1.507 . S
C250 O263 1.238 . S
C250 O264 1.247 . S
O251 Tb240 2.347 . S
O251 C255 1.259 . S
O252 Eu241 2.418 . S
O252 C255 1.265 . S
O253 Eu241 2.384 . S
O253 C262 1.255 . S
O254 Tb240 2.366 . S
O254 C262 1.265 . S
C255 O251 1.259 . S
C255 O252 1.265 . S
O256 Eu241 2.479 . S
O256 C271 1.238 . S
O257 Eu241 2.471 . S
O257 C271 1.247 . S
O258 Eu241 2.347 . S
O258 C242 1.259 . S
O259 Tb240 2.418 . S
O259 C242 1.265 . S
O260 Tb240 2.384 . S
O260 C243 1.255 . S
O261 Eu241 2.366 . S
O261 C243 1.265 . S
C262 O253 1.255 . S
C262 O254 1.265 . S
O263 Tb240 2.479 . S
O263 C250 1.238 . S
O264 Tb240 2.471 . S
O264 C250 1.247 . S
C265 C268 1.380 . S
C265 C269 1.374 . S
C265 C271 1.507 . S
C266 C267 1.387 . S
C266 C270 1.391 . S
C267 C266 1.387 . S
C267 C268 1.384 . S
C267 H276 0.930 . S
C268 C265 1.380 . S
C268 C267 1.384 . S
C268 H277 0.931 . S
C269 C265 1.374 . S
C269 C270 1.390 . S
C269 H278 0.930 . S
C270 C266 1.391 . S
C270 C269 1.390 . S
C270 H279 0.930 . S
C271 Eu241 2.825 . S
C271 O256 1.238 . S
C271 O257 1.247 . S
C271 C265 1.507 . S
H272 C245 0.930 . S
H273 C246 0.931 . S
H274 C247 0.930 . S
H275 C248 0.930 . S
H276 C267 0.930 . S
H277 C268 0.931 . S
H278 C269 0.930 . S
H279 C270 0.930 . S
Tb280 C290 2.825 . S
Tb280 O291 2.347 . S
Tb280 O294 2.366 . S
Tb280 O299 2.418 . S
Tb280 O300 2.384 . S
Tb280 O303 2.479 . S
Tb280 O304 2.471 . S
Eu281 O292 2.418 . S
Eu281 O293 2.384 . S
Eu281 O296 2.479 . S
Eu281 O297 2.471 . S
Eu281 O298 2.347 . S
Eu281 O301 2.366 . S
Eu281 C311 2.825 . S
C282 O298 1.259 . S
C282 O299 1.265 . S
C283 O300 1.255 . S
C283 O301 1.265 . S
C284 C286 1.380 . S
C284 C287 1.374 . S
C284 C290 1.507 . S
C285 C286 1.384 . S
C285 C289 1.387 1_556 S
C285 H312 0.930 1_556 S
C286 C284 1.380 . S
C286 C285 1.384 . S
C286 H313 0.931 . S
C287 C284 1.374 . S
C287 C288 1.390 . S
C287 H314 0.930 . S
C288 C287 1.390 . S
C288 C289 1.391 1_556 S
C288 H315 0.930 . S
C289 C285 1.387 1_554 S
C289 C288 1.391 1_554 S
C290 Tb280 2.825 . S
C290 C284 1.507 . S
C290 O303 1.238 . S
C290 O304 1.247 . S
O291 Tb280 2.347 . S
O291 C295 1.259 . S
O292 Eu281 2.418 . S
O292 C295 1.265 . S
O293 Eu281 2.384 . S
O293 C302 1.255 . S
O294 Tb280 2.366 . S
O294 C302 1.265 . S
C295 O291 1.259 . S
C295 O292 1.265 . S
O296 Eu281 2.479 . S
O296 C311 1.238 . S
O297 Eu281 2.471 . S
O297 C311 1.247 . S
O298 Eu281 2.347 . S
O298 C282 1.259 . S
O299 Tb280 2.418 . S
O299 C282 1.265 . S
O300 Tb280 2.384 . S
O300 C283 1.255 . S
O301 Eu281 2.366 . S
O301 C283 1.265 . S
C302 O293 1.255 . S
C302 O294 1.265 . S
O303 Tb280 2.479 . S
O303 C290 1.238 . S
O304 Tb280 2.471 . S
O304 C290 1.247 . S
C305 C308 1.380 . S
C305 C309 1.374 . S
C305 C311 1.507 . S
C306 C307 1.387 . S
C306 C310 1.391 . S
C307 C306 1.387 . S
C307 C308 1.384 . S
C307 H316 0.930 . S
C308 C305 1.380 . S
C308 C307 1.384 . S
C308 H317 0.931 . S
C309 C305 1.374 . S
C309 C310 1.390 . S
C309 H318 0.930 . S
C310 C306 1.391 . S
C310 C309 1.390 . S
C310 H319 0.930 . S
C311 Eu281 2.825 . S
C311 O296 1.238 . S
C311 O297 1.247 . S
C311 C305 1.507 . S
H312 C285 0.930 1_554 S
H313 C286 0.931 . S
H314 C287 0.930 . S
H315 C288 0.930 . S
H316 C307 0.930 . S
H317 C308 0.931 . S
H318 C309 0.930 . S
H319 C310 0.930 . S
Tb320 C330 2.825 . S
Tb320 O331 2.347 . S
Tb320 O334 2.366 . S
Tb320 O339 2.418 . S
Tb320 O340 2.384 . S
Tb320 O343 2.479 . S
Tb320 O344 2.471 . S
Eu321 O332 2.418 . S
Eu321 O333 2.384 . S
Eu321 O336 2.479 . S
Eu321 O337 2.471 . S
Eu321 O338 2.347 . S
Eu321 O341 2.366 . S
Eu321 C351 2.825 . S
C322 O338 1.259 . S
C322 O339 1.265 . S
C323 O340 1.255 . S
C323 O341 1.265 . S
C324 C326 1.380 . S
C324 C327 1.374 . S
C324 C330 1.507 1_554 S
C325 C326 1.384 . S
C325 C329 1.387 . S
C325 H352 0.930 . S
C326 C324 1.380 . S
C326 C325 1.384 . S
C326 H353 0.931 . S
C327 C324 1.374 . S
C327 C328 1.390 . S
C327 H354 0.930 . S
C328 C327 1.390 . S
C328 C329 1.391 . S
C328 H355 0.930 . S
C329 C325 1.387 . S
C329 C328 1.391 . S
C330 Tb320 2.825 . S
C330 C324 1.507 1_556 S
C330 O343 1.238 . S
C330 O344 1.247 . S
O331 Tb320 2.347 . S
O331 C335 1.259 . S
O332 Eu321 2.418 . S
O332 C335 1.265 . S
O333 Eu321 2.384 . S
O333 C342 1.255 . S
O334 Tb320 2.366 . S
O334 C342 1.265 . S
C335 O331 1.259 . S
C335 O332 1.265 . S
O336 Eu321 2.479 . S
O336 C351 1.238 . S
O337 Eu321 2.471 . S
O337 C351 1.247 . S
O338 Eu321 2.347 . S
O338 C322 1.259 . S
O339 Tb320 2.418 . S
O339 C322 1.265 . S
O340 Tb320 2.384 . S
O340 C323 1.255 . S
O341 Eu321 2.366 . S
O341 C323 1.265 . S
C342 O333 1.255 . S
C342 O334 1.265 . S
O343 Tb320 2.479 . S
O343 C330 1.238 . S
O344 Tb320 2.471 . S
O344 C330 1.247 . S
C345 C348 1.380 . S
C345 C349 1.374 . S
C345 C351 1.507 . S
C346 C347 1.387 . S
C346 C350 1.391 . S
C347 C346 1.387 . S
C347 C348 1.384 . S
C347 H356 0.930 . S
C348 C345 1.380 . S
C348 C347 1.384 . S
C348 H357 0.931 . S
C349 C345 1.374 . S
C349 C350 1.390 . S
C349 H358 0.930 . S
C350 C346 1.391 . S
C350 C349 1.390 . S
C350 H359 0.930 . S
C351 Eu321 2.825 . S
C351 O336 1.238 . S
C351 O337 1.247 . S
C351 C345 1.507 . S
H352 C325 0.930 . S
H353 C326 0.931 . S
H354 C327 0.930 . S
H355 C328 0.930 . S
H356 C347 0.930 . S
H357 C348 0.931 . S
H358 C349 0.930 . S
H359 C350 0.930 . S
Tb360 C370 2.825 . S
Tb360 O371 2.347 . S
Tb360 O374 2.366 . S
Tb360 O379 2.418 . S
Tb360 O380 2.384 . S
Tb360 O383 2.479 . S
Tb360 O384 2.471 . S
Eu361 O372 2.418 . S
Eu361 O373 2.384 . S
Eu361 O376 2.479 . S
Eu361 O377 2.471 . S
Eu361 O378 2.347 . S
Eu361 O381 2.366 . S
Eu361 C391 2.825 . S
C362 O378 1.259 . S
C362 O379 1.265 . S
C363 O380 1.255 . S
C363 O381 1.265 . S
C364 C366 1.380 . S
C364 C367 1.374 . S
C364 C370 1.507 . S
C365 C366 1.384 . S
C365 C369 1.387 . S
C365 H392 0.930 . S
C366 C364 1.380 . S
C366 C365 1.384 . S
C366 H393 0.931 . S
C367 C364 1.374 . S
C367 C368 1.390 . S
C367 H394 0.930 . S
C368 C367 1.390 . S
C368 C369 1.391 . S
C368 H395 0.930 . S
C369 C365 1.387 . S
C369 C368 1.391 . S
C370 Tb360 2.825 . S
C370 C364 1.507 . S
C370 O383 1.238 . S
C370 O384 1.247 . S
O371 Tb360 2.347 . S
O371 C375 1.259 . S
O372 Eu361 2.418 . S
O372 C375 1.265 . S
O373 Eu361 2.384 . S
O373 C382 1.255 . S
O374 Tb360 2.366 . S
O374 C382 1.265 . S
C375 O371 1.259 . S
C375 O372 1.265 . S
O376 Eu361 2.479 . S
O376 C391 1.238 . S
O377 Eu361 2.471 . S
O377 C391 1.247 . S
O378 Eu361 2.347 . S
O378 C362 1.259 . S
O379 Tb360 2.418 . S
O379 C362 1.265 . S
O380 Tb360 2.384 . S
O380 C363 1.255 . S
O381 Eu361 2.366 . S
O381 C363 1.265 . S
C382 O373 1.255 . S
C382 O374 1.265 . S
O383 Tb360 2.479 . S
O383 C370 1.238 . S
O384 Tb360 2.471 . S
O384 C370 1.247 . S
C385 C388 1.380 . S
C385 C389 1.374 . S
C385 C391 1.507 . S
C386 C387 1.387 . S
C386 C390 1.391 . S
C387 C386 1.387 . S
C387 C388 1.384 . S
C387 H396 0.930 . S
C388 C385 1.380 . S
C388 C387 1.384 . S
C388 H397 0.931 . S
C389 C385 1.374 . S
C389 C390 1.390 . S
C389 H398 0.930 . S
C390 C386 1.391 . S
C390 C389 1.390 . S
C390 H399 0.930 . S
C391 Eu361 2.825 . S
C391 O376 1.238 . S
C391 O377 1.247 . S
C391 C385 1.507 . S
H392 C365 0.930 . S
H393 C366 0.931 . S
H394 C367 0.930 . S
H395 C368 0.930 . S
H396 C387 0.930 . S
H397 C388 0.931 . S
H398 C389 0.930 . S
H399 C390 0.930 . S
Tb400 C410 2.825 . S
Tb400 O411 2.347 . S
Tb400 O414 2.366 . S
Tb400 O419 2.418 . S
Tb400 O420 2.384 . S
Tb400 O423 2.479 . S
Tb400 O424 2.471 . S
Eu401 O412 2.418 . S
Eu401 O413 2.384 . S
Eu401 O416 2.479 . S
Eu401 O417 2.471 . S
Eu401 O418 2.347 . S
Eu401 O421 2.366 . S
Eu401 C431 2.825 . S
C402 O418 1.259 . S
C402 O419 1.265 . S
C403 O420 1.255 . S
C403 O421 1.265 . S
C404 C406 1.380 . S
C404 C407 1.374 . S
C404 C410 1.507 . S
C405 C406 1.384 . S
C405 C409 1.387 . S
C405 H432 0.930 . S
C406 C404 1.380 . S
C406 C405 1.384 . S
C406 H433 0.931 . S
C407 C404 1.374 . S
C407 C408 1.390 . S
C407 H434 0.930 . S
C408 C407 1.390 . S
C408 C409 1.391 . S
C408 H435 0.930 . S
C409 C405 1.387 . S
C409 C408 1.391 . S
C410 Tb400 2.825 . S
C410 C404 1.507 . S
C410 O423 1.238 . S
C410 O424 1.247 . S
O411 Tb400 2.347 . S
O411 C415 1.259 . S
O412 Eu401 2.418 . S
O412 C415 1.265 . S
O413 Eu401 2.384 . S
O413 C422 1.255 . S
O414 Tb400 2.366 . S
O414 C422 1.265 . S
C415 O411 1.259 . S
C415 O412 1.265 . S
O416 Eu401 2.479 . S
O416 C431 1.238 . S
O417 Eu401 2.471 . S
O417 C431 1.247 . S
O418 Eu401 2.347 . S
O418 C402 1.259 . S
O419 Tb400 2.418 . S
O419 C402 1.265 . S
O420 Tb400 2.384 . S
O420 C403 1.255 . S
O421 Eu401 2.366 . S
O421 C403 1.265 . S
C422 O413 1.255 . S
C422 O414 1.265 . S
O423 Tb400 2.479 . S
O423 C410 1.238 . S
O424 Tb400 2.471 . S
O424 C410 1.247 . S
C425 C428 1.380 . S
C425 C429 1.374 . S
C425 C431 1.507 . S
C426 C427 1.387 . S
C426 C430 1.391 . S
C427 C426 1.387 . S
C427 C428 1.384 . S
C427 H436 0.930 . S
C428 C425 1.380 . S
C428 C427 1.384 . S
C428 H437 0.931 . S
C429 C425 1.374 . S
C429 C430 1.390 . S
C429 H438 0.930 . S
C430 C426 1.391 . S
C430 C429 1.390 . S
C430 H439 0.930 . S
C431 Eu401 2.825 . S
C431 O416 1.238 . S
C431 O417 1.247 . S
C431 C425 1.507 . S
H432 C405 0.930 . S
H433 C406 0.931 . S
H434 C407 0.930 . S
H435 C408 0.930 . S
H436 C427 0.930 . S
H437 C428 0.931 . S
H438 C429 0.930 . S
H439 C430 0.930 . S
Tb440 C450 2.825 1_554 S
Tb440 O451 2.347 . S
Tb440 O454 2.366 . S
Tb440 O459 2.418 . S
Tb440 O460 2.384 . S
Tb440 O463 2.479 1_554 S
Tb440 O464 2.471 1_554 S
Eu441 O452 2.418 . S
Eu441 O453 2.384 . S
Eu441 O456 2.479 . S
Eu441 O457 2.471 . S
Eu441 O458 2.347 . S
Eu441 O461 2.366 . S
Eu441 C471 2.825 . S
C442 O458 1.259 . S
C442 O459 1.265 . S
C443 O460 1.255 . S
C443 O461 1.265 . S
C444 C446 1.380 . S
C444 C447 1.374 . S
C444 C450 1.507 . S
C445 C446 1.384 . S
C445 C449 1.387 . S
C445 H472 0.930 . S
C446 C444 1.380 . S
C446 C445 1.384 . S
C446 H473 0.931 . S
C447 C444 1.374 . S
C447 C448 1.390 . S
C447 H474 0.930 . S
C448 C447 1.390 . S
C448 C449 1.391 . S
C448 H475 0.930 . S
C449 C445 1.387 . S
C449 C448 1.391 . S
C450 Tb440 2.825 1_556 S
C450 C444 1.507 . S
C450 O463 1.238 . S
C450 O464 1.247 . S
O451 Tb440 2.347 . S
O451 C455 1.259 . S
O452 Eu441 2.418 . S
O452 C455 1.265 . S
O453 Eu441 2.384 . S
O453 C462 1.255 . S
O454 Tb440 2.366 . S
O454 C462 1.265 . S
C455 O451 1.259 . S
C455 O452 1.265 . S
O456 Eu441 2.479 . S
O456 C471 1.238 . S
O457 Eu441 2.471 . S
O457 C471 1.247 . S
O458 Eu441 2.347 . S
O458 C442 1.259 . S
O459 Tb440 2.418 . S
O459 C442 1.265 . S
O460 Tb440 2.384 . S
O460 C443 1.255 . S
O461 Eu441 2.366 . S
O461 C443 1.265 . S
C462 O453 1.255 . S
C462 O454 1.265 . S
O463 Tb440 2.479 1_556 S
O463 C450 1.238 . S
O464 Tb440 2.471 1_556 S
O464 C450 1.247 . S
C465 C468 1.380 . S
C465 C469 1.374 . S
C465 C471 1.507 . S
C466 C467 1.387 . S
C466 C470 1.391 . S
C467 C466 1.387 . S
C467 C468 1.384 . S
C467 H476 0.930 . S
C468 C465 1.380 . S
C468 C467 1.384 . S
C468 H477 0.931 . S
C469 C465 1.374 . S
C469 C470 1.390 . S
C469 H478 0.930 . S
C470 C466 1.391 . S
C470 C469 1.390 . S
C470 H479 0.930 . S
C471 Eu441 2.825 . S
C471 O456 1.238 . S
C471 O457 1.247 . S
C471 C465 1.507 . S
H472 C445 0.930 . S
H473 C446 0.931 . S
H474 C447 0.930 . S
H475 C448 0.930 . S
H476 C467 0.930 . S
H477 C468 0.931 . S
H478 C469 0.930 . S
H479 C470 0.930 . S
Tb480 C490 2.825 1_554 S
Tb480 O491 2.347 . S
Tb480 O494 2.366 . S
Tb480 O499 2.418 . S
Tb480 O500 2.384 . S
Tb480 O503 2.479 1_554 S
Tb480 O504 2.471 1_554 S
Eu481 O492 2.418 . S
Eu481 O493 2.384 . S
Eu481 O496 2.479 . S
Eu481 O497 2.471 . S
Eu481 O498 2.347 . S
Eu481 O501 2.366 . S
Eu481 C511 2.825 . S
C482 O498 1.259 . S
C482 O499 1.265 . S
C483 O500 1.255 . S
C483 O501 1.265 . S
C484 C486 1.380 . S
C484 C487 1.374 . S
C484 C490 1.507 . S
C485 C486 1.384 . S
C485 C489 1.387 . S
C485 H512 0.930 . S
C486 C484 1.380 . S
C486 C485 1.384 . S
C486 H513 0.931 . S
C487 C484 1.374 . S
C487 C488 1.390 . S
C487 H514 0.930 . S
C488 C487 1.390 . S
C488 C489 1.391 . S
C488 H515 0.930 . S
C489 C485 1.387 . S
C489 C488 1.391 . S
C490 Tb480 2.825 1_556 S
C490 C484 1.507 . S
C490 O503 1.238 . S
C490 O504 1.247 . S
O491 Tb480 2.347 . S
O491 C495 1.259 . S
O492 Eu481 2.418 . S
O492 C495 1.265 . S
O493 Eu481 2.384 . S
O493 C502 1.255 . S
O494 Tb480 2.366 . S
O494 C502 1.265 . S
C495 O491 1.259 . S
C495 O492 1.265 . S
O496 Eu481 2.479 . S
O496 C511 1.238 . S
O497 Eu481 2.471 . S
O497 C511 1.247 . S
O498 Eu481 2.347 . S
O498 C482 1.259 . S
O499 Tb480 2.418 . S
O499 C482 1.265 . S
O500 Tb480 2.384 . S
O500 C483 1.255 . S
O501 Eu481 2.366 . S
O501 C483 1.265 . S
C502 O493 1.255 . S
C502 O494 1.265 . S
O503 Tb480 2.479 1_556 S
O503 C490 1.238 . S
O504 Tb480 2.471 1_556 S
O504 C490 1.247 . S
C505 C508 1.380 . S
C505 C509 1.374 . S
C505 C511 1.507 . S
C506 C507 1.387 . S
C506 C510 1.391 . S
C507 C506 1.387 . S
C507 C508 1.384 . S
C507 H516 0.930 . S
C508 C505 1.380 . S
C508 C507 1.384 . S
C508 H517 0.931 . S
C509 C505 1.374 . S
C509 C510 1.390 . S
C509 H518 0.930 . S
C510 C506 1.391 . S
C510 C509 1.390 . S
C510 H519 0.930 . S
C511 Eu481 2.825 . S
C511 O496 1.238 . S
C511 O497 1.247 . S
C511 C505 1.507 . S
H512 C485 0.930 . S
H513 C486 0.931 . S
H514 C487 0.930 . S
H515 C488 0.930 . S
H516 C507 0.930 . S
H517 C508 0.931 . S
H518 C509 0.930 . S
H519 C510 0.930 . S
Tb520 C530 2.825 . S
Tb520 O531 2.347 . S
Tb520 O534 2.366 . S
Tb520 O539 2.418 . S
Tb520 O540 2.384 . S
Tb520 O543 2.479 . S
Tb520 O544 2.471 . S
Eu521 O532 2.418 . S
Eu521 O533 2.384 . S
Eu521 O536 2.479 . S
Eu521 O537 2.471 . S
Eu521 O538 2.347 . S
Eu521 O541 2.366 . S
Eu521 C551 2.825 . S
C522 O538 1.259 . S
C522 O539 1.265 . S
C523 O540 1.255 . S
C523 O541 1.265 . S
C524 C526 1.380 . S
C524 C527 1.374 . S
C524 C530 1.507 . S
C525 C526 1.384 . S
C525 C529 1.387 . S
C525 H552 0.930 . S
C526 C524 1.380 . S
C526 C525 1.384 . S
C526 H553 0.931 . S
C527 C524 1.374 . S
C527 C528 1.390 . S
C527 H554 0.930 . S
C528 C527 1.390 . S
C528 C529 1.391 . S
C528 H555 0.930 . S
C529 C525 1.387 . S
C529 C528 1.391 . S
C530 Tb520 2.825 . S
C530 C524 1.507 . S
C530 O543 1.238 . S
C530 O544 1.247 . S
O531 Tb520 2.347 . S
O531 C535 1.259 . S
O532 Eu521 2.418 . S
O532 C535 1.265 . S
O533 Eu521 2.384 . S
O533 C542 1.255 . S
O534 Tb520 2.366 . S
O534 C542 1.265 . S
C535 O531 1.259 . S
C535 O532 1.265 . S
O536 Eu521 2.479 . S
O536 C551 1.238 . S
O537 Eu521 2.471 . S
O537 C551 1.247 . S
O538 Eu521 2.347 . S
O538 C522 1.259 . S
O539 Tb520 2.418 . S
O539 C522 1.265 . S
O540 Tb520 2.384 . S
O540 C523 1.255 . S
O541 Eu521 2.366 . S
O541 C523 1.265 . S
C542 O533 1.255 . S
C542 O534 1.265 . S
O543 Tb520 2.479 . S
O543 C530 1.238 . S
O544 Tb520 2.471 . S
O544 C530 1.247 . S
C545 C548 1.380 . S
C545 C549 1.374 . S
C545 C551 1.507 1_554 S
C546 C547 1.387 . S
C546 C550 1.391 . S
C547 C546 1.387 . S
C547 C548 1.384 . S
C547 H556 0.930 . S
C548 C545 1.380 . S
C548 C547 1.384 . S
C548 H557 0.931 . S
C549 C545 1.374 . S
C549 C550 1.390 . S
C549 H558 0.930 . S
C550 C546 1.391 . S
C550 C549 1.390 . S
C550 H559 0.930 . S
C551 Eu521 2.825 . S
C551 O536 1.238 . S
C551 O537 1.247 . S
C551 C545 1.507 1_556 S
H552 C525 0.930 . S
H553 C526 0.931 . S
H554 C527 0.930 . S
H555 C528 0.930 . S
H556 C547 0.930 . S
H557 C548 0.931 . S
H558 C549 0.930 . S
H559 C550 0.930 . S
Tb560 C570 2.825 . S
Tb560 O571 2.347 . S
Tb560 O574 2.366 . S
Tb560 O579 2.418 . S
Tb560 O580 2.384 . S
Tb560 O583 2.479 . S
Tb560 O584 2.471 . S
Eu561 O572 2.418 . S
Eu561 O573 2.384 . S
Eu561 O576 2.479 . S
Eu561 O577 2.471 . S
Eu561 O578 2.347 . S
Eu561 O581 2.366 . S
Eu561 C591 2.825 . S
C562 O578 1.259 . S
C562 O579 1.265 . S
C563 O580 1.255 . S
C563 O581 1.265 . S
C564 C566 1.380 . S
C564 C567 1.374 . S
C564 C570 1.507 . S
C565 C566 1.384 . S
C565 C569 1.387 . S
C565 H592 0.930 . S
C566 C564 1.380 . S
C566 C565 1.384 . S
C566 H593 0.931 . S
C567 C564 1.374 . S
C567 C568 1.390 . S
C567 H594 0.930 . S
C568 C567 1.390 . S
C568 C569 1.391 . S
C568 H595 0.930 . S
C569 C565 1.387 . S
C569 C568 1.391 . S
C570 Tb560 2.825 . S
C570 C564 1.507 . S
C570 O583 1.238 . S
C570 O584 1.247 . S
O571 Tb560 2.347 . S
O571 C575 1.259 . S
O572 Eu561 2.418 . S
O572 C575 1.265 . S
O573 Eu561 2.384 . S
O573 C582 1.255 . S
O574 Tb560 2.366 . S
O574 C582 1.265 . S
C575 O571 1.259 . S
C575 O572 1.265 . S
O576 Eu561 2.479 . S
O576 C591 1.238 . S
O577 Eu561 2.471 . S
O577 C591 1.247 . S
O578 Eu561 2.347 . S
O578 C562 1.259 . S
O579 Tb560 2.418 . S
O579 C562 1.265 . S
O580 Tb560 2.384 . S
O580 C563 1.255 . S
O581 Eu561 2.366 . S
O581 C563 1.265 . S
C582 O573 1.255 . S
C582 O574 1.265 . S
O583 Tb560 2.479 . S
O583 C570 1.238 . S
O584 Tb560 2.471 . S
O584 C570 1.247 . S
C585 C588 1.380 . S
C585 C589 1.374 . S
C585 C591 1.507 . S
C586 C587 1.387 . S
C586 C590 1.391 . S
C587 C586 1.387 . S
C587 C588 1.384 . S
C587 H596 0.930 . S
C588 C585 1.380 . S
C588 C587 1.384 . S
C588 H597 0.931 . S
C589 C585 1.374 . S
C589 C590 1.390 . S
C589 H598 0.930 . S
C590 C586 1.391 . S
C590 C589 1.390 . S
C590 H599 0.930 . S
C591 Eu561 2.825 . S
C591 O576 1.238 . S
C591 O577 1.247 . S
C591 C585 1.507 . S
H592 C565 0.930 . S
H593 C566 0.931 . S
H594 C567 0.930 . S
H595 C568 0.930 . S
H596 C587 0.930 . S
H597 C588 0.931 . S
H598 C589 0.930 . S
H599 C590 0.930 . S
Tb600 C610 2.825 . S
Tb600 O611 2.347 . S
Tb600 O614 2.366 . S
Tb600 O619 2.418 . S
Tb600 O620 2.384 . S
Tb600 O623 2.479 . S
Tb600 O624 2.471 . S
Eu601 O612 2.418 . S
Eu601 O613 2.384 . S
Eu601 O616 2.479 . S
Eu601 O617 2.471 . S
Eu601 O618 2.347 . S
Eu601 O621 2.366 . S
Eu601 C631 2.825 . S
C602 O618 1.259 . S
C602 O619 1.265 . S
C603 O620 1.255 . S
C603 O621 1.265 . S
C604 C606 1.380 . S
C604 C607 1.374 . S
C604 C610 1.507 . S
C605 C606 1.384 . S
C605 C609 1.387 . S
C605 H632 0.930 . S
C606 C604 1.380 . S
C606 C605 1.384 . S
C606 H633 0.931 . S
C607 C604 1.374 . S
C607 C608 1.390 . S
C607 H634 0.930 . S
C608 C607 1.390 . S
C608 C609 1.391 . S
C608 H635 0.930 . S
C609 C605 1.387 . S
C609 C608 1.391 . S
C610 Tb600 2.825 . S
C610 C604 1.507 . S
C610 O623 1.238 . S
C610 O624 1.247 . S
O611 Tb600 2.347 . S
O611 C615 1.259 . S
O612 Eu601 2.418 . S
O612 C615 1.265 . S
O613 Eu601 2.384 . S
O613 C622 1.255 . S
O614 Tb600 2.366 . S
O614 C622 1.265 . S
C615 O611 1.259 . S
C615 O612 1.265 . S
O616 Eu601 2.479 . S
O616 C631 1.238 . S
O617 Eu601 2.471 . S
O617 C631 1.247 . S
O618 Eu601 2.347 . S
O618 C602 1.259 . S
O619 Tb600 2.418 . S
O619 C602 1.265 . S
O620 Tb600 2.384 . S
O620 C603 1.255 . S
O621 Eu601 2.366 . S
O621 C603 1.265 . S
C622 O613 1.255 . S
C622 O614 1.265 . S
O623 Tb600 2.479 . S
O623 C610 1.238 . S
O624 Tb600 2.471 . S
O624 C610 1.247 . S
C625 C628 1.380 . S
C625 C629 1.374 . S
C625 C631 1.507 . S
C626 C627 1.387 1_556 S
C626 C630 1.391 1_556 S
C627 C626 1.387 1_554 S
C627 C628 1.384 . S
C627 H636 0.930 1_554 S
C628 C625 1.380 . S
C628 C627 1.384 . S
C628 H637 0.931 . S
C629 C625 1.374 . S
C629 C630 1.390 . S
C629 H638 0.930 . S
C630 C626 1.391 1_554 S
C630 C629 1.390 . S
C630 H639 0.930 . S
C631 Eu601 2.825 . S
C631 O616 1.238 . S
C631 O617 1.247 . S
C631 C625 1.507 . S
H632 C605 0.930 . S
H633 C606 0.931 . S
H634 C607 0.930 . S
H635 C608 0.930 . S
H636 C627 0.930 1_556 S
H637 C628 0.931 . S
H638 C629 0.930 . S
H639 C630 0.930 . S
H640 C648 0.950 . S
H641 C653 0.950 . S
H642 C650 0.950 . S
H643 C652 0.950 . S
H644 C654 0.950 . S
H645 C656 0.950 . S
H646 C658 0.950 . S
H647 C659 0.950 . S
C648 H640 0.950 . S
C648 C649 1.386 . S
C648 C650 1.391 . S
C649 C648 1.386 . S
C649 C653 1.393 . S
C650 H642 0.950 . S
C650 C648 1.391 . S
C650 C651 1.400 . S
C651 C650 1.400 . S
C651 C652 1.398 . S
C651 C657 1.491 . S
C652 H643 0.950 . S
C652 C651 1.398 . S
C652 C653 1.391 . S
C653 H641 0.950 . S
C653 C649 1.393 . S
C653 C652 1.391 . S
C654 H644 0.950 . S
C654 C655 1.386 . S
C654 C656 1.391 . S
C655 C654 1.386 . S
C655 C659 1.393 . S
C656 H645 0.950 . S
C656 C654 1.391 . S
C656 C657 1.400 . S
C657 C651 1.491 . S
C657 C656 1.400 . S
C657 C658 1.398 . S
C658 H646 0.950 . S
C658 C657 1.398 . S
C658 C659 1.391 . S
C659 H647 0.950 . S
C659 C655 1.393 . S
C659 C658 1.391 . S
H660 C668 0.950 1_554 S
H661 C673 0.950 . S
H662 C670 0.950 . S
H663 C672 0.950 . S
H664 C674 0.950 . S
H665 C676 0.950 . S
H666 C678 0.950 . S
H667 C679 0.950 . S
C668 H660 0.950 1_556 S
C668 C669 1.386 1_556 S
C668 C670 1.391 . S
C669 C668 1.386 1_554 S
C669 C673 1.393 1_554 S
C670 H662 0.950 . S
C670 C668 1.391 . S
C670 C671 1.400 . S
C671 C670 1.400 . S
C671 C672 1.398 . S
C671 C677 1.491 . S
C672 H663 0.950 . S
C672 C671 1.398 . S
C672 C673 1.391 . S
C673 H661 0.950 . S
C673 C669 1.393 1_556 S
C673 C672 1.391 . S
C674 H664 0.950 . S
C674 C675 1.386 . S
C674 C676 1.391 . S
C675 C674 1.386 . S
C675 C679 1.393 . S
C676 H665 0.950 . S
C676 C674 1.391 . S
C676 C677 1.400 . S
C677 C671 1.491 . S
C677 C676 1.400 . S
C677 C678 1.398 . S
C678 H666 0.950 . S
C678 C677 1.398 . S
C678 C679 1.391 . S
C679 H667 0.950 . S
C679 C675 1.393 . S
C679 C678 1.391 . S
H680 C688 0.950 . S
H681 C693 0.950 . S
H682 C690 0.950 . S
H683 C692 0.950 . S
H684 C694 0.950 . S
H685 C696 0.950 . S
H686 C698 0.950 . S
H687 C699 0.950 . S
C688 H680 0.950 . S
C688 C689 1.386 . S
C688 C690 1.391 . S
C689 C688 1.386 . S
C689 C693 1.393 . S
C690 H682 0.950 . S
C690 C688 1.391 . S
C690 C691 1.400 . S
C691 C690 1.400 . S
C691 C692 1.398 . S
C691 C697 1.491 . S
C692 H683 0.950 . S
C692 C691 1.398 . S
C692 C693 1.391 . S
C693 H681 0.950 . S
C693 C689 1.393 . S
C693 C692 1.391 . S
C694 H684 0.950 . S
C694 C695 1.386 . S
C694 C696 1.391 . S
C695 C694 1.386 . S
C695 C699 1.393 . S
C696 H685 0.950 . S
C696 C694 1.391 . S
C696 C697 1.400 . S
C697 C691 1.491 . S
C697 C696 1.400 . S
C697 C698 1.398 . S
C698 H686 0.950 . S
C698 C697 1.398 . S
C698 C699 1.391 . S
C699 H687 0.950 . S
C699 C695 1.393 . S
C699 C698 1.391 . S
H700 C708 0.950 . S
H701 C713 0.950 . S
H702 C710 0.950 . S
H703 C712 0.950 . S
H704 C714 0.950 . S
H705 C716 0.950 . S
H706 C718 0.950 . S
H707 C719 0.950 . S
C708 H700 0.950 . S
C708 C709 1.386 . S
C708 C710 1.391 . S
C709 C708 1.386 . S
C709 C713 1.393 . S
C710 H702 0.950 . S
C710 C708 1.391 . S
C710 C711 1.400 . S
C711 C710 1.400 . S
C711 C712 1.398 . S
C711 C717 1.491 . S
C712 H703 0.950 . S
C712 C711 1.398 . S
C712 C713 1.391 . S
C713 H701 0.950 . S
C713 C709 1.393 . S
C713 C712 1.391 . S
C714 H704 0.950 . S
C714 C715 1.386 . S
C714 C716 1.391 . S
C715 C714 1.386 . S
C715 C719 1.393 . S
C716 H705 0.950 . S
C716 C714 1.391 . S
C716 C717 1.400 . S
C717 C711 1.491 . S
C717 C716 1.400 . S
C717 C718 1.398 . S
C718 H706 0.950 . S
C718 C717 1.398 . S
C718 C719 1.391 . S
C719 H707 0.950 . S
C719 C715 1.393 . S
C719 C718 1.391 . S
H720 C728 0.950 . S
H721 C733 0.950 . S
H722 C730 0.950 . S
H723 C732 0.950 . S
H724 C734 0.950 . S
H725 C736 0.950 . S
H726 C738 0.950 . S
H727 C739 0.950 . S
C728 H720 0.950 . S
C728 C729 1.386 . S
C728 C730 1.391 . S
C729 C728 1.386 . S
C729 C733 1.393 . S
C730 H722 0.950 . S
C730 C728 1.391 . S
C730 C731 1.400 . S
C731 C730 1.400 . S
C731 C732 1.398 . S
C731 C737 1.491 . S
C732 H723 0.950 . S
C732 C731 1.398 . S
C732 C733 1.391 . S
C733 H721 0.950 . S
C733 C729 1.393 . S
C733 C732 1.391 . S
C734 H724 0.950 . S
C734 C735 1.386 . S
C734 C736 1.391 . S
C735 C734 1.386 . S
C735 C739 1.393 . S
C736 H725 0.950 . S
C736 C734 1.391 . S
C736 C737 1.400 . S
C737 C731 1.491 . S
C737 C736 1.400 . S
C737 C738 1.398 . S
C738 H726 0.950 . S
C738 C737 1.398 . S
C738 C739 1.391 . S
C739 H727 0.950 . S
C739 C735 1.393 . S
C739 C738 1.391 . S
H740 C748 0.950 . S
H741 C753 0.950 . S
H742 C750 0.950 . S
H743 C752 0.950 . S
H744 C754 0.950 . S
H745 C756 0.950 . S
H746 C758 0.950 . S
H747 C759 0.950 . S
C748 H740 0.950 . S
C748 C749 1.386 . S
C748 C750 1.391 . S
C749 C748 1.386 . S
C749 C753 1.393 . S
C750 H742 0.950 . S
C750 C748 1.391 . S
C750 C751 1.400 . S
C751 C750 1.400 . S
C751 C752 1.398 . S
C751 C757 1.491 . S
C752 H743 0.950 . S
C752 C751 1.398 . S
C752 C753 1.391 . S
C753 H741 0.950 . S
C753 C749 1.393 . S
C753 C752 1.391 . S
C754 H744 0.950 . S
C754 C755 1.386 . S
C754 C756 1.391 . S
C755 C754 1.386 . S
C755 C759 1.393 . S
C756 H745 0.950 . S
C756 C754 1.391 . S
C756 C757 1.400 . S
C757 C751 1.491 . S
C757 C756 1.400 . S
C757 C758 1.398 . S
C758 H746 0.950 . S
C758 C757 1.398 . S
C758 C759 1.391 . S
C759 H747 0.950 . S
C759 C755 1.393 . S
C759 C758 1.391 . S
H760 C768 0.950 . S
H761 C773 0.950 . S
H762 C770 0.950 . S
H763 C772 0.950 . S
H764 C774 0.950 1_554 S
H765 C776 0.950 . S
H766 C778 0.950 . S
H767 C779 0.950 . S
C768 H760 0.950 . S
C768 C769 1.386 . S
C768 C770 1.391 . S
C769 C768 1.386 . S
C769 C773 1.393 . S
C770 H762 0.950 . S
C770 C768 1.391 . S
C770 C771 1.400 . S
C771 C770 1.400 . S
C771 C772 1.398 . S
C771 C777 1.491 . S
C772 H763 0.950 . S
C772 C771 1.398 . S
C772 C773 1.391 . S
C773 H761 0.950 . S
C773 C769 1.393 . S
C773 C772 1.391 . S
C774 H764 0.950 1_556 S
C774 C775 1.386 . S
C774 C776 1.391 . S
C775 C774 1.386 . S
C775 C779 1.393 . S
C776 H765 0.950 . S
C776 C774 1.391 . S
C776 C777 1.400 . S
C777 C771 1.491 . S
C777 C776 1.400 . S
C777 C778 1.398 . S
C778 H766 0.950 . S
C778 C777 1.398 . S
C778 C779 1.391 . S
C779 H767 0.950 . S
C779 C775 1.393 . S
C779 C778 1.391 . S
H780 C788 0.950 . S
H781 C793 0.950 . S
H782 C790 0.950 . S
H783 C792 0.950 . S
H784 C794 0.950 . S
H785 C796 0.950 . S
H786 C798 0.950 . S
H787 C799 0.950 . S
C788 H780 0.950 . S
C788 C789 1.386 . S
C788 C790 1.391 . S
C789 C788 1.386 . S
C789 C793 1.393 . S
C790 H782 0.950 . S
C790 C788 1.391 . S
C790 C791 1.400 . S
C791 C790 1.400 . S
C791 C792 1.398 . S
C791 C797 1.491 . S
C792 H783 0.950 . S
C792 C791 1.398 . S
C792 C793 1.391 . S
C793 H781 0.950 . S
C793 C789 1.393 . S
C793 C792 1.391 . S
C794 H784 0.950 . S
C794 C795 1.386 . S
C794 C796 1.391 . S
C795 C794 1.386 . S
C795 C799 1.393 . S
C796 H785 0.950 . S
C796 C794 1.391 . S
C796 C797 1.400 . S
C797 C791 1.491 . S
C797 C796 1.400 . S
C797 C798 1.398 . S
C798 H786 0.950 . S
C798 C797 1.398 . S
C798 C799 1.391 . S
C799 H787 0.950 . S
C799 C795 1.393 . S
C799 C798 1.391 . S
H800 C808 0.950 . S
H801 C813 0.950 . S
H802 C810 0.950 . S
H803 C812 0.950 . S
H804 C814 0.950 . S
H805 C816 0.950 . S
H806 C818 0.950 . S
H807 C819 0.950 . S
C808 H800 0.950 . S
C808 C809 1.386 . S
C808 C810 1.391 . S
C809 C808 1.386 . S
C809 C813 1.393 . S
C810 H802 0.950 . S
C810 C808 1.391 . S
C810 C811 1.400 . S
C811 C810 1.400 . S
C811 C812 1.398 . S
C811 C817 1.491 . S
C812 H803 0.950 . S
C812 C811 1.398 . S
C812 C813 1.391 . S
C813 H801 0.950 . S
C813 C809 1.393 . S
C813 C812 1.391 . S
C814 H804 0.950 . S
C814 C815 1.386 . S
C814 C816 1.391 . S
C815 C814 1.386 . S
C815 C819 1.393 . S
C816 H805 0.950 . S
C816 C814 1.391 . S
C816 C817 1.400 . S
C817 C811 1.491 . S
C817 C816 1.400 . S
C817 C818 1.398 . S
C818 H806 0.950 . S
C818 C817 1.398 . S
C818 C819 1.391 . S
C819 H807 0.950 . S
C819 C815 1.393 . S
C819 C818 1.391 . S
H820 C828 0.950 . S
H821 C833 0.950 . S
H822 C830 0.950 . S
H823 C832 0.950 . S
H824 C834 0.950 . S
H825 C836 0.950 . S
H826 C838 0.950 . S
H827 C839 0.950 . S
C828 H820 0.950 . S
C828 C829 1.386 . S
C828 C830 1.391 . S
C829 C828 1.386 . S
C829 C833 1.393 . S
C830 H822 0.950 . S
C830 C828 1.391 . S
C830 C831 1.400 . S
C831 C830 1.400 . S
C831 C832 1.398 . S
C831 C837 1.491 . S
C832 H823 0.950 . S
C832 C831 1.398 . S
C832 C833 1.391 . S
C833 H821 0.950 . S
C833 C829 1.393 . S
C833 C832 1.391 . S
C834 H824 0.950 . S
C834 C835 1.386 1_554 S
C834 C836 1.391 . S
C835 C834 1.386 1_556 S
C835 C839 1.393 1_556 S
C836 H825 0.950 . S
C836 C834 1.391 . S
C836 C837 1.400 . S
C837 C831 1.491 . S
C837 C836 1.400 . S
C837 C838 1.398 . S
C838 H826 0.950 . S
C838 C837 1.398 . S
C838 C839 1.391 . S
C839 H827 0.950 . S
C839 C835 1.393 1_554 S
C839 C838 1.391 . S
H840 C848 0.950 . S
H841 C853 0.950 . S
H842 C850 0.950 . S
H843 C852 0.950 . S
H844 C854 0.950 . S
H845 C856 0.950 . S
H846 C858 0.950 . S
H847 C859 0.950 . S
C848 H840 0.950 . S
C848 C849 1.386 . S
C848 C850 1.391 . S
C849 C848 1.386 . S
C849 C853 1.393 . S
C850 H842 0.950 . S
C850 C848 1.391 . S
C850 C851 1.400 . S
C851 C850 1.400 . S
C851 C852 1.398 . S
C851 C857 1.491 . S
C852 H843 0.950 . S
C852 C851 1.398 . S
C852 C853 1.391 . S
C853 H841 0.950 . S
C853 C849 1.393 . S
C853 C852 1.391 . S
C854 H844 0.950 . S
C854 C855 1.386 . S
C854 C856 1.391 . S
C855 C854 1.386 . S
C855 C859 1.393 . S
C856 H845 0.950 . S
C856 C854 1.391 . S
C856 C857 1.400 . S
C857 C851 1.491 . S
C857 C856 1.400 . S
C857 C858 1.398 . S
C858 H846 0.950 . S
C858 C857 1.398 . S
C858 C859 1.391 . S
C859 H847 0.950 . S
C859 C855 1.393 . S
C859 C858 1.391 . S
H860 C868 0.950 . S
H861 C873 0.950 . S
H862 C870 0.950 . S
H863 C872 0.950 . S
H864 C874 0.950 . S
H865 C876 0.950 . S
H866 C878 0.950 . S
H867 C879 0.950 . S
C868 H860 0.950 . S
C868 C869 1.386 . S
C868 C870 1.391 . S
C869 C868 1.386 . S
C869 C873 1.393 . S
C870 H862 0.950 . S
C870 C868 1.391 . S
C870 C871 1.400 . S
C871 C870 1.400 . S
C871 C872 1.398 . S
C871 C877 1.491 . S
C872 H863 0.950 . S
C872 C871 1.398 . S
C872 C873 1.391 . S
C873 H861 0.950 . S
C873 C869 1.393 . S
C873 C872 1.391 . S
C874 H864 0.950 . S
C874 C875 1.386 . S
C874 C876 1.391 . S
C875 C874 1.386 . S
C875 C879 1.393 . S
C876 H865 0.950 . S
C876 C874 1.391 . S
C876 C877 1.400 . S
C877 C871 1.491 . S
C877 C876 1.400 . S
C877 C878 1.398 . S
C878 H866 0.950 . S
C878 C877 1.398 . S
C878 C879 1.391 . S
C879 H867 0.950 . S
C879 C875 1.393 . S
C879 C878 1.391 . S
H880 C888 0.950 . S
H881 C893 0.950 . S
H882 C890 0.950 . S
H883 C892 0.950 . S
H884 C894 0.950 . S
H885 C896 0.950 . S
H886 C898 0.950 . S
H887 C899 0.950 . S
C888 H880 0.950 . S
C888 C889 1.386 . S
C888 C890 1.391 . S
C889 C888 1.386 . S
C889 C893 1.393 . S
C890 H882 0.950 . S
C890 C888 1.391 . S
C890 C891 1.400 . S
C891 C890 1.400 . S
C891 C892 1.398 . S
C891 C897 1.491 . S
C892 H883 0.950 . S
C892 C891 1.398 . S
C892 C893 1.391 . S
C893 H881 0.950 . S
C893 C889 1.393 . S
C893 C892 1.391 . S
C894 H884 0.950 . S
C894 C895 1.386 . S
C894 C896 1.391 . S
C895 C894 1.386 . S
C895 C899 1.393 . S
C896 H885 0.950 . S
C896 C894 1.391 . S
C896 C897 1.400 . S
C897 C891 1.491 . S
C897 C896 1.400 . S
C897 C898 1.398 . S
C898 H886 0.950 . S
C898 C897 1.398 . S
C898 C899 1.391 . S
C899 H887 0.950 . S
C899 C895 1.393 . S
C899 C898 1.391 . S
H900 C908 0.950 . S
H901 C913 0.950 . S
H902 C910 0.950 . S
H903 C912 0.950 . S
H904 C914 0.950 . S
H905 C916 0.950 . S
H906 C918 0.950 . S
H907 C919 0.950 . S
C908 H900 0.950 . S
C908 C909 1.386 . S
C908 C910 1.391 . S
C909 C908 1.386 . S
C909 C913 1.393 . S
C910 H902 0.950 . S
C910 C908 1.391 . S
C910 C911 1.400 . S
C911 C910 1.400 . S
C911 C912 1.398 . S
C911 C917 1.491 . S
C912 H903 0.950 . S
C912 C911 1.398 . S
C912 C913 1.391 . S
C913 H901 0.950 . S
C913 C909 1.393 . S
C913 C912 1.391 . S
C914 H904 0.950 . S
C914 C915 1.386 . S
C914 C916 1.391 . S
C915 C914 1.386 . S
C915 C919 1.393 . S
C916 H905 0.950 . S
C916 C914 1.391 . S
C916 C917 1.400 . S
C917 C911 1.491 . S
C917 C916 1.400 . S
C917 C918 1.398 . S
C918 H906 0.950 . S
C918 C917 1.398 . S
C918 C919 1.391 . S
C919 H907 0.950 . S
C919 C915 1.393 . S
C919 C918 1.391 . S
H920 C928 0.950 . S
H921 C933 0.950 . S
H922 C930 0.950 . S
H923 C932 0.950 . S
H924 C934 0.950 . S
H925 C936 0.950 . S
H926 C938 0.950 . S
H927 C939 0.950 1_556 S
C928 H920 0.950 . S
C928 C929 1.386 . S
C928 C930 1.391 . S
C929 C928 1.386 . S
C929 C933 1.393 . S
C930 H922 0.950 . S
C930 C928 1.391 . S
C930 C931 1.400 . S
C931 C930 1.400 . S
C931 C932 1.398 . S
C931 C937 1.491 . S
C932 H923 0.950 . S
C932 C931 1.398 . S
C932 C933 1.391 . S
C933 H921 0.950 . S
C933 C929 1.393 . S
C933 C932 1.391 . S
C934 H924 0.950 . S
C934 C935 1.386 . S
C934 C936 1.391 . S
C935 C934 1.386 . S
C935 C939 1.393 . S
C936 H925 0.950 . S
C936 C934 1.391 . S
C936 C937 1.400 . S
C937 C931 1.491 . S
C937 C936 1.400 . S
C937 C938 1.398 . S
C938 H926 0.950 . S
C938 C937 1.398 . S
C938 C939 1.391 . S
C939 H927 0.950 1_554 S
C939 C935 1.393 . S
C939 C938 1.391 . S
H940 C948 0.950 . S
H941 C953 0.950 . S
H942 C950 0.950 . S
H943 C952 0.950 . S
H944 C954 0.950 . S
H945 C956 0.950 . S
H946 C958 0.950 . S
H947 C959 0.950 . S
C948 H940 0.950 . S
C948 C949 1.386 . S
C948 C950 1.391 . S
C949 C948 1.386 . S
C949 C953 1.393 . S
C950 H942 0.950 . S
C950 C948 1.391 . S
C950 C951 1.400 . S
C951 C950 1.400 . S
C951 C952 1.398 . S
C951 C957 1.491 . S
C952 H943 0.950 . S
C952 C951 1.398 . S
C952 C953 1.391 . S
C953 H941 0.950 . S
C953 C949 1.393 . S
C953 C952 1.391 . S
C954 H944 0.950 . S
C954 C955 1.386 . S
C954 C956 1.391 . S
C955 C954 1.386 . S
C955 C959 1.393 . S
C956 H945 0.950 . S
C956 C954 1.391 . S
C956 C957 1.400 . S
C957 C951 1.491 . S
C957 C956 1.400 . S
C957 C958 1.398 . S
C958 H946 0.950 . S
C958 C957 1.398 . S
C958 C959 1.391 . S
C959 H947 0.950 . S
C959 C955 1.393 . S
C959 C958 1.391 . S
H960 C968 0.950 . S
H961 C973 0.950 . S
H962 C970 0.950 . S
H963 C972 0.950 . S
H964 C974 0.950 . S
H965 C976 0.950 . S
H966 C978 0.950 . S
H967 C979 0.950 . S
C968 H960 0.950 . S
C968 C969 1.386 . S
C968 C970 1.391 . S
C969 C968 1.386 . S
C969 C973 1.393 . S
C970 H962 0.950 . S
C970 C968 1.391 . S
C970 C971 1.400 . S
C971 C970 1.400 . S
C971 C972 1.398 . S
C971 C977 1.491 . S
C972 H963 0.950 . S
C972 C971 1.398 . S
C972 C973 1.391 . S
C973 H961 0.950 . S
C973 C969 1.393 . S
C973 C972 1.391 . S
C974 H964 0.950 . S
C974 C975 1.386 . S
C974 C976 1.391 . S
C975 C974 1.386 . S
C975 C979 1.393 . S
C976 H965 0.950 . S
C976 C974 1.391 . S
C976 C977 1.400 . S
C977 C971 1.491 . S
C977 C976 1.400 . S
C977 C978 1.398 . S
C978 H966 0.950 . S
C978 C977 1.398 . S
C978 C979 1.391 . S
C979 H967 0.950 . S
C979 C975 1.393 . S
C979 C978 1.391 . S
H980 C988 0.950 . S
H981 C993 0.950 . S
H982 C990 0.950 . S
H983 C992 0.950 . S
H984 C994 0.950 . S
H985 C996 0.950 . S
H986 C998 0.950 . S
H987 C999 0.950 . S
C988 H980 0.950 . S
C988 C989 1.386 . S
C988 C990 1.391 . S
C989 C988 1.386 . S
C989 C993 1.393 . S
C990 H982 0.950 . S
C990 C988 1.391 . S
C990 C991 1.400 . S
C991 C990 1.400 . S
C991 C992 1.398 . S
C991 C997 1.491 . S
C992 H983 0.950 . S
C992 C991 1.398 . S
C992 C993 1.391 . S
C993 H981 0.950 . S
C993 C989 1.393 . S
C993 C992 1.391 . S
C994 H984 0.950 . S
C994 C995 1.386 . S
C994 C996 1.391 . S
C995 C994 1.386 . S
C995 C999 1.393 . S
C996 H985 0.950 . S
C996 C994 1.391 . S
C996 C997 1.400 . S
C997 C991 1.491 . S
C997 C996 1.400 . S
C997 C998 1.398 . S
C998 H986 0.950 . S
C998 C997 1.398 . S
C998 C999 1.391 . S
C999 H987 0.950 . S
C999 C995 1.393 . S
C999 C998 1.391 . S
H1000 C1008 0.950 . S
H1001 C1013 0.950 . S
H1002 C1010 0.950 . S
H1003 C1012 0.950 . S
H1004 C1014 0.950 . S
H1005 C1016 0.950 . S
H1006 C1018 0.950 . S
H1007 C1019 0.950 . S
C1008 H1000 0.950 . S
C1008 C1009 1.386 . S
C1008 C1010 1.391 . S
C1009 C1008 1.386 . S
C1009 C1013 1.393 . S
C1010 H1002 0.950 . S
C1010 C1008 1.391 . S
C1010 C1011 1.400 . S
C1011 C1010 1.400 . S
C1011 C1012 1.398 . S
C1011 C1017 1.491 . S
C1012 H1003 0.950 . S
C1012 C1011 1.398 . S
C1012 C1013 1.391 . S
C1013 H1001 0.950 . S
C1013 C1009 1.393 . S
C1013 C1012 1.391 . S
C1014 H1004 0.950 . S
C1014 C1015 1.386 . S
C1014 C1016 1.391 . S
C1015 C1014 1.386 . S
C1015 C1019 1.393 . S
C1016 H1005 0.950 . S
C1016 C1014 1.391 . S
C1016 C1017 1.400 . S
C1017 C1011 1.491 . S
C1017 C1016 1.400 . S
C1017 C1018 1.398 . S
C1018 H1006 0.950 . S
C1018 C1017 1.398 . S
C1018 C1019 1.391 . S
C1019 H1007 0.950 . S
C1019 C1015 1.393 . S
C1019 C1018 1.391 . S
H1020 C1028 0.950 . S
H1021 C1033 0.950 . S
H1022 C1030 0.950 . S
H1023 C1032 0.950 . S
H1024 C1034 0.950 . S
H1025 C1036 0.950 . S
H1026 C1038 0.950 . S
H1027 C1039 0.950 . S
C1028 H1020 0.950 . S
C1028 C1029 1.386 . S
C1028 C1030 1.391 . S
C1029 C1028 1.386 . S
C1029 C1033 1.393 . S
C1030 H1022 0.950 . S
C1030 C1028 1.391 . S
C1030 C1031 1.400 . S
C1031 C1030 1.400 . S
C1031 C1032 1.398 . S
C1031 C1037 1.491 1_655 S
C1032 H1023 0.950 . S
C1032 C1031 1.398 . S
C1032 C1033 1.391 . S
C1033 H1021 0.950 . S
C1033 C1029 1.393 . S
C1033 C1032 1.391 . S
C1034 H1024 0.950 . S
C1034 C1035 1.386 . S
C1034 C1036 1.391 . S
C1035 C1034 1.386 . S
C1035 C1039 1.393 . S
C1036 H1025 0.950 . S
C1036 C1034 1.391 . S
C1036 C1037 1.400 . S
C1037 C1031 1.491 1_455 S
C1037 C1036 1.400 . S
C1037 C1038 1.398 . S
C1038 H1026 0.950 . S
C1038 C1037 1.398 . S
C1038 C1039 1.391 . S
C1039 H1027 0.950 . S
C1039 C1035 1.393 . S
C1039 C1038 1.391 . S
H1040 C1048 0.950 . S
H1041 C1053 0.950 . S
H1042 C1050 0.950 . S
H1043 C1052 0.950 . S
H1044 C1054 0.950 . S
H1045 C1056 0.950 . S
H1046 C1058 0.950 . S
H1047 C1059 0.950 . S
C1048 H1040 0.950 . S
C1048 C1049 1.386 . S
C1048 C1050 1.391 . S
C1049 C1048 1.386 . S
C1049 C1053 1.393 . S
C1050 H1042 0.950 . S
C1050 C1048 1.391 . S
C1050 C1051 1.400 . S
C1051 C1050 1.400 . S
C1051 C1052 1.398 . S
C1051 C1057 1.491 . S
C1052 H1043 0.950 . S
C1052 C1051 1.398 . S
C1052 C1053 1.391 . S
C1053 H1041 0.950 . S
C1053 C1049 1.393 . S
C1053 C1052 1.391 . S
C1054 H1044 0.950 . S
C1054 C1055 1.386 . S
C1054 C1056 1.391 . S
C1055 C1054 1.386 . S
C1055 C1059 1.393 . S
C1056 H1045 0.950 . S
C1056 C1054 1.391 . S
C1056 C1057 1.400 . S
C1057 C1051 1.491 . S
C1057 C1056 1.400 . S
C1057 C1058 1.398 . S
C1058 H1046 0.950 . S
C1058 C1057 1.398 . S
C1058 C1059 1.391 . S
C1059 H1047 0.950 . S
C1059 C1055 1.393 . S
C1059 C1058 1.391 . S
H1060 C1068 0.950 . S
H1061 C1073 0.950 . S
H1062 C1070 0.950 . S
H1063 C1072 0.950 . S
H1064 C1074 0.950 . S
H1065 C1076 0.950 . S
H1066 C1078 0.950 . S
H1067 C1079 0.950 . S
C1068 H1060 0.950 . S
C1068 C1069 1.386 . S
C1068 C1070 1.391 . S
C1069 C1068 1.386 . S
C1069 C1073 1.393 . S
C1070 H1062 0.950 . S
C1070 C1068 1.391 . S
C1070 C1071 1.400 . S
C1071 C1070 1.400 . S
C1071 C1072 1.398 . S
C1071 C1077 1.491 1_455 S
C1072 H1063 0.950 . S
C1072 C1071 1.398 . S
C1072 C1073 1.391 . S
C1073 H1061 0.950 . S
C1073 C1069 1.393 . S
C1073 C1072 1.391 . S
C1074 H1064 0.950 . S
C1074 C1075 1.386 . S
C1074 C1076 1.391 . S
C1075 C1074 1.386 . S
C1075 C1079 1.393 . S
C1076 H1065 0.950 . S
C1076 C1074 1.391 . S
C1076 C1077 1.400 . S
C1077 C1071 1.491 1_655 S
C1077 C1076 1.400 . S
C1077 C1078 1.398 . S
C1078 H1066 0.950 . S
C1078 C1077 1.398 . S
C1078 C1079 1.391 . S
C1079 H1067 0.950 . S
C1079 C1075 1.393 . S
C1079 C1078 1.391 . S
H1080 C1088 0.950 . S
H1081 C1093 0.950 . S
H1082 C1090 0.950 . S
H1083 C1092 0.950 . S
H1084 C1094 0.950 . S
H1085 C1096 0.950 . S
H1086 C1098 0.950 . S
H1087 C1099 0.950 . S
C1088 H1080 0.950 . S
C1088 C1089 1.386 . S
C1088 C1090 1.391 . S
C1089 C1088 1.386 . S
C1089 C1093 1.393 . S
C1090 H1082 0.950 . S
C1090 C1088 1.391 . S
C1090 C1091 1.400 . S
C1091 C1090 1.400 . S
C1091 C1092 1.398 . S
C1091 C1097 1.491 . S
C1092 H1083 0.950 . S
C1092 C1091 1.398 . S
C1092 C1093 1.391 . S
C1093 H1081 0.950 . S
C1093 C1089 1.393 . S
C1093 C1092 1.391 . S
C1094 H1084 0.950 . S
C1094 C1095 1.386 . S
C1094 C1096 1.391 . S
C1095 C1094 1.386 . S
C1095 C1099 1.393 . S
C1096 H1085 0.950 . S
C1096 C1094 1.391 . S
C1096 C1097 1.400 . S
C1097 C1091 1.491 . S
C1097 C1096 1.400 . S
C1097 C1098 1.398 . S
C1098 H1086 0.950 . S
C1098 C1097 1.398 . S
C1098 C1099 1.391 . S
C1099 H1087 0.950 . S
C1099 C1095 1.393 . S
C1099 C1098 1.391 . S
H1100 C1108 0.950 . S
H1101 C1113 0.950 . S
H1102 C1110 0.950 . S
H1103 C1112 0.950 . S
H1104 C1114 0.950 . S
H1105 C1116 0.950 . S
H1106 C1118 0.950 . S
H1107 C1119 0.950 . S
C1108 H1100 0.950 . S
C1108 C1109 1.386 . S
C1108 C1110 1.391 . S
C1109 C1108 1.386 . S
C1109 C1113 1.393 . S
C1110 H1102 0.950 . S
C1110 C1108 1.391 . S
C1110 C1111 1.400 . S
C1111 C1110 1.400 . S
C1111 C1112 1.398 . S
C1111 C1117 1.491 . S
C1112 H1103 0.950 . S
C1112 C1111 1.398 . S
C1112 C1113 1.391 . S
C1113 H1101 0.950 . S
C1113 C1109 1.393 . S
C1113 C1112 1.391 . S
C1114 H1104 0.950 . S
C1114 C1115 1.386 . S
C1114 C1116 1.391 . S
C1115 C1114 1.386 . S
C1115 C1119 1.393 . S
C1116 H1105 0.950 . S
C1116 C1114 1.391 . S
C1116 C1117 1.400 . S
C1117 C1111 1.491 . S
C1117 C1116 1.400 . S
C1117 C1118 1.398 . S
C1118 H1106 0.950 . S
C1118 C1117 1.398 . S
C1118 C1119 1.391 . S
C1119 H1107 0.950 . S
C1119 C1115 1.393 . S
C1119 C1118 1.391 . S
H1120 C1128 0.950 . S
H1121 C1133 0.950 . S
H1122 C1130 0.950 . S
H1123 C1132 0.950 . S
H1124 C1134 0.950 . S
H1125 C1136 0.950 . S
H1126 C1138 0.950 . S
H1127 C1139 0.950 . S
C1128 H1120 0.950 . S
C1128 C1129 1.386 . S
C1128 C1130 1.391 . S
C1129 C1128 1.386 . S
C1129 C1133 1.393 . S
C1130 H1122 0.950 . S
C1130 C1128 1.391 . S
C1130 C1131 1.400 . S
C1131 C1130 1.400 . S
C1131 C1132 1.398 . S
C1131 C1137 1.491 . S
C1132 H1123 0.950 . S
C1132 C1131 1.398 . S
C1132 C1133 1.391 . S
C1133 H1121 0.950 . S
C1133 C1129 1.393 . S
C1133 C1132 1.391 . S
C1134 H1124 0.950 . S
C1134 C1135 1.386 . S
C1134 C1136 1.391 . S
C1135 C1134 1.386 . S
C1135 C1139 1.393 . S
C1136 H1125 0.950 . S
C1136 C1134 1.391 . S
C1136 C1137 1.400 . S
C1137 C1131 1.491 . S
C1137 C1136 1.400 . S
C1137 C1138 1.398 . S
C1138 H1126 0.950 . S
C1138 C1137 1.398 . S
C1138 C1139 1.391 . S
C1139 H1127 0.950 . S
C1139 C1135 1.393 . S
C1139 C1138 1.391 . S
H1140 C1148 0.950 . S
H1141 C1153 0.950 . S
H1142 C1150 0.950 . S
H1143 C1152 0.950 . S
H1144 C1154 0.950 . S
H1145 C1156 0.950 . S
H1146 C1158 0.950 . S
H1147 C1159 0.950 . S
C1148 H1140 0.950 . S
C1148 C1149 1.386 . S
C1148 C1150 1.391 . S
C1149 C1148 1.386 . S
C1149 C1153 1.393 . S
C1150 H1142 0.950 . S
C1150 C1148 1.391 . S
C1150 C1151 1.400 . S
C1151 C1150 1.400 . S
C1151 C1152 1.398 . S
C1151 C1157 1.491 . S
C1152 H1143 0.950 . S
C1152 C1151 1.398 . S
C1152 C1153 1.391 . S
C1153 H1141 0.950 . S
C1153 C1149 1.393 . S
C1153 C1152 1.391 . S
C1154 H1144 0.950 . S
C1154 C1155 1.386 . S
C1154 C1156 1.391 . S
C1155 C1154 1.386 . S
C1155 C1159 1.393 . S
C1156 H1145 0.950 . S
C1156 C1154 1.391 . S
C1156 C1157 1.400 . S
C1157 C1151 1.491 . S
C1157 C1156 1.400 . S
C1157 C1158 1.398 . S
C1158 H1146 0.950 . S
C1158 C1157 1.398 . S
C1158 C1159 1.391 . S
C1159 H1147 0.950 . S
C1159 C1155 1.393 . S
C1159 C1158 1.391 . S
H1160 C1168 0.950 . S
H1161 C1173 0.950 . S
H1162 C1170 0.950 . S
H1163 C1172 0.950 . S
H1164 C1174 0.950 . S
H1165 C1176 0.950 . S
H1166 C1178 0.950 . S
H1167 C1179 0.950 . S
C1168 H1160 0.950 . S
C1168 C1169 1.386 . S
C1168 C1170 1.391 . S
C1169 C1168 1.386 . S
C1169 C1173 1.393 . S
C1170 H1162 0.950 . S
C1170 C1168 1.391 . S
C1170 C1171 1.400 . S
C1171 C1170 1.400 . S
C1171 C1172 1.398 . S
C1171 C1177 1.491 . S
C1172 H1163 0.950 . S
C1172 C1171 1.398 . S
C1172 C1173 1.391 . S
C1173 H1161 0.950 . S
C1173 C1169 1.393 . S
C1173 C1172 1.391 . S
C1174 H1164 0.950 . S
C1174 C1175 1.386 . S
C1174 C1176 1.391 . S
C1175 C1174 1.386 . S
C1175 C1179 1.393 . S
C1176 H1165 0.950 . S
C1176 C1174 1.391 . S
C1176 C1177 1.400 . S
C1177 C1171 1.491 . S
C1177 C1176 1.400 . S
C1177 C1178 1.398 . S
C1178 H1166 0.950 . S
C1178 C1177 1.398 . S
C1178 C1179 1.391 . S
C1179 H1167 0.950 . S
C1179 C1175 1.393 . S
C1179 C1178 1.391 . S
H1180 C1188 0.950 . S
H1181 C1193 0.950 . S
H1182 C1190 0.950 . S
H1183 C1192 0.950 . S
H1184 C1194 0.950 . S
H1185 C1196 0.950 . S
H1186 C1198 0.950 . S
H1187 C1199 0.950 . S
C1188 H1180 0.950 . S
C1188 C1189 1.386 . S
C1188 C1190 1.391 . S
C1189 C1188 1.386 . S
C1189 C1193 1.393 . S
C1190 H1182 0.950 . S
C1190 C1188 1.391 . S
C1190 C1191 1.400 . S
C1191 C1190 1.400 . S
C1191 C1192 1.398 . S
C1191 C1197 1.491 . S
C1192 H1183 0.950 . S
C1192 C1191 1.398 . S
C1192 C1193 1.391 . S
C1193 H1181 0.950 . S
C1193 C1189 1.393 . S
C1193 C1192 1.391 . S
C1194 H1184 0.950 . S
C1194 C1195 1.386 . S
C1194 C1196 1.391 . S
C1195 C1194 1.386 . S
C1195 C1199 1.393 . S
C1196 H1185 0.950 . S
C1196 C1194 1.391 . S
C1196 C1197 1.400 . S
C1197 C1191 1.491 . S
C1197 C1196 1.400 . S
C1197 C1198 1.398 . S
C1198 H1186 0.950 . S
C1198 C1197 1.398 . S
C1198 C1199 1.391 . S
C1199 H1187 0.950 . S
C1199 C1195 1.393 . S
C1199 C1198 1.391 . S
H1200 C1208 0.950 . S
H1201 C1213 0.950 . S
H1202 C1210 0.950 . S
H1203 C1212 0.950 . S
H1204 C1214 0.950 . S
H1205 C1216 0.950 . S
H1206 C1218 0.950 . S
H1207 C1219 0.950 . S
C1208 H1200 0.950 . S
C1208 C1209 1.386 . S
C1208 C1210 1.391 . S
C1209 C1208 1.386 . S
C1209 C1213 1.393 . S
C1210 H1202 0.950 . S
C1210 C1208 1.391 . S
C1210 C1211 1.400 . S
C1211 C1210 1.400 . S
C1211 C1212 1.398 . S
C1211 C1217 1.491 1_655 S
C1212 H1203 0.950 . S
C1212 C1211 1.398 . S
C1212 C1213 1.391 . S
C1213 H1201 0.950 . S
C1213 C1209 1.393 . S
C1213 C1212 1.391 . S
C1214 H1204 0.950 . S
C1214 C1215 1.386 . S
C1214 C1216 1.391 . S
C1215 C1214 1.386 . S
C1215 C1219 1.393 . S
C1216 H1205 0.950 . S
C1216 C1214 1.391 . S
C1216 C1217 1.400 . S
C1217 C1211 1.491 1_455 S
C1217 C1216 1.400 . S
C1217 C1218 1.398 . S
C1218 H1206 0.950 . S
C1218 C1217 1.398 . S
C1218 C1219 1.391 . S
C1219 H1207 0.950 . S
C1219 C1215 1.393 . S
C1219 C1218 1.391 . S
H1220 C1228 0.950 . S
H1221 C1233 0.950 . S
H1222 C1230 0.950 . S
H1223 C1232 0.950 . S
H1224 C1234 0.950 . S
H1225 C1236 0.950 . S
H1226 C1238 0.950 . S
H1227 C1239 0.950 . S
C1228 H1220 0.950 . S
C1228 C1229 1.386 . S
C1228 C1230 1.391 . S
C1229 C1228 1.386 . S
C1229 C1233 1.393 . S
C1230 H1222 0.950 . S
C1230 C1228 1.391 . S
C1230 C1231 1.400 . S
C1231 C1230 1.400 . S
C1231 C1232 1.398 . S
C1231 C1237 1.491 . S
C1232 H1223 0.950 . S
C1232 C1231 1.398 . S
C1232 C1233 1.391 . S
C1233 H1221 0.950 . S
C1233 C1229 1.393 . S
C1233 C1232 1.391 . S
C1234 H1224 0.950 . S
C1234 C1235 1.386 . S
C1234 C1236 1.391 . S
C1235 C1234 1.386 . S
C1235 C1239 1.393 . S
C1236 H1225 0.950 . S
C1236 C1234 1.391 . S
C1236 C1237 1.400 . S
C1237 C1231 1.491 . S
C1237 C1236 1.400 . S
C1237 C1238 1.398 . S
C1238 H1226 0.950 . S
C1238 C1237 1.398 . S
C1238 C1239 1.391 . S
C1239 H1227 0.950 . S
C1239 C1235 1.393 . S
C1239 C1238 1.391 . S
H1240 C1248 0.950 . S
H1241 C1253 0.950 . S
H1242 C1250 0.950 . S
H1243 C1252 0.950 . S
H1244 C1254 0.950 . S
H1245 C1256 0.950 . S
H1246 C1258 0.950 . S
H1247 C1259 0.950 . S
C1248 H1240 0.950 . S
C1248 C1249 1.386 . S
C1248 C1250 1.391 . S
C1249 C1248 1.386 . S
C1249 C1253 1.393 . S
C1250 H1242 0.950 . S
C1250 C1248 1.391 . S
C1250 C1251 1.400 . S
C1251 C1250 1.400 . S
C1251 C1252 1.398 . S
C1251 C1257 1.491 . S
C1252 H1243 0.950 . S
C1252 C1251 1.398 . S
C1252 C1253 1.391 . S
C1253 H1241 0.950 . S
C1253 C1249 1.393 . S
C1253 C1252 1.391 . S
C1254 H1244 0.950 . S
C1254 C1255 1.386 . S
C1254 C1256 1.391 . S
C1255 C1254 1.386 . S
C1255 C1259 1.393 . S
C1256 H1245 0.950 . S
C1256 C1254 1.391 . S
C1256 C1257 1.400 . S
C1257 C1251 1.491 . S
C1257 C1256 1.400 . S
C1257 C1258 1.398 . S
C1258 H1246 0.950 . S
C1258 C1257 1.398 . S
C1258 C1259 1.391 . S
C1259 H1247 0.950 . S
C1259 C1255 1.393 . S
C1259 C1258 1.391 . S
H1260 C1268 0.950 . S
H1261 C1273 0.950 . S
H1262 C1270 0.950 . S
H1263 C1272 0.950 . S
H1264 C1274 0.950 . S
H1265 C1276 0.950 . S
H1266 C1278 0.950 . S
H1267 C1279 0.950 . S
C1268 H1260 0.950 . S
C1268 C1269 1.386 . S
C1268 C1270 1.391 . S
C1269 C1268 1.386 . S
C1269 C1273 1.393 . S
C1270 H1262 0.950 . S
C1270 C1268 1.391 . S
C1270 C1271 1.400 . S
C1271 C1270 1.400 . S
C1271 C1272 1.398 . S
C1271 C1277 1.491 1_455 S
C1272 H1263 0.950 . S
C1272 C1271 1.398 . S
C1272 C1273 1.391 . S
C1273 H1261 0.950 . S
C1273 C1269 1.393 . S
C1273 C1272 1.391 . S
C1274 H1264 0.950 . S
C1274 C1275 1.386 . S
C1274 C1276 1.391 . S
C1275 C1274 1.386 . S
C1275 C1279 1.393 . S
C1276 H1265 0.950 . S
C1276 C1274 1.391 . S
C1276 C1277 1.400 . S
C1277 C1271 1.491 1_655 S
C1277 C1276 1.400 . S
C1277 C1278 1.398 . S
C1278 H1266 0.950 . S
C1278 C1277 1.398 . S
C1278 C1279 1.391 . S
C1279 H1267 0.950 . S
C1279 C1275 1.393 . S
C1279 C1278 1.391 . S
H1280 C1288 0.950 . S
H1281 C1293 0.950 . S
H1282 C1290 0.950 . S
H1283 C1292 0.950 . S
H1284 C1294 0.950 . S
H1285 C1296 0.950 . S
H1286 C1298 0.950 . S
H1287 C1299 0.950 . S
C1288 H1280 0.950 . S
C1288 C1289 1.386 . S
C1288 C1290 1.391 . S
C1289 C1288 1.386 . S
C1289 C1293 1.393 . S
C1290 H1282 0.950 . S
C1290 C1288 1.391 . S
C1290 C1291 1.400 . S
C1291 C1290 1.400 . S
C1291 C1292 1.398 . S
C1291 C1297 1.491 . S
C1292 H1283 0.950 . S
C1292 C1291 1.398 . S
C1292 C1293 1.391 . S
C1293 H1281 0.950 . S
C1293 C1289 1.393 . S
C1293 C1292 1.391 . S
C1294 H1284 0.950 . S
C1294 C1295 1.386 . S
C1294 C1296 1.391 . S
C1295 C1294 1.386 . S
C1295 C1299 1.393 . S
C1296 H1285 0.950 . S
C1296 C1294 1.391 . S
C1296 C1297 1.400 1_556 S
C1297 C1291 1.491 . S
C1297 C1296 1.400 1_554 S
C1297 C1298 1.398 . S
C1298 H1286 0.950 . S
C1298 C1297 1.398 . S
C1298 C1299 1.391 1_554 S
C1299 H1287 0.950 . S
C1299 C1295 1.393 . S
C1299 C1298 1.391 1_556 S
H1300 C1308 0.950 . S
H1301 C1313 0.950 . S
H1302 C1310 0.950 . S
H1303 C1312 0.950 . S
H1304 C1314 0.950 . S
H1305 C1316 0.950 . S
H1306 C1318 0.950 . S
H1307 C1319 0.950 . S
C1308 H1300 0.950 . S
C1308 C1309 1.386 . S
C1308 C1310 1.391 . S
C1309 C1308 1.386 . S
C1309 C1313 1.393 . S
C1310 H1302 0.950 . S
C1310 C1308 1.391 . S
C1310 C1311 1.400 . S
C1311 C1310 1.400 . S
C1311 C1312 1.398 . S
C1311 C1317 1.491 . S
C1312 H1303 0.950 . S
C1312 C1311 1.398 . S
C1312 C1313 1.391 . S
C1313 H1301 0.950 . S
C1313 C1309 1.393 . S
C1313 C1312 1.391 . S
C1314 H1304 0.950 . S
C1314 C1315 1.386 . S
C1314 C1316 1.391 . S
C1315 C1314 1.386 . S
C1315 C1319 1.393 . S
C1316 H1305 0.950 . S
C1316 C1314 1.391 . S
C1316 C1317 1.400 . S
C1317 C1311 1.491 . S
C1317 C1316 1.400 . S
C1317 C1318 1.398 . S
C1318 H1306 0.950 . S
C1318 C1317 1.398 . S
C1318 C1319 1.391 . S
C1319 H1307 0.950 . S
C1319 C1315 1.393 . S
C1319 C1318 1.391 . S
H1320 C1328 0.950 . S
H1321 C1333 0.950 . S
H1322 C1330 0.950 . S
H1323 C1332 0.950 . S
H1324 C1334 0.950 . S
H1325 C1336 0.950 . S
H1326 C1338 0.950 . S
H1327 C1339 0.950 . S
C1328 H1320 0.950 . S
C1328 C1329 1.386 . S
C1328 C1330 1.391 . S
C1329 C1328 1.386 . S
C1329 C1333 1.393 . S
C1330 H1322 0.950 . S
C1330 C1328 1.391 . S
C1330 C1331 1.400 . S
C1331 C1330 1.400 . S
C1331 C1332 1.398 . S
C1331 C1337 1.491 . S
C1332 H1323 0.950 . S
C1332 C1331 1.398 . S
C1332 C1333 1.391 . S
C1333 H1321 0.950 . S
C1333 C1329 1.393 . S
C1333 C1332 1.391 . S
C1334 H1324 0.950 . S
C1334 C1335 1.386 . S
C1334 C1336 1.391 . S
C1335 C1334 1.386 . S
C1335 C1339 1.393 . S
C1336 H1325 0.950 . S
C1336 C1334 1.391 . S
C1336 C1337 1.400 . S
C1337 C1331 1.491 . S
C1337 C1336 1.400 . S
C1337 C1338 1.398 . S
C1338 H1326 0.950 . S
C1338 C1337 1.398 . S
C1338 C1339 1.391 . S
C1339 H1327 0.950 . S
C1339 C1335 1.393 . S
C1339 C1338 1.391 . S
H1340 C1348 0.950 . S
H1341 C1353 0.950 . S
H1342 C1350 0.950 . S
H1343 C1352 0.950 . S
H1344 C1354 0.950 . S
H1345 C1356 0.950 . S
H1346 C1358 0.950 . S
H1347 C1359 0.950 . S
C1348 H1340 0.950 . S
C1348 C1349 1.386 . S
C1348 C1350 1.391 . S
C1349 C1348 1.386 . S
C1349 C1353 1.393 . S
C1350 H1342 0.950 . S
C1350 C1348 1.391 . S
C1350 C1351 1.400 . S
C1351 C1350 1.400 . S
C1351 C1352 1.398 . S
C1351 C1357 1.491 . S
C1352 H1343 0.950 . S
C1352 C1351 1.398 . S
C1352 C1353 1.391 . S
C1353 H1341 0.950 . S
C1353 C1349 1.393 . S
C1353 C1352 1.391 . S
C1354 H1344 0.950 . S
C1354 C1355 1.386 . S
C1354 C1356 1.391 . S
C1355 C1354 1.386 . S
C1355 C1359 1.393 . S
C1356 H1345 0.950 . S
C1356 C1354 1.391 . S
C1356 C1357 1.400 . S
C1357 C1351 1.491 . S
C1357 C1356 1.400 . S
C1357 C1358 1.398 . S
C1358 H1346 0.950 . S
C1358 C1357 1.398 . S
C1358 C1359 1.391 . S
C1359 H1347 0.950 . S
C1359 C1355 1.393 . S
C1359 C1358 1.391 . S
H1360 C1368 0.950 . S
H1361 C1373 0.950 . S
H1362 C1370 0.950 . S
H1363 C1372 0.950 . S
H1364 C1374 0.950 . S
H1365 C1376 0.950 . S
H1366 C1378 0.950 . S
H1367 C1379 0.950 . S
C1368 H1360 0.950 . S
C1368 C1369 1.386 . S
C1368 C1370 1.391 . S
C1369 C1368 1.386 . S
C1369 C1373 1.393 . S
C1370 H1362 0.950 . S
C1370 C1368 1.391 . S
C1370 C1371 1.400 1_554 S
C1371 C1370 1.400 1_556 S
C1371 C1372 1.398 . S
C1371 C1377 1.491 . S
C1372 H1363 0.950 . S
C1372 C1371 1.398 . S
C1372 C1373 1.391 1_556 S
C1373 H1361 0.950 . S
C1373 C1369 1.393 . S
C1373 C1372 1.391 1_554 S
C1374 H1364 0.950 . S
C1374 C1375 1.386 . S
C1374 C1376 1.391 . S
C1375 C1374 1.386 . S
C1375 C1379 1.393 . S
C1376 H1365 0.950 . S
C1376 C1374 1.391 . S
C1376 C1377 1.400 . S
C1377 C1371 1.491 . S
C1377 C1376 1.400 . S
C1377 C1378 1.398 . S
C1378 H1366 0.950 . S
C1378 C1377 1.398 . S
C1378 C1379 1.391 . S
C1379 H1367 0.950 . S
C1379 C1375 1.393 . S
C1379 C1378 1.391 . S
H1380 C1388 0.950 . S
H1381 C1393 0.950 . S
H1382 C1390 0.950 . S
H1383 C1392 0.950 . S
H1384 C1394 0.950 . S
H1385 C1396 0.950 . S
H1386 C1398 0.950 . S
H1387 C1399 0.950 . S
C1388 H1380 0.950 . S
C1388 C1389 1.386 . S
C1388 C1390 1.391 . S
C1389 C1388 1.386 . S
C1389 C1393 1.393 . S
C1390 H1382 0.950 . S
C1390 C1388 1.391 . S
C1390 C1391 1.400 . S
C1391 C1390 1.400 . S
C1391 C1392 1.398 . S
C1391 C1397 1.491 . S
C1392 H1383 0.950 . S
C1392 C1391 1.398 . S
C1392 C1393 1.391 . S
C1393 H1381 0.950 . S
C1393 C1389 1.393 . S
C1393 C1392 1.391 . S
C1394 H1384 0.950 . S
C1394 C1395 1.386 . S
C1394 C1396 1.391 . S
C1395 C1394 1.386 . S
C1395 C1399 1.393 . S
C1396 H1385 0.950 . S
C1396 C1394 1.391 . S
C1396 C1397 1.400 . S
C1397 C1391 1.491 . S
C1397 C1396 1.400 . S
C1397 C1398 1.398 . S
C1398 H1386 0.950 . S
C1398 C1397 1.398 . S
C1398 C1399 1.391 . S
C1399 H1387 0.950 . S
C1399 C1395 1.393 . S
C1399 C1398 1.391 . S
H1400 C1408 0.950 . S
H1401 C1413 0.950 . S
H1402 C1410 0.950 . S
H1403 C1412 0.950 . S
H1404 C1414 0.950 . S
H1405 C1416 0.950 . S
H1406 C1418 0.950 . S
H1407 C1419 0.950 . S
C1408 H1400 0.950 . S
C1408 C1409 1.386 . S
C1408 C1410 1.391 . S
C1409 C1408 1.386 . S
C1409 C1413 1.393 . S
C1410 H1402 0.950 . S
C1410 C1408 1.391 . S
C1410 C1411 1.400 . S
C1411 C1410 1.400 . S
C1411 C1412 1.398 . S
C1411 C1417 1.491 . S
C1412 H1403 0.950 . S
C1412 C1411 1.398 . S
C1412 C1413 1.391 . S
C1413 H1401 0.950 . S
C1413 C1409 1.393 . S
C1413 C1412 1.391 . S
C1414 H1404 0.950 . S
C1414 C1415 1.386 . S
C1414 C1416 1.391 . S
C1415 C1414 1.386 . S
C1415 C1419 1.393 . S
C1416 H1405 0.950 . S
C1416 C1414 1.391 . S
C1416 C1417 1.400 . S
C1417 C1411 1.491 . S
C1417 C1416 1.400 . S
C1417 C1418 1.398 . S
C1418 H1406 0.950 . S
C1418 C1417 1.398 . S
C1418 C1419 1.391 . S
C1419 H1407 0.950 . S
C1419 C1415 1.393 . S
C1419 C1418 1.391 . S
H1420 C1428 0.950 . S
H1421 C1433 0.950 . S
H1422 C1430 0.950 . S
H1423 C1432 0.950 . S
H1424 C1434 0.950 . S
H1425 C1436 0.950 . S
H1426 C1438 0.950 . S
H1427 C1439 0.950 . S
C1428 H1420 0.950 . S
C1428 C1429 1.386 . S
C1428 C1430 1.391 . S
C1429 C1428 1.386 . S
C1429 C1433 1.393 . S
C1430 H1422 0.950 . S
C1430 C1428 1.391 . S
C1430 C1431 1.400 . S
C1431 C1430 1.400 . S
C1431 C1432 1.398 . S
C1431 C1437 1.491 . S
C1432 H1423 0.950 . S
C1432 C1431 1.398 . S
C1432 C1433 1.391 . S
C1433 H1421 0.950 . S
C1433 C1429 1.393 . S
C1433 C1432 1.391 . S
C1434 H1424 0.950 . S
C1434 C1435 1.386 . S
C1434 C1436 1.391 . S
C1435 C1434 1.386 . S
C1435 C1439 1.393 . S
C1436 H1425 0.950 . S
C1436 C1434 1.391 . S
C1436 C1437 1.400 . S
C1437 C1431 1.491 . S
C1437 C1436 1.400 . S
C1437 C1438 1.398 . S
C1438 H1426 0.950 . S
C1438 C1437 1.398 . S
C1438 C1439 1.391 . S
C1439 H1427 0.950 . S
C1439 C1435 1.393 . S
C1439 C1438 1.391 . S
H1440 C1448 0.950 . S
H1441 C1453 0.950 . S
H1442 C1450 0.950 1_545 S
H1443 C1452 0.950 . S
H1444 C1454 0.950 . S
H1445 C1456 0.950 . S
H1446 C1458 0.950 . S
H1447 C1459 0.950 . S
C1448 H1440 0.950 . S
C1448 C1449 1.386 . S
C1448 C1450 1.391 . S
C1449 C1448 1.386 . S
C1449 C1453 1.393 . S
C1450 H1442 0.950 1_565 S
C1450 C1448 1.391 . S
C1450 C1451 1.400 . S
C1451 C1450 1.400 . S
C1451 C1452 1.398 . S
C1451 C1457 1.491 1_565 S
C1452 H1443 0.950 . S
C1452 C1451 1.398 . S
C1452 C1453 1.391 . S
C1453 H1441 0.950 . S
C1453 C1449 1.393 . S
C1453 C1452 1.391 . S
C1454 H1444 0.950 . S
C1454 C1455 1.386 . S
C1454 C1456 1.391 1_545 S
C1455 C1454 1.386 . S
C1455 C1459 1.393 . S
C1456 H1445 0.950 . S
C1456 C1454 1.391 1_565 S
C1456 C1457 1.400 1_565 S
C1457 C1451 1.491 1_545 S
C1457 C1456 1.400 1_545 S
C1457 C1458 1.398 . S
C1458 H1446 0.950 . S
C1458 C1457 1.398 . S
C1458 C1459 1.391 . S
C1459 H1447 0.950 . S
C1459 C1455 1.393 . S
C1459 C1458 1.391 . S
H1460 C1468 0.950 . S
H1461 C1473 0.950 . S
H1462 C1470 0.950 . S
H1463 C1472 0.950 . S
H1464 C1474 0.950 . S
H1465 C1476 0.950 . S
H1466 C1478 0.950 . S
H1467 C1479 0.950 . S
C1468 H1460 0.950 . S
C1468 C1469 1.386 . S
C1468 C1470 1.391 . S
C1469 C1468 1.386 . S
C1469 C1473 1.393 . S
C1470 H1462 0.950 . S
C1470 C1468 1.391 . S
C1470 C1471 1.400 . S
C1471 C1470 1.400 . S
C1471 C1472 1.398 . S
C1471 C1477 1.491 . S
C1472 H1463 0.950 . S
C1472 C1471 1.398 . S
C1472 C1473 1.391 . S
C1473 H1461 0.950 . S
C1473 C1469 1.393 . S
C1473 C1472 1.391 . S
C1474 H1464 0.950 . S
C1474 C1475 1.386 . S
C1474 C1476 1.391 . S
C1475 C1474 1.386 . S
C1475 C1479 1.393 . S
C1476 H1465 0.950 . S
C1476 C1474 1.391 . S
C1476 C1477 1.400 . S
C1477 C1471 1.491 . S
C1477 C1476 1.400 . S
C1477 C1478 1.398 . S
C1478 H1466 0.950 . S
C1478 C1477 1.398 . S
C1478 C1479 1.391 . S
C1479 H1467 0.950 . S
C1479 C1475 1.393 . S
C1479 C1478 1.391 . S
H1480 C1488 0.950 . S
H1481 C1493 0.950 . S
H1482 C1490 0.986 . S
H1483 C1492 0.950 . S
H1484 C1494 0.950 . S
H1485 C1496 0.950 . S
H1486 C1498 0.950 . S
H1487 C1499 0.950 . S
C1488 H1480 0.950 . S
C1488 C1489 1.386 . S
C1488 C1490 1.391 . S
C1489 C1488 1.386 . S
C1489 C1493 1.393 . S
C1490 H1482 0.986 . S
C1490 C1488 1.391 . S
C1490 C1491 1.400 . S
C1491 C1490 1.400 . S
C1491 C1492 1.398 . S
C1491 C1497 1.491 1_565 S
C1492 H1483 0.950 . S
C1492 C1491 1.398 . S
C1492 C1493 1.391 . S
C1493 H1481 0.950 . S
C1493 C1489 1.393 . S
C1493 C1492 1.391 . S
C1494 H1484 0.950 . S
C1494 C1495 1.386 . S
C1494 C1496 1.391 . S
C1495 C1494 1.386 . S
C1495 C1499 1.393 . S
C1496 H1485 0.950 . S
C1496 C1494 1.391 . S
C1496 C1497 1.400 1_556 S
C1497 C1491 1.491 1_545 S
C1497 C1496 1.400 1_554 S
C1497 C1498 1.398 . S
C1498 H1486 0.950 . S
C1498 C1497 1.398 . S
C1498 C1499 1.391 1_554 S
C1499 H1487 0.950 . S
C1499 C1495 1.393 . S
C1499 C1498 1.391 1_556 S
H1500 C1508 0.950 . S
H1501 C1513 0.950 . S
H1502 C1510 0.950 . S
H1503 C1512 0.950 . S
H1504 C1514 0.950 . S
H1505 C1516 0.950 . S
H1506 C1518 0.950 . S
H1507 C1519 0.950 . S
C1508 H1500 0.950 . S
C1508 C1509 1.386 . S
C1508 C1510 1.391 . S
C1509 C1508 1.386 . S
C1509 C1513 1.393 . S
C1510 H1502 0.950 . S
C1510 C1508 1.391 . S
C1510 C1511 1.400 . S
C1511 C1510 1.400 . S
C1511 C1512 1.398 . S
C1511 C1517 1.491 . S
C1512 H1503 0.950 . S
C1512 C1511 1.398 . S
C1512 C1513 1.391 . S
C1513 H1501 0.950 . S
C1513 C1509 1.393 . S
C1513 C1512 1.391 . S
C1514 H1504 0.950 . S
C1514 C1515 1.386 . S
C1514 C1516 1.391 . S
C1515 C1514 1.386 . S
C1515 C1519 1.393 . S
C1516 H1505 0.950 . S
C1516 C1514 1.391 . S
C1516 C1517 1.400 . S
C1517 C1511 1.491 . S
C1517 C1516 1.400 . S
C1517 C1518 1.398 . S
C1518 H1506 0.950 . S
C1518 C1517 1.398 . S
C1518 C1519 1.391 . S
C1519 H1507 0.950 . S
C1519 C1515 1.393 . S
C1519 C1518 1.391 . S
H1520 C1528 0.950 . S
H1521 C1533 0.950 . S
H1522 C1530 0.950 . S
H1523 C1532 0.950 1_545 S
H1524 C1534 0.950 . S
H1525 C1536 0.950 . S
H1526 C1538 0.964 . S
H1527 C1539 0.950 . S
C1528 H1520 0.950 . S
C1528 C1529 1.386 . S
C1528 C1530 1.391 . S
C1529 C1528 1.386 . S
C1529 C1533 1.393 . S
C1530 H1522 0.950 . S
C1530 C1528 1.391 . S
C1530 C1531 1.400 . S
C1531 C1530 1.400 . S
C1531 C1532 1.398 . S
C1531 C1537 1.491 1_565 S
C1532 H1523 0.950 1_565 S
C1532 C1531 1.398 . S
C1532 C1533 1.391 . S
C1533 H1521 0.950 . S
C1533 C1529 1.393 . S
C1533 C1532 1.391 . S
C1534 H1524 0.950 . S
C1534 C1535 1.386 . S
C1534 C1536 1.391 . S
C1535 C1534 1.386 . S
C1535 C1539 1.393 . S
C1536 H1525 0.950 . S
C1536 C1534 1.391 . S
C1536 C1537 1.400 . S
C1537 C1531 1.491 1_545 S
C1537 C1536 1.400 . S
C1537 C1538 1.398 . S
C1538 H1526 0.964 . S
C1538 C1537 1.398 . S
C1538 C1539 1.391 . S
C1539 H1527 0.950 . S
C1539 C1535 1.393 . S
C1539 C1538 1.391 . S
H1540 C1548 0.950 . S
H1541 C1553 0.950 . S
H1542 C1550 0.950 . S
H1543 C1552 0.950 . S
H1544 C1554 0.950 . S
H1545 C1556 0.950 . S
H1546 C1558 0.950 . S
H1547 C1559 0.950 . S
C1548 H1540 0.950 . S
C1548 C1549 1.386 . S
C1548 C1550 1.391 . S
C1549 C1548 1.386 . S
C1549 C1553 1.393 . S
C1550 H1542 0.950 . S
C1550 C1548 1.391 . S
C1550 C1551 1.400 . S
C1551 C1550 1.400 . S
C1551 C1552 1.398 . S
C1551 C1557 1.491 . S
C1552 H1543 0.950 . S
C1552 C1551 1.398 . S
C1552 C1553 1.391 . S
C1553 H1541 0.950 . S
C1553 C1549 1.393 . S
C1553 C1552 1.391 . S
C1554 H1544 0.950 . S
C1554 C1555 1.386 . S
C1554 C1556 1.391 . S
C1555 C1554 1.386 . S
C1555 C1559 1.393 . S
C1556 H1545 0.950 . S
C1556 C1554 1.391 . S
C1556 C1557 1.400 . S
C1557 C1551 1.491 . S
C1557 C1556 1.400 . S
C1557 C1558 1.398 . S
C1558 H1546 0.950 . S
C1558 C1557 1.398 . S
C1558 C1559 1.391 . S
C1559 H1547 0.950 . S
C1559 C1555 1.393 . S
C1559 C1558 1.391 . S
H1560 C1568 0.950 . S
H1561 C1573 0.950 . S
H1562 C1570 0.950 . S
H1563 C1572 0.950 . S
H1564 C1574 0.950 . S
H1565 C1576 0.950 . S
H1566 C1578 0.950 . S
H1567 C1579 0.950 . S
C1568 H1560 0.950 . S
C1568 C1569 1.386 . S
C1568 C1570 1.391 . S
C1569 C1568 1.386 . S
C1569 C1573 1.393 . S
C1570 H1562 0.950 . S
C1570 C1568 1.391 . S
C1570 C1571 1.400 . S
C1571 C1570 1.400 . S
C1571 C1572 1.398 . S
C1571 C1577 1.491 1_545 S
C1572 H1563 0.950 . S
C1572 C1571 1.398 . S
C1572 C1573 1.391 . S
C1573 H1561 0.950 . S
C1573 C1569 1.393 . S
C1573 C1572 1.391 . S
C1574 H1564 0.950 . S
C1574 C1575 1.386 . S
C1574 C1576 1.391 1_554 S
C1575 C1574 1.386 . S
C1575 C1579 1.393 . S
C1576 H1565 0.950 . S
C1576 C1574 1.391 1_556 S
C1576 C1577 1.400 . S
C1577 C1571 1.491 1_565 S
C1577 C1576 1.400 . S
C1577 C1578 1.398 . S
C1578 H1566 0.950 . S
C1578 C1577 1.398 . S
C1578 C1579 1.391 1_556 S
C1579 H1567 0.950 . S
C1579 C1575 1.393 . S
C1579 C1578 1.391 1_554 S
H1580 C1588 0.950 . S
H1581 C1593 0.950 . S
H1582 C1590 0.950 . S
H1583 C1592 0.950 . S
H1584 C1594 0.950 . S
H1585 C1596 0.950 . S
H1586 C1598 0.950 . S
H1587 C1599 0.950 . S
C1588 H1580 0.950 . S
C1588 C1589 1.386 . S
C1588 C1590 1.391 . S
C1589 C1588 1.386 . S
C1589 C1593 1.393 . S
C1590 H1582 0.950 . S
C1590 C1588 1.391 . S
C1590 C1591 1.400 . S
C1591 C1590 1.400 . S
C1591 C1592 1.398 . S
C1591 C1597 1.491 . S
C1592 H1583 0.950 . S
C1592 C1591 1.398 . S
C1592 C1593 1.391 . S
C1593 H1581 0.950 . S
C1593 C1589 1.393 . S
C1593 C1592 1.391 . S
C1594 H1584 0.950 . S
C1594 C1595 1.386 . S
C1594 C1596 1.391 . S
C1595 C1594 1.386 . S
C1595 C1599 1.393 . S
C1596 H1585 0.950 . S
C1596 C1594 1.391 . S
C1596 C1597 1.400 . S
C1597 C1591 1.491 . S
C1597 C1596 1.400 . S
C1597 C1598 1.398 . S
C1598 H1586 0.950 . S
C1598 C1597 1.398 . S
C1598 C1599 1.391 . S
C1599 H1587 0.950 . S
C1599 C1595 1.393 . S
C1599 C1598 1.391 . S
C649 C26 1.618 . S
C655 C9 1.618 . S
C669 C49 1.504 . S
C675 C66 1.504 . S
C689 C89 1.647 . S
C695 C106 1.647 1_554 S
C709 C129 1.845 . S
C715 C146 1.845 . S
C729 C186 1.482 . S
C735 C169 1.482 . S
C749 C209 1.626 . S
C755 C226 1.626 . S
C769 C266 1.830 . S
C775 C249 1.830 1_556 S
C789 C289 1.634 . S
C795 C306 1.634 . S
C809 C329 1.609 . S
C815 C346 1.609 . S
C829 C369 1.500 . S
C835 C386 1.500 . S
C849 C409 1.647 1_556 S
C855 C426 1.647 . S
C869 C466 1.847 . S
C875 C449 1.847 . S
C889 C489 1.501 . S
C895 C506 1.501 . S
C909 C529 1.630 . S
C915 C546 1.630 . S
C929 C569 1.821 . S
C935 C586 1.821 1_554 S
C949 C626 1.609 . S
C955 C609 1.609 . S
C969 C22 1.900 . S
C975 C443 1.904 . S
C989 C42 1.607 . S
C995 C615 1.654 . S
C1009 C82 1.799 . S
C1015 C363 1.916 . S
C1029 C122 1.536 . S
C1035 C523 1.602 . S
C1049 C182 1.909 . S
C1055 C535 1.816 . S
C1069 C455 1.515 . S
C1075 C222 1.609 . S
C1089 C262 1.918 . S
C1095 C603 1.882 . S
C1109 C282 1.651 . S
C1115 C375 1.612 . S
C1129 C142 1.910 . S
C1135 C323 1.893 . S
C1149 C62 1.908 . S
C1155 C415 1.818 . S
C1169 C483 1.909 . S
C1175 C202 1.816 . S
C1189 C302 1.891 . S
C1195 C563 1.910 . S
C1209 C335 1.647 . S
C1215 C162 1.618 . S
C1229 C242 1.539 . S
C1235 C403 1.600 . S
C1249 C102 1.606 . S
C1255 C575 1.522 . S
C1269 C2 1.643 . S
C1275 C495 1.623 . S
C1289 C3 1.997 . S
C1295 C163 2.002 . S
C1309 C55 1.823 . S
C1315 C203 1.833 . S
C1329 C95 1.690 . S
C1335 C243 1.692 . S
C1349 C135 1.466 . S
C1355 C295 1.444 . S
C1369 C502 2.002 . S
C1375 C342 1.997 . S
C1389 C542 1.832 . S
C1395 C362 1.828 . S
C1409 C402 1.695 . S
C1415 C582 1.693 . S
C1429 C602 1.459 . S
C1435 C442 1.466 . S
C1449 C43 2.002 . S
C1455 C283 2.001 . S
C1469 C175 1.827 . S
C1475 C83 1.832 . S
C1489 C215 1.691 . S
C1495 C123 1.697 . S
C1509 C15 1.455 . S
C1515 C255 1.463 . S
C1529 C622 2.005 . S
C1535 C382 2.008 . S
C1549 C482 1.826 . S
C1555 C422 1.832 . S
C1569 C522 1.693 . S
C1575 C462 1.697 . S
C1589 C562 1.463 . S
C1595 C322 1.453 . S
