# Generated by pormake.
# Topology wib, (6)-cn, num edge types: 1
# Building blocks:
#     Node 0, Type 0, BuildingBlock: IZENUY_clean_sbu_0, # of connection points: 6
#     Node 1, Type 0, BuildingBlock: IZENUY_clean_sbu_0, # of connection points: 6
#     Node 2, Type 0, BuildingBlock: IZENUY_clean_sbu_0, # of connection points: 6
#     Node 3, Type 0, BuildingBlock: IZENUY_clean_sbu_0, # of connection points: 6
#     Node 4, Type 0, BuildingBlock: IZENUY_clean_sbu_0, # of connection points: 6
#     Node 5, Type 0, BuildingBlock: IZENUY_clean_sbu_0, # of connection points: 6
#     Node 6, Type 0, BuildingBlock: IZENUY_clean_sbu_0, # of connection points: 6
#     Node 7, Type 0, BuildingBlock: IZENUY_clean_sbu_0, # of connection points: 6
#     Node 8, Type 0, BuildingBlock: IZENUY_clean_sbu_0, # of connection points: 6
#     Node 9, Type 0, BuildingBlock: IZENUY_clean_sbu_0, # of connection points: 6
#     Node 10, Type 0, BuildingBlock: IZENUY_clean_sbu_0, # of connection points: 6
#     Node 11, Type 0, BuildingBlock: IZENUY_clean_sbu_0, # of connection points: 6
#     Node 12, Type 0, BuildingBlock: IZENUY_clean_sbu_0, # of connection points: 6
#     Node 13, Type 0, BuildingBlock: IZENUY_clean_sbu_0, # of connection points: 6
#     Node 14, Type 0, BuildingBlock: IZENUY_clean_sbu_0, # of connection points: 6
#     Node 15, Type 0, BuildingBlock: IZENUY_clean_sbu_0, # of connection points: 6
#     Edge 16, Type (0, 0), BuildingBlock: CIFDUS_clean_linker_0, # of connection points: 2
#     Edge 17, Type (0, 0), BuildingBlock: CIFDUS_clean_linker_0, # of connection points: 2
#     Edge 18, Type (0, 0), BuildingBlock: CIFDUS_clean_linker_0, # of connection points: 2
#     Edge 19, Type (0, 0), BuildingBlock: CIFDUS_clean_linker_0, # of connection points: 2
#     Edge 20, Type (0, 0), BuildingBlock: CIFDUS_clean_linker_0, # of connection points: 2
#     Edge 21, Type (0, 0), BuildingBlock: CIFDUS_clean_linker_0, # of connection points: 2
#     Edge 22, Type (0, 0), BuildingBlock: CIFDUS_clean_linker_0, # of connection points: 2
#     Edge 23, Type (0, 0), BuildingBlock: CIFDUS_clean_linker_0, # of connection points: 2
#     Edge 24, Type (0, 0), BuildingBlock: CIFDUS_clean_linker_0, # of connection points: 2
#     Edge 25, Type (0, 0), BuildingBlock: CIFDUS_clean_linker_0, # of connection points: 2
#     Edge 26, Type (0, 0), BuildingBlock: CIFDUS_clean_linker_0, # of connection points: 2
#     Edge 27, Type (0, 0), BuildingBlock: CIFDUS_clean_linker_0, # of connection points: 2
#     Edge 28, Type (0, 0), BuildingBlock: CIFDUS_clean_linker_0, # of connection points: 2
#     Edge 29, Type (0, 0), BuildingBlock: CIFDUS_clean_linker_0, # of connection points: 2
#     Edge 30, Type (0, 0), BuildingBlock: CIFDUS_clean_linker_0, # of connection points: 2
#     Edge 31, Type (0, 0), BuildingBlock: CIFDUS_clean_linker_0, # of connection points: 2
#     Edge 32, Type (0, 0), BuildingBlock: CIFDUS_clean_linker_0, # of connection points: 2
#     Edge 33, Type (0, 0), BuildingBlock: CIFDUS_clean_linker_0, # of connection points: 2
#     Edge 34, Type (0, 0), BuildingBlock: CIFDUS_clean_linker_0, # of connection points: 2
#     Edge 35, Type (0, 0), BuildingBlock: CIFDUS_clean_linker_0, # of connection points: 2
#     Edge 36, Type (0, 0), BuildingBlock: CIFDUS_clean_linker_0, # of connection points: 2
#     Edge 37, Type (0, 0), BuildingBlock: CIFDUS_clean_linker_0, # of connection points: 2
#     Edge 38, Type (0, 0), BuildingBlock: CIFDUS_clean_linker_0, # of connection points: 2
#     Edge 39, Type (0, 0), BuildingBlock: CIFDUS_clean_linker_0, # of connection points: 2
#     Edge 40, Type (0, 0), BuildingBlock: CIFDUS_clean_linker_0, # of connection points: 2
#     Edge 41, Type (0, 0), BuildingBlock: CIFDUS_clean_linker_0, # of connection points: 2
#     Edge 42, Type (0, 0), BuildingBlock: CIFDUS_clean_linker_0, # of connection points: 2
#     Edge 43, Type (0, 0), BuildingBlock: CIFDUS_clean_linker_0, # of connection points: 2
#     Edge 44, Type (0, 0), BuildingBlock: CIFDUS_clean_linker_0, # of connection points: 2
#     Edge 45, Type (0, 0), BuildingBlock: CIFDUS_clean_linker_0, # of connection points: 2
#     Edge 46, Type (0, 0), BuildingBlock: CIFDUS_clean_linker_0, # of connection points: 2
#     Edge 47, Type (0, 0), BuildingBlock: CIFDUS_clean_linker_0, # of connection points: 2
#     Edge 48, Type (0, 0), BuildingBlock: CIFDUS_clean_linker_0, # of connection points: 2
#     Edge 49, Type (0, 0), BuildingBlock: CIFDUS_clean_linker_0, # of connection points: 2
#     Edge 50, Type (0, 0), BuildingBlock: CIFDUS_clean_linker_0, # of connection points: 2
#     Edge 51, Type (0, 0), BuildingBlock: CIFDUS_clean_linker_0, # of connection points: 2
#     Edge 52, Type (0, 0), BuildingBlock: CIFDUS_clean_linker_0, # of connection points: 2
#     Edge 53, Type (0, 0), BuildingBlock: CIFDUS_clean_linker_0, # of connection points: 2
#     Edge 54, Type (0, 0), BuildingBlock: CIFDUS_clean_linker_0, # of connection points: 2
#     Edge 55, Type (0, 0), BuildingBlock: CIFDUS_clean_linker_0, # of connection points: 2
#     Edge 56, Type (0, 0), BuildingBlock: CIFDUS_clean_linker_0, # of connection points: 2
#     Edge 57, Type (0, 0), BuildingBlock: CIFDUS_clean_linker_0, # of connection points: 2
#     Edge 58, Type (0, 0), BuildingBlock: CIFDUS_clean_linker_0, # of connection points: 2
#     Edge 59, Type (0, 0), BuildingBlock: CIFDUS_clean_linker_0, # of connection points: 2
#     Edge 60, Type (0, 0), BuildingBlock: CIFDUS_clean_linker_0, # of connection points: 2
#     Edge 61, Type (0, 0), BuildingBlock: CIFDUS_clean_linker_0, # of connection points: 2
#     Edge 62, Type (0, 0), BuildingBlock: CIFDUS_clean_linker_0, # of connection points: 2
#     Edge 63, Type (0, 0), BuildingBlock: CIFDUS_clean_linker_0, # of connection points: 2
# Relax obj value: 0.443
# Max RMSD: 0.268
# Mean RMSD: 0.268
data_MOF--net-wib--node1-IZENUY_clean_sbu_0--edge1-CIFDUS_clean_linker_0
_symmetry_space_group_name_H-M    P1
_symmetry_Int_Tables_number       1
_symmetry_cell_setting            triclinic
loop_
_symmetry_equiv_pos_as_xyz
'x, y, z'
_cell_length_a     26.499757
_cell_length_b     26.588542
_cell_length_c     49.255206
_cell_angle_alpha  89.994739
_cell_angle_beta   89.946096
_cell_angle_gamma 90.030628
loop_
_atom_site_label
_atom_site_type_symbol
_atom_site_fract_x
_atom_site_fract_y
_atom_site_fract_z
_atom_type_partial_charge
Fe0 Fe 0.08208 0.59614 0.2951 0.0
Fe1 Fe 0.1217 0.48653 0.29798 0.0
O2 O 0.12043 0.54923 0.31031 0.0
Fe3 Fe 0.15914 0.56621 0.33822 0.0
O4 O 0.19529 0.60784 0.31677 0.0
O5 O 0.12828 0.64592 0.3002 0.0
O6 O 0.11072 0.58784 0.26228 0.0
C7 C 0.11907 0.54778 0.24953 0.0
C8 C 0.07411 0.63019 0.34624 0.0
O9 O 0.11615 0.50508 0.26142 0.0
C10 C 0.12563 0.47744 0.35711 0.0
O11 O 0.03039 0.55411 0.28653 0.0
O12 O 0.05264 0.47914 0.30157 0.0
O13 O 0.11981 0.61868 0.34991 0.0
O14 O 0.05028 0.60949 0.32713 0.0
C15 C 0.22245 0.4983 0.31082 0.0
O16 O 0.12917 0.45861 0.33311 0.0
O17 O 0.12462 0.5246 0.3603 0.0
C18 C 0.01931 0.50956 0.29296 0.0
O19 O 0.19066 0.4885 0.29248 0.0
O20 O 0.20775 0.51856 0.33254 0.0
C21 C 0.1756 0.64254 0.30288 0.0
Fe22 Fe 0.26688 0.37005 0.55214 0.0
Fe23 Fe 0.17446 0.38971 0.58885 0.0
O24 O 0.20307 0.35798 0.56112 0.0
Fe25 Fe 0.16551 0.31658 0.54123 0.0
O26 O 0.19707 0.3282 0.50851 0.0
O27 O 0.24872 0.38948 0.51793 0.0
O28 O 0.26434 0.43864 0.56029 0.0
C29 C 0.22596 0.46709 0.56312 0.0
C30 C 0.25265 0.26263 0.54466 0.0
O31 O 0.18508 0.44987 0.5726 0.0
C32 C 0.13289 0.29718 0.59548 0.0
O33 O 0.29048 0.35442 0.58647 0.0
O34 O 0.23208 0.3964 0.60869 0.0
O35 O 0.20587 0.2643 0.54897 0.0
O36 O 0.27865 0.30296 0.5416 0.0
C37 C 0.10014 0.39324 0.54954 0.0
O38 O 0.16038 0.33063 0.60641 0.0
O39 O 0.12634 0.29648 0.56997 0.0
C40 C 0.27522 0.37644 0.60788 0.0
O41 O 0.11155 0.39036 0.57426 0.0
O42 O 0.12331 0.36738 0.53221 0.0
C43 C 0.22034 0.36732 0.50122 0.0
Fe44 Fe 0.39691 0.52141 0.79893 0.0
Fe45 Fe 0.36644 0.44403 0.84223 0.0
O46 O 0.40008 0.45946 0.8123 0.0
Fe47 Fe 0.43671 0.41247 0.79599 0.0
O48 O 0.40051 0.41767 0.76504 0.0
O49 O 0.40033 0.50047 0.76268 0.0
O50 O 0.32779 0.51786 0.79518 0.0
C51 C 0.2975 0.50724 0.81424 0.0
C52 C 0.49822 0.49902 0.7906 0.0
O53 O 0.31407 0.48789 0.83598 0.0
C54 C 0.45679 0.38585 0.84782 0.0
O55 O 0.39024 0.5526 0.83318 0.0
O56 O 0.40109 0.48994 0.86156 0.0
O57 O 0.4848 0.45557 0.78323 0.0
O58 O 0.46646 0.52916 0.8012 0.0
C59 C 0.34924 0.36016 0.81269 0.0
O60 O 0.41152 0.39611 0.85398 0.0
O61 O 0.47541 0.40311 0.82612 0.0
C62 C 0.39593 0.53637 0.85747 0.0
O63 O 0.32978 0.39724 0.82463 0.0
O64 O 0.39493 0.3607 0.80534 0.0
C65 C 0.3927 0.45743 0.7518 0.0
Fe66 Fe 0.23955 0.64155 0.04979 0.0
Fe67 Fe 0.3301 0.61414 0.08645 0.0
O68 O 0.30394 0.64889 0.05915 0.0
Fe69 Fe 0.34399 0.68941 1.03999 0.0
O70 O 0.31117 0.68216 1.00734 0.0
O71 O 0.25772 0.6219 1.01546 0.0
O72 O 0.23641 0.57327 0.05761 0.0
C73 C 0.27088 0.54119 0.06229 0.0
C74 C 0.2604 0.74813 0.0442 0.0
O75 O 0.31384 0.55478 0.07064 0.0
C76 C 0.38079 0.70177 0.09407 0.0
O77 O 0.21615 0.65727 0.08426 0.0
O78 O 0.27268 0.61261 0.10654 0.0
O79 O 0.30677 0.74341 0.04919 0.0
O80 O 0.23258 0.70952 1.03981 0.0
C81 C 0.4046 0.60831 0.04655 0.0
O82 O 0.34976 0.671 0.10441 0.0
O83 O 0.38547 0.70473 0.06855 0.0
C84 C 0.23031 0.63405 0.10559 0.0
O85 O 0.39194 0.60816 0.07118 0.0
O86 O 0.38333 0.63699 1.02976 0.0
C87 C 0.28737 0.64394 0.99927 0.0
Fe88 Fe 0.86679 0.44274 0.74088 0.0
Fe89 Fe 0.94826 0.42341 0.78359 0.0
O90 O 0.90485 0.46502 0.76784 0.0
Fe91 Fe 0.89974 0.52784 0.7793 0.0
O92 O 0.83279 0.52033 0.78705 0.0
O93 O 0.8109 0.48222 0.74928 0.0
O94 O 0.83954 0.39564 0.76247 0.0
C95 C 0.86482 0.36157 0.77372 0.0
C96 C 0.88609 0.53566 0.72082 0.0
O97 O 0.91154 0.36648 0.77749 0.0
C98 C 1.00282 0.51389 0.78295 0.0
O99 O 0.91531 0.39781 0.72796 0.0
O100 O 0.98255 0.41609 0.75197 0.0
O101 O 0.88508 0.55442 0.74476 0.0
O102 O 0.89119 0.48894 0.71756 0.0
C103 C 0.90612 0.46821 0.82797 0.0
O104 O 0.99332 0.47182 0.7935 0.0
O105 O 0.96753 0.53975 0.77256 0.0
C106 C 0.96271 0.39395 0.73197 0.0
O107 O 0.91585 0.428 0.81558 0.0
O108 O 0.91044 0.51078 0.81589 0.0
C109 C 0.79885 0.50452 0.77119 0.0
Fe110 Fe 0.83724 0.68844 0.53794 0.0
Fe111 Fe 0.73429 0.63815 0.52699 0.0
O112 O 0.799 0.6468 0.51862 0.0
Fe113 Fe 0.82742 0.61139 0.49225 0.0
O114 O 0.88948 0.60954 0.50767 0.0
O115 O 0.87757 0.63727 0.54892 0.0
O116 O 0.80356 0.68087 0.57032 0.0
C117 C 0.77981 0.64247 0.57819 0.0
C118 C 0.87337 0.7015 0.48377 0.0
O119 O 0.75064 0.62033 0.56184 0.0
C120 C 0.72803 0.62718 0.47149 0.0
O121 O 0.7991 0.74112 0.52818 0.0
O122 O 0.72461 0.70625 0.53576 0.0
O123 O 0.84498 0.66818 0.47333 0.0
O124 O 0.8785 0.7045 0.50931 0.0
C125 C 0.77101 0.5391 0.51892 0.0
O126 O 0.71295 0.65198 0.49205 0.0
O127 O 0.77034 0.6054 0.4718 0.0
C128 C 0.75216 0.7451 0.53157 0.0
O129 O 0.734 0.56941 0.52018 0.0
O130 O 0.81351 0.55328 0.51011 0.0
C131 C 0.90083 0.60959 0.53245 0.0
Fe132 Fe 0.6192 0.48624 0.27933 0.0
Fe133 Fe 0.65727 0.57213 0.24298 0.0
O134 O 0.61597 0.54959 0.26852 0.0
Fe135 Fe 0.57199 0.59165 0.28354 0.0
O136 O 0.60014 0.58435 0.31651 0.0
O137 O 0.60608 0.50167 0.31583 0.0
O138 O 0.68555 0.4923 0.28864 0.0
C139 C 0.72074 0.50724 0.27338 0.0
C140 C 0.51607 0.50166 0.28027 0.0
O141 O 0.71059 0.52988 0.25141 0.0
C142 C 0.56489 0.62535 0.23231 0.0
O143 O 0.63536 0.4613 0.24466 0.0
O144 O 0.63297 0.5284 0.21827 0.0
O145 O 0.52425 0.54401 0.29087 0.0
O146 O 0.55218 0.47545 0.27112 0.0
C147 C 0.6592 0.64992 0.27838 0.0
O148 O 0.61239 0.61999 0.22991 0.0
O149 O 0.54179 0.60232 0.25097 0.0
C150 C 0.6356 0.48126 0.22097 0.0
O151 O 0.68427 0.61638 0.26643 0.0
O152 O 0.61175 0.64737 0.27984 0.0
C153 C 0.60935 0.54365 0.32851 0.0
Fe154 Fe 0.67854 0.32345 1.03775 0.0
Fe155 Fe 0.78059 0.37522 1.02629 0.0
O156 O 0.71636 0.36443 1.01757 0.0
Fe157 Fe 0.68788 0.39636 0.9899 0.0
O158 O 0.62609 0.40001 1.00553 0.0
O159 O 0.63757 0.37496 0.04742 0.0
O160 O 0.71184 0.33365 0.07003 0.0
C161 C 0.73477 0.37292 0.07731 0.0
C162 C 0.64141 0.3058 0.98422 0.0
O163 O 0.76289 0.39518 0.06052 0.0
C164 C 0.78834 0.38105 0.97041 0.0
O165 O 0.71765 0.27042 1.02913 0.0
O166 O 0.79098 0.30782 1.03667 0.0
O167 O 0.67053 0.33746 0.97298 0.0
O168 O 0.63699 0.30477 1.00979 0.0
C169 C 0.74345 0.47352 1.01336 0.0
O170 O 0.80388 0.35947 0.99191 0.0
O171 O 0.74477 0.39996 0.96934 0.0
C172 C 0.76452 0.2679 1.03316 0.0
O173 O 0.77988 0.44356 1.01805 0.0
O174 O 0.7015 0.45723 1.00484 0.0
C175 C 0.61469 0.40171 1.03032 0.0
Fe176 Fe 0.61868 0.98124 0.8008 0.0
Fe177 Fe 0.67275 0.05782 0.83745 0.0
O178 O 0.62611 0.04358 0.81266 0.0
Fe179 Fe 0.58853 0.09293 0.7996 0.0
O180 O 0.61028 0.08275 0.76553 0.0
O181 O 0.60536 1.00004 0.76491 0.0
O182 O 0.68462 0.97885 0.79002 0.0
C183 C 0.72226 0.98691 0.80501 0.0
C184 C 0.51907 0.01276 0.80335 0.0
O185 O 0.71633 0.00681 0.82804 0.0
C186 C 0.59323 0.12631 0.85087 0.0
O187 O 0.63301 0.95289 0.83497 0.0
O188 O 0.64216 0.01851 0.86223 0.0
O189 O 0.53262 0.05485 0.79415 0.0
O190 O 0.55124 0.9797 0.81004 0.0
C191 C 0.68559 0.13302 0.80109 0.0
O192 O 0.63916 0.11294 0.85163 0.0
O193 O 0.56462 0.1071 0.8333 0.0
C194 C 0.6367 0.97174 0.85888 0.0
O195 O 0.70596 0.09694 0.81348 0.0
O196 O 0.63845 0.13968 0.80191 0.0
C197 C 0.61221 0.04198 0.75272 0.0
Fe198 Fe 0.67388 0.83276 0.04869 0.0
Fe199 Fe 0.78453 0.86839 0.05072 0.0
O200 O 0.72158 0.87174 0.06267 0.0
Fe201 Fe 0.70476 0.91597 0.08823 0.0
O202 O 0.66347 0.94791 0.06489 0.0
O203 O 0.62412 0.87921 0.05234 0.0
O204 O 0.68309 0.85795 1.01514 0.0
C205 C 0.72398 0.86273 1.00244 0.0
C206 C 0.64041 0.8317 0.10016 0.0
O207 O 0.76633 0.85746 1.01453 0.0
C208 C 0.793 0.88374 0.10917 0.0
O209 O 0.71498 0.77992 0.04152 0.0
O210 O 0.78956 0.8 0.05778 0.0
O211 O 0.65201 0.87796 0.10191 0.0
O212 O 0.66044 0.80529 0.08178 0.0
C213 C 0.77378 0.97167 0.05695 0.0
O214 O 0.81221 0.88136 0.08525 0.0
O215 O 0.74591 0.88674 0.1125 0.0
C216 C 0.75874 0.7673 0.0488 0.0
O217 O 0.7842 0.93518 0.04157 0.0
O218 O 0.75297 0.96361 0.0796 0.0
C219 C 0.62798 0.92645 0.05249 0.0
Fe220 Fe 0.88922 0.03644 0.3027 0.0
Fe221 Fe 0.85562 0.95627 0.34372 0.0
O222 O 0.89206 0.97385 0.31511 0.0
Fe223 Fe 0.93119 0.92823 0.29934 0.0
O224 O 0.89925 0.93483 0.26732 0.0
O225 O 0.89589 0.01769 0.26621 0.0
O226 O 0.82004 0.03264 0.29729 0.0
C227 C 0.78864 0.02112 0.31574 0.0
C228 C 0.99205 0.01559 0.29738 0.0
O229 O 0.80418 1.00073 0.33735 0.0
C230 C 0.94455 0.89671 0.35069 0.0
O231 O 0.87989 0.06514 0.33726 0.0
O232 O 0.8884 1.00073 0.36494 0.0
O233 O 0.98034 0.97225 0.2891 0.0
O234 O 0.95846 0.0448 0.30706 0.0
C235 C 0.84199 0.87516 0.31153 0.0
O236 O 0.89889 0.90705 0.35567 0.0
O237 O 0.96595 0.9173 0.33067 0.0
C238 C 0.88441 0.04751 0.36133 0.0
O239 O 0.8209 0.91104 0.3238 0.0
O240 O 0.88857 0.87599 0.30611 0.0
C241 C 0.8916 0.97497 0.25447 0.0
Fe242 Fe 0.72683 0.14088 0.55316 0.0
Fe243 Fe 0.82016 0.10253 0.58433 0.0
O244 O 0.79246 0.14379 0.56043 0.0
Fe245 Fe 0.83166 0.18668 0.54245 0.0
O246 O 0.79428 0.18705 0.51108 0.0
O247 O 0.74012 0.12683 0.51751 0.0
O248 O 0.72157 0.07139 0.55739 0.0
C249 C 0.75604 0.03811 0.55723 0.0
C250 C 0.75157 0.247 0.55264 0.0
O251 O 0.80013 0.04827 0.56503 0.0
C252 C 0.87365 0.18755 0.59553 0.0
O253 O 0.70913 0.15158 0.58891 0.0
O254 O 0.7646 0.09874 0.60626 0.0
O255 O 0.79776 0.23878 0.55646 0.0
O256 O 0.72154 0.21066 0.54698 0.0
C257 C 0.88816 0.10239 0.54113 0.0
O258 O 0.84399 0.15458 0.60508 0.0
O259 O 0.87697 0.19455 0.57018 0.0
C260 C 0.72413 0.12367 0.60828 0.0
O261 O 0.87976 0.09783 0.56625 0.0
O262 O 0.8676 0.13641 0.52743 0.0
C263 C 0.76934 0.15051 0.50181 0.0
Fe264 Fe 0.3662 0.94906 0.24013 0.0
Fe265 Fe 0.44122 0.93048 0.2863 0.0
O266 O 0.39857 0.97118 0.26918 0.0
Fe267 Fe 0.3885 0.03333 0.28098 0.0
O268 O 0.32004 0.02296 0.28551 0.0
O269 O 0.30918 0.98722 0.24581 0.0
O270 O 0.33636 0.90078 0.25993 0.0
C271 C 0.36002 0.86757 0.27293 0.0
C272 C 0.38664 0.04322 0.22241 0.0
O273 O 0.40596 0.87307 0.27892 0.0
C274 C 0.49236 0.02285 0.28739 0.0
O275 O 0.41658 0.90515 0.22925 0.0
O276 O 0.47974 0.92358 0.25599 0.0
O277 O 0.37833 0.06023 0.24626 0.0
O278 O 0.39362 0.99684 0.21857 0.0
C279 C 0.39289 0.9733 0.32968 0.0
O280 O 0.48396 0.98013 0.29749 0.0
O281 O 0.45655 0.0481 0.277 0.0
C282 C 0.463 0.90128 0.23526 0.0
O283 O 0.40554 0.93386 0.31735 0.0
O284 O 0.39495 0.01609 0.31777 0.0
C285 C 0.29076 0.00714 0.26703 0.0
Fe286 Fe 0.34168 0.19203 1.03345 0.0
Fe287 Fe 0.2356 0.14629 1.03038 0.0
O288 O 0.29826 0.15016 1.01808 0.0
Fe289 Fe 0.31856 0.11188 0.99076 0.0
O290 O 0.36583 0.08308 1.0117 0.0
O291 O 0.39733 0.15394 1.02675 0.0
O292 O 0.33705 0.1597 0.06549 0.0
C293 C 0.29688 0.1513 0.07839 0.0
C294 C 0.37011 0.20589 0.98149 0.0
O295 O 0.25397 0.15674 0.06676 0.0
C296 C 0.2253 0.13302 0.97201 0.0
O297 O 0.29464 0.23792 0.04376 0.0
O298 O 0.22447 0.21404 1.02401 0.0
O299 O 0.3646 0.15885 0.97747 0.0
O300 O 0.34935 0.22625 1.00181 0.0
C301 C 0.25706 0.04578 1.02184 0.0
O302 O 0.20741 0.13193 0.99617 0.0
O303 O 0.27205 0.13806 0.96825 0.0
C304 C 0.25171 0.24833 1.03437 0.0
O305 O 0.24283 0.07973 1.03802 0.0
O306 O 0.27766 0.05726 0.99939 0.0
C307 C 0.40072 0.10725 1.02302 0.0
Fe308 Fe 0.12411 0.97846 0.77977 0.0
Fe309 Fe 0.15712 0.07436 0.7497 0.0
O310 O 0.11787 0.04406 0.77371 0.0
Fe311 Fe 0.0739 0.07979 0.79309 0.0
O312 O 0.0789 0.04099 0.82391 0.0
O313 O 0.14199 0.99112 0.81506 0.0
O314 O 0.1925 0.9752 0.77255 0.0
C315 C 0.22543 0.00968 0.77334 0.0
C316 C 0.01767 0.99657 0.78316 0.0
O317 O 0.21383 0.05441 0.7676 0.0
C318 C 0.06904 0.1256 0.74083 0.0
O319 O 0.10945 0.96279 0.74419 0.0
O320 O 0.16007 0.02031 0.72655 0.0
O321 O 0.02203 0.04329 0.77978 0.0
O322 O 0.0562 0.9697 0.78854 0.0
C323 C 0.15597 0.14089 0.79378 0.0
O324 O 0.10328 0.09852 0.73035 0.0
O325 O 0.06149 0.12563 0.76619 0.0
C326 C 0.13505 0.97984 0.72429 0.0
O327 O 0.16152 0.13266 0.76873 0.0
O328 O 0.12308 0.11841 0.80756 0.0
C329 C 0.11823 0.01842 0.83177 0.0
Fe330 Fe 0.16421 0.82619 0.53373 0.0
Fe331 Fe 0.27282 0.86481 0.53083 0.0
O332 O 0.21034 0.8647 0.5181 0.0
Fe333 Fe 0.19295 0.90305 0.49018 0.0
O334 O 0.14604 0.9349 0.51006 0.0
O335 O 0.11067 0.86645 0.5257 0.0
O336 O 0.16964 0.86018 0.5653 0.0
C337 C 0.21012 0.8661 0.57833 0.0
C338 C 0.13845 0.81051 0.48142 0.0
O339 O 0.25269 0.8566 0.56707 0.0
C340 C 0.28578 0.87612 0.47257 0.0
O341 O 0.20833 0.77843 0.54521 0.0
O342 O 0.27971 0.79608 0.52504 0.0
O343 O 0.14564 0.8572 0.47675 0.0
O344 O 0.15619 0.79067 0.50266 0.0
C345 C 0.25698 0.96645 0.52156 0.0
O346 O 0.30286 0.87653 0.49684 0.0
O347 O 0.23906 0.87454 0.46824 0.0
C348 C 0.24915 0.76385 0.53475 0.0
O349 O 0.26961 0.93192 0.53781 0.0
O350 O 0.23592 0.95592 0.49908 0.0
C351 C 0.10918 0.91285 0.52072 0.0
H352 H 0.28079 0.48126 0.26456 0.0
H353 H 0.28868 0.48767 0.3521 0.0
H354 H 0.37989 0.48236 0.35032 0.0
H355 H 0.45831 0.48692 0.32432 0.0
H356 H 0.45432 0.47999 0.23713 0.0
H357 H 0.36167 0.47358 0.23829 0.0
C358 C 0.30244 0.48036 0.28321 0.0
C359 C 0.27737 0.48573 0.30842 0.0
C360 C 0.35598 0.47744 0.28215 0.0
C361 C 0.30646 0.48448 0.33235 0.0
C362 C 0.35894 0.48138 0.33143 0.0
C363 C 0.43721 0.48231 0.30561 0.0
C364 C 0.46313 0.48327 0.28072 0.0
C365 C 0.38419 0.47941 0.3065 0.0
C366 C 0.43531 0.47824 0.25658 0.0
C367 C 0.38222 0.47526 0.25727 0.0
H368 H 0.17894 0.69215 0.53186 0.0
H369 H 0.33976 0.71006 0.53999 0.0
H370 H 0.34819 0.61877 0.54829 0.0
H371 H 0.30737 0.53398 0.5568 0.0
H372 H 0.14513 0.52284 0.54957 0.0
H373 H 0.14003 0.61085 0.53765 0.0
C374 C 0.21614 0.67631 0.5353 0.0
C375 C 0.25859 0.7083 0.53555 0.0
C376 C 0.22032 0.62462 0.54061 0.0
C377 C 0.30639 0.68655 0.53957 0.0
C378 C 0.31105 0.63431 0.54457 0.0
C379 C 0.27105 0.55088 0.5525 0.0
C380 C 0.22659 0.52133 0.55466 0.0
C381 C 0.268 0.60293 0.54573 0.0
C382 C 0.17994 0.5442 0.54874 0.0
C383 C 0.17686 0.5948 0.54172 0.0
H384 H 0.23911 0.53506 0.76941 0.0
H385 H 0.2296 0.50383 0.8554 0.0
H386 H 0.13856 0.51054 0.85371 0.0
H387 H 0.06058 0.51582 0.82763 0.0
H388 H 0.06577 0.5466 0.74193 0.0
H389 H 0.15857 0.55075 0.74379 0.0
C390 C 0.21716 0.53051 0.78783 0.0
C391 C 0.24194 0.51816 0.81244 0.0
C392 C 0.16362 0.53442 0.78684 0.0
C393 C 0.21232 0.5126 0.83605 0.0
C394 C 0.15986 0.51655 0.83519 0.0
C395 C 0.08195 0.525 0.80948 0.0
C396 C 0.05616 0.53147 0.78475 0.0
C397 C 0.13503 0.5262 0.81067 0.0
C398 C 0.08449 0.54258 0.76135 0.0
C399 C 0.1377 0.54415 0.76238 0.0
H400 H 0.26923 0.30674 0.07748 0.0
H401 H 0.19992 0.31017 0.99848 0.0
H402 H 0.19482 0.40268 1.00097 0.0
H403 H 0.22098 0.48354 1.02369 0.0
H404 H 0.29632 0.4754 0.1012 0.0
H405 H 0.28838 0.38428 0.1012 0.0
C406 C 0.25195 0.32758 0.06098 0.0
C407 C 0.23499 0.30149 1.03783 0.0
C408 C 0.25117 0.38031 0.06214 0.0
C409 C 0.21266 0.32914 1.01669 0.0
C410 C 0.21046 0.38215 1.01799 0.0
C411 C 0.23483 0.46167 0.0407 0.0
C412 C 0.25966 0.48631 0.06237 0.0
C413 C 0.23122 0.40836 0.04028 0.0
C414 C 0.27769 0.45746 0.08418 0.0
C415 C 0.27304 0.40527 0.08424 0.0
H416 H 0.579 0.52358 0.82345 0.0
H417 H 0.53596 0.50302 0.73991 0.0
H418 H 0.62449 0.50403 0.72606 0.0
H419 H 0.71507 0.50247 0.73797 0.0
H420 H 0.75903 0.52375 0.82145 0.0
H421 H 0.67047 0.53065 0.83483 0.0
C422 C 0.58902 0.52121 0.80214 0.0
C423 C 0.55051 0.51435 0.78269 0.0
C424 C 0.64068 0.52072 0.79428 0.0
C425 C 0.56456 0.50944 0.75524 0.0
C426 C 0.61538 0.50937 0.74732 0.0
C427 C 0.70538 0.50902 0.75906 0.0
C428 C 0.74425 0.5122 0.7786 0.0
C429 C 0.65395 0.51355 0.7667 0.0
C430 C 0.73039 0.52114 0.80583 0.0
C431 C 0.67947 0.52506 0.81357 0.0
H432 H 0.80229 0.32689 0.57226 0.0
H433 H 0.67074 0.28961 0.52488 0.0
H434 H 0.66176 0.37859 0.51192 0.0
H435 H 0.69814 0.46598 0.50993 0.0
H436 H 0.83526 0.49694 0.55405 0.0
H437 H 0.83556 0.41167 0.57208 0.0
C438 C 0.77109 0.33802 0.55933 0.0
C439 C 0.73746 0.30117 0.54943 0.0
C440 C 0.76781 0.38836 0.55095 0.0
C441 C 0.69707 0.31691 0.53297 0.0
C442 C 0.69235 0.36781 0.52529 0.0
C443 C 0.72765 0.45394 0.5237 0.0
C444 C 0.76692 0.48765 0.5305 0.0
C445 C 0.7285 0.40372 0.53346 0.0
C446 C 0.80506 0.47159 0.54826 0.0
C447 C 0.80515 0.42286 0.55867 0.0
H448 H 0.80394 0.49951 0.2405 0.0
H449 H 0.75879 0.49575 0.32459 0.0
H450 H 0.84717 0.48939 0.33854 0.0
H451 H 0.93866 0.49302 0.32691 0.0
H452 H 0.98274 0.49503 0.24276 0.0
H453 H 0.89425 0.49283 0.22885 0.0
C454 C 0.81338 0.49679 0.26187 0.0
C455 C 0.77451 0.49857 0.28142 0.0
C456 C 0.86448 0.49241 0.26979 0.0
C457 C 0.78769 0.49444 0.30903 0.0
C458 C 0.8384 0.49089 0.31707 0.0
C459 C 0.92878 0.491 0.30558 0.0
C460 C 0.96737 0.493 0.28588 0.0
C461 C 0.87733 0.49063 0.29767 0.0
C462 C 0.95385 0.49226 0.25829 0.0
C463 C 0.90315 0.49169 0.25031 0.0
H464 H 0.80101 0.53078 0.04947 0.0
H465 H 0.69994 0.54253 0.98102 0.0
H466 H 0.70115 0.63352 0.98449 0.0
H467 H 0.72465 0.70941 1.00832 0.0
H468 H 0.82196 0.70297 0.07824 0.0
H469 H 0.82947 0.61097 0.07253 0.0
C470 C 0.7799 0.55342 1.03514 0.0
C471 C 0.75008 0.52938 1.01506 0.0
C472 C 0.77996 0.60681 1.03754 0.0
C473 C 0.72271 0.55953 0.99682 0.0
C474 C 0.72344 0.6118 0.99874 0.0
C475 C 0.748 0.68816 1.02232 0.0
C476 C 0.77237 0.71334 0.04384 0.0
C477 C 0.75097 0.63573 1.01927 0.0
C478 C 0.80296 0.68489 0.0614 0.0
C479 C 0.80681 0.63212 0.05824 0.0
H480 H 0.80411 0.95109 0.83248 0.0
H481 H 0.75708 0.00723 0.7544 0.0
H482 H 0.84507 0.01082 0.73939 0.0
H483 H 0.93599 0.00768 0.75059 0.0
H484 H 0.98314 0.94562 0.82726 0.0
H485 H 0.8948 0.93369 0.84058 0.0
C486 C 0.81319 0.963 0.81199 0.0
C487 C 0.77423 0.97918 0.79462 0.0
C488 C 0.86392 0.96405 0.8033 0.0
C489 C 0.78637 0.99431 0.76807 0.0
C490 C 0.83672 0.9967 0.75955 0.0
C491 C 0.92679 0.99013 0.76986 0.0
C492 C 0.96592 0.97742 0.78791 0.0
C493 C 0.8759 0.98295 0.77724 0.0
C494 C 0.95367 0.95503 0.81289 0.0
C495 C 0.90314 0.94875 0.82062 0.0
H496 H 0.80043 0.05563 0.08653 0.0
H497 H 0.76204 0.00705 1.00562 0.0
H498 H 0.76101 0.0944 0.99015 0.0
H499 H 0.76212 0.1854 1.0007 0.0
H500 H 0.80655 0.23474 0.0804 0.0
H501 H 0.81517 0.14694 0.0951 0.0
C502 C 0.79271 0.06419 0.06542 0.0
C503 C 0.78097 0.0246 0.04732 0.0
C504 C 0.79339 0.11485 0.05641 0.0
C505 C 0.77141 0.03649 1.01998 0.0
C506 C 0.77059 0.08659 1.01112 0.0
C507 C 0.77546 0.17687 1.021 0.0
C508 C 0.78438 0.21671 1.03931 0.0
C509 C 0.7805 0.12618 1.02924 0.0
C510 C 0.80062 0.20498 0.06572 0.0
C511 C 0.80482 0.15465 0.07423 0.0
H512 H 0.55212 0.02891 0.33142 0.0
H513 H 0.55343 0.05242 0.24506 0.0
H514 H 0.64621 0.05754 0.2456 0.0
H515 H 0.72827 0.04486 0.27058 0.0
H516 H 0.72236 0.02296 0.3575 0.0
H517 H 0.63133 0.02808 0.35668 0.0
C518 C 0.57262 0.03684 0.31282 0.0
C519 C 0.54568 0.041 0.28832 0.0
C520 C 0.62579 0.03905 0.3133 0.0
C521 C 0.573 0.05029 0.26432 0.0
C522 C 0.62625 0.05245 0.26461 0.0
C523 C 0.70711 0.04215 0.28936 0.0
C524 C 0.73304 0.03256 0.314 0.0
C525 C 0.65338 0.04535 0.28894 0.0
C526 C 0.70429 0.02937 0.33808 0.0
C527 C 0.65176 0.03242 0.33774 0.0
H528 H 0.78379 0.82633 0.50391 0.0
H529 H 0.67943 0.78213 0.56662 0.0
H530 H 0.66582 0.87103 0.57842 0.0
H531 H 0.6938 0.96113 0.57494 0.0
H532 H 0.80199 1.00142 0.51323 0.0
H533 H 0.80377 0.91484 0.49695 0.0
C534 C 0.75708 0.83614 0.51977 0.0
C535 C 0.7328 0.79752 0.53441 0.0
C536 C 0.7507 0.88695 0.52685 0.0
C537 C 0.69826 0.81098 0.55484 0.0
C538 C 0.69099 0.8619 0.5618 0.0
C539 C 0.71656 0.95096 0.55749 0.0
C540 C 0.74758 0.98766 0.54516 0.0
C541 C 0.71838 0.90023 0.54856 0.0
C542 C 0.7777 0.9739 0.52291 0.0
C543 C 0.77888 0.92433 0.51366 0.0
H544 H 0.05295 0.99317 0.25539 0.0
H545 H 0.05473 0.06763 0.33296 0.0
H546 H 0.14757 0.07334 0.33072 0.0
H547 H 0.22971 0.05009 0.30776 0.0
H548 H 0.2225 0.97555 0.22981 0.0
H549 H 0.13143 0.97688 0.2314 0.0
C550 C 0.07345 0.01156 0.27167 0.0
C551 C 0.04653 0.0301 0.29427 0.0
C552 C 0.12654 0.01398 0.27036 0.0
C553 C 0.07409 0.0537 0.31511 0.0
C554 C 0.1274 0.05635 0.31394 0.0
C555 C 0.20822 0.03453 0.29104 0.0
C556 C 0.23407 0.01235 0.26876 0.0
C557 C 0.15436 0.03552 0.29188 0.0
C558 C 0.20478 0.99266 0.24735 0.0
C559 C 0.15216 0.99338 0.24814 0.0
H560 H 0.22964 0.96253 0.9915 0.0
H561 H 0.27499 0.0083 0.07185 0.0
H562 H 0.27519 0.92076 0.08679 0.0
H563 H 0.26917 0.83036 0.07623 0.0
H564 H 0.2177 0.78325 0.99738 0.0
H565 H 0.21201 0.87146 0.98284 0.0
C566 C 0.23913 0.95322 1.01231 0.0
C567 C 0.25285 0.99206 1.03045 0.0
C568 C 0.23765 0.90242 1.02112 0.0
C569 C 0.26434 0.97935 0.05746 0.0
C570 C 0.26452 0.92918 0.06605 0.0
C571 C 0.25515 0.83952 0.05614 0.0
C572 C 0.24322 0.80023 1.03805 0.0
C573 C 0.2519 0.89032 0.04801 0.0
C574 C 0.22596 0.8127 1.01192 0.0
C575 C 0.22347 0.86321 1.00348 0.0
H576 H 0.4555 0.9445 0.77868 0.0
H577 H 0.45897 0.06981 0.83413 0.0
H578 H 0.3678 0.07947 0.83038 0.0
H579 H 0.28837 0.05906 0.80724 0.0
H580 H 0.28192 0.9321 0.75312 0.0
H581 H 0.37228 0.91625 0.76027 0.0
C582 C 0.43589 0.97252 0.79071 0.0
C583 C 0.46393 1.00605 0.80692 0.0
C584 C 0.38296 0.97845 0.78811 0.0
C585 C 0.43815 0.04315 0.82182 0.0
C586 C 0.38603 0.04912 0.81943 0.0
C587 C 0.30676 0.02768 0.79721 0.0
C588 C 0.27886 0.99728 0.77936 0.0
C589 C 0.3583 0.0182 0.80191 0.0
C590 C 0.30279 0.95616 0.76686 0.0
C591 C 0.35446 0.94713 0.77095 0.0
H592 H 0.25404 0.18092 0.57728 0.0
H593 H 0.29016 0.22954 0.49624 0.0
H594 H 0.29539 0.14158 0.48126 0.0
H595 H 0.27996 0.05027 0.49039 0.0
H596 H 0.24867 1.00323 0.57253 0.0
H597 H 0.25128 0.0904 0.5878 0.0
C598 C 0.26505 0.17218 0.55658 0.0
C599 C 0.27272 0.21183 0.53805 0.0
C600 C 0.26762 0.1215 0.54814 0.0
C601 C 0.28555 0.19986 0.51111 0.0
C602 C 0.28764 0.14945 0.50244 0.0
C603 C 0.27427 0.05917 0.51165 0.0
C604 C 0.26361 0.02 0.53021 0.0
C605 C 0.27715 0.10986 0.52059 0.0
C606 C 0.25696 0.03232 0.55777 0.0
C607 C 0.25838 0.08233 0.56657 0.0
H608 H 0.27197 0.66463 0.31661 0.0
H609 H 0.14851 0.71104 0.26509 0.0
H610 H 0.19667 0.78363 0.24998 0.0
H611 H 0.27052 0.83648 0.25382 0.0
H612 H 0.39401 0.79233 0.30583 0.0
H613 H 0.34896 0.71552 0.31822 0.0
C614 C 0.2559 0.69044 0.30192 0.0
C615 C 0.20669 0.68331 0.29234 0.0
C616 C 0.28345 0.73235 0.29354 0.0
C617 C 0.18617 0.71655 0.27313 0.0
C618 C 0.21359 0.7579 0.26441 0.0
C619 C 0.2877 0.81004 0.26782 0.0
C620 C 0.33497 0.8201 0.2792 0.0
C621 C 0.2617 0.76665 0.27497 0.0
C622 C 0.35728 0.78527 0.29696 0.0
C623 C 0.33164 0.74151 0.30407 0.0
H624 H 0.03532 0.44128 0.58254 0.0
H625 H 0.08275 0.42972 0.49876 0.0
H626 H 0.02854 0.50063 0.48693 0.0
H627 H 0.96922 0.56522 0.50051 0.0
H628 H 0.9194 0.57576 0.58389 0.0
H629 H 0.97587 0.50656 0.59622 0.0
C630 C 0.03354 0.45403 0.56163 0.0
C631 C 0.06258 0.4304 0.54146 0.0
C632 C 1.00327 0.49503 0.55516 0.0
C633 C 0.06002 0.44703 0.51449 0.0
C634 C 0.02968 0.48784 0.50782 0.0
C635 C 0.97089 0.55264 0.52147 0.0
C636 C 0.9403 0.57512 0.54132 0.0
C637 C 1.00159 0.51216 0.52805 0.0
C638 C 0.94314 0.55909 0.56839 0.0
C639 C 0.97475 0.51925 0.57531 0.0
H640 H 0.25631 0.33935 0.83322 0.0
H641 H 0.37946 0.27513 0.78709 0.0
H642 H 0.33207 0.19781 0.78118 0.0
H643 H 0.25338 0.15227 0.78491 0.0
H644 H 0.12822 0.21515 0.82928 0.0
H645 H 0.17942 0.28923 0.8409 0.0
C646 C 0.27276 0.30837 0.82195 0.0
C647 C 0.32082 0.31321 0.81017 0.0
C648 C 0.24526 0.264 0.81849 0.0
C649 C 0.34219 0.27255 0.79604 0.0
C650 C 0.3153 0.22826 0.79271 0.0
C651 C 0.23768 0.18201 0.79746 0.0
C652 C 0.18743 0.17951 0.80591 0.0
C653 C 0.26653 0.22419 0.80328 0.0
C654 C 0.16713 0.21705 0.8226 0.0
C655 C 0.19613 0.25933 0.82895 0.0
H656 H 0.55137 0.45009 0.99687 0.0
H657 H 0.58926 0.43127 0.08166 0.0
H658 H 0.529 0.49725 0.09372 0.0
H659 H 0.46834 0.56048 0.07989 0.0
H660 H 0.43034 0.57935 0.99514 0.0
H661 H 0.49087 0.51356 0.98302 0.0
C662 C 0.54642 0.46018 1.01805 0.0
C663 C 0.57454 0.43608 1.03843 0.0
C664 C 0.51304 0.49851 1.02464 0.0
C665 C 0.56753 0.44916 0.06572 0.0
C666 C 0.53366 0.4871 0.07255 0.0
C667 C 0.47331 0.55041 0.05871 0.0
C668 C 0.44502 0.57437 1.03836 0.0
C669 C 0.5068 0.51221 0.0521 0.0
C670 C 0.45217 0.56149 1.01105 0.0
C671 C 0.48619 0.52367 1.0042 0.0
H672 H 0.77632 0.32953 0.75392 0.0
H673 H 0.90118 0.28513 0.80489 0.0
H674 H 0.85872 0.20583 0.81531 0.0
H675 H 0.78278 0.15363 0.81311 0.0
H676 H 0.6574 0.20054 0.76316 0.0
H677 H 0.7042 0.27467 0.74869 0.0
C678 C 0.79429 0.30252 0.76731 0.0
C679 C 0.84107 0.3132 0.77909 0.0
C680 C 0.7698 0.25772 0.77327 0.0
C681 C 0.86468 0.27759 0.79586 0.0
C682 C 0.84057 0.23241 0.80178 0.0
C683 C 0.76614 0.17975 0.79875 0.0
C684 C 0.71668 0.17267 0.78958 0.0
C685 C 0.79266 0.22267 0.79104 0.0
C686 C 0.6953 0.2062 0.77083 0.0
C687 C 0.72188 0.24841 0.76257 0.0
H688 H 0.74083 0.8629 0.31032 0.0
H689 H 0.88216 0.78301 0.30253 0.0
H690 H 0.83714 0.70538 0.29315 0.0
H691 H 0.75866 0.66129 0.28534 0.0
H692 H 0.61668 0.7402 0.29167 0.0
H693 H 0.66122 0.8174 0.3039 0.0
C694 C 0.76157 0.82841 0.30671 0.0
C695 C 0.81441 0.82857 0.30679 0.0
C696 C 0.73562 0.78396 0.30112 0.0
C697 C 0.84124 0.78381 0.30213 0.0
C698 C 0.8157 0.73939 0.2969 0.0
C699 C 0.73746 0.69534 0.2894 0.0
C700 C 0.68485 0.69546 0.28739 0.0
C701 C 0.76302 0.73929 0.296 0.0
C702 C 0.65752 0.73947 0.29311 0.0
C703 C 0.68281 0.78356 0.29999 0.0
H704 H 0.6087 0.02439 0.06218 0.0
H705 H 0.55484 0.89409 1.01843 0.0
H706 H 0.4801 0.94018 1.00426 0.0
H707 H 0.42781 0.01454 1.00722 0.0
H708 H 0.48002 0.14459 0.05173 0.0
H709 H 0.55838 0.1011 0.06274 0.0
C710 C 0.58082 0.00632 0.04933 0.0
C711 C 0.58642 0.95595 0.04174 0.0
C712 C 0.53777 0.03259 0.04165 0.0
C713 C 0.55054 0.93281 1.02489 0.0
C714 C 0.50795 0.95899 1.01677 0.0
C715 C 0.45632 0.03341 1.01932 0.0
C716 C 0.4482 0.08217 1.02897 0.0
C717 C 0.50072 0.00839 1.02562 0.0
C718 C 0.48559 0.10668 0.04425 0.0
C719 C 0.53027 0.08199 0.05053 0.0
H720 H 0.08356 1.00164 0.49806 0.0
H721 H 0.02809 0.88282 0.55008 0.0
H722 H 0.95006 0.92918 0.55744 0.0
H723 H 0.90253 0.0066 0.55304 0.0
H724 H 0.95774 0.12697 0.50239 0.0
H725 H 0.03118 0.0759 0.48972 0.0
C726 C 0.05435 0.98594 0.51098 0.0
C727 C 0.06168 0.93965 0.52405 0.0
C728 C 0.00989 0.01271 0.51516 0.0
C729 C 0.02327 0.91885 0.54014 0.0
C730 C 0.97875 0.94515 0.5443 0.0
C731 C 0.93052 0.02129 0.539 0.0
C732 C 0.92624 0.07033 0.5291 0.0
C733 C 0.97242 0.99254 0.53248 0.0
C734 C 0.96121 0.08913 0.51033 0.0
C735 C 1.0031 0.06023 0.50332 0.0
H736 H 0.18151 0.50799 0.39976 0.0
H737 H 0.1018 0.37803 0.36986 0.0
H738 H 0.12499 0.33142 0.41132 0.0
H739 H 0.1667 0.32909 0.45714 0.0
H740 H 0.2497 0.45991 0.48394 0.0
H741 H 0.22663 0.50418 0.44268 0.0
C742 C 0.16867 0.46951 0.40225 0.0
C743 C 0.1388 0.44705 0.38181 0.0
C744 C 0.18319 0.44285 0.42568 0.0
C745 C 0.12421 0.39659 0.38527 0.0
C746 C 0.13761 0.36995 0.40902 0.0
C747 C 0.18028 0.36705 0.4538 0.0
C748 C 0.21028 0.39076 0.47396 0.0
C749 C 0.16701 0.39278 0.42952 0.0
C750 C 0.22713 0.44015 0.46903 0.0
C751 C 0.21363 0.46584 0.44538 0.0
H752 H 0.40192 0.37647 0.71742 0.0
H753 H 0.34121 0.52688 0.72144 0.0
H754 H 0.30261 0.51557 0.67673 0.0
H755 H 0.28095 0.4612 0.638 0.0
H756 H 0.34334 0.31189 0.63249 0.0
H757 H 0.38698 0.32469 0.67606 0.0
C758 C 0.38067 0.40705 0.70842 0.0
C759 C 0.37435 0.45257 0.72309 0.0
C760 C 0.35878 0.40035 0.68244 0.0
C761 C 0.347 0.49169 0.71081 0.0
C762 C 0.32466 0.48508 0.68523 0.0
C763 C 0.30455 0.4315 0.64616 0.0
C764 C 0.30845 0.38533 0.632 0.0
C765 C 0.32957 0.43934 0.67109 0.0
C766 C 0.33974 0.34771 0.64278 0.0
C767 C 0.36439 0.35501 0.66783 0.0
H768 H 0.33286 0.50629 0.89718 0.0
H769 H 0.41892 0.6353 0.87148 0.0
H770 H 0.39157 0.68115 0.91249 0.0
H771 H 0.34539 0.68258 0.95702 0.0
H772 H 0.25651 0.55303 0.9799 0.0
H773 H 0.28248 0.50987 0.93867 0.0
C774 C 0.34594 0.54448 0.9005 0.0
C775 C 0.37892 0.56688 0.88142 0.0
C776 C 0.32921 0.57067 0.9237 0.0
C777 C 0.39404 0.61689 0.88583 0.0
C778 C 0.37833 0.64304 0.90934 0.0
C779 C 0.33111 0.64518 0.95282 0.0
C780 C 0.29871 0.62139 0.9719 0.0
C781 C 0.34616 0.62015 0.92861 0.0
C782 C 0.28098 0.57276 0.96585 0.0
C783 C 0.29614 0.54773 0.94222 0.0
H784 H 0.22122 0.54696 0.13316 0.0
H785 H 0.16443 0.69885 0.13206 0.0
H786 H 0.12194 0.68384 0.17582 0.0
H787 H 0.108 0.62978 0.21624 0.0
H788 H 0.16545 0.47783 0.21673 0.0
H789 H 0.20045 0.49062 0.17121 0.0
C790 C 0.19899 0.57676 0.1423 0.0
C791 C 0.19639 0.62429 0.12934 0.0
C792 C 0.17517 0.56784 0.16746 0.0
C793 C 0.16691 0.66204 0.14137 0.0
C794 C 0.143 0.65345 0.16654 0.0
C795 C 0.12764 0.59908 0.20633 0.0
C796 C 0.13422 0.55273 0.22025 0.0
C797 C 0.1479 0.60686 0.18007 0.0
C798 C 0.15953 0.51364 0.20674 0.0
C799 C 0.17982 0.52111 0.1807 0.0
H800 H 0.83199 0.68285 0.62211 0.0
H801 H 0.75614 0.54796 0.59518 0.0
H802 H 0.78335 0.50418 0.63595 0.0
H803 H 0.83049 0.50218 0.67852 0.0
H804 H 0.90266 0.63646 0.70838 0.0
H805 H 0.8751 0.68224 0.66748 0.0
C806 C 0.82079 0.6441 0.62534 0.0
C807 C 0.79155 0.61912 0.6053 0.0
C808 C 0.83639 0.61873 0.64933 0.0
C809 C 0.77787 0.56871 0.61006 0.0
C810 C 0.79382 0.54332 0.63341 0.0
C811 C 0.84061 0.54148 0.67614 0.0
C812 C 0.86968 0.56545 0.69644 0.0
C813 C 0.82351 0.56767 0.653 0.0
C814 C 0.88088 0.61679 0.69311 0.0
C815 C 0.865 0.64296 0.66967 0.0
H816 H 0.59446 0.62098 0.36439 0.0
H817 H 0.66507 0.47527 0.35767 0.0
H818 H 0.70563 0.48791 0.40182 0.0
H819 H 0.72658 0.54298 0.44042 0.0
H820 H 0.65526 0.68805 0.44804 0.0
H821 H 0.60915 0.6729 0.40549 0.0
C822 C 0.61809 0.59151 0.37273 0.0
C823 C 0.6266 0.54702 0.35746 0.0
C824 C 0.64156 0.59923 0.39818 0.0
C825 C 0.65728 0.50948 0.36884 0.0
C826 C 0.68089 0.51698 0.39405 0.0
C827 C 0.70072 0.57135 0.43291 0.0
C828 C 0.69504 0.61711 0.44737 0.0
C829 C 0.6742 0.56212 0.40858 0.0
C830 C 0.66055 0.65273 0.43747 0.0
C831 C 0.63434 0.64404 0.41304 0.0
H832 H 0.68158 0.33403 0.12126 0.0
H833 H 0.76254 0.46617 0.09452 0.0
H834 H 0.73798 0.51028 0.13567 0.0
H835 H 0.69172 0.51347 0.17851 0.0
H836 H 0.61438 0.38177 0.20807 0.0
H837 H 0.63923 0.33564 0.16679 0.0
C838 C 0.69441 0.37225 0.12459 0.0
C839 C 0.7242 0.39641 0.10449 0.0
C840 C 0.6803 0.39783 0.14877 0.0
C841 C 0.74011 0.44612 0.1094 0.0
C842 C 0.72574 0.47169 0.13298 0.0
C843 C 0.67988 0.47469 0.17597 0.0
C844 C 0.65021 0.45153 0.19629 0.0
C845 C 0.69541 0.44824 0.15261 0.0
C846 C 0.63671 0.40079 0.19278 0.0
C847 C 0.65104 0.37442 0.16912 0.0
H848 H 0.92074 0.38949 0.86299 0.0
H849 H 0.85084 0.53579 0.85792 0.0
H850 H 0.81124 0.5222 0.90229 0.0
H851 H 0.79078 0.4662 0.94056 0.0
H852 H 0.86119 0.32049 0.94658 0.0
H853 H 0.90676 0.33658 0.90386 0.0
C854 C 0.89741 0.41883 0.87172 0.0
C855 C 0.88876 0.46378 0.85687 0.0
C856 C 0.87459 0.41061 0.89731 0.0
C857 C 0.8586 0.5012 0.86876 0.0
C858 C 0.8356 0.49319 0.89409 0.0
C859 C 0.81643 0.43796 0.93267 0.0
C860 C 0.82201 0.39174 0.94668 0.0
C861 C 0.84245 0.44766 0.90824 0.0
C862 C 0.85611 0.35618 0.93635 0.0
C863 C 0.88192 0.3654 0.91182 0.0
H864 H 0.72118 0.97497 0.88932 0.0
H865 H 0.57938 0.89685 0.88216 0.0
H866 H 0.59612 0.85277 0.92515 0.0
H867 H 0.64797 0.84245 0.96665 0.0
H868 H 0.79119 0.91878 0.97279 0.0
H869 H 0.77754 0.95696 0.92812 0.0
C870 C 0.69423 0.94775 0.89703 0.0
C871 C 0.6488 0.93944 0.88271 0.0
C872 C 0.70448 0.92235 0.92157 0.0
C873 C 0.6145 0.90381 0.89275 0.0
C874 C 0.62407 0.87884 0.91739 0.0
C875 C 0.6767 0.86671 0.95801 0.0
C876 C 0.72068 0.87772 0.97322 0.0
C877 C 0.66848 0.88858 0.93224 0.0
C878 C 0.75741 0.90914 0.96157 0.0
C879 C 0.74931 0.9314 0.93609 0.0
H880 H 0.7868 0.96853 0.13894 0.0
H881 H 0.86793 0.8285 0.13394 0.0
H882 H 0.90832 0.84636 0.17788 0.0
H883 H 0.91449 0.89858 0.21945 0.0
H884 H 0.8348 0.03982 0.22365 0.0
H885 H 0.80036 0.02513 0.17814 0.0
C886 C 0.81401 0.94229 0.1473 0.0
C887 C 0.82432 0.89708 0.13323 0.0
C888 C 0.83702 0.95302 0.17248 0.0
C889 C 0.85966 0.86355 0.14422 0.0
C890 C 0.88242 0.87372 0.16944 0.0
C891 C 0.8901 0.92657 0.21029 0.0
C892 C 0.87705 0.97029 0.22519 0.0
C893 C 0.87054 0.91783 0.18402 0.0
C894 C 0.84576 1.00615 0.21277 0.0
C895 C 0.82577 0.99751 0.18677 0.0
H896 H 0.83366 0.18858 0.46243 0.0
H897 H 0.73182 0.06521 0.47873 0.0
H898 H 0.75854 0.0239 0.4371 0.0
H899 H 0.81373 0.01956 0.39742 0.0
H900 H 0.9136 0.1426 0.3786 0.0
H901 H 0.88477 0.18723 0.41968 0.0
C902 C 0.81664 0.15308 0.45666 0.0
C903 C 0.78048 0.13031 0.474 0.0
C904 C 0.83234 0.12908 0.43235 0.0
C905 C 0.7593 0.08408 0.466 0.0
C906 C 0.77486 0.06009 0.44217 0.0
C907 C 0.82937 0.05619 0.40228 0.0
C908 C 0.86662 0.07727 0.38522 0.0
C909 C 0.81192 0.08172 0.42549 0.0
C910 C 0.88533 0.12532 0.39147 0.0
C911 C 0.86877 0.15076 0.41498 0.0
H912 H 0.71863 0.0378 0.6379 0.0
H913 H 0.65893 0.18854 0.63452 0.0
H914 H 0.61516 0.17453 0.67788 0.0
H915 H 0.59977 0.12164 0.71841 0.0
H916 H 0.65849 0.97038 0.72112 0.0
H917 H 0.6961 0.98214 0.67609 0.0
C918 C 0.6958 0.06764 0.64654 0.0
C919 C 0.69276 0.11461 0.63307 0.0
C920 C 0.67049 0.05906 0.67132 0.0
C921 C 0.66213 0.15226 0.64437 0.0
C922 C 0.63724 0.14421 0.66923 0.0
C923 C 0.62004 0.09082 0.70898 0.0
C924 C 0.62622 0.045 0.72332 0.0
C925 C 0.6419 0.09807 0.68311 0.0
C926 C 0.65254 1.00567 0.71061 0.0
C927 C 0.67453 0.01265 0.68493 0.0
H928 H 0.37722 0.1651 0.11225 0.0
H929 H 0.22848 0.09923 0.10988 0.0
H930 H 0.24222 0.06265 0.15501 0.0
H931 H 0.29938 0.04387 0.19376 0.0
H932 H 0.44762 0.11021 0.19592 0.0
H933 H 0.43129 0.15227 0.15238 0.0
C934 C 0.3474 0.14327 0.12168 0.0
C935 C 0.30171 0.13499 0.10744 0.0
C936 C 0.35573 0.1222 0.14763 0.0
C937 C 0.26371 0.1067 0.12025 0.0
C938 C 0.27178 0.08543 0.14605 0.0
C939 C 0.32773 0.06828 0.18485 0.0
C940 C 0.37463 0.07427 0.19811 0.0
C941 C 0.31796 0.09218 0.15973 0.0
C942 C 0.4112 0.10549 0.18628 0.0
C943 C 0.40186 0.12927 0.16131 0.0
H944 H 0.25787 0.07261 0.93169 0.0
H945 H 0.12455 0.15027 0.95908 0.0
H946 H 0.07845 0.11997 0.9188 0.0
H947 H 0.07773 0.07347 0.87449 0.0
H948 H 0.2118 0.99293 0.84995 0.0
H949 H 0.25543 0.02192 0.89043 0.0
C950 C 0.21871 0.08329 0.92889 0.0
C951 C 0.19511 0.11476 0.94822 0.0
C952 C 0.19239 0.06476 0.90615 0.0
C953 C 0.14391 0.12668 0.94449 0.0
C954 C 0.11758 0.10923 0.92142 0.0
C955 C 0.11622 0.06159 0.87821 0.0
C956 C 0.14111 0.03065 0.8589 0.0
C957 C 0.14155 0.07842 0.90194 0.0
C958 C 0.19118 0.0161 0.86425 0.0
C959 C 0.21648 0.03304 0.88742 0.0
H960 H 0.21849 0.97678 0.69227 0.0
H961 H 0.06801 0.91609 0.69862 0.0
H962 H 0.07889 0.87382 0.65461 0.0
H963 H 0.12978 0.85808 0.61315 0.0
H964 H 0.28158 0.91615 0.60816 0.0
H965 H 0.2717 0.95513 0.6529 0.0
C966 C 0.18798 0.95418 0.68411 0.0
C967 C 0.14207 0.95026 0.69868 0.0
C968 C 0.19487 0.92948 0.65901 0.0
C969 C 0.10355 0.91994 0.68794 0.0
C970 C 0.1098 0.89589 0.6627 0.0
C971 C 0.16099 0.87879 0.62196 0.0
C972 C 0.20652 0.88414 0.60709 0.0
C973 C 0.15508 0.90092 0.64788 0.0
C974 C 0.24643 0.91094 0.61905 0.0
C975 C 0.2406 0.93359 0.64461 0.0
H976 H 0.4176 0.89923 0.36584 0.0
H977 H 0.32741 0.03353 0.35828 0.0
H978 H 0.28882 0.01637 0.40261 0.0
H979 H 0.27538 0.95927 0.44168 0.0
H980 H 0.36723 0.82661 0.4502 0.0
H981 H 0.41078 0.84707 0.40744 0.0
C982 C 0.38999 0.92523 0.37402 0.0
C983 C 0.37533 0.9677 0.35849 0.0
C984 C 0.36805 0.91511 0.39964 0.0
C985 C 0.33975 1.00093 0.36967 0.0
C986 C 0.31738 0.99084 0.39499 0.0
C987 C 0.30551 0.93521 0.43434 0.0
C988 C 0.31797 0.89125 0.44907 0.0
C989 C 0.33045 0.94753 0.40987 0.0
C990 C 0.35713 0.86063 0.4394 0.0
C991 C 0.38177 0.87228 0.41485 0.0
H992 H 0.97919 0.66428 0.35887 0.0
H993 H 0.13445 0.71175 0.3522 0.0
H994 H 0.10928 0.79928 0.35611 0.0
H995 H 0.04196 0.8632 0.35467 0.0
H996 H 0.88736 0.81605 0.36542 0.0
H997 H 0.91352 0.7286 0.36729 0.0
C998 C 1.00749 0.69376 0.35899 0.0
C999 C 0.05843 0.6813 0.35494 0.0
C1000 C 0.99294 0.74452 0.36178 0.0
C1001 C 0.09484 0.72001 0.35535 0.0
C1002 C 0.08053 0.77036 0.35739 0.0
C1003 C 0.01424 0.83389 0.35823 0.0
C1004 C 0.96283 0.84644 0.35949 0.0
C1005 C 0.02952 0.78321 0.35966 0.0
C1006 C 0.92734 0.80785 0.36435 0.0
C1007 C 0.94215 0.75748 0.36518 0.0
H1008 H 0.0479 0.33295 0.61842 0.0
H1009 H 0.1317 0.19681 0.60448 0.0
H1010 H 0.05513 0.14683 0.61092 0.0
H1011 H 0.96234 0.14456 0.60824 0.0
H1012 H 0.87788 0.2819 0.61623 0.0
H1013 H 0.95577 0.32859 0.62513 0.0
C1014 C 0.04975 0.29218 0.61836 0.0
C1015 C 0.09551 0.26847 0.61144 0.0
C1016 C 1.00479 0.26398 0.6204 0.0
C1017 C 0.09717 0.21574 0.61035 0.0
C1018 C 0.05312 0.18724 0.61359 0.0
C1019 C 0.96093 0.18421 0.61342 0.0
C1020 C 0.91443 0.20968 0.61209 0.0
C1021 C 1.00628 0.21119 0.61691 0.0
C1022 C 0.91309 0.26138 0.61777 0.0
C1023 C 0.9578 0.28818 0.62243 0.0
H1024 H 0.55621 0.3572 0.84882 0.0
H1025 H 0.40708 0.30892 0.87269 0.0
H1026 H 0.43776 0.22386 0.87989 0.0
H1027 H 0.50328 0.15995 0.87082 0.0
H1028 H 0.65376 0.20867 0.85024 0.0
H1029 H 0.62651 0.29616 0.85082 0.0
C1030 C 0.53082 0.32841 0.85638 0.0
C1031 C 0.47926 0.33948 0.85962 0.0
C1032 C 0.54876 0.27915 0.86074 0.0
C1033 C 0.44696 0.30174 0.86981 0.0
C1034 C 0.46435 0.2527 0.87376 0.0
C1035 C 0.53043 0.18988 0.86747 0.0
C1036 C 0.58023 0.17769 0.86022 0.0
C1037 C 0.51463 0.24045 0.86803 0.0
C1038 C 0.61515 0.21688 0.85598 0.0
C1039 C 0.59949 0.26709 0.85601 0.0
H1040 H 0.60709 0.73704 0.11392 0.0
H1041 H 0.55871 0.89161 0.10795 0.0
H1042 H 0.47097 0.8656 0.11091 0.0
H1043 H 0.40817 0.79774 0.10552 0.0
H1044 H 0.45496 0.64368 0.11456 0.0
H1045 H 0.54243 0.67051 0.12085 0.0
C1046 C 0.57739 0.76508 0.11423 0.0
C1047 C 0.58976 0.81611 0.11028 0.0
C1048 C 0.52641 0.74993 0.11629 0.0
C1049 C 0.55067 0.85204 0.11093 0.0
C1050 C 0.50016 0.83719 0.11241 0.0
C1051 C 0.43716 0.77034 0.11031 0.0
C1052 C 0.42512 0.71889 0.1097 0.0
C1053 C 0.48752 0.7861 0.1138 0.0
C1054 C 0.46317 0.68358 0.11538 0.0
C1055 C 0.51342 0.6989 0.11853 0.0
H1056 H 0.11184 0.2133 0.72575 0.0
H1057 H 0.97131 0.13219 0.72503 0.0
H1058 H 0.92534 0.2102 0.71578 0.0
H1059 H 0.92397 0.30267 0.71776 0.0
H1060 H 0.06413 0.38431 0.72382 0.0
H1061 H 0.11136 0.30559 0.72041 0.0
C1062 C 0.07143 0.21253 0.72222 0.0
C1063 C 0.04505 0.16693 0.72544 0.0
C1064 C 0.04505 0.25809 0.71841 0.0
C1065 C 0.99247 0.16662 0.72197 0.0
C1066 C 0.96615 0.21141 0.71706 0.0
C1067 C 0.96488 0.30348 0.71722 0.0
C1068 C 0.99043 0.34953 0.72108 0.0
C1069 C 0.99179 0.25769 0.71661 0.0
C1070 C 0.04351 0.34954 0.72086 0.0
C1071 C 0.07055 0.30439 0.71914 0.0
H1072 H 0.96085 0.66068 0.4674 0.0
H1073 H 0.87747 0.79943 0.4683 0.0
H1074 H 0.95548 0.84699 0.461 0.0
H1075 H 0.0482 0.84949 0.46544 0.0
H1076 H 0.13123 0.71046 0.47052 0.0
H1077 H 0.05341 0.66269 0.46385 0.0
C1078 C 0.95959 0.70113 0.4645 0.0
C1079 C 0.91335 0.72648 0.46775 0.0
C1080 C 1.0051 0.72829 0.46209 0.0
C1081 C 0.91239 0.77905 0.46514 0.0
C1082 C 0.95721 0.80628 0.46144 0.0
C1083 C 0.04954 0.80881 0.46388 0.0
C1084 C 0.0956 0.78358 0.46842 0.0
C1085 C 1.00405 0.78147 0.46145 0.0
C1086 C 0.0964 0.73077 0.46699 0.0
C1087 C 0.05176 0.70342 0.46341 0.0
H1088 H 0.609 0.7168 0.22661 0.0
H1089 H 0.46688 0.6399 0.21694 0.0
H1090 H 0.4238 0.72073 0.21136 0.0
H1091 H 0.42466 0.8125 0.21715 0.0
H1092 H 0.5654 0.88867 0.23287 0.0
H1093 H 0.611 0.80918 0.22781 0.0
C1094 C 0.56886 0.71762 0.22233 0.0
C1095 C 0.54121 0.67223 0.22192 0.0
C1096 C 0.544 0.76435 0.22067 0.0
C1097 C 0.48901 0.67417 0.21711 0.0
C1098 C 0.46436 0.72045 0.21414 0.0
C1099 C 0.4655 0.81212 0.21856 0.0
C1100 C 0.49159 0.85675 0.22527 0.0
C1101 C 0.49115 0.76579 0.217 0.0
C1102 C 0.54443 0.85507 0.2276 0.0
C1103 C 0.57046 0.8095 0.22489 0.0
H1104 H 0.45975 0.16471 0.96581 0.0
H1105 H 0.382 0.30657 0.97265 0.0
H1106 H 0.46177 0.35152 0.96669 0.0
H1107 H 0.55448 0.34986 0.9696 0.0
H1108 H 0.63246 0.20799 0.96873 0.0
H1109 H 0.55243 0.16373 0.96155 0.0
C1110 C 0.45994 0.20547 0.96493 0.0
C1111 C 0.41474 0.23222 0.9697 0.0
C1112 C 0.50647 0.23108 0.96285 0.0
C1113 C 0.41606 0.28506 0.96902 0.0
C1114 C 0.46182 0.31079 0.9658 0.0
C1115 C 0.55409 0.30946 0.96645 0.0
C1116 C 0.59946 0.28226 0.96904 0.0
C1117 C 0.5075 0.28419 0.96407 0.0
C1118 C 0.59828 0.22978 0.96607 0.0
C1119 C 0.55232 0.20446 0.96242 0.0
loop_
_geom_bond_atom_site_label_1
_geom_bond_atom_site_label_2
_geom_bond_distance
_geom_bond_site_symmetry_2
_ccdc_geom_bond_type
Fe0 O2 1.918 . S
Fe0 O5 1.997 . S
Fe0 O6 2.002 . S
Fe0 O11 1.976 . S
Fe0 O14 1.996 . S
Fe1 O2 1.918 . S
Fe1 O9 1.997 . S
Fe1 O12 1.996 . S
Fe1 O16 1.976 . S
Fe1 O19 2.002 . S
O2 Fe0 1.918 . S
O2 Fe1 1.918 . S
O2 Fe3 1.918 . S
Fe3 O2 1.918 . S
Fe3 O4 2.002 . S
Fe3 O13 1.976 . S
Fe3 O17 1.996 . S
Fe3 O20 1.997 . S
O4 Fe3 2.002 . S
O4 C21 1.295 . S
O5 Fe0 1.997 . S
O5 C21 1.235 . S
O6 Fe0 2.002 . S
O6 C7 1.295 . S
C7 O6 1.295 . S
C7 O9 1.235 . S
C8 O13 1.287 . S
C8 O14 1.255 . S
O9 Fe1 1.997 . S
O9 C7 1.235 . S
C10 O16 1.287 . S
C10 O17 1.255 . S
O11 Fe0 1.976 . S
O11 C18 1.287 . S
O12 Fe1 1.996 . S
O12 C18 1.255 . S
O13 Fe3 1.976 . S
O13 C8 1.287 . S
O14 Fe0 1.996 . S
O14 C8 1.255 . S
C15 O19 1.295 . S
C15 O20 1.235 . S
O16 Fe1 1.976 . S
O16 C10 1.287 . S
O17 Fe3 1.996 . S
O17 C10 1.255 . S
C18 O11 1.287 . S
C18 O12 1.255 . S
O19 Fe1 2.002 . S
O19 C15 1.295 . S
O20 Fe3 1.997 . S
O20 C15 1.235 . S
C21 O4 1.295 . S
C21 O5 1.235 . S
Fe22 O24 1.918 . S
Fe22 O27 1.997 . S
Fe22 O28 2.002 . S
Fe22 O33 1.976 . S
Fe22 O36 1.996 . S
Fe23 O24 1.918 . S
Fe23 O31 1.997 . S
Fe23 O34 1.996 . S
Fe23 O38 1.976 . S
Fe23 O41 2.002 . S
O24 Fe22 1.918 . S
O24 Fe23 1.918 . S
O24 Fe25 1.918 . S
Fe25 O24 1.918 . S
Fe25 O26 2.002 . S
Fe25 O35 1.976 . S
Fe25 O39 1.996 . S
Fe25 O42 1.997 . S
O26 Fe25 2.002 . S
O26 C43 1.295 . S
O27 Fe22 1.997 . S
O27 C43 1.235 . S
O28 Fe22 2.002 . S
O28 C29 1.295 . S
C29 O28 1.295 . S
C29 O31 1.235 . S
C30 O35 1.287 . S
C30 O36 1.255 . S
O31 Fe23 1.997 . S
O31 C29 1.235 . S
C32 O38 1.287 . S
C32 O39 1.255 . S
O33 Fe22 1.976 . S
O33 C40 1.287 . S
O34 Fe23 1.996 . S
O34 C40 1.255 . S
O35 Fe25 1.976 . S
O35 C30 1.287 . S
O36 Fe22 1.996 . S
O36 C30 1.255 . S
C37 O41 1.295 . S
C37 O42 1.235 . S
O38 Fe23 1.976 . S
O38 C32 1.287 . S
O39 Fe25 1.996 . S
O39 C32 1.255 . S
C40 O33 1.287 . S
C40 O34 1.255 . S
O41 Fe23 2.002 . S
O41 C37 1.295 . S
O42 Fe25 1.997 . S
O42 C37 1.235 . S
C43 O26 1.295 . S
C43 O27 1.235 . S
Fe44 O46 1.918 . S
Fe44 O49 1.997 . S
Fe44 O50 2.002 . S
Fe44 O55 1.976 . S
Fe44 O58 1.996 . S
Fe45 O46 1.918 . S
Fe45 O53 1.997 . S
Fe45 O56 1.996 . S
Fe45 O60 1.976 . S
Fe45 O63 2.002 . S
O46 Fe44 1.918 . S
O46 Fe45 1.918 . S
O46 Fe47 1.918 . S
Fe47 O46 1.918 . S
Fe47 O48 2.002 . S
Fe47 O57 1.976 . S
Fe47 O61 1.996 . S
Fe47 O64 1.997 . S
O48 Fe47 2.002 . S
O48 C65 1.295 . S
O49 Fe44 1.997 . S
O49 C65 1.235 . S
O50 Fe44 2.002 . S
O50 C51 1.295 . S
C51 O50 1.295 . S
C51 O53 1.235 . S
C52 O57 1.287 . S
C52 O58 1.255 . S
O53 Fe45 1.997 . S
O53 C51 1.235 . S
C54 O60 1.287 . S
C54 O61 1.255 . S
O55 Fe44 1.976 . S
O55 C62 1.287 . S
O56 Fe45 1.996 . S
O56 C62 1.255 . S
O57 Fe47 1.976 . S
O57 C52 1.287 . S
O58 Fe44 1.996 . S
O58 C52 1.255 . S
C59 O63 1.295 . S
C59 O64 1.235 . S
O60 Fe45 1.976 . S
O60 C54 1.287 . S
O61 Fe47 1.996 . S
O61 C54 1.255 . S
C62 O55 1.287 . S
C62 O56 1.255 . S
O63 Fe45 2.002 . S
O63 C59 1.295 . S
O64 Fe47 1.997 . S
O64 C59 1.235 . S
C65 O48 1.295 . S
C65 O49 1.235 . S
Fe66 O68 1.918 . S
Fe66 O71 1.997 1_554 S
Fe66 O72 2.002 . S
Fe66 O77 1.976 . S
Fe66 O80 1.996 . S
Fe67 O68 1.918 . S
Fe67 O75 1.997 . S
Fe67 O78 1.996 . S
Fe67 O82 1.976 . S
Fe67 O85 2.002 . S
O68 Fe66 1.918 . S
O68 Fe67 1.918 . S
O68 Fe69 1.918 1_554 S
Fe69 O68 1.918 1_556 S
Fe69 O70 2.002 . S
Fe69 O79 1.976 . S
Fe69 O83 1.996 1_556 S
Fe69 O86 1.997 . S
O70 Fe69 2.002 . S
O70 C87 1.295 . S
O71 Fe66 1.997 1_556 S
O71 C87 1.235 . S
O72 Fe66 2.002 . S
O72 C73 1.295 . S
C73 O72 1.295 . S
C73 O75 1.235 . S
C74 O79 1.287 . S
C74 O80 1.255 1_556 S
O75 Fe67 1.997 . S
O75 C73 1.235 . S
C76 O82 1.287 . S
C76 O83 1.255 . S
O77 Fe66 1.976 . S
O77 C84 1.287 . S
O78 Fe67 1.996 . S
O78 C84 1.255 . S
O79 Fe69 1.976 . S
O79 C74 1.287 . S
O80 Fe66 1.996 . S
O80 C74 1.255 1_554 S
C81 O85 1.295 1_556 S
C81 O86 1.235 . S
O82 Fe67 1.976 . S
O82 C76 1.287 . S
O83 Fe69 1.996 1_554 S
O83 C76 1.255 . S
C84 O77 1.287 . S
C84 O78 1.255 . S
O85 Fe67 2.002 . S
O85 C81 1.295 1_554 S
O86 Fe69 1.997 . S
O86 C81 1.235 . S
C87 O70 1.295 . S
C87 O71 1.235 . S
Fe88 O90 1.918 . S
Fe88 O93 1.997 . S
Fe88 O94 2.002 . S
Fe88 O99 1.976 . S
Fe88 O102 1.996 . S
Fe89 O90 1.918 . S
Fe89 O97 1.997 . S
Fe89 O100 1.996 . S
Fe89 O104 1.976 . S
Fe89 O107 2.002 . S
O90 Fe88 1.918 . S
O90 Fe89 1.918 . S
O90 Fe91 1.918 . S
Fe91 O90 1.918 . S
Fe91 O92 2.002 . S
Fe91 O101 1.976 . S
Fe91 O105 1.996 . S
Fe91 O108 1.997 . S
O92 Fe91 2.002 . S
O92 C109 1.295 . S
O93 Fe88 1.997 . S
O93 C109 1.235 . S
O94 Fe88 2.002 . S
O94 C95 1.295 . S
C95 O94 1.295 . S
C95 O97 1.235 . S
C96 O101 1.287 . S
C96 O102 1.255 . S
O97 Fe89 1.997 . S
O97 C95 1.235 . S
C98 O104 1.287 . S
C98 O105 1.255 . S
O99 Fe88 1.976 . S
O99 C106 1.287 . S
O100 Fe89 1.996 . S
O100 C106 1.255 . S
O101 Fe91 1.976 . S
O101 C96 1.287 . S
O102 Fe88 1.996 . S
O102 C96 1.255 . S
C103 O107 1.295 . S
C103 O108 1.235 . S
O104 Fe89 1.976 . S
O104 C98 1.287 . S
O105 Fe91 1.996 . S
O105 C98 1.255 . S
C106 O99 1.287 . S
C106 O100 1.255 . S
O107 Fe89 2.002 . S
O107 C103 1.295 . S
O108 Fe91 1.997 . S
O108 C103 1.235 . S
C109 O92 1.295 . S
C109 O93 1.235 . S
Fe110 O112 1.918 . S
Fe110 O115 1.997 . S
Fe110 O116 2.002 . S
Fe110 O121 1.976 . S
Fe110 O124 1.996 . S
Fe111 O112 1.918 . S
Fe111 O119 1.997 . S
Fe111 O122 1.996 . S
Fe111 O126 1.976 . S
Fe111 O129 2.002 . S
O112 Fe110 1.918 . S
O112 Fe111 1.918 . S
O112 Fe113 1.918 . S
Fe113 O112 1.918 . S
Fe113 O114 2.002 . S
Fe113 O123 1.976 . S
Fe113 O127 1.996 . S
Fe113 O130 1.997 . S
O114 Fe113 2.002 . S
O114 C131 1.295 . S
O115 Fe110 1.997 . S
O115 C131 1.235 . S
O116 Fe110 2.002 . S
O116 C117 1.295 . S
C117 O116 1.295 . S
C117 O119 1.235 . S
C118 O123 1.287 . S
C118 O124 1.255 . S
O119 Fe111 1.997 . S
O119 C117 1.235 . S
C120 O126 1.287 . S
C120 O127 1.255 . S
O121 Fe110 1.976 . S
O121 C128 1.287 . S
O122 Fe111 1.996 . S
O122 C128 1.255 . S
O123 Fe113 1.976 . S
O123 C118 1.287 . S
O124 Fe110 1.996 . S
O124 C118 1.255 . S
C125 O129 1.295 . S
C125 O130 1.235 . S
O126 Fe111 1.976 . S
O126 C120 1.287 . S
O127 Fe113 1.996 . S
O127 C120 1.255 . S
C128 O121 1.287 . S
C128 O122 1.255 . S
O129 Fe111 2.002 . S
O129 C125 1.295 . S
O130 Fe113 1.997 . S
O130 C125 1.235 . S
C131 O114 1.295 . S
C131 O115 1.235 . S
Fe132 O134 1.918 . S
Fe132 O137 1.997 . S
Fe132 O138 2.002 . S
Fe132 O143 1.976 . S
Fe132 O146 1.996 . S
Fe133 O134 1.918 . S
Fe133 O141 1.997 . S
Fe133 O144 1.996 . S
Fe133 O148 1.976 . S
Fe133 O151 2.002 . S
O134 Fe132 1.918 . S
O134 Fe133 1.918 . S
O134 Fe135 1.918 . S
Fe135 O134 1.918 . S
Fe135 O136 2.002 . S
Fe135 O145 1.976 . S
Fe135 O149 1.996 . S
Fe135 O152 1.997 . S
O136 Fe135 2.002 . S
O136 C153 1.295 . S
O137 Fe132 1.997 . S
O137 C153 1.235 . S
O138 Fe132 2.002 . S
O138 C139 1.295 . S
C139 O138 1.295 . S
C139 O141 1.235 . S
C140 O145 1.287 . S
C140 O146 1.255 . S
O141 Fe133 1.997 . S
O141 C139 1.235 . S
C142 O148 1.287 . S
C142 O149 1.255 . S
O143 Fe132 1.976 . S
O143 C150 1.287 . S
O144 Fe133 1.996 . S
O144 C150 1.255 . S
O145 Fe135 1.976 . S
O145 C140 1.287 . S
O146 Fe132 1.996 . S
O146 C140 1.255 . S
C147 O151 1.295 . S
C147 O152 1.235 . S
O148 Fe133 1.976 . S
O148 C142 1.287 . S
O149 Fe135 1.996 . S
O149 C142 1.255 . S
C150 O143 1.287 . S
C150 O144 1.255 . S
O151 Fe133 2.002 . S
O151 C147 1.295 . S
O152 Fe135 1.997 . S
O152 C147 1.235 . S
C153 O136 1.295 . S
C153 O137 1.235 . S
Fe154 O156 1.918 1_554 S
Fe154 O159 1.997 . S
Fe154 O160 2.002 . S
Fe154 O165 1.976 . S
Fe154 O168 1.996 1_554 S
Fe155 O156 1.918 . S
Fe155 O163 1.997 1_556 S
Fe155 O166 1.996 . S
Fe155 O170 1.976 . S
Fe155 O173 2.002 . S
O156 Fe154 1.918 1_556 S
O156 Fe155 1.918 . S
O156 Fe157 1.918 . S
Fe157 O156 1.918 . S
Fe157 O158 2.002 . S
Fe157 O167 1.976 . S
Fe157 O171 1.996 . S
Fe157 O174 1.997 . S
O158 Fe157 2.002 . S
O158 C175 1.295 1_556 S
O159 Fe154 1.997 . S
O159 C175 1.235 . S
O160 Fe154 2.002 . S
O160 C161 1.295 . S
C161 O160 1.295 . S
C161 O163 1.235 . S
C162 O167 1.287 . S
C162 O168 1.255 . S
O163 Fe155 1.997 1_554 S
O163 C161 1.235 . S
C164 O170 1.287 . S
C164 O171 1.255 . S
O165 Fe154 1.976 . S
O165 C172 1.287 . S
O166 Fe155 1.996 . S
O166 C172 1.255 1_556 S
O167 Fe157 1.976 . S
O167 C162 1.287 . S
O168 Fe154 1.996 1_556 S
O168 C162 1.255 . S
C169 O173 1.295 . S
C169 O174 1.235 . S
O170 Fe155 1.976 . S
O170 C164 1.287 . S
O171 Fe157 1.996 . S
O171 C164 1.255 . S
C172 O165 1.287 . S
C172 O166 1.255 1_554 S
O173 Fe155 2.002 . S
O173 C169 1.295 . S
O174 Fe157 1.997 . S
O174 C169 1.235 . S
C175 O158 1.295 1_554 S
C175 O159 1.235 . S
Fe176 O178 1.918 1_565 S
Fe176 O181 1.997 . S
Fe176 O182 2.002 . S
Fe176 O187 1.976 . S
Fe176 O190 1.996 . S
Fe177 O178 1.918 . S
Fe177 O185 1.997 . S
Fe177 O188 1.996 . S
Fe177 O192 1.976 . S
Fe177 O195 2.002 . S
O178 Fe176 1.918 1_545 S
O178 Fe177 1.918 . S
O178 Fe179 1.918 . S
Fe179 O178 1.918 . S
Fe179 O180 2.002 . S
Fe179 O189 1.976 . S
Fe179 O193 1.996 . S
Fe179 O196 1.997 . S
O180 Fe179 2.002 . S
O180 C197 1.295 . S
O181 Fe176 1.997 . S
O181 C197 1.235 1_565 S
O182 Fe176 2.002 . S
O182 C183 1.295 1_565 S
C183 O182 1.295 1_545 S
C183 O185 1.235 . S
C184 O189 1.287 1_565 S
C184 O190 1.255 . S
O185 Fe177 1.997 . S
O185 C183 1.235 . S
C186 O192 1.287 . S
C186 O193 1.255 . S
O187 Fe176 1.976 . S
O187 C194 1.287 . S
O188 Fe177 1.996 . S
O188 C194 1.255 1_545 S
O189 Fe179 1.976 . S
O189 C184 1.287 1_545 S
O190 Fe176 1.996 . S
O190 C184 1.255 . S
C191 O195 1.295 . S
C191 O196 1.235 . S
O192 Fe177 1.976 . S
O192 C186 1.287 . S
O193 Fe179 1.996 . S
O193 C186 1.255 . S
C194 O187 1.287 . S
C194 O188 1.255 1_565 S
O195 Fe177 2.002 . S
O195 C191 1.295 . S
O196 Fe179 1.997 . S
O196 C191 1.235 . S
C197 O180 1.295 . S
C197 O181 1.235 1_545 S
Fe198 O200 1.918 1_556 S
Fe198 O203 1.997 . S
Fe198 O204 2.002 . S
Fe198 O209 1.976 . S
Fe198 O212 1.996 1_556 S
Fe199 O200 1.918 . S
Fe199 O207 1.997 1_554 S
Fe199 O210 1.996 . S
Fe199 O214 1.976 . S
Fe199 O217 2.002 . S
O200 Fe198 1.918 1_554 S
O200 Fe199 1.918 . S
O200 Fe201 1.918 . S
Fe201 O200 1.918 . S
Fe201 O202 2.002 . S
Fe201 O211 1.976 . S
Fe201 O215 1.996 . S
Fe201 O218 1.997 1_565 S
O202 Fe201 2.002 . S
O202 C219 1.295 1_554 S
O203 Fe198 1.997 . S
O203 C219 1.235 . S
O204 Fe198 2.002 . S
O204 C205 1.295 . S
C205 O204 1.295 . S
C205 O207 1.235 . S
C206 O211 1.287 . S
C206 O212 1.255 . S
O207 Fe199 1.997 1_556 S
O207 C205 1.235 . S
C208 O214 1.287 . S
C208 O215 1.255 . S
O209 Fe198 1.976 . S
O209 C216 1.287 . S
O210 Fe199 1.996 . S
O210 C216 1.255 1_554 S
O211 Fe201 1.976 . S
O211 C206 1.287 . S
O212 Fe198 1.996 1_554 S
O212 C206 1.255 . S
C213 O217 1.295 1_545 S
C213 O218 1.235 . S
O214 Fe199 1.976 . S
O214 C208 1.287 . S
O215 Fe201 1.996 . S
O215 C208 1.255 . S
C216 O209 1.287 . S
C216 O210 1.255 1_556 S
O217 Fe199 2.002 . S
O217 C213 1.295 1_565 S
O218 Fe201 1.997 1_545 S
O218 C213 1.235 . S
C219 O202 1.295 1_556 S
C219 O203 1.235 . S
Fe220 O222 1.918 1_545 S
Fe220 O225 1.997 . S
Fe220 O226 2.002 . S
Fe220 O231 1.976 . S
Fe220 O234 1.996 . S
Fe221 O222 1.918 . S
Fe221 O229 1.997 . S
Fe221 O232 1.996 . S
Fe221 O236 1.976 . S
Fe221 O239 2.002 . S
O222 Fe220 1.918 1_565 S
O222 Fe221 1.918 . S
O222 Fe223 1.918 . S
Fe223 O222 1.918 . S
Fe223 O224 2.002 . S
Fe223 O233 1.976 . S
Fe223 O237 1.996 . S
Fe223 O240 1.997 . S
O224 Fe223 2.002 . S
O224 C241 1.295 . S
O225 Fe220 1.997 . S
O225 C241 1.235 1_545 S
O226 Fe220 2.002 . S
O226 C227 1.295 1_545 S
C227 O226 1.295 1_565 S
C227 O229 1.235 . S
C228 O233 1.287 1_545 S
C228 O234 1.255 . S
O229 Fe221 1.997 . S
O229 C227 1.235 . S
C230 O236 1.287 . S
C230 O237 1.255 . S
O231 Fe220 1.976 . S
O231 C238 1.287 . S
O232 Fe221 1.996 . S
O232 C238 1.255 1_565 S
O233 Fe223 1.976 . S
O233 C228 1.287 1_565 S
O234 Fe220 1.996 . S
O234 C228 1.255 . S
C235 O239 1.295 . S
C235 O240 1.235 . S
O236 Fe221 1.976 . S
O236 C230 1.287 . S
O237 Fe223 1.996 . S
O237 C230 1.255 . S
C238 O231 1.287 . S
C238 O232 1.255 1_545 S
O239 Fe221 2.002 . S
O239 C235 1.295 . S
O240 Fe223 1.997 . S
O240 C235 1.235 . S
C241 O224 1.295 . S
C241 O225 1.235 1_565 S
Fe242 O244 1.918 . S
Fe242 O247 1.997 . S
Fe242 O248 2.002 . S
Fe242 O253 1.976 . S
Fe242 O256 1.996 . S
Fe243 O244 1.918 . S
Fe243 O251 1.997 1_545 S
Fe243 O254 1.996 . S
Fe243 O258 1.976 . S
Fe243 O261 2.002 . S
O244 Fe242 1.918 . S
O244 Fe243 1.918 . S
O244 Fe245 1.918 . S
Fe245 O244 1.918 . S
Fe245 O246 2.002 . S
Fe245 O255 1.976 . S
Fe245 O259 1.996 . S
Fe245 O262 1.997 . S
O246 Fe245 2.002 . S
O246 C263 1.295 . S
O247 Fe242 1.997 . S
O247 C263 1.235 . S
O248 Fe242 2.002 . S
O248 C249 1.295 1_545 S
C249 O248 1.295 1_565 S
C249 O251 1.235 . S
C250 O255 1.287 . S
C250 O256 1.255 . S
O251 Fe243 1.997 1_565 S
O251 C249 1.235 . S
C252 O258 1.287 . S
C252 O259 1.255 . S
O253 Fe242 1.976 . S
O253 C260 1.287 . S
O254 Fe243 1.996 . S
O254 C260 1.255 . S
O255 Fe245 1.976 . S
O255 C250 1.287 . S
O256 Fe242 1.996 . S
O256 C250 1.255 . S
C257 O261 1.295 . S
C257 O262 1.235 . S
O258 Fe243 1.976 . S
O258 C252 1.287 . S
O259 Fe245 1.996 . S
O259 C252 1.255 . S
C260 O253 1.287 . S
C260 O254 1.255 . S
O261 Fe243 2.002 . S
O261 C257 1.295 . S
O262 Fe245 1.997 . S
O262 C257 1.235 . S
C263 O246 1.295 . S
C263 O247 1.235 . S
Fe264 O266 1.918 . S
Fe264 O269 1.997 . S
Fe264 O270 2.002 . S
Fe264 O275 1.976 . S
Fe264 O278 1.996 . S
Fe265 O266 1.918 . S
Fe265 O273 1.997 . S
Fe265 O276 1.996 . S
Fe265 O280 1.976 . S
Fe265 O283 2.002 . S
O266 Fe264 1.918 . S
O266 Fe265 1.918 . S
O266 Fe267 1.918 1_565 S
Fe267 O266 1.918 1_545 S
Fe267 O268 2.002 . S
Fe267 O277 1.976 . S
Fe267 O281 1.996 . S
Fe267 O284 1.997 . S
O268 Fe267 2.002 . S
O268 C285 1.295 1_545 S
O269 Fe264 1.997 . S
O269 C285 1.235 . S
O270 Fe264 2.002 . S
O270 C271 1.295 . S
C271 O270 1.295 . S
C271 O273 1.235 . S
C272 O277 1.287 . S
C272 O278 1.255 1_545 S
O273 Fe265 1.997 . S
O273 C271 1.235 . S
C274 O280 1.287 1_545 S
C274 O281 1.255 . S
O275 Fe264 1.976 . S
O275 C282 1.287 . S
O276 Fe265 1.996 . S
O276 C282 1.255 . S
O277 Fe267 1.976 . S
O277 C272 1.287 . S
O278 Fe264 1.996 . S
O278 C272 1.255 1_565 S
C279 O283 1.295 . S
C279 O284 1.235 1_565 S
O280 Fe265 1.976 . S
O280 C274 1.287 1_565 S
O281 Fe267 1.996 . S
O281 C274 1.255 . S
C282 O275 1.287 . S
C282 O276 1.255 . S
O283 Fe265 2.002 . S
O283 C279 1.295 . S
O284 Fe267 1.997 . S
O284 C279 1.235 1_545 S
C285 O268 1.295 1_565 S
C285 O269 1.235 . S
Fe286 O288 1.918 1_554 S
Fe286 O291 1.997 . S
Fe286 O292 2.002 . S
Fe286 O297 1.976 . S
Fe286 O300 1.996 1_554 S
Fe287 O288 1.918 . S
Fe287 O295 1.997 1_556 S
Fe287 O298 1.996 . S
Fe287 O302 1.976 . S
Fe287 O305 2.002 . S
O288 Fe286 1.918 1_556 S
O288 Fe287 1.918 . S
O288 Fe289 1.918 . S
Fe289 O288 1.918 . S
Fe289 O290 2.002 . S
Fe289 O299 1.976 . S
Fe289 O303 1.996 . S
Fe289 O306 1.997 1_545 S
O290 Fe289 2.002 . S
O290 C307 1.295 1_556 S
O291 Fe286 1.997 . S
O291 C307 1.235 . S
O292 Fe286 2.002 . S
O292 C293 1.295 . S
C293 O292 1.295 . S
C293 O295 1.235 . S
C294 O299 1.287 . S
C294 O300 1.255 . S
O295 Fe287 1.997 1_554 S
O295 C293 1.235 . S
C296 O302 1.287 . S
C296 O303 1.255 . S
O297 Fe286 1.976 . S
O297 C304 1.287 . S
O298 Fe287 1.996 . S
O298 C304 1.255 1_556 S
O299 Fe289 1.976 . S
O299 C294 1.287 . S
O300 Fe286 1.996 1_556 S
O300 C294 1.255 . S
C301 O305 1.295 1_565 S
C301 O306 1.235 . S
O302 Fe287 1.976 . S
O302 C296 1.287 . S
O303 Fe289 1.996 . S
O303 C296 1.255 . S
C304 O297 1.287 . S
C304 O298 1.255 1_554 S
O305 Fe287 2.002 . S
O305 C301 1.295 1_545 S
O306 Fe289 1.997 1_565 S
O306 C301 1.235 . S
C307 O290 1.295 1_554 S
C307 O291 1.235 . S
Fe308 O310 1.918 1_565 S
Fe308 O313 1.997 . S
Fe308 O314 2.002 . S
Fe308 O319 1.976 . S
Fe308 O322 1.996 . S
Fe309 O310 1.918 . S
Fe309 O317 1.997 . S
Fe309 O320 1.996 . S
Fe309 O324 1.976 . S
Fe309 O327 2.002 . S
O310 Fe308 1.918 1_545 S
O310 Fe309 1.918 . S
O310 Fe311 1.918 . S
Fe311 O310 1.918 . S
Fe311 O312 2.002 . S
Fe311 O321 1.976 . S
Fe311 O325 1.996 . S
Fe311 O328 1.997 . S
O312 Fe311 2.002 . S
O312 C329 1.295 . S
O313 Fe308 1.997 . S
O313 C329 1.235 1_565 S
O314 Fe308 2.002 . S
O314 C315 1.295 1_565 S
C315 O314 1.295 1_545 S
C315 O317 1.235 . S
C316 O321 1.287 1_565 S
C316 O322 1.255 . S
O317 Fe309 1.997 . S
O317 C315 1.235 . S
C318 O324 1.287 . S
C318 O325 1.255 . S
O319 Fe308 1.976 . S
O319 C326 1.287 . S
O320 Fe309 1.996 . S
O320 C326 1.255 1_545 S
O321 Fe311 1.976 . S
O321 C316 1.287 1_545 S
O322 Fe308 1.996 . S
O322 C316 1.255 . S
C323 O327 1.295 . S
C323 O328 1.235 . S
O324 Fe309 1.976 . S
O324 C318 1.287 . S
O325 Fe311 1.996 . S
O325 C318 1.255 . S
C326 O319 1.287 . S
C326 O320 1.255 1_565 S
O327 Fe309 2.002 . S
O327 C323 1.295 . S
O328 Fe311 1.997 . S
O328 C323 1.235 . S
C329 O312 1.295 . S
C329 O313 1.235 1_545 S
Fe330 O332 1.918 . S
Fe330 O335 1.997 . S
Fe330 O336 2.002 . S
Fe330 O341 1.976 . S
Fe330 O344 1.996 . S
Fe331 O332 1.918 . S
Fe331 O339 1.997 . S
Fe331 O342 1.996 . S
Fe331 O346 1.976 . S
Fe331 O349 2.002 . S
O332 Fe330 1.918 . S
O332 Fe331 1.918 . S
O332 Fe333 1.918 . S
Fe333 O332 1.918 . S
Fe333 O334 2.002 . S
Fe333 O343 1.976 . S
Fe333 O347 1.996 . S
Fe333 O350 1.997 1_565 S
O334 Fe333 2.002 . S
O334 C351 1.295 . S
O335 Fe330 1.997 . S
O335 C351 1.235 . S
O336 Fe330 2.002 . S
O336 C337 1.295 . S
C337 O336 1.295 . S
C337 O339 1.235 . S
C338 O343 1.287 . S
C338 O344 1.255 . S
O339 Fe331 1.997 . S
O339 C337 1.235 . S
C340 O346 1.287 . S
C340 O347 1.255 . S
O341 Fe330 1.976 . S
O341 C348 1.287 . S
O342 Fe331 1.996 . S
O342 C348 1.255 . S
O343 Fe333 1.976 . S
O343 C338 1.287 . S
O344 Fe330 1.996 . S
O344 C338 1.255 . S
C345 O349 1.295 1_545 S
C345 O350 1.235 . S
O346 Fe331 1.976 . S
O346 C340 1.287 . S
O347 Fe333 1.996 . S
O347 C340 1.255 . S
C348 O341 1.287 . S
C348 O342 1.255 . S
O349 Fe331 2.002 . S
O349 C345 1.295 1_565 S
O350 Fe333 1.997 1_545 S
O350 C345 1.235 . S
C351 O334 1.295 . S
C351 O335 1.235 . S
H352 C358 0.930 . S
H353 C361 0.930 . S
H354 C362 0.930 . S
H355 C363 0.930 . S
H356 C366 0.930 . S
H357 C367 0.930 . S
C358 H352 0.930 . S
C358 C359 1.355 . S
C358 C360 1.415 . S
C359 C358 1.355 . S
C359 C361 1.419 . S
C360 C358 1.415 . S
C360 C365 1.425 . S
C360 C367 1.409 . S
C361 H353 0.930 . S
C361 C359 1.419 . S
C361 C362 1.362 . S
C362 H354 0.930 . S
C362 C361 1.362 . S
C362 C365 1.409 . S
C363 H355 0.930 . S
C363 C364 1.355 . S
C363 C365 1.415 . S
C364 C363 1.355 . S
C364 C366 1.419 . S
C365 C360 1.425 . S
C365 C362 1.409 . S
C365 C363 1.415 . S
C366 H356 0.930 . S
C366 C364 1.419 . S
C366 C367 1.362 . S
C367 H357 0.930 . S
C367 C360 1.409 . S
C367 C366 1.362 . S
H368 C374 0.930 . S
H369 C377 0.930 . S
H370 C378 0.930 . S
H371 C379 0.930 . S
H372 C382 0.930 . S
H373 C383 0.930 . S
C374 H368 0.930 . S
C374 C375 1.355 . S
C374 C376 1.415 . S
C375 C374 1.355 . S
C375 C377 1.419 . S
C376 C374 1.415 . S
C376 C381 1.425 . S
C376 C383 1.409 . S
C377 H369 0.930 . S
C377 C375 1.419 . S
C377 C378 1.362 . S
C378 H370 0.930 . S
C378 C377 1.362 . S
C378 C381 1.409 . S
C379 H371 0.930 . S
C379 C380 1.355 . S
C379 C381 1.415 . S
C380 C379 1.355 . S
C380 C382 1.419 . S
C381 C376 1.425 . S
C381 C378 1.409 . S
C381 C379 1.415 . S
C382 H372 0.930 . S
C382 C380 1.419 . S
C382 C383 1.362 . S
C383 H373 0.930 . S
C383 C376 1.409 . S
C383 C382 1.362 . S
H384 C390 0.930 . S
H385 C393 0.930 . S
H386 C394 0.930 . S
H387 C395 0.939 . S
H388 C398 0.919 1_655 S
H389 C399 0.930 . S
C390 H384 0.930 . S
C390 C391 1.355 . S
C390 C392 1.415 . S
C391 C390 1.355 . S
C391 C393 1.419 . S
C392 C390 1.415 . S
C392 C397 1.425 . S
C392 C399 1.409 . S
C393 H385 0.930 . S
C393 C391 1.419 . S
C393 C394 1.362 . S
C394 H386 0.930 . S
C394 C393 1.362 . S
C394 C397 1.409 . S
C395 H387 0.939 . S
C395 C396 1.355 1_455 S
C395 C397 1.415 . S
C396 C395 1.355 1_655 S
C396 C398 1.419 1_655 S
C397 C392 1.425 . S
C397 C394 1.409 . S
C397 C395 1.415 . S
C398 H388 0.919 1_455 S
C398 C396 1.419 1_455 S
C398 C399 1.362 . S
C399 H389 0.930 . S
C399 C392 1.409 . S
C399 C398 1.362 . S
H400 C406 0.930 . S
H401 C409 0.930 . S
H402 C410 0.930 . S
H403 C411 0.930 1_556 S
H404 C414 0.930 . S
H405 C415 0.930 . S
C406 H400 0.930 . S
C406 C407 1.355 . S
C406 C408 1.415 . S
C407 C406 1.355 . S
C407 C409 1.419 1_554 S
C408 C406 1.415 . S
C408 C413 1.425 . S
C408 C415 1.409 . S
C409 H401 0.930 . S
C409 C407 1.419 1_556 S
C409 C410 1.362 . S
C410 H402 0.930 . S
C410 C409 1.362 . S
C410 C413 1.409 1_556 S
C411 H403 0.930 1_554 S
C411 C412 1.355 . S
C411 C413 1.415 . S
C412 C411 1.355 . S
C412 C414 1.419 . S
C413 C408 1.425 . S
C413 C410 1.409 1_554 S
C413 C411 1.415 . S
C414 H404 0.930 . S
C414 C412 1.419 . S
C414 C415 1.362 . S
C415 H405 0.930 . S
C415 C408 1.409 . S
C415 C414 1.362 . S
H416 C422 0.930 . S
H417 C425 0.930 . S
H418 C426 0.930 . S
H419 C427 0.930 . S
H420 C430 0.930 . S
H421 C431 0.930 . S
C422 H416 0.930 . S
C422 C423 1.355 . S
C422 C424 1.415 . S
C423 C422 1.355 . S
C423 C425 1.419 . S
C424 C422 1.415 . S
C424 C429 1.425 . S
C424 C431 1.409 . S
C425 H417 0.930 . S
C425 C423 1.419 . S
C425 C426 1.362 . S
C426 H418 0.930 . S
C426 C425 1.362 . S
C426 C429 1.409 . S
C427 H419 0.930 . S
C427 C428 1.355 . S
C427 C429 1.415 . S
C428 C427 1.355 . S
C428 C430 1.419 . S
C429 C424 1.425 . S
C429 C426 1.409 . S
C429 C427 1.415 . S
C430 H420 0.930 . S
C430 C428 1.419 . S
C430 C431 1.362 . S
C431 H421 0.930 . S
C431 C424 1.409 . S
C431 C430 1.362 . S
H432 C438 0.930 . S
H433 C441 0.930 . S
H434 C442 0.930 . S
H435 C443 0.930 . S
H436 C446 0.930 . S
H437 C447 0.930 . S
C438 H432 0.930 . S
C438 C439 1.355 . S
C438 C440 1.415 . S
C439 C438 1.355 . S
C439 C441 1.419 . S
C440 C438 1.415 . S
C440 C445 1.425 . S
C440 C447 1.409 . S
C441 H433 0.930 . S
C441 C439 1.419 . S
C441 C442 1.362 . S
C442 H434 0.930 . S
C442 C441 1.362 . S
C442 C445 1.409 . S
C443 H435 0.930 . S
C443 C444 1.355 . S
C443 C445 1.415 . S
C444 C443 1.355 . S
C444 C446 1.419 . S
C445 C440 1.425 . S
C445 C442 1.409 . S
C445 C443 1.415 . S
C446 H436 0.930 . S
C446 C444 1.419 . S
C446 C447 1.362 . S
C447 H437 0.930 . S
C447 C440 1.409 . S
C447 C446 1.362 . S
H448 C454 0.930 . S
H449 C457 0.930 . S
H450 C458 0.930 . S
H451 C459 0.930 . S
H452 C462 0.935 . S
H453 C463 0.930 . S
C454 H448 0.930 . S
C454 C455 1.355 . S
C454 C456 1.415 . S
C455 C454 1.355 . S
C455 C457 1.419 . S
C456 C454 1.415 . S
C456 C461 1.425 . S
C456 C463 1.409 . S
C457 H449 0.930 . S
C457 C455 1.419 . S
C457 C458 1.362 . S
C458 H450 0.930 . S
C458 C457 1.362 . S
C458 C461 1.409 . S
C459 H451 0.930 . S
C459 C460 1.355 1_655 S
C459 C461 1.415 . S
C460 C459 1.355 1_455 S
C460 C462 1.420 . S
C461 C456 1.425 . S
C461 C458 1.409 . S
C461 C459 1.415 . S
C462 H452 0.935 . S
C462 C460 1.420 . S
C462 C463 1.356 1_455 S
C463 H453 0.930 . S
C463 C456 1.409 . S
C463 C462 1.356 1_655 S
H464 C470 0.930 1_554 S
H465 C473 0.930 . S
H466 C474 0.930 . S
H467 C475 0.930 . S
H468 C478 0.930 . S
H469 C479 0.930 . S
C470 H464 0.930 1_556 S
C470 C471 1.355 . S
C470 C472 1.415 . S
C471 C470 1.355 . S
C471 C473 1.419 . S
C472 C470 1.415 . S
C472 C477 1.425 . S
C472 C479 1.409 1_556 S
C473 H465 0.930 . S
C473 C471 1.419 . S
C473 C474 1.362 . S
C474 H466 0.930 . S
C474 C473 1.362 . S
C474 C477 1.409 . S
C475 H467 0.930 . S
C475 C476 1.355 . S
C475 C477 1.415 . S
C476 C475 1.355 . S
C476 C478 1.419 1_556 S
C477 C472 1.425 . S
C477 C474 1.409 . S
C477 C475 1.415 . S
C478 H468 0.930 . S
C478 C476 1.419 1_554 S
C478 C479 1.362 . S
C479 H469 0.930 . S
C479 C472 1.409 1_554 S
C479 C478 1.362 . S
H480 C486 0.930 . S
H481 C489 0.930 . S
H482 C490 0.930 . S
H483 C491 0.930 . S
H484 C494 0.930 1_455 S
H485 C495 0.930 . S
C486 H480 0.930 . S
C486 C487 1.355 1_545 S
C486 C488 1.415 . S
C487 C486 1.355 1_565 S
C487 C489 1.419 . S
C488 C486 1.415 . S
C488 C493 1.425 1_545 S
C488 C495 1.409 . S
C489 H481 0.930 . S
C489 C487 1.419 . S
C489 C490 1.362 . S
C490 H482 0.930 . S
C490 C489 1.362 . S
C490 C493 1.409 . S
C491 H483 0.930 . S
C491 C492 1.355 1_655 S
C491 C493 1.415 . S
C492 C491 1.355 1_455 S
C492 C494 1.419 1_465 S
C493 C488 1.425 1_565 S
C493 C490 1.409 . S
C493 C491 1.415 . S
C494 H484 0.930 1_655 S
C494 C492 1.419 1_645 S
C494 C495 1.362 . S
C495 H485 0.930 . S
C495 C488 1.409 . S
C495 C494 1.362 . S
H496 C502 0.930 . S
H497 C505 0.930 . S
H498 C506 0.930 . S
H499 C507 0.920 1_556 S
H500 C510 0.930 . S
H501 C511 0.930 . S
C502 H496 0.930 . S
C502 C503 1.355 . S
C502 C504 1.415 . S
C503 C502 1.355 . S
C503 C505 1.419 . S
C504 C502 1.415 . S
C504 C509 1.425 . S
C504 C511 1.409 . S
C505 H497 0.930 . S
C505 C503 1.419 . S
C505 C506 1.362 . S
C506 H498 0.930 . S
C506 C505 1.362 . S
C506 C509 1.409 . S
C507 H499 0.920 1_554 S
C507 C508 1.355 . S
C507 C509 1.415 . S
C508 C507 1.355 . S
C508 C510 1.419 . S
C509 C504 1.425 . S
C509 C506 1.409 . S
C509 C507 1.415 . S
C510 H500 0.930 . S
C510 C508 1.419 . S
C510 C511 1.362 . S
C511 H501 0.930 . S
C511 C504 1.409 . S
C511 C510 1.362 . S
H512 C518 0.930 . S
H513 C521 0.930 . S
H514 C522 0.930 . S
H515 C523 0.930 . S
H516 C526 0.930 . S
H517 C527 0.930 . S
C518 H512 0.930 . S
C518 C519 1.355 . S
C518 C520 1.415 . S
C519 C518 1.355 . S
C519 C521 1.419 . S
C520 C518 1.415 . S
C520 C525 1.425 . S
C520 C527 1.409 . S
C521 H513 0.930 . S
C521 C519 1.419 . S
C521 C522 1.362 . S
C522 H514 0.930 . S
C522 C521 1.362 . S
C522 C525 1.409 . S
C523 H515 0.930 . S
C523 C524 1.355 1_565 S
C523 C525 1.414 1_565 S
C524 C523 1.355 1_545 S
C524 C526 1.419 . S
C525 C520 1.425 . S
C525 C522 1.409 . S
C525 C523 1.414 1_545 S
C526 H516 0.930 . S
C526 C524 1.419 . S
C526 C527 1.362 . S
C527 H517 0.930 . S
C527 C520 1.409 . S
C527 C526 1.362 . S
H528 C534 0.930 . S
H529 C537 0.930 . S
H530 C538 0.930 . S
H531 C539 0.930 . S
H532 C542 0.930 . S
H533 C543 0.930 . S
C534 H528 0.930 . S
C534 C535 1.355 . S
C534 C536 1.415 . S
C535 C534 1.355 . S
C535 C537 1.419 . S
C536 C534 1.415 . S
C536 C541 1.425 . S
C536 C543 1.409 . S
C537 H529 0.930 . S
C537 C535 1.419 . S
C537 C538 1.362 . S
C538 H530 0.930 . S
C538 C537 1.362 . S
C538 C541 1.409 . S
C539 H531 0.930 . S
C539 C540 1.355 . S
C539 C541 1.415 . S
C540 C539 1.355 . S
C540 C542 1.419 . S
C541 C536 1.425 . S
C541 C538 1.409 . S
C541 C539 1.415 . S
C542 H532 0.930 . S
C542 C540 1.419 . S
C542 C543 1.362 . S
C543 H533 0.930 . S
C543 C536 1.409 . S
C543 C542 1.362 . S
H544 C550 0.930 . S
H545 C553 0.930 1_655 S
H546 C554 0.930 . S
H547 C555 0.930 . S
H548 C558 0.927 1_565 S
H549 C559 0.930 . S
C550 H544 0.930 . S
C550 C551 1.355 1_455 S
C550 C552 1.415 . S
C551 C550 1.355 1_655 S
C551 C553 1.419 1_655 S
C552 C550 1.415 . S
C552 C557 1.425 . S
C552 C559 1.409 . S
C553 H545 0.930 1_455 S
C553 C551 1.419 1_455 S
C553 C554 1.362 . S
C554 H546 0.930 . S
C554 C553 1.362 . S
C554 C557 1.409 . S
C555 H547 0.930 . S
C555 C556 1.355 . S
C555 C557 1.415 . S
C556 C555 1.355 . S
C556 C558 1.420 . S
C557 C552 1.425 . S
C557 C554 1.409 . S
C557 C555 1.415 . S
C558 H548 0.927 1_545 S
C558 C556 1.420 . S
C558 C559 1.364 . S
C559 H549 0.930 . S
C559 C552 1.409 . S
C559 C558 1.364 . S
H560 C566 0.930 . S
H561 C569 0.930 . S
H562 C570 0.930 . S
H563 C571 0.930 . S
H564 C574 0.930 . S
H565 C575 0.930 . S
C566 H560 0.930 . S
C566 C567 1.355 . S
C566 C568 1.415 . S
C567 C566 1.355 . S
C567 C569 1.419 1_556 S
C568 C566 1.415 . S
C568 C573 1.425 . S
C568 C575 1.409 . S
C569 H561 0.930 . S
C569 C567 1.419 1_554 S
C569 C570 1.362 . S
C570 H562 0.930 . S
C570 C569 1.362 . S
C570 C573 1.409 1_554 S
C571 H563 0.930 . S
C571 C572 1.355 1_554 S
C571 C573 1.415 1_554 S
C572 C571 1.355 1_556 S
C572 C574 1.419 . S
C573 C568 1.425 . S
C573 C570 1.409 1_556 S
C573 C571 1.415 1_556 S
C574 H564 0.930 . S
C574 C572 1.419 . S
C574 C575 1.362 . S
C575 H565 0.930 . S
C575 C568 1.409 . S
C575 C574 1.362 . S
H576 C582 0.930 . S
H577 C585 0.930 . S
H578 C586 0.930 . S
H579 C587 0.930 . S
H580 C590 0.930 . S
H581 C591 0.930 . S
C582 H576 0.930 . S
C582 C583 1.355 . S
C582 C584 1.415 . S
C583 C582 1.355 . S
C583 C585 1.419 1_565 S
C584 C582 1.415 . S
C584 C589 1.425 1_565 S
C584 C591 1.409 . S
C585 H577 0.930 . S
C585 C583 1.419 1_545 S
C585 C586 1.362 . S
C586 H578 0.930 . S
C586 C585 1.362 . S
C586 C589 1.409 . S
C587 H579 0.930 . S
C587 C588 1.355 1_545 S
C587 C589 1.415 . S
C588 C587 1.355 1_565 S
C588 C590 1.419 . S
C589 C584 1.425 1_545 S
C589 C586 1.409 . S
C589 C587 1.415 . S
C590 H580 0.930 . S
C590 C588 1.419 . S
C590 C591 1.362 . S
C591 H581 0.930 . S
C591 C584 1.409 . S
C591 C590 1.362 . S
H592 C598 0.930 . S
H593 C601 0.930 . S
H594 C602 0.930 . S
H595 C603 0.930 . S
H596 C606 0.930 . S
H597 C607 0.930 . S
C598 H592 0.930 . S
C598 C599 1.355 . S
C598 C600 1.415 . S
C599 C598 1.355 . S
C599 C601 1.419 . S
C600 C598 1.415 . S
C600 C605 1.425 . S
C600 C607 1.409 . S
C601 H593 0.930 . S
C601 C599 1.419 . S
C601 C602 1.362 . S
C602 H594 0.930 . S
C602 C601 1.362 . S
C602 C605 1.409 . S
C603 H595 0.930 . S
C603 C604 1.355 . S
C603 C605 1.415 . S
C604 C603 1.355 . S
C604 C606 1.419 . S
C605 C600 1.425 . S
C605 C602 1.409 . S
C605 C603 1.415 . S
C606 H596 0.930 . S
C606 C604 1.419 . S
C606 C607 1.362 . S
C607 H597 0.930 . S
C607 C600 1.409 . S
C607 C606 1.362 . S
H608 C614 0.930 . S
H609 C617 0.930 . S
H610 C618 0.930 . S
H611 C619 0.930 . S
H612 C622 0.930 . S
H613 C623 0.930 . S
C614 H608 0.930 . S
C614 C615 1.355 . S
C614 C616 1.415 . S
C615 C614 1.355 . S
C615 C617 1.419 . S
C616 C614 1.415 . S
C616 C621 1.425 . S
C616 C623 1.409 . S
C617 H609 0.930 . S
C617 C615 1.419 . S
C617 C618 1.362 . S
C618 H610 0.930 . S
C618 C617 1.362 . S
C618 C621 1.409 . S
C619 H611 0.930 . S
C619 C620 1.355 . S
C619 C621 1.415 . S
C620 C619 1.355 . S
C620 C622 1.419 . S
C621 C616 1.425 . S
C621 C618 1.409 . S
C621 C619 1.415 . S
C622 H612 0.930 . S
C622 C620 1.419 . S
C622 C623 1.362 . S
C623 H613 0.930 . S
C623 C616 1.409 . S
C623 C622 1.362 . S
H624 C630 0.930 . S
H625 C633 0.930 . S
H626 C634 0.930 . S
H627 C635 0.930 . S
H628 C638 0.930 . S
H629 C639 0.930 . S
C630 H624 0.930 . S
C630 C631 1.355 . S
C630 C632 1.408 1_455 S
C631 C630 1.355 . S
C631 C633 1.419 . S
C632 C630 1.408 1_655 S
C632 C637 1.425 1_655 S
C632 C639 1.416 . S
C633 H625 0.930 . S
C633 C631 1.419 . S
C633 C634 1.362 . S
C634 H626 0.930 . S
C634 C633 1.362 . S
C634 C637 1.416 . S
C635 H627 0.930 . S
C635 C636 1.355 . S
C635 C637 1.408 1_655 S
C636 C635 1.355 . S
C636 C638 1.419 . S
C637 C632 1.425 1_455 S
C637 C634 1.416 . S
C637 C635 1.408 1_455 S
C638 H628 0.930 . S
C638 C636 1.419 . S
C638 C639 1.362 . S
C639 H629 0.930 . S
C639 C632 1.416 . S
C639 C638 1.362 . S
H640 C646 0.930 . S
H641 C649 0.930 . S
H642 C650 0.930 . S
H643 C651 0.930 . S
H644 C654 0.930 . S
H645 C655 0.930 . S
C646 H640 0.930 . S
C646 C647 1.355 . S
C646 C648 1.415 . S
C647 C646 1.355 . S
C647 C649 1.419 . S
C648 C646 1.415 . S
C648 C653 1.425 . S
C648 C655 1.409 . S
C649 H641 0.930 . S
C649 C647 1.419 . S
C649 C650 1.362 . S
C650 H642 0.930 . S
C650 C649 1.362 . S
C650 C653 1.409 . S
C651 H643 0.930 . S
C651 C652 1.355 . S
C651 C653 1.415 . S
C652 C651 1.355 . S
C652 C654 1.419 . S
C653 C648 1.425 . S
C653 C650 1.409 . S
C653 C651 1.415 . S
C654 H644 0.930 . S
C654 C652 1.419 . S
C654 C655 1.362 . S
C655 H645 0.930 . S
C655 C648 1.409 . S
C655 C654 1.362 . S
H656 C662 0.930 . S
H657 C665 0.930 . S
H658 C666 0.930 . S
H659 C667 0.930 . S
H660 C670 0.930 . S
H661 C671 0.930 . S
C662 H656 0.930 . S
C662 C663 1.355 1_556 S
C662 C664 1.415 . S
C663 C662 1.355 1_554 S
C663 C665 1.419 . S
C664 C662 1.415 . S
C664 C669 1.425 1_556 S
C664 C671 1.409 . S
C665 H657 0.930 . S
C665 C663 1.419 . S
C665 C666 1.362 . S
C666 H658 0.930 . S
C666 C665 1.362 . S
C666 C669 1.409 . S
C667 H659 0.930 . S
C667 C668 1.355 1_554 S
C667 C669 1.415 . S
C668 C667 1.355 1_556 S
C668 C670 1.419 . S
C669 C664 1.425 1_554 S
C669 C666 1.409 . S
C669 C667 1.415 . S
C670 H660 0.930 . S
C670 C668 1.419 . S
C670 C671 1.362 . S
C671 H661 0.930 . S
C671 C664 1.409 . S
C671 C670 1.362 . S
H672 C678 0.930 . S
H673 C681 0.930 . S
H674 C682 0.930 . S
H675 C683 0.930 . S
H676 C686 0.930 . S
H677 C687 0.930 . S
C678 H672 0.930 . S
C678 C679 1.355 . S
C678 C680 1.415 . S
C679 C678 1.355 . S
C679 C681 1.419 . S
C680 C678 1.415 . S
C680 C685 1.425 . S
C680 C687 1.409 . S
C681 H673 0.930 . S
C681 C679 1.419 . S
C681 C682 1.362 . S
C682 H674 0.930 . S
C682 C681 1.362 . S
C682 C685 1.409 . S
C683 H675 0.930 . S
C683 C684 1.355 . S
C683 C685 1.415 . S
C684 C683 1.355 . S
C684 C686 1.419 . S
C685 C680 1.425 . S
C685 C682 1.409 . S
C685 C683 1.415 . S
C686 H676 0.930 . S
C686 C684 1.419 . S
C686 C687 1.362 . S
C687 H677 0.930 . S
C687 C680 1.409 . S
C687 C686 1.362 . S
H688 C694 0.930 . S
H689 C697 0.930 . S
H690 C698 0.930 . S
H691 C699 0.930 . S
H692 C702 0.930 . S
H693 C703 0.930 . S
C694 H688 0.930 . S
C694 C695 1.355 . S
C694 C696 1.415 . S
C695 C694 1.355 . S
C695 C697 1.419 . S
C696 C694 1.415 . S
C696 C701 1.425 . S
C696 C703 1.409 . S
C697 H689 0.930 . S
C697 C695 1.419 . S
C697 C698 1.362 . S
C698 H690 0.930 . S
C698 C697 1.362 . S
C698 C701 1.409 . S
C699 H691 0.930 . S
C699 C700 1.355 . S
C699 C701 1.415 . S
C700 C699 1.355 . S
C700 C702 1.419 . S
C701 C696 1.425 . S
C701 C698 1.409 . S
C701 C699 1.415 . S
C702 H692 0.930 . S
C702 C700 1.419 . S
C702 C703 1.362 . S
C703 H693 0.930 . S
C703 C696 1.409 . S
C703 C702 1.362 . S
H704 C710 0.930 . S
H705 C713 0.930 . S
H706 C714 0.930 . S
H707 C715 0.930 . S
H708 C718 0.930 . S
H709 C719 0.930 . S
C710 H704 0.930 . S
C710 C711 1.355 1_554 S
C710 C712 1.415 . S
C711 C710 1.355 1_556 S
C711 C713 1.419 . S
C712 C710 1.415 . S
C712 C717 1.425 1_564 S
C712 C719 1.409 1_565 S
C713 H705 0.930 . S
C713 C711 1.419 . S
C713 C714 1.362 . S
C714 H706 0.930 . S
C714 C713 1.362 . S
C714 C717 1.409 1_565 S
C715 H707 0.930 . S
C715 C716 1.355 1_556 S
C715 C717 1.415 . S
C716 C715 1.355 1_554 S
C716 C718 1.419 . S
C717 C712 1.425 1_546 S
C717 C714 1.409 1_545 S
C717 C715 1.415 . S
C718 H708 0.930 . S
C718 C716 1.419 . S
C718 C719 1.362 . S
C719 H709 0.930 . S
C719 C712 1.409 1_545 S
C719 C718 1.362 . S
H720 C726 0.930 . S
H721 C729 0.930 . S
H722 C730 0.930 1_655 S
H723 C731 0.930 . S
H724 C734 0.930 . S
H725 C735 0.930 1_455 S
C726 H720 0.930 . S
C726 C727 1.355 1_545 S
C726 C728 1.415 . S
C727 C726 1.355 1_565 S
C727 C729 1.419 . S
C728 C726 1.415 . S
C728 C733 1.425 1_445 S
C728 C735 1.409 1_455 S
C729 H721 0.930 . S
C729 C727 1.419 . S
C729 C730 1.362 . S
C730 H722 0.930 1_455 S
C730 C729 1.362 . S
C730 C733 1.409 1_455 S
C731 H723 0.930 . S
C731 C732 1.355 1_565 S
C731 C733 1.415 . S
C732 C731 1.355 1_545 S
C732 C734 1.419 . S
C733 C728 1.425 1_665 S
C733 C730 1.409 1_655 S
C733 C731 1.415 . S
C734 H724 0.930 . S
C734 C732 1.419 . S
C734 C735 1.362 . S
C735 H725 0.930 1_655 S
C735 C728 1.409 1_655 S
C735 C734 1.362 . S
H736 C742 0.930 . S
H737 C745 0.930 . S
H738 C746 0.930 . S
H739 C747 0.930 . S
H740 C750 0.930 . S
H741 C751 0.930 . S
C742 H736 0.930 . S
C742 C743 1.355 . S
C742 C744 1.415 . S
C743 C742 1.355 . S
C743 C745 1.419 . S
C744 C742 1.415 . S
C744 C749 1.425 . S
C744 C751 1.409 . S
C745 H737 0.930 . S
C745 C743 1.419 . S
C745 C746 1.362 . S
C746 H738 0.930 . S
C746 C745 1.362 . S
C746 C749 1.409 . S
C747 H739 0.930 . S
C747 C748 1.355 . S
C747 C749 1.415 . S
C748 C747 1.355 . S
C748 C750 1.419 . S
C749 C744 1.425 . S
C749 C746 1.409 . S
C749 C747 1.415 . S
C750 H740 0.930 . S
C750 C748 1.419 . S
C750 C751 1.362 . S
C751 H741 0.930 . S
C751 C744 1.409 . S
C751 C750 1.362 . S
H752 C758 0.930 . S
H753 C761 0.930 . S
H754 C762 0.930 . S
H755 C763 0.930 . S
H756 C766 0.930 . S
H757 C767 0.930 . S
C758 H752 0.930 . S
C758 C759 1.355 . S
C758 C760 1.415 . S
C759 C758 1.355 . S
C759 C761 1.419 . S
C760 C758 1.415 . S
C760 C765 1.425 . S
C760 C767 1.409 . S
C761 H753 0.930 . S
C761 C759 1.419 . S
C761 C762 1.362 . S
C762 H754 0.930 . S
C762 C761 1.362 . S
C762 C765 1.409 . S
C763 H755 0.930 . S
C763 C764 1.355 . S
C763 C765 1.415 . S
C764 C763 1.355 . S
C764 C766 1.419 . S
C765 C760 1.425 . S
C765 C762 1.409 . S
C765 C763 1.415 . S
C766 H756 0.930 . S
C766 C764 1.419 . S
C766 C767 1.362 . S
C767 H757 0.930 . S
C767 C760 1.409 . S
C767 C766 1.362 . S
H768 C774 0.930 . S
H769 C777 0.930 . S
H770 C778 0.930 . S
H771 C779 0.930 . S
H772 C782 0.930 . S
H773 C783 0.930 . S
C774 H768 0.930 . S
C774 C775 1.355 . S
C774 C776 1.415 . S
C775 C774 1.355 . S
C775 C777 1.419 . S
C776 C774 1.415 . S
C776 C781 1.425 . S
C776 C783 1.409 . S
C777 H769 0.930 . S
C777 C775 1.419 . S
C777 C778 1.362 . S
C778 H770 0.930 . S
C778 C777 1.362 . S
C778 C781 1.409 . S
C779 H771 0.930 . S
C779 C780 1.355 . S
C779 C781 1.415 . S
C780 C779 1.355 . S
C780 C782 1.419 . S
C781 C776 1.425 . S
C781 C778 1.409 . S
C781 C779 1.415 . S
C782 H772 0.930 . S
C782 C780 1.419 . S
C782 C783 1.362 . S
C783 H773 0.930 . S
C783 C776 1.409 . S
C783 C782 1.362 . S
H784 C790 0.930 . S
H785 C793 0.930 . S
H786 C794 0.930 . S
H787 C795 0.930 . S
H788 C798 0.930 . S
H789 C799 0.930 . S
C790 H784 0.930 . S
C790 C791 1.355 . S
C790 C792 1.415 . S
C791 C790 1.355 . S
C791 C793 1.419 . S
C792 C790 1.415 . S
C792 C797 1.425 . S
C792 C799 1.409 . S
C793 H785 0.930 . S
C793 C791 1.419 . S
C793 C794 1.362 . S
C794 H786 0.930 . S
C794 C793 1.362 . S
C794 C797 1.409 . S
C795 H787 0.930 . S
C795 C796 1.355 . S
C795 C797 1.415 . S
C796 C795 1.355 . S
C796 C798 1.419 . S
C797 C792 1.425 . S
C797 C794 1.409 . S
C797 C795 1.415 . S
C798 H788 0.930 . S
C798 C796 1.419 . S
C798 C799 1.362 . S
C799 H789 0.930 . S
C799 C792 1.409 . S
C799 C798 1.362 . S
H800 C806 0.930 . S
H801 C809 0.930 . S
H802 C810 0.930 . S
H803 C811 0.930 . S
H804 C814 0.930 . S
H805 C815 0.930 . S
C806 H800 0.930 . S
C806 C807 1.355 . S
C806 C808 1.415 . S
C807 C806 1.355 . S
C807 C809 1.419 . S
C808 C806 1.415 . S
C808 C813 1.425 . S
C808 C815 1.409 . S
C809 H801 0.930 . S
C809 C807 1.419 . S
C809 C810 1.362 . S
C810 H802 0.930 . S
C810 C809 1.362 . S
C810 C813 1.409 . S
C811 H803 0.930 . S
C811 C812 1.355 . S
C811 C813 1.415 . S
C812 C811 1.355 . S
C812 C814 1.419 . S
C813 C808 1.425 . S
C813 C810 1.409 . S
C813 C811 1.415 . S
C814 H804 0.930 . S
C814 C812 1.419 . S
C814 C815 1.362 . S
C815 H805 0.930 . S
C815 C808 1.409 . S
C815 C814 1.362 . S
H816 C822 0.930 . S
H817 C825 0.930 . S
H818 C826 0.930 . S
H819 C827 0.930 . S
H820 C830 0.930 . S
H821 C831 0.930 . S
C822 H816 0.930 . S
C822 C823 1.355 . S
C822 C824 1.415 . S
C823 C822 1.355 . S
C823 C825 1.419 . S
C824 C822 1.415 . S
C824 C829 1.425 . S
C824 C831 1.409 . S
C825 H817 0.930 . S
C825 C823 1.419 . S
C825 C826 1.362 . S
C826 H818 0.930 . S
C826 C825 1.362 . S
C826 C829 1.409 . S
C827 H819 0.930 . S
C827 C828 1.355 . S
C827 C829 1.415 . S
C828 C827 1.355 . S
C828 C830 1.419 . S
C829 C824 1.425 . S
C829 C826 1.409 . S
C829 C827 1.415 . S
C830 H820 0.930 . S
C830 C828 1.419 . S
C830 C831 1.362 . S
C831 H821 0.930 . S
C831 C824 1.409 . S
C831 C830 1.362 . S
H832 C838 0.930 . S
H833 C841 0.930 . S
H834 C842 0.930 . S
H835 C843 0.930 . S
H836 C846 0.930 . S
H837 C847 0.930 . S
C838 H832 0.930 . S
C838 C839 1.355 . S
C838 C840 1.415 . S
C839 C838 1.355 . S
C839 C841 1.419 . S
C840 C838 1.415 . S
C840 C845 1.425 . S
C840 C847 1.409 . S
C841 H833 0.930 . S
C841 C839 1.419 . S
C841 C842 1.362 . S
C842 H834 0.930 . S
C842 C841 1.362 . S
C842 C845 1.409 . S
C843 H835 0.930 . S
C843 C844 1.355 . S
C843 C845 1.415 . S
C844 C843 1.355 . S
C844 C846 1.419 . S
C845 C840 1.425 . S
C845 C842 1.409 . S
C845 C843 1.415 . S
C846 H836 0.930 . S
C846 C844 1.419 . S
C846 C847 1.362 . S
C847 H837 0.930 . S
C847 C840 1.409 . S
C847 C846 1.362 . S
H848 C854 0.930 . S
H849 C857 0.930 . S
H850 C858 0.930 . S
H851 C859 0.930 . S
H852 C862 0.930 . S
H853 C863 0.930 . S
C854 H848 0.930 . S
C854 C855 1.355 . S
C854 C856 1.415 . S
C855 C854 1.355 . S
C855 C857 1.419 . S
C856 C854 1.415 . S
C856 C861 1.425 . S
C856 C863 1.409 . S
C857 H849 0.930 . S
C857 C855 1.419 . S
C857 C858 1.362 . S
C858 H850 0.930 . S
C858 C857 1.362 . S
C858 C861 1.409 . S
C859 H851 0.930 . S
C859 C860 1.355 . S
C859 C861 1.415 . S
C860 C859 1.355 . S
C860 C862 1.419 . S
C861 C856 1.425 . S
C861 C858 1.409 . S
C861 C859 1.415 . S
C862 H852 0.930 . S
C862 C860 1.419 . S
C862 C863 1.362 . S
C863 H853 0.930 . S
C863 C856 1.409 . S
C863 C862 1.362 . S
H864 C870 0.930 . S
H865 C873 0.930 1_545 S
H866 C874 0.930 . S
H867 C875 0.930 . S
H868 C878 0.930 . S
H869 C879 0.930 . S
C870 H864 0.930 . S
C870 C871 1.355 . S
C870 C872 1.415 . S
C871 C870 1.355 . S
C871 C873 1.419 . S
C872 C870 1.415 . S
C872 C877 1.425 . S
C872 C879 1.409 . S
C873 H865 0.930 1_565 S
C873 C871 1.419 . S
C873 C874 1.362 . S
C874 H866 0.930 . S
C874 C873 1.362 . S
C874 C877 1.409 . S
C875 H867 0.930 . S
C875 C876 1.355 . S
C875 C877 1.415 . S
C876 C875 1.355 . S
C876 C878 1.419 . S
C877 C872 1.425 . S
C877 C874 1.409 . S
C877 C875 1.415 . S
C878 H868 0.930 . S
C878 C876 1.419 . S
C878 C879 1.362 . S
C879 H869 0.930 . S
C879 C872 1.409 . S
C879 C878 1.362 . S
H880 C886 0.930 . S
H881 C889 0.930 . S
H882 C890 0.930 1_545 S
H883 C891 0.930 1_545 S
H884 C894 0.930 . S
H885 C895 0.930 . S
C886 H880 0.930 . S
C886 C887 1.355 . S
C886 C888 1.415 . S
C887 C886 1.355 . S
C887 C889 1.419 . S
C888 C886 1.415 . S
C888 C893 1.425 . S
C888 C895 1.409 . S
C889 H881 0.930 . S
C889 C887 1.419 . S
C889 C890 1.362 . S
C890 H882 0.930 1_565 S
C890 C889 1.362 . S
C890 C893 1.409 . S
C891 H883 0.930 1_565 S
C891 C892 1.355 . S
C891 C893 1.415 . S
C892 C891 1.355 . S
C892 C894 1.419 . S
C893 C888 1.425 . S
C893 C890 1.409 . S
C893 C891 1.415 . S
C894 H884 0.930 . S
C894 C892 1.419 . S
C894 C895 1.362 . S
C895 H885 0.930 . S
C895 C888 1.409 . S
C895 C894 1.362 . S
H896 C902 0.930 1_565 S
H897 C905 0.930 . S
H898 C906 0.930 . S
H899 C907 0.930 . S
H900 C910 0.930 . S
H901 C911 0.930 . S
C902 H896 0.930 1_545 S
C902 C903 1.355 . S
C902 C904 1.415 . S
C903 C902 1.355 . S
C903 C905 1.419 . S
C904 C902 1.415 . S
C904 C909 1.425 . S
C904 C911 1.409 1_545 S
C905 H897 0.930 . S
C905 C903 1.419 . S
C905 C906 1.362 . S
C906 H898 0.930 . S
C906 C905 1.362 . S
C906 C909 1.409 . S
C907 H899 0.930 . S
C907 C908 1.355 . S
C907 C909 1.415 . S
C908 C907 1.355 . S
C908 C910 1.419 1_545 S
C909 C904 1.425 . S
C909 C906 1.409 . S
C909 C907 1.415 . S
C910 H900 0.930 . S
C910 C908 1.419 1_565 S
C910 C911 1.362 . S
C911 H901 0.930 . S
C911 C904 1.409 1_565 S
C911 C910 1.362 . S
H912 C918 0.930 . S
H913 C921 0.930 . S
H914 C922 0.929 . S
H915 C923 0.930 . S
H916 C926 0.930 . S
H917 C927 0.930 . S
C918 H912 0.930 . S
C918 C919 1.355 . S
C918 C920 1.415 . S
C919 C918 1.355 . S
C919 C921 1.419 . S
C920 C918 1.415 . S
C920 C925 1.425 . S
C920 C927 1.409 . S
C921 H913 0.930 . S
C921 C919 1.419 . S
C921 C922 1.363 1_545 S
C922 H914 0.929 . S
C922 C921 1.363 1_565 S
C922 C925 1.410 1_565 S
C923 H915 0.930 . S
C923 C924 1.355 1_565 S
C923 C925 1.415 1_565 S
C924 C923 1.355 1_545 S
C924 C926 1.419 . S
C925 C920 1.425 . S
C925 C922 1.410 1_545 S
C925 C923 1.415 1_545 S
C926 H916 0.930 . S
C926 C924 1.419 . S
C926 C927 1.362 . S
C927 H917 0.930 . S
C927 C920 1.409 . S
C927 C926 1.362 . S
H928 C934 0.930 . S
H929 C937 0.930 . S
H930 C938 0.930 . S
H931 C939 0.930 . S
H932 C942 0.930 . S
H933 C943 0.930 . S
C934 H928 0.930 . S
C934 C935 1.355 . S
C934 C936 1.415 . S
C935 C934 1.355 . S
C935 C937 1.419 . S
C936 C934 1.415 . S
C936 C941 1.425 . S
C936 C943 1.409 1_545 S
C937 H929 0.930 . S
C937 C935 1.419 . S
C937 C938 1.362 . S
C938 H930 0.930 . S
C938 C937 1.362 . S
C938 C941 1.409 . S
C939 H931 0.930 . S
C939 C940 1.355 . S
C939 C941 1.415 . S
C940 C939 1.355 . S
C940 C942 1.419 1_545 S
C941 C936 1.425 . S
C941 C938 1.409 . S
C941 C939 1.415 . S
C942 H932 0.930 . S
C942 C940 1.419 1_565 S
C942 C943 1.362 . S
C943 H933 0.930 . S
C943 C936 1.409 1_565 S
C943 C942 1.362 . S
H944 C950 0.930 . S
H945 C953 0.930 . S
H946 C954 0.930 . S
H947 C955 0.930 . S
H948 C958 0.930 . S
H949 C959 0.930 . S
C950 H944 0.930 . S
C950 C951 1.355 . S
C950 C952 1.415 . S
C951 C950 1.355 . S
C951 C953 1.419 . S
C952 C950 1.415 . S
C952 C957 1.425 . S
C952 C959 1.409 . S
C953 H945 0.930 . S
C953 C951 1.419 . S
C953 C954 1.362 . S
C954 H946 0.930 . S
C954 C953 1.362 . S
C954 C957 1.409 . S
C955 H947 0.930 . S
C955 C956 1.355 . S
C955 C957 1.415 . S
C956 C955 1.355 . S
C956 C958 1.419 . S
C957 C952 1.425 . S
C957 C954 1.409 . S
C957 C955 1.415 . S
C958 H948 0.930 . S
C958 C956 1.419 . S
C958 C959 1.362 . S
C959 H949 0.930 . S
C959 C952 1.409 . S
C959 C958 1.362 . S
H960 C966 0.930 1_545 S
H961 C969 0.930 . S
H962 C970 0.930 . S
H963 C971 0.930 . S
H964 C974 0.930 1_545 S
H965 C975 0.930 . S
C966 H960 0.930 1_565 S
C966 C967 1.355 . S
C966 C968 1.415 . S
C967 C966 1.355 . S
C967 C969 1.419 . S
C968 C966 1.415 . S
C968 C973 1.425 . S
C968 C975 1.409 1_565 S
C969 H961 0.930 . S
C969 C967 1.419 . S
C969 C970 1.362 . S
C970 H962 0.930 . S
C970 C969 1.362 . S
C970 C973 1.409 . S
C971 H963 0.930 . S
C971 C972 1.355 . S
C971 C973 1.415 . S
C972 C971 1.355 . S
C972 C974 1.419 . S
C973 C968 1.425 . S
C973 C970 1.409 . S
C973 C971 1.415 . S
C974 H964 0.930 1_565 S
C974 C972 1.419 . S
C974 C975 1.362 1_565 S
C975 H965 0.930 . S
C975 C968 1.409 1_545 S
C975 C974 1.362 1_545 S
H976 C982 0.930 1_545 S
H977 C985 0.930 . S
H978 C986 0.930 . S
H979 C987 0.930 . S
H980 C990 0.930 . S
H981 C991 0.930 . S
C982 H976 0.930 1_565 S
C982 C983 1.355 . S
C982 C984 1.415 . S
C983 C982 1.355 . S
C983 C985 1.419 . S
C984 C982 1.415 . S
C984 C989 1.425 . S
C984 C991 1.409 . S
C985 H977 0.930 . S
C985 C983 1.419 . S
C985 C986 1.362 . S
C986 H978 0.930 . S
C986 C985 1.362 . S
C986 C989 1.409 . S
C987 H979 0.930 . S
C987 C988 1.355 . S
C987 C989 1.415 . S
C988 C987 1.355 . S
C988 C990 1.419 . S
C989 C984 1.425 . S
C989 C986 1.409 . S
C989 C987 1.415 . S
C990 H980 0.930 . S
C990 C988 1.419 . S
C990 C991 1.362 . S
C991 H981 0.930 . S
C991 C984 1.409 . S
C991 C990 1.362 . S
H992 C998 0.939 . S
H993 C1001 0.930 . S
H994 C1002 0.930 . S
H995 C1003 0.939 . S
H996 C1006 0.930 . S
H997 C1007 0.930 . S
C998 H992 0.939 . S
C998 C999 1.355 . S
C998 C1000 1.415 1_455 S
C999 C998 1.355 . S
C999 C1001 1.419 . S
C1000 C998 1.415 1_655 S
C1000 C1005 1.425 1_655 S
C1000 C1007 1.409 . S
C1001 H993 0.930 . S
C1001 C999 1.419 . S
C1001 C1002 1.362 . S
C1002 H994 0.930 . S
C1002 C1001 1.362 . S
C1002 C1005 1.409 . S
C1003 H995 0.939 . S
C1003 C1004 1.355 . S
C1003 C1005 1.415 1_655 S
C1004 C1003 1.355 . S
C1004 C1006 1.419 . S
C1005 C1000 1.425 1_455 S
C1005 C1002 1.409 . S
C1005 C1003 1.415 1_455 S
C1006 H996 0.930 . S
C1006 C1004 1.419 . S
C1006 C1007 1.362 . S
C1007 H997 0.930 . S
C1007 C1000 1.409 . S
C1007 C1006 1.362 . S
H1008 C1014 0.930 . S
H1009 C1017 0.930 . S
H1010 C1018 0.930 . S
H1011 C1019 0.930 . S
H1012 C1022 0.930 . S
H1013 C1023 0.930 . S
C1014 H1008 0.930 . S
C1014 C1015 1.355 . S
C1014 C1016 1.415 1_455 S
C1015 C1014 1.355 . S
C1015 C1017 1.419 . S
C1016 C1014 1.415 1_655 S
C1016 C1021 1.425 1_655 S
C1016 C1023 1.409 . S
C1017 H1009 0.930 . S
C1017 C1015 1.419 . S
C1017 C1018 1.362 . S
C1018 H1010 0.930 . S
C1018 C1017 1.362 . S
C1018 C1021 1.409 . S
C1019 H1011 0.930 . S
C1019 C1020 1.355 . S
C1019 C1021 1.415 1_655 S
C1020 C1019 1.355 . S
C1020 C1022 1.419 . S
C1021 C1016 1.425 1_455 S
C1021 C1018 1.409 . S
C1021 C1019 1.415 1_455 S
C1022 H1012 0.930 . S
C1022 C1020 1.419 . S
C1022 C1023 1.362 . S
C1023 H1013 0.930 . S
C1023 C1016 1.409 . S
C1023 C1022 1.362 . S
H1024 C1030 0.930 . S
H1025 C1033 0.930 . S
H1026 C1034 0.930 . S
H1027 C1035 0.930 . S
H1028 C1038 0.930 . S
H1029 C1039 0.930 . S
C1030 H1024 0.930 . S
C1030 C1031 1.355 . S
C1030 C1032 1.415 . S
C1031 C1030 1.355 . S
C1031 C1033 1.419 . S
C1032 C1030 1.415 . S
C1032 C1037 1.425 . S
C1032 C1039 1.409 . S
C1033 H1025 0.930 . S
C1033 C1031 1.419 . S
C1033 C1034 1.362 . S
C1034 H1026 0.930 . S
C1034 C1033 1.362 . S
C1034 C1037 1.409 . S
C1035 H1027 0.930 . S
C1035 C1036 1.355 . S
C1035 C1037 1.415 . S
C1036 C1035 1.355 . S
C1036 C1038 1.419 . S
C1037 C1032 1.425 . S
C1037 C1034 1.409 . S
C1037 C1035 1.415 . S
C1038 H1028 0.930 . S
C1038 C1036 1.419 . S
C1038 C1039 1.362 . S
C1039 H1029 0.930 . S
C1039 C1032 1.409 . S
C1039 C1038 1.362 . S
H1040 C1046 0.930 . S
H1041 C1049 0.930 . S
H1042 C1050 0.930 . S
H1043 C1051 0.930 . S
H1044 C1054 0.930 . S
H1045 C1055 0.930 . S
C1046 H1040 0.930 . S
C1046 C1047 1.355 . S
C1046 C1048 1.415 . S
C1047 C1046 1.355 . S
C1047 C1049 1.419 . S
C1048 C1046 1.415 . S
C1048 C1053 1.425 . S
C1048 C1055 1.409 . S
C1049 H1041 0.930 . S
C1049 C1047 1.419 . S
C1049 C1050 1.362 . S
C1050 H1042 0.930 . S
C1050 C1049 1.362 . S
C1050 C1053 1.409 . S
C1051 H1043 0.930 . S
C1051 C1052 1.355 . S
C1051 C1053 1.415 . S
C1052 C1051 1.355 . S
C1052 C1054 1.419 . S
C1053 C1048 1.425 . S
C1053 C1050 1.409 . S
C1053 C1051 1.415 . S
C1054 H1044 0.930 . S
C1054 C1052 1.419 . S
C1054 C1055 1.362 . S
C1055 H1045 0.930 . S
C1055 C1048 1.409 . S
C1055 C1054 1.362 . S
H1056 C1062 0.930 . S
H1057 C1065 0.930 . S
H1058 C1066 0.930 . S
H1059 C1067 0.930 . S
H1060 C1070 0.930 . S
H1061 C1071 0.930 . S
C1062 H1056 0.930 . S
C1062 C1063 1.355 . S
C1062 C1064 1.415 . S
C1063 C1062 1.355 . S
C1063 C1065 1.419 . S
C1064 C1062 1.415 . S
C1064 C1069 1.425 1_455 S
C1064 C1071 1.409 . S
C1065 H1057 0.930 . S
C1065 C1063 1.419 . S
C1065 C1066 1.362 1_455 S
C1066 H1058 0.930 . S
C1066 C1065 1.362 1_655 S
C1066 C1069 1.409 . S
C1067 H1059 0.930 . S
C1067 C1068 1.355 . S
C1067 C1069 1.415 . S
C1068 C1067 1.355 . S
C1068 C1070 1.419 . S
C1069 C1064 1.425 1_655 S
C1069 C1066 1.409 . S
C1069 C1067 1.415 . S
C1070 H1060 0.930 . S
C1070 C1068 1.419 . S
C1070 C1071 1.362 1_655 S
C1071 H1061 0.930 . S
C1071 C1064 1.409 . S
C1071 C1070 1.362 1_455 S
H1072 C1078 0.930 . S
H1073 C1081 0.930 . S
H1074 C1082 0.930 . S
H1075 C1083 0.930 . S
H1076 C1086 0.930 . S
H1077 C1087 0.930 . S
C1078 H1072 0.930 . S
C1078 C1079 1.355 . S
C1078 C1080 1.415 1_655 S
C1079 C1078 1.355 . S
C1079 C1081 1.419 . S
C1080 C1078 1.415 1_455 S
C1080 C1085 1.425 1_455 S
C1080 C1087 1.409 . S
C1081 H1073 0.930 . S
C1081 C1079 1.419 . S
C1081 C1082 1.362 . S
C1082 H1074 0.930 . S
C1082 C1081 1.362 . S
C1082 C1085 1.409 . S
C1083 H1075 0.930 . S
C1083 C1084 1.355 . S
C1083 C1085 1.415 1_455 S
C1084 C1083 1.355 . S
C1084 C1086 1.419 . S
C1085 C1080 1.425 1_655 S
C1085 C1082 1.409 . S
C1085 C1083 1.415 1_655 S
C1086 H1076 0.930 . S
C1086 C1084 1.419 . S
C1086 C1087 1.362 . S
C1087 H1077 0.930 . S
C1087 C1080 1.409 . S
C1087 C1086 1.362 . S
H1088 C1094 0.930 . S
H1089 C1097 0.930 . S
H1090 C1098 0.930 . S
H1091 C1099 0.930 . S
H1092 C1102 0.930 . S
H1093 C1103 0.930 . S
C1094 H1088 0.930 . S
C1094 C1095 1.355 . S
C1094 C1096 1.415 . S
C1095 C1094 1.355 . S
C1095 C1097 1.419 . S
C1096 C1094 1.415 . S
C1096 C1101 1.425 . S
C1096 C1103 1.409 . S
C1097 H1089 0.930 . S
C1097 C1095 1.419 . S
C1097 C1098 1.362 . S
C1098 H1090 0.930 . S
C1098 C1097 1.362 . S
C1098 C1101 1.409 . S
C1099 H1091 0.930 . S
C1099 C1100 1.355 . S
C1099 C1101 1.415 . S
C1100 C1099 1.355 . S
C1100 C1102 1.419 . S
C1101 C1096 1.425 . S
C1101 C1098 1.409 . S
C1101 C1099 1.415 . S
C1102 H1092 0.930 . S
C1102 C1100 1.419 . S
C1102 C1103 1.362 . S
C1103 H1093 0.930 . S
C1103 C1096 1.409 . S
C1103 C1102 1.362 . S
H1104 C1110 0.930 . S
H1105 C1113 0.930 . S
H1106 C1114 0.930 . S
H1107 C1115 0.930 . S
H1108 C1118 0.930 . S
H1109 C1119 0.930 . S
C1110 H1104 0.930 . S
C1110 C1111 1.355 . S
C1110 C1112 1.415 . S
C1111 C1110 1.355 . S
C1111 C1113 1.419 . S
C1112 C1110 1.415 . S
C1112 C1117 1.425 . S
C1112 C1119 1.409 . S
C1113 H1105 0.930 . S
C1113 C1111 1.419 . S
C1113 C1114 1.362 . S
C1114 H1106 0.930 . S
C1114 C1113 1.362 . S
C1114 C1117 1.409 . S
C1115 H1107 0.930 . S
C1115 C1116 1.355 . S
C1115 C1117 1.415 . S
C1116 C1115 1.355 . S
C1116 C1118 1.419 . S
C1117 C1112 1.425 . S
C1117 C1114 1.409 . S
C1117 C1115 1.415 . S
C1118 H1108 0.930 . S
C1118 C1116 1.419 . S
C1118 C1119 1.362 . S
C1119 H1109 0.930 . S
C1119 C1112 1.409 . S
C1119 C1118 1.362 . S
C359 C15 1.502 . S
C364 C140 1.411 . S
C375 C348 1.457 . S
C380 C29 1.500 . S
C391 C51 1.502 . S
C396 C98 1.447 . S
C407 C304 1.451 . S
C412 C73 1.502 . S
C423 C52 1.450 . S
C428 C109 1.490 . S
C439 C250 1.425 . S
C444 C125 1.495 . S
C455 C139 1.494 . S
C460 C18 1.429 . S
C471 C169 1.496 . S
C476 C216 1.472 . S
C487 C183 1.495 1_565 S
C492 C316 1.425 . S
C503 C213 1.491 . S
C508 C172 1.482 . S
C519 C274 1.451 . S
C524 C227 1.502 1_545 S
C535 C128 1.481 . S
C540 C249 1.492 . S
C551 C228 1.435 . S
C556 C285 1.504 1_545 S
C567 C301 1.495 . S
C572 C74 1.424 . S
C583 C184 1.414 . S
C588 C315 1.499 1_565 S
C599 C30 1.474 . S
C604 C345 1.488 . S
C615 C21 0.635 . S
C620 C271 0.635 . S
C631 C37 0.587 . S
C636 C131 0.587 . S
C647 C59 0.474 . S
C652 C323 0.474 . S
C663 C175 0.656 . S
C668 C81 0.656 . S
C679 C95 0.681 . S
C684 C191 0.681 . S
C695 C235 0.554 . S
C700 C147 0.554 . S
C711 C219 0.654 . S
C716 C307 0.654 . S
C727 C351 0.552 . S
C732 C257 0.552 . S
C743 C10 1.465 . S
C748 C43 1.479 . S
C759 C65 1.491 . S
C764 C40 1.476 . S
C775 C62 1.451 . S
C780 C87 1.455 . S
C791 C84 1.491 . S
C796 C7 1.486 . S
C807 C117 1.518 . S
C812 C96 1.521 . S
C823 C153 1.488 . S
C828 C120 1.493 . S
C839 C161 1.455 . S
C844 C150 1.453 . S
C855 C103 1.528 . S
C860 C164 1.528 . S
C871 C194 1.515 . S
C876 C205 1.525 . S
C887 C208 1.451 . S
C892 C241 1.463 . S
C903 C263 1.461 . S
C908 C238 1.450 . S
C919 C260 1.449 . S
C924 C197 1.454 . S
C935 C293 1.465 . S
C940 C272 1.453 . S
C951 C296 1.456 . S
C956 C329 1.469 . S
C967 C326 1.512 . S
C972 C337 1.508 . S
C983 C279 1.474 . S
C988 C340 1.460 . S
C999 C8 1.521 . S
C1004 C230 1.574 . S
C1015 C32 1.574 . S
C1020 C252 1.539 . S
C1031 C54 1.553 . S
C1036 C186 1.537 . S
C1047 C206 1.527 . S
C1052 C76 1.565 . S
C1063 C318 1.560 . S
C1068 C106 1.556 . S
C1079 C118 1.534 . S
C1084 C338 1.578 . S
C1095 C142 1.523 . S
C1100 C282 1.583 . S
C1111 C294 1.548 . S
C1116 C162 1.567 . S
