# Generated by pormake.
# Topology upb, (4)-cn, num edge types: 1
# Building blocks:
#     Node 0, Type 0, BuildingBlock: GALJAG_clean_sbu_0, # of connection points: 4
#     Node 1, Type 0, BuildingBlock: GALJAG_clean_sbu_0, # of connection points: 4
#     Node 2, Type 0, BuildingBlock: GALJAG_clean_sbu_0, # of connection points: 4
#     Node 3, Type 0, BuildingBlock: GALJAG_clean_sbu_0, # of connection points: 4
#     Node 4, Type 0, BuildingBlock: GALJAG_clean_sbu_0, # of connection points: 4
#     Node 5, Type 0, BuildingBlock: GALJAG_clean_sbu_0, # of connection points: 4
#     Node 6, Type 0, BuildingBlock: GALJAG_clean_sbu_0, # of connection points: 4
#     Node 7, Type 0, BuildingBlock: GALJAG_clean_sbu_0, # of connection points: 4
#     Node 8, Type 0, BuildingBlock: GALJAG_clean_sbu_0, # of connection points: 4
#     Node 9, Type 0, BuildingBlock: GALJAG_clean_sbu_0, # of connection points: 4
#     Node 10, Type 0, BuildingBlock: GALJAG_clean_sbu_0, # of connection points: 4
#     Node 11, Type 0, BuildingBlock: GALJAG_clean_sbu_0, # of connection points: 4
#     Node 12, Type 0, BuildingBlock: GALJAG_clean_sbu_0, # of connection points: 4
#     Node 13, Type 0, BuildingBlock: GALJAG_clean_sbu_0, # of connection points: 4
#     Node 14, Type 0, BuildingBlock: GALJAG_clean_sbu_0, # of connection points: 4
#     Node 15, Type 0, BuildingBlock: GALJAG_clean_sbu_0, # of connection points: 4
#     Edge 16, Type (0, 0), BuildingBlock: AJUNOK_clean_linker_0, # of connection points: 2
#     Edge 17, Type (0, 0), BuildingBlock: AJUNOK_clean_linker_0, # of connection points: 2
#     Edge 18, Type (0, 0), BuildingBlock: AJUNOK_clean_linker_0, # of connection points: 2
#     Edge 19, Type (0, 0), BuildingBlock: AJUNOK_clean_linker_0, # of connection points: 2
#     Edge 20, Type (0, 0), BuildingBlock: AJUNOK_clean_linker_0, # of connection points: 2
#     Edge 21, Type (0, 0), BuildingBlock: AJUNOK_clean_linker_0, # of connection points: 2
#     Edge 22, Type (0, 0), BuildingBlock: AJUNOK_clean_linker_0, # of connection points: 2
#     Edge 23, Type (0, 0), BuildingBlock: AJUNOK_clean_linker_0, # of connection points: 2
#     Edge 24, Type (0, 0), BuildingBlock: AJUNOK_clean_linker_0, # of connection points: 2
#     Edge 25, Type (0, 0), BuildingBlock: AJUNOK_clean_linker_0, # of connection points: 2
#     Edge 26, Type (0, 0), BuildingBlock: AJUNOK_clean_linker_0, # of connection points: 2
#     Edge 27, Type (0, 0), BuildingBlock: AJUNOK_clean_linker_0, # of connection points: 2
#     Edge 28, Type (0, 0), BuildingBlock: AJUNOK_clean_linker_0, # of connection points: 2
#     Edge 29, Type (0, 0), BuildingBlock: AJUNOK_clean_linker_0, # of connection points: 2
#     Edge 30, Type (0, 0), BuildingBlock: AJUNOK_clean_linker_0, # of connection points: 2
#     Edge 31, Type (0, 0), BuildingBlock: AJUNOK_clean_linker_0, # of connection points: 2
#     Edge 32, Type (0, 0), BuildingBlock: AJUNOK_clean_linker_0, # of connection points: 2
#     Edge 33, Type (0, 0), BuildingBlock: AJUNOK_clean_linker_0, # of connection points: 2
#     Edge 34, Type (0, 0), BuildingBlock: AJUNOK_clean_linker_0, # of connection points: 2
#     Edge 35, Type (0, 0), BuildingBlock: AJUNOK_clean_linker_0, # of connection points: 2
#     Edge 36, Type (0, 0), BuildingBlock: AJUNOK_clean_linker_0, # of connection points: 2
#     Edge 37, Type (0, 0), BuildingBlock: AJUNOK_clean_linker_0, # of connection points: 2
#     Edge 38, Type (0, 0), BuildingBlock: AJUNOK_clean_linker_0, # of connection points: 2
#     Edge 39, Type (0, 0), BuildingBlock: AJUNOK_clean_linker_0, # of connection points: 2
#     Edge 40, Type (0, 0), BuildingBlock: AJUNOK_clean_linker_0, # of connection points: 2
#     Edge 41, Type (0, 0), BuildingBlock: AJUNOK_clean_linker_0, # of connection points: 2
#     Edge 42, Type (0, 0), BuildingBlock: AJUNOK_clean_linker_0, # of connection points: 2
#     Edge 43, Type (0, 0), BuildingBlock: AJUNOK_clean_linker_0, # of connection points: 2
#     Edge 44, Type (0, 0), BuildingBlock: AJUNOK_clean_linker_0, # of connection points: 2
#     Edge 45, Type (0, 0), BuildingBlock: AJUNOK_clean_linker_0, # of connection points: 2
#     Edge 46, Type (0, 0), BuildingBlock: AJUNOK_clean_linker_0, # of connection points: 2
#     Edge 47, Type (0, 0), BuildingBlock: AJUNOK_clean_linker_0, # of connection points: 2
# Relax obj value: 0.253
# Max RMSD: 0.089
# Mean RMSD: 0.089
data_MOF--net-upb--node1-GALJAG_clean_sbu_0--edge1-AJUNOK_clean_linker_0
_symmetry_space_group_name_H-M    P1
_symmetry_Int_Tables_number       1
_symmetry_cell_setting            triclinic
loop_
_symmetry_equiv_pos_as_xyz
'x, y, z'
_cell_length_a     32.671726
_cell_length_b     32.720002
_cell_length_c     26.982615
_cell_angle_alpha  89.979388
_cell_angle_beta   89.829734
_cell_angle_gamma 89.995923
loop_
_atom_site_label
_atom_site_type_symbol
_atom_site_fract_x
_atom_site_fract_y
_atom_site_fract_z
_atom_type_partial_charge
In0 In 0.05976 0.21335 0.29827 0.0
O1 O 0.11934 0.1797 0.31365 0.0
O2 O 0.09772 0.1803 0.23949 0.0
C3 C 0.03326 0.21582 0.39248 0.0
C4 C 0.08207 0.29028 0.27392 0.0
C5 C 0.99567 0.16863 0.26752 0.0
O6 O 0.06898 0.20416 0.38127 0.0
O7 O 0.01154 0.22719 0.35644 0.0
O8 O 0.99741 0.20685 0.26024 0.0
O9 O 0.0267 0.15361 0.2884 0.0
C10 C 0.12468 0.16818 0.26945 0.0
O11 O 0.06502 0.26668 0.24323 0.0
O12 O 0.08661 0.27526 0.31643 0.0
In13 In 0.77338 0.04121 0.29966 0.0
O14 O 0.84212 0.04839 0.3041 0.0
O15 O 0.80993 0.09111 0.2594 0.0
C16 C 0.76794 0.03085 0.39832 0.0
C17 C 0.70924 0.09025 0.28044 0.0
C18 C 0.78068 0.96525 0.26092 0.0
O19 O 0.79964 0.04497 0.37767 0.0
O20 O 0.73919 0.02206 0.36914 0.0
O21 O 0.76151 0.97281 0.30037 0.0
O22 O 0.79258 0.99672 0.23807 0.0
C23 C 0.84401 0.07893 0.27568 0.0
O24 O 0.71665 0.05901 0.25423 0.0
O25 O 0.73475 0.09676 0.31436 0.0
In26 In 0.94782 0.77763 0.29325 0.0
O27 O 0.9406 0.72642 0.23561 0.0
O28 O 0.92047 0.71573 0.30916 0.0
C29 C 0.01412 0.82133 0.26666 0.0
C30 C 0.88331 0.82471 0.26775 0.0
C31 C 0.97104 0.76916 0.38788 0.0
O32 O 0.01071 0.78385 0.25574 0.0
O33 O 0.98353 0.83635 0.28871 0.0
O34 O 0.93659 0.78365 0.376 0.0
O35 O 0.99371 0.75891 0.35203 0.0
C36 C 0.92368 0.70214 0.26579 0.0
O37 O 0.88909 0.81173 0.3112 0.0
O38 O 0.90992 0.81347 0.23662 0.0
In39 In 0.23513 0.95328 0.2988 0.0
O40 O 0.28999 0.93624 0.24943 0.0
O41 O 0.28488 0.90818 0.31987 0.0
C42 C 0.22469 0.02658 0.25495 0.0
C43 C 0.16614 0.91148 0.2773 0.0
C44 C 0.23314 0.97126 0.39616 0.0
O45 O 0.20516 0.99511 0.24192 0.0
O46 O 0.25231 0.01992 0.28652 0.0
O47 O 0.22306 0.93656 0.37984 0.0
O48 O 0.2447 0.99632 0.36357 0.0
C49 C 0.30496 0.91139 0.28024 0.0
O50 O 0.16742 0.94072 0.30762 0.0
O51 O 0.20007 0.90283 0.25736 0.0
In52 In 0.04707 0.77431 0.68613 0.0
O53 O 0.1056 0.8111 0.6751 0.0
O54 O 0.075 0.81641 0.74432 0.0
C55 C 0.02608 0.7638 0.59126 0.0
C56 C 0.07554 0.7005 0.71367 0.0
C57 C 0.97599 0.81238 0.70392 0.0
O58 O 0.05766 0.78366 0.60369 0.0
O59 O 0.00621 0.74801 0.62664 0.0
O60 O 0.98427 0.77876 0.72498 0.0
O61 O 0.00402 0.82685 0.677 0.0
C62 C 0.10448 0.82762 0.7173 0.0
O63 O 0.0547 0.7224 0.74296 0.0
O64 O 0.08118 0.71581 0.67148 0.0
In65 In 0.22794 0.04527 0.6972 0.0
O66 O 0.1896 0.10099 0.67742 0.0
O67 O 0.18296 0.07639 0.75001 0.0
C68 C 0.22689 0.02057 0.6021 0.0
C69 C 0.30069 0.07861 0.72322 0.0
C70 C 0.19864 0.97427 0.73311 0.0
O71 O 0.2115 0.05413 0.61573 0.0
O72 O 0.24308 -8e-05 0.63619 0.0
O73 O 0.23611 0.97907 0.7229 0.0
O74 O 0.17678 0.00563 0.72725 0.0
C75 C 0.17194 0.10311 0.71902 0.0
O76 O 0.27714 0.06208 0.75447 0.0
O77 O 0.28788 0.07722 0.67945 0.0
In78 In 0.95074 0.22374 0.69067 0.0
O79 O 0.93767 0.27735 0.7434 0.0
O80 O 0.91725 0.28171 0.66923 0.0
C81 C 0.02208 0.19445 0.72542 0.0
C82 C 0.88974 0.17377 0.7203 0.0
C83 C 0.97472 0.21972 0.59522 0.0
O84 O 0.01613 0.23221 0.71872 0.0
O85 O 0.99144 0.17203 0.71727 0.0
O86 O 0.9437 0.20078 0.61116 0.0
O87 O 0.99324 0.2407 0.6272 0.0
C88 C 0.9188 0.29809 0.7113 0.0
O89 O 0.89219 0.18818 0.67699 0.0
O90 O 0.91827 0.18445 0.74901 0.0
In91 In 0.76534 0.96092 0.70035 0.0
O92 O 0.80728 0.91488 0.66441 0.0
O93 O 0.81006 0.91937 0.74274 0.0
C94 C 0.7639 0.98879 0.6068 0.0
C95 C 0.69677 0.91954 0.72572 0.0
C96 C 0.78673 0.03343 0.74088 0.0
O97 O 0.7966 0.97878 0.62844 0.0
O98 O 0.73182 0.98495 0.63263 0.0
O99 O 0.75355 0.02823 0.71806 0.0
O100 O 0.80684 0.00108 0.74769 0.0
C101 C 0.824 0.90295 0.70383 0.0
O102 O 0.71696 0.93972 0.75722 0.0
O103 O 0.71113 0.92076 0.68252 0.0
In104 In 0.54327 0.72129 0.7955 0.0
O105 O 0.55651 0.77551 0.74374 0.0
O106 O 0.58326 0.77552 0.81514 0.0
C107 C 0.47022 0.69768 0.75878 0.0
C108 C 0.60256 0.6695 0.7662 0.0
C109 C 0.51983 0.71412 0.89105 0.0
O110 O 0.47595 0.73298 0.77628 0.0
O111 O 0.50171 0.67553 0.75741 0.0
O112 O 0.54088 0.68709 0.86943 0.0
O113 O 0.51144 0.74477 0.86467 0.0
C114 C 0.57955 0.79353 0.77422 0.0
O115 O 0.60084 0.68408 0.80952 0.0
O116 O 0.57465 0.68153 0.73738 0.0
In117 In 0.26669 0.54817 0.79622 0.0
O118 O 0.30637 0.60363 0.81281 0.0
O119 O 0.30768 0.57996 0.73942 0.0
C120 C 0.26815 0.52543 0.89206 0.0
C121 C 0.19313 0.57995 0.77113 0.0
C122 C 0.29716 0.47734 0.7614 0.0
O123 O 0.28355 0.55862 0.87721 0.0
O124 O 0.25195 0.50396 0.85871 0.0
O125 O 0.25943 0.48199 0.77021 0.0
O126 O 0.31882 0.50865 0.76855 0.0
C127 C 0.32114 0.60613 0.76963 0.0
O128 O 0.21546 0.56122 0.74046 0.0
O129 O 0.20757 0.58162 0.81417 0.0
In130 In 0.44533 0.2754 0.80849 0.0
O131 O 0.43786 0.22335 0.75189 0.0
O132 O 0.41115 0.21673 0.82313 0.0
C133 C 0.51713 0.31208 0.7908 0.0
C134 C 0.38919 0.32926 0.77528 0.0
C135 C 0.46358 0.26795 0.90473 0.0
O136 O 0.50907 0.27768 0.77157 0.0
O137 O 0.48863 0.32782 0.81588 0.0
O138 O 0.43195 0.28657 0.88999 0.0
O139 O 0.48515 0.25199 0.87097 0.0
C140 C 0.41655 0.20158 0.78082 0.0
O141 O 0.38646 0.31203 0.81696 0.0
O142 O 0.41958 0.31837 0.7496 0.0
In143 In 0.73071 0.45799 0.79017 0.0
O144 O 0.77533 0.43492 0.73016 0.0
O145 O 0.79358 0.43126 0.80501 0.0
C146 C 0.70464 0.52818 0.74808 0.0
C147 C 0.66821 0.40384 0.78946 0.0
C148 C 0.73723 0.47877 0.88602 0.0
O149 O 0.73925 0.52493 0.76835 0.0
O150 O 0.68479 0.49523 0.74567 0.0
O151 O 0.73572 0.44204 0.87178 0.0
O152 O 0.73607 0.50499 0.85171 0.0
C153 C 0.80234 0.42379 0.76063 0.0
O154 O 0.67596 0.42745 0.82495 0.0
O155 O 0.69215 0.40742 0.75288 0.0
In156 In 0.54354 0.27555 0.20317 0.0
O157 O 0.59903 0.31306 0.1795 0.0
O158 O 0.57067 0.3277 0.24834 0.0
C159 C 0.51826 0.27263 0.10836 0.0
C160 C 0.58179 0.20742 0.23611 0.0
C161 C 0.47101 0.30042 0.23991 0.0
O162 O 0.55223 0.28803 0.12036 0.0
O163 O 0.49764 0.25838 0.14381 0.0
O164 O 0.47822 0.26328 0.23044 0.0
O165 O 0.50085 0.32421 0.23312 0.0
C166 C 0.5988 0.33546 0.21761 0.0
O167 O 0.5687 0.23471 0.26502 0.0
O168 O 0.57353 0.2135 0.1913 0.0
In169 In 0.73228 0.55112 0.18752 0.0
O170 O 0.69427 0.60693 0.16865 0.0
O171 O 0.69632 0.5887 0.2443 0.0
C172 C 0.73443 0.52747 0.09237 0.0
C173 C 0.8069 0.58065 0.21094 0.0
C174 C 0.69679 0.48181 0.22012 0.0
O175 O 0.71583 0.55934 0.10623 0.0
O176 O 0.75205 0.50794 0.12644 0.0
O177 O 0.73516 0.48537 0.21624 0.0
O178 O 0.67682 0.51371 0.21027 0.0
C179 C 0.68247 0.61347 0.21255 0.0
O180 O 0.78454 0.56282 0.2425 0.0
O181 O 0.79174 0.58267 0.1683 0.0
In182 In 0.45978 0.72021 0.19631 0.0
O183 O 0.39657 0.69073 0.18698 0.0
O184 O 0.43945 0.66129 0.23367 0.0
C185 C 0.4698 0.71045 0.09771 0.0
C186 C 0.42796 0.79083 0.23189 0.0
C187 C 0.53798 0.71129 0.22744 0.0
O188 O 0.48036 0.68354 0.12861 0.0
O189 O 0.45277 0.74136 0.11656 0.0
O190 O 0.50793 0.69592 0.25008 0.0
O191 O 0.52815 0.73417 0.19186 0.0
C192 C 0.40409 0.66097 0.21523 0.0
O193 O 0.443 0.78746 0.18916 0.0
O194 O 0.43109 0.75903 0.25803 0.0
In195 In 0.26839 0.44659 0.19108 0.0
O196 O 0.3089 0.39119 0.17677 0.0
O197 O 0.30579 0.41434 0.25043 0.0
C198 C 0.26753 0.47047 0.09595 0.0
C199 C 0.19458 0.41553 0.21649 0.0
C200 C 0.30402 0.51608 0.22181 0.0
O201 O 0.28241 0.43652 0.10906 0.0
O202 O 0.25216 0.49146 0.13044 0.0
O203 O 0.26549 0.51261 0.21937 0.0
O204 O 0.32377 0.48418 0.21115 0.0
C205 C 0.3211 0.38846 0.22104 0.0
O206 O 0.21577 0.43628 0.24636 0.0
O207 O 0.21013 0.41191 0.17405 0.0
C208 C 0.19036 0.13261 0.28739 0.0
C209 C 0.15657 0.13808 0.25599 0.0
C210 C 0.21586 0.09843 0.28267 0.0
C211 C 0.20786 0.06803 0.24706 0.0
H212 H 0.19572 0.15358 0.31775 0.0
H213 H 0.23961 0.09408 0.31011 0.0
S214 S 0.12767 0.07174 0.15023 0.0
N215 N 0.12017 0.11356 0.18329 0.0
N216 N 0.16751 0.04866 0.1753 0.0
C217 C 0.17668 0.07521 0.21236 0.0
C218 C 0.15109 0.11042 0.21665 0.0
C219 C 0.9204 0.16376 0.25135 0.0
C220 C 0.9581 0.1442 0.25988 0.0
C221 C 0.88343 0.14197 0.25381 0.0
C222 C 0.88302 0.10004 0.26526 0.0
H223 H 0.91921 0.19647 0.2453 0.0
H224 H 0.85496 0.15852 0.24935 0.0
S225 S 0.97365 0.03325 0.28213 0.0
N226 N 0.9929 0.07937 0.27362 0.0
N227 N 0.92352 0.03877 0.27889 0.0
C228 C 0.92059 0.07963 0.27036 0.0
C229 C 0.95813 0.10163 0.26744 0.0
C230 C 0.79203 0.89335 0.28728 0.0
C231 C 0.79815 0.92415 0.25155 0.0
C232 C 0.81809 0.85949 0.28997 0.0
C233 C 0.85078 0.85474 0.25652 0.0
H234 H 0.76914 0.89699 0.31608 0.0
H235 H 0.81404 0.83817 0.32033 0.0
S236 S 0.87453 0.922 0.14954 0.0
N237 N 0.83536 0.94437 0.17726 0.0
N238 N 0.88395 0.88017 0.18181 0.0
C239 C 0.85433 0.88271 0.21714 0.0
C240 C 0.82801 0.91755 0.21471 0.0
C241 C 0.0536 0.88542 0.27871 0.0
C242 C 0.05251 0.84498 0.26104 0.0
C243 C 0.0904 0.90693 0.28212 0.0
C244 C 0.12767 0.88913 0.26754 0.0
H245 H 0.02601 0.90023 0.29198 0.0
H246 H 0.08966 0.9375 0.29751 0.0
S247 S 0.14123 0.78564 0.21383 0.0
N248 N 0.09163 0.78894 0.22527 0.0
N249 N 0.16104 0.82983 0.2311 0.0
C250 C 0.12689 0.84962 0.24701 0.0
C251 C 0.08925 0.82744 0.24389 0.0
C252 C 0.17043 0.86508 0.7069 0.0
C253 C 0.13235 0.8613 0.73092 0.0
C254 C 0.19407 0.90058 0.71192 0.0
C255 C 0.17985 0.93379 0.74017 0.0
H256 H 0.18118 0.84122 0.68224 0.0
H257 H 0.222 0.90324 0.6904 0.0
S258 S 0.08444 0.93765 0.81456 0.0
N259 N 0.08356 0.89217 0.78804 0.0
N260 N 0.1274 0.95946 0.79593 0.0
C261 C 0.14317 0.92941 0.76683 0.0
C262 C 0.11954 0.89294 0.76263 0.0
C263 C 0.10407 0.11769 0.75736 0.0
C264 C 0.13719 0.13094 0.72807 0.0
C265 C 0.06736 0.13986 0.75887 0.0
C266 C 0.06308 0.17665 0.73249 0.0
H267 H 0.10551 0.08864 0.77658 0.0
H268 H 0.0416 0.1273 0.77917 0.0
S269 S 0.14234 0.2266 0.65469 0.0
N270 N 0.16445 0.18438 0.67487 0.0
N271 N 0.09597 0.22688 0.67924 0.0
C272 C 0.09699 0.19171 0.70603 0.0
C273 C 0.13395 0.16859 0.70339 0.0
C274 C 0.86819 0.11196 0.76795 0.0
C275 C 0.85849 0.14315 0.73411 0.0
C276 C 0.84262 0.07781 0.77359 0.0
C277 C 0.80613 0.0741 0.7463 0.0
H278 H 0.89712 0.11242 0.78747 0.0
H279 H 0.85281 0.05299 0.7971 0.0
S280 S 0.76354 0.15148 0.65993 0.0
N281 N 0.80767 0.17097 0.67794 0.0
N282 N 0.75904 0.10745 0.68936 0.0
C283 C 0.79419 0.10715 0.71618 0.0
C284 C 0.82061 0.14148 0.70976 0.0
C285 C 0.87639 0.86005 0.74794 0.0
C286 C 0.86008 0.87556 0.70339 0.0
C287 C 0.91321 0.83771 0.74819 0.0
C288 C 0.9351 0.83117 0.70405 0.0
H289 H 0.86112 0.86595 0.78289 0.0
H290 H 0.92544 0.8271 0.78317 0.0
S291 S 0.90432 0.86221 0.57735 0.0
N292 N 0.8676 0.87981 0.61363 0.0
N293 N 0.93696 0.83923 0.61463 0.0
C294 C 0.91847 0.84521 0.65929 0.0
C295 C 0.88087 0.86705 0.6588 0.0
C296 C 0.6696 0.63471 0.77839 0.0
C297 C 0.63249 0.63762 0.75241 0.0
C298 C 0.6953 0.60077 0.77255 0.0
C299 C 0.68425 0.5681 0.74145 0.0
H300 H 0.67798 0.65796 0.80508 0.0
H301 H 0.72231 0.59874 0.79564 0.0
S302 S 0.59273 0.56315 0.6608 0.0
N303 N 0.58817 0.60715 0.69028 0.0
N304 N 0.63589 0.54264 0.68061 0.0
C305 C 0.64869 0.57196 0.71268 0.0
C306 C 0.62292 0.60694 0.71785 0.0
C307 C 0.39659 0.69307 0.78173 0.0
C308 C 0.42908 0.68019 0.7512 0.0
C309 C 0.36053 0.67004 0.78544 0.0
C310 C 0.35537 0.63398 0.75783 0.0
H311 H 0.40021 0.71931 0.80581 0.0
H312 H 0.3373 0.67954 0.81176 0.0
S313 S 0.4292 0.59035 0.66751 0.0
N314 N 0.45243 0.63129 0.68957 0.0
N315 N 0.3841 0.58871 0.69526 0.0
C316 C 0.38621 0.62272 0.72404 0.0
C317 C 0.42327 0.64568 0.72107 0.0
C318 C 0.30012 0.40277 0.77842 0.0
C319 C 0.31607 0.437 0.7535 0.0
C320 C 0.3231 0.36679 0.78281 0.0
C321 C 0.36225 0.36357 0.76138 0.0
H322 H 0.27117 0.40482 0.79796 0.0
H323 H 0.31093 0.34203 0.8051 0.0
S324 S 0.41498 0.44279 0.68632 0.0
N325 N 0.37141 0.46434 0.70319 0.0
N326 N 0.41409 0.39622 0.70992 0.0
C327 C 0.37693 0.39637 0.7327 0.0
C328 C 0.35393 0.43328 0.72918 0.0
C329 C 0.61785 0.35754 0.74688 0.0
C330 C 0.63244 0.37612 0.79054 0.0
C331 C 0.58116 0.33495 0.74701 0.0
C332 C 0.55805 0.33078 0.79069 0.0
H333 H 0.63405 0.36162 0.71216 0.0
H334 H 0.56997 0.32229 0.71253 0.0
S335 S 0.58591 0.36782 0.91598 0.0
N336 N 0.62303 0.38442 0.87959 0.0
N337 N 0.55424 0.34285 0.87937 0.0
C338 C 0.57345 0.34725 0.83487 0.0
C339 C 0.61065 0.36971 0.83493 0.0
C340 C 0.63774 0.44079 0.25065 0.0
C341 C 0.67605 0.44222 0.2269 0.0
C342 C 0.61389 0.4052 0.24979 0.0
C343 C 0.62699 0.37032 0.22376 0.0
H344 H 0.62559 0.46777 0.26873 0.0
H345 H 0.58405 0.40577 0.26742 0.0
S346 S 0.72574 0.35792 0.15736 0.0
N347 N 0.72706 0.40511 0.17901 0.0
N348 N 0.68155 0.33863 0.17589 0.0
C349 C 0.66582 0.37092 0.20124 0.0
C350 C 0.69057 0.4068 0.20324 0.0
C351 C 0.60788 0.70009 0.19328 0.0
C352 C 0.57996 0.69478 0.23258 0.0
C353 C 0.64263 0.67531 0.1889 0.0
C354 C 0.65114 0.64475 0.22403 0.0
H355 H 0.60129 0.72128 0.16349 0.0
H356 H 0.66174 0.67869 0.15627 0.0
S357 S 0.59202 0.62389 0.33889 0.0
N358 N 0.56618 0.6606 0.31092 0.0
N359 N 0.63201 0.61444 0.30311 0.0
C360 C 0.62584 0.64198 0.26617 0.0
C361 C 0.59011 0.66695 0.27036 0.0
C362 C 0.39002 0.59021 0.24467 0.0
C363 C 0.37543 0.62656 0.22316 0.0
C364 C 0.36558 0.55517 0.24693 0.0
C365 C 0.32536 0.55534 0.2287 0.0
H366 H 0.42126 0.58812 0.25779 0.0
H367 H 0.37883 0.52725 0.26139 0.0
S368 S 0.27109 0.64367 0.17325 0.0
N369 N 0.31713 0.66141 0.18638 0.0
N370 N 0.2709 0.59548 0.1915 0.0
C371 C 0.3094 0.59209 0.20996 0.0
C372 C 0.33455 0.62773 0.20691 0.0
C373 C 0.36173 0.32468 0.20903 0.0
C374 C 0.35514 0.36127 0.23518 0.0
C375 C 0.39803 0.30238 0.21497 0.0
C376 C 0.42932 0.31666 0.24615 0.0
H377 H 0.33951 0.31422 0.18213 0.0
H378 H 0.40297 0.27571 0.19191 0.0
S379 S 0.42571 0.40861 0.32603 0.0
N380 N 0.3813 0.40864 0.29694 0.0
N381 N 0.45028 0.36758 0.30629 0.0
C382 C 0.42214 0.3518 0.27462 0.0
C383 C 0.38477 0.37392 0.26962 0.0
C384 C 0.11033 0.33695 0.20938 0.0
C385 C 0.10193 0.32912 0.25957 0.0
C386 C 0.13806 0.36754 0.19552 0.0
C387 C 0.15822 0.39147 0.23133 0.0
H388 H 0.09778 0.31747 0.18075 0.0
H389 H 0.14563 0.37062 0.15658 0.0
S390 S 0.13991 0.38879 0.36701 0.0
N391 N 0.11073 0.35198 0.3447 0.0
N392 N 0.16285 0.40955 0.31855 0.0
C393 C 0.14679 0.38679 0.28124 0.0
C394 C 0.11863 0.35553 0.29539 0.0
C395 C 0.65052 0.11445 0.2288 0.0
C396 C 0.67397 0.11775 0.27218 0.0
C397 C 0.6192 0.14248 0.21858 0.0
C398 C 0.6099 0.17447 0.25165 0.0
H399 H 0.65724 0.09092 0.20175 0.0
H400 H 0.60296 0.13976 0.18379 0.0
S401 S 0.66007 0.19449 0.37237 0.0
N402 N 0.68408 0.15412 0.34998 0.0
N403 N 0.6251 0.20642 0.33081 0.0
C404 C 0.63176 0.17689 0.29628 0.0
C405 C 0.66388 0.14865 0.30649 0.0
C406 C 0.85283 0.61159 0.2741 0.0
C407 C 0.8443 0.6035 0.22411 0.0
C408 C 0.8815 0.64137 0.28731 0.0
C409 C 0.90263 0.6641 0.25099 0.0
H410 H 0.83525 0.59698 0.30325 0.0
H411 H 0.88504 0.64843 0.32629 0.0
S412 S 0.89796 0.64789 0.11516 0.0
N413 N 0.86423 0.61545 0.13827 0.0
N414 N 0.91802 0.67169 0.16326 0.0
C415 C 0.8976 0.65321 0.20107 0.0
C416 C 0.86838 0.62282 0.18757 0.0
C417 C 0.35168 0.8544 0.30383 0.0
C418 C 0.34093 0.88521 0.26982 0.0
C419 C 0.38185 0.82546 0.29253 0.0
C420 C 0.40259 0.82627 0.24685 0.0
H421 H 0.33548 0.85145 0.33874 0.0
H422 H 0.38757 0.80121 0.31896 0.0
S423 S 0.38998 0.90412 0.14779 0.0
N424 N 0.35635 0.91733 0.19067 0.0
N425 N 0.41332 0.86309 0.16942 0.0
C426 C 0.39417 0.8586 0.21388 0.0
C427 C 0.36324 0.888 0.22534 0.0
C428 C 0.13632 0.62771 0.79274 0.0
C429 C 0.15631 0.60344 0.75695 0.0
C430 C 0.10723 0.657 0.77896 0.0
C431 C 0.09731 0.66307 0.72891 0.0
H432 H 0.14492 0.62585 0.83142 0.0
H433 H 0.0947 0.67688 0.8073 0.0
S434 S 0.13455 0.60186 0.62214 0.0
N435 N 0.1594 0.58319 0.67029 0.0
N436 N 0.10479 0.63833 0.64435 0.0
C437 C 0.11412 0.63641 0.69337 0.0
C438 C 0.14363 0.60651 0.7074 0.0
C439 C 0.37207 0.14216 0.80124 0.0
C440 C 0.39448 0.16423 0.76547 0.0
C441 C 0.34383 0.11215 0.78741 0.0
C442 C 0.33685 0.10317 0.73727 0.0
H443 H 0.37471 0.14957 0.84024 0.0
H444 H 0.32566 0.09771 0.81614 0.0
S445 S 0.39276 0.14712 0.62966 0.0
N446 N 0.41169 0.17127 0.67818 0.0
N447 N 0.35861 0.11473 0.65198 0.0
C448 C 0.36161 0.12244 0.70134 0.0
C449 C 0.39048 0.15301 0.7155 0.0
C450 C 0.86969 0.35258 0.68639 0.0
C451 C 0.89544 0.33567 0.72281 0.0
C452 C 0.84143 0.38328 0.69815 0.0
C453 C 0.83796 0.39829 0.74673 0.0
H454 H 0.86974 0.34059 0.64897 0.0
H455 H 0.82072 0.39365 0.6695 0.0
S456 S 0.90326 0.36936 0.85365 0.0
N457 N 0.91928 0.33985 0.80792 0.0
N458 N 0.8664 0.39781 0.8301 0.0
C459 C 0.86588 0.38409 0.78255 0.0
C460 C 0.89458 0.35269 0.77058 0.0
C461 C 0.65623 0.87962 0.78764 0.0
C462 C 0.66182 0.8928 0.73856 0.0
C463 C 0.62793 0.84883 0.79914 0.0
C464 C 0.60395 0.83035 0.76205 0.0
H465 H 0.6753 0.8916 0.81703 0.0
H466 H 0.62603 0.83838 0.83717 0.0
S467 S 0.60282 0.85832 0.62882 0.0
N468 N 0.63804 0.88824 0.65333 0.0
N469 N 0.58472 0.83057 0.67505 0.0
C470 C 0.60721 0.84531 0.71339 0.0
C471 C 0.63621 0.87647 0.70162 0.0
C472 C 0.04474 0.22289 0.48331 0.0
C473 C 0.01778 0.21587 0.44378 0.0
C474 C 0.0304 0.22425 0.53226 0.0
C475 C 0.98883 0.21753 0.54336 0.0
H476 H 0.07698 0.22817 0.47631 0.0
H477 H 0.0521 0.23028 0.56166 0.0
S478 S 0.90628 0.19583 0.45311 0.0
N479 N 0.94785 0.20126 0.41877 0.0
N480 N 0.9211 0.20255 0.51101 0.0
C481 C 0.96174 0.20952 0.50424 0.0
C482 C 0.97617 0.20906 0.45433 0.0
C483 C 0.80058 0.01163 0.53062 0.0
C484 C 0.76345 0.00232 0.55462 0.0
C485 C 0.80156 0.02206 0.48035 0.0
C486 C 0.76551 0.02308 0.4521 0.0
H487 H 0.82925 0.01039 0.55064 0.0
H488 H 0.83096 0.02829 0.46325 0.0
S489 S 0.66011 0.00346 0.49792 0.0
N490 N 0.68948 0.99665 0.54691 0.0
N491 N 0.69139 0.01583 0.45216 0.0
C492 C 0.72804 0.01485 0.47586 0.0
C493 C 0.72699 0.00461 0.52722 0.0
C494 C 0.03958 0.76778 0.50046 0.0
C495 C 0.01171 0.76206 0.53961 0.0
C496 C 0.02621 0.76893 0.45122 0.0
C497 C 0.98442 0.76553 0.4397 0.0
H498 H 0.07193 0.77158 0.50791 0.0
H499 H 0.04863 0.77367 0.42211 0.0
S500 S 0.89923 0.7493 0.52857 0.0
N501 N 0.94058 0.75155 0.56349 0.0
N502 N 0.91536 0.75528 0.47097 0.0
C503 C 0.95627 0.7595 0.4784 0.0
C504 C 0.96997 0.7573 0.52841 0.0
C505 C 0.22628 0.0361 0.51186 0.0
C506 C 0.2271 0.007 0.5501 0.0
C507 C 0.22848 0.0241 0.46216 0.0
C508 C 0.23067 0.98256 0.44896 0.0
H509 H 0.22481 0.06842 0.52039 0.0
H510 H 0.22823 0.04761 0.43386 0.0
S511 S 0.23159 0.89437 0.53535 0.0
N512 N 0.22926 0.93487 0.57175 0.0
N513 N 0.23235 0.91223 0.47808 0.0
C514 C 0.23054 0.95309 0.48683 0.0
C515 C 0.22906 0.96536 0.53751 0.0
C516 C 0.48142 0.7419 0.96347 0.0
C517 C 0.50587 0.71071 0.94313 0.0
C518 C 0.46879 0.7407 0.01301 0.0
C519 C 0.48008 0.70827 0.04432 0.0
H520 H 0.47232 0.76788 0.94117 0.0
H521 H 0.45069 0.76593 0.02706 0.0
S522 S 0.5422 0.61784 0.00868 0.0
N523 N 0.53963 0.64552 0.9576 0.0
N524 N 0.51593 0.64329 0.05097 0.0
C525 C 0.50361 0.67624 0.02419 0.0
C526 C 0.51651 0.67747 0.97356 0.0
C527 C 0.26634 0.47044 0.95584 0.0
C528 C 0.26897 0.5123 0.94428 0.0
C529 C 0.26666 0.45699 0.00512 0.0
C530 C 0.26852 0.48505 0.04439 0.0
H531 H 0.26435 0.44786 0.92659 0.0
H532 H 0.26463 0.42451 0.01252 0.0
S533 S 0.27655 0.59781 0.03397 0.0
N534 N 0.27458 0.58161 0.97606 0.0
N535 N 0.27396 0.55638 0.0688 0.0
C536 C 0.27123 0.52696 0.0334 0.0
C537 C 0.27181 0.54059 0.98325 0.0
C538 C 0.53175 0.26834 0.01764 0.0
C539 C 0.5036 0.27123 0.0569 0.0
C540 C 0.51835 0.2661 0.96849 0.0
C541 C 0.47641 0.2678 0.95696 0.0
H542 H 0.56432 0.26729 0.02499 0.0
H543 H 0.54105 0.26394 0.93925 0.0
S544 S 0.39054 0.2765 0.04645 0.0
N545 N 0.43201 0.2758 0.08127 0.0
N546 N 0.40688 0.273 0.98861 0.0
C547 C 0.44798 0.27115 0.99585 0.0
C548 C 0.46158 0.27247 0.04595 0.0
C549 C 0.72871 0.53085 0.9525 0.0
C550 C 0.73797 0.49042 0.93879 0.0
C551 C 0.72735 0.54249 0.00236 0.0
C552 C 0.73581 0.51427 0.04021 0.0
H553 H 0.72184 0.55362 0.92457 0.0
H554 H 0.71988 0.57392 0.01124 0.0
S555 S 0.76188 0.40468 0.02402 0.0
N556 N 0.75568 0.42205 0.96708 0.0
N557 N 0.7537 0.44413 0.06087 0.0
C558 C 0.74548 0.47382 0.02707 0.0
C559 C 0.74639 0.46183 0.97631 0.0
loop_
_geom_bond_atom_site_label_1
_geom_bond_atom_site_label_2
_geom_bond_distance
_geom_bond_site_symmetry_2
_ccdc_geom_bond_type
In0 O1 2.294 . S
In0 O2 2.326 . S
In0 O6 2.266 . S
In0 O7 2.326 1_455 S
In0 O8 2.266 1_455 S
In0 O9 2.326 1_455 S
In0 O11 2.294 . S
In0 O12 2.326 . S
O1 In0 2.294 . S
O1 C10 1.240 . S
O2 In0 2.326 . S
O2 C10 1.252 . S
C3 O6 1.252 . S
C3 O7 1.260 1_455 S
C4 O11 1.240 . S
C4 O12 1.252 . S
C5 O8 1.252 . S
C5 O9 1.260 . S
O6 In0 2.266 . S
O6 C3 1.252 . S
O7 In0 2.326 1_655 S
O7 C3 1.260 1_655 S
O8 In0 2.266 1_655 S
O8 C5 1.252 . S
O9 In0 2.326 1_655 S
O9 C5 1.260 . S
C10 O1 1.240 . S
C10 O2 1.252 . S
O11 In0 2.294 . S
O11 C4 1.240 . S
O12 In0 2.326 . S
O12 C4 1.252 . S
In13 O14 2.294 . S
In13 O15 2.326 . S
In13 O19 2.266 . S
In13 O20 2.326 1_545 S
In13 O21 2.266 1_545 S
In13 O22 2.326 1_545 S
In13 O24 2.294 . S
In13 O25 2.326 . S
O14 In13 2.294 . S
O14 C23 1.240 . S
O15 In13 2.326 . S
O15 C23 1.252 . S
C16 O19 1.252 . S
C16 O20 1.260 1_545 S
C17 O24 1.240 . S
C17 O25 1.252 . S
C18 O21 1.252 . S
C18 O22 1.260 . S
O19 In13 2.266 . S
O19 C16 1.252 . S
O20 In13 2.326 1_565 S
O20 C16 1.260 1_565 S
O21 In13 2.266 1_565 S
O21 C18 1.252 . S
O22 In13 2.326 1_565 S
O22 C18 1.260 . S
C23 O14 1.240 . S
C23 O15 1.252 . S
O24 In13 2.294 . S
O24 C17 1.240 . S
O25 In13 2.326 . S
O25 C17 1.252 . S
In26 O27 2.294 . S
In26 O28 2.326 . S
In26 O32 2.266 1_655 S
In26 O33 2.326 1_655 S
In26 O34 2.266 . S
In26 O35 2.326 1_655 S
In26 O37 2.294 . S
In26 O38 2.326 . S
O27 In26 2.294 . S
O27 C36 1.240 . S
O28 In26 2.326 . S
O28 C36 1.252 . S
C29 O32 1.252 . S
C29 O33 1.260 . S
C30 O37 1.240 . S
C30 O38 1.252 . S
C31 O34 1.252 . S
C31 O35 1.260 1_655 S
O32 In26 2.266 1_455 S
O32 C29 1.252 . S
O33 In26 2.326 1_455 S
O33 C29 1.260 . S
O34 In26 2.266 . S
O34 C31 1.252 . S
O35 In26 2.326 1_455 S
O35 C31 1.260 1_455 S
C36 O27 1.240 . S
C36 O28 1.252 . S
O37 In26 2.294 . S
O37 C30 1.240 . S
O38 In26 2.326 . S
O38 C30 1.252 . S
In39 O40 2.294 . S
In39 O41 2.326 . S
In39 O45 2.266 1_565 S
In39 O46 2.326 1_565 S
In39 O47 2.266 . S
In39 O48 2.326 1_565 S
In39 O50 2.294 . S
In39 O51 2.326 . S
O40 In39 2.294 . S
O40 C49 1.240 . S
O41 In39 2.326 . S
O41 C49 1.252 . S
C42 O45 1.252 . S
C42 O46 1.260 . S
C43 O50 1.240 . S
C43 O51 1.252 . S
C44 O47 1.252 . S
C44 O48 1.260 1_565 S
O45 In39 2.266 1_545 S
O45 C42 1.252 . S
O46 In39 2.326 1_545 S
O46 C42 1.260 . S
O47 In39 2.266 . S
O47 C44 1.252 . S
O48 In39 2.326 1_545 S
O48 C44 1.260 1_545 S
C49 O40 1.240 . S
C49 O41 1.252 . S
O50 In39 2.294 . S
O50 C43 1.240 . S
O51 In39 2.326 . S
O51 C43 1.252 . S
In52 O53 2.294 . S
In52 O54 2.326 . S
In52 O58 2.266 . S
In52 O59 2.326 1_455 S
In52 O60 2.266 1_455 S
In52 O61 2.326 1_455 S
In52 O63 2.294 . S
In52 O64 2.326 . S
O53 In52 2.294 . S
O53 C62 1.240 . S
O54 In52 2.326 . S
O54 C62 1.252 . S
C55 O58 1.252 . S
C55 O59 1.260 1_455 S
C56 O63 1.240 . S
C56 O64 1.252 . S
C57 O60 1.252 . S
C57 O61 1.260 . S
O58 In52 2.266 . S
O58 C55 1.252 . S
O59 In52 2.326 1_655 S
O59 C55 1.260 1_655 S
O60 In52 2.266 1_655 S
O60 C57 1.252 . S
O61 In52 2.326 1_655 S
O61 C57 1.260 . S
C62 O53 1.240 . S
C62 O54 1.252 . S
O63 In52 2.294 . S
O63 C56 1.240 . S
O64 In52 2.326 . S
O64 C56 1.252 . S
In65 O66 2.294 . S
In65 O67 2.326 . S
In65 O71 2.266 . S
In65 O72 2.326 1_545 S
In65 O73 2.266 1_545 S
In65 O74 2.326 1_545 S
In65 O76 2.294 . S
In65 O77 2.326 . S
O66 In65 2.294 . S
O66 C75 1.240 . S
O67 In65 2.326 . S
O67 C75 1.252 . S
C68 O71 1.252 . S
C68 O72 1.260 1_545 S
C69 O76 1.240 . S
C69 O77 1.252 . S
C70 O73 1.252 . S
C70 O74 1.260 . S
O71 In65 2.266 . S
O71 C68 1.252 . S
O72 In65 2.326 1_565 S
O72 C68 1.260 1_565 S
O73 In65 2.266 1_565 S
O73 C70 1.252 . S
O74 In65 2.326 1_565 S
O74 C70 1.260 . S
C75 O66 1.240 . S
C75 O67 1.252 . S
O76 In65 2.294 . S
O76 C69 1.240 . S
O77 In65 2.326 . S
O77 C69 1.252 . S
In78 O79 2.294 . S
In78 O80 2.326 . S
In78 O84 2.266 1_655 S
In78 O85 2.326 1_655 S
In78 O86 2.266 . S
In78 O87 2.326 1_655 S
In78 O89 2.294 . S
In78 O90 2.326 . S
O79 In78 2.294 . S
O79 C88 1.240 . S
O80 In78 2.326 . S
O80 C88 1.252 . S
C81 O84 1.252 . S
C81 O85 1.260 . S
C82 O89 1.240 . S
C82 O90 1.252 . S
C83 O86 1.252 . S
C83 O87 1.260 1_655 S
O84 In78 2.266 1_455 S
O84 C81 1.252 . S
O85 In78 2.326 1_455 S
O85 C81 1.260 . S
O86 In78 2.266 . S
O86 C83 1.252 . S
O87 In78 2.326 1_455 S
O87 C83 1.260 1_455 S
C88 O79 1.240 . S
C88 O80 1.252 . S
O89 In78 2.294 . S
O89 C82 1.240 . S
O90 In78 2.326 . S
O90 C82 1.252 . S
In91 O92 2.294 . S
In91 O93 2.326 . S
In91 O97 2.266 . S
In91 O98 2.326 1_565 S
In91 O99 2.266 1_565 S
In91 O100 2.326 1_565 S
In91 O102 2.294 . S
In91 O103 2.326 . S
O92 In91 2.294 . S
O92 C101 1.240 . S
O93 In91 2.326 . S
O93 C101 1.252 . S
C94 O97 1.252 . S
C94 O98 1.260 1_565 S
C95 O102 1.240 . S
C95 O103 1.252 . S
C96 O99 1.252 . S
C96 O100 1.260 . S
O97 In91 2.266 . S
O97 C94 1.252 . S
O98 In91 2.326 1_545 S
O98 C94 1.260 1_545 S
O99 In91 2.266 1_545 S
O99 C96 1.252 . S
O100 In91 2.326 1_545 S
O100 C96 1.260 . S
C101 O92 1.240 . S
C101 O93 1.252 . S
O102 In91 2.294 . S
O102 C95 1.240 . S
O103 In91 2.326 . S
O103 C95 1.252 . S
In104 O105 2.294 . S
In104 O106 2.326 . S
In104 O110 2.266 . S
In104 O111 2.326 . S
In104 O112 2.266 . S
In104 O113 2.326 . S
In104 O115 2.294 . S
In104 O116 2.326 . S
O105 In104 2.294 . S
O105 C114 1.240 . S
O106 In104 2.326 . S
O106 C114 1.252 . S
C107 O110 1.252 . S
C107 O111 1.260 . S
C108 O115 1.240 . S
C108 O116 1.252 . S
C109 O112 1.252 . S
C109 O113 1.260 . S
O110 In104 2.266 . S
O110 C107 1.252 . S
O111 In104 2.326 . S
O111 C107 1.260 . S
O112 In104 2.266 . S
O112 C109 1.252 . S
O113 In104 2.326 . S
O113 C109 1.260 . S
C114 O105 1.240 . S
C114 O106 1.252 . S
O115 In104 2.294 . S
O115 C108 1.240 . S
O116 In104 2.326 . S
O116 C108 1.252 . S
In117 O118 2.294 . S
In117 O119 2.326 . S
In117 O123 2.266 . S
In117 O124 2.326 . S
In117 O125 2.266 . S
In117 O126 2.326 . S
In117 O128 2.294 . S
In117 O129 2.326 . S
O118 In117 2.294 . S
O118 C127 1.240 . S
O119 In117 2.326 . S
O119 C127 1.252 . S
C120 O123 1.252 . S
C120 O124 1.260 . S
C121 O128 1.240 . S
C121 O129 1.252 . S
C122 O125 1.252 . S
C122 O126 1.260 . S
O123 In117 2.266 . S
O123 C120 1.252 . S
O124 In117 2.326 . S
O124 C120 1.260 . S
O125 In117 2.266 . S
O125 C122 1.252 . S
O126 In117 2.326 . S
O126 C122 1.260 . S
C127 O118 1.240 . S
C127 O119 1.252 . S
O128 In117 2.294 . S
O128 C121 1.240 . S
O129 In117 2.326 . S
O129 C121 1.252 . S
In130 O131 2.294 . S
In130 O132 2.326 . S
In130 O136 2.266 . S
In130 O137 2.326 . S
In130 O138 2.266 . S
In130 O139 2.326 . S
In130 O141 2.294 . S
In130 O142 2.326 . S
O131 In130 2.294 . S
O131 C140 1.240 . S
O132 In130 2.326 . S
O132 C140 1.252 . S
C133 O136 1.252 . S
C133 O137 1.260 . S
C134 O141 1.240 . S
C134 O142 1.252 . S
C135 O138 1.252 . S
C135 O139 1.260 . S
O136 In130 2.266 . S
O136 C133 1.252 . S
O137 In130 2.326 . S
O137 C133 1.260 . S
O138 In130 2.266 . S
O138 C135 1.252 . S
O139 In130 2.326 . S
O139 C135 1.260 . S
C140 O131 1.240 . S
C140 O132 1.252 . S
O141 In130 2.294 . S
O141 C134 1.240 . S
O142 In130 2.326 . S
O142 C134 1.252 . S
In143 O144 2.294 . S
In143 O145 2.326 . S
In143 O149 2.266 . S
In143 O150 2.326 . S
In143 O151 2.266 . S
In143 O152 2.326 . S
In143 O154 2.294 . S
In143 O155 2.326 . S
O144 In143 2.294 . S
O144 C153 1.240 . S
O145 In143 2.326 . S
O145 C153 1.252 . S
C146 O149 1.252 . S
C146 O150 1.260 . S
C147 O154 1.240 . S
C147 O155 1.252 . S
C148 O151 1.252 . S
C148 O152 1.260 . S
O149 In143 2.266 . S
O149 C146 1.252 . S
O150 In143 2.326 . S
O150 C146 1.260 . S
O151 In143 2.266 . S
O151 C148 1.252 . S
O152 In143 2.326 . S
O152 C148 1.260 . S
C153 O144 1.240 . S
C153 O145 1.252 . S
O154 In143 2.294 . S
O154 C147 1.240 . S
O155 In143 2.326 . S
O155 C147 1.252 . S
In156 O157 2.294 . S
In156 O158 2.326 . S
In156 O162 2.266 . S
In156 O163 2.326 . S
In156 O164 2.266 . S
In156 O165 2.326 . S
In156 O167 2.294 . S
In156 O168 2.326 . S
O157 In156 2.294 . S
O157 C166 1.240 . S
O158 In156 2.326 . S
O158 C166 1.252 . S
C159 O162 1.252 . S
C159 O163 1.260 . S
C160 O167 1.240 . S
C160 O168 1.252 . S
C161 O164 1.252 . S
C161 O165 1.260 . S
O162 In156 2.266 . S
O162 C159 1.252 . S
O163 In156 2.326 . S
O163 C159 1.260 . S
O164 In156 2.266 . S
O164 C161 1.252 . S
O165 In156 2.326 . S
O165 C161 1.260 . S
C166 O157 1.240 . S
C166 O158 1.252 . S
O167 In156 2.294 . S
O167 C160 1.240 . S
O168 In156 2.326 . S
O168 C160 1.252 . S
In169 O170 2.294 . S
In169 O171 2.326 . S
In169 O175 2.266 . S
In169 O176 2.326 . S
In169 O177 2.266 . S
In169 O178 2.326 . S
In169 O180 2.294 . S
In169 O181 2.326 . S
O170 In169 2.294 . S
O170 C179 1.240 . S
O171 In169 2.326 . S
O171 C179 1.252 . S
C172 O175 1.252 . S
C172 O176 1.260 . S
C173 O180 1.240 . S
C173 O181 1.252 . S
C174 O177 1.252 . S
C174 O178 1.260 . S
O175 In169 2.266 . S
O175 C172 1.252 . S
O176 In169 2.326 . S
O176 C172 1.260 . S
O177 In169 2.266 . S
O177 C174 1.252 . S
O178 In169 2.326 . S
O178 C174 1.260 . S
C179 O170 1.240 . S
C179 O171 1.252 . S
O180 In169 2.294 . S
O180 C173 1.240 . S
O181 In169 2.326 . S
O181 C173 1.252 . S
In182 O183 2.294 . S
In182 O184 2.326 . S
In182 O188 2.266 . S
In182 O189 2.326 . S
In182 O190 2.266 . S
In182 O191 2.326 . S
In182 O193 2.294 . S
In182 O194 2.326 . S
O183 In182 2.294 . S
O183 C192 1.240 . S
O184 In182 2.326 . S
O184 C192 1.252 . S
C185 O188 1.252 . S
C185 O189 1.260 . S
C186 O193 1.240 . S
C186 O194 1.252 . S
C187 O190 1.252 . S
C187 O191 1.260 . S
O188 In182 2.266 . S
O188 C185 1.252 . S
O189 In182 2.326 . S
O189 C185 1.260 . S
O190 In182 2.266 . S
O190 C187 1.252 . S
O191 In182 2.326 . S
O191 C187 1.260 . S
C192 O183 1.240 . S
C192 O184 1.252 . S
O193 In182 2.294 . S
O193 C186 1.240 . S
O194 In182 2.326 . S
O194 C186 1.252 . S
In195 O196 2.294 . S
In195 O197 2.326 . S
In195 O201 2.266 . S
In195 O202 2.326 . S
In195 O203 2.266 . S
In195 O204 2.326 . S
In195 O206 2.294 . S
In195 O207 2.326 . S
O196 In195 2.294 . S
O196 C205 1.240 . S
O197 In195 2.326 . S
O197 C205 1.252 . S
C198 O201 1.252 . S
C198 O202 1.260 . S
C199 O206 1.240 . S
C199 O207 1.252 . S
C200 O203 1.252 . S
C200 O204 1.260 . S
O201 In195 2.266 . S
O201 C198 1.252 . S
O202 In195 2.326 . S
O202 C198 1.260 . S
O203 In195 2.266 . S
O203 C200 1.252 . S
O204 In195 2.326 . S
O204 C200 1.260 . S
C205 O196 1.240 . S
C205 O197 1.252 . S
O206 In195 2.294 . S
O206 C199 1.240 . S
O207 In195 2.326 . S
O207 C199 1.252 . S
C208 C209 1.369 . S
C208 C210 1.419 . S
C208 H212 0.930 . S
C209 C208 1.369 . S
C209 C218 1.429 . S
C210 C208 1.419 . S
C210 C211 1.363 . S
C210 H213 0.929 . S
C211 C210 1.363 . S
C211 C217 1.428 . S
H212 C208 0.930 . S
H213 C210 0.929 . S
S214 N215 1.613 . S
S214 N216 1.610 . S
N215 S214 1.613 . S
N215 C218 1.350 . S
N216 S214 1.610 . S
N216 C217 1.351 . S
C217 C211 1.428 . S
C217 N216 1.351 . S
C217 C218 1.434 . S
C218 C209 1.429 . S
C218 N215 1.350 . S
C218 C217 1.434 . S
C219 C220 1.369 . S
C219 C221 1.419 . S
C219 H223 0.930 . S
C220 C219 1.369 . S
C220 C229 1.429 . S
C221 C219 1.419 . S
C221 C222 1.363 . S
C221 H224 0.929 . S
C222 C221 1.363 . S
C222 C228 1.428 . S
H223 C219 0.930 . S
H224 C221 0.929 . S
S225 N226 1.613 . S
S225 N227 1.610 . S
N226 S225 1.613 . S
N226 C229 1.350 . S
N227 S225 1.610 . S
N227 C228 1.351 . S
C228 C222 1.428 . S
C228 N227 1.351 . S
C228 C229 1.434 . S
C229 C220 1.429 . S
C229 N226 1.350 . S
C229 C228 1.434 . S
C230 C231 1.369 . S
C230 C232 1.419 . S
C230 H234 0.930 . S
C231 C230 1.369 . S
C231 C240 1.429 . S
C232 C230 1.419 . S
C232 C233 1.363 . S
C232 H235 0.929 . S
C233 C232 1.363 . S
C233 C239 1.428 . S
H234 C230 0.930 . S
H235 C232 0.929 . S
S236 N237 1.613 . S
S236 N238 1.610 . S
N237 S236 1.613 . S
N237 C240 1.350 . S
N238 S236 1.610 . S
N238 C239 1.351 . S
C239 C233 1.428 . S
C239 N238 1.351 . S
C239 C240 1.434 . S
C240 C231 1.429 . S
C240 N237 1.350 . S
C240 C239 1.434 . S
C241 C242 1.369 . S
C241 C243 1.419 . S
C241 H245 0.930 . S
C242 C241 1.369 . S
C242 C251 1.429 . S
C243 C241 1.419 . S
C243 C244 1.363 . S
C243 H246 0.929 . S
C244 C243 1.363 . S
C244 C250 1.428 . S
H245 C241 0.930 . S
H246 C243 0.929 . S
S247 N248 1.613 . S
S247 N249 1.610 . S
N248 S247 1.613 . S
N248 C251 1.350 . S
N249 S247 1.610 . S
N249 C250 1.351 . S
C250 C244 1.428 . S
C250 N249 1.351 . S
C250 C251 1.434 . S
C251 C242 1.429 . S
C251 N248 1.350 . S
C251 C250 1.434 . S
C252 C253 1.369 . S
C252 C254 1.419 . S
C252 H256 0.930 . S
C253 C252 1.369 . S
C253 C262 1.429 . S
C254 C252 1.419 . S
C254 C255 1.363 . S
C254 H257 0.929 . S
C255 C254 1.363 . S
C255 C261 1.428 . S
H256 C252 0.930 . S
H257 C254 0.929 . S
S258 N259 1.613 . S
S258 N260 1.610 . S
N259 S258 1.613 . S
N259 C262 1.350 . S
N260 S258 1.610 . S
N260 C261 1.351 . S
C261 C255 1.428 . S
C261 N260 1.351 . S
C261 C262 1.434 . S
C262 C253 1.429 . S
C262 N259 1.350 . S
C262 C261 1.434 . S
C263 C264 1.369 . S
C263 C265 1.419 . S
C263 H267 0.930 . S
C264 C263 1.369 . S
C264 C273 1.429 . S
C265 C263 1.419 . S
C265 C266 1.363 . S
C265 H268 0.929 . S
C266 C265 1.363 . S
C266 C272 1.428 . S
H267 C263 0.930 . S
H268 C265 0.929 . S
S269 N270 1.613 . S
S269 N271 1.610 . S
N270 S269 1.613 . S
N270 C273 1.350 . S
N271 S269 1.610 . S
N271 C272 1.351 . S
C272 C266 1.428 . S
C272 N271 1.351 . S
C272 C273 1.434 . S
C273 C264 1.429 . S
C273 N270 1.350 . S
C273 C272 1.434 . S
C274 C275 1.369 . S
C274 C276 1.419 . S
C274 H278 0.930 . S
C275 C274 1.369 . S
C275 C284 1.429 . S
C276 C274 1.419 . S
C276 C277 1.363 . S
C276 H279 0.929 . S
C277 C276 1.363 . S
C277 C283 1.428 . S
H278 C274 0.930 . S
H279 C276 0.929 . S
S280 N281 1.613 . S
S280 N282 1.610 . S
N281 S280 1.613 . S
N281 C284 1.350 . S
N282 S280 1.610 . S
N282 C283 1.351 . S
C283 C277 1.428 . S
C283 N282 1.351 . S
C283 C284 1.434 . S
C284 C275 1.429 . S
C284 N281 1.350 . S
C284 C283 1.434 . S
C285 C286 1.369 . S
C285 C287 1.419 . S
C285 H289 0.930 . S
C286 C285 1.369 . S
C286 C295 1.429 . S
C287 C285 1.419 . S
C287 C288 1.363 . S
C287 H290 0.929 . S
C288 C287 1.363 . S
C288 C294 1.428 . S
H289 C285 0.930 . S
H290 C287 0.929 . S
S291 N292 1.613 . S
S291 N293 1.610 . S
N292 S291 1.613 . S
N292 C295 1.350 . S
N293 S291 1.610 . S
N293 C294 1.351 . S
C294 C288 1.428 . S
C294 N293 1.351 . S
C294 C295 1.434 . S
C295 C286 1.429 . S
C295 N292 1.350 . S
C295 C294 1.434 . S
C296 C297 1.369 . S
C296 C298 1.419 . S
C296 H300 0.930 . S
C297 C296 1.369 . S
C297 C306 1.429 . S
C298 C296 1.419 . S
C298 C299 1.363 . S
C298 H301 0.929 . S
C299 C298 1.363 . S
C299 C305 1.428 . S
H300 C296 0.930 . S
H301 C298 0.929 . S
S302 N303 1.613 . S
S302 N304 1.610 . S
N303 S302 1.613 . S
N303 C306 1.350 . S
N304 S302 1.610 . S
N304 C305 1.351 . S
C305 C299 1.428 . S
C305 N304 1.351 . S
C305 C306 1.434 . S
C306 C297 1.429 . S
C306 N303 1.350 . S
C306 C305 1.434 . S
C307 C308 1.369 . S
C307 C309 1.419 . S
C307 H311 0.930 . S
C308 C307 1.369 . S
C308 C317 1.429 . S
C309 C307 1.419 . S
C309 C310 1.363 . S
C309 H312 0.929 . S
C310 C309 1.363 . S
C310 C316 1.428 . S
H311 C307 0.930 . S
H312 C309 0.929 . S
S313 N314 1.613 . S
S313 N315 1.610 . S
N314 S313 1.613 . S
N314 C317 1.350 . S
N315 S313 1.610 . S
N315 C316 1.351 . S
C316 C310 1.428 . S
C316 N315 1.351 . S
C316 C317 1.434 . S
C317 C308 1.429 . S
C317 N314 1.350 . S
C317 C316 1.434 . S
C318 C319 1.369 . S
C318 C320 1.419 . S
C318 H322 0.930 . S
C319 C318 1.369 . S
C319 C328 1.429 . S
C320 C318 1.419 . S
C320 C321 1.363 . S
C320 H323 0.929 . S
C321 C320 1.363 . S
C321 C327 1.428 . S
H322 C318 0.930 . S
H323 C320 0.929 . S
S324 N325 1.613 . S
S324 N326 1.610 . S
N325 S324 1.613 . S
N325 C328 1.350 . S
N326 S324 1.610 . S
N326 C327 1.351 . S
C327 C321 1.428 . S
C327 N326 1.351 . S
C327 C328 1.434 . S
C328 C319 1.429 . S
C328 N325 1.350 . S
C328 C327 1.434 . S
C329 C330 1.369 . S
C329 C331 1.419 . S
C329 H333 0.930 . S
C330 C329 1.369 . S
C330 C339 1.429 . S
C331 C329 1.419 . S
C331 C332 1.363 . S
C331 H334 0.929 . S
C332 C331 1.363 . S
C332 C338 1.428 . S
H333 C329 0.930 . S
H334 C331 0.929 . S
S335 N336 1.613 . S
S335 N337 1.610 . S
N336 S335 1.613 . S
N336 C339 1.350 . S
N337 S335 1.610 . S
N337 C338 1.351 . S
C338 C332 1.428 . S
C338 N337 1.351 . S
C338 C339 1.434 . S
C339 C330 1.429 . S
C339 N336 1.350 . S
C339 C338 1.434 . S
C340 C341 1.369 . S
C340 C342 1.419 . S
C340 H344 0.930 . S
C341 C340 1.369 . S
C341 C350 1.429 . S
C342 C340 1.419 . S
C342 C343 1.363 . S
C342 H345 0.929 . S
C343 C342 1.363 . S
C343 C349 1.428 . S
H344 C340 0.930 . S
H345 C342 0.929 . S
S346 N347 1.613 . S
S346 N348 1.610 . S
N347 S346 1.613 . S
N347 C350 1.350 . S
N348 S346 1.610 . S
N348 C349 1.351 . S
C349 C343 1.428 . S
C349 N348 1.351 . S
C349 C350 1.434 . S
C350 C341 1.429 . S
C350 N347 1.350 . S
C350 C349 1.434 . S
C351 C352 1.369 . S
C351 C353 1.419 . S
C351 H355 0.930 . S
C352 C351 1.369 . S
C352 C361 1.429 . S
C353 C351 1.419 . S
C353 C354 1.363 . S
C353 H356 0.929 . S
C354 C353 1.363 . S
C354 C360 1.428 . S
H355 C351 0.930 . S
H356 C353 0.929 . S
S357 N358 1.613 . S
S357 N359 1.610 . S
N358 S357 1.613 . S
N358 C361 1.350 . S
N359 S357 1.610 . S
N359 C360 1.351 . S
C360 C354 1.428 . S
C360 N359 1.351 . S
C360 C361 1.434 . S
C361 C352 1.429 . S
C361 N358 1.350 . S
C361 C360 1.434 . S
C362 C363 1.369 . S
C362 C364 1.419 . S
C362 H366 0.930 . S
C363 C362 1.369 . S
C363 C372 1.429 . S
C364 C362 1.419 . S
C364 C365 1.363 . S
C364 H367 0.929 . S
C365 C364 1.363 . S
C365 C371 1.428 . S
H366 C362 0.930 . S
H367 C364 0.929 . S
S368 N369 1.613 . S
S368 N370 1.610 . S
N369 S368 1.613 . S
N369 C372 1.350 . S
N370 S368 1.610 . S
N370 C371 1.351 . S
C371 C365 1.428 . S
C371 N370 1.351 . S
C371 C372 1.434 . S
C372 C363 1.429 . S
C372 N369 1.350 . S
C372 C371 1.434 . S
C373 C374 1.369 . S
C373 C375 1.419 . S
C373 H377 0.930 . S
C374 C373 1.369 . S
C374 C383 1.429 . S
C375 C373 1.419 . S
C375 C376 1.363 . S
C375 H378 0.929 . S
C376 C375 1.363 . S
C376 C382 1.428 . S
H377 C373 0.930 . S
H378 C375 0.929 . S
S379 N380 1.613 . S
S379 N381 1.610 . S
N380 S379 1.613 . S
N380 C383 1.350 . S
N381 S379 1.610 . S
N381 C382 1.351 . S
C382 C376 1.428 . S
C382 N381 1.351 . S
C382 C383 1.434 . S
C383 C374 1.429 . S
C383 N380 1.350 . S
C383 C382 1.434 . S
C384 C385 1.369 . S
C384 C386 1.419 . S
C384 H388 0.930 . S
C385 C384 1.369 . S
C385 C394 1.429 . S
C386 C384 1.419 . S
C386 C387 1.363 . S
C386 H389 0.929 . S
C387 C386 1.363 . S
C387 C393 1.428 . S
H388 C384 0.930 . S
H389 C386 0.929 . S
S390 N391 1.613 . S
S390 N392 1.610 . S
N391 S390 1.613 . S
N391 C394 1.350 . S
N392 S390 1.610 . S
N392 C393 1.351 . S
C393 C387 1.428 . S
C393 N392 1.351 . S
C393 C394 1.434 . S
C394 C385 1.429 . S
C394 N391 1.350 . S
C394 C393 1.434 . S
C395 C396 1.369 . S
C395 C397 1.419 . S
C395 H399 0.930 . S
C396 C395 1.369 . S
C396 C405 1.429 . S
C397 C395 1.419 . S
C397 C398 1.363 . S
C397 H400 0.929 . S
C398 C397 1.363 . S
C398 C404 1.428 . S
H399 C395 0.930 . S
H400 C397 0.929 . S
S401 N402 1.613 . S
S401 N403 1.610 . S
N402 S401 1.613 . S
N402 C405 1.350 . S
N403 S401 1.610 . S
N403 C404 1.351 . S
C404 C398 1.428 . S
C404 N403 1.351 . S
C404 C405 1.434 . S
C405 C396 1.429 . S
C405 N402 1.350 . S
C405 C404 1.434 . S
C406 C407 1.369 . S
C406 C408 1.419 . S
C406 H410 0.930 . S
C407 C406 1.369 . S
C407 C416 1.429 . S
C408 C406 1.419 . S
C408 C409 1.363 . S
C408 H411 0.929 . S
C409 C408 1.363 . S
C409 C415 1.428 . S
H410 C406 0.930 . S
H411 C408 0.929 . S
S412 N413 1.613 . S
S412 N414 1.610 . S
N413 S412 1.613 . S
N413 C416 1.350 . S
N414 S412 1.610 . S
N414 C415 1.351 . S
C415 C409 1.428 . S
C415 N414 1.351 . S
C415 C416 1.434 . S
C416 C407 1.429 . S
C416 N413 1.350 . S
C416 C415 1.434 . S
C417 C418 1.369 . S
C417 C419 1.419 . S
C417 H421 0.930 . S
C418 C417 1.369 . S
C418 C427 1.429 . S
C419 C417 1.419 . S
C419 C420 1.363 . S
C419 H422 0.929 . S
C420 C419 1.363 . S
C420 C426 1.428 . S
H421 C417 0.930 . S
H422 C419 0.929 . S
S423 N424 1.613 . S
S423 N425 1.610 . S
N424 S423 1.613 . S
N424 C427 1.350 . S
N425 S423 1.610 . S
N425 C426 1.351 . S
C426 C420 1.428 . S
C426 N425 1.351 . S
C426 C427 1.434 . S
C427 C418 1.429 . S
C427 N424 1.350 . S
C427 C426 1.434 . S
C428 C429 1.369 . S
C428 C430 1.419 . S
C428 H432 0.930 . S
C429 C428 1.369 . S
C429 C438 1.429 . S
C430 C428 1.419 . S
C430 C431 1.363 . S
C430 H433 0.929 . S
C431 C430 1.363 . S
C431 C437 1.428 . S
H432 C428 0.930 . S
H433 C430 0.929 . S
S434 N435 1.613 . S
S434 N436 1.610 . S
N435 S434 1.613 . S
N435 C438 1.350 . S
N436 S434 1.610 . S
N436 C437 1.351 . S
C437 C431 1.428 . S
C437 N436 1.351 . S
C437 C438 1.434 . S
C438 C429 1.429 . S
C438 N435 1.350 . S
C438 C437 1.434 . S
C439 C440 1.369 . S
C439 C441 1.419 . S
C439 H443 0.930 . S
C440 C439 1.369 . S
C440 C449 1.429 . S
C441 C439 1.419 . S
C441 C442 1.363 . S
C441 H444 0.929 . S
C442 C441 1.363 . S
C442 C448 1.428 . S
H443 C439 0.930 . S
H444 C441 0.929 . S
S445 N446 1.613 . S
S445 N447 1.610 . S
N446 S445 1.613 . S
N446 C449 1.350 . S
N447 S445 1.610 . S
N447 C448 1.351 . S
C448 C442 1.428 . S
C448 N447 1.351 . S
C448 C449 1.434 . S
C449 C440 1.429 . S
C449 N446 1.350 . S
C449 C448 1.434 . S
C450 C451 1.369 . S
C450 C452 1.419 . S
C450 H454 0.930 . S
C451 C450 1.369 . S
C451 C460 1.429 . S
C452 C450 1.419 . S
C452 C453 1.363 . S
C452 H455 0.929 . S
C453 C452 1.363 . S
C453 C459 1.428 . S
H454 C450 0.930 . S
H455 C452 0.929 . S
S456 N457 1.613 . S
S456 N458 1.610 . S
N457 S456 1.613 . S
N457 C460 1.350 . S
N458 S456 1.610 . S
N458 C459 1.351 . S
C459 C453 1.428 . S
C459 N458 1.351 . S
C459 C460 1.434 . S
C460 C451 1.429 . S
C460 N457 1.350 . S
C460 C459 1.434 . S
C461 C462 1.369 . S
C461 C463 1.419 . S
C461 H465 0.930 . S
C462 C461 1.369 . S
C462 C471 1.429 . S
C463 C461 1.419 . S
C463 C464 1.363 . S
C463 H466 0.929 . S
C464 C463 1.363 . S
C464 C470 1.428 . S
H465 C461 0.930 . S
H466 C463 0.929 . S
S467 N468 1.613 . S
S467 N469 1.610 . S
N468 S467 1.613 . S
N468 C471 1.350 . S
N469 S467 1.610 . S
N469 C470 1.351 . S
C470 C464 1.428 . S
C470 N469 1.351 . S
C470 C471 1.434 . S
C471 C462 1.429 . S
C471 N468 1.350 . S
C471 C470 1.434 . S
C472 C473 1.369 . S
C472 C474 1.419 . S
C472 H476 0.930 . S
C473 C472 1.369 . S
C473 C482 1.429 1_455 S
C474 C472 1.419 . S
C474 C475 1.363 1_455 S
C474 H477 0.929 . S
C475 C474 1.363 1_655 S
C475 C481 1.428 . S
H476 C472 0.930 . S
H477 C474 0.929 . S
S478 N479 1.613 . S
S478 N480 1.610 . S
N479 S478 1.613 . S
N479 C482 1.350 . S
N480 S478 1.610 . S
N480 C481 1.351 . S
C481 C475 1.428 . S
C481 N480 1.351 . S
C481 C482 1.434 . S
C482 C473 1.429 1_655 S
C482 N479 1.350 . S
C482 C481 1.434 . S
C483 C484 1.369 1_545 S
C483 C485 1.419 . S
C483 H487 0.930 . S
C484 C483 1.369 1_565 S
C484 C493 1.429 . S
C485 C483 1.419 . S
C485 C486 1.363 . S
C485 H488 0.929 . S
C486 C485 1.363 . S
C486 C492 1.428 1_545 S
H487 C483 0.930 . S
H488 C485 0.929 . S
S489 N490 1.613 . S
S489 N491 1.610 . S
N490 S489 1.613 . S
N490 C493 1.350 . S
N491 S489 1.610 . S
N491 C492 1.351 . S
C492 C486 1.428 1_565 S
C492 N491 1.351 . S
C492 C493 1.434 . S
C493 C484 1.429 . S
C493 N490 1.350 . S
C493 C492 1.434 . S
C494 C495 1.369 . S
C494 C496 1.419 . S
C494 H498 0.930 . S
C495 C494 1.369 . S
C495 C504 1.429 1_455 S
C496 C494 1.419 . S
C496 C497 1.363 1_455 S
C496 H499 0.929 . S
C497 C496 1.363 1_655 S
C497 C503 1.428 . S
H498 C494 0.930 . S
H499 C496 0.929 . S
S500 N501 1.613 . S
S500 N502 1.610 . S
N501 S500 1.613 . S
N501 C504 1.350 . S
N502 S500 1.610 . S
N502 C503 1.351 . S
C503 C497 1.428 . S
C503 N502 1.351 . S
C503 C504 1.434 . S
C504 C495 1.429 1_655 S
C504 N501 1.350 . S
C504 C503 1.434 . S
C505 C506 1.390 . S
C505 C507 1.419 . S
C505 H509 0.930 . S
C506 C505 1.390 . S
C506 C515 1.406 1_545 S
C507 C505 1.419 . S
C507 C508 1.363 1_545 S
C507 H510 0.929 . S
C508 C507 1.363 1_565 S
C508 C514 1.428 . S
H509 C505 0.930 . S
H510 C507 0.929 . S
S511 N512 1.613 . S
S511 N513 1.610 . S
N512 S511 1.613 . S
N512 C515 1.350 . S
N513 S511 1.610 . S
N513 C514 1.351 . S
C514 C508 1.428 . S
C514 N513 1.351 . S
C514 C515 1.434 . S
C515 C506 1.406 1_565 S
C515 N512 1.350 . S
C515 C514 1.434 . S
C516 C517 1.369 . S
C516 C518 1.419 1_556 S
C516 H520 0.930 . S
C517 C516 1.369 . S
C517 C526 1.429 . S
C518 C516 1.419 1_554 S
C518 C519 1.363 . S
C518 H521 0.929 . S
C519 C518 1.363 . S
C519 C525 1.428 . S
H520 C516 0.930 . S
H521 C518 0.929 . S
S522 N523 1.613 1_554 S
S522 N524 1.610 . S
N523 S522 1.613 1_556 S
N523 C526 1.350 . S
N524 S522 1.610 . S
N524 C525 1.351 . S
C525 C519 1.428 . S
C525 N524 1.351 . S
C525 C526 1.434 1_554 S
C526 C517 1.429 . S
C526 N523 1.350 . S
C526 C525 1.434 1_556 S
C527 C528 1.369 . S
C527 C529 1.419 1_556 S
C527 H531 0.930 . S
C528 C527 1.369 . S
C528 C537 1.429 . S
C529 C527 1.419 1_554 S
C529 C530 1.363 . S
C529 H532 0.929 . S
C530 C529 1.363 . S
C530 C536 1.428 . S
H531 C527 0.930 . S
H532 C529 0.929 . S
S533 N534 1.613 1_554 S
S533 N535 1.610 . S
N534 S533 1.613 1_556 S
N534 C537 1.350 . S
N535 S533 1.610 . S
N535 C536 1.351 . S
C536 C530 1.428 . S
C536 N535 1.351 . S
C536 C537 1.434 1_554 S
C537 C528 1.429 . S
C537 N534 1.350 . S
C537 C536 1.434 1_556 S
C538 C539 1.369 . S
C538 C540 1.419 1_554 S
C538 H542 0.930 . S
C539 C538 1.369 . S
C539 C548 1.429 . S
C540 C538 1.419 1_556 S
C540 C541 1.363 . S
C540 H543 0.929 . S
C541 C540 1.363 . S
C541 C547 1.428 . S
H542 C538 0.930 . S
H543 C540 0.929 . S
S544 N545 1.613 . S
S544 N546 1.610 1_554 S
N545 S544 1.613 . S
N545 C548 1.350 . S
N546 S544 1.610 1_556 S
N546 C547 1.351 . S
C547 C541 1.428 . S
C547 N546 1.351 . S
C547 C548 1.434 1_556 S
C548 C539 1.429 . S
C548 N545 1.350 . S
C548 C547 1.434 1_554 S
C549 C550 1.369 . S
C549 C551 1.419 1_556 S
C549 H553 0.930 . S
C550 C549 1.369 . S
C550 C559 1.429 . S
C551 C549 1.419 1_554 S
C551 C552 1.363 . S
C551 H554 0.929 . S
C552 C551 1.363 . S
C552 C558 1.428 . S
H553 C549 0.930 . S
H554 C551 0.929 . S
S555 N556 1.613 1_554 S
S555 N557 1.610 . S
N556 S555 1.613 1_556 S
N556 C559 1.350 . S
N557 S555 1.610 . S
N557 C558 1.351 . S
C558 C552 1.428 . S
C558 N557 1.351 . S
C558 C559 1.434 1_554 S
C559 C550 1.429 . S
C559 N556 1.350 . S
C559 C558 1.434 1_556 S
C209 C10 1.610 . S
C211 C42 1.621 . S
C220 C5 1.618 . S
C222 C23 1.606 . S
C231 C18 1.619 . S
C233 C30 1.608 . S
C242 C29 1.622 . S
C244 C43 1.609 . S
C253 C62 1.604 . S
C255 C70 1.618 . S
C264 C75 1.607 . S
C266 C81 1.622 . S
C275 C82 1.608 . S
C277 C96 1.622 . S
C286 C101 1.604 . S
C288 C57 1.619 . S
C297 C108 1.606 . S
C299 C146 1.619 . S
C308 C107 1.620 . S
C310 C127 1.608 . S
C319 C122 1.620 . S
C321 C134 1.608 . S
C330 C147 1.604 . S
C332 C133 1.619 . S
C341 C174 1.619 . S
C343 C166 1.604 . S
C352 C187 1.621 . S
C354 C179 1.609 . S
C363 C192 1.608 . S
C365 C200 1.622 . S
C374 C205 1.605 . S
C376 C161 1.618 . S
C385 C4 1.264 . S
C387 C199 1.269 . S
C396 C17 1.264 . S
C398 C160 1.265 . S
C407 C173 1.265 . S
C409 C36 1.269 . S
C418 C49 1.270 . S
C420 C186 1.265 . S
C429 C121 1.269 . S
C431 C56 1.263 . S
C440 C140 1.263 . S
C442 C69 1.266 . S
C451 C88 1.269 . S
C453 C153 1.267 . S
C462 C95 1.262 . S
C464 C114 1.267 . S
C473 C3 1.691 . S
C475 C83 1.687 . S
C484 C94 1.687 . S
C486 C16 1.690 . S
C495 C55 1.691 . S
C497 C31 1.688 . S
C506 C68 1.695 . S
C508 C44 1.686 . S
C517 C109 1.686 . S
C519 C185 1.686 . S
C528 C120 1.685 . S
C530 C198 1.688 . S
C539 C159 1.691 . S
C541 C135 1.687 . S
C550 C148 1.685 . S
C552 C172 1.689 . S
