# Generated by pormake.
# Topology smc, (6)-cn, num edge types: 1
# Building blocks:
#     Node 0, Type 0, BuildingBlock: OJICUG_clean_sbu_0, # of connection points: 6
#     Node 1, Type 0, BuildingBlock: OJICUG_clean_sbu_0, # of connection points: 6
#     Node 2, Type 0, BuildingBlock: OJICUG_clean_sbu_0, # of connection points: 6
#     Node 3, Type 0, BuildingBlock: OJICUG_clean_sbu_0, # of connection points: 6
#     Node 4, Type 0, BuildingBlock: OJICUG_clean_sbu_0, # of connection points: 6
#     Node 5, Type 0, BuildingBlock: OJICUG_clean_sbu_0, # of connection points: 6
#     Node 6, Type 0, BuildingBlock: OJICUG_clean_sbu_0, # of connection points: 6
#     Node 7, Type 0, BuildingBlock: OJICUG_clean_sbu_0, # of connection points: 6
#     Node 8, Type 0, BuildingBlock: OJICUG_clean_sbu_0, # of connection points: 6
#     Edge 9, Type (0, 0), BuildingBlock: XIVTED_clean_linker_0, # of connection points: 2
#     Edge 10, Type (0, 0), BuildingBlock: XIVTED_clean_linker_0, # of connection points: 2
#     Edge 11, Type (0, 0), BuildingBlock: XIVTED_clean_linker_0, # of connection points: 2
#     Edge 12, Type (0, 0), BuildingBlock: XIVTED_clean_linker_0, # of connection points: 2
#     Edge 13, Type (0, 0), BuildingBlock: XIVTED_clean_linker_0, # of connection points: 2
#     Edge 14, Type (0, 0), BuildingBlock: XIVTED_clean_linker_0, # of connection points: 2
#     Edge 15, Type (0, 0), BuildingBlock: XIVTED_clean_linker_0, # of connection points: 2
#     Edge 16, Type (0, 0), BuildingBlock: XIVTED_clean_linker_0, # of connection points: 2
#     Edge 17, Type (0, 0), BuildingBlock: XIVTED_clean_linker_0, # of connection points: 2
#     Edge 18, Type (0, 0), BuildingBlock: XIVTED_clean_linker_0, # of connection points: 2
#     Edge 19, Type (0, 0), BuildingBlock: XIVTED_clean_linker_0, # of connection points: 2
#     Edge 20, Type (0, 0), BuildingBlock: XIVTED_clean_linker_0, # of connection points: 2
#     Edge 21, Type (0, 0), BuildingBlock: XIVTED_clean_linker_0, # of connection points: 2
#     Edge 22, Type (0, 0), BuildingBlock: XIVTED_clean_linker_0, # of connection points: 2
#     Edge 23, Type (0, 0), BuildingBlock: XIVTED_clean_linker_0, # of connection points: 2
#     Edge 24, Type (0, 0), BuildingBlock: XIVTED_clean_linker_0, # of connection points: 2
#     Edge 25, Type (0, 0), BuildingBlock: XIVTED_clean_linker_0, # of connection points: 2
#     Edge 26, Type (0, 0), BuildingBlock: XIVTED_clean_linker_0, # of connection points: 2
#     Edge 27, Type (0, 0), BuildingBlock: XIVTED_clean_linker_0, # of connection points: 2
#     Edge 28, Type (0, 0), BuildingBlock: XIVTED_clean_linker_0, # of connection points: 2
#     Edge 29, Type (0, 0), BuildingBlock: XIVTED_clean_linker_0, # of connection points: 2
#     Edge 30, Type (0, 0), BuildingBlock: XIVTED_clean_linker_0, # of connection points: 2
#     Edge 31, Type (0, 0), BuildingBlock: XIVTED_clean_linker_0, # of connection points: 2
#     Edge 32, Type (0, 0), BuildingBlock: XIVTED_clean_linker_0, # of connection points: 2
#     Edge 33, Type (0, 0), BuildingBlock: XIVTED_clean_linker_0, # of connection points: 2
#     Edge 34, Type (0, 0), BuildingBlock: XIVTED_clean_linker_0, # of connection points: 2
#     Edge 35, Type (0, 0), BuildingBlock: XIVTED_clean_linker_0, # of connection points: 2
# Relax obj value: 0.196
# Max RMSD: 0.270
# Mean RMSD: 0.270
data_MOF--net-smc--node1-OJICUG_clean_sbu_0--edge1-XIVTED_clean_linker_0
_symmetry_space_group_name_H-M    P1
_symmetry_Int_Tables_number       1
_symmetry_cell_setting            triclinic
loop_
_symmetry_equiv_pos_as_xyz
'x, y, z'
_cell_length_a     30.823147
_cell_length_b     30.725859
_cell_length_c     46.276954
_cell_angle_alpha  89.787629
_cell_angle_beta   90.023324
_cell_angle_gamma 120.06158
loop_
_atom_site_label
_atom_site_type_symbol
_atom_site_fract_x
_atom_site_fract_y
_atom_site_fract_z
_atom_type_partial_charge
Sc0 Sc 0.01894 0.5174 0.96189 0.0
Sc1 Sc 0.00163 0.4043 -0.00961 0.0
Sc2 Sc 0.94036 0.46203 0.01994 0.0
O3 O 0.98658 0.46008 -0.00965 0.0
C4 C 0.02728 0.57117 0.019 0.0
C5 C 0.10818 0.50548 0.98678 0.0
C6 C 0.98505 0.40714 0.05682 0.0
C7 C 0.01177 0.42846 0.92402 0.0
C8 C 0.91165 0.49765 0.96355 0.0
C9 C 0.88161 0.35099 -0.00487 0.0
O10 O 0.0173 0.56939 -0.00765 0.0
O11 O 0.08045 0.45795 -0.01036 0.0
O12 O 0.9556 0.42418 0.05371 0.0
O13 O 0.02427 0.47415 0.92735 0.0
O14 O 0.91681 0.50068 -0.0092 0.0
O15 O 0.92251 0.35038 -0.00819 0.0
O16 O 0.94488 0.49865 0.94677 0.0
O17 O 0.99749 0.39729 0.94469 0.0
O18 O 0.88009 0.38982 0.00398 0.0
O19 O 0.09255 0.53455 0.97751 0.0
O20 O 0.00402 0.5324 0.03505 0.0
O21 O 0.00885 0.40262 0.03598 0.0
Sc22 Sc 0.47543 0.50773 0.95822 0.0
Sc23 Sc 0.58819 0.58809 -0.00802 0.0
Sc24 Sc 0.49986 0.47593 0.02434 0.0
O25 O 0.52241 0.52511 -0.00844 0.0
C26 C 0.4072 0.48261 0.00986 0.0
C27 C 0.50827 0.61996 0.97355 0.0
C28 C 0.56583 0.57741 0.05828 0.0
C29 C 0.57905 0.56912 0.9255 0.0
C30 C 0.47381 0.41017 0.97175 0.0
C31 C 0.61021 0.50094 0.01083 0.0
O32 O 0.41242 0.46528 0.98619 0.0
O33 O 0.55314 0.63001 0.97844 0.0
O34 O 0.54098 0.52987 0.05704 0.0
O35 O 0.53173 0.54778 0.92643 0.0
O36 O 0.45576 0.4157 -0.00493 0.0
O37 O 0.62391 0.5469 0.00558 0.0
O38 O 0.48458 0.44213 0.95139 0.0
O39 O 0.60575 0.57992 0.94808 0.0
O40 O 0.56477 0.46696 0.01616 0.0
O41 O 0.4722 0.57574 0.96752 0.0
O42 O 0.43761 0.49033 0.03053 0.0
O43 O 0.57982 0.60506 0.0359 0.0
Sc44 Sc 0.45938 0.9438 0.96589 0.0
Sc45 Sc 0.40182 0.00622 -0.00578 0.0
Sc46 Sc 0.51488 0.02465 0.02286 0.0
O47 O 0.45749 0.99109 -0.00523 0.0
C48 C 0.49586 0.91714 0.02288 0.0
C49 C 0.34857 0.88563 -0.00888 0.0
C50 C 0.42649 0.01892 0.06056 0.0
C51 C 0.4046 0.98725 0.92801 0.0
C52 C 0.56834 0.03099 0.96587 0.0
C53 C 0.50261 0.11332 -0.00346 0.0
O54 O 0.4975 0.92064 -0.00447 0.0
O55 O 0.34809 0.92677 -0.0059 0.0
O56 O 0.47186 0.0308 0.05717 0.0
O57 O 0.42208 0.95826 0.9317 0.0
O58 O 0.56665 0.02213 -0.00732 0.0
O59 O 0.45529 0.08529 -0.00631 0.0
O60 O 0.52964 0.00706 0.95007 0.0
O61 O 0.39954 0.01145 0.94844 0.0
O62 O 0.53159 0.09799 0.00628 0.0
O63 O 0.3872 0.88387 0.98227 0.0
O64 O 0.49708 0.95114 0.0391 0.0
O65 O 0.3953 0.00425 0.04003 0.0
Sc66 Sc 0.71946 0.81846 0.29296 0.0
Sc67 Sc 0.67266 0.69675 0.32218 0.0
Sc68 Sc 0.62807 0.77494 0.34801 0.0
O69 O 0.67351 0.7635 0.3211 0.0
C70 C 0.73004 0.88104 0.34971 0.0
C71 C 0.78917 0.77564 0.31775 0.0
C72 C 0.65861 0.71168 0.38883 0.0
C73 C 0.68349 0.72135 0.25462 0.0
C74 C 0.62046 0.82777 0.2908 0.0
C75 C 0.5567 0.66234 0.32435 0.0
O76 O 0.74366 0.87453 0.3251 0.0
O77 O 0.75246 0.73308 0.32477 0.0
O78 O 0.64296 0.74209 0.38433 0.0
O79 O 0.70009 0.76804 0.25748 0.0
O80 O 0.60655 0.80845 0.31556 0.0
O81 O 0.59277 0.65456 0.31947 0.0
O82 O 0.66039 0.83412 0.27855 0.0
O83 O 0.67335 0.69165 0.27593 0.0
O84 O 0.56299 0.70341 0.33509 0.0
O85 O 0.78357 0.80986 0.30543 0.0
O86 O 0.68921 0.84879 0.36199 0.0
O87 O 0.6711 0.69232 0.36862 0.0
Sc88 Sc 0.19919 0.91024 0.29582 0.0
Sc89 Sc 0.31874 0.98327 0.3268 0.0
Sc90 Sc 0.24025 0.85824 0.35 0.0
O91 O 0.25262 0.91719 0.32423 0.0
C92 C 0.13333 0.85197 0.35066 0.0
C93 C 0.23909 0.0199 0.32425 0.0
C94 C 0.30159 0.9487 0.3927 0.0
C95 C 0.29703 0.97867 0.25945 0.0
C96 C 0.19179 0.80284 0.2909 0.0
C97 C 0.35376 0.90197 0.32679 0.0
O98 O 0.14121 0.87408 0.32655 0.0
O99 O 0.28134 0.02558 0.33159 0.0
O100 O 0.27019 0.903 0.38778 0.0
O101 O 0.25088 0.94638 0.2614 0.0
O102 O 0.20932 0.80607 0.31596 0.0
O103 O 0.36094 0.94584 0.32201 0.0
O104 O 0.18597 0.8374 0.27932 0.0
O105 O 0.32567 0.99572 0.28115 0.0
O106 O 0.31299 0.86665 0.33769 0.0
O107 O 0.20617 0.98125 0.31056 0.0
O108 O 0.16527 0.84335 0.36321 0.0
O109 O 0.32225 0.98118 0.37284 0.0
Sc110 Sc 0.11014 0.29564 0.29401 0.0
Sc111 Sc 0.03551 0.34264 0.32213 0.0
Sc112 Sc 0.15939 0.39103 0.34665 0.0
O113 O 0.10175 0.34307 0.32096 0.0
C114 C 0.16519 0.28987 0.35065 0.0
C115 C -0.00041 0.22628 0.32159 0.0
C116 C 0.06795 0.36331 0.38813 0.0
C117 C 0.04422 0.32441 0.25525 0.0
C118 C 0.21724 0.39583 0.28899 0.0
C119 C 0.11576 0.45945 0.3208 0.0
O120 O 0.14336 0.27398 0.32668 0.0
O121 O 0.99376 0.26297 0.32859 0.0
O122 O 0.1135 0.37701 0.3837 0.0
O123 O 0.07729 0.31182 0.25816 0.0
O124 O 0.21241 0.41179 0.31316 0.0
O125 O 0.07245 0.42234 0.31566 0.0
O126 O 0.18403 0.35409 0.2782 0.0
O127 O 0.02483 0.33462 0.2764 0.0
O128 O 0.1505 0.45454 0.33282 0.0
O129 O 0.03824 0.23198 0.30798 0.0
O130 O 0.17455 0.3318 0.36168 0.0
O131 O 0.03603 0.35076 0.36803 0.0
Sc132 Sc 0.39097 0.16259 0.6362 0.0
Sc133 Sc 0.3441 0.03917 0.66232 0.0
Sc134 Sc 0.29669 0.11408 0.6897 0.0
O135 O 0.3439 0.10535 0.66272 0.0
C136 C 0.39676 0.22137 0.69367 0.0
C137 C 0.46053 0.11998 0.66164 0.0
C138 C 0.32668 0.04933 0.7291 0.0
C139 C 0.36173 0.06926 0.59577 0.0
C140 C 0.29016 0.16878 0.63293 0.0
C141 C 0.22779 0.00263 0.66349 0.0
O142 O 0.41197 0.2165 0.66922 0.0
O143 O 0.42375 0.07659 0.66728 0.0
O144 O 0.31222 0.08094 0.72567 0.0
O145 O 0.37616 0.11528 0.59968 0.0
O146 O 0.27509 0.14772 0.65724 0.0
O147 O 0.26456 0.99655 0.65735 0.0
O148 O 0.33134 0.17717 0.62133 0.0
O149 O 0.34973 0.03786 0.61628 0.0
O150 O 0.23307 0.04209 0.67595 0.0
O151 O 0.45512 0.15463 0.64969 0.0
O152 O 0.35563 0.18796 0.70507 0.0
O153 O 0.33841 0.03057 0.70827 0.0
Sc154 Sc 0.86074 0.24679 0.63371 0.0
Sc155 Sc 0.98468 0.32475 0.65781 0.0
Sc156 Sc 0.91108 0.20348 0.68753 0.0
O157 O 0.9188 0.25823 0.65966 0.0
C158 C 0.80338 0.1953 0.69196 0.0
C159 C 0.90334 0.35949 0.65808 0.0
C160 C 0.97751 0.30023 0.72498 0.0
C161 C 0.95205 0.31039 0.59181 0.0
C162 C 0.85512 0.13997 0.63178 0.0
C163 C 0.02167 0.24511 0.65992 0.0
O164 O 0.80754 0.2141 0.66713 0.0
O165 O 0.9471 0.36684 0.66288 0.0
O166 O 0.9455 0.25397 0.72257 0.0
O167 O 0.90644 0.27873 0.59651 0.0
O168 O 0.87647 0.14682 0.656 0.0
O169 O 0.0272 0.28761 0.65286 0.0
O170 O 0.84657 0.17238 0.61964 0.0
O171 O 0.98416 0.33025 0.61177 0.0
O172 O 0.98276 0.21142 0.67323 0.0
O173 O 0.86855 0.31894 0.64683 0.0
O174 O 0.83752 0.18903 0.7036 0.0
O175 O 0.99539 0.32971 0.70354 0.0
Sc176 Sc 0.77816 0.63374 0.63668 0.0
Sc177 Sc 0.7003 0.67877 0.66217 0.0
Sc178 Sc 0.82188 0.72662 0.69081 0.0
O179 O 0.7669 0.6798 0.66317 0.0
C180 C 0.83117 0.62737 0.69396 0.0
C181 C 0.66587 0.56245 0.66079 0.0
C182 C 0.72543 0.69081 0.72963 0.0
C183 C 0.71502 0.66364 0.59559 0.0
C184 C 0.88387 0.73617 0.63399 0.0
C185 C 0.77869 0.79571 0.66542 0.0
O186 O 0.81113 0.61246 0.66952 0.0
O187 O 0.65835 0.59874 0.66576 0.0
O188 O 0.77194 0.70731 0.72657 0.0
O189 O 0.74579 0.64854 0.60015 0.0
O190 O 0.87738 0.75068 0.65831 0.0
O191 O 0.73636 0.7587 0.65863 0.0
O192 O 0.85194 0.69462 0.62235 0.0
O193 O 0.6954 0.67595 0.61575 0.0
O194 O 0.81278 0.79043 0.67795 0.0
O195 O 0.70664 0.56864 0.64978 0.0
O196 O 0.83829 0.66809 0.70557 0.0
O197 O 0.69575 0.68058 0.70843 0.0
H198 H 0.37184 0.50864 0.96355 0.0
H199 H 0.14069 0.49192 0.03831 0.0
H200 H 0.36014 0.49889 0.0566 0.0
H201 H 0.19362 0.5633 0.9554 0.0
H202 H 0.2235 0.50282 0.04833 0.0
H203 H 0.3102 0.535 0.96199 0.0
C204 C 0.35633 0.51211 0.98383 0.0
C205 C 0.37083 0.50075 0.01031 0.0
C206 C 0.21762 0.51757 0.02834 0.0
C207 C 0.29883 0.5307 0.00847 0.0
C208 C 0.17046 0.51141 0.02261 0.0
C209 C 0.16054 0.52626 -0.00415 0.0
C210 C 0.25452 0.53748 0.00678 0.0
C211 C 0.19993 0.55127 0.97622 0.0
C212 C 0.32132 0.5278 0.98286 0.0
C213 C 0.34972 0.50684 0.03574 0.0
N214 N 0.24502 0.555 0.98179 0.0
N215 N 0.31378 0.52038 0.03416 0.0
H216 H 0.41433 0.82693 0.03404 0.0
H217 H 0.57162 0.7188 0.96375 0.0
H218 H 0.57559 0.90528 0.03255 0.0
H219 H 0.42546 0.61627 -0.00119 0.0
H220 H 0.56802 0.78855 0.98581 0.0
H221 H 0.41297 0.74825 0.023 0.0
C222 C 0.44947 0.82693 0.0332 0.0
C223 C 0.49521 0.87246 0.03435 0.0
C224 C 0.53651 0.75086 -0.01138 0.0
C225 C 0.49393 0.78382 0.02005 0.0
C226 C 0.53815 0.71109 0.97558 0.0
C227 C 0.49873 0.66161 0.9794 0.0
C228 C 0.49492 0.74147 0.0055 0.0
C229 C 0.4563 0.65387 -0.00502 0.0
C230 C 0.44864 0.78225 0.02625 0.0
C231 C 0.53963 0.87085 0.03215 0.0
N232 N 0.45551 0.69352 0.00762 0.0
N233 N 0.53792 0.82751 0.02429 0.0
H234 H 0.25749 0.8756 0.00322 0.0
H235 H 0.1158 0.58027 0.03639 0.0
H236 H 0.33228 0.78867 -0.00134 0.0
H237 H 0.04257 0.66582 0.01961 0.0
H238 H 0.19757 0.65814 0.03307 0.0
H239 H 0.18129 0.80102 0.01833 0.0
C240 C 0.25808 0.84078 0.00533 0.0
C241 C 0.30173 0.83868 -0.00065 0.0
C242 C 0.16356 0.66004 0.03096 0.0
C243 C 0.21332 0.75215 0.01701 0.0
C244 C 0.11694 0.61582 0.0334 0.0
C245 C 0.07249 0.61695 0.02874 0.0
C246 C 0.1654 0.70553 0.02405 0.0
C247 C 0.07595 0.66357 0.02385 0.0
C248 C 0.21425 0.79802 0.01408 0.0
C249 C 0.29954 0.79209 0.0027 0.0
N250 N 0.12151 0.70585 0.02145 0.0
N251 N 0.25598 0.75057 0.01125 0.0
H252 H 0.49147 0.14634 0.94444 0.0
H253 H 0.48947 0.36767 0.01885 0.0
H254 H 0.55694 0.19852 0.02844 0.0
H255 H 0.49849 0.36825 0.92568 0.0
H256 H 0.5172 0.30708 0.02122 0.0
H257 H 0.50013 0.22865 0.93441 0.0
C258 C 0.50935 0.17592 0.96036 0.0
C259 C 0.52313 0.16586 0.98741 0.0
C260 C 0.51379 0.32068 0.00019 0.0
C261 C 0.53161 0.25906 0.97646 0.0
C262 C 0.49726 0.35505 -0.00129 0.0
C263 C 0.49103 0.37294 0.97191 0.0
C264 C 0.52273 0.30215 0.9747 0.0
C265 C 0.50241 0.35522 0.94676 0.0
C266 C 0.51421 0.22277 0.95462 0.0
C267 C 0.54588 0.20497 0.00736 0.0
N268 N 0.51677 0.31983 0.94872 0.0
N269 N 0.54825 0.2496 0.00178 0.0
H270 H 0.57787 0.11998 0.94847 0.0
H271 H 0.8711 0.25936 0.98353 0.0
H272 H 0.66224 0.04526 0.9642 0.0
H273 H 0.78537 0.33543 0.98721 0.0
H274 H 0.79703 0.18364 0.96771 0.0
H275 H 0.65566 0.20164 0.95225 0.0
C276 C 0.61317 0.12081 0.95128 0.0
C277 C 0.61395 0.07594 0.95559 0.0
C278 C 0.79417 0.21677 0.97192 0.0
C279 C 0.70243 0.16872 0.96086 0.0
C280 C 0.83663 0.26031 0.98109 0.0
C281 C 0.83474 0.30421 0.98698 0.0
C282 C 0.74879 0.21636 0.96848 0.0
C283 C 0.78861 0.30249 0.98323 0.0
C284 C 0.65734 0.16737 0.95401 0.0
C285 C 0.66026 0.07898 0.96022 0.0
N286 N 0.74736 0.25919 0.97427 0.0
N287 N 0.70249 0.12449 0.96297 0.0
H288 H 0.8237 0.41405 0.95114 0.0
H289 H 0.70541 0.55355 0.0296 0.0
H290 H 0.89515 0.57521 0.95676 0.0
H291 H 0.60574 0.4221 0.98031 0.0
H292 H 0.77679 0.55112 0.00895 0.0
H293 H 0.74279 0.40768 0.96248 0.0
C294 C 0.82177 0.4482 0.95298 0.0
C295 C 0.86592 0.49531 0.95283 0.0
C296 C 0.73929 0.52239 0.00286 0.0
C297 C 0.77491 0.48816 0.96746 0.0
C298 C 0.69858 0.52316 0.01508 0.0
C299 C 0.64969 0.48794 0.00667 0.0
C300 C 0.73129 0.48591 0.98217 0.0
C301 C 0.64288 0.44949 0.98762 0.0
C302 C 0.77585 0.44445 0.96005 0.0
C303 C 0.86185 0.53831 0.95635 0.0
N304 N 0.68346 0.44961 0.97574 0.0
N305 N 0.8174 0.53368 0.96434 0.0
H306 H 0.81788 0.70649 0.32948 0.0
H307 H 0.09925 0.91137 0.371 0.0
H308 H 0.87595 0.8667 0.32597 0.0
H309 H 0.05297 0.75695 0.35256 0.0
H310 H 0.01228 0.89183 0.36632 0.0
H311 H 0.8991 0.72172 0.34676 0.0
C312 C 0.84778 0.74499 0.33222 0.0
C313 C 0.83999 0.78543 0.32597 0.0
C314 C 0.02078 0.8618 0.36417 0.0
C315 C 0.93327 0.80298 0.34642 0.0
C316 C 0.07025 0.87266 0.36755 0.0
C317 C 0.08321 0.8355 0.36266 0.0
C318 C 0.98388 0.81337 0.35572 0.0
C319 C 0.04444 0.7864 0.35715 0.0
C320 C 0.89414 0.75356 0.34223 0.0
C321 C 0.8803 0.83439 0.33009 0.0
N322 N 0.9966 0.77689 0.35336 0.0
N323 N 0.92511 0.84177 0.34012 0.0
H324 H 0.26002 0.30581 0.35663 0.0
H325 H 0.14742 0.0146 0.32925 0.0
H326 H 0.10473 0.19624 0.37101 0.0
H327 H 0.30604 0.11638 0.34029 0.0
H328 H 0.13145 0.08096 0.34593 0.0
H329 H 0.2795 0.23762 0.35501 0.0
C330 C 0.23053 0.26765 0.36109 0.0
C331 C 0.18084 0.25664 0.36432 0.0
C332 C 0.16975 0.08863 0.34486 0.0
C333 C 0.20204 0.17825 0.36064 0.0
C334 C 0.17888 0.0509 0.33501 0.0
C335 C 0.22814 0.05991 0.33311 0.0
C336 C 0.21018 0.13601 0.35252 0.0
C337 C 0.2674 0.10762 0.34132 0.0
C338 C 0.2414 0.22855 0.35952 0.0
C339 C 0.14366 0.20627 0.36886 0.0
N340 N 0.25762 0.14388 0.35039 0.0
N341 N 0.15475 0.16888 0.36619 0.0
H342 H 0.00505 0.13968 0.32582 0.0
H343 H 0.71545 0.96069 0.35753 0.0
H344 H 0.90381 0.19653 0.33913 0.0
H345 H 0.82488 0.91365 0.36683 0.0
H346 H 0.7836 0.0485 0.35558 0.0
H347 H 0.93946 0.05695 0.34273 0.0
C348 C 0.96902 0.13478 0.33214 0.0
C349 C 0.95994 0.17516 0.33077 0.0
C350 C 0.79272 0.01912 0.35903 0.0
C351 C 0.88466 0.08052 0.35047 0.0
C352 C 0.75368 0.96906 0.36077 0.0
C353 C 0.7646 0.93003 0.36273 0.0
C354 C 0.84281 0.02981 0.35871 0.0
C355 C 0.81497 0.94283 0.36571 0.0
C356 C 0.93171 0.08764 0.34212 0.0
C357 C 0.9126 0.16657 0.3397 0.0
N358 N 0.85221 0.99144 0.36296 0.0
N359 N 0.87671 0.12023 0.3489 0.0
H360 H 0.25343 0.77197 0.27 0.0
H361 H 0.04723 0.48733 0.30567 0.0
H362 H 0.09767 0.72307 0.28438 0.0
H363 H 0.20676 0.5465 0.31274 0.0
H364 H 0.06318 0.56878 0.2877 0.0
H365 H 0.23405 0.68451 0.27252 0.0
C366 C 0.2146 0.74245 0.27199 0.0
C367 C 0.17696 0.75473 0.27658 0.0
C368 C 0.09471 0.56395 0.29308 0.0
C369 C 0.15485 0.65471 0.28107 0.0
C370 C 0.08572 0.51743 0.30349 0.0
C371 C 0.12574 0.50994 0.31109 0.0
C372 C 0.14415 0.60357 0.2899 0.0
C373 C 0.17471 0.55056 0.30758 0.0
C374 C 0.20376 0.69262 0.27417 0.0
C375 C 0.12759 0.71517 0.28015 0.0
N376 N 0.1825 0.59557 0.29727 0.0
N377 N 0.11806 0.66698 0.28288 0.0
H378 H 0.29508 0.37839 0.28444 0.0
H379 H 0.47286 0.67009 0.31326 0.0
H380 H 0.25148 0.48891 0.26722 0.0
H381 H 0.52579 0.56392 0.31267 0.0
H382 H 0.39251 0.60462 0.29375 0.0
H383 H 0.38235 0.44602 0.28871 0.0
C384 C 0.30431 0.4167 0.27984 0.0
C385 C 0.26614 0.42808 0.27524 0.0
C386 C 0.42184 0.59576 0.29779 0.0
C387 C 0.36521 0.50591 0.28198 0.0
C388 C 0.46748 0.63298 0.30932 0.0
C389 C 0.50609 0.62251 0.31492 0.0
C390 C 0.41451 0.54754 0.29206 0.0
C391 C 0.49715 0.57383 0.30883 0.0
C392 C 0.35401 0.45552 0.283 0.0
C393 C 0.28 0.4786 0.27047 0.0
N394 N 0.45237 0.53823 0.29794 0.0
N395 N 0.32814 0.51574 0.27473 0.0
H396 H 0.4517 0.97111 0.31561 0.0
H397 H 0.52776 0.76781 0.26956 0.0
H398 H 0.34847 0.81105 0.31546 0.0
H399 H 0.63512 0.92256 0.28757 0.0
H400 H 0.45993 0.78674 0.27458 0.0
H401 H 0.517 0.95647 0.29665 0.0
C402 C 0.44269 0.93274 0.31172 0.0
C403 C 0.39435 0.89218 0.31746 0.0
C404 C 0.49836 0.817 0.27651 0.0
C405 C 0.46945 0.87531 0.29511 0.0
C406 C 0.53722 0.80649 0.27288 0.0
C407 C 0.58725 0.84386 0.27773 0.0
C408 C 0.50962 0.8653 0.2851 0.0
C409 C 0.59722 0.89291 0.28307 0.0
C410 C 0.48011 0.9245 0.30072 0.0
C411 C 0.38523 0.84342 0.31179 0.0
N412 N 0.55872 0.90205 0.28716 0.0
N413 N 0.42241 0.83637 0.30092 0.0
H414 H 0.77176 0.25616 0.7133 0.0
H415 H 0.48886 0.05103 0.67503 0.0
H416 H 0.72336 0.10064 0.69696 0.0
H417 H 0.54737 0.21123 0.67005 0.0
H418 H 0.56994 0.06644 0.69258 0.0
H419 H 0.68476 0.23711 0.70992 0.0
C420 C 0.74238 0.21736 0.7107 0.0
C421 C 0.75477 0.17976 0.70586 0.0
C422 C 0.5651 0.09825 0.68772 0.0
C423 C 0.65527 0.15809 0.70041 0.0
C424 C 0.51877 0.08958 0.67756 0.0
C425 C 0.51113 0.12994 0.67073 0.0
C426 C 0.60444 0.14772 0.69145 0.0
C427 C 0.55154 0.17894 0.67463 0.0
C428 C 0.69284 0.20676 0.70801 0.0
C429 C 0.71539 0.13051 0.70145 0.0
N430 N 0.59638 0.18644 0.68473 0.0
N431 N 0.66751 0.12123 0.69831 0.0
H432 H 0.81188 0.35245 0.66856 0.0
H433 H 0.92626 0.64403 0.69815 0.0
H434 H 0.97108 0.45737 0.67101 0.0
H435 H 0.77209 0.53391 0.71509 0.0
H436 H 0.94561 0.57613 0.69376 0.0
H437 H 0.79708 0.41812 0.68791 0.0
C438 C 0.84368 0.38932 0.67291 0.0
C439 C 0.89276 0.39937 0.66784 0.0
C440 C 0.90783 0.56677 0.69943 0.0
C441 C 0.87618 0.47463 0.69047 0.0
C442 C 0.8971 0.60574 0.70266 0.0
C443 C 0.84765 0.5946 0.70733 0.0
C444 C 0.86857 0.51643 0.70041 0.0
C445 C 0.81086 0.54407 0.71187 0.0
C446 C 0.83527 0.42665 0.68433 0.0
C447 C 0.93254 0.44777 0.67443 0.0
N448 N 0.82172 0.50681 0.70756 0.0
N449 N 0.92338 0.48352 0.68517 0.0
H450 H 0.6724 0.47724 0.67055 0.0
H451 H 0.381 0.30042 0.69905 0.0
H452 H 0.56817 0.53226 0.67343 0.0
H453 H 0.4896 0.25401 0.71453 0.0
H454 H 0.44923 0.3878 0.6956 0.0
H455 H 0.60635 0.39608 0.68931 0.0
C456 C 0.63562 0.4722 0.67487 0.0
C457 C 0.62585 0.51162 0.6701 0.0
C458 C 0.45817 0.35878 0.70075 0.0
C459 C 0.55021 0.41906 0.69206 0.0
C460 C 0.41901 0.30899 0.70342 0.0
C461 C 0.42969 0.27009 0.70737 0.0
C462 C 0.5082 0.36933 0.70157 0.0
C463 C 0.47985 0.28311 0.71182 0.0
C464 C 0.59807 0.42606 0.68595 0.0
C465 C 0.57755 0.50303 0.67662 0.0
N466 N 0.51732 0.3314 0.70806 0.0
N467 N 0.54161 0.45776 0.68705 0.0
H468 H 0.70979 0.82405 0.65264 0.0
H469 H 0.91474 0.10645 0.61116 0.0
H470 H 0.86948 0.8827 0.65701 0.0
H471 H 0.7604 0.05978 0.62893 0.0
H472 H 0.89506 0.01909 0.61558 0.0
H473 H 0.72516 0.90533 0.63464 0.0
C474 C 0.74819 0.85408 0.64992 0.0
C475 C 0.78845 0.84649 0.65666 0.0
C476 C 0.8651 0.02761 0.61762 0.0
C477 C 0.80618 0.93976 0.63539 0.0
C478 C 0.87605 0.07731 0.61438 0.0
C479 C 0.83896 0.09024 0.61927 0.0
C480 C 0.81664 0.9905 0.6259 0.0
C481 C 0.78983 0.05127 0.62442 0.0
C482 C 0.75685 0.90046 0.6395 0.0
C483 C 0.83731 0.88693 0.65253 0.0
N484 N 0.78022 0.00322 0.62811 0.0
N485 N 0.84478 0.93176 0.64212 0.0
H486 H 0.91626 0.83011 0.61432 0.0
H487 H 0.19931 0.90584 0.6488 0.0
H488 H 0.96357 0.72155 0.62833 0.0
H489 H 0.14137 0.00741 0.65628 0.0
H490 H 0.11777 0.84062 0.63134 0.0
H491 H 0.00363 0.8977 0.61678 0.0
C492 C 0.94544 0.82039 0.61634 0.0
C493 C 0.93282 0.77017 0.62077 0.0
C494 C 0.1229 0.87718 0.63672 0.0
C495 C 0.03261 0.8474 0.62514 0.0
C496 C 0.16943 0.91452 0.64682 0.0
C497 C 0.17726 0.96227 0.65435 0.0
C498 C 0.08366 0.88749 0.63377 0.0
C499 C 0.13699 0.97107 0.65116 0.0
C500 C 0.99519 0.85906 0.61842 0.0
C501 C 0.97184 0.75969 0.62427 0.0
N502 N 0.09197 0.93405 0.64112 0.0
N503 N 0.01999 0.79807 0.62692 0.0
H504 H 0.19741 0.10786 0.61215 0.0
H505 H 0.11827 0.31385 0.64527 0.0
H506 H 0.30436 0.26352 0.62822 0.0
H507 H 0.01817 0.15387 0.6539 0.0
H508 H 0.18439 0.29805 0.62897 0.0
H509 H 0.12954 0.12717 0.61459 0.0
C510 C 0.20681 0.1467 0.61458 0.0
C511 C 0.25669 0.18433 0.61952 0.0
C512 C 0.14796 0.26639 0.63435 0.0
C513 C 0.17896 0.2063 0.62383 0.0
C514 C 0.11007 0.27529 0.64377 0.0
C515 C 0.06242 0.2351 0.65127 0.0
C516 C 0.13836 0.21686 0.632 0.0
C517 C 0.05435 0.18605 0.64874 0.0
C518 C 0.16793 0.15747 0.61668 0.0
C519 C 0.26659 0.23366 0.62366 0.0
N520 N 0.09188 0.17833 0.6393 0.0
N521 N 0.228 0.24312 0.6262 0.0
H522 H 0.9762 0.35247 0.23942 0.0
H523 H 0.04378 0.36759 0.07224 0.0
H524 H 0.07854 0.30859 0.20422 0.0
H525 H 0.93985 0.4097 0.10705 0.0
H526 H 0.0532 0.3411 0.12028 0.0
H527 H 0.95773 0.36795 0.19059 0.0
C528 C 0.99454 0.34576 0.22144 0.0
C529 C 0.02941 0.32977 0.2259 0.0
C530 C 0.0282 0.35598 0.11737 0.0
C531 C 0.0086 0.34762 0.17011 0.0
C532 C 0.02291 0.37125 0.08997 0.0
C533 C 0.99117 0.39111 0.08568 0.0
C534 C 0.00171 0.36078 0.1406 0.0
C535 C 0.96491 0.3948 0.10941 0.0
C536 C 0.98399 0.35464 0.19357 0.0
C537 C 0.05175 0.32133 0.2018 0.0
N538 N 0.97092 0.37989 0.13593 0.0
N539 N 0.0412 0.33074 0.1749 0.0
H540 H 0.63643 0.6222 0.23913 0.0
H541 H 0.62505 0.67757 0.0713 0.0
H542 H 0.70218 0.77218 0.20324 0.0
H543 H 0.54439 0.53003 0.11062 0.0
H544 H 0.6573 0.71341 0.11892 0.0
H545 H 0.60822 0.58787 0.19103 0.0
C546 C 0.64541 0.64796 0.22112 0.0
C547 C 0.6714 0.70016 0.22528 0.0
C548 C 0.6324 0.67322 0.11704 0.0
C549 C 0.63869 0.66106 0.17022 0.0
C550 C 0.61381 0.65278 0.08992 0.0
C551 C 0.58211 0.60071 0.08693 0.0
C552 C 0.61926 0.64129 0.14121 0.0
C553 C 0.56885 0.57037 0.1118 0.0
C554 C 0.62899 0.62831 0.19367 0.0
C555 C 0.68194 0.73166 0.20108 0.0
N556 N 0.58767 0.59111 0.13785 0.0
N557 N 0.6653 0.71158 0.17456 0.0
H558 H 0.3334 0.00054 0.07615 0.0
H559 H 0.39618 0.03123 0.24429 0.0
H560 H 0.48013 0.04558 0.11093 0.0
H561 H 0.24669 0.96516 0.20886 0.0
H562 H 0.43026 0.05161 0.19536 0.0
H563 H 0.30399 0.00202 0.12463 0.0
C564 C 0.35951 0.01086 0.09397 0.0
C565 C 0.40909 0.02212 0.08957 0.0
C566 C 0.39004 0.03305 0.19838 0.0
C567 C 0.3756 0.02392 0.14505 0.0
C568 C 0.37057 0.02148 0.22626 0.0
C569 C 0.31851 0.99568 0.23054 0.0
C570 C 0.35713 0.01876 0.17481 0.0
C571 C 0.28705 0.98426 0.20649 0.0
C572 C 0.34269 0.01183 0.12163 0.0
C573 C 0.44141 0.03599 0.1134 0.0
N574 N 0.30689 0.99553 0.17959 0.0
N575 N 0.42393 0.03607 0.14024 0.0
H576 H 0.40835 0.9406 0.87874 0.0
H577 H 0.30518 0.08096 0.77937 0.0
H578 H 0.36547 0.0457 0.91089 0.0
H579 H 0.35953 0.98552 0.74629 0.0
H580 H 0.31923 0.06169 0.82827 0.0
H581 H 0.38345 0.95067 0.83044 0.0
C582 C 0.39367 0.96577 0.87567 0.0
C583 C 0.38925 0.99262 0.89883 0.0
C584 C 0.32787 0.04481 0.81031 0.0
C585 C 0.36065 0.00412 0.8437 0.0
C586 C 0.31984 0.05574 0.78237 0.0
C587 C 0.33172 0.03521 0.75871 0.0
C588 C 0.34795 0.01322 0.81457 0.0
C589 C 0.35021 0.00249 0.7639 0.0
C590 C 0.37939 0.97141 0.84809 0.0
C591 C 0.36973 0.02445 0.89362 0.0
N592 N 0.35807 0.99273 0.79135 0.0
N593 N 0.35626 0.02944 0.86651 0.0
H594 H 0.98922 0.33384 0.9085 0.0
H595 H 0.03096 0.39926 0.74056 0.0
H596 H 0.04071 0.4826 0.87358 0.0
H597 H 0.95912 0.24842 0.7757 0.0
H598 H 0.04831 0.43245 0.78961 0.0
H599 H 0.99095 0.30417 0.8602 0.0
C600 C 0.00098 0.36034 0.89069 0.0
C601 C 0.01418 0.41065 0.89501 0.0
C602 C 0.02912 0.39212 0.78651 0.0
C603 C 0.0163 0.37684 0.83971 0.0
C604 C 0.01929 0.37314 0.75856 0.0
C605 C 0.99283 0.32099 0.75411 0.0
C606 C 0.01241 0.35865 0.81001 0.0
C607 C 0.97889 0.28889 0.77816 0.0
C608 C 0.00207 0.34336 0.86312 0.0
C609 C 0.02968 0.44337 0.87117 0.0
N610 N 0.98853 0.30829 0.80513 0.0
N611 N 0.02997 0.42575 0.84442 0.0
H612 H 0.6267 0.64444 0.74543 0.0
H613 H 0.67943 0.62851 0.91306 0.0
H614 H 0.776 0.70802 0.78085 0.0
H615 H 0.53353 0.54719 0.87292 0.0
H616 H 0.71632 0.66176 0.86554 0.0
H617 H 0.59223 0.61486 0.79343 0.0
C618 C 0.65229 0.65268 0.76333 0.0
C619 C 0.70432 0.67842 0.75904 0.0
C620 C 0.67627 0.63645 0.86724 0.0
C621 C 0.66504 0.64406 0.81403 0.0
C622 C 0.65526 0.61727 0.89429 0.0
C623 C 0.60329 0.5853 0.897 0.0
C624 C 0.64498 0.62361 0.84293 0.0
C625 C 0.57372 0.57203 0.87196 0.0
C626 C 0.63256 0.63545 0.79073 0.0
C627 C 0.73561 0.68802 0.78312 0.0
N628 N 0.59497 0.59147 0.84603 0.0
N629 N 0.71544 0.67057 0.80962 0.0
H630 H 0.70087 0.65764 0.40964 0.0
H631 H 0.65704 0.70139 0.57479 0.0
H632 H 0.62518 0.73693 0.43692 0.0
H633 H 0.74292 0.63261 0.5475 0.0
H634 H 0.63847 0.70808 0.52422 0.0
H635 H 0.71005 0.64115 0.46029 0.0
C636 C 0.686 0.67136 0.42623 0.0
C637 C 0.66267 0.6991 0.41905 0.0
C638 C 0.66125 0.6914 0.52937 0.0
C639 C 0.67305 0.68048 0.47685 0.0
C640 C 0.67185 0.68757 0.55822 0.0
C641 C 0.7019 0.66682 0.56538 0.0
C642 C 0.68084 0.67429 0.50764 0.0
C643 C 0.71993 0.64932 0.54301 0.0
C644 C 0.69129 0.66201 0.45511 0.0
C645 C 0.64392 0.71583 0.44143 0.0
N646 N 0.70925 0.65362 0.51514 0.0
N647 N 0.64971 0.70642 0.46933 0.0
H648 H 0.26998 0.89044 0.44157 0.0
H649 H 0.3971 0.12613 0.5468 0.0
H650 H 0.3623 0.04412 0.41249 0.0
H651 H 0.31798 0.97204 0.5769 0.0
H652 H 0.38689 0.09617 0.49737 0.0
H653 H 0.28924 0.91911 0.49139 0.0
C654 C 0.2944 0.93017 0.44563 0.0
C655 C 0.31426 0.96501 0.42284 0.0
C656 C 0.37199 0.06889 0.51479 0.0
C657 C 0.33636 0.9979 0.47969 0.0
C658 C 0.37767 0.08596 0.54302 0.0
C659 C 0.35796 0.05149 0.56597 0.0
C660 C 0.34614 0.01701 0.50945 0.0
C661 C 0.33361 0.99991 0.55983 0.0
C662 C 0.30547 0.94646 0.47408 0.0
C663 C 0.34594 0.01595 0.42937 0.0
N664 N 0.32805 0.98419 0.53205 0.0
N665 N 0.35578 0.03089 0.45725 0.0
H666 H 0.89346 0.28485 0.54357 0.0
H667 H 0.12641 0.39783 0.43633 0.0
H668 H 0.04789 0.36725 0.5716 0.0
H669 H 0.97212 0.32547 0.40804 0.0
H670 H 0.09827 0.39137 0.48602 0.0
H671 H 0.9216 0.30393 0.49367 0.0
C672 C 0.9333 0.30709 0.53924 0.0
C673 C 0.96846 0.32402 0.56174 0.0
C674 C 0.0706 0.37718 0.46893 0.0
C675 C 0.00078 0.34591 0.50475 0.0
C676 C 0.0866 0.38067 0.44055 0.0
C677 C 0.05147 0.36163 0.41805 0.0
C678 C 0.01915 0.35422 0.47483 0.0
C679 C 0.00046 0.34035 0.42475 0.0
C680 C 0.9493 0.3181 0.51075 0.0
C681 C 0.01951 0.35317 0.55491 0.0
N682 N 0.98577 0.33687 0.45264 0.0
N683 N 0.03419 0.36288 0.52693 0.0
loop_
_geom_bond_atom_site_label_1
_geom_bond_atom_site_label_2
_geom_bond_distance
_geom_bond_site_symmetry_2
_ccdc_geom_bond_type
Sc0 O3 2.025 1_556 S
Sc0 O10 2.117 . S
Sc0 O13 2.105 . S
Sc0 O16 2.105 1_455 S
Sc0 O19 2.105 . S
Sc1 O3 2.025 . S
Sc1 O11 2.105 1_554 S
Sc1 O15 2.105 1_455 S
Sc1 O17 2.105 1_454 S
Sc1 O21 2.105 . S
Sc2 O3 2.025 1_655 S
Sc2 O12 2.105 1_655 S
Sc2 O14 2.105 . S
Sc2 O18 2.105 . S
Sc2 O20 2.105 1_655 S
O3 Sc0 2.025 1_554 S
O3 Sc1 2.025 . S
O3 Sc2 2.025 1_455 S
C4 O10 1.250 1_554 S
C4 O20 1.268 . S
C5 O11 1.268 . S
C5 O19 1.268 . S
C6 O12 1.268 . S
C6 O21 1.268 . S
C7 O13 1.268 1_655 S
C7 O17 1.268 . S
C8 O14 1.268 1_556 S
C8 O16 1.268 . S
C9 O15 1.268 . S
C9 O18 1.268 . S
O10 Sc0 2.117 . S
O10 C4 1.250 1_556 S
O11 Sc1 2.105 1_556 S
O11 C5 1.268 . S
O12 Sc2 2.105 1_455 S
O12 C6 1.268 . S
O13 Sc0 2.105 . S
O13 C7 1.268 1_455 S
O14 Sc2 2.105 . S
O14 C8 1.268 1_554 S
O15 Sc1 2.105 1_655 S
O15 C9 1.268 . S
O16 Sc0 2.105 1_655 S
O16 C8 1.268 . S
O17 Sc1 2.105 1_656 S
O17 C7 1.268 . S
O18 Sc2 2.105 . S
O18 C9 1.268 . S
O19 Sc0 2.105 . S
O19 C5 1.268 . S
O20 Sc2 2.105 1_455 S
O20 C4 1.268 . S
O21 Sc1 2.105 . S
O21 C6 1.268 . S
Sc22 O25 2.025 1_556 S
Sc22 O32 2.117 . S
Sc22 O35 2.105 . S
Sc22 O38 2.105 . S
Sc22 O41 2.105 . S
Sc23 O25 2.025 . S
Sc23 O33 2.105 1_554 S
Sc23 O37 2.105 . S
Sc23 O39 2.105 1_554 S
Sc23 O43 2.105 . S
Sc24 O25 2.025 . S
Sc24 O34 2.105 . S
Sc24 O36 2.105 . S
Sc24 O40 2.105 . S
Sc24 O42 2.105 . S
O25 Sc22 2.025 1_554 S
O25 Sc23 2.025 . S
O25 Sc24 2.025 . S
C26 O32 1.250 1_554 S
C26 O42 1.268 . S
C27 O33 1.268 . S
C27 O41 1.268 . S
C28 O34 1.268 . S
C28 O43 1.268 . S
C29 O35 1.268 . S
C29 O39 1.268 . S
C30 O36 1.268 1_556 S
C30 O38 1.268 . S
C31 O37 1.268 . S
C31 O40 1.268 . S
O32 Sc22 2.117 . S
O32 C26 1.250 1_556 S
O33 Sc23 2.105 1_556 S
O33 C27 1.268 . S
O34 Sc24 2.105 . S
O34 C28 1.268 . S
O35 Sc22 2.105 . S
O35 C29 1.268 . S
O36 Sc24 2.105 . S
O36 C30 1.268 1_554 S
O37 Sc23 2.105 . S
O37 C31 1.268 . S
O38 Sc22 2.105 . S
O38 C30 1.268 . S
O39 Sc23 2.105 1_556 S
O39 C29 1.268 . S
O40 Sc24 2.105 . S
O40 C31 1.268 . S
O41 Sc22 2.105 . S
O41 C27 1.268 . S
O42 Sc24 2.105 . S
O42 C26 1.268 . S
O43 Sc23 2.105 . S
O43 C28 1.268 . S
Sc44 O47 2.025 1_566 S
Sc44 O54 2.117 . S
Sc44 O57 2.105 1_565 S
Sc44 O60 2.105 1_565 S
Sc44 O63 2.105 . S
Sc45 O47 2.025 . S
Sc45 O55 2.105 1_544 S
Sc45 O59 2.105 . S
Sc45 O61 2.105 1_554 S
Sc45 O65 2.105 1_545 S
Sc46 O47 2.025 . S
Sc46 O56 2.105 . S
Sc46 O58 2.105 . S
Sc46 O62 2.105 . S
Sc46 O64 2.105 1_545 S
O47 Sc44 2.025 1_544 S
O47 Sc45 2.025 . S
O47 Sc46 2.025 . S
C48 O54 1.250 1_554 S
C48 O64 1.268 . S
C49 O55 1.268 . S
C49 O63 1.268 . S
C50 O56 1.268 1_565 S
C50 O65 1.268 . S
C51 O57 1.268 . S
C51 O61 1.268 . S
C52 O58 1.268 1_556 S
C52 O60 1.268 . S
C53 O59 1.268 . S
C53 O62 1.268 . S
O54 Sc44 2.117 . S
O54 C48 1.250 1_556 S
O55 Sc45 2.105 1_566 S
O55 C49 1.268 . S
O56 Sc46 2.105 . S
O56 C50 1.268 1_545 S
O57 Sc44 2.105 1_545 S
O57 C51 1.268 . S
O58 Sc46 2.105 . S
O58 C52 1.268 1_554 S
O59 Sc45 2.105 . S
O59 C53 1.268 . S
O60 Sc44 2.105 1_545 S
O60 C52 1.268 . S
O61 Sc45 2.105 1_556 S
O61 C51 1.268 . S
O62 Sc46 2.105 . S
O62 C53 1.268 . S
O63 Sc44 2.105 . S
O63 C49 1.268 . S
O64 Sc46 2.105 1_565 S
O64 C48 1.268 . S
O65 Sc45 2.105 1_565 S
O65 C50 1.268 . S
Sc66 O69 2.025 . S
Sc66 O76 2.105 . S
Sc66 O79 2.105 . S
Sc66 O82 2.105 . S
Sc66 O85 2.105 . S
Sc67 O69 2.025 . S
Sc67 O77 2.105 . S
Sc67 O81 2.105 . S
Sc67 O83 2.105 . S
Sc67 O87 2.105 . S
Sc68 O69 2.025 . S
Sc68 O78 2.105 . S
Sc68 O80 2.105 . S
Sc68 O84 2.105 . S
Sc68 O86 2.105 . S
O69 Sc66 2.025 . S
O69 Sc67 2.025 . S
O69 Sc68 2.025 . S
C70 O76 1.268 . S
C70 O86 1.268 . S
C71 O77 1.268 . S
C71 O85 1.268 . S
C72 O78 1.268 . S
C72 O87 1.268 . S
C73 O79 1.268 . S
C73 O83 1.268 . S
C74 O80 1.268 . S
C74 O82 1.268 . S
C75 O81 1.268 . S
C75 O84 1.268 . S
O76 Sc66 2.105 . S
O76 C70 1.268 . S
O77 Sc67 2.105 . S
O77 C71 1.268 . S
O78 Sc68 2.105 . S
O78 C72 1.268 . S
O79 Sc66 2.105 . S
O79 C73 1.268 . S
O80 Sc68 2.105 . S
O80 C74 1.268 . S
O81 Sc67 2.105 . S
O81 C75 1.268 . S
O82 Sc66 2.105 . S
O82 C74 1.268 . S
O83 Sc67 2.105 . S
O83 C73 1.268 . S
O84 Sc68 2.105 . S
O84 C75 1.268 . S
O85 Sc66 2.105 . S
O85 C71 1.268 . S
O86 Sc68 2.105 . S
O86 C70 1.268 . S
O87 Sc67 2.105 . S
O87 C72 1.268 . S
Sc88 O91 2.025 . S
Sc88 O98 2.105 . S
Sc88 O101 2.105 . S
Sc88 O104 2.105 . S
Sc88 O107 2.105 . S
Sc89 O91 2.025 . S
Sc89 O99 2.105 1_565 S
Sc89 O103 2.105 . S
Sc89 O105 2.105 . S
Sc89 O109 2.105 . S
Sc90 O91 2.025 . S
Sc90 O100 2.105 . S
Sc90 O102 2.105 . S
Sc90 O106 2.105 . S
Sc90 O108 2.105 . S
O91 Sc88 2.025 . S
O91 Sc89 2.025 . S
O91 Sc90 2.025 . S
C92 O98 1.268 . S
C92 O108 1.268 . S
C93 O99 1.268 1_565 S
C93 O107 1.268 . S
C94 O100 1.268 . S
C94 O109 1.268 . S
C95 O101 1.268 . S
C95 O105 1.268 . S
C96 O102 1.268 . S
C96 O104 1.268 . S
C97 O103 1.268 . S
C97 O106 1.268 . S
O98 Sc88 2.105 . S
O98 C92 1.268 . S
O99 Sc89 2.105 1_545 S
O99 C93 1.268 1_545 S
O100 Sc90 2.105 . S
O100 C94 1.268 . S
O101 Sc88 2.105 . S
O101 C95 1.268 . S
O102 Sc90 2.105 . S
O102 C96 1.268 . S
O103 Sc89 2.105 . S
O103 C97 1.268 . S
O104 Sc88 2.105 . S
O104 C96 1.268 . S
O105 Sc89 2.105 . S
O105 C95 1.268 . S
O106 Sc90 2.105 . S
O106 C97 1.268 . S
O107 Sc88 2.105 . S
O107 C93 1.268 . S
O108 Sc90 2.105 . S
O108 C92 1.268 . S
O109 Sc89 2.105 . S
O109 C94 1.268 . S
Sc110 O113 2.025 . S
Sc110 O120 2.105 . S
Sc110 O123 2.105 . S
Sc110 O126 2.105 . S
Sc110 O129 2.105 . S
Sc111 O113 2.025 . S
Sc111 O121 2.105 . S
Sc111 O125 2.105 . S
Sc111 O127 2.105 . S
Sc111 O131 2.105 . S
Sc112 O113 2.025 . S
Sc112 O122 2.105 . S
Sc112 O124 2.105 . S
Sc112 O128 2.105 . S
Sc112 O130 2.105 . S
O113 Sc110 2.025 . S
O113 Sc111 2.025 . S
O113 Sc112 2.025 . S
C114 O120 1.268 . S
C114 O130 1.268 . S
C115 O121 1.268 . S
C115 O129 1.268 . S
C116 O122 1.268 . S
C116 O131 1.268 . S
C117 O123 1.268 . S
C117 O127 1.268 . S
C118 O124 1.268 . S
C118 O126 1.268 . S
C119 O125 1.268 . S
C119 O128 1.268 . S
O120 Sc110 2.105 . S
O120 C114 1.268 . S
O121 Sc111 2.105 . S
O121 C115 1.268 . S
O122 Sc112 2.105 . S
O122 C116 1.268 . S
O123 Sc110 2.105 . S
O123 C117 1.268 . S
O124 Sc112 2.105 . S
O124 C118 1.268 . S
O125 Sc111 2.105 . S
O125 C119 1.268 . S
O126 Sc110 2.105 . S
O126 C118 1.268 . S
O127 Sc111 2.105 . S
O127 C117 1.268 . S
O128 Sc112 2.105 . S
O128 C119 1.268 . S
O129 Sc110 2.105 . S
O129 C115 1.268 . S
O130 Sc112 2.105 . S
O130 C114 1.268 . S
O131 Sc111 2.105 . S
O131 C116 1.268 . S
Sc132 O135 2.025 . S
Sc132 O142 2.105 . S
Sc132 O145 2.105 . S
Sc132 O148 2.105 . S
Sc132 O151 2.105 . S
Sc133 O135 2.025 . S
Sc133 O143 2.105 . S
Sc133 O147 2.105 . S
Sc133 O149 2.105 . S
Sc133 O153 2.105 . S
Sc134 O135 2.025 . S
Sc134 O144 2.105 . S
Sc134 O146 2.105 . S
Sc134 O150 2.105 . S
Sc134 O152 2.105 . S
O135 Sc132 2.025 . S
O135 Sc133 2.025 . S
O135 Sc134 2.025 . S
C136 O142 1.268 . S
C136 O152 1.268 . S
C137 O143 1.268 . S
C137 O151 1.268 . S
C138 O144 1.268 . S
C138 O153 1.268 . S
C139 O145 1.268 . S
C139 O149 1.268 . S
C140 O146 1.268 . S
C140 O148 1.268 . S
C141 O147 1.268 . S
C141 O150 1.268 . S
O142 Sc132 2.105 . S
O142 C136 1.268 . S
O143 Sc133 2.105 . S
O143 C137 1.268 . S
O144 Sc134 2.105 . S
O144 C138 1.268 . S
O145 Sc132 2.105 . S
O145 C139 1.268 . S
O146 Sc134 2.105 . S
O146 C140 1.268 . S
O147 Sc133 2.105 . S
O147 C141 1.268 . S
O148 Sc132 2.105 . S
O148 C140 1.268 . S
O149 Sc133 2.105 . S
O149 C139 1.268 . S
O150 Sc134 2.105 . S
O150 C141 1.268 . S
O151 Sc132 2.105 . S
O151 C137 1.268 . S
O152 Sc134 2.105 . S
O152 C136 1.268 . S
O153 Sc133 2.105 . S
O153 C138 1.268 . S
Sc154 O157 2.025 . S
Sc154 O164 2.105 . S
Sc154 O167 2.105 . S
Sc154 O170 2.105 . S
Sc154 O173 2.105 . S
Sc155 O157 2.025 . S
Sc155 O165 2.105 . S
Sc155 O169 2.105 1_655 S
Sc155 O171 2.105 . S
Sc155 O175 2.105 . S
Sc156 O157 2.025 . S
Sc156 O166 2.105 . S
Sc156 O168 2.105 . S
Sc156 O172 2.105 . S
Sc156 O174 2.105 . S
O157 Sc154 2.025 . S
O157 Sc155 2.025 . S
O157 Sc156 2.025 . S
C158 O164 1.268 . S
C158 O174 1.268 . S
C159 O165 1.268 . S
C159 O173 1.268 . S
C160 O166 1.268 . S
C160 O175 1.268 . S
C161 O167 1.268 . S
C161 O171 1.268 . S
C162 O168 1.268 . S
C162 O170 1.268 . S
C163 O169 1.268 1_655 S
C163 O172 1.268 . S
O164 Sc154 2.105 . S
O164 C158 1.268 . S
O165 Sc155 2.105 . S
O165 C159 1.268 . S
O166 Sc156 2.105 . S
O166 C160 1.268 . S
O167 Sc154 2.105 . S
O167 C161 1.268 . S
O168 Sc156 2.105 . S
O168 C162 1.268 . S
O169 Sc155 2.105 1_455 S
O169 C163 1.268 1_455 S
O170 Sc154 2.105 . S
O170 C162 1.268 . S
O171 Sc155 2.105 . S
O171 C161 1.268 . S
O172 Sc156 2.105 . S
O172 C163 1.268 . S
O173 Sc154 2.105 . S
O173 C159 1.268 . S
O174 Sc156 2.105 . S
O174 C158 1.268 . S
O175 Sc155 2.105 . S
O175 C160 1.268 . S
Sc176 O179 2.025 . S
Sc176 O186 2.105 . S
Sc176 O189 2.105 . S
Sc176 O192 2.105 . S
Sc176 O195 2.105 . S
Sc177 O179 2.025 . S
Sc177 O187 2.105 . S
Sc177 O191 2.105 . S
Sc177 O193 2.105 . S
Sc177 O197 2.105 . S
Sc178 O179 2.025 . S
Sc178 O188 2.105 . S
Sc178 O190 2.105 . S
Sc178 O194 2.105 . S
Sc178 O196 2.105 . S
O179 Sc176 2.025 . S
O179 Sc177 2.025 . S
O179 Sc178 2.025 . S
C180 O186 1.268 . S
C180 O196 1.268 . S
C181 O187 1.268 . S
C181 O195 1.268 . S
C182 O188 1.268 . S
C182 O197 1.268 . S
C183 O189 1.268 . S
C183 O193 1.268 . S
C184 O190 1.268 . S
C184 O192 1.268 . S
C185 O191 1.268 . S
C185 O194 1.268 . S
O186 Sc176 2.105 . S
O186 C180 1.268 . S
O187 Sc177 2.105 . S
O187 C181 1.268 . S
O188 Sc178 2.105 . S
O188 C182 1.268 . S
O189 Sc176 2.105 . S
O189 C183 1.268 . S
O190 Sc178 2.105 . S
O190 C184 1.268 . S
O191 Sc177 2.105 . S
O191 C185 1.268 . S
O192 Sc176 2.105 . S
O192 C184 1.268 . S
O193 Sc177 2.105 . S
O193 C183 1.268 . S
O194 Sc178 2.105 . S
O194 C185 1.268 . S
O195 Sc176 2.105 . S
O195 C181 1.268 . S
O196 Sc178 2.105 . S
O196 C180 1.268 . S
O197 Sc177 2.105 . S
O197 C182 1.268 . S
H198 C204 0.935 . S
H199 C208 0.930 . S
H200 C213 0.929 . S
H201 C211 0.929 . S
H202 C206 0.929 . S
H203 C212 0.929 . S
C204 H198 0.935 . S
C204 C205 1.361 1_556 S
C204 C212 1.379 . S
C205 C204 1.361 1_554 S
C205 C213 1.433 . S
C206 H202 0.929 . S
C206 C208 1.378 . S
C206 C210 1.350 . S
C207 C210 1.463 . S
C207 C212 1.350 1_554 S
C207 N215 1.427 . S
C208 H199 0.930 . S
C208 C206 1.378 . S
C208 C209 1.367 1_554 S
C209 C208 1.367 1_556 S
C209 C211 1.433 . S
C210 C206 1.350 . S
C210 C207 1.463 . S
C210 N214 1.427 1_554 S
C211 H201 0.929 . S
C211 C209 1.433 . S
C211 N214 1.384 . S
C212 H203 0.929 . S
C212 C204 1.379 . S
C212 C207 1.350 1_556 S
C213 H200 0.929 . S
C213 C205 1.433 . S
C213 N215 1.384 . S
N214 C210 1.427 1_556 S
N214 C211 1.384 . S
N215 C207 1.427 . S
N215 C213 1.384 . S
H216 C222 0.930 . S
H217 C226 0.930 . S
H218 C231 0.929 . S
H219 C229 0.929 . S
H220 C224 0.929 . S
H221 C230 0.929 . S
C222 H216 0.930 . S
C222 C223 1.367 . S
C222 C230 1.378 . S
C223 C222 1.367 . S
C223 C231 1.433 . S
C224 H220 0.929 . S
C224 C226 1.378 1_554 S
C224 C228 1.350 . S
C225 C228 1.463 . S
C225 C230 1.350 . S
C225 N233 1.427 . S
C226 H217 0.930 . S
C226 C224 1.378 1_556 S
C226 C227 1.367 . S
C227 C226 1.367 . S
C227 C229 1.433 . S
C228 C224 1.350 . S
C228 C225 1.463 . S
C228 N232 1.427 1_554 S
C229 H219 0.929 . S
C229 C227 1.433 . S
C229 N232 1.384 . S
C230 H221 0.929 . S
C230 C222 1.378 . S
C230 C225 1.350 . S
C231 H218 0.929 . S
C231 C223 1.433 . S
C231 N233 1.384 . S
N232 C228 1.427 1_556 S
N232 C229 1.384 . S
N233 C225 1.427 . S
N233 C231 1.384 . S
H234 C240 0.930 . S
H235 C244 0.930 1_556 S
H236 C249 0.929 . S
H237 C247 0.929 . S
H238 C242 0.929 . S
H239 C248 0.929 . S
C240 H234 0.930 . S
C240 C241 1.367 1_554 S
C240 C248 1.378 . S
C241 C240 1.367 1_556 S
C241 C249 1.433 . S
C242 H238 0.929 . S
C242 C244 1.378 1_556 S
C242 C246 1.350 1_556 S
C243 C246 1.463 . S
C243 C248 1.350 . S
C243 N251 1.427 1_554 S
C244 H235 0.930 1_554 S
C244 C242 1.378 1_554 S
C244 C245 1.367 . S
C245 C244 1.367 . S
C245 C247 1.433 . S
C246 C242 1.350 1_554 S
C246 C243 1.463 . S
C246 N250 1.427 . S
C247 H237 0.929 . S
C247 C245 1.433 . S
C247 N250 1.384 . S
C248 H239 0.929 . S
C248 C240 1.378 . S
C248 C243 1.350 . S
C249 H236 0.929 . S
C249 C241 1.433 . S
C249 N251 1.384 . S
N250 C246 1.427 . S
N250 C247 1.384 . S
N251 C243 1.427 1_556 S
N251 C249 1.384 . S
H252 C258 0.930 . S
H253 C262 0.930 . S
H254 C267 0.929 . S
H255 C265 0.929 . S
H256 C260 0.929 . S
H257 C266 0.929 . S
C258 H252 0.930 . S
C258 C259 1.367 1_556 S
C258 C266 1.378 . S
C259 C258 1.367 1_554 S
C259 C267 1.433 . S
C260 H256 0.929 . S
C260 C262 1.378 . S
C260 C264 1.350 1_554 S
C261 C264 1.463 1_554 S
C261 C266 1.350 1_554 S
C261 N269 1.427 . S
C262 H253 0.930 . S
C262 C260 1.378 . S
C262 C263 1.367 1_554 S
C263 C262 1.367 1_556 S
C263 C265 1.433 . S
C264 C260 1.350 1_556 S
C264 C261 1.463 1_556 S
C264 N268 1.427 . S
C265 H255 0.929 . S
C265 C263 1.433 . S
C265 N268 1.384 . S
C266 H257 0.929 . S
C266 C258 1.378 . S
C266 C261 1.350 1_556 S
C267 H254 0.929 . S
C267 C259 1.433 . S
C267 N269 1.384 . S
N268 C264 1.427 . S
N268 C265 1.384 . S
N269 C261 1.427 . S
N269 C267 1.384 . S
H270 C276 0.930 1_554 S
H271 C280 0.938 . S
H272 C285 0.929 . S
H273 C283 0.929 . S
H274 C278 0.929 . S
H275 C284 0.929 . S
C276 H270 0.930 1_556 S
C276 C277 1.367 . S
C276 C284 1.378 1_556 S
C277 C276 1.367 . S
C277 C285 1.433 . S
C278 H274 0.929 . S
C278 C280 1.384 . S
C278 C282 1.350 1_556 S
C279 C282 1.463 1_556 S
C279 C284 1.350 1_556 S
C279 N287 1.427 . S
C280 H271 0.938 . S
C280 C278 1.384 . S
C280 C281 1.354 1_556 S
C281 C280 1.354 1_554 S
C281 C283 1.433 . S
C282 C278 1.350 1_554 S
C282 C279 1.463 1_554 S
C282 N286 1.427 . S
C283 H273 0.929 . S
C283 C281 1.433 . S
C283 N286 1.384 . S
C284 H275 0.929 . S
C284 C276 1.378 1_554 S
C284 C279 1.350 1_554 S
C285 H272 0.929 . S
C285 C277 1.433 . S
C285 N287 1.384 . S
N286 C282 1.427 . S
N286 C283 1.384 . S
N287 C279 1.427 . S
N287 C285 1.384 . S
H288 C294 0.930 . S
H289 C298 0.930 . S
H290 C303 0.933 . S
H291 C301 0.929 . S
H292 C296 0.929 . S
H293 C302 0.929 . S
C294 H288 0.930 . S
C294 C295 1.367 . S
C294 C302 1.378 . S
C295 C294 1.367 . S
C295 C303 1.426 1_556 S
C296 H292 0.929 . S
C296 C298 1.378 . S
C296 C300 1.350 . S
C297 C300 1.463 1_556 S
C297 C302 1.350 . S
C297 N305 1.427 1_556 S
C298 H289 0.930 . S
C298 C296 1.378 . S
C298 C299 1.367 . S
C299 C298 1.367 . S
C299 C301 1.433 1_554 S
C300 C296 1.350 . S
C300 C297 1.463 1_554 S
C300 N304 1.427 1_554 S
C301 H291 0.929 . S
C301 C299 1.433 1_556 S
C301 N304 1.384 . S
C302 H293 0.929 . S
C302 C294 1.378 . S
C302 C297 1.350 . S
C303 H290 0.933 . S
C303 C295 1.426 1_554 S
C303 N305 1.386 . S
N304 C300 1.427 1_556 S
N304 C301 1.384 . S
N305 C297 1.427 1_554 S
N305 C303 1.386 . S
H306 C312 0.930 . S
H307 C316 0.930 . S
H308 C321 0.929 . S
H309 C319 0.929 . S
H310 C314 0.929 . S
H311 C320 0.929 . S
C312 H306 0.930 . S
C312 C313 1.367 . S
C312 C320 1.378 . S
C313 C312 1.367 . S
C313 C321 1.433 . S
C314 H310 0.929 . S
C314 C316 1.378 . S
C314 C318 1.350 1_455 S
C315 C318 1.463 . S
C315 C320 1.350 . S
C315 N323 1.427 . S
C316 H307 0.930 . S
C316 C314 1.378 . S
C316 C317 1.367 . S
C317 C316 1.367 . S
C317 C319 1.433 . S
C318 C314 1.350 1_655 S
C318 C315 1.463 . S
C318 N322 1.427 . S
C319 H309 0.929 . S
C319 C317 1.433 . S
C319 N322 1.384 1_455 S
C320 H311 0.929 . S
C320 C312 1.378 . S
C320 C315 1.350 . S
C321 H308 0.929 . S
C321 C313 1.433 . S
C321 N323 1.384 . S
N322 C318 1.427 . S
N322 C319 1.384 1_655 S
N323 C315 1.427 . S
N323 C321 1.384 . S
H324 C330 0.930 . S
H325 C334 0.930 . S
H326 C339 0.929 . S
H327 C337 0.929 . S
H328 C332 0.929 . S
H329 C338 0.929 . S
C330 H324 0.930 . S
C330 C331 1.367 . S
C330 C338 1.378 . S
C331 C330 1.367 . S
C331 C339 1.433 . S
C332 H328 0.929 . S
C332 C334 1.378 . S
C332 C336 1.350 . S
C333 C336 1.463 . S
C333 C338 1.350 . S
C333 N341 1.427 . S
C334 H325 0.930 . S
C334 C332 1.378 . S
C334 C335 1.367 . S
C335 C334 1.367 . S
C335 C337 1.433 . S
C336 C332 1.350 . S
C336 C333 1.463 . S
C336 N340 1.427 . S
C337 H327 0.929 . S
C337 C335 1.433 . S
C337 N340 1.384 . S
C338 H329 0.929 . S
C338 C330 1.378 . S
C338 C333 1.350 . S
C339 H326 0.929 . S
C339 C331 1.433 . S
C339 N341 1.384 . S
N340 C336 1.427 . S
N340 C337 1.384 . S
N341 C333 1.427 . S
N341 C339 1.384 . S
H342 C348 0.930 . S
H343 C352 0.930 . S
H344 C357 0.929 . S
H345 C355 0.929 . S
H346 C350 0.929 . S
H347 C356 0.929 . S
C348 H342 0.930 . S
C348 C349 1.367 . S
C348 C356 1.378 . S
C349 C348 1.367 . S
C349 C357 1.433 . S
C350 H346 0.929 . S
C350 C352 1.378 1_545 S
C350 C354 1.350 . S
C351 C354 1.463 . S
C351 C356 1.350 . S
C351 N359 1.427 . S
C352 H343 0.930 . S
C352 C350 1.378 1_565 S
C352 C353 1.367 . S
C353 C352 1.367 . S
C353 C355 1.433 . S
C354 C350 1.350 . S
C354 C351 1.463 . S
C354 N358 1.427 1_545 S
C355 H345 0.929 . S
C355 C353 1.433 . S
C355 N358 1.384 . S
C356 H347 0.929 . S
C356 C348 1.378 . S
C356 C351 1.350 . S
C357 H344 0.929 . S
C357 C349 1.433 . S
C357 N359 1.384 . S
N358 C354 1.427 1_565 S
N358 C355 1.384 . S
N359 C351 1.427 . S
N359 C357 1.384 . S
H360 C366 0.930 . S
H361 C370 0.930 . S
H362 C375 0.929 . S
H363 C373 0.929 . S
H364 C368 0.929 . S
H365 C374 0.929 . S
C366 H360 0.930 . S
C366 C367 1.367 . S
C366 C374 1.378 . S
C367 C366 1.367 . S
C367 C375 1.433 . S
C368 H364 0.929 . S
C368 C370 1.378 . S
C368 C372 1.350 . S
C369 C372 1.463 . S
C369 C374 1.350 . S
C369 N377 1.427 . S
C370 H361 0.930 . S
C370 C368 1.378 . S
C370 C371 1.367 . S
C371 C370 1.367 . S
C371 C373 1.433 . S
C372 C368 1.350 . S
C372 C369 1.463 . S
C372 N376 1.427 . S
C373 H363 0.929 . S
C373 C371 1.433 . S
C373 N376 1.384 . S
C374 H365 0.929 . S
C374 C366 1.378 . S
C374 C369 1.350 . S
C375 H362 0.929 . S
C375 C367 1.433 . S
C375 N377 1.384 . S
N376 C372 1.427 . S
N376 C373 1.384 . S
N377 C369 1.427 . S
N377 C375 1.384 . S
H378 C384 0.930 . S
H379 C388 0.930 . S
H380 C393 0.929 . S
H381 C391 0.929 . S
H382 C386 0.929 . S
H383 C392 0.929 . S
C384 H378 0.930 . S
C384 C385 1.367 . S
C384 C392 1.378 . S
C385 C384 1.367 . S
C385 C393 1.433 . S
C386 H382 0.929 . S
C386 C388 1.378 . S
C386 C390 1.350 . S
C387 C390 1.463 . S
C387 C392 1.350 . S
C387 N395 1.427 . S
C388 H379 0.930 . S
C388 C386 1.378 . S
C388 C389 1.367 . S
C389 C388 1.367 . S
C389 C391 1.433 . S
C390 C386 1.350 . S
C390 C387 1.463 . S
C390 N394 1.427 . S
C391 H381 0.929 . S
C391 C389 1.433 . S
C391 N394 1.384 . S
C392 H383 0.929 . S
C392 C384 1.378 . S
C392 C387 1.350 . S
C393 H380 0.929 . S
C393 C385 1.433 . S
C393 N395 1.384 . S
N394 C390 1.427 . S
N394 C391 1.384 . S
N395 C387 1.427 . S
N395 C393 1.384 . S
H396 C402 0.930 . S
H397 C406 0.930 . S
H398 C411 0.929 . S
H399 C409 0.929 . S
H400 C404 0.929 . S
H401 C410 0.929 . S
C402 H396 0.930 . S
C402 C403 1.367 . S
C402 C410 1.378 . S
C403 C402 1.367 . S
C403 C411 1.433 . S
C404 H400 0.929 . S
C404 C406 1.378 . S
C404 C408 1.350 . S
C405 C408 1.463 . S
C405 C410 1.350 . S
C405 N413 1.427 . S
C406 H397 0.930 . S
C406 C404 1.378 . S
C406 C407 1.367 . S
C407 C406 1.367 . S
C407 C409 1.433 . S
C408 C404 1.350 . S
C408 C405 1.463 . S
C408 N412 1.427 . S
C409 H399 0.929 . S
C409 C407 1.433 . S
C409 N412 1.384 . S
C410 H401 0.929 . S
C410 C402 1.378 . S
C410 C405 1.350 . S
C411 H398 0.929 . S
C411 C403 1.433 . S
C411 N413 1.384 . S
N412 C408 1.427 . S
N412 C409 1.384 . S
N413 C405 1.427 . S
N413 C411 1.384 . S
H414 C420 0.930 . S
H415 C424 0.930 . S
H416 C429 0.929 . S
H417 C427 0.929 . S
H418 C422 0.929 . S
H419 C428 0.929 . S
C420 H414 0.930 . S
C420 C421 1.367 . S
C420 C428 1.378 . S
C421 C420 1.367 . S
C421 C429 1.433 . S
C422 H418 0.929 . S
C422 C424 1.378 . S
C422 C426 1.350 . S
C423 C426 1.463 . S
C423 C428 1.350 . S
C423 N431 1.427 . S
C424 H415 0.930 . S
C424 C422 1.378 . S
C424 C425 1.367 . S
C425 C424 1.367 . S
C425 C427 1.433 . S
C426 C422 1.350 . S
C426 C423 1.463 . S
C426 N430 1.427 . S
C427 H417 0.929 . S
C427 C425 1.433 . S
C427 N430 1.384 . S
C428 H419 0.929 . S
C428 C420 1.378 . S
C428 C423 1.350 . S
C429 H416 0.929 . S
C429 C421 1.433 . S
C429 N431 1.384 . S
N430 C426 1.427 . S
N430 C427 1.384 . S
N431 C423 1.427 . S
N431 C429 1.384 . S
H432 C438 0.930 . S
H433 C442 0.930 . S
H434 C447 0.929 . S
H435 C445 0.929 . S
H436 C440 0.929 . S
H437 C446 0.929 . S
C438 H432 0.930 . S
C438 C439 1.367 . S
C438 C446 1.378 . S
C439 C438 1.367 . S
C439 C447 1.433 . S
C440 H436 0.929 . S
C440 C442 1.378 . S
C440 C444 1.350 . S
C441 C444 1.463 . S
C441 C446 1.350 . S
C441 N449 1.427 . S
C442 H433 0.930 . S
C442 C440 1.378 . S
C442 C443 1.367 . S
C443 C442 1.367 . S
C443 C445 1.433 . S
C444 C440 1.350 . S
C444 C441 1.463 . S
C444 N448 1.427 . S
C445 H435 0.929 . S
C445 C443 1.433 . S
C445 N448 1.384 . S
C446 H437 0.929 . S
C446 C438 1.378 . S
C446 C441 1.350 . S
C447 H434 0.929 . S
C447 C439 1.433 . S
C447 N449 1.384 . S
N448 C444 1.427 . S
N448 C445 1.384 . S
N449 C441 1.427 . S
N449 C447 1.384 . S
H450 C456 0.930 . S
H451 C460 0.930 . S
H452 C465 0.929 . S
H453 C463 0.929 . S
H454 C458 0.929 . S
H455 C464 0.929 . S
C456 H450 0.930 . S
C456 C457 1.367 . S
C456 C464 1.378 . S
C457 C456 1.367 . S
C457 C465 1.433 . S
C458 H454 0.929 . S
C458 C460 1.378 . S
C458 C462 1.350 . S
C459 C462 1.463 . S
C459 C464 1.350 . S
C459 N467 1.427 . S
C460 H451 0.930 . S
C460 C458 1.378 . S
C460 C461 1.367 . S
C461 C460 1.367 . S
C461 C463 1.433 . S
C462 C458 1.350 . S
C462 C459 1.463 . S
C462 N466 1.427 . S
C463 H453 0.929 . S
C463 C461 1.433 . S
C463 N466 1.384 . S
C464 H455 0.929 . S
C464 C456 1.378 . S
C464 C459 1.350 . S
C465 H452 0.929 . S
C465 C457 1.433 . S
C465 N467 1.384 . S
N466 C462 1.427 . S
N466 C463 1.384 . S
N467 C459 1.427 . S
N467 C465 1.384 . S
H468 C474 0.930 . S
H469 C478 0.930 . S
H470 C483 0.929 . S
H471 C481 0.929 . S
H472 C476 0.929 . S
H473 C482 0.929 . S
C474 H468 0.930 . S
C474 C475 1.367 . S
C474 C482 1.378 . S
C475 C474 1.367 . S
C475 C483 1.433 . S
C476 H472 0.929 . S
C476 C478 1.378 . S
C476 C480 1.350 1_545 S
C477 C480 1.463 . S
C477 C482 1.350 . S
C477 N485 1.427 . S
C478 H469 0.930 . S
C478 C476 1.378 . S
C478 C479 1.367 . S
C479 C478 1.367 . S
C479 C481 1.433 . S
C480 C476 1.350 1_565 S
C480 C477 1.463 . S
C480 N484 1.427 . S
C481 H471 0.929 . S
C481 C479 1.433 . S
C481 N484 1.384 1_545 S
C482 H473 0.929 . S
C482 C474 1.378 . S
C482 C477 1.350 . S
C483 H470 0.929 . S
C483 C475 1.433 . S
C483 N485 1.384 . S
N484 C480 1.427 . S
N484 C481 1.384 1_565 S
N485 C477 1.427 . S
N485 C483 1.384 . S
H486 C492 0.930 . S
H487 C496 0.930 . S
H488 C501 0.929 . S
H489 C499 0.929 1_545 S
H490 C494 0.929 . S
H491 C500 0.922 . S
C492 H486 0.930 . S
C492 C493 1.367 . S
C492 C500 1.378 . S
C493 C492 1.367 . S
C493 C501 1.433 . S
C494 H490 0.929 . S
C494 C496 1.378 . S
C494 C498 1.350 . S
C495 C498 1.463 . S
C495 C500 1.350 1_455 S
C495 N503 1.427 . S
C496 H487 0.930 . S
C496 C494 1.378 . S
C496 C497 1.367 . S
C497 C496 1.367 . S
C497 C499 1.433 . S
C498 C494 1.350 . S
C498 C495 1.463 . S
C498 N502 1.427 . S
C499 H489 0.929 1_565 S
C499 C497 1.433 . S
C499 N502 1.384 . S
C500 H491 0.922 . S
C500 C492 1.378 . S
C500 C495 1.350 1_655 S
C501 H488 0.929 . S
C501 C493 1.433 . S
C501 N503 1.384 1_655 S
N502 C498 1.427 . S
N502 C499 1.384 . S
N503 C495 1.427 . S
N503 C501 1.384 1_455 S
H504 C510 0.930 . S
H505 C514 0.930 . S
H506 C519 0.929 . S
H507 C517 0.929 . S
H508 C512 0.929 . S
H509 C518 0.929 . S
C510 H504 0.930 . S
C510 C511 1.367 . S
C510 C518 1.378 . S
C511 C510 1.367 . S
C511 C519 1.433 . S
C512 H508 0.929 . S
C512 C514 1.378 . S
C512 C516 1.350 . S
C513 C516 1.463 . S
C513 C518 1.350 . S
C513 N521 1.427 . S
C514 H505 0.930 . S
C514 C512 1.378 . S
C514 C515 1.367 . S
C515 C514 1.367 . S
C515 C517 1.433 . S
C516 C512 1.350 . S
C516 C513 1.463 . S
C516 N520 1.427 . S
C517 H507 0.929 . S
C517 C515 1.433 . S
C517 N520 1.384 . S
C518 H509 0.929 . S
C518 C510 1.378 . S
C518 C513 1.350 . S
C519 H506 0.929 . S
C519 C511 1.433 . S
C519 N521 1.384 . S
N520 C516 1.427 . S
N520 C517 1.384 . S
N521 C513 1.427 . S
N521 C519 1.384 . S
H522 C528 0.930 . S
H523 C532 0.930 . S
H524 C537 0.929 . S
H525 C535 0.929 1_655 S
H526 C530 0.929 . S
H527 C536 0.929 . S
C528 H522 0.930 . S
C528 C529 1.367 . S
C528 C536 1.378 . S
C529 C528 1.367 . S
C529 C537 1.433 . S
C530 H526 0.929 . S
C530 C532 1.378 . S
C530 C534 1.350 . S
C531 C534 1.463 . S
C531 C536 1.350 . S
C531 N539 1.427 . S
C532 H523 0.930 . S
C532 C530 1.378 . S
C532 C533 1.367 . S
C533 C532 1.367 . S
C533 C535 1.433 . S
C534 C530 1.350 . S
C534 C531 1.463 . S
C534 N538 1.427 . S
C535 H525 0.929 1_455 S
C535 C533 1.433 . S
C535 N538 1.384 . S
C536 H527 0.929 . S
C536 C528 1.378 . S
C536 C531 1.350 . S
C537 H524 0.929 . S
C537 C529 1.433 . S
C537 N539 1.384 . S
N538 C534 1.427 . S
N538 C535 1.384 . S
N539 C531 1.427 . S
N539 C537 1.384 . S
H540 C546 0.930 . S
H541 C550 0.930 . S
H542 C555 0.929 . S
H543 C553 0.929 . S
H544 C548 0.929 . S
H545 C554 0.929 . S
C546 H540 0.930 . S
C546 C547 1.367 . S
C546 C554 1.378 . S
C547 C546 1.367 . S
C547 C555 1.433 . S
C548 H544 0.929 . S
C548 C550 1.378 . S
C548 C552 1.350 . S
C549 C552 1.463 . S
C549 C554 1.350 . S
C549 N557 1.427 . S
C550 H541 0.930 . S
C550 C548 1.378 . S
C550 C551 1.367 . S
C551 C550 1.367 . S
C551 C553 1.433 . S
C552 C548 1.350 . S
C552 C549 1.463 . S
C552 N556 1.427 . S
C553 H543 0.929 . S
C553 C551 1.433 . S
C553 N556 1.384 . S
C554 H545 0.929 . S
C554 C546 1.378 . S
C554 C549 1.350 . S
C555 H542 0.929 . S
C555 C547 1.433 . S
C555 N557 1.384 . S
N556 C552 1.427 . S
N556 C553 1.384 . S
N557 C549 1.427 . S
N557 C555 1.384 . S
H558 C564 0.930 . S
H559 C568 0.930 . S
H560 C573 0.929 . S
H561 C571 0.929 . S
H562 C566 0.929 1_545 S
H563 C572 0.929 . S
C564 H558 0.930 . S
C564 C565 1.367 . S
C564 C572 1.378 . S
C565 C564 1.367 . S
C565 C573 1.433 1_565 S
C566 H562 0.929 1_565 S
C566 C568 1.378 . S
C566 C570 1.350 . S
C567 C570 1.463 . S
C567 C572 1.350 . S
C567 N575 1.427 . S
C568 H559 0.930 . S
C568 C566 1.378 . S
C568 C569 1.367 . S
C569 C568 1.367 . S
C569 C571 1.433 . S
C570 C566 1.350 . S
C570 C567 1.463 . S
C570 N574 1.427 . S
C571 H561 0.929 . S
C571 C569 1.433 . S
C571 N574 1.384 . S
C572 H563 0.929 . S
C572 C564 1.378 . S
C572 C567 1.350 . S
C573 H560 0.929 . S
C573 C565 1.433 1_545 S
C573 N575 1.384 1_545 S
N574 C570 1.427 . S
N574 C571 1.384 . S
N575 C567 1.427 . S
N575 C573 1.384 1_565 S
H576 C582 0.930 1_565 S
H577 C586 0.930 . S
H578 C591 0.929 . S
H579 C589 0.929 . S
H580 C584 0.929 . S
H581 C590 0.929 1_565 S
C582 H576 0.930 1_545 S
C582 C583 1.367 . S
C582 C590 1.378 . S
C583 C582 1.367 . S
C583 C591 1.433 . S
C584 H580 0.929 . S
C584 C586 1.378 . S
C584 C588 1.350 . S
C585 C588 1.463 . S
C585 C590 1.350 . S
C585 N593 1.427 . S
C586 H577 0.930 . S
C586 C584 1.378 . S
C586 C587 1.367 . S
C587 C586 1.367 . S
C587 C589 1.433 . S
C588 C584 1.350 . S
C588 C585 1.463 . S
C588 N592 1.427 . S
C589 H579 0.929 . S
C589 C587 1.433 . S
C589 N592 1.384 . S
C590 H581 0.929 1_545 S
C590 C582 1.378 . S
C590 C585 1.350 . S
C591 H578 0.929 . S
C591 C583 1.433 . S
C591 N593 1.384 . S
N592 C588 1.427 . S
N592 C589 1.384 . S
N593 C585 1.427 . S
N593 C591 1.384 . S
H594 C600 0.930 . S
H595 C604 0.930 1_455 S
H596 C609 0.929 . S
H597 C607 0.929 . S
H598 C602 0.929 1_455 S
H599 C608 0.929 . S
C600 H594 0.930 . S
C600 C601 1.367 . S
C600 C608 1.378 . S
C601 C600 1.367 . S
C601 C609 1.433 1_655 S
C602 H598 0.929 1_655 S
C602 C604 1.378 . S
C602 C606 1.350 . S
C603 C606 1.463 . S
C603 C608 1.350 . S
C603 N611 1.427 . S
C604 H595 0.930 1_655 S
C604 C602 1.378 . S
C604 C605 1.367 . S
C605 C604 1.367 . S
C605 C607 1.433 . S
C606 C602 1.350 . S
C606 C603 1.463 . S
C606 N610 1.427 . S
C607 H597 0.929 . S
C607 C605 1.433 . S
C607 N610 1.384 . S
C608 H599 0.929 . S
C608 C600 1.378 . S
C608 C603 1.350 . S
C609 H596 0.929 . S
C609 C601 1.433 1_455 S
C609 N611 1.384 1_455 S
N610 C606 1.427 . S
N610 C607 1.384 . S
N611 C603 1.427 . S
N611 C609 1.384 1_655 S
H612 C618 0.930 . S
H613 C622 0.930 . S
H614 C627 0.929 . S
H615 C625 0.929 . S
H616 C620 0.929 . S
H617 C626 0.929 . S
C618 H612 0.930 . S
C618 C619 1.367 . S
C618 C626 1.378 . S
C619 C618 1.367 . S
C619 C627 1.433 . S
C620 H616 0.929 . S
C620 C622 1.378 . S
C620 C624 1.350 . S
C621 C624 1.463 . S
C621 C626 1.350 . S
C621 N629 1.427 . S
C622 H613 0.930 . S
C622 C620 1.378 . S
C622 C623 1.367 . S
C623 C622 1.367 . S
C623 C625 1.433 . S
C624 C620 1.350 . S
C624 C621 1.463 . S
C624 N628 1.427 . S
C625 H615 0.929 . S
C625 C623 1.433 . S
C625 N628 1.384 . S
C626 H617 0.929 . S
C626 C618 1.378 . S
C626 C621 1.350 . S
C627 H614 0.929 . S
C627 C619 1.433 . S
C627 N629 1.384 . S
N628 C624 1.427 . S
N628 C625 1.384 . S
N629 C621 1.427 . S
N629 C627 1.384 . S
H630 C636 0.930 . S
H631 C640 0.930 . S
H632 C645 0.929 . S
H633 C643 0.929 . S
H634 C638 0.929 . S
H635 C644 0.929 . S
C636 H630 0.930 . S
C636 C637 1.367 . S
C636 C644 1.378 . S
C637 C636 1.367 . S
C637 C645 1.433 . S
C638 H634 0.929 . S
C638 C640 1.378 . S
C638 C642 1.350 . S
C639 C642 1.463 . S
C639 C644 1.350 . S
C639 N647 1.427 . S
C640 H631 0.930 . S
C640 C638 1.378 . S
C640 C641 1.367 . S
C641 C640 1.367 . S
C641 C643 1.433 . S
C642 C638 1.350 . S
C642 C639 1.463 . S
C642 N646 1.427 . S
C643 H633 0.929 . S
C643 C641 1.433 . S
C643 N646 1.384 . S
C644 H635 0.929 . S
C644 C636 1.378 . S
C644 C639 1.350 . S
C645 H632 0.929 . S
C645 C637 1.433 . S
C645 N647 1.384 . S
N646 C642 1.427 . S
N646 C643 1.384 . S
N647 C639 1.427 . S
N647 C645 1.384 . S
H648 C654 0.930 . S
H649 C658 0.930 . S
H650 C663 0.929 . S
H651 C661 0.929 . S
H652 C656 0.929 . S
H653 C662 0.929 . S
C654 H648 0.930 . S
C654 C655 1.367 . S
C654 C662 1.378 . S
C655 C654 1.367 . S
C655 C663 1.433 1_565 S
C656 H652 0.929 . S
C656 C658 1.378 . S
C656 C660 1.350 . S
C657 C660 1.463 1_565 S
C657 C662 1.350 . S
C657 N665 1.427 1_565 S
C658 H649 0.930 . S
C658 C656 1.378 . S
C658 C659 1.367 . S
C659 C658 1.367 . S
C659 C661 1.433 1_545 S
C660 C656 1.350 . S
C660 C657 1.463 1_545 S
C660 N664 1.427 1_545 S
C661 H651 0.929 . S
C661 C659 1.433 1_565 S
C661 N664 1.384 . S
C662 H653 0.929 . S
C662 C654 1.378 . S
C662 C657 1.350 . S
C663 H650 0.929 . S
C663 C655 1.433 1_545 S
C663 N665 1.384 . S
N664 C660 1.427 1_565 S
N664 C661 1.384 . S
N665 C657 1.427 1_545 S
N665 C663 1.384 . S
H666 C672 0.930 . S
H667 C676 0.930 . S
H668 C681 0.929 . S
H669 C679 0.929 . S
H670 C674 0.929 . S
H671 C680 0.929 . S
C672 H666 0.930 . S
C672 C673 1.367 . S
C672 C680 1.378 . S
C673 C672 1.367 . S
C673 C681 1.433 1_655 S
C674 H670 0.929 . S
C674 C676 1.378 . S
C674 C678 1.350 . S
C675 C678 1.463 1_655 S
C675 C680 1.350 . S
C675 N683 1.427 1_655 S
C676 H667 0.930 . S
C676 C674 1.378 . S
C676 C677 1.367 . S
C677 C676 1.367 . S
C677 C679 1.433 1_455 S
C678 C674 1.350 . S
C678 C675 1.463 1_455 S
C678 N682 1.427 1_455 S
C679 H669 0.929 . S
C679 C677 1.433 1_655 S
C679 N682 1.384 . S
C680 H671 0.929 . S
C680 C672 1.378 . S
C680 C675 1.350 . S
C681 H668 0.929 . S
C681 C673 1.433 1_455 S
C681 N683 1.384 . S
N682 C678 1.427 1_655 S
N682 C679 1.384 . S
N683 C675 1.427 1_455 S
N683 C681 1.384 . S
C205 C26 1.370 . S
C209 C5 1.465 . S
C223 C48 1.380 . S
C227 C27 1.465 . S
C241 C49 1.464 . S
C245 C4 1.371 . S
C259 C53 1.464 . S
C263 C30 1.371 . S
C277 C52 1.375 . S
C281 C9 1.464 . S
C295 C8 1.388 . S
C299 C31 1.468 . S
C313 C71 1.464 . S
C317 C92 1.371 . S
C331 C114 1.386 . S
C335 C93 1.471 1_545 S
C349 C115 1.471 1_655 S
C353 C70 1.386 . S
C367 C96 1.389 . S
C371 C119 1.469 . S
C385 C118 1.372 . S
C389 C75 1.467 . S
C403 C97 1.466 . S
C407 C74 1.381 . S
C421 C158 1.383 . S
C425 C137 1.466 . S
C439 C159 1.470 . S
C443 C180 1.378 . S
C457 C181 1.471 . S
C461 C136 1.390 . S
C475 C185 1.464 . S
C479 C162 1.372 . S
C493 C184 1.378 . S
C497 C141 1.465 1_565 S
C511 C140 1.375 . S
C515 C163 1.464 1_455 S
C529 C117 1.382 . S
C533 C6 1.387 . S
C547 C73 1.388 . S
C551 C28 1.382 . S
C565 C50 1.387 . S
C569 C95 1.377 . S
C583 C51 1.377 . S
C587 C138 1.381 . S
C601 C7 1.388 . S
C605 C160 1.381 . S
C619 C182 1.377 . S
C623 C29 1.387 . S
C637 C72 1.381 . S
C641 C183 1.388 . S
C655 C94 1.376 . S
C659 C139 1.382 . S
C673 C161 1.380 . S
C677 C116 1.378 . S
