# Generated by pormake.
# Topology snz, (6)-cn, num edge types: 1
# Building blocks:
#     Node 0, Type 0, BuildingBlock: BETDEL_clean_sbu_0, # of connection points: 6
#     Node 1, Type 0, BuildingBlock: BETDEL_clean_sbu_0, # of connection points: 6
#     Node 2, Type 0, BuildingBlock: BETDEL_clean_sbu_0, # of connection points: 6
#     Node 3, Type 0, BuildingBlock: BETDEL_clean_sbu_0, # of connection points: 6
#     Node 4, Type 0, BuildingBlock: BETDEL_clean_sbu_0, # of connection points: 6
#     Node 5, Type 0, BuildingBlock: BETDEL_clean_sbu_0, # of connection points: 6
#     Node 6, Type 0, BuildingBlock: BETDEL_clean_sbu_0, # of connection points: 6
#     Node 7, Type 0, BuildingBlock: BETDEL_clean_sbu_0, # of connection points: 6
#     Node 8, Type 0, BuildingBlock: BETDEL_clean_sbu_0, # of connection points: 6
#     Edge 9, Type (0, 0), BuildingBlock: OJICUG_clean_linker_0, # of connection points: 2
#     Edge 10, Type (0, 0), BuildingBlock: OJICUG_clean_linker_0, # of connection points: 2
#     Edge 11, Type (0, 0), BuildingBlock: OJICUG_clean_linker_0, # of connection points: 2
#     Edge 12, Type (0, 0), BuildingBlock: OJICUG_clean_linker_0, # of connection points: 2
#     Edge 13, Type (0, 0), BuildingBlock: OJICUG_clean_linker_0, # of connection points: 2
#     Edge 14, Type (0, 0), BuildingBlock: OJICUG_clean_linker_0, # of connection points: 2
#     Edge 15, Type (0, 0), BuildingBlock: OJICUG_clean_linker_0, # of connection points: 2
#     Edge 16, Type (0, 0), BuildingBlock: OJICUG_clean_linker_0, # of connection points: 2
#     Edge 17, Type (0, 0), BuildingBlock: OJICUG_clean_linker_0, # of connection points: 2
#     Edge 18, Type (0, 0), BuildingBlock: OJICUG_clean_linker_0, # of connection points: 2
#     Edge 19, Type (0, 0), BuildingBlock: OJICUG_clean_linker_0, # of connection points: 2
#     Edge 20, Type (0, 0), BuildingBlock: OJICUG_clean_linker_0, # of connection points: 2
#     Edge 21, Type (0, 0), BuildingBlock: OJICUG_clean_linker_0, # of connection points: 2
#     Edge 22, Type (0, 0), BuildingBlock: OJICUG_clean_linker_0, # of connection points: 2
#     Edge 23, Type (0, 0), BuildingBlock: OJICUG_clean_linker_0, # of connection points: 2
#     Edge 24, Type (0, 0), BuildingBlock: OJICUG_clean_linker_0, # of connection points: 2
#     Edge 25, Type (0, 0), BuildingBlock: OJICUG_clean_linker_0, # of connection points: 2
#     Edge 26, Type (0, 0), BuildingBlock: OJICUG_clean_linker_0, # of connection points: 2
#     Edge 27, Type (0, 0), BuildingBlock: OJICUG_clean_linker_0, # of connection points: 2
#     Edge 28, Type (0, 0), BuildingBlock: OJICUG_clean_linker_0, # of connection points: 2
#     Edge 29, Type (0, 0), BuildingBlock: OJICUG_clean_linker_0, # of connection points: 2
#     Edge 30, Type (0, 0), BuildingBlock: OJICUG_clean_linker_0, # of connection points: 2
#     Edge 31, Type (0, 0), BuildingBlock: OJICUG_clean_linker_0, # of connection points: 2
#     Edge 32, Type (0, 0), BuildingBlock: OJICUG_clean_linker_0, # of connection points: 2
#     Edge 33, Type (0, 0), BuildingBlock: OJICUG_clean_linker_0, # of connection points: 2
#     Edge 34, Type (0, 0), BuildingBlock: OJICUG_clean_linker_0, # of connection points: 2
#     Edge 35, Type (0, 0), BuildingBlock: OJICUG_clean_linker_0, # of connection points: 2
# Relax obj value: 0.213
# Max RMSD: 0.232
# Mean RMSD: 0.174
data_MOF--net-snz--node1-BETDEL_clean_sbu_0--edge1-OJICUG_clean_linker_0
_symmetry_space_group_name_H-M    P1
_symmetry_Int_Tables_number       1
_symmetry_cell_setting            triclinic
loop_
_symmetry_equiv_pos_as_xyz
'x, y, z'
_cell_length_a     39.135716
_cell_length_b     40.02761
_cell_length_c     10.57364
_cell_angle_alpha  91.994165
_cell_angle_beta   92.671715
_cell_angle_gamma 120.09288
loop_
_atom_site_label
_atom_site_type_symbol
_atom_site_fract_x
_atom_site_fract_y
_atom_site_fract_z
_atom_type_partial_charge
Dy0 Dy 0.10832 0.4659 0.0429 0.0
C1 C 0.99341 0.51347 0.89697 0.0
C2 C 0.15491 0.44158 0.15759 0.0
Dy3 Dy 0.03337 0.48011 0.99998 0.0
O4 O 0.11749 0.42755 0.1721 0.0
O5 O 0.16725 0.46939 0.08037 0.0
O6 O 0.12068 0.46632 0.83302 0.0
O7 O 0.07437 0.47245 0.88837 0.0
C8 C 0.09127 0.47061 0.79149 0.0
C9 C 0.05077 0.47591 0.25189 0.0
O10 O 0.00577 0.41741 0.93144 0.0
O11 O 0.05576 0.40618 1.01271 0.0
O12 O 0.97672 0.48127 0.95469 0.0
O13 O 0.0309 0.52593 0.89218 0.0
O14 O 0.0211 0.47969 0.21012 0.0
O15 O 0.06757 0.47403 0.15487 0.0
O16 O 0.13683 0.52884 0.10346 0.0
O17 O 0.08719 0.53901 1.01478 0.0
C18 C 0.01989 0.39397 0.9573 0.0
C19 C 0.12328 0.55186 0.06841 0.0
Dy20 Dy 0.6261 0.55213 0.10195 0.0
C21 C 0.57961 0.39285 0.94011 0.0
C22 C 0.64487 0.62152 0.21697 0.0
Dy23 Dy 0.61313 0.46523 0.05747 0.0
O24 O 0.61768 0.60365 0.1243 0.0
O25 O 0.66159 0.60148 0.24596 0.0
O26 O 0.62558 0.56353 0.89125 0.0
O27 O 0.61942 0.51224 0.94638 0.0
C28 C 0.62131 0.53054 0.84945 0.0
C29 C 0.61799 0.48665 0.31011 0.0
O30 O 0.67716 0.50293 1.01747 0.0
O31 O 0.68816 0.56265 0.10479 0.0
O32 O 0.61203 0.40872 1.0154 0.0
O33 O 0.56721 0.41713 0.92598 0.0
O34 O 0.61468 0.45406 0.26813 0.0
O35 O 0.61933 0.50482 0.21325 0.0
O36 O 0.56223 0.51546 0.13978 0.0
O37 O 0.55199 0.45635 0.05325 0.0
C38 C 0.701 0.54028 0.05516 0.0
C39 C 0.5388 0.47851 0.1006 0.0
Dy40 Dy 0.53822 0.99353 0.1372 0.0
C41 C 0.70261 0.09865 0.03662 0.0
C42 C 0.46629 0.94456 0.22135 0.0
Dy43 Dy 0.62932 0.06573 0.13028 0.0
O44 O 0.48379 0.93457 0.13892 0.0
O45 O 0.48809 0.98111 0.2571 0.0
O46 O 0.52613 0.98225 0.9212 0.0
O47 O 0.57965 0.02611 0.99953 0.0
C48 C 0.56055 0.01029 0.89412 0.0
C49 C 0.6069 0.0494 0.37325 0.0
O50 O 0.59312 0.09374 0.07669 0.0
O51 O 0.53117 0.04576 0.13801 0.0
O52 O 0.69241 0.11599 0.1214 0.0
O53 O 0.67233 0.06509 1.00034 0.0
O54 O 0.64085 0.07831 0.34598 0.0
O55 O 0.58818 0.03273 0.26801 0.0
O56 O 0.57249 0.96465 0.19189 0.0
O57 O 0.63495 0.0128 0.13976 0.0
C58 C 0.5551 0.08072 0.09844 0.0
C59 C 0.61026 0.97744 0.17367 0.0
Dy60 Dy 0.80843 0.85236 0.4632 0.0
C61 C 0.6873 0.89231 0.31202 0.0
C62 C 0.84885 0.81915 0.5637 0.0
Dy63 Dy 0.7339 0.86723 0.42165 0.0
O64 O 0.86509 0.85099 0.5041 0.0
O65 O 0.81154 0.80701 0.5722 0.0
O66 O 0.82057 0.85269 0.25325 0.0
O67 O 0.77431 0.85876 0.30882 0.0
C68 C 0.79109 0.8568 0.21181 0.0
C69 C 0.7511 0.8625 0.67275 0.0
O70 O 0.70516 0.80446 0.35806 0.0
O71 O 0.75442 0.79355 0.44562 0.0
O72 O 0.72441 0.90561 0.29392 0.0
O73 O 0.67516 0.86463 0.38962 0.0
O74 O 0.72185 0.86702 0.63153 0.0
O75 O 0.76782 0.8604 0.57578 0.0
O76 O 0.83688 0.91534 0.52873 0.0
O77 O 0.78697 0.92677 0.4482 0.0
C78 C 0.7185 0.78111 0.39114 0.0
C79 C 0.82307 0.93894 0.50158 0.0
Dy80 Dy 0.22868 0.86903 0.38015 0.0
C81 C 0.19815 0.71283 0.22459 0.0
C82 C 0.26259 0.9417 0.49536 0.0
Dy83 Dy 0.21652 0.78246 0.33642 0.0
O84 O 0.23025 0.92586 0.4197 0.0
O85 O 0.27458 0.91717 0.51154 0.0
O86 O 0.22658 0.87989 0.16947 0.0
O87 O 0.2227 0.82946 0.22459 0.0
C88 C 0.22366 0.84747 0.12767 0.0
C89 C 0.2213 0.80412 0.58875 0.0
O90 O 0.28022 0.81941 0.2973 0.0
O91 O 0.29 0.87845 0.3826 0.0
O92 O 0.22545 0.73123 0.31659 0.0
O93 O 0.18119 0.73255 0.19414 0.0
O94 O 0.21731 0.77125 0.54712 0.0
O95 O 0.22303 0.82234 0.49176 0.0
O96 O 0.16483 0.83101 0.42159 0.0
O97 O 0.15429 0.77146 0.33408 0.0
C98 C 0.30343 0.85648 0.33535 0.0
C99 C 0.14122 0.79358 0.3843 0.0
Dy100 Dy 0.21653 0.27039 0.29623 0.0
C101 C 0.37569 0.39046 0.21076 0.0
C102 C 0.1384 0.22746 0.34932 0.0
Dy103 Dy 0.30417 0.34033 0.29546 0.0
O104 O 0.16817 0.22847 0.41354 0.0
O105 O 0.15129 0.24853 0.25302 0.0
O106 O 0.2198 0.25067 0.09652 0.0
O107 O 0.25306 0.30953 0.15505 0.0
C108 C 0.24627 0.28483 0.06454 0.0
C109 C 0.28435 0.3234 0.53929 0.0
O110 O 0.27075 0.3709 0.25844 0.0
O111 O 0.21167 0.32365 0.33126 0.0
O112 O 0.35861 0.39946 0.29756 0.0
O113 O 0.35365 0.35429 0.17084 0.0
O114 O 0.31833 0.35155 0.51004 0.0
O115 O 0.26398 0.30745 0.436 0.0
O116 O 0.25145 0.24117 0.34732 0.0
O117 O 0.31205 0.28866 0.28171 0.0
C118 C 0.23455 0.35893 0.29318 0.0
C119 C 0.28899 0.25387 0.32259 0.0
Dy120 Dy 0.44454 0.16527 0.61425 0.0
C121 C 0.37917 0.1846 0.03288 0.0
C122 C 0.46535 0.15081 0.38836 0.0
Dy123 Dy 0.40013 0.17016 0.80718 0.0
O124 O 0.44089 0.12465 0.45862 0.0
O125 O 0.48606 0.18206 0.46168 0.0
O126 O 0.50068 0.21249 0.71391 0.0
O127 O 0.44886 0.21614 0.71512 0.0
C128 C 0.48504 0.23237 0.75414 0.0
C129 C 0.35953 0.10319 0.66714 0.0
O130 O 0.37785 0.19582 0.66967 0.0
O131 O 0.40119 0.17769 0.50043 0.0
O132 O 0.40369 0.21076 0.96271 0.0
O133 O 0.35857 0.15332 0.95962 0.0
O134 O 0.34406 0.12324 0.7071 0.0
O135 O 0.39572 0.11925 0.70639 0.0
O136 O 0.46695 0.13966 0.7512 0.0
O137 O 0.44359 0.15769 0.9206 0.0
C138 C 0.37916 0.19126 0.54696 0.0
C139 C 0.46568 0.1442 0.87389 0.0
Dy140 Dy 0.94665 0.16655 0.81976 0.0
C141 C 0.86447 0.16311 0.37633 0.0
C142 C 0.9759 0.17481 0.05956 0.0
Dy143 Dy 0.90185 0.16979 0.60644 0.0
O144 O 0.98607 0.20309 0.9863 0.0
O145 O 0.96318 0.14377 0.98564 0.0
O146 O 0.94932 0.11685 0.72826 0.0
O147 O 0.89764 0.12026 0.69941 0.0
C148 C 0.91428 0.10121 0.67046 0.0
C149 C 0.93332 0.23404 0.76097 0.0
O150 O 0.85113 0.14037 0.72271 0.0
O151 O 0.89067 0.15858 0.90814 0.0
O152 O 0.8598 0.1347 0.4429 0.0
O153 O 0.8841 0.1946 0.44938 0.0
O154 O 0.89791 0.21777 0.70597 0.0
O155 O 0.95065 0.21599 0.72816 0.0
O156 O 0.99638 0.1906 0.69726 0.0
O157 O 0.95647 0.17657 0.51312 0.0
C158 C 0.85524 0.14445 0.84693 0.0
C159 C 0.99148 0.18707 0.5727 0.0
Dy160 Dy 0.89572 0.64362 0.6151 0.0
C161 C 0.98271 0.70779 0.0657 0.0
C162 C 0.86015 0.62394 0.37841 0.0
Dy163 Dy 0.94733 0.68836 0.8289 0.0
O164 O 0.87074 0.60325 0.44302 0.0
O165 O 0.85821 0.64787 0.45955 0.0
O166 O 0.88766 0.58901 0.69171 0.0
O167 O 0.94358 0.63983 0.71631 0.0
C168 C 0.92378 0.6046 0.74061 0.0
C169 C 0.91903 0.72722 0.7039 0.0
O170 O 0.99505 0.70898 0.69967 0.0
O171 O 0.95189 0.68502 0.52058 0.0
O172 O 0.97237 0.72867 1.00112 0.0
O173 O 0.98473 0.68394 0.98441 0.0
O174 O 0.95523 0.74285 0.75213 0.0
O175 O 0.89931 0.692 0.72834 0.0
O176 O 0.84794 0.62317 0.74397 0.0
O177 O 0.89102 0.64715 0.92327 0.0
C178 C 0.98821 0.70662 0.57611 0.0
C179 C 0.85471 0.6256 0.86756 0.0
C180 C 0.10467 0.47155 0.55914 0.0
C181 C 0.08077 0.47245 0.6539 0.0
H182 H 0.11461 0.4723 0.36014 0.0
C183 C 0.047 0.47433 0.61439 0.0
H184 H 0.13096 0.47012 0.58543 0.0
C185 C 0.03748 0.47522 0.48445 0.0
C186 C 0.06135 0.47424 0.38964 0.0
H187 H 0.02778 0.47491 0.6838 0.0
H188 H 0.0112 0.47668 0.45814 0.0
C189 C 0.09521 0.47256 0.42929 0.0
C190 C 0.6207 0.54284 0.61641 0.0
C191 C 0.62007 0.51868 0.71177 0.0
H192 H 0.62017 0.55192 0.41676 0.0
C193 C 0.61904 0.48421 0.67314 0.0
H194 H 0.62149 0.56966 0.64207 0.0
C195 C 0.61867 0.47428 0.54336 0.0
C196 C 0.61932 0.49845 0.44798 0.0
H197 H 0.61876 0.46499 0.74318 0.0
H198 H 0.61782 0.44743 0.51763 0.0
C199 C 0.62019 0.53284 0.48669 0.0
C200 C 0.60855 0.05399 0.73754 0.0
C201 C 0.57297 0.02063 0.76139 0.0
H202 H 0.6468 0.08905 0.59806 0.0
C203 C 0.54815 0.99695 0.65533 0.0
H204 H 0.62818 0.07325 0.81575 0.0
C205 C 0.55866 0.00609 0.52983 0.0
C206 C 0.59428 0.0394 0.50598 0.0
H207 H 0.52042 0.97102 0.66928 0.0
H208 H 0.53902 0.98686 0.45159 0.0
C209 C 0.61905 0.06315 0.61203 0.0
C210 C 0.795 0.85827 0.84969 0.0
C211 C 0.7615 0.86059 0.8102 0.0
H212 H 0.83046 0.85546 1.00599 0.0
C213 C 0.73774 0.86186 0.9048 0.0
H214 H 0.8141 0.85741 0.78032 0.0
C215 C 0.74707 0.86076 0.03462 0.0
C216 C 0.78066 0.85861 0.07424 0.0
H217 H 0.71166 0.86365 0.87842 0.0
H218 H 0.72782 0.86134 0.10376 0.0
C219 C 0.8044 0.85729 0.97959 0.0
C220 C 0.2229 0.85011 0.76486 0.0
C221 C 0.22226 0.81583 0.7263 0.0
H222 H 0.2236 0.88661 0.92031 0.0
C223 C 0.22172 0.7917 0.8216 0.0
H224 H 0.2231 0.8693 0.69483 0.0
C225 C 0.22197 0.80154 0.95126 0.0
C226 C 0.22249 0.83575 0.9899 0.0
H227 H 0.22121 0.76501 0.79593 0.0
H228 H 0.22205 0.78248 1.02119 0.0
C229 C 0.22302 0.85989 0.89457 0.0
C230 C 0.29478 0.34044 0.77522 0.0
C231 C 0.27321 0.31319 0.67249 0.0
H232 H 0.30291 0.35338 0.97736 0.0
C233 C 0.24277 0.27637 0.70015 0.0
H234 H 0.31851 0.36909 0.75788 0.0
C235 C 0.23456 0.267 0.82702 0.0
C236 C 0.256 0.29443 0.92974 0.0
H237 H 0.22581 0.25455 0.62396 0.0
H238 H 0.21108 0.23827 0.84457 0.0
C239 C 0.28599 0.3314 0.90156 0.0
C240 C 0.46249 0.19435 0.23683 0.0
C241 C 0.44648 0.1565 0.27544 0.0
H242 H 0.45157 0.23531 0.14879 0.0
C243 C 0.40623 0.12959 0.24387 0.0
H244 H 0.49328 0.2159 0.2611 0.0
C245 C 0.38189 0.14117 0.18508 0.0
C246 C 0.39792 0.17901 0.14628 0.0
H247 H 0.39282 0.10021 0.27306 0.0
H248 H 0.35111 0.11962 0.16075 0.0
C249 C 0.43815 0.20594 0.17804 0.0
C250 C 0.88032 0.13089 0.21097 0.0
C251 C 0.87896 0.1639 0.25157 0.0
H252 H 0.91605 0.10899 0.14353 0.0
C253 C 0.90823 0.20028 0.21713 0.0
H254 H 0.8573 0.10225 0.23198 0.0
C255 C 0.94269 0.20452 0.17121 0.0
C256 C 0.94667 0.17191 0.14652 0.0
H257 H 0.90715 0.22616 0.24309 0.0
H258 H 0.96576 0.23326 0.15145 0.0
C259 C 0.91488 0.13497 0.16663 0.0
C260 C 0.90748 0.62631 0.22976 0.0
C261 C 0.88526 0.64231 0.27495 0.0
H262 H 0.95997 0.63637 0.14683 0.0
C263 C 0.89862 0.6817 0.26105 0.0
H264 H 0.89824 0.59617 0.24049 0.0
C265 C 0.9349 0.70516 0.21295 0.0
C266 C 0.9572 0.6892 0.16812 0.0
H267 H 0.88241 0.6951 0.29586 0.0
H268 H 0.94414 0.73531 0.2023 0.0
C269 C 0.94376 0.64977 0.18163 0.0
C270 C 0.1793 0.37256 0.31652 0.0
C271 C 0.21712 0.384 0.27606 0.0
H272 H 0.13026 0.38223 0.31163 0.0
C273 C 0.23614 0.41742 0.20786 0.0
H274 H 0.16388 0.34717 0.37001 0.0
C275 C 0.21669 0.43747 0.17403 0.0
C276 C 0.17802 0.42453 0.20833 0.0
H277 H 0.2653 0.42708 0.17535 0.0
H278 H 0.23126 0.46208 0.11669 0.0
C279 C 0.16 0.39266 0.28311 0.0
C280 C 0.6864 0.67529 0.37707 0.0
C281 C 0.65828 0.66065 0.27298 0.0
H282 H 0.72674 0.72467 0.49781 0.0
C283 C 0.64607 0.68473 0.21767 0.0
H284 H 0.69596 0.65719 0.42242 0.0
C285 C 0.66386 0.72378 0.26086 0.0
C286 C 0.69403 0.73902 0.35965 0.0
H287 H 0.62426 0.67393 0.13737 0.0
H288 H 0.65556 0.74236 0.21252 0.0
C289 C 0.70403 0.71402 0.42009 0.0
C290 C 0.41114 0.93406 0.35178 0.0
C291 C 0.42609 0.91944 0.26102 0.0
H292 H 0.36095 0.92533 0.44803 0.0
C293 C 0.40152 0.88201 0.2037 0.0
H294 H 0.42957 0.96269 0.39832 0.0
C295 C 0.36185 0.86034 0.2322 0.0
C296 C 0.34633 0.87595 0.31812 0.0
H297 H 0.41251 0.87008 0.13357 0.0
H298 H 0.34301 0.83222 0.18288 0.0
C299 C 0.37175 0.91258 0.38009 0.0
C300 C 0.55224 0.13189 0.97463 0.0
C301 C 0.5361 0.10381 0.06378 0.0
H302 H 0.54232 0.16684 0.84587 0.0
C303 C 0.49855 0.09398 0.10547 0.0
H304 H 0.58084 0.14012 0.93992 0.0
C305 C 0.47651 0.10963 0.05207 0.0
C306 C 0.49149 0.13521 0.95549 0.0
H307 H 0.48519 0.07257 0.17465 0.0
H308 H 0.44671 0.09948 0.07935 0.0
C309 C 0.53006 0.14713 0.92052 0.0
C310 C 0.93577 0.29654 0.81852 0.0
C311 C 0.95398 0.27387 0.82055 0.0
H312 H 0.94223 0.35241 0.85935 0.0
C313 C 0.99285 0.29023 0.87436 0.0
H314 H 0.9057 0.28457 0.77774 0.0
C315 C 0.01356 0.3288 0.92216 0.0
C316 C 0.99605 0.35215 0.91606 0.0
H317 H 0.00758 0.27345 0.87742 0.0
H318 H 0.0438 0.34051 0.96076 0.0
C319 C 0.95669 0.33541 0.86509 0.0
C320 C 0.80869 0.61843 0.0356 0.0
C321 C 0.82013 0.60178 0.93993 0.0
H322 H 0.76182 0.61185 0.1483 0.0
C323 C 0.79419 0.56308 0.89576 0.0
H324 H 0.82791 0.64838 0.06964 0.0
C325 C 0.75649 0.54207 0.94027 0.0
C326 C 0.74356 0.55955 1.02858 0.0
H327 H 0.80237 0.54967 0.82141 0.0
H328 H 0.73666 0.51301 0.89909 0.0
C329 C 0.77065 0.59753 0.07935 0.0
C330 C 0.91702 0.54287 0.8147 0.0
C331 C 0.94137 0.58149 0.78474 0.0
H332 H 0.91433 0.49083 0.87466 0.0
C333 C 0.98254 0.59726 0.7924 0.0
H334 H 0.88513 0.53004 0.80981 0.0
C335 C 0.99903 0.57468 0.82688 0.0
C336 C 0.97479 0.53604 0.85658 0.0
H337 H 1.00201 0.62687 0.76976 0.0
H338 H 0.03095 0.58769 0.83135 0.0
C339 C 0.93363 0.5204 0.85136 0.0
C340 C 0.51685 0.33678 0.84305 0.0
C341 C 0.55627 0.35181 0.89171 0.0
H342 H 0.46316 0.28711 0.76427 0.0
C343 C 0.57182 0.327 0.89799 0.0
H344 H 0.50386 0.35512 0.83834 0.0
C345 C 0.54848 0.28798 0.85409 0.0
C346 C 0.50905 0.27306 0.80539 0.0
H347 H 0.60197 0.33776 0.936 0.0
H348 H 0.56124 0.26945 0.85844 0.0
C349 C 0.49338 0.29776 0.80143 0.0
C350 C 0.81456 0.15591 1.00385 0.0
C351 C 0.81849 0.13181 0.91267 0.0
H352 H 0.77445 0.16477 0.11481 0.0
C353 C 0.78457 0.09729 0.86607 0.0
H354 H 0.84006 0.1833 0.03827 0.0
C355 C 0.74748 0.08721 0.90702 0.0
C356 C 0.74295 0.11142 0.99566 0.0
H357 H 0.78659 0.07836 0.79469 0.0
H358 H 0.72211 0.06039 0.86745 0.0
C359 C 0.77697 0.1457 0.04552 0.0
C360 C 0.66398 0.9618 0.15265 0.0
C361 C 0.62705 0.95212 0.19721 0.0
H362 H 0.71149 0.95001 0.15273 0.0
C363 C 0.60811 0.91987 0.27046 0.0
H364 H 0.67921 0.98613 0.09461 0.0
C365 C 0.62685 0.89906 0.30403 0.0
C366 C 0.66461 0.91012 0.26414 0.0
H367 H 0.57963 0.91167 0.30611 0.0
H368 H 0.61247 0.87529 0.36475 0.0
C369 C 0.68249 0.94101 0.18557 0.0
C370 C 0.19692 0.64972 0.23047 0.0
C371 C 0.18448 0.67327 0.17242 0.0
H372 H 0.18726 0.59219 0.24244 0.0
C373 C 0.15571 0.65764 0.07019 0.0
H374 H 0.21922 0.66127 0.30945 0.0
C375 C 0.13766 0.61853 1.03191 0.0
C376 C 0.14792 0.59413 0.09533 0.0
H377 H 0.14594 0.67531 1.02285 0.0
H378 H 0.11448 0.60715 0.95554 0.0
C379 C 0.17873 0.61029 0.19203 0.0
C380 C 0.48052 0.47439 0.20541 0.0
C381 C 0.49584 0.45938 0.1166 0.0
H382 H 0.42993 0.46406 0.30552 0.0
C383 C 0.47016 0.42349 0.05062 0.0
H384 H 0.4996 0.50193 0.25782 0.0
C385 C 0.43065 0.40203 0.07783 0.0
C386 C 0.41589 0.41591 0.17166 0.0
H387 H 0.48084 0.41126 0.98042 0.0
H388 H 0.41201 0.37391 1.02825 0.0
C389 C 0.44076 0.45272 0.23295 0.0
C390 C 0.92534 0.78905 0.63302 0.0
C391 C 0.9012 0.75047 0.66361 0.0
H392 H 0.92774 0.84127 0.57658 0.0
C393 C 0.86011 0.73498 0.66111 0.0
H394 H 0.95716 0.80168 0.63406 0.0
C395 C 0.84352 0.75779 0.63103 0.0
C396 C 0.86756 0.79638 0.6006 0.0
H397 H 0.84081 0.70541 0.68451 0.0
H398 H 0.81168 0.74499 0.63035 0.0
C399 C 0.90861 0.81175 0.60068 0.0
C400 C 0.29564 0.04754 0.57044 0.0
C401 C 0.33506 0.06224 0.61892 0.0
H402 H 0.24156 0.99769 0.49244 0.0
C403 C 0.35009 0.03706 0.62657 0.0
H404 H 0.28335 0.06642 0.56337 0.0
C405 C 0.32598 0.9978 0.58884 0.0
C406 C 0.28655 0.98299 0.54048 0.0
H407 H 0.38026 0.04754 0.66378 0.0
H408 H 0.33847 0.97909 0.59626 0.0
C409 C 0.27167 0.00827 0.53045 0.0
C410 C 0.03369 0.20855 0.38414 0.0
C411 C 0.02618 0.19303 0.50356 0.0
H412 H 0.07536 0.23165 0.24063 0.0
C413 C 0.05412 0.18537 0.56415 0.0
H414 H 0.013 0.21514 0.33591 0.0
C415 C 0.08948 0.1946 0.51022 0.0
C416 C 0.09808 0.21196 0.39426 0.0
H417 H 0.04911 0.17296 0.65562 0.0
H418 H 0.11078 0.18948 0.56208 0.0
C419 C 0.06946 0.21808 0.33007 0.0
C420 C 0.31454 0.18759 0.4987 0.0
C421 C 0.35334 0.20013 0.46504 0.0
H422 H 0.26335 0.19386 0.47824 0.0
C423 C 0.36843 0.22612 0.36955 0.0
H424 H 0.30222 0.16757 0.5725 0.0
C425 C 0.34618 0.24154 0.316 0.0
C426 C 0.30835 0.23106 0.35646 0.0
H427 H 0.3984 0.23673 0.34334 0.0
H428 H 0.35959 0.26331 0.24791 0.0
C429 C 0.29217 0.20259 0.44442 0.0
C430 C 0.8874 0.99755 0.58651 0.0
C431 C 0.84793 0.98109 0.53689 0.0
H432 H 0.93963 0.04873 0.66596 0.0
C433 C 0.8315 0.00525 0.52495 0.0
H434 H 0.90107 0.97993 0.59655 0.0
C435 C 0.85343 0.04444 0.56537 0.0
C436 C 0.89243 0.06059 0.6178 0.0
H437 H 0.80123 0.99381 0.48698 0.0
H438 H 0.83955 0.06195 0.55769 0.0
C439 C 0.90951 0.03698 0.62597 0.0
C440 C 0.04843 0.76947 0.54834 0.0
C441 C 0.02265 0.7308 0.50358 0.0
H442 H 0.10564 0.81995 0.54411 0.0
C443 C 0.034 0.71459 0.40624 0.0
H444 H 0.04032 0.78256 0.62389 0.0
C445 C 0.07182 0.73592 0.36122 0.0
C446 C 0.09877 0.7739 0.41234 0.0
H447 H 0.0149 0.68468 0.37164 0.0
H448 H 0.08062 0.72194 0.29088 0.0
C449 C 0.0859 0.79091 0.50254 0.0
loop_
_geom_bond_atom_site_label_1
_geom_bond_atom_site_label_2
_geom_bond_distance
_geom_bond_site_symmetry_2
_ccdc_geom_bond_type
Dy0 O4 2.398 1_554 S
Dy0 O5 2.491 . S
Dy0 O6 2.403 1_554 S
Dy0 O7 2.664 1_554 S
Dy0 O11 2.326 1_554 S
Dy0 O15 2.310 . S
Dy0 O16 2.351 . S
C1 O12 1.185 1_556 S
C1 O13 1.355 . S
C2 O4 1.185 1_554 S
C2 O5 1.355 . S
Dy3 O7 2.310 1_655 S
Dy3 O10 2.351 . S
Dy3 O12 2.398 1_556 S
Dy3 O13 2.491 . S
Dy3 O14 2.403 1_556 S
Dy3 O15 2.664 1_656 S
Dy3 O17 2.326 1_656 S
O4 Dy0 2.398 1_556 S
O4 C2 1.185 1_556 S
O5 Dy0 2.491 . S
O5 C2 1.355 . S
O6 Dy0 2.403 1_556 S
O6 C8 1.254 . S
O7 Dy0 2.664 1_556 S
O7 Dy3 2.310 1_455 S
O7 C8 1.268 . S
C8 O6 1.254 . S
C8 O7 1.268 . S
C9 O14 1.254 1_455 S
C9 O15 1.268 . S
O10 Dy3 2.351 . S
O10 C18 1.233 1_655 S
O11 Dy0 2.326 1_556 S
O11 C18 1.282 . S
O12 C1 1.185 1_554 S
O12 Dy3 2.398 1_554 S
O13 C1 1.355 . S
O13 Dy3 2.491 . S
O14 Dy3 2.403 1_554 S
O14 C9 1.254 1_655 S
O15 Dy0 2.310 . S
O15 Dy3 2.664 1_454 S
O15 C9 1.268 . S
O16 Dy0 2.351 . S
O16 C19 1.249 . S
O17 Dy3 2.326 1_454 S
O17 C19 1.267 . S
C18 O10 1.233 1_455 S
C18 O11 1.282 . S
C19 O16 1.249 . S
C19 O17 1.267 . S
Dy20 O24 2.398 . S
Dy20 O25 2.491 . S
Dy20 O26 2.403 1_554 S
Dy20 O27 2.664 1_554 S
Dy20 O31 2.326 . S
Dy20 O35 2.310 . S
Dy20 O36 2.351 . S
C21 O32 1.185 . S
C21 O33 1.355 1_554 S
C22 O24 1.185 . S
C22 O25 1.355 . S
Dy23 O27 2.310 1_554 S
Dy23 O30 2.351 . S
Dy23 O32 2.398 . S
Dy23 O33 2.491 1_554 S
Dy23 O34 2.403 . S
Dy23 O35 2.664 . S
Dy23 O37 2.326 . S
O24 Dy20 2.398 . S
O24 C22 1.185 . S
O25 Dy20 2.491 . S
O25 C22 1.355 . S
O26 Dy20 2.403 1_556 S
O26 C28 1.254 . S
O27 Dy20 2.664 1_556 S
O27 Dy23 2.310 1_556 S
O27 C28 1.268 . S
C28 O26 1.254 . S
C28 O27 1.268 . S
C29 O34 1.254 . S
C29 O35 1.268 . S
O30 Dy23 2.351 . S
O30 C38 1.249 . S
O31 Dy20 2.326 . S
O31 C38 1.267 . S
O32 C21 1.185 . S
O32 Dy23 2.398 . S
O33 C21 1.355 1_556 S
O33 Dy23 2.491 1_556 S
O34 Dy23 2.403 . S
O34 C29 1.254 . S
O35 Dy20 2.310 . S
O35 Dy23 2.664 . S
O35 C29 1.268 . S
O36 Dy20 2.351 . S
O36 C39 1.249 . S
O37 Dy23 2.326 . S
O37 C39 1.267 . S
C38 O30 1.249 . S
C38 O31 1.267 . S
C39 O36 1.249 . S
C39 O37 1.267 . S
Dy40 O44 2.398 1_545 S
Dy40 O45 2.491 . S
Dy40 O46 2.403 1_554 S
Dy40 O47 2.664 . S
Dy40 O51 2.326 . S
Dy40 O55 2.310 . S
Dy40 O56 2.351 1_545 S
C41 O52 1.185 . S
C41 O53 1.355 . S
C42 O44 1.185 . S
C42 O45 1.355 1_565 S
Dy43 O47 2.310 . S
Dy43 O50 2.351 . S
Dy43 O52 2.398 . S
Dy43 O53 2.491 . S
Dy43 O54 2.403 . S
Dy43 O55 2.664 . S
Dy43 O57 2.326 . S
O44 Dy40 2.398 1_565 S
O44 C42 1.185 . S
O45 Dy40 2.491 . S
O45 C42 1.355 1_545 S
O46 Dy40 2.403 1_556 S
O46 C48 1.254 . S
O47 Dy40 2.664 . S
O47 Dy43 2.310 . S
O47 C48 1.268 1_554 S
C48 O46 1.254 . S
C48 O47 1.268 1_556 S
C49 O54 1.254 . S
C49 O55 1.268 . S
O50 Dy43 2.351 . S
O50 C58 1.249 . S
O51 Dy40 2.326 . S
O51 C58 1.267 . S
O52 C41 1.185 . S
O52 Dy43 2.398 . S
O53 C41 1.355 . S
O53 Dy43 2.491 . S
O54 Dy43 2.403 . S
O54 C49 1.254 . S
O55 Dy40 2.310 . S
O55 Dy43 2.664 . S
O55 C49 1.268 . S
O56 Dy40 2.351 1_565 S
O56 C59 1.249 1_565 S
O57 Dy43 2.326 . S
O57 C59 1.267 . S
C58 O50 1.249 . S
C58 O51 1.267 . S
C59 O56 1.249 1_545 S
C59 O57 1.267 . S
Dy60 O64 2.398 . S
Dy60 O65 2.491 . S
Dy60 O66 2.403 . S
Dy60 O67 2.664 . S
Dy60 O71 2.326 . S
Dy60 O75 2.310 . S
Dy60 O76 2.351 . S
C61 O72 1.185 . S
C61 O73 1.355 . S
C62 O64 1.185 . S
C62 O65 1.355 . S
Dy63 O67 2.310 . S
Dy63 O70 2.351 . S
Dy63 O72 2.398 . S
Dy63 O73 2.491 . S
Dy63 O74 2.403 . S
Dy63 O75 2.664 . S
Dy63 O77 2.326 . S
O64 Dy60 2.398 . S
O64 C62 1.185 . S
O65 Dy60 2.491 . S
O65 C62 1.355 . S
O66 Dy60 2.403 . S
O66 C68 1.254 . S
O67 Dy60 2.664 . S
O67 Dy63 2.310 . S
O67 C68 1.268 . S
C68 O66 1.254 . S
C68 O67 1.268 . S
C69 O74 1.254 . S
C69 O75 1.268 . S
O70 Dy63 2.351 . S
O70 C78 1.249 . S
O71 Dy60 2.326 . S
O71 C78 1.267 . S
O72 C61 1.185 . S
O72 Dy63 2.398 . S
O73 C61 1.355 . S
O73 Dy63 2.491 . S
O74 Dy63 2.403 . S
O74 C69 1.254 . S
O75 Dy60 2.310 . S
O75 Dy63 2.664 . S
O75 C69 1.268 . S
O76 Dy60 2.351 . S
O76 C79 1.249 . S
O77 Dy63 2.326 . S
O77 C79 1.267 . S
C78 O70 1.249 . S
C78 O71 1.267 . S
C79 O76 1.249 . S
C79 O77 1.267 . S
Dy80 O84 2.398 . S
Dy80 O85 2.491 . S
Dy80 O86 2.403 . S
Dy80 O87 2.664 . S
Dy80 O91 2.326 . S
Dy80 O95 2.310 . S
Dy80 O96 2.351 . S
C81 O92 1.185 . S
C81 O93 1.355 . S
C82 O84 1.185 . S
C82 O85 1.355 . S
Dy83 O87 2.310 . S
Dy83 O90 2.351 . S
Dy83 O92 2.398 . S
Dy83 O93 2.491 . S
Dy83 O94 2.403 . S
Dy83 O95 2.664 . S
Dy83 O97 2.326 . S
O84 Dy80 2.398 . S
O84 C82 1.185 . S
O85 Dy80 2.491 . S
O85 C82 1.355 . S
O86 Dy80 2.403 . S
O86 C88 1.254 . S
O87 Dy80 2.664 . S
O87 Dy83 2.310 . S
O87 C88 1.268 . S
C88 O86 1.254 . S
C88 O87 1.268 . S
C89 O94 1.254 . S
C89 O95 1.268 . S
O90 Dy83 2.351 . S
O90 C98 1.249 . S
O91 Dy80 2.326 . S
O91 C98 1.267 . S
O92 C81 1.185 . S
O92 Dy83 2.398 . S
O93 C81 1.355 . S
O93 Dy83 2.491 . S
O94 Dy83 2.403 . S
O94 C89 1.254 . S
O95 Dy80 2.310 . S
O95 Dy83 2.664 . S
O95 C89 1.268 . S
O96 Dy80 2.351 . S
O96 C99 1.249 . S
O97 Dy83 2.326 . S
O97 C99 1.267 . S
C98 O90 1.249 . S
C98 O91 1.267 . S
C99 O96 1.249 . S
C99 O97 1.267 . S
Dy100 O104 2.398 . S
Dy100 O105 2.491 . S
Dy100 O106 2.403 1_554 S
Dy100 O107 2.664 . S
Dy100 O111 2.326 . S
Dy100 O115 2.310 . S
Dy100 O116 2.351 . S
C101 O112 1.185 . S
C101 O113 1.355 . S
C102 O104 1.185 . S
C102 O105 1.355 . S
Dy103 O107 2.310 . S
Dy103 O110 2.351 . S
Dy103 O112 2.398 . S
Dy103 O113 2.491 . S
Dy103 O114 2.403 . S
Dy103 O115 2.664 . S
Dy103 O117 2.326 . S
O104 Dy100 2.398 . S
O104 C102 1.185 . S
O105 Dy100 2.491 . S
O105 C102 1.355 . S
O106 Dy100 2.403 1_556 S
O106 C108 1.254 . S
O107 Dy100 2.664 . S
O107 Dy103 2.310 . S
O107 C108 1.268 1_554 S
C108 O106 1.254 . S
C108 O107 1.268 1_556 S
C109 O114 1.254 . S
C109 O115 1.268 . S
O110 Dy103 2.351 . S
O110 C118 1.249 . S
O111 Dy100 2.326 . S
O111 C118 1.267 . S
O112 C101 1.185 . S
O112 Dy103 2.398 . S
O113 C101 1.355 . S
O113 Dy103 2.491 . S
O114 Dy103 2.403 . S
O114 C109 1.254 . S
O115 Dy100 2.310 . S
O115 Dy103 2.664 . S
O115 C109 1.268 . S
O116 Dy100 2.351 . S
O116 C119 1.249 . S
O117 Dy103 2.326 . S
O117 C119 1.267 . S
C118 O110 1.249 . S
C118 O111 1.267 . S
C119 O116 1.249 . S
C119 O117 1.267 . S
Dy120 O124 2.398 . S
Dy120 O125 2.491 . S
Dy120 O126 2.403 . S
Dy120 O127 2.664 . S
Dy120 O131 2.326 . S
Dy120 O135 2.310 . S
Dy120 O136 2.351 . S
C121 O132 1.185 . S
C121 O133 1.355 . S
C122 O124 1.185 . S
C122 O125 1.355 . S
Dy123 O127 2.310 . S
Dy123 O130 2.351 . S
Dy123 O132 2.398 1_556 S
Dy123 O133 2.491 1_556 S
Dy123 O134 2.403 . S
Dy123 O135 2.664 . S
Dy123 O137 2.326 . S
O124 Dy120 2.398 . S
O124 C122 1.185 . S
O125 Dy120 2.491 . S
O125 C122 1.355 . S
O126 Dy120 2.403 . S
O126 C128 1.254 . S
O127 Dy120 2.664 . S
O127 Dy123 2.310 . S
O127 C128 1.268 . S
C128 O126 1.254 . S
C128 O127 1.268 . S
C129 O134 1.254 . S
C129 O135 1.268 . S
O130 Dy123 2.351 . S
O130 C138 1.249 . S
O131 Dy120 2.326 . S
O131 C138 1.267 . S
O132 C121 1.185 . S
O132 Dy123 2.398 1_554 S
O133 C121 1.355 . S
O133 Dy123 2.491 1_554 S
O134 Dy123 2.403 . S
O134 C129 1.254 . S
O135 Dy120 2.310 . S
O135 Dy123 2.664 . S
O135 C129 1.268 . S
O136 Dy120 2.351 . S
O136 C139 1.249 . S
O137 Dy123 2.326 . S
O137 C139 1.267 . S
C138 O130 1.249 . S
C138 O131 1.267 . S
C139 O136 1.249 . S
C139 O137 1.267 . S
Dy140 O144 2.398 1_556 S
Dy140 O145 2.491 1_556 S
Dy140 O146 2.403 . S
Dy140 O147 2.664 . S
Dy140 O151 2.326 . S
Dy140 O155 2.310 . S
Dy140 O156 2.351 . S
C141 O152 1.185 . S
C141 O153 1.355 . S
C142 O144 1.185 . S
C142 O145 1.355 . S
Dy143 O147 2.310 . S
Dy143 O150 2.351 . S
Dy143 O152 2.398 . S
Dy143 O153 2.491 . S
Dy143 O154 2.403 . S
Dy143 O155 2.664 . S
Dy143 O157 2.326 . S
O144 Dy140 2.398 1_554 S
O144 C142 1.185 . S
O145 Dy140 2.491 1_554 S
O145 C142 1.355 . S
O146 Dy140 2.403 . S
O146 C148 1.254 . S
O147 Dy140 2.664 . S
O147 Dy143 2.310 . S
O147 C148 1.268 . S
C148 O146 1.254 . S
C148 O147 1.268 . S
C149 O154 1.254 . S
C149 O155 1.268 . S
O150 Dy143 2.351 . S
O150 C158 1.249 . S
O151 Dy140 2.326 . S
O151 C158 1.267 . S
O152 C141 1.185 . S
O152 Dy143 2.398 . S
O153 C141 1.355 . S
O153 Dy143 2.491 . S
O154 Dy143 2.403 . S
O154 C149 1.254 . S
O155 Dy140 2.310 . S
O155 Dy143 2.664 . S
O155 C149 1.268 . S
O156 Dy140 2.351 . S
O156 C159 1.249 . S
O157 Dy143 2.326 . S
O157 C159 1.267 . S
C158 O150 1.249 . S
C158 O151 1.267 . S
C159 O156 1.249 . S
C159 O157 1.267 . S
Dy160 O164 2.398 . S
Dy160 O165 2.491 . S
Dy160 O166 2.403 . S
Dy160 O167 2.664 . S
Dy160 O171 2.326 . S
Dy160 O175 2.310 . S
Dy160 O176 2.351 . S
C161 O172 1.185 . S
C161 O173 1.355 . S
C162 O164 1.185 . S
C162 O165 1.355 . S
Dy163 O167 2.310 . S
Dy163 O170 2.351 . S
Dy163 O172 2.398 1_556 S
Dy163 O173 2.491 1_556 S
Dy163 O174 2.403 . S
Dy163 O175 2.664 . S
Dy163 O177 2.326 . S
O164 Dy160 2.398 . S
O164 C162 1.185 . S
O165 Dy160 2.491 . S
O165 C162 1.355 . S
O166 Dy160 2.403 . S
O166 C168 1.254 . S
O167 Dy160 2.664 . S
O167 Dy163 2.310 . S
O167 C168 1.268 . S
C168 O166 1.254 . S
C168 O167 1.268 . S
C169 O174 1.254 . S
C169 O175 1.268 . S
O170 Dy163 2.351 . S
O170 C178 1.249 . S
O171 Dy160 2.326 . S
O171 C178 1.267 . S
O172 C161 1.185 . S
O172 Dy163 2.398 1_554 S
O173 C161 1.355 . S
O173 Dy163 2.491 1_554 S
O174 Dy163 2.403 . S
O174 C169 1.254 . S
O175 Dy160 2.310 . S
O175 Dy163 2.664 . S
O175 C169 1.268 . S
O176 Dy160 2.351 . S
O176 C179 1.249 . S
O177 Dy163 2.326 . S
O177 C179 1.267 . S
C178 O170 1.249 . S
C178 O171 1.267 . S
C179 O176 1.249 . S
C179 O177 1.267 . S
C180 C181 1.387 . S
C180 H184 0.950 . S
C180 C189 1.390 . S
C181 C180 1.387 . S
C181 C183 1.387 . S
H182 C189 0.950 . S
C183 C181 1.387 . S
C183 C185 1.390 . S
C183 H187 0.950 . S
H184 C180 0.950 . S
C185 C183 1.390 . S
C185 C186 1.387 . S
C185 H188 0.950 . S
C186 C185 1.387 . S
C186 C189 1.387 . S
H187 C183 0.950 . S
H188 C185 0.950 . S
C189 C180 1.390 . S
C189 H182 0.950 . S
C189 C186 1.387 . S
C190 C191 1.387 . S
C190 H194 0.950 . S
C190 C199 1.390 . S
C191 C190 1.387 . S
C191 C193 1.387 . S
H192 C199 0.950 . S
C193 C191 1.387 . S
C193 C195 1.390 . S
C193 H197 0.950 . S
H194 C190 0.950 . S
C195 C193 1.390 . S
C195 C196 1.387 . S
C195 H198 0.950 . S
C196 C195 1.387 . S
C196 C199 1.387 . S
H197 C193 0.950 . S
H198 C195 0.950 . S
C199 C190 1.390 . S
C199 H192 0.950 . S
C199 C196 1.387 . S
C200 C201 1.387 . S
C200 H204 0.950 . S
C200 C209 1.390 . S
C201 C200 1.387 . S
C201 C203 1.387 . S
H202 C209 0.950 . S
C203 C201 1.387 . S
C203 C205 1.390 . S
C203 H207 0.950 . S
H204 C200 0.950 . S
C205 C203 1.390 . S
C205 C206 1.387 . S
C205 H208 0.950 . S
C206 C205 1.387 . S
C206 C209 1.387 . S
H207 C203 0.950 . S
H208 C205 0.950 . S
C209 C200 1.390 . S
C209 H202 0.950 . S
C209 C206 1.387 . S
C210 C211 1.387 . S
C210 H214 0.950 . S
C210 C219 1.390 . S
C211 C210 1.387 . S
C211 C213 1.387 . S
H212 C219 0.950 . S
C213 C211 1.387 . S
C213 C215 1.390 . S
C213 H217 0.950 . S
H214 C210 0.950 . S
C215 C213 1.390 . S
C215 C216 1.387 . S
C215 H218 0.950 . S
C216 C215 1.387 . S
C216 C219 1.387 . S
H217 C213 0.950 . S
H218 C215 0.950 . S
C219 C210 1.390 . S
C219 H212 0.950 . S
C219 C216 1.387 . S
C220 C221 1.387 . S
C220 H224 0.950 . S
C220 C229 1.390 . S
C221 C220 1.387 . S
C221 C223 1.387 . S
H222 C229 0.950 . S
C223 C221 1.387 . S
C223 C225 1.390 . S
C223 H227 0.950 . S
H224 C220 0.950 . S
C225 C223 1.390 . S
C225 C226 1.387 . S
C225 H228 0.950 . S
C226 C225 1.387 . S
C226 C229 1.387 . S
H227 C223 0.950 . S
H228 C225 0.950 . S
C229 C220 1.390 . S
C229 H222 0.950 . S
C229 C226 1.387 . S
C230 C231 1.387 . S
C230 H234 0.950 . S
C230 C239 1.390 . S
C231 C230 1.387 . S
C231 C233 1.387 . S
H232 C239 0.950 . S
C233 C231 1.387 . S
C233 C235 1.390 . S
C233 H237 0.950 . S
H234 C230 0.950 . S
C235 C233 1.390 . S
C235 C236 1.387 . S
C235 H238 0.950 . S
C236 C235 1.387 . S
C236 C239 1.387 . S
H237 C233 0.950 . S
H238 C235 0.950 . S
C239 C230 1.390 . S
C239 H232 0.950 . S
C239 C236 1.387 . S
C240 C241 1.387 . S
C240 H244 0.950 . S
C240 C249 1.390 . S
C241 C240 1.387 . S
C241 C243 1.387 . S
H242 C249 0.950 . S
C243 C241 1.387 . S
C243 C245 1.390 . S
C243 H247 0.950 . S
H244 C240 0.950 . S
C245 C243 1.390 . S
C245 C246 1.387 . S
C245 H248 0.950 . S
C246 C245 1.387 . S
C246 C249 1.387 . S
H247 C243 0.950 . S
H248 C245 0.950 . S
C249 C240 1.390 . S
C249 H242 0.950 . S
C249 C246 1.387 . S
C250 C251 1.387 . S
C250 H254 0.950 . S
C250 C259 1.390 . S
C251 C250 1.387 . S
C251 C253 1.387 . S
H252 C259 0.950 . S
C253 C251 1.387 . S
C253 C255 1.390 . S
C253 H257 0.950 . S
H254 C250 0.950 . S
C255 C253 1.390 . S
C255 C256 1.387 . S
C255 H258 0.950 . S
C256 C255 1.387 . S
C256 C259 1.387 . S
H257 C253 0.950 . S
H258 C255 0.950 . S
C259 C250 1.390 . S
C259 H252 0.950 . S
C259 C256 1.387 . S
C260 C261 1.387 . S
C260 H264 0.950 . S
C260 C269 1.390 . S
C261 C260 1.387 . S
C261 C263 1.387 . S
H262 C269 0.950 . S
C263 C261 1.387 . S
C263 C265 1.390 . S
C263 H267 0.950 . S
H264 C260 0.950 . S
C265 C263 1.390 . S
C265 C266 1.387 . S
C265 H268 0.950 . S
C266 C265 1.387 . S
C266 C269 1.387 . S
H267 C263 0.950 . S
H268 C265 0.950 . S
C269 C260 1.390 . S
C269 H262 0.950 . S
C269 C266 1.387 . S
C270 C271 1.387 . S
C270 H274 0.950 1_554 S
C270 C279 1.390 . S
C271 C270 1.387 . S
C271 C273 1.387 . S
H272 C279 0.950 1_556 S
C273 C271 1.387 . S
C273 C275 1.390 . S
C273 H277 0.950 . S
H274 C270 0.950 1_556 S
C275 C273 1.390 . S
C275 C276 1.387 . S
C275 H278 0.950 . S
C276 C275 1.387 . S
C276 C279 1.387 . S
H277 C273 0.950 . S
H278 C275 0.950 . S
C279 C270 1.390 . S
C279 H272 0.950 1_554 S
C279 C276 1.387 . S
C280 C281 1.387 . S
C280 H284 0.950 . S
C280 C289 1.390 . S
C281 C280 1.387 . S
C281 C283 1.387 . S
H282 C289 0.950 . S
C283 C281 1.387 . S
C283 C285 1.390 . S
C283 H287 0.950 . S
H284 C280 0.950 . S
C285 C283 1.390 . S
C285 C286 1.387 . S
C285 H288 0.950 . S
C286 C285 1.387 . S
C286 C289 1.387 . S
H287 C283 0.950 . S
H288 C285 0.950 . S
C289 C280 1.390 . S
C289 H282 0.950 . S
C289 C286 1.387 . S
C290 C291 1.387 . S
C290 H294 0.950 . S
C290 C299 1.390 . S
C291 C290 1.387 . S
C291 C293 1.387 . S
H292 C299 0.950 . S
C293 C291 1.387 . S
C293 C295 1.390 . S
C293 H297 0.950 . S
H294 C290 0.950 . S
C295 C293 1.390 . S
C295 C296 1.387 . S
C295 H298 0.950 . S
C296 C295 1.387 . S
C296 C299 1.387 . S
H297 C293 0.950 . S
H298 C295 0.950 . S
C299 C290 1.390 . S
C299 H292 0.950 . S
C299 C296 1.387 . S
C300 C301 1.387 1_556 S
C300 H304 0.950 . S
C300 C309 1.390 . S
C301 C300 1.387 1_554 S
C301 C303 1.387 . S
H302 C309 0.950 . S
C303 C301 1.387 . S
C303 C305 1.390 1_554 S
C303 H307 0.950 . S
H304 C300 0.950 . S
C305 C303 1.390 1_556 S
C305 C306 1.387 . S
C305 H308 0.950 . S
C306 C305 1.387 . S
C306 C309 1.387 . S
H307 C303 0.950 . S
H308 C305 0.950 . S
C309 C300 1.390 . S
C309 H302 0.950 . S
C309 C306 1.387 . S
C310 C311 1.387 . S
C310 H314 0.950 . S
C310 C319 1.390 . S
C311 C310 1.387 . S
C311 C313 1.387 . S
H312 C319 0.950 . S
C313 C311 1.387 . S
C313 C315 1.390 1_655 S
C313 H317 0.950 1_655 S
H314 C310 0.950 . S
C315 C313 1.390 1_455 S
C315 C316 1.387 1_455 S
C315 H318 0.950 . S
C316 C315 1.387 1_655 S
C316 C319 1.387 . S
H317 C313 0.950 1_455 S
H318 C315 0.950 . S
C319 C310 1.390 . S
C319 H312 0.950 . S
C319 C316 1.387 . S
C320 C321 1.387 . S
C320 H324 0.950 . S
C320 C329 1.390 1_556 S
C321 C320 1.387 . S
C321 C323 1.387 . S
H322 C329 0.950 . S
C323 C321 1.387 . S
C323 C325 1.390 . S
C323 H327 0.950 . S
H324 C320 0.950 . S
C325 C323 1.390 . S
C325 C326 1.387 1_556 S
C325 H328 0.950 . S
C326 C325 1.387 1_554 S
C326 C329 1.387 . S
H327 C323 0.950 . S
H328 C325 0.950 . S
C329 C320 1.390 1_554 S
C329 H322 0.950 . S
C329 C326 1.387 . S
C330 C331 1.387 . S
C330 H334 0.950 . S
C330 C339 1.390 . S
C331 C330 1.387 . S
C331 C333 1.387 . S
H332 C339 0.950 . S
C333 C331 1.387 . S
C333 C335 1.390 . S
C333 H337 0.950 . S
H334 C330 0.950 . S
C335 C333 1.390 . S
C335 C336 1.387 . S
C335 H338 0.950 1_556 S
C336 C335 1.387 . S
C336 C339 1.387 . S
H337 C333 0.950 . S
H338 C335 0.950 1_554 S
C339 C330 1.390 . S
C339 H332 0.950 . S
C339 C336 1.387 . S
C340 C341 1.387 . S
C340 H344 0.950 . S
C340 C349 1.390 . S
C341 C340 1.387 . S
C341 C343 1.387 . S
H342 C349 0.950 . S
C343 C341 1.387 . S
C343 C345 1.390 . S
C343 H347 0.950 1_556 S
H344 C340 0.950 . S
C345 C343 1.390 . S
C345 C346 1.387 . S
C345 H348 0.950 . S
C346 C345 1.387 . S
C346 C349 1.387 . S
H347 C343 0.950 1_554 S
H348 C345 0.950 . S
C349 C340 1.390 . S
C349 H342 0.950 . S
C349 C346 1.387 . S
C350 C351 1.387 . S
C350 H354 0.950 . S
C350 C359 1.390 1_556 S
C351 C350 1.387 . S
C351 C353 1.387 . S
H352 C359 0.950 . S
C353 C351 1.387 . S
C353 C355 1.390 . S
C353 H357 0.950 . S
H354 C350 0.950 . S
C355 C353 1.390 . S
C355 C356 1.387 1_556 S
C355 H358 0.950 . S
C356 C355 1.387 1_554 S
C356 C359 1.387 . S
H357 C353 0.950 . S
H358 C355 0.950 . S
C359 C350 1.390 1_554 S
C359 H352 0.950 . S
C359 C356 1.387 . S
C360 C361 1.387 1_545 S
C360 H364 0.950 . S
C360 C369 1.390 1_545 S
C361 C360 1.387 1_565 S
C361 C363 1.387 . S
H362 C369 0.950 . S
C363 C361 1.387 . S
C363 C365 1.390 . S
C363 H367 0.950 . S
H364 C360 0.950 . S
C365 C363 1.390 . S
C365 C366 1.387 . S
C365 H368 0.950 . S
C366 C365 1.387 . S
C366 C369 1.387 . S
H367 C363 0.950 . S
H368 C365 0.950 . S
C369 C360 1.390 1_565 S
C369 H362 0.950 . S
C369 C366 1.387 . S
C370 C371 1.387 . S
C370 H374 0.950 . S
C370 C379 1.390 . S
C371 C370 1.387 . S
C371 C373 1.387 . S
H372 C379 0.950 . S
C373 C371 1.387 . S
C373 C375 1.392 . S
C373 H377 0.950 1_554 S
H374 C370 0.950 . S
C375 C373 1.392 . S
C375 C376 1.392 . S
C375 H378 0.943 1_554 S
C376 C375 1.392 . S
C376 C379 1.387 . S
H377 C373 0.950 1_556 S
H378 C375 0.943 1_556 S
C379 C370 1.390 . S
C379 H372 0.950 . S
C379 C376 1.387 . S
C380 C381 1.387 . S
C380 H384 0.950 . S
C380 C389 1.390 . S
C381 C380 1.387 . S
C381 C383 1.387 . S
H382 C389 0.950 . S
C383 C381 1.387 . S
C383 C385 1.390 . S
C383 H387 0.950 1_554 S
H384 C380 0.950 . S
C385 C383 1.390 . S
C385 C386 1.387 . S
C385 H388 0.950 1_554 S
C386 C385 1.387 . S
C386 C389 1.387 . S
H387 C383 0.950 1_556 S
H388 C385 0.950 1_556 S
C389 C380 1.390 . S
C389 H382 0.950 . S
C389 C386 1.387 . S
C390 C391 1.387 . S
C390 H394 0.950 . S
C390 C399 1.390 . S
C391 C390 1.387 . S
C391 C393 1.387 . S
H392 C399 0.950 . S
C393 C391 1.387 . S
C393 C395 1.390 . S
C393 H397 0.950 . S
H394 C390 0.950 . S
C395 C393 1.390 . S
C395 C396 1.387 . S
C395 H398 0.950 . S
C396 C395 1.387 . S
C396 C399 1.387 . S
H397 C393 0.950 . S
H398 C395 0.950 . S
C399 C390 1.390 . S
C399 H392 0.950 . S
C399 C396 1.387 . S
C400 C401 1.387 . S
C400 H404 0.950 . S
C400 C409 1.390 . S
C401 C400 1.387 . S
C401 C403 1.387 . S
H402 C409 0.950 . S
C403 C401 1.387 . S
C403 C405 1.390 1_545 S
C403 H407 0.950 . S
H404 C400 0.950 . S
C405 C403 1.390 1_565 S
C405 C406 1.387 1_565 S
C405 H408 0.950 . S
C406 C405 1.387 1_545 S
C406 C409 1.387 . S
H407 C403 0.950 . S
H408 C405 0.950 . S
C409 C400 1.390 . S
C409 H402 0.950 . S
C409 C406 1.387 . S
C410 C411 1.387 . S
C410 H414 0.950 1_455 S
C410 C419 1.390 . S
C411 C410 1.387 . S
C411 C413 1.387 . S
H412 C419 0.950 . S
C413 C411 1.387 . S
C413 C415 1.390 . S
C413 H417 0.950 . S
H414 C410 0.950 1_655 S
C415 C413 1.390 . S
C415 C416 1.387 . S
C415 H418 0.950 . S
C416 C415 1.387 . S
C416 C419 1.387 . S
H417 C413 0.950 . S
H418 C415 0.950 . S
C419 C410 1.390 . S
C419 H412 0.950 . S
C419 C416 1.387 . S
C420 C421 1.387 . S
C420 H424 0.950 . S
C420 C429 1.390 . S
C421 C420 1.387 . S
C421 C423 1.387 . S
H422 C429 0.950 . S
C423 C421 1.387 . S
C423 C425 1.390 . S
C423 H427 0.950 . S
H424 C420 0.950 . S
C425 C423 1.390 . S
C425 C426 1.387 . S
C425 H428 0.950 . S
C426 C425 1.387 . S
C426 C429 1.387 . S
H427 C423 0.950 . S
H428 C425 0.950 . S
C429 C420 1.390 . S
C429 H422 0.950 . S
C429 C426 1.387 . S
C430 C431 1.387 1_545 S
C430 H434 0.950 . S
C430 C439 1.390 . S
C431 C430 1.387 1_565 S
C431 C433 1.387 . S
H432 C439 0.950 . S
C433 C431 1.387 . S
C433 C435 1.390 1_565 S
C433 H437 0.950 . S
H434 C430 0.950 . S
C435 C433 1.390 1_545 S
C435 C436 1.387 . S
C435 H438 0.950 . S
C436 C435 1.387 . S
C436 C439 1.387 . S
H437 C433 0.950 . S
H438 C435 0.950 . S
C439 C430 1.390 . S
C439 H432 0.950 . S
C439 C436 1.387 . S
C440 C441 1.387 . S
C440 H444 0.950 . S
C440 C449 1.390 . S
C441 C440 1.387 . S
C441 C443 1.387 . S
H442 C449 0.950 . S
C443 C441 1.387 . S
C443 C445 1.390 . S
C443 H447 0.950 1_455 S
H444 C440 0.950 . S
C445 C443 1.390 . S
C445 C446 1.387 . S
C445 H448 0.950 . S
C446 C445 1.387 . S
C446 C449 1.387 . S
H447 C443 0.950 1_655 S
H448 C445 0.950 . S
C449 C440 1.390 . S
C449 H442 0.950 . S
C449 C446 1.387 . S
C181 C8 1.852 . S
C186 C9 1.852 . S
C191 C28 1.895 . S
C196 C29 1.895 . S
C201 C48 1.928 . S
C206 C49 1.928 . S
C211 C69 1.852 . S
C216 C68 1.852 1_556 S
C221 C89 1.895 . S
C226 C88 1.895 1_556 S
C231 C109 1.928 . S
C236 C108 1.928 . S
C241 C122 0.668 . S
C246 C121 0.668 . S
C251 C141 0.650 . S
C256 C142 0.650 . S
C261 C162 0.669 . S
C266 C161 0.669 . S
C271 C118 1.688 . S
C276 C2 1.690 . S
C281 C22 1.693 . S
C286 C78 1.701 . S
C291 C42 1.734 . S
C296 C98 1.763 . S
C301 C58 1.669 . S
C306 C139 1.823 . S
C311 C149 1.436 . S
C316 C18 1.359 1_655 S
C321 C179 1.784 . S
C326 C38 1.632 . S
C331 C168 1.444 . S
C336 C1 1.422 . S
C341 C21 1.449 1_556 S
C346 C128 1.477 . S
C351 C158 1.867 . S
C356 C41 1.773 . S
C361 C59 1.689 1_565 S
C366 C61 1.688 . S
C371 C81 1.693 . S
C376 C19 1.702 . S
C381 C39 1.763 . S
C386 C101 1.734 . S
C391 C169 1.446 . S
C396 C62 1.424 . S
C401 C129 1.476 . S
C406 C82 1.448 1_545 S
C411 C159 1.868 1_455 S
C416 C102 1.774 . S
C421 C138 1.823 . S
C426 C119 1.666 . S
C431 C79 1.353 . S
C436 C148 1.437 . S
C441 C178 1.785 1_455 S
C446 C99 1.633 . S
