# Generated by pormake.
# Topology ums, (4)-cn, num edge types: 1
# Building blocks:
#     Node 0, Type 0, BuildingBlock: TATPOV_clean_sbu_0, # of connection points: 4
#     Node 1, Type 0, BuildingBlock: TATPOV_clean_sbu_0, # of connection points: 4
#     Node 2, Type 0, BuildingBlock: TATPOV_clean_sbu_0, # of connection points: 4
#     Node 3, Type 0, BuildingBlock: TATPOV_clean_sbu_0, # of connection points: 4
#     Node 4, Type 0, BuildingBlock: TATPOV_clean_sbu_0, # of connection points: 4
#     Node 5, Type 0, BuildingBlock: TATPOV_clean_sbu_0, # of connection points: 4
#     Node 6, Type 0, BuildingBlock: TATPOV_clean_sbu_0, # of connection points: 4
#     Node 7, Type 0, BuildingBlock: TATPOV_clean_sbu_0, # of connection points: 4
#     Node 8, Type 0, BuildingBlock: TATPOV_clean_sbu_0, # of connection points: 4
#     Node 9, Type 0, BuildingBlock: TATPOV_clean_sbu_0, # of connection points: 4
#     Node 10, Type 0, BuildingBlock: TATPOV_clean_sbu_0, # of connection points: 4
#     Node 11, Type 0, BuildingBlock: TATPOV_clean_sbu_0, # of connection points: 4
#     Node 12, Type 0, BuildingBlock: TATPOV_clean_sbu_0, # of connection points: 4
#     Node 13, Type 0, BuildingBlock: TATPOV_clean_sbu_0, # of connection points: 4
#     Node 14, Type 0, BuildingBlock: TATPOV_clean_sbu_0, # of connection points: 4
#     Node 15, Type 0, BuildingBlock: TATPOV_clean_sbu_0, # of connection points: 4
#     Node 16, Type 0, BuildingBlock: TATPOV_clean_sbu_0, # of connection points: 4
#     Node 17, Type 0, BuildingBlock: TATPOV_clean_sbu_0, # of connection points: 4
#     Node 18, Type 0, BuildingBlock: TATPOV_clean_sbu_0, # of connection points: 4
#     Node 19, Type 0, BuildingBlock: TATPOV_clean_sbu_0, # of connection points: 4
#     Node 20, Type 0, BuildingBlock: TATPOV_clean_sbu_0, # of connection points: 4
#     Node 21, Type 0, BuildingBlock: TATPOV_clean_sbu_0, # of connection points: 4
#     Node 22, Type 0, BuildingBlock: TATPOV_clean_sbu_0, # of connection points: 4
#     Node 23, Type 0, BuildingBlock: TATPOV_clean_sbu_0, # of connection points: 4
#     Node 24, Type 0, BuildingBlock: TATPOV_clean_sbu_0, # of connection points: 4
#     Node 25, Type 0, BuildingBlock: TATPOV_clean_sbu_0, # of connection points: 4
#     Node 26, Type 0, BuildingBlock: TATPOV_clean_sbu_0, # of connection points: 4
#     Node 27, Type 0, BuildingBlock: TATPOV_clean_sbu_0, # of connection points: 4
#     Node 28, Type 0, BuildingBlock: TATPOV_clean_sbu_0, # of connection points: 4
#     Node 29, Type 0, BuildingBlock: TATPOV_clean_sbu_0, # of connection points: 4
#     Node 30, Type 0, BuildingBlock: TATPOV_clean_sbu_0, # of connection points: 4
#     Node 31, Type 0, BuildingBlock: TATPOV_clean_sbu_0, # of connection points: 4
#     Node 32, Type 0, BuildingBlock: TATPOV_clean_sbu_0, # of connection points: 4
#     Node 33, Type 0, BuildingBlock: TATPOV_clean_sbu_0, # of connection points: 4
#     Node 34, Type 0, BuildingBlock: TATPOV_clean_sbu_0, # of connection points: 4
#     Node 35, Type 0, BuildingBlock: TATPOV_clean_sbu_0, # of connection points: 4
#     Edge 36, Type (0, 0), BuildingBlock: UVAHIK_clean_linker_0, # of connection points: 2
#     Edge 37, Type (0, 0), BuildingBlock: UVAHIK_clean_linker_0, # of connection points: 2
#     Edge 38, Type (0, 0), BuildingBlock: UVAHIK_clean_linker_0, # of connection points: 2
#     Edge 39, Type (0, 0), BuildingBlock: UVAHIK_clean_linker_0, # of connection points: 2
#     Edge 40, Type (0, 0), BuildingBlock: UVAHIK_clean_linker_0, # of connection points: 2
#     Edge 41, Type (0, 0), BuildingBlock: UVAHIK_clean_linker_0, # of connection points: 2
#     Edge 42, Type (0, 0), BuildingBlock: UVAHIK_clean_linker_0, # of connection points: 2
#     Edge 43, Type (0, 0), BuildingBlock: UVAHIK_clean_linker_0, # of connection points: 2
#     Edge 44, Type (0, 0), BuildingBlock: UVAHIK_clean_linker_0, # of connection points: 2
#     Edge 45, Type (0, 0), BuildingBlock: UVAHIK_clean_linker_0, # of connection points: 2
#     Edge 46, Type (0, 0), BuildingBlock: UVAHIK_clean_linker_0, # of connection points: 2
#     Edge 47, Type (0, 0), BuildingBlock: UVAHIK_clean_linker_0, # of connection points: 2
#     Edge 48, Type (0, 0), BuildingBlock: UVAHIK_clean_linker_0, # of connection points: 2
#     Edge 49, Type (0, 0), BuildingBlock: UVAHIK_clean_linker_0, # of connection points: 2
#     Edge 50, Type (0, 0), BuildingBlock: UVAHIK_clean_linker_0, # of connection points: 2
#     Edge 51, Type (0, 0), BuildingBlock: UVAHIK_clean_linker_0, # of connection points: 2
#     Edge 52, Type (0, 0), BuildingBlock: UVAHIK_clean_linker_0, # of connection points: 2
#     Edge 53, Type (0, 0), BuildingBlock: UVAHIK_clean_linker_0, # of connection points: 2
#     Edge 54, Type (0, 0), BuildingBlock: UVAHIK_clean_linker_0, # of connection points: 2
#     Edge 55, Type (0, 0), BuildingBlock: UVAHIK_clean_linker_0, # of connection points: 2
#     Edge 56, Type (0, 0), BuildingBlock: UVAHIK_clean_linker_0, # of connection points: 2
#     Edge 57, Type (0, 0), BuildingBlock: UVAHIK_clean_linker_0, # of connection points: 2
#     Edge 58, Type (0, 0), BuildingBlock: UVAHIK_clean_linker_0, # of connection points: 2
#     Edge 59, Type (0, 0), BuildingBlock: UVAHIK_clean_linker_0, # of connection points: 2
#     Edge 60, Type (0, 0), BuildingBlock: UVAHIK_clean_linker_0, # of connection points: 2
#     Edge 61, Type (0, 0), BuildingBlock: UVAHIK_clean_linker_0, # of connection points: 2
#     Edge 62, Type (0, 0), BuildingBlock: UVAHIK_clean_linker_0, # of connection points: 2
#     Edge 63, Type (0, 0), BuildingBlock: UVAHIK_clean_linker_0, # of connection points: 2
#     Edge 64, Type (0, 0), BuildingBlock: UVAHIK_clean_linker_0, # of connection points: 2
#     Edge 65, Type (0, 0), BuildingBlock: UVAHIK_clean_linker_0, # of connection points: 2
#     Edge 66, Type (0, 0), BuildingBlock: UVAHIK_clean_linker_0, # of connection points: 2
#     Edge 67, Type (0, 0), BuildingBlock: UVAHIK_clean_linker_0, # of connection points: 2
#     Edge 68, Type (0, 0), BuildingBlock: UVAHIK_clean_linker_0, # of connection points: 2
#     Edge 69, Type (0, 0), BuildingBlock: UVAHIK_clean_linker_0, # of connection points: 2
#     Edge 70, Type (0, 0), BuildingBlock: UVAHIK_clean_linker_0, # of connection points: 2
#     Edge 71, Type (0, 0), BuildingBlock: UVAHIK_clean_linker_0, # of connection points: 2
#     Edge 72, Type (0, 0), BuildingBlock: UVAHIK_clean_linker_0, # of connection points: 2
#     Edge 73, Type (0, 0), BuildingBlock: UVAHIK_clean_linker_0, # of connection points: 2
#     Edge 74, Type (0, 0), BuildingBlock: UVAHIK_clean_linker_0, # of connection points: 2
#     Edge 75, Type (0, 0), BuildingBlock: UVAHIK_clean_linker_0, # of connection points: 2
#     Edge 76, Type (0, 0), BuildingBlock: UVAHIK_clean_linker_0, # of connection points: 2
#     Edge 77, Type (0, 0), BuildingBlock: UVAHIK_clean_linker_0, # of connection points: 2
#     Edge 78, Type (0, 0), BuildingBlock: UVAHIK_clean_linker_0, # of connection points: 2
#     Edge 79, Type (0, 0), BuildingBlock: UVAHIK_clean_linker_0, # of connection points: 2
#     Edge 80, Type (0, 0), BuildingBlock: UVAHIK_clean_linker_0, # of connection points: 2
#     Edge 81, Type (0, 0), BuildingBlock: UVAHIK_clean_linker_0, # of connection points: 2
#     Edge 82, Type (0, 0), BuildingBlock: UVAHIK_clean_linker_0, # of connection points: 2
#     Edge 83, Type (0, 0), BuildingBlock: UVAHIK_clean_linker_0, # of connection points: 2
#     Edge 84, Type (0, 0), BuildingBlock: UVAHIK_clean_linker_0, # of connection points: 2
#     Edge 85, Type (0, 0), BuildingBlock: UVAHIK_clean_linker_0, # of connection points: 2
#     Edge 86, Type (0, 0), BuildingBlock: UVAHIK_clean_linker_0, # of connection points: 2
#     Edge 87, Type (0, 0), BuildingBlock: UVAHIK_clean_linker_0, # of connection points: 2
#     Edge 88, Type (0, 0), BuildingBlock: UVAHIK_clean_linker_0, # of connection points: 2
#     Edge 89, Type (0, 0), BuildingBlock: UVAHIK_clean_linker_0, # of connection points: 2
#     Edge 90, Type (0, 0), BuildingBlock: UVAHIK_clean_linker_0, # of connection points: 2
#     Edge 91, Type (0, 0), BuildingBlock: UVAHIK_clean_linker_0, # of connection points: 2
#     Edge 92, Type (0, 0), BuildingBlock: UVAHIK_clean_linker_0, # of connection points: 2
#     Edge 93, Type (0, 0), BuildingBlock: UVAHIK_clean_linker_0, # of connection points: 2
#     Edge 94, Type (0, 0), BuildingBlock: UVAHIK_clean_linker_0, # of connection points: 2
#     Edge 95, Type (0, 0), BuildingBlock: UVAHIK_clean_linker_0, # of connection points: 2
#     Edge 96, Type (0, 0), BuildingBlock: UVAHIK_clean_linker_0, # of connection points: 2
#     Edge 97, Type (0, 0), BuildingBlock: UVAHIK_clean_linker_0, # of connection points: 2
#     Edge 98, Type (0, 0), BuildingBlock: UVAHIK_clean_linker_0, # of connection points: 2
#     Edge 99, Type (0, 0), BuildingBlock: UVAHIK_clean_linker_0, # of connection points: 2
#     Edge 100, Type (0, 0), BuildingBlock: UVAHIK_clean_linker_0, # of connection points: 2
#     Edge 101, Type (0, 0), BuildingBlock: UVAHIK_clean_linker_0, # of connection points: 2
#     Edge 102, Type (0, 0), BuildingBlock: UVAHIK_clean_linker_0, # of connection points: 2
#     Edge 103, Type (0, 0), BuildingBlock: UVAHIK_clean_linker_0, # of connection points: 2
#     Edge 104, Type (0, 0), BuildingBlock: UVAHIK_clean_linker_0, # of connection points: 2
#     Edge 105, Type (0, 0), BuildingBlock: UVAHIK_clean_linker_0, # of connection points: 2
#     Edge 106, Type (0, 0), BuildingBlock: UVAHIK_clean_linker_0, # of connection points: 2
#     Edge 107, Type (0, 0), BuildingBlock: UVAHIK_clean_linker_0, # of connection points: 2
# Relax obj value: 0.122
# Max RMSD: 0.106
# Mean RMSD: 0.106
data_MOF--net-ums--node1-TATPOV_clean_sbu_0--edge1-UVAHIK_clean_linker_0
_symmetry_space_group_name_H-M    P1
_symmetry_Int_Tables_number       1
_symmetry_cell_setting            triclinic
loop_
_symmetry_equiv_pos_as_xyz
'x, y, z'
_cell_length_a     130.42314
_cell_length_b     130.4729
_cell_length_c     30.351357
_cell_angle_alpha  90.012561
_cell_angle_beta   90.023078
_cell_angle_gamma 119.9974
loop_
_atom_site_label
_atom_site_type_symbol
_atom_site_fract_x
_atom_site_fract_y
_atom_site_fract_z
_atom_type_partial_charge
Zn0 Zn 0.14546 0.2567 0.20825 0.0
Zn1 Zn 0.15995 0.2486 0.1935 0.0
O2 O 0.17012 0.26613 0.17423 0.0
O3 O 0.15764 0.27261 0.18475 0.0
O4 O 0.17103 0.24208 0.18837 0.0
O5 O 0.14388 0.25285 0.27183 0.0
O6 O 0.15558 0.24547 0.25993 0.0
C7 C 0.16767 0.27444 0.17211 0.0
C8 C 0.13605 0.23779 0.14605 0.0
O9 O 0.14616 0.23858 0.14999 0.0
O10 O 0.13353 0.24442 0.16834 0.0
C11 C 0.16692 0.23097 0.19064 0.0
O12 O 0.1554 0.22391 0.19309 0.0
C13 C 0.14916 0.24759 0.28574 0.0
Zn14 Zn 0.75117 0.89799 0.11162 0.0
Zn15 Zn 0.76015 0.91975 0.1422 0.0
O16 O 0.74383 0.91629 0.1183 0.0
O17 O 0.73696 0.89856 0.08943 0.0
O18 O 0.76751 0.93623 0.16709 0.0
O19 O 0.75153 0.89159 0.17061 0.0
O20 O 0.75963 0.90979 0.19626 0.0
C21 C 0.7358 0.90746 0.09718 0.0
C22 C 0.77305 0.91392 0.07084 0.0
O23 O 0.7722 0.92166 0.09367 0.0
O24 O 0.76523 0.90311 0.07329 0.0
C25 C 0.76166 0.94042 0.18568 0.0
O26 O 0.75011 0.93381 0.18916 0.0
C27 C 0.75602 0.89883 0.20214 0.0
Zn28 Zn 0.10467 0.8517 0.11999 0.0
Zn29 Zn 0.08258 0.83716 0.14322 0.0
O30 O 0.08737 0.82624 0.11059 0.0
O31 O 0.10525 0.83871 0.08634 0.0
O32 O 0.06588 0.82577 0.16213 0.0
O33 O 0.10991 0.85523 0.18249 0.0
O34 O 0.09125 0.84424 0.20218 0.0
C35 C 0.09655 0.82827 0.08877 0.0
C36 C 0.08871 0.85891 0.08731 0.0
O37 O 0.0808 0.84908 0.10329 0.0
O38 O 0.09956 0.86214 0.09105 0.0
C39 C 0.05963 0.82914 0.1829 0.0
O40 O 0.06417 0.84041 0.19243 0.0
C41 C 0.10208 0.85117 0.21222 0.0
Zn42 Zn 0.26778 0.16387 0.34914 0.0
Zn43 Zn 0.25235 0.17041 0.33301 0.0
O44 O 0.26903 0.18564 0.32892 0.0
O45 O 0.28165 0.17915 0.33054 0.0
O46 O 0.2411 0.17617 0.3156 0.0
O47 O 0.26016 0.15029 0.3075 0.0
O48 O 0.24795 0.15658 0.28913 0.0
C49 C 0.27964 0.18763 0.3268 0.0
C50 C 0.25328 0.16158 0.4241 0.0
O51 O 0.24767 0.16432 0.39651 0.0
O52 O 0.26255 0.16148 0.4125 0.0
C53 C 0.24351 0.18677 0.32226 0.0
O54 O 0.25342 0.19416 0.34239 0.0
C55 C 0.25161 0.14922 0.28446 0.0
Zn56 Zn 0.83322 0.10991 0.25842 0.0
Zn57 Zn 0.82324 0.08694 0.27839 0.0
O58 O 0.80913 0.0896 0.26768 0.0
O59 O 0.81716 0.10828 0.24829 0.0
O60 O 0.81525 0.06935 0.28779 0.0
O61 O 0.84282 0.10825 0.21038 0.0
O62 O 0.83481 0.08942 0.22773 0.0
C63 C 0.80802 0.09839 0.25615 0.0
C64 C 0.83867 0.10526 0.34635 0.0
O65 O 0.83202 0.09442 0.33599 0.0
O66 O 0.84042 0.11338 0.31932 0.0
C67 C 0.82131 0.06419 0.28985 0.0
O68 O 0.83292 0.07059 0.28841 0.0
C69 C 0.84209 0.09829 0.20496 0.0
Zn70 Zn 0.88968 0.72605 0.20638 0.0
Zn71 Zn 0.91142 0.73957 0.23943 0.0
O72 O 0.90825 0.72237 0.24397 0.0
O73 O 0.89089 0.71136 0.21255 0.0
O74 O 0.92865 0.74963 0.2561 0.0
O75 O 0.89392 0.73491 0.1494 0.0
O76 O 0.9112 0.747 0.17943 0.0
C77 C 0.89992 0.71225 0.23172 0.0
C78 C 0.89087 0.73867 0.28805 0.0
O79 O 0.90195 0.74246 0.2861 0.0
O80 O 0.884 0.7319 0.25821 0.0
C81 C 0.93586 0.74676 0.23992 0.0
O82 O 0.93169 0.73717 0.21554 0.0
C83 C 0.90395 0.74419 0.14745 0.0
Zn84 Zn 0.84337 0.73485 0.79668 0.0
Zn85 Zn 0.831 0.74534 0.77961 0.0
O86 O 0.81896 0.73029 0.81338 0.0
O87 O 0.82998 0.72267 0.83339 0.0
O88 O 0.82142 0.75295 0.76272 0.0
O89 O 0.84523 0.73242 0.73282 0.0
O90 O 0.83652 0.74279 0.71879 0.0
C91 C 0.82018 0.72247 0.8341 0.0
C92 C 0.85411 0.75838 0.83136 0.0
O93 O 0.8446 0.75793 0.81836 0.0
O94 O 0.85584 0.7498 0.82463 0.0
C95 C 0.81896 0.75883 0.7898 0.0
O96 O 0.82274 0.76002 0.83064 0.0
C97 C 0.84188 0.73745 0.70542 0.0
Zn98 Zn 0.26109 0.10289 0.86861 0.0
Zn99 Zn 0.24888 0.08168 0.84057 0.0
O100 O 0.2663 0.08502 0.8396 0.0
O101 O 0.27627 0.10437 0.84726 0.0
O102 O 0.23923 0.06487 0.81881 0.0
O103 O 0.25203 0.10818 0.83058 0.0
O104 O 0.24477 0.09112 0.7961 0.0
C105 C 0.27612 0.09476 0.8398 0.0
C106 C 0.24628 0.08786 0.93509 0.0
O107 O 0.24184 0.0809 0.90234 0.0
O108 O 0.25568 0.09771 0.93058 0.0
C109 C 0.24296 0.06059 0.78941 0.0
O110 O 0.25352 0.0673 0.77232 0.0
C111 C 0.246 0.10143 0.79935 0.0
Zn112 Zn 0.89404 0.14785 0.86076 0.0
Zn113 Zn 0.91579 0.15841 0.82947 0.0
O114 O 0.91495 0.17234 0.85881 0.0
O115 O 0.89744 0.16297 0.89068 0.0
O116 O 0.93239 0.16586 0.80564 0.0
O117 O 0.88719 0.14368 0.80031 0.0
O118 O 0.9053 0.15141 0.77402 0.0
C119 C 0.90706 0.17244 0.88331 0.0
C120 C 0.907 0.13737 0.89316 0.0
O121 O 0.9155 0.14591 0.87268 0.0
O122 O 0.89672 0.13603 0.89231 0.0
C123 C 0.93696 0.17488 0.78065 0.0
O124 O 0.93066 0.17979 0.76936 0.0
C125 C 0.89412 0.14589 0.76804 0.0
Zn126 Zn 0.72457 0.83546 0.6967 0.0
Zn127 Zn 0.73847 0.82622 0.68803 0.0
O128 O 0.72147 0.81181 0.68786 0.0
O129 O 0.70996 0.81936 0.69983 0.0
O130 O 0.74879 0.81889 0.69215 0.0
O131 O 0.73298 0.84494 0.75005 0.0
O132 O 0.74508 0.83803 0.73982 0.0
C133 C 0.71115 0.81044 0.69294 0.0
C134 C 0.73864 0.84188 0.61562 0.0
O135 O 0.74243 0.83519 0.62979 0.0
O136 O 0.73113 0.84321 0.63767 0.0
C137 C 0.74946 0.81195 0.66449 0.0
O138 O 0.74309 0.80913 0.62829 0.0
C139 C 0.74232 0.84483 0.7603 0.0
Zn140 Zn 0.16038 0.89033 0.72286 0.0
Zn141 Zn 0.16893 0.91283 0.70039 0.0
O142 O 0.18345 0.91052 0.70592 0.0
O143 O 0.17663 0.89235 0.72973 0.0
O144 O 0.17672 0.93045 0.69046 0.0
O145 O 0.1512 0.89155 0.77309 0.0
O146 O 0.15789 0.91006 0.75362 0.0
C147 C 0.18526 0.9022 0.71786 0.0
C148 C 0.15293 0.89384 0.63633 0.0
O149 O 0.15927 0.90485 0.64491 0.0
O150 O 0.15219 0.88616 0.66367 0.0
C151 C 0.17162 0.93635 0.69927 0.0
O152 O 0.16055 0.93073 0.71255 0.0
C153 C 0.15133 0.90124 0.77804 0.0
Zn154 Zn 0.10387 0.27275 0.73289 0.0
Zn155 Zn 0.08298 0.25643 0.69998 0.0
O156 O 0.0847 0.27246 0.68172 0.0
O157 O 0.1017 0.28599 0.70959 0.0
O158 O 0.06615 0.24488 0.68277 0.0
O159 O 0.09918 0.26664 0.79469 0.0
O160 O 0.08303 0.25216 0.76513 0.0
C161 C 0.09247 0.28331 0.6874 0.0
C162 C 0.10486 0.25668 0.66724 0.0
O163 O 0.09369 0.25232 0.66446 0.0
O164 O 0.11091 0.26516 0.69358 0.0
C165 C 0.06135 0.23404 0.69351 0.0
O166 O 0.06785 0.23018 0.71239 0.0
C167 C 0.08967 0.25685 0.79849 0.0
Zn168 Zn 0.82205 0.60149 0.54717 0.0
Zn169 Zn 0.8333 0.58974 0.54142 0.0
O170 O 0.84408 0.60494 0.50574 0.0
O171 O 0.83353 0.61382 0.50545 0.0
O172 O 0.84285 0.58152 0.54473 0.0
O173 O 0.82431 0.60398 0.61199 0.0
O174 O 0.83082 0.59138 0.60801 0.0
C175 C 0.84261 0.61345 0.49321 0.0
C176 C 0.80817 0.57845 0.50752 0.0
O177 O 0.81791 0.57839 0.5084 0.0
O178 O 0.80749 0.58698 0.52431 0.0
C179 C 0.84221 0.57343 0.51962 0.0
O180 O 0.83472 0.56971 0.48649 0.0
C181 C 0.82771 0.59756 0.6309 0.0
Zn182 Zn 0.39336 0.22881 0.5399 0.0
Zn183 Zn 0.40913 0.25045 0.51003 0.0
O184 O 0.39285 0.24947 0.50377 0.0
O185 O 0.37988 0.23183 0.52864 0.0
O186 O 0.42111 0.2675 0.49636 0.0
O187 O 0.40115 0.23202 0.59925 0.0
O188 O 0.4151 0.24874 0.57102 0.0
C189 C 0.38217 0.24164 0.51196 0.0
C190 C 0.40687 0.22916 0.46209 0.0
O191 O 0.41137 0.24036 0.46394 0.0
O192 O 0.39937 0.22255 0.49068 0.0
C193 C 0.41857 0.27495 0.48016 0.0
O194 O 0.40766 0.27138 0.46766 0.0
C195 C 0.41111 0.24135 0.60265 0.0
Zn196 Zn 0.77395 0.1651 0.52534 0.0
Zn197 Zn 0.75246 0.16169 0.52421 0.0
O198 O 0.75099 0.14668 0.49339 0.0
O199 O 0.76909 0.14955 0.49746 0.0
O200 O 0.73551 0.15781 0.53074 0.0
O201 O 0.77564 0.16669 0.59019 0.0
O202 O 0.75814 0.16529 0.58945 0.0
C203 C 0.75839 0.1432 0.48602 0.0
C204 C 0.77156 0.18293 0.47617 0.0
O205 O 0.7606 0.1767 0.48574 0.0
O206 O 0.77879 0.17975 0.48911 0.0
C207 C 0.72734 0.15192 0.50298 0.0
O208 O 0.72996 0.14847 0.46608 0.0
C209 C 0.76731 0.16693 0.6105 0.0
Zn210 Zn 0.92803 0.48967 0.66699 0.0
Zn211 Zn 0.91659 0.50015 0.64457 0.0
O212 O 0.93426 0.51356 0.64452 0.0
O213 O 0.94355 0.50341 0.64832 0.0
O214 O 0.90789 0.50843 0.62494 0.0
O215 O 0.91855 0.47615 0.6259 0.0
O216 O 0.91157 0.48698 0.59787 0.0
C217 C 0.94385 0.51319 0.64369 0.0
C218 C 0.91362 0.48989 0.73624 0.0
O219 O 0.9095 0.49351 0.70576 0.0
O220 O 0.92246 0.4886 0.72917 0.0
C221 C 0.90913 0.51752 0.64509 0.0
O222 O 0.91623 0.52152 0.67935 0.0
C223 C 0.91241 0.47766 0.59718 0.0
Zn224 Zn 0.51875 0.44086 0.65855 0.0
Zn225 Zn 0.50456 0.41865 0.63638 0.0
O226 O 0.49317 0.42313 0.66715 0.0
O227 O 0.50549 0.44107 0.69156 0.0
O228 O 0.49375 0.40197 0.61553 0.0
O229 O 0.52243 0.44615 0.59619 0.0
O230 O 0.51205 0.42733 0.57798 0.0
C231 C 0.49509 0.4323 0.6888 0.0
C232 C 0.52616 0.42531 0.69387 0.0
O233 O 0.51632 0.41722 0.67854 0.0
O234 O 0.52936 0.4361 0.68839 0.0
C235 C 0.49785 0.3953 0.60471 0.0
O236 O 0.50928 0.39932 0.60822 0.0
C237 C 0.51874 0.43814 0.56717 0.0
Zn238 Zn 0.5574 0.07168 0.63221 0.0
Zn239 Zn 0.57989 0.08426 0.62126 0.0
O240 O 0.57823 0.06981 0.65609 0.0
O241 O 0.55948 0.06122 0.67551 0.0
O242 O 0.5973 0.09356 0.60699 0.0
O243 O 0.55397 0.0672 0.56877 0.0
O244 O 0.5725 0.08101 0.55868 0.0
C245 C 0.56948 0.06188 0.67774 0.0
C246 C 0.56667 0.09505 0.66562 0.0
O247 O 0.57655 0.09551 0.65919 0.0
O248 O 0.55711 0.08608 0.65354 0.0
C249 C 0.60535 0.10019 0.63404 0.0
O250 O 0.6024 0.10129 0.67442 0.0
C251 C 0.56235 0.07368 0.54301 0.0
Zn252 Zn 0.49528 0.05467 0.05378 0.0
Zn253 Zn 0.48829 0.06911 0.08655 0.0
O254 O 0.47376 0.05228 0.09291 0.0
O255 O 0.47928 0.04037 0.06384 0.0
O256 O 0.48151 0.07952 0.10284 0.0
O257 O 0.49956 0.06292 0.99531 0.0
O258 O 0.49542 0.07577 0.02526 0.0
C259 C 0.47148 0.04186 0.08279 0.0
C260 C 0.50808 0.06792 0.1328 0.0
O261 O 0.50109 0.07209 0.13187 0.0
O262 O 0.5074 0.06069 0.10339 0.0
C263 C 0.48726 0.09057 0.09506 0.0
O264 O 0.49816 0.09532 0.08022 0.0
C265 C 0.49929 0.07245 0.99295 0.0
Zn266 Zn 0.93788 0.43859 0.15335 0.0
Zn267 Zn 0.92337 0.41593 0.14336 0.0
O268 O 0.93981 0.41735 0.15478 0.0
O269 O 0.95194 0.43653 0.16062 0.0
O270 O 0.91274 0.39865 0.1298 0.0
O271 O 0.9341 0.44283 0.0954 0.0
O272 O 0.92057 0.42405 0.08931 0.0
C273 C 0.95022 0.4261 0.16066 0.0
C274 C 0.9191 0.42842 0.21838 0.0
O275 O 0.91623 0.41869 0.19908 0.0
O276 O 0.92789 0.43799 0.20509 0.0
C277 C 0.91597 0.39352 0.10202 0.0
O278 O 0.92637 0.39961 0.083 0.0
C279 C 0.92547 0.43464 0.07482 0.0
Zn280 Zn 0.558 0.49725 0.06536 0.0
Zn281 Zn 0.58064 0.50619 0.08505 0.0
O282 O 0.57758 0.52029 0.0876 0.0
O283 O 0.55898 0.51311 0.06841 0.0
O284 O 0.59836 0.51429 0.09268 0.0
O285 O 0.55934 0.4901 0.00916 0.0
O286 O 0.57777 0.49628 0.02837 0.0
C287 C 0.56875 0.52177 0.08072 0.0
C288 C 0.56254 0.48814 0.14641 0.0
O289 O 0.57342 0.49538 0.13844 0.0
O290 O 0.55455 0.48733 0.12046 0.0
C291 C 0.60447 0.50961 0.08101 0.0
O292 O 0.59906 0.49877 0.06541 0.0
C293 C 0.56906 0.49041 0.00247 0.0
Zn294 Zn 0.40383 0.1779 0.96667 0.0
Zn295 Zn 0.41534 0.16642 0.98065 0.0
O296 O 0.39949 0.15339 0.9535 0.0
O297 O 0.39073 0.16361 0.93703 0.0
O298 O 0.42444 0.15804 0.99346 0.0
O299 O 0.40354 0.18111 0.03072 0.0
O300 O 0.41419 0.17257 0.04238 0.0
C301 C 0.39083 0.15396 0.93656 0.0
C302 C 0.42601 0.18865 0.9227 0.0
O303 O 0.42645 0.17971 0.93728 0.0
O304 O 0.41732 0.19004 0.93151 0.0
C305 C 0.4201 0.14875 0.01708 0.0
O306 O 0.4093 0.14436 0.03253 0.0
C307 C 0.40921 0.17819 0.05676 0.0
Zn308 Zn 0.83542 0.224 0.07972 0.0
Zn309 Zn 0.84396 0.24574 0.04739 0.0
O310 O 0.85798 0.24253 0.0415 0.0
O311 O 0.85089 0.22463 0.06899 0.0
O312 O 0.85125 0.26286 0.02976 0.0
O313 O 0.83221 0.22868 0.13861 0.0
O314 O 0.83739 0.24602 0.10917 0.0
C315 C 0.85931 0.23377 0.05149 0.0
C316 C 0.82293 0.22543 0.00224 0.0
O317 O 0.83074 0.23639 0.00292 0.0
O318 O 0.82297 0.21851 0.03147 0.0
C319 C 0.84553 0.26826 0.0359 0.0
O320 O 0.83458 0.26228 0.05031 0.0
C321 C 0.83338 0.23887 0.14152 0.0
Zn322 Zn 0.77625 0.60798 0.10571 0.0
Zn323 Zn 0.75529 0.59351 0.07038 0.0
O324 O 0.75794 0.61037 0.05882 0.0
O325 O 0.77518 0.62229 0.08938 0.0
O326 O 0.73827 0.58286 0.05236 0.0
O327 O 0.77129 0.60084 0.16561 0.0
O328 O 0.7547 0.58762 0.13412 0.0
C329 C 0.76618 0.62081 0.0682 0.0
C330 C 0.7767 0.59359 0.03257 0.0
O331 O 0.76561 0.58979 0.03009 0.0
O332 O 0.78289 0.60102 0.06206 0.0
C333 C 0.73104 0.5853 0.07118 0.0
O334 O 0.73525 0.59451 0.09759 0.0
C335 C 0.76136 0.59144 0.16791 0.0
Zn336 Zn 0.49908 0.94367 0.92242 0.0
Zn337 Zn 0.50869 0.93108 0.89155 0.0
O338 O 0.52217 0.94858 0.88765 0.0
O339 O 0.51435 0.95889 0.91349 0.0
O340 O 0.51631 0.92132 0.87576 0.0
O341 O 0.49535 0.93535 0.98072 0.0
O342 O 0.50124 0.92371 0.95164 0.0
C343 C 0.52309 0.95853 0.89716 0.0
C344 C 0.48792 0.92994 0.84286 0.0
O345 O 0.49602 0.92721 0.84489 0.0
O346 O 0.48722 0.93652 0.87211 0.0
C347 C 0.52746 0.92553 0.87435 0.0
O348 O 0.53454 0.93693 0.88026 0.0
C349 C 0.49662 0.92638 0.98338 0.0
Zn350 Zn 0.07003 0.55808 0.81525 0.0
Zn351 Zn 0.07972 0.58053 0.8329 0.0
O352 O 0.06438 0.57699 0.79959 0.0
O353 O 0.05748 0.55855 0.77849 0.0
O354 O 0.08673 0.5976 0.85058 0.0
O355 O 0.06742 0.55329 0.87827 0.0
O356 O 0.07751 0.57232 0.89346 0.0
C357 C 0.05677 0.56788 0.77853 0.0
C358 C 0.09355 0.57137 0.78138 0.0
O359 O 0.09265 0.58022 0.7939 0.0
O360 O 0.08517 0.56096 0.78828 0.0
C361 C 0.09283 0.60621 0.82477 0.0
O362 O 0.09472 0.60403 0.78421 0.0
C363 C 0.07235 0.56156 0.90613 0.0
Zn364 Zn 0.44054 0.50806 0.88031 0.0
Zn365 Zn 0.41737 0.49422 0.87188 0.0
O366 O 0.42378 0.48287 0.85855 0.0
O367 O 0.44292 0.49418 0.87011 0.0
O368 O 0.39972 0.48339 0.87336 0.0
O369 O 0.43925 0.51316 0.94057 0.0
O370 O 0.42 0.50115 0.93513 0.0
C371 C 0.43415 0.4842 0.86024 0.0
C372 C 0.43048 0.51557 0.81184 0.0
O373 O 0.42068 0.50654 0.82272 0.0
O374 O 0.44002 0.51784 0.83086 0.0
C375 C 0.39237 0.4802 0.84175 0.0
O376 O 0.39617 0.48407 0.80174 0.0
C377 C 0.42899 0.50867 0.95691 0.0
Zn378 Zn 0.60183 0.83046 0.00347 0.0
Zn379 Zn 0.59218 0.84287 0.98323 0.0
O380 O 0.60994 0.85534 0.99308 0.0
O381 O 0.61819 0.84421 -0.00445 0.0
O382 O 0.58519 0.85303 0.96687 0.0
O383 O 0.5935 0.81933 0.95317 0.0
O384 O 0.58845 0.83209 0.92885 0.0
C385 C 0.61917 0.85435 0.9946 0.0
C386 C 0.58515 0.82824 0.06744 0.0
O387 O 0.5826 0.83354 0.03795 0.0
O388 O 0.59402 0.82685 0.06277 0.0
C389 C 0.57431 0.84859 0.95706 0.0
O390 O 0.56736 0.83705 0.95845 0.0
C391 C 0.58883 0.82258 0.92384 0.0
Zn392 Zn 0.17331 0.7723 0.01863 0.0
Zn393 Zn 0.1624 0.75067 0.99152 0.0
O394 O 0.15 0.75619 0.98513 0.0
O395 O 0.16096 0.77546 0.99367 0.0
O396 O 0.15385 0.73403 0.96798 0.0
O397 O 0.18787 0.77602 0.98404 0.0
O398 O 0.17726 0.75869 0.95214 0.0
C399 C 0.1511 0.76647 0.98449 0.0
C400 C 0.16967 0.75604 0.08717 0.0
O401 O 0.16666 0.7488 0.05516 0.0
O402 O 0.17187 0.76654 0.08088 0.0
C403 C 0.14559 0.72558 0.9895 0.0
O404 O 0.1425 0.72779 0.028 0.0
C405 C 0.18691 0.76852 0.95553 0.0
Zn406 Zn 0.22458 0.4111 0.98557 0.0
Zn407 Zn 0.24609 0.41528 0.96614 0.0
O408 O 0.23801 0.39784 0.98751 0.0
O409 O 0.22017 0.39458 0.00362 0.0
O410 O 0.26233 0.41907 0.94634 0.0
O411 O 0.22142 0.41446 0.92492 0.0
O412 O 0.23936 0.41809 0.9084 0.0
C413 C 0.22751 0.39093 0.00128 0.0
C414 C 0.24259 0.43027 0.03521 0.0
O415 O 0.24955 0.42759 0.01546 0.0
O416 O 0.23157 0.42453 0.02801 0.0
C417 C 0.2705 0.4205 0.97273 0.0
O418 O 0.26827 0.41904 0.01519 0.0
C419 C 0.22967 0.41754 0.89718 0.0
Zn420 Zn 0.16752 0.39067 0.405 0.0
Zn421 Zn 0.15925 0.40487 0.4206 0.0
O422 O 0.14498 0.38782 0.42548 0.0
O423 O 0.15176 0.37585 0.40995 0.0
O424 O 0.15112 0.4145 0.42209 0.0
O425 O 0.17465 0.39803 0.34725 0.0
O426 O 0.16965 0.41127 0.36483 0.0
C427 C 0.14324 0.37735 0.42084 0.0
C428 C 0.1772 0.40573 0.4834 0.0
O429 O 0.16997 0.40933 0.47453 0.0
O430 O 0.17768 0.39806 0.45915 0.0
C431 C 0.1564 0.42574 0.42124 0.0
O432 O 0.16803 0.4318 0.42214 0.0
C433 C 0.17511 0.40778 0.33964 0.0
Zn434 Zn 0.59887 0.77136 0.44683 0.0
Zn435 Zn 0.58346 0.74896 0.46242 0.0
O436 O 0.59994 0.75048 0.47255 0.0
O437 O 0.61275 0.7691 0.45779 0.0
O438 O 0.57236 0.73134 0.46378 0.0
O439 O 0.59313 0.77103 0.38547 0.0
O440 O 0.57869 0.7533 0.4032 0.0
C441 C 0.61062 0.75893 0.46972 0.0
C442 C 0.58301 0.76691 0.52232 0.0
O443 O 0.57909 0.756 0.51398 0.0
O444 O 0.591 0.77483 0.49826 0.0
C445 C 0.57431 0.7256 0.43426 0.0
O446 O 0.58332 0.73142 0.40746 0.0
C447 C 0.58336 0.76195 0.37635 0.0
Zn448 Zn 0.2236 0.82167 0.53433 0.0
Zn449 Zn 0.24577 0.83115 0.50966 0.0
O450 O 0.24367 0.84561 0.52381 0.0
O451 O 0.22492 0.83744 0.54301 0.0
O452 O 0.26236 0.83877 0.48579 0.0
O453 O 0.21733 0.81303 0.47834 0.0
O454 O 0.23584 0.81948 0.45938 0.0
C455 C 0.23486 0.84658 0.53636 0.0
C456 C 0.23767 0.81522 0.58918 0.0
O457 O 0.24625 0.82234 0.56492 0.0
O458 O 0.22732 0.81343 0.58247 0.0
C459 C 0.27116 0.84541 0.51005 0.0
O460 O 0.26929 0.84715 0.5512 0.0
C461 C 0.22477 0.81311 0.45155 0.0
Zn462 Zn 0.05894 0.49913 0.40052 0.0
Zn463 Zn 0.07503 0.49369 0.37481 0.0
O464 O 0.05901 0.47789 0.37331 0.0
O465 O 0.04569 0.48233 0.39576 0.0
O466 O 0.08714 0.48864 0.36413 0.0
O467 O 0.06714 0.50595 0.45759 0.0
O468 O 0.08147 0.50338 0.43224 0.0
C469 C 0.04826 0.47475 0.38186 0.0
C470 C 0.07135 0.51062 0.3191 0.0
O471 O 0.07641 0.50449 0.32373 0.0
O472 O 0.06388 0.50999 0.34728 0.0
C473 C 0.08487 0.47932 0.34302 0.0
O474 O 0.07447 0.47305 0.32421 0.0
C475 C 0.07747 0.50747 0.46147 0.0
Zn476 Zn 0.49943 0.55626 0.39726 0.0
Zn477 Zn 0.50437 0.57778 0.37172 0.0
O478 O 0.5186 0.57624 0.35008 0.0
O479 O 0.51463 0.55853 0.37143 0.0
O480 O 0.50978 0.59497 0.36056 0.0
O481 O 0.49822 0.55947 0.46112 0.0
O482 O 0.49975 0.57608 0.43731 0.0
C483 C 0.52138 0.56817 0.35192 0.0
C484 C 0.48253 0.55701 0.33496 0.0
O485 O 0.48965 0.56814 0.33434 0.0
O486 O 0.48467 0.55035 0.35902 0.0
C487 C 0.50432 0.5998 0.37743 0.0
O488 O 0.49448 0.59322 0.39937 0.0
C489 C 0.49779 0.56879 0.46843 0.0
Zn490 Zn 0.43953 0.92923 0.34328 0.0
Zn491 Zn 0.41642 0.91677 0.35717 0.0
O492 O 0.41888 0.93249 0.33047 0.0
O493 O 0.43828 0.94339 0.32591 0.0
O494 O 0.39911 0.90802 0.37255 0.0
O495 O 0.44318 0.92706 0.40522 0.0
O496 O 0.42401 0.91771 0.41812 0.0
C497 C 0.42813 0.94229 0.32126 0.0
C498 C 0.42785 0.90769 0.29261 0.0
O499 O 0.41857 0.90591 0.31304 0.0
O500 O 0.43764 0.91708 0.29867 0.0
C501 C 0.39073 0.90274 0.34501 0.0
O502 O 0.39324 0.90274 0.30308 0.0
C503 C 0.4346 0.92171 0.43155 0.0
C504 C 0.23908 0.20301 0.30665 0.0
C505 C 0.23548 0.1909 0.30602 0.0
C506 C 0.23166 0.20699 0.29034 0.0
C507 C 0.20051 0.19742 0.26856 0.0
H508 H 0.21334 0.22515 0.19343 0.0
C509 C 0.17052 0.21385 0.19539 0.0
C510 C 0.17499 0.22613 0.19567 0.0
C511 C 0.17793 0.20923 0.20436 0.0
C512 C 0.20963 0.21747 0.21472 0.0
H513 H 0.22121 0.17345 0.28802 0.0
H514 H 0.20819 0.18041 0.25996 0.0
H515 H 0.22617 0.21774 0.21903 0.0
H516 H 0.19085 0.24322 0.20442 0.0
H517 H 0.2037 0.23518 0.22102 0.0
H518 H 0.18408 0.19729 0.26544 0.0
C519 C 0.21677 0.18681 0.27308 0.0
C520 C 0.21698 0.21321 0.2293 0.0
C521 C 0.22424 0.18284 0.28901 0.0
C522 C 0.18712 0.23371 0.20377 0.0
C523 C 0.19451 0.22909 0.2131 0.0
C524 C 0.19318 0.20173 0.25431 0.0
C525 C 0.22042 0.19894 0.2734 0.0
C526 C 0.21252 0.20319 0.25661 0.0
C527 C 0.18998 0.21678 0.21419 0.0
C528 C 0.19766 0.21186 0.22742 0.0
H529 H 0.24768 0.20946 0.31946 0.0
H530 H 0.23465 0.21637 0.2915 0.0
H531 H 0.19686 0.18976 0.28999 0.0
H532 H 0.16123 0.20777 0.18894 0.0
H533 H 0.17417 0.19971 0.20399 0.0
C534 C 0.82202 0.0454 0.2842 0.0
C535 C 0.81536 0.05111 0.28879 0.0
C536 C 0.81638 0.03314 0.2785 0.0
C537 C 0.78781 0.00531 0.29023 0.0
H538 H 0.79974 0.99465 0.19411 0.0
C539 C 0.76146 0.95817 0.21644 0.0
C540 C 0.76786 0.95273 0.20237 0.0
C541 C 0.76738 0.96995 0.23064 0.0
C542 C 0.79639 0.99742 0.22154 0.0
H543 H 0.79753 0.04834 0.29301 0.0
H544 H 0.78771 0.02695 0.28302 0.0
H545 H 0.80994 0.0155 0.21396 0.0
H546 H 0.78549 0.95528 0.19349 0.0
H547 H 0.79578 0.97569 0.21904 0.0
H548 H 0.77422 0.98721 0.29771 0.0
C549 C 0.79729 0.03195 0.28394 0.0
C550 C 0.80225 0.00939 0.23289 0.0
C551 C 0.80293 0.04422 0.28944 0.0
C552 C 0.78029 0.95924 0.2037 0.0
C553 C 0.7862 0.97097 0.21816 0.0
C554 C 0.78197 0.9933 0.27902 0.0
C555 C 0.80396 0.02632 0.27749 0.0
C556 C 0.79799 0.01348 0.26719 0.0
C557 C 0.77983 0.97652 0.23132 0.0
C558 C 0.78617 0.98922 0.24437 0.0
H559 H 0.8316 0.05043 0.28376 0.0
H560 H 0.82175 0.02902 0.27425 0.0
H561 H 0.78439 0.0082 0.31708 0.0
H562 H 0.75187 0.9534 0.21574 0.0
H563 H 0.76218 0.97398 0.24003 0.0
C564 C 0.95654 0.75077 0.22985 0.0
C565 C 0.9488 0.75465 0.24413 0.0
C566 C 0.96874 0.75854 0.22884 0.0
C567 C 0.99282 0.78774 0.26732 0.0
H568 H 0.00826 0.78603 0.16066 0.0
C569 C 0.0399 0.82421 0.21456 0.0
C570 C 0.04726 0.82047 0.19503 0.0
C571 C 0.02808 0.81603 0.2243 0.0
C572 C 0.00414 0.78653 0.19095 0.0
H573 H 0.94785 0.76961 0.27045 0.0
H574 H 0.96919 0.78326 0.26801 0.0
H575 H 0.98739 0.77198 0.17203 0.0
H576 H 0.04806 0.80517 0.1717 0.0
H577 H 0.02753 0.79094 0.18906 0.0
H578 H 0.00963 0.80246 0.2858 0.0
C579 C 0.96582 0.77416 0.25801 0.0
C580 C 0.99216 0.77846 0.19751 0.0
C581 C 0.95358 0.76635 0.25927 0.0
C582 C 0.04261 0.80836 0.18638 0.0
C583 C 0.03082 0.80021 0.19615 0.0
C584 C 0.00484 0.79586 0.26071 0.0
C585 C 0.97351 0.77041 0.24178 0.0
C586 C 0.98634 0.77894 0.23578 0.0
C587 C 0.02337 0.80395 0.21472 0.0
C588 C 0.01064 0.79532 0.22244 0.0
H589 H 0.95316 0.74177 0.21848 0.0
H590 H 0.97443 0.75528 0.21713 0.0
H591 H 0.98862 0.78829 0.29732 0.0
H592 H 0.0432 0.83347 0.22168 0.0
H593 H 0.02254 0.81922 0.23822 0.0
C594 C 0.81006 0.77167 0.80388 0.0
C595 C 0.81199 0.76435 0.77524 0.0
C596 C 0.80359 0.77698 0.78991 0.0
C597 C 0.78142 0.77418 0.70842 0.0
H598 H 0.79269 0.80706 0.73752 0.0
C599 C 0.75831 0.79934 0.64398 0.0
C600 C 0.7571 0.80682 0.67425 0.0
C601 C 0.76536 0.79436 0.65412 0.0
C602 C 0.78935 0.79783 0.72947 0.0
H603 H 0.80859 0.75679 0.70949 0.0
H604 H 0.7973 0.76605 0.68522 0.0
H605 H 0.80415 0.79786 0.7601 0.0
H606 H 0.76237 0.81493 0.73892 0.0
H607 H 0.77443 0.80613 0.75674 0.0
H608 H 0.76652 0.77409 0.6784 0.0
C609 C 0.80073 0.76763 0.71854 0.0
C610 C 0.79593 0.79257 0.74242 0.0
C611 C 0.80726 0.76238 0.73241 0.0
C612 C 0.76314 0.80926 0.71469 0.0
C613 C 0.77014 0.80426 0.72485 0.0
C614 C 0.7748 0.77943 0.69564 0.0
C615 C 0.79886 0.77502 0.74708 0.0
C616 C 0.792 0.78067 0.73231 0.0
C617 C 0.77134 0.79674 0.69476 0.0
C618 C 0.77864 0.7913 0.70633 0.0
H619 H 0.81357 0.77336 0.8371 0.0
H620 H 0.80217 0.78251 0.81285 0.0
H621 H 0.77811 0.76495 0.70054 0.0
H622 H 0.75381 0.79731 0.61249 0.0
H623 H 0.7662 0.78871 0.62999 0.0
C624 C 0.24027 0.0428 0.74781 0.0
C625 C 0.23555 0.04814 0.77503 0.0
C626 C 0.23333 0.03097 0.73505 0.0
C627 C 0.20243 0.00695 0.72255 0.0
H628 H 0.2157 0.98631 0.73398 0.0
C629 C 0.17368 0.956 0.71792 0.0
C630 C 0.1785 0.94945 0.69955 0.0
C631 C 0.18057 0.96828 0.72241 0.0
C632 C 0.2119 0.99197 0.72979 0.0
H633 H 0.21978 0.04529 0.80967 0.0
H634 H 0.20768 0.02465 0.78724 0.0
H635 H 0.22791 0.0073 0.75072 0.0
H636 H 0.1942 0.95074 0.66958 0.0
H637 H 0.20614 0.97218 0.67645 0.0
H638 H 0.18642 0.99165 0.70161 0.0
C639 C 0.21673 0.02964 0.77565 0.0
C640 C 0.2189 0.004 0.73953 0.0
C641 C 0.22369 0.04144 0.78873 0.0
C642 C 0.19024 0.95551 0.68419 0.0
C643 C 0.19711 0.9678 0.68843 0.0
C644 C 0.19544 0.99492 0.71249 0.0
C645 C 0.22149 0.02426 0.7489 0.0
C646 C 0.21421 0.0116 0.73645 0.0
C647 C 0.19244 0.97432 0.70837 0.0
C648 C 0.20005 0.98725 0.71641 0.0
H649 H 0.24936 0.04773 0.73665 0.0
H650 H 0.23721 0.02708 0.71412 0.0
H651 H 0.19862 0.01263 0.7193 0.0
H652 H 0.16468 0.95161 0.73022 0.0
H653 H 0.17671 0.97297 0.73838 0.0
C654 C 0.0428 0.2148 0.70814 0.0
C655 C 0.04831 0.22638 0.69127 0.0
C656 C 0.03048 0.20816 0.71181 0.0
C657 C 0.00238 0.20649 0.67695 0.0
H658 H 0.99116 0.19118 0.7902 0.0
C659 C 0.95492 0.1905 0.74117 0.0
C660 C 0.94934 0.17991 0.7654 0.0
C661 C 0.96675 0.19541 0.72825 0.0
C662 C 0.9941 0.19523 0.75812 0.0
H663 H 0.04515 0.2398 0.66272 0.0
H664 H 0.02368 0.22824 0.66944 0.0
H665 H 0.01214 0.20074 0.77298 0.0
H666 H 0.95173 0.16599 0.79395 0.0
H667 H 0.97226 0.17446 0.77098 0.0
H668 H 0.98429 0.20109 0.66244 0.0
C669 C 0.02887 0.22427 0.67964 0.0
C670 C 0.00614 0.20072 0.74821 0.0
C671 C 0.04119 0.23092 0.67597 0.0
C672 C 0.95578 0.17422 0.77563 0.0
C673 C 0.96758 0.1791 0.76263 0.0
C674 C 0.99029 0.20098 0.68685 0.0
C675 C 0.02339 0.21293 0.69866 0.0
C676 C 0.01045 0.20648 0.70764 0.0
C677 C 0.97326 0.18983 0.73921 0.0
C678 C 0.98602 0.19535 0.7277 0.0
H679 H 0.04801 0.211 0.71994 0.0
H680 H 0.02652 0.19936 0.72586 0.0
H681 H 0.0054 0.21076 0.64523 0.0
H682 H 0.95021 0.19511 0.73276 0.0
H683 H 0.97089 0.20375 0.71066 0.0
C684 C 0.84844 0.55838 0.50435 0.0
C685 C 0.84956 0.56797 0.52929 0.0
C686 C 0.85506 0.55298 0.51517 0.0
C687 C 0.87091 0.54914 0.60882 0.0
H688 H 0.88548 0.53938 0.51935 0.0
C689 C 0.9037 0.53334 0.65307 0.0
C690 C 0.90254 0.52342 0.63037 0.0
C691 C 0.89734 0.5388 0.6396 0.0
C692 C 0.88136 0.54195 0.54468 0.0
H693 H 0.85876 0.57959 0.58442 0.0
H694 H 0.87033 0.57028 0.60282 0.0
H695 H 0.87416 0.54884 0.49742 0.0
H696 H 0.89386 0.51153 0.57543 0.0
H697 H 0.8827 0.52101 0.55218 0.0
H698 H 0.87807 0.54226 0.65607 0.0
C699 C 0.86419 0.56678 0.57543 0.0
C700 C 0.87487 0.54736 0.53212 0.0
C701 C 0.8576 0.57217 0.56467 0.0
C702 C 0.89497 0.51916 0.59365 0.0
C703 C 0.88862 0.52463 0.58014 0.0
C704 C 0.87738 0.54374 0.62135 0.0
C705 C 0.86292 0.55704 0.55116 0.0
C706 C 0.86963 0.55107 0.56409 0.0
C707 C 0.88969 0.53448 0.60309 0.0
C708 C 0.88273 0.54013 0.58948 0.0
H709 H 0.84232 0.55493 0.47691 0.0
H710 H 0.85382 0.54543 0.496 0.0
H711 H 0.86678 0.55168 0.63423 0.0
H712 H 0.9095 0.53688 0.68137 0.0
H713 H 0.8985 0.54647 0.65762 0.0
C714 C 0.43914 0.29164 0.49461 0.0
C715 C 0.42739 0.28775 0.48184 0.0
C716 C 0.44705 0.30366 0.50183 0.0
C717 C 0.447 0.33041 0.53604 0.0
H718 H 0.47995 0.34661 0.50039 0.0
C719 C 0.47818 0.37974 0.57559 0.0
C720 C 0.48988 0.38324 0.58762 0.0
C721 C 0.47069 0.36839 0.55908 0.0
C722 C 0.47081 0.34218 0.51105 0.0
H723 H 0.41491 0.29351 0.46457 0.0
H724 H 0.42873 0.31448 0.47739 0.0
H725 H 0.46677 0.32628 0.47627 0.0
H726 H 0.50289 0.37756 0.592 0.0
H727 H 0.48973 0.35764 0.56452 0.0
H728 H 0.45102 0.34606 0.57198 0.0
C729 C 0.43176 0.3082 0.48212 0.0
C730 C 0.46326 0.33056 0.49702 0.0
C731 C 0.42388 0.29619 0.47453 0.0
C732 C 0.49393 0.37514 0.58284 0.0
C733 C 0.4864 0.36375 0.56674 0.0
C734 C 0.45456 0.34197 0.55041 0.0
C735 C 0.44335 0.31202 0.49675 0.0
C736 C 0.45128 0.32455 0.5095 0.0
C737 C 0.47467 0.36021 0.55464 0.0
C738 C 0.46658 0.348 0.53826 0.0
H739 H 0.44213 0.28536 0.50041 0.0
H740 H 0.45591 0.30634 0.51329 0.0
H741 H 0.43786 0.32593 0.54683 0.0
H742 H 0.47482 0.38581 0.57852 0.0
H743 H 0.46179 0.36606 0.54942 0.0
C744 C 0.71207 0.15119 0.55496 0.0
C745 C 0.71488 0.14811 0.51415 0.0
C746 C 0.70029 0.14687 0.56714 0.0
C747 C 0.66978 0.13337 0.52349 0.0
H748 H 0.66095 0.12118 0.64234 0.0
C749 C 0.62104 0.10469 0.57753 0.0
C750 C 0.61792 0.10642 0.62009 0.0
C751 C 0.6329 0.11038 0.5644 0.0
C752 C 0.66328 0.1247 0.60925 0.0
H753 H 0.70747 0.13832 0.4536 0.0
H754 H 0.68688 0.13074 0.47497 0.0
H755 H 0.68155 0.13019 0.61935 0.0
H756 H 0.62481 0.11561 0.68205 0.0
H757 H 0.64549 0.12567 0.65895 0.0
H758 H 0.6515 0.12784 0.51335 0.0
C759 C 0.69382 0.13657 0.49743 0.0
C760 C 0.6751 0.12986 0.59605 0.0
C761 C 0.70562 0.14087 0.48526 0.0
C762 C 0.62691 0.11405 0.64911 0.0
C763 C 0.63878 0.11977 0.63593 0.0
C764 C 0.65796 0.12824 0.53673 0.0
C765 C 0.69102 0.13938 0.53878 0.0
C766 C 0.67848 0.13421 0.55297 0.0
C767 C 0.64192 0.11797 0.59346 0.0
C768 C 0.65455 0.12378 0.57972 0.0
H769 H 0.71898 0.1568 0.57795 0.0
H770 H 0.69843 0.14936 0.59892 0.0
H771 H 0.67213 0.13678 0.49026 0.0
H772 H 0.61435 0.09884 0.55435 0.0
H773 H 0.63499 0.10865 0.5317 0.0
C774 C 0.48693 0.1093 0.08056 0.0
C775 C 0.48118 0.09759 0.09619 0.0
C776 C 0.48075 0.11543 0.07613 0.0
C777 C 0.45358 0.11569 0.10916 0.0
H778 H 0.4577 0.13162 -0.00278 0.0
C779 C 0.42222 0.13235 0.05073 0.0
C780 C 0.42726 0.14315 0.02786 0.0
C781 C 0.42903 0.12712 0.06111 0.0
C782 C 0.45656 0.12738 0.02893 0.0
H783 H 0.46458 0.08336 0.12152 0.0
H784 H 0.45381 0.09409 0.11382 0.0
H785 H 0.46941 0.1223 0.0137 0.0
H786 H 0.44344 0.15701 -0.00157 0.0
H787 H 0.45532 0.14802 0.01715 0.0
H788 H 0.44071 0.12078 0.12439 0.0
C789 C 0.4631 0.09852 0.10504 0.0
C790 C 0.46328 0.12203 0.03837 0.0
C791 C 0.46927 0.09236 0.1093 0.0
C792 C 0.43925 0.14864 0.01579 0.0
C793 C 0.44606 0.14345 0.02636 0.0
C794 C 0.44689 0.12111 0.09981 0.0
C795 C 0.4687 0.11002 0.08743 0.0
C796 C 0.46185 0.11609 0.07852 0.0
C797 C 0.44103 0.1326 0.04903 0.0
C798 C 0.44826 0.12698 0.05948 0.0
H799 H 0.49611 0.11362 0.07035 0.0
H800 H 0.48536 0.12436 0.06314 0.0
H801 H 0.45236 0.11128 0.14054 0.0
H802 H 0.413 0.12787 0.06041 0.0
H803 H 0.42481 0.11868 0.07802 0.0
C804 C 0.86341 0.28782 0.01812 0.0
C805 C 0.85164 0.28133 0.03298 0.0
C806 C 0.86963 0.30018 0.02046 0.0
C807 C 0.87047 0.32412 0.08554 0.0
H808 H 0.89185 0.34457 0.9949 0.0
C809 C 0.89633 0.37483 0.10589 0.0
C810 C 0.90811 0.38088 0.0911 0.0
C811 C 0.88892 0.36288 0.0957 0.0
C812 C 0.88601 0.33898 0.02073 0.0
H813 H 0.83701 0.28278 0.05998 0.0
H814 H 0.84789 0.30433 0.06411 0.0
H815 H 0.87972 0.32334 0.9812 0.0
H816 H 0.92136 0.37914 0.05396 0.0
H817 H 0.90857 0.35823 0.03722 0.0
H818 H 0.87694 0.33959 0.12565 0.0
C819 C 0.85233 0.29984 0.05106 0.0
C820 C 0.87904 0.32683 0.01277 0.0
C821 C 0.84608 0.28749 0.04844 0.0
C822 C 0.91231 0.37474 0.06574 0.0
C823 C 0.90494 0.36276 0.05586 0.0
C824 C 0.8775 0.33623 0.09364 0.0
C825 C 0.86424 0.30629 0.03796 0.0
C826 C 0.87123 0.31927 0.04517 0.0
C827 C 0.89315 0.35667 0.07081 0.0
C828 C 0.8854 0.34382 0.06144 0.0
H829 H 0.86795 0.28335 0.00593 0.0
H830 H 0.87883 0.30491 0.01032 0.0
H831 H 0.86469 0.31849 0.11144 0.0
H832 H 0.89278 0.37933 0.12519 0.0
H833 H 0.87985 0.35854 0.10715 0.0
C834 C 0.62334 0.52829 0.09839 0.0
C835 C 0.61757 0.51667 0.08183 0.0
C836 C 0.63566 0.5352 0.097 0.0
C837 C 0.66181 0.5384 0.03832 0.0
H838 H 0.67882 0.55855 0.13736 0.0
C839 C 0.71323 0.56615 0.04801 0.0
C840 C 0.71808 0.57746 0.06703 0.0
C841 C 0.70097 0.55841 0.04828 0.0
C842 C 0.67419 0.55308 0.10919 0.0
H843 H 0.62026 0.50315 0.05135 0.0
H844 H 0.64182 0.51524 0.04922 0.0
H845 H 0.6575 0.54547 0.14222 0.0
H846 H 0.71383 0.58972 0.09925 0.0
H847 H 0.69256 0.57638 0.09895 0.0
H848 H 0.67855 0.54611 0.00518 0.0
C849 C 0.63677 0.51902 0.06286 0.0
C850 C 0.66197 0.54556 0.11204 0.0
C851 C 0.62443 0.51207 0.06439 0.0
C852 C 0.7104 0.58102 0.08476 0.0
C853 C 0.69819 0.57334 0.08488 0.0
C854 C 0.67407 0.54595 0.03543 0.0
C855 C 0.64252 0.53068 0.07896 0.0
C856 C 0.65561 0.53822 0.07651 0.0
C857 C 0.69333 0.56185 0.06748 0.0
C858 C 0.68038 0.55348 0.07067 0.0
H859 H 0.61833 0.53213 0.11193 0.0
H860 H 0.63981 0.5442 0.1092 0.0
H861 H 0.65714 0.53293 0.0102 0.0
H862 H 0.71892 0.56314 0.03415 0.0
H863 H 0.69751 0.54961 0.03476 0.0
C864 C 0.52491 0.90515 0.8731 0.0
C865 C 0.5324 0.9175 0.87214 0.0
C866 C 0.52963 0.89763 0.87669 0.0
C867 C 0.5561 0.89787 0.91911 0.0
H868 H 0.54323 0.86755 0.86007 0.0
C869 C 0.57727 0.8686 0.93879 0.0
C870 C 0.5696 0.85637 0.94388 0.0
C871 C 0.57286 0.876 0.92665 0.0
C872 C 0.54684 0.87594 0.87712 0.0
H873 H 0.55075 0.9316 0.87155 0.0
H874 H 0.55896 0.91849 0.87731 0.0
H875 H 0.53535 0.8806 0.84303 0.0
H876 H 0.55129 0.8423 0.9399 0.0
H877 H 0.54357 0.85525 0.91948 0.0
H878 H 0.56743 0.89319 0.95376 0.0
C879 C 0.54943 0.91463 0.8762 0.0
C880 C 0.54235 0.88343 0.86727 0.0
C881 C 0.54472 0.92213 0.87264 0.0
C882 C 0.55743 0.85169 0.93621 0.0
C883 C 0.55302 0.8591 0.9242 0.0
C884 C 0.56056 0.89039 0.92902 0.0
C885 C 0.54194 0.90231 0.87937 0.0
C886 C 0.54693 0.89447 0.88822 0.0
C887 C 0.56068 0.87135 0.9195 0.0
C888 C 0.55598 0.87933 0.90822 0.0
H889 H 0.51537 0.90128 0.87274 0.0
H890 H 0.52361 0.88819 0.87929 0.0
H891 H 0.55965 0.9062 0.93654 0.0
H892 H 0.5867 0.8725 0.9441 0.0
H893 H 0.57904 0.88536 0.92262 0.0
C894 C 0.09518 0.6208 0.88311 0.0
C895 C 0.09789 0.61853 0.84068 0.0
C896 C 0.10008 0.6324 0.89856 0.0
C897 C 0.11455 0.66359 0.86141 0.0
H898 H 0.12514 0.67022 0.98285 0.0
C899 C 0.14265 0.71112 0.92964 0.0
C900 C 0.13973 0.71338 0.97174 0.0
C901 C 0.13729 0.69957 0.91317 0.0
C902 C 0.12211 0.66849 0.949 0.0
H903 H 0.10783 0.62668 0.78112 0.0
H904 H 0.11653 0.64692 0.80835 0.0
H905 H 0.11638 0.65007 0.95487 0.0
H906 H 0.12879 0.70528 0.02938 0.0
H907 H 0.11942 0.68514 0.00056 0.0
H908 H 0.12041 0.68207 0.85555 0.0
C909 C 0.11047 0.63974 0.82945 0.0
C910 C 0.11707 0.65694 0.93294 0.0
C911 C 0.10554 0.62813 0.81392 0.0
C912 C 0.13127 0.70385 -0.00313 0.0
C913 C 0.12594 0.6923 0.98047 0.0
C914 C 0.11963 0.67516 0.87745 0.0
C915 C 0.10783 0.64201 0.87203 0.0
C916 C 0.11322 0.65433 0.88897 0.0
C917 C 0.12892 0.69003 0.9385 0.0
C918 C 0.12345 0.67773 0.92144 0.0
H919 H 0.08926 0.61362 0.90451 0.0
H920 H 0.09769 0.63383 0.93123 0.0
H921 H 0.11152 0.66187 0.82756 0.0
H922 H 0.14914 0.71825 0.90941 0.0
H923 H 0.13986 0.6981 0.88091 0.0
C924 C 0.28506 0.42671 0.91062 0.0
C925 C 0.2826 0.42461 0.95588 0.0
C926 C 0.29662 0.43136 0.89494 0.0
C927 C 0.32626 0.4362 0.92458 0.0
H928 H 0.33742 0.46205 0.84087 0.0
C929 C 0.37574 0.46831 0.8939 0.0
C930 C 0.37957 0.47246 0.85088 0.0
C931 C 0.36371 0.46138 0.90341 0.0
C932 C 0.3344 0.45472 0.86365 0.0
H933 H 0.29033 0.42544 0.02001 0.0
H934 H 0.3105 0.43362 0.99269 0.0
H935 H 0.31675 0.45182 0.86378 0.0
H936 H 0.37373 0.47236 0.7839 0.0
H937 H 0.35263 0.46014 0.80055 0.0
H938 H 0.34397 0.43922 0.92497 0.0
C939 C 0.30347 0.43158 0.96925 0.0
C940 C 0.32255 0.44885 0.87683 0.0
C941 C 0.29191 0.42695 0.98496 0.0
C942 C 0.37107 0.46934 0.8174 0.0
C943 C 0.35899 0.46239 0.82698 0.0
C944 C 0.33811 0.44205 0.91137 0.0
C945 C 0.30598 0.43398 0.92413 0.0
C946 C 0.31838 0.43964 0.90792 0.0
C947 C 0.35517 0.45839 0.87018 0.0
C948 C 0.34237 0.4515 0.88126 0.0
H949 H 0.27809 0.42496 0.88725 0.0
H950 H 0.29823 0.43295 0.85993 0.0
H951 H 0.32328 0.42901 0.94799 0.0
H952 H 0.38204 0.47054 0.92055 0.0
H953 H 0.36109 0.45861 0.93716 0.0
C954 C 0.08942 0.46297 0.33326 0.0
C955 C 0.09321 0.47475 0.34501 0.0
C956 C 0.09676 0.45818 0.34022 0.0
C957 C 0.12743 0.46525 0.35759 0.0
H958 H 0.11306 0.43549 0.4211 0.0
C959 C 0.15484 0.44416 0.41839 0.0
C960 C 0.14945 0.43178 0.41536 0.0
C961 C 0.14826 0.4498 0.41074 0.0
C962 C 0.1172 0.44371 0.4028 0.0
H963 H 0.1079 0.49092 0.37116 0.0
H964 H 0.1208 0.48256 0.38261 0.0
H965 H 0.10122 0.44454 0.40256 0.0
H966 H 0.13293 0.41563 0.40177 0.0
H967 H 0.12163 0.42541 0.38731 0.0
H968 H 0.14335 0.46431 0.35685 0.0
C969 C 0.11211 0.47704 0.36834 0.0
C970 C 0.1104 0.44891 0.39228 0.0
C971 C 0.10471 0.4818 0.3619 0.0
C972 C 0.13735 0.42517 0.40479 0.0
C973 C 0.13083 0.4308 0.39671 0.0
C974 C 0.13422 0.45998 0.36763 0.0
C975 C 0.10809 0.4651 0.35853 0.0
C976 C 0.11542 0.45969 0.36941 0.0
C977 C 0.13619 0.44319 0.39953 0.0
C978 C 0.12916 0.4491 0.39018 0.0
H979 H 0.08062 0.4573 0.32014 0.0
H980 H 0.09351 0.44898 0.33186 0.0
H981 H 0.1315 0.47356 0.33978 0.0
H982 H 0.16414 0.44949 0.42659 0.0
H983 H 0.15265 0.45933 0.41386 0.0
C984 C 0.50505 0.61839 0.40341 0.0
C985 C 0.5098 0.61285 0.3774 0.0
C986 C 0.51097 0.63071 0.40741 0.0
C987 C 0.53404 0.6585 0.35676 0.0
H988 H 0.5384 0.67095 0.4756 0.0
C989 C 0.56918 0.70647 0.39765 0.0
C990 C 0.56637 0.71271 0.42854 0.0
C991 C 0.56157 0.69439 0.3908 0.0
C992 C 0.53712 0.66765 0.44213 0.0
H993 H 0.52423 0.61595 0.33365 0.0
H994 H 0.53451 0.63743 0.34053 0.0
H995 H 0.52602 0.64974 0.4631 0.0
H996 H 0.55336 0.71113 0.47664 0.0
H997 H 0.53998 0.69002 0.46427 0.0
H998 H 0.54517 0.67638 0.33574 0.0
C999 C 0.5262 0.63225 0.35779 0.0
C1000 C 0.53002 0.65549 0.43497 0.0
C1001 C 0.52033 0.61993 0.354 0.0
C1002 C 0.55581 0.70657 0.45273 0.0
C1003 C 0.54816 0.69446 0.44573 0.0
C1004 C 0.54109 0.67066 0.36388 0.0
C1005 C 0.52171 0.63776 0.38521 0.0
C1006 C 0.52853 0.65076 0.39228 0.0
C1007 C 0.55093 0.68824 0.41449 0.0
C1008 C 0.54285 0.67538 0.40673 0.0
H1009 H 0.49694 0.6132 0.42181 0.0
H1010 H 0.50721 0.63472 0.42832 0.0
H1011 H 0.53292 0.65513 0.32342 0.0
H1012 H 0.57727 0.71091 0.37863 0.0
H1013 H 0.56411 0.68984 0.36716 0.0
C1014 C 0.37574 0.8974 0.40495 0.0
C1015 C 0.37829 0.89676 0.36037 0.0
C1016 C 0.36404 0.89189 0.41971 0.0
C1017 C 0.33388 0.86825 0.39258 0.0
H1018 H 0.32462 0.88485 0.47511 0.0
C1019 C 0.2853 0.84986 0.44737 0.0
C1020 C 0.28333 0.8512 0.49201 0.0
C1021 C 0.29678 0.85544 0.43026 0.0
C1022 C 0.32708 0.88004 0.45247 0.0
H1023 H 0.37054 0.88977 0.29636 0.0
H1024 H 0.35006 0.88013 0.32223 0.0
H1025 H 0.3448 0.89455 0.44688 0.0
H1026 H 0.2919 0.85935 0.55378 0.0
H1027 H 0.31193 0.86893 0.52413 0.0
H1028 H 0.31619 0.85369 0.39849 0.0
C1029 C 0.35715 0.88485 0.34575 0.0
C1030 C 0.33865 0.8856 0.43624 0.0
C1031 C 0.36887 0.89042 0.3309 0.0
C1032 C 0.2931 0.85818 0.5192 0.0
C1033 C 0.30458 0.86374 0.50212 0.0
C1034 C 0.32231 0.86266 0.40892 0.0
C1035 C 0.35461 0.88557 0.3903 0.0
C1036 C 0.3422 0.87975 0.40632 0.0
C1037 C 0.30657 0.86246 0.45742 0.0
C1038 C 0.31879 0.86846 0.43927 0.0
H1039 H 0.38277 0.90218 0.4286 0.0
H1040 H 0.36239 0.89246 0.45434 0.0
H1041 H 0.33638 0.86346 0.36997 0.0
H1042 H 0.27796 0.84457 0.42547 0.0
H1043 H 0.29798 0.85439 0.39558 0.0
C1044 C 0.08203 0.23754 0.83739 0.0
C1045 C 0.08757 0.24995 0.83932 0.0
C1046 C 0.08275 0.23116 0.87314 0.0
C1047 C 0.09051 0.23302 0.99077 0.0
H1048 H 0.10781 0.21714 0.95767 0.0
C1049 C 0.13097 0.23122 0.06826 0.0
C1050 C 0.12747 0.23027 0.11242 0.0
C1051 C 0.12254 0.22798 0.03468 0.0
C1052 C 0.10283 0.22136 0.96745 0.0
H1053 H 0.09719 0.26531 0.88123 0.0
H1054 H 0.09812 0.25418 0.94403 0.0
H1055 H 0.09847 0.223 0.9007 0.0
H1056 H 0.11248 0.22368 0.15665 0.0
H1057 H 0.09774 0.2176 0.09822 0.0
H1058 H 0.0955 0.23222 0.05695 0.0
C1059 C 0.09336 0.24937 0.91483 0.0
C1060 C 0.0974 0.22463 0.93492 0.0
C1061 C 0.09286 0.25576 0.87887 0.0
C1062 C 0.11536 0.22457 0.12268 0.0
C1063 C 0.10695 0.22118 0.08925 0.0
C1064 C 0.09584 0.22969 0.02323 0.0
C1065 C 0.08875 0.23708 0.91165 0.0
C1066 C 0.09167 0.23096 0.94622 0.0
C1067 C 0.11053 0.22367 0.04506 0.0
C1068 C 0.1025 0.22429 0.0118 0.0
H1069 H 0.07795 0.23283 0.80718 0.0
H1070 H 0.07909 0.22169 0.87002 0.0
H1071 H 0.0861 0.23784 0.00029 0.0
H1072 H 0.14027 0.23567 0.05965 0.0
H1073 H 0.12562 0.23003 0.00097 0.0
C1074 C 0.79003 0.91282 0.04159 0.0
C1075 C 0.78218 0.91716 0.03721 0.0
C1076 C 0.79395 0.90954 0.00422 0.0
C1077 C 0.78739 0.90403 0.88256 0.0
H1078 H 0.77689 0.8718 0.91942 0.0
C1079 C 0.74979 0.86386 0.8008 0.0
C1080 C 0.75092 0.85396 0.79062 0.0
C1081 C 0.75862 0.87334 0.82424 0.0
C1082 C 0.7801 0.88079 0.90832 0.0
H1083 H 0.77378 0.92328 0.99127 0.0
H1084 H 0.78019 0.9173 0.92638 0.0
H1085 H 0.78604 0.88769 0.97254 0.0
H1086 H 0.76211 0.84615 0.79808 0.0
H1087 H 0.77738 0.86265 0.84134 0.0
H1088 H 0.78016 0.89668 0.81925 0.0
C1089 C 0.78359 0.91649 0.95793 0.0
C1090 C 0.78546 0.89001 0.93876 0.0
C1091 C 0.7799 0.92001 0.99529 0.0
C1092 C 0.76096 0.85363 0.8056 0.0
C1093 C 0.76974 0.86308 0.82993 0.0
C1094 C 0.78184 0.89476 0.85232 0.0
C1095 C 0.78968 0.91016 0.96228 0.0
C1096 C 0.78845 0.90165 0.92703 0.0
C1097 C 0.76872 0.8731 0.83868 0.0
C1098 C 0.77755 0.88301 0.86576 0.0
H1099 H 0.79189 0.91056 0.07382 0.0
H1100 H 0.79907 0.90515 0.00871 0.0
H1101 H 0.78991 0.9129 0.87194 0.0
H1102 H 0.74222 0.86446 0.78956 0.0
H1103 H 0.75749 0.88085 0.83155 0.0
C1104 C 0.09045 0.87821 0.07085 0.0
C1105 C 0.0857 0.86625 0.05978 0.0
C1106 C 0.09295 0.88662 0.03793 0.0
C1107 C 0.09509 0.88968 0.91405 0.0
H1108 H 0.12829 0.90987 0.94292 0.0
C1109 C 0.13215 0.89096 0.81769 0.0
C1110 C 0.14251 0.9016 0.80753 0.0
C1111 C 0.12326 0.89099 0.84286 0.0
C1112 C 0.11901 0.90462 0.93423 0.0
H1113 H 0.07831 0.85338 0.00737 0.0
H1114 H 0.083 0.86788 0.94974 0.0
H1115 H 0.11385 0.90184 0.00148 0.0
H1116 H 0.15165 0.92066 0.81557 0.0
H1117 H 0.1362 0.92061 0.86256 0.0
H1118 H 0.10071 0.89143 0.84677 0.0
C1119 C 0.08465 0.87098 0.98347 0.0
C1120 C 0.11062 0.89998 0.96792 0.0
C1121 C 0.0819 0.86257 0.01659 0.0
C1122 C 0.14379 0.91233 0.82323 0.0
C1123 C 0.13495 0.91232 0.84962 0.0
C1124 C 0.10353 0.89418 0.88041 0.0
C1125 C 0.09117 0.88319 0.99336 0.0
C1126 C 0.09868 0.89169 0.95845 0.0
C1127 C 0.12457 0.90162 0.85923 0.0
C1128 C 0.11563 0.90099 0.89064 0.0
H1129 H 0.09343 0.88121 0.10418 0.0
H1130 H 0.09754 0.89589 0.047 0.0
H1131 H 0.08594 0.88368 0.90539 0.0
H1132 H 0.13079 0.88255 0.80565 0.0
H1133 H 0.11548 0.88259 0.85068 0.0
C1134 C 0.23885 0.11514 0.77704 0.0
C1135 C 0.24098 0.10591 0.76603 0.0
C1136 C 0.23576 0.12067 0.7446 0.0
C1137 C 0.22814 0.11974 0.62529 0.0
H1138 H 0.24789 0.15382 0.6355 0.0
C1139 C 0.23656 0.15079 0.4773 0.0
C1140 C 0.24876 0.15768 0.46902 0.0
C1141 C 0.23253 0.14516 0.51811 0.0
C1142 C 0.24219 0.14433 0.63237 0.0
H1143 H 0.24077 0.09468 0.7131 0.0
H1144 H 0.23583 0.10464 0.65591 0.0
H1145 H 0.24587 0.14137 0.69802 0.0
H1146 H 0.26627 0.16484 0.49741 0.0
H1147 H 0.25931 0.15528 0.56838 0.0
H1148 H 0.22526 0.1228 0.55824 0.0
C1149 C 0.23629 0.10747 0.68974 0.0
C1150 C 0.24093 0.13716 0.66836 0.0
C1151 C 0.23921 0.10179 0.72244 0.0
C1152 C 0.25681 0.15955 0.50297 0.0
C1153 C 0.25281 0.15412 0.54372 0.0
C1154 C 0.22943 0.12695 0.58914 0.0
C1155 C 0.23494 0.11725 0.70026 0.0
C1156 C 0.23426 0.12475 0.66478 0.0
C1157 C 0.24066 0.14657 0.55131 0.0
C1158 C 0.23688 0.13928 0.59186 0.0
H1159 H 0.23993 0.11835 0.81061 0.0
H1160 H 0.23448 0.12796 0.75406 0.0
H1161 H 0.22276 0.11024 0.62167 0.0
H1162 H 0.23019 0.14917 0.45147 0.0
H1163 H 0.22312 0.13941 0.52321 0.0
C1164 C 0.84028 0.10085 0.42563 0.0
C1165 C 0.84471 0.10856 0.38941 0.0
C1166 C 0.84591 0.10431 0.46658 0.0
C1167 C 0.85524 0.11925 0.5514 0.0
H1168 H 0.88893 0.13108 0.56383 0.0
C1169 C 0.89542 0.14658 0.68546 0.0
C1170 C 0.88901 0.1414 0.72412 0.0
C1171 C 0.89025 0.14227 0.64419 0.0
C1172 C 0.87956 0.12798 0.56084 0.0
H1173 H 0.85871 0.1257 0.36712 0.0
H1174 H 0.86865 0.13158 0.43836 0.0
H1175 H 0.87941 0.1239 0.49229 0.0
H1176 H 0.8724 0.12736 0.75011 0.0
H1177 H 0.86363 0.11955 0.67882 0.0
H1178 H 0.85534 0.12378 0.61894 0.0
C1179 C 0.86078 0.12296 0.43515 0.0
C1180 C 0.87411 0.12377 0.51999 0.0
C1181 C 0.85503 0.11961 0.39456 0.0
C1182 C 0.87749 0.13168 0.72085 0.0
C1183 C 0.87243 0.12723 0.67985 0.0
C1184 C 0.8607 0.12364 0.59198 0.0
C1185 C 0.8562 0.1154 0.47158 0.0
C1186 C 0.86191 0.11935 0.51505 0.0
C1187 C 0.87865 0.13255 0.64092 0.0
C1188 C 0.87293 0.12802 0.59734 0.0
H1189 H 0.83234 0.09228 0.42254 0.0
H1190 H 0.84225 0.09834 0.49435 0.0
H1191 H 0.84585 0.11607 0.5481 0.0
H1192 H 0.90432 0.1541 0.68711 0.0
H1193 H 0.89527 0.14669 0.61495 0.0
C1194 C 0.84011 0.74153 0.62561 0.0
C1195 C 0.84535 0.73812 0.65873 0.0
C1196 C 0.84419 0.74298 0.5821 0.0
C1197 C 0.85185 0.73573 0.4922 0.0
H1198 H 0.88475 0.7595 0.47336 0.0
C1199 C 0.89213 0.7452 0.36625 0.0
C1200 C 0.8858 0.7415 0.32652 0.0
C1201 C 0.88683 0.74658 0.40402 0.0
C1202 C 0.87558 0.75277 0.47801 0.0
H1203 H 0.85892 0.73352 0.67215 0.0
H1204 H 0.86615 0.73634 0.59668 0.0
H1205 H 0.87567 0.75788 0.54522 0.0
H1206 H 0.86922 0.73704 0.29443 0.0
H1207 H 0.86012 0.73988 0.3599 0.0
H1208 H 0.85188 0.72998 0.42636 0.0
C1209 C 0.85884 0.73777 0.60438 0.0
C1210 C 0.87038 0.75195 0.51899 0.0
C1211 C 0.85464 0.73608 0.64744 0.0
C1212 C 0.87427 0.73977 0.32476 0.0
C1213 C 0.86903 0.74133 0.36238 0.0
C1214 C 0.8571 0.73641 0.45137 0.0
C1215 C 0.85373 0.74131 0.57154 0.0
C1216 C 0.85856 0.74328 0.52656 0.0
C1217 C 0.87513 0.74447 0.40278 0.0
C1218 C 0.86913 0.74476 0.44409 0.0
H1219 H 0.83294 0.74316 0.63339 0.0
H1220 H 0.84012 0.74567 0.55698 0.0
H1221 H 0.84274 0.72892 0.49766 0.0
H1222 H 0.901 0.74654 0.36871 0.0
H1223 H 0.89176 0.74881 0.43459 0.0
C1224 C 0.87456 0.77471 0.84228 0.0
C1225 C 0.86292 0.76821 0.85801 0.0
C1226 C 0.88402 0.78017 0.87176 0.0
C1227 C 0.89888 0.77554 0.93437 0.0
H1228 H 0.89622 0.78072 0.05851 0.0
C1229 C 0.90189 0.74761 0.06841 0.0
C1230 C 0.90647 0.75229 0.11007 0.0
C1231 C 0.90188 0.75492 0.035 0.0
C1232 C 0.89737 0.77959 0.02384 0.0
H1233 H 0.85182 0.76335 0.91584 0.0
H1234 H 0.8682 0.77247 0.96753 0.0
H1235 H 0.88589 0.78612 0.00439 0.0
H1236 H 0.91521 0.76833 0.14911 0.0
H1237 H 0.91486 0.78116 0.09058 0.0
H1238 H 0.90974 0.76835 0.95407 0.0
C1239 C 0.8702 0.77372 0.93267 0.0
C1240 C 0.89135 0.78258 0.99283 0.0
C1241 C 0.86074 0.76846 0.90304 0.0
C1242 C 0.91172 0.76455 0.11703 0.0
C1243 C 0.91146 0.77186 0.08374 0.0
C1244 C 0.90489 0.7726 0.96528 0.0
C1245 C 0.88197 0.77883 0.91747 0.0
C1246 C 0.89139 0.77984 0.94799 0.0
C1247 C 0.90623 0.76703 0.04281 0.0
C1248 C 0.90356 0.77387 0.01044 0.0
H1249 H 0.8764 0.77456 0.80754 0.0
H1250 H 0.89295 0.78435 0.85885 0.0
H1251 H 0.89918 0.77325 0.9003 0.0
H1252 H 0.89778 0.73819 0.06233 0.0
H1253 H 0.89764 0.75089 0.00403 0.0
C1254 C 0.24607 0.08767 0.01649 0.0
C1255 C 0.23984 0.08558 0.97683 0.0
C1256 C 0.2414 0.08928 0.05544 0.0
C1257 C 0.22651 0.10457 0.08448 0.0
H1258 H 0.23163 0.09722 0.20331 0.0
C1259 C 0.23582 0.13707 0.22857 0.0
C1260 C 0.24578 0.13914 0.25346 0.0
C1261 C 0.23046 0.12739 0.1997 0.0
C1262 C 0.23008 0.09933 0.17036 0.0
H1263 H 0.22356 0.08269 0.9467 0.0
H1264 H 0.2155 0.08594 0.01498 0.0
H1265 H 0.22984 0.08409 0.14277 0.0
H1266 H 0.25778 0.13258 0.26792 0.0
H1267 H 0.24873 0.1161 0.21744 0.0
H1268 H 0.2279 0.12038 0.1111 0.0
C1269 C 0.22386 0.08605 0.01605 0.0
C1270 C 0.22894 0.09175 0.13586 0.0
C1271 C 0.22843 0.08413 0.97717 0.0
C1272 C 0.25013 0.13128 0.24934 0.0
C1273 C 0.24481 0.12168 0.22071 0.0
C1274 C 0.22779 0.11223 0.11891 0.0
C1275 C 0.23056 0.08915 0.05506 0.0
C1276 C 0.22777 0.09464 0.09235 0.0
C1277 C 0.23494 0.11961 0.19538 0.0
C1278 C 0.23027 0.11003 0.16181 0.0
H1279 H 0.25494 0.08892 0.01674 0.0
H1280 H 0.24682 0.09178 0.08489 0.0
H1281 H 0.2257 0.10705 0.05116 0.0
H1282 H 0.2322 0.14292 0.23124 0.0
H1283 H 0.22286 0.12603 0.18063 0.0
C1284 C 0.86164 0.10772 0.16763 0.0
C1285 C 0.85078 0.09746 0.17621 0.0
C1286 C 0.87025 0.10716 0.1424 0.0
C1287 C 0.87325 0.09298 0.04914 0.0
H1288 H 0.90662 0.11193 0.0777 0.0
C1289 C 0.90308 0.11733 0.91151 0.0
C1290 C 0.90887 0.12942 0.92177 0.0
C1291 C 0.89972 0.10893 0.94509 0.0
C1292 C 0.89737 0.10649 0.06912 0.0
H1293 H 0.84045 0.07851 0.16558 0.0
H1294 H 0.85544 0.07767 0.11875 0.0
H1295 H 0.89189 0.10527 0.13642 0.0
H1296 H 0.91705 0.14237 0.97355 0.0
H1297 H 0.91092 0.12794 0.03224 0.0
H1298 H 0.87839 0.09526 0.98186 0.0
C1299 C 0.8573 0.08606 0.13281 0.0
C1300 C 0.88894 0.10261 0.10282 0.0
C1301 C 0.84873 0.08656 0.15916 0.0
C1302 C 0.91268 0.13307 0.96497 0.0
C1303 C 0.90911 0.1247 -0.00131 0.0
C1304 C 0.88164 0.097 0.0154 0.0
C1305 C 0.86815 0.09637 0.12445 0.0
C1306 C 0.87681 0.09651 0.09269 0.0
C1307 C 0.9017 0.11255 0.98947 0.0
C1308 C 0.89375 0.10457 0.02474 0.0
H1309 H 0.86357 0.11622 0.18077 0.0
H1310 H 0.87844 0.11529 0.13565 0.0
H1311 H 0.86394 0.08827 0.0405 0.0
H1312 H 0.90003 0.11436 0.87822 0.0
H1313 H 0.89441 0.09966 0.93658 0.0
C1314 C 0.75834 0.88419 0.24686 0.0
C1315 C 0.7573 0.89438 0.24517 0.0
C1316 C 0.75886 0.87938 0.28716 0.0
C1317 C 0.76235 0.88513 0.40801 0.0
H1318 H 0.74403 0.85085 0.41388 0.0
C1319 C 0.74221 0.85862 0.56658 0.0
C1320 C 0.74317 0.84851 0.57413 0.0
C1321 C 0.74617 0.86486 0.52721 0.0
C1322 C 0.74935 0.86041 0.41256 0.0
H1323 H 0.75635 0.90779 0.28408 0.0
H1324 H 0.75669 0.89908 0.35499 0.0
H1325 H 0.74659 0.86071 0.34349 0.0
H1326 H 0.74924 0.83711 0.54684 0.0
H1327 H 0.7559 0.84792 0.47692 0.0
H1328 H 0.76445 0.88471 0.47794 0.0
C1329 C 0.75743 0.89495 0.32512 0.0
C1330 C 0.75085 0.8661 0.37222 0.0
C1331 C 0.75715 0.89991 0.28458 0.0
C1332 C 0.74837 0.84486 0.54178 0.0
C1333 C 0.75217 0.85102 0.50193 0.0
C1334 C 0.76069 0.87943 0.44852 0.0
C1335 C 0.75809 0.8845 0.32683 0.0
C1336 C 0.75725 0.87854 0.36947 0.0
C1337 C 0.75103 0.86103 0.49432 0.0
C1338 C 0.75404 0.86704 0.45115 0.0
H1339 H 0.75872 0.87987 0.21688 0.0
H1340 H 0.75972 0.87154 0.28713 0.0
H1341 H 0.76751 0.8947 0.40702 0.0
H1342 H 0.73834 0.86171 0.59107 0.0
H1343 H 0.74507 0.87247 0.52192 0.0
C1344 C 0.11638 0.86563 0.26602 0.0
C1345 C 0.1056 0.85518 0.25802 0.0
C1346 C 0.11983 0.86975 0.30882 0.0
C1347 C 0.11768 0.86016 0.4207 0.0
H1348 H 0.12891 0.89305 0.44992 0.0
C1349 C 0.13616 0.87841 0.59259 0.0
C1350 C 0.14613 0.8898 0.59494 0.0
C1351 C 0.12984 0.87426 0.55339 0.0
C1352 C 0.12593 0.88388 0.44221 0.0
H1353 H 0.08999 0.84084 0.28856 0.0
H1354 H 0.0963 0.84792 0.36421 0.0
H1355 H 0.12018 0.88545 0.37767 0.0
H1356 H 0.15723 0.90588 0.55841 0.0
H1357 H 0.14651 0.89847 0.48912 0.0
H1358 H 0.12396 0.85865 0.48391 0.0
C1359 C 0.10193 0.85294 0.33694 0.0
C1360 C 0.12084 0.87952 0.40102 0.0
C1361 C 0.09834 0.8489 0.29383 0.0
C1362 C 0.14956 0.89707 0.55749 0.0
C1363 C 0.14335 0.89283 0.51791 0.0
C1364 C 0.12292 0.86456 0.46164 0.0
C1365 C 0.11268 0.86343 0.34462 0.0
C1366 C 0.11681 0.86767 0.38978 0.0
C1367 C 0.13347 0.88132 0.5153 0.0
C1368 C 0.12725 0.87651 0.47273 0.0
H1369 H 0.12214 0.87073 0.23913 0.0
H1370 H 0.12822 0.87779 0.31399 0.0
H1371 H 0.11477 0.85103 0.41248 0.0
H1372 H 0.13319 0.87268 0.62119 0.0
H1373 H 0.12212 0.86548 0.55299 0.0
C1374 C 0.10476 0.24379 0.60583 0.0
C1375 C 0.11094 0.25208 0.63923 0.0
C1376 C 0.11074 0.24016 0.57735 0.0
C1377 C 0.12453 0.23107 0.52689 0.0
H1378 H 0.15267 0.25766 0.47743 0.0
C1379 C 0.15628 0.24655 0.36127 0.0
C1380 C 0.14697 0.24328 0.33127 0.0
C1381 C 0.15385 0.24448 0.40641 0.0
C1382 C 0.14506 0.25003 0.4916 0.0
H1383 H 0.1281 0.26248 0.67065 0.0
H1384 H 0.13846 0.25605 0.62107 0.0
H1385 H 0.14432 0.26026 0.54508 0.0
H1386 H 0.12795 0.23443 0.3234 0.0
H1387 H 0.12367 0.23061 0.40144 0.0
H1388 H 0.12482 0.22112 0.47125 0.0
C1389 C 0.12906 0.25252 0.61646 0.0
C1390 C 0.14023 0.25153 0.53043 0.0
C1391 C 0.12309 0.2562 0.64482 0.0
C1392 C 0.13525 0.23704 0.34618 0.0
C1393 C 0.13281 0.23477 0.39084 0.0
C1394 C 0.12934 0.22958 0.48795 0.0
C1395 C 0.123 0.24467 0.58175 0.0
C1396 C 0.12957 0.24223 0.54724 0.0
C1397 C 0.14208 0.23891 0.42165 0.0
C1398 C 0.13929 0.23923 0.46875 0.0
H1399 H 0.0954 0.24041 0.60074 0.0
H1400 H 0.10582 0.23423 0.55054 0.0
H1401 H 0.11648 0.22366 0.53966 0.0
H1402 H 0.16539 0.25142 0.35024 0.0
H1403 H 0.16114 0.24776 0.42954 0.0
C1404 C 0.79965 0.56741 0.43799 0.0
C1405 C 0.79801 0.56968 0.48174 0.0
C1406 C 0.79012 0.56274 0.40859 0.0
C1407 C 0.76355 0.5653 0.39863 0.0
H1408 H 0.76473 0.55512 0.27978 0.0
C1409 C 0.75232 0.57194 0.20688 0.0
C1410 C 0.75831 0.58437 0.20863 0.0
C1411 C 0.75185 0.56539 0.24419 0.0
C1412 C 0.76398 0.55769 0.31303 0.0
H1413 H 0.78502 0.56727 0.5311 0.0
H1414 H 0.76823 0.5584 0.48067 0.0
H1415 H 0.77382 0.55002 0.33974 0.0
H1416 H 0.76755 0.59965 0.25116 0.0
H1417 H 0.76656 0.58834 0.31607 0.0
H1418 H 0.75416 0.57337 0.37159 0.0
C1419 C 0.77691 0.56075 0.46818 0.0
C1420 C 0.76933 0.5549 0.34737 0.0
C1421 C 0.78649 0.56572 0.49722 0.0
C1422 C 0.76291 0.59008 0.24894 0.0
C1423 C 0.76226 0.58357 0.28621 0.0
C1424 C 0.75814 0.56798 0.36447 0.0
C1425 C 0.77875 0.5601 0.42282 0.0
C1426 C 0.76988 0.55937 0.39006 0.0
C1427 C 0.75713 0.5712 0.28388 0.0
C1428 C 0.759 0.5649 0.32092 0.0
H1429 H 0.80848 0.57044 0.42534 0.0
H1430 H 0.79198 0.56241 0.37404 0.0
H1431 H 0.76371 0.56894 0.43082 0.0
H1432 H 0.74875 0.56734 0.17604 0.0
H1433 H 0.74783 0.55587 0.24153 0.0
C1434 C 0.41028 0.19257 0.11269 0.0
C1435 C 0.41086 0.18235 0.10279 0.0
C1436 C 0.41217 0.19697 0.15547 0.0
C1437 C 0.40736 0.18923 0.26672 0.0
H1438 H 0.43157 0.22173 0.28989 0.0
C1439 C 0.40777 0.21202 0.4296 0.0
C1440 C 0.41007 0.22372 0.42591 0.0
C1441 C 0.41006 0.20657 0.39438 0.0
C1442 C 0.42472 0.21266 0.284 0.0
H1443 H 0.4138 0.16866 0.1299 0.0
H1444 H 0.41661 0.17619 0.20607 0.0
H1445 H 0.43137 0.21257 0.2195 0.0
H1446 H 0.41681 0.23898 0.38286 0.0
H1447 H 0.42035 0.22937 0.32083 0.0
H1448 H 0.40006 0.1895 0.32935 0.0
C1449 C 0.41492 0.18083 0.18006 0.0
C1450 C 0.42471 0.20741 0.24394 0.0
C1451 C 0.4133 0.17655 0.13674 0.0
C1452 C 0.415 0.22997 0.38674 0.0
C1453 C 0.41711 0.22446 0.35126 0.0
C1454 C 0.40722 0.19454 0.30653 0.0
C1455 C 0.41446 0.19114 0.18945 0.0
C1456 C 0.41586 0.19576 0.23464 0.0
C1457 C 0.41453 0.21263 0.3544 0.0
C1458 C 0.4157 0.20645 0.31513 0.0
H1459 H 0.40853 0.1973 0.08718 0.0
H1460 H 0.41167 0.20487 0.16218 0.0
H1461 H 0.40037 0.18027 0.25986 0.0
H1462 H 0.40411 0.20703 0.45964 0.0
H1463 H 0.40818 0.19754 0.39836 0.0
C1464 C 0.81977 0.2447 0.17609 0.0
C1465 C 0.82864 0.24167 0.18067 0.0
C1466 C 0.81281 0.24398 0.21238 0.0
C1467 C 0.80952 0.24019 0.33288 0.0
H1468 H 0.77905 0.21252 0.30822 0.0
C1469 C 0.7884 0.20187 0.44932 0.0
C1470 C 0.77616 0.19393 0.45005 0.0
C1471 C 0.79318 0.21172 0.42193 0.0
C1472 C 0.7873 0.22048 0.31588 0.0
H1473 H 0.83801 0.2366 0.22658 0.0
H1474 H 0.82627 0.23588 0.29032 0.0
H1475 H 0.79163 0.22425 0.24759 0.0
H1476 H 0.7592 0.19048 0.42451 0.0
H1477 H 0.76763 0.20783 0.37582 0.0
H1478 H 0.80551 0.23608 0.4011 0.0
C1479 C 0.82456 0.23869 0.25891 0.0
C1480 C 0.79452 0.22721 0.28101 0.0
C1481 C 0.83125 0.23906 0.22251 0.0
C1482 C 0.76869 0.19642 0.42438 0.0
C1483 C 0.77352 0.20633 0.39653 0.0
C1484 C 0.80223 0.23359 0.36776 0.0
C1485 C 0.81493 0.24057 0.25376 0.0
C1486 C 0.806 0.23663 0.28925 0.0
C1487 C 0.78586 0.21395 0.39433 0.0
C1488 C 0.79142 0.22315 0.35953 0.0
H1489 H 0.81753 0.24659 0.14387 0.0
H1490 H 0.80537 0.24537 0.20764 0.0
H1491 H 0.81831 0.24749 0.33997 0.0
H1492 H 0.79441 0.20031 0.46905 0.0
H1493 H 0.80273 0.21721 0.42067 0.0
C1494 C 0.91393 0.48975 0.81732 0.0
C1495 C 0.90743 0.48558 0.77826 0.0
C1496 C 0.90992 0.48308 0.85579 0.0
C1497 C 0.8962 0.45232 0.87991 0.0
H1498 H 0.90531 0.46451 -0.00144 0.0
C1499 C 0.90882 0.4299 0.02169 0.0
C1500 C 0.92013 0.43792 0.03837 0.0
C1501 C 0.90304 0.43383 0.99311 0.0
C1502 C 0.90252 0.46088 0.96576 0.0
H1503 H 0.89126 0.47181 0.74888 0.0
H1504 H 0.88427 0.45993 0.81636 0.0
H1505 H 0.90109 0.47575 0.94446 0.0
H1506 H 0.9345 0.45616 0.03593 0.0
H1507 H 0.92448 0.4629 0.98668 0.0
H1508 H 0.89851 0.43788 0.90058 0.0
C1509 C 0.89237 0.46842 0.81741 0.0
C1510 C 0.90008 0.46729 0.93491 0.0
C1511 C 0.8963 0.47524 0.77901 0.0
C1512 C 0.92576 0.44975 0.02417 0.0
C1513 C 0.91997 0.45366 -0.0037 0.0
C1514 C 0.89861 0.44587 0.91091 0.0
C1515 C 0.89947 0.47199 0.85548 0.0
C1516 C 0.89764 0.46345 0.89098 0.0
C1517 C 0.90846 0.44584 0.98147 0.0
C1518 C 0.90249 0.4505 0.95324 0.0
H1519 H 0.92261 0.49763 0.81714 0.0
H1520 H 0.91566 0.48605 0.88437 0.0
H1521 H 0.8944 0.44915 0.84624 0.0
H1522 H 0.90424 0.42073 0.03206 0.0
H1523 H 0.89422 0.42762 0.98144 0.0
C1524 C 0.58014 0.48244 0.95963 0.0
C1525 C 0.56951 0.4823 0.96945 0.0
C1526 C 0.58003 0.47365 0.93268 0.0
C1527 C 0.56178 0.44325 0.90005 0.0
H1528 H 0.56921 0.45167 0.77731 0.0
C1529 C 0.52993 0.41949 0.7664 0.0
C1530 C 0.53352 0.42264 0.7227 0.0
C1531 C 0.53841 0.42275 0.79965 0.0
C1532 C 0.56742 0.44897 0.81146 0.0
H1533 H 0.5505 0.47289 0.95816 0.0
H1534 H 0.55038 0.45764 0.91213 0.0
H1535 H 0.57738 0.467 0.83293 0.0
H1536 H 0.5484 0.4297 0.67798 0.0
H1537 H 0.5632 0.43469 0.73557 0.0
H1538 H 0.5512 0.42531 0.87868 0.0
C1539 C 0.55875 0.4645 0.92533 0.0
C1540 C 0.57214 0.45786 0.84337 0.0
C1541 C 0.55886 0.47335 0.95124 0.0
C1542 C 0.54547 0.42722 0.71169 0.0
C1543 C 0.55394 0.43023 0.74481 0.0
C1544 C 0.55721 0.4343 0.86824 0.0
C1545 C 0.56927 0.46448 0.91632 0.0
C1546 C 0.56864 0.45514 0.88735 0.0
C1547 C 0.55059 0.42914 0.78939 0.0
C1548 C 0.55915 0.43719 0.82319 0.0
H1549 H 0.58847 0.48921 0.9733 0.0
H1550 H 0.58826 0.47386 0.92532 0.0
H1551 H 0.55904 0.44099 0.93404 0.0
H1552 H 0.52075 0.41603 0.77556 0.0
H1553 H 0.53535 0.42162 0.8334 0.0
C1554 C 0.55846 0.10822 0.67906 0.0
C1555 C 0.56571 0.10376 0.69324 0.0
C1556 C 0.55322 0.11216 0.70972 0.0
C1557 C 0.54866 0.11362 0.8317 0.0
H1558 H 0.51572 0.09472 0.79709 0.0
C1559 C 0.50528 0.07539 0.91413 0.0
C1560 C 0.50476 0.08027 0.95465 0.0
C1561 C 0.51221 0.08267 0.87994 0.0
C1562 C 0.52486 0.10021 0.80716 0.0
H1563 H 0.57435 0.10119 0.74945 0.0
H1564 H 0.56487 0.10754 0.80326 0.0
H1565 H 0.531 0.1015 0.74146 0.0
H1566 H 0.51064 0.09663 0.99069 0.0
H1567 H 0.52309 0.10944 0.93077 0.0
H1568 H 0.54232 0.11126 0.89818 0.0
C1569 C 0.56337 0.10835 0.76867 0.0
C1570 C 0.5337 0.10424 0.77516 0.0
C1571 C 0.56885 0.1047 0.73781 0.0
C1572 C 0.51083 0.09265 0.95961 0.0
C1573 C 0.518 0.09996 0.92553 0.0
C1574 C 0.53977 0.10954 0.86382 0.0
C1575 C 0.55479 0.11125 0.75515 0.0
C1576 C 0.54575 0.11043 0.78721 0.0
C1577 C 0.51894 0.095 0.88571 0.0
C1578 C 0.52784 0.10223 0.85194 0.0
H1579 H 0.55595 0.10759 0.6447 0.0
H1580 H 0.54699 0.11473 0.69802 0.0
H1581 H 0.55782 0.11855 0.84209 0.0
H1582 H 0.50068 0.06588 0.90945 0.0
H1583 H 0.51287 0.07857 0.84985 0.0
C1584 C 0.51631 0.07712 0.20657 0.0
C1585 C 0.51667 0.07092 0.16927 0.0
C1586 C 0.52366 0.07882 0.24273 0.0
C1587 C 0.54351 0.08494 0.30927 0.0
H1588 H 0.54411 0.05667 0.34472 0.0
C1589 C 0.54958 0.06384 0.47768 0.0
C1590 C 0.5599 0.07338 0.49536 0.0
C1591 C 0.54633 0.06411 0.43415 0.0
C1592 C 0.54408 0.06466 0.33511 0.0
H1593 H 0.52554 0.0623 0.13962 0.0
H1594 H 0.53836 0.06536 0.20234 0.0
H1595 H 0.53463 0.05675 0.27571 0.0
H1596 H 0.57515 0.09052 0.4808 0.0
H1597 H 0.56938 0.09101 0.40433 0.0
H1598 H 0.55256 0.09265 0.36982 0.0
C1599 C 0.53225 0.06869 0.20405 0.0
C1600 C 0.53874 0.06475 0.2954 0.0
C1601 C 0.52491 0.06698 0.16805 0.0
C1602 C 0.56716 0.08302 0.46802 0.0
C1603 C 0.56382 0.08335 0.42443 0.0
C1604 C 0.54891 0.08486 0.34901 0.0
C1605 C 0.53151 0.07437 0.24221 0.0
C1606 C 0.5382 0.07481 0.2824 0.0
C1607 C 0.55327 0.07396 0.40733 0.0
C1608 C 0.54902 0.07463 0.36273 0.0
H1609 H 0.51007 0.08029 0.20851 0.0
H1610 H 0.52281 0.08316 0.2718 0.0
H1611 H 0.54332 0.09286 0.29991 0.0
H1612 H 0.54381 0.05627 0.49787 0.0
H1613 H 0.53809 0.0568 0.42205 0.0
C1614 C 0.90663 0.41944 0.28571 0.0
C1615 C 0.91214 0.42886 0.25574 0.0
C1616 C 0.90127 0.42068 0.32377 0.0
C1617 C 0.89091 0.43938 0.37748 0.0
H1618 H 0.9075 0.43746 0.48018 0.0
C1619 C 0.90437 0.47188 0.52079 0.0
C1620 C 0.90662 0.46871 0.5623 0.0
C1621 C 0.90044 0.46374 0.48615 0.0
C1622 C 0.90246 0.43776 0.4524 0.0
H1623 H 0.91559 0.44651 0.23983 0.0
H1624 H 0.90616 0.44859 0.30553 0.0
H1625 H 0.90825 0.42822 0.41195 0.0
H1626 H 0.90543 0.45427 0.60155 0.0
H1627 H 0.89816 0.43994 0.54168 0.0
H1628 H 0.88549 0.44934 0.41745 0.0
C1629 C 0.90599 0.4403 0.30007 0.0
C1630 C 0.9029 0.43244 0.41317 0.0
C1631 C 0.91152 0.43917 0.26275 0.0
C1632 C 0.904 0.45702 0.56954 0.0
C1633 C 0.89986 0.44881 0.5352 0.0
C1634 C 0.89033 0.4446 0.4169 0.0
C1635 C 0.90112 0.43123 0.33158 0.0
C1636 C 0.89764 0.43371 0.37486 0.0
C1637 C 0.89849 0.4522 0.49263 0.0
C1638 C 0.89661 0.44437 0.45422 0.0
H1639 H 0.90697 0.4114 0.28087 0.0
H1640 H 0.8976 0.41359 0.34775 0.0
H1641 H 0.88667 0.44037 0.34837 0.0
H1642 H 0.9063 0.48084 0.51439 0.0
H1643 H 0.89963 0.46674 0.45377 0.0
C1644 C 0.53309 0.4524 0.51299 0.0
C1645 C 0.52299 0.44138 0.52147 0.0
C1646 C 0.53754 0.45547 0.4704 0.0
C1647 C 0.52894 0.4512 0.35678 0.0
H1648 H 0.56249 0.46438 0.33398 0.0
C1649 C 0.56592 0.4845 0.22457 0.0
C1650 C 0.55899 0.48072 0.18626 0.0
C1651 C 0.56179 0.47798 0.26353 0.0
C1652 C 0.55312 0.46081 0.33983 0.0
H1653 H 0.50956 0.42496 0.49195 0.0
H1654 H 0.51721 0.43058 0.41662 0.0
H1655 H 0.55447 0.45614 0.4064 0.0
H1656 H 0.54275 0.46678 0.15749 0.0
H1657 H 0.53578 0.45516 0.22468 0.0
H1658 H 0.52759 0.45645 0.29151 0.0
C1659 C 0.52171 0.43671 0.44339 0.0
C1660 C 0.54854 0.45602 0.38116 0.0
C1661 C 0.51735 0.43352 0.48632 0.0
C1662 C 0.54818 0.47 0.18684 0.0
C1663 C 0.54416 0.46338 0.22544 0.0
C1664 C 0.53354 0.45614 0.31568 0.0
C1665 C 0.53189 0.44768 0.43526 0.0
C1666 C 0.53645 0.45136 0.39014 0.0
C1667 C 0.55074 0.46745 0.26461 0.0
C1668 C 0.54573 0.46119 0.30691 0.0
H1669 H 0.53769 0.45862 0.53938 0.0
H1670 H 0.54531 0.46405 0.46481 0.0
H1671 H 0.51961 0.44778 0.36318 0.0
H1672 H 0.57427 0.49276 0.22498 0.0
H1673 H 0.56704 0.48148 0.29313 0.0
C1674 C 0.43096 0.24781 0.6359 0.0
C1675 C 0.41865 0.24272 0.64094 0.0
C1676 C 0.43776 0.24672 0.66933 0.0
C1677 C 0.44455 0.23147 0.72688 0.0
H1678 H 0.43803 0.2326 0.85073 0.0
C1679 C 0.43457 0.19496 0.84847 0.0
C1680 C 0.43516 0.19739 0.89362 0.0
C1681 C 0.43916 0.20424 0.81804 0.0
C1682 C 0.44032 0.23248 0.81653 0.0
H1683 H 0.40393 0.23339 0.68582 0.0
H1684 H 0.41578 0.23178 0.74451 0.0
H1685 H 0.43295 0.24326 0.79779 0.0
H1686 H 0.4422 0.21117 0.94305 0.0
H1687 H 0.45069 0.22742 0.89011 0.0
H1688 H 0.4512 0.22002 0.74536 0.0
C1689 C 0.42021 0.23652 0.71477 0.0
C1690 C 0.43729 0.23853 0.78615 0.0
C1691 C 0.4134 0.23738 0.68113 0.0
C1692 C 0.44174 0.20913 0.90823 0.0
C1693 C 0.44647 0.21842 0.8779 0.0
C1694 C 0.44756 0.22535 0.75734 0.0
C1695 C 0.43237 0.2408 0.70863 0.0
C1696 C 0.43878 0.23756 0.7409 0.0
C1697 C 0.44439 0.21607 0.83255 0.0
C1698 C 0.44488 0.22527 0.80226 0.0
H1699 H 0.43521 0.2519 0.60504 0.0
H1700 H 0.44711 0.25009 0.66385 0.0
H1701 H 0.4458 0.23056 0.69211 0.0
H1702 H 0.42935 0.18595 0.8366 0.0
H1703 H 0.43735 0.20206 0.78344 0.0
C1704 C 0.77884 0.17134 0.68004 0.0
C1705 C 0.76917 0.1707 0.65714 0.0
C1706 C 0.78242 0.17726 0.72014 0.0
C1707 C 0.77497 0.18881 0.81549 0.0
H1708 H 0.80827 0.21273 0.81116 0.0
C1709 C 0.81523 0.2274 0.92885 0.0
C1710 C 0.81414 0.22054 0.96614 0.0
C1711 C 0.80776 0.22227 0.89261 0.0
C1712 C 0.79892 0.20626 0.81276 0.0
H1713 H 0.75502 0.17486 0.66024 0.0
H1714 H 0.76128 0.18516 0.73138 0.0
H1715 H 0.79867 0.20098 0.74592 0.0
H1716 H 0.80381 0.20318 -0.00408 0.0
H1717 H 0.7909 0.19426 0.93265 0.0
H1718 H 0.77539 0.19386 0.88308 0.0
C1719 C 0.7661 0.18114 0.71764 0.0
C1720 C 0.79346 0.19945 0.77556 0.0
C1721 C 0.76252 0.17523 0.6771 0.0
C1722 C 0.80497 0.20868 0.96751 0.0
C1723 C 0.79747 0.20358 0.93142 0.0
C1724 C 0.78049 0.19557 0.85309 0.0
C1725 C 0.77637 0.1826 0.73843 0.0
C1726 C 0.78154 0.19049 0.77689 0.0
C1727 C 0.79902 0.21022 0.89309 0.0
C1728 C 0.79259 0.20421 0.85225 0.0
H1729 H 0.78406 0.1678 0.66592 0.0
H1730 H 0.79023 0.17808 0.73608 0.0
H1731 H 0.76574 0.18197 0.81712 0.0
H1732 H 0.82214 0.23659 0.9269 0.0
H1733 H 0.80906 0.22763 0.86361 0.0
C1734 C 0.77713 0.58485 0.95942 0.0
C1735 C 0.78271 0.59013 -0.00063 0.0
C1736 C 0.78351 0.5833 0.92561 0.0
C1737 C 0.79837 0.57826 0.8613 0.0
H1738 H 0.82844 0.60689 0.84138 0.0
C1739 C 0.82653 0.60529 0.70449 0.0
C1740 C 0.82674 0.59639 0.67926 0.0
C1741 C 0.82349 0.60345 0.74893 0.0
C1742 C 0.82013 0.59878 0.84676 0.0
H1743 H 0.79905 0.59695 0.03665 0.0
H1744 H 0.81008 0.59409 0.97801 0.0
H1745 H 0.81769 0.60462 0.90951 0.0
H1746 H 0.8246 0.57881 0.68119 0.0
H1747 H 0.8191 0.5755 0.75929 0.0
H1748 H 0.80054 0.57279 0.79711 0.0
C1749 C 0.80088 0.59143 0.97234 0.0
C1750 C 0.814 0.59742 0.88595 0.0
C1751 C 0.79454 0.59304 0.00596 0.0
C1752 C 0.82453 0.58584 0.69995 0.0
C1753 C 0.82131 0.58391 0.74446 0.0
C1754 C 0.80453 0.57962 0.82206 0.0
C1755 C 0.79557 0.58693 0.93125 0.0
C1756 C 0.80287 0.58732 0.89306 0.0
C1757 C 0.82048 0.5926 0.76903 0.0
C1758 C 0.81528 0.59008 0.81382 0.0
H1759 H 0.76802 0.5825 0.95337 0.0
H1760 H 0.77917 0.57989 0.89423 0.0
H1761 H 0.78988 0.57032 0.86608 0.0
H1762 H 0.82823 0.61353 0.68942 0.0
H1763 H 0.82281 0.61027 0.76685 0.0
C1764 C 0.42919 0.91809 0.51176 0.0
C1765 C 0.43704 0.91972 0.47723 0.0
C1766 C 0.43199 0.91669 0.5551 0.0
C1767 C 0.45004 0.90803 0.62052 0.0
H1768 H 0.45359 0.93204 0.70417 0.0
C1769 C 0.46913 0.92658 0.8077 0.0
C1770 C 0.47949 0.92581 0.80561 0.0
C1771 C 0.46155 0.92345 0.77144 0.0
C1772 C 0.45239 0.92506 0.68178 0.0
H1773 H 0.45367 0.92066 0.46053 0.0
H1774 H 0.45838 0.91798 0.53569 0.0
H1775 H 0.44405 0.93047 0.63348 0.0
H1776 H 0.48987 0.92086 0.76432 0.0
H1777 H 0.47693 0.9158 0.70059 0.0
H1778 H 0.45848 0.90267 0.66824 0.0
C1779 C 0.45015 0.91788 0.52944 0.0
C1780 C 0.44694 0.92419 0.64125 0.0
C1781 C 0.4475 0.91953 0.48652 0.0
C1782 C 0.48194 0.92152 0.76699 0.0
C1783 C 0.47444 0.91853 0.73053 0.0
C1784 C 0.45534 0.90877 0.66125 0.0
C1785 C 0.4425 0.91658 0.56417 0.0
C1786 C 0.44608 0.91593 0.60978 0.0
C1787 C 0.46424 0.91962 0.73207 0.0
C1788 C 0.45696 0.91758 0.69178 0.0
H1789 H 0.42107 0.9182 0.50542 0.0
H1790 H 0.42599 0.91573 0.58151 0.0
H1791 H 0.44937 0.90151 0.59679 0.0
H1792 H 0.46692 0.92972 0.83725 0.0
H1793 H 0.45366 0.92418 0.77412 0.0
C1794 C 0.10671 0.56395 0.75717 0.0
C1795 C 0.10356 0.57275 0.75457 0.0
C1796 C 0.11243 0.56205 0.72209 0.0
C1797 C 0.10865 0.56372 0.60539 0.0
H1798 H 0.11823 0.53996 0.60774 0.0
C1799 C 0.08055 0.51962 0.52855 0.0
C1800 C 0.08535 0.51565 0.49586 0.0
C1801 C 0.0879 0.52922 0.55504 0.0
C1802 C 0.11579 0.54676 0.60606 0.0
H1803 H 0.10579 0.58788 0.7174 0.0
H1804 H 0.11605 0.58474 0.65598 0.0
H1805 H 0.1254 0.55529 0.66478 0.0
H1806 H 0.10173 0.51805 0.4678 0.0
H1807 H 0.11468 0.53486 0.51547 0.0
H1808 H 0.09852 0.55478 0.5483 0.0
C1809 C 0.11377 0.57903 0.6845 0.0
C1810 C 0.11983 0.55551 0.63877 0.0
C1811 C 0.10797 0.58091 0.7198 0.0
C1812 C 0.09776 0.52092 0.49269 0.0
C1813 C 0.10517 0.53056 0.51965 0.0
C1814 C 0.10471 0.55507 0.57278 0.0
C1815 C 0.11503 0.5689 0.68354 0.0
C1816 C 0.11549 0.56348 0.64083 0.0
C1817 C 0.10023 0.53504 0.54972 0.0
C1818 C 0.10755 0.54604 0.57476 0.0
H1819 H 0.10361 0.55769 0.78424 0.0
H1820 H 0.11333 0.55425 0.72331 0.0
H1821 H 0.10511 0.56966 0.60525 0.0
H1822 H 0.07105 0.51569 0.53227 0.0
H1823 H 0.08391 0.53237 0.57886 0.0
C1824 C 0.4367 0.53583 0.78756 0.0
C1825 C 0.43126 0.52375 0.77722 0.0
C1826 C 0.44175 0.54433 0.75448 0.0
C1827 C 0.44733 0.54919 0.63403 0.0
H1828 H 0.48014 0.56764 0.67126 0.0
C1829 C 0.49317 0.56389 0.54788 0.0
C1830 C 0.49259 0.5698 0.51016 0.0
C1831 C 0.4858 0.56217 0.58377 0.0
C1832 C 0.47099 0.56274 0.66059 0.0
H1833 H 0.42576 0.51094 0.72447 0.0
H1834 H 0.43471 0.5258 0.66622 0.0
H1835 H 0.46477 0.5568 0.72577 0.0
H1836 H 0.48444 0.57922 0.48142 0.0
H1837 H 0.47131 0.57591 0.54398 0.0
H1838 H 0.45377 0.55467 0.56833 0.0
C1839 C 0.43493 0.52875 0.69974 0.0
C1840 C 0.46215 0.55658 0.69176 0.0
C1841 C 0.42977 0.52023 0.73298 0.0
C1842 C 0.48514 0.57471 0.51024 0.0
C1843 C 0.47756 0.57275 0.54579 0.0
C1844 C 0.45618 0.5555 0.60285 0.0
C1845 C 0.44162 0.54086 0.7106 0.0
C1846 C 0.45029 0.54937 0.67863 0.0
C1847 C 0.47757 0.56613 0.58219 0.0
C1848 C 0.46813 0.56194 0.61576 0.0
H1849 H 0.43797 0.53871 0.82163 0.0
H1850 H 0.44667 0.55359 0.76369 0.0
H1851 H 0.43826 0.54374 0.62304 0.0
H1852 H 0.49882 0.56001 0.5486 0.0
H1853 H 0.48593 0.55698 0.61139 0.0
C1854 C 0.56576 0.81205 0.09287 0.0
C1855 C 0.5769 0.82173 0.10325 0.0
C1856 C 0.55975 0.80301 0.12371 0.0
C1857 C 0.55978 0.7934 0.23839 0.0
H1858 H 0.56273 0.76792 0.18539 0.0
C1859 C 0.56483 0.75968 0.34379 0.0
C1860 C 0.57664 0.76244 0.33832 0.0
C1861 C 0.55945 0.76331 0.31233 0.0
C1862 C 0.56149 0.77476 0.20046 0.0
H1863 H 0.58994 0.83032 0.15463 0.0
H1864 H 0.57924 0.81486 0.20917 0.0
H1865 H 0.56207 0.78278 0.13839 0.0
H1866 H 0.59174 0.77013 0.29451 0.0
H1867 H 0.58218 0.77596 0.23855 0.0
H1868 H 0.56008 0.78582 0.30063 0.0
C1869 C 0.57514 0.81413 0.17738 0.0
C1870 C 0.56106 0.78323 0.17365 0.0
C1871 C 0.58128 0.82299 0.14625 0.0
C1872 C 0.5826 0.76784 0.2992 0.0
C1873 C 0.57712 0.77115 0.26725 0.0
C1874 C 0.55997 0.78479 0.26518 0.0
C1875 C 0.56471 0.80373 0.16549 0.0
C1876 C 0.56089 0.79299 0.19252 0.0
C1877 C 0.56571 0.76939 0.27448 0.0
C1878 C 0.56151 0.77579 0.24645 0.0
H1879 H 0.56234 0.81083 0.05957 0.0
H1880 H 0.55175 0.79505 0.11379 0.0
H1881 H 0.55969 0.80087 0.25365 0.0
H1882 H 0.56012 0.75566 0.37405 0.0
H1883 H 0.55068 0.76195 0.31864 0.0
C1884 C 0.20823 0.79913 0.40352 0.0
C1885 C 0.22033 0.80478 0.41402 0.0
C1886 C 0.20342 0.79006 0.37262 0.0
C1887 C 0.19387 0.76679 0.3267 0.0
H1888 H 0.20751 0.77207 0.20983 0.0
C1889 C 0.16837 0.75608 0.16823 0.0
C1890 C 0.17251 0.75316 0.13044 0.0
C1891 C 0.17396 0.75734 0.2086 0.0
C1892 C 0.20375 0.77024 0.24265 0.0
H1893 H 0.23699 0.80561 0.3991 0.0
H1894 H 0.22851 0.7897 0.34401 0.0
H1895 H 0.2189 0.78542 0.26963 0.0
H1896 H 0.18505 0.74836 0.10507 0.0
H1897 H 0.19516 0.75095 0.17585 0.0
H1898 H 0.17833 0.75222 0.29876 0.0
C1899 C 0.22278 0.7923 0.3603 0.0
C1900 C 0.21026 0.77792 0.27687 0.0
C1901 C 0.22764 0.80145 0.39153 0.0
C1902 C 0.18163 0.75046 0.13413 0.0
C1903 C 0.18745 0.75201 0.17441 0.0
C1904 C 0.18734 0.75917 0.29248 0.0
C1905 C 0.21056 0.78635 0.35133 0.0
C1906 C 0.20511 0.77665 0.31857 0.0
C1907 C 0.18399 0.75601 0.21145 0.0
C1908 C 0.19199 0.76122 0.24967 0.0
H1909 H 0.20236 0.80156 0.41986 0.0
H1910 H 0.19405 0.78594 0.36533 0.0
H1911 H 0.18981 0.76542 0.35891 0.0
H1912 H 0.16142 0.75832 0.16584 0.0
H1913 H 0.17118 0.76055 0.23647 0.0
C1914 C 0.24477 0.44881 0.06462 0.0
C1915 C 0.24672 0.43925 0.0699 0.0
C1916 C 0.24245 0.4538 0.10129 0.0
C1917 C 0.23516 0.44787 0.22217 0.0
H1918 H 0.20481 0.44272 0.18049 0.0
C1919 C 0.19114 0.41261 0.28512 0.0
C1920 C 0.18382 0.41599 0.30725 0.0
C1921 C 0.201 0.42091 0.26187 0.0
C1922 C 0.21335 0.44454 0.1929 0.0
H1923 H 0.2496 0.42854 0.11698 0.0
H1924 H 0.24523 0.43683 0.18071 0.0
H1925 H 0.2213 0.44982 0.12973 0.0
H1926 H 0.18075 0.43063 0.31989 0.0
H1927 H 0.19792 0.44511 0.27697 0.0
H1928 H 0.22651 0.44106 0.28411 0.0
C1929 C 0.24563 0.44078 0.14895 0.0
C1930 C 0.2229 0.44868 0.16388 0.0
C1931 C 0.24818 0.43598 0.1123 0.0
C1932 C 0.1862 0.42774 0.30315 0.0
C1933 C 0.19605 0.43605 0.27912 0.0
C1934 C 0.22554 0.44356 0.25097 0.0
C1935 C 0.24163 0.44895 0.14341 0.0
C1936 C 0.23367 0.44954 0.17733 0.0
C1937 C 0.20369 0.43272 0.25961 0.0
C1938 C 0.21441 0.4412 0.23565 0.0
H1939 H 0.24361 0.45146 0.03199 0.0
H1940 H 0.23985 0.46039 0.09596 0.0
H1941 H 0.2434 0.44875 0.23401 0.0
H1942 H 0.18959 0.40366 0.28737 0.0
H1943 H 0.20668 0.41814 0.24611 0.0
C1944 C 0.23484 0.42031 0.81682 0.0
C1945 C 0.22782 0.42033 0.85182 0.0
C1946 C 0.23217 0.42181 0.7735 0.0
C1947 C 0.21468 0.4312 0.70571 0.0
H1948 H 0.21004 0.40542 0.62935 0.0
C1949 C 0.18261 0.4154 0.55773 0.0
C1950 C 0.18528 0.4105 0.5214 0.0
C1951 C 0.18996 0.41901 0.59485 0.0
C1952 C 0.21152 0.41286 0.64967 0.0
H1953 H 0.21301 0.42273 0.86934 0.0
H1954 H 0.20839 0.42533 0.79411 0.0
H1955 H 0.21981 0.40803 0.69987 0.0
H1956 H 0.19811 0.40632 0.49389 0.0
H1957 H 0.21106 0.41293 0.55776 0.0
H1958 H 0.20612 0.43585 0.65581 0.0
C1959 C 0.21594 0.42416 0.79993 0.0
C1960 C 0.21714 0.41435 0.69016 0.0
C1961 C 0.21851 0.42253 0.843 0.0
C1962 C 0.19571 0.40984 0.52184 0.0
C1963 C 0.20312 0.41361 0.5585 0.0
C1964 C 0.20913 0.42977 0.66497 0.0
C1965 C 0.22255 0.42352 0.76468 0.0
C1966 C 0.2185 0.42334 0.71903 0.0
C1967 C 0.20018 0.41793 0.59593 0.0
C1968 C 0.20723 0.4204 0.63695 0.0
H1969 H 0.2421 0.41868 0.82271 0.0
H1970 H 0.23744 0.42134 0.74682 0.0
H1971 H 0.21572 0.43827 0.7273 0.0
H1972 H 0.17464 0.41603 0.55815 0.0
H1973 H 0.18737 0.42219 0.62329 0.0
C1974 C 0.5837 0.82042 0.84355 0.0
C1975 C 0.58402 0.81531 0.88383 0.0
C1976 C 0.58031 0.81363 0.80498 0.0
C1977 C 0.56951 0.79668 0.72798 0.0
H1978 H 0.58154 0.77493 0.71876 0.0
C1979 C 0.57331 0.76261 0.59651 0.0
C1980 C 0.57886 0.77051 0.56146 0.0
C1981 C 0.57087 0.76656 0.6358 0.0
C1982 C 0.5779 0.78078 0.72106 0.0
H1983 H 0.58018 0.79896 0.91621 0.0
H1984 H 0.57379 0.78703 0.8496 0.0
H1985 H 0.58324 0.78489 0.78807 0.0
H1986 H 0.58542 0.78851 0.53885 0.0
H1987 H 0.58109 0.79536 0.60723 0.0
H1988 H 0.56485 0.79299 0.65969 0.0
C1989 C 0.57662 0.79636 0.84713 0.0
C1990 C 0.57885 0.7865 0.7609 0.0
C1991 C 0.58023 0.80318 0.88539 0.0
C1992 C 0.58123 0.78223 0.56544 0.0
C1993 C 0.57866 0.78614 0.60445 0.0
C1994 C 0.56869 0.79104 0.68786 0.0
C1995 C 0.57698 0.80156 0.80618 0.0
C1996 C 0.57484 0.79467 0.76476 0.0
C1997 C 0.57378 0.77844 0.64044 0.0
C1998 C 0.57306 0.78318 0.6839 0.0
H1999 H 0.58658 0.82976 0.84151 0.0
H2000 H 0.58082 0.81799 0.77405 0.0
H2001 H 0.56614 0.80275 0.72993 0.0
H2002 H 0.57135 0.75352 0.59436 0.0
H2003 H 0.56703 0.76044 0.66304 0.0
C2004 C 0.19533 0.76512 0.88658 0.0
C2005 C 0.19699 0.77139 0.92599 0.0
C2006 C 0.20465 0.7687 0.8567 0.0
C2007 C 0.23108 0.79607 0.82403 0.0
H2008 H 0.2322 0.77543 0.73466 0.0
C2009 C 0.24888 0.81476 0.65536 0.0
C2010 C 0.23946 0.80888 0.62563 0.0
C2011 C 0.24882 0.80935 0.69529 0.0
C2012 C 0.2322 0.78132 0.75981 0.0
H2013 H 0.20995 0.78564 0.96689 0.0
H2014 H 0.22624 0.79173 0.91518 0.0
H2015 H 0.22178 0.767 0.8038 0.0
H2016 H 0.22341 0.79243 0.61124 0.0
H2017 H 0.22334 0.78296 0.68006 0.0
H2018 H 0.24078 0.81027 0.77912 0.0
C2019 C 0.21768 0.78426 0.90671 0.0
C2020 C 0.22616 0.7765 0.79921 0.0
C2021 C 0.20833 0.78078 0.93631 0.0
C2022 C 0.2307 0.79716 0.63402 0.0
C2023 C 0.23075 0.79169 0.67327 0.0
C2024 C 0.23716 0.80089 0.7848 0.0
C2025 C 0.21585 0.77853 0.86587 0.0
C2026 C 0.22492 0.78375 0.83055 0.0
C2027 C 0.23946 0.79794 0.70533 0.0
C2028 C 0.23712 0.79347 0.7512 0.0
H2029 H 0.1867 0.7578 0.87785 0.0
H2030 H 0.20284 0.76416 0.82533 0.0
H2031 H 0.23031 0.80195 0.84725 0.0
H2032 H 0.25573 0.82382 0.64936 0.0
H2033 H 0.25565 0.81434 0.71943 0.0
C2034 C 0.07604 0.56684 0.98656 0.0
C2035 C 0.07313 0.55855 0.95241 0.0
C2036 C 0.07737 0.56392 0.0298 0.0
C2037 C 0.08633 0.54643 0.09215 0.0
H2038 H 0.06292 0.5413 0.18107 0.0
C2039 C 0.07824 0.51631 0.24138 0.0
C2040 C 0.07399 0.51847 0.28069 0.0
C2041 C 0.07983 0.52325 0.20414 0.0
C2042 C 0.06974 0.54295 0.15718 0.0
H2043 H 0.06944 0.54077 0.9367 0.0
H2044 H 0.07206 0.53588 0.01165 0.0
H2045 H 0.06272 0.5503 0.11089 0.0
H2046 H 0.06874 0.52998 0.31283 0.0
H2047 H 0.07197 0.54237 0.24859 0.0
H2048 H 0.0934 0.53912 0.13783 0.0
C2049 C 0.07317 0.54454 0.00502 0.0
C2050 C 0.06957 0.54808 0.11699 0.0
C2051 C 0.07159 0.54733 0.96227 0.0
C2052 C 0.07186 0.528 0.28269 0.0
C2053 C 0.07366 0.53507 0.24577 0.0
C2054 C 0.08665 0.5415 0.13257 0.0
C2055 C 0.07611 0.55281 0.03899 0.0
C2056 C 0.07765 0.54953 0.08386 0.0
C2057 C 0.07742 0.53263 0.20571 0.0
C2058 C 0.07812 0.53935 0.16511 0.0
H2059 H 0.07729 0.57555 0.97984 0.0
H2060 H 0.07958 0.57038 0.05583 0.0
H2061 H 0.09265 0.54752 0.06684 0.0
H2062 H 0.07991 0.50899 0.2389 0.0
H2063 H 0.08254 0.52095 0.17376 0.0
C2064 C 0.43496 0.52458 0.01205 0.0
C2065 C 0.4277 0.51264 0.00077 0.0
C2066 C 0.43526 0.52836 0.05512 0.0
C2067 C 0.4346 0.51749 0.16261 0.0
H2068 H 0.44077 0.54873 0.19659 0.0
C2069 C 0.47089 0.55795 0.27107 0.0
C2070 C 0.47185 0.55168 0.30688 0.0
C2071 C 0.46134 0.55243 0.24201 0.0
C2072 C 0.43903 0.53996 0.18776 0.0
H2073 H 0.41451 0.49536 0.0245 0.0
H2074 H 0.41539 0.50192 0.10117 0.0
H2075 H 0.43038 0.53993 0.12771 0.0
H2076 H 0.46309 0.53503 0.34245 0.0
H2077 H 0.4463 0.52549 0.29234 0.0
H2078 H 0.44411 0.51784 0.22023 0.0
C2079 C 0.42068 0.50836 0.07628 0.0
C2080 C 0.43299 0.53489 0.14857 0.0
C2081 C 0.42018 0.50462 0.03265 0.0
C2082 C 0.4627 0.54002 0.31462 0.0
C2083 C 0.45308 0.53455 0.2859 0.0
C2084 C 0.44073 0.52259 0.20155 0.0
C2085 C 0.42848 0.52022 0.08802 0.0
C2086 C 0.43126 0.52387 0.13463 0.0
C2087 C 0.45246 0.54056 0.24846 0.0
C2088 C 0.44354 0.53413 0.21344 0.0
H2089 H 0.44076 0.53095 0.98782 0.0
H2090 H 0.44147 0.53751 0.06323 0.0
H2091 H 0.43349 0.50903 0.15248 0.0
H2092 H 0.47778 0.56695 0.26433 0.0
H2093 H 0.46128 0.55729 0.21322 0.0
C2094 C 0.49057 0.92271 0.06196 0.0
C2095 C 0.49112 0.91821 0.02065 0.0
C2096 C 0.48306 0.91518 0.09454 0.0
C2097 C 0.46771 0.89686 0.16212 0.0
H2098 H 0.43583 0.88345 0.11572 0.0
C2099 C 0.43214 0.89165 0.27779 0.0
C2100 C 0.42777 0.89889 0.26257 0.0
C2101 C 0.43703 0.88706 0.24819 0.0
C2102 C 0.44464 0.88689 0.12924 0.0
H2103 H 0.48487 0.90226 0.98165 0.0
H2104 H 0.47135 0.88905 0.03852 0.0
H2105 H 0.45243 0.88935 0.06524 0.0
H2106 H 0.42393 0.90609 0.20496 0.0
H2107 H 0.43239 0.89813 0.15313 0.0
H2108 H 0.46017 0.89547 0.22565 0.0
C2109 C 0.4769 0.89838 0.0458 0.0
C2110 C 0.45414 0.8902 0.10036 0.0
C2111 C 0.48466 0.90592 0.01345 0.0
C2112 C 0.42707 0.90035 0.2172 0.0
C2113 C 0.43195 0.89577 0.18757 0.0
C2114 C 0.45823 0.89351 0.19096 0.0
C2115 C 0.47577 0.90302 0.0861 0.0
C2116 C 0.46582 0.89589 0.11644 0.0
C2117 C 0.43773 0.88979 0.20308 0.0
C2118 C 0.44668 0.88919 0.1746 0.0
H2119 H 0.49545 0.93215 0.06822 0.0
H2120 H 0.48227 0.91903 0.12509 0.0
H2121 H 0.47662 0.90115 0.17532 0.0
H2122 H 0.4329 0.89058 0.31283 0.0
H2123 H 0.44127 0.88236 0.26106 0.0
C2124 C 0.23156 0.37434 0.0192 0.0
C2125 C 0.22355 0.37852 0.01395 0.0
C2126 C 0.22747 0.36255 0.03172 0.0
C2127 C 0.20023 0.3333 0.03226 0.0
H2128 H 0.2133 0.32592 0.13421 0.0
C2129 C 0.17212 0.29401 0.14196 0.0
C2130 C 0.1761 0.28608 0.15251 0.0
C2131 C 0.17959 0.30471 0.12121 0.0
C2132 C 0.20972 0.32783 0.10516 0.0
H2133 H 0.205 0.37355 0.01758 0.0
H2134 H 0.198 0.35326 0.03899 0.0
H2135 H 0.22359 0.34603 0.10331 0.0
H2136 H 0.19122 0.2834 0.15054 0.0
H2137 H 0.20448 0.30247 0.11475 0.0
H2138 H 0.18607 0.31536 0.03534 0.0
C2139 C 0.20739 0.35898 0.0332 0.0
C2140 C 0.21559 0.3393 0.08748 0.0
C2141 C 0.21144 0.37068 0.02122 0.0
C2142 C 0.18789 0.2893 0.14273 0.0
C2143 C 0.19547 0.30019 0.12237 0.0
C2144 C 0.19437 0.32192 0.04995 0.0
C2145 C 0.21531 0.35474 0.03847 0.0
C2146 C 0.21063 0.34224 0.05191 0.0
C2147 C 0.19128 0.30788 0.1108 0.0
C2148 C 0.19881 0.31919 0.08753 0.0
H2149 H 0.24095 0.38018 0.01397 0.0
H2150 H 0.23377 0.35951 0.03565 0.0
H2151 H 0.19632 0.33524 0.00427 0.0
H2152 H 0.16312 0.29187 0.14896 0.0
H2153 H 0.1762 0.31056 0.11325 0.0
C2154 C 0.71868 0.89993 0.0459 0.0
C2155 C 0.72505 0.90737 0.08118 0.0
C2156 C 0.70803 0.89892 0.0322 0.0
C2157 C 0.68268 0.89981 0.07483 0.0
H2158 H 0.67332 0.89427 0.9519 0.0
C2159 C 0.63346 0.87501 0.02015 0.0
C2160 C 0.63113 0.86484 -0.00379 0.0
C2161 C 0.64517 0.88413 0.02666 0.0
C2162 C 0.67582 0.89597 0.98632 0.0
H2163 H 0.72542 0.91988 0.12903 0.0
H2164 H 0.70645 0.91788 0.10549 0.0
H2165 H 0.69426 0.90373 0.97139 0.0
H2166 H 0.63902 0.85653 0.95803 0.0
H2167 H 0.65928 0.87245 0.96831 0.0
H2168 H 0.66415 0.89135 0.08974 0.0
C2169 C 0.70985 0.91293 0.08835 0.0
C2170 C 0.68779 0.90135 -0.00251 0.0
C2171 C 0.72069 0.91409 0.10171 0.0
C2172 C 0.64058 0.86425 0.97675 0.0
C2173 C 0.65217 0.87342 0.98238 0.0
C2174 C 0.67068 0.89444 0.06361 0.0
C2175 C 0.70337 0.90523 0.05365 0.0
C2176 C 0.69129 0.90274 0.04191 0.0
C2177 C 0.65464 0.88331 0.00826 0.0
C2178 C 0.66713 0.89192 0.01934 0.0
H2179 H 0.72184 0.89469 0.02921 0.0
H2180 H 0.70318 0.89277 0.00589 0.0
H2181 H 0.68511 0.90073 0.10934 0.0
H2182 H 0.62631 0.87562 0.03567 0.0
H2183 H 0.64685 0.89166 0.04685 0.0
C2184 C 0.14266 0.77887 0.95979 0.0
C2185 C 0.14083 0.76813 0.9773 0.0
C2186 C 0.13368 0.78169 0.96091 0.0
C2187 C 0.10968 0.77714 0.03222 0.0
H2188 H 0.10627 0.79722 0.94627 0.0
C2189 C 0.08982 0.80665 0.07877 0.0
C2190 C 0.09736 0.81854 0.06696 0.0
C2191 C 0.09147 0.79769 0.06065 0.0
C2192 C 0.10704 0.79155 0.97052 0.0
H2193 H 0.12795 0.75157 0.00735 0.0
H2194 H 0.11217 0.75662 0.0101 0.0
H2195 H 0.11567 0.78582 0.9249 0.0
H2196 H 0.11211 0.83028 0.02523 0.0
H2197 H 0.11496 0.81479 0.9939 0.0
H2198 H 0.10172 0.78343 0.07858 0.0
C2199 C 0.12058 0.76281 0.99526 0.0
C2200 C 0.11239 0.78501 0.95825 0.0
C2201 C 0.12956 0.7599 0.99343 0.0
C2202 C 0.10619 0.82122 0.03528 0.0
C2203 C 0.10775 0.81231 0.01692 0.0
C2204 C 0.10433 0.7837 0.04453 0.0
C2205 C 0.12268 0.7739 0.98015 0.0
C2206 C 0.11427 0.77817 0.98951 0.0
C2207 C 0.10057 0.80046 0.02991 0.0
C2208 C 0.10347 0.79141 0.01434 0.0
H2209 H 0.15126 0.78536 0.94706 0.0
H2210 H 0.13565 0.79035 0.94943 0.0
H2211 H 0.11107 0.77202 0.05717 0.0
H2212 H 0.08292 0.80431 0.10307 0.0
H2213 H 0.08578 0.78863 0.0712 0.0
C2214 C 0.301 0.20181 0.3144 0.0
C2215 C 0.28984 0.19982 0.3276 0.0
C2216 C 0.31126 0.21214 0.32679 0.0
C2217 C 0.33256 0.23471 0.35657 0.0
H2218 H 0.3303 0.23717 0.48305 0.0
C2219 C 0.37393 0.25154 0.46416 0.0
C2220 C 0.37224 0.24325 0.49709 0.0
C2221 C 0.36417 0.25125 0.44357 0.0
C2222 C 0.3311 0.23672 0.44767 0.0
H2223 H 0.28055 0.20762 0.35988 0.0
H2224 H 0.29855 0.22576 0.38162 0.0
H2225 H 0.31235 0.22755 0.43901 0.0
H2226 H 0.35909 0.22894 0.53706 0.0
H2227 H 0.3422 0.2284 0.50135 0.0
H2228 H 0.35126 0.24286 0.36584 0.0
C2229 C 0.29937 0.21926 0.3621 0.0
C2230 C 0.32079 0.23133 0.42224 0.0
C2231 C 0.28905 0.20891 0.34933 0.0
C2232 C 0.36069 0.23538 0.51156 0.0
C2233 C 0.35098 0.23515 0.49125 0.0
C2234 C 0.34287 0.24004 0.38205 0.0
C2235 C 0.31059 0.22069 0.35292 0.0
C2236 C 0.32137 0.22963 0.37672 0.0
C2237 C 0.35257 0.24276 0.45582 0.0
C2238 C 0.3422 0.24048 0.42821 0.0
H2239 H 0.30187 0.19499 0.29733 0.0
H2240 H 0.3197 0.21285 0.31924 0.0
H2241 H 0.33333 0.23376 0.32145 0.0
H2242 H 0.38273 0.25773 0.45233 0.0
H2243 H 0.3657 0.25732 0.41673 0.0
C2244 C 0.74756 0.12888 0.42474 0.0
C2245 C 0.75505 0.13219 0.46165 0.0
C2246 C 0.74692 0.12022 0.39562 0.0
C2247 C 0.75725 0.09826 0.38034 0.0
H2248 H 0.76577 0.11185 0.26342 0.0
C2249 C 0.79549 0.10788 0.2524 0.0
C2250 C 0.79632 0.09766 0.25887 0.0
C2251 C 0.78538 0.10817 0.26545 0.0
C2252 C 0.76333 0.10785 0.29579 0.0
H2253 H 0.76678 0.12833 0.49957 0.0
H2254 H 0.76565 0.11334 0.44971 0.0
H2255 H 0.75657 0.11912 0.31482 0.0
H2256 H 0.78658 0.07926 0.279 0.0
H2257 H 0.76878 0.07966 0.30074 0.0
H2258 H 0.76514 0.08791 0.3633 0.0
C2259 C 0.76024 0.11728 0.44265 0.0
C2260 C 0.75788 0.11191 0.32513 0.0
C2261 C 0.76098 0.12598 0.4712 0.0
C2262 C 0.78631 0.08734 0.27421 0.0
C2263 C 0.77612 0.0876 0.28695 0.0
C2264 C 0.76285 0.09432 0.35128 0.0
C2265 C 0.75363 0.11464 0.40348 0.0
C2266 C 0.75548 0.10768 0.36868 0.0
C2267 C 0.77577 0.09821 0.28494 0.0
C2268 C 0.76664 0.0996 0.30958 0.0
H2269 H 0.74293 0.13359 0.41664 0.0
H2270 H 0.74168 0.11832 0.36591 0.0
H2271 H 0.75522 0.09459 0.4133 0.0
H2272 H 0.80297 0.11597 0.24025 0.0
H2273 H 0.78557 0.11655 0.26348 0.0
C2274 C 0.89295 0.69078 0.22244 0.0
C2275 C 0.89966 0.70132 0.24611 0.0
C2276 C 0.88986 0.67988 0.24159 0.0
C2277 C 0.87473 0.6603 0.30343 0.0
H2278 H 0.89042 0.65423 0.4001 0.0
C2279 C 0.84869 0.63143 0.44732 0.0
C2280 C 0.85111 0.62271 0.46287 0.0
C2281 C 0.85613 0.63983 0.41687 0.0
C2282 C 0.88599 0.65571 0.37272 0.0
H2283 H 0.90939 0.70885 0.30656 0.0
H2284 H 0.9036 0.68985 0.34082 0.0
H2285 H 0.90196 0.67091 0.35031 0.0
H2286 H 0.86352 0.61624 0.45941 0.0
H2287 H 0.87671 0.63119 0.40593 0.0
H2288 H 0.85877 0.64535 0.32625 0.0
C2289 C 0.90089 0.68992 0.30714 0.0
C2290 C 0.89256 0.66531 0.34443 0.0
C2291 C 0.9042 0.70085 0.28754 0.0
C2292 C 0.86139 0.62282 0.44797 0.0
C2293 C 0.86894 0.63136 0.41749 0.0
C2294 C 0.86822 0.65077 0.33151 0.0
C2295 C 0.89314 0.67928 0.28529 0.0
C2296 C 0.88693 0.66793 0.31023 0.0
C2297 C 0.86623 0.63981 0.40112 0.0
C2298 C 0.87368 0.64863 0.36739 0.0
H2299 H 0.88947 0.69091 0.19014 0.0
H2300 H 0.88421 0.67189 0.22319 0.0
H2301 H 0.86998 0.66205 0.27803 0.0
H2302 H 0.84091 0.6317 0.45817 0.0
H2303 H 0.85394 0.64639 0.40555 0.0
C2304 C 0.79863 0.70773 0.84584 0.0
C2305 C 0.81042 0.71331 0.86054 0.0
C2306 C 0.78972 0.69823 0.86964 0.0
C2307 C 0.78216 0.68417 0.9783 0.0
H2308 H 0.76933 0.65395 0.91865 0.0
C2309 C 0.77435 0.64264 0.06629 0.0
C2310 C 0.76598 0.63133 0.05098 0.0
C2311 C 0.77574 0.65276 0.04543 0.0
C2312 C 0.77248 0.66228 0.93573 0.0
H2313 H 0.82209 0.71383 0.91244 0.0
H2314 H 0.80655 0.69761 0.95453 0.0
H2315 H 0.77932 0.67223 0.87609 0.0
H2316 H 0.75188 0.6218 0.00366 0.0
H2317 H 0.75427 0.6396 0.96714 0.0
H2318 H 0.77577 0.67434 0.03813 0.0
C2319 C 0.80418 0.70042 0.92452 0.0
C2320 C 0.77823 0.67276 0.91125 0.0
C2321 C 0.81307 0.70964 0.90029 0.0
C2322 C 0.75845 0.63039 0.01612 0.0
C2323 C 0.75987 0.64058 0.99504 0.0
C2324 C 0.77628 0.67372 0.00269 0.0
C2325 C 0.79247 0.69449 0.90909 0.0
C2326 C 0.78362 0.68377 0.93265 0.0
C2327 C 0.76878 0.65189 0.00866 0.0
C2328 C 0.77196 0.66266 0.98201 0.0
H2329 H 0.79639 0.7104 0.81516 0.0
H2330 H 0.78074 0.69371 0.85704 0.0
H2331 H 0.78618 0.69258 0.99544 0.0
H2332 H 0.78025 0.64369 0.09325 0.0
H2333 H 0.78281 0.66127 0.05661 0.0
C2334 C 0.37445 0.14523 0.88209 0.0
C2335 C 0.38072 0.14351 0.91613 0.0
C2336 C 0.36405 0.13578 0.86558 0.0
C2337 C 0.33894 0.10858 0.90236 0.0
H2338 H 0.32931 0.10753 0.78076 0.0
C2339 C 0.28966 0.08667 0.85447 0.0
C2340 C 0.28753 0.09512 0.83431 0.0
C2341 C 0.30123 0.08857 0.857 0.0
C2342 C 0.33188 0.10756 0.81473 0.0
H2343 H 0.38132 0.13046 0.95845 0.0
H2344 H 0.36278 0.11378 0.9301 0.0
H2345 H 0.3503 0.1185 0.79994 0.0
H2346 H 0.2955 0.11161 0.79802 0.0
H2347 H 0.31549 0.11479 0.80141 0.0
H2348 H 0.32047 0.09831 0.91756 0.0
C2349 C 0.36605 0.1225 0.91604 0.0
C2350 C 0.34388 0.11384 0.82572 0.0
C2351 C 0.37665 0.132 0.93213 0.0
C2352 C 0.29692 0.10498 0.81381 0.0
C2353 C 0.30837 0.10675 0.81553 0.0
C2354 C 0.32691 0.10226 0.89134 0.0
C2355 C 0.35956 0.12435 0.88304 0.0
C2356 C 0.34749 0.11496 0.86997 0.0
C2357 C 0.31074 0.0988 0.83848 0.0
C2358 C 0.32324 0.10225 0.84775 0.0
H2359 H 0.37741 0.15399 0.86893 0.0
H2360 H 0.3592 0.13757 0.84068 0.0
H2361 H 0.34143 0.1093 0.93676 0.0
H2362 H 0.28256 0.07904 0.87078 0.0
H2363 H 0.30281 0.08231 0.87485 0.0
C2364 C 0.91413 0.19422 0.87967 0.0
C2365 C 0.90878 0.18351 0.90319 0.0
C2366 C 0.91389 0.20412 0.89648 0.0
C2367 C 0.90821 0.21644 -0.00236 0.0
H2368 H 0.89065 0.22608 0.92159 0.0
C2369 C 0.8729 0.22573 0.06153 0.0
C2370 C 0.87026 0.23364 0.03989 0.0
C2371 C 0.88197 0.22393 0.04638 0.0
C2372 C 0.89586 0.22381 0.94303 0.0
H2373 H 0.89976 0.17493 0.96368 0.0
H2374 H 0.89962 0.19217 0.99336 0.0
H2375 H 0.89931 0.21484 0.89101 0.0
H2376 H 0.87553 0.24643 0.98693 0.0
H2377 H 0.89142 0.24319 0.95996 0.0
H2378 H 0.90421 0.22483 0.05015 0.0
C2379 C 0.90391 0.19298 0.96196 0.0
C2380 C 0.90082 0.21736 0.92544 0.0
C2381 C 0.90391 0.18308 0.94483 0.0
C2382 C 0.87738 0.24028 0.00428 0.0
C2383 C 0.88642 0.23837 0.98871 0.0
C2384 C 0.90332 0.22295 0.01515 0.0
C2385 C 0.90859 0.20351 0.93751 0.0
C2386 C 0.9065 0.21309 0.95307 0.0
C2387 C 0.88859 0.22994 0.00894 0.0
C2388 C 0.89653 0.22615 0.98852 0.0
H2389 H 0.91788 0.19473 0.84736 0.0
H2390 H 0.91753 0.21213 0.87695 0.0
H2391 H 0.91269 0.2134 0.01954 0.0
H2392 H 0.86763 0.22053 0.08923 0.0
H2393 H 0.88326 0.21725 0.06248 0.0
C2394 C 0.6892 0.79725 0.69298 0.0
C2395 C 0.70047 0.79888 0.68366 0.0
C2396 C 0.67907 0.78773 0.67489 0.0
C2397 C 0.65806 0.76608 0.63654 0.0
H2398 H 0.66278 0.76525 0.51078 0.0
C2399 C 0.61863 0.74896 0.51814 0.0
C2400 C 0.62053 0.75752 0.48611 0.0
C2401 C 0.62821 0.74953 0.54124 0.0
C2402 C 0.6613 0.76525 0.54589 0.0
H2403 H 0.70985 0.79113 0.65154 0.0
H2404 H 0.6921 0.77443 0.62002 0.0
H2405 H 0.67985 0.77443 0.5596 0.0
H2406 H 0.63397 0.77264 0.45017 0.0
H2407 H 0.65056 0.77363 0.48998 0.0
H2408 H 0.63954 0.75778 0.62234 0.0
C2409 C 0.69113 0.78064 0.64085 0.0
C2410 C 0.67109 0.7704 0.57403 0.0
C2411 C 0.70129 0.79016 0.65919 0.0
C2412 C 0.63221 0.76597 0.47487 0.0
C2413 C 0.64175 0.76647 0.49757 0.0
C2414 C 0.64826 0.76095 0.60837 0.0
C2415 C 0.67996 0.77961 0.64695 0.0
C2416 C 0.66961 0.77141 0.61944 0.0
C2417 C 0.63985 0.75858 0.5323 0.0
C2418 C 0.64981 0.76101 0.56249 0.0
H2419 H 0.68824 0.80375 0.71199 0.0
H2420 H 0.67065 0.7873 0.68014 0.0
H2421 H 0.6566 0.76652 0.67145 0.0
H2422 H 0.60972 0.74234 0.52753 0.0
H2423 H 0.62647 0.74325 0.56748 0.0
C2424 C 0.20533 0.91191 0.68253 0.0
C2425 C 0.19697 0.9032 0.71079 0.0
C2426 C 0.21491 0.91099 0.66659 0.0
C2427 C 0.22437 0.89887 0.60745 0.0
H2428 H 0.23874 0.88297 0.66757 0.0
C2429 C 0.22659 0.86002 0.53626 0.0
C2430 C 0.23608 0.85821 0.54583 0.0
C2431 C 0.22642 0.86992 0.55258 0.0
C2432 C 0.23508 0.88767 0.65026 0.0
H2433 H 0.19288 0.88748 0.74847 0.0
H2434 H 0.20946 0.88586 0.72078 0.0
H2435 H 0.23055 0.89303 0.7105 0.0
H2436 H 0.25313 0.86554 0.57803 0.0
H2437 H 0.2527 0.88284 0.60793 0.0
H2438 H 0.22823 0.89288 0.54737 0.0
C2439 C 0.20868 0.8934 0.71069 0.0
C2440 C 0.23029 0.89334 0.67487 0.0
C2441 C 0.19908 0.89428 0.72638 0.0
C2442 C 0.24576 0.86682 0.56996 0.0
C2443 C 0.24548 0.87665 0.58721 0.0
C2444 C 0.22911 0.89317 0.58291 0.0
C2445 C 0.21636 0.90141 0.67893 0.0
C2446 C 0.22434 0.89847 0.65377 0.0
C2447 C 0.23564 0.87811 0.57957 0.0
C2448 C 0.23396 0.88699 0.60414 0.0
H2449 H 0.204 0.91895 0.67009 0.0
H2450 H 0.22077 0.91739 0.64263 0.0
H2451 H 0.21982 0.90268 0.59004 0.0
H2452 H 0.21902 0.85349 0.51775 0.0
H2453 H 0.21864 0.87069 0.54655 0.0
C2454 C 0.13013 0.35552 0.42958 0.0
C2455 C 0.13189 0.36699 0.43477 0.0
C2456 C 0.12089 0.34595 0.45141 0.0
C2457 C 0.09987 0.32607 0.49714 0.0
H2458 H 0.09979 0.33412 0.62005 0.0
C2459 C 0.08324 0.28997 0.62975 0.0
C2460 C 0.09156 0.29275 0.66375 0.0
C2461 C 0.08393 0.29886 0.60195 0.0
C2462 C 0.09962 0.33171 0.5858 0.0
H2463 H 0.12461 0.37721 0.46343 0.0
H2464 H 0.10835 0.36044 0.50122 0.0
H2465 H 0.10865 0.34979 0.56543 0.0
H2466 H 0.10647 0.30715 0.69751 0.0
H2467 H 0.10776 0.32252 0.64913 0.0
H2468 H 0.09175 0.30805 0.51809 0.0
C2469 C 0.11428 0.3589 0.48095 0.0
C2470 C 0.10457 0.3407 0.55428 0.0
C2471 C 0.12355 0.3685 0.45902 0.0
C2472 C 0.09997 0.30468 0.67145 0.0
C2473 C 0.10065 0.31354 0.64381 0.0
C2474 C 0.09498 0.31708 0.52871 0.0
C2475 C 0.11316 0.3476 0.47892 0.0
C2476 C 0.10526 0.33803 0.50985 0.0
C2477 C 0.09291 0.3107 0.60776 0.0
C2478 C 0.09531 0.31984 0.57369 0.0
H2479 H 0.13632 0.35401 0.41085 0.0
H2480 H 0.1204 0.33743 0.44922 0.0
H2481 H 0.10003 0.32369 0.46307 0.0
H2482 H 0.07659 0.28087 0.62307 0.0
H2483 H 0.07773 0.2964 0.57486 0.0
C2484 C 0.04238 0.57519 0.76721 0.0
C2485 C 0.04691 0.56786 0.75445 0.0
C2486 C 0.03213 0.57397 0.74716 0.0
C2487 C 0.01219 0.56055 0.65072 0.0
H2488 H 0.98675 0.55293 0.73354 0.0
C2489 C 0.96517 0.52351 0.62384 0.0
C2490 C 0.95552 0.52409 0.64135 0.0
C2491 C 0.97667 0.53295 0.62898 0.0
C2492 C 0.99378 0.55534 0.70973 0.0
H2493 H 0.04474 0.55409 0.709 0.0
H2494 H 0.0271 0.55208 0.67401 0.0
H2495 H 0.00715 0.56252 0.75977 0.0
H2496 H 0.9502 0.53524 0.67567 0.0
H2497 H 0.97047 0.5518 0.68546 0.0
H2498 H 0.99876 0.55268 0.60118 0.0
C2499 C 0.03136 0.55873 0.69939 0.0
C2500 C 0.00548 0.56084 0.72481 0.0
C2501 C 0.04141 0.5598 0.71979 0.0
C2502 C 0.9575 0.5346 0.6617 0.0
C2503 C 0.96909 0.54403 0.66753 0.0
C2504 C 0.00051 0.55507 0.63567 0.0
C2505 C 0.02643 0.5656 0.71343 0.0
C2506 C 0.01473 0.56293 0.69582 0.0
C2507 C 0.9788 0.54314 0.65228 0.0
C2508 C 0.99113 0.55185 0.66541 0.0
H2509 H 0.04644 0.58147 0.79389 0.0
H2510 H 0.02852 0.57938 0.75862 0.0
H2511 H 0.01917 0.56226 0.62749 0.0
H2512 H 0.96389 0.51552 0.60788 0.0
H2513 H 0.98393 0.53189 0.61728 0.0
C2514 C 0.42846 0.46488 0.82253 0.0
C2515 C 0.43626 0.47434 0.84962 0.0
C2516 C 0.43136 0.45636 0.80895 0.0
C2517 C 0.4516 0.44475 0.8332 0.0
H2518 H 0.45236 0.44107 0.70665 0.0
C2519 C 0.48796 0.44068 0.74692 0.0
C2520 C 0.48535 0.43294 0.71111 0.0
C2521 C 0.4791 0.44206 0.76678 0.0
C2522 C 0.45195 0.44174 0.74211 0.0
H2523 H 0.45284 0.48195 0.88558 0.0
H2524 H 0.4578 0.46716 0.86239 0.0
H2525 H 0.44148 0.45017 0.73742 0.0
H2526 H 0.47134 0.42037 0.66853 0.0
H2527 H 0.45576 0.42307 0.70286 0.0
H2528 H 0.46267 0.43701 0.83774 0.0
C2529 C 0.44947 0.46625 0.85153 0.0
C2530 C 0.44571 0.44695 0.75975 0.0
C2531 C 0.44668 0.4748 0.86451 0.0
C2532 C 0.47359 0.42638 0.69616 0.0
C2533 C 0.4647 0.42794 0.71565 0.0
C2534 C 0.45784 0.43959 0.81561 0.0
C2535 C 0.44197 0.45705 0.82297 0.0
C2536 C 0.44595 0.449 0.80533 0.0
C2537 C 0.46742 0.43585 0.75103 0.0
C2538 C 0.45852 0.43853 0.7698 0.0
H2539 H 0.42038 0.46432 0.81049 0.0
H2540 H 0.42541 0.44935 0.78696 0.0
H2541 H 0.45175 0.446 0.86853 0.0
H2542 H 0.49692 0.44581 0.75937 0.0
H2543 H 0.48151 0.44835 0.79353 0.0
C2544 C 0.53525 0.98054 0.90065 0.0
C2545 C 0.53382 0.96977 0.88499 0.0
C2546 C 0.54405 0.99127 0.8835 0.0
C2547 C 0.55985 0.00298 0.78001 0.0
H2548 H 0.57257 0.03251 0.84453 0.0
C2549 C 0.5776 0.04836 0.69305 0.0
C2550 C 0.57073 0.05337 0.70602 0.0
C2551 C 0.57735 0.03914 0.71775 0.0
C2552 C 0.56925 0.02434 0.82613 0.0
H2553 H 0.54108 0.96185 0.8413 0.0
H2554 H 0.55657 0.9807 0.81128 0.0
H2555 H 0.5647 0.01389 0.88479 0.0
H2556 H 0.55884 0.0533 0.75601 0.0
H2557 H 0.55868 0.03756 0.79957 0.0
H2558 H 0.56397 0.01347 0.72138 0.0
C2559 C 0.55075 0.9808 0.83654 0.0
C2560 C 0.56468 0.01367 0.84911 0.0
C2561 C 0.54193 0.97001 0.85394 0.0
C2562 C 0.56418 0.04954 0.74521 0.0
C2563 C 0.56416 0.0406 0.77031 0.0
C2564 C 0.56454 0.01368 0.75701 0.0
C2565 C 0.55167 0.99154 0.85016 0.0
C2566 C 0.55934 0.00282 0.82636 0.0
C2567 C 0.5705 0.0351 0.75636 0.0
C2568 C 0.56874 0.0244 0.77992 0.0
H2569 H 0.52921 0.98069 0.92477 0.0
H2570 H 0.54435 -0.00068 0.8945 0.0
H2571 H 0.55576 0.99481 0.76134 0.0
H2572 H 0.58268 0.05115 0.66281 0.0
H2573 H 0.58227 0.03499 0.70626 0.0
C2574 C 0.45799 0.01996 0.08607 0.0
C2575 C 0.46053 0.03136 0.09877 0.0
C2576 C 0.4494 0.00999 0.10832 0.0
C2577 C 0.42992 0.98932 0.15757 0.0
H2578 H 0.43589 0.99457 0.28298 0.0
C2579 C 0.41737 0.95059 0.27871 0.0
C2580 C 0.42728 0.95236 0.30319 0.0
C2581 C 0.41751 0.9601 0.25651 0.0
C2582 C 0.43399 0.99296 0.24811 0.0
H2583 H 0.45518 0.04112 0.14182 0.0
H2584 H 0.44008 0.02365 0.18052 0.0
H2585 H 0.44275 0.01144 0.23377 0.0
H2586 H 0.44474 0.96551 0.32601 0.0
H2587 H 0.44495 0.98196 0.28799 0.0
H2588 H 0.42199 0.97082 0.17187 0.0
C2589 C 0.44491 0.02246 0.15384 0.0
C2590 C 0.43782 0.00263 0.21984 0.0
C2591 C 0.45351 0.03247 0.13146 0.0
C2592 C 0.437 0.96386 0.3072 0.0
C2593 C 0.43707 0.97332 0.28569 0.0
C2594 C 0.4261 0.97963 0.18592 0.0
C2595 C 0.44313 0.01115 0.14381 0.0
C2596 C 0.43634 0.00095 0.17399 0.0
C2597 C 0.42747 0.97153 0.25921 0.0
C2598 C 0.42862 0.98139 0.23122 0.0
H2599 H 0.46314 0.01877 0.06073 0.0
H2600 H 0.44837 0.00146 0.09978 0.0
H2601 H 0.42846 0.98772 0.12251 0.0
H2602 H 0.40977 0.94181 0.27499 0.0
H2603 H 0.40998 0.95846 0.2364 0.0
C2604 C 0.04056 0.45578 0.33935 0.0
C2605 C 0.03854 0.46286 0.36904 0.0
C2606 C 0.03103 0.44612 0.3186 0.0
C2607 C 0.01107 0.43605 0.25183 0.0
H2608 H 0.97928 0.41961 0.29974 0.0
C2609 C 0.97183 0.43347 0.16366 0.0
C2610 C 0.96024 0.42435 0.17217 0.0
C2611 C 0.98147 0.43337 0.18293 0.0
C2612 C 0.98808 0.42383 0.28565 0.0
H2613 H 0.02496 0.46454 0.40398 0.0
H2614 H 0.00849 0.44794 0.36781 0.0
H2615 H 0.9962 0.42756 0.3494 0.0
H2616 H 0.94967 0.40746 0.20466 0.0
H2617 H 0.96663 0.4073 0.23895 0.0
H2618 H 0.00295 0.43272 0.18819 0.0
C2619 C 0.01735 0.44972 0.3603 0.0
C2620 C 0.9978 0.42853 0.31423 0.0
C2621 C 0.02684 0.45936 0.38089 0.0
C2622 C 0.95853 0.41461 0.19751 0.0
C2623 C 0.96822 0.41456 0.21736 0.0
C2624 C 0.00136 0.43129 0.22328 0.0
C2625 C 0.01932 0.44333 0.32732 0.0
C2626 C 0.00939 0.43532 0.29776 0.0
C2627 C 0.97976 0.42418 0.21157 0.0
C2628 C 0.98976 0.42577 0.23998 0.0
H2629 H 0.04948 0.45818 0.32973 0.0
H2630 H 0.03286 0.44124 0.29394 0.0
H2631 H 0.01984 0.44119 0.23778 0.0
H2632 H 0.97341 0.44107 0.14404 0.0
H2633 H 0.99018 0.44099 0.178 0.0
C2634 C 0.57869 0.54136 0.11984 0.0
C2635 C 0.56919 0.53289 0.09447 0.0
C2636 C 0.57773 0.55022 0.14225 0.0
C2637 C 0.56805 0.55859 0.21592 0.0
H2638 H 0.54724 0.57033 0.18055 0.0
C2639 C 0.5354 0.56102 0.33349 0.0
C2640 C 0.53173 0.56937 0.32727 0.0
C2641 C 0.54369 0.56071 0.30534 0.0
C2642 C 0.55329 0.56739 0.19094 0.0
H2643 H 0.55177 0.5279 0.06891 0.0
H2644 H 0.55002 0.54311 0.10815 0.0
H2645 H 0.55545 0.56303 0.12488 0.0
H2646 H 0.53451 0.58449 0.28837 0.0
H2647 H 0.54909 0.58398 0.23906 0.0
H2648 H 0.56566 0.56268 0.28206 0.0
C2649 C 0.55825 0.54302 0.11088 0.0
C2650 C 0.55789 0.56307 0.15901 0.0
C2651 C 0.55922 0.5342 0.08851 0.0
C2652 C 0.53713 0.57792 0.29397 0.0
C2653 C 0.54542 0.57758 0.26554 0.0
C2654 C 0.56351 0.56297 0.24778 0.0
C2655 C 0.56725 0.5508 0.13967 0.0
C2656 C 0.56487 0.55809 0.17133 0.0
C2657 C 0.54853 0.56875 0.27014 0.0
C2658 C 0.55561 0.56689 0.23591 0.0
H2659 H 0.58655 0.54068 0.12485 0.0
H2660 H 0.58493 0.55622 0.16342 0.0
H2661 H 0.57336 0.55481 0.22683 0.0
H2662 H 0.53146 0.55434 0.35895 0.0
H2663 H 0.54574 0.55369 0.30966 0.0
loop_
_geom_bond_atom_site_label_1
_geom_bond_atom_site_label_2
_geom_bond_distance
_geom_bond_site_symmetry_2
_ccdc_geom_bond_type
Zn0 O3 2.031 . S
Zn0 O5 2.049 . S
Zn0 O10 2.067 . S
Zn1 O2 1.962 . S
Zn1 O4 1.986 . S
Zn1 O6 1.996 . S
Zn1 O9 1.943 . S
O2 Zn1 1.962 . S
O2 C7 1.254 . S
O3 Zn0 2.031 . S
O3 C7 1.269 . S
O4 Zn1 1.986 . S
O4 C11 1.262 . S
O5 Zn0 2.049 . S
O5 C13 1.260 . S
O6 Zn1 1.996 . S
O6 C13 1.257 . S
C7 O2 1.254 . S
C7 O3 1.269 . S
C8 O9 1.249 . S
C8 O10 1.270 . S
O9 Zn1 1.943 . S
O9 C8 1.249 . S
O10 Zn0 2.067 . S
O10 C8 1.270 . S
C11 O4 1.262 . S
C11 O12 1.232 . S
O12 C11 1.232 . S
C13 O5 1.260 . S
C13 O6 1.257 . S
Zn14 O17 2.031 . S
Zn14 O19 2.049 . S
Zn14 O24 2.067 . S
Zn15 O16 1.962 . S
Zn15 O18 1.986 . S
Zn15 O20 1.996 . S
Zn15 O23 1.943 . S
O16 Zn15 1.962 . S
O16 C21 1.254 . S
O17 Zn14 2.031 . S
O17 C21 1.269 . S
O18 Zn15 1.986 . S
O18 C25 1.262 . S
O19 Zn14 2.049 . S
O19 C27 1.260 . S
O20 Zn15 1.996 . S
O20 C27 1.257 . S
C21 O16 1.254 . S
C21 O17 1.269 . S
C22 O23 1.249 . S
C22 O24 1.270 . S
O23 Zn15 1.943 . S
O23 C22 1.249 . S
O24 Zn14 2.067 . S
O24 C22 1.270 . S
C25 O18 1.262 . S
C25 O26 1.232 . S
O26 C25 1.232 . S
C27 O19 1.260 . S
C27 O20 1.257 . S
Zn28 O31 2.031 . S
Zn28 O33 2.049 . S
Zn28 O38 2.067 . S
Zn29 O30 1.962 . S
Zn29 O32 1.986 . S
Zn29 O34 1.996 . S
Zn29 O37 1.943 . S
O30 Zn29 1.962 . S
O30 C35 1.254 . S
O31 Zn28 2.031 . S
O31 C35 1.269 . S
O32 Zn29 1.986 . S
O32 C39 1.262 . S
O33 Zn28 2.049 . S
O33 C41 1.260 . S
O34 Zn29 1.996 . S
O34 C41 1.257 . S
C35 O30 1.254 . S
C35 O31 1.269 . S
C36 O37 1.249 . S
C36 O38 1.270 . S
O37 Zn29 1.943 . S
O37 C36 1.249 . S
O38 Zn28 2.067 . S
O38 C36 1.270 . S
C39 O32 1.262 . S
C39 O40 1.232 . S
O40 C39 1.232 . S
C41 O33 1.260 . S
C41 O34 1.257 . S
Zn42 O45 2.031 . S
Zn42 O47 2.049 . S
Zn42 O52 2.067 . S
Zn43 O44 1.962 . S
Zn43 O46 1.986 . S
Zn43 O48 1.996 . S
Zn43 O51 1.943 . S
O44 Zn43 1.962 . S
O44 C49 1.254 . S
O45 Zn42 2.031 . S
O45 C49 1.269 . S
O46 Zn43 1.986 . S
O46 C53 1.262 . S
O47 Zn42 2.049 . S
O47 C55 1.260 . S
O48 Zn43 1.996 . S
O48 C55 1.257 . S
C49 O44 1.254 . S
C49 O45 1.269 . S
C50 O51 1.249 . S
C50 O52 1.270 . S
O51 Zn43 1.943 . S
O51 C50 1.249 . S
O52 Zn42 2.067 . S
O52 C50 1.270 . S
C53 O46 1.262 . S
C53 O54 1.232 . S
O54 C53 1.232 . S
C55 O47 1.260 . S
C55 O48 1.257 . S
Zn56 O59 2.031 . S
Zn56 O61 2.049 . S
Zn56 O66 2.067 . S
Zn57 O58 1.962 . S
Zn57 O60 1.986 . S
Zn57 O62 1.996 . S
Zn57 O65 1.943 . S
O58 Zn57 1.962 . S
O58 C63 1.254 . S
O59 Zn56 2.031 . S
O59 C63 1.269 . S
O60 Zn57 1.986 . S
O60 C67 1.262 . S
O61 Zn56 2.049 . S
O61 C69 1.260 . S
O62 Zn57 1.996 . S
O62 C69 1.257 . S
C63 O58 1.254 . S
C63 O59 1.269 . S
C64 O65 1.249 . S
C64 O66 1.270 . S
O65 Zn57 1.943 . S
O65 C64 1.249 . S
O66 Zn56 2.067 . S
O66 C64 1.270 . S
C67 O60 1.262 . S
C67 O68 1.232 . S
O68 C67 1.232 . S
C69 O61 1.260 . S
C69 O62 1.257 . S
Zn70 O73 2.031 . S
Zn70 O75 2.049 . S
Zn70 O80 2.067 . S
Zn71 O72 1.962 . S
Zn71 O74 1.986 . S
Zn71 O76 1.996 . S
Zn71 O79 1.943 . S
O72 Zn71 1.962 . S
O72 C77 1.254 . S
O73 Zn70 2.031 . S
O73 C77 1.269 . S
O74 Zn71 1.986 . S
O74 C81 1.262 . S
O75 Zn70 2.049 . S
O75 C83 1.260 . S
O76 Zn71 1.996 . S
O76 C83 1.257 . S
C77 O72 1.254 . S
C77 O73 1.269 . S
C78 O79 1.249 . S
C78 O80 1.270 . S
O79 Zn71 1.943 . S
O79 C78 1.249 . S
O80 Zn70 2.067 . S
O80 C78 1.270 . S
C81 O74 1.262 . S
C81 O82 1.232 . S
O82 C81 1.232 . S
C83 O75 1.260 . S
C83 O76 1.257 . S
Zn84 O87 2.031 . S
Zn84 O89 2.049 . S
Zn84 O94 2.067 . S
Zn85 O86 1.962 . S
Zn85 O88 1.986 . S
Zn85 O90 1.996 . S
Zn85 O93 1.943 . S
O86 Zn85 1.962 . S
O86 C91 1.254 . S
O87 Zn84 2.031 . S
O87 C91 1.269 . S
O88 Zn85 1.986 . S
O88 C95 1.262 . S
O89 Zn84 2.049 . S
O89 C97 1.260 . S
O90 Zn85 1.996 . S
O90 C97 1.257 . S
C91 O86 1.254 . S
C91 O87 1.269 . S
C92 O93 1.249 . S
C92 O94 1.270 . S
O93 Zn85 1.943 . S
O93 C92 1.249 . S
O94 Zn84 2.067 . S
O94 C92 1.270 . S
C95 O88 1.262 . S
C95 O96 1.232 . S
O96 C95 1.232 . S
C97 O89 1.260 . S
C97 O90 1.257 . S
Zn98 O101 2.031 . S
Zn98 O103 2.049 . S
Zn98 O108 2.067 . S
Zn99 O100 1.962 . S
Zn99 O102 1.986 . S
Zn99 O104 1.996 . S
Zn99 O107 1.943 . S
O100 Zn99 1.962 . S
O100 C105 1.254 . S
O101 Zn98 2.031 . S
O101 C105 1.269 . S
O102 Zn99 1.986 . S
O102 C109 1.262 . S
O103 Zn98 2.049 . S
O103 C111 1.260 . S
O104 Zn99 1.996 . S
O104 C111 1.257 . S
C105 O100 1.254 . S
C105 O101 1.269 . S
C106 O107 1.249 . S
C106 O108 1.270 . S
O107 Zn99 1.943 . S
O107 C106 1.249 . S
O108 Zn98 2.067 . S
O108 C106 1.270 . S
C109 O102 1.262 . S
C109 O110 1.232 . S
O110 C109 1.232 . S
C111 O103 1.260 . S
C111 O104 1.257 . S
Zn112 O115 2.031 . S
Zn112 O117 2.049 . S
Zn112 O122 2.067 . S
Zn113 O114 1.962 . S
Zn113 O116 1.986 . S
Zn113 O118 1.996 . S
Zn113 O121 1.943 . S
O114 Zn113 1.962 . S
O114 C119 1.254 . S
O115 Zn112 2.031 . S
O115 C119 1.269 . S
O116 Zn113 1.986 . S
O116 C123 1.262 . S
O117 Zn112 2.049 . S
O117 C125 1.260 . S
O118 Zn113 1.996 . S
O118 C125 1.257 . S
C119 O114 1.254 . S
C119 O115 1.269 . S
C120 O121 1.249 . S
C120 O122 1.270 . S
O121 Zn113 1.943 . S
O121 C120 1.249 . S
O122 Zn112 2.067 . S
O122 C120 1.270 . S
C123 O116 1.262 . S
C123 O124 1.232 . S
O124 C123 1.232 . S
C125 O117 1.260 . S
C125 O118 1.257 . S
Zn126 O129 2.031 . S
Zn126 O131 2.049 . S
Zn126 O136 2.067 . S
Zn127 O128 1.962 . S
Zn127 O130 1.986 . S
Zn127 O132 1.996 . S
Zn127 O135 1.943 . S
O128 Zn127 1.962 . S
O128 C133 1.254 . S
O129 Zn126 2.031 . S
O129 C133 1.269 . S
O130 Zn127 1.986 . S
O130 C137 1.262 . S
O131 Zn126 2.049 . S
O131 C139 1.260 . S
O132 Zn127 1.996 . S
O132 C139 1.257 . S
C133 O128 1.254 . S
C133 O129 1.269 . S
C134 O135 1.249 . S
C134 O136 1.270 . S
O135 Zn127 1.943 . S
O135 C134 1.249 . S
O136 Zn126 2.067 . S
O136 C134 1.270 . S
C137 O130 1.262 . S
C137 O138 1.232 . S
O138 C137 1.232 . S
C139 O131 1.260 . S
C139 O132 1.257 . S
Zn140 O143 2.031 . S
Zn140 O145 2.049 . S
Zn140 O150 2.067 . S
Zn141 O142 1.962 . S
Zn141 O144 1.986 . S
Zn141 O146 1.996 . S
Zn141 O149 1.943 . S
O142 Zn141 1.962 . S
O142 C147 1.254 . S
O143 Zn140 2.031 . S
O143 C147 1.269 . S
O144 Zn141 1.986 . S
O144 C151 1.262 . S
O145 Zn140 2.049 . S
O145 C153 1.260 . S
O146 Zn141 1.996 . S
O146 C153 1.257 . S
C147 O142 1.254 . S
C147 O143 1.269 . S
C148 O149 1.249 . S
C148 O150 1.270 . S
O149 Zn141 1.943 . S
O149 C148 1.249 . S
O150 Zn140 2.067 . S
O150 C148 1.270 . S
C151 O144 1.262 . S
C151 O152 1.232 . S
O152 C151 1.232 . S
C153 O145 1.260 . S
C153 O146 1.257 . S
Zn154 O157 2.031 . S
Zn154 O159 2.049 . S
Zn154 O164 2.067 . S
Zn155 O156 1.962 . S
Zn155 O158 1.986 . S
Zn155 O160 1.996 . S
Zn155 O163 1.943 . S
O156 Zn155 1.962 . S
O156 C161 1.254 . S
O157 Zn154 2.031 . S
O157 C161 1.269 . S
O158 Zn155 1.986 . S
O158 C165 1.262 . S
O159 Zn154 2.049 . S
O159 C167 1.260 . S
O160 Zn155 1.996 . S
O160 C167 1.257 . S
C161 O156 1.254 . S
C161 O157 1.269 . S
C162 O163 1.249 . S
C162 O164 1.270 . S
O163 Zn155 1.943 . S
O163 C162 1.249 . S
O164 Zn154 2.067 . S
O164 C162 1.270 . S
C165 O158 1.262 . S
C165 O166 1.232 . S
O166 C165 1.232 . S
C167 O159 1.260 . S
C167 O160 1.257 . S
Zn168 O171 2.031 . S
Zn168 O173 2.049 . S
Zn168 O178 2.067 . S
Zn169 O170 1.962 . S
Zn169 O172 1.986 . S
Zn169 O174 1.996 . S
Zn169 O177 1.943 . S
O170 Zn169 1.962 . S
O170 C175 1.254 . S
O171 Zn168 2.031 . S
O171 C175 1.269 . S
O172 Zn169 1.986 . S
O172 C179 1.262 . S
O173 Zn168 2.049 . S
O173 C181 1.260 . S
O174 Zn169 1.996 . S
O174 C181 1.257 . S
C175 O170 1.254 . S
C175 O171 1.269 . S
C176 O177 1.249 . S
C176 O178 1.270 . S
O177 Zn169 1.943 . S
O177 C176 1.249 . S
O178 Zn168 2.067 . S
O178 C176 1.270 . S
C179 O172 1.262 . S
C179 O180 1.232 . S
O180 C179 1.232 . S
C181 O173 1.260 . S
C181 O174 1.257 . S
Zn182 O185 2.031 . S
Zn182 O187 2.049 . S
Zn182 O192 2.067 . S
Zn183 O184 1.962 . S
Zn183 O186 1.986 . S
Zn183 O188 1.996 . S
Zn183 O191 1.943 . S
O184 Zn183 1.962 . S
O184 C189 1.254 . S
O185 Zn182 2.031 . S
O185 C189 1.269 . S
O186 Zn183 1.986 . S
O186 C193 1.262 . S
O187 Zn182 2.049 . S
O187 C195 1.260 . S
O188 Zn183 1.996 . S
O188 C195 1.257 . S
C189 O184 1.254 . S
C189 O185 1.269 . S
C190 O191 1.249 . S
C190 O192 1.270 . S
O191 Zn183 1.943 . S
O191 C190 1.249 . S
O192 Zn182 2.067 . S
O192 C190 1.270 . S
C193 O186 1.262 . S
C193 O194 1.232 . S
O194 C193 1.232 . S
C195 O187 1.260 . S
C195 O188 1.257 . S
Zn196 O199 2.031 . S
Zn196 O201 2.049 . S
Zn196 O206 2.067 . S
Zn197 O198 1.962 . S
Zn197 O200 1.986 . S
Zn197 O202 1.996 . S
Zn197 O205 1.943 . S
O198 Zn197 1.962 . S
O198 C203 1.254 . S
O199 Zn196 2.031 . S
O199 C203 1.269 . S
O200 Zn197 1.986 . S
O200 C207 1.262 . S
O201 Zn196 2.049 . S
O201 C209 1.260 . S
O202 Zn197 1.996 . S
O202 C209 1.257 . S
C203 O198 1.254 . S
C203 O199 1.269 . S
C204 O205 1.249 . S
C204 O206 1.270 . S
O205 Zn197 1.943 . S
O205 C204 1.249 . S
O206 Zn196 2.067 . S
O206 C204 1.270 . S
C207 O200 1.262 . S
C207 O208 1.232 . S
O208 C207 1.232 . S
C209 O201 1.260 . S
C209 O202 1.257 . S
Zn210 O213 2.031 . S
Zn210 O215 2.049 . S
Zn210 O220 2.067 . S
Zn211 O212 1.962 . S
Zn211 O214 1.986 . S
Zn211 O216 1.996 . S
Zn211 O219 1.943 . S
O212 Zn211 1.962 . S
O212 C217 1.254 . S
O213 Zn210 2.031 . S
O213 C217 1.269 . S
O214 Zn211 1.986 . S
O214 C221 1.262 . S
O215 Zn210 2.049 . S
O215 C223 1.260 . S
O216 Zn211 1.996 . S
O216 C223 1.257 . S
C217 O212 1.254 . S
C217 O213 1.269 . S
C218 O219 1.249 . S
C218 O220 1.270 . S
O219 Zn211 1.943 . S
O219 C218 1.249 . S
O220 Zn210 2.067 . S
O220 C218 1.270 . S
C221 O214 1.262 . S
C221 O222 1.232 . S
O222 C221 1.232 . S
C223 O215 1.260 . S
C223 O216 1.257 . S
Zn224 O227 2.031 . S
Zn224 O229 2.049 . S
Zn224 O234 2.067 . S
Zn225 O226 1.962 . S
Zn225 O228 1.986 . S
Zn225 O230 1.996 . S
Zn225 O233 1.943 . S
O226 Zn225 1.962 . S
O226 C231 1.254 . S
O227 Zn224 2.031 . S
O227 C231 1.269 . S
O228 Zn225 1.986 . S
O228 C235 1.262 . S
O229 Zn224 2.049 . S
O229 C237 1.260 . S
O230 Zn225 1.996 . S
O230 C237 1.257 . S
C231 O226 1.254 . S
C231 O227 1.269 . S
C232 O233 1.249 . S
C232 O234 1.270 . S
O233 Zn225 1.943 . S
O233 C232 1.249 . S
O234 Zn224 2.067 . S
O234 C232 1.270 . S
C235 O228 1.262 . S
C235 O236 1.232 . S
O236 C235 1.232 . S
C237 O229 1.260 . S
C237 O230 1.257 . S
Zn238 O241 2.031 . S
Zn238 O243 2.049 . S
Zn238 O248 2.067 . S
Zn239 O240 1.962 . S
Zn239 O242 1.986 . S
Zn239 O244 1.996 . S
Zn239 O247 1.943 . S
O240 Zn239 1.962 . S
O240 C245 1.254 . S
O241 Zn238 2.031 . S
O241 C245 1.269 . S
O242 Zn239 1.986 . S
O242 C249 1.262 . S
O243 Zn238 2.049 . S
O243 C251 1.260 . S
O244 Zn239 1.996 . S
O244 C251 1.257 . S
C245 O240 1.254 . S
C245 O241 1.269 . S
C246 O247 1.249 . S
C246 O248 1.270 . S
O247 Zn239 1.943 . S
O247 C246 1.249 . S
O248 Zn238 2.067 . S
O248 C246 1.270 . S
C249 O242 1.262 . S
C249 O250 1.232 . S
O250 C249 1.232 . S
C251 O243 1.260 . S
C251 O244 1.257 . S
Zn252 O255 2.031 . S
Zn252 O257 2.049 . S
Zn252 O262 2.067 . S
Zn253 O254 1.962 . S
Zn253 O256 1.986 . S
Zn253 O258 1.996 . S
Zn253 O261 1.943 . S
O254 Zn253 1.962 . S
O254 C259 1.254 . S
O255 Zn252 2.031 . S
O255 C259 1.269 . S
O256 Zn253 1.986 . S
O256 C263 1.262 . S
O257 Zn252 2.049 . S
O257 C265 1.260 . S
O258 Zn253 1.996 . S
O258 C265 1.257 . S
C259 O254 1.254 . S
C259 O255 1.269 . S
C260 O261 1.249 . S
C260 O262 1.270 . S
O261 Zn253 1.943 . S
O261 C260 1.249 . S
O262 Zn252 2.067 . S
O262 C260 1.270 . S
C263 O256 1.262 . S
C263 O264 1.232 . S
O264 C263 1.232 . S
C265 O257 1.260 . S
C265 O258 1.257 . S
Zn266 O269 2.031 . S
Zn266 O271 2.049 . S
Zn266 O276 2.067 . S
Zn267 O268 1.962 . S
Zn267 O270 1.986 . S
Zn267 O272 1.996 . S
Zn267 O275 1.943 . S
O268 Zn267 1.962 . S
O268 C273 1.254 . S
O269 Zn266 2.031 . S
O269 C273 1.269 . S
O270 Zn267 1.986 . S
O270 C277 1.262 . S
O271 Zn266 2.049 . S
O271 C279 1.260 . S
O272 Zn267 1.996 . S
O272 C279 1.257 . S
C273 O268 1.254 . S
C273 O269 1.269 . S
C274 O275 1.249 . S
C274 O276 1.270 . S
O275 Zn267 1.943 . S
O275 C274 1.249 . S
O276 Zn266 2.067 . S
O276 C274 1.270 . S
C277 O270 1.262 . S
C277 O278 1.232 . S
O278 C277 1.232 . S
C279 O271 1.260 . S
C279 O272 1.257 . S
Zn280 O283 2.031 . S
Zn280 O285 2.049 . S
Zn280 O290 2.067 . S
Zn281 O282 1.962 . S
Zn281 O284 1.986 . S
Zn281 O286 1.996 . S
Zn281 O289 1.943 . S
O282 Zn281 1.962 . S
O282 C287 1.254 . S
O283 Zn280 2.031 . S
O283 C287 1.269 . S
O284 Zn281 1.986 . S
O284 C291 1.262 . S
O285 Zn280 2.049 . S
O285 C293 1.260 . S
O286 Zn281 1.996 . S
O286 C293 1.257 . S
C287 O282 1.254 . S
C287 O283 1.269 . S
C288 O289 1.249 . S
C288 O290 1.270 . S
O289 Zn281 1.943 . S
O289 C288 1.249 . S
O290 Zn280 2.067 . S
O290 C288 1.270 . S
C291 O284 1.262 . S
C291 O292 1.232 . S
O292 C291 1.232 . S
C293 O285 1.260 . S
C293 O286 1.257 . S
Zn294 O297 2.031 1_554 S
Zn294 O299 2.049 . S
Zn294 O304 2.067 1_554 S
Zn295 O296 1.962 . S
Zn295 O298 1.986 . S
Zn295 O300 1.996 . S
Zn295 O303 1.943 1_554 S
O296 Zn295 1.962 . S
O296 C301 1.254 1_554 S
O297 Zn294 2.031 1_556 S
O297 C301 1.269 . S
O298 Zn295 1.986 . S
O298 C305 1.262 . S
O299 Zn294 2.049 . S
O299 C307 1.260 . S
O300 Zn295 1.996 . S
O300 C307 1.257 . S
C301 O296 1.254 1_556 S
C301 O297 1.269 . S
C302 O303 1.249 . S
C302 O304 1.270 . S
O303 Zn295 1.943 1_556 S
O303 C302 1.249 . S
O304 Zn294 2.067 1_556 S
O304 C302 1.270 . S
C305 O298 1.262 . S
C305 O306 1.232 1_554 S
O306 C305 1.232 1_556 S
C307 O299 1.260 . S
C307 O300 1.257 . S
Zn308 O311 2.031 1_554 S
Zn308 O313 2.049 . S
Zn308 O318 2.067 1_554 S
Zn309 O310 1.962 . S
Zn309 O312 1.986 . S
Zn309 O314 1.996 . S
Zn309 O317 1.943 1_554 S
O310 Zn309 1.962 . S
O310 C315 1.254 1_554 S
O311 Zn308 2.031 1_556 S
O311 C315 1.269 . S
O312 Zn309 1.986 . S
O312 C319 1.262 . S
O313 Zn308 2.049 . S
O313 C321 1.260 . S
O314 Zn309 1.996 . S
O314 C321 1.257 . S
C315 O310 1.254 1_556 S
C315 O311 1.269 . S
C316 O317 1.249 . S
C316 O318 1.270 . S
O317 Zn309 1.943 1_556 S
O317 C316 1.249 . S
O318 Zn308 2.067 1_556 S
O318 C316 1.270 . S
C319 O312 1.262 . S
C319 O320 1.232 1_554 S
O320 C319 1.232 1_556 S
C321 O313 1.260 . S
C321 O314 1.257 . S
Zn322 O325 2.031 1_554 S
Zn322 O327 2.049 . S
Zn322 O332 2.067 1_554 S
Zn323 O324 1.962 . S
Zn323 O326 1.986 . S
Zn323 O328 1.996 . S
Zn323 O331 1.943 1_554 S
O324 Zn323 1.962 . S
O324 C329 1.254 1_554 S
O325 Zn322 2.031 1_556 S
O325 C329 1.269 . S
O326 Zn323 1.986 . S
O326 C333 1.262 . S
O327 Zn322 2.049 . S
O327 C335 1.260 . S
O328 Zn323 1.996 . S
O328 C335 1.257 . S
C329 O324 1.254 1_556 S
C329 O325 1.269 . S
C330 O331 1.249 . S
C330 O332 1.270 . S
O331 Zn323 1.943 1_556 S
O331 C330 1.249 . S
O332 Zn322 2.067 1_556 S
O332 C330 1.270 . S
C333 O326 1.262 . S
C333 O334 1.232 1_554 S
O334 C333 1.232 1_556 S
C335 O327 1.260 . S
C335 O328 1.257 . S
Zn336 O339 2.031 . S
Zn336 O341 2.049 . S
Zn336 O346 2.067 . S
Zn337 O338 1.962 . S
Zn337 O340 1.986 . S
Zn337 O342 1.996 . S
Zn337 O345 1.943 . S
O338 Zn337 1.962 . S
O338 C343 1.254 . S
O339 Zn336 2.031 . S
O339 C343 1.269 . S
O340 Zn337 1.986 . S
O340 C347 1.262 . S
O341 Zn336 2.049 . S
O341 C349 1.260 . S
O342 Zn337 1.996 . S
O342 C349 1.257 . S
C343 O338 1.254 . S
C343 O339 1.269 . S
C344 O345 1.249 . S
C344 O346 1.270 . S
O345 Zn337 1.943 . S
O345 C344 1.249 . S
O346 Zn336 2.067 . S
O346 C344 1.270 . S
C347 O340 1.262 . S
C347 O348 1.232 . S
O348 C347 1.232 . S
C349 O341 1.260 . S
C349 O342 1.257 . S
Zn350 O353 2.031 . S
Zn350 O355 2.049 . S
Zn350 O360 2.067 . S
Zn351 O352 1.962 . S
Zn351 O354 1.986 . S
Zn351 O356 1.996 . S
Zn351 O359 1.943 . S
O352 Zn351 1.962 . S
O352 C357 1.254 . S
O353 Zn350 2.031 . S
O353 C357 1.269 . S
O354 Zn351 1.986 . S
O354 C361 1.262 . S
O355 Zn350 2.049 . S
O355 C363 1.260 . S
O356 Zn351 1.996 . S
O356 C363 1.257 . S
C357 O352 1.254 . S
C357 O353 1.269 . S
C358 O359 1.249 . S
C358 O360 1.270 . S
O359 Zn351 1.943 . S
O359 C358 1.249 . S
O360 Zn350 2.067 . S
O360 C358 1.270 . S
C361 O354 1.262 . S
C361 O362 1.232 . S
O362 C361 1.232 . S
C363 O355 1.260 . S
C363 O356 1.257 . S
Zn364 O367 2.031 . S
Zn364 O369 2.049 . S
Zn364 O374 2.067 . S
Zn365 O366 1.962 . S
Zn365 O368 1.986 . S
Zn365 O370 1.996 . S
Zn365 O373 1.943 . S
O366 Zn365 1.962 . S
O366 C371 1.254 . S
O367 Zn364 2.031 . S
O367 C371 1.269 . S
O368 Zn365 1.986 . S
O368 C375 1.262 . S
O369 Zn364 2.049 . S
O369 C377 1.260 . S
O370 Zn365 1.996 . S
O370 C377 1.257 . S
C371 O366 1.254 . S
C371 O367 1.269 . S
C372 O373 1.249 . S
C372 O374 1.270 . S
O373 Zn365 1.943 . S
O373 C372 1.249 . S
O374 Zn364 2.067 . S
O374 C372 1.270 . S
C375 O368 1.262 . S
C375 O376 1.232 . S
O376 C375 1.232 . S
C377 O369 1.260 . S
C377 O370 1.257 . S
Zn378 O381 2.031 1_556 S
Zn378 O383 2.049 . S
Zn378 O388 2.067 1_556 S
Zn379 O380 1.962 . S
Zn379 O382 1.986 . S
Zn379 O384 1.996 . S
Zn379 O387 1.943 1_556 S
O380 Zn379 1.962 . S
O380 C385 1.254 1_556 S
O381 Zn378 2.031 1_554 S
O381 C385 1.269 . S
O382 Zn379 1.986 . S
O382 C389 1.262 . S
O383 Zn378 2.049 . S
O383 C391 1.260 . S
O384 Zn379 1.996 . S
O384 C391 1.257 . S
C385 O380 1.254 1_554 S
C385 O381 1.269 . S
C386 O387 1.249 . S
C386 O388 1.270 . S
O387 Zn379 1.943 1_554 S
O387 C386 1.249 . S
O388 Zn378 2.067 1_554 S
O388 C386 1.270 . S
C389 O382 1.262 . S
C389 O390 1.232 1_556 S
O390 C389 1.232 1_554 S
C391 O383 1.260 . S
C391 O384 1.257 . S
Zn392 O395 2.031 1_556 S
Zn392 O397 2.049 . S
Zn392 O402 2.067 1_556 S
Zn393 O394 1.962 . S
Zn393 O396 1.986 . S
Zn393 O398 1.996 . S
Zn393 O401 1.943 1_556 S
O394 Zn393 1.962 . S
O394 C399 1.254 1_556 S
O395 Zn392 2.031 1_554 S
O395 C399 1.269 . S
O396 Zn393 1.986 . S
O396 C403 1.262 . S
O397 Zn392 2.049 . S
O397 C405 1.260 . S
O398 Zn393 1.996 . S
O398 C405 1.257 . S
C399 O394 1.254 1_554 S
C399 O395 1.269 . S
C400 O401 1.249 . S
C400 O402 1.270 . S
O401 Zn393 1.943 1_554 S
O401 C400 1.249 . S
O402 Zn392 2.067 1_554 S
O402 C400 1.270 . S
C403 O396 1.262 . S
C403 O404 1.232 1_556 S
O404 C403 1.232 1_554 S
C405 O397 1.260 . S
C405 O398 1.257 . S
Zn406 O409 2.031 1_556 S
Zn406 O411 2.049 . S
Zn406 O416 2.067 1_556 S
Zn407 O408 1.962 . S
Zn407 O410 1.986 . S
Zn407 O412 1.996 . S
Zn407 O415 1.943 1_556 S
O408 Zn407 1.962 . S
O408 C413 1.254 1_556 S
O409 Zn406 2.031 1_554 S
O409 C413 1.269 . S
O410 Zn407 1.986 . S
O410 C417 1.262 . S
O411 Zn406 2.049 . S
O411 C419 1.260 . S
O412 Zn407 1.996 . S
O412 C419 1.257 . S
C413 O408 1.254 1_554 S
C413 O409 1.269 . S
C414 O415 1.249 . S
C414 O416 1.270 . S
O415 Zn407 1.943 1_554 S
O415 C414 1.249 . S
O416 Zn406 2.067 1_554 S
O416 C414 1.270 . S
C417 O410 1.262 . S
C417 O418 1.232 1_556 S
O418 C417 1.232 1_554 S
C419 O411 1.260 . S
C419 O412 1.257 . S
Zn420 O423 2.031 . S
Zn420 O425 2.049 . S
Zn420 O430 2.067 . S
Zn421 O422 1.962 . S
Zn421 O424 1.986 . S
Zn421 O426 1.996 . S
Zn421 O429 1.943 . S
O422 Zn421 1.962 . S
O422 C427 1.254 . S
O423 Zn420 2.031 . S
O423 C427 1.269 . S
O424 Zn421 1.986 . S
O424 C431 1.262 . S
O425 Zn420 2.049 . S
O425 C433 1.260 . S
O426 Zn421 1.996 . S
O426 C433 1.257 . S
C427 O422 1.254 . S
C427 O423 1.269 . S
C428 O429 1.249 . S
C428 O430 1.270 . S
O429 Zn421 1.943 . S
O429 C428 1.249 . S
O430 Zn420 2.067 . S
O430 C428 1.270 . S
C431 O424 1.262 . S
C431 O432 1.232 . S
O432 C431 1.232 . S
C433 O425 1.260 . S
C433 O426 1.257 . S
Zn434 O437 2.031 . S
Zn434 O439 2.049 . S
Zn434 O444 2.067 . S
Zn435 O436 1.962 . S
Zn435 O438 1.986 . S
Zn435 O440 1.996 . S
Zn435 O443 1.943 . S
O436 Zn435 1.962 . S
O436 C441 1.254 . S
O437 Zn434 2.031 . S
O437 C441 1.269 . S
O438 Zn435 1.986 . S
O438 C445 1.262 . S
O439 Zn434 2.049 . S
O439 C447 1.260 . S
O440 Zn435 1.996 . S
O440 C447 1.257 . S
C441 O436 1.254 . S
C441 O437 1.269 . S
C442 O443 1.249 . S
C442 O444 1.270 . S
O443 Zn435 1.943 . S
O443 C442 1.249 . S
O444 Zn434 2.067 . S
O444 C442 1.270 . S
C445 O438 1.262 . S
C445 O446 1.232 . S
O446 C445 1.232 . S
C447 O439 1.260 . S
C447 O440 1.257 . S
Zn448 O451 2.031 . S
Zn448 O453 2.049 . S
Zn448 O458 2.067 . S
Zn449 O450 1.962 . S
Zn449 O452 1.986 . S
Zn449 O454 1.996 . S
Zn449 O457 1.943 . S
O450 Zn449 1.962 . S
O450 C455 1.254 . S
O451 Zn448 2.031 . S
O451 C455 1.269 . S
O452 Zn449 1.986 . S
O452 C459 1.262 . S
O453 Zn448 2.049 . S
O453 C461 1.260 . S
O454 Zn449 1.996 . S
O454 C461 1.257 . S
C455 O450 1.254 . S
C455 O451 1.269 . S
C456 O457 1.249 . S
C456 O458 1.270 . S
O457 Zn449 1.943 . S
O457 C456 1.249 . S
O458 Zn448 2.067 . S
O458 C456 1.270 . S
C459 O452 1.262 . S
C459 O460 1.232 . S
O460 C459 1.232 . S
C461 O453 1.260 . S
C461 O454 1.257 . S
Zn462 O465 2.031 . S
Zn462 O467 2.049 . S
Zn462 O472 2.067 . S
Zn463 O464 1.962 . S
Zn463 O466 1.986 . S
Zn463 O468 1.996 . S
Zn463 O471 1.943 . S
O464 Zn463 1.962 . S
O464 C469 1.254 . S
O465 Zn462 2.031 . S
O465 C469 1.269 . S
O466 Zn463 1.986 . S
O466 C473 1.262 . S
O467 Zn462 2.049 . S
O467 C475 1.260 . S
O468 Zn463 1.996 . S
O468 C475 1.257 . S
C469 O464 1.254 . S
C469 O465 1.269 . S
C470 O471 1.249 . S
C470 O472 1.270 . S
O471 Zn463 1.943 . S
O471 C470 1.249 . S
O472 Zn462 2.067 . S
O472 C470 1.270 . S
C473 O466 1.262 . S
C473 O474 1.232 . S
O474 C473 1.232 . S
C475 O467 1.260 . S
C475 O468 1.257 . S
Zn476 O479 2.031 . S
Zn476 O481 2.049 . S
Zn476 O486 2.067 . S
Zn477 O478 1.962 . S
Zn477 O480 1.986 . S
Zn477 O482 1.996 . S
Zn477 O485 1.943 . S
O478 Zn477 1.962 . S
O478 C483 1.254 . S
O479 Zn476 2.031 . S
O479 C483 1.269 . S
O480 Zn477 1.986 . S
O480 C487 1.262 . S
O481 Zn476 2.049 . S
O481 C489 1.260 . S
O482 Zn477 1.996 . S
O482 C489 1.257 . S
C483 O478 1.254 . S
C483 O479 1.269 . S
C484 O485 1.249 . S
C484 O486 1.270 . S
O485 Zn477 1.943 . S
O485 C484 1.249 . S
O486 Zn476 2.067 . S
O486 C484 1.270 . S
C487 O480 1.262 . S
C487 O488 1.232 . S
O488 C487 1.232 . S
C489 O481 1.260 . S
C489 O482 1.257 . S
Zn490 O493 2.031 . S
Zn490 O495 2.049 . S
Zn490 O500 2.067 . S
Zn491 O492 1.962 . S
Zn491 O494 1.986 . S
Zn491 O496 1.996 . S
Zn491 O499 1.943 . S
O492 Zn491 1.962 . S
O492 C497 1.254 . S
O493 Zn490 2.031 . S
O493 C497 1.269 . S
O494 Zn491 1.986 . S
O494 C501 1.262 . S
O495 Zn490 2.049 . S
O495 C503 1.260 . S
O496 Zn491 1.996 . S
O496 C503 1.257 . S
C497 O492 1.254 . S
C497 O493 1.269 . S
C498 O499 1.249 . S
C498 O500 1.270 . S
O499 Zn491 1.943 . S
O499 C498 1.249 . S
O500 Zn490 2.067 . S
O500 C498 1.270 . S
C501 O494 1.262 . S
C501 O502 1.232 . S
O502 C501 1.232 . S
C503 O495 1.260 . S
C503 O496 1.257 . S
C504 C505 1.349 . S
C504 C506 1.327 . S
C504 H529 0.950 . S
C505 C504 1.349 . S
C505 C521 1.349 . S
C506 C504 1.327 . S
C506 C525 1.429 . S
C506 H530 0.950 . S
C507 C524 1.574 . S
C507 C526 1.368 . S
C507 H531 0.949 . S
H508 C512 0.949 . S
C509 C510 1.349 . S
C509 C511 1.327 . S
C509 H532 0.950 . S
C510 C509 1.349 . S
C510 C522 1.349 . S
C511 C509 1.327 . S
C511 C527 1.429 . S
C511 H533 0.950 . S
C512 H508 0.949 . S
C512 C520 1.574 . S
C512 C528 1.368 . S
H513 C521 0.950 . S
H514 C519 0.950 . S
H515 C520 0.949 . S
H516 C522 0.950 . S
H517 C523 0.950 . S
H518 C524 0.949 . S
C519 H514 0.950 . S
C519 C521 1.327 . S
C519 C525 1.429 . S
C520 C512 1.574 . S
C520 H515 0.949 . S
C520 C526 1.368 . S
C521 C505 1.349 . S
C521 H513 0.950 . S
C521 C519 1.327 . S
C522 C510 1.349 . S
C522 H516 0.950 . S
C522 C523 1.327 . S
C523 H517 0.950 . S
C523 C522 1.327 . S
C523 C527 1.429 . S
C524 C507 1.574 . S
C524 H518 0.949 . S
C524 C528 1.368 . S
C525 C506 1.429 . S
C525 C519 1.429 . S
C525 C526 1.523 . S
C526 C507 1.368 . S
C526 C520 1.368 . S
C526 C525 1.523 . S
C527 C511 1.429 . S
C527 C523 1.429 . S
C527 C528 1.523 . S
C528 C512 1.368 . S
C528 C524 1.368 . S
C528 C527 1.523 . S
H529 C504 0.950 . S
H530 C506 0.950 . S
H531 C507 0.949 . S
H532 C509 0.950 . S
H533 C511 0.950 . S
C534 C535 1.349 . S
C534 C536 1.327 . S
C534 H559 0.950 . S
C535 C534 1.349 . S
C535 C551 1.349 . S
C536 C534 1.327 . S
C536 C555 1.429 . S
C536 H560 0.950 . S
C537 C554 1.574 1_545 S
C537 C556 1.368 . S
C537 H561 0.949 . S
H538 C542 0.949 . S
C539 C540 1.349 . S
C539 C541 1.327 . S
C539 H562 0.950 . S
C540 C539 1.349 . S
C540 C552 1.349 . S
C541 C539 1.327 . S
C541 C557 1.429 . S
C541 H563 0.950 . S
C542 H538 0.949 . S
C542 C550 1.574 1_565 S
C542 C558 1.368 . S
H543 C551 0.950 . S
H544 C549 0.950 . S
H545 C550 0.949 . S
H546 C552 0.950 . S
H547 C553 0.950 . S
H548 C554 0.949 . S
C549 H544 0.950 . S
C549 C551 1.327 . S
C549 C555 1.429 . S
C550 C542 1.574 1_545 S
C550 H545 0.949 . S
C550 C556 1.368 . S
C551 C535 1.349 . S
C551 H543 0.950 . S
C551 C549 1.327 . S
C552 C540 1.349 . S
C552 H546 0.950 . S
C552 C553 1.327 . S
C553 H547 0.950 . S
C553 C552 1.327 . S
C553 C557 1.429 . S
C554 C537 1.574 1_565 S
C554 H548 0.949 . S
C554 C558 1.368 . S
C555 C536 1.429 . S
C555 C549 1.429 . S
C555 C556 1.523 . S
C556 C537 1.368 . S
C556 C550 1.368 . S
C556 C555 1.523 . S
C557 C541 1.429 . S
C557 C553 1.429 . S
C557 C558 1.523 . S
C558 C542 1.368 . S
C558 C554 1.368 . S
C558 C557 1.523 . S
H559 C534 0.950 . S
H560 C536 0.950 . S
H561 C537 0.949 . S
H562 C539 0.950 . S
H563 C541 0.950 . S
C564 C565 1.349 . S
C564 C566 1.327 . S
C564 H589 0.950 . S
C565 C564 1.349 . S
C565 C581 1.349 . S
C566 C564 1.327 . S
C566 C585 1.429 . S
C566 H590 0.950 . S
C567 C584 1.574 1_655 S
C567 C586 1.368 . S
C567 H591 0.949 . S
H568 C572 0.949 . S
C569 C570 1.349 . S
C569 C571 1.327 . S
C569 H592 0.950 . S
C570 C569 1.349 . S
C570 C582 1.349 . S
C571 C569 1.327 . S
C571 C587 1.429 . S
C571 H593 0.950 . S
C572 H568 0.949 . S
C572 C580 1.574 1_455 S
C572 C588 1.368 . S
H573 C581 0.950 . S
H574 C579 0.950 . S
H575 C580 0.949 . S
H576 C582 0.950 . S
H577 C583 0.950 . S
H578 C584 0.949 . S
C579 H574 0.950 . S
C579 C581 1.327 . S
C579 C585 1.429 . S
C580 C572 1.574 1_655 S
C580 H575 0.949 . S
C580 C586 1.368 . S
C581 C565 1.349 . S
C581 H573 0.950 . S
C581 C579 1.327 . S
C582 C570 1.349 . S
C582 H576 0.950 . S
C582 C583 1.327 . S
C583 H577 0.950 . S
C583 C582 1.327 . S
C583 C587 1.429 . S
C584 C567 1.574 1_455 S
C584 H578 0.949 . S
C584 C588 1.368 . S
C585 C566 1.429 . S
C585 C579 1.429 . S
C585 C586 1.523 . S
C586 C567 1.368 . S
C586 C580 1.368 . S
C586 C585 1.523 . S
C587 C571 1.429 . S
C587 C583 1.429 . S
C587 C588 1.523 . S
C588 C572 1.368 . S
C588 C584 1.368 . S
C588 C587 1.523 . S
H589 C564 0.950 . S
H590 C566 0.950 . S
H591 C567 0.949 . S
H592 C569 0.950 . S
H593 C571 0.950 . S
C594 C595 1.349 . S
C594 C596 1.327 . S
C594 H619 0.950 . S
C595 C594 1.349 . S
C595 C611 1.349 . S
C596 C594 1.327 . S
C596 C615 1.429 . S
C596 H620 0.950 . S
C597 C614 1.574 . S
C597 C616 1.368 . S
C597 H621 0.949 . S
H598 C602 0.949 . S
C599 C600 1.349 . S
C599 C601 1.327 . S
C599 H622 0.950 . S
C600 C599 1.349 . S
C600 C612 1.349 . S
C601 C599 1.327 . S
C601 C617 1.429 . S
C601 H623 0.950 . S
C602 H598 0.949 . S
C602 C610 1.574 . S
C602 C618 1.368 . S
H603 C611 0.950 . S
H604 C609 0.950 . S
H605 C610 0.949 . S
H606 C612 0.950 . S
H607 C613 0.950 . S
H608 C614 0.949 . S
C609 H604 0.950 . S
C609 C611 1.327 . S
C609 C615 1.429 . S
C610 C602 1.574 . S
C610 H605 0.949 . S
C610 C616 1.368 . S
C611 C595 1.349 . S
C611 H603 0.950 . S
C611 C609 1.327 . S
C612 C600 1.349 . S
C612 H606 0.950 . S
C612 C613 1.327 . S
C613 H607 0.950 . S
C613 C612 1.327 . S
C613 C617 1.429 . S
C614 C597 1.574 . S
C614 H608 0.949 . S
C614 C618 1.368 . S
C615 C596 1.429 . S
C615 C609 1.429 . S
C615 C616 1.523 . S
C616 C597 1.368 . S
C616 C610 1.368 . S
C616 C615 1.523 . S
C617 C601 1.429 . S
C617 C613 1.429 . S
C617 C618 1.523 . S
C618 C602 1.368 . S
C618 C614 1.368 . S
C618 C617 1.523 . S
H619 C594 0.950 . S
H620 C596 0.950 . S
H621 C597 0.949 . S
H622 C599 0.950 . S
H623 C601 0.950 . S
C624 C625 1.349 . S
C624 C626 1.327 . S
C624 H649 0.950 . S
C625 C624 1.349 . S
C625 C641 1.349 . S
C626 C624 1.327 . S
C626 C645 1.429 . S
C626 H650 0.950 . S
C627 C644 1.574 1_545 S
C627 C646 1.368 . S
C627 H651 0.949 . S
H628 C632 0.949 . S
C629 C630 1.349 . S
C629 C631 1.327 . S
C629 H652 0.950 . S
C630 C629 1.349 . S
C630 C642 1.349 . S
C631 C629 1.327 . S
C631 C647 1.429 . S
C631 H653 0.950 . S
C632 H628 0.949 . S
C632 C640 1.574 1_565 S
C632 C648 1.368 . S
H633 C641 0.950 . S
H634 C639 0.950 . S
H635 C640 0.949 . S
H636 C642 0.950 . S
H637 C643 0.950 . S
H638 C644 0.949 . S
C639 H634 0.950 . S
C639 C641 1.327 . S
C639 C645 1.429 . S
C640 C632 1.574 1_545 S
C640 H635 0.949 . S
C640 C646 1.368 . S
C641 C625 1.349 . S
C641 H633 0.950 . S
C641 C639 1.327 . S
C642 C630 1.349 . S
C642 H636 0.950 . S
C642 C643 1.327 . S
C643 H637 0.950 . S
C643 C642 1.327 . S
C643 C647 1.429 . S
C644 C627 1.574 1_565 S
C644 H638 0.949 . S
C644 C648 1.368 . S
C645 C626 1.429 . S
C645 C639 1.429 . S
C645 C646 1.523 . S
C646 C627 1.368 . S
C646 C640 1.368 . S
C646 C645 1.523 . S
C647 C631 1.429 . S
C647 C643 1.429 . S
C647 C648 1.523 . S
C648 C632 1.368 . S
C648 C644 1.368 . S
C648 C647 1.523 . S
H649 C624 0.950 . S
H650 C626 0.950 . S
H651 C627 0.949 . S
H652 C629 0.950 . S
H653 C631 0.950 . S
C654 C655 1.349 . S
C654 C656 1.327 . S
C654 H679 0.950 . S
C655 C654 1.349 . S
C655 C671 1.349 . S
C656 C654 1.327 . S
C656 C675 1.429 . S
C656 H680 0.950 . S
C657 C674 1.574 1_455 S
C657 C676 1.368 . S
C657 H681 0.949 . S
H658 C662 0.949 . S
C659 C660 1.349 . S
C659 C661 1.327 . S
C659 H682 0.950 . S
C660 C659 1.349 . S
C660 C672 1.349 . S
C661 C659 1.327 . S
C661 C677 1.429 . S
C661 H683 0.950 . S
C662 H658 0.949 . S
C662 C670 1.574 1_655 S
C662 C678 1.368 . S
H663 C671 0.950 . S
H664 C669 0.950 . S
H665 C670 0.949 . S
H666 C672 0.950 . S
H667 C673 0.950 . S
H668 C674 0.949 . S
C669 H664 0.950 . S
C669 C671 1.327 . S
C669 C675 1.429 . S
C670 C662 1.574 1_455 S
C670 H665 0.949 . S
C670 C676 1.368 . S
C671 C655 1.349 . S
C671 H663 0.950 . S
C671 C669 1.327 . S
C672 C660 1.349 . S
C672 H666 0.950 . S
C672 C673 1.327 . S
C673 H667 0.950 . S
C673 C672 1.327 . S
C673 C677 1.429 . S
C674 C657 1.574 1_655 S
C674 H668 0.949 . S
C674 C678 1.368 . S
C675 C656 1.429 . S
C675 C669 1.429 . S
C675 C676 1.523 . S
C676 C657 1.368 . S
C676 C670 1.368 . S
C676 C675 1.523 . S
C677 C661 1.429 . S
C677 C673 1.429 . S
C677 C678 1.523 . S
C678 C662 1.368 . S
C678 C674 1.368 . S
C678 C677 1.523 . S
H679 C654 0.950 . S
H680 C656 0.950 . S
H681 C657 0.949 . S
H682 C659 0.950 . S
H683 C661 0.950 . S
C684 C685 1.349 . S
C684 C686 1.327 . S
C684 H709 0.950 . S
C685 C684 1.349 . S
C685 C701 1.349 . S
C686 C684 1.327 . S
C686 C705 1.429 . S
C686 H710 0.950 . S
C687 C704 1.574 . S
C687 C706 1.368 . S
C687 H711 0.949 . S
H688 C692 0.949 . S
C689 C690 1.349 . S
C689 C691 1.327 . S
C689 H712 0.950 . S
C690 C689 1.349 . S
C690 C702 1.349 . S
C691 C689 1.327 . S
C691 C707 1.429 . S
C691 H713 0.950 . S
C692 H688 0.949 . S
C692 C700 1.574 . S
C692 C708 1.368 . S
H693 C701 0.950 . S
H694 C699 0.950 . S
H695 C700 0.949 . S
H696 C702 0.950 . S
H697 C703 0.950 . S
H698 C704 0.949 . S
C699 H694 0.950 . S
C699 C701 1.327 . S
C699 C705 1.429 . S
C700 C692 1.574 . S
C700 H695 0.949 . S
C700 C706 1.368 . S
C701 C685 1.349 . S
C701 H693 0.950 . S
C701 C699 1.327 . S
C702 C690 1.349 . S
C702 H696 0.950 . S
C702 C703 1.327 . S
C703 H697 0.950 . S
C703 C702 1.327 . S
C703 C707 1.429 . S
C704 C687 1.574 . S
C704 H698 0.949 . S
C704 C708 1.368 . S
C705 C686 1.429 . S
C705 C699 1.429 . S
C705 C706 1.523 . S
C706 C687 1.368 . S
C706 C700 1.368 . S
C706 C705 1.523 . S
C707 C691 1.429 . S
C707 C703 1.429 . S
C707 C708 1.523 . S
C708 C692 1.368 . S
C708 C704 1.368 . S
C708 C707 1.523 . S
H709 C684 0.950 . S
H710 C686 0.950 . S
H711 C687 0.949 . S
H712 C689 0.950 . S
H713 C691 0.950 . S
C714 C715 1.349 . S
C714 C716 1.327 . S
C714 H739 0.950 . S
C715 C714 1.349 . S
C715 C731 1.349 . S
C716 C714 1.327 . S
C716 C735 1.429 . S
C716 H740 0.950 . S
C717 C734 1.574 . S
C717 C736 1.368 . S
C717 H741 0.949 . S
H718 C722 0.949 . S
C719 C720 1.349 . S
C719 C721 1.327 . S
C719 H742 0.950 . S
C720 C719 1.349 . S
C720 C732 1.349 . S
C721 C719 1.327 . S
C721 C737 1.429 . S
C721 H743 0.950 . S
C722 H718 0.949 . S
C722 C730 1.574 . S
C722 C738 1.368 . S
H723 C731 0.950 . S
H724 C729 0.950 . S
H725 C730 0.949 . S
H726 C732 0.950 . S
H727 C733 0.950 . S
H728 C734 0.949 . S
C729 H724 0.950 . S
C729 C731 1.327 . S
C729 C735 1.429 . S
C730 C722 1.574 . S
C730 H725 0.949 . S
C730 C736 1.368 . S
C731 C715 1.349 . S
C731 H723 0.950 . S
C731 C729 1.327 . S
C732 C720 1.349 . S
C732 H726 0.950 . S
C732 C733 1.327 . S
C733 H727 0.950 . S
C733 C732 1.327 . S
C733 C737 1.429 . S
C734 C717 1.574 . S
C734 H728 0.949 . S
C734 C738 1.368 . S
C735 C716 1.429 . S
C735 C729 1.429 . S
C735 C736 1.523 . S
C736 C717 1.368 . S
C736 C730 1.368 . S
C736 C735 1.523 . S
C737 C721 1.429 . S
C737 C733 1.429 . S
C737 C738 1.523 . S
C738 C722 1.368 . S
C738 C734 1.368 . S
C738 C737 1.523 . S
H739 C714 0.950 . S
H740 C716 0.950 . S
H741 C717 0.949 . S
H742 C719 0.950 . S
H743 C721 0.950 . S
C744 C745 1.349 . S
C744 C746 1.327 . S
C744 H769 0.950 . S
C745 C744 1.349 . S
C745 C761 1.349 . S
C746 C744 1.327 . S
C746 C765 1.429 . S
C746 H770 0.950 . S
C747 C764 1.574 . S
C747 C766 1.368 . S
C747 H771 0.949 . S
H748 C752 0.949 . S
C749 C750 1.349 . S
C749 C751 1.327 . S
C749 H772 0.950 . S
C750 C749 1.349 . S
C750 C762 1.349 . S
C751 C749 1.327 . S
C751 C767 1.429 . S
C751 H773 0.950 . S
C752 H748 0.949 . S
C752 C760 1.574 . S
C752 C768 1.368 . S
H753 C761 0.950 . S
H754 C759 0.950 . S
H755 C760 0.949 . S
H756 C762 0.950 . S
H757 C763 0.950 . S
H758 C764 0.949 . S
C759 H754 0.950 . S
C759 C761 1.327 . S
C759 C765 1.429 . S
C760 C752 1.574 . S
C760 H755 0.949 . S
C760 C766 1.368 . S
C761 C745 1.349 . S
C761 H753 0.950 . S
C761 C759 1.327 . S
C762 C750 1.349 . S
C762 H756 0.950 . S
C762 C763 1.327 . S
C763 H757 0.950 . S
C763 C762 1.327 . S
C763 C767 1.429 . S
C764 C747 1.574 . S
C764 H758 0.949 . S
C764 C768 1.368 . S
C765 C746 1.429 . S
C765 C759 1.429 . S
C765 C766 1.523 . S
C766 C747 1.368 . S
C766 C760 1.368 . S
C766 C765 1.523 . S
C767 C751 1.429 . S
C767 C763 1.429 . S
C767 C768 1.523 . S
C768 C752 1.368 . S
C768 C764 1.368 . S
C768 C767 1.523 . S
H769 C744 0.950 . S
H770 C746 0.950 . S
H771 C747 0.949 . S
H772 C749 0.950 . S
H773 C751 0.950 . S
C774 C775 1.349 . S
C774 C776 1.327 . S
C774 H799 0.950 . S
C775 C774 1.349 . S
C775 C791 1.349 . S
C776 C774 1.327 . S
C776 C795 1.429 . S
C776 H800 0.950 . S
C777 C794 1.574 . S
C777 C796 1.368 . S
C777 H801 0.949 . S
H778 C782 0.949 . S
C779 C780 1.349 . S
C779 C781 1.327 . S
C779 H802 0.950 1_554 S
C780 C779 1.349 . S
C780 C792 1.349 . S
C781 C779 1.327 . S
C781 C797 1.429 . S
C781 H803 0.950 . S
C782 H778 0.949 . S
C782 C790 1.574 . S
C782 C798 1.368 . S
H783 C791 0.950 . S
H784 C789 0.950 . S
H785 C790 0.949 . S
H786 C792 0.950 . S
H787 C793 0.950 . S
H788 C794 0.949 . S
C789 H784 0.950 . S
C789 C791 1.327 . S
C789 C795 1.429 . S
C790 C782 1.574 . S
C790 H785 0.949 . S
C790 C796 1.368 . S
C791 C775 1.349 . S
C791 H783 0.950 . S
C791 C789 1.327 . S
C792 C780 1.349 . S
C792 H786 0.950 . S
C792 C793 1.327 . S
C793 H787 0.950 . S
C793 C792 1.327 . S
C793 C797 1.429 . S
C794 C777 1.574 . S
C794 H788 0.949 . S
C794 C798 1.368 . S
C795 C776 1.429 . S
C795 C789 1.429 . S
C795 C796 1.523 . S
C796 C777 1.368 . S
C796 C790 1.368 . S
C796 C795 1.523 . S
C797 C781 1.429 . S
C797 C793 1.429 . S
C797 C798 1.523 . S
C798 C782 1.368 . S
C798 C794 1.368 . S
C798 C797 1.523 . S
H799 C774 0.950 . S
H800 C776 0.950 . S
H801 C777 0.949 . S
H802 C779 0.950 1_556 S
H803 C781 0.950 . S
C804 C805 1.349 . S
C804 C806 1.327 . S
C804 H829 0.950 . S
C805 C804 1.349 . S
C805 C821 1.349 . S
C806 C804 1.327 . S
C806 C825 1.429 . S
C806 H830 0.950 . S
C807 C824 1.574 . S
C807 C826 1.368 . S
C807 H831 0.949 . S
H808 C812 0.949 . S
C809 C810 1.349 . S
C809 C811 1.327 . S
C809 H832 0.950 . S
C810 C809 1.349 . S
C810 C822 1.349 . S
C811 C809 1.327 . S
C811 C827 1.429 . S
C811 H833 0.950 . S
C812 H808 0.949 . S
C812 C820 1.574 . S
C812 C828 1.368 . S
H813 C821 0.950 1_556 S
H814 C819 0.950 . S
H815 C820 0.949 . S
H816 C822 0.950 . S
H817 C823 0.950 . S
H818 C824 0.949 . S
C819 H814 0.950 . S
C819 C821 1.327 . S
C819 C825 1.429 . S
C820 C812 1.574 . S
C820 H815 0.949 . S
C820 C826 1.368 . S
C821 C805 1.349 . S
C821 H813 0.950 1_554 S
C821 C819 1.327 . S
C822 C810 1.349 . S
C822 H816 0.950 . S
C822 C823 1.327 . S
C823 H817 0.950 . S
C823 C822 1.327 . S
C823 C827 1.429 . S
C824 C807 1.574 . S
C824 H818 0.949 . S
C824 C828 1.368 . S
C825 C806 1.429 . S
C825 C819 1.429 . S
C825 C826 1.523 . S
C826 C807 1.368 . S
C826 C820 1.368 . S
C826 C825 1.523 . S
C827 C811 1.429 . S
C827 C823 1.429 . S
C827 C828 1.523 . S
C828 C812 1.368 . S
C828 C824 1.368 . S
C828 C827 1.523 . S
H829 C804 0.950 . S
H830 C806 0.950 . S
H831 C807 0.949 . S
H832 C809 0.950 . S
H833 C811 0.950 . S
C834 C835 1.349 . S
C834 C836 1.327 . S
C834 H859 0.950 . S
C835 C834 1.349 . S
C835 C851 1.349 . S
C836 C834 1.327 . S
C836 C855 1.429 . S
C836 H860 0.950 . S
C837 C854 1.574 . S
C837 C856 1.368 . S
C837 H861 0.949 . S
H838 C842 0.949 . S
C839 C840 1.349 . S
C839 C841 1.327 . S
C839 H862 0.950 . S
C840 C839 1.349 . S
C840 C852 1.349 . S
C841 C839 1.327 . S
C841 C857 1.429 . S
C841 H863 0.950 . S
C842 H838 0.949 . S
C842 C850 1.574 . S
C842 C858 1.368 . S
H843 C851 0.950 . S
H844 C849 0.950 . S
H845 C850 0.949 . S
H846 C852 0.950 1_556 S
H847 C853 0.950 1_556 S
H848 C854 0.949 . S
C849 H844 0.950 . S
C849 C851 1.327 . S
C849 C855 1.429 . S
C850 C842 1.574 . S
C850 H845 0.949 . S
C850 C856 1.368 . S
C851 C835 1.349 . S
C851 H843 0.950 . S
C851 C849 1.327 . S
C852 C840 1.349 . S
C852 H846 0.950 1_554 S
C852 C853 1.327 . S
C853 H847 0.950 1_554 S
C853 C852 1.327 . S
C853 C857 1.429 . S
C854 C837 1.574 . S
C854 H848 0.949 . S
C854 C858 1.368 . S
C855 C836 1.429 . S
C855 C849 1.429 . S
C855 C856 1.523 . S
C856 C837 1.368 . S
C856 C850 1.368 . S
C856 C855 1.523 . S
C857 C841 1.429 . S
C857 C853 1.429 . S
C857 C858 1.523 . S
C858 C842 1.368 . S
C858 C854 1.368 . S
C858 C857 1.523 . S
H859 C834 0.950 . S
H860 C836 0.950 . S
H861 C837 0.949 . S
H862 C839 0.950 . S
H863 C841 0.950 . S
C864 C865 1.349 . S
C864 C866 1.327 . S
C864 H889 0.950 . S
C865 C864 1.349 . S
C865 C881 1.349 . S
C866 C864 1.327 . S
C866 C885 1.429 . S
C866 H890 0.950 . S
C867 C884 1.574 . S
C867 C886 1.368 . S
C867 H891 0.949 . S
H868 C872 0.949 . S
C869 C870 1.349 . S
C869 C871 1.327 . S
C869 H892 0.950 . S
C870 C869 1.349 . S
C870 C882 1.349 . S
C871 C869 1.327 . S
C871 C887 1.429 . S
C871 H893 0.950 . S
C872 H868 0.949 . S
C872 C880 1.574 . S
C872 C888 1.368 . S
H873 C881 0.950 . S
H874 C879 0.950 . S
H875 C880 0.949 . S
H876 C882 0.950 1_554 S
H877 C883 0.950 . S
H878 C884 0.949 . S
C879 H874 0.950 . S
C879 C881 1.327 . S
C879 C885 1.429 . S
C880 C872 1.574 . S
C880 H875 0.949 . S
C880 C886 1.368 . S
C881 C865 1.349 . S
C881 H873 0.950 . S
C881 C879 1.327 . S
C882 C870 1.349 . S
C882 H876 0.950 1_556 S
C882 C883 1.327 . S
C883 H877 0.950 . S
C883 C882 1.327 . S
C883 C887 1.429 . S
C884 C867 1.574 . S
C884 H878 0.949 . S
C884 C888 1.368 . S
C885 C866 1.429 . S
C885 C879 1.429 . S
C885 C886 1.523 . S
C886 C867 1.368 . S
C886 C880 1.368 . S
C886 C885 1.523 . S
C887 C871 1.429 . S
C887 C883 1.429 . S
C887 C888 1.523 . S
C888 C872 1.368 . S
C888 C884 1.368 . S
C888 C887 1.523 . S
H889 C864 0.950 . S
H890 C866 0.950 . S
H891 C867 0.949 . S
H892 C869 0.950 . S
H893 C871 0.950 . S
C894 C895 1.349 . S
C894 C896 1.327 . S
C894 H919 0.950 . S
C895 C894 1.349 . S
C895 C911 1.349 . S
C896 C894 1.327 . S
C896 C915 1.429 . S
C896 H920 0.950 . S
C897 C914 1.574 . S
C897 C916 1.368 . S
C897 H921 0.949 . S
H898 C902 0.949 . S
C899 C900 1.349 . S
C899 C901 1.327 . S
C899 H922 0.950 . S
C900 C899 1.349 . S
C900 C912 1.349 . S
C901 C899 1.327 . S
C901 C917 1.429 . S
C901 H923 0.950 . S
C902 H898 0.949 . S
C902 C910 1.574 . S
C902 C918 1.368 . S
H903 C911 0.950 . S
H904 C909 0.950 . S
H905 C910 0.949 . S
H906 C912 0.950 1_554 S
H907 C913 0.950 . S
H908 C914 0.949 . S
C909 H904 0.950 . S
C909 C911 1.327 . S
C909 C915 1.429 . S
C910 C902 1.574 . S
C910 H905 0.949 . S
C910 C916 1.368 . S
C911 C895 1.349 . S
C911 H903 0.950 . S
C911 C909 1.327 . S
C912 C900 1.349 . S
C912 H906 0.950 1_556 S
C912 C913 1.327 . S
C913 H907 0.950 . S
C913 C912 1.327 . S
C913 C917 1.429 . S
C914 C897 1.574 . S
C914 H908 0.949 . S
C914 C918 1.368 . S
C915 C896 1.429 . S
C915 C909 1.429 . S
C915 C916 1.523 . S
C916 C897 1.368 . S
C916 C910 1.368 . S
C916 C915 1.523 . S
C917 C901 1.429 . S
C917 C913 1.429 . S
C917 C918 1.523 . S
C918 C902 1.368 . S
C918 C914 1.368 . S
C918 C917 1.523 . S
H919 C894 0.950 . S
H920 C896 0.950 . S
H921 C897 0.949 . S
H922 C899 0.950 . S
H923 C901 0.950 . S
C924 C925 1.349 . S
C924 C926 1.327 . S
C924 H949 0.950 . S
C925 C924 1.349 . S
C925 C941 1.349 . S
C926 C924 1.327 . S
C926 C945 1.429 . S
C926 H950 0.950 . S
C927 C944 1.574 . S
C927 C946 1.368 . S
C927 H951 0.949 . S
H928 C932 0.949 . S
C929 C930 1.349 . S
C929 C931 1.327 . S
C929 H952 0.950 . S
C930 C929 1.349 . S
C930 C942 1.349 . S
C931 C929 1.327 . S
C931 C947 1.429 . S
C931 H953 0.950 . S
C932 H928 0.949 . S
C932 C940 1.574 . S
C932 C948 1.368 . S
H933 C941 0.950 1_554 S
H934 C939 0.950 1_554 S
H935 C940 0.949 . S
H936 C942 0.950 . S
H937 C943 0.950 . S
H938 C944 0.949 . S
C939 H934 0.950 1_556 S
C939 C941 1.327 . S
C939 C945 1.429 . S
C940 C932 1.574 . S
C940 H935 0.949 . S
C940 C946 1.368 . S
C941 C925 1.349 . S
C941 H933 0.950 1_556 S
C941 C939 1.327 . S
C942 C930 1.349 . S
C942 H936 0.950 . S
C942 C943 1.327 . S
C943 H937 0.950 . S
C943 C942 1.327 . S
C943 C947 1.429 . S
C944 C927 1.574 . S
C944 H938 0.949 . S
C944 C948 1.368 . S
C945 C926 1.429 . S
C945 C939 1.429 . S
C945 C946 1.523 . S
C946 C927 1.368 . S
C946 C940 1.368 . S
C946 C945 1.523 . S
C947 C931 1.429 . S
C947 C943 1.429 . S
C947 C948 1.523 . S
C948 C932 1.368 . S
C948 C944 1.368 . S
C948 C947 1.523 . S
H949 C924 0.950 . S
H950 C926 0.950 . S
H951 C927 0.949 . S
H952 C929 0.950 . S
H953 C931 0.950 . S
C954 C955 1.349 . S
C954 C956 1.327 . S
C954 H979 0.950 . S
C955 C954 1.349 . S
C955 C971 1.349 . S
C956 C954 1.327 . S
C956 C975 1.429 . S
C956 H980 0.950 . S
C957 C974 1.574 . S
C957 C976 1.368 . S
C957 H981 0.949 . S
H958 C962 0.949 . S
C959 C960 1.349 . S
C959 C961 1.327 . S
C959 H982 0.950 . S
C960 C959 1.349 . S
C960 C972 1.349 . S
C961 C959 1.327 . S
C961 C977 1.429 . S
C961 H983 0.950 . S
C962 H958 0.949 . S
C962 C970 1.574 . S
C962 C978 1.368 . S
H963 C971 0.950 . S
H964 C969 0.950 . S
H965 C970 0.949 . S
H966 C972 0.950 . S
H967 C973 0.950 . S
H968 C974 0.949 . S
C969 H964 0.950 . S
C969 C971 1.327 . S
C969 C975 1.429 . S
C970 C962 1.574 . S
C970 H965 0.949 . S
C970 C976 1.368 . S
C971 C955 1.349 . S
C971 H963 0.950 . S
C971 C969 1.327 . S
C972 C960 1.349 . S
C972 H966 0.950 . S
C972 C973 1.327 . S
C973 H967 0.950 . S
C973 C972 1.327 . S
C973 C977 1.429 . S
C974 C957 1.574 . S
C974 H968 0.949 . S
C974 C978 1.368 . S
C975 C956 1.429 . S
C975 C969 1.429 . S
C975 C976 1.523 . S
C976 C957 1.368 . S
C976 C970 1.368 . S
C976 C975 1.523 . S
C977 C961 1.429 . S
C977 C973 1.429 . S
C977 C978 1.523 . S
C978 C962 1.368 . S
C978 C974 1.368 . S
C978 C977 1.523 . S
H979 C954 0.950 . S
H980 C956 0.950 . S
H981 C957 0.949 . S
H982 C959 0.950 . S
H983 C961 0.950 . S
C984 C985 1.349 . S
C984 C986 1.327 . S
C984 H1009 0.950 . S
C985 C984 1.349 . S
C985 C1001 1.349 . S
C986 C984 1.327 . S
C986 C1005 1.429 . S
C986 H1010 0.950 . S
C987 C1004 1.574 . S
C987 C1006 1.368 . S
C987 H1011 0.949 . S
H988 C992 0.949 . S
C989 C990 1.349 . S
C989 C991 1.327 . S
C989 H1012 0.950 . S
C990 C989 1.349 . S
C990 C1002 1.349 . S
C991 C989 1.327 . S
C991 C1007 1.429 . S
C991 H1013 0.950 . S
C992 H988 0.949 . S
C992 C1000 1.574 . S
C992 C1008 1.368 . S
H993 C1001 0.950 . S
H994 C999 0.950 . S
H995 C1000 0.949 . S
H996 C1002 0.950 . S
H997 C1003 0.950 . S
H998 C1004 0.949 . S
C999 H994 0.950 . S
C999 C1001 1.327 . S
C999 C1005 1.429 . S
C1000 C992 1.574 . S
C1000 H995 0.949 . S
C1000 C1006 1.368 . S
C1001 C985 1.349 . S
C1001 H993 0.950 . S
C1001 C999 1.327 . S
C1002 C990 1.349 . S
C1002 H996 0.950 . S
C1002 C1003 1.327 . S
C1003 H997 0.950 . S
C1003 C1002 1.327 . S
C1003 C1007 1.429 . S
C1004 C987 1.574 . S
C1004 H998 0.949 . S
C1004 C1008 1.368 . S
C1005 C986 1.429 . S
C1005 C999 1.429 . S
C1005 C1006 1.523 . S
C1006 C987 1.368 . S
C1006 C1000 1.368 . S
C1006 C1005 1.523 . S
C1007 C991 1.429 . S
C1007 C1003 1.429 . S
C1007 C1008 1.523 . S
C1008 C992 1.368 . S
C1008 C1004 1.368 . S
C1008 C1007 1.523 . S
H1009 C984 0.950 . S
H1010 C986 0.950 . S
H1011 C987 0.949 . S
H1012 C989 0.950 . S
H1013 C991 0.950 . S
C1014 C1015 1.349 . S
C1014 C1016 1.327 . S
C1014 H1039 0.950 . S
C1015 C1014 1.349 . S
C1015 C1031 1.349 . S
C1016 C1014 1.327 . S
C1016 C1035 1.429 . S
C1016 H1040 0.950 . S
C1017 C1034 1.574 . S
C1017 C1036 1.368 . S
C1017 H1041 0.949 . S
H1018 C1022 0.949 . S
C1019 C1020 1.349 . S
C1019 C1021 1.327 . S
C1019 H1042 0.950 . S
C1020 C1019 1.349 . S
C1020 C1032 1.349 . S
C1021 C1019 1.327 . S
C1021 C1037 1.429 . S
C1021 H1043 0.950 . S
C1022 H1018 0.949 . S
C1022 C1030 1.574 . S
C1022 C1038 1.368 . S
H1023 C1031 0.950 . S
H1024 C1029 0.950 . S
H1025 C1030 0.949 . S
H1026 C1032 0.950 . S
H1027 C1033 0.950 . S
H1028 C1034 0.949 . S
C1029 H1024 0.950 . S
C1029 C1031 1.327 . S
C1029 C1035 1.429 . S
C1030 C1022 1.574 . S
C1030 H1025 0.949 . S
C1030 C1036 1.368 . S
C1031 C1015 1.349 . S
C1031 H1023 0.950 . S
C1031 C1029 1.327 . S
C1032 C1020 1.349 . S
C1032 H1026 0.950 . S
C1032 C1033 1.327 . S
C1033 H1027 0.950 . S
C1033 C1032 1.327 . S
C1033 C1037 1.429 . S
C1034 C1017 1.574 . S
C1034 H1028 0.949 . S
C1034 C1038 1.368 . S
C1035 C1016 1.429 . S
C1035 C1029 1.429 . S
C1035 C1036 1.523 . S
C1036 C1017 1.368 . S
C1036 C1030 1.368 . S
C1036 C1035 1.523 . S
C1037 C1021 1.429 . S
C1037 C1033 1.429 . S
C1037 C1038 1.523 . S
C1038 C1022 1.368 . S
C1038 C1034 1.368 . S
C1038 C1037 1.523 . S
H1039 C1014 0.950 . S
H1040 C1016 0.950 . S
H1041 C1017 0.949 . S
H1042 C1019 0.950 . S
H1043 C1021 0.950 . S
C1044 C1045 1.349 . S
C1044 C1046 1.327 . S
C1044 H1069 0.950 . S
C1045 C1044 1.349 . S
C1045 C1061 1.349 . S
C1046 C1044 1.327 . S
C1046 C1065 1.429 . S
C1046 H1070 0.950 . S
C1047 C1064 1.574 . S
C1047 C1066 1.368 . S
C1047 H1071 0.949 . S
H1048 C1052 0.949 . S
C1049 C1050 1.349 . S
C1049 C1051 1.327 . S
C1049 H1072 0.950 . S
C1050 C1049 1.349 . S
C1050 C1062 1.349 . S
C1051 C1049 1.327 . S
C1051 C1067 1.429 . S
C1051 H1073 0.950 . S
C1052 H1048 0.949 . S
C1052 C1060 1.574 . S
C1052 C1068 1.368 . S
H1053 C1061 0.950 . S
H1054 C1059 0.950 . S
H1055 C1060 0.949 . S
H1056 C1062 0.950 . S
H1057 C1063 0.950 . S
H1058 C1064 0.966 . S
C1059 H1054 0.950 . S
C1059 C1061 1.327 . S
C1059 C1065 1.429 . S
C1060 C1052 1.574 . S
C1060 H1055 0.949 . S
C1060 C1066 1.368 . S
C1061 C1045 1.349 . S
C1061 H1053 0.950 . S
C1061 C1059 1.327 . S
C1062 C1050 1.349 . S
C1062 H1056 0.950 . S
C1062 C1063 1.327 . S
C1063 H1057 0.950 . S
C1063 C1062 1.327 . S
C1063 C1067 1.429 . S
C1064 C1047 1.574 . S
C1064 H1058 0.966 . S
C1064 C1068 1.368 . S
C1065 C1046 1.429 . S
C1065 C1059 1.429 . S
C1065 C1066 1.523 . S
C1066 C1047 1.368 . S
C1066 C1060 1.368 . S
C1066 C1065 1.523 . S
C1067 C1051 1.429 . S
C1067 C1063 1.429 . S
C1067 C1068 1.523 1_554 S
C1068 C1052 1.368 . S
C1068 C1064 1.368 . S
C1068 C1067 1.523 1_556 S
H1069 C1044 0.950 . S
H1070 C1046 0.950 . S
H1071 C1047 0.949 . S
H1072 C1049 0.950 . S
H1073 C1051 0.950 . S
C1074 C1075 1.349 . S
C1074 C1076 1.327 . S
C1074 H1099 0.950 . S
C1075 C1074 1.349 . S
C1075 C1091 1.349 . S
C1076 C1074 1.327 . S
C1076 C1095 1.429 . S
C1076 H1100 0.950 . S
C1077 C1094 1.574 . S
C1077 C1096 1.368 . S
C1077 H1101 0.949 . S
H1078 C1082 0.949 . S
C1079 C1080 1.349 . S
C1079 C1081 1.327 . S
C1079 H1102 0.950 . S
C1080 C1079 1.349 . S
C1080 C1092 1.349 . S
C1081 C1079 1.327 . S
C1081 C1097 1.429 . S
C1081 H1103 0.950 . S
C1082 H1078 0.949 . S
C1082 C1090 1.574 . S
C1082 C1098 1.368 . S
H1083 C1091 0.950 . S
H1084 C1089 0.950 1_556 S
H1085 C1090 0.949 1_554 S
H1086 C1092 0.950 . S
H1087 C1093 0.950 . S
H1088 C1094 0.949 . S
C1089 H1084 0.950 1_554 S
C1089 C1091 1.327 . S
C1089 C1095 1.429 . S
C1090 C1082 1.574 . S
C1090 H1085 0.949 1_556 S
C1090 C1096 1.368 . S
C1091 C1075 1.349 . S
C1091 H1083 0.950 . S
C1091 C1089 1.327 . S
C1092 C1080 1.349 . S
C1092 H1086 0.950 . S
C1092 C1093 1.327 . S
C1093 H1087 0.950 . S
C1093 C1092 1.327 . S
C1093 C1097 1.429 . S
C1094 C1077 1.574 . S
C1094 H1088 0.949 . S
C1094 C1098 1.368 . S
C1095 C1076 1.429 . S
C1095 C1089 1.429 . S
C1095 C1096 1.523 1_554 S
C1096 C1077 1.368 . S
C1096 C1090 1.368 . S
C1096 C1095 1.523 1_556 S
C1097 C1081 1.429 . S
C1097 C1093 1.429 . S
C1097 C1098 1.523 . S
C1098 C1082 1.368 . S
C1098 C1094 1.368 . S
C1098 C1097 1.523 . S
H1099 C1074 0.950 . S
H1100 C1076 0.950 . S
H1101 C1077 0.949 . S
H1102 C1079 0.950 . S
H1103 C1081 0.950 . S
C1104 C1105 1.349 . S
C1104 C1106 1.327 . S
C1104 H1129 0.950 . S
C1105 C1104 1.349 . S
C1105 C1121 1.349 . S
C1106 C1104 1.327 . S
C1106 C1125 1.429 . S
C1106 H1130 0.950 . S
C1107 C1124 1.574 . S
C1107 C1126 1.368 . S
C1107 H1131 0.949 . S
H1108 C1112 0.949 . S
C1109 C1110 1.349 . S
C1109 C1111 1.327 . S
C1109 H1132 0.950 . S
C1110 C1109 1.349 . S
C1110 C1122 1.349 . S
C1111 C1109 1.327 . S
C1111 C1127 1.429 . S
C1111 H1133 0.950 . S
C1112 H1108 0.949 . S
C1112 C1120 1.574 . S
C1112 C1128 1.368 . S
H1113 C1121 0.950 . S
H1114 C1119 0.950 1_556 S
H1115 C1120 0.949 1_554 S
H1116 C1122 0.950 . S
H1117 C1123 0.950 . S
H1118 C1124 0.949 . S
C1119 H1114 0.950 1_554 S
C1119 C1121 1.327 . S
C1119 C1125 1.429 . S
C1120 C1112 1.574 . S
C1120 H1115 0.949 1_556 S
C1120 C1126 1.368 . S
C1121 C1105 1.349 . S
C1121 H1113 0.950 . S
C1121 C1119 1.327 . S
C1122 C1110 1.349 . S
C1122 H1116 0.950 . S
C1122 C1123 1.327 . S
C1123 H1117 0.950 . S
C1123 C1122 1.327 . S
C1123 C1127 1.429 . S
C1124 C1107 1.574 . S
C1124 H1118 0.949 . S
C1124 C1128 1.368 . S
C1125 C1106 1.429 . S
C1125 C1119 1.429 . S
C1125 C1126 1.523 1_554 S
C1126 C1107 1.368 . S
C1126 C1120 1.368 . S
C1126 C1125 1.523 1_556 S
C1127 C1111 1.429 . S
C1127 C1123 1.429 . S
C1127 C1128 1.523 . S
C1128 C1112 1.368 . S
C1128 C1124 1.368 . S
C1128 C1127 1.523 . S
H1129 C1104 0.950 . S
H1130 C1106 0.950 . S
H1131 C1107 0.949 . S
H1132 C1109 0.950 . S
H1133 C1111 0.950 . S
C1134 C1135 1.349 . S
C1134 C1136 1.327 . S
C1134 H1159 0.950 . S
C1135 C1134 1.349 . S
C1135 C1151 1.349 . S
C1136 C1134 1.327 . S
C1136 C1155 1.429 . S
C1136 H1160 0.950 . S
C1137 C1154 1.574 . S
C1137 C1156 1.368 . S
C1137 H1161 0.949 . S
H1138 C1142 0.949 . S
C1139 C1140 1.349 . S
C1139 C1141 1.327 . S
C1139 H1162 0.950 . S
C1140 C1139 1.349 . S
C1140 C1152 1.349 . S
C1141 C1139 1.327 . S
C1141 C1157 1.429 . S
C1141 H1163 0.950 . S
C1142 H1138 0.949 . S
C1142 C1150 1.574 . S
C1142 C1158 1.368 . S
H1143 C1151 0.950 . S
H1144 C1149 0.950 . S
H1145 C1150 0.949 . S
H1146 C1152 0.950 . S
H1147 C1153 0.950 . S
H1148 C1154 0.949 . S
C1149 H1144 0.950 . S
C1149 C1151 1.327 . S
C1149 C1155 1.429 . S
C1150 C1142 1.574 . S
C1150 H1145 0.949 . S
C1150 C1156 1.368 . S
C1151 C1135 1.349 . S
C1151 H1143 0.950 . S
C1151 C1149 1.327 . S
C1152 C1140 1.349 . S
C1152 H1146 0.950 . S
C1152 C1153 1.327 . S
C1153 H1147 0.950 . S
C1153 C1152 1.327 . S
C1153 C1157 1.429 . S
C1154 C1137 1.574 . S
C1154 H1148 0.949 . S
C1154 C1158 1.368 . S
C1155 C1136 1.429 . S
C1155 C1149 1.429 . S
C1155 C1156 1.523 . S
C1156 C1137 1.368 . S
C1156 C1150 1.368 . S
C1156 C1155 1.523 . S
C1157 C1141 1.429 . S
C1157 C1153 1.429 . S
C1157 C1158 1.523 . S
C1158 C1142 1.368 . S
C1158 C1154 1.368 . S
C1158 C1157 1.523 . S
H1159 C1134 0.950 . S
H1160 C1136 0.950 . S
H1161 C1137 0.949 . S
H1162 C1139 0.950 . S
H1163 C1141 0.950 . S
C1164 C1165 1.349 . S
C1164 C1166 1.327 . S
C1164 H1189 0.950 . S
C1165 C1164 1.349 . S
C1165 C1181 1.349 . S
C1166 C1164 1.327 . S
C1166 C1185 1.429 . S
C1166 H1190 0.950 . S
C1167 C1184 1.574 . S
C1167 C1186 1.368 . S
C1167 H1191 0.949 . S
H1168 C1172 0.949 . S
C1169 C1170 1.349 . S
C1169 C1171 1.327 . S
C1169 H1192 0.950 . S
C1170 C1169 1.349 . S
C1170 C1182 1.349 . S
C1171 C1169 1.327 . S
C1171 C1187 1.429 . S
C1171 H1193 0.950 . S
C1172 H1168 0.949 . S
C1172 C1180 1.574 . S
C1172 C1188 1.368 . S
H1173 C1181 0.950 . S
H1174 C1179 0.950 . S
H1175 C1180 0.949 . S
H1176 C1182 0.950 . S
H1177 C1183 0.950 . S
H1178 C1184 0.949 . S
C1179 H1174 0.950 . S
C1179 C1181 1.327 . S
C1179 C1185 1.429 . S
C1180 C1172 1.574 . S
C1180 H1175 0.949 . S
C1180 C1186 1.368 . S
C1181 C1165 1.349 . S
C1181 H1173 0.950 . S
C1181 C1179 1.327 . S
C1182 C1170 1.349 . S
C1182 H1176 0.950 . S
C1182 C1183 1.327 . S
C1183 H1177 0.950 . S
C1183 C1182 1.327 . S
C1183 C1187 1.429 . S
C1184 C1167 1.574 . S
C1184 H1178 0.949 . S
C1184 C1188 1.368 . S
C1185 C1166 1.429 . S
C1185 C1179 1.429 . S
C1185 C1186 1.523 . S
C1186 C1167 1.368 . S
C1186 C1180 1.368 . S
C1186 C1185 1.523 . S
C1187 C1171 1.429 . S
C1187 C1183 1.429 . S
C1187 C1188 1.523 . S
C1188 C1172 1.368 . S
C1188 C1184 1.368 . S
C1188 C1187 1.523 . S
H1189 C1164 0.950 . S
H1190 C1166 0.950 . S
H1191 C1167 0.949 . S
H1192 C1169 0.950 . S
H1193 C1171 0.950 . S
C1194 C1195 1.349 . S
C1194 C1196 1.327 . S
C1194 H1219 0.950 . S
C1195 C1194 1.349 . S
C1195 C1211 1.349 . S
C1196 C1194 1.327 . S
C1196 C1215 1.429 . S
C1196 H1220 0.950 . S
C1197 C1214 1.574 . S
C1197 C1216 1.368 . S
C1197 H1221 0.949 . S
H1198 C1202 0.949 . S
C1199 C1200 1.349 . S
C1199 C1201 1.327 . S
C1199 H1222 0.950 . S
C1200 C1199 1.349 . S
C1200 C1212 1.349 . S
C1201 C1199 1.327 . S
C1201 C1217 1.429 . S
C1201 H1223 0.950 . S
C1202 H1198 0.949 . S
C1202 C1210 1.574 . S
C1202 C1218 1.368 . S
H1203 C1211 0.950 . S
H1204 C1209 0.950 . S
H1205 C1210 0.949 . S
H1206 C1212 0.950 . S
H1207 C1213 0.950 . S
H1208 C1214 0.949 . S
C1209 H1204 0.950 . S
C1209 C1211 1.327 . S
C1209 C1215 1.429 . S
C1210 C1202 1.574 . S
C1210 H1205 0.949 . S
C1210 C1216 1.368 . S
C1211 C1195 1.349 . S
C1211 H1203 0.950 . S
C1211 C1209 1.327 . S
C1212 C1200 1.349 . S
C1212 H1206 0.950 . S
C1212 C1213 1.327 . S
C1213 H1207 0.950 . S
C1213 C1212 1.327 . S
C1213 C1217 1.429 . S
C1214 C1197 1.574 . S
C1214 H1208 0.949 . S
C1214 C1218 1.368 . S
C1215 C1196 1.429 . S
C1215 C1209 1.429 . S
C1215 C1216 1.523 . S
C1216 C1197 1.368 . S
C1216 C1210 1.368 . S
C1216 C1215 1.523 . S
C1217 C1201 1.429 . S
C1217 C1213 1.429 . S
C1217 C1218 1.523 . S
C1218 C1202 1.368 . S
C1218 C1214 1.368 . S
C1218 C1217 1.523 . S
H1219 C1194 0.950 . S
H1220 C1196 0.950 . S
H1221 C1197 0.949 . S
H1222 C1199 0.950 . S
H1223 C1201 0.950 . S
C1224 C1225 1.349 . S
C1224 C1226 1.327 . S
C1224 H1249 0.950 . S
C1225 C1224 1.349 . S
C1225 C1241 1.349 . S
C1226 C1224 1.327 . S
C1226 C1245 1.429 . S
C1226 H1250 0.950 . S
C1227 C1244 1.574 . S
C1227 C1246 1.368 . S
C1227 H1251 0.949 1_554 S
H1228 C1232 0.949 . S
C1229 C1230 1.349 . S
C1229 C1231 1.327 . S
C1229 H1252 0.950 . S
C1230 C1229 1.349 . S
C1230 C1242 1.349 . S
C1231 C1229 1.327 . S
C1231 C1247 1.429 . S
C1231 H1253 0.950 . S
C1232 H1228 0.949 . S
C1232 C1240 1.574 . S
C1232 C1248 1.368 . S
H1233 C1241 0.950 . S
H1234 C1239 0.950 . S
H1235 C1240 0.949 . S
H1236 C1242 0.950 . S
H1237 C1243 0.950 . S
H1238 C1244 0.949 . S
C1239 H1234 0.950 . S
C1239 C1241 1.327 . S
C1239 C1245 1.429 . S
C1240 C1232 1.574 . S
C1240 H1235 0.949 . S
C1240 C1246 1.368 . S
C1241 C1225 1.349 . S
C1241 H1233 0.950 . S
C1241 C1239 1.327 . S
C1242 C1230 1.349 . S
C1242 H1236 0.950 . S
C1242 C1243 1.327 . S
C1243 H1237 0.950 . S
C1243 C1242 1.327 . S
C1243 C1247 1.429 . S
C1244 C1227 1.574 . S
C1244 H1238 0.949 . S
C1244 C1248 1.368 . S
C1245 C1226 1.429 . S
C1245 C1239 1.429 . S
C1245 C1246 1.523 1_556 S
C1246 C1227 1.368 . S
C1246 C1240 1.368 . S
C1246 C1245 1.523 1_554 S
C1247 C1231 1.429 . S
C1247 C1243 1.429 . S
C1247 C1248 1.523 . S
C1248 C1232 1.368 . S
C1248 C1244 1.368 . S
C1248 C1247 1.523 . S
H1249 C1224 0.950 . S
H1250 C1226 0.950 . S
H1251 C1227 0.949 1_556 S
H1252 C1229 0.950 . S
H1253 C1231 0.950 . S
C1254 C1255 1.349 . S
C1254 C1256 1.327 . S
C1254 H1279 0.950 . S
C1255 C1254 1.349 . S
C1255 C1271 1.349 . S
C1256 C1254 1.327 . S
C1256 C1275 1.429 . S
C1256 H1280 0.950 1_556 S
C1257 C1274 1.574 . S
C1257 C1276 1.368 . S
C1257 H1281 0.949 1_554 S
H1258 C1262 0.949 . S
C1259 C1260 1.349 . S
C1259 C1261 1.327 . S
C1259 H1282 0.950 . S
C1260 C1259 1.349 . S
C1260 C1272 1.349 . S
C1261 C1259 1.327 . S
C1261 C1277 1.429 . S
C1261 H1283 0.950 . S
C1262 H1258 0.949 . S
C1262 C1270 1.574 . S
C1262 C1278 1.368 . S
H1263 C1271 0.950 . S
H1264 C1269 0.950 . S
H1265 C1270 0.949 . S
H1266 C1272 0.950 . S
H1267 C1273 0.950 . S
H1268 C1274 0.949 . S
C1269 H1264 0.950 . S
C1269 C1271 1.327 . S
C1269 C1275 1.429 . S
C1270 C1262 1.574 . S
C1270 H1265 0.949 . S
C1270 C1276 1.368 . S
C1271 C1255 1.349 . S
C1271 H1263 0.950 . S
C1271 C1269 1.327 . S
C1272 C1260 1.349 . S
C1272 H1266 0.950 . S
C1272 C1273 1.327 . S
C1273 H1267 0.950 . S
C1273 C1272 1.327 . S
C1273 C1277 1.429 . S
C1274 C1257 1.574 . S
C1274 H1268 0.949 . S
C1274 C1278 1.368 . S
C1275 C1256 1.429 . S
C1275 C1269 1.429 . S
C1275 C1276 1.523 1_556 S
C1276 C1257 1.368 . S
C1276 C1270 1.368 . S
C1276 C1275 1.523 1_554 S
C1277 C1261 1.429 . S
C1277 C1273 1.429 . S
C1277 C1278 1.523 . S
C1278 C1262 1.368 . S
C1278 C1274 1.368 . S
C1278 C1277 1.523 . S
H1279 C1254 0.950 . S
H1280 C1256 0.950 1_554 S
H1281 C1257 0.949 1_556 S
H1282 C1259 0.950 . S
H1283 C1261 0.950 . S
C1284 C1285 1.349 . S
C1284 C1286 1.327 . S
C1284 H1309 0.950 . S
C1285 C1284 1.349 . S
C1285 C1301 1.349 . S
C1286 C1284 1.327 . S
C1286 C1305 1.429 . S
C1286 H1310 0.950 . S
C1287 C1304 1.574 . S
C1287 C1306 1.368 . S
C1287 H1311 0.949 . S
H1288 C1292 0.949 . S
C1289 C1290 1.349 . S
C1289 C1291 1.327 . S
C1289 H1312 0.950 . S
C1290 C1289 1.349 . S
C1290 C1302 1.349 . S
C1291 C1289 1.327 . S
C1291 C1307 1.429 . S
C1291 H1313 0.950 . S
C1292 H1288 0.949 . S
C1292 C1300 1.574 . S
C1292 C1308 1.368 . S
H1293 C1301 0.950 . S
H1294 C1299 0.950 . S
H1295 C1300 0.949 . S
H1296 C1302 0.950 . S
H1297 C1303 0.950 1_554 S
H1298 C1304 0.949 1_556 S
C1299 H1294 0.950 . S
C1299 C1301 1.327 . S
C1299 C1305 1.429 . S
C1300 C1292 1.574 . S
C1300 H1295 0.949 . S
C1300 C1306 1.368 . S
C1301 C1285 1.349 . S
C1301 H1293 0.950 . S
C1301 C1299 1.327 . S
C1302 C1290 1.349 . S
C1302 H1296 0.950 . S
C1302 C1303 1.327 . S
C1303 H1297 0.950 1_556 S
C1303 C1302 1.327 . S
C1303 C1307 1.429 . S
C1304 C1287 1.574 . S
C1304 H1298 0.949 1_554 S
C1304 C1308 1.368 . S
C1305 C1286 1.429 . S
C1305 C1299 1.429 . S
C1305 C1306 1.523 . S
C1306 C1287 1.368 . S
C1306 C1300 1.368 . S
C1306 C1305 1.523 . S
C1307 C1291 1.429 . S
C1307 C1303 1.429 . S
C1307 C1308 1.523 1_556 S
C1308 C1292 1.368 . S
C1308 C1304 1.368 . S
C1308 C1307 1.523 1_554 S
H1309 C1284 0.950 . S
H1310 C1286 0.950 . S
H1311 C1287 0.949 . S
H1312 C1289 0.950 . S
H1313 C1291 0.950 . S
C1314 C1315 1.349 . S
C1314 C1316 1.327 . S
C1314 H1339 0.950 . S
C1315 C1314 1.349 . S
C1315 C1331 1.349 . S
C1316 C1314 1.327 . S
C1316 C1335 1.429 . S
C1316 H1340 0.950 . S
C1317 C1334 1.574 . S
C1317 C1336 1.368 . S
C1317 H1341 0.949 . S
H1318 C1322 0.949 . S
C1319 C1320 1.349 . S
C1319 C1321 1.327 . S
C1319 H1342 0.950 . S
C1320 C1319 1.349 . S
C1320 C1332 1.349 . S
C1321 C1319 1.327 . S
C1321 C1337 1.429 . S
C1321 H1343 0.950 . S
C1322 H1318 0.949 . S
C1322 C1330 1.574 . S
C1322 C1338 1.368 . S
H1323 C1331 0.950 . S
H1324 C1329 0.950 . S
H1325 C1330 0.949 . S
H1326 C1332 0.950 . S
H1327 C1333 0.950 . S
H1328 C1334 0.949 . S
C1329 H1324 0.950 . S
C1329 C1331 1.327 . S
C1329 C1335 1.429 . S
C1330 C1322 1.574 . S
C1330 H1325 0.949 . S
C1330 C1336 1.368 . S
C1331 C1315 1.349 . S
C1331 H1323 0.950 . S
C1331 C1329 1.327 . S
C1332 C1320 1.349 . S
C1332 H1326 0.950 . S
C1332 C1333 1.327 . S
C1333 H1327 0.950 . S
C1333 C1332 1.327 . S
C1333 C1337 1.429 . S
C1334 C1317 1.574 . S
C1334 H1328 0.949 . S
C1334 C1338 1.368 . S
C1335 C1316 1.429 . S
C1335 C1329 1.429 . S
C1335 C1336 1.523 . S
C1336 C1317 1.368 . S
C1336 C1330 1.368 . S
C1336 C1335 1.523 . S
C1337 C1321 1.429 . S
C1337 C1333 1.429 . S
C1337 C1338 1.523 . S
C1338 C1322 1.368 . S
C1338 C1334 1.368 . S
C1338 C1337 1.523 . S
H1339 C1314 0.950 . S
H1340 C1316 0.950 . S
H1341 C1317 0.949 . S
H1342 C1319 0.950 . S
H1343 C1321 0.950 . S
C1344 C1345 1.349 . S
C1344 C1346 1.327 . S
C1344 H1369 0.950 . S
C1345 C1344 1.349 . S
C1345 C1361 1.349 . S
C1346 C1344 1.327 . S
C1346 C1365 1.429 . S
C1346 H1370 0.950 . S
C1347 C1364 1.574 . S
C1347 C1366 1.368 . S
C1347 H1371 0.949 . S
H1348 C1352 0.949 . S
C1349 C1350 1.349 . S
C1349 C1351 1.327 . S
C1349 H1372 0.950 . S
C1350 C1349 1.349 . S
C1350 C1362 1.349 . S
C1351 C1349 1.327 . S
C1351 C1367 1.429 . S
C1351 H1373 0.950 . S
C1352 H1348 0.949 . S
C1352 C1360 1.574 . S
C1352 C1368 1.368 . S
H1353 C1361 0.950 . S
H1354 C1359 0.950 . S
H1355 C1360 0.949 . S
H1356 C1362 0.950 . S
H1357 C1363 0.950 . S
H1358 C1364 0.949 . S
C1359 H1354 0.950 . S
C1359 C1361 1.327 . S
C1359 C1365 1.429 . S
C1360 C1352 1.574 . S
C1360 H1355 0.949 . S
C1360 C1366 1.368 . S
C1361 C1345 1.349 . S
C1361 H1353 0.950 . S
C1361 C1359 1.327 . S
C1362 C1350 1.349 . S
C1362 H1356 0.950 . S
C1362 C1363 1.327 . S
C1363 H1357 0.950 . S
C1363 C1362 1.327 . S
C1363 C1367 1.429 . S
C1364 C1347 1.574 . S
C1364 H1358 0.949 . S
C1364 C1368 1.368 . S
C1365 C1346 1.429 . S
C1365 C1359 1.429 . S
C1365 C1366 1.523 . S
C1366 C1347 1.368 . S
C1366 C1360 1.368 . S
C1366 C1365 1.523 . S
C1367 C1351 1.429 . S
C1367 C1363 1.429 . S
C1367 C1368 1.523 . S
C1368 C1352 1.368 . S
C1368 C1364 1.368 . S
C1368 C1367 1.523 . S
H1369 C1344 0.950 . S
H1370 C1346 0.950 . S
H1371 C1347 0.949 . S
H1372 C1349 0.950 . S
H1373 C1351 0.950 . S
C1374 C1375 1.349 . S
C1374 C1376 1.327 . S
C1374 H1399 0.950 . S
C1375 C1374 1.349 . S
C1375 C1391 1.349 . S
C1376 C1374 1.327 . S
C1376 C1395 1.429 . S
C1376 H1400 0.950 . S
C1377 C1394 1.574 . S
C1377 C1396 1.368 . S
C1377 H1401 0.949 . S
H1378 C1382 0.949 . S
C1379 C1380 1.349 . S
C1379 C1381 1.327 . S
C1379 H1402 0.950 . S
C1380 C1379 1.349 . S
C1380 C1392 1.349 . S
C1381 C1379 1.327 . S
C1381 C1397 1.429 . S
C1381 H1403 0.950 . S
C1382 H1378 0.949 . S
C1382 C1390 1.574 . S
C1382 C1398 1.368 . S
H1383 C1391 0.950 . S
H1384 C1389 0.950 . S
H1385 C1390 0.949 . S
H1386 C1392 0.950 . S
H1387 C1393 0.950 . S
H1388 C1394 0.949 . S
C1389 H1384 0.950 . S
C1389 C1391 1.327 . S
C1389 C1395 1.429 . S
C1390 C1382 1.574 . S
C1390 H1385 0.949 . S
C1390 C1396 1.368 . S
C1391 C1375 1.349 . S
C1391 H1383 0.950 . S
C1391 C1389 1.327 . S
C1392 C1380 1.349 . S
C1392 H1386 0.950 . S
C1392 C1393 1.327 . S
C1393 H1387 0.950 . S
C1393 C1392 1.327 . S
C1393 C1397 1.429 . S
C1394 C1377 1.574 . S
C1394 H1388 0.949 . S
C1394 C1398 1.368 . S
C1395 C1376 1.429 . S
C1395 C1389 1.429 . S
C1395 C1396 1.523 . S
C1396 C1377 1.368 . S
C1396 C1390 1.368 . S
C1396 C1395 1.523 . S
C1397 C1381 1.429 . S
C1397 C1393 1.429 . S
C1397 C1398 1.523 . S
C1398 C1382 1.368 . S
C1398 C1394 1.368 . S
C1398 C1397 1.523 . S
H1399 C1374 0.950 . S
H1400 C1376 0.950 . S
H1401 C1377 0.949 . S
H1402 C1379 0.950 . S
H1403 C1381 0.950 . S
C1404 C1405 1.349 . S
C1404 C1406 1.327 . S
C1404 H1429 0.950 . S
C1405 C1404 1.349 . S
C1405 C1421 1.349 . S
C1406 C1404 1.327 . S
C1406 C1425 1.429 . S
C1406 H1430 0.950 . S
C1407 C1424 1.574 . S
C1407 C1426 1.368 . S
C1407 H1431 0.949 . S
H1408 C1412 0.949 . S
C1409 C1410 1.349 . S
C1409 C1411 1.327 . S
C1409 H1432 0.950 . S
C1410 C1409 1.349 . S
C1410 C1422 1.349 . S
C1411 C1409 1.327 . S
C1411 C1427 1.429 . S
C1411 H1433 0.950 . S
C1412 H1408 0.949 . S
C1412 C1420 1.574 . S
C1412 C1428 1.368 . S
H1413 C1421 0.950 . S
H1414 C1419 0.950 . S
H1415 C1420 0.949 . S
H1416 C1422 0.950 . S
H1417 C1423 0.950 . S
H1418 C1424 0.949 . S
C1419 H1414 0.950 . S
C1419 C1421 1.327 . S
C1419 C1425 1.429 . S
C1420 C1412 1.574 . S
C1420 H1415 0.949 . S
C1420 C1426 1.368 . S
C1421 C1405 1.349 . S
C1421 H1413 0.950 . S
C1421 C1419 1.327 . S
C1422 C1410 1.349 . S
C1422 H1416 0.950 . S
C1422 C1423 1.327 . S
C1423 H1417 0.950 . S
C1423 C1422 1.327 . S
C1423 C1427 1.429 . S
C1424 C1407 1.574 . S
C1424 H1418 0.949 . S
C1424 C1428 1.368 . S
C1425 C1406 1.429 . S
C1425 C1419 1.429 . S
C1425 C1426 1.523 . S
C1426 C1407 1.368 . S
C1426 C1420 1.368 . S
C1426 C1425 1.523 . S
C1427 C1411 1.429 . S
C1427 C1423 1.429 . S
C1427 C1428 1.523 . S
C1428 C1412 1.368 . S
C1428 C1424 1.368 . S
C1428 C1427 1.523 . S
H1429 C1404 0.950 . S
H1430 C1406 0.950 . S
H1431 C1407 0.949 . S
H1432 C1409 0.950 . S
H1433 C1411 0.950 . S
C1434 C1435 1.349 . S
C1434 C1436 1.327 . S
C1434 H1459 0.950 . S
C1435 C1434 1.349 . S
C1435 C1451 1.349 . S
C1436 C1434 1.327 . S
C1436 C1455 1.429 . S
C1436 H1460 0.950 . S
C1437 C1454 1.574 . S
C1437 C1456 1.368 . S
C1437 H1461 0.949 . S
H1438 C1442 0.949 . S
C1439 C1440 1.349 . S
C1439 C1441 1.327 . S
C1439 H1462 0.950 . S
C1440 C1439 1.349 . S
C1440 C1452 1.349 . S
C1441 C1439 1.327 . S
C1441 C1457 1.429 . S
C1441 H1463 0.950 . S
C1442 H1438 0.949 . S
C1442 C1450 1.574 . S
C1442 C1458 1.368 . S
H1443 C1451 0.950 . S
H1444 C1449 0.950 . S
H1445 C1450 0.949 . S
H1446 C1452 0.950 . S
H1447 C1453 0.950 . S
H1448 C1454 0.949 . S
C1449 H1444 0.950 . S
C1449 C1451 1.327 . S
C1449 C1455 1.429 . S
C1450 C1442 1.574 . S
C1450 H1445 0.949 . S
C1450 C1456 1.368 . S
C1451 C1435 1.349 . S
C1451 H1443 0.950 . S
C1451 C1449 1.327 . S
C1452 C1440 1.349 . S
C1452 H1446 0.950 . S
C1452 C1453 1.327 . S
C1453 H1447 0.950 . S
C1453 C1452 1.327 . S
C1453 C1457 1.429 . S
C1454 C1437 1.574 . S
C1454 H1448 0.949 . S
C1454 C1458 1.368 . S
C1455 C1436 1.429 . S
C1455 C1449 1.429 . S
C1455 C1456 1.523 . S
C1456 C1437 1.368 . S
C1456 C1450 1.368 . S
C1456 C1455 1.523 . S
C1457 C1441 1.429 . S
C1457 C1453 1.429 . S
C1457 C1458 1.523 . S
C1458 C1442 1.368 . S
C1458 C1454 1.368 . S
C1458 C1457 1.523 . S
H1459 C1434 0.950 . S
H1460 C1436 0.950 . S
H1461 C1437 0.949 . S
H1462 C1439 0.950 . S
H1463 C1441 0.950 . S
C1464 C1465 1.349 . S
C1464 C1466 1.327 . S
C1464 H1489 0.950 . S
C1465 C1464 1.349 . S
C1465 C1481 1.349 . S
C1466 C1464 1.327 . S
C1466 C1485 1.429 . S
C1466 H1490 0.950 . S
C1467 C1484 1.574 . S
C1467 C1486 1.368 . S
C1467 H1491 0.949 . S
H1468 C1472 0.949 . S
C1469 C1470 1.349 . S
C1469 C1471 1.327 . S
C1469 H1492 0.950 . S
C1470 C1469 1.349 . S
C1470 C1482 1.349 . S
C1471 C1469 1.327 . S
C1471 C1487 1.429 . S
C1471 H1493 0.950 . S
C1472 H1468 0.949 . S
C1472 C1480 1.574 . S
C1472 C1488 1.368 . S
H1473 C1481 0.950 . S
H1474 C1479 0.950 . S
H1475 C1480 0.949 . S
H1476 C1482 0.950 . S
H1477 C1483 0.950 . S
H1478 C1484 0.949 . S
C1479 H1474 0.950 . S
C1479 C1481 1.327 . S
C1479 C1485 1.429 . S
C1480 C1472 1.574 . S
C1480 H1475 0.949 . S
C1480 C1486 1.368 . S
C1481 C1465 1.349 . S
C1481 H1473 0.950 . S
C1481 C1479 1.327 . S
C1482 C1470 1.349 . S
C1482 H1476 0.950 . S
C1482 C1483 1.327 . S
C1483 H1477 0.950 . S
C1483 C1482 1.327 . S
C1483 C1487 1.429 . S
C1484 C1467 1.574 . S
C1484 H1478 0.949 . S
C1484 C1488 1.368 . S
C1485 C1466 1.429 . S
C1485 C1479 1.429 . S
C1485 C1486 1.523 . S
C1486 C1467 1.368 . S
C1486 C1480 1.368 . S
C1486 C1485 1.523 . S
C1487 C1471 1.429 . S
C1487 C1483 1.429 . S
C1487 C1488 1.523 . S
C1488 C1472 1.368 . S
C1488 C1484 1.368 . S
C1488 C1487 1.523 . S
H1489 C1464 0.950 . S
H1490 C1466 0.950 . S
H1491 C1467 0.949 . S
H1492 C1469 0.950 . S
H1493 C1471 0.950 . S
C1494 C1495 1.349 . S
C1494 C1496 1.327 . S
C1494 H1519 0.950 . S
C1495 C1494 1.349 . S
C1495 C1511 1.349 . S
C1496 C1494 1.327 . S
C1496 C1515 1.429 . S
C1496 H1520 0.950 . S
C1497 C1514 1.574 . S
C1497 C1516 1.368 . S
C1497 H1521 0.949 . S
H1498 C1502 0.949 . S
C1499 C1500 1.349 . S
C1499 C1501 1.327 1_554 S
C1499 H1522 0.949 1_554 S
C1500 C1499 1.349 . S
C1500 C1512 1.349 . S
C1501 C1499 1.327 1_556 S
C1501 C1517 1.429 . S
C1501 H1523 0.950 . S
C1502 H1498 0.949 . S
C1502 C1510 1.574 . S
C1502 C1518 1.368 . S
H1503 C1511 0.950 . S
H1504 C1509 0.950 . S
H1505 C1510 0.949 . S
H1506 C1512 0.950 . S
H1507 C1513 0.950 . S
H1508 C1514 0.949 . S
C1509 H1504 0.950 . S
C1509 C1511 1.327 . S
C1509 C1515 1.429 . S
C1510 C1502 1.574 . S
C1510 H1505 0.949 . S
C1510 C1516 1.368 . S
C1511 C1495 1.349 . S
C1511 H1503 0.950 . S
C1511 C1509 1.327 . S
C1512 C1500 1.349 . S
C1512 H1506 0.950 . S
C1512 C1513 1.327 . S
C1513 H1507 0.950 . S
C1513 C1512 1.327 . S
C1513 C1517 1.429 1_554 S
C1514 C1497 1.574 . S
C1514 H1508 0.949 . S
C1514 C1518 1.368 . S
C1515 C1496 1.429 . S
C1515 C1509 1.429 . S
C1515 C1516 1.523 . S
C1516 C1497 1.368 . S
C1516 C1510 1.368 . S
C1516 C1515 1.523 . S
C1517 C1501 1.429 . S
C1517 C1513 1.429 1_556 S
C1517 C1518 1.523 . S
C1518 C1502 1.368 . S
C1518 C1514 1.368 . S
C1518 C1517 1.523 . S
H1519 C1494 0.950 . S
H1520 C1496 0.950 . S
H1521 C1497 0.949 . S
H1522 C1499 0.949 1_556 S
H1523 C1501 0.950 . S
C1524 C1525 1.371 . S
C1524 C1526 1.308 1_554 S
C1524 H1549 0.948 1_554 S
C1525 C1524 1.371 . S
C1525 C1541 1.349 . S
C1526 C1524 1.308 1_556 S
C1526 C1545 1.429 . S
C1526 H1550 0.950 . S
C1527 C1544 1.574 . S
C1527 C1546 1.368 . S
C1527 H1551 0.949 . S
H1528 C1532 0.949 . S
C1529 C1530 1.349 . S
C1529 C1531 1.327 . S
C1529 H1552 0.950 . S
C1530 C1529 1.349 . S
C1530 C1542 1.349 . S
C1531 C1529 1.327 . S
C1531 C1547 1.429 . S
C1531 H1553 0.950 . S
C1532 H1528 0.949 . S
C1532 C1540 1.574 . S
C1532 C1548 1.368 . S
H1533 C1541 0.950 . S
H1534 C1539 0.950 . S
H1535 C1540 0.949 . S
H1536 C1542 0.950 . S
H1537 C1543 0.950 . S
H1538 C1544 0.949 . S
C1539 H1534 0.950 . S
C1539 C1541 1.327 . S
C1539 C1545 1.429 1_554 S
C1540 C1532 1.574 . S
C1540 H1535 0.949 . S
C1540 C1546 1.368 . S
C1541 C1525 1.349 . S
C1541 H1533 0.950 . S
C1541 C1539 1.327 . S
C1542 C1530 1.349 . S
C1542 H1536 0.950 . S
C1542 C1543 1.327 . S
C1543 H1537 0.950 . S
C1543 C1542 1.327 . S
C1543 C1547 1.429 . S
C1544 C1527 1.574 . S
C1544 H1538 0.949 . S
C1544 C1548 1.368 . S
C1545 C1526 1.429 . S
C1545 C1539 1.429 1_556 S
C1545 C1546 1.523 . S
C1546 C1527 1.368 . S
C1546 C1540 1.368 . S
C1546 C1545 1.523 . S
C1547 C1531 1.429 . S
C1547 C1543 1.429 . S
C1547 C1548 1.523 . S
C1548 C1532 1.368 . S
C1548 C1544 1.368 . S
C1548 C1547 1.523 . S
H1549 C1524 0.948 1_556 S
H1550 C1526 0.950 . S
H1551 C1527 0.949 . S
H1552 C1529 0.950 . S
H1553 C1531 0.950 . S
C1554 C1555 1.349 . S
C1554 C1556 1.327 . S
C1554 H1579 0.950 . S
C1555 C1554 1.349 . S
C1555 C1571 1.349 . S
C1556 C1554 1.327 . S
C1556 C1575 1.429 . S
C1556 H1580 0.950 . S
C1557 C1574 1.574 . S
C1557 C1576 1.368 . S
C1557 H1581 0.949 . S
H1558 C1562 0.949 . S
C1559 C1560 1.349 . S
C1559 C1561 1.346 . S
C1559 H1582 0.950 . S
C1560 C1559 1.349 . S
C1560 C1572 1.349 . S
C1561 C1559 1.346 . S
C1561 C1577 1.412 1_554 S
C1561 H1583 0.948 1_554 S
C1562 H1558 0.949 . S
C1562 C1570 1.574 . S
C1562 C1578 1.368 . S
H1563 C1571 0.950 . S
H1564 C1569 0.950 . S
H1565 C1570 0.949 . S
H1566 C1572 0.950 . S
H1567 C1573 0.950 . S
H1568 C1574 0.949 . S
C1569 H1564 0.950 . S
C1569 C1571 1.327 . S
C1569 C1575 1.429 . S
C1570 C1562 1.574 . S
C1570 H1565 0.949 . S
C1570 C1576 1.368 . S
C1571 C1555 1.349 . S
C1571 H1563 0.950 . S
C1571 C1569 1.327 . S
C1572 C1560 1.349 . S
C1572 H1566 0.950 . S
C1572 C1573 1.327 1_554 S
C1573 H1567 0.950 . S
C1573 C1572 1.327 1_556 S
C1573 C1577 1.429 . S
C1574 C1557 1.574 . S
C1574 H1568 0.949 . S
C1574 C1578 1.368 . S
C1575 C1556 1.429 . S
C1575 C1569 1.429 . S
C1575 C1576 1.523 . S
C1576 C1557 1.368 . S
C1576 C1570 1.368 . S
C1576 C1575 1.523 . S
C1577 C1561 1.412 1_556 S
C1577 C1573 1.429 . S
C1577 C1578 1.523 . S
C1578 C1562 1.368 . S
C1578 C1574 1.368 . S
C1578 C1577 1.523 . S
H1579 C1554 0.950 . S
H1580 C1556 0.950 . S
H1581 C1557 0.949 . S
H1582 C1559 0.950 . S
H1583 C1561 0.948 1_556 S
C1584 C1585 1.349 . S
C1584 C1586 1.327 . S
C1584 H1609 0.950 . S
C1585 C1584 1.349 . S
C1585 C1601 1.349 . S
C1586 C1584 1.327 . S
C1586 C1605 1.429 . S
C1586 H1610 0.950 . S
C1587 C1604 1.574 . S
C1587 C1606 1.368 . S
C1587 H1611 0.949 . S
H1588 C1592 0.949 . S
C1589 C1590 1.349 . S
C1589 C1591 1.327 . S
C1589 H1612 0.950 . S
C1590 C1589 1.349 . S
C1590 C1602 1.349 . S
C1591 C1589 1.327 . S
C1591 C1607 1.429 . S
C1591 H1613 0.950 . S
C1592 H1588 0.949 . S
C1592 C1600 1.574 . S
C1592 C1608 1.368 . S
H1593 C1601 0.950 . S
H1594 C1599 0.950 . S
H1595 C1600 0.949 . S
H1596 C1602 0.950 . S
H1597 C1603 0.950 . S
H1598 C1604 0.949 . S
C1599 H1594 0.950 . S
C1599 C1601 1.327 . S
C1599 C1605 1.429 . S
C1600 C1592 1.574 . S
C1600 H1595 0.949 . S
C1600 C1606 1.368 . S
C1601 C1585 1.349 . S
C1601 H1593 0.950 . S
C1601 C1599 1.327 . S
C1602 C1590 1.349 . S
C1602 H1596 0.950 . S
C1602 C1603 1.327 . S
C1603 H1597 0.950 . S
C1603 C1602 1.327 . S
C1603 C1607 1.429 . S
C1604 C1587 1.574 . S
C1604 H1598 0.949 . S
C1604 C1608 1.368 . S
C1605 C1586 1.429 . S
C1605 C1599 1.429 . S
C1605 C1606 1.523 . S
C1606 C1587 1.368 . S
C1606 C1600 1.368 . S
C1606 C1605 1.523 . S
C1607 C1591 1.429 . S
C1607 C1603 1.429 . S
C1607 C1608 1.523 . S
C1608 C1592 1.368 . S
C1608 C1604 1.368 . S
C1608 C1607 1.523 . S
H1609 C1584 0.950 . S
H1610 C1586 0.950 . S
H1611 C1587 0.949 . S
H1612 C1589 0.950 . S
H1613 C1591 0.950 . S
C1614 C1615 1.349 . S
C1614 C1616 1.327 . S
C1614 H1639 0.950 . S
C1615 C1614 1.349 . S
C1615 C1631 1.349 . S
C1616 C1614 1.327 . S
C1616 C1635 1.429 . S
C1616 H1640 0.950 . S
C1617 C1634 1.574 . S
C1617 C1636 1.368 . S
C1617 H1641 0.949 . S
H1618 C1622 0.949 . S
C1619 C1620 1.349 . S
C1619 C1621 1.327 . S
C1619 H1642 0.950 . S
C1620 C1619 1.349 . S
C1620 C1632 1.349 . S
C1621 C1619 1.327 . S
C1621 C1637 1.429 . S
C1621 H1643 0.950 . S
C1622 H1618 0.949 . S
C1622 C1630 1.574 . S
C1622 C1638 1.368 . S
H1623 C1631 0.950 . S
H1624 C1629 0.950 . S
H1625 C1630 0.949 . S
H1626 C1632 0.950 . S
H1627 C1633 0.950 . S
H1628 C1634 0.949 . S
C1629 H1624 0.950 . S
C1629 C1631 1.327 . S
C1629 C1635 1.429 . S
C1630 C1622 1.574 . S
C1630 H1625 0.949 . S
C1630 C1636 1.368 . S
C1631 C1615 1.349 . S
C1631 H1623 0.950 . S
C1631 C1629 1.327 . S
C1632 C1620 1.349 . S
C1632 H1626 0.950 . S
C1632 C1633 1.327 . S
C1633 H1627 0.950 . S
C1633 C1632 1.327 . S
C1633 C1637 1.429 . S
C1634 C1617 1.574 . S
C1634 H1628 0.949 . S
C1634 C1638 1.368 . S
C1635 C1616 1.429 . S
C1635 C1629 1.429 . S
C1635 C1636 1.523 . S
C1636 C1617 1.368 . S
C1636 C1630 1.368 . S
C1636 C1635 1.523 . S
C1637 C1621 1.429 . S
C1637 C1633 1.429 . S
C1637 C1638 1.523 . S
C1638 C1622 1.368 . S
C1638 C1634 1.368 . S
C1638 C1637 1.523 . S
H1639 C1614 0.950 . S
H1640 C1616 0.950 . S
H1641 C1617 0.949 . S
H1642 C1619 0.950 . S
H1643 C1621 0.950 . S
C1644 C1645 1.349 . S
C1644 C1646 1.327 . S
C1644 H1669 0.950 . S
C1645 C1644 1.349 . S
C1645 C1661 1.349 . S
C1646 C1644 1.327 . S
C1646 C1665 1.429 . S
C1646 H1670 0.950 . S
C1647 C1664 1.574 . S
C1647 C1666 1.368 . S
C1647 H1671 0.949 . S
H1648 C1652 0.949 . S
C1649 C1650 1.349 . S
C1649 C1651 1.327 . S
C1649 H1672 0.950 . S
C1650 C1649 1.349 . S
C1650 C1662 1.349 . S
C1651 C1649 1.327 . S
C1651 C1667 1.429 . S
C1651 H1673 0.950 . S
C1652 H1648 0.949 . S
C1652 C1660 1.574 . S
C1652 C1668 1.368 . S
H1653 C1661 0.950 . S
H1654 C1659 0.950 . S
H1655 C1660 0.949 . S
H1656 C1662 0.950 . S
H1657 C1663 0.950 . S
H1658 C1664 0.949 . S
C1659 H1654 0.950 . S
C1659 C1661 1.327 . S
C1659 C1665 1.429 . S
C1660 C1652 1.574 . S
C1660 H1655 0.949 . S
C1660 C1666 1.368 . S
C1661 C1645 1.349 . S
C1661 H1653 0.950 . S
C1661 C1659 1.327 . S
C1662 C1650 1.349 . S
C1662 H1656 0.950 . S
C1662 C1663 1.327 . S
C1663 H1657 0.950 . S
C1663 C1662 1.327 . S
C1663 C1667 1.429 . S
C1664 C1647 1.574 . S
C1664 H1658 0.949 . S
C1664 C1668 1.368 . S
C1665 C1646 1.429 . S
C1665 C1659 1.429 . S
C1665 C1666 1.523 . S
C1666 C1647 1.368 . S
C1666 C1660 1.368 . S
C1666 C1665 1.523 . S
C1667 C1651 1.429 . S
C1667 C1663 1.429 . S
C1667 C1668 1.523 . S
C1668 C1652 1.368 . S
C1668 C1664 1.368 . S
C1668 C1667 1.523 . S
H1669 C1644 0.950 . S
H1670 C1646 0.950 . S
H1671 C1647 0.949 . S
H1672 C1649 0.950 . S
H1673 C1651 0.950 . S
C1674 C1675 1.349 . S
C1674 C1676 1.327 . S
C1674 H1699 0.950 . S
C1675 C1674 1.349 . S
C1675 C1691 1.349 . S
C1676 C1674 1.327 . S
C1676 C1695 1.429 . S
C1676 H1700 0.950 . S
C1677 C1694 1.574 . S
C1677 C1696 1.368 . S
C1677 H1701 0.949 . S
H1678 C1682 0.949 . S
C1679 C1680 1.349 . S
C1679 C1681 1.327 . S
C1679 H1702 0.950 . S
C1680 C1679 1.349 . S
C1680 C1692 1.349 . S
C1681 C1679 1.327 . S
C1681 C1697 1.429 . S
C1681 H1703 0.950 . S
C1682 H1678 0.949 . S
C1682 C1690 1.574 . S
C1682 C1698 1.368 . S
H1683 C1691 0.950 . S
H1684 C1689 0.950 . S
H1685 C1690 0.949 . S
H1686 C1692 0.950 . S
H1687 C1693 0.950 . S
H1688 C1694 0.949 . S
C1689 H1684 0.950 . S
C1689 C1691 1.327 . S
C1689 C1695 1.429 . S
C1690 C1682 1.574 . S
C1690 H1685 0.949 . S
C1690 C1696 1.368 . S
C1691 C1675 1.349 . S
C1691 H1683 0.950 . S
C1691 C1689 1.327 . S
C1692 C1680 1.349 . S
C1692 H1686 0.950 . S
C1692 C1693 1.327 . S
C1693 H1687 0.950 . S
C1693 C1692 1.327 . S
C1693 C1697 1.429 . S
C1694 C1677 1.574 . S
C1694 H1688 0.949 . S
C1694 C1698 1.368 . S
C1695 C1676 1.429 . S
C1695 C1689 1.429 . S
C1695 C1696 1.523 . S
C1696 C1677 1.368 . S
C1696 C1690 1.368 . S
C1696 C1695 1.523 . S
C1697 C1681 1.429 . S
C1697 C1693 1.429 . S
C1697 C1698 1.523 . S
C1698 C1682 1.368 . S
C1698 C1694 1.368 . S
C1698 C1697 1.523 . S
H1699 C1674 0.950 . S
H1700 C1676 0.950 . S
H1701 C1677 0.949 . S
H1702 C1679 0.950 . S
H1703 C1681 0.950 . S
C1704 C1705 1.349 . S
C1704 C1706 1.327 . S
C1704 H1729 0.950 . S
C1705 C1704 1.349 . S
C1705 C1721 1.349 . S
C1706 C1704 1.327 . S
C1706 C1725 1.429 . S
C1706 H1730 0.950 . S
C1707 C1724 1.574 . S
C1707 C1726 1.368 . S
C1707 H1731 0.949 . S
H1708 C1712 0.949 . S
C1709 C1710 1.349 . S
C1709 C1711 1.327 . S
C1709 H1732 0.950 . S
C1710 C1709 1.349 . S
C1710 C1722 1.349 . S
C1711 C1709 1.327 . S
C1711 C1727 1.429 . S
C1711 H1733 0.950 . S
C1712 H1708 0.949 . S
C1712 C1720 1.574 . S
C1712 C1728 1.368 . S
H1713 C1721 0.950 . S
H1714 C1719 0.950 . S
H1715 C1720 0.949 . S
H1716 C1722 0.950 . S
H1717 C1723 0.950 . S
H1718 C1724 0.949 . S
C1719 H1714 0.950 . S
C1719 C1721 1.327 . S
C1719 C1725 1.429 . S
C1720 C1712 1.574 . S
C1720 H1715 0.949 . S
C1720 C1726 1.368 . S
C1721 C1705 1.349 . S
C1721 H1713 0.950 . S
C1721 C1719 1.327 . S
C1722 C1710 1.349 . S
C1722 H1716 0.950 . S
C1722 C1723 1.327 . S
C1723 H1717 0.950 . S
C1723 C1722 1.327 . S
C1723 C1727 1.429 . S
C1724 C1707 1.574 . S
C1724 H1718 0.949 . S
C1724 C1728 1.368 . S
C1725 C1706 1.429 . S
C1725 C1719 1.429 . S
C1725 C1726 1.523 . S
C1726 C1707 1.368 . S
C1726 C1720 1.368 . S
C1726 C1725 1.523 . S
C1727 C1711 1.429 . S
C1727 C1723 1.429 . S
C1727 C1728 1.523 . S
C1728 C1712 1.368 . S
C1728 C1724 1.368 . S
C1728 C1727 1.523 . S
H1729 C1704 0.950 . S
H1730 C1706 0.950 . S
H1731 C1707 0.949 . S
H1732 C1709 0.950 . S
H1733 C1711 0.950 . S
C1734 C1735 1.349 . S
C1734 C1736 1.327 . S
C1734 H1759 0.950 . S
C1735 C1734 1.349 . S
C1735 C1751 1.349 . S
C1736 C1734 1.327 . S
C1736 C1755 1.429 . S
C1736 H1760 0.950 . S
C1737 C1754 1.574 . S
C1737 C1756 1.368 . S
C1737 H1761 0.949 . S
H1738 C1742 0.949 . S
C1739 C1740 1.349 . S
C1739 C1741 1.327 . S
C1739 H1762 0.950 . S
C1740 C1739 1.349 . S
C1740 C1752 1.349 . S
C1741 C1739 1.327 . S
C1741 C1757 1.429 . S
C1741 H1763 0.950 . S
C1742 H1738 0.949 . S
C1742 C1750 1.574 . S
C1742 C1758 1.368 . S
H1743 C1751 0.950 . S
H1744 C1749 0.950 . S
H1745 C1750 0.949 . S
H1746 C1752 0.950 . S
H1747 C1753 0.950 . S
H1748 C1754 0.949 . S
C1749 H1744 0.950 . S
C1749 C1751 1.327 . S
C1749 C1755 1.429 . S
C1750 C1742 1.574 . S
C1750 H1745 0.949 . S
C1750 C1756 1.368 . S
C1751 C1735 1.349 . S
C1751 H1743 0.950 . S
C1751 C1749 1.327 . S
C1752 C1740 1.349 . S
C1752 H1746 0.950 . S
C1752 C1753 1.327 . S
C1753 H1747 0.950 . S
C1753 C1752 1.327 . S
C1753 C1757 1.429 . S
C1754 C1737 1.574 . S
C1754 H1748 0.949 . S
C1754 C1758 1.368 . S
C1755 C1736 1.429 . S
C1755 C1749 1.429 . S
C1755 C1756 1.523 . S
C1756 C1737 1.368 . S
C1756 C1750 1.368 . S
C1756 C1755 1.523 . S
C1757 C1741 1.429 . S
C1757 C1753 1.429 . S
C1757 C1758 1.523 . S
C1758 C1742 1.368 . S
C1758 C1754 1.368 . S
C1758 C1757 1.523 . S
H1759 C1734 0.950 . S
H1760 C1736 0.950 . S
H1761 C1737 0.949 . S
H1762 C1739 0.950 . S
H1763 C1741 0.950 . S
C1764 C1765 1.349 . S
C1764 C1766 1.327 . S
C1764 H1789 0.950 . S
C1765 C1764 1.349 . S
C1765 C1781 1.349 . S
C1766 C1764 1.327 . S
C1766 C1785 1.429 . S
C1766 H1790 0.950 . S
C1767 C1784 1.574 . S
C1767 C1786 1.368 . S
C1767 H1791 0.949 . S
H1768 C1772 0.949 . S
C1769 C1770 1.349 . S
C1769 C1771 1.327 . S
C1769 H1792 0.950 . S
C1770 C1769 1.349 . S
C1770 C1782 1.349 . S
C1771 C1769 1.327 . S
C1771 C1787 1.429 . S
C1771 H1793 0.950 . S
C1772 H1768 0.949 . S
C1772 C1780 1.574 . S
C1772 C1788 1.368 . S
H1773 C1781 0.950 . S
H1774 C1779 0.950 . S
H1775 C1780 0.949 . S
H1776 C1782 0.950 . S
H1777 C1783 0.950 . S
H1778 C1784 0.949 . S
C1779 H1774 0.950 . S
C1779 C1781 1.327 . S
C1779 C1785 1.429 . S
C1780 C1772 1.574 . S
C1780 H1775 0.949 . S
C1780 C1786 1.368 . S
C1781 C1765 1.349 . S
C1781 H1773 0.950 . S
C1781 C1779 1.327 . S
C1782 C1770 1.349 . S
C1782 H1776 0.950 . S
C1782 C1783 1.327 . S
C1783 H1777 0.950 . S
C1783 C1782 1.327 . S
C1783 C1787 1.429 . S
C1784 C1767 1.574 . S
C1784 H1778 0.949 . S
C1784 C1788 1.368 . S
C1785 C1766 1.429 . S
C1785 C1779 1.429 . S
C1785 C1786 1.523 . S
C1786 C1767 1.368 . S
C1786 C1780 1.368 . S
C1786 C1785 1.523 . S
C1787 C1771 1.429 . S
C1787 C1783 1.429 . S
C1787 C1788 1.523 . S
C1788 C1772 1.368 . S
C1788 C1784 1.368 . S
C1788 C1787 1.523 . S
H1789 C1764 0.950 . S
H1790 C1766 0.950 . S
H1791 C1767 0.949 . S
H1792 C1769 0.950 . S
H1793 C1771 0.950 . S
C1794 C1795 1.349 . S
C1794 C1796 1.327 . S
C1794 H1819 0.950 . S
C1795 C1794 1.349 . S
C1795 C1811 1.349 . S
C1796 C1794 1.327 . S
C1796 C1815 1.429 . S
C1796 H1820 0.950 . S
C1797 C1814 1.574 . S
C1797 C1816 1.368 . S
C1797 H1821 0.949 . S
H1798 C1802 0.949 . S
C1799 C1800 1.349 . S
C1799 C1801 1.327 . S
C1799 H1822 0.950 . S
C1800 C1799 1.349 . S
C1800 C1812 1.349 . S
C1801 C1799 1.327 . S
C1801 C1817 1.429 . S
C1801 H1823 0.950 . S
C1802 H1798 0.949 . S
C1802 C1810 1.574 . S
C1802 C1818 1.368 . S
H1803 C1811 0.950 . S
H1804 C1809 0.950 . S
H1805 C1810 0.949 . S
H1806 C1812 0.950 . S
H1807 C1813 0.950 . S
H1808 C1814 0.949 . S
C1809 H1804 0.950 . S
C1809 C1811 1.327 . S
C1809 C1815 1.429 . S
C1810 C1802 1.574 . S
C1810 H1805 0.949 . S
C1810 C1816 1.368 . S
C1811 C1795 1.349 . S
C1811 H1803 0.950 . S
C1811 C1809 1.327 . S
C1812 C1800 1.349 . S
C1812 H1806 0.950 . S
C1812 C1813 1.327 . S
C1813 H1807 0.950 . S
C1813 C1812 1.327 . S
C1813 C1817 1.429 . S
C1814 C1797 1.574 . S
C1814 H1808 0.949 . S
C1814 C1818 1.368 . S
C1815 C1796 1.429 . S
C1815 C1809 1.429 . S
C1815 C1816 1.523 . S
C1816 C1797 1.368 . S
C1816 C1810 1.368 . S
C1816 C1815 1.523 . S
C1817 C1801 1.429 . S
C1817 C1813 1.429 . S
C1817 C1818 1.523 . S
C1818 C1802 1.368 . S
C1818 C1814 1.368 . S
C1818 C1817 1.523 . S
H1819 C1794 0.950 . S
H1820 C1796 0.950 . S
H1821 C1797 0.949 . S
H1822 C1799 0.950 . S
H1823 C1801 0.950 . S
C1824 C1825 1.349 . S
C1824 C1826 1.327 . S
C1824 H1849 0.950 . S
C1825 C1824 1.349 . S
C1825 C1841 1.349 . S
C1826 C1824 1.327 . S
C1826 C1845 1.429 . S
C1826 H1850 0.950 . S
C1827 C1844 1.574 . S
C1827 C1846 1.368 . S
C1827 H1851 0.949 . S
H1828 C1832 0.949 . S
C1829 C1830 1.349 . S
C1829 C1831 1.327 . S
C1829 H1852 0.950 . S
C1830 C1829 1.349 . S
C1830 C1842 1.349 . S
C1831 C1829 1.327 . S
C1831 C1847 1.429 . S
C1831 H1853 0.950 . S
C1832 H1828 0.949 . S
C1832 C1840 1.574 . S
C1832 C1848 1.368 . S
H1833 C1841 0.950 . S
H1834 C1839 0.950 . S
H1835 C1840 0.949 . S
H1836 C1842 0.950 . S
H1837 C1843 0.950 . S
H1838 C1844 0.949 . S
C1839 H1834 0.950 . S
C1839 C1841 1.327 . S
C1839 C1845 1.429 . S
C1840 C1832 1.574 . S
C1840 H1835 0.949 . S
C1840 C1846 1.368 . S
C1841 C1825 1.349 . S
C1841 H1833 0.950 . S
C1841 C1839 1.327 . S
C1842 C1830 1.349 . S
C1842 H1836 0.950 . S
C1842 C1843 1.327 . S
C1843 H1837 0.950 . S
C1843 C1842 1.327 . S
C1843 C1847 1.429 . S
C1844 C1827 1.574 . S
C1844 H1838 0.949 . S
C1844 C1848 1.368 . S
C1845 C1826 1.429 . S
C1845 C1839 1.429 . S
C1845 C1846 1.523 . S
C1846 C1827 1.368 . S
C1846 C1840 1.368 . S
C1846 C1845 1.523 . S
C1847 C1831 1.429 . S
C1847 C1843 1.429 . S
C1847 C1848 1.523 . S
C1848 C1832 1.368 . S
C1848 C1844 1.368 . S
C1848 C1847 1.523 . S
H1849 C1824 0.950 . S
H1850 C1826 0.950 . S
H1851 C1827 0.949 . S
H1852 C1829 0.950 . S
H1853 C1831 0.950 . S
C1854 C1855 1.349 . S
C1854 C1856 1.327 . S
C1854 H1879 0.950 . S
C1855 C1854 1.349 . S
C1855 C1871 1.349 . S
C1856 C1854 1.327 . S
C1856 C1875 1.429 . S
C1856 H1880 0.950 . S
C1857 C1874 1.574 . S
C1857 C1876 1.368 . S
C1857 H1881 0.949 . S
H1858 C1862 0.949 . S
C1859 C1860 1.349 . S
C1859 C1861 1.327 . S
C1859 H1882 0.950 . S
C1860 C1859 1.349 . S
C1860 C1872 1.349 . S
C1861 C1859 1.327 . S
C1861 C1877 1.429 . S
C1861 H1883 0.950 . S
C1862 H1858 0.949 . S
C1862 C1870 1.574 . S
C1862 C1878 1.368 . S
H1863 C1871 0.950 . S
H1864 C1869 0.950 . S
H1865 C1870 0.949 . S
H1866 C1872 0.950 . S
H1867 C1873 0.950 . S
H1868 C1874 0.949 . S
C1869 H1864 0.950 . S
C1869 C1871 1.327 . S
C1869 C1875 1.429 . S
C1870 C1862 1.574 . S
C1870 H1865 0.949 . S
C1870 C1876 1.368 . S
C1871 C1855 1.349 . S
C1871 H1863 0.950 . S
C1871 C1869 1.327 . S
C1872 C1860 1.349 . S
C1872 H1866 0.950 . S
C1872 C1873 1.327 . S
C1873 H1867 0.950 . S
C1873 C1872 1.327 . S
C1873 C1877 1.429 . S
C1874 C1857 1.574 . S
C1874 H1868 0.949 . S
C1874 C1878 1.368 . S
C1875 C1856 1.429 . S
C1875 C1869 1.429 . S
C1875 C1876 1.523 . S
C1876 C1857 1.368 . S
C1876 C1870 1.368 . S
C1876 C1875 1.523 . S
C1877 C1861 1.429 . S
C1877 C1873 1.429 . S
C1877 C1878 1.523 . S
C1878 C1862 1.368 . S
C1878 C1874 1.368 . S
C1878 C1877 1.523 . S
H1879 C1854 0.950 . S
H1880 C1856 0.950 . S
H1881 C1857 0.949 . S
H1882 C1859 0.950 . S
H1883 C1861 0.950 . S
C1884 C1885 1.349 . S
C1884 C1886 1.327 . S
C1884 H1909 0.950 . S
C1885 C1884 1.349 . S
C1885 C1901 1.349 . S
C1886 C1884 1.327 . S
C1886 C1905 1.429 . S
C1886 H1910 0.950 . S
C1887 C1904 1.574 . S
C1887 C1906 1.368 . S
C1887 H1911 0.949 . S
H1888 C1892 0.949 . S
C1889 C1890 1.349 . S
C1889 C1891 1.327 . S
C1889 H1912 0.950 . S
C1890 C1889 1.349 . S
C1890 C1902 1.349 . S
C1891 C1889 1.327 . S
C1891 C1907 1.429 . S
C1891 H1913 0.950 . S
C1892 H1888 0.949 . S
C1892 C1900 1.574 . S
C1892 C1908 1.368 . S
H1893 C1901 0.950 . S
H1894 C1899 0.950 . S
H1895 C1900 0.949 . S
H1896 C1902 0.950 . S
H1897 C1903 0.950 . S
H1898 C1904 0.949 . S
C1899 H1894 0.950 . S
C1899 C1901 1.327 . S
C1899 C1905 1.429 . S
C1900 C1892 1.574 . S
C1900 H1895 0.949 . S
C1900 C1906 1.368 . S
C1901 C1885 1.349 . S
C1901 H1893 0.950 . S
C1901 C1899 1.327 . S
C1902 C1890 1.349 . S
C1902 H1896 0.950 . S
C1902 C1903 1.327 . S
C1903 H1897 0.950 . S
C1903 C1902 1.327 . S
C1903 C1907 1.429 . S
C1904 C1887 1.574 . S
C1904 H1898 0.949 . S
C1904 C1908 1.368 . S
C1905 C1886 1.429 . S
C1905 C1899 1.429 . S
C1905 C1906 1.523 . S
C1906 C1887 1.368 . S
C1906 C1900 1.368 . S
C1906 C1905 1.523 . S
C1907 C1891 1.429 . S
C1907 C1903 1.429 . S
C1907 C1908 1.523 . S
C1908 C1892 1.368 . S
C1908 C1904 1.368 . S
C1908 C1907 1.523 . S
H1909 C1884 0.950 . S
H1910 C1886 0.950 . S
H1911 C1887 0.949 . S
H1912 C1889 0.950 . S
H1913 C1891 0.950 . S
C1914 C1915 1.349 . S
C1914 C1916 1.327 . S
C1914 H1939 0.950 . S
C1915 C1914 1.349 . S
C1915 C1931 1.349 . S
C1916 C1914 1.327 . S
C1916 C1935 1.429 . S
C1916 H1940 0.950 . S
C1917 C1934 1.574 . S
C1917 C1936 1.368 . S
C1917 H1941 0.949 . S
H1918 C1922 0.949 . S
C1919 C1920 1.349 . S
C1919 C1921 1.327 . S
C1919 H1942 0.950 . S
C1920 C1919 1.349 . S
C1920 C1932 1.349 . S
C1921 C1919 1.327 . S
C1921 C1937 1.429 . S
C1921 H1943 0.950 . S
C1922 H1918 0.949 . S
C1922 C1930 1.574 . S
C1922 C1938 1.368 . S
H1923 C1931 0.950 . S
H1924 C1929 0.950 . S
H1925 C1930 0.949 . S
H1926 C1932 0.950 . S
H1927 C1933 0.950 . S
H1928 C1934 0.949 . S
C1929 H1924 0.950 . S
C1929 C1931 1.327 . S
C1929 C1935 1.429 . S
C1930 C1922 1.574 . S
C1930 H1925 0.949 . S
C1930 C1936 1.368 . S
C1931 C1915 1.349 . S
C1931 H1923 0.950 . S
C1931 C1929 1.327 . S
C1932 C1920 1.349 . S
C1932 H1926 0.950 . S
C1932 C1933 1.327 . S
C1933 H1927 0.950 . S
C1933 C1932 1.327 . S
C1933 C1937 1.429 . S
C1934 C1917 1.574 . S
C1934 H1928 0.949 . S
C1934 C1938 1.368 . S
C1935 C1916 1.429 . S
C1935 C1929 1.429 . S
C1935 C1936 1.523 . S
C1936 C1917 1.368 . S
C1936 C1930 1.368 . S
C1936 C1935 1.523 . S
C1937 C1921 1.429 . S
C1937 C1933 1.429 . S
C1937 C1938 1.523 . S
C1938 C1922 1.368 . S
C1938 C1934 1.368 . S
C1938 C1937 1.523 . S
H1939 C1914 0.950 . S
H1940 C1916 0.950 . S
H1941 C1917 0.949 . S
H1942 C1919 0.950 . S
H1943 C1921 0.950 . S
C1944 C1945 1.349 . S
C1944 C1946 1.327 . S
C1944 H1969 0.950 . S
C1945 C1944 1.349 . S
C1945 C1961 1.349 . S
C1946 C1944 1.327 . S
C1946 C1965 1.429 . S
C1946 H1970 0.950 . S
C1947 C1964 1.574 . S
C1947 C1966 1.368 . S
C1947 H1971 0.949 . S
H1948 C1952 0.949 . S
C1949 C1950 1.349 . S
C1949 C1951 1.327 . S
C1949 H1972 0.950 . S
C1950 C1949 1.349 . S
C1950 C1962 1.349 . S
C1951 C1949 1.327 . S
C1951 C1967 1.429 . S
C1951 H1973 0.950 . S
C1952 H1948 0.949 . S
C1952 C1960 1.574 . S
C1952 C1968 1.368 . S
H1953 C1961 0.950 . S
H1954 C1959 0.950 . S
H1955 C1960 0.949 . S
H1956 C1962 0.950 . S
H1957 C1963 0.950 . S
H1958 C1964 0.949 . S
C1959 H1954 0.950 . S
C1959 C1961 1.327 . S
C1959 C1965 1.429 . S
C1960 C1952 1.574 . S
C1960 H1955 0.949 . S
C1960 C1966 1.368 . S
C1961 C1945 1.349 . S
C1961 H1953 0.950 . S
C1961 C1959 1.327 . S
C1962 C1950 1.349 . S
C1962 H1956 0.950 . S
C1962 C1963 1.327 . S
C1963 H1957 0.950 . S
C1963 C1962 1.327 . S
C1963 C1967 1.429 . S
C1964 C1947 1.574 . S
C1964 H1958 0.949 . S
C1964 C1968 1.368 . S
C1965 C1946 1.429 . S
C1965 C1959 1.429 . S
C1965 C1966 1.523 . S
C1966 C1947 1.368 . S
C1966 C1960 1.368 . S
C1966 C1965 1.523 . S
C1967 C1951 1.429 . S
C1967 C1963 1.429 . S
C1967 C1968 1.523 . S
C1968 C1952 1.368 . S
C1968 C1964 1.368 . S
C1968 C1967 1.523 . S
H1969 C1944 0.950 . S
H1970 C1946 0.950 . S
H1971 C1947 0.949 . S
H1972 C1949 0.950 . S
H1973 C1951 0.950 . S
C1974 C1975 1.349 . S
C1974 C1976 1.327 . S
C1974 H1999 0.950 . S
C1975 C1974 1.349 . S
C1975 C1991 1.349 . S
C1976 C1974 1.327 . S
C1976 C1995 1.429 . S
C1976 H2000 0.950 . S
C1977 C1994 1.574 . S
C1977 C1996 1.368 . S
C1977 H2001 0.949 . S
H1978 C1982 0.949 . S
C1979 C1980 1.349 . S
C1979 C1981 1.327 . S
C1979 H2002 0.950 . S
C1980 C1979 1.349 . S
C1980 C1992 1.349 . S
C1981 C1979 1.327 . S
C1981 C1997 1.429 . S
C1981 H2003 0.950 . S
C1982 H1978 0.949 . S
C1982 C1990 1.574 . S
C1982 C1998 1.368 . S
H1983 C1991 0.950 . S
H1984 C1989 0.950 . S
H1985 C1990 0.949 . S
H1986 C1992 0.950 . S
H1987 C1993 0.950 . S
H1988 C1994 0.949 . S
C1989 H1984 0.950 . S
C1989 C1991 1.327 . S
C1989 C1995 1.429 . S
C1990 C1982 1.574 . S
C1990 H1985 0.949 . S
C1990 C1996 1.368 . S
C1991 C1975 1.349 . S
C1991 H1983 0.950 . S
C1991 C1989 1.327 . S
C1992 C1980 1.349 . S
C1992 H1986 0.950 . S
C1992 C1993 1.327 . S
C1993 H1987 0.950 . S
C1993 C1992 1.327 . S
C1993 C1997 1.429 . S
C1994 C1977 1.574 . S
C1994 H1988 0.949 . S
C1994 C1998 1.368 . S
C1995 C1976 1.429 . S
C1995 C1989 1.429 . S
C1995 C1996 1.523 . S
C1996 C1977 1.368 . S
C1996 C1990 1.368 . S
C1996 C1995 1.523 . S
C1997 C1981 1.429 . S
C1997 C1993 1.429 . S
C1997 C1998 1.523 . S
C1998 C1982 1.368 . S
C1998 C1994 1.368 . S
C1998 C1997 1.523 . S
H1999 C1974 0.950 . S
H2000 C1976 0.950 . S
H2001 C1977 0.949 . S
H2002 C1979 0.950 . S
H2003 C1981 0.950 . S
C2004 C2005 1.349 . S
C2004 C2006 1.327 . S
C2004 H2029 0.950 . S
C2005 C2004 1.349 . S
C2005 C2021 1.349 . S
C2006 C2004 1.327 . S
C2006 C2025 1.429 . S
C2006 H2030 0.950 . S
C2007 C2024 1.574 . S
C2007 C2026 1.368 . S
C2007 H2031 0.949 . S
H2008 C2012 0.949 . S
C2009 C2010 1.349 . S
C2009 C2011 1.327 . S
C2009 H2032 0.950 . S
C2010 C2009 1.349 . S
C2010 C2022 1.349 . S
C2011 C2009 1.327 . S
C2011 C2027 1.429 . S
C2011 H2033 0.950 . S
C2012 H2008 0.949 . S
C2012 C2020 1.574 . S
C2012 C2028 1.368 . S
H2013 C2021 0.950 . S
H2014 C2019 0.950 . S
H2015 C2020 0.949 . S
H2016 C2022 0.950 . S
H2017 C2023 0.950 . S
H2018 C2024 0.949 . S
C2019 H2014 0.950 . S
C2019 C2021 1.327 . S
C2019 C2025 1.429 . S
C2020 C2012 1.574 . S
C2020 H2015 0.949 . S
C2020 C2026 1.368 . S
C2021 C2005 1.349 . S
C2021 H2013 0.950 . S
C2021 C2019 1.327 . S
C2022 C2010 1.349 . S
C2022 H2016 0.950 . S
C2022 C2023 1.327 . S
C2023 H2017 0.950 . S
C2023 C2022 1.327 . S
C2023 C2027 1.429 . S
C2024 C2007 1.574 . S
C2024 H2018 0.949 . S
C2024 C2028 1.368 . S
C2025 C2006 1.429 . S
C2025 C2019 1.429 . S
C2025 C2026 1.523 . S
C2026 C2007 1.368 . S
C2026 C2020 1.368 . S
C2026 C2025 1.523 . S
C2027 C2011 1.429 . S
C2027 C2023 1.429 . S
C2027 C2028 1.523 . S
C2028 C2012 1.368 . S
C2028 C2024 1.368 . S
C2028 C2027 1.523 . S
H2029 C2004 0.950 . S
H2030 C2006 0.950 . S
H2031 C2007 0.949 . S
H2032 C2009 0.950 . S
H2033 C2011 0.950 . S
C2034 C2035 1.349 . S
C2034 C2036 1.327 1_556 S
C2034 H2059 0.950 . S
C2035 C2034 1.349 . S
C2035 C2051 1.349 . S
C2036 C2034 1.327 1_554 S
C2036 C2055 1.429 . S
C2036 H2060 0.950 . S
C2037 C2054 1.574 . S
C2037 C2056 1.368 . S
C2037 H2061 0.949 . S
H2038 C2042 0.949 . S
C2039 C2040 1.349 . S
C2039 C2041 1.327 . S
C2039 H2062 0.950 . S
C2040 C2039 1.349 . S
C2040 C2052 1.349 . S
C2041 C2039 1.327 . S
C2041 C2057 1.429 . S
C2041 H2063 0.950 . S
C2042 H2038 0.949 . S
C2042 C2050 1.574 . S
C2042 C2058 1.368 . S
H2043 C2051 0.950 . S
H2044 C2049 0.950 . S
H2045 C2050 0.949 . S
H2046 C2052 0.950 . S
H2047 C2053 0.950 . S
H2048 C2054 0.949 . S
C2049 H2044 0.950 . S
C2049 C2051 1.327 . S
C2049 C2055 1.429 1_556 S
C2050 C2042 1.574 . S
C2050 H2045 0.949 . S
C2050 C2056 1.368 . S
C2051 C2035 1.349 . S
C2051 H2043 0.950 . S
C2051 C2049 1.327 . S
C2052 C2040 1.349 . S
C2052 H2046 0.950 . S
C2052 C2053 1.327 . S
C2053 H2047 0.950 . S
C2053 C2052 1.327 . S
C2053 C2057 1.429 . S
C2054 C2037 1.574 . S
C2054 H2048 0.949 . S
C2054 C2058 1.368 . S
C2055 C2036 1.429 . S
C2055 C2049 1.429 1_554 S
C2055 C2056 1.523 . S
C2056 C2037 1.368 . S
C2056 C2050 1.368 . S
C2056 C2055 1.523 . S
C2057 C2041 1.429 . S
C2057 C2053 1.429 . S
C2057 C2058 1.523 . S
C2058 C2042 1.368 . S
C2058 C2054 1.368 . S
C2058 C2057 1.523 . S
H2059 C2034 0.950 . S
H2060 C2036 0.950 . S
H2061 C2037 0.949 . S
H2062 C2039 0.950 . S
H2063 C2041 0.950 . S
C2064 C2065 1.349 . S
C2064 C2066 1.327 . S
C2064 H2089 0.950 . S
C2065 C2064 1.349 . S
C2065 C2081 1.349 . S
C2066 C2064 1.327 . S
C2066 C2085 1.429 1_556 S
C2066 H2090 0.948 1_556 S
C2067 C2084 1.574 . S
C2067 C2086 1.368 . S
C2067 H2091 0.949 . S
H2068 C2072 0.949 . S
C2069 C2070 1.349 . S
C2069 C2071 1.327 . S
C2069 H2092 0.950 . S
C2070 C2069 1.349 . S
C2070 C2082 1.349 . S
C2071 C2069 1.327 . S
C2071 C2087 1.429 . S
C2071 H2093 0.950 . S
C2072 H2068 0.949 . S
C2072 C2080 1.574 . S
C2072 C2088 1.368 . S
H2073 C2081 0.950 . S
H2074 C2079 0.950 . S
H2075 C2080 0.949 . S
H2076 C2082 0.950 . S
H2077 C2083 0.950 . S
H2078 C2084 0.949 . S
C2079 H2074 0.950 . S
C2079 C2081 1.327 1_554 S
C2079 C2085 1.429 . S
C2080 C2072 1.574 . S
C2080 H2075 0.949 . S
C2080 C2086 1.368 . S
C2081 C2065 1.349 . S
C2081 H2073 0.950 . S
C2081 C2079 1.327 1_556 S
C2082 C2070 1.349 . S
C2082 H2076 0.950 . S
C2082 C2083 1.327 . S
C2083 H2077 0.950 . S
C2083 C2082 1.327 . S
C2083 C2087 1.429 . S
C2084 C2067 1.574 . S
C2084 H2078 0.949 . S
C2084 C2088 1.368 . S
C2085 C2066 1.429 1_554 S
C2085 C2079 1.429 . S
C2085 C2086 1.523 . S
C2086 C2067 1.368 . S
C2086 C2080 1.368 . S
C2086 C2085 1.523 . S
C2087 C2071 1.429 . S
C2087 C2083 1.429 . S
C2087 C2088 1.523 . S
C2088 C2072 1.368 . S
C2088 C2084 1.368 . S
C2088 C2087 1.523 . S
H2089 C2064 0.950 . S
H2090 C2066 0.948 1_554 S
H2091 C2067 0.949 . S
H2092 C2069 0.950 . S
H2093 C2071 0.950 . S
C2094 C2095 1.349 . S
C2094 C2096 1.344 . S
C2094 H2119 0.950 . S
C2095 C2094 1.349 . S
C2095 C2111 1.349 . S
C2096 C2094 1.344 . S
C2096 C2115 1.413 1_556 S
C2096 H2120 0.948 1_556 S
C2097 C2114 1.574 . S
C2097 C2116 1.368 . S
C2097 H2121 0.949 . S
H2098 C2102 0.949 . S
C2099 C2100 1.349 . S
C2099 C2101 1.327 . S
C2099 H2122 0.950 . S
C2100 C2099 1.349 . S
C2100 C2112 1.349 . S
C2101 C2099 1.327 . S
C2101 C2117 1.429 . S
C2101 H2123 0.950 . S
C2102 H2098 0.949 . S
C2102 C2110 1.574 . S
C2102 C2118 1.368 . S
H2103 C2111 0.950 . S
H2104 C2109 0.950 . S
H2105 C2110 0.949 . S
H2106 C2112 0.950 . S
H2107 C2113 0.950 . S
H2108 C2114 0.949 . S
C2109 H2104 0.950 . S
C2109 C2111 1.327 1_554 S
C2109 C2115 1.429 . S
C2110 C2102 1.574 . S
C2110 H2105 0.949 . S
C2110 C2116 1.368 . S
C2111 C2095 1.349 . S
C2111 H2103 0.950 . S
C2111 C2109 1.327 1_556 S
C2112 C2100 1.349 . S
C2112 H2106 0.950 . S
C2112 C2113 1.327 . S
C2113 H2107 0.950 . S
C2113 C2112 1.327 . S
C2113 C2117 1.429 . S
C2114 C2097 1.574 . S
C2114 H2108 0.949 . S
C2114 C2118 1.368 . S
C2115 C2096 1.413 1_554 S
C2115 C2109 1.429 . S
C2115 C2116 1.523 . S
C2116 C2097 1.368 . S
C2116 C2110 1.368 . S
C2116 C2115 1.523 . S
C2117 C2101 1.429 . S
C2117 C2113 1.429 . S
C2117 C2118 1.523 . S
C2118 C2102 1.368 . S
C2118 C2114 1.368 . S
C2118 C2117 1.523 . S
H2119 C2094 0.950 . S
H2120 C2096 0.948 1_554 S
H2121 C2097 0.949 . S
H2122 C2099 0.950 . S
H2123 C2101 0.950 . S
C2124 C2125 1.349 1_556 S
C2124 C2126 1.327 1_556 S
C2124 H2149 0.950 . S
C2125 C2124 1.349 1_554 S
C2125 C2141 1.349 . S
C2126 C2124 1.327 1_554 S
C2126 C2145 1.429 . S
C2126 H2150 0.950 1_554 S
C2127 C2144 1.574 . S
C2127 C2146 1.368 . S
C2127 H2151 0.949 . S
H2128 C2132 0.949 . S
C2129 C2130 1.349 . S
C2129 C2131 1.327 . S
C2129 H2152 0.950 . S
C2130 C2129 1.349 . S
C2130 C2142 1.349 . S
C2131 C2129 1.327 . S
C2131 C2147 1.429 . S
C2131 H2153 0.950 . S
C2132 H2128 0.949 . S
C2132 C2140 1.574 . S
C2132 C2148 1.368 . S
H2133 C2141 0.950 . S
H2134 C2139 0.950 . S
H2135 C2140 0.949 . S
H2136 C2142 0.950 . S
H2137 C2143 0.950 . S
H2138 C2144 0.949 . S
C2139 H2134 0.950 . S
C2139 C2141 1.327 . S
C2139 C2145 1.429 . S
C2140 C2132 1.574 . S
C2140 H2135 0.949 . S
C2140 C2146 1.368 . S
C2141 C2125 1.349 . S
C2141 H2133 0.950 . S
C2141 C2139 1.327 . S
C2142 C2130 1.349 . S
C2142 H2136 0.950 . S
C2142 C2143 1.327 . S
C2143 H2137 0.950 . S
C2143 C2142 1.327 . S
C2143 C2147 1.429 . S
C2144 C2127 1.574 . S
C2144 H2138 0.949 . S
C2144 C2148 1.368 . S
C2145 C2126 1.429 . S
C2145 C2139 1.429 . S
C2145 C2146 1.523 . S
C2146 C2127 1.368 . S
C2146 C2140 1.368 . S
C2146 C2145 1.523 . S
C2147 C2131 1.429 . S
C2147 C2143 1.429 . S
C2147 C2148 1.523 . S
C2148 C2132 1.368 . S
C2148 C2144 1.368 . S
C2148 C2147 1.523 . S
H2149 C2124 0.950 . S
H2150 C2126 0.950 1_556 S
H2151 C2127 0.949 . S
H2152 C2129 0.950 . S
H2153 C2131 0.950 . S
C2154 C2155 1.349 . S
C2154 C2156 1.327 . S
C2154 H2179 0.950 . S
C2155 C2154 1.349 . S
C2155 C2171 1.349 . S
C2156 C2154 1.327 . S
C2156 C2175 1.429 . S
C2156 H2180 0.950 . S
C2157 C2174 1.574 . S
C2157 C2176 1.368 . S
C2157 H2181 0.949 . S
H2158 C2162 0.949 . S
C2159 C2160 1.349 . S
C2159 C2161 1.327 . S
C2159 H2182 0.950 . S
C2160 C2159 1.349 . S
C2160 C2172 1.349 1_554 S
C2161 C2159 1.327 . S
C2161 C2177 1.429 . S
C2161 H2183 0.950 . S
C2162 H2158 0.949 . S
C2162 C2170 1.574 . S
C2162 C2178 1.368 . S
H2163 C2171 0.950 . S
H2164 C2169 0.950 . S
H2165 C2170 0.949 . S
H2166 C2172 0.950 . S
H2167 C2173 0.950 1_556 S
H2168 C2174 0.949 . S
C2169 H2164 0.950 . S
C2169 C2171 1.327 . S
C2169 C2175 1.429 . S
C2170 C2162 1.574 . S
C2170 H2165 0.949 . S
C2170 C2176 1.368 . S
C2171 C2155 1.349 . S
C2171 H2163 0.950 . S
C2171 C2169 1.327 . S
C2172 C2160 1.349 1_556 S
C2172 H2166 0.950 . S
C2172 C2173 1.327 1_556 S
C2173 H2167 0.950 1_554 S
C2173 C2172 1.327 1_554 S
C2173 C2177 1.429 . S
C2174 C2157 1.574 . S
C2174 H2168 0.949 . S
C2174 C2178 1.368 . S
C2175 C2156 1.429 . S
C2175 C2169 1.429 . S
C2175 C2176 1.523 . S
C2176 C2157 1.368 . S
C2176 C2170 1.368 . S
C2176 C2175 1.523 . S
C2177 C2161 1.429 . S
C2177 C2173 1.429 . S
C2177 C2178 1.523 . S
C2178 C2162 1.368 . S
C2178 C2174 1.368 . S
C2178 C2177 1.523 . S
H2179 C2154 0.950 . S
H2180 C2156 0.950 . S
H2181 C2157 0.949 . S
H2182 C2159 0.950 . S
H2183 C2161 0.950 . S
C2184 C2185 1.349 1_556 S
C2184 C2186 1.327 1_556 S
C2184 H2209 0.950 . S
C2185 C2184 1.349 1_554 S
C2185 C2201 1.349 . S
C2186 C2184 1.327 1_554 S
C2186 C2205 1.429 . S
C2186 H2210 0.950 1_554 S
C2187 C2204 1.574 . S
C2187 C2206 1.368 . S
C2187 H2211 0.949 . S
H2188 C2192 0.949 . S
C2189 C2190 1.349 . S
C2189 C2191 1.327 . S
C2189 H2212 0.950 . S
C2190 C2189 1.349 . S
C2190 C2202 1.349 . S
C2191 C2189 1.327 . S
C2191 C2207 1.429 . S
C2191 H2213 0.950 . S
C2192 H2188 0.949 . S
C2192 C2200 1.574 . S
C2192 C2208 1.368 . S
H2193 C2201 0.950 . S
H2194 C2199 0.950 . S
H2195 C2200 0.949 . S
H2196 C2202 0.950 . S
H2197 C2203 0.950 . S
H2198 C2204 0.949 . S
C2199 H2194 0.950 . S
C2199 C2201 1.327 . S
C2199 C2205 1.429 . S
C2200 C2192 1.574 . S
C2200 H2195 0.949 . S
C2200 C2206 1.368 . S
C2201 C2185 1.349 . S
C2201 H2193 0.950 . S
C2201 C2199 1.327 . S
C2202 C2190 1.349 . S
C2202 H2196 0.950 . S
C2202 C2203 1.327 . S
C2203 H2197 0.950 . S
C2203 C2202 1.327 . S
C2203 C2207 1.429 . S
C2204 C2187 1.574 . S
C2204 H2198 0.949 . S
C2204 C2208 1.368 . S
C2205 C2186 1.429 . S
C2205 C2199 1.429 . S
C2205 C2206 1.523 . S
C2206 C2187 1.368 . S
C2206 C2200 1.368 . S
C2206 C2205 1.523 . S
C2207 C2191 1.429 . S
C2207 C2203 1.429 . S
C2207 C2208 1.523 . S
C2208 C2192 1.368 . S
C2208 C2204 1.368 . S
C2208 C2207 1.523 . S
H2209 C2184 0.950 . S
H2210 C2186 0.950 1_556 S
H2211 C2187 0.949 . S
H2212 C2189 0.950 . S
H2213 C2191 0.950 . S
C2214 C2215 1.349 . S
C2214 C2216 1.327 . S
C2214 H2239 0.950 . S
C2215 C2214 1.349 . S
C2215 C2231 1.349 . S
C2216 C2214 1.327 . S
C2216 C2235 1.429 . S
C2216 H2240 0.950 . S
C2217 C2234 1.574 . S
C2217 C2236 1.368 . S
C2217 H2241 0.949 . S
H2218 C2222 0.949 . S
C2219 C2220 1.349 . S
C2219 C2221 1.327 . S
C2219 H2242 0.950 . S
C2220 C2219 1.349 . S
C2220 C2232 1.349 . S
C2221 C2219 1.327 . S
C2221 C2237 1.429 . S
C2221 H2243 0.950 . S
C2222 H2218 0.949 . S
C2222 C2230 1.574 . S
C2222 C2238 1.368 . S
H2223 C2231 0.950 . S
H2224 C2229 0.950 . S
H2225 C2230 0.949 . S
H2226 C2232 0.950 . S
H2227 C2233 0.950 . S
H2228 C2234 0.949 . S
C2229 H2224 0.950 . S
C2229 C2231 1.327 . S
C2229 C2235 1.429 . S
C2230 C2222 1.574 . S
C2230 H2225 0.949 . S
C2230 C2236 1.368 . S
C2231 C2215 1.349 . S
C2231 H2223 0.950 . S
C2231 C2229 1.327 . S
C2232 C2220 1.349 . S
C2232 H2226 0.950 . S
C2232 C2233 1.327 . S
C2233 H2227 0.950 . S
C2233 C2232 1.327 . S
C2233 C2237 1.429 . S
C2234 C2217 1.574 . S
C2234 H2228 0.949 . S
C2234 C2238 1.368 . S
C2235 C2216 1.429 . S
C2235 C2229 1.429 . S
C2235 C2236 1.523 . S
C2236 C2217 1.368 . S
C2236 C2230 1.368 . S
C2236 C2235 1.523 . S
C2237 C2221 1.429 . S
C2237 C2233 1.429 . S
C2237 C2238 1.523 . S
C2238 C2222 1.368 . S
C2238 C2234 1.368 . S
C2238 C2237 1.523 . S
H2239 C2214 0.950 . S
H2240 C2216 0.950 . S
H2241 C2217 0.949 . S
H2242 C2219 0.950 . S
H2243 C2221 0.950 . S
C2244 C2245 1.349 . S
C2244 C2246 1.327 . S
C2244 H2269 0.950 . S
C2245 C2244 1.349 . S
C2245 C2261 1.349 . S
C2246 C2244 1.327 . S
C2246 C2265 1.429 . S
C2246 H2270 0.950 . S
C2247 C2264 1.574 . S
C2247 C2266 1.368 . S
C2247 H2271 0.949 . S
H2248 C2252 0.949 . S
C2249 C2250 1.349 . S
C2249 C2251 1.327 . S
C2249 H2272 0.950 . S
C2250 C2249 1.349 . S
C2250 C2262 1.349 . S
C2251 C2249 1.327 . S
C2251 C2267 1.429 . S
C2251 H2273 0.950 . S
C2252 H2248 0.949 . S
C2252 C2260 1.574 . S
C2252 C2268 1.368 . S
H2253 C2261 0.950 . S
H2254 C2259 0.950 . S
H2255 C2260 0.949 . S
H2256 C2262 0.950 . S
H2257 C2263 0.950 . S
H2258 C2264 0.949 . S
C2259 H2254 0.950 . S
C2259 C2261 1.327 . S
C2259 C2265 1.429 . S
C2260 C2252 1.574 . S
C2260 H2255 0.949 . S
C2260 C2266 1.368 . S
C2261 C2245 1.349 . S
C2261 H2253 0.950 . S
C2261 C2259 1.327 . S
C2262 C2250 1.349 . S
C2262 H2256 0.950 . S
C2262 C2263 1.327 . S
C2263 H2257 0.950 . S
C2263 C2262 1.327 . S
C2263 C2267 1.429 . S
C2264 C2247 1.574 . S
C2264 H2258 0.949 . S
C2264 C2268 1.368 . S
C2265 C2246 1.429 . S
C2265 C2259 1.429 . S
C2265 C2266 1.523 . S
C2266 C2247 1.368 . S
C2266 C2260 1.368 . S
C2266 C2265 1.523 . S
C2267 C2251 1.429 . S
C2267 C2263 1.429 . S
C2267 C2268 1.523 . S
C2268 C2252 1.368 . S
C2268 C2264 1.368 . S
C2268 C2267 1.523 . S
H2269 C2244 0.950 . S
H2270 C2246 0.950 . S
H2271 C2247 0.949 . S
H2272 C2249 0.950 . S
H2273 C2251 0.950 . S
C2274 C2275 1.349 . S
C2274 C2276 1.327 . S
C2274 H2299 0.950 . S
C2275 C2274 1.349 . S
C2275 C2291 1.349 . S
C2276 C2274 1.327 . S
C2276 C2295 1.429 . S
C2276 H2300 0.950 . S
C2277 C2294 1.574 . S
C2277 C2296 1.368 . S
C2277 H2301 0.949 . S
H2278 C2282 0.949 . S
C2279 C2280 1.349 . S
C2279 C2281 1.327 . S
C2279 H2302 0.950 . S
C2280 C2279 1.349 . S
C2280 C2292 1.349 . S
C2281 C2279 1.327 . S
C2281 C2297 1.429 . S
C2281 H2303 0.950 . S
C2282 H2278 0.949 . S
C2282 C2290 1.574 . S
C2282 C2298 1.368 . S
H2283 C2291 0.950 . S
H2284 C2289 0.950 . S
H2285 C2290 0.949 . S
H2286 C2292 0.950 . S
H2287 C2293 0.950 . S
H2288 C2294 0.949 . S
C2289 H2284 0.950 . S
C2289 C2291 1.327 . S
C2289 C2295 1.429 . S
C2290 C2282 1.574 . S
C2290 H2285 0.949 . S
C2290 C2296 1.368 . S
C2291 C2275 1.349 . S
C2291 H2283 0.950 . S
C2291 C2289 1.327 . S
C2292 C2280 1.349 . S
C2292 H2286 0.950 . S
C2292 C2293 1.327 . S
C2293 H2287 0.950 . S
C2293 C2292 1.327 . S
C2293 C2297 1.429 . S
C2294 C2277 1.574 . S
C2294 H2288 0.949 . S
C2294 C2298 1.368 . S
C2295 C2276 1.429 . S
C2295 C2289 1.429 . S
C2295 C2296 1.523 . S
C2296 C2277 1.368 . S
C2296 C2290 1.368 . S
C2296 C2295 1.523 . S
C2297 C2281 1.429 . S
C2297 C2293 1.429 . S
C2297 C2298 1.523 . S
C2298 C2282 1.368 . S
C2298 C2294 1.368 . S
C2298 C2297 1.523 . S
H2299 C2274 0.950 . S
H2300 C2276 0.950 . S
H2301 C2277 0.949 . S
H2302 C2279 0.950 . S
H2303 C2281 0.950 . S
C2304 C2305 1.349 . S
C2304 C2306 1.327 . S
C2304 H2329 0.950 . S
C2305 C2304 1.349 . S
C2305 C2321 1.349 . S
C2306 C2304 1.327 . S
C2306 C2325 1.429 . S
C2306 H2330 0.950 . S
C2307 C2324 1.574 . S
C2307 C2326 1.368 . S
C2307 H2331 0.949 . S
H2308 C2312 0.949 . S
C2309 C2310 1.349 1_554 S
C2309 C2311 1.327 1_554 S
C2309 H2332 0.950 . S
C2310 C2309 1.349 1_556 S
C2310 C2322 1.349 . S
C2311 C2309 1.327 1_556 S
C2311 C2327 1.429 . S
C2311 H2333 0.950 1_556 S
C2312 H2308 0.949 . S
C2312 C2320 1.574 . S
C2312 C2328 1.368 . S
H2313 C2321 0.950 . S
H2314 C2319 0.950 . S
H2315 C2320 0.949 . S
H2316 C2322 0.950 . S
H2317 C2323 0.950 . S
H2318 C2324 0.949 . S
C2319 H2314 0.950 . S
C2319 C2321 1.327 . S
C2319 C2325 1.429 . S
C2320 C2312 1.574 . S
C2320 H2315 0.949 . S
C2320 C2326 1.368 . S
C2321 C2305 1.349 . S
C2321 H2313 0.950 . S
C2321 C2319 1.327 . S
C2322 C2310 1.349 . S
C2322 H2316 0.950 . S
C2322 C2323 1.327 . S
C2323 H2317 0.950 . S
C2323 C2322 1.327 . S
C2323 C2327 1.429 . S
C2324 C2307 1.574 . S
C2324 H2318 0.949 . S
C2324 C2328 1.368 . S
C2325 C2306 1.429 . S
C2325 C2319 1.429 . S
C2325 C2326 1.523 . S
C2326 C2307 1.368 . S
C2326 C2320 1.368 . S
C2326 C2325 1.523 . S
C2327 C2311 1.429 . S
C2327 C2323 1.429 . S
C2327 C2328 1.523 . S
C2328 C2312 1.368 . S
C2328 C2324 1.368 . S
C2328 C2327 1.523 . S
H2329 C2304 0.950 . S
H2330 C2306 0.950 . S
H2331 C2307 0.949 . S
H2332 C2309 0.950 . S
H2333 C2311 0.950 1_554 S
C2334 C2335 1.349 . S
C2334 C2336 1.327 . S
C2334 H2359 0.950 . S
C2335 C2334 1.349 . S
C2335 C2351 1.349 1_556 S
C2336 C2334 1.327 . S
C2336 C2355 1.429 . S
C2336 H2360 0.950 . S
C2337 C2354 1.574 . S
C2337 C2356 1.368 . S
C2337 H2361 0.949 . S
H2338 C2342 0.949 . S
C2339 C2340 1.349 . S
C2339 C2341 1.327 . S
C2339 H2362 0.950 . S
C2340 C2339 1.349 . S
C2340 C2352 1.349 . S
C2341 C2339 1.327 . S
C2341 C2357 1.429 . S
C2341 H2363 0.950 . S
C2342 H2338 0.949 . S
C2342 C2350 1.574 . S
C2342 C2358 1.368 . S
H2343 C2351 0.950 . S
H2344 C2349 0.950 1_554 S
H2345 C2350 0.949 . S
H2346 C2352 0.950 . S
H2347 C2353 0.950 . S
H2348 C2354 0.949 . S
C2349 H2344 0.950 1_556 S
C2349 C2351 1.327 1_556 S
C2349 C2355 1.429 . S
C2350 C2342 1.574 . S
C2350 H2345 0.949 . S
C2350 C2356 1.368 . S
C2351 C2335 1.349 1_554 S
C2351 H2343 0.950 . S
C2351 C2349 1.327 1_554 S
C2352 C2340 1.349 . S
C2352 H2346 0.950 . S
C2352 C2353 1.327 . S
C2353 H2347 0.950 . S
C2353 C2352 1.327 . S
C2353 C2357 1.429 . S
C2354 C2337 1.574 . S
C2354 H2348 0.949 . S
C2354 C2358 1.368 . S
C2355 C2336 1.429 . S
C2355 C2349 1.429 . S
C2355 C2356 1.523 . S
C2356 C2337 1.368 . S
C2356 C2350 1.368 . S
C2356 C2355 1.523 . S
C2357 C2341 1.429 . S
C2357 C2353 1.429 . S
C2357 C2358 1.523 . S
C2358 C2342 1.368 . S
C2358 C2354 1.368 . S
C2358 C2357 1.523 . S
H2359 C2334 0.950 . S
H2360 C2336 0.950 . S
H2361 C2337 0.949 . S
H2362 C2339 0.950 . S
H2363 C2341 0.950 . S
C2364 C2365 1.349 . S
C2364 C2366 1.327 . S
C2364 H2389 0.950 . S
C2365 C2364 1.349 . S
C2365 C2381 1.349 . S
C2366 C2364 1.327 . S
C2366 C2385 1.429 . S
C2366 H2390 0.950 . S
C2367 C2384 1.574 . S
C2367 C2386 1.368 . S
C2367 H2391 0.949 . S
H2368 C2372 0.949 . S
C2369 C2370 1.349 1_554 S
C2369 C2371 1.327 1_554 S
C2369 H2392 0.950 . S
C2370 C2369 1.349 1_556 S
C2370 C2382 1.349 . S
C2371 C2369 1.327 1_556 S
C2371 C2387 1.429 . S
C2371 H2393 0.950 1_556 S
C2372 H2368 0.949 . S
C2372 C2380 1.574 . S
C2372 C2388 1.368 . S
H2373 C2381 0.950 . S
H2374 C2379 0.950 . S
H2375 C2380 0.949 . S
H2376 C2382 0.950 . S
H2377 C2383 0.950 . S
H2378 C2384 0.949 . S
C2379 H2374 0.950 . S
C2379 C2381 1.327 . S
C2379 C2385 1.429 . S
C2380 C2372 1.574 . S
C2380 H2375 0.949 . S
C2380 C2386 1.368 . S
C2381 C2365 1.349 . S
C2381 H2373 0.950 . S
C2381 C2379 1.327 . S
C2382 C2370 1.349 . S
C2382 H2376 0.950 . S
C2382 C2383 1.327 . S
C2383 H2377 0.950 . S
C2383 C2382 1.327 . S
C2383 C2387 1.429 . S
C2384 C2367 1.574 . S
C2384 H2378 0.949 . S
C2384 C2388 1.368 . S
C2385 C2366 1.429 . S
C2385 C2379 1.429 . S
C2385 C2386 1.523 . S
C2386 C2367 1.368 . S
C2386 C2380 1.368 . S
C2386 C2385 1.523 . S
C2387 C2371 1.429 . S
C2387 C2383 1.429 . S
C2387 C2388 1.523 . S
C2388 C2372 1.368 . S
C2388 C2384 1.368 . S
C2388 C2387 1.523 . S
H2389 C2364 0.950 . S
H2390 C2366 0.950 . S
H2391 C2367 0.949 . S
H2392 C2369 0.950 . S
H2393 C2371 0.950 1_554 S
C2394 C2395 1.349 . S
C2394 C2396 1.327 . S
C2394 H2419 0.950 . S
C2395 C2394 1.349 . S
C2395 C2411 1.349 . S
C2396 C2394 1.327 . S
C2396 C2415 1.429 . S
C2396 H2420 0.950 . S
C2397 C2414 1.574 . S
C2397 C2416 1.368 . S
C2397 H2421 0.949 . S
H2398 C2402 0.949 . S
C2399 C2400 1.349 . S
C2399 C2401 1.327 . S
C2399 H2422 0.950 . S
C2400 C2399 1.349 . S
C2400 C2412 1.349 . S
C2401 C2399 1.327 . S
C2401 C2417 1.429 . S
C2401 H2423 0.950 . S
C2402 H2398 0.949 . S
C2402 C2410 1.574 . S
C2402 C2418 1.368 . S
H2403 C2411 0.950 . S
H2404 C2409 0.950 . S
H2405 C2410 0.949 . S
H2406 C2412 0.950 . S
H2407 C2413 0.950 . S
H2408 C2414 0.949 . S
C2409 H2404 0.950 . S
C2409 C2411 1.327 . S
C2409 C2415 1.429 . S
C2410 C2402 1.574 . S
C2410 H2405 0.949 . S
C2410 C2416 1.368 . S
C2411 C2395 1.349 . S
C2411 H2403 0.950 . S
C2411 C2409 1.327 . S
C2412 C2400 1.349 . S
C2412 H2406 0.950 . S
C2412 C2413 1.327 . S
C2413 H2407 0.950 . S
C2413 C2412 1.327 . S
C2413 C2417 1.429 . S
C2414 C2397 1.574 . S
C2414 H2408 0.949 . S
C2414 C2418 1.368 . S
C2415 C2396 1.429 . S
C2415 C2409 1.429 . S
C2415 C2416 1.523 . S
C2416 C2397 1.368 . S
C2416 C2410 1.368 . S
C2416 C2415 1.523 . S
C2417 C2401 1.429 . S
C2417 C2413 1.429 . S
C2417 C2418 1.523 . S
C2418 C2402 1.368 . S
C2418 C2414 1.368 . S
C2418 C2417 1.523 . S
H2419 C2394 0.950 . S
H2420 C2396 0.950 . S
H2421 C2397 0.949 . S
H2422 C2399 0.950 . S
H2423 C2401 0.950 . S
C2424 C2425 1.349 . S
C2424 C2426 1.327 . S
C2424 H2449 0.950 . S
C2425 C2424 1.349 . S
C2425 C2441 1.349 . S
C2426 C2424 1.327 . S
C2426 C2445 1.429 . S
C2426 H2450 0.950 . S
C2427 C2444 1.574 . S
C2427 C2446 1.368 . S
C2427 H2451 0.949 . S
H2428 C2432 0.949 . S
C2429 C2430 1.349 . S
C2429 C2431 1.327 . S
C2429 H2452 0.950 . S
C2430 C2429 1.349 . S
C2430 C2442 1.349 . S
C2431 C2429 1.327 . S
C2431 C2447 1.429 . S
C2431 H2453 0.950 . S
C2432 H2428 0.949 . S
C2432 C2440 1.574 . S
C2432 C2448 1.368 . S
H2433 C2441 0.950 . S
H2434 C2439 0.950 . S
H2435 C2440 0.949 . S
H2436 C2442 0.950 . S
H2437 C2443 0.950 . S
H2438 C2444 0.949 . S
C2439 H2434 0.950 . S
C2439 C2441 1.327 . S
C2439 C2445 1.429 . S
C2440 C2432 1.574 . S
C2440 H2435 0.949 . S
C2440 C2446 1.368 . S
C2441 C2425 1.349 . S
C2441 H2433 0.950 . S
C2441 C2439 1.327 . S
C2442 C2430 1.349 . S
C2442 H2436 0.950 . S
C2442 C2443 1.327 . S
C2443 H2437 0.950 . S
C2443 C2442 1.327 . S
C2443 C2447 1.429 . S
C2444 C2427 1.574 . S
C2444 H2438 0.949 . S
C2444 C2448 1.368 . S
C2445 C2426 1.429 . S
C2445 C2439 1.429 . S
C2445 C2446 1.523 . S
C2446 C2427 1.368 . S
C2446 C2440 1.368 . S
C2446 C2445 1.523 . S
C2447 C2431 1.429 . S
C2447 C2443 1.429 . S
C2447 C2448 1.523 . S
C2448 C2432 1.368 . S
C2448 C2444 1.368 . S
C2448 C2447 1.523 . S
H2449 C2424 0.950 . S
H2450 C2426 0.950 . S
H2451 C2427 0.949 . S
H2452 C2429 0.950 . S
H2453 C2431 0.950 . S
C2454 C2455 1.349 . S
C2454 C2456 1.327 . S
C2454 H2479 0.950 . S
C2455 C2454 1.349 . S
C2455 C2471 1.349 . S
C2456 C2454 1.327 . S
C2456 C2475 1.429 . S
C2456 H2480 0.950 . S
C2457 C2474 1.574 . S
C2457 C2476 1.368 . S
C2457 H2481 0.949 . S
H2458 C2462 0.949 . S
C2459 C2460 1.349 . S
C2459 C2461 1.327 . S
C2459 H2482 0.950 . S
C2460 C2459 1.349 . S
C2460 C2472 1.349 . S
C2461 C2459 1.327 . S
C2461 C2477 1.429 . S
C2461 H2483 0.950 . S
C2462 H2458 0.949 . S
C2462 C2470 1.574 . S
C2462 C2478 1.368 . S
H2463 C2471 0.950 . S
H2464 C2469 0.950 . S
H2465 C2470 0.949 . S
H2466 C2472 0.950 . S
H2467 C2473 0.950 . S
H2468 C2474 0.949 . S
C2469 H2464 0.950 . S
C2469 C2471 1.327 . S
C2469 C2475 1.429 . S
C2470 C2462 1.574 . S
C2470 H2465 0.949 . S
C2470 C2476 1.368 . S
C2471 C2455 1.349 . S
C2471 H2463 0.950 . S
C2471 C2469 1.327 . S
C2472 C2460 1.349 . S
C2472 H2466 0.950 . S
C2472 C2473 1.327 . S
C2473 H2467 0.950 . S
C2473 C2472 1.327 . S
C2473 C2477 1.429 . S
C2474 C2457 1.574 . S
C2474 H2468 0.949 . S
C2474 C2478 1.368 . S
C2475 C2456 1.429 . S
C2475 C2469 1.429 . S
C2475 C2476 1.523 . S
C2476 C2457 1.368 . S
C2476 C2470 1.368 . S
C2476 C2475 1.523 . S
C2477 C2461 1.429 . S
C2477 C2473 1.429 . S
C2477 C2478 1.523 . S
C2478 C2462 1.368 . S
C2478 C2474 1.368 . S
C2478 C2477 1.523 . S
H2479 C2454 0.950 . S
H2480 C2456 0.950 . S
H2481 C2457 0.949 . S
H2482 C2459 0.950 . S
H2483 C2461 0.950 . S
C2484 C2485 1.349 . S
C2484 C2486 1.327 . S
C2484 H2509 0.950 . S
C2485 C2484 1.349 . S
C2485 C2501 1.349 . S
C2486 C2484 1.327 . S
C2486 C2505 1.429 . S
C2486 H2510 0.950 . S
C2487 C2504 1.574 1_455 S
C2487 C2506 1.368 . S
C2487 H2511 0.949 . S
H2488 C2492 0.949 . S
C2489 C2490 1.349 . S
C2489 C2491 1.327 . S
C2489 H2512 0.950 . S
C2490 C2489 1.349 . S
C2490 C2502 1.349 . S
C2491 C2489 1.327 . S
C2491 C2507 1.429 . S
C2491 H2513 0.950 . S
C2492 H2488 0.949 . S
C2492 C2500 1.574 1_655 S
C2492 C2508 1.368 . S
H2493 C2501 0.950 . S
H2494 C2499 0.950 . S
H2495 C2500 0.949 . S
H2496 C2502 0.950 . S
H2497 C2503 0.950 . S
H2498 C2504 0.949 . S
C2499 H2494 0.950 . S
C2499 C2501 1.327 . S
C2499 C2505 1.429 . S
C2500 C2492 1.574 1_455 S
C2500 H2495 0.949 . S
C2500 C2506 1.368 . S
C2501 C2485 1.349 . S
C2501 H2493 0.950 . S
C2501 C2499 1.327 . S
C2502 C2490 1.349 . S
C2502 H2496 0.950 . S
C2502 C2503 1.327 . S
C2503 H2497 0.950 . S
C2503 C2502 1.327 . S
C2503 C2507 1.429 . S
C2504 C2487 1.574 1_655 S
C2504 H2498 0.949 . S
C2504 C2508 1.368 . S
C2505 C2486 1.429 . S
C2505 C2499 1.429 . S
C2505 C2506 1.523 . S
C2506 C2487 1.368 . S
C2506 C2500 1.368 . S
C2506 C2505 1.523 . S
C2507 C2491 1.429 . S
C2507 C2503 1.429 . S
C2507 C2508 1.523 . S
C2508 C2492 1.368 . S
C2508 C2504 1.368 . S
C2508 C2507 1.523 . S
H2509 C2484 0.950 . S
H2510 C2486 0.950 . S
H2511 C2487 0.949 . S
H2512 C2489 0.950 . S
H2513 C2491 0.950 . S
C2514 C2515 1.349 . S
C2514 C2516 1.327 . S
C2514 H2539 0.950 . S
C2515 C2514 1.349 . S
C2515 C2531 1.349 . S
C2516 C2514 1.327 . S
C2516 C2535 1.429 . S
C2516 H2540 0.950 . S
C2517 C2534 1.574 . S
C2517 C2536 1.368 . S
C2517 H2541 0.949 . S
H2518 C2522 0.949 . S
C2519 C2520 1.349 . S
C2519 C2521 1.327 . S
C2519 H2542 0.950 . S
C2520 C2519 1.349 . S
C2520 C2532 1.349 . S
C2521 C2519 1.327 . S
C2521 C2537 1.429 . S
C2521 H2543 0.950 . S
C2522 H2518 0.949 . S
C2522 C2530 1.574 . S
C2522 C2538 1.368 . S
H2523 C2531 0.950 . S
H2524 C2529 0.950 . S
H2525 C2530 0.949 . S
H2526 C2532 0.950 . S
H2527 C2533 0.950 . S
H2528 C2534 0.949 . S
C2529 H2524 0.950 . S
C2529 C2531 1.327 . S
C2529 C2535 1.429 . S
C2530 C2522 1.574 . S
C2530 H2525 0.949 . S
C2530 C2536 1.368 . S
C2531 C2515 1.349 . S
C2531 H2523 0.950 . S
C2531 C2529 1.327 . S
C2532 C2520 1.349 . S
C2532 H2526 0.950 . S
C2532 C2533 1.327 . S
C2533 H2527 0.950 . S
C2533 C2532 1.327 . S
C2533 C2537 1.429 . S
C2534 C2517 1.574 . S
C2534 H2528 0.949 . S
C2534 C2538 1.368 . S
C2535 C2516 1.429 . S
C2535 C2529 1.429 . S
C2535 C2536 1.523 . S
C2536 C2517 1.368 . S
C2536 C2530 1.368 . S
C2536 C2535 1.523 . S
C2537 C2521 1.429 . S
C2537 C2533 1.429 . S
C2537 C2538 1.523 . S
C2538 C2522 1.368 . S
C2538 C2534 1.368 . S
C2538 C2537 1.523 . S
H2539 C2514 0.950 . S
H2540 C2516 0.950 . S
H2541 C2517 0.949 . S
H2542 C2519 0.950 . S
H2543 C2521 0.950 . S
C2544 C2545 1.349 . S
C2544 C2546 1.327 . S
C2544 H2569 0.950 . S
C2545 C2544 1.349 . S
C2545 C2561 1.349 . S
C2546 C2544 1.327 . S
C2546 C2565 1.429 . S
C2546 H2570 0.950 . S
C2547 C2564 1.574 1_565 S
C2547 C2566 1.368 . S
C2547 H2571 0.949 . S
H2548 C2552 0.949 . S
C2549 C2550 1.349 . S
C2549 C2551 1.327 . S
C2549 H2572 0.950 . S
C2550 C2549 1.349 . S
C2550 C2562 1.349 . S
C2551 C2549 1.327 . S
C2551 C2567 1.429 . S
C2551 H2573 0.950 . S
C2552 H2548 0.949 . S
C2552 C2560 1.574 1_545 S
C2552 C2568 1.368 . S
H2553 C2561 0.950 . S
H2554 C2559 0.950 . S
H2555 C2560 0.949 . S
H2556 C2562 0.950 . S
H2557 C2563 0.950 . S
H2558 C2564 0.949 . S
C2559 H2554 0.950 . S
C2559 C2561 1.327 . S
C2559 C2565 1.429 . S
C2560 C2552 1.574 1_565 S
C2560 H2555 0.949 . S
C2560 C2566 1.368 . S
C2561 C2545 1.349 . S
C2561 H2553 0.950 . S
C2561 C2559 1.327 . S
C2562 C2550 1.349 . S
C2562 H2556 0.950 . S
C2562 C2563 1.327 . S
C2563 H2557 0.950 . S
C2563 C2562 1.327 . S
C2563 C2567 1.429 . S
C2564 C2547 1.574 1_545 S
C2564 H2558 0.949 . S
C2564 C2568 1.368 . S
C2565 C2546 1.429 . S
C2565 C2559 1.429 . S
C2565 C2566 1.523 . S
C2566 C2547 1.368 . S
C2566 C2560 1.368 . S
C2566 C2565 1.523 . S
C2567 C2551 1.429 . S
C2567 C2563 1.429 . S
C2567 C2568 1.523 . S
C2568 C2552 1.368 . S
C2568 C2564 1.368 . S
C2568 C2567 1.523 . S
H2569 C2544 0.950 . S
H2570 C2546 0.950 . S
H2571 C2547 0.949 . S
H2572 C2549 0.950 . S
H2573 C2551 0.950 . S
C2574 C2575 1.349 . S
C2574 C2576 1.327 . S
C2574 H2599 0.950 . S
C2575 C2574 1.349 . S
C2575 C2591 1.349 . S
C2576 C2574 1.327 . S
C2576 C2595 1.429 . S
C2576 H2600 0.950 . S
C2577 C2594 1.574 1_545 S
C2577 C2596 1.368 . S
C2577 H2601 0.949 . S
H2578 C2582 0.949 . S
C2579 C2580 1.349 . S
C2579 C2581 1.327 . S
C2579 H2602 0.950 . S
C2580 C2579 1.349 . S
C2580 C2592 1.349 . S
C2581 C2579 1.327 . S
C2581 C2597 1.429 . S
C2581 H2603 0.950 . S
C2582 H2578 0.949 . S
C2582 C2590 1.574 1_565 S
C2582 C2598 1.368 . S
H2583 C2591 0.950 . S
H2584 C2589 0.950 . S
H2585 C2590 0.949 . S
H2586 C2592 0.950 . S
H2587 C2593 0.950 . S
H2588 C2594 0.949 . S
C2589 H2584 0.950 . S
C2589 C2591 1.327 . S
C2589 C2595 1.429 . S
C2590 C2582 1.574 1_545 S
C2590 H2585 0.949 . S
C2590 C2596 1.368 . S
C2591 C2575 1.349 . S
C2591 H2583 0.950 . S
C2591 C2589 1.327 . S
C2592 C2580 1.349 . S
C2592 H2586 0.950 . S
C2592 C2593 1.327 . S
C2593 H2587 0.950 . S
C2593 C2592 1.327 . S
C2593 C2597 1.429 . S
C2594 C2577 1.574 1_565 S
C2594 H2588 0.949 . S
C2594 C2598 1.368 . S
C2595 C2576 1.429 . S
C2595 C2589 1.429 . S
C2595 C2596 1.523 . S
C2596 C2577 1.368 . S
C2596 C2590 1.368 . S
C2596 C2595 1.523 . S
C2597 C2581 1.429 . S
C2597 C2593 1.429 . S
C2597 C2598 1.523 . S
C2598 C2582 1.368 . S
C2598 C2594 1.368 . S
C2598 C2597 1.523 . S
H2599 C2574 0.950 . S
H2600 C2576 0.950 . S
H2601 C2577 0.949 . S
H2602 C2579 0.950 . S
H2603 C2581 0.950 . S
C2604 C2605 1.349 . S
C2604 C2606 1.327 . S
C2604 H2629 0.950 . S
C2605 C2604 1.349 . S
C2605 C2621 1.349 . S
C2606 C2604 1.327 . S
C2606 C2625 1.429 . S
C2606 H2630 0.950 . S
C2607 C2624 1.574 1_455 S
C2607 C2626 1.368 . S
C2607 H2631 0.949 . S
H2608 C2612 0.949 . S
C2609 C2610 1.349 . S
C2609 C2611 1.327 . S
C2609 H2632 0.950 . S
C2610 C2609 1.349 . S
C2610 C2622 1.349 . S
C2611 C2609 1.327 . S
C2611 C2627 1.429 . S
C2611 H2633 0.950 . S
C2612 H2608 0.949 . S
C2612 C2620 1.574 1_655 S
C2612 C2628 1.368 . S
H2613 C2621 0.950 . S
H2614 C2619 0.950 . S
H2615 C2620 0.949 . S
H2616 C2622 0.950 . S
H2617 C2623 0.950 . S
H2618 C2624 0.949 . S
C2619 H2614 0.950 . S
C2619 C2621 1.327 . S
C2619 C2625 1.429 . S
C2620 C2612 1.574 1_455 S
C2620 H2615 0.949 . S
C2620 C2626 1.368 . S
C2621 C2605 1.349 . S
C2621 H2613 0.950 . S
C2621 C2619 1.327 . S
C2622 C2610 1.349 . S
C2622 H2616 0.950 . S
C2622 C2623 1.327 . S
C2623 H2617 0.950 . S
C2623 C2622 1.327 . S
C2623 C2627 1.429 . S
C2624 C2607 1.574 1_655 S
C2624 H2618 0.949 . S
C2624 C2628 1.368 . S
C2625 C2606 1.429 . S
C2625 C2619 1.429 . S
C2625 C2626 1.523 . S
C2626 C2607 1.368 . S
C2626 C2620 1.368 . S
C2626 C2625 1.523 . S
C2627 C2611 1.429 . S
C2627 C2623 1.429 . S
C2627 C2628 1.523 . S
C2628 C2612 1.368 . S
C2628 C2624 1.368 . S
C2628 C2627 1.523 . S
H2629 C2604 0.950 . S
H2630 C2606 0.950 . S
H2631 C2607 0.949 . S
H2632 C2609 0.950 . S
H2633 C2611 0.950 . S
C2634 C2635 1.349 . S
C2634 C2636 1.327 . S
C2634 H2659 0.950 . S
C2635 C2634 1.349 . S
C2635 C2651 1.349 . S
C2636 C2634 1.327 . S
C2636 C2655 1.429 . S
C2636 H2660 0.950 . S
C2637 C2654 1.574 . S
C2637 C2656 1.368 . S
C2637 H2661 0.949 . S
H2638 C2642 0.949 . S
C2639 C2640 1.349 . S
C2639 C2641 1.327 . S
C2639 H2662 0.950 . S
C2640 C2639 1.349 . S
C2640 C2652 1.349 . S
C2641 C2639 1.327 . S
C2641 C2657 1.429 . S
C2641 H2663 0.950 . S
C2642 H2638 0.949 . S
C2642 C2650 1.574 . S
C2642 C2658 1.368 . S
H2643 C2651 0.950 . S
H2644 C2649 0.950 . S
H2645 C2650 0.949 . S
H2646 C2652 0.950 . S
H2647 C2653 0.950 . S
H2648 C2654 0.949 . S
C2649 H2644 0.950 . S
C2649 C2651 1.327 . S
C2649 C2655 1.429 . S
C2650 C2642 1.574 . S
C2650 H2645 0.949 . S
C2650 C2656 1.368 . S
C2651 C2635 1.349 . S
C2651 H2643 0.950 . S
C2651 C2649 1.327 . S
C2652 C2640 1.349 . S
C2652 H2646 0.950 . S
C2652 C2653 1.327 . S
C2653 H2647 0.950 . S
C2653 C2652 1.327 . S
C2653 C2657 1.429 . S
C2654 C2637 1.574 . S
C2654 H2648 0.949 . S
C2654 C2658 1.368 . S
C2655 C2636 1.429 . S
C2655 C2649 1.429 . S
C2655 C2656 1.523 . S
C2656 C2637 1.368 . S
C2656 C2650 1.368 . S
C2656 C2655 1.523 . S
C2657 C2641 1.429 . S
C2657 C2653 1.429 . S
C2657 C2658 1.523 . S
C2658 C2642 1.368 . S
C2658 C2654 1.368 . S
C2658 C2657 1.523 . S
H2659 C2634 0.950 . S
H2660 C2636 0.950 . S
H2661 C2637 0.949 . S
H2662 C2639 0.950 . S
H2663 C2641 0.950 . S
C505 C53 1.149 . S
C510 C11 1.149 . S
C535 C67 1.149 . S
C540 C25 1.149 . S
C565 C81 1.149 . S
C570 C39 1.149 . S
C595 C95 1.149 . S
C600 C137 1.149 . S
C625 C109 1.150 . S
C630 C151 1.149 . S
C655 C165 1.149 . S
C660 C123 1.149 . S
C685 C179 1.149 . S
C690 C221 1.149 . S
C715 C193 1.149 . S
C720 C235 1.149 . S
C745 C207 1.149 . S
C750 C249 1.149 . S
C775 C263 1.149 . S
C780 C305 1.149 . S
C805 C319 1.149 . S
C810 C277 1.149 . S
C835 C291 1.149 . S
C840 C333 1.149 . S
C865 C347 1.149 . S
C870 C389 1.149 . S
C895 C361 1.149 . S
C900 C403 1.149 . S
C925 C417 1.149 . S
C930 C375 1.149 . S
C955 C473 1.149 . S
C960 C431 1.149 . S
C985 C487 1.149 . S
C990 C445 1.149 . S
C1015 C501 1.149 . S
C1020 C459 1.149 . S
C1045 C167 1.140 . S
C1050 C8 1.189 . S
C1075 C22 1.189 . S
C1080 C139 1.139 . S
C1105 C36 1.189 . S
C1110 C153 1.139 . S
C1135 C111 1.139 . S
C1140 C50 1.189 . S
C1165 C64 1.189 . S
C1170 C125 1.139 . S
C1195 C97 1.139 . S
C1200 C78 1.188 . S
C1225 C92 1.189 . S
C1230 C83 1.140 . S
C1255 C106 1.189 . S
C1260 C55 1.139 . S
C1285 C69 1.139 . S
C1290 C120 1.189 . S
C1315 C27 1.139 . S
C1320 C134 1.189 . S
C1345 C41 1.139 . S
C1350 C148 1.189 . S
C1375 C162 1.188 . S
C1380 C13 1.139 . S
C1405 C176 1.189 . S
C1410 C335 1.139 . S
C1435 C307 1.139 . S
C1440 C190 1.189 . S
C1465 C321 1.139 . S
C1470 C204 1.189 . S
C1495 C218 1.188 . S
C1500 C279 1.139 . S
C1525 C293 1.139 . S
C1530 C232 1.189 . S
C1555 C246 1.189 . S
C1560 C265 1.139 . S
C1585 C260 1.189 . S
C1590 C251 1.139 . S
C1615 C274 1.189 . S
C1620 C223 1.139 . S
C1645 C237 1.139 . S
C1650 C288 1.189 . S
C1675 C195 1.139 . S
C1680 C302 1.189 . S
C1705 C209 1.139 . S
C1710 C316 1.189 . S
C1735 C330 1.189 . S
C1740 C181 1.139 . S
C1765 C503 1.139 . S
C1770 C344 1.189 . S
C1795 C358 1.189 . S
C1800 C475 1.139 . S
C1825 C372 1.189 . S
C1830 C489 1.139 . S
C1855 C386 1.189 . S
C1860 C447 1.139 . S
C1885 C461 1.139 . S
C1890 C400 1.189 . S
C1915 C414 1.189 . S
C1920 C433 1.139 . S
C1945 C419 1.139 . S
C1950 C428 1.189 . S
C1975 C391 1.139 . S
C1980 C442 1.189 . S
C2005 C405 1.139 . S
C2010 C456 1.189 . S
C2035 C363 1.139 . S
C2040 C470 1.188 . S
C2065 C377 1.139 . S
C2070 C484 1.189 . S
C2095 C349 1.139 . S
C2100 C498 1.189 . S
C2125 C413 1.379 . S
C2130 C7 1.379 . S
C2155 C21 1.379 . S
C2160 C385 1.379 . S
C2185 C399 1.379 . S
C2190 C35 1.379 . S
C2215 C49 1.379 . S
C2220 C189 1.379 . S
C2245 C203 1.379 . S
C2250 C63 1.379 . S
C2275 C77 1.379 . S
C2280 C175 1.379 . S
C2305 C91 1.379 . S
C2310 C329 1.379 . S
C2335 C301 1.379 . S
C2340 C105 1.379 . S
C2365 C119 1.379 . S
C2370 C315 1.379 . S
C2395 C133 1.379 . S
C2400 C441 1.379 . S
C2425 C147 1.379 . S
C2430 C455 1.379 . S
C2455 C427 1.379 . S
C2460 C161 1.379 . S
C2485 C357 1.379 . S
C2490 C217 1.379 . S
C2515 C371 1.379 . S
C2520 C231 1.379 . S
C2545 C343 1.379 . S
C2550 C245 1.379 . S
C2575 C259 1.379 . S
C2580 C497 1.379 . S
C2605 C469 1.379 . S
C2610 C273 1.379 . S
C2635 C287 1.379 . S
C2640 C483 1.379 . S
