# Generated by pormake.
# Topology umq, (4)-cn, num edge types: 1
# Building blocks:
#     Node 0, Type 0, BuildingBlock: GALJAG_clean_sbu_0, # of connection points: 4
#     Node 1, Type 0, BuildingBlock: GALJAG_clean_sbu_0, # of connection points: 4
#     Node 2, Type 0, BuildingBlock: GALJAG_clean_sbu_0, # of connection points: 4
#     Node 3, Type 0, BuildingBlock: GALJAG_clean_sbu_0, # of connection points: 4
#     Node 4, Type 0, BuildingBlock: GALJAG_clean_sbu_0, # of connection points: 4
#     Node 5, Type 0, BuildingBlock: GALJAG_clean_sbu_0, # of connection points: 4
#     Node 6, Type 0, BuildingBlock: GALJAG_clean_sbu_0, # of connection points: 4
#     Node 7, Type 0, BuildingBlock: GALJAG_clean_sbu_0, # of connection points: 4
#     Node 8, Type 0, BuildingBlock: GALJAG_clean_sbu_0, # of connection points: 4
#     Node 9, Type 0, BuildingBlock: GALJAG_clean_sbu_0, # of connection points: 4
#     Node 10, Type 0, BuildingBlock: GALJAG_clean_sbu_0, # of connection points: 4
#     Node 11, Type 0, BuildingBlock: GALJAG_clean_sbu_0, # of connection points: 4
#     Node 12, Type 0, BuildingBlock: GALJAG_clean_sbu_0, # of connection points: 4
#     Node 13, Type 0, BuildingBlock: GALJAG_clean_sbu_0, # of connection points: 4
#     Node 14, Type 0, BuildingBlock: GALJAG_clean_sbu_0, # of connection points: 4
#     Node 15, Type 0, BuildingBlock: GALJAG_clean_sbu_0, # of connection points: 4
#     Node 16, Type 0, BuildingBlock: GALJAG_clean_sbu_0, # of connection points: 4
#     Node 17, Type 0, BuildingBlock: GALJAG_clean_sbu_0, # of connection points: 4
#     Node 18, Type 0, BuildingBlock: GALJAG_clean_sbu_0, # of connection points: 4
#     Node 19, Type 0, BuildingBlock: GALJAG_clean_sbu_0, # of connection points: 4
#     Node 20, Type 0, BuildingBlock: GALJAG_clean_sbu_0, # of connection points: 4
#     Node 21, Type 0, BuildingBlock: GALJAG_clean_sbu_0, # of connection points: 4
#     Node 22, Type 0, BuildingBlock: GALJAG_clean_sbu_0, # of connection points: 4
#     Node 23, Type 0, BuildingBlock: GALJAG_clean_sbu_0, # of connection points: 4
#     Node 24, Type 0, BuildingBlock: GALJAG_clean_sbu_0, # of connection points: 4
#     Node 25, Type 0, BuildingBlock: GALJAG_clean_sbu_0, # of connection points: 4
#     Node 26, Type 0, BuildingBlock: GALJAG_clean_sbu_0, # of connection points: 4
#     Node 27, Type 0, BuildingBlock: GALJAG_clean_sbu_0, # of connection points: 4
#     Node 28, Type 0, BuildingBlock: GALJAG_clean_sbu_0, # of connection points: 4
#     Node 29, Type 0, BuildingBlock: GALJAG_clean_sbu_0, # of connection points: 4
#     Node 30, Type 0, BuildingBlock: GALJAG_clean_sbu_0, # of connection points: 4
#     Node 31, Type 0, BuildingBlock: GALJAG_clean_sbu_0, # of connection points: 4
#     Edge 32, Type (0, 0), BuildingBlock: OJICUG_clean_linker_0, # of connection points: 2
#     Edge 33, Type (0, 0), BuildingBlock: OJICUG_clean_linker_0, # of connection points: 2
#     Edge 34, Type (0, 0), BuildingBlock: OJICUG_clean_linker_0, # of connection points: 2
#     Edge 35, Type (0, 0), BuildingBlock: OJICUG_clean_linker_0, # of connection points: 2
#     Edge 36, Type (0, 0), BuildingBlock: OJICUG_clean_linker_0, # of connection points: 2
#     Edge 37, Type (0, 0), BuildingBlock: OJICUG_clean_linker_0, # of connection points: 2
#     Edge 38, Type (0, 0), BuildingBlock: OJICUG_clean_linker_0, # of connection points: 2
#     Edge 39, Type (0, 0), BuildingBlock: OJICUG_clean_linker_0, # of connection points: 2
#     Edge 40, Type (0, 0), BuildingBlock: OJICUG_clean_linker_0, # of connection points: 2
#     Edge 41, Type (0, 0), BuildingBlock: OJICUG_clean_linker_0, # of connection points: 2
#     Edge 42, Type (0, 0), BuildingBlock: OJICUG_clean_linker_0, # of connection points: 2
#     Edge 43, Type (0, 0), BuildingBlock: OJICUG_clean_linker_0, # of connection points: 2
#     Edge 44, Type (0, 0), BuildingBlock: OJICUG_clean_linker_0, # of connection points: 2
#     Edge 45, Type (0, 0), BuildingBlock: OJICUG_clean_linker_0, # of connection points: 2
#     Edge 46, Type (0, 0), BuildingBlock: OJICUG_clean_linker_0, # of connection points: 2
#     Edge 47, Type (0, 0), BuildingBlock: OJICUG_clean_linker_0, # of connection points: 2
#     Edge 48, Type (0, 0), BuildingBlock: OJICUG_clean_linker_0, # of connection points: 2
#     Edge 49, Type (0, 0), BuildingBlock: OJICUG_clean_linker_0, # of connection points: 2
#     Edge 50, Type (0, 0), BuildingBlock: OJICUG_clean_linker_0, # of connection points: 2
#     Edge 51, Type (0, 0), BuildingBlock: OJICUG_clean_linker_0, # of connection points: 2
#     Edge 52, Type (0, 0), BuildingBlock: OJICUG_clean_linker_0, # of connection points: 2
#     Edge 53, Type (0, 0), BuildingBlock: OJICUG_clean_linker_0, # of connection points: 2
#     Edge 54, Type (0, 0), BuildingBlock: OJICUG_clean_linker_0, # of connection points: 2
#     Edge 55, Type (0, 0), BuildingBlock: OJICUG_clean_linker_0, # of connection points: 2
#     Edge 56, Type (0, 0), BuildingBlock: OJICUG_clean_linker_0, # of connection points: 2
#     Edge 57, Type (0, 0), BuildingBlock: OJICUG_clean_linker_0, # of connection points: 2
#     Edge 58, Type (0, 0), BuildingBlock: OJICUG_clean_linker_0, # of connection points: 2
#     Edge 59, Type (0, 0), BuildingBlock: OJICUG_clean_linker_0, # of connection points: 2
#     Edge 60, Type (0, 0), BuildingBlock: OJICUG_clean_linker_0, # of connection points: 2
#     Edge 61, Type (0, 0), BuildingBlock: OJICUG_clean_linker_0, # of connection points: 2
#     Edge 62, Type (0, 0), BuildingBlock: OJICUG_clean_linker_0, # of connection points: 2
#     Edge 63, Type (0, 0), BuildingBlock: OJICUG_clean_linker_0, # of connection points: 2
#     Edge 64, Type (0, 0), BuildingBlock: OJICUG_clean_linker_0, # of connection points: 2
#     Edge 65, Type (0, 0), BuildingBlock: OJICUG_clean_linker_0, # of connection points: 2
#     Edge 66, Type (0, 0), BuildingBlock: OJICUG_clean_linker_0, # of connection points: 2
#     Edge 67, Type (0, 0), BuildingBlock: OJICUG_clean_linker_0, # of connection points: 2
#     Edge 68, Type (0, 0), BuildingBlock: OJICUG_clean_linker_0, # of connection points: 2
#     Edge 69, Type (0, 0), BuildingBlock: OJICUG_clean_linker_0, # of connection points: 2
#     Edge 70, Type (0, 0), BuildingBlock: OJICUG_clean_linker_0, # of connection points: 2
#     Edge 71, Type (0, 0), BuildingBlock: OJICUG_clean_linker_0, # of connection points: 2
#     Edge 72, Type (0, 0), BuildingBlock: OJICUG_clean_linker_0, # of connection points: 2
#     Edge 73, Type (0, 0), BuildingBlock: OJICUG_clean_linker_0, # of connection points: 2
#     Edge 74, Type (0, 0), BuildingBlock: OJICUG_clean_linker_0, # of connection points: 2
#     Edge 75, Type (0, 0), BuildingBlock: OJICUG_clean_linker_0, # of connection points: 2
#     Edge 76, Type (0, 0), BuildingBlock: OJICUG_clean_linker_0, # of connection points: 2
#     Edge 77, Type (0, 0), BuildingBlock: OJICUG_clean_linker_0, # of connection points: 2
#     Edge 78, Type (0, 0), BuildingBlock: OJICUG_clean_linker_0, # of connection points: 2
#     Edge 79, Type (0, 0), BuildingBlock: OJICUG_clean_linker_0, # of connection points: 2
#     Edge 80, Type (0, 0), BuildingBlock: OJICUG_clean_linker_0, # of connection points: 2
#     Edge 81, Type (0, 0), BuildingBlock: OJICUG_clean_linker_0, # of connection points: 2
#     Edge 82, Type (0, 0), BuildingBlock: OJICUG_clean_linker_0, # of connection points: 2
#     Edge 83, Type (0, 0), BuildingBlock: OJICUG_clean_linker_0, # of connection points: 2
#     Edge 84, Type (0, 0), BuildingBlock: OJICUG_clean_linker_0, # of connection points: 2
#     Edge 85, Type (0, 0), BuildingBlock: OJICUG_clean_linker_0, # of connection points: 2
#     Edge 86, Type (0, 0), BuildingBlock: OJICUG_clean_linker_0, # of connection points: 2
#     Edge 87, Type (0, 0), BuildingBlock: OJICUG_clean_linker_0, # of connection points: 2
#     Edge 88, Type (0, 0), BuildingBlock: OJICUG_clean_linker_0, # of connection points: 2
#     Edge 89, Type (0, 0), BuildingBlock: OJICUG_clean_linker_0, # of connection points: 2
#     Edge 90, Type (0, 0), BuildingBlock: OJICUG_clean_linker_0, # of connection points: 2
#     Edge 91, Type (0, 0), BuildingBlock: OJICUG_clean_linker_0, # of connection points: 2
#     Edge 92, Type (0, 0), BuildingBlock: OJICUG_clean_linker_0, # of connection points: 2
#     Edge 93, Type (0, 0), BuildingBlock: OJICUG_clean_linker_0, # of connection points: 2
#     Edge 94, Type (0, 0), BuildingBlock: OJICUG_clean_linker_0, # of connection points: 2
#     Edge 95, Type (0, 0), BuildingBlock: OJICUG_clean_linker_0, # of connection points: 2
# Relax obj value: 0.107
# Max RMSD: 0.085
# Mean RMSD: 0.085
data_MOF--net-umq--node1-GALJAG_clean_sbu_0--edge1-OJICUG_clean_linker_0
_symmetry_space_group_name_H-M    P1
_symmetry_Int_Tables_number       1
_symmetry_cell_setting            triclinic
loop_
_symmetry_equiv_pos_as_xyz
'x, y, z'
_cell_length_a     46.418436
_cell_length_b     46.410571
_cell_length_c     34.927149
_cell_angle_alpha  90.057439
_cell_angle_beta   90.021015
_cell_angle_gamma 89.967656
loop_
_atom_site_label
_atom_site_type_symbol
_atom_site_fract_x
_atom_site_fract_y
_atom_site_fract_z
_atom_type_partial_charge
In0 In 0.22927 0.09285 0.15746 0.0
O1 O 0.18912 0.12057 0.16658 0.0
O2 O 0.21517 0.11082 0.21498 0.0
C3 C 0.2212 0.07714 0.08347 0.0
C4 C 0.23054 0.04358 0.19802 0.0
C5 C 0.27259 0.13153 0.15343 0.0
O6 O 0.20166 0.08875 0.10327 0.0
O7 O 0.24431 0.0725 0.1014 0.0
O8 O 0.276 0.10668 0.1673 0.0
O9 O 0.24752 0.13667 0.14141 0.0
C10 C 0.1931 0.12337 0.20217 0.0
O11 O 0.25289 0.05809 0.19093 0.0
O12 O 0.20771 0.05317 0.18303 0.0
In13 In 0.89974 0.23089 0.15615 0.0
O14 O 0.87263 0.19055 0.16619 0.0
O15 O 0.88119 0.21787 0.21379 0.0
C16 C 0.91531 0.22133 0.08252 0.0
C17 C 0.94907 0.23198 0.1966 0.0
C18 C 0.86127 0.27439 0.15056 0.0
O19 O 0.90219 0.20285 0.10238 0.0
O20 O 0.92154 0.24418 0.10022 0.0
O21 O 0.88591 0.27781 0.1651 0.0
O22 O 0.85628 0.24926 0.13867 0.0
C23 C 0.86925 0.19529 0.20151 0.0
O24 O 0.93492 0.25448 0.18895 0.0
O25 O 0.93906 0.20908 0.18229 0.0
In26 In 0.76273 0.89968 0.15913 0.0
O27 O 0.73952 0.93462 0.19287 0.0
O28 O 0.7847 0.93916 0.18455 0.0
C29 C 0.71926 0.86126 0.15318 0.0
C30 C 0.79843 0.86909 0.20423 0.0
C31 C 0.77186 0.91547 0.0856 0.0
O32 O 0.71575 0.88597 0.16753 0.0
O33 O 0.74447 0.85617 0.14169 0.0
O34 O 0.79046 0.90225 0.10519 0.0
O35 O 0.7491 0.92163 0.10351 0.0
C36 C 0.76202 0.949 0.19966 0.0
O37 O 0.80317 0.87268 0.16895 0.0
O38 O 0.77579 0.88088 0.21658 0.0
In39 In 0.09344 0.76261 0.16012 0.0
O40 O 0.1203 0.80329 0.16939 0.0
O41 O 0.11186 0.77647 0.21746 0.0
C42 C 0.07755 0.7701 0.08622 0.0
C43 C 0.04413 0.76155 0.20055 0.0
C44 C 0.1324 0.71957 0.15529 0.0
O45 O 0.08952 0.7897 0.10557 0.0
O46 O 0.07266 0.74725 0.10457 0.0
O47 O 0.1077 0.71595 0.16954 0.0
O48 O 0.13727 0.74471 0.1434 0.0
C49 C 0.12367 0.79898 0.20481 0.0
O50 O 0.05893 0.73922 0.19425 0.0
O51 O 0.05352 0.78421 0.18495 0.0
In52 In 0.2304 0.90051 0.34698 0.0
O53 O 0.18966 0.87383 0.33739 0.0
O54 O 0.21717 0.88142 0.28974 0.0
C55 C 0.22233 0.91624 0.42091 0.0
C56 C 0.2312 0.9496 0.30598 0.0
C57 C 0.27368 0.86181 0.35211 0.0
O58 O 0.20307 0.9039 0.4014 0.0
O59 O 0.24514 0.92163 0.4027 0.0
O60 O 0.27725 0.88661 0.33814 0.0
O61 O 0.24847 0.85673 0.36361 0.0
C62 C 0.1944 0.86997 0.30214 0.0
O63 O 0.25366 0.93519 0.31292 0.0
O64 O 0.20853 0.94001 0.32134 0.0
In65 In 0.0929 0.23134 0.34448 0.0
O66 O 0.05855 0.25476 0.30996 0.0
O67 O 0.05309 0.2098 0.31929 0.0
C68 C 0.13191 0.27423 0.35018 0.0
C69 C 0.12307 0.19501 0.29963 0.0
C70 C 0.07688 0.22392 0.41834 0.0
O71 O 0.10727 0.27802 0.33578 0.0
O72 O 0.1367 0.24898 0.36176 0.0
O73 O 0.08938 0.20449 0.39928 0.0
O74 O 0.07152 0.24655 0.39972 0.0
C75 C 0.04379 0.23244 0.30353 0.0
O76 O 0.11879 0.19007 0.33474 0.0
O77 O 0.11224 0.21816 0.28742 0.0
In78 In 0.76374 0.09415 0.34539 0.0
O79 O 0.80465 0.12024 0.33472 0.0
O80 O 0.77583 0.11385 0.2881 0.0
C81 C 0.773 0.07863 0.41903 0.0
C82 C 0.76275 0.0448 0.30494 0.0
C83 C 0.72005 0.13228 0.35192 0.0
O84 O 0.79117 0.09265 0.39975 0.0
O85 O 0.7507 0.07149 0.40072 0.0
O86 O 0.71676 0.10778 0.33692 0.0
O87 O 0.74519 0.13736 0.36371 0.0
C88 C 0.7991 0.12473 0.29983 0.0
O89 O 0.74026 0.05901 0.31246 0.0
O90 O 0.78563 0.05482 0.31929 0.0
In91 In 0.89967 0.76289 0.34715 0.0
O92 O 0.873 0.80351 0.33708 0.0
O93 O 0.8806 0.77565 0.28973 0.0
C94 C 0.91523 0.77236 0.4208 0.0
C95 C 0.94898 0.76192 0.30668 0.0
C96 C 0.86121 0.71943 0.35252 0.0
O97 O 0.90193 0.79079 0.40105 0.0
O98 O 0.9216 0.74958 0.40301 0.0
O99 O 0.88588 0.71601 0.33809 0.0
O100 O 0.8562 0.74453 0.36451 0.0
C101 C 0.86912 0.79851 0.30191 0.0
O102 O 0.93497 0.73937 0.31447 0.0
O103 O 0.93882 0.7848 0.32084 0.0
In104 In 0.76295 0.90078 0.84747 0.0
O105 O 0.80772 0.88756 0.82568 0.0
O106 O 0.77111 0.86585 0.8033 0.0
C107 C 0.77265 0.91538 0.92139 0.0
C108 C 0.76 0.94859 0.80388 0.0
C109 C 0.71858 0.86413 0.85586 0.0
O110 O 0.78876 0.89833 0.90313 0.0
O111 O 0.75223 0.92577 0.90201 0.0
O112 O 0.7165 0.88703 0.83643 0.0
O113 O 0.74282 0.86014 0.87142 0.0
C114 C 0.79808 0.86861 0.80313 0.0
O115 O 0.73783 0.93454 0.81321 0.0
O116 O 0.78324 0.93902 0.8175 0.0
In117 In 0.09359 0.76194 0.84782 0.0
O118 O 0.05872 0.73839 0.81434 0.0
O119 O 0.05317 0.78329 0.82441 0.0
C120 C 0.13269 0.71903 0.85217 0.0
C121 C 0.12331 0.79829 0.80249 0.0
C122 C 0.07807 0.76956 0.92182 0.0
O123 O 0.10803 0.7154 0.83778 0.0
O124 O 0.13743 0.7441 0.86449 0.0
O125 O 0.08985 0.78917 0.90234 0.0
O126 O 0.07333 0.74658 0.90363 0.0
C127 C 0.04362 0.76064 0.80888 0.0
O128 O 0.12049 0.80253 0.83802 0.0
O129 O 0.11115 0.77589 0.79002 0.0
In130 In 0.22737 0.09397 0.84501 0.0
O131 O 0.18675 0.1211 0.83582 0.0
O132 O 0.2134 0.11233 0.78769 0.0
C133 C 0.22008 0.07792 0.91896 0.0
C134 C 0.22875 0.04455 0.80467 0.0
C135 C 0.27078 0.1325 0.84959 0.0
O136 O 0.20042 0.08997 0.89983 0.0
O137 O 0.24286 0.07308 0.90041 0.0
O138 O 0.27399 0.10787 0.83493 0.0
O139 O 0.2458 0.13758 0.86198 0.0
C140 C 0.19098 0.12433 0.80035 0.0
O141 O 0.251 0.05933 0.81134 0.0
O142 O 0.20592 0.05403 0.8198 0.0
In143 In 0.89788 0.23084 0.84496 0.0
O144 O 0.88499 0.18619 0.82252 0.0
O145 O 0.85944 0.22207 0.80618 0.0
C146 C 0.9137 0.22031 0.91831 0.0
C147 C 0.94474 0.23313 0.7993 0.0
C148 C 0.86367 0.27726 0.85329 0.0
O149 O 0.89546 0.20514 0.90071 0.0
O150 O 0.92473 0.24012 0.89851 0.0
O151 O 0.88403 0.27656 0.82926 0.0
O152 O 0.86084 0.25468 0.87309 0.0
C153 C 0.86373 0.19536 0.80362 0.0
O154 O 0.93256 0.25557 0.81179 0.0
O155 O 0.93384 0.20986 0.81081 0.0
In156 In 0.76067 0.0932 0.65702 0.0
O157 O 0.8048 0.10825 0.67877 0.0
O158 O 0.76734 0.12674 0.70363 0.0
C159 C 0.77171 0.07915 0.58327 0.0
C160 C 0.75883 0.04476 0.69945 0.0
C161 C 0.71546 0.12872 0.6472 0.0
O162 O 0.78694 0.09677 0.60189 0.0
O163 O 0.75148 0.06797 0.60219 0.0
O164 O 0.71365 0.10575 0.66651 0.0
O165 O 0.7399 0.1334 0.6326 0.0
C166 C 0.79443 0.12558 0.70299 0.0
O167 O 0.73634 0.05847 0.69048 0.0
O168 O 0.78184 0.05498 0.68601 0.0
In169 In 0.9006 0.76428 0.65899 0.0
O170 O 0.9345 0.73962 0.69342 0.0
O171 O 0.93812 0.78517 0.69017 0.0
C172 C 0.86454 0.7194 0.65034 0.0
C173 C 0.86805 0.79903 0.70328 0.0
C174 C 0.91528 0.77404 0.58509 0.0
O175 O 0.8878 0.71741 0.66902 0.0
O176 O 0.85984 0.74385 0.63574 0.0
O177 O 0.89789 0.78988 0.60317 0.0
O178 O 0.92605 0.75394 0.60468 0.0
C179 C 0.94794 0.76198 0.70361 0.0
O180 O 0.88654 0.80892 0.68028 0.0
O181 O 0.8659 0.77199 0.70351 0.0
In182 In 0.22978 0.89917 0.65929 0.0
O183 O 0.18915 0.87227 0.66895 0.0
O184 O 0.21651 0.88042 0.71663 0.0
C185 C 0.22208 0.91505 0.58538 0.0
C186 C 0.23011 0.94864 0.69955 0.0
C187 C 0.27331 0.8607 0.65454 0.0
O188 O 0.2028 0.90242 0.60448 0.0
O189 O 0.24474 0.92049 0.60392 0.0
O190 O 0.27655 0.88537 0.66911 0.0
O191 O 0.2483 0.85563 0.64225 0.0
C192 C 0.19383 0.86872 0.70428 0.0
O193 O 0.2527 0.93433 0.69296 0.0
O194 O 0.20753 0.93867 0.68435 0.0
In195 In 0.09154 0.23233 0.6571 0.0
O196 O 0.11766 0.19124 0.6671 0.0
O197 O 0.1089 0.21814 0.71501 0.0
C198 C 0.07662 0.22483 0.58282 0.0
C199 C 0.04124 0.23423 0.69533 0.0
C200 C 0.1311 0.27483 0.65302 0.0
O201 O 0.08815 0.20517 0.6025 0.0
O202 O 0.07183 0.24784 0.60093 0.0
O203 O 0.10634 0.27879 0.66694 0.0
O204 O 0.13571 0.24963 0.64104 0.0
C205 C 0.12065 0.19549 0.7026 0.0
O206 O 0.0569 0.25617 0.69077 0.0
O207 O 0.05043 0.21161 0.67933 0.0
In208 In 0.7335 0.59313 0.65794 0.0
O209 O 0.69343 0.6209 0.66784 0.0
O210 O 0.72009 0.61153 0.71571 0.0
C211 C 0.72481 0.57725 0.58424 0.0
C212 C 0.73457 0.54316 0.69701 0.0
C213 C 0.77716 0.63125 0.65163 0.0
O214 O 0.70558 0.58939 0.60408 0.0
O215 O 0.74793 0.57226 0.60199 0.0
O216 O 0.78026 0.60708 0.66761 0.0
O217 O 0.75222 0.63603 0.6389 0.0
C218 C 0.69785 0.62399 0.70328 0.0
O219 O 0.75683 0.55824 0.69173 0.0
O220 O 0.712 0.55276 0.68133 0.0
In221 In 0.40089 0.73044 0.65955 0.0
O222 O 0.37466 0.68944 0.66944 0.0
O223 O 0.38213 0.7172 0.71693 0.0
C224 C 0.41645 0.72276 0.58551 0.0
C225 C 0.45041 0.73134 0.69968 0.0
C226 C 0.36185 0.77344 0.65468 0.0
O227 O 0.40411 0.7034 0.60479 0.0
O228 O 0.42184 0.74549 0.60396 0.0
O229 O 0.38653 0.77711 0.66902 0.0
O230 O 0.35707 0.74829 0.64268 0.0
C231 C 0.37086 0.69427 0.70469 0.0
O232 O 0.43575 0.75375 0.69333 0.0
O233 O 0.44078 0.70869 0.68429 0.0
In234 In 0.26412 0.3993 0.65991 0.0
O235 O 0.24086 0.43425 0.69351 0.0
O236 O 0.28608 0.43873 0.68564 0.0
C237 C 0.22047 0.36108 0.65452 0.0
C238 C 0.29997 0.36881 0.70506 0.0
C239 C 0.27222 0.41512 0.58606 0.0
O240 O 0.21725 0.38578 0.66898 0.0
O241 O 0.24556 0.35581 0.64266 0.0
O242 O 0.2912 0.40204 0.60519 0.0
O243 O 0.24968 0.42108 0.60458 0.0
C244 C 0.26334 0.44856 0.70059 0.0
O245 O 0.30509 0.37299 0.66997 0.0
O246 O 0.27687 0.37987 0.7171 0.0
In247 In 0.59267 0.26203 0.65905 0.0
O248 O 0.55843 0.23752 0.69307 0.0
O249 O 0.55539 0.28314 0.69048 0.0
C250 C 0.62809 0.2168 0.64863 0.0
C251 C 0.62551 0.29607 0.70398 0.0
C252 C 0.57773 0.2729 0.58552 0.0
O253 O 0.60528 0.21499 0.66827 0.0
O254 O 0.63273 0.24128 0.63414 0.0
O255 O 0.59551 0.2882 0.60375 0.0
O256 O 0.56668 0.25279 0.60481 0.0
C257 C 0.54528 0.25998 0.7036 0.0
O258 O 0.60759 0.30628 0.68041 0.0
O259 O 0.62709 0.26899 0.70437 0.0
In260 In 0.73 0.39981 0.84659 0.0
O261 O 0.6855 0.38696 0.82359 0.0
O262 O 0.7215 0.36148 0.80752 0.0
C263 C 0.71904 0.41503 0.92008 0.0
C264 C 0.73252 0.44692 0.80142 0.0
C265 C 0.77639 0.36548 0.85448 0.0
O266 O 0.70402 0.39689 0.90208 0.0
O267 O 0.73894 0.42627 0.90061 0.0
O268 O 0.77569 0.38597 0.83065 0.0
O269 O 0.75386 0.36265 0.8744 0.0
C270 C 0.69481 0.36574 0.8047 0.0
O271 O 0.75488 0.43474 0.81412 0.0
O272 O 0.70919 0.43592 0.81251 0.0
In273 In 0.59539 0.73023 0.84585 0.0
O274 O 0.62296 0.68993 0.83621 0.0
O275 O 0.61546 0.71767 0.78885 0.0
C276 C 0.57872 0.72157 0.91928 0.0
C277 C 0.54618 0.73087 0.80502 0.0
C278 C 0.63265 0.77462 0.85275 0.0
O279 O 0.592 0.7027 0.90014 0.0
O280 O 0.57293 0.74422 0.90092 0.0
O281 O 0.60891 0.77696 0.83546 0.0
O282 O 0.63751 0.74999 0.86646 0.0
C283 C 0.62714 0.69496 0.80112 0.0
O284 O 0.5601 0.75346 0.81289 0.0
O285 O 0.55641 0.70803 0.81919 0.0
In286 In 0.26441 0.59304 0.84733 0.0
O287 O 0.24103 0.55833 0.8135 0.0
O288 O 0.28612 0.55323 0.82226 0.0
C289 C 0.2211 0.63171 0.85189 0.0
C290 C 0.30057 0.62339 0.80254 0.0
C291 C 0.272 0.5771 0.92123 0.0
O292 O 0.21773 0.60701 0.83751 0.0
O293 O 0.24615 0.63674 0.86408 0.0
O294 O 0.29157 0.58911 0.90192 0.0
O295 O 0.24914 0.57224 0.90286 0.0
C296 C 0.2634 0.54368 0.80693 0.0
O297 O 0.30481 0.62033 0.83804 0.0
O298 O 0.27824 0.61121 0.78989 0.0
In299 In 0.39982 0.26114 0.84801 0.0
O300 O 0.37269 0.30169 0.83876 0.0
O301 O 0.38306 0.27604 0.79019 0.0
C302 C 0.41544 0.26841 0.92205 0.0
C303 C 0.44979 0.2593 0.80915 0.0
C304 C 0.36018 0.21872 0.85157 0.0
O305 O 0.40429 0.28834 0.90246 0.0
O306 O 0.41949 0.24525 0.90396 0.0
O307 O 0.38487 0.21485 0.83737 0.0
O308 O 0.3557 0.24377 0.86414 0.0
C309 C 0.37045 0.29807 0.80303 0.0
O310 O 0.4344 0.23724 0.8144 0.0
O311 O 0.44054 0.28201 0.82486 0.0
In312 In 0.26353 0.40016 0.34767 0.0
O313 O 0.30424 0.37348 0.33779 0.0
O314 O 0.27656 0.38115 0.29031 0.0
C315 C 0.27182 0.4157 0.42163 0.0
C316 C 0.26267 0.44945 0.30718 0.0
C317 C 0.22008 0.36167 0.35234 0.0
O318 O 0.29091 0.4031 0.40211 0.0
O319 O 0.24906 0.42138 0.40344 0.0
O320 O 0.21672 0.38645 0.33823 0.0
O321 O 0.24516 0.3565 0.36431 0.0
C322 C 0.29938 0.36966 0.30256 0.0
O323 O 0.24017 0.43523 0.31445 0.0
O324 O 0.28545 0.43954 0.32192 0.0
In325 In 0.59341 0.26318 0.34768 0.0
O326 O 0.55817 0.23952 0.31515 0.0
O327 O 0.55423 0.28498 0.32116 0.0
C328 C 0.6318 0.21966 0.35351 0.0
C329 C 0.62391 0.29863 0.30211 0.0
C330 C 0.57768 0.27262 0.42127 0.0
O331 O 0.60726 0.21632 0.33867 0.0
O332 O 0.63675 0.24474 0.36562 0.0
O333 O 0.59129 0.29095 0.40175 0.0
O334 O 0.57109 0.25001 0.40326 0.0
C335 C 0.54412 0.26202 0.30717 0.0
O336 O 0.61996 0.30385 0.33722 0.0
O337 O 0.61253 0.27566 0.29018 0.0
In338 In 0.72991 0.5932 0.346 0.0
O339 O 0.68933 0.62033 0.33668 0.0
O340 O 0.71615 0.6116 0.28866 0.0
C341 C 0.72267 0.57707 0.41986 0.0
C342 C 0.73073 0.54396 0.30532 0.0
C343 C 0.77315 0.63187 0.35114 0.0
O344 O 0.7031 0.58942 0.40089 0.0
O345 O 0.74532 0.57193 0.40115 0.0
O346 O 0.77663 0.60721 0.33665 0.0
O347 O 0.74803 0.63686 0.36306 0.0
C348 C 0.69369 0.62358 0.30124 0.0
O349 O 0.75308 0.55874 0.31146 0.0
O350 O 0.70815 0.55333 0.32122 0.0
In351 In 0.40046 0.73086 0.3471 0.0
O352 O 0.37403 0.68996 0.33735 0.0
O353 O 0.38143 0.71764 0.28984 0.0
C354 C 0.41632 0.72295 0.421 0.0
C355 C 0.44956 0.73176 0.30616 0.0
C356 C 0.36166 0.77404 0.35225 0.0
O357 O 0.40386 0.70367 0.40165 0.0
O358 O 0.42171 0.7457 0.40268 0.0
O359 O 0.38644 0.77766 0.33823 0.0
O360 O 0.35665 0.74884 0.36382 0.0
C361 C 0.37013 0.69476 0.30212 0.0
O362 O 0.43506 0.75419 0.31301 0.0
O363 O 0.44005 0.70908 0.32155 0.0
In364 In 0.26374 0.59319 0.1595 0.0
O365 O 0.24031 0.5586 0.19342 0.0
O366 O 0.2854 0.55347 0.1848 0.0
C367 C 0.22047 0.63191 0.15479 0.0
C368 C 0.29983 0.62366 0.20433 0.0
C369 C 0.27161 0.57715 0.08566 0.0
O370 O 0.217 0.60716 0.16893 0.0
O371 O 0.24558 0.63694 0.14287 0.0
O372 O 0.29111 0.58914 0.10515 0.0
O373 O 0.24866 0.57234 0.10382 0.0
C374 C 0.26267 0.54398 0.20014 0.0
O375 O 0.3041 0.62052 0.16885 0.0
O376 O 0.2775 0.6115 0.21695 0.0
In377 In 0.39978 0.26194 0.16031 0.0
O378 O 0.37286 0.30263 0.16945 0.0
O379 O 0.38154 0.27597 0.21764 0.0
C380 C 0.41583 0.26913 0.08645 0.0
C381 C 0.44906 0.26098 0.20084 0.0
C382 C 0.36071 0.21905 0.15536 0.0
O383 O 0.40397 0.28888 0.10567 0.0
O384 O 0.42051 0.24628 0.1049 0.0
O385 O 0.38541 0.2153 0.1696 0.0
O386 O 0.3559 0.24424 0.14358 0.0
C387 C 0.36965 0.29843 0.20493 0.0
O388 O 0.43418 0.23866 0.19488 0.0
O389 O 0.43977 0.28354 0.18484 0.0
In390 In 0.72915 0.39982 0.15786 0.0
O391 O 0.68875 0.37287 0.16828 0.0
O392 O 0.71678 0.38065 0.21537 0.0
C393 C 0.71945 0.41558 0.08434 0.0
C394 C 0.73006 0.44904 0.19862 0.0
C395 C 0.77295 0.36176 0.15155 0.0
O396 O 0.70124 0.40188 0.10394 0.0
O397 O 0.74206 0.42228 0.10225 0.0
O398 O 0.7762 0.38634 0.16633 0.0
O399 O 0.74782 0.35659 0.1398 0.0
C400 C 0.69394 0.36904 0.20341 0.0
O401 O 0.7526 0.43505 0.19069 0.0
O402 O 0.70716 0.43892 0.18445 0.0
In403 In 0.59292 0.73005 0.15771 0.0
O404 O 0.61922 0.68911 0.16794 0.0
O405 O 0.61203 0.71724 0.21511 0.0
C406 C 0.57742 0.72162 0.08372 0.0
C407 C 0.54368 0.73124 0.19836 0.0
C408 C 0.63151 0.77339 0.15249 0.0
O409 O 0.59014 0.70262 0.10322 0.0
O410 O 0.57156 0.74434 0.10195 0.0
O411 O 0.60674 0.77691 0.16657 0.0
O412 O 0.63663 0.74819 0.1409 0.0
C413 C 0.62322 0.69419 0.20308 0.0
O414 O 0.55807 0.75363 0.19113 0.0
O415 O 0.55337 0.7084 0.18347 0.0
C416 C 0.34442 0.16854 0.16822 0.0
C417 C 0.33876 0.19612 0.15349 0.0
H418 H 0.32785 0.12631 0.17968 0.0
C419 C 0.31156 0.20194 0.13766 0.0
H420 H 0.36523 0.16346 0.18056 0.0
C421 C 0.29025 0.18076 0.13716 0.0
C422 C 0.2957 0.15333 0.15246 0.0
H423 H 0.30658 0.22299 0.12602 0.0
H424 H 0.26937 0.18602 0.12516 0.0
C425 C 0.32306 0.1473 0.16771 0.0
C426 C 0.8123 0.29194 0.13276 0.0
C427 C 0.83945 0.29747 0.14893 0.0
H428 H 0.77007 0.30799 0.12082 0.0
C429 C 0.84504 0.3248 0.16459 0.0
H430 H 0.80738 0.2711 0.12039 0.0
C431 C 0.8236 0.346 0.16484 0.0
C432 C 0.79625 0.34018 0.14943 0.0
H433 H 0.8658 0.32965 0.17721 0.0
H434 H 0.8283 0.36674 0.17764 0.0
C435 C 0.79093 0.31307 0.13301 0.0
C436 C 0.6806 0.79094 0.13535 0.0
C437 C 0.65327 0.79652 0.15091 0.0
H438 H 0.72281 0.80712 0.12377 0.0
C439 C 0.64735 0.82399 0.16592 0.0
H440 H 0.68576 0.76999 0.12349 0.0
C441 C 0.66864 0.84532 0.16608 0.0
C442 C 0.69616 0.83949 0.15123 0.0
H443 H 0.62644 0.82888 0.17806 0.0
H444 H 0.66368 0.86618 0.17834 0.0
C445 C 0.70182 0.81221 0.1355 0.0
C446 C 0.20287 0.68104 0.1378 0.0
C447 C 0.19736 0.65372 0.15338 0.0
H448 H 0.18659 0.72323 0.12613 0.0
C449 C 0.16995 0.64782 0.16849 0.0
H450 H 0.22379 0.6862 0.12589 0.0
C451 C 0.14859 0.66908 0.16863 0.0
C452 C 0.15432 0.69657 0.15366 0.0
H453 H 0.16511 0.62691 0.18065 0.0
H454 H 0.12775 0.66411 0.18089 0.0
C455 C 0.18157 0.70226 0.13794 0.0
C456 C 0.3243 0.84591 0.33903 0.0
C457 C 0.29678 0.84 0.35376 0.0
H458 H 0.36657 0.8296 0.32706 0.0
C459 C 0.29115 0.81265 0.36918 0.0
H460 H 0.32924 0.86683 0.327 0.0
C461 C 0.31243 0.79141 0.36923 0.0
C462 C 0.33979 0.79709 0.35384 0.0
H463 H 0.27014 0.80748 0.38082 0.0
H464 H 0.30731 0.77041 0.38088 0.0
C465 C 0.34565 0.82462 0.33907 0.0
C466 C 0.16957 0.34599 0.3382 0.0
C467 C 0.19691 0.33994 0.35348 0.0
H468 H 0.12742 0.32987 0.32523 0.0
C469 C 0.20232 0.31252 0.36884 0.0
H470 H 0.16481 0.36698 0.3262 0.0
C471 C 0.18099 0.29135 0.36827 0.0
C472 C 0.15383 0.29717 0.35233 0.0
H473 H 0.22317 0.30724 0.38087 0.0
H474 H 0.18594 0.27028 0.3799 0.0
C475 C 0.14819 0.32478 0.33763 0.0
C476 C 0.7021 0.18087 0.37092 0.0
C477 C 0.69677 0.15385 0.35426 0.0
H478 H 0.68565 0.2228 0.38387 0.0
C479 C 0.66942 0.14811 0.33881 0.0
H480 H 0.72296 0.18589 0.38315 0.0
C481 C 0.64799 0.16931 0.33923 0.0
C482 C 0.65359 0.19656 0.35511 0.0
H483 H 0.66471 0.12743 0.32584 0.0
H484 H 0.62723 0.16451 0.32656 0.0
C485 C 0.68073 0.20201 0.37135 0.0
C486 C 0.82373 0.6478 0.33798 0.0
C487 C 0.79628 0.65361 0.35308 0.0
H488 H 0.86597 0.66415 0.32606 0.0
C489 C 0.79078 0.68077 0.36926 0.0
H490 H 0.82857 0.62702 0.32538 0.0
C491 C 0.81211 0.70193 0.36967 0.0
C492 C 0.83938 0.69637 0.3539 0.0
H493 H 0.76985 0.68584 0.3812 0.0
H494 H 0.80707 0.72279 0.38189 0.0
C495 C 0.84512 0.66902 0.33838 0.0
C496 C 0.6694 0.84654 0.83788 0.0
C497 C 0.69543 0.8424 0.85766 0.0
H498 H 0.62897 0.82827 0.82089 0.0
C499 C 0.69995 0.81642 0.87738 0.0
H500 H 0.66534 0.86636 0.82243 0.0
C501 C 0.67925 0.79464 0.87637 0.0
C502 C 0.65358 0.79843 0.8557 0.0
H503 H 0.71979 0.81262 0.89292 0.0
H504 H 0.6836 0.77464 0.89126 0.0
C505 C 0.64862 0.82474 0.83695 0.0
C506 C 0.14913 0.66871 0.83815 0.0
C507 C 0.15472 0.69613 0.85352 0.0
H508 H 0.16584 0.62668 0.82564 0.0
C509 C 0.18192 0.70183 0.8694 0.0
H510 H 0.12832 0.66372 0.82576 0.0
C511 C 0.20332 0.68071 0.86932 0.0
C512 C 0.19794 0.65345 0.85338 0.0
H513 H 0.18684 0.72276 0.88151 0.0
H514 H 0.22419 0.68588 0.88138 0.0
C515 C 0.17057 0.64753 0.83808 0.0
C516 C 0.31064 0.20207 0.86811 0.0
C517 C 0.33785 0.19612 0.85239 0.0
H518 H 0.26814 0.18656 0.87959 0.0
C519 C 0.34316 0.16876 0.83666 0.0
H520 H 0.30593 0.22296 0.88048 0.0
C521 C 0.32146 0.14788 0.83614 0.0
C522 C 0.29412 0.15402 0.85134 0.0
H523 H 0.36395 0.16359 0.82437 0.0
H524 H 0.32601 0.12705 0.82347 0.0
C525 C 0.28899 0.18123 0.86759 0.0
C526 C 0.84487 0.32492 0.83062 0.0
C527 C 0.8432 0.30154 0.85606 0.0
H528 H 0.82501 0.36371 0.81028 0.0
C529 C 0.82065 0.30063 0.88282 0.0
H530 H 0.86206 0.32621 0.80973 0.0
C531 C 0.79952 0.32202 0.88314 0.0
C532 C 0.8005 0.34478 0.85671 0.0
H533 H 0.81886 0.28295 0.90291 0.0
H534 H 0.78198 0.32028 0.90346 0.0
C535 C 0.82368 0.34638 0.83094 0.0
C536 C 0.67437 0.19671 0.62399 0.0
C537 C 0.64895 0.19292 0.64519 0.0
H538 H 0.71522 0.17925 0.60782 0.0
C539 C 0.64458 0.16686 0.66478 0.0
H540 H 0.67828 0.21653 0.60847 0.0
C541 C 0.6658 0.14544 0.6644 0.0
C542 C 0.69171 0.14976 0.64442 0.0
H543 H 0.62515 0.16333 0.68128 0.0
H544 H 0.66226 0.12589 0.68063 0.0
C545 C 0.69553 0.17535 0.62361 0.0
C546 C 0.79563 0.67899 0.63005 0.0
C547 C 0.80044 0.65281 0.64913 0.0
H548 H 0.81226 0.72045 0.61521 0.0
C549 C 0.8272 0.64796 0.66678 0.0
H550 H 0.77525 0.68329 0.61604 0.0
C551 C 0.84846 0.66932 0.66635 0.0
C552 C 0.8433 0.69582 0.64816 0.0
H553 H 0.83151 0.62793 0.68162 0.0
H554 H 0.86867 0.66531 0.68092 0.0
C555 C 0.81685 0.70026 0.62952 0.0
C556 C 0.29124 0.81174 0.63711 0.0
C557 C 0.29655 0.83902 0.65304 0.0
H558 H 0.30778 0.76969 0.62507 0.0
C559 C 0.32389 0.84498 0.66838 0.0
H560 H 0.27039 0.80653 0.62501 0.0
C561 C 0.34537 0.82382 0.66841 0.0
C562 C 0.33984 0.79637 0.65311 0.0
H563 H 0.32858 0.86585 0.68081 0.0
H564 H 0.36615 0.82884 0.68086 0.0
C565 C 0.31266 0.79063 0.63715 0.0
C566 C 0.18064 0.29144 0.63641 0.0
C567 C 0.15338 0.29748 0.65189 0.0
H568 H 0.22318 0.30687 0.62504 0.0
C569 C 0.14797 0.32498 0.66712 0.0
H570 H 0.18542 0.27044 0.6244 0.0
C571 C 0.16965 0.34589 0.66749 0.0
C572 C 0.19708 0.33962 0.65263 0.0
H573 H 0.12713 0.33023 0.6792 0.0
H574 H 0.16505 0.3668 0.67985 0.0
C575 C 0.20227 0.3123 0.63677 0.0
C576 C 0.19431 0.0826 0.02162 0.0
C577 C 0.21868 0.07276 0.04163 0.0
H578 H 0.17551 0.09174 0.96688 0.0
C579 C 0.242 0.06145 0.02082 0.0
H580 H 0.17598 0.09138 0.03688 0.0
C581 C 0.24172 0.06165 0.98081 0.0
C582 C 0.21813 0.07317 0.96077 0.0
H583 H 0.26103 0.05359 0.03541 0.0
H584 H 0.26055 0.05392 0.96563 0.0
C585 C 0.19404 0.08281 0.98153 0.0
C586 C 0.90559 0.1953 0.98081 0.0
C587 C 0.91865 0.21763 0.95998 0.0
H588 H 0.89472 0.1787 0.03614 0.0
C589 C 0.93378 0.23917 0.97988 0.0
H590 H 0.89388 0.17833 0.96624 0.0
C591 C 0.93408 0.2395 0.01991 0.0
C592 C 0.91947 0.21816 0.04076 0.0
H593 H 0.94412 0.25664 0.9646 0.0
H594 H 0.94469 0.25717 0.03449 0.0
C595 C 0.9061 0.19549 0.02085 0.0
C596 C 0.79785 0.90698 0.98373 0.0
C597 C 0.77523 0.91983 0.96315 0.0
H598 H 0.81475 0.89591 0.03885 0.0
C599 C 0.75344 0.93438 0.98332 0.0
H600 H 0.81502 0.89573 0.96894 0.0
C601 C 0.75319 0.93435 0.02333 0.0
C602 C 0.77484 0.91994 0.04391 0.0
H603 H 0.73577 0.94457 0.96823 0.0
H604 H 0.73537 0.94454 0.0381 0.0
C605 C 0.79771 0.90712 0.02376 0.0
C606 C 0.08308 0.79621 0.9839 0.0
C607 C 0.0734 0.77192 0.96359 0.0
H608 H 0.09175 0.81482 0.0389 0.0
C609 C 0.06185 0.74857 0.98403 0.0
H610 H 0.09202 0.81457 0.96892 0.0
C611 C 0.06168 0.74872 0.02403 0.0
C612 C 0.07307 0.77222 0.0444 0.0
H613 H 0.05408 0.7296 0.96917 0.0
H614 H 0.05381 0.72986 0.03895 0.0
C615 C 0.08292 0.79636 0.02398 0.0
C616 C 0.24309 0.93232 0.48343 0.0
C617 C 0.21994 0.92053 0.46277 0.0
H618 H 0.26177 0.9401 0.53851 0.0
C619 C 0.19592 0.91009 0.48294 0.0
H620 H 0.26186 0.94065 0.4687 0.0
C621 C 0.19588 0.90975 0.52301 0.0
C622 C 0.21985 0.91987 0.54361 0.0
H623 H 0.17773 0.90093 0.4678 0.0
H624 H 0.17765 0.90036 0.53777 0.0
C625 C 0.24305 0.932 0.52344 0.0
C626 C 0.06067 0.24567 0.52035 0.0
C627 C 0.07225 0.22242 0.54099 0.0
H628 H 0.05273 0.2642 0.46526 0.0
C629 C 0.0822 0.19814 0.52085 0.0
H630 H 0.0527 0.26462 0.53506 0.0
C631 C 0.08223 0.1979 0.48078 0.0
C632 C 0.07229 0.22193 0.46016 0.0
H633 H 0.09117 0.17986 0.53599 0.0
H634 H 0.09125 0.17945 0.46601 0.0
C635 C 0.06067 0.24542 0.48034 0.0
C636 C 0.79724 0.08864 0.52145 0.0
C637 C 0.77502 0.07477 0.54157 0.0
H638 H 0.81428 0.10036 0.46666 0.0
C639 C 0.75424 0.05912 0.52098 0.0
H640 H 0.81363 0.10076 0.53657 0.0
C641 C 0.75453 0.05901 0.48096 0.0
C642 C 0.7757 0.07438 0.46081 0.0
H643 H 0.73691 0.04812 0.5357 0.0
H644 H 0.73743 0.04791 0.46585 0.0
C645 C 0.79763 0.08837 0.48142 0.0
C646 C 0.93443 0.7547 0.52329 0.0
C647 C 0.91965 0.77644 0.54329 0.0
H648 H 0.94473 0.73644 0.46864 0.0
C649 C 0.90646 0.79875 0.52252 0.0
H650 H 0.94486 0.73725 0.53851 0.0
C651 C 0.90654 0.79838 0.48249 0.0
C652 C 0.91964 0.77557 0.46251 0.0
H653 H 0.895 0.81586 0.53717 0.0
H654 H 0.8951 0.81519 0.46727 0.0
C655 C 0.93433 0.75421 0.48326 0.0
C656 C 0.69758 0.58266 0.52268 0.0
C657 C 0.72193 0.57259 0.54251 0.0
H658 H 0.67857 0.59175 0.46806 0.0
C659 C 0.74491 0.56073 0.52159 0.0
H660 H 0.6795 0.59184 0.53804 0.0
C661 C 0.74437 0.56066 0.48159 0.0
C662 C 0.72085 0.57246 0.46169 0.0
H663 H 0.76392 0.55267 0.53606 0.0
H664 H 0.76299 0.55255 0.46628 0.0
C665 C 0.69704 0.5826 0.4826 0.0
C666 C 0.41064 0.69659 0.48313 0.0
C667 C 0.42088 0.72062 0.46282 0.0
H668 H 0.40143 0.6783 0.53811 0.0
C669 C 0.43281 0.74379 0.4833 0.0
H670 H 0.40138 0.67837 0.46813 0.0
C671 C 0.43283 0.74375 0.52332 0.0
C672 C 0.42093 0.72053 0.54367 0.0
H673 H 0.44099 0.76257 0.46846 0.0
H674 H 0.44103 0.76249 0.53827 0.0
C675 C 0.41066 0.69655 0.52321 0.0
C676 C 0.25148 0.4325 0.48404 0.0
C677 C 0.27434 0.42009 0.46345 0.0
H678 H 0.23306 0.44095 0.53909 0.0
C679 C 0.29816 0.40919 0.48366 0.0
H680 H 0.23289 0.4412 0.46928 0.0
C681 C 0.29825 0.40903 0.52373 0.0
C682 C 0.27453 0.41978 0.54428 0.0
H683 H 0.31613 0.39955 0.46857 0.0
H684 H 0.31629 0.39927 0.53854 0.0
C685 C 0.25158 0.43236 0.52406 0.0
C686 C 0.55809 0.25453 0.52345 0.0
C687 C 0.57327 0.27581 0.54379 0.0
H688 H 0.54747 0.23693 0.46853 0.0
C689 C 0.58681 0.29807 0.52336 0.0
H690 H 0.54738 0.23713 0.53841 0.0
C691 C 0.5867 0.29805 0.48332 0.0
C692 C 0.57324 0.27564 0.46299 0.0
H693 H 0.59857 0.31483 0.53826 0.0
H694 H 0.59844 0.31477 0.46835 0.0
C695 C 0.55817 0.25439 0.48342 0.0
C696 C 0.69396 0.40605 0.98235 0.0
C697 C 0.71613 0.41965 0.9618 0.0
H698 H 0.67737 0.3945 0.03744 0.0
C699 C 0.73731 0.43503 0.98202 0.0
H700 H 0.67726 0.39413 0.96754 0.0
C701 C 0.73748 0.43508 0.02205 0.0
C702 C 0.71635 0.41994 0.04261 0.0
H703 H 0.75464 0.44579 0.96697 0.0
H704 H 0.7549 0.44592 0.03686 0.0
C705 C 0.694 0.40629 0.02239 0.0
C706 C 0.56071 0.74196 0.02127 0.0
C707 C 0.57314 0.71912 0.04185 0.0
H708 H 0.55243 0.76047 0.96625 0.0
C709 C 0.5842 0.69537 0.02161 0.0
H710 H 0.55189 0.7605 0.03605 0.0
C711 C 0.58452 0.69536 0.98153 0.0
C712 C 0.57377 0.71908 0.961 0.0
H713 H 0.59386 0.67741 0.03669 0.0
H714 H 0.59442 0.67739 0.96671 0.0
C715 C 0.56102 0.74194 0.98125 0.0
C716 C 0.29823 0.58231 0.02361 0.0
C717 C 0.27398 0.57251 0.04387 0.0
H718 H 0.31675 0.59122 0.96867 0.0
C719 C 0.25063 0.561 0.02333 0.0
H720 H 0.31658 0.59123 0.03866 0.0
C721 C 0.25073 0.56099 0.98333 0.0
C722 C 0.27418 0.57249 0.96303 0.0
H723 H 0.23169 0.55316 0.03813 0.0
H724 H 0.23186 0.55314 0.96834 0.0
C725 C 0.29832 0.5823 0.98353 0.0
C726 C 0.41095 0.29525 0.98407 0.0
C727 C 0.42012 0.27072 0.96383 0.0
H728 H 0.40263 0.31411 0.03901 0.0
C729 C 0.43114 0.24714 0.98434 0.0
H730 H 0.40243 0.31379 0.96902 0.0
C731 C 0.43129 0.24734 0.02434 0.0
C732 C 0.42039 0.27111 0.04463 0.0
H733 H 0.43851 0.22798 0.96955 0.0
H734 H 0.43875 0.22832 0.03932 0.0
C735 C 0.41107 0.29544 0.02414 0.0
C736 C 0.2569 0.00774 0.23834 0.0
C737 C 0.23072 0.01892 0.22466 0.0
H738 H 0.27756 0.97706 0.27498 0.0
C739 C 0.20471 0.00751 0.23849 0.0
H740 H 0.27728 0.01624 0.22833 0.0
C741 C 0.20488 0.98543 0.26565 0.0
C742 C 0.23105 0.97416 0.2792 0.0
H743 H 0.18421 0.01589 0.22871 0.0
H744 H 0.18449 0.97696 0.27569 0.0
C745 C 0.25706 0.98545 0.2652 0.0
C746 C 0.98559 0.25828 0.23595 0.0
C747 C 0.97387 0.23212 0.22303 0.0
H748 H 0.01689 0.27889 0.27175 0.0
C749 C 0.98497 0.2061 0.23731 0.0
H750 H 0.97734 0.27867 0.22557 0.0
C751 C 0.00726 0.20623 0.26419 0.0
C752 C 0.01907 0.23239 0.27698 0.0
H753 H 0.97618 0.18561 0.2281 0.0
H754 H 0.01547 0.18584 0.27459 0.0
C755 C 0.00809 0.25841 0.26253 0.0
C756 C 0.73638 0.00813 0.26598 0.0
C757 C 0.76257 0.01979 0.27886 0.0
H758 H 0.71568 0.97659 0.23064 0.0
C759 C 0.78856 0.00834 0.26497 0.0
H760 H 0.71601 0.01663 0.27607 0.0
C761 C 0.78837 0.98573 0.23854 0.0
C762 C 0.76218 0.97398 0.22579 0.0
H763 H 0.80907 0.01707 0.27417 0.0
H764 H 0.80874 0.97725 0.22843 0.0
C765 C 0.73619 0.98533 0.23983 0.0
C766 C 0.00729 0.78773 0.23943 0.0
C767 C 0.01925 0.76159 0.22681 0.0
H768 H 0.97598 0.80832 0.2752 0.0
C769 C 0.0083 0.73556 0.24121 0.0
H770 H 0.01547 0.80813 0.22905 0.0
C771 C 0.98568 0.73566 0.26759 0.0
C772 C 0.97382 0.76181 0.28036 0.0
H773 H 0.01721 0.71509 0.23212 0.0
H774 H 0.97747 0.71527 0.27796 0.0
C775 C 0.98487 0.78784 0.2661 0.0
C776 C 0.73301 0.98476 0.76441 0.0
C777 C 0.75928 0.97338 0.77751 0.0
H778 H 0.71221 0.01643 0.72924 0.0
C779 C 0.7852 0.98534 0.76427 0.0
H780 H 0.71271 0.97586 0.77408 0.0
C781 C 0.78492 0.00819 0.73842 0.0
C782 C 0.75871 0.01974 0.72546 0.0
H783 H 0.80579 0.97692 0.77368 0.0
H784 H 0.8053 0.01699 0.72887 0.0
C785 C 0.73273 0.00786 0.7387 0.0
C786 C 0.98446 0.73513 0.74246 0.0
C787 C 0.97232 0.76139 0.73068 0.0
H788 H 0.01662 0.71429 0.77668 0.0
C789 C 0.98314 0.78726 0.74584 0.0
H790 H 0.97643 0.71486 0.73135 0.0
C791 C 0.00579 0.78691 0.77211 0.0
C792 C 0.01825 0.76071 0.78347 0.0
H793 H 0.97405 0.80782 0.73749 0.0
H794 H 0.01386 0.80723 0.78299 0.0
C795 C 0.00735 0.7348 0.76849 0.0
C796 C 0.2035 0.98498 0.7388 0.0
C797 C 0.22976 0.97367 0.72561 0.0
H798 H 0.1826 0.01599 0.77478 0.0
C799 C 0.25568 0.98547 0.73918 0.0
H800 H 0.18318 0.97613 0.72906 0.0
C801 C 0.25535 0.0083 0.76528 0.0
C802 C 0.22909 0.01951 0.77863 0.0
H803 H 0.27625 0.97708 0.72964 0.0
H804 H 0.27566 0.01716 0.775 0.0
C805 C 0.20316 0.0076 0.76522 0.0
C806 C 0.979 0.20804 0.75554 0.0
C807 C 0.96912 0.23376 0.77222 0.0
H808 H 0.00926 0.18811 0.71768 0.0
C809 C 0.98239 0.25988 0.76225 0.0
H810 H 0.96905 0.18759 0.76247 0.0
C811 C 0.00552 0.26016 0.73658 0.0
C812 C 0.01556 0.23436 0.72021 0.0
H813 H 0.97511 0.28004 0.77455 0.0
H814 H 0.0157 0.28054 0.72985 0.0
C815 C 0.00191 0.20834 0.72969 0.0
C816 C 0.7601 0.50736 0.73855 0.0
C817 C 0.7344 0.51765 0.7222 0.0
H818 H 0.77968 0.47684 0.77656 0.0
C819 C 0.70824 0.50437 0.73189 0.0
H820 H 0.78058 0.51726 0.73167 0.0
C821 C 0.70771 0.48152 0.75783 0.0
C822 C 0.73334 0.47136 0.77443 0.0
H823 H 0.68808 0.51191 0.71991 0.0
H824 H 0.68716 0.47181 0.76486 0.0
C825 C 0.75959 0.48433 0.76434 0.0
C826 C 0.50935 0.75712 0.76618 0.0
C827 C 0.52123 0.73096 0.77882 0.0
H828 H 0.47765 0.77774 0.73106 0.0
C829 C 0.51004 0.70494 0.76464 0.0
H830 H 0.51765 0.77751 0.7765 0.0
C831 C 0.48744 0.70509 0.7382 0.0
C832 C 0.47545 0.73125 0.72573 0.0
H833 H 0.51894 0.68446 0.77365 0.0
H834 H 0.47914 0.6847 0.72789 0.0
C835 C 0.48657 0.75726 0.74003 0.0
C836 C 0.23728 0.48503 0.74025 0.0
C837 C 0.26337 0.4734 0.72696 0.0
H838 H 0.21685 0.51638 0.77615 0.0
C839 C 0.28947 0.48465 0.74077 0.0
H840 H 0.21684 0.47666 0.73023 0.0
C841 C 0.28947 0.50706 0.76751 0.0
C842 C 0.26338 0.5188 0.78063 0.0
H843 H 0.30991 0.47593 0.73127 0.0
H844 H 0.30992 0.51542 0.77754 0.0
C845 C 0.23729 0.50763 0.76668 0.0
C846 C 0.48797 0.28525 0.77267 0.0
C847 C 0.47514 0.25916 0.78369 0.0
H848 H 0.51993 0.30593 0.73826 0.0
C849 C 0.48563 0.2332 0.7683 0.0
H850 H 0.48023 0.3056 0.78388 0.0
C851 C 0.50846 0.23338 0.74219 0.0
C852 C 0.52095 0.25953 0.73074 0.0
H853 H 0.47606 0.21277 0.77622 0.0
H854 H 0.51616 0.21308 0.73076 0.0
C855 C 0.51056 0.28544 0.74633 0.0
C856 C 0.28875 0.50756 0.2398 0.0
C857 C 0.26265 0.51926 0.22664 0.0
H858 H 0.3092 0.47661 0.27623 0.0
C859 C 0.23657 0.50823 0.24076 0.0
H860 H 0.30919 0.51581 0.22965 0.0
C861 C 0.23658 0.48579 0.26739 0.0
C862 C 0.26267 0.47419 0.28069 0.0
H863 H 0.21613 0.51695 0.23127 0.0
H864 H 0.21614 0.47751 0.27752 0.0
C865 C 0.28876 0.48532 0.26672 0.0
C866 C 0.5074 0.23552 0.26843 0.0
C867 C 0.51928 0.26175 0.28083 0.0
H868 H 0.47586 0.21472 0.23321 0.0
C869 C 0.50828 0.28768 0.26615 0.0
H870 H 0.51557 0.2152 0.27913 0.0
C871 C 0.48589 0.28739 0.23942 0.0
C872 C 0.4739 0.26117 0.22718 0.0
H873 H 0.5172 0.30822 0.27495 0.0
H874 H 0.47775 0.30773 0.22871 0.0
C875 C 0.4848 0.23524 0.242 0.0
C876 C 0.70441 0.50718 0.26647 0.0
C877 C 0.73058 0.51913 0.27892 0.0
H878 H 0.68372 0.47592 0.23069 0.0
C879 C 0.75656 0.50823 0.26421 0.0
H880 H 0.68404 0.51532 0.27709 0.0
C881 C 0.75637 0.48568 0.23769 0.0
C882 C 0.7302 0.47383 0.22508 0.0
H883 H 0.77705 0.51715 0.27316 0.0
H884 H 0.77673 0.47753 0.22708 0.0
C885 C 0.70421 0.48482 0.23965 0.0
C886 C 0.48561 0.70549 0.26606 0.0
C887 C 0.47417 0.73166 0.27943 0.0
H888 H 0.51624 0.68486 0.22929 0.0
C889 C 0.48534 0.75768 0.26531 0.0
H890 H 0.47724 0.68509 0.27619 0.0
C891 C 0.50767 0.75755 0.2385 0.0
C892 C 0.51902 0.73138 0.225 0.0
H893 H 0.47682 0.77817 0.27496 0.0
H894 H 0.51606 0.77794 0.22839 0.0
C895 C 0.50773 0.70535 0.23895 0.0
C896 C 0.15521 0.16102 0.21101 0.0
C897 C 0.17406 0.14065 0.22695 0.0
H898 H 0.12447 0.19449 0.22173 0.0
C899 C 0.17528 0.13754 0.26693 0.0
H900 H 0.1539 0.16387 0.18029 0.0
C901 C 0.15816 0.15473 0.29062 0.0
C902 C 0.13992 0.17567 0.27473 0.0
H903 H 0.18958 0.12188 0.27993 0.0
H904 H 0.15968 0.15208 0.32136 0.0
C905 C 0.13847 0.17857 0.23473 0.0
C906 C 0.83215 0.15702 0.21083 0.0
C907 C 0.85218 0.17633 0.22654 0.0
H908 H 0.7993 0.12573 0.22193 0.0
C909 C 0.85528 0.17794 0.2665 0.0
H910 H 0.82931 0.15542 0.18012 0.0
C911 C 0.83849 0.16064 0.29039 0.0
C912 C 0.81792 0.14187 0.27471 0.0
H913 H 0.87069 0.1926 0.27931 0.0
H914 H 0.84117 0.16241 0.3211 0.0
C915 C 0.81495 0.14013 0.23474 0.0
C916 C 0.83284 0.83764 0.29285 0.0
C917 C 0.85196 0.81747 0.27697 0.0
H918 H 0.80059 0.86964 0.28207 0.0
C919 C 0.85402 0.81502 0.23697 0.0
H920 H 0.83083 0.83991 0.3236 0.0
C921 C 0.83709 0.83232 0.21322 0.0
C922 C 0.81743 0.85195 0.22912 0.0
H923 H 0.8687 0.79968 0.22402 0.0
H924 H 0.83893 0.82988 0.18248 0.0
C925 C 0.81552 0.85455 0.26911 0.0
C926 C 0.15512 0.83382 0.29327 0.0
C927 C 0.17528 0.85285 0.2773 0.0
H928 H 0.12312 0.80156 0.28265 0.0
C929 C 0.17762 0.85482 0.23728 0.0
H930 H 0.15291 0.83188 0.32402 0.0
C931 C 0.16029 0.83784 0.2136 0.0
C932 C 0.14072 0.81822 0.22959 0.0
H933 H 0.19294 0.86944 0.22424 0.0
H934 H 0.1627 0.83957 0.18285 0.0
C935 C 0.13816 0.81646 0.2696 0.0
C936 C 0.82385 0.8069 0.74197 0.0
C937 C 0.85033 0.8173 0.72841 0.0
H938 H 0.78643 0.81532 0.77591 0.0
C939 C 0.85984 0.8447 0.73994 0.0
H940 H 0.81606 0.78584 0.73349 0.0
C941 C 0.8432 0.86128 0.76511 0.0
C942 C 0.81652 0.85097 0.77815 0.0
H943 H 0.8803 0.85306 0.73001 0.0
H944 H 0.85091 0.88233 0.77379 0.0
C945 C 0.80693 0.82374 0.7662 0.0
C946 C 0.17721 0.85391 0.7693 0.0
C947 C 0.17473 0.85175 0.7293 0.0
H948 H 0.16249 0.83895 0.82391 0.0
C949 C 0.15446 0.83269 0.71357 0.0
H950 H 0.19261 0.86855 0.78218 0.0
C951 C 0.13754 0.81547 0.73745 0.0
C952 C 0.14025 0.81741 0.77745 0.0
H953 H 0.15213 0.83059 0.68284 0.0
H954 H 0.12242 0.80055 0.72458 0.0
C955 C 0.15994 0.83707 0.79318 0.0
C956 C 0.15648 0.1559 0.71176 0.0
C957 C 0.13741 0.17614 0.72761 0.0
H958 H 0.18862 0.1238 0.72252 0.0
C959 C 0.13524 0.17843 0.76763 0.0
H960 H 0.1586 0.15372 0.68101 0.0
C961 C 0.1521 0.16103 0.7914 0.0
C962 C 0.17179 0.14142 0.77552 0.0
H963 H 0.12061 0.19381 0.7806 0.0
H964 H 0.15024 0.16344 0.82215 0.0
C965 C 0.17369 0.13887 0.73551 0.0
C966 C 0.85706 0.15119 0.76352 0.0
C967 C 0.84586 0.17677 0.77904 0.0
H968 H 0.84965 0.11512 0.72627 0.0
C969 C 0.81774 0.18526 0.76953 0.0
H970 H 0.87879 0.14433 0.77024 0.0
C971 C 0.80099 0.16839 0.74507 0.0
C972 C 0.81233 0.14311 0.7289 0.0
H973 H 0.80863 0.20492 0.78114 0.0
H974 H 0.7793 0.17538 0.73834 0.0
C975 C 0.84052 0.13464 0.73821 0.0
C976 C 0.6595 0.66118 0.71241 0.0
C977 C 0.67896 0.64134 0.72826 0.0
H978 H 0.62805 0.69398 0.72321 0.0
C979 C 0.68076 0.63871 0.76827 0.0
H980 H 0.65772 0.66367 0.68168 0.0
C981 C 0.66348 0.65573 0.79205 0.0
C982 C 0.64451 0.67604 0.7762 0.0
H983 H 0.69554 0.6235 0.78124 0.0
H984 H 0.66538 0.65338 0.82279 0.0
C985 C 0.64261 0.67856 0.73618 0.0
C986 C 0.339 0.66043 0.7935 0.0
C987 C 0.31966 0.64047 0.77766 0.0
H988 H 0.3702 0.6934 0.78262 0.0
C989 C 0.31803 0.63757 0.73767 0.0
H990 H 0.34063 0.66312 0.82423 0.0
C991 C 0.33523 0.65455 0.71388 0.0
C992 C 0.35396 0.67509 0.72969 0.0
H993 H 0.30336 0.62223 0.72473 0.0
H994 H 0.33337 0.65207 0.68314 0.0
C995 C 0.35582 0.67778 0.76969 0.0
C996 C 0.33308 0.3362 0.79393 0.0
C997 C 0.35357 0.31739 0.77816 0.0
H998 H 0.29977 0.36705 0.78296 0.0
C999 C 0.35708 0.31637 0.73822 0.0
H1000 H 0.32992 0.33735 0.82461 0.0
C1001 C 0.34014 0.33363 0.7144 0.0
C1002 C 0.31906 0.35182 0.73012 0.0
H1003 H 0.37283 0.3021 0.72534 0.0
H1004 H 0.34308 0.33225 0.6837 0.0
C1005 C 0.3158 0.35309 0.77008 0.0
C1006 C 0.63433 0.34224 0.73916 0.0
C1007 C 0.64302 0.31413 0.72969 0.0
H1008 H 0.64369 0.38051 0.77137 0.0
C1009 C 0.66842 0.30298 0.74573 0.0
H1010 H 0.6147 0.35122 0.72734 0.0
C1011 C 0.68515 0.31981 0.77025 0.0
C1012 C 0.67641 0.34783 0.77995 0.0
H1013 H 0.67558 0.28135 0.7389 0.0
H1014 H 0.70487 0.31083 0.7818 0.0
C1015 C 0.65074 0.35886 0.76451 0.0
C1016 C 0.35562 0.31622 0.26973 0.0
C1017 C 0.35272 0.31775 0.22974 0.0
H1018 H 0.34126 0.33187 0.3242 0.0
C1019 C 0.33292 0.33721 0.21383 0.0
H1020 H 0.37085 0.30146 0.2827 0.0
C1021 C 0.3157 0.35426 0.23759 0.0
C1022 C 0.31839 0.35251 0.2776 0.0
H1023 H 0.33024 0.33877 0.1831 0.0
H1024 H 0.3002 0.36875 0.22463 0.0
C1025 C 0.33879 0.33365 0.29346 0.0
C1026 C 0.63861 0.31501 0.23696 0.0
C1027 C 0.64096 0.3175 0.27693 0.0
H1028 H 0.65329 0.32981 0.18225 0.0
C1029 C 0.66022 0.33764 0.29254 0.0
H1030 H 0.62382 0.29969 0.22421 0.0
C1031 C 0.67739 0.35449 0.26855 0.0
C1032 C 0.67516 0.35187 0.22858 0.0
H1033 H 0.66246 0.33994 0.32326 0.0
H1034 H 0.69243 0.36956 0.28129 0.0
C1035 C 0.65537 0.33226 0.21297 0.0
C1036 C 0.65528 0.6607 0.29208 0.0
C1037 C 0.67455 0.64062 0.27632 0.0
H1038 H 0.62411 0.69371 0.28104 0.0
C1039 C 0.67609 0.63755 0.23635 0.0
H1040 H 0.65373 0.66351 0.32279 0.0
C1041 C 0.65885 0.65447 0.21249 0.0
C1042 C 0.64019 0.67513 0.2282 0.0
H1043 H 0.6907 0.62211 0.22348 0.0
H1044 H 0.66062 0.65184 0.18176 0.0
C1045 C 0.63844 0.678 0.26819 0.0
C1046 C 0.33824 0.66073 0.21335 0.0
C1047 C 0.31889 0.64082 0.22921 0.0
H1048 H 0.36946 0.69371 0.2242 0.0
C1049 C 0.31723 0.63804 0.26921 0.0
H1050 H 0.33989 0.66332 0.18262 0.0
C1051 C 0.33443 0.65508 0.29299 0.0
C1052 C 0.35318 0.67556 0.27715 0.0
H1053 H 0.30255 0.62274 0.28215 0.0
H1054 H 0.33257 0.65269 0.32372 0.0
C1055 C 0.35505 0.67814 0.23715 0.0
loop_
_geom_bond_atom_site_label_1
_geom_bond_atom_site_label_2
_geom_bond_distance
_geom_bond_site_symmetry_2
_ccdc_geom_bond_type
In0 O1 2.294 . S
In0 O2 2.326 . S
In0 O6 2.266 . S
In0 O7 2.326 . S
In0 O8 2.266 . S
In0 O9 2.326 . S
In0 O11 2.294 . S
In0 O12 2.326 . S
O1 In0 2.294 . S
O1 C10 1.240 . S
O2 In0 2.326 . S
O2 C10 1.252 . S
C3 O6 1.252 . S
C3 O7 1.260 . S
C4 O11 1.240 . S
C4 O12 1.252 . S
C5 O8 1.252 . S
C5 O9 1.260 . S
O6 In0 2.266 . S
O6 C3 1.252 . S
O7 In0 2.326 . S
O7 C3 1.260 . S
O8 In0 2.266 . S
O8 C5 1.252 . S
O9 In0 2.326 . S
O9 C5 1.260 . S
C10 O1 1.240 . S
C10 O2 1.252 . S
O11 In0 2.294 . S
O11 C4 1.240 . S
O12 In0 2.326 . S
O12 C4 1.252 . S
In13 O14 2.294 . S
In13 O15 2.326 . S
In13 O19 2.266 . S
In13 O20 2.326 . S
In13 O21 2.266 . S
In13 O22 2.326 . S
In13 O24 2.294 . S
In13 O25 2.326 . S
O14 In13 2.294 . S
O14 C23 1.240 . S
O15 In13 2.326 . S
O15 C23 1.252 . S
C16 O19 1.252 . S
C16 O20 1.260 . S
C17 O24 1.240 . S
C17 O25 1.252 . S
C18 O21 1.252 . S
C18 O22 1.260 . S
O19 In13 2.266 . S
O19 C16 1.252 . S
O20 In13 2.326 . S
O20 C16 1.260 . S
O21 In13 2.266 . S
O21 C18 1.252 . S
O22 In13 2.326 . S
O22 C18 1.260 . S
C23 O14 1.240 . S
C23 O15 1.252 . S
O24 In13 2.294 . S
O24 C17 1.240 . S
O25 In13 2.326 . S
O25 C17 1.252 . S
In26 O27 2.294 . S
In26 O28 2.326 . S
In26 O32 2.266 . S
In26 O33 2.326 . S
In26 O34 2.266 . S
In26 O35 2.326 . S
In26 O37 2.294 . S
In26 O38 2.326 . S
O27 In26 2.294 . S
O27 C36 1.240 . S
O28 In26 2.326 . S
O28 C36 1.252 . S
C29 O32 1.252 . S
C29 O33 1.260 . S
C30 O37 1.240 . S
C30 O38 1.252 . S
C31 O34 1.252 . S
C31 O35 1.260 . S
O32 In26 2.266 . S
O32 C29 1.252 . S
O33 In26 2.326 . S
O33 C29 1.260 . S
O34 In26 2.266 . S
O34 C31 1.252 . S
O35 In26 2.326 . S
O35 C31 1.260 . S
C36 O27 1.240 . S
C36 O28 1.252 . S
O37 In26 2.294 . S
O37 C30 1.240 . S
O38 In26 2.326 . S
O38 C30 1.252 . S
In39 O40 2.294 . S
In39 O41 2.326 . S
In39 O45 2.266 . S
In39 O46 2.326 . S
In39 O47 2.266 . S
In39 O48 2.326 . S
In39 O50 2.294 . S
In39 O51 2.326 . S
O40 In39 2.294 . S
O40 C49 1.240 . S
O41 In39 2.326 . S
O41 C49 1.252 . S
C42 O45 1.252 . S
C42 O46 1.260 . S
C43 O50 1.240 . S
C43 O51 1.252 . S
C44 O47 1.252 . S
C44 O48 1.260 . S
O45 In39 2.266 . S
O45 C42 1.252 . S
O46 In39 2.326 . S
O46 C42 1.260 . S
O47 In39 2.266 . S
O47 C44 1.252 . S
O48 In39 2.326 . S
O48 C44 1.260 . S
C49 O40 1.240 . S
C49 O41 1.252 . S
O50 In39 2.294 . S
O50 C43 1.240 . S
O51 In39 2.326 . S
O51 C43 1.252 . S
In52 O53 2.294 . S
In52 O54 2.326 . S
In52 O58 2.266 . S
In52 O59 2.326 . S
In52 O60 2.266 . S
In52 O61 2.326 . S
In52 O63 2.294 . S
In52 O64 2.326 . S
O53 In52 2.294 . S
O53 C62 1.240 . S
O54 In52 2.326 . S
O54 C62 1.252 . S
C55 O58 1.252 . S
C55 O59 1.260 . S
C56 O63 1.240 . S
C56 O64 1.252 . S
C57 O60 1.252 . S
C57 O61 1.260 . S
O58 In52 2.266 . S
O58 C55 1.252 . S
O59 In52 2.326 . S
O59 C55 1.260 . S
O60 In52 2.266 . S
O60 C57 1.252 . S
O61 In52 2.326 . S
O61 C57 1.260 . S
C62 O53 1.240 . S
C62 O54 1.252 . S
O63 In52 2.294 . S
O63 C56 1.240 . S
O64 In52 2.326 . S
O64 C56 1.252 . S
In65 O66 2.294 . S
In65 O67 2.326 . S
In65 O71 2.266 . S
In65 O72 2.326 . S
In65 O73 2.266 . S
In65 O74 2.326 . S
In65 O76 2.294 . S
In65 O77 2.326 . S
O66 In65 2.294 . S
O66 C75 1.240 . S
O67 In65 2.326 . S
O67 C75 1.252 . S
C68 O71 1.252 . S
C68 O72 1.260 . S
C69 O76 1.240 . S
C69 O77 1.252 . S
C70 O73 1.252 . S
C70 O74 1.260 . S
O71 In65 2.266 . S
O71 C68 1.252 . S
O72 In65 2.326 . S
O72 C68 1.260 . S
O73 In65 2.266 . S
O73 C70 1.252 . S
O74 In65 2.326 . S
O74 C70 1.260 . S
C75 O66 1.240 . S
C75 O67 1.252 . S
O76 In65 2.294 . S
O76 C69 1.240 . S
O77 In65 2.326 . S
O77 C69 1.252 . S
In78 O79 2.294 . S
In78 O80 2.326 . S
In78 O84 2.266 . S
In78 O85 2.326 . S
In78 O86 2.266 . S
In78 O87 2.326 . S
In78 O89 2.294 . S
In78 O90 2.326 . S
O79 In78 2.294 . S
O79 C88 1.240 . S
O80 In78 2.326 . S
O80 C88 1.252 . S
C81 O84 1.252 . S
C81 O85 1.260 . S
C82 O89 1.240 . S
C82 O90 1.252 . S
C83 O86 1.252 . S
C83 O87 1.260 . S
O84 In78 2.266 . S
O84 C81 1.252 . S
O85 In78 2.326 . S
O85 C81 1.260 . S
O86 In78 2.266 . S
O86 C83 1.252 . S
O87 In78 2.326 . S
O87 C83 1.260 . S
C88 O79 1.240 . S
C88 O80 1.252 . S
O89 In78 2.294 . S
O89 C82 1.240 . S
O90 In78 2.326 . S
O90 C82 1.252 . S
In91 O92 2.294 . S
In91 O93 2.326 . S
In91 O97 2.266 . S
In91 O98 2.326 . S
In91 O99 2.266 . S
In91 O100 2.326 . S
In91 O102 2.294 . S
In91 O103 2.326 . S
O92 In91 2.294 . S
O92 C101 1.240 . S
O93 In91 2.326 . S
O93 C101 1.252 . S
C94 O97 1.252 . S
C94 O98 1.260 . S
C95 O102 1.240 . S
C95 O103 1.252 . S
C96 O99 1.252 . S
C96 O100 1.260 . S
O97 In91 2.266 . S
O97 C94 1.252 . S
O98 In91 2.326 . S
O98 C94 1.260 . S
O99 In91 2.266 . S
O99 C96 1.252 . S
O100 In91 2.326 . S
O100 C96 1.260 . S
C101 O92 1.240 . S
C101 O93 1.252 . S
O102 In91 2.294 . S
O102 C95 1.240 . S
O103 In91 2.326 . S
O103 C95 1.252 . S
In104 O105 2.294 . S
In104 O106 2.326 . S
In104 O110 2.266 . S
In104 O111 2.326 . S
In104 O112 2.266 . S
In104 O113 2.326 . S
In104 O115 2.294 . S
In104 O116 2.326 . S
O105 In104 2.294 . S
O105 C114 1.240 . S
O106 In104 2.326 . S
O106 C114 1.252 . S
C107 O110 1.252 . S
C107 O111 1.260 . S
C108 O115 1.240 . S
C108 O116 1.252 . S
C109 O112 1.252 . S
C109 O113 1.260 . S
O110 In104 2.266 . S
O110 C107 1.252 . S
O111 In104 2.326 . S
O111 C107 1.260 . S
O112 In104 2.266 . S
O112 C109 1.252 . S
O113 In104 2.326 . S
O113 C109 1.260 . S
C114 O105 1.240 . S
C114 O106 1.252 . S
O115 In104 2.294 . S
O115 C108 1.240 . S
O116 In104 2.326 . S
O116 C108 1.252 . S
In117 O118 2.294 . S
In117 O119 2.326 . S
In117 O123 2.266 . S
In117 O124 2.326 . S
In117 O125 2.266 . S
In117 O126 2.326 . S
In117 O128 2.294 . S
In117 O129 2.326 . S
O118 In117 2.294 . S
O118 C127 1.240 . S
O119 In117 2.326 . S
O119 C127 1.252 . S
C120 O123 1.252 . S
C120 O124 1.260 . S
C121 O128 1.240 . S
C121 O129 1.252 . S
C122 O125 1.252 . S
C122 O126 1.260 . S
O123 In117 2.266 . S
O123 C120 1.252 . S
O124 In117 2.326 . S
O124 C120 1.260 . S
O125 In117 2.266 . S
O125 C122 1.252 . S
O126 In117 2.326 . S
O126 C122 1.260 . S
C127 O118 1.240 . S
C127 O119 1.252 . S
O128 In117 2.294 . S
O128 C121 1.240 . S
O129 In117 2.326 . S
O129 C121 1.252 . S
In130 O131 2.294 . S
In130 O132 2.326 . S
In130 O136 2.266 . S
In130 O137 2.326 . S
In130 O138 2.266 . S
In130 O139 2.326 . S
In130 O141 2.294 . S
In130 O142 2.326 . S
O131 In130 2.294 . S
O131 C140 1.240 . S
O132 In130 2.326 . S
O132 C140 1.252 . S
C133 O136 1.252 . S
C133 O137 1.260 . S
C134 O141 1.240 . S
C134 O142 1.252 . S
C135 O138 1.252 . S
C135 O139 1.260 . S
O136 In130 2.266 . S
O136 C133 1.252 . S
O137 In130 2.326 . S
O137 C133 1.260 . S
O138 In130 2.266 . S
O138 C135 1.252 . S
O139 In130 2.326 . S
O139 C135 1.260 . S
C140 O131 1.240 . S
C140 O132 1.252 . S
O141 In130 2.294 . S
O141 C134 1.240 . S
O142 In130 2.326 . S
O142 C134 1.252 . S
In143 O144 2.294 . S
In143 O145 2.326 . S
In143 O149 2.266 . S
In143 O150 2.326 . S
In143 O151 2.266 . S
In143 O152 2.326 . S
In143 O154 2.294 . S
In143 O155 2.326 . S
O144 In143 2.294 . S
O144 C153 1.240 . S
O145 In143 2.326 . S
O145 C153 1.252 . S
C146 O149 1.252 . S
C146 O150 1.260 . S
C147 O154 1.240 . S
C147 O155 1.252 . S
C148 O151 1.252 . S
C148 O152 1.260 . S
O149 In143 2.266 . S
O149 C146 1.252 . S
O150 In143 2.326 . S
O150 C146 1.260 . S
O151 In143 2.266 . S
O151 C148 1.252 . S
O152 In143 2.326 . S
O152 C148 1.260 . S
C153 O144 1.240 . S
C153 O145 1.252 . S
O154 In143 2.294 . S
O154 C147 1.240 . S
O155 In143 2.326 . S
O155 C147 1.252 . S
In156 O157 2.294 . S
In156 O158 2.326 . S
In156 O162 2.266 . S
In156 O163 2.326 . S
In156 O164 2.266 . S
In156 O165 2.326 . S
In156 O167 2.294 . S
In156 O168 2.326 . S
O157 In156 2.294 . S
O157 C166 1.240 . S
O158 In156 2.326 . S
O158 C166 1.252 . S
C159 O162 1.252 . S
C159 O163 1.260 . S
C160 O167 1.240 . S
C160 O168 1.252 . S
C161 O164 1.252 . S
C161 O165 1.260 . S
O162 In156 2.266 . S
O162 C159 1.252 . S
O163 In156 2.326 . S
O163 C159 1.260 . S
O164 In156 2.266 . S
O164 C161 1.252 . S
O165 In156 2.326 . S
O165 C161 1.260 . S
C166 O157 1.240 . S
C166 O158 1.252 . S
O167 In156 2.294 . S
O167 C160 1.240 . S
O168 In156 2.326 . S
O168 C160 1.252 . S
In169 O170 2.294 . S
In169 O171 2.326 . S
In169 O175 2.266 . S
In169 O176 2.326 . S
In169 O177 2.266 . S
In169 O178 2.326 . S
In169 O180 2.294 . S
In169 O181 2.326 . S
O170 In169 2.294 . S
O170 C179 1.240 . S
O171 In169 2.326 . S
O171 C179 1.252 . S
C172 O175 1.252 . S
C172 O176 1.260 . S
C173 O180 1.240 . S
C173 O181 1.252 . S
C174 O177 1.252 . S
C174 O178 1.260 . S
O175 In169 2.266 . S
O175 C172 1.252 . S
O176 In169 2.326 . S
O176 C172 1.260 . S
O177 In169 2.266 . S
O177 C174 1.252 . S
O178 In169 2.326 . S
O178 C174 1.260 . S
C179 O170 1.240 . S
C179 O171 1.252 . S
O180 In169 2.294 . S
O180 C173 1.240 . S
O181 In169 2.326 . S
O181 C173 1.252 . S
In182 O183 2.294 . S
In182 O184 2.326 . S
In182 O188 2.266 . S
In182 O189 2.326 . S
In182 O190 2.266 . S
In182 O191 2.326 . S
In182 O193 2.294 . S
In182 O194 2.326 . S
O183 In182 2.294 . S
O183 C192 1.240 . S
O184 In182 2.326 . S
O184 C192 1.252 . S
C185 O188 1.252 . S
C185 O189 1.260 . S
C186 O193 1.240 . S
C186 O194 1.252 . S
C187 O190 1.252 . S
C187 O191 1.260 . S
O188 In182 2.266 . S
O188 C185 1.252 . S
O189 In182 2.326 . S
O189 C185 1.260 . S
O190 In182 2.266 . S
O190 C187 1.252 . S
O191 In182 2.326 . S
O191 C187 1.260 . S
C192 O183 1.240 . S
C192 O184 1.252 . S
O193 In182 2.294 . S
O193 C186 1.240 . S
O194 In182 2.326 . S
O194 C186 1.252 . S
In195 O196 2.294 . S
In195 O197 2.326 . S
In195 O201 2.266 . S
In195 O202 2.326 . S
In195 O203 2.266 . S
In195 O204 2.326 . S
In195 O206 2.294 . S
In195 O207 2.326 . S
O196 In195 2.294 . S
O196 C205 1.240 . S
O197 In195 2.326 . S
O197 C205 1.252 . S
C198 O201 1.252 . S
C198 O202 1.260 . S
C199 O206 1.240 . S
C199 O207 1.252 . S
C200 O203 1.252 . S
C200 O204 1.260 . S
O201 In195 2.266 . S
O201 C198 1.252 . S
O202 In195 2.326 . S
O202 C198 1.260 . S
O203 In195 2.266 . S
O203 C200 1.252 . S
O204 In195 2.326 . S
O204 C200 1.260 . S
C205 O196 1.240 . S
C205 O197 1.252 . S
O206 In195 2.294 . S
O206 C199 1.240 . S
O207 In195 2.326 . S
O207 C199 1.252 . S
In208 O209 2.294 . S
In208 O210 2.326 . S
In208 O214 2.266 . S
In208 O215 2.326 . S
In208 O216 2.266 . S
In208 O217 2.326 . S
In208 O219 2.294 . S
In208 O220 2.326 . S
O209 In208 2.294 . S
O209 C218 1.240 . S
O210 In208 2.326 . S
O210 C218 1.252 . S
C211 O214 1.252 . S
C211 O215 1.260 . S
C212 O219 1.240 . S
C212 O220 1.252 . S
C213 O216 1.252 . S
C213 O217 1.260 . S
O214 In208 2.266 . S
O214 C211 1.252 . S
O215 In208 2.326 . S
O215 C211 1.260 . S
O216 In208 2.266 . S
O216 C213 1.252 . S
O217 In208 2.326 . S
O217 C213 1.260 . S
C218 O209 1.240 . S
C218 O210 1.252 . S
O219 In208 2.294 . S
O219 C212 1.240 . S
O220 In208 2.326 . S
O220 C212 1.252 . S
In221 O222 2.294 . S
In221 O223 2.326 . S
In221 O227 2.266 . S
In221 O228 2.326 . S
In221 O229 2.266 . S
In221 O230 2.326 . S
In221 O232 2.294 . S
In221 O233 2.326 . S
O222 In221 2.294 . S
O222 C231 1.240 . S
O223 In221 2.326 . S
O223 C231 1.252 . S
C224 O227 1.252 . S
C224 O228 1.260 . S
C225 O232 1.240 . S
C225 O233 1.252 . S
C226 O229 1.252 . S
C226 O230 1.260 . S
O227 In221 2.266 . S
O227 C224 1.252 . S
O228 In221 2.326 . S
O228 C224 1.260 . S
O229 In221 2.266 . S
O229 C226 1.252 . S
O230 In221 2.326 . S
O230 C226 1.260 . S
C231 O222 1.240 . S
C231 O223 1.252 . S
O232 In221 2.294 . S
O232 C225 1.240 . S
O233 In221 2.326 . S
O233 C225 1.252 . S
In234 O235 2.294 . S
In234 O236 2.326 . S
In234 O240 2.266 . S
In234 O241 2.326 . S
In234 O242 2.266 . S
In234 O243 2.326 . S
In234 O245 2.294 . S
In234 O246 2.326 . S
O235 In234 2.294 . S
O235 C244 1.240 . S
O236 In234 2.326 . S
O236 C244 1.252 . S
C237 O240 1.252 . S
C237 O241 1.260 . S
C238 O245 1.240 . S
C238 O246 1.252 . S
C239 O242 1.252 . S
C239 O243 1.260 . S
O240 In234 2.266 . S
O240 C237 1.252 . S
O241 In234 2.326 . S
O241 C237 1.260 . S
O242 In234 2.266 . S
O242 C239 1.252 . S
O243 In234 2.326 . S
O243 C239 1.260 . S
C244 O235 1.240 . S
C244 O236 1.252 . S
O245 In234 2.294 . S
O245 C238 1.240 . S
O246 In234 2.326 . S
O246 C238 1.252 . S
In247 O248 2.294 . S
In247 O249 2.326 . S
In247 O253 2.266 . S
In247 O254 2.326 . S
In247 O255 2.266 . S
In247 O256 2.326 . S
In247 O258 2.294 . S
In247 O259 2.326 . S
O248 In247 2.294 . S
O248 C257 1.240 . S
O249 In247 2.326 . S
O249 C257 1.252 . S
C250 O253 1.252 . S
C250 O254 1.260 . S
C251 O258 1.240 . S
C251 O259 1.252 . S
C252 O255 1.252 . S
C252 O256 1.260 . S
O253 In247 2.266 . S
O253 C250 1.252 . S
O254 In247 2.326 . S
O254 C250 1.260 . S
O255 In247 2.266 . S
O255 C252 1.252 . S
O256 In247 2.326 . S
O256 C252 1.260 . S
C257 O248 1.240 . S
C257 O249 1.252 . S
O258 In247 2.294 . S
O258 C251 1.240 . S
O259 In247 2.326 . S
O259 C251 1.252 . S
In260 O261 2.294 . S
In260 O262 2.326 . S
In260 O266 2.266 . S
In260 O267 2.326 . S
In260 O268 2.266 . S
In260 O269 2.326 . S
In260 O271 2.294 . S
In260 O272 2.326 . S
O261 In260 2.294 . S
O261 C270 1.240 . S
O262 In260 2.326 . S
O262 C270 1.252 . S
C263 O266 1.252 . S
C263 O267 1.260 . S
C264 O271 1.240 . S
C264 O272 1.252 . S
C265 O268 1.252 . S
C265 O269 1.260 . S
O266 In260 2.266 . S
O266 C263 1.252 . S
O267 In260 2.326 . S
O267 C263 1.260 . S
O268 In260 2.266 . S
O268 C265 1.252 . S
O269 In260 2.326 . S
O269 C265 1.260 . S
C270 O261 1.240 . S
C270 O262 1.252 . S
O271 In260 2.294 . S
O271 C264 1.240 . S
O272 In260 2.326 . S
O272 C264 1.252 . S
In273 O274 2.294 . S
In273 O275 2.326 . S
In273 O279 2.266 . S
In273 O280 2.326 . S
In273 O281 2.266 . S
In273 O282 2.326 . S
In273 O284 2.294 . S
In273 O285 2.326 . S
O274 In273 2.294 . S
O274 C283 1.240 . S
O275 In273 2.326 . S
O275 C283 1.252 . S
C276 O279 1.252 . S
C276 O280 1.260 . S
C277 O284 1.240 . S
C277 O285 1.252 . S
C278 O281 1.252 . S
C278 O282 1.260 . S
O279 In273 2.266 . S
O279 C276 1.252 . S
O280 In273 2.326 . S
O280 C276 1.260 . S
O281 In273 2.266 . S
O281 C278 1.252 . S
O282 In273 2.326 . S
O282 C278 1.260 . S
C283 O274 1.240 . S
C283 O275 1.252 . S
O284 In273 2.294 . S
O284 C277 1.240 . S
O285 In273 2.326 . S
O285 C277 1.252 . S
In286 O287 2.294 . S
In286 O288 2.326 . S
In286 O292 2.266 . S
In286 O293 2.326 . S
In286 O294 2.266 . S
In286 O295 2.326 . S
In286 O297 2.294 . S
In286 O298 2.326 . S
O287 In286 2.294 . S
O287 C296 1.240 . S
O288 In286 2.326 . S
O288 C296 1.252 . S
C289 O292 1.252 . S
C289 O293 1.260 . S
C290 O297 1.240 . S
C290 O298 1.252 . S
C291 O294 1.252 . S
C291 O295 1.260 . S
O292 In286 2.266 . S
O292 C289 1.252 . S
O293 In286 2.326 . S
O293 C289 1.260 . S
O294 In286 2.266 . S
O294 C291 1.252 . S
O295 In286 2.326 . S
O295 C291 1.260 . S
C296 O287 1.240 . S
C296 O288 1.252 . S
O297 In286 2.294 . S
O297 C290 1.240 . S
O298 In286 2.326 . S
O298 C290 1.252 . S
In299 O300 2.294 . S
In299 O301 2.326 . S
In299 O305 2.266 . S
In299 O306 2.326 . S
In299 O307 2.266 . S
In299 O308 2.326 . S
In299 O310 2.294 . S
In299 O311 2.326 . S
O300 In299 2.294 . S
O300 C309 1.240 . S
O301 In299 2.326 . S
O301 C309 1.252 . S
C302 O305 1.252 . S
C302 O306 1.260 . S
C303 O310 1.240 . S
C303 O311 1.252 . S
C304 O307 1.252 . S
C304 O308 1.260 . S
O305 In299 2.266 . S
O305 C302 1.252 . S
O306 In299 2.326 . S
O306 C302 1.260 . S
O307 In299 2.266 . S
O307 C304 1.252 . S
O308 In299 2.326 . S
O308 C304 1.260 . S
C309 O300 1.240 . S
C309 O301 1.252 . S
O310 In299 2.294 . S
O310 C303 1.240 . S
O311 In299 2.326 . S
O311 C303 1.252 . S
In312 O313 2.294 . S
In312 O314 2.326 . S
In312 O318 2.266 . S
In312 O319 2.326 . S
In312 O320 2.266 . S
In312 O321 2.326 . S
In312 O323 2.294 . S
In312 O324 2.326 . S
O313 In312 2.294 . S
O313 C322 1.240 . S
O314 In312 2.326 . S
O314 C322 1.252 . S
C315 O318 1.252 . S
C315 O319 1.260 . S
C316 O323 1.240 . S
C316 O324 1.252 . S
C317 O320 1.252 . S
C317 O321 1.260 . S
O318 In312 2.266 . S
O318 C315 1.252 . S
O319 In312 2.326 . S
O319 C315 1.260 . S
O320 In312 2.266 . S
O320 C317 1.252 . S
O321 In312 2.326 . S
O321 C317 1.260 . S
C322 O313 1.240 . S
C322 O314 1.252 . S
O323 In312 2.294 . S
O323 C316 1.240 . S
O324 In312 2.326 . S
O324 C316 1.252 . S
In325 O326 2.294 . S
In325 O327 2.326 . S
In325 O331 2.266 . S
In325 O332 2.326 . S
In325 O333 2.266 . S
In325 O334 2.326 . S
In325 O336 2.294 . S
In325 O337 2.326 . S
O326 In325 2.294 . S
O326 C335 1.240 . S
O327 In325 2.326 . S
O327 C335 1.252 . S
C328 O331 1.252 . S
C328 O332 1.260 . S
C329 O336 1.240 . S
C329 O337 1.252 . S
C330 O333 1.252 . S
C330 O334 1.260 . S
O331 In325 2.266 . S
O331 C328 1.252 . S
O332 In325 2.326 . S
O332 C328 1.260 . S
O333 In325 2.266 . S
O333 C330 1.252 . S
O334 In325 2.326 . S
O334 C330 1.260 . S
C335 O326 1.240 . S
C335 O327 1.252 . S
O336 In325 2.294 . S
O336 C329 1.240 . S
O337 In325 2.326 . S
O337 C329 1.252 . S
In338 O339 2.294 . S
In338 O340 2.326 . S
In338 O344 2.266 . S
In338 O345 2.326 . S
In338 O346 2.266 . S
In338 O347 2.326 . S
In338 O349 2.294 . S
In338 O350 2.326 . S
O339 In338 2.294 . S
O339 C348 1.240 . S
O340 In338 2.326 . S
O340 C348 1.252 . S
C341 O344 1.252 . S
C341 O345 1.260 . S
C342 O349 1.240 . S
C342 O350 1.252 . S
C343 O346 1.252 . S
C343 O347 1.260 . S
O344 In338 2.266 . S
O344 C341 1.252 . S
O345 In338 2.326 . S
O345 C341 1.260 . S
O346 In338 2.266 . S
O346 C343 1.252 . S
O347 In338 2.326 . S
O347 C343 1.260 . S
C348 O339 1.240 . S
C348 O340 1.252 . S
O349 In338 2.294 . S
O349 C342 1.240 . S
O350 In338 2.326 . S
O350 C342 1.252 . S
In351 O352 2.294 . S
In351 O353 2.326 . S
In351 O357 2.266 . S
In351 O358 2.326 . S
In351 O359 2.266 . S
In351 O360 2.326 . S
In351 O362 2.294 . S
In351 O363 2.326 . S
O352 In351 2.294 . S
O352 C361 1.240 . S
O353 In351 2.326 . S
O353 C361 1.252 . S
C354 O357 1.252 . S
C354 O358 1.260 . S
C355 O362 1.240 . S
C355 O363 1.252 . S
C356 O359 1.252 . S
C356 O360 1.260 . S
O357 In351 2.266 . S
O357 C354 1.252 . S
O358 In351 2.326 . S
O358 C354 1.260 . S
O359 In351 2.266 . S
O359 C356 1.252 . S
O360 In351 2.326 . S
O360 C356 1.260 . S
C361 O352 1.240 . S
C361 O353 1.252 . S
O362 In351 2.294 . S
O362 C355 1.240 . S
O363 In351 2.326 . S
O363 C355 1.252 . S
In364 O365 2.294 . S
In364 O366 2.326 . S
In364 O370 2.266 . S
In364 O371 2.326 . S
In364 O372 2.266 . S
In364 O373 2.326 . S
In364 O375 2.294 . S
In364 O376 2.326 . S
O365 In364 2.294 . S
O365 C374 1.240 . S
O366 In364 2.326 . S
O366 C374 1.252 . S
C367 O370 1.252 . S
C367 O371 1.260 . S
C368 O375 1.240 . S
C368 O376 1.252 . S
C369 O372 1.252 . S
C369 O373 1.260 . S
O370 In364 2.266 . S
O370 C367 1.252 . S
O371 In364 2.326 . S
O371 C367 1.260 . S
O372 In364 2.266 . S
O372 C369 1.252 . S
O373 In364 2.326 . S
O373 C369 1.260 . S
C374 O365 1.240 . S
C374 O366 1.252 . S
O375 In364 2.294 . S
O375 C368 1.240 . S
O376 In364 2.326 . S
O376 C368 1.252 . S
In377 O378 2.294 . S
In377 O379 2.326 . S
In377 O383 2.266 . S
In377 O384 2.326 . S
In377 O385 2.266 . S
In377 O386 2.326 . S
In377 O388 2.294 . S
In377 O389 2.326 . S
O378 In377 2.294 . S
O378 C387 1.240 . S
O379 In377 2.326 . S
O379 C387 1.252 . S
C380 O383 1.252 . S
C380 O384 1.260 . S
C381 O388 1.240 . S
C381 O389 1.252 . S
C382 O385 1.252 . S
C382 O386 1.260 . S
O383 In377 2.266 . S
O383 C380 1.252 . S
O384 In377 2.326 . S
O384 C380 1.260 . S
O385 In377 2.266 . S
O385 C382 1.252 . S
O386 In377 2.326 . S
O386 C382 1.260 . S
C387 O378 1.240 . S
C387 O379 1.252 . S
O388 In377 2.294 . S
O388 C381 1.240 . S
O389 In377 2.326 . S
O389 C381 1.252 . S
In390 O391 2.294 . S
In390 O392 2.326 . S
In390 O396 2.266 . S
In390 O397 2.326 . S
In390 O398 2.266 . S
In390 O399 2.326 . S
In390 O401 2.294 . S
In390 O402 2.326 . S
O391 In390 2.294 . S
O391 C400 1.240 . S
O392 In390 2.326 . S
O392 C400 1.252 . S
C393 O396 1.252 . S
C393 O397 1.260 . S
C394 O401 1.240 . S
C394 O402 1.252 . S
C395 O398 1.252 . S
C395 O399 1.260 . S
O396 In390 2.266 . S
O396 C393 1.252 . S
O397 In390 2.326 . S
O397 C393 1.260 . S
O398 In390 2.266 . S
O398 C395 1.252 . S
O399 In390 2.326 . S
O399 C395 1.260 . S
C400 O391 1.240 . S
C400 O392 1.252 . S
O401 In390 2.294 . S
O401 C394 1.240 . S
O402 In390 2.326 . S
O402 C394 1.252 . S
In403 O404 2.294 . S
In403 O405 2.326 . S
In403 O409 2.266 . S
In403 O410 2.326 . S
In403 O411 2.266 . S
In403 O412 2.326 . S
In403 O414 2.294 . S
In403 O415 2.326 . S
O404 In403 2.294 . S
O404 C413 1.240 . S
O405 In403 2.326 . S
O405 C413 1.252 . S
C406 O409 1.252 . S
C406 O410 1.260 . S
C407 O414 1.240 . S
C407 O415 1.252 . S
C408 O411 1.252 . S
C408 O412 1.260 . S
O409 In403 2.266 . S
O409 C406 1.252 . S
O410 In403 2.326 . S
O410 C406 1.260 . S
O411 In403 2.266 . S
O411 C408 1.252 . S
O412 In403 2.326 . S
O412 C408 1.260 . S
C413 O404 1.240 . S
C413 O405 1.252 . S
O414 In403 2.294 . S
O414 C407 1.240 . S
O415 In403 2.326 . S
O415 C407 1.252 . S
C416 C417 1.387 . S
C416 H420 0.950 . S
C416 C425 1.390 . S
C417 C416 1.387 . S
C417 C419 1.387 . S
H418 C425 0.950 . S
C419 C417 1.387 . S
C419 C421 1.390 . S
C419 H423 0.950 . S
H420 C416 0.950 . S
C421 C419 1.390 . S
C421 C422 1.387 . S
C421 H424 0.950 . S
C422 C421 1.387 . S
C422 C425 1.387 . S
H423 C419 0.950 . S
H424 C421 0.950 . S
C425 C416 1.390 . S
C425 H418 0.950 . S
C425 C422 1.387 . S
C426 C427 1.387 . S
C426 H430 0.950 . S
C426 C435 1.390 . S
C427 C426 1.387 . S
C427 C429 1.387 . S
H428 C435 0.950 . S
C429 C427 1.387 . S
C429 C431 1.390 . S
C429 H433 0.950 . S
H430 C426 0.950 . S
C431 C429 1.390 . S
C431 C432 1.387 . S
C431 H434 0.950 . S
C432 C431 1.387 . S
C432 C435 1.387 . S
H433 C429 0.950 . S
H434 C431 0.950 . S
C435 C426 1.390 . S
C435 H428 0.950 . S
C435 C432 1.387 . S
C436 C437 1.387 . S
C436 H440 0.950 . S
C436 C445 1.390 . S
C437 C436 1.387 . S
C437 C439 1.387 . S
H438 C445 0.950 . S
C439 C437 1.387 . S
C439 C441 1.390 . S
C439 H443 0.950 . S
H440 C436 0.950 . S
C441 C439 1.390 . S
C441 C442 1.387 . S
C441 H444 0.950 . S
C442 C441 1.387 . S
C442 C445 1.387 . S
H443 C439 0.950 . S
H444 C441 0.950 . S
C445 C436 1.390 . S
C445 H438 0.950 . S
C445 C442 1.387 . S
C446 C447 1.387 . S
C446 H450 0.950 . S
C446 C455 1.390 . S
C447 C446 1.387 . S
C447 C449 1.387 . S
H448 C455 0.950 . S
C449 C447 1.387 . S
C449 C451 1.390 . S
C449 H453 0.950 . S
H450 C446 0.950 . S
C451 C449 1.390 . S
C451 C452 1.387 . S
C451 H454 0.950 . S
C452 C451 1.387 . S
C452 C455 1.387 . S
H453 C449 0.950 . S
H454 C451 0.950 . S
C455 C446 1.390 . S
C455 H448 0.950 . S
C455 C452 1.387 . S
C456 C457 1.387 . S
C456 H460 0.950 . S
C456 C465 1.390 . S
C457 C456 1.387 . S
C457 C459 1.387 . S
H458 C465 0.950 . S
C459 C457 1.387 . S
C459 C461 1.390 . S
C459 H463 0.950 . S
H460 C456 0.950 . S
C461 C459 1.390 . S
C461 C462 1.387 . S
C461 H464 0.950 . S
C462 C461 1.387 . S
C462 C465 1.387 . S
H463 C459 0.950 . S
H464 C461 0.950 . S
C465 C456 1.390 . S
C465 H458 0.950 . S
C465 C462 1.387 . S
C466 C467 1.387 . S
C466 H470 0.950 . S
C466 C475 1.390 . S
C467 C466 1.387 . S
C467 C469 1.387 . S
H468 C475 0.950 . S
C469 C467 1.387 . S
C469 C471 1.390 . S
C469 H473 0.950 . S
H470 C466 0.950 . S
C471 C469 1.390 . S
C471 C472 1.387 . S
C471 H474 0.950 . S
C472 C471 1.387 . S
C472 C475 1.387 . S
H473 C469 0.950 . S
H474 C471 0.950 . S
C475 C466 1.390 . S
C475 H468 0.950 . S
C475 C472 1.387 . S
C476 C477 1.387 . S
C476 H480 0.950 . S
C476 C485 1.390 . S
C477 C476 1.387 . S
C477 C479 1.387 . S
H478 C485 0.950 . S
C479 C477 1.387 . S
C479 C481 1.390 . S
C479 H483 0.950 . S
H480 C476 0.950 . S
C481 C479 1.390 . S
C481 C482 1.387 . S
C481 H484 0.950 . S
C482 C481 1.387 . S
C482 C485 1.387 . S
H483 C479 0.950 . S
H484 C481 0.950 . S
C485 C476 1.390 . S
C485 H478 0.950 . S
C485 C482 1.387 . S
C486 C487 1.387 . S
C486 H490 0.950 . S
C486 C495 1.390 . S
C487 C486 1.387 . S
C487 C489 1.387 . S
H488 C495 0.950 . S
C489 C487 1.387 . S
C489 C491 1.390 . S
C489 H493 0.950 . S
H490 C486 0.950 . S
C491 C489 1.390 . S
C491 C492 1.387 . S
C491 H494 0.950 . S
C492 C491 1.387 . S
C492 C495 1.387 . S
H493 C489 0.950 . S
H494 C491 0.950 . S
C495 C486 1.390 . S
C495 H488 0.950 . S
C495 C492 1.387 . S
C496 C497 1.387 . S
C496 H500 0.950 . S
C496 C505 1.390 . S
C497 C496 1.387 . S
C497 C499 1.387 . S
H498 C505 0.950 . S
C499 C497 1.387 . S
C499 C501 1.390 . S
C499 H503 0.950 . S
H500 C496 0.950 . S
C501 C499 1.390 . S
C501 C502 1.387 . S
C501 H504 0.950 . S
C502 C501 1.387 . S
C502 C505 1.387 . S
H503 C499 0.950 . S
H504 C501 0.950 . S
C505 C496 1.390 . S
C505 H498 0.950 . S
C505 C502 1.387 . S
C506 C507 1.387 . S
C506 H510 0.950 . S
C506 C515 1.390 . S
C507 C506 1.387 . S
C507 C509 1.387 . S
H508 C515 0.950 . S
C509 C507 1.387 . S
C509 C511 1.390 . S
C509 H513 0.950 . S
H510 C506 0.950 . S
C511 C509 1.390 . S
C511 C512 1.387 . S
C511 H514 0.950 . S
C512 C511 1.387 . S
C512 C515 1.387 . S
H513 C509 0.950 . S
H514 C511 0.950 . S
C515 C506 1.390 . S
C515 H508 0.950 . S
C515 C512 1.387 . S
C516 C517 1.387 . S
C516 H520 0.950 . S
C516 C525 1.390 . S
C517 C516 1.387 . S
C517 C519 1.387 . S
H518 C525 0.950 . S
C519 C517 1.387 . S
C519 C521 1.390 . S
C519 H523 0.950 . S
H520 C516 0.950 . S
C521 C519 1.390 . S
C521 C522 1.387 . S
C521 H524 0.950 . S
C522 C521 1.387 . S
C522 C525 1.387 . S
H523 C519 0.950 . S
H524 C521 0.950 . S
C525 C516 1.390 . S
C525 H518 0.950 . S
C525 C522 1.387 . S
C526 C527 1.387 . S
C526 H530 0.950 . S
C526 C535 1.390 . S
C527 C526 1.387 . S
C527 C529 1.387 . S
H528 C535 0.950 . S
C529 C527 1.387 . S
C529 C531 1.390 . S
C529 H533 0.950 . S
H530 C526 0.950 . S
C531 C529 1.390 . S
C531 C532 1.387 . S
C531 H534 0.950 . S
C532 C531 1.387 . S
C532 C535 1.387 . S
H533 C529 0.950 . S
H534 C531 0.950 . S
C535 C526 1.390 . S
C535 H528 0.950 . S
C535 C532 1.387 . S
C536 C537 1.387 . S
C536 H540 0.950 . S
C536 C545 1.390 . S
C537 C536 1.387 . S
C537 C539 1.387 . S
H538 C545 0.950 . S
C539 C537 1.387 . S
C539 C541 1.390 . S
C539 H543 0.950 . S
H540 C536 0.950 . S
C541 C539 1.390 . S
C541 C542 1.387 . S
C541 H544 0.950 . S
C542 C541 1.387 . S
C542 C545 1.387 . S
H543 C539 0.950 . S
H544 C541 0.950 . S
C545 C536 1.390 . S
C545 H538 0.950 . S
C545 C542 1.387 . S
C546 C547 1.387 . S
C546 H550 0.950 . S
C546 C555 1.390 . S
C547 C546 1.387 . S
C547 C549 1.387 . S
H548 C555 0.950 . S
C549 C547 1.387 . S
C549 C551 1.390 . S
C549 H553 0.950 . S
H550 C546 0.950 . S
C551 C549 1.390 . S
C551 C552 1.387 . S
C551 H554 0.950 . S
C552 C551 1.387 . S
C552 C555 1.387 . S
H553 C549 0.950 . S
H554 C551 0.950 . S
C555 C546 1.390 . S
C555 H548 0.950 . S
C555 C552 1.387 . S
C556 C557 1.387 . S
C556 H560 0.950 . S
C556 C565 1.390 . S
C557 C556 1.387 . S
C557 C559 1.387 . S
H558 C565 0.950 . S
C559 C557 1.387 . S
C559 C561 1.390 . S
C559 H563 0.950 . S
H560 C556 0.950 . S
C561 C559 1.390 . S
C561 C562 1.387 . S
C561 H564 0.950 . S
C562 C561 1.387 . S
C562 C565 1.387 . S
H563 C559 0.950 . S
H564 C561 0.950 . S
C565 C556 1.390 . S
C565 H558 0.950 . S
C565 C562 1.387 . S
C566 C567 1.387 . S
C566 H570 0.950 . S
C566 C575 1.390 . S
C567 C566 1.387 . S
C567 C569 1.387 . S
H568 C575 0.950 . S
C569 C567 1.387 . S
C569 C571 1.390 . S
C569 H573 0.950 . S
H570 C566 0.950 . S
C571 C569 1.390 . S
C571 C572 1.387 . S
C571 H574 0.950 . S
C572 C571 1.387 . S
C572 C575 1.387 . S
H573 C569 0.950 . S
H574 C571 0.950 . S
C575 C566 1.390 . S
C575 H568 0.950 . S
C575 C572 1.387 . S
C576 C577 1.387 . S
C576 H580 0.950 . S
C576 C585 1.390 1_554 S
C577 C576 1.387 . S
C577 C579 1.387 . S
H578 C585 0.950 . S
C579 C577 1.387 . S
C579 C581 1.390 1_554 S
C579 H583 0.950 . S
H580 C576 0.950 . S
C581 C579 1.390 1_556 S
C581 C582 1.387 . S
C581 H584 0.950 . S
C582 C581 1.387 . S
C582 C585 1.387 . S
H583 C579 0.950 . S
H584 C581 0.950 . S
C585 C576 1.390 1_556 S
C585 H578 0.950 . S
C585 C582 1.387 . S
C586 C587 1.387 . S
C586 H590 0.950 . S
C586 C595 1.390 1_556 S
C587 C586 1.387 . S
C587 C589 1.387 . S
H588 C595 0.950 . S
C589 C587 1.387 . S
C589 C591 1.390 1_556 S
C589 H593 0.950 . S
H590 C586 0.950 . S
C591 C589 1.390 1_554 S
C591 C592 1.387 . S
C591 H594 0.950 . S
C592 C591 1.387 . S
C592 C595 1.387 . S
H593 C589 0.950 . S
H594 C591 0.950 . S
C595 C586 1.390 1_554 S
C595 H588 0.950 . S
C595 C592 1.387 . S
C596 C597 1.387 . S
C596 H600 0.950 . S
C596 C605 1.390 1_556 S
C597 C596 1.387 . S
C597 C599 1.387 . S
H598 C605 0.950 . S
C599 C597 1.387 . S
C599 C601 1.390 1_556 S
C599 H603 0.950 . S
H600 C596 0.950 . S
C601 C599 1.390 1_554 S
C601 C602 1.387 . S
C601 H604 0.950 . S
C602 C601 1.387 . S
C602 C605 1.387 . S
H603 C599 0.950 . S
H604 C601 0.950 . S
C605 C596 1.390 1_554 S
C605 H598 0.950 . S
C605 C602 1.387 . S
C606 C607 1.387 . S
C606 H610 0.950 . S
C606 C615 1.390 1_556 S
C607 C606 1.387 . S
C607 C609 1.387 . S
H608 C615 0.950 . S
C609 C607 1.387 . S
C609 C611 1.390 1_556 S
C609 H613 0.950 . S
H610 C606 0.950 . S
C611 C609 1.390 1_554 S
C611 C612 1.387 . S
C611 H614 0.950 . S
C612 C611 1.387 . S
C612 C615 1.387 . S
H613 C609 0.950 . S
H614 C611 0.950 . S
C615 C606 1.390 1_554 S
C615 H608 0.950 . S
C615 C612 1.387 . S
C616 C617 1.387 . S
C616 H620 0.950 . S
C616 C625 1.390 . S
C617 C616 1.387 . S
C617 C619 1.387 . S
H618 C625 0.950 . S
C619 C617 1.387 . S
C619 C621 1.390 . S
C619 H623 0.950 . S
H620 C616 0.950 . S
C621 C619 1.390 . S
C621 C622 1.387 . S
C621 H624 0.950 . S
C622 C621 1.387 . S
C622 C625 1.387 . S
H623 C619 0.950 . S
H624 C621 0.950 . S
C625 C616 1.390 . S
C625 H618 0.950 . S
C625 C622 1.387 . S
C626 C627 1.387 . S
C626 H630 0.950 . S
C626 C635 1.390 . S
C627 C626 1.387 . S
C627 C629 1.387 . S
H628 C635 0.950 . S
C629 C627 1.387 . S
C629 C631 1.390 . S
C629 H633 0.950 . S
H630 C626 0.950 . S
C631 C629 1.390 . S
C631 C632 1.387 . S
C631 H634 0.950 . S
C632 C631 1.387 . S
C632 C635 1.387 . S
H633 C629 0.950 . S
H634 C631 0.950 . S
C635 C626 1.390 . S
C635 H628 0.950 . S
C635 C632 1.387 . S
C636 C637 1.387 . S
C636 H640 0.950 . S
C636 C645 1.390 . S
C637 C636 1.387 . S
C637 C639 1.387 . S
H638 C645 0.950 . S
C639 C637 1.387 . S
C639 C641 1.390 . S
C639 H643 0.950 . S
H640 C636 0.950 . S
C641 C639 1.390 . S
C641 C642 1.387 . S
C641 H644 0.950 . S
C642 C641 1.387 . S
C642 C645 1.387 . S
H643 C639 0.950 . S
H644 C641 0.950 . S
C645 C636 1.390 . S
C645 H638 0.950 . S
C645 C642 1.387 . S
C646 C647 1.387 . S
C646 H650 0.950 . S
C646 C655 1.390 . S
C647 C646 1.387 . S
C647 C649 1.387 . S
H648 C655 0.950 . S
C649 C647 1.387 . S
C649 C651 1.390 . S
C649 H653 0.950 . S
H650 C646 0.950 . S
C651 C649 1.390 . S
C651 C652 1.387 . S
C651 H654 0.950 . S
C652 C651 1.387 . S
C652 C655 1.387 . S
H653 C649 0.950 . S
H654 C651 0.950 . S
C655 C646 1.390 . S
C655 H648 0.950 . S
C655 C652 1.387 . S
C656 C657 1.387 . S
C656 H660 0.950 . S
C656 C665 1.390 . S
C657 C656 1.387 . S
C657 C659 1.387 . S
H658 C665 0.950 . S
C659 C657 1.387 . S
C659 C661 1.390 . S
C659 H663 0.950 . S
H660 C656 0.950 . S
C661 C659 1.390 . S
C661 C662 1.387 . S
C661 H664 0.950 . S
C662 C661 1.387 . S
C662 C665 1.387 . S
H663 C659 0.950 . S
H664 C661 0.950 . S
C665 C656 1.390 . S
C665 H658 0.950 . S
C665 C662 1.387 . S
C666 C667 1.387 . S
C666 H670 0.950 . S
C666 C675 1.390 . S
C667 C666 1.387 . S
C667 C669 1.387 . S
H668 C675 0.950 . S
C669 C667 1.387 . S
C669 C671 1.390 . S
C669 H673 0.950 . S
H670 C666 0.950 . S
C671 C669 1.390 . S
C671 C672 1.387 . S
C671 H674 0.950 . S
C672 C671 1.387 . S
C672 C675 1.387 . S
H673 C669 0.950 . S
H674 C671 0.950 . S
C675 C666 1.390 . S
C675 H668 0.950 . S
C675 C672 1.387 . S
C676 C677 1.387 . S
C676 H680 0.950 . S
C676 C685 1.390 . S
C677 C676 1.387 . S
C677 C679 1.387 . S
H678 C685 0.950 . S
C679 C677 1.387 . S
C679 C681 1.390 . S
C679 H683 0.950 . S
H680 C676 0.950 . S
C681 C679 1.390 . S
C681 C682 1.387 . S
C681 H684 0.950 . S
C682 C681 1.387 . S
C682 C685 1.387 . S
H683 C679 0.950 . S
H684 C681 0.950 . S
C685 C676 1.390 . S
C685 H678 0.950 . S
C685 C682 1.387 . S
C686 C687 1.387 . S
C686 H690 0.950 . S
C686 C695 1.390 . S
C687 C686 1.387 . S
C687 C689 1.387 . S
H688 C695 0.950 . S
C689 C687 1.387 . S
C689 C691 1.390 . S
C689 H693 0.950 . S
H690 C686 0.950 . S
C691 C689 1.390 . S
C691 C692 1.387 . S
C691 H694 0.950 . S
C692 C691 1.387 . S
C692 C695 1.387 . S
H693 C689 0.950 . S
H694 C691 0.950 . S
C695 C686 1.390 . S
C695 H688 0.950 . S
C695 C692 1.387 . S
C696 C697 1.387 . S
C696 H700 0.950 . S
C696 C705 1.390 1_556 S
C697 C696 1.387 . S
C697 C699 1.387 . S
H698 C705 0.950 . S
C699 C697 1.387 . S
C699 C701 1.390 1_556 S
C699 H703 0.950 . S
H700 C696 0.950 . S
C701 C699 1.390 1_554 S
C701 C702 1.387 . S
C701 H704 0.950 . S
C702 C701 1.387 . S
C702 C705 1.387 . S
H703 C699 0.950 . S
H704 C701 0.950 . S
C705 C696 1.390 1_554 S
C705 H698 0.950 . S
C705 C702 1.387 . S
C706 C707 1.387 . S
C706 H710 0.950 . S
C706 C715 1.390 1_554 S
C707 C706 1.387 . S
C707 C709 1.387 . S
H708 C715 0.950 . S
C709 C707 1.387 . S
C709 C711 1.390 1_554 S
C709 H713 0.950 . S
H710 C706 0.950 . S
C711 C709 1.390 1_556 S
C711 C712 1.387 . S
C711 H714 0.950 . S
C712 C711 1.387 . S
C712 C715 1.387 . S
H713 C709 0.950 . S
H714 C711 0.950 . S
C715 C706 1.390 1_556 S
C715 H708 0.950 . S
C715 C712 1.387 . S
C716 C717 1.387 . S
C716 H720 0.950 . S
C716 C725 1.390 1_554 S
C717 C716 1.387 . S
C717 C719 1.387 . S
H718 C725 0.950 . S
C719 C717 1.387 . S
C719 C721 1.390 1_554 S
C719 H723 0.950 . S
H720 C716 0.950 . S
C721 C719 1.390 1_556 S
C721 C722 1.387 . S
C721 H724 0.950 . S
C722 C721 1.387 . S
C722 C725 1.387 . S
H723 C719 0.950 . S
H724 C721 0.950 . S
C725 C716 1.390 1_556 S
C725 H718 0.950 . S
C725 C722 1.387 . S
C726 C727 1.387 . S
C726 H730 0.950 . S
C726 C735 1.390 1_556 S
C727 C726 1.387 . S
C727 C729 1.387 . S
H728 C735 0.950 . S
C729 C727 1.387 . S
C729 C731 1.390 1_556 S
C729 H733 0.950 . S
H730 C726 0.950 . S
C731 C729 1.390 1_554 S
C731 C732 1.387 . S
C731 H734 0.950 . S
C732 C731 1.387 . S
C732 C735 1.387 . S
H733 C729 0.950 . S
H734 C731 0.950 . S
C735 C726 1.390 1_554 S
C735 H728 0.950 . S
C735 C732 1.387 . S
C736 C737 1.387 . S
C736 H740 0.950 . S
C736 C745 1.390 1_545 S
C737 C736 1.387 . S
C737 C739 1.387 . S
H738 C745 0.950 . S
C739 C737 1.387 . S
C739 C741 1.390 1_545 S
C739 H743 0.950 . S
H740 C736 0.950 . S
C741 C739 1.390 1_565 S
C741 C742 1.387 . S
C741 H744 0.950 . S
C742 C741 1.387 . S
C742 C745 1.387 . S
H743 C739 0.950 . S
H744 C741 0.950 . S
C745 C736 1.390 1_565 S
C745 H738 0.950 . S
C745 C742 1.387 . S
C746 C747 1.387 . S
C746 H750 0.950 . S
C746 C755 1.390 1_655 S
C747 C746 1.387 . S
C747 C749 1.387 . S
H748 C755 0.950 . S
C749 C747 1.387 . S
C749 C751 1.390 1_655 S
C749 H753 0.950 . S
H750 C746 0.950 . S
C751 C749 1.390 1_455 S
C751 C752 1.387 . S
C751 H754 0.950 . S
C752 C751 1.387 . S
C752 C755 1.387 . S
H753 C749 0.950 . S
H754 C751 0.950 . S
C755 C746 1.390 1_455 S
C755 H748 0.950 . S
C755 C752 1.387 . S
C756 C757 1.387 . S
C756 H760 0.950 . S
C756 C765 1.390 1_545 S
C757 C756 1.387 . S
C757 C759 1.387 . S
H758 C765 0.950 . S
C759 C757 1.387 . S
C759 C761 1.390 1_545 S
C759 H763 0.950 . S
H760 C756 0.950 . S
C761 C759 1.390 1_565 S
C761 C762 1.387 . S
C761 H764 0.950 . S
C762 C761 1.387 . S
C762 C765 1.387 . S
H763 C759 0.950 . S
H764 C761 0.950 . S
C765 C756 1.390 1_565 S
C765 H758 0.950 . S
C765 C762 1.387 . S
C766 C767 1.387 . S
C766 H770 0.950 . S
C766 C775 1.390 1_455 S
C767 C766 1.387 . S
C767 C769 1.387 . S
H768 C775 0.950 . S
C769 C767 1.387 . S
C769 C771 1.390 1_455 S
C769 H773 0.950 . S
H770 C766 0.950 . S
C771 C769 1.390 1_655 S
C771 C772 1.387 . S
C771 H774 0.950 . S
C772 C771 1.387 . S
C772 C775 1.387 . S
H773 C769 0.950 . S
H774 C771 0.950 . S
C775 C766 1.390 1_655 S
C775 H768 0.950 . S
C775 C772 1.387 . S
C776 C777 1.387 . S
C776 H780 0.950 . S
C776 C785 1.390 1_565 S
C777 C776 1.387 . S
C777 C779 1.387 . S
H778 C785 0.950 . S
C779 C777 1.387 . S
C779 C781 1.390 1_565 S
C779 H783 0.950 . S
H780 C776 0.950 . S
C781 C779 1.390 1_545 S
C781 C782 1.387 . S
C781 H784 0.950 . S
C782 C781 1.387 . S
C782 C785 1.387 . S
H783 C779 0.950 . S
H784 C781 0.950 . S
C785 C776 1.390 1_545 S
C785 H778 0.950 . S
C785 C782 1.387 . S
C786 C787 1.387 . S
C786 H790 0.950 . S
C786 C795 1.390 1_655 S
C787 C786 1.387 . S
C787 C789 1.387 . S
H788 C795 0.950 . S
C789 C787 1.387 . S
C789 C791 1.390 1_655 S
C789 H793 0.950 . S
H790 C786 0.950 . S
C791 C789 1.390 1_455 S
C791 C792 1.387 . S
C791 H794 0.950 . S
C792 C791 1.387 . S
C792 C795 1.387 . S
H793 C789 0.950 . S
H794 C791 0.950 . S
C795 C786 1.390 1_455 S
C795 H788 0.950 . S
C795 C792 1.387 . S
C796 C797 1.387 . S
C796 H800 0.950 . S
C796 C805 1.390 1_565 S
C797 C796 1.387 . S
C797 C799 1.387 . S
H798 C805 0.950 . S
C799 C797 1.387 . S
C799 C801 1.390 1_565 S
C799 H803 0.950 . S
H800 C796 0.950 . S
C801 C799 1.390 1_545 S
C801 C802 1.387 . S
C801 H804 0.950 . S
C802 C801 1.387 . S
C802 C805 1.387 . S
H803 C799 0.950 . S
H804 C801 0.950 . S
C805 C796 1.390 1_545 S
C805 H798 0.950 . S
C805 C802 1.387 . S
C806 C807 1.387 . S
C806 H810 0.950 . S
C806 C815 1.390 1_655 S
C807 C806 1.387 . S
C807 C809 1.387 . S
H808 C815 0.950 . S
C809 C807 1.387 . S
C809 C811 1.390 1_655 S
C809 H813 0.950 . S
H810 C806 0.950 . S
C811 C809 1.390 1_455 S
C811 C812 1.387 . S
C811 H814 0.950 . S
C812 C811 1.387 . S
C812 C815 1.387 . S
H813 C809 0.950 . S
H814 C811 0.950 . S
C815 C806 1.390 1_455 S
C815 H808 0.950 . S
C815 C812 1.387 . S
C816 C817 1.387 . S
C816 H820 0.950 . S
C816 C825 1.390 . S
C817 C816 1.387 . S
C817 C819 1.387 . S
H818 C825 0.950 . S
C819 C817 1.387 . S
C819 C821 1.390 . S
C819 H823 0.950 . S
H820 C816 0.950 . S
C821 C819 1.390 . S
C821 C822 1.387 . S
C821 H824 0.950 . S
C822 C821 1.387 . S
C822 C825 1.387 . S
H823 C819 0.950 . S
H824 C821 0.950 . S
C825 C816 1.390 . S
C825 H818 0.950 . S
C825 C822 1.387 . S
C826 C827 1.387 . S
C826 H830 0.950 . S
C826 C835 1.390 . S
C827 C826 1.387 . S
C827 C829 1.387 . S
H828 C835 0.950 . S
C829 C827 1.387 . S
C829 C831 1.390 . S
C829 H833 0.950 . S
H830 C826 0.950 . S
C831 C829 1.390 . S
C831 C832 1.387 . S
C831 H834 0.950 . S
C832 C831 1.387 . S
C832 C835 1.387 . S
H833 C829 0.950 . S
H834 C831 0.950 . S
C835 C826 1.390 . S
C835 H828 0.950 . S
C835 C832 1.387 . S
C836 C837 1.387 . S
C836 H840 0.950 . S
C836 C845 1.390 . S
C837 C836 1.387 . S
C837 C839 1.387 . S
H838 C845 0.950 . S
C839 C837 1.387 . S
C839 C841 1.390 . S
C839 H843 0.950 . S
H840 C836 0.950 . S
C841 C839 1.390 . S
C841 C842 1.387 . S
C841 H844 0.950 . S
C842 C841 1.387 . S
C842 C845 1.387 . S
H843 C839 0.950 . S
H844 C841 0.950 . S
C845 C836 1.390 . S
C845 H838 0.950 . S
C845 C842 1.387 . S
C846 C847 1.387 . S
C846 H850 0.950 . S
C846 C855 1.390 . S
C847 C846 1.387 . S
C847 C849 1.387 . S
H848 C855 0.950 . S
C849 C847 1.387 . S
C849 C851 1.390 . S
C849 H853 0.950 . S
H850 C846 0.950 . S
C851 C849 1.390 . S
C851 C852 1.387 . S
C851 H854 0.950 . S
C852 C851 1.387 . S
C852 C855 1.387 . S
H853 C849 0.950 . S
H854 C851 0.950 . S
C855 C846 1.390 . S
C855 H848 0.950 . S
C855 C852 1.387 . S
C856 C857 1.387 . S
C856 H860 0.950 . S
C856 C865 1.390 . S
C857 C856 1.387 . S
C857 C859 1.387 . S
H858 C865 0.950 . S
C859 C857 1.387 . S
C859 C861 1.390 . S
C859 H863 0.950 . S
H860 C856 0.950 . S
C861 C859 1.390 . S
C861 C862 1.387 . S
C861 H864 0.950 . S
C862 C861 1.387 . S
C862 C865 1.387 . S
H863 C859 0.950 . S
H864 C861 0.950 . S
C865 C856 1.390 . S
C865 H858 0.950 . S
C865 C862 1.387 . S
C866 C867 1.387 . S
C866 H870 0.950 . S
C866 C875 1.390 . S
C867 C866 1.387 . S
C867 C869 1.387 . S
H868 C875 0.950 . S
C869 C867 1.387 . S
C869 C871 1.390 . S
C869 H873 0.950 . S
H870 C866 0.950 . S
C871 C869 1.390 . S
C871 C872 1.387 . S
C871 H874 0.950 . S
C872 C871 1.387 . S
C872 C875 1.387 . S
H873 C869 0.950 . S
H874 C871 0.950 . S
C875 C866 1.390 . S
C875 H868 0.950 . S
C875 C872 1.387 . S
C876 C877 1.387 . S
C876 H880 0.950 . S
C876 C885 1.390 . S
C877 C876 1.387 . S
C877 C879 1.387 . S
H878 C885 0.950 . S
C879 C877 1.387 . S
C879 C881 1.390 . S
C879 H883 0.950 . S
H880 C876 0.950 . S
C881 C879 1.390 . S
C881 C882 1.387 . S
C881 H884 0.950 . S
C882 C881 1.387 . S
C882 C885 1.387 . S
H883 C879 0.950 . S
H884 C881 0.950 . S
C885 C876 1.390 . S
C885 H878 0.950 . S
C885 C882 1.387 . S
C886 C887 1.387 . S
C886 H890 0.950 . S
C886 C895 1.390 . S
C887 C886 1.387 . S
C887 C889 1.387 . S
H888 C895 0.950 . S
C889 C887 1.387 . S
C889 C891 1.390 . S
C889 H893 0.950 . S
H890 C886 0.950 . S
C891 C889 1.390 . S
C891 C892 1.387 . S
C891 H894 0.950 . S
C892 C891 1.387 . S
C892 C895 1.387 . S
H893 C889 0.950 . S
H894 C891 0.950 . S
C895 C886 1.390 . S
C895 H888 0.950 . S
C895 C892 1.387 . S
C896 C897 1.387 . S
C896 H900 0.950 . S
C896 C905 1.390 . S
C897 C896 1.387 . S
C897 C899 1.387 . S
H898 C905 0.950 . S
C899 C897 1.387 . S
C899 C901 1.390 . S
C899 H903 0.950 . S
H900 C896 0.950 . S
C901 C899 1.390 . S
C901 C902 1.387 . S
C901 H904 0.950 . S
C902 C901 1.387 . S
C902 C905 1.387 . S
H903 C899 0.950 . S
H904 C901 0.950 . S
C905 C896 1.390 . S
C905 H898 0.950 . S
C905 C902 1.387 . S
C906 C907 1.387 . S
C906 H910 0.950 . S
C906 C915 1.390 . S
C907 C906 1.387 . S
C907 C909 1.387 . S
H908 C915 0.950 . S
C909 C907 1.387 . S
C909 C911 1.390 . S
C909 H913 0.950 . S
H910 C906 0.950 . S
C911 C909 1.390 . S
C911 C912 1.387 . S
C911 H914 0.950 . S
C912 C911 1.387 . S
C912 C915 1.387 . S
H913 C909 0.950 . S
H914 C911 0.950 . S
C915 C906 1.390 . S
C915 H908 0.950 . S
C915 C912 1.387 . S
C916 C917 1.387 . S
C916 H920 0.950 . S
C916 C925 1.390 . S
C917 C916 1.387 . S
C917 C919 1.387 . S
H918 C925 0.950 . S
C919 C917 1.387 . S
C919 C921 1.390 . S
C919 H923 0.950 . S
H920 C916 0.950 . S
C921 C919 1.390 . S
C921 C922 1.387 . S
C921 H924 0.950 . S
C922 C921 1.387 . S
C922 C925 1.387 . S
H923 C919 0.950 . S
H924 C921 0.950 . S
C925 C916 1.390 . S
C925 H918 0.950 . S
C925 C922 1.387 . S
C926 C927 1.387 . S
C926 H930 0.950 . S
C926 C935 1.390 . S
C927 C926 1.387 . S
C927 C929 1.387 . S
H928 C935 0.950 . S
C929 C927 1.387 . S
C929 C931 1.390 . S
C929 H933 0.950 . S
H930 C926 0.950 . S
C931 C929 1.390 . S
C931 C932 1.387 . S
C931 H934 0.950 . S
C932 C931 1.387 . S
C932 C935 1.387 . S
H933 C929 0.950 . S
H934 C931 0.950 . S
C935 C926 1.390 . S
C935 H928 0.950 . S
C935 C932 1.387 . S
C936 C937 1.387 . S
C936 H940 0.950 . S
C936 C945 1.390 . S
C937 C936 1.387 . S
C937 C939 1.387 . S
H938 C945 0.950 . S
C939 C937 1.387 . S
C939 C941 1.390 . S
C939 H943 0.950 . S
H940 C936 0.950 . S
C941 C939 1.390 . S
C941 C942 1.387 . S
C941 H944 0.950 . S
C942 C941 1.387 . S
C942 C945 1.387 . S
H943 C939 0.950 . S
H944 C941 0.950 . S
C945 C936 1.390 . S
C945 H938 0.950 . S
C945 C942 1.387 . S
C946 C947 1.387 . S
C946 H950 0.950 . S
C946 C955 1.390 . S
C947 C946 1.387 . S
C947 C949 1.387 . S
H948 C955 0.950 . S
C949 C947 1.387 . S
C949 C951 1.390 . S
C949 H953 0.950 . S
H950 C946 0.950 . S
C951 C949 1.390 . S
C951 C952 1.387 . S
C951 H954 0.950 . S
C952 C951 1.387 . S
C952 C955 1.387 . S
H953 C949 0.950 . S
H954 C951 0.950 . S
C955 C946 1.390 . S
C955 H948 0.950 . S
C955 C952 1.387 . S
C956 C957 1.387 . S
C956 H960 0.950 . S
C956 C965 1.390 . S
C957 C956 1.387 . S
C957 C959 1.387 . S
H958 C965 0.950 . S
C959 C957 1.387 . S
C959 C961 1.390 . S
C959 H963 0.950 . S
H960 C956 0.950 . S
C961 C959 1.390 . S
C961 C962 1.387 . S
C961 H964 0.950 . S
C962 C961 1.387 . S
C962 C965 1.387 . S
H963 C959 0.950 . S
H964 C961 0.950 . S
C965 C956 1.390 . S
C965 H958 0.950 . S
C965 C962 1.387 . S
C966 C967 1.387 . S
C966 H970 0.950 . S
C966 C975 1.390 . S
C967 C966 1.387 . S
C967 C969 1.387 . S
H968 C975 0.950 . S
C969 C967 1.387 . S
C969 C971 1.390 . S
C969 H973 0.950 . S
H970 C966 0.950 . S
C971 C969 1.390 . S
C971 C972 1.387 . S
C971 H974 0.950 . S
C972 C971 1.387 . S
C972 C975 1.387 . S
H973 C969 0.950 . S
H974 C971 0.950 . S
C975 C966 1.390 . S
C975 H968 0.950 . S
C975 C972 1.387 . S
C976 C977 1.387 . S
C976 H980 0.950 . S
C976 C985 1.390 . S
C977 C976 1.387 . S
C977 C979 1.387 . S
H978 C985 0.950 . S
C979 C977 1.387 . S
C979 C981 1.390 . S
C979 H983 0.950 . S
H980 C976 0.950 . S
C981 C979 1.390 . S
C981 C982 1.387 . S
C981 H984 0.950 . S
C982 C981 1.387 . S
C982 C985 1.387 . S
H983 C979 0.950 . S
H984 C981 0.950 . S
C985 C976 1.390 . S
C985 H978 0.950 . S
C985 C982 1.387 . S
C986 C987 1.387 . S
C986 H990 0.950 . S
C986 C995 1.390 . S
C987 C986 1.387 . S
C987 C989 1.387 . S
H988 C995 0.950 . S
C989 C987 1.387 . S
C989 C991 1.390 . S
C989 H993 0.950 . S
H990 C986 0.950 . S
C991 C989 1.390 . S
C991 C992 1.387 . S
C991 H994 0.950 . S
C992 C991 1.387 . S
C992 C995 1.387 . S
H993 C989 0.950 . S
H994 C991 0.950 . S
C995 C986 1.390 . S
C995 H988 0.950 . S
C995 C992 1.387 . S
C996 C997 1.387 . S
C996 H1000 0.950 . S
C996 C1005 1.390 . S
C997 C996 1.387 . S
C997 C999 1.387 . S
H998 C1005 0.950 . S
C999 C997 1.387 . S
C999 C1001 1.390 . S
C999 H1003 0.950 . S
H1000 C996 0.950 . S
C1001 C999 1.390 . S
C1001 C1002 1.387 . S
C1001 H1004 0.950 . S
C1002 C1001 1.387 . S
C1002 C1005 1.387 . S
H1003 C999 0.950 . S
H1004 C1001 0.950 . S
C1005 C996 1.390 . S
C1005 H998 0.950 . S
C1005 C1002 1.387 . S
C1006 C1007 1.387 . S
C1006 H1010 0.950 . S
C1006 C1015 1.390 . S
C1007 C1006 1.387 . S
C1007 C1009 1.387 . S
H1008 C1015 0.950 . S
C1009 C1007 1.387 . S
C1009 C1011 1.390 . S
C1009 H1013 0.950 . S
H1010 C1006 0.950 . S
C1011 C1009 1.390 . S
C1011 C1012 1.387 . S
C1011 H1014 0.950 . S
C1012 C1011 1.387 . S
C1012 C1015 1.387 . S
H1013 C1009 0.950 . S
H1014 C1011 0.950 . S
C1015 C1006 1.390 . S
C1015 H1008 0.950 . S
C1015 C1012 1.387 . S
C1016 C1017 1.387 . S
C1016 H1020 0.950 . S
C1016 C1025 1.390 . S
C1017 C1016 1.387 . S
C1017 C1019 1.387 . S
H1018 C1025 0.950 . S
C1019 C1017 1.387 . S
C1019 C1021 1.390 . S
C1019 H1023 0.950 . S
H1020 C1016 0.950 . S
C1021 C1019 1.390 . S
C1021 C1022 1.387 . S
C1021 H1024 0.950 . S
C1022 C1021 1.387 . S
C1022 C1025 1.387 . S
H1023 C1019 0.950 . S
H1024 C1021 0.950 . S
C1025 C1016 1.390 . S
C1025 H1018 0.950 . S
C1025 C1022 1.387 . S
C1026 C1027 1.387 . S
C1026 H1030 0.950 . S
C1026 C1035 1.390 . S
C1027 C1026 1.387 . S
C1027 C1029 1.387 . S
H1028 C1035 0.950 . S
C1029 C1027 1.387 . S
C1029 C1031 1.390 . S
C1029 H1033 0.950 . S
H1030 C1026 0.950 . S
C1031 C1029 1.390 . S
C1031 C1032 1.387 . S
C1031 H1034 0.950 . S
C1032 C1031 1.387 . S
C1032 C1035 1.387 . S
H1033 C1029 0.950 . S
H1034 C1031 0.950 . S
C1035 C1026 1.390 . S
C1035 H1028 0.950 . S
C1035 C1032 1.387 . S
C1036 C1037 1.387 . S
C1036 H1040 0.950 . S
C1036 C1045 1.390 . S
C1037 C1036 1.387 . S
C1037 C1039 1.387 . S
H1038 C1045 0.950 . S
C1039 C1037 1.387 . S
C1039 C1041 1.390 . S
C1039 H1043 0.950 . S
H1040 C1036 0.950 . S
C1041 C1039 1.390 . S
C1041 C1042 1.387 . S
C1041 H1044 0.950 . S
C1042 C1041 1.387 . S
C1042 C1045 1.387 . S
H1043 C1039 0.950 . S
H1044 C1041 0.950 . S
C1045 C1036 1.390 . S
C1045 H1038 0.950 . S
C1045 C1042 1.387 . S
C1046 C1047 1.387 . S
C1046 H1050 0.950 . S
C1046 C1055 1.390 . S
C1047 C1046 1.387 . S
C1047 C1049 1.387 . S
H1048 C1055 0.950 . S
C1049 C1047 1.387 . S
C1049 C1051 1.390 . S
C1049 H1053 0.950 . S
H1050 C1046 0.950 . S
C1051 C1049 1.390 . S
C1051 C1052 1.387 . S
C1051 H1054 0.950 . S
C1052 C1051 1.387 . S
C1052 C1055 1.387 . S
H1053 C1049 0.950 . S
H1054 C1051 0.950 . S
C1055 C1046 1.390 . S
C1055 H1048 0.950 . S
C1055 C1052 1.387 . S
C417 C382 1.644 . S
C422 C5 1.644 . S
C427 C18 1.644 . S
C432 C395 1.644 . S
C437 C408 1.644 . S
C442 C29 1.644 . S
C447 C367 1.644 . S
C452 C44 1.644 . S
C457 C57 1.644 . S
C462 C356 1.644 . S
C467 C317 1.644 . S
C472 C68 1.644 . S
C477 C83 1.644 . S
C482 C328 1.644 . S
C487 C343 1.644 . S
C492 C96 1.644 . S
C497 C109 1.644 . S
C502 C278 1.644 . S
C507 C120 1.644 . S
C512 C289 1.644 . S
C517 C304 1.644 . S
C522 C135 1.644 . S
C527 C148 1.644 . S
C532 C265 1.644 . S
C537 C250 1.644 . S
C542 C161 1.644 . S
C547 C213 1.644 . S
C552 C172 1.644 . S
C557 C187 1.644 . S
C562 C226 1.644 . S
C567 C200 1.644 . S
C572 C237 1.644 . S
C577 C3 1.416 . S
C582 C133 1.415 . S
C587 C146 1.415 . S
C592 C16 1.416 . S
C597 C107 1.415 . S
C602 C31 1.416 . S
C607 C122 1.415 . S
C612 C42 1.416 . S
C617 C55 1.415 . S
C622 C185 1.416 . S
C627 C198 1.416 . S
C632 C70 1.415 . S
C637 C159 1.415 . S
C642 C81 1.415 . S
C647 C174 1.416 . S
C652 C94 1.415 . S
C657 C211 1.416 . S
C662 C341 1.415 . S
C667 C354 1.415 . S
C672 C224 1.416 . S
C677 C315 1.415 . S
C682 C239 1.415 . S
C687 C252 1.415 . S
C692 C330 1.416 . S
C697 C263 1.416 . S
C702 C393 1.415 . S
C707 C406 1.416 . S
C712 C276 1.415 . S
C717 C369 1.415 . S
C722 C291 1.416 . S
C727 C302 1.416 . S
C732 C380 1.415 . S
C737 C4 1.646 . S
C742 C56 1.646 . S
C747 C17 1.646 . S
C752 C75 1.646 . S
C757 C82 1.646 . S
C762 C36 1.646 . S
C767 C43 1.644 . S
C772 C95 1.644 . S
C777 C108 1.644 . S
C782 C160 1.644 . S
C787 C179 1.644 . S
C792 C127 1.644 . S
C797 C186 1.646 . S
C802 C134 1.646 . S
C807 C147 1.646 . S
C812 C199 1.646 . S
C817 C212 1.646 . S
C822 C264 1.646 . S
C827 C277 1.646 . S
C832 C225 1.646 . S
C837 C244 1.646 . S
C842 C296 1.646 . S
C847 C303 1.644 . S
C852 C257 1.644 . S
C857 C374 1.646 . S
C862 C316 1.646 . S
C867 C335 1.644 . S
C872 C381 1.644 . S
C877 C342 1.646 . S
C882 C394 1.646 . S
C887 C355 1.646 . S
C892 C407 1.646 . S
C897 C10 1.456 . S
C902 C69 1.456 . S
C907 C23 1.455 . S
C912 C88 1.456 . S
C917 C101 1.455 . S
C922 C30 1.456 . S
C927 C62 1.456 . S
C932 C49 1.456 . S
C937 C173 1.455 . S
C942 C114 1.456 . S
C947 C192 1.455 . S
C952 C121 1.456 . S
C957 C205 1.456 . S
C962 C140 1.456 . S
C967 C153 1.456 . S
C972 C166 1.456 . S
C977 C218 1.455 . S
C982 C283 1.456 . S
C987 C290 1.456 . S
C992 C231 1.456 . S
C997 C309 1.456 . S
C1002 C238 1.456 . S
C1007 C251 1.455 . S
C1012 C270 1.456 . S
C1017 C387 1.455 . S
C1022 C322 1.456 . S
C1027 C329 1.455 . S
C1032 C400 1.456 . S
C1037 C348 1.456 . S
C1042 C413 1.455 . S
C1047 C368 1.456 . S
C1052 C361 1.455 . S
