# Generated by pormake.
# Topology tzs, (4)-cn, num edge types: 1
# Building blocks:
#     Node 0, Type 0, BuildingBlock: NAHDIM_clean_sbu_0, # of connection points: 4
#     Node 1, Type 0, BuildingBlock: NAHDIM_clean_sbu_0, # of connection points: 4
#     Node 2, Type 0, BuildingBlock: NAHDIM_clean_sbu_0, # of connection points: 4
#     Node 3, Type 0, BuildingBlock: NAHDIM_clean_sbu_0, # of connection points: 4
#     Node 4, Type 0, BuildingBlock: NAHDIM_clean_sbu_0, # of connection points: 4
#     Node 5, Type 0, BuildingBlock: NAHDIM_clean_sbu_0, # of connection points: 4
#     Node 6, Type 0, BuildingBlock: NAHDIM_clean_sbu_0, # of connection points: 4
#     Node 7, Type 0, BuildingBlock: NAHDIM_clean_sbu_0, # of connection points: 4
#     Node 8, Type 0, BuildingBlock: NAHDIM_clean_sbu_0, # of connection points: 4
#     Node 9, Type 0, BuildingBlock: NAHDIM_clean_sbu_0, # of connection points: 4
#     Node 10, Type 0, BuildingBlock: NAHDIM_clean_sbu_0, # of connection points: 4
#     Node 11, Type 0, BuildingBlock: NAHDIM_clean_sbu_0, # of connection points: 4
#     Node 12, Type 0, BuildingBlock: NAHDIM_clean_sbu_0, # of connection points: 4
#     Node 13, Type 0, BuildingBlock: NAHDIM_clean_sbu_0, # of connection points: 4
#     Node 14, Type 0, BuildingBlock: NAHDIM_clean_sbu_0, # of connection points: 4
#     Node 15, Type 0, BuildingBlock: NAHDIM_clean_sbu_0, # of connection points: 4
#     Edge 16, Type (0, 0), BuildingBlock: TEMPAE_clean_linker_10, # of connection points: 2
#     Edge 17, Type (0, 0), BuildingBlock: TEMPAE_clean_linker_10, # of connection points: 2
#     Edge 18, Type (0, 0), BuildingBlock: TEMPAE_clean_linker_10, # of connection points: 2
#     Edge 19, Type (0, 0), BuildingBlock: TEMPAE_clean_linker_10, # of connection points: 2
#     Edge 20, Type (0, 0), BuildingBlock: TEMPAE_clean_linker_10, # of connection points: 2
#     Edge 21, Type (0, 0), BuildingBlock: TEMPAE_clean_linker_10, # of connection points: 2
#     Edge 22, Type (0, 0), BuildingBlock: TEMPAE_clean_linker_10, # of connection points: 2
#     Edge 23, Type (0, 0), BuildingBlock: TEMPAE_clean_linker_10, # of connection points: 2
#     Edge 24, Type (0, 0), BuildingBlock: TEMPAE_clean_linker_10, # of connection points: 2
#     Edge 25, Type (0, 0), BuildingBlock: TEMPAE_clean_linker_10, # of connection points: 2
#     Edge 26, Type (0, 0), BuildingBlock: TEMPAE_clean_linker_10, # of connection points: 2
#     Edge 27, Type (0, 0), BuildingBlock: TEMPAE_clean_linker_10, # of connection points: 2
#     Edge 28, Type (0, 0), BuildingBlock: TEMPAE_clean_linker_10, # of connection points: 2
#     Edge 29, Type (0, 0), BuildingBlock: TEMPAE_clean_linker_10, # of connection points: 2
#     Edge 30, Type (0, 0), BuildingBlock: TEMPAE_clean_linker_10, # of connection points: 2
#     Edge 31, Type (0, 0), BuildingBlock: TEMPAE_clean_linker_10, # of connection points: 2
#     Edge 32, Type (0, 0), BuildingBlock: TEMPAE_clean_linker_10, # of connection points: 2
#     Edge 33, Type (0, 0), BuildingBlock: TEMPAE_clean_linker_10, # of connection points: 2
#     Edge 34, Type (0, 0), BuildingBlock: TEMPAE_clean_linker_10, # of connection points: 2
#     Edge 35, Type (0, 0), BuildingBlock: TEMPAE_clean_linker_10, # of connection points: 2
#     Edge 36, Type (0, 0), BuildingBlock: TEMPAE_clean_linker_10, # of connection points: 2
#     Edge 37, Type (0, 0), BuildingBlock: TEMPAE_clean_linker_10, # of connection points: 2
#     Edge 38, Type (0, 0), BuildingBlock: TEMPAE_clean_linker_10, # of connection points: 2
#     Edge 39, Type (0, 0), BuildingBlock: TEMPAE_clean_linker_10, # of connection points: 2
#     Edge 40, Type (0, 0), BuildingBlock: TEMPAE_clean_linker_10, # of connection points: 2
#     Edge 41, Type (0, 0), BuildingBlock: TEMPAE_clean_linker_10, # of connection points: 2
#     Edge 42, Type (0, 0), BuildingBlock: TEMPAE_clean_linker_10, # of connection points: 2
#     Edge 43, Type (0, 0), BuildingBlock: TEMPAE_clean_linker_10, # of connection points: 2
#     Edge 44, Type (0, 0), BuildingBlock: TEMPAE_clean_linker_10, # of connection points: 2
#     Edge 45, Type (0, 0), BuildingBlock: TEMPAE_clean_linker_10, # of connection points: 2
#     Edge 46, Type (0, 0), BuildingBlock: TEMPAE_clean_linker_10, # of connection points: 2
#     Edge 47, Type (0, 0), BuildingBlock: TEMPAE_clean_linker_10, # of connection points: 2
# Relax obj value: 0.068
# Max RMSD: 0.082
# Mean RMSD: 0.082
data_MOF--net-tzs--node1-NAHDIM_clean_sbu_0--edge1-TEMPAE_clean_linker_10
_symmetry_space_group_name_H-M    P1
_symmetry_Int_Tables_number       1
_symmetry_cell_setting            triclinic
loop_
_symmetry_equiv_pos_as_xyz
'x, y, z'
_cell_length_a     49.956576
_cell_length_b     49.938929
_cell_length_c     39.954698
_cell_angle_alpha  89.911572
_cell_angle_beta   89.97115
_cell_angle_gamma 89.937537
loop_
_atom_site_label
_atom_site_type_symbol
_atom_site_fract_x
_atom_site_fract_y
_atom_site_fract_z
_atom_type_partial_charge
C0 C 0.18011 0.31821 0.20744 0.0
O1 O 0.18794 0.33883 0.18946 0.0
O2 O 0.14117 0.37895 0.21528 0.0
Zn3 Zn 0.13032 0.34331 0.1961 0.0
O4 O 0.13214 0.34436 0.14575 0.0
C5 C 0.08592 0.33383 0.24039 0.0
O6 O 0.10448 0.33648 0.26345 0.0
O7 O 0.15535 0.31538 0.21363 0.0
C8 C 0.1385 0.36539 0.12964 0.0
O9 O 0.14466 0.38722 0.1462 0.0
C10 C 0.12388 0.3971 0.22075 0.0
O11 O 0.09862 0.39239 0.21382 0.0
O12 O 0.09258 0.33517 0.20976 0.0
C13 C 0.66642 0.18149 0.20271 0.0
O14 O 0.65369 0.1661 0.22414 0.0
O15 O 0.60043 0.15897 0.17725 0.0
Zn16 Zn 0.6366 0.1494 0.15876 0.0
O17 O 0.63484 0.14545 0.10884 0.0
C18 C 0.63408 0.09383 0.17551 0.0
O19 O 0.61322 0.09514 0.15559 0.0
O20 O 0.66247 0.1781 0.17161 0.0
C21 C 0.65141 0.13075 0.0932 0.0
O22 O 0.67036 0.11842 0.11005 0.0
C23 C 0.57885 0.15207 0.16287 0.0
O24 O 0.58003 0.13932 0.13417 0.0
O25 O 0.648 0.11476 0.18021 0.0
C26 C 0.80115 0.67462 0.20786 0.0
O27 O 0.7949 0.66202 0.1801 0.0
O28 O 0.8382 0.60519 0.22354 0.0
Zn29 Zn 0.84741 0.6409 0.20377 0.0
O30 O 0.84405 0.63931 0.15374 0.0
C31 C 0.90198 0.66015 0.19665 0.0
O32 O 0.89384 0.66825 0.16705 0.0
O33 O 0.82299 0.66896 0.22253 0.0
C34 C 0.85496 0.62039 0.13744 0.0
O35 O 0.8683 0.60184 0.15379 0.0
C36 C 0.81818 0.59134 0.21447 0.0
O37 O 0.8021 0.60071 0.19122 0.0
O38 O 0.88547 0.64882 0.21627 0.0
C39 C 0.33427 0.79558 0.19194 0.0
O40 O 0.35198 0.78921 0.16895 0.0
O41 O 0.39603 0.83906 0.20063 0.0
Zn42 Zn 0.35874 0.84682 0.18451 0.0
O43 O 0.35766 0.84681 0.13435 0.0
C44 C 0.36127 0.90331 0.18963 0.0
O45 O 0.37922 0.89937 0.1661 0.0
O46 O 0.33339 0.81949 0.20264 0.0
C47 C 0.33887 0.85835 0.11849 0.0
O48 O 0.31939 0.86976 0.13537 0.0
C49 C 0.41627 0.84332 0.1821 0.0
O50 O 0.41259 0.85146 0.15117 0.0
O51 O 0.3488 0.88328 0.20152 0.0
C52 C 0.19839 0.66385 0.27905 0.0
O53 O 0.20391 0.64717 0.30357 0.0
O54 O 0.15479 0.60251 0.27429 0.0
Zn55 Zn 0.14683 0.64065 0.2871 0.0
O56 O 0.14681 0.64449 0.33708 0.0
C57 C 0.09486 0.63329 0.25748 0.0
O58 O 0.10312 0.60835 0.25588 0.0
O59 O 0.17473 0.66467 0.26749 0.0
C60 C 0.13009 0.63154 0.35476 0.0
O61 O 0.11279 0.61574 0.33986 0.0
C62 C 0.16414 0.58475 0.29387 0.0
O63 O 0.17095 0.59137 0.32451 0.0
O64 O 0.11032 0.65097 0.26968 0.0
C65 C 0.31699 0.18889 0.2986 0.0
O66 O 0.33111 0.19494 0.32527 0.0
O67 O 0.38584 0.15465 0.28056 0.0
Zn68 Zn 0.35062 0.14245 0.29942 0.0
O69 O 0.35176 0.14207 0.34965 0.0
C70 C 0.35493 0.08531 0.29626 0.0
O71 O 0.37002 0.0893 0.32269 0.0
O72 O 0.32171 0.16708 0.28339 0.0
C73 C 0.33352 0.13014 0.36605 0.0
O74 O 0.31387 0.11859 0.3497 0.0
C75 C 0.40773 0.14725 0.29387 0.0
O76 O 0.40708 0.13278 0.32134 0.0
O77 O 0.34378 0.10526 0.28222 0.0
C78 C 0.78779 0.32673 0.28934 0.0
O79 O 0.77761 0.34962 0.29933 0.0
O80 O 0.82736 0.38704 0.29234 0.0
Zn81 Zn 0.83646 0.35102 0.31202 0.0
O82 O 0.83188 0.35129 0.36194 0.0
C83 C 0.89163 0.36095 0.29604 0.0
O84 O 0.88338 0.38593 0.29686 0.0
O85 O 0.8128 0.32277 0.29225 0.0
C86 C 0.84397 0.36854 0.37972 0.0
O87 O 0.85903 0.38658 0.36495 0.0
C88 C 0.81178 0.40396 0.30595 0.0
O89 O 0.79987 0.39783 0.33426 0.0
O90 O 0.87493 0.34227 0.30158 0.0
C91 C 0.6755 0.81422 0.30008 0.0
O92 O 0.65452 0.80724 0.3179 0.0
O93 O 0.61562 0.85425 0.28619 0.0
Zn94 Zn 0.65069 0.86497 0.30658 0.0
O95 O 0.64676 0.86423 0.35648 0.0
C96 C 0.65448 0.92299 0.30544 0.0
O97 O 0.64388 0.92117 0.33546 0.0
O98 O 0.67858 0.83868 0.29226 0.0
C99 C 0.66603 0.86931 0.37618 0.0
O100 O 0.68948 0.87573 0.36362 0.0
C101 C 0.59528 0.86892 0.29147 0.0
O102 O 0.59784 0.89022 0.31045 0.0
O103 O 0.65987 0.9017 0.28941 0.0
C104 C 0.82902 0.6732 0.78053 0.0
O105 O 0.84972 0.67184 0.76031 0.0
O106 O 0.8927 0.64351 0.79655 0.0
Zn107 Zn 0.85802 0.63283 0.81816 0.0
O108 O 0.86208 0.63201 0.8681 0.0
C109 C 0.86547 0.57727 0.81101 0.0
O110 O 0.88526 0.5832 0.83133 0.0
O111 O 0.82832 0.65826 0.80628 0.0
C112 C 0.84398 0.62066 0.88538 0.0
O113 O 0.8234 0.60994 0.86996 0.0
C114 C 0.90552 0.66507 0.80168 0.0
O115 O 0.89591 0.6828 0.82278 0.0
O116 O 0.84969 0.59581 0.80174 0.0
C117 C 0.31255 0.82416 0.7499 0.0
O118 O 0.32522 0.83976 0.72865 0.0
O119 O 0.3394 0.88732 0.78111 0.0
Zn120 Zn 0.34579 0.85037 0.79928 0.0
O121 O 0.34171 0.85063 0.84914 0.0
C122 C 0.39532 0.84882 0.76277 0.0
O123 O 0.38267 0.86638 0.74403 0.0
O124 O 0.31851 0.82516 0.78076 0.0
C125 C 0.35145 0.86922 0.86703 0.0
O126 O 0.36462 0.88881 0.85248 0.0
C127 C 0.31894 0.90126 0.7884 0.0
O128 O 0.30083 0.89131 0.80877 0.0
O129 O 0.38322 0.83853 0.78764 0.0
C130 C 0.17289 0.32146 0.7663 0.0
O131 O 0.15543 0.33002 0.74414 0.0
O132 O 0.10993 0.35077 0.79456 0.0
Zn133 Zn 0.1471 0.36017 0.80949 0.0
O134 O 0.14842 0.36279 0.85974 0.0
C135 C 0.13966 0.41467 0.79518 0.0
O136 O 0.11943 0.40984 0.81532 0.0
O137 O 0.17308 0.3318 0.7953 0.0
C138 C 0.12764 0.36595 0.87767 0.0
O139 O 0.10415 0.36809 0.86313 0.0
C140 C 0.09812 0.32875 0.80044 0.0
O141 O 0.11081 0.30981 0.8169 0.0
O142 O 0.15597 0.39582 0.78876 0.0
C143 C 0.69194 0.15484 0.76741 0.0
O144 O 0.69792 0.13858 0.79218 0.0
O145 O 0.65224 0.08992 0.75731 0.0
Zn146 Zn 0.64298 0.12688 0.7739 0.0
O147 O 0.64604 0.12821 0.82397 0.0
C148 C 0.5881 0.11729 0.7566 0.0
O149 O 0.59617 0.09231 0.75892 0.0
O150 O 0.66871 0.15366 0.75453 0.0
C151 C 0.63419 0.11156 0.84292 0.0
O152 O 0.61937 0.09271 0.82949 0.0
C153 C 0.66873 0.07455 0.77212 0.0
O154 O 0.68104 0.08308 0.79911 0.0
O155 O 0.60491 0.136 0.76138 0.0
C156 C 0.8295 0.29052 0.69457 0.0
O157 O 0.846 0.28557 0.66971 0.0
O158 O 0.89606 0.32636 0.71008 0.0
Zn159 Zn 0.85958 0.33873 0.69578 0.0
O160 O 0.85889 0.34209 0.64579 0.0
C161 C 0.86691 0.39424 0.70584 0.0
O162 O 0.8847 0.38987 0.68223 0.0
O163 O 0.83159 0.31251 0.71029 0.0
C164 C 0.84007 0.35471 0.63133 0.0
O165 O 0.821 0.36548 0.64956 0.0
C166 C 0.90302 0.32885 0.74049 0.0
O167 O 0.88567 0.33844 0.76211 0.0
O168 O 0.85275 0.37481 0.71621 0.0
C169 C 0.68301 0.80738 0.73255 0.0
O170 O 0.68252 0.83055 0.74805 0.0
O171 O 0.65091 0.86785 0.70989 0.0
Zn172 Zn 0.64198 0.83164 0.69099 0.0
O173 O 0.64573 0.83364 0.64104 0.0
C174 C 0.59406 0.83204 0.72994 0.0
O175 O 0.60984 0.84494 0.75068 0.0
O176 O 0.66707 0.80334 0.70831 0.0
C177 C 0.63704 0.854 0.6253 0.0
O178 O 0.62498 0.87316 0.64206 0.0
C179 C 0.67064 0.88182 0.70003 0.0
O180 O 0.68686 0.87205 0.6772 0.0
O181 O 0.60369 0.82326 0.70263 0.0
C182 C 0.16231 0.70113 0.68267 0.0
O183 O 0.13853 0.71047 0.67482 0.0
O184 O 0.1024 0.66112 0.69807 0.0
Zn185 Zn 0.13611 0.65044 0.67399 0.0
O186 O 0.13022 0.64961 0.6243 0.0
C187 C 0.1331 0.59354 0.68003 0.0
O188 O 0.11397 0.59714 0.65792 0.0
O189 O 0.16589 0.67597 0.68416 0.0
C190 C 0.14728 0.63775 0.60596 0.0
O191 O 0.16816 0.62639 0.6201 0.0
C192 C 0.08317 0.67384 0.68459 0.0
O193 O 0.08527 0.68154 0.65324 0.0
O194 O 0.14609 0.61373 0.69044 0.0
C195 C 0.29505 0.16679 0.71107 0.0
O196 O 0.28487 0.14262 0.70878 0.0
O197 O 0.33188 0.10503 0.70666 0.0
Zn198 Zn 0.34148 0.14016 0.68489 0.0
O199 O 0.33557 0.13836 0.63536 0.0
C200 C 0.39035 0.14434 0.72211 0.0
O201 O 0.37413 0.13955 0.74732 0.0
O202 O 0.31939 0.17048 0.70306 0.0
C203 C 0.34837 0.12173 0.61743 0.0
O204 O 0.36525 0.10515 0.63187 0.0
C205 C 0.31607 0.08801 0.69373 0.0
O206 O 0.30426 0.09365 0.6652 0.0
O207 O 0.38064 0.14643 0.69285 0.0
C208 C 0.28305 0.20207 0.25568 0.0
C209 C 0.29632 0.20751 0.28585 0.0
C210 C 0.26386 0.21982 0.24284 0.0
C211 C 0.25771 0.24349 0.26069 0.0
C212 C 0.27081 0.24898 0.29131 0.0
C213 C 0.29003 0.23093 0.30351 0.0
C214 C 0.25034 0.21336 0.21003 0.0
C215 C 0.26464 0.27399 0.31108 0.0
C216 C 0.2271 0.30154 0.21278 0.0
C217 C 0.1999 0.29895 0.22085 0.0
C218 C 0.24614 0.28361 0.2256 0.0
C219 C 0.23777 0.26266 0.24707 0.0
C220 C 0.21036 0.25993 0.25533 0.0
C221 C 0.19173 0.27809 0.24207 0.0
C222 C 0.27521 0.28706 0.21614 0.0
C223 C 0.20074 0.23786 0.27823 0.0
H224 H 0.28782 0.18403 0.24185 0.0
H225 H 0.30014 0.23523 0.32688 0.0
H226 H 0.22833 0.21248 0.21355 0.0
H227 H 0.25443 0.22944 0.19154 0.0
H228 H 0.25721 0.19399 0.19942 0.0
H229 H 0.27625 0.27506 0.33475 0.0
H230 H 0.26925 0.29198 0.29582 0.0
H231 H 0.24299 0.27474 0.31721 0.0
H232 H 0.23357 0.31759 0.19639 0.0
H233 H 0.17075 0.27599 0.24848 0.0
H234 H 0.28267 0.26869 0.20362 0.0
H235 H 0.28748 0.29 0.23897 0.0
H236 H 0.27842 0.30438 0.19912 0.0
H237 H 0.20596 0.21806 0.26748 0.0
H238 H 0.17876 0.2386 0.28236 0.0
H239 H 0.21091 0.23934 0.30283 0.0
C240 C 0.7809 0.28049 0.26704 0.0
C241 C 0.77031 0.30563 0.27542 0.0
C242 C 0.76444 0.26011 0.2545 0.0
C243 C 0.73676 0.26506 0.25016 0.0
C244 C 0.72599 0.29047 0.25819 0.0
C245 C 0.7429 0.31045 0.27079 0.0
C246 C 0.7766 0.23321 0.24627 0.0
C247 C 0.69657 0.29647 0.25374 0.0
C248 C 0.69735 0.21993 0.19194 0.0
C249 C 0.68469 0.20267 0.21471 0.0
C250 C 0.71442 0.24032 0.20312 0.0
C251 C 0.71895 0.24345 0.23786 0.0
C252 C 0.70637 0.22601 0.26094 0.0
C253 C 0.68936 0.20584 0.24908 0.0
C254 C 0.7275 0.2586 0.17781 0.0
C255 C 0.7108 0.22872 0.29817 0.0
H256 H 0.80207 0.2766 0.27054 0.0
H257 H 0.73457 0.32985 0.2771 0.0
H258 H 0.7672 0.21742 0.2619 0.0
H259 H 0.77261 0.22808 0.21974 0.0
H260 H 0.79857 0.23277 0.25052 0.0
H261 H 0.69147 0.31745 0.26042 0.0
H262 H 0.69058 0.2929 0.22738 0.0
H263 H 0.68451 0.28279 0.26962 0.0
H264 H 0.69384 0.21761 0.16534 0.0
H265 H 0.67969 0.19257 0.26683 0.0
H266 H 0.74959 0.25752 0.18029 0.0
H267 H 0.72155 0.27965 0.18263 0.0
H268 H 0.722 0.25341 0.15168 0.0
H269 H 0.73244 0.22684 0.30397 0.0
H270 H 0.6997 0.21337 0.31277 0.0
H271 H 0.70431 0.24885 0.30666 0.0
C272 C 0.78865 0.70702 0.25291 0.0
C273 C 0.78294 0.69505 0.22199 0.0
C274 C 0.77152 0.72637 0.26664 0.0
C275 C 0.74819 0.73397 0.24893 0.0
C276 C 0.74231 0.72199 0.21771 0.0
C277 C 0.75973 0.70262 0.20464 0.0
C278 C 0.77837 0.73867 0.30006 0.0
C279 C 0.71764 0.72971 0.19808 0.0
C280 C 0.6909 0.76669 0.29599 0.0
C281 C 0.69464 0.79379 0.28801 0.0
C282 C 0.70836 0.747 0.28369 0.0
C283 C 0.73001 0.75463 0.26293 0.0
C284 C 0.73408 0.78197 0.25511 0.0
C285 C 0.71635 0.80123 0.26777 0.0
C286 C 0.70347 0.71802 0.29262 0.0
C287 C 0.75698 0.79083 0.23303 0.0
H288 H 0.80652 0.70123 0.26652 0.0
H289 H 0.75519 0.69349 0.18072 0.0
H290 H 0.78063 0.76066 0.29733 0.0
H291 H 0.76185 0.73516 0.3181 0.0
H292 H 0.79715 0.73038 0.31076 0.0
H293 H 0.71592 0.71846 0.17422 0.0
H294 H 0.69943 0.72592 0.21327 0.0
H295 H 0.71807 0.75145 0.19229 0.0
H296 H 0.67419 0.76078 0.31164 0.0
H297 H 0.71939 0.82213 0.26151 0.0
H298 H 0.72147 0.70941 0.30484 0.0
H299 H 0.69978 0.70626 0.26954 0.0
H300 H 0.68607 0.71548 0.30966 0.0
H301 H 0.7763 0.7841 0.24385 0.0
H302 H 0.75763 0.81292 0.2298 0.0
H303 H 0.75514 0.78144 0.20798 0.0
C304 C 0.29727 0.78208 0.2305 0.0
C305 C 0.31535 0.77533 0.20497 0.0
C306 C 0.27887 0.76331 0.24274 0.0
C307 C 0.27847 0.73719 0.22907 0.0
C308 C 0.2968 0.73015 0.20354 0.0
C309 C 0.31507 0.74932 0.1918 0.0
C310 C 0.25966 0.77151 0.2701 0.0
C311 C 0.29689 0.70248 0.18835 0.0
C312 C 0.24469 0.68283 0.28031 0.0
C313 C 0.21924 0.68189 0.26556 0.0
C314 C 0.26434 0.70049 0.26839 0.0
C315 C 0.25838 0.7175 0.24102 0.0
C316 C 0.2329 0.71633 0.22567 0.0
C317 C 0.2136 0.69857 0.23817 0.0
C318 C 0.29131 0.70128 0.28542 0.0
C319 C 0.22587 0.7341 0.19633 0.0
H320 H 0.2974 0.80211 0.24089 0.0
H321 H 0.32899 0.74395 0.17209 0.0
H322 H 0.23875 0.76978 0.26101 0.0
H323 H 0.26173 0.75789 0.29191 0.0
H324 H 0.26303 0.79239 0.27863 0.0
H325 H 0.31285 0.70001 0.16922 0.0
H326 H 0.29982 0.68718 0.20818 0.0
H327 H 0.27725 0.69841 0.17645 0.0
H328 H 0.2492 0.67 0.30147 0.0
H329 H 0.19402 0.69789 0.22654 0.0
H330 H 0.29471 0.72142 0.29629 0.0
H331 H 0.30746 0.69769 0.2669 0.0
H332 H 0.29304 0.68614 0.30572 0.0
H333 H 0.22696 0.75543 0.20394 0.0
H334 H 0.20548 0.73006 0.1865 0.0
H335 H 0.24053 0.73119 0.17579 0.0
C336 C 0.70287 0.76168 0.72605 0.0
C337 C 0.70316 0.78686 0.74158 0.0
C338 C 0.72273 0.74257 0.73292 0.0
C339 C 0.74344 0.74885 0.75573 0.0
C340 C 0.74361 0.77403 0.77194 0.0
C341 C 0.72341 0.79272 0.76474 0.0
C342 C 0.72178 0.71583 0.71536 0.0
C343 C 0.76543 0.78145 0.79636 0.0
C344 C 0.78391 0.69218 0.79395 0.0
C345 C 0.80699 0.69231 0.7739 0.0
C346 C 0.76301 0.7104 0.78825 0.0
C347 C 0.76532 0.7293 0.762 0.0
C348 C 0.78853 0.72956 0.74166 0.0
C349 C 0.80906 0.71099 0.74779 0.0
C350 C 0.73847 0.70944 0.81032 0.0
C351 C 0.79174 0.74953 0.71352 0.0
H352 H 0.68724 0.75694 0.70822 0.0
H353 H 0.72381 0.81213 0.77682 0.0
H354 H 0.73985 0.71334 0.69951 0.0
H355 H 0.72189 0.69935 0.73401 0.0
H356 H 0.70377 0.7137 0.69929 0.0
H357 H 0.76227 0.80157 0.80752 0.0
H358 H 0.76645 0.76646 0.81685 0.0
H359 H 0.78511 0.78127 0.78347 0.0
H360 H 0.78212 0.67777 0.81415 0.0
H361 H 0.82685 0.71129 0.73225 0.0
H362 H 0.72036 0.70606 0.79483 0.0
H363 H 0.7358 0.72892 0.82322 0.0
H364 H 0.73971 0.69336 0.8295 0.0
H365 H 0.77519 0.7472 0.69524 0.0
H366 H 0.81108 0.74714 0.70011 0.0
H367 H 0.79055 0.77021 0.72352 0.0
C368 C 0.17983 0.74702 0.69458 0.0
C369 C 0.18464 0.71959 0.6901 0.0
C370 C 0.20073 0.76455 0.70284 0.0
C371 C 0.22705 0.75442 0.70635 0.0
C372 C 0.23214 0.72687 0.70105 0.0
C373 C 0.21084 0.70976 0.69315 0.0
C374 C 0.19454 0.79379 0.7086 0.0
C375 C 0.26 0.71539 0.7043 0.0
C376 C 0.2853 0.80325 0.70427 0.0
C377 C 0.29091 0.80617 0.73846 0.0
C378 C 0.26458 0.78641 0.69337 0.0
C379 C 0.24906 0.77235 0.71726 0.0
C380 C 0.2546 0.77526 0.75178 0.0
C381 C 0.27551 0.79205 0.76195 0.0
C382 C 0.25931 0.78362 0.65633 0.0
C383 C 0.23839 0.76068 0.77802 0.0
H384 H 0.15963 0.75475 0.69228 0.0
H385 H 0.21474 0.68861 0.68946 0.0
H386 H 0.19919 0.79917 0.7349 0.0
H387 H 0.20728 0.80648 0.6923 0.0
H388 H 0.17321 0.79868 0.7036 0.0
H389 H 0.26082 0.69383 0.69755 0.0
H390 H 0.2741 0.72654 0.68797 0.0
H391 H 0.26714 0.71767 0.73043 0.0
H392 H 0.29714 0.81407 0.68597 0.0
H393 H 0.27964 0.79424 0.78843 0.0
H394 H 0.23851 0.78989 0.65055 0.0
H395 H 0.26128 0.76233 0.6488 0.0
H396 H 0.27329 0.79581 0.64097 0.0
H397 H 0.21694 0.76615 0.77568 0.0
H398 H 0.24511 0.76535 0.80386 0.0
H399 H 0.23993 0.73874 0.77414 0.0
C400 C 0.20869 0.28904 0.78288 0.0
C401 C 0.19157 0.29937 0.75818 0.0
C402 C 0.22601 0.26764 0.77596 0.0
C403 C 0.22631 0.25636 0.74351 0.0
C404 C 0.2093 0.26684 0.71834 0.0
C405 C 0.19208 0.28821 0.726 0.0
C406 C 0.2438 0.25692 0.80347 0.0
C407 C 0.20919 0.25538 0.68339 0.0
C408 C 0.28715 0.21604 0.71694 0.0
C409 C 0.2779 0.18969 0.7207 0.0
C410 C 0.27058 0.23795 0.7243 0.0
C411 C 0.24423 0.23338 0.73599 0.0
C412 C 0.23492 0.20685 0.7404 0.0
C413 C 0.25184 0.18531 0.73257 0.0
C414 C 0.28113 0.26599 0.71916 0.0
C415 C 0.20703 0.20121 0.75316 0.0
H416 H 0.20843 0.29751 0.80784 0.0
H417 H 0.17895 0.29609 0.70677 0.0
H418 H 0.2392 0.23551 0.80811 0.0
H419 H 0.26509 0.25808 0.79571 0.0
H420 H 0.24132 0.2681 0.82729 0.0
H421 H 0.19515 0.26614 0.66652 0.0
H422 H 0.2296 0.25639 0.67249 0.0
H423 H 0.20338 0.23395 0.68425 0.0
H424 H 0.30723 0.2196 0.70766 0.0
H425 H 0.24458 0.16501 0.73565 0.0
H426 H 0.28007 0.27736 0.74295 0.0
H427 H 0.2685 0.27674 0.70066 0.0
H428 H 0.30217 0.26612 0.71014 0.0
H429 H 0.20403 0.21093 0.77784 0.0
H430 H 0.20306 0.17943 0.75586 0.0
H431 H 0.19202 0.20984 0.73576 0.0
C432 C 0.73754 0.17515 0.7695 0.0
C433 C 0.71186 0.17451 0.75534 0.0
C434 C 0.75659 0.19394 0.75894 0.0
C435 C 0.74978 0.21258 0.73363 0.0
C436 C 0.72398 0.21196 0.71903 0.0
C437 C 0.7053 0.19289 0.73005 0.0
C438 C 0.78394 0.19396 0.77504 0.0
C439 C 0.71604 0.23157 0.69198 0.0
C440 C 0.79066 0.27648 0.73 0.0
C441 C 0.80877 0.27079 0.70411 0.0
C442 C 0.77109 0.25785 0.73952 0.0
C443 C 0.76964 0.23293 0.72281 0.0
C444 C 0.78768 0.22715 0.69646 0.0
C445 C 0.80702 0.24617 0.6874 0.0
C446 C 0.75215 0.26471 0.76772 0.0
C447 C 0.78674 0.20074 0.67812 0.0
H448 H 0.74281 0.161 0.78901 0.0
H449 H 0.6855 0.19253 0.71898 0.0
H450 H 0.79964 0.19132 0.75567 0.0
H451 H 0.78761 0.21353 0.78732 0.0
H452 H 0.78618 0.17785 0.79404 0.0
H453 H 0.69531 0.22819 0.68288 0.0
H454 H 0.71751 0.25234 0.70162 0.0
H455 H 0.72999 0.22995 0.67046 0.0
H456 H 0.79181 0.29549 0.74297 0.0
H457 H 0.82091 0.24164 0.66733 0.0
H458 H 0.75475 0.25026 0.78858 0.0
H459 H 0.73112 0.26307 0.75904 0.0
H460 H 0.75543 0.28526 0.7775 0.0
H461 H 0.79055 0.18407 0.69589 0.0
H462 H 0.80174 0.19965 0.65762 0.0
H463 H 0.76654 0.19757 0.66734 0.0
C464 C 0.15453 0.36192 0.93024 0.0
C465 C 0.12983 0.3666 0.91458 0.0
C466 C 0.15676 0.36184 0.96524 0.0
C467 C 0.13375 0.36668 0.985 0.0
C468 C 0.10882 0.37168 0.96938 0.0
C469 C 0.10714 0.37152 0.93434 0.0
C470 C 0.18366 0.35635 0.98106 0.0
C471 C 0.08388 0.37705 0.98968 0.0
C472 C 0.13252 0.34199 0.07484 0.0
C473 C 0.13808 0.36554 0.09261 0.0
C474 C 0.13132 0.34203 0.03977 0.0
C475 C 0.13567 0.36621 0.02209 0.0
C476 C 0.14152 0.39 0.03983 0.0
C477 C 0.1427 0.38937 0.0749 0.0
C478 C 0.12517 0.31624 0.02164 0.0
C479 C 0.14622 0.41617 0.02178 0.0
H480 H 0.17216 0.35806 0.91517 0.0
H481 H 0.08799 0.37522 0.92244 0.0
H482 H 0.18948 0.3733 -0.00259 0.0
H483 H 0.18243 0.33825 -0.00288 0.0
H484 H 0.19966 0.35323 0.96213 0.0
H485 H 0.06614 0.38103 0.97368 0.0
H486 H 0.07946 0.3596 0.00599 0.0
H487 H 0.08708 0.39454 0.00628 0.0
H488 H 0.12899 0.32348 0.08832 0.0
H489 H 0.14699 0.40766 0.08843 0.0
H490 H 0.14142 0.31155 0.00364 0.0
H491 H 0.10643 0.31849 0.00701 0.0
H492 H 0.12283 0.29904 0.03906 0.0
H493 H 0.16302 0.41402 0.00381 0.0
H494 H 0.15091 0.4328 0.03926 0.0
H495 H 0.12818 0.42169 0.00711 0.0
C496 C 0.62396 0.09542 0.90088 0.0
C497 C 0.63715 0.11352 0.87968 0.0
C498 C 0.62636 0.09737 0.93579 0.0
C499 C 0.64232 0.11791 0.94976 0.0
C500 C 0.65587 0.13609 0.92851 0.0
C501 C 0.65313 0.13367 0.89373 0.0
C502 C 0.61164 0.07762 0.95772 0.0
C503 C 0.67308 0.15825 0.94251 0.0
C504 C 0.62857 0.14029 0.0388 0.0
C505 C 0.64907 0.12732 0.05654 0.0
C506 C 0.62604 0.13723 0.00407 0.0
C507 C 0.64444 0.1208 0.98666 0.0
C508 C 0.6651 0.10753 0.00439 0.0
C509 C 0.66717 0.11096 0.03915 0.0
C510 C 0.60376 0.15171 0.98598 0.0
C511 C 0.68508 0.08984 0.98661 0.0
H512 H 0.61162 0.07976 0.89023 0.0
H513 H 0.66346 0.14771 0.87754 0.0
H514 H 0.62598 0.06707 0.97436 0.0
H515 H 0.59724 0.08839 0.97403 0.0
H516 H 0.6005 0.06247 0.94292 0.0
H517 H 0.68269 0.17042 0.92255 0.0
H518 H 0.66074 0.1717 0.95835 0.0
H519 H 0.68897 0.1497 0.95872 0.0
H520 H 0.61445 0.15292 0.05204 0.0
H521 H 0.68303 0.10082 0.05267 0.0
H522 H 0.59103 0.13712 0.97243 0.0
H523 H 0.6123 0.16554 0.96703 0.0
H524 H 0.59088 0.16344 0.00327 0.0
H525 H 0.67448 0.07365 0.97303 0.0
H526 H 0.6997 0.08061 0.00411 0.0
H527 H 0.69623 0.1017 0.9677 0.0
C528 C 0.82607 0.60685 0.94125 0.0
C529 C 0.84591 0.61974 0.92233 0.0
C530 C 0.82739 0.60617 0.97632 0.0
C531 C 0.84906 0.61873 0.99283 0.0
C532 C 0.86927 0.63158 0.97389 0.0
C533 C 0.86747 0.63192 0.93885 0.0
C534 C 0.8055 0.59223 -0.00429 0.0
C535 C 0.89266 0.6452 0.99065 0.0
C536 C 0.8397 0.64012 0.08314 0.0
C537 C 0.85313 0.61968 0.10049 0.0
C538 C 0.83817 0.63999 0.0481 0.0
C539 C 0.8503 0.6189 0.02997 0.0
C540 C 0.86373 0.59811 0.0473 0.0
C541 C 0.86501 0.59877 0.08238 0.0
C542 C 0.82367 0.66251 0.03047 0.0
C543 C 0.87685 0.57526 0.02876 0.0
H544 H 0.80938 0.59734 0.9287 0.0
H545 H 0.8829 0.6419 0.92442 0.0
H546 H 0.81422 0.57642 0.01192 0.0
H547 H 0.79525 0.60676 0.01236 0.0
H548 H 0.79033 0.58294 0.97907 0.0
H549 H 0.90694 0.65388 0.9723 0.0
H550 H 0.88532 0.66146 0.00718 0.0
H551 H 0.90358 0.63069 0.00668 0.0
H552 H 0.83046 0.65636 0.09693 0.0
H553 H 0.87539 0.58288 0.09558 0.0
H554 H 0.80719 0.65434 0.01497 0.0
H555 H 0.83761 0.67307 0.01333 0.0
H556 H 0.81515 0.67732 0.04826 0.0
H557 H 0.86183 0.56474 0.01315 0.0
H558 H 0.88625 0.56051 0.04597 0.0
H559 H 0.89245 0.58312 0.01161 0.0
C560 C 0.36101 0.84829 0.06385 0.0
C561 C 0.33967 0.85987 0.08153 0.0
C562 C 0.36249 0.85013 0.02889 0.0
C563 C 0.34215 0.86386 0.01117 0.0
C564 C 0.32049 0.87549 0.0288 0.0
C565 C 0.3195 0.87335 0.06381 0.0
C566 C 0.38589 0.83743 0.01092 0.0
C567 C 0.29842 0.89025 0.01068 0.0
C568 C 0.35946 0.88855 0.92392 0.0
C569 C 0.34835 0.8684 0.90385 0.0
C570 C 0.35722 0.88756 0.95891 0.0
C571 C 0.34357 0.8659 0.97414 0.0
C572 C 0.33198 0.84572 0.95402 0.0
C573 C 0.33451 0.84721 0.91912 0.0
C574 C 0.3698 0.90946 0.97962 0.0
C575 C 0.31726 0.82233 0.96939 0.0
H576 H 0.3767 0.83786 0.07733 0.0
H577 H 0.30297 0.88237 0.07729 0.0
H578 H 0.37856 0.82238 0.99272 0.0
H579 H 0.39698 0.85287 -0.00346 0.0
H580 H 0.40003 0.82745 0.02841 0.0
H581 H 0.28294 0.8981 0.02808 0.0
H582 H 0.30694 0.90726 -0.00367 0.0
H583 H 0.28861 0.87673 0.99242 0.0
H584 H 0.37012 0.90502 0.91232 0.0
H585 H 0.32579 0.83159 0.90382 0.0
H586 H 0.38551 0.90084 -0.00396 0.0
H587 H 0.35454 0.91876 -0.00389 0.0
H588 H 0.37898 0.92536 0.96389 0.0
H589 H 0.33109 0.8106 0.98545 0.0
H590 H 0.30867 0.80876 0.9502 0.0
H591 H 0.30081 0.82965 0.98565 0.0
C592 C 0.16087 0.62108 0.54952 0.0
C593 C 0.14374 0.63677 0.56923 0.0
C594 C 0.15793 0.6201 0.51464 0.0
C595 C 0.1375 0.63533 0.4991 0.0
C596 C 0.12008 0.65114 0.51884 0.0
C597 C 0.12334 0.6516 0.55371 0.0
C598 C 0.17678 0.60286 0.4944 0.0
C599 C 0.09818 0.66778 0.50309 0.0
C600 C 0.14747 0.6522 0.40735 0.0
C601 C 0.13111 0.63317 0.39169 0.0
C602 C 0.14936 0.65343 0.44233 0.0
C603 C 0.13471 0.63503 0.46209 0.0
C604 C 0.11794 0.61594 0.44648 0.0
C605 C 0.11625 0.61531 0.41143 0.0
C606 C 0.16727 0.67422 0.45812 0.0
C607 C 0.10217 0.59588 0.46677 0.0
H608 H 0.1766 0.60948 0.56133 0.0
H609 H 0.11005 0.6638 0.56879 0.0
H610 H 0.16522 0.58821 0.47938 0.0
H611 H 0.18821 0.6155 0.47657 0.0
H612 H 0.1912 0.59174 0.51039 0.0
H613 H 0.08615 0.67879 0.522 0.0
H614 H 0.10703 0.6825 0.48545 0.0
H615 H 0.08458 0.65478 0.48839 0.0
H616 H 0.15893 0.66615 0.39226 0.0
H617 H 0.10361 0.6005 0.3995 0.0
H618 H 0.18343 0.66423 0.47251 0.0
H619 H 0.15563 0.68659 0.47602 0.0
H620 H 0.17657 0.68767 0.43925 0.0
H621 H 0.11605 0.58315 0.48153 0.0
H622 H 0.08961 0.58271 0.45083 0.0
H623 H 0.089 0.60642 0.48483 0.0
C624 C 0.35851 0.10304 0.56073 0.0
C625 C 0.34493 0.12174 0.58065 0.0
C626 C 0.35614 0.10353 0.52574 0.0
C627 C 0.3399 0.12326 0.51036 0.0
C628 C 0.32582 0.14193 0.53034 0.0
C629 C 0.32846 0.14091 0.56525 0.0
C630 C 0.37133 0.0832 0.50519 0.0
C631 C 0.30835 0.1633 0.51481 0.0
C632 C 0.35494 0.14242 0.42041 0.0
C633 C 0.33494 0.12854 0.40297 0.0
C634 C 0.35677 0.14085 0.45537 0.0
C635 C 0.33823 0.12491 0.4733 0.0
C636 C 0.31802 0.11082 0.45589 0.0
C637 C 0.31657 0.11287 0.4209 0.0
C638 C 0.37851 0.15629 0.47314 0.0
C639 C 0.29799 0.09355 0.4742 0.0
H640 H 0.37119 0.0881 0.57244 0.0
H641 H 0.31786 0.15543 0.58045 0.0
H642 H 0.35735 0.07212 0.4887 0.0
H643 H 0.38596 0.09355 0.48877 0.0
H644 H 0.38229 0.06855 0.52104 0.0
H645 H 0.29817 0.17585 0.53391 0.0
H646 H 0.32067 0.17651 0.49861 0.0
H647 H 0.29292 0.15398 0.49866 0.0
H648 H 0.3692 0.1546 0.40675 0.0
H649 H 0.30112 0.10201 0.4076 0.0
H650 H 0.39138 0.14234 0.4876 0.0
H651 H 0.36945 0.17047 0.49125 0.0
H652 H 0.39133 0.16776 0.45551 0.0
H653 H 0.30858 0.07785 0.48877 0.0
H654 H 0.28365 0.08369 0.45693 0.0
H655 H 0.28652 0.10587 0.49231 0.0
C656 C 0.82695 0.34751 0.43244 0.0
C657 C 0.84178 0.36775 0.41664 0.0
C658 C 0.82568 0.34581 0.46744 0.0
C659 C 0.83952 0.36485 0.48708 0.0
C660 C 0.85407 0.38565 0.47132 0.0
C661 C 0.85505 0.38684 0.43626 0.0
C662 C 0.80998 0.32333 0.48339 0.0
C663 C 0.86901 0.40636 0.4915 0.0
C664 C 0.81993 0.3725 0.57842 0.0
C665 C 0.83983 0.35736 0.59445 0.0
C666 C 0.8196 0.3752 0.54345 0.0
C667 C 0.83961 0.36239 0.52413 0.0
C668 C 0.85972 0.34708 0.54015 0.0
C669 C 0.85961 0.34478 0.57512 0.0
C670 C 0.79788 0.39175 0.52717 0.0
C671 C 0.88136 0.33308 0.52034 0.0
H672 H 0.81659 0.3327 0.41746 0.0
H673 H 0.86648 0.40259 0.42426 0.0
H674 H 0.82363 0.31037 0.49819 0.0
H675 H 0.79488 0.33157 0.50096 0.0
H676 H 0.79955 0.31073 0.46459 0.0
H677 H 0.87844 0.42189 0.47544 0.0
H678 H 0.8552 0.41635 0.50931 0.0
H679 H 0.88488 0.39648 0.50652 0.0
H680 H 0.8046 0.38232 0.59318 0.0
H681 H 0.87505 0.33302 0.58729 0.0
H682 H 0.78624 0.37918 0.50953 0.0
H683 H 0.80694 0.40823 0.51237 0.0
H684 H 0.78388 0.40054 0.54577 0.0
H685 H 0.8722 0.31878 0.50248 0.0
H686 H 0.89556 0.32195 0.53664 0.0
H687 H 0.8928 0.34791 0.50541 0.0
C688 C 0.65229 0.83519 0.57052 0.0
C689 C 0.64127 0.8565 0.58878 0.0
C690 C 0.65666 0.83739 0.53595 0.0
C691 C 0.65 0.86152 0.51929 0.0
C692 C 0.63899 0.88315 0.53757 0.0
C693 C 0.63468 0.88035 0.5721 0.0
C694 C 0.66828 0.81384 0.51722 0.0
C695 C 0.63175 0.90922 0.52064 0.0
C696 C 0.68245 0.87502 0.43495 0.0
C697 C 0.66196 0.86771 0.41282 0.0
C698 C 0.67878 0.87331 0.46973 0.0
C699 C 0.65409 0.86393 0.48259 0.0
C700 C 0.63332 0.85659 0.46038 0.0
C701 C 0.63748 0.85863 0.42578 0.0
C702 C 0.70133 0.88145 0.49271 0.0
C703 C 0.60675 0.84638 0.47318 0.0
H704 H 0.65742 0.81669 0.58322 0.0
H705 H 0.62628 0.89695 0.58605 0.0
H706 H 0.65416 0.80727 0.49745 0.0
H707 H 0.68714 0.81981 0.50459 0.0
H708 H 0.67254 0.79655 0.53392 0.0
H709 H 0.62382 0.92427 0.53855 0.0
H710 H 0.64961 0.91774 0.50801 0.0
H711 H 0.61644 0.90563 0.50107 0.0
H712 H 0.70139 0.88211 0.42513 0.0
H713 H 0.62153 0.85289 0.40887 0.0
H714 H 0.70743 0.86419 0.50847 0.0
H715 H 0.69447 0.89752 0.50985 0.0
H716 H 0.71913 0.88873 0.47873 0.0
H717 H 0.60988 0.82807 0.48844 0.0
H718 H 0.59262 0.84161 0.45257 0.0
H719 H 0.59734 0.86157 0.48967 0.0
C720 C 0.15941 0.54976 0.2498 0.0
C721 C 0.16366 0.55637 0.28348 0.0
C722 C 0.15545 0.52313 0.23999 0.0
C723 C 0.15549 0.50266 0.26452 0.0
C724 C 0.16096 0.50903 0.29834 0.0
C725 C 0.16513 0.53585 0.30741 0.0
C726 C 0.15004 0.51707 0.20359 0.0
C727 C 0.16104 0.48773 0.3252 0.0
C728 C 0.11291 0.44213 0.24401 0.0
C729 C 0.13221 0.4236 0.23343 0.0
C730 C 0.12034 0.4677 0.25498 0.0
C731 C 0.14772 0.475 0.25506 0.0
C732 C 0.16736 0.45627 0.24487 0.0
C733 C 0.15937 0.4307 0.23431 0.0
C734 C 0.09883 0.48708 0.26596 0.0
C735 C 0.19671 0.46344 0.24438 0.0
H736 H 0.15847 0.56551 0.23112 0.0
H737 H 0.16837 0.54082 0.33349 0.0
H738 H 0.16329 0.50068 0.19478 0.0
H739 H 0.12908 0.51015 0.20062 0.0
H740 H 0.15311 0.53484 0.18729 0.0
H741 H 0.16794 0.49558 0.34972 0.0
H742 H 0.14051 0.47964 0.32831 0.0
H743 H 0.17415 0.47079 0.31783 0.0
H744 H 0.09191 0.43671 0.24361 0.0
H745 H 0.17439 0.41648 0.22609 0.0
H746 H 0.09859 0.50472 0.24903 0.0
H747 H 0.10315 0.4945 0.29155 0.0
H748 H 0.0786 0.47787 0.26588 0.0
H749 H 0.20016 0.48001 0.22637 0.0
H750 H 0.20955 0.44621 0.23717 0.0
H751 H 0.20308 0.47067 0.26938 0.0
C752 C 0.55083 0.17316 0.20749 0.0
C753 C 0.55297 0.15564 0.18021 0.0
C754 C 0.52705 0.17489 0.22608 0.0
C755 C 0.50514 0.15833 0.21751 0.0
C756 C 0.50694 0.14119 0.1894 0.0
C757 C 0.53077 0.14023 0.1709 0.0
C758 C 0.52566 0.1938 0.25548 0.0
C759 C 0.48409 0.12299 0.17971 0.0
C760 C 0.45608 0.13706 0.28482 0.0
C761 C 0.43338 0.15219 0.27649 0.0
C762 C 0.47979 0.13935 0.26626 0.0
C763 C 0.48094 0.15754 0.23908 0.0
C764 C 0.4585 0.17377 0.23151 0.0
C765 C 0.43487 0.17073 0.25015 0.0
C766 C 0.50323 0.1215 0.27489 0.0
C767 C 0.4592 0.19376 0.20314 0.0
H768 H 0.56788 0.18528 0.21463 0.0
H769 H 0.53234 0.12659 0.14991 0.0
H770 H 0.50738 0.20637 0.25389 0.0
H771 H 0.52439 0.18215 0.2791 0.0
H772 H 0.54343 0.20712 0.25686 0.0
H773 H 0.48829 0.11167 0.15637 0.0
H774 H 0.48023 0.10845 0.20018 0.0
H775 H 0.4655 0.13481 0.1761 0.0
H776 H 0.45505 0.12264 0.30508 0.0
H777 H 0.41743 0.18263 0.24377 0.0
H778 H 0.52142 0.13373 0.27921 0.0
H779 H 0.50756 0.10792 0.2536 0.0
H780 H 0.49943 0.10914 0.29754 0.0
H781 H 0.47704 0.20685 0.20541 0.0
H782 H 0.44098 0.20654 0.20247 0.0
H783 H 0.46086 0.18303 0.17893 0.0
C784 C 0.79296 0.54803 0.21781 0.0
C785 C 0.81402 0.56433 0.22887 0.0
C786 C 0.78984 0.52186 0.23014 0.0
C787 C 0.80824 0.51184 0.25401 0.0
C788 C 0.82913 0.52842 0.26585 0.0
C789 C 0.83174 0.55445 0.25317 0.0
C790 C 0.76729 0.50473 0.21705 0.0
C791 C 0.84916 0.51845 0.29132 0.0
C792 C 0.79346 0.45065 0.30735 0.0
C793 C 0.80873 0.43097 0.29113 0.0
C794 C 0.79226 0.47692 0.29485 0.0
C795 C 0.80668 0.48358 0.2655 0.0
C796 C 0.82132 0.46357 0.24837 0.0
C797 C 0.82216 0.43751 0.26138 0.0
C798 C 0.77638 0.49775 0.31372 0.0
C799 C 0.83694 0.4699 0.21695 0.0
H800 H 0.77913 0.55554 0.19912 0.0
H801 H 0.84802 0.56692 0.26198 0.0
H802 H 0.77562 0.48742 0.20312 0.0
H803 H 0.75537 0.49656 0.23815 0.0
H804 H 0.75371 0.51604 0.20013 0.0
H805 H 0.86353 0.53425 0.29899 0.0
H806 H 0.83863 0.51102 0.31395 0.0
H807 H 0.86062 0.50139 0.28077 0.0
H808 H 0.78294 0.44574 0.33027 0.0
H809 H 0.8339 0.4224 0.24858 0.0
H810 H 0.76263 0.50848 0.2965 0.0
H811 H 0.7902 0.51285 0.32443 0.0
H812 H 0.76446 0.48887 0.33442 0.0
H813 H 0.82382 0.47981 0.19827 0.0
H814 H 0.8458 0.45171 0.20541 0.0
H815 H 0.85335 0.48406 0.22293 0.0
C816 C 0.56557 0.83852 0.25836 0.0
C817 C 0.56929 0.86267 0.27563 0.0
C818 C 0.54112 0.83274 0.24266 0.0
C819 C 0.52007 0.85167 0.24406 0.0
C820 C 0.52367 0.87601 0.26161 0.0
C821 C 0.5482 0.88115 0.2773 0.0
C822 C 0.53787 0.80648 0.22442 0.0
C823 C 0.5017 0.89678 0.26346 0.0
C824 C 0.46525 0.8529 0.17857 0.0
C825 C 0.44352 0.84239 0.1965 0.0
C826 C 0.49059 0.85514 0.19337 0.0
C827 C 0.4943 0.84643 0.22678 0.0
C828 C 0.4728 0.83457 0.24443 0.0
C829 C 0.44761 0.83278 0.22912 0.0
C830 C 0.51305 0.86799 0.1738 0.0
C831 C 0.47611 0.82477 0.27997 0.0
H832 H 0.58177 0.82409 0.25709 0.0
H833 H 0.55094 0.89989 0.29052 0.0
H834 H 0.52045 0.79538 0.23461 0.0
H835 H 0.53379 0.81029 0.19754 0.0
H836 H 0.55593 0.79359 0.22647 0.0
H837 H 0.5077 0.91462 0.27824 0.0
H838 H 0.49618 0.90342 0.23787 0.0
H839 H 0.48353 0.88796 0.27501 0.0
H840 H 0.46228 0.86033 0.15335 0.0
H841 H 0.43095 0.82444 0.24304 0.0
H842 H 0.53109 0.85503 0.17421 0.0
H843 H 0.5186 0.8873 0.18563 0.0
H844 H 0.50745 0.8719 0.14733 0.0
H845 H 0.4938 0.81142 0.28194 0.0
H846 H 0.4582 0.81377 0.28905 0.0
H847 H 0.47965 0.84207 0.29677 0.0
C848 C 0.84374 0.54407 0.77274 0.0
C849 C 0.86286 0.54985 0.7974 0.0
C850 C 0.84245 0.5186 0.75801 0.0
C851 C 0.86066 0.49847 0.76827 0.0
C852 C 0.87946 0.50395 0.79383 0.0
C853 C 0.88035 0.52957 0.80806 0.0
C854 C 0.82212 0.51346 0.73082 0.0
C855 C 0.89914 0.48294 0.80554 0.0
C856 C 0.84721 0.42537 0.74837 0.0
C857 C 0.86421 0.42116 0.7209 0.0
C858 C 0.84545 0.45057 0.76373 0.0
C859 C 0.861 0.47205 0.75123 0.0
C860 C 0.87776 0.46807 0.72309 0.0
C861 C 0.87918 0.44267 0.7083 0.0
C862 C 0.8274 0.45409 0.79373 0.0
C863 C 0.89457 0.49053 0.70897 0.0
H864 H 0.83013 0.55962 0.7644 0.0
H865 H 0.8951 0.53382 0.82721 0.0
H866 H 0.83257 0.50929 0.70687 0.0
H867 H 0.81 0.49553 0.73701 0.0
H868 H 0.80842 0.53074 0.72703 0.0
H869 H 0.91156 0.48999 0.82683 0.0
H870 H 0.88836 0.46455 0.81335 0.0
H871 H 0.91264 0.47734 0.78462 0.0
H872 H 0.83555 0.40885 0.75825 0.0
H873 H 0.89228 0.43963 0.687 0.0
H874 H 0.81321 0.47084 0.78936 0.0
H875 H 0.83956 0.45936 0.81599 0.0
H876 H 0.81576 0.4357 0.79947 0.0
H877 H 0.8817 0.50792 0.70261 0.0
H878 H 0.90576 0.48441 0.68618 0.0
H879 H 0.90917 0.49736 0.72805 0.0
C880 C 0.55353 0.8457 0.76232 0.0
C881 C 0.56496 0.83038 0.73661 0.0
C882 C 0.52571 0.84655 0.76692 0.0
C883 C 0.50893 0.83144 0.74557 0.0
C884 C 0.52039 0.81501 0.72052 0.0
C885 C 0.54829 0.8148 0.71619 0.0
C886 C 0.51424 0.86448 0.79376 0.0
C887 C 0.50314 0.79831 0.69763 0.0
C888 C 0.43704 0.82254 0.77459 0.0
C889 C 0.42393 0.84285 0.75662 0.0
C890 C 0.46459 0.81797 0.77047 0.0
C891 C 0.47938 0.83429 0.74816 0.0
C892 C 0.46613 0.85439 0.7294 0.0
C893 C 0.43855 0.85831 0.73371 0.0
C894 C 0.47799 0.79611 0.79056 0.0
C895 C 0.48125 0.87236 0.70554 0.0
H896 H 0.56625 0.85781 0.7782 0.0
H897 H 0.55699 0.80277 0.69641 0.0
H898 H 0.50209 0.88056 0.78202 0.0
H899 H 0.50075 0.8529 0.8104 0.0
H900 H 0.53006 0.87393 0.8093 0.0
H901 H 0.51521 0.78483 0.68146 0.0
H902 H 0.48897 0.786 0.7125 0.0
H903 H 0.49102 0.81162 0.68133 0.0
H904 H 0.42584 0.8104 0.7922 0.0
H905 H 0.4286 0.87406 0.71974 0.0
H906 H 0.4924 0.80508 0.80842 0.0
H907 H 0.48953 0.78269 0.77378 0.0
H908 H 0.46336 0.7839 0.80491 0.0
H909 H 0.49631 0.88419 0.71956 0.0
H910 H 0.46783 0.88645 0.69201 0.0
H911 H 0.49224 0.86015 0.68687 0.0
C912 C 0.16127 0.4456 0.75365 0.0
C913 C 0.1421 0.44113 0.77872 0.0
C914 C 0.1624 0.47017 0.73652 0.0
C915 C 0.14398 0.49069 0.74477 0.0
C916 C 0.12504 0.4865 0.7706 0.0
C917 C 0.12432 0.46179 0.78722 0.0
C918 C 0.18286 0.47396 0.70911 0.0
C919 C 0.10513 0.50794 0.78024 0.0
C920 C 0.15568 0.56342 0.72149 0.0
C921 C 0.13802 0.56667 0.69448 0.0
C922 C 0.15865 0.53849 0.73734 0.0
C923 C 0.14369 0.51631 0.72581 0.0
C924 C 0.12672 0.51919 0.69766 0.0
C925 C 0.12405 0.54435 0.68238 0.0
C926 C 0.17693 0.53618 0.7673 0.0
C927 C 0.11056 0.49594 0.68449 0.0
H928 H 0.17507 0.42972 0.74694 0.0
H929 H 0.10952 0.45857 0.80664 0.0
H930 H 0.17255 0.47694 0.6848 0.0
H931 H 0.19493 0.49219 0.71392 0.0
H932 H 0.1966 0.45655 0.70685 0.0
H933 H 0.09235 0.50184 0.8017 0.0
H934 H 0.11576 0.52666 0.78698 0.0
H935 H 0.09198 0.51259 0.75862 0.0
H936 H 0.16664 0.58053 0.73094 0.0
H937 H 0.11053 0.54664 0.66136 0.0
H938 H 0.19081 0.51901 0.76424 0.0
H939 H 0.16484 0.53234 0.79011 0.0
H940 H 0.1889 0.55464 0.77133 0.0
H941 H 0.12371 0.47839 0.68004 0.0
H942 H 0.10001 0.50093 0.66082 0.0
H943 H 0.09543 0.48991 0.7034 0.0
C944 C 0.43708 0.14653 0.69962 0.0
C945 C 0.41973 0.14454 0.72715 0.0
C946 C 0.46488 0.14414 0.70364 0.0
C947 C 0.47559 0.13975 0.73597 0.0
C948 C 0.45828 0.13878 0.76402 0.0
C949 C 0.43055 0.14116 0.75927 0.0
C950 C 0.4827 0.14529 0.67313 0.0
C951 C 0.46898 0.13425 0.79892 0.0
C952 C 0.54151 0.10251 0.74361 0.0
C953 C 0.55955 0.12337 0.75006 0.0
C954 C 0.51421 0.10765 0.73862 0.0
C955 C 0.50466 0.13431 0.74022 0.0
C956 C 0.52277 0.15553 0.74631 0.0
C957 C 0.55004 0.14981 0.75111 0.0
C958 C 0.49553 0.08448 0.73201 0.0
C959 C 0.51328 0.1842 0.74821 0.0
H960 H 0.42891 0.14921 0.67471 0.0
H961 H 0.41731 0.13973 0.7807 0.0
H962 H 0.49899 0.16006 0.67691 0.0
H963 H 0.49226 0.12548 0.66916 0.0
H964 H 0.47146 0.15078 0.65013 0.0
H965 H 0.45311 0.13595 0.81829 0.0
H966 H 0.47803 0.114 0.80063 0.0
H967 H 0.48498 0.14895 0.80461 0.0
H968 H 0.54867 0.08203 0.74265 0.0
H969 H 0.56384 0.16604 0.75612 0.0
H970 H 0.48482 0.08763 0.708 0.0
H971 H 0.48018 0.08335 0.75204 0.0
H972 H 0.50624 0.065 0.73086 0.0
H973 H 0.50281 0.1898 0.72474 0.0
H974 H 0.53 0.19845 0.75236 0.0
H975 H 0.49866 0.1864 0.76894 0.0
C976 C 0.68942 0.02908 0.77779 0.0
C977 C 0.67254 0.04671 0.76036 0.0
C978 C 0.6917 0.00213 0.76822 0.0
C979 C 0.67674 0.99265 0.74062 0.0
C980 C 0.66033 0.01054 0.7223 0.0
C981 C 0.65843 0.03735 0.73239 0.0
C982 C 0.70946 0.98363 0.78829 0.0
C983 C 0.64409 0.00118 0.69267 0.0
C984 C 0.69342 0.92649 0.69864 0.0
C985 C 0.6738 0.9096 0.71225 0.0
C986 C 0.69513 0.95347 0.70828 0.0
C987 C 0.6768 0.96371 0.73208 0.0
C988 C 0.65751 0.94654 0.74666 0.0
C989 C 0.65625 0.91971 0.73658 0.0
C990 C 0.71601 0.9712 0.69229 0.0
C991 C 0.63766 0.9567 0.77221 0.0
H992 H 0.70047 0.03616 0.79936 0.0
H993 H 0.64542 0.05085 0.71869 0.0
H994 H 0.69702 0.96831 0.80106 0.0
H995 H 0.72348 0.97284 0.7715 0.0
H996 H 0.72126 0.99452 0.80749 0.0
H997 H 0.63352 0.01793 0.67995 0.0
H998 H 0.65722 0.99105 0.67421 0.0
H999 H 0.62898 0.98634 0.70106 0.0
H1000 H 0.70709 0.91882 0.67987 0.0
H1001 H 0.64111 0.90678 0.74737 0.0
H1002 H 0.72787 0.98157 0.71182 0.0
H1003 H 0.70606 0.98688 0.67702 0.0
H1004 H 0.7299 0.95977 0.67592 0.0
H1005 H 0.64832 0.96633 0.79334 0.0
H1006 H 0.62477 0.94047 0.78231 0.0
H1007 H 0.62461 0.97215 0.76064 0.0
C1008 C 0.94127 0.65014 0.76222 0.0
C1009 C 0.93129 0.66962 0.78423 0.0
C1010 C 0.96597 0.65346 0.74617 0.0
C1011 C 0.98114 0.67687 0.75217 0.0
C1012 C 0.97104 0.69688 0.77385 0.0
C1013 C 0.9462 0.693 0.78969 0.0
C1014 C 0.97605 0.63162 0.72324 0.0
C1015 C 0.98666 0.72214 0.78071 0.0
C1016 C 0.05532 0.66793 0.73607 0.0
C1017 C 0.05781 0.67765 0.70324 0.0
C1018 C 0.03071 0.66877 0.75292 0.0
C1019 C 0.00803 0.67963 0.73658 0.0
C1020 C 0.01068 0.6907 0.70411 0.0
C1021 C 0.03557 0.68955 0.68779 0.0
C1022 C 0.02871 0.65678 0.78756 0.0
C1023 C 0.98697 0.7026 0.68598 0.0
H1024 H 0.92989 0.63203 0.75773 0.0
H1025 H 0.93861 0.70819 0.80657 0.0
H1026 H 0.98033 0.63996 0.69806 0.0
H1027 H -0.00492 0.62329 0.73313 0.0
H1028 H 0.96147 0.61498 0.72054 0.0
H1029 H 0.97545 0.73633 0.79688 0.0
H1030 H 0.00584 0.71704 0.79321 0.0
H1031 H 0.9917 0.73234 0.75684 0.0
H1032 H 0.07244 0.65888 0.74834 0.0
H1033 H 0.03734 0.69727 0.66252 0.0
H1034 H 0.01617 0.63847 0.7867 0.0
H1035 H 0.01885 0.67102 0.80492 0.0
H1036 H 0.04862 0.65133 0.79793 0.0
H1037 H 0.97259 0.68649 0.67959 0.0
H1038 H 0.99293 0.71298 0.66252 0.0
H1039 H 0.97632 0.71706 0.70232 0.0
C1040 C 0.29816 0.0412 0.69322 0.0
C1041 C 0.31272 0.06136 0.70946 0.0
C1042 C 0.29685 0.01519 0.70649 0.0
C1043 C 0.31037 0.00926 0.73674 0.0
C1044 C 0.32422 0.02977 0.75391 0.0
C1045 C 0.32525 0.05556 0.74005 0.0
C1046 C 0.28188 0.99382 0.68749 0.0
C1047 C 0.33879 0.02424 0.78632 0.0
C1048 C 0.29474 0.94516 0.78434 0.0
C1049 C 0.31605 0.92862 0.77453 0.0
C1050 C 0.29239 0.9714 0.77195 0.0
C1051 C 0.31177 0.98123 0.74919 0.0
C1052 C 0.33309 0.96449 0.73884 0.0
C1053 C 0.33498 0.93842 0.75166 0.0
C1054 C 0.26941 0.98873 0.78354 0.0
C1055 C 0.35412 0.97421 0.71453 0.0
H1056 H 0.28835 0.04552 0.66963 0.0
H1057 H 0.33642 0.07105 0.75289 0.0
H1058 H 0.2962 0.97855 0.67818 0.0
H1059 H 0.26755 0.98341 0.70426 0.0
H1060 H 0.2707 0.00212 0.66578 0.0
H1061 H 0.34694 0.04278 0.79778 0.0
H1062 H 0.32517 0.01448 0.80455 0.0
H1063 H 0.35562 0.01022 0.78167 0.0
H1064 H 0.28002 0.93773 0.80199 0.0
H1065 H 0.35147 0.92576 0.74383 0.0
H1066 H 0.25791 -0.00383 0.76168 0.0
H1067 H 0.27726 0.00652 0.79693 0.0
H1068 H 0.25556 0.97782 0.8005 0.0
H1069 H 0.34452 0.98108 0.69099 0.0
H1070 H 0.36901 0.95844 0.70834 0.0
H1071 H 0.36488 0.99161 0.7253 0.0
C1072 C 0.05566 0.30196 0.79831 0.0
C1073 C 0.06972 0.32549 0.79065 0.0
C1074 C 0.02836 0.29944 0.79047 0.0
C1075 C 0.01488 0.32099 0.77471 0.0
C1076 C 0.02909 0.34458 0.76642 0.0
C1077 C 0.0563 0.34652 0.77443 0.0
C1078 C 0.01383 0.27394 0.7995 0.0
C1079 C 0.01544 0.36803 0.74961 0.0
C1080 C 0.94947 0.313 0.72771 0.0
C1081 C 0.93107 0.32373 0.75062 0.0
C1082 C 0.9767 0.31068 0.73585 0.0
C1083 C 0.98573 0.31945 0.76755 0.0
C1084 C 0.96708 0.32916 0.79131 0.0
C1085 C 0.93995 0.3311 0.78259 0.0
C1086 C -0.00404 0.3 0.70996 0.0
C1087 C 0.97596 0.33878 0.82536 0.0
H1088 H 0.06589 0.28561 0.8108 0.0
H1089 H 0.06698 0.36478 0.76834 0.0
H1090 H -0.00216 0.27834 0.81798 0.0
H1091 H 0.00399 0.26544 0.77702 0.0
H1092 H 0.02745 0.2586 0.8103 0.0
H1093 H 0.02949 0.38473 0.74426 0.0
H1094 H 0.0062 0.36154 0.72572 0.0
H1095 H -0.00089 0.37569 0.76583 0.0
H1096 H 0.94274 0.30705 0.70303 0.0
H1097 H 0.92587 0.33931 0.8005 0.0
H1098 H 0.00904 0.28438 0.72108 0.0
H1099 H 0.00912 0.31643 0.70109 0.0
H1100 H 0.98545 0.29136 0.688 0.0
H1101 H 0.98855 0.32339 0.83778 0.0
H1102 H 0.95876 0.34357 0.84195 0.0
H1103 H 0.98839 0.35704 0.82248 0.0
C1104 C 0.33574 0.05357 0.2542 0.0
C1105 C 0.35256 0.05822 0.28169 0.0
C1106 C 0.33474 0.02833 0.23886 0.0
C1107 C 0.35108 0.00737 0.25119 0.0
C1108 C 0.36758 0.01175 0.27944 0.0
C1109 C 0.36805 0.0371 0.29442 0.0
C1110 C 0.31673 0.02429 0.20896 0.0
C1111 C 0.38538 0.98989 0.29322 0.0
C1112 C 0.33787 0.93479 0.22865 0.0
C1113 C 0.35712 0.93038 0.20367 0.0
C1114 C 0.3351 0.96001 0.24371 0.0
C1115 C 0.35207 0.98121 0.23364 0.0
C1116 C 0.37103 0.97708 0.20783 0.0
C1117 C 0.37327 0.95173 0.19309 0.0
C1118 C 0.31451 0.96378 0.27099 0.0
C1119 C 0.38954 -0.00079 0.19648 0.0
H1120 H 0.32361 0.06976 0.24433 0.0
H1121 H 0.38109 0.04051 0.31566 0.0
H1122 H 0.32904 0.02016 0.18643 0.0
H1123 H 0.30361 0.00666 0.21297 0.0
H1124 H 0.30396 0.04206 0.20386 0.0
H1125 H 0.39619 -0.00377 0.31617 0.0
H1126 H 0.37334 0.97186 0.2992 0.0
H1127 H 0.40035 0.98398 0.27407 0.0
H1128 H 0.32523 0.91841 0.23685 0.0
H1129 H 0.38816 0.94852 0.17376 0.0
H1130 H 0.30155 0.98124 0.26523 0.0
H1131 H 0.32472 0.96804 0.29506 0.0
H1132 H 0.30166 0.94583 0.27433 0.0
H1133 H 0.37777 0.01707 0.18891 0.0
H1134 H 0.40237 0.99304 0.17511 0.0
H1135 H 0.40266 0.00532 0.21751 0.0
C1136 C 0.92931 0.32822 0.28916 0.0
C1137 C 0.92004 0.35476 0.28885 0.0
C1138 C 0.95623 0.32225 0.28226 0.0
C1139 C 0.9742 0.34332 0.27481 0.0
C1140 C 0.96498 0.37013 0.27461 0.0
C1141 C 0.93803 0.37552 0.28166 0.0
C1142 C 0.9654 0.29344 0.28274 0.0
C1143 C 0.98356 0.39315 0.2667 0.0
C1144 C 0.04942 0.33541 0.28329 0.0
C1145 C 0.05726 0.33293 0.24972 0.0
C1146 C 0.0223 0.33771 0.29201 0.0
C1147 C 0.00261 0.33751 0.26655 0.0
C1148 C 0.01031 0.33377 0.23279 0.0
C1149 C 0.03754 0.33152 0.22479 0.0
C1150 C 0.01481 0.34154 0.32831 0.0
C1151 C 0.98988 0.33336 0.20494 0.0
H1152 H 0.91555 0.31207 0.29477 0.0
H1153 H 0.93106 0.39608 0.28138 0.0
H1154 H 0.9732 0.28775 0.25773 0.0
H1155 H 0.98205 0.29093 0.30084 0.0
H1156 H 0.94903 0.27943 0.28963 0.0
H1157 H 0.97329 0.41286 0.26799 0.0
H1158 H 0.00059 0.39325 0.2845 0.0
H1159 H 0.99202 0.39066 0.24121 0.0
H1160 H 0.06451 0.33641 0.30273 0.0
H1161 H 0.0434 0.32945 0.19879 0.0
H1162 H -0.00109 0.32719 0.33565 0.0
H1163 H 0.00664 0.362 0.33195 0.0
H1164 H 0.0322 0.33885 0.34531 0.0
H1165 H 0.97381 0.31874 0.21066 0.0
H1166 H -0.00107 0.32813 0.1804 0.0
H1167 H 0.98033 0.35336 0.20274 0.0
C1168 C 0.66868 0.95127 0.2569 0.0
C1169 C 0.65659 0.94927 0.28851 0.0
C1170 C 0.66787 0.97529 0.23869 0.0
C1171 C 0.65448 -0.00225 0.25233 0.0
C1172 C 0.64335 -0.00377 0.28487 0.0
C1173 C 0.64464 0.97202 0.30265 0.0
C1174 C 0.68026 0.97626 0.20422 0.0
C1175 C 0.62886 0.01976 0.30023 0.0
C1176 C 0.66322 0.06681 0.21385 0.0
C1177 C 0.6402 0.06882 0.19387 0.0
C1178 C 0.66844 0.04359 0.23262 0.0
C1179 C 0.6501 0.02204 0.23154 0.0
C1180 C 0.62705 0.02382 0.21106 0.0
C1181 C 0.62244 0.04714 0.19238 0.0
C1182 C 0.69335 0.04226 0.25394 0.0
C1183 C 0.60695 0.00127 0.20936 0.0
H1184 H 0.67815 0.93383 0.24591 0.0
H1185 H 0.6353 0.97067 0.32708 0.0
H1186 H 0.66425 0.97802 0.18511 0.0
H1187 H 0.69329 0.99412 0.20168 0.0
H1188 H 0.6923 0.95807 0.19869 0.0
H1189 H 0.6232 0.01602 0.32672 0.0
H1190 H 0.64152 0.03797 0.2991 0.0
H1191 H 0.61039 0.02401 0.28574 0.0
H1192 H 0.67709 0.08346 0.21503 0.0
H1193 H 0.6046 0.04854 0.17705 0.0
H1194 H 0.70528 0.02426 0.24737 0.0
H1195 H 0.68773 0.04037 0.2807 0.0
H1196 H 0.70617 0.06027 0.2509 0.0
H1197 H 0.61695 0.98255 0.20117 0.0
H1198 H 0.59024 0.00569 0.19186 0.0
H1199 H 0.59846 -0.00251 0.2346 0.0
C1200 C 0.05734 0.66628 0.25096 0.0
C1201 C 0.06743 0.64029 0.24656 0.0
C1202 C 0.03084 0.67259 0.24223 0.0
C1203 C 0.01415 0.65241 0.22879 0.0
C1204 C 0.02444 0.62634 0.22354 0.0
C1205 C 0.05093 0.6206 0.23251 0.0
C1206 C 0.02051 0.7006 0.24815 0.0
C1207 C 0.00726 0.60429 0.20917 0.0
C1208 C 0.9388 0.65451 0.23829 0.0
C1209 C 0.93062 0.66148 0.20584 0.0
C1210 C 0.96601 0.65274 0.24651 0.0
C1211 C 0.98551 0.65795 0.22164 0.0
C1212 C 0.97742 0.6662 0.18928 0.0
C1213 C 0.95002 0.66795 0.18177 0.0
C1214 C 0.97386 0.64409 0.2814 0.0
C1215 C -0.00233 0.67192 0.16213 0.0
H1216 H 0.06999 0.68163 0.26176 0.0
H1217 H 0.05858 0.60049 0.22887 0.0
H1218 H 0.0117 0.70883 0.22481 0.0
H1219 H 0.00436 0.70013 0.26721 0.0
H1220 H 0.03648 0.71438 0.2569 0.0
H1221 H 0.01865 0.58542 0.2053 0.0
H1222 H 0.99027 0.60009 0.22629 0.0
H1223 H -0.00134 0.61068 0.18484 0.0
H1224 H 0.92393 0.64972 0.25712 0.0
H1225 H 0.94386 0.67341 0.15666 0.0
H1226 H 0.98878 0.65813 0.29203 0.0
H1227 H 0.98337 0.62401 0.28041 0.0
H1228 H 0.95639 0.64306 0.29857 0.0
H1229 H 0.01323 0.6859 0.17137 0.0
H1230 H 0.98827 0.68066 0.1394 0.0
H1231 H 0.00793 0.65306 0.15499 0.0
loop_
_geom_bond_atom_site_label_1
_geom_bond_atom_site_label_2
_geom_bond_distance
_geom_bond_site_symmetry_2
_ccdc_geom_bond_type
C0 O1 1.160 . S
C0 O7 1.185 . S
O1 C0 1.160 . S
O2 Zn3 1.899 . S
O2 C10 1.284 . S
Zn3 O2 1.899 . S
Zn3 O4 2.032 . S
Zn3 O7 2.086 . S
Zn3 O12 1.977 . S
O4 Zn3 2.032 . S
O4 C8 1.278 . S
C5 O6 1.203 . S
C5 O12 1.267 . S
O6 C5 1.203 . S
O7 C0 1.185 . S
O7 Zn3 2.086 . S
C8 O4 1.278 . S
C8 O9 1.211 . S
O9 C8 1.211 . S
C10 O2 1.284 . S
C10 O11 1.273 . S
O11 C10 1.273 . S
O12 Zn3 1.977 . S
O12 C5 1.267 . S
C13 O14 1.160 . S
C13 O20 1.185 . S
O14 C13 1.160 . S
O15 Zn16 1.899 . S
O15 C23 1.284 . S
Zn16 O15 1.899 . S
Zn16 O17 2.032 . S
Zn16 O20 2.086 . S
Zn16 O25 1.977 . S
O17 Zn16 2.032 . S
O17 C21 1.278 . S
C18 O19 1.203 . S
C18 O25 1.267 . S
O19 C18 1.203 . S
O20 C13 1.185 . S
O20 Zn16 2.086 . S
C21 O17 1.278 . S
C21 O22 1.211 . S
O22 C21 1.211 . S
C23 O15 1.284 . S
C23 O24 1.273 . S
O24 C23 1.273 . S
O25 Zn16 1.977 . S
O25 C18 1.267 . S
C26 O27 1.160 . S
C26 O33 1.185 . S
O27 C26 1.160 . S
O28 Zn29 1.899 . S
O28 C36 1.284 . S
Zn29 O28 1.899 . S
Zn29 O30 2.032 . S
Zn29 O33 2.086 . S
Zn29 O38 1.977 . S
O30 Zn29 2.032 . S
O30 C34 1.278 . S
C31 O32 1.203 . S
C31 O38 1.267 . S
O32 C31 1.203 . S
O33 C26 1.185 . S
O33 Zn29 2.086 . S
C34 O30 1.278 . S
C34 O35 1.211 . S
O35 C34 1.211 . S
C36 O28 1.284 . S
C36 O37 1.273 . S
O37 C36 1.273 . S
O38 Zn29 1.977 . S
O38 C31 1.267 . S
C39 O40 1.160 . S
C39 O46 1.185 . S
O40 C39 1.160 . S
O41 Zn42 1.899 . S
O41 C49 1.284 . S
Zn42 O41 1.899 . S
Zn42 O43 2.032 . S
Zn42 O46 2.086 . S
Zn42 O51 1.977 . S
O43 Zn42 2.032 . S
O43 C47 1.278 . S
C44 O45 1.203 . S
C44 O51 1.267 . S
O45 C44 1.203 . S
O46 C39 1.185 . S
O46 Zn42 2.086 . S
C47 O43 1.278 . S
C47 O48 1.211 . S
O48 C47 1.211 . S
C49 O41 1.284 . S
C49 O50 1.273 . S
O50 C49 1.273 . S
O51 Zn42 1.977 . S
O51 C44 1.267 . S
C52 O53 1.160 . S
C52 O59 1.185 . S
O53 C52 1.160 . S
O54 Zn55 1.899 . S
O54 C62 1.284 . S
Zn55 O54 1.899 . S
Zn55 O56 2.032 . S
Zn55 O59 2.086 . S
Zn55 O64 1.977 . S
O56 Zn55 2.032 . S
O56 C60 1.278 . S
C57 O58 1.203 . S
C57 O64 1.267 . S
O58 C57 1.203 . S
O59 C52 1.185 . S
O59 Zn55 2.086 . S
C60 O56 1.278 . S
C60 O61 1.211 . S
O61 C60 1.211 . S
C62 O54 1.284 . S
C62 O63 1.273 . S
O63 C62 1.273 . S
O64 Zn55 1.977 . S
O64 C57 1.267 . S
C65 O66 1.160 . S
C65 O72 1.185 . S
O66 C65 1.160 . S
O67 Zn68 1.899 . S
O67 C75 1.284 . S
Zn68 O67 1.899 . S
Zn68 O69 2.032 . S
Zn68 O72 2.086 . S
Zn68 O77 1.977 . S
O69 Zn68 2.032 . S
O69 C73 1.278 . S
C70 O71 1.203 . S
C70 O77 1.267 . S
O71 C70 1.203 . S
O72 C65 1.185 . S
O72 Zn68 2.086 . S
C73 O69 1.278 . S
C73 O74 1.211 . S
O74 C73 1.211 . S
C75 O67 1.284 . S
C75 O76 1.273 . S
O76 C75 1.273 . S
O77 Zn68 1.977 . S
O77 C70 1.267 . S
C78 O79 1.160 . S
C78 O85 1.185 . S
O79 C78 1.160 . S
O80 Zn81 1.899 . S
O80 C88 1.284 . S
Zn81 O80 1.899 . S
Zn81 O82 2.032 . S
Zn81 O85 2.086 . S
Zn81 O90 1.977 . S
O82 Zn81 2.032 . S
O82 C86 1.278 . S
C83 O84 1.203 . S
C83 O90 1.267 . S
O84 C83 1.203 . S
O85 C78 1.185 . S
O85 Zn81 2.086 . S
C86 O82 1.278 . S
C86 O87 1.211 . S
O87 C86 1.211 . S
C88 O80 1.284 . S
C88 O89 1.273 . S
O89 C88 1.273 . S
O90 Zn81 1.977 . S
O90 C83 1.267 . S
C91 O92 1.160 . S
C91 O98 1.185 . S
O92 C91 1.160 . S
O93 Zn94 1.899 . S
O93 C101 1.284 . S
Zn94 O93 1.899 . S
Zn94 O95 2.032 . S
Zn94 O98 2.086 . S
Zn94 O103 1.977 . S
O95 Zn94 2.032 . S
O95 C99 1.278 . S
C96 O97 1.203 . S
C96 O103 1.267 . S
O97 C96 1.203 . S
O98 C91 1.185 . S
O98 Zn94 2.086 . S
C99 O95 1.278 . S
C99 O100 1.211 . S
O100 C99 1.211 . S
C101 O93 1.284 . S
C101 O102 1.273 . S
O102 C101 1.273 . S
O103 Zn94 1.977 . S
O103 C96 1.267 . S
C104 O105 1.160 . S
C104 O111 1.185 . S
O105 C104 1.160 . S
O106 Zn107 1.899 . S
O106 C114 1.284 . S
Zn107 O106 1.899 . S
Zn107 O108 2.032 . S
Zn107 O111 2.086 . S
Zn107 O116 1.977 . S
O108 Zn107 2.032 . S
O108 C112 1.278 . S
C109 O110 1.203 . S
C109 O116 1.267 . S
O110 C109 1.203 . S
O111 C104 1.185 . S
O111 Zn107 2.086 . S
C112 O108 1.278 . S
C112 O113 1.211 . S
O113 C112 1.211 . S
C114 O106 1.284 . S
C114 O115 1.273 . S
O115 C114 1.273 . S
O116 Zn107 1.977 . S
O116 C109 1.267 . S
C117 O118 1.160 . S
C117 O124 1.185 . S
O118 C117 1.160 . S
O119 Zn120 1.899 . S
O119 C127 1.284 . S
Zn120 O119 1.899 . S
Zn120 O121 2.032 . S
Zn120 O124 2.086 . S
Zn120 O129 1.977 . S
O121 Zn120 2.032 . S
O121 C125 1.278 . S
C122 O123 1.203 . S
C122 O129 1.267 . S
O123 C122 1.203 . S
O124 C117 1.185 . S
O124 Zn120 2.086 . S
C125 O121 1.278 . S
C125 O126 1.211 . S
O126 C125 1.211 . S
C127 O119 1.284 . S
C127 O128 1.273 . S
O128 C127 1.273 . S
O129 Zn120 1.977 . S
O129 C122 1.267 . S
C130 O131 1.160 . S
C130 O137 1.185 . S
O131 C130 1.160 . S
O132 Zn133 1.899 . S
O132 C140 1.284 . S
Zn133 O132 1.899 . S
Zn133 O134 2.032 . S
Zn133 O137 2.086 . S
Zn133 O142 1.977 . S
O134 Zn133 2.032 . S
O134 C138 1.278 . S
C135 O136 1.203 . S
C135 O142 1.267 . S
O136 C135 1.203 . S
O137 C130 1.185 . S
O137 Zn133 2.086 . S
C138 O134 1.278 . S
C138 O139 1.211 . S
O139 C138 1.211 . S
C140 O132 1.284 . S
C140 O141 1.273 . S
O141 C140 1.273 . S
O142 Zn133 1.977 . S
O142 C135 1.267 . S
C143 O144 1.160 . S
C143 O150 1.185 . S
O144 C143 1.160 . S
O145 Zn146 1.899 . S
O145 C153 1.284 . S
Zn146 O145 1.899 . S
Zn146 O147 2.032 . S
Zn146 O150 2.086 . S
Zn146 O155 1.977 . S
O147 Zn146 2.032 . S
O147 C151 1.278 . S
C148 O149 1.203 . S
C148 O155 1.267 . S
O149 C148 1.203 . S
O150 C143 1.185 . S
O150 Zn146 2.086 . S
C151 O147 1.278 . S
C151 O152 1.211 . S
O152 C151 1.211 . S
C153 O145 1.284 . S
C153 O154 1.273 . S
O154 C153 1.273 . S
O155 Zn146 1.977 . S
O155 C148 1.267 . S
C156 O157 1.160 . S
C156 O163 1.185 . S
O157 C156 1.160 . S
O158 Zn159 1.899 . S
O158 C166 1.284 . S
Zn159 O158 1.899 . S
Zn159 O160 2.032 . S
Zn159 O163 2.086 . S
Zn159 O168 1.977 . S
O160 Zn159 2.032 . S
O160 C164 1.278 . S
C161 O162 1.203 . S
C161 O168 1.267 . S
O162 C161 1.203 . S
O163 C156 1.185 . S
O163 Zn159 2.086 . S
C164 O160 1.278 . S
C164 O165 1.211 . S
O165 C164 1.211 . S
C166 O158 1.284 . S
C166 O167 1.273 . S
O167 C166 1.273 . S
O168 Zn159 1.977 . S
O168 C161 1.267 . S
C169 O170 1.160 . S
C169 O176 1.185 . S
O170 C169 1.160 . S
O171 Zn172 1.899 . S
O171 C179 1.284 . S
Zn172 O171 1.899 . S
Zn172 O173 2.032 . S
Zn172 O176 2.086 . S
Zn172 O181 1.977 . S
O173 Zn172 2.032 . S
O173 C177 1.278 . S
C174 O175 1.203 . S
C174 O181 1.267 . S
O175 C174 1.203 . S
O176 C169 1.185 . S
O176 Zn172 2.086 . S
C177 O173 1.278 . S
C177 O178 1.211 . S
O178 C177 1.211 . S
C179 O171 1.284 . S
C179 O180 1.273 . S
O180 C179 1.273 . S
O181 Zn172 1.977 . S
O181 C174 1.267 . S
C182 O183 1.160 . S
C182 O189 1.185 . S
O183 C182 1.160 . S
O184 Zn185 1.899 . S
O184 C192 1.284 . S
Zn185 O184 1.899 . S
Zn185 O186 2.032 . S
Zn185 O189 2.086 . S
Zn185 O194 1.977 . S
O186 Zn185 2.032 . S
O186 C190 1.278 . S
C187 O188 1.203 . S
C187 O194 1.267 . S
O188 C187 1.203 . S
O189 C182 1.185 . S
O189 Zn185 2.086 . S
C190 O186 1.278 . S
C190 O191 1.211 . S
O191 C190 1.211 . S
C192 O184 1.284 . S
C192 O193 1.273 . S
O193 C192 1.273 . S
O194 Zn185 1.977 . S
O194 C187 1.267 . S
C195 O196 1.160 . S
C195 O202 1.185 . S
O196 C195 1.160 . S
O197 Zn198 1.899 . S
O197 C205 1.284 . S
Zn198 O197 1.899 . S
Zn198 O199 2.032 . S
Zn198 O202 2.086 . S
Zn198 O207 1.977 . S
O199 Zn198 2.032 . S
O199 C203 1.278 . S
C200 O201 1.203 . S
C200 O207 1.267 . S
O201 C200 1.203 . S
O202 C195 1.185 . S
O202 Zn198 2.086 . S
C203 O199 1.278 . S
C203 O204 1.211 . S
O204 C203 1.211 . S
C205 O197 1.284 . S
C205 O206 1.273 . S
O206 C205 1.273 . S
O207 Zn198 1.977 . S
O207 C200 1.267 . S
C208 C209 1.391 . S
C208 C210 1.394 . S
C208 H224 0.931 . S
C209 C208 1.391 . S
C209 C213 1.376 . S
C210 C208 1.394 . S
C210 C211 1.369 . S
C210 C214 1.531 . S
C211 C210 1.369 . S
C211 C212 1.410 . S
C211 C219 1.503 . S
C212 C211 1.410 . S
C212 C213 1.392 . S
C212 C215 1.511 . S
C213 C209 1.376 . S
C213 C212 1.392 . S
C213 H225 0.929 . S
C214 C210 1.531 . S
C214 H226 0.960 . S
C214 H227 0.962 . S
C214 H228 0.960 . S
C215 C212 1.511 . S
C215 H229 0.961 . S
C215 H230 0.961 . S
C215 H231 0.961 . S
C216 C217 1.370 . S
C216 C218 1.363 . S
C216 H232 0.931 . S
C217 C216 1.370 . S
C217 C221 1.408 . S
C218 C216 1.363 . S
C218 C219 1.370 . S
C218 C222 1.524 . S
C219 C211 1.503 . S
C219 C218 1.370 . S
C219 C220 1.403 . S
C220 C219 1.403 . S
C220 C221 1.404 . S
C220 C223 1.539 . S
C221 C217 1.408 . S
C221 C220 1.404 . S
C221 H233 0.930 . S
C222 C218 1.524 . S
C222 H234 0.956 . S
C222 H235 0.961 . S
C222 H236 0.961 . S
C223 C220 1.539 . S
C223 H237 0.958 . S
C223 H238 0.961 . S
C223 H239 0.960 . S
H224 C208 0.931 . S
H225 C213 0.929 . S
H226 C214 0.960 . S
H227 C214 0.962 . S
H228 C214 0.960 . S
H229 C215 0.961 . S
H230 C215 0.961 . S
H231 C215 0.961 . S
H232 C216 0.931 . S
H233 C221 0.930 . S
H234 C222 0.956 . S
H235 C222 0.961 . S
H236 C222 0.961 . S
H237 C223 0.958 . S
H238 C223 0.961 . S
H239 C223 0.960 . S
C240 C241 1.391 . S
C240 C242 1.394 . S
C240 H256 0.931 . S
C241 C240 1.391 . S
C241 C245 1.376 . S
C242 C240 1.394 . S
C242 C243 1.369 . S
C242 C246 1.531 . S
C243 C242 1.369 . S
C243 C244 1.410 . S
C243 C251 1.503 . S
C244 C243 1.410 . S
C244 C245 1.392 . S
C244 C247 1.511 . S
C245 C241 1.376 . S
C245 C244 1.392 . S
C245 H257 0.929 . S
C246 C242 1.531 . S
C246 H258 0.960 . S
C246 H259 0.962 . S
C246 H260 0.960 . S
C247 C244 1.511 . S
C247 H261 0.961 . S
C247 H262 0.961 . S
C247 H263 0.961 . S
C248 C249 1.370 . S
C248 C250 1.363 . S
C248 H264 0.931 . S
C249 C248 1.370 . S
C249 C253 1.408 . S
C250 C248 1.363 . S
C250 C251 1.370 . S
C250 C254 1.524 . S
C251 C243 1.503 . S
C251 C250 1.370 . S
C251 C252 1.403 . S
C252 C251 1.403 . S
C252 C253 1.404 . S
C252 C255 1.539 . S
C253 C249 1.408 . S
C253 C252 1.404 . S
C253 H265 0.930 . S
C254 C250 1.524 . S
C254 H266 0.956 . S
C254 H267 0.961 . S
C254 H268 0.961 . S
C255 C252 1.539 . S
C255 H269 0.958 . S
C255 H270 0.961 . S
C255 H271 0.960 . S
H256 C240 0.931 . S
H257 C245 0.929 . S
H258 C246 0.960 . S
H259 C246 0.962 . S
H260 C246 0.960 . S
H261 C247 0.961 . S
H262 C247 0.961 . S
H263 C247 0.961 . S
H264 C248 0.931 . S
H265 C253 0.930 . S
H266 C254 0.956 . S
H267 C254 0.961 . S
H268 C254 0.961 . S
H269 C255 0.958 . S
H270 C255 0.961 . S
H271 C255 0.960 . S
C272 C273 1.391 . S
C272 C274 1.394 . S
C272 H288 0.931 . S
C273 C272 1.391 . S
C273 C277 1.376 . S
C274 C272 1.394 . S
C274 C275 1.369 . S
C274 C278 1.531 . S
C275 C274 1.369 . S
C275 C276 1.410 . S
C275 C283 1.503 . S
C276 C275 1.410 . S
C276 C277 1.392 . S
C276 C279 1.511 . S
C277 C273 1.376 . S
C277 C276 1.392 . S
C277 H289 0.929 . S
C278 C274 1.531 . S
C278 H290 0.960 . S
C278 H291 0.962 . S
C278 H292 0.960 . S
C279 C276 1.511 . S
C279 H293 0.961 . S
C279 H294 0.961 . S
C279 H295 0.961 . S
C280 C281 1.370 . S
C280 C282 1.363 . S
C280 H296 0.931 . S
C281 C280 1.370 . S
C281 C285 1.408 . S
C282 C280 1.363 . S
C282 C283 1.370 . S
C282 C286 1.524 . S
C283 C275 1.503 . S
C283 C282 1.370 . S
C283 C284 1.403 . S
C284 C283 1.403 . S
C284 C285 1.404 . S
C284 C287 1.539 . S
C285 C281 1.408 . S
C285 C284 1.404 . S
C285 H297 0.930 . S
C286 C282 1.524 . S
C286 H298 0.956 . S
C286 H299 0.961 . S
C286 H300 0.961 . S
C287 C284 1.539 . S
C287 H301 0.958 . S
C287 H302 0.961 . S
C287 H303 0.960 . S
H288 C272 0.931 . S
H289 C277 0.929 . S
H290 C278 0.960 . S
H291 C278 0.962 . S
H292 C278 0.960 . S
H293 C279 0.961 . S
H294 C279 0.961 . S
H295 C279 0.961 . S
H296 C280 0.931 . S
H297 C285 0.930 . S
H298 C286 0.956 . S
H299 C286 0.961 . S
H300 C286 0.961 . S
H301 C287 0.958 . S
H302 C287 0.961 . S
H303 C287 0.960 . S
C304 C305 1.391 . S
C304 C306 1.394 . S
C304 H320 0.931 . S
C305 C304 1.391 . S
C305 C309 1.376 . S
C306 C304 1.394 . S
C306 C307 1.369 . S
C306 C310 1.531 . S
C307 C306 1.369 . S
C307 C308 1.410 . S
C307 C315 1.503 . S
C308 C307 1.410 . S
C308 C309 1.392 . S
C308 C311 1.511 . S
C309 C305 1.376 . S
C309 C308 1.392 . S
C309 H321 0.929 . S
C310 C306 1.531 . S
C310 H322 0.960 . S
C310 H323 0.962 . S
C310 H324 0.960 . S
C311 C308 1.511 . S
C311 H325 0.961 . S
C311 H326 0.961 . S
C311 H327 0.961 . S
C312 C313 1.370 . S
C312 C314 1.363 . S
C312 H328 0.931 . S
C313 C312 1.370 . S
C313 C317 1.408 . S
C314 C312 1.363 . S
C314 C315 1.370 . S
C314 C318 1.524 . S
C315 C307 1.503 . S
C315 C314 1.370 . S
C315 C316 1.403 . S
C316 C315 1.403 . S
C316 C317 1.404 . S
C316 C319 1.539 . S
C317 C313 1.408 . S
C317 C316 1.404 . S
C317 H329 0.930 . S
C318 C314 1.524 . S
C318 H330 0.956 . S
C318 H331 0.961 . S
C318 H332 0.961 . S
C319 C316 1.539 . S
C319 H333 0.958 . S
C319 H334 0.961 . S
C319 H335 0.960 . S
H320 C304 0.931 . S
H321 C309 0.929 . S
H322 C310 0.960 . S
H323 C310 0.962 . S
H324 C310 0.960 . S
H325 C311 0.961 . S
H326 C311 0.961 . S
H327 C311 0.961 . S
H328 C312 0.931 . S
H329 C317 0.930 . S
H330 C318 0.956 . S
H331 C318 0.961 . S
H332 C318 0.961 . S
H333 C319 0.958 . S
H334 C319 0.961 . S
H335 C319 0.960 . S
C336 C337 1.391 . S
C336 C338 1.394 . S
C336 H352 0.931 . S
C337 C336 1.391 . S
C337 C341 1.376 . S
C338 C336 1.394 . S
C338 C339 1.369 . S
C338 C342 1.531 . S
C339 C338 1.369 . S
C339 C340 1.410 . S
C339 C347 1.503 . S
C340 C339 1.410 . S
C340 C341 1.392 . S
C340 C343 1.511 . S
C341 C337 1.376 . S
C341 C340 1.392 . S
C341 H353 0.929 . S
C342 C338 1.531 . S
C342 H354 0.960 . S
C342 H355 0.962 . S
C342 H356 0.960 . S
C343 C340 1.511 . S
C343 H357 0.961 . S
C343 H358 0.961 . S
C343 H359 0.961 . S
C344 C345 1.370 . S
C344 C346 1.363 . S
C344 H360 0.931 . S
C345 C344 1.370 . S
C345 C349 1.408 . S
C346 C344 1.363 . S
C346 C347 1.370 . S
C346 C350 1.524 . S
C347 C339 1.503 . S
C347 C346 1.370 . S
C347 C348 1.403 . S
C348 C347 1.403 . S
C348 C349 1.404 . S
C348 C351 1.539 . S
C349 C345 1.408 . S
C349 C348 1.404 . S
C349 H361 0.930 . S
C350 C346 1.524 . S
C350 H362 0.956 . S
C350 H363 0.961 . S
C350 H364 0.961 . S
C351 C348 1.539 . S
C351 H365 0.958 . S
C351 H366 0.961 . S
C351 H367 0.960 . S
H352 C336 0.931 . S
H353 C341 0.929 . S
H354 C342 0.960 . S
H355 C342 0.962 . S
H356 C342 0.960 . S
H357 C343 0.961 . S
H358 C343 0.961 . S
H359 C343 0.961 . S
H360 C344 0.931 . S
H361 C349 0.930 . S
H362 C350 0.956 . S
H363 C350 0.961 . S
H364 C350 0.961 . S
H365 C351 0.958 . S
H366 C351 0.961 . S
H367 C351 0.960 . S
C368 C369 1.391 . S
C368 C370 1.394 . S
C368 H384 0.931 . S
C369 C368 1.391 . S
C369 C373 1.376 . S
C370 C368 1.394 . S
C370 C371 1.369 . S
C370 C374 1.531 . S
C371 C370 1.369 . S
C371 C372 1.410 . S
C371 C379 1.503 . S
C372 C371 1.410 . S
C372 C373 1.392 . S
C372 C375 1.511 . S
C373 C369 1.376 . S
C373 C372 1.392 . S
C373 H385 0.929 . S
C374 C370 1.531 . S
C374 H386 0.960 . S
C374 H387 0.962 . S
C374 H388 0.960 . S
C375 C372 1.511 . S
C375 H389 0.961 . S
C375 H390 0.961 . S
C375 H391 0.961 . S
C376 C377 1.370 . S
C376 C378 1.363 . S
C376 H392 0.931 . S
C377 C376 1.370 . S
C377 C381 1.408 . S
C378 C376 1.363 . S
C378 C379 1.370 . S
C378 C382 1.524 . S
C379 C371 1.503 . S
C379 C378 1.370 . S
C379 C380 1.403 . S
C380 C379 1.403 . S
C380 C381 1.404 . S
C380 C383 1.539 . S
C381 C377 1.408 . S
C381 C380 1.404 . S
C381 H393 0.930 . S
C382 C378 1.524 . S
C382 H394 0.956 . S
C382 H395 0.961 . S
C382 H396 0.961 . S
C383 C380 1.539 . S
C383 H397 0.958 . S
C383 H398 0.961 . S
C383 H399 0.960 . S
H384 C368 0.931 . S
H385 C373 0.929 . S
H386 C374 0.960 . S
H387 C374 0.962 . S
H388 C374 0.960 . S
H389 C375 0.961 . S
H390 C375 0.961 . S
H391 C375 0.961 . S
H392 C376 0.931 . S
H393 C381 0.930 . S
H394 C382 0.956 . S
H395 C382 0.961 . S
H396 C382 0.961 . S
H397 C383 0.958 . S
H398 C383 0.961 . S
H399 C383 0.960 . S
C400 C401 1.391 . S
C400 C402 1.394 . S
C400 H416 0.931 . S
C401 C400 1.391 . S
C401 C405 1.376 . S
C402 C400 1.394 . S
C402 C403 1.369 . S
C402 C406 1.531 . S
C403 C402 1.369 . S
C403 C404 1.410 . S
C403 C411 1.503 . S
C404 C403 1.410 . S
C404 C405 1.392 . S
C404 C407 1.511 . S
C405 C401 1.376 . S
C405 C404 1.392 . S
C405 H417 0.929 . S
C406 C402 1.531 . S
C406 H418 0.960 . S
C406 H419 0.962 . S
C406 H420 0.960 . S
C407 C404 1.511 . S
C407 H421 0.961 . S
C407 H422 0.961 . S
C407 H423 0.961 . S
C408 C409 1.370 . S
C408 C410 1.363 . S
C408 H424 0.931 . S
C409 C408 1.370 . S
C409 C413 1.408 . S
C410 C408 1.363 . S
C410 C411 1.370 . S
C410 C414 1.524 . S
C411 C403 1.503 . S
C411 C410 1.370 . S
C411 C412 1.403 . S
C412 C411 1.403 . S
C412 C413 1.404 . S
C412 C415 1.539 . S
C413 C409 1.408 . S
C413 C412 1.404 . S
C413 H425 0.930 . S
C414 C410 1.524 . S
C414 H426 0.956 . S
C414 H427 0.961 . S
C414 H428 0.961 . S
C415 C412 1.539 . S
C415 H429 0.958 . S
C415 H430 0.961 . S
C415 H431 0.960 . S
H416 C400 0.931 . S
H417 C405 0.929 . S
H418 C406 0.960 . S
H419 C406 0.962 . S
H420 C406 0.960 . S
H421 C407 0.961 . S
H422 C407 0.961 . S
H423 C407 0.961 . S
H424 C408 0.931 . S
H425 C413 0.930 . S
H426 C414 0.956 . S
H427 C414 0.961 . S
H428 C414 0.961 . S
H429 C415 0.958 . S
H430 C415 0.961 . S
H431 C415 0.960 . S
C432 C433 1.391 . S
C432 C434 1.394 . S
C432 H448 0.931 . S
C433 C432 1.391 . S
C433 C437 1.376 . S
C434 C432 1.394 . S
C434 C435 1.369 . S
C434 C438 1.531 . S
C435 C434 1.369 . S
C435 C436 1.410 . S
C435 C443 1.503 . S
C436 C435 1.410 . S
C436 C437 1.392 . S
C436 C439 1.511 . S
C437 C433 1.376 . S
C437 C436 1.392 . S
C437 H449 0.929 . S
C438 C434 1.531 . S
C438 H450 0.960 . S
C438 H451 0.962 . S
C438 H452 0.960 . S
C439 C436 1.511 . S
C439 H453 0.961 . S
C439 H454 0.961 . S
C439 H455 0.961 . S
C440 C441 1.370 . S
C440 C442 1.363 . S
C440 H456 0.931 . S
C441 C440 1.370 . S
C441 C445 1.408 . S
C442 C440 1.363 . S
C442 C443 1.370 . S
C442 C446 1.524 . S
C443 C435 1.503 . S
C443 C442 1.370 . S
C443 C444 1.403 . S
C444 C443 1.403 . S
C444 C445 1.404 . S
C444 C447 1.539 . S
C445 C441 1.408 . S
C445 C444 1.404 . S
C445 H457 0.930 . S
C446 C442 1.524 . S
C446 H458 0.956 . S
C446 H459 0.961 . S
C446 H460 0.961 . S
C447 C444 1.539 . S
C447 H461 0.958 . S
C447 H462 0.961 . S
C447 H463 0.960 . S
H448 C432 0.931 . S
H449 C437 0.929 . S
H450 C438 0.960 . S
H451 C438 0.962 . S
H452 C438 0.960 . S
H453 C439 0.961 . S
H454 C439 0.961 . S
H455 C439 0.961 . S
H456 C440 0.931 . S
H457 C445 0.930 . S
H458 C446 0.956 . S
H459 C446 0.961 . S
H460 C446 0.961 . S
H461 C447 0.958 . S
H462 C447 0.961 . S
H463 C447 0.960 . S
C464 C465 1.391 . S
C464 C466 1.394 . S
C464 H480 0.931 . S
C465 C464 1.391 . S
C465 C469 1.376 . S
C466 C464 1.394 . S
C466 C467 1.369 . S
C466 C470 1.531 . S
C467 C466 1.369 . S
C467 C468 1.410 . S
C467 C475 1.503 1_556 S
C468 C467 1.410 . S
C468 C469 1.392 . S
C468 C471 1.511 . S
C469 C465 1.376 . S
C469 C468 1.392 . S
C469 H481 0.929 . S
C470 C466 1.531 . S
C470 H482 0.961 . S
C470 H483 0.962 . S
C470 H484 0.960 . S
C471 C468 1.511 . S
C471 H485 0.961 . S
C471 H486 0.961 1_556 S
C471 H487 0.961 . S
C472 C473 1.370 . S
C472 C474 1.363 . S
C472 H488 0.931 . S
C473 C472 1.370 . S
C473 C477 1.408 . S
C474 C472 1.363 . S
C474 C475 1.370 . S
C474 C478 1.524 . S
C475 C467 1.503 1_554 S
C475 C474 1.370 . S
C475 C476 1.403 . S
C476 C475 1.403 . S
C476 C477 1.404 . S
C476 C479 1.539 . S
C477 C473 1.408 . S
C477 C476 1.404 . S
C477 H489 0.930 . S
C478 C474 1.524 . S
C478 H490 0.956 . S
C478 H491 0.975 . S
C478 H492 0.961 . S
C479 C476 1.539 . S
C479 H493 0.958 . S
C479 H494 0.961 . S
C479 H495 0.960 1_554 S
H480 C464 0.931 . S
H481 C469 0.929 . S
H482 C470 0.961 . S
H483 C470 0.962 . S
H484 C470 0.960 . S
H485 C471 0.961 . S
H486 C471 0.961 1_554 S
H487 C471 0.961 . S
H488 C472 0.931 . S
H489 C477 0.930 . S
H490 C478 0.956 . S
H491 C478 0.975 . S
H492 C478 0.961 . S
H493 C479 0.958 . S
H494 C479 0.961 . S
H495 C479 0.960 1_556 S
C496 C497 1.391 . S
C496 C498 1.394 . S
C496 H512 0.931 . S
C497 C496 1.391 . S
C497 C501 1.376 . S
C498 C496 1.394 . S
C498 C499 1.369 . S
C498 C502 1.531 . S
C499 C498 1.369 . S
C499 C500 1.410 . S
C499 C507 1.503 1_556 S
C500 C499 1.410 . S
C500 C501 1.392 . S
C500 C503 1.511 . S
C501 C497 1.376 . S
C501 C500 1.392 . S
C501 H513 0.929 . S
C502 C498 1.531 . S
C502 H514 0.960 1_556 S
C502 H515 0.962 . S
C502 H516 0.960 . S
C503 C500 1.511 . S
C503 H517 0.961 . S
C503 H518 0.961 1_556 S
C503 H519 0.961 . S
C504 C505 1.370 . S
C504 C506 1.363 . S
C504 H520 0.931 . S
C505 C504 1.370 . S
C505 C509 1.408 . S
C506 C504 1.363 . S
C506 C507 1.370 . S
C506 C510 1.524 . S
C507 C499 1.503 1_554 S
C507 C506 1.370 . S
C507 C508 1.403 . S
C508 C507 1.403 . S
C508 C509 1.404 . S
C508 C511 1.539 . S
C509 C505 1.408 . S
C509 C508 1.404 . S
C509 H521 0.930 . S
C510 C506 1.524 . S
C510 H522 0.956 1_554 S
C510 H523 0.961 1_554 S
C510 H524 0.961 . S
C511 C508 1.539 . S
C511 H525 0.958 . S
C511 H526 0.961 . S
C511 H527 0.960 . S
H512 C496 0.931 . S
H513 C501 0.929 . S
H514 C502 0.960 1_554 S
H515 C502 0.962 . S
H516 C502 0.960 . S
H517 C503 0.961 . S
H518 C503 0.961 1_554 S
H519 C503 0.961 . S
H520 C504 0.931 . S
H521 C509 0.930 . S
H522 C510 0.956 1_556 S
H523 C510 0.961 1_556 S
H524 C510 0.961 . S
H525 C511 0.958 . S
H526 C511 0.961 . S
H527 C511 0.960 . S
C528 C529 1.391 . S
C528 C530 1.394 . S
C528 H544 0.931 . S
C529 C528 1.391 . S
C529 C533 1.376 . S
C530 C528 1.394 . S
C530 C531 1.369 . S
C530 C534 1.531 . S
C531 C530 1.369 . S
C531 C532 1.410 . S
C531 C539 1.503 1_556 S
C532 C531 1.410 . S
C532 C533 1.392 . S
C532 C535 1.511 . S
C533 C529 1.376 . S
C533 C532 1.392 . S
C533 H545 0.929 . S
C534 C530 1.531 . S
C534 H546 0.968 . S
C534 H547 0.962 . S
C534 H548 0.960 . S
C535 C532 1.511 . S
C535 H549 0.961 . S
C535 H550 0.961 1_556 S
C535 H551 0.961 . S
C536 C537 1.370 . S
C536 C538 1.363 . S
C536 H552 0.931 . S
C537 C536 1.370 . S
C537 C541 1.408 . S
C538 C536 1.363 . S
C538 C539 1.370 . S
C538 C542 1.524 . S
C539 C531 1.503 1_554 S
C539 C538 1.370 . S
C539 C540 1.403 . S
C540 C539 1.403 . S
C540 C541 1.404 . S
C540 C543 1.539 . S
C541 C537 1.408 . S
C541 C540 1.404 . S
C541 H553 0.930 . S
C542 C538 1.524 . S
C542 H554 0.956 . S
C542 H555 0.956 1_554 S
C542 H556 0.961 . S
C543 C540 1.539 . S
C543 H557 0.958 . S
C543 H558 0.961 . S
C543 H559 0.964 . S
H544 C528 0.931 . S
H545 C533 0.929 . S
H546 C534 0.968 . S
H547 C534 0.962 . S
H548 C534 0.960 . S
H549 C535 0.961 . S
H550 C535 0.961 1_554 S
H551 C535 0.961 . S
H552 C536 0.931 . S
H553 C541 0.930 . S
H554 C542 0.956 . S
H555 C542 0.956 1_556 S
H556 C542 0.961 . S
H557 C543 0.958 . S
H558 C543 0.961 . S
H559 C543 0.964 . S
C560 C561 1.391 . S
C560 C562 1.394 . S
C560 H576 0.931 . S
C561 C560 1.391 . S
C561 C565 1.376 . S
C562 C560 1.394 . S
C562 C563 1.369 . S
C562 C566 1.531 . S
C563 C562 1.369 . S
C563 C564 1.410 . S
C563 C571 1.503 1_554 S
C564 C563 1.410 . S
C564 C565 1.392 . S
C564 C567 1.511 . S
C565 C561 1.376 . S
C565 C564 1.392 . S
C565 H577 0.929 . S
C566 C562 1.531 . S
C566 H578 0.960 1_554 S
C566 H579 0.962 . S
C566 H580 0.960 . S
C567 C564 1.511 . S
C567 H581 0.961 . S
C567 H582 0.942 1_554 S
C567 H583 0.961 . S
C568 C569 1.370 . S
C568 C570 1.363 . S
C568 H584 0.931 . S
C569 C568 1.370 . S
C569 C573 1.408 . S
C570 C568 1.363 . S
C570 C571 1.370 . S
C570 C574 1.524 . S
C571 C563 1.503 1_556 S
C571 C570 1.370 . S
C571 C572 1.403 . S
C572 C571 1.403 . S
C572 C573 1.404 . S
C572 C575 1.539 . S
C573 C569 1.408 . S
C573 C572 1.404 . S
C573 H585 0.930 . S
C574 C570 1.524 . S
C574 H586 0.956 . S
C574 H587 0.961 1_556 S
C574 H588 0.961 . S
C575 C572 1.539 . S
C575 H589 0.958 . S
C575 H590 0.961 . S
C575 H591 0.960 . S
H576 C560 0.931 . S
H577 C565 0.929 . S
H578 C566 0.960 1_556 S
H579 C566 0.962 . S
H580 C566 0.960 . S
H581 C567 0.961 . S
H582 C567 0.942 1_556 S
H583 C567 0.961 . S
H584 C568 0.931 . S
H585 C573 0.930 . S
H586 C574 0.956 . S
H587 C574 0.961 1_554 S
H588 C574 0.961 . S
H589 C575 0.958 . S
H590 C575 0.961 . S
H591 C575 0.960 . S
C592 C593 1.391 . S
C592 C594 1.394 . S
C592 H608 0.931 . S
C593 C592 1.391 . S
C593 C597 1.376 . S
C594 C592 1.394 . S
C594 C595 1.369 . S
C594 C598 1.531 . S
C595 C594 1.369 . S
C595 C596 1.410 . S
C595 C603 1.503 . S
C596 C595 1.410 . S
C596 C597 1.392 . S
C596 C599 1.511 . S
C597 C593 1.376 . S
C597 C596 1.392 . S
C597 H609 0.929 . S
C598 C594 1.531 . S
C598 H610 0.960 . S
C598 H611 0.962 . S
C598 H612 0.960 . S
C599 C596 1.511 . S
C599 H613 0.961 . S
C599 H614 0.961 . S
C599 H615 0.961 . S
C600 C601 1.370 . S
C600 C602 1.363 . S
C600 H616 0.931 . S
C601 C600 1.370 . S
C601 C605 1.408 . S
C602 C600 1.363 . S
C602 C603 1.370 . S
C602 C606 1.524 . S
C603 C595 1.503 . S
C603 C602 1.370 . S
C603 C604 1.403 . S
C604 C603 1.403 . S
C604 C605 1.404 . S
C604 C607 1.539 . S
C605 C601 1.408 . S
C605 C604 1.404 . S
C605 H617 0.930 . S
C606 C602 1.524 . S
C606 H618 0.956 . S
C606 H619 0.961 . S
C606 H620 0.961 . S
C607 C604 1.539 . S
C607 H621 0.958 . S
C607 H622 0.961 . S
C607 H623 0.960 . S
H608 C592 0.931 . S
H609 C597 0.929 . S
H610 C598 0.960 . S
H611 C598 0.962 . S
H612 C598 0.960 . S
H613 C599 0.961 . S
H614 C599 0.961 . S
H615 C599 0.961 . S
H616 C600 0.931 . S
H617 C605 0.930 . S
H618 C606 0.956 . S
H619 C606 0.961 . S
H620 C606 0.961 . S
H621 C607 0.958 . S
H622 C607 0.961 . S
H623 C607 0.960 . S
C624 C625 1.391 . S
C624 C626 1.394 . S
C624 H640 0.931 . S
C625 C624 1.391 . S
C625 C629 1.376 . S
C626 C624 1.394 . S
C626 C627 1.369 . S
C626 C630 1.531 . S
C627 C626 1.369 . S
C627 C628 1.410 . S
C627 C635 1.503 . S
C628 C627 1.410 . S
C628 C629 1.392 . S
C628 C631 1.511 . S
C629 C625 1.376 . S
C629 C628 1.392 . S
C629 H641 0.929 . S
C630 C626 1.531 . S
C630 H642 0.960 . S
C630 H643 0.962 . S
C630 H644 0.960 . S
C631 C628 1.511 . S
C631 H645 0.961 . S
C631 H646 0.961 . S
C631 H647 0.961 . S
C632 C633 1.370 . S
C632 C634 1.363 . S
C632 H648 0.931 . S
C633 C632 1.370 . S
C633 C637 1.408 . S
C634 C632 1.363 . S
C634 C635 1.370 . S
C634 C638 1.524 . S
C635 C627 1.503 . S
C635 C634 1.370 . S
C635 C636 1.403 . S
C636 C635 1.403 . S
C636 C637 1.404 . S
C636 C639 1.539 . S
C637 C633 1.408 . S
C637 C636 1.404 . S
C637 H649 0.930 . S
C638 C634 1.524 . S
C638 H650 0.956 . S
C638 H651 0.961 . S
C638 H652 0.961 . S
C639 C636 1.539 . S
C639 H653 0.958 . S
C639 H654 0.961 . S
C639 H655 0.960 . S
H640 C624 0.931 . S
H641 C629 0.929 . S
H642 C630 0.960 . S
H643 C630 0.962 . S
H644 C630 0.960 . S
H645 C631 0.961 . S
H646 C631 0.961 . S
H647 C631 0.961 . S
H648 C632 0.931 . S
H649 C637 0.930 . S
H650 C638 0.956 . S
H651 C638 0.961 . S
H652 C638 0.961 . S
H653 C639 0.958 . S
H654 C639 0.961 . S
H655 C639 0.960 . S
C656 C657 1.391 . S
C656 C658 1.394 . S
C656 H672 0.931 . S
C657 C656 1.391 . S
C657 C661 1.376 . S
C658 C656 1.394 . S
C658 C659 1.369 . S
C658 C662 1.531 . S
C659 C658 1.369 . S
C659 C660 1.410 . S
C659 C667 1.503 . S
C660 C659 1.410 . S
C660 C661 1.392 . S
C660 C663 1.511 . S
C661 C657 1.376 . S
C661 C660 1.392 . S
C661 H673 0.929 . S
C662 C658 1.531 . S
C662 H674 0.960 . S
C662 H675 0.962 . S
C662 H676 0.960 . S
C663 C660 1.511 . S
C663 H677 0.961 . S
C663 H678 0.961 . S
C663 H679 0.961 . S
C664 C665 1.370 . S
C664 C666 1.363 . S
C664 H680 0.931 . S
C665 C664 1.370 . S
C665 C669 1.408 . S
C666 C664 1.363 . S
C666 C667 1.370 . S
C666 C670 1.524 . S
C667 C659 1.503 . S
C667 C666 1.370 . S
C667 C668 1.403 . S
C668 C667 1.403 . S
C668 C669 1.404 . S
C668 C671 1.539 . S
C669 C665 1.408 . S
C669 C668 1.404 . S
C669 H681 0.930 . S
C670 C666 1.524 . S
C670 H682 0.956 . S
C670 H683 0.961 . S
C670 H684 0.961 . S
C671 C668 1.539 . S
C671 H685 0.958 . S
C671 H686 0.961 . S
C671 H687 0.960 . S
H672 C656 0.931 . S
H673 C661 0.929 . S
H674 C662 0.960 . S
H675 C662 0.962 . S
H676 C662 0.960 . S
H677 C663 0.961 . S
H678 C663 0.961 . S
H679 C663 0.961 . S
H680 C664 0.931 . S
H681 C669 0.930 . S
H682 C670 0.956 . S
H683 C670 0.961 . S
H684 C670 0.961 . S
H685 C671 0.958 . S
H686 C671 0.961 . S
H687 C671 0.960 . S
C688 C689 1.391 . S
C688 C690 1.394 . S
C688 H704 0.931 . S
C689 C688 1.391 . S
C689 C693 1.376 . S
C690 C688 1.394 . S
C690 C691 1.369 . S
C690 C694 1.531 . S
C691 C690 1.369 . S
C691 C692 1.410 . S
C691 C699 1.503 . S
C692 C691 1.410 . S
C692 C693 1.392 . S
C692 C695 1.511 . S
C693 C689 1.376 . S
C693 C692 1.392 . S
C693 H705 0.929 . S
C694 C690 1.531 . S
C694 H706 0.960 . S
C694 H707 0.962 . S
C694 H708 0.960 . S
C695 C692 1.511 . S
C695 H709 0.961 . S
C695 H710 0.961 . S
C695 H711 0.961 . S
C696 C697 1.370 . S
C696 C698 1.363 . S
C696 H712 0.931 . S
C697 C696 1.370 . S
C697 C701 1.408 . S
C698 C696 1.363 . S
C698 C699 1.370 . S
C698 C702 1.524 . S
C699 C691 1.503 . S
C699 C698 1.370 . S
C699 C700 1.403 . S
C700 C699 1.403 . S
C700 C701 1.404 . S
C700 C703 1.539 . S
C701 C697 1.408 . S
C701 C700 1.404 . S
C701 H713 0.930 . S
C702 C698 1.524 . S
C702 H714 0.956 . S
C702 H715 0.961 . S
C702 H716 0.961 . S
C703 C700 1.539 . S
C703 H717 0.958 . S
C703 H718 0.961 . S
C703 H719 0.960 . S
H704 C688 0.931 . S
H705 C693 0.929 . S
H706 C694 0.960 . S
H707 C694 0.962 . S
H708 C694 0.960 . S
H709 C695 0.961 . S
H710 C695 0.961 . S
H711 C695 0.961 . S
H712 C696 0.931 . S
H713 C701 0.930 . S
H714 C702 0.956 . S
H715 C702 0.961 . S
H716 C702 0.961 . S
H717 C703 0.958 . S
H718 C703 0.961 . S
H719 C703 0.960 . S
C720 C721 1.391 . S
C720 C722 1.394 . S
C720 H736 0.931 . S
C721 C720 1.391 . S
C721 C725 1.376 . S
C722 C720 1.394 . S
C722 C723 1.369 . S
C722 C726 1.531 . S
C723 C722 1.369 . S
C723 C724 1.410 . S
C723 C731 1.503 . S
C724 C723 1.410 . S
C724 C725 1.392 . S
C724 C727 1.511 . S
C725 C721 1.376 . S
C725 C724 1.392 . S
C725 H737 0.929 . S
C726 C722 1.531 . S
C726 H738 0.960 . S
C726 H739 0.962 . S
C726 H740 0.960 . S
C727 C724 1.511 . S
C727 H741 0.961 . S
C727 H742 0.961 . S
C727 H743 0.961 . S
C728 C729 1.370 . S
C728 C730 1.363 . S
C728 H744 0.931 . S
C729 C728 1.370 . S
C729 C733 1.408 . S
C730 C728 1.363 . S
C730 C731 1.370 . S
C730 C734 1.524 . S
C731 C723 1.503 . S
C731 C730 1.370 . S
C731 C732 1.403 . S
C732 C731 1.403 . S
C732 C733 1.404 . S
C732 C735 1.539 . S
C733 C729 1.408 . S
C733 C732 1.404 . S
C733 H745 0.930 . S
C734 C730 1.524 . S
C734 H746 0.956 . S
C734 H747 0.961 . S
C734 H748 0.961 . S
C735 C732 1.539 . S
C735 H749 0.958 . S
C735 H750 0.961 . S
C735 H751 0.960 . S
H736 C720 0.931 . S
H737 C725 0.929 . S
H738 C726 0.960 . S
H739 C726 0.962 . S
H740 C726 0.960 . S
H741 C727 0.961 . S
H742 C727 0.961 . S
H743 C727 0.961 . S
H744 C728 0.931 . S
H745 C733 0.930 . S
H746 C734 0.956 . S
H747 C734 0.961 . S
H748 C734 0.961 . S
H749 C735 0.958 . S
H750 C735 0.961 . S
H751 C735 0.960 . S
C752 C753 1.391 . S
C752 C754 1.394 . S
C752 H768 0.931 . S
C753 C752 1.391 . S
C753 C757 1.376 . S
C754 C752 1.394 . S
C754 C755 1.369 . S
C754 C758 1.531 . S
C755 C754 1.369 . S
C755 C756 1.410 . S
C755 C763 1.503 . S
C756 C755 1.410 . S
C756 C757 1.392 . S
C756 C759 1.511 . S
C757 C753 1.376 . S
C757 C756 1.392 . S
C757 H769 0.929 . S
C758 C754 1.531 . S
C758 H770 0.960 . S
C758 H771 0.962 . S
C758 H772 0.960 . S
C759 C756 1.511 . S
C759 H773 0.961 . S
C759 H774 0.961 . S
C759 H775 0.961 . S
C760 C761 1.370 . S
C760 C762 1.363 . S
C760 H776 0.931 . S
C761 C760 1.370 . S
C761 C765 1.408 . S
C762 C760 1.363 . S
C762 C763 1.370 . S
C762 C766 1.524 . S
C763 C755 1.503 . S
C763 C762 1.370 . S
C763 C764 1.403 . S
C764 C763 1.403 . S
C764 C765 1.404 . S
C764 C767 1.539 . S
C765 C761 1.408 . S
C765 C764 1.404 . S
C765 H777 0.930 . S
C766 C762 1.524 . S
C766 H778 0.956 . S
C766 H779 0.961 . S
C766 H780 0.961 . S
C767 C764 1.539 . S
C767 H781 0.958 . S
C767 H782 0.961 . S
C767 H783 0.960 . S
H768 C752 0.931 . S
H769 C757 0.929 . S
H770 C758 0.960 . S
H771 C758 0.962 . S
H772 C758 0.960 . S
H773 C759 0.961 . S
H774 C759 0.961 . S
H775 C759 0.961 . S
H776 C760 0.931 . S
H777 C765 0.930 . S
H778 C766 0.956 . S
H779 C766 0.961 . S
H780 C766 0.961 . S
H781 C767 0.958 . S
H782 C767 0.961 . S
H783 C767 0.960 . S
C784 C785 1.391 . S
C784 C786 1.394 . S
C784 H800 0.931 . S
C785 C784 1.391 . S
C785 C789 1.376 . S
C786 C784 1.394 . S
C786 C787 1.369 . S
C786 C790 1.531 . S
C787 C786 1.369 . S
C787 C788 1.410 . S
C787 C795 1.503 . S
C788 C787 1.410 . S
C788 C789 1.392 . S
C788 C791 1.511 . S
C789 C785 1.376 . S
C789 C788 1.392 . S
C789 H801 0.929 . S
C790 C786 1.531 . S
C790 H802 0.960 . S
C790 H803 0.962 . S
C790 H804 0.960 . S
C791 C788 1.511 . S
C791 H805 0.961 . S
C791 H806 0.961 . S
C791 H807 0.961 . S
C792 C793 1.370 . S
C792 C794 1.363 . S
C792 H808 0.931 . S
C793 C792 1.370 . S
C793 C797 1.408 . S
C794 C792 1.363 . S
C794 C795 1.370 . S
C794 C798 1.524 . S
C795 C787 1.503 . S
C795 C794 1.370 . S
C795 C796 1.403 . S
C796 C795 1.403 . S
C796 C797 1.404 . S
C796 C799 1.539 . S
C797 C793 1.408 . S
C797 C796 1.404 . S
C797 H809 0.930 . S
C798 C794 1.524 . S
C798 H810 0.956 . S
C798 H811 0.961 . S
C798 H812 0.961 . S
C799 C796 1.539 . S
C799 H813 0.958 . S
C799 H814 0.961 . S
C799 H815 0.960 . S
H800 C784 0.931 . S
H801 C789 0.929 . S
H802 C790 0.960 . S
H803 C790 0.962 . S
H804 C790 0.960 . S
H805 C791 0.961 . S
H806 C791 0.961 . S
H807 C791 0.961 . S
H808 C792 0.931 . S
H809 C797 0.930 . S
H810 C798 0.956 . S
H811 C798 0.961 . S
H812 C798 0.961 . S
H813 C799 0.958 . S
H814 C799 0.961 . S
H815 C799 0.960 . S
C816 C817 1.391 . S
C816 C818 1.394 . S
C816 H832 0.931 . S
C817 C816 1.391 . S
C817 C821 1.376 . S
C818 C816 1.394 . S
C818 C819 1.369 . S
C818 C822 1.531 . S
C819 C818 1.369 . S
C819 C820 1.410 . S
C819 C827 1.503 . S
C820 C819 1.410 . S
C820 C821 1.392 . S
C820 C823 1.511 . S
C821 C817 1.376 . S
C821 C820 1.392 . S
C821 H833 0.929 . S
C822 C818 1.531 . S
C822 H834 0.960 . S
C822 H835 0.962 . S
C822 H836 0.960 . S
C823 C820 1.511 . S
C823 H837 0.961 . S
C823 H838 0.961 . S
C823 H839 0.961 . S
C824 C825 1.370 . S
C824 C826 1.363 . S
C824 H840 0.931 . S
C825 C824 1.370 . S
C825 C829 1.408 . S
C826 C824 1.363 . S
C826 C827 1.370 . S
C826 C830 1.524 . S
C827 C819 1.503 . S
C827 C826 1.370 . S
C827 C828 1.403 . S
C828 C827 1.403 . S
C828 C829 1.404 . S
C828 C831 1.539 . S
C829 C825 1.408 . S
C829 C828 1.404 . S
C829 H841 0.930 . S
C830 C826 1.524 . S
C830 H842 0.956 . S
C830 H843 0.961 . S
C830 H844 0.961 . S
C831 C828 1.539 . S
C831 H845 0.958 . S
C831 H846 0.961 . S
C831 H847 0.960 . S
H832 C816 0.931 . S
H833 C821 0.929 . S
H834 C822 0.960 . S
H835 C822 0.962 . S
H836 C822 0.960 . S
H837 C823 0.961 . S
H838 C823 0.961 . S
H839 C823 0.961 . S
H840 C824 0.931 . S
H841 C829 0.930 . S
H842 C830 0.956 . S
H843 C830 0.961 . S
H844 C830 0.961 . S
H845 C831 0.958 . S
H846 C831 0.961 . S
H847 C831 0.960 . S
C848 C849 1.391 . S
C848 C850 1.394 . S
C848 H864 0.931 . S
C849 C848 1.391 . S
C849 C853 1.376 . S
C850 C848 1.394 . S
C850 C851 1.369 . S
C850 C854 1.531 . S
C851 C850 1.369 . S
C851 C852 1.410 . S
C851 C859 1.503 . S
C852 C851 1.410 . S
C852 C853 1.392 . S
C852 C855 1.511 . S
C853 C849 1.376 . S
C853 C852 1.392 . S
C853 H865 0.929 . S
C854 C850 1.531 . S
C854 H866 0.960 . S
C854 H867 0.962 . S
C854 H868 0.960 . S
C855 C852 1.511 . S
C855 H869 0.961 . S
C855 H870 0.961 . S
C855 H871 0.961 . S
C856 C857 1.370 . S
C856 C858 1.363 . S
C856 H872 0.931 . S
C857 C856 1.370 . S
C857 C861 1.408 . S
C858 C856 1.363 . S
C858 C859 1.370 . S
C858 C862 1.524 . S
C859 C851 1.503 . S
C859 C858 1.370 . S
C859 C860 1.403 . S
C860 C859 1.403 . S
C860 C861 1.404 . S
C860 C863 1.539 . S
C861 C857 1.408 . S
C861 C860 1.404 . S
C861 H873 0.930 . S
C862 C858 1.524 . S
C862 H874 0.956 . S
C862 H875 0.961 . S
C862 H876 0.961 . S
C863 C860 1.539 . S
C863 H877 0.958 . S
C863 H878 0.961 . S
C863 H879 0.960 . S
H864 C848 0.931 . S
H865 C853 0.929 . S
H866 C854 0.960 . S
H867 C854 0.962 . S
H868 C854 0.960 . S
H869 C855 0.961 . S
H870 C855 0.961 . S
H871 C855 0.961 . S
H872 C856 0.931 . S
H873 C861 0.930 . S
H874 C862 0.956 . S
H875 C862 0.961 . S
H876 C862 0.961 . S
H877 C863 0.958 . S
H878 C863 0.961 . S
H879 C863 0.960 . S
C880 C881 1.391 . S
C880 C882 1.394 . S
C880 H896 0.931 . S
C881 C880 1.391 . S
C881 C885 1.376 . S
C882 C880 1.394 . S
C882 C883 1.369 . S
C882 C886 1.531 . S
C883 C882 1.369 . S
C883 C884 1.410 . S
C883 C891 1.503 . S
C884 C883 1.410 . S
C884 C885 1.392 . S
C884 C887 1.511 . S
C885 C881 1.376 . S
C885 C884 1.392 . S
C885 H897 0.929 . S
C886 C882 1.531 . S
C886 H898 0.960 . S
C886 H899 0.962 . S
C886 H900 0.960 . S
C887 C884 1.511 . S
C887 H901 0.961 . S
C887 H902 0.961 . S
C887 H903 0.961 . S
C888 C889 1.370 . S
C888 C890 1.363 . S
C888 H904 0.931 . S
C889 C888 1.370 . S
C889 C893 1.408 . S
C890 C888 1.363 . S
C890 C891 1.370 . S
C890 C894 1.524 . S
C891 C883 1.503 . S
C891 C890 1.370 . S
C891 C892 1.403 . S
C892 C891 1.403 . S
C892 C893 1.404 . S
C892 C895 1.539 . S
C893 C889 1.408 . S
C893 C892 1.404 . S
C893 H905 0.930 . S
C894 C890 1.524 . S
C894 H906 0.956 . S
C894 H907 0.961 . S
C894 H908 0.961 . S
C895 C892 1.539 . S
C895 H909 0.958 . S
C895 H910 0.961 . S
C895 H911 0.960 . S
H896 C880 0.931 . S
H897 C885 0.929 . S
H898 C886 0.960 . S
H899 C886 0.962 . S
H900 C886 0.960 . S
H901 C887 0.961 . S
H902 C887 0.961 . S
H903 C887 0.961 . S
H904 C888 0.931 . S
H905 C893 0.930 . S
H906 C894 0.956 . S
H907 C894 0.961 . S
H908 C894 0.961 . S
H909 C895 0.958 . S
H910 C895 0.961 . S
H911 C895 0.960 . S
C912 C913 1.391 . S
C912 C914 1.394 . S
C912 H928 0.931 . S
C913 C912 1.391 . S
C913 C917 1.376 . S
C914 C912 1.394 . S
C914 C915 1.369 . S
C914 C918 1.531 . S
C915 C914 1.369 . S
C915 C916 1.410 . S
C915 C923 1.503 . S
C916 C915 1.410 . S
C916 C917 1.392 . S
C916 C919 1.511 . S
C917 C913 1.376 . S
C917 C916 1.392 . S
C917 H929 0.929 . S
C918 C914 1.531 . S
C918 H930 0.960 . S
C918 H931 0.962 . S
C918 H932 0.960 . S
C919 C916 1.511 . S
C919 H933 0.961 . S
C919 H934 0.961 . S
C919 H935 0.961 . S
C920 C921 1.370 . S
C920 C922 1.363 . S
C920 H936 0.931 . S
C921 C920 1.370 . S
C921 C925 1.408 . S
C922 C920 1.363 . S
C922 C923 1.370 . S
C922 C926 1.524 . S
C923 C915 1.503 . S
C923 C922 1.370 . S
C923 C924 1.403 . S
C924 C923 1.403 . S
C924 C925 1.404 . S
C924 C927 1.539 . S
C925 C921 1.408 . S
C925 C924 1.404 . S
C925 H937 0.930 . S
C926 C922 1.524 . S
C926 H938 0.956 . S
C926 H939 0.961 . S
C926 H940 0.961 . S
C927 C924 1.539 . S
C927 H941 0.958 . S
C927 H942 0.961 . S
C927 H943 0.960 . S
H928 C912 0.931 . S
H929 C917 0.929 . S
H930 C918 0.960 . S
H931 C918 0.962 . S
H932 C918 0.960 . S
H933 C919 0.961 . S
H934 C919 0.961 . S
H935 C919 0.961 . S
H936 C920 0.931 . S
H937 C925 0.930 . S
H938 C926 0.956 . S
H939 C926 0.961 . S
H940 C926 0.961 . S
H941 C927 0.958 . S
H942 C927 0.961 . S
H943 C927 0.960 . S
C944 C945 1.391 . S
C944 C946 1.394 . S
C944 H960 0.931 . S
C945 C944 1.391 . S
C945 C949 1.376 . S
C946 C944 1.394 . S
C946 C947 1.369 . S
C946 C950 1.531 . S
C947 C946 1.369 . S
C947 C948 1.410 . S
C947 C955 1.503 . S
C948 C947 1.410 . S
C948 C949 1.392 . S
C948 C951 1.511 . S
C949 C945 1.376 . S
C949 C948 1.392 . S
C949 H961 0.929 . S
C950 C946 1.531 . S
C950 H962 0.960 . S
C950 H963 0.962 . S
C950 H964 0.960 . S
C951 C948 1.511 . S
C951 H965 0.961 . S
C951 H966 0.961 . S
C951 H967 0.961 . S
C952 C953 1.370 . S
C952 C954 1.363 . S
C952 H968 0.931 . S
C953 C952 1.370 . S
C953 C957 1.408 . S
C954 C952 1.363 . S
C954 C955 1.370 . S
C954 C958 1.524 . S
C955 C947 1.503 . S
C955 C954 1.370 . S
C955 C956 1.403 . S
C956 C955 1.403 . S
C956 C957 1.404 . S
C956 C959 1.539 . S
C957 C953 1.408 . S
C957 C956 1.404 . S
C957 H969 0.930 . S
C958 C954 1.524 . S
C958 H970 0.956 . S
C958 H971 0.961 . S
C958 H972 0.961 . S
C959 C956 1.539 . S
C959 H973 0.958 . S
C959 H974 0.961 . S
C959 H975 0.960 . S
H960 C944 0.931 . S
H961 C949 0.929 . S
H962 C950 0.960 . S
H963 C950 0.962 . S
H964 C950 0.960 . S
H965 C951 0.961 . S
H966 C951 0.961 . S
H967 C951 0.961 . S
H968 C952 0.931 . S
H969 C957 0.930 . S
H970 C958 0.956 . S
H971 C958 0.961 . S
H972 C958 0.961 . S
H973 C959 0.958 . S
H974 C959 0.961 . S
H975 C959 0.960 . S
C976 C977 1.391 . S
C976 C978 1.394 . S
C976 H992 0.931 . S
C977 C976 1.391 . S
C977 C981 1.376 . S
C978 C976 1.394 . S
C978 C979 1.369 . S
C978 C982 1.531 1_545 S
C979 C978 1.369 . S
C979 C980 1.410 . S
C979 C987 1.503 1_545 S
C980 C979 1.410 . S
C980 C981 1.392 . S
C980 C983 1.511 . S
C981 C977 1.376 . S
C981 C980 1.392 . S
C981 H993 0.929 . S
C982 C978 1.531 1_565 S
C982 H994 0.960 . S
C982 H995 0.962 . S
C982 H996 0.960 1_565 S
C983 C980 1.511 . S
C983 H997 0.961 . S
C983 H998 0.961 . S
C983 H999 0.961 . S
C984 C985 1.370 . S
C984 C986 1.363 . S
C984 H1000 0.931 . S
C985 C984 1.370 . S
C985 C989 1.408 . S
C986 C984 1.363 . S
C986 C987 1.370 . S
C986 C990 1.524 . S
C987 C979 1.503 1_565 S
C987 C986 1.370 . S
C987 C988 1.403 . S
C988 C987 1.403 . S
C988 C989 1.404 . S
C988 C991 1.539 . S
C989 C985 1.408 . S
C989 C988 1.404 . S
C989 H1001 0.930 . S
C990 C986 1.524 . S
C990 H1002 0.956 . S
C990 H1003 0.961 1_565 S
C990 H1004 0.961 . S
C991 C988 1.539 . S
C991 H1005 0.958 . S
C991 H1006 0.961 . S
C991 H1007 0.988 . S
H992 C976 0.931 . S
H993 C981 0.929 . S
H994 C982 0.960 . S
H995 C982 0.962 . S
H996 C982 0.960 1_545 S
H997 C983 0.961 . S
H998 C983 0.961 . S
H999 C983 0.961 . S
H1000 C984 0.931 . S
H1001 C989 0.930 . S
H1002 C990 0.956 . S
H1003 C990 0.961 1_545 S
H1004 C990 0.961 . S
H1005 C991 0.958 . S
H1006 C991 0.961 . S
H1007 C991 0.988 . S
C1008 C1009 1.391 . S
C1008 C1010 1.394 . S
C1008 H1024 0.931 . S
C1009 C1008 1.391 . S
C1009 C1013 1.376 . S
C1010 C1008 1.394 . S
C1010 C1011 1.369 . S
C1010 C1014 1.531 . S
C1011 C1010 1.369 . S
C1011 C1012 1.410 . S
C1011 C1019 1.503 1_655 S
C1012 C1011 1.410 . S
C1012 C1013 1.392 . S
C1012 C1015 1.511 . S
C1013 C1009 1.376 . S
C1013 C1012 1.392 . S
C1013 H1025 0.929 . S
C1014 C1010 1.531 . S
C1014 H1026 0.960 . S
C1014 H1027 0.962 . S
C1014 H1028 0.960 . S
C1015 C1012 1.511 . S
C1015 H1029 0.961 . S
C1015 H1030 0.961 1_655 S
C1015 H1031 0.961 . S
C1016 C1017 1.370 . S
C1016 C1018 1.363 . S
C1016 H1032 0.931 . S
C1017 C1016 1.370 . S
C1017 C1021 1.408 . S
C1018 C1016 1.363 . S
C1018 C1019 1.370 . S
C1018 C1022 1.524 . S
C1019 C1011 1.503 1_455 S
C1019 C1018 1.370 . S
C1019 C1020 1.403 . S
C1020 C1019 1.403 . S
C1020 C1021 1.404 . S
C1020 C1023 1.539 1_455 S
C1021 C1017 1.408 . S
C1021 C1020 1.404 . S
C1021 H1033 0.930 . S
C1022 C1018 1.524 . S
C1022 H1034 0.956 . S
C1022 H1035 0.961 . S
C1022 H1036 0.961 . S
C1023 C1020 1.539 1_655 S
C1023 H1037 0.958 . S
C1023 H1038 0.961 1_655 S
C1023 H1039 0.960 . S
H1024 C1008 0.931 . S
H1025 C1013 0.929 . S
H1026 C1014 0.960 . S
H1027 C1014 0.962 . S
H1028 C1014 0.960 . S
H1029 C1015 0.961 . S
H1030 C1015 0.961 1_455 S
H1031 C1015 0.961 . S
H1032 C1016 0.931 . S
H1033 C1021 0.930 . S
H1034 C1022 0.956 . S
H1035 C1022 0.961 . S
H1036 C1022 0.961 . S
H1037 C1023 0.958 . S
H1038 C1023 0.961 1_455 S
H1039 C1023 0.960 . S
C1040 C1041 1.391 . S
C1040 C1042 1.394 . S
C1040 H1056 0.931 . S
C1041 C1040 1.391 . S
C1041 C1045 1.376 . S
C1042 C1040 1.394 . S
C1042 C1043 1.369 . S
C1042 C1046 1.531 1_545 S
C1043 C1042 1.369 . S
C1043 C1044 1.410 . S
C1043 C1051 1.503 1_545 S
C1044 C1043 1.410 . S
C1044 C1045 1.392 . S
C1044 C1047 1.511 . S
C1045 C1041 1.376 . S
C1045 C1044 1.392 . S
C1045 H1057 0.929 . S
C1046 C1042 1.531 1_565 S
C1046 H1058 0.960 . S
C1046 H1059 0.962 . S
C1046 H1060 0.960 1_565 S
C1047 C1044 1.511 . S
C1047 H1061 0.961 . S
C1047 H1062 0.961 . S
C1047 H1063 0.961 . S
C1048 C1049 1.370 . S
C1048 C1050 1.363 . S
C1048 H1064 0.931 . S
C1049 C1048 1.370 . S
C1049 C1053 1.408 . S
C1050 C1048 1.363 . S
C1050 C1051 1.370 . S
C1050 C1054 1.524 . S
C1051 C1043 1.503 1_565 S
C1051 C1050 1.370 . S
C1051 C1052 1.403 . S
C1052 C1051 1.403 . S
C1052 C1053 1.404 . S
C1052 C1055 1.539 . S
C1053 C1049 1.408 . S
C1053 C1052 1.404 . S
C1053 H1065 0.930 . S
C1054 C1050 1.524 . S
C1054 H1066 0.956 . S
C1054 H1067 0.961 1_565 S
C1054 H1068 0.961 . S
C1055 C1052 1.539 . S
C1055 H1069 0.958 . S
C1055 H1070 0.961 . S
C1055 H1071 0.960 1_565 S
H1056 C1040 0.931 . S
H1057 C1045 0.929 . S
H1058 C1046 0.960 . S
H1059 C1046 0.962 . S
H1060 C1046 0.960 1_545 S
H1061 C1047 0.961 . S
H1062 C1047 0.961 . S
H1063 C1047 0.961 . S
H1064 C1048 0.931 . S
H1065 C1053 0.930 . S
H1066 C1054 0.956 . S
H1067 C1054 0.961 1_545 S
H1068 C1054 0.961 . S
H1069 C1055 0.958 . S
H1070 C1055 0.961 . S
H1071 C1055 0.960 1_545 S
C1072 C1073 1.391 . S
C1072 C1074 1.394 . S
C1072 H1088 0.931 . S
C1073 C1072 1.391 . S
C1073 C1077 1.376 . S
C1074 C1072 1.394 . S
C1074 C1075 1.369 . S
C1074 C1078 1.500 1_455 S
C1075 C1074 1.369 . S
C1075 C1076 1.410 . S
C1075 C1083 1.503 1_455 S
C1076 C1075 1.410 . S
C1076 C1077 1.392 . S
C1076 C1079 1.511 . S
C1077 C1073 1.376 . S
C1077 C1076 1.392 . S
C1077 H1089 0.929 . S
C1078 C1074 1.500 1_655 S
C1078 H1090 0.990 . S
C1078 H1091 0.981 . S
C1078 H1092 0.944 1_655 S
C1079 C1076 1.511 . S
C1079 H1093 0.961 . S
C1079 H1094 0.961 . S
C1079 H1095 0.961 . S
C1080 C1081 1.370 . S
C1080 C1082 1.363 . S
C1080 H1096 0.931 . S
C1081 C1080 1.370 . S
C1081 C1085 1.408 . S
C1082 C1080 1.363 . S
C1082 C1083 1.370 . S
C1082 C1086 1.524 . S
C1083 C1075 1.503 1_655 S
C1083 C1082 1.370 . S
C1083 C1084 1.403 . S
C1084 C1083 1.403 . S
C1084 C1085 1.404 . S
C1084 C1087 1.539 . S
C1085 C1081 1.408 . S
C1085 C1084 1.404 . S
C1085 H1097 0.930 . S
C1086 C1082 1.524 . S
C1086 H1098 0.956 . S
C1086 H1099 0.988 . S
C1086 H1100 0.961 . S
C1087 C1084 1.539 . S
C1087 H1101 0.958 . S
C1087 H1102 0.961 . S
C1087 H1103 0.960 1_655 S
H1088 C1072 0.931 . S
H1089 C1077 0.929 . S
H1090 C1078 0.990 . S
H1091 C1078 0.981 . S
H1092 C1078 0.944 1_455 S
H1093 C1079 0.961 . S
H1094 C1079 0.961 . S
H1095 C1079 0.961 . S
H1096 C1080 0.931 . S
H1097 C1085 0.930 . S
H1098 C1086 0.956 . S
H1099 C1086 0.988 . S
H1100 C1086 0.961 . S
H1101 C1087 0.958 . S
H1102 C1087 0.961 . S
H1103 C1087 0.960 1_455 S
C1104 C1105 1.391 . S
C1104 C1106 1.394 . S
C1104 H1120 0.931 . S
C1105 C1104 1.391 . S
C1105 C1109 1.376 . S
C1106 C1104 1.394 . S
C1106 C1107 1.369 . S
C1106 C1110 1.531 . S
C1107 C1106 1.369 . S
C1107 C1108 1.410 . S
C1107 C1115 1.503 1_545 S
C1108 C1107 1.410 . S
C1108 C1109 1.392 . S
C1108 C1111 1.511 . S
C1109 C1105 1.376 . S
C1109 C1108 1.392 . S
C1109 H1121 0.929 . S
C1110 C1106 1.531 . S
C1110 H1122 0.960 . S
C1110 H1123 0.962 . S
C1110 H1124 0.960 . S
C1111 C1108 1.511 . S
C1111 H1125 0.961 . S
C1111 H1126 0.961 1_545 S
C1111 H1127 0.961 . S
C1112 C1113 1.370 . S
C1112 C1114 1.363 . S
C1112 H1128 0.931 . S
C1113 C1112 1.370 . S
C1113 C1117 1.408 . S
C1114 C1112 1.363 . S
C1114 C1115 1.370 . S
C1114 C1118 1.524 . S
C1115 C1107 1.503 1_565 S
C1115 C1114 1.370 . S
C1115 C1116 1.403 . S
C1116 C1115 1.403 . S
C1116 C1117 1.404 . S
C1116 C1119 1.539 1_565 S
C1117 C1113 1.408 . S
C1117 C1116 1.404 . S
C1117 H1129 0.930 . S
C1118 C1114 1.524 . S
C1118 H1130 0.956 . S
C1118 H1131 0.961 . S
C1118 H1132 0.961 . S
C1119 C1116 1.539 1_545 S
C1119 H1133 0.958 . S
C1119 H1134 0.961 1_545 S
C1119 H1135 0.960 . S
H1120 C1104 0.931 . S
H1121 C1109 0.929 . S
H1122 C1110 0.960 . S
H1123 C1110 0.962 . S
H1124 C1110 0.960 . S
H1125 C1111 0.961 . S
H1126 C1111 0.961 1_565 S
H1127 C1111 0.961 . S
H1128 C1112 0.931 . S
H1129 C1117 0.930 . S
H1130 C1118 0.956 . S
H1131 C1118 0.961 . S
H1132 C1118 0.961 . S
H1133 C1119 0.958 . S
H1134 C1119 0.961 1_565 S
H1135 C1119 0.960 . S
C1136 C1137 1.391 . S
C1136 C1138 1.394 . S
C1136 H1152 0.931 . S
C1137 C1136 1.391 . S
C1137 C1141 1.376 . S
C1138 C1136 1.394 . S
C1138 C1139 1.369 . S
C1138 C1142 1.521 1_655 S
C1139 C1138 1.369 . S
C1139 C1140 1.410 . S
C1139 C1147 1.503 1_655 S
C1140 C1139 1.410 . S
C1140 C1141 1.392 . S
C1140 C1143 1.511 . S
C1141 C1137 1.376 . S
C1141 C1140 1.392 . S
C1141 H1153 0.929 . S
C1142 C1138 1.521 1_455 S
C1142 H1154 0.969 . S
C1142 H1155 0.968 . S
C1142 H1156 0.955 1_455 S
C1143 C1140 1.511 . S
C1143 H1157 0.961 . S
C1143 H1158 0.961 . S
C1143 H1159 0.961 . S
C1144 C1145 1.370 . S
C1144 C1146 1.363 . S
C1144 H1160 0.931 . S
C1145 C1144 1.370 . S
C1145 C1149 1.408 . S
C1146 C1144 1.363 . S
C1146 C1147 1.370 . S
C1146 C1150 1.524 . S
C1147 C1139 1.503 1_455 S
C1147 C1146 1.370 . S
C1147 C1148 1.403 . S
C1148 C1147 1.403 . S
C1148 C1149 1.404 . S
C1148 C1151 1.539 . S
C1149 C1145 1.408 . S
C1149 C1148 1.404 . S
C1149 H1161 0.930 . S
C1150 C1146 1.524 . S
C1150 H1162 0.956 . S
C1150 H1163 0.961 . S
C1150 H1164 0.961 . S
C1151 C1148 1.539 . S
C1151 H1165 0.958 . S
C1151 H1166 0.961 . S
C1151 H1167 0.960 1_455 S
H1152 C1136 0.931 . S
H1153 C1141 0.929 . S
H1154 C1142 0.969 . S
H1155 C1142 0.968 . S
H1156 C1142 0.955 1_655 S
H1157 C1143 0.961 . S
H1158 C1143 0.961 . S
H1159 C1143 0.961 . S
H1160 C1144 0.931 . S
H1161 C1149 0.930 . S
H1162 C1150 0.956 . S
H1163 C1150 0.961 . S
H1164 C1150 0.961 . S
H1165 C1151 0.958 . S
H1166 C1151 0.961 . S
H1167 C1151 0.960 1_655 S
C1168 C1169 1.391 . S
C1168 C1170 1.394 . S
C1168 H1184 0.931 . S
C1169 C1168 1.391 . S
C1169 C1173 1.376 . S
C1170 C1168 1.394 . S
C1170 C1171 1.369 . S
C1170 C1174 1.531 . S
C1171 C1170 1.369 . S
C1171 C1172 1.410 . S
C1171 C1179 1.503 1_565 S
C1172 C1171 1.410 . S
C1172 C1173 1.392 . S
C1172 C1175 1.532 . S
C1173 C1169 1.376 . S
C1173 C1172 1.392 . S
C1173 H1185 0.929 . S
C1174 C1170 1.531 . S
C1174 H1186 0.960 . S
C1174 H1187 0.962 . S
C1174 H1188 0.960 . S
C1175 C1172 1.532 . S
C1175 H1189 0.968 . S
C1175 H1190 0.934 1_565 S
C1175 H1191 0.960 . S
C1176 C1177 1.370 . S
C1176 C1178 1.363 . S
C1176 H1192 0.931 . S
C1177 C1176 1.370 . S
C1177 C1181 1.408 . S
C1178 C1176 1.363 . S
C1178 C1179 1.370 . S
C1178 C1182 1.524 . S
C1179 C1171 1.503 1_545 S
C1179 C1178 1.370 . S
C1179 C1180 1.403 . S
C1180 C1179 1.403 . S
C1180 C1181 1.404 . S
C1180 C1183 1.539 . S
C1181 C1177 1.408 . S
C1181 C1180 1.404 . S
C1181 H1193 0.930 . S
C1182 C1178 1.524 . S
C1182 H1194 0.956 . S
C1182 H1195 0.961 . S
C1182 H1196 0.961 . S
C1183 C1180 1.539 . S
C1183 H1197 0.958 1_545 S
C1183 H1198 0.961 . S
C1183 H1199 0.960 1_545 S
H1184 C1168 0.931 . S
H1185 C1173 0.929 . S
H1186 C1174 0.960 . S
H1187 C1174 0.962 . S
H1188 C1174 0.960 . S
H1189 C1175 0.968 . S
H1190 C1175 0.934 1_545 S
H1191 C1175 0.960 . S
H1192 C1176 0.931 . S
H1193 C1181 0.930 . S
H1194 C1182 0.956 . S
H1195 C1182 0.961 . S
H1196 C1182 0.961 . S
H1197 C1183 0.958 1_565 S
H1198 C1183 0.961 . S
H1199 C1183 0.960 1_565 S
C1200 C1201 1.391 . S
C1200 C1202 1.394 . S
C1200 H1216 0.931 . S
C1201 C1200 1.391 . S
C1201 C1205 1.376 . S
C1202 C1200 1.394 . S
C1202 C1203 1.369 . S
C1202 C1206 1.531 . S
C1203 C1202 1.369 . S
C1203 C1204 1.410 . S
C1203 C1211 1.503 1_455 S
C1204 C1203 1.410 . S
C1204 C1205 1.392 . S
C1204 C1207 1.511 . S
C1205 C1201 1.376 . S
C1205 C1204 1.392 . S
C1205 H1217 0.929 . S
C1206 C1202 1.531 . S
C1206 H1218 0.960 . S
C1206 H1219 0.962 . S
C1206 H1220 0.960 . S
C1207 C1204 1.511 . S
C1207 H1221 0.961 . S
C1207 H1222 0.961 1_455 S
C1207 H1223 0.961 . S
C1208 C1209 1.370 . S
C1208 C1210 1.363 . S
C1208 H1224 0.931 . S
C1209 C1208 1.370 . S
C1209 C1213 1.408 . S
C1210 C1208 1.363 . S
C1210 C1211 1.370 . S
C1210 C1214 1.524 . S
C1211 C1203 1.503 1_655 S
C1211 C1210 1.370 . S
C1211 C1212 1.403 . S
C1212 C1211 1.403 . S
C1212 C1213 1.404 . S
C1212 C1215 1.539 . S
C1213 C1209 1.408 . S
C1213 C1212 1.404 . S
C1213 H1225 0.930 . S
C1214 C1210 1.524 . S
C1214 H1226 0.956 . S
C1214 H1227 0.961 . S
C1214 H1228 0.961 . S
C1215 C1212 1.539 . S
C1215 H1229 0.958 1_655 S
C1215 H1230 0.961 . S
C1215 H1231 0.960 1_655 S
H1216 C1200 0.931 . S
H1217 C1205 0.929 . S
H1218 C1206 0.960 . S
H1219 C1206 0.962 . S
H1220 C1206 0.960 . S
H1221 C1207 0.961 . S
H1222 C1207 0.961 1_655 S
H1223 C1207 0.961 . S
H1224 C1208 0.931 . S
H1225 C1213 0.930 . S
H1226 C1214 0.956 . S
H1227 C1214 0.961 . S
H1228 C1214 0.961 . S
H1229 C1215 0.958 1_455 S
H1230 C1215 0.961 . S
H1231 C1215 0.960 1_455 S
C209 C65 1.260 . S
C217 C0 1.253 . S
C241 C78 1.243 . S
C249 C13 1.235 . S
C273 C26 1.255 . S
C281 C91 1.254 . S
C305 C39 1.261 . S
C313 C52 1.241 . S
C337 C169 1.232 . S
C345 C104 1.235 . S
C369 C182 1.243 . S
C377 C117 1.254 . S
C401 C130 1.232 . S
C409 C195 1.235 . S
C433 C143 1.232 . S
C441 C156 1.252 . S
C465 C138 1.437 . S
C473 C8 1.464 . S
C497 C151 1.470 . S
C505 C21 1.458 . S
C529 C112 1.441 . S
C537 C34 1.460 . S
C561 C47 1.489 . S
C569 C125 1.473 . S
C593 C190 1.443 . S
C601 C60 1.459 . S
C625 C203 1.482 . S
C633 C73 1.461 . S
C657 C86 1.451 . S
C665 C164 1.475 . S
C689 C177 1.442 . S
C697 C99 1.472 . S
C721 C62 1.340 . S
C729 C10 1.344 . S
C753 C23 1.321 . S
C761 C75 1.344 . S
C785 C36 1.313 . S
C793 C88 1.338 . S
C817 C101 1.318 . S
C825 C49 1.343 . S
C849 C109 1.405 . S
C857 C161 1.414 . S
C881 C174 1.402 . S
C889 C122 1.418 . S
C913 C135 1.407 . S
C921 C187 1.415 . S
C945 C200 1.448 . S
C953 C148 1.433 . S
C977 C153 1.318 . S
C985 C179 1.332 . S
C1009 C114 1.351 . S
C1017 C192 1.332 . S
C1041 C205 1.322 . S
C1049 C127 1.330 . S
C1073 C140 1.330 . S
C1081 C166 1.329 . S
C1105 C70 1.423 . S
C1113 C44 1.421 . S
C1137 C83 1.447 . S
C1145 C5 1.433 . S
C1169 C96 1.394 . S
C1177 C18 1.411 . S
C1201 C57 1.399 . S
C1209 C31 1.412 . S
