# Generated by pormake.
# Topology sml, (6)-cn, num edge types: 1
# Building blocks:
#     Node 0, Type 0, BuildingBlock: BETFAJ_clean_sbu_0, # of connection points: 6
#     Node 1, Type 0, BuildingBlock: BETFAJ_clean_sbu_0, # of connection points: 6
#     Node 2, Type 0, BuildingBlock: BETFAJ_clean_sbu_0, # of connection points: 6
#     Node 3, Type 0, BuildingBlock: BETFAJ_clean_sbu_0, # of connection points: 6
#     Node 4, Type 0, BuildingBlock: BETFAJ_clean_sbu_0, # of connection points: 6
#     Node 5, Type 0, BuildingBlock: BETFAJ_clean_sbu_0, # of connection points: 6
#     Edge 6, Type (0, 0), BuildingBlock: CIFDUS_clean_linker_0, # of connection points: 2
#     Edge 7, Type (0, 0), BuildingBlock: CIFDUS_clean_linker_0, # of connection points: 2
#     Edge 8, Type (0, 0), BuildingBlock: CIFDUS_clean_linker_0, # of connection points: 2
#     Edge 9, Type (0, 0), BuildingBlock: CIFDUS_clean_linker_0, # of connection points: 2
#     Edge 10, Type (0, 0), BuildingBlock: CIFDUS_clean_linker_0, # of connection points: 2
#     Edge 11, Type (0, 0), BuildingBlock: CIFDUS_clean_linker_0, # of connection points: 2
#     Edge 12, Type (0, 0), BuildingBlock: CIFDUS_clean_linker_0, # of connection points: 2
#     Edge 13, Type (0, 0), BuildingBlock: CIFDUS_clean_linker_0, # of connection points: 2
#     Edge 14, Type (0, 0), BuildingBlock: CIFDUS_clean_linker_0, # of connection points: 2
#     Edge 15, Type (0, 0), BuildingBlock: CIFDUS_clean_linker_0, # of connection points: 2
#     Edge 16, Type (0, 0), BuildingBlock: CIFDUS_clean_linker_0, # of connection points: 2
#     Edge 17, Type (0, 0), BuildingBlock: CIFDUS_clean_linker_0, # of connection points: 2
#     Edge 18, Type (0, 0), BuildingBlock: CIFDUS_clean_linker_0, # of connection points: 2
#     Edge 19, Type (0, 0), BuildingBlock: CIFDUS_clean_linker_0, # of connection points: 2
#     Edge 20, Type (0, 0), BuildingBlock: CIFDUS_clean_linker_0, # of connection points: 2
#     Edge 21, Type (0, 0), BuildingBlock: CIFDUS_clean_linker_0, # of connection points: 2
#     Edge 22, Type (0, 0), BuildingBlock: CIFDUS_clean_linker_0, # of connection points: 2
#     Edge 23, Type (0, 0), BuildingBlock: CIFDUS_clean_linker_0, # of connection points: 2
# Relax obj value: 0.214
# Max RMSD: 0.238
# Mean RMSD: 0.238
data_MOF--net-sml--node1-BETFAJ_clean_sbu_0--edge1-CIFDUS_clean_linker_0
_symmetry_space_group_name_H-M    P1
_symmetry_Int_Tables_number       1
_symmetry_cell_setting            triclinic
loop_
_symmetry_equiv_pos_as_xyz
'x, y, z'
_cell_length_a     27.423718
_cell_length_b     27.430521
_cell_length_c     23.267537
_cell_angle_alpha  90.470991
_cell_angle_beta   89.788285
_cell_angle_gamma 119.74788
loop_
_atom_site_label
_atom_site_type_symbol
_atom_site_fract_x
_atom_site_fract_y
_atom_site_fract_z
_atom_type_partial_charge
Sm0 Sm 0.17318 0.42799 0.13158 0.0
Sm1 Sm 0.22727 0.40158 0.23873 0.0
C2 C 0.15229 0.45576 0.02956 0.0
C3 C 0.16932 0.45675 0.96935 0.0
C4 C 0.19171 0.42318 0.95057 0.0
C5 C 0.20525 0.42263 0.89262 0.0
C6 C 0.19705 0.45606 0.85255 0.0
C7 C 0.17605 0.4908 0.87201 0.0
C8 C 0.16222 0.49102 0.92989 0.0
C9 C 0.09812 0.35925 0.21197 0.0
C10 C 0.21188 0.33125 0.12246 0.0
C11 C 0.25234 0.37763 0.34075 0.0
C12 C 0.24167 0.3822 0.40256 0.0
C13 C 0.1911 0.34297 0.42877 0.0
C14 C 0.18235 0.34691 0.4875 0.0
C15 C 0.2242 0.38978 0.52158 0.0
C16 C 0.27479 0.42891 0.4953 0.0
C17 C 0.28345 0.42507 0.43656 0.0
C18 C 0.30123 0.46861 0.15667 0.0
C19 C 0.18617 0.49686 0.24892 0.0
O20 O 0.19074 0.49198 0.06453 0.0
O21 O 0.12164 0.40611 0.05242 0.0
O22 O 0.14238 0.35926 0.19737 0.0
O23 O 0.08876 0.39197 0.17946 0.0
O24 O 0.20362 0.36896 0.09569 0.0
O25 O 0.21533 0.33011 0.179 0.0
O26 O 0.21036 0.34098 0.30923 0.0
O27 O 0.28442 0.42462 0.31371 0.0
O28 O 0.25827 0.47037 0.173 0.0
O29 O 0.31012 0.43506 0.18835 0.0
O30 O 0.19904 0.46202 0.27489 0.0
O31 O 0.17912 0.49646 0.19276 0.0
H32 H 0.19828 0.39714 0.98064 0.0
H33 H 0.22216 0.39608 0.87919 0.0
H34 H 0.16883 0.5167 0.84221 0.0
H35 H 0.14519 0.51737 0.9437 0.0
H36 H 0.15824 0.30901 0.40405 0.0
H37 H 0.14263 0.31642 0.50615 0.0
H38 H 0.3083 0.46188 0.52035 0.0
H39 H 0.32323 0.45541 0.41787 0.0
Sm40 Sm 0.79658 0.24171 0.53584 0.0
Sm41 Sm 0.74164 0.15878 0.4299 0.0
C42 C 0.81317 0.28733 0.63972 0.0
C43 C 0.79777 0.26825 0.69993 0.0
C44 C 0.74196 0.24425 0.71954 0.0
C45 C 0.72874 0.22807 0.77701 0.0
C46 C 0.77089 0.23521 0.81605 0.0
C47 C 0.82648 0.25865 0.79619 0.0
C48 C 0.83976 0.27521 0.73892 0.0
C49 C 0.87186 0.24414 0.45759 0.0
C50 C 0.75399 0.10544 0.54648 0.0
C51 C 0.71252 0.10737 0.32841 0.0
C52 C 0.72305 0.1207 0.26631 0.0
C53 C 0.77518 0.1354 0.24111 0.0
C54 C 0.78418 0.14732 0.18241 0.0
C55 C 0.74096 0.14383 0.14704 0.0
C56 C 0.6886 0.12848 0.17229 0.0
C57 C 0.67981 0.1171 0.23115 0.0
C58 C 0.67058 0.16387 0.50997 0.0
C59 C 0.7859 0.29483 0.41777 0.0
O60 O 0.77289 0.28177 0.60539 0.0
O61 O 0.84911 0.27586 0.6144 0.0
O62 O 0.82688 0.20056 0.47163 0.0
O63 O 0.88151 0.28705 0.48974 0.0
O64 O 0.76351 0.15266 0.57199 0.0
O65 O 0.7508 0.099 0.49013 0.0
O66 O 0.75379 0.11055 0.35951 0.0
O67 O 0.68296 0.12587 0.35564 0.0
O68 O 0.71439 0.20412 0.49019 0.0
O69 O 0.66037 0.11676 0.48598 0.0
O70 O 0.77568 0.24744 0.39221 0.0
O71 O 0.78921 0.30201 0.4741 0.0
H72 H 0.70846 0.23816 0.69068 0.0
H73 H 0.68543 0.20968 0.79082 0.0
H74 H 0.86003 0.26538 0.8253 0.0
H75 H 0.88313 0.29393 0.72519 0.0
H76 H 0.80914 0.1376 0.26662 0.0
H77 H 0.82529 0.15965 0.16488 0.0
H78 H 0.65394 0.12426 0.14643 0.0
H79 H 0.63888 0.10497 0.24913 0.0
Sm80 Sm 0.546 0.73899 0.79724 0.0
Sm81 Sm 0.57691 0.8204 0.90318 0.0
C82 C 0.51719 0.69258 0.69364 0.0
C83 C 0.52816 0.70936 0.63241 0.0
C84 C 0.50107 0.73495 0.60496 0.0
C85 C 0.50989 0.748 0.54643 0.0
C86 C 0.54596 0.73578 0.51392 0.0
C87 C 0.57359 0.71094 0.54174 0.0
C88 C 0.56456 0.69765 0.6001 0.0
C89 C 0.61806 0.73276 0.87359 0.0
C90 C 0.64325 0.87359 0.78658 0.0
C91 C 0.59965 0.87182 1.0047 0.0
C92 C 0.59353 0.85893 0.06694 0.0
C93 C 0.62661 0.84023 0.0948 0.0
C94 C 0.6206 0.82928 0.15386 0.0
C95 C 0.58205 0.83767 0.18649 0.0
C96 C 0.54934 0.85677 0.15862 0.0
C97 C 0.55504 0.86727 0.09959 0.0
C98 C 0.50342 0.82203 0.82516 0.0
C99 C 0.481 0.68571 0.91417 0.0
O100 O 0.48687 0.70858 0.72344 0.0
O101 O 0.55889 0.695 0.72321 0.0
O102 O 0.6187 0.77749 0.85968 0.0
O103 O 0.58193 0.69006 0.84336 0.0
O104 O 0.60511 0.82696 0.76098 0.0
O105 O 0.64653 0.87956 0.84299 0.0
O106 O 0.63631 0.86435 0.97528 0.0
O107 O 0.55335 0.85714 0.97607 0.0
O108 O 0.50313 0.77908 0.8436 0.0
O109 O 0.54251 0.86742 0.84927 0.0
O110 O 0.52073 0.73141 0.93987 0.0
O111 O 0.47592 0.68078 0.85774 0.0
H112 H 0.47241 0.74426 0.6284 0.0
H113 H 0.48732 0.76643 0.52638 0.0
H114 H 0.60234 0.70172 0.51841 0.0
H115 H 0.58586 0.67775 0.61988 0.0
H116 H 0.65752 0.83456 0.0712 0.0
H117 H 0.64697 0.81533 0.17421 0.0
H118 H 0.51892 0.86318 0.18239 0.0
H119 H 0.52937 0.88219 0.07945 0.0
Sm120 Sm 0.7452 0.55648 0.19899 0.0
Sm121 Sm 0.82585 0.5811 0.09257 0.0
C122 C 0.69829 0.53679 0.30206 0.0
C123 C 0.71467 0.53866 0.36283 0.0
C124 C 0.73887 0.50709 0.38235 0.0
C125 C 0.75285 0.50853 0.44031 0.0
C126 C 0.74347 0.54208 0.47978 0.0
C127 C 0.71981 0.5741 0.46008 0.0
C128 C 0.70532 0.57216 0.40223 0.0
C129 C 0.73533 0.61969 0.1148 0.0
C130 C 0.87988 0.65222 0.20743 0.0
C131 C 0.8753 0.60541 0.99058 0.0
C132 C 0.86096 0.60318 0.92896 0.0
C133 C 0.84546 0.64072 0.90582 0.0
C134 C 0.8328 0.63862 0.84743 0.0
C135 C 0.83632 0.59962 0.81046 0.0
C136 C 0.85246 0.56251 0.83359 0.0
C137 C 0.86461 0.56428 0.89215 0.0
C138 C 0.83354 0.51596 0.17685 0.0
C139 C 0.69254 0.48047 0.0861 0.0
O140 O 0.6977 0.49751 0.26914 0.0
O141 O 0.71803 0.58515 0.27611 0.0
O142 O 0.78077 0.62302 0.13057 0.0
O143 O 0.69385 0.5866 0.14761 0.0
O144 O 0.8342 0.61444 0.23423 0.0
O145 O 0.88456 0.65351 0.15097 0.0
O146 O 0.8707 0.64212 0.02317 0.0
O147 O 0.85888 0.55742 0.0163 0.0
O148 O 0.7891 0.51376 0.15948 0.0
O149 O 0.87637 0.55051 0.1461 0.0
O150 O 0.73808 0.51693 0.05811 0.0
O151 O 0.68648 0.48217 0.14224 0.0
H152 H 0.74699 0.48125 0.35297 0.0
H153 H 0.77154 0.48385 0.45413 0.0
H154 H 0.7116 0.5999 0.48962 0.0
H155 H 0.68653 0.59673 0.38827 0.0
H156 H 0.84309 0.67187 0.9327 0.0
H157 H 0.81986 0.66741 0.83139 0.0
H158 H 0.85667 0.53264 0.8063 0.0
H159 H 0.87739 0.53548 0.90859 0.0
Sm160 Sm 0.25327 0.827 0.45588 0.0
Sm161 Sm 0.17258 0.77707 0.56167 0.0
C162 C 0.3016 0.8419 0.35348 0.0
C163 C 0.28702 0.83235 0.29188 0.0
C164 C 0.23144 0.79784 0.27329 0.0
C165 C 0.21891 0.78964 0.21435 0.0
C166 C 0.26185 0.81546 0.17304 0.0
C167 C 0.31737 0.85004 0.1922 0.0
C168 C 0.32973 0.85841 0.25094 0.0
C169 C 0.25425 0.90575 0.52866 0.0
C170 C 0.11667 0.78322 0.44406 0.0
C171 C 0.12174 0.74978 0.66331 0.0
C172 C 0.13527 0.76095 0.725 0.0
C173 C 0.19093 0.79305 0.74426 0.0
C174 C 0.20277 0.80161 0.80328 0.0
C175 C 0.15912 0.7781 0.84415 0.0
C176 C 0.10344 0.746 0.82428 0.0
C177 C 0.09173 0.73761 0.7654 0.0
C178 C 0.17756 0.70196 0.48685 0.0
C179 C 0.30893 0.82612 0.57644 0.0
O180 O 0.28679 0.79736 0.38499 0.0
O181 O 0.29422 0.8802 0.37955 0.0
O182 O 0.21081 0.85989 0.51596 0.0
O183 O 0.29748 0.91382 0.49829 0.0
O184 O 0.16407 0.79311 0.41891 0.0
O185 O 0.11088 0.7819 0.5004 0.0
O186 O 0.12584 0.79129 0.63236 0.0
O187 O 0.14078 0.72039 0.63683 0.0
O188 O 0.21853 0.74675 0.50484 0.0
O189 O 0.13077 0.69361 0.5096 0.0
O190 O 0.26124 0.81686 0.60018 0.0
O191 O 0.31592 0.82634 0.5202 0.0
H192 H 0.19789 0.77708 0.30428 0.0
H193 H 0.17579 0.76237 0.20115 0.0
H194 H 0.35134 0.87121 0.16172 0.0
H195 H 0.37284 0.88535 0.26444 0.0
H196 H 0.22517 0.81155 0.71372 0.0
H197 H 0.24604 0.82713 0.81683 0.0
H198 H 0.06881 0.72645 0.85428 0.0
H199 H 0.04853 0.71232 0.7514 0.0
Sm200 Sm 0.41259 0.15608 0.88438 0.0
Sm201 Sm 0.39361 0.21708 0.77797 0.0
C202 C 0.44783 0.13507 0.98225 0.0
C203 C 0.43964 0.14484 0.04316 0.0
C204 C 0.41683 0.17919 0.05768 0.0
C205 C 0.40822 0.18797 0.11527 0.0
C206 C 0.42236 0.16269 0.15976 0.0
C207 C 0.44587 0.1288 0.14496 0.0
C208 C 0.45429 0.11989 0.08717 0.0
C209 C 0.32908 0.08807 0.80815 0.0
C210 C 0.31762 0.19433 0.89073 0.0
C211 C 0.37923 0.24643 0.67389 0.0
C212 C 0.38905 0.23515 0.61406 0.0
C213 C 0.41549 0.20362 0.60193 0.0
C214 C 0.42515 0.19376 0.54493 0.0
C215 C 0.40868 0.21537 0.49879 0.0
C216 C 0.38226 0.24707 0.51145 0.0
C217 C 0.37253 0.25675 0.56845 0.0
C218 C 0.4529 0.2852 0.86827 0.0
C219 C 0.48698 0.17271 0.76941 0.0
O220 O 0.47781 0.18023 0.95181 0.0
O221 O 0.40321 0.09743 0.95476 0.0
O222 O 0.37552 0.13011 0.79655 0.0
O223 O 0.32661 0.07691 0.86271 0.0
O224 O 0.35684 0.18973 0.91896 0.0
O225 O 0.31603 0.19453 0.83385 0.0
O226 O 0.3393 0.20409 0.70204 0.0
O227 O 0.42422 0.2766 0.7051 0.0
O228 O 0.45629 0.24392 0.84927 0.0
O229 O 0.41966 0.29479 0.83656 0.0
O230 O 0.46354 0.20035 0.747 0.0
O231 O 0.4736 0.14923 0.82083 0.0
H232 H 0.40564 0.19926 0.02442 0.0
H233 H 0.39084 0.21497 0.12494 0.0
H234 H 0.45673 0.10825 0.17799 0.0
H235 H 0.47195 0.09324 0.07686 0.0
H236 H 0.42839 0.18631 0.63649 0.0
H237 H 0.44485 0.16852 0.53708 0.0
H238 H 0.36985 0.26527 0.47733 0.0
H239 H 0.35238 0.2815 0.57693 0.0
H240 H 0.30026 0.18343 1.00538 0.0
H241 H 0.2538 0.23917 0.85263 0.0
H242 H 0.21085 0.28167 0.91202 0.0
H243 H 0.19772 0.31297 1.00705 0.0
H244 H 0.24928 0.26116 0.15917 0.0
H245 H 0.27881 0.20672 0.10001 0.0
C246 C 0.28001 0.20413 0.9849 0.0
C247 C 0.28099 0.2089 0.92469 0.0
C248 C 0.25696 0.22973 0.0192 0.0
C249 C 0.25374 0.23501 0.89888 0.0
C250 C 0.22959 0.25971 0.93284 0.0
C251 C 0.21505 0.28952 0.02737 0.0
C252 C 0.2223 0.29215 0.0874 0.0
C253 C 0.23281 0.25903 0.99303 0.0
C254 C 0.24363 0.26036 0.11306 0.0
C255 C 0.26065 0.22926 0.07925 0.0
H256 H 0.98653 0.29059 0.216 0.0
H257 H 0.13475 0.36873 0.32189 0.0
H258 H 0.07729 0.33598 0.40852 0.0
H259 H 0.98406 0.29279 0.45387 0.0
H260 H 0.83597 0.20988 0.34833 0.0
H261 H 0.89378 0.236 0.26159 0.0
C262 C 0.00603 0.29923 0.25814 0.0
C263 C 0.06453 0.33176 0.26298 0.0
C264 C 0.97269 0.2794 0.30759 0.0
C265 C 0.08983 0.34305 0.31734 0.0
C266 C 0.05695 0.32465 0.36686 0.0
C267 C 0.96472 0.2793 0.41183 0.0
C268 C 0.90608 0.2494 0.40705 0.0
C269 C -0.0017 0.2938 0.36246 0.0
C270 C 0.88105 0.23211 0.3528 0.0
C271 C 0.91408 0.24746 0.30326 0.0
H272 H 0.76745 0.10546 0.66189 0.0
H273 H 0.71151 -0.00401 0.51297 0.0
H274 H 0.67813 0.91427 0.5749 0.0
H275 H 0.65578 0.87393 0.67107 0.0
H276 H 0.7092 0.98313 0.82017 0.0
H277 H 0.75355 0.06516 0.75804 0.0
C278 C 0.74853 0.06379 0.64284 0.0
C279 C 0.74121 0.0568 0.58295 0.0
C280 C 0.72885 0.01699 0.67866 0.0
C281 C 0.71737 0.00258 0.55897 0.0
C282 C 0.69811 0.95578 0.59434 0.0
C283 C 0.67776 0.91562 0.69012 0.0
C284 C 0.67846 0.92243 0.75013 0.0
C285 C 0.70225 0.9625 0.65424 0.0
C286 C 0.70781 0.9767 0.77408 0.0
C287 C 0.73293 0.02365 0.73859 0.0
H288 H 0.68173 0.68346 0.87477 0.0
H289 H 0.61651 0.76538 0.98356 0.0
H290 H 0.65052 0.74031 0.06877 0.0
H291 H 0.69136 0.68756 0.1125 0.0
H292 H 0.76105 0.60943 1.00434 0.0
H293 H 0.73353 0.64085 0.91836 0.0
C294 C 0.67632 0.69688 0.91716 0.0
C295 C 0.64719 0.72658 0.92324 0.0
C296 C 0.69673 0.68289 0.96581 0.0
C297 C 0.63987 0.74363 0.97798 0.0
C298 C 0.65888 0.72885 0.0267 0.0
C299 C 0.70156 0.6787 0.06998 0.0
C300 C 0.72823 0.64669 0.06415 0.0
C301 C 0.68638 0.69758 0.02115 0.0
C302 C 0.74125 0.63484 1.00937 0.0
C303 C 0.72518 0.65244 0.96037 0.0
H304 H 0.11406 0.78964 0.32792 0.0
H305 H 0.00768 0.74096 0.47827 0.0
H306 H 0.92452 0.70133 0.41719 0.0
H307 H 0.88227 0.67133 0.32198 0.0
H308 H 0.9885 0.71734 0.17165 0.0
H309 H 0.07165 0.76773 0.23213 0.0
C310 C 0.07275 0.77088 0.34741 0.0
C311 C 0.0671 0.76741 0.40755 0.0
C312 C 0.02512 0.74741 0.31212 0.0
C313 C 0.01327 0.74388 0.43208 0.0
C314 C 0.96563 0.72099 0.3972 0.0
C315 C 0.92355 0.69291 0.3023 0.0
C316 C 0.92925 0.68988 0.24252 0.0
C317 C 0.97111 0.72107 0.33728 0.0
C318 C 0.98295 0.7188 0.21762 0.0
C319 C 0.03055 0.74743 0.25218 0.0
H320 H 0.33564 0.10864 0.69569 0.0
H321 H 0.24853 0.97662 0.8189 0.0
H322 H 0.20927 0.90749 0.7403 0.0
H323 H 0.2137 0.88423 0.63772 0.0
H324 H 0.30589 0.01768 0.51752 0.0
H325 H 0.32896 0.08723 0.5938 0.0
C326 C 0.30674 0.06501 0.70541 0.0
C327 C 0.29517 0.04764 0.76283 0.0
C328 C 0.28602 0.02586 0.6605 0.0
C329 C 0.25807 0.99089 0.77489 0.0
C330 C 0.23608 0.95139 0.73001 0.0
C331 C 0.23682 0.92852 0.6281 0.0
C332 C 0.25754 0.9461 0.57231 0.0
C333 C 0.25159 0.96822 0.67277 0.0
C334 C 0.2895 0.00352 0.56034 0.0
C335 C 0.30291 0.04319 0.60391 0.0
H336 H 0.16978 0.36298 0.78779 0.0
H337 H 0.24968 0.54344 0.77757 0.0
H338 H 0.26483 0.53893 0.67452 0.0
H339 H 0.25381 0.48354 0.58695 0.0
H340 H 0.17545 0.30313 0.59784 0.0
H341 H 0.16099 0.30786 0.70082 0.0
C342 C 0.19114 0.40138 0.76315 0.0
C343 C 0.20855 0.45345 0.7904 0.0
C344 C 0.19958 0.39847 0.7039 0.0
C345 C 0.23532 0.50275 0.75759 0.0
C346 C 0.24416 0.50023 0.69868 0.0
C347 C 0.23406 0.44527 0.61192 0.0
C348 C 0.21561 0.39304 0.58446 0.0
C349 C 0.2262 0.44828 0.67132 0.0
C350 C 0.1893 0.34385 0.61751 0.0
C351 C 0.18137 0.34651 0.67655 0.0
H352 H 0.70091 0.19697 0.07842 0.0
H353 H 0.80193 0.11635 0.07327 0.0
H354 H 0.81985 0.13732 0.97129 0.0
H355 H 0.80741 0.17883 0.88321 0.0
H356 H 0.7042 0.25685 0.88725 0.0
H357 H 0.68529 0.23511 0.98938 0.0
C358 C 0.72627 0.18329 0.05497 0.0
C359 C 0.75037 0.15547 0.0841 0.0
C360 C 0.73581 0.19474 0.99585 0.0
C361 C 0.78375 0.13887 0.05268 0.0
C362 C 0.79371 0.15044 0.99407 0.0
C363 C 0.78092 0.19123 0.90651 0.0
C364 C 0.75746 0.21962 0.87761 0.0
C365 C 0.77024 0.17862 0.96527 0.0
C366 C 0.72244 0.23455 0.90826 0.0
C367 C 0.71187 0.22242 0.96679 0.0
H368 H 0.55479 0.82676 0.45707 0.0
H369 H 0.55426 0.67072 0.42881 0.0
H370 H 0.56712 0.68924 0.326 0.0
H371 H 0.57642 0.74857 0.24338 0.0
H372 H 0.57449 0.90329 0.2711 0.0
H373 H 0.5634 0.88576 0.3744 0.0
C374 C 0.55695 0.7965 0.42844 0.0
C375 C 0.55375 0.7475 0.45103 0.0
C376 C 0.56359 0.80699 0.36903 0.0
C377 C 0.55754 0.70927 0.41306 0.0
C378 C 0.56449 0.7196 0.35405 0.0
C379 C 0.57405 0.77867 0.27211 0.0
C380 C 0.57622 0.82712 0.24947 0.0
C381 C 0.56753 0.76827 0.33152 0.0
C382 C 0.57228 0.86533 0.28726 0.0
C383 C 0.56621 0.85547 0.3464 0.0
H384 H 0.78134 0.50755 0.74058 0.0
H385 H 0.8634 0.68865 0.73948 0.0
H386 H 0.84126 0.68668 0.63783 0.0
H387 H 0.79906 0.63375 0.54885 0.0
H388 H 0.72001 0.45307 0.54881 0.0
H389 H 0.74183 0.45478 0.65088 0.0
C390 C 0.79503 0.54667 0.71804 0.0
C391 C 0.82373 0.59814 0.74802 0.0
C392 C 0.78294 0.54535 0.65922 0.0
C393 C 0.84032 0.64832 0.71801 0.0
C394 C 0.82805 0.64731 0.65967 0.0
C395 C 0.7864 0.59477 0.57133 0.0
C396 C 0.75782 0.54337 0.54143 0.0
C397 C 0.79923 0.59609 0.62989 0.0
C398 C 0.74244 0.49321 0.57081 0.0
C399 C 0.75466 0.49415 0.6292 0.0
H400 H 0.24543 0.77804 0.90295 0.0
H401 H 0.0998 0.79728 0.92773 0.0
H402 H 0.11731 0.80844 0.03102 0.0
H403 H 0.17473 0.8142 0.11475 0.0
H404 H 0.32109 0.79637 0.08971 0.0
H405 H 0.30307 0.7843 0.98645 0.0
C406 C 0.21782 0.78529 0.93078 0.0
C407 C 0.17121 0.7866 0.9072 0.0
C408 C 0.22834 0.79212 0.99036 0.0
C409 C 0.13552 0.7952 0.94443 0.0
C410 C 0.14566 0.80191 1.00365 0.0
C411 C 0.20241 0.80718 0.08678 0.0
C412 C 0.24932 0.8064 0.11018 0.0
C413 C 0.19187 0.80035 0.02718 0.0
C414 C 0.28509 0.79793 0.07298 0.0
C415 C 0.27469 0.79077 0.01384 0.0
H416 H 0.34062 0.19431 0.40526 0.0
H417 H 0.50102 0.21393 0.45463 0.0
H418 H 0.51878 0.19811 0.35524 0.0
H419 H 0.48983 0.18078 0.25341 0.0
H420 H 0.33015 0.16304 0.20436 0.0
H421 H 0.31197 0.17752 0.30395 0.0
C422 C 0.37977 0.19573 0.39436 0.0
C423 C 0.4193 0.20534 0.43784 0.0
C424 C 0.39012 0.18728 0.33684 0.0
C425 C 0.46931 0.20586 0.42257 0.0
C426 C 0.47975 0.1972 0.36551 0.0
C427 C 0.45084 0.1796 0.26455 0.0
C428 C 0.41155 0.17095 0.22111 0.0
C429 C 0.4405 0.18793 0.32221 0.0
C430 C 0.36157 0.17035 0.23651 0.0
C431 C 0.35093 0.17832 0.29363 0.0
H432 H 0.23743 0.54099 0.34974 0.0
H433 H 0.11899 0.54285 0.22962 0.0
H434 H 0.1034 0.6049 0.29432 0.0
H435 H 0.12288 0.65753 0.38658 0.0
H436 H 0.2477 0.66118 0.50124 0.0
H437 H 0.26103 0.59732 0.4376 0.0
C438 C 0.20819 0.55498 0.33769 0.0
C439 C 0.17903 0.53713 0.28536 0.0
C440 C 0.20029 0.59112 0.37442 0.0
C441 C 0.14199 0.55625 0.26975 0.0
C442 C 0.13287 0.59141 0.30682 0.0
C443 C 0.15255 0.64375 0.39746 0.0
C444 C 0.1836 0.66267 0.44861 0.0
C445 C 0.16149 0.60876 0.35953 0.0
C446 C 0.22315 0.64633 0.46211 0.0
C447 C 0.23083 0.61008 0.42578 0.0
H448 H 0.61535 0.0942 0.59982 0.0
H449 H 0.65543 0.25229 0.52272 0.0
H450 H 0.60617 0.27095 0.59942 0.0
H451 H 0.55031 0.24201 0.68614 0.0
H452 H 0.51001 0.0857 0.76733 0.0
H453 H 0.56251 0.06737 0.69249 0.0
C454 C 0.61257 0.13229 0.59989 0.0
C455 C 0.6378 0.17143 0.55548 0.0
C456 C 0.58527 0.14351 0.6452 0.0
C457 C 0.63565 0.22145 0.55637 0.0
C458 C 0.60783 0.23229 0.60026 0.0
C459 C 0.55332 0.20405 0.68784 0.0
C460 C 0.52603 0.16503 0.73174 0.0
C461 C 0.58248 0.19364 0.64467 0.0
C462 C 0.531 0.11651 0.73396 0.0
C463 C 0.56043 0.10577 0.69086 0.0
H464 H 0.28173 0.48867 0.04849 0.0
H465 H 0.4126 0.53544 0.17422 0.0
H466 H 0.48076 0.60665 0.10919 0.0
H467 H 0.50156 0.65817 0.0186 0.0
H468 H 0.37181 0.60883 0.89046 0.0
H469 H 0.30422 0.53591 0.95436 0.0
C470 C 0.32504 0.51499 0.0615 0.0
C471 C 0.34229 0.50834 0.11607 0.0
C472 C 0.36385 0.55504 0.02361 0.0
C473 C 0.39878 0.54056 0.13226 0.0
C474 C 0.43754 0.58119 0.09527 0.0
C475 C 0.45848 0.63134 1.00471 0.0
C476 C 0.44129 0.6391 0.95044 0.0
C477 C 0.42032 0.58925 0.0412 0.0
C478 C 0.3858 0.60349 0.93223 0.0
C479 C 0.34718 0.562 0.96875 0.0
H480 H 0.87695 0.37691 0.36453 0.0
H481 H 0.69878 0.30755 0.38742 0.0
H482 H 0.6977 0.37054 0.31412 0.0
H483 H 0.74649 0.44066 0.23977 0.0
H484 H 0.92539 0.51367 0.21834 0.0
H485 H 0.92755 0.45364 0.29458 0.0
C486 C 0.83837 0.37681 0.35406 0.0
C487 C 0.78811 0.33873 0.38114 0.0
C488 C 0.8382 0.41302 0.31187 0.0
C489 C 0.73789 0.33746 0.36716 0.0
C490 C 0.73724 0.37298 0.3251 0.0
C491 C 0.78605 0.44407 0.25241 0.0
C492 C 0.83565 0.48143 0.22378 0.0
C493 C 0.78698 0.41028 0.29662 0.0
C494 C 0.88661 0.48497 0.23987 0.0
C495 C 0.88787 0.45081 0.28346 0.0
H496 H 0.29455 0.77565 0.67759 0.0
H497 H 0.42319 0.89037 0.56237 0.0
H498 H 0.49597 0.90218 0.63152 0.0
H499 H 0.52204 0.87925 0.72571 0.0
H500 H 0.39178 0.75737 0.83464 0.0
H501 H 0.31992 0.74941 0.76732 0.0
C502 C 0.33854 0.80353 0.66772 0.0
C503 C 0.35377 0.83274 0.6156 0.0
C504 C 0.3795 0.80896 0.70671 0.0
C505 C 0.41077 0.8676 0.60249 0.0
C506 C 0.45218 0.87446 0.64202 0.0
C507 C 0.47781 0.85147 0.7345 0.0
C508 C 0.46151 0.81962 0.78501 0.0
C509 C 0.43695 0.84547 0.69443 0.0
C510 C 0.40462 0.78249 0.79597 0.0
C511 C 0.36376 0.77786 0.75758 0.0
H512 H 0.5934 0.47044 0.05445 0.0
H513 H 0.69477 0.39107 0.04142 0.0
H514 H 0.6265 0.32017 0.97553 0.0
H515 H 0.54259 0.28608 0.91591 0.0
H516 H 0.4427 0.36748 0.92413 0.0
H517 H 0.50578 0.4328 0.9975 0.0
C518 C 0.59962 0.43688 0.03775 0.0
C519 C 0.64814 0.43499 0.0526 0.0
C520 C 0.56101 0.39739 0.99872 0.0
C521 C 0.65712 0.39248 0.03041 0.0
C522 C 0.61836 0.3523 0.99273 0.0
C523 C 0.53409 0.31748 0.93451 0.0
C524 C 0.48826 0.32214 0.91495 0.0
C525 C 0.57079 0.35505 0.97575 0.0
C526 C 0.47808 0.3635 0.93854 0.0
C527 C 0.51402 0.4007 0.98044 0.0
loop_
_geom_bond_atom_site_label_1
_geom_bond_atom_site_label_2
_geom_bond_distance
_geom_bond_site_symmetry_2
_ccdc_geom_bond_type
Sm0 C2 2.846 . S
Sm0 O20 2.543 . S
Sm0 O21 2.450 . S
Sm0 O22 2.681 . S
Sm0 O23 2.464 . S
Sm0 O24 2.396 . S
Sm0 O28 2.386 . S
Sm0 O31 2.408 . S
Sm1 C11 2.846 . S
Sm1 O22 2.386 . S
Sm1 O25 2.408 . S
Sm1 O26 2.543 . S
Sm1 O27 2.450 . S
Sm1 O28 2.681 . S
Sm1 O29 2.464 . S
Sm1 O30 2.396 . S
C2 Sm0 2.846 . S
C2 C3 1.506 1_554 S
C2 O20 1.261 . S
C2 O21 1.242 . S
C3 C2 1.506 1_556 S
C3 C4 1.358 . S
C3 C8 1.382 . S
C4 C3 1.358 . S
C4 C5 1.385 . S
C4 H32 0.930 . S
C5 C4 1.385 . S
C5 C6 1.395 . S
C5 H33 0.929 . S
C6 C5 1.395 . S
C6 C7 1.335 . S
C7 C6 1.335 . S
C7 C8 1.398 . S
C7 H34 0.930 . S
C8 C3 1.382 . S
C8 C7 1.398 . S
C8 H35 0.929 . S
C9 O22 1.271 . S
C9 O23 1.251 . S
C10 O24 1.252 . S
C10 O25 1.272 . S
C11 Sm1 2.846 . S
C11 C12 1.506 . S
C11 O26 1.261 . S
C11 O27 1.242 . S
C12 C11 1.506 . S
C12 C13 1.358 . S
C12 C17 1.382 . S
C13 C12 1.358 . S
C13 C14 1.385 . S
C13 H36 0.930 . S
C14 C13 1.385 . S
C14 C15 1.395 . S
C14 H37 0.929 . S
C15 C14 1.395 . S
C15 C16 1.335 . S
C16 C15 1.335 . S
C16 C17 1.398 . S
C16 H38 0.930 . S
C17 C12 1.382 . S
C17 C16 1.398 . S
C17 H39 0.929 . S
C18 O28 1.271 . S
C18 O29 1.251 . S
C19 O30 1.252 . S
C19 O31 1.272 . S
O20 Sm0 2.543 . S
O20 C2 1.261 . S
O21 Sm0 2.450 . S
O21 C2 1.242 . S
O22 Sm0 2.681 . S
O22 Sm1 2.386 . S
O22 C9 1.271 . S
O23 Sm0 2.464 . S
O23 C9 1.251 . S
O24 Sm0 2.396 . S
O24 C10 1.252 . S
O25 Sm1 2.408 . S
O25 C10 1.272 . S
O26 Sm1 2.543 . S
O26 C11 1.261 . S
O27 Sm1 2.450 . S
O27 C11 1.242 . S
O28 Sm0 2.386 . S
O28 Sm1 2.681 . S
O28 C18 1.271 . S
O29 Sm1 2.464 . S
O29 C18 1.251 . S
O30 Sm1 2.396 . S
O30 C19 1.252 . S
O31 Sm0 2.408 . S
O31 C19 1.272 . S
H32 C4 0.930 . S
H33 C5 0.929 . S
H34 C7 0.930 . S
H35 C8 0.929 . S
H36 C13 0.930 . S
H37 C14 0.929 . S
H38 C16 0.930 . S
H39 C17 0.929 . S
Sm40 C42 2.846 . S
Sm40 O60 2.543 . S
Sm40 O61 2.450 . S
Sm40 O62 2.681 . S
Sm40 O63 2.464 . S
Sm40 O64 2.396 . S
Sm40 O68 2.386 . S
Sm40 O71 2.408 . S
Sm41 C51 2.846 . S
Sm41 O62 2.386 . S
Sm41 O65 2.408 . S
Sm41 O66 2.543 . S
Sm41 O67 2.450 . S
Sm41 O68 2.681 . S
Sm41 O69 2.464 . S
Sm41 O70 2.396 . S
C42 Sm40 2.846 . S
C42 C43 1.506 . S
C42 O60 1.261 . S
C42 O61 1.242 . S
C43 C42 1.506 . S
C43 C44 1.358 . S
C43 C48 1.382 . S
C44 C43 1.358 . S
C44 C45 1.385 . S
C44 H72 0.930 . S
C45 C44 1.385 . S
C45 C46 1.395 . S
C45 H73 0.929 . S
C46 C45 1.395 . S
C46 C47 1.335 . S
C47 C46 1.335 . S
C47 C48 1.398 . S
C47 H74 0.930 . S
C48 C43 1.382 . S
C48 C47 1.398 . S
C48 H75 0.929 . S
C49 O62 1.271 . S
C49 O63 1.251 . S
C50 O64 1.252 . S
C50 O65 1.272 . S
C51 Sm41 2.846 . S
C51 C52 1.506 . S
C51 O66 1.261 . S
C51 O67 1.242 . S
C52 C51 1.506 . S
C52 C53 1.358 . S
C52 C57 1.382 . S
C53 C52 1.358 . S
C53 C54 1.385 . S
C53 H76 0.930 . S
C54 C53 1.385 . S
C54 C55 1.395 . S
C54 H77 0.929 . S
C55 C54 1.395 . S
C55 C56 1.335 . S
C56 C55 1.335 . S
C56 C57 1.398 . S
C56 H78 0.930 . S
C57 C52 1.382 . S
C57 C56 1.398 . S
C57 H79 0.929 . S
C58 O68 1.271 . S
C58 O69 1.251 . S
C59 O70 1.252 . S
C59 O71 1.272 . S
O60 Sm40 2.543 . S
O60 C42 1.261 . S
O61 Sm40 2.450 . S
O61 C42 1.242 . S
O62 Sm40 2.681 . S
O62 Sm41 2.386 . S
O62 C49 1.271 . S
O63 Sm40 2.464 . S
O63 C49 1.251 . S
O64 Sm40 2.396 . S
O64 C50 1.252 . S
O65 Sm41 2.408 . S
O65 C50 1.272 . S
O66 Sm41 2.543 . S
O66 C51 1.261 . S
O67 Sm41 2.450 . S
O67 C51 1.242 . S
O68 Sm40 2.386 . S
O68 Sm41 2.681 . S
O68 C58 1.271 . S
O69 Sm41 2.464 . S
O69 C58 1.251 . S
O70 Sm41 2.396 . S
O70 C59 1.252 . S
O71 Sm40 2.408 . S
O71 C59 1.272 . S
H72 C44 0.930 . S
H73 C45 0.929 . S
H74 C47 0.930 . S
H75 C48 0.929 . S
H76 C53 0.930 . S
H77 C54 0.929 . S
H78 C56 0.930 . S
H79 C57 0.929 . S
Sm80 C82 2.846 . S
Sm80 O100 2.543 . S
Sm80 O101 2.450 . S
Sm80 O102 2.681 . S
Sm80 O103 2.464 . S
Sm80 O104 2.396 . S
Sm80 O108 2.386 . S
Sm80 O111 2.408 . S
Sm81 C91 2.846 1_556 S
Sm81 O102 2.386 . S
Sm81 O105 2.408 . S
Sm81 O106 2.543 1_556 S
Sm81 O107 2.450 1_556 S
Sm81 O108 2.681 . S
Sm81 O109 2.464 . S
Sm81 O110 2.396 . S
C82 Sm80 2.846 . S
C82 C83 1.506 . S
C82 O100 1.261 . S
C82 O101 1.242 . S
C83 C82 1.506 . S
C83 C84 1.358 . S
C83 C88 1.382 . S
C84 C83 1.358 . S
C84 C85 1.385 . S
C84 H112 0.930 . S
C85 C84 1.385 . S
C85 C86 1.395 . S
C85 H113 0.929 . S
C86 C85 1.395 . S
C86 C87 1.335 . S
C87 C86 1.335 . S
C87 C88 1.398 . S
C87 H114 0.930 . S
C88 C83 1.382 . S
C88 C87 1.398 . S
C88 H115 0.929 . S
C89 O102 1.271 . S
C89 O103 1.251 . S
C90 O104 1.252 . S
C90 O105 1.272 . S
C91 Sm81 2.846 1_554 S
C91 C92 1.506 . S
C91 O106 1.261 . S
C91 O107 1.242 . S
C92 C91 1.506 . S
C92 C93 1.358 . S
C92 C97 1.382 . S
C93 C92 1.358 . S
C93 C94 1.385 . S
C93 H116 0.930 . S
C94 C93 1.385 . S
C94 C95 1.395 . S
C94 H117 0.929 . S
C95 C94 1.395 . S
C95 C96 1.335 . S
C96 C95 1.335 . S
C96 C97 1.398 . S
C96 H118 0.930 . S
C97 C92 1.382 . S
C97 C96 1.398 . S
C97 H119 0.929 . S
C98 O108 1.271 . S
C98 O109 1.251 . S
C99 O110 1.252 . S
C99 O111 1.272 . S
O100 Sm80 2.543 . S
O100 C82 1.261 . S
O101 Sm80 2.450 . S
O101 C82 1.242 . S
O102 Sm80 2.681 . S
O102 Sm81 2.386 . S
O102 C89 1.271 . S
O103 Sm80 2.464 . S
O103 C89 1.251 . S
O104 Sm80 2.396 . S
O104 C90 1.252 . S
O105 Sm81 2.408 . S
O105 C90 1.272 . S
O106 Sm81 2.543 1_554 S
O106 C91 1.261 . S
O107 Sm81 2.450 1_554 S
O107 C91 1.242 . S
O108 Sm80 2.386 . S
O108 Sm81 2.681 . S
O108 C98 1.271 . S
O109 Sm81 2.464 . S
O109 C98 1.251 . S
O110 Sm81 2.396 . S
O110 C99 1.252 . S
O111 Sm80 2.408 . S
O111 C99 1.272 . S
H112 C84 0.930 . S
H113 C85 0.929 . S
H114 C87 0.930 . S
H115 C88 0.929 . S
H116 C93 0.930 . S
H117 C94 0.929 . S
H118 C96 0.930 . S
H119 C97 0.929 . S
Sm120 C122 2.846 . S
Sm120 O140 2.543 . S
Sm120 O141 2.450 . S
Sm120 O142 2.681 . S
Sm120 O143 2.464 . S
Sm120 O144 2.396 . S
Sm120 O148 2.386 . S
Sm120 O151 2.408 . S
Sm121 C131 2.846 1_554 S
Sm121 O142 2.386 . S
Sm121 O145 2.408 . S
Sm121 O146 2.543 1_554 S
Sm121 O147 2.450 1_554 S
Sm121 O148 2.681 . S
Sm121 O149 2.464 . S
Sm121 O150 2.396 1_554 S
C122 Sm120 2.846 . S
C122 C123 1.506 . S
C122 O140 1.261 . S
C122 O141 1.242 . S
C123 C122 1.506 . S
C123 C124 1.358 . S
C123 C128 1.382 . S
C124 C123 1.358 . S
C124 C125 1.385 . S
C124 H152 0.930 . S
C125 C124 1.385 . S
C125 C126 1.395 . S
C125 H153 0.929 . S
C126 C125 1.395 . S
C126 C127 1.335 . S
C127 C126 1.335 . S
C127 C128 1.398 . S
C127 H154 0.930 . S
C128 C123 1.382 . S
C128 C127 1.398 . S
C128 H155 0.929 . S
C129 O142 1.271 . S
C129 O143 1.251 . S
C130 O144 1.252 . S
C130 O145 1.272 . S
C131 Sm121 2.846 1_556 S
C131 C132 1.506 . S
C131 O146 1.261 . S
C131 O147 1.242 . S
C132 C131 1.506 . S
C132 C133 1.358 . S
C132 C137 1.382 . S
C133 C132 1.358 . S
C133 C134 1.385 . S
C133 H156 0.930 . S
C134 C133 1.385 . S
C134 C135 1.395 . S
C134 H157 0.929 . S
C135 C134 1.395 . S
C135 C136 1.335 . S
C136 C135 1.335 . S
C136 C137 1.398 . S
C136 H158 0.930 . S
C137 C132 1.382 . S
C137 C136 1.398 . S
C137 H159 0.929 . S
C138 O148 1.271 . S
C138 O149 1.251 . S
C139 O150 1.252 1_554 S
C139 O151 1.272 . S
O140 Sm120 2.543 . S
O140 C122 1.261 . S
O141 Sm120 2.450 . S
O141 C122 1.242 . S
O142 Sm120 2.681 . S
O142 Sm121 2.386 . S
O142 C129 1.271 . S
O143 Sm120 2.464 . S
O143 C129 1.251 . S
O144 Sm120 2.396 . S
O144 C130 1.252 . S
O145 Sm121 2.408 . S
O145 C130 1.272 . S
O146 Sm121 2.543 1_556 S
O146 C131 1.261 . S
O147 Sm121 2.450 1_556 S
O147 C131 1.242 . S
O148 Sm120 2.386 . S
O148 Sm121 2.681 . S
O148 C138 1.271 . S
O149 Sm121 2.464 . S
O149 C138 1.251 . S
O150 Sm121 2.396 1_556 S
O150 C139 1.252 1_556 S
O151 Sm120 2.408 . S
O151 C139 1.272 . S
H152 C124 0.930 . S
H153 C125 0.929 . S
H154 C127 0.930 . S
H155 C128 0.929 . S
H156 C133 0.930 . S
H157 C134 0.929 . S
H158 C136 0.930 . S
H159 C137 0.929 . S
Sm160 C162 2.846 . S
Sm160 O180 2.543 . S
Sm160 O181 2.450 . S
Sm160 O182 2.681 . S
Sm160 O183 2.464 . S
Sm160 O184 2.396 . S
Sm160 O188 2.386 . S
Sm160 O191 2.408 . S
Sm161 C171 2.846 . S
Sm161 O182 2.386 . S
Sm161 O185 2.408 . S
Sm161 O186 2.543 . S
Sm161 O187 2.450 . S
Sm161 O188 2.681 . S
Sm161 O189 2.464 . S
Sm161 O190 2.396 . S
C162 Sm160 2.846 . S
C162 C163 1.506 . S
C162 O180 1.261 . S
C162 O181 1.242 . S
C163 C162 1.506 . S
C163 C164 1.358 . S
C163 C168 1.382 . S
C164 C163 1.358 . S
C164 C165 1.385 . S
C164 H192 0.930 . S
C165 C164 1.385 . S
C165 C166 1.395 . S
C165 H193 0.929 . S
C166 C165 1.395 . S
C166 C167 1.335 . S
C167 C166 1.335 . S
C167 C168 1.398 . S
C167 H194 0.930 . S
C168 C163 1.382 . S
C168 C167 1.398 . S
C168 H195 0.929 . S
C169 O182 1.271 . S
C169 O183 1.251 . S
C170 O184 1.252 . S
C170 O185 1.272 . S
C171 Sm161 2.846 . S
C171 C172 1.506 . S
C171 O186 1.261 . S
C171 O187 1.242 . S
C172 C171 1.506 . S
C172 C173 1.358 . S
C172 C177 1.382 . S
C173 C172 1.358 . S
C173 C174 1.385 . S
C173 H196 0.930 . S
C174 C173 1.385 . S
C174 C175 1.395 . S
C174 H197 0.929 . S
C175 C174 1.395 . S
C175 C176 1.335 . S
C176 C175 1.335 . S
C176 C177 1.398 . S
C176 H198 0.930 . S
C177 C172 1.382 . S
C177 C176 1.398 . S
C177 H199 0.929 . S
C178 O188 1.271 . S
C178 O189 1.251 . S
C179 O190 1.252 . S
C179 O191 1.272 . S
O180 Sm160 2.543 . S
O180 C162 1.261 . S
O181 Sm160 2.450 . S
O181 C162 1.242 . S
O182 Sm160 2.681 . S
O182 Sm161 2.386 . S
O182 C169 1.271 . S
O183 Sm160 2.464 . S
O183 C169 1.251 . S
O184 Sm160 2.396 . S
O184 C170 1.252 . S
O185 Sm161 2.408 . S
O185 C170 1.272 . S
O186 Sm161 2.543 . S
O186 C171 1.261 . S
O187 Sm161 2.450 . S
O187 C171 1.242 . S
O188 Sm160 2.386 . S
O188 Sm161 2.681 . S
O188 C178 1.271 . S
O189 Sm161 2.464 . S
O189 C178 1.251 . S
O190 Sm161 2.396 . S
O190 C179 1.252 . S
O191 Sm160 2.408 . S
O191 C179 1.272 . S
H192 C164 0.930 . S
H193 C165 0.929 . S
H194 C167 0.930 . S
H195 C168 0.929 . S
H196 C173 0.930 . S
H197 C174 0.929 . S
H198 C176 0.930 . S
H199 C177 0.929 . S
Sm200 C202 2.846 . S
Sm200 O220 2.543 . S
Sm200 O221 2.450 . S
Sm200 O222 2.681 . S
Sm200 O223 2.464 . S
Sm200 O224 2.396 . S
Sm200 O228 2.386 . S
Sm200 O231 2.408 . S
Sm201 C211 2.846 . S
Sm201 O222 2.386 . S
Sm201 O225 2.408 . S
Sm201 O226 2.543 . S
Sm201 O227 2.450 . S
Sm201 O228 2.681 . S
Sm201 O229 2.464 . S
Sm201 O230 2.396 . S
C202 Sm200 2.846 . S
C202 C203 1.506 . S
C202 O220 1.261 . S
C202 O221 1.242 . S
C203 C202 1.506 . S
C203 C204 1.358 1_556 S
C203 C208 1.382 1_556 S
C204 C203 1.358 1_554 S
C204 C205 1.385 . S
C204 H232 0.930 . S
C205 C204 1.385 . S
C205 C206 1.395 . S
C205 H233 0.929 . S
C206 C205 1.395 . S
C206 C207 1.335 . S
C207 C206 1.335 . S
C207 C208 1.398 . S
C207 H234 0.930 . S
C208 C203 1.382 1_554 S
C208 C207 1.398 . S
C208 H235 0.929 1_554 S
C209 O222 1.271 . S
C209 O223 1.251 . S
C210 O224 1.252 . S
C210 O225 1.272 . S
C211 Sm201 2.846 . S
C211 C212 1.506 . S
C211 O226 1.261 . S
C211 O227 1.242 . S
C212 C211 1.506 . S
C212 C213 1.358 . S
C212 C217 1.382 . S
C213 C212 1.358 . S
C213 C214 1.385 . S
C213 H236 0.930 . S
C214 C213 1.385 . S
C214 C215 1.395 . S
C214 H237 0.929 . S
C215 C214 1.395 . S
C215 C216 1.335 . S
C216 C215 1.335 . S
C216 C217 1.398 . S
C216 H238 0.930 . S
C217 C212 1.382 . S
C217 C216 1.398 . S
C217 H239 0.929 . S
C218 O228 1.271 . S
C218 O229 1.251 . S
C219 O230 1.252 . S
C219 O231 1.272 . S
O220 Sm200 2.543 . S
O220 C202 1.261 . S
O221 Sm200 2.450 . S
O221 C202 1.242 . S
O222 Sm200 2.681 . S
O222 Sm201 2.386 . S
O222 C209 1.271 . S
O223 Sm200 2.464 . S
O223 C209 1.251 . S
O224 Sm200 2.396 . S
O224 C210 1.252 . S
O225 Sm201 2.408 . S
O225 C210 1.272 . S
O226 Sm201 2.543 . S
O226 C211 1.261 . S
O227 Sm201 2.450 . S
O227 C211 1.242 . S
O228 Sm200 2.386 . S
O228 Sm201 2.681 . S
O228 C218 1.271 . S
O229 Sm201 2.464 . S
O229 C218 1.251 . S
O230 Sm201 2.396 . S
O230 C219 1.252 . S
O231 Sm200 2.408 . S
O231 C219 1.272 . S
H232 C204 0.930 . S
H233 C205 0.929 . S
H234 C207 0.930 . S
H235 C208 0.929 1_556 S
H236 C213 0.930 . S
H237 C214 0.929 . S
H238 C216 0.930 . S
H239 C217 0.929 . S
H240 C246 0.930 . S
H241 C249 0.930 . S
H242 C250 0.923 1_554 S
H243 C251 0.930 . S
H244 C254 0.930 . S
H245 C255 0.930 . S
C246 H240 0.930 . S
C246 C247 1.355 . S
C246 C248 1.415 . S
C247 C246 1.355 . S
C247 C249 1.419 . S
C248 C246 1.415 . S
C248 C253 1.425 1_556 S
C248 C255 1.409 . S
C249 H241 0.930 . S
C249 C247 1.419 . S
C249 C250 1.362 . S
C250 H242 0.923 1_556 S
C250 C249 1.362 . S
C250 C253 1.409 1_556 S
C251 H243 0.930 . S
C251 C252 1.355 . S
C251 C253 1.415 . S
C252 C251 1.355 . S
C252 C254 1.419 . S
C253 C248 1.425 1_554 S
C253 C250 1.409 1_554 S
C253 C251 1.415 . S
C254 H244 0.930 . S
C254 C252 1.419 . S
C254 C255 1.362 1_554 S
C255 H245 0.930 . S
C255 C248 1.409 . S
C255 C254 1.362 1_556 S
H256 C262 0.930 . S
H257 C265 0.930 . S
H258 C266 0.930 . S
H259 C267 0.930 . S
H260 C270 0.930 . S
H261 C271 0.930 . S
C262 H256 0.930 . S
C262 C263 1.355 . S
C262 C264 1.415 1_455 S
C263 C262 1.355 . S
C263 C265 1.419 . S
C264 C262 1.415 1_655 S
C264 C269 1.425 1_655 S
C264 C271 1.409 . S
C265 H257 0.930 . S
C265 C263 1.419 . S
C265 C266 1.362 . S
C266 H258 0.930 . S
C266 C265 1.362 . S
C266 C269 1.409 . S
C267 H259 0.930 . S
C267 C268 1.355 . S
C267 C269 1.415 1_655 S
C268 C267 1.355 . S
C268 C270 1.419 . S
C269 C264 1.425 1_455 S
C269 C266 1.409 . S
C269 C267 1.415 1_455 S
C270 H260 0.930 . S
C270 C268 1.419 . S
C270 C271 1.362 . S
C271 H261 0.930 . S
C271 C264 1.409 . S
C271 C270 1.362 . S
H272 C278 0.930 . S
H273 C281 0.930 . S
H274 C282 0.930 . S
H275 C283 0.930 . S
H276 C286 0.930 . S
H277 C287 0.930 . S
C278 H272 0.930 . S
C278 C279 1.355 . S
C278 C280 1.415 . S
C279 C278 1.355 . S
C279 C281 1.419 1_545 S
C280 C278 1.415 . S
C280 C285 1.425 1_545 S
C280 C287 1.409 . S
C281 H273 0.930 . S
C281 C279 1.419 1_565 S
C281 C282 1.362 . S
C282 H274 0.930 . S
C282 C281 1.362 . S
C282 C285 1.409 . S
C283 H275 0.930 . S
C283 C284 1.355 . S
C283 C285 1.415 . S
C284 C283 1.355 . S
C284 C286 1.419 1_565 S
C285 C280 1.425 1_565 S
C285 C282 1.409 . S
C285 C283 1.415 . S
C286 H276 0.930 . S
C286 C284 1.419 1_545 S
C286 C287 1.362 . S
C287 H277 0.930 . S
C287 C280 1.409 . S
C287 C286 1.362 . S
H288 C294 0.930 . S
H289 C297 0.930 . S
H290 C298 0.930 . S
H291 C299 0.930 . S
H292 C302 0.930 . S
H293 C303 0.930 . S
C294 H288 0.930 . S
C294 C295 1.355 . S
C294 C296 1.415 . S
C295 C294 1.355 . S
C295 C297 1.419 . S
C296 C294 1.415 . S
C296 C301 1.425 1_556 S
C296 C303 1.409 . S
C297 H289 0.930 . S
C297 C295 1.419 . S
C297 C298 1.362 1_556 S
C298 H290 0.930 . S
C298 C297 1.362 1_554 S
C298 C301 1.409 . S
C299 H291 0.930 . S
C299 C300 1.355 . S
C299 C301 1.415 . S
C300 C299 1.355 . S
C300 C302 1.419 1_554 S
C301 C296 1.425 1_554 S
C301 C298 1.409 . S
C301 C299 1.415 . S
C302 H292 0.930 . S
C302 C300 1.419 1_556 S
C302 C303 1.362 . S
C303 H293 0.930 . S
C303 C296 1.409 . S
C303 C302 1.362 . S
H304 C310 0.930 . S
H305 C313 0.930 . S
H306 C314 0.930 . S
H307 C315 0.930 . S
H308 C318 0.930 . S
H309 C319 0.930 . S
C310 H304 0.930 . S
C310 C311 1.355 . S
C310 C312 1.415 . S
C311 C310 1.355 . S
C311 C313 1.419 1_455 S
C312 C310 1.415 . S
C312 C317 1.425 1_455 S
C312 C319 1.409 . S
C313 H305 0.930 . S
C313 C311 1.419 1_655 S
C313 C314 1.362 . S
C314 H306 0.930 . S
C314 C313 1.362 . S
C314 C317 1.409 . S
C315 H307 0.930 . S
C315 C316 1.355 . S
C315 C317 1.415 . S
C316 C315 1.355 . S
C316 C318 1.419 1_655 S
C317 C312 1.425 1_655 S
C317 C314 1.409 . S
C317 C315 1.415 . S
C318 H308 0.930 . S
C318 C316 1.419 1_455 S
C318 C319 1.362 . S
C319 H309 0.930 . S
C319 C312 1.409 . S
C319 C318 1.362 . S
H320 C326 0.930 . S
H321 C329 0.930 . S
H322 C330 0.930 1_565 S
H323 C331 0.930 . S
H324 C334 0.930 . S
H325 C335 0.930 1_545 S
C326 H320 0.930 . S
C326 C327 1.355 . S
C326 C328 1.415 . S
C327 C326 1.355 . S
C327 C329 1.419 . S
C328 C326 1.415 . S
C328 C333 1.425 1_545 S
C328 C335 1.409 1_545 S
C329 H321 0.930 . S
C329 C327 1.419 . S
C329 C330 1.362 . S
C330 H322 0.930 1_545 S
C330 C329 1.362 . S
C330 C333 1.409 1_545 S
C331 H323 0.930 . S
C331 C332 1.355 . S
C331 C333 1.415 . S
C332 C331 1.355 . S
C332 C334 1.419 . S
C333 C328 1.425 1_565 S
C333 C330 1.409 1_565 S
C333 C331 1.415 . S
C334 H324 0.930 . S
C334 C332 1.419 . S
C334 C335 1.362 . S
C335 H325 0.930 1_565 S
C335 C328 1.409 1_565 S
C335 C334 1.362 . S
H336 C342 0.930 . S
H337 C345 0.930 . S
H338 C346 0.930 . S
H339 C347 0.930 . S
H340 C350 0.930 . S
H341 C351 0.930 . S
C342 H336 0.930 . S
C342 C343 1.355 . S
C342 C344 1.415 . S
C343 C342 1.355 . S
C343 C345 1.419 . S
C344 C342 1.415 . S
C344 C349 1.425 . S
C344 C351 1.409 . S
C345 H337 0.930 . S
C345 C343 1.419 . S
C345 C346 1.362 . S
C346 H338 0.930 . S
C346 C345 1.362 . S
C346 C349 1.409 . S
C347 H339 0.930 . S
C347 C348 1.355 . S
C347 C349 1.415 . S
C348 C347 1.355 . S
C348 C350 1.419 . S
C349 C344 1.425 . S
C349 C346 1.409 . S
C349 C347 1.415 . S
C350 H340 0.930 . S
C350 C348 1.419 . S
C350 C351 1.362 . S
C351 H341 0.930 . S
C351 C344 1.409 . S
C351 C350 1.362 . S
H352 C358 0.930 . S
H353 C361 0.930 . S
H354 C362 0.930 . S
H355 C363 0.930 . S
H356 C366 0.930 . S
H357 C367 0.930 . S
C358 H352 0.930 . S
C358 C359 1.352 1_556 S
C358 C360 1.415 . S
C359 C358 1.352 1_554 S
C359 C361 1.420 . S
C360 C358 1.415 . S
C360 C365 1.425 . S
C360 C367 1.409 . S
C361 H353 0.930 . S
C361 C359 1.420 . S
C361 C362 1.362 1_554 S
C362 H354 0.930 . S
C362 C361 1.362 1_556 S
C362 C365 1.409 . S
C363 H355 0.930 . S
C363 C364 1.355 . S
C363 C365 1.415 . S
C364 C363 1.355 . S
C364 C366 1.419 . S
C365 C360 1.425 . S
C365 C362 1.409 . S
C365 C363 1.415 . S
C366 H356 0.930 . S
C366 C364 1.419 . S
C366 C367 1.362 . S
C367 H357 0.930 . S
C367 C360 1.409 . S
C367 C366 1.362 . S
H368 C374 0.930 . S
H369 C377 0.930 . S
H370 C378 0.930 . S
H371 C379 0.930 . S
H372 C382 0.930 . S
H373 C383 0.930 . S
C374 H368 0.930 . S
C374 C375 1.355 . S
C374 C376 1.415 . S
C375 C374 1.355 . S
C375 C377 1.419 . S
C376 C374 1.415 . S
C376 C381 1.425 . S
C376 C383 1.409 . S
C377 H369 0.930 . S
C377 C375 1.419 . S
C377 C378 1.362 . S
C378 H370 0.930 . S
C378 C377 1.362 . S
C378 C381 1.409 . S
C379 H371 0.930 . S
C379 C380 1.355 . S
C379 C381 1.415 . S
C380 C379 1.355 . S
C380 C382 1.419 . S
C381 C376 1.425 . S
C381 C378 1.409 . S
C381 C379 1.415 . S
C382 H372 0.930 . S
C382 C380 1.419 . S
C382 C383 1.362 . S
C383 H373 0.930 . S
C383 C376 1.409 . S
C383 C382 1.362 . S
H384 C390 0.930 . S
H385 C393 0.930 . S
H386 C394 0.930 . S
H387 C395 0.930 . S
H388 C398 0.930 . S
H389 C399 0.930 . S
C390 H384 0.930 . S
C390 C391 1.355 . S
C390 C392 1.415 . S
C391 C390 1.355 . S
C391 C393 1.419 . S
C392 C390 1.415 . S
C392 C397 1.425 . S
C392 C399 1.409 . S
C393 H385 0.930 . S
C393 C391 1.419 . S
C393 C394 1.362 . S
C394 H386 0.930 . S
C394 C393 1.362 . S
C394 C397 1.409 . S
C395 H387 0.930 . S
C395 C396 1.355 . S
C395 C397 1.415 . S
C396 C395 1.355 . S
C396 C398 1.419 . S
C397 C392 1.425 . S
C397 C394 1.409 . S
C397 C395 1.415 . S
C398 H388 0.930 . S
C398 C396 1.419 . S
C398 C399 1.362 . S
C399 H389 0.930 . S
C399 C392 1.409 . S
C399 C398 1.362 . S
H400 C406 0.930 1_556 S
H401 C409 0.930 . S
H402 C410 0.930 . S
H403 C411 0.930 . S
H404 C414 0.930 . S
H405 C415 0.930 . S
C406 H400 0.930 1_554 S
C406 C407 1.355 1_554 S
C406 C408 1.415 . S
C407 C406 1.355 1_556 S
C407 C409 1.419 . S
C408 C406 1.415 . S
C408 C413 1.425 . S
C408 C415 1.409 . S
C409 H401 0.930 . S
C409 C407 1.419 . S
C409 C410 1.362 1_556 S
C410 H402 0.930 . S
C410 C409 1.362 1_554 S
C410 C413 1.409 . S
C411 H403 0.930 . S
C411 C412 1.355 . S
C411 C413 1.415 . S
C412 C411 1.355 . S
C412 C414 1.419 . S
C413 C408 1.425 . S
C413 C410 1.409 . S
C413 C411 1.415 . S
C414 H404 0.930 . S
C414 C412 1.419 . S
C414 C415 1.362 . S
C415 H405 0.930 . S
C415 C408 1.409 . S
C415 C414 1.362 . S
H416 C422 0.930 . S
H417 C425 0.930 . S
H418 C426 0.930 . S
H419 C427 0.930 . S
H420 C430 0.930 . S
H421 C431 0.930 . S
C422 H416 0.930 . S
C422 C423 1.355 . S
C422 C424 1.415 . S
C423 C422 1.355 . S
C423 C425 1.419 . S
C424 C422 1.415 . S
C424 C429 1.425 . S
C424 C431 1.409 . S
C425 H417 0.930 . S
C425 C423 1.419 . S
C425 C426 1.362 . S
C426 H418 0.930 . S
C426 C425 1.362 . S
C426 C429 1.409 . S
C427 H419 0.930 . S
C427 C428 1.355 . S
C427 C429 1.415 . S
C428 C427 1.355 . S
C428 C430 1.419 . S
C429 C424 1.425 . S
C429 C426 1.409 . S
C429 C427 1.415 . S
C430 H420 0.930 . S
C430 C428 1.419 . S
C430 C431 1.362 . S
C431 H421 0.930 . S
C431 C424 1.409 . S
C431 C430 1.362 . S
H432 C438 0.930 . S
H433 C441 0.930 . S
H434 C442 0.930 . S
H435 C443 0.930 . S
H436 C446 0.930 . S
H437 C447 0.930 . S
C438 H432 0.930 . S
C438 C439 1.355 . S
C438 C440 1.415 . S
C439 C438 1.355 . S
C439 C441 1.419 . S
C440 C438 1.415 . S
C440 C445 1.425 . S
C440 C447 1.409 . S
C441 H433 0.930 . S
C441 C439 1.419 . S
C441 C442 1.362 . S
C442 H434 0.930 . S
C442 C441 1.362 . S
C442 C445 1.409 . S
C443 H435 0.930 . S
C443 C444 1.355 . S
C443 C445 1.415 . S
C444 C443 1.355 . S
C444 C446 1.419 . S
C445 C440 1.425 . S
C445 C442 1.409 . S
C445 C443 1.415 . S
C446 H436 0.930 . S
C446 C444 1.419 . S
C446 C447 1.362 . S
C447 H437 0.930 . S
C447 C440 1.409 . S
C447 C446 1.362 . S
H448 C454 0.930 . S
H449 C457 0.930 . S
H450 C458 0.930 . S
H451 C459 0.930 . S
H452 C462 0.930 . S
H453 C463 0.930 . S
C454 H448 0.930 . S
C454 C455 1.355 . S
C454 C456 1.415 . S
C455 C454 1.355 . S
C455 C457 1.419 . S
C456 C454 1.415 . S
C456 C461 1.425 . S
C456 C463 1.409 . S
C457 H449 0.930 . S
C457 C455 1.419 . S
C457 C458 1.362 . S
C458 H450 0.930 . S
C458 C457 1.362 . S
C458 C461 1.409 . S
C459 H451 0.930 . S
C459 C460 1.355 . S
C459 C461 1.415 . S
C460 C459 1.355 . S
C460 C462 1.419 . S
C461 C456 1.425 . S
C461 C458 1.409 . S
C461 C459 1.415 . S
C462 H452 0.930 . S
C462 C460 1.419 . S
C462 C463 1.362 . S
C463 H453 0.930 . S
C463 C456 1.409 . S
C463 C462 1.362 . S
H464 C470 0.930 . S
H465 C473 0.930 . S
H466 C474 0.930 . S
H467 C475 0.930 . S
H468 C478 0.930 . S
H469 C479 0.930 . S
C470 H464 0.930 . S
C470 C471 1.355 . S
C470 C472 1.415 . S
C471 C470 1.355 . S
C471 C473 1.419 . S
C472 C470 1.415 . S
C472 C477 1.425 . S
C472 C479 1.409 . S
C473 H465 0.930 . S
C473 C471 1.419 . S
C473 C474 1.362 . S
C474 H466 0.930 . S
C474 C473 1.362 . S
C474 C477 1.409 . S
C475 H467 0.930 . S
C475 C476 1.355 . S
C475 C477 1.415 . S
C476 C475 1.355 . S
C476 C478 1.419 1_554 S
C477 C472 1.425 . S
C477 C474 1.409 . S
C477 C475 1.415 . S
C478 H468 0.930 . S
C478 C476 1.419 1_556 S
C478 C479 1.362 1_556 S
C479 H469 0.930 . S
C479 C472 1.409 . S
C479 C478 1.362 1_554 S
H480 C486 0.930 . S
H481 C489 0.930 . S
H482 C490 0.930 . S
H483 C491 0.930 . S
H484 C494 0.930 . S
H485 C495 0.930 . S
C486 H480 0.930 . S
C486 C487 1.355 . S
C486 C488 1.415 . S
C487 C486 1.355 . S
C487 C489 1.419 . S
C488 C486 1.415 . S
C488 C493 1.425 . S
C488 C495 1.409 . S
C489 H481 0.930 . S
C489 C487 1.419 . S
C489 C490 1.362 . S
C490 H482 0.930 . S
C490 C489 1.362 . S
C490 C493 1.409 . S
C491 H483 0.930 . S
C491 C492 1.355 . S
C491 C493 1.415 . S
C492 C491 1.355 . S
C492 C494 1.419 . S
C493 C488 1.425 . S
C493 C490 1.409 . S
C493 C491 1.415 . S
C494 H484 0.930 . S
C494 C492 1.419 . S
C494 C495 1.362 . S
C495 H485 0.930 . S
C495 C488 1.409 . S
C495 C494 1.362 . S
H496 C502 0.930 . S
H497 C505 0.930 . S
H498 C506 0.930 . S
H499 C507 0.930 . S
H500 C510 0.930 . S
H501 C511 0.930 . S
C502 H496 0.930 . S
C502 C503 1.355 . S
C502 C504 1.415 . S
C503 C502 1.355 . S
C503 C505 1.419 . S
C504 C502 1.415 . S
C504 C509 1.425 . S
C504 C511 1.409 . S
C505 H497 0.930 . S
C505 C503 1.419 . S
C505 C506 1.362 . S
C506 H498 0.930 . S
C506 C505 1.362 . S
C506 C509 1.409 . S
C507 H499 0.930 . S
C507 C508 1.355 . S
C507 C509 1.415 . S
C508 C507 1.355 . S
C508 C510 1.419 . S
C509 C504 1.425 . S
C509 C506 1.409 . S
C509 C507 1.415 . S
C510 H500 0.930 . S
C510 C508 1.419 . S
C510 C511 1.362 . S
C511 H501 0.930 . S
C511 C504 1.409 . S
C511 C510 1.362 . S
H512 C518 0.930 . S
H513 C521 0.930 . S
H514 C522 0.930 . S
H515 C523 0.930 . S
H516 C526 0.930 . S
H517 C527 0.930 . S
C518 H512 0.930 . S
C518 C519 1.355 . S
C518 C520 1.415 . S
C519 C518 1.355 . S
C519 C521 1.419 . S
C520 C518 1.415 . S
C520 C525 1.425 . S
C520 C527 1.409 . S
C521 H513 0.930 . S
C521 C519 1.419 . S
C521 C522 1.362 . S
C522 H514 0.930 . S
C522 C521 1.362 . S
C522 C525 1.409 . S
C523 H515 0.930 . S
C523 C524 1.355 . S
C523 C525 1.415 . S
C524 C523 1.355 . S
C524 C526 1.419 . S
C525 C520 1.425 . S
C525 C522 1.409 . S
C525 C523 1.415 . S
C526 H516 0.930 . S
C526 C524 1.419 . S
C526 C527 1.362 . S
C527 H517 0.930 . S
C527 C520 1.409 . S
C527 C526 1.362 . S
C247 C210 1.820 . S
C252 C10 1.821 . S
C263 C9 1.414 . S
C268 C49 1.446 . S
C279 C50 1.861 . S
C284 C90 1.861 . S
C295 C89 1.376 . S
C300 C129 1.455 . S
C311 C170 1.864 . S
C316 C130 1.864 . S
C327 C209 1.371 . S
C332 C169 1.400 . S
C343 C6 1.446 . S
C348 C15 1.446 . S
C359 C55 1.457 . S
C364 C46 1.454 . S
C375 C86 1.496 . S
C380 C95 1.496 . S
C391 C135 1.474 . S
C396 C126 1.474 . S
C407 C175 1.499 . S
C412 C166 1.499 . S
C423 C215 1.435 . S
C428 C206 1.435 . S
C439 C19 1.868 . S
C444 C178 1.883 . S
C455 C58 1.884 . S
C460 C219 1.866 . S
C471 C18 1.884 . S
C476 C99 1.867 1_554 S
C487 C59 1.872 . S
C492 C138 1.882 . S
C503 C179 1.877 . S
C508 C98 1.876 . S
C519 C139 1.869 1_556 S
C524 C218 1.883 . S
