# Generated by pormake.
# Topology sml, (6)-cn, num edge types: 1
# Building blocks:
#     Node 0, Type 0, BuildingBlock: BETFAJ_clean_sbu_0, # of connection points: 6
#     Node 1, Type 0, BuildingBlock: BETFAJ_clean_sbu_0, # of connection points: 6
#     Node 2, Type 0, BuildingBlock: BETFAJ_clean_sbu_0, # of connection points: 6
#     Node 3, Type 0, BuildingBlock: BETFAJ_clean_sbu_0, # of connection points: 6
#     Node 4, Type 0, BuildingBlock: BETFAJ_clean_sbu_0, # of connection points: 6
#     Node 5, Type 0, BuildingBlock: BETFAJ_clean_sbu_0, # of connection points: 6
#     Edge 6, Type (0, 0), BuildingBlock: XIVTED_clean_linker_0, # of connection points: 2
#     Edge 7, Type (0, 0), BuildingBlock: XIVTED_clean_linker_0, # of connection points: 2
#     Edge 8, Type (0, 0), BuildingBlock: XIVTED_clean_linker_0, # of connection points: 2
#     Edge 9, Type (0, 0), BuildingBlock: XIVTED_clean_linker_0, # of connection points: 2
#     Edge 10, Type (0, 0), BuildingBlock: XIVTED_clean_linker_0, # of connection points: 2
#     Edge 11, Type (0, 0), BuildingBlock: XIVTED_clean_linker_0, # of connection points: 2
#     Edge 12, Type (0, 0), BuildingBlock: XIVTED_clean_linker_0, # of connection points: 2
#     Edge 13, Type (0, 0), BuildingBlock: XIVTED_clean_linker_0, # of connection points: 2
#     Edge 14, Type (0, 0), BuildingBlock: XIVTED_clean_linker_0, # of connection points: 2
#     Edge 15, Type (0, 0), BuildingBlock: XIVTED_clean_linker_0, # of connection points: 2
#     Edge 16, Type (0, 0), BuildingBlock: XIVTED_clean_linker_0, # of connection points: 2
#     Edge 17, Type (0, 0), BuildingBlock: XIVTED_clean_linker_0, # of connection points: 2
#     Edge 18, Type (0, 0), BuildingBlock: XIVTED_clean_linker_0, # of connection points: 2
#     Edge 19, Type (0, 0), BuildingBlock: XIVTED_clean_linker_0, # of connection points: 2
#     Edge 20, Type (0, 0), BuildingBlock: XIVTED_clean_linker_0, # of connection points: 2
#     Edge 21, Type (0, 0), BuildingBlock: XIVTED_clean_linker_0, # of connection points: 2
#     Edge 22, Type (0, 0), BuildingBlock: XIVTED_clean_linker_0, # of connection points: 2
#     Edge 23, Type (0, 0), BuildingBlock: XIVTED_clean_linker_0, # of connection points: 2
# Relax obj value: 0.188
# Max RMSD: 0.220
# Mean RMSD: 0.220
data_MOF--net-sml--node1-BETFAJ_clean_sbu_0--edge1-XIVTED_clean_linker_0
_symmetry_space_group_name_H-M    P1
_symmetry_Int_Tables_number       1
_symmetry_cell_setting            triclinic
loop_
_symmetry_equiv_pos_as_xyz
'x, y, z'
_cell_length_a     32.028498
_cell_length_b     32.082175
_cell_length_c     25.176666
_cell_angle_alpha  89.560087
_cell_angle_beta   90.434393
_cell_angle_gamma 119.99666
loop_
_atom_site_label
_atom_site_type_symbol
_atom_site_fract_x
_atom_site_fract_y
_atom_site_fract_z
_atom_type_partial_charge
Sm0 Sm 0.21317 0.45171 0.11523 0.0
Sm1 Sm 0.23286 0.40176 0.21146 0.0
C2 C 0.21851 0.49328 0.02224 0.0
C3 C 0.22355 0.4842 0.96608 0.0
C4 C 0.2476 0.45958 0.95133 0.0
C5 C 0.2509 0.45029 0.89774 0.0
C6 C 0.23014 0.46538 0.85795 0.0
C7 C 0.20621 0.49013 0.87316 0.0
C8 C 0.20298 0.49942 0.92667 0.0
C9 C 0.13272 0.38732 0.16885 0.0
C10 C 0.2185 0.35134 0.09937 0.0
C11 C 0.23887 0.36501 0.30405 0.0
C12 C 0.23638 0.3743 0.36081 0.0
C13 C 0.20974 0.39546 0.37819 0.0
C14 C 0.20905 0.40548 0.43207 0.0
C15 C 0.23484 0.39431 0.46961 0.0
C16 C 0.26115 0.37274 0.45192 0.0
C17 C 0.26197 0.36295 0.39801 0.0
C18 C 0.31064 0.46367 0.15128 0.0
C19 C 0.21695 0.49517 0.23046 0.0
O20 O 0.25592 0.50527 0.05303 0.0
O21 O 0.17764 0.46298 0.04477 0.0
O22 O 0.16833 0.38199 0.15924 0.0
O23 O 0.13719 0.42622 0.14699 0.0
O24 O 0.22399 0.39177 0.07824 0.0
O25 O 0.21412 0.34302 0.15097 0.0
O26 O 0.19886 0.34844 0.27664 0.0
O27 O 0.27649 0.39782 0.2784 0.0
O28 O 0.27731 0.47057 0.16658 0.0
O29 O 0.30455 0.42286 0.1689 0.0
O30 O 0.21456 0.45554 0.24958 0.0
O31 O 0.22245 0.50592 0.17928 0.0
H32 H 0.26372 0.44745 0.9812 0.0
H33 H 0.27004 0.43162 0.8875 0.0
H34 H 0.18911 0.50159 0.84379 0.0
H35 H 0.18401 0.51819 0.93735 0.0
H36 H 0.18952 0.4043 0.3501 0.0
H37 H 0.18795 0.42156 0.44437 0.0
H38 H 0.28188 0.36422 0.47961 0.0
H39 H 0.28293 0.34682 0.38529 0.0
Sm40 Sm 0.81725 0.24329 0.4994 0.0
Sm41 Sm 0.76861 0.17432 0.40227 0.0
C42 C 0.83658 0.28717 0.59229 0.0
C43 C 0.82775 0.27381 0.6485 0.0
C44 C 0.7971 0.22588 0.66391 0.0
C45 C 0.78956 0.2136 0.71775 0.0
C46 C 0.81251 0.24914 0.75693 0.0
C47 C 0.84283 0.2972 0.74101 0.0
C48 C 0.85041 0.30937 0.68721 0.0
C49 C 0.87984 0.24143 0.42845 0.0
C50 C 0.77808 0.1264 0.51073 0.0
C51 C 0.74539 0.12876 0.31019 0.0
C52 C 0.74978 0.14112 0.25361 0.0
C53 C 0.7732 0.18934 0.23698 0.0
C54 C 0.77862 0.20068 0.18289 0.0
C55 C 0.76045 0.16393 0.14464 0.0
C56 C 0.73645 0.11564 0.16165 0.0
C57 C 0.73128 0.10437 0.21577 0.0
C58 C 0.70826 0.17875 0.4752 0.0
C59 C 0.80716 0.29147 0.39045 0.0
O60 O 0.79857 0.27776 0.56368 0.0
O61 O 0.86628 0.27675 0.5682 0.0
O62 O 0.84064 0.20537 0.44231 0.0
O63 O 0.88936 0.27961 0.45529 0.0
O64 O 0.78799 0.16691 0.53484 0.0
O65 O 0.77471 0.12191 0.45862 0.0
O66 O 0.78589 0.14124 0.33527 0.0
O67 O 0.7157 0.13708 0.33746 0.0
O68 O 0.74639 0.21354 0.45761 0.0
O69 O 0.69881 0.13858 0.45269 0.0
O70 O 0.79374 0.24996 0.36654 0.0
O71 O 0.81462 0.29731 0.44217 0.0
H72 H 0.77922 0.19802 0.63435 0.0
H73 H 0.76641 0.1762 0.72864 0.0
H74 H 0.86039 0.32554 0.77012 0.0
H75 H 0.87399 0.34658 0.67581 0.0
H76 H 0.78746 0.21816 0.26574 0.0
H77 H 0.79673 0.23818 0.171 0.0
H78 H 0.72255 0.08658 0.13313 0.0
H79 H 0.71322 0.06696 0.22809 0.0
Sm80 Sm 0.57698 0.71631 0.75132 0.0
Sm81 Sm 0.61417 0.78978 0.84609 0.0
C82 C 0.54308 0.67274 0.65902 0.0
C83 C 0.55084 0.6856 0.6022 0.0
C84 C 0.56633 0.73278 0.58478 0.0
C85 C 0.575 0.74461 0.53079 0.0
C86 C 0.56836 0.70949 0.49317 0.0
C87 C 0.55266 0.66225 0.511 0.0
C88 C 0.54405 0.6505 0.56496 0.0
C89 C 0.64527 0.71343 0.81486 0.0
C90 C 0.66053 0.83214 0.73338 0.0
C91 C 0.64288 0.83399 0.93899 0.0
C92 C 0.63923 0.81984 0.99531 0.0
C93 C 0.62587 0.77253 1.01016 0.0
C94 C 0.62047 0.75919 0.06386 0.0
C95 C 0.62817 0.79292 0.10373 0.0
C96 C 0.64196 0.84039 0.08842 0.0
C97 C 0.64742 0.85365 0.03477 0.0
C98 C 0.543 0.78795 0.78308 0.0
C99 C 0.53277 0.67599 0.86723 0.0
O100 O 0.52209 0.69136 0.68692 0.0
O101 O 0.57898 0.67278 0.68419 0.0
O102 O 0.64465 0.75104 0.80087 0.0
O103 O 0.61162 0.67615 0.79015 0.0
O104 O 0.62565 0.79145 0.7129 0.0
O105 O 0.66847 0.83834 0.78493 0.0
O106 O 0.67013 0.82442 0.90888 0.0
O107 O 0.60251 0.82477 0.91578 0.0
O108 O 0.54522 0.75198 0.79923 0.0
O109 O 0.57848 0.82765 0.80181 0.0
O110 O 0.56999 0.71584 0.88543 0.0
O111 O 0.52311 0.66841 0.81577 0.0
H112 H 0.57185 0.76048 0.61291 0.0
H113 H 0.5865 0.7812 0.5185 0.0
H114 H 0.54788 0.63446 0.48339 0.0
H115 H 0.53247 0.61399 0.5777 0.0
H116 H 0.61919 0.74582 0.98024 0.0
H117 H 0.61033 0.72249 0.07412 0.0
H118 H 0.64742 0.86713 0.11782 0.0
H119 H 0.65738 0.89023 0.02404 0.0
Sm120 Sm 0.71041 0.57759 0.24071 0.0
Sm121 Sm 0.78131 0.62613 0.14574 0.0
C122 C 0.67044 0.53762 0.33293 0.0
C123 C 0.68258 0.5475 0.3898 0.0
C124 C 0.73061 0.56998 0.40753 0.0
C125 C 0.74152 0.58008 0.4615 0.0
C126 C 0.70461 0.56796 0.49886 0.0
C127 C 0.65654 0.54544 0.48076 0.0
C128 C 0.6457 0.53535 0.42678 0.0
C129 C 0.69799 0.64378 0.18371 0.0
C130 C 0.82103 0.67147 0.25975 0.0
C131 C 0.82253 0.66382 0.05316 0.0
C132 C 0.80857 0.65705 0.99661 0.0
C133 C 0.76018 0.63695 0.98069 0.0
C134 C 0.74761 0.62876 0.92678 0.0
C135 C 0.7832 0.64025 0.88789 0.0
C136 C 0.83168 0.66121 0.90423 0.0
C137 C 0.84416 0.66944 0.958 0.0
C138 C 0.79161 0.55824 0.20192 0.0
C139 C 0.67196 0.53371 0.1245 0.0
O140 O 0.69641 0.52459 0.30513 0.0
O141 O 0.66132 0.56793 0.30756 0.0
O142 O 0.73783 0.64739 0.19643 0.0
O143 O 0.66265 0.60546 0.20515 0.0
O144 O 0.78332 0.63253 0.27953 0.0
O145 O 0.82583 0.6812 0.20845 0.0
O146 O 0.8028 0.68225 0.08318 0.0
O147 O 0.82499 0.62849 0.0763 0.0
O148 O 0.75219 0.55509 0.18851 0.0
O149 O 0.82806 0.59775 0.18415 0.0
O150 O 0.70893 0.57385 0.10623 0.0
O151 O 0.66614 0.52288 0.17575 0.0
H152 H 0.75971 0.5799 0.37964 0.0
H153 H 0.77897 0.59803 0.47383 0.0
H154 H 0.62718 0.53503 0.5084 0.0
H155 H 0.60841 0.51803 0.41388 0.0
H156 H 0.73207 0.62696 1.00994 0.0
H157 H 0.70992 0.61223 0.91573 0.0
H158 H 0.86012 0.67133 0.8754 0.0
H159 H 0.88169 0.6851 0.96949 0.0
Sm160 Sm 0.22531 0.80179 0.46699 0.0
Sm161 Sm 0.16403 0.75653 0.56865 0.0
C162 C 0.27389 0.81754 0.37754 0.0
C163 C 0.2608 0.80899 0.32111 0.0
C164 C 0.21272 0.79034 0.305 0.0
C165 C 0.20038 0.78267 0.2512 0.0
C166 C 0.23596 0.79358 0.21254 0.0
C167 C 0.28408 0.81191 0.22908 0.0
C168 C 0.29636 0.81955 0.28297 0.0
C169 C 0.23211 0.86619 0.54231 0.0
C170 C 0.11702 0.78446 0.4664 0.0
C171 C 0.11524 0.74033 0.65803 0.0
C172 C 0.127 0.74454 0.71487 0.0
C173 C 0.17478 0.76268 0.73184 0.0
C174 C 0.18589 0.76719 0.78603 0.0
C175 C 0.14937 0.75369 0.82415 0.0
C176 C 0.10149 0.73542 0.80675 0.0
C177 C 0.09044 0.73088 0.75252 0.0
C178 C 0.1593 0.69235 0.49445 0.0
C179 C 0.27255 0.77412 0.5701 0.0
O180 O 0.25999 0.77894 0.40682 0.0
O181 O 0.26693 0.85008 0.40039 0.0
O182 O 0.23042 0.82679 0.55098 0.0
O183 O 0.23422 0.87508 0.49166 0.0
O184 O 0.15259 0.78886 0.43633 0.0
O185 O 0.11586 0.77647 0.51814 0.0
O186 O 0.13338 0.781 0.63168 0.0
O187 O 0.11857 0.70672 0.6325 0.0
O188 O 0.15965 0.73102 0.48487 0.0
O189 O 0.15748 0.68411 0.54523 0.0
O190 O 0.23604 0.76787 0.59977 0.0
O191 O 0.27485 0.78392 0.5186 0.0
H192 H 0.18477 0.78182 0.33405 0.0
H193 H 0.16292 0.76787 0.23993 0.0
H194 H 0.31241 0.8212 0.20033 0.0
H195 H 0.33365 0.834 0.29484 0.0
H196 H 0.20349 0.77359 0.70316 0.0
H197 H 0.22318 0.78197 0.79804 0.0
H198 H 0.07246 0.72415 0.83506 0.0
H199 H 0.05335 0.71675 0.73998 0.0
Sm200 Sm 0.45928 0.20855 0.86039 0.0
Sm201 Sm 0.41702 0.23799 0.7647 0.0
C202 C 0.49544 0.20494 0.95414 0.0
C203 C 0.488 0.21159 1.01026 0.0
C204 C 0.46266 0.23491 0.02493 0.0
C205 C 0.45462 0.23943 0.07863 0.0
C206 C 0.47169 0.22057 0.11848 0.0
C207 C 0.49761 0.19783 0.10331 0.0
C208 C 0.50559 0.19335 0.04971 0.0
C209 C 0.40208 0.13458 0.7943 0.0
C210 C 0.3586 0.21354 0.87272 0.0
C211 C 0.38651 0.25286 0.67202 0.0
C212 C 0.39547 0.24991 0.61536 0.0
C213 C 0.42204 0.22844 0.59886 0.0
C214 C 0.43051 0.22612 0.54482 0.0
C215 C 0.41252 0.24524 0.50631 0.0
C216 C 0.38597 0.2668 0.52325 0.0
C217 C 0.37756 0.2691 0.5773 0.0
C218 C 0.47337 0.30906 0.83536 0.0
C219 C 0.51071 0.22215 0.74814 0.0
O220 O 0.51398 0.24352 0.92409 0.0
O221 O 0.4604 0.16714 0.93093 0.0
O222 O 0.39414 0.1679 0.80737 0.0
O223 O 0.43889 0.13733 0.81966 0.0
O224 O 0.39752 0.21708 0.89589 0.0
O225 O 0.35401 0.21394 0.8207 0.0
O226 O 0.36445 0.21202 0.69799 0.0
O227 O 0.42218 0.28693 0.69894 0.0
O228 O 0.48184 0.27763 0.81731 0.0
O229 O 0.43408 0.30489 0.81503 0.0
O230 O 0.47351 0.22341 0.72695 0.0
O231 O 0.51717 0.22141 0.79987 0.0
H232 H 0.44874 0.24918 0.99489 0.0
H233 H 0.43417 0.25675 0.08886 0.0
H234 H 0.51197 0.18364 0.1329 0.0
H235 H 0.52535 0.17539 0.03905 0.0
H236 H 0.43628 0.21352 0.6277 0.0
H237 H 0.45163 0.20985 0.53328 0.0
H238 H 0.37107 0.28131 0.4947 0.0
H239 H 0.35691 0.28576 0.58939 0.0
H240 H 0.34839 0.2025 0.98046 0.0
H241 H 0.21442 0.3477 0.9909 0.0
H242 H 0.28525 0.22812 0.84063 0.0
H243 H 0.22884 0.27495 0.12894 0.0
H244 H 0.23259 0.29744 0.93449 0.0
H245 H 0.29756 0.22093 0.03567 0.0
C246 C 0.32322 0.21116 0.96137 0.0
C247 C 0.32179 0.21489 0.90596 0.0
C248 C 0.23078 0.29177 0.97707 0.0
C249 C 0.2641 0.2365 0.96872 0.0
C250 C 0.22068 0.32066 1.00929 0.0
C251 C 0.22116 0.31615 0.06467 0.0
C252 C 0.24232 0.25895 1.00058 0.0
C253 C 0.22877 0.28007 0.0864 0.0
C254 C 0.29406 0.22148 0.99289 0.0
C255 C 0.28804 0.22554 0.88326 0.0
N256 N 0.24006 0.25346 0.05429 0.0
N257 N 0.26122 0.23704 0.91481 0.0
H258 H 0.12031 0.30855 0.22434 0.0
H259 H 0.85769 0.2349 0.32372 0.0
H260 H 0.04734 0.38554 0.17808 0.0
H261 H 0.96946 0.25344 0.43343 0.0
H262 H 0.91511 0.25761 0.25034 0.0
H263 H 0.05228 0.25706 0.28258 0.0
C264 C 0.08993 0.31442 0.22631 0.0
C265 C 0.08996 0.3523 0.19818 0.0
C266 C 0.92644 0.25511 0.29034 0.0
C267 C 0.01171 0.29225 0.26134 0.0
C268 C 0.89381 0.24202 0.33196 0.0
C269 C 0.90929 0.24247 0.38414 0.0
C270 C 0.97427 0.2678 0.30145 0.0
C271 C 0.95658 0.25274 0.39337 0.0
C272 C 0.05114 0.28479 0.25885 0.0
C273 C 0.049 0.35729 0.20013 0.0
N274 N 0.98778 0.26537 0.35223 0.0
N275 N 0.0114 0.32763 0.23152 0.0
H276 H 0.78899 0.12168 0.61836 0.0
H277 H 0.65689 0.8357 0.62458 0.0
H278 H 0.74546 0.03434 0.47681 0.0
H279 H 0.72529 0.92468 0.7618 0.0
H280 H 0.69241 0.90789 0.56895 0.0
H281 H 0.7684 0.0499 0.67126 0.0
C282 C 0.77535 0.0875 0.59834 0.0
C283 C 0.7686 0.084 0.5431 0.0
C284 C 0.70011 0.91152 0.61115 0.0
C285 C 0.74488 0.00169 0.60341 0.0
C286 C 0.67984 0.87028 0.64296 0.0
C287 C 0.6876 0.87412 0.69807 0.0
C288 C 0.72793 0.95691 0.63472 0.0
C289 C 0.71797 0.91992 0.71957 0.0
C290 C 0.76376 0.04654 0.62856 0.0
C291 C 0.7511 0.03877 0.51931 0.0
N292 N 0.73652 0.95956 0.68794 0.0
N293 N 0.73944 -0.00067 0.54966 0.0
H294 H 0.71784 0.78312 0.87535 0.0
H295 H 0.76237 0.72837 0.13572 0.0
H296 H 0.61302 0.63156 0.87259 0.0
H297 H 0.61924 0.60601 0.11954 0.0
H298 H 0.75751 0.75182 0.04399 0.0
H299 H 0.73388 0.77537 0.96935 0.0
C300 C 0.69883 0.74817 0.89445 0.0
C301 C 0.66341 0.70821 0.8668 0.0
C302 C 0.7267 0.7206 0.06087 0.0
C303 C 0.68171 0.69869 0.97321 0.0
C304 C 0.72952 0.7072 0.11314 0.0
C305 C 0.69152 0.66486 0.13457 0.0
C306 C 0.68542 0.6912 0.03045 0.0
C307 C 0.64954 0.63876 0.10433 0.0
C308 C 0.70817 0.74364 0.9479 0.0
C309 C 0.64035 0.66346 0.89256 0.0
N310 N 0.64799 0.65191 0.05347 0.0
N311 N 0.64937 0.66011 0.94452 0.0
H312 H 0.11023 0.81149 0.36502 0.0
H313 H 0.82574 0.66596 0.36826 0.0
H314 H 0.02743 0.75307 0.50841 0.0
H315 H 0.90957 0.74635 0.2323 0.0
H316 H 0.89818 0.70622 0.42329 0.0
H317 H 0.03712 0.79691 0.31868 0.0
C318 C 0.07675 0.79613 0.38695 0.0
C319 C 0.07475 0.78269 0.44041 0.0
C320 C 0.90055 0.71563 0.38159 0.0
C321 C 0.99075 0.76542 0.38745 0.0
C322 C 0.85917 0.69256 0.35009 0.0
C323 C 0.86178 0.70193 0.29531 0.0
C324 C 0.94486 0.7479 0.35798 0.0
C325 C 0.90593 0.73737 0.27418 0.0
C326 C 0.03498 0.78792 0.36049 0.0
C327 C 0.03053 0.76354 0.46702 0.0
N328 N 0.9459 0.75845 0.30537 0.0
N329 N 0.99006 0.75468 0.43999 0.0
H330 H 0.32798 0.12493 0.73077 0.0
H331 H 0.24954 0.85786 0.64629 0.0
H332 H 0.40295 0.0512 0.78192 0.0
H333 H 0.24588 0.95738 0.5325 0.0
H334 H 0.28426 0.9222 0.7119 0.0
H335 H 0.27805 0.05733 0.67124 0.0
C336 C 0.33391 0.09462 0.72939 0.0
C337 C 0.37009 0.09385 0.76036 0.0
C338 C 0.27529 0.9297 0.67273 0.0
C339 C 0.31235 0.01641 0.69481 0.0
C340 C 0.25541 0.89312 0.63535 0.0
C341 C 0.24579 0.90278 0.5837 0.0
C342 C 0.28488 0.97595 0.65856 0.0
C343 C 0.25349 0.94886 0.5718 0.0
C344 C 0.30538 0.05618 0.69579 0.0
C345 C 0.37572 0.05334 0.75824 0.0
N346 N 0.273 0.98411 0.60903 0.0
N347 N 0.34698 0.01606 0.72611 0.0
H348 H 0.22161 0.38317 0.81416 0.0
H349 H 0.24077 0.47514 0.51362 0.0
H350 H 0.24445 0.5236 0.77131 0.0
H351 H 0.22865 0.33898 0.55632 0.0
H352 H 0.2406 0.49278 0.60783 0.0
H353 H 0.22388 0.36614 0.72011 0.0
C354 C 0.2275 0.41061 0.78508 0.0
C355 C 0.23274 0.4549 0.80088 0.0
C356 C 0.23803 0.45905 0.59664 0.0
C357 C 0.23467 0.43528 0.6928 0.0
C358 C 0.23779 0.4488 0.54278 0.0
C359 C 0.23465 0.40545 0.5269 0.0
C360 C 0.23491 0.42567 0.63513 0.0
C361 C 0.23168 0.37308 0.56664 0.0
C362 C 0.22848 0.40072 0.73129 0.0
C363 C 0.23947 0.48869 0.76113 0.0
N364 N 0.23177 0.38379 0.61882 0.0
N365 N 0.24015 0.47815 0.70905 0.0
H366 H 0.69471 0.12204 0.06395 0.0
H367 H 0.87976 0.2838 0.83691 0.0
H368 H 0.84154 0.23292 0.09468 0.0
H369 H 0.72874 0.18498 0.8075 0.0
H370 H 0.86696 0.26332 0.93111 0.0
H371 H 0.70714 0.14188 0.96928 0.0
C372 C 0.72961 0.15045 0.05073 0.0
C373 C 0.76714 0.17591 0.08723 0.0
C374 C 0.83658 0.24612 0.90409 0.0
C375 C 0.78155 0.19895 0.9791 0.0
C376 C 0.84381 0.25799 0.85029 0.0
C377 C 0.80522 0.23625 0.81419 0.0
C378 C 0.79043 0.21211 0.9221 0.0
C379 C 0.75965 0.20227 0.83376 0.0
C380 C 0.73661 0.16192 0.99675 0.0
C381 C 0.81143 0.21278 0.06801 0.0
N382 N 0.75352 0.19128 0.88639 0.0
N383 N 0.81743 0.2231 0.01527 0.0
H384 H 0.64196 0.79167 0.44831 0.0
H385 H 0.55744 0.70852 0.14813 0.0
H386 H 0.51724 0.65594 0.40664 0.0
H387 H 0.68142 0.84471 0.19012 0.0
H388 H 0.54368 0.68747 0.24236 0.0
H389 H 0.65748 0.81125 0.35394 0.0
C390 C 0.61762 0.76606 0.41939 0.0
C391 C 0.57815 0.72205 0.43569 0.0
C392 C 0.57395 0.72194 0.23097 0.0
C393 C 0.59617 0.74407 0.32714 0.0
C394 C 0.58208 0.73387 0.17704 0.0
C395 C 0.6206 0.77861 0.16092 0.0
C396 C 0.60454 0.75491 0.2693 0.0
C397 C 0.65081 0.81017 0.20053 0.0
C398 C 0.62673 0.77715 0.36541 0.0
C399 C 0.54844 0.69001 0.39612 0.0
N400 N 0.64209 0.79777 0.25273 0.0
N401 N 0.55802 0.70167 0.34383 0.0
H402 H 0.71554 0.65057 0.82975 0.0
H403 H 0.7718 0.55878 0.55836 0.0
H404 H 0.82068 0.60463 0.8154 0.0
H405 H 0.66374 0.60103 0.57094 0.0
H406 H 0.79042 0.57634 0.6525 0.0
H407 H 0.69548 0.6326 0.7355 0.0
C408 C 0.73425 0.63651 0.80694 0.0
C409 C 0.77006 0.62935 0.83068 0.0
C410 C 0.7626 0.58178 0.63475 0.0
C411 C 0.74753 0.60905 0.72251 0.0
C412 C 0.75214 0.57203 0.58079 0.0
C413 C 0.71617 0.57848 0.55643 0.0
C414 C 0.73703 0.59825 0.66493 0.0
C415 C 0.69137 0.59496 0.58802 0.0
C416 C 0.72295 0.62648 0.75301 0.0
C417 C 0.79345 0.61156 0.79879 0.0
N418 N 0.7023 0.60433 0.64052 0.0
N419 N 0.78182 0.60209 0.74655 0.0
H420 H 0.11328 0.78575 0.90232 0.0
H421 H 0.26964 0.75802 0.1353 0.0
H422 H 0.21254 0.73375 0.87737 0.0
H423 H 0.17278 0.81313 0.15896 0.0
H424 H 0.24859 0.74795 0.04093 0.0
H425 H 0.13338 0.79432 0.99684 0.0
C426 C 0.13909 0.77583 0.91676 0.0
C427 C 0.16121 0.75896 0.88178 0.0
C428 C 0.2319 0.76221 0.06677 0.0
C429 C 0.18482 0.76919 0.99006 0.0
C430 C 0.2441 0.76821 0.12064 0.0
C431 C 0.223 0.78651 0.15519 0.0
C432 C 0.19836 0.77463 0.04717 0.0
C433 C 0.18951 0.79833 0.13402 0.0
C434 C 0.15077 0.78101 0.97073 0.0
C435 C 0.19501 0.74745 0.90271 0.0
N436 N 0.17832 0.79226 0.08143 0.0
N437 N 0.20574 0.75273 0.95544 0.0
H438 H 0.43463 0.31402 0.42891 0.0
H439 H 0.44683 0.15174 0.19592 0.0
H440 H 0.40998 0.17001 0.45226 0.0
H441 H 0.47419 0.29657 0.17141 0.0
H442 H 0.43264 0.15789 0.2898 0.0
H443 H 0.44798 0.30817 0.33442 0.0
C444 C 0.43178 0.28106 0.41418 0.0
C445 C 0.42115 0.24244 0.44875 0.0
C446 C 0.44174 0.18838 0.26396 0.0
C447 C 0.43685 0.23569 0.3405 0.0
C448 C 0.45014 0.18499 0.21031 0.0
C449 C 0.46202 0.2238 0.17561 0.0
C450 C 0.44516 0.23089 0.2834 0.0
C451 C 0.46473 0.26558 0.19651 0.0
C452 C 0.43967 0.27786 0.36023 0.0
C453 C 0.41869 0.20095 0.42738 0.0
N454 N 0.45649 0.26806 0.24903 0.0
N455 N 0.42642 0.19868 0.37474 0.0
H456 H 0.22025 0.49197 0.33834 0.0
H457 H 0.16158 0.70338 0.38653 0.0
H458 H 0.20122 0.57075 0.20958 0.0
H459 H 0.17309 0.61628 0.51075 0.0
H460 H 0.17785 0.6575 0.32053 0.0
H461 H 0.20583 0.53995 0.40147 0.0
C462 C 0.21299 0.51939 0.32322 0.0
C463 C 0.21147 0.52696 0.26844 0.0
C464 C 0.17667 0.64837 0.3622 0.0
C465 C 0.19498 0.58253 0.34107 0.0
C466 C 0.16739 0.67448 0.39979 0.0
C467 C 0.16622 0.66357 0.45401 0.0
C468 C 0.18466 0.61112 0.3792 0.0
C469 C 0.17369 0.62577 0.46929 0.0
C470 C 0.20479 0.54692 0.35946 0.0
C471 C 0.20266 0.56366 0.25146 0.0
N472 N 0.18268 0.60098 0.43207 0.0
N473 N 0.19453 0.59003 0.28772 0.0
H474 H 0.64833 0.11104 0.54716 0.0
H475 H 0.5387 0.2654 0.65213 0.0
H476 H 0.70518 0.25894 0.49894 0.0
H477 H 0.55778 0.17122 0.76033 0.0
H478 H 0.58901 0.2549 0.5872 0.0
H479 H 0.60336 0.12335 0.61862 0.0
C480 C 0.651 0.14586 0.55152 0.0
C481 C 0.67994 0.18399 0.51727 0.0
C482 C 0.58251 0.2369 0.62536 0.0
C483 C 0.6291 0.198 0.59749 0.0
C484 C 0.55391 0.24283 0.66228 0.0
C485 C 0.5446 0.21938 0.71155 0.0
C486 C 0.60078 0.20631 0.63732 0.0
C487 C 0.5648 0.1903 0.72285 0.0
C488 C 0.62588 0.15295 0.59232 0.0
C489 C 0.68301 0.22867 0.52461 0.0
N490 N 0.5916 0.18397 0.68554 0.0
N491 N 0.6574 0.23433 0.5636 0.0
H492 H 0.34768 0.43296 0.07285 0.0
H493 H 0.52519 0.69605 0.96954 0.0
H494 H 0.34848 0.55882 0.13304 0.0
H495 H 0.46595 0.57862 0.85763 0.0
H496 H 0.47188 0.64237 0.03732 0.0
H497 H 0.40115 0.48231 1.00002 0.0
C498 C 0.35961 0.47104 0.07096 0.0
C499 C 0.34438 0.49229 0.10901 0.0
C500 C 0.47046 0.62824 0.99798 0.0
C501 C 0.40488 0.54817 0.02695 0.0
C502 C 0.50118 0.65876 0.95915 0.0
C503 C 0.50013 0.6418 0.90762 0.0
C504 C 0.43853 0.57999 0.98582 0.0
C505 C 0.46769 0.59313 0.89677 0.0
C506 C 0.3895 0.49886 0.02931 0.0
C507 C 0.35982 0.54135 0.10458 0.0
N508 N 0.43813 0.5636 0.93583 0.0
N509 N 0.38961 0.56776 0.06456 0.0
H510 H 0.86083 0.38758 0.41197 0.0
H511 H 0.72248 0.46382 0.20903 0.0
H512 H 0.76049 0.28728 0.29764 0.0
H513 H 0.86943 0.56398 0.25391 0.0
H514 H 0.72982 0.3987 0.2513 0.0
H515 H 0.85976 0.45359 0.36338 0.0
C516 C 0.83885 0.37952 0.37646 0.0
C517 C 0.81058 0.33195 0.35883 0.0
C518 C 0.76047 0.43492 0.25167 0.0
C519 C 0.80851 0.40688 0.30405 0.0
C520 C 0.75623 0.47205 0.22794 0.0
C521 C 0.79549 0.51914 0.22806 0.0
C522 C 0.80386 0.44526 0.27672 0.0
C523 C 0.83846 0.528 0.25291 0.0
C524 C 0.83839 0.41714 0.34878 0.0
C525 C 0.78291 0.32347 0.31248 0.0
N526 N 0.84141 0.49139 0.27682 0.0
N527 N 0.78199 0.36054 0.28709 0.0
H528 H 0.36801 0.82502 0.54308 0.0
H529 H 0.45479 0.70961 0.76722 0.0
H530 H 0.27005 0.72294 0.65774 0.0
H531 H 0.54337 0.85824 0.7205 0.0
H532 H 0.38932 0.70434 0.71151 0.0
H533 H 0.43592 0.828 0.59269 0.0
C534 C 0.36082 0.80283 0.57825 0.0
C535 C 0.31352 0.77374 0.59654 0.0
C536 C 0.42315 0.73803 0.71341 0.0
C537 C 0.39039 0.77663 0.65255 0.0
C538 C 0.46045 0.74106 0.74499 0.0
C539 C 0.50417 0.78457 0.74865 0.0
C540 C 0.43009 0.77849 0.68445 0.0
C541 C 0.50987 0.82423 0.71901 0.0
C542 C 0.39946 0.80483 0.60659 0.0
C543 C 0.30606 0.746 0.64253 0.0
N544 N 0.47319 0.82023 0.68778 0.0
N545 N 0.3441 0.7479 0.66884 0.0
H546 H 0.57633 0.46308 0.13504 0.0
H547 H 0.56707 0.34222 0.85967 0.0
H548 H 0.69369 0.52562 0.02297 0.0
H549 H 0.4417 0.34746 0.91127 0.0
H550 H 0.61329 0.39533 0.93303 0.0
H551 H 0.52469 0.40642 0.06537 0.0
C552 C 0.59116 0.46483 0.09603 0.0
C553 C 0.63921 0.4991 0.08464 0.0
C554 C 0.57564 0.3848 0.92825 0.0
C555 C 0.58131 0.43458 1.00619 0.0
C556 C 0.54937 0.35463 0.88656 0.0
C557 C 0.50091 0.34125 0.87925 0.0
C558 C 0.55299 0.40076 0.96355 0.0
C559 C 0.47934 0.35782 0.91534 0.0
C560 C 0.56176 0.43283 0.05647 0.0
C561 C 0.65677 0.50005 0.03345 0.0
N562 N 0.50554 0.38669 0.95641 0.0
N563 N 0.628 0.468 0.99637 0.0
loop_
_geom_bond_atom_site_label_1
_geom_bond_atom_site_label_2
_geom_bond_distance
_geom_bond_site_symmetry_2
_ccdc_geom_bond_type
Sm0 C2 2.846 . S
Sm0 O20 2.543 . S
Sm0 O21 2.450 . S
Sm0 O22 2.681 . S
Sm0 O23 2.464 . S
Sm0 O24 2.396 . S
Sm0 O28 2.386 . S
Sm0 O31 2.408 . S
Sm1 C11 2.846 . S
Sm1 O22 2.386 . S
Sm1 O25 2.408 . S
Sm1 O26 2.543 . S
Sm1 O27 2.450 . S
Sm1 O28 2.681 . S
Sm1 O29 2.464 . S
Sm1 O30 2.396 . S
C2 Sm0 2.846 . S
C2 C3 1.528 . S
C2 O20 1.261 . S
C2 O21 1.242 . S
C3 C2 1.528 . S
C3 C4 1.345 1_554 S
C3 C8 1.373 1_554 S
C4 C3 1.345 1_556 S
C4 C5 1.385 . S
C4 H32 0.930 . S
C5 C4 1.385 . S
C5 C6 1.395 . S
C5 H33 0.929 . S
C6 C5 1.395 . S
C6 C7 1.335 . S
C7 C6 1.335 . S
C7 C8 1.398 . S
C7 H34 0.930 . S
C8 C3 1.373 1_556 S
C8 C7 1.398 . S
C8 H35 0.922 1_556 S
C9 O22 1.271 . S
C9 O23 1.251 . S
C10 O24 1.252 . S
C10 O25 1.272 . S
C11 Sm1 2.846 . S
C11 C12 1.506 . S
C11 O26 1.261 . S
C11 O27 1.242 . S
C12 C11 1.506 . S
C12 C13 1.358 . S
C12 C17 1.382 . S
C13 C12 1.358 . S
C13 C14 1.385 . S
C13 H36 0.930 . S
C14 C13 1.385 . S
C14 C15 1.395 . S
C14 H37 0.929 . S
C15 C14 1.395 . S
C15 C16 1.335 . S
C16 C15 1.335 . S
C16 C17 1.398 . S
C16 H38 0.930 . S
C17 C12 1.382 . S
C17 C16 1.398 . S
C17 H39 0.929 . S
C18 O28 1.271 . S
C18 O29 1.251 . S
C19 O30 1.252 . S
C19 O31 1.272 . S
O20 Sm0 2.543 . S
O20 C2 1.261 . S
O21 Sm0 2.450 . S
O21 C2 1.242 . S
O22 Sm0 2.681 . S
O22 Sm1 2.386 . S
O22 C9 1.271 . S
O23 Sm0 2.464 . S
O23 C9 1.251 . S
O24 Sm0 2.396 . S
O24 C10 1.252 . S
O25 Sm1 2.408 . S
O25 C10 1.272 . S
O26 Sm1 2.543 . S
O26 C11 1.261 . S
O27 Sm1 2.450 . S
O27 C11 1.242 . S
O28 Sm0 2.386 . S
O28 Sm1 2.681 . S
O28 C18 1.271 . S
O29 Sm1 2.464 . S
O29 C18 1.251 . S
O30 Sm1 2.396 . S
O30 C19 1.252 . S
O31 Sm0 2.408 . S
O31 C19 1.272 . S
H32 C4 0.930 . S
H33 C5 0.929 . S
H34 C7 0.930 . S
H35 C8 0.922 1_554 S
H36 C13 0.930 . S
H37 C14 0.929 . S
H38 C16 0.930 . S
H39 C17 0.929 . S
Sm40 C42 2.846 . S
Sm40 O60 2.543 . S
Sm40 O61 2.450 . S
Sm40 O62 2.681 . S
Sm40 O63 2.464 . S
Sm40 O64 2.396 . S
Sm40 O68 2.386 . S
Sm40 O71 2.408 . S
Sm41 C51 2.846 . S
Sm41 O62 2.386 . S
Sm41 O65 2.408 . S
Sm41 O66 2.543 . S
Sm41 O67 2.450 . S
Sm41 O68 2.681 . S
Sm41 O69 2.464 . S
Sm41 O70 2.396 . S
C42 Sm40 2.846 . S
C42 C43 1.506 . S
C42 O60 1.261 . S
C42 O61 1.242 . S
C43 C42 1.506 . S
C43 C44 1.358 . S
C43 C48 1.382 . S
C44 C43 1.358 . S
C44 C45 1.385 . S
C44 H72 0.930 . S
C45 C44 1.385 . S
C45 C46 1.395 . S
C45 H73 0.929 . S
C46 C45 1.395 . S
C46 C47 1.335 . S
C47 C46 1.335 . S
C47 C48 1.398 . S
C47 H74 0.930 . S
C48 C43 1.382 . S
C48 C47 1.398 . S
C48 H75 0.929 . S
C49 O62 1.271 . S
C49 O63 1.251 . S
C50 O64 1.252 . S
C50 O65 1.272 . S
C51 Sm41 2.846 . S
C51 C52 1.506 . S
C51 O66 1.261 . S
C51 O67 1.242 . S
C52 C51 1.506 . S
C52 C53 1.358 . S
C52 C57 1.382 . S
C53 C52 1.358 . S
C53 C54 1.385 . S
C53 H76 0.930 . S
C54 C53 1.385 . S
C54 C55 1.395 . S
C54 H77 0.929 . S
C55 C54 1.395 . S
C55 C56 1.335 . S
C56 C55 1.335 . S
C56 C57 1.398 . S
C56 H78 0.930 . S
C57 C52 1.382 . S
C57 C56 1.398 . S
C57 H79 0.929 . S
C58 O68 1.271 . S
C58 O69 1.251 . S
C59 O70 1.252 . S
C59 O71 1.272 . S
O60 Sm40 2.543 . S
O60 C42 1.261 . S
O61 Sm40 2.450 . S
O61 C42 1.242 . S
O62 Sm40 2.681 . S
O62 Sm41 2.386 . S
O62 C49 1.271 . S
O63 Sm40 2.464 . S
O63 C49 1.251 . S
O64 Sm40 2.396 . S
O64 C50 1.252 . S
O65 Sm41 2.408 . S
O65 C50 1.272 . S
O66 Sm41 2.543 . S
O66 C51 1.261 . S
O67 Sm41 2.450 . S
O67 C51 1.242 . S
O68 Sm40 2.386 . S
O68 Sm41 2.681 . S
O68 C58 1.271 . S
O69 Sm41 2.464 . S
O69 C58 1.251 . S
O70 Sm41 2.396 . S
O70 C59 1.252 . S
O71 Sm40 2.408 . S
O71 C59 1.272 . S
H72 C44 0.930 . S
H73 C45 0.929 . S
H74 C47 0.930 . S
H75 C48 0.929 . S
H76 C53 0.930 . S
H77 C54 0.929 . S
H78 C56 0.930 . S
H79 C57 0.929 . S
Sm80 C82 2.846 . S
Sm80 O100 2.543 . S
Sm80 O101 2.450 . S
Sm80 O102 2.681 . S
Sm80 O103 2.464 . S
Sm80 O104 2.396 . S
Sm80 O108 2.386 . S
Sm80 O111 2.408 . S
Sm81 C91 2.846 1_556 S
Sm81 O102 2.386 . S
Sm81 O105 2.408 . S
Sm81 O106 2.543 1_556 S
Sm81 O107 2.450 1_556 S
Sm81 O108 2.681 . S
Sm81 O109 2.464 . S
Sm81 O110 2.396 . S
C82 Sm80 2.846 . S
C82 C83 1.506 . S
C82 O100 1.261 . S
C82 O101 1.242 . S
C83 C82 1.506 . S
C83 C84 1.358 . S
C83 C88 1.382 . S
C84 C83 1.358 . S
C84 C85 1.385 . S
C84 H112 0.930 . S
C85 C84 1.385 . S
C85 C86 1.395 . S
C85 H113 0.929 . S
C86 C85 1.395 . S
C86 C87 1.335 . S
C87 C86 1.335 . S
C87 C88 1.398 . S
C87 H114 0.930 . S
C88 C83 1.382 . S
C88 C87 1.398 . S
C88 H115 0.929 . S
C89 O102 1.271 . S
C89 O103 1.251 . S
C90 O104 1.252 . S
C90 O105 1.272 . S
C91 Sm81 2.846 1_554 S
C91 C92 1.506 . S
C91 O106 1.261 . S
C91 O107 1.242 . S
C92 C91 1.506 . S
C92 C93 1.358 . S
C92 C97 1.382 . S
C93 C92 1.358 . S
C93 C94 1.385 . S
C93 H116 0.930 . S
C94 C93 1.385 . S
C94 C95 1.395 . S
C94 H117 0.929 . S
C95 C94 1.395 . S
C95 C96 1.335 . S
C96 C95 1.335 . S
C96 C97 1.398 . S
C96 H118 0.930 . S
C97 C92 1.382 . S
C97 C96 1.398 . S
C97 H119 0.929 . S
C98 O108 1.271 . S
C98 O109 1.251 . S
C99 O110 1.252 . S
C99 O111 1.272 . S
O100 Sm80 2.543 . S
O100 C82 1.261 . S
O101 Sm80 2.450 . S
O101 C82 1.242 . S
O102 Sm80 2.681 . S
O102 Sm81 2.386 . S
O102 C89 1.271 . S
O103 Sm80 2.464 . S
O103 C89 1.251 . S
O104 Sm80 2.396 . S
O104 C90 1.252 . S
O105 Sm81 2.408 . S
O105 C90 1.272 . S
O106 Sm81 2.543 1_554 S
O106 C91 1.261 . S
O107 Sm81 2.450 1_554 S
O107 C91 1.242 . S
O108 Sm80 2.386 . S
O108 Sm81 2.681 . S
O108 C98 1.271 . S
O109 Sm81 2.464 . S
O109 C98 1.251 . S
O110 Sm81 2.396 . S
O110 C99 1.252 . S
O111 Sm80 2.408 . S
O111 C99 1.272 . S
H112 C84 0.930 . S
H113 C85 0.929 . S
H114 C87 0.930 . S
H115 C88 0.929 . S
H116 C93 0.930 . S
H117 C94 0.929 . S
H118 C96 0.930 . S
H119 C97 0.929 . S
Sm120 C122 2.846 . S
Sm120 O140 2.543 . S
Sm120 O141 2.450 . S
Sm120 O142 2.681 . S
Sm120 O143 2.464 . S
Sm120 O144 2.396 . S
Sm120 O148 2.386 . S
Sm120 O151 2.408 . S
Sm121 C131 2.846 1_554 S
Sm121 O142 2.386 . S
Sm121 O145 2.408 . S
Sm121 O146 2.543 1_554 S
Sm121 O147 2.450 1_554 S
Sm121 O148 2.681 . S
Sm121 O149 2.464 . S
Sm121 O150 2.396 1_554 S
C122 Sm120 2.846 . S
C122 C123 1.506 . S
C122 O140 1.261 . S
C122 O141 1.242 . S
C123 C122 1.506 . S
C123 C124 1.358 . S
C123 C128 1.382 . S
C124 C123 1.358 . S
C124 C125 1.385 . S
C124 H152 0.930 . S
C125 C124 1.385 . S
C125 C126 1.395 . S
C125 H153 0.929 . S
C126 C125 1.395 . S
C126 C127 1.335 . S
C127 C126 1.335 . S
C127 C128 1.398 . S
C127 H154 0.930 . S
C128 C123 1.382 . S
C128 C127 1.398 . S
C128 H155 0.929 . S
C129 O142 1.271 . S
C129 O143 1.251 . S
C130 O144 1.252 . S
C130 O145 1.272 . S
C131 Sm121 2.846 1_556 S
C131 C132 1.506 . S
C131 O146 1.261 . S
C131 O147 1.242 . S
C132 C131 1.506 . S
C132 C133 1.358 . S
C132 C137 1.382 . S
C133 C132 1.358 . S
C133 C134 1.385 . S
C133 H156 0.930 . S
C134 C133 1.385 . S
C134 C135 1.395 . S
C134 H157 0.929 . S
C135 C134 1.395 . S
C135 C136 1.335 . S
C136 C135 1.335 . S
C136 C137 1.398 . S
C136 H158 0.930 . S
C137 C132 1.382 . S
C137 C136 1.398 . S
C137 H159 0.929 . S
C138 O148 1.271 . S
C138 O149 1.251 . S
C139 O150 1.256 . S
C139 O151 1.255 1_556 S
O140 Sm120 2.543 . S
O140 C122 1.261 . S
O141 Sm120 2.450 . S
O141 C122 1.242 . S
O142 Sm120 2.681 . S
O142 Sm121 2.386 . S
O142 C129 1.271 . S
O143 Sm120 2.464 . S
O143 C129 1.251 . S
O144 Sm120 2.396 . S
O144 C130 1.252 . S
O145 Sm121 2.408 . S
O145 C130 1.272 . S
O146 Sm121 2.543 1_556 S
O146 C131 1.261 . S
O147 Sm121 2.450 1_556 S
O147 C131 1.242 . S
O148 Sm120 2.386 . S
O148 Sm121 2.681 . S
O148 C138 1.271 . S
O149 Sm121 2.464 . S
O149 C138 1.251 . S
O150 Sm121 2.396 1_556 S
O150 C139 1.256 . S
O151 Sm120 2.408 . S
O151 C139 1.255 1_554 S
H152 C124 0.930 . S
H153 C125 0.929 . S
H154 C127 0.930 . S
H155 C128 0.929 . S
H156 C133 0.930 . S
H157 C134 0.929 . S
H158 C136 0.930 . S
H159 C137 0.929 . S
Sm160 C162 2.846 . S
Sm160 O180 2.543 . S
Sm160 O181 2.450 . S
Sm160 O182 2.681 . S
Sm160 O183 2.464 . S
Sm160 O184 2.396 . S
Sm160 O188 2.386 . S
Sm160 O191 2.408 . S
Sm161 C171 2.846 . S
Sm161 O182 2.386 . S
Sm161 O185 2.408 . S
Sm161 O186 2.543 . S
Sm161 O187 2.450 . S
Sm161 O188 2.681 . S
Sm161 O189 2.464 . S
Sm161 O190 2.396 . S
C162 Sm160 2.846 . S
C162 C163 1.506 . S
C162 O180 1.261 . S
C162 O181 1.242 . S
C163 C162 1.506 . S
C163 C164 1.358 . S
C163 C168 1.382 . S
C164 C163 1.358 . S
C164 C165 1.385 . S
C164 H192 0.930 . S
C165 C164 1.385 . S
C165 C166 1.395 . S
C165 H193 0.929 . S
C166 C165 1.395 . S
C166 C167 1.335 . S
C167 C166 1.335 . S
C167 C168 1.398 . S
C167 H194 0.930 . S
C168 C163 1.382 . S
C168 C167 1.398 . S
C168 H195 0.929 . S
C169 O182 1.271 . S
C169 O183 1.251 . S
C170 O184 1.252 . S
C170 O185 1.272 . S
C171 Sm161 2.846 . S
C171 C172 1.506 . S
C171 O186 1.261 . S
C171 O187 1.242 . S
C172 C171 1.506 . S
C172 C173 1.358 . S
C172 C177 1.382 . S
C173 C172 1.358 . S
C173 C174 1.385 . S
C173 H196 0.930 . S
C174 C173 1.385 . S
C174 C175 1.395 . S
C174 H197 0.929 . S
C175 C174 1.395 . S
C175 C176 1.335 . S
C176 C175 1.335 . S
C176 C177 1.398 . S
C176 H198 0.930 . S
C177 C172 1.382 . S
C177 C176 1.398 . S
C177 H199 0.929 . S
C178 O188 1.271 . S
C178 O189 1.251 . S
C179 O190 1.252 . S
C179 O191 1.272 . S
O180 Sm160 2.543 . S
O180 C162 1.261 . S
O181 Sm160 2.450 . S
O181 C162 1.242 . S
O182 Sm160 2.681 . S
O182 Sm161 2.386 . S
O182 C169 1.271 . S
O183 Sm160 2.464 . S
O183 C169 1.251 . S
O184 Sm160 2.396 . S
O184 C170 1.252 . S
O185 Sm161 2.408 . S
O185 C170 1.272 . S
O186 Sm161 2.543 . S
O186 C171 1.261 . S
O187 Sm161 2.450 . S
O187 C171 1.242 . S
O188 Sm160 2.386 . S
O188 Sm161 2.681 . S
O188 C178 1.271 . S
O189 Sm161 2.464 . S
O189 C178 1.251 . S
O190 Sm161 2.396 . S
O190 C179 1.252 . S
O191 Sm160 2.408 . S
O191 C179 1.272 . S
H192 C164 0.930 . S
H193 C165 0.929 . S
H194 C167 0.930 . S
H195 C168 0.929 . S
H196 C173 0.930 . S
H197 C174 0.929 . S
H198 C176 0.930 . S
H199 C177 0.929 . S
Sm200 C202 2.846 . S
Sm200 O220 2.543 . S
Sm200 O221 2.450 . S
Sm200 O222 2.681 . S
Sm200 O223 2.464 . S
Sm200 O224 2.396 . S
Sm200 O228 2.386 . S
Sm200 O231 2.408 . S
Sm201 C211 2.846 . S
Sm201 O222 2.386 . S
Sm201 O225 2.408 . S
Sm201 O226 2.543 . S
Sm201 O227 2.450 . S
Sm201 O228 2.681 . S
Sm201 O229 2.464 . S
Sm201 O230 2.396 . S
C202 Sm200 2.846 . S
C202 C203 1.506 . S
C202 O220 1.261 . S
C202 O221 1.242 . S
C203 C202 1.506 . S
C203 C204 1.358 . S
C203 C208 1.382 . S
C204 C203 1.358 . S
C204 C205 1.385 1_556 S
C204 H232 0.930 . S
C205 C204 1.385 1_554 S
C205 C206 1.395 . S
C205 H233 0.929 . S
C206 C205 1.395 . S
C206 C207 1.335 . S
C207 C206 1.335 . S
C207 C208 1.398 1_554 S
C207 H234 0.930 . S
C208 C203 1.382 . S
C208 C207 1.398 1_556 S
C208 H235 0.929 . S
C209 O222 1.271 . S
C209 O223 1.251 . S
C210 O224 1.252 . S
C210 O225 1.272 . S
C211 Sm201 2.846 . S
C211 C212 1.506 . S
C211 O226 1.261 . S
C211 O227 1.242 . S
C212 C211 1.506 . S
C212 C213 1.358 . S
C212 C217 1.382 . S
C213 C212 1.358 . S
C213 C214 1.385 . S
C213 H236 0.930 . S
C214 C213 1.385 . S
C214 C215 1.395 . S
C214 H237 0.929 . S
C215 C214 1.395 . S
C215 C216 1.335 . S
C216 C215 1.335 . S
C216 C217 1.398 . S
C216 H238 0.930 . S
C217 C212 1.382 . S
C217 C216 1.398 . S
C217 H239 0.929 . S
C218 O228 1.271 . S
C218 O229 1.251 . S
C219 O230 1.252 . S
C219 O231 1.272 . S
O220 Sm200 2.543 . S
O220 C202 1.261 . S
O221 Sm200 2.450 . S
O221 C202 1.242 . S
O222 Sm200 2.681 . S
O222 Sm201 2.386 . S
O222 C209 1.271 . S
O223 Sm200 2.464 . S
O223 C209 1.251 . S
O224 Sm200 2.396 . S
O224 C210 1.252 . S
O225 Sm201 2.408 . S
O225 C210 1.272 . S
O226 Sm201 2.543 . S
O226 C211 1.261 . S
O227 Sm201 2.450 . S
O227 C211 1.242 . S
O228 Sm200 2.386 . S
O228 Sm201 2.681 . S
O228 C218 1.271 . S
O229 Sm201 2.464 . S
O229 C218 1.251 . S
O230 Sm201 2.396 . S
O230 C219 1.252 . S
O231 Sm200 2.408 . S
O231 C219 1.272 . S
H232 C204 0.930 . S
H233 C205 0.929 . S
H234 C207 0.930 . S
H235 C208 0.929 . S
H236 C213 0.930 . S
H237 C214 0.929 . S
H238 C216 0.930 . S
H239 C217 0.929 . S
H240 C246 0.930 . S
H241 C250 0.930 . S
H242 C255 0.929 . S
H243 C253 0.929 . S
H244 C248 0.929 1_556 S
H245 C254 0.929 . S
C246 H240 0.930 . S
C246 C247 1.367 . S
C246 C254 1.378 . S
C247 C246 1.367 . S
C247 C255 1.433 . S
C248 H244 0.929 1_554 S
C248 C250 1.378 . S
C248 C252 1.350 . S
C249 C252 1.463 1_556 S
C249 C254 1.350 . S
C249 N257 1.427 . S
C250 H241 0.930 . S
C250 C248 1.378 . S
C250 C251 1.367 . S
C251 C250 1.367 . S
C251 C253 1.433 . S
C252 C248 1.350 . S
C252 C249 1.463 1_554 S
C252 N256 1.427 . S
C253 H243 0.929 . S
C253 C251 1.433 . S
C253 N256 1.384 . S
C254 H245 0.929 . S
C254 C246 1.378 . S
C254 C249 1.350 . S
C255 H242 0.929 . S
C255 C247 1.433 . S
C255 N257 1.384 . S
N256 C252 1.427 . S
N256 C253 1.384 . S
N257 C249 1.427 . S
N257 C255 1.384 . S
H258 C264 0.930 . S
H259 C268 0.930 . S
H260 C273 0.929 . S
H261 C271 0.929 . S
H262 C266 0.929 . S
H263 C272 0.929 . S
C264 H258 0.930 . S
C264 C265 1.367 . S
C264 C272 1.378 . S
C265 C264 1.367 . S
C265 C273 1.433 . S
C266 H262 0.929 . S
C266 C268 1.378 . S
C266 C270 1.350 . S
C267 C270 1.463 1_455 S
C267 C272 1.350 . S
C267 N275 1.427 . S
C268 H259 0.930 . S
C268 C266 1.378 . S
C268 C269 1.367 . S
C269 C268 1.367 . S
C269 C271 1.433 . S
C270 C266 1.350 . S
C270 C267 1.463 1_655 S
C270 N274 1.427 . S
C271 H261 0.929 . S
C271 C269 1.433 . S
C271 N274 1.384 . S
C272 H263 0.929 . S
C272 C264 1.378 . S
C272 C267 1.350 . S
C273 H260 0.929 . S
C273 C265 1.433 . S
C273 N275 1.384 . S
N274 C270 1.427 . S
N274 C271 1.384 . S
N275 C267 1.427 . S
N275 C273 1.384 . S
H276 C282 0.930 . S
H277 C286 0.930 . S
H278 C291 0.929 1_565 S
H279 C289 0.929 1_545 S
H280 C284 0.929 . S
H281 C290 0.929 . S
C282 H276 0.930 . S
C282 C283 1.367 . S
C282 C290 1.378 . S
C283 C282 1.367 . S
C283 C291 1.433 . S
C284 H280 0.929 . S
C284 C286 1.378 . S
C284 C288 1.350 . S
C285 C288 1.463 1_545 S
C285 C290 1.350 . S
C285 N293 1.427 1_545 S
C286 H277 0.930 . S
C286 C284 1.378 . S
C286 C287 1.367 . S
C287 C286 1.367 . S
C287 C289 1.433 . S
C288 C284 1.350 . S
C288 C285 1.463 1_565 S
C288 N292 1.427 1_565 S
C289 H279 0.929 1_565 S
C289 C287 1.433 . S
C289 N292 1.384 1_565 S
C290 H281 0.929 . S
C290 C282 1.378 . S
C290 C285 1.350 . S
C291 H278 0.929 1_545 S
C291 C283 1.433 . S
C291 N293 1.384 1_545 S
N292 C288 1.427 1_545 S
N292 C289 1.384 1_545 S
N293 C285 1.427 1_565 S
N293 C291 1.384 1_565 S
H294 C300 0.930 1_554 S
H295 C304 0.930 . S
H296 C309 0.929 . S
H297 C307 0.929 . S
H298 C302 0.929 . S
H299 C308 0.929 . S
C300 H294 0.930 1_556 S
C300 C301 1.367 . S
C300 C308 1.378 1_556 S
C301 C300 1.367 . S
C301 C309 1.433 . S
C302 H298 0.929 . S
C302 C304 1.378 . S
C302 C306 1.350 . S
C303 C306 1.463 . S
C303 C308 1.350 1_556 S
C303 N311 1.427 . S
C304 H295 0.930 . S
C304 C302 1.378 . S
C304 C305 1.367 1_556 S
C305 C304 1.367 1_554 S
C305 C307 1.433 . S
C306 C302 1.350 . S
C306 C303 1.463 . S
C306 N310 1.427 1_556 S
C307 H297 0.929 . S
C307 C305 1.433 . S
C307 N310 1.384 . S
C308 H299 0.929 . S
C308 C300 1.378 1_554 S
C308 C303 1.350 1_554 S
C309 H296 0.929 . S
C309 C301 1.433 . S
C309 N311 1.384 . S
N310 C306 1.427 1_554 S
N310 C307 1.384 . S
N311 C303 1.427 . S
N311 C309 1.384 . S
H312 C318 0.930 . S
H313 C322 0.930 . S
H314 C327 0.929 1_655 S
H315 C325 0.929 1_455 S
H316 C320 0.929 . S
H317 C326 0.929 . S
C318 H312 0.930 . S
C318 C319 1.367 . S
C318 C326 1.378 . S
C319 C318 1.367 . S
C319 C327 1.433 . S
C320 H316 0.929 . S
C320 C322 1.378 . S
C320 C324 1.350 . S
C321 C324 1.463 1_455 S
C321 C326 1.350 . S
C321 N329 1.427 1_455 S
C322 H313 0.930 . S
C322 C320 1.378 . S
C322 C323 1.367 . S
C323 C322 1.367 . S
C323 C325 1.433 . S
C324 C320 1.350 . S
C324 C321 1.463 1_655 S
C324 N328 1.427 1_655 S
C325 H315 0.929 1_655 S
C325 C323 1.433 . S
C325 N328 1.384 1_655 S
C326 H317 0.929 . S
C326 C318 1.378 . S
C326 C321 1.350 . S
C327 H314 0.929 1_455 S
C327 C319 1.433 . S
C327 N329 1.384 1_455 S
N328 C324 1.427 1_455 S
N328 C325 1.384 1_455 S
N329 C321 1.427 1_655 S
N329 C327 1.384 1_655 S
H330 C336 0.930 . S
H331 C340 0.930 . S
H332 C345 0.929 . S
H333 C343 0.929 . S
H334 C338 0.929 . S
H335 C344 0.929 . S
C336 H330 0.930 . S
C336 C337 1.367 . S
C336 C344 1.378 . S
C337 C336 1.367 . S
C337 C345 1.433 . S
C338 H334 0.929 . S
C338 C340 1.378 . S
C338 C342 1.350 . S
C339 C342 1.463 1_545 S
C339 C344 1.350 . S
C339 N347 1.427 . S
C340 H331 0.930 . S
C340 C338 1.378 . S
C340 C341 1.367 . S
C341 C340 1.367 . S
C341 C343 1.433 . S
C342 C338 1.350 . S
C342 C339 1.463 1_565 S
C342 N346 1.427 . S
C343 H333 0.929 . S
C343 C341 1.433 . S
C343 N346 1.384 . S
C344 H335 0.929 . S
C344 C336 1.378 . S
C344 C339 1.350 . S
C345 H332 0.929 . S
C345 C337 1.433 . S
C345 N347 1.384 . S
N346 C342 1.427 . S
N346 C343 1.384 . S
N347 C339 1.427 . S
N347 C345 1.384 . S
H348 C354 0.930 . S
H349 C358 0.930 . S
H350 C363 0.929 . S
H351 C361 0.929 . S
H352 C356 0.929 . S
H353 C362 0.929 . S
C354 H348 0.930 . S
C354 C355 1.367 . S
C354 C362 1.378 . S
C355 C354 1.367 . S
C355 C363 1.433 . S
C356 H352 0.929 . S
C356 C358 1.378 . S
C356 C360 1.350 . S
C357 C360 1.463 . S
C357 C362 1.350 . S
C357 N365 1.427 . S
C358 H349 0.930 . S
C358 C356 1.378 . S
C358 C359 1.367 . S
C359 C358 1.367 . S
C359 C361 1.433 . S
C360 C356 1.350 . S
C360 C357 1.463 . S
C360 N364 1.427 . S
C361 H351 0.929 . S
C361 C359 1.433 . S
C361 N364 1.384 . S
C362 H353 0.929 . S
C362 C354 1.378 . S
C362 C357 1.350 . S
C363 H350 0.929 . S
C363 C355 1.433 . S
C363 N365 1.384 . S
N364 C360 1.427 . S
N364 C361 1.384 . S
N365 C357 1.427 . S
N365 C363 1.384 . S
H366 C372 0.930 . S
H367 C376 0.930 . S
H368 C381 0.929 . S
H369 C379 0.929 . S
H370 C374 0.929 . S
H371 C380 0.929 . S
C372 H366 0.930 . S
C372 C373 1.367 1_556 S
C372 C380 1.378 . S
C373 C372 1.367 1_554 S
C373 C381 1.433 . S
C374 H370 0.929 . S
C374 C376 1.378 . S
C374 C378 1.350 . S
C375 C378 1.463 . S
C375 C380 1.350 . S
C375 N383 1.427 . S
C376 H367 0.930 . S
C376 C374 1.378 . S
C376 C377 1.367 . S
C377 C376 1.367 . S
C377 C379 1.433 . S
C378 C374 1.350 . S
C378 C375 1.463 . S
C378 N382 1.427 . S
C379 H369 0.929 . S
C379 C377 1.433 . S
C379 N382 1.384 . S
C380 H371 0.929 . S
C380 C372 1.378 . S
C380 C375 1.350 . S
C381 H368 0.929 . S
C381 C373 1.433 . S
C381 N383 1.384 1_554 S
N382 C378 1.427 . S
N382 C379 1.384 . S
N383 C375 1.427 . S
N383 C381 1.384 1_556 S
H384 C390 0.930 . S
H385 C394 0.930 . S
H386 C399 0.929 . S
H387 C397 0.929 . S
H388 C392 0.929 . S
H389 C398 0.929 . S
C390 H384 0.930 . S
C390 C391 1.367 . S
C390 C398 1.378 . S
C391 C390 1.367 . S
C391 C399 1.433 . S
C392 H388 0.929 . S
C392 C394 1.378 . S
C392 C396 1.350 . S
C393 C396 1.463 . S
C393 C398 1.350 . S
C393 N401 1.427 . S
C394 H385 0.930 . S
C394 C392 1.378 . S
C394 C395 1.367 . S
C395 C394 1.367 . S
C395 C397 1.433 . S
C396 C392 1.350 . S
C396 C393 1.463 . S
C396 N400 1.427 . S
C397 H387 0.929 . S
C397 C395 1.433 . S
C397 N400 1.384 . S
C398 H389 0.929 . S
C398 C390 1.378 . S
C398 C393 1.350 . S
C399 H386 0.929 . S
C399 C391 1.433 . S
C399 N401 1.384 . S
N400 C396 1.427 . S
N400 C397 1.384 . S
N401 C393 1.427 . S
N401 C399 1.384 . S
H402 C408 0.930 . S
H403 C412 0.930 . S
H404 C417 0.929 . S
H405 C415 0.929 . S
H406 C410 0.929 . S
H407 C416 0.929 . S
C408 H402 0.930 . S
C408 C409 1.367 . S
C408 C416 1.378 . S
C409 C408 1.367 . S
C409 C417 1.433 . S
C410 H406 0.929 . S
C410 C412 1.378 . S
C410 C414 1.350 . S
C411 C414 1.463 . S
C411 C416 1.350 . S
C411 N419 1.427 . S
C412 H403 0.930 . S
C412 C410 1.378 . S
C412 C413 1.367 . S
C413 C412 1.367 . S
C413 C415 1.433 . S
C414 C410 1.350 . S
C414 C411 1.463 . S
C414 N418 1.427 . S
C415 H405 0.929 . S
C415 C413 1.433 . S
C415 N418 1.384 . S
C416 H407 0.929 . S
C416 C408 1.378 . S
C416 C411 1.350 . S
C417 H404 0.929 . S
C417 C409 1.433 . S
C417 N419 1.384 . S
N418 C414 1.427 . S
N418 C415 1.384 . S
N419 C411 1.427 . S
N419 C417 1.384 . S
H420 C426 0.930 . S
H421 C430 0.930 . S
H422 C435 0.929 . S
H423 C433 0.929 . S
H424 C428 0.929 . S
H425 C434 0.929 . S
C426 H420 0.930 . S
C426 C427 1.367 . S
C426 C434 1.378 1_556 S
C427 C426 1.367 . S
C427 C435 1.433 . S
C428 H424 0.929 . S
C428 C430 1.378 . S
C428 C432 1.350 . S
C429 C432 1.463 . S
C429 C434 1.350 . S
C429 N437 1.427 1_554 S
C430 H421 0.930 . S
C430 C428 1.378 . S
C430 C431 1.367 . S
C431 C430 1.367 . S
C431 C433 1.433 . S
C432 C428 1.350 . S
C432 C429 1.463 . S
C432 N436 1.427 . S
C433 H423 0.929 . S
C433 C431 1.433 . S
C433 N436 1.384 . S
C434 H425 0.929 . S
C434 C426 1.378 1_554 S
C434 C429 1.350 . S
C435 H422 0.929 . S
C435 C427 1.433 . S
C435 N437 1.384 . S
N436 C432 1.427 . S
N436 C433 1.384 . S
N437 C429 1.427 1_556 S
N437 C435 1.384 . S
H438 C444 0.930 . S
H439 C448 0.930 . S
H440 C453 0.929 . S
H441 C451 0.929 . S
H442 C446 0.929 . S
H443 C452 0.929 . S
C444 H438 0.930 . S
C444 C445 1.367 . S
C444 C452 1.378 . S
C445 C444 1.367 . S
C445 C453 1.433 . S
C446 H442 0.929 . S
C446 C448 1.378 . S
C446 C450 1.350 . S
C447 C450 1.463 . S
C447 C452 1.350 . S
C447 N455 1.427 . S
C448 H439 0.930 . S
C448 C446 1.378 . S
C448 C449 1.367 . S
C449 C448 1.367 . S
C449 C451 1.433 . S
C450 C446 1.350 . S
C450 C447 1.463 . S
C450 N454 1.427 . S
C451 H441 0.929 . S
C451 C449 1.433 . S
C451 N454 1.384 . S
C452 H443 0.929 . S
C452 C444 1.378 . S
C452 C447 1.350 . S
C453 H440 0.929 . S
C453 C445 1.433 . S
C453 N455 1.384 . S
N454 C450 1.427 . S
N454 C451 1.384 . S
N455 C447 1.427 . S
N455 C453 1.384 . S
H456 C462 0.930 . S
H457 C466 0.930 . S
H458 C471 0.929 . S
H459 C469 0.929 . S
H460 C464 0.929 . S
H461 C470 0.929 . S
C462 H456 0.930 . S
C462 C463 1.367 . S
C462 C470 1.378 . S
C463 C462 1.367 . S
C463 C471 1.433 . S
C464 H460 0.929 . S
C464 C466 1.378 . S
C464 C468 1.350 . S
C465 C468 1.463 . S
C465 C470 1.350 . S
C465 N473 1.427 . S
C466 H457 0.930 . S
C466 C464 1.378 . S
C466 C467 1.367 . S
C467 C466 1.367 . S
C467 C469 1.433 . S
C468 C464 1.350 . S
C468 C465 1.463 . S
C468 N472 1.427 . S
C469 H459 0.929 . S
C469 C467 1.433 . S
C469 N472 1.384 . S
C470 H461 0.929 . S
C470 C462 1.378 . S
C470 C465 1.350 . S
C471 H458 0.929 . S
C471 C463 1.433 . S
C471 N473 1.384 . S
N472 C468 1.427 . S
N472 C469 1.384 . S
N473 C465 1.427 . S
N473 C471 1.384 . S
H474 C480 0.930 . S
H475 C484 0.930 . S
H476 C489 0.929 . S
H477 C487 0.929 . S
H478 C482 0.929 . S
H479 C488 0.929 . S
C480 H474 0.930 . S
C480 C481 1.367 . S
C480 C488 1.378 . S
C481 C480 1.367 . S
C481 C489 1.433 . S
C482 H478 0.929 . S
C482 C484 1.378 . S
C482 C486 1.350 . S
C483 C486 1.463 . S
C483 C488 1.350 . S
C483 N491 1.427 . S
C484 H475 0.930 . S
C484 C482 1.378 . S
C484 C485 1.367 . S
C485 C484 1.367 . S
C485 C487 1.433 . S
C486 C482 1.350 . S
C486 C483 1.463 . S
C486 N490 1.427 . S
C487 H477 0.929 . S
C487 C485 1.433 . S
C487 N490 1.384 . S
C488 H479 0.929 . S
C488 C480 1.378 . S
C488 C483 1.350 . S
C489 H476 0.929 . S
C489 C481 1.433 . S
C489 N491 1.384 . S
N490 C486 1.427 . S
N490 C487 1.384 . S
N491 C483 1.427 . S
N491 C489 1.384 . S
H492 C498 0.930 . S
H493 C502 0.930 . S
H494 C507 0.929 . S
H495 C505 0.929 . S
H496 C500 0.929 . S
H497 C506 0.929 . S
C498 H492 0.930 . S
C498 C499 1.367 . S
C498 C506 1.378 . S
C499 C498 1.367 . S
C499 C507 1.433 . S
C500 H496 0.929 . S
C500 C502 1.378 . S
C500 C504 1.350 . S
C501 C504 1.463 . S
C501 C506 1.350 . S
C501 N509 1.427 . S
C502 H493 0.930 . S
C502 C500 1.378 . S
C502 C503 1.367 . S
C503 C502 1.367 . S
C503 C505 1.433 . S
C504 C500 1.350 . S
C504 C501 1.463 . S
C504 N508 1.427 . S
C505 H495 0.929 . S
C505 C503 1.433 . S
C505 N508 1.384 . S
C506 H497 0.929 . S
C506 C498 1.378 . S
C506 C501 1.350 . S
C507 H494 0.929 . S
C507 C499 1.433 . S
C507 N509 1.384 . S
N508 C504 1.427 . S
N508 C505 1.384 . S
N509 C501 1.427 . S
N509 C507 1.384 . S
H510 C516 0.930 . S
H511 C520 0.930 . S
H512 C525 0.929 . S
H513 C523 0.929 . S
H514 C518 0.929 . S
H515 C524 0.929 . S
C516 H510 0.930 . S
C516 C517 1.367 . S
C516 C524 1.378 . S
C517 C516 1.367 . S
C517 C525 1.433 . S
C518 H514 0.929 . S
C518 C520 1.378 . S
C518 C522 1.350 . S
C519 C522 1.463 . S
C519 C524 1.350 . S
C519 N527 1.427 . S
C520 H511 0.930 . S
C520 C518 1.378 . S
C520 C521 1.367 . S
C521 C520 1.367 . S
C521 C523 1.433 . S
C522 C518 1.350 . S
C522 C519 1.463 . S
C522 N526 1.427 . S
C523 H513 0.929 . S
C523 C521 1.433 . S
C523 N526 1.384 . S
C524 H515 0.929 . S
C524 C516 1.378 . S
C524 C519 1.350 . S
C525 H512 0.929 . S
C525 C517 1.433 . S
C525 N527 1.384 . S
N526 C522 1.427 . S
N526 C523 1.384 . S
N527 C519 1.427 . S
N527 C525 1.384 . S
H528 C534 0.930 . S
H529 C538 0.930 . S
H530 C543 0.929 . S
H531 C541 0.929 . S
H532 C536 0.929 . S
H533 C542 0.929 . S
C534 H528 0.930 . S
C534 C535 1.367 . S
C534 C542 1.378 . S
C535 C534 1.367 . S
C535 C543 1.433 . S
C536 H532 0.929 . S
C536 C538 1.378 . S
C536 C540 1.350 . S
C537 C540 1.463 . S
C537 C542 1.350 . S
C537 N545 1.427 . S
C538 H529 0.930 . S
C538 C536 1.378 . S
C538 C539 1.367 . S
C539 C538 1.367 . S
C539 C541 1.433 . S
C540 C536 1.350 . S
C540 C537 1.463 . S
C540 N544 1.427 . S
C541 H531 0.929 . S
C541 C539 1.433 . S
C541 N544 1.384 . S
C542 H533 0.929 . S
C542 C534 1.378 . S
C542 C537 1.350 . S
C543 H530 0.929 . S
C543 C535 1.433 . S
C543 N545 1.384 . S
N544 C540 1.427 . S
N544 C541 1.384 . S
N545 C537 1.427 . S
N545 C543 1.384 . S
H546 C552 0.930 1_554 S
H547 C556 0.930 . S
H548 C561 0.929 . S
H549 C559 0.929 . S
H550 C554 0.929 . S
H551 C560 0.929 . S
C552 H546 0.930 1_556 S
C552 C553 1.367 . S
C552 C560 1.378 . S
C553 C552 1.367 . S
C553 C561 1.433 . S
C554 H550 0.929 . S
C554 C556 1.378 . S
C554 C558 1.350 . S
C555 C558 1.463 . S
C555 C560 1.350 . S
C555 N563 1.427 . S
C556 H547 0.930 . S
C556 C554 1.378 . S
C556 C557 1.367 . S
C557 C556 1.367 . S
C557 C559 1.433 . S
C558 C554 1.350 . S
C558 C555 1.463 . S
C558 N562 1.427 . S
C559 H549 0.929 . S
C559 C557 1.433 . S
C559 N562 1.384 . S
C560 H551 0.929 . S
C560 C552 1.378 . S
C560 C555 1.350 . S
C561 H548 0.929 . S
C561 C553 1.433 . S
C561 N563 1.384 . S
N562 C558 1.427 . S
N562 C559 1.384 . S
N563 C555 1.427 . S
N563 C561 1.384 . S
C247 C210 1.764 . S
C251 C10 1.764 . S
C265 C9 1.409 . S
C269 C49 1.403 . S
C283 C50 1.765 . S
C287 C90 1.765 . S
C301 C89 1.403 . S
C305 C129 1.408 . S
C319 C170 1.764 . S
C323 C130 1.764 . S
C337 C209 1.405 . S
C341 C169 1.391 . S
C355 C6 1.276 . S
C359 C15 1.276 . S
C373 C55 1.292 . S
C377 C46 1.292 . S
C391 C86 1.279 . S
C395 C95 1.279 . S
C409 C135 1.279 . S
C413 C126 1.279 . S
C427 C175 1.294 . S
C431 C166 1.294 . S
C445 C215 1.293 . S
C449 C206 1.293 . S
C463 C19 1.840 . S
C467 C178 1.850 . S
C481 C58 1.851 . S
C485 C219 1.837 . S
C499 C18 1.851 . S
C503 C99 1.837 1_554 S
C517 C59 1.838 . S
C521 C138 1.851 . S
C535 C179 1.840 . S
C539 C98 1.849 . S
C553 C139 1.849 . S
C557 C218 1.850 . S
