# Generated by pormake.
# Topology vcr, (7)-cn, num edge types: 1
# Building blocks:
#     Node 0, Type 0, BuildingBlock: HICVOG_clean_sbu_0, # of connection points: 7
#     Node 1, Type 0, BuildingBlock: HICVOG_clean_sbu_0, # of connection points: 7
#     Node 2, Type 0, BuildingBlock: HICVOG_clean_sbu_0, # of connection points: 7
#     Node 3, Type 0, BuildingBlock: HICVOG_clean_sbu_0, # of connection points: 7
#     Node 4, Type 0, BuildingBlock: HICVOG_clean_sbu_0, # of connection points: 7
#     Node 5, Type 0, BuildingBlock: HICVOG_clean_sbu_0, # of connection points: 7
#     Node 6, Type 0, BuildingBlock: HICVOG_clean_sbu_0, # of connection points: 7
#     Node 7, Type 0, BuildingBlock: HICVOG_clean_sbu_0, # of connection points: 7
#     Edge 8, Type (0, 0), BuildingBlock: AJUNOK_clean_linker_0, # of connection points: 2
#     Edge 9, Type (0, 0), BuildingBlock: AJUNOK_clean_linker_0, # of connection points: 2
#     Edge 10, Type (0, 0), BuildingBlock: AJUNOK_clean_linker_0, # of connection points: 2
#     Edge 11, Type (0, 0), BuildingBlock: AJUNOK_clean_linker_0, # of connection points: 2
#     Edge 12, Type (0, 0), BuildingBlock: AJUNOK_clean_linker_0, # of connection points: 2
#     Edge 13, Type (0, 0), BuildingBlock: AJUNOK_clean_linker_0, # of connection points: 2
#     Edge 14, Type (0, 0), BuildingBlock: AJUNOK_clean_linker_0, # of connection points: 2
#     Edge 15, Type (0, 0), BuildingBlock: AJUNOK_clean_linker_0, # of connection points: 2
#     Edge 16, Type (0, 0), BuildingBlock: AJUNOK_clean_linker_0, # of connection points: 2
#     Edge 17, Type (0, 0), BuildingBlock: AJUNOK_clean_linker_0, # of connection points: 2
#     Edge 18, Type (0, 0), BuildingBlock: AJUNOK_clean_linker_0, # of connection points: 2
#     Edge 19, Type (0, 0), BuildingBlock: AJUNOK_clean_linker_0, # of connection points: 2
#     Edge 20, Type (0, 0), BuildingBlock: AJUNOK_clean_linker_0, # of connection points: 2
#     Edge 21, Type (0, 0), BuildingBlock: AJUNOK_clean_linker_0, # of connection points: 2
#     Edge 22, Type (0, 0), BuildingBlock: AJUNOK_clean_linker_0, # of connection points: 2
#     Edge 23, Type (0, 0), BuildingBlock: AJUNOK_clean_linker_0, # of connection points: 2
#     Edge 24, Type (0, 0), BuildingBlock: AJUNOK_clean_linker_0, # of connection points: 2
#     Edge 25, Type (0, 0), BuildingBlock: AJUNOK_clean_linker_0, # of connection points: 2
#     Edge 26, Type (0, 0), BuildingBlock: AJUNOK_clean_linker_0, # of connection points: 2
#     Edge 27, Type (0, 0), BuildingBlock: AJUNOK_clean_linker_0, # of connection points: 2
#     Edge 28, Type (0, 0), BuildingBlock: AJUNOK_clean_linker_0, # of connection points: 2
#     Edge 29, Type (0, 0), BuildingBlock: AJUNOK_clean_linker_0, # of connection points: 2
#     Edge 30, Type (0, 0), BuildingBlock: AJUNOK_clean_linker_0, # of connection points: 2
#     Edge 31, Type (0, 0), BuildingBlock: AJUNOK_clean_linker_0, # of connection points: 2
#     Edge 32, Type (0, 0), BuildingBlock: AJUNOK_clean_linker_0, # of connection points: 2
#     Edge 33, Type (0, 0), BuildingBlock: AJUNOK_clean_linker_0, # of connection points: 2
#     Edge 34, Type (0, 0), BuildingBlock: AJUNOK_clean_linker_0, # of connection points: 2
#     Edge 35, Type (0, 0), BuildingBlock: AJUNOK_clean_linker_0, # of connection points: 2
# Relax obj value: 0.331
# Max RMSD: 0.279
# Mean RMSD: 0.279
data_MOF--net-vcr--node1-HICVOG_clean_sbu_0--edge1-AJUNOK_clean_linker_0
_symmetry_space_group_name_H-M    P1
_symmetry_Int_Tables_number       1
_symmetry_cell_setting            triclinic
loop_
_symmetry_equiv_pos_as_xyz
'x, y, z'
_cell_length_a     27.21573
_cell_length_b     35.473272
_cell_length_c     15.450742
_cell_angle_alpha  90.187072
_cell_angle_beta   89.923321
_cell_angle_gamma 90.189105
loop_
_atom_site_label
_atom_site_type_symbol
_atom_site_fract_x
_atom_site_fract_y
_atom_site_fract_z
_atom_type_partial_charge
Zn0 Zn 0.17405 0.13369 0.19604 0.0
C1 C 0.08935 0.0779 0.02603 0.0
N2 N 0.12894 0.0563 0.01495 0.0
C3 C 0.16286 0.07366 0.06289 0.0
N4 N 0.14524 0.10489 0.1021 0.0
N5 N 0.09916 0.10819 0.07644 0.0
C6 C 0.96276 0.15467 0.06317 0.0
O7 O 0.97224 0.16273 0.1445 0.0
O8 O 0.249 0.13334 0.1755 0.0
Zn9 Zn 0.07057 0.15678 0.05049 0.0
N10 N 0.15199 0.11007 0.30529 0.0
C11 C 0.10278 0.06232 0.37121 0.0
C12 C 0.12179 0.07953 0.29767 0.0
C13 C 0.16159 0.12532 0.38489 0.0
N14 N 0.11271 0.0772 0.4501 0.0
C15 C 0.14124 0.10849 0.45984 0.0
O16 O 0.07595 0.19645 0.14762 0.0
C17 C 0.11208 0.20795 0.19362 0.0
O18 O 0.15021 0.18775 0.20538 0.0
H19 H 0.11287 0.06809 0.23483 0.0
H20 H 0.18413 0.15043 0.38953 0.0
C21 C 0.11058 0.1587 0.87499 0.0
C22 C 0.13855 0.17427 0.8066 0.0
C23 C 0.15914 0.22617 0.89703 0.0
C24 C 0.13168 0.21065 0.96421 0.0
N25 N 0.10788 0.17725 0.95239 0.0
N26 N 0.16177 0.2078 0.8201 0.0
H27 H 0.09031 0.13267 0.86662 0.0
C28 C 0.26122 0.1423 0.09845 0.0
O29 O 0.2265 0.1533 0.04527 0.0
O30 O 0.9988 0.15033 1.01146 0.0
H31 H 0.12933 0.22541 0.02515 0.0
H32 H 0.07953 0.03764 0.36559 0.0
H33 H 0.17808 0.25277 0.90577 0.0
Zn34 Zn 0.44012 0.91149 0.04668 0.0
C35 C 0.34363 0.99308 0.06024 0.0
N36 N 0.37727 1.01125 0.01311 0.0
C37 C 0.4168 0.98949 0.02124 0.0
N38 N 0.40761 0.95874 0.06965 0.0
N39 N 0.3617 0.96144 0.0968 0.0
C40 C 0.24878 0.91158 0.1106 0.0
O41 O 0.28338 0.89775 0.06045 0.0
O42 O 0.51207 0.92037 0.01581 0.0
Zn43 Zn 0.33612 0.93253 0.19297 0.0
N44 N 0.40743 0.88929 0.94596 0.0
C45 C 0.36116 0.83841 0.88621 0.0
C46 C 0.38601 0.85486 0.95546 0.0
C47 C 0.40497 0.90799 0.86906 0.0
N48 N 0.35853 0.85703 0.80985 0.0
C49 C 0.3794 0.8916 0.79875 0.0
O50 O 0.3612 0.8788 0.20115 0.0
C51 C 0.4003 0.8598 0.18876 0.0
O52 O 0.43563 0.87231 0.14273 0.0
H53 H 0.38815 0.84012 0.01628 0.0
H54 H 0.42342 0.93488 0.86284 0.0
C55 C 0.35187 0.94129 0.38015 0.0
C56 C 0.37205 0.95889 0.45437 0.0
C57 C 0.40498 1.00708 0.36502 0.0
C58 C 0.38612 0.98915 0.29203 0.0
N59 N 0.35885 0.95711 0.30057 0.0
N60 N 0.39773 0.99155 0.444 0.0
H61 H 0.33138 0.91519 0.38527 0.0
C62 C 0.54246 0.89353 0.02523 0.0
O63 O 0.52607 0.8609 0.05319 0.0
O64 O 0.2616 0.92955 0.17849 0.0
H65 H 0.39293 1.00109 0.22895 0.0
H66 H 0.34406 0.81101 0.89302 0.0
H67 H 0.42598 0.03288 0.35884 0.0
Zn68 Zn 0.17007 0.43499 0.34384 0.0
C69 C 0.0849 0.48762 0.51783 0.0
N70 N 0.12168 0.51228 0.52328 0.0
C71 C 0.15704 0.49682 0.47521 0.0
N72 N 0.14247 0.46334 0.44051 0.0
N73 N 0.0974 0.45734 0.46995 0.0
C74 C 0.96132 0.39241 0.51585 0.0
O75 O 0.9752 0.35863 0.49097 0.0
O76 O 0.24416 0.42869 0.36183 0.0
Zn77 Zn 0.06512 0.40925 0.48945 0.0
N78 N 0.15182 0.46155 0.23635 0.0
C79 C 0.11689 0.51619 0.17156 0.0
C80 C 0.13455 0.49741 0.24395 0.0
C81 C 0.1507 0.44339 0.15822 0.0
N82 N 0.11558 0.4981 0.09425 0.0
C83 C 0.13156 0.46201 0.08485 0.0
O84 O 0.07186 0.36904 0.39455 0.0
C85 C 0.10709 0.35987 0.34427 0.0
O86 O 0.1428 0.38222 0.3296 0.0
H87 H 0.13354 0.51134 0.30601 0.0
H88 H 0.16256 0.41435 0.15426 0.0
C89 C 0.09643 0.40738 0.66911 0.0
C90 C 0.11658 0.39043 0.74368 0.0
C91 C 0.13314 0.33533 0.66081 0.0
C92 C 0.11236 0.35195 0.58807 0.0
N93 N 0.09439 0.3876 0.59333 0.0
N94 N 0.13469 0.35481 0.73646 0.0
H95 H 0.08311 0.43604 0.67035 0.0
C96 C 0.25812 0.40529 0.41891 0.0
O97 O 0.22469 0.38587 0.46117 0.0
O98 O 0.99307 0.41878 0.51787 0.0
H99 H 0.11061 0.33647 0.52785 0.0
H100 H 0.10333 0.54474 0.17709 0.0
H101 H 0.14773 0.30703 0.65737 0.0
Zn102 Zn 0.44115 0.65175 0.45791 0.0
C103 C 0.34002 0.57174 0.43236 0.0
N104 N 0.37121 0.55118 0.47886 0.0
C105 C 0.41153 0.57287 0.47893 0.0
N106 N 0.40514 0.60541 0.43527 0.0
N107 N 0.35986 0.60429 0.40486 0.0
C108 C 0.2469 0.65773 0.39884 0.0
O109 O 0.28194 0.67449 0.44312 0.0
O110 O 0.51345 0.64158 0.48865 0.0
Zn111 Zn 0.33302 0.63335 0.31182 0.0
N112 N 0.41124 0.67464 0.56018 0.0
C113 C 0.37494 0.72848 0.62647 0.0
C114 C 0.39586 0.71099 0.55462 0.0
C115 C 0.40643 0.65501 0.63539 0.0
N116 N 0.37096 0.70919 0.70179 0.0
C117 C 0.38653 0.67292 0.70929 0.0
O118 O 0.36229 0.68557 0.30198 0.0
C119 C 0.40111 0.70478 0.31658 0.0
O120 O 0.43601 0.69229 0.36366 0.0
H121 H 0.39988 0.72647 0.49501 0.0
H122 H 0.41764 0.62582 0.63672 0.0
C123 C 0.34992 0.62411 0.12485 0.0
C124 C 0.36648 0.60419 0.05094 0.0
C125 C 0.37788 0.54985 0.1375 0.0
C126 C 0.36328 0.56993 0.21044 0.0
N127 N 0.34862 0.60643 0.20331 0.0
N128 N 0.37943 0.56741 0.05994 0.0
H129 H 0.34027 0.65362 0.1209 0.0
C130 C 0.53964 0.66996 0.50997 0.0
O131 O 0.51919 0.70345 0.50912 0.0
O132 O 0.25899 0.63748 0.33401 0.0
H133 H 0.36524 0.55649 0.27248 0.0
H134 H 0.36238 0.75733 0.62274 0.0
H135 H 0.38923 0.52075 0.14281 0.0
Zn136 Zn 0.8353 0.93369 0.84214 0.0
C137 C 0.91882 0.98608 0.02039 0.0
N138 N 0.88089 1.00945 0.02716 0.0
C139 C 0.84687 0.99379 0.97647 0.0
N140 N 0.86346 0.96184 0.93811 0.0
N141 N 0.90847 0.95658 0.9682 0.0
C142 C 0.04247 0.89005 0.01585 0.0
O143 O 0.02589 0.85635 0.99545 0.0
O144 O 0.76164 0.92815 0.86232 0.0
Zn145 Zn 0.9401 0.90839 0.98765 0.0
N146 N 0.85223 0.95954 0.73379 0.0
C147 C 0.88853 1.01223 0.66285 0.0
C148 C 0.8717 0.99486 0.73795 0.0
C149 C 0.85009 0.9405 0.65694 0.0
N150 N 0.8872 0.99307 0.58678 0.0
C151 C 0.86916 0.9573 0.581 0.0
O152 O 0.93372 0.86898 0.89014 0.0
C153 C 0.8991 0.85966 0.83853 0.0
O154 O 0.86276 0.88138 0.82547 0.0
H155 H 0.87473 1.00937 0.79929 0.0
H156 H 0.83418 0.91256 0.65593 0.0
C157 C 0.9072 0.90385 0.16799 0.0
C158 C 0.88451 0.88592 0.23929 0.0
C159 C 0.86603 0.83336 0.14928 0.0
C160 C 0.88862 0.85108 0.07943 0.0
N161 N 0.9089 0.88589 0.0897 0.0
N162 N 0.86458 0.85106 0.22713 0.0
H163 H 0.92399 0.93139 0.17477 0.0
C164 C 0.7493 0.91166 0.93209 0.0
O165 O 0.78414 0.89917 0.98324 0.0
O166 O 0.01245 0.91745 0.01675 0.0
H167 H 0.89003 0.83698 0.01746 0.0
H168 H 0.90364 0.04046 0.66526 0.0
H169 H 0.84982 0.80565 0.14179 0.0
Zn170 Zn 0.57081 0.15376 0.97383 0.0
C171 C 0.66455 0.06981 0.93724 0.0
N172 N 0.63176 0.04977 0.98191 0.0
C173 C 0.59338 0.07313 0.98538 0.0
N174 N 0.60242 0.1063 0.94568 0.0
N175 N 0.64739 0.10381 0.91404 0.0
C176 C 0.76029 0.15054 0.93135 0.0
O177 O 0.72341 0.16121 0.98048 0.0
O178 O 0.49995 0.14527 0.01713 0.0
Zn179 Zn 0.67713 0.13487 0.82628 0.0
N180 N 0.60759 0.1769 0.06977 0.0
C181 C 0.6523 0.2302 0.12219 0.0
C182 C 0.62695 0.21181 0.05613 0.0
C183 C 0.61282 0.15962 0.14805 0.0
N184 N 0.65684 0.2133 0.20027 0.0
C185 C 0.63776 0.17849 0.21578 0.0
O186 O 0.64714 0.18694 0.81608 0.0
C187 C 0.60747 0.20533 0.82828 0.0
O188 O 0.57258 0.19267 0.87566 0.0
H189 H 0.62248 0.22568 0.99476 0.0
H190 H 0.59662 0.13206 0.15801 0.0
C191 C 0.66936 0.12883 0.63736 0.0
C192 C 0.65398 0.11136 0.5593 0.0
C193 C 0.63244 0.05654 0.63867 0.0
C194 C 0.64544 0.07448 0.7154 0.0
N195 N 0.66458 0.10997 0.71394 0.0
N196 N 0.63665 0.07538 0.56299 0.0
H197 H 0.68431 0.15709 0.63795 0.0
C198 C 0.46317 0.144 0.96631 0.0
O199 O 0.47103 0.14788 0.8829 0.0
O200 O 0.75057 0.13863 0.85532 0.0
H201 H 0.63901 0.06017 0.77557 0.0
H202 H 0.66779 0.25795 0.11183 0.0
H203 H 0.61771 1.02818 0.63941 0.0
Zn204 Zn 0.83534 0.63503 0.69012 0.0
C205 C 0.91423 0.5782 0.51562 0.0
N206 N 0.87396 0.55704 0.50666 0.0
C207 C 0.84087 0.57502 0.55535 0.0
N208 N 0.85989 0.6063 0.59302 0.0
N209 N 0.90589 0.60867 0.56589 0.0
C210 C 0.04205 0.67336 0.5095 0.0
O211 O 0.02357 0.70727 0.5194 0.0
O212 O 0.76006 0.6362 0.67856 0.0
Zn213 Zn 0.9414 0.65551 0.5481 0.0
N214 N 0.8618 0.61137 0.79619 0.0
C215 C 0.91021 0.5614 0.85337 0.0
C216 C 0.88786 0.57909 0.78382 0.0
C217 C 0.85973 0.62782 0.87629 0.0
N218 N 0.90789 0.57754 0.9327 0.0
C219 C 0.88402 0.61063 0.947 0.0
O220 O 0.93582 0.69517 0.64523 0.0
C221 C 0.89856 0.70827 0.68558 0.0
O222 O 0.85909 0.68924 0.69501 0.0
H223 H 0.89124 0.56687 0.7202 0.0
H224 H 0.84122 0.65457 0.88372 0.0
C225 C 0.91143 0.65974 0.36824 0.0
C226 C 0.89147 0.67731 0.29433 0.0
C227 C 0.8741 0.73152 0.37952 0.0
C228 C 0.89484 0.71434 0.45165 0.0
N229 N 0.91299 0.67877 0.44502 0.0
N230 N 0.87296 0.71273 0.30292 0.0
H231 H 0.9251 0.63118 0.36551 0.0
C232 C 0.74557 0.65508 0.61336 0.0
O233 O 0.77879 0.67155 0.56449 0.0
O234 O 0.01378 0.64505 0.51985 0.0
H235 H 0.89635 0.7294 0.51239 0.0
H236 H 0.93014 0.53536 0.84414 0.0
H237 H 0.85926 0.75971 0.38416 0.0
Zn238 Zn 0.6678 0.43303 0.69937 0.0
C239 C 0.58707 0.49014 0.53048 0.0
N240 N 0.6262 0.51278 0.52552 0.0
C241 C 0.65968 0.4943 0.57174 0.0
N242 N 0.64194 0.4617 0.60436 0.0
N243 N 0.59623 0.45869 0.57643 0.0
C244 C 0.46526 0.38976 0.51144 0.0
O245 O 0.48517 0.35638 0.52166 0.0
O246 O 0.74223 0.43167 0.68447 0.0
Zn247 Zn 0.56413 0.41097 0.55309 0.0
N248 N 0.64495 0.45756 0.80651 0.0
C249 C 0.59801 0.50693 0.87078 0.0
C250 C 0.61823 0.48974 0.7981 0.0
C251 C 0.65023 0.44097 0.88556 0.0
N252 N 0.60354 0.49061 0.94925 0.0
C253 C 0.62892 0.45794 0.95955 0.0
O254 O 0.56888 0.37148 0.64868 0.0
C255 C 0.60445 0.35942 0.6945 0.0
O256 O 0.64307 0.37912 0.70729 0.0
H257 H 0.61238 0.50216 0.73532 0.0
H258 H 0.66874 0.4141 0.8896 0.0
C259 C 0.59939 0.40755 0.37535 0.0
C260 C 0.62468 0.39113 0.30488 0.0
C261 C 0.64388 0.33849 0.39293 0.0
C262 C 0.61868 0.35471 0.46202 0.0
N263 N 0.5971 0.38898 0.45243 0.0
N264 N 0.64626 0.35696 0.31636 0.0
H265 H 0.58227 0.43492 0.36965 0.0
C266 C 0.75631 0.41215 0.6197 0.0
O267 O 0.72285 0.39466 0.57311 0.0
O268 O 0.49222 0.4188 0.52162 0.0
H269 H 0.61661 0.33998 0.52287 0.0
H270 H 0.57723 0.53272 0.86471 0.0
H271 H 0.66139 0.31134 0.39998 0.0
C272 C 0.40185 0.14384 0.08988 0.0
C273 C 0.41188 0.14003 1.00055 0.0
C274 C 0.35327 0.14331 0.12208 0.0
C275 C 0.31278 0.13926 0.06615 0.0
H276 H 0.43164 0.14824 0.13524 0.0
H277 H 0.34736 0.14737 0.19082 0.0
S278 S 0.31894 0.12221 0.82895 0.0
N279 N 0.3768 0.12759 0.85843 0.0
N280 N 0.28636 0.12715 0.91835 0.0
C281 C 0.32245 0.13351 0.97747 0.0
C282 C 0.37168 0.13375 0.94487 0.0
C283 C 0.15995 0.93178 0.11308 0.0
C284 C 0.19623 0.90581 0.08733 0.0
C285 C 0.11045 0.92699 0.0885 0.0
C286 C 0.09522 0.89564 0.03872 0.0
H287 H 0.16998 0.95628 0.15131 0.0
H288 H 0.08385 0.94775 0.10959 0.0
S289 S 0.17606 0.81972 0.95435 0.0
N290 N 0.21344 0.84791 1.00838 0.0
N291 N 0.121 0.83866 0.96362 0.0
C292 C 0.13126 0.86956 1.01276 0.0
C293 C 0.18155 0.87471 0.03664 0.0
C294 C 0.3938 0.42745 0.45509 0.0
C295 C 0.4124 0.39325 0.48767 0.0
C296 C 0.34417 0.43097 0.43097 0.0
C297 C 0.311 0.40067 0.44012 0.0
H298 H 0.4178 0.45166 0.44758 0.0
H299 H 0.33151 0.45784 0.40665 0.0
S300 S 0.34066 0.30517 0.52189 0.0
N301 N 0.39321 0.32842 0.52697 0.0
N302 N 0.30032 0.33534 0.48309 0.0
C303 C 0.32902 0.36645 0.47273 0.0
C304 C 0.37956 0.36266 0.49609 0.0
C305 C 0.11066 0.63667 0.43814 0.0
C306 C 0.09462 0.6688 0.48407 0.0
C307 C 0.15967 0.63341 0.4092 0.0
C308 C 0.1947 0.66179 0.4267 0.0
H309 H 0.08499 0.6142 0.42299 0.0
H310 H 0.17031 0.60828 0.37394 0.0
S311 S 0.17211 0.75065 0.54797 0.0
N312 N 0.11835 0.729 0.54733 0.0
N313 N 0.20988 0.72261 0.49473 0.0
C314 C 0.17926 0.6936 0.47403 0.0
C315 C 0.12944 0.69717 0.50219 0.0
C316 C 0.66066 0.93136 0.92397 0.0
C317 C 0.6968 0.90687 0.95652 0.0
C318 C 0.61097 0.92746 0.94781 0.0
C319 C 0.59541 0.89846 1.00375 0.0
H320 H 0.67086 0.95398 0.88048 0.0
H321 H 0.5845 0.94697 0.92112 0.0
S322 S 0.67574 0.82751 0.10849 0.0
N323 N 0.71358 0.8532 0.04934 0.0
N324 N 0.62065 0.84555 0.09293 0.0
C325 C 0.63131 0.874 0.03712 0.0
C326 C 0.68183 0.87829 0.01386 0.0
C327 C 0.85192 0.14154 0.91312 0.0
C328 C 0.81161 0.15099 0.96618 0.0
C329 C 0.90044 0.14235 0.94498 0.0
C330 C 0.91081 0.15237 0.03153 0.0
H331 H 0.84611 0.13374 0.84608 0.0
H332 H 0.93007 0.13523 0.90106 0.0
S333 S 0.81816 0.17743 0.1991 0.0
N334 N 0.78555 0.16947 0.11102 0.0
N335 N 0.87586 0.17042 0.17066 0.0
C336 C 0.87066 0.16097 0.0858 0.0
C337 C 0.82142 0.16046 0.05325 0.0
C338 C 0.65935 0.62886 0.59964 0.0
C339 C 0.69264 0.65915 0.59116 0.0
C340 C 0.61011 0.63208 0.57175 0.0
C341 C 0.59218 0.66598 0.53622 0.0
H342 H 0.6717 0.60226 0.62595 0.0
H343 H 0.58584 0.60802 0.57895 0.0
S344 S 0.66466 0.75364 0.50172 0.0
N345 N 0.7041 0.72396 0.545 0.0
N346 N 0.61224 0.73032 0.49462 0.0
C347 C 0.6252 0.69646 0.52854 0.0
C348 C 0.67519 0.69296 0.55544 0.0
C349 C 0.82391 0.37739 0.54493 0.0
C350 C 0.80908 0.40831 0.59591 0.0
C351 C 0.87298 0.37271 0.51956 0.0
C352 C 0.90946 0.39906 0.54269 0.0
H353 H 0.79742 0.35625 0.52488 0.0
H354 H 0.88225 0.3482 0.4809 0.0
S355 S 0.88996 0.48557 0.67405 0.0
N356 N 0.83492 0.466 0.6682 0.0
N357 N 0.92714 0.45764 0.61911 0.0
C358 C 0.89515 0.43045 0.59285 0.0
C359 C 0.84507 0.43492 0.61992 0.0
C360 C 0.06487 0.30125 0.28709 0.0
C361 C 0.10844 0.32137 0.30506 0.0
C362 C 0.06613 0.26482 0.25023 0.0
C363 C 0.11103 0.24669 0.23192 0.0
H364 H 0.0295 0.31388 0.30072 0.0
H365 H 0.03166 0.25059 0.23708 0.0
S366 S 0.23563 0.28681 0.26913 0.0
N367 N 0.19779 0.32006 0.30255 0.0
N368 N 0.2002 0.25197 0.23511 0.0
C369 C 0.1548 0.26645 0.25049 0.0
C370 C 0.1535 0.30362 0.2865 0.0
C371 C 0.35895 0.76301 0.26471 0.0
C372 C 0.40318 0.74413 0.28317 0.0
C373 C 0.35865 0.80042 0.23599 0.0
C374 C 0.40258 0.82064 0.22293 0.0
H375 H 0.32391 0.74895 0.27362 0.0
H376 H 0.32348 0.81338 0.2226 0.0
S377 S 0.52859 0.78459 0.26156 0.0
N378 N 0.49235 0.74884 0.28705 0.0
N379 N 0.4918 0.81904 0.23112 0.0
C380 C 0.44722 0.8022 0.24065 0.0
C381 C 0.44751 0.76409 0.27139 0.0
C382 C 0.94159 0.79855 0.79848 0.0
C383 C 0.89973 0.82192 0.79455 0.0
C384 C 0.94175 0.76223 0.76103 0.0
C385 C 0.89974 0.74752 0.7198 0.0
H386 H 0.97444 0.80822 0.83133 0.0
H387 H 0.9745 0.74514 0.7666 0.0
S388 S 0.78195 0.79755 0.68505 0.0
N389 N 0.816 0.82781 0.74007 0.0
N390 N 0.81641 0.75978 0.67211 0.0
C391 C 0.85818 0.77076 0.71348 0.0
C392 C 0.85815 0.80782 0.75013 0.0
C393 C 0.64818 0.26461 0.77803 0.0
C394 C 0.60448 0.24421 0.79253 0.0
C395 C 0.64745 0.30177 0.74769 0.0
C396 C 0.60301 0.32021 0.72894 0.0
H397 H 0.68354 0.252 0.79159 0.0
H398 H 0.68231 0.31598 0.73792 0.0
S399 S 0.47807 0.27911 0.75317 0.0
N400 N 0.51526 0.24516 0.78496 0.0
N401 N 0.51386 0.31486 0.72591 0.0
C402 C 0.5589 0.30005 0.74193 0.0
C403 C 0.55963 0.2622 0.77436 0.0
C404 C 0.27418 1.02275 0.98978 0.0
C405 C 0.29433 1.00887 0.0669 0.0
C406 C 0.23369 0.04643 0.9909 0.0
C407 C 0.21177 0.05729 0.06916 0.0
H408 H 0.29069 1.01596 0.92775 0.0
H409 H 0.21873 0.05579 0.92961 0.0
S410 S 0.24989 1.02837 0.28905 0.0
N411 N 0.28958 1.00776 0.22358 0.0
N412 N 0.21209 0.05172 0.22553 0.0
C413 C 0.23115 0.04353 0.14678 0.0
C414 C 0.27276 1.01928 0.14567 0.0
C415 C 0.23068 0.51239 0.38312 0.0
C416 C 0.20209 0.51873 0.45718 0.0
C417 C 0.27416 0.53253 0.36924 0.0
C418 C 0.28873 0.56111 0.42667 0.0
H419 H 0.22008 0.49172 0.33589 0.0
H420 H 0.29743 0.52422 0.31582 0.0
S421 S 0.22472 0.5926 0.62483 0.0
N422 N 0.19049 0.55796 0.58627 0.0
N423 N 0.27074 0.597 0.5561 0.0
C424 C 0.25885 0.56991 0.49709 0.0
C425 C 0.21573 0.54859 0.51324 0.0
C426 C 0.73232 0.03345 0.8711 0.0
C427 C 0.71544 0.05811 0.9357 0.0
C428 C 0.77482 1.01207 0.88382 0.0
C429 C 0.80028 1.01373 0.9626 0.0
H430 H 0.71162 1.02927 0.81219 0.0
H431 H 0.78714 0.99411 0.83205 0.0
S432 S 0.76782 0.07278 0.15385 0.0
N433 N 0.72603 0.08302 0.08053 0.0
N434 N 0.80425 0.04168 0.10723 0.0
C435 C 0.78327 0.03854 0.02758 0.0
C436 C 0.74122 0.06098 0.0134 0.0
C437 C 0.73083 0.51852 0.49583 0.0
C438 C 0.70973 0.50896 0.57558 0.0
C439 C 0.77101 0.54263 0.49126 0.0
C440 C 0.79213 0.55804 0.56629 0.0
H441 H 0.71487 0.50833 0.43582 0.0
H442 H 0.7863 0.54878 0.42799 0.0
S443 S 0.75166 0.5405 0.7918 0.0
N444 N 0.71273 0.51621 0.73155 0.0
N445 N 0.79007 0.5607 0.72331 0.0
C446 C 0.77197 0.54827 0.64683 0.0
C447 C 0.7304 0.52373 0.65141 0.0
C448 C 0.03445 0.03295 0.95351 0.0
C449 C 0.04181 0.05882 0.02156 0.0
C450 C 0.99786 1.00535 0.95821 0.0
C451 C 0.96739 1.00278 0.03122 0.0
H452 H 0.05811 0.0335 0.89702 0.0
H453 H 0.99166 0.98739 0.90238 0.0
S454 S 0.97278 0.06243 0.2284 0.0
N455 N 0.01684 0.07909 0.16555 0.0
N456 N 0.94734 1.02737 0.17378 0.0
C457 C 0.97499 1.0279 0.10041 0.0
C458 C 0.01197 0.05617 0.09539 0.0
C459 C 0.51031 0.05712 0.93735 0.0
C460 C 0.54523 0.05742 1.0038 0.0
C461 C 0.47059 0.03222 0.94003 0.0
C462 C 0.46494 1.00668 1.0088 0.0
H463 H 0.51495 0.07491 0.88102 0.0
H464 H 0.44351 0.0334 0.8887 0.0
S465 S 0.54639 0.99738 0.19946 0.0
N466 N 0.57219 1.03067 0.14012 0.0
N467 N 0.49656 0.98417 0.1464 0.0
C468 C 0.49958 1.00687 0.07587 0.0
C469 C 0.53988 0.03233 0.07319 0.0
C470 C 0.02535 0.52749 0.59273 0.0
C471 C 0.03553 0.50322 0.52293 0.0
C472 C 0.98883 0.5549 0.58667 0.0
C473 C 0.96122 0.55878 0.5106 0.0
H474 H 0.04748 0.52644 0.65096 0.0
H475 H 0.98105 0.5722 0.64294 0.0
S476 S 0.97341 0.50247 0.30952 0.0
N477 N 0.01543 0.4851 0.37514 0.0
N478 N 0.94553 0.53612 0.36482 0.0
C479 C 0.97049 0.53441 0.44086 0.0
C480 C 0.00764 0.50651 0.44698 0.0
C481 C 0.49508 0.55532 0.43579 0.0
C482 C 0.45858 0.55596 0.49968 0.0
C483 C 0.53465 0.53064 0.44235 0.0
C484 C 0.53885 0.50593 0.51292 0.0
H485 H 0.49209 0.5729 0.3788 0.0
H486 H 0.56301 0.53162 0.39307 0.0
S487 S 0.45352 0.4983 0.699 0.0
N488 N 0.42873 0.53054 0.63585 0.0
N489 N 0.50443 0.48478 0.64975 0.0
C490 C 0.50265 0.50645 0.57746 0.0
C491 C 0.46227 0.53151 0.57061 0.0
C492 C 0.1414 0.17955 0.64513 0.0
C493 C 0.1419 0.15649 0.71931 0.0
C494 C 0.14349 0.16412 0.56137 0.0
C495 C 0.1465 0.12493 0.54826 0.0
H496 H 0.13798 0.20984 0.65172 0.0
H497 H 0.14072 0.18301 0.50668 0.0
S498 S 0.1565 0.05253 0.7206 0.0
N499 N 0.15114 0.09271 0.77394 0.0
N500 N 0.15441 0.06361 0.61692 0.0
C501 C 0.14915 0.10165 0.62195 0.0
C502 C 0.14707 0.1174 0.70726 0.0
C503 C 0.37465 0.90295 0.55402 0.0
C504 C 0.36921 0.94204 0.54248 0.0
C505 C 0.37771 0.88722 0.63709 0.0
C506 C 0.37576 0.90984 0.71222 0.0
H507 H 0.37831 0.88441 0.49858 0.0
H508 H 0.38279 0.85703 0.64236 0.0
S509 S 0.35569 1.01331 0.71768 0.0
N510 N 0.35825 1.00275 0.61357 0.0
N511 N 0.36322 0.97308 0.76936 0.0
C512 C 0.36861 0.94883 0.70174 0.0
C513 C 0.36559 0.96489 0.61707 0.0
C514 C 0.16306 0.41879 0.96737 0.0
C515 C 0.12664 0.44337 0.99859 0.0
C516 C 0.15949 0.40238 0.88471 0.0
C517 C 0.11944 0.40983 0.8295 0.0
H518 H 0.1951 0.41267 1.00631 0.0
H519 H 0.18876 0.38386 0.86357 0.0
S520 S 0.01178 0.46958 0.88393 0.0
N521 N 0.04782 0.4729 0.96948 0.0
N522 N 0.04066 0.44152 0.81549 0.0
C523 C 0.08225 0.43385 0.86064 0.0
C524 C 0.08602 0.45072 0.94465 0.0
C525 C 0.34235 0.66337 0.84995 0.0
C526 C 0.38198 0.65403 0.79502 0.0
C527 C 0.3377 0.64775 0.933 0.0
C528 C 0.37254 0.6221 0.96459 0.0
H529 H 0.31434 0.68282 0.82838 0.0
H530 H 0.30611 0.65533 0.97197 0.0
S531 S 0.48568 0.59074 0.85069 0.0
N532 N 0.45871 0.61937 0.78167 0.0
N533 N 0.44937 0.5894 0.93626 0.0
C534 C 0.41266 0.61281 0.91089 0.0
C535 C 0.41758 0.62889 0.82661 0.0
C536 C 0.87288 0.94248 0.33646 0.0
C537 C 0.88153 0.90361 0.3269 0.0
C538 C 0.86798 0.95905 0.41872 0.0
C539 C 0.87148 0.9376 0.49527 0.0
H540 H 0.86897 0.96023 0.28 0.0
H541 H 0.86116 0.98909 0.42223 0.0
S542 S 0.89785 0.83489 0.50559 0.0
N543 N 0.89531 0.84421 0.40108 0.0
N544 N 0.88753 0.87538 0.55517 0.0
C545 C 0.88084 0.89869 0.48657 0.0
C546 C 0.88545 0.88177 0.40266 0.0
C547 C 0.66068 0.10867 0.39782 0.0
C548 C 0.65373 0.13052 0.4734 0.0
C549 C 0.65524 0.12411 0.31487 0.0
C550 C 0.64279 0.16218 0.30384 0.0
H551 H 0.67 0.07909 0.40271 0.0
H552 H 0.6612 0.10613 0.25903 0.0
S553 S 0.61795 0.23154 0.479 0.0
N554 N 0.63142 0.19222 0.53055 0.0
N555 N 0.62282 0.22143 0.37495 0.0
C556 C 0.63621 0.18457 0.37843 0.0
C557 C 0.64125 0.16876 0.46306 0.0
C558 C 0.84773 0.64986 0.06836 0.0
C559 C 0.88645 0.62779 0.03549 0.0
C560 C 0.84961 0.66517 0.15235 0.0
C561 C 0.88998 0.65885 0.20749 0.0
H562 H 0.81531 0.65496 0.02971 0.0
H563 H 0.81885 0.68195 0.17456 0.0
S564 S 1.00263 0.6053 0.15103 0.0
N565 N 0.9676 0.60182 0.06427 0.0
N566 N 0.97093 0.63069 0.22102 0.0
C567 C 0.92915 0.63714 0.17533 0.0
C568 C 0.92736 0.6216 0.08984 0.0
C569 C 0.5871 0.42896 0.18473 0.0
C570 C 0.6276 0.40938 0.21833 0.0
C571 C 0.58824 0.44422 0.10113 0.0
C572 C 0.6298 0.44051 0.04719 0.0
H573 H 0.55367 0.43178 0.22226 0.0
H574 H 0.55576 0.45862 0.07809 0.0
S575 S 0.74726 0.39473 0.10752 0.0
N576 N 0.71157 0.38878 0.19292 0.0
N577 N 0.7139 0.41796 0.03638 0.0
C578 C 0.67098 0.42163 0.08058 0.0
C579 C 0.66978 0.40596 0.16583 0.0
loop_
_geom_bond_atom_site_label_1
_geom_bond_atom_site_label_2
_geom_bond_distance
_geom_bond_site_symmetry_2
_ccdc_geom_bond_type
Zn0 N4 2.020 . S
Zn0 O8 2.019 . S
Zn0 N10 2.119 . S
Zn0 O18 1.975 . S
C1 N2 1.334 . S
C1 N5 1.336 . S
N2 C1 1.334 . S
N2 C3 1.334 . S
C3 N2 1.334 . S
C3 N4 1.336 . S
N4 Zn0 2.020 . S
N4 C3 1.336 . S
N4 N5 1.354 . S
N5 C1 1.336 . S
N5 N4 1.354 . S
N5 Zn9 2.020 . S
C6 O7 1.244 . S
C6 O30 1.257 1_554 S
O7 C6 1.244 . S
O8 Zn0 2.019 . S
O8 C28 1.257 . S
Zn9 N5 2.020 . S
Zn9 O16 1.975 . S
Zn9 N25 2.119 1_554 S
Zn9 O30 2.019 1_454 S
N10 Zn0 2.119 . S
N10 C12 1.334 . S
N10 C13 1.328 . S
C11 C12 1.391 . S
C11 N14 1.329 . S
C11 H32 0.930 . S
C12 N10 1.334 . S
C12 C11 1.391 . S
C12 H19 0.930 . S
C13 N10 1.328 . S
C13 C15 1.392 . S
C13 H20 0.930 . S
N14 C11 1.329 . S
N14 C15 1.331 . S
C15 C13 1.392 . S
C15 N14 1.331 . S
O16 Zn9 1.975 . S
O16 C17 1.252 . S
C17 O16 1.252 . S
C17 O18 1.252 . S
O18 Zn0 1.975 . S
O18 C17 1.252 . S
H19 C12 0.930 . S
H20 C13 0.930 . S
C21 C22 1.392 . S
C21 N25 1.328 . S
C21 H27 0.930 . S
C22 C21 1.392 . S
C22 N26 1.331 . S
C23 C24 1.391 . S
C23 N26 1.329 . S
C23 H33 0.930 . S
C24 C23 1.391 . S
C24 N25 1.334 . S
C24 H31 0.930 . S
N25 Zn9 2.119 1_556 S
N25 C21 1.328 . S
N25 C24 1.334 . S
N26 C22 1.331 . S
N26 C23 1.329 . S
H27 C21 0.930 . S
C28 O8 1.257 . S
C28 O29 1.244 . S
O29 C28 1.244 . S
O30 C6 1.257 1_556 S
O30 Zn9 2.019 1_656 S
H31 C24 0.930 . S
H32 C11 0.930 . S
H33 C23 0.930 . S
Zn34 N38 2.020 . S
Zn34 O42 2.019 1_554 S
Zn34 N44 2.119 1_554 S
Zn34 O52 1.975 . S
C35 N36 1.334 . S
C35 N39 1.336 . S
N36 C35 1.334 . S
N36 C37 1.334 . S
C37 N36 1.334 . S
C37 N38 1.336 . S
N38 Zn34 2.020 . S
N38 C37 1.336 . S
N38 N39 1.354 . S
N39 C35 1.336 . S
N39 N38 1.354 . S
N39 Zn43 2.020 . S
C40 O41 1.244 . S
C40 O64 1.257 . S
O41 C40 1.244 . S
O42 Zn34 2.019 1_556 S
O42 C62 1.257 1_556 S
Zn43 N39 2.020 . S
Zn43 O50 1.975 . S
Zn43 N59 2.119 . S
Zn43 O64 2.019 . S
N44 Zn34 2.119 1_556 S
N44 C46 1.334 . S
N44 C47 1.328 . S
C45 C46 1.391 . S
C45 N48 1.329 . S
C45 H66 0.930 . S
C46 N44 1.334 . S
C46 C45 1.391 . S
C46 H53 0.930 . S
C47 N44 1.328 . S
C47 C49 1.392 . S
C47 H54 0.930 . S
N48 C45 1.329 . S
N48 C49 1.331 . S
C49 C47 1.392 . S
C49 N48 1.331 . S
O50 Zn43 1.975 . S
O50 C51 1.252 . S
C51 O50 1.252 . S
C51 O52 1.252 . S
O52 Zn34 1.975 . S
O52 C51 1.252 . S
H53 C46 0.930 . S
H54 C47 0.930 . S
C55 C56 1.392 . S
C55 N59 1.328 . S
C55 H61 0.930 . S
C56 C55 1.392 . S
C56 N60 1.331 . S
C57 C58 1.391 . S
C57 N60 1.329 . S
C57 H67 0.930 . S
C58 C57 1.391 . S
C58 N59 1.334 . S
C58 H65 0.930 . S
N59 Zn43 2.119 . S
N59 C55 1.328 . S
N59 C58 1.334 . S
N60 C56 1.331 . S
N60 C57 1.329 . S
H61 C55 0.930 . S
C62 O42 1.257 1_554 S
C62 O63 1.244 . S
O63 C62 1.244 . S
O64 C40 1.257 . S
O64 Zn43 2.019 . S
H65 C58 0.930 . S
H66 C45 0.930 . S
H67 C57 0.930 . S
Zn68 N72 2.020 . S
Zn68 O76 2.019 . S
Zn68 N78 2.119 . S
Zn68 O86 1.975 . S
C69 N70 1.334 . S
C69 N73 1.336 . S
N70 C69 1.334 . S
N70 C71 1.334 . S
C71 N70 1.334 . S
C71 N72 1.336 . S
N72 Zn68 2.020 . S
N72 C71 1.336 . S
N72 N73 1.354 . S
N73 C69 1.336 . S
N73 N72 1.354 . S
N73 Zn77 2.020 . S
C74 O75 1.244 . S
C74 O98 1.257 . S
O75 C74 1.244 . S
O76 Zn68 2.019 . S
O76 C96 1.257 . S
Zn77 N73 2.020 . S
Zn77 O84 1.975 . S
Zn77 N93 2.119 . S
Zn77 O98 2.019 1_455 S
N78 Zn68 2.119 . S
N78 C80 1.334 . S
N78 C81 1.328 . S
C79 C80 1.391 . S
C79 N82 1.329 . S
C79 H100 0.930 . S
C80 N78 1.334 . S
C80 C79 1.391 . S
C80 H87 0.930 . S
C81 N78 1.328 . S
C81 C83 1.392 . S
C81 H88 0.930 . S
N82 C79 1.329 . S
N82 C83 1.331 . S
C83 C81 1.392 . S
C83 N82 1.331 . S
O84 Zn77 1.975 . S
O84 C85 1.252 . S
C85 O84 1.252 . S
C85 O86 1.252 . S
O86 Zn68 1.975 . S
O86 C85 1.252 . S
H87 C80 0.930 . S
H88 C81 0.930 . S
C89 C90 1.392 . S
C89 N93 1.328 . S
C89 H95 0.930 . S
C90 C89 1.392 . S
C90 N94 1.331 . S
C91 C92 1.391 . S
C91 N94 1.329 . S
C91 H101 0.930 . S
C92 C91 1.391 . S
C92 N93 1.334 . S
C92 H99 0.930 . S
N93 Zn77 2.119 . S
N93 C89 1.328 . S
N93 C92 1.334 . S
N94 C90 1.331 . S
N94 C91 1.329 . S
H95 C89 0.930 . S
C96 O76 1.257 . S
C96 O97 1.244 . S
O97 C96 1.244 . S
O98 C74 1.257 . S
O98 Zn77 2.019 1_655 S
H99 C92 0.930 . S
H100 C79 0.930 . S
H101 C91 0.930 . S
Zn102 N106 2.020 . S
Zn102 O110 2.019 . S
Zn102 N112 2.119 . S
Zn102 O120 1.975 . S
C103 N104 1.334 . S
C103 N107 1.336 . S
N104 C103 1.334 . S
N104 C105 1.334 . S
C105 N104 1.334 . S
C105 N106 1.336 . S
N106 Zn102 2.020 . S
N106 C105 1.336 . S
N106 N107 1.354 . S
N107 C103 1.336 . S
N107 N106 1.354 . S
N107 Zn111 2.020 . S
C108 O109 1.244 . S
C108 O132 1.257 . S
O109 C108 1.244 . S
O110 Zn102 2.019 . S
O110 C130 1.257 . S
Zn111 N107 2.020 . S
Zn111 O118 1.975 . S
Zn111 N127 2.119 . S
Zn111 O132 2.019 . S
N112 Zn102 2.119 . S
N112 C114 1.334 . S
N112 C115 1.328 . S
C113 C114 1.391 . S
C113 N116 1.329 . S
C113 H134 0.930 . S
C114 N112 1.334 . S
C114 C113 1.391 . S
C114 H121 0.930 . S
C115 N112 1.328 . S
C115 C117 1.392 . S
C115 H122 0.930 . S
N116 C113 1.329 . S
N116 C117 1.331 . S
C117 C115 1.392 . S
C117 N116 1.331 . S
O118 Zn111 1.975 . S
O118 C119 1.252 . S
C119 O118 1.252 . S
C119 O120 1.252 . S
O120 Zn102 1.975 . S
O120 C119 1.252 . S
H121 C114 0.930 . S
H122 C115 0.930 . S
C123 C124 1.392 . S
C123 N127 1.328 . S
C123 H129 0.930 . S
C124 C123 1.392 . S
C124 N128 1.331 . S
C125 C126 1.391 . S
C125 N128 1.329 . S
C125 H135 0.930 . S
C126 C125 1.391 . S
C126 N127 1.334 . S
C126 H133 0.930 . S
N127 Zn111 2.119 . S
N127 C123 1.328 . S
N127 C126 1.334 . S
N128 C124 1.331 . S
N128 C125 1.329 . S
H129 C123 0.930 . S
C130 O110 1.257 . S
C130 O131 1.244 . S
O131 C130 1.244 . S
O132 C108 1.257 . S
O132 Zn111 2.019 . S
H133 C126 0.930 . S
H134 C113 0.930 . S
H135 C125 0.930 . S
Zn136 N140 2.020 . S
Zn136 O144 2.019 . S
Zn136 N146 2.119 . S
Zn136 O154 1.975 . S
C137 N138 1.334 . S
C137 N141 1.336 . S
N138 C137 1.334 . S
N138 C139 1.334 . S
C139 N138 1.334 . S
C139 N140 1.336 . S
N140 Zn136 2.020 . S
N140 C139 1.336 . S
N140 N141 1.354 . S
N141 C137 1.336 . S
N141 N140 1.354 . S
N141 Zn145 2.020 . S
C142 O143 1.244 . S
C142 O166 1.257 1_556 S
O143 C142 1.244 . S
O144 Zn136 2.019 . S
O144 C164 1.257 . S
Zn145 N141 2.020 . S
Zn145 O152 1.975 . S
Zn145 N161 2.119 1_556 S
Zn145 O166 2.019 1_656 S
N146 Zn136 2.119 . S
N146 C148 1.334 . S
N146 C149 1.328 . S
C147 C148 1.391 . S
C147 N150 1.329 . S
C147 H168 0.930 . S
C148 N146 1.334 . S
C148 C147 1.391 . S
C148 H155 0.930 . S
C149 N146 1.328 . S
C149 C151 1.392 . S
C149 H156 0.930 . S
N150 C147 1.329 . S
N150 C151 1.331 . S
C151 C149 1.392 . S
C151 N150 1.331 . S
O152 Zn145 1.975 . S
O152 C153 1.252 . S
C153 O152 1.252 . S
C153 O154 1.252 . S
O154 Zn136 1.975 . S
O154 C153 1.252 . S
H155 C148 0.930 . S
H156 C149 0.930 . S
C157 C158 1.392 . S
C157 N161 1.328 . S
C157 H163 0.930 . S
C158 C157 1.392 . S
C158 N162 1.331 . S
C159 C160 1.391 . S
C159 N162 1.329 . S
C159 H169 0.930 . S
C160 C159 1.391 . S
C160 N161 1.334 . S
C160 H167 0.930 . S
N161 Zn145 2.119 1_554 S
N161 C157 1.328 . S
N161 C160 1.334 . S
N162 C158 1.331 . S
N162 C159 1.329 . S
H163 C157 0.930 . S
C164 O144 1.257 . S
C164 O165 1.244 . S
O165 C164 1.244 . S
O166 C142 1.257 1_554 S
O166 Zn145 2.019 1_454 S
H167 C160 0.930 . S
H168 C147 0.930 . S
H169 C159 0.930 . S
Zn170 N174 2.020 . S
Zn170 O178 2.019 1_556 S
Zn170 N180 2.119 1_556 S
Zn170 O188 1.975 . S
C171 N172 1.334 . S
C171 N175 1.336 . S
N172 C171 1.334 . S
N172 C173 1.334 . S
C173 N172 1.334 . S
C173 N174 1.336 . S
N174 Zn170 2.020 . S
N174 C173 1.336 . S
N174 N175 1.354 . S
N175 C171 1.336 . S
N175 N174 1.354 . S
N175 Zn179 2.020 . S
C176 O177 1.244 . S
C176 O200 1.257 . S
O177 C176 1.244 . S
O178 Zn170 2.019 1_554 S
O178 C198 1.257 1_554 S
Zn179 N175 2.020 . S
Zn179 O186 1.975 . S
Zn179 N195 2.119 . S
Zn179 O200 2.019 . S
N180 Zn170 2.119 1_554 S
N180 C182 1.334 . S
N180 C183 1.328 . S
C181 C182 1.391 . S
C181 N184 1.329 . S
C181 H202 0.930 . S
C182 N180 1.334 . S
C182 C181 1.391 . S
C182 H189 0.930 . S
C183 N180 1.328 . S
C183 C185 1.392 . S
C183 H190 0.930 . S
N184 C181 1.329 . S
N184 C185 1.331 . S
C185 C183 1.392 . S
C185 N184 1.331 . S
O186 Zn179 1.975 . S
O186 C187 1.252 . S
C187 O186 1.252 . S
C187 O188 1.252 . S
O188 Zn170 1.975 . S
O188 C187 1.252 . S
H189 C182 0.930 . S
H190 C183 0.930 . S
C191 C192 1.392 . S
C191 N195 1.328 . S
C191 H197 0.930 . S
C192 C191 1.392 . S
C192 N196 1.331 . S
C193 C194 1.391 . S
C193 N196 1.329 . S
C193 H203 0.930 . S
C194 C193 1.391 . S
C194 N195 1.334 . S
C194 H201 0.930 . S
N195 Zn179 2.119 . S
N195 C191 1.328 . S
N195 C194 1.334 . S
N196 C192 1.331 . S
N196 C193 1.329 . S
H197 C191 0.930 . S
C198 O178 1.257 1_556 S
C198 O199 1.244 . S
O199 C198 1.244 . S
O200 C176 1.257 . S
O200 Zn179 2.019 . S
H201 C194 0.930 . S
H202 C181 0.930 . S
H203 C193 0.930 . S
Zn204 N208 2.020 . S
Zn204 O212 2.019 . S
Zn204 N214 2.119 . S
Zn204 O222 1.975 . S
C205 N206 1.334 . S
C205 N209 1.336 . S
N206 C205 1.334 . S
N206 C207 1.334 . S
C207 N206 1.334 . S
C207 N208 1.336 . S
N208 Zn204 2.020 . S
N208 C207 1.336 . S
N208 N209 1.354 . S
N209 C205 1.336 . S
N209 N208 1.354 . S
N209 Zn213 2.020 . S
C210 O211 1.244 . S
C210 O234 1.257 . S
O211 C210 1.244 . S
O212 Zn204 2.019 . S
O212 C232 1.257 . S
Zn213 N209 2.020 . S
Zn213 O220 1.975 . S
Zn213 N229 2.119 . S
Zn213 O234 2.019 1_655 S
N214 Zn204 2.119 . S
N214 C216 1.334 . S
N214 C217 1.328 . S
C215 C216 1.391 . S
C215 N218 1.329 . S
C215 H236 0.930 . S
C216 N214 1.334 . S
C216 C215 1.391 . S
C216 H223 0.930 . S
C217 N214 1.328 . S
C217 C219 1.392 . S
C217 H224 0.930 . S
N218 C215 1.329 . S
N218 C219 1.331 . S
C219 C217 1.392 . S
C219 N218 1.331 . S
O220 Zn213 1.975 . S
O220 C221 1.252 . S
C221 O220 1.252 . S
C221 O222 1.252 . S
O222 Zn204 1.975 . S
O222 C221 1.252 . S
H223 C216 0.930 . S
H224 C217 0.930 . S
C225 C226 1.392 . S
C225 N229 1.328 . S
C225 H231 0.930 . S
C226 C225 1.392 . S
C226 N230 1.331 . S
C227 C228 1.391 . S
C227 N230 1.329 . S
C227 H237 0.930 . S
C228 C227 1.391 . S
C228 N229 1.334 . S
C228 H235 0.930 . S
N229 Zn213 2.119 . S
N229 C225 1.328 . S
N229 C228 1.334 . S
N230 C226 1.331 . S
N230 C227 1.329 . S
H231 C225 0.930 . S
C232 O212 1.257 . S
C232 O233 1.244 . S
O233 C232 1.244 . S
O234 C210 1.257 . S
O234 Zn213 2.019 1_455 S
H235 C228 0.930 . S
H236 C215 0.930 . S
H237 C227 0.930 . S
Zn238 N242 2.020 . S
Zn238 O246 2.019 . S
Zn238 N248 2.119 . S
Zn238 O256 1.975 . S
C239 N240 1.334 . S
C239 N243 1.336 . S
N240 C239 1.334 . S
N240 C241 1.334 . S
C241 N240 1.334 . S
C241 N242 1.336 . S
N242 Zn238 2.020 . S
N242 C241 1.336 . S
N242 N243 1.354 . S
N243 C239 1.336 . S
N243 N242 1.354 . S
N243 Zn247 2.020 . S
C244 O245 1.244 . S
C244 O268 1.257 . S
O245 C244 1.244 . S
O246 Zn238 2.019 . S
O246 C266 1.257 . S
Zn247 N243 2.020 . S
Zn247 O254 1.975 . S
Zn247 N263 2.119 . S
Zn247 O268 2.019 . S
N248 Zn238 2.119 . S
N248 C250 1.334 . S
N248 C251 1.328 . S
C249 C250 1.391 . S
C249 N252 1.329 . S
C249 H270 0.930 . S
C250 N248 1.334 . S
C250 C249 1.391 . S
C250 H257 0.930 . S
C251 N248 1.328 . S
C251 C253 1.392 . S
C251 H258 0.930 . S
N252 C249 1.329 . S
N252 C253 1.331 . S
C253 C251 1.392 . S
C253 N252 1.331 . S
O254 Zn247 1.975 . S
O254 C255 1.252 . S
C255 O254 1.252 . S
C255 O256 1.252 . S
O256 Zn238 1.975 . S
O256 C255 1.252 . S
H257 C250 0.930 . S
H258 C251 0.930 . S
C259 C260 1.392 . S
C259 N263 1.328 . S
C259 H265 0.930 . S
C260 C259 1.392 . S
C260 N264 1.331 . S
C261 C262 1.391 . S
C261 N264 1.329 . S
C261 H271 0.930 . S
C262 C261 1.391 . S
C262 N263 1.334 . S
C262 H269 0.930 . S
N263 Zn247 2.119 . S
N263 C259 1.328 . S
N263 C262 1.334 . S
N264 C260 1.331 . S
N264 C261 1.329 . S
H265 C259 0.930 . S
C266 O246 1.257 . S
C266 O267 1.244 . S
O267 C266 1.244 . S
O268 C244 1.257 . S
O268 Zn247 2.019 . S
H269 C262 0.930 . S
H270 C249 0.930 . S
H271 C261 0.930 . S
C272 C273 1.369 1_554 S
C272 C274 1.419 . S
C272 H276 0.930 . S
C273 C272 1.369 1_556 S
C273 C282 1.429 . S
C274 C272 1.419 . S
C274 C275 1.363 . S
C274 H277 0.929 . S
C275 C274 1.363 . S
C275 C281 1.428 . S
H276 C272 0.930 . S
H277 C274 0.929 . S
S278 N279 1.613 . S
S278 N280 1.610 . S
N279 S278 1.613 . S
N279 C282 1.350 . S
N280 S278 1.610 . S
N280 C281 1.351 1_556 S
C281 C275 1.428 . S
C281 N280 1.351 1_554 S
C281 C282 1.434 1_554 S
C282 C273 1.429 . S
C282 N279 1.350 . S
C282 C281 1.434 1_556 S
C283 C284 1.369 . S
C283 C285 1.419 . S
C283 H287 0.930 . S
C284 C283 1.369 . S
C284 C293 1.429 . S
C285 C283 1.419 . S
C285 C286 1.363 1_554 S
C285 H288 0.929 . S
C286 C285 1.363 1_556 S
C286 C292 1.428 . S
H287 C283 0.930 . S
H288 C285 0.929 . S
S289 N290 1.613 1_556 S
S289 N291 1.610 . S
N290 S289 1.613 1_554 S
N290 C293 1.350 . S
N291 S289 1.610 . S
N291 C292 1.351 . S
C292 C286 1.428 . S
C292 N291 1.351 . S
C292 C293 1.434 1_556 S
C293 C284 1.429 . S
C293 N290 1.350 . S
C293 C292 1.434 1_554 S
C294 C295 1.369 . S
C294 C296 1.419 . S
C294 H298 0.930 . S
C295 C294 1.369 . S
C295 C304 1.429 . S
C296 C294 1.419 . S
C296 C297 1.363 . S
C296 H299 0.929 . S
C297 C296 1.363 . S
C297 C303 1.428 . S
H298 C294 0.930 . S
H299 C296 0.929 . S
S300 N301 1.613 . S
S300 N302 1.610 . S
N301 S300 1.613 . S
N301 C304 1.350 . S
N302 S300 1.610 . S
N302 C303 1.351 . S
C303 C297 1.428 . S
C303 N302 1.351 . S
C303 C304 1.434 . S
C304 C295 1.429 . S
C304 N301 1.350 . S
C304 C303 1.434 . S
C305 C306 1.369 . S
C305 C307 1.419 . S
C305 H309 0.930 . S
C306 C305 1.369 . S
C306 C315 1.429 . S
C307 C305 1.419 . S
C307 C308 1.363 . S
C307 H310 0.929 . S
C308 C307 1.363 . S
C308 C314 1.428 . S
H309 C305 0.930 . S
H310 C307 0.929 . S
S311 N312 1.613 . S
S311 N313 1.610 . S
N312 S311 1.613 . S
N312 C315 1.350 . S
N313 S311 1.610 . S
N313 C314 1.351 . S
C314 C308 1.428 . S
C314 N313 1.351 . S
C314 C315 1.434 . S
C315 C306 1.429 . S
C315 N312 1.350 . S
C315 C314 1.434 . S
C316 C317 1.369 . S
C316 C318 1.419 . S
C316 H320 0.930 . S
C317 C316 1.369 . S
C317 C326 1.429 . S
C318 C316 1.419 . S
C318 C319 1.363 1_556 S
C318 H321 0.929 . S
C319 C318 1.363 1_554 S
C319 C325 1.428 . S
H320 C316 0.930 . S
H321 C318 0.929 . S
S322 N323 1.613 . S
S322 N324 1.610 . S
N323 S322 1.613 . S
N323 C326 1.350 1_554 S
N324 S322 1.610 . S
N324 C325 1.351 . S
C325 C319 1.428 . S
C325 N324 1.351 . S
C325 C326 1.434 1_554 S
C326 C317 1.429 . S
C326 N323 1.350 1_556 S
C326 C325 1.434 1_556 S
C327 C328 1.369 . S
C327 C329 1.419 . S
C327 H331 0.930 . S
C328 C327 1.369 . S
C328 C337 1.429 . S
C329 C327 1.419 . S
C329 C330 1.363 1_556 S
C329 H332 0.929 . S
C330 C329 1.363 1_554 S
C330 C336 1.428 . S
H331 C327 0.930 . S
H332 C329 0.929 . S
S333 N334 1.613 . S
S333 N335 1.610 . S
N334 S333 1.613 . S
N334 C337 1.350 1_554 S
N335 S333 1.610 . S
N335 C336 1.351 . S
C336 C330 1.428 . S
C336 N335 1.351 . S
C336 C337 1.434 1_554 S
C337 C328 1.429 . S
C337 N334 1.350 1_556 S
C337 C336 1.434 1_556 S
C338 C339 1.369 . S
C338 C340 1.419 . S
C338 H342 0.930 . S
C339 C338 1.369 . S
C339 C348 1.429 . S
C340 C338 1.419 . S
C340 C341 1.363 . S
C340 H343 0.929 . S
C341 C340 1.363 . S
C341 C347 1.428 . S
H342 C338 0.930 . S
H343 C340 0.929 . S
S344 N345 1.613 . S
S344 N346 1.610 . S
N345 S344 1.613 . S
N345 C348 1.350 . S
N346 S344 1.610 . S
N346 C347 1.351 . S
C347 C341 1.428 . S
C347 N346 1.351 . S
C347 C348 1.434 . S
C348 C339 1.429 . S
C348 N345 1.350 . S
C348 C347 1.434 . S
C349 C350 1.369 . S
C349 C351 1.419 . S
C349 H353 0.930 . S
C350 C349 1.369 . S
C350 C359 1.429 . S
C351 C349 1.419 . S
C351 C352 1.363 . S
C351 H354 0.929 . S
C352 C351 1.363 . S
C352 C358 1.428 . S
H353 C349 0.930 . S
H354 C351 0.929 . S
S355 N356 1.613 . S
S355 N357 1.610 . S
N356 S355 1.613 . S
N356 C359 1.350 . S
N357 S355 1.610 . S
N357 C358 1.351 . S
C358 C352 1.428 . S
C358 N357 1.351 . S
C358 C359 1.434 . S
C359 C350 1.429 . S
C359 N356 1.350 . S
C359 C358 1.434 . S
C360 C361 1.369 . S
C360 C362 1.419 . S
C360 H364 0.930 . S
C361 C360 1.369 . S
C361 C370 1.429 . S
C362 C360 1.419 . S
C362 C363 1.363 . S
C362 H365 0.929 . S
C363 C362 1.363 . S
C363 C369 1.428 . S
H364 C360 0.930 . S
H365 C362 0.929 . S
S366 N367 1.613 . S
S366 N368 1.610 . S
N367 S366 1.613 . S
N367 C370 1.350 . S
N368 S366 1.610 . S
N368 C369 1.351 . S
C369 C363 1.428 . S
C369 N368 1.351 . S
C369 C370 1.434 . S
C370 C361 1.429 . S
C370 N367 1.350 . S
C370 C369 1.434 . S
C371 C372 1.369 . S
C371 C373 1.419 . S
C371 H375 0.930 . S
C372 C371 1.369 . S
C372 C381 1.429 . S
C373 C371 1.419 . S
C373 C374 1.363 . S
C373 H376 0.929 . S
C374 C373 1.363 . S
C374 C380 1.428 . S
H375 C371 0.930 . S
H376 C373 0.929 . S
S377 N378 1.613 . S
S377 N379 1.610 . S
N378 S377 1.613 . S
N378 C381 1.350 . S
N379 S377 1.610 . S
N379 C380 1.351 . S
C380 C374 1.428 . S
C380 N379 1.351 . S
C380 C381 1.434 . S
C381 C372 1.429 . S
C381 N378 1.350 . S
C381 C380 1.434 . S
C382 C383 1.369 . S
C382 C384 1.419 . S
C382 H386 0.930 . S
C383 C382 1.369 . S
C383 C392 1.429 . S
C384 C382 1.419 . S
C384 C385 1.363 . S
C384 H387 0.929 . S
C385 C384 1.363 . S
C385 C391 1.428 . S
H386 C382 0.930 . S
H387 C384 0.929 . S
S388 N389 1.613 . S
S388 N390 1.610 . S
N389 S388 1.613 . S
N389 C392 1.350 . S
N390 S388 1.610 . S
N390 C391 1.351 . S
C391 C385 1.428 . S
C391 N390 1.351 . S
C391 C392 1.434 . S
C392 C383 1.429 . S
C392 N389 1.350 . S
C392 C391 1.434 . S
C393 C394 1.369 . S
C393 C395 1.419 . S
C393 H397 0.930 . S
C394 C393 1.369 . S
C394 C403 1.429 . S
C395 C393 1.419 . S
C395 C396 1.363 . S
C395 H398 0.929 . S
C396 C395 1.363 . S
C396 C402 1.428 . S
H397 C393 0.930 . S
H398 C395 0.929 . S
S399 N400 1.613 . S
S399 N401 1.610 . S
N400 S399 1.613 . S
N400 C403 1.350 . S
N401 S399 1.610 . S
N401 C402 1.351 . S
C402 C396 1.428 . S
C402 N401 1.351 . S
C402 C403 1.434 . S
C403 C394 1.429 . S
C403 N400 1.350 . S
C403 C402 1.434 . S
C404 C405 1.369 . S
C404 C406 1.419 1_565 S
C404 H408 0.936 . S
C405 C404 1.369 . S
C405 C414 1.429 . S
C406 C404 1.419 1_545 S
C406 C407 1.363 . S
C406 H409 0.935 . S
C407 C406 1.363 . S
C407 C413 1.428 . S
H408 C404 0.936 . S
H409 C406 0.935 . S
S410 N411 1.613 . S
S410 N412 1.610 1_565 S
N411 S410 1.613 . S
N411 C414 1.350 . S
N412 S410 1.610 1_545 S
N412 C413 1.351 . S
C413 C407 1.428 . S
C413 N412 1.351 . S
C413 C414 1.434 1_545 S
C414 C405 1.429 . S
C414 N411 1.350 . S
C414 C413 1.434 1_565 S
C415 C416 1.369 . S
C415 C417 1.419 . S
C415 H419 0.930 . S
C416 C415 1.369 . S
C416 C425 1.429 . S
C417 C415 1.419 . S
C417 C418 1.363 . S
C417 H420 0.929 . S
C418 C417 1.363 . S
C418 C424 1.428 . S
H419 C415 0.930 . S
H420 C417 0.929 . S
S421 N422 1.613 . S
S421 N423 1.610 . S
N422 S421 1.613 . S
N422 C425 1.350 . S
N423 S421 1.610 . S
N423 C424 1.351 . S
C424 C418 1.428 . S
C424 N423 1.351 . S
C424 C425 1.434 . S
C425 C416 1.429 . S
C425 N422 1.350 . S
C425 C424 1.434 . S
C426 C427 1.369 1_565 S
C426 C428 1.419 . S
C426 H430 0.930 . S
C427 C426 1.369 1_545 S
C427 C436 1.429 . S
C428 C426 1.419 . S
C428 C429 1.363 . S
C428 H431 0.929 . S
C429 C428 1.363 . S
C429 C435 1.428 1_565 S
H430 C426 0.930 . S
H431 C428 0.929 . S
S432 N433 1.613 1_554 S
S432 N434 1.610 1_554 S
N433 S432 1.613 1_556 S
N433 C436 1.350 . S
N434 S432 1.610 1_556 S
N434 C435 1.351 . S
C435 C429 1.428 1_545 S
C435 N434 1.351 . S
C435 C436 1.434 . S
C436 C427 1.429 . S
C436 N433 1.350 . S
C436 C435 1.434 . S
C437 C438 1.369 . S
C437 C439 1.419 . S
C437 H441 0.930 . S
C438 C437 1.369 . S
C438 C447 1.429 . S
C439 C437 1.419 . S
C439 C440 1.363 . S
C439 H442 0.929 . S
C440 C439 1.363 . S
C440 C446 1.428 . S
H441 C437 0.930 . S
H442 C439 0.929 . S
S443 N444 1.613 . S
S443 N445 1.610 . S
N444 S443 1.613 . S
N444 C447 1.350 . S
N445 S443 1.610 . S
N445 C446 1.351 . S
C446 C440 1.428 . S
C446 N445 1.351 . S
C446 C447 1.434 . S
C447 C438 1.429 . S
C447 N444 1.350 . S
C447 C446 1.434 . S
C448 C449 1.352 1_566 S
C448 C450 1.435 . S
C448 H452 0.932 . S
C449 C448 1.352 1_544 S
C449 C458 1.429 1_455 S
C450 C448 1.435 . S
C450 C451 1.363 1_455 S
C450 H453 0.929 . S
C451 C450 1.363 1_655 S
C451 C457 1.428 1_566 S
H452 C448 0.932 . S
H453 C450 0.929 . S
S454 N455 1.613 . S
S454 N456 1.610 . S
N455 S454 1.613 . S
N455 C458 1.350 . S
N456 S454 1.610 . S
N456 C457 1.351 . S
C457 C451 1.428 1_544 S
C457 N456 1.351 . S
C457 C458 1.434 . S
C458 C449 1.429 1_655 S
C458 N455 1.350 . S
C458 C457 1.434 . S
C459 C460 1.369 . S
C459 C461 1.419 . S
C459 H463 0.930 . S
C460 C459 1.369 . S
C460 C469 1.429 1_546 S
C461 C459 1.419 . S
C461 C462 1.363 1_546 S
C461 H464 0.929 . S
C462 C461 1.363 1_564 S
C462 C468 1.428 . S
H463 C459 0.930 . S
H464 C461 0.929 . S
S465 N466 1.613 . S
S465 N467 1.610 . S
N466 S465 1.613 . S
N466 C469 1.350 . S
N467 S465 1.610 . S
N467 C468 1.351 . S
C468 C462 1.428 . S
C468 N467 1.351 . S
C468 C469 1.434 . S
C469 C460 1.429 1_564 S
C469 N466 1.350 . S
C469 C468 1.434 . S
C470 C471 1.369 . S
C470 C472 1.419 1_455 S
C470 H474 0.930 . S
C471 C470 1.369 . S
C471 C480 1.429 . S
C472 C470 1.419 1_655 S
C472 C473 1.363 . S
C472 H475 0.929 . S
C473 C472 1.363 . S
C473 C479 1.428 . S
H474 C470 0.930 . S
H475 C472 0.929 . S
S476 N477 1.613 1_655 S
S476 N478 1.610 . S
N477 S476 1.613 1_455 S
N477 C480 1.350 . S
N478 S476 1.610 . S
N478 C479 1.351 . S
C479 C473 1.428 . S
C479 N478 1.351 . S
C479 C480 1.434 1_655 S
C480 C471 1.429 . S
C480 N477 1.350 . S
C480 C479 1.434 1_455 S
C481 C482 1.369 . S
C481 C483 1.419 . S
C481 H485 0.930 . S
C482 C481 1.369 . S
C482 C491 1.429 . S
C483 C481 1.419 . S
C483 C484 1.363 . S
C483 H486 0.929 . S
C484 C483 1.363 . S
C484 C490 1.428 . S
H485 C481 0.930 . S
H486 C483 0.929 . S
S487 N488 1.613 . S
S487 N489 1.610 . S
N488 S487 1.613 . S
N488 C491 1.350 . S
N489 S487 1.610 . S
N489 C490 1.351 . S
C490 C484 1.428 . S
C490 N489 1.351 . S
C490 C491 1.434 . S
C491 C482 1.429 . S
C491 N488 1.350 . S
C491 C490 1.434 . S
C492 C493 1.369 . S
C492 C494 1.419 . S
C492 H496 0.930 . S
C493 C492 1.369 . S
C493 C502 1.429 . S
C494 C492 1.419 . S
C494 C495 1.363 . S
C494 H497 0.929 . S
C495 C494 1.363 . S
C495 C501 1.428 . S
H496 C492 0.930 . S
H497 C494 0.929 . S
S498 N499 1.613 . S
S498 N500 1.610 . S
N499 S498 1.613 . S
N499 C502 1.350 . S
N500 S498 1.610 . S
N500 C501 1.351 . S
C501 C495 1.428 . S
C501 N500 1.351 . S
C501 C502 1.434 . S
C502 C493 1.429 . S
C502 N499 1.350 . S
C502 C501 1.434 . S
C503 C504 1.369 . S
C503 C505 1.419 . S
C503 H507 0.930 . S
C504 C503 1.369 . S
C504 C513 1.429 . S
C505 C503 1.419 . S
C505 C506 1.363 . S
C505 H508 0.929 . S
C506 C505 1.363 . S
C506 C512 1.428 . S
H507 C503 0.930 . S
H508 C505 0.929 . S
S509 N510 1.613 . S
S509 N511 1.610 . S
N510 S509 1.613 . S
N510 C513 1.350 . S
N511 S509 1.610 . S
N511 C512 1.351 . S
C512 C506 1.428 . S
C512 N511 1.351 . S
C512 C513 1.434 . S
C513 C504 1.429 . S
C513 N510 1.350 . S
C513 C512 1.434 . S
C514 C515 1.369 . S
C514 C516 1.419 . S
C514 H518 0.930 . S
C515 C514 1.369 . S
C515 C524 1.429 . S
C516 C514 1.419 . S
C516 C517 1.363 . S
C516 H519 0.929 . S
C517 C516 1.363 . S
C517 C523 1.428 . S
H518 C514 0.930 . S
H519 C516 0.929 . S
S520 N521 1.613 . S
S520 N522 1.610 1_554 S
N521 S520 1.613 . S
N521 C524 1.350 1_554 S
N522 S520 1.610 1_556 S
N522 C523 1.351 . S
C523 C517 1.428 . S
C523 N522 1.351 . S
C523 C524 1.434 . S
C524 C515 1.429 . S
C524 N521 1.350 1_556 S
C524 C523 1.434 . S
C525 C526 1.369 . S
C525 C527 1.419 . S
C525 H529 0.930 . S
C526 C525 1.369 . S
C526 C535 1.429 . S
C527 C525 1.419 . S
C527 C528 1.363 . S
C527 H530 0.929 . S
C528 C527 1.363 . S
C528 C534 1.428 . S
H529 C525 0.930 . S
H530 C527 0.929 . S
S531 N532 1.613 1_554 S
S531 N533 1.610 . S
N532 S531 1.613 1_556 S
N532 C535 1.350 . S
N533 S531 1.610 . S
N533 C534 1.351 1_554 S
C534 C528 1.428 . S
C534 N533 1.351 1_556 S
C534 C535 1.434 . S
C535 C526 1.429 . S
C535 N532 1.350 . S
C535 C534 1.434 . S
C536 C537 1.369 . S
C536 C538 1.419 . S
C536 H540 0.930 . S
C537 C536 1.369 . S
C537 C546 1.429 . S
C538 C536 1.419 . S
C538 C539 1.363 . S
C538 H541 0.929 . S
C539 C538 1.363 . S
C539 C545 1.428 . S
H540 C536 0.930 . S
H541 C538 0.929 . S
S542 N543 1.613 . S
S542 N544 1.610 . S
N543 S542 1.613 . S
N543 C546 1.350 . S
N544 S542 1.610 . S
N544 C545 1.351 . S
C545 C539 1.428 . S
C545 N544 1.351 . S
C545 C546 1.434 . S
C546 C537 1.429 . S
C546 N543 1.350 . S
C546 C545 1.434 . S
C547 C548 1.369 . S
C547 C549 1.419 . S
C547 H551 0.930 . S
C548 C547 1.369 . S
C548 C557 1.429 . S
C549 C547 1.419 . S
C549 C550 1.363 . S
C549 H552 0.929 . S
C550 C549 1.363 . S
C550 C556 1.428 . S
H551 C547 0.930 . S
H552 C549 0.929 . S
S553 N554 1.613 . S
S553 N555 1.610 . S
N554 S553 1.613 . S
N554 C557 1.350 . S
N555 S553 1.610 . S
N555 C556 1.351 . S
C556 C550 1.428 . S
C556 N555 1.351 . S
C556 C557 1.434 . S
C557 C548 1.429 . S
C557 N554 1.350 . S
C557 C556 1.434 . S
C558 C559 1.369 . S
C558 C560 1.419 . S
C558 H562 0.930 . S
C559 C558 1.369 . S
C559 C568 1.429 . S
C560 C558 1.419 . S
C560 C561 1.363 . S
C560 H563 0.929 . S
C561 C560 1.363 . S
C561 C567 1.428 . S
H562 C558 0.930 . S
H563 C560 0.929 . S
S564 N565 1.613 . S
S564 N566 1.610 1_556 S
N565 S564 1.613 . S
N565 C568 1.350 1_556 S
N566 S564 1.610 1_554 S
N566 C567 1.351 . S
C567 C561 1.428 . S
C567 N566 1.351 . S
C567 C568 1.434 . S
C568 C559 1.429 . S
C568 N565 1.350 1_554 S
C568 C567 1.434 . S
C569 C570 1.369 . S
C569 C571 1.419 . S
C569 H573 0.930 . S
C570 C569 1.369 . S
C570 C579 1.429 . S
C571 C569 1.419 . S
C571 C572 1.363 . S
C571 H574 0.929 1_554 S
C572 C571 1.363 . S
C572 C578 1.428 . S
H573 C569 0.930 . S
H574 C571 0.929 1_556 S
S575 N576 1.613 . S
S575 N577 1.610 . S
N576 S575 1.613 . S
N576 C579 1.350 . S
N577 S575 1.610 . S
N577 C578 1.351 . S
C578 C572 1.428 . S
C578 N577 1.351 . S
C578 C579 1.434 . S
C579 C570 1.429 . S
C579 N576 1.350 . S
C579 C578 1.434 . S
C273 C198 1.680 . S
C275 C28 1.639 . S
C284 C40 1.639 . S
C286 C142 1.678 . S
C295 C244 1.673 . S
C297 C96 1.645 . S
C306 C210 1.677 . S
C308 C108 1.642 . S
C317 C164 1.640 . S
C319 C62 1.678 . S
C328 C176 1.637 . S
C330 C6 1.679 . S
C339 C232 1.644 . S
C341 C130 1.676 . S
C350 C266 1.647 . S
C352 C74 1.672 . S
C361 C85 1.877 . S
C363 C17 1.885 . S
C372 C119 1.879 . S
C374 C51 1.883 . S
C383 C153 1.884 . S
C385 C221 1.879 . S
C394 C187 1.886 . S
C396 C255 1.878 . S
C405 C35 1.773 . S
C407 C3 1.771 . S
C416 C71 1.767 . S
C418 C103 1.771 . S
C427 C171 1.770 . S
C429 C139 1.767 . S
C438 C241 1.768 . S
C440 C207 1.772 . S
C449 C1 1.880 . S
C451 C137 1.884 . S
C460 C173 1.878 . S
C462 C37 1.885 . S
C471 C69 1.878 . S
C473 C205 1.885 . S
C482 C105 1.882 . S
C484 C239 1.882 . S
C493 C22 1.610 . S
C495 C15 1.618 . S
C504 C56 1.627 . S
C506 C49 1.601 . S
C515 C83 1.613 1_556 S
C517 C90 1.612 . S
C526 C117 1.613 . S
C528 C124 1.616 1_556 S
C537 C158 1.605 . S
C539 C151 1.622 . S
C548 C192 1.618 . S
C550 C185 1.609 . S
C559 C219 1.616 1_554 S
C561 C226 1.610 . S
C570 C260 1.598 . S
C572 C253 1.627 1_554 S
