# Generated by pormake.
# Topology dia, (4)-cn, num edge types: 1
# Building blocks:
#     Node 0, Type 0, BuildingBlock: QUQFOY_clean_sbu_3, # of connection points: 4
#     Node 1, Type 0, BuildingBlock: QUQFOY_clean_sbu_3, # of connection points: 4
#     Node 2, Type 0, BuildingBlock: QUQFOY_clean_sbu_3, # of connection points: 4
#     Node 3, Type 0, BuildingBlock: QUQFOY_clean_sbu_3, # of connection points: 4
#     Node 4, Type 0, BuildingBlock: QUQFOY_clean_sbu_3, # of connection points: 4
#     Node 5, Type 0, BuildingBlock: QUQFOY_clean_sbu_3, # of connection points: 4
#     Node 6, Type 0, BuildingBlock: QUQFOY_clean_sbu_3, # of connection points: 4
#     Node 7, Type 0, BuildingBlock: QUQFOY_clean_sbu_3, # of connection points: 4
#     Edge 8, Type (0, 0), BuildingBlock: AJUNOK_clean_linker_0, # of connection points: 2
#     Edge 9, Type (0, 0), BuildingBlock: AJUNOK_clean_linker_0, # of connection points: 2
#     Edge 10, Type (0, 0), BuildingBlock: AJUNOK_clean_linker_0, # of connection points: 2
#     Edge 11, Type (0, 0), BuildingBlock: AJUNOK_clean_linker_0, # of connection points: 2
#     Edge 12, Type (0, 0), BuildingBlock: AJUNOK_clean_linker_0, # of connection points: 2
#     Edge 13, Type (0, 0), BuildingBlock: AJUNOK_clean_linker_0, # of connection points: 2
#     Edge 14, Type (0, 0), BuildingBlock: AJUNOK_clean_linker_0, # of connection points: 2
#     Edge 15, Type (0, 0), BuildingBlock: AJUNOK_clean_linker_0, # of connection points: 2
#     Edge 16, Type (0, 0), BuildingBlock: AJUNOK_clean_linker_0, # of connection points: 2
#     Edge 17, Type (0, 0), BuildingBlock: AJUNOK_clean_linker_0, # of connection points: 2
#     Edge 18, Type (0, 0), BuildingBlock: AJUNOK_clean_linker_0, # of connection points: 2
#     Edge 19, Type (0, 0), BuildingBlock: AJUNOK_clean_linker_0, # of connection points: 2
#     Edge 20, Type (0, 0), BuildingBlock: AJUNOK_clean_linker_0, # of connection points: 2
#     Edge 21, Type (0, 0), BuildingBlock: AJUNOK_clean_linker_0, # of connection points: 2
#     Edge 22, Type (0, 0), BuildingBlock: AJUNOK_clean_linker_0, # of connection points: 2
#     Edge 23, Type (0, 0), BuildingBlock: AJUNOK_clean_linker_0, # of connection points: 2
# Relax obj value: 0.120
# Max RMSD: 0.163
# Mean RMSD: 0.163
data_MOF--net-dia--node1-QUQFOY_clean_sbu_3--edge1-AJUNOK_clean_linker_0
_symmetry_space_group_name_H-M    P1
_symmetry_Int_Tables_number       1
_symmetry_cell_setting            triclinic
loop_
_symmetry_equiv_pos_as_xyz
'x, y, z'
_cell_length_a     25.766292
_cell_length_b     25.608454
_cell_length_c     30.135524
_cell_angle_alpha  90.14292
_cell_angle_beta   90.220656
_cell_angle_gamma 93.516031
loop_
_atom_site_label
_atom_site_type_symbol
_atom_site_fract_x
_atom_site_fract_y
_atom_site_fract_z
_atom_type_partial_charge
C0 C 0.02286 0.17975 0.64012 0.0
O1 O 0.00302 0.18162 0.6015 0.0
Cd2 Cd 0.02687 0.13008 0.53898 0.0
O3 O 0.06067 0.15117 0.64808 0.0
Cd4 Cd 0.11709 0.09043 0.60904 0.0
C5 C 0.15398 0.17722 0.52735 0.0
O6 O 0.04326 0.04913 0.57248 0.0
O7 O 0.11523 0.01628 0.55549 0.0
O8 O 0.12204 0.05131 0.68219 0.0
C9 C 0.06645 0.01604 0.55007 0.0
O10 O 0.10832 0.17029 0.51123 0.0
C11 C 0.17004 0.04301 0.68038 0.0
O12 O 0.16619 0.15681 0.56424 0.0
O13 O 0.1939 0.05709 0.64516 0.0
C14 C 0.79608 0.45607 0.81412 0.0
O15 O 0.80426 0.4807 0.85032 0.0
Cd16 Cd 0.85135 0.44699 0.91157 0.0
O17 O 0.81581 0.41233 0.80718 0.0
Cd18 Cd 0.87622 0.35504 0.84617 0.0
C19 C 0.7875 0.32564 0.92485 0.0
O20 O 0.93194 0.42273 0.88178 0.0
O21 O 0.93507 0.34565 0.90953 0.0
O22 O 0.92023 0.3449 0.77534 0.0
C23 C 0.95319 0.39272 0.90869 0.0
O24 O 0.80094 0.37027 0.9415 0.0
C25 C 0.92405 0.29591 0.77888 0.0
O26 O 0.80547 0.31149 0.8877 0.0
O27 O 0.90442 0.2741 0.81323 0.0
C28 C 0.52696 0.18738 0.14506 0.0
O29 O 0.5038 0.18766 0.10777 0.0
Cd30 Cd 0.52368 0.13414 0.04579 0.0
O31 O 0.56569 0.15942 0.15118 0.0
Cd32 Cd 0.61834 0.09807 0.10856 0.0
C33 C 0.64749 0.18484 0.02537 0.0
O34 O 0.54114 0.05341 0.08001 0.0
O35 O 0.61118 0.02533 0.05336 0.0
O36 O 0.63169 0.06055 0.18169 0.0
C37 C 0.56199 0.02102 0.05519 0.0
O38 O 0.60095 0.17613 0.01168 0.0
C39 C 0.67849 0.04983 0.17519 0.0
O40 O 0.66285 0.16516 0.06159 0.0
O41 O 0.69798 0.06263 0.13783 0.0
C42 C 0.79481 0.95359 0.31555 0.0
O43 O 0.79597 0.97731 0.35268 0.0
Cd44 Cd 0.844 0.95474 0.41702 0.0
O45 O 0.81964 0.91242 0.3097 0.0
Cd46 Cd 0.87745 0.85442 0.35189 0.0
C47 C 0.7872 0.83082 0.4342 0.0
O48 O 0.9223 0.92888 0.3848 0.0
O49 O 0.95298 0.85616 0.40358 0.0
O50 O 0.91338 0.83882 0.27849 0.0
C51 C 0.95473 0.90543 0.4077 0.0
O52 O 0.79409 0.8786 0.4458 0.0
C53 C 0.92028 0.79077 0.28501 0.0
O54 O 0.81112 0.81255 0.40117 0.0
O55 O 0.90617 0.77197 0.32232 0.0
C56 C 0.00842 0.66578 0.14622 0.0
O57 O -0.01551 0.66309 0.10931 0.0
Cd58 Cd 0.01179 0.61348 0.04743 0.0
O59 O 0.04962 0.6414 0.15215 0.0
Cd60 Cd 0.10542 0.58206 0.11003 0.0
C61 C 0.1332 0.67374 0.03146 0.0
O62 O 0.03383 0.53025 0.07627 0.0
O63 O 0.10961 0.51828 0.04953 0.0
O64 O 0.11792 0.53911 0.18131 0.0
C65 C 0.0615 0.5049 0.05026 0.0
O66 O 0.08654 0.66537 0.01798 0.0
C67 C 0.1665 0.53538 0.17683 0.0
O68 O 0.14992 0.65053 0.06549 0.0
O69 O 0.18683 0.55385 0.14145 0.0
C70 C 0.28949 0.44832 0.31747 0.0
O71 O 0.28685 0.46911 0.35564 0.0
Cd72 Cd 0.34093 0.44775 0.41719 0.0
O73 O 0.31995 0.41179 0.31044 0.0
Cd74 Cd 0.38246 0.36103 0.35305 0.0
C75 C 0.29606 0.3216 0.43314 0.0
O76 O 0.42492 0.43856 0.38551 0.0
O77 O 0.45181 0.36647 0.41025 0.0
O78 O 0.42321 0.35148 0.28074 0.0
C79 C 0.45651 0.416 0.41 0.0
O80 O 0.30278 0.36724 0.44978 0.0
C81 C 0.43358 0.30412 0.28627 0.0
O82 O 0.31681 0.31034 0.39632 0.0
O83 O 0.41951 0.28297 0.32269 0.0
C84 C 0.28055 0.94919 0.82548 0.0
O85 O 0.27885 0.97082 0.86338 0.0
Cd86 Cd 0.32419 0.94702 0.92841 0.0
O87 O 0.30848 0.91035 0.81885 0.0
Cd88 Cd 0.36801 0.85431 0.86153 0.0
C89 C 0.27348 0.82029 0.93814 0.0
O90 O 0.40725 0.92827 0.90053 0.0
O91 O 0.44149 0.85574 0.9153 0.0
O92 O 0.41022 0.84527 0.78979 0.0
C93 C 0.43998 0.90427 0.9227 0.0
O94 O 0.27641 0.86741 0.95186 0.0
C95 C 0.41728 0.79686 0.79392 0.0
O96 O 0.30117 0.80561 0.90596 0.0
O97 O 0.40056 0.77486 0.82925 0.0
C98 C 0.51379 0.68393 0.65172 0.0
O99 O 0.49307 0.68704 0.61358 0.0
Cd100 Cd 0.51808 0.64302 0.54785 0.0
O101 O 0.55316 0.6568 0.65786 0.0
Cd102 Cd 0.6117 0.60189 0.61378 0.0
C103 C 0.64289 0.69524 0.53459 0.0
O104 O 0.54141 0.55951 0.57281 0.0
O105 O 0.61722 0.53483 0.55502 0.0
O106 O 0.62476 0.53804 0.67237 0.0
C107 C 0.56848 0.5312 0.54875 0.0
O108 O 0.59561 0.69198 0.52195 0.0
C109 C 0.67208 0.55241 0.67947 0.0
O110 O 0.65845 0.66819 0.56698 0.0
O111 O 0.6913 0.59024 0.65643 0.0
C112 C 0.26038 0.28187 0.50318 0.0
C113 C 0.26234 0.2819 0.45649 0.0
C114 C 0.22667 0.24638 0.52607 0.0
C115 C 0.19276 0.21075 0.50299 0.0
H116 H 0.28497 0.30963 0.52216 0.0
H117 H 0.22585 0.2481 0.56199 0.0
S118 S 0.18363 0.19398 0.38085 0.0
N119 N 0.22877 0.24188 0.38811 0.0
N120 N 0.16427 0.17632 0.4311 0.0
C121 C 0.19482 0.20988 0.45639 0.0
C122 C 0.22996 0.24513 0.43314 0.0
C123 C 0.74214 0.55615 0.737 0.0
C124 C 0.7033 0.52673 0.71334 0.0
C125 C 0.77159 0.53301 0.76996 0.0
C126 C 0.76435 0.47932 0.77937 0.0
H127 H 0.74921 0.59758 0.73057 0.0
H128 H 0.80074 0.55717 0.78779 0.0
S129 S 0.66849 0.38486 0.72625 0.0
N130 N 0.65905 0.44112 0.70169 0.0
N131 N 0.71599 0.39725 0.76245 0.0
C132 C 0.72628 0.44926 0.75552 0.0
C133 C 0.69528 0.4731 0.72282 0.0
C134 C 0.55439 0.9575 -0.00837 0.0
C135 C 0.53032 -0.01271 0.02416 0.0
C136 C 0.52479 0.92912 0.95949 0.0
C137 C 0.47041 0.93032 0.95858 0.0
H138 H 0.59636 0.95701 -0.00968 0.0
H139 H 0.54461 0.9076 0.93434 0.0
S140 S 0.38804 -0.00388 0.03929 0.0
N141 N 0.4482 0.01161 0.05572 0.0
N142 N 0.39331 0.95896 -0.00506 0.0
C143 C 0.44581 0.95794 -0.00819 0.0
C144 C 0.47561 0.98623 0.02477 0.0
C145 C 0.93835 0.77148 0.20555 0.0
C146 C 0.94359 0.75841 0.25056 0.0
C147 C 0.95945 0.74122 0.17212 0.0
C148 C -0.01231 0.69749 0.18246 0.0
H149 H 0.91706 0.8049 0.19599 0.0
H150 H 0.9539 0.75247 0.13787 0.0
S151 S 0.01403 0.64778 0.29535 0.0
N152 N 0.97955 0.69914 0.30386 0.0
N153 N 0.02042 0.64304 0.24101 0.0
C154 C -0.00594 0.68453 0.22739 0.0
C155 C 0.97162 0.71473 0.26143 0.0
C156 C 0.26946 0.96962 0.7449 0.0
C157 C 0.25049 0.97069 0.78857 0.0
C158 C 0.24337 -0.00662 0.71009 0.0
C159 C 0.19683 0.01806 0.71756 0.0
H160 H 0.30542 0.95151 0.73775 0.0
H161 H 0.25972 -0.00779 0.67705 0.0
S162 S 0.12964 0.02927 0.82561 0.0
N163 N 0.18166 -0.00277 0.8372 0.0
N164 N 0.13223 0.04091 0.77179 0.0
C165 C 0.17684 0.01826 0.76092 0.0
C166 C 0.20379 -0.00515 0.7964 0.0
C167 C 0.02921 0.44711 0.93731 0.0
C168 C -0.01579 0.41509 0.94577 0.0
C169 C 0.0559 0.47387 0.97192 0.0
C170 C 0.03721 0.47079 0.01569 0.0
H171 H 0.04325 0.45221 0.90366 0.0
H172 H 0.08986 0.49914 0.964 0.0
S173 S 0.9212 0.3916 0.05481 0.0
N174 N 0.92293 0.38022 0.00087 0.0
N175 N 0.97187 0.43235 0.06576 0.0
C176 C -0.00731 0.43821 0.02458 0.0
C177 C 0.96643 0.40984 -0.01042 0.0
C178 C 0.45706 0.29109 0.20696 0.0
C179 C 0.45984 0.27487 0.2514 0.0
C180 C 0.4796 0.26297 0.17291 0.0
C181 C 0.50677 0.21819 0.18209 0.0
H182 H 0.43623 0.3251 0.1982 0.0
H183 H 0.47552 0.27636 0.13907 0.0
S184 S 0.52736 0.16082 0.29328 0.0
N185 N 0.49299 0.21194 0.30302 0.0
N186 N 0.53633 0.15966 0.23907 0.0
C187 C 0.51112 0.20235 0.22655 0.0
C188 C 0.48733 0.23049 0.26117 0.0
C189 C 0.76292 0.74591 0.47188 0.0
C190 C 0.75015 0.7965 0.45958 0.0
C191 C 0.72869 0.71375 0.49754 0.0
C192 C 0.68008 0.73068 0.51047 0.0
H193 H 0.79989 0.73147 0.46221 0.0
H194 H 0.73977 0.67499 0.50642 0.0
S195 S 0.6281 0.85937 0.48603 0.0
N196 N 0.68596 0.8621 0.46245 0.0
N197 N 0.6209 0.80095 0.50908 0.0
C198 C 0.66677 0.78094 0.49798 0.0
C199 C 0.70203 0.81407 0.47295 0.0
C200 C 0.18113 0.51174 0.256 0.0
C201 C 0.19788 0.51147 0.21165 0.0
C202 C 0.21089 0.49097 0.28994 0.0
C203 C 0.25791 0.46803 0.28068 0.0
H204 H 0.14526 0.52912 0.26475 0.0
H205 H 0.19682 0.4928 0.32373 0.0
S206 S 0.31788 0.45566 0.16964 0.0
N207 N 0.26401 0.48562 0.16005 0.0
N208 N 0.31936 0.44542 0.22369 0.0
C209 C 0.27453 0.46644 0.23629 0.0
C210 C 0.2447 0.48853 0.20184 0.0
C211 C 0.75359 0.28821 -0.00369 0.0
C212 C 0.75159 0.28929 0.94964 0.0
C213 C 0.72065 0.25335 0.02059 0.0
C214 C 0.68364 0.21936 -0.00091 0.0
H215 H 0.7813 0.314 0.01419 0.0
H216 H 0.72345 0.25379 0.05647 0.0
S217 S 0.66263 0.20712 0.87752 0.0
N218 N 0.71012 0.25303 0.88285 0.0
N219 N 0.64716 0.18863 0.92849 0.0
C220 C 0.6811 0.22025 0.95247 0.0
C221 C 0.71538 0.25489 0.92773 0.0
C222 C 0.72106 0.00359 0.28823 0.0
C223 C 0.76484 0.97535 0.27868 0.0
C224 C 0.69316 0.02693 0.25446 0.0
C225 C 0.70857 0.02393 0.20986 0.0
H226 H 0.70811 0.00765 0.32216 0.0
H227 H 0.65973 0.04825 0.26354 0.0
S228 S 0.82041 0.95439 0.16712 0.0
N229 N 0.82195 0.94502 0.2213 0.0
N230 N 0.77012 -0.01009 0.15777 0.0
C231 C 0.75222 -0.00429 0.19974 0.0
C232 C 0.78012 0.97107 0.23414 0.0
C233 C 0.96809 0.97982 0.46033 0.0
C234 C -0.01475 0.93286 0.44312 0.0
C235 C -0.0057 0.00578 0.49534 0.0
C236 C 0.03944 0.98649 0.51387 0.0
H237 H 0.93352 -0.00364 0.44722 0.0
H238 H 0.97927 0.04166 0.50759 0.0
S239 S 0.10136 0.86576 0.48003 0.0
N240 N 0.05029 0.86807 0.44693 0.0
N241 N 0.10076 0.91804 0.51221 0.0
C242 C 0.05765 0.94002 0.4966 0.0
C243 C 0.03022 0.91288 0.46139 0.0
C244 C 0.95152 0.28384 0.7004 0.0
C245 C 0.95027 0.26594 0.74448 0.0
C246 C 0.97539 0.25587 0.66695 0.0
C247 C 5e-05 0.20966 0.67651 0.0
H248 H 0.93307 0.31925 0.69149 0.0
H249 H 0.97466 0.2707 0.63332 0.0
S250 S 0.00949 0.14737 0.78711 0.0
N251 N 0.97651 0.19964 0.79619 0.0
N252 N 0.02257 0.14772 0.73351 0.0
C253 C 8e-05 0.19192 0.72067 0.0
C254 C 0.97481 0.21985 0.75458 0.0
C255 C 0.46591 0.75857 0.68061 0.0
C256 C 0.49139 0.71254 0.68911 0.0
C257 C 0.44278 0.78586 0.71485 0.0
C258 C 0.44318 0.7676 0.75878 0.0
H259 H 0.46399 0.77384 0.64721 0.0
H260 H 0.4236 0.82111 0.70661 0.0
S261 S 0.50502 0.6492 0.79875 0.0
N262 N 0.51642 0.65028 0.74486 0.0
N263 N 0.4718 0.70098 0.80917 0.0
C264 C 0.46858 0.72166 0.76785 0.0
C265 C 0.49305 0.69436 0.73304 0.0
C266 C 0.21952 0.69876 -0.00233 0.0
C267 C 0.16828 0.71111 0.00719 0.0
C268 C 0.25308 0.73359 0.97387 0.0
C269 C 0.23685 0.78244 0.96018 0.0
H270 H 0.2335 0.6617 0.0082 0.0
H271 H 0.29232 0.72286 0.96715 0.0
S272 S 0.10683 0.83342 0.9773 0.0
N273 N 0.10278 0.77502 0.00063 0.0
N274 N 0.16651 0.84136 0.95759 0.0
C275 C 0.18588 0.79529 0.96974 0.0
C276 C 0.15137 0.75935 -0.00718 0.0
C277 C 0.51589 0.41965 0.47615 0.0
C278 C 0.49007 0.44588 0.44229 0.0
C279 C 0.5432 0.44758 0.50988 0.0
C280 C 0.54518 0.50242 0.51082 0.0
H281 H 0.51369 0.37731 0.47744 0.0
H282 H 0.56119 0.4262 0.5362 0.0
S283 S 0.49078 0.58988 0.42729 0.0
N284 N 0.47311 0.53026 0.4098 0.0
N285 N 0.52415 0.58214 0.47342 0.0
C286 C 0.52196 0.52911 0.47625 0.0
C287 C 0.49449 0.50095 0.44183 0.0
loop_
_geom_bond_atom_site_label_1
_geom_bond_atom_site_label_2
_geom_bond_distance
_geom_bond_site_symmetry_2
_ccdc_geom_bond_type
C0 O1 1.306 . S
C0 O3 1.160 . S
O1 C0 1.306 . S
O1 Cd2 2.228 . S
Cd2 O1 2.228 . S
Cd2 O6 2.273 . S
Cd2 O10 2.277 . S
O3 C0 1.160 . S
O3 Cd4 2.203 . S
Cd4 O3 2.203 . S
Cd4 O6 2.411 . S
Cd4 O7 2.333 . S
Cd4 O8 2.352 . S
Cd4 O12 2.277 . S
Cd4 O13 2.356 . S
C5 O10 1.209 . S
C5 O12 1.226 . S
O6 Cd2 2.273 . S
O6 Cd4 2.411 . S
O6 C9 1.320 . S
O7 Cd4 2.333 . S
O7 C9 1.214 . S
O8 Cd4 2.352 . S
O8 C11 1.258 . S
C9 O6 1.320 . S
C9 O7 1.214 . S
O10 Cd2 2.277 . S
O10 C5 1.209 . S
C11 O8 1.258 . S
C11 O13 1.282 . S
O12 Cd4 2.277 . S
O12 C5 1.226 . S
O13 Cd4 2.356 . S
O13 C11 1.282 . S
C14 O15 1.306 . S
C14 O17 1.160 . S
O15 C14 1.306 . S
O15 Cd16 2.228 . S
Cd16 O15 2.228 . S
Cd16 O20 2.273 . S
Cd16 O24 2.277 . S
O17 C14 1.160 . S
O17 Cd18 2.203 . S
Cd18 O17 2.203 . S
Cd18 O20 2.411 . S
Cd18 O21 2.333 . S
Cd18 O22 2.352 . S
Cd18 O26 2.277 . S
Cd18 O27 2.356 . S
C19 O24 1.209 . S
C19 O26 1.226 . S
O20 Cd16 2.273 . S
O20 Cd18 2.411 . S
O20 C23 1.320 . S
O21 Cd18 2.333 . S
O21 C23 1.214 . S
O22 Cd18 2.352 . S
O22 C25 1.258 . S
C23 O20 1.320 . S
C23 O21 1.214 . S
O24 Cd16 2.277 . S
O24 C19 1.209 . S
C25 O22 1.258 . S
C25 O27 1.282 . S
O26 Cd18 2.277 . S
O26 C19 1.226 . S
O27 Cd18 2.356 . S
O27 C25 1.282 . S
C28 O29 1.306 . S
C28 O31 1.160 . S
O29 C28 1.306 . S
O29 Cd30 2.228 . S
Cd30 O29 2.228 . S
Cd30 O34 2.273 . S
Cd30 O38 2.277 . S
O31 C28 1.160 . S
O31 Cd32 2.203 . S
Cd32 O31 2.203 . S
Cd32 O34 2.411 . S
Cd32 O35 2.333 . S
Cd32 O36 2.352 . S
Cd32 O40 2.277 . S
Cd32 O41 2.356 . S
C33 O38 1.209 . S
C33 O40 1.226 . S
O34 Cd30 2.273 . S
O34 Cd32 2.411 . S
O34 C37 1.320 . S
O35 Cd32 2.333 . S
O35 C37 1.214 . S
O36 Cd32 2.352 . S
O36 C39 1.258 . S
C37 O34 1.320 . S
C37 O35 1.214 . S
O38 Cd30 2.277 . S
O38 C33 1.209 . S
C39 O36 1.258 . S
C39 O41 1.282 . S
O40 Cd32 2.277 . S
O40 C33 1.226 . S
O41 Cd32 2.356 . S
O41 C39 1.282 . S
C42 O43 1.306 . S
C42 O45 1.160 . S
O43 C42 1.306 . S
O43 Cd44 2.228 . S
Cd44 O43 2.228 . S
Cd44 O48 2.273 . S
Cd44 O52 2.277 . S
O45 C42 1.160 . S
O45 Cd46 2.203 . S
Cd46 O45 2.203 . S
Cd46 O48 2.411 . S
Cd46 O49 2.333 . S
Cd46 O50 2.352 . S
Cd46 O54 2.277 . S
Cd46 O55 2.356 . S
C47 O52 1.209 . S
C47 O54 1.226 . S
O48 Cd44 2.273 . S
O48 Cd46 2.411 . S
O48 C51 1.320 . S
O49 Cd46 2.333 . S
O49 C51 1.214 . S
O50 Cd46 2.352 . S
O50 C53 1.258 . S
C51 O48 1.320 . S
C51 O49 1.214 . S
O52 Cd44 2.277 . S
O52 C47 1.209 . S
C53 O50 1.258 . S
C53 O55 1.282 . S
O54 Cd46 2.277 . S
O54 C47 1.226 . S
O55 Cd46 2.356 . S
O55 C53 1.282 . S
C56 O57 1.306 . S
C56 O59 1.160 . S
O57 C56 1.306 . S
O57 Cd58 2.228 . S
Cd58 O57 2.228 . S
Cd58 O62 2.273 . S
Cd58 O66 2.277 . S
O59 C56 1.160 . S
O59 Cd60 2.203 . S
Cd60 O59 2.203 . S
Cd60 O62 2.411 . S
Cd60 O63 2.333 . S
Cd60 O64 2.352 . S
Cd60 O68 2.277 . S
Cd60 O69 2.356 . S
C61 O66 1.209 . S
C61 O68 1.226 . S
O62 Cd58 2.273 . S
O62 Cd60 2.411 . S
O62 C65 1.320 . S
O63 Cd60 2.333 . S
O63 C65 1.214 . S
O64 Cd60 2.352 . S
O64 C67 1.258 . S
C65 O62 1.320 . S
C65 O63 1.214 . S
O66 Cd58 2.277 . S
O66 C61 1.209 . S
C67 O64 1.258 . S
C67 O69 1.282 . S
O68 Cd60 2.277 . S
O68 C61 1.226 . S
O69 Cd60 2.356 . S
O69 C67 1.282 . S
C70 O71 1.306 . S
C70 O73 1.160 . S
O71 C70 1.306 . S
O71 Cd72 2.228 . S
Cd72 O71 2.228 . S
Cd72 O76 2.273 . S
Cd72 O80 2.277 . S
O73 C70 1.160 . S
O73 Cd74 2.203 . S
Cd74 O73 2.203 . S
Cd74 O76 2.411 . S
Cd74 O77 2.333 . S
Cd74 O78 2.352 . S
Cd74 O82 2.277 . S
Cd74 O83 2.356 . S
C75 O80 1.209 . S
C75 O82 1.226 . S
O76 Cd72 2.273 . S
O76 Cd74 2.411 . S
O76 C79 1.320 . S
O77 Cd74 2.333 . S
O77 C79 1.214 . S
O78 Cd74 2.352 . S
O78 C81 1.258 . S
C79 O76 1.320 . S
C79 O77 1.214 . S
O80 Cd72 2.277 . S
O80 C75 1.209 . S
C81 O78 1.258 . S
C81 O83 1.282 . S
O82 Cd74 2.277 . S
O82 C75 1.226 . S
O83 Cd74 2.356 . S
O83 C81 1.282 . S
C84 O85 1.306 . S
C84 O87 1.160 . S
O85 C84 1.306 . S
O85 Cd86 2.228 . S
Cd86 O85 2.228 . S
Cd86 O90 2.273 . S
Cd86 O94 2.277 . S
O87 C84 1.160 . S
O87 Cd88 2.203 . S
Cd88 O87 2.203 . S
Cd88 O90 2.411 . S
Cd88 O91 2.333 . S
Cd88 O92 2.352 . S
Cd88 O96 2.277 . S
Cd88 O97 2.356 . S
C89 O94 1.209 . S
C89 O96 1.226 . S
O90 Cd86 2.273 . S
O90 Cd88 2.411 . S
O90 C93 1.320 . S
O91 Cd88 2.333 . S
O91 C93 1.214 . S
O92 Cd88 2.352 . S
O92 C95 1.258 . S
C93 O90 1.320 . S
C93 O91 1.214 . S
O94 Cd86 2.277 . S
O94 C89 1.209 . S
C95 O92 1.258 . S
C95 O97 1.282 . S
O96 Cd88 2.277 . S
O96 C89 1.226 . S
O97 Cd88 2.356 . S
O97 C95 1.282 . S
C98 O99 1.306 . S
C98 O101 1.160 . S
O99 C98 1.306 . S
O99 Cd100 2.228 . S
Cd100 O99 2.228 . S
Cd100 O104 2.273 . S
Cd100 O108 2.277 . S
O101 C98 1.160 . S
O101 Cd102 2.203 . S
Cd102 O101 2.203 . S
Cd102 O104 2.411 . S
Cd102 O105 2.333 . S
Cd102 O106 2.352 . S
Cd102 O110 2.277 . S
Cd102 O111 2.356 . S
C103 O108 1.209 . S
C103 O110 1.226 . S
O104 Cd100 2.273 . S
O104 Cd102 2.411 . S
O104 C107 1.320 . S
O105 Cd102 2.333 . S
O105 C107 1.214 . S
O106 Cd102 2.352 . S
O106 C109 1.258 . S
C107 O104 1.320 . S
C107 O105 1.214 . S
O108 Cd100 2.277 . S
O108 C103 1.209 . S
C109 O106 1.258 . S
C109 O111 1.282 . S
O110 Cd102 2.277 . S
O110 C103 1.226 . S
O111 Cd102 2.356 . S
O111 C109 1.282 . S
C112 C113 1.369 . S
C112 C114 1.419 . S
C112 H116 0.930 . S
C113 C112 1.369 . S
C113 C122 1.429 . S
C114 C112 1.419 . S
C114 C115 1.363 . S
C114 H117 0.929 . S
C115 C114 1.363 . S
C115 C121 1.428 . S
H116 C112 0.930 . S
H117 C114 0.929 . S
S118 N119 1.613 . S
S118 N120 1.610 . S
N119 S118 1.613 . S
N119 C122 1.350 . S
N120 S118 1.610 . S
N120 C121 1.351 . S
C121 C115 1.428 . S
C121 N120 1.351 . S
C121 C122 1.434 . S
C122 C113 1.429 . S
C122 N119 1.350 . S
C122 C121 1.434 . S
C123 C124 1.369 . S
C123 C125 1.419 . S
C123 H127 0.930 . S
C124 C123 1.369 . S
C124 C133 1.429 . S
C125 C123 1.419 . S
C125 C126 1.363 . S
C125 H128 0.929 . S
C126 C125 1.363 . S
C126 C132 1.428 . S
H127 C123 0.930 . S
H128 C125 0.929 . S
S129 N130 1.613 . S
S129 N131 1.610 . S
N130 S129 1.613 . S
N130 C133 1.350 . S
N131 S129 1.610 . S
N131 C132 1.351 . S
C132 C126 1.428 . S
C132 N131 1.351 . S
C132 C133 1.434 . S
C133 C124 1.429 . S
C133 N130 1.350 . S
C133 C132 1.434 . S
C134 C135 1.351 1_566 S
C134 C136 1.435 . S
C134 H138 0.933 . S
C135 C134 1.351 1_544 S
C135 C144 1.429 . S
C136 C134 1.435 . S
C136 C137 1.363 . S
C136 H139 0.929 . S
C137 C136 1.363 . S
C137 C143 1.428 1_556 S
H138 C134 0.933 . S
H139 C136 0.929 . S
S140 N141 1.613 . S
S140 N142 1.610 1_545 S
N141 S140 1.613 . S
N141 C144 1.350 . S
N142 S140 1.610 1_565 S
N142 C143 1.351 . S
C143 C137 1.428 1_554 S
C143 N142 1.351 . S
C143 C144 1.434 1_565 S
C144 C135 1.429 . S
C144 N141 1.350 . S
C144 C143 1.434 1_545 S
C145 C146 1.369 . S
C145 C147 1.419 . S
C145 H149 0.930 . S
C146 C145 1.369 . S
C146 C155 1.429 1_655 S
C147 C145 1.419 . S
C147 C148 1.363 1_655 S
C147 H150 0.929 . S
C148 C147 1.363 1_455 S
C148 C154 1.428 . S
H149 C145 0.930 . S
H150 C147 0.929 . S
S151 N152 1.613 . S
S151 N153 1.610 . S
N152 S151 1.613 . S
N152 C155 1.350 . S
N153 S151 1.610 . S
N153 C154 1.351 . S
C154 C148 1.428 . S
C154 N153 1.351 . S
C154 C155 1.434 . S
C155 C146 1.429 1_455 S
C155 N152 1.350 . S
C155 C154 1.434 . S
C156 C157 1.369 . S
C156 C158 1.419 1_565 S
C156 H160 0.926 1_565 S
C157 C156 1.369 . S
C157 C166 1.429 . S
C158 C156 1.419 1_545 S
C158 C159 1.363 . S
C158 H161 0.929 . S
C159 C158 1.363 . S
C159 C165 1.428 1_545 S
H160 C156 0.926 1_545 S
H161 C158 0.929 . S
S162 N163 1.613 . S
S162 N164 1.610 . S
N163 S162 1.613 . S
N163 C166 1.350 . S
N164 S162 1.610 . S
N164 C165 1.351 . S
C165 C159 1.428 1_565 S
C165 N164 1.351 . S
C165 C166 1.434 . S
C166 C157 1.429 . S
C166 N163 1.350 . S
C166 C165 1.434 . S
C167 C168 1.369 1_455 S
C167 C169 1.419 . S
C167 H171 0.930 . S
C168 C167 1.369 1_655 S
C168 C177 1.429 1_556 S
C169 C167 1.419 . S
C169 C170 1.363 1_556 S
C169 H172 0.929 . S
C170 C169 1.363 1_554 S
C170 C176 1.428 . S
H171 C167 0.930 . S
H172 C169 0.929 . S
S173 N174 1.613 . S
S173 N175 1.610 . S
N174 S173 1.613 . S
N174 C177 1.350 . S
N175 S173 1.610 . S
N175 C176 1.351 1_655 S
C176 C170 1.428 . S
C176 N175 1.351 1_455 S
C176 C177 1.434 1_455 S
C177 C168 1.429 1_554 S
C177 N174 1.350 . S
C177 C176 1.434 1_655 S
C178 C179 1.369 . S
C178 C180 1.419 . S
C178 H182 0.930 . S
C179 C178 1.369 . S
C179 C188 1.429 . S
C180 C178 1.419 . S
C180 C181 1.363 . S
C180 H183 0.929 . S
C181 C180 1.363 . S
C181 C187 1.428 . S
H182 C178 0.930 . S
H183 C180 0.929 . S
S184 N185 1.613 . S
S184 N186 1.610 . S
N185 S184 1.613 . S
N185 C188 1.350 . S
N186 S184 1.610 . S
N186 C187 1.351 . S
C187 C181 1.428 . S
C187 N186 1.351 . S
C187 C188 1.434 . S
C188 C179 1.429 . S
C188 N185 1.350 . S
C188 C187 1.434 . S
C189 C190 1.369 . S
C189 C191 1.419 . S
C189 H193 0.930 . S
C190 C189 1.369 . S
C190 C199 1.429 . S
C191 C189 1.419 . S
C191 C192 1.363 . S
C191 H194 0.929 . S
C192 C191 1.363 . S
C192 C198 1.428 . S
H193 C189 0.930 . S
H194 C191 0.929 . S
S195 N196 1.613 . S
S195 N197 1.610 . S
N196 S195 1.613 . S
N196 C199 1.350 . S
N197 S195 1.610 . S
N197 C198 1.351 . S
C198 C192 1.428 . S
C198 N197 1.351 . S
C198 C199 1.434 . S
C199 C190 1.429 . S
C199 N196 1.350 . S
C199 C198 1.434 . S
C200 C201 1.369 . S
C200 C202 1.419 . S
C200 H204 0.930 . S
C201 C200 1.369 . S
C201 C210 1.429 . S
C202 C200 1.419 . S
C202 C203 1.363 . S
C202 H205 0.929 . S
C203 C202 1.363 . S
C203 C209 1.428 . S
H204 C200 0.930 . S
H205 C202 0.929 . S
S206 N207 1.613 . S
S206 N208 1.610 . S
N207 S206 1.613 . S
N207 C210 1.350 . S
N208 S206 1.610 . S
N208 C209 1.351 . S
C209 C203 1.428 . S
C209 N208 1.351 . S
C209 C210 1.434 . S
C210 C201 1.429 . S
C210 N207 1.350 . S
C210 C209 1.434 . S
C211 C212 1.369 1_554 S
C211 C213 1.419 . S
C211 H215 0.930 . S
C212 C211 1.369 1_556 S
C212 C221 1.429 . S
C213 C211 1.419 . S
C213 C214 1.363 . S
C213 H216 0.929 . S
C214 C213 1.363 . S
C214 C220 1.428 1_554 S
H215 C211 0.930 . S
H216 C213 0.929 . S
S217 N218 1.613 . S
S217 N219 1.610 . S
N218 S217 1.613 . S
N218 C221 1.350 . S
N219 S217 1.610 . S
N219 C220 1.351 . S
C220 C214 1.428 1_556 S
C220 N219 1.351 . S
C220 C221 1.434 . S
C221 C212 1.429 . S
C221 N218 1.350 . S
C221 C220 1.434 . S
C222 C223 1.369 . S
C222 C224 1.419 . S
C222 H226 0.930 . S
C223 C222 1.369 . S
C223 C232 1.429 1_565 S
C224 C222 1.419 . S
C224 C225 1.363 1_565 S
C224 H227 0.929 . S
C225 C224 1.363 1_545 S
C225 C231 1.428 . S
H226 C222 0.930 . S
H227 C224 0.929 . S
S228 N229 1.613 . S
S228 N230 1.610 . S
N229 S228 1.613 . S
N229 C232 1.350 . S
N230 S228 1.610 . S
N230 C231 1.351 . S
C231 C225 1.428 . S
C231 N230 1.351 . S
C231 C232 1.434 . S
C232 C223 1.429 1_545 S
C232 N229 1.350 . S
C232 C231 1.434 . S
C233 C234 1.369 1_545 S
C233 C235 1.419 1_655 S
C233 H237 0.930 . S
C234 C233 1.369 1_565 S
C234 C243 1.429 1_655 S
C235 C233 1.419 1_455 S
C235 C236 1.363 . S
C235 H238 0.929 . S
C236 C235 1.363 . S
C236 C242 1.428 1_545 S
H237 C233 0.930 . S
H238 C235 0.929 . S
S239 N240 1.613 . S
S239 N241 1.610 . S
N240 S239 1.613 . S
N240 C243 1.350 . S
N241 S239 1.610 . S
N241 C242 1.351 . S
C242 C236 1.428 1_565 S
C242 N241 1.351 . S
C242 C243 1.434 . S
C243 C234 1.429 1_455 S
C243 N240 1.350 . S
C243 C242 1.434 . S
C244 C245 1.369 . S
C244 C246 1.419 1_655 S
C244 H248 0.930 . S
C245 C244 1.369 . S
C245 C254 1.429 1_655 S
C246 C244 1.419 1_455 S
C246 C247 1.363 . S
C246 H249 0.929 . S
C247 C246 1.363 . S
C247 C253 1.428 . S
H248 C244 0.930 . S
H249 C246 0.929 . S
S250 N251 1.613 . S
S250 N252 1.610 . S
N251 S250 1.613 . S
N251 C254 1.350 . S
N252 S250 1.610 . S
N252 C253 1.351 . S
C253 C247 1.428 . S
C253 N252 1.351 . S
C253 C254 1.434 . S
C254 C245 1.429 1_455 S
C254 N251 1.350 . S
C254 C253 1.434 . S
C255 C256 1.369 . S
C255 C257 1.419 . S
C255 H259 0.930 . S
C256 C255 1.369 . S
C256 C265 1.429 . S
C257 C255 1.419 . S
C257 C258 1.363 . S
C257 H260 0.929 . S
C258 C257 1.363 . S
C258 C264 1.428 . S
H259 C255 0.930 . S
H260 C257 0.929 . S
S261 N262 1.613 . S
S261 N263 1.610 . S
N262 S261 1.613 . S
N262 C265 1.350 . S
N263 S261 1.610 . S
N263 C264 1.351 . S
C264 C258 1.428 . S
C264 N263 1.351 . S
C264 C265 1.434 . S
C265 C256 1.429 . S
C265 N262 1.350 . S
C265 C264 1.434 . S
C266 C267 1.372 . S
C266 C268 1.416 1_554 S
C266 H270 0.930 1_554 S
C267 C266 1.372 . S
C267 C276 1.429 . S
C268 C266 1.416 1_556 S
C268 C269 1.363 . S
C268 H271 0.929 . S
C269 C268 1.363 . S
C269 C275 1.423 1_556 S
H270 C266 0.930 1_556 S
H271 C268 0.929 . S
S272 N273 1.613 . S
S272 N274 1.610 . S
N273 S272 1.613 . S
N273 C276 1.350 . S
N274 S272 1.610 . S
N274 C275 1.352 . S
C275 C269 1.423 1_554 S
C275 N274 1.352 . S
C275 C276 1.439 . S
C276 C267 1.429 . S
C276 N273 1.350 . S
C276 C275 1.439 . S
C277 C278 1.369 . S
C277 C279 1.419 . S
C277 H281 0.930 . S
C278 C277 1.369 . S
C278 C287 1.429 . S
C279 C277 1.419 . S
C279 C280 1.363 . S
C279 H282 0.929 . S
C280 C279 1.363 . S
C280 C286 1.428 . S
H281 C277 0.930 . S
H282 C279 0.929 . S
S283 N284 1.613 . S
S283 N285 1.610 . S
N284 S283 1.613 . S
N284 C287 1.350 . S
N285 S283 1.610 . S
N285 C286 1.351 . S
C286 C280 1.428 . S
C286 N285 1.351 . S
C286 C287 1.434 . S
C287 C278 1.429 . S
C287 N284 1.350 . S
C287 C286 1.434 . S
C113 C75 1.556 . S
C115 C5 1.556 . S
C124 C109 1.535 . S
C126 C14 1.535 . S
C135 C37 1.532 . S
C137 C93 1.533 . S
C146 C53 1.534 . S
C148 C56 1.536 . S
C157 C84 1.536 . S
C159 C11 1.534 . S
C168 C23 1.533 . S
C170 C65 1.533 . S
C179 C81 1.531 . S
C181 C28 1.536 . S
C190 C47 1.557 . S
C192 C103 1.557 . S
C201 C67 1.532 . S
C203 C70 1.536 . S
C212 C19 1.556 . S
C214 C33 1.556 . S
C223 C42 1.533 . S
C225 C39 1.531 . S
C234 C51 1.533 . S
C236 C9 1.532 . S
C245 C25 1.531 . S
C247 C0 1.536 . S
C256 C98 1.534 . S
C258 C95 1.531 . S
C267 C61 1.557 . S
C269 C89 1.557 . S
C278 C79 1.532 . S
C280 C107 1.533 . S
