# Generated by pormake.
# Topology wmi, (6)-cn, num edge types: 1
# Building blocks:
#     Node 0, Type 0, BuildingBlock: PAMTUU_clean_sbu_0, # of connection points: 6
#     Node 1, Type 0, BuildingBlock: PAMTUU_clean_sbu_0, # of connection points: 6
#     Node 2, Type 0, BuildingBlock: PAMTUU_clean_sbu_0, # of connection points: 6
#     Node 3, Type 0, BuildingBlock: PAMTUU_clean_sbu_0, # of connection points: 6
#     Node 4, Type 0, BuildingBlock: PAMTUU_clean_sbu_0, # of connection points: 6
#     Node 5, Type 0, BuildingBlock: PAMTUU_clean_sbu_0, # of connection points: 6
#     Node 6, Type 0, BuildingBlock: PAMTUU_clean_sbu_0, # of connection points: 6
#     Node 7, Type 0, BuildingBlock: PAMTUU_clean_sbu_0, # of connection points: 6
#     Node 8, Type 0, BuildingBlock: PAMTUU_clean_sbu_0, # of connection points: 6
#     Node 9, Type 0, BuildingBlock: PAMTUU_clean_sbu_0, # of connection points: 6
#     Node 10, Type 0, BuildingBlock: PAMTUU_clean_sbu_0, # of connection points: 6
#     Node 11, Type 0, BuildingBlock: PAMTUU_clean_sbu_0, # of connection points: 6
#     Node 12, Type 0, BuildingBlock: PAMTUU_clean_sbu_0, # of connection points: 6
#     Node 13, Type 0, BuildingBlock: PAMTUU_clean_sbu_0, # of connection points: 6
#     Node 14, Type 0, BuildingBlock: PAMTUU_clean_sbu_0, # of connection points: 6
#     Node 15, Type 0, BuildingBlock: PAMTUU_clean_sbu_0, # of connection points: 6
#     Node 16, Type 0, BuildingBlock: PAMTUU_clean_sbu_0, # of connection points: 6
#     Node 17, Type 0, BuildingBlock: PAMTUU_clean_sbu_0, # of connection points: 6
#     Edge 18, Type (0, 0), BuildingBlock: XUDNAN_clean_linker_2, # of connection points: 2
#     Edge 19, Type (0, 0), BuildingBlock: XUDNAN_clean_linker_2, # of connection points: 2
#     Edge 20, Type (0, 0), BuildingBlock: XUDNAN_clean_linker_2, # of connection points: 2
#     Edge 21, Type (0, 0), BuildingBlock: XUDNAN_clean_linker_2, # of connection points: 2
#     Edge 22, Type (0, 0), BuildingBlock: XUDNAN_clean_linker_2, # of connection points: 2
#     Edge 23, Type (0, 0), BuildingBlock: XUDNAN_clean_linker_2, # of connection points: 2
#     Edge 24, Type (0, 0), BuildingBlock: XUDNAN_clean_linker_2, # of connection points: 2
#     Edge 25, Type (0, 0), BuildingBlock: XUDNAN_clean_linker_2, # of connection points: 2
#     Edge 26, Type (0, 0), BuildingBlock: XUDNAN_clean_linker_2, # of connection points: 2
#     Edge 27, Type (0, 0), BuildingBlock: XUDNAN_clean_linker_2, # of connection points: 2
#     Edge 28, Type (0, 0), BuildingBlock: XUDNAN_clean_linker_2, # of connection points: 2
#     Edge 29, Type (0, 0), BuildingBlock: XUDNAN_clean_linker_2, # of connection points: 2
#     Edge 30, Type (0, 0), BuildingBlock: XUDNAN_clean_linker_2, # of connection points: 2
#     Edge 31, Type (0, 0), BuildingBlock: XUDNAN_clean_linker_2, # of connection points: 2
#     Edge 32, Type (0, 0), BuildingBlock: XUDNAN_clean_linker_2, # of connection points: 2
#     Edge 33, Type (0, 0), BuildingBlock: XUDNAN_clean_linker_2, # of connection points: 2
#     Edge 34, Type (0, 0), BuildingBlock: XUDNAN_clean_linker_2, # of connection points: 2
#     Edge 35, Type (0, 0), BuildingBlock: XUDNAN_clean_linker_2, # of connection points: 2
#     Edge 36, Type (0, 0), BuildingBlock: XUDNAN_clean_linker_2, # of connection points: 2
#     Edge 37, Type (0, 0), BuildingBlock: XUDNAN_clean_linker_2, # of connection points: 2
#     Edge 38, Type (0, 0), BuildingBlock: XUDNAN_clean_linker_2, # of connection points: 2
#     Edge 39, Type (0, 0), BuildingBlock: XUDNAN_clean_linker_2, # of connection points: 2
#     Edge 40, Type (0, 0), BuildingBlock: XUDNAN_clean_linker_2, # of connection points: 2
#     Edge 41, Type (0, 0), BuildingBlock: XUDNAN_clean_linker_2, # of connection points: 2
#     Edge 42, Type (0, 0), BuildingBlock: XUDNAN_clean_linker_2, # of connection points: 2
#     Edge 43, Type (0, 0), BuildingBlock: XUDNAN_clean_linker_2, # of connection points: 2
#     Edge 44, Type (0, 0), BuildingBlock: XUDNAN_clean_linker_2, # of connection points: 2
#     Edge 45, Type (0, 0), BuildingBlock: XUDNAN_clean_linker_2, # of connection points: 2
#     Edge 46, Type (0, 0), BuildingBlock: XUDNAN_clean_linker_2, # of connection points: 2
#     Edge 47, Type (0, 0), BuildingBlock: XUDNAN_clean_linker_2, # of connection points: 2
#     Edge 48, Type (0, 0), BuildingBlock: XUDNAN_clean_linker_2, # of connection points: 2
#     Edge 49, Type (0, 0), BuildingBlock: XUDNAN_clean_linker_2, # of connection points: 2
#     Edge 50, Type (0, 0), BuildingBlock: XUDNAN_clean_linker_2, # of connection points: 2
#     Edge 51, Type (0, 0), BuildingBlock: XUDNAN_clean_linker_2, # of connection points: 2
#     Edge 52, Type (0, 0), BuildingBlock: XUDNAN_clean_linker_2, # of connection points: 2
#     Edge 53, Type (0, 0), BuildingBlock: XUDNAN_clean_linker_2, # of connection points: 2
#     Edge 54, Type (0, 0), BuildingBlock: XUDNAN_clean_linker_2, # of connection points: 2
#     Edge 55, Type (0, 0), BuildingBlock: XUDNAN_clean_linker_2, # of connection points: 2
#     Edge 56, Type (0, 0), BuildingBlock: XUDNAN_clean_linker_2, # of connection points: 2
#     Edge 57, Type (0, 0), BuildingBlock: XUDNAN_clean_linker_2, # of connection points: 2
#     Edge 58, Type (0, 0), BuildingBlock: XUDNAN_clean_linker_2, # of connection points: 2
#     Edge 59, Type (0, 0), BuildingBlock: XUDNAN_clean_linker_2, # of connection points: 2
#     Edge 60, Type (0, 0), BuildingBlock: XUDNAN_clean_linker_2, # of connection points: 2
#     Edge 61, Type (0, 0), BuildingBlock: XUDNAN_clean_linker_2, # of connection points: 2
#     Edge 62, Type (0, 0), BuildingBlock: XUDNAN_clean_linker_2, # of connection points: 2
#     Edge 63, Type (0, 0), BuildingBlock: XUDNAN_clean_linker_2, # of connection points: 2
#     Edge 64, Type (0, 0), BuildingBlock: XUDNAN_clean_linker_2, # of connection points: 2
#     Edge 65, Type (0, 0), BuildingBlock: XUDNAN_clean_linker_2, # of connection points: 2
#     Edge 66, Type (0, 0), BuildingBlock: XUDNAN_clean_linker_2, # of connection points: 2
#     Edge 67, Type (0, 0), BuildingBlock: XUDNAN_clean_linker_2, # of connection points: 2
#     Edge 68, Type (0, 0), BuildingBlock: XUDNAN_clean_linker_2, # of connection points: 2
#     Edge 69, Type (0, 0), BuildingBlock: XUDNAN_clean_linker_2, # of connection points: 2
#     Edge 70, Type (0, 0), BuildingBlock: XUDNAN_clean_linker_2, # of connection points: 2
#     Edge 71, Type (0, 0), BuildingBlock: XUDNAN_clean_linker_2, # of connection points: 2
# Relax obj value: 0.082
# Max RMSD: 0.206
# Mean RMSD: 0.206
data_MOF--net-wmi--node1-PAMTUU_clean_sbu_0--edge1-XUDNAN_clean_linker_2
_symmetry_space_group_name_H-M    P1
_symmetry_Int_Tables_number       1
_symmetry_cell_setting            triclinic
loop_
_symmetry_equiv_pos_as_xyz
'x, y, z'
_cell_length_a     40.079624
_cell_length_b     39.946124
_cell_length_c     80.286305
_cell_angle_alpha  90.014228
_cell_angle_beta   90.054802
_cell_angle_gamma 119.88022
loop_
_atom_site_label
_atom_site_type_symbol
_atom_site_fract_x
_atom_site_fract_y
_atom_site_fract_z
_atom_type_partial_charge
Tb0 Tb 0.45943 1.00864 0.09958 0.0
Tb1 Tb 0.5509 0.06419 0.11044 0.0
C2 C 0.52226 0.05228 0.07295 0.0
C3 C 0.36325 0.92044 0.0926 0.0
C4 C 0.30738 0.84119 0.09176 0.0
C5 C 0.31891 0.8632 0.07706 0.0
C6 C 0.34632 0.90233 0.0775 0.0
C7 C 0.35325 0.8982 0.10728 0.0
C8 C 0.32551 0.8588 0.10684 0.0
C9 C 0.38983 0.96264 0.09258 0.0
O10 O 0.48928 0.97781 0.09365 0.0
O11 O 0.53742 1.0045 0.11318 0.0
O12 O 0.51366 0.05218 0.13232 0.0
O13 O 0.46835 0.99228 0.12407 0.0
O14 O 0.60746 0.07407 0.11063 0.0
O15 O 0.59348 0.11301 0.12336 0.0
O16 O 0.53049 0.10235 0.10186 0.0
O17 O 0.46643 0.06343 0.10816 0.0
O18 O 0.48796 0.04417 0.07813 0.0
O19 O 0.5495 0.0566 0.08342 0.0
C20 C 0.51623 0.9769 0.10255 0.0
O21 O 0.40136 0.98014 0.10691 0.0
O22 O 0.41764 0.97548 0.08172 0.0
C23 C 0.48344 1.01846 0.1357 0.0
C24 C 0.65833 0.13899 0.11396 0.0
C25 C 0.73465 0.19731 0.10627 0.0
C26 C 0.71951 0.19407 0.1224 0.0
C27 C 0.68188 0.16536 0.12615 0.0
C28 C 0.67277 0.1426 0.0977 0.0
C29 C 0.71049 0.1715 0.0939 0.0
C30 C 0.62077 0.106 0.1191 0.0
C31 C 0.49656 0.09781 0.10567 0.0
H32 H 0.306 0.85032 0.06519 0.0
H33 H 0.35369 0.91873 0.06601 0.0
H34 H 0.36605 0.91133 0.11912 0.0
H35 H 0.31712 0.84258 0.11837 0.0
H36 H 0.73713 0.21283 0.13237 0.0
H37 H 0.67156 0.16294 0.13881 0.0
H38 H 0.65526 0.12263 0.08803 0.0
H39 H 0.72076 0.17341 0.08128 0.0
Tb40 Tb 0.08644 0.48037 0.09794 0.0
Tb41 Tb 1.02518 0.50718 0.11072 0.0
C42 C 0.04098 0.50182 0.07183 0.0
C43 C 0.1818 0.48429 0.09128 0.0
C44 C 0.26219 0.51349 0.08854 0.0
C45 C 0.24004 0.51111 0.07448 0.0
C46 C 0.20034 0.49651 0.07581 0.0
C47 C 0.20419 0.48817 0.10546 0.0
C48 C 0.24387 0.50268 0.10412 0.0
C49 C 0.13913 0.46421 0.09247 0.0
O50 O 0.11858 0.54249 0.10389 0.0
O51 O 0.07083 0.55679 0.09879 0.0
O52 O 0.06193 0.50921 0.13158 0.0
O53 O 0.06546 0.45763 0.12242 0.0
O54 O 1.01399 0.54662 0.12364 0.0
O55 O 0.96781 0.49219 0.11453 0.0
O56 O 0.99702 0.44511 0.1126 0.0
O57 O 0.02922 0.43033 0.09293 0.0
O58 O 0.07016 0.49649 0.07498 0.0
O59 O 1.01873 0.50398 0.08346 0.0
C60 C 0.1073 0.56737 0.09997 0.0
O61 O 0.12483 0.46354 0.10708 0.0
O62 O 0.11993 0.46978 0.08072 0.0
C63 C 0.06822 0.48047 0.13452 0.0
C64 C 0.95384 0.54264 0.11751 0.0
C65 C 0.90095 0.56773 0.10997 0.0
C66 C 0.91959 0.55936 0.09711 0.0
C67 C 0.94577 0.54678 0.10085 0.0
C68 C 0.93631 0.55218 0.13029 0.0
C69 C 0.91017 0.5646 0.12659 0.0
C70 C 0.97683 0.52453 0.12204 0.0
C71 C 0.99791 0.4211 0.10172 0.0
H72 H 0.25327 0.51977 0.06231 0.0
H73 H 0.18403 0.49382 0.06463 0.0
H74 H 0.19085 0.47872 0.11757 0.0
H75 H 0.25982 0.50367 0.11518 0.0
H76 H 0.91291 0.56119 0.08419 0.0
H77 H 0.95878 0.53921 0.09079 0.0
H78 H 0.94201 0.54895 0.14321 0.0
H79 H 0.89685 0.57138 0.13679 0.0
Tb80 Tb 0.62103 0.6374 0.10098 0.0
Tb81 Tb 0.58575 0.54583 0.10926 0.0
C82 C 0.59462 0.57761 0.07178 0.0
C83 C 0.63027 0.73498 0.09741 0.0
C84 C 0.59872 0.78395 0.09495 0.0
C85 C 0.59883 0.76248 0.08107 0.0
C86 C 0.61435 0.73808 0.0823 0.0
C87 C 0.63077 0.75693 0.11116 0.0
C88 C 0.61496 0.78095 0.10999 0.0
C89 C 0.64635 0.70913 0.09932 0.0
O90 O 0.55877 0.6124 0.1051 0.0
O91 O 0.53915 0.54965 0.09787 0.0
O92 O 0.58295 0.57592 0.13174 0.0
O93 O 0.63868 0.62897 0.1252 0.0
O94 O 0.5947 0.49865 0.10756 0.0
O95 O 0.54332 0.49299 0.11995 0.0
O96 O 0.64757 0.57365 0.11276 0.0
O97 O 0.66705 0.62518 0.09509 0.0
O98 O 0.60145 0.61174 0.07678 0.0
O99 O 0.59153 0.55046 0.0821 0.0
C100 C 0.53202 0.57799 0.09996 0.0
O101 O 0.63726 0.68951 0.11314 0.0
O102 O 0.64501 0.68818 0.08659 0.0
C103 C 0.61271 0.60888 0.13624 0.0
C104 C 0.55032 0.43541 0.1185 0.0
C105 C 0.52757 0.35623 0.11986 0.0
C106 C 0.4999 0.36818 0.11925 0.0
C107 C 0.5112 0.40741 0.11871 0.0
C108 C 0.578 0.42377 0.11957 0.0
C109 C 0.56677 0.38465 0.12041 0.0
C110 C 0.56237 0.47606 0.11509 0.0
C111 C 0.67375 0.6004 0.10313 0.0
H112 H 0.58706 0.76462 0.06923 0.0
H113 H 0.61375 0.72166 0.07145 0.0
H114 H 0.643 0.75512 0.12294 0.0
H115 H 0.61481 0.79658 0.12099 0.0
H116 H 0.46949 0.3473 0.11854 0.0
H117 H 0.48937 0.41575 0.11763 0.0
H118 H 0.60843 0.44492 0.11942 0.0
H119 H 0.58895 0.37679 0.12131 0.0
Tb120 Tb 1.01183 0.43731 0.92157 0.0
Tb121 Tb 0.06557 0.53076 0.91339 0.0
C122 C 0.04256 0.49986 0.95014 0.0
C123 C 0.92354 0.34048 0.92558 0.0
C124 C 0.84262 0.29301 0.92698 0.0
C125 C 0.86312 0.31725 0.94044 0.0
C126 C 0.90313 0.34086 0.93972 0.0
C127 C 0.90321 0.31581 0.91228 0.0
C128 C 0.86324 0.29249 0.91292 0.0
C129 C 0.96573 0.36571 0.92418 0.0
O130 O 0.97331 0.45736 0.91278 0.0
O131 O 1.00915 0.52152 0.91953 0.0
O132 O 0.03506 0.49788 0.891 0.0
O133 O 0.0428 0.44818 0.89845 0.0
O134 O 0.07635 0.58746 0.91574 0.0
O135 O 0.1104 0.57431 0.89905 0.0
O136 O 0.10613 0.50984 0.91587 0.0
O137 O 0.06953 0.44838 0.92703 0.0
O138 O 1.01413 0.46695 0.94458 0.0
O139 O 0.06944 0.52563 0.94029 0.0
C140 C 0.97623 0.49102 0.91581 0.0
O141 O 0.97772 0.38379 0.91004 0.0
O142 O 0.98432 0.38793 0.9368 0.0
C143 C 0.03566 0.46642 0.88687 0.0
C144 C 0.14032 0.63836 0.91063 0.0
C145 C 0.20114 0.71484 0.91599 0.0
C146 C 0.16792 0.69905 0.92596 0.0
C147 C 0.1379 0.66138 0.9233 0.0
C148 C 0.17433 0.65345 0.90117 0.0
C149 C 0.20452 0.69123 0.90389 0.0
C150 C 0.10573 0.60152 0.90569 0.0
C151 C 0.10269 0.47793 0.92233 0.0
H152 H 0.84829 0.31793 0.95159 0.0
H153 H 0.91794 0.35945 0.95021 0.0
H154 H 0.91825 0.31495 0.90122 0.0
H155 H 0.84848 0.27469 0.90223 0.0
H156 H 0.16466 0.71622 0.93558 0.0
H157 H 0.11214 0.65094 0.93078 0.0
H158 H 0.17693 0.63668 0.89118 0.0
H159 H 0.22964 0.70258 0.89593 0.0
Tb160 Tb 0.6412 0.60102 0.92162 0.0
Tb161 Tb 0.54875 0.56495 0.91371 0.0
C162 C 0.58228 0.57685 0.9498 0.0
C163 C 0.7356 0.60635 0.92222 0.0
C164 C 0.78141 0.57186 0.91702 0.0
C165 C 0.79842 0.6122 0.91882 0.0
C166 C 0.77569 0.62922 0.92149 0.0
C167 C 0.71838 0.56632 0.92001 0.0
C168 C 0.74102 0.54916 0.91762 0.0
C169 C 0.71187 0.62425 0.92538 0.0
O170 O 0.6148 0.53938 0.92611 0.0
O171 O 0.55755 0.51548 0.91165 0.0
O172 O 0.58262 0.59508 0.89155 0.0
O173 O 0.62563 0.576 0.89706 0.0
O174 O 0.49724 0.55994 0.92297 0.0
O175 O 0.49895 0.53438 0.8989 0.0
O176 O 0.57004 0.62489 0.91991 0.0
O177 O 0.63535 0.65139 0.91607 0.0
O178 O 0.61477 0.60559 0.94435 0.0
O179 O 0.55629 0.55226 0.9394 0.0
C180 C 0.5838 0.51056 0.91939 0.0
O181 O 0.69756 0.63166 0.91221 0.0
O182 O 0.68635 0.60841 0.9372 0.0
C183 C 0.6111 0.59017 0.88658 0.0
C184 C 0.43713 0.5258 0.9077 0.0
C185 C 0.35818 0.503 0.90906 0.0
C186 C 0.37145 0.47832 0.91479 0.0
C187 C 0.41047 0.48957 0.91404 0.0
C188 C 0.42433 0.55043 0.90174 0.0
C189 C 0.38517 0.53901 0.90225 0.0
C190 C 0.47835 0.54014 0.90995 0.0
C191 C 0.60452 0.65482 0.91789 0.0
H192 H 0.82931 0.63076 0.91808 0.0
H193 H 0.78942 0.66025 0.92299 0.0
H194 H 0.68742 0.54832 0.92031 0.0
H195 H 0.72676 0.51803 0.91653 0.0
H196 H 0.35203 0.45083 0.92049 0.0
H197 H 0.42005 0.47063 0.9191 0.0
H198 H 0.44475 0.5789 0.89711 0.0
H199 H 0.37623 0.55866 0.89747 0.0
Tb200 Tb 0.47825 0.06679 0.92547 0.0
Tb201 Tb 0.51469 1.0129 0.91312 0.0
C202 C 0.50282 0.02552 0.95133 0.0
C203 C 0.47005 0.15391 0.9298 0.0
C204 C 0.50327 0.23452 0.92646 0.0
C205 C 0.46559 0.21208 0.9326 0.0
C206 C 0.44917 0.17206 0.93429 0.0
C207 C 0.5072 0.17598 0.9232 0.0
C208 C 0.52367 0.21593 0.92155 0.0
C209 C 0.45368 0.11225 0.93247 0.0
O210 O 0.53966 0.09972 0.92992 0.0
O211 O 0.56 0.07272 0.90999 0.0
O212 O 0.48538 0.02336 0.89231 0.0
O213 O 0.50088 0.08336 0.9006 0.0
O214 O 0.56221 1.00462 0.91082 0.0
O215 O 0.50763 0.96415 0.89986 0.0
O216 O 0.45881 0.97313 0.92347 0.0
O217 O 0.43006 1.00989 0.91911 0.0
O218 O 0.47615 0.03393 0.94716 0.0
O219 O 0.52417 0.02079 0.94008 0.0
C220 C 0.5669 0.10067 0.92053 0.0
O221 O 0.44397 0.09105 0.91904 0.0
O222 O 0.47261 0.1028 0.94288 0.0
C223 C 0.48913 0.05724 0.88897 0.0
C224 C 0.54891 0.9396 0.90789 0.0
C225 C 0.56889 0.88153 0.91293 0.0
C226 C 0.53881 0.87529 0.90203 0.0
C227 C 0.52905 0.90405 0.8995 0.0
C228 C 0.57789 0.94522 0.91931 0.0
C229 C 0.58768 0.91651 0.92182 0.0
C230 C 0.54269 0.97192 0.90296 0.0
C231 C 0.42788 0.97618 0.92147 0.0
H232 H 0.44929 0.22558 0.93661 0.0
H233 H 0.42045 0.15538 0.9394 0.0
H234 H 0.52365 0.16237 0.91955 0.0
H235 H 0.55251 0.23232 0.91654 0.0
H236 H 0.52392 0.84886 0.89486 0.0
H237 H 0.50693 0.89903 0.89047 0.0
H238 H 0.59395 0.97228 0.92595 0.0
H239 H 0.61051 0.92203 0.93054 0.0
Tb240 Tb 0.12258 0.33619 0.43354 0.0
Tb241 Tb 0.20915 0.39894 0.44625 0.0
C242 C 0.18813 0.37845 0.40843 0.0
C243 C 0.03147 0.24457 0.42774 0.0
C244 C 0.98468 0.16485 0.43326 0.0
C245 C 0.97467 0.18371 0.42111 0.0
C246 C 0.99789 0.22326 0.4184 0.0
C247 C 0.0417 0.22608 0.4399 0.0
C248 C 1.01841 0.18648 0.44267 0.0
C249 C 0.05611 0.28578 0.42434 0.0
O250 O 0.15677 0.30749 0.43389 0.0
O251 O 0.19776 0.34302 0.45486 0.0
O252 O 0.16813 0.38914 0.46646 0.0
O253 O 0.12456 0.32674 0.45986 0.0
O254 O 0.26631 0.41258 0.44985 0.0
O255 O 0.24731 0.45217 0.4576 0.0
O256 O 0.18731 0.43183 0.43361 0.0
O257 O 0.12343 0.39031 0.43877 0.0
O258 O 0.15295 0.36991 0.41209 0.0
O259 O 0.2134 0.38441 0.42022 0.0
C260 C 0.18162 0.31195 0.44557 0.0
O261 O 0.06282 0.3089 0.43694 0.0
O262 O 0.08728 0.29489 0.41592 0.0
C263 C 0.13837 0.35544 0.47042 0.0
C264 C 0.31293 0.47906 0.44998 0.0
C265 C 0.38712 0.53781 0.44057 0.0
C266 C 0.37263 0.53763 0.45654 0.0
C267 C 0.33593 0.50857 0.46117 0.0
C268 C 0.32661 0.47972 0.43381 0.0
C269 C 0.36341 0.50887 0.42915 0.0
C270 C 0.27649 0.44651 0.45603 0.0
C271 C 0.15216 0.4253 0.43581 0.0
H272 H 0.94925 0.1678 0.41346 0.0
H273 H 0.98984 0.23716 0.40889 0.0
H274 H 0.06772 0.24224 0.44719 0.0
H275 H 1.02664 0.1729 0.45225 0.0
H276 H 0.39017 0.55911 0.46573 0.0
H277 H 0.32595 0.50844 0.47372 0.0
H278 H 0.30925 0.45728 0.42492 0.0
H279 H 0.37343 0.5085 0.41666 0.0
Tb280 Tb 0.74022 0.80445 0.43476 0.0
Tb281 Tb 0.69036 0.84834 0.44434 0.0
C282 C 0.71274 0.84137 0.40726 0.0
C283 C 0.8259 0.79237 0.4296 0.0
C284 C 0.90698 0.82578 0.42818 0.0
C285 C 0.8875 0.83765 0.41713 0.0
C286 C 0.84747 0.82136 0.41791 0.0
C287 C 0.8451 0.77996 0.44041 0.0
C288 C 0.88514 0.79649 0.43975 0.0
C289 C 0.78389 0.77617 0.43147 0.0
O290 O 0.78178 0.86269 0.44285 0.0
O291 O 0.74769 0.89448 0.43913 0.0
O292 O 0.72174 0.84375 0.46593 0.0
O293 O 0.70955 0.78507 0.45797 0.0
O294 O 0.67678 0.89228 0.44103 0.0
O295 O 0.6513 0.85123 0.46113 0.0
O296 O 0.64818 0.78759 0.44151 0.0
O297 O 0.68151 0.76171 0.42808 0.0
O298 O 0.73992 0.83454 0.41244 0.0
O299 O 0.68672 0.84157 0.41727 0.0
C300 C 0.78016 0.89457 0.44113 0.0
O301 O 0.77311 0.78285 0.4458 0.0
O302 O 0.76506 0.78046 0.41913 0.0
C303 C 0.71906 0.81056 0.46973 0.0
C304 C 0.6175 0.88314 0.45182 0.0
C305 C 0.55606 0.89843 0.44804 0.0
C306 C 0.57796 0.90851 0.46277 0.0
C307 C 0.60821 0.90091 0.46462 0.0
C308 C 0.59486 0.87152 0.43728 0.0
C309 C 0.56415 0.87889 0.43546 0.0
C310 C 0.65317 0.88107 0.45362 0.0
C311 C 0.64931 0.75938 0.43349 0.0
H312 H 0.90315 0.85964 0.40785 0.0
H313 H 0.83352 0.83176 0.40949 0.0
H314 H 0.82913 0.75793 0.44965 0.0
H315 H 0.89898 0.78698 0.44866 0.0
H316 H 0.57215 0.92302 0.4728 0.0
H317 H 0.62529 0.91018 0.47592 0.0
H318 H 0.60161 0.85787 0.42719 0.0
H319 H 0.54783 0.87082 0.42395 0.0
Tb320 Tb 0.27368 0.96542 0.43059 0.0
Tb321 Tb 0.23888 0.87302 0.43797 0.0
C322 C 0.24758 0.90695 0.40197 0.0
C323 C 0.28355 0.06254 0.43155 0.0
C324 C 0.25714 0.1139 0.43972 0.0
C325 C 0.27374 0.11586 0.42408 0.0
C326 C 0.28688 0.09041 0.42006 0.0
C327 C 0.26615 0.05985 0.44706 0.0
C328 C 0.25321 0.08546 0.45113 0.0
C329 C 0.29817 0.0365 0.42707 0.0
O330 O 0.21203 0.94011 0.42712 0.0
O331 O 0.18842 0.88023 0.43944 0.0
O332 O 0.26776 0.90733 0.46035 0.0
O333 O 0.24802 0.94995 0.45495 0.0
O334 O 0.23583 0.82178 0.43011 0.0
O335 O 0.20658 0.82323 0.45305 0.0
O336 O 0.29851 0.89454 0.43127 0.0
O337 O 0.32347 0.95912 0.43671 0.0
O338 O 0.27627 0.93955 0.40739 0.0
O339 O 0.22489 0.87948 0.41229 0.0
C340 C 0.18337 0.90761 0.43286 0.0
O341 O 0.30807 0.0219 0.43938 0.0
O342 O 0.27876 1.01087 0.41563 0.0
C343 C 0.26177 0.93516 0.46547 0.0
C344 C 0.20319 0.76215 0.4453 0.0
C345 C 0.18077 0.68304 0.44626 0.0
C346 C 0.15325 0.69507 0.44765 0.0
C347 C 0.16444 0.73426 0.44736 0.0
C348 C 0.23088 0.75062 0.4441 0.0
C349 C 0.21988 0.71151 0.44481 0.0
C350 C 0.21407 0.80265 0.44265 0.0
C351 C 0.32786 0.92894 0.43424 0.0
H352 H 0.27747 0.13768 0.4151 0.0
H353 H 0.29998 0.09271 0.408 0.0
H354 H 0.26273 0.03816 0.45607 0.0
H355 H 0.24005 0.08296 0.46319 0.0
H356 H 0.12283 0.6743 0.44843 0.0
H357 H 0.14262 0.74269 0.44802 0.0
H358 H 0.261 0.77186 0.44246 0.0
H359 H 0.24216 0.70376 0.44413 0.0
Tb360 Tb 0.68304 0.78014 0.25851 0.0
Tb361 Tb 0.7364 0.87173 0.24769 0.0
C362 C 0.72073 0.84612 0.28557 0.0
C363 C 0.59427 0.68486 0.26327 0.0
C364 C 0.5133 0.63913 0.26176 0.0
C365 C 0.53093 0.67779 0.26719 0.0
C366 C 0.57108 0.70054 0.26783 0.0
C367 C 0.5769 0.64632 0.25811 0.0
C368 C 0.53688 0.62368 0.25731 0.0
C369 C 0.63637 0.70895 0.26228 0.0
O370 O 0.64406 0.8017 0.25202 0.0
O371 O 0.68408 0.86591 0.25757 0.0
O372 O 0.70169 0.83589 0.22667 0.0
O373 O 0.71137 0.78797 0.2349 0.0
O374 O 0.74745 0.92883 0.24736 0.0
O375 O 0.78162 0.91219 0.23255 0.0
O376 O 0.77611 0.85008 0.25055 0.0
O377 O 0.74088 0.79139 0.2641 0.0
O378 O 0.69228 0.81177 0.2815 0.0
O379 O 0.74447 0.87155 0.27463 0.0
C380 C 0.64968 0.836 0.25602 0.0
O381 O 0.64922 0.7254 0.2479 0.0
O382 O 0.65393 0.73261 0.27461 0.0
C383 C 0.70259 0.80435 0.22308 0.0
C384 C 0.81248 0.97668 0.24273 0.0
C385 C 0.87564 0.04973 0.25113 0.0
C386 C 0.8688 0.037 0.23448 0.0
C387 C 0.83753 1.00089 0.23035 0.0
C388 C 0.82 0.98858 0.25946 0.0
C389 C 0.85123 0.02475 0.2636 0.0
C390 C 0.77737 0.94074 0.23775 0.0
C391 C 0.77361 0.81998 0.25842 0.0
H392 H 0.51376 0.69056 0.2709 0.0
H393 H 0.58399 0.73048 0.27164 0.0
H394 H 0.59438 0.63396 0.25426 0.0
H395 H 0.52454 0.59438 0.25274 0.0
H396 H 0.88672 0.05551 0.22454 0.0
H397 H 0.83224 0.99233 0.21738 0.0
H398 H 0.80127 0.97033 0.26929 0.0
H399 H 0.85605 0.03331 0.27658 0.0
Tb400 Tb 0.29538 0.91946 0.25841 0.0
Tb401 Tb 0.20984 0.89433 0.24352 0.0
C402 C 0.22709 0.89891 0.28211 0.0
C403 C 0.3864 0.91867 0.26834 0.0
C404 C 0.44 0.89245 0.269 0.0
C405 C 0.41834 0.88961 0.28322 0.0
C406 C 0.39208 0.9028 0.28292 0.0
C407 C 0.40669 0.91993 0.25383 0.0
C408 C 0.43326 0.90685 0.25416 0.0
C409 C 0.36098 0.93559 0.26898 0.0
O410 O 0.26126 0.85658 0.25912 0.0
O411 O 0.2233 0.84998 0.23678 0.0
O412 O 0.25277 0.92632 0.22411 0.0
O413 O 0.29572 0.90779 0.23215 0.0
O414 O 0.15456 0.84867 0.23822 0.0
O415 O 0.17079 0.90716 0.2315 0.0
O416 O 0.22901 0.94947 0.25526 0.0
O417 O 0.29423 0.97302 0.25355 0.0
O418 O 0.26348 0.92294 0.27921 0.0
O419 O 0.20235 0.87977 0.27013 0.0
C420 C 0.23793 0.83546 0.24715 0.0
O421 O 0.35544 0.94965 0.25525 0.0
O422 O 0.32932 0.91634 0.2775 0.0
C423 C 0.28304 0.92262 0.22103 0.0
C424 C 0.1049 0.86423 0.23871 0.0
C425 C 0.03061 0.84795 0.24868 0.0
C426 C 0.06102 0.88636 0.24762 0.0
C427 C 0.09784 0.89445 0.24269 0.0
C428 C 0.07456 0.82597 0.23985 0.0
C429 C 0.03793 0.81791 0.2448 0.0
C430 C 0.14274 0.87152 0.23253 0.0
C431 C 0.26442 0.97848 0.25486 0.0
H432 H 0.42237 0.87799 0.29475 0.0
H433 H 0.37682 0.9014 0.29426 0.0
H434 H 0.40288 0.93195 0.24237 0.0
H435 H 0.44968 0.90958 0.24303 0.0
H436 H 0.05641 0.91017 0.25064 0.0
H437 H 0.12057 0.92429 0.24187 0.0
H438 H 0.07901 0.80213 0.23665 0.0
H439 H 1.01509 0.78807 0.24516 0.0
Tb440 Tb 0.1528 0.39861 0.25992 0.0
Tb441 Tb 0.19422 0.34812 0.249 0.0
C442 C 0.1839 0.36263 0.28678 0.0
C443 C 0.14043 0.48411 0.26194 0.0
C444 C 0.16588 0.5622 0.25461 0.0
C445 C 0.14579 0.54552 0.26944 0.0
C446 C 0.13312 0.50676 0.27304 0.0
C447 C 0.16151 0.50096 0.24735 0.0
C448 C 0.17396 0.53961 0.24369 0.0
C449 C 0.12654 0.44325 0.26583 0.0
O450 O 0.21002 0.43925 0.25063 0.0
O451 O 0.23963 0.40443 0.25674 0.0
O452 O 0.19192 0.38141 0.22761 0.0
O453 O 0.13473 0.37426 0.23537 0.0
O454 O 0.24168 0.33953 0.24937 0.0
O455 O 0.19275 0.30422 0.23379 0.0
O456 O 0.13262 0.30754 0.25033 0.0
O457 O 0.11011 0.33988 0.26659 0.0
O458 O 0.17709 0.39039 0.2825 0.0
O459 O 0.18628 0.33917 0.27589 0.0
C460 C 0.24122 0.43742 0.25376 0.0
O461 O 0.11595 0.41962 0.25322 0.0
O462 O 0.14743 0.43677 0.27631 0.0
C463 C 0.16038 0.38213 0.22386 0.0
C464 C 0.22922 0.27566 0.24398 0.0
C465 C 0.2445 0.21426 0.24897 0.0
C466 C 0.26493 0.24901 0.25789 0.0
C467 C 0.2575 0.27932 0.2554 0.0
C468 C 0.20773 0.24039 0.2355 0.0
C469 C 0.21516 0.20996 0.23802 0.0
C470 C 0.22568 0.30985 0.23944 0.0
C471 C 0.1056 0.30817 0.25944 0.0
H472 H 0.13895 0.56212 0.27804 0.0
H473 H 0.11728 0.49434 0.28444 0.0
H474 H 0.16813 0.4842 0.23873 0.0
H475 H 0.18991 0.55184 0.2323 0.0
H476 H 0.28724 0.25309 0.26664 0.0
H477 H 0.27486 0.30608 0.26208 0.0
H478 H 0.18609 0.23676 0.22646 0.0
H479 H 0.19903 0.1837 0.23085 0.0
Tb480 Tb 0.7904 0.67133 0.76267 0.0
Tb481 Tb 0.87811 0.73371 0.77517 0.0
C482 C 0.85569 0.71371 0.73718 0.0
C483 C 0.69308 0.5824 0.75625 0.0
C484 C 0.63239 0.5066 0.7617 0.0
C485 C 0.62875 0.53061 0.74993 0.0
C486 C 0.65877 0.56807 0.74725 0.0
C487 C 0.69759 0.55831 0.7677 0.0
C488 C 0.66738 0.52044 0.77036 0.0
C489 C 0.72288 0.62281 0.75356 0.0
O490 O 0.82389 0.64176 0.76225 0.0
O491 O 0.86574 0.67692 0.78302 0.0
O492 O 0.83702 0.72414 0.79543 0.0
O493 O 0.79325 0.6618 0.78889 0.0
O494 O 0.93491 0.74557 0.77824 0.0
O495 O 0.91764 0.78574 0.78705 0.0
O496 O 0.85784 0.76831 0.76295 0.0
O497 O 0.79327 0.72713 0.76711 0.0
O498 O 0.82032 0.70418 0.74103 0.0
O499 O 0.88181 0.72115 0.74879 0.0
C500 C 0.84968 0.64624 0.77347 0.0
O501 O 0.73079 0.64633 0.76611 0.0
O502 O 0.75379 0.62877 0.74569 0.0
C503 C 0.80713 0.69049 0.79944 0.0
C504 C 0.98368 0.81112 0.78007 0.0
C505 C 0.05921 0.86897 0.77141 0.0
C506 C 0.04808 0.86047 0.78821 0.0
C507 C 1.01079 0.83204 0.79245 0.0
C508 C 0.99417 0.81955 0.76325 0.0
C509 C 0.03161 0.84831 0.75896 0.0
C510 C 0.94602 0.77889 0.78526 0.0
C511 C 0.82267 0.76218 0.76451 0.0
H512 H 0.60231 0.52055 0.74294 0.0
H513 H 0.65491 0.58618 0.7383 0.0
H514 H 0.72404 0.56897 0.77475 0.0
H515 H 0.67081 0.50254 0.77956 0.0
H516 H 0.06847 0.87499 0.79818 0.0
H517 H 1.00337 0.82567 0.80549 0.0
H518 H 0.97366 0.80357 0.75349 0.0
H519 H 0.03888 0.85433 0.74591 0.0
Tb520 Tb 0.40849 0.15315 0.76137 0.0
Tb521 Tb 0.34032 0.1691 0.77515 0.0
C522 C 0.36346 0.17634 0.73718 0.0
C523 C 0.50169 0.15721 0.75531 0.0
C524 C 0.57986 0.18772 0.76379 0.0
C525 C 0.56759 0.2106 0.75544 0.0
C526 C 0.52894 0.19558 0.75129 0.0
C527 C 0.51386 0.13435 0.7637 0.0
C528 C 0.55252 0.14948 0.76796 0.0
C529 C 0.4607 0.14093 0.7509 0.0
O530 O 0.43884 0.2115 0.77171 0.0
O531 O 0.38945 0.22508 0.76988 0.0
O532 O 0.36552 0.16205 0.79822 0.0
O533 O 0.40971 0.1459 0.78789 0.0
O534 O 0.31965 0.20164 0.78755 0.0
O535 O 0.28084 0.14635 0.77628 0.0
O536 O 0.32556 0.11027 0.77929 0.0
O537 O 0.35173 0.10292 0.75577 0.0
O538 O 0.39736 0.18292 0.74187 0.0
O539 O 0.33473 0.16396 0.74784 0.0
C540 C 0.42615 0.23624 0.77158 0.0
O541 O 0.43568 0.11968 0.76219 0.0
O542 O 0.45126 0.16429 0.74375 0.0
C543 C 0.39166 0.15144 0.80024 0.0
C544 C 0.25877 0.19127 0.77754 0.0
C545 C 0.20588 0.21577 0.76898 0.0
C546 C 0.24296 0.2425 0.77474 0.0
C547 C 0.26915 0.23036 0.77902 0.0
C548 C 0.22204 0.16483 0.7714 0.0
C549 C 0.19602 0.17694 0.76709 0.0
C550 C 0.28394 0.17674 0.78379 0.0
C551 C 0.32387 0.08875 0.76681 0.0
H552 H 0.58796 0.23995 0.75181 0.0
H553 H 0.52059 0.21408 0.74483 0.0
H554 H 0.49343 0.10476 0.76699 0.0
H555 H 0.56095 0.13125 0.7746 0.0
H556 H 0.25128 0.27255 0.77651 0.0
H557 H 0.29705 0.25138 0.78391 0.0
H558 H 0.21298 0.13444 0.77028 0.0
H559 H 0.16792 0.1557 0.76247 0.0
Tb560 Tb 0.93381 0.29389 0.76465 0.0
Tb561 Tb 0.89313 0.20158 0.77531 0.0
C562 C 0.89223 0.22759 0.73886 0.0
C563 C 0.95036 0.394 0.75919 0.0
C564 C 0.928 0.4499 0.76397 0.0
C565 C 0.96711 0.4607 0.76322 0.0
C566 C 0.97814 0.43301 0.76085 0.0
C567 C 0.91113 0.38301 0.75933 0.0
C568 C 0.9 0.41093 0.76158 0.0
C569 C 0.96326 0.36541 0.75931 0.0
O570 O 0.87863 0.27935 0.77556 0.0
O571 O 0.84663 0.21353 0.77168 0.0
O572 O 0.89941 0.23749 0.79714 0.0
O573 O 0.9559 0.28566 0.78789 0.0
O574 O 0.84884 0.14429 0.77232 0.0
O575 O 0.89211 0.15932 0.79143 0.0
O576 O 0.95399 0.22161 0.77245 0.0
O577 O 0.9746 0.2765 0.75635 0.0
O578 O 0.89581 0.26001 0.74456 0.0
O579 O 0.89937 0.2048 0.74821 0.0
C580 C 0.84668 0.24595 0.77441 0.0
O581 O 0.96212 0.35042 0.77383 0.0
O582 O 0.95075 0.33948 0.74751 0.0
C583 C 0.93201 0.26922 0.80014 0.0
C584 C 0.85875 0.09377 0.78201 0.0
C585 C 0.84418 1.01754 0.77689 0.0
C586 C 0.82937 0.02687 0.79088 0.0
C587 C 0.83659 0.06447 0.7934 0.0
C588 C 0.87486 0.08519 0.76825 0.0
C589 C 0.86781 0.04731 0.76576 0.0
C590 C 0.86132 0.13163 0.78439 0.0
C591 C 0.97981 0.24919 0.76292 0.0
H592 H 0.98924 0.49057 0.76491 0.0
H593 H 1.00848 0.44194 0.76092 0.0
H594 H 0.88924 0.35287 0.7583 0.0
H595 H 0.86966 0.40188 0.76223 0.0
H596 H 0.81165 1.00487 0.79984 0.0
H597 H 0.82389 0.07046 0.80408 0.0
H598 H 0.89195 0.10742 0.75926 0.0
H599 H 0.8796 0.041 0.75485 0.0
Tb600 Tb 0.34026 0.11052 0.59089 0.0
Tb601 Tb 0.39559 0.20024 0.57815 0.0
C602 C 0.37521 0.17774 0.61604 0.0
C603 C 0.25229 1.01678 0.59587 0.0
C604 C 0.17298 0.96928 0.58935 0.0
C605 C 0.18712 1.00633 0.5962 0.0
C606 C 0.22635 0.0299 0.59933 0.0
C607 C 0.23834 0.9799 0.58901 0.0
C608 C 0.19908 0.95637 0.58574 0.0
C609 C 0.29391 0.0417 0.59882 0.0
O610 O 0.30565 0.13822 0.59152 0.0
O611 O 0.33701 0.18585 0.5719 0.0
O612 O 0.38797 0.16049 0.55761 0.0
O613 O 0.3279 0.11363 0.56496 0.0
O614 O 0.40613 0.25704 0.5754 0.0
O615 O 0.44648 0.24081 0.56611 0.0
O616 O 0.43271 0.18343 0.59088 0.0
O617 O 0.39708 0.11816 0.58617 0.0
O618 O 0.36969 0.14319 0.61286 0.0
O619 O 0.38013 0.20244 0.60414 0.0
C620 C 0.30657 0.1639 0.58105 0.0
O621 O 0.31578 0.05124 0.58565 0.0
O622 O 0.30396 0.07103 0.60878 0.0
C623 C 0.35536 0.12915 0.55394 0.0
C624 C 0.47196 0.30635 0.575 0.0
C625 C 0.53335 0.3803 0.58396 0.0
C626 C 0.54006 0.34938 0.581 0.0
C627 C 0.50972 0.31281 0.57656 0.0
C628 C 0.46529 0.33711 0.57811 0.0
C629 C 0.49549 0.37353 0.58254 0.0
C630 C 0.43986 0.26917 0.56876 0.0
C631 C 0.43015 0.14951 0.58925 0.0
H632 H 0.16786 1.01703 0.59937 0.0
H633 H 0.23628 0.05837 0.60451 0.0
H634 H 0.2579 0.9694 0.58607 0.0
H635 H 0.18928 0.92826 0.58021 0.0
H636 H 0.56876 0.3534 0.58213 0.0
H637 H 0.51599 0.28984 0.57413 0.0
H638 H 0.43668 0.33325 0.57674 0.0
H639 H 0.48923 0.39669 0.58438 0.0
Tb640 Tb 0.9561 0.25061 0.59248 0.0
Tb641 Tb 0.86883 0.22542 0.57978 0.0
C642 C 0.88869 0.2228 0.6181 0.0
C643 C 0.05155 0.25727 0.59459 0.0
C644 C 0.10148 0.22886 0.58697 0.0
C645 C 0.06419 0.21139 0.58012 0.0
C646 C 0.0394 0.22546 0.58391 0.0
C647 C 0.08893 0.2754 0.60109 0.0
C648 C 0.11376 0.26137 0.59731 0.0
C649 C 1.02515 0.27105 0.59938 0.0
O650 O 0.92434 0.18746 0.59278 0.0
O651 O 0.88004 0.17956 0.57291 0.0
O652 O 0.91121 0.26026 0.56062 0.0
O653 O 0.95108 0.23701 0.56634 0.0
O654 O 0.8133 0.18098 0.57376 0.0
O655 O 0.83045 0.24064 0.56885 0.0
O656 O 0.88618 0.27584 0.59484 0.0
O657 O 0.95108 0.30309 0.59031 0.0
O658 O 0.92551 0.24573 0.6152 0.0
O659 O 0.86255 0.20845 0.60612 0.0
C660 C 0.89668 0.16536 0.58237 0.0
O661 O 1.01495 0.28633 0.58749 0.0
O662 O 0.99587 0.24737 0.60845 0.0
C663 C 0.93955 0.25459 0.55618 0.0
C664 C 0.76354 0.19635 0.57336 0.0
C665 C 0.6874 0.17785 0.58091 0.0
C666 C 0.69463 0.15324 0.57094 0.0
C667 C 0.73219 0.16237 0.56725 0.0
C668 C 0.75674 0.22131 0.58331 0.0
C669 C 0.71888 0.21215 0.58702 0.0
C670 C 0.80246 0.2049 0.56845 0.0
C671 C 0.92068 0.30601 0.59429 0.0
H672 H 0.05406 0.18664 0.57194 0.0
H673 H 1.0106 0.21123 0.57872 0.0
H674 H 0.09868 0.29998 0.60935 0.0
H675 H 0.14211 0.27519 0.60293 0.0
H676 H 0.67119 0.12705 0.56572 0.0
H677 H 0.73677 0.14291 0.55943 0.0
H678 H 0.78052 0.24779 0.58816 0.0
H679 H 0.71426 0.23161 0.59481 0.0
Tb680 Tb 0.81469 0.72744 0.58979 0.0
Tb681 Tb 0.85453 0.67497 0.57872 0.0
C682 C 0.85311 0.69888 0.61579 0.0
C683 C 0.80028 0.81251 0.59637 0.0
C684 C 0.82065 0.89083 0.59377 0.0
C685 C 0.7835 0.86282 0.59884 0.0
C686 C 0.77346 0.82409 0.60012 0.0
C687 C 0.83813 0.84058 0.59214 0.0
C688 C 0.84833 0.87961 0.59094 0.0
C689 C 0.78667 0.77089 0.59501 0.0
O690 O 0.87136 0.76772 0.57995 0.0
O691 O 0.90171 0.7323 0.58367 0.0
O692 O 0.84947 0.70595 0.55712 0.0
O693 O 0.79309 0.698 0.56635 0.0
O694 O 0.90059 0.66431 0.57996 0.0
O695 O 0.85238 0.63036 0.56375 0.0
O696 O 0.79332 0.63446 0.58146 0.0
O697 O 0.77196 0.66891 0.59703 0.0
O698 O 0.84862 0.72771 0.61084 0.0
O699 O 0.84856 0.67077 0.60578 0.0
C700 C 0.90274 0.76527 0.58132 0.0
O701 O 0.7903 0.75918 0.58034 0.0
O702 O 0.79599 0.75478 0.60688 0.0
C703 C 0.81728 0.706 0.55417 0.0
C704 C 0.88509 0.59953 0.57528 0.0
C705 C 0.8934 0.53551 0.58453 0.0
C706 C 0.8877 0.54175 0.56776 0.0
C707 C 0.88371 0.57346 0.56321 0.0
C708 C 0.89011 0.59309 0.59207 0.0
C709 C 0.89443 0.56163 0.59661 0.0
C710 C 0.88437 0.6347 0.56998 0.0
C711 C 0.76695 0.63633 0.59056 0.0
H712 H 0.76172 0.87073 0.60124 0.0
H713 H 0.74414 0.80288 0.60334 0.0
H714 H 0.85922 0.83212 0.5891 0.0
H715 H 0.87709 0.90059 0.58691 0.0
H716 H 0.88609 0.52205 0.55811 0.0
H717 H 0.88002 0.57791 0.55017 0.0
H718 H 0.8915 0.61279 0.60168 0.0
H719 H 0.89938 0.55832 0.60961 0.0
H720 H 0.57494 0.96696 0.11488 0.0
H721 H 0.47078 0.91162 0.08485 0.0
H722 H 0.481 0.85686 0.0797 0.0
H723 H 0.62992 0.93848 0.08951 0.0
H724 H 0.65361 0.93012 0.10679 0.0
H725 H 0.63793 0.9651 0.10864 0.0
H726 H 0.59821 0.92985 0.13486 0.0
H727 H 0.61384 0.8948 0.13311 0.0
H728 H 0.56319 0.87913 0.13366 0.0
H729 H 0.50195 0.80855 0.07741 0.0
H730 H 0.53256 0.7683 0.07858 0.0
H731 H 0.62424 0.85522 0.10927 0.0
C732 C 0.55416 0.94318 0.10734 0.0
C733 C 0.5221 0.94361 0.10029 0.0
C734 C 0.49566 0.91206 0.09038 0.0
C735 C 0.50113 0.88073 0.08736 0.0
C736 C 0.53313 0.88133 0.09434 0.0
C737 C 0.55919 0.91156 0.10414 0.0
C738 C 0.59138 0.90491 0.10993 0.0
C739 C 0.63052 0.93653 0.10332 0.0
C740 C 0.59165 0.90199 0.12902 0.0
C741 C 0.57924 0.86634 0.10175 0.0
C742 C 0.54553 0.85331 0.09286 0.0
C743 C 0.52848 0.8184 0.08428 0.0
C744 C 0.54627 0.79593 0.08489 0.0
C745 C 0.58088 0.80863 0.09394 0.0
C746 C 0.59757 0.84446 0.1024 0.0
H747 H 0.29934 0.7754 0.10733 0.0
H748 H 0.24005 0.81673 0.07532 0.0
H749 H 0.18489 0.75101 0.07337 0.0
H750 H 0.26528 0.68333 0.08643 0.0
H751 H 0.25923 0.65644 0.1053 0.0
H752 H 0.29511 0.7069 0.10431 0.0
H753 H 0.26513 0.72055 0.13017 0.0
H754 H 0.2293 0.67013 0.13129 0.0
H755 H 0.21474 0.70608 0.13002 0.0
H756 H 0.13623 0.68326 0.07502 0.0
H757 H 0.09411 0.61442 0.08048 0.0
H758 H 0.18271 0.61307 0.11124 0.0
C759 C 0.27465 0.7705 0.09998 0.0
C760 C 0.27424 0.80117 0.09127 0.0
C761 C 0.24141 0.79364 0.08178 0.0
C762 C 0.20982 0.75642 0.08066 0.0
C763 C 0.21129 0.72686 0.08913 0.0
C764 C 0.2426 0.73316 0.09865 0.0
C765 C 0.23594 0.69566 0.10652 0.0
C766 C 0.26567 0.68496 0.10026 0.0
C767 C 0.23629 0.69827 0.12563 0.0
C768 C 0.19592 0.6676 0.09998 0.0
C769 C 0.18258 0.68661 0.08998 0.0
C770 C 0.1463 0.66791 0.08276 0.0
C771 C 0.12259 0.6287 0.08596 0.0
C772 C 0.13512 0.60824 0.09623 0.0
C773 C 0.17256 0.62787 0.10319 0.0
H774 H 0.32365 0.55768 0.10967 0.0
H775 H 0.29383 0.49201 0.06355 0.0
H776 H 0.36062 0.50603 0.06078 0.0
H777 H 0.42089 0.63168 0.09709 0.0
H778 H 0.44136 0.63463 0.11741 0.0
H779 H 0.39156 0.62178 0.11545 0.0
H780 H 0.3711 0.55894 0.13208 0.0
H781 H 0.42078 0.57162 0.13412 0.0
H782 H 0.38647 0.52587 0.1251 0.0
H783 H 0.42811 0.52196 0.06382 0.0
H784 H 0.49426 0.5407 0.07222 0.0
H785 H 0.48309 0.5977 0.11612 0.0
C786 C 0.33122 0.54642 0.09894 0.0
C787 C 0.30335 0.52408 0.08671 0.0
C788 C 0.31461 0.50994 0.07288 0.0
C789 C 0.35251 0.51752 0.07124 0.0
C790 C 0.37908 0.5394 0.0835 0.0
C791 C 0.36916 0.55384 0.09706 0.0
C792 C 0.4034 0.57561 0.10865 0.0
C793 C 0.41498 0.61847 0.10971 0.0
C794 C 0.39492 0.55688 0.12601 0.0
C795 C 0.43379 0.5704 0.09961 0.0
C796 C 0.41891 0.54942 0.08511 0.0
C797 C 0.44029 0.53882 0.07501 0.0
C798 C 0.47777 0.54953 0.07991 0.0
C799 C 0.49378 0.57095 0.09469 0.0
C800 C 0.47173 0.58204 0.10458 0.0
H801 H 0.96595 0.54775 0.92955 0.0
H802 H 0.90926 0.44447 0.89899 0.0
H803 H 0.85309 0.45394 0.89584 0.0
H804 H 0.88034 0.53213 0.9512 0.0
H805 H 0.89534 0.5828 0.95195 0.0
H806 H 0.93083 0.56769 0.9517 0.0
H807 H 0.96256 0.61035 0.92572 0.0
H808 H 0.92702 0.62539 0.9258 0.0
H809 H 0.93383 0.60365 0.9074 0.0
H810 H 0.80471 0.47672 0.89497 0.0
H811 H 0.76555 0.5082 0.89797 0.0
H812 H 0.85249 0.59394 0.93077 0.0
C813 C 0.94172 0.52708 0.92219 0.0
C814 C 0.94193 0.49544 0.91445 0.0
C815 C 0.90955 0.46882 0.90508 0.0
C816 C 0.87764 0.47405 0.90317 0.0
C817 C 0.8785 0.50575 0.91088 0.0
C818 C 0.90952 0.53155 0.92036 0.0
C819 C 0.90304 0.56282 0.9276 0.0
C820 C 0.90234 0.56124 0.94675 0.0
C821 C 0.93342 0.60292 0.92124 0.0
C822 C 0.86366 0.55086 0.92055 0.0
C823 C 0.85009 0.51803 0.91087 0.0
C824 C 0.8148 0.50216 0.9027 0.0
C825 C 0.79263 0.52016 0.90459 0.0
C826 C 0.8056 0.55349 0.91473 0.0
C827 C 0.84172 0.56885 0.92277 0.0
H828 H 0.47222 0.27924 0.91625 0.0
H829 H 0.57665 0.28648 0.93586 0.0
H830 H 0.60836 0.35746 0.93555 0.0
H831 H 0.51897 0.36197 0.88893 0.0
H832 H 0.48473 0.37785 0.89279 0.0
H833 H 0.46996 0.32734 0.89428 0.0
H834 H 0.44601 0.32568 0.92442 0.0
H835 H 0.46068 0.37617 0.923 0.0
H836 H 0.47867 0.35923 0.93964 0.0
H837 H 0.62811 0.4267 0.93421 0.0
H838 H 0.63591 0.49128 0.93115 0.0
H839 H 0.51943 0.44065 0.91174 0.0
C840 C 0.50172 0.29579 0.92051 0.0
C841 C 0.52206 0.27728 0.92597 0.0
C842 C 0.56071 0.29998 0.93135 0.0
C843 C 0.5789 0.34031 0.93133 0.0
C844 C 0.55811 0.35759 0.92586 0.0
C845 C 0.52045 0.33622 0.9205 0.0
C846 C 0.50483 0.36231 0.91529 0.0
C847 C 0.49399 0.35704 0.89672 0.0
C848 C 0.47052 0.35543 0.92624 0.0
C849 C 0.53962 0.40161 0.91863 0.0
C850 C 0.56989 0.39804 0.92478 0.0
C851 C 0.60476 0.42995 0.92926 0.0
C852 C 0.6089 0.46662 0.92742 0.0
C853 C 0.57851 0.47127 0.92097 0.0
C854 C 0.54339 0.43818 0.91651 0.0
H855 H 0.63552 0.1079 0.90969 0.0
H856 H 0.58668 0.16969 0.93504 0.0
H857 H 0.65154 0.22531 0.93905 0.0
H858 H 0.71799 0.14113 0.93609 0.0
H859 H 0.75033 0.14539 0.91959 0.0
H860 H 0.69982 0.11058 0.91796 0.0
H861 H 0.6965 0.1403 0.88975 0.0
H862 H 0.74703 0.17518 0.89127 0.0
H863 H 0.71251 0.19117 0.88858 0.0
H864 H 0.72098 0.27379 0.9408 0.0
H865 H 0.79165 0.3128 0.94009 0.0
H866 H 0.79654 0.21931 0.91462 0.0
C867 C 0.63849 0.13331 0.91591 0.0
C868 C 0.60599 0.13445 0.922 0.0
C869 C 0.6111 0.16805 0.93028 0.0
C870 C 0.64785 0.19988 0.93261 0.0
C871 C 0.67928 0.19771 0.92665 0.0
C872 C 0.67512 0.1654 0.91847 0.0
C873 C 0.71397 0.17044 0.91372 0.0
C874 C 0.72092 0.14008 0.92236 0.0
C875 C 0.71771 0.1692 0.8947 0.0
C876 C 0.74044 0.21056 0.92056 0.0
C877 C 0.71974 0.22571 0.92791 0.0
C878 C 0.73761 0.26225 0.93513 0.0
C879 C 0.77784 0.28405 0.9348 0.0
C880 C 0.79989 0.26918 0.92741 0.0
C881 C 0.78068 0.23181 0.92021 0.0
H882 H 0.21822 0.14003 0.42042 0.0
H883 H 0.26979 0.15242 0.46925 0.0
H884 H 0.25286 0.20214 0.47652 0.0
H885 H 0.25053 0.23935 0.41389 0.0
H886 H 0.20722 0.23146 0.40359 0.0
H887 H 0.22136 0.19523 0.40252 0.0
H888 H 0.15511 0.1444 0.41446 0.0
H889 H 0.14079 0.18053 0.41556 0.0
H890 H 0.13901 0.15382 0.43395 0.0
H891 H 0.23478 0.25333 0.47779 0.0
H892 H 0.21422 0.30147 0.47342 0.0
H893 H 0.17318 0.25514 0.42395 0.0
C894 C 0.22585 0.15315 0.43265 0.0
C895 C 0.24522 0.14232 0.4443 0.0
C896 C 0.25447 0.15991 0.46023 0.0
C897 C 0.24516 0.18828 0.46445 0.0
C898 C 0.2264 0.19851 0.45263 0.0
C899 C 0.21659 0.18137 0.4371 0.0
C900 C 0.19716 0.19823 0.42659 0.0
C901 C 0.22047 0.21719 0.41071 0.0
C902 C 0.15554 0.1674 0.42239 0.0
C903 C 0.19825 0.22804 0.43855 0.0
C904 C 0.21521 0.22766 0.45349 0.0
C905 C 0.22107 0.25366 0.46623 0.0
C906 C 0.2094 0.28093 0.4636 0.0
C907 C 0.1919 0.2818 0.4484 0.0
C908 C 0.18596 0.25475 0.43579 0.0
H909 H 0.90592 0.12272 0.43346 0.0
H910 H 1.00781 0.11166 0.4389 0.0
H911 H 0.96655 0.04121 0.44252 0.0
H912 H 0.84662 0.04964 0.46312 0.0
H913 H 0.80342 0.03263 0.45088 0.0
H914 H 0.84106 0.0823 0.44942 0.0
H915 H 0.84423 0.07496 0.41744 0.0
H916 H 0.80659 0.02531 0.41881 0.0
H917 H 0.85192 0.03726 0.40932 0.0
H918 H 0.91399 0.9716 0.44451 0.0
H919 H 0.85409 0.90832 0.44496 0.0
H920 H 0.78754 0.96602 0.43771 0.0
C921 C 0.91965 0.10554 0.43534 0.0
C922 C 0.9601 0.12271 0.43591 0.0
C923 C 0.97685 0.09919 0.43864 0.0
C924 C 0.95369 0.05915 0.44061 0.0
C925 C 0.91391 0.04318 0.43982 0.0
C926 C 0.89706 0.06566 0.43726 0.0
C927 C 0.85371 0.04145 0.4366 0.0
C928 C 0.83512 0.05215 0.45086 0.0
C929 C 0.83822 0.04495 0.41953 0.0
C930 C 0.84881 1.00177 0.43909 0.0
C931 C 0.88379 1.00328 0.44096 0.0
C932 C 0.88639 0.97004 0.44314 0.0
C933 C 0.85223 0.93427 0.44338 0.0
C934 C 0.81611 0.93218 0.44143 0.0
C935 C 0.81461 0.96651 0.43932 0.0
H936 H 0.11365 0.84073 0.43769 0.0
H937 H 0.16395 0.96237 0.42544 0.0
H938 H 0.09922 0.95436 0.42302 0.0
H939 H 0.0336 0.80697 0.40933 0.0
H940 H 0.99997 0.76993 0.42312 0.0
H941 H 0.05042 0.78505 0.42428 0.0
H942 H 0.05087 0.80051 0.45565 0.0
H943 H 1.00041 0.78546 0.4546 0.0
H944 H 0.03437 0.83301 0.46214 0.0
H945 H 0.02966 0.93402 0.42212 0.0
H946 H 0.95901 0.90218 0.42238 0.0
H947 H 0.95266 0.79285 0.43397 0.0
C948 C 0.11105 0.86572 0.43459 0.0
C949 C 0.14404 0.90222 0.43179 0.0
C950 C 0.13927 0.93408 0.42761 0.0
C951 C 0.10256 0.92988 0.42623 0.0
C952 C 0.07073 0.89361 0.42898 0.0
C953 C 0.07447 0.86201 0.43303 0.0
C954 C 0.03531 0.82614 0.43507 0.0
C955 C 0.02949 0.7952 0.42218 0.0
C956 C 0.02993 0.81036 0.45293 0.0
C957 C 1.00912 0.84264 0.43157 0.0
C958 C 0.03025 0.88163 0.42813 0.0
C959 C 1.01273 0.90341 0.42466 0.0
C960 C 0.97245 0.8849 0.42469 0.0
C961 C 0.94989 0.84479 0.42802 0.0
C962 C 0.96879 0.82355 0.4315 0.0
H963 H 0.46048 0.85342 0.2464 0.0
H964 H 0.49178 0.91228 0.2942 0.0
H965 H 0.54513 0.89895 0.29669 0.0
H966 H 0.48462 0.77863 0.25715 0.0
H967 H 0.5039 0.77882 0.23686 0.0
H968 H 0.46621 0.7907 0.239 0.0
H969 H 0.50873 0.85598 0.22407 0.0
H970 H 0.54642 0.84422 0.22183 0.0
H971 H 0.55625 0.88846 0.232 0.0
H972 H 0.59704 0.88424 0.29352 0.0
H973 H 0.64613 0.86804 0.28471 0.0
H974 H 0.58237 0.81694 0.23922 0.0
C975 C 0.47851 0.86332 0.2574 0.0
C976 C 0.47161 0.88342 0.27023 0.0
C977 C 0.4959 0.89604 0.28441 0.0
C978 C 0.52642 0.88878 0.28592 0.0
C979 C 0.53233 0.86881 0.27316 0.0
C980 C 0.5092 0.85614 0.25917 0.0
C981 C 0.52305 0.83638 0.24709 0.0
C982 C 0.49262 0.79359 0.2449 0.0
C983 C 0.53429 0.85754 0.23026 0.0
C984 C 0.55802 0.84082 0.25638 0.0
C985 C 0.56252 0.85951 0.27142 0.0
C986 C 0.59363 0.86911 0.2819 0.0
C987 C 0.6213 0.85985 0.2768 0.0
C988 C 0.61751 0.84091 0.26145 0.0
C989 C 0.58524 0.83066 0.25118 0.0
H990 H 0.24169 0.78684 0.27041 0.0
H991 H 0.21143 0.7924 0.21894 0.0
H992 H 0.19207 0.72391 0.21516 0.0
H993 H 0.27835 0.72054 0.26383 0.0
H994 H 0.25827 0.69459 0.28294 0.0
H995 H 0.27209 0.74487 0.28145 0.0
H996 H 0.20334 0.72836 0.29018 0.0
H997 H 0.18926 0.67804 0.29164 0.0
H998 H 0.16258 0.69292 0.27846 0.0
H999 H 0.17483 0.65518 0.21689 0.0
H1000 H 0.15826 0.58881 0.22437 0.0
H1001 H 0.19789 0.62643 0.27491 0.0
C1002 C 0.23148 0.77371 0.2583 0.0
C1003 C 0.22828 0.79495 0.24493 0.0
C1004 C 0.21411 0.77666 0.22935 0.0
C1005 C 0.20314 0.7378 0.22706 0.0
C1006 C 0.20624 0.71755 0.2405 0.0
C1007 C 0.2199 0.73469 0.25584 0.0
C1008 C 0.21858 0.70569 0.26839 0.0
C1009 C 0.25925 0.71711 0.27451 0.0
C1010 C 0.19184 0.70098 0.28303 0.0
C1011 C 0.20185 0.66963 0.25769 0.0
C1012 C 0.19532 0.6773 0.24161 0.0
C1013 C 0.17994 0.64876 0.22941 0.0
C1014 C 0.17083 0.61122 0.23376 0.0
C1015 C 0.17693 0.60248 0.25019 0.0
C1016 C 0.1927 0.6322 0.26228 0.0
H1017 H 0.46756 0.56145 0.26813 0.0
H1018 H 0.46222 0.66229 0.25168 0.0
H1019 H 0.39186 0.62211 0.24842 0.0
H1020 H 0.39795 0.49561 0.23904 0.0
H1021 H 0.37795 0.45569 0.25342 0.0
H1022 H 0.42762 0.49283 0.25525 0.0
H1023 H 0.41609 0.50469 0.28593 0.0
H1024 H 0.36638 0.46757 0.28419 0.0
H1025 H 0.37852 0.51554 0.29067 0.0
H1026 H 0.32186 0.57036 0.2464 0.0
H1027 H 0.25805 0.51107 0.24574 0.0
H1028 H 0.31049 0.44438 0.26238 0.0
C1029 C 0.45179 0.57521 0.26374 0.0
C1030 C 0.47066 0.61521 0.26024 0.0
C1031 C 0.44853 0.63191 0.25476 0.0
C1032 C 0.40853 0.60926 0.25273 0.0
C1033 C 0.39104 0.56991 0.25614 0.0
C1034 C 0.412 0.55304 0.2615 0.0
C1035 C 0.3865 0.51001 0.26398 0.0
C1036 C 0.39821 0.4872 0.25222 0.0
C1037 C 0.3869 0.49881 0.28228 0.0
C1038 C 0.3479 0.5053 0.25916 0.0
C1039 C 0.35102 0.54015 0.25472 0.0
C1040 C 0.31907 0.54289 0.24984 0.0
C1041 C 0.28296 0.50908 0.24951 0.0
C1042 C 0.27923 0.47307 0.25397 0.0
C1043 C 0.31227 0.47139 0.25883 0.0
H1044 H 0.83083 0.58231 0.75381 0.0
H1045 H 0.89637 0.64423 0.79762 0.0
H1046 H 0.92045 0.59879 0.8004 0.0
H1047 H 0.80531 0.48542 0.76869 0.0
H1048 H 0.8103 0.46903 0.74841 0.0
H1049 H 0.79608 0.50516 0.75021 0.0
H1050 H 0.85301 0.55106 0.73131 0.0
H1051 H 0.86749 0.51518 0.72948 0.0
H1052 H 0.90124 0.5629 0.73692 0.0
H1053 H 0.94074 0.5502 0.79779 0.0
H1054 H 0.95527 0.49906 0.79018 0.0
H1055 H 0.87664 0.4667 0.74829 0.0
C1056 C 0.84981 0.58595 0.76411 0.0
C1057 C 0.86159 0.61686 0.77552 0.0
C1058 C 0.88684 0.62086 0.78871 0.0
C1059 C 0.90071 0.59514 0.79043 0.0
C1060 C 0.88901 0.56539 0.77891 0.0
C1061 C 0.86403 0.5604 0.76604 0.0
C1062 C 0.85718 0.52651 0.75511 0.0
C1063 C 0.81469 0.49464 0.75564 0.0
C1064 C 0.87053 0.53972 0.73714 0.0
C1065 C 0.88271 0.51376 0.76375 0.0
C1066 C 0.90065 0.53667 0.77746 0.0
C1067 C 0.92671 0.53183 0.78716 0.0
C1068 C 0.93491 0.50288 0.78269 0.0
C1069 C 0.91713 0.47907 0.76866 0.0
C1070 C 0.89032 0.48429 0.75917 0.0
H1071 H 0.62758 0.43499 0.76349 0.0
H1072 H 0.56041 0.49249 0.7684 0.0
H1073 H 0.5019 0.42981 0.77287 0.0
H1074 H 0.55733 0.35371 0.74089 0.0
H1075 H 0.56664 0.31879 0.75091 0.0
H1076 H 0.6044 0.36836 0.74926 0.0
H1077 H 0.61399 0.37151 0.78127 0.0
H1078 H 0.57626 0.32186 0.78297 0.0
H1079 H 0.57346 0.3588 0.79475 0.0
H1080 H 0.4508 0.36269 0.77549 0.0
H1081 H 0.40787 0.29265 0.77586 0.0
H1082 H 0.506 0.27553 0.76905 0.0
C1083 C 0.6006 0.43424 0.76578 0.0
C1084 C 0.59842 0.46856 0.76557 0.0
C1085 C 0.5626 0.46653 0.76838 0.0
C1086 C 0.52926 0.43111 0.77101 0.0
C1087 C 0.53212 0.39783 0.77087 0.0
C1088 C 0.5667 0.39881 0.76837 0.0
C1089 C 0.56085 0.35814 0.76813 0.0
C1090 C 0.57302 0.34924 0.75129 0.0
C1091 C 0.58243 0.35224 0.78264 0.0
C1092 C 0.51755 0.3344 0.77057 0.0
C1093 C 0.50189 0.35817 0.77227 0.0
C1094 C 0.46264 0.34367 0.77427 0.0
C1095 C 0.43847 0.30369 0.77442 0.0
C1096 C 0.45343 0.27836 0.7725 0.0
C1097 C 0.49367 0.29405 0.7707 0.0
H1098 H 0.62132 0.1503 0.76157 0.0
H1099 H 0.63198 0.26075 0.77462 0.0
H1100 H 0.7015 0.28754 0.77962 0.0
H1101 H 0.68901 0.15323 0.79269 0.0
H1102 H 0.70735 0.13023 0.7791 0.0
H1103 H 0.65828 0.11966 0.77701 0.0
H1104 H 0.67042 0.13936 0.74585 0.0
H1105 H 0.71949 0.1501 0.74788 0.0
H1106 H 0.70927 0.18651 0.7403 0.0
H1107 H 0.77039 0.30293 0.78201 0.0
H1108 H 0.83318 0.30521 0.78204 0.0
H1109 H 0.77576 0.18378 0.76845 0.0
C1110 C 0.63802 0.1799 0.76579 0.0
C1111 C 0.62117 0.20341 0.7677 0.0
C1112 C 0.64436 0.24231 0.77287 0.0
C1113 C 0.68379 0.25772 0.77586 0.0
C1114 C 0.69945 0.23376 0.77375 0.0
C1115 C 0.67723 0.19563 0.76894 0.0
C1116 C 0.7011 0.17616 0.76722 0.0
C1117 C 0.68816 0.14285 0.77976 0.0
C1118 C 0.7 0.16223 0.74924 0.0
C1119 C 0.74032 0.20945 0.77162 0.0
C1120 C 0.73886 0.24243 0.77538 0.0
C1121 C 0.77187 0.27718 0.77925 0.0
C1122 C 0.80736 0.2782 0.77922 0.0
C1123 C 0.80935 0.24464 0.77536 0.0
C1124 C 0.77526 0.20988 0.77164 0.0
H1125 H 0.17964 0.26684 0.58094 0.0
H1126 H 0.08026 0.15247 0.58722 0.0
H1127 H 0.12183 0.12373 0.58412 0.0
H1128 H 0.22985 0.23941 0.55047 0.0
H1129 H 0.27674 0.27164 0.55904 0.0
H1130 H 0.23892 0.28346 0.56059 0.0
H1131 H 0.24768 0.28964 0.59265 0.0
H1132 H 0.28552 0.27792 0.59119 0.0
H1133 H 0.24459 0.24976 0.60442 0.0
H1134 H 0.17372 0.10753 0.58276 0.0
H1135 H 0.2336 0.10448 0.58251 0.0
H1136 H 0.30025 0.22884 0.57657 0.0
C1137 C 0.16661 0.23574 0.58156 0.0
C1138 C 0.12658 0.21187 0.58418 0.0
C1139 C 0.11066 0.17129 0.58489 0.0
C1140 C 0.13407 0.15469 0.58323 0.0
C1141 C 0.17333 0.17901 0.58077 0.0
C1142 C 0.18958 0.21862 0.57986 0.0
C1143 C 0.23289 0.23811 0.57771 0.0
C1144 C 0.24532 0.25941 0.56095 0.0
C1145 C 0.2539 0.26546 0.59237 0.0
C1146 C 0.23843 0.20324 0.57791 0.0
C1147 C 0.20358 0.16949 0.57966 0.0
C1148 C 0.20114 0.13366 0.58117 0.0
C1149 C 0.23527 0.13224 0.58107 0.0
C1150 C 0.27132 0.16637 0.57938 0.0
C1151 C 0.27293 0.20228 0.57752 0.0
H1152 H 0.88166 0.96129 0.60397 0.0
H1153 H 0.77723 0.90937 0.57425 0.0
H1154 H 0.78748 0.97389 0.56749 0.0
H1155 H 0.86881 0.03698 0.62128 0.0
H1156 H 0.91907 0.07321 0.62072 0.0
H1157 H 0.90511 0.023 0.6227 0.0
H1158 H 0.94545 0.02832 0.59661 0.0
H1159 H 0.9595 0.07859 0.59454 0.0
H1160 H 0.93673 0.04592 0.57735 0.0
H1161 H 0.8075 0.04219 0.56398 0.0
H1162 H 0.83466 0.11228 0.56491 0.0
H1163 H 0.92608 0.12287 0.59757 0.0
C1164 C 0.86125 0.96371 0.59594 0.0
C1165 C 0.82852 0.93034 0.58968 0.0
C1166 C 0.80221 0.93452 0.57932 0.0
C1167 C 0.8079 0.97103 0.57532 0.0
C1168 C 0.84005 1.00326 0.58179 0.0
C1169 C 0.86629 1.00022 0.59193 0.0
C1170 C 0.89754 0.03994 0.59764 0.0
C1171 C 0.89762 0.04348 0.61672 0.0
C1172 C 0.93716 0.0487 0.59115 0.0
C1173 C 0.88436 0.06548 0.58925 0.0
C1174 C 0.85137 0.04347 0.58003 0.0
C1175 C 0.83337 0.05984 0.57112 0.0
C1176 C 0.8492 0.09986 0.57172 0.0
C1177 C 0.88266 0.12334 0.58128 0.0
C1178 C 0.90057 0.1058 0.59011 0.0
H1179 H 0.12919 0.89083 0.59382 0.0
H1180 H 0.12188 0.9908 0.57771 0.0
H1181 H 0.05192 0.94944 0.57364 0.0
H1182 H 0.0594 0.82379 0.56408 0.0
H1183 H 0.04024 0.78403 0.57855 0.0
H1184 H 0.08983 0.82161 0.58009 0.0
H1185 H 0.07894 0.83338 0.61088 0.0
H1186 H 0.02933 0.79598 0.60941 0.0
H1187 H 0.04126 0.84389 0.61587 0.0
H1188 H 0.9824 0.89749 0.57211 0.0
H1189 H 0.91868 0.83819 0.57256 0.0
H1190 H 0.97263 0.77245 0.58858 0.0
C1191 C 0.1131 0.90404 0.58918 0.0
C1192 C 0.13113 0.94417 0.58617 0.0
C1193 C 0.10869 0.96026 0.58039 0.0
C1194 C 0.06896 0.93698 0.57792 0.0
C1195 C 0.05216 0.89762 0.58111 0.0
C1196 C 0.07355 0.88123 0.58651 0.0
C1197 C 0.04852 0.83822 0.58912 0.0
C1198 C 0.0602 0.81559 0.57725 0.0
C1199 C 0.04958 0.82724 0.60741 0.0
C1200 C 1.00966 0.83309 0.58452 0.0
C1201 C 1.01231 0.86765 0.57994 0.0
C1202 C 0.97997 0.87018 0.57557 0.0
C1203 C 0.94392 0.8364 0.5759 0.0
C1204 C 0.94067 0.80069 0.58054 0.0
C1205 C 0.9741 0.7992 0.58483 0.0
H1206 H 0.47377 0.04742 0.04783 0.0
H1207 H 0.58436 0.05546 0.05692 0.0
H1208 H 0.59071 0.04708 0.02679 0.0
H1209 H 0.44128 0.97454 0.01697 0.0
H1210 H 0.41779 0.99435 1.00455 0.0
H1211 H 0.4227 1.00258 0.0267 0.0
H1212 H 0.45736 0.07659 0.0219 0.0
H1213 H 0.45199 0.06857 0.99975 0.0
H1214 H 0.49905 0.09893 1.00858 0.0
H1215 H 0.58326 0.03488 0.99551 0.0
H1216 H 0.56552 0.02619 0.96566 0.0
H1217 H 0.45992 0.0262 0.97767 0.0
C1218 C 0.49961 0.04793 0.04352 0.0
C1219 C 0.52862 0.05222 0.05478 0.0
C1220 C 0.56185 0.05251 0.04854 0.0
C1221 C 0.56561 0.04751 0.03146 0.0
C1222 C 0.53596 0.04239 0.02078 0.0
C1223 C 0.50384 0.04306 0.02658 0.0
C1224 C 0.47599 0.03692 0.01262 0.0
C1225 C 0.43715 0.99989 0.01538 0.0
C1226 C 0.47081 0.07237 1.0106 0.0
C1227 C 0.49738 0.03263 0.99802 0.0
C1228 C 0.5318 0.03561 1.00294 0.0
C1229 C 0.5564 0.0326 0.99153 0.0
C1230 C 0.54595 0.02738 0.97461 0.0
C1231 C 0.51131 0.02544 0.96928 0.0
C1232 C 0.48659 0.02751 0.98127 0.0
H1233 H 1.0143 0.44779 0.97572 0.0
H1234 H 0.07332 0.57063 0.9653 0.0
H1235 H 0.07305 0.5841 0.99541 0.0
H1236 H 0.95464 0.44745 1.00983 0.0
H1237 H 0.95987 0.41202 0.02169 0.0
H1238 H 0.96213 0.41191 0.99927 0.0
H1239 H 0.02904 0.41675 1.00076 0.0
H1240 H 1.02673 0.41638 0.02315 0.0
H1241 H 0.06706 0.45529 0.01257 0.0
H1242 H 0.06635 0.58391 0.02683 0.0
H1243 H 0.06183 0.57057 0.05715 0.0
H1244 H 1.01134 0.4484 0.04703 0.0
C1245 C 0.02689 0.47753 0.97976 0.0
C1246 C 0.04355 0.50821 0.96817 0.0
C1247 C 0.06043 0.54673 0.97398 0.0
C1248 C 0.06014 0.55461 0.99103 0.0
C1249 C 0.04324 0.52366 1.00212 0.0
C1250 C 0.02749 0.48591 0.99673 0.0
C1251 C 1.01377 0.45801 1.01126 0.0
C1252 C 0.97 0.43073 1.01046 0.0
C1253 C 0.03545 0.43528 0.01197 0.0
C1254 C 1.0246 0.48592 0.02571 0.0
C1255 C 0.04081 0.52362 0.02018 0.0
C1256 C 0.05352 0.55449 0.03128 0.0
C1257 C 0.05057 0.5467 0.04845 0.0
C1258 C 0.0355 0.50849 0.05429 0.0
C1259 C 1.02209 0.47776 0.04279 0.0
H1260 H 0.61757 0.62872 0.97509 0.0
H1261 H 0.53563 0.50815 0.9653 0.0
H1262 H 0.53044 0.49469 0.99552 0.0
H1263 H 0.66667 0.6144 1.00883 0.0
H1264 H 0.67237 0.65532 0.02064 0.0
H1265 H 0.66941 0.65551 0.99826 0.0
H1266 H 0.61206 0.6682 1.00024 0.0
H1267 H 0.61505 0.66836 0.02263 0.0
H1268 H 0.57038 0.63603 0.01234 0.0
H1269 H 0.53726 0.49388 0.02681 0.0
H1270 H 0.55031 0.50721 0.05695 0.0
H1271 H 0.62488 0.62881 0.04612 0.0
C1272 C 0.5984 0.59953 0.97931 0.0
C1273 C 0.57706 0.56945 0.96788 0.0
C1274 C 0.55206 0.53167 0.97387 0.0
C1275 C 0.54909 0.5237 0.99099 0.0
C1276 C 0.57089 0.55394 1.00194 0.0
C1277 C 0.5946 0.5912 0.99635 0.0
C1278 C 0.61431 0.61869 1.01069 0.0
C1279 C 0.6583 0.63705 1.00953 0.0
C1280 C 0.60221 0.64964 1.01152 0.0
C1281 C 0.59831 0.59102 0.02521 0.0
C1282 C 0.57362 0.55373 0.01992 0.0
C1283 C 0.55629 0.52303 0.0311 0.0
C1284 C 0.56404 0.53081 0.04816 0.0
C1285 C 0.58844 0.56901 0.05382 0.0
C1286 C 0.60581 0.59936 0.04215 0.0
H1287 H 0.15263 0.38971 0.38201 0.0
H1288 H 0.24343 0.36508 0.39465 0.0
H1289 H 0.25158 0.35575 0.36464 0.0
H1290 H 0.10983 0.32069 0.35001 0.0
H1291 H 0.09882 0.35084 0.33711 0.0
H1292 H 0.10153 0.35692 0.35938 0.0
H1293 H 0.1528 0.42928 0.35609 0.0
H1294 H 0.14974 0.42361 0.33381 0.0
H1295 H 0.19562 0.44249 0.34411 0.0
H1296 H 0.24593 0.34499 0.33268 0.0
H1297 H 0.23276 0.34225 0.30226 0.0
H1298 H 0.14688 0.37559 0.31184 0.0
C1299 C 0.17458 0.38277 0.3785 0.0
C1300 C 0.19743 0.37813 0.39063 0.0
C1301 C 0.22588 0.36915 0.38551 0.0
C1302 C 0.23044 0.36347 0.36852 0.0
C1303 C 0.20656 0.36724 0.3569 0.0
C1304 C 0.17964 0.37735 0.36174 0.0
C1305 C 0.15755 0.38003 0.34706 0.0
C1306 C 0.11438 0.35035 0.34848 0.0
C1307 C 0.16436 0.4213 0.34515 0.0
C1308 C 0.17605 0.3698 0.3331 0.0
C1309 C 0.20398 0.36204 0.3389 0.0
C1310 C 0.22428 0.35127 0.32805 0.0
C1311 C 0.21643 0.34944 0.31084 0.0
C1312 C 0.18894 0.35882 0.30477 0.0
C1313 C 0.16827 0.36852 0.31613 0.0
H1314 H 0.72374 0.80323 0.38187 0.0
H1315 H 0.69985 0.89566 0.3923 0.0
H1316 H 0.70393 0.91047 0.36205 0.0
H1317 H 0.78986 0.84748 0.34833 0.0
H1318 H 0.77162 0.80359 0.33639 0.0
H1319 H 0.76812 0.80143 0.35877 0.0
H1320 H 0.6943 0.75577 0.35677 0.0
H1321 H 0.69767 0.75733 0.3344 0.0
H1322 H 0.66576 0.77032 0.34468 0.0
H1323 H 0.71397 0.91654 0.33041 0.0
H1324 H 0.71835 0.90664 0.3001 0.0
H1325 H 0.72984 0.80665 0.31088 0.0
C1326 C 0.71934 0.82658 0.37776 0.0
C1327 C 0.7118 0.84859 0.38931 0.0
C1328 C 0.70556 0.87849 0.38355 0.0
C1329 C 0.70814 0.88724 0.36645 0.0
C1330 C 0.71623 0.86528 0.35536 0.0
C1331 C 0.72086 0.835 0.3608 0.0
C1332 C 0.72691 0.81417 0.34642 0.0
C1333 C 0.76648 0.81684 0.34755 0.0
C1334 C 0.69421 0.7719 0.34551 0.0
C1335 C 0.72525 0.83752 0.33196 0.0
C1336 C 0.71982 0.86738 0.33733 0.0
C1337 C 0.71806 0.89317 0.3261 0.0
C1338 C 0.72091 0.88761 0.30897 0.0
C1339 C 0.72474 0.85616 0.30334 0.0
C1340 C 0.72721 0.83109 0.31498 0.0
H1341 H 0.23008 0.85225 0.30588 0.0
H1342 H 0.20082 0.9415 0.29732 0.0
H1343 H 0.19648 0.94861 0.32775 0.0
H1344 H 0.16868 0.81042 0.34468 0.0
H1345 H 0.20422 0.80138 0.35414 0.0
H1346 H 0.19831 0.79871 0.33182 0.0
H1347 H 0.27078 0.84846 0.32848 0.0
H1348 H 0.27685 0.85188 0.35072 0.0
H1349 H 0.29047 0.89478 0.33861 0.0
H1350 H 0.2069 0.95415 0.3584 0.0
H1351 H 0.2249 0.95332 0.38781 0.0
H1352 H 0.24442 0.85815 0.37711 0.0
C1353 C 0.22089 0.87185 0.3105 0.0
C1354 C 0.21442 0.89547 0.29944 0.0
C1355 C 0.20448 0.92234 0.30572 0.0
C1356 C 0.20224 0.92669 0.32294 0.0
C1357 C 0.20982 0.90373 0.33362 0.0
C1358 C 0.21819 0.87624 0.32768 0.0
C1359 C 0.22816 0.85752 0.34181 0.0
C1360 C 0.19804 0.81444 0.3432 0.0
C1361 C 0.26899 0.86355 0.33977 0.0
C1362 C 0.22586 0.88 0.35655 0.0
C1363 C 0.21506 0.90639 0.35152 0.0
C1364 C 0.21439 0.93296 0.36256 0.0
C1365 C 0.22488 0.93247 0.37916 0.0
C1366 C 0.23555 0.90544 0.38458 0.0
C1367 C 0.23561 0.87856 0.37322 0.0
H1368 H 0.80459 0.68635 0.7115 0.0
H1369 H 0.92676 0.74035 0.72229 0.0
H1370 H 0.93969 0.73837 0.69217 0.0
H1371 H 0.80256 0.62229 0.67934 0.0
H1372 H 0.76706 0.62662 0.66719 0.0
H1373 H 0.76789 0.63154 0.68952 0.0
H1374 H 0.77342 0.69876 0.68645 0.0
H1375 H 0.77223 0.69391 0.66416 0.0
H1376 H 0.81165 0.73529 0.67401 0.0
H1377 H 0.93849 0.73212 0.66028 0.0
H1378 H 0.92343 0.72427 0.62999 0.0
H1379 H 0.80223 0.67404 0.64112 0.0
C1380 C 0.83421 0.69794 0.70764 0.0
C1381 C 0.86475 0.71378 0.71928 0.0
C1382 C 0.90292 0.72817 0.71359 0.0
C1383 C 0.91048 0.72703 0.69653 0.0
C1384 C 0.8795 0.71105 0.68541 0.0
C1385 C 0.84213 0.69677 0.69082 0.0
C1386 C 0.81372 0.68165 0.67656 0.0
C1387 C 0.78619 0.63793 0.67826 0.0
C1388 C 0.79147 0.70373 0.67522 0.0
C1389 C 0.84089 0.69051 0.6621 0.0
C1390 C 0.87873 0.70705 0.66739 0.0
C1391 C 0.90894 0.71878 0.65606 0.0
C1392 C 0.9002 0.71404 0.63895 0.0
C1393 C 0.8617 0.69783 0.63346 0.0
C1394 C 0.83178 0.6857 0.64515 0.0
H1395 H 0.42354 0.19185 0.64218 0.0
H1396 H 0.31334 0.17923 0.62861 0.0
H1397 H 0.29841 0.18129 0.65847 0.0
H1398 H 0.39448 0.13379 0.67701 0.0
H1399 H 0.43673 0.16342 0.68935 0.0
H1400 H 0.43991 0.16482 0.66701 0.0
H1401 H 0.46753 0.23895 0.66741 0.0
H1402 H 0.4648 0.23783 0.68982 0.0
H1403 H 0.44141 0.25859 0.67795 0.0
H1404 H 0.29297 0.17664 0.69034 0.0
H1405 H 0.30009 0.17141 0.72084 0.0
H1406 H 0.41555 0.19106 0.71258 0.0
C1407 C 0.39684 0.19074 0.64555 0.0
C1408 C 0.36981 0.18611 0.63329 0.0
C1409 C 0.33466 0.18368 0.63798 0.0
C1410 C 0.3259 0.18461 0.65486 0.0
C1411 C 0.35296 0.18861 0.6668 0.0
C1412 C 0.38806 0.19244 0.66228 0.0
C1413 C 0.41178 0.19529 0.6774 0.0
C1414 C 0.42125 0.16236 0.6777 0.0
C1415 C 0.44855 0.23503 0.67819 0.0
C1416 C 0.38403 0.19084 0.6911 0.0
C1417 C 0.35025 0.18714 0.68487 0.0
C1418 C 0.31963 0.18026 0.69536 0.0
C1419 C 0.32383 0.17722 0.71265 0.0
C1420 C 0.35842 0.18116 0.71919 0.0
C1421 C 0.3888 0.18839 0.70815 0.0
H1422 H 0.9284 0.21276 0.64309 0.0
H1423 H 0.82355 0.21537 0.63278 0.0
H1424 H 0.80929 0.21006 0.66305 0.0
H1425 H 0.88913 0.14349 0.67846 0.0
H1426 H 0.93423 0.16744 0.68955 0.0
H1427 H 0.93379 0.16755 0.66709 0.0
H1428 H 0.97375 0.24231 0.66717 0.0
H1429 H 0.97418 0.24247 0.68957 0.0
H1430 H 0.95611 0.26937 0.67845 0.0
H1431 H 0.81237 0.21482 0.69443 0.0
H1432 H 0.82922 0.22333 0.72441 0.0
H1433 H 0.92923 0.2121 0.71415 0.0
C1434 C 0.90203 0.21143 0.6472 0.0
C1435 C 0.87697 0.21444 0.6357 0.0
C1436 C 0.84282 0.21269 0.64144 0.0
C1437 C 0.83462 0.20979 0.65858 0.0
C1438 C 0.86044 0.20772 0.66966 0.0
C1439 C 0.89308 0.20772 0.66415 0.0
C1440 C 0.91699 0.20668 0.67856 0.0
C1441 C 0.91861 0.16904 0.6784 0.0
C1442 C 0.95764 0.24233 0.67842 0.0
C1443 C 0.89357 0.20768 0.69312 0.0
C1444 C 0.86102 0.20825 0.68773 0.0
C1445 C 0.8371 0.21325 0.69881 0.0
C1446 C 0.84687 0.2181 0.71576 0.0
C1447 C 0.87985 0.21729 0.72148 0.0
C1448 C 0.90311 0.21139 0.71008 0.0
H1449 H 0.31939 0.89466 0.20163 0.0
H1450 H 0.30512 0.99432 0.20878 0.0
H1451 H 0.35813 0.03152 0.18883 0.0
H1452 H 0.41958 0.94267 0.19853 0.0
H1453 H 0.42166 0.91278 0.1822 0.0
H1454 H 0.3815 0.8933 0.19635 0.0
H1455 H 0.33371 0.87447 0.17161 0.0
H1456 H 0.37365 0.89284 0.15736 0.0
H1457 H 0.34027 0.91063 0.1565 0.0
H1458 H 0.4175 0.05947 0.17019 0.0
H1459 H 0.46911 0.07207 0.14996 0.0
H1460 H 0.44081 0.9525 0.1535 0.0
C1461 C 0.32683 0.92402 0.19864 0.0
C1462 C 0.30808 0.94164 0.20657 0.0
C1463 C 0.31872 0.98017 0.20255 0.0
C1464 C 0.34909 1.00161 0.19142 0.0
C1465 C 0.3679 0.98376 0.1842 0.0
C1466 C 0.35633 0.94543 0.18725 0.0
C1467 C 0.38048 0.93265 0.17758 0.0
C1468 C 0.40208 0.91959 0.18937 0.0
C1469 C 0.35554 0.90077 0.16502 0.0
C1470 C 0.40798 0.96992 0.16884 0.0
C1471 C 0.40073 0.99928 0.173 0.0
C1472 C 0.42318 0.03659 0.16675 0.0
C1473 C 0.45278 0.04363 0.15546 0.0
C1474 C 0.45918 1.01335 0.15037 0.0
C1475 C 0.43677 0.97624 0.15735 0.0
H1476 H 0.04253 0.41499 0.15251 0.0
H1477 H 0.13239 0.53486 0.15082 0.0
H1478 H 0.16867 0.52199 0.17259 0.0
H1479 H 0.0478 0.40331 0.19807 0.0
H1480 H 0.03716 0.35408 0.19573 0.0
H1481 H 1.01826 0.3744 0.18099 0.0
H1482 H 0.04939 0.35587 0.15704 0.0
H1483 H 0.06953 0.33674 0.17174 0.0
H1484 H 0.10053 0.37385 0.15732 0.0
H1485 H 0.19791 0.4932 0.1926 0.0
H1486 H 0.21144 0.45465 0.21295 0.0
H1487 H 0.10023 0.35499 0.20239 0.0
C1488 C 0.06923 0.43878 0.15717 0.0
C1489 C 0.08445 0.47607 0.1503 0.0
C1490 C 0.11987 0.50637 0.15631 0.0
C1491 C 0.14086 0.49913 0.16847 0.0
C1492 C 0.12565 0.46156 0.17458 0.0
C1493 C 0.09005 0.4322 0.16947 0.0
C1494 C 0.0797 0.39445 0.17799 0.0
C1495 C 0.0436 0.38077 0.18884 0.0
C1496 C 0.07449 0.36341 0.16526 0.0
C1497 C 0.11527 0.40682 0.18852 0.0
C1498 C 0.1418 0.44547 0.18625 0.0
C1499 C 0.17722 0.46298 0.1945 0.0
C1500 C 0.18496 0.44077 0.20582 0.0
C1501 C 0.1572 0.40172 0.20889 0.0
C1502 C 0.12223 0.38458 0.19997 0.0
H1503 H 0.72868 0.76473 0.20538 0.0
H1504 H 0.63449 0.78837 0.20815 0.0
H1505 H 0.59769 0.73593 0.18767 0.0
H1506 H 0.71967 0.74286 0.16062 0.0
H1507 H 0.73324 0.70644 0.16336 0.0
H1508 H 0.7515 0.74698 0.17737 0.0
H1509 H 0.72457 0.69936 0.20225 0.0
H1510 H 0.70497 0.6587 0.18826 0.0
H1511 H 0.67398 0.66417 0.20292 0.0
H1512 H 0.56962 0.67645 0.16825 0.0
H1513 H 0.55816 0.62486 0.14793 0.0
H1514 H 0.67221 0.64302 0.15773 0.0
C1515 C 0.70074 0.75958 0.20128 0.0
C1516 C 0.68457 0.78086 0.20807 0.0
C1517 C 0.64769 0.77295 0.20273 0.0
C1518 C 0.62642 0.74285 0.19132 0.0
C1519 C 0.64273 0.72136 0.18532 0.0
C1520 C 0.67953 0.73019 0.18983 0.0
C1521 C 0.69109 0.70349 0.18155 0.0
C1522 C 0.72592 0.7263 0.17004 0.0
C1523 C 0.69912 0.68005 0.19453 0.0
C1524 C 0.655 0.67789 0.17172 0.0
C1525 C 0.62708 0.6881 0.1742 0.0
C1526 C 0.59133 0.66829 0.16627 0.0
C1527 C 0.58475 0.63858 0.15498 0.0
C1528 C 0.61393 0.62937 0.15168 0.0
C1529 C 0.64907 0.64881 0.16042 0.0
H1530 H 0.06044 0.42865 0.86691 0.0
H1531 H 0.96597 0.45058 0.87415 0.0
H1532 H 0.92679 0.39904 0.85373 0.0
H1533 H 0.04487 0.40873 0.82173 0.0
H1534 H 0.05919 0.37257 0.82279 0.0
H1535 H 0.07943 0.41262 0.83711 0.0
H1536 H 0.05689 0.3642 0.86174 0.0
H1537 H 0.03544 0.32402 0.84751 0.0
H1538 H 1.00664 0.32855 0.86362 0.0
H1539 H 0.89596 0.33966 0.83452 0.0
H1540 H 0.88075 0.28721 0.81413 0.0
H1541 H 0.99721 0.30781 0.81848 0.0
C1542 C 0.03196 0.42345 0.86374 0.0
C1543 C 1.01639 0.44396 0.8718 0.0
C1544 C 0.97872 0.43584 0.86773 0.0
C1545 C 0.95612 0.40624 0.85635 0.0
C1546 C 0.97193 0.38554 0.84903 0.0
C1547 C 1.00943 0.39465 0.85222 0.0
C1548 C 1.01998 0.36855 0.84269 0.0
C1549 C 0.0528 0.39201 0.83034 0.0
C1550 C 0.03035 0.34495 0.85461 0.0
C1551 C 0.98248 0.34294 0.83374 0.0
C1552 C 0.95479 0.35263 0.83774 0.0
C1553 C 0.91756 0.3321 0.83124 0.0
C1554 C 0.90897 0.302 0.81987 0.0
C1555 C 0.93768 0.2932 0.815 0.0
C1556 C 0.97463 0.31365 0.82221 0.0
H1557 H 0.64888 0.56495 0.86682 0.0
H1558 H 0.62861 0.66087 0.8739 0.0
H1559 H 0.67994 0.69935 0.85338 0.0
H1560 H 0.74898 0.61814 0.86352 0.0
H1561 H 0.75278 0.58854 0.84753 0.0
H1562 H 0.71298 0.56783 0.86186 0.0
H1563 H 0.66435 0.54501 0.83731 0.0
H1564 H 0.70399 0.56459 0.82289 0.0
H1565 H 0.66833 0.57945 0.8218 0.0
H1566 H 0.73854 0.72911 0.83374 0.0
H1567 H 0.78993 0.743 0.81309 0.0
H1568 H 0.76879 0.62609 0.81843 0.0
C1569 C 0.65453 0.59369 0.86369 0.0
C1570 C 0.6345 0.60982 0.87174 0.0
C1571 C 0.64305 0.64771 0.86757 0.0
C1572 C 0.67253 0.66991 0.85611 0.0
C1573 C 0.69273 0.65355 0.84883 0.0
C1574 C 0.68329 0.61588 0.85216 0.0
C1575 C 0.70883 0.60464 0.84266 0.0
C1576 C 0.73227 0.59418 0.85461 0.0
C1577 C 0.68496 0.57147 0.83044 0.0
C1578 C 0.73448 0.64193 0.83355 0.0
C1579 C 0.72527 0.67009 0.8374 0.0
C1580 C 0.74574 0.70713 0.83058 0.0
C1581 C 0.77524 0.71497 0.81906 0.0
C1582 C 0.78353 0.68574 0.81434 0.0
C1583 C 0.76328 0.64908 0.82194 0.0
H1584 H 0.4604 0.1733 0.81507 0.0
H1585 H 0.33747 0.09934 0.8213 0.0
H1586 H 0.34926 0.06465 0.84412 0.0
H1587 H 0.48746 0.10457 0.82114 0.0
H1588 H 0.53061 0.13471 0.83287 0.0
H1589 H 0.51285 0.15615 0.81817 0.0
H1590 H 0.51011 0.20025 0.8412 0.0
H1591 H 0.52918 0.17993 0.85586 0.0
H1592 H 0.48462 0.17895 0.86028 0.0
H1593 H 0.3753 0.03248 0.86344 0.0
H1594 H 0.41285 1.01477 0.88242 0.0
H1595 H 0.51852 0.11325 0.86511 0.0
C1596 C 0.43601 0.1508 0.82172 0.0
C1597 C 0.39803 0.13934 0.8167 0.0
C1598 C 0.36673 0.10914 0.82531 0.0
C1599 C 0.37321 0.08895 0.83808 0.0
C1600 C 0.41114 0.09987 0.84223 0.0
C1601 C 0.44199 0.13098 0.8347 0.0
C1602 C 0.47993 0.13704 0.84143 0.0
C1603 C 0.50412 0.13286 0.82758 0.0
C1604 C 0.50227 0.17637 0.85022 0.0
C1605 C 0.46574 0.10403 0.85373 0.0
C1606 C 0.42599 0.08245 0.85379 0.0
C1607 C 0.40639 0.04947 0.86363 0.0
C1608 C 0.42792 0.03928 0.87416 0.0
C1609 C 0.46846 0.06232 0.87494 0.0
C1610 C 0.48756 0.09487 0.8645 0.0
H1611 H 0.97989 0.23033 0.53756 0.0
H1612 H 0.95772 0.32538 0.54339 0.0
H1613 H 1.01001 0.36409 0.52331 0.0
H1614 H 0.08069 0.28499 0.53496 0.0
H1615 H 0.08522 0.25508 0.51934 0.0
H1616 H 0.04517 0.23447 0.53355 0.0
H1617 H 0.99708 0.21019 0.50879 0.0
H1618 H 0.03698 0.22981 0.49451 0.0
H1619 H 1.0008 0.2439 0.49296 0.0
H1620 H 0.06884 0.39387 0.50403 0.0
H1621 H 0.12037 0.40769 0.4835 0.0
H1622 H 0.10095 0.29159 0.48978 0.0
C1623 C 0.98551 0.25902 0.53433 0.0
C1624 C 0.96469 0.27485 0.54188 0.0
C1625 C 0.97297 0.31254 0.53749 0.0
C1626 C 1.00292 0.33485 0.52628 0.0
C1627 C 1.02384 0.31877 0.51948 0.0
C1628 C 1.01476 0.28132 0.52304 0.0
C1629 C 0.04082 0.27024 0.5139 0.0
C1630 C 0.06436 0.26063 0.52617 0.0
C1631 C 1.01753 0.23656 0.50182 0.0
C1632 C 0.06624 0.30736 0.50465 0.0
C1633 C 0.05654 0.33531 0.50819 0.0
C1634 C 0.0765 0.3721 0.50113 0.0
C1635 C 0.10605 0.37989 0.48967 0.0
C1636 C 0.1148 0.35082 0.48526 0.0
C1637 C 0.09506 0.31444 0.49309 0.0
H1638 H 0.692 0.74793 0.48978 0.0
H1639 H 0.79136 0.8607 0.4813 0.0
H1640 H 0.82945 0.84496 0.50095 0.0
H1641 H 0.71037 0.74335 0.53463 0.0
H1642 H 0.69229 0.69205 0.53371 0.0
H1643 H 0.67346 0.71399 0.51979 0.0
H1644 H 0.69062 0.68441 0.49473 0.0
H1645 H 0.71065 0.66345 0.50853 0.0
H1646 H 0.73963 0.69515 0.49201 0.0
H1647 H 0.85805 0.81316 0.51963 0.0
H1648 H 0.87102 0.77362 0.53965 0.0
H1649 H 0.75147 0.68372 0.53681 0.0
C1650 C 0.72143 0.76974 0.49251 0.0
C1651 C 0.73863 0.80576 0.48433 0.0
C1652 C 0.77744 0.83333 0.48783 0.0
C1653 C 0.79938 0.82439 0.49877 0.0
C1654 C 0.78183 0.78798 0.50624 0.0
C1655 C 0.74338 0.76157 0.5036 0.0
C1656 C 0.73099 0.72465 0.51322 0.0
C1657 C 0.69995 0.71814 0.52611 0.0
C1658 C 0.71716 0.68987 0.50141 0.0
C1659 C 0.76853 0.73401 0.52154 0.0
C1660 C 0.79778 0.7704 0.5172 0.0
C1661 C 0.83524 0.78476 0.52317 0.0
C1662 C 0.84251 0.76192 0.53433 0.0
C1663 C 0.81234 0.72547 0.53953 0.0
C1664 C 0.77513 0.7113 0.53284 0.0
H1665 H 0.23451 0.97107 0.48531 0.0
H1666 H 0.33236 0.9542 0.47851 0.0
H1667 H 0.36918 1.00556 0.49935 0.0
H1668 H 0.28557 0.07176 0.4893 0.0
H1669 H 0.25496 0.07411 0.50513 0.0
H1670 H 0.2357 0.03471 0.49048 0.0
H1671 H 0.21302 0.98507 0.51468 0.0
H1672 H 0.23118 0.02429 0.5294 0.0
H1673 H 0.2471 0.98936 0.5304 0.0
H1674 H 0.39703 0.06384 0.51921 0.0
H1675 H 0.40907 0.11434 0.54017 0.0
H1676 H 0.29139 0.08962 0.53476 0.0
C1677 C 0.26332 0.97743 0.48858 0.0
C1678 C 0.28044 0.95831 0.48053 0.0
C1679 C 0.31842 0.96786 0.48486 0.0
C1680 C 0.3397 0.99739 0.49649 0.0
C1681 C 0.32233 1.01664 0.50378 0.0
C1682 C 0.2846 1.00624 0.5003 0.0
C1683 C 0.27222 0.03086 0.50988 0.0
C1684 C 0.26148 0.05423 0.49799 0.0
C1685 C 0.23892 1.00591 0.5218 0.0
C1686 C 0.30886 0.05693 0.51932 0.0
C1687 C 0.33776 0.0489 0.51543 0.0
C1688 C 0.37446 0.07008 0.52241 0.0
C1689 C 0.38123 0.09905 0.53412 0.0
C1690 C 0.35126 0.10603 0.53892 0.0
C1691 C 0.3149 0.08506 0.53119 0.0
H1692 H 0.56511 0.32223 0.10478 0.0
H1693 H 0.46318 0.29513 0.1338 0.0
H1694 H 0.44272 0.22596 0.13208 0.0
H1695 H 0.52304 0.24022 0.07794 0.0
H1696 H 0.5644 0.23367 0.07815 0.0
H1697 H 0.5705 0.28112 0.08103 0.0
H1698 H 0.60608 0.28822 0.10895 0.0
H1699 H 0.60034 0.24092 0.10607 0.0
H1700 H 0.58306 0.25194 0.12484 0.0
H1701 H 0.43317 0.15962 0.12717 0.0
H1702 H 0.43741 0.10134 0.12096 0.0
H1703 H 0.54752 0.17246 0.0967 0.0
C1704 C 0.53872 0.302 0.11101 0.0
C1705 C 0.51572 0.31445 0.11936 0.0
C1706 C 0.48102 0.28653 0.12702 0.0
C1707 C 0.46923 0.2471 0.12622 0.0
C1708 C 0.49259 0.236 0.11786 0.0
C1709 C 0.5268 0.26265 0.11055 0.0
C1710 C 0.54727 0.24329 0.10278 0.0
C1711 C 0.55154 0.24998 0.08385 0.0
C1712 C 0.5865 0.2569 0.11117 0.0
C1713 C 0.51913 0.20154 0.10685 0.0
C1714 C 0.48763 0.1979 0.11543 0.0
C1715 C 0.45772 0.1621 0.12047 0.0
C1716 C 0.46032 0.12916 0.11681 0.0
C1717 C 0.49277 0.13235 0.10831 0.0
C1718 C 0.52237 0.16906 0.10322 0.0
H1719 H 0.77706 0.27122 0.11884 0.0
H1720 H 0.78591 0.19028 0.08558 0.0
H1721 H 0.85414 0.23821 0.08038 0.0
H1722 H 0.8388 0.35731 0.09598 0.0
H1723 H 0.85964 0.38596 0.11444 0.0
H1724 H 0.81132 0.34559 0.11498 0.0
H1725 H 0.82983 0.31636 0.13975 0.0
H1726 H 0.87821 0.35663 0.13925 0.0
H1727 H 0.8699 0.30805 0.13763 0.0
H1728 H 0.92326 0.29628 0.0792 0.0
H1729 H 0.9848 0.3582 0.0822 0.0
H1730 H 0.92918 0.39799 0.11703 0.0
C1731 C 0.79322 0.26323 0.11055 0.0
C1732 C 0.77569 0.22672 0.10262 0.0
C1733 C 0.79819 0.21816 0.09163 0.0
C1734 C 0.83719 0.24513 0.08868 0.0
C1735 C 0.85354 0.28063 0.09686 0.0
C1736 C 0.83211 0.28961 0.10756 0.0
C1737 C 0.8562 0.32947 0.11495 0.0
C1738 C 0.84056 0.35615 0.10978 0.0
C1739 C 0.85868 0.32748 0.13402 0.0
C1740 C 0.8946 0.34149 0.10683 0.0
C1741 C 0.89274 0.31321 0.09637 0.0
C1742 C 0.92498 0.31855 0.08742 0.0
C1743 C 0.95986 0.35376 0.08921 0.0
C1744 C 0.96217 0.383 0.09993 0.0
C1745 C 0.92888 0.37635 0.10881 0.0
H1746 H 0.70092 0.56227 0.1221 0.0
H1747 H 0.73242 0.64361 0.08122 0.0
H1748 H 0.79443 0.6446 0.07845 0.0
H1749 H 0.79553 0.60383 0.1404 0.0
H1750 H 0.7897 0.55763 0.14622 0.0
H1751 H 0.74833 0.564 0.145 0.0
H1752 H 0.71584 0.5067 0.12431 0.0
H1753 H 0.7571 0.50017 0.12543 0.0
H1754 H 0.74081 0.50742 0.10553 0.0
H1755 H 0.85224 0.63445 0.07965 0.0
H1756 H 0.90209 0.61673 0.08559 0.0
H1757 H 0.83185 0.5425 0.12578 0.0
C1758 C 0.72084 0.58048 0.11258 0.0
C1759 C 0.71178 0.60288 0.10185 0.0
C1760 C 0.7388 0.62634 0.08962 0.0
C1761 C 0.77403 0.62699 0.08793 0.0
C1762 C 0.78184 0.60424 0.09865 0.0
C1763 C 0.75606 0.58166 0.11081 0.0
C1764 C 0.77112 0.55981 0.12077 0.0
C1765 C 0.77649 0.57207 0.13919 0.0
C1766 C 0.74464 0.51593 0.11889 0.0
C1767 C 0.8094 0.5734 0.11225 0.0
C1768 C 0.81509 0.59891 0.09949 0.0
C1769 C 0.84814 0.61465 0.08967 0.0
C1770 C 0.87618 0.60424 0.09307 0.0
C1771 C 0.87107 0.57844 0.10622 0.0
C1772 C 0.83704 0.56284 0.11584 0.0
H1773 H 0.32677 0.54999 0.91493 0.0
H1774 H 0.29486 0.43001 0.90686 0.0
H1775 H 0.22696 0.41058 0.91145 0.0
H1776 H 0.25693 0.53479 0.94601 0.0
H1777 H 0.24693 0.57104 0.93801 0.0
H1778 H 0.29366 0.57591 0.93493 0.0
H1779 H 0.28717 0.58093 0.90301 0.0
H1780 H 0.24065 0.57655 0.90604 0.0
H1781 H 0.24567 0.54355 0.89236 0.0
H1782 H 0.16241 0.40369 0.91749 0.0
H1783 H 0.10505 0.41074 0.92116 0.0
H1784 H 0.17826 0.53534 0.92285 0.0
C1785 C 0.30566 0.51964 0.91387 0.0
C1786 C 0.31671 0.49158 0.91075 0.0
C1787 C 0.28767 0.45215 0.90971 0.0
C1788 C 0.24884 0.44074 0.91219 0.0
C1789 C 0.23919 0.46908 0.91545 0.0
C1790 C 0.26665 0.50777 0.91601 0.0
C1791 C 0.24836 0.53255 0.91896 0.0
C1792 C 0.26231 0.55489 0.93546 0.0
C1793 C 0.25591 0.56001 0.90421 0.0
C1794 C 0.20635 0.5017 0.91995 0.0
C1795 C 0.20174 0.46524 0.91816 0.0
C1796 C 0.16562 0.4321 0.91886 0.0
C1797 C 0.13324 0.43639 0.92108 0.0
C1798 C 0.1372 0.47357 0.92235 0.0
C1799 C 0.17433 0.50654 0.92193 0.0
H1800 H 0.52458 0.80207 0.91399 0.0
H1801 H 0.64313 0.89557 0.91475 0.0
H1802 H 0.6654 0.84815 0.91643 0.0
H1803 H 0.53696 0.73965 0.9426 0.0
H1804 H 0.50428 0.69608 0.93161 0.0
H1805 H 0.49771 0.73748 0.93074 0.0
H1806 H 0.49995 0.73639 0.89847 0.0
H1807 H 0.50654 0.69499 0.89927 0.0
H1808 H 0.54075 0.73784 0.88831 0.0
H1809 H 0.67495 0.79012 0.91721 0.0
H1810 H 0.67049 0.72606 0.91793 0.0
H1811 H 0.54581 0.67113 0.91666 0.0
C1812 C 0.55523 0.81263 0.91445 0.0
C1813 C 0.58205 0.85267 0.91434 0.0
C1814 C 0.62193 0.86512 0.91512 0.0
C1815 C 0.63492 0.83839 0.91595 0.0
C1816 C 0.60773 0.7992 0.91599 0.0
C1817 C 0.56871 0.78635 0.91532 0.0
C1818 C 0.54545 0.74268 0.91553 0.0
C1819 C 0.51958 0.72813 0.93105 0.0
C1820 C 0.52178 0.72707 0.89944 0.0
C1821 C 0.57748 0.73303 0.9164 0.0
C1822 C 0.61322 0.76596 0.9166 0.0
C1823 C 0.64708 0.76411 0.91713 0.0
C1824 C 0.64429 0.72761 0.91751 0.0
C1825 C 0.60788 0.6935 0.91745 0.0
C1826 C 0.57417 0.69654 0.91687 0.0
H1827 H 0.41231 0.90106 0.91932 0.0
H1828 H 0.35699 0.97058 0.92327 0.0
H1829 H 0.29337 0.91127 0.92265 0.0
H1830 H 0.34438 0.83162 0.89071 0.0
H1831 H 0.34621 0.79127 0.89976 0.0
H1832 H 0.38749 0.83905 0.90106 0.0
H1833 H 0.38785 0.83312 0.93318 0.0
H1834 H 0.3466 0.78528 0.932 0.0
H1835 H 0.34495 0.82151 0.9448 0.0
H1836 H 0.23595 0.84473 0.92164 0.0
H1837 H 0.18822 0.77546 0.91941 0.0
H1838 H 0.28051 0.74876 0.91558 0.0
C1839 C 0.38685 0.90386 0.92018 0.0
C1840 C 0.38969 0.94055 0.92147 0.0
C1841 C 0.3556 0.94286 0.92232 0.0
C1842 C 0.31932 0.90932 0.92199 0.0
C1843 C 0.31758 0.87369 0.92068 0.0
C1844 C 0.3504 0.87071 0.91972 0.0
C1845 C 0.34048 0.82892 0.91797 0.0
C1846 C 0.35553 0.82234 0.90139 0.0
C1847 C 0.35588 0.81649 0.93288 0.0
C1848 C 0.29689 0.80883 0.91813 0.0
C1849 C 0.28436 0.83524 0.91979 0.0
C1850 C 0.24542 0.82377 0.92037 0.0
C1851 C 0.21852 0.78429 0.91921 0.0
C1852 C 0.23053 0.75655 0.91746 0.0
C1853 C 0.27037 0.7692 0.91684 0.0
H1854 H 0.21493 0.64739 0.42951 0.0
H1855 H 0.1193 0.62298 0.46244 0.0
H1856 H 0.09839 0.55377 0.46117 0.0
H1857 H 0.16838 0.56215 0.40433 0.0
H1858 H 0.20999 0.55609 0.40332 0.0
H1859 H 0.21602 0.60365 0.40566 0.0
H1860 H 0.25673 0.61456 0.43235 0.0
H1861 H 0.25115 0.56723 0.42998 0.0
H1862 H 0.23705 0.58018 0.44915 0.0
H1863 H 0.08812 0.48692 0.45664 0.0
H1864 H 0.09326 0.42866 0.45143 0.0
H1865 H 0.19839 0.49782 0.42348 0.0
C1866 C 0.18981 0.62782 0.43666 0.0
C1867 C 0.16865 0.64111 0.44594 0.0
C1868 C 0.1356 0.61384 0.45484 0.0
C1869 C 0.12354 0.57433 0.4543 0.0
C1870 C 0.14506 0.56243 0.44501 0.0
C1871 C 0.17781 0.58843 0.43655 0.0
C1872 C 0.19719 0.56849 0.42832 0.0
C1873 C 0.19792 0.57287 0.40928 0.0
C1874 C 0.23793 0.58351 0.43538 0.0
C1875 C 0.17025 0.52722 0.43353 0.0
C1876 C 0.14004 0.5242 0.44295 0.0
C1877 C 0.11162 0.48891 0.44925 0.0
C1878 C 0.11463 0.45595 0.44614 0.0
C1879 C 0.14613 0.45875 0.437 0.0
C1880 C 0.17393 0.4948 0.43047 0.0
H1881 H 0.57848 0.74259 0.44508 0.0
H1882 H 0.63668 0.69299 0.4175 0.0
H1883 H 0.57513 0.63144 0.41521 0.0
H1884 H 0.51816 0.65952 0.46874 0.0
H1885 H 0.47756 0.66729 0.46825 0.0
H1886 H 0.52568 0.70778 0.46693 0.0
H1887 H 0.50836 0.72909 0.43929 0.0
H1888 H 0.4601 0.68869 0.44051 0.0
H1889 H 0.48882 0.69536 0.42223 0.0
H1890 H 0.50728 0.57464 0.41683 0.0
H1891 H 0.43937 0.52692 0.42268 0.0
H1892 H 0.42642 0.61487 0.44889 0.0
C1893 C 0.57846 0.71901 0.43841 0.0
C1894 C 0.61252 0.72275 0.4314 0.0
C1895 C 0.61099 0.6909 0.42293 0.0
C1896 C 0.57616 0.65584 0.42155 0.0
C1897 C 0.54322 0.65319 0.42871 0.0
C1898 C 0.54415 0.68397 0.43696 0.0
C1899 C 0.50516 0.67353 0.444 0.0
C1900 C 0.50676 0.67724 0.46311 0.0
C1901 C 0.48971 0.69813 0.43603 0.0
C1902 C 0.48207 0.63183 0.43857 0.0
C1903 C 0.50442 0.62065 0.42969 0.0
C1904 C 0.48945 0.58317 0.42367 0.0
C1905 C 0.45073 0.55634 0.42695 0.0
C1906 C 0.42738 0.56709 0.4362 0.0
C1907 C 0.44344 0.60554 0.44191 0.0
H1908 H 0.48131 0.85545 0.43624 0.0
H1909 H 0.56445 0.96914 0.45466 0.0
H1910 H 0.51611 0.98988 0.45218 0.0
H1911 H 0.43401 0.88746 0.40641 0.0
H1912 H 0.38664 0.84736 0.4105 0.0
H1913 H 0.42827 0.84172 0.41299 0.0
H1914 H 0.4081 0.81902 0.44342 0.0
H1915 H 0.36648 0.82463 0.44101 0.0
H1916 H 0.40019 0.84932 0.45764 0.0
H1917 H 0.45858 0.99829 0.4483 0.0
H1918 H 0.39508 0.99292 0.44401 0.0
H1919 H 0.34853 0.87367 0.42843 0.0
C1920 C 0.48941 0.88482 0.43954 0.0
C1921 C 0.52672 0.91064 0.44569 0.0
C1922 C 0.53599 0.94871 0.4501 0.0
C1923 C 0.50878 0.96086 0.44865 0.0
C1924 C 0.47221 0.93467 0.44275 0.0
C1925 C 0.46238 0.89742 0.43829 0.0
C1926 C 0.42053 0.8747 0.43292 0.0
C1927 C 0.41718 0.86207 0.41461 0.0
C1928 C 0.39747 0.83986 0.44443 0.0
C1929 C 0.40848 0.90495 0.43512 0.0
C1930 C 0.43881 0.93941 0.4407 0.0
C1931 C 0.43462 0.97147 0.44385 0.0
C1932 C 0.39841 0.96817 0.44134 0.0
C1933 C 0.3667 0.93299 0.43581 0.0
C1934 C 0.3721 0.9011 0.4326 0.0
H1935 H 0.84352 0.86905 0.24461 0.0
H1936 H 0.78495 0.7665 0.27549 0.0
H1937 H 0.84523 0.76373 0.27725 0.0
H1938 H 0.89863 0.83861 0.22117 0.0
H1939 H 0.94026 0.88622 0.21997 0.0
H1940 H 0.893 0.88065 0.22178 0.0
H1941 H 0.91473 0.92421 0.24804 0.0
H1942 H 0.9621 0.92989 0.24637 0.0
H1943 H 0.93513 0.91193 0.2654 0.0
H1944 H 0.91205 0.772 0.2751 0.0
H1945 H 0.97912 0.78947 0.26885 0.0
H1946 H 0.99235 0.88572 0.23883 0.0
C1947 C 0.84319 0.84605 0.25188 0.0
C1948 C 0.80943 0.81805 0.26 0.0
C1949 C 0.81044 0.78832 0.2692 0.0
C1950 C 0.84455 0.78656 0.27028 0.0
C1951 C 0.87723 0.81468 0.26207 0.0
C1952 C 0.87671 0.84379 0.25302 0.0
C1953 C 0.9152 0.86993 0.24494 0.0
C1954 C 0.91154 0.86876 0.22583 0.0
C1955 C 0.93283 0.91144 0.25159 0.0
C1956 C 0.93766 0.85096 0.2508 0.0
C1957 C 0.91534 0.81923 0.26071 0.0
C1958 C 0.92975 0.79678 0.26735 0.0
C1959 C 0.96782 0.80683 0.26365 0.0
C1960 C 0.99107 0.83897 0.25333 0.0
C1961 C 0.97564 0.86137 0.24696 0.0
H1962 H 0.20865 0.999 0.25431 0.0
H1963 H 0.33267 0.04768 0.25555 0.0
H1964 H 0.34103 0.11337 0.25465 0.0
H1965 H 0.20774 0.06628 0.22562 0.0
H1966 H 0.16825 0.0679 0.23555 0.0
H1967 H 0.17211 0.02497 0.23699 0.0
H1968 H 0.17042 0.0279 0.2692 0.0
H1969 H 0.16639 0.07077 0.26789 0.0
H1970 H 0.20473 0.0713 0.27986 0.0
H1971 H 0.33551 0.17366 0.25308 0.0
H1972 H 0.31706 0.22386 0.25071 0.0
H1973 H 0.19646 0.13523 0.25039 0.0
C1974 C 0.23767 0.02338 0.25455 0.0
C1975 C 0.27007 1.01811 0.25512 0.0
C1976 C 0.30743 0.05094 0.25521 0.0
C1977 C 0.31244 0.08835 0.25469 0.0
C1978 C 0.27981 0.09239 0.25402 0.0
C1979 C 0.24317 0.06075 0.25395 0.0
C1980 C 0.21283 0.07274 0.2528 0.0
C1981 C 0.18883 0.05704 0.23679 0.0
C1982 C 0.18708 0.05992 0.26836 0.0
C1983 C 0.2381 0.11621 0.25217 0.0
C1984 C 0.27663 0.12696 0.25297 0.0
C1985 C 0.30543 0.16555 0.25255 0.0
C1986 C 0.2946 0.19389 0.25131 0.0
C1987 C 0.25526 0.18362 0.25049 0.0
C1988 C 0.22676 0.14412 0.25089 0.0
H1989 H 0.94888 0.08991 0.23795 0.0
H1990 H 0.87312 0.10008 0.27367 0.0
H1991 H 0.9239 0.16664 0.28011 0.0
H1992 H 0.03692 0.14507 0.26125 0.0
H1993 H 0.06568 0.16751 0.24302 0.0
H1994 H 1.02368 0.12026 0.2415 0.0
H1995 H 0.99644 0.14478 0.21817 0.0
H1996 H 0.03837 0.19207 0.21963 0.0
H1997 H 0.99107 0.18633 0.22198 0.0
H1998 H 0.98226 0.23321 0.28197 0.0
H1999 H 0.04453 0.29386 0.27965 0.0
H2000 H 0.08191 0.23999 0.24275 0.0
C2001 C 0.94286 0.10611 0.2471 0.0
C2002 C 0.90693 0.08951 0.25535 0.0
C2003 C 0.90055 0.11177 0.26737 0.0
C2004 C 0.92914 0.14976 0.27103 0.0
C2005 C 0.96407 0.16523 0.26261 0.0
C2006 C 0.97109 0.14407 0.25093 0.0
C2007 C 1.01105 0.16753 0.2436 0.0
C2008 C 0.03579 0.14899 0.24759 0.0
C2009 C 1.00909 0.173 0.22473 0.0
C2010 C 1.02525 0.20523 0.25291 0.0
C2011 C 0.99774 0.20338 0.2638 0.0
C2012 C 1.00411 0.23495 0.27354 0.0
C2013 C 0.03957 0.26931 0.27212 0.0
C2014 C 0.06828 0.27178 0.26109 0.0
C2015 C 0.06079 0.23913 0.25141 0.0
H2016 H 0.87741 0.83853 0.76038 0.0
H2017 H 0.75544 0.76329 0.76975 0.0
H2018 H 0.74746 0.82052 0.77253 0.0
H2019 H 0.89169 0.91047 0.78963 0.0
H2020 H 0.92548 0.95034 0.77703 0.0
H2021 H 0.92116 0.90353 0.77463 0.0
H2022 H 0.90731 0.90415 0.74315 0.0
H2023 H 0.91168 0.95106 0.74541 0.0
H2024 H 0.86854 0.91173 0.7366 0.0
H2025 H 0.75347 0.88583 0.77594 0.0
H2026 H 0.77245 0.95441 0.77925 0.0
H2027 H 0.8907 0.98764 0.76767 0.0
C2028 C 0.84884 0.83391 0.76278 0.0
C2029 C 0.81695 0.7962 0.76474 0.0
C2030 C 0.78024 0.79173 0.76806 0.0
C2031 C 0.77545 0.82411 0.76969 0.0
C2032 C 0.80759 0.8608 0.76791 0.0
C2033 C 0.84354 0.86587 0.76444 0.0
C2034 C 0.87364 0.90842 0.76367 0.0
C2035 C 0.90483 0.91879 0.77704 0.0
C2036 C 0.89133 0.91949 0.74616 0.0
C2037 C 0.8491 0.9266 0.76746 0.0
C2038 C 0.81107 0.89854 0.76982 0.0
C2039 C 0.78311 0.90801 0.77403 0.0
C2040 C 0.79424 0.94709 0.77597 0.0
C2041 C 0.83309 0.97647 0.77377 0.0
C2042 C 0.86074 0.96594 0.76925 0.0
H2043 H 0.25986 0.06029 0.78614 0.0
H2044 H 0.30482 0.03366 0.74203 0.0
H2045 H 0.24161 0.97399 0.73801 0.0
H2046 H 0.20185 0.96411 0.80128 0.0
H2047 H 0.164 0.97262 0.80828 0.0
H2048 H 0.21293 1.01182 0.8077 0.0
H2049 H 0.19203 0.05115 0.78903 0.0
H2050 H 0.14304 1.01205 0.78951 0.0
H2051 H 0.16679 0.03035 0.76983 0.0
H2052 H 0.17184 0.91684 0.73919 0.0
H2053 H 0.10413 0.86856 0.74535 0.0
H2054 H 0.10642 0.93704 0.7878 0.0
C2055 C 0.25688 0.04191 0.77567 0.0
C2056 C 0.28758 0.05155 0.76446 0.0
C2057 C 0.28186 0.02671 0.75085 0.0
C2058 C 0.24603 0.99286 0.74846 0.0
C2059 C 0.21629 0.98459 0.75973 0.0
C2060 C 0.22155 1.00862 0.77304 0.0
C2061 C 0.18525 0.99442 0.78321 0.0
C2062 C 0.19139 0.98519 0.80118 0.0
C2063 C 0.17094 0.02374 0.78287 0.0
C2064 C 0.15848 0.95821 0.77369 0.0
C2065 C 0.1767 0.95284 0.76018 0.0
C2066 C 0.15738 0.92096 0.7497 0.0
C2067 C 0.11874 0.89381 0.75323 0.0
C2068 C 0.09962 0.89872 0.76711 0.0
C2069 C 0.12002 0.93177 0.77727 0.0
H2070 H 0.12954 0.17681 0.77723 0.0
H2071 H 0.21656 0.28189 0.75351 0.0
H2072 H 0.16775 0.30145 0.74842 0.0
H2073 H 0.05132 0.15942 0.74941 0.0
H2074 H 1.01593 0.14137 0.7658 0.0
H2075 H 0.05766 0.13563 0.76721 0.0
H2076 H 0.07466 0.17019 0.79589 0.0
H2077 H 0.033 0.176 0.79456 0.0
H2078 H 0.07996 0.2176 0.79766 0.0
H2079 H 0.10883 0.30948 0.74623 0.0
H2080 H 0.04564 0.30624 0.74806 0.0
H2081 H 0.99842 0.19519 0.77286 0.0
C2082 C 0.13832 0.20368 0.77072 0.0
C2083 C 0.17685 0.22771 0.76566 0.0
C2084 C 0.18726 0.26313 0.75759 0.0
C2085 C 0.1597 0.27435 0.75455 0.0
C2086 C 0.12193 0.24981 0.75965 0.0
C2087 C 0.11131 0.21523 0.76759 0.0
C2088 C 0.06918 0.19439 0.77221 0.0
C2089 C 0.04724 0.1554 0.76311 0.0
C2090 C 0.06392 0.18927 0.79121 0.0
C2091 C 0.05775 0.22277 0.76576 0.0
C2092 C 0.08839 0.25447 0.75847 0.0
C2093 C 0.08459 0.2847 0.75186 0.0
C2094 C 0.04858 0.28256 0.75292 0.0
C2095 C 1.01702 0.25048 0.76058 0.0
C2096 C 1.02184 0.22016 0.7669 0.0
H2097 H 0.50497 0.2083 0.5868 0.0
H2098 H 0.43519 0.08427 0.59355 0.0
H2099 H 0.49399 0.07904 0.59386 0.0
H2100 H 0.57154 0.20502 0.55885 0.0
H2101 H 0.61271 0.24796 0.56679 0.0
H2102 H 0.56544 0.24248 0.56839 0.0
H2103 H 0.57412 0.25292 0.60029 0.0
H2104 H 0.62147 0.25843 0.59883 0.0
H2105 H 0.58619 0.22267 0.61258 0.0
H2106 H 0.55956 0.08677 0.59264 0.0
H2107 H 0.62779 0.1063 0.58876 0.0
H2108 H 0.65533 0.22514 0.58162 0.0
C2109 C 0.50208 0.18011 0.58861 0.0
C2110 C 0.46549 0.1467 0.59032 0.0
C2111 C 0.4629 0.11025 0.59229 0.0
C2112 C 0.49614 0.107 0.59252 0.0
C2113 C 0.5317 0.14043 0.59069 0.0
C2114 C 0.53494 0.17627 0.58871 0.0
C2115 C 0.5765 0.20732 0.58609 0.0
C2116 C 0.58185 0.22683 0.56901 0.0
C2117 C 0.59039 0.2371 0.6003 0.0
C2118 C 0.59609 0.18323 0.58675 0.0
C2119 C 0.56968 0.1448 0.58957 0.0
C2120 C 0.58053 0.11676 0.5904 0.0
C2121 C 0.61936 0.12815 0.58808 0.0
C2122 C 0.64698 0.16722 0.58475 0.0
C2123 C 0.63509 0.19515 0.58432 0.0
H2124 H 0.95017 0.36969 0.5739 0.0
H2125 H 0.89353 0.32461 0.62122 0.0
H2126 H 0.88398 0.38069 0.62454 0.0
H2127 H 0.99665 0.47473 0.58505 0.0
H2128 H 0.9881 0.48782 0.56465 0.0
H2129 H 0.99559 0.44717 0.56707 0.0
H2130 H 0.93085 0.4035 0.55211 0.0
H2131 H 0.92284 0.44379 0.54987 0.0
H2132 H 0.88738 0.4004 0.56012 0.0
H2133 H 0.87388 0.43663 0.62144 0.0
H2134 H 0.86632 0.49149 0.61282 0.0
H2135 H 0.92983 0.50223 0.56739 0.0
C2136 C 0.93731 0.3727 0.58526 0.0
C2137 C 0.92358 0.34361 0.59759 0.0
C2138 C 0.90503 0.3472 0.61188 0.0
C2139 C 0.8993 0.3788 0.61382 0.0
C2140 C 0.91203 0.40647 0.60126 0.0
C2141 C 0.93094 0.40405 0.5873 0.0
C2142 C 0.93888 0.43631 0.57512 0.0
C2143 C 0.9824 0.4631 0.57284 0.0
C2144 C 0.91878 0.42 0.55832 0.0
C2145 C 0.92085 0.45662 0.58431 0.0
C2146 C 0.90576 0.43895 0.59938 0.0
C2147 C 0.88622 0.45122 0.6098 0.0
C2148 C 0.88226 0.48266 0.60481 0.0
C2149 C 0.89785 0.50184 0.5895 0.0
C2150 C 0.91738 0.48835 0.57914 0.0
H2151 H 0.6071 0.41806 0.57116 0.0
H2152 H 0.53254 0.43211 0.60623 0.0
H2153 H 0.58416 0.49863 0.61203 0.0
H2154 H 0.69555 0.47277 0.59514 0.0
H2155 H 0.72482 0.49348 0.57687 0.0
H2156 H 0.68219 0.4466 0.57572 0.0
H2157 H 0.65649 0.47052 0.55153 0.0
H2158 H 0.69896 0.51745 0.55267 0.0
H2159 H 0.65205 0.51288 0.55447 0.0
H2160 H 0.64338 0.56473 0.61337 0.0
H2161 H 0.70623 0.62459 0.61051 0.0
H2162 H 0.74243 0.56647 0.57525 0.0
C2163 C 0.60175 0.43482 0.58027 0.0
C2164 C 0.56552 0.41968 0.58818 0.0
C2165 C 0.55973 0.44308 0.5998 0.0
C2166 C 0.58898 0.4809 0.60327 0.0
C2167 C 0.62411 0.49499 0.59513 0.0
C2168 C 0.63071 0.47261 0.58394 0.0
C2169 C 0.67089 0.49488 0.57671 0.0
C2170 C 0.69477 0.47579 0.58139 0.0
C2171 C 0.66949 0.49918 0.55772 0.0
C2172 C 0.68567 0.5333 0.58549 0.0
C2173 C 0.65831 0.53283 0.59606 0.0
C2174 C 0.66515 0.56536 0.6052 0.0
C2175 C 0.70093 0.59926 0.60349 0.0
C2176 C 0.72947 0.60034 0.59274 0.0
C2177 C 0.72151 0.56671 0.5837 0.0
loop_
_geom_bond_atom_site_label_1
_geom_bond_atom_site_label_2
_geom_bond_distance
_geom_bond_site_symmetry_2
_ccdc_geom_bond_type
Tb0 C9 2.764 . S
Tb0 O10 2.325 . S
Tb0 O13 2.303 . S
Tb0 O17 2.322 1_565 S
Tb0 O18 2.349 . S
Tb0 O21 2.415 . S
Tb0 O22 2.399 . S
Tb1 O11 2.322 1_545 S
Tb1 O12 2.349 . S
Tb1 O14 2.415 . S
Tb1 O15 2.399 . S
Tb1 O16 2.325 . S
Tb1 O19 2.303 . S
Tb1 C30 2.764 . S
C2 O18 1.261 1_545 S
C2 O19 1.257 . S
C3 C6 1.358 . S
C3 C7 1.332 . S
C3 C9 1.504 . S
C4 C5 1.373 . S
C4 C8 1.308 . S
C5 C4 1.373 . S
C5 C6 1.429 . S
C5 H32 0.932 . S
C6 C3 1.358 . S
C6 C5 1.429 . S
C6 H33 0.930 . S
C7 C3 1.332 . S
C7 C8 1.394 . S
C7 H34 0.932 . S
C8 C4 1.308 . S
C8 C7 1.394 . S
C8 H35 0.929 . S
C9 Tb0 2.764 . S
C9 C3 1.504 . S
C9 O21 1.239 . S
C9 O22 1.263 . S
O10 Tb0 2.325 . S
O10 C20 1.236 . S
O11 Tb1 2.322 1_565 S
O11 C20 1.257 . S
O12 Tb1 2.349 . S
O12 C23 1.263 . S
O13 Tb0 2.303 . S
O13 C23 1.257 1_565 S
O14 Tb1 2.415 . S
O14 C30 1.239 . S
O15 Tb1 2.399 . S
O15 C30 1.263 . S
O16 Tb1 2.325 . S
O16 C31 1.236 . S
O17 Tb0 2.322 1_545 S
O17 C31 1.257 . S
O18 Tb0 2.349 . S
O18 C2 1.261 1_565 S
O19 Tb1 2.303 . S
O19 C2 1.257 . S
C20 O10 1.236 . S
C20 O11 1.257 . S
O21 Tb0 2.415 . S
O21 C9 1.239 . S
O22 Tb0 2.399 . S
O22 C9 1.263 . S
C23 O12 1.263 . S
C23 O13 1.257 1_545 S
C24 C27 1.358 . S
C24 C28 1.332 . S
C24 C30 1.504 . S
C25 C26 1.373 . S
C25 C29 1.308 . S
C26 C25 1.373 . S
C26 C27 1.429 . S
C26 H36 0.932 . S
C27 C24 1.358 . S
C27 C26 1.429 . S
C27 H37 0.930 . S
C28 C24 1.332 . S
C28 C29 1.394 . S
C28 H38 0.932 . S
C29 C25 1.308 . S
C29 C28 1.394 . S
C29 H39 0.929 . S
C30 Tb1 2.764 . S
C30 O14 1.239 . S
C30 O15 1.263 . S
C30 C24 1.504 . S
C31 O16 1.236 . S
C31 O17 1.257 . S
H32 C5 0.932 . S
H33 C6 0.930 . S
H34 C7 0.932 . S
H35 C8 0.929 . S
H36 C26 0.932 . S
H37 C27 0.930 . S
H38 C28 0.932 . S
H39 C29 0.929 . S
Tb40 C49 2.764 . S
Tb40 O50 2.325 . S
Tb40 O53 2.303 . S
Tb40 O57 2.322 1_455 S
Tb40 O58 2.349 . S
Tb40 O61 2.415 . S
Tb40 O62 2.399 . S
Tb41 O51 2.322 . S
Tb41 O52 2.349 . S
Tb41 O54 2.415 1_455 S
Tb41 O55 2.399 1_455 S
Tb41 O56 2.325 1_455 S
Tb41 O59 2.303 . S
Tb41 C70 2.764 1_455 S
C42 O58 1.261 . S
C42 O59 1.257 . S
C43 C46 1.358 . S
C43 C47 1.332 . S
C43 C49 1.504 . S
C44 C45 1.373 . S
C44 C48 1.308 . S
C45 C44 1.373 . S
C45 C46 1.429 . S
C45 H72 0.932 . S
C46 C43 1.358 . S
C46 C45 1.429 . S
C46 H73 0.930 . S
C47 C43 1.332 . S
C47 C48 1.394 . S
C47 H74 0.932 . S
C48 C44 1.308 . S
C48 C47 1.394 . S
C48 H75 0.929 . S
C49 Tb40 2.764 . S
C49 C43 1.504 . S
C49 O61 1.239 . S
C49 O62 1.263 . S
O50 Tb40 2.325 . S
O50 C60 1.236 . S
O51 Tb41 2.322 . S
O51 C60 1.257 . S
O52 Tb41 2.349 . S
O52 C63 1.261 . S
O53 Tb40 2.303 . S
O53 C63 1.257 . S
O54 Tb41 2.415 1_655 S
O54 C70 1.239 . S
O55 Tb41 2.399 1_655 S
O55 C70 1.263 . S
O56 Tb41 2.325 1_655 S
O56 C71 1.236 . S
O57 Tb40 2.322 1_655 S
O57 C71 1.257 . S
O58 Tb40 2.349 . S
O58 C42 1.261 . S
O59 Tb41 2.303 . S
O59 C42 1.257 . S
C60 O50 1.236 . S
C60 O51 1.257 . S
O61 Tb40 2.415 . S
O61 C49 1.239 . S
O62 Tb40 2.399 . S
O62 C49 1.263 . S
C63 O52 1.261 . S
C63 O53 1.257 . S
C64 C67 1.358 . S
C64 C68 1.332 . S
C64 C70 1.504 . S
C65 C66 1.373 . S
C65 C69 1.308 . S
C66 C65 1.373 . S
C66 C67 1.429 . S
C66 H76 0.932 . S
C67 C64 1.358 . S
C67 C66 1.429 . S
C67 H77 0.930 . S
C68 C64 1.332 . S
C68 C69 1.394 . S
C68 H78 0.932 . S
C69 C65 1.308 . S
C69 C68 1.394 . S
C69 H79 0.929 . S
C70 Tb41 2.764 1_655 S
C70 O54 1.239 . S
C70 O55 1.263 . S
C70 C64 1.504 . S
C71 O56 1.236 . S
C71 O57 1.257 . S
H72 C45 0.932 . S
H73 C46 0.930 . S
H74 C47 0.932 . S
H75 C48 0.929 . S
H76 C66 0.932 . S
H77 C67 0.930 . S
H78 C68 0.932 . S
H79 C69 0.929 . S
Tb80 C89 2.764 . S
Tb80 O90 2.325 . S
Tb80 O93 2.303 . S
Tb80 O97 2.322 . S
Tb80 O98 2.349 . S
Tb80 O101 2.415 . S
Tb80 O102 2.399 . S
Tb81 O91 2.322 . S
Tb81 O92 2.349 . S
Tb81 O94 2.415 . S
Tb81 O95 2.399 . S
Tb81 O96 2.325 . S
Tb81 O99 2.303 . S
Tb81 C110 2.764 . S
C82 O98 1.261 . S
C82 O99 1.257 . S
C83 C86 1.358 . S
C83 C87 1.332 . S
C83 C89 1.504 . S
C84 C85 1.373 . S
C84 C88 1.308 . S
C85 C84 1.373 . S
C85 C86 1.429 . S
C85 H112 0.932 . S
C86 C83 1.358 . S
C86 C85 1.429 . S
C86 H113 0.930 . S
C87 C83 1.332 . S
C87 C88 1.394 . S
C87 H114 0.932 . S
C88 C84 1.308 . S
C88 C87 1.394 . S
C88 H115 0.929 . S
C89 Tb80 2.764 . S
C89 C83 1.504 . S
C89 O101 1.239 . S
C89 O102 1.263 . S
O90 Tb80 2.325 . S
O90 C100 1.236 . S
O91 Tb81 2.322 . S
O91 C100 1.257 . S
O92 Tb81 2.349 . S
O92 C103 1.261 . S
O93 Tb80 2.303 . S
O93 C103 1.257 . S
O94 Tb81 2.415 . S
O94 C110 1.239 . S
O95 Tb81 2.399 . S
O95 C110 1.263 . S
O96 Tb81 2.325 . S
O96 C111 1.236 . S
O97 Tb80 2.322 . S
O97 C111 1.257 . S
O98 Tb80 2.349 . S
O98 C82 1.261 . S
O99 Tb81 2.303 . S
O99 C82 1.257 . S
C100 O90 1.236 . S
C100 O91 1.257 . S
O101 Tb80 2.415 . S
O101 C89 1.239 . S
O102 Tb80 2.399 . S
O102 C89 1.263 . S
C103 O92 1.261 . S
C103 O93 1.257 . S
C104 C107 1.358 . S
C104 C108 1.332 . S
C104 C110 1.504 . S
C105 C106 1.373 . S
C105 C109 1.308 . S
C106 C105 1.373 . S
C106 C107 1.429 . S
C106 H116 0.932 . S
C107 C104 1.358 . S
C107 C106 1.429 . S
C107 H117 0.930 . S
C108 C104 1.332 . S
C108 C109 1.394 . S
C108 H118 0.932 . S
C109 C105 1.308 . S
C109 C108 1.394 . S
C109 H119 0.929 . S
C110 Tb81 2.764 . S
C110 O94 1.239 . S
C110 O95 1.263 . S
C110 C104 1.504 . S
C111 O96 1.236 . S
C111 O97 1.257 . S
H112 C85 0.932 . S
H113 C86 0.930 . S
H114 C87 0.932 . S
H115 C88 0.929 . S
H116 C106 0.932 . S
H117 C107 0.930 . S
H118 C108 0.932 . S
H119 C109 0.929 . S
Tb120 C129 2.764 . S
Tb120 O130 2.325 . S
Tb120 O133 2.303 . S
Tb120 O137 2.322 1_655 S
Tb120 O138 2.349 . S
Tb120 O141 2.415 . S
Tb120 O142 2.399 . S
Tb121 O131 2.322 1_455 S
Tb121 O132 2.349 . S
Tb121 O134 2.415 . S
Tb121 O135 2.399 . S
Tb121 O136 2.325 . S
Tb121 O139 2.303 . S
Tb121 C150 2.764 . S
C122 O138 1.261 1_455 S
C122 O139 1.257 . S
C123 C126 1.358 . S
C123 C127 1.332 . S
C123 C129 1.504 . S
C124 C125 1.373 . S
C124 C128 1.308 . S
C125 C124 1.373 . S
C125 C126 1.429 . S
C125 H152 0.932 . S
C126 C123 1.358 . S
C126 C125 1.429 . S
C126 H153 0.930 . S
C127 C123 1.332 . S
C127 C128 1.394 . S
C127 H154 0.932 . S
C128 C124 1.308 . S
C128 C127 1.394 . S
C128 H155 0.929 . S
C129 Tb120 2.764 . S
C129 C123 1.504 . S
C129 O141 1.239 . S
C129 O142 1.263 . S
O130 Tb120 2.325 . S
O130 C140 1.236 . S
O131 Tb121 2.322 1_655 S
O131 C140 1.257 . S
O132 Tb121 2.349 . S
O132 C143 1.263 . S
O133 Tb120 2.303 . S
O133 C143 1.257 1_655 S
O134 Tb121 2.415 . S
O134 C150 1.239 . S
O135 Tb121 2.399 . S
O135 C150 1.263 . S
O136 Tb121 2.325 . S
O136 C151 1.236 . S
O137 Tb120 2.322 1_455 S
O137 C151 1.257 . S
O138 Tb120 2.349 . S
O138 C122 1.261 1_655 S
O139 Tb121 2.303 . S
O139 C122 1.257 . S
C140 O130 1.236 . S
C140 O131 1.257 . S
O141 Tb120 2.415 . S
O141 C129 1.239 . S
O142 Tb120 2.399 . S
O142 C129 1.263 . S
C143 O132 1.263 . S
C143 O133 1.257 1_455 S
C144 C147 1.358 . S
C144 C148 1.332 . S
C144 C150 1.504 . S
C145 C146 1.373 . S
C145 C149 1.308 . S
C146 C145 1.373 . S
C146 C147 1.429 . S
C146 H156 0.932 . S
C147 C144 1.358 . S
C147 C146 1.429 . S
C147 H157 0.930 . S
C148 C144 1.332 . S
C148 C149 1.394 . S
C148 H158 0.932 . S
C149 C145 1.308 . S
C149 C148 1.394 . S
C149 H159 0.929 . S
C150 Tb121 2.764 . S
C150 O134 1.239 . S
C150 O135 1.263 . S
C150 C144 1.504 . S
C151 O136 1.236 . S
C151 O137 1.257 . S
H152 C125 0.932 . S
H153 C126 0.930 . S
H154 C127 0.932 . S
H155 C128 0.929 . S
H156 C146 0.932 . S
H157 C147 0.930 . S
H158 C148 0.932 . S
H159 C149 0.929 . S
Tb160 C169 2.764 . S
Tb160 O170 2.325 . S
Tb160 O173 2.303 . S
Tb160 O177 2.322 . S
Tb160 O178 2.349 . S
Tb160 O181 2.415 . S
Tb160 O182 2.399 . S
Tb161 O171 2.322 . S
Tb161 O172 2.349 . S
Tb161 O174 2.415 . S
Tb161 O175 2.399 . S
Tb161 O176 2.325 . S
Tb161 O179 2.303 . S
Tb161 C190 2.764 . S
C162 O178 1.261 . S
C162 O179 1.257 . S
C163 C166 1.358 . S
C163 C167 1.332 . S
C163 C169 1.504 . S
C164 C165 1.373 . S
C164 C168 1.308 . S
C165 C164 1.373 . S
C165 C166 1.429 . S
C165 H192 0.932 . S
C166 C163 1.358 . S
C166 C165 1.429 . S
C166 H193 0.930 . S
C167 C163 1.332 . S
C167 C168 1.394 . S
C167 H194 0.932 . S
C168 C164 1.308 . S
C168 C167 1.394 . S
C168 H195 0.929 . S
C169 Tb160 2.764 . S
C169 C163 1.504 . S
C169 O181 1.239 . S
C169 O182 1.263 . S
O170 Tb160 2.325 . S
O170 C180 1.236 . S
O171 Tb161 2.322 . S
O171 C180 1.257 . S
O172 Tb161 2.349 . S
O172 C183 1.261 . S
O173 Tb160 2.303 . S
O173 C183 1.257 . S
O174 Tb161 2.415 . S
O174 C190 1.239 . S
O175 Tb161 2.399 . S
O175 C190 1.263 . S
O176 Tb161 2.325 . S
O176 C191 1.236 . S
O177 Tb160 2.322 . S
O177 C191 1.257 . S
O178 Tb160 2.349 . S
O178 C162 1.261 . S
O179 Tb161 2.303 . S
O179 C162 1.257 . S
C180 O170 1.236 . S
C180 O171 1.257 . S
O181 Tb160 2.415 . S
O181 C169 1.239 . S
O182 Tb160 2.399 . S
O182 C169 1.263 . S
C183 O172 1.261 . S
C183 O173 1.257 . S
C184 C187 1.358 . S
C184 C188 1.332 . S
C184 C190 1.504 . S
C185 C186 1.373 . S
C185 C189 1.308 . S
C186 C185 1.373 . S
C186 C187 1.429 . S
C186 H196 0.932 . S
C187 C184 1.358 . S
C187 C186 1.429 . S
C187 H197 0.930 . S
C188 C184 1.332 . S
C188 C189 1.394 . S
C188 H198 0.932 . S
C189 C185 1.308 . S
C189 C188 1.394 . S
C189 H199 0.929 . S
C190 Tb161 2.764 . S
C190 O174 1.239 . S
C190 O175 1.263 . S
C190 C184 1.504 . S
C191 O176 1.236 . S
C191 O177 1.257 . S
H192 C165 0.932 . S
H193 C166 0.930 . S
H194 C167 0.932 . S
H195 C168 0.929 . S
H196 C186 0.932 . S
H197 C187 0.930 . S
H198 C188 0.932 . S
H199 C189 0.929 . S
Tb200 C209 2.764 . S
Tb200 O210 2.325 . S
Tb200 O213 2.303 . S
Tb200 O217 2.322 1_545 S
Tb200 O218 2.349 . S
Tb200 O221 2.415 . S
Tb200 O222 2.399 . S
Tb201 O211 2.322 . S
Tb201 O212 2.349 . S
Tb201 O214 2.415 1_545 S
Tb201 O215 2.399 1_545 S
Tb201 O216 2.325 1_545 S
Tb201 O219 2.303 . S
Tb201 C230 2.764 1_545 S
C202 O218 1.261 . S
C202 O219 1.257 . S
C203 C206 1.358 . S
C203 C207 1.332 . S
C203 C209 1.504 . S
C204 C205 1.373 . S
C204 C208 1.308 . S
C205 C204 1.373 . S
C205 C206 1.429 . S
C205 H232 0.932 . S
C206 C203 1.358 . S
C206 C205 1.429 . S
C206 H233 0.930 . S
C207 C203 1.332 . S
C207 C208 1.394 . S
C207 H234 0.932 . S
C208 C204 1.308 . S
C208 C207 1.394 . S
C208 H235 0.929 . S
C209 Tb200 2.764 . S
C209 C203 1.504 . S
C209 O221 1.239 . S
C209 O222 1.263 . S
O210 Tb200 2.325 . S
O210 C220 1.236 . S
O211 Tb201 2.322 . S
O211 C220 1.257 . S
O212 Tb201 2.349 . S
O212 C223 1.261 . S
O213 Tb200 2.303 . S
O213 C223 1.257 . S
O214 Tb201 2.415 1_565 S
O214 C230 1.239 . S
O215 Tb201 2.399 1_565 S
O215 C230 1.263 . S
O216 Tb201 2.325 1_565 S
O216 C231 1.236 . S
O217 Tb200 2.322 1_565 S
O217 C231 1.257 . S
O218 Tb200 2.349 . S
O218 C202 1.261 . S
O219 Tb201 2.303 . S
O219 C202 1.257 . S
C220 O210 1.236 . S
C220 O211 1.257 . S
O221 Tb200 2.415 . S
O221 C209 1.239 . S
O222 Tb200 2.399 . S
O222 C209 1.263 . S
C223 O212 1.261 . S
C223 O213 1.257 . S
C224 C227 1.358 . S
C224 C228 1.332 . S
C224 C230 1.504 . S
C225 C226 1.373 . S
C225 C229 1.308 . S
C226 C225 1.373 . S
C226 C227 1.429 . S
C226 H236 0.932 . S
C227 C224 1.358 . S
C227 C226 1.429 . S
C227 H237 0.930 . S
C228 C224 1.332 . S
C228 C229 1.394 . S
C228 H238 0.932 . S
C229 C225 1.308 . S
C229 C228 1.394 . S
C229 H239 0.929 . S
C230 Tb201 2.764 1_565 S
C230 O214 1.239 . S
C230 O215 1.263 . S
C230 C224 1.504 . S
C231 O216 1.236 . S
C231 O217 1.257 . S
H232 C205 0.932 . S
H233 C206 0.930 . S
H234 C207 0.932 . S
H235 C208 0.929 . S
H236 C226 0.932 . S
H237 C227 0.930 . S
H238 C228 0.932 . S
H239 C229 0.929 . S
Tb240 C249 2.764 . S
Tb240 O250 2.325 . S
Tb240 O253 2.303 . S
Tb240 O257 2.322 . S
Tb240 O258 2.349 . S
Tb240 O261 2.415 . S
Tb240 O262 2.399 . S
Tb241 O251 2.322 . S
Tb241 O252 2.349 . S
Tb241 O254 2.415 . S
Tb241 O255 2.399 . S
Tb241 O256 2.325 . S
Tb241 O259 2.303 . S
Tb241 C270 2.764 . S
C242 O258 1.261 . S
C242 O259 1.257 . S
C243 C246 1.358 1_455 S
C243 C247 1.332 1_455 S
C243 C249 1.504 . S
C244 C245 1.373 . S
C244 C248 1.308 . S
C245 C244 1.373 . S
C245 C246 1.429 . S
C245 H272 0.932 . S
C246 C243 1.358 1_655 S
C246 C245 1.429 . S
C246 H273 0.930 . S
C247 C243 1.332 1_655 S
C247 C248 1.394 . S
C247 H274 0.932 1_655 S
C248 C244 1.308 . S
C248 C247 1.394 . S
C248 H275 0.929 . S
C249 Tb240 2.764 . S
C249 C243 1.504 . S
C249 O261 1.239 . S
C249 O262 1.263 . S
O250 Tb240 2.325 . S
O250 C260 1.236 . S
O251 Tb241 2.322 . S
O251 C260 1.257 . S
O252 Tb241 2.349 . S
O252 C263 1.261 . S
O253 Tb240 2.303 . S
O253 C263 1.257 . S
O254 Tb241 2.415 . S
O254 C270 1.239 . S
O255 Tb241 2.399 . S
O255 C270 1.263 . S
O256 Tb241 2.325 . S
O256 C271 1.236 . S
O257 Tb240 2.322 . S
O257 C271 1.257 . S
O258 Tb240 2.349 . S
O258 C242 1.261 . S
O259 Tb241 2.303 . S
O259 C242 1.257 . S
C260 O250 1.236 . S
C260 O251 1.257 . S
O261 Tb240 2.415 . S
O261 C249 1.239 . S
O262 Tb240 2.399 . S
O262 C249 1.263 . S
C263 O252 1.261 . S
C263 O253 1.257 . S
C264 C267 1.358 . S
C264 C268 1.332 . S
C264 C270 1.504 . S
C265 C266 1.373 . S
C265 C269 1.308 . S
C266 C265 1.373 . S
C266 C267 1.429 . S
C266 H276 0.932 . S
C267 C264 1.358 . S
C267 C266 1.429 . S
C267 H277 0.930 . S
C268 C264 1.332 . S
C268 C269 1.394 . S
C268 H278 0.932 . S
C269 C265 1.308 . S
C269 C268 1.394 . S
C269 H279 0.929 . S
C270 Tb241 2.764 . S
C270 O254 1.239 . S
C270 O255 1.263 . S
C270 C264 1.504 . S
C271 O256 1.236 . S
C271 O257 1.257 . S
H272 C245 0.932 . S
H273 C246 0.930 . S
H274 C247 0.932 1_455 S
H275 C248 0.929 . S
H276 C266 0.932 . S
H277 C267 0.930 . S
H278 C268 0.932 . S
H279 C269 0.929 . S
Tb280 C289 2.764 . S
Tb280 O290 2.325 . S
Tb280 O293 2.303 . S
Tb280 O297 2.322 . S
Tb280 O298 2.349 . S
Tb280 O301 2.415 . S
Tb280 O302 2.399 . S
Tb281 O291 2.322 . S
Tb281 O292 2.349 . S
Tb281 O294 2.415 . S
Tb281 O295 2.399 . S
Tb281 O296 2.325 . S
Tb281 O299 2.303 . S
Tb281 C310 2.764 . S
C282 O298 1.261 . S
C282 O299 1.257 . S
C283 C286 1.358 . S
C283 C287 1.332 . S
C283 C289 1.504 . S
C284 C285 1.373 . S
C284 C288 1.308 . S
C285 C284 1.373 . S
C285 C286 1.429 . S
C285 H312 0.932 . S
C286 C283 1.358 . S
C286 C285 1.429 . S
C286 H313 0.930 . S
C287 C283 1.332 . S
C287 C288 1.394 . S
C287 H314 0.932 . S
C288 C284 1.308 . S
C288 C287 1.394 . S
C288 H315 0.929 . S
C289 Tb280 2.764 . S
C289 C283 1.504 . S
C289 O301 1.239 . S
C289 O302 1.263 . S
O290 Tb280 2.325 . S
O290 C300 1.236 . S
O291 Tb281 2.322 . S
O291 C300 1.257 . S
O292 Tb281 2.349 . S
O292 C303 1.261 . S
O293 Tb280 2.303 . S
O293 C303 1.257 . S
O294 Tb281 2.415 . S
O294 C310 1.239 . S
O295 Tb281 2.399 . S
O295 C310 1.263 . S
O296 Tb281 2.325 . S
O296 C311 1.236 . S
O297 Tb280 2.322 . S
O297 C311 1.257 . S
O298 Tb280 2.349 . S
O298 C282 1.261 . S
O299 Tb281 2.303 . S
O299 C282 1.257 . S
C300 O290 1.236 . S
C300 O291 1.257 . S
O301 Tb280 2.415 . S
O301 C289 1.239 . S
O302 Tb280 2.399 . S
O302 C289 1.263 . S
C303 O292 1.261 . S
C303 O293 1.257 . S
C304 C307 1.358 . S
C304 C308 1.332 . S
C304 C310 1.504 . S
C305 C306 1.373 . S
C305 C309 1.308 . S
C306 C305 1.373 . S
C306 C307 1.429 . S
C306 H316 0.932 . S
C307 C304 1.358 . S
C307 C306 1.429 . S
C307 H317 0.930 . S
C308 C304 1.332 . S
C308 C309 1.394 . S
C308 H318 0.932 . S
C309 C305 1.308 . S
C309 C308 1.394 . S
C309 H319 0.929 . S
C310 Tb281 2.764 . S
C310 O294 1.239 . S
C310 O295 1.263 . S
C310 C304 1.504 . S
C311 O296 1.236 . S
C311 O297 1.257 . S
H312 C285 0.932 . S
H313 C286 0.930 . S
H314 C287 0.932 . S
H315 C288 0.929 . S
H316 C306 0.932 . S
H317 C307 0.930 . S
H318 C308 0.932 . S
H319 C309 0.929 . S
Tb320 C329 2.764 . S
Tb320 O330 2.325 . S
Tb320 O333 2.303 . S
Tb320 O337 2.322 . S
Tb320 O338 2.349 . S
Tb320 O341 2.415 . S
Tb320 O342 2.399 . S
Tb321 O331 2.322 . S
Tb321 O332 2.349 . S
Tb321 O334 2.415 . S
Tb321 O335 2.399 . S
Tb321 O336 2.325 . S
Tb321 O339 2.303 . S
Tb321 C350 2.764 . S
C322 O338 1.261 . S
C322 O339 1.257 . S
C323 C326 1.358 . S
C323 C327 1.332 . S
C323 C329 1.504 1_545 S
C324 C325 1.373 . S
C324 C328 1.308 . S
C325 C324 1.373 . S
C325 C326 1.429 . S
C325 H352 0.932 . S
C326 C323 1.358 . S
C326 C325 1.429 . S
C326 H353 0.930 . S
C327 C323 1.332 . S
C327 C328 1.394 . S
C327 H354 0.932 . S
C328 C324 1.308 . S
C328 C327 1.394 . S
C328 H355 0.929 . S
C329 Tb320 2.764 . S
C329 C323 1.504 1_565 S
C329 O341 1.239 . S
C329 O342 1.263 . S
O330 Tb320 2.325 . S
O330 C340 1.236 . S
O331 Tb321 2.322 . S
O331 C340 1.257 . S
O332 Tb321 2.349 . S
O332 C343 1.261 . S
O333 Tb320 2.303 . S
O333 C343 1.257 . S
O334 Tb321 2.415 . S
O334 C350 1.239 . S
O335 Tb321 2.399 . S
O335 C350 1.263 . S
O336 Tb321 2.325 . S
O336 C351 1.236 . S
O337 Tb320 2.322 . S
O337 C351 1.257 . S
O338 Tb320 2.349 . S
O338 C322 1.261 . S
O339 Tb321 2.303 . S
O339 C322 1.257 . S
C340 O330 1.236 . S
C340 O331 1.257 . S
O341 Tb320 2.415 . S
O341 C329 1.239 . S
O342 Tb320 2.399 . S
O342 C329 1.263 . S
C343 O332 1.261 . S
C343 O333 1.257 . S
C344 C347 1.358 . S
C344 C348 1.332 . S
C344 C350 1.504 . S
C345 C346 1.373 . S
C345 C349 1.308 . S
C346 C345 1.373 . S
C346 C347 1.429 . S
C346 H356 0.932 . S
C347 C344 1.358 . S
C347 C346 1.429 . S
C347 H357 0.930 . S
C348 C344 1.332 . S
C348 C349 1.394 . S
C348 H358 0.932 . S
C349 C345 1.308 . S
C349 C348 1.394 . S
C349 H359 0.929 . S
C350 Tb321 2.764 . S
C350 O334 1.239 . S
C350 O335 1.263 . S
C350 C344 1.504 . S
C351 O336 1.236 . S
C351 O337 1.257 . S
H352 C325 0.932 . S
H353 C326 0.930 . S
H354 C327 0.932 . S
H355 C328 0.929 . S
H356 C346 0.932 . S
H357 C347 0.930 . S
H358 C348 0.932 . S
H359 C349 0.929 . S
Tb360 C369 2.764 . S
Tb360 O370 2.325 . S
Tb360 O373 2.303 . S
Tb360 O377 2.322 . S
Tb360 O378 2.349 . S
Tb360 O381 2.415 . S
Tb360 O382 2.399 . S
Tb361 O371 2.322 . S
Tb361 O372 2.349 . S
Tb361 O374 2.415 . S
Tb361 O375 2.399 . S
Tb361 O376 2.325 . S
Tb361 O379 2.303 . S
Tb361 C390 2.764 . S
C362 O378 1.261 . S
C362 O379 1.257 . S
C363 C366 1.358 . S
C363 C367 1.332 . S
C363 C369 1.504 . S
C364 C365 1.373 . S
C364 C368 1.308 . S
C365 C364 1.373 . S
C365 C366 1.429 . S
C365 H392 0.932 . S
C366 C363 1.358 . S
C366 C365 1.429 . S
C366 H393 0.930 . S
C367 C363 1.332 . S
C367 C368 1.394 . S
C367 H394 0.932 . S
C368 C364 1.308 . S
C368 C367 1.394 . S
C368 H395 0.929 . S
C369 Tb360 2.764 . S
C369 C363 1.504 . S
C369 O381 1.239 . S
C369 O382 1.263 . S
O370 Tb360 2.325 . S
O370 C380 1.236 . S
O371 Tb361 2.322 . S
O371 C380 1.257 . S
O372 Tb361 2.349 . S
O372 C383 1.261 . S
O373 Tb360 2.303 . S
O373 C383 1.257 . S
O374 Tb361 2.415 . S
O374 C390 1.239 . S
O375 Tb361 2.399 . S
O375 C390 1.263 . S
O376 Tb361 2.325 . S
O376 C391 1.236 . S
O377 Tb360 2.322 . S
O377 C391 1.257 . S
O378 Tb360 2.349 . S
O378 C362 1.261 . S
O379 Tb361 2.303 . S
O379 C362 1.257 . S
C380 O370 1.236 . S
C380 O371 1.257 . S
O381 Tb360 2.415 . S
O381 C369 1.239 . S
O382 Tb360 2.399 . S
O382 C369 1.263 . S
C383 O372 1.261 . S
C383 O373 1.257 . S
C384 C387 1.358 . S
C384 C388 1.332 . S
C384 C390 1.504 . S
C385 C386 1.373 . S
C385 C389 1.308 . S
C386 C385 1.373 . S
C386 C387 1.429 1_545 S
C386 H396 0.932 . S
C387 C384 1.358 . S
C387 C386 1.429 1_565 S
C387 H397 0.930 . S
C388 C384 1.332 . S
C388 C389 1.394 1_565 S
C388 H398 0.932 . S
C389 C385 1.308 . S
C389 C388 1.394 1_545 S
C389 H399 0.929 . S
C390 Tb361 2.764 . S
C390 O374 1.239 . S
C390 O375 1.263 . S
C390 C384 1.504 . S
C391 O376 1.236 . S
C391 O377 1.257 . S
H392 C365 0.932 . S
H393 C366 0.930 . S
H394 C367 0.932 . S
H395 C368 0.929 . S
H396 C386 0.932 . S
H397 C387 0.930 . S
H398 C388 0.932 . S
H399 C389 0.929 . S
Tb400 C409 2.764 . S
Tb400 O410 2.325 . S
Tb400 O413 2.303 . S
Tb400 O417 2.322 . S
Tb400 O418 2.349 . S
Tb400 O421 2.415 . S
Tb400 O422 2.399 . S
Tb401 O411 2.322 . S
Tb401 O412 2.349 . S
Tb401 O414 2.415 . S
Tb401 O415 2.399 . S
Tb401 O416 2.325 . S
Tb401 O419 2.303 . S
Tb401 C430 2.764 . S
C402 O418 1.261 . S
C402 O419 1.257 . S
C403 C406 1.358 . S
C403 C407 1.332 . S
C403 C409 1.504 . S
C404 C405 1.373 . S
C404 C408 1.308 . S
C405 C404 1.373 . S
C405 C406 1.429 . S
C405 H432 0.932 . S
C406 C403 1.358 . S
C406 C405 1.429 . S
C406 H433 0.930 . S
C407 C403 1.332 . S
C407 C408 1.394 . S
C407 H434 0.932 . S
C408 C404 1.308 . S
C408 C407 1.394 . S
C408 H435 0.929 . S
C409 Tb400 2.764 . S
C409 C403 1.504 . S
C409 O421 1.239 . S
C409 O422 1.263 . S
O410 Tb400 2.325 . S
O410 C420 1.236 . S
O411 Tb401 2.322 . S
O411 C420 1.257 . S
O412 Tb401 2.349 . S
O412 C423 1.261 . S
O413 Tb400 2.303 . S
O413 C423 1.257 . S
O414 Tb401 2.415 . S
O414 C430 1.239 . S
O415 Tb401 2.399 . S
O415 C430 1.263 . S
O416 Tb401 2.325 . S
O416 C431 1.236 . S
O417 Tb400 2.322 . S
O417 C431 1.257 . S
O418 Tb400 2.349 . S
O418 C402 1.261 . S
O419 Tb401 2.303 . S
O419 C402 1.257 . S
C420 O410 1.236 . S
C420 O411 1.257 . S
O421 Tb400 2.415 . S
O421 C409 1.239 . S
O422 Tb400 2.399 . S
O422 C409 1.263 . S
C423 O412 1.261 . S
C423 O413 1.257 . S
C424 C427 1.358 . S
C424 C428 1.332 . S
C424 C430 1.504 . S
C425 C426 1.373 . S
C425 C429 1.308 . S
C426 C425 1.373 . S
C426 C427 1.429 . S
C426 H436 0.932 . S
C427 C424 1.358 . S
C427 C426 1.429 . S
C427 H437 0.930 . S
C428 C424 1.332 . S
C428 C429 1.394 . S
C428 H438 0.932 . S
C429 C425 1.308 . S
C429 C428 1.394 . S
C429 H439 0.929 . S
C430 Tb401 2.764 . S
C430 O414 1.239 . S
C430 O415 1.263 . S
C430 C424 1.504 . S
C431 O416 1.236 . S
C431 O417 1.257 . S
H432 C405 0.932 . S
H433 C406 0.930 . S
H434 C407 0.932 . S
H435 C408 0.929 . S
H436 C426 0.932 . S
H437 C427 0.930 . S
H438 C428 0.932 . S
H439 C429 0.929 . S
Tb440 C449 2.764 . S
Tb440 O450 2.325 . S
Tb440 O453 2.303 . S
Tb440 O457 2.322 . S
Tb440 O458 2.349 . S
Tb440 O461 2.415 . S
Tb440 O462 2.399 . S
Tb441 O451 2.322 . S
Tb441 O452 2.349 . S
Tb441 O454 2.415 . S
Tb441 O455 2.399 . S
Tb441 O456 2.325 . S
Tb441 O459 2.303 . S
Tb441 C470 2.764 . S
C442 O458 1.261 . S
C442 O459 1.257 . S
C443 C446 1.358 . S
C443 C447 1.332 . S
C443 C449 1.504 . S
C444 C445 1.373 . S
C444 C448 1.308 . S
C445 C444 1.373 . S
C445 C446 1.429 . S
C445 H472 0.932 . S
C446 C443 1.358 . S
C446 C445 1.429 . S
C446 H473 0.930 . S
C447 C443 1.332 . S
C447 C448 1.394 . S
C447 H474 0.932 . S
C448 C444 1.308 . S
C448 C447 1.394 . S
C448 H475 0.929 . S
C449 Tb440 2.764 . S
C449 C443 1.504 . S
C449 O461 1.239 . S
C449 O462 1.263 . S
O450 Tb440 2.325 . S
O450 C460 1.236 . S
O451 Tb441 2.322 . S
O451 C460 1.257 . S
O452 Tb441 2.349 . S
O452 C463 1.261 . S
O453 Tb440 2.303 . S
O453 C463 1.257 . S
O454 Tb441 2.415 . S
O454 C470 1.239 . S
O455 Tb441 2.399 . S
O455 C470 1.263 . S
O456 Tb441 2.325 . S
O456 C471 1.236 . S
O457 Tb440 2.322 . S
O457 C471 1.257 . S
O458 Tb440 2.349 . S
O458 C442 1.261 . S
O459 Tb441 2.303 . S
O459 C442 1.257 . S
C460 O450 1.236 . S
C460 O451 1.257 . S
O461 Tb440 2.415 . S
O461 C449 1.239 . S
O462 Tb440 2.399 . S
O462 C449 1.263 . S
C463 O452 1.261 . S
C463 O453 1.257 . S
C464 C467 1.358 . S
C464 C468 1.332 . S
C464 C470 1.504 . S
C465 C466 1.373 . S
C465 C469 1.308 . S
C466 C465 1.373 . S
C466 C467 1.429 . S
C466 H476 0.932 . S
C467 C464 1.358 . S
C467 C466 1.429 . S
C467 H477 0.930 . S
C468 C464 1.332 . S
C468 C469 1.394 . S
C468 H478 0.932 . S
C469 C465 1.308 . S
C469 C468 1.394 . S
C469 H479 0.929 . S
C470 Tb441 2.764 . S
C470 O454 1.239 . S
C470 O455 1.263 . S
C470 C464 1.504 . S
C471 O456 1.236 . S
C471 O457 1.257 . S
H472 C445 0.932 . S
H473 C446 0.930 . S
H474 C447 0.932 . S
H475 C448 0.929 . S
H476 C466 0.932 . S
H477 C467 0.930 . S
H478 C468 0.932 . S
H479 C469 0.929 . S
Tb480 C489 2.764 . S
Tb480 O490 2.325 . S
Tb480 O493 2.303 . S
Tb480 O497 2.322 . S
Tb480 O498 2.349 . S
Tb480 O501 2.415 . S
Tb480 O502 2.399 . S
Tb481 O491 2.322 . S
Tb481 O492 2.349 . S
Tb481 O494 2.415 . S
Tb481 O495 2.399 . S
Tb481 O496 2.325 . S
Tb481 O499 2.303 . S
Tb481 C510 2.764 . S
C482 O498 1.261 . S
C482 O499 1.257 . S
C483 C486 1.358 . S
C483 C487 1.332 . S
C483 C489 1.504 . S
C484 C485 1.373 . S
C484 C488 1.308 . S
C485 C484 1.373 . S
C485 C486 1.429 . S
C485 H512 0.932 . S
C486 C483 1.358 . S
C486 C485 1.429 . S
C486 H513 0.930 . S
C487 C483 1.332 . S
C487 C488 1.394 . S
C487 H514 0.932 . S
C488 C484 1.308 . S
C488 C487 1.394 . S
C488 H515 0.929 . S
C489 Tb480 2.764 . S
C489 C483 1.504 . S
C489 O501 1.239 . S
C489 O502 1.263 . S
O490 Tb480 2.325 . S
O490 C500 1.236 . S
O491 Tb481 2.322 . S
O491 C500 1.257 . S
O492 Tb481 2.349 . S
O492 C503 1.261 . S
O493 Tb480 2.303 . S
O493 C503 1.257 . S
O494 Tb481 2.415 . S
O494 C510 1.239 . S
O495 Tb481 2.399 . S
O495 C510 1.263 . S
O496 Tb481 2.325 . S
O496 C511 1.236 . S
O497 Tb480 2.322 . S
O497 C511 1.257 . S
O498 Tb480 2.349 . S
O498 C482 1.261 . S
O499 Tb481 2.303 . S
O499 C482 1.257 . S
C500 O490 1.236 . S
C500 O491 1.257 . S
O501 Tb480 2.415 . S
O501 C489 1.239 . S
O502 Tb480 2.399 . S
O502 C489 1.263 . S
C503 O492 1.261 . S
C503 O493 1.257 . S
C504 C507 1.358 . S
C504 C508 1.332 . S
C504 C510 1.504 . S
C505 C506 1.373 . S
C505 C509 1.308 . S
C506 C505 1.373 . S
C506 C507 1.429 1_455 S
C506 H516 0.932 . S
C507 C504 1.358 . S
C507 C506 1.429 1_655 S
C507 H517 0.930 . S
C508 C504 1.332 . S
C508 C509 1.394 1_655 S
C508 H518 0.932 . S
C509 C505 1.308 . S
C509 C508 1.394 1_455 S
C509 H519 0.929 . S
C510 Tb481 2.764 . S
C510 O494 1.239 . S
C510 O495 1.263 . S
C510 C504 1.504 . S
C511 O496 1.236 . S
C511 O497 1.257 . S
H512 C485 0.932 . S
H513 C486 0.930 . S
H514 C487 0.932 . S
H515 C488 0.929 . S
H516 C506 0.932 . S
H517 C507 0.930 . S
H518 C508 0.932 . S
H519 C509 0.929 . S
Tb520 C529 2.764 . S
Tb520 O530 2.325 . S
Tb520 O533 2.303 . S
Tb520 O537 2.322 . S
Tb520 O538 2.349 . S
Tb520 O541 2.415 . S
Tb520 O542 2.399 . S
Tb521 O531 2.322 . S
Tb521 O532 2.349 . S
Tb521 O534 2.415 . S
Tb521 O535 2.399 . S
Tb521 O536 2.325 . S
Tb521 O539 2.303 . S
Tb521 C550 2.764 . S
C522 O538 1.261 . S
C522 O539 1.257 . S
C523 C526 1.358 . S
C523 C527 1.332 . S
C523 C529 1.504 . S
C524 C525 1.373 . S
C524 C528 1.308 . S
C525 C524 1.373 . S
C525 C526 1.429 . S
C525 H552 0.932 . S
C526 C523 1.358 . S
C526 C525 1.429 . S
C526 H553 0.930 . S
C527 C523 1.332 . S
C527 C528 1.394 . S
C527 H554 0.932 . S
C528 C524 1.308 . S
C528 C527 1.394 . S
C528 H555 0.929 . S
C529 Tb520 2.764 . S
C529 C523 1.504 . S
C529 O541 1.239 . S
C529 O542 1.263 . S
O530 Tb520 2.325 . S
O530 C540 1.236 . S
O531 Tb521 2.322 . S
O531 C540 1.257 . S
O532 Tb521 2.349 . S
O532 C543 1.261 . S
O533 Tb520 2.303 . S
O533 C543 1.257 . S
O534 Tb521 2.415 . S
O534 C550 1.239 . S
O535 Tb521 2.399 . S
O535 C550 1.263 . S
O536 Tb521 2.325 . S
O536 C551 1.236 . S
O537 Tb520 2.322 . S
O537 C551 1.257 . S
O538 Tb520 2.349 . S
O538 C522 1.261 . S
O539 Tb521 2.303 . S
O539 C522 1.257 . S
C540 O530 1.236 . S
C540 O531 1.257 . S
O541 Tb520 2.415 . S
O541 C529 1.239 . S
O542 Tb520 2.399 . S
O542 C529 1.263 . S
C543 O532 1.261 . S
C543 O533 1.257 . S
C544 C547 1.358 . S
C544 C548 1.332 . S
C544 C550 1.504 . S
C545 C546 1.373 . S
C545 C549 1.308 . S
C546 C545 1.373 . S
C546 C547 1.429 . S
C546 H556 0.932 . S
C547 C544 1.358 . S
C547 C546 1.429 . S
C547 H557 0.930 . S
C548 C544 1.332 . S
C548 C549 1.394 . S
C548 H558 0.932 . S
C549 C545 1.308 . S
C549 C548 1.394 . S
C549 H559 0.929 . S
C550 Tb521 2.764 . S
C550 O534 1.239 . S
C550 O535 1.263 . S
C550 C544 1.504 . S
C551 O536 1.236 . S
C551 O537 1.257 . S
H552 C525 0.932 . S
H553 C526 0.930 . S
H554 C527 0.932 . S
H555 C528 0.929 . S
H556 C546 0.932 . S
H557 C547 0.930 . S
H558 C548 0.932 . S
H559 C549 0.929 . S
Tb560 C569 2.764 . S
Tb560 O570 2.325 . S
Tb560 O573 2.303 . S
Tb560 O577 2.322 . S
Tb560 O578 2.349 . S
Tb560 O581 2.415 . S
Tb560 O582 2.399 . S
Tb561 O571 2.322 . S
Tb561 O572 2.349 . S
Tb561 O574 2.415 . S
Tb561 O575 2.399 . S
Tb561 O576 2.325 . S
Tb561 O579 2.303 . S
Tb561 C590 2.764 . S
C562 O578 1.261 . S
C562 O579 1.257 . S
C563 C566 1.358 . S
C563 C567 1.332 . S
C563 C569 1.504 . S
C564 C565 1.373 . S
C564 C568 1.308 . S
C565 C564 1.373 . S
C565 C566 1.429 . S
C565 H592 0.932 . S
C566 C563 1.358 . S
C566 C565 1.429 . S
C566 H593 0.930 . S
C567 C563 1.332 . S
C567 C568 1.394 . S
C567 H594 0.932 . S
C568 C564 1.308 . S
C568 C567 1.394 . S
C568 H595 0.929 . S
C569 Tb560 2.764 . S
C569 C563 1.504 . S
C569 O581 1.239 . S
C569 O582 1.263 . S
O570 Tb560 2.325 . S
O570 C580 1.236 . S
O571 Tb561 2.322 . S
O571 C580 1.257 . S
O572 Tb561 2.349 . S
O572 C583 1.261 . S
O573 Tb560 2.303 . S
O573 C583 1.257 . S
O574 Tb561 2.415 . S
O574 C590 1.239 . S
O575 Tb561 2.399 . S
O575 C590 1.263 . S
O576 Tb561 2.325 . S
O576 C591 1.236 . S
O577 Tb560 2.322 . S
O577 C591 1.257 . S
O578 Tb560 2.349 . S
O578 C562 1.261 . S
O579 Tb561 2.303 . S
O579 C562 1.257 . S
C580 O570 1.236 . S
C580 O571 1.257 . S
O581 Tb560 2.415 . S
O581 C569 1.239 . S
O582 Tb560 2.399 . S
O582 C569 1.263 . S
C583 O572 1.261 . S
C583 O573 1.257 . S
C584 C587 1.358 . S
C584 C588 1.332 . S
C584 C590 1.504 . S
C585 C586 1.373 . S
C585 C589 1.308 . S
C586 C585 1.373 . S
C586 C587 1.429 . S
C586 H596 0.932 . S
C587 C584 1.358 . S
C587 C586 1.429 . S
C587 H597 0.930 . S
C588 C584 1.332 . S
C588 C589 1.394 . S
C588 H598 0.932 . S
C589 C585 1.308 . S
C589 C588 1.394 . S
C589 H599 0.929 . S
C590 Tb561 2.764 . S
C590 O574 1.239 . S
C590 O575 1.263 . S
C590 C584 1.504 . S
C591 O576 1.236 . S
C591 O577 1.257 . S
H592 C565 0.932 . S
H593 C566 0.930 . S
H594 C567 0.932 . S
H595 C568 0.929 . S
H596 C586 0.932 . S
H597 C587 0.930 . S
H598 C588 0.932 . S
H599 C589 0.929 . S
Tb600 C609 2.764 . S
Tb600 O610 2.325 . S
Tb600 O613 2.303 . S
Tb600 O617 2.322 . S
Tb600 O618 2.349 . S
Tb600 O621 2.415 . S
Tb600 O622 2.399 . S
Tb601 O611 2.322 . S
Tb601 O612 2.349 . S
Tb601 O614 2.415 . S
Tb601 O615 2.399 . S
Tb601 O616 2.325 . S
Tb601 O619 2.303 . S
Tb601 C630 2.764 . S
C602 O618 1.261 . S
C602 O619 1.257 . S
C603 C606 1.358 1_545 S
C603 C607 1.332 1_545 S
C603 C609 1.504 . S
C604 C605 1.373 . S
C604 C608 1.308 . S
C605 C604 1.373 . S
C605 C606 1.429 . S
C605 H632 0.932 . S
C606 C603 1.358 1_565 S
C606 C605 1.429 . S
C606 H633 0.930 . S
C607 C603 1.332 1_565 S
C607 C608 1.394 . S
C607 H634 0.932 1_565 S
C608 C604 1.308 . S
C608 C607 1.394 . S
C608 H635 0.929 . S
C609 Tb600 2.764 . S
C609 C603 1.504 . S
C609 O621 1.239 . S
C609 O622 1.263 . S
O610 Tb600 2.325 . S
O610 C620 1.236 . S
O611 Tb601 2.322 . S
O611 C620 1.257 . S
O612 Tb601 2.349 . S
O612 C623 1.261 . S
O613 Tb600 2.303 . S
O613 C623 1.257 . S
O614 Tb601 2.415 . S
O614 C630 1.239 . S
O615 Tb601 2.399 . S
O615 C630 1.263 . S
O616 Tb601 2.325 . S
O616 C631 1.236 . S
O617 Tb600 2.322 . S
O617 C631 1.257 . S
O618 Tb600 2.349 . S
O618 C602 1.261 . S
O619 Tb601 2.303 . S
O619 C602 1.257 . S
C620 O610 1.236 . S
C620 O611 1.257 . S
O621 Tb600 2.415 . S
O621 C609 1.239 . S
O622 Tb600 2.399 . S
O622 C609 1.263 . S
C623 O612 1.261 . S
C623 O613 1.257 . S
C624 C627 1.358 . S
C624 C628 1.332 . S
C624 C630 1.504 . S
C625 C626 1.373 . S
C625 C629 1.308 . S
C626 C625 1.373 . S
C626 C627 1.429 . S
C626 H636 0.932 . S
C627 C624 1.358 . S
C627 C626 1.429 . S
C627 H637 0.930 . S
C628 C624 1.332 . S
C628 C629 1.394 . S
C628 H638 0.932 . S
C629 C625 1.308 . S
C629 C628 1.394 . S
C629 H639 0.929 . S
C630 Tb601 2.764 . S
C630 O614 1.239 . S
C630 O615 1.263 . S
C630 C624 1.504 . S
C631 O616 1.236 . S
C631 O617 1.257 . S
H632 C605 0.932 . S
H633 C606 0.930 . S
H634 C607 0.932 1_545 S
H635 C608 0.929 . S
H636 C626 0.932 . S
H637 C627 0.930 . S
H638 C628 0.932 . S
H639 C629 0.929 . S
Tb640 C649 2.764 . S
Tb640 O650 2.325 . S
Tb640 O653 2.303 . S
Tb640 O657 2.322 . S
Tb640 O658 2.349 . S
Tb640 O661 2.415 . S
Tb640 O662 2.399 . S
Tb641 O651 2.322 . S
Tb641 O652 2.349 . S
Tb641 O654 2.415 . S
Tb641 O655 2.399 . S
Tb641 O656 2.325 . S
Tb641 O659 2.303 . S
Tb641 C670 2.764 . S
C642 O658 1.261 . S
C642 O659 1.257 . S
C643 C646 1.358 . S
C643 C647 1.332 . S
C643 C649 1.504 1_455 S
C644 C645 1.373 . S
C644 C648 1.308 . S
C645 C644 1.373 . S
C645 C646 1.429 . S
C645 H672 0.932 . S
C646 C643 1.358 . S
C646 C645 1.429 . S
C646 H673 0.930 . S
C647 C643 1.332 . S
C647 C648 1.394 . S
C647 H674 0.932 . S
C648 C644 1.308 . S
C648 C647 1.394 . S
C648 H675 0.929 . S
C649 Tb640 2.764 . S
C649 C643 1.504 1_655 S
C649 O661 1.239 . S
C649 O662 1.263 . S
O650 Tb640 2.325 . S
O650 C660 1.236 . S
O651 Tb641 2.322 . S
O651 C660 1.257 . S
O652 Tb641 2.349 . S
O652 C663 1.261 . S
O653 Tb640 2.303 . S
O653 C663 1.257 . S
O654 Tb641 2.415 . S
O654 C670 1.239 . S
O655 Tb641 2.399 . S
O655 C670 1.263 . S
O656 Tb641 2.325 . S
O656 C671 1.236 . S
O657 Tb640 2.322 . S
O657 C671 1.257 . S
O658 Tb640 2.349 . S
O658 C642 1.261 . S
O659 Tb641 2.303 . S
O659 C642 1.257 . S
C660 O650 1.236 . S
C660 O651 1.257 . S
O661 Tb640 2.415 . S
O661 C649 1.239 . S
O662 Tb640 2.399 . S
O662 C649 1.263 . S
C663 O652 1.261 . S
C663 O653 1.257 . S
C664 C667 1.358 . S
C664 C668 1.332 . S
C664 C670 1.504 . S
C665 C666 1.373 . S
C665 C669 1.308 . S
C666 C665 1.373 . S
C666 C667 1.429 . S
C666 H676 0.932 . S
C667 C664 1.358 . S
C667 C666 1.429 . S
C667 H677 0.930 . S
C668 C664 1.332 . S
C668 C669 1.394 . S
C668 H678 0.932 . S
C669 C665 1.308 . S
C669 C668 1.394 . S
C669 H679 0.929 . S
C670 Tb641 2.764 . S
C670 O654 1.239 . S
C670 O655 1.263 . S
C670 C664 1.504 . S
C671 O656 1.236 . S
C671 O657 1.257 . S
H672 C645 0.932 . S
H673 C646 0.930 . S
H674 C647 0.932 . S
H675 C648 0.929 . S
H676 C666 0.932 . S
H677 C667 0.930 . S
H678 C668 0.932 . S
H679 C669 0.929 . S
Tb680 C689 2.764 . S
Tb680 O690 2.325 . S
Tb680 O693 2.303 . S
Tb680 O697 2.322 . S
Tb680 O698 2.349 . S
Tb680 O701 2.415 . S
Tb680 O702 2.399 . S
Tb681 O691 2.322 . S
Tb681 O692 2.349 . S
Tb681 O694 2.415 . S
Tb681 O695 2.399 . S
Tb681 O696 2.325 . S
Tb681 O699 2.303 . S
Tb681 C710 2.764 . S
C682 O698 1.261 . S
C682 O699 1.257 . S
C683 C686 1.358 . S
C683 C687 1.332 . S
C683 C689 1.504 . S
C684 C685 1.373 . S
C684 C688 1.308 . S
C685 C684 1.373 . S
C685 C686 1.429 . S
C685 H712 0.932 . S
C686 C683 1.358 . S
C686 C685 1.429 . S
C686 H713 0.930 . S
C687 C683 1.332 . S
C687 C688 1.394 . S
C687 H714 0.932 . S
C688 C684 1.308 . S
C688 C687 1.394 . S
C688 H715 0.929 . S
C689 Tb680 2.764 . S
C689 C683 1.504 . S
C689 O701 1.239 . S
C689 O702 1.263 . S
O690 Tb680 2.325 . S
O690 C700 1.236 . S
O691 Tb681 2.322 . S
O691 C700 1.257 . S
O692 Tb681 2.349 . S
O692 C703 1.261 . S
O693 Tb680 2.303 . S
O693 C703 1.257 . S
O694 Tb681 2.415 . S
O694 C710 1.239 . S
O695 Tb681 2.399 . S
O695 C710 1.263 . S
O696 Tb681 2.325 . S
O696 C711 1.236 . S
O697 Tb680 2.322 . S
O697 C711 1.257 . S
O698 Tb680 2.349 . S
O698 C682 1.261 . S
O699 Tb681 2.303 . S
O699 C682 1.257 . S
C700 O690 1.236 . S
C700 O691 1.257 . S
O701 Tb680 2.415 . S
O701 C689 1.239 . S
O702 Tb680 2.399 . S
O702 C689 1.263 . S
C703 O692 1.261 . S
C703 O693 1.257 . S
C704 C707 1.358 . S
C704 C708 1.332 . S
C704 C710 1.504 . S
C705 C706 1.373 . S
C705 C709 1.308 . S
C706 C705 1.373 . S
C706 C707 1.429 . S
C706 H716 0.932 . S
C707 C704 1.358 . S
C707 C706 1.429 . S
C707 H717 0.930 . S
C708 C704 1.332 . S
C708 C709 1.394 . S
C708 H718 0.932 . S
C709 C705 1.308 . S
C709 C708 1.394 . S
C709 H719 0.929 . S
C710 Tb681 2.764 . S
C710 O694 1.239 . S
C710 O695 1.263 . S
C710 C704 1.504 . S
C711 O696 1.236 . S
C711 O697 1.257 . S
H712 C685 0.932 . S
H713 C686 0.930 . S
H714 C687 0.932 . S
H715 C688 0.929 . S
H716 C706 0.932 . S
H717 C707 0.930 . S
H718 C708 0.932 . S
H719 C709 0.929 . S
H720 C732 0.930 . S
H721 C734 0.930 . S
H722 C735 0.930 . S
H723 C739 0.959 . S
H724 C739 0.959 . S
H725 C739 0.961 . S
H726 C740 0.960 . S
H727 C740 0.961 . S
H728 C740 0.959 . S
H729 C743 0.929 . S
H730 C744 0.931 . S
H731 C746 0.930 . S
C732 H720 0.930 . S
C732 C733 1.399 . S
C732 C737 1.399 . S
C733 C732 1.399 . S
C733 C734 1.376 . S
C734 H721 0.930 . S
C734 C733 1.376 . S
C734 C735 1.388 . S
C735 H722 0.930 . S
C735 C734 1.388 . S
C735 C736 1.390 . S
C736 C735 1.390 . S
C736 C737 1.394 . S
C736 C742 1.465 . S
C737 C732 1.399 . S
C737 C736 1.394 . S
C737 C738 1.516 . S
C738 C737 1.516 . S
C738 C739 1.502 . S
C738 C740 1.561 . S
C738 C741 1.526 . S
C739 H723 0.959 . S
C739 H724 0.959 . S
C739 H725 0.961 . S
C739 C738 1.502 . S
C740 H726 0.960 . S
C740 H727 0.961 . S
C740 H728 0.959 . S
C740 C738 1.561 . S
C741 C738 1.526 . S
C741 C742 1.396 . S
C741 C746 1.390 . S
C742 C736 1.465 . S
C742 C741 1.396 . S
C742 C743 1.399 . S
C743 H729 0.929 . S
C743 C742 1.399 . S
C743 C744 1.385 . S
C744 H730 0.931 . S
C744 C743 1.385 . S
C744 C745 1.389 . S
C745 C744 1.389 . S
C745 C746 1.387 . S
C746 H731 0.930 . S
C746 C741 1.390 . S
C746 C745 1.387 . S
H747 C759 0.930 . S
H748 C761 0.930 . S
H749 C762 0.930 . S
H750 C766 0.959 . S
H751 C766 0.959 . S
H752 C766 0.961 . S
H753 C767 0.960 . S
H754 C767 0.961 . S
H755 C767 0.959 . S
H756 C770 0.929 . S
H757 C771 0.931 . S
H758 C773 0.930 . S
C759 H747 0.930 . S
C759 C760 1.399 . S
C759 C764 1.399 . S
C760 C759 1.399 . S
C760 C761 1.376 . S
C761 H748 0.930 . S
C761 C760 1.376 . S
C761 C762 1.388 . S
C762 H749 0.930 . S
C762 C761 1.388 . S
C762 C763 1.390 . S
C763 C762 1.390 . S
C763 C764 1.394 . S
C763 C769 1.465 . S
C764 C759 1.399 . S
C764 C763 1.394 . S
C764 C765 1.516 . S
C765 C764 1.516 . S
C765 C766 1.502 . S
C765 C767 1.561 . S
C765 C768 1.526 . S
C766 H750 0.959 . S
C766 H751 0.959 . S
C766 H752 0.961 . S
C766 C765 1.502 . S
C767 H753 0.960 . S
C767 H754 0.961 . S
C767 H755 0.959 . S
C767 C765 1.561 . S
C768 C765 1.526 . S
C768 C769 1.396 . S
C768 C773 1.390 . S
C769 C763 1.465 . S
C769 C768 1.396 . S
C769 C770 1.399 . S
C770 H756 0.929 . S
C770 C769 1.399 . S
C770 C771 1.385 . S
C771 H757 0.931 . S
C771 C770 1.385 . S
C771 C772 1.389 . S
C772 C771 1.389 . S
C772 C773 1.387 . S
C773 H758 0.930 . S
C773 C768 1.390 . S
C773 C772 1.387 . S
H774 C786 0.930 . S
H775 C788 0.930 . S
H776 C789 0.930 . S
H777 C793 0.959 . S
H778 C793 0.959 . S
H779 C793 0.961 . S
H780 C794 0.960 . S
H781 C794 0.961 . S
H782 C794 0.959 . S
H783 C797 0.929 . S
H784 C798 0.931 . S
H785 C800 0.930 . S
C786 H774 0.930 . S
C786 C787 1.399 . S
C786 C791 1.399 . S
C787 C786 1.399 . S
C787 C788 1.376 . S
C788 H775 0.930 . S
C788 C787 1.376 . S
C788 C789 1.388 . S
C789 H776 0.930 . S
C789 C788 1.388 . S
C789 C790 1.390 . S
C790 C789 1.390 . S
C790 C791 1.394 . S
C790 C796 1.465 . S
C791 C786 1.399 . S
C791 C790 1.394 . S
C791 C792 1.516 . S
C792 C791 1.516 . S
C792 C793 1.502 . S
C792 C794 1.561 . S
C792 C795 1.526 . S
C793 H777 0.959 . S
C793 H778 0.959 . S
C793 H779 0.961 . S
C793 C792 1.502 . S
C794 H780 0.960 . S
C794 H781 0.961 . S
C794 H782 0.959 . S
C794 C792 1.561 . S
C795 C792 1.526 . S
C795 C796 1.396 . S
C795 C800 1.390 . S
C796 C790 1.465 . S
C796 C795 1.396 . S
C796 C797 1.399 . S
C797 H783 0.929 . S
C797 C796 1.399 . S
C797 C798 1.385 . S
C798 H784 0.931 . S
C798 C797 1.385 . S
C798 C799 1.389 . S
C799 C798 1.389 . S
C799 C800 1.387 . S
C800 H785 0.930 . S
C800 C795 1.390 . S
C800 C799 1.387 . S
H801 C813 0.930 . S
H802 C815 0.930 . S
H803 C816 0.930 . S
H804 C820 0.959 . S
H805 C820 0.959 . S
H806 C820 0.961 . S
H807 C821 0.960 . S
H808 C821 0.961 . S
H809 C821 0.959 . S
H810 C824 0.929 . S
H811 C825 0.931 . S
H812 C827 0.930 . S
C813 H801 0.930 . S
C813 C814 1.399 . S
C813 C818 1.399 . S
C814 C813 1.399 . S
C814 C815 1.376 . S
C815 H802 0.930 . S
C815 C814 1.376 . S
C815 C816 1.388 . S
C816 H803 0.930 . S
C816 C815 1.388 . S
C816 C817 1.390 . S
C817 C816 1.390 . S
C817 C818 1.394 . S
C817 C823 1.465 . S
C818 C813 1.399 . S
C818 C817 1.394 . S
C818 C819 1.516 . S
C819 C818 1.516 . S
C819 C820 1.502 . S
C819 C821 1.561 . S
C819 C822 1.526 . S
C820 H804 0.959 . S
C820 H805 0.959 . S
C820 H806 0.961 . S
C820 C819 1.502 . S
C821 H807 0.960 . S
C821 H808 0.961 . S
C821 H809 0.959 . S
C821 C819 1.561 . S
C822 C819 1.526 . S
C822 C823 1.396 . S
C822 C827 1.390 . S
C823 C817 1.465 . S
C823 C822 1.396 . S
C823 C824 1.399 . S
C824 H810 0.929 . S
C824 C823 1.399 . S
C824 C825 1.385 . S
C825 H811 0.931 . S
C825 C824 1.385 . S
C825 C826 1.389 . S
C826 C825 1.389 . S
C826 C827 1.387 . S
C827 H812 0.930 . S
C827 C822 1.390 . S
C827 C826 1.387 . S
H828 C840 0.930 . S
H829 C842 0.930 . S
H830 C843 0.930 . S
H831 C847 0.959 . S
H832 C847 0.959 . S
H833 C847 0.961 . S
H834 C848 0.960 . S
H835 C848 0.961 . S
H836 C848 0.959 . S
H837 C851 0.929 . S
H838 C852 0.931 . S
H839 C854 0.930 . S
C840 H828 0.930 . S
C840 C841 1.399 . S
C840 C845 1.399 . S
C841 C840 1.399 . S
C841 C842 1.376 . S
C842 H829 0.930 . S
C842 C841 1.376 . S
C842 C843 1.388 . S
C843 H830 0.930 . S
C843 C842 1.388 . S
C843 C844 1.390 . S
C844 C843 1.390 . S
C844 C845 1.394 . S
C844 C850 1.465 . S
C845 C840 1.399 . S
C845 C844 1.394 . S
C845 C846 1.516 . S
C846 C845 1.516 . S
C846 C847 1.502 . S
C846 C848 1.561 . S
C846 C849 1.526 . S
C847 H831 0.959 . S
C847 H832 0.959 . S
C847 H833 0.961 . S
C847 C846 1.502 . S
C848 H834 0.960 . S
C848 H835 0.961 . S
C848 H836 0.959 . S
C848 C846 1.561 . S
C849 C846 1.526 . S
C849 C850 1.396 . S
C849 C854 1.390 . S
C850 C844 1.465 . S
C850 C849 1.396 . S
C850 C851 1.399 . S
C851 H837 0.929 . S
C851 C850 1.399 . S
C851 C852 1.385 . S
C852 H838 0.931 . S
C852 C851 1.385 . S
C852 C853 1.389 . S
C853 C852 1.389 . S
C853 C854 1.387 . S
C854 H839 0.930 . S
C854 C849 1.390 . S
C854 C853 1.387 . S
H855 C867 0.930 . S
H856 C869 0.930 . S
H857 C870 0.930 . S
H858 C874 0.959 . S
H859 C874 0.959 . S
H860 C874 0.961 . S
H861 C875 0.960 . S
H862 C875 0.961 . S
H863 C875 0.959 . S
H864 C878 0.929 . S
H865 C879 0.931 . S
H866 C881 0.930 . S
C867 H855 0.930 . S
C867 C868 1.399 . S
C867 C872 1.399 . S
C868 C867 1.399 . S
C868 C869 1.376 . S
C869 H856 0.930 . S
C869 C868 1.376 . S
C869 C870 1.388 . S
C870 H857 0.930 . S
C870 C869 1.388 . S
C870 C871 1.390 . S
C871 C870 1.390 . S
C871 C872 1.394 . S
C871 C877 1.465 . S
C872 C867 1.399 . S
C872 C871 1.394 . S
C872 C873 1.516 . S
C873 C872 1.516 . S
C873 C874 1.502 . S
C873 C875 1.561 . S
C873 C876 1.526 . S
C874 H858 0.959 . S
C874 H859 0.959 . S
C874 H860 0.961 . S
C874 C873 1.502 . S
C875 H861 0.960 . S
C875 H862 0.961 . S
C875 H863 0.959 . S
C875 C873 1.561 . S
C876 C873 1.526 . S
C876 C877 1.396 . S
C876 C881 1.390 . S
C877 C871 1.465 . S
C877 C876 1.396 . S
C877 C878 1.399 . S
C878 H864 0.929 . S
C878 C877 1.399 . S
C878 C879 1.385 . S
C879 H865 0.931 . S
C879 C878 1.385 . S
C879 C880 1.389 . S
C880 C879 1.389 . S
C880 C881 1.387 . S
C881 H866 0.930 . S
C881 C876 1.390 . S
C881 C880 1.387 . S
H882 C894 0.930 . S
H883 C896 0.930 . S
H884 C897 0.930 . S
H885 C901 0.959 . S
H886 C901 0.959 . S
H887 C901 0.961 . S
H888 C902 0.960 . S
H889 C902 0.961 . S
H890 C902 0.959 . S
H891 C905 0.929 . S
H892 C906 0.931 . S
H893 C908 0.930 . S
C894 H882 0.930 . S
C894 C895 1.399 . S
C894 C899 1.399 . S
C895 C894 1.399 . S
C895 C896 1.376 . S
C896 H883 0.930 . S
C896 C895 1.376 . S
C896 C897 1.388 . S
C897 H884 0.930 . S
C897 C896 1.388 . S
C897 C898 1.390 . S
C898 C897 1.390 . S
C898 C899 1.394 . S
C898 C904 1.465 . S
C899 C894 1.399 . S
C899 C898 1.394 . S
C899 C900 1.516 . S
C900 C899 1.516 . S
C900 C901 1.502 . S
C900 C902 1.561 . S
C900 C903 1.526 . S
C901 H885 0.959 . S
C901 H886 0.959 . S
C901 H887 0.961 . S
C901 C900 1.502 . S
C902 H888 0.960 . S
C902 H889 0.961 . S
C902 H890 0.959 . S
C902 C900 1.561 . S
C903 C900 1.526 . S
C903 C904 1.396 . S
C903 C908 1.390 . S
C904 C898 1.465 . S
C904 C903 1.396 . S
C904 C905 1.399 . S
C905 H891 0.929 . S
C905 C904 1.399 . S
C905 C906 1.385 . S
C906 H892 0.931 . S
C906 C905 1.385 . S
C906 C907 1.389 . S
C907 C906 1.389 . S
C907 C908 1.387 . S
C908 H893 0.930 . S
C908 C903 1.390 . S
C908 C907 1.387 . S
H909 C921 0.930 . S
H910 C923 0.930 . S
H911 C924 0.930 . S
H912 C928 0.959 . S
H913 C928 0.959 . S
H914 C928 0.961 . S
H915 C929 0.960 . S
H916 C929 0.961 1_565 S
H917 C929 0.959 1_565 S
H918 C932 0.929 . S
H919 C933 0.931 . S
H920 C935 0.930 . S
C921 H909 0.930 . S
C921 C922 1.399 . S
C921 C926 1.399 . S
C922 C921 1.399 . S
C922 C923 1.376 . S
C923 H910 0.930 . S
C923 C922 1.376 . S
C923 C924 1.388 . S
C924 H911 0.930 . S
C924 C923 1.388 . S
C924 C925 1.390 . S
C925 C924 1.390 . S
C925 C926 1.394 . S
C925 C931 1.465 1_545 S
C926 C921 1.399 . S
C926 C925 1.394 . S
C926 C927 1.516 . S
C927 C926 1.516 . S
C927 C928 1.502 . S
C927 C929 1.561 . S
C927 C930 1.526 1_545 S
C928 H912 0.959 . S
C928 H913 0.959 . S
C928 H914 0.961 . S
C928 C927 1.502 . S
C929 H915 0.960 . S
C929 H916 0.961 1_545 S
C929 H917 0.959 1_545 S
C929 C927 1.561 . S
C930 C927 1.526 1_565 S
C930 C931 1.396 . S
C930 C935 1.390 . S
C931 C925 1.465 1_565 S
C931 C930 1.396 . S
C931 C932 1.399 . S
C932 H918 0.929 . S
C932 C931 1.399 . S
C932 C933 1.385 . S
C933 H919 0.931 . S
C933 C932 1.385 . S
C933 C934 1.389 . S
C934 C933 1.389 . S
C934 C935 1.387 . S
C935 H920 0.930 . S
C935 C930 1.390 . S
C935 C934 1.387 . S
H936 C948 0.930 . S
H937 C950 0.930 . S
H938 C951 0.930 . S
H939 C955 0.958 1_455 S
H940 C955 0.959 . S
H941 C955 0.961 1_455 S
H942 C956 0.960 . S
H943 C956 0.961 1_655 S
H944 C956 0.959 . S
H945 C959 0.929 1_455 S
H946 C960 0.931 . S
H947 C962 0.930 . S
C948 H936 0.930 . S
C948 C949 1.399 . S
C948 C953 1.399 . S
C949 C948 1.399 . S
C949 C950 1.376 . S
C950 H937 0.930 . S
C950 C949 1.376 . S
C950 C951 1.388 . S
C951 H938 0.930 . S
C951 C950 1.388 . S
C951 C952 1.390 . S
C952 C951 1.390 . S
C952 C953 1.394 . S
C952 C958 1.465 . S
C953 C948 1.399 . S
C953 C952 1.394 . S
C953 C954 1.516 . S
C954 C953 1.516 . S
C954 C955 1.502 1_455 S
C954 C956 1.561 . S
C954 C957 1.526 1_455 S
C955 H939 0.958 1_655 S
C955 H940 0.959 . S
C955 H941 0.961 1_655 S
C955 C954 1.502 1_655 S
C956 H942 0.960 . S
C956 H943 0.961 1_455 S
C956 H944 0.959 . S
C956 C954 1.561 . S
C957 C954 1.526 1_655 S
C957 C958 1.396 1_655 S
C957 C962 1.390 . S
C958 C952 1.465 . S
C958 C957 1.396 1_455 S
C958 C959 1.399 1_455 S
C959 H945 0.929 1_655 S
C959 C958 1.399 1_655 S
C959 C960 1.385 . S
C960 H946 0.931 . S
C960 C959 1.385 . S
C960 C961 1.389 . S
C961 C960 1.389 . S
C961 C962 1.387 . S
C962 H947 0.930 . S
C962 C957 1.390 . S
C962 C961 1.387 . S
H963 C975 0.930 . S
H964 C977 0.930 . S
H965 C978 0.930 . S
H966 C982 0.959 . S
H967 C982 0.959 . S
H968 C982 0.961 . S
H969 C983 0.960 . S
H970 C983 0.961 . S
H971 C983 0.959 . S
H972 C986 0.929 . S
H973 C987 0.931 . S
H974 C989 0.930 . S
C975 H963 0.930 . S
C975 C976 1.399 . S
C975 C980 1.399 . S
C976 C975 1.399 . S
C976 C977 1.376 . S
C977 H964 0.930 . S
C977 C976 1.376 . S
C977 C978 1.388 . S
C978 H965 0.930 . S
C978 C977 1.388 . S
C978 C979 1.390 . S
C979 C978 1.390 . S
C979 C980 1.394 . S
C979 C985 1.465 . S
C980 C975 1.399 . S
C980 C979 1.394 . S
C980 C981 1.516 . S
C981 C980 1.516 . S
C981 C982 1.502 . S
C981 C983 1.561 . S
C981 C984 1.526 . S
C982 H966 0.959 . S
C982 H967 0.959 . S
C982 H968 0.961 . S
C982 C981 1.502 . S
C983 H969 0.960 . S
C983 H970 0.961 . S
C983 H971 0.959 . S
C983 C981 1.561 . S
C984 C981 1.526 . S
C984 C985 1.396 . S
C984 C989 1.390 . S
C985 C979 1.465 . S
C985 C984 1.396 . S
C985 C986 1.399 . S
C986 H972 0.929 . S
C986 C985 1.399 . S
C986 C987 1.385 . S
C987 H973 0.931 . S
C987 C986 1.385 . S
C987 C988 1.389 . S
C988 C987 1.389 . S
C988 C989 1.387 . S
C989 H974 0.930 . S
C989 C984 1.390 . S
C989 C988 1.387 . S
H990 C1002 0.930 . S
H991 C1004 0.930 . S
H992 C1005 0.930 . S
H993 C1009 0.959 . S
H994 C1009 0.959 . S
H995 C1009 0.961 . S
H996 C1010 0.960 . S
H997 C1010 0.961 . S
H998 C1010 0.959 . S
H999 C1013 0.929 . S
H1000 C1014 0.931 . S
H1001 C1016 0.930 . S
C1002 H990 0.930 . S
C1002 C1003 1.399 . S
C1002 C1007 1.399 . S
C1003 C1002 1.399 . S
C1003 C1004 1.376 . S
C1004 H991 0.930 . S
C1004 C1003 1.376 . S
C1004 C1005 1.388 . S
C1005 H992 0.930 . S
C1005 C1004 1.388 . S
C1005 C1006 1.390 . S
C1006 C1005 1.390 . S
C1006 C1007 1.394 . S
C1006 C1012 1.465 . S
C1007 C1002 1.399 . S
C1007 C1006 1.394 . S
C1007 C1008 1.516 . S
C1008 C1007 1.516 . S
C1008 C1009 1.502 . S
C1008 C1010 1.561 . S
C1008 C1011 1.526 . S
C1009 H993 0.959 . S
C1009 H994 0.959 . S
C1009 H995 0.961 . S
C1009 C1008 1.502 . S
C1010 H996 0.960 . S
C1010 H997 0.961 . S
C1010 H998 0.959 . S
C1010 C1008 1.561 . S
C1011 C1008 1.526 . S
C1011 C1012 1.396 . S
C1011 C1016 1.390 . S
C1012 C1006 1.465 . S
C1012 C1011 1.396 . S
C1012 C1013 1.399 . S
C1013 H999 0.929 . S
C1013 C1012 1.399 . S
C1013 C1014 1.385 . S
C1014 H1000 0.931 . S
C1014 C1013 1.385 . S
C1014 C1015 1.389 . S
C1015 C1014 1.389 . S
C1015 C1016 1.387 . S
C1016 H1001 0.930 . S
C1016 C1011 1.390 . S
C1016 C1015 1.387 . S
H1017 C1029 0.930 . S
H1018 C1031 0.930 . S
H1019 C1032 0.930 . S
H1020 C1036 0.959 . S
H1021 C1036 0.959 . S
H1022 C1036 0.961 . S
H1023 C1037 0.960 . S
H1024 C1037 0.961 . S
H1025 C1037 0.959 . S
H1026 C1040 0.929 . S
H1027 C1041 0.931 . S
H1028 C1043 0.930 . S
C1029 H1017 0.930 . S
C1029 C1030 1.399 . S
C1029 C1034 1.399 . S
C1030 C1029 1.399 . S
C1030 C1031 1.376 . S
C1031 H1018 0.930 . S
C1031 C1030 1.376 . S
C1031 C1032 1.388 . S
C1032 H1019 0.930 . S
C1032 C1031 1.388 . S
C1032 C1033 1.390 . S
C1033 C1032 1.390 . S
C1033 C1034 1.394 . S
C1033 C1039 1.465 . S
C1034 C1029 1.399 . S
C1034 C1033 1.394 . S
C1034 C1035 1.516 . S
C1035 C1034 1.516 . S
C1035 C1036 1.502 . S
C1035 C1037 1.561 . S
C1035 C1038 1.526 . S
C1036 H1020 0.959 . S
C1036 H1021 0.959 . S
C1036 H1022 0.961 . S
C1036 C1035 1.502 . S
C1037 H1023 0.960 . S
C1037 H1024 0.961 . S
C1037 H1025 0.959 . S
C1037 C1035 1.561 . S
C1038 C1035 1.526 . S
C1038 C1039 1.396 . S
C1038 C1043 1.390 . S
C1039 C1033 1.465 . S
C1039 C1038 1.396 . S
C1039 C1040 1.399 . S
C1040 H1026 0.929 . S
C1040 C1039 1.399 . S
C1040 C1041 1.385 . S
C1041 H1027 0.931 . S
C1041 C1040 1.385 . S
C1041 C1042 1.389 . S
C1042 C1041 1.389 . S
C1042 C1043 1.387 . S
C1043 H1028 0.930 . S
C1043 C1038 1.390 . S
C1043 C1042 1.387 . S
H1044 C1056 0.930 . S
H1045 C1058 0.930 . S
H1046 C1059 0.930 . S
H1047 C1063 0.959 . S
H1048 C1063 0.959 . S
H1049 C1063 0.961 . S
H1050 C1064 0.960 . S
H1051 C1064 0.961 . S
H1052 C1064 0.959 . S
H1053 C1067 0.929 . S
H1054 C1068 0.931 . S
H1055 C1070 0.930 . S
C1056 H1044 0.930 . S
C1056 C1057 1.399 . S
C1056 C1061 1.399 . S
C1057 C1056 1.399 . S
C1057 C1058 1.376 . S
C1058 H1045 0.930 . S
C1058 C1057 1.376 . S
C1058 C1059 1.388 . S
C1059 H1046 0.930 . S
C1059 C1058 1.388 . S
C1059 C1060 1.390 . S
C1060 C1059 1.390 . S
C1060 C1061 1.394 . S
C1060 C1066 1.465 . S
C1061 C1056 1.399 . S
C1061 C1060 1.394 . S
C1061 C1062 1.516 . S
C1062 C1061 1.516 . S
C1062 C1063 1.502 . S
C1062 C1064 1.561 . S
C1062 C1065 1.526 . S
C1063 H1047 0.959 . S
C1063 H1048 0.959 . S
C1063 H1049 0.961 . S
C1063 C1062 1.502 . S
C1064 H1050 0.960 . S
C1064 H1051 0.961 . S
C1064 H1052 0.959 . S
C1064 C1062 1.561 . S
C1065 C1062 1.526 . S
C1065 C1066 1.396 . S
C1065 C1070 1.390 . S
C1066 C1060 1.465 . S
C1066 C1065 1.396 . S
C1066 C1067 1.399 . S
C1067 H1053 0.929 . S
C1067 C1066 1.399 . S
C1067 C1068 1.385 . S
C1068 H1054 0.931 . S
C1068 C1067 1.385 . S
C1068 C1069 1.389 . S
C1069 C1068 1.389 . S
C1069 C1070 1.387 . S
C1070 H1055 0.930 . S
C1070 C1065 1.390 . S
C1070 C1069 1.387 . S
H1071 C1083 0.930 . S
H1072 C1085 0.930 . S
H1073 C1086 0.930 . S
H1074 C1090 0.959 . S
H1075 C1090 0.959 . S
H1076 C1090 0.961 . S
H1077 C1091 0.960 . S
H1078 C1091 0.961 . S
H1079 C1091 0.959 . S
H1080 C1094 0.929 . S
H1081 C1095 0.931 . S
H1082 C1097 0.930 . S
C1083 H1071 0.930 . S
C1083 C1084 1.399 . S
C1083 C1088 1.399 . S
C1084 C1083 1.399 . S
C1084 C1085 1.376 . S
C1085 H1072 0.930 . S
C1085 C1084 1.376 . S
C1085 C1086 1.388 . S
C1086 H1073 0.930 . S
C1086 C1085 1.388 . S
C1086 C1087 1.390 . S
C1087 C1086 1.390 . S
C1087 C1088 1.394 . S
C1087 C1093 1.465 . S
C1088 C1083 1.399 . S
C1088 C1087 1.394 . S
C1088 C1089 1.516 . S
C1089 C1088 1.516 . S
C1089 C1090 1.502 . S
C1089 C1091 1.561 . S
C1089 C1092 1.526 . S
C1090 H1074 0.959 . S
C1090 H1075 0.959 . S
C1090 H1076 0.961 . S
C1090 C1089 1.502 . S
C1091 H1077 0.960 . S
C1091 H1078 0.961 . S
C1091 H1079 0.959 . S
C1091 C1089 1.561 . S
C1092 C1089 1.526 . S
C1092 C1093 1.396 . S
C1092 C1097 1.390 . S
C1093 C1087 1.465 . S
C1093 C1092 1.396 . S
C1093 C1094 1.399 . S
C1094 H1080 0.929 . S
C1094 C1093 1.399 . S
C1094 C1095 1.385 . S
C1095 H1081 0.931 . S
C1095 C1094 1.385 . S
C1095 C1096 1.389 . S
C1096 C1095 1.389 . S
C1096 C1097 1.387 . S
C1097 H1082 0.930 . S
C1097 C1092 1.390 . S
C1097 C1096 1.387 . S
H1098 C1110 0.930 . S
H1099 C1112 0.930 . S
H1100 C1113 0.930 . S
H1101 C1117 0.959 . S
H1102 C1117 0.959 . S
H1103 C1117 0.961 . S
H1104 C1118 0.960 . S
H1105 C1118 0.961 . S
H1106 C1118 0.959 . S
H1107 C1121 0.929 . S
H1108 C1122 0.931 . S
H1109 C1124 0.930 . S
C1110 H1098 0.930 . S
C1110 C1111 1.399 . S
C1110 C1115 1.399 . S
C1111 C1110 1.399 . S
C1111 C1112 1.376 . S
C1112 H1099 0.930 . S
C1112 C1111 1.376 . S
C1112 C1113 1.388 . S
C1113 H1100 0.930 . S
C1113 C1112 1.388 . S
C1113 C1114 1.390 . S
C1114 C1113 1.390 . S
C1114 C1115 1.394 . S
C1114 C1120 1.465 . S
C1115 C1110 1.399 . S
C1115 C1114 1.394 . S
C1115 C1116 1.516 . S
C1116 C1115 1.516 . S
C1116 C1117 1.502 . S
C1116 C1118 1.561 . S
C1116 C1119 1.526 . S
C1117 H1101 0.959 . S
C1117 H1102 0.959 . S
C1117 H1103 0.961 . S
C1117 C1116 1.502 . S
C1118 H1104 0.960 . S
C1118 H1105 0.961 . S
C1118 H1106 0.959 . S
C1118 C1116 1.561 . S
C1119 C1116 1.526 . S
C1119 C1120 1.396 . S
C1119 C1124 1.390 . S
C1120 C1114 1.465 . S
C1120 C1119 1.396 . S
C1120 C1121 1.399 . S
C1121 H1107 0.929 . S
C1121 C1120 1.399 . S
C1121 C1122 1.385 . S
C1122 H1108 0.931 . S
C1122 C1121 1.385 . S
C1122 C1123 1.389 . S
C1123 C1122 1.389 . S
C1123 C1124 1.387 . S
C1124 H1109 0.930 . S
C1124 C1119 1.390 . S
C1124 C1123 1.387 . S
H1125 C1137 0.930 . S
H1126 C1139 0.930 . S
H1127 C1140 0.930 . S
H1128 C1144 0.959 . S
H1129 C1144 0.959 . S
H1130 C1144 0.961 . S
H1131 C1145 0.960 . S
H1132 C1145 0.961 . S
H1133 C1145 0.959 . S
H1134 C1148 0.929 . S
H1135 C1149 0.931 . S
H1136 C1151 0.930 . S
C1137 H1125 0.930 . S
C1137 C1138 1.399 . S
C1137 C1142 1.399 . S
C1138 C1137 1.399 . S
C1138 C1139 1.376 . S
C1139 H1126 0.930 . S
C1139 C1138 1.376 . S
C1139 C1140 1.388 . S
C1140 H1127 0.930 . S
C1140 C1139 1.388 . S
C1140 C1141 1.390 . S
C1141 C1140 1.390 . S
C1141 C1142 1.394 . S
C1141 C1147 1.465 . S
C1142 C1137 1.399 . S
C1142 C1141 1.394 . S
C1142 C1143 1.516 . S
C1143 C1142 1.516 . S
C1143 C1144 1.502 . S
C1143 C1145 1.561 . S
C1143 C1146 1.526 . S
C1144 H1128 0.959 . S
C1144 H1129 0.959 . S
C1144 H1130 0.961 . S
C1144 C1143 1.502 . S
C1145 H1131 0.960 . S
C1145 H1132 0.961 . S
C1145 H1133 0.959 . S
C1145 C1143 1.561 . S
C1146 C1143 1.526 . S
C1146 C1147 1.396 . S
C1146 C1151 1.390 . S
C1147 C1141 1.465 . S
C1147 C1146 1.396 . S
C1147 C1148 1.399 . S
C1148 H1134 0.929 . S
C1148 C1147 1.399 . S
C1148 C1149 1.385 . S
C1149 H1135 0.931 . S
C1149 C1148 1.385 . S
C1149 C1150 1.389 . S
C1150 C1149 1.389 . S
C1150 C1151 1.387 . S
C1151 H1136 0.930 . S
C1151 C1146 1.390 . S
C1151 C1150 1.387 . S
H1152 C1164 0.930 . S
H1153 C1166 0.930 . S
H1154 C1167 0.930 . S
H1155 C1171 0.959 . S
H1156 C1171 0.959 . S
H1157 C1171 0.961 . S
H1158 C1172 0.960 . S
H1159 C1172 0.961 . S
H1160 C1172 0.959 . S
H1161 C1175 0.929 . S
H1162 C1176 0.931 . S
H1163 C1178 0.930 . S
C1164 H1152 0.930 . S
C1164 C1165 1.399 . S
C1164 C1169 1.399 . S
C1165 C1164 1.399 . S
C1165 C1166 1.376 . S
C1166 H1153 0.930 . S
C1166 C1165 1.376 . S
C1166 C1167 1.388 . S
C1167 H1154 0.930 . S
C1167 C1166 1.388 . S
C1167 C1168 1.390 . S
C1168 C1167 1.390 . S
C1168 C1169 1.394 . S
C1168 C1174 1.465 1_565 S
C1169 C1164 1.399 . S
C1169 C1168 1.394 . S
C1169 C1170 1.516 1_565 S
C1170 C1169 1.516 1_545 S
C1170 C1171 1.502 . S
C1170 C1172 1.561 . S
C1170 C1173 1.526 . S
C1171 H1155 0.959 . S
C1171 H1156 0.959 . S
C1171 H1157 0.961 . S
C1171 C1170 1.502 . S
C1172 H1158 0.960 . S
C1172 H1159 0.961 . S
C1172 H1160 0.959 . S
C1172 C1170 1.561 . S
C1173 C1170 1.526 . S
C1173 C1174 1.396 . S
C1173 C1178 1.390 . S
C1174 C1168 1.465 1_545 S
C1174 C1173 1.396 . S
C1174 C1175 1.399 . S
C1175 H1161 0.929 . S
C1175 C1174 1.399 . S
C1175 C1176 1.385 . S
C1176 H1162 0.931 . S
C1176 C1175 1.385 . S
C1176 C1177 1.389 . S
C1177 C1176 1.389 . S
C1177 C1178 1.387 . S
C1178 H1163 0.930 . S
C1178 C1173 1.390 . S
C1178 C1177 1.387 . S
H1179 C1191 0.930 . S
H1180 C1193 0.930 . S
H1181 C1194 0.930 . S
H1182 C1198 0.959 . S
H1183 C1198 0.959 1_655 S
H1184 C1198 0.961 . S
H1185 C1199 0.960 . S
H1186 C1199 0.961 . S
H1187 C1199 0.959 . S
H1188 C1202 0.929 . S
H1189 C1203 0.931 . S
H1190 C1205 0.930 . S
C1191 H1179 0.930 . S
C1191 C1192 1.399 . S
C1191 C1196 1.399 . S
C1192 C1191 1.399 . S
C1192 C1193 1.376 . S
C1193 H1180 0.930 . S
C1193 C1192 1.376 . S
C1193 C1194 1.388 . S
C1194 H1181 0.930 . S
C1194 C1193 1.388 . S
C1194 C1195 1.390 . S
C1195 C1194 1.390 . S
C1195 C1196 1.394 . S
C1195 C1201 1.465 1_455 S
C1196 C1191 1.399 . S
C1196 C1195 1.394 . S
C1196 C1197 1.516 . S
C1197 C1196 1.516 . S
C1197 C1198 1.502 . S
C1197 C1199 1.561 . S
C1197 C1200 1.526 1_455 S
C1198 H1182 0.959 . S
C1198 H1183 0.959 1_455 S
C1198 H1184 0.961 . S
C1198 C1197 1.502 . S
C1199 H1185 0.960 . S
C1199 H1186 0.961 . S
C1199 H1187 0.959 . S
C1199 C1197 1.561 . S
C1200 C1197 1.526 1_655 S
C1200 C1201 1.396 . S
C1200 C1205 1.390 . S
C1201 C1195 1.465 1_655 S
C1201 C1200 1.396 . S
C1201 C1202 1.399 . S
C1202 H1188 0.929 . S
C1202 C1201 1.399 . S
C1202 C1203 1.385 . S
C1203 H1189 0.931 . S
C1203 C1202 1.385 . S
C1203 C1204 1.389 . S
C1204 C1203 1.389 . S
C1204 C1205 1.387 . S
C1205 H1190 0.930 . S
C1205 C1200 1.390 . S
C1205 C1204 1.387 . S
H1206 C1218 0.930 . S
H1207 C1220 0.930 . S
H1208 C1221 0.930 . S
H1209 C1225 0.955 1_556 S
H1210 C1225 0.910 1_556 S
H1211 C1225 1.019 . S
H1212 C1226 1.013 . S
H1213 C1226 0.916 1_556 S
H1214 C1226 0.953 1_556 S
H1215 C1229 0.929 . S
H1216 C1230 0.931 . S
H1217 C1232 0.930 . S
C1218 H1206 0.930 . S
C1218 C1219 1.399 1_565 S
C1218 C1223 1.399 1_565 S
C1219 C1218 1.399 1_545 S
C1219 C1220 1.376 . S
C1220 H1207 0.930 . S
C1220 C1219 1.376 . S
C1220 C1221 1.388 . S
C1221 H1208 0.930 . S
C1221 C1220 1.388 . S
C1221 C1222 1.390 . S
C1222 C1221 1.390 . S
C1222 C1223 1.394 . S
C1222 C1228 1.465 1_554 S
C1223 C1218 1.399 1_545 S
C1223 C1222 1.394 . S
C1223 C1224 1.551 1_545 S
C1224 C1223 1.551 1_565 S
C1224 C1225 1.502 . S
C1224 C1226 1.561 . S
C1224 C1227 1.487 1_564 S
C1225 H1209 0.955 1_554 S
C1225 H1210 0.910 1_554 S
C1225 H1211 1.019 . S
C1225 C1224 1.502 . S
C1226 H1212 1.013 . S
C1226 H1213 0.916 1_554 S
C1226 H1214 0.953 1_554 S
C1226 C1224 1.561 . S
C1227 C1224 1.487 1_546 S
C1227 C1228 1.399 . S
C1227 C1232 1.389 1_545 S
C1228 C1222 1.465 1_556 S
C1228 C1227 1.399 . S
C1228 C1229 1.399 . S
C1229 H1215 0.929 . S
C1229 C1228 1.399 . S
C1229 C1230 1.385 . S
C1230 H1216 0.931 . S
C1230 C1229 1.385 . S
C1230 C1231 1.389 . S
C1231 C1230 1.389 . S
C1231 C1232 1.387 1_545 S
C1232 H1217 0.930 . S
C1232 C1227 1.389 1_565 S
C1232 C1231 1.387 1_565 S
H1233 C1245 0.930 1_655 S
H1234 C1247 0.930 . S
H1235 C1248 0.930 . S
H1236 C1252 0.957 1_554 S
H1237 C1252 0.918 1_554 S
H1238 C1252 1.008 . S
H1239 C1253 0.959 . S
H1240 C1253 0.961 1_654 S
H1241 C1253 0.959 1_554 S
H1242 C1256 0.929 . S
H1243 C1257 0.931 . S
H1244 C1259 0.932 . S
C1245 H1233 0.930 1_455 S
C1245 C1246 1.399 . S
C1245 C1250 1.399 . S
C1246 C1245 1.399 . S
C1246 C1247 1.376 . S
C1247 H1234 0.930 . S
C1247 C1246 1.376 . S
C1247 C1248 1.388 . S
C1248 H1235 0.930 . S
C1248 C1247 1.388 . S
C1248 C1249 1.390 . S
C1249 C1248 1.390 . S
C1249 C1250 1.394 . S
C1249 C1255 1.465 1_556 S
C1250 C1245 1.399 . S
C1250 C1249 1.394 . S
C1250 C1251 1.534 1_455 S
C1251 C1250 1.534 1_655 S
C1251 C1252 1.501 . S
C1251 C1253 1.561 1_655 S
C1251 C1254 1.507 1_656 S
C1252 H1236 0.957 1_556 S
C1252 H1237 0.918 1_556 S
C1252 H1238 1.008 . S
C1252 C1251 1.501 . S
C1253 H1239 0.959 . S
C1253 H1240 0.961 1_456 S
C1253 H1241 0.959 1_556 S
C1253 C1251 1.561 1_455 S
C1254 C1251 1.507 1_454 S
C1254 C1255 1.396 . S
C1254 C1259 1.389 1_455 S
C1255 C1249 1.465 1_554 S
C1255 C1254 1.396 . S
C1255 C1256 1.399 . S
C1256 H1242 0.929 . S
C1256 C1255 1.399 . S
C1256 C1257 1.385 . S
C1257 H1243 0.931 . S
C1257 C1256 1.385 . S
C1257 C1258 1.389 . S
C1258 C1257 1.389 . S
C1258 C1259 1.386 1_455 S
C1259 H1244 0.932 . S
C1259 C1254 1.389 1_655 S
C1259 C1258 1.386 1_655 S
H1260 C1272 0.930 . S
H1261 C1274 0.930 . S
H1262 C1275 0.930 . S
H1263 C1279 0.958 . S
H1264 C1279 0.962 . S
H1265 C1279 0.958 1_556 S
H1266 C1280 0.900 1_556 S
H1267 C1280 1.018 . S
H1268 C1280 0.969 . S
H1269 C1283 0.929 . S
H1270 C1284 0.931 . S
H1271 C1286 0.930 . S
C1272 H1260 0.930 . S
C1272 C1273 1.399 . S
C1272 C1277 1.399 . S
C1273 C1272 1.399 . S
C1273 C1274 1.376 . S
C1274 H1261 0.930 . S
C1274 C1273 1.376 . S
C1274 C1275 1.388 . S
C1275 H1262 0.930 . S
C1275 C1274 1.388 . S
C1275 C1276 1.390 . S
C1276 C1275 1.390 . S
C1276 C1277 1.394 . S
C1276 C1282 1.465 1_556 S
C1277 C1272 1.399 . S
C1277 C1276 1.394 . S
C1277 C1278 1.507 1_556 S
C1278 C1277 1.507 1_554 S
C1278 C1279 1.502 . S
C1278 C1280 1.560 . S
C1278 C1281 1.535 . S
C1279 H1263 0.958 . S
C1279 H1264 0.962 . S
C1279 H1265 0.958 1_554 S
C1279 C1278 1.502 . S
C1280 H1266 0.900 1_554 S
C1280 H1267 1.018 . S
C1280 H1268 0.969 . S
C1280 C1278 1.560 . S
C1281 C1278 1.535 . S
C1281 C1282 1.396 . S
C1281 C1286 1.390 . S
C1282 C1276 1.465 1_554 S
C1282 C1281 1.396 . S
C1282 C1283 1.399 . S
C1283 H1269 0.929 . S
C1283 C1282 1.399 . S
C1283 C1284 1.385 . S
C1284 H1270 0.931 . S
C1284 C1283 1.385 . S
C1284 C1285 1.389 . S
C1285 C1284 1.389 . S
C1285 C1286 1.387 . S
C1286 H1271 0.930 . S
C1286 C1281 1.390 . S
C1286 C1285 1.387 . S
H1287 C1299 0.930 . S
H1288 C1301 0.930 . S
H1289 C1302 0.930 . S
H1290 C1306 0.959 . S
H1291 C1306 0.959 . S
H1292 C1306 0.961 . S
H1293 C1307 0.960 . S
H1294 C1307 0.961 . S
H1295 C1307 0.959 . S
H1296 C1310 0.929 . S
H1297 C1311 0.931 . S
H1298 C1313 0.930 . S
C1299 H1287 0.930 . S
C1299 C1300 1.399 . S
C1299 C1304 1.399 . S
C1300 C1299 1.399 . S
C1300 C1301 1.376 . S
C1301 H1288 0.930 . S
C1301 C1300 1.376 . S
C1301 C1302 1.388 . S
C1302 H1289 0.930 . S
C1302 C1301 1.388 . S
C1302 C1303 1.390 . S
C1303 C1302 1.390 . S
C1303 C1304 1.394 . S
C1303 C1309 1.465 . S
C1304 C1299 1.399 . S
C1304 C1303 1.394 . S
C1304 C1305 1.516 . S
C1305 C1304 1.516 . S
C1305 C1306 1.502 . S
C1305 C1307 1.561 . S
C1305 C1308 1.526 . S
C1306 H1290 0.959 . S
C1306 H1291 0.959 . S
C1306 H1292 0.961 . S
C1306 C1305 1.502 . S
C1307 H1293 0.960 . S
C1307 H1294 0.961 . S
C1307 H1295 0.959 . S
C1307 C1305 1.561 . S
C1308 C1305 1.526 . S
C1308 C1309 1.396 . S
C1308 C1313 1.390 . S
C1309 C1303 1.465 . S
C1309 C1308 1.396 . S
C1309 C1310 1.399 . S
C1310 H1296 0.929 . S
C1310 C1309 1.399 . S
C1310 C1311 1.385 . S
C1311 H1297 0.931 . S
C1311 C1310 1.385 . S
C1311 C1312 1.389 . S
C1312 C1311 1.389 . S
C1312 C1313 1.387 . S
C1313 H1298 0.930 . S
C1313 C1308 1.390 . S
C1313 C1312 1.387 . S
H1314 C1326 0.930 . S
H1315 C1328 0.930 . S
H1316 C1329 0.930 . S
H1317 C1333 0.959 . S
H1318 C1333 0.959 . S
H1319 C1333 0.961 . S
H1320 C1334 0.960 . S
H1321 C1334 0.961 . S
H1322 C1334 0.959 . S
H1323 C1337 0.929 . S
H1324 C1338 0.931 . S
H1325 C1340 0.930 . S
C1326 H1314 0.930 . S
C1326 C1327 1.399 . S
C1326 C1331 1.399 . S
C1327 C1326 1.399 . S
C1327 C1328 1.376 . S
C1328 H1315 0.930 . S
C1328 C1327 1.376 . S
C1328 C1329 1.388 . S
C1329 H1316 0.930 . S
C1329 C1328 1.388 . S
C1329 C1330 1.390 . S
C1330 C1329 1.390 . S
C1330 C1331 1.394 . S
C1330 C1336 1.465 . S
C1331 C1326 1.399 . S
C1331 C1330 1.394 . S
C1331 C1332 1.516 . S
C1332 C1331 1.516 . S
C1332 C1333 1.502 . S
C1332 C1334 1.561 . S
C1332 C1335 1.526 . S
C1333 H1317 0.959 . S
C1333 H1318 0.959 . S
C1333 H1319 0.961 . S
C1333 C1332 1.502 . S
C1334 H1320 0.960 . S
C1334 H1321 0.961 . S
C1334 H1322 0.959 . S
C1334 C1332 1.561 . S
C1335 C1332 1.526 . S
C1335 C1336 1.396 . S
C1335 C1340 1.390 . S
C1336 C1330 1.465 . S
C1336 C1335 1.396 . S
C1336 C1337 1.399 . S
C1337 H1323 0.929 . S
C1337 C1336 1.399 . S
C1337 C1338 1.385 . S
C1338 H1324 0.931 . S
C1338 C1337 1.385 . S
C1338 C1339 1.389 . S
C1339 C1338 1.389 . S
C1339 C1340 1.387 . S
C1340 H1325 0.930 . S
C1340 C1335 1.390 . S
C1340 C1339 1.387 . S
H1341 C1353 0.930 . S
H1342 C1355 0.930 . S
H1343 C1356 0.930 . S
H1344 C1360 0.959 . S
H1345 C1360 0.959 . S
H1346 C1360 0.961 . S
H1347 C1361 0.960 . S
H1348 C1361 0.961 . S
H1349 C1361 0.959 . S
H1350 C1364 0.929 . S
H1351 C1365 0.931 . S
H1352 C1367 0.930 . S
C1353 H1341 0.930 . S
C1353 C1354 1.399 . S
C1353 C1358 1.399 . S
C1354 C1353 1.399 . S
C1354 C1355 1.376 . S
C1355 H1342 0.930 . S
C1355 C1354 1.376 . S
C1355 C1356 1.388 . S
C1356 H1343 0.930 . S
C1356 C1355 1.388 . S
C1356 C1357 1.390 . S
C1357 C1356 1.390 . S
C1357 C1358 1.394 . S
C1357 C1363 1.465 . S
C1358 C1353 1.399 . S
C1358 C1357 1.394 . S
C1358 C1359 1.516 . S
C1359 C1358 1.516 . S
C1359 C1360 1.502 . S
C1359 C1361 1.561 . S
C1359 C1362 1.526 . S
C1360 H1344 0.959 . S
C1360 H1345 0.959 . S
C1360 H1346 0.961 . S
C1360 C1359 1.502 . S
C1361 H1347 0.960 . S
C1361 H1348 0.961 . S
C1361 H1349 0.959 . S
C1361 C1359 1.561 . S
C1362 C1359 1.526 . S
C1362 C1363 1.396 . S
C1362 C1367 1.390 . S
C1363 C1357 1.465 . S
C1363 C1362 1.396 . S
C1363 C1364 1.399 . S
C1364 H1350 0.929 . S
C1364 C1363 1.399 . S
C1364 C1365 1.385 . S
C1365 H1351 0.931 . S
C1365 C1364 1.385 . S
C1365 C1366 1.389 . S
C1366 C1365 1.389 . S
C1366 C1367 1.387 . S
C1367 H1352 0.930 . S
C1367 C1362 1.390 . S
C1367 C1366 1.387 . S
H1368 C1380 0.930 . S
H1369 C1382 0.930 . S
H1370 C1383 0.930 . S
H1371 C1387 0.959 . S
H1372 C1387 0.959 . S
H1373 C1387 0.961 . S
H1374 C1388 0.960 . S
H1375 C1388 0.961 . S
H1376 C1388 0.959 . S
H1377 C1391 0.929 . S
H1378 C1392 0.931 . S
H1379 C1394 0.930 . S
C1380 H1368 0.930 . S
C1380 C1381 1.399 . S
C1380 C1385 1.399 . S
C1381 C1380 1.399 . S
C1381 C1382 1.376 . S
C1382 H1369 0.930 . S
C1382 C1381 1.376 . S
C1382 C1383 1.388 . S
C1383 H1370 0.930 . S
C1383 C1382 1.388 . S
C1383 C1384 1.390 . S
C1384 C1383 1.390 . S
C1384 C1385 1.394 . S
C1384 C1390 1.465 . S
C1385 C1380 1.399 . S
C1385 C1384 1.394 . S
C1385 C1386 1.516 . S
C1386 C1385 1.516 . S
C1386 C1387 1.502 . S
C1386 C1388 1.561 . S
C1386 C1389 1.526 . S
C1387 H1371 0.959 . S
C1387 H1372 0.959 . S
C1387 H1373 0.961 . S
C1387 C1386 1.502 . S
C1388 H1374 0.960 . S
C1388 H1375 0.961 . S
C1388 H1376 0.959 . S
C1388 C1386 1.561 . S
C1389 C1386 1.526 . S
C1389 C1390 1.396 . S
C1389 C1394 1.390 . S
C1390 C1384 1.465 . S
C1390 C1389 1.396 . S
C1390 C1391 1.399 . S
C1391 H1377 0.929 . S
C1391 C1390 1.399 . S
C1391 C1392 1.385 . S
C1392 H1378 0.931 . S
C1392 C1391 1.385 . S
C1392 C1393 1.389 . S
C1393 C1392 1.389 . S
C1393 C1394 1.387 . S
C1394 H1379 0.930 . S
C1394 C1389 1.390 . S
C1394 C1393 1.387 . S
H1395 C1407 0.930 . S
H1396 C1409 0.930 . S
H1397 C1410 0.930 . S
H1398 C1414 0.959 . S
H1399 C1414 0.959 . S
H1400 C1414 0.961 . S
H1401 C1415 0.960 . S
H1402 C1415 0.961 . S
H1403 C1415 0.959 . S
H1404 C1418 0.929 . S
H1405 C1419 0.931 . S
H1406 C1421 0.930 . S
C1407 H1395 0.930 . S
C1407 C1408 1.399 . S
C1407 C1412 1.399 . S
C1408 C1407 1.399 . S
C1408 C1409 1.376 . S
C1409 H1396 0.930 . S
C1409 C1408 1.376 . S
C1409 C1410 1.388 . S
C1410 H1397 0.930 . S
C1410 C1409 1.388 . S
C1410 C1411 1.390 . S
C1411 C1410 1.390 . S
C1411 C1412 1.394 . S
C1411 C1417 1.465 . S
C1412 C1407 1.399 . S
C1412 C1411 1.394 . S
C1412 C1413 1.516 . S
C1413 C1412 1.516 . S
C1413 C1414 1.502 . S
C1413 C1415 1.561 . S
C1413 C1416 1.526 . S
C1414 H1398 0.959 . S
C1414 H1399 0.959 . S
C1414 H1400 0.961 . S
C1414 C1413 1.502 . S
C1415 H1401 0.960 . S
C1415 H1402 0.961 . S
C1415 H1403 0.959 . S
C1415 C1413 1.561 . S
C1416 C1413 1.526 . S
C1416 C1417 1.396 . S
C1416 C1421 1.390 . S
C1417 C1411 1.465 . S
C1417 C1416 1.396 . S
C1417 C1418 1.399 . S
C1418 H1404 0.929 . S
C1418 C1417 1.399 . S
C1418 C1419 1.385 . S
C1419 H1405 0.931 . S
C1419 C1418 1.385 . S
C1419 C1420 1.389 . S
C1420 C1419 1.389 . S
C1420 C1421 1.387 . S
C1421 H1406 0.930 . S
C1421 C1416 1.390 . S
C1421 C1420 1.387 . S
H1422 C1434 0.930 . S
H1423 C1436 0.930 . S
H1424 C1437 0.930 . S
H1425 C1441 0.959 . S
H1426 C1441 0.959 . S
H1427 C1441 0.961 . S
H1428 C1442 0.960 . S
H1429 C1442 0.961 . S
H1430 C1442 0.959 . S
H1431 C1445 0.929 . S
H1432 C1446 0.931 . S
H1433 C1448 0.930 . S
C1434 H1422 0.930 . S
C1434 C1435 1.399 . S
C1434 C1439 1.399 . S
C1435 C1434 1.399 . S
C1435 C1436 1.376 . S
C1436 H1423 0.930 . S
C1436 C1435 1.376 . S
C1436 C1437 1.388 . S
C1437 H1424 0.930 . S
C1437 C1436 1.388 . S
C1437 C1438 1.390 . S
C1438 C1437 1.390 . S
C1438 C1439 1.394 . S
C1438 C1444 1.465 . S
C1439 C1434 1.399 . S
C1439 C1438 1.394 . S
C1439 C1440 1.516 . S
C1440 C1439 1.516 . S
C1440 C1441 1.502 . S
C1440 C1442 1.561 . S
C1440 C1443 1.526 . S
C1441 H1425 0.959 . S
C1441 H1426 0.959 . S
C1441 H1427 0.961 . S
C1441 C1440 1.502 . S
C1442 H1428 0.960 . S
C1442 H1429 0.961 . S
C1442 H1430 0.959 . S
C1442 C1440 1.561 . S
C1443 C1440 1.526 . S
C1443 C1444 1.396 . S
C1443 C1448 1.390 . S
C1444 C1438 1.465 . S
C1444 C1443 1.396 . S
C1444 C1445 1.399 . S
C1445 H1431 0.929 . S
C1445 C1444 1.399 . S
C1445 C1446 1.385 . S
C1446 H1432 0.931 . S
C1446 C1445 1.385 . S
C1446 C1447 1.389 . S
C1447 C1446 1.389 . S
C1447 C1448 1.387 . S
C1448 H1433 0.930 . S
C1448 C1443 1.390 . S
C1448 C1447 1.387 . S
H1449 C1461 0.930 . S
H1450 C1463 0.930 . S
H1451 C1464 0.930 . S
H1452 C1468 0.959 . S
H1453 C1468 0.959 . S
H1454 C1468 0.961 . S
H1455 C1469 0.960 . S
H1456 C1469 0.961 . S
H1457 C1469 0.959 . S
H1458 C1472 0.929 1_545 S
H1459 C1473 0.931 . S
H1460 C1475 0.930 . S
C1461 H1449 0.930 . S
C1461 C1462 1.399 . S
C1461 C1466 1.399 . S
C1462 C1461 1.399 . S
C1462 C1463 1.376 . S
C1463 H1450 0.930 . S
C1463 C1462 1.376 . S
C1463 C1464 1.388 . S
C1464 H1451 0.930 . S
C1464 C1463 1.388 . S
C1464 C1465 1.390 . S
C1465 C1464 1.390 . S
C1465 C1466 1.394 . S
C1465 C1471 1.465 . S
C1466 C1461 1.399 . S
C1466 C1465 1.394 . S
C1466 C1467 1.516 . S
C1467 C1466 1.516 . S
C1467 C1468 1.502 . S
C1467 C1469 1.561 . S
C1467 C1470 1.526 . S
C1468 H1452 0.959 . S
C1468 H1453 0.959 . S
C1468 H1454 0.961 . S
C1468 C1467 1.502 . S
C1469 H1455 0.960 . S
C1469 H1456 0.961 . S
C1469 H1457 0.959 . S
C1469 C1467 1.561 . S
C1470 C1467 1.526 . S
C1470 C1471 1.396 . S
C1470 C1475 1.390 . S
C1471 C1465 1.465 . S
C1471 C1470 1.396 . S
C1471 C1472 1.399 . S
C1472 H1458 0.929 1_565 S
C1472 C1471 1.399 . S
C1472 C1473 1.385 1_565 S
C1473 H1459 0.931 . S
C1473 C1472 1.385 1_545 S
C1473 C1474 1.389 1_545 S
C1474 C1473 1.389 1_565 S
C1474 C1475 1.387 . S
C1475 H1460 0.930 . S
C1475 C1470 1.390 . S
C1475 C1474 1.387 . S
H1476 C1488 0.930 . S
H1477 C1490 0.930 . S
H1478 C1491 0.930 . S
H1479 C1495 0.959 . S
H1480 C1495 0.959 . S
H1481 C1495 0.961 . S
H1482 C1496 0.960 . S
H1483 C1496 0.961 . S
H1484 C1496 0.959 . S
H1485 C1499 0.929 . S
H1486 C1500 0.931 . S
H1487 C1502 0.930 . S
C1488 H1476 0.930 . S
C1488 C1489 1.399 . S
C1488 C1493 1.399 . S
C1489 C1488 1.399 . S
C1489 C1490 1.376 . S
C1490 H1477 0.930 . S
C1490 C1489 1.376 . S
C1490 C1491 1.388 . S
C1491 H1478 0.930 . S
C1491 C1490 1.388 . S
C1491 C1492 1.390 . S
C1492 C1491 1.390 . S
C1492 C1493 1.394 . S
C1492 C1498 1.465 . S
C1493 C1488 1.399 . S
C1493 C1492 1.394 . S
C1493 C1494 1.516 . S
C1494 C1493 1.516 . S
C1494 C1495 1.502 . S
C1494 C1496 1.561 . S
C1494 C1497 1.526 . S
C1495 H1479 0.959 . S
C1495 H1480 0.959 . S
C1495 H1481 0.961 . S
C1495 C1494 1.502 . S
C1496 H1482 0.960 . S
C1496 H1483 0.961 . S
C1496 H1484 0.959 . S
C1496 C1494 1.561 . S
C1497 C1494 1.526 . S
C1497 C1498 1.396 . S
C1497 C1502 1.390 . S
C1498 C1492 1.465 . S
C1498 C1497 1.396 . S
C1498 C1499 1.399 . S
C1499 H1485 0.929 . S
C1499 C1498 1.399 . S
C1499 C1500 1.385 . S
C1500 H1486 0.931 . S
C1500 C1499 1.385 . S
C1500 C1501 1.389 . S
C1501 C1500 1.389 . S
C1501 C1502 1.387 . S
C1502 H1487 0.930 . S
C1502 C1497 1.390 . S
C1502 C1501 1.387 . S
H1503 C1515 0.930 . S
H1504 C1517 0.930 . S
H1505 C1518 0.930 . S
H1506 C1522 0.959 . S
H1507 C1522 0.959 . S
H1508 C1522 0.961 . S
H1509 C1523 0.960 . S
H1510 C1523 0.961 . S
H1511 C1523 0.959 . S
H1512 C1526 0.929 . S
H1513 C1527 0.931 . S
H1514 C1529 0.930 . S
C1515 H1503 0.930 . S
C1515 C1516 1.399 . S
C1515 C1520 1.399 . S
C1516 C1515 1.399 . S
C1516 C1517 1.376 . S
C1517 H1504 0.930 . S
C1517 C1516 1.376 . S
C1517 C1518 1.388 . S
C1518 H1505 0.930 . S
C1518 C1517 1.388 . S
C1518 C1519 1.390 . S
C1519 C1518 1.390 . S
C1519 C1520 1.394 . S
C1519 C1525 1.465 . S
C1520 C1515 1.399 . S
C1520 C1519 1.394 . S
C1520 C1521 1.516 . S
C1521 C1520 1.516 . S
C1521 C1522 1.502 . S
C1521 C1523 1.561 . S
C1521 C1524 1.526 . S
C1522 H1506 0.959 . S
C1522 H1507 0.959 . S
C1522 H1508 0.961 . S
C1522 C1521 1.502 . S
C1523 H1509 0.960 . S
C1523 H1510 0.961 . S
C1523 H1511 0.959 . S
C1523 C1521 1.561 . S
C1524 C1521 1.526 . S
C1524 C1525 1.396 . S
C1524 C1529 1.390 . S
C1525 C1519 1.465 . S
C1525 C1524 1.396 . S
C1525 C1526 1.399 . S
C1526 H1512 0.929 . S
C1526 C1525 1.399 . S
C1526 C1527 1.385 . S
C1527 H1513 0.931 . S
C1527 C1526 1.385 . S
C1527 C1528 1.389 . S
C1528 C1527 1.389 . S
C1528 C1529 1.387 . S
C1529 H1514 0.930 . S
C1529 C1524 1.390 . S
C1529 C1528 1.387 . S
H1530 C1542 0.930 . S
H1531 C1544 0.930 . S
H1532 C1545 0.930 . S
H1533 C1549 0.959 . S
H1534 C1549 0.959 . S
H1535 C1549 0.961 . S
H1536 C1550 0.960 . S
H1537 C1550 0.961 . S
H1538 C1550 0.959 . S
H1539 C1553 0.929 . S
H1540 C1554 0.931 . S
H1541 C1556 0.930 . S
C1542 H1530 0.930 . S
C1542 C1543 1.399 . S
C1542 C1547 1.399 . S
C1543 C1542 1.399 . S
C1543 C1544 1.376 . S
C1544 H1531 0.930 . S
C1544 C1543 1.376 . S
C1544 C1545 1.388 . S
C1545 H1532 0.930 . S
C1545 C1544 1.388 . S
C1545 C1546 1.390 . S
C1546 C1545 1.390 . S
C1546 C1547 1.394 . S
C1546 C1552 1.465 . S
C1547 C1542 1.399 . S
C1547 C1546 1.394 . S
C1547 C1548 1.516 . S
C1548 C1547 1.516 . S
C1548 C1549 1.502 . S
C1548 C1550 1.561 . S
C1548 C1551 1.526 . S
C1549 H1533 0.959 . S
C1549 H1534 0.959 . S
C1549 H1535 0.961 . S
C1549 C1548 1.502 . S
C1550 H1536 0.960 . S
C1550 H1537 0.961 . S
C1550 H1538 0.959 . S
C1550 C1548 1.561 . S
C1551 C1548 1.526 . S
C1551 C1552 1.396 . S
C1551 C1556 1.390 . S
C1552 C1546 1.465 . S
C1552 C1551 1.396 . S
C1552 C1553 1.399 . S
C1553 H1539 0.929 . S
C1553 C1552 1.399 . S
C1553 C1554 1.385 . S
C1554 H1540 0.931 . S
C1554 C1553 1.385 . S
C1554 C1555 1.389 . S
C1555 C1554 1.389 . S
C1555 C1556 1.387 . S
C1556 H1541 0.930 . S
C1556 C1551 1.390 . S
C1556 C1555 1.387 . S
H1557 C1569 0.930 . S
H1558 C1571 0.930 . S
H1559 C1572 0.930 . S
H1560 C1576 0.959 . S
H1561 C1576 0.959 . S
H1562 C1576 0.961 . S
H1563 C1577 0.960 . S
H1564 C1577 0.961 . S
H1565 C1577 0.959 . S
H1566 C1580 0.929 . S
H1567 C1581 0.931 . S
H1568 C1583 0.930 . S
C1569 H1557 0.930 . S
C1569 C1570 1.399 . S
C1569 C1574 1.399 . S
C1570 C1569 1.399 . S
C1570 C1571 1.376 . S
C1571 H1558 0.930 . S
C1571 C1570 1.376 . S
C1571 C1572 1.388 . S
C1572 H1559 0.930 . S
C1572 C1571 1.388 . S
C1572 C1573 1.390 . S
C1573 C1572 1.390 . S
C1573 C1574 1.394 . S
C1573 C1579 1.465 . S
C1574 C1569 1.399 . S
C1574 C1573 1.394 . S
C1574 C1575 1.516 . S
C1575 C1574 1.516 . S
C1575 C1576 1.502 . S
C1575 C1577 1.561 . S
C1575 C1578 1.526 . S
C1576 H1560 0.959 . S
C1576 H1561 0.959 . S
C1576 H1562 0.961 . S
C1576 C1575 1.502 . S
C1577 H1563 0.960 . S
C1577 H1564 0.961 . S
C1577 H1565 0.959 . S
C1577 C1575 1.561 . S
C1578 C1575 1.526 . S
C1578 C1579 1.396 . S
C1578 C1583 1.390 . S
C1579 C1573 1.465 . S
C1579 C1578 1.396 . S
C1579 C1580 1.399 . S
C1580 H1566 0.929 . S
C1580 C1579 1.399 . S
C1580 C1581 1.385 . S
C1581 H1567 0.931 . S
C1581 C1580 1.385 . S
C1581 C1582 1.389 . S
C1582 C1581 1.389 . S
C1582 C1583 1.387 . S
C1583 H1568 0.930 . S
C1583 C1578 1.390 . S
C1583 C1582 1.387 . S
H1584 C1596 0.930 . S
H1585 C1598 0.930 . S
H1586 C1599 0.930 . S
H1587 C1603 0.959 . S
H1588 C1603 0.959 . S
H1589 C1603 0.961 . S
H1590 C1604 0.960 . S
H1591 C1604 0.961 . S
H1592 C1604 0.959 . S
H1593 C1607 0.929 . S
H1594 C1608 0.931 . S
H1595 C1610 0.930 . S
C1596 H1584 0.930 . S
C1596 C1597 1.399 . S
C1596 C1601 1.399 . S
C1597 C1596 1.399 . S
C1597 C1598 1.376 . S
C1598 H1585 0.930 . S
C1598 C1597 1.376 . S
C1598 C1599 1.388 . S
C1599 H1586 0.930 . S
C1599 C1598 1.388 . S
C1599 C1600 1.390 . S
C1600 C1599 1.390 . S
C1600 C1601 1.394 . S
C1600 C1606 1.465 . S
C1601 C1596 1.399 . S
C1601 C1600 1.394 . S
C1601 C1602 1.516 . S
C1602 C1601 1.516 . S
C1602 C1603 1.502 . S
C1602 C1604 1.561 . S
C1602 C1605 1.526 . S
C1603 H1587 0.959 . S
C1603 H1588 0.959 . S
C1603 H1589 0.961 . S
C1603 C1602 1.502 . S
C1604 H1590 0.960 . S
C1604 H1591 0.961 . S
C1604 H1592 0.959 . S
C1604 C1602 1.561 . S
C1605 C1602 1.526 . S
C1605 C1606 1.396 . S
C1605 C1610 1.390 . S
C1606 C1600 1.465 . S
C1606 C1605 1.396 . S
C1606 C1607 1.399 . S
C1607 H1593 0.929 . S
C1607 C1606 1.399 . S
C1607 C1608 1.385 . S
C1608 H1594 0.931 . S
C1608 C1607 1.385 . S
C1608 C1609 1.389 . S
C1609 C1608 1.389 . S
C1609 C1610 1.387 . S
C1610 H1595 0.930 . S
C1610 C1605 1.390 . S
C1610 C1609 1.387 . S
H1611 C1623 0.930 . S
H1612 C1625 0.930 . S
H1613 C1626 0.930 . S
H1614 C1630 0.959 . S
H1615 C1630 0.959 . S
H1616 C1630 0.961 . S
H1617 C1631 0.960 . S
H1618 C1631 0.961 1_455 S
H1619 C1631 0.959 . S
H1620 C1634 0.929 . S
H1621 C1635 0.931 . S
H1622 C1637 0.930 . S
C1623 H1611 0.930 . S
C1623 C1624 1.399 . S
C1623 C1628 1.399 . S
C1624 C1623 1.399 . S
C1624 C1625 1.376 . S
C1625 H1612 0.930 . S
C1625 C1624 1.376 . S
C1625 C1626 1.388 . S
C1626 H1613 0.930 . S
C1626 C1625 1.388 . S
C1626 C1627 1.390 . S
C1627 C1626 1.390 . S
C1627 C1628 1.394 . S
C1627 C1633 1.465 1_655 S
C1628 C1623 1.399 . S
C1628 C1627 1.394 . S
C1628 C1629 1.516 1_655 S
C1629 C1628 1.516 1_455 S
C1629 C1630 1.502 . S
C1629 C1631 1.561 1_455 S
C1629 C1632 1.526 . S
C1630 H1614 0.959 . S
C1630 H1615 0.959 . S
C1630 H1616 0.961 . S
C1630 C1629 1.502 . S
C1631 H1617 0.960 . S
C1631 H1618 0.961 1_655 S
C1631 H1619 0.959 . S
C1631 C1629 1.561 1_655 S
C1632 C1629 1.526 . S
C1632 C1633 1.396 . S
C1632 C1637 1.390 . S
C1633 C1627 1.465 1_455 S
C1633 C1632 1.396 . S
C1633 C1634 1.399 . S
C1634 H1620 0.929 . S
C1634 C1633 1.399 . S
C1634 C1635 1.385 . S
C1635 H1621 0.931 . S
C1635 C1634 1.385 . S
C1635 C1636 1.389 . S
C1636 C1635 1.389 . S
C1636 C1637 1.387 . S
C1637 H1622 0.930 . S
C1637 C1632 1.390 . S
C1637 C1636 1.387 . S
H1638 C1650 0.930 . S
H1639 C1652 0.930 . S
H1640 C1653 0.930 . S
H1641 C1657 0.959 . S
H1642 C1657 0.959 . S
H1643 C1657 0.961 . S
H1644 C1658 0.960 . S
H1645 C1658 0.961 . S
H1646 C1658 0.959 . S
H1647 C1661 0.929 . S
H1648 C1662 0.931 . S
H1649 C1664 0.930 . S
C1650 H1638 0.930 . S
C1650 C1651 1.399 . S
C1650 C1655 1.399 . S
C1651 C1650 1.399 . S
C1651 C1652 1.376 . S
C1652 H1639 0.930 . S
C1652 C1651 1.376 . S
C1652 C1653 1.388 . S
C1653 H1640 0.930 . S
C1653 C1652 1.388 . S
C1653 C1654 1.390 . S
C1654 C1653 1.390 . S
C1654 C1655 1.394 . S
C1654 C1660 1.465 . S
C1655 C1650 1.399 . S
C1655 C1654 1.394 . S
C1655 C1656 1.516 . S
C1656 C1655 1.516 . S
C1656 C1657 1.502 . S
C1656 C1658 1.561 . S
C1656 C1659 1.526 . S
C1657 H1641 0.959 . S
C1657 H1642 0.959 . S
C1657 H1643 0.961 . S
C1657 C1656 1.502 . S
C1658 H1644 0.960 . S
C1658 H1645 0.961 . S
C1658 H1646 0.959 . S
C1658 C1656 1.561 . S
C1659 C1656 1.526 . S
C1659 C1660 1.396 . S
C1659 C1664 1.390 . S
C1660 C1654 1.465 . S
C1660 C1659 1.396 . S
C1660 C1661 1.399 . S
C1661 H1647 0.929 . S
C1661 C1660 1.399 . S
C1661 C1662 1.385 . S
C1662 H1648 0.931 . S
C1662 C1661 1.385 . S
C1662 C1663 1.389 . S
C1663 C1662 1.389 . S
C1663 C1664 1.387 . S
C1664 H1649 0.930 . S
C1664 C1659 1.390 . S
C1664 C1663 1.387 . S
H1665 C1677 0.930 . S
H1666 C1679 0.930 . S
H1667 C1680 0.930 . S
H1668 C1684 0.959 . S
H1669 C1684 0.959 . S
H1670 C1684 0.961 . S
H1671 C1685 0.960 . S
H1672 C1685 0.961 . S
H1673 C1685 0.959 . S
H1674 C1688 0.929 . S
H1675 C1689 0.931 . S
H1676 C1691 0.930 . S
C1677 H1665 0.930 . S
C1677 C1678 1.399 . S
C1677 C1682 1.399 1_565 S
C1678 C1677 1.399 . S
C1678 C1679 1.376 . S
C1679 H1666 0.930 . S
C1679 C1678 1.376 . S
C1679 C1680 1.388 . S
C1680 H1667 0.930 . S
C1680 C1679 1.388 . S
C1680 C1681 1.390 . S
C1681 C1680 1.390 . S
C1681 C1682 1.394 1_565 S
C1681 C1687 1.465 1_565 S
C1682 C1677 1.399 1_545 S
C1682 C1681 1.394 1_545 S
C1682 C1683 1.516 . S
C1683 C1682 1.516 . S
C1683 C1684 1.502 . S
C1683 C1685 1.561 . S
C1683 C1686 1.526 . S
C1684 H1668 0.959 . S
C1684 H1669 0.959 . S
C1684 H1670 0.961 . S
C1684 C1683 1.502 . S
C1685 H1671 0.960 . S
C1685 H1672 0.961 . S
C1685 H1673 0.959 . S
C1685 C1683 1.561 . S
C1686 C1683 1.526 . S
C1686 C1687 1.396 . S
C1686 C1691 1.390 . S
C1687 C1681 1.465 1_545 S
C1687 C1686 1.396 . S
C1687 C1688 1.399 . S
C1688 H1674 0.929 . S
C1688 C1687 1.399 . S
C1688 C1689 1.385 . S
C1689 H1675 0.931 . S
C1689 C1688 1.385 . S
C1689 C1690 1.389 . S
C1690 C1689 1.389 . S
C1690 C1691 1.387 . S
C1691 H1676 0.930 . S
C1691 C1686 1.390 . S
C1691 C1690 1.387 . S
H1692 C1704 0.930 . S
H1693 C1706 0.930 . S
H1694 C1707 0.930 . S
H1695 C1711 0.959 . S
H1696 C1711 0.959 . S
H1697 C1711 0.961 . S
H1698 C1712 0.960 . S
H1699 C1712 0.961 . S
H1700 C1712 0.959 . S
H1701 C1715 0.929 . S
H1702 C1716 0.931 . S
H1703 C1718 0.930 . S
C1704 H1692 0.930 . S
C1704 C1705 1.399 . S
C1704 C1709 1.399 . S
C1705 C1704 1.399 . S
C1705 C1706 1.376 . S
C1706 H1693 0.930 . S
C1706 C1705 1.376 . S
C1706 C1707 1.388 . S
C1707 H1694 0.930 . S
C1707 C1706 1.388 . S
C1707 C1708 1.390 . S
C1708 C1707 1.390 . S
C1708 C1709 1.394 . S
C1708 C1714 1.465 . S
C1709 C1704 1.399 . S
C1709 C1708 1.394 . S
C1709 C1710 1.516 . S
C1710 C1709 1.516 . S
C1710 C1711 1.502 . S
C1710 C1712 1.561 . S
C1710 C1713 1.526 . S
C1711 H1695 0.959 . S
C1711 H1696 0.959 . S
C1711 H1697 0.961 . S
C1711 C1710 1.502 . S
C1712 H1698 0.960 . S
C1712 H1699 0.961 . S
C1712 H1700 0.959 . S
C1712 C1710 1.561 . S
C1713 C1710 1.526 . S
C1713 C1714 1.396 . S
C1713 C1718 1.390 . S
C1714 C1708 1.465 . S
C1714 C1713 1.396 . S
C1714 C1715 1.399 . S
C1715 H1701 0.929 . S
C1715 C1714 1.399 . S
C1715 C1716 1.385 . S
C1716 H1702 0.931 . S
C1716 C1715 1.385 . S
C1716 C1717 1.389 . S
C1717 C1716 1.389 . S
C1717 C1718 1.387 . S
C1718 H1703 0.930 . S
C1718 C1713 1.390 . S
C1718 C1717 1.387 . S
H1719 C1731 0.930 . S
H1720 C1733 0.930 . S
H1721 C1734 0.930 . S
H1722 C1738 0.959 . S
H1723 C1738 0.959 . S
H1724 C1738 0.961 . S
H1725 C1739 0.960 . S
H1726 C1739 0.961 . S
H1727 C1739 0.959 . S
H1728 C1742 0.929 . S
H1729 C1743 0.931 . S
H1730 C1745 0.930 . S
C1731 H1719 0.930 . S
C1731 C1732 1.399 . S
C1731 C1736 1.399 . S
C1732 C1731 1.399 . S
C1732 C1733 1.376 . S
C1733 H1720 0.930 . S
C1733 C1732 1.376 . S
C1733 C1734 1.388 . S
C1734 H1721 0.930 . S
C1734 C1733 1.388 . S
C1734 C1735 1.390 . S
C1735 C1734 1.390 . S
C1735 C1736 1.394 . S
C1735 C1741 1.465 . S
C1736 C1731 1.399 . S
C1736 C1735 1.394 . S
C1736 C1737 1.516 . S
C1737 C1736 1.516 . S
C1737 C1738 1.502 . S
C1737 C1739 1.561 . S
C1737 C1740 1.526 . S
C1738 H1722 0.959 . S
C1738 H1723 0.959 . S
C1738 H1724 0.961 . S
C1738 C1737 1.502 . S
C1739 H1725 0.960 . S
C1739 H1726 0.961 . S
C1739 H1727 0.959 . S
C1739 C1737 1.561 . S
C1740 C1737 1.526 . S
C1740 C1741 1.396 . S
C1740 C1745 1.390 . S
C1741 C1735 1.465 . S
C1741 C1740 1.396 . S
C1741 C1742 1.399 . S
C1742 H1728 0.929 . S
C1742 C1741 1.399 . S
C1742 C1743 1.385 . S
C1743 H1729 0.931 . S
C1743 C1742 1.385 . S
C1743 C1744 1.389 . S
C1744 C1743 1.389 . S
C1744 C1745 1.387 . S
C1745 H1730 0.930 . S
C1745 C1740 1.390 . S
C1745 C1744 1.387 . S
H1746 C1758 0.930 . S
H1747 C1760 0.930 . S
H1748 C1761 0.930 . S
H1749 C1765 0.959 . S
H1750 C1765 0.959 . S
H1751 C1765 0.961 . S
H1752 C1766 0.960 . S
H1753 C1766 0.961 . S
H1754 C1766 0.959 . S
H1755 C1769 0.929 . S
H1756 C1770 0.931 . S
H1757 C1772 0.930 . S
C1758 H1746 0.930 . S
C1758 C1759 1.399 . S
C1758 C1763 1.399 . S
C1759 C1758 1.399 . S
C1759 C1760 1.376 . S
C1760 H1747 0.930 . S
C1760 C1759 1.376 . S
C1760 C1761 1.388 . S
C1761 H1748 0.930 . S
C1761 C1760 1.388 . S
C1761 C1762 1.390 . S
C1762 C1761 1.390 . S
C1762 C1763 1.394 . S
C1762 C1768 1.465 . S
C1763 C1758 1.399 . S
C1763 C1762 1.394 . S
C1763 C1764 1.516 . S
C1764 C1763 1.516 . S
C1764 C1765 1.502 . S
C1764 C1766 1.561 . S
C1764 C1767 1.526 . S
C1765 H1749 0.959 . S
C1765 H1750 0.959 . S
C1765 H1751 0.961 . S
C1765 C1764 1.502 . S
C1766 H1752 0.960 . S
C1766 H1753 0.961 . S
C1766 H1754 0.959 . S
C1766 C1764 1.561 . S
C1767 C1764 1.526 . S
C1767 C1768 1.396 . S
C1767 C1772 1.390 . S
C1768 C1762 1.465 . S
C1768 C1767 1.396 . S
C1768 C1769 1.399 . S
C1769 H1755 0.929 . S
C1769 C1768 1.399 . S
C1769 C1770 1.385 . S
C1770 H1756 0.931 . S
C1770 C1769 1.385 . S
C1770 C1771 1.389 . S
C1771 C1770 1.389 . S
C1771 C1772 1.387 . S
C1772 H1757 0.930 . S
C1772 C1767 1.390 . S
C1772 C1771 1.387 . S
H1773 C1785 0.930 . S
H1774 C1787 0.930 . S
H1775 C1788 0.930 . S
H1776 C1792 0.959 . S
H1777 C1792 0.959 . S
H1778 C1792 0.961 . S
H1779 C1793 0.960 . S
H1780 C1793 0.961 . S
H1781 C1793 0.959 . S
H1782 C1796 0.929 . S
H1783 C1797 0.931 . S
H1784 C1799 0.930 . S
C1785 H1773 0.930 . S
C1785 C1786 1.399 . S
C1785 C1790 1.399 . S
C1786 C1785 1.399 . S
C1786 C1787 1.376 . S
C1787 H1774 0.930 . S
C1787 C1786 1.376 . S
C1787 C1788 1.388 . S
C1788 H1775 0.930 . S
C1788 C1787 1.388 . S
C1788 C1789 1.390 . S
C1789 C1788 1.390 . S
C1789 C1790 1.394 . S
C1789 C1795 1.465 . S
C1790 C1785 1.399 . S
C1790 C1789 1.394 . S
C1790 C1791 1.516 . S
C1791 C1790 1.516 . S
C1791 C1792 1.502 . S
C1791 C1793 1.561 . S
C1791 C1794 1.526 . S
C1792 H1776 0.959 . S
C1792 H1777 0.959 . S
C1792 H1778 0.961 . S
C1792 C1791 1.502 . S
C1793 H1779 0.960 . S
C1793 H1780 0.961 . S
C1793 H1781 0.959 . S
C1793 C1791 1.561 . S
C1794 C1791 1.526 . S
C1794 C1795 1.396 . S
C1794 C1799 1.390 . S
C1795 C1789 1.465 . S
C1795 C1794 1.396 . S
C1795 C1796 1.399 . S
C1796 H1782 0.929 . S
C1796 C1795 1.399 . S
C1796 C1797 1.385 . S
C1797 H1783 0.931 . S
C1797 C1796 1.385 . S
C1797 C1798 1.389 . S
C1798 C1797 1.389 . S
C1798 C1799 1.387 . S
C1799 H1784 0.930 . S
C1799 C1794 1.390 . S
C1799 C1798 1.387 . S
H1800 C1812 0.930 . S
H1801 C1814 0.930 . S
H1802 C1815 0.930 . S
H1803 C1819 0.959 . S
H1804 C1819 0.959 . S
H1805 C1819 0.961 . S
H1806 C1820 0.960 . S
H1807 C1820 0.961 . S
H1808 C1820 0.959 . S
H1809 C1823 0.929 . S
H1810 C1824 0.931 . S
H1811 C1826 0.930 . S
C1812 H1800 0.930 . S
C1812 C1813 1.399 . S
C1812 C1817 1.399 . S
C1813 C1812 1.399 . S
C1813 C1814 1.376 . S
C1814 H1801 0.930 . S
C1814 C1813 1.376 . S
C1814 C1815 1.388 . S
C1815 H1802 0.930 . S
C1815 C1814 1.388 . S
C1815 C1816 1.390 . S
C1816 C1815 1.390 . S
C1816 C1817 1.394 . S
C1816 C1822 1.465 . S
C1817 C1812 1.399 . S
C1817 C1816 1.394 . S
C1817 C1818 1.516 . S
C1818 C1817 1.516 . S
C1818 C1819 1.502 . S
C1818 C1820 1.561 . S
C1818 C1821 1.526 . S
C1819 H1803 0.959 . S
C1819 H1804 0.959 . S
C1819 H1805 0.961 . S
C1819 C1818 1.502 . S
C1820 H1806 0.960 . S
C1820 H1807 0.961 . S
C1820 H1808 0.959 . S
C1820 C1818 1.561 . S
C1821 C1818 1.526 . S
C1821 C1822 1.396 . S
C1821 C1826 1.390 . S
C1822 C1816 1.465 . S
C1822 C1821 1.396 . S
C1822 C1823 1.399 . S
C1823 H1809 0.929 . S
C1823 C1822 1.399 . S
C1823 C1824 1.385 . S
C1824 H1810 0.931 . S
C1824 C1823 1.385 . S
C1824 C1825 1.389 . S
C1825 C1824 1.389 . S
C1825 C1826 1.387 . S
C1826 H1811 0.930 . S
C1826 C1821 1.390 . S
C1826 C1825 1.387 . S
H1827 C1839 0.930 . S
H1828 C1841 0.930 . S
H1829 C1842 0.930 . S
H1830 C1846 0.959 . S
H1831 C1846 0.959 . S
H1832 C1846 0.961 . S
H1833 C1847 0.960 . S
H1834 C1847 0.961 . S
H1835 C1847 0.959 . S
H1836 C1850 0.929 . S
H1837 C1851 0.931 . S
H1838 C1853 0.930 . S
C1839 H1827 0.930 . S
C1839 C1840 1.399 . S
C1839 C1844 1.399 . S
C1840 C1839 1.399 . S
C1840 C1841 1.376 . S
C1841 H1828 0.930 . S
C1841 C1840 1.376 . S
C1841 C1842 1.388 . S
C1842 H1829 0.930 . S
C1842 C1841 1.388 . S
C1842 C1843 1.390 . S
C1843 C1842 1.390 . S
C1843 C1844 1.394 . S
C1843 C1849 1.465 . S
C1844 C1839 1.399 . S
C1844 C1843 1.394 . S
C1844 C1845 1.516 . S
C1845 C1844 1.516 . S
C1845 C1846 1.502 . S
C1845 C1847 1.561 . S
C1845 C1848 1.526 . S
C1846 H1830 0.959 . S
C1846 H1831 0.959 . S
C1846 H1832 0.961 . S
C1846 C1845 1.502 . S
C1847 H1833 0.960 . S
C1847 H1834 0.961 . S
C1847 H1835 0.959 . S
C1847 C1845 1.561 . S
C1848 C1845 1.526 . S
C1848 C1849 1.396 . S
C1848 C1853 1.390 . S
C1849 C1843 1.465 . S
C1849 C1848 1.396 . S
C1849 C1850 1.399 . S
C1850 H1836 0.929 . S
C1850 C1849 1.399 . S
C1850 C1851 1.385 . S
C1851 H1837 0.931 . S
C1851 C1850 1.385 . S
C1851 C1852 1.389 . S
C1852 C1851 1.389 . S
C1852 C1853 1.387 . S
C1853 H1838 0.930 . S
C1853 C1848 1.390 . S
C1853 C1852 1.387 . S
H1854 C1866 0.930 . S
H1855 C1868 0.930 . S
H1856 C1869 0.930 . S
H1857 C1873 0.959 . S
H1858 C1873 0.959 . S
H1859 C1873 0.961 . S
H1860 C1874 0.960 . S
H1861 C1874 0.961 . S
H1862 C1874 0.959 . S
H1863 C1877 0.929 . S
H1864 C1878 0.931 . S
H1865 C1880 0.930 . S
C1866 H1854 0.930 . S
C1866 C1867 1.399 . S
C1866 C1871 1.399 . S
C1867 C1866 1.399 . S
C1867 C1868 1.376 . S
C1868 H1855 0.930 . S
C1868 C1867 1.376 . S
C1868 C1869 1.388 . S
C1869 H1856 0.930 . S
C1869 C1868 1.388 . S
C1869 C1870 1.390 . S
C1870 C1869 1.390 . S
C1870 C1871 1.394 . S
C1870 C1876 1.465 . S
C1871 C1866 1.399 . S
C1871 C1870 1.394 . S
C1871 C1872 1.516 . S
C1872 C1871 1.516 . S
C1872 C1873 1.502 . S
C1872 C1874 1.561 . S
C1872 C1875 1.526 . S
C1873 H1857 0.959 . S
C1873 H1858 0.959 . S
C1873 H1859 0.961 . S
C1873 C1872 1.502 . S
C1874 H1860 0.960 . S
C1874 H1861 0.961 . S
C1874 H1862 0.959 . S
C1874 C1872 1.561 . S
C1875 C1872 1.526 . S
C1875 C1876 1.396 . S
C1875 C1880 1.390 . S
C1876 C1870 1.465 . S
C1876 C1875 1.396 . S
C1876 C1877 1.399 . S
C1877 H1863 0.929 . S
C1877 C1876 1.399 . S
C1877 C1878 1.385 . S
C1878 H1864 0.931 . S
C1878 C1877 1.385 . S
C1878 C1879 1.389 . S
C1879 C1878 1.389 . S
C1879 C1880 1.387 . S
C1880 H1865 0.930 . S
C1880 C1875 1.390 . S
C1880 C1879 1.387 . S
H1881 C1893 0.930 . S
H1882 C1895 0.930 . S
H1883 C1896 0.930 . S
H1884 C1900 0.959 . S
H1885 C1900 0.959 . S
H1886 C1900 0.961 . S
H1887 C1901 0.960 . S
H1888 C1901 0.961 . S
H1889 C1901 0.959 . S
H1890 C1904 0.929 . S
H1891 C1905 0.931 . S
H1892 C1907 0.930 . S
C1893 H1881 0.930 . S
C1893 C1894 1.399 . S
C1893 C1898 1.399 . S
C1894 C1893 1.399 . S
C1894 C1895 1.376 . S
C1895 H1882 0.930 . S
C1895 C1894 1.376 . S
C1895 C1896 1.388 . S
C1896 H1883 0.930 . S
C1896 C1895 1.388 . S
C1896 C1897 1.390 . S
C1897 C1896 1.390 . S
C1897 C1898 1.394 . S
C1897 C1903 1.465 . S
C1898 C1893 1.399 . S
C1898 C1897 1.394 . S
C1898 C1899 1.516 . S
C1899 C1898 1.516 . S
C1899 C1900 1.502 . S
C1899 C1901 1.561 . S
C1899 C1902 1.526 . S
C1900 H1884 0.959 . S
C1900 H1885 0.959 . S
C1900 H1886 0.961 . S
C1900 C1899 1.502 . S
C1901 H1887 0.960 . S
C1901 H1888 0.961 . S
C1901 H1889 0.959 . S
C1901 C1899 1.561 . S
C1902 C1899 1.526 . S
C1902 C1903 1.396 . S
C1902 C1907 1.390 . S
C1903 C1897 1.465 . S
C1903 C1902 1.396 . S
C1903 C1904 1.399 . S
C1904 H1890 0.929 . S
C1904 C1903 1.399 . S
C1904 C1905 1.385 . S
C1905 H1891 0.931 . S
C1905 C1904 1.385 . S
C1905 C1906 1.389 . S
C1906 C1905 1.389 . S
C1906 C1907 1.387 . S
C1907 H1892 0.930 . S
C1907 C1902 1.390 . S
C1907 C1906 1.387 . S
H1908 C1920 0.930 . S
H1909 C1922 0.930 . S
H1910 C1923 0.930 . S
H1911 C1927 0.959 . S
H1912 C1927 0.959 . S
H1913 C1927 0.961 . S
H1914 C1928 0.960 . S
H1915 C1928 0.961 . S
H1916 C1928 0.959 . S
H1917 C1931 0.929 . S
H1918 C1932 0.931 . S
H1919 C1934 0.930 . S
C1920 H1908 0.930 . S
C1920 C1921 1.399 . S
C1920 C1925 1.399 . S
C1921 C1920 1.399 . S
C1921 C1922 1.376 . S
C1922 H1909 0.930 . S
C1922 C1921 1.376 . S
C1922 C1923 1.388 . S
C1923 H1910 0.930 . S
C1923 C1922 1.388 . S
C1923 C1924 1.390 . S
C1924 C1923 1.390 . S
C1924 C1925 1.394 . S
C1924 C1930 1.465 . S
C1925 C1920 1.399 . S
C1925 C1924 1.394 . S
C1925 C1926 1.516 . S
C1926 C1925 1.516 . S
C1926 C1927 1.502 . S
C1926 C1928 1.561 . S
C1926 C1929 1.526 . S
C1927 H1911 0.959 . S
C1927 H1912 0.959 . S
C1927 H1913 0.961 . S
C1927 C1926 1.502 . S
C1928 H1914 0.960 . S
C1928 H1915 0.961 . S
C1928 H1916 0.959 . S
C1928 C1926 1.561 . S
C1929 C1926 1.526 . S
C1929 C1930 1.396 . S
C1929 C1934 1.390 . S
C1930 C1924 1.465 . S
C1930 C1929 1.396 . S
C1930 C1931 1.399 . S
C1931 H1917 0.929 . S
C1931 C1930 1.399 . S
C1931 C1932 1.385 . S
C1932 H1918 0.931 . S
C1932 C1931 1.385 . S
C1932 C1933 1.389 . S
C1933 C1932 1.389 . S
C1933 C1934 1.387 . S
C1934 H1919 0.930 . S
C1934 C1929 1.390 . S
C1934 C1933 1.387 . S
H1935 C1947 0.930 . S
H1936 C1949 0.930 . S
H1937 C1950 0.930 . S
H1938 C1954 0.959 . S
H1939 C1954 0.959 . S
H1940 C1954 0.961 . S
H1941 C1955 0.960 . S
H1942 C1955 0.961 . S
H1943 C1955 0.959 . S
H1944 C1958 0.929 . S
H1945 C1959 0.931 . S
H1946 C1961 0.930 . S
C1947 H1935 0.930 . S
C1947 C1948 1.399 . S
C1947 C1952 1.399 . S
C1948 C1947 1.399 . S
C1948 C1949 1.376 . S
C1949 H1936 0.930 . S
C1949 C1948 1.376 . S
C1949 C1950 1.388 . S
C1950 H1937 0.930 . S
C1950 C1949 1.388 . S
C1950 C1951 1.390 . S
C1951 C1950 1.390 . S
C1951 C1952 1.394 . S
C1951 C1957 1.465 . S
C1952 C1947 1.399 . S
C1952 C1951 1.394 . S
C1952 C1953 1.516 . S
C1953 C1952 1.516 . S
C1953 C1954 1.502 . S
C1953 C1955 1.561 . S
C1953 C1956 1.526 . S
C1954 H1938 0.959 . S
C1954 H1939 0.959 . S
C1954 H1940 0.961 . S
C1954 C1953 1.502 . S
C1955 H1941 0.960 . S
C1955 H1942 0.961 . S
C1955 H1943 0.959 . S
C1955 C1953 1.561 . S
C1956 C1953 1.526 . S
C1956 C1957 1.396 . S
C1956 C1961 1.390 . S
C1957 C1951 1.465 . S
C1957 C1956 1.396 . S
C1957 C1958 1.399 . S
C1958 H1944 0.929 . S
C1958 C1957 1.399 . S
C1958 C1959 1.385 . S
C1959 H1945 0.931 . S
C1959 C1958 1.385 . S
C1959 C1960 1.389 . S
C1960 C1959 1.389 . S
C1960 C1961 1.387 . S
C1961 H1946 0.930 . S
C1961 C1956 1.390 . S
C1961 C1960 1.387 . S
H1962 C1974 0.930 . S
H1963 C1976 0.930 . S
H1964 C1977 0.930 . S
H1965 C1981 0.959 . S
H1966 C1981 0.959 . S
H1967 C1981 0.961 . S
H1968 C1982 0.960 . S
H1969 C1982 0.961 . S
H1970 C1982 0.959 . S
H1971 C1985 0.929 . S
H1972 C1986 0.931 . S
H1973 C1988 0.930 . S
C1974 H1962 0.930 . S
C1974 C1975 1.399 . S
C1974 C1979 1.399 1_565 S
C1975 C1974 1.399 . S
C1975 C1976 1.376 . S
C1976 H1963 0.930 . S
C1976 C1975 1.376 . S
C1976 C1977 1.388 1_565 S
C1977 H1964 0.930 . S
C1977 C1976 1.388 1_545 S
C1977 C1978 1.390 . S
C1978 C1977 1.390 . S
C1978 C1979 1.394 . S
C1978 C1984 1.465 . S
C1979 C1974 1.399 1_545 S
C1979 C1978 1.394 . S
C1979 C1980 1.516 . S
C1980 C1979 1.516 . S
C1980 C1981 1.502 . S
C1980 C1982 1.561 . S
C1980 C1983 1.526 . S
C1981 H1965 0.959 . S
C1981 H1966 0.959 . S
C1981 H1967 0.961 . S
C1981 C1980 1.502 . S
C1982 H1968 0.960 . S
C1982 H1969 0.961 . S
C1982 H1970 0.959 . S
C1982 C1980 1.561 . S
C1983 C1980 1.526 . S
C1983 C1984 1.396 . S
C1983 C1988 1.390 . S
C1984 C1978 1.465 . S
C1984 C1983 1.396 . S
C1984 C1985 1.399 . S
C1985 H1971 0.929 . S
C1985 C1984 1.399 . S
C1985 C1986 1.385 . S
C1986 H1972 0.931 . S
C1986 C1985 1.385 . S
C1986 C1987 1.389 . S
C1987 C1986 1.389 . S
C1987 C1988 1.387 . S
C1988 H1973 0.930 . S
C1988 C1983 1.390 . S
C1988 C1987 1.387 . S
H1989 C2001 0.930 . S
H1990 C2003 0.930 . S
H1991 C2004 0.930 . S
H1992 C2008 0.959 . S
H1993 C2008 0.959 . S
H1994 C2008 0.961 . S
H1995 C2009 0.960 . S
H1996 C2009 0.961 1_455 S
H1997 C2009 0.959 . S
H1998 C2012 0.929 1_655 S
H1999 C2013 0.931 . S
H2000 C2015 0.930 . S
C2001 H1989 0.930 . S
C2001 C2002 1.399 . S
C2001 C2006 1.399 . S
C2002 C2001 1.399 . S
C2002 C2003 1.376 . S
C2003 H1990 0.930 . S
C2003 C2002 1.376 . S
C2003 C2004 1.388 . S
C2004 H1991 0.930 . S
C2004 C2003 1.388 . S
C2004 C2005 1.390 . S
C2005 C2004 1.390 . S
C2005 C2006 1.394 . S
C2005 C2011 1.465 . S
C2006 C2001 1.399 . S
C2006 C2005 1.394 . S
C2006 C2007 1.516 1_655 S
C2007 C2006 1.516 1_455 S
C2007 C2008 1.502 . S
C2007 C2009 1.561 1_455 S
C2007 C2010 1.526 . S
C2008 H1992 0.959 . S
C2008 H1993 0.959 . S
C2008 H1994 0.961 . S
C2008 C2007 1.502 . S
C2009 H1995 0.960 . S
C2009 H1996 0.961 1_655 S
C2009 H1997 0.959 . S
C2009 C2007 1.561 1_655 S
C2010 C2007 1.526 . S
C2010 C2011 1.396 1_455 S
C2010 C2015 1.390 . S
C2011 C2005 1.465 . S
C2011 C2010 1.396 1_655 S
C2011 C2012 1.399 1_655 S
C2012 H1998 0.929 1_455 S
C2012 C2011 1.399 1_455 S
C2012 C2013 1.385 . S
C2013 H1999 0.931 . S
C2013 C2012 1.385 . S
C2013 C2014 1.389 . S
C2014 C2013 1.389 . S
C2014 C2015 1.387 . S
C2015 H2000 0.930 . S
C2015 C2010 1.390 . S
C2015 C2014 1.387 . S
H2016 C2028 0.930 . S
H2017 C2030 0.930 . S
H2018 C2031 0.930 . S
H2019 C2035 0.959 . S
H2020 C2035 0.959 . S
H2021 C2035 0.961 . S
H2022 C2036 0.960 . S
H2023 C2036 0.961 . S
H2024 C2036 0.959 . S
H2025 C2039 0.929 . S
H2026 C2040 0.931 . S
H2027 C2042 0.930 . S
C2028 H2016 0.930 . S
C2028 C2029 1.399 . S
C2028 C2033 1.399 . S
C2029 C2028 1.399 . S
C2029 C2030 1.376 . S
C2030 H2017 0.930 . S
C2030 C2029 1.376 . S
C2030 C2031 1.388 . S
C2031 H2018 0.930 . S
C2031 C2030 1.388 . S
C2031 C2032 1.390 . S
C2032 C2031 1.390 . S
C2032 C2033 1.394 . S
C2032 C2038 1.465 . S
C2033 C2028 1.399 . S
C2033 C2032 1.394 . S
C2033 C2034 1.516 . S
C2034 C2033 1.516 . S
C2034 C2035 1.502 . S
C2034 C2036 1.561 . S
C2034 C2037 1.526 . S
C2035 H2019 0.959 . S
C2035 H2020 0.959 . S
C2035 H2021 0.961 . S
C2035 C2034 1.502 . S
C2036 H2022 0.960 . S
C2036 H2023 0.961 . S
C2036 H2024 0.959 . S
C2036 C2034 1.561 . S
C2037 C2034 1.526 . S
C2037 C2038 1.396 . S
C2037 C2042 1.390 . S
C2038 C2032 1.465 . S
C2038 C2037 1.396 . S
C2038 C2039 1.399 . S
C2039 H2025 0.929 . S
C2039 C2038 1.399 . S
C2039 C2040 1.385 . S
C2040 H2026 0.931 . S
C2040 C2039 1.385 . S
C2040 C2041 1.389 . S
C2041 C2040 1.389 . S
C2041 C2042 1.387 . S
C2042 H2027 0.930 . S
C2042 C2037 1.390 . S
C2042 C2041 1.387 . S
H2043 C2055 0.930 . S
H2044 C2057 0.930 . S
H2045 C2058 0.930 . S
H2046 C2062 0.959 . S
H2047 C2062 0.959 . S
H2048 C2062 0.961 1_545 S
H2049 C2063 0.960 . S
H2050 C2063 0.961 . S
H2051 C2063 0.959 . S
H2052 C2066 0.929 . S
H2053 C2067 0.931 . S
H2054 C2069 0.930 . S
C2055 H2043 0.930 . S
C2055 C2056 1.399 . S
C2055 C2060 1.399 . S
C2056 C2055 1.399 . S
C2056 C2057 1.376 . S
C2057 H2044 0.930 . S
C2057 C2056 1.376 . S
C2057 C2058 1.388 . S
C2058 H2045 0.930 . S
C2058 C2057 1.388 . S
C2058 C2059 1.390 . S
C2059 C2058 1.390 . S
C2059 C2060 1.394 . S
C2059 C2065 1.465 1_545 S
C2060 C2055 1.399 . S
C2060 C2059 1.394 . S
C2060 C2061 1.516 . S
C2061 C2060 1.516 . S
C2061 C2062 1.502 1_545 S
C2061 C2063 1.561 . S
C2061 C2064 1.526 1_545 S
C2062 H2046 0.959 . S
C2062 H2047 0.959 . S
C2062 H2048 0.961 1_565 S
C2062 C2061 1.502 1_565 S
C2063 H2049 0.960 . S
C2063 H2050 0.961 . S
C2063 H2051 0.959 . S
C2063 C2061 1.561 . S
C2064 C2061 1.526 1_565 S
C2064 C2065 1.396 . S
C2064 C2069 1.390 . S
C2065 C2059 1.465 1_565 S
C2065 C2064 1.396 . S
C2065 C2066 1.399 . S
C2066 H2052 0.929 . S
C2066 C2065 1.399 . S
C2066 C2067 1.385 . S
C2067 H2053 0.931 . S
C2067 C2066 1.385 . S
C2067 C2068 1.389 . S
C2068 C2067 1.389 . S
C2068 C2069 1.387 . S
C2069 H2054 0.930 . S
C2069 C2064 1.390 . S
C2069 C2068 1.387 . S
H2070 C2082 0.930 . S
H2071 C2084 0.930 . S
H2072 C2085 0.930 . S
H2073 C2089 0.959 . S
H2074 C2089 0.959 1_655 S
H2075 C2089 0.961 . S
H2076 C2090 0.960 1_455 S
H2077 C2090 0.961 . S
H2078 C2090 0.959 . S
H2079 C2093 0.929 . S
H2080 C2094 0.915 1_655 S
H2081 C2096 0.930 . S
C2082 H2070 0.930 . S
C2082 C2083 1.399 . S
C2082 C2087 1.399 . S
C2083 C2082 1.399 . S
C2083 C2084 1.376 . S
C2084 H2071 0.930 . S
C2084 C2083 1.376 . S
C2084 C2085 1.388 . S
C2085 H2072 0.930 . S
C2085 C2084 1.388 . S
C2085 C2086 1.390 . S
C2086 C2085 1.390 . S
C2086 C2087 1.394 . S
C2086 C2092 1.465 . S
C2087 C2082 1.399 . S
C2087 C2086 1.394 . S
C2087 C2088 1.516 . S
C2088 C2087 1.516 . S
C2088 C2089 1.502 . S
C2088 C2090 1.561 1_455 S
C2088 C2091 1.526 . S
C2089 H2073 0.959 . S
C2089 H2074 0.959 1_455 S
C2089 H2075 0.961 . S
C2089 C2088 1.502 . S
C2090 H2076 0.960 1_655 S
C2090 H2077 0.961 . S
C2090 H2078 0.959 . S
C2090 C2088 1.561 1_655 S
C2091 C2088 1.526 . S
C2091 C2092 1.396 . S
C2091 C2096 1.390 1_455 S
C2092 C2086 1.465 . S
C2092 C2091 1.396 . S
C2092 C2093 1.399 . S
C2093 H2079 0.929 . S
C2093 C2092 1.399 . S
C2093 C2094 1.385 . S
C2094 H2080 0.915 1_455 S
C2094 C2093 1.385 . S
C2094 C2095 1.389 1_455 S
C2095 C2094 1.389 1_655 S
C2095 C2096 1.387 . S
C2096 H2081 0.930 . S
C2096 C2091 1.390 1_655 S
C2096 C2095 1.387 . S
H2097 C2109 0.930 . S
H2098 C2111 0.930 . S
H2099 C2112 0.930 . S
H2100 C2116 0.959 . S
H2101 C2116 0.959 . S
H2102 C2116 0.961 . S
H2103 C2117 0.960 . S
H2104 C2117 0.961 . S
H2105 C2117 0.959 . S
H2106 C2120 0.929 . S
H2107 C2121 0.931 . S
H2108 C2123 0.930 . S
C2109 H2097 0.930 . S
C2109 C2110 1.399 . S
C2109 C2114 1.399 . S
C2110 C2109 1.399 . S
C2110 C2111 1.376 . S
C2111 H2098 0.930 . S
C2111 C2110 1.376 . S
C2111 C2112 1.388 . S
C2112 H2099 0.930 . S
C2112 C2111 1.388 . S
C2112 C2113 1.390 . S
C2113 C2112 1.390 . S
C2113 C2114 1.394 . S
C2113 C2119 1.465 . S
C2114 C2109 1.399 . S
C2114 C2113 1.394 . S
C2114 C2115 1.516 . S
C2115 C2114 1.516 . S
C2115 C2116 1.502 . S
C2115 C2117 1.561 . S
C2115 C2118 1.526 . S
C2116 H2100 0.959 . S
C2116 H2101 0.959 . S
C2116 H2102 0.961 . S
C2116 C2115 1.502 . S
C2117 H2103 0.960 . S
C2117 H2104 0.961 . S
C2117 H2105 0.959 . S
C2117 C2115 1.561 . S
C2118 C2115 1.526 . S
C2118 C2119 1.396 . S
C2118 C2123 1.390 . S
C2119 C2113 1.465 . S
C2119 C2118 1.396 . S
C2119 C2120 1.399 . S
C2120 H2106 0.929 . S
C2120 C2119 1.399 . S
C2120 C2121 1.385 . S
C2121 H2107 0.931 . S
C2121 C2120 1.385 . S
C2121 C2122 1.389 . S
C2122 C2121 1.389 . S
C2122 C2123 1.387 . S
C2123 H2108 0.930 . S
C2123 C2118 1.390 . S
C2123 C2122 1.387 . S
H2124 C2136 0.930 . S
H2125 C2138 0.930 . S
H2126 C2139 0.930 . S
H2127 C2143 0.959 . S
H2128 C2143 0.959 . S
H2129 C2143 0.961 . S
H2130 C2144 0.960 . S
H2131 C2144 0.961 . S
H2132 C2144 0.959 . S
H2133 C2147 0.929 . S
H2134 C2148 0.931 . S
H2135 C2150 0.930 . S
C2136 H2124 0.930 . S
C2136 C2137 1.399 . S
C2136 C2141 1.399 . S
C2137 C2136 1.399 . S
C2137 C2138 1.376 . S
C2138 H2125 0.930 . S
C2138 C2137 1.376 . S
C2138 C2139 1.388 . S
C2139 H2126 0.930 . S
C2139 C2138 1.388 . S
C2139 C2140 1.390 . S
C2140 C2139 1.390 . S
C2140 C2141 1.394 . S
C2140 C2146 1.465 . S
C2141 C2136 1.399 . S
C2141 C2140 1.394 . S
C2141 C2142 1.516 . S
C2142 C2141 1.516 . S
C2142 C2143 1.502 . S
C2142 C2144 1.561 . S
C2142 C2145 1.526 . S
C2143 H2127 0.959 . S
C2143 H2128 0.959 . S
C2143 H2129 0.961 . S
C2143 C2142 1.502 . S
C2144 H2130 0.960 . S
C2144 H2131 0.961 . S
C2144 H2132 0.959 . S
C2144 C2142 1.561 . S
C2145 C2142 1.526 . S
C2145 C2146 1.396 . S
C2145 C2150 1.390 . S
C2146 C2140 1.465 . S
C2146 C2145 1.396 . S
C2146 C2147 1.399 . S
C2147 H2133 0.929 . S
C2147 C2146 1.399 . S
C2147 C2148 1.385 . S
C2148 H2134 0.931 . S
C2148 C2147 1.385 . S
C2148 C2149 1.389 . S
C2149 C2148 1.389 . S
C2149 C2150 1.387 . S
C2150 H2135 0.930 . S
C2150 C2145 1.390 . S
C2150 C2149 1.387 . S
H2151 C2163 0.930 . S
H2152 C2165 0.930 . S
H2153 C2166 0.930 . S
H2154 C2170 0.959 . S
H2155 C2170 0.959 . S
H2156 C2170 0.961 . S
H2157 C2171 0.960 . S
H2158 C2171 0.961 . S
H2159 C2171 0.959 . S
H2160 C2174 0.929 . S
H2161 C2175 0.931 . S
H2162 C2177 0.930 . S
C2163 H2151 0.930 . S
C2163 C2164 1.399 . S
C2163 C2168 1.399 . S
C2164 C2163 1.399 . S
C2164 C2165 1.376 . S
C2165 H2152 0.930 . S
C2165 C2164 1.376 . S
C2165 C2166 1.388 . S
C2166 H2153 0.930 . S
C2166 C2165 1.388 . S
C2166 C2167 1.390 . S
C2167 C2166 1.390 . S
C2167 C2168 1.394 . S
C2167 C2173 1.465 . S
C2168 C2163 1.399 . S
C2168 C2167 1.394 . S
C2168 C2169 1.516 . S
C2169 C2168 1.516 . S
C2169 C2170 1.502 . S
C2169 C2171 1.561 . S
C2169 C2172 1.526 . S
C2170 H2154 0.959 . S
C2170 H2155 0.959 . S
C2170 H2156 0.961 . S
C2170 C2169 1.502 . S
C2171 H2157 0.960 . S
C2171 H2158 0.961 . S
C2171 H2159 0.959 . S
C2171 C2169 1.561 . S
C2172 C2169 1.526 . S
C2172 C2173 1.396 . S
C2172 C2177 1.390 . S
C2173 C2167 1.465 . S
C2173 C2172 1.396 . S
C2173 C2174 1.399 . S
C2174 H2160 0.929 . S
C2174 C2173 1.399 . S
C2174 C2175 1.385 . S
C2175 H2161 0.931 . S
C2175 C2174 1.385 . S
C2175 C2176 1.389 . S
C2176 C2175 1.389 . S
C2176 C2177 1.387 . S
C2177 H2162 0.930 . S
C2177 C2172 1.390 . S
C2177 C2176 1.387 . S
C733 C20 1.044 . S
C745 C84 1.075 . S
C760 C4 1.089 . S
C772 C60 1.012 . S
C787 C44 1.069 . S
C799 C100 1.030 . S
C814 C140 1.025 . S
C826 C164 1.073 . S
C841 C204 1.019 . S
C853 C180 1.096 . S
C868 C220 1.042 . S
C880 C124 1.076 . S
C895 C324 1.017 . S
C907 C260 1.094 . S
C922 C244 1.017 . S
C934 C300 1.096 . S
C949 C340 1.082 . S
C961 C284 1.041 . S
C976 C404 1.095 . S
C988 C380 1.009 . S
C1003 C420 1.059 . S
C1015 C444 1.042 . S
C1030 C364 1.058 . S
C1042 C460 1.064 . S
C1057 C500 1.025 . S
C1069 C564 1.074 . S
C1084 C484 1.097 . S
C1096 C540 1.009 . S
C1111 C524 1.094 . S
C1123 C580 1.018 . S
C1138 C644 1.097 . S
C1150 C620 1.009 . S
C1165 C684 1.088 . S
C1177 C660 1.013 . S
C1192 C604 1.096 . S
C1204 C700 1.012 . S
C1219 C2 1.723 . S
C1231 C202 1.673 . S
C1246 C122 1.741 . S
C1258 C42 1.698 . S
C1273 C162 1.739 . S
C1285 C82 1.731 . S
C1300 C242 1.700 . S
C1312 C442 1.661 . S
C1327 C282 1.739 . S
C1339 C362 1.730 . S
C1354 C402 1.663 . S
C1366 C322 1.673 . S
C1381 C482 1.703 . S
C1393 C682 1.662 . S
C1408 C602 1.665 . S
C1420 C522 1.713 . S
C1435 C642 1.666 . S
C1447 C562 1.670 . S
C1462 C423 2.269 . S
C1474 C23 2.261 1_565 S
C1489 C63 2.280 . S
C1501 C463 2.272 . S
C1516 C383 2.285 . S
C1528 C103 2.261 . S
C1543 C143 2.284 1_655 S
C1555 C583 2.261 . S
C1570 C183 2.270 . S
C1582 C503 2.261 . S
C1597 C543 2.284 . S
C1609 C223 2.258 . S
C1624 C663 2.270 . S
C1636 C263 2.261 . S
C1651 C303 2.275 . S
C1663 C703 2.277 . S
C1678 C343 2.284 . S
C1690 C623 2.257 . S
C1705 C105 1.741 . S
C1717 C31 1.696 . S
C1732 C25 1.703 . S
C1744 C71 1.737 . S
C1759 C111 1.695 . S
C1771 C65 1.740 . S
C1786 C185 1.741 . S
C1798 C151 1.696 . S
C1813 C225 1.703 . S
C1825 C191 1.738 . S
C1840 C231 1.705 . S
C1852 C145 1.735 . S
C1867 C345 1.741 . S
C1879 C271 1.696 . S
C1894 C311 1.731 . S
C1906 C265 1.707 . S
C1921 C305 1.740 . S
C1933 C351 1.700 . S
C1948 C391 1.715 . S
C1960 C425 1.721 1_655 S
C1975 C431 1.702 . S
C1987 C465 1.738 . S
C2002 C385 1.703 . S
C2014 C471 1.738 . S
C2029 C511 1.711 . S
C2041 C585 1.731 1_565 S
C2056 C551 1.734 . S
C2068 C505 1.705 . S
C2083 C545 1.731 . S
C2095 C591 1.712 . S
C2110 C631 1.720 . S
C2122 C665 1.724 . S
C2137 C671 1.717 . S
C2149 C705 1.719 . S
C2164 C625 1.706 . S
C2176 C711 1.732 . S
