# Generated by pormake.
# Topology snw, (6)-cn, num edge types: 1
# Building blocks:
#     Node 0, Type 0, BuildingBlock: MIDCAF_clean_sbu_0, # of connection points: 6
#     Node 1, Type 0, BuildingBlock: MIDCAF_clean_sbu_0, # of connection points: 6
#     Node 2, Type 0, BuildingBlock: MIDCAF_clean_sbu_0, # of connection points: 6
#     Node 3, Type 0, BuildingBlock: MIDCAF_clean_sbu_0, # of connection points: 6
#     Node 4, Type 0, BuildingBlock: MIDCAF_clean_sbu_0, # of connection points: 6
#     Node 5, Type 0, BuildingBlock: MIDCAF_clean_sbu_0, # of connection points: 6
#     Node 6, Type 0, BuildingBlock: MIDCAF_clean_sbu_0, # of connection points: 6
#     Node 7, Type 0, BuildingBlock: MIDCAF_clean_sbu_0, # of connection points: 6
#     Edge 8, Type (0, 0), BuildingBlock: MIFKUJ_clean_linker_0, # of connection points: 2
#     Edge 9, Type (0, 0), BuildingBlock: MIFKUJ_clean_linker_0, # of connection points: 2
#     Edge 10, Type (0, 0), BuildingBlock: MIFKUJ_clean_linker_0, # of connection points: 2
#     Edge 11, Type (0, 0), BuildingBlock: MIFKUJ_clean_linker_0, # of connection points: 2
#     Edge 12, Type (0, 0), BuildingBlock: MIFKUJ_clean_linker_0, # of connection points: 2
#     Edge 13, Type (0, 0), BuildingBlock: MIFKUJ_clean_linker_0, # of connection points: 2
#     Edge 14, Type (0, 0), BuildingBlock: MIFKUJ_clean_linker_0, # of connection points: 2
#     Edge 15, Type (0, 0), BuildingBlock: MIFKUJ_clean_linker_0, # of connection points: 2
#     Edge 16, Type (0, 0), BuildingBlock: MIFKUJ_clean_linker_0, # of connection points: 2
#     Edge 17, Type (0, 0), BuildingBlock: MIFKUJ_clean_linker_0, # of connection points: 2
#     Edge 18, Type (0, 0), BuildingBlock: MIFKUJ_clean_linker_0, # of connection points: 2
#     Edge 19, Type (0, 0), BuildingBlock: MIFKUJ_clean_linker_0, # of connection points: 2
#     Edge 20, Type (0, 0), BuildingBlock: MIFKUJ_clean_linker_0, # of connection points: 2
#     Edge 21, Type (0, 0), BuildingBlock: MIFKUJ_clean_linker_0, # of connection points: 2
#     Edge 22, Type (0, 0), BuildingBlock: MIFKUJ_clean_linker_0, # of connection points: 2
#     Edge 23, Type (0, 0), BuildingBlock: MIFKUJ_clean_linker_0, # of connection points: 2
#     Edge 24, Type (0, 0), BuildingBlock: MIFKUJ_clean_linker_0, # of connection points: 2
#     Edge 25, Type (0, 0), BuildingBlock: MIFKUJ_clean_linker_0, # of connection points: 2
#     Edge 26, Type (0, 0), BuildingBlock: MIFKUJ_clean_linker_0, # of connection points: 2
#     Edge 27, Type (0, 0), BuildingBlock: MIFKUJ_clean_linker_0, # of connection points: 2
#     Edge 28, Type (0, 0), BuildingBlock: MIFKUJ_clean_linker_0, # of connection points: 2
#     Edge 29, Type (0, 0), BuildingBlock: MIFKUJ_clean_linker_0, # of connection points: 2
#     Edge 30, Type (0, 0), BuildingBlock: MIFKUJ_clean_linker_0, # of connection points: 2
#     Edge 31, Type (0, 0), BuildingBlock: MIFKUJ_clean_linker_0, # of connection points: 2
# Relax obj value: 0.252
# Max RMSD: 0.249
# Mean RMSD: 0.249
data_MOF--net-snw--node1-MIDCAF_clean_sbu_0--edge1-MIFKUJ_clean_linker_0
_symmetry_space_group_name_H-M    P1
_symmetry_Int_Tables_number       1
_symmetry_cell_setting            triclinic
loop_
_symmetry_equiv_pos_as_xyz
'x, y, z'
_cell_length_a     24.32665
_cell_length_b     24.330072
_cell_length_c     98.521771
_cell_angle_alpha  90.034916
_cell_angle_beta   90.003483
_cell_angle_gamma 89.957434
loop_
_atom_site_label
_atom_site_type_symbol
_atom_site_fract_x
_atom_site_fract_y
_atom_site_fract_z
_atom_type_partial_charge
Zn0 Zn 0.0093 0.3491 0.07157 0.0
Zn1 Zn 0.01596 0.14519 0.08751 0.0
Zn2 Zn 0.01146 0.2448 0.07789 0.0
C3 C 0.9175 0.18702 0.09652 0.0
C4 C 0.11065 0.19175 0.09654 0.0
O5 O 0.00615 0.24645 0.05534 0.0
O6 O 0.99726 0.3361 0.05209 0.0
C7 C 0.91989 0.33452 0.08801 0.0
O8 O 0.93832 0.22999 0.09088 0.0
O9 O 0.9424 0.14158 0.09604 0.0
O10 O 0.08212 0.14972 0.09906 0.0
O11 O 0.09154 0.22989 0.08874 0.0
O12 O 0.94633 0.37339 0.08264 0.0
O13 O 0.93747 0.28465 0.08701 0.0
O14 O 0.08767 0.28567 0.085 0.0
O15 O 0.08359 0.37108 0.07733 0.0
C16 C 0.10898 0.3339 0.08367 0.0
O17 O 0.00659 0.19097 0.05997 0.0
O18 O 0.02427 0.11037 0.06947 0.0
C19 C 0.99943 0.28791 0.04739 0.0
C20 C 0.0149 0.13882 0.05902 0.0
Zn21 Zn 0.08691 0.77446 0.32861 0.0
Zn22 Zn 0.87404 0.77089 0.32824 0.0
Zn23 Zn 0.98104 0.77136 0.32612 0.0
C24 C 0.90532 0.86411 0.34144 0.0
C25 C 0.90581 0.67233 0.33867 0.0
O26 O 0.01131 0.76523 0.30496 0.0
O27 O 0.09933 0.752 0.30961 0.0
C28 C 0.05459 0.8735 0.33776 0.0
O29 O 0.95106 0.848 0.33613 0.0
O30 O 0.86333 0.83378 0.34084 0.0
O31 O 0.86188 0.69481 0.33474 0.0
O32 O 0.95242 0.69643 0.33687 0.0
O33 O 0.09896 0.85219 0.33375 0.0
O34 O 0.0087 0.84777 0.33626 0.0
O35 O 0.00984 0.69812 0.33752 0.0
O36 O 0.09641 0.71674 0.34262 0.0
C37 C 0.05522 0.68546 0.34352 0.0
O38 O 0.95332 0.77187 0.30482 0.0
O39 O 0.86462 0.78576 0.30868 0.0
C40 C 0.0606 0.75382 0.30109 0.0
C41 C 0.90431 0.78143 0.3005 0.0
Zn42 Zn 0.53156 0.62388 0.57349 0.0
Zn43 Zn 0.51108 0.8339 0.58418 0.0
Zn44 Zn 0.51752 0.73013 0.57665 0.0
C45 C 0.61157 0.80126 0.59328 0.0
C46 C 0.41873 0.78538 0.59453 0.0
O47 O 0.51861 0.71784 0.55431 0.0
O48 O 0.53645 0.62858 0.55366 0.0
C49 C 0.61879 0.65353 0.58849 0.0
O50 O 0.59321 0.75694 0.58768 0.0
O51 O 0.58212 0.84393 0.59363 0.0
O52 O 0.44289 0.83116 0.59477 0.0
O53 O 0.44011 0.74397 0.58828 0.0
O54 O 0.60016 0.61007 0.58329 0.0
O55 O 0.59354 0.69971 0.58684 0.0
O56 O 0.44428 0.68804 0.58512 0.0
O57 O 0.46156 0.59975 0.58181 0.0
C58 C 0.43001 0.63716 0.58609 0.0
O59 O 0.514 0.77487 0.55724 0.0
O60 O 0.50348 0.85939 0.56523 0.0
C61 C 0.52834 0.67347 0.54759 0.0
C62 C 0.50664 0.82669 0.5553 0.0
Zn63 Zn 0.67032 0.26232 0.82592 0.0
Zn64 Zn 0.3757 0.24946 0.82833 0.0
Zn65 Zn 0.47782 0.25597 0.82669 0.0
C66 C 0.4059 0.35587 0.83667 0.0
C67 C 0.41529 0.16756 0.84522 0.0
O68 O 0.5125 0.24965 0.80614 0.0
O69 O 0.58884 0.25775 0.81758 0.0
C70 C 0.5641 0.33577 0.83484 0.0
O71 O 0.45419 0.33514 0.83537 0.0
O72 O 0.36378 0.32794 0.83373 0.0
O73 O 0.37012 0.18936 0.84193 0.0
O74 O 0.46076 0.18579 0.84032 0.0
O75 O 0.59004 0.2937 0.83033 0.0
O76 O 0.51155 0.33257 0.83484 0.0
O77 O 0.51646 0.18887 0.83773 0.0
O78 O 0.59184 0.23001 0.83155 0.0
C79 C 0.569 0.18871 0.83729 0.0
O80 O 0.45349 0.24592 0.80531 0.0
O81 O 0.36526 0.22991 0.80905 0.0
C82 C 0.56509 0.25307 0.80605 0.0
C83 C 0.40524 0.23367 0.80095 0.0
Zn84 Zn 0.01764 0.64742 0.91535 0.0
Zn85 Zn 0.98729 0.84446 0.92464 0.0
Zn86 Zn 0.99968 0.74666 0.9209 0.0
C87 C 0.92387 0.8245 0.90287 0.0
C88 C 0.09506 0.8396 0.92064 0.0
O89 O 0.9894 0.70013 0.94024 0.0
O90 O 0.99127 0.61505 0.9323 0.0
C91 C 0.93499 0.67555 0.89797 0.0
O92 O 0.93213 0.77584 0.90759 0.0
O93 O 0.95065 0.86468 0.90748 0.0
O94 O 0.06374 0.87098 0.92726 0.0
O95 O 0.07679 0.79295 0.91631 0.0
O96 O 0.97026 0.63792 0.89929 0.0
O97 O 0.93755 0.71862 0.90561 0.0
O98 O 0.08397 0.73767 0.91239 0.0
O99 O 0.09761 0.64787 0.91242 0.0
C100 C 0.11543 0.69577 0.9104 0.0
O101 O 0.97844 0.75738 0.94281 0.0
O102 O 0.94005 0.83904 0.94081 0.0
C103 C 0.98497 0.64785 0.94206 0.0
C104 C 0.95035 0.79727 0.94794 0.0
Zn105 Zn 0.60986 0.74392 0.17184 0.0
Zn106 Zn 0.40881 0.78111 0.15591 0.0
Zn107 Zn 0.50558 0.76525 0.16653 0.0
C108 C 0.43833 0.68157 0.14633 0.0
C109 C 0.46857 0.86972 0.14787 0.0
O110 O 0.506 0.75808 0.18879 0.0
O111 O 0.59347 0.73469 0.19126 0.0
C112 C 0.5818 0.66108 0.15524 0.0
O113 O 0.48099 0.6954 0.15332 0.0
O114 O 0.39735 0.71311 0.1456 0.0
O115 O 0.42296 0.84754 0.14536 0.0
O116 O 0.50328 0.84634 0.15589 0.0
O117 O 0.62419 0.67659 0.16151 0.0
O118 O 0.53667 0.68893 0.15612 0.0
O119 O 0.55582 0.83805 0.16146 0.0
O120 O 0.64211 0.8148 0.16573 0.0
C121 C 0.60738 0.8502 0.16196 0.0
O122 O 0.45048 0.76621 0.18434 0.0
O123 O 0.37321 0.78904 0.1739 0.0
C124 C 0.54676 0.74398 0.19635 0.0
C125 C 0.39903 0.77872 0.18474 0.0
Zn126 Zn 0.47806 0.15757 0.40813 0.0
Zn127 Zn 0.48163 0.35999 0.41876 0.0
Zn128 Zn 0.48173 0.25857 0.41634 0.0
C129 C 0.39555 0.34439 0.40275 0.0
C130 C 0.58308 0.33873 0.40936 0.0
O131 O 0.48869 0.21373 0.43551 0.0
O132 O 0.50065 0.13129 0.42645 0.0
C133 C 0.3752 0.19585 0.40301 0.0
O134 O 0.4067 0.2961 0.4074 0.0
O135 O 0.42895 0.38333 0.40454 0.0
O136 O 0.56079 0.37637 0.41621 0.0
O137 O 0.55732 0.29331 0.40718 0.0
O138 O 0.39985 0.15028 0.40287 0.0
O139 O 0.40021 0.23966 0.40702 0.0
O140 O 0.55452 0.2379 0.40342 0.0
O141 O 0.53543 0.15781 0.39392 0.0
C142 C 0.56725 0.19839 0.39524 0.0
O143 O 0.48371 0.27159 0.43853 0.0
O144 O 0.45365 0.35714 0.43757 0.0
C145 C 0.49954 0.16224 0.43676 0.0
C146 C 0.46531 0.315 0.44446 0.0
Zn147 Zn 0.10531 0.21698 0.66997 0.0
Zn148 Zn 0.8958 0.21646 0.65717 0.0
Zn149 Zn 0.99746 0.21727 0.66575 0.0
C150 C 0.94005 0.12437 0.64615 0.0
C151 C 0.93617 0.31655 0.64936 0.0
O152 O 0.00505 0.21869 0.68807 0.0
O153 O 0.09589 0.22169 0.68966 0.0
C154 C 0.08353 0.11917 0.65731 0.0
O155 O 0.97989 0.14146 0.6537 0.0
O156 O 0.89685 0.1526 0.64497 0.0
O157 O 0.89183 0.28985 0.64887 0.0
O158 O 0.9793 0.29532 0.65488 0.0
O159 O 0.12405 0.14414 0.66236 0.0
O160 O 0.03515 0.14089 0.6575 0.0
O161 O 0.03614 0.29103 0.65635 0.0
O162 O 0.12558 0.28506 0.66029 0.0
C163 C 0.08531 0.31035 0.65517 0.0
O164 O 0.94846 0.21642 0.68464 0.0
O165 O 0.86557 0.20653 0.67574 0.0
C166 C 0.04922 0.22117 0.69522 0.0
C167 C 0.89621 0.2099 0.68607 0.0
H168 H 0.91106 0.28438 0.03068 0.0
H169 H 0.91039 0.33386 0.00906 0.0
H170 H 0.08732 0.34073 0.00977 0.0
H171 H 0.08801 0.28993 0.03115 0.0
H172 H 0.02481 0.44348 0.01502 0.0
H173 H 0.04919 0.30198 0.98232 0.0
H174 H 0.03419 0.21706 0.96917 0.0
H175 H 0.87059 0.26999 0.95929 0.0
H176 H 0.8847 0.3554 0.97236 0.0
H177 H 0.06333 0.6372 0.96116 0.0
H178 H 0.06622 0.56351 0.97802 0.0
H179 H 0.89708 0.52373 0.96913 0.0
H180 H 0.89538 0.59586 0.9518 0.0
H181 H 0.95846 0.43476 0.96752 0.0
H182 H 0.94399 0.58485 -0.00107 0.0
H183 H 0.97416 0.67468 0.00751 0.0
H184 H 0.12867 0.60512 0.01971 0.0
H185 H 0.1011 0.51551 0.01022 0.0
C186 C 0.94985 0.29262 0.02567 0.0
C187 C 0.99959 0.28333 0.03254 0.0
C188 C 0.94945 0.32152 0.01338 0.0
C189 C 0.99879 0.34176 0.00796 0.0
C190 C 0.04882 0.32543 0.01379 0.0
C191 C 0.04919 0.29574 0.02594 0.0
C192 C 0.99734 0.39034 -0.00111 0.0
C193 C 0.01103 0.44158 0.00456 0.0
C194 C 0.97814 0.38783 0.9854 0.0
C195 C 0.96778 0.33478 0.97846 0.0
C196 C 0.00974 0.29518 0.9775 0.0
C197 C 0.00163 0.24723 0.96993 0.0
C198 C 0.95154 0.23822 0.96335 0.0
C199 C 0.90941 0.27708 0.96436 0.0
C200 C 0.91749 0.32532 0.97183 0.0
C201 C 0.02604 0.61449 0.96333 0.0
C202 C 0.97868 0.62297 0.9555 0.0
C203 C 0.02785 0.57185 0.97284 0.0
C204 C 0.98183 0.53783 0.97486 0.0
C205 C 0.93315 0.54917 0.96772 0.0
C206 C 0.93175 0.59113 0.95805 0.0
C207 C 0.98558 0.48819 0.98365 0.0
C208 C 0.97197 0.43684 0.978 0.0
C209 C 0.00549 0.49054 0.99714 0.0
C210 C 0.0206 0.54342 0.00372 0.0
C211 C 0.98454 0.58864 0.00337 0.0
C212 C 0.00126 0.63966 0.00838 0.0
C213 C 0.05311 0.6456 0.01429 0.0
C214 C 0.08847 0.60047 0.01514 0.0
C215 C 0.07248 0.54961 0.00984 0.0
H216 H 0.06602 0.68518 0.01815 0.0
H217 H 0.94528 0.20098 0.95755 0.0
H218 H 0.53301 0.83356 0.21225 0.0
H219 H 0.58911 0.84542 0.23265 0.0
H220 H 0.62013 0.6709 0.23356 0.0
H221 H 0.56349 0.65916 0.21339 0.0
H222 H 0.63295 0.71485 0.25857 0.0
H223 H 0.69842 0.75239 0.21265 0.0
H224 H 0.69427 0.79917 0.19047 0.0
H225 H 0.70433 0.95602 0.21032 0.0
H226 H 0.70897 0.91003 0.23261 0.0
H227 H 0.89824 0.69626 0.28294 0.0
H228 H 0.83107 0.69271 0.26442 0.0
H229 H 0.80525 0.86747 0.26808 0.0
H230 H 0.87219 0.87088 0.28656 0.0
H231 H 0.78788 0.82853 0.24154 0.0
H232 H 0.73326 0.78794 0.28756 0.0
H233 H 0.74153 0.73863 0.30933 0.0
H234 H 0.71085 0.58534 0.28908 0.0
H235 H 0.70344 0.6337 0.26714 0.0
C236 C 0.54836 0.79734 0.21741 0.0
C237 C 0.54475 0.74557 0.21119 0.0
C238 C 0.58141 0.80424 0.22892 0.0
C239 C 0.61074 0.75931 0.23423 0.0
C240 C 0.59865 0.7063 0.22951 0.0
C241 C 0.56557 0.69947 0.21806 0.0
C242 C 0.66103 0.76786 0.24252 0.0
C243 C 0.66678 0.73964 0.25484 0.0
C244 C 0.70539 0.80021 0.23766 0.0
C245 C 0.70359 0.82786 0.22427 0.0
C246 C 0.69969 0.79686 0.21227 0.0
C247 C 0.6973 0.82324 0.19967 0.0
C248 C 0.69886 0.88059 0.19896 0.0
C249 C 0.7032 0.91163 0.21086 0.0
C250 C 0.70587 0.88545 0.22347 0.0
C251 C 0.88084 0.73433 0.27918 0.0
C252 C 0.8904 0.78388 0.28606 0.0
C253 C 0.84183 0.7322 0.26875 0.0
C254 C 0.81215 0.77963 0.26517 0.0
C255 C 0.82742 0.83038 0.27075 0.0
C256 C 0.86613 0.83242 0.28121 0.0
C257 C 0.75986 0.7752 0.25751 0.0
C258 C 0.75384 0.80416 0.24532 0.0
C259 C 0.71539 0.74334 0.26247 0.0
C260 C 0.7183 0.71437 0.2757 0.0
C261 C 0.72858 0.74368 0.28774 0.0
C262 C 0.73313 0.71591 0.30011 0.0
C263 C 0.72685 0.65887 0.30058 0.0
C264 C 0.71579 0.62951 0.28869 0.0
C265 C 0.7114 0.65708 0.27629 0.0
H266 H 0.73044 0.63742 0.31017 0.0
H267 H 0.69683 0.90095 0.18921 0.0
H268 H 0.43757 0.68283 0.53184 0.0
H269 H 0.42401 0.62292 0.51215 0.0
H270 H 0.59803 0.58923 0.51112 0.0
H271 H 0.61148 0.64961 0.53058 0.0
H272 H 0.55157 0.57352 0.48614 0.0
H273 H 0.51771 0.51784 0.53286 0.0
H274 H 0.47288 0.52725 0.55522 0.0
H275 H 0.31438 0.51056 0.53648 0.0
H276 H 0.35831 0.50136 0.51401 0.0
H277 H 0.55405 0.30975 0.46099 0.0
H278 H 0.56531 0.37311 0.48011 0.0
H279 H 0.39136 0.40724 0.47947 0.0
H280 H 0.38023 0.34408 0.46044 0.0
H281 H 0.43662 0.42319 0.50506 0.0
H282 H 0.47057 0.47544 0.45842 0.0
H283 H 0.51541 0.46372 0.43615 0.0
H284 H 0.67362 0.48709 0.45458 0.0
H285 H 0.62971 0.498 0.47703 0.0
C286 C 0.47331 0.66584 0.52678 0.0
C287 C 0.52548 0.67028 0.53275 0.0
C288 C 0.46545 0.63074 0.51568 0.0
C289 C 0.50977 0.59988 0.51055 0.0
C290 C 0.56312 0.61197 0.51502 0.0
C291 C 0.57092 0.6471 0.52607 0.0
C292 C 0.5001 0.54838 0.50279 0.0
C293 C 0.52666 0.54063 0.4903 0.0
C294 C 0.46759 0.50523 0.50822 0.0
C295 C 0.44123 0.5094 0.52176 0.0
C296 C 0.47329 0.51632 0.53352 0.0
C297 C 0.44806 0.5216 0.5462 0.0
C298 C 0.39081 0.51966 0.54727 0.0
C299 C 0.35871 0.51209 0.53565 0.0
C300 C 0.38374 0.50675 0.52294 0.0
C301 C 0.51776 0.32783 0.46555 0.0
C302 C 0.46636 0.32254 0.45922 0.0
C303 C 0.52433 0.3648 0.47633 0.0
C304 C 0.47942 0.39631 0.48086 0.0
C305 C 0.42665 0.38388 0.47604 0.0
C306 C 0.42019 0.34723 0.46525 0.0
C307 C 0.48819 0.44832 0.48844 0.0
C308 C 0.46147 0.45613 0.50089 0.0
C309 C 0.52053 0.49148 0.48297 0.0
C310 C 0.54691 0.48693 0.46942 0.0
C311 C 0.51494 0.47784 0.45774 0.0
C312 C 0.54018 0.47129 0.44509 0.0
C313 C 0.59734 0.47436 0.44397 0.0
C314 C 0.62935 0.4845 0.45548 0.0
C315 C 0.60431 0.49089 0.46817 0.0
H316 H 0.6168 0.46894 0.43418 0.0
H317 H 0.37136 0.52393 0.5571 0.0
H318 H 0.53625 0.21122 0.78111 0.0
H319 H 0.59587 0.20239 0.76106 0.0
H320 H 0.72782 0.28152 0.78282 0.0
H321 H 0.66881 0.29095 0.80264 0.0
H322 H 0.72009 0.31938 0.75703 0.0
H323 H 0.7268 0.14484 0.77983 0.0
H324 H 0.68732 0.06127 0.79007 0.0
H325 H 0.61637 0.01661 0.75171 0.0
H326 H 0.65478 0.10041 0.74128 0.0
H327 H 0.93356 0.25095 0.7105 0.0
H328 H 0.88229 0.25513 0.73197 0.0
H329 H 0.74682 0.16951 0.71321 0.0
H330 H 0.79795 0.16391 0.69207 0.0
H331 H 0.76017 0.13422 0.73835 0.0
H332 H 0.74884 0.31034 0.71582 0.0
H333 H 0.78661 0.39451 0.70547 0.0
H334 H 0.86473 0.43655 0.74315 0.0
H335 H 0.82797 0.35219 0.75368 0.0
C336 C 0.57783 0.22703 0.78154 0.0
C337 C 0.59821 0.25088 0.7935 0.0
C338 C 0.61189 0.22177 0.77013 0.0
C339 C 0.66655 0.24065 0.77053 0.0
C340 C 0.68598 0.2664 0.78231 0.0
C341 C 0.65227 0.27129 0.79367 0.0
C342 C 0.70431 0.2326 0.75888 0.0
C343 C 0.72934 0.27885 0.75303 0.0
C344 C 0.71597 0.17979 0.7536 0.0
C345 C 0.6932 0.12917 0.75981 0.0
C346 C 0.70243 0.11741 0.7736 0.0
C347 C 0.6803 0.06997 0.77944 0.0
C348 C 0.64924 0.03372 0.77155 0.0
C349 C 0.64037 0.04477 0.75781 0.0
C350 C 0.66234 0.09221 0.75193 0.0
C351 C 0.89347 0.23191 0.71109 0.0
C352 C 0.86977 0.20734 0.69959 0.0
C353 C 0.86394 0.23479 0.7233 0.0
C354 C 0.81031 0.21332 0.72413 0.0
C355 C 0.78797 0.18646 0.71283 0.0
C356 C 0.81725 0.18359 0.70071 0.0
C357 C 0.77564 0.22107 0.73639 0.0
C358 C 0.75116 0.17475 0.74238 0.0
C359 C 0.76433 0.27386 0.74177 0.0
C360 C 0.7862 0.32468 0.73548 0.0
C361 C 0.77441 0.33734 0.72186 0.0
C362 C 0.79558 0.3851 0.71597 0.0
C363 C 0.82819 0.42077 0.72363 0.0
C364 C 0.83956 0.40883 0.73722 0.0
C365 C 0.81855 0.36107 0.74316 0.0
H366 H 0.84454 0.45773 0.71905 0.0
H367 H 0.63214 0.99701 0.77609 0.0
H368 H 0.39627 0.31663 0.78295 0.0
H369 H 0.3295 0.31582 0.76435 0.0
H370 H 0.31249 0.1402 0.7686 0.0
H371 H 0.37794 0.14142 0.78743 0.0
H372 H 0.30259 0.26738 0.74019 0.0
H373 H 0.17689 0.11025 0.77154 0.0
H374 H 0.17076 0.07732 0.79519 0.0
H375 H 0.23191 0.23228 0.80958 0.0
H376 H 0.23747 0.26642 0.78607 0.0
H377 H 0.05472 0.13604 0.71262 0.0
H378 H 0.11234 0.14095 0.7329 0.0
H379 H 0.10949 0.3179 0.73075 0.0
H380 H 0.05195 0.31285 0.71045 0.0
H381 H 0.12696 0.19501 0.75873 0.0
H382 H 0.24031 0.35692 0.72813 0.0
H383 H 0.24693 0.39149 0.70462 0.0
H384 H 0.21123 0.23015 0.6893 0.0
H385 H 0.20401 0.19483 0.71272 0.0
C386 C 0.38075 0.27753 0.77934 0.0
C387 C 0.39221 0.22904 0.78651 0.0
C388 C 0.34205 0.27715 0.76883 0.0
C389 C 0.31474 0.2282 0.76543 0.0
C390 C 0.33224 0.17859 0.77129 0.0
C391 C 0.37036 0.17911 0.78187 0.0
C392 C 0.26314 0.23009 0.75743 0.0
C393 C 0.26417 0.25213 0.74431 0.0
C394 C 0.21279 0.21025 0.76282 0.0
C395 C 0.20813 0.19062 0.77703 0.0
C396 C 0.18873 0.13737 0.77976 0.0
C397 C 0.18538 0.1185 0.79314 0.0
C398 C 0.20111 0.15262 0.80388 0.0
C399 C 0.21989 0.20583 0.80126 0.0
C400 C 0.22315 0.22495 0.78791 0.0
C401 C 0.06301 0.17592 0.71707 0.0
C402 C 0.04912 0.22407 0.71003 0.0
C403 C 0.09662 0.17873 0.72856 0.0
C404 C 0.11646 0.22975 0.73302 0.0
C405 C 0.09516 0.27811 0.72731 0.0
C406 C 0.06148 0.27523 0.71585 0.0
C407 C 0.16671 0.23179 0.74149 0.0
C408 C 0.16541 0.21053 0.75468 0.0
C409 C 0.21672 0.25277 0.73624 0.0
C410 C 0.2212 0.27345 0.72214 0.0
C411 C 0.23388 0.3289 0.71973 0.0
C412 C 0.23757 0.34863 0.70643 0.0
C413 C 0.22918 0.31309 0.69548 0.0
C414 C 0.21731 0.25771 0.6978 0.0
C415 C 0.21322 0.23786 0.71108 0.0
H416 H 0.23205 0.32843 0.68519 0.0
H417 H 0.19863 0.13788 0.81422 0.0
H418 H 0.31005 0.84134 0.19012 0.0
H419 H 0.24766 0.83451 0.20934 0.0
H420 H 0.35207 0.71137 0.22746 0.0
H421 H 0.41544 0.71807 0.20801 0.0
H422 H 0.23986 0.68098 0.22578 0.0
H423 H 0.34645 0.83416 0.24152 0.0
H424 H 0.39092 0.92486 0.23967 0.0
H425 H 0.23387 0.00067 0.23286 0.0
H426 H 0.18851 0.91026 0.23448 0.0
H427 H 0.12916 0.67634 0.29165 0.0
H428 H 0.17741 0.67725 0.27008 0.0
H429 H 0.07679 0.81299 0.25667 0.0
H430 H 0.02845 0.81254 0.27864 0.0
H431 H 0.18277 0.83756 0.25483 0.0
H432 H 0.07472 0.68631 0.24022 0.0
H433 H 0.02914 0.59606 0.24169 0.0
H434 H 0.18599 0.51679 0.24582 0.0
H435 H 0.23254 0.60663 0.24458 0.0
C436 C 0.32033 0.81336 0.19829 0.0
C437 C 0.36754 0.78007 0.19756 0.0
C438 C 0.2846 0.8096 0.20928 0.0
C439 C 0.29516 0.77244 0.21981 0.0
C440 C 0.34323 0.74028 0.21939 0.0
C441 C 0.37959 0.74446 0.20837 0.0
C442 C 0.25415 0.76584 0.23083 0.0
C443 C 0.22791 0.71487 0.23231 0.0
C444 C 0.23698 0.81083 0.23888 0.0
C445 C 0.26414 0.86533 0.238 0.0
C446 C 0.32143 0.8701 0.23952 0.0
C447 C 0.3468 0.92148 0.23853 0.0
C448 C 0.31526 0.96849 0.23612 0.0
C449 C 0.25826 0.96422 0.23472 0.0
C450 C 0.23269 0.91292 0.23569 0.0
C451 C 0.11592 0.70511 0.28391 0.0
C452 C 0.07532 0.74451 0.28678 0.0
C453 C 0.14349 0.70552 0.27154 0.0
C454 C 0.13089 0.74519 0.26171 0.0
C455 C 0.08722 0.782 0.26413 0.0
C456 C 0.05923 0.78142 0.27659 0.0
C457 C 0.16847 0.75239 0.24994 0.0
C458 C 0.19424 0.80358 0.24828 0.0
C459 C 0.18494 0.70762 0.24168 0.0
C460 C 0.15712 0.65336 0.24239 0.0
C461 C 0.09951 0.6497 0.24155 0.0
C462 C 0.07349 0.59858 0.24232 0.0
C463 C 0.10464 0.55073 0.24387 0.0
C464 C 0.16191 0.55389 0.24462 0.0
C465 C 0.18814 0.60491 0.24386 0.0
H466 H 0.08442 0.5112 0.24447 0.0
H467 H 0.33497 0.00823 0.23535 0.0
H468 H 0.44535 0.1806 0.46072 0.0
H469 H 0.44926 0.12198 0.48098 0.0
H470 H 0.58007 0.02724 0.46275 0.0
H471 H 0.57436 0.08392 0.44239 0.0
H472 H 0.50694 0.9604 0.47174 0.0
H473 H 0.59974 0.11736 0.49042 0.0
H474 H 0.61052 0.21567 0.49593 0.0
H475 H 0.46511 0.21009 0.52059 0.0
H476 H 0.45296 0.11193 0.51506 0.0
H477 H 0.56814 0.80508 0.53252 0.0
H478 H 0.5707 0.86167 0.51182 0.0
H479 H 0.43535 0.95872 0.52703 0.0
H480 H 0.43411 0.90389 0.5477 0.0
H481 H 0.51584 0.02353 0.51954 0.0
H482 H 0.42264 0.86621 0.50021 0.0
H483 H 0.41387 0.76749 0.49493 0.0
H484 H 0.56289 0.77357 0.47163 0.0
H485 H 0.57307 0.87216 0.47697 0.0
C486 C 0.47573 0.14809 0.46124 0.0
C487 C 0.50946 0.13655 0.45005 0.0
C488 C 0.47795 0.1145 0.47278 0.0
C489 C 0.51496 0.06995 0.47339 0.0
C490 C 0.5508 0.06081 0.46248 0.0
C491 C 0.54783 0.09352 0.45091 0.0
C492 C 0.51449 0.0308 0.48497 0.0
C493 C 0.50966 0.97423 0.48219 0.0
C494 C 0.51717 0.04867 0.49861 0.0
C495 C 0.5252 0.10737 0.50223 0.0
C496 C 0.56992 0.13716 0.49697 0.0
C497 C 0.57627 0.19286 0.50009 0.0
C498 C 0.53845 0.21914 0.50857 0.0
C499 C 0.49434 0.1897 0.514 0.0
C500 C 0.48774 0.13401 0.51089 0.0
C501 C 0.5382 0.83764 0.53121 0.0
C502 C 0.50113 0.85048 0.54165 0.0
C503 C 0.53976 0.87009 0.51945 0.0
C504 C 0.50345 0.91483 0.51794 0.0
C505 C 0.46421 0.92502 0.52804 0.0
C506 C 0.46325 0.89339 0.53979 0.0
C507 C 0.50767 0.95335 0.5063 0.0
C508 C 0.51332 0.00978 0.50908 0.0
C509 C 0.50598 0.93531 0.49267 0.0
C510 C 0.49888 0.87647 0.48909 0.0
C511 C 0.45368 0.84645 0.49401 0.0
C512 C 0.44846 0.79051 0.49101 0.0
C513 C 0.48788 0.76424 0.48298 0.0
C514 C 0.53243 0.79395 0.47787 0.0
C515 C 0.53793 0.84987 0.48087 0.0
H516 H 0.48385 0.72089 0.48071 0.0
H517 H 0.54337 0.2623 0.51095 0.0
H518 H 0.08217 0.06138 0.0486 0.0
H519 H 0.05987 0.99562 0.03065 0.0
H520 H 0.905 0.07832 0.02408 0.0
H521 H 0.92912 0.1462 0.04148 0.0
H522 H 0.97723 0.92432 0.03091 0.0
H523 H 0.8571 0.0502 0.99318 0.0
H524 H 0.8441 0.14898 0.98849 0.0
H525 H 0.0143 0.1791 0.99726 0.0
H526 H 0.02863 0.08027 0.00169 0.0
H527 H 0.85745 0.83704 0.95924 0.0
H528 H 0.85416 0.88551 0.9809 0.0
H529 H 0.01438 0.82165 0.99107 0.0
H530 H 0.01767 0.77283 0.9693 0.0
H531 H 0.92667 0.96662 0.98332 0.0
H532 H 0.03024 0.83561 0.02694 0.0
H533 H 0.01946 0.7459 0.03824 0.0
H534 H 0.85907 0.72775 0.02064 0.0
H535 H 0.86825 0.81782 0.00947 0.0
C536 C 0.04438 0.06661 0.04292 0.0
C537 C 0.00774 0.10918 0.04617 0.0
C538 C 0.03127 0.02863 0.03283 0.0
C539 C 0.98078 0.03187 0.026 0.0
C540 C 0.94469 0.07547 0.029 0.0
C541 C 0.95857 0.11448 0.03886 0.0
C542 C 0.9657 0.98828 0.01611 0.0
C543 C 0.96724 0.93326 0.02041 0.0
C544 C 0.9493 0.00042 0.00268 0.0
C545 C 0.94375 0.05795 -0.00212 0.0
C546 C 0.89201 0.0777 0.99382 0.0
C547 C 0.88434 0.13373 0.99129 0.0
C548 C 0.92817 0.1703 0.99275 0.0
C549 C 0.98031 0.15071 0.99622 0.0
C550 C 0.9883 0.09467 -0.00133 0.0
C551 C 0.89069 0.83094 0.96641 0.0
C552 C 0.93813 0.80183 0.96255 0.0
C553 C 0.88898 0.85912 0.97874 0.0
C554 C 0.93454 0.85834 0.98745 0.0
C555 C 0.97875 0.82297 0.98448 0.0
C556 C 0.98046 0.79462 0.97208 0.0
C557 C 0.94048 0.90183 -0.00205 0.0
C558 C 0.93716 0.95712 0.99376 0.0
C559 C 0.95391 0.88987 0.01158 0.0
C560 C 0.95027 0.83338 0.01722 0.0
C561 C 0.99275 0.8124 0.02542 0.0
C562 C 0.98675 0.76164 0.03188 0.0
C563 C 0.93847 0.73134 0.03023 0.0
C564 C 0.89639 0.75136 0.02194 0.0
C565 C 0.90209 0.80219 0.01549 0.0
H566 H 0.93388 0.69208 0.03527 0.0
H567 H 0.92165 0.21385 0.99125 0.0
H568 H 0.45925 0.96598 0.16117 0.0
H569 H 0.43145 0.05206 0.15047 0.0
H570 H 0.46092 0.9812 0.11105 0.0
H571 H 0.49018 0.89537 0.12178 0.0
H572 H 0.45645 0.13055 0.12419 0.0
H573 H 0.34045 0.95685 0.10377 0.0
H574 H 0.31605 0.86037 0.10885 0.0
H575 H 0.29841 0.90063 0.15108 0.0
H576 H 0.32268 0.9972 0.14619 0.0
H577 H 0.20746 0.2097 0.08306 0.0
H578 H 0.29979 0.18632 0.09156 0.0
H579 H 0.23152 0.15583 0.13123 0.0
H580 H 0.13978 0.17727 0.1227 0.0
H581 H 0.26732 0.06246 0.11569 0.0
H582 H 0.32895 0.23921 0.1318 0.0
H583 H 0.36464 0.33384 0.13306 0.0
H584 H 0.49026 0.29404 0.1041 0.0
H585 H 0.45578 0.19886 0.10275 0.0
C586 C 0.46399 0.97028 0.15028 0.0
C587 C 0.47773 0.92464 0.14227 0.0
C588 C 0.44796 0.01949 0.14416 0.0
C589 C 0.44404 0.02278 0.12999 0.0
C590 C 0.46445 0.97959 0.122 0.0
C591 C 0.48104 0.93056 0.12813 0.0
C592 C 0.40292 0.06046 0.12412 0.0
C593 C 0.41522 0.116 0.12203 0.0
C594 C 0.34912 0.04128 0.12173 0.0
C595 C 0.33327 0.98383 0.12462 0.0
C596 C 0.33106 0.94498 0.11411 0.0
C597 C 0.31738 0.89037 0.11696 0.0
C598 C 0.30559 0.87441 0.13028 0.0
C599 C 0.3074 0.91305 0.14077 0.0
C600 C 0.32115 0.96766 0.13797 0.0
C601 C 0.21278 0.20002 0.09371 0.0
C602 C 0.16671 0.19421 0.10221 0.0
C603 C 0.26553 0.18722 0.09859 0.0
C604 C 0.27247 0.16915 0.11202 0.0
C605 C 0.22715 0.16995 0.12085 0.0
C606 C 0.17467 0.18164 0.11595 0.0
C607 C 0.31991 0.13395 0.11571 0.0
C608 C 0.30867 0.07778 0.11738 0.0
C609 C 0.37416 0.15335 0.11786 0.0
C610 C 0.38913 0.21215 0.11701 0.0
C611 C 0.36328 0.25094 0.12544 0.0
C612 C 0.38373 0.30451 0.12628 0.0
C613 C 0.42964 0.31982 0.11865 0.0
C614 C 0.45486 0.28192 0.11003 0.0
C615 C 0.43485 0.22824 0.10921 0.0
H616 H 0.44571 0.36107 0.11938 0.0
H617 H 0.29518 0.83209 0.13247 0.0
H618 H 0.1076 0.9668 0.33043 0.0
H619 H 0.12551 0.04696 0.34482 0.0
H620 H 0.02681 0.97536 0.3766 0.0
H621 H 0.00864 0.89555 0.3622 0.0
H622 H 0.06559 0.1269 0.36137 0.0
H623 H 0.10609 0.9841 0.4047 0.0
H624 H 0.11864 0.88527 0.4095 0.0
H625 H 0.19788 0.86359 0.37091 0.0
H626 H 0.18628 0.96238 0.36597 0.0
H627 H 0.2895 0.17466 0.41947 0.0
H628 H 0.1963 0.1501 0.41232 0.0
H629 H 0.23739 0.19207 0.37101 0.0
H630 H 0.33059 0.21702 0.37823 0.0
H631 H 0.19648 0.06322 0.39658 0.0
H632 H 0.10902 0.20806 0.35244 0.0
H633 H 0.07813 0.30372 0.34959 0.0
H634 H 0.08342 0.3279 0.39271 0.0
H635 H 0.11267 0.232 0.39594 0.0
C636 C 0.08844 0.96923 0.34034 0.0
C637 C 0.05673 0.92551 0.34526 0.0
C638 C 0.09815 0.01513 0.34848 0.0
C639 C 0.07733 0.01721 0.36176 0.0
C640 C 0.04268 0.97501 0.36635 0.0
C641 C 0.03258 0.92931 0.35815 0.0
C642 C 0.1013 0.0572 0.37137 0.0
C643 C 0.09455 0.11368 0.36907 0.0
C644 C 0.13615 0.0393 0.38194 0.0
C645 C 0.1448 0.9803 0.38493 0.0
C646 C 0.12635 0.9582 0.39728 0.0
C647 C 0.13327 0.90224 0.40001 0.0
C648 C 0.15889 0.86814 0.3905 0.0
C649 C 0.17792 0.89 0.37825 0.0
C650 C 0.17119 0.94595 0.37548 0.0
C651 C 0.27769 0.18079 0.40897 0.0
C652 C 0.31679 0.19707 0.39934 0.0
C653 C 0.22444 0.1671 0.4049 0.0
C654 C 0.20986 0.16891 0.39111 0.0
C655 C 0.24739 0.19091 0.38171 0.0
C656 C 0.30078 0.20461 0.3858 0.0
C657 C 0.16406 0.13416 0.38609 0.0
C658 C 0.16677 0.07788 0.3892 0.0
C659 C 0.12507 0.15283 0.37645 0.0
C660 C 0.1133 0.21235 0.37444 0.0
C661 C 0.10359 0.23358 0.36135 0.0
C662 C 0.086 0.28788 0.35967 0.0
C663 C 0.07826 0.32163 0.37097 0.0
C664 C 0.08922 0.30158 0.38397 0.0
C665 C 0.10651 0.24723 0.38573 0.0
H666 H 0.06385 0.36337 0.36967 0.0
H667 H 0.1641 0.82481 0.39262 0.0
H668 H 0.1045 0.02778 0.67179 0.0
H669 H 0.13442 0.93833 0.66306 0.0
H670 H 0.11476 0.99756 0.62205 0.0
H671 H 0.08278 0.08658 0.63086 0.0
H672 H 0.09596 0.88578 0.62366 0.0
H673 H 0.2352 0.01643 0.63865 0.0
H674 H 0.27918 0.07721 0.6555 0.0
H675 H 0.30265 0.93993 0.68227 0.0
H676 H 0.25808 0.87848 0.66562 0.0
H677 H 0.32706 0.83098 0.58459 0.0
H678 H 0.24378 0.85212 0.59729 0.0
H679 H 0.30476 0.75785 0.63123 0.0
H680 H 0.38892 0.73694 0.61836 0.0
H681 H 0.29042 0.86208 0.63764 0.0
H682 H 0.18034 0.72858 0.61659 0.0
H683 H 0.14232 0.6732 0.59792 0.0
H684 H 0.06687 0.81691 0.58086 0.0
H685 H 0.10683 0.87379 0.59902 0.0
C686 C 0.10525 0.02096 0.66092 0.0
C687 C 0.09217 0.06366 0.65194 0.0
C688 C 0.1221 0.96996 0.65595 0.0
C689 C 0.12792 0.96166 0.64191 0.0
C690 C 0.11073 0.00312 0.63291 0.0
C691 C 0.09298 0.05399 0.63792 0.0
C692 C 0.16058 0.91458 0.63674 0.0
C693 C 0.13846 0.88023 0.62667 0.0
C694 C 0.21551 0.90633 0.64104 0.0
C695 C 0.24272 0.94308 0.65099 0.0
C696 C 0.24944 0.99932 0.64817 0.0
C697 C 0.27448 0.03386 0.65767 0.0
C698 C 0.29353 0.01247 0.66997 0.0
C699 C 0.28774 0.95646 0.67276 0.0
C700 C 0.26259 0.92176 0.66329 0.0
C701 C 0.32147 0.81285 0.59454 0.0
C702 C 0.36388 0.78253 0.60058 0.0
C703 C 0.27371 0.82459 0.60178 0.0
C704 C 0.26785 0.80654 0.61523 0.0
C705 C 0.30833 0.77198 0.62084 0.0
C706 C 0.35624 0.76001 0.61353 0.0
C707 C 0.22682 0.83423 0.62405 0.0
C708 C 0.24738 0.86555 0.63487 0.0
C709 C 0.17096 0.83998 0.62022 0.0
C710 C 0.14653 0.80567 0.60926 0.0
C711 C 0.15608 0.74862 0.60881 0.0
C712 C 0.13429 0.71689 0.59828 0.0
C713 C 0.10193 0.74138 0.58826 0.0
C714 C 0.09175 0.79786 0.58866 0.0
C715 C 0.11409 0.82993 0.59906 0.0
H716 H 0.08486 0.71661 0.58016 0.0
H717 H 0.31291 0.03928 0.67731 0.0
H718 H 0.14818 0.82413 0.89684 0.0
H719 H 0.23354 0.86675 0.88923 0.0
H720 H 0.24756 0.95028 0.92771 0.0
H721 H 0.1633 0.9049 0.93555 0.0
H722 H 0.24752 0.02055 0.90691 0.0
H723 H 0.34436 0.8635 0.91879 0.0
H724 H 0.37293 0.76701 0.92131 0.0
H725 H 0.39769 0.75483 0.87826 0.0
H726 H 0.36659 0.85021 0.87536 0.0
H727 H 0.45143 0.16867 0.87127 0.0
H728 H 0.42634 0.10201 0.88899 0.0
H729 H 0.34996 0.99924 0.85869 0.0
H730 H 0.37374 0.06631 0.84113 0.0
H731 H 0.40396 0.9402 0.88137 0.0
H732 H 0.27352 0.09101 0.87144 0.0
H733 H 0.25126 0.18971 0.86974 0.0
H734 H 0.29899 0.21312 0.91131 0.0
H735 H 0.32232 0.11457 0.91317 0.0
C736 C 0.1714 0.84859 0.90394 0.0
C737 C 0.15031 0.85946 0.9169 0.0
C738 C 0.21979 0.87373 0.89955 0.0
C739 C 0.2474 0.91122 0.90797 0.0
C740 C 0.22723 0.92107 0.9211 0.0
C741 C 0.17911 0.89528 0.92554 0.0
C742 C 0.29162 0.94599 0.90219 0.0
C743 C 0.28265 0.00294 0.90168 0.0
C744 C 0.33742 0.92317 0.89532 0.0
C745 C 0.35274 0.8643 0.89685 0.0
C746 C 0.35471 0.83999 0.90981 0.0
C747 C 0.37139 0.78536 0.91131 0.0
C748 C 0.387 0.7547 0.89997 0.0
C749 C 0.38528 0.7784 0.88706 0.0
C750 C 0.36794 0.83278 0.88547 0.0
C751 C 0.43113 0.13078 0.8684 0.0
C752 C 0.41447 0.12207 0.85494 0.0
C753 C 0.41685 0.09288 0.87848 0.0
C754 C 0.38621 0.04589 0.87511 0.0
C755 C 0.374 0.03502 0.86146 0.0
C756 C 0.38739 0.07327 0.85146 0.0
C757 C 0.35798 0.01349 0.88572 0.0
C758 C 0.36975 0.95734 0.88702 0.0
C759 C 0.31501 0.03684 0.89347 0.0
C760 C 0.30027 0.09575 0.8924 0.0
C761 C 0.27962 0.11733 0.88018 0.0
C762 C 0.26678 0.17319 0.87919 0.0
C763 C 0.27387 0.20771 0.8904 0.0
C764 C 0.29365 0.18636 0.90263 0.0
C765 C 0.3067 0.13054 0.90366 0.0
H766 H 0.26389 0.25095 0.88962 0.0
H767 H 0.40072 0.71269 0.90122 0.0
H768 H 0.81308 0.8167 0.90507 0.0
H769 H 0.74606 0.86195 0.8902 0.0
H770 H 0.87677 0.90672 0.86274 0.0
H771 H 0.94354 0.86174 0.87764 0.0
H772 H 0.82383 0.99452 0.87356 0.0
H773 H 0.77468 0.82524 0.85201 0.0
H774 H 0.74677 0.72791 0.85192 0.0
H775 H 0.59527 0.77015 0.8717 0.0
H776 H 0.62263 0.86785 0.8721 0.0
H777 H 0.67305 0.1606 0.83 0.0
H778 H 0.72719 0.08268 0.83801 0.0
H779 H 0.59244 0.03148 0.86352 0.0
H780 H 0.53724 0.10866 0.85512 0.0
H781 H 0.6452 0.94245 0.85295 0.0
H782 H 0.69634 0.10703 0.87668 0.0
H783 H 0.72511 0.20384 0.87879 0.0
H784 H 0.87347 0.16841 0.85684 0.0
H785 H 0.84519 0.0715 0.85443 0.0
C786 C 0.82684 0.83388 0.89552 0.0
C787 C 0.88298 0.83535 0.89232 0.0
C788 C 0.78869 0.85985 0.88706 0.0
C789 C 0.80655 0.88776 0.87539 0.0
C790 C 0.86221 0.88531 0.87169 0.0
C791 C 0.90021 0.85951 0.88014 0.0
C792 C 0.7698 0.92744 0.86851 0.0
C793 C 0.78535 0.9829 0.86879 0.0
C794 C 0.71856 0.91238 0.86285 0.0
C795 C 0.70093 0.85395 0.86218 0.0
C796 C 0.73551 0.81383 0.85641 0.0
C797 C 0.71978 0.75857 0.85629 0.0
C798 C 0.66936 0.74284 0.86184 0.0
C799 C 0.63436 0.78243 0.86742 0.0
C800 C 0.64992 0.8378 0.86757 0.0
C801 C 0.65495 0.13285 0.83733 0.0
C802 C 0.60136 0.14137 0.84217 0.0
C803 C 0.68578 0.0881 0.84184 0.0
C804 C 0.6642 0.05174 0.85154 0.0
C805 C 0.60994 0.05901 0.85604 0.0
C806 C 0.57865 0.10338 0.85134 0.0
C807 C 0.70008 0.00933 0.85777 0.0
C808 C 0.6841 0.95372 0.85755 0.0
C809 C 0.75098 0.02401 0.86369 0.0
C810 C 0.7684 0.08215 0.86527 0.0
C811 C 0.73494 0.11997 0.87223 0.0
C812 C 0.75117 0.17484 0.87349 0.0
C813 C 0.80102 0.19229 0.86793 0.0
C814 C 0.83483 0.15485 0.86113 0.0
C815 C 0.81875 0.09994 0.85982 0.0
H816 H 0.81351 0.2348 0.86891 0.0
H817 H 0.65744 0.7 0.86179 0.0
H818 H 0.98358 0.02758 0.65535 0.0
H819 H 0.97389 0.93673 0.64486 0.0
H820 H 0.885 0.01083 0.61157 0.0
H821 H 0.89896 0.10092 0.62142 0.0
H822 H 0.88804 0.88602 0.64307 0.0
H823 H 0.87179 0.94202 0.5842 0.0
H824 H 0.93002 0.98857 0.56736 0.0
H825 H 0.07093 0.96759 0.59305 0.0
H826 H 0.01409 0.91914 0.60991 0.0
H827 H 0.64074 0.85318 0.61638 0.0
H828 H 0.73264 0.86684 0.62534 0.0
H829 H 0.79996 0.76715 0.59307 0.0
H830 H 0.70694 0.75517 0.58374 0.0
H831 H 0.85506 0.8548 0.59402 0.0
H832 H 0.83786 0.72799 0.62904 0.0
H833 H 0.79774 0.67057 0.64709 0.0
H834 H 0.74683 0.81502 0.6687 0.0
H835 H 0.78854 0.87351 0.65103 0.0
C836 C 0.96479 0.02444 0.64542 0.0
C837 C 0.94286 0.07116 0.63906 0.0
C838 C 0.9586 0.97246 0.6395 0.0
C839 C 0.92913 0.96644 0.6273 0.0
C840 C 0.9095 0.01382 0.62071 0.0
C841 C 0.91665 0.06552 0.62648 0.0
C842 C 0.90878 0.91178 0.62274 0.0
C843 C 0.88208 0.87853 0.63232 0.0
C844 C 0.9038 0.8987 0.60877 0.0
C845 C 0.93847 0.92647 0.59836 0.0
C846 C 0.91534 0.94631 0.58621 0.0
C847 C 0.94814 0.97324 0.57665 0.0
C848 C 0.00417 0.98084 0.57911 0.0
C849 C 0.02755 0.96146 0.59113 0.0
C850 C 0.99505 0.93419 0.60069 0.0
C851 C 0.67502 0.83336 0.61133 0.0
C852 C 0.66683 0.80299 0.59943 0.0
C853 C 0.72767 0.8403 0.6166 0.0
C854 C 0.77361 0.81698 0.6101 0.0
C855 C 0.7653 0.78503 0.59838 0.0
C856 C 0.71224 0.77817 0.59306 0.0
C857 C 0.82943 0.83503 0.61436 0.0
C858 C 0.86322 0.86088 0.60472 0.0
C859 C 0.84322 0.8394 0.62825 0.0
C860 C 0.81603 0.80503 0.63868 0.0
C861 C 0.81781 0.74749 0.6376 0.0
C862 C 0.79506 0.71476 0.6478 0.0
C863 C 0.76918 0.73902 0.65896 0.0
C864 C 0.76675 0.79623 0.66004 0.0
C865 C 0.79045 0.82921 0.65001 0.0
H866 H 0.75127 0.71348 0.66678 0.0
H867 H 0.02942 0.00189 0.57172 0.0
H868 H 0.94867 0.96225 0.3331 0.0
H869 H 0.93043 0.05356 0.34285 0.0
H870 H 0.83078 0.97814 0.37396 0.0
H871 H 0.84986 0.88787 0.36445 0.0
H872 H 0.83798 0.10302 0.34344 0.0
H873 H 0.82193 0.0362 0.40076 0.0
H874 H 0.8823 0.99538 0.41817 0.0
H875 H 0.0246 0.04585 0.39567 0.0
H876 H 0.9652 0.08573 0.37793 0.0
H877 H 0.5895 0.15251 0.37082 0.0
H878 H 0.67931 0.13281 0.36127 0.0
H879 H 0.75662 0.22137 0.39415 0.0
H880 H 0.66614 0.23722 0.40431 0.0
H881 H 0.80519 0.13337 0.39254 0.0
H882 H 0.77366 0.26078 0.35932 0.0
H883 H 0.72525 0.31776 0.34246 0.0
H884 H 0.70194 0.1765 0.31701 0.0
H885 H 0.74846 0.11812 0.33386 0.0
C886 C 0.92421 0.96542 0.34226 0.0
C887 C 0.9008 0.91822 0.3481 0.0
C888 C 0.91378 0.0175 0.3478 0.0
C889 C 0.87989 0.02297 0.35929 0.0
C890 C 0.85837 0.97531 0.36536 0.0
C891 C 0.8686 0.92361 0.35981 0.0
C892 C 0.85855 0.0774 0.36374 0.0
C893 C 0.83154 0.11058 0.35416 0.0
C894 C 0.85342 0.09028 0.37766 0.0
C895 C 0.88904 0.06392 0.38801 0.0
C896 C 0.8661 0.03845 0.3995 0.0
C897 C 0.90018 0.01518 0.40938 0.0
C898 C 0.95727 0.01775 0.40798 0.0
C899 C 0.9804 0.04338 0.39666 0.0
C900 C 0.94654 0.0659 0.38663 0.0
C901 C 0.62557 0.1689 0.37584 0.0
C902 C 0.62076 0.19718 0.38819 0.0
C903 C 0.67714 0.15828 0.37027 0.0
C904 C 0.72527 0.17635 0.37681 0.0
C905 C 0.72032 0.20726 0.38882 0.0
C906 C 0.66851 0.21705 0.39453 0.0
C907 C 0.77944 0.15453 0.37223 0.0
C908 C 0.81294 0.12782 0.38179 0.0
C909 C 0.79275 0.15015 0.35827 0.0
C910 C 0.76492 0.18493 0.3479 0.0
C911 C 0.75802 0.24168 0.35017 0.0
C912 C 0.73085 0.27427 0.3406 0.0
C913 C 0.71082 0.25082 0.32865 0.0
C914 C 0.71771 0.19465 0.32625 0.0
C915 C 0.74454 0.16175 0.33581 0.0
H916 H 0.68984 0.27616 0.32125 0.0
H917 H 0.98361 1.00004 0.41568 0.0
H918 H 0.70386 0.87623 0.14979 0.0
H919 H 0.73619 0.96724 0.14313 0.0
H920 H 0.58727 0.03993 0.1588 0.0
H921 H 0.55572 0.94827 0.16594 0.0
H922 H 0.61445 0.08023 0.13341 0.0
H923 H 0.69908 0.06731 0.17587 0.0
H924 H 0.74772 0.0235 0.19495 0.0
H925 H 0.88974 0.99893 0.1698 0.0
H926 H 0.84189 0.04229 0.15052 0.0
H927 H 0.88941 0.24979 0.11841 0.0
H928 H 0.81025 0.23373 0.13344 0.0
H929 H 0.7487 0.11196 0.10542 0.0
H930 H 0.82763 0.12735 0.0907 0.0
H931 H 0.80496 0.13596 0.14491 0.0
H932 H 0.61446 0.08958 0.10899 0.0
H933 H 0.56093 0.13821 0.09152 0.0
H934 H 0.62389 0.2928 0.10556 0.0
H935 H 0.67721 0.24535 0.12334 0.0
C936 C 0.67812 0.91161 0.15186 0.0
C937 C 0.62654 0.90533 0.15801 0.0
C938 C 0.69663 0.96359 0.1481 0.0
C939 C 0.66423 0.01038 0.15054 0.0
C940 C 0.61275 0.00434 0.15677 0.0
C941 C 0.5944 0.95211 0.16064 0.0
C942 C 0.68467 0.0648 0.14611 0.0
C943 C 0.6558 0.0932 0.13598 0.0
C944 C 0.73714 0.08356 0.15014 0.0
C945 C 0.76681 0.05816 0.16174 0.0
C946 C 0.74063 0.05242 0.17439 0.0
C947 C 0.76805 0.02761 0.18524 0.0
C948 C 0.82172 0.00829 0.18359 0.0
C949 C 0.84818 0.01398 0.17108 0.0
C950 C 0.82098 0.03888 0.16019 0.0
C951 C 0.85769 0.2212 0.1153 0.0
C952 C 0.86436 0.18932 0.10354 0.0
C953 C 0.81251 0.21217 0.12384 0.0
C954 C 0.77339 0.17171 0.12057 0.0
C955 C 0.77764 0.14402 0.1081 0.0
C956 C 0.82303 0.15236 0.09973 0.0
C957 C 0.73708 0.14791 0.13114 0.0
C958 C 0.76282 0.12493 0.14256 0.0
C959 C 0.68137 0.1351 0.12843 0.0
C960 C 0.65015 0.16371 0.11753 0.0
C961 C 0.61679 0.13397 0.10845 0.0
C962 C 0.58651 0.16136 0.09846 0.0
C963 C 0.58921 0.21853 0.09741 0.0
C964 C 0.62214 0.24849 0.10636 0.0
C965 C 0.6525 0.22134 0.11637 0.0
H966 H 0.56568 0.23963 0.08968 0.0
H967 H 0.84282 0.98898 0.192 0.0
H968 H 0.89708 0.34778 0.62508 0.0
H969 H 0.8751 0.44108 0.61796 0.0
H970 H 0.95031 0.50526 0.65427 0.0
H971 H 0.97362 0.41087 0.66139 0.0
H972 H 0.81548 0.50444 0.64587 0.0
H973 H 0.9733 0.65081 0.62686 0.0
H974 H 0.0657 0.65745 0.61673 0.0
H975 H 0.04213 0.50238 0.59674 0.0
H976 H 0.94931 0.49531 0.60658 0.0
H977 H 0.63877 0.69476 0.61379 0.0
H978 H 0.71935 0.67551 0.62802 0.0
H979 H 0.79238 0.58405 0.59504 0.0
H980 H 0.71252 0.60363 0.58092 0.0
H981 H 0.87131 0.63415 0.60963 0.0
H982 H 0.70292 0.52582 0.61812 0.0
H983 H 0.60663 0.51644 0.62563 0.0
H984 H 0.64874 0.58481 0.66446 0.0
H985 H 0.74519 0.59485 0.65713 0.0
C986 C 0.91093 0.38189 0.63127 0.0
C987 C 0.9366 0.3725 0.64378 0.0
C988 C 0.8989 0.43517 0.62715 0.0
C989 C 0.91194 0.48004 0.63548 0.0
C990 C 0.94115 0.4712 0.64757 0.0
C991 C 0.95409 0.41745 0.65164 0.0
C992 C 0.88172 0.53161 0.63304 0.0
C993 C 0.82822 0.53422 0.6383 0.0
C994 C 0.89834 0.57013 0.62316 0.0
C995 C 0.95498 0.57188 0.61775 0.0
C996 C 0.98802 0.618 0.62036 0.0
C997 C 0.04026 0.62211 0.61455 0.0
C998 C 0.05965 0.58048 0.60602 0.0
C999 C 0.02705 0.5345 0.60338 0.0
C1000 C 0.97471 0.53026 0.60914 0.0
C1001 C 0.67294 0.67195 0.60954 0.0
C1002 C 0.66982 0.65033 0.59636 0.0
C1003 C 0.71898 0.66116 0.61763 0.0
C1004 C 0.76192 0.62817 0.61262 0.0
C1005 C 0.76007 0.60995 0.59911 0.0
C1006 C 0.71423 0.62055 0.59109 0.0
C1007 C 0.80392 0.60385 0.62169 0.0
C1008 C 0.85938 0.60665 0.61778 0.0
C1009 C 0.78868 0.56883 0.63253 0.0
C1010 C 0.73089 0.56231 0.63697 0.0
C1011 C 0.69148 0.53927 0.62822 0.0
C1012 C 0.63693 0.53372 0.63245 0.0
C1013 C 0.62149 0.55036 0.64549 0.0
C1014 C 0.66067 0.57226 0.65434 0.0
C1015 C 0.71527 0.57797 0.65014 0.0
H1016 H 0.57923 0.54602 0.64875 0.0
H1017 H 0.09996 0.58373 0.60147 0.0
H1018 H 0.83086 0.71937 0.89829 0.0
H1019 H 0.75311 0.69206 0.88395 0.0
H1020 H 0.85933 0.5808 0.86206 0.0
H1021 H 0.93701 0.6108 0.87563 0.0
H1022 H 0.78337 0.61755 0.84545 0.0
H1023 H 0.77864 0.53307 0.89243 0.0
H1024 H 0.77509 0.54595 0.9173 0.0
H1025 H 0.6357 0.65298 0.91289 0.0
H1026 H 0.63918 0.64118 0.888 0.0
H1027 H 0.67479 0.35583 0.83441 0.0
H1028 H 0.72272 0.43808 0.84223 0.0
H1029 H 0.56791 0.51159 0.8534 0.0
H1030 H 0.51974 0.42997 0.84523 0.0
H1031 H 0.64564 0.51999 0.87369 0.0
H1032 H 0.63235 0.5643 0.8271 0.0
H1033 H 0.63735 0.54822 0.80242 0.0
H1034 H 0.81125 0.52043 0.80542 0.0
H1035 H 0.80722 0.53552 0.83015 0.0
C1036 C 0.83791 0.69107 0.89002 0.0
C1037 C 0.88997 0.6673 0.88809 0.0
C1038 C 0.79329 0.67468 0.88196 0.0
C1039 C 0.79997 0.63324 0.87213 0.0
C1040 C 0.85286 0.61269 0.86958 0.0
C1041 C 0.89731 0.62957 0.87745 0.0
C1042 C 0.7523 0.60522 0.86568 0.0
C1043 C 0.75289 0.59659 0.85159 0.0
C1044 C 0.71121 0.57931 0.87358 0.0
C1045 C 0.70875 0.58583 0.88846 0.0
C1046 C 0.74716 0.55912 0.89681 0.0
C1047 C 0.7453 0.56639 0.91088 0.0
C1048 C 0.70508 0.60011 0.91668 0.0
C1049 C 0.66667 0.62667 0.9084 0.0
C1050 C 0.66844 0.61959 0.89433 0.0
C1051 C 0.65081 0.38955 0.83845 0.0
C1052 C 0.59327 0.38603 0.83934 0.0
C1053 C 0.67828 0.43675 0.84284 0.0
C1054 C 0.64883 0.48133 0.84827 0.0
C1055 C 0.59144 0.47796 0.84918 0.0
C1056 C 0.56393 0.43104 0.8446 0.0
C1057 C 0.67878 0.52995 0.85356 0.0
C1058 C 0.67477 0.54227 0.86743 0.0
C1059 C 0.71649 0.5594 0.84541 0.0
C1060 C 0.71941 0.55086 0.8305 0.0
C1061 C 0.67162 0.55445 0.82251 0.0
C1062 C 0.67429 0.54554 0.80851 0.0
C1063 C 0.72458 0.53326 0.80236 0.0
C1064 C 0.77233 0.52999 0.8102 0.0
C1065 C 0.76989 0.53882 0.82421 0.0
H1066 H 0.72655 0.52634 0.79152 0.0
H1067 H 0.70374 0.60575 0.92757 0.0
H1068 H 0.54608 0.64539 0.12922 0.0
H1069 H 0.5648 0.56563 0.11468 0.0
H1070 H 0.64924 0.48687 0.14799 0.0
H1071 H 0.62801 0.56484 0.16254 0.0
H1072 H 0.6586 0.54226 0.10679 0.0
H1073 H 0.66566 0.35102 0.14473 0.0
H1074 H 0.60343 0.30744 0.16118 0.0
H1075 H 0.46587 0.39198 0.14365 0.0
H1076 H 0.52675 0.43493 0.12674 0.0
H1077 H 0.9031 0.41936 0.10501 0.0
H1078 H 0.81547 0.45287 0.11368 0.0
H1079 H 0.7321 0.31496 0.0954 0.0
H1080 H 0.82085 0.28075 0.08669 0.0
H1081 H 0.68693 0.34899 0.12119 0.0
H1082 H 0.72253 0.42389 0.07825 0.0
H1083 H 0.77872 0.46314 0.05983 0.0
H1084 H 0.8132 0.60485 0.08438 0.0
H1085 H 0.75801 0.56607 0.10304 0.0
C1086 C 0.56657 0.6099 0.13351 0.0
C1087 C 0.58521 0.61076 0.14699 0.0
C1088 C 0.57749 0.56446 0.12521 0.0
C1089 C 0.60815 0.51974 0.13021 0.0
C1090 C 0.62431 0.51985 0.1439 0.0
C1091 C 0.61294 0.56486 0.15219 0.0
C1092 C 0.63337 0.47902 0.12081 0.0
C1093 C 0.66341 0.49964 0.10977 0.0
C1094 C 0.63817 0.42254 0.12422 0.0
C1095 C 0.60117 0.39654 0.13441 0.0
C1096 C 0.62211 0.36004 0.14423 0.0
C1097 C 0.58698 0.33541 0.15367 0.0
C1098 C 0.53076 0.347 0.15346 0.0
C1099 C 0.5095 0.38321 0.14381 0.0
C1100 C 0.54433 0.40769 0.13428 0.0
C1101 C 0.86628 0.39556 0.10307 0.0
C1102 C 0.86849 0.34769 0.09518 0.0
C1103 C 0.81627 0.41471 0.108 0.0
C1104 C 0.76727 0.38703 0.10491 0.0
C1105 C 0.76951 0.33703 0.0978 0.0
C1106 C 0.82007 0.31749 0.0929 0.0
C1107 C 0.71448 0.41421 0.10822 0.0
C1108 C 0.6797 0.39095 0.11798 0.0
C1109 C 0.7035 0.4677 0.10333 0.0
C1110 C 0.736 0.49201 0.09205 0.0
C1111 C 0.74224 0.46334 0.07974 0.0
C1112 C 0.77395 0.4855 0.06926 0.0
C1113 C 0.79948 0.53647 0.07093 0.0
C1114 C 0.7933 0.56542 0.08309 0.0
C1115 C 0.76169 0.54341 0.09361 0.0
H1116 H 0.82406 0.55354 0.0628 0.0
H1117 H 0.50365 0.32791 0.16078 0.0
H1118 H 0.95035 0.64789 0.36319 0.0
H1119 H 0.93086 0.56702 0.37714 0.0
H1120 H 0.83074 0.50026 0.34495 0.0
H1121 H 0.85084 0.58079 0.33098 0.0
H1122 H 0.83037 0.55113 0.38525 0.0
H1123 H 0.81421 0.36212 0.34813 0.0
H1124 H 0.86946 0.31677 0.33041 0.0
H1125 H 0.01524 0.39457 0.3457 0.0
H1126 H 0.96096 0.43975 0.36359 0.0
H1127 H 0.61305 0.33316 0.38285 0.0
H1128 H 0.69894 0.36743 0.37296 0.0
H1129 H 0.76229 0.39861 0.41318 0.0
H1130 H 0.67522 0.36726 0.42298 0.0
H1131 H 0.80822 0.35448 0.37316 0.0
H1132 H 0.8258 0.52015 0.41372 0.0
H1133 H 0.77 0.5644 0.4316 0.0
H1134 H 0.62367 0.5372 0.40817 0.0
H1135 H 0.67871 0.49338 0.3901 0.0
C1136 C 0.92596 0.61484 0.35895 0.0
C1137 C 0.90239 0.61998 0.34602 0.0
C1138 C 0.91491 0.56862 0.3669 0.0
C1139 C 0.87989 0.52707 0.36206 0.0
C1140 C 0.85892 0.53098 0.34881 0.0
C1141 C 0.86982 0.57725 0.34089 0.0
C1142 C 0.85548 0.48663 0.37157 0.0
C1143 C 0.82714 0.50773 0.38282 0.0
C1144 C 0.85049 0.43013 0.36832 0.0
C1145 C 0.88329 0.40442 0.35726 0.0
C1146 C 0.85805 0.36936 0.34777 0.0
C1147 C 0.88923 0.34374 0.33766 0.0
C1148 C 0.94585 0.35284 0.33691 0.0
C1149 C 0.97134 0.38771 0.34625 0.0
C1150 C 0.94031 0.41343 0.35637 0.0
C1151 C 0.64585 0.34648 0.38952 0.0
C1152 C 0.63775 0.34855 0.4036 0.0
C1153 C 0.695 0.36563 0.38391 0.0
C1154 C 0.73657 0.38685 0.39233 0.0
C1155 C 0.73033 0.38361 0.40648 0.0
C1156 C 0.68074 0.36577 0.41207 0.0
C1157 C 0.78151 0.41999 0.38627 0.0
C1158 C 0.81331 0.39752 0.37574 0.0
C1159 C 0.78967 0.47557 0.39006 0.0
C1160 C 0.75625 0.50295 0.40067 0.0
C1161 C 0.78174 0.52382 0.41239 0.0
C1162 C 0.75026 0.5488 0.42254 0.0
C1163 C 0.69333 0.55349 0.42103 0.0
C1164 C 0.66776 0.53347 0.40933 0.0
C1165 C 0.69905 0.50857 0.39913 0.0
H1166 H 0.66902 0.57266 0.42893 0.0
H1167 H 0.96997 0.33286 0.32911 0.0
H1168 H 0.2939 0.30454 0.40895 0.0
H1169 H 0.20615 0.32971 0.39828 0.0
H1170 H 0.29279 0.43719 0.37077 0.0
H1171 H 0.38001 0.41081 0.3811 0.0
H1172 H 0.16146 0.42825 0.39836 0.0
H1173 H 0.22812 0.44616 0.34051 0.0
H1174 H 0.28022 0.39048 0.32408 0.0
H1175 H 0.25866 0.24744 0.349 0.0
H1176 H 0.20587 0.30185 0.36552 0.0
H1177 H 0.10833 0.67054 0.3673 0.0
H1178 H 0.13125 0.58369 0.37813 0.0
H1179 H 0.03894 0.4962 0.34756 0.0
H1180 H 0.01682 0.58388 0.33649 0.0
H1181 H 0.13564 0.45547 0.34889 0.0
H1182 H 0.00291 0.47667 0.38269 0.0
H1183 H 0.94277 0.52076 0.39965 0.0
H1184 H 0.08421 0.56987 0.42271 0.0
H1185 H 0.14513 0.52572 0.40593 0.0
C1186 C 0.29407 0.33199 0.40031 0.0
C1187 C 0.3435 0.35508 0.39565 0.0
C1188 C 0.24403 0.34674 0.39433 0.0
C1189 C 0.24299 0.3848 0.38363 0.0
C1190 C 0.29265 0.40683 0.37882 0.0
C1191 C 0.34242 0.39219 0.38479 0.0
C1192 C 0.19053 0.40713 0.37838 0.0
C1193 C 0.15519 0.43357 0.38754 0.0
C1194 C 0.18054 0.41138 0.36428 0.0
C1195 C 0.21247 0.37831 0.35428 0.0
C1196 C 0.23385 0.40273 0.34246 0.0
C1197 C 0.26378 0.37136 0.33313 0.0
C1198 C 0.27268 0.31545 0.33548 0.0
C1199 C 0.25175 0.29077 0.34718 0.0
C1200 C 0.22185 0.32191 0.35654 0.0
C1201 C 0.09184 0.63284 0.36309 0.0
C1202 C 0.06076 0.63371 0.35112 0.0
C1203 C 0.10427 0.58314 0.36939 0.0
C1204 C 0.08606 0.53315 0.36382 0.0
C1205 C 0.05291 0.53414 0.35214 0.0
C1206 C 0.04033 0.58415 0.34583 0.0
C1207 C 0.11056 0.48116 0.36889 0.0
C1208 C 0.1407 0.44885 0.35969 0.0
C1209 C 0.1147 0.47016 0.38295 0.0
C1210 C 0.07857 0.49791 0.393 0.0
C1211 C 0.02119 0.49715 0.39132 0.0
C1212 C 0.98695 0.52202 0.40093 0.0
C1213 C 0.00967 0.54831 0.41221 0.0
C1214 C 0.06666 0.54948 0.41396 0.0
C1215 C 0.10104 0.52424 0.40444 0.0
H1216 H 0.98311 0.56766 0.41963 0.0
H1217 H 0.29587 0.29127 0.32825 0.0
H1218 H 0.18655 0.40216 0.07354 0.0
H1219 H 0.27004 0.43349 0.0847 0.0
H1220 H 0.23668 0.32554 0.11853 0.0
H1221 H 0.14924 0.3001 0.10806 0.0
H1222 H 0.26032 0.41373 0.12825 0.0
H1223 H 0.34871 0.31098 0.09545 0.0
H1224 H 0.37546 0.27003 0.07364 0.0
H1225 H 0.42976 0.42757 0.05936 0.0
H1226 H 0.40278 0.46992 0.08105 0.0
H1227 H 0.46467 0.58043 0.1563 0.0
H1228 H 0.44283 0.49162 0.14574 0.0
H1229 H 0.38417 0.57596 0.11004 0.0
H1230 H 0.40559 0.66422 0.12057 0.0
H1231 H 0.43133 0.46896 0.1045 0.0
H1232 H 0.29576 0.56116 0.13601 0.0
H1233 H 0.27443 0.59653 0.15892 0.0
H1234 H 0.31985 0.44111 0.17629 0.0
H1235 H 0.34193 0.40516 0.15347 0.0
C1236 C 0.19745 0.38473 0.08329 0.0
C1237 C 0.16254 0.34714 0.08976 0.0
C1238 C 0.24574 0.40193 0.08959 0.0
C1239 C 0.26081 0.38085 0.10234 0.0
C1240 C 0.22651 0.34199 0.10863 0.0
C1241 C 0.17714 0.32636 0.10252 0.0
C1242 C 0.30774 0.40555 0.1098 0.0
C1243 C 0.29845 0.42382 0.12312 0.0
C1244 C 0.35805 0.41874 0.10328 0.0
C1245 C 0.37384 0.39377 0.09002 0.0
C1246 C 0.36614 0.33716 0.08768 0.0
C1247 C 0.38139 0.3136 0.07531 0.0
C1248 C 0.40438 0.34616 0.06512 0.0
C1249 C 0.41212 0.40236 0.06729 0.0
C1250 C 0.397 0.42615 0.07966 0.0
C1251 C 0.44873 0.57959 0.14604 0.0
C1252 C 0.43602 0.62866 0.13924 0.0
C1253 C 0.43673 0.529 0.13998 0.0
C1254 C 0.41172 0.52735 0.12713 0.0
C1255 C 0.40382 0.57635 0.11991 0.0
C1256 C 0.41533 0.6267 0.12598 0.0
C1257 C 0.382 0.47803 0.12243 0.0
C1258 C 0.39406 0.45606 0.10961 0.0
C1259 C 0.33513 0.45949 0.12951 0.0
C1260 C 0.32064 0.48067 0.14312 0.0
C1261 C 0.30115 0.53465 0.14474 0.0
C1262 C 0.28903 0.55479 0.15769 0.0
C1263 C 0.29582 0.5211 0.16905 0.0
C1264 C 0.31463 0.46715 0.16748 0.0
C1265 C 0.32693 0.44687 0.15455 0.0
H1266 H 0.28647 0.53677 0.17908 0.0
H1267 H 0.41615 0.32784 0.05554 0.0
H1268 H 0.13253 0.7399 0.88574 0.0
H1269 H 0.20793 0.71558 0.87057 0.0
H1270 H 0.28885 0.63059 0.90337 0.0
H1271 H 0.2143 0.657 0.91872 0.0
H1272 H 0.36237 0.66428 0.88213 0.0
H1273 H 0.19012 0.56503 0.88883 0.0
H1274 H 0.08886 0.56 0.88959 0.0
H1275 H 0.08022 0.61346 0.84811 0.0
H1276 H 0.1815 0.61968 0.8472 0.0
H1277 H 0.43967 0.39894 0.86068 0.0
H1278 H 0.41255 0.48786 0.87029 0.0
H1279 H 0.32701 0.52738 0.83313 0.0
H1280 H 0.35318 0.43795 0.82371 0.0
H1281 H 0.2605 0.53208 0.85334 0.0
H1282 H 0.43485 0.60981 0.84474 0.0
H1283 H 0.53549 0.62155 0.84403 0.0
H1284 H 0.54232 0.61352 0.88753 0.0
H1285 H 0.44193 0.6016 0.88852 0.0
C1286 C 0.16839 0.71971 0.88995 0.0
C1287 C 0.16827 0.701 0.90341 0.0
C1288 C 0.21124 0.70535 0.88124 0.0
C1289 C 0.25317 0.67031 0.88581 0.0
C1290 C 0.25676 0.65762 0.89967 0.0
C1291 C 0.21415 0.67255 0.90842 0.0
C1292 C 0.28295 0.63548 0.87596 0.0
C1293 C 0.34047 0.63589 0.87568 0.0
C1294 C 0.25392 0.59836 0.86755 0.0
C1295 C 0.1932 0.5934 0.86799 0.0
C1296 C 0.16656 0.57598 0.8799 0.0
C1297 C 0.10921 0.57293 0.88036 0.0
C1298 C 0.07813 0.58654 0.86892 0.0
C1299 C 0.10436 0.60306 0.85698 0.0
C1300 C 0.16171 0.60636 0.85648 0.0
C1301 C 0.41646 0.42751 0.85449 0.0
C1302 C 0.39847 0.41226 0.84151 0.0
C1303 C 0.40136 0.4784 0.8599 0.0
C1304 C 0.36805 0.51452 0.85238 0.0
C1305 C 0.35287 0.50029 0.83909 0.0
C1306 C 0.3676 0.4493 0.83374 0.0
C1307 C 0.3408 0.56136 0.85923 0.0
C1308 C 0.28312 0.56227 0.85922 0.0
C1309 C 0.36997 0.59989 0.86723 0.0
C1310 C 0.43078 0.60446 0.86669 0.0
C1311 C 0.45787 0.60999 0.85415 0.0
C1312 C 0.51487 0.61708 0.8537 0.0
C1313 C 0.54527 0.61854 0.86572 0.0
C1314 C 0.51879 0.61264 0.87822 0.0
C1315 C 0.4618 0.60586 0.87873 0.0
H1316 H 0.58931 0.62418 0.86534 0.0
H1317 H 0.03376 0.5841 0.86929 0.0
H1318 H 0.15894 0.389 0.6618 0.0
H1319 H 0.1862 0.46832 0.64831 0.0
H1320 H 0.06317 0.42757 0.61836 0.0
H1321 H 0.03768 0.34624 0.63163 0.0
H1322 H 0.15544 0.43988 0.60655 0.0
H1323 H 0.05784 0.54499 0.63704 0.0
H1324 H 0.0199 0.58376 0.65807 0.0
H1325 H 0.17929 0.64464 0.66912 0.0
H1326 H 0.21864 0.60598 0.64819 0.0
H1327 H 0.33097 0.69191 0.58584 0.0
H1328 H 0.24371 0.66067 0.59585 0.0
H1329 H 0.32359 0.51262 0.60966 0.0
H1330 H 0.41048 0.54436 0.60025 0.0
H1331 H 0.21625 0.62087 0.62427 0.0
H1332 H 0.24746 0.41007 0.59708 0.0
H1333 H 0.28204 0.37688 0.57502 0.0
H1334 H 0.2431 0.53232 0.55678 0.0
H1335 H 0.20737 0.56617 0.57866 0.0
C1336 C 0.13708 0.39756 0.65245 0.0
C1337 C 0.09577 0.362 0.64781 0.0
C1338 C 0.15218 0.44333 0.64482 0.0
C1339 C 0.12623 0.45457 0.63239 0.0
C1340 C 0.08341 0.42011 0.62798 0.0
C1341 C 0.06849 0.37398 0.63561 0.0
C1342 C 0.15009 0.49686 0.62327 0.0
C1343 C 0.16768 0.47984 0.61037 0.0
C1344 C 0.16437 0.55009 0.628 0.0
C1345 C 0.14128 0.57278 0.64085 0.0
C1346 C 0.08505 0.56653 0.64391 0.0
C1347 C 0.06321 0.5885 0.65586 0.0
C1348 C 0.09713 0.61671 0.66492 0.0
C1349 C 0.153 0.62296 0.66206 0.0
C1350 C 0.17507 0.60117 0.6501 0.0
C1351 C 0.33007 0.65365 0.59141 0.0
C1352 C 0.37763 0.62104 0.5925 0.0
C1353 C 0.28018 0.63562 0.59699 0.0
C1354 C 0.27729 0.58424 0.60341 0.0
C1355 C 0.32498 0.55227 0.60466 0.0
C1356 C 0.37454 0.57038 0.59925 0.0
C1357 C 0.22489 0.56105 0.60839 0.0
C1358 C 0.20211 0.58157 0.62043 0.0
C1359 C 0.20471 0.51151 0.60283 0.0
C1360 C 0.22478 0.49068 0.58954 0.0
C1361 C 0.24575 0.43702 0.58834 0.0
C1362 C 0.26569 0.41812 0.57587 0.0
C1363 C 0.26477 0.45246 0.56451 0.0
C1364 C 0.24383 0.50576 0.56559 0.0
C1365 C 0.22378 0.52484 0.57803 0.0
H1366 H 0.2803 0.43774 0.55488 0.0
H1367 H 0.08014 0.63368 0.67417 0.0
loop_
_geom_bond_atom_site_label_1
_geom_bond_atom_site_label_2
_geom_bond_distance
_geom_bond_site_symmetry_2
_ccdc_geom_bond_type
Zn0 O6 1.920 . S
Zn0 O12 1.898 1_455 S
Zn0 O15 1.905 . S
Zn1 O9 1.905 . S
Zn1 O10 1.898 1_655 S
Zn1 O18 1.920 . S
Zn2 O5 2.080 . S
Zn2 O8 2.114 1_455 S
Zn2 O11 2.120 . S
Zn2 O13 2.120 1_455 S
Zn2 O14 2.114 . S
Zn2 O17 2.080 1_455 S
C3 O8 1.166 . S
C3 O9 1.182 . S
C4 O10 1.167 . S
C4 O11 1.299 . S
O5 Zn2 2.080 . S
O5 C19 1.305 . S
O6 Zn0 1.920 . S
O6 C19 1.234 . S
C7 O12 1.167 . S
C7 O13 1.299 . S
O8 Zn2 2.114 1_655 S
O8 C3 1.166 . S
O9 Zn1 1.905 . S
O9 C3 1.182 . S
O10 Zn1 1.898 1_455 S
O10 C4 1.167 . S
O11 Zn2 2.120 . S
O11 C4 1.299 . S
O12 Zn0 1.898 1_655 S
O12 C7 1.167 . S
O13 Zn2 2.120 1_655 S
O13 C7 1.299 . S
O14 Zn2 2.114 . S
O14 C16 1.166 . S
O15 Zn0 1.905 . S
O15 C16 1.182 . S
C16 O14 1.166 . S
C16 O15 1.182 . S
O17 Zn2 2.080 1_655 S
O17 C20 1.305 . S
O18 Zn1 1.920 . S
O18 C20 1.234 . S
C19 O5 1.305 . S
C19 O6 1.234 . S
C20 O17 1.305 . S
C20 O18 1.234 . S
Zn21 O27 1.920 . S
Zn21 O33 1.898 . S
Zn21 O36 1.905 . S
Zn22 O30 1.905 . S
Zn22 O31 1.898 . S
Zn22 O39 1.920 . S
Zn23 O26 2.080 . S
Zn23 O29 2.114 1_455 S
Zn23 O32 2.120 1_455 S
Zn23 O34 2.120 . S
Zn23 O35 2.114 . S
Zn23 O38 2.080 1_455 S
C24 O29 1.166 . S
C24 O30 1.182 . S
C25 O31 1.167 . S
C25 O32 1.299 . S
O26 Zn23 2.080 . S
O26 C40 1.305 . S
O27 Zn21 1.920 . S
O27 C40 1.234 . S
C28 O33 1.167 . S
C28 O34 1.299 . S
O29 Zn23 2.114 1_655 S
O29 C24 1.166 . S
O30 Zn22 1.905 . S
O30 C24 1.182 . S
O31 Zn22 1.898 . S
O31 C25 1.167 . S
O32 Zn23 2.120 1_655 S
O32 C25 1.299 . S
O33 Zn21 1.898 . S
O33 C28 1.167 . S
O34 Zn23 2.120 . S
O34 C28 1.299 . S
O35 Zn23 2.114 . S
O35 C37 1.166 . S
O36 Zn21 1.905 . S
O36 C37 1.182 . S
C37 O35 1.166 . S
C37 O36 1.182 . S
O38 Zn23 2.080 1_655 S
O38 C41 1.305 . S
O39 Zn22 1.920 . S
O39 C41 1.234 . S
C40 O26 1.305 . S
C40 O27 1.234 . S
C41 O38 1.305 . S
C41 O39 1.234 . S
Zn42 O48 1.920 . S
Zn42 O54 1.898 . S
Zn42 O57 1.905 . S
Zn43 O51 1.905 . S
Zn43 O52 1.898 . S
Zn43 O60 1.920 . S
Zn44 O47 2.080 . S
Zn44 O50 2.114 . S
Zn44 O53 2.120 . S
Zn44 O55 2.120 . S
Zn44 O56 2.114 . S
Zn44 O59 2.080 . S
C45 O50 1.166 . S
C45 O51 1.182 . S
C46 O52 1.167 . S
C46 O53 1.299 . S
O47 Zn44 2.080 . S
O47 C61 1.305 . S
O48 Zn42 1.920 . S
O48 C61 1.234 . S
C49 O54 1.167 . S
C49 O55 1.299 . S
O50 Zn44 2.114 . S
O50 C45 1.166 . S
O51 Zn43 1.905 . S
O51 C45 1.182 . S
O52 Zn43 1.898 . S
O52 C46 1.167 . S
O53 Zn44 2.120 . S
O53 C46 1.299 . S
O54 Zn42 1.898 . S
O54 C49 1.167 . S
O55 Zn44 2.120 . S
O55 C49 1.299 . S
O56 Zn44 2.114 . S
O56 C58 1.166 . S
O57 Zn42 1.905 . S
O57 C58 1.182 . S
C58 O56 1.166 . S
C58 O57 1.182 . S
O59 Zn44 2.080 . S
O59 C62 1.305 . S
O60 Zn43 1.920 . S
O60 C62 1.234 . S
C61 O47 1.305 . S
C61 O48 1.234 . S
C62 O59 1.305 . S
C62 O60 1.234 . S
Zn63 O69 1.920 . S
Zn63 O75 1.898 . S
Zn63 O78 1.905 . S
Zn64 O72 1.905 . S
Zn64 O73 1.898 . S
Zn64 O81 1.920 . S
Zn65 O68 2.080 . S
Zn65 O71 2.114 . S
Zn65 O74 2.120 . S
Zn65 O76 2.120 . S
Zn65 O77 2.114 . S
Zn65 O80 2.080 . S
C66 O71 1.166 . S
C66 O72 1.182 . S
C67 O73 1.167 . S
C67 O74 1.299 . S
O68 Zn65 2.080 . S
O68 C82 1.305 . S
O69 Zn63 1.920 . S
O69 C82 1.234 . S
C70 O75 1.167 . S
C70 O76 1.299 . S
O71 Zn65 2.114 . S
O71 C66 1.166 . S
O72 Zn64 1.905 . S
O72 C66 1.182 . S
O73 Zn64 1.898 . S
O73 C67 1.167 . S
O74 Zn65 2.120 . S
O74 C67 1.299 . S
O75 Zn63 1.898 . S
O75 C70 1.167 . S
O76 Zn65 2.120 . S
O76 C70 1.299 . S
O77 Zn65 2.114 . S
O77 C79 1.166 . S
O78 Zn63 1.905 . S
O78 C79 1.182 . S
C79 O77 1.166 . S
C79 O78 1.182 . S
O80 Zn65 2.080 . S
O80 C83 1.305 . S
O81 Zn64 1.920 . S
O81 C83 1.234 . S
C82 O68 1.305 . S
C82 O69 1.234 . S
C83 O80 1.305 . S
C83 O81 1.234 . S
Zn84 O90 1.920 . S
Zn84 O96 1.898 1_455 S
Zn84 O99 1.905 . S
Zn85 O93 1.905 . S
Zn85 O94 1.898 1_655 S
Zn85 O102 1.920 . S
Zn86 O89 2.080 . S
Zn86 O92 2.114 1_455 S
Zn86 O95 2.120 . S
Zn86 O97 2.120 1_455 S
Zn86 O98 2.114 . S
Zn86 O101 2.080 1_455 S
C87 O92 1.166 . S
C87 O93 1.182 . S
C88 O94 1.167 . S
C88 O95 1.299 . S
O89 Zn86 2.080 . S
O89 C103 1.305 . S
O90 Zn84 1.920 . S
O90 C103 1.234 . S
C91 O96 1.167 . S
C91 O97 1.299 . S
O92 Zn86 2.114 1_655 S
O92 C87 1.166 . S
O93 Zn85 1.905 . S
O93 C87 1.182 . S
O94 Zn85 1.898 1_455 S
O94 C88 1.167 . S
O95 Zn86 2.120 . S
O95 C88 1.299 . S
O96 Zn84 1.898 1_655 S
O96 C91 1.167 . S
O97 Zn86 2.120 1_655 S
O97 C91 1.299 . S
O98 Zn86 2.114 . S
O98 C100 1.166 . S
O99 Zn84 1.905 . S
O99 C100 1.182 . S
C100 O98 1.166 . S
C100 O99 1.182 . S
O101 Zn86 2.080 1_655 S
O101 C104 1.305 . S
O102 Zn85 1.920 . S
O102 C104 1.234 . S
C103 O89 1.305 . S
C103 O90 1.234 . S
C104 O101 1.305 . S
C104 O102 1.234 . S
Zn105 O111 1.920 . S
Zn105 O117 1.898 . S
Zn105 O120 1.905 . S
Zn106 O114 1.905 . S
Zn106 O115 1.898 . S
Zn106 O123 1.920 . S
Zn107 O110 2.080 . S
Zn107 O113 2.114 . S
Zn107 O116 2.120 . S
Zn107 O118 2.120 . S
Zn107 O119 2.114 . S
Zn107 O122 2.080 . S
C108 O113 1.166 . S
C108 O114 1.182 . S
C109 O115 1.167 . S
C109 O116 1.299 . S
O110 Zn107 2.080 . S
O110 C124 1.305 . S
O111 Zn105 1.920 . S
O111 C124 1.234 . S
C112 O117 1.167 . S
C112 O118 1.299 . S
O113 Zn107 2.114 . S
O113 C108 1.166 . S
O114 Zn106 1.905 . S
O114 C108 1.182 . S
O115 Zn106 1.898 . S
O115 C109 1.167 . S
O116 Zn107 2.120 . S
O116 C109 1.299 . S
O117 Zn105 1.898 . S
O117 C112 1.167 . S
O118 Zn107 2.120 . S
O118 C112 1.299 . S
O119 Zn107 2.114 . S
O119 C121 1.166 . S
O120 Zn105 1.905 . S
O120 C121 1.182 . S
C121 O119 1.166 . S
C121 O120 1.182 . S
O122 Zn107 2.080 . S
O122 C125 1.305 . S
O123 Zn106 1.920 . S
O123 C125 1.234 . S
C124 O110 1.305 . S
C124 O111 1.234 . S
C125 O122 1.305 . S
C125 O123 1.234 . S
Zn126 O132 1.920 . S
Zn126 O138 1.898 . S
Zn126 O141 1.905 . S
Zn127 O135 1.905 . S
Zn127 O136 1.898 . S
Zn127 O144 1.920 . S
Zn128 O131 2.080 . S
Zn128 O134 2.114 . S
Zn128 O137 2.120 . S
Zn128 O139 2.120 . S
Zn128 O140 2.114 . S
Zn128 O143 2.080 . S
C129 O134 1.166 . S
C129 O135 1.182 . S
C130 O136 1.167 . S
C130 O137 1.299 . S
O131 Zn128 2.080 . S
O131 C145 1.305 . S
O132 Zn126 1.920 . S
O132 C145 1.234 . S
C133 O138 1.167 . S
C133 O139 1.299 . S
O134 Zn128 2.114 . S
O134 C129 1.166 . S
O135 Zn127 1.905 . S
O135 C129 1.182 . S
O136 Zn127 1.898 . S
O136 C130 1.167 . S
O137 Zn128 2.120 . S
O137 C130 1.299 . S
O138 Zn126 1.898 . S
O138 C133 1.167 . S
O139 Zn128 2.120 . S
O139 C133 1.299 . S
O140 Zn128 2.114 . S
O140 C142 1.166 . S
O141 Zn126 1.905 . S
O141 C142 1.182 . S
C142 O140 1.166 . S
C142 O141 1.182 . S
O143 Zn128 2.080 . S
O143 C146 1.305 . S
O144 Zn127 1.920 . S
O144 C146 1.234 . S
C145 O131 1.305 . S
C145 O132 1.234 . S
C146 O143 1.305 . S
C146 O144 1.234 . S
Zn147 O153 1.920 . S
Zn147 O159 1.898 . S
Zn147 O162 1.905 . S
Zn148 O156 1.905 . S
Zn148 O157 1.898 . S
Zn148 O165 1.920 . S
Zn149 O152 2.080 . S
Zn149 O155 2.114 1_455 S
Zn149 O158 2.120 1_455 S
Zn149 O160 2.120 . S
Zn149 O161 2.114 . S
Zn149 O164 2.080 1_455 S
C150 O155 1.166 . S
C150 O156 1.182 . S
C151 O157 1.167 . S
C151 O158 1.299 . S
O152 Zn149 2.080 . S
O152 C166 1.305 . S
O153 Zn147 1.920 . S
O153 C166 1.234 . S
C154 O159 1.167 . S
C154 O160 1.299 . S
O155 Zn149 2.114 1_655 S
O155 C150 1.166 . S
O156 Zn148 1.905 . S
O156 C150 1.182 . S
O157 Zn148 1.898 . S
O157 C151 1.167 . S
O158 Zn149 2.120 1_655 S
O158 C151 1.299 . S
O159 Zn147 1.898 . S
O159 C154 1.167 . S
O160 Zn149 2.120 . S
O160 C154 1.299 . S
O161 Zn149 2.114 . S
O161 C163 1.166 . S
O162 Zn147 1.905 . S
O162 C163 1.182 . S
C163 O161 1.166 . S
C163 O162 1.182 . S
O164 Zn149 2.080 1_655 S
O164 C167 1.305 . S
O165 Zn148 1.920 . S
O165 C167 1.234 . S
C166 O152 1.305 . S
C166 O153 1.234 . S
C167 O164 1.305 . S
C167 O165 1.234 . S
H168 C186 0.951 . S
H169 C188 0.951 . S
H170 C190 0.950 . S
H171 C191 0.950 . S
H172 C193 0.950 . S
H173 C196 0.950 1_554 S
H174 C197 0.950 . S
H175 C199 0.950 . S
H176 C200 0.950 . S
H177 C201 0.951 . S
H178 C203 0.951 . S
H179 C205 0.950 . S
H180 C206 0.950 . S
H181 C208 0.950 . S
H182 C211 0.950 1_656 S
H183 C212 0.950 . S
H184 C214 0.950 . S
H185 C215 0.950 . S
C186 H168 0.951 . S
C186 C187 1.366 1_655 S
C186 C188 1.388 . S
C187 C186 1.366 1_455 S
C187 C191 1.385 . S
C188 H169 0.951 . S
C188 C186 1.388 . S
C188 C189 1.366 1_655 S
C189 C188 1.366 1_455 S
C189 C190 1.414 . S
C189 C192 1.499 . S
C190 H170 0.950 . S
C190 C189 1.414 . S
C190 C191 1.374 . S
C191 H171 0.950 . S
C191 C187 1.385 . S
C191 C190 1.374 . S
C192 C189 1.499 . S
C192 C193 1.373 . S
C192 C194 1.389 1_554 S
C193 H172 0.950 . S
C193 C192 1.373 . S
C193 C209 1.377 . S
C194 C192 1.389 1_556 S
C194 C195 1.524 . S
C194 C208 1.377 . S
C195 C194 1.524 . S
C195 C196 1.397 . S
C195 C200 1.363 1_455 S
C196 H173 0.950 1_556 S
C196 C195 1.397 . S
C196 C197 1.334 . S
C197 H174 0.950 . S
C197 C196 1.334 . S
C197 C198 1.287 1_455 S
C198 C197 1.287 1_655 S
C198 C199 1.524 . S
C198 H217 0.913 . S
C199 H175 0.950 . S
C199 C198 1.524 . S
C199 C200 1.415 . S
C200 H176 0.950 . S
C200 C195 1.363 1_655 S
C200 C199 1.415 . S
C201 H177 0.951 . S
C201 C202 1.366 . S
C201 C203 1.388 . S
C202 C201 1.366 . S
C202 C206 1.385 1_455 S
C203 H178 0.951 . S
C203 C201 1.388 . S
C203 C204 1.366 . S
C204 C203 1.366 . S
C204 C205 1.414 1_455 S
C204 C207 1.499 . S
C205 H179 0.950 . S
C205 C204 1.414 1_655 S
C205 C206 1.374 . S
C206 H180 0.950 . S
C206 C202 1.385 1_655 S
C206 C205 1.374 . S
C207 C204 1.499 . S
C207 C208 1.373 . S
C207 C209 1.389 1_556 S
C208 H181 0.950 . S
C208 C194 1.377 . S
C208 C207 1.373 . S
C209 C193 1.377 . S
C209 C207 1.389 1_554 S
C209 C210 1.524 . S
C210 C209 1.524 . S
C210 C211 1.397 . S
C210 C215 1.363 . S
C211 H182 0.950 1_454 S
C211 C210 1.397 . S
C211 C212 1.334 . S
C212 H183 0.950 . S
C212 C211 1.334 . S
C212 C213 1.287 . S
C213 C212 1.287 . S
C213 C214 1.524 . S
C213 H216 0.999 . S
C214 H184 0.950 . S
C214 C213 1.524 . S
C214 C215 1.415 . S
C215 H185 0.950 . S
C215 C210 1.363 . S
C215 C214 1.415 . S
H216 C213 0.999 . S
H217 C198 0.913 . S
H218 C236 0.951 . S
H219 C238 0.951 . S
H220 C240 0.950 . S
H221 C241 0.950 . S
H222 C243 0.950 . S
H223 C246 0.950 . S
H224 C247 0.950 . S
H225 C249 0.950 . S
H226 C250 0.950 . S
H227 C251 0.951 . S
H228 C253 0.951 . S
H229 C255 0.950 . S
H230 C256 0.950 . S
H231 C258 0.950 . S
H232 C261 0.950 . S
H233 C262 0.950 . S
H234 C264 0.950 . S
H235 C265 0.950 . S
C236 H218 0.951 . S
C236 C237 1.366 . S
C236 C238 1.388 . S
C237 C236 1.366 . S
C237 C241 1.385 . S
C238 H219 0.951 . S
C238 C236 1.388 . S
C238 C239 1.366 . S
C239 C238 1.366 . S
C239 C240 1.414 . S
C239 C242 1.499 . S
C240 H220 0.950 . S
C240 C239 1.414 . S
C240 C241 1.374 . S
C241 H221 0.950 . S
C241 C237 1.385 . S
C241 C240 1.374 . S
C242 C239 1.499 . S
C242 C243 1.373 . S
C242 C244 1.389 . S
C243 H222 0.950 . S
C243 C242 1.373 . S
C243 C259 1.377 . S
C244 C242 1.389 . S
C244 C245 1.524 . S
C244 C258 1.377 . S
C245 C244 1.524 . S
C245 C246 1.397 . S
C245 C250 1.363 . S
C246 H223 0.950 . S
C246 C245 1.397 . S
C246 C247 1.334 . S
C247 H224 0.950 . S
C247 C246 1.334 . S
C247 C248 1.287 . S
C248 C247 1.287 . S
C248 C249 1.524 . S
C248 H267 0.913 . S
C249 H225 0.950 . S
C249 C248 1.524 . S
C249 C250 1.415 . S
C250 H226 0.950 . S
C250 C245 1.363 . S
C250 C249 1.415 . S
C251 H227 0.951 . S
C251 C252 1.366 . S
C251 C253 1.388 . S
C252 C251 1.366 . S
C252 C256 1.385 . S
C253 H228 0.951 . S
C253 C251 1.388 . S
C253 C254 1.366 . S
C254 C253 1.366 . S
C254 C255 1.414 . S
C254 C257 1.499 . S
C255 H229 0.950 . S
C255 C254 1.414 . S
C255 C256 1.374 . S
C256 H230 0.950 . S
C256 C252 1.385 . S
C256 C255 1.374 . S
C257 C254 1.499 . S
C257 C258 1.373 . S
C257 C259 1.389 . S
C258 H231 0.950 . S
C258 C244 1.377 . S
C258 C257 1.373 . S
C259 C243 1.377 . S
C259 C257 1.389 . S
C259 C260 1.524 . S
C260 C259 1.524 . S
C260 C261 1.397 . S
C260 C265 1.363 . S
C261 H232 0.950 . S
C261 C260 1.397 . S
C261 C262 1.334 . S
C262 H233 0.950 . S
C262 C261 1.334 . S
C262 C263 1.287 . S
C263 C262 1.287 . S
C263 C264 1.524 . S
C263 H266 0.999 . S
C264 H234 0.950 . S
C264 C263 1.524 . S
C264 C265 1.415 . S
C265 H235 0.950 . S
C265 C260 1.363 . S
C265 C264 1.415 . S
H266 C263 0.999 . S
H267 C248 0.913 . S
H268 C286 0.951 . S
H269 C288 0.951 . S
H270 C290 0.950 . S
H271 C291 0.950 . S
H272 C293 0.950 . S
H273 C296 0.950 . S
H274 C297 0.950 . S
H275 C299 0.950 . S
H276 C300 0.950 . S
H277 C301 0.951 . S
H278 C303 0.951 . S
H279 C305 0.950 . S
H280 C306 0.950 . S
H281 C308 0.950 . S
H282 C311 0.950 . S
H283 C312 0.950 . S
H284 C314 0.950 . S
H285 C315 0.950 . S
C286 H268 0.951 . S
C286 C287 1.366 . S
C286 C288 1.388 . S
C287 C286 1.366 . S
C287 C291 1.385 . S
C288 H269 0.951 . S
C288 C286 1.388 . S
C288 C289 1.366 . S
C289 C288 1.366 . S
C289 C290 1.414 . S
C289 C292 1.499 . S
C290 H270 0.950 . S
C290 C289 1.414 . S
C290 C291 1.374 . S
C291 H271 0.950 . S
C291 C287 1.385 . S
C291 C290 1.374 . S
C292 C289 1.499 . S
C292 C293 1.373 . S
C292 C294 1.389 . S
C293 H272 0.950 . S
C293 C292 1.373 . S
C293 C309 1.377 . S
C294 C292 1.389 . S
C294 C295 1.524 . S
C294 C308 1.377 . S
C295 C294 1.524 . S
C295 C296 1.397 . S
C295 C300 1.363 . S
C296 H273 0.950 . S
C296 C295 1.397 . S
C296 C297 1.334 . S
C297 H274 0.950 . S
C297 C296 1.334 . S
C297 C298 1.287 . S
C298 C297 1.287 . S
C298 C299 1.524 . S
C298 H317 0.913 . S
C299 H275 0.950 . S
C299 C298 1.524 . S
C299 C300 1.415 . S
C300 H276 0.950 . S
C300 C295 1.363 . S
C300 C299 1.415 . S
C301 H277 0.951 . S
C301 C302 1.366 . S
C301 C303 1.388 . S
C302 C301 1.366 . S
C302 C306 1.385 . S
C303 H278 0.951 . S
C303 C301 1.388 . S
C303 C304 1.366 . S
C304 C303 1.366 . S
C304 C305 1.414 . S
C304 C307 1.499 . S
C305 H279 0.950 . S
C305 C304 1.414 . S
C305 C306 1.374 . S
C306 H280 0.950 . S
C306 C302 1.385 . S
C306 C305 1.374 . S
C307 C304 1.499 . S
C307 C308 1.373 . S
C307 C309 1.389 . S
C308 H281 0.950 . S
C308 C294 1.377 . S
C308 C307 1.373 . S
C309 C293 1.377 . S
C309 C307 1.389 . S
C309 C310 1.524 . S
C310 C309 1.524 . S
C310 C311 1.397 . S
C310 C315 1.363 . S
C311 H282 0.950 . S
C311 C310 1.397 . S
C311 C312 1.334 . S
C312 H283 0.950 . S
C312 C311 1.334 . S
C312 C313 1.287 . S
C313 C312 1.287 . S
C313 C314 1.524 . S
C313 H316 0.999 . S
C314 H284 0.950 . S
C314 C313 1.524 . S
C314 C315 1.415 . S
C315 H285 0.950 . S
C315 C310 1.363 . S
C315 C314 1.415 . S
H316 C313 0.999 . S
H317 C298 0.913 . S
H318 C336 0.951 . S
H319 C338 0.951 . S
H320 C340 0.950 . S
H321 C341 0.950 . S
H322 C343 0.950 . S
H323 C346 0.950 . S
H324 C347 0.950 . S
H325 C349 0.950 1_565 S
H326 C350 0.950 . S
H327 C351 0.951 . S
H328 C353 0.951 . S
H329 C355 0.950 . S
H330 C356 0.950 . S
H331 C358 0.950 . S
H332 C361 0.950 . S
H333 C362 0.950 . S
H334 C364 0.950 . S
H335 C365 0.950 . S
C336 H318 0.951 . S
C336 C337 1.366 . S
C336 C338 1.388 . S
C337 C336 1.366 . S
C337 C341 1.385 . S
C338 H319 0.951 . S
C338 C336 1.388 . S
C338 C339 1.366 . S
C339 C338 1.366 . S
C339 C340 1.414 . S
C339 C342 1.499 . S
C340 H320 0.950 . S
C340 C339 1.414 . S
C340 C341 1.374 . S
C341 H321 0.950 . S
C341 C337 1.385 . S
C341 C340 1.374 . S
C342 C339 1.499 . S
C342 C343 1.373 . S
C342 C344 1.389 . S
C343 H322 0.950 . S
C343 C342 1.373 . S
C343 C359 1.377 . S
C344 C342 1.389 . S
C344 C345 1.524 . S
C344 C358 1.377 . S
C345 C344 1.524 . S
C345 C346 1.397 . S
C345 C350 1.363 . S
C346 H323 0.950 . S
C346 C345 1.397 . S
C346 C347 1.334 . S
C347 H324 0.950 . S
C347 C346 1.334 . S
C347 C348 1.287 . S
C348 C347 1.287 . S
C348 C349 1.524 . S
C348 H367 0.913 1_545 S
C349 H325 0.950 1_545 S
C349 C348 1.524 . S
C349 C350 1.415 . S
C350 H326 0.950 . S
C350 C345 1.363 . S
C350 C349 1.415 . S
C351 H327 0.951 . S
C351 C352 1.366 . S
C351 C353 1.388 . S
C352 C351 1.366 . S
C352 C356 1.385 . S
C353 H328 0.951 . S
C353 C351 1.388 . S
C353 C354 1.366 . S
C354 C353 1.366 . S
C354 C355 1.414 . S
C354 C357 1.499 . S
C355 H329 0.950 . S
C355 C354 1.414 . S
C355 C356 1.374 . S
C356 H330 0.950 . S
C356 C352 1.385 . S
C356 C355 1.374 . S
C357 C354 1.499 . S
C357 C358 1.373 . S
C357 C359 1.389 . S
C358 H331 0.950 . S
C358 C344 1.377 . S
C358 C357 1.373 . S
C359 C343 1.377 . S
C359 C357 1.389 . S
C359 C360 1.524 . S
C360 C359 1.524 . S
C360 C361 1.397 . S
C360 C365 1.363 . S
C361 H332 0.950 . S
C361 C360 1.397 . S
C361 C362 1.334 . S
C362 H333 0.950 . S
C362 C361 1.334 . S
C362 C363 1.287 . S
C363 C362 1.287 . S
C363 C364 1.524 . S
C363 H366 0.999 . S
C364 H334 0.950 . S
C364 C363 1.524 . S
C364 C365 1.415 . S
C365 H335 0.950 . S
C365 C360 1.363 . S
C365 C364 1.415 . S
H366 C363 0.999 . S
H367 C348 0.913 1_565 S
H368 C386 0.951 . S
H369 C388 0.951 . S
H370 C390 0.950 . S
H371 C391 0.950 . S
H372 C393 0.950 . S
H373 C396 0.950 . S
H374 C397 0.950 . S
H375 C399 0.950 . S
H376 C400 0.950 . S
H377 C401 0.951 . S
H378 C403 0.951 . S
H379 C405 0.950 . S
H380 C406 0.950 . S
H381 C408 0.950 . S
H382 C411 0.950 . S
H383 C412 0.950 . S
H384 C414 0.950 . S
H385 C415 0.950 . S
C386 H368 0.951 . S
C386 C387 1.366 . S
C386 C388 1.388 . S
C387 C386 1.366 . S
C387 C391 1.385 . S
C388 H369 0.951 . S
C388 C386 1.388 . S
C388 C389 1.366 . S
C389 C388 1.366 . S
C389 C390 1.414 . S
C389 C392 1.499 . S
C390 H370 0.950 . S
C390 C389 1.414 . S
C390 C391 1.374 . S
C391 H371 0.950 . S
C391 C387 1.385 . S
C391 C390 1.374 . S
C392 C389 1.499 . S
C392 C393 1.373 . S
C392 C394 1.389 . S
C393 H372 0.950 . S
C393 C392 1.373 . S
C393 C409 1.377 . S
C394 C392 1.389 . S
C394 C395 1.524 . S
C394 C408 1.377 . S
C395 C394 1.524 . S
C395 C396 1.397 . S
C395 C400 1.363 . S
C396 H373 0.950 . S
C396 C395 1.397 . S
C396 C397 1.334 . S
C397 H374 0.950 . S
C397 C396 1.334 . S
C397 C398 1.287 . S
C398 C397 1.287 . S
C398 C399 1.524 . S
C398 H417 0.913 . S
C399 H375 0.950 . S
C399 C398 1.524 . S
C399 C400 1.415 . S
C400 H376 0.950 . S
C400 C395 1.363 . S
C400 C399 1.415 . S
C401 H377 0.951 . S
C401 C402 1.366 . S
C401 C403 1.388 . S
C402 C401 1.366 . S
C402 C406 1.385 . S
C403 H378 0.951 . S
C403 C401 1.388 . S
C403 C404 1.366 . S
C404 C403 1.366 . S
C404 C405 1.414 . S
C404 C407 1.499 . S
C405 H379 0.950 . S
C405 C404 1.414 . S
C405 C406 1.374 . S
C406 H380 0.950 . S
C406 C402 1.385 . S
C406 C405 1.374 . S
C407 C404 1.499 . S
C407 C408 1.373 . S
C407 C409 1.389 . S
C408 H381 0.950 . S
C408 C394 1.377 . S
C408 C407 1.373 . S
C409 C393 1.377 . S
C409 C407 1.389 . S
C409 C410 1.524 . S
C410 C409 1.524 . S
C410 C411 1.397 . S
C410 C415 1.363 . S
C411 H382 0.950 . S
C411 C410 1.397 . S
C411 C412 1.334 . S
C412 H383 0.950 . S
C412 C411 1.334 . S
C412 C413 1.287 . S
C413 C412 1.287 . S
C413 C414 1.524 . S
C413 H416 0.999 . S
C414 H384 0.950 . S
C414 C413 1.524 . S
C414 C415 1.415 . S
C415 H385 0.950 . S
C415 C410 1.363 . S
C415 C414 1.415 . S
H416 C413 0.999 . S
H417 C398 0.913 . S
H418 C436 0.951 . S
H419 C438 0.951 . S
H420 C440 0.950 . S
H421 C441 0.950 . S
H422 C443 0.950 . S
H423 C446 0.950 . S
H424 C447 0.950 . S
H425 C449 0.950 . S
H426 C450 0.950 . S
H427 C451 0.951 . S
H428 C453 0.951 . S
H429 C455 0.950 . S
H430 C456 0.950 . S
H431 C458 0.950 . S
H432 C461 0.950 . S
H433 C462 0.950 . S
H434 C464 0.950 . S
H435 C465 0.950 . S
C436 H418 0.951 . S
C436 C437 1.366 . S
C436 C438 1.388 . S
C437 C436 1.366 . S
C437 C441 1.385 . S
C438 H419 0.951 . S
C438 C436 1.388 . S
C438 C439 1.366 . S
C439 C438 1.366 . S
C439 C440 1.414 . S
C439 C442 1.499 . S
C440 H420 0.950 . S
C440 C439 1.414 . S
C440 C441 1.374 . S
C441 H421 0.950 . S
C441 C437 1.385 . S
C441 C440 1.374 . S
C442 C439 1.499 . S
C442 C443 1.373 . S
C442 C444 1.389 . S
C443 H422 0.950 . S
C443 C442 1.373 . S
C443 C459 1.377 . S
C444 C442 1.389 . S
C444 C445 1.524 . S
C444 C458 1.377 . S
C445 C444 1.524 . S
C445 C446 1.397 . S
C445 C450 1.363 . S
C446 H423 0.950 . S
C446 C445 1.397 . S
C446 C447 1.334 . S
C447 H424 0.950 . S
C447 C446 1.334 . S
C447 C448 1.287 . S
C448 C447 1.287 . S
C448 C449 1.524 . S
C448 H467 0.913 . S
C449 H425 0.950 . S
C449 C448 1.524 . S
C449 C450 1.415 . S
C450 H426 0.950 . S
C450 C445 1.363 . S
C450 C449 1.415 . S
C451 H427 0.951 . S
C451 C452 1.366 . S
C451 C453 1.388 . S
C452 C451 1.366 . S
C452 C456 1.385 . S
C453 H428 0.951 . S
C453 C451 1.388 . S
C453 C454 1.366 . S
C454 C453 1.366 . S
C454 C455 1.414 . S
C454 C457 1.499 . S
C455 H429 0.950 . S
C455 C454 1.414 . S
C455 C456 1.374 . S
C456 H430 0.950 . S
C456 C452 1.385 . S
C456 C455 1.374 . S
C457 C454 1.499 . S
C457 C458 1.373 . S
C457 C459 1.389 . S
C458 H431 0.950 . S
C458 C444 1.377 . S
C458 C457 1.373 . S
C459 C443 1.377 . S
C459 C457 1.389 . S
C459 C460 1.524 . S
C460 C459 1.524 . S
C460 C461 1.397 . S
C460 C465 1.363 . S
C461 H432 0.950 . S
C461 C460 1.397 . S
C461 C462 1.334 . S
C462 H433 0.950 . S
C462 C461 1.334 . S
C462 C463 1.287 . S
C463 C462 1.287 . S
C463 C464 1.524 . S
C463 H466 0.999 . S
C464 H434 0.950 . S
C464 C463 1.524 . S
C464 C465 1.415 . S
C465 H435 0.950 . S
C465 C460 1.363 . S
C465 C464 1.415 . S
H466 C463 0.999 . S
H467 C448 0.913 . S
H468 C486 0.951 . S
H469 C488 0.951 . S
H470 C490 0.950 . S
H471 C491 0.950 . S
H472 C493 0.950 . S
H473 C496 0.950 . S
H474 C497 0.950 . S
H475 C499 0.950 . S
H476 C500 0.950 . S
H477 C501 0.951 . S
H478 C503 0.951 . S
H479 C505 0.950 . S
H480 C506 0.950 . S
H481 C508 0.950 . S
H482 C511 0.950 . S
H483 C512 0.950 . S
H484 C514 0.950 . S
H485 C515 0.950 . S
C486 H468 0.951 . S
C486 C487 1.366 . S
C486 C488 1.388 . S
C487 C486 1.366 . S
C487 C491 1.385 . S
C488 H469 0.951 . S
C488 C486 1.388 . S
C488 C489 1.366 . S
C489 C488 1.366 . S
C489 C490 1.414 . S
C489 C492 1.499 . S
C490 H470 0.950 . S
C490 C489 1.414 . S
C490 C491 1.374 . S
C491 H471 0.950 . S
C491 C487 1.385 . S
C491 C490 1.374 . S
C492 C489 1.499 . S
C492 C493 1.373 1_545 S
C492 C494 1.389 . S
C493 H472 0.950 . S
C493 C492 1.373 1_565 S
C493 C509 1.377 . S
C494 C492 1.389 . S
C494 C495 1.524 . S
C494 C508 1.377 . S
C495 C494 1.524 . S
C495 C496 1.397 . S
C495 C500 1.363 . S
C496 H473 0.950 . S
C496 C495 1.397 . S
C496 C497 1.334 . S
C497 H474 0.950 . S
C497 C496 1.334 . S
C497 C498 1.287 . S
C498 C497 1.287 . S
C498 C499 1.524 . S
C498 H517 0.913 . S
C499 H475 0.950 . S
C499 C498 1.524 . S
C499 C500 1.415 . S
C500 H476 0.950 . S
C500 C495 1.363 . S
C500 C499 1.415 . S
C501 H477 0.951 . S
C501 C502 1.366 . S
C501 C503 1.388 . S
C502 C501 1.366 . S
C502 C506 1.385 . S
C503 H478 0.951 . S
C503 C501 1.388 . S
C503 C504 1.366 . S
C504 C503 1.366 . S
C504 C505 1.414 . S
C504 C507 1.499 . S
C505 H479 0.950 . S
C505 C504 1.414 . S
C505 C506 1.374 . S
C506 H480 0.950 . S
C506 C502 1.385 . S
C506 C505 1.374 . S
C507 C504 1.499 . S
C507 C508 1.373 1_565 S
C507 C509 1.389 . S
C508 H481 0.950 . S
C508 C494 1.377 . S
C508 C507 1.373 1_545 S
C509 C493 1.377 . S
C509 C507 1.389 . S
C509 C510 1.524 . S
C510 C509 1.524 . S
C510 C511 1.397 . S
C510 C515 1.363 . S
C511 H482 0.950 . S
C511 C510 1.397 . S
C511 C512 1.334 . S
C512 H483 0.950 . S
C512 C511 1.334 . S
C512 C513 1.287 . S
C513 C512 1.287 . S
C513 C514 1.524 . S
C513 H516 0.999 . S
C514 H484 0.950 . S
C514 C513 1.524 . S
C514 C515 1.415 . S
C515 H485 0.950 . S
C515 C510 1.363 . S
C515 C514 1.415 . S
H516 C513 0.999 . S
H517 C498 0.913 . S
H518 C536 0.951 1_455 S
H519 C538 0.951 1_455 S
H520 C540 0.950 . S
H521 C541 0.950 . S
H522 C543 0.950 . S
H523 C546 0.950 . S
H524 C547 0.950 1_554 S
H525 C549 0.950 . S
H526 C550 0.950 . S
H527 C551 0.951 . S
H528 C553 0.951 . S
H529 C555 0.950 1_455 S
H530 C556 0.950 1_455 S
H531 C558 0.950 . S
H532 C561 0.950 . S
H533 C562 0.950 1_556 S
H534 C564 0.950 . S
H535 C565 0.950 . S
C536 H518 0.951 1_655 S
C536 C537 1.366 . S
C536 C538 1.388 . S
C537 C536 1.366 . S
C537 C541 1.385 . S
C538 H519 0.951 1_655 S
C538 C536 1.388 . S
C538 C539 1.366 . S
C539 C538 1.366 . S
C539 C540 1.414 . S
C539 C542 1.499 . S
C540 H520 0.950 . S
C540 C539 1.414 . S
C540 C541 1.374 . S
C541 H521 0.950 . S
C541 C537 1.385 . S
C541 C540 1.374 . S
C542 C539 1.499 . S
C542 C543 1.373 1_545 S
C542 C544 1.389 1_554 S
C543 H522 0.950 . S
C543 C542 1.373 1_565 S
C543 C559 1.377 . S
C544 C542 1.389 1_556 S
C544 C545 1.524 . S
C544 C558 1.377 . S
C545 C544 1.524 . S
C545 C546 1.397 1_556 S
C545 C550 1.363 . S
C546 H523 0.950 . S
C546 C545 1.397 1_554 S
C546 C547 1.334 1_554 S
C547 H524 0.950 1_556 S
C547 C546 1.334 1_556 S
C547 C548 1.287 . S
C548 C547 1.287 . S
C548 C549 1.524 . S
C548 H567 0.913 . S
C549 H525 0.950 . S
C549 C548 1.524 . S
C549 C550 1.415 . S
C550 H526 0.950 . S
C550 C545 1.363 . S
C550 C549 1.415 . S
C551 H527 0.951 . S
C551 C552 1.366 . S
C551 C553 1.388 . S
C552 C551 1.366 . S
C552 C556 1.385 . S
C553 H528 0.951 . S
C553 C551 1.388 . S
C553 C554 1.366 . S
C554 C553 1.366 . S
C554 C555 1.414 . S
C554 C557 1.499 . S
C555 H529 0.950 1_655 S
C555 C554 1.414 . S
C555 C556 1.374 . S
C556 H530 0.950 1_655 S
C556 C552 1.385 . S
C556 C555 1.374 . S
C557 C554 1.499 . S
C557 C558 1.373 1_565 S
C557 C559 1.389 1_556 S
C558 H531 0.950 . S
C558 C544 1.377 . S
C558 C557 1.373 1_545 S
C559 C543 1.377 . S
C559 C557 1.389 1_554 S
C559 C560 1.524 . S
C560 C559 1.524 . S
C560 C561 1.397 1_654 S
C560 C565 1.363 . S
C561 H532 0.950 . S
C561 C560 1.397 1_456 S
C561 C562 1.334 1_556 S
C562 H533 0.950 1_554 S
C562 C561 1.334 1_554 S
C562 C563 1.287 . S
C563 C562 1.287 . S
C563 C564 1.524 1_455 S
C563 H566 0.999 . S
C564 H534 0.950 . S
C564 C563 1.524 1_655 S
C564 C565 1.415 . S
C565 H535 0.950 . S
C565 C560 1.363 . S
C565 C564 1.415 . S
H566 C563 0.999 . S
H567 C548 0.913 . S
H568 C586 0.951 . S
H569 C588 0.951 . S
H570 C590 0.950 . S
H571 C591 0.950 . S
H572 C593 0.950 . S
H573 C596 0.950 . S
H574 C597 0.950 . S
H575 C599 0.950 . S
H576 C600 0.950 . S
H577 C601 0.951 . S
H578 C603 0.951 . S
H579 C605 0.950 . S
H580 C606 0.950 . S
H581 C608 0.950 1_565 S
H582 C611 0.950 . S
H583 C612 0.950 . S
H584 C614 0.950 . S
H585 C615 0.950 . S
C586 H568 0.951 . S
C586 C587 1.366 . S
C586 C588 1.388 . S
C587 C586 1.366 . S
C587 C591 1.385 . S
C588 H569 0.951 . S
C588 C586 1.388 . S
C588 C589 1.366 . S
C589 C588 1.366 . S
C589 C590 1.414 . S
C589 C592 1.499 . S
C590 H570 0.950 . S
C590 C589 1.414 . S
C590 C591 1.374 . S
C591 H571 0.950 . S
C591 C587 1.385 . S
C591 C590 1.374 . S
C592 C589 1.499 . S
C592 C593 1.373 1_565 S
C592 C594 1.389 . S
C593 H572 0.950 . S
C593 C592 1.373 1_545 S
C593 C609 1.377 . S
C594 C592 1.389 . S
C594 C595 1.524 . S
C594 C608 1.377 1_565 S
C595 C594 1.524 . S
C595 C596 1.397 . S
C595 C600 1.363 . S
C596 H573 0.950 . S
C596 C595 1.397 . S
C596 C597 1.334 . S
C597 H574 0.950 . S
C597 C596 1.334 . S
C597 C598 1.287 . S
C598 C597 1.287 . S
C598 C599 1.524 . S
C598 H617 0.913 . S
C599 H575 0.950 . S
C599 C598 1.524 . S
C599 C600 1.415 . S
C600 H576 0.950 . S
C600 C595 1.363 . S
C600 C599 1.415 . S
C601 H577 0.951 . S
C601 C602 1.366 . S
C601 C603 1.388 . S
C602 C601 1.366 . S
C602 C606 1.385 . S
C603 H578 0.951 . S
C603 C601 1.388 . S
C603 C604 1.366 . S
C604 C603 1.366 . S
C604 C605 1.414 . S
C604 C607 1.499 . S
C605 H579 0.950 . S
C605 C604 1.414 . S
C605 C606 1.374 . S
C606 H580 0.950 . S
C606 C602 1.385 . S
C606 C605 1.374 . S
C607 C604 1.499 . S
C607 C608 1.373 . S
C607 C609 1.389 . S
C608 H581 0.950 1_545 S
C608 C594 1.377 1_545 S
C608 C607 1.373 . S
C609 C593 1.377 . S
C609 C607 1.389 . S
C609 C610 1.524 . S
C610 C609 1.524 . S
C610 C611 1.397 . S
C610 C615 1.363 . S
C611 H582 0.950 . S
C611 C610 1.397 . S
C611 C612 1.334 . S
C612 H583 0.950 . S
C612 C611 1.334 . S
C612 C613 1.287 . S
C613 C612 1.287 . S
C613 C614 1.524 . S
C613 H616 0.999 . S
C614 H584 0.950 . S
C614 C613 1.524 . S
C614 C615 1.415 . S
C615 H585 0.950 . S
C615 C610 1.363 . S
C615 C614 1.415 . S
H616 C613 0.999 . S
H617 C598 0.913 . S
H618 C636 0.951 . S
H619 C638 0.951 . S
H620 C640 0.950 . S
H621 C641 0.950 . S
H622 C643 0.950 . S
H623 C646 0.950 . S
H624 C647 0.950 . S
H625 C649 0.950 . S
H626 C650 0.950 . S
H627 C651 0.951 . S
H628 C653 0.951 . S
H629 C655 0.950 . S
H630 C656 0.950 . S
H631 C658 0.950 . S
H632 C661 0.950 . S
H633 C662 0.950 . S
H634 C664 0.950 . S
H635 C665 0.950 . S
C636 H618 0.951 . S
C636 C637 1.366 . S
C636 C638 1.388 . S
C637 C636 1.366 . S
C637 C641 1.385 . S
C638 H619 0.951 . S
C638 C636 1.388 . S
C638 C639 1.366 . S
C639 C638 1.366 . S
C639 C640 1.414 . S
C639 C642 1.499 . S
C640 H620 0.950 . S
C640 C639 1.414 . S
C640 C641 1.374 . S
C641 H621 0.950 . S
C641 C637 1.385 . S
C641 C640 1.374 . S
C642 C639 1.499 . S
C642 C643 1.373 1_565 S
C642 C644 1.389 . S
C643 H622 0.950 . S
C643 C642 1.373 1_545 S
C643 C659 1.377 . S
C644 C642 1.389 . S
C644 C645 1.524 . S
C644 C658 1.377 . S
C645 C644 1.524 . S
C645 C646 1.397 . S
C645 C650 1.363 . S
C646 H623 0.950 . S
C646 C645 1.397 . S
C646 C647 1.334 . S
C647 H624 0.950 . S
C647 C646 1.334 . S
C647 C648 1.287 . S
C648 C647 1.287 . S
C648 C649 1.524 . S
C648 H667 0.913 . S
C649 H625 0.950 . S
C649 C648 1.524 . S
C649 C650 1.415 . S
C650 H626 0.950 . S
C650 C645 1.363 . S
C650 C649 1.415 . S
C651 H627 0.951 . S
C651 C652 1.366 . S
C651 C653 1.388 . S
C652 C651 1.366 . S
C652 C656 1.385 . S
C653 H628 0.951 . S
C653 C651 1.388 . S
C653 C654 1.366 . S
C654 C653 1.366 . S
C654 C655 1.414 . S
C654 C657 1.499 . S
C655 H629 0.950 . S
C655 C654 1.414 . S
C655 C656 1.374 . S
C656 H630 0.950 . S
C656 C652 1.385 . S
C656 C655 1.374 . S
C657 C654 1.499 . S
C657 C658 1.373 1_545 S
C657 C659 1.389 . S
C658 H631 0.950 . S
C658 C644 1.377 . S
C658 C657 1.373 1_565 S
C659 C643 1.377 . S
C659 C657 1.389 . S
C659 C660 1.524 . S
C660 C659 1.524 . S
C660 C661 1.397 . S
C660 C665 1.363 . S
C661 H632 0.950 . S
C661 C660 1.397 . S
C661 C662 1.334 . S
C662 H633 0.950 . S
C662 C661 1.334 . S
C662 C663 1.287 . S
C663 C662 1.287 . S
C663 C664 1.524 . S
C663 H666 0.999 . S
C664 H634 0.950 . S
C664 C663 1.524 . S
C664 C665 1.415 . S
C665 H635 0.950 . S
C665 C660 1.363 . S
C665 C664 1.415 . S
H666 C663 0.999 . S
H667 C648 0.913 . S
H668 C686 0.951 . S
H669 C688 0.951 . S
H670 C690 0.950 . S
H671 C691 0.950 . S
H672 C693 0.950 . S
H673 C696 0.950 . S
H674 C697 0.950 . S
H675 C699 0.950 . S
H676 C700 0.950 . S
H677 C701 0.951 . S
H678 C703 0.951 . S
H679 C705 0.950 . S
H680 C706 0.950 . S
H681 C708 0.950 . S
H682 C711 0.950 . S
H683 C712 0.950 . S
H684 C714 0.950 . S
H685 C715 0.950 . S
C686 H668 0.951 . S
C686 C687 1.366 . S
C686 C688 1.388 . S
C687 C686 1.366 . S
C687 C691 1.385 . S
C688 H669 0.951 . S
C688 C686 1.388 . S
C688 C689 1.366 . S
C689 C688 1.366 . S
C689 C690 1.414 . S
C689 C692 1.499 . S
C690 H670 0.950 . S
C690 C689 1.414 . S
C690 C691 1.374 . S
C691 H671 0.950 . S
C691 C687 1.385 . S
C691 C690 1.374 . S
C692 C689 1.499 . S
C692 C693 1.373 1_545 S
C692 C694 1.389 . S
C693 H672 0.950 . S
C693 C692 1.373 1_565 S
C693 C709 1.377 . S
C694 C692 1.389 . S
C694 C695 1.524 . S
C694 C708 1.377 1_545 S
C695 C694 1.524 . S
C695 C696 1.397 . S
C695 C700 1.363 . S
C696 H673 0.950 . S
C696 C695 1.397 . S
C696 C697 1.334 . S
C697 H674 0.950 . S
C697 C696 1.334 . S
C697 C698 1.287 . S
C698 C697 1.287 . S
C698 C699 1.524 . S
C698 H717 0.913 . S
C699 H675 0.950 . S
C699 C698 1.524 . S
C699 C700 1.415 . S
C700 H676 0.950 . S
C700 C695 1.363 . S
C700 C699 1.415 . S
C701 H677 0.951 . S
C701 C702 1.366 . S
C701 C703 1.388 . S
C702 C701 1.366 . S
C702 C706 1.385 . S
C703 H678 0.951 . S
C703 C701 1.388 . S
C703 C704 1.366 . S
C704 C703 1.366 . S
C704 C705 1.414 . S
C704 C707 1.499 . S
C705 H679 0.950 . S
C705 C704 1.414 . S
C705 C706 1.374 . S
C706 H680 0.950 . S
C706 C702 1.385 . S
C706 C705 1.374 . S
C707 C704 1.499 . S
C707 C708 1.373 . S
C707 C709 1.389 . S
C708 H681 0.950 . S
C708 C694 1.377 1_565 S
C708 C707 1.373 . S
C709 C693 1.377 . S
C709 C707 1.389 . S
C709 C710 1.524 . S
C710 C709 1.524 . S
C710 C711 1.397 . S
C710 C715 1.363 . S
C711 H682 0.950 . S
C711 C710 1.397 . S
C711 C712 1.334 . S
C712 H683 0.950 . S
C712 C711 1.334 . S
C712 C713 1.287 . S
C713 C712 1.287 . S
C713 C714 1.524 . S
C713 H716 0.999 . S
C714 H684 0.950 . S
C714 C713 1.524 . S
C714 C715 1.415 . S
C715 H685 0.950 . S
C715 C710 1.363 . S
C715 C714 1.415 . S
H716 C713 0.999 . S
H717 C698 0.913 . S
H718 C736 0.951 . S
H719 C738 0.951 . S
H720 C740 0.950 . S
H721 C741 0.950 . S
H722 C743 0.950 . S
H723 C746 0.950 . S
H724 C747 0.950 . S
H725 C749 0.950 . S
H726 C750 0.950 . S
H727 C751 0.951 . S
H728 C753 0.951 . S
H729 C755 0.950 . S
H730 C756 0.950 . S
H731 C758 0.950 . S
H732 C761 0.950 . S
H733 C762 0.950 . S
H734 C764 0.950 . S
H735 C765 0.950 . S
C736 H718 0.951 . S
C736 C737 1.366 . S
C736 C738 1.388 . S
C737 C736 1.366 . S
C737 C741 1.385 . S
C738 H719 0.951 . S
C738 C736 1.388 . S
C738 C739 1.366 . S
C739 C738 1.366 . S
C739 C740 1.414 . S
C739 C742 1.499 . S
C740 H720 0.950 . S
C740 C739 1.414 . S
C740 C741 1.374 . S
C741 H721 0.950 . S
C741 C737 1.385 . S
C741 C740 1.374 . S
C742 C739 1.499 . S
C742 C743 1.373 1_565 S
C742 C744 1.389 . S
C743 H722 0.950 . S
C743 C742 1.373 1_545 S
C743 C759 1.377 . S
C744 C742 1.389 . S
C744 C745 1.524 . S
C744 C758 1.377 . S
C745 C744 1.524 . S
C745 C746 1.397 . S
C745 C750 1.363 . S
C746 H723 0.950 . S
C746 C745 1.397 . S
C746 C747 1.334 . S
C747 H724 0.950 . S
C747 C746 1.334 . S
C747 C748 1.287 . S
C748 C747 1.287 . S
C748 C749 1.524 . S
C748 H767 0.913 . S
C749 H725 0.950 . S
C749 C748 1.524 . S
C749 C750 1.415 . S
C750 H726 0.950 . S
C750 C745 1.363 . S
C750 C749 1.415 . S
C751 H727 0.951 . S
C751 C752 1.366 . S
C751 C753 1.388 . S
C752 C751 1.366 . S
C752 C756 1.385 . S
C753 H728 0.951 . S
C753 C751 1.388 . S
C753 C754 1.366 . S
C754 C753 1.366 . S
C754 C755 1.414 . S
C754 C757 1.499 . S
C755 H729 0.950 . S
C755 C754 1.414 . S
C755 C756 1.374 . S
C756 H730 0.950 . S
C756 C752 1.385 . S
C756 C755 1.374 . S
C757 C754 1.499 . S
C757 C758 1.373 1_545 S
C757 C759 1.389 . S
C758 H731 0.950 . S
C758 C744 1.377 . S
C758 C757 1.373 1_565 S
C759 C743 1.377 . S
C759 C757 1.389 . S
C759 C760 1.524 . S
C760 C759 1.524 . S
C760 C761 1.397 . S
C760 C765 1.363 . S
C761 H732 0.950 . S
C761 C760 1.397 . S
C761 C762 1.334 . S
C762 H733 0.950 . S
C762 C761 1.334 . S
C762 C763 1.287 . S
C763 C762 1.287 . S
C763 C764 1.524 . S
C763 H766 0.999 . S
C764 H734 0.950 . S
C764 C763 1.524 . S
C764 C765 1.415 . S
C765 H735 0.950 . S
C765 C760 1.363 . S
C765 C764 1.415 . S
H766 C763 0.999 . S
H767 C748 0.913 . S
H768 C786 0.951 . S
H769 C788 0.951 . S
H770 C790 0.950 . S
H771 C791 0.950 . S
H772 C793 0.950 . S
H773 C796 0.950 . S
H774 C797 0.950 . S
H775 C799 0.950 . S
H776 C800 0.950 . S
H777 C801 0.951 . S
H778 C803 0.951 . S
H779 C805 0.950 . S
H780 C806 0.950 . S
H781 C808 0.950 . S
H782 C811 0.950 . S
H783 C812 0.950 . S
H784 C814 0.950 . S
H785 C815 0.950 . S
C786 H768 0.951 . S
C786 C787 1.366 . S
C786 C788 1.388 . S
C787 C786 1.366 . S
C787 C791 1.385 . S
C788 H769 0.951 . S
C788 C786 1.388 . S
C788 C789 1.366 . S
C789 C788 1.366 . S
C789 C790 1.414 . S
C789 C792 1.499 . S
C790 H770 0.950 . S
C790 C789 1.414 . S
C790 C791 1.374 . S
C791 H771 0.950 . S
C791 C787 1.385 . S
C791 C790 1.374 . S
C792 C789 1.499 . S
C792 C793 1.373 1_565 S
C792 C794 1.389 . S
C793 H772 0.950 . S
C793 C792 1.373 1_545 S
C793 C809 1.377 . S
C794 C792 1.389 . S
C794 C795 1.524 . S
C794 C808 1.377 . S
C795 C794 1.524 . S
C795 C796 1.397 . S
C795 C800 1.363 . S
C796 H773 0.950 . S
C796 C795 1.397 . S
C796 C797 1.334 . S
C797 H774 0.950 . S
C797 C796 1.334 . S
C797 C798 1.287 . S
C798 C797 1.287 . S
C798 C799 1.524 . S
C798 H817 0.913 . S
C799 H775 0.950 . S
C799 C798 1.524 . S
C799 C800 1.415 . S
C800 H776 0.950 . S
C800 C795 1.363 . S
C800 C799 1.415 . S
C801 H777 0.951 . S
C801 C802 1.366 . S
C801 C803 1.388 . S
C802 C801 1.366 . S
C802 C806 1.385 . S
C803 H778 0.951 . S
C803 C801 1.388 . S
C803 C804 1.366 . S
C804 C803 1.366 . S
C804 C805 1.414 . S
C804 C807 1.499 . S
C805 H779 0.950 . S
C805 C804 1.414 . S
C805 C806 1.374 . S
C806 H780 0.950 . S
C806 C802 1.385 . S
C806 C805 1.374 . S
C807 C804 1.499 . S
C807 C808 1.373 1_545 S
C807 C809 1.389 . S
C808 H781 0.950 . S
C808 C794 1.377 . S
C808 C807 1.373 1_565 S
C809 C793 1.377 . S
C809 C807 1.389 . S
C809 C810 1.524 . S
C810 C809 1.524 . S
C810 C811 1.397 . S
C810 C815 1.363 . S
C811 H782 0.950 . S
C811 C810 1.397 . S
C811 C812 1.334 . S
C812 H783 0.950 . S
C812 C811 1.334 . S
C812 C813 1.287 . S
C813 C812 1.287 . S
C813 C814 1.524 . S
C813 H816 0.999 . S
C814 H784 0.950 . S
C814 C813 1.524 . S
C814 C815 1.415 . S
C815 H785 0.950 . S
C815 C810 1.363 . S
C815 C814 1.415 . S
H816 C813 0.999 . S
H817 C798 0.913 . S
H818 C836 0.951 . S
H819 C838 0.951 . S
H820 C840 0.950 . S
H821 C841 0.950 . S
H822 C843 0.950 . S
H823 C846 0.950 . S
H824 C847 0.950 . S
H825 C849 0.950 . S
H826 C850 0.950 1_565 S
H827 C851 0.951 . S
H828 C853 0.951 . S
H829 C855 0.950 . S
H830 C856 0.950 . S
H831 C858 0.950 . S
H832 C861 0.950 . S
H833 C862 0.950 . S
H834 C864 0.950 . S
H835 C865 0.950 1_545 S
C836 H818 0.951 . S
C836 C837 1.366 . S
C836 C838 1.388 . S
C837 C836 1.366 . S
C837 C841 1.385 . S
C838 H819 0.951 . S
C838 C836 1.388 . S
C838 C839 1.366 . S
C839 C838 1.366 . S
C839 C840 1.414 . S
C839 C842 1.499 . S
C840 H820 0.950 . S
C840 C839 1.414 . S
C840 C841 1.374 . S
C841 H821 0.950 . S
C841 C837 1.385 . S
C841 C840 1.374 . S
C842 C839 1.499 . S
C842 C843 1.373 . S
C842 C844 1.389 . S
C843 H822 0.950 . S
C843 C842 1.373 . S
C843 C859 1.377 1_545 S
C844 C842 1.389 . S
C844 C845 1.524 . S
C844 C858 1.377 1_545 S
C845 C844 1.524 . S
C845 C846 1.397 . S
C845 C850 1.363 . S
C846 H823 0.950 . S
C846 C845 1.397 . S
C846 C847 1.334 . S
C847 H824 0.950 . S
C847 C846 1.334 . S
C847 C848 1.287 . S
C848 C847 1.287 . S
C848 C849 1.524 . S
C848 H867 0.913 . S
C849 H825 0.950 . S
C849 C848 1.524 . S
C849 C850 1.415 . S
C850 H826 0.950 1_545 S
C850 C845 1.363 . S
C850 C849 1.415 . S
C851 H827 0.951 . S
C851 C852 1.366 . S
C851 C853 1.388 . S
C852 C851 1.366 . S
C852 C856 1.385 . S
C853 H828 0.951 . S
C853 C851 1.388 . S
C853 C854 1.366 . S
C854 C853 1.366 . S
C854 C855 1.414 . S
C854 C857 1.499 . S
C855 H829 0.950 . S
C855 C854 1.414 . S
C855 C856 1.374 . S
C856 H830 0.950 . S
C856 C852 1.385 . S
C856 C855 1.374 . S
C857 C854 1.499 . S
C857 C858 1.373 . S
C857 C859 1.389 . S
C858 H831 0.950 . S
C858 C844 1.377 1_565 S
C858 C857 1.373 . S
C859 C843 1.377 1_565 S
C859 C857 1.389 . S
C859 C860 1.524 . S
C860 C859 1.524 . S
C860 C861 1.397 . S
C860 C865 1.363 . S
C861 H832 0.950 . S
C861 C860 1.397 . S
C861 C862 1.334 . S
C862 H833 0.950 . S
C862 C861 1.334 . S
C862 C863 1.287 . S
C863 C862 1.287 . S
C863 C864 1.524 . S
C863 H866 0.999 . S
C864 H834 0.950 . S
C864 C863 1.524 . S
C864 C865 1.415 . S
C865 H835 0.950 1_565 S
C865 C860 1.363 . S
C865 C864 1.415 . S
H866 C863 0.999 . S
H867 C848 0.913 . S
H868 C886 0.951 . S
H869 C888 0.951 . S
H870 C890 0.950 . S
H871 C891 0.950 . S
H872 C893 0.950 . S
H873 C896 0.950 . S
H874 C897 0.950 . S
H875 C899 0.950 . S
H876 C900 0.950 1_545 S
H877 C901 0.951 . S
H878 C903 0.951 . S
H879 C905 0.950 . S
H880 C906 0.950 . S
H881 C908 0.950 . S
H882 C911 0.950 . S
H883 C912 0.950 . S
H884 C914 0.950 . S
H885 C915 0.950 1_565 S
C886 H868 0.951 . S
C886 C887 1.366 . S
C886 C888 1.388 . S
C887 C886 1.366 . S
C887 C891 1.385 . S
C888 H869 0.951 . S
C888 C886 1.388 . S
C888 C889 1.366 . S
C889 C888 1.366 . S
C889 C890 1.414 . S
C889 C892 1.499 . S
C890 H870 0.950 . S
C890 C889 1.414 . S
C890 C891 1.374 . S
C891 H871 0.950 . S
C891 C887 1.385 . S
C891 C890 1.374 . S
C892 C889 1.499 . S
C892 C893 1.373 . S
C892 C894 1.389 . S
C893 H872 0.950 . S
C893 C892 1.373 . S
C893 C909 1.377 1_565 S
C894 C892 1.389 . S
C894 C895 1.524 . S
C894 C908 1.377 1_565 S
C895 C894 1.524 . S
C895 C896 1.397 . S
C895 C900 1.363 . S
C896 H873 0.950 . S
C896 C895 1.397 . S
C896 C897 1.334 . S
C897 H874 0.950 . S
C897 C896 1.334 . S
C897 C898 1.287 . S
C898 C897 1.287 . S
C898 C899 1.524 . S
C898 H917 0.913 . S
C899 H875 0.950 . S
C899 C898 1.524 . S
C899 C900 1.415 . S
C900 H876 0.950 1_565 S
C900 C895 1.363 . S
C900 C899 1.415 . S
C901 H877 0.951 . S
C901 C902 1.366 . S
C901 C903 1.388 . S
C902 C901 1.366 . S
C902 C906 1.385 . S
C903 H878 0.951 . S
C903 C901 1.388 . S
C903 C904 1.366 . S
C904 C903 1.366 . S
C904 C905 1.414 . S
C904 C907 1.499 . S
C905 H879 0.950 . S
C905 C904 1.414 . S
C905 C906 1.374 . S
C906 H880 0.950 . S
C906 C902 1.385 . S
C906 C905 1.374 . S
C907 C904 1.499 . S
C907 C908 1.373 . S
C907 C909 1.389 . S
C908 H881 0.950 . S
C908 C894 1.377 1_545 S
C908 C907 1.373 . S
C909 C893 1.377 1_545 S
C909 C907 1.389 . S
C909 C910 1.524 . S
C910 C909 1.524 . S
C910 C911 1.397 . S
C910 C915 1.363 . S
C911 H882 0.950 . S
C911 C910 1.397 . S
C911 C912 1.334 . S
C912 H883 0.950 . S
C912 C911 1.334 . S
C912 C913 1.287 . S
C913 C912 1.287 . S
C913 C914 1.524 . S
C913 H916 0.999 . S
C914 H884 0.950 . S
C914 C913 1.524 . S
C914 C915 1.415 . S
C915 H885 0.950 1_545 S
C915 C910 1.363 . S
C915 C914 1.415 . S
H916 C913 0.999 . S
H917 C898 0.913 . S
H918 C936 0.951 . S
H919 C938 0.951 . S
H920 C940 0.950 . S
H921 C941 0.950 . S
H922 C943 0.950 . S
H923 C946 0.950 . S
H924 C947 0.950 . S
H925 C949 0.950 . S
H926 C950 0.950 . S
H927 C951 0.951 . S
H928 C953 0.951 . S
H929 C955 0.950 . S
H930 C956 0.950 . S
H931 C958 0.950 . S
H932 C961 0.950 . S
H933 C962 0.950 . S
H934 C964 0.950 . S
H935 C965 0.950 . S
C936 H918 0.951 . S
C936 C937 1.366 . S
C936 C938 1.388 . S
C937 C936 1.366 . S
C937 C941 1.385 . S
C938 H919 0.951 . S
C938 C936 1.388 . S
C938 C939 1.366 . S
C939 C938 1.366 . S
C939 C940 1.414 . S
C939 C942 1.499 . S
C940 H920 0.950 . S
C940 C939 1.414 . S
C940 C941 1.374 . S
C941 H921 0.950 . S
C941 C937 1.385 . S
C941 C940 1.374 . S
C942 C939 1.499 . S
C942 C943 1.373 1_565 S
C942 C944 1.389 . S
C943 H922 0.950 . S
C943 C942 1.373 1_545 S
C943 C959 1.377 . S
C944 C942 1.389 . S
C944 C945 1.524 . S
C944 C958 1.377 . S
C945 C944 1.524 . S
C945 C946 1.397 . S
C945 C950 1.363 . S
C946 H923 0.950 . S
C946 C945 1.397 . S
C946 C947 1.334 . S
C947 H924 0.950 . S
C947 C946 1.334 . S
C947 C948 1.287 . S
C948 C947 1.287 . S
C948 C949 1.524 . S
C948 H967 0.913 . S
C949 H925 0.950 . S
C949 C948 1.524 . S
C949 C950 1.415 . S
C950 H926 0.950 . S
C950 C945 1.363 . S
C950 C949 1.415 . S
C951 H927 0.951 . S
C951 C952 1.366 . S
C951 C953 1.388 . S
C952 C951 1.366 . S
C952 C956 1.385 . S
C953 H928 0.951 . S
C953 C951 1.388 . S
C953 C954 1.366 . S
C954 C953 1.366 . S
C954 C955 1.414 . S
C954 C957 1.499 . S
C955 H929 0.950 . S
C955 C954 1.414 . S
C955 C956 1.374 . S
C956 H930 0.950 . S
C956 C952 1.385 . S
C956 C955 1.374 . S
C957 C954 1.499 . S
C957 C958 1.373 1_545 S
C957 C959 1.389 . S
C958 H931 0.950 . S
C958 C944 1.377 . S
C958 C957 1.373 1_565 S
C959 C943 1.377 . S
C959 C957 1.389 . S
C959 C960 1.524 . S
C960 C959 1.524 . S
C960 C961 1.397 . S
C960 C965 1.363 . S
C961 H932 0.950 . S
C961 C960 1.397 . S
C961 C962 1.334 . S
C962 H933 0.950 . S
C962 C961 1.334 . S
C962 C963 1.287 . S
C963 C962 1.287 . S
C963 C964 1.524 . S
C963 H966 0.999 . S
C964 H934 0.950 . S
C964 C963 1.524 . S
C964 C965 1.415 . S
C965 H935 0.950 . S
C965 C960 1.363 . S
C965 C964 1.415 . S
H966 C963 0.999 . S
H967 C948 0.913 . S
H968 C986 0.951 . S
H969 C988 0.951 . S
H970 C990 0.950 . S
H971 C991 0.950 . S
H972 C993 0.950 . S
H973 C996 0.950 . S
H974 C997 0.950 . S
H975 C999 0.950 . S
H976 C1000 0.950 . S
H977 C1001 0.951 . S
H978 C1003 0.951 . S
H979 C1005 0.950 . S
H980 C1006 0.950 . S
H981 C1008 0.950 . S
H982 C1011 0.950 . S
H983 C1012 0.950 . S
H984 C1014 0.950 . S
H985 C1015 0.950 . S
C986 H968 0.951 . S
C986 C987 1.366 . S
C986 C988 1.388 . S
C987 C986 1.366 . S
C987 C991 1.385 . S
C988 H969 0.951 . S
C988 C986 1.388 . S
C988 C989 1.366 . S
C989 C988 1.366 . S
C989 C990 1.414 . S
C989 C992 1.499 . S
C990 H970 0.950 . S
C990 C989 1.414 . S
C990 C991 1.374 . S
C991 H971 0.950 . S
C991 C987 1.385 . S
C991 C990 1.374 . S
C992 C989 1.499 . S
C992 C993 1.373 . S
C992 C994 1.389 . S
C993 H972 0.950 . S
C993 C992 1.373 . S
C993 C1009 1.377 . S
C994 C992 1.389 . S
C994 C995 1.524 . S
C994 C1008 1.377 . S
C995 C994 1.524 . S
C995 C996 1.397 . S
C995 C1000 1.363 . S
C996 H973 0.950 . S
C996 C995 1.397 . S
C996 C997 1.334 . S
C997 H974 0.950 . S
C997 C996 1.334 . S
C997 C998 1.287 . S
C998 C997 1.287 . S
C998 C999 1.524 . S
C998 H1017 0.913 . S
C999 H975 0.950 . S
C999 C998 1.524 . S
C999 C1000 1.415 . S
C1000 H976 0.950 . S
C1000 C995 1.363 . S
C1000 C999 1.415 . S
C1001 H977 0.951 . S
C1001 C1002 1.366 . S
C1001 C1003 1.388 . S
C1002 C1001 1.366 . S
C1002 C1006 1.385 . S
C1003 H978 0.951 . S
C1003 C1001 1.388 . S
C1003 C1004 1.366 . S
C1004 C1003 1.366 . S
C1004 C1005 1.414 . S
C1004 C1007 1.499 . S
C1005 H979 0.950 . S
C1005 C1004 1.414 . S
C1005 C1006 1.374 . S
C1006 H980 0.950 . S
C1006 C1002 1.385 . S
C1006 C1005 1.374 . S
C1007 C1004 1.499 . S
C1007 C1008 1.373 . S
C1007 C1009 1.389 . S
C1008 H981 0.950 . S
C1008 C994 1.377 . S
C1008 C1007 1.373 . S
C1009 C993 1.377 . S
C1009 C1007 1.389 . S
C1009 C1010 1.524 . S
C1010 C1009 1.524 . S
C1010 C1011 1.397 . S
C1010 C1015 1.363 . S
C1011 H982 0.950 . S
C1011 C1010 1.397 . S
C1011 C1012 1.334 . S
C1012 H983 0.950 . S
C1012 C1011 1.334 . S
C1012 C1013 1.287 . S
C1013 C1012 1.287 . S
C1013 C1014 1.524 . S
C1013 H1016 0.999 . S
C1014 H984 0.950 . S
C1014 C1013 1.524 . S
C1014 C1015 1.415 . S
C1015 H985 0.950 . S
C1015 C1010 1.363 . S
C1015 C1014 1.415 . S
H1016 C1013 0.999 . S
H1017 C998 0.913 . S
H1018 C1036 0.951 . S
H1019 C1038 0.951 . S
H1020 C1040 0.950 . S
H1021 C1041 0.950 . S
H1022 C1043 0.950 . S
H1023 C1046 0.950 . S
H1024 C1047 0.950 . S
H1025 C1049 0.950 . S
H1026 C1050 0.950 . S
H1027 C1051 0.951 . S
H1028 C1053 0.951 . S
H1029 C1055 0.950 . S
H1030 C1056 0.950 . S
H1031 C1058 0.950 . S
H1032 C1061 0.950 . S
H1033 C1062 0.950 . S
H1034 C1064 0.950 . S
H1035 C1065 0.950 . S
C1036 H1018 0.951 . S
C1036 C1037 1.366 . S
C1036 C1038 1.388 . S
C1037 C1036 1.366 . S
C1037 C1041 1.385 . S
C1038 H1019 0.951 . S
C1038 C1036 1.388 . S
C1038 C1039 1.366 . S
C1039 C1038 1.366 . S
C1039 C1040 1.414 . S
C1039 C1042 1.499 . S
C1040 H1020 0.950 . S
C1040 C1039 1.414 . S
C1040 C1041 1.374 . S
C1041 H1021 0.950 . S
C1041 C1037 1.385 . S
C1041 C1040 1.374 . S
C1042 C1039 1.499 . S
C1042 C1043 1.373 . S
C1042 C1044 1.389 . S
C1043 H1022 0.950 . S
C1043 C1042 1.373 . S
C1043 C1059 1.377 . S
C1044 C1042 1.389 . S
C1044 C1045 1.524 . S
C1044 C1058 1.377 . S
C1045 C1044 1.524 . S
C1045 C1046 1.397 . S
C1045 C1050 1.363 . S
C1046 H1023 0.950 . S
C1046 C1045 1.397 . S
C1046 C1047 1.334 . S
C1047 H1024 0.950 . S
C1047 C1046 1.334 . S
C1047 C1048 1.287 . S
C1048 C1047 1.287 . S
C1048 C1049 1.524 . S
C1048 H1067 0.913 . S
C1049 H1025 0.950 . S
C1049 C1048 1.524 . S
C1049 C1050 1.415 . S
C1050 H1026 0.950 . S
C1050 C1045 1.363 . S
C1050 C1049 1.415 . S
C1051 H1027 0.951 . S
C1051 C1052 1.366 . S
C1051 C1053 1.388 . S
C1052 C1051 1.366 . S
C1052 C1056 1.385 . S
C1053 H1028 0.951 . S
C1053 C1051 1.388 . S
C1053 C1054 1.366 . S
C1054 C1053 1.366 . S
C1054 C1055 1.414 . S
C1054 C1057 1.499 . S
C1055 H1029 0.950 . S
C1055 C1054 1.414 . S
C1055 C1056 1.374 . S
C1056 H1030 0.950 . S
C1056 C1052 1.385 . S
C1056 C1055 1.374 . S
C1057 C1054 1.499 . S
C1057 C1058 1.373 . S
C1057 C1059 1.389 . S
C1058 H1031 0.950 . S
C1058 C1044 1.377 . S
C1058 C1057 1.373 . S
C1059 C1043 1.377 . S
C1059 C1057 1.389 . S
C1059 C1060 1.524 . S
C1060 C1059 1.524 . S
C1060 C1061 1.397 . S
C1060 C1065 1.363 . S
C1061 H1032 0.950 . S
C1061 C1060 1.397 . S
C1061 C1062 1.334 . S
C1062 H1033 0.950 . S
C1062 C1061 1.334 . S
C1062 C1063 1.287 . S
C1063 C1062 1.287 . S
C1063 C1064 1.524 . S
C1063 H1066 0.999 . S
C1064 H1034 0.950 . S
C1064 C1063 1.524 . S
C1064 C1065 1.415 . S
C1065 H1035 0.950 . S
C1065 C1060 1.363 . S
C1065 C1064 1.415 . S
H1066 C1063 0.999 . S
H1067 C1048 0.913 . S
H1068 C1086 0.951 . S
H1069 C1088 0.951 . S
H1070 C1090 0.950 . S
H1071 C1091 0.950 . S
H1072 C1093 0.950 . S
H1073 C1096 0.950 . S
H1074 C1097 0.950 . S
H1075 C1099 0.950 . S
H1076 C1100 0.950 . S
H1077 C1101 0.951 . S
H1078 C1103 0.951 . S
H1079 C1105 0.950 . S
H1080 C1106 0.950 . S
H1081 C1108 0.950 . S
H1082 C1111 0.950 . S
H1083 C1112 0.950 . S
H1084 C1114 0.950 . S
H1085 C1115 0.950 . S
C1086 H1068 0.951 . S
C1086 C1087 1.366 . S
C1086 C1088 1.388 . S
C1087 C1086 1.366 . S
C1087 C1091 1.385 . S
C1088 H1069 0.951 . S
C1088 C1086 1.388 . S
C1088 C1089 1.366 . S
C1089 C1088 1.366 . S
C1089 C1090 1.414 . S
C1089 C1092 1.499 . S
C1090 H1070 0.950 . S
C1090 C1089 1.414 . S
C1090 C1091 1.374 . S
C1091 H1071 0.950 . S
C1091 C1087 1.385 . S
C1091 C1090 1.374 . S
C1092 C1089 1.499 . S
C1092 C1093 1.373 . S
C1092 C1094 1.389 . S
C1093 H1072 0.950 . S
C1093 C1092 1.373 . S
C1093 C1109 1.377 . S
C1094 C1092 1.389 . S
C1094 C1095 1.524 . S
C1094 C1108 1.377 . S
C1095 C1094 1.524 . S
C1095 C1096 1.397 . S
C1095 C1100 1.363 . S
C1096 H1073 0.950 . S
C1096 C1095 1.397 . S
C1096 C1097 1.334 . S
C1097 H1074 0.950 . S
C1097 C1096 1.334 . S
C1097 C1098 1.287 . S
C1098 C1097 1.287 . S
C1098 C1099 1.524 . S
C1098 H1117 0.913 . S
C1099 H1075 0.950 . S
C1099 C1098 1.524 . S
C1099 C1100 1.415 . S
C1100 H1076 0.950 . S
C1100 C1095 1.363 . S
C1100 C1099 1.415 . S
C1101 H1077 0.951 . S
C1101 C1102 1.366 . S
C1101 C1103 1.388 . S
C1102 C1101 1.366 . S
C1102 C1106 1.385 . S
C1103 H1078 0.951 . S
C1103 C1101 1.388 . S
C1103 C1104 1.366 . S
C1104 C1103 1.366 . S
C1104 C1105 1.414 . S
C1104 C1107 1.499 . S
C1105 H1079 0.950 . S
C1105 C1104 1.414 . S
C1105 C1106 1.374 . S
C1106 H1080 0.950 . S
C1106 C1102 1.385 . S
C1106 C1105 1.374 . S
C1107 C1104 1.499 . S
C1107 C1108 1.373 . S
C1107 C1109 1.389 . S
C1108 H1081 0.950 . S
C1108 C1094 1.377 . S
C1108 C1107 1.373 . S
C1109 C1093 1.377 . S
C1109 C1107 1.389 . S
C1109 C1110 1.524 . S
C1110 C1109 1.524 . S
C1110 C1111 1.397 . S
C1110 C1115 1.363 . S
C1111 H1082 0.950 . S
C1111 C1110 1.397 . S
C1111 C1112 1.334 . S
C1112 H1083 0.950 . S
C1112 C1111 1.334 . S
C1112 C1113 1.287 . S
C1113 C1112 1.287 . S
C1113 C1114 1.524 . S
C1113 H1116 0.999 . S
C1114 H1084 0.950 . S
C1114 C1113 1.524 . S
C1114 C1115 1.415 . S
C1115 H1085 0.950 . S
C1115 C1110 1.363 . S
C1115 C1114 1.415 . S
H1116 C1113 0.999 . S
H1117 C1098 0.913 . S
H1118 C1136 0.951 . S
H1119 C1138 0.951 . S
H1120 C1140 0.950 . S
H1121 C1141 0.950 . S
H1122 C1143 0.950 . S
H1123 C1146 0.950 . S
H1124 C1147 0.950 . S
H1125 C1149 0.950 . S
H1126 C1150 0.950 . S
H1127 C1151 0.951 . S
H1128 C1153 0.951 . S
H1129 C1155 0.950 . S
H1130 C1156 0.950 . S
H1131 C1158 0.950 . S
H1132 C1161 0.950 . S
H1133 C1162 0.950 . S
H1134 C1164 0.950 . S
H1135 C1165 0.950 . S
C1136 H1118 0.951 . S
C1136 C1137 1.366 . S
C1136 C1138 1.388 . S
C1137 C1136 1.366 . S
C1137 C1141 1.385 . S
C1138 H1119 0.951 . S
C1138 C1136 1.388 . S
C1138 C1139 1.366 . S
C1139 C1138 1.366 . S
C1139 C1140 1.414 . S
C1139 C1142 1.499 . S
C1140 H1120 0.950 . S
C1140 C1139 1.414 . S
C1140 C1141 1.374 . S
C1141 H1121 0.950 . S
C1141 C1137 1.385 . S
C1141 C1140 1.374 . S
C1142 C1139 1.499 . S
C1142 C1143 1.373 . S
C1142 C1144 1.389 . S
C1143 H1122 0.950 . S
C1143 C1142 1.373 . S
C1143 C1159 1.377 . S
C1144 C1142 1.389 . S
C1144 C1145 1.524 . S
C1144 C1158 1.377 . S
C1145 C1144 1.524 . S
C1145 C1146 1.397 . S
C1145 C1150 1.363 . S
C1146 H1123 0.950 . S
C1146 C1145 1.397 . S
C1146 C1147 1.334 . S
C1147 H1124 0.950 . S
C1147 C1146 1.334 . S
C1147 C1148 1.287 . S
C1148 C1147 1.287 . S
C1148 C1149 1.524 . S
C1148 H1167 0.913 . S
C1149 H1125 0.950 . S
C1149 C1148 1.524 . S
C1149 C1150 1.415 . S
C1150 H1126 0.950 . S
C1150 C1145 1.363 . S
C1150 C1149 1.415 . S
C1151 H1127 0.951 . S
C1151 C1152 1.366 . S
C1151 C1153 1.388 . S
C1152 C1151 1.366 . S
C1152 C1156 1.385 . S
C1153 H1128 0.951 . S
C1153 C1151 1.388 . S
C1153 C1154 1.366 . S
C1154 C1153 1.366 . S
C1154 C1155 1.414 . S
C1154 C1157 1.499 . S
C1155 H1129 0.950 . S
C1155 C1154 1.414 . S
C1155 C1156 1.374 . S
C1156 H1130 0.950 . S
C1156 C1152 1.385 . S
C1156 C1155 1.374 . S
C1157 C1154 1.499 . S
C1157 C1158 1.373 . S
C1157 C1159 1.389 . S
C1158 H1131 0.950 . S
C1158 C1144 1.377 . S
C1158 C1157 1.373 . S
C1159 C1143 1.377 . S
C1159 C1157 1.389 . S
C1159 C1160 1.524 . S
C1160 C1159 1.524 . S
C1160 C1161 1.397 . S
C1160 C1165 1.363 . S
C1161 H1132 0.950 . S
C1161 C1160 1.397 . S
C1161 C1162 1.334 . S
C1162 H1133 0.950 . S
C1162 C1161 1.334 . S
C1162 C1163 1.287 . S
C1163 C1162 1.287 . S
C1163 C1164 1.524 . S
C1163 H1166 0.999 . S
C1164 H1134 0.950 . S
C1164 C1163 1.524 . S
C1164 C1165 1.415 . S
C1165 H1135 0.950 . S
C1165 C1160 1.363 . S
C1165 C1164 1.415 . S
H1166 C1163 0.999 . S
H1167 C1148 0.913 . S
H1168 C1186 0.951 . S
H1169 C1188 0.951 . S
H1170 C1190 0.950 . S
H1171 C1191 0.950 . S
H1172 C1193 0.950 . S
H1173 C1196 0.950 . S
H1174 C1197 0.950 . S
H1175 C1199 0.950 . S
H1176 C1200 0.950 . S
H1177 C1201 0.951 . S
H1178 C1203 0.951 . S
H1179 C1205 0.950 . S
H1180 C1206 0.950 . S
H1181 C1208 0.950 . S
H1182 C1211 0.950 . S
H1183 C1212 0.950 . S
H1184 C1214 0.950 . S
H1185 C1215 0.950 . S
C1186 H1168 0.951 . S
C1186 C1187 1.366 . S
C1186 C1188 1.388 . S
C1187 C1186 1.366 . S
C1187 C1191 1.385 . S
C1188 H1169 0.951 . S
C1188 C1186 1.388 . S
C1188 C1189 1.366 . S
C1189 C1188 1.366 . S
C1189 C1190 1.414 . S
C1189 C1192 1.499 . S
C1190 H1170 0.950 . S
C1190 C1189 1.414 . S
C1190 C1191 1.374 . S
C1191 H1171 0.950 . S
C1191 C1187 1.385 . S
C1191 C1190 1.374 . S
C1192 C1189 1.499 . S
C1192 C1193 1.373 . S
C1192 C1194 1.389 . S
C1193 H1172 0.950 . S
C1193 C1192 1.373 . S
C1193 C1209 1.377 . S
C1194 C1192 1.389 . S
C1194 C1195 1.524 . S
C1194 C1208 1.377 . S
C1195 C1194 1.524 . S
C1195 C1196 1.397 . S
C1195 C1200 1.363 . S
C1196 H1173 0.950 . S
C1196 C1195 1.397 . S
C1196 C1197 1.334 . S
C1197 H1174 0.950 . S
C1197 C1196 1.334 . S
C1197 C1198 1.287 . S
C1198 C1197 1.287 . S
C1198 C1199 1.524 . S
C1198 H1217 0.913 . S
C1199 H1175 0.950 . S
C1199 C1198 1.524 . S
C1199 C1200 1.415 . S
C1200 H1176 0.950 . S
C1200 C1195 1.363 . S
C1200 C1199 1.415 . S
C1201 H1177 0.951 . S
C1201 C1202 1.366 . S
C1201 C1203 1.388 . S
C1202 C1201 1.366 . S
C1202 C1206 1.385 . S
C1203 H1178 0.951 . S
C1203 C1201 1.388 . S
C1203 C1204 1.366 . S
C1204 C1203 1.366 . S
C1204 C1205 1.414 . S
C1204 C1207 1.499 . S
C1205 H1179 0.950 . S
C1205 C1204 1.414 . S
C1205 C1206 1.374 . S
C1206 H1180 0.950 . S
C1206 C1202 1.385 . S
C1206 C1205 1.374 . S
C1207 C1204 1.499 . S
C1207 C1208 1.373 . S
C1207 C1209 1.389 . S
C1208 H1181 0.950 . S
C1208 C1194 1.377 . S
C1208 C1207 1.373 . S
C1209 C1193 1.377 . S
C1209 C1207 1.389 . S
C1209 C1210 1.524 . S
C1210 C1209 1.524 . S
C1210 C1211 1.397 . S
C1210 C1215 1.363 . S
C1211 H1182 0.950 . S
C1211 C1210 1.397 . S
C1211 C1212 1.334 . S
C1212 H1183 0.950 . S
C1212 C1211 1.334 . S
C1212 C1213 1.287 . S
C1213 C1212 1.287 . S
C1213 C1214 1.524 . S
C1213 H1216 0.999 . S
C1214 H1184 0.950 . S
C1214 C1213 1.524 . S
C1214 C1215 1.415 . S
C1215 H1185 0.950 . S
C1215 C1210 1.363 . S
C1215 C1214 1.415 . S
H1216 C1213 0.999 . S
H1217 C1198 0.913 . S
H1218 C1236 0.951 . S
H1219 C1238 0.951 . S
H1220 C1240 0.950 . S
H1221 C1241 0.950 . S
H1222 C1243 0.950 . S
H1223 C1246 0.950 . S
H1224 C1247 0.950 . S
H1225 C1249 0.950 . S
H1226 C1250 0.950 . S
H1227 C1251 0.951 . S
H1228 C1253 0.951 . S
H1229 C1255 0.950 . S
H1230 C1256 0.950 . S
H1231 C1258 0.950 . S
H1232 C1261 0.950 . S
H1233 C1262 0.950 . S
H1234 C1264 0.950 . S
H1235 C1265 0.950 . S
C1236 H1218 0.951 . S
C1236 C1237 1.366 . S
C1236 C1238 1.388 . S
C1237 C1236 1.366 . S
C1237 C1241 1.385 . S
C1238 H1219 0.951 . S
C1238 C1236 1.388 . S
C1238 C1239 1.366 . S
C1239 C1238 1.366 . S
C1239 C1240 1.414 . S
C1239 C1242 1.499 . S
C1240 H1220 0.950 . S
C1240 C1239 1.414 . S
C1240 C1241 1.374 . S
C1241 H1221 0.950 . S
C1241 C1237 1.385 . S
C1241 C1240 1.374 . S
C1242 C1239 1.499 . S
C1242 C1243 1.373 . S
C1242 C1244 1.389 . S
C1243 H1222 0.950 . S
C1243 C1242 1.373 . S
C1243 C1259 1.377 . S
C1244 C1242 1.389 . S
C1244 C1245 1.524 . S
C1244 C1258 1.377 . S
C1245 C1244 1.524 . S
C1245 C1246 1.397 . S
C1245 C1250 1.363 . S
C1246 H1223 0.950 . S
C1246 C1245 1.397 . S
C1246 C1247 1.334 . S
C1247 H1224 0.950 . S
C1247 C1246 1.334 . S
C1247 C1248 1.287 . S
C1248 C1247 1.287 . S
C1248 C1249 1.524 . S
C1248 H1267 0.913 . S
C1249 H1225 0.950 . S
C1249 C1248 1.524 . S
C1249 C1250 1.415 . S
C1250 H1226 0.950 . S
C1250 C1245 1.363 . S
C1250 C1249 1.415 . S
C1251 H1227 0.951 . S
C1251 C1252 1.366 . S
C1251 C1253 1.388 . S
C1252 C1251 1.366 . S
C1252 C1256 1.385 . S
C1253 H1228 0.951 . S
C1253 C1251 1.388 . S
C1253 C1254 1.366 . S
C1254 C1253 1.366 . S
C1254 C1255 1.414 . S
C1254 C1257 1.499 . S
C1255 H1229 0.950 . S
C1255 C1254 1.414 . S
C1255 C1256 1.374 . S
C1256 H1230 0.950 . S
C1256 C1252 1.385 . S
C1256 C1255 1.374 . S
C1257 C1254 1.499 . S
C1257 C1258 1.373 . S
C1257 C1259 1.389 . S
C1258 H1231 0.950 . S
C1258 C1244 1.377 . S
C1258 C1257 1.373 . S
C1259 C1243 1.377 . S
C1259 C1257 1.389 . S
C1259 C1260 1.524 . S
C1260 C1259 1.524 . S
C1260 C1261 1.397 . S
C1260 C1265 1.363 . S
C1261 H1232 0.950 . S
C1261 C1260 1.397 . S
C1261 C1262 1.334 . S
C1262 H1233 0.950 . S
C1262 C1261 1.334 . S
C1262 C1263 1.287 . S
C1263 C1262 1.287 . S
C1263 C1264 1.524 . S
C1263 H1266 0.999 . S
C1264 H1234 0.950 . S
C1264 C1263 1.524 . S
C1264 C1265 1.415 . S
C1265 H1235 0.950 . S
C1265 C1260 1.363 . S
C1265 C1264 1.415 . S
H1266 C1263 0.999 . S
H1267 C1248 0.913 . S
H1268 C1286 0.951 . S
H1269 C1288 0.951 . S
H1270 C1290 0.950 . S
H1271 C1291 0.950 . S
H1272 C1293 0.950 . S
H1273 C1296 0.950 . S
H1274 C1297 0.950 . S
H1275 C1299 0.950 . S
H1276 C1300 0.950 . S
H1277 C1301 0.951 . S
H1278 C1303 0.951 . S
H1279 C1305 0.950 . S
H1280 C1306 0.950 . S
H1281 C1308 0.950 . S
H1282 C1311 0.950 . S
H1283 C1312 0.950 . S
H1284 C1314 0.950 . S
H1285 C1315 0.950 . S
C1286 H1268 0.951 . S
C1286 C1287 1.366 . S
C1286 C1288 1.388 . S
C1287 C1286 1.366 . S
C1287 C1291 1.385 . S
C1288 H1269 0.951 . S
C1288 C1286 1.388 . S
C1288 C1289 1.366 . S
C1289 C1288 1.366 . S
C1289 C1290 1.414 . S
C1289 C1292 1.499 . S
C1290 H1270 0.950 . S
C1290 C1289 1.414 . S
C1290 C1291 1.374 . S
C1291 H1271 0.950 . S
C1291 C1287 1.385 . S
C1291 C1290 1.374 . S
C1292 C1289 1.499 . S
C1292 C1293 1.373 . S
C1292 C1294 1.389 . S
C1293 H1272 0.950 . S
C1293 C1292 1.373 . S
C1293 C1309 1.377 . S
C1294 C1292 1.389 . S
C1294 C1295 1.524 . S
C1294 C1308 1.377 . S
C1295 C1294 1.524 . S
C1295 C1296 1.397 . S
C1295 C1300 1.363 . S
C1296 H1273 0.950 . S
C1296 C1295 1.397 . S
C1296 C1297 1.334 . S
C1297 H1274 0.950 . S
C1297 C1296 1.334 . S
C1297 C1298 1.287 . S
C1298 C1297 1.287 . S
C1298 C1299 1.524 . S
C1298 H1317 0.913 . S
C1299 H1275 0.950 . S
C1299 C1298 1.524 . S
C1299 C1300 1.415 . S
C1300 H1276 0.950 . S
C1300 C1295 1.363 . S
C1300 C1299 1.415 . S
C1301 H1277 0.951 . S
C1301 C1302 1.366 . S
C1301 C1303 1.388 . S
C1302 C1301 1.366 . S
C1302 C1306 1.385 . S
C1303 H1278 0.951 . S
C1303 C1301 1.388 . S
C1303 C1304 1.366 . S
C1304 C1303 1.366 . S
C1304 C1305 1.414 . S
C1304 C1307 1.499 . S
C1305 H1279 0.950 . S
C1305 C1304 1.414 . S
C1305 C1306 1.374 . S
C1306 H1280 0.950 . S
C1306 C1302 1.385 . S
C1306 C1305 1.374 . S
C1307 C1304 1.499 . S
C1307 C1308 1.373 . S
C1307 C1309 1.389 . S
C1308 H1281 0.950 . S
C1308 C1294 1.377 . S
C1308 C1307 1.373 . S
C1309 C1293 1.377 . S
C1309 C1307 1.389 . S
C1309 C1310 1.524 . S
C1310 C1309 1.524 . S
C1310 C1311 1.397 . S
C1310 C1315 1.363 . S
C1311 H1282 0.950 . S
C1311 C1310 1.397 . S
C1311 C1312 1.334 . S
C1312 H1283 0.950 . S
C1312 C1311 1.334 . S
C1312 C1313 1.287 . S
C1313 C1312 1.287 . S
C1313 C1314 1.524 . S
C1313 H1316 0.999 . S
C1314 H1284 0.950 . S
C1314 C1313 1.524 . S
C1314 C1315 1.415 . S
C1315 H1285 0.950 . S
C1315 C1310 1.363 . S
C1315 C1314 1.415 . S
H1316 C1313 0.999 . S
H1317 C1298 0.913 . S
H1318 C1336 0.951 . S
H1319 C1338 0.951 . S
H1320 C1340 0.950 . S
H1321 C1341 0.950 . S
H1322 C1343 0.950 . S
H1323 C1346 0.950 . S
H1324 C1347 0.950 . S
H1325 C1349 0.950 . S
H1326 C1350 0.950 . S
H1327 C1351 0.951 . S
H1328 C1353 0.951 . S
H1329 C1355 0.950 . S
H1330 C1356 0.950 . S
H1331 C1358 0.950 . S
H1332 C1361 0.950 . S
H1333 C1362 0.950 . S
H1334 C1364 0.950 . S
H1335 C1365 0.950 . S
C1336 H1318 0.951 . S
C1336 C1337 1.366 . S
C1336 C1338 1.388 . S
C1337 C1336 1.366 . S
C1337 C1341 1.385 . S
C1338 H1319 0.951 . S
C1338 C1336 1.388 . S
C1338 C1339 1.366 . S
C1339 C1338 1.366 . S
C1339 C1340 1.414 . S
C1339 C1342 1.499 . S
C1340 H1320 0.950 . S
C1340 C1339 1.414 . S
C1340 C1341 1.374 . S
C1341 H1321 0.950 . S
C1341 C1337 1.385 . S
C1341 C1340 1.374 . S
C1342 C1339 1.499 . S
C1342 C1343 1.373 . S
C1342 C1344 1.389 . S
C1343 H1322 0.950 . S
C1343 C1342 1.373 . S
C1343 C1359 1.377 . S
C1344 C1342 1.389 . S
C1344 C1345 1.524 . S
C1344 C1358 1.377 . S
C1345 C1344 1.524 . S
C1345 C1346 1.397 . S
C1345 C1350 1.363 . S
C1346 H1323 0.950 . S
C1346 C1345 1.397 . S
C1346 C1347 1.334 . S
C1347 H1324 0.950 . S
C1347 C1346 1.334 . S
C1347 C1348 1.287 . S
C1348 C1347 1.287 . S
C1348 C1349 1.524 . S
C1348 H1367 0.913 . S
C1349 H1325 0.950 . S
C1349 C1348 1.524 . S
C1349 C1350 1.415 . S
C1350 H1326 0.950 . S
C1350 C1345 1.363 . S
C1350 C1349 1.415 . S
C1351 H1327 0.951 . S
C1351 C1352 1.366 . S
C1351 C1353 1.388 . S
C1352 C1351 1.366 . S
C1352 C1356 1.385 . S
C1353 H1328 0.951 . S
C1353 C1351 1.388 . S
C1353 C1354 1.366 . S
C1354 C1353 1.366 . S
C1354 C1355 1.414 . S
C1354 C1357 1.499 . S
C1355 H1329 0.950 . S
C1355 C1354 1.414 . S
C1355 C1356 1.374 . S
C1356 H1330 0.950 . S
C1356 C1352 1.385 . S
C1356 C1355 1.374 . S
C1357 C1354 1.499 . S
C1357 C1358 1.373 . S
C1357 C1359 1.389 . S
C1358 H1331 0.950 . S
C1358 C1344 1.377 . S
C1358 C1357 1.373 . S
C1359 C1343 1.377 . S
C1359 C1357 1.389 . S
C1359 C1360 1.524 . S
C1360 C1359 1.524 . S
C1360 C1361 1.397 . S
C1360 C1365 1.363 . S
C1361 H1332 0.950 . S
C1361 C1360 1.397 . S
C1361 C1362 1.334 . S
C1362 H1333 0.950 . S
C1362 C1361 1.334 . S
C1362 C1363 1.287 . S
C1363 C1362 1.287 . S
C1363 C1364 1.524 . S
C1363 H1366 0.999 . S
C1364 H1334 0.950 . S
C1364 C1363 1.524 . S
C1364 C1365 1.415 . S
C1365 H1335 0.950 . S
C1365 C1360 1.363 . S
C1365 C1364 1.415 . S
H1366 C1363 0.999 . S
H1367 C1348 0.913 . S
C187 C19 1.435 . S
C202 C103 1.435 . S
C237 C124 1.437 . S
C252 C41 1.437 . S
C287 C61 1.436 . S
C302 C146 1.436 . S
C337 C82 1.436 . S
C352 C167 1.437 . S
C387 C83 1.437 . S
C402 C166 1.436 . S
C437 C125 1.436 . S
C452 C40 1.435 . S
C487 C145 1.435 . S
C502 C62 1.435 . S
C537 C20 1.435 . S
C552 C104 1.435 . S
C587 C109 1.114 . S
C602 C4 1.109 . S
C637 C28 1.113 . S
C652 C133 1.110 . S
C687 C154 1.114 . S
C702 C46 1.109 . S
C737 C88 1.111 . S
C752 C67 1.114 . S
C787 C87 1.081 . S
C802 C79 1.083 . S
C837 C150 1.081 . S
C852 C45 1.083 . S
C887 C24 1.081 . S
C902 C142 1.083 . S
C937 C121 1.083 . S
C952 C3 1.084 . S
C987 C151 1.112 . S
C1002 C49 1.115 . S
C1037 C91 1.113 . S
C1052 C70 1.112 . S
C1087 C112 1.112 . S
C1102 C7 1.116 . S
C1137 C25 1.112 . S
C1152 C130 1.115 . S
C1187 C129 1.081 . S
C1202 C37 1.081 . S
C1237 C16 1.081 . S
C1252 C108 1.083 . S
C1287 C100 1.083 . S
C1302 C66 1.081 . S
C1337 C163 1.082 . S
C1352 C58 1.081 . S
