# Generated by pormake.
# Topology zni, (4)-cn, num edge types: 1
# Building blocks:
#     Node 0, Type 0, BuildingBlock: UXUYUI_clean_sbu_0, # of connection points: 4
#     Node 1, Type 0, BuildingBlock: UXUYUI_clean_sbu_0, # of connection points: 4
#     Node 2, Type 0, BuildingBlock: UXUYUI_clean_sbu_0, # of connection points: 4
#     Node 3, Type 0, BuildingBlock: UXUYUI_clean_sbu_0, # of connection points: 4
#     Node 4, Type 0, BuildingBlock: UXUYUI_clean_sbu_0, # of connection points: 4
#     Node 5, Type 0, BuildingBlock: UXUYUI_clean_sbu_0, # of connection points: 4
#     Node 6, Type 0, BuildingBlock: UXUYUI_clean_sbu_0, # of connection points: 4
#     Node 7, Type 0, BuildingBlock: UXUYUI_clean_sbu_0, # of connection points: 4
#     Node 8, Type 0, BuildingBlock: UXUYUI_clean_sbu_0, # of connection points: 4
#     Node 9, Type 0, BuildingBlock: UXUYUI_clean_sbu_0, # of connection points: 4
#     Node 10, Type 0, BuildingBlock: UXUYUI_clean_sbu_0, # of connection points: 4
#     Node 11, Type 0, BuildingBlock: UXUYUI_clean_sbu_0, # of connection points: 4
#     Node 12, Type 0, BuildingBlock: UXUYUI_clean_sbu_0, # of connection points: 4
#     Node 13, Type 0, BuildingBlock: UXUYUI_clean_sbu_0, # of connection points: 4
#     Node 14, Type 0, BuildingBlock: UXUYUI_clean_sbu_0, # of connection points: 4
#     Node 15, Type 0, BuildingBlock: UXUYUI_clean_sbu_0, # of connection points: 4
#     Node 16, Type 0, BuildingBlock: UXUYUI_clean_sbu_0, # of connection points: 4
#     Node 17, Type 0, BuildingBlock: UXUYUI_clean_sbu_0, # of connection points: 4
#     Node 18, Type 0, BuildingBlock: UXUYUI_clean_sbu_0, # of connection points: 4
#     Node 19, Type 0, BuildingBlock: UXUYUI_clean_sbu_0, # of connection points: 4
#     Node 20, Type 0, BuildingBlock: UXUYUI_clean_sbu_0, # of connection points: 4
#     Node 21, Type 0, BuildingBlock: UXUYUI_clean_sbu_0, # of connection points: 4
#     Node 22, Type 0, BuildingBlock: UXUYUI_clean_sbu_0, # of connection points: 4
#     Node 23, Type 0, BuildingBlock: UXUYUI_clean_sbu_0, # of connection points: 4
#     Node 24, Type 0, BuildingBlock: UXUYUI_clean_sbu_0, # of connection points: 4
#     Node 25, Type 0, BuildingBlock: UXUYUI_clean_sbu_0, # of connection points: 4
#     Node 26, Type 0, BuildingBlock: UXUYUI_clean_sbu_0, # of connection points: 4
#     Node 27, Type 0, BuildingBlock: UXUYUI_clean_sbu_0, # of connection points: 4
#     Node 28, Type 0, BuildingBlock: UXUYUI_clean_sbu_0, # of connection points: 4
#     Node 29, Type 0, BuildingBlock: UXUYUI_clean_sbu_0, # of connection points: 4
#     Node 30, Type 0, BuildingBlock: UXUYUI_clean_sbu_0, # of connection points: 4
#     Node 31, Type 0, BuildingBlock: UXUYUI_clean_sbu_0, # of connection points: 4
#     Edge 32, Type (0, 0), BuildingBlock: XUDNAN_clean_linker_2, # of connection points: 2
#     Edge 33, Type (0, 0), BuildingBlock: XUDNAN_clean_linker_2, # of connection points: 2
#     Edge 34, Type (0, 0), BuildingBlock: XUDNAN_clean_linker_2, # of connection points: 2
#     Edge 35, Type (0, 0), BuildingBlock: XUDNAN_clean_linker_2, # of connection points: 2
#     Edge 36, Type (0, 0), BuildingBlock: XUDNAN_clean_linker_2, # of connection points: 2
#     Edge 37, Type (0, 0), BuildingBlock: XUDNAN_clean_linker_2, # of connection points: 2
#     Edge 38, Type (0, 0), BuildingBlock: XUDNAN_clean_linker_2, # of connection points: 2
#     Edge 39, Type (0, 0), BuildingBlock: XUDNAN_clean_linker_2, # of connection points: 2
#     Edge 40, Type (0, 0), BuildingBlock: XUDNAN_clean_linker_2, # of connection points: 2
#     Edge 41, Type (0, 0), BuildingBlock: XUDNAN_clean_linker_2, # of connection points: 2
#     Edge 42, Type (0, 0), BuildingBlock: XUDNAN_clean_linker_2, # of connection points: 2
#     Edge 43, Type (0, 0), BuildingBlock: XUDNAN_clean_linker_2, # of connection points: 2
#     Edge 44, Type (0, 0), BuildingBlock: XUDNAN_clean_linker_2, # of connection points: 2
#     Edge 45, Type (0, 0), BuildingBlock: XUDNAN_clean_linker_2, # of connection points: 2
#     Edge 46, Type (0, 0), BuildingBlock: XUDNAN_clean_linker_2, # of connection points: 2
#     Edge 47, Type (0, 0), BuildingBlock: XUDNAN_clean_linker_2, # of connection points: 2
#     Edge 48, Type (0, 0), BuildingBlock: XUDNAN_clean_linker_2, # of connection points: 2
#     Edge 49, Type (0, 0), BuildingBlock: XUDNAN_clean_linker_2, # of connection points: 2
#     Edge 50, Type (0, 0), BuildingBlock: XUDNAN_clean_linker_2, # of connection points: 2
#     Edge 51, Type (0, 0), BuildingBlock: XUDNAN_clean_linker_2, # of connection points: 2
#     Edge 52, Type (0, 0), BuildingBlock: XUDNAN_clean_linker_2, # of connection points: 2
#     Edge 53, Type (0, 0), BuildingBlock: XUDNAN_clean_linker_2, # of connection points: 2
#     Edge 54, Type (0, 0), BuildingBlock: XUDNAN_clean_linker_2, # of connection points: 2
#     Edge 55, Type (0, 0), BuildingBlock: XUDNAN_clean_linker_2, # of connection points: 2
#     Edge 56, Type (0, 0), BuildingBlock: XUDNAN_clean_linker_2, # of connection points: 2
#     Edge 57, Type (0, 0), BuildingBlock: XUDNAN_clean_linker_2, # of connection points: 2
#     Edge 58, Type (0, 0), BuildingBlock: XUDNAN_clean_linker_2, # of connection points: 2
#     Edge 59, Type (0, 0), BuildingBlock: XUDNAN_clean_linker_2, # of connection points: 2
#     Edge 60, Type (0, 0), BuildingBlock: XUDNAN_clean_linker_2, # of connection points: 2
#     Edge 61, Type (0, 0), BuildingBlock: XUDNAN_clean_linker_2, # of connection points: 2
#     Edge 62, Type (0, 0), BuildingBlock: XUDNAN_clean_linker_2, # of connection points: 2
#     Edge 63, Type (0, 0), BuildingBlock: XUDNAN_clean_linker_2, # of connection points: 2
#     Edge 64, Type (0, 0), BuildingBlock: XUDNAN_clean_linker_2, # of connection points: 2
#     Edge 65, Type (0, 0), BuildingBlock: XUDNAN_clean_linker_2, # of connection points: 2
#     Edge 66, Type (0, 0), BuildingBlock: XUDNAN_clean_linker_2, # of connection points: 2
#     Edge 67, Type (0, 0), BuildingBlock: XUDNAN_clean_linker_2, # of connection points: 2
#     Edge 68, Type (0, 0), BuildingBlock: XUDNAN_clean_linker_2, # of connection points: 2
#     Edge 69, Type (0, 0), BuildingBlock: XUDNAN_clean_linker_2, # of connection points: 2
#     Edge 70, Type (0, 0), BuildingBlock: XUDNAN_clean_linker_2, # of connection points: 2
#     Edge 71, Type (0, 0), BuildingBlock: XUDNAN_clean_linker_2, # of connection points: 2
#     Edge 72, Type (0, 0), BuildingBlock: XUDNAN_clean_linker_2, # of connection points: 2
#     Edge 73, Type (0, 0), BuildingBlock: XUDNAN_clean_linker_2, # of connection points: 2
#     Edge 74, Type (0, 0), BuildingBlock: XUDNAN_clean_linker_2, # of connection points: 2
#     Edge 75, Type (0, 0), BuildingBlock: XUDNAN_clean_linker_2, # of connection points: 2
#     Edge 76, Type (0, 0), BuildingBlock: XUDNAN_clean_linker_2, # of connection points: 2
#     Edge 77, Type (0, 0), BuildingBlock: XUDNAN_clean_linker_2, # of connection points: 2
#     Edge 78, Type (0, 0), BuildingBlock: XUDNAN_clean_linker_2, # of connection points: 2
#     Edge 79, Type (0, 0), BuildingBlock: XUDNAN_clean_linker_2, # of connection points: 2
#     Edge 80, Type (0, 0), BuildingBlock: XUDNAN_clean_linker_2, # of connection points: 2
#     Edge 81, Type (0, 0), BuildingBlock: XUDNAN_clean_linker_2, # of connection points: 2
#     Edge 82, Type (0, 0), BuildingBlock: XUDNAN_clean_linker_2, # of connection points: 2
#     Edge 83, Type (0, 0), BuildingBlock: XUDNAN_clean_linker_2, # of connection points: 2
#     Edge 84, Type (0, 0), BuildingBlock: XUDNAN_clean_linker_2, # of connection points: 2
#     Edge 85, Type (0, 0), BuildingBlock: XUDNAN_clean_linker_2, # of connection points: 2
#     Edge 86, Type (0, 0), BuildingBlock: XUDNAN_clean_linker_2, # of connection points: 2
#     Edge 87, Type (0, 0), BuildingBlock: XUDNAN_clean_linker_2, # of connection points: 2
#     Edge 88, Type (0, 0), BuildingBlock: XUDNAN_clean_linker_2, # of connection points: 2
#     Edge 89, Type (0, 0), BuildingBlock: XUDNAN_clean_linker_2, # of connection points: 2
#     Edge 90, Type (0, 0), BuildingBlock: XUDNAN_clean_linker_2, # of connection points: 2
#     Edge 91, Type (0, 0), BuildingBlock: XUDNAN_clean_linker_2, # of connection points: 2
#     Edge 92, Type (0, 0), BuildingBlock: XUDNAN_clean_linker_2, # of connection points: 2
#     Edge 93, Type (0, 0), BuildingBlock: XUDNAN_clean_linker_2, # of connection points: 2
#     Edge 94, Type (0, 0), BuildingBlock: XUDNAN_clean_linker_2, # of connection points: 2
#     Edge 95, Type (0, 0), BuildingBlock: XUDNAN_clean_linker_2, # of connection points: 2
# Relax obj value: 0.272
# Max RMSD: 0.141
# Mean RMSD: 0.140
data_MOF--net-zni--node1-UXUYUI_clean_sbu_0--edge1-XUDNAN_clean_linker_2
_symmetry_space_group_name_H-M    P1
_symmetry_Int_Tables_number       1
_symmetry_cell_setting            triclinic
loop_
_symmetry_equiv_pos_as_xyz
'x, y, z'
_cell_length_a     74.905945
_cell_length_b     74.470274
_cell_length_c     48.726623
_cell_angle_alpha  89.998739
_cell_angle_beta   89.994082
_cell_angle_gamma 89.997955
loop_
_atom_site_label
_atom_site_type_symbol
_atom_site_fract_x
_atom_site_fract_y
_atom_site_fract_z
_atom_type_partial_charge
Li0 Li 0.14652 0.09327 0.43587 0.0
Li1 Li 0.11992 0.09459 0.40471 0.0
Li2 Li 0.15107 0.08603 0.38845 0.0
Li3 Li 0.14443 0.11646 0.40143 0.0
C4 C 0.1338 0.06071 0.43481 0.0
N5 N 0.13163 0.03609 0.47705 0.0
C6 C 0.11799 0.05896 0.44979 0.0
C7 C 0.14846 0.04987 0.44112 0.0
C8 C 0.11717 0.04644 0.47111 0.0
C9 C 0.14711 0.03753 0.46262 0.0
C10 C 0.12397 0.1289 0.44107 0.0
C11 C 0.10815 0.15685 0.43525 0.0
N12 N 0.11769 0.16406 0.4563 0.0
C13 C 0.13357 0.13655 0.46269 0.0
C14 C 0.11112 0.13908 0.42726 0.0
C15 C 0.1302 0.15436 0.47007 0.0
C16 C 0.17089 0.08692 0.47927 0.0
N17 N 0.15333 0.08869 0.47281 0.0
C18 C 0.14516 0.08683 0.52013 0.0
C19 C 0.14049 0.08857 0.49251 0.0
C20 C 0.16325 0.08536 0.52751 0.0
C21 C 0.17617 0.08515 0.5066 0.0
H22 H 0.18085 0.08735 0.46329 0.0
H23 H 0.12665 0.09032 0.48679 0.0
C24 C 0.09064 0.07862 0.37923 0.0
N25 N 0.09525 0.09029 0.39941 0.0
C26 C 0.07271 0.07605 0.37248 0.0
C27 C 0.06462 0.09726 0.40791 0.0
C28 C 0.08271 0.09927 0.41417 0.0
C29 C 0.0594 0.08575 0.38646 0.0
H30 H 0.10095 0.07161 0.36796 0.0
H31 H 0.08677 0.10832 0.43035 0.0
C32 C 0.18249 0.09941 0.40204 0.0
N33 N 0.21649 0.09336 0.38204 0.0
C34 C 0.19111 0.11257 0.38643 0.0
C35 C 0.19118 0.08318 0.40747 0.0
C36 C 0.20831 0.10926 0.37653 0.0
C37 C 0.20835 0.08037 0.39716 0.0
C38 C 0.13115 0.11228 0.34848 0.0
C39 C 0.14609 0.11825 0.33397 0.0
C40 C 0.11404 0.11654 0.33906 0.0
C41 C 0.14367 0.12842 0.31016 0.0
C42 C 0.11217 0.12673 0.31517 0.0
N43 N 0.1269 0.13241 0.30133 0.0
C44 C 0.15601 0.0535 0.36068 0.0
C45 C 0.17422 0.07696 0.34358 0.0
C46 C 0.16152 0.04214 0.33951 0.0
N47 N 0.16216 0.07064 0.36207 0.0
C48 C 0.1803 0.06599 0.32233 0.0
C49 C 0.17355 0.04847 0.31957 0.0
H50 H 0.14618 0.04888 0.37532 0.0
H51 H 0.17874 0.09067 0.3447 0.0
C52 C 0.16241 0.14853 0.41169 0.0
N53 N 0.14918 0.14153 0.39587 0.0
C54 C 0.16576 0.16696 0.41162 0.0
C55 C 0.14195 0.17074 0.37868 0.0
C56 C 0.13897 0.15223 0.37954 0.0
C57 C 0.15535 0.17834 0.39515 0.0
H58 H 0.17005 0.13981 0.425 0.0
H59 H 0.128 0.1466 0.36808 0.0
O60 O 0.135 0.07319 0.41434 0.0
O61 O 0.12744 0.11166 0.43302 0.0
O62 O 0.1657 0.10245 0.41209 0.0
O63 O 0.13317 0.10228 0.37178 0.0
H64 H 0.10655 0.06731 0.44518 0.0
H65 H 0.16077 0.05106 0.42965 0.0
H66 H 0.10505 0.04499 0.483 0.0
H67 H 0.15837 0.02911 0.46784 0.0
H68 H 0.09837 0.16494 0.42459 0.0
H69 H 0.14364 0.12886 0.47346 0.0
H70 H 0.10382 0.13346 0.41013 0.0
H71 H 0.13759 0.1605 0.48667 0.0
H72 H 0.13478 0.08735 0.53557 0.0
H73 H 0.19024 0.0839 0.51133 0.0
H74 H 0.06936 0.06673 0.35622 0.0
H75 H 0.05492 0.10515 0.41914 0.0
H76 H 0.18455 0.12513 0.38172 0.0
H77 H 0.18465 0.07278 0.41927 0.0
H78 H 0.21511 0.1193 0.36437 0.0
H79 H 0.21519 0.06784 0.40111 0.0
H80 H 0.15941 0.11534 0.34126 0.0
H81 H 0.10233 0.11209 0.35015 0.0
H82 H 0.15512 0.1332 0.29877 0.0
H83 H 0.09902 0.13015 0.30764 0.0
H84 H 0.15567 0.02888 0.33805 0.0
H85 H 0.18978 0.0714 0.30774 0.0
H86 H 0.17627 0.17226 0.42457 0.0
H87 H 0.13337 0.17908 0.36614 0.0
Li88 Li 0.15568 0.90043 0.68157 0.0
Li89 Li 0.13163 0.89818 0.64454 0.0
Li90 Li 0.15495 0.87339 0.65228 0.0
Li91 Li 0.16273 0.90205 0.63335 0.0
C92 C 0.12702 0.87784 0.70045 0.0
N93 N 0.10875 0.8686 0.74768 0.0
C94 C 0.10996 0.88476 0.70538 0.0
C95 C 0.13467 0.86603 0.71941 0.0
C96 C 0.10097 0.87997 0.72941 0.0
C97 C 0.12526 0.86158 0.7432 0.0
C98 C 0.15268 0.93502 0.64578 0.0
C99 C 0.14896 0.96121 0.61729 0.0
N100 N 0.16491 0.96761 0.6264 0.0
C101 C 0.16896 0.94188 0.65502 0.0
C102 C 0.14252 0.94477 0.6269 0.0
C103 C 0.17494 0.95837 0.6449 0.0
C104 C 0.17732 0.91149 0.72656 0.0
N105 N 0.16021 0.90881 0.7181 0.0
C106 C 0.14927 0.91465 0.7633 0.0
C107 C 0.14625 0.91103 0.7356 0.0
C108 C 0.16682 0.91651 0.77293 0.0
C109 C 0.18096 0.91541 0.75408 0.0
H110 H 0.18819 0.90997 0.71213 0.0
H111 H 0.13275 0.90965 0.72822 0.0
C112 C 0.09986 0.88872 0.61969 0.0
N113 N 0.10747 0.90195 0.63485 0.0
C114 C 0.08216 0.8902 0.6112 0.0
C115 C 0.08027 0.91876 0.63465 0.0
C116 C 0.09814 0.91679 0.64252 0.0
C117 C 0.07214 0.90539 0.61856 0.0
H118 H 0.1076 0.877 0.61417 0.0
H119 H 0.10457 0.92706 0.65474 0.0
C120 C 0.1881 0.87709 0.67327 0.0
N121 N 0.21236 0.85321 0.6956 0.0
C122 C 0.2028 0.87132 0.65791 0.0
C123 C 0.18577 0.87067 0.69998 0.0
C124 C 0.2149 0.85926 0.66956 0.0
C125 C 0.19817 0.85863 0.71091 0.0
C126 C 0.15065 0.88223 0.59108 0.0
C127 C 0.16715 0.87464 0.58435 0.0
C128 C 0.13937 0.88832 0.57022 0.0
C129 C 0.17218 0.87346 0.5568 0.0
C130 C 0.14487 0.88685 0.54291 0.0
N131 N 0.16104 0.87954 0.53682 0.0
C132 C 0.14338 0.83851 0.6633 0.0
C133 C 0.17157 0.83909 0.6413 0.0
C134 C 0.14405 0.81986 0.66533 0.0
N135 N 0.15721 0.84778 0.6521 0.0
C136 C 0.17271 0.82036 0.6426 0.0
C137 C 0.15894 0.81058 0.65517 0.0
H138 H 0.13177 0.8456 0.67069 0.0
H139 H 0.18218 0.84661 0.63174 0.0
C140 C 0.19546 0.91139 0.6071 0.0
N141 N 0.17742 0.9132 0.60584 0.0
C142 C 0.20603 0.91592 0.58449 0.0
C143 C 0.17942 0.92565 0.56074 0.0
C144 C 0.16939 0.92086 0.58373 0.0
C145 C 0.19792 0.92253 0.5605 0.0
H146 H 0.20155 0.90566 0.62515 0.0
H147 H 0.15504 0.92232 0.5833 0.0
O148 O 0.13598 0.88239 0.67697 0.0
O149 O 0.14672 0.9188 0.65515 0.0
O150 O 0.17598 0.88877 0.66208 0.0
O151 O 0.14571 0.88397 0.61797 0.0
H152 H 0.10378 0.89384 0.69091 0.0
H153 H 0.14765 0.86019 0.71569 0.0
H154 H 0.08781 0.88531 0.73355 0.0
H155 H 0.13105 0.85248 0.75805 0.0
H156 H 0.14131 0.96887 0.60255 0.0
H157 H 0.17696 0.93445 0.66964 0.0
H158 H 0.1299 0.93959 0.61954 0.0
H159 H 0.18757 0.96382 0.65173 0.0
H160 H 0.138 0.91582 0.77712 0.0
H161 H 0.19468 0.91685 0.76074 0.0
H162 H 0.07632 0.87943 0.59924 0.0
H163 H 0.07299 0.93069 0.64069 0.0
H164 H 0.20468 0.87579 0.63701 0.0
H165 H 0.17453 0.87493 0.71218 0.0
H166 H 0.22627 0.85462 0.65783 0.0
H167 H 0.1965 0.85357 0.73157 0.0
H168 H 0.17614 0.87014 0.60026 0.0
H169 H 0.1266 0.89434 0.57509 0.0
H170 H 0.185 0.86781 0.55131 0.0
H171 H 0.13632 0.89161 0.52655 0.0
H172 H 0.13295 0.81275 0.67455 0.0
H173 H 0.18436 0.81364 0.63436 0.0
H174 H 0.22023 0.91329 0.5853 0.0
H175 H 0.17265 0.93108 0.54295 0.0
Li176 Li 0.35194 0.90535 0.93496 0.0
Li177 Li 0.37941 0.90295 0.90945 0.0
Li178 Li 0.3518 0.91106 0.88632 0.0
Li179 Li 0.35575 0.88101 0.90278 0.0
C180 C 0.37292 0.93631 0.93285 0.0
N181 N 0.38902 0.9597 0.96923 0.0
C182 C 0.38098 0.92977 0.95671 0.0
C183 C 0.373 0.95474 0.92753 0.0
C184 C 0.38907 0.9418 0.97483 0.0
C185 C 0.38122 0.96635 0.94617 0.0
C186 C 0.38137 0.87167 0.94073 0.0
C187 C 0.40388 0.85131 0.92374 0.0
N188 N 0.40473 0.84341 0.94887 0.0
C189 C 0.38251 0.86337 0.9664 0.0
C190 C 0.39218 0.86561 0.91923 0.0
C191 C 0.39439 0.8491 0.9701 0.0
C192 C 0.34319 0.89794 0.98916 0.0
N193 N 0.34294 0.91139 0.97036 0.0
C194 C 0.33529 0.93276 0.00503 0.0
C195 C 0.33864 0.92849 0.97756 0.0
C196 C 0.33652 0.91931 0.02524 0.0
C197 C 0.34008 0.9016 0.01681 0.0
H198 H 0.34661 0.88447 0.9828 0.0
H199 H 0.33859 0.93899 0.96223 0.0
C200 C 0.41235 0.91432 0.88751 0.0
N201 N 0.40454 0.90713 0.91017 0.0
C202 C 0.43075 0.9174 0.88696 0.0
C203 C 0.43269 0.90568 0.93311 0.0
C204 C 0.41427 0.90298 0.93284 0.0
C205 C 0.44122 0.91298 0.90995 0.0
H206 H 0.40424 0.91765 0.86985 0.0
H207 H 0.40777 0.89741 0.95072 0.0
C208 C 0.31862 0.90563 0.91062 0.0
N209 N 0.28688 0.92414 0.9167 0.0
C210 C 0.30241 0.89635 0.91124 0.0
C211 C 0.31868 0.92434 0.91304 0.0
C212 C 0.28651 0.90594 0.91435 0.0
C213 C 0.3025 0.93344 0.91611 0.0
C214 C 0.36734 0.8872 0.84844 0.0
C215 C 0.35039 0.88138 0.84044 0.0
C216 C 0.38156 0.88622 0.82994 0.0
C217 C 0.34792 0.87477 0.81389 0.0
C218 C 0.37856 0.87949 0.80359 0.0
N219 N 0.36194 0.87396 0.79617 0.0
C220 C 0.35234 0.94022 0.85052 0.0
C221 C 0.32767 0.92085 0.84327 0.0
C222 C 0.34705 0.95107 0.82865 0.0
N223 N 0.34271 0.92542 0.85727 0.0
C224 C 0.32197 0.93124 0.82105 0.0
C225 C 0.33177 0.94653 0.81343 0.0
H226 H 0.36433 0.94341 0.8619 0.0
H227 H 0.32022 0.90902 0.84913 0.0
C228 C 0.33616 0.84965 0.91078 0.0
N229 N 0.3505 0.8563 0.89709 0.0
C230 C 0.3321 0.83138 0.9094 0.0
C231 C 0.35752 0.82719 0.87951 0.0
C232 C 0.36103 0.84557 0.88136 0.0
C233 C 0.343 0.81982 0.89394 0.0
H234 H 0.32806 0.85852 0.92319 0.0
H235 H 0.37242 0.85117 0.87077 0.0
O236 O 0.36461 0.92487 0.91497 0.0
O237 O 0.36968 0.88558 0.93684 0.0
O238 O 0.33424 0.89632 0.90745 0.0
O239 O 0.37024 0.89344 0.87444 0.0
H240 H 0.38083 0.91558 0.96139 0.0
H241 H 0.36669 0.96003 0.90925 0.0
H242 H 0.39533 0.93693 0.9934 0.0
H243 H 0.38137 0.98066 0.94232 0.0
H244 H 0.41229 0.8465 0.90726 0.0
H245 H 0.37434 0.8679 0.98334 0.0
H246 H 0.39163 0.87188 0.89926 0.0
H247 H 0.39538 0.84256 0.98986 0.0
H248 H 0.3323 0.94653 0.01044 0.0
H249 H 0.34141 0.89079 0.03152 0.0
H250 H 0.43667 0.92329 0.86879 0.0
H251 H 0.44017 0.90178 0.95116 0.0
H252 H 0.30214 0.88187 0.90931 0.0
H253 H 0.33103 0.93181 0.91244 0.0
H254 H 0.27387 0.89892 0.91487 0.0
H255 H 0.30236 0.94792 0.91799 0.0
H256 H 0.33931 0.88183 0.85466 0.0
H257 H 0.3948 0.89054 0.83595 0.0
H258 H 0.33488 0.87021 0.80739 0.0
H259 H 0.38944 0.87862 0.78906 0.0
H260 H 0.35515 0.96258 0.8232 0.0
H261 H 0.31006 0.92736 0.80994 0.0
H262 H 0.32062 0.82637 0.92052 0.0
H263 H 0.36643 0.81878 0.86763 0.0
Li264 Li 0.37068 0.1021 0.14734 0.0
Li265 Li 0.34725 0.10125 0.18292 0.0
Li266 Li 0.3404 0.09807 0.134 0.0
Li267 Li 0.34976 0.12735 0.15272 0.0
C268 C 0.34782 0.06568 0.15074 0.0
N269 N 0.33201 0.03365 0.13571 0.0
C270 C 0.33551 0.05741 0.1682 0.0
C271 C 0.35218 0.05761 0.12571 0.0
C272 C 0.32765 0.04122 0.16022 0.0
C273 C 0.344 0.04144 0.11846 0.0
C274 C 0.37452 0.12085 0.20447 0.0
C275 C 0.37259 0.1332 0.25013 0.0
N276 N 0.38831 0.12512 0.25665 0.0
C277 C 0.39069 0.11272 0.21158 0.0
C278 C 0.36542 0.13125 0.22384 0.0
C279 C 0.39744 0.11503 0.23808 0.0
C280 C 0.40657 0.11086 0.13864 0.0
N281 N 0.39496 0.09685 0.1395 0.0
C282 C 0.41811 0.0763 0.12727 0.0
C283 C 0.40035 0.07978 0.13424 0.0
C284 C 0.43039 0.09056 0.1257 0.0
C285 C 0.42439 0.10803 0.1316 0.0
H286 H 0.40187 0.12429 0.14304 0.0
H287 H 0.39085 0.06888 0.13531 0.0
C288 C 0.32346 0.09669 0.22683 0.0
N289 N 0.34079 0.09449 0.21931 0.0
C290 C 0.31835 0.09448 0.25415 0.0
C291 C 0.34887 0.08691 0.2653 0.0
C292 C 0.35328 0.08888 0.23762 0.0
C293 C 0.33126 0.0902 0.27408 0.0
H294 H 0.31366 0.10064 0.21171 0.0
H295 H 0.36687 0.0867 0.23097 0.0
C296 C 0.37054 0.11888 0.09975 0.0
N297 N 0.39827 0.12546 0.06375 0.0
C298 C 0.37791 0.13607 0.09783 0.0
C299 C 0.37717 0.10506 0.0832 0.0
C300 C 0.39194 0.13912 0.07952 0.0
C301 C 0.39124 0.10865 0.0652 0.0
C302 C 0.31465 0.12513 0.16308 0.0
C303 C 0.30268 0.12673 0.14122 0.0
C304 C 0.31288 0.13633 0.18594 0.0
C305 C 0.28916 0.13964 0.14253 0.0
C306 C 0.29921 0.14909 0.18644 0.0
N307 N 0.28774 0.15047 0.1649 0.0
C308 C 0.30922 0.07939 0.11821 0.0
C309 C 0.32776 0.08875 0.08145 0.0
C310 C 0.29643 0.07296 0.09981 0.0
N311 N 0.32438 0.08728 0.10874 0.0
C312 C 0.31536 0.08252 0.06235 0.0
C313 C 0.29928 0.07485 0.07146 0.0
H314 H 0.3068 0.07866 0.14007 0.0
H315 H 0.33982 0.09525 0.0745 0.0
C316 C 0.35855 0.16252 0.16764 0.0
N317 N 0.34734 0.15287 0.15146 0.0
C318 C 0.35705 0.18115 0.16909 0.0
C319 C 0.33292 0.17977 0.13627 0.0
C320 C 0.33497 0.1611 0.13534 0.0
C321 C 0.34389 0.19002 0.15366 0.0
H322 H 0.3687 0.15577 0.1795 0.0
H323 H 0.32655 0.15318 0.12203 0.0
O324 O 0.35544 0.08167 0.15799 0.0
O325 O 0.36766 0.11867 0.17867 0.0
O326 O 0.35701 0.11555 0.11791 0.0
O327 O 0.32804 0.11266 0.16213 0.0
H328 H 0.33198 0.0635 0.18763 0.0
H329 H 0.36159 0.06391 0.11188 0.0
H330 H 0.31805 0.0347 0.17348 0.0
H331 H 0.34715 0.0351 0.09907 0.0
H332 H 0.36564 0.14112 0.26537 0.0
H333 H 0.39788 0.10458 0.19689 0.0
H334 H 0.3529 0.13763 0.21867 0.0
H335 H 0.4099 0.10876 0.2439 0.0
H336 H 0.42219 0.0626 0.12335 0.0
H337 H 0.43326 0.11947 0.13028 0.0
H338 H 0.3045 0.09653 0.25962 0.0
H339 H 0.35937 0.08366 0.27972 0.0
H340 H 0.37295 0.14691 0.11049 0.0
H341 H 0.37172 0.09164 0.0846 0.0
H342 H 0.39783 0.15234 0.0779 0.0
H343 H 0.39661 0.09805 0.05246 0.0
H344 H 0.3039 0.11824 0.12331 0.0
H345 H 0.32202 0.13524 0.20304 0.0
H346 H 0.27984 0.14108 0.12572 0.0
H347 H 0.29773 0.15791 0.20393 0.0
H348 H 0.28412 0.06737 0.1077 0.0
H349 H 0.31815 0.08409 0.04067 0.0
H350 H 0.3662 0.18851 0.1821 0.0
H351 H 0.32263 0.18604 0.12394 0.0
Li352 Li 0.14868 0.91456 0.11455 0.0
Li353 Li 0.14565 0.88309 0.10018 0.0
Li354 Li 0.14817 0.90706 0.0654 0.0
Li355 Li 0.12019 0.9034 0.09232 0.0
C356 C 0.1826 0.90717 0.0932 0.0
N357 N 0.21598 0.9229 0.09364 0.0
C358 C 0.19724 0.89779 0.1037 0.0
C359 C 0.18491 0.92453 0.08293 0.0
C360 C 0.21402 0.90599 0.10376 0.0
C361 C 0.2019 0.93224 0.08331 0.0
C362 C 0.12913 0.88907 0.15316 0.0
C363 C 0.11146 0.87284 0.18628 0.0
N364 N 0.12497 0.87434 0.2048 0.0
C365 C 0.14279 0.89057 0.17257 0.0
C366 C 0.11328 0.88027 0.1601 0.0
C367 C 0.14044 0.88299 0.19855 0.0
C368 C 0.14586 0.94538 0.14554 0.0
N369 N 0.15705 0.93135 0.14092 0.0
C370 C 0.17871 0.94374 0.17162 0.0
C371 C 0.17313 0.93012 0.15379 0.0
C372 C 0.16769 0.95873 0.17567 0.0
C373 C 0.15103 0.95941 0.16266 0.0
H374 H 0.13304 0.94585 0.13535 0.0
H375 H 0.18168 0.91869 0.15005 0.0
C376 C 0.15671 0.84943 0.08326 0.0
N377 N 0.15224 0.85863 0.10636 0.0
C378 C 0.16116 0.83127 0.08464 0.0
C379 C 0.15697 0.8324 0.13376 0.0
C380 C 0.15243 0.85054 0.13138 0.0
C381 C 0.16131 0.82246 0.11015 0.0
H382 H 0.15657 0.8562 0.06363 0.0
H383 H 0.14906 0.85802 0.14955 0.0
C384 C 0.13067 0.94133 0.07193 0.0
N385 N 0.12326 0.97346 0.04594 0.0
C386 C 0.11631 0.94255 0.05372 0.0
C387 C 0.14126 0.95645 0.07693 0.0
C388 C 0.11278 0.95893 0.0408 0.0
C389 C 0.13732 0.97255 0.06356 0.0
C390 C 0.12075 0.87206 0.05981 0.0
C391 C 0.11909 0.86626 0.03266 0.0
C392 C 0.11173 0.86294 0.08068 0.0
C393 C 0.10837 0.85138 0.02683 0.0
C394 C 0.10115 0.84812 0.07403 0.0
N395 N 0.09971 0.8427 0.04746 0.0
C396 C 0.1603 0.89717 0.0137 0.0
C397 C 0.15881 0.92876 0.01879 0.0
C398 C 0.1652 0.89897 0.98618 0.0
N399 N 0.15693 0.91193 0.02926 0.0
C400 C 0.16365 0.93119 0.99134 0.0
C401 C 0.16664 0.91616 0.9745 0.0
H402 H 0.15885 0.88394 0.0226 0.0
H403 H 0.15627 0.94034 0.03144 0.0
C404 C 0.08679 0.9128 0.11462 0.0
N405 N 0.09497 0.906 0.092 0.0
C406 C 0.06827 0.91511 0.11501 0.0
C407 C 0.06699 0.90325 0.06888 0.0
C408 C 0.08551 0.90131 0.06931 0.0
C409 C 0.05809 0.91032 0.09189 0.0
H410 H 0.0947 0.91655 0.13229 0.0
H411 H 0.09235 0.89612 0.05147 0.0
O412 O 0.16606 0.89946 0.09361 0.0
O413 O 0.13105 0.89657 0.12773 0.0
O414 O 0.13408 0.92555 0.08529 0.0
O415 O 0.13136 0.88648 0.06585 0.0
H416 H 0.19561 0.88437 0.11188 0.0
H417 H 0.17368 0.932 0.07499 0.0
H418 H 0.22547 0.89892 0.11191 0.0
H419 H 0.20389 0.94568 0.07546 0.0
H420 H 0.0993 0.86593 0.1919 0.0
H421 H 0.15515 0.89727 0.16751 0.0
H422 H 0.10247 0.87921 0.14545 0.0
H423 H 0.15094 0.88394 0.21373 0.0
H424 H 0.19163 0.94284 0.18153 0.0
H425 H 0.14216 0.97074 0.16563 0.0
H426 H 0.16412 0.82417 0.0658 0.0
H427 H 0.15718 0.82628 0.15392 0.0
H428 H 0.10799 0.931 0.04962 0.0
H429 H 0.15251 0.95574 0.09081 0.0
H430 H 0.10168 0.96009 0.0267 0.0
H431 H 0.14544 0.98433 0.06718 0.0
H432 H 0.12599 0.87318 0.01626 0.0
H433 H 0.11297 0.86721 0.10178 0.0
H434 H 0.10696 0.84674 0.00591 0.0
H435 H 0.09412 0.84092 0.08998 0.0
H436 H 0.16766 0.88701 0.97412 0.0
H437 H 0.16446 0.9447 0.9832 0.0
H438 H 0.06206 0.92084 0.13307 0.0
H439 H 0.05973 0.8991 0.05074 0.0
Li440 Li 0.33774 0.90029 0.36498 0.0
Li441 Li 0.34678 0.87098 0.34772 0.0
Li442 Li 0.36965 0.8955 0.3552 0.0
Li443 Li 0.34751 0.8967 0.31723 0.0
C444 C 0.35736 0.88332 0.4097 0.0
N445 N 0.36378 0.88411 0.46553 0.0
C446 C 0.35126 0.86938 0.42646 0.0
C447 C 0.36681 0.89762 0.42132 0.0
C448 C 0.35459 0.87006 0.45465 0.0
C449 C 0.36992 0.89777 0.44958 0.0
C450 C 0.31302 0.87419 0.33072 0.0
C451 C 0.3 0.8502 0.30414 0.0
N452 N 0.28615 0.84938 0.32214 0.0
C453 C 0.29862 0.87314 0.34891 0.0
C454 C 0.31369 0.86267 0.3081 0.0
C455 C 0.28518 0.8605 0.34423 0.0
C456 C 0.30546 0.9183 0.37457 0.0
N457 N 0.31996 0.91156 0.38782 0.0
C458 C 0.30564 0.91583 0.43124 0.0
C459 C 0.32047 0.91078 0.4157 0.0
C460 C 0.29007 0.92183 0.41804 0.0
C461 C 0.29035 0.92363 0.38931 0.0
H462 H 0.30524 0.91862 0.35238 0.0
H463 H 0.33192 0.90541 0.42609 0.0
C464 C 0.35405 0.83366 0.34117 0.0
N465 N 0.34281 0.84594 0.35242 0.0
C466 C 0.35185 0.81537 0.34678 0.0
C467 C 0.32622 0.82276 0.37472 0.0
C468 C 0.32916 0.84085 0.36904 0.0
C469 C 0.33784 0.80968 0.364 0.0
H470 H 0.36505 0.8381 0.32849 0.0
H471 H 0.32077 0.85091 0.37844 0.0
C472 C 0.34798 0.93256 0.34935 0.0
N473 N 0.33355 0.96563 0.36223 0.0
C474 C 0.33507 0.94025 0.33232 0.0
C475 C 0.35368 0.94173 0.37279 0.0
C476 C 0.3279 0.95698 0.33922 0.0
C477 C 0.34618 0.95842 0.37898 0.0
C478 C 0.37438 0.87607 0.2986 0.0
C479 C 0.38997 0.88534 0.29171 0.0
C480 C 0.36655 0.86452 0.27948 0.0
C481 C 0.3973 0.88314 0.26555 0.0
C482 C 0.37427 0.8627 0.25353 0.0
N483 N 0.38934 0.87198 0.24715 0.0
C484 C 0.40181 0.88785 0.3823 0.0
C485 C 0.40247 0.91468 0.35607 0.0
C486 C 0.41941 0.89053 0.39065 0.0
N487 N 0.39368 0.89997 0.36561 0.0
C488 C 0.42028 0.91767 0.36342 0.0
C489 C 0.42884 0.90557 0.38114 0.0
H490 H 0.39455 0.87614 0.38923 0.0
H491 H 0.39567 0.92401 0.34263 0.0
C492 C 0.32911 0.90122 0.26655 0.0
N493 N 0.34448 0.90474 0.28036 0.0
C494 C 0.32717 0.90661 0.23925 0.0
C495 C 0.3567 0.91961 0.24116 0.0
C496 C 0.35802 0.91405 0.26845 0.0
C497 C 0.34116 0.91578 0.22607 0.0
H498 H 0.31833 0.89427 0.2767 0.0
H499 H 0.36995 0.917 0.28011 0.0
O500 O 0.35426 0.88281 0.38205 0.0
O501 O 0.3264 0.88638 0.33507 0.0
O502 O 0.35485 0.91604 0.34328 0.0
O503 O 0.36687 0.87825 0.32397 0.0
H504 H 0.34398 0.85819 0.41781 0.0
H505 H 0.37159 0.90854 0.4087 0.0
H506 H 0.34989 0.85939 0.46789 0.0
H507 H 0.37718 0.90876 0.45885 0.0
H508 H 0.30039 0.84118 0.28675 0.0
H509 H 0.29793 0.88179 0.3667 0.0
H510 H 0.32468 0.86332 0.29379 0.0
H511 H 0.27402 0.85948 0.35823 0.0
H512 H 0.30608 0.91398 0.45327 0.0
H513 H 0.27879 0.92846 0.37821 0.0
H514 H 0.36138 0.80592 0.33843 0.0
H515 H 0.31505 0.81915 0.38767 0.0
H516 H 0.33049 0.93329 0.31414 0.0
H517 H 0.36374 0.936 0.38607 0.0
H518 H 0.31781 0.96305 0.32634 0.0
H519 H 0.35041 0.96564 0.39712 0.0
H520 H 0.39625 0.89428 0.30629 0.0
H521 H 0.35465 0.85703 0.28462 0.0
H522 H 0.40929 0.89033 0.25987 0.0
H523 H 0.36829 0.85388 0.23848 0.0
H524 H 0.42569 0.88083 0.40412 0.0
H525 H 0.42719 0.92941 0.35573 0.0
H526 H 0.3148 0.9037 0.22864 0.0
H527 H 0.3679 0.92649 0.23186 0.0
Li528 Li 0.35146 0.11594 0.60639 0.0
Li529 Li 0.34909 0.08325 0.61237 0.0
Li530 Li 0.37784 0.09715 0.59507 0.0
Li531 Li 0.35087 0.09484 0.56651 0.0
C532 C 0.37044 0.10738 0.65599 0.0
N533 N 0.38003 0.12167 0.70626 0.0
C534 C 0.36041 0.10348 0.67944 0.0
C535 C 0.38551 0.11836 0.65823 0.0
C536 C 0.36542 0.11088 0.70463 0.0
C537 C 0.39009 0.12551 0.68378 0.0
C538 C 0.31576 0.09532 0.60489 0.0
C539 C 0.29054 0.0753 0.60801 0.0
N540 N 0.28323 0.08608 0.62754 0.0
C541 C 0.30796 0.10626 0.62488 0.0
C542 C 0.30696 0.07977 0.59623 0.0
C543 C 0.29151 0.10133 0.63611 0.0
C544 C 0.34097 0.1512 0.59668 0.0
N545 N 0.34466 0.13962 0.6175 0.0
C546 C 0.34088 0.16306 0.65053 0.0
C547 C 0.34433 0.14511 0.64411 0.0
C548 C 0.33769 0.17547 0.62935 0.0
C549 C 0.33752 0.16926 0.60214 0.0
H550 H 0.34111 0.14645 0.57571 0.0
H551 H 0.34699 0.1357 0.6604 0.0
C552 C 0.3463 0.04738 0.62884 0.0
N553 N 0.34 0.06409 0.63451 0.0
C554 C 0.34104 0.0327 0.64469 0.0
C555 C 0.32285 0.05263 0.67207 0.0
C556 C 0.32836 0.06692 0.65551 0.0
C557 C 0.32932 0.03526 0.66681 0.0
H558 H 0.35574 0.04546 0.61235 0.0
H559 H 0.32356 0.0803 0.65975 0.0
C560 C 0.37669 0.13029 0.56537 0.0
N561 N 0.39752 0.15942 0.55089 0.0
C562 C 0.37976 0.13421 0.53772 0.0
C563 C 0.38407 0.14129 0.58563 0.0
C564 C 0.39038 0.14896 0.53081 0.0
C565 C 0.39459 0.15593 0.57791 0.0
C566 C 0.36635 0.06337 0.56101 0.0
C567 C 0.3822 0.06164 0.54614 0.0
C568 C 0.35139 0.05328 0.5535 0.0
C569 C 0.38276 0.04999 0.52368 0.0
C570 C 0.35247 0.0418 0.53089 0.0
N571 N 0.368 0.04041 0.51657 0.0
C572 C 0.41219 0.09117 0.61794 0.0
C573 C 0.412 0.10225 0.57234 0.0
C574 C 0.4308 0.09242 0.61898 0.0
N575 N 0.40321 0.09653 0.59512 0.0
C576 C 0.43055 0.10376 0.57249 0.0
C577 C 0.44016 0.0992 0.59624 0.0
H578 H 0.40485 0.08644 0.63565 0.0
H579 H 0.40457 0.10592 0.55418 0.0
C580 C 0.32574 0.09189 0.52309 0.0
N581 N 0.3434 0.09234 0.52947 0.0
C582 C 0.32032 0.09085 0.4957 0.0
C583 C 0.35137 0.09043 0.48211 0.0
C584 C 0.35617 0.09164 0.50969 0.0
C585 C 0.33324 0.0902 0.47481 0.0
H586 H 0.31587 0.09262 0.53924 0.0
H587 H 0.37011 0.09229 0.51536 0.0
O588 O 0.36575 0.10011 0.63119 0.0
O589 O 0.33182 0.09994 0.59362 0.0
O590 O 0.36631 0.11588 0.57244 0.0
O591 O 0.36545 0.07492 0.58278 0.0
H592 H 0.3488 0.09494 0.67823 0.0
H593 H 0.39371 0.12124 0.64054 0.0
H594 H 0.3577 0.10805 0.72289 0.0
H595 H 0.4017 0.13406 0.68576 0.0
H596 H 0.28362 0.06325 0.60162 0.0
H597 H 0.31457 0.11836 0.63174 0.0
H598 H 0.31279 0.0712 0.58072 0.0
H599 H 0.28534 0.10963 0.65167 0.0
H600 H 0.34121 0.16727 0.67179 0.0
H601 H 0.33481 0.17829 0.58521 0.0
H602 H 0.3466 0.01959 0.64024 0.0
H603 H 0.31375 0.05515 0.6889 0.0
H604 H 0.37403 0.12594 0.52174 0.0
H605 H 0.3815 0.13872 0.60705 0.0
H606 H 0.39291 0.15211 0.50949 0.0
H607 H 0.40036 0.16456 0.59341 0.0
H608 H 0.39391 0.0693 0.55176 0.0
H609 H 0.33904 0.05444 0.56486 0.0
H610 H 0.39491 0.04858 0.51188 0.0
H611 H 0.34097 0.034 0.52472 0.0
H612 H 0.4377 0.0888 0.63771 0.0
H613 H 0.43728 0.10867 0.5543 0.0
H614 H 0.30621 0.09064 0.4909 0.0
H615 H 0.36174 0.09027 0.46662 0.0
Li616 Li 0.16208 0.09678 0.87025 0.0
Li617 Li 0.15375 0.12608 0.85003 0.0
Li618 Li 0.13125 0.10097 0.85528 0.0
Li619 Li 0.15461 0.09912 0.81986 0.0
C620 C 0.14147 0.11339 0.91129 0.0
N621 N 0.13563 0.11083 0.9671 0.0
C622 C 0.14727 0.12706 0.92879 0.0
C623 C 0.13255 0.09851 0.92208 0.0
C624 C 0.14424 0.12549 0.95698 0.0
C625 C 0.12976 0.09744 0.95038 0.0
C626 C 0.18876 0.11962 0.83062 0.0
C627 C 0.2019 0.13879 0.79624 0.0
N628 N 0.21761 0.13847 0.81024 0.0
C629 C 0.20504 0.11942 0.84463 0.0
C630 C 0.18716 0.12932 0.80621 0.0
C631 C 0.21947 0.12906 0.834 0.0
C632 C 0.1827 0.06988 0.89845 0.0
N633 N 0.17791 0.08746 0.89686 0.0
C634 C 0.19759 0.09507 0.93351 0.0
C635 C 0.18512 0.1 0.91376 0.0
C636 C 0.20301 0.07706 0.93561 0.0
C637 C 0.19527 0.06432 0.91793 0.0
H638 H 0.17705 0.06026 0.88428 0.0
H639 H 0.18137 0.11394 0.91153 0.0
C640 C 0.14281 0.16218 0.84751 0.0
N641 N 0.15711 0.15134 0.85218 0.0
C642 C 0.14472 0.18083 0.84853 0.0
C643 C 0.17599 0.17679 0.85922 0.0
C644 C 0.17339 0.15824 0.8586 0.0
C645 C 0.16155 0.18827 0.85406 0.0
H646 H 0.12996 0.15631 0.84286 0.0
H647 H 0.18439 0.14939 0.86323 0.0
C648 C 0.13913 0.06414 0.84919 0.0
N649 N 0.12243 0.03119 0.85346 0.0
C650 C 0.13187 0.05597 0.82591 0.0
C651 C 0.13801 0.05551 0.87461 0.0
C652 C 0.12345 0.03931 0.82851 0.0
C653 C 0.12947 0.03887 0.87636 0.0
C654 C 0.12704 0.12312 0.80097 0.0
C655 C 0.11084 0.11532 0.7932 0.0
C656 C 0.13423 0.13706 0.78529 0.0
C657 C 0.10223 0.12142 0.76954 0.0
C658 C 0.12521 0.14278 0.76176 0.0
N659 N 0.10954 0.1349 0.75443 0.0
C660 C 0.09817 0.11436 0.86431 0.0
C661 C 0.09692 0.08258 0.86229 0.0
C662 C 0.07965 0.11542 0.86571 0.0
N663 N 0.10639 0.09818 0.86201 0.0
C664 C 0.07826 0.08301 0.8639 0.0
C665 C 0.06945 0.09963 0.86489 0.0
H666 H 0.10607 0.12653 0.86399 0.0
H667 H 0.10363 0.06985 0.86038 0.0
C668 C 0.17751 0.08998 0.77557 0.0
N669 N 0.16016 0.09164 0.78335 0.0
C670 C 0.18185 0.08715 0.74802 0.0
C671 C 0.15036 0.08665 0.73731 0.0
C672 C 0.14666 0.08936 0.76506 0.0
C673 C 0.16818 0.08597 0.72831 0.0
H674 H 0.18802 0.09137 0.79061 0.0
H675 H 0.13298 0.09017 0.77184 0.0
O676 O 0.14436 0.11474 0.88367 0.0
O677 O 0.17445 0.11045 0.84097 0.0
O678 O 0.14772 0.08026 0.84693 0.0
O679 O 0.13559 0.1174 0.82419 0.0
H680 H 0.15412 0.13871 0.92066 0.0
H681 H 0.12777 0.08795 0.90875 0.0
H682 H 0.14873 0.13592 0.9708 0.0
H683 H 0.1229 0.08599 0.95905 0.0
H684 H 0.20085 0.14637 0.77738 0.0
H685 H 0.20648 0.11195 0.86356 0.0
H686 H 0.1747 0.12949 0.79505 0.0
H687 H 0.23214 0.12908 0.84465 0.0
H688 H 0.203 0.10531 0.94691 0.0
H689 H 0.19925 0.05035 0.91863 0.0
H690 H 0.1333 0.18936 0.84449 0.0
H691 H 0.18909 0.18213 0.86392 0.0
H692 H 0.13273 0.06243 0.80606 0.0
H693 H 0.14367 0.06158 0.8928 0.0
H694 H 0.11775 0.03283 0.81068 0.0
H695 H 0.12846 0.03206 0.89591 0.0
H696 H 0.10507 0.10451 0.8051 0.0
H697 H 0.14656 0.14349 0.79128 0.0
H698 H 0.08974 0.11542 0.76317 0.0
H699 H 0.13064 0.15354 0.74938 0.0
H700 H 0.07333 0.12849 0.8668 0.0
H701 H 0.0708 0.07056 0.86312 0.0
H702 H 0.19577 0.08626 0.74217 0.0
H703 H 0.13935 0.08589 0.72298 0.0
Li704 Li 0.85114 0.91056 0.61689 0.0
Li705 Li 0.85418 0.90256 0.56817 0.0
Li706 Li 0.85279 0.87842 0.60516 0.0
Li707 Li 0.87997 0.89841 0.59938 0.0
C708 C 0.81674 0.89671 0.59975 0.0
N709 N 0.78082 0.89797 0.61239 0.0
C710 C 0.8049 0.9059 0.58261 0.0
C711 C 0.81031 0.88795 0.6231 0.0
C712 C 0.78679 0.90645 0.58942 0.0
C713 C 0.79211 0.8888 0.6292 0.0
C714 C 0.87113 0.93622 0.57553 0.0
C715 C 0.88848 0.95271 0.54233 0.0
N716 N 0.87809 0.9674 0.54676 0.0
C717 C 0.86073 0.95153 0.57998 0.0
C718 C 0.88523 0.93684 0.55677 0.0
C719 C 0.86442 0.96715 0.56514 0.0
C720 C 0.85294 0.93499 0.66077 0.0
N721 N 0.84169 0.92835 0.64137 0.0
C722 C 0.81882 0.94886 0.65535 0.0
C723 C 0.82493 0.93511 0.63823 0.0
C724 C 0.83005 0.95563 0.67592 0.0
C725 C 0.84728 0.94847 0.67863 0.0
H726 H 0.86648 0.93007 0.66208 0.0
H727 H 0.81642 0.93025 0.62204 0.0
C728 C 0.84899 0.8948 0.51222 0.0
N729 N 0.84763 0.90808 0.53126 0.0
C730 C 0.84626 0.89854 0.48447 0.0
C731 C 0.83965 0.9293 0.49654 0.0
C732 C 0.84246 0.92494 0.52409 0.0
C733 C 0.84192 0.91609 0.47625 0.0
H734 H 0.85268 0.88139 0.5185 0.0
H735 H 0.8408 0.9351 0.53967 0.0
C736 C 0.86858 0.89304 0.661 0.0
N737 N 0.87203 0.89656 0.7172 0.0
C738 C 0.8854 0.89577 0.6727 0.0
C739 C 0.85351 0.89213 0.67787 0.0
C740 C 0.88686 0.89749 0.70116 0.0
C741 C 0.85553 0.89396 0.70623 0.0
C742 C 0.88137 0.87308 0.55572 0.0
C743 C 0.88529 0.85479 0.55802 0.0
C744 C 0.88994 0.8834 0.53572 0.0
C745 C 0.89782 0.84714 0.5403 0.0
C746 C 0.90239 0.87525 0.51838 0.0
N747 N 0.90604 0.85744 0.52102 0.0
C748 C 0.84206 0.84319 0.59203 0.0
C749 C 0.84509 0.84891 0.63966 0.0
C750 C 0.83817 0.82515 0.59719 0.0
N751 N 0.8456 0.85456 0.61316 0.0
C752 C 0.84103 0.83107 0.64578 0.0
C753 C 0.83771 0.81891 0.62438 0.0
H754 H 0.84265 0.84808 0.57113 0.0
H755 H 0.84816 0.85814 0.65605 0.0
C756 C 0.91297 0.91603 0.60702 0.0
N757 N 0.90531 0.89984 0.60165 0.0
C758 C 0.93155 0.91788 0.6065 0.0
C759 C 0.93393 0.88631 0.59553 0.0
C760 C 0.91538 0.88499 0.59686 0.0
C761 C 0.94215 0.90296 0.60003 0.0
H762 H 0.90463 0.92757 0.61113 0.0
H763 H 0.90904 0.87216 0.59358 0.0
O764 O 0.83449 0.89612 0.5934 0.0
O765 O 0.86769 0.92082 0.58986 0.0
O766 O 0.86698 0.89127 0.63316 0.0
O767 O 0.86917 0.88079 0.57298 0.0
H768 H 0.80969 0.91267 0.56437 0.0
H769 H 0.81925 0.88054 0.63631 0.0
H770 H 0.77748 0.91361 0.57646 0.0
H771 H 0.78694 0.88214 0.64726 0.0
H772 H 0.89931 0.95336 0.52767 0.0
H773 H 0.84984 0.9513 0.59456 0.0
H774 H 0.89363 0.92523 0.55349 0.0
H775 H 0.85641 0.97907 0.56823 0.0
H776 H 0.8055 0.95419 0.65246 0.0
H777 H 0.85651 0.95368 0.6938 0.0
H778 H 0.84821 0.88793 0.46956 0.0
H779 H 0.83593 0.9429 0.49116 0.0
H780 H 0.8972 0.89649 0.65993 0.0
H781 H 0.84039 0.89022 0.66916 0.0
H782 H 0.8998 0.89957 0.71051 0.0
H783 H 0.84398 0.89333 0.71952 0.0
H784 H 0.87885 0.84663 0.5735 0.0
H785 H 0.88693 0.89751 0.5335 0.0
H786 H 0.90103 0.83301 0.5419 0.0
H787 H 0.90912 0.88307 0.5028 0.0
H788 H 0.83559 0.81618 0.58015 0.0
H789 H 0.84101 0.82672 0.66699 0.0
H790 H 0.93752 0.93092 0.61013 0.0
H791 H 0.94178 0.87448 0.59086 0.0
Li792 Li 0.84729 0.13032 0.34922 0.0
Li793 Li 0.8686 0.1054 0.35433 0.0
Li794 Li 0.84456 0.10494 0.31799 0.0
Li795 Li 0.83705 0.10033 0.36662 0.0
C796 C 0.8725 0.13681 0.31157 0.0
N797 N 0.88721 0.16786 0.29033 0.0
C798 C 0.8891 0.14284 0.32086 0.0
C799 C 0.86348 0.14644 0.29125 0.0
C800 C 0.89629 0.1586 0.30992 0.0
C801 C 0.8711 0.16214 0.28084 0.0
C802 C 0.86231 0.11641 0.40845 0.0
C803 C 0.87112 0.09913 0.44804 0.0
N804 N 0.8783 0.11416 0.45943 0.0
C805 C 0.86962 0.13173 0.42065 0.0
C806 C 0.86293 0.10001 0.42233 0.0
C807 C 0.87771 0.1303 0.44638 0.0
C808 C 0.82736 0.16235 0.35039 0.0
N809 N 0.84406 0.15553 0.35357 0.0
C810 C 0.85538 0.18451 0.36552 0.0
C811 C 0.85798 0.16616 0.36106 0.0
C812 C 0.83823 0.19192 0.36253 0.0
C813 C 0.82414 0.18058 0.35467 0.0
H814 H 0.81644 0.15358 0.34497 0.0
H815 H 0.87105 0.16033 0.3641 0.0
C816 C 0.89934 0.08532 0.34524 0.0
N817 N 0.89287 0.09909 0.3606 0.0
C818 C 0.91749 0.08112 0.34585 0.0
C819 C 0.92196 0.10506 0.37864 0.0
C820 C 0.9037 0.10884 0.37732 0.0
C821 C 0.92911 0.09126 0.36232 0.0
H822 H 0.89047 0.07796 0.33183 0.0
H823 H 0.89837 0.12006 0.38868 0.0
C824 C 0.81063 0.11704 0.32336 0.0
N825 N 0.78092 0.11759 0.28977 0.0
C826 C 0.79626 0.10557 0.32863 0.0
C827 C 0.80981 0.12892 0.30118 0.0
C828 C 0.78137 0.10603 0.31137 0.0
C829 C 0.7947 0.12895 0.28438 0.0
C830 C 0.85155 0.06746 0.34821 0.0
C831 C 0.84086 0.05638 0.3319 0.0
C832 C 0.86145 0.06 0.36968 0.0
C833 C 0.83992 0.03804 0.33778 0.0
C834 C 0.86015 0.0416 0.3749 0.0
N835 N 0.84948 0.0311 0.359 0.0
C836 C 0.85307 0.10187 0.26253 0.0
C837 C 0.82472 0.08961 0.2731 0.0
C838 C 0.85084 0.09774 0.23484 0.0
N839 N 0.84001 0.09802 0.28095 0.0
C840 C 0.82181 0.08545 0.24549 0.0
C841 C 0.83492 0.08964 0.22584 0.0
H842 H 0.86529 0.10815 0.26938 0.0
H843 H 0.81472 0.08622 0.28819 0.0
C844 C 0.81689 0.09975 0.41437 0.0
N845 N 0.82081 0.08966 0.39193 0.0
C846 C 0.80383 0.09416 0.43287 0.0
C847 C 0.79905 0.06776 0.40499 0.0
C848 C 0.81227 0.07387 0.38702 0.0
C849 C 0.79452 0.07808 0.42812 0.0
H850 H 0.82354 0.11248 0.41743 0.0
H851 H 0.81518 0.06633 0.36866 0.0
O852 O 0.86521 0.12145 0.32214 0.0
O853 O 0.85435 0.1176 0.38326 0.0
O854 O 0.82533 0.11675 0.34 0.0
O855 O 0.85272 0.08541 0.34261 0.0
H856 H 0.8963 0.1355 0.33648 0.0
H857 H 0.85074 0.14182 0.28357 0.0
H858 H 0.90908 0.16348 0.31703 0.0
H859 H 0.86423 0.16977 0.26517 0.0
H860 H 0.87172 0.08651 0.45899 0.0
H861 H 0.86912 0.14457 0.41028 0.0
H862 H 0.857 0.08813 0.41346 0.0
H863 H 0.88351 0.14202 0.456 0.0
H864 H 0.86657 0.19268 0.37199 0.0
H865 H 0.81074 0.18574 0.35191 0.0
H866 H 0.92243 0.07028 0.33312 0.0
H867 H 0.93049 0.11339 0.39127 0.0
H868 H 0.79662 0.09638 0.34579 0.0
H869 H 0.82073 0.13799 0.29698 0.0
H870 H 0.77018 0.09718 0.31514 0.0
H871 H 0.79393 0.13801 0.26707 0.0
H872 H 0.83326 0.06192 0.31503 0.0
H873 H 0.87017 0.06828 0.38202 0.0
H874 H 0.83159 0.02933 0.32546 0.0
H875 H 0.86769 0.03565 0.39152 0.0
H876 H 0.86158 0.10077 0.2207 0.0
H877 H 0.80929 0.07927 0.23961 0.0
H878 H 0.80054 0.10276 0.45007 0.0
H879 H 0.79222 0.05528 0.40056 0.0
Li880 Li 0.6222 0.09768 0.09427 0.0
Li881 Li 0.64604 0.11987 0.10131 0.0
Li882 Li 0.64946 0.09524 0.06685 0.0
Li883 Li 0.65065 0.08863 0.11582 0.0
C884 C 0.61932 0.12179 0.05111 0.0
N885 N 0.59317 0.13545 0.01706 0.0
C886 C 0.61218 0.13882 0.05608 0.0
C887 C 0.61336 0.1118 0.02865 0.0
C888 C 0.59891 0.14546 0.03868 0.0
C889 C 0.60008 0.11891 0.01172 0.0
C890 C 0.63714 0.11205 0.1553 0.0
C891 C 0.65947 0.12181 0.18768 0.0
N892 N 0.64671 0.12291 0.20747 0.0
C893 C 0.62425 0.11326 0.17595 0.0
C894 C 0.6549 0.11635 0.16117 0.0
C895 C 0.62936 0.11879 0.2022 0.0
C896 C 0.59023 0.07753 0.0943 0.0
N897 N 0.59702 0.09445 0.09472 0.0
C898 C 0.56766 0.10695 0.09679 0.0
C899 C 0.58618 0.10906 0.09637 0.0
C900 C 0.56026 0.08963 0.09572 0.0
C901 C 0.5718 0.0748 0.09455 0.0
H902 H 0.59912 0.06611 0.09408 0.0
H903 H 0.59193 0.12234 0.09754 0.0
C904 C 0.66151 0.15273 0.08844 0.0
N905 N 0.65019 0.14473 0.10645 0.0
C906 C 0.66337 0.17138 0.08824 0.0
C907 C 0.64238 0.17313 0.12587 0.0
C908 C 0.64076 0.15445 0.12511 0.0
C909 C 0.65352 0.18182 0.10686 0.0
H910 H 0.6686 0.14464 0.07356 0.0
H911 H 0.63145 0.14781 0.13869 0.0
C912 C 0.63539 0.06042 0.07297 0.0
N913 N 0.63287 0.0288 0.0436 0.0
C914 C 0.64631 0.04584 0.07965 0.0
C915 C 0.6231 0.05889 0.05151 0.0
C916 C 0.64486 0.02998 0.0645 0.0
C917 C 0.62205 0.04279 0.03688 0.0
C918 C 0.68403 0.09726 0.09186 0.0
C919 C 0.68647 0.08029 0.08019 0.0
C920 C 0.69881 0.10705 0.10089 0.0
C921 C 0.70373 0.07337 0.07779 0.0
C922 C 0.71586 0.09964 0.09819 0.0
N923 N 0.71794 0.0831 0.08678 0.0
C924 C 0.6623 0.10696 0.01702 0.0
C925 C 0.66014 0.07522 0.01798 0.0
C926 C 0.66779 0.10656 0.98966 0.0
N927 N 0.65836 0.09147 0.03048 0.0
C928 C 0.66525 0.07422 0.99044 0.0
C929 C 0.669 0.09005 0.97597 0.0
H930 H 0.66085 0.11969 0.02749 0.0
H931 H 0.6575 0.06301 0.0291 0.0
C932 C 0.6459 0.06779 0.16145 0.0
N933 N 0.6592 0.07353 0.14462 0.0
C934 C 0.64979 0.05733 0.18438 0.0
C935 C 0.681 0.05814 0.17177 0.0
C936 C 0.67654 0.06896 0.1493 0.0
C937 C 0.6675 0.05243 0.18967 0.0
H938 H 0.63224 0.07159 0.15721 0.0
H939 H 0.68697 0.0738 0.13597 0.0
O940 O 0.63232 0.1151 0.06791 0.0
O941 O 0.63234 0.10639 0.12964 0.0
O942 O 0.63664 0.07602 0.08761 0.0
O943 O 0.6673 0.10439 0.09432 0.0
H944 H 0.61676 0.14676 0.0733 0.0
H945 H 0.61897 0.09872 0.02429 0.0
H946 H 0.59317 0.15857 0.04236 0.0
H947 H 0.59528 0.11131 0.99429 0.0
H948 H 0.67316 0.12517 0.19252 0.0
H949 H 0.61046 0.1099 0.17173 0.0
H950 H 0.66508 0.11544 0.1455 0.0
H951 H 0.61952 0.11978 0.2184 0.0
H952 H 0.55923 0.11875 0.09772 0.0
H953 H 0.56666 0.0612 0.09435 0.0
H954 H 0.67214 0.1776 0.07334 0.0
H955 H 0.63437 0.18075 0.14026 0.0
H956 H 0.65582 0.0468 0.09631 0.0
H957 H 0.6145 0.07002 0.04618 0.0
H958 H 0.65327 0.0186 0.06936 0.0
H959 H 0.61265 0.04143 0.02016 0.0
H960 H 0.67516 0.07248 0.07337 0.0
H961 H 0.6971 0.12021 0.10995 0.0
H962 H 0.70582 0.06024 0.06886 0.0
H963 H 0.72743 0.10704 0.10515 0.0
H964 H 0.6705 0.11906 0.97907 0.0
H965 H 0.66624 0.06123 0.98054 0.0
H966 H 0.63909 0.05306 0.19785 0.0
H967 H 0.69481 0.0546 0.17547 0.0
Li968 Li 0.62931 0.89591 0.85364 0.0
Li969 Li 0.65137 0.87075 0.84681 0.0
Li970 Li 0.66109 0.89987 0.86315 0.0
Li971 Li 0.65292 0.89615 0.81588 0.0
C972 C 0.64775 0.88522 0.90789 0.0
N973 N 0.65717 0.89058 0.96205 0.0
C974 C 0.6586 0.87275 0.92134 0.0
C975 C 0.64159 0.90035 0.92197 0.0
C976 C 0.66324 0.87572 0.94874 0.0
C977 C 0.64653 0.90283 0.94936 0.0
C978 C 0.6247 0.86407 0.81198 0.0
C979 C 0.62571 0.83739 0.78399 0.0
N980 N 0.60942 0.83249 0.79378 0.0
C981 C 0.60793 0.85883 0.82169 0.0
C982 C 0.63364 0.85334 0.79288 0.0
C983 C 0.60044 0.84279 0.81226 0.0
C984 C 0.59505 0.91178 0.84723 0.0
N985 N 0.60549 0.90142 0.86367 0.0
C986 C 0.58177 0.89799 0.89599 0.0
C987 C 0.59918 0.89439 0.88751 0.0
C988 C 0.57066 0.90872 0.87957 0.0
C989 C 0.57742 0.91556 0.85478 0.0
H990 H 0.60043 0.91708 0.82829 0.0
H991 H 0.60767 0.88591 0.89991 0.0
C992 C 0.67135 0.83881 0.84639 0.0
N993 N 0.65477 0.84559 0.85089 0.0
C994 C 0.67474 0.82058 0.85045 0.0
C995 C 0.64389 0.81661 0.8637 0.0
C996 C 0.64113 0.83497 0.85957 0.0
C997 C 0.66092 0.80923 0.85933 0.0
H998 H 0.68206 0.84761 0.84009 0.0
H999 H 0.6282 0.84081 0.86371 0.0
C1000 C 0.64878 0.93318 0.84751 0.0
N1001 N 0.65605 0.96857 0.86022 0.0
C1002 C 0.66466 0.94112 0.83859 0.0
C1003 C 0.63656 0.94323 0.86281 0.0
C1004 C 0.6681 0.95903 0.84528 0.0
C1005 C 0.64049 0.96111 0.86903 0.0
C1006 C 0.68687 0.88522 0.81851 0.0
C1007 C 0.70017 0.89813 0.82253 0.0
C1008 C 0.68819 0.87328 0.79647 0.0
C1009 C 0.71454 0.89893 0.8043 0.0
C1010 C 0.70276 0.87454 0.77866 0.0
N1011 N 0.71552 0.88723 0.78292 0.0
C1012 C 0.69135 0.89799 0.89499 0.0
C1013 C 0.67661 0.92581 0.90177 0.0
C1014 C 0.70403 0.90233 0.91481 0.0
N1015 N 0.67797 0.90966 0.88881 0.0
C1016 C 0.6893 0.93088 0.92136 0.0
C1017 C 0.70308 0.91895 0.92819 0.0
H1018 H 0.69191 0.88508 0.88485 0.0
H1019 H 0.6655 0.93458 0.89761 0.0
C1020 C 0.64493 0.89669 0.75963 0.0
N1021 N 0.65682 0.90285 0.77846 0.0
C1022 C 0.64733 0.90034 0.73179 0.0
C1023 C 0.67403 0.91695 0.74315 0.0
C1024 C 0.671 0.9131 0.77081 0.0
C1025 C 0.66217 0.91042 0.72315 0.0
H1026 H 0.63355 0.8889 0.76621 0.0
H1027 H 0.68016 0.9181 0.78607 0.0
O1028 O 0.64352 0.88284 0.88085 0.0
O1029 O 0.63228 0.87968 0.82104 0.0
O1030 O 0.64504 0.91575 0.84094 0.0
O1031 O 0.67271 0.88418 0.83617 0.0
H1032 H 0.66352 0.86101 0.91063 0.0
H1033 H 0.63334 0.91021 0.91171 0.0
H1034 H 0.67172 0.86626 0.9594 0.0
H1035 H 0.64197 0.91454 0.96047 0.0
H1036 H 0.63251 0.82891 0.76929 0.0
H1037 H 0.60083 0.86702 0.83643 0.0
H1038 H 0.64658 0.85726 0.78509 0.0
H1039 H 0.5875 0.83852 0.81965 0.0
H1040 H 0.57695 0.89222 0.915 0.0
H1041 H 0.56925 0.92391 0.84161 0.0
H1042 H 0.68804 0.81543 0.84671 0.0
H1043 H 0.63294 0.80839 0.87099 0.0
H1044 H 0.67432 0.93347 0.827 0.0
H1045 H 0.6242 0.93726 0.86984 0.0
H1046 H 0.68038 0.96533 0.83864 0.0
H1047 H 0.63118 0.96906 0.88089 0.0
H1048 H 0.69931 0.90757 0.83934 0.0
H1049 H 0.67805 0.86319 0.79309 0.0
H1050 H 0.72489 0.90889 0.8071 0.0
H1051 H 0.70391 0.86543 0.76146 0.0
H1052 H 0.7145 0.8928 0.91962 0.0
H1053 H 0.68806 0.94371 0.93164 0.0
H1054 H 0.63758 0.8954 0.71723 0.0
H1055 H 0.68571 0.92466 0.7375 0.0
Li1056 Li 0.87766 0.09826 0.90267 0.0
Li1057 Li 0.85185 0.11833 0.89865 0.0
Li1058 Li 0.85151 0.09279 0.93234 0.0
Li1059 Li 0.84845 0.08752 0.8829 0.0
C1060 C 0.87989 0.12022 0.94895 0.0
N1061 N 0.90536 0.13242 0.98551 0.0
C1062 C 0.88688 0.13753 0.94634 0.0
C1063 C 0.88561 0.10924 0.97048 0.0
C1064 C 0.89983 0.14342 0.96491 0.0
C1065 C 0.89855 0.11562 0.98868 0.0
C1066 C 0.86485 0.11807 0.84746 0.0
C1067 C 0.84848 0.13542 0.81408 0.0
N1068 N 0.8641 0.14235 0.8046 0.0
C1069 C 0.88075 0.12526 0.83726 0.0
C1070 C 0.84858 0.12308 0.83566 0.0
C1071 C 0.88009 0.13756 0.81563 0.0
C1072 C 0.91243 0.08259 0.89662 0.0
N1073 N 0.90289 0.09806 0.89897 0.0
C1074 C 0.92901 0.11564 0.89095 0.0
C1075 C 0.91081 0.11437 0.89641 0.0
C1076 C 0.93919 0.09993 0.8879 0.0
C1077 C 0.93078 0.08322 0.89132 0.0
H1078 H 0.90573 0.06977 0.89794 0.0
H1079 H 0.90282 0.12643 0.89754 0.0
C1080 C 0.82893 0.14856 0.90002 0.0
N1081 N 0.84567 0.14285 0.89374 0.0
C1082 C 0.82468 0.1668 0.89848 0.0
C1083 C 0.85486 0.17281 0.88339 0.0
C1084 C 0.85856 0.15452 0.8855 0.0
C1085 C 0.8378 0.17919 0.89027 0.0
H1086 H 0.81901 0.13899 0.90678 0.0
H1087 H 0.87186 0.14965 0.88119 0.0
C1088 C 0.86934 0.06009 0.92366 0.0
N1089 N 0.87814 0.02973 0.95335 0.0
C1090 C 0.86013 0.04402 0.91931 0.0
C1091 C 0.8832 0.06065 0.94284 0.0
C1092 C 0.86474 0.02883 0.93458 0.0
C1093 C 0.8874 0.04518 0.95773 0.0
C1094 C 0.81549 0.0947 0.90245 0.0
C1095 C 0.80882 0.08059 0.91833 0.0
C1096 C 0.80498 0.10204 0.88158 0.0
C1097 C 0.79178 0.07387 0.91279 0.0
C1098 C 0.78802 0.09493 0.87667 0.0
N1099 N 0.78183 0.08111 0.89223 0.0
C1100 C 0.84017 0.10201 0.98417 0.0
C1101 C 0.84336 0.0705 0.97985 0.0
C1102 C 0.83585 0.10029 0.01188 0.0
N1103 N 0.84415 0.08728 0.9689 0.0
C1104 C 0.83923 0.06815 0.0076 0.0
C1105 C 0.83568 0.08321 0.02415 0.0
H1106 H 0.84069 0.11518 0.97485 0.0
H1107 H 0.84616 0.05892 0.96731 0.0
C1108 C 0.84363 0.07579 0.82867 0.0
N1109 N 0.83845 0.07251 0.85494 0.0
C1110 C 0.83767 0.06492 0.80728 0.0
C1111 C 0.8214 0.04706 0.84026 0.0
C1112 C 0.82747 0.0585 0.86104 0.0
C1113 C 0.82655 0.05026 0.81299 0.0
H1114 H 0.85281 0.08656 0.82429 0.0
H1115 H 0.82374 0.05593 0.88208 0.0
O1116 O 0.8672 0.11424 0.93089 0.0
O1117 O 0.86519 0.10606 0.86873 0.0
O1118 O 0.86489 0.07512 0.90901 0.0
O1119 O 0.83211 0.10149 0.90761 0.0
H1120 H 0.88246 0.14631 0.93003 0.0
H1121 H 0.88004 0.09599 0.97332 0.0
H1122 H 0.90546 0.15673 0.96296 0.0
H1123 H 0.90313 0.10724 0.00539 0.0
H1124 H 0.83598 0.13947 0.80485 0.0
H1125 H 0.89347 0.12137 0.84588 0.0
H1126 H 0.83619 0.11751 0.84317 0.0
H1127 H 0.89229 0.14327 0.80758 0.0
H1128 H 0.93501 0.12879 0.88861 0.0
H1129 H 0.93813 0.07081 0.88875 0.0
H1130 H 0.81135 0.1712 0.90385 0.0
H1131 H 0.86542 0.18194 0.87742 0.0
H1132 H 0.84948 0.04328 0.9044 0.0
H1133 H 0.89072 0.07284 0.94607 0.0
H1134 H 0.85765 0.01634 0.93153 0.0
H1135 H 0.89805 0.04545 0.97271 0.0
H1136 H 0.81677 0.07476 0.93456 0.0
H1137 H 0.80983 0.11314 0.86936 0.0
H1138 H 0.78649 0.06287 0.9248 0.0
H1139 H 0.77975 0.10044 0.86052 0.0
H1140 H 0.83281 0.11226 0.02359 0.0
H1141 H 0.83935 0.05472 0.01611 0.0
H1142 H 0.84227 0.06757 0.78659 0.0
H1143 H 0.8129 0.03579 0.84543 0.0
Li1144 Li 0.66217 0.09916 0.63574 0.0
Li1145 Li 0.65474 0.10192 0.68342 0.0
Li1146 Li 0.63087 0.10403 0.64579 0.0
Li1147 Li 0.6539 0.12853 0.65334 0.0
C1148 C 0.65057 0.06596 0.65218 0.0
N1149 N 0.66032 0.0309 0.64145 0.0
C1150 C 0.66726 0.05962 0.66053 0.0
C1151 C 0.63877 0.05448 0.63854 0.0
C1152 C 0.67196 0.04185 0.65484 0.0
C1153 C 0.64397 0.03679 0.63328 0.0
C1154 C 0.68803 0.11781 0.68135 0.0
C1155 C 0.69899 0.13459 0.72018 0.0
N1156 N 0.71484 0.12575 0.71835 0.0
C1157 C 0.70444 0.10893 0.67979 0.0
C1158 C 0.68529 0.13077 0.70164 0.0
C1159 C 0.71782 0.11313 0.6987 0.0
C1160 C 0.6936 0.09793 0.60562 0.0
N1161 N 0.67831 0.08852 0.60984 0.0
C1162 C 0.68603 0.06801 0.57398 0.0
C1163 C 0.67434 0.07378 0.59452 0.0
C1164 C 0.70179 0.0777 0.56877 0.0
C1165 C 0.70553 0.09279 0.58513 0.0
H1166 H 0.69616 0.10994 0.61744 0.0
H1167 H 0.66183 0.06687 0.59744 0.0
C1168 C 0.64645 0.09777 0.73951 0.0
N1169 N 0.65927 0.09465 0.72035 0.0
C1170 C 0.65009 0.09511 0.76733 0.0
C1171 C 0.6798 0.0853 0.75507 0.0
C1172 C 0.67549 0.0879 0.72749 0.0
C1173 C 0.66713 0.08928 0.77539 0.0
H1174 H 0.63358 0.10293 0.73327 0.0
H1175 H 0.68532 0.0851 0.71189 0.0
C1176 C 0.65162 0.11722 0.59247 0.0
N1177 N 0.66502 0.11627 0.53967 0.0
C1178 C 0.66427 0.12987 0.58407 0.0
C1179 C 0.64569 0.10416 0.57399 0.0
C1180 C 0.6709 0.12914 0.55728 0.0
C1181 C 0.65265 0.10389 0.54739 0.0
C1182 C 0.62594 0.13312 0.69151 0.0
C1183 C 0.6096 0.139 0.68091 0.0
C1184 C 0.63274 0.14108 0.7153 0.0
C1185 C 0.6005 0.15294 0.69403 0.0
C1186 C 0.62323 0.15498 0.72783 0.0
N1187 N 0.60745 0.16058 0.71701 0.0
C1188 C 0.59447 0.09401 0.65436 0.0
C1189 C 0.60142 0.1073 0.61146 0.0
C1190 C 0.57622 0.09438 0.64813 0.0
N1191 N 0.60655 0.1007 0.63621 0.0
C1192 C 0.58343 0.1078 0.60433 0.0
C1193 C 0.57049 0.10177 0.62305 0.0
H1194 H 0.59894 0.08914 0.67412 0.0
H1195 H 0.61124 0.11287 0.59765 0.0
C1196 C 0.67447 0.16056 0.65193 0.0
N1197 N 0.65758 0.15388 0.65121 0.0
C1198 C 0.67736 0.17908 0.65121 0.0
C1199 C 0.64549 0.1835 0.64773 0.0
C1200 C 0.64324 0.1649 0.64843 0.0
C1201 C 0.66274 0.19084 0.64941 0.0
H1202 H 0.68573 0.15153 0.65296 0.0
H1203 H 0.63002 0.15927 0.64671 0.0
O1204 O 0.64569 0.08328 0.65749 0.0
O1205 O 0.67469 0.11366 0.66324 0.0
O1206 O 0.64541 0.11737 0.61887 0.0
O1207 O 0.63497 0.11939 0.67902 0.0
H1208 H 0.67656 0.06839 0.67094 0.0
H1209 H 0.62579 0.05922 0.63202 0.0
H1210 H 0.68488 0.03677 0.66103 0.0
H1211 H 0.63502 0.02775 0.62267 0.0
H1212 H 0.69703 0.14458 0.736 0.0
H1213 H 0.70674 0.09875 0.66434 0.0
H1214 H 0.67274 0.13786 0.70295 0.0
H1215 H 0.73056 0.10631 0.69782 0.0
H1216 H 0.68258 0.05626 0.56201 0.0
H1217 H 0.7172 0.10102 0.58149 0.0
H1218 H 0.63998 0.09837 0.78242 0.0
H1219 H 0.69301 0.08054 0.76049 0.0
H1220 H 0.66908 0.14 0.59817 0.0
H1221 H 0.63608 0.09412 0.5803 0.0
H1222 H 0.68078 0.13878 0.55053 0.0
H1223 H 0.64831 0.09376 0.53295 0.0
H1224 H 0.6041 0.13303 0.66254 0.0
H1225 H 0.64515 0.13649 0.72418 0.0
H1226 H 0.58791 0.15769 0.68592 0.0
H1227 H 0.62837 0.16127 0.74621 0.0
H1228 H 0.5667 0.08974 0.66327 0.0
H1229 H 0.57967 0.11333 0.5846 0.0
H1230 H 0.69092 0.18411 0.65179 0.0
H1231 H 0.63381 0.19202 0.6463 0.0
Li1232 Li 0.64944 0.91125 0.38263 0.0
Li1233 Li 0.64715 0.90267 0.43129 0.0
Li1234 Li 0.64564 0.87956 0.39503 0.0
Li1235 Li 0.62093 0.90136 0.40256 0.0
C1236 C 0.68307 0.90038 0.40105 0.0
N1237 N 0.71828 0.9105 0.3942 0.0
C1238 C 0.69053 0.91358 0.41791 0.0
C1239 C 0.69359 0.89212 0.38101 0.0
C1240 C 0.70833 0.91857 0.41403 0.0
C1241 C 0.71134 0.89748 0.37778 0.0
C1242 C 0.62293 0.9361 0.41317 0.0
C1243 C 0.59854 0.95111 0.43595 0.0
N1244 N 0.59696 0.96245 0.4142 0.0
C1245 C 0.6211 0.94793 0.39107 0.0
C1246 C 0.61161 0.93773 0.43585 0.0
C1247 C 0.60788 0.96116 0.39199 0.0
C1248 C 0.65482 0.92937 0.33158 0.0
N1249 N 0.65975 0.92852 0.3584 0.0
C1250 C 0.67565 0.95623 0.3544 0.0
C1251 C 0.67006 0.94151 0.3699 0.0
C1252 C 0.67027 0.9578 0.32688 0.0
C1253 C 0.66005 0.94389 0.31532 0.0
H1254 H 0.64598 0.91935 0.32312 0.0
H1255 H 0.67316 0.94097 0.39152 0.0
C1256 C 0.66462 0.89451 0.48126 0.0
N1257 N 0.65558 0.90745 0.46734 0.0
C1258 C 0.66911 0.89708 0.50879 0.0
C1259 C 0.65598 0.92671 0.5065 0.0
C1260 C 0.65158 0.92349 0.47913 0.0
C1261 C 0.66452 0.91325 0.52185 0.0
H1262 H 0.66784 0.88198 0.4712 0.0
H1263 H 0.64461 0.93362 0.46746 0.0
C1264 C 0.63331 0.88591 0.34217 0.0
N1265 N 0.63601 0.86902 0.29189 0.0
C1266 C 0.61791 0.88072 0.32808 0.0
C1267 C 0.65008 0.8825 0.33075 0.0
C1268 C 0.61956 0.87221 0.30266 0.0
C1269 C 0.65117 0.87395 0.30529 0.0
C1270 C 0.62875 0.87574 0.45344 0.0
C1271 C 0.63642 0.85913 0.45968 0.0
C1272 C 0.62024 0.88556 0.47413 0.0
C1273 C 0.63568 0.85273 0.48662 0.0
C1274 C 0.61984 0.87873 0.50082 0.0
N1275 N 0.6275 0.86259 0.50646 0.0
C1276 C 0.66623 0.84826 0.39848 0.0
C1277 C 0.63915 0.84469 0.37385 0.0
C1278 C 0.66934 0.82978 0.39759 0.0
N1279 N 0.65115 0.85523 0.38722 0.0
C1280 C 0.6419 0.82618 0.37202 0.0
C1281 C 0.6569 0.8185 0.38468 0.0
H1282 H 0.67536 0.85695 0.40941 0.0
H1283 H 0.62704 0.85053 0.36571 0.0
C1284 C 0.58744 0.91521 0.38359 0.0
N1285 N 0.59561 0.90409 0.40184 0.0
C1286 C 0.56891 0.91756 0.38441 0.0
C1287 C 0.56757 0.89648 0.42205 0.0
C1288 C 0.58605 0.89459 0.42055 0.0
C1289 C 0.55875 0.90825 0.40407 0.0
H1290 H 0.59534 0.92241 0.36863 0.0
H1291 H 0.59276 0.88549 0.43436 0.0
O1292 O 0.66572 0.89519 0.40468 0.0
O1293 O 0.63569 0.92295 0.41259 0.0
O1294 O 0.63194 0.89404 0.36723 0.0
O1295 O 0.62957 0.88236 0.42725 0.0
H1296 H 0.68262 0.92003 0.43365 0.0
H1297 H 0.68815 0.8816 0.3682 0.0
H1298 H 0.71424 0.92887 0.42679 0.0
H1299 H 0.71962 0.89124 0.36229 0.0
H1300 H 0.58964 0.95247 0.45331 0.0
H1301 H 0.62967 0.94685 0.37331 0.0
H1302 H 0.61281 0.92869 0.4531 0.0
H1303 H 0.60628 0.97036 0.375 0.0
H1304 H 0.68355 0.9666 0.36416 0.0
H1305 H 0.65523 0.94472 0.29441 0.0
H1306 H 0.67589 0.88646 0.51984 0.0
H1307 H 0.65212 0.93932 0.51584 0.0
H1308 H 0.60483 0.88323 0.33675 0.0
H1309 H 0.66208 0.8865 0.34141 0.0
H1310 H 0.60775 0.86811 0.2915 0.0
H1311 H 0.66406 0.87124 0.29619 0.0
H1312 H 0.64291 0.85126 0.44395 0.0
H1313 H 0.61422 0.89843 0.46968 0.0
H1314 H 0.64162 0.83992 0.49174 0.0
H1315 H 0.61346 0.88628 0.51706 0.0
H1316 H 0.68106 0.82431 0.40757 0.0
H1317 H 0.63191 0.81785 0.36221 0.0
H1318 H 0.56267 0.92679 0.37016 0.0
H1319 H 0.56026 0.88864 0.43703 0.0
Li1320 Li 0.84761 0.86971 0.15332 0.0
Li1321 Li 0.86947 0.89507 0.14571 0.0
Li1322 Li 0.84656 0.89619 0.18383 0.0
Li1323 Li 0.83742 0.89899 0.13618 0.0
C1324 C 0.87296 0.86663 0.1963 0.0
N1325 N 0.88583 0.84137 0.23275 0.0
C1326 C 0.89019 0.85975 0.19313 0.0
C1327 C 0.86232 0.86081 0.2181 0.0
C1328 C 0.89644 0.84694 0.21174 0.0
C1329 C 0.86906 0.848 0.23629 0.0
C1330 C 0.85322 0.88514 0.09137 0.0
C1331 C 0.8562 0.90516 0.05276 0.0
N1332 N 0.84923 0.89228 0.03611 0.0
C1333 C 0.84611 0.87209 0.07392 0.0
C1334 C 0.85834 0.90181 0.08077 0.0
C1335 C 0.8442 0.87597 0.04602 0.0
C1336 C 0.827 0.8392 0.14384 0.0
N1337 N 0.84389 0.8446 0.14971 0.0
C1338 C 0.85449 0.81439 0.14652 0.0
C1339 C 0.85759 0.83267 0.1511 0.0
C1340 C 0.83713 0.80839 0.14035 0.0
C1341 C 0.82327 0.8211 0.13937 0.0
H1342 H 0.81643 0.84903 0.1422 0.0
H1343 H 0.87099 0.83737 0.15506 0.0
C1344 C 0.90365 0.9109 0.15176 0.0
N1345 N 0.89331 0.90032 0.13549 0.0
C1346 C 0.92136 0.91447 0.14448 0.0
C1347 C 0.91729 0.89635 0.10378 0.0
C1348 C 0.8998 0.89292 0.11203 0.0
C1349 C 0.9283 0.90724 0.12008 0.0
H1350 H 0.89813 0.91648 0.17043 0.0
H1351 H 0.89141 0.88426 0.09977 0.0
C1352 C 0.8114 0.88023 0.17832 0.0
N1353 N 0.78011 0.87288 0.20611 0.0
C1354 C 0.79644 0.89116 0.17459 0.0
C1355 C 0.81044 0.8655 0.19605 0.0
C1356 C 0.78074 0.88723 0.18886 0.0
C1357 C 0.7945 0.86203 0.20995 0.0
C1358 C 0.84771 0.93245 0.15884 0.0
C1359 C 0.83184 0.9362 0.17276 0.0
C1360 C 0.85735 0.94638 0.14663 0.0
C1361 C 0.82584 0.95395 0.1742 0.0
C1362 C 0.85089 0.96394 0.14849 0.0
N1363 N 0.8354 0.96732 0.16212 0.0
C1364 C 0.85875 0.91002 0.23341 0.0
C1365 C 0.82776 0.90366 0.23447 0.0
C1366 C 0.85834 0.91553 0.2608 0.0
N1367 N 0.84364 0.9041 0.22089 0.0
C1368 C 0.82679 0.90881 0.26198 0.0
C1369 C 0.84223 0.91476 0.27549 0.0
H1370 H 0.87118 0.91025 0.22212 0.0
H1371 H 0.81582 0.89928 0.22417 0.0
C1372 C 0.81026 0.89522 0.09891 0.0
N1373 N 0.82014 0.90827 0.11103 0.0
C1374 C 0.79763 0.89953 0.07898 0.0
C1375 C 0.80483 0.93087 0.08528 0.0
C1376 C 0.81773 0.92587 0.10459 0.0
C1377 C 0.79462 0.9176 0.07192 0.0
H1378 H 0.8125 0.88132 0.10438 0.0
H1379 H 0.8258 0.93608 0.11418 0.0
O1380 O 0.86669 0.87921 0.17831 0.0
O1381 O 0.85486 0.88176 0.11882 0.0
O1382 O 0.82682 0.88382 0.16439 0.0
O1383 O 0.85382 0.91522 0.15697 0.0
H1384 H 0.8986 0.86422 0.17639 0.0
H1385 H 0.84905 0.86619 0.22102 0.0
H1386 H 0.90972 0.84143 0.2095 0.0
H1387 H 0.86098 0.84335 0.25326 0.0
H1388 H 0.86004 0.91801 0.04427 0.0
H1389 H 0.84201 0.85916 0.08191 0.0
H1390 H 0.86374 0.91209 0.09411 0.0
H1391 H 0.83867 0.86602 0.03225 0.0
H1392 H 0.86567 0.80518 0.14697 0.0
H1393 H 0.80965 0.81714 0.13502 0.0
H1394 H 0.92947 0.92295 0.15755 0.0
H1395 H 0.92226 0.89029 0.08506 0.0
H1396 H 0.79697 0.90259 0.16087 0.0
H1397 H 0.82185 0.85681 0.19898 0.0
H1398 H 0.76905 0.8956 0.18623 0.0
H1399 H 0.79356 0.8507 0.22376 0.0
H1400 H 0.82415 0.92552 0.1821 0.0
H1401 H 0.86965 0.94363 0.13574 0.0
H1402 H 0.81355 0.95708 0.18485 0.0
H1403 H 0.85817 0.97486 0.13906 0.0
H1404 H 0.87058 0.9199 0.27058 0.0
H1405 H 0.81408 0.90822 0.27256 0.0
H1406 H 0.79061 0.88867 0.06893 0.0
H1407 H 0.80291 0.945 0.08102 0.0
Li1408 Li 0.62156 0.59564 0.90387 0.0
Li1409 Li 0.64865 0.59378 0.93332 0.0
Li1410 Li 0.64651 0.61714 0.89794 0.0
Li1411 Li 0.65192 0.58589 0.88562 0.0
C1412 C 0.6245 0.62957 0.9382 0.0
N1413 N 0.61259 0.66326 0.95317 0.0
C1414 C 0.63075 0.63758 0.96228 0.0
C1415 C 0.61217 0.63864 0.92176 0.0
C1416 C 0.62456 0.65463 0.9695 0.0
C1417 C 0.60632 0.65568 0.92966 0.0
C1418 C 0.63597 0.5611 0.933 0.0
C1419 C 0.65044 0.53725 0.95796 0.0
N1420 N 0.63589 0.53589 0.97455 0.0
C1421 C 0.62111 0.55941 0.95016 0.0
C1422 C 0.65072 0.54989 0.93678 0.0
C1423 C 0.62135 0.5466 0.9711 0.0
C1424 C 0.58883 0.58425 0.88046 0.0
N1425 N 0.59655 0.59224 0.90255 0.0
C1426 C 0.56825 0.59545 0.92452 0.0
C1427 C 0.58672 0.59779 0.92438 0.0
C1428 C 0.55982 0.58724 0.90201 0.0
C1429 C 0.57035 0.58165 0.87971 0.0
H1430 H 0.59705 0.57988 0.86346 0.0
H1431 H 0.59326 0.604 0.94174 0.0
C1432 C 0.67306 0.58623 0.97669 0.0
N1433 N 0.6557 0.5893 0.97013 0.0
C1434 C 0.67812 0.58418 0.00409 0.0
C1435 C 0.64729 0.58828 0.01738 0.0
C1436 C 0.64284 0.59025 0.98975 0.0
C1437 C 0.66518 0.5854 0.0249 0.0
H1438 H 0.68304 0.58573 0.96074 0.0
H1439 H 0.62917 0.59294 0.98391 0.0
C1440 C 0.62961 0.6104 0.84534 0.0
N1441 N 0.62064 0.62605 0.79582 0.0
C1442 C 0.64189 0.61062 0.82375 0.0
C1443 C 0.61275 0.61808 0.84173 0.0
C1444 C 0.63711 0.61861 0.79887 0.0
C1445 C 0.60847 0.62595 0.81655 0.0
C1446 C 0.68443 0.5997 0.89928 0.0
C1447 C 0.69331 0.61335 0.88508 0.0
C1448 C 0.69318 0.58348 0.90453 0.0
C1449 C 0.71083 0.61049 0.87626 0.0
C1450 C 0.71069 0.58114 0.89532 0.0
N1451 N 0.71908 0.59458 0.8815 0.0
C1452 C 0.66072 0.65041 0.91196 0.0
C1453 C 0.64734 0.65082 0.86796 0.0
C1454 C 0.66474 0.66867 0.91003 0.0
N1455 N 0.65201 0.6419 0.89123 0.0
C1456 C 0.65131 0.66903 0.86499 0.0
C1457 C 0.66 0.67828 0.88629 0.0
H1458 H 0.66432 0.643 0.93024 0.0
H1459 H 0.64046 0.64399 0.85165 0.0
C1460 C 0.65418 0.55399 0.85579 0.0
N1461 N 0.66228 0.57017 0.85913 0.0
C1462 C 0.6595 0.54247 0.83472 0.0
C1463 C 0.68195 0.56413 0.82161 0.0
C1464 C 0.67597 0.57536 0.84262 0.0
C1465 C 0.67342 0.54758 0.81696 0.0
H1466 H 0.6431 0.55033 0.86888 0.0
H1467 H 0.68191 0.58846 0.84505 0.0
O1468 O 0.63058 0.61299 0.93063 0.0
O1469 O 0.63617 0.57384 0.91283 0.0
O1470 O 0.63399 0.60254 0.86978 0.0
O1471 O 0.66733 0.60232 0.90822 0.0
H1472 H 0.64035 0.63072 0.97518 0.0
H1473 H 0.60726 0.63262 0.90303 0.0
H1474 H 0.62929 0.66102 0.98806 0.0
H1475 H 0.59682 0.6629 0.91709 0.0
H1476 H 0.66179 0.52852 0.96122 0.0
H1477 H 0.60961 0.56803 0.94751 0.0
H1478 H 0.66227 0.551 0.92357 0.0
H1479 H 0.60999 0.54521 0.98465 0.0
H1480 H 0.56064 0.60019 0.94198 0.0
H1481 H 0.56443 0.57511 0.86208 0.0
H1482 H 0.69204 0.58184 0.00895 0.0
H1483 H 0.63692 0.58963 0.03272 0.0
H1484 H 0.65502 0.60485 0.82623 0.0
H1485 H 0.60307 0.61803 0.8582 0.0
H1486 H 0.6465 0.61893 0.78201 0.0
H1487 H 0.59549 0.63198 0.81348 0.0
H1488 H 0.68673 0.62598 0.88086 0.0
H1489 H 0.68646 0.57274 0.91531 0.0
H1490 H 0.71786 0.62092 0.86521 0.0
H1491 H 0.71759 0.56863 0.89912 0.0
H1492 H 0.6712 0.67521 0.9272 0.0
H1493 H 0.64766 0.67575 0.8461 0.0
H1494 H 0.65222 0.53008 0.83172 0.0
H1495 H 0.69287 0.56861 0.80876 0.0
Li1496 Li 0.62988 0.40076 0.14838 0.0
Li1497 Li 0.65552 0.40038 0.18285 0.0
Li1498 Li 0.66083 0.40304 0.13404 0.0
Li1499 Li 0.65142 0.3745 0.15155 0.0
C1500 C 0.65306 0.43587 0.14766 0.0
N1501 N 0.6659 0.46727 0.12492 0.0
C1502 C 0.66968 0.44257 0.15566 0.0
C1503 C 0.64291 0.44515 0.12823 0.0
C1504 C 0.67596 0.45846 0.14388 0.0
C1505 C 0.64965 0.46101 0.11694 0.0
C1506 C 0.62732 0.37497 0.20069 0.0
C1507 C 0.62915 0.35262 0.23638 0.0
N1508 N 0.61249 0.35724 0.24495 0.0
C1509 C 0.61017 0.37942 0.20972 0.0
C1510 C 0.63687 0.36141 0.214 0.0
C1511 C 0.60292 0.37033 0.23219 0.0
C1512 C 0.59474 0.39415 0.13162 0.0
N1513 N 0.60555 0.40653 0.14358 0.0
C1514 C 0.58074 0.42581 0.15239 0.0
C1515 C 0.59902 0.42219 0.15372 0.0
C1516 C 0.56911 0.41311 0.14071 0.0
C1517 C 0.57638 0.39718 0.12993 0.0
H1518 H 0.60036 0.38171 0.12407 0.0
H1519 H 0.60796 0.4317 0.16334 0.0
C1520 C 0.67871 0.41105 0.2262 0.0
N1521 N 0.66148 0.40747 0.21935 0.0
C1522 C 0.68338 0.41401 0.25361 0.0
C1523 C 0.65229 0.41091 0.266 0.0
C1524 C 0.64825 0.40793 0.23842 0.0
C1525 C 0.67011 0.41356 0.27401 0.0
H1526 H 0.68894 0.41088 0.21052 0.0
H1527 H 0.6346 0.40551 0.23236 0.0
C1528 C 0.64678 0.38188 0.09321 0.0
N1529 N 0.657 0.37137 0.04119 0.0
C1530 C 0.66271 0.37243 0.08937 0.0
C1531 C 0.63601 0.38594 0.07065 0.0
C1532 C 0.66766 0.36726 0.0629 0.0
C1533 C 0.64142 0.38051 0.04449 0.0
C1534 C 0.68679 0.37642 0.1701 0.0
C1535 C 0.70003 0.37006 0.15236 0.0
C1536 C 0.68698 0.37116 0.19766 0.0
C1537 C 0.71326 0.35862 0.16251 0.0
C1538 C 0.70046 0.35975 0.20704 0.0
N1539 N 0.71321 0.35376 0.18941 0.0
C1540 C 0.69346 0.41165 0.1075 0.0
C1541 C 0.66741 0.42019 0.08325 0.0
C1542 C 0.70412 0.4158 0.08483 0.0
N1543 N 0.67543 0.41333 0.10596 0.0
C1544 C 0.67753 0.42463 0.06019 0.0
C1545 C 0.6961 0.42186 0.06042 0.0
H1546 H 0.69951 0.40631 0.12591 0.0
H1547 H 0.65303 0.4214 0.08257 0.0
C1548 C 0.63854 0.34286 0.12903 0.0
N1549 N 0.65138 0.34893 0.14643 0.0
C1550 C 0.63794 0.3248 0.12149 0.0
C1551 C 0.6632 0.31922 0.15109 0.0
C1552 C 0.66338 0.33744 0.15792 0.0
C1553 C 0.65056 0.31277 0.13224 0.0
H1554 H 0.62893 0.35216 0.12054 0.0
H1555 H 0.67327 0.34229 0.17207 0.0
O1556 O 0.64686 0.42015 0.15853 0.0
O1557 O 0.63462 0.38385 0.17887 0.0
O1558 O 0.6419 0.38742 0.1189 0.0
O1559 O 0.67397 0.38795 0.16056 0.0
H1560 H 0.6777 0.43547 0.17063 0.0
H1561 H 0.63005 0.44006 0.12173 0.0
H1562 H 0.68884 0.46378 0.14975 0.0
H1563 H 0.64199 0.4683 0.10178 0.0
H1564 H 0.6364 0.34212 0.24691 0.0
H1565 H 0.6026 0.38987 0.19958 0.0
H1566 H 0.65006 0.35767 0.20709 0.0
H1567 H 0.5897 0.37369 0.2395 0.0
H1568 H 0.57577 0.43835 0.16065 0.0
H1569 H 0.56792 0.38689 0.12114 0.0
H1570 H 0.69725 0.41629 0.25884 0.0
H1571 H 0.64163 0.41035 0.281 0.0
H1572 H 0.6712 0.36925 0.10664 0.0
H1573 H 0.62366 0.39329 0.07333 0.0
H1574 H 0.67998 0.36 0.0596 0.0
H1575 H 0.63325 0.38359 0.0268 0.0
H1576 H 0.7001 0.37387 0.13094 0.0
H1577 H 0.67669 0.37555 0.21163 0.0
H1578 H 0.72358 0.35362 0.14899 0.0
H1579 H 0.70071 0.35556 0.22829 0.0
H1580 H 0.71834 0.41333 0.08599 0.0
H1581 H 0.67079 0.42963 0.04208 0.0
H1582 H 0.62775 0.32031 0.10729 0.0
H1583 H 0.67318 0.31039 0.15984 0.0
Li1584 Li 0.85278 0.40797 0.43583 0.0
Li1585 Li 0.88027 0.40466 0.40597 0.0
Li1586 Li 0.85043 0.4147 0.38638 0.0
Li1587 Li 0.85516 0.38369 0.40124 0.0
C1588 C 0.86757 0.44323 0.4252 0.0
N1589 N 0.87109 0.47687 0.44845 0.0
C1590 C 0.88405 0.44878 0.43564 0.0
C1591 C 0.85293 0.45483 0.42631 0.0
C1592 C 0.88555 0.46583 0.44739 0.0
C1593 C 0.85497 0.47177 0.43823 0.0
C1594 C 0.87415 0.37168 0.44486 0.0
C1595 C 0.8883 0.34267 0.44161 0.0
N1596 N 0.88054 0.33778 0.46571 0.0
C1597 C 0.86641 0.36642 0.46969 0.0
C1598 C 0.8853 0.35977 0.43079 0.0
C1599 C 0.86977 0.34921 0.47987 0.0
C1600 C 0.83159 0.40346 0.48292 0.0
N1601 N 0.84497 0.41358 0.47207 0.0
C1602 C 0.84868 0.42917 0.51457 0.0
C1603 C 0.85353 0.42623 0.4873 0.0
C1604 C 0.83529 0.41858 0.52645 0.0
C1605 C 0.82663 0.40562 0.51038 0.0
H1606 H 0.82522 0.39328 0.47047 0.0
H1607 H 0.86451 0.43367 0.47868 0.0
C1608 C 0.9131 0.41757 0.38488 0.0
N1609 N 0.90525 0.40778 0.40509 0.0
C1610 C 0.93161 0.41999 0.38476 0.0
C1611 C 0.93344 0.40217 0.42616 0.0
C1612 C 0.91495 0.40015 0.42552 0.0
C1613 C 0.94202 0.41228 0.40568 0.0
H1614 H 0.90496 0.42354 0.36897 0.0
H1615 H 0.90831 0.3925 0.44137 0.0
C1616 C 0.81722 0.40446 0.40649 0.0
N1617 N 0.78213 0.41494 0.39977 0.0
C1618 C 0.80558 0.39401 0.39076 0.0
C1619 C 0.81098 0.42007 0.41913 0.0
C1620 C 0.7879 0.39959 0.3875 0.0
C1621 C 0.7932 0.42519 0.41541 0.0
C1622 C 0.87484 0.38893 0.34942 0.0
C1623 C 0.86576 0.38986 0.32441 0.0
C1624 C 0.89105 0.3797 0.35101 0.0
C1625 C 0.87298 0.38133 0.3014 0.0
C1626 C 0.89783 0.37135 0.32754 0.0
N1627 N 0.88872 0.37233 0.30343 0.0
C1628 C 0.84816 0.44592 0.35443 0.0
C1629 C 0.82711 0.42354 0.34231 0.0
C1630 C 0.84268 0.45668 0.33255 0.0
N1631 N 0.84041 0.42968 0.35881 0.0
C1632 C 0.82118 0.43388 0.32019 0.0
C1633 C 0.82918 0.45059 0.31481 0.0
H1634 H 0.85909 0.45025 0.36731 0.0
H1635 H 0.82156 0.41035 0.34568 0.0
C1636 C 0.83989 0.35074 0.4157 0.0
N1637 N 0.8488 0.35909 0.39501 0.0
C1638 C 0.83559 0.33254 0.41377 0.0
C1639 C 0.84884 0.33203 0.3686 0.0
C1640 C 0.85309 0.35017 0.37157 0.0
C1641 C 0.84017 0.32287 0.39001 0.0
H1642 H 0.83639 0.35819 0.43398 0.0
H1643 H 0.85984 0.35698 0.35511 0.0
O1644 O 0.86589 0.42656 0.41374 0.0
O1645 O 0.87079 0.38838 0.43437 0.0
O1646 O 0.83457 0.39923 0.40973 0.0
O1647 O 0.86796 0.39721 0.37212 0.0
H1648 H 0.89553 0.43997 0.43486 0.0
H1649 H 0.84016 0.45085 0.41795 0.0
H1650 H 0.89819 0.47028 0.45568 0.0
H1651 H 0.84374 0.48089 0.4393 0.0
H1652 H 0.89679 0.33327 0.43083 0.0
H1653 H 0.85784 0.3755 0.48093 0.0
H1654 H 0.89142 0.36364 0.41159 0.0
H1655 H 0.86381 0.34494 0.49901 0.0
H1656 H 0.85583 0.43905 0.52662 0.0
H1657 H 0.81633 0.39714 0.51908 0.0
H1658 H 0.93765 0.42801 0.36871 0.0
H1659 H 0.94093 0.39571 0.4424 0.0
H1660 H 0.81022 0.38181 0.38099 0.0
H1661 H 0.81975 0.42811 0.43176 0.0
H1662 H 0.77876 0.39172 0.37522 0.0
H1663 H 0.78819 0.43728 0.42499 0.0
H1664 H 0.85322 0.397 0.32282 0.0
H1665 H 0.89834 0.37896 0.37012 0.0
H1666 H 0.86606 0.38188 0.28193 0.0
H1667 H 0.91033 0.36411 0.32848 0.0
H1668 H 0.84954 0.46925 0.32888 0.0
H1669 H 0.8107 0.42866 0.30711 0.0
H1670 H 0.82908 0.32608 0.43097 0.0
H1671 H 0.85227 0.32529 0.34962 0.0
Li1672 Li 0.84464 0.59836 0.67936 0.0
Li1673 Li 0.86932 0.60068 0.64402 0.0
Li1674 Li 0.84583 0.62557 0.64961 0.0
Li1675 Li 0.83898 0.59672 0.63167 0.0
C1676 C 0.87601 0.6222 0.69519 0.0
N1677 N 0.90069 0.6334 0.73374 0.0
C1678 C 0.89066 0.61136 0.70164 0.0
C1679 C 0.874 0.63881 0.70821 0.0
C1680 C 0.90296 0.61724 0.72123 0.0
C1681 C 0.88659 0.64421 0.72769 0.0
C1682 C 0.84642 0.56404 0.64576 0.0
C1683 C 0.84659 0.53729 0.61785 0.0
N1684 N 0.83047 0.53256 0.62847 0.0
C1685 C 0.82988 0.55889 0.65645 0.0
C1686 C 0.85488 0.55315 0.62635 0.0
C1687 C 0.82202 0.54293 0.64742 0.0
C1688 C 0.82204 0.58767 0.72356 0.0
N1689 N 0.83927 0.59074 0.71606 0.0
C1690 C 0.84898 0.58704 0.76244 0.0
C1691 C 0.85271 0.58984 0.73472 0.0
C1692 C 0.8312 0.58493 0.77106 0.0
C1693 C 0.81767 0.58479 0.75108 0.0
H1694 H 0.81156 0.58807 0.70832 0.0
H1695 H 0.86632 0.59184 0.72829 0.0
C1696 C 0.90434 0.61083 0.63041 0.0
N1697 N 0.89379 0.59656 0.63662 0.0
C1698 C 0.92246 0.6083 0.62482 0.0
C1699 C 0.91842 0.57642 0.63204 0.0
C1700 C 0.90045 0.5796 0.63784 0.0
C1701 C 0.92964 0.59088 0.62536 0.0
H1702 H 0.89864 0.62418 0.62978 0.0
H1703 H 0.89182 0.56857 0.64345 0.0
C1704 C 0.8144 0.61963 0.67751 0.0
N1705 N 0.79382 0.63852 0.71478 0.0
C1706 C 0.79581 0.61994 0.67494 0.0
C1707 C 0.82248 0.62895 0.6991 0.0
C1708 C 0.78565 0.62956 0.69396 0.0
C1709 C 0.81187 0.6384 0.71772 0.0
C1710 C 0.85169 0.61675 0.58956 0.0
C1711 C 0.8357 0.62521 0.58244 0.0
C1712 C 0.86303 0.61034 0.569 0.0
C1713 C 0.83114 0.62683 0.55475 0.0
C1714 C 0.85801 0.61227 0.54154 0.0
N1715 N 0.84229 0.62038 0.53505 0.0
C1716 C 0.85697 0.66183 0.64827 0.0
C1717 C 0.82568 0.65761 0.64473 0.0
C1718 C 0.85483 0.68047 0.64733 0.0
N1719 N 0.84246 0.65087 0.64739 0.0
C1720 C 0.8229 0.67612 0.64419 0.0
C1721 C 0.83758 0.68777 0.64569 0.0
H1722 H 0.87018 0.65607 0.64996 0.0
H1723 H 0.8144 0.64865 0.64308 0.0
C1724 C 0.80675 0.5886 0.60419 0.0
N1725 N 0.82469 0.58601 0.60342 0.0
C1726 C 0.7962 0.58411 0.58159 0.0
C1727 C 0.82269 0.57352 0.55836 0.0
C1728 C 0.8327 0.57811 0.58148 0.0
C1729 C 0.80427 0.57702 0.55794 0.0
H1730 H 0.80075 0.59501 0.62179 0.0
H1731 H 0.84701 0.57628 0.5813 0.0
O1732 O 0.86396 0.61681 0.67571 0.0
O1733 O 0.85415 0.57976 0.6541 0.0
O1734 O 0.82448 0.6103 0.65885 0.0
O1735 O 0.8562 0.61465 0.61654 0.0
H1736 H 0.89238 0.59842 0.69195 0.0
H1737 H 0.86286 0.64749 0.70337 0.0
H1738 H 0.9143 0.60893 0.72651 0.0
H1739 H 0.88517 0.65701 0.73796 0.0
H1740 H 0.85293 0.52879 0.60272 0.0
H1741 H 0.8231 0.56723 0.67132 0.0
H1742 H 0.86757 0.55702 0.61756 0.0
H1743 H 0.80919 0.53883 0.65544 0.0
H1744 H 0.85986 0.58733 0.77705 0.0
H1745 H 0.80382 0.58286 0.75671 0.0
H1746 H 0.93068 0.61977 0.61963 0.0
H1747 H 0.92354 0.56283 0.63304 0.0
H1748 H 0.78926 0.61285 0.65839 0.0
H1749 H 0.83676 0.6288 0.70164 0.0
H1750 H 0.77126 0.62992 0.69216 0.0
H1751 H 0.81799 0.64562 0.73453 0.0
H1752 H 0.82677 0.63019 0.59817 0.0
H1753 H 0.87548 0.60379 0.57424 0.0
H1754 H 0.81871 0.63317 0.54893 0.0
H1755 H 0.86659 0.60728 0.52539 0.0
H1756 H 0.86646 0.68907 0.64851 0.0
H1757 H 0.80943 0.68129 0.64242 0.0
H1758 H 0.78207 0.58719 0.58202 0.0
H1759 H 0.82941 0.56793 0.54062 0.0
Li1760 Li 0.64893 0.41391 0.6122 0.0
Li1761 Li 0.64584 0.38157 0.6038 0.0
Li1762 Li 0.64724 0.40392 0.56526 0.0
Li1763 Li 0.62008 0.40125 0.59313 0.0
C1764 C 0.68215 0.40161 0.60382 0.0
N1765 N 0.71488 0.40984 0.62678 0.0
C1766 C 0.68997 0.38998 0.62285 0.0
C1767 C 0.69109 0.41733 0.59622 0.0
C1768 C 0.7065 0.3944 0.63428 0.0
C1769 C 0.70759 0.42128 0.60815 0.0
C1770 C 0.62711 0.38834 0.65331 0.0
C1771 C 0.60837 0.36775 0.67851 0.0
N1772 N 0.61799 0.37111 0.70162 0.0
C1773 C 0.63662 0.39177 0.67743 0.0
C1774 C 0.61271 0.3764 0.65396 0.0
C1775 C 0.63189 0.38286 0.70158 0.0
C1776 C 0.65298 0.44907 0.63136 0.0
N1777 N 0.6585 0.43195 0.63594 0.0
C1778 C 0.67621 0.44156 0.6741 0.0
C1779 C 0.66996 0.42799 0.65676 0.0
C1780 C 0.67071 0.45936 0.66975 0.0
C1781 C 0.65902 0.46304 0.64796 0.0
H1782 H 0.64364 0.45187 0.61504 0.0
H1783 H 0.67412 0.41428 0.66014 0.0
C1784 C 0.65358 0.34537 0.59384 0.0
N1785 N 0.65237 0.35769 0.61435 0.0
C1786 C 0.65731 0.32743 0.59979 0.0
C1787 C 0.65938 0.33527 0.6478 0.0
C1788 C 0.65549 0.35305 0.64092 0.0
C1789 C 0.66011 0.32215 0.62712 0.0
H1790 H 0.65143 0.34946 0.57281 0.0
H1791 H 0.65502 0.36311 0.65682 0.0
C1792 C 0.63309 0.43622 0.5624 0.0
N1793 N 0.63326 0.4613 0.52059 0.0
C1794 C 0.61759 0.43946 0.54723 0.0
C1795 C 0.6486 0.44593 0.55657 0.0
C1796 C 0.61796 0.45215 0.52611 0.0
C1797 C 0.64845 0.45848 0.53527 0.0
C1798 C 0.61919 0.37026 0.56083 0.0
C1799 C 0.61409 0.36949 0.53326 0.0
C1800 C 0.6119 0.35804 0.57948 0.0
C1801 C 0.60147 0.3568 0.52496 0.0
C1802 C 0.59934 0.34552 0.5704 0.0
N1803 N 0.59439 0.34519 0.54356 0.0
C1804 C 0.67297 0.4084 0.52276 0.0
C1805 C 0.64275 0.40942 0.50855 0.0
C1806 C 0.67875 0.41059 0.49568 0.0
N1807 N 0.65524 0.40776 0.52859 0.0
C1808 C 0.6479 0.41146 0.48122 0.0
C1809 C 0.66614 0.41193 0.47437 0.0
H1810 H 0.68264 0.40701 0.53907 0.0
H1811 H 0.62874 0.40895 0.5138 0.0
C1812 C 0.58511 0.40481 0.6159 0.0
N1813 N 0.59463 0.40266 0.59236 0.0
C1814 C 0.56644 0.4045 0.6153 0.0
C1815 C 0.56777 0.40083 0.56608 0.0
C1816 C 0.58636 0.40106 0.56768 0.0
C1817 C 0.55751 0.40218 0.59016 0.0
H1818 H 0.592 0.40644 0.63523 0.0
H1819 H 0.59422 0.3999 0.54917 0.0
O1820 O 0.66594 0.39752 0.59247 0.0
O1821 O 0.63162 0.39696 0.62944 0.0
O1822 O 0.63308 0.42361 0.58284 0.0
O1823 O 0.6314 0.38278 0.56939 0.0
H1824 H 0.68333 0.37771 0.62884 0.0
H1825 H 0.68533 0.42642 0.58139 0.0
H1826 H 0.71266 0.38555 0.64913 0.0
H1827 H 0.71459 0.43345 0.60258 0.0
H1828 H 0.5973 0.35844 0.67923 0.0
H1829 H 0.64763 0.40111 0.67751 0.0
H1830 H 0.60478 0.37398 0.63584 0.0
H1831 H 0.63925 0.3853 0.72031 0.0
H1832 H 0.68523 0.43819 0.69068 0.0
H1833 H 0.65418 0.47653 0.64423 0.0
H1834 H 0.65809 0.31782 0.58316 0.0
H1835 H 0.66144 0.33178 0.66914 0.0
H1836 H 0.60541 0.43223 0.55163 0.0
H1837 H 0.66065 0.44371 0.56826 0.0
H1838 H 0.60609 0.45472 0.51411 0.0
H1839 H 0.6604 0.46599 0.53042 0.0
H1840 H 0.61975 0.37862 0.51839 0.0
H1841 H 0.61608 0.35804 0.60066 0.0
H1842 H 0.59732 0.35616 0.50372 0.0
H1843 H 0.59358 0.33603 0.58468 0.0
H1844 H 0.69293 0.41114 0.49153 0.0
H1845 H 0.63765 0.41212 0.4656 0.0
H1846 H 0.55914 0.40555 0.63441 0.0
H1847 H 0.56153 0.39953 0.54614 0.0
Li1848 Li 0.84677 0.37137 0.85186 0.0
Li1849 Li 0.83704 0.40163 0.86639 0.0
Li1850 Li 0.84685 0.39668 0.81869 0.0
Li1851 Li 0.86799 0.39648 0.858 0.0
C1852 C 0.81307 0.37553 0.82797 0.0
N1853 N 0.78606 0.35384 0.80823 0.0
C1854 C 0.79705 0.37395 0.84248 0.0
C1855 C 0.8153 0.36621 0.80332 0.0
C1856 C 0.78357 0.36287 0.8322 0.0
C1857 C 0.8015 0.35529 0.7937 0.0
C1858 C 0.8644 0.38176 0.90689 0.0
C1859 C 0.88258 0.39297 0.94397 0.0
N1860 N 0.88928 0.37619 0.94787 0.0
C1861 C 0.87137 0.3646 0.91138 0.0
C1862 C 0.86994 0.39605 0.92343 0.0
C1863 C 0.88397 0.36207 0.93217 0.0
C1864 C 0.85523 0.33419 0.84929 0.0
N1865 N 0.84268 0.34643 0.85676 0.0
C1866 C 0.82408 0.32331 0.87508 0.0
C1867 C 0.82738 0.34138 0.86957 0.0
C1868 C 0.83685 0.3103 0.86789 0.0
C1869 C 0.85257 0.31596 0.85466 0.0
H1870 H 0.86753 0.33863 0.83988 0.0
H1871 H 0.81787 0.35144 0.87599 0.0
C1872 C 0.80453 0.41975 0.87535 0.0
N1873 N 0.81895 0.41251 0.88814 0.0
C1874 C 0.78946 0.42461 0.8905 0.0
C1875 C 0.80461 0.41502 0.93177 0.0
C1876 C 0.81942 0.41042 0.91583 0.0
C1877 C 0.78915 0.42173 0.91903 0.0
H1878 H 0.80439 0.42089 0.85323 0.0
H1879 H 0.83089 0.40424 0.92539 0.0
C1880 C 0.8757 0.37255 0.80586 0.0
N1881 N 0.89501 0.35991 0.76158 0.0
C1882 C 0.89263 0.37954 0.80018 0.0
C1883 C 0.86865 0.35905 0.78915 0.0
C1884 C 0.90217 0.37298 0.77767 0.0
C1885 C 0.87861 0.35286 0.76682 0.0
C1886 C 0.84651 0.43318 0.85022 0.0
C1887 C 0.83515 0.44189 0.83178 0.0
C1888 C 0.85016 0.44102 0.87566 0.0
C1889 C 0.82746 0.45827 0.83926 0.0
C1890 C 0.8422 0.4574 0.88238 0.0
N1891 N 0.8311 0.46561 0.8642 0.0
C1892 C 0.82581 0.40712 0.77343 0.0
C1893 C 0.85638 0.40284 0.76267 0.0
C1894 C 0.82201 0.41136 0.74609 0.0
N1895 N 0.84275 0.40282 0.78111 0.0
C1896 C 0.8531 0.40655 0.73506 0.0
C1897 C 0.83574 0.41083 0.72656 0.0
H1898 H 0.81525 0.40725 0.78856 0.0
H1899 H 0.86981 0.40002 0.76929 0.0
C1900 C 0.90318 0.38733 0.8723 0.0
N1901 N 0.89205 0.40147 0.86798 0.0
C1902 C 0.92108 0.39022 0.87885 0.0
C1903 C 0.91584 0.4222 0.87598 0.0
C1904 C 0.89798 0.41867 0.86966 0.0
C1905 C 0.92769 0.40785 0.88061 0.0
H1906 H 0.89814 0.37378 0.87042 0.0
H1907 H 0.8889 0.42965 0.86569 0.0
O1908 O 0.82645 0.3862 0.83787 0.0
O1909 O 0.85228 0.38457 0.88634 0.0
O1910 O 0.86616 0.37883 0.82779 0.0
O1911 O 0.85387 0.41695 0.84352 0.0
H1912 H 0.79512 0.3811 0.8616 0.0
H1913 H 0.82752 0.36747 0.7917 0.0
H1914 H 0.77114 0.36145 0.84328 0.0
H1915 H 0.80305 0.34798 0.77467 0.0
H1916 H 0.88709 0.40394 0.95678 0.0
H1917 H 0.86722 0.35338 0.89884 0.0
H1918 H 0.86465 0.4094 0.92026 0.0
H1919 H 0.88955 0.34888 0.93578 0.0
H1920 H 0.81169 0.31962 0.88505 0.0
H1921 H 0.86297 0.3065 0.84927 0.0
H1922 H 0.77794 0.42993 0.87984 0.0
H1923 H 0.80492 0.41229 0.95359 0.0
H1924 H 0.89826 0.39006 0.8128 0.0
H1925 H 0.85568 0.35333 0.79343 0.0
H1926 H 0.91524 0.37832 0.77295 0.0
H1927 H 0.8733 0.34244 0.75368 0.0
H1928 H 0.83221 0.43603 0.812 0.0
H1929 H 0.85894 0.43445 0.89014 0.0
H1930 H 0.81856 0.46513 0.82525 0.0
H1931 H 0.84483 0.46358 0.90207 0.0
H1932 H 0.80847 0.41468 0.74018 0.0
H1933 H 0.86405 0.40632 0.72054 0.0
H1934 H 0.92961 0.37874 0.88258 0.0
H1935 H 0.92037 0.43599 0.87663 0.0
Li1936 Li 0.85248 0.61718 0.10042 0.0
Li1937 Li 0.84963 0.58482 0.10965 0.0
Li1938 Li 0.87899 0.59781 0.09331 0.0
Li1939 Li 0.85291 0.59467 0.06313 0.0
C1940 C 0.86935 0.61035 0.15246 0.0
N1941 N 0.87704 0.62593 0.20258 0.0
C1942 C 0.85721 0.60905 0.17416 0.0
C1943 C 0.88552 0.61936 0.15641 0.0
C1944 C 0.8613 0.61707 0.1993 0.0
C1945 C 0.88912 0.62722 0.18184 0.0
C1946 C 0.81692 0.59677 0.09994 0.0
C1947 C 0.79177 0.57688 0.10556 0.0
N1948 N 0.78429 0.58876 0.12338 0.0
C1949 C 0.80897 0.60881 0.11825 0.0
C1950 C 0.80824 0.5807 0.09344 0.0
C1951 C 0.79247 0.60451 0.12989 0.0
C1952 C 0.84128 0.65094 0.08521 0.0
N1953 N 0.8453 0.6413 0.10807 0.0
C1954 C 0.84045 0.6671 0.13636 0.0
C1955 C 0.8448 0.64894 0.13342 0.0
C1956 C 0.83663 0.6775 0.11299 0.0
C1957 C 0.837 0.66911 0.08716 0.0
H1958 H 0.8418 0.64453 0.0653 0.0
H1959 H 0.84787 0.64109 0.15136 0.0
C1960 C 0.84752 0.54976 0.12893 0.0
N1961 N 0.84035 0.56631 0.13297 0.0
C1962 C 0.84232 0.5353 0.14521 0.0
C1963 C 0.82247 0.5551 0.16993 0.0
C1964 C 0.828 0.56921 0.15298 0.0
C1965 C 0.8297 0.53787 0.16613 0.0
H1966 H 0.85756 0.54779 0.11332 0.0
H1967 H 0.82249 0.58246 0.15597 0.0
C1968 C 0.87953 0.63014 0.06251 0.0
N1969 N 0.90133 0.65922 0.05166 0.0
C1970 C 0.88415 0.63435 0.03548 0.0
C1971 C 0.8859 0.64078 0.084 0.0
C1972 C 0.89522 0.64908 0.03042 0.0
C1973 C 0.89691 0.65542 0.07811 0.0
C1974 C 0.86854 0.56358 0.06067 0.0
C1975 C 0.88462 0.56265 0.04621 0.0
C1976 C 0.85425 0.55258 0.05305 0.0
C1977 C 0.88609 0.55077 0.02412 0.0
C1978 C 0.85625 0.54091 0.03083 0.0
N1979 N 0.87199 0.54026 0.01694 0.0
C1980 C 0.9091 0.58488 0.11905 0.0
C1981 C 0.91636 0.60475 0.08274 0.0
C1982 C 0.92706 0.58314 0.12602 0.0
N1983 N 0.90409 0.59576 0.09806 0.0
C1984 C 0.93452 0.60354 0.08918 0.0
C1985 C 0.94007 0.59282 0.11138 0.0
H1986 H 0.89902 0.57779 0.1307 0.0
H1987 H 0.91213 0.61309 0.06585 0.0
C1988 C 0.8285 0.58827 0.01992 0.0
N1989 N 0.84602 0.59072 0.02607 0.0
C1990 C 0.8231 0.58624 0.99267 0.0
C1991 C 0.85393 0.5891 0.97864 0.0
C1992 C 0.85872 0.5911 0.00616 0.0
C1993 C 0.83588 0.58682 0.97157 0.0
H1994 H 0.81867 0.58817 0.03613 0.0
H1995 H 0.87254 0.59321 0.01166 0.0
O1996 O 0.86563 0.60242 0.12778 0.0
O1997 O 0.83303 0.60076 0.08827 0.0
O1998 O 0.86873 0.61573 0.06775 0.0
O1999 O 0.86673 0.57533 0.08203 0.0
H2000 H 0.84465 0.60216 0.17152 0.0
H2001 H 0.89526 0.62024 0.14008 0.0
H2002 H 0.85196 0.61629 0.21618 0.0
H2003 H 0.90156 0.63429 0.18513 0.0
H2004 H 0.78495 0.56446 0.10085 0.0
H2005 H 0.81549 0.6213 0.12349 0.0
H2006 H 0.81426 0.57119 0.07943 0.0
H2007 H 0.78618 0.61367 0.14414 0.0
H2008 H 0.84008 0.67292 0.15672 0.0
H2009 H 0.83447 0.67658 0.0685 0.0
H2010 H 0.84852 0.52233 0.14195 0.0
H2011 H 0.81267 0.55763 0.18581 0.0
H2012 H 0.87926 0.62631 0.01858 0.0
H2013 H 0.88228 0.63786 0.10497 0.0
H2014 H 0.89895 0.65246 0.0096 0.0
H2015 H 0.90193 0.66376 0.09456 0.0
H2016 H 0.89578 0.57111 0.05185 0.0
H2017 H 0.84171 0.55319 0.06405 0.0
H2018 H 0.89842 0.54995 0.01264 0.0
H2019 H 0.84528 0.53239 0.02459 0.0
H2020 H 0.93068 0.57438 0.14286 0.0
H2021 H 0.94401 0.61133 0.07738 0.0
H2022 H 0.80907 0.58435 0.98818 0.0
H2023 H 0.8642 0.58991 0.96305 0.0
Li2024 Li 0.66216 0.5972 0.36497 0.0
Li2025 Li 0.6506 0.62538 0.34878 0.0
Li2026 Li 0.63031 0.59854 0.35527 0.0
Li2027 Li 0.65345 0.59962 0.31705 0.0
C2028 C 0.6459 0.61494 0.41009 0.0
N2029 N 0.6503 0.62001 0.46582 0.0
C2030 C 0.65882 0.6269 0.41978 0.0
C2031 C 0.63505 0.60573 0.4287 0.0
C2032 C 0.66089 0.62922 0.44804 0.0
C2033 C 0.63752 0.60844 0.45682 0.0
C2034 C 0.68694 0.6235 0.33503 0.0
C2035 C 0.70836 0.64056 0.30882 0.0
N2036 N 0.71666 0.64541 0.33251 0.0
C2037 C 0.69575 0.62856 0.35909 0.0
C2038 C 0.69335 0.62944 0.30966 0.0
C2039 C 0.71073 0.63967 0.3574 0.0
C2040 C 0.69608 0.58325 0.37359 0.0
N2041 N 0.68079 0.58716 0.38733 0.0
C2042 C 0.69503 0.58113 0.43027 0.0
C2043 C 0.67979 0.58538 0.41506 0.0
C2044 C 0.71138 0.57817 0.41675 0.0
C2045 C 0.71151 0.57852 0.38788 0.0
H2046 H 0.69645 0.58443 0.35147 0.0
H2047 H 0.66741 0.58786 0.42561 0.0
C2048 C 0.64134 0.65754 0.3742 0.0
N2049 N 0.65123 0.65088 0.35314 0.0
C2050 C 0.6422 0.67572 0.38092 0.0
C2051 C 0.66259 0.68018 0.3431 0.0
C2052 C 0.66146 0.66183 0.33725 0.0
C2053 C 0.65315 0.68724 0.36555 0.0
H2054 H 0.63303 0.64863 0.38618 0.0
H2055 H 0.66897 0.65636 0.32033 0.0
C2056 C 0.65332 0.56429 0.355 0.0
N2057 N 0.6663 0.53387 0.3805 0.0
C2058 C 0.66695 0.55432 0.34272 0.0
C2059 C 0.64623 0.5588 0.38016 0.0
C2060 C 0.67335 0.53897 0.35597 0.0
C2061 C 0.65299 0.54338 0.39274 0.0
C2062 C 0.6269 0.62584 0.30194 0.0
C2063 C 0.60882 0.62674 0.29505 0.0
C2064 C 0.63946 0.63512 0.2862 0.0
C2065 C 0.60358 0.63698 0.27243 0.0
C2066 C 0.63368 0.64524 0.26375 0.0
N2067 N 0.61601 0.64595 0.25738 0.0
C2068 C 0.59559 0.60482 0.37404 0.0
C2069 C 0.60011 0.57594 0.35474 0.0
C2070 C 0.57728 0.60165 0.37632 0.0
N2071 N 0.60648 0.59213 0.36303 0.0
C2072 C 0.58188 0.57218 0.35667 0.0
C2073 C 0.57014 0.58528 0.36702 0.0
H2074 H 0.60107 0.61769 0.38 0.0
H2075 H 0.60909 0.56621 0.34576 0.0
C2076 C 0.67572 0.58997 0.27317 0.0
N2077 N 0.65846 0.59315 0.28026 0.0
C2078 C 0.68028 0.58702 0.24576 0.0
C2079 C 0.6491 0.58993 0.23368 0.0
C2080 C 0.64515 0.59274 0.26134 0.0
C2081 C 0.66692 0.58735 0.22549 0.0
H2082 H 0.68599 0.59018 0.28877 0.0
H2083 H 0.63151 0.59512 0.2676 0.0
O2084 O 0.64359 0.6125 0.38253 0.0
O2085 O 0.67231 0.61254 0.33616 0.0
O2086 O 0.64719 0.57959 0.34276 0.0
O2087 O 0.63227 0.61546 0.32353 0.0
H2088 H 0.66711 0.63436 0.40565 0.0
H2089 H 0.6249 0.59652 0.42147 0.0
H2090 H 0.6709 0.63837 0.45584 0.0
H2091 H 0.62929 0.60134 0.47148 0.0
H2092 H 0.71339 0.64535 0.28934 0.0
H2093 H 0.69115 0.62386 0.37885 0.0
H2094 H 0.6867 0.62567 0.29081 0.0
H2095 H 0.71767 0.6437 0.37587 0.0
H2096 H 0.69408 0.58106 0.45242 0.0
H2097 H 0.72354 0.57571 0.37635 0.0
H2098 H 0.63444 0.6807 0.39806 0.0
H2099 H 0.67118 0.68862 0.33074 0.0
H2100 H 0.67262 0.55849 0.3233 0.0
H2101 H 0.63574 0.56648 0.38996 0.0
H2102 H 0.68395 0.53115 0.3468 0.0
H2103 H 0.64769 0.539 0.41228 0.0
H2104 H 0.59897 0.61949 0.30697 0.0
H2105 H 0.65352 0.6343 0.29105 0.0
H2106 H 0.58963 0.63777 0.26678 0.0
H2107 H 0.64325 0.65246 0.25132 0.0
H2108 H 0.56873 0.61222 0.38407 0.0
H2109 H 0.57699 0.55931 0.34956 0.0
H2110 H 0.69414 0.58477 0.24046 0.0
H2111 H 0.63838 0.59047 0.2188 0.0
Li2112 Li 0.3528 0.40323 0.06575 0.0
Li2113 Li 0.34782 0.41135 0.11493 0.0
Li2114 Li 0.37816 0.40206 0.09844 0.0
Li2115 Li 0.35389 0.38007 0.10385 0.0
C2116 C 0.37196 0.43845 0.08063 0.0
N2117 N 0.38959 0.46984 0.06727 0.0
C2118 C 0.36791 0.4544 0.0944 0.0
C2119 C 0.38501 0.43845 0.06014 0.0
C2120 C 0.37695 0.47014 0.08731 0.0
C2121 C 0.39378 0.45446 0.05368 0.0
C2122 C 0.31584 0.39933 0.09508 0.0
C2123 C 0.28914 0.39847 0.12266 0.0
N2124 N 0.28061 0.4087 0.10361 0.0
C2125 C 0.30679 0.4097 0.07565 0.0
C2126 C 0.30694 0.39352 0.11866 0.0
C2127 C 0.28898 0.41434 0.08038 0.0
C2128 C 0.34508 0.39481 0.01047 0.0
N2129 N 0.3471 0.40845 0.02874 0.0
C2130 C 0.34545 0.43022 0.99286 0.0
C2131 C 0.34679 0.42591 0.02064 0.0
C2132 C 0.34421 0.4164 0.97337 0.0
C2133 C 0.34351 0.39852 0.98247 0.0
H2134 H 0.34548 0.38105 0.01756 0.0
H2135 H 0.3482 0.43649 0.03565 0.0
C2136 C 0.34471 0.43039 0.16398 0.0
N2137 N 0.3367 0.42802 0.13923 0.0
C2138 C 0.33897 0.44391 0.18171 0.0
C2139 C 0.31644 0.45209 0.14852 0.0
C2140 C 0.32279 0.43853 0.13126 0.0
C2141 C 0.32478 0.45519 0.17397 0.0
H2142 H 0.35611 0.42226 0.16949 0.0
H2143 H 0.31702 0.43687 0.11113 0.0
C2144 C 0.38216 0.37601 0.05426 0.0
N2145 N 0.40629 0.36091 0.01806 0.0
C2146 C 0.38807 0.35838 0.05812 0.0
C2147 C 0.38836 0.38587 0.0318 0.0
C2148 C 0.40033 0.35102 0.03966 0.0
C2149 C 0.40059 0.37802 0.01377 0.0
C2150 C 0.36689 0.38578 0.15601 0.0
C2151 C 0.38364 0.38004 0.1651 0.0
C2152 C 0.35166 0.38166 0.1713 0.0
C2153 C 0.38482 0.36998 0.18924 0.0
C2154 C 0.3534 0.37157 0.19531 0.0
N2155 N 0.36981 0.36597 0.2037 0.0
C2156 C 0.40779 0.42189 0.11624 0.0
C2157 C 0.41543 0.39376 0.09685 0.0
C2158 C 0.42567 0.42541 0.12222 0.0
N2159 N 0.40303 0.40632 0.10366 0.0
C2160 C 0.43348 0.39669 0.10252 0.0
C2161 C 0.4388 0.41265 0.11557 0.0
H2162 H 0.39764 0.43148 0.12209 0.0
H2163 H 0.41134 0.38123 0.08772 0.0
C2164 C 0.33336 0.3479 0.10918 0.0
N2165 N 0.34953 0.35572 0.11354 0.0
C2166 C 0.33048 0.33003 0.11693 0.0
C2167 C 0.36086 0.32879 0.13363 0.0
C2168 C 0.36326 0.34646 0.12502 0.0
C2169 C 0.34431 0.32043 0.12966 0.0
H2170 H 0.32271 0.35555 0.09977 0.0
H2171 H 0.37611 0.35283 0.12751 0.0
O2172 O 0.36314 0.42296 0.08724 0.0
O2173 O 0.33325 0.39463 0.09077 0.0
O2174 O 0.37009 0.38336 0.07209 0.0
O2175 O 0.36547 0.39548 0.1323 0.0
H2176 H 0.35785 0.45464 0.11033 0.0
H2177 H 0.38844 0.42623 0.04949 0.0
H2178 H 0.37391 0.4826 0.09773 0.0
H2179 H 0.40393 0.45464 0.03789 0.0
H2180 H 0.2821 0.39415 0.14088 0.0
H2181 H 0.31348 0.41421 0.05721 0.0
H2182 H 0.3137 0.38528 0.13369 0.0
H2183 H 0.28182 0.42245 0.06561 0.0
H2184 H 0.34584 0.44417 0.98661 0.0
H2185 H 0.34272 0.3875 0.968 0.0
H2186 H 0.34617 0.44599 0.2007 0.0
H2187 H 0.30539 0.46032 0.14167 0.0
H2188 H 0.38331 0.35048 0.07523 0.0
H2189 H 0.38368 0.39937 0.02812 0.0
H2190 H 0.40508 0.33742 0.04249 0.0
H2191 H 0.4055 0.38552 0.99632 0.0
H2192 H 0.39556 0.3832 0.15351 0.0
H2193 H 0.33864 0.38618 0.16464 0.0
H2194 H 0.39768 0.36535 0.19646 0.0
H2195 H 0.34171 0.36819 0.20729 0.0
H2196 H 0.42915 0.43795 0.13213 0.0
H2197 H 0.44307 0.3863 0.09755 0.0
H2198 H 0.31756 0.32389 0.11355 0.0
H2199 H 0.37187 0.32166 0.14307 0.0
Li2200 Li 0.37134 0.60291 0.84928 0.0
Li2201 Li 0.34935 0.62851 0.845 0.0
Li2202 Li 0.3401 0.59935 0.86153 0.0
Li2203 Li 0.34655 0.60293 0.81308 0.0
C2204 C 0.35591 0.61288 0.90544 0.0
N2205 N 0.35062 0.60621 0.9606 0.0
C2206 C 0.34814 0.62597 0.92216 0.0
C2207 C 0.36111 0.59645 0.91678 0.0
C2208 C 0.34556 0.62232 0.95001 0.0
C2209 C 0.35828 0.59332 0.94471 0.0
C2210 C 0.37806 0.63158 0.80477 0.0
C2211 C 0.38489 0.65098 0.76653 0.0
N2212 N 0.40038 0.65586 0.77904 0.0
C2213 C 0.39409 0.63673 0.81719 0.0
C2214 C 0.37345 0.63868 0.77916 0.0
C2215 C 0.40517 0.64905 0.80387 0.0
C2216 C 0.40557 0.5868 0.84091 0.0
N2217 N 0.39537 0.59711 0.85779 0.0
C2218 C 0.41949 0.60031 0.88943 0.0
C2219 C 0.40201 0.60399 0.88151 0.0
C2220 C 0.43035 0.58963 0.87259 0.0
C2221 C 0.42329 0.58295 0.8479 0.0
H2222 H 0.39994 0.5816 0.82208 0.0
H2223 H 0.39375 0.61247 0.89424 0.0
C2224 C 0.33086 0.65816 0.86469 0.0
N2225 N 0.34571 0.65366 0.85021 0.0
C2226 C 0.32753 0.67605 0.87157 0.0
C2227 C 0.35457 0.68447 0.8478 0.0
C2228 C 0.35742 0.6664 0.8415 0.0
C2229 C 0.33959 0.68945 0.86338 0.0
H2230 H 0.32178 0.64776 0.87141 0.0
H2231 H 0.36921 0.66264 0.83026 0.0
C2232 C 0.3514 0.56566 0.84167 0.0
N2233 N 0.34428 0.52961 0.84907 0.0
C2234 C 0.33648 0.55788 0.82923 0.0
C2235 C 0.3628 0.55511 0.85767 0.0
C2236 C 0.33308 0.53962 0.83328 0.0
C2237 C 0.35894 0.53691 0.86122 0.0
C2238 C 0.31552 0.624 0.81966 0.0
C2239 C 0.29726 0.62119 0.82363 0.0
C2240 C 0.32129 0.63626 0.79987 0.0
C2241 C 0.28503 0.63065 0.80754 0.0
C2242 C 0.30864 0.64547 0.78419 0.0
N2243 N 0.29092 0.64249 0.78831 0.0
C2244 C 0.3128 0.60245 0.89833 0.0
C2245 C 0.32249 0.57223 0.89619 0.0
C2246 C 0.30041 0.5982 0.91861 0.0
N2247 N 0.32363 0.5896 0.88768 0.0
C2248 C 0.3099 0.56726 0.91598 0.0
C2249 C 0.29864 0.58035 0.92763 0.0
H2250 H 0.31411 0.61619 0.8914 0.0
H2251 H 0.33133 0.5622 0.88792 0.0
C2252 C 0.35379 0.59666 0.75727 0.0
N2253 N 0.34066 0.59644 0.7765 0.0
C2254 C 0.34972 0.59362 0.7297 0.0
C2255 C 0.3188 0.58942 0.74244 0.0
C2256 C 0.32348 0.59257 0.76976 0.0
C2257 C 0.33196 0.59022 0.72189 0.0
H2258 H 0.36736 0.59969 0.76328 0.0
H2259 H 0.31334 0.59226 0.78554 0.0
O2260 O 0.35826 0.61604 0.87804 0.0
O2261 O 0.36712 0.61939 0.81736 0.0
O2262 O 0.35511 0.58341 0.83768 0.0
O2263 O 0.32761 0.61477 0.83523 0.0
H2264 H 0.34407 0.63876 0.91369 0.0
H2265 H 0.36708 0.58616 0.90405 0.0
H2266 H 0.3395 0.6323 0.96319 0.0
H2267 H 0.36214 0.58063 0.95373 0.0
H2268 H 0.38147 0.65661 0.74675 0.0
H2269 H 0.39785 0.63142 0.83701 0.0
H2270 H 0.36121 0.63473 0.76908 0.0
H2271 H 0.41758 0.65321 0.81329 0.0
H2272 H 0.42455 0.60599 0.90836 0.0
H2273 H 0.4313 0.57466 0.83441 0.0
H2274 H 0.31572 0.67932 0.88337 0.0
H2275 H 0.36433 0.69434 0.84137 0.0
H2276 H 0.32759 0.56588 0.8167 0.0
H2277 H 0.37447 0.56095 0.86726 0.0
H2278 H 0.32155 0.53341 0.82388 0.0
H2279 H 0.36759 0.52858 0.87362 0.0
H2280 H 0.29262 0.61175 0.83895 0.0
H2281 H 0.33536 0.63868 0.79676 0.0
H2282 H 0.27085 0.62859 0.81034 0.0
H2283 H 0.31291 0.655 0.76878 0.0
H2284 H 0.29255 0.60896 0.92737 0.0
H2285 H 0.30899 0.55329 0.92192 0.0
H2286 H 0.36027 0.59458 0.71459 0.0
H2287 H 0.30501 0.58657 0.73743 0.0
Li2288 Li 0.1463 0.6208 0.60444 0.0
Li2289 Li 0.12195 0.599 0.597 0.0
Li2290 Li 0.15138 0.58894 0.61393 0.0
Li2291 Li 0.14758 0.59778 0.56616 0.0
C2292 C 0.13874 0.6091 0.65825 0.0
N2293 N 0.14862 0.6157 0.7119 0.0
C2294 C 0.12618 0.60766 0.67932 0.0
C2295 C 0.15633 0.61385 0.66442 0.0
C2296 C 0.13143 0.61107 0.70633 0.0
C2297 C 0.16107 0.61715 0.69168 0.0
C2298 C 0.11594 0.6248 0.55913 0.0
C2299 C 0.09148 0.62141 0.52739 0.0
N2300 N 0.08596 0.63835 0.53345 0.0
C2301 C 0.11011 0.64222 0.56493 0.0
C2302 C 0.10663 0.61433 0.54011 0.0
C2303 C 0.09489 0.64881 0.55176 0.0
C2304 C 0.16514 0.65412 0.60635 0.0
N2305 N 0.15065 0.64479 0.61526 0.0
C2306 C 0.14053 0.66994 0.64129 0.0
C2307 C 0.13838 0.65234 0.63222 0.0
C2308 C 0.15541 0.67994 0.63268 0.0
C2309 C 0.16778 0.67187 0.61482 0.0
H2310 H 0.17461 0.64777 0.59267 0.0
H2311 H 0.12685 0.64466 0.63859 0.0
C2312 C 0.09028 0.57867 0.59728 0.0
N2313 N 0.09686 0.59558 0.59974 0.0
C2314 C 0.0719 0.57565 0.59827 0.0
C2315 C 0.06742 0.60751 0.60469 0.0
C2316 C 0.08591 0.60986 0.60399 0.0
C2317 C 0.06013 0.59021 0.60165 0.0
H2318 H 0.09931 0.56749 0.59459 0.0
H2319 H 0.09152 0.62313 0.60652 0.0
C2320 C 0.18439 0.60086 0.59269 0.0
N2321 N 0.21999 0.59118 0.59367 0.0
C2322 C 0.19019 0.5857 0.57835 0.0
C2323 C 0.19669 0.61114 0.60747 0.0
C2324 C 0.20824 0.58102 0.5791 0.0
C2325 C 0.21463 0.606 0.60775 0.0
C2326 C 0.13685 0.56247 0.57076 0.0
C2327 C 0.15014 0.54976 0.57611 0.0
C2328 C 0.12453 0.55938 0.54974 0.0
C2329 C 0.15099 0.53422 0.5601 0.0
C2330 C 0.12586 0.54369 0.53416 0.0
N2331 N 0.13895 0.53155 0.53961 0.0
C2332 C 0.14788 0.5639 0.65409 0.0
C2333 C 0.17851 0.56856 0.64437 0.0
C2334 C 0.15209 0.5512 0.67402 0.0
N2335 N 0.16098 0.57227 0.6397 0.0
C2336 C 0.18335 0.55566 0.66388 0.0
C2337 C 0.17003 0.54672 0.67899 0.0
H2338 H 0.13406 0.56724 0.6501 0.0
H2339 H 0.18878 0.57546 0.63307 0.0
C2340 C 0.14841 0.60844 0.51157 0.0
N2341 N 0.1532 0.59451 0.52804 0.0
C2342 C 0.1483 0.60643 0.48314 0.0
C2343 C 0.15981 0.57634 0.48879 0.0
C2344 C 0.15947 0.57886 0.51723 0.0
C2345 C 0.15361 0.59006 0.47163 0.0
H2346 H 0.14383 0.62088 0.52052 0.0
H2347 H 0.16339 0.56797 0.53048 0.0
O2348 O 0.13383 0.60559 0.63177 0.0
O2349 O 0.13077 0.61809 0.57187 0.0
O2350 O 0.16681 0.60577 0.59205 0.0
O2351 O 0.13574 0.57771 0.58629 0.0
H2352 H 0.11252 0.60392 0.67482 0.0
H2353 H 0.16622 0.61491 0.64836 0.0
H2354 H 0.12185 0.61 0.72287 0.0
H2355 H 0.17464 0.62083 0.69677 0.0
H2356 H 0.0841 0.61343 0.51271 0.0
H2357 H 0.11723 0.65051 0.57951 0.0
H2358 H 0.11105 0.60086 0.5353 0.0
H2359 H 0.09018 0.66224 0.55611 0.0
H2360 H 0.13049 0.67576 0.65459 0.0
H2361 H 0.17945 0.67912 0.60778 0.0
H2362 H 0.06701 0.56201 0.59658 0.0
H2363 H 0.05897 0.61919 0.6071 0.0
H2364 H 0.18082 0.5775 0.56715 0.0
H2365 H 0.19243 0.62295 0.61863 0.0
H2366 H 0.2129 0.56926 0.56819 0.0
H2367 H 0.22429 0.61381 0.61914 0.0
H2368 H 0.15978 0.55192 0.59231 0.0
H2369 H 0.1141 0.56902 0.54545 0.0
H2370 H 0.16125 0.52431 0.56393 0.0
H2371 H 0.11647 0.54117 0.51773 0.0
H2372 H 0.14133 0.54512 0.68558 0.0
H2373 H 0.19735 0.55261 0.6668 0.0
H2374 H 0.1435 0.61728 0.47032 0.0
H2375 H 0.16393 0.56353 0.48041 0.0
Li2376 Li 0.15291 0.36997 0.34758 0.0
Li2377 Li 0.13009 0.39453 0.35262 0.0
Li2378 Li 0.15502 0.39646 0.31741 0.0
Li2379 Li 0.16106 0.39933 0.36603 0.0
C2380 C 0.12567 0.36725 0.3046 0.0
N2381 N 0.10637 0.34351 0.27267 0.0
C2382 C 0.10918 0.36082 0.31374 0.0
C2383 C 0.1323 0.36169 0.27914 0.0
C2384 C 0.09963 0.3488 0.29731 0.0
C2385 C 0.12235 0.34966 0.26334 0.0
C2386 C 0.14173 0.38526 0.40843 0.0
C2387 C 0.13237 0.40496 0.44496 0.0
N2388 N 0.13751 0.39241 0.46365 0.0
C2389 C 0.14696 0.37258 0.42795 0.0
C2390 C 0.13437 0.40158 0.41694 0.0
C2391 C 0.14469 0.37644 0.4558 0.0
C2392 C 0.16898 0.34034 0.37173 0.0
N2393 N 0.15661 0.34481 0.35251 0.0
C2394 C 0.14887 0.31392 0.34633 0.0
C2395 C 0.14681 0.33201 0.33949 0.0
C2396 C 0.16111 0.30894 0.36682 0.0
C2397 C 0.17148 0.32242 0.37922 0.0
H2398 H 0.17658 0.35081 0.38177 0.0
H2399 H 0.13702 0.33574 0.32436 0.0
C2400 C 0.09676 0.41247 0.34773 0.0
N2401 N 0.10587 0.3992 0.3608 0.0
C2402 C 0.07911 0.41625 0.3551 0.0
C2403 C 0.08073 0.39265 0.38913 0.0
C2404 C 0.09817 0.38914 0.38082 0.0
C2405 C 0.07105 0.40643 0.37635 0.0
H2406 H 0.10328 0.42022 0.33185 0.0
H2407 H 0.10566 0.37849 0.39055 0.0
C2408 C 0.18707 0.37704 0.32275 0.0
N2409 N 0.21277 0.36197 0.28926 0.0
C2410 C 0.20482 0.3827 0.32461 0.0
C2411 C 0.1824 0.36365 0.30401 0.0
C2412 C 0.21762 0.37494 0.30746 0.0
C2413 C 0.19559 0.35621 0.28723 0.0
C2414 C 0.15073 0.43262 0.34526 0.0
C2415 C 0.16737 0.43806 0.33535 0.0
C2416 C 0.1393 0.44517 0.35732 0.0
C2417 C 0.17233 0.45608 0.33774 0.0
C2418 C 0.14476 0.46306 0.35934 0.0
N2419 N 0.16102 0.4681 0.34958 0.0
C2420 C 0.14566 0.40513 0.26376 0.0
C2421 C 0.17678 0.40731 0.27185 0.0
C2422 C 0.14813 0.40881 0.23596 0.0
N2423 N 0.15992 0.40402 0.2809 0.0
C2424 C 0.17988 0.4111 0.24415 0.0
C2425 C 0.16545 0.41152 0.22571 0.0
H2426 H 0.13238 0.40268 0.27162 0.0
H2427 H 0.18788 0.40665 0.28596 0.0
C2428 C 0.19049 0.39972 0.4 0.0
N2429 N 0.17591 0.4097 0.39352 0.0
C2430 C 0.20166 0.4049 0.42145 0.0
C2431 C 0.18269 0.43065 0.42926 0.0
C2432 C 0.17185 0.42496 0.40755 0.0
C2433 C 0.19778 0.4205 0.43655 0.0
H2434 H 0.19316 0.38743 0.38892 0.0
H2435 H 0.15996 0.43245 0.40248 0.0
O2436 O 0.13515 0.37908 0.32035 0.0
O2437 O 0.14371 0.38167 0.38108 0.0
O2438 O 0.17441 0.38473 0.33916 0.0
O2439 O 0.14553 0.41512 0.34296 0.0
H2440 H 0.10385 0.36497 0.33337 0.0
H2441 H 0.14498 0.36659 0.27163 0.0
H2442 H 0.08688 0.34367 0.30416 0.0
H2443 H 0.12734 0.34522 0.24363 0.0
H2444 H 0.12674 0.41755 0.45185 0.0
H2445 H 0.15264 0.35986 0.42166 0.0
H2446 H 0.13036 0.41158 0.40205 0.0
H2447 H 0.14861 0.36673 0.47117 0.0
H2448 H 0.14044 0.30405 0.33643 0.0
H2449 H 0.18125 0.31918 0.39483 0.0
H2450 H 0.07199 0.42698 0.34483 0.0
H2451 H 0.07483 0.38463 0.40531 0.0
H2452 H 0.20862 0.39309 0.33901 0.0
H2453 H 0.16877 0.35905 0.30246 0.0
H2454 H 0.23139 0.37924 0.30858 0.0
H2455 H 0.19216 0.34585 0.27258 0.0
H2456 H 0.17637 0.42846 0.32603 0.0
H2457 H 0.12637 0.44111 0.36508 0.0
H2458 H 0.18518 0.46052 0.33018 0.0
H2459 H 0.13607 0.47293 0.36866 0.0
H2460 H 0.1366 0.40936 0.22258 0.0
H2461 H 0.19345 0.41307 0.23711 0.0
H2462 H 0.21289 0.39641 0.42671 0.0
H2463 H 0.17921 0.44277 0.44032 0.0
Li2464 Li 0.35355 0.61744 0.39599 0.0
Li2465 Li 0.37833 0.59589 0.40087 0.0
Li2466 Li 0.34869 0.58682 0.3812 0.0
Li2467 Li 0.35167 0.59254 0.43059 0.0
C2468 C 0.36882 0.61668 0.34654 0.0
N2469 N 0.37347 0.64221 0.30604 0.0
C2470 C 0.38594 0.62283 0.3401 0.0
C2471 C 0.35408 0.6234 0.33226 0.0
C2472 C 0.38801 0.63577 0.31957 0.0
C2473 C 0.3567 0.63634 0.3119 0.0
C2474 C 0.38026 0.61914 0.44784 0.0
C2475 C 0.39666 0.61508 0.48999 0.0
N2476 N 0.40316 0.63207 0.48768 0.0
C2477 C 0.38696 0.63662 0.44604 0.0
C2478 C 0.38502 0.60832 0.47011 0.0
C2479 C 0.39858 0.64288 0.46631 0.0
C2480 C 0.33143 0.64801 0.39701 0.0
N2481 N 0.34814 0.64219 0.39075 0.0
C2482 C 0.35749 0.67213 0.38049 0.0
C2483 C 0.36112 0.65381 0.38267 0.0
C2484 C 0.34047 0.67857 0.3874 0.0
C2485 C 0.3273 0.66628 0.39561 0.0
H2486 H 0.32143 0.6385 0.40373 0.0
H2487 H 0.37443 0.64892 0.37856 0.0
C2488 C 0.40873 0.57659 0.38636 0.0
N2489 N 0.40338 0.59251 0.39722 0.0
C2490 C 0.42676 0.57337 0.38119 0.0
C2491 C 0.43353 0.60301 0.39852 0.0
C2492 C 0.41532 0.60566 0.40336 0.0
C2493 C 0.43943 0.58675 0.387 0.0
H2494 H 0.3989 0.56647 0.38133 0.0
H2495 H 0.41071 0.61838 0.41126 0.0
C2496 C 0.31641 0.59529 0.39876 0.0
N2497 N 0.28313 0.58191 0.38547 0.0
C2498 C 0.30854 0.58206 0.4151 0.0
C2499 C 0.30733 0.60183 0.3758 0.0
C2500 C 0.29171 0.57544 0.40801 0.0
C2501 C 0.29053 0.59485 0.36938 0.0
C2502 C 0.36936 0.55932 0.42322 0.0
C2503 C 0.36027 0.54299 0.42109 0.0
C2504 C 0.38416 0.56069 0.44057 0.0
C2505 C 0.36602 0.52833 0.43666 0.0
C2506 C 0.38948 0.54573 0.4558 0.0
N2507 N 0.38037 0.53 0.45357 0.0
C2508 C 0.34297 0.57556 0.32719 0.0
C2509 C 0.32746 0.55778 0.35968 0.0
C2510 C 0.33683 0.56485 0.30575 0.0
N2511 N 0.33821 0.57195 0.35352 0.0
C2512 C 0.32106 0.54658 0.33879 0.0
C2513 C 0.32579 0.55007 0.31138 0.0
H2514 H 0.35193 0.5865 0.32278 0.0
H2515 H 0.32408 0.55498 0.38081 0.0
C2516 C 0.3368 0.60308 0.47937 0.0
N2517 N 0.3435 0.58817 0.46707 0.0
C2518 C 0.33108 0.60249 0.50659 0.0
C2519 C 0.33909 0.57107 0.50808 0.0
C2520 C 0.34454 0.57224 0.48068 0.0
C2521 C 0.33234 0.58636 0.52139 0.0
H2522 H 0.3362 0.61557 0.46806 0.0
H2523 H 0.34972 0.56049 0.47056 0.0
O2524 O 0.36653 0.60404 0.36659 0.0
O2525 O 0.36871 0.61289 0.4283 0.0
O2526 O 0.33291 0.60184 0.40526 0.0
O2527 O 0.36388 0.57378 0.4081 0.0
H2528 H 0.3975 0.6177 0.35088 0.0
H2529 H 0.34075 0.61875 0.33699 0.0
H2530 H 0.40117 0.6407 0.31441 0.0
H2531 H 0.34541 0.64172 0.30078 0.0
H2532 H 0.40047 0.60684 0.50731 0.0
H2533 H 0.3833 0.64523 0.4291 0.0
H2534 H 0.37968 0.59492 0.47222 0.0
H2535 H 0.40394 0.65634 0.46508 0.0
H2536 H 0.36807 0.68125 0.37453 0.0
H2537 H 0.31403 0.67078 0.40113 0.0
H2538 H 0.43071 0.56058 0.37256 0.0
H2539 H 0.4428 0.6138 0.40288 0.0
H2540 H 0.31542 0.57683 0.43292 0.0
H2541 H 0.31322 0.61214 0.36304 0.0
H2542 H 0.28548 0.56514 0.42039 0.0
H2543 H 0.28336 0.59973 0.3516 0.0
H2544 H 0.34886 0.54166 0.40765 0.0
H2545 H 0.39151 0.57312 0.44219 0.0
H2546 H 0.35906 0.51563 0.43531 0.0
H2547 H 0.40088 0.54662 0.46936 0.0
H2548 H 0.3412 0.56778 0.28504 0.0
H2549 H 0.31259 0.5353 0.344 0.0
H2550 H 0.3262 0.61466 0.51616 0.0
H2551 H 0.34015 0.55835 0.51874 0.0
Li2552 Li 0.16295 0.60001 0.13176 0.0
Li2553 Li 0.15413 0.60392 0.17853 0.0
Li2554 Li 0.13154 0.60492 0.14326 0.0
Li2555 Li 0.15383 0.63026 0.14875 0.0
C2556 C 0.15284 0.56727 0.15591 0.0
N2557 N 0.16533 0.53251 0.1606 0.0
C2558 C 0.16859 0.56378 0.17029 0.0
C2559 C 0.14334 0.55308 0.14412 0.0
C2560 C 0.17472 0.54611 0.17238 0.0
C2561 C 0.14991 0.5356 0.14665 0.0
C2562 C 0.19022 0.61606 0.17307 0.0
C2563 C 0.21111 0.63158 0.20234 0.0
N2564 N 0.22265 0.61756 0.2 0.0
C2565 C 0.2024 0.60193 0.17061 0.0
C2566 C 0.1947 0.63113 0.18872 0.0
C2567 C 0.21868 0.60289 0.18453 0.0
C2568 C 0.19023 0.60298 0.09531 0.0
N2569 N 0.1795 0.5902 0.10639 0.0
C2570 C 0.19402 0.56732 0.08016 0.0
C2571 C 0.18102 0.57262 0.09914 0.0
C2572 C 0.20524 0.58031 0.06834 0.0
C2573 C 0.20321 0.59834 0.07614 0.0
H2574 H 0.18867 0.61685 0.10149 0.0
H2575 H 0.17219 0.56271 0.10788 0.0
C2576 C 0.14605 0.58255 0.22385 0.0
N2577 N 0.15671 0.59639 0.2159 0.0
C2578 C 0.14466 0.57792 0.25149 0.0
C2579 C 0.1657 0.60147 0.26233 0.0
C2580 C 0.16663 0.60569 0.23444 0.0
C2581 C 0.15427 0.5877 0.27118 0.0
H2582 H 0.1379 0.57568 0.20885 0.0
H2583 H 0.17442 0.61707 0.22795 0.0
C2584 C 0.14169 0.6118 0.08854 0.0
N2585 N 0.13345 0.6003 0.03617 0.0
C2586 C 0.14269 0.62373 0.06648 0.0
C2587 C 0.13655 0.594 0.084 0.0
C2588 C 0.13845 0.61766 0.04015 0.0
C2589 C 0.13242 0.58845 0.05736 0.0
C2590 C 0.13071 0.62631 0.20029 0.0
C2591 C 0.11754 0.61656 0.21409 0.0
C2592 C 0.1401 0.63978 0.21408 0.0
C2593 C 0.11414 0.6203 0.24171 0.0
C2594 C 0.13627 0.64314 0.24168 0.0
N2595 N 0.12351 0.63339 0.25481 0.0
C2596 C 0.09993 0.5863 0.1514 0.0
C2597 C 0.09725 0.61004 0.11921 0.0
C2598 C 0.08157 0.5833 0.15062 0.0
N2599 N 0.10729 0.59969 0.13624 0.0
C2600 C 0.07879 0.60742 0.11765 0.0
C2601 C 0.0707 0.5942 0.13408 0.0
H2602 H 0.10828 0.57842 0.16495 0.0
H2603 H 0.10347 0.62077 0.1077 0.0
C2604 C 0.17472 0.66078 0.13879 0.0
N2605 N 0.15789 0.65514 0.14456 0.0
C2606 C 0.17819 0.67896 0.13446 0.0
C2607 C 0.14686 0.68518 0.14178 0.0
C2608 C 0.14404 0.66686 0.14626 0.0
C2609 C 0.16412 0.69146 0.13561 0.0
H2610 H 0.18543 0.65109 0.13729 0.0
H2611 H 0.13076 0.66192 0.15064 0.0
O2612 O 0.14655 0.58443 0.15351 0.0
O2613 O 0.17436 0.61555 0.1592 0.0
O2614 O 0.14601 0.61749 0.11438 0.0
O2615 O 0.13469 0.62242 0.17358 0.0
H2616 H 0.17592 0.57455 0.17993 0.0
H2617 H 0.13107 0.55558 0.13302 0.0
H2618 H 0.1869 0.54322 0.18344 0.0
H2619 H 0.14274 0.52449 0.13753 0.0
H2620 H 0.21467 0.64308 0.21475 0.0
H2621 H 0.19941 0.59041 0.15789 0.0
H2622 H 0.18549 0.64226 0.19063 0.0
H2623 H 0.22819 0.59201 0.18291 0.0
H2624 H 0.19511 0.55331 0.07446 0.0
H2625 H 0.21174 0.60872 0.06774 0.0
H2626 H 0.13572 0.56718 0.25747 0.0
H2627 H 0.17304 0.6096 0.27691 0.0
H2628 H 0.14673 0.63753 0.0697 0.0
H2629 H 0.13579 0.58456 0.10081 0.0
H2630 H 0.13916 0.62675 0.02286 0.0
H2631 H 0.12843 0.57472 0.05353 0.0
H2632 H 0.11021 0.60605 0.20369 0.0
H2633 H 0.15039 0.64738 0.20369 0.0
H2634 H 0.10412 0.61274 0.25275 0.0
H2635 H 0.14352 0.65343 0.25269 0.0
H2636 H 0.07587 0.57286 0.16339 0.0
H2637 H 0.07085 0.61622 0.10484 0.0
H2638 H 0.19175 0.68315 0.13021 0.0
H2639 H 0.13554 0.69421 0.14244 0.0
Li2640 Li 0.14916 0.41109 0.88431 0.0
Li2641 Li 0.14746 0.40303 0.93205 0.0
Li2642 Li 0.14613 0.37923 0.89515 0.0
Li2643 Li 0.12057 0.40101 0.90284 0.0
C2644 C 0.18273 0.40293 0.90722 0.0
N2645 N 0.21629 0.4181 0.91062 0.0
C2646 C 0.18471 0.42061 0.9163 0.0
C2647 C 0.19777 0.39297 0.89981 0.0
C2648 C 0.20181 0.42804 0.91791 0.0
C2649 C 0.21464 0.40088 0.90168 0.0
C2650 C 0.13044 0.4369 0.92863 0.0
C2651 C 0.11322 0.45063 0.96479 0.0
N2652 N 0.12231 0.46624 0.96099 0.0
C2653 C 0.13954 0.45312 0.92495 0.0
C2654 C 0.11711 0.43566 0.9486 0.0
C2655 C 0.13526 0.46778 0.94157 0.0
C2656 C 0.14709 0.44146 0.85195 0.0
N2657 N 0.15863 0.42818 0.85905 0.0
C2658 C 0.18077 0.43986 0.82853 0.0
C2659 C 0.17522 0.4271 0.84779 0.0
C2660 C 0.16895 0.45351 0.82051 0.0
C2661 C 0.15194 0.45425 0.8325 0.0
H2662 H 0.13394 0.44189 0.86113 0.0
H2663 H 0.18403 0.41619 0.8533 0.0
C2664 C 0.15677 0.39225 0.98511 0.0
N2665 N 0.15549 0.40701 0.96883 0.0
C2666 C 0.16127 0.39398 0.01279 0.0
C2667 C 0.16371 0.42604 0.00631 0.0
C2668 C 0.15922 0.42367 0.97873 0.0
C2669 C 0.16454 0.41109 0.02387 0.0
H2670 H 0.15399 0.37911 0.97665 0.0
H2671 H 0.15848 0.43522 0.96545 0.0
C2672 C 0.13171 0.39907 0.84146 0.0
N2673 N 0.13196 0.41251 0.7886 0.0
C2674 C 0.11724 0.40908 0.83179 0.0
C2675 C 0.14626 0.39579 0.82419 0.0
C2676 C 0.11763 0.41577 0.805 0.0
C2677 C 0.14615 0.40274 0.79756 0.0
C2678 C 0.11866 0.37459 0.94502 0.0
C2679 C 0.11242 0.35734 0.93904 0.0
C2680 C 0.11255 0.38345 0.96848 0.0
C2681 C 0.09995 0.34933 0.95651 0.0
C2682 C 0.10009 0.37499 0.98544 0.0
N2683 N 0.09409 0.35825 0.97914 0.0
C2684 C 0.1552 0.34357 0.90788 0.0
C2685 C 0.15194 0.34941 0.86031 0.0
C2686 C 0.15877 0.32548 0.90261 0.0
N2687 N 0.15181 0.35505 0.88683 0.0
C2688 C 0.15571 0.33151 0.85407 0.0
C2689 C 0.15908 0.3193 0.87539 0.0
H2690 H 0.15494 0.34845 0.92879 0.0
H2691 H 0.14891 0.35874 0.84401 0.0
C2692 C 0.08873 0.4209 0.89879 0.0
N2693 N 0.09529 0.40398 0.90167 0.0
C2694 C 0.07034 0.42388 0.89834 0.0
C2695 C 0.06572 0.3919 0.9028 0.0
C2696 C 0.08423 0.38954 0.90317 0.0
C2697 C 0.05854 0.40928 0.9006 0.0
H2698 H 0.0978 0.4321 0.89673 0.0
H2699 H 0.08974 0.37618 0.9046 0.0
O2700 O 0.16612 0.39552 0.90475 0.0
O2701 O 0.13446 0.42244 0.91248 0.0
O2702 O 0.13181 0.39289 0.86789 0.0
O2703 O 0.13097 0.38256 0.92824 0.0
H2704 H 0.17316 0.42859 0.92157 0.0
H2705 H 0.1964 0.3793 0.89252 0.0
H2706 H 0.20355 0.44173 0.92482 0.0
H2707 H 0.22641 0.39334 0.89594 0.0
H2708 H 0.10293 0.44985 0.98033 0.0
H2709 H 0.14989 0.45431 0.90956 0.0
H2710 H 0.10974 0.42332 0.9514 0.0
H2711 H 0.14225 0.48039 0.93905 0.0
H2712 H 0.19394 0.43882 0.81947 0.0
H2713 H 0.14252 0.46467 0.82693 0.0
H2714 H 0.1621 0.38203 0.02539 0.0
H2715 H 0.166 0.43951 0.01392 0.0
H2716 H 0.1059 0.41179 0.8449 0.0
H2717 H 0.15773 0.38837 0.83152 0.0
H2718 H 0.10656 0.42362 0.79728 0.0
H2719 H 0.15741 0.40048 0.78409 0.0
H2720 H 0.11704 0.35028 0.92098 0.0
H2721 H 0.11749 0.39665 0.97371 0.0
H2722 H 0.09493 0.33602 0.95206 0.0
H2723 H 0.09524 0.3817 0.00366 0.0
H2724 H 0.16138 0.31645 0.91957 0.0
H2725 H 0.15561 0.32718 0.83285 0.0
H2726 H 0.06541 0.43746 0.89596 0.0
H2727 H 0.05714 0.38026 0.90463 0.0
Li2728 Li 0.33482 0.39898 0.63515 0.0
Li2729 Li 0.34826 0.39504 0.68008 0.0
Li2730 Li 0.36736 0.39554 0.6396 0.0
Li2731 Li 0.34808 0.36915 0.64908 0.0
C2732 C 0.35192 0.43156 0.64109 0.0
N2733 N 0.35088 0.46424 0.6143 0.0
C2734 C 0.34629 0.44697 0.655 0.0
C2735 C 0.35688 0.43274 0.61353 0.0
C2736 C 0.34589 0.46338 0.6411 0.0
C2737 C 0.35632 0.44939 0.60035 0.0
C2738 C 0.3132 0.38537 0.68183 0.0
C2739 C 0.29095 0.37478 0.71372 0.0
N2740 N 0.28534 0.39198 0.71758 0.0
C2741 C 0.30726 0.40293 0.68615 0.0
C2742 C 0.30503 0.37117 0.69576 0.0
C2743 C 0.29314 0.40599 0.70429 0.0
C2744 C 0.3097 0.3973 0.59393 0.0
N2745 N 0.3157 0.4085 0.6139 0.0
C2746 C 0.29388 0.43057 0.60161 0.0
C2747 C 0.30807 0.42486 0.61817 0.0
C2748 C 0.28776 0.4194 0.5804 0.0
C2749 C 0.29583 0.40257 0.57669 0.0
H2750 H 0.31576 0.38423 0.59139 0.0
H2751 H 0.31287 0.43343 0.63446 0.0
C2752 C 0.35273 0.41869 0.72459 0.0
N2753 N 0.3467 0.4021 0.71769 0.0
C2754 C 0.35237 0.42438 0.7519 0.0
C2755 C 0.33985 0.39567 0.76458 0.0
C2756 C 0.34005 0.39074 0.73698 0.0
C2757 C 0.34615 0.4127 0.77251 0.0
H2758 H 0.358 0.42747 0.70889 0.0
H2759 H 0.33511 0.37769 0.73109 0.0
C2760 C 0.35751 0.37891 0.58904 0.0
N2761 N 0.37125 0.37127 0.53772 0.0
C2762 C 0.36941 0.36463 0.58562 0.0
C2763 C 0.35259 0.3893 0.56636 0.0
C2764 C 0.37621 0.36098 0.5595 0.0
C2765 C 0.35969 0.38523 0.54059 0.0
C2766 C 0.3723 0.3677 0.69327 0.0
C2767 C 0.38944 0.36782 0.70464 0.0
C2768 C 0.35921 0.35656 0.70456 0.0
C2769 C 0.39314 0.35688 0.72723 0.0
C2770 C 0.36343 0.3458 0.72712 0.0
N2771 N 0.38016 0.34619 0.73791 0.0
C2772 C 0.40366 0.4028 0.6466 0.0
C2773 C 0.39526 0.40288 0.59978 0.0
C2774 C 0.42171 0.40396 0.63949 0.0
N2775 N 0.3909 0.40164 0.62682 0.0
C2776 C 0.41311 0.40399 0.59174 0.0
C2777 C 0.42665 0.40394 0.61169 0.0
H2778 H 0.39983 0.40211 0.66795 0.0
H2779 H 0.38503 0.40244 0.58428 0.0
C2780 C 0.32813 0.33745 0.64547 0.0
N2781 N 0.34511 0.34387 0.64562 0.0
C2782 C 0.325 0.31898 0.64542 0.0
C2783 C 0.3569 0.31405 0.64428 0.0
C2784 C 0.35943 0.33264 0.64487 0.0
C2785 C 0.3395 0.30706 0.64501 0.0
H2786 H 0.31702 0.34671 0.64593 0.0
H2787 H 0.3728 0.33813 0.64536 0.0
O2788 O 0.35189 0.41532 0.6542 0.0
O2789 O 0.32728 0.38216 0.66467 0.0
O2790 O 0.35068 0.38269 0.61442 0.0
O2791 O 0.36848 0.37838 0.67114 0.0
H2792 H 0.34206 0.44625 0.6762 0.0
H2793 H 0.36088 0.4209 0.60234 0.0
H2794 H 0.34152 0.4754 0.65159 0.0
H2795 H 0.36012 0.45049 0.579 0.0
H2796 H 0.28452 0.36393 0.72469 0.0
H2797 H 0.3137 0.41409 0.67597 0.0
H2798 H 0.30963 0.35752 0.69295 0.0
H2799 H 0.28845 0.41952 0.7079 0.0
H2800 H 0.28792 0.44362 0.60513 0.0
H2801 H 0.29125 0.39343 0.56089 0.0
H2802 H 0.35703 0.43777 0.75671 0.0
H2803 H 0.33521 0.38598 0.7795 0.0
H2804 H 0.37347 0.35657 0.60296 0.0
H2805 H 0.34357 0.40054 0.56865 0.0
H2806 H 0.38546 0.35 0.55655 0.0
H2807 H 0.35606 0.3932 0.5229 0.0
H2808 H 0.39981 0.37624 0.69614 0.0
H2809 H 0.34583 0.35638 0.69628 0.0
H2810 H 0.40633 0.35688 0.73626 0.0
H2811 H 0.35337 0.33719 0.7361 0.0
H2812 H 0.43169 0.4039 0.65557 0.0
H2813 H 0.41631 0.40438 0.57007 0.0
H2814 H 0.31139 0.31405 0.64579 0.0
H2815 H 0.3684 0.30523 0.64419 0.0
H2816 H 0.17791 0.01169 0.31574 0.0
H2817 H 0.17742 0.06044 0.26674 0.0
H2818 H 0.18048 0.04241 0.22482 0.0
H2819 H 0.20853 0.98516 0.27058 0.0
H2820 H 0.19605 0.96476 0.27597 0.0
H2821 H 0.1971 0.9815 0.30266 0.0
H2822 H 0.16254 0.98271 0.30413 0.0
H2823 H 0.16139 0.96606 0.27748 0.0
H2824 H 0.15034 0.98737 0.27304 0.0
H2825 H 0.17872 0.01956 0.18811 0.0
H2826 H 0.17289 0.993 0.159 0.0
H2827 H 0.17436 0.95877 0.23084 0.0
C2828 C 0.17875 0.01861 0.29624 0.0
C2829 C 0.1776 0.03756 0.29472 0.0
C2830 C 0.17873 0.04602 0.2687 0.0
C2831 C 0.18038 0.03587 0.24465 0.0
C2832 C 0.18097 0.01725 0.24686 0.0
C2833 C 0.18033 0.00866 0.27197 0.0
C2834 C 0.17947 0.98845 0.26843 0.0
C2835 C 0.19629 0.97944 0.2801 0.0
C2836 C 0.16242 0.9807 0.28154 0.0
C2837 C 0.17894 0.98709 0.23741 0.0
C2838 C 0.18007 0.00388 0.2254 0.0
C2839 C 0.17823 0.00631 0.19719 0.0
C2840 C 0.17488 0.99122 0.18085 0.0
C2841 C 0.17347 0.97397 0.19278 0.0
C2842 C 0.17586 0.97182 0.2213 0.0
H2843 H 0.23227 0.93538 0.55398 0.0
H2844 H 0.18745 0.91326 0.50868 0.0
H2845 H 0.20529 0.91388 0.46627 0.0
H2846 H 0.24973 0.96416 0.49808 0.0
H2847 H 0.27265 0.95962 0.50692 0.0
H2848 H 0.25571 0.95953 0.53321 0.0
H2849 H 0.26498 0.92726 0.54713 0.0
H2850 H 0.28189 0.92724 0.52091 0.0
H2851 H 0.26521 0.90979 0.52151 0.0
H2852 H 0.22868 0.91382 0.42994 0.0
H2853 H 0.25608 0.91295 0.40218 0.0
H2854 H 0.28593 0.93555 0.4704 0.0
C2855 C 0.22613 0.93088 0.53508 0.0
C2856 C 0.20835 0.9245 0.53468 0.0
C2857 C 0.20087 0.91865 0.50947 0.0
C2858 C 0.21093 0.91886 0.48525 0.0
C2859 C 0.22846 0.92501 0.48644 0.0
C2860 C 0.236 0.931 0.51064 0.0
C2861 C 0.25549 0.93583 0.50661 0.0
C2862 C 0.25857 0.95598 0.51149 0.0
C2863 C 0.2676 0.92434 0.52513 0.0
C2864 C 0.25785 0.93104 0.47659 0.0
C2865 C 0.24203 0.92503 0.46529 0.0
C2866 C 0.24108 0.91883 0.43838 0.0
C2867 C 0.25675 0.91852 0.42268 0.0
C2868 C 0.27323 0.92436 0.43389 0.0
C2869 C 0.27361 0.93098 0.46113 0.0
H2870 H 0.32934 0.03507 0.72291 0.0
H2871 H 0.32003 0.00097 0.65221 0.0
H2872 H 0.31618 0.97482 0.68291 0.0
H2873 H 0.35555 0.00539 0.75871 0.0
H2874 H 0.34717 0.01093 0.79234 0.0
H2875 H 0.34641 0.02737 0.76536 0.0
H2876 H 0.31228 0.03092 0.7722 0.0
H2877 H 0.31294 0.01454 0.79942 0.0
H2878 H 0.29812 0.01137 0.77069 0.0
H2879 H 0.31646 0.95198 0.72086 0.0
H2880 H 0.32171 0.93414 0.76285 0.0
H2881 H 0.33096 0.9832 0.8087 0.0
C2882 C 0.32593 0.02222 0.71396 0.0
C2883 C 0.32485 0.02005 0.68521 0.0
C2884 C 0.32093 0.00289 0.67419 0.0
C2885 C 0.31861 0.98801 0.69147 0.0
C2886 C 0.32018 0.99052 0.71971 0.0
C2887 C 0.32367 0.00722 0.73089 0.0
C2888 C 0.32632 0.00607 0.76164 0.0
C2889 C 0.34497 0.01283 0.76998 0.0
C2890 C 0.31153 0.01633 0.77689 0.0
C2891 C 0.32454 0.98602 0.76586 0.0
C2892 C 0.32062 0.97732 0.74154 0.0
C2893 C 0.31924 0.95867 0.7401 0.0
C2894 C 0.32219 0.94866 0.76407 0.0
C2895 C 0.3267 0.9573 0.78902 0.0
C2896 C 0.32757 0.97624 0.7899 0.0
H2897 H 0.23335 0.09566 0.94817 0.0
H2898 H 0.20437 0.04699 0.9685 0.0
H2899 H 0.22706 0.03977 0.00379 0.0
H2900 H 0.27807 0.0784 0.95858 0.0
H2901 H 0.28599 0.09911 0.97337 0.0
H2902 H 0.26827 0.09948 0.94838 0.0
H2903 H 0.24807 0.11676 0.98261 0.0
H2904 H 0.26571 0.11647 0.00765 0.0
H2905 H 0.24408 0.10746 0.01622 0.0
H2906 H 0.25205 0.03927 0.03933 0.0
H2907 H 0.27717 0.04528 0.07112 0.0
H2908 H 0.28864 0.09471 0.02742 0.0
C2909 C 0.23172 0.08346 0.96 0.0
C2910 C 0.21703 0.07193 0.95566 0.0
C2911 C 0.21561 0.05594 0.9713 0.0
C2912 C 0.22839 0.05178 0.99145 0.0
C2913 C 0.24251 0.06369 0.99553 0.0
C2914 C 0.24424 0.07917 0.98012 0.0
C2915 C 0.26008 0.09023 0.98917 0.0
C2916 C 0.27392 0.09189 0.96599 0.0
C2917 C 0.25412 0.10882 0.99953 0.0
C2918 C 0.26696 0.07869 0.01233 0.0
C2919 C 0.25674 0.06339 0.01572 0.0
C2920 C 0.26021 0.05113 0.03669 0.0
C2921 C 0.27443 0.05469 0.05471 0.0
C2922 C 0.28496 0.07037 0.05157 0.0
C2923 C 0.28114 0.08239 0.02997 0.0
H2924 H 0.83305 0.95843 0.73171 0.0
H2925 H 0.81476 0.98717 0.65962 0.0
H2926 H 0.80835 0.0138 0.68828 0.0
H2927 H 0.80043 0.97908 0.78059 0.0
H2928 H 0.81661 0.97956 0.80795 0.0
H2929 H 0.81754 0.9621 0.78236 0.0
H2930 H 0.85035 0.97061 0.77157 0.0
H2931 H 0.84951 0.98807 0.79702 0.0
H2932 H 0.85563 0.99342 0.76218 0.0
H2933 H 0.80803 0.0384 0.72339 0.0
H2934 H 0.81263 0.0588 0.76284 0.0
H2935 H 0.83013 0.01379 0.81241 0.0
C2936 C 0.82738 0.97024 0.7221 0.0
C2937 C 0.82433 0.97078 0.69353 0.0
C2938 C 0.81696 0.98644 0.68156 0.0
C2939 C 0.81331 0.00162 0.69766 0.0
C2940 C 0.81681 0.00078 0.72573 0.0
C2941 C 0.82345 0.9854 0.73793 0.0
C2942 C 0.82704 0.98831 0.76818 0.0
C2943 C 0.81466 0.97656 0.78581 0.0
C2944 C 0.84681 0.98491 0.77512 0.0
C2945 C 0.82225 0.00798 0.77082 0.0
C2946 C 0.81618 0.01488 0.74617 0.0
C2947 C 0.81239 0.03308 0.74294 0.0
C2948 C 0.8151 0.04456 0.76537 0.0
C2949 C 0.8215 0.03778 0.79067 0.0
C2950 C 0.82477 0.01921 0.7935 0.0
H2951 H 0.79251 0.08063 0.48429 0.0
H2952 H 0.76201 0.06458 0.41264 0.0
H2953 H 0.73565 0.05939 0.44195 0.0
H2954 H 0.77093 0.04958 0.5338 0.0
H2955 H 0.77146 0.06603 0.56093 0.0
H2956 H 0.78857 0.06604 0.5349 0.0
H2957 H 0.78142 0.09932 0.52388 0.0
H2958 H 0.76427 0.09939 0.5497 0.0
H2959 H 0.75891 0.10557 0.51489 0.0
H2960 H 0.71166 0.05983 0.47792 0.0
H2961 H 0.69216 0.0651 0.51783 0.0
H2962 H 0.73845 0.08009 0.56639 0.0
C2963 C 0.78037 0.07576 0.47481 0.0
C2964 C 0.77937 0.07293 0.44616 0.0
C2965 C 0.76322 0.06654 0.43458 0.0
C2966 C 0.74813 0.06363 0.45106 0.0
C2967 C 0.74946 0.06701 0.47911 0.0
C2968 C 0.76522 0.07277 0.49094 0.0
C2969 C 0.7628 0.07665 0.52121 0.0
C2970 C 0.77411 0.0638 0.53874 0.0
C2971 C 0.7671 0.0964 0.52779 0.0
C2972 C 0.74307 0.07276 0.52436 0.0
C2973 C 0.73565 0.06706 0.49992 0.0
C2974 C 0.71739 0.0639 0.49733 0.0
C2975 C 0.70642 0.06685 0.52022 0.0
C2976 C 0.71372 0.0729 0.54545 0.0
C2977 C 0.73237 0.07555 0.54747 0.0
H2978 H 0.67907 0.96145 0.27221 0.0
H2979 H 0.66813 0.99226 0.34597 0.0
H2980 H 0.67015 0.02026 0.31936 0.0
H2981 H 0.70968 0.99483 0.23959 0.0
H2982 H 0.70104 0.99028 0.20578 0.0
H2983 H 0.70145 0.97274 0.23128 0.0
H2984 H 0.66747 0.96782 0.22469 0.0
H2985 H 0.66694 0.98533 0.1993 0.0
H2986 H 0.65244 0.98654 0.22877 0.0
H2987 H 0.66884 0.04442 0.28422 0.0
H2988 H 0.66547 0.06323 0.24263 0.0
H2989 H 0.67767 0.01728 0.1915 0.0
C2990 C 0.67741 0.97411 0.28284 0.0
C2991 C 0.67361 0.97462 0.31126 0.0
C2992 C 0.67146 0.99148 0.32437 0.0
C2993 C 0.67249 0.00749 0.30939 0.0
C2994 C 0.67584 0.00649 0.28134 0.0
C2995 C 0.67845 0.99025 0.26819 0.0
C2996 C 0.6805 0.99284 0.23749 0.0
C2997 C 0.69929 0.98735 0.22798 0.0
C2998 C 0.66597 0.98253 0.22164 0.0
C2999 C 0.67787 0.01296 0.23534 0.0
C3000 C 0.67539 0.02059 0.26094 0.0
C3001 C 0.67118 0.03871 0.26412 0.0
C3002 C 0.66926 0.04926 0.2405 0.0
C3003 C 0.67166 0.04167 0.21418 0.0
C3004 C 0.67627 0.0234 0.21155 0.0
H3005 H 0.71126 0.89963 0.97389 0.0
H3006 H 0.72485 0.94836 0.93002 0.0
H3007 H 0.74898 0.95449 0.96361 0.0
H3008 H 0.71967 0.91767 0.04307 0.0
H3009 H 0.72838 0.89661 0.05543 0.0
H3010 H 0.7117 0.89683 0.0288 0.0
H3011 H 0.73257 0.87799 0.99763 0.0
H3012 H 0.74936 0.87784 0.02404 0.0
H3013 H 0.75474 0.88611 0.99027 0.0
H3014 H 0.77365 0.95319 0.99911 0.0
H3015 H 0.79531 0.94613 0.03553 0.0
H3016 H 0.76338 0.89979 0.05881 0.0
C3017 C 0.71922 0.91169 0.97162 0.0
C3018 C 0.71636 0.92353 0.94947 0.0
C3019 C 0.72688 0.93922 0.94703 0.0
C3020 C 0.74059 0.94275 0.96593 0.0
C3021 C 0.7433 0.93062 0.98734 0.0
C3022 C 0.73269 0.91556 0.99053 0.0
C3023 C 0.73846 0.90451 0.01501 0.0
C3024 C 0.72367 0.90388 0.03687 0.0
C3025 C 0.74412 0.88549 0.0062 0.0
C3026 C 0.75429 0.91542 0.02471 0.0
C3027 C 0.75692 0.93038 0.00848 0.0
C3028 C 0.77148 0.94173 0.01236 0.0
C3029 C 0.78368 0.93764 0.03333 0.0
C3030 C 0.78118 0.92242 0.05046 0.0
C3031 C 0.76603 0.9114 0.04611 0.0
H3032 H 0.67102 0.45902 0.72594 0.0
H3033 H 0.68238 0.49288 0.65566 0.0
H3034 H 0.68792 0.51852 0.68665 0.0
H3035 H 0.64685 0.49017 0.76219 0.0
H3036 H 0.65487 0.48405 0.79579 0.0
H3037 H 0.6546 0.46765 0.76873 0.0
H3038 H 0.68843 0.46193 0.77547 0.0
H3039 H 0.68879 0.47823 0.80282 0.0
H3040 H 0.70379 0.48054 0.7741 0.0
H3041 H 0.68808 0.54115 0.72419 0.0
H3042 H 0.68332 0.55926 0.76568 0.0
H3043 H 0.67312 0.51059 0.81237 0.0
C3044 C 0.67525 0.47168 0.71717 0.0
C3045 C 0.67635 0.47399 0.68844 0.0
C3046 C 0.6814 0.49089 0.67763 0.0
C3047 C 0.68468 0.50548 0.69506 0.0
C3048 C 0.68297 0.50291 0.72326 0.0
C3049 C 0.67853 0.4864 0.7343 0.0
C3050 C 0.67598 0.48764 0.7651 0.0
C3051 C 0.65695 0.48205 0.77342 0.0
C3052 C 0.6901 0.47642 0.78026 0.0
C3053 C 0.679 0.50755 0.76945 0.0
C3054 C 0.68324 0.51605 0.74512 0.0
C3055 C 0.68521 0.5346 0.74352 0.0
C3056 C 0.68256 0.54478 0.76735 0.0
C3057 C 0.678 0.53642 0.79257 0.0
C3058 C 0.67655 0.51748 0.79354 0.0
H3059 H 0.78493 0.43454 0.97185 0.0
H3060 H 0.75529 0.41298 0.90268 0.0
H3061 H 0.72775 0.41354 0.93018 0.0
H3062 H 0.76385 0.40867 0.02211 0.0
H3063 H 0.76351 0.42593 0.04805 0.0
H3064 H 0.78055 0.42612 0.02201 0.0
H3065 H 0.77153 0.45849 0.00827 0.0
H3066 H 0.75449 0.45844 0.0344 0.0
H3067 H 0.74867 0.46323 0.99926 0.0
H3068 H 0.70419 0.41328 0.96623 0.0
H3069 H 0.68604 0.41258 0.00828 0.0
H3070 H 0.73059 0.43453 0.05448 0.0
C3071 C 0.77261 0.43015 0.96236 0.0
C3072 C 0.77231 0.4239 0.93493 0.0
C3073 C 0.75587 0.41825 0.92337 0.0
C3074 C 0.74013 0.4184 0.9389 0.0
C3075 C 0.74097 0.42432 0.96597 0.0
C3076 C 0.75674 0.4302 0.9776 0.0
C3077 C 0.75418 0.43483 0.00765 0.0
C3078 C 0.76624 0.42319 0.02603 0.0
C3079 C 0.75741 0.45494 0.01269 0.0
C3080 C 0.73466 0.43005 0.01128 0.0
C3081 C 0.72726 0.42422 0.98689 0.0
C3082 C 0.70971 0.41816 0.98534 0.0
C3083 C 0.69946 0.41794 0.00939 0.0
C3084 C 0.70675 0.42372 0.03476 0.0
C3085 C 0.72457 0.43003 0.03549 0.0
H3086 H 0.82615 0.48726 0.30937 0.0
H3087 H 0.82255 0.43751 0.26324 0.0
H3088 H 0.81827 0.45478 0.22062 0.0
H3089 H 0.79419 0.5136 0.26667 0.0
H3090 H 0.80734 0.53377 0.26968 0.0
H3091 H 0.80724 0.51755 0.29716 0.0
H3092 H 0.84175 0.5155 0.29467 0.0
H3093 H 0.84195 0.53164 0.26724 0.0
H3094 H 0.85227 0.51 0.26247 0.0
H3095 H 0.81825 0.47717 0.18248 0.0
H3096 H 0.82243 0.50313 0.15161 0.0
H3097 H 0.8268 0.53834 0.22222 0.0
C3098 C 0.82419 0.47998 0.29037 0.0
C3099 C 0.82456 0.461 0.28975 0.0
C3100 C 0.82194 0.45202 0.26441 0.0
C3101 C 0.81957 0.46172 0.24003 0.0
C3102 C 0.81971 0.48041 0.24131 0.0
C3103 C 0.82183 0.48946 0.26584 0.0
C3104 C 0.82298 0.50955 0.26131 0.0
C3105 C 0.80698 0.51919 0.27449 0.0
C3106 C 0.8408 0.51711 0.27205 0.0
C3107 C 0.82199 0.51032 0.2303 0.0
C3108 C 0.8198 0.49338 0.21919 0.0
C3109 C 0.81971 0.49053 0.19094 0.0
C3110 C 0.82221 0.50533 0.17358 0.0
C3111 C 0.82488 0.52275 0.18453 0.0
C3112 C 0.82441 0.52526 0.21326 0.0
H3113 H 0.71653 0.5628 0.46806 0.0
H3114 H 0.74482 0.58998 0.40209 0.0
H3115 H 0.77236 0.58904 0.4292 0.0
H3116 H 0.7362 0.58793 0.52069 0.0
H3117 H 0.7373 0.56973 0.54503 0.0
H3118 H 0.72034 0.56976 0.51889 0.0
H3119 H 0.73088 0.53841 0.50242 0.0
H3120 H 0.74791 0.53829 0.52857 0.0
H3121 H 0.75394 0.53512 0.49309 0.0
H3122 H 0.79623 0.58783 0.46454 0.0
H3123 H 0.81437 0.58767 0.50674 0.0
H3124 H 0.77052 0.56302 0.55113 0.0
C3125 C 0.7285 0.56845 0.45911 0.0
C3126 C 0.72836 0.57621 0.43255 0.0
C3127 C 0.74449 0.5834 0.42188 0.0
C3128 C 0.76028 0.58307 0.43725 0.0
C3129 C 0.75981 0.57563 0.46342 0.0
C3130 C 0.74435 0.56851 0.47436 0.0
C3131 C 0.7471 0.56286 0.50396 0.0
C3132 C 0.73449 0.57319 0.52327 0.0
C3133 C 0.74482 0.54246 0.50719 0.0
C3134 C 0.76637 0.56842 0.50812 0.0
C3135 C 0.77353 0.57543 0.48429 0.0
C3136 C 0.79087 0.58214 0.48324 0.0
C3137 C 0.80111 0.5819 0.50729 0.0
C3138 C 0.79392 0.57517 0.53214 0.0
C3139 C 0.77638 0.56817 0.5324 0.0
H3140 H 0.32457 0.45754 0.23052 0.0
H3141 H 0.31448 0.48878 0.15682 0.0
H3142 H 0.30935 0.51561 0.18515 0.0
H3143 H 0.29335 0.48192 0.2767 0.0
H3144 H 0.30856 0.48063 0.30529 0.0
H3145 H 0.30838 0.46312 0.27975 0.0
H3146 H 0.34224 0.46782 0.2715 0.0
H3147 H 0.34253 0.48529 0.29696 0.0
H3148 H 0.35034 0.48988 0.26268 0.0
H3149 H 0.3089 0.53979 0.22053 0.0
H3150 H 0.3139 0.55964 0.26033 0.0
H3151 H 0.32582 0.5132 0.31088 0.0
C3152 C 0.32105 0.46995 0.22029 0.0
C3153 C 0.31978 0.47089 0.19133 0.0
C3154 C 0.31511 0.48747 0.17893 0.0
C3155 C 0.31225 0.50287 0.19487 0.0
C3156 C 0.31406 0.50154 0.22324 0.0
C3157 C 0.31832 0.4855 0.23587 0.0
C3158 C 0.3212 0.48806 0.26642 0.0
C3159 C 0.30703 0.47782 0.28302 0.0
C3160 C 0.3402 0.48244 0.27487 0.0
C3161 C 0.31859 0.50817 0.26879 0.0
C3162 C 0.31415 0.51562 0.24372 0.0
C3163 C 0.31216 0.53408 0.24033 0.0
C3164 C 0.31513 0.54526 0.26301 0.0
C3165 C 0.32023 0.53797 0.28871 0.0
C3166 C 0.32158 0.51914 0.29168 0.0
H3167 H 0.21231 0.59673 0.0195 0.0
H3168 H 0.22958 0.5529 0.07173 0.0
H3169 H 0.25452 0.54659 0.03973 0.0
H3170 H 0.22351 0.57549 0.95381 0.0
H3171 H 0.23073 0.59639 0.93882 0.0
H3172 H 0.21361 0.59636 0.96479 0.0
H3173 H 0.23229 0.61865 0.99388 0.0
H3174 H 0.24951 0.61865 0.96813 0.0
H3175 H 0.25489 0.61289 0.00309 0.0
H3176 H 0.27945 0.5475 0.00447 0.0
H3177 H 0.30108 0.55417 0.96775 0.0
H3178 H 0.26587 0.59602 0.93711 0.0
C3179 C 0.22124 0.58568 0.02405 0.0
C3180 C 0.2191 0.57532 0.04806 0.0
C3181 C 0.23095 0.5609 0.05328 0.0
C3182 C 0.24516 0.55727 0.0353 0.0
C3183 C 0.24713 0.56804 0.01207 0.0
C3184 C 0.23533 0.5818 0.00625 0.0
C3185 C 0.24063 0.59179 0.98051 0.0
C3186 C 0.22627 0.58988 0.95816 0.0
C3187 C 0.24456 0.61166 0.98679 0.0
C3188 C 0.25746 0.58175 0.97296 0.0
C3189 C 0.26105 0.56813 0.9914 0.0
C3190 C 0.27657 0.55788 0.98958 0.0
C3191 C 0.28875 0.56173 0.96846 0.0
C3192 C 0.2853 0.57562 0.94922 0.0
C3193 C 0.26921 0.58548 0.95149 0.0
H3194 H 0.15015 0.46261 0.77483 0.0
H3195 H 0.19894 0.4745 0.81903 0.0
H3196 H 0.20585 0.49871 0.7857 0.0
H3197 H 0.16813 0.47118 0.70575 0.0
H3198 H 0.14741 0.48072 0.69384 0.0
H3199 H 0.14723 0.46364 0.72003 0.0
H3200 H 0.12927 0.48483 0.75196 0.0
H3201 H 0.1295 0.502 0.726 0.0
H3202 H 0.13803 0.50679 0.7598 0.0
H3203 H 0.20552 0.52364 0.75012 0.0
H3204 H 0.19898 0.54598 0.71407 0.0
H3205 H 0.15136 0.51605 0.6917 0.0
C3206 C 0.16238 0.47021 0.77728 0.0
C3207 C 0.17401 0.46683 0.79943 0.0
C3208 C 0.18995 0.47689 0.80201 0.0
C3209 C 0.19393 0.49065 0.78326 0.0
C3210 C 0.18197 0.49389 0.76188 0.0
C3211 C 0.16665 0.48376 0.75861 0.0
C3212 C 0.15572 0.49016 0.73443 0.0
C3213 C 0.15456 0.47555 0.71219 0.0
C3214 C 0.13703 0.49631 0.74361 0.0
C3215 C 0.16699 0.50583 0.72504 0.0
C3216 C 0.18209 0.50779 0.74103 0.0
C3217 C 0.19391 0.52202 0.73714 0.0
C3218 C 0.19011 0.53461 0.71648 0.0
C3219 C 0.17465 0.53286 0.69988 0.0
C3220 C 0.16318 0.51803 0.70413 0.0
H3221 H 0.23422 0.41885 0.44046 0.0
H3222 H 0.18683 0.43289 0.48695 0.0
H3223 H 0.20547 0.43795 0.52809 0.0
H3224 H 0.25412 0.39332 0.49089 0.0
H3225 H 0.27669 0.40013 0.48337 0.0
H3226 H 0.26007 0.40051 0.45676 0.0
H3227 H 0.26671 0.43418 0.4478 0.0
H3228 H 0.28342 0.43389 0.47443 0.0
H3229 H 0.26544 0.44996 0.47579 0.0
H3230 H 0.22901 0.43818 0.56544 0.0
H3231 H 0.25513 0.43278 0.59557 0.0
H3232 H 0.28662 0.41775 0.52457 0.0
C3233 C 0.22777 0.42322 0.45918 0.0
C3234 C 0.20907 0.42552 0.46044 0.0
C3235 C 0.20117 0.43133 0.48534 0.0
C3236 C 0.21164 0.43419 0.50885 0.0
C3237 C 0.23001 0.43133 0.50705 0.0
C3238 C 0.23799 0.42607 0.48276 0.0
C3239 C 0.25769 0.42244 0.48661 0.0
C3240 C 0.2624 0.40294 0.47897 0.0
C3241 C 0.26898 0.43592 0.47018 0.0
C3242 C 0.25943 0.42567 0.51712 0.0
C3243 C 0.24343 0.43117 0.52851 0.0
C3244 C 0.24166 0.43412 0.55666 0.0
C3245 C 0.25654 0.43108 0.5736 0.0
C3246 C 0.27282 0.42487 0.56232 0.0
C3247 C 0.2743 0.42248 0.53369 0.0
H3248 H 0.15587 0.20213 0.35202 0.0
H3249 H 0.16016 0.19917 0.44073 0.0
H3250 H 0.1635 0.23212 0.44291 0.0
H3251 H 0.18788 0.23843 0.34268 0.0
H3252 H 0.17535 0.24876 0.31533 0.0
H3253 H 0.17407 0.22484 0.32063 0.0
H3254 H 0.13963 0.22702 0.32459 0.0
H3255 H 0.1408 0.25092 0.31932 0.0
H3256 H 0.12991 0.24208 0.34941 0.0
H3257 H 0.16501 0.26538 0.43568 0.0
H3258 H 0.16458 0.29676 0.4196 0.0
H3259 H 0.1598 0.27816 0.33544 0.0
C3260 C 0.15753 0.20843 0.37188 0.0
C3261 C 0.15787 0.19809 0.3962 0.0
C3262 C 0.16017 0.2068 0.42181 0.0
C3263 C 0.16199 0.22551 0.42326 0.0
C3264 C 0.16157 0.2353 0.39892 0.0
C3265 C 0.15946 0.22708 0.3737 0.0
C3266 C 0.15915 0.24077 0.3507 0.0
C3267 C 0.17506 0.23803 0.33119 0.0
C3268 C 0.14131 0.24016 0.3351 0.0
C3269 C 0.16107 0.25798 0.36699 0.0
C3270 C 0.16255 0.25451 0.39474 0.0
C3271 C 0.16405 0.26827 0.41397 0.0
C3272 C 0.16391 0.28606 0.40459 0.0
C3273 C 0.16229 0.28998 0.37622 0.0
C3274 C 0.16097 0.27566 0.35725 0.0
H3275 H 0.96658 0.91442 0.63811 0.0
H3276 H 0.96147 0.89511 0.55457 0.0
H3277 H 0.99425 0.89652 0.54895 0.0
H3278 H 0.00513 0.94447 0.62688 0.0
H3279 H 0.01539 0.93867 0.65915 0.0
H3280 H 0.99144 0.9381 0.65571 0.0
H3281 H 0.99117 0.90496 0.67191 0.0
H3282 H 0.01508 0.90544 0.67541 0.0
H3283 H 0.00468 0.88866 0.65409 0.0
H3284 H 0.02725 0.89812 0.55318 0.0
H3285 H 0.05881 0.89843 0.56756 0.0
H3286 H 0.04296 0.91569 0.64907 0.0
C3287 C 0.97243 0.91083 0.61854 0.0
C3288 C 0.96165 0.90478 0.59666 0.0
C3289 C 0.96963 0.89978 0.57149 0.0
C3290 C 0.98817 0.90063 0.56809 0.0
C3291 C 0.99851 0.90642 0.59014 0.0
C3292 C 0.99099 0.91136 0.61493 0.0
C3293 C 0.00527 0.91563 0.636 0.0
C3294 C 0.00424 0.9354 0.64495 0.0
C3295 C 0.00397 0.90291 0.66081 0.0
C3296 C 0.02197 0.91204 0.61929 0.0
C3297 C 0.01772 0.90695 0.5928 0.0
C3298 C 0.03076 0.90217 0.57381 0.0
C3299 C 0.04863 0.90229 0.58221 0.0
C3300 C 0.05332 0.90703 0.60943 0.0
C3301 C 0.03979 0.91226 0.62803 0.0
H3302 H 0.34639 0.79615 0.85073 0.0
H3303 H 0.33266 0.79876 0.93725 0.0
H3304 H 0.32833 0.76597 0.9379 0.0
H3305 H 0.31569 0.75998 0.83243 0.0
H3306 H 0.33121 0.74971 0.80892 0.0
H3307 H 0.33186 0.77361 0.81462 0.0
H3308 H 0.36528 0.77139 0.82797 0.0
H3309 H 0.36473 0.7475 0.82233 0.0
H3310 H 0.37194 0.75626 0.85498 0.0
H3311 H 0.32705 0.73281 0.92995 0.0
H3312 H 0.32948 0.70144 0.91411 0.0
H3313 H 0.34455 0.7202 0.83299 0.0
C3314 C 0.34244 0.78985 0.86982 0.0
C3315 C 0.33973 0.80012 0.89389 0.0
C3316 C 0.33446 0.7913 0.91839 0.0
C3317 C 0.33206 0.77264 0.91901 0.0
C3318 C 0.33497 0.76295 0.895 0.0
C3319 C 0.34003 0.77123 0.87085 0.0
C3320 C 0.34302 0.7576 0.84821 0.0
C3321 C 0.32964 0.7604 0.82465 0.0
C3322 C 0.36239 0.75823 0.83777 0.0
C3323 C 0.33923 0.74035 0.86361 0.0
C3324 C 0.33441 0.74376 0.89048 0.0
C3325 C 0.33064 0.72997 0.90889 0.0
C3326 C 0.33197 0.71219 0.89965 0.0
C3327 C 0.33712 0.70836 0.87229 0.0
C3328 C 0.34066 0.72269 0.85406 0.0
H3329 H 0.46047 0.10682 0.1464 0.0
H3330 H 0.44313 0.06713 0.08677 0.0
H3331 H 0.47449 0.06217 0.07313 0.0
H3332 H 0.49456 0.1264 0.10429 0.0
H3333 H 0.50963 0.13024 0.13253 0.0
H3334 H 0.48588 0.13015 0.13832 0.0
H3335 H 0.4897 0.10547 0.17539 0.0
H3336 H 0.51346 0.10551 0.16975 0.0
H3337 H 0.50103 0.08488 0.16671 0.0
H3338 H 0.50778 0.06186 0.06556 0.0
H3339 H 0.54046 0.06643 0.06444 0.0
H3340 H 0.53573 0.10684 0.12821 0.0
C3341 C 0.4632 0.09716 0.13033 0.0
C3342 C 0.44928 0.08733 0.11773 0.0
C3343 C 0.45355 0.07463 0.09707 0.0
C3344 C 0.47131 0.0718 0.08903 0.0
C3345 C 0.48466 0.08181 0.10178 0.0
C3346 C 0.4808 0.09425 0.12196 0.0
C3347 C 0.49755 0.10346 0.13217 0.0
C3348 C 0.49686 0.12376 0.12648 0.0
C3349 C 0.50061 0.09959 0.16282 0.0
C3350 C 0.51144 0.09429 0.11452 0.0
C3351 C 0.50375 0.0818 0.09719 0.0
C3352 C 0.51394 0.07159 0.07907 0.0
C3353 C 0.53249 0.07422 0.07866 0.0
C3354 C 0.54062 0.087 0.09621 0.0
C3355 C 0.52988 0.09714 0.11431 0.0
H3356 H 0.14828 0.72104 0.15953 0.0
H3357 H 0.18701 0.70577 0.09737 0.0
H3358 H 0.19197 0.73766 0.08647 0.0
H3359 H 0.12826 0.75597 0.1206 0.0
H3360 H 0.12452 0.77045 0.14969 0.0
H3361 H 0.12514 0.74647 0.1543 0.0
H3362 H 0.15005 0.7501 0.19079 0.0
H3363 H 0.14956 0.77411 0.18619 0.0
H3364 H 0.17022 0.762 0.18201 0.0
H3365 H 0.19201 0.77111 0.08108 0.0
H3366 H 0.18629 0.80371 0.0804 0.0
H3367 H 0.14606 0.79701 0.14382 0.0
C3368 C 0.1578 0.72434 0.14359 0.0
C3369 C 0.16737 0.71079 0.12952 0.0
C3370 C 0.1798 0.71583 0.10894 0.0
C3371 C 0.18264 0.73394 0.10246 0.0
C3372 C 0.17292 0.74689 0.11663 0.0
C3373 C 0.16071 0.74234 0.13669 0.0
C3374 C 0.15137 0.75883 0.1479 0.0
C3375 C 0.13112 0.75787 0.1428 0.0
C3376 C 0.15556 0.76141 0.17854 0.0
C3377 C 0.16005 0.77332 0.13065 0.0
C3378 C 0.17259 0.76617 0.11298 0.0
C3379 C 0.18218 0.77687 0.09478 0.0
C3380 C 0.17873 0.79537 0.09441 0.0
C3381 C 0.16563 0.80299 0.11191 0.0
C3382 C 0.15633 0.79173 0.13042 0.0
H3383 H 0.5344 0.91103 0.36183 0.0
H3384 H 0.53854 0.91062 0.45071 0.0
H3385 H 0.50575 0.91176 0.45433 0.0
H3386 H 0.49562 0.94179 0.35842 0.0
H3387 H 0.48592 0.93008 0.32969 0.0
H3388 H 0.50981 0.93051 0.33401 0.0
H3389 H 0.51051 0.89573 0.33283 0.0
H3390 H 0.48665 0.89519 0.32866 0.0
H3391 H 0.49693 0.88323 0.35666 0.0
H3392 H 0.47275 0.91002 0.44853 0.0
H3393 H 0.44137 0.90701 0.43345 0.0
H3394 H 0.45829 0.9101 0.3485 0.0
C3395 C 0.52844 0.91159 0.38205 0.0
C3396 C 0.53907 0.91059 0.40599 0.0
C3397 C 0.53069 0.91105 0.43207 0.0
C3398 C 0.51207 0.91184 0.43435 0.0
C3399 C 0.50198 0.9124 0.41039 0.0
C3400 C 0.50983 0.91249 0.38472 0.0
C3401 C 0.49583 0.91244 0.36224 0.0
C3402 C 0.49686 0.92974 0.34508 0.0
C3403 C 0.49759 0.89565 0.34403 0.0
C3404 C 0.47892 0.91189 0.37931 0.0
C3405 C 0.4828 0.91191 0.40704 0.0
C3406 C 0.46951 0.91028 0.4269 0.0
C3407 C 0.45178 0.90851 0.41818 0.0
C3408 C 0.4475 0.90851 0.3899 0.0
C3409 C 0.46123 0.91042 0.37025 0.0
H3410 H 0.35164 0.20439 0.60182 0.0
H3411 H 0.31793 0.1903 0.67101 0.0
H3412 H 0.31428 0.22249 0.68199 0.0
H3413 H 0.37438 0.24057 0.63346 0.0
H3414 H 0.37506 0.25434 0.60306 0.0
H3415 H 0.37444 0.23026 0.59998 0.0
H3416 H 0.34625 0.23253 0.56936 0.0
H3417 H 0.34682 0.25664 0.57226 0.0
H3418 H 0.32696 0.24449 0.58182 0.0
H3419 H 0.31432 0.25619 0.6854 0.0
H3420 H 0.31902 0.28901 0.68206 0.0
H3421 H 0.35317 0.28102 0.61124 0.0
C3422 C 0.34328 0.20807 0.61906 0.0
C3423 C 0.33502 0.19482 0.63552 0.0
C3424 C 0.3245 0.20021 0.65824 0.0
C3425 C 0.32226 0.21845 0.66454 0.0
C3426 C 0.33065 0.23114 0.64793 0.0
C3427 C 0.34096 0.22619 0.62567 0.0
C3428 C 0.34889 0.24245 0.61151 0.0
C3429 C 0.36941 0.24186 0.61205 0.0
C3430 C 0.3418 0.24412 0.58199 0.0
C3431 C 0.34169 0.25732 0.62958 0.0
C3432 C 0.331 0.25052 0.65025 0.0
C3433 C 0.32265 0.26166 0.6693 0.0
C3434 C 0.32535 0.28025 0.66721 0.0
C3435 C 0.33646 0.28745 0.64644 0.0
C3436 C 0.34472 0.27581 0.62743 0.0
H3437 H 0.04442 0.08098 0.89503 0.0
H3438 H 0.05015 0.12093 0.83078 0.0
H3439 H 0.01743 0.1242 0.82852 0.0
H3440 H 0.00356 0.06014 0.86847 0.0
H3441 H 0.99404 0.05685 0.90207 0.0
H3442 H 0.01793 0.05678 0.89769 0.0
H3443 H 0.02087 0.08192 0.93414 0.0
H3444 H 0.99701 0.08211 0.93859 0.0
H3445 H 0.00858 0.10253 0.92977 0.0
H3446 H 0.98466 0.12427 0.83427 0.0
H3447 H 0.95313 0.12118 0.84784 0.0
H3448 H 0.96801 0.08137 0.90878 0.0
C3449 C 0.03872 0.09023 0.88029 0.0
C3450 C 0.04976 0.10078 0.86315 0.0
C3451 C 0.04189 0.1129 0.84431 0.0
C3452 C 0.02335 0.11477 0.84275 0.0
C3453 C 0.01284 0.10441 0.86017 0.0
C3454 C 0.02015 0.09236 0.87858 0.0
C3455 C 0.00573 0.08347 0.89572 0.0
C3456 C 0.00529 0.0631 0.89067 0.0
C3457 C 0.0082 0.08777 0.92637 0.0
C3458 C 0.98924 0.09257 0.88419 0.0
C3459 C 0.99371 0.10453 0.86363 0.0
C3460 C 0.98095 0.11493 0.85029 0.0
C3461 C 0.96311 0.11317 0.85828 0.0
C3462 C 0.95816 0.10113 0.87946 0.0
C3463 C 0.97141 0.09057 0.89238 0.0
H3464 H 0.85394 0.71312 0.61357 0.0
H3465 H 0.81491 0.70662 0.67855 0.0
H3466 H 0.81016 0.73948 0.67955 0.0
H3467 H 0.87347 0.75403 0.63774 0.0
H3468 H 0.87619 0.76358 0.604 0.0
H3469 H 0.87645 0.73957 0.60842 0.0
H3470 H 0.85087 0.73646 0.57291 0.0
H3471 H 0.8505 0.76048 0.56845 0.0
H3472 H 0.83039 0.74873 0.57801 0.0
H3473 H 0.8105 0.77301 0.67463 0.0
H3474 H 0.81509 0.805 0.66293 0.0
H3475 H 0.8531 0.78959 0.60001 0.0
C3476 C 0.84445 0.71868 0.62803 0.0
C3477 C 0.8348 0.70743 0.64604 0.0
C3478 C 0.82233 0.71507 0.6645 0.0
C3479 C 0.81958 0.73368 0.66525 0.0
C3480 C 0.82927 0.74441 0.64718 0.0
C3481 C 0.84135 0.7372 0.62878 0.0
C3482 C 0.84986 0.75171 0.61134 0.0
C3483 C 0.87019 0.75225 0.61565 0.0
C3484 C 0.84512 0.74919 0.58087 0.0
C3485 C 0.84089 0.76822 0.62313 0.0
C3486 C 0.82908 0.76371 0.64381 0.0
C3487 C 0.81961 0.77671 0.65835 0.0
C3488 C 0.82235 0.79481 0.65165 0.0
C3489 C 0.83435 0.79972 0.63049 0.0
C3490 C 0.84362 0.7862 0.61597 0.0
H3491 H 0.95329 0.09059 0.40493 0.0
H3492 H 0.94924 0.08582 0.31636 0.0
H3493 H 0.98192 0.08244 0.31323 0.0
H3494 H 0.9929 0.1167 0.406 0.0
H3495 H 0.00222 0.10594 0.43587 0.0
H3496 H 0.97837 0.10694 0.43145 0.0
H3497 H 0.97647 0.07231 0.43581 0.0
H3498 H 0.00032 0.0712 0.44032 0.0
H3499 H 0.98976 0.0584 0.41345 0.0
H3500 H 0.01499 0.08161 0.31925 0.0
H3501 H 0.04636 0.08256 0.33407 0.0
H3502 H 0.02917 0.08679 0.41902 0.0
C3503 C 0.95929 0.08875 0.3849 0.0
C3504 C 0.9487 0.08835 0.36089 0.0
C3505 C 0.95704 0.08586 0.33507 0.0
C3506 C 0.97561 0.08402 0.33306 0.0
C3507 C 0.98566 0.08459 0.35708 0.0
C3508 C 0.97782 0.08678 0.38253 0.0
C3509 C 0.99177 0.08727 0.40506 0.0
C3510 C 0.99128 0.10529 0.4205 0.0
C3511 C 0.98943 0.07135 0.42483 0.0
C3512 C 0.00867 0.08539 0.3882 0.0
C3513 C 0.00481 0.08381 0.36059 0.0
C3514 C 0.01819 0.08256 0.34086 0.0
C3515 C 0.03601 0.08298 0.34955 0.0
C3516 C 0.04037 0.08455 0.37779 0.0
C3517 C 0.02639 0.08566 0.39729 0.0
H3518 H 0.65485 0.2825 0.1639 0.0
H3519 H 0.64712 0.30018 0.07986 0.0
H3520 H 0.64783 0.26866 0.06422 0.0
H3521 H 0.68519 0.24593 0.14841 0.0
H3522 H 0.6761 0.23131 0.17438 0.0
H3523 H 0.67534 0.2553 0.17898 0.0
H3524 H 0.64105 0.25373 0.18565 0.0
H3525 H 0.64171 0.22975 0.18109 0.0
H3526 H 0.62746 0.24328 0.15963 0.0
H3527 H 0.64955 0.23541 0.05761 0.0
H3528 H 0.65057 0.20233 0.06075 0.0
H3529 H 0.65681 0.20608 0.14909 0.0
C3530 C 0.65344 0.27973 0.14219 0.0
C3531 C 0.6509 0.29378 0.12308 0.0
C3532 C 0.64887 0.28961 0.09489 0.0
C3533 C 0.64938 0.27177 0.08578 0.0
C3534 C 0.6519 0.25825 0.10514 0.0
C3535 C 0.65381 0.26197 0.13276 0.0
C3536 C 0.65592 0.24489 0.14935 0.0
C3537 C 0.67423 0.24433 0.16362 0.0
C3538 C 0.64062 0.24279 0.17015 0.0
C3539 C 0.65473 0.23098 0.12674 0.0
C3540 C 0.6526 0.239 0.10137 0.0
C3541 C 0.65125 0.22897 0.07735 0.0
C3542 C 0.65195 0.21021 0.07931 0.0
C3543 C 0.65383 0.20169 0.10513 0.0
C3544 C 0.65528 0.21226 0.12911 0.0
H3545 H 0.54005 0.90607 0.84893 0.0
H3546 H 0.55945 0.91956 0.93023 0.0
H3547 H 0.52842 0.92415 0.94597 0.0
H3548 H 0.50212 0.93759 0.84815 0.0
H3549 H 0.48777 0.92208 0.8303 0.0
H3550 H 0.51155 0.92143 0.82474 0.0
H3551 H 0.51201 0.88775 0.83813 0.0
H3552 H 0.48827 0.8883 0.84373 0.0
H3553 H 0.50295 0.88091 0.87079 0.0
H3554 H 0.49543 0.92603 0.95338 0.0
H3555 H 0.4626 0.92395 0.9526 0.0
H3556 H 0.46459 0.90786 0.86695 0.0
C3557 C 0.53775 0.91033 0.86988 0.0
C3558 C 0.55211 0.91256 0.88836 0.0
C3559 C 0.5486 0.91774 0.9158 0.0
C3560 C 0.53105 0.92047 0.92487 0.0
C3561 C 0.51717 0.91794 0.90625 0.0
C3562 C 0.52029 0.91297 0.87934 0.0
C3563 C 0.50293 0.91004 0.86401 0.0
C3564 C 0.50098 0.92359 0.8404 0.0
C3565 C 0.50146 0.89059 0.85356 0.0
C3566 C 0.48959 0.91377 0.88667 0.0
C3567 C 0.49808 0.91855 0.91074 0.0
C3568 C 0.48861 0.9223 0.93465 0.0
C3569 C 0.46996 0.92092 0.93404 0.0
C3570 C 0.46093 0.91561 0.90977 0.0
C3571 C 0.47098 0.9122 0.88574 0.0
H3572 H 0.84623 0.28034 0.83788 0.0
H3573 H 0.82154 0.29663 0.91463 0.0
H3574 H 0.81727 0.26488 0.92707 0.0
H3575 H 0.81892 0.24088 0.82569 0.0
H3576 H 0.83724 0.22781 0.81242 0.0
H3577 H 0.83722 0.25187 0.8085 0.0
H3578 H 0.86806 0.25366 0.83245 0.0
H3579 H 0.8682 0.22962 0.83638 0.0
H3580 H 0.87085 0.24386 0.86602 0.0
H3581 H 0.81656 0.23142 0.93204 0.0
H3582 H 0.82078 0.19855 0.93007 0.0
H3583 H 0.8469 0.204 0.85101 0.0
C3584 C 0.83995 0.27728 0.85734 0.0
C3585 C 0.83406 0.29108 0.87511 0.0
C3586 C 0.8258 0.28638 0.90031 0.0
C3587 C 0.82339 0.26835 0.90766 0.0
C3588 C 0.82938 0.25513 0.88969 0.0
C3589 C 0.83756 0.25935 0.86511 0.0
C3590 C 0.84349 0.24258 0.85006 0.0
C3591 C 0.83362 0.24068 0.82254 0.0
C3592 C 0.86386 0.24243 0.846 0.0
C3593 C 0.83762 0.2283 0.87026 0.0
C3594 C 0.82931 0.23582 0.89282 0.0
C3595 C 0.82294 0.22535 0.91441 0.0
C3596 C 0.82531 0.2067 0.91304 0.0
C3597 C 0.83411 0.19874 0.89037 0.0
C3598 C 0.84019 0.20973 0.86864 0.0
H3599 H 0.54239 0.07867 0.63361 0.0
H3600 H 0.55488 0.13103 0.59931 0.0
H3601 H 0.52316 0.13564 0.58833 0.0
H3602 H 0.50827 0.06679 0.58494 0.0
H3603 H 0.49412 0.05599 0.6099 0.0
H3604 H 0.51793 0.05653 0.61498 0.0
H3605 H 0.5134 0.07146 0.66251 0.0
H3606 H 0.48957 0.07093 0.65759 0.0
H3607 H 0.50059 0.0919 0.66497 0.0
H3608 H 0.49043 0.13479 0.58079 0.0
H3609 H 0.45813 0.12876 0.57818 0.0
H3610 H 0.46625 0.07722 0.61793 0.0
C3611 C 0.53843 0.09114 0.62393 0.0
C3612 C 0.55121 0.10438 0.617 0.0
C3613 C 0.54545 0.12049 0.60425 0.0
C3614 C 0.52743 0.12331 0.59809 0.0
C3615 C 0.51524 0.10996 0.60494 0.0
C3616 C 0.52042 0.09422 0.61767 0.0
C3617 C 0.50447 0.08214 0.62292 0.0
C3618 C 0.50632 0.06431 0.60724 0.0
C3619 C 0.50186 0.07892 0.65384 0.0
C3620 C 0.48958 0.09359 0.61115 0.0
C3621 C 0.49615 0.10955 0.60083 0.0
C3622 C 0.4851 0.12232 0.58874 0.0
C3623 C 0.46679 0.11872 0.58719 0.0
C3624 C 0.45968 0.10248 0.59768 0.0
C3625 C 0.47128 0.08979 0.60988 0.0
H3626 H 0.65241 0.71693 0.33203 0.0
H3627 H 0.65823 0.70067 0.41708 0.0
H3628 H 0.66119 0.73245 0.43081 0.0
H3629 H 0.68377 0.75437 0.33458 0.0
H3630 H 0.67055 0.76833 0.31222 0.0
H3631 H 0.66972 0.74424 0.30885 0.0
H3632 H 0.63535 0.74501 0.31493 0.0
H3633 H 0.63608 0.76908 0.31828 0.0
H3634 H 0.62592 0.75567 0.34483 0.0
H3635 H 0.66338 0.76583 0.43539 0.0
H3636 H 0.66267 0.79887 0.4309 0.0
H3637 H 0.65453 0.79366 0.34314 0.0
C3638 C 0.65449 0.72008 0.35349 0.0
C3639 C 0.6551 0.70636 0.37351 0.0
C3640 C 0.65757 0.71099 0.40145 0.0
C3641 C 0.65938 0.72898 0.40942 0.0
C3642 C 0.65866 0.74218 0.38921 0.0
C3643 C 0.65618 0.73799 0.36184 0.0
C3644 C 0.65519 0.75481 0.34439 0.0
C3645 C 0.67074 0.75547 0.32379 0.0
C3646 C 0.63705 0.75622 0.32976 0.0
C3647 C 0.65721 0.7691 0.36629 0.0
C3648 C 0.65948 0.7615 0.39194 0.0
C3649 C 0.66166 0.77194 0.41541 0.0
C3650 C 0.66134 0.79067 0.41266 0.0
C3651 C 0.65863 0.79874 0.38668 0.0
C3652 C 0.6566 0.78779 0.36322 0.0
H3653 H 0.95865 0.90414 0.15123 0.0
H3654 H 0.93999 0.91787 0.06963 0.0
H3655 H 0.97119 0.92193 0.05432 0.0
H3656 H 0.99708 0.93494 0.15263 0.0
H3657 H 0.01106 0.91917 0.17066 0.0
H3658 H 0.98724 0.91889 0.17584 0.0
H3659 H 0.98636 0.88525 0.16234 0.0
H3660 H 0.01014 0.88543 0.15706 0.0
H3661 H 0.99551 0.87831 0.12979 0.0
H3662 H 0.00423 0.92331 0.04741 0.0
H3663 H 0.03702 0.92103 0.04877 0.0
H3664 H 0.03432 0.90497 0.13439 0.0
C3665 C 0.96116 0.90834 0.1303 0.0
C3666 C 0.94696 0.9108 0.1116 0.0
C3667 C 0.95072 0.91589 0.08421 0.0
C3668 C 0.96837 0.9183 0.07539 0.0
C3669 C 0.98209 0.91552 0.09421 0.0
C3670 C 0.97872 0.91063 0.12108 0.0
C3671 C 0.99594 0.90742 0.13666 0.0
C3672 C 0.99794 0.92091 0.16035 0.0
C3673 C 0.99705 0.88794 0.14706 0.0
C3674 C 0.00949 0.91097 0.11421 0.0
C3675 C 0.00121 0.91584 0.09 0.0
C3676 C 0.01088 0.9195 0.06625 0.0
C3677 C 0.02951 0.918 0.06718 0.0
C3678 C 0.03834 0.91268 0.09162 0.0
C3679 C 0.02809 0.90928 0.11547 0.0
H3680 H 0.63997 0.78031 0.84567 0.0
H3681 H 0.68971 0.79463 0.88576 0.0
H3682 H 0.6954 0.76263 0.89577 0.0
H3683 H 0.62713 0.74588 0.89237 0.0
H3684 H 0.61787 0.73145 0.86631 0.0
H3685 H 0.61813 0.75539 0.86128 0.0
H3686 H 0.63521 0.75114 0.81547 0.0
H3687 H 0.63504 0.72716 0.82039 0.0
H3688 H 0.65589 0.73876 0.81525 0.0
H3689 H 0.69532 0.72915 0.90231 0.0
H3690 H 0.68948 0.6966 0.90502 0.0
H3691 H 0.6392 0.70438 0.86219 0.0
C3692 C 0.65204 0.77671 0.85661 0.0
C3693 C 0.66443 0.78996 0.86486 0.0
C3694 C 0.68016 0.78469 0.87889 0.0
C3695 C 0.68347 0.76656 0.88478 0.0
C3696 C 0.67095 0.75386 0.87641 0.0
C3697 C 0.65558 0.75869 0.86258 0.0
C3698 C 0.64419 0.74243 0.85615 0.0
C3699 C 0.62574 0.74388 0.86986 0.0
C3700 C 0.64249 0.73972 0.82496 0.0
C3701 C 0.65537 0.72776 0.86907 0.0
C3702 C 0.67083 0.7346 0.88042 0.0
C3703 C 0.68324 0.72363 0.89354 0.0
C3704 C 0.67972 0.70516 0.89516 0.0
C3705 C 0.66384 0.69783 0.88392 0.0
C3706 C 0.65159 0.70941 0.87066 0.0
H3707 H 0.46893 0.40436 0.08571 0.0
H3708 H 0.45164 0.42723 0.16327 0.0
H3709 H 0.48306 0.43126 0.177 0.0
H3710 H 0.50527 0.3793 0.11286 0.0
H3711 H 0.51972 0.38306 0.08384 0.0
H3712 H 0.49587 0.38301 0.07927 0.0
H3713 H 0.49746 0.41477 0.05766 0.0
H3714 H 0.52133 0.41491 0.06213 0.0
H3715 H 0.50799 0.43275 0.07641 0.0
H3716 H 0.51621 0.43142 0.18336 0.0
H3717 H 0.54889 0.42767 0.18198 0.0
H3718 H 0.54476 0.40477 0.10024 0.0
C3719 C 0.47173 0.41023 0.10558 0.0
C3720 C 0.45777 0.41559 0.12333 0.0
C3721 C 0.46206 0.42332 0.14908 0.0
C3722 C 0.47988 0.42558 0.15715 0.0
C3723 C 0.49328 0.42006 0.13924 0.0
C3724 C 0.48945 0.41257 0.11397 0.0
C3725 C 0.50636 0.4073 0.09894 0.0
C3726 C 0.50683 0.38696 0.09341 0.0
C3727 C 0.5084 0.41808 0.0722 0.0
C3728 C 0.52028 0.41273 0.1199 0.0
C3729 C 0.51245 0.42016 0.14292 0.0
C3730 C 0.52252 0.4258 0.16533 0.0
C3731 C 0.54111 0.42371 0.16426 0.0
C3732 C 0.54946 0.41603 0.14093 0.0
C3733 C 0.53882 0.41059 0.11844 0.0
H3734 H 0.85926 0.2208 0.34867 0.0
H3735 H 0.80983 0.20668 0.38989 0.0
H3736 H 0.80443 0.23868 0.40013 0.0
H3737 H 0.87263 0.255 0.3957 0.0
H3738 H 0.88189 0.26941 0.36959 0.0
H3739 H 0.88143 0.24547 0.36448 0.0
H3740 H 0.8642 0.24994 0.31885 0.0
H3741 H 0.86455 0.2739 0.32388 0.0
H3742 H 0.8436 0.26246 0.3189 0.0
H3743 H 0.80466 0.27218 0.40655 0.0
H3744 H 0.81068 0.3047 0.40915 0.0
H3745 H 0.86069 0.29664 0.36567 0.0
C3746 C 0.84733 0.22442 0.35994 0.0
C3747 C 0.83492 0.21122 0.36836 0.0
C3748 C 0.81938 0.21656 0.38282 0.0
C3749 C 0.81624 0.2347 0.38886 0.0
C3750 C 0.82875 0.24734 0.3803 0.0
C3751 C 0.84398 0.24245 0.36616 0.0
C3752 C 0.85545 0.25864 0.35966 0.0
C3753 C 0.87394 0.25703 0.37318 0.0
C3754 C 0.85704 0.26139 0.32847 0.0
C3755 C 0.84443 0.27336 0.37277 0.0
C3756 C 0.82901 0.26659 0.38436 0.0
C3757 C 0.81673 0.27764 0.39763 0.0
C3758 C 0.82035 0.29609 0.39918 0.0
C3759 C 0.8362 0.30333 0.38771 0.0
C3760 C 0.84832 0.29169 0.37431 0.0
H3761 H 0.95878 0.60912 0.64491 0.0
H3762 H 0.94337 0.56559 0.5907 0.0
H3763 H 0.97508 0.56055 0.57885 0.0
H3764 H 0.99427 0.62665 0.60342 0.0
H3765 H 0.00857 0.63178 0.63213 0.0
H3766 H 0.98468 0.63193 0.63639 0.0
H3767 H 0.98742 0.609 0.67619 0.0
H3768 H 0.01131 0.60882 0.6721 0.0
H3769 H 0.99895 0.58808 0.67046 0.0
H3770 H 0.00827 0.56104 0.57165 0.0
H3771 H 0.04077 0.56599 0.57116 0.0
H3772 H 0.03469 0.60812 0.63217 0.0
C3773 C 0.96211 0.59858 0.63047 0.0
C3774 C 0.94867 0.58776 0.61864 0.0
C3775 C 0.95351 0.57394 0.60011 0.0
C3776 C 0.97145 0.57103 0.59318 0.0
C3777 C 0.98437 0.58197 0.60515 0.0
C3778 C 0.97996 0.59537 0.62356 0.0
C3779 C 0.99644 0.60503 0.63384 0.0
C3780 C 0.99596 0.62503 0.62596 0.0
C3781 C 0.99866 0.60258 0.66499 0.0
C3782 C 0.0108 0.59508 0.61812 0.0
C3783 C 0.00355 0.58189 0.60162 0.0
C3784 C 0.01413 0.5712 0.58473 0.0
C3785 C 0.03263 0.57404 0.58477 0.0
C3786 C 0.04044 0.58735 0.60179 0.0
C3787 C 0.02925 0.59796 0.61867 0.0
H3788 H 0.64504 0.21621 0.61866 0.0
H3789 H 0.68646 0.2103 0.68034 0.0
H3790 H 0.69073 0.24317 0.68079 0.0
H3791 H 0.66526 0.25245 0.58132 0.0
H3792 H 0.6444 0.26372 0.57473 0.0
H3793 H 0.64486 0.23969 0.57885 0.0
H3794 H 0.62138 0.24196 0.61776 0.0
H3795 H 0.62081 0.26599 0.61373 0.0
H3796 H 0.6257 0.25633 0.6468 0.0
H3797 H 0.69002 0.27681 0.67524 0.0
H3798 H 0.68463 0.30865 0.66352 0.0
H3799 H 0.64324 0.29245 0.60632 0.0
C3800 C 0.65494 0.2218 0.63241 0.0
C3801 C 0.66545 0.21063 0.64942 0.0
C3802 C 0.67843 0.21853 0.66681 0.0
C3803 C 0.68088 0.2372 0.66735 0.0
C3804 C 0.67025 0.2478 0.65039 0.0
C3805 C 0.65754 0.24039 0.63324 0.0
C3806 C 0.64774 0.25475 0.61723 0.0
C3807 C 0.65075 0.25251 0.58619 0.0
C3808 C 0.62772 0.25475 0.62431 0.0
C3809 C 0.65692 0.27141 0.62805 0.0
C3810 C 0.66984 0.26713 0.64719 0.0
C3811 C 0.67993 0.28032 0.66027 0.0
C3812 C 0.67672 0.29836 0.6536 0.0
C3813 C 0.66355 0.30303 0.63398 0.0
C3814 C 0.65357 0.2893 0.6211 0.0
H3815 H 0.03273 0.38929 0.87458 0.0
H3816 H 0.03994 0.43587 0.92699 0.0
H3817 H 0.00734 0.44079 0.92729 0.0
H3818 H 0.99691 0.4072 0.83402 0.0
H3819 H 0.98521 0.38611 0.83164 0.0
H3820 H 0.00912 0.38636 0.83543 0.0
H3821 H 0.00649 0.36619 0.8786 0.0
H3822 H 0.98256 0.3659 0.87496 0.0
H3823 H 0.9925 0.37326 0.90671 0.0
H3824 H 0.97385 0.44029 0.92254 0.0
H3825 H 0.94203 0.43463 0.91262 0.0
H3826 H 0.95686 0.38867 0.8627 0.0
C3827 C 0.02746 0.40045 0.8863 0.0
C3828 C 0.03891 0.41221 0.90075 0.0
C3829 C 0.03146 0.42681 0.91549 0.0
C3830 C 0.01295 0.42966 0.91591 0.0
C3831 C 0.00206 0.4178 0.90148 0.0
C3832 C 0.00903 0.4035 0.88692 0.0
C3833 C 0.99442 0.39276 0.87308 0.0
C3834 C 0.99654 0.39314 0.84168 0.0
C3835 C 0.99397 0.37338 0.884 0.0
C3836 C 0.97814 0.40322 0.88218 0.0
C3837 C 0.98281 0.4176 0.89858 0.0
C3838 C 0.97003 0.42912 0.9096 0.0
C3839 C 0.95199 0.42586 0.90369 0.0
C3840 C 0.94686 0.41122 0.88683 0.0
C3841 C 0.96023 0.39983 0.87596 0.0
H3842 H 0.85223 0.7783 0.16396 0.0
H3843 H 0.81429 0.79489 0.10147 0.0
H3844 H 0.80857 0.76321 0.0901 0.0
H3845 H 0.87147 0.74281 0.12502 0.0
H3846 H 0.87456 0.72813 0.15406 0.0
H3847 H 0.87466 0.7521 0.15884 0.0
H3848 H 0.8494 0.74914 0.19492 0.0
H3849 H 0.84917 0.72515 0.19014 0.0
H3850 H 0.82893 0.73792 0.18574 0.0
H3851 H 0.80757 0.72987 0.08438 0.0
H3852 H 0.81232 0.69712 0.08336 0.0
H3853 H 0.85224 0.70222 0.14755 0.0
C3854 C 0.84273 0.77531 0.14786 0.0
C3855 C 0.83358 0.78918 0.13386 0.0
C3856 C 0.82117 0.78458 0.11301 0.0
C3857 C 0.81789 0.76659 0.10626 0.0
C3858 C 0.82715 0.75331 0.12044 0.0
C3859 C 0.83937 0.75742 0.14072 0.0
C3860 C 0.8481 0.74059 0.15194 0.0
C3861 C 0.8684 0.74093 0.14717 0.0
C3862 C 0.84363 0.73806 0.1825 0.0
C3863 C 0.83909 0.72643 0.13445 0.0
C3864 C 0.8269 0.73405 0.11665 0.0
C3865 C 0.8171 0.72374 0.09819 0.0
C3866 C 0.81999 0.70515 0.09764 0.0
C3867 C 0.83274 0.69704 0.11524 0.0
C3868 C 0.84223 0.7079 0.13408 0.0
H3869 H 0.54521 0.59489 0.40599 0.0
H3870 H 0.55055 0.56969 0.32603 0.0
H3871 H 0.51787 0.56635 0.32337 0.0
H3872 H 0.5077 0.56788 0.42976 0.0
H3873 H 0.49713 0.58642 0.44711 0.0
H3874 H 0.52107 0.58589 0.44351 0.0
H3875 H 0.52028 0.61713 0.42009 0.0
H3876 H 0.49635 0.61772 0.42353 0.0
H3877 H 0.50647 0.62043 0.39021 0.0
H3878 H 0.48467 0.56703 0.3282 0.0
H3879 H 0.45303 0.57135 0.34052 0.0
H3880 H 0.46904 0.59623 0.41726 0.0
C3881 C 0.53952 0.58862 0.38795 0.0
C3882 C 0.5505 0.58242 0.36631 0.0
C3883 C 0.54249 0.57422 0.34313 0.0
C3884 C 0.52391 0.57237 0.34132 0.0
C3885 C 0.5135 0.57876 0.36288 0.0
C3886 C 0.52098 0.58666 0.3858 0.0
C3887 C 0.50671 0.59279 0.40578 0.0
C3888 C 0.50825 0.58263 0.43316 0.0
C3889 C 0.5075 0.61323 0.41015 0.0
C3890 C 0.49004 0.58735 0.39027 0.0
C3891 C 0.49428 0.57919 0.36565 0.0
C3892 C 0.48117 0.57325 0.34755 0.0
C3893 C 0.46323 0.57568 0.3548 0.0
C3894 C 0.45853 0.58401 0.37995 0.0
C3895 C 0.47219 0.5899 0.39784 0.0
H3896 H 0.33606 0.29094 0.09866 0.0
H3897 H 0.34753 0.30811 0.18177 0.0
H3898 H 0.3459 0.27659 0.19762 0.0
H3899 H 0.30589 0.25312 0.11617 0.0
H3900 H 0.31465 0.23901 0.0893 0.0
H3901 H 0.31441 0.26306 0.08508 0.0
H3902 H 0.34846 0.26271 0.0757 0.0
H3903 H 0.34881 0.23872 0.07996 0.0
H3904 H 0.36324 0.25265 0.10052 0.0
H3905 H 0.34499 0.24345 0.20389 0.0
H3906 H 0.34611 0.21049 0.20018 0.0
H3907 H 0.33693 0.21442 0.11238 0.0
C3908 C 0.33777 0.28801 0.12027 0.0
C3909 C 0.34167 0.30182 0.13917 0.0
C3910 C 0.34439 0.29761 0.16715 0.0
C3911 C 0.34344 0.2798 0.1763 0.0
C3912 C 0.33988 0.2664 0.15712 0.0
C3913 C 0.33713 0.27024 0.12967 0.0
C3914 C 0.3351 0.25316 0.11299 0.0
C3915 C 0.3164 0.25202 0.10013 0.0
C3916 C 0.34978 0.25173 0.091 0.0
C3917 C 0.33751 0.23916 0.13526 0.0
C3918 C 0.33998 0.24712 0.16059 0.0
C3919 C 0.34303 0.23704 0.18418 0.0
C3920 C 0.3438 0.21832 0.1818 0.0
C3921 C 0.34176 0.20982 0.15596 0.0
C3922 C 0.33832 0.22045 0.13248 0.0
H3923 H 0.46077 0.59278 0.84156 0.0
H3924 H 0.44187 0.57825 0.92273 0.0
H3925 H 0.47301 0.57421 0.93822 0.0
H3926 H 0.49944 0.56208 0.83999 0.0
H3927 H 0.5134 0.57808 0.82237 0.0
H3928 H 0.4896 0.57821 0.81693 0.0
H3929 H 0.48842 0.61176 0.83096 0.0
H3930 H 0.51217 0.61171 0.83653 0.0
H3931 H 0.49733 0.61853 0.86373 0.0
H3932 H 0.50595 0.57353 0.9457 0.0
H3933 H 0.53875 0.57642 0.94486 0.0
H3934 H 0.53641 0.59213 0.85912 0.0
C3935 C 0.46322 0.58836 0.8624 0.0
C3936 C 0.44896 0.58574 0.88095 0.0
C3937 C 0.45264 0.58038 0.90826 0.0
C3938 C 0.47026 0.57798 0.91719 0.0
C3939 C 0.48403 0.58099 0.89856 0.0
C3940 C 0.48075 0.58603 0.87172 0.0
C3941 C 0.49802 0.58947 0.85639 0.0
C3942 C 0.50024 0.57616 0.83251 0.0
C3943 C 0.49904 0.60903 0.84632 0.0
C3944 C 0.51148 0.58587 0.87893 0.0
C3945 C 0.50312 0.58085 0.90301 0.0
C3946 C 0.51267 0.57737 0.92694 0.0
C3947 C 0.53128 0.57919 0.92631 0.0
C3948 C 0.54017 0.58455 0.90196 0.0
C3949 C 0.53006 0.58776 0.87794 0.0
H3950 H 0.16521 0.7094 0.60216 0.0
H3951 H 0.15054 0.69293 0.68457 0.0
H3952 H 0.15182 0.72448 0.69985 0.0
H3953 H 0.19596 0.74584 0.62286 0.0
H3954 H 0.18918 0.76017 0.59493 0.0
H3955 H 0.18857 0.73611 0.59094 0.0
H3956 H 0.15514 0.73792 0.5776 0.0
H3957 H 0.15562 0.76194 0.58167 0.0
H3958 H 0.13962 0.74874 0.60056 0.0
H3959 H 0.15223 0.7577 0.70538 0.0
H3960 H 0.15242 0.79074 0.70105 0.0
H3961 H 0.16738 0.78589 0.61535 0.0
C3962 C 0.16267 0.7124 0.62355 0.0
C3963 C 0.15774 0.69872 0.64219 0.0
C3964 C 0.15415 0.70322 0.66989 0.0
C3965 C 0.15496 0.72108 0.6788 0.0
C3966 C 0.1595 0.73428 0.65981 0.0
C3967 C 0.16342 0.73019 0.63281 0.0
C3968 C 0.16702 0.74706 0.61629 0.0
C3969 C 0.18634 0.7473 0.60563 0.0
C3970 C 0.15354 0.74902 0.59264 0.0
C3971 C 0.16413 0.76126 0.63811 0.0
C3972 C 0.1599 0.75356 0.66309 0.0
C3973 C 0.15573 0.7639 0.68602 0.0
C3974 C 0.15577 0.78262 0.68333 0.0
C3975 C 0.15997 0.79081 0.65792 0.0
C3976 C 0.16441 0.77996 0.63513 0.0
H3977 H 0.04092 0.40885 0.34479 0.0
H3978 H 0.05991 0.41254 0.42866 0.0
H3979 H 0.02896 0.41709 0.44483 0.0
H3980 H 0.00404 0.44167 0.35108 0.0
H3981 H 0.98936 0.42869 0.32951 0.0
H3982 H 0.01316 0.4278 0.32418 0.0
H3983 H 0.01239 0.39316 0.32925 0.0
H3984 H 0.98864 0.39395 0.33464 0.0
H3985 H 0.00284 0.38336 0.35974 0.0
H3986 H 0.99612 0.41932 0.45217 0.0
H3987 H 0.96327 0.41803 0.45059 0.0
H3988 H 0.96537 0.4115 0.36208 0.0
C3989 C 0.03853 0.41102 0.36647 0.0
C3990 C 0.0527 0.4105 0.38553 0.0
C3991 C 0.04915 0.41292 0.41381 0.0
C3992 C 0.03167 0.41559 0.42314 0.0
C3993 C 0.01792 0.41575 0.4039 0.0
C3994 C 0.02112 0.4135 0.37616 0.0
C3995 C 0.00382 0.41281 0.36009 0.0
C3996 C 0.00252 0.42869 0.34003 0.0
C3997 C 0.00181 0.39474 0.34506 0.0
C3998 C 0.99041 0.41461 0.3832 0.0
C3999 C 0.99885 0.41655 0.40823 0.0
C4000 C 0.98934 0.41787 0.43269 0.0
C4001 C 0.97069 0.41697 0.43159 0.0
C4002 C 0.96171 0.41456 0.40624 0.0
C4003 C 0.97178 0.41361 0.38173 0.0
H4004 H 0.34739 0.70313 0.34681 0.0
H4005 H 0.3259 0.69801 0.4291 0.0
H4006 H 0.32196 0.73093 0.43148 0.0
H4007 H 0.37188 0.74303 0.35741 0.0
H4008 H 0.36693 0.75268 0.32435 0.0
H4009 H 0.36727 0.72866 0.32849 0.0
H4010 H 0.33498 0.72662 0.30964 0.0
H4011 H 0.33459 0.75064 0.30524 0.0
H4012 H 0.31757 0.73976 0.32544 0.0
H4013 H 0.3229 0.7643 0.42647 0.0
H4014 H 0.32637 0.79595 0.41336 0.0
H4015 H 0.34512 0.77949 0.33273 0.0
C4016 C 0.34172 0.70898 0.3652 0.0
C4017 C 0.33691 0.69811 0.38778 0.0
C4018 C 0.32948 0.70614 0.4115 0.0
C4019 C 0.32727 0.72479 0.41307 0.0
C4020 C 0.33234 0.73517 0.39059 0.0
C4021 C 0.33917 0.72756 0.36695 0.0
C4022 C 0.34361 0.74179 0.34579 0.0
C4023 C 0.36361 0.74152 0.3386 0.0
C4024 C 0.33199 0.73957 0.32 0.0
C4025 C 0.33864 0.75862 0.36152 0.0
C4026 C 0.3322 0.75447 0.38731 0.0
C4027 C 0.32757 0.76772 0.40611 0.0
C4028 C 0.32947 0.78572 0.39832 0.0
C4029 C 0.33575 0.79041 0.37177 0.0
C4030 C 0.34034 0.77653 0.3532 0.0
H4031 H 0.97015 0.5931 0.07847 0.0
H4032 H 0.95329 0.59154 0.16378 0.0
H4033 H 0.98471 0.59045 0.17836 0.0
H4034 H 0.00838 0.56393 0.08527 0.0
H4035 H 0.02207 0.5767 0.06192 0.0
H4036 H 0.99816 0.57652 0.05786 0.0
H4037 H 0.99762 0.61128 0.06034 0.0
H4038 H 0.02152 0.61157 0.06434 0.0
H4039 H 0.00752 0.62245 0.08942 0.0
H4040 H 0.01773 0.58991 0.184 0.0
H4041 H 0.05053 0.59121 0.18039 0.0
H4042 H 0.04633 0.59432 0.09166 0.0
C4043 C 0.97303 0.59262 0.10023 0.0
C4044 C 0.95914 0.59218 0.11993 0.0
C4045 C 0.9636 0.59143 0.1482 0.0
C4046 C 0.98143 0.59093 0.15674 0.0
C4047 C 0.99473 0.59133 0.13681 0.0
C4048 C 0.9908 0.59226 0.10916 0.0
C4049 C 0.0077 0.59304 0.09205 0.0
C4050 C 0.00916 0.57657 0.07316 0.0
C4051 C 0.00864 0.61063 0.07557 0.0
C4052 C 0.02171 0.59256 0.11448 0.0
C4053 C 0.01391 0.59141 0.14011 0.0
C4054 C 0.02402 0.59075 0.16405 0.0
C4055 C 0.04264 0.59138 0.16177 0.0
C4056 C 0.05098 0.59275 0.13575 0.0
C4057 C 0.04032 0.59334 0.11182 0.0
H4058 H 0.14405 0.21329 0.88512 0.0
H4059 H 0.18497 0.2073 0.82289 0.0
H4060 H 0.18917 0.24028 0.82192 0.0
H4061 H 0.1245 0.25382 0.86008 0.0
H4062 H 0.1209 0.26337 0.89362 0.0
H4063 H 0.12114 0.23936 0.8893 0.0
H4064 H 0.146 0.23671 0.92607 0.0
H4065 H 0.14585 0.26073 0.93048 0.0
H4066 H 0.16635 0.24934 0.92198 0.0
H4067 H 0.18786 0.27386 0.82628 0.0
H4068 H 0.18244 0.30579 0.83763 0.0
H4069 H 0.14351 0.28978 0.89883 0.0
C4070 C 0.15385 0.219 0.8713 0.0
C4071 C 0.16415 0.20792 0.85395 0.0
C4072 C 0.17702 0.21568 0.83634 0.0
C4073 C 0.17946 0.23434 0.83564 0.0
C4074 C 0.1691 0.24495 0.853 0.0
C4075 C 0.15669 0.23757 0.87073 0.0
C4076 C 0.14756 0.25194 0.88767 0.0
C4077 C 0.12733 0.25213 0.88233 0.0
C4078 C 0.15169 0.24953 0.91837 0.0
C4079 C 0.1565 0.26859 0.87628 0.0
C4080 C 0.16884 0.26426 0.85625 0.0
C4081 C 0.17834 0.27741 0.84209 0.0
C4082 C 0.17514 0.29547 0.84857 0.0
C4083 C 0.16266 0.30018 0.86918 0.0
C4084 C 0.15332 0.28652 0.88327 0.0
H4085 H 0.45592 0.42156 0.63337 0.0
H4086 H 0.44051 0.38222 0.57201 0.0
H4087 H 0.4721 0.37808 0.55944 0.0
H4088 H 0.49226 0.44145 0.59404 0.0
H4089 H 0.50633 0.44465 0.62364 0.0
H4090 H 0.4824 0.44503 0.62735 0.0
H4091 H 0.48441 0.41996 0.66408 0.0
H4092 H 0.50832 0.41945 0.66039 0.0
H4093 H 0.49553 0.39918 0.65582 0.0
H4094 H 0.50515 0.37699 0.55489 0.0
H4095 H 0.53783 0.37985 0.55736 0.0
H4096 H 0.53224 0.42053 0.62071 0.0
C4097 C 0.45921 0.41212 0.61724 0.0
C4098 C 0.4457 0.40233 0.60351 0.0
C4099 C 0.45056 0.39014 0.58245 0.0
C4100 C 0.46848 0.38758 0.57529 0.0
C4101 C 0.48144 0.39736 0.58927 0.0
C4102 C 0.47708 0.40947 0.60968 0.0
C4103 C 0.4937 0.41817 0.62152 0.0
C4104 C 0.49367 0.43853 0.61631 0.0
C4105 C 0.4956 0.41393 0.65228 0.0
C4106 C 0.50805 0.40886 0.60479 0.0
C4107 C 0.50064 0.39692 0.58633 0.0
C4108 C 0.51112 0.38645 0.56901 0.0
C4109 C 0.5297 0.38828 0.57045 0.0
C4110 C 0.5377 0.40057 0.58898 0.0
C4111 C 0.52662 0.41095 0.6064 0.0
H4112 H 0.14724 0.06751 0.57044 0.0
H4113 H 0.19117 0.10337 0.55109 0.0
H4114 H 0.19902 0.10495 0.60015 0.0
H4115 H 0.13338 0.08977 0.62996 0.0
H4116 H 0.12765 0.06975 0.64879 0.0
H4117 H 0.1267 0.06974 0.6119 0.0
H4118 H 0.14815 0.04245 0.61041 0.0
H4119 H 0.14915 0.04235 0.64737 0.0
H4120 H 0.16943 0.04377 0.62757 0.0
H4121 H 0.20031 0.10508 0.6514 0.0
H4122 H 0.19497 0.10374 0.70122 0.0
H4123 H 0.15053 0.06735 0.68756 0.0
C4124 C 0.15861 0.07556 0.57649 0.0
C4125 C 0.16866 0.08521 0.55685 0.0
C4126 C 0.18347 0.09557 0.56564 0.0
C4127 C 0.188 0.09662 0.5935 0.0
C4128 C 0.17767 0.08714 0.61233 0.0
C4129 C 0.16334 0.07673 0.60422 0.0
C4130 C 0.15383 0.06868 0.62874 0.0
C4131 C 0.13423 0.07486 0.62991 0.0
C4132 C 0.15523 0.04809 0.6285 0.0
C4133 C 0.16468 0.0767 0.65193 0.0
C4134 C 0.17849 0.08714 0.64201 0.0
C4135 C 0.18974 0.09669 0.65945 0.0
C4136 C 0.18665 0.09574 0.68778 0.0
C4137 C 0.1724 0.08533 0.69847 0.0
C4138 C 0.1615 0.07548 0.68015 0.0
H4139 H 0.15311 0.8967 0.81497 0.0
H4140 H 0.18835 0.94148 0.79778 0.0
H4141 H 0.19326 0.94571 0.8477 0.0
H4142 H 0.13212 0.91465 0.87383 0.0
H4143 H 0.13118 0.89357 0.89197 0.0
H4144 H 0.13112 0.89381 0.85504 0.0
H4145 H 0.15873 0.87282 0.85454 0.0
H4146 H 0.15889 0.87254 0.89151 0.0
H4147 H 0.17858 0.87929 0.87294 0.0
H4148 H 0.19292 0.94582 0.89982 0.0
H4149 H 0.18814 0.94132 0.94957 0.0
H4150 H 0.15328 0.89623 0.9319 0.0
C4151 C 0.16185 0.90741 0.82175 0.0
C4152 C 0.17027 0.91887 0.80265 0.0
C4153 C 0.18183 0.93255 0.81217 0.0
C4154 C 0.18466 0.93505 0.84043 0.0
C4155 C 0.17602 0.92357 0.85877 0.0
C4156 C 0.16497 0.90992 0.84976 0.0
C4157 C 0.15721 0.89945 0.87353 0.0
C4158 C 0.13669 0.90045 0.87359 0.0
C4159 C 0.16374 0.87987 0.8731 0.0
C4160 C 0.16517 0.90965 0.89742 0.0
C4161 C 0.17607 0.92345 0.88854 0.0
C4162 C 0.18449 0.93499 0.90698 0.0
C4163 C 0.18161 0.9324 0.93519 0.0
C4164 C 0.17039 0.91838 0.9447 0.0
C4165 C 0.1622 0.90685 0.92541 0.0
H4166 H 0.32208 0.89914 0.06722 0.0
H4167 H 0.34962 0.94936 0.05098 0.0
H4168 H 0.35121 0.95528 0.10065 0.0
H4169 H 0.29733 0.91395 0.12864 0.0
H4170 H 0.30032 0.89268 0.14569 0.0
H4171 H 0.29905 0.8936 0.10878 0.0
H4172 H 0.32952 0.87725 0.10533 0.0
H4173 H 0.33091 0.87633 0.14216 0.0
H4174 H 0.34868 0.88653 0.12268 0.0
H4175 H 0.35244 0.95439 0.15217 0.0
H4176 H 0.35303 0.9468 0.20148 0.0
H4177 H 0.32631 0.89636 0.18389 0.0
C4178 C 0.32829 0.91149 0.07401 0.0
C4179 C 0.33561 0.92382 0.055 0.0
C4180 C 0.34354 0.93985 0.06495 0.0
C4181 C 0.34462 0.9433 0.0932 0.0
C4182 C 0.3377 0.93062 0.11132 0.0
C4183 C 0.32962 0.91507 0.10212 0.0
C4184 C 0.32445 0.90298 0.12583 0.0
C4185 C 0.30408 0.90067 0.12732 0.0
C4186 C 0.33396 0.8847 0.12387 0.0
C4187 C 0.33134 0.91393 0.14975 0.0
C4188 C 0.33873 0.92993 0.141 0.0
C4189 C 0.34658 0.94195 0.15928 0.0
C4190 C 0.34699 0.93744 0.18724 0.0
C4191 C 0.33974 0.92097 0.19665 0.0
C4192 C 0.33168 0.9092 0.17753 0.0
H4193 H 0.34711 0.06991 0.43288 0.0
H4194 H 0.30783 0.11117 0.45048 0.0
H4195 H 0.301 0.11359 0.40105 0.0
H4196 H 0.36459 0.08951 0.37387 0.0
H4197 H 0.36782 0.06882 0.35531 0.0
H4198 H 0.36819 0.0688 0.39222 0.0
H4199 H 0.34317 0.04477 0.39306 0.0
H4200 H 0.34279 0.04464 0.35607 0.0
H4201 H 0.32257 0.04894 0.37502 0.0
H4202 H 0.30116 0.11421 0.34983 0.0
H4203 H 0.30727 0.11219 0.30041 0.0
H4204 H 0.34533 0.06926 0.31576 0.0
C4205 C 0.3369 0.07928 0.42633 0.0
C4206 C 0.32794 0.09032 0.44549 0.0
C4207 C 0.31466 0.1024 0.43619 0.0
C4208 C 0.31073 0.10391 0.40816 0.0
C4209 C 0.32006 0.09308 0.38976 0.0
C4210 C 0.33272 0.08085 0.39846 0.0
C4211 C 0.34144 0.07146 0.37436 0.0
C4212 C 0.36171 0.07486 0.37392 0.0
C4213 C 0.33723 0.05125 0.37465 0.0
C4214 C 0.33217 0.0808 0.35073 0.0
C4215 C 0.3198 0.09313 0.36008 0.0
C4216 C 0.31049 0.10429 0.34221 0.0
C4217 C 0.31399 0.10292 0.31405 0.0
C4218 C 0.32665 0.09039 0.30386 0.0
C4219 C 0.33562 0.07904 0.32264 0.0
H4220 H 0.8271 0.89567 0.3174 0.0
H4221 H 0.85659 0.94447 0.30008 0.0
H4222 H 0.85724 0.95158 0.34968 0.0
H4223 H 0.80063 0.91324 0.37543 0.0
H4224 H 0.80212 0.89244 0.39421 0.0
H4225 H 0.80233 0.89224 0.35722 0.0
H4226 H 0.83222 0.87471 0.35781 0.0
H4227 H 0.83213 0.8749 0.39473 0.0
H4228 H 0.85101 0.88381 0.37628 0.0
H4229 H 0.85638 0.9523 0.40117 0.0
H4230 H 0.85541 0.94592 0.45084 0.0
H4231 H 0.8266 0.89647 0.4346 0.0
C4232 C 0.83334 0.90804 0.32403 0.0
C4233 C 0.84169 0.91961 0.30497 0.0
C4234 C 0.85016 0.93544 0.31442 0.0
C4235 C 0.85049 0.93963 0.34249 0.0
C4236 C 0.84232 0.92782 0.3608 0.0
C4237 C 0.83393 0.91234 0.35196 0.0
C4238 C 0.82736 0.90122 0.37596 0.0
C4239 C 0.80689 0.89971 0.37568 0.0
C4240 C 0.83621 0.88256 0.3762 0.0
C4241 C 0.83374 0.91266 0.39969 0.0
C4242 C 0.84209 0.92808 0.39051 0.0
C4243 C 0.84969 0.94037 0.40861 0.0
C4244 C 0.84899 0.93667 0.43681 0.0
C4245 C 0.84087 0.92073 0.44664 0.0
C4246 C 0.83294 0.90874 0.42774 0.0
H4247 H 0.84732 0.10543 0.06533 0.0
H4248 H 0.81717 0.05649 0.05113 0.0
H4249 H 0.8132 0.05289 0.10119 0.0
H4250 H 0.87 0.09128 0.12493 0.0
H4251 H 0.86875 0.11277 0.14182 0.0
H4252 H 0.86891 0.11161 0.10492 0.0
H4253 H 0.83927 0.12954 0.10301 0.0
H4254 H 0.83908 0.13088 0.13992 0.0
H4255 H 0.82017 0.12158 0.12197 0.0
H4256 H 0.8136 0.05419 0.15325 0.0
H4257 H 0.81775 0.06061 0.20256 0.0
H4258 H 0.84582 0.1098 0.18167 0.0
C4259 C 0.83958 0.0941 0.07259 0.0
C4260 C 0.83255 0.08126 0.05417 0.0
C4261 C 0.8229 0.06641 0.06478 0.0
C4262 C 0.82047 0.06431 0.09318 0.0
C4263 C 0.82766 0.07722 0.11069 0.0
C4264 C 0.83692 0.09188 0.10074 0.0
C4265 C 0.84349 0.10379 0.12377 0.0
C4266 C 0.864 0.10492 0.12385 0.0
C4267 C 0.83499 0.12256 0.12206 0.0
C4268 C 0.83664 0.09345 0.1483 0.0
C4269 C 0.82756 0.07816 0.14042 0.0
C4270 C 0.82051 0.06625 0.15964 0.0
C4271 C 0.82285 0.07008 0.18763 0.0
C4272 C 0.8321 0.08574 0.19617 0.0
C4273 C 0.83891 0.09758 0.17603 0.0
H4274 H 0.64825 0.07411 0.81773 0.0
H4275 H 0.6968 0.1035 0.7994 0.0
H4276 H 0.70383 0.105 0.84891 0.0
H4277 H 0.63619 0.09806 0.87658 0.0
H4278 H 0.62796 0.07894 0.8954 0.0
H4279 H 0.62754 0.07881 0.85849 0.0
H4280 H 0.64578 0.04924 0.85801 0.0
H4281 H 0.64621 0.04924 0.895 0.0
H4282 H 0.66681 0.04821 0.87594 0.0
H4283 H 0.70376 0.1063 0.90039 0.0
H4284 H 0.69757 0.10546 0.95032 0.0
H4285 H 0.64988 0.07403 0.93512 0.0
C4286 C 0.66047 0.08065 0.82418 0.0
C4287 C 0.67203 0.08864 0.80482 0.0
C4288 C 0.6879 0.09709 0.81393 0.0
C4289 C 0.69196 0.09807 0.84198 0.0
C4290 C 0.68015 0.09028 0.86059 0.0
C4291 C 0.66485 0.08152 0.85207 0.0
C4292 C 0.65412 0.07476 0.8763 0.0
C4293 C 0.63535 0.08315 0.87671 0.0
C4294 C 0.65318 0.05413 0.87631 0.0
C4295 C 0.66547 0.08161 0.89979 0.0
C4296 C 0.68044 0.0905 0.8903 0.0
C4297 C 0.69226 0.09909 0.9081 0.0
C4298 C 0.68863 0.09861 0.93633 0.0
C4299 C 0.67341 0.08949 0.94641 0.0
C4300 C 0.66183 0.08074 0.9279 0.0
H4301 H 0.65785 0.88919 0.56291 0.0
H4302 H 0.67763 0.94307 0.54806 0.0
H4303 H 0.68044 0.94789 0.59812 0.0
H4304 H 0.63148 0.89992 0.62025 0.0
H4305 H 0.63604 0.87939 0.63855 0.0
H4306 H 0.63687 0.87971 0.60164 0.0
H4307 H 0.66928 0.86754 0.60278 0.0
H4308 H 0.6685 0.86702 0.63973 0.0
H4309 H 0.68598 0.87925 0.6225 0.0
H4310 H 0.67937 0.94732 0.64986 0.0
H4311 H 0.67477 0.9414 0.69921 0.0
H4312 H 0.6564 0.88756 0.67981 0.0
C4313 C 0.66316 0.90186 0.57017 0.0
C4314 C 0.66763 0.91573 0.55165 0.0
C4315 C 0.67407 0.9323 0.56195 0.0
C4316 C 0.67577 0.93512 0.5903 0.0
C4317 C 0.67098 0.92124 0.60802 0.0
C4318 C 0.66488 0.90491 0.59834 0.0
C4319 C 0.65982 0.89248 0.62164 0.0
C4320 C 0.63987 0.8876 0.62044 0.0
C4321 C 0.6716 0.87558 0.62166 0.0
C4322 C 0.66388 0.90442 0.64596 0.0
C4323 C 0.67036 0.92093 0.63772 0.0
C4324 C 0.6745 0.93437 0.65657 0.0
C4325 C 0.67192 0.93084 0.68458 0.0
C4326 C 0.66525 0.91399 0.69349 0.0
C4327 C 0.66132 0.90064 0.67377 0.0
H4328 H 0.64747 0.56886 0.06739 0.0
H4329 H 0.69433 0.60101 0.04907 0.0
H4330 H 0.70159 0.60228 0.09839 0.0
H4331 H 0.6344 0.59264 0.12547 0.0
H4332 H 0.62679 0.57338 0.14459 0.0
H4333 H 0.62654 0.57294 0.10768 0.0
H4334 H 0.64588 0.54407 0.10793 0.0
H4335 H 0.64614 0.54438 0.14492 0.0
H4336 H 0.66684 0.54397 0.12609 0.0
H4337 H 0.70199 0.60284 0.14974 0.0
H4338 H 0.69556 0.60258 0.19934 0.0
H4339 H 0.64855 0.56988 0.18445 0.0
C4340 C 0.65937 0.57601 0.07371 0.0
C4341 C 0.67038 0.58476 0.05431 0.0
C4342 C 0.68586 0.59392 0.06345 0.0
C4343 C 0.69007 0.59478 0.09146 0.0
C4344 C 0.67874 0.5863 0.11006 0.0
C4345 C 0.66377 0.57698 0.10157 0.0
C4346 C 0.65318 0.57003 0.12582 0.0
C4347 C 0.63411 0.57771 0.12588 0.0
C4348 C 0.65301 0.54939 0.12621 0.0
C4349 C 0.66417 0.57748 0.14928 0.0
C4350 C 0.67899 0.5866 0.13975 0.0
C4351 C 0.69061 0.59546 0.15748 0.0
C4352 C 0.68688 0.59515 0.18567 0.0
C4353 C 0.67161 0.58611 0.19589 0.0
C4354 C 0.6603 0.57696 0.17734 0.0
H4355 H 0.65033 0.43076 0.43213 0.0
H4356 H 0.69459 0.39492 0.44999 0.0
H4357 H 0.7026 0.39458 0.40098 0.0
H4358 H 0.63666 0.4087 0.37273 0.0
H4359 H 0.63027 0.42871 0.35438 0.0
H4360 H 0.62963 0.42842 0.39128 0.0
H4361 H 0.6504 0.45624 0.39281 0.0
H4362 H 0.65109 0.45663 0.35584 0.0
H4363 H 0.67156 0.45559 0.37521 0.0
H4364 H 0.70401 0.39558 0.34961 0.0
H4365 H 0.6981 0.39707 0.29986 0.0
H4366 H 0.65243 0.43152 0.31519 0.0
C4367 C 0.6618 0.42294 0.42585 0.0
C4368 C 0.67187 0.41296 0.44512 0.0
C4369 C 0.68685 0.40301 0.43587 0.0
C4370 C 0.69148 0.40266 0.40798 0.0
C4371 C 0.68104 0.41234 0.38954 0.0
C4372 C 0.66652 0.42231 0.39809 0.0
C4373 C 0.65659 0.43029 0.37391 0.0
C4374 C 0.63714 0.42362 0.37303 0.0
C4375 C 0.65747 0.45091 0.37448 0.0
C4376 C 0.66744 0.42273 0.35038 0.0
C4377 C 0.68167 0.41268 0.35983 0.0
C4378 C 0.69307 0.40363 0.34196 0.0
C4379 C 0.68965 0.40464 0.3137 0.0
C4380 C 0.67485 0.41449 0.30358 0.0
C4381 C 0.66383 0.42387 0.32226 0.0
H4382 H 0.84217 0.3891 0.68272 0.0
H4383 H 0.82137 0.4414 0.70498 0.0
H4384 H 0.81725 0.44872 0.65572 0.0
H4385 H 0.86641 0.40225 0.62439 0.0
H4386 H 0.86111 0.38257 0.60445 0.0
H4387 H 0.86154 0.38128 0.64132 0.0
H4388 H 0.82908 0.36923 0.6414 0.0
H4389 H 0.82855 0.37046 0.60447 0.0
H4390 H 0.81178 0.38189 0.62444 0.0
H4391 H 0.81844 0.45126 0.60397 0.0
H4392 H 0.82259 0.44793 0.5537 0.0
H4393 H 0.84041 0.39315 0.5656 0.0
C4394 C 0.83659 0.40202 0.67712 0.0
C4395 C 0.83211 0.41476 0.69739 0.0
C4396 C 0.82478 0.43149 0.68957 0.0
C4397 C 0.82243 0.43574 0.66173 0.0
C4398 C 0.82716 0.42294 0.64214 0.0
C4399 C 0.83383 0.40631 0.64952 0.0
C4400 C 0.83802 0.39497 0.62456 0.0
C4401 C 0.85796 0.38999 0.62363 0.0
C4402 C 0.82615 0.37814 0.62367 0.0
C4403 C 0.83317 0.40799 0.60193 0.0
C4404 C 0.82697 0.42408 0.61245 0.0
C4405 C 0.82292 0.43861 0.59549 0.0
C4406 C 0.82532 0.43664 0.56707 0.0
C4407 C 0.83145 0.4202 0.55602 0.0
C4408 C 0.83525 0.40569 0.57364 0.0
H4409 H 0.85253 0.56906 0.92922 0.0
H4410 H 0.80704 0.60311 0.94759 0.0
H4411 H 0.79904 0.60359 0.8985 0.0
H4412 H 0.86538 0.59112 0.86925 0.0
H4413 H 0.87204 0.57116 0.85098 0.0
H4414 H 0.87292 0.57162 0.88786 0.0
H4415 H 0.85271 0.5434 0.89002 0.0
H4416 H 0.85178 0.54284 0.85306 0.0
H4417 H 0.83143 0.54355 0.87276 0.0
H4418 H 0.79772 0.60293 0.84717 0.0
H4419 H 0.80331 0.60136 0.79738 0.0
H4420 H 0.84952 0.56752 0.81223 0.0
C4421 C 0.84079 0.57648 0.92296 0.0
C4422 C 0.83036 0.58596 0.94231 0.0
C4423 C 0.81506 0.59547 0.93326 0.0
C4424 C 0.81043 0.59588 0.90538 0.0
C4425 C 0.82116 0.58661 0.88682 0.0
C4426 C 0.83597 0.57701 0.89523 0.0
C4427 C 0.84589 0.56914 0.87097 0.0
C4428 C 0.86519 0.57619 0.8697 0.0
C4429 C 0.84542 0.54851 0.87176 0.0
C4430 C 0.83473 0.57638 0.84756 0.0
C4431 C 0.82038 0.58621 0.85715 0.0
C4432 C 0.80873 0.595 0.8394 0.0
C4433 C 0.81196 0.59394 0.81111 0.0
C4434 C 0.82679 0.58422 0.8008 0.0
C4435 C 0.8381 0.5751 0.81939 0.0
H4436 H 0.32344 0.40248 0.81453 0.0
H4437 H 0.37103 0.43418 0.79816 0.0
H4438 H 0.37338 0.44126 0.84724 0.0
H4439 H 0.306 0.42903 0.8719 0.0
H4440 H 0.29904 0.40943 0.89079 0.0
H4441 H 0.29936 0.409 0.8538 0.0
H4442 H 0.31988 0.38099 0.85488 0.0
H4443 H 0.31962 0.38133 0.8918 0.0
H4444 H 0.34059 0.3819 0.87368 0.0
H4445 H 0.37204 0.44323 0.89831 0.0
H4446 H 0.36816 0.43832 0.94806 0.0
H4447 H 0.32307 0.40334 0.93179 0.0
C4448 C 0.33437 0.41094 0.82108 0.0
C4449 C 0.34692 0.41788 0.80208 0.0
C4450 C 0.36089 0.42905 0.81189 0.0
C4451 C 0.36244 0.43309 0.83988 0.0
C4452 C 0.35004 0.42575 0.85795 0.0
C4453 C 0.33634 0.41482 0.849 0.0
C4454 C 0.32577 0.40732 0.87292 0.0
C4455 C 0.30639 0.41411 0.87231 0.0
C4456 C 0.32652 0.38666 0.87334 0.0
C4457 C 0.33599 0.41536 0.89674 0.0
C4458 C 0.3497 0.42626 0.88762 0.0
C4459 C 0.36127 0.43485 0.90572 0.0
C4460 C 0.35892 0.43204 0.93391 0.0
C4461 C 0.34528 0.42053 0.94369 0.0
C4462 C 0.33359 0.41222 0.92482 0.0
H4463 H 0.35059 0.573 0.6809 0.0
H4464 H 0.30265 0.60424 0.69596 0.0
H4465 H 0.29585 0.60384 0.64646 0.0
H4466 H 0.36351 0.59553 0.62148 0.0
H4467 H 0.37193 0.57598 0.60393 0.0
H4468 H 0.3718 0.57666 0.64082 0.0
H4469 H 0.35343 0.54717 0.64211 0.0
H4470 H 0.3535 0.5464 0.60514 0.0
H4471 H 0.33265 0.54585 0.62357 0.0
H4472 H 0.29593 0.60289 0.59508 0.0
H4473 H 0.30276 0.60112 0.54555 0.0
H4474 H 0.35087 0.57095 0.56379 0.0
C4475 C 0.33856 0.5796 0.67385 0.0
C4476 C 0.32711 0.58856 0.69241 0.0
C4477 C 0.31146 0.59699 0.68228 0.0
C4478 C 0.30752 0.5969 0.65415 0.0
C4479 C 0.31927 0.58824 0.63639 0.0
C4480 C 0.33442 0.57964 0.64584 0.0
C4481 C 0.34546 0.57233 0.62231 0.0
C4482 C 0.36428 0.58063 0.62213 0.0
C4483 C 0.3463 0.55171 0.62335 0.0
C4484 C 0.33448 0.57871 0.59811 0.0
C4485 C 0.31932 0.58768 0.60669 0.0
C4486 C 0.30764 0.59571 0.58811 0.0
C4487 C 0.31169 0.59473 0.56005 0.0
C4488 C 0.3273 0.58584 0.55084 0.0
C4489 C 0.33865 0.57751 0.57018 0.0
H4490 H 0.17871 0.58749 0.43086 0.0
H4491 H 0.12181 0.58589 0.44661 0.0
H4492 H 0.11598 0.58222 0.39695 0.0
H4493 H 0.17604 0.61397 0.37132 0.0
H4494 H 0.19387 0.60286 0.35317 0.0
H4495 H 0.19377 0.60313 0.3901 0.0
H4496 H 0.19546 0.56838 0.39091 0.0
H4497 H 0.19561 0.568 0.35392 0.0
H4498 H 0.17898 0.55546 0.37256 0.0
H4499 H 0.11616 0.58087 0.34608 0.0
H4500 H 0.12213 0.58319 0.29648 0.0
H4501 H 0.179 0.58636 0.31294 0.0
C4502 C 0.1651 0.58602 0.42372 0.0
C4503 C 0.15065 0.58678 0.44223 0.0
C4504 C 0.13296 0.58521 0.43247 0.0
C4505 C 0.12956 0.58308 0.40443 0.0
C4506 C 0.14404 0.58261 0.3865 0.0
C4507 C 0.16146 0.58407 0.39566 0.0
C4508 C 0.17444 0.58455 0.3718 0.0
C4509 C 0.18516 0.60218 0.3716 0.0
C4510 C 0.18686 0.56812 0.37234 0.0
C4511 C 0.16155 0.58362 0.34787 0.0
C4512 C 0.14411 0.58219 0.35687 0.0
C4513 C 0.12977 0.58174 0.33873 0.0
C4514 C 0.1333 0.58298 0.31059 0.0
C4515 C 0.15104 0.58477 0.30085 0.0
C4516 C 0.16532 0.58495 0.31981 0.0
H4517 H 0.14943 0.39343 0.18352 0.0
H4518 H 0.18827 0.43524 0.20033 0.0
H4519 H 0.19304 0.43922 0.15042 0.0
H4520 H 0.17202 0.37415 0.12544 0.0
H4521 H 0.15166 0.36952 0.10704 0.0
H4522 H 0.15165 0.36979 0.14401 0.0
H4523 H 0.12642 0.39362 0.14382 0.0
H4524 H 0.12628 0.39336 0.10688 0.0
H4525 H 0.1295 0.41422 0.12497 0.0
H4526 H 0.19301 0.43888 0.09834 0.0
H4527 H 0.1882 0.43431 0.04864 0.0
H4528 H 0.14876 0.39326 0.06673 0.0
C4529 C 0.15884 0.40354 0.17675 0.0
C4530 C 0.16843 0.41408 0.19582 0.0
C4531 C 0.18088 0.42691 0.18608 0.0
C4532 C 0.18363 0.42931 0.1578 0.0
C4533 C 0.17388 0.41871 0.13957 0.0
C4534 C 0.16175 0.40607 0.14871 0.0
C4535 C 0.15286 0.39644 0.12503 0.0
C4536 C 0.15732 0.37628 0.12541 0.0
C4537 C 0.13257 0.39961 0.12519 0.0
C4538 C 0.16171 0.40578 0.10107 0.0
C4539 C 0.17385 0.41852 0.10982 0.0
C4540 C 0.18352 0.42894 0.09128 0.0
C4541 C 0.18062 0.42632 0.06309 0.0
C4542 C 0.16811 0.4134 0.0537 0.0
C4543 C 0.15863 0.40302 0.07311 0.0
loop_
_geom_bond_atom_site_label_1
_geom_bond_atom_site_label_2
_geom_bond_distance
_geom_bond_site_symmetry_2
_ccdc_geom_bond_type
Li0 N17 1.990 . S
Li0 O60 1.956 . S
Li0 O61 1.970 . S
Li0 O62 1.961 . S
Li1 N25 1.990 . S
Li1 O60 1.970 . S
Li1 O61 1.956 . S
Li1 O63 1.961 . S
Li2 N47 1.990 . S
Li2 O60 1.961 . S
Li2 O62 1.956 . S
Li2 O63 1.970 . S
Li3 N53 1.990 . S
Li3 O61 1.961 . S
Li3 O62 1.970 . S
Li3 O63 1.956 . S
C4 C6 1.348 . S
C4 C7 1.356 . S
C4 O60 1.325 . S
N5 C8 1.314 . S
N5 C9 1.279 . S
C6 C4 1.348 . S
C6 C8 1.353 . S
C6 H64 0.929 . S
C7 C4 1.356 . S
C7 C9 1.358 . S
C7 H65 0.930 . S
C8 N5 1.314 . S
C8 C6 1.353 . S
C8 H66 0.930 . S
C9 N5 1.279 . S
C9 C7 1.358 . S
C9 H67 0.930 . S
C10 C13 1.348 . S
C10 C14 1.356 . S
C10 O61 1.325 . S
C11 N12 1.279 . S
C11 C14 1.358 . S
C11 H68 0.930 . S
N12 C11 1.279 . S
N12 C15 1.314 . S
C13 C10 1.348 . S
C13 C15 1.353 . S
C13 H69 0.929 . S
C14 C10 1.356 . S
C14 C11 1.358 . S
C14 H70 0.930 . S
C15 N12 1.314 . S
C15 C13 1.353 . S
C15 H71 0.930 . S
C16 N17 1.314 . S
C16 C21 1.353 . S
C16 H22 0.930 . S
N17 Li0 1.990 . S
N17 C16 1.314 . S
N17 C19 1.279 . S
C18 C19 1.358 . S
C18 C20 1.356 . S
C18 H72 0.930 . S
C19 N17 1.279 . S
C19 C18 1.358 . S
C19 H23 0.930 . S
C20 C18 1.356 . S
C20 C21 1.348 . S
C21 C16 1.353 . S
C21 C20 1.348 . S
C21 H73 0.929 . S
H22 C16 0.930 . S
H23 C19 0.930 . S
C24 N25 1.314 . S
C24 C26 1.353 . S
C24 H30 0.930 . S
N25 Li1 1.990 . S
N25 C24 1.314 . S
N25 C28 1.279 . S
C26 C24 1.353 . S
C26 C29 1.348 . S
C26 H74 0.929 . S
C27 C28 1.358 . S
C27 C29 1.356 . S
C27 H75 0.930 . S
C28 N25 1.279 . S
C28 C27 1.358 . S
C28 H31 0.930 . S
C29 C26 1.348 . S
C29 C27 1.356 . S
H30 C24 0.930 . S
H31 C28 0.930 . S
C32 C34 1.348 . S
C32 C35 1.356 . S
C32 O62 1.325 . S
N33 C36 1.314 . S
N33 C37 1.279 . S
C34 C32 1.348 . S
C34 C36 1.353 . S
C34 H76 0.929 . S
C35 C32 1.356 . S
C35 C37 1.358 . S
C35 H77 0.930 . S
C36 N33 1.314 . S
C36 C34 1.353 . S
C36 H78 0.930 . S
C37 N33 1.279 . S
C37 C35 1.358 . S
C37 H79 0.930 . S
C38 C39 1.348 . S
C38 C40 1.356 . S
C38 O63 1.325 . S
C39 C38 1.348 . S
C39 C41 1.353 . S
C39 H80 0.929 . S
C40 C38 1.356 . S
C40 C42 1.358 . S
C40 H81 0.930 . S
C41 C39 1.353 . S
C41 N43 1.314 . S
C41 H82 0.930 . S
C42 C40 1.358 . S
C42 N43 1.279 . S
C42 H83 0.930 . S
N43 C41 1.314 . S
N43 C42 1.279 . S
C44 C46 1.353 . S
C44 N47 1.314 . S
C44 H50 0.930 . S
C45 N47 1.279 . S
C45 C48 1.358 . S
C45 H51 0.930 . S
C46 C44 1.353 . S
C46 C49 1.348 . S
C46 H84 0.929 . S
N47 Li2 1.990 . S
N47 C44 1.314 . S
N47 C45 1.279 . S
C48 C45 1.358 . S
C48 C49 1.356 . S
C48 H85 0.930 . S
C49 C46 1.348 . S
C49 C48 1.356 . S
H50 C44 0.930 . S
H51 C45 0.930 . S
C52 N53 1.314 . S
C52 C54 1.353 . S
C52 H58 0.930 . S
N53 Li3 1.990 . S
N53 C52 1.314 . S
N53 C56 1.279 . S
C54 C52 1.353 . S
C54 C57 1.348 . S
C54 H86 0.929 . S
C55 C56 1.358 . S
C55 C57 1.356 . S
C55 H87 0.930 . S
C56 N53 1.279 . S
C56 C55 1.358 . S
C56 H59 0.930 . S
C57 C54 1.348 . S
C57 C55 1.356 . S
H58 C52 0.930 . S
H59 C56 0.930 . S
O60 Li0 1.956 . S
O60 Li1 1.970 . S
O60 Li2 1.961 . S
O60 C4 1.325 . S
O61 Li0 1.970 . S
O61 Li1 1.956 . S
O61 Li3 1.961 . S
O61 C10 1.325 . S
O62 Li0 1.961 . S
O62 Li2 1.956 . S
O62 Li3 1.970 . S
O62 C32 1.325 . S
O63 Li1 1.961 . S
O63 Li2 1.970 . S
O63 Li3 1.956 . S
O63 C38 1.325 . S
H64 C6 0.929 . S
H65 C7 0.930 . S
H66 C8 0.930 . S
H67 C9 0.930 . S
H68 C11 0.930 . S
H69 C13 0.929 . S
H70 C14 0.930 . S
H71 C15 0.930 . S
H72 C18 0.930 . S
H73 C21 0.929 . S
H74 C26 0.929 . S
H75 C27 0.930 . S
H76 C34 0.929 . S
H77 C35 0.930 . S
H78 C36 0.930 . S
H79 C37 0.930 . S
H80 C39 0.929 . S
H81 C40 0.930 . S
H82 C41 0.930 . S
H83 C42 0.930 . S
H84 C46 0.929 . S
H85 C48 0.930 . S
H86 C54 0.929 . S
H87 C55 0.930 . S
Li88 N105 1.990 . S
Li88 O148 1.956 . S
Li88 O149 1.970 . S
Li88 O150 1.961 . S
Li89 N113 1.990 . S
Li89 O148 1.970 . S
Li89 O149 1.956 . S
Li89 O151 1.961 . S
Li90 N135 1.990 . S
Li90 O148 1.961 . S
Li90 O150 1.956 . S
Li90 O151 1.970 . S
Li91 N141 1.990 . S
Li91 O149 1.961 . S
Li91 O150 1.970 . S
Li91 O151 1.956 . S
C92 C94 1.348 . S
C92 C95 1.356 . S
C92 O148 1.325 . S
N93 C96 1.314 . S
N93 C97 1.279 . S
C94 C92 1.348 . S
C94 C96 1.353 . S
C94 H152 0.929 . S
C95 C92 1.356 . S
C95 C97 1.358 . S
C95 H153 0.930 . S
C96 N93 1.314 . S
C96 C94 1.353 . S
C96 H154 0.930 . S
C97 N93 1.279 . S
C97 C95 1.358 . S
C97 H155 0.930 . S
C98 C101 1.348 . S
C98 C102 1.356 . S
C98 O149 1.325 . S
C99 N100 1.279 . S
C99 C102 1.358 . S
C99 H156 0.930 . S
N100 C99 1.279 . S
N100 C103 1.314 . S
C101 C98 1.348 . S
C101 C103 1.353 . S
C101 H157 0.929 . S
C102 C98 1.356 . S
C102 C99 1.358 . S
C102 H158 0.930 . S
C103 N100 1.314 . S
C103 C101 1.353 . S
C103 H159 0.930 . S
C104 N105 1.314 . S
C104 C109 1.353 . S
C104 H110 0.930 . S
N105 Li88 1.990 . S
N105 C104 1.314 . S
N105 C107 1.279 . S
C106 C107 1.358 . S
C106 C108 1.356 . S
C106 H160 0.930 . S
C107 N105 1.279 . S
C107 C106 1.358 . S
C107 H111 0.930 . S
C108 C106 1.356 . S
C108 C109 1.348 . S
C109 C104 1.353 . S
C109 C108 1.348 . S
C109 H161 0.929 . S
H110 C104 0.930 . S
H111 C107 0.930 . S
C112 N113 1.314 . S
C112 C114 1.353 . S
C112 H118 0.930 . S
N113 Li89 1.990 . S
N113 C112 1.314 . S
N113 C116 1.279 . S
C114 C112 1.353 . S
C114 C117 1.348 . S
C114 H162 0.929 . S
C115 C116 1.358 . S
C115 C117 1.356 . S
C115 H163 0.930 . S
C116 N113 1.279 . S
C116 C115 1.358 . S
C116 H119 0.930 . S
C117 C114 1.348 . S
C117 C115 1.356 . S
H118 C112 0.930 . S
H119 C116 0.930 . S
C120 C122 1.348 . S
C120 C123 1.356 . S
C120 O150 1.325 . S
N121 C124 1.314 . S
N121 C125 1.279 . S
C122 C120 1.348 . S
C122 C124 1.353 . S
C122 H164 0.929 . S
C123 C120 1.356 . S
C123 C125 1.358 . S
C123 H165 0.930 . S
C124 N121 1.314 . S
C124 C122 1.353 . S
C124 H166 0.930 . S
C125 N121 1.279 . S
C125 C123 1.358 . S
C125 H167 0.930 . S
C126 C127 1.348 . S
C126 C128 1.356 . S
C126 O151 1.325 . S
C127 C126 1.348 . S
C127 C129 1.353 . S
C127 H168 0.929 . S
C128 C126 1.356 . S
C128 C130 1.358 . S
C128 H169 0.930 . S
C129 C127 1.353 . S
C129 N131 1.314 . S
C129 H170 0.930 . S
C130 C128 1.358 . S
C130 N131 1.279 . S
C130 H171 0.930 . S
N131 C129 1.314 . S
N131 C130 1.279 . S
C132 C134 1.353 . S
C132 N135 1.314 . S
C132 H138 0.930 . S
C133 N135 1.279 . S
C133 C136 1.358 . S
C133 H139 0.930 . S
C134 C132 1.353 . S
C134 C137 1.348 . S
C134 H172 0.929 . S
N135 Li90 1.990 . S
N135 C132 1.314 . S
N135 C133 1.279 . S
C136 C133 1.358 . S
C136 C137 1.356 . S
C136 H173 0.930 . S
C137 C134 1.348 . S
C137 C136 1.356 . S
H138 C132 0.930 . S
H139 C133 0.930 . S
C140 N141 1.314 . S
C140 C142 1.353 . S
C140 H146 0.930 . S
N141 Li91 1.990 . S
N141 C140 1.314 . S
N141 C144 1.279 . S
C142 C140 1.353 . S
C142 C145 1.348 . S
C142 H174 0.929 . S
C143 C144 1.358 . S
C143 C145 1.356 . S
C143 H175 0.930 . S
C144 N141 1.279 . S
C144 C143 1.358 . S
C144 H147 0.930 . S
C145 C142 1.348 . S
C145 C143 1.356 . S
H146 C140 0.930 . S
H147 C144 0.930 . S
O148 Li88 1.956 . S
O148 Li89 1.970 . S
O148 Li90 1.961 . S
O148 C92 1.325 . S
O149 Li88 1.970 . S
O149 Li89 1.956 . S
O149 Li91 1.961 . S
O149 C98 1.325 . S
O150 Li88 1.961 . S
O150 Li90 1.956 . S
O150 Li91 1.970 . S
O150 C120 1.325 . S
O151 Li89 1.961 . S
O151 Li90 1.970 . S
O151 Li91 1.956 . S
O151 C126 1.325 . S
H152 C94 0.929 . S
H153 C95 0.930 . S
H154 C96 0.930 . S
H155 C97 0.930 . S
H156 C99 0.930 . S
H157 C101 0.929 . S
H158 C102 0.930 . S
H159 C103 0.930 . S
H160 C106 0.930 . S
H161 C109 0.929 . S
H162 C114 0.929 . S
H163 C115 0.930 . S
H164 C122 0.929 . S
H165 C123 0.930 . S
H166 C124 0.930 . S
H167 C125 0.930 . S
H168 C127 0.929 . S
H169 C128 0.930 . S
H170 C129 0.930 . S
H171 C130 0.930 . S
H172 C134 0.929 . S
H173 C136 0.930 . S
H174 C142 0.929 . S
H175 C143 0.930 . S
Li176 N193 1.990 . S
Li176 O236 1.956 . S
Li176 O237 1.970 . S
Li176 O238 1.961 . S
Li177 N201 1.990 . S
Li177 O236 1.970 . S
Li177 O237 1.956 . S
Li177 O239 1.961 . S
Li178 N223 1.990 . S
Li178 O236 1.961 . S
Li178 O238 1.956 . S
Li178 O239 1.970 . S
Li179 N229 1.990 . S
Li179 O237 1.961 . S
Li179 O238 1.970 . S
Li179 O239 1.956 . S
C180 C182 1.348 . S
C180 C183 1.356 . S
C180 O236 1.325 . S
N181 C184 1.314 . S
N181 C185 1.279 . S
C182 C180 1.348 . S
C182 C184 1.353 . S
C182 H240 0.929 . S
C183 C180 1.356 . S
C183 C185 1.358 . S
C183 H241 0.930 . S
C184 N181 1.314 . S
C184 C182 1.353 . S
C184 H242 0.930 . S
C185 N181 1.279 . S
C185 C183 1.358 . S
C185 H243 0.930 . S
C186 C189 1.348 . S
C186 C190 1.356 . S
C186 O237 1.325 . S
C187 N188 1.279 . S
C187 C190 1.358 . S
C187 H244 0.930 . S
N188 C187 1.279 . S
N188 C191 1.314 . S
C189 C186 1.348 . S
C189 C191 1.353 . S
C189 H245 0.929 . S
C190 C186 1.356 . S
C190 C187 1.358 . S
C190 H246 0.930 . S
C191 N188 1.314 . S
C191 C189 1.353 . S
C191 H247 0.930 1_556 S
C192 N193 1.314 . S
C192 C197 1.353 1_556 S
C192 H198 0.930 . S
N193 Li176 1.990 . S
N193 C192 1.314 . S
N193 C195 1.279 . S
C194 C195 1.358 1_554 S
C194 C196 1.356 . S
C194 H248 0.930 . S
C195 N193 1.279 . S
C195 C194 1.358 1_556 S
C195 H199 0.930 . S
C196 C194 1.356 . S
C196 C197 1.348 . S
C197 C192 1.353 1_554 S
C197 C196 1.348 . S
C197 H249 0.929 . S
H198 C192 0.930 . S
H199 C195 0.930 . S
C200 N201 1.314 . S
C200 C202 1.353 . S
C200 H206 0.930 . S
N201 Li177 1.990 . S
N201 C200 1.314 . S
N201 C204 1.279 . S
C202 C200 1.353 . S
C202 C205 1.348 . S
C202 H250 0.929 . S
C203 C204 1.358 . S
C203 C205 1.356 . S
C203 H251 0.930 . S
C204 N201 1.279 . S
C204 C203 1.358 . S
C204 H207 0.930 . S
C205 C202 1.348 . S
C205 C203 1.356 . S
H206 C200 0.930 . S
H207 C204 0.930 . S
C208 C210 1.348 . S
C208 C211 1.356 . S
C208 O238 1.325 . S
N209 C212 1.314 . S
N209 C213 1.279 . S
C210 C208 1.348 . S
C210 C212 1.353 . S
C210 H252 0.929 . S
C211 C208 1.356 . S
C211 C213 1.358 . S
C211 H253 0.930 . S
C212 N209 1.314 . S
C212 C210 1.353 . S
C212 H254 0.930 . S
C213 N209 1.279 . S
C213 C211 1.358 . S
C213 H255 0.930 . S
C214 C215 1.348 . S
C214 C216 1.356 . S
C214 O239 1.325 . S
C215 C214 1.348 . S
C215 C217 1.353 . S
C215 H256 0.929 . S
C216 C214 1.356 . S
C216 C218 1.358 . S
C216 H257 0.930 . S
C217 C215 1.353 . S
C217 N219 1.314 . S
C217 H258 0.930 . S
C218 C216 1.358 . S
C218 N219 1.279 . S
C218 H259 0.930 . S
N219 C217 1.314 . S
N219 C218 1.279 . S
C220 C222 1.353 . S
C220 N223 1.314 . S
C220 H226 0.930 . S
C221 N223 1.279 . S
C221 C224 1.358 . S
C221 H227 0.930 . S
C222 C220 1.353 . S
C222 C225 1.348 . S
C222 H260 0.929 . S
N223 Li178 1.990 . S
N223 C220 1.314 . S
N223 C221 1.279 . S
C224 C221 1.358 . S
C224 C225 1.356 . S
C224 H261 0.930 . S
C225 C222 1.348 . S
C225 C224 1.356 . S
H226 C220 0.930 . S
H227 C221 0.930 . S
C228 N229 1.314 . S
C228 C230 1.353 . S
C228 H234 0.930 . S
N229 Li179 1.990 . S
N229 C228 1.314 . S
N229 C232 1.279 . S
C230 C228 1.353 . S
C230 C233 1.348 . S
C230 H262 0.929 . S
C231 C232 1.358 . S
C231 C233 1.356 . S
C231 H263 0.930 . S
C232 N229 1.279 . S
C232 C231 1.358 . S
C232 H235 0.930 . S
C233 C230 1.348 . S
C233 C231 1.356 . S
H234 C228 0.930 . S
H235 C232 0.930 . S
O236 Li176 1.956 . S
O236 Li177 1.970 . S
O236 Li178 1.961 . S
O236 C180 1.325 . S
O237 Li176 1.970 . S
O237 Li177 1.956 . S
O237 Li179 1.961 . S
O237 C186 1.325 . S
O238 Li176 1.961 . S
O238 Li178 1.956 . S
O238 Li179 1.970 . S
O238 C208 1.325 . S
O239 Li177 1.961 . S
O239 Li178 1.970 . S
O239 Li179 1.956 . S
O239 C214 1.325 . S
H240 C182 0.929 . S
H241 C183 0.930 . S
H242 C184 0.930 . S
H243 C185 0.930 . S
H244 C187 0.930 . S
H245 C189 0.929 . S
H246 C190 0.930 . S
H247 C191 0.930 1_554 S
H248 C194 0.930 . S
H249 C197 0.929 . S
H250 C202 0.929 . S
H251 C203 0.930 . S
H252 C210 0.929 . S
H253 C211 0.930 . S
H254 C212 0.930 . S
H255 C213 0.930 . S
H256 C215 0.929 . S
H257 C216 0.930 . S
H258 C217 0.930 . S
H259 C218 0.930 . S
H260 C222 0.929 . S
H261 C224 0.930 . S
H262 C230 0.929 . S
H263 C231 0.930 . S
Li264 N281 1.990 . S
Li264 O324 1.956 . S
Li264 O325 1.970 . S
Li264 O326 1.961 . S
Li265 N289 1.990 . S
Li265 O324 1.970 . S
Li265 O325 1.956 . S
Li265 O327 1.961 . S
Li266 N311 1.990 . S
Li266 O324 1.961 . S
Li266 O326 1.956 . S
Li266 O327 1.970 . S
Li267 N317 1.990 . S
Li267 O325 1.961 . S
Li267 O326 1.970 . S
Li267 O327 1.956 . S
C268 C270 1.348 . S
C268 C271 1.356 . S
C268 O324 1.325 . S
N269 C272 1.314 . S
N269 C273 1.279 . S
C270 C268 1.348 . S
C270 C272 1.353 . S
C270 H328 0.929 . S
C271 C268 1.356 . S
C271 C273 1.358 . S
C271 H329 0.930 . S
C272 N269 1.314 . S
C272 C270 1.353 . S
C272 H330 0.930 . S
C273 N269 1.279 . S
C273 C271 1.358 . S
C273 H331 0.930 . S
C274 C277 1.348 . S
C274 C278 1.356 . S
C274 O325 1.325 . S
C275 N276 1.279 . S
C275 C278 1.358 . S
C275 H332 0.930 . S
N276 C275 1.279 . S
N276 C279 1.314 . S
C277 C274 1.348 . S
C277 C279 1.353 . S
C277 H333 0.929 . S
C278 C274 1.356 . S
C278 C275 1.358 . S
C278 H334 0.930 . S
C279 N276 1.314 . S
C279 C277 1.353 . S
C279 H335 0.930 . S
C280 N281 1.314 . S
C280 C285 1.353 . S
C280 H286 0.930 . S
N281 Li264 1.990 . S
N281 C280 1.314 . S
N281 C283 1.279 . S
C282 C283 1.358 . S
C282 C284 1.356 . S
C282 H336 0.930 . S
C283 N281 1.279 . S
C283 C282 1.358 . S
C283 H287 0.930 . S
C284 C282 1.356 . S
C284 C285 1.348 . S
C285 C280 1.353 . S
C285 C284 1.348 . S
C285 H337 0.929 . S
H286 C280 0.930 . S
H287 C283 0.930 . S
C288 N289 1.314 . S
C288 C290 1.353 . S
C288 H294 0.930 . S
N289 Li265 1.990 . S
N289 C288 1.314 . S
N289 C292 1.279 . S
C290 C288 1.353 . S
C290 C293 1.348 . S
C290 H338 0.929 . S
C291 C292 1.358 . S
C291 C293 1.356 . S
C291 H339 0.930 . S
C292 N289 1.279 . S
C292 C291 1.358 . S
C292 H295 0.930 . S
C293 C290 1.348 . S
C293 C291 1.356 . S
H294 C288 0.930 . S
H295 C292 0.930 . S
C296 C298 1.348 . S
C296 C299 1.356 . S
C296 O326 1.325 . S
N297 C300 1.314 . S
N297 C301 1.279 . S
C298 C296 1.348 . S
C298 C300 1.353 . S
C298 H340 0.929 . S
C299 C296 1.356 . S
C299 C301 1.358 . S
C299 H341 0.930 . S
C300 N297 1.314 . S
C300 C298 1.353 . S
C300 H342 0.930 . S
C301 N297 1.279 . S
C301 C299 1.358 . S
C301 H343 0.930 . S
C302 C303 1.348 . S
C302 C304 1.356 . S
C302 O327 1.325 . S
C303 C302 1.348 . S
C303 C305 1.353 . S
C303 H344 0.929 . S
C304 C302 1.356 . S
C304 C306 1.358 . S
C304 H345 0.930 . S
C305 C303 1.353 . S
C305 N307 1.314 . S
C305 H346 0.930 . S
C306 C304 1.358 . S
C306 N307 1.279 . S
C306 H347 0.930 . S
N307 C305 1.314 . S
N307 C306 1.279 . S
C308 C310 1.353 . S
C308 N311 1.314 . S
C308 H314 0.930 . S
C309 N311 1.279 . S
C309 C312 1.358 . S
C309 H315 0.930 . S
C310 C308 1.353 . S
C310 C313 1.348 . S
C310 H348 0.929 . S
N311 Li266 1.990 . S
N311 C308 1.314 . S
N311 C309 1.279 . S
C312 C309 1.358 . S
C312 C313 1.356 . S
C312 H349 0.930 . S
C313 C310 1.348 . S
C313 C312 1.356 . S
H314 C308 0.930 . S
H315 C309 0.930 . S
C316 N317 1.314 . S
C316 C318 1.353 . S
C316 H322 0.930 . S
N317 Li267 1.990 . S
N317 C316 1.314 . S
N317 C320 1.279 . S
C318 C316 1.353 . S
C318 C321 1.348 . S
C318 H350 0.929 . S
C319 C320 1.358 . S
C319 C321 1.356 . S
C319 H351 0.930 . S
C320 N317 1.279 . S
C320 C319 1.358 . S
C320 H323 0.930 . S
C321 C318 1.348 . S
C321 C319 1.356 . S
H322 C316 0.930 . S
H323 C320 0.930 . S
O324 Li264 1.956 . S
O324 Li265 1.970 . S
O324 Li266 1.961 . S
O324 C268 1.325 . S
O325 Li264 1.970 . S
O325 Li265 1.956 . S
O325 Li267 1.961 . S
O325 C274 1.325 . S
O326 Li264 1.961 . S
O326 Li266 1.956 . S
O326 Li267 1.970 . S
O326 C296 1.325 . S
O327 Li265 1.961 . S
O327 Li266 1.970 . S
O327 Li267 1.956 . S
O327 C302 1.325 . S
H328 C270 0.929 . S
H329 C271 0.930 . S
H330 C272 0.930 . S
H331 C273 0.930 . S
H332 C275 0.930 . S
H333 C277 0.929 . S
H334 C278 0.930 . S
H335 C279 0.930 . S
H336 C282 0.930 . S
H337 C285 0.929 . S
H338 C290 0.929 . S
H339 C291 0.930 . S
H340 C298 0.929 . S
H341 C299 0.930 . S
H342 C300 0.930 . S
H343 C301 0.930 . S
H344 C303 0.929 . S
H345 C304 0.930 . S
H346 C305 0.930 . S
H347 C306 0.930 . S
H348 C310 0.929 . S
H349 C312 0.930 . S
H350 C318 0.929 . S
H351 C319 0.930 . S
Li352 N369 1.990 . S
Li352 O412 1.956 . S
Li352 O413 1.970 . S
Li352 O414 1.961 . S
Li353 N377 1.990 . S
Li353 O412 1.970 . S
Li353 O413 1.956 . S
Li353 O415 1.961 . S
Li354 N399 1.990 . S
Li354 O412 1.961 . S
Li354 O414 1.956 . S
Li354 O415 1.970 . S
Li355 N405 1.990 . S
Li355 O413 1.961 . S
Li355 O414 1.970 . S
Li355 O415 1.956 . S
C356 C358 1.348 . S
C356 C359 1.356 . S
C356 O412 1.325 . S
N357 C360 1.314 . S
N357 C361 1.279 . S
C358 C356 1.348 . S
C358 C360 1.353 . S
C358 H416 0.929 . S
C359 C356 1.356 . S
C359 C361 1.358 . S
C359 H417 0.930 . S
C360 N357 1.314 . S
C360 C358 1.353 . S
C360 H418 0.930 . S
C361 N357 1.279 . S
C361 C359 1.358 . S
C361 H419 0.930 . S
C362 C365 1.348 . S
C362 C366 1.356 . S
C362 O413 1.325 . S
C363 N364 1.279 . S
C363 C366 1.358 . S
C363 H420 0.930 . S
N364 C363 1.279 . S
N364 C367 1.314 . S
C365 C362 1.348 . S
C365 C367 1.353 . S
C365 H421 0.929 . S
C366 C362 1.356 . S
C366 C363 1.358 . S
C366 H422 0.930 . S
C367 N364 1.314 . S
C367 C365 1.353 . S
C367 H423 0.930 . S
C368 N369 1.314 . S
C368 C373 1.353 . S
C368 H374 0.930 . S
N369 Li352 1.990 . S
N369 C368 1.314 . S
N369 C371 1.279 . S
C370 C371 1.358 . S
C370 C372 1.356 . S
C370 H424 0.930 . S
C371 N369 1.279 . S
C371 C370 1.358 . S
C371 H375 0.930 . S
C372 C370 1.356 . S
C372 C373 1.348 . S
C373 C368 1.353 . S
C373 C372 1.348 . S
C373 H425 0.929 . S
H374 C368 0.930 . S
H375 C371 0.930 . S
C376 N377 1.314 . S
C376 C378 1.353 . S
C376 H382 0.930 . S
N377 Li353 1.990 . S
N377 C376 1.314 . S
N377 C380 1.279 . S
C378 C376 1.353 . S
C378 C381 1.348 . S
C378 H426 0.929 . S
C379 C380 1.358 . S
C379 C381 1.356 . S
C379 H427 0.930 . S
C380 N377 1.279 . S
C380 C379 1.358 . S
C380 H383 0.930 . S
C381 C378 1.348 . S
C381 C379 1.356 . S
H382 C376 0.930 . S
H383 C380 0.930 . S
C384 C386 1.348 . S
C384 C387 1.356 . S
C384 O414 1.325 . S
N385 C388 1.314 . S
N385 C389 1.279 . S
C386 C384 1.348 . S
C386 C388 1.353 . S
C386 H428 0.929 . S
C387 C384 1.356 . S
C387 C389 1.358 . S
C387 H429 0.930 . S
C388 N385 1.314 . S
C388 C386 1.353 . S
C388 H430 0.930 . S
C389 N385 1.279 . S
C389 C387 1.358 . S
C389 H431 0.930 . S
C390 C391 1.348 . S
C390 C392 1.356 . S
C390 O415 1.325 . S
C391 C390 1.348 . S
C391 C393 1.353 . S
C391 H432 0.929 . S
C392 C390 1.356 . S
C392 C394 1.358 . S
C392 H433 0.930 . S
C393 C391 1.353 . S
C393 N395 1.314 . S
C393 H434 0.930 1_554 S
C394 C392 1.358 . S
C394 N395 1.279 . S
C394 H435 0.930 . S
N395 C393 1.314 . S
N395 C394 1.279 . S
C396 C398 1.353 1_554 S
C396 N399 1.314 . S
C396 H402 0.930 . S
C397 N399 1.279 . S
C397 C400 1.358 1_554 S
C397 H403 0.930 . S
C398 C396 1.353 1_556 S
C398 C401 1.348 . S
C398 H436 0.929 . S
N399 Li354 1.990 . S
N399 C396 1.314 . S
N399 C397 1.279 . S
C400 C397 1.358 1_556 S
C400 C401 1.356 . S
C400 H437 0.930 . S
C401 C398 1.348 . S
C401 C400 1.356 . S
H402 C396 0.930 . S
H403 C397 0.930 . S
C404 N405 1.314 . S
C404 C406 1.353 . S
C404 H410 0.930 . S
N405 Li355 1.990 . S
N405 C404 1.314 . S
N405 C408 1.279 . S
C406 C404 1.353 . S
C406 C409 1.348 . S
C406 H438 0.929 . S
C407 C408 1.358 . S
C407 C409 1.356 . S
C407 H439 0.930 . S
C408 N405 1.279 . S
C408 C407 1.358 . S
C408 H411 0.930 . S
C409 C406 1.348 . S
C409 C407 1.356 . S
H410 C404 0.930 . S
H411 C408 0.930 . S
O412 Li352 1.956 . S
O412 Li353 1.970 . S
O412 Li354 1.961 . S
O412 C356 1.325 . S
O413 Li352 1.970 . S
O413 Li353 1.956 . S
O413 Li355 1.961 . S
O413 C362 1.325 . S
O414 Li352 1.961 . S
O414 Li354 1.956 . S
O414 Li355 1.970 . S
O414 C384 1.325 . S
O415 Li353 1.961 . S
O415 Li354 1.970 . S
O415 Li355 1.956 . S
O415 C390 1.325 . S
H416 C358 0.929 . S
H417 C359 0.930 . S
H418 C360 0.930 . S
H419 C361 0.930 . S
H420 C363 0.930 . S
H421 C365 0.929 . S
H422 C366 0.930 . S
H423 C367 0.930 . S
H424 C370 0.930 . S
H425 C373 0.929 . S
H426 C378 0.929 . S
H427 C379 0.930 . S
H428 C386 0.929 . S
H429 C387 0.930 . S
H430 C388 0.930 . S
H431 C389 0.930 . S
H432 C391 0.929 . S
H433 C392 0.930 . S
H434 C393 0.930 1_556 S
H435 C394 0.930 . S
H436 C398 0.929 . S
H437 C400 0.930 . S
H438 C406 0.929 . S
H439 C407 0.930 . S
Li440 N457 1.990 . S
Li440 O500 1.956 . S
Li440 O501 1.970 . S
Li440 O502 1.961 . S
Li441 N465 1.990 . S
Li441 O500 1.970 . S
Li441 O501 1.956 . S
Li441 O503 1.961 . S
Li442 N487 1.990 . S
Li442 O500 1.961 . S
Li442 O502 1.956 . S
Li442 O503 1.970 . S
Li443 N493 1.990 . S
Li443 O501 1.961 . S
Li443 O502 1.970 . S
Li443 O503 1.956 . S
C444 C446 1.348 . S
C444 C447 1.356 . S
C444 O500 1.325 . S
N445 C448 1.314 . S
N445 C449 1.279 . S
C446 C444 1.348 . S
C446 C448 1.353 . S
C446 H504 0.929 . S
C447 C444 1.356 . S
C447 C449 1.358 . S
C447 H505 0.930 . S
C448 N445 1.314 . S
C448 C446 1.353 . S
C448 H506 0.930 . S
C449 N445 1.279 . S
C449 C447 1.358 . S
C449 H507 0.930 . S
C450 C453 1.348 . S
C450 C454 1.356 . S
C450 O501 1.325 . S
C451 N452 1.279 . S
C451 C454 1.358 . S
C451 H508 0.930 . S
N452 C451 1.279 . S
N452 C455 1.314 . S
C453 C450 1.348 . S
C453 C455 1.353 . S
C453 H509 0.929 . S
C454 C450 1.356 . S
C454 C451 1.358 . S
C454 H510 0.930 . S
C455 N452 1.314 . S
C455 C453 1.353 . S
C455 H511 0.930 . S
C456 N457 1.314 . S
C456 C461 1.353 . S
C456 H462 0.930 . S
N457 Li440 1.990 . S
N457 C456 1.314 . S
N457 C459 1.279 . S
C458 C459 1.358 . S
C458 C460 1.356 . S
C458 H512 0.930 . S
C459 N457 1.279 . S
C459 C458 1.358 . S
C459 H463 0.930 . S
C460 C458 1.356 . S
C460 C461 1.348 . S
C461 C456 1.353 . S
C461 C460 1.348 . S
C461 H513 0.929 . S
H462 C456 0.930 . S
H463 C459 0.930 . S
C464 N465 1.314 . S
C464 C466 1.353 . S
C464 H470 0.930 . S
N465 Li441 1.990 . S
N465 C464 1.314 . S
N465 C468 1.279 . S
C466 C464 1.353 . S
C466 C469 1.348 . S
C466 H514 0.929 . S
C467 C468 1.358 . S
C467 C469 1.356 . S
C467 H515 0.930 . S
C468 N465 1.279 . S
C468 C467 1.358 . S
C468 H471 0.930 . S
C469 C466 1.348 . S
C469 C467 1.356 . S
H470 C464 0.930 . S
H471 C468 0.930 . S
C472 C474 1.348 . S
C472 C475 1.356 . S
C472 O502 1.325 . S
N473 C476 1.314 . S
N473 C477 1.279 . S
C474 C472 1.348 . S
C474 C476 1.353 . S
C474 H516 0.929 . S
C475 C472 1.356 . S
C475 C477 1.358 . S
C475 H517 0.930 . S
C476 N473 1.314 . S
C476 C474 1.353 . S
C476 H518 0.930 . S
C477 N473 1.279 . S
C477 C475 1.358 . S
C477 H519 0.930 . S
C478 C479 1.348 . S
C478 C480 1.356 . S
C478 O503 1.325 . S
C479 C478 1.348 . S
C479 C481 1.353 . S
C479 H520 0.929 . S
C480 C478 1.356 . S
C480 C482 1.358 . S
C480 H521 0.930 . S
C481 C479 1.353 . S
C481 N483 1.314 . S
C481 H522 0.930 . S
C482 C480 1.358 . S
C482 N483 1.279 . S
C482 H523 0.930 . S
N483 C481 1.314 . S
N483 C482 1.279 . S
C484 C486 1.353 . S
C484 N487 1.314 . S
C484 H490 0.930 . S
C485 N487 1.279 . S
C485 C488 1.358 . S
C485 H491 0.930 . S
C486 C484 1.353 . S
C486 C489 1.348 . S
C486 H524 0.929 . S
N487 Li442 1.990 . S
N487 C484 1.314 . S
N487 C485 1.279 . S
C488 C485 1.358 . S
C488 C489 1.356 . S
C488 H525 0.930 . S
C489 C486 1.348 . S
C489 C488 1.356 . S
H490 C484 0.930 . S
H491 C485 0.930 . S
C492 N493 1.314 . S
C492 C494 1.353 . S
C492 H498 0.930 . S
N493 Li443 1.990 . S
N493 C492 1.314 . S
N493 C496 1.279 . S
C494 C492 1.353 . S
C494 C497 1.348 . S
C494 H526 0.929 . S
C495 C496 1.358 . S
C495 C497 1.356 . S
C495 H527 0.930 . S
C496 N493 1.279 . S
C496 C495 1.358 . S
C496 H499 0.930 . S
C497 C494 1.348 . S
C497 C495 1.356 . S
H498 C492 0.930 . S
H499 C496 0.930 . S
O500 Li440 1.956 . S
O500 Li441 1.970 . S
O500 Li442 1.961 . S
O500 C444 1.325 . S
O501 Li440 1.970 . S
O501 Li441 1.956 . S
O501 Li443 1.961 . S
O501 C450 1.325 . S
O502 Li440 1.961 . S
O502 Li442 1.956 . S
O502 Li443 1.970 . S
O502 C472 1.325 . S
O503 Li441 1.961 . S
O503 Li442 1.970 . S
O503 Li443 1.956 . S
O503 C478 1.325 . S
H504 C446 0.929 . S
H505 C447 0.930 . S
H506 C448 0.930 . S
H507 C449 0.930 . S
H508 C451 0.930 . S
H509 C453 0.929 . S
H510 C454 0.930 . S
H511 C455 0.930 . S
H512 C458 0.930 . S
H513 C461 0.929 . S
H514 C466 0.929 . S
H515 C467 0.930 . S
H516 C474 0.929 . S
H517 C475 0.930 . S
H518 C476 0.930 . S
H519 C477 0.930 . S
H520 C479 0.929 . S
H521 C480 0.930 . S
H522 C481 0.930 . S
H523 C482 0.930 . S
H524 C486 0.929 . S
H525 C488 0.930 . S
H526 C494 0.929 . S
H527 C495 0.930 . S
Li528 N545 1.990 . S
Li528 O588 1.956 . S
Li528 O589 1.970 . S
Li528 O590 1.961 . S
Li529 N553 1.990 . S
Li529 O588 1.970 . S
Li529 O589 1.956 . S
Li529 O591 1.961 . S
Li530 N575 1.990 . S
Li530 O588 1.961 . S
Li530 O590 1.956 . S
Li530 O591 1.970 . S
Li531 N581 1.990 . S
Li531 O589 1.961 . S
Li531 O590 1.970 . S
Li531 O591 1.956 . S
C532 C534 1.348 . S
C532 C535 1.356 . S
C532 O588 1.325 . S
N533 C536 1.314 . S
N533 C537 1.279 . S
C534 C532 1.348 . S
C534 C536 1.353 . S
C534 H592 0.929 . S
C535 C532 1.356 . S
C535 C537 1.358 . S
C535 H593 0.930 . S
C536 N533 1.314 . S
C536 C534 1.353 . S
C536 H594 0.930 . S
C537 N533 1.279 . S
C537 C535 1.358 . S
C537 H595 0.930 . S
C538 C541 1.348 . S
C538 C542 1.356 . S
C538 O589 1.325 . S
C539 N540 1.279 . S
C539 C542 1.358 . S
C539 H596 0.930 . S
N540 C539 1.279 . S
N540 C543 1.314 . S
C541 C538 1.348 . S
C541 C543 1.353 . S
C541 H597 0.929 . S
C542 C538 1.356 . S
C542 C539 1.358 . S
C542 H598 0.930 . S
C543 N540 1.314 . S
C543 C541 1.353 . S
C543 H599 0.930 . S
C544 N545 1.314 . S
C544 C549 1.353 . S
C544 H550 0.930 . S
N545 Li528 1.990 . S
N545 C544 1.314 . S
N545 C547 1.279 . S
C546 C547 1.358 . S
C546 C548 1.356 . S
C546 H600 0.930 . S
C547 N545 1.279 . S
C547 C546 1.358 . S
C547 H551 0.930 . S
C548 C546 1.356 . S
C548 C549 1.348 . S
C549 C544 1.353 . S
C549 C548 1.348 . S
C549 H601 0.929 . S
H550 C544 0.930 . S
H551 C547 0.930 . S
C552 N553 1.314 . S
C552 C554 1.353 . S
C552 H558 0.930 . S
N553 Li529 1.990 . S
N553 C552 1.314 . S
N553 C556 1.279 . S
C554 C552 1.353 . S
C554 C557 1.348 . S
C554 H602 0.929 . S
C555 C556 1.358 . S
C555 C557 1.356 . S
C555 H603 0.930 . S
C556 N553 1.279 . S
C556 C555 1.358 . S
C556 H559 0.930 . S
C557 C554 1.348 . S
C557 C555 1.356 . S
H558 C552 0.930 . S
H559 C556 0.930 . S
C560 C562 1.348 . S
C560 C563 1.356 . S
C560 O590 1.325 . S
N561 C564 1.314 . S
N561 C565 1.279 . S
C562 C560 1.348 . S
C562 C564 1.353 . S
C562 H604 0.929 . S
C563 C560 1.356 . S
C563 C565 1.358 . S
C563 H605 0.930 . S
C564 N561 1.314 . S
C564 C562 1.353 . S
C564 H606 0.930 . S
C565 N561 1.279 . S
C565 C563 1.358 . S
C565 H607 0.930 . S
C566 C567 1.348 . S
C566 C568 1.356 . S
C566 O591 1.325 . S
C567 C566 1.348 . S
C567 C569 1.353 . S
C567 H608 0.929 . S
C568 C566 1.356 . S
C568 C570 1.358 . S
C568 H609 0.930 . S
C569 C567 1.353 . S
C569 N571 1.314 . S
C569 H610 0.930 . S
C570 C568 1.358 . S
C570 N571 1.279 . S
C570 H611 0.930 . S
N571 C569 1.314 . S
N571 C570 1.279 . S
C572 C574 1.353 . S
C572 N575 1.314 . S
C572 H578 0.930 . S
C573 N575 1.279 . S
C573 C576 1.358 . S
C573 H579 0.930 . S
C574 C572 1.353 . S
C574 C577 1.348 . S
C574 H612 0.929 . S
N575 Li530 1.990 . S
N575 C572 1.314 . S
N575 C573 1.279 . S
C576 C573 1.358 . S
C576 C577 1.356 . S
C576 H613 0.930 . S
C577 C574 1.348 . S
C577 C576 1.356 . S
H578 C572 0.930 . S
H579 C573 0.930 . S
C580 N581 1.314 . S
C580 C582 1.353 . S
C580 H586 0.930 . S
N581 Li531 1.990 . S
N581 C580 1.314 . S
N581 C584 1.279 . S
C582 C580 1.353 . S
C582 C585 1.348 . S
C582 H614 0.929 . S
C583 C584 1.358 . S
C583 C585 1.356 . S
C583 H615 0.930 . S
C584 N581 1.279 . S
C584 C583 1.358 . S
C584 H587 0.930 . S
C585 C582 1.348 . S
C585 C583 1.356 . S
H586 C580 0.930 . S
H587 C584 0.930 . S
O588 Li528 1.956 . S
O588 Li529 1.970 . S
O588 Li530 1.961 . S
O588 C532 1.325 . S
O589 Li528 1.970 . S
O589 Li529 1.956 . S
O589 Li531 1.961 . S
O589 C538 1.325 . S
O590 Li528 1.961 . S
O590 Li530 1.956 . S
O590 Li531 1.970 . S
O590 C560 1.325 . S
O591 Li529 1.961 . S
O591 Li530 1.970 . S
O591 Li531 1.956 . S
O591 C566 1.325 . S
H592 C534 0.929 . S
H593 C535 0.930 . S
H594 C536 0.930 . S
H595 C537 0.930 . S
H596 C539 0.930 . S
H597 C541 0.929 . S
H598 C542 0.930 . S
H599 C543 0.930 . S
H600 C546 0.930 . S
H601 C549 0.929 . S
H602 C554 0.929 . S
H603 C555 0.930 . S
H604 C562 0.929 . S
H605 C563 0.930 . S
H606 C564 0.930 . S
H607 C565 0.930 . S
H608 C567 0.929 . S
H609 C568 0.930 . S
H610 C569 0.930 . S
H611 C570 0.930 . S
H612 C574 0.929 . S
H613 C576 0.930 . S
H614 C582 0.929 . S
H615 C583 0.930 . S
Li616 N633 1.990 . S
Li616 O676 1.956 . S
Li616 O677 1.970 . S
Li616 O678 1.961 . S
Li617 N641 1.990 . S
Li617 O676 1.970 . S
Li617 O677 1.956 . S
Li617 O679 1.961 . S
Li618 N663 1.990 . S
Li618 O676 1.961 . S
Li618 O678 1.956 . S
Li618 O679 1.970 . S
Li619 N669 1.990 . S
Li619 O677 1.961 . S
Li619 O678 1.970 . S
Li619 O679 1.956 . S
C620 C622 1.348 . S
C620 C623 1.356 . S
C620 O676 1.325 . S
N621 C624 1.314 . S
N621 C625 1.279 . S
C622 C620 1.348 . S
C622 C624 1.353 . S
C622 H680 0.929 . S
C623 C620 1.356 . S
C623 C625 1.358 . S
C623 H681 0.930 . S
C624 N621 1.314 . S
C624 C622 1.353 . S
C624 H682 0.930 . S
C625 N621 1.279 . S
C625 C623 1.358 . S
C625 H683 0.930 . S
C626 C629 1.348 . S
C626 C630 1.356 . S
C626 O677 1.325 . S
C627 N628 1.279 . S
C627 C630 1.358 . S
C627 H684 0.930 . S
N628 C627 1.279 . S
N628 C631 1.314 . S
C629 C626 1.348 . S
C629 C631 1.353 . S
C629 H685 0.929 . S
C630 C626 1.356 . S
C630 C627 1.358 . S
C630 H686 0.930 . S
C631 N628 1.314 . S
C631 C629 1.353 . S
C631 H687 0.930 . S
C632 N633 1.314 . S
C632 C637 1.353 . S
C632 H638 0.930 . S
N633 Li616 1.990 . S
N633 C632 1.314 . S
N633 C635 1.279 . S
C634 C635 1.358 . S
C634 C636 1.356 . S
C634 H688 0.930 . S
C635 N633 1.279 . S
C635 C634 1.358 . S
C635 H639 0.930 . S
C636 C634 1.356 . S
C636 C637 1.348 . S
C637 C632 1.353 . S
C637 C636 1.348 . S
C637 H689 0.929 . S
H638 C632 0.930 . S
H639 C635 0.930 . S
C640 N641 1.314 . S
C640 C642 1.353 . S
C640 H646 0.930 . S
N641 Li617 1.990 . S
N641 C640 1.314 . S
N641 C644 1.279 . S
C642 C640 1.353 . S
C642 C645 1.348 . S
C642 H690 0.929 . S
C643 C644 1.358 . S
C643 C645 1.356 . S
C643 H691 0.930 . S
C644 N641 1.279 . S
C644 C643 1.358 . S
C644 H647 0.930 . S
C645 C642 1.348 . S
C645 C643 1.356 . S
H646 C640 0.930 . S
H647 C644 0.930 . S
C648 C650 1.348 . S
C648 C651 1.356 . S
C648 O678 1.325 . S
N649 C652 1.314 . S
N649 C653 1.279 . S
C650 C648 1.348 . S
C650 C652 1.353 . S
C650 H692 0.929 . S
C651 C648 1.356 . S
C651 C653 1.358 . S
C651 H693 0.930 . S
C652 N649 1.314 . S
C652 C650 1.353 . S
C652 H694 0.930 . S
C653 N649 1.279 . S
C653 C651 1.358 . S
C653 H695 0.930 . S
C654 C655 1.348 . S
C654 C656 1.356 . S
C654 O679 1.325 . S
C655 C654 1.348 . S
C655 C657 1.353 . S
C655 H696 0.929 . S
C656 C654 1.356 . S
C656 C658 1.358 . S
C656 H697 0.930 . S
C657 C655 1.353 . S
C657 N659 1.314 . S
C657 H698 0.930 . S
C658 C656 1.358 . S
C658 N659 1.279 . S
C658 H699 0.930 . S
N659 C657 1.314 . S
N659 C658 1.279 . S
C660 C662 1.353 . S
C660 N663 1.314 . S
C660 H666 0.930 . S
C661 N663 1.279 . S
C661 C664 1.358 . S
C661 H667 0.930 . S
C662 C660 1.353 . S
C662 C665 1.348 . S
C662 H700 0.929 . S
N663 Li618 1.990 . S
N663 C660 1.314 . S
N663 C661 1.279 . S
C664 C661 1.358 . S
C664 C665 1.356 . S
C664 H701 0.930 . S
C665 C662 1.348 . S
C665 C664 1.356 . S
H666 C660 0.930 . S
H667 C661 0.930 . S
C668 N669 1.314 . S
C668 C670 1.353 . S
C668 H674 0.930 . S
N669 Li619 1.990 . S
N669 C668 1.314 . S
N669 C672 1.279 . S
C670 C668 1.353 . S
C670 C673 1.348 . S
C670 H702 0.929 . S
C671 C672 1.358 . S
C671 C673 1.356 . S
C671 H703 0.930 . S
C672 N669 1.279 . S
C672 C671 1.358 . S
C672 H675 0.930 . S
C673 C670 1.348 . S
C673 C671 1.356 . S
H674 C668 0.930 . S
H675 C672 0.930 . S
O676 Li616 1.956 . S
O676 Li617 1.970 . S
O676 Li618 1.961 . S
O676 C620 1.325 . S
O677 Li616 1.970 . S
O677 Li617 1.956 . S
O677 Li619 1.961 . S
O677 C626 1.325 . S
O678 Li616 1.961 . S
O678 Li618 1.956 . S
O678 Li619 1.970 . S
O678 C648 1.325 . S
O679 Li617 1.961 . S
O679 Li618 1.970 . S
O679 Li619 1.956 . S
O679 C654 1.325 . S
H680 C622 0.929 . S
H681 C623 0.930 . S
H682 C624 0.930 . S
H683 C625 0.930 . S
H684 C627 0.930 . S
H685 C629 0.929 . S
H686 C630 0.930 . S
H687 C631 0.930 . S
H688 C634 0.930 . S
H689 C637 0.929 . S
H690 C642 0.929 . S
H691 C643 0.930 . S
H692 C650 0.929 . S
H693 C651 0.930 . S
H694 C652 0.930 . S
H695 C653 0.930 . S
H696 C655 0.929 . S
H697 C656 0.930 . S
H698 C657 0.930 . S
H699 C658 0.930 . S
H700 C662 0.929 . S
H701 C664 0.930 . S
H702 C670 0.929 . S
H703 C671 0.930 . S
Li704 N721 1.990 . S
Li704 O764 1.956 . S
Li704 O765 1.970 . S
Li704 O766 1.961 . S
Li705 N729 1.990 . S
Li705 O764 1.970 . S
Li705 O765 1.956 . S
Li705 O767 1.961 . S
Li706 N751 1.990 . S
Li706 O764 1.961 . S
Li706 O766 1.956 . S
Li706 O767 1.970 . S
Li707 N757 1.990 . S
Li707 O765 1.961 . S
Li707 O766 1.970 . S
Li707 O767 1.956 . S
C708 C710 1.348 . S
C708 C711 1.356 . S
C708 O764 1.325 . S
N709 C712 1.314 . S
N709 C713 1.279 . S
C710 C708 1.348 . S
C710 C712 1.353 . S
C710 H768 0.929 . S
C711 C708 1.356 . S
C711 C713 1.358 . S
C711 H769 0.930 . S
C712 N709 1.314 . S
C712 C710 1.353 . S
C712 H770 0.930 . S
C713 N709 1.279 . S
C713 C711 1.358 . S
C713 H771 0.930 . S
C714 C717 1.348 . S
C714 C718 1.356 . S
C714 O765 1.325 . S
C715 N716 1.279 . S
C715 C718 1.358 . S
C715 H772 0.930 . S
N716 C715 1.279 . S
N716 C719 1.314 . S
C717 C714 1.348 . S
C717 C719 1.353 . S
C717 H773 0.929 . S
C718 C714 1.356 . S
C718 C715 1.358 . S
C718 H774 0.930 . S
C719 N716 1.314 . S
C719 C717 1.353 . S
C719 H775 0.930 . S
C720 N721 1.314 . S
C720 C725 1.353 . S
C720 H726 0.930 . S
N721 Li704 1.990 . S
N721 C720 1.314 . S
N721 C723 1.279 . S
C722 C723 1.358 . S
C722 C724 1.356 . S
C722 H776 0.930 . S
C723 N721 1.279 . S
C723 C722 1.358 . S
C723 H727 0.930 . S
C724 C722 1.356 . S
C724 C725 1.348 . S
C725 C720 1.353 . S
C725 C724 1.348 . S
C725 H777 0.929 . S
H726 C720 0.930 . S
H727 C723 0.930 . S
C728 N729 1.314 . S
C728 C730 1.353 . S
C728 H734 0.930 . S
N729 Li705 1.990 . S
N729 C728 1.314 . S
N729 C732 1.279 . S
C730 C728 1.353 . S
C730 C733 1.348 . S
C730 H778 0.929 . S
C731 C732 1.358 . S
C731 C733 1.356 . S
C731 H779 0.930 . S
C732 N729 1.279 . S
C732 C731 1.358 . S
C732 H735 0.930 . S
C733 C730 1.348 . S
C733 C731 1.356 . S
H734 C728 0.930 . S
H735 C732 0.930 . S
C736 C738 1.348 . S
C736 C739 1.356 . S
C736 O766 1.325 . S
N737 C740 1.314 . S
N737 C741 1.279 . S
C738 C736 1.348 . S
C738 C740 1.353 . S
C738 H780 0.929 . S
C739 C736 1.356 . S
C739 C741 1.358 . S
C739 H781 0.930 . S
C740 N737 1.314 . S
C740 C738 1.353 . S
C740 H782 0.930 . S
C741 N737 1.279 . S
C741 C739 1.358 . S
C741 H783 0.930 . S
C742 C743 1.348 . S
C742 C744 1.356 . S
C742 O767 1.325 . S
C743 C742 1.348 . S
C743 C745 1.353 . S
C743 H784 0.929 . S
C744 C742 1.356 . S
C744 C746 1.358 . S
C744 H785 0.930 . S
C745 C743 1.353 . S
C745 N747 1.314 . S
C745 H786 0.930 . S
C746 C744 1.358 . S
C746 N747 1.279 . S
C746 H787 0.930 . S
N747 C745 1.314 . S
N747 C746 1.279 . S
C748 C750 1.353 . S
C748 N751 1.314 . S
C748 H754 0.930 . S
C749 N751 1.279 . S
C749 C752 1.358 . S
C749 H755 0.930 . S
C750 C748 1.353 . S
C750 C753 1.348 . S
C750 H788 0.929 . S
N751 Li706 1.990 . S
N751 C748 1.314 . S
N751 C749 1.279 . S
C752 C749 1.358 . S
C752 C753 1.356 . S
C752 H789 0.930 . S
C753 C750 1.348 . S
C753 C752 1.356 . S
H754 C748 0.930 . S
H755 C749 0.930 . S
C756 N757 1.314 . S
C756 C758 1.353 . S
C756 H762 0.930 . S
N757 Li707 1.990 . S
N757 C756 1.314 . S
N757 C760 1.279 . S
C758 C756 1.353 . S
C758 C761 1.348 . S
C758 H790 0.929 . S
C759 C760 1.358 . S
C759 C761 1.356 . S
C759 H791 0.930 . S
C760 N757 1.279 . S
C760 C759 1.358 . S
C760 H763 0.930 . S
C761 C758 1.348 . S
C761 C759 1.356 . S
H762 C756 0.930 . S
H763 C760 0.930 . S
O764 Li704 1.956 . S
O764 Li705 1.970 . S
O764 Li706 1.961 . S
O764 C708 1.325 . S
O765 Li704 1.970 . S
O765 Li705 1.956 . S
O765 Li707 1.961 . S
O765 C714 1.325 . S
O766 Li704 1.961 . S
O766 Li706 1.956 . S
O766 Li707 1.970 . S
O766 C736 1.325 . S
O767 Li705 1.961 . S
O767 Li706 1.970 . S
O767 Li707 1.956 . S
O767 C742 1.325 . S
H768 C710 0.929 . S
H769 C711 0.930 . S
H770 C712 0.930 . S
H771 C713 0.930 . S
H772 C715 0.930 . S
H773 C717 0.929 . S
H774 C718 0.930 . S
H775 C719 0.930 . S
H776 C722 0.930 . S
H777 C725 0.929 . S
H778 C730 0.929 . S
H779 C731 0.930 . S
H780 C738 0.929 . S
H781 C739 0.930 . S
H782 C740 0.930 . S
H783 C741 0.930 . S
H784 C743 0.929 . S
H785 C744 0.930 . S
H786 C745 0.930 . S
H787 C746 0.930 . S
H788 C750 0.929 . S
H789 C752 0.930 . S
H790 C758 0.929 . S
H791 C759 0.930 . S
Li792 N809 1.990 . S
Li792 O852 1.956 . S
Li792 O853 1.970 . S
Li792 O854 1.961 . S
Li793 N817 1.990 . S
Li793 O852 1.970 . S
Li793 O853 1.956 . S
Li793 O855 1.961 . S
Li794 N839 1.990 . S
Li794 O852 1.961 . S
Li794 O854 1.956 . S
Li794 O855 1.970 . S
Li795 N845 1.990 . S
Li795 O853 1.961 . S
Li795 O854 1.970 . S
Li795 O855 1.956 . S
C796 C798 1.348 . S
C796 C799 1.356 . S
C796 O852 1.325 . S
N797 C800 1.314 . S
N797 C801 1.279 . S
C798 C796 1.348 . S
C798 C800 1.353 . S
C798 H856 0.929 . S
C799 C796 1.356 . S
C799 C801 1.358 . S
C799 H857 0.930 . S
C800 N797 1.314 . S
C800 C798 1.353 . S
C800 H858 0.930 . S
C801 N797 1.279 . S
C801 C799 1.358 . S
C801 H859 0.930 . S
C802 C805 1.348 . S
C802 C806 1.356 . S
C802 O853 1.325 . S
C803 N804 1.279 . S
C803 C806 1.358 . S
C803 H860 0.930 . S
N804 C803 1.279 . S
N804 C807 1.314 . S
C805 C802 1.348 . S
C805 C807 1.353 . S
C805 H861 0.929 . S
C806 C802 1.356 . S
C806 C803 1.358 . S
C806 H862 0.930 . S
C807 N804 1.314 . S
C807 C805 1.353 . S
C807 H863 0.930 . S
C808 N809 1.314 . S
C808 C813 1.353 . S
C808 H814 0.930 . S
N809 Li792 1.990 . S
N809 C808 1.314 . S
N809 C811 1.279 . S
C810 C811 1.358 . S
C810 C812 1.356 . S
C810 H864 0.930 . S
C811 N809 1.279 . S
C811 C810 1.358 . S
C811 H815 0.930 . S
C812 C810 1.356 . S
C812 C813 1.348 . S
C813 C808 1.353 . S
C813 C812 1.348 . S
C813 H865 0.929 . S
H814 C808 0.930 . S
H815 C811 0.930 . S
C816 N817 1.314 . S
C816 C818 1.353 . S
C816 H822 0.930 . S
N817 Li793 1.990 . S
N817 C816 1.314 . S
N817 C820 1.279 . S
C818 C816 1.353 . S
C818 C821 1.348 . S
C818 H866 0.929 . S
C819 C820 1.358 . S
C819 C821 1.356 . S
C819 H867 0.930 . S
C820 N817 1.279 . S
C820 C819 1.358 . S
C820 H823 0.930 . S
C821 C818 1.348 . S
C821 C819 1.356 . S
H822 C816 0.930 . S
H823 C820 0.930 . S
C824 C826 1.348 . S
C824 C827 1.356 . S
C824 O854 1.325 . S
N825 C828 1.314 . S
N825 C829 1.279 . S
C826 C824 1.348 . S
C826 C828 1.353 . S
C826 H868 0.929 . S
C827 C824 1.356 . S
C827 C829 1.358 . S
C827 H869 0.930 . S
C828 N825 1.314 . S
C828 C826 1.353 . S
C828 H870 0.930 . S
C829 N825 1.279 . S
C829 C827 1.358 . S
C829 H871 0.930 . S
C830 C831 1.348 . S
C830 C832 1.356 . S
C830 O855 1.325 . S
C831 C830 1.348 . S
C831 C833 1.353 . S
C831 H872 0.929 . S
C832 C830 1.356 . S
C832 C834 1.358 . S
C832 H873 0.930 . S
C833 C831 1.353 . S
C833 N835 1.314 . S
C833 H874 0.930 . S
C834 C832 1.358 . S
C834 N835 1.279 . S
C834 H875 0.930 . S
N835 C833 1.314 . S
N835 C834 1.279 . S
C836 C838 1.353 . S
C836 N839 1.314 . S
C836 H842 0.930 . S
C837 N839 1.279 . S
C837 C840 1.358 . S
C837 H843 0.930 . S
C838 C836 1.353 . S
C838 C841 1.348 . S
C838 H876 0.929 . S
N839 Li794 1.990 . S
N839 C836 1.314 . S
N839 C837 1.279 . S
C840 C837 1.358 . S
C840 C841 1.356 . S
C840 H877 0.930 . S
C841 C838 1.348 . S
C841 C840 1.356 . S
H842 C836 0.930 . S
H843 C837 0.930 . S
C844 N845 1.314 . S
C844 C846 1.353 . S
C844 H850 0.930 . S
N845 Li795 1.990 . S
N845 C844 1.314 . S
N845 C848 1.279 . S
C846 C844 1.353 . S
C846 C849 1.348 . S
C846 H878 0.929 . S
C847 C848 1.358 . S
C847 C849 1.356 . S
C847 H879 0.930 . S
C848 N845 1.279 . S
C848 C847 1.358 . S
C848 H851 0.930 . S
C849 C846 1.348 . S
C849 C847 1.356 . S
H850 C844 0.930 . S
H851 C848 0.930 . S
O852 Li792 1.956 . S
O852 Li793 1.970 . S
O852 Li794 1.961 . S
O852 C796 1.325 . S
O853 Li792 1.970 . S
O853 Li793 1.956 . S
O853 Li795 1.961 . S
O853 C802 1.325 . S
O854 Li792 1.961 . S
O854 Li794 1.956 . S
O854 Li795 1.970 . S
O854 C824 1.325 . S
O855 Li793 1.961 . S
O855 Li794 1.970 . S
O855 Li795 1.956 . S
O855 C830 1.325 . S
H856 C798 0.929 . S
H857 C799 0.930 . S
H858 C800 0.930 . S
H859 C801 0.930 . S
H860 C803 0.930 . S
H861 C805 0.929 . S
H862 C806 0.930 . S
H863 C807 0.930 . S
H864 C810 0.930 . S
H865 C813 0.929 . S
H866 C818 0.929 . S
H867 C819 0.930 . S
H868 C826 0.929 . S
H869 C827 0.930 . S
H870 C828 0.930 . S
H871 C829 0.930 . S
H872 C831 0.929 . S
H873 C832 0.930 . S
H874 C833 0.930 . S
H875 C834 0.930 . S
H876 C838 0.929 . S
H877 C840 0.930 . S
H878 C846 0.929 . S
H879 C847 0.930 . S
Li880 N897 1.990 . S
Li880 O940 1.956 . S
Li880 O941 1.970 . S
Li880 O942 1.961 . S
Li881 N905 1.990 . S
Li881 O940 1.970 . S
Li881 O941 1.956 . S
Li881 O943 1.961 . S
Li882 N927 1.990 . S
Li882 O940 1.961 . S
Li882 O942 1.956 . S
Li882 O943 1.970 . S
Li883 N933 1.990 . S
Li883 O941 1.961 . S
Li883 O942 1.970 . S
Li883 O943 1.956 . S
C884 C886 1.348 . S
C884 C887 1.356 . S
C884 O940 1.325 . S
N885 C888 1.314 . S
N885 C889 1.279 . S
C886 C884 1.348 . S
C886 C888 1.353 . S
C886 H944 0.929 . S
C887 C884 1.356 . S
C887 C889 1.358 . S
C887 H945 0.930 . S
C888 N885 1.314 . S
C888 C886 1.353 . S
C888 H946 0.930 . S
C889 N885 1.279 . S
C889 C887 1.358 . S
C889 H947 0.930 1_554 S
C890 C893 1.348 . S
C890 C894 1.356 . S
C890 O941 1.325 . S
C891 N892 1.279 . S
C891 C894 1.358 . S
C891 H948 0.930 . S
N892 C891 1.279 . S
N892 C895 1.314 . S
C893 C890 1.348 . S
C893 C895 1.353 . S
C893 H949 0.929 . S
C894 C890 1.356 . S
C894 C891 1.358 . S
C894 H950 0.930 . S
C895 N892 1.314 . S
C895 C893 1.353 . S
C895 H951 0.930 . S
C896 N897 1.314 . S
C896 C901 1.353 . S
C896 H902 0.930 . S
N897 Li880 1.990 . S
N897 C896 1.314 . S
N897 C899 1.279 . S
C898 C899 1.358 . S
C898 C900 1.356 . S
C898 H952 0.930 . S
C899 N897 1.279 . S
C899 C898 1.358 . S
C899 H903 0.930 . S
C900 C898 1.356 . S
C900 C901 1.348 . S
C901 C896 1.353 . S
C901 C900 1.348 . S
C901 H953 0.929 . S
H902 C896 0.930 . S
H903 C899 0.930 . S
C904 N905 1.314 . S
C904 C906 1.353 . S
C904 H910 0.930 . S
N905 Li881 1.990 . S
N905 C904 1.314 . S
N905 C908 1.279 . S
C906 C904 1.353 . S
C906 C909 1.348 . S
C906 H954 0.929 . S
C907 C908 1.358 . S
C907 C909 1.356 . S
C907 H955 0.930 . S
C908 N905 1.279 . S
C908 C907 1.358 . S
C908 H911 0.930 . S
C909 C906 1.348 . S
C909 C907 1.356 . S
H910 C904 0.930 . S
H911 C908 0.930 . S
C912 C914 1.348 . S
C912 C915 1.356 . S
C912 O942 1.325 . S
N913 C916 1.314 . S
N913 C917 1.279 . S
C914 C912 1.348 . S
C914 C916 1.353 . S
C914 H956 0.929 . S
C915 C912 1.356 . S
C915 C917 1.358 . S
C915 H957 0.930 . S
C916 N913 1.314 . S
C916 C914 1.353 . S
C916 H958 0.930 . S
C917 N913 1.279 . S
C917 C915 1.358 . S
C917 H959 0.930 . S
C918 C919 1.348 . S
C918 C920 1.356 . S
C918 O943 1.325 . S
C919 C918 1.348 . S
C919 C921 1.353 . S
C919 H960 0.929 . S
C920 C918 1.356 . S
C920 C922 1.358 . S
C920 H961 0.930 . S
C921 C919 1.353 . S
C921 N923 1.314 . S
C921 H962 0.930 . S
C922 C920 1.358 . S
C922 N923 1.279 . S
C922 H963 0.930 . S
N923 C921 1.314 . S
N923 C922 1.279 . S
C924 C926 1.353 1_554 S
C924 N927 1.314 . S
C924 H930 0.930 . S
C925 N927 1.279 . S
C925 C928 1.358 1_554 S
C925 H931 0.930 . S
C926 C924 1.353 1_556 S
C926 C929 1.348 . S
C926 H964 0.929 . S
N927 Li882 1.990 . S
N927 C924 1.314 . S
N927 C925 1.279 . S
C928 C925 1.358 1_556 S
C928 C929 1.356 . S
C928 H965 0.930 . S
C929 C926 1.348 . S
C929 C928 1.356 . S
H930 C924 0.930 . S
H931 C925 0.930 . S
C932 N933 1.314 . S
C932 C934 1.353 . S
C932 H938 0.930 . S
N933 Li883 1.990 . S
N933 C932 1.314 . S
N933 C936 1.279 . S
C934 C932 1.353 . S
C934 C937 1.348 . S
C934 H966 0.929 . S
C935 C936 1.358 . S
C935 C937 1.356 . S
C935 H967 0.930 . S
C936 N933 1.279 . S
C936 C935 1.358 . S
C936 H939 0.930 . S
C937 C934 1.348 . S
C937 C935 1.356 . S
H938 C932 0.930 . S
H939 C936 0.930 . S
O940 Li880 1.956 . S
O940 Li881 1.970 . S
O940 Li882 1.961 . S
O940 C884 1.325 . S
O941 Li880 1.970 . S
O941 Li881 1.956 . S
O941 Li883 1.961 . S
O941 C890 1.325 . S
O942 Li880 1.961 . S
O942 Li882 1.956 . S
O942 Li883 1.970 . S
O942 C912 1.325 . S
O943 Li881 1.961 . S
O943 Li882 1.970 . S
O943 Li883 1.956 . S
O943 C918 1.325 . S
H944 C886 0.929 . S
H945 C887 0.930 . S
H946 C888 0.930 . S
H947 C889 0.930 1_556 S
H948 C891 0.930 . S
H949 C893 0.929 . S
H950 C894 0.930 . S
H951 C895 0.930 . S
H952 C898 0.930 . S
H953 C901 0.929 . S
H954 C906 0.929 . S
H955 C907 0.930 . S
H956 C914 0.929 . S
H957 C915 0.930 . S
H958 C916 0.930 . S
H959 C917 0.930 . S
H960 C919 0.929 . S
H961 C920 0.930 . S
H962 C921 0.930 . S
H963 C922 0.930 . S
H964 C926 0.929 . S
H965 C928 0.930 . S
H966 C934 0.929 . S
H967 C935 0.930 . S
Li968 N985 1.990 . S
Li968 O1028 1.956 . S
Li968 O1029 1.970 . S
Li968 O1030 1.961 . S
Li969 N993 1.990 . S
Li969 O1028 1.970 . S
Li969 O1029 1.956 . S
Li969 O1031 1.961 . S
Li970 N1015 1.990 . S
Li970 O1028 1.961 . S
Li970 O1030 1.956 . S
Li970 O1031 1.970 . S
Li971 N1021 1.990 . S
Li971 O1029 1.961 . S
Li971 O1030 1.970 . S
Li971 O1031 1.956 . S
C972 C974 1.348 . S
C972 C975 1.356 . S
C972 O1028 1.325 . S
N973 C976 1.314 . S
N973 C977 1.279 . S
C974 C972 1.348 . S
C974 C976 1.353 . S
C974 H1032 0.929 . S
C975 C972 1.356 . S
C975 C977 1.358 . S
C975 H1033 0.930 . S
C976 N973 1.314 . S
C976 C974 1.353 . S
C976 H1034 0.930 . S
C977 N973 1.279 . S
C977 C975 1.358 . S
C977 H1035 0.930 . S
C978 C981 1.348 . S
C978 C982 1.356 . S
C978 O1029 1.325 . S
C979 N980 1.279 . S
C979 C982 1.358 . S
C979 H1036 0.930 . S
N980 C979 1.279 . S
N980 C983 1.314 . S
C981 C978 1.348 . S
C981 C983 1.353 . S
C981 H1037 0.929 . S
C982 C978 1.356 . S
C982 C979 1.358 . S
C982 H1038 0.930 . S
C983 N980 1.314 . S
C983 C981 1.353 . S
C983 H1039 0.930 . S
C984 N985 1.314 . S
C984 C989 1.353 . S
C984 H990 0.930 . S
N985 Li968 1.990 . S
N985 C984 1.314 . S
N985 C987 1.279 . S
C986 C987 1.358 . S
C986 C988 1.356 . S
C986 H1040 0.930 . S
C987 N985 1.279 . S
C987 C986 1.358 . S
C987 H991 0.930 . S
C988 C986 1.356 . S
C988 C989 1.348 . S
C989 C984 1.353 . S
C989 C988 1.348 . S
C989 H1041 0.929 . S
H990 C984 0.930 . S
H991 C987 0.930 . S
C992 N993 1.314 . S
C992 C994 1.353 . S
C992 H998 0.930 . S
N993 Li969 1.990 . S
N993 C992 1.314 . S
N993 C996 1.279 . S
C994 C992 1.353 . S
C994 C997 1.348 . S
C994 H1042 0.929 . S
C995 C996 1.358 . S
C995 C997 1.356 . S
C995 H1043 0.930 . S
C996 N993 1.279 . S
C996 C995 1.358 . S
C996 H999 0.930 . S
C997 C994 1.348 . S
C997 C995 1.356 . S
H998 C992 0.930 . S
H999 C996 0.930 . S
C1000 C1002 1.348 . S
C1000 C1003 1.356 . S
C1000 O1030 1.325 . S
N1001 C1004 1.314 . S
N1001 C1005 1.279 . S
C1002 C1000 1.348 . S
C1002 C1004 1.353 . S
C1002 H1044 0.929 . S
C1003 C1000 1.356 . S
C1003 C1005 1.358 . S
C1003 H1045 0.930 . S
C1004 N1001 1.314 . S
C1004 C1002 1.353 . S
C1004 H1046 0.930 . S
C1005 N1001 1.279 . S
C1005 C1003 1.358 . S
C1005 H1047 0.930 . S
C1006 C1007 1.348 . S
C1006 C1008 1.356 . S
C1006 O1031 1.325 . S
C1007 C1006 1.348 . S
C1007 C1009 1.353 . S
C1007 H1048 0.929 . S
C1008 C1006 1.356 . S
C1008 C1010 1.358 . S
C1008 H1049 0.930 . S
C1009 C1007 1.353 . S
C1009 N1011 1.314 . S
C1009 H1050 0.930 . S
C1010 C1008 1.358 . S
C1010 N1011 1.279 . S
C1010 H1051 0.930 . S
N1011 C1009 1.314 . S
N1011 C1010 1.279 . S
C1012 C1014 1.353 . S
C1012 N1015 1.314 . S
C1012 H1018 0.930 . S
C1013 N1015 1.279 . S
C1013 C1016 1.358 . S
C1013 H1019 0.930 . S
C1014 C1012 1.353 . S
C1014 C1017 1.348 . S
C1014 H1052 0.929 . S
N1015 Li970 1.990 . S
N1015 C1012 1.314 . S
N1015 C1013 1.279 . S
C1016 C1013 1.358 . S
C1016 C1017 1.356 . S
C1016 H1053 0.930 . S
C1017 C1014 1.348 . S
C1017 C1016 1.356 . S
H1018 C1012 0.930 . S
H1019 C1013 0.930 . S
C1020 N1021 1.314 . S
C1020 C1022 1.353 . S
C1020 H1026 0.930 . S
N1021 Li971 1.990 . S
N1021 C1020 1.314 . S
N1021 C1024 1.279 . S
C1022 C1020 1.353 . S
C1022 C1025 1.348 . S
C1022 H1054 0.929 . S
C1023 C1024 1.358 . S
C1023 C1025 1.356 . S
C1023 H1055 0.930 . S
C1024 N1021 1.279 . S
C1024 C1023 1.358 . S
C1024 H1027 0.930 . S
C1025 C1022 1.348 . S
C1025 C1023 1.356 . S
H1026 C1020 0.930 . S
H1027 C1024 0.930 . S
O1028 Li968 1.956 . S
O1028 Li969 1.970 . S
O1028 Li970 1.961 . S
O1028 C972 1.325 . S
O1029 Li968 1.970 . S
O1029 Li969 1.956 . S
O1029 Li971 1.961 . S
O1029 C978 1.325 . S
O1030 Li968 1.961 . S
O1030 Li970 1.956 . S
O1030 Li971 1.970 . S
O1030 C1000 1.325 . S
O1031 Li969 1.961 . S
O1031 Li970 1.970 . S
O1031 Li971 1.956 . S
O1031 C1006 1.325 . S
H1032 C974 0.929 . S
H1033 C975 0.930 . S
H1034 C976 0.930 . S
H1035 C977 0.930 . S
H1036 C979 0.930 . S
H1037 C981 0.929 . S
H1038 C982 0.930 . S
H1039 C983 0.930 . S
H1040 C986 0.930 . S
H1041 C989 0.929 . S
H1042 C994 0.929 . S
H1043 C995 0.930 . S
H1044 C1002 0.929 . S
H1045 C1003 0.930 . S
H1046 C1004 0.930 . S
H1047 C1005 0.930 . S
H1048 C1007 0.929 . S
H1049 C1008 0.930 . S
H1050 C1009 0.930 . S
H1051 C1010 0.930 . S
H1052 C1014 0.929 . S
H1053 C1016 0.930 . S
H1054 C1022 0.929 . S
H1055 C1023 0.930 . S
Li1056 N1073 1.990 . S
Li1056 O1116 1.956 . S
Li1056 O1117 1.970 . S
Li1056 O1118 1.961 . S
Li1057 N1081 1.990 . S
Li1057 O1116 1.970 . S
Li1057 O1117 1.956 . S
Li1057 O1119 1.961 . S
Li1058 N1103 1.990 . S
Li1058 O1116 1.961 . S
Li1058 O1118 1.956 . S
Li1058 O1119 1.970 . S
Li1059 N1109 1.990 . S
Li1059 O1117 1.961 . S
Li1059 O1118 1.970 . S
Li1059 O1119 1.956 . S
C1060 C1062 1.348 . S
C1060 C1063 1.356 . S
C1060 O1116 1.325 . S
N1061 C1064 1.314 . S
N1061 C1065 1.279 . S
C1062 C1060 1.348 . S
C1062 C1064 1.353 . S
C1062 H1120 0.929 . S
C1063 C1060 1.356 . S
C1063 C1065 1.358 . S
C1063 H1121 0.930 . S
C1064 N1061 1.314 . S
C1064 C1062 1.353 . S
C1064 H1122 0.930 . S
C1065 N1061 1.279 . S
C1065 C1063 1.358 . S
C1065 H1123 0.930 1_556 S
C1066 C1069 1.348 . S
C1066 C1070 1.356 . S
C1066 O1117 1.325 . S
C1067 N1068 1.279 . S
C1067 C1070 1.358 . S
C1067 H1124 0.930 . S
N1068 C1067 1.279 . S
N1068 C1071 1.314 . S
C1069 C1066 1.348 . S
C1069 C1071 1.353 . S
C1069 H1125 0.929 . S
C1070 C1066 1.356 . S
C1070 C1067 1.358 . S
C1070 H1126 0.930 . S
C1071 N1068 1.314 . S
C1071 C1069 1.353 . S
C1071 H1127 0.930 . S
C1072 N1073 1.314 . S
C1072 C1077 1.353 . S
C1072 H1078 0.930 . S
N1073 Li1056 1.990 . S
N1073 C1072 1.314 . S
N1073 C1075 1.279 . S
C1074 C1075 1.358 . S
C1074 C1076 1.356 . S
C1074 H1128 0.930 . S
C1075 N1073 1.279 . S
C1075 C1074 1.358 . S
C1075 H1079 0.930 . S
C1076 C1074 1.356 . S
C1076 C1077 1.348 . S
C1077 C1072 1.353 . S
C1077 C1076 1.348 . S
C1077 H1129 0.929 . S
H1078 C1072 0.930 . S
H1079 C1075 0.930 . S
C1080 N1081 1.314 . S
C1080 C1082 1.353 . S
C1080 H1086 0.930 . S
N1081 Li1057 1.990 . S
N1081 C1080 1.314 . S
N1081 C1084 1.279 . S
C1082 C1080 1.353 . S
C1082 C1085 1.348 . S
C1082 H1130 0.929 . S
C1083 C1084 1.358 . S
C1083 C1085 1.356 . S
C1083 H1131 0.930 . S
C1084 N1081 1.279 . S
C1084 C1083 1.358 . S
C1084 H1087 0.930 . S
C1085 C1082 1.348 . S
C1085 C1083 1.356 . S
H1086 C1080 0.930 . S
H1087 C1084 0.930 . S
C1088 C1090 1.348 . S
C1088 C1091 1.356 . S
C1088 O1118 1.325 . S
N1089 C1092 1.314 . S
N1089 C1093 1.279 . S
C1090 C1088 1.348 . S
C1090 C1092 1.353 . S
C1090 H1132 0.929 . S
C1091 C1088 1.356 . S
C1091 C1093 1.358 . S
C1091 H1133 0.930 . S
C1092 N1089 1.314 . S
C1092 C1090 1.353 . S
C1092 H1134 0.930 . S
C1093 N1089 1.279 . S
C1093 C1091 1.358 . S
C1093 H1135 0.930 . S
C1094 C1095 1.348 . S
C1094 C1096 1.356 . S
C1094 O1119 1.325 . S
C1095 C1094 1.348 . S
C1095 C1097 1.353 . S
C1095 H1136 0.929 . S
C1096 C1094 1.356 . S
C1096 C1098 1.358 . S
C1096 H1137 0.930 . S
C1097 C1095 1.353 . S
C1097 N1099 1.314 . S
C1097 H1138 0.930 . S
C1098 C1096 1.358 . S
C1098 N1099 1.279 . S
C1098 H1139 0.930 . S
N1099 C1097 1.314 . S
N1099 C1098 1.279 . S
C1100 C1102 1.353 1_556 S
C1100 N1103 1.314 . S
C1100 H1106 0.930 . S
C1101 N1103 1.279 . S
C1101 C1104 1.358 1_556 S
C1101 H1107 0.930 . S
C1102 C1100 1.353 1_554 S
C1102 C1105 1.348 . S
C1102 H1140 0.929 . S
N1103 Li1058 1.990 . S
N1103 C1100 1.314 . S
N1103 C1101 1.279 . S
C1104 C1101 1.358 1_554 S
C1104 C1105 1.356 . S
C1104 H1141 0.930 . S
C1105 C1102 1.348 . S
C1105 C1104 1.356 . S
H1106 C1100 0.930 . S
H1107 C1101 0.930 . S
C1108 N1109 1.314 . S
C1108 C1110 1.353 . S
C1108 H1114 0.930 . S
N1109 Li1059 1.990 . S
N1109 C1108 1.314 . S
N1109 C1112 1.279 . S
C1110 C1108 1.353 . S
C1110 C1113 1.348 . S
C1110 H1142 0.929 . S
C1111 C1112 1.358 . S
C1111 C1113 1.356 . S
C1111 H1143 0.930 . S
C1112 N1109 1.279 . S
C1112 C1111 1.358 . S
C1112 H1115 0.930 . S
C1113 C1110 1.348 . S
C1113 C1111 1.356 . S
H1114 C1108 0.930 . S
H1115 C1112 0.930 . S
O1116 Li1056 1.956 . S
O1116 Li1057 1.970 . S
O1116 Li1058 1.961 . S
O1116 C1060 1.325 . S
O1117 Li1056 1.970 . S
O1117 Li1057 1.956 . S
O1117 Li1059 1.961 . S
O1117 C1066 1.325 . S
O1118 Li1056 1.961 . S
O1118 Li1058 1.956 . S
O1118 Li1059 1.970 . S
O1118 C1088 1.325 . S
O1119 Li1057 1.961 . S
O1119 Li1058 1.970 . S
O1119 Li1059 1.956 . S
O1119 C1094 1.325 . S
H1120 C1062 0.929 . S
H1121 C1063 0.930 . S
H1122 C1064 0.930 . S
H1123 C1065 0.930 1_554 S
H1124 C1067 0.930 . S
H1125 C1069 0.929 . S
H1126 C1070 0.930 . S
H1127 C1071 0.930 . S
H1128 C1074 0.930 . S
H1129 C1077 0.929 . S
H1130 C1082 0.929 . S
H1131 C1083 0.930 . S
H1132 C1090 0.929 . S
H1133 C1091 0.930 . S
H1134 C1092 0.930 . S
H1135 C1093 0.930 . S
H1136 C1095 0.929 . S
H1137 C1096 0.930 . S
H1138 C1097 0.930 . S
H1139 C1098 0.930 . S
H1140 C1102 0.929 . S
H1141 C1104 0.930 . S
H1142 C1110 0.929 . S
H1143 C1111 0.930 . S
Li1144 N1161 1.990 . S
Li1144 O1204 1.956 . S
Li1144 O1205 1.970 . S
Li1144 O1206 1.961 . S
Li1145 N1169 1.990 . S
Li1145 O1204 1.970 . S
Li1145 O1205 1.956 . S
Li1145 O1207 1.961 . S
Li1146 N1191 1.990 . S
Li1146 O1204 1.961 . S
Li1146 O1206 1.956 . S
Li1146 O1207 1.970 . S
Li1147 N1197 1.990 . S
Li1147 O1205 1.961 . S
Li1147 O1206 1.970 . S
Li1147 O1207 1.956 . S
C1148 C1150 1.348 . S
C1148 C1151 1.356 . S
C1148 O1204 1.325 . S
N1149 C1152 1.314 . S
N1149 C1153 1.279 . S
C1150 C1148 1.348 . S
C1150 C1152 1.353 . S
C1150 H1208 0.929 . S
C1151 C1148 1.356 . S
C1151 C1153 1.358 . S
C1151 H1209 0.930 . S
C1152 N1149 1.314 . S
C1152 C1150 1.353 . S
C1152 H1210 0.930 . S
C1153 N1149 1.279 . S
C1153 C1151 1.358 . S
C1153 H1211 0.930 . S
C1154 C1157 1.348 . S
C1154 C1158 1.356 . S
C1154 O1205 1.325 . S
C1155 N1156 1.279 . S
C1155 C1158 1.358 . S
C1155 H1212 0.930 . S
N1156 C1155 1.279 . S
N1156 C1159 1.314 . S
C1157 C1154 1.348 . S
C1157 C1159 1.353 . S
C1157 H1213 0.929 . S
C1158 C1154 1.356 . S
C1158 C1155 1.358 . S
C1158 H1214 0.930 . S
C1159 N1156 1.314 . S
C1159 C1157 1.353 . S
C1159 H1215 0.930 . S
C1160 N1161 1.314 . S
C1160 C1165 1.353 . S
C1160 H1166 0.930 . S
N1161 Li1144 1.990 . S
N1161 C1160 1.314 . S
N1161 C1163 1.279 . S
C1162 C1163 1.358 . S
C1162 C1164 1.356 . S
C1162 H1216 0.930 . S
C1163 N1161 1.279 . S
C1163 C1162 1.358 . S
C1163 H1167 0.930 . S
C1164 C1162 1.356 . S
C1164 C1165 1.348 . S
C1165 C1160 1.353 . S
C1165 C1164 1.348 . S
C1165 H1217 0.929 . S
H1166 C1160 0.930 . S
H1167 C1163 0.930 . S
C1168 N1169 1.314 . S
C1168 C1170 1.353 . S
C1168 H1174 0.930 . S
N1169 Li1145 1.990 . S
N1169 C1168 1.314 . S
N1169 C1172 1.279 . S
C1170 C1168 1.353 . S
C1170 C1173 1.348 . S
C1170 H1218 0.929 . S
C1171 C1172 1.358 . S
C1171 C1173 1.356 . S
C1171 H1219 0.930 . S
C1172 N1169 1.279 . S
C1172 C1171 1.358 . S
C1172 H1175 0.930 . S
C1173 C1170 1.348 . S
C1173 C1171 1.356 . S
H1174 C1168 0.930 . S
H1175 C1172 0.930 . S
C1176 C1178 1.348 . S
C1176 C1179 1.356 . S
C1176 O1206 1.325 . S
N1177 C1180 1.314 . S
N1177 C1181 1.279 . S
C1178 C1176 1.348 . S
C1178 C1180 1.353 . S
C1178 H1220 0.929 . S
C1179 C1176 1.356 . S
C1179 C1181 1.358 . S
C1179 H1221 0.930 . S
C1180 N1177 1.314 . S
C1180 C1178 1.353 . S
C1180 H1222 0.930 . S
C1181 N1177 1.279 . S
C1181 C1179 1.358 . S
C1181 H1223 0.930 . S
C1182 C1183 1.348 . S
C1182 C1184 1.356 . S
C1182 O1207 1.325 . S
C1183 C1182 1.348 . S
C1183 C1185 1.353 . S
C1183 H1224 0.929 . S
C1184 C1182 1.356 . S
C1184 C1186 1.358 . S
C1184 H1225 0.930 . S
C1185 C1183 1.353 . S
C1185 N1187 1.314 . S
C1185 H1226 0.930 . S
C1186 C1184 1.358 . S
C1186 N1187 1.279 . S
C1186 H1227 0.930 . S
N1187 C1185 1.314 . S
N1187 C1186 1.279 . S
C1188 C1190 1.353 . S
C1188 N1191 1.314 . S
C1188 H1194 0.930 . S
C1189 N1191 1.279 . S
C1189 C1192 1.358 . S
C1189 H1195 0.930 . S
C1190 C1188 1.353 . S
C1190 C1193 1.348 . S
C1190 H1228 0.929 . S
N1191 Li1146 1.990 . S
N1191 C1188 1.314 . S
N1191 C1189 1.279 . S
C1192 C1189 1.358 . S
C1192 C1193 1.356 . S
C1192 H1229 0.930 . S
C1193 C1190 1.348 . S
C1193 C1192 1.356 . S
H1194 C1188 0.930 . S
H1195 C1189 0.930 . S
C1196 N1197 1.314 . S
C1196 C1198 1.353 . S
C1196 H1202 0.930 . S
N1197 Li1147 1.990 . S
N1197 C1196 1.314 . S
N1197 C1200 1.279 . S
C1198 C1196 1.353 . S
C1198 C1201 1.348 . S
C1198 H1230 0.929 . S
C1199 C1200 1.358 . S
C1199 C1201 1.356 . S
C1199 H1231 0.930 . S
C1200 N1197 1.279 . S
C1200 C1199 1.358 . S
C1200 H1203 0.930 . S
C1201 C1198 1.348 . S
C1201 C1199 1.356 . S
H1202 C1196 0.930 . S
H1203 C1200 0.930 . S
O1204 Li1144 1.956 . S
O1204 Li1145 1.970 . S
O1204 Li1146 1.961 . S
O1204 C1148 1.325 . S
O1205 Li1144 1.970 . S
O1205 Li1145 1.956 . S
O1205 Li1147 1.961 . S
O1205 C1154 1.325 . S
O1206 Li1144 1.961 . S
O1206 Li1146 1.956 . S
O1206 Li1147 1.970 . S
O1206 C1176 1.325 . S
O1207 Li1145 1.961 . S
O1207 Li1146 1.970 . S
O1207 Li1147 1.956 . S
O1207 C1182 1.325 . S
H1208 C1150 0.929 . S
H1209 C1151 0.930 . S
H1210 C1152 0.930 . S
H1211 C1153 0.930 . S
H1212 C1155 0.930 . S
H1213 C1157 0.929 . S
H1214 C1158 0.930 . S
H1215 C1159 0.930 . S
H1216 C1162 0.930 . S
H1217 C1165 0.929 . S
H1218 C1170 0.929 . S
H1219 C1171 0.930 . S
H1220 C1178 0.929 . S
H1221 C1179 0.930 . S
H1222 C1180 0.930 . S
H1223 C1181 0.930 . S
H1224 C1183 0.929 . S
H1225 C1184 0.930 . S
H1226 C1185 0.930 . S
H1227 C1186 0.930 . S
H1228 C1190 0.929 . S
H1229 C1192 0.930 . S
H1230 C1198 0.929 . S
H1231 C1199 0.930 . S
Li1232 N1249 1.990 . S
Li1232 O1292 1.956 . S
Li1232 O1293 1.970 . S
Li1232 O1294 1.961 . S
Li1233 N1257 1.990 . S
Li1233 O1292 1.970 . S
Li1233 O1293 1.956 . S
Li1233 O1295 1.961 . S
Li1234 N1279 1.990 . S
Li1234 O1292 1.961 . S
Li1234 O1294 1.956 . S
Li1234 O1295 1.970 . S
Li1235 N1285 1.990 . S
Li1235 O1293 1.961 . S
Li1235 O1294 1.970 . S
Li1235 O1295 1.956 . S
C1236 C1238 1.348 . S
C1236 C1239 1.356 . S
C1236 O1292 1.325 . S
N1237 C1240 1.314 . S
N1237 C1241 1.279 . S
C1238 C1236 1.348 . S
C1238 C1240 1.353 . S
C1238 H1296 0.929 . S
C1239 C1236 1.356 . S
C1239 C1241 1.358 . S
C1239 H1297 0.930 . S
C1240 N1237 1.314 . S
C1240 C1238 1.353 . S
C1240 H1298 0.930 . S
C1241 N1237 1.279 . S
C1241 C1239 1.358 . S
C1241 H1299 0.930 . S
C1242 C1245 1.348 . S
C1242 C1246 1.356 . S
C1242 O1293 1.325 . S
C1243 N1244 1.279 . S
C1243 C1246 1.358 . S
C1243 H1300 0.930 . S
N1244 C1243 1.279 . S
N1244 C1247 1.314 . S
C1245 C1242 1.348 . S
C1245 C1247 1.353 . S
C1245 H1301 0.929 . S
C1246 C1242 1.356 . S
C1246 C1243 1.358 . S
C1246 H1302 0.930 . S
C1247 N1244 1.314 . S
C1247 C1245 1.353 . S
C1247 H1303 0.930 . S
C1248 N1249 1.314 . S
C1248 C1253 1.353 . S
C1248 H1254 0.930 . S
N1249 Li1232 1.990 . S
N1249 C1248 1.314 . S
N1249 C1251 1.279 . S
C1250 C1251 1.358 . S
C1250 C1252 1.356 . S
C1250 H1304 0.930 . S
C1251 N1249 1.279 . S
C1251 C1250 1.358 . S
C1251 H1255 0.930 . S
C1252 C1250 1.356 . S
C1252 C1253 1.348 . S
C1253 C1248 1.353 . S
C1253 C1252 1.348 . S
C1253 H1305 0.929 . S
H1254 C1248 0.930 . S
H1255 C1251 0.930 . S
C1256 N1257 1.314 . S
C1256 C1258 1.353 . S
C1256 H1262 0.930 . S
N1257 Li1233 1.990 . S
N1257 C1256 1.314 . S
N1257 C1260 1.279 . S
C1258 C1256 1.353 . S
C1258 C1261 1.348 . S
C1258 H1306 0.929 . S
C1259 C1260 1.358 . S
C1259 C1261 1.356 . S
C1259 H1307 0.930 . S
C1260 N1257 1.279 . S
C1260 C1259 1.358 . S
C1260 H1263 0.930 . S
C1261 C1258 1.348 . S
C1261 C1259 1.356 . S
H1262 C1256 0.930 . S
H1263 C1260 0.930 . S
C1264 C1266 1.348 . S
C1264 C1267 1.356 . S
C1264 O1294 1.325 . S
N1265 C1268 1.314 . S
N1265 C1269 1.279 . S
C1266 C1264 1.348 . S
C1266 C1268 1.353 . S
C1266 H1308 0.929 . S
C1267 C1264 1.356 . S
C1267 C1269 1.358 . S
C1267 H1309 0.930 . S
C1268 N1265 1.314 . S
C1268 C1266 1.353 . S
C1268 H1310 0.930 . S
C1269 N1265 1.279 . S
C1269 C1267 1.358 . S
C1269 H1311 0.930 . S
C1270 C1271 1.348 . S
C1270 C1272 1.356 . S
C1270 O1295 1.325 . S
C1271 C1270 1.348 . S
C1271 C1273 1.353 . S
C1271 H1312 0.929 . S
C1272 C1270 1.356 . S
C1272 C1274 1.358 . S
C1272 H1313 0.930 . S
C1273 C1271 1.353 . S
C1273 N1275 1.314 . S
C1273 H1314 0.930 . S
C1274 C1272 1.358 . S
C1274 N1275 1.279 . S
C1274 H1315 0.930 . S
N1275 C1273 1.314 . S
N1275 C1274 1.279 . S
C1276 C1278 1.353 . S
C1276 N1279 1.314 . S
C1276 H1282 0.930 . S
C1277 N1279 1.279 . S
C1277 C1280 1.358 . S
C1277 H1283 0.930 . S
C1278 C1276 1.353 . S
C1278 C1281 1.348 . S
C1278 H1316 0.929 . S
N1279 Li1234 1.990 . S
N1279 C1276 1.314 . S
N1279 C1277 1.279 . S
C1280 C1277 1.358 . S
C1280 C1281 1.356 . S
C1280 H1317 0.930 . S
C1281 C1278 1.348 . S
C1281 C1280 1.356 . S
H1282 C1276 0.930 . S
H1283 C1277 0.930 . S
C1284 N1285 1.314 . S
C1284 C1286 1.353 . S
C1284 H1290 0.930 . S
N1285 Li1235 1.990 . S
N1285 C1284 1.314 . S
N1285 C1288 1.279 . S
C1286 C1284 1.353 . S
C1286 C1289 1.348 . S
C1286 H1318 0.929 . S
C1287 C1288 1.358 . S
C1287 C1289 1.356 . S
C1287 H1319 0.930 . S
C1288 N1285 1.279 . S
C1288 C1287 1.358 . S
C1288 H1291 0.930 . S
C1289 C1286 1.348 . S
C1289 C1287 1.356 . S
H1290 C1284 0.930 . S
H1291 C1288 0.930 . S
O1292 Li1232 1.956 . S
O1292 Li1233 1.970 . S
O1292 Li1234 1.961 . S
O1292 C1236 1.325 . S
O1293 Li1232 1.970 . S
O1293 Li1233 1.956 . S
O1293 Li1235 1.961 . S
O1293 C1242 1.325 . S
O1294 Li1232 1.961 . S
O1294 Li1234 1.956 . S
O1294 Li1235 1.970 . S
O1294 C1264 1.325 . S
O1295 Li1233 1.961 . S
O1295 Li1234 1.970 . S
O1295 Li1235 1.956 . S
O1295 C1270 1.325 . S
H1296 C1238 0.929 . S
H1297 C1239 0.930 . S
H1298 C1240 0.930 . S
H1299 C1241 0.930 . S
H1300 C1243 0.930 . S
H1301 C1245 0.929 . S
H1302 C1246 0.930 . S
H1303 C1247 0.930 . S
H1304 C1250 0.930 . S
H1305 C1253 0.929 . S
H1306 C1258 0.929 . S
H1307 C1259 0.930 . S
H1308 C1266 0.929 . S
H1309 C1267 0.930 . S
H1310 C1268 0.930 . S
H1311 C1269 0.930 . S
H1312 C1271 0.929 . S
H1313 C1272 0.930 . S
H1314 C1273 0.930 . S
H1315 C1274 0.930 . S
H1316 C1278 0.929 . S
H1317 C1280 0.930 . S
H1318 C1286 0.929 . S
H1319 C1287 0.930 . S
Li1320 N1337 1.990 . S
Li1320 O1380 1.956 . S
Li1320 O1381 1.970 . S
Li1320 O1382 1.961 . S
Li1321 N1345 1.990 . S
Li1321 O1380 1.970 . S
Li1321 O1381 1.956 . S
Li1321 O1383 1.961 . S
Li1322 N1367 1.990 . S
Li1322 O1380 1.961 . S
Li1322 O1382 1.956 . S
Li1322 O1383 1.970 . S
Li1323 N1373 1.990 . S
Li1323 O1381 1.961 . S
Li1323 O1382 1.970 . S
Li1323 O1383 1.956 . S
C1324 C1326 1.348 . S
C1324 C1327 1.356 . S
C1324 O1380 1.325 . S
N1325 C1328 1.314 . S
N1325 C1329 1.279 . S
C1326 C1324 1.348 . S
C1326 C1328 1.353 . S
C1326 H1384 0.929 . S
C1327 C1324 1.356 . S
C1327 C1329 1.358 . S
C1327 H1385 0.930 . S
C1328 N1325 1.314 . S
C1328 C1326 1.353 . S
C1328 H1386 0.930 . S
C1329 N1325 1.279 . S
C1329 C1327 1.358 . S
C1329 H1387 0.930 . S
C1330 C1333 1.348 . S
C1330 C1334 1.356 . S
C1330 O1381 1.325 . S
C1331 N1332 1.279 . S
C1331 C1334 1.358 . S
C1331 H1388 0.930 . S
N1332 C1331 1.279 . S
N1332 C1335 1.314 . S
C1333 C1330 1.348 . S
C1333 C1335 1.353 . S
C1333 H1389 0.929 . S
C1334 C1330 1.356 . S
C1334 C1331 1.358 . S
C1334 H1390 0.930 . S
C1335 N1332 1.314 . S
C1335 C1333 1.353 . S
C1335 H1391 0.930 . S
C1336 N1337 1.314 . S
C1336 C1341 1.353 . S
C1336 H1342 0.930 . S
N1337 Li1320 1.990 . S
N1337 C1336 1.314 . S
N1337 C1339 1.279 . S
C1338 C1339 1.358 . S
C1338 C1340 1.356 . S
C1338 H1392 0.930 . S
C1339 N1337 1.279 . S
C1339 C1338 1.358 . S
C1339 H1343 0.930 . S
C1340 C1338 1.356 . S
C1340 C1341 1.348 . S
C1341 C1336 1.353 . S
C1341 C1340 1.348 . S
C1341 H1393 0.929 . S
H1342 C1336 0.930 . S
H1343 C1339 0.930 . S
C1344 N1345 1.314 . S
C1344 C1346 1.353 . S
C1344 H1350 0.930 . S
N1345 Li1321 1.990 . S
N1345 C1344 1.314 . S
N1345 C1348 1.279 . S
C1346 C1344 1.353 . S
C1346 C1349 1.348 . S
C1346 H1394 0.929 . S
C1347 C1348 1.358 . S
C1347 C1349 1.356 . S
C1347 H1395 0.930 . S
C1348 N1345 1.279 . S
C1348 C1347 1.358 . S
C1348 H1351 0.930 . S
C1349 C1346 1.348 . S
C1349 C1347 1.356 . S
H1350 C1344 0.930 . S
H1351 C1348 0.930 . S
C1352 C1354 1.348 . S
C1352 C1355 1.356 . S
C1352 O1382 1.325 . S
N1353 C1356 1.314 . S
N1353 C1357 1.279 . S
C1354 C1352 1.348 . S
C1354 C1356 1.353 . S
C1354 H1396 0.929 . S
C1355 C1352 1.356 . S
C1355 C1357 1.358 . S
C1355 H1397 0.930 . S
C1356 N1353 1.314 . S
C1356 C1354 1.353 . S
C1356 H1398 0.930 . S
C1357 N1353 1.279 . S
C1357 C1355 1.358 . S
C1357 H1399 0.930 . S
C1358 C1359 1.348 . S
C1358 C1360 1.356 . S
C1358 O1383 1.325 . S
C1359 C1358 1.348 . S
C1359 C1361 1.353 . S
C1359 H1400 0.929 . S
C1360 C1358 1.356 . S
C1360 C1362 1.358 . S
C1360 H1401 0.930 . S
C1361 C1359 1.353 . S
C1361 N1363 1.314 . S
C1361 H1402 0.930 . S
C1362 C1360 1.358 . S
C1362 N1363 1.279 . S
C1362 H1403 0.930 . S
N1363 C1361 1.314 . S
N1363 C1362 1.279 . S
C1364 C1366 1.353 . S
C1364 N1367 1.314 . S
C1364 H1370 0.930 . S
C1365 N1367 1.279 . S
C1365 C1368 1.358 . S
C1365 H1371 0.930 . S
C1366 C1364 1.353 . S
C1366 C1369 1.348 . S
C1366 H1404 0.929 . S
N1367 Li1322 1.990 . S
N1367 C1364 1.314 . S
N1367 C1365 1.279 . S
C1368 C1365 1.358 . S
C1368 C1369 1.356 . S
C1368 H1405 0.930 . S
C1369 C1366 1.348 . S
C1369 C1368 1.356 . S
H1370 C1364 0.930 . S
H1371 C1365 0.930 . S
C1372 N1373 1.314 . S
C1372 C1374 1.353 . S
C1372 H1378 0.930 . S
N1373 Li1323 1.990 . S
N1373 C1372 1.314 . S
N1373 C1376 1.279 . S
C1374 C1372 1.353 . S
C1374 C1377 1.348 . S
C1374 H1406 0.929 . S
C1375 C1376 1.358 . S
C1375 C1377 1.356 . S
C1375 H1407 0.930 . S
C1376 N1373 1.279 . S
C1376 C1375 1.358 . S
C1376 H1379 0.930 . S
C1377 C1374 1.348 . S
C1377 C1375 1.356 . S
H1378 C1372 0.930 . S
H1379 C1376 0.930 . S
O1380 Li1320 1.956 . S
O1380 Li1321 1.970 . S
O1380 Li1322 1.961 . S
O1380 C1324 1.325 . S
O1381 Li1320 1.970 . S
O1381 Li1321 1.956 . S
O1381 Li1323 1.961 . S
O1381 C1330 1.325 . S
O1382 Li1320 1.961 . S
O1382 Li1322 1.956 . S
O1382 Li1323 1.970 . S
O1382 C1352 1.325 . S
O1383 Li1321 1.961 . S
O1383 Li1322 1.970 . S
O1383 Li1323 1.956 . S
O1383 C1358 1.325 . S
H1384 C1326 0.929 . S
H1385 C1327 0.930 . S
H1386 C1328 0.930 . S
H1387 C1329 0.930 . S
H1388 C1331 0.930 . S
H1389 C1333 0.929 . S
H1390 C1334 0.930 . S
H1391 C1335 0.930 . S
H1392 C1338 0.930 . S
H1393 C1341 0.929 . S
H1394 C1346 0.929 . S
H1395 C1347 0.930 . S
H1396 C1354 0.929 . S
H1397 C1355 0.930 . S
H1398 C1356 0.930 . S
H1399 C1357 0.930 . S
H1400 C1359 0.929 . S
H1401 C1360 0.930 . S
H1402 C1361 0.930 . S
H1403 C1362 0.930 . S
H1404 C1366 0.929 . S
H1405 C1368 0.930 . S
H1406 C1374 0.929 . S
H1407 C1375 0.930 . S
Li1408 N1425 1.990 . S
Li1408 O1468 1.956 . S
Li1408 O1469 1.970 . S
Li1408 O1470 1.961 . S
Li1409 N1433 1.990 . S
Li1409 O1468 1.970 . S
Li1409 O1469 1.956 . S
Li1409 O1471 1.961 . S
Li1410 N1455 1.990 . S
Li1410 O1468 1.961 . S
Li1410 O1470 1.956 . S
Li1410 O1471 1.970 . S
Li1411 N1461 1.990 . S
Li1411 O1469 1.961 . S
Li1411 O1470 1.970 . S
Li1411 O1471 1.956 . S
C1412 C1414 1.348 . S
C1412 C1415 1.356 . S
C1412 O1468 1.325 . S
N1413 C1416 1.314 . S
N1413 C1417 1.279 . S
C1414 C1412 1.348 . S
C1414 C1416 1.353 . S
C1414 H1472 0.929 . S
C1415 C1412 1.356 . S
C1415 C1417 1.358 . S
C1415 H1473 0.930 . S
C1416 N1413 1.314 . S
C1416 C1414 1.353 . S
C1416 H1474 0.930 1_556 S
C1417 N1413 1.279 . S
C1417 C1415 1.358 . S
C1417 H1475 0.930 . S
C1418 C1421 1.348 . S
C1418 C1422 1.356 . S
C1418 O1469 1.325 . S
C1419 N1420 1.279 . S
C1419 C1422 1.358 . S
C1419 H1476 0.930 . S
N1420 C1419 1.279 . S
N1420 C1423 1.314 . S
C1421 C1418 1.348 . S
C1421 C1423 1.353 . S
C1421 H1477 0.929 . S
C1422 C1418 1.356 . S
C1422 C1419 1.358 . S
C1422 H1478 0.930 . S
C1423 N1420 1.314 . S
C1423 C1421 1.353 . S
C1423 H1479 0.930 . S
C1424 N1425 1.314 . S
C1424 C1429 1.353 . S
C1424 H1430 0.930 . S
N1425 Li1408 1.990 . S
N1425 C1424 1.314 . S
N1425 C1427 1.279 . S
C1426 C1427 1.358 . S
C1426 C1428 1.356 . S
C1426 H1480 0.930 . S
C1427 N1425 1.279 . S
C1427 C1426 1.358 . S
C1427 H1431 0.930 . S
C1428 C1426 1.356 . S
C1428 C1429 1.348 . S
C1429 C1424 1.353 . S
C1429 C1428 1.348 . S
C1429 H1481 0.929 . S
H1430 C1424 0.930 . S
H1431 C1427 0.930 . S
C1432 N1433 1.314 . S
C1432 C1434 1.353 1_556 S
C1432 H1438 0.930 . S
N1433 Li1409 1.990 . S
N1433 C1432 1.314 . S
N1433 C1436 1.279 . S
C1434 C1432 1.353 1_554 S
C1434 C1437 1.348 . S
C1434 H1482 0.929 . S
C1435 C1436 1.358 1_554 S
C1435 C1437 1.356 . S
C1435 H1483 0.930 . S
C1436 N1433 1.279 . S
C1436 C1435 1.358 1_556 S
C1436 H1439 0.930 . S
C1437 C1434 1.348 . S
C1437 C1435 1.356 . S
H1438 C1432 0.930 . S
H1439 C1436 0.930 . S
C1440 C1442 1.348 . S
C1440 C1443 1.356 . S
C1440 O1470 1.325 . S
N1441 C1444 1.314 . S
N1441 C1445 1.279 . S
C1442 C1440 1.348 . S
C1442 C1444 1.353 . S
C1442 H1484 0.929 . S
C1443 C1440 1.356 . S
C1443 C1445 1.358 . S
C1443 H1485 0.930 . S
C1444 N1441 1.314 . S
C1444 C1442 1.353 . S
C1444 H1486 0.930 . S
C1445 N1441 1.279 . S
C1445 C1443 1.358 . S
C1445 H1487 0.930 . S
C1446 C1447 1.348 . S
C1446 C1448 1.356 . S
C1446 O1471 1.325 . S
C1447 C1446 1.348 . S
C1447 C1449 1.353 . S
C1447 H1488 0.929 . S
C1448 C1446 1.356 . S
C1448 C1450 1.358 . S
C1448 H1489 0.930 . S
C1449 C1447 1.353 . S
C1449 N1451 1.314 . S
C1449 H1490 0.930 . S
C1450 C1448 1.358 . S
C1450 N1451 1.279 . S
C1450 H1491 0.930 . S
N1451 C1449 1.314 . S
N1451 C1450 1.279 . S
C1452 C1454 1.353 . S
C1452 N1455 1.314 . S
C1452 H1458 0.930 . S
C1453 N1455 1.279 . S
C1453 C1456 1.358 . S
C1453 H1459 0.930 . S
C1454 C1452 1.353 . S
C1454 C1457 1.348 . S
C1454 H1492 0.929 . S
N1455 Li1410 1.990 . S
N1455 C1452 1.314 . S
N1455 C1453 1.279 . S
C1456 C1453 1.358 . S
C1456 C1457 1.356 . S
C1456 H1493 0.930 . S
C1457 C1454 1.348 . S
C1457 C1456 1.356 . S
H1458 C1452 0.930 . S
H1459 C1453 0.930 . S
C1460 N1461 1.314 . S
C1460 C1462 1.353 . S
C1460 H1466 0.930 . S
N1461 Li1411 1.990 . S
N1461 C1460 1.314 . S
N1461 C1464 1.279 . S
C1462 C1460 1.353 . S
C1462 C1465 1.348 . S
C1462 H1494 0.929 . S
C1463 C1464 1.358 . S
C1463 C1465 1.356 . S
C1463 H1495 0.930 . S
C1464 N1461 1.279 . S
C1464 C1463 1.358 . S
C1464 H1467 0.930 . S
C1465 C1462 1.348 . S
C1465 C1463 1.356 . S
H1466 C1460 0.930 . S
H1467 C1464 0.930 . S
O1468 Li1408 1.956 . S
O1468 Li1409 1.970 . S
O1468 Li1410 1.961 . S
O1468 C1412 1.325 . S
O1469 Li1408 1.970 . S
O1469 Li1409 1.956 . S
O1469 Li1411 1.961 . S
O1469 C1418 1.325 . S
O1470 Li1408 1.961 . S
O1470 Li1410 1.956 . S
O1470 Li1411 1.970 . S
O1470 C1440 1.325 . S
O1471 Li1409 1.961 . S
O1471 Li1410 1.970 . S
O1471 Li1411 1.956 . S
O1471 C1446 1.325 . S
H1472 C1414 0.929 . S
H1473 C1415 0.930 . S
H1474 C1416 0.930 1_554 S
H1475 C1417 0.930 . S
H1476 C1419 0.930 . S
H1477 C1421 0.929 . S
H1478 C1422 0.930 . S
H1479 C1423 0.930 . S
H1480 C1426 0.930 . S
H1481 C1429 0.929 . S
H1482 C1434 0.929 . S
H1483 C1435 0.930 . S
H1484 C1442 0.929 . S
H1485 C1443 0.930 . S
H1486 C1444 0.930 . S
H1487 C1445 0.930 . S
H1488 C1447 0.929 . S
H1489 C1448 0.930 . S
H1490 C1449 0.930 . S
H1491 C1450 0.930 . S
H1492 C1454 0.929 . S
H1493 C1456 0.930 . S
H1494 C1462 0.929 . S
H1495 C1463 0.930 . S
Li1496 N1513 1.990 . S
Li1496 O1556 1.956 . S
Li1496 O1557 1.970 . S
Li1496 O1558 1.961 . S
Li1497 N1521 1.990 . S
Li1497 O1556 1.970 . S
Li1497 O1557 1.956 . S
Li1497 O1559 1.961 . S
Li1498 N1543 1.990 . S
Li1498 O1556 1.961 . S
Li1498 O1558 1.956 . S
Li1498 O1559 1.970 . S
Li1499 N1549 1.990 . S
Li1499 O1557 1.961 . S
Li1499 O1558 1.970 . S
Li1499 O1559 1.956 . S
C1500 C1502 1.348 . S
C1500 C1503 1.356 . S
C1500 O1556 1.325 . S
N1501 C1504 1.314 . S
N1501 C1505 1.279 . S
C1502 C1500 1.348 . S
C1502 C1504 1.353 . S
C1502 H1560 0.929 . S
C1503 C1500 1.356 . S
C1503 C1505 1.358 . S
C1503 H1561 0.930 . S
C1504 N1501 1.314 . S
C1504 C1502 1.353 . S
C1504 H1562 0.930 . S
C1505 N1501 1.279 . S
C1505 C1503 1.358 . S
C1505 H1563 0.930 . S
C1506 C1509 1.348 . S
C1506 C1510 1.356 . S
C1506 O1557 1.325 . S
C1507 N1508 1.279 . S
C1507 C1510 1.358 . S
C1507 H1564 0.930 . S
N1508 C1507 1.279 . S
N1508 C1511 1.314 . S
C1509 C1506 1.348 . S
C1509 C1511 1.353 . S
C1509 H1565 0.929 . S
C1510 C1506 1.356 . S
C1510 C1507 1.358 . S
C1510 H1566 0.930 . S
C1511 N1508 1.314 . S
C1511 C1509 1.353 . S
C1511 H1567 0.930 . S
C1512 N1513 1.314 . S
C1512 C1517 1.353 . S
C1512 H1518 0.930 . S
N1513 Li1496 1.990 . S
N1513 C1512 1.314 . S
N1513 C1515 1.279 . S
C1514 C1515 1.358 . S
C1514 C1516 1.356 . S
C1514 H1568 0.930 . S
C1515 N1513 1.279 . S
C1515 C1514 1.358 . S
C1515 H1519 0.930 . S
C1516 C1514 1.356 . S
C1516 C1517 1.348 . S
C1517 C1512 1.353 . S
C1517 C1516 1.348 . S
C1517 H1569 0.929 . S
H1518 C1512 0.930 . S
H1519 C1515 0.930 . S
C1520 N1521 1.314 . S
C1520 C1522 1.353 . S
C1520 H1526 0.930 . S
N1521 Li1497 1.990 . S
N1521 C1520 1.314 . S
N1521 C1524 1.279 . S
C1522 C1520 1.353 . S
C1522 C1525 1.348 . S
C1522 H1570 0.929 . S
C1523 C1524 1.358 . S
C1523 C1525 1.356 . S
C1523 H1571 0.930 . S
C1524 N1521 1.279 . S
C1524 C1523 1.358 . S
C1524 H1527 0.930 . S
C1525 C1522 1.348 . S
C1525 C1523 1.356 . S
H1526 C1520 0.930 . S
H1527 C1524 0.930 . S
C1528 C1530 1.348 . S
C1528 C1531 1.356 . S
C1528 O1558 1.325 . S
N1529 C1532 1.314 . S
N1529 C1533 1.279 . S
C1530 C1528 1.348 . S
C1530 C1532 1.353 . S
C1530 H1572 0.929 . S
C1531 C1528 1.356 . S
C1531 C1533 1.358 . S
C1531 H1573 0.930 . S
C1532 N1529 1.314 . S
C1532 C1530 1.353 . S
C1532 H1574 0.930 . S
C1533 N1529 1.279 . S
C1533 C1531 1.358 . S
C1533 H1575 0.930 . S
C1534 C1535 1.348 . S
C1534 C1536 1.356 . S
C1534 O1559 1.325 . S
C1535 C1534 1.348 . S
C1535 C1537 1.353 . S
C1535 H1576 0.929 . S
C1536 C1534 1.356 . S
C1536 C1538 1.358 . S
C1536 H1577 0.930 . S
C1537 C1535 1.353 . S
C1537 N1539 1.314 . S
C1537 H1578 0.930 . S
C1538 C1536 1.358 . S
C1538 N1539 1.279 . S
C1538 H1579 0.930 . S
N1539 C1537 1.314 . S
N1539 C1538 1.279 . S
C1540 C1542 1.353 . S
C1540 N1543 1.314 . S
C1540 H1546 0.930 . S
C1541 N1543 1.279 . S
C1541 C1544 1.358 . S
C1541 H1547 0.930 . S
C1542 C1540 1.353 . S
C1542 C1545 1.348 . S
C1542 H1580 0.929 . S
N1543 Li1498 1.990 . S
N1543 C1540 1.314 . S
N1543 C1541 1.279 . S
C1544 C1541 1.358 . S
C1544 C1545 1.356 . S
C1544 H1581 0.930 . S
C1545 C1542 1.348 . S
C1545 C1544 1.356 . S
H1546 C1540 0.930 . S
H1547 C1541 0.930 . S
C1548 N1549 1.314 . S
C1548 C1550 1.353 . S
C1548 H1554 0.930 . S
N1549 Li1499 1.990 . S
N1549 C1548 1.314 . S
N1549 C1552 1.279 . S
C1550 C1548 1.353 . S
C1550 C1553 1.348 . S
C1550 H1582 0.929 . S
C1551 C1552 1.358 . S
C1551 C1553 1.356 . S
C1551 H1583 0.930 . S
C1552 N1549 1.279 . S
C1552 C1551 1.358 . S
C1552 H1555 0.930 . S
C1553 C1550 1.348 . S
C1553 C1551 1.356 . S
H1554 C1548 0.930 . S
H1555 C1552 0.930 . S
O1556 Li1496 1.956 . S
O1556 Li1497 1.970 . S
O1556 Li1498 1.961 . S
O1556 C1500 1.325 . S
O1557 Li1496 1.970 . S
O1557 Li1497 1.956 . S
O1557 Li1499 1.961 . S
O1557 C1506 1.325 . S
O1558 Li1496 1.961 . S
O1558 Li1498 1.956 . S
O1558 Li1499 1.970 . S
O1558 C1528 1.325 . S
O1559 Li1497 1.961 . S
O1559 Li1498 1.970 . S
O1559 Li1499 1.956 . S
O1559 C1534 1.325 . S
H1560 C1502 0.929 . S
H1561 C1503 0.930 . S
H1562 C1504 0.930 . S
H1563 C1505 0.930 . S
H1564 C1507 0.930 . S
H1565 C1509 0.929 . S
H1566 C1510 0.930 . S
H1567 C1511 0.930 . S
H1568 C1514 0.930 . S
H1569 C1517 0.929 . S
H1570 C1522 0.929 . S
H1571 C1523 0.930 . S
H1572 C1530 0.929 . S
H1573 C1531 0.930 . S
H1574 C1532 0.930 . S
H1575 C1533 0.930 . S
H1576 C1535 0.929 . S
H1577 C1536 0.930 . S
H1578 C1537 0.930 . S
H1579 C1538 0.930 . S
H1580 C1542 0.929 . S
H1581 C1544 0.930 . S
H1582 C1550 0.929 . S
H1583 C1551 0.930 . S
Li1584 N1601 1.990 . S
Li1584 O1644 1.956 . S
Li1584 O1645 1.970 . S
Li1584 O1646 1.961 . S
Li1585 N1609 1.990 . S
Li1585 O1644 1.970 . S
Li1585 O1645 1.956 . S
Li1585 O1647 1.961 . S
Li1586 N1631 1.990 . S
Li1586 O1644 1.961 . S
Li1586 O1646 1.956 . S
Li1586 O1647 1.970 . S
Li1587 N1637 1.990 . S
Li1587 O1645 1.961 . S
Li1587 O1646 1.970 . S
Li1587 O1647 1.956 . S
C1588 C1590 1.348 . S
C1588 C1591 1.356 . S
C1588 O1644 1.325 . S
N1589 C1592 1.314 . S
N1589 C1593 1.279 . S
C1590 C1588 1.348 . S
C1590 C1592 1.353 . S
C1590 H1648 0.929 . S
C1591 C1588 1.356 . S
C1591 C1593 1.358 . S
C1591 H1649 0.930 . S
C1592 N1589 1.314 . S
C1592 C1590 1.353 . S
C1592 H1650 0.930 . S
C1593 N1589 1.279 . S
C1593 C1591 1.358 . S
C1593 H1651 0.930 . S
C1594 C1597 1.348 . S
C1594 C1598 1.356 . S
C1594 O1645 1.325 . S
C1595 N1596 1.279 . S
C1595 C1598 1.358 . S
C1595 H1652 0.930 . S
N1596 C1595 1.279 . S
N1596 C1599 1.314 . S
C1597 C1594 1.348 . S
C1597 C1599 1.353 . S
C1597 H1653 0.929 . S
C1598 C1594 1.356 . S
C1598 C1595 1.358 . S
C1598 H1654 0.930 . S
C1599 N1596 1.314 . S
C1599 C1597 1.353 . S
C1599 H1655 0.930 . S
C1600 N1601 1.314 . S
C1600 C1605 1.353 . S
C1600 H1606 0.930 . S
N1601 Li1584 1.990 . S
N1601 C1600 1.314 . S
N1601 C1603 1.279 . S
C1602 C1603 1.358 . S
C1602 C1604 1.356 . S
C1602 H1656 0.930 . S
C1603 N1601 1.279 . S
C1603 C1602 1.358 . S
C1603 H1607 0.930 . S
C1604 C1602 1.356 . S
C1604 C1605 1.348 . S
C1605 C1600 1.353 . S
C1605 C1604 1.348 . S
C1605 H1657 0.929 . S
H1606 C1600 0.930 . S
H1607 C1603 0.930 . S
C1608 N1609 1.314 . S
C1608 C1610 1.353 . S
C1608 H1614 0.930 . S
N1609 Li1585 1.990 . S
N1609 C1608 1.314 . S
N1609 C1612 1.279 . S
C1610 C1608 1.353 . S
C1610 C1613 1.348 . S
C1610 H1658 0.929 . S
C1611 C1612 1.358 . S
C1611 C1613 1.356 . S
C1611 H1659 0.930 . S
C1612 N1609 1.279 . S
C1612 C1611 1.358 . S
C1612 H1615 0.930 . S
C1613 C1610 1.348 . S
C1613 C1611 1.356 . S
H1614 C1608 0.930 . S
H1615 C1612 0.930 . S
C1616 C1618 1.348 . S
C1616 C1619 1.356 . S
C1616 O1646 1.325 . S
N1617 C1620 1.314 . S
N1617 C1621 1.279 . S
C1618 C1616 1.348 . S
C1618 C1620 1.353 . S
C1618 H1660 0.929 . S
C1619 C1616 1.356 . S
C1619 C1621 1.358 . S
C1619 H1661 0.930 . S
C1620 N1617 1.314 . S
C1620 C1618 1.353 . S
C1620 H1662 0.930 . S
C1621 N1617 1.279 . S
C1621 C1619 1.358 . S
C1621 H1663 0.930 . S
C1622 C1623 1.348 . S
C1622 C1624 1.356 . S
C1622 O1647 1.325 . S
C1623 C1622 1.348 . S
C1623 C1625 1.353 . S
C1623 H1664 0.929 . S
C1624 C1622 1.356 . S
C1624 C1626 1.358 . S
C1624 H1665 0.930 . S
C1625 C1623 1.353 . S
C1625 N1627 1.314 . S
C1625 H1666 0.930 . S
C1626 C1624 1.358 . S
C1626 N1627 1.279 . S
C1626 H1667 0.930 . S
N1627 C1625 1.314 . S
N1627 C1626 1.279 . S
C1628 C1630 1.353 . S
C1628 N1631 1.314 . S
C1628 H1634 0.930 . S
C1629 N1631 1.279 . S
C1629 C1632 1.358 . S
C1629 H1635 0.930 . S
C1630 C1628 1.353 . S
C1630 C1633 1.348 . S
C1630 H1668 0.929 . S
N1631 Li1586 1.990 . S
N1631 C1628 1.314 . S
N1631 C1629 1.279 . S
C1632 C1629 1.358 . S
C1632 C1633 1.356 . S
C1632 H1669 0.930 . S
C1633 C1630 1.348 . S
C1633 C1632 1.356 . S
H1634 C1628 0.930 . S
H1635 C1629 0.930 . S
C1636 N1637 1.314 . S
C1636 C1638 1.353 . S
C1636 H1642 0.930 . S
N1637 Li1587 1.990 . S
N1637 C1636 1.314 . S
N1637 C1640 1.279 . S
C1638 C1636 1.353 . S
C1638 C1641 1.348 . S
C1638 H1670 0.929 . S
C1639 C1640 1.358 . S
C1639 C1641 1.356 . S
C1639 H1671 0.930 . S
C1640 N1637 1.279 . S
C1640 C1639 1.358 . S
C1640 H1643 0.930 . S
C1641 C1638 1.348 . S
C1641 C1639 1.356 . S
H1642 C1636 0.930 . S
H1643 C1640 0.930 . S
O1644 Li1584 1.956 . S
O1644 Li1585 1.970 . S
O1644 Li1586 1.961 . S
O1644 C1588 1.325 . S
O1645 Li1584 1.970 . S
O1645 Li1585 1.956 . S
O1645 Li1587 1.961 . S
O1645 C1594 1.325 . S
O1646 Li1584 1.961 . S
O1646 Li1586 1.956 . S
O1646 Li1587 1.970 . S
O1646 C1616 1.325 . S
O1647 Li1585 1.961 . S
O1647 Li1586 1.970 . S
O1647 Li1587 1.956 . S
O1647 C1622 1.325 . S
H1648 C1590 0.929 . S
H1649 C1591 0.930 . S
H1650 C1592 0.930 . S
H1651 C1593 0.930 . S
H1652 C1595 0.930 . S
H1653 C1597 0.929 . S
H1654 C1598 0.930 . S
H1655 C1599 0.930 . S
H1656 C1602 0.930 . S
H1657 C1605 0.929 . S
H1658 C1610 0.929 . S
H1659 C1611 0.930 . S
H1660 C1618 0.929 . S
H1661 C1619 0.930 . S
H1662 C1620 0.930 . S
H1663 C1621 0.930 . S
H1664 C1623 0.929 . S
H1665 C1624 0.930 . S
H1666 C1625 0.930 . S
H1667 C1626 0.930 . S
H1668 C1630 0.929 . S
H1669 C1632 0.930 . S
H1670 C1638 0.929 . S
H1671 C1639 0.930 . S
Li1672 N1689 1.990 . S
Li1672 O1732 1.956 . S
Li1672 O1733 1.970 . S
Li1672 O1734 1.961 . S
Li1673 N1697 1.990 . S
Li1673 O1732 1.970 . S
Li1673 O1733 1.956 . S
Li1673 O1735 1.961 . S
Li1674 N1719 1.990 . S
Li1674 O1732 1.961 . S
Li1674 O1734 1.956 . S
Li1674 O1735 1.970 . S
Li1675 N1725 1.990 . S
Li1675 O1733 1.961 . S
Li1675 O1734 1.970 . S
Li1675 O1735 1.956 . S
C1676 C1678 1.348 . S
C1676 C1679 1.356 . S
C1676 O1732 1.325 . S
N1677 C1680 1.314 . S
N1677 C1681 1.279 . S
C1678 C1676 1.348 . S
C1678 C1680 1.353 . S
C1678 H1736 0.929 . S
C1679 C1676 1.356 . S
C1679 C1681 1.358 . S
C1679 H1737 0.930 . S
C1680 N1677 1.314 . S
C1680 C1678 1.353 . S
C1680 H1738 0.930 . S
C1681 N1677 1.279 . S
C1681 C1679 1.358 . S
C1681 H1739 0.930 . S
C1682 C1685 1.348 . S
C1682 C1686 1.356 . S
C1682 O1733 1.325 . S
C1683 N1684 1.279 . S
C1683 C1686 1.358 . S
C1683 H1740 0.930 . S
N1684 C1683 1.279 . S
N1684 C1687 1.314 . S
C1685 C1682 1.348 . S
C1685 C1687 1.353 . S
C1685 H1741 0.929 . S
C1686 C1682 1.356 . S
C1686 C1683 1.358 . S
C1686 H1742 0.930 . S
C1687 N1684 1.314 . S
C1687 C1685 1.353 . S
C1687 H1743 0.930 . S
C1688 N1689 1.314 . S
C1688 C1693 1.353 . S
C1688 H1694 0.930 . S
N1689 Li1672 1.990 . S
N1689 C1688 1.314 . S
N1689 C1691 1.279 . S
C1690 C1691 1.358 . S
C1690 C1692 1.356 . S
C1690 H1744 0.930 . S
C1691 N1689 1.279 . S
C1691 C1690 1.358 . S
C1691 H1695 0.930 . S
C1692 C1690 1.356 . S
C1692 C1693 1.348 . S
C1693 C1688 1.353 . S
C1693 C1692 1.348 . S
C1693 H1745 0.929 . S
H1694 C1688 0.930 . S
H1695 C1691 0.930 . S
C1696 N1697 1.314 . S
C1696 C1698 1.353 . S
C1696 H1702 0.930 . S
N1697 Li1673 1.990 . S
N1697 C1696 1.314 . S
N1697 C1700 1.279 . S
C1698 C1696 1.353 . S
C1698 C1701 1.348 . S
C1698 H1746 0.929 . S
C1699 C1700 1.358 . S
C1699 C1701 1.356 . S
C1699 H1747 0.930 . S
C1700 N1697 1.279 . S
C1700 C1699 1.358 . S
C1700 H1703 0.930 . S
C1701 C1698 1.348 . S
C1701 C1699 1.356 . S
H1702 C1696 0.930 . S
H1703 C1700 0.930 . S
C1704 C1706 1.348 . S
C1704 C1707 1.356 . S
C1704 O1734 1.325 . S
N1705 C1708 1.314 . S
N1705 C1709 1.279 . S
C1706 C1704 1.348 . S
C1706 C1708 1.353 . S
C1706 H1748 0.929 . S
C1707 C1704 1.356 . S
C1707 C1709 1.358 . S
C1707 H1749 0.930 . S
C1708 N1705 1.314 . S
C1708 C1706 1.353 . S
C1708 H1750 0.930 . S
C1709 N1705 1.279 . S
C1709 C1707 1.358 . S
C1709 H1751 0.930 . S
C1710 C1711 1.348 . S
C1710 C1712 1.356 . S
C1710 O1735 1.325 . S
C1711 C1710 1.348 . S
C1711 C1713 1.353 . S
C1711 H1752 0.929 . S
C1712 C1710 1.356 . S
C1712 C1714 1.358 . S
C1712 H1753 0.930 . S
C1713 C1711 1.353 . S
C1713 N1715 1.314 . S
C1713 H1754 0.930 . S
C1714 C1712 1.358 . S
C1714 N1715 1.279 . S
C1714 H1755 0.930 . S
N1715 C1713 1.314 . S
N1715 C1714 1.279 . S
C1716 C1718 1.353 . S
C1716 N1719 1.314 . S
C1716 H1722 0.930 . S
C1717 N1719 1.279 . S
C1717 C1720 1.358 . S
C1717 H1723 0.930 . S
C1718 C1716 1.353 . S
C1718 C1721 1.348 . S
C1718 H1756 0.929 . S
N1719 Li1674 1.990 . S
N1719 C1716 1.314 . S
N1719 C1717 1.279 . S
C1720 C1717 1.358 . S
C1720 C1721 1.356 . S
C1720 H1757 0.930 . S
C1721 C1718 1.348 . S
C1721 C1720 1.356 . S
H1722 C1716 0.930 . S
H1723 C1717 0.930 . S
C1724 N1725 1.314 . S
C1724 C1726 1.353 . S
C1724 H1730 0.930 . S
N1725 Li1675 1.990 . S
N1725 C1724 1.314 . S
N1725 C1728 1.279 . S
C1726 C1724 1.353 . S
C1726 C1729 1.348 . S
C1726 H1758 0.929 . S
C1727 C1728 1.358 . S
C1727 C1729 1.356 . S
C1727 H1759 0.930 . S
C1728 N1725 1.279 . S
C1728 C1727 1.358 . S
C1728 H1731 0.930 . S
C1729 C1726 1.348 . S
C1729 C1727 1.356 . S
H1730 C1724 0.930 . S
H1731 C1728 0.930 . S
O1732 Li1672 1.956 . S
O1732 Li1673 1.970 . S
O1732 Li1674 1.961 . S
O1732 C1676 1.325 . S
O1733 Li1672 1.970 . S
O1733 Li1673 1.956 . S
O1733 Li1675 1.961 . S
O1733 C1682 1.325 . S
O1734 Li1672 1.961 . S
O1734 Li1674 1.956 . S
O1734 Li1675 1.970 . S
O1734 C1704 1.325 . S
O1735 Li1673 1.961 . S
O1735 Li1674 1.970 . S
O1735 Li1675 1.956 . S
O1735 C1710 1.325 . S
H1736 C1678 0.929 . S
H1737 C1679 0.930 . S
H1738 C1680 0.930 . S
H1739 C1681 0.930 . S
H1740 C1683 0.930 . S
H1741 C1685 0.929 . S
H1742 C1686 0.930 . S
H1743 C1687 0.930 . S
H1744 C1690 0.930 . S
H1745 C1693 0.929 . S
H1746 C1698 0.929 . S
H1747 C1699 0.930 . S
H1748 C1706 0.929 . S
H1749 C1707 0.930 . S
H1750 C1708 0.930 . S
H1751 C1709 0.930 . S
H1752 C1711 0.929 . S
H1753 C1712 0.930 . S
H1754 C1713 0.930 . S
H1755 C1714 0.930 . S
H1756 C1718 0.929 . S
H1757 C1720 0.930 . S
H1758 C1726 0.929 . S
H1759 C1727 0.930 . S
Li1760 N1777 1.990 . S
Li1760 O1820 1.956 . S
Li1760 O1821 1.970 . S
Li1760 O1822 1.961 . S
Li1761 N1785 1.990 . S
Li1761 O1820 1.970 . S
Li1761 O1821 1.956 . S
Li1761 O1823 1.961 . S
Li1762 N1807 1.990 . S
Li1762 O1820 1.961 . S
Li1762 O1822 1.956 . S
Li1762 O1823 1.970 . S
Li1763 N1813 1.990 . S
Li1763 O1821 1.961 . S
Li1763 O1822 1.970 . S
Li1763 O1823 1.956 . S
C1764 C1766 1.348 . S
C1764 C1767 1.356 . S
C1764 O1820 1.325 . S
N1765 C1768 1.314 . S
N1765 C1769 1.279 . S
C1766 C1764 1.348 . S
C1766 C1768 1.353 . S
C1766 H1824 0.929 . S
C1767 C1764 1.356 . S
C1767 C1769 1.358 . S
C1767 H1825 0.930 . S
C1768 N1765 1.314 . S
C1768 C1766 1.353 . S
C1768 H1826 0.930 . S
C1769 N1765 1.279 . S
C1769 C1767 1.358 . S
C1769 H1827 0.930 . S
C1770 C1773 1.348 . S
C1770 C1774 1.356 . S
C1770 O1821 1.325 . S
C1771 N1772 1.279 . S
C1771 C1774 1.358 . S
C1771 H1828 0.930 . S
N1772 C1771 1.279 . S
N1772 C1775 1.314 . S
C1773 C1770 1.348 . S
C1773 C1775 1.353 . S
C1773 H1829 0.929 . S
C1774 C1770 1.356 . S
C1774 C1771 1.358 . S
C1774 H1830 0.930 . S
C1775 N1772 1.314 . S
C1775 C1773 1.353 . S
C1775 H1831 0.930 . S
C1776 N1777 1.314 . S
C1776 C1781 1.353 . S
C1776 H1782 0.930 . S
N1777 Li1760 1.990 . S
N1777 C1776 1.314 . S
N1777 C1779 1.279 . S
C1778 C1779 1.358 . S
C1778 C1780 1.356 . S
C1778 H1832 0.930 . S
C1779 N1777 1.279 . S
C1779 C1778 1.358 . S
C1779 H1783 0.930 . S
C1780 C1778 1.356 . S
C1780 C1781 1.348 . S
C1781 C1776 1.353 . S
C1781 C1780 1.348 . S
C1781 H1833 0.929 . S
H1782 C1776 0.930 . S
H1783 C1779 0.930 . S
C1784 N1785 1.314 . S
C1784 C1786 1.353 . S
C1784 H1790 0.930 . S
N1785 Li1761 1.990 . S
N1785 C1784 1.314 . S
N1785 C1788 1.279 . S
C1786 C1784 1.353 . S
C1786 C1789 1.348 . S
C1786 H1834 0.929 . S
C1787 C1788 1.358 . S
C1787 C1789 1.356 . S
C1787 H1835 0.930 . S
C1788 N1785 1.279 . S
C1788 C1787 1.358 . S
C1788 H1791 0.930 . S
C1789 C1786 1.348 . S
C1789 C1787 1.356 . S
H1790 C1784 0.930 . S
H1791 C1788 0.930 . S
C1792 C1794 1.348 . S
C1792 C1795 1.356 . S
C1792 O1822 1.325 . S
N1793 C1796 1.314 . S
N1793 C1797 1.279 . S
C1794 C1792 1.348 . S
C1794 C1796 1.353 . S
C1794 H1836 0.929 . S
C1795 C1792 1.356 . S
C1795 C1797 1.358 . S
C1795 H1837 0.930 . S
C1796 N1793 1.314 . S
C1796 C1794 1.353 . S
C1796 H1838 0.930 . S
C1797 N1793 1.279 . S
C1797 C1795 1.358 . S
C1797 H1839 0.930 . S
C1798 C1799 1.348 . S
C1798 C1800 1.356 . S
C1798 O1823 1.325 . S
C1799 C1798 1.348 . S
C1799 C1801 1.353 . S
C1799 H1840 0.929 . S
C1800 C1798 1.356 . S
C1800 C1802 1.358 . S
C1800 H1841 0.930 . S
C1801 C1799 1.353 . S
C1801 N1803 1.314 . S
C1801 H1842 0.930 . S
C1802 C1800 1.358 . S
C1802 N1803 1.279 . S
C1802 H1843 0.930 . S
N1803 C1801 1.314 . S
N1803 C1802 1.279 . S
C1804 C1806 1.353 . S
C1804 N1807 1.314 . S
C1804 H1810 0.930 . S
C1805 N1807 1.279 . S
C1805 C1808 1.358 . S
C1805 H1811 0.930 . S
C1806 C1804 1.353 . S
C1806 C1809 1.348 . S
C1806 H1844 0.929 . S
N1807 Li1762 1.990 . S
N1807 C1804 1.314 . S
N1807 C1805 1.279 . S
C1808 C1805 1.358 . S
C1808 C1809 1.356 . S
C1808 H1845 0.930 . S
C1809 C1806 1.348 . S
C1809 C1808 1.356 . S
H1810 C1804 0.930 . S
H1811 C1805 0.930 . S
C1812 N1813 1.314 . S
C1812 C1814 1.353 . S
C1812 H1818 0.930 . S
N1813 Li1763 1.990 . S
N1813 C1812 1.314 . S
N1813 C1816 1.279 . S
C1814 C1812 1.353 . S
C1814 C1817 1.348 . S
C1814 H1846 0.929 . S
C1815 C1816 1.358 . S
C1815 C1817 1.356 . S
C1815 H1847 0.930 . S
C1816 N1813 1.279 . S
C1816 C1815 1.358 . S
C1816 H1819 0.930 . S
C1817 C1814 1.348 . S
C1817 C1815 1.356 . S
H1818 C1812 0.930 . S
H1819 C1816 0.930 . S
O1820 Li1760 1.956 . S
O1820 Li1761 1.970 . S
O1820 Li1762 1.961 . S
O1820 C1764 1.325 . S
O1821 Li1760 1.970 . S
O1821 Li1761 1.956 . S
O1821 Li1763 1.961 . S
O1821 C1770 1.325 . S
O1822 Li1760 1.961 . S
O1822 Li1762 1.956 . S
O1822 Li1763 1.970 . S
O1822 C1792 1.325 . S
O1823 Li1761 1.961 . S
O1823 Li1762 1.970 . S
O1823 Li1763 1.956 . S
O1823 C1798 1.325 . S
H1824 C1766 0.929 . S
H1825 C1767 0.930 . S
H1826 C1768 0.930 . S
H1827 C1769 0.930 . S
H1828 C1771 0.930 . S
H1829 C1773 0.929 . S
H1830 C1774 0.930 . S
H1831 C1775 0.930 . S
H1832 C1778 0.930 . S
H1833 C1781 0.929 . S
H1834 C1786 0.929 . S
H1835 C1787 0.930 . S
H1836 C1794 0.929 . S
H1837 C1795 0.930 . S
H1838 C1796 0.930 . S
H1839 C1797 0.930 . S
H1840 C1799 0.929 . S
H1841 C1800 0.930 . S
H1842 C1801 0.930 . S
H1843 C1802 0.930 . S
H1844 C1806 0.929 . S
H1845 C1808 0.930 . S
H1846 C1814 0.929 . S
H1847 C1815 0.930 . S
Li1848 N1865 1.990 . S
Li1848 O1908 1.956 . S
Li1848 O1909 1.970 . S
Li1848 O1910 1.961 . S
Li1849 N1873 1.990 . S
Li1849 O1908 1.970 . S
Li1849 O1909 1.956 . S
Li1849 O1911 1.961 . S
Li1850 N1895 1.990 . S
Li1850 O1908 1.961 . S
Li1850 O1910 1.956 . S
Li1850 O1911 1.970 . S
Li1851 N1901 1.990 . S
Li1851 O1909 1.961 . S
Li1851 O1910 1.970 . S
Li1851 O1911 1.956 . S
C1852 C1854 1.348 . S
C1852 C1855 1.356 . S
C1852 O1908 1.325 . S
N1853 C1856 1.314 . S
N1853 C1857 1.279 . S
C1854 C1852 1.348 . S
C1854 C1856 1.353 . S
C1854 H1912 0.929 . S
C1855 C1852 1.356 . S
C1855 C1857 1.358 . S
C1855 H1913 0.930 . S
C1856 N1853 1.314 . S
C1856 C1854 1.353 . S
C1856 H1914 0.930 . S
C1857 N1853 1.279 . S
C1857 C1855 1.358 . S
C1857 H1915 0.930 . S
C1858 C1861 1.348 . S
C1858 C1862 1.356 . S
C1858 O1909 1.325 . S
C1859 N1860 1.279 . S
C1859 C1862 1.358 . S
C1859 H1916 0.930 . S
N1860 C1859 1.279 . S
N1860 C1863 1.314 . S
C1861 C1858 1.348 . S
C1861 C1863 1.353 . S
C1861 H1917 0.929 . S
C1862 C1858 1.356 . S
C1862 C1859 1.358 . S
C1862 H1918 0.930 . S
C1863 N1860 1.314 . S
C1863 C1861 1.353 . S
C1863 H1919 0.930 . S
C1864 N1865 1.314 . S
C1864 C1869 1.353 . S
C1864 H1870 0.930 . S
N1865 Li1848 1.990 . S
N1865 C1864 1.314 . S
N1865 C1867 1.279 . S
C1866 C1867 1.358 . S
C1866 C1868 1.356 . S
C1866 H1920 0.930 . S
C1867 N1865 1.279 . S
C1867 C1866 1.358 . S
C1867 H1871 0.930 . S
C1868 C1866 1.356 . S
C1868 C1869 1.348 . S
C1869 C1864 1.353 . S
C1869 C1868 1.348 . S
C1869 H1921 0.929 . S
H1870 C1864 0.930 . S
H1871 C1867 0.930 . S
C1872 N1873 1.314 . S
C1872 C1874 1.353 . S
C1872 H1878 0.930 . S
N1873 Li1849 1.990 . S
N1873 C1872 1.314 . S
N1873 C1876 1.279 . S
C1874 C1872 1.353 . S
C1874 C1877 1.348 . S
C1874 H1922 0.929 . S
C1875 C1876 1.358 . S
C1875 C1877 1.356 . S
C1875 H1923 0.930 . S
C1876 N1873 1.279 . S
C1876 C1875 1.358 . S
C1876 H1879 0.930 . S
C1877 C1874 1.348 . S
C1877 C1875 1.356 . S
H1878 C1872 0.930 . S
H1879 C1876 0.930 . S
C1880 C1882 1.348 . S
C1880 C1883 1.356 . S
C1880 O1910 1.325 . S
N1881 C1884 1.314 . S
N1881 C1885 1.279 . S
C1882 C1880 1.348 . S
C1882 C1884 1.353 . S
C1882 H1924 0.929 . S
C1883 C1880 1.356 . S
C1883 C1885 1.358 . S
C1883 H1925 0.930 . S
C1884 N1881 1.314 . S
C1884 C1882 1.353 . S
C1884 H1926 0.930 . S
C1885 N1881 1.279 . S
C1885 C1883 1.358 . S
C1885 H1927 0.930 . S
C1886 C1887 1.348 . S
C1886 C1888 1.356 . S
C1886 O1911 1.325 . S
C1887 C1886 1.348 . S
C1887 C1889 1.353 . S
C1887 H1928 0.929 . S
C1888 C1886 1.356 . S
C1888 C1890 1.358 . S
C1888 H1929 0.930 . S
C1889 C1887 1.353 . S
C1889 N1891 1.314 . S
C1889 H1930 0.930 . S
C1890 C1888 1.358 . S
C1890 N1891 1.279 . S
C1890 H1931 0.930 . S
N1891 C1889 1.314 . S
N1891 C1890 1.279 . S
C1892 C1894 1.353 . S
C1892 N1895 1.314 . S
C1892 H1898 0.930 . S
C1893 N1895 1.279 . S
C1893 C1896 1.358 . S
C1893 H1899 0.930 . S
C1894 C1892 1.353 . S
C1894 C1897 1.348 . S
C1894 H1932 0.929 . S
N1895 Li1850 1.990 . S
N1895 C1892 1.314 . S
N1895 C1893 1.279 . S
C1896 C1893 1.358 . S
C1896 C1897 1.356 . S
C1896 H1933 0.930 . S
C1897 C1894 1.348 . S
C1897 C1896 1.356 . S
H1898 C1892 0.930 . S
H1899 C1893 0.930 . S
C1900 N1901 1.314 . S
C1900 C1902 1.353 . S
C1900 H1906 0.930 . S
N1901 Li1851 1.990 . S
N1901 C1900 1.314 . S
N1901 C1904 1.279 . S
C1902 C1900 1.353 . S
C1902 C1905 1.348 . S
C1902 H1934 0.929 . S
C1903 C1904 1.358 . S
C1903 C1905 1.356 . S
C1903 H1935 0.930 . S
C1904 N1901 1.279 . S
C1904 C1903 1.358 . S
C1904 H1907 0.930 . S
C1905 C1902 1.348 . S
C1905 C1903 1.356 . S
H1906 C1900 0.930 . S
H1907 C1904 0.930 . S
O1908 Li1848 1.956 . S
O1908 Li1849 1.970 . S
O1908 Li1850 1.961 . S
O1908 C1852 1.325 . S
O1909 Li1848 1.970 . S
O1909 Li1849 1.956 . S
O1909 Li1851 1.961 . S
O1909 C1858 1.325 . S
O1910 Li1848 1.961 . S
O1910 Li1850 1.956 . S
O1910 Li1851 1.970 . S
O1910 C1880 1.325 . S
O1911 Li1849 1.961 . S
O1911 Li1850 1.970 . S
O1911 Li1851 1.956 . S
O1911 C1886 1.325 . S
H1912 C1854 0.929 . S
H1913 C1855 0.930 . S
H1914 C1856 0.930 . S
H1915 C1857 0.930 . S
H1916 C1859 0.930 . S
H1917 C1861 0.929 . S
H1918 C1862 0.930 . S
H1919 C1863 0.930 . S
H1920 C1866 0.930 . S
H1921 C1869 0.929 . S
H1922 C1874 0.929 . S
H1923 C1875 0.930 . S
H1924 C1882 0.929 . S
H1925 C1883 0.930 . S
H1926 C1884 0.930 . S
H1927 C1885 0.930 . S
H1928 C1887 0.929 . S
H1929 C1888 0.930 . S
H1930 C1889 0.930 . S
H1931 C1890 0.930 . S
H1932 C1894 0.929 . S
H1933 C1896 0.930 . S
H1934 C1902 0.929 . S
H1935 C1903 0.930 . S
Li1936 N1953 1.990 . S
Li1936 O1996 1.956 . S
Li1936 O1997 1.970 . S
Li1936 O1998 1.961 . S
Li1937 N1961 1.990 . S
Li1937 O1996 1.970 . S
Li1937 O1997 1.956 . S
Li1937 O1999 1.961 . S
Li1938 N1983 1.990 . S
Li1938 O1996 1.961 . S
Li1938 O1998 1.956 . S
Li1938 O1999 1.970 . S
Li1939 N1989 1.990 . S
Li1939 O1997 1.961 . S
Li1939 O1998 1.970 . S
Li1939 O1999 1.956 . S
C1940 C1942 1.348 . S
C1940 C1943 1.356 . S
C1940 O1996 1.325 . S
N1941 C1944 1.314 . S
N1941 C1945 1.279 . S
C1942 C1940 1.348 . S
C1942 C1944 1.353 . S
C1942 H2000 0.929 . S
C1943 C1940 1.356 . S
C1943 C1945 1.358 . S
C1943 H2001 0.930 . S
C1944 N1941 1.314 . S
C1944 C1942 1.353 . S
C1944 H2002 0.930 . S
C1945 N1941 1.279 . S
C1945 C1943 1.358 . S
C1945 H2003 0.930 . S
C1946 C1949 1.348 . S
C1946 C1950 1.356 . S
C1946 O1997 1.325 . S
C1947 N1948 1.279 . S
C1947 C1950 1.358 . S
C1947 H2004 0.930 . S
N1948 C1947 1.279 . S
N1948 C1951 1.314 . S
C1949 C1946 1.348 . S
C1949 C1951 1.353 . S
C1949 H2005 0.929 . S
C1950 C1946 1.356 . S
C1950 C1947 1.358 . S
C1950 H2006 0.930 . S
C1951 N1948 1.314 . S
C1951 C1949 1.353 . S
C1951 H2007 0.930 . S
C1952 N1953 1.314 . S
C1952 C1957 1.353 . S
C1952 H1958 0.930 . S
N1953 Li1936 1.990 . S
N1953 C1952 1.314 . S
N1953 C1955 1.279 . S
C1954 C1955 1.358 . S
C1954 C1956 1.356 . S
C1954 H2008 0.930 . S
C1955 N1953 1.279 . S
C1955 C1954 1.358 . S
C1955 H1959 0.930 . S
C1956 C1954 1.356 . S
C1956 C1957 1.348 . S
C1957 C1952 1.353 . S
C1957 C1956 1.348 . S
C1957 H2009 0.929 . S
H1958 C1952 0.930 . S
H1959 C1955 0.930 . S
C1960 N1961 1.314 . S
C1960 C1962 1.353 . S
C1960 H1966 0.930 . S
N1961 Li1937 1.990 . S
N1961 C1960 1.314 . S
N1961 C1964 1.279 . S
C1962 C1960 1.353 . S
C1962 C1965 1.348 . S
C1962 H2010 0.929 . S
C1963 C1964 1.358 . S
C1963 C1965 1.356 . S
C1963 H2011 0.930 . S
C1964 N1961 1.279 . S
C1964 C1963 1.358 . S
C1964 H1967 0.930 . S
C1965 C1962 1.348 . S
C1965 C1963 1.356 . S
H1966 C1960 0.930 . S
H1967 C1964 0.930 . S
C1968 C1970 1.348 . S
C1968 C1971 1.356 . S
C1968 O1998 1.325 . S
N1969 C1972 1.314 . S
N1969 C1973 1.279 . S
C1970 C1968 1.348 . S
C1970 C1972 1.353 . S
C1970 H2012 0.929 . S
C1971 C1968 1.356 . S
C1971 C1973 1.358 . S
C1971 H2013 0.930 . S
C1972 N1969 1.314 . S
C1972 C1970 1.353 . S
C1972 H2014 0.930 1_554 S
C1973 N1969 1.279 . S
C1973 C1971 1.358 . S
C1973 H2015 0.930 . S
C1974 C1975 1.348 . S
C1974 C1976 1.356 . S
C1974 O1999 1.325 . S
C1975 C1974 1.348 . S
C1975 C1977 1.353 . S
C1975 H2016 0.929 . S
C1976 C1974 1.356 . S
C1976 C1978 1.358 . S
C1976 H2017 0.930 . S
C1977 C1975 1.353 . S
C1977 N1979 1.314 . S
C1977 H2018 0.930 . S
C1978 C1976 1.358 . S
C1978 N1979 1.279 . S
C1978 H2019 0.930 . S
N1979 C1977 1.314 . S
N1979 C1978 1.279 . S
C1980 C1982 1.353 . S
C1980 N1983 1.314 . S
C1980 H1986 0.930 . S
C1981 N1983 1.279 . S
C1981 C1984 1.358 . S
C1981 H1987 0.930 . S
C1982 C1980 1.353 . S
C1982 C1985 1.348 . S
C1982 H2020 0.929 . S
N1983 Li1938 1.990 . S
N1983 C1980 1.314 . S
N1983 C1981 1.279 . S
C1984 C1981 1.358 . S
C1984 C1985 1.356 . S
C1984 H2021 0.930 . S
C1985 C1982 1.348 . S
C1985 C1984 1.356 . S
H1986 C1980 0.930 . S
H1987 C1981 0.930 . S
C1988 N1989 1.314 . S
C1988 C1990 1.353 1_554 S
C1988 H1994 0.930 . S
N1989 Li1939 1.990 . S
N1989 C1988 1.314 . S
N1989 C1992 1.279 . S
C1990 C1988 1.353 1_556 S
C1990 C1993 1.348 . S
C1990 H2022 0.929 . S
C1991 C1992 1.358 1_556 S
C1991 C1993 1.356 . S
C1991 H2023 0.930 . S
C1992 N1989 1.279 . S
C1992 C1991 1.358 1_554 S
C1992 H1995 0.930 . S
C1993 C1990 1.348 . S
C1993 C1991 1.356 . S
H1994 C1988 0.930 . S
H1995 C1992 0.930 . S
O1996 Li1936 1.956 . S
O1996 Li1937 1.970 . S
O1996 Li1938 1.961 . S
O1996 C1940 1.325 . S
O1997 Li1936 1.970 . S
O1997 Li1937 1.956 . S
O1997 Li1939 1.961 . S
O1997 C1946 1.325 . S
O1998 Li1936 1.961 . S
O1998 Li1938 1.956 . S
O1998 Li1939 1.970 . S
O1998 C1968 1.325 . S
O1999 Li1937 1.961 . S
O1999 Li1938 1.970 . S
O1999 Li1939 1.956 . S
O1999 C1974 1.325 . S
H2000 C1942 0.929 . S
H2001 C1943 0.930 . S
H2002 C1944 0.930 . S
H2003 C1945 0.930 . S
H2004 C1947 0.930 . S
H2005 C1949 0.929 . S
H2006 C1950 0.930 . S
H2007 C1951 0.930 . S
H2008 C1954 0.930 . S
H2009 C1957 0.929 . S
H2010 C1962 0.929 . S
H2011 C1963 0.930 . S
H2012 C1970 0.929 . S
H2013 C1971 0.930 . S
H2014 C1972 0.930 1_556 S
H2015 C1973 0.930 . S
H2016 C1975 0.929 . S
H2017 C1976 0.930 . S
H2018 C1977 0.930 . S
H2019 C1978 0.930 . S
H2020 C1982 0.929 . S
H2021 C1984 0.930 . S
H2022 C1990 0.929 . S
H2023 C1991 0.930 . S
Li2024 N2041 1.990 . S
Li2024 O2084 1.956 . S
Li2024 O2085 1.970 . S
Li2024 O2086 1.961 . S
Li2025 N2049 1.990 . S
Li2025 O2084 1.970 . S
Li2025 O2085 1.956 . S
Li2025 O2087 1.961 . S
Li2026 N2071 1.990 . S
Li2026 O2084 1.961 . S
Li2026 O2086 1.956 . S
Li2026 O2087 1.970 . S
Li2027 N2077 1.990 . S
Li2027 O2085 1.961 . S
Li2027 O2086 1.970 . S
Li2027 O2087 1.956 . S
C2028 C2030 1.348 . S
C2028 C2031 1.356 . S
C2028 O2084 1.325 . S
N2029 C2032 1.314 . S
N2029 C2033 1.279 . S
C2030 C2028 1.348 . S
C2030 C2032 1.353 . S
C2030 H2088 0.929 . S
C2031 C2028 1.356 . S
C2031 C2033 1.358 . S
C2031 H2089 0.930 . S
C2032 N2029 1.314 . S
C2032 C2030 1.353 . S
C2032 H2090 0.930 . S
C2033 N2029 1.279 . S
C2033 C2031 1.358 . S
C2033 H2091 0.930 . S
C2034 C2037 1.348 . S
C2034 C2038 1.356 . S
C2034 O2085 1.325 . S
C2035 N2036 1.279 . S
C2035 C2038 1.358 . S
C2035 H2092 0.930 . S
N2036 C2035 1.279 . S
N2036 C2039 1.314 . S
C2037 C2034 1.348 . S
C2037 C2039 1.353 . S
C2037 H2093 0.929 . S
C2038 C2034 1.356 . S
C2038 C2035 1.358 . S
C2038 H2094 0.930 . S
C2039 N2036 1.314 . S
C2039 C2037 1.353 . S
C2039 H2095 0.930 . S
C2040 N2041 1.314 . S
C2040 C2045 1.353 . S
C2040 H2046 0.930 . S
N2041 Li2024 1.990 . S
N2041 C2040 1.314 . S
N2041 C2043 1.279 . S
C2042 C2043 1.358 . S
C2042 C2044 1.356 . S
C2042 H2096 0.930 . S
C2043 N2041 1.279 . S
C2043 C2042 1.358 . S
C2043 H2047 0.930 . S
C2044 C2042 1.356 . S
C2044 C2045 1.348 . S
C2045 C2040 1.353 . S
C2045 C2044 1.348 . S
C2045 H2097 0.929 . S
H2046 C2040 0.930 . S
H2047 C2043 0.930 . S
C2048 N2049 1.314 . S
C2048 C2050 1.353 . S
C2048 H2054 0.930 . S
N2049 Li2025 1.990 . S
N2049 C2048 1.314 . S
N2049 C2052 1.279 . S
C2050 C2048 1.353 . S
C2050 C2053 1.348 . S
C2050 H2098 0.929 . S
C2051 C2052 1.358 . S
C2051 C2053 1.356 . S
C2051 H2099 0.930 . S
C2052 N2049 1.279 . S
C2052 C2051 1.358 . S
C2052 H2055 0.930 . S
C2053 C2050 1.348 . S
C2053 C2051 1.356 . S
H2054 C2048 0.930 . S
H2055 C2052 0.930 . S
C2056 C2058 1.348 . S
C2056 C2059 1.356 . S
C2056 O2086 1.325 . S
N2057 C2060 1.314 . S
N2057 C2061 1.279 . S
C2058 C2056 1.348 . S
C2058 C2060 1.353 . S
C2058 H2100 0.929 . S
C2059 C2056 1.356 . S
C2059 C2061 1.358 . S
C2059 H2101 0.930 . S
C2060 N2057 1.314 . S
C2060 C2058 1.353 . S
C2060 H2102 0.930 . S
C2061 N2057 1.279 . S
C2061 C2059 1.358 . S
C2061 H2103 0.930 . S
C2062 C2063 1.348 . S
C2062 C2064 1.356 . S
C2062 O2087 1.325 . S
C2063 C2062 1.348 . S
C2063 C2065 1.353 . S
C2063 H2104 0.929 . S
C2064 C2062 1.356 . S
C2064 C2066 1.358 . S
C2064 H2105 0.930 . S
C2065 C2063 1.353 . S
C2065 N2067 1.314 . S
C2065 H2106 0.930 . S
C2066 C2064 1.358 . S
C2066 N2067 1.279 . S
C2066 H2107 0.930 . S
N2067 C2065 1.314 . S
N2067 C2066 1.279 . S
C2068 C2070 1.353 . S
C2068 N2071 1.314 . S
C2068 H2074 0.930 . S
C2069 N2071 1.279 . S
C2069 C2072 1.358 . S
C2069 H2075 0.930 . S
C2070 C2068 1.353 . S
C2070 C2073 1.348 . S
C2070 H2108 0.929 . S
N2071 Li2026 1.990 . S
N2071 C2068 1.314 . S
N2071 C2069 1.279 . S
C2072 C2069 1.358 . S
C2072 C2073 1.356 . S
C2072 H2109 0.930 . S
C2073 C2070 1.348 . S
C2073 C2072 1.356 . S
H2074 C2068 0.930 . S
H2075 C2069 0.930 . S
C2076 N2077 1.314 . S
C2076 C2078 1.353 . S
C2076 H2082 0.930 . S
N2077 Li2027 1.990 . S
N2077 C2076 1.314 . S
N2077 C2080 1.279 . S
C2078 C2076 1.353 . S
C2078 C2081 1.348 . S
C2078 H2110 0.929 . S
C2079 C2080 1.358 . S
C2079 C2081 1.356 . S
C2079 H2111 0.930 . S
C2080 N2077 1.279 . S
C2080 C2079 1.358 . S
C2080 H2083 0.930 . S
C2081 C2078 1.348 . S
C2081 C2079 1.356 . S
H2082 C2076 0.930 . S
H2083 C2080 0.930 . S
O2084 Li2024 1.956 . S
O2084 Li2025 1.970 . S
O2084 Li2026 1.961 . S
O2084 C2028 1.325 . S
O2085 Li2024 1.970 . S
O2085 Li2025 1.956 . S
O2085 Li2027 1.961 . S
O2085 C2034 1.325 . S
O2086 Li2024 1.961 . S
O2086 Li2026 1.956 . S
O2086 Li2027 1.970 . S
O2086 C2056 1.325 . S
O2087 Li2025 1.961 . S
O2087 Li2026 1.970 . S
O2087 Li2027 1.956 . S
O2087 C2062 1.325 . S
H2088 C2030 0.929 . S
H2089 C2031 0.930 . S
H2090 C2032 0.930 . S
H2091 C2033 0.930 . S
H2092 C2035 0.930 . S
H2093 C2037 0.929 . S
H2094 C2038 0.930 . S
H2095 C2039 0.930 . S
H2096 C2042 0.930 . S
H2097 C2045 0.929 . S
H2098 C2050 0.929 . S
H2099 C2051 0.930 . S
H2100 C2058 0.929 . S
H2101 C2059 0.930 . S
H2102 C2060 0.930 . S
H2103 C2061 0.930 . S
H2104 C2063 0.929 . S
H2105 C2064 0.930 . S
H2106 C2065 0.930 . S
H2107 C2066 0.930 . S
H2108 C2070 0.929 . S
H2109 C2072 0.930 . S
H2110 C2078 0.929 . S
H2111 C2079 0.930 . S
Li2112 N2129 1.990 . S
Li2112 O2172 1.956 . S
Li2112 O2173 1.970 . S
Li2112 O2174 1.961 . S
Li2113 N2137 1.990 . S
Li2113 O2172 1.970 . S
Li2113 O2173 1.956 . S
Li2113 O2175 1.961 . S
Li2114 N2159 1.990 . S
Li2114 O2172 1.961 . S
Li2114 O2174 1.956 . S
Li2114 O2175 1.970 . S
Li2115 N2165 1.990 . S
Li2115 O2173 1.961 . S
Li2115 O2174 1.970 . S
Li2115 O2175 1.956 . S
C2116 C2118 1.348 . S
C2116 C2119 1.356 . S
C2116 O2172 1.325 . S
N2117 C2120 1.314 . S
N2117 C2121 1.279 . S
C2118 C2116 1.348 . S
C2118 C2120 1.353 . S
C2118 H2176 0.929 . S
C2119 C2116 1.356 . S
C2119 C2121 1.358 . S
C2119 H2177 0.930 . S
C2120 N2117 1.314 . S
C2120 C2118 1.353 . S
C2120 H2178 0.930 . S
C2121 N2117 1.279 . S
C2121 C2119 1.358 . S
C2121 H2179 0.930 . S
C2122 C2125 1.348 . S
C2122 C2126 1.356 . S
C2122 O2173 1.325 . S
C2123 N2124 1.279 . S
C2123 C2126 1.358 . S
C2123 H2180 0.930 . S
N2124 C2123 1.279 . S
N2124 C2127 1.314 . S
C2125 C2122 1.348 . S
C2125 C2127 1.353 . S
C2125 H2181 0.929 . S
C2126 C2122 1.356 . S
C2126 C2123 1.358 . S
C2126 H2182 0.930 . S
C2127 N2124 1.314 . S
C2127 C2125 1.353 . S
C2127 H2183 0.930 . S
C2128 N2129 1.314 . S
C2128 C2133 1.353 1_554 S
C2128 H2134 0.930 . S
N2129 Li2112 1.990 . S
N2129 C2128 1.314 . S
N2129 C2131 1.279 . S
C2130 C2131 1.358 1_556 S
C2130 C2132 1.356 . S
C2130 H2184 0.930 . S
C2131 N2129 1.279 . S
C2131 C2130 1.358 1_554 S
C2131 H2135 0.930 . S
C2132 C2130 1.356 . S
C2132 C2133 1.348 . S
C2133 C2128 1.353 1_556 S
C2133 C2132 1.348 . S
C2133 H2185 0.929 . S
H2134 C2128 0.930 . S
H2135 C2131 0.930 . S
C2136 N2137 1.314 . S
C2136 C2138 1.353 . S
C2136 H2142 0.930 . S
N2137 Li2113 1.990 . S
N2137 C2136 1.314 . S
N2137 C2140 1.279 . S
C2138 C2136 1.353 . S
C2138 C2141 1.348 . S
C2138 H2186 0.929 . S
C2139 C2140 1.358 . S
C2139 C2141 1.356 . S
C2139 H2187 0.930 . S
C2140 N2137 1.279 . S
C2140 C2139 1.358 . S
C2140 H2143 0.930 . S
C2141 C2138 1.348 . S
C2141 C2139 1.356 . S
H2142 C2136 0.930 . S
H2143 C2140 0.930 . S
C2144 C2146 1.348 . S
C2144 C2147 1.356 . S
C2144 O2174 1.325 . S
N2145 C2148 1.314 . S
N2145 C2149 1.279 . S
C2146 C2144 1.348 . S
C2146 C2148 1.353 . S
C2146 H2188 0.929 . S
C2147 C2144 1.356 . S
C2147 C2149 1.358 . S
C2147 H2189 0.930 . S
C2148 N2145 1.314 . S
C2148 C2146 1.353 . S
C2148 H2190 0.930 . S
C2149 N2145 1.279 . S
C2149 C2147 1.358 . S
C2149 H2191 0.930 1_554 S
C2150 C2151 1.348 . S
C2150 C2152 1.356 . S
C2150 O2175 1.325 . S
C2151 C2150 1.348 . S
C2151 C2153 1.353 . S
C2151 H2192 0.929 . S
C2152 C2150 1.356 . S
C2152 C2154 1.358 . S
C2152 H2193 0.930 . S
C2153 C2151 1.353 . S
C2153 N2155 1.314 . S
C2153 H2194 0.930 . S
C2154 C2152 1.358 . S
C2154 N2155 1.279 . S
C2154 H2195 0.930 . S
N2155 C2153 1.314 . S
N2155 C2154 1.279 . S
C2156 C2158 1.353 . S
C2156 N2159 1.314 . S
C2156 H2162 0.930 . S
C2157 N2159 1.279 . S
C2157 C2160 1.358 . S
C2157 H2163 0.930 . S
C2158 C2156 1.353 . S
C2158 C2161 1.348 . S
C2158 H2196 0.929 . S
N2159 Li2114 1.990 . S
N2159 C2156 1.314 . S
N2159 C2157 1.279 . S
C2160 C2157 1.358 . S
C2160 C2161 1.356 . S
C2160 H2197 0.930 . S
C2161 C2158 1.348 . S
C2161 C2160 1.356 . S
H2162 C2156 0.930 . S
H2163 C2157 0.930 . S
C2164 N2165 1.314 . S
C2164 C2166 1.353 . S
C2164 H2170 0.930 . S
N2165 Li2115 1.990 . S
N2165 C2164 1.314 . S
N2165 C2168 1.279 . S
C2166 C2164 1.353 . S
C2166 C2169 1.348 . S
C2166 H2198 0.929 . S
C2167 C2168 1.358 . S
C2167 C2169 1.356 . S
C2167 H2199 0.930 . S
C2168 N2165 1.279 . S
C2168 C2167 1.358 . S
C2168 H2171 0.930 . S
C2169 C2166 1.348 . S
C2169 C2167 1.356 . S
H2170 C2164 0.930 . S
H2171 C2168 0.930 . S
O2172 Li2112 1.956 . S
O2172 Li2113 1.970 . S
O2172 Li2114 1.961 . S
O2172 C2116 1.325 . S
O2173 Li2112 1.970 . S
O2173 Li2113 1.956 . S
O2173 Li2115 1.961 . S
O2173 C2122 1.325 . S
O2174 Li2112 1.961 . S
O2174 Li2114 1.956 . S
O2174 Li2115 1.970 . S
O2174 C2144 1.325 . S
O2175 Li2113 1.961 . S
O2175 Li2114 1.970 . S
O2175 Li2115 1.956 . S
O2175 C2150 1.325 . S
H2176 C2118 0.929 . S
H2177 C2119 0.930 . S
H2178 C2120 0.930 . S
H2179 C2121 0.930 . S
H2180 C2123 0.930 . S
H2181 C2125 0.929 . S
H2182 C2126 0.930 . S
H2183 C2127 0.930 . S
H2184 C2130 0.930 . S
H2185 C2133 0.929 . S
H2186 C2138 0.929 . S
H2187 C2139 0.930 . S
H2188 C2146 0.929 . S
H2189 C2147 0.930 . S
H2190 C2148 0.930 . S
H2191 C2149 0.930 1_556 S
H2192 C2151 0.929 . S
H2193 C2152 0.930 . S
H2194 C2153 0.930 . S
H2195 C2154 0.930 . S
H2196 C2158 0.929 . S
H2197 C2160 0.930 . S
H2198 C2166 0.929 . S
H2199 C2167 0.930 . S
Li2200 N2217 1.990 . S
Li2200 O2260 1.956 . S
Li2200 O2261 1.970 . S
Li2200 O2262 1.961 . S
Li2201 N2225 1.990 . S
Li2201 O2260 1.970 . S
Li2201 O2261 1.956 . S
Li2201 O2263 1.961 . S
Li2202 N2247 1.990 . S
Li2202 O2260 1.961 . S
Li2202 O2262 1.956 . S
Li2202 O2263 1.970 . S
Li2203 N2253 1.990 . S
Li2203 O2261 1.961 . S
Li2203 O2262 1.970 . S
Li2203 O2263 1.956 . S
C2204 C2206 1.348 . S
C2204 C2207 1.356 . S
C2204 O2260 1.325 . S
N2205 C2208 1.314 . S
N2205 C2209 1.279 . S
C2206 C2204 1.348 . S
C2206 C2208 1.353 . S
C2206 H2264 0.929 . S
C2207 C2204 1.356 . S
C2207 C2209 1.358 . S
C2207 H2265 0.930 . S
C2208 N2205 1.314 . S
C2208 C2206 1.353 . S
C2208 H2266 0.930 . S
C2209 N2205 1.279 . S
C2209 C2207 1.358 . S
C2209 H2267 0.930 . S
C2210 C2213 1.348 . S
C2210 C2214 1.356 . S
C2210 O2261 1.325 . S
C2211 N2212 1.279 . S
C2211 C2214 1.358 . S
C2211 H2268 0.930 . S
N2212 C2211 1.279 . S
N2212 C2215 1.314 . S
C2213 C2210 1.348 . S
C2213 C2215 1.353 . S
C2213 H2269 0.929 . S
C2214 C2210 1.356 . S
C2214 C2211 1.358 . S
C2214 H2270 0.930 . S
C2215 N2212 1.314 . S
C2215 C2213 1.353 . S
C2215 H2271 0.930 . S
C2216 N2217 1.314 . S
C2216 C2221 1.353 . S
C2216 H2222 0.930 . S
N2217 Li2200 1.990 . S
N2217 C2216 1.314 . S
N2217 C2219 1.279 . S
C2218 C2219 1.358 . S
C2218 C2220 1.356 . S
C2218 H2272 0.930 . S
C2219 N2217 1.279 . S
C2219 C2218 1.358 . S
C2219 H2223 0.930 . S
C2220 C2218 1.356 . S
C2220 C2221 1.348 . S
C2221 C2216 1.353 . S
C2221 C2220 1.348 . S
C2221 H2273 0.929 . S
H2222 C2216 0.930 . S
H2223 C2219 0.930 . S
C2224 N2225 1.314 . S
C2224 C2226 1.353 . S
C2224 H2230 0.930 . S
N2225 Li2201 1.990 . S
N2225 C2224 1.314 . S
N2225 C2228 1.279 . S
C2226 C2224 1.353 . S
C2226 C2229 1.348 . S
C2226 H2274 0.929 . S
C2227 C2228 1.358 . S
C2227 C2229 1.356 . S
C2227 H2275 0.930 . S
C2228 N2225 1.279 . S
C2228 C2227 1.358 . S
C2228 H2231 0.930 . S
C2229 C2226 1.348 . S
C2229 C2227 1.356 . S
H2230 C2224 0.930 . S
H2231 C2228 0.930 . S
C2232 C2234 1.348 . S
C2232 C2235 1.356 . S
C2232 O2262 1.325 . S
N2233 C2236 1.314 . S
N2233 C2237 1.279 . S
C2234 C2232 1.348 . S
C2234 C2236 1.353 . S
C2234 H2276 0.929 . S
C2235 C2232 1.356 . S
C2235 C2237 1.358 . S
C2235 H2277 0.930 . S
C2236 N2233 1.314 . S
C2236 C2234 1.353 . S
C2236 H2278 0.930 . S
C2237 N2233 1.279 . S
C2237 C2235 1.358 . S
C2237 H2279 0.930 . S
C2238 C2239 1.348 . S
C2238 C2240 1.356 . S
C2238 O2263 1.325 . S
C2239 C2238 1.348 . S
C2239 C2241 1.353 . S
C2239 H2280 0.929 . S
C2240 C2238 1.356 . S
C2240 C2242 1.358 . S
C2240 H2281 0.930 . S
C2241 C2239 1.353 . S
C2241 N2243 1.314 . S
C2241 H2282 0.930 . S
C2242 C2240 1.358 . S
C2242 N2243 1.279 . S
C2242 H2283 0.930 . S
N2243 C2241 1.314 . S
N2243 C2242 1.279 . S
C2244 C2246 1.353 . S
C2244 N2247 1.314 . S
C2244 H2250 0.930 . S
C2245 N2247 1.279 . S
C2245 C2248 1.358 . S
C2245 H2251 0.930 . S
C2246 C2244 1.353 . S
C2246 C2249 1.348 . S
C2246 H2284 0.929 . S
N2247 Li2202 1.990 . S
N2247 C2244 1.314 . S
N2247 C2245 1.279 . S
C2248 C2245 1.358 . S
C2248 C2249 1.356 . S
C2248 H2285 0.930 . S
C2249 C2246 1.348 . S
C2249 C2248 1.356 . S
H2250 C2244 0.930 . S
H2251 C2245 0.930 . S
C2252 N2253 1.314 . S
C2252 C2254 1.353 . S
C2252 H2258 0.930 . S
N2253 Li2203 1.990 . S
N2253 C2252 1.314 . S
N2253 C2256 1.279 . S
C2254 C2252 1.353 . S
C2254 C2257 1.348 . S
C2254 H2286 0.929 . S
C2255 C2256 1.358 . S
C2255 C2257 1.356 . S
C2255 H2287 0.930 . S
C2256 N2253 1.279 . S
C2256 C2255 1.358 . S
C2256 H2259 0.930 . S
C2257 C2254 1.348 . S
C2257 C2255 1.356 . S
H2258 C2252 0.930 . S
H2259 C2256 0.930 . S
O2260 Li2200 1.956 . S
O2260 Li2201 1.970 . S
O2260 Li2202 1.961 . S
O2260 C2204 1.325 . S
O2261 Li2200 1.970 . S
O2261 Li2201 1.956 . S
O2261 Li2203 1.961 . S
O2261 C2210 1.325 . S
O2262 Li2200 1.961 . S
O2262 Li2202 1.956 . S
O2262 Li2203 1.970 . S
O2262 C2232 1.325 . S
O2263 Li2201 1.961 . S
O2263 Li2202 1.970 . S
O2263 Li2203 1.956 . S
O2263 C2238 1.325 . S
H2264 C2206 0.929 . S
H2265 C2207 0.930 . S
H2266 C2208 0.930 . S
H2267 C2209 0.930 . S
H2268 C2211 0.930 . S
H2269 C2213 0.929 . S
H2270 C2214 0.930 . S
H2271 C2215 0.930 . S
H2272 C2218 0.930 . S
H2273 C2221 0.929 . S
H2274 C2226 0.929 . S
H2275 C2227 0.930 . S
H2276 C2234 0.929 . S
H2277 C2235 0.930 . S
H2278 C2236 0.930 . S
H2279 C2237 0.930 . S
H2280 C2239 0.929 . S
H2281 C2240 0.930 . S
H2282 C2241 0.930 . S
H2283 C2242 0.930 . S
H2284 C2246 0.929 . S
H2285 C2248 0.930 . S
H2286 C2254 0.929 . S
H2287 C2255 0.930 . S
Li2288 N2305 1.990 . S
Li2288 O2348 1.956 . S
Li2288 O2349 1.970 . S
Li2288 O2350 1.961 . S
Li2289 N2313 1.990 . S
Li2289 O2348 1.970 . S
Li2289 O2349 1.956 . S
Li2289 O2351 1.961 . S
Li2290 N2335 1.990 . S
Li2290 O2348 1.961 . S
Li2290 O2350 1.956 . S
Li2290 O2351 1.970 . S
Li2291 N2341 1.990 . S
Li2291 O2349 1.961 . S
Li2291 O2350 1.970 . S
Li2291 O2351 1.956 . S
C2292 C2294 1.348 . S
C2292 C2295 1.356 . S
C2292 O2348 1.325 . S
N2293 C2296 1.314 . S
N2293 C2297 1.279 . S
C2294 C2292 1.348 . S
C2294 C2296 1.353 . S
C2294 H2352 0.929 . S
C2295 C2292 1.356 . S
C2295 C2297 1.358 . S
C2295 H2353 0.930 . S
C2296 N2293 1.314 . S
C2296 C2294 1.353 . S
C2296 H2354 0.930 . S
C2297 N2293 1.279 . S
C2297 C2295 1.358 . S
C2297 H2355 0.930 . S
C2298 C2301 1.348 . S
C2298 C2302 1.356 . S
C2298 O2349 1.325 . S
C2299 N2300 1.279 . S
C2299 C2302 1.358 . S
C2299 H2356 0.930 . S
N2300 C2299 1.279 . S
N2300 C2303 1.314 . S
C2301 C2298 1.348 . S
C2301 C2303 1.353 . S
C2301 H2357 0.929 . S
C2302 C2298 1.356 . S
C2302 C2299 1.358 . S
C2302 H2358 0.930 . S
C2303 N2300 1.314 . S
C2303 C2301 1.353 . S
C2303 H2359 0.930 . S
C2304 N2305 1.314 . S
C2304 C2309 1.353 . S
C2304 H2310 0.930 . S
N2305 Li2288 1.990 . S
N2305 C2304 1.314 . S
N2305 C2307 1.279 . S
C2306 C2307 1.358 . S
C2306 C2308 1.356 . S
C2306 H2360 0.930 . S
C2307 N2305 1.279 . S
C2307 C2306 1.358 . S
C2307 H2311 0.930 . S
C2308 C2306 1.356 . S
C2308 C2309 1.348 . S
C2309 C2304 1.353 . S
C2309 C2308 1.348 . S
C2309 H2361 0.929 . S
H2310 C2304 0.930 . S
H2311 C2307 0.930 . S
C2312 N2313 1.314 . S
C2312 C2314 1.353 . S
C2312 H2318 0.930 . S
N2313 Li2289 1.990 . S
N2313 C2312 1.314 . S
N2313 C2316 1.279 . S
C2314 C2312 1.353 . S
C2314 C2317 1.348 . S
C2314 H2362 0.929 . S
C2315 C2316 1.358 . S
C2315 C2317 1.356 . S
C2315 H2363 0.930 . S
C2316 N2313 1.279 . S
C2316 C2315 1.358 . S
C2316 H2319 0.930 . S
C2317 C2314 1.348 . S
C2317 C2315 1.356 . S
H2318 C2312 0.930 . S
H2319 C2316 0.930 . S
C2320 C2322 1.348 . S
C2320 C2323 1.356 . S
C2320 O2350 1.325 . S
N2321 C2324 1.314 . S
N2321 C2325 1.279 . S
C2322 C2320 1.348 . S
C2322 C2324 1.353 . S
C2322 H2364 0.929 . S
C2323 C2320 1.356 . S
C2323 C2325 1.358 . S
C2323 H2365 0.930 . S
C2324 N2321 1.314 . S
C2324 C2322 1.353 . S
C2324 H2366 0.930 . S
C2325 N2321 1.279 . S
C2325 C2323 1.358 . S
C2325 H2367 0.930 . S
C2326 C2327 1.348 . S
C2326 C2328 1.356 . S
C2326 O2351 1.325 . S
C2327 C2326 1.348 . S
C2327 C2329 1.353 . S
C2327 H2368 0.929 . S
C2328 C2326 1.356 . S
C2328 C2330 1.358 . S
C2328 H2369 0.930 . S
C2329 C2327 1.353 . S
C2329 N2331 1.314 . S
C2329 H2370 0.930 . S
C2330 C2328 1.358 . S
C2330 N2331 1.279 . S
C2330 H2371 0.930 . S
N2331 C2329 1.314 . S
N2331 C2330 1.279 . S
C2332 C2334 1.353 . S
C2332 N2335 1.314 . S
C2332 H2338 0.930 . S
C2333 N2335 1.279 . S
C2333 C2336 1.358 . S
C2333 H2339 0.930 . S
C2334 C2332 1.353 . S
C2334 C2337 1.348 . S
C2334 H2372 0.929 . S
N2335 Li2290 1.990 . S
N2335 C2332 1.314 . S
N2335 C2333 1.279 . S
C2336 C2333 1.358 . S
C2336 C2337 1.356 . S
C2336 H2373 0.930 . S
C2337 C2334 1.348 . S
C2337 C2336 1.356 . S
H2338 C2332 0.930 . S
H2339 C2333 0.930 . S
C2340 N2341 1.314 . S
C2340 C2342 1.353 . S
C2340 H2346 0.930 . S
N2341 Li2291 1.990 . S
N2341 C2340 1.314 . S
N2341 C2344 1.279 . S
C2342 C2340 1.353 . S
C2342 C2345 1.348 . S
C2342 H2374 0.929 . S
C2343 C2344 1.358 . S
C2343 C2345 1.356 . S
C2343 H2375 0.930 . S
C2344 N2341 1.279 . S
C2344 C2343 1.358 . S
C2344 H2347 0.930 . S
C2345 C2342 1.348 . S
C2345 C2343 1.356 . S
H2346 C2340 0.930 . S
H2347 C2344 0.930 . S
O2348 Li2288 1.956 . S
O2348 Li2289 1.970 . S
O2348 Li2290 1.961 . S
O2348 C2292 1.325 . S
O2349 Li2288 1.970 . S
O2349 Li2289 1.956 . S
O2349 Li2291 1.961 . S
O2349 C2298 1.325 . S
O2350 Li2288 1.961 . S
O2350 Li2290 1.956 . S
O2350 Li2291 1.970 . S
O2350 C2320 1.325 . S
O2351 Li2289 1.961 . S
O2351 Li2290 1.970 . S
O2351 Li2291 1.956 . S
O2351 C2326 1.325 . S
H2352 C2294 0.929 . S
H2353 C2295 0.930 . S
H2354 C2296 0.930 . S
H2355 C2297 0.930 . S
H2356 C2299 0.930 . S
H2357 C2301 0.929 . S
H2358 C2302 0.930 . S
H2359 C2303 0.930 . S
H2360 C2306 0.930 . S
H2361 C2309 0.929 . S
H2362 C2314 0.929 . S
H2363 C2315 0.930 . S
H2364 C2322 0.929 . S
H2365 C2323 0.930 . S
H2366 C2324 0.930 . S
H2367 C2325 0.930 . S
H2368 C2327 0.929 . S
H2369 C2328 0.930 . S
H2370 C2329 0.930 . S
H2371 C2330 0.930 . S
H2372 C2334 0.929 . S
H2373 C2336 0.930 . S
H2374 C2342 0.929 . S
H2375 C2343 0.930 . S
Li2376 N2393 1.990 . S
Li2376 O2436 1.956 . S
Li2376 O2437 1.970 . S
Li2376 O2438 1.961 . S
Li2377 N2401 1.990 . S
Li2377 O2436 1.970 . S
Li2377 O2437 1.956 . S
Li2377 O2439 1.961 . S
Li2378 N2423 1.990 . S
Li2378 O2436 1.961 . S
Li2378 O2438 1.956 . S
Li2378 O2439 1.970 . S
Li2379 N2429 1.990 . S
Li2379 O2437 1.961 . S
Li2379 O2438 1.970 . S
Li2379 O2439 1.956 . S
C2380 C2382 1.348 . S
C2380 C2383 1.356 . S
C2380 O2436 1.325 . S
N2381 C2384 1.314 . S
N2381 C2385 1.279 . S
C2382 C2380 1.348 . S
C2382 C2384 1.353 . S
C2382 H2440 0.929 . S
C2383 C2380 1.356 . S
C2383 C2385 1.358 . S
C2383 H2441 0.930 . S
C2384 N2381 1.314 . S
C2384 C2382 1.353 . S
C2384 H2442 0.930 . S
C2385 N2381 1.279 . S
C2385 C2383 1.358 . S
C2385 H2443 0.930 . S
C2386 C2389 1.348 . S
C2386 C2390 1.356 . S
C2386 O2437 1.325 . S
C2387 N2388 1.279 . S
C2387 C2390 1.358 . S
C2387 H2444 0.930 . S
N2388 C2387 1.279 . S
N2388 C2391 1.314 . S
C2389 C2386 1.348 . S
C2389 C2391 1.353 . S
C2389 H2445 0.929 . S
C2390 C2386 1.356 . S
C2390 C2387 1.358 . S
C2390 H2446 0.930 . S
C2391 N2388 1.314 . S
C2391 C2389 1.353 . S
C2391 H2447 0.930 . S
C2392 N2393 1.314 . S
C2392 C2397 1.353 . S
C2392 H2398 0.930 . S
N2393 Li2376 1.990 . S
N2393 C2392 1.314 . S
N2393 C2395 1.279 . S
C2394 C2395 1.358 . S
C2394 C2396 1.356 . S
C2394 H2448 0.930 . S
C2395 N2393 1.279 . S
C2395 C2394 1.358 . S
C2395 H2399 0.930 . S
C2396 C2394 1.356 . S
C2396 C2397 1.348 . S
C2397 C2392 1.353 . S
C2397 C2396 1.348 . S
C2397 H2449 0.929 . S
H2398 C2392 0.930 . S
H2399 C2395 0.930 . S
C2400 N2401 1.314 . S
C2400 C2402 1.353 . S
C2400 H2406 0.930 . S
N2401 Li2377 1.990 . S
N2401 C2400 1.314 . S
N2401 C2404 1.279 . S
C2402 C2400 1.353 . S
C2402 C2405 1.348 . S
C2402 H2450 0.929 . S
C2403 C2404 1.358 . S
C2403 C2405 1.356 . S
C2403 H2451 0.930 . S
C2404 N2401 1.279 . S
C2404 C2403 1.358 . S
C2404 H2407 0.930 . S
C2405 C2402 1.348 . S
C2405 C2403 1.356 . S
H2406 C2400 0.930 . S
H2407 C2404 0.930 . S
C2408 C2410 1.348 . S
C2408 C2411 1.356 . S
C2408 O2438 1.325 . S
N2409 C2412 1.314 . S
N2409 C2413 1.279 . S
C2410 C2408 1.348 . S
C2410 C2412 1.353 . S
C2410 H2452 0.929 . S
C2411 C2408 1.356 . S
C2411 C2413 1.358 . S
C2411 H2453 0.930 . S
C2412 N2409 1.314 . S
C2412 C2410 1.353 . S
C2412 H2454 0.930 . S
C2413 N2409 1.279 . S
C2413 C2411 1.358 . S
C2413 H2455 0.930 . S
C2414 C2415 1.348 . S
C2414 C2416 1.356 . S
C2414 O2439 1.325 . S
C2415 C2414 1.348 . S
C2415 C2417 1.353 . S
C2415 H2456 0.929 . S
C2416 C2414 1.356 . S
C2416 C2418 1.358 . S
C2416 H2457 0.930 . S
C2417 C2415 1.353 . S
C2417 N2419 1.314 . S
C2417 H2458 0.930 . S
C2418 C2416 1.358 . S
C2418 N2419 1.279 . S
C2418 H2459 0.930 . S
N2419 C2417 1.314 . S
N2419 C2418 1.279 . S
C2420 C2422 1.353 . S
C2420 N2423 1.314 . S
C2420 H2426 0.930 . S
C2421 N2423 1.279 . S
C2421 C2424 1.358 . S
C2421 H2427 0.930 . S
C2422 C2420 1.353 . S
C2422 C2425 1.348 . S
C2422 H2460 0.929 . S
N2423 Li2378 1.990 . S
N2423 C2420 1.314 . S
N2423 C2421 1.279 . S
C2424 C2421 1.358 . S
C2424 C2425 1.356 . S
C2424 H2461 0.930 . S
C2425 C2422 1.348 . S
C2425 C2424 1.356 . S
H2426 C2420 0.930 . S
H2427 C2421 0.930 . S
C2428 N2429 1.314 . S
C2428 C2430 1.353 . S
C2428 H2434 0.930 . S
N2429 Li2379 1.990 . S
N2429 C2428 1.314 . S
N2429 C2432 1.279 . S
C2430 C2428 1.353 . S
C2430 C2433 1.348 . S
C2430 H2462 0.929 . S
C2431 C2432 1.358 . S
C2431 C2433 1.356 . S
C2431 H2463 0.930 . S
C2432 N2429 1.279 . S
C2432 C2431 1.358 . S
C2432 H2435 0.930 . S
C2433 C2430 1.348 . S
C2433 C2431 1.356 . S
H2434 C2428 0.930 . S
H2435 C2432 0.930 . S
O2436 Li2376 1.956 . S
O2436 Li2377 1.970 . S
O2436 Li2378 1.961 . S
O2436 C2380 1.325 . S
O2437 Li2376 1.970 . S
O2437 Li2377 1.956 . S
O2437 Li2379 1.961 . S
O2437 C2386 1.325 . S
O2438 Li2376 1.961 . S
O2438 Li2378 1.956 . S
O2438 Li2379 1.970 . S
O2438 C2408 1.325 . S
O2439 Li2377 1.961 . S
O2439 Li2378 1.970 . S
O2439 Li2379 1.956 . S
O2439 C2414 1.325 . S
H2440 C2382 0.929 . S
H2441 C2383 0.930 . S
H2442 C2384 0.930 . S
H2443 C2385 0.930 . S
H2444 C2387 0.930 . S
H2445 C2389 0.929 . S
H2446 C2390 0.930 . S
H2447 C2391 0.930 . S
H2448 C2394 0.930 . S
H2449 C2397 0.929 . S
H2450 C2402 0.929 . S
H2451 C2403 0.930 . S
H2452 C2410 0.929 . S
H2453 C2411 0.930 . S
H2454 C2412 0.930 . S
H2455 C2413 0.930 . S
H2456 C2415 0.929 . S
H2457 C2416 0.930 . S
H2458 C2417 0.930 . S
H2459 C2418 0.930 . S
H2460 C2422 0.929 . S
H2461 C2424 0.930 . S
H2462 C2430 0.929 . S
H2463 C2431 0.930 . S
Li2464 N2481 1.990 . S
Li2464 O2524 1.956 . S
Li2464 O2525 1.970 . S
Li2464 O2526 1.961 . S
Li2465 N2489 1.990 . S
Li2465 O2524 1.970 . S
Li2465 O2525 1.956 . S
Li2465 O2527 1.961 . S
Li2466 N2511 1.990 . S
Li2466 O2524 1.961 . S
Li2466 O2526 1.956 . S
Li2466 O2527 1.970 . S
Li2467 N2517 1.990 . S
Li2467 O2525 1.961 . S
Li2467 O2526 1.970 . S
Li2467 O2527 1.956 . S
C2468 C2470 1.348 . S
C2468 C2471 1.356 . S
C2468 O2524 1.325 . S
N2469 C2472 1.314 . S
N2469 C2473 1.279 . S
C2470 C2468 1.348 . S
C2470 C2472 1.353 . S
C2470 H2528 0.929 . S
C2471 C2468 1.356 . S
C2471 C2473 1.358 . S
C2471 H2529 0.930 . S
C2472 N2469 1.314 . S
C2472 C2470 1.353 . S
C2472 H2530 0.930 . S
C2473 N2469 1.279 . S
C2473 C2471 1.358 . S
C2473 H2531 0.930 . S
C2474 C2477 1.348 . S
C2474 C2478 1.356 . S
C2474 O2525 1.325 . S
C2475 N2476 1.279 . S
C2475 C2478 1.358 . S
C2475 H2532 0.930 . S
N2476 C2475 1.279 . S
N2476 C2479 1.314 . S
C2477 C2474 1.348 . S
C2477 C2479 1.353 . S
C2477 H2533 0.929 . S
C2478 C2474 1.356 . S
C2478 C2475 1.358 . S
C2478 H2534 0.930 . S
C2479 N2476 1.314 . S
C2479 C2477 1.353 . S
C2479 H2535 0.930 . S
C2480 N2481 1.314 . S
C2480 C2485 1.353 . S
C2480 H2486 0.930 . S
N2481 Li2464 1.990 . S
N2481 C2480 1.314 . S
N2481 C2483 1.279 . S
C2482 C2483 1.358 . S
C2482 C2484 1.356 . S
C2482 H2536 0.930 . S
C2483 N2481 1.279 . S
C2483 C2482 1.358 . S
C2483 H2487 0.930 . S
C2484 C2482 1.356 . S
C2484 C2485 1.348 . S
C2485 C2480 1.353 . S
C2485 C2484 1.348 . S
C2485 H2537 0.929 . S
H2486 C2480 0.930 . S
H2487 C2483 0.930 . S
C2488 N2489 1.314 . S
C2488 C2490 1.353 . S
C2488 H2494 0.930 . S
N2489 Li2465 1.990 . S
N2489 C2488 1.314 . S
N2489 C2492 1.279 . S
C2490 C2488 1.353 . S
C2490 C2493 1.348 . S
C2490 H2538 0.929 . S
C2491 C2492 1.358 . S
C2491 C2493 1.356 . S
C2491 H2539 0.930 . S
C2492 N2489 1.279 . S
C2492 C2491 1.358 . S
C2492 H2495 0.930 . S
C2493 C2490 1.348 . S
C2493 C2491 1.356 . S
H2494 C2488 0.930 . S
H2495 C2492 0.930 . S
C2496 C2498 1.348 . S
C2496 C2499 1.356 . S
C2496 O2526 1.325 . S
N2497 C2500 1.314 . S
N2497 C2501 1.279 . S
C2498 C2496 1.348 . S
C2498 C2500 1.353 . S
C2498 H2540 0.929 . S
C2499 C2496 1.356 . S
C2499 C2501 1.358 . S
C2499 H2541 0.930 . S
C2500 N2497 1.314 . S
C2500 C2498 1.353 . S
C2500 H2542 0.930 . S
C2501 N2497 1.279 . S
C2501 C2499 1.358 . S
C2501 H2543 0.930 . S
C2502 C2503 1.348 . S
C2502 C2504 1.356 . S
C2502 O2527 1.325 . S
C2503 C2502 1.348 . S
C2503 C2505 1.353 . S
C2503 H2544 0.929 . S
C2504 C2502 1.356 . S
C2504 C2506 1.358 . S
C2504 H2545 0.930 . S
C2505 C2503 1.353 . S
C2505 N2507 1.314 . S
C2505 H2546 0.930 . S
C2506 C2504 1.358 . S
C2506 N2507 1.279 . S
C2506 H2547 0.930 . S
N2507 C2505 1.314 . S
N2507 C2506 1.279 . S
C2508 C2510 1.353 . S
C2508 N2511 1.314 . S
C2508 H2514 0.930 . S
C2509 N2511 1.279 . S
C2509 C2512 1.358 . S
C2509 H2515 0.930 . S
C2510 C2508 1.353 . S
C2510 C2513 1.348 . S
C2510 H2548 0.929 . S
N2511 Li2466 1.990 . S
N2511 C2508 1.314 . S
N2511 C2509 1.279 . S
C2512 C2509 1.358 . S
C2512 C2513 1.356 . S
C2512 H2549 0.930 . S
C2513 C2510 1.348 . S
C2513 C2512 1.356 . S
H2514 C2508 0.930 . S
H2515 C2509 0.930 . S
C2516 N2517 1.314 . S
C2516 C2518 1.353 . S
C2516 H2522 0.930 . S
N2517 Li2467 1.990 . S
N2517 C2516 1.314 . S
N2517 C2520 1.279 . S
C2518 C2516 1.353 . S
C2518 C2521 1.348 . S
C2518 H2550 0.929 . S
C2519 C2520 1.358 . S
C2519 C2521 1.356 . S
C2519 H2551 0.930 . S
C2520 N2517 1.279 . S
C2520 C2519 1.358 . S
C2520 H2523 0.930 . S
C2521 C2518 1.348 . S
C2521 C2519 1.356 . S
H2522 C2516 0.930 . S
H2523 C2520 0.930 . S
O2524 Li2464 1.956 . S
O2524 Li2465 1.970 . S
O2524 Li2466 1.961 . S
O2524 C2468 1.325 . S
O2525 Li2464 1.970 . S
O2525 Li2465 1.956 . S
O2525 Li2467 1.961 . S
O2525 C2474 1.325 . S
O2526 Li2464 1.961 . S
O2526 Li2466 1.956 . S
O2526 Li2467 1.970 . S
O2526 C2496 1.325 . S
O2527 Li2465 1.961 . S
O2527 Li2466 1.970 . S
O2527 Li2467 1.956 . S
O2527 C2502 1.325 . S
H2528 C2470 0.929 . S
H2529 C2471 0.930 . S
H2530 C2472 0.930 . S
H2531 C2473 0.930 . S
H2532 C2475 0.930 . S
H2533 C2477 0.929 . S
H2534 C2478 0.930 . S
H2535 C2479 0.930 . S
H2536 C2482 0.930 . S
H2537 C2485 0.929 . S
H2538 C2490 0.929 . S
H2539 C2491 0.930 . S
H2540 C2498 0.929 . S
H2541 C2499 0.930 . S
H2542 C2500 0.930 . S
H2543 C2501 0.930 . S
H2544 C2503 0.929 . S
H2545 C2504 0.930 . S
H2546 C2505 0.930 . S
H2547 C2506 0.930 . S
H2548 C2510 0.929 . S
H2549 C2512 0.930 . S
H2550 C2518 0.929 . S
H2551 C2519 0.930 . S
Li2552 N2569 1.990 . S
Li2552 O2612 1.956 . S
Li2552 O2613 1.970 . S
Li2552 O2614 1.961 . S
Li2553 N2577 1.990 . S
Li2553 O2612 1.970 . S
Li2553 O2613 1.956 . S
Li2553 O2615 1.961 . S
Li2554 N2599 1.990 . S
Li2554 O2612 1.961 . S
Li2554 O2614 1.956 . S
Li2554 O2615 1.970 . S
Li2555 N2605 1.990 . S
Li2555 O2613 1.961 . S
Li2555 O2614 1.970 . S
Li2555 O2615 1.956 . S
C2556 C2558 1.348 . S
C2556 C2559 1.356 . S
C2556 O2612 1.325 . S
N2557 C2560 1.314 . S
N2557 C2561 1.279 . S
C2558 C2556 1.348 . S
C2558 C2560 1.353 . S
C2558 H2616 0.929 . S
C2559 C2556 1.356 . S
C2559 C2561 1.358 . S
C2559 H2617 0.930 . S
C2560 N2557 1.314 . S
C2560 C2558 1.353 . S
C2560 H2618 0.930 . S
C2561 N2557 1.279 . S
C2561 C2559 1.358 . S
C2561 H2619 0.930 . S
C2562 C2565 1.348 . S
C2562 C2566 1.356 . S
C2562 O2613 1.325 . S
C2563 N2564 1.279 . S
C2563 C2566 1.358 . S
C2563 H2620 0.930 . S
N2564 C2563 1.279 . S
N2564 C2567 1.314 . S
C2565 C2562 1.348 . S
C2565 C2567 1.353 . S
C2565 H2621 0.929 . S
C2566 C2562 1.356 . S
C2566 C2563 1.358 . S
C2566 H2622 0.930 . S
C2567 N2564 1.314 . S
C2567 C2565 1.353 . S
C2567 H2623 0.930 . S
C2568 N2569 1.314 . S
C2568 C2573 1.353 . S
C2568 H2574 0.930 . S
N2569 Li2552 1.990 . S
N2569 C2568 1.314 . S
N2569 C2571 1.279 . S
C2570 C2571 1.358 . S
C2570 C2572 1.356 . S
C2570 H2624 0.930 . S
C2571 N2569 1.279 . S
C2571 C2570 1.358 . S
C2571 H2575 0.930 . S
C2572 C2570 1.356 . S
C2572 C2573 1.348 . S
C2573 C2568 1.353 . S
C2573 C2572 1.348 . S
C2573 H2625 0.929 . S
H2574 C2568 0.930 . S
H2575 C2571 0.930 . S
C2576 N2577 1.314 . S
C2576 C2578 1.353 . S
C2576 H2582 0.930 . S
N2577 Li2553 1.990 . S
N2577 C2576 1.314 . S
N2577 C2580 1.279 . S
C2578 C2576 1.353 . S
C2578 C2581 1.348 . S
C2578 H2626 0.929 . S
C2579 C2580 1.358 . S
C2579 C2581 1.356 . S
C2579 H2627 0.930 . S
C2580 N2577 1.279 . S
C2580 C2579 1.358 . S
C2580 H2583 0.930 . S
C2581 C2578 1.348 . S
C2581 C2579 1.356 . S
H2582 C2576 0.930 . S
H2583 C2580 0.930 . S
C2584 C2586 1.348 . S
C2584 C2587 1.356 . S
C2584 O2614 1.325 . S
N2585 C2588 1.314 . S
N2585 C2589 1.279 . S
C2586 C2584 1.348 . S
C2586 C2588 1.353 . S
C2586 H2628 0.929 . S
C2587 C2584 1.356 . S
C2587 C2589 1.358 . S
C2587 H2629 0.930 . S
C2588 N2585 1.314 . S
C2588 C2586 1.353 . S
C2588 H2630 0.930 . S
C2589 N2585 1.279 . S
C2589 C2587 1.358 . S
C2589 H2631 0.930 . S
C2590 C2591 1.348 . S
C2590 C2592 1.356 . S
C2590 O2615 1.325 . S
C2591 C2590 1.348 . S
C2591 C2593 1.353 . S
C2591 H2632 0.929 . S
C2592 C2590 1.356 . S
C2592 C2594 1.358 . S
C2592 H2633 0.930 . S
C2593 C2591 1.353 . S
C2593 N2595 1.314 . S
C2593 H2634 0.930 . S
C2594 C2592 1.358 . S
C2594 N2595 1.279 . S
C2594 H2635 0.930 . S
N2595 C2593 1.314 . S
N2595 C2594 1.279 . S
C2596 C2598 1.353 . S
C2596 N2599 1.314 . S
C2596 H2602 0.930 . S
C2597 N2599 1.279 . S
C2597 C2600 1.358 . S
C2597 H2603 0.930 . S
C2598 C2596 1.353 . S
C2598 C2601 1.348 . S
C2598 H2636 0.929 . S
N2599 Li2554 1.990 . S
N2599 C2596 1.314 . S
N2599 C2597 1.279 . S
C2600 C2597 1.358 . S
C2600 C2601 1.356 . S
C2600 H2637 0.930 . S
C2601 C2598 1.348 . S
C2601 C2600 1.356 . S
H2602 C2596 0.930 . S
H2603 C2597 0.930 . S
C2604 N2605 1.314 . S
C2604 C2606 1.353 . S
C2604 H2610 0.930 . S
N2605 Li2555 1.990 . S
N2605 C2604 1.314 . S
N2605 C2608 1.279 . S
C2606 C2604 1.353 . S
C2606 C2609 1.348 . S
C2606 H2638 0.929 . S
C2607 C2608 1.358 . S
C2607 C2609 1.356 . S
C2607 H2639 0.930 . S
C2608 N2605 1.279 . S
C2608 C2607 1.358 . S
C2608 H2611 0.930 . S
C2609 C2606 1.348 . S
C2609 C2607 1.356 . S
H2610 C2604 0.930 . S
H2611 C2608 0.930 . S
O2612 Li2552 1.956 . S
O2612 Li2553 1.970 . S
O2612 Li2554 1.961 . S
O2612 C2556 1.325 . S
O2613 Li2552 1.970 . S
O2613 Li2553 1.956 . S
O2613 Li2555 1.961 . S
O2613 C2562 1.325 . S
O2614 Li2552 1.961 . S
O2614 Li2554 1.956 . S
O2614 Li2555 1.970 . S
O2614 C2584 1.325 . S
O2615 Li2553 1.961 . S
O2615 Li2554 1.970 . S
O2615 Li2555 1.956 . S
O2615 C2590 1.325 . S
H2616 C2558 0.929 . S
H2617 C2559 0.930 . S
H2618 C2560 0.930 . S
H2619 C2561 0.930 . S
H2620 C2563 0.930 . S
H2621 C2565 0.929 . S
H2622 C2566 0.930 . S
H2623 C2567 0.930 . S
H2624 C2570 0.930 . S
H2625 C2573 0.929 . S
H2626 C2578 0.929 . S
H2627 C2579 0.930 . S
H2628 C2586 0.929 . S
H2629 C2587 0.930 . S
H2630 C2588 0.930 . S
H2631 C2589 0.930 . S
H2632 C2591 0.929 . S
H2633 C2592 0.930 . S
H2634 C2593 0.930 . S
H2635 C2594 0.930 . S
H2636 C2598 0.929 . S
H2637 C2600 0.930 . S
H2638 C2606 0.929 . S
H2639 C2607 0.930 . S
Li2640 N2657 1.990 . S
Li2640 O2700 1.956 . S
Li2640 O2701 1.970 . S
Li2640 O2702 1.961 . S
Li2641 N2665 1.990 . S
Li2641 O2700 1.970 . S
Li2641 O2701 1.956 . S
Li2641 O2703 1.961 . S
Li2642 N2687 1.990 . S
Li2642 O2700 1.961 . S
Li2642 O2702 1.956 . S
Li2642 O2703 1.970 . S
Li2643 N2693 1.990 . S
Li2643 O2701 1.961 . S
Li2643 O2702 1.970 . S
Li2643 O2703 1.956 . S
C2644 C2646 1.348 . S
C2644 C2647 1.356 . S
C2644 O2700 1.325 . S
N2645 C2648 1.314 . S
N2645 C2649 1.279 . S
C2646 C2644 1.348 . S
C2646 C2648 1.353 . S
C2646 H2704 0.929 . S
C2647 C2644 1.356 . S
C2647 C2649 1.358 . S
C2647 H2705 0.930 . S
C2648 N2645 1.314 . S
C2648 C2646 1.353 . S
C2648 H2706 0.930 . S
C2649 N2645 1.279 . S
C2649 C2647 1.358 . S
C2649 H2707 0.930 . S
C2650 C2653 1.348 . S
C2650 C2654 1.356 . S
C2650 O2701 1.325 . S
C2651 N2652 1.279 . S
C2651 C2654 1.358 . S
C2651 H2708 0.930 . S
N2652 C2651 1.279 . S
N2652 C2655 1.314 . S
C2653 C2650 1.348 . S
C2653 C2655 1.353 . S
C2653 H2709 0.929 . S
C2654 C2650 1.356 . S
C2654 C2651 1.358 . S
C2654 H2710 0.930 . S
C2655 N2652 1.314 . S
C2655 C2653 1.353 . S
C2655 H2711 0.930 . S
C2656 N2657 1.314 . S
C2656 C2661 1.353 . S
C2656 H2662 0.930 . S
N2657 Li2640 1.990 . S
N2657 C2656 1.314 . S
N2657 C2659 1.279 . S
C2658 C2659 1.358 . S
C2658 C2660 1.356 . S
C2658 H2712 0.930 . S
C2659 N2657 1.279 . S
C2659 C2658 1.358 . S
C2659 H2663 0.930 . S
C2660 C2658 1.356 . S
C2660 C2661 1.348 . S
C2661 C2656 1.353 . S
C2661 C2660 1.348 . S
C2661 H2713 0.929 . S
H2662 C2656 0.930 . S
H2663 C2659 0.930 . S
C2664 N2665 1.314 . S
C2664 C2666 1.353 1_556 S
C2664 H2670 0.930 . S
N2665 Li2641 1.990 . S
N2665 C2664 1.314 . S
N2665 C2668 1.279 . S
C2666 C2664 1.353 1_554 S
C2666 C2669 1.348 . S
C2666 H2714 0.929 . S
C2667 C2668 1.358 1_554 S
C2667 C2669 1.356 . S
C2667 H2715 0.930 . S
C2668 N2665 1.279 . S
C2668 C2667 1.358 1_556 S
C2668 H2671 0.930 . S
C2669 C2666 1.348 . S
C2669 C2667 1.356 . S
H2670 C2664 0.930 . S
H2671 C2668 0.930 . S
C2672 C2674 1.348 . S
C2672 C2675 1.356 . S
C2672 O2702 1.325 . S
N2673 C2676 1.314 . S
N2673 C2677 1.279 . S
C2674 C2672 1.348 . S
C2674 C2676 1.353 . S
C2674 H2716 0.929 . S
C2675 C2672 1.356 . S
C2675 C2677 1.358 . S
C2675 H2717 0.930 . S
C2676 N2673 1.314 . S
C2676 C2674 1.353 . S
C2676 H2718 0.930 . S
C2677 N2673 1.279 . S
C2677 C2675 1.358 . S
C2677 H2719 0.930 . S
C2678 C2679 1.348 . S
C2678 C2680 1.356 . S
C2678 O2703 1.325 . S
C2679 C2678 1.348 . S
C2679 C2681 1.353 . S
C2679 H2720 0.929 . S
C2680 C2678 1.356 . S
C2680 C2682 1.358 . S
C2680 H2721 0.930 . S
C2681 C2679 1.353 . S
C2681 N2683 1.314 . S
C2681 H2722 0.930 . S
C2682 C2680 1.358 . S
C2682 N2683 1.279 . S
C2682 H2723 0.930 1_556 S
N2683 C2681 1.314 . S
N2683 C2682 1.279 . S
C2684 C2686 1.353 . S
C2684 N2687 1.314 . S
C2684 H2690 0.930 . S
C2685 N2687 1.279 . S
C2685 C2688 1.358 . S
C2685 H2691 0.930 . S
C2686 C2684 1.353 . S
C2686 C2689 1.348 . S
C2686 H2724 0.929 . S
N2687 Li2642 1.990 . S
N2687 C2684 1.314 . S
N2687 C2685 1.279 . S
C2688 C2685 1.358 . S
C2688 C2689 1.356 . S
C2688 H2725 0.930 . S
C2689 C2686 1.348 . S
C2689 C2688 1.356 . S
H2690 C2684 0.930 . S
H2691 C2685 0.930 . S
C2692 N2693 1.314 . S
C2692 C2694 1.353 . S
C2692 H2698 0.930 . S
N2693 Li2643 1.990 . S
N2693 C2692 1.314 . S
N2693 C2696 1.279 . S
C2694 C2692 1.353 . S
C2694 C2697 1.348 . S
C2694 H2726 0.929 . S
C2695 C2696 1.358 . S
C2695 C2697 1.356 . S
C2695 H2727 0.930 . S
C2696 N2693 1.279 . S
C2696 C2695 1.358 . S
C2696 H2699 0.930 . S
C2697 C2694 1.348 . S
C2697 C2695 1.356 . S
H2698 C2692 0.930 . S
H2699 C2696 0.930 . S
O2700 Li2640 1.956 . S
O2700 Li2641 1.970 . S
O2700 Li2642 1.961 . S
O2700 C2644 1.325 . S
O2701 Li2640 1.970 . S
O2701 Li2641 1.956 . S
O2701 Li2643 1.961 . S
O2701 C2650 1.325 . S
O2702 Li2640 1.961 . S
O2702 Li2642 1.956 . S
O2702 Li2643 1.970 . S
O2702 C2672 1.325 . S
O2703 Li2641 1.961 . S
O2703 Li2642 1.970 . S
O2703 Li2643 1.956 . S
O2703 C2678 1.325 . S
H2704 C2646 0.929 . S
H2705 C2647 0.930 . S
H2706 C2648 0.930 . S
H2707 C2649 0.930 . S
H2708 C2651 0.930 . S
H2709 C2653 0.929 . S
H2710 C2654 0.930 . S
H2711 C2655 0.930 . S
H2712 C2658 0.930 . S
H2713 C2661 0.929 . S
H2714 C2666 0.929 . S
H2715 C2667 0.930 . S
H2716 C2674 0.929 . S
H2717 C2675 0.930 . S
H2718 C2676 0.930 . S
H2719 C2677 0.930 . S
H2720 C2679 0.929 . S
H2721 C2680 0.930 . S
H2722 C2681 0.930 . S
H2723 C2682 0.930 1_554 S
H2724 C2686 0.929 . S
H2725 C2688 0.930 . S
H2726 C2694 0.929 . S
H2727 C2695 0.930 . S
Li2728 N2745 1.990 . S
Li2728 O2788 1.956 . S
Li2728 O2789 1.970 . S
Li2728 O2790 1.961 . S
Li2729 N2753 1.990 . S
Li2729 O2788 1.970 . S
Li2729 O2789 1.956 . S
Li2729 O2791 1.961 . S
Li2730 N2775 1.990 . S
Li2730 O2788 1.961 . S
Li2730 O2790 1.956 . S
Li2730 O2791 1.970 . S
Li2731 N2781 1.990 . S
Li2731 O2789 1.961 . S
Li2731 O2790 1.970 . S
Li2731 O2791 1.956 . S
C2732 C2734 1.348 . S
C2732 C2735 1.356 . S
C2732 O2788 1.325 . S
N2733 C2736 1.314 . S
N2733 C2737 1.279 . S
C2734 C2732 1.348 . S
C2734 C2736 1.353 . S
C2734 H2792 0.929 . S
C2735 C2732 1.356 . S
C2735 C2737 1.358 . S
C2735 H2793 0.930 . S
C2736 N2733 1.314 . S
C2736 C2734 1.353 . S
C2736 H2794 0.930 . S
C2737 N2733 1.279 . S
C2737 C2735 1.358 . S
C2737 H2795 0.930 . S
C2738 C2741 1.348 . S
C2738 C2742 1.356 . S
C2738 O2789 1.325 . S
C2739 N2740 1.279 . S
C2739 C2742 1.358 . S
C2739 H2796 0.930 . S
N2740 C2739 1.279 . S
N2740 C2743 1.314 . S
C2741 C2738 1.348 . S
C2741 C2743 1.353 . S
C2741 H2797 0.929 . S
C2742 C2738 1.356 . S
C2742 C2739 1.358 . S
C2742 H2798 0.930 . S
C2743 N2740 1.314 . S
C2743 C2741 1.353 . S
C2743 H2799 0.930 . S
C2744 N2745 1.314 . S
C2744 C2749 1.353 . S
C2744 H2750 0.930 . S
N2745 Li2728 1.990 . S
N2745 C2744 1.314 . S
N2745 C2747 1.279 . S
C2746 C2747 1.358 . S
C2746 C2748 1.356 . S
C2746 H2800 0.930 . S
C2747 N2745 1.279 . S
C2747 C2746 1.358 . S
C2747 H2751 0.930 . S
C2748 C2746 1.356 . S
C2748 C2749 1.348 . S
C2749 C2744 1.353 . S
C2749 C2748 1.348 . S
C2749 H2801 0.929 . S
H2750 C2744 0.930 . S
H2751 C2747 0.930 . S
C2752 N2753 1.314 . S
C2752 C2754 1.353 . S
C2752 H2758 0.930 . S
N2753 Li2729 1.990 . S
N2753 C2752 1.314 . S
N2753 C2756 1.279 . S
C2754 C2752 1.353 . S
C2754 C2757 1.348 . S
C2754 H2802 0.929 . S
C2755 C2756 1.358 . S
C2755 C2757 1.356 . S
C2755 H2803 0.930 . S
C2756 N2753 1.279 . S
C2756 C2755 1.358 . S
C2756 H2759 0.930 . S
C2757 C2754 1.348 . S
C2757 C2755 1.356 . S
H2758 C2752 0.930 . S
H2759 C2756 0.930 . S
C2760 C2762 1.348 . S
C2760 C2763 1.356 . S
C2760 O2790 1.325 . S
N2761 C2764 1.314 . S
N2761 C2765 1.279 . S
C2762 C2760 1.348 . S
C2762 C2764 1.353 . S
C2762 H2804 0.929 . S
C2763 C2760 1.356 . S
C2763 C2765 1.358 . S
C2763 H2805 0.930 . S
C2764 N2761 1.314 . S
C2764 C2762 1.353 . S
C2764 H2806 0.930 . S
C2765 N2761 1.279 . S
C2765 C2763 1.358 . S
C2765 H2807 0.930 . S
C2766 C2767 1.348 . S
C2766 C2768 1.356 . S
C2766 O2791 1.325 . S
C2767 C2766 1.348 . S
C2767 C2769 1.353 . S
C2767 H2808 0.929 . S
C2768 C2766 1.356 . S
C2768 C2770 1.358 . S
C2768 H2809 0.930 . S
C2769 C2767 1.353 . S
C2769 N2771 1.314 . S
C2769 H2810 0.930 . S
C2770 C2768 1.358 . S
C2770 N2771 1.279 . S
C2770 H2811 0.930 . S
N2771 C2769 1.314 . S
N2771 C2770 1.279 . S
C2772 C2774 1.353 . S
C2772 N2775 1.314 . S
C2772 H2778 0.930 . S
C2773 N2775 1.279 . S
C2773 C2776 1.358 . S
C2773 H2779 0.930 . S
C2774 C2772 1.353 . S
C2774 C2777 1.348 . S
C2774 H2812 0.929 . S
N2775 Li2730 1.990 . S
N2775 C2772 1.314 . S
N2775 C2773 1.279 . S
C2776 C2773 1.358 . S
C2776 C2777 1.356 . S
C2776 H2813 0.930 . S
C2777 C2774 1.348 . S
C2777 C2776 1.356 . S
H2778 C2772 0.930 . S
H2779 C2773 0.930 . S
C2780 N2781 1.314 . S
C2780 C2782 1.353 . S
C2780 H2786 0.930 . S
N2781 Li2731 1.990 . S
N2781 C2780 1.314 . S
N2781 C2784 1.279 . S
C2782 C2780 1.353 . S
C2782 C2785 1.348 . S
C2782 H2814 0.929 . S
C2783 C2784 1.358 . S
C2783 C2785 1.356 . S
C2783 H2815 0.930 . S
C2784 N2781 1.279 . S
C2784 C2783 1.358 . S
C2784 H2787 0.930 . S
C2785 C2782 1.348 . S
C2785 C2783 1.356 . S
H2786 C2780 0.930 . S
H2787 C2784 0.930 . S
O2788 Li2728 1.956 . S
O2788 Li2729 1.970 . S
O2788 Li2730 1.961 . S
O2788 C2732 1.325 . S
O2789 Li2728 1.970 . S
O2789 Li2729 1.956 . S
O2789 Li2731 1.961 . S
O2789 C2738 1.325 . S
O2790 Li2728 1.961 . S
O2790 Li2730 1.956 . S
O2790 Li2731 1.970 . S
O2790 C2760 1.325 . S
O2791 Li2729 1.961 . S
O2791 Li2730 1.970 . S
O2791 Li2731 1.956 . S
O2791 C2766 1.325 . S
H2792 C2734 0.929 . S
H2793 C2735 0.930 . S
H2794 C2736 0.930 . S
H2795 C2737 0.930 . S
H2796 C2739 0.930 . S
H2797 C2741 0.929 . S
H2798 C2742 0.930 . S
H2799 C2743 0.930 . S
H2800 C2746 0.930 . S
H2801 C2749 0.929 . S
H2802 C2754 0.929 . S
H2803 C2755 0.930 . S
H2804 C2762 0.929 . S
H2805 C2763 0.930 . S
H2806 C2764 0.930 . S
H2807 C2765 0.930 . S
H2808 C2767 0.929 . S
H2809 C2768 0.930 . S
H2810 C2769 0.930 . S
H2811 C2770 0.930 . S
H2812 C2774 0.929 . S
H2813 C2776 0.930 . S
H2814 C2782 0.929 . S
H2815 C2783 0.930 . S
H2816 C2828 0.930 . S
H2817 C2830 0.930 . S
H2818 C2831 0.930 . S
H2819 C2835 0.959 . S
H2820 C2835 0.959 . S
H2821 C2835 0.961 . S
H2822 C2836 0.960 . S
H2823 C2836 0.961 . S
H2824 C2836 0.959 . S
H2825 C2839 0.929 . S
H2826 C2840 0.931 . S
H2827 C2842 0.930 . S
C2828 H2816 0.930 . S
C2828 C2829 1.399 . S
C2828 C2833 1.399 . S
C2829 C2828 1.399 . S
C2829 C2830 1.376 . S
C2830 H2817 0.930 . S
C2830 C2829 1.376 . S
C2830 C2831 1.388 . S
C2831 H2818 0.930 . S
C2831 C2830 1.388 . S
C2831 C2832 1.390 . S
C2832 C2831 1.390 . S
C2832 C2833 1.394 . S
C2832 C2838 1.495 . S
C2833 C2828 1.399 . S
C2833 C2832 1.394 . S
C2833 C2834 1.516 1_545 S
C2834 C2833 1.516 1_565 S
C2834 C2835 1.502 . S
C2834 C2836 1.561 . S
C2834 C2837 1.526 . S
C2835 H2819 0.959 . S
C2835 H2820 0.959 . S
C2835 H2821 0.961 . S
C2835 C2834 1.502 . S
C2836 H2822 0.960 . S
C2836 H2823 0.961 . S
C2836 H2824 0.959 . S
C2836 C2834 1.561 . S
C2837 C2834 1.526 . S
C2837 C2838 1.350 1_565 S
C2837 C2842 1.390 . S
C2838 C2832 1.495 . S
C2838 C2837 1.350 1_545 S
C2838 C2839 1.410 . S
C2839 H2825 0.929 . S
C2839 C2838 1.410 . S
C2839 C2840 1.385 1_545 S
C2840 H2826 0.931 . S
C2840 C2839 1.385 1_565 S
C2840 C2841 1.389 . S
C2841 C2840 1.389 . S
C2841 C2842 1.387 . S
C2842 H2827 0.930 . S
C2842 C2837 1.390 . S
C2842 C2841 1.387 . S
H2843 C2855 0.930 . S
H2844 C2857 0.930 . S
H2845 C2858 0.930 . S
H2846 C2862 0.959 . S
H2847 C2862 0.959 . S
H2848 C2862 0.961 . S
H2849 C2863 0.960 . S
H2850 C2863 0.961 . S
H2851 C2863 0.959 . S
H2852 C2866 0.929 . S
H2853 C2867 0.931 . S
H2854 C2869 0.930 . S
C2855 H2843 0.930 . S
C2855 C2856 1.399 . S
C2855 C2860 1.399 . S
C2856 C2855 1.399 . S
C2856 C2857 1.376 . S
C2857 H2844 0.930 . S
C2857 C2856 1.376 . S
C2857 C2858 1.388 . S
C2858 H2845 0.930 . S
C2858 C2857 1.388 . S
C2858 C2859 1.390 . S
C2859 C2858 1.390 . S
C2859 C2860 1.394 . S
C2859 C2865 1.465 . S
C2860 C2855 1.399 . S
C2860 C2859 1.394 . S
C2860 C2861 1.516 . S
C2861 C2860 1.516 . S
C2861 C2862 1.502 . S
C2861 C2863 1.561 . S
C2861 C2864 1.526 . S
C2862 H2846 0.959 . S
C2862 H2847 0.959 . S
C2862 H2848 0.961 . S
C2862 C2861 1.502 . S
C2863 H2849 0.960 . S
C2863 H2850 0.961 . S
C2863 H2851 0.959 . S
C2863 C2861 1.561 . S
C2864 C2861 1.526 . S
C2864 C2865 1.396 . S
C2864 C2869 1.390 . S
C2865 C2859 1.465 . S
C2865 C2864 1.396 . S
C2865 C2866 1.399 . S
C2866 H2852 0.929 . S
C2866 C2865 1.399 . S
C2866 C2867 1.385 . S
C2867 H2853 0.931 . S
C2867 C2866 1.385 . S
C2867 C2868 1.389 . S
C2868 C2867 1.389 . S
C2868 C2869 1.387 . S
C2869 H2854 0.930 . S
C2869 C2864 1.390 . S
C2869 C2868 1.387 . S
H2870 C2882 0.930 . S
H2871 C2884 0.930 . S
H2872 C2885 0.903 1_565 S
H2873 C2889 0.959 . S
H2874 C2889 0.959 . S
H2875 C2889 0.961 . S
H2876 C2890 0.971 . S
H2877 C2890 0.958 1_565 S
H2878 C2890 0.945 1_565 S
H2879 C2893 0.929 . S
H2880 C2894 0.931 . S
H2881 C2896 0.930 . S
C2882 H2870 0.930 . S
C2882 C2883 1.399 . S
C2882 C2887 1.399 . S
C2883 C2882 1.399 . S
C2883 C2884 1.376 . S
C2884 H2871 0.930 . S
C2884 C2883 1.376 . S
C2884 C2885 1.418 . S
C2885 H2872 0.903 1_545 S
C2885 C2884 1.418 . S
C2885 C2886 1.389 . S
C2886 C2885 1.389 . S
C2886 C2887 1.397 . S
C2886 C2892 1.463 1_545 S
C2887 C2882 1.399 . S
C2887 C2886 1.397 . S
C2887 C2888 1.516 . S
C2888 C2887 1.516 . S
C2888 C2889 1.502 . S
C2888 C2890 1.567 . S
C2888 C2891 1.526 1_545 S
C2889 H2873 0.959 . S
C2889 H2874 0.959 . S
C2889 H2875 0.961 . S
C2889 C2888 1.502 . S
C2890 H2876 0.971 . S
C2890 H2877 0.958 1_545 S
C2890 H2878 0.945 1_545 S
C2890 C2888 1.567 . S
C2891 C2888 1.526 1_565 S
C2891 C2892 1.396 . S
C2891 C2896 1.390 . S
C2892 C2886 1.463 1_565 S
C2892 C2891 1.396 . S
C2892 C2893 1.399 . S
C2893 H2879 0.929 . S
C2893 C2892 1.399 . S
C2893 C2894 1.385 . S
C2894 H2880 0.931 . S
C2894 C2893 1.385 . S
C2894 C2895 1.389 . S
C2895 C2894 1.389 . S
C2895 C2896 1.387 . S
C2896 H2881 0.930 . S
C2896 C2891 1.390 . S
C2896 C2895 1.387 . S
H2897 C2909 0.930 . S
H2898 C2911 0.930 . S
H2899 C2912 0.930 . S
H2900 C2916 0.959 . S
H2901 C2916 0.959 . S
H2902 C2916 0.961 . S
H2903 C2917 0.960 1_556 S
H2904 C2917 0.961 . S
H2905 C2917 0.959 . S
H2906 C2920 0.929 . S
H2907 C2921 0.931 . S
H2908 C2923 0.930 . S
C2909 H2897 0.930 . S
C2909 C2910 1.399 . S
C2909 C2914 1.399 . S
C2910 C2909 1.399 . S
C2910 C2911 1.376 . S
C2911 H2898 0.930 . S
C2911 C2910 1.376 . S
C2911 C2912 1.388 . S
C2912 H2899 0.930 . S
C2912 C2911 1.388 . S
C2912 C2913 1.390 . S
C2913 C2912 1.390 . S
C2913 C2914 1.394 . S
C2913 C2919 1.465 1_556 S
C2914 C2909 1.399 . S
C2914 C2913 1.394 . S
C2914 C2915 1.516 . S
C2915 C2914 1.516 . S
C2915 C2916 1.502 . S
C2915 C2917 1.561 1_556 S
C2915 C2918 1.526 1_556 S
C2916 H2900 0.959 . S
C2916 H2901 0.959 . S
C2916 H2902 0.961 . S
C2916 C2915 1.502 . S
C2917 H2903 0.960 1_554 S
C2917 H2904 0.961 . S
C2917 H2905 0.959 . S
C2917 C2915 1.561 1_554 S
C2918 C2915 1.526 1_554 S
C2918 C2919 1.396 . S
C2918 C2923 1.390 . S
C2919 C2913 1.465 1_554 S
C2919 C2918 1.396 . S
C2919 C2920 1.399 . S
C2920 H2906 0.929 . S
C2920 C2919 1.399 . S
C2920 C2921 1.385 . S
C2921 H2907 0.931 . S
C2921 C2920 1.385 . S
C2921 C2922 1.389 . S
C2922 C2921 1.389 . S
C2922 C2923 1.387 . S
C2923 H2908 0.930 . S
C2923 C2918 1.390 . S
C2923 C2922 1.387 . S
H2924 C2936 0.930 . S
H2925 C2938 0.930 . S
H2926 C2939 0.930 . S
H2927 C2943 0.959 . S
H2928 C2943 0.959 . S
H2929 C2943 0.961 . S
H2930 C2944 0.960 . S
H2931 C2944 0.961 . S
H2932 C2944 0.959 . S
H2933 C2947 0.929 . S
H2934 C2948 0.931 . S
H2935 C2950 0.930 . S
C2936 H2924 0.930 . S
C2936 C2937 1.399 . S
C2936 C2941 1.399 . S
C2937 C2936 1.399 . S
C2937 C2938 1.376 . S
C2938 H2925 0.930 . S
C2938 C2937 1.376 . S
C2938 C2939 1.388 1_565 S
C2939 H2926 0.930 . S
C2939 C2938 1.388 1_545 S
C2939 C2940 1.398 . S
C2940 C2939 1.398 . S
C2940 C2941 1.359 1_545 S
C2940 C2946 1.488 . S
C2941 C2936 1.399 . S
C2941 C2940 1.359 1_565 S
C2941 C2942 1.516 . S
C2942 C2941 1.516 . S
C2942 C2943 1.502 . S
C2942 C2944 1.561 . S
C2942 C2945 1.526 1_565 S
C2943 H2927 0.959 . S
C2943 H2928 0.959 . S
C2943 H2929 0.961 . S
C2943 C2942 1.502 . S
C2944 H2930 0.960 . S
C2944 H2931 0.961 . S
C2944 H2932 0.959 . S
C2944 C2942 1.561 . S
C2945 C2942 1.526 1_545 S
C2945 C2946 1.396 . S
C2945 C2950 1.390 . S
C2946 C2940 1.488 . S
C2946 C2945 1.396 . S
C2946 C2947 1.399 . S
C2947 H2933 0.929 . S
C2947 C2946 1.399 . S
C2947 C2948 1.385 . S
C2948 H2934 0.931 . S
C2948 C2947 1.385 . S
C2948 C2949 1.389 . S
C2949 C2948 1.389 . S
C2949 C2950 1.387 . S
C2950 H2935 0.930 . S
C2950 C2945 1.390 . S
C2950 C2949 1.387 . S
H2951 C2963 0.930 . S
H2952 C2965 0.930 . S
H2953 C2966 0.930 . S
H2954 C2970 0.959 . S
H2955 C2970 0.959 . S
H2956 C2970 0.961 . S
H2957 C2971 0.960 . S
H2958 C2971 0.961 . S
H2959 C2971 0.959 . S
H2960 C2974 0.929 . S
H2961 C2975 0.931 . S
H2962 C2977 0.930 . S
C2963 H2951 0.930 . S
C2963 C2964 1.399 . S
C2963 C2968 1.399 . S
C2964 C2963 1.399 . S
C2964 C2965 1.376 . S
C2965 H2952 0.930 . S
C2965 C2964 1.376 . S
C2965 C2966 1.388 . S
C2966 H2953 0.930 . S
C2966 C2965 1.388 . S
C2966 C2967 1.390 . S
C2967 C2966 1.390 . S
C2967 C2968 1.394 . S
C2967 C2973 1.465 . S
C2968 C2963 1.399 . S
C2968 C2967 1.394 . S
C2968 C2969 1.516 . S
C2969 C2968 1.516 . S
C2969 C2970 1.502 . S
C2969 C2971 1.561 . S
C2969 C2972 1.526 . S
C2970 H2954 0.959 . S
C2970 H2955 0.959 . S
C2970 H2956 0.961 . S
C2970 C2969 1.502 . S
C2971 H2957 0.960 . S
C2971 H2958 0.961 . S
C2971 H2959 0.959 . S
C2971 C2969 1.561 . S
C2972 C2969 1.526 . S
C2972 C2973 1.396 . S
C2972 C2977 1.390 . S
C2973 C2967 1.465 . S
C2973 C2972 1.396 . S
C2973 C2974 1.399 . S
C2974 H2960 0.929 . S
C2974 C2973 1.399 . S
C2974 C2975 1.385 . S
C2975 H2961 0.931 . S
C2975 C2974 1.385 . S
C2975 C2976 1.389 . S
C2976 C2975 1.389 . S
C2976 C2977 1.387 . S
C2977 H2962 0.930 . S
C2977 C2972 1.390 . S
C2977 C2976 1.387 . S
H2978 C2990 0.930 . S
H2979 C2992 0.930 . S
H2980 C2993 0.900 1_545 S
H2981 C2997 0.959 1_545 S
H2982 C2997 0.959 . S
H2983 C2997 0.961 . S
H2984 C2998 0.960 . S
H2985 C2998 0.961 . S
H2986 C2998 0.959 . S
H2987 C3001 0.929 . S
H2988 C3002 0.931 . S
H2989 C3004 0.930 . S
C2990 H2978 0.930 . S
C2990 C2991 1.399 . S
C2990 C2995 1.399 . S
C2991 C2990 1.399 . S
C2991 C2992 1.376 . S
C2992 H2979 0.930 . S
C2992 C2991 1.376 . S
C2992 C2993 1.388 . S
C2993 H2980 0.900 1_565 S
C2993 C2992 1.388 . S
C2993 C2994 1.390 . S
C2994 C2993 1.390 . S
C2994 C2995 1.394 . S
C2994 C3000 1.465 1_565 S
C2995 C2990 1.399 . S
C2995 C2994 1.394 . S
C2995 C2996 1.516 . S
C2996 C2995 1.516 . S
C2996 C2997 1.502 . S
C2996 C2998 1.561 . S
C2996 C2999 1.526 1_565 S
C2997 H2981 0.959 1_565 S
C2997 H2982 0.959 . S
C2997 H2983 0.961 . S
C2997 C2996 1.502 . S
C2998 H2984 0.960 . S
C2998 H2985 0.961 . S
C2998 H2986 0.959 . S
C2998 C2996 1.561 . S
C2999 C2996 1.526 1_545 S
C2999 C3000 1.396 . S
C2999 C3004 1.390 . S
C3000 C2994 1.465 1_545 S
C3000 C2999 1.396 . S
C3000 C3001 1.399 . S
C3001 H2987 0.929 . S
C3001 C3000 1.399 . S
C3001 C3002 1.385 . S
C3002 H2988 0.931 . S
C3002 C3001 1.385 . S
C3002 C3003 1.389 . S
C3003 C3002 1.389 . S
C3003 C3004 1.387 . S
C3004 H2989 0.930 . S
C3004 C2999 1.390 . S
C3004 C3003 1.387 . S
H3005 C3017 0.930 . S
H3006 C3019 0.930 . S
H3007 C3020 0.930 . S
H3008 C3024 0.959 . S
H3009 C3024 0.959 . S
H3010 C3024 0.961 . S
H3011 C3025 0.960 . S
H3012 C3025 0.961 1_554 S
H3013 C3025 0.959 . S
H3014 C3028 0.929 . S
H3015 C3029 0.931 . S
H3016 C3031 0.930 . S
C3017 H3005 0.930 . S
C3017 C3018 1.399 . S
C3017 C3022 1.399 . S
C3018 C3017 1.399 . S
C3018 C3019 1.376 . S
C3019 H3006 0.930 . S
C3019 C3018 1.376 . S
C3019 C3020 1.388 . S
C3020 H3007 0.930 . S
C3020 C3019 1.388 . S
C3020 C3021 1.390 . S
C3021 C3020 1.390 . S
C3021 C3022 1.394 . S
C3021 C3027 1.465 1_556 S
C3022 C3017 1.399 . S
C3022 C3021 1.394 . S
C3022 C3023 1.516 1_556 S
C3023 C3022 1.516 1_554 S
C3023 C3024 1.502 . S
C3023 C3025 1.561 1_554 S
C3023 C3026 1.526 . S
C3024 H3008 0.959 . S
C3024 H3009 0.959 . S
C3024 H3010 0.961 . S
C3024 C3023 1.502 . S
C3025 H3011 0.960 . S
C3025 H3012 0.961 1_556 S
C3025 H3013 0.959 . S
C3025 C3023 1.561 1_556 S
C3026 C3023 1.526 . S
C3026 C3027 1.396 . S
C3026 C3031 1.390 . S
C3027 C3021 1.465 1_554 S
C3027 C3026 1.396 . S
C3027 C3028 1.399 . S
C3028 H3014 0.929 . S
C3028 C3027 1.399 . S
C3028 C3029 1.385 . S
C3029 H3015 0.931 . S
C3029 C3028 1.385 . S
C3029 C3030 1.389 . S
C3030 C3029 1.389 . S
C3030 C3031 1.387 . S
C3031 H3016 0.930 . S
C3031 C3026 1.390 . S
C3031 C3030 1.387 . S
H3032 C3044 0.930 . S
H3033 C3046 0.930 . S
H3034 C3047 0.930 . S
H3035 C3051 0.959 . S
H3036 C3051 0.959 . S
H3037 C3051 0.961 . S
H3038 C3052 0.960 . S
H3039 C3052 0.961 . S
H3040 C3052 0.959 . S
H3041 C3055 0.929 . S
H3042 C3056 0.931 . S
H3043 C3058 0.930 . S
C3044 H3032 0.930 . S
C3044 C3045 1.399 . S
C3044 C3049 1.399 . S
C3045 C3044 1.399 . S
C3045 C3046 1.376 . S
C3046 H3033 0.930 . S
C3046 C3045 1.376 . S
C3046 C3047 1.388 . S
C3047 H3034 0.930 . S
C3047 C3046 1.388 . S
C3047 C3048 1.390 . S
C3048 C3047 1.390 . S
C3048 C3049 1.394 . S
C3048 C3054 1.465 . S
C3049 C3044 1.399 . S
C3049 C3048 1.394 . S
C3049 C3050 1.516 . S
C3050 C3049 1.516 . S
C3050 C3051 1.502 . S
C3050 C3052 1.561 . S
C3050 C3053 1.526 . S
C3051 H3035 0.959 . S
C3051 H3036 0.959 . S
C3051 H3037 0.961 . S
C3051 C3050 1.502 . S
C3052 H3038 0.960 . S
C3052 H3039 0.961 . S
C3052 H3040 0.959 . S
C3052 C3050 1.561 . S
C3053 C3050 1.526 . S
C3053 C3054 1.396 . S
C3053 C3058 1.390 . S
C3054 C3048 1.465 . S
C3054 C3053 1.396 . S
C3054 C3055 1.399 . S
C3055 H3041 0.929 . S
C3055 C3054 1.399 . S
C3055 C3056 1.385 . S
C3056 H3042 0.931 . S
C3056 C3055 1.385 . S
C3056 C3057 1.389 . S
C3057 C3056 1.389 . S
C3057 C3058 1.387 . S
C3058 H3043 0.930 . S
C3058 C3053 1.390 . S
C3058 C3057 1.387 . S
H3059 C3071 0.930 . S
H3060 C3073 0.930 . S
H3061 C3074 0.930 . S
H3062 C3078 0.959 . S
H3063 C3078 0.959 . S
H3064 C3078 0.961 . S
H3065 C3079 0.960 . S
H3066 C3079 0.961 1_554 S
H3067 C3079 0.959 . S
H3068 C3082 0.929 . S
H3069 C3083 0.931 . S
H3070 C3085 0.930 . S
C3071 H3059 0.930 . S
C3071 C3072 1.399 . S
C3071 C3076 1.399 . S
C3072 C3071 1.399 . S
C3072 C3073 1.376 . S
C3073 H3060 0.930 . S
C3073 C3072 1.376 . S
C3073 C3074 1.388 . S
C3074 H3061 0.930 . S
C3074 C3073 1.388 . S
C3074 C3075 1.390 . S
C3075 C3074 1.390 . S
C3075 C3076 1.394 . S
C3075 C3081 1.465 1_556 S
C3076 C3071 1.399 . S
C3076 C3075 1.394 . S
C3076 C3077 1.516 1_556 S
C3077 C3076 1.516 1_554 S
C3077 C3078 1.502 . S
C3077 C3079 1.561 1_554 S
C3077 C3080 1.526 . S
C3078 H3062 0.959 . S
C3078 H3063 0.959 . S
C3078 H3064 0.961 . S
C3078 C3077 1.502 . S
C3079 H3065 0.960 . S
C3079 H3066 0.961 1_556 S
C3079 H3067 0.959 . S
C3079 C3077 1.561 1_556 S
C3080 C3077 1.526 . S
C3080 C3081 1.396 . S
C3080 C3085 1.390 . S
C3081 C3075 1.465 1_554 S
C3081 C3080 1.396 . S
C3081 C3082 1.399 . S
C3082 H3068 0.929 . S
C3082 C3081 1.399 . S
C3082 C3083 1.385 . S
C3083 H3069 0.931 . S
C3083 C3082 1.385 . S
C3083 C3084 1.389 . S
C3084 C3083 1.389 . S
C3084 C3085 1.387 . S
C3085 H3070 0.930 . S
C3085 C3080 1.390 . S
C3085 C3084 1.387 . S
H3086 C3098 0.930 . S
H3087 C3100 0.930 . S
H3088 C3101 0.930 . S
H3089 C3105 0.959 . S
H3090 C3105 0.959 . S
H3091 C3105 0.961 . S
H3092 C3106 0.960 . S
H3093 C3106 0.961 . S
H3094 C3106 0.959 . S
H3095 C3109 0.929 . S
H3096 C3110 0.931 . S
H3097 C3112 0.930 . S
C3098 H3086 0.930 . S
C3098 C3099 1.399 . S
C3098 C3103 1.399 . S
C3099 C3098 1.399 . S
C3099 C3100 1.376 . S
C3100 H3087 0.930 . S
C3100 C3099 1.376 . S
C3100 C3101 1.388 . S
C3101 H3088 0.930 . S
C3101 C3100 1.388 . S
C3101 C3102 1.390 . S
C3102 C3101 1.390 . S
C3102 C3103 1.394 . S
C3102 C3108 1.465 . S
C3103 C3098 1.399 . S
C3103 C3102 1.394 . S
C3103 C3104 1.516 . S
C3104 C3103 1.516 . S
C3104 C3105 1.502 . S
C3104 C3106 1.561 . S
C3104 C3107 1.526 . S
C3105 H3089 0.959 . S
C3105 H3090 0.959 . S
C3105 H3091 0.961 . S
C3105 C3104 1.502 . S
C3106 H3092 0.960 . S
C3106 H3093 0.961 . S
C3106 H3094 0.959 . S
C3106 C3104 1.561 . S
C3107 C3104 1.526 . S
C3107 C3108 1.396 . S
C3107 C3112 1.390 . S
C3108 C3102 1.465 . S
C3108 C3107 1.396 . S
C3108 C3109 1.399 . S
C3109 H3095 0.929 . S
C3109 C3108 1.399 . S
C3109 C3110 1.385 . S
C3110 H3096 0.931 . S
C3110 C3109 1.385 . S
C3110 C3111 1.389 . S
C3111 C3110 1.389 . S
C3111 C3112 1.387 . S
C3112 H3097 0.930 . S
C3112 C3107 1.390 . S
C3112 C3111 1.387 . S
H3113 C3125 0.930 . S
H3114 C3127 0.930 . S
H3115 C3128 0.930 . S
H3116 C3132 0.959 . S
H3117 C3132 0.959 . S
H3118 C3132 0.961 . S
H3119 C3133 0.960 . S
H3120 C3133 0.961 . S
H3121 C3133 0.959 . S
H3122 C3136 0.929 . S
H3123 C3137 0.931 . S
H3124 C3139 0.930 . S
C3125 H3113 0.930 . S
C3125 C3126 1.399 . S
C3125 C3130 1.399 . S
C3126 C3125 1.399 . S
C3126 C3127 1.376 . S
C3127 H3114 0.930 . S
C3127 C3126 1.376 . S
C3127 C3128 1.388 . S
C3128 H3115 0.930 . S
C3128 C3127 1.388 . S
C3128 C3129 1.390 . S
C3129 C3128 1.390 . S
C3129 C3130 1.394 . S
C3129 C3135 1.465 . S
C3130 C3125 1.399 . S
C3130 C3129 1.394 . S
C3130 C3131 1.516 . S
C3131 C3130 1.516 . S
C3131 C3132 1.502 . S
C3131 C3133 1.561 . S
C3131 C3134 1.526 . S
C3132 H3116 0.959 . S
C3132 H3117 0.959 . S
C3132 H3118 0.961 . S
C3132 C3131 1.502 . S
C3133 H3119 0.960 . S
C3133 H3120 0.961 . S
C3133 H3121 0.959 . S
C3133 C3131 1.561 . S
C3134 C3131 1.526 . S
C3134 C3135 1.396 . S
C3134 C3139 1.390 . S
C3135 C3129 1.465 . S
C3135 C3134 1.396 . S
C3135 C3136 1.399 . S
C3136 H3122 0.929 . S
C3136 C3135 1.399 . S
C3136 C3137 1.385 . S
C3137 H3123 0.931 . S
C3137 C3136 1.385 . S
C3137 C3138 1.389 . S
C3138 C3137 1.389 . S
C3138 C3139 1.387 . S
C3139 H3124 0.930 . S
C3139 C3134 1.390 . S
C3139 C3138 1.387 . S
H3140 C3152 0.930 . S
H3141 C3154 0.930 . S
H3142 C3155 0.930 . S
H3143 C3159 0.959 . S
H3144 C3159 0.959 . S
H3145 C3159 0.961 . S
H3146 C3160 0.960 . S
H3147 C3160 0.961 . S
H3148 C3160 0.959 . S
H3149 C3163 0.929 . S
H3150 C3164 0.931 . S
H3151 C3166 0.930 . S
C3152 H3140 0.930 . S
C3152 C3153 1.399 . S
C3152 C3157 1.399 . S
C3153 C3152 1.399 . S
C3153 C3154 1.376 . S
C3154 H3141 0.930 . S
C3154 C3153 1.376 . S
C3154 C3155 1.388 . S
C3155 H3142 0.930 . S
C3155 C3154 1.388 . S
C3155 C3156 1.390 . S
C3156 C3155 1.390 . S
C3156 C3157 1.394 . S
C3156 C3162 1.465 . S
C3157 C3152 1.399 . S
C3157 C3156 1.394 . S
C3157 C3158 1.516 . S
C3158 C3157 1.516 . S
C3158 C3159 1.502 . S
C3158 C3160 1.561 . S
C3158 C3161 1.526 . S
C3159 H3143 0.959 . S
C3159 H3144 0.959 . S
C3159 H3145 0.961 . S
C3159 C3158 1.502 . S
C3160 H3146 0.960 . S
C3160 H3147 0.961 . S
C3160 H3148 0.959 . S
C3160 C3158 1.561 . S
C3161 C3158 1.526 . S
C3161 C3162 1.396 . S
C3161 C3166 1.390 . S
C3162 C3156 1.465 . S
C3162 C3161 1.396 . S
C3162 C3163 1.399 . S
C3163 H3149 0.929 . S
C3163 C3162 1.399 . S
C3163 C3164 1.385 . S
C3164 H3150 0.931 . S
C3164 C3163 1.385 . S
C3164 C3165 1.389 . S
C3165 C3164 1.389 . S
C3165 C3166 1.387 . S
C3166 H3151 0.930 . S
C3166 C3161 1.390 . S
C3166 C3165 1.387 . S
H3167 C3179 0.930 . S
H3168 C3181 0.930 . S
H3169 C3182 0.930 . S
H3170 C3186 0.959 . S
H3171 C3186 0.959 . S
H3172 C3186 0.961 . S
H3173 C3187 0.960 . S
H3174 C3187 0.961 1_556 S
H3175 C3187 0.959 . S
H3176 C3190 0.929 . S
H3177 C3191 0.931 . S
H3178 C3193 0.930 . S
C3179 H3167 0.930 . S
C3179 C3180 1.399 . S
C3179 C3184 1.399 . S
C3180 C3179 1.399 . S
C3180 C3181 1.376 . S
C3181 H3168 0.930 . S
C3181 C3180 1.376 . S
C3181 C3182 1.388 . S
C3182 H3169 0.930 . S
C3182 C3181 1.388 . S
C3182 C3183 1.390 . S
C3183 C3182 1.390 . S
C3183 C3184 1.394 . S
C3183 C3189 1.465 1_554 S
C3184 C3179 1.399 . S
C3184 C3183 1.394 . S
C3184 C3185 1.516 1_554 S
C3185 C3184 1.516 1_556 S
C3185 C3186 1.502 . S
C3185 C3187 1.561 1_556 S
C3185 C3188 1.526 . S
C3186 H3170 0.959 . S
C3186 H3171 0.959 . S
C3186 H3172 0.961 . S
C3186 C3185 1.502 . S
C3187 H3173 0.960 . S
C3187 H3174 0.961 1_554 S
C3187 H3175 0.959 . S
C3187 C3185 1.561 1_554 S
C3188 C3185 1.526 . S
C3188 C3189 1.396 . S
C3188 C3193 1.390 . S
C3189 C3183 1.465 1_556 S
C3189 C3188 1.396 . S
C3189 C3190 1.399 . S
C3190 H3176 0.929 . S
C3190 C3189 1.399 . S
C3190 C3191 1.385 . S
C3191 H3177 0.931 . S
C3191 C3190 1.385 . S
C3191 C3192 1.389 . S
C3192 C3191 1.389 . S
C3192 C3193 1.387 . S
C3193 H3178 0.930 . S
C3193 C3188 1.390 . S
C3193 C3192 1.387 . S
H3194 C3206 0.930 . S
H3195 C3208 0.930 . S
H3196 C3209 0.930 . S
H3197 C3213 0.959 . S
H3198 C3213 0.959 . S
H3199 C3213 0.961 . S
H3200 C3214 0.960 . S
H3201 C3214 0.961 . S
H3202 C3214 0.959 . S
H3203 C3217 0.929 . S
H3204 C3218 0.931 . S
H3205 C3220 0.930 . S
C3206 H3194 0.930 . S
C3206 C3207 1.399 . S
C3206 C3211 1.399 . S
C3207 C3206 1.399 . S
C3207 C3208 1.376 . S
C3208 H3195 0.930 . S
C3208 C3207 1.376 . S
C3208 C3209 1.388 . S
C3209 H3196 0.930 . S
C3209 C3208 1.388 . S
C3209 C3210 1.390 . S
C3210 C3209 1.390 . S
C3210 C3211 1.394 . S
C3210 C3216 1.465 . S
C3211 C3206 1.399 . S
C3211 C3210 1.394 . S
C3211 C3212 1.516 . S
C3212 C3211 1.516 . S
C3212 C3213 1.502 . S
C3212 C3214 1.561 . S
C3212 C3215 1.526 . S
C3213 H3197 0.959 . S
C3213 H3198 0.959 . S
C3213 H3199 0.961 . S
C3213 C3212 1.502 . S
C3214 H3200 0.960 . S
C3214 H3201 0.961 . S
C3214 H3202 0.959 . S
C3214 C3212 1.561 . S
C3215 C3212 1.526 . S
C3215 C3216 1.396 . S
C3215 C3220 1.390 . S
C3216 C3210 1.465 . S
C3216 C3215 1.396 . S
C3216 C3217 1.399 . S
C3217 H3203 0.929 . S
C3217 C3216 1.399 . S
C3217 C3218 1.385 . S
C3218 H3204 0.931 . S
C3218 C3217 1.385 . S
C3218 C3219 1.389 . S
C3219 C3218 1.389 . S
C3219 C3220 1.387 . S
C3220 H3205 0.930 . S
C3220 C3215 1.390 . S
C3220 C3219 1.387 . S
H3221 C3233 0.930 . S
H3222 C3235 0.930 . S
H3223 C3236 0.930 . S
H3224 C3240 0.959 . S
H3225 C3240 0.959 . S
H3226 C3240 0.961 . S
H3227 C3241 0.960 . S
H3228 C3241 0.961 . S
H3229 C3241 0.959 . S
H3230 C3244 0.929 . S
H3231 C3245 0.931 . S
H3232 C3247 0.930 . S
C3233 H3221 0.930 . S
C3233 C3234 1.399 . S
C3233 C3238 1.399 . S
C3234 C3233 1.399 . S
C3234 C3235 1.376 . S
C3235 H3222 0.930 . S
C3235 C3234 1.376 . S
C3235 C3236 1.388 . S
C3236 H3223 0.930 . S
C3236 C3235 1.388 . S
C3236 C3237 1.390 . S
C3237 C3236 1.390 . S
C3237 C3238 1.394 . S
C3237 C3243 1.465 . S
C3238 C3233 1.399 . S
C3238 C3237 1.394 . S
C3238 C3239 1.516 . S
C3239 C3238 1.516 . S
C3239 C3240 1.502 . S
C3239 C3241 1.561 . S
C3239 C3242 1.526 . S
C3240 H3224 0.959 . S
C3240 H3225 0.959 . S
C3240 H3226 0.961 . S
C3240 C3239 1.502 . S
C3241 H3227 0.960 . S
C3241 H3228 0.961 . S
C3241 H3229 0.959 . S
C3241 C3239 1.561 . S
C3242 C3239 1.526 . S
C3242 C3243 1.396 . S
C3242 C3247 1.390 . S
C3243 C3237 1.465 . S
C3243 C3242 1.396 . S
C3243 C3244 1.399 . S
C3244 H3230 0.929 . S
C3244 C3243 1.399 . S
C3244 C3245 1.385 . S
C3245 H3231 0.931 . S
C3245 C3244 1.385 . S
C3245 C3246 1.389 . S
C3246 C3245 1.389 . S
C3246 C3247 1.387 . S
C3247 H3232 0.930 . S
C3247 C3242 1.390 . S
C3247 C3246 1.387 . S
H3248 C3260 0.930 . S
H3249 C3262 0.930 . S
H3250 C3263 0.930 . S
H3251 C3267 0.959 . S
H3252 C3267 0.959 . S
H3253 C3267 0.961 . S
H3254 C3268 0.960 . S
H3255 C3268 0.961 . S
H3256 C3268 0.959 . S
H3257 C3271 0.929 . S
H3258 C3272 0.931 . S
H3259 C3274 0.930 . S
C3260 H3248 0.930 . S
C3260 C3261 1.399 . S
C3260 C3265 1.399 . S
C3261 C3260 1.399 . S
C3261 C3262 1.376 . S
C3262 H3249 0.930 . S
C3262 C3261 1.376 . S
C3262 C3263 1.388 . S
C3263 H3250 0.930 . S
C3263 C3262 1.388 . S
C3263 C3264 1.390 . S
C3264 C3263 1.390 . S
C3264 C3265 1.394 . S
C3264 C3270 1.465 . S
C3265 C3260 1.399 . S
C3265 C3264 1.394 . S
C3265 C3266 1.516 . S
C3266 C3265 1.516 . S
C3266 C3267 1.502 . S
C3266 C3268 1.561 . S
C3266 C3269 1.526 . S
C3267 H3251 0.959 . S
C3267 H3252 0.959 . S
C3267 H3253 0.961 . S
C3267 C3266 1.502 . S
C3268 H3254 0.960 . S
C3268 H3255 0.961 . S
C3268 H3256 0.959 . S
C3268 C3266 1.561 . S
C3269 C3266 1.526 . S
C3269 C3270 1.396 . S
C3269 C3274 1.390 . S
C3270 C3264 1.465 . S
C3270 C3269 1.396 . S
C3270 C3271 1.399 . S
C3271 H3257 0.929 . S
C3271 C3270 1.399 . S
C3271 C3272 1.385 . S
C3272 H3258 0.931 . S
C3272 C3271 1.385 . S
C3272 C3273 1.389 . S
C3273 C3272 1.389 . S
C3273 C3274 1.387 . S
C3274 H3259 0.930 . S
C3274 C3269 1.390 . S
C3274 C3273 1.387 . S
H3275 C3287 0.930 . S
H3276 C3289 0.930 . S
H3277 C3290 0.930 . S
H3278 C3294 0.959 . S
H3279 C3294 0.959 . S
H3280 C3294 0.961 1_655 S
H3281 C3295 0.916 1_655 S
H3282 C3295 0.961 . S
H3283 C3295 0.959 . S
H3284 C3298 0.929 . S
H3285 C3299 0.931 . S
H3286 C3301 0.930 . S
C3287 H3275 0.930 . S
C3287 C3288 1.399 . S
C3287 C3292 1.399 . S
C3288 C3287 1.399 . S
C3288 C3289 1.376 . S
C3289 H3276 0.930 . S
C3289 C3288 1.376 . S
C3289 C3290 1.388 . S
C3290 H3277 0.930 . S
C3290 C3289 1.388 . S
C3290 C3291 1.395 . S
C3291 C3290 1.395 . S
C3291 C3292 1.397 . S
C3291 C3297 1.457 1_655 S
C3292 C3287 1.399 . S
C3292 C3291 1.397 . S
C3292 C3293 1.516 1_655 S
C3293 C3292 1.516 1_455 S
C3293 C3294 1.502 . S
C3293 C3295 1.561 . S
C3293 C3296 1.526 . S
C3294 H3278 0.959 . S
C3294 H3279 0.959 . S
C3294 H3280 0.961 1_455 S
C3294 C3293 1.502 . S
C3295 H3281 0.916 1_455 S
C3295 H3282 0.961 . S
C3295 H3283 0.959 . S
C3295 C3293 1.561 . S
C3296 C3293 1.526 . S
C3296 C3297 1.396 . S
C3296 C3301 1.390 . S
C3297 C3291 1.457 1_455 S
C3297 C3296 1.396 . S
C3297 C3298 1.399 . S
C3298 H3284 0.929 . S
C3298 C3297 1.399 . S
C3298 C3299 1.385 . S
C3299 H3285 0.931 . S
C3299 C3298 1.385 . S
C3299 C3300 1.389 . S
C3300 C3299 1.389 . S
C3300 C3301 1.387 . S
C3301 H3286 0.930 . S
C3301 C3296 1.390 . S
C3301 C3300 1.387 . S
H3302 C3314 0.930 . S
H3303 C3316 0.930 . S
H3304 C3317 0.930 . S
H3305 C3321 0.959 . S
H3306 C3321 0.959 . S
H3307 C3321 0.961 . S
H3308 C3322 0.960 . S
H3309 C3322 0.961 . S
H3310 C3322 0.959 . S
H3311 C3325 0.929 . S
H3312 C3326 0.931 . S
H3313 C3328 0.930 . S
C3314 H3302 0.930 . S
C3314 C3315 1.399 . S
C3314 C3319 1.399 . S
C3315 C3314 1.399 . S
C3315 C3316 1.376 . S
C3316 H3303 0.930 . S
C3316 C3315 1.376 . S
C3316 C3317 1.388 . S
C3317 H3304 0.930 . S
C3317 C3316 1.388 . S
C3317 C3318 1.390 . S
C3318 C3317 1.390 . S
C3318 C3319 1.394 . S
C3318 C3324 1.465 . S
C3319 C3314 1.399 . S
C3319 C3318 1.394 . S
C3319 C3320 1.516 . S
C3320 C3319 1.516 . S
C3320 C3321 1.502 . S
C3320 C3322 1.561 . S
C3320 C3323 1.526 . S
C3321 H3305 0.959 . S
C3321 H3306 0.959 . S
C3321 H3307 0.961 . S
C3321 C3320 1.502 . S
C3322 H3308 0.960 . S
C3322 H3309 0.961 . S
C3322 H3310 0.959 . S
C3322 C3320 1.561 . S
C3323 C3320 1.526 . S
C3323 C3324 1.396 . S
C3323 C3328 1.390 . S
C3324 C3318 1.465 . S
C3324 C3323 1.396 . S
C3324 C3325 1.399 . S
C3325 H3311 0.929 . S
C3325 C3324 1.399 . S
C3325 C3326 1.385 . S
C3326 H3312 0.931 . S
C3326 C3325 1.385 . S
C3326 C3327 1.389 . S
C3327 C3326 1.389 . S
C3327 C3328 1.387 . S
C3328 H3313 0.930 . S
C3328 C3323 1.390 . S
C3328 C3327 1.387 . S
H3329 C3341 0.930 . S
H3330 C3343 0.930 . S
H3331 C3344 0.930 . S
H3332 C3348 0.959 . S
H3333 C3348 0.959 . S
H3334 C3348 0.961 . S
H3335 C3349 0.960 . S
H3336 C3349 0.961 . S
H3337 C3349 0.959 . S
H3338 C3352 0.929 . S
H3339 C3353 0.931 . S
H3340 C3355 0.930 . S
C3341 H3329 0.930 . S
C3341 C3342 1.399 . S
C3341 C3346 1.399 . S
C3342 C3341 1.399 . S
C3342 C3343 1.376 . S
C3343 H3330 0.930 . S
C3343 C3342 1.376 . S
C3343 C3344 1.388 . S
C3344 H3331 0.930 . S
C3344 C3343 1.388 . S
C3344 C3345 1.390 . S
C3345 C3344 1.390 . S
C3345 C3346 1.394 . S
C3345 C3351 1.465 . S
C3346 C3341 1.399 . S
C3346 C3345 1.394 . S
C3346 C3347 1.516 . S
C3347 C3346 1.516 . S
C3347 C3348 1.502 . S
C3347 C3349 1.561 . S
C3347 C3350 1.526 . S
C3348 H3332 0.959 . S
C3348 H3333 0.959 . S
C3348 H3334 0.961 . S
C3348 C3347 1.502 . S
C3349 H3335 0.960 . S
C3349 H3336 0.961 . S
C3349 H3337 0.959 . S
C3349 C3347 1.561 . S
C3350 C3347 1.526 . S
C3350 C3351 1.396 . S
C3350 C3355 1.390 . S
C3351 C3345 1.465 . S
C3351 C3350 1.396 . S
C3351 C3352 1.399 . S
C3352 H3338 0.929 . S
C3352 C3351 1.399 . S
C3352 C3353 1.385 . S
C3353 H3339 0.931 . S
C3353 C3352 1.385 . S
C3353 C3354 1.389 . S
C3354 C3353 1.389 . S
C3354 C3355 1.387 . S
C3355 H3340 0.930 . S
C3355 C3350 1.390 . S
C3355 C3354 1.387 . S
H3356 C3368 0.930 . S
H3357 C3370 0.930 . S
H3358 C3371 0.930 . S
H3359 C3375 0.959 . S
H3360 C3375 0.959 . S
H3361 C3375 0.961 . S
H3362 C3376 0.960 . S
H3363 C3376 0.961 . S
H3364 C3376 0.959 . S
H3365 C3379 0.929 . S
H3366 C3380 0.931 . S
H3367 C3382 0.930 . S
C3368 H3356 0.930 . S
C3368 C3369 1.399 . S
C3368 C3373 1.399 . S
C3369 C3368 1.399 . S
C3369 C3370 1.376 . S
C3370 H3357 0.930 . S
C3370 C3369 1.376 . S
C3370 C3371 1.388 . S
C3371 H3358 0.930 . S
C3371 C3370 1.388 . S
C3371 C3372 1.390 . S
C3372 C3371 1.390 . S
C3372 C3373 1.394 . S
C3372 C3378 1.465 . S
C3373 C3368 1.399 . S
C3373 C3372 1.394 . S
C3373 C3374 1.516 . S
C3374 C3373 1.516 . S
C3374 C3375 1.502 . S
C3374 C3376 1.561 . S
C3374 C3377 1.526 . S
C3375 H3359 0.959 . S
C3375 H3360 0.959 . S
C3375 H3361 0.961 . S
C3375 C3374 1.502 . S
C3376 H3362 0.960 . S
C3376 H3363 0.961 . S
C3376 H3364 0.959 . S
C3376 C3374 1.561 . S
C3377 C3374 1.526 . S
C3377 C3378 1.396 . S
C3377 C3382 1.390 . S
C3378 C3372 1.465 . S
C3378 C3377 1.396 . S
C3378 C3379 1.399 . S
C3379 H3365 0.929 . S
C3379 C3378 1.399 . S
C3379 C3380 1.385 . S
C3380 H3366 0.931 . S
C3380 C3379 1.385 . S
C3380 C3381 1.389 . S
C3381 C3380 1.389 . S
C3381 C3382 1.387 . S
C3382 H3367 0.930 . S
C3382 C3377 1.390 . S
C3382 C3381 1.387 . S
H3383 C3395 0.930 . S
H3384 C3397 0.930 . S
H3385 C3398 0.930 . S
H3386 C3402 0.959 . S
H3387 C3402 0.959 . S
H3388 C3402 0.961 . S
H3389 C3403 0.960 . S
H3390 C3403 0.961 . S
H3391 C3403 0.959 . S
H3392 C3406 0.929 . S
H3393 C3407 0.931 . S
H3394 C3409 0.930 . S
C3395 H3383 0.930 . S
C3395 C3396 1.399 . S
C3395 C3400 1.399 . S
C3396 C3395 1.399 . S
C3396 C3397 1.376 . S
C3397 H3384 0.930 . S
C3397 C3396 1.376 . S
C3397 C3398 1.388 . S
C3398 H3385 0.930 . S
C3398 C3397 1.388 . S
C3398 C3399 1.390 . S
C3399 C3398 1.390 . S
C3399 C3400 1.394 . S
C3399 C3405 1.465 . S
C3400 C3395 1.399 . S
C3400 C3399 1.394 . S
C3400 C3401 1.516 . S
C3401 C3400 1.516 . S
C3401 C3402 1.502 . S
C3401 C3403 1.561 . S
C3401 C3404 1.526 . S
C3402 H3386 0.959 . S
C3402 H3387 0.959 . S
C3402 H3388 0.961 . S
C3402 C3401 1.502 . S
C3403 H3389 0.960 . S
C3403 H3390 0.961 . S
C3403 H3391 0.959 . S
C3403 C3401 1.561 . S
C3404 C3401 1.526 . S
C3404 C3405 1.396 . S
C3404 C3409 1.390 . S
C3405 C3399 1.465 . S
C3405 C3404 1.396 . S
C3405 C3406 1.399 . S
C3406 H3392 0.929 . S
C3406 C3405 1.399 . S
C3406 C3407 1.385 . S
C3407 H3393 0.931 . S
C3407 C3406 1.385 . S
C3407 C3408 1.389 . S
C3408 C3407 1.389 . S
C3408 C3409 1.387 . S
C3409 H3394 0.930 . S
C3409 C3404 1.390 . S
C3409 C3408 1.387 . S
H3410 C3422 0.930 . S
H3411 C3424 0.930 . S
H3412 C3425 0.930 . S
H3413 C3429 0.959 . S
H3414 C3429 0.959 . S
H3415 C3429 0.961 . S
H3416 C3430 0.960 . S
H3417 C3430 0.961 . S
H3418 C3430 0.959 . S
H3419 C3433 0.929 . S
H3420 C3434 0.931 . S
H3421 C3436 0.930 . S
C3422 H3410 0.930 . S
C3422 C3423 1.399 . S
C3422 C3427 1.399 . S
C3423 C3422 1.399 . S
C3423 C3424 1.376 . S
C3424 H3411 0.930 . S
C3424 C3423 1.376 . S
C3424 C3425 1.388 . S
C3425 H3412 0.930 . S
C3425 C3424 1.388 . S
C3425 C3426 1.390 . S
C3426 C3425 1.390 . S
C3426 C3427 1.394 . S
C3426 C3432 1.465 . S
C3427 C3422 1.399 . S
C3427 C3426 1.394 . S
C3427 C3428 1.516 . S
C3428 C3427 1.516 . S
C3428 C3429 1.502 . S
C3428 C3430 1.561 . S
C3428 C3431 1.526 . S
C3429 H3413 0.959 . S
C3429 H3414 0.959 . S
C3429 H3415 0.961 . S
C3429 C3428 1.502 . S
C3430 H3416 0.960 . S
C3430 H3417 0.961 . S
C3430 H3418 0.959 . S
C3430 C3428 1.561 . S
C3431 C3428 1.526 . S
C3431 C3432 1.396 . S
C3431 C3436 1.390 . S
C3432 C3426 1.465 . S
C3432 C3431 1.396 . S
C3432 C3433 1.399 . S
C3433 H3419 0.929 . S
C3433 C3432 1.399 . S
C3433 C3434 1.385 . S
C3434 H3420 0.931 . S
C3434 C3433 1.385 . S
C3434 C3435 1.389 . S
C3435 C3434 1.389 . S
C3435 C3436 1.387 . S
C3436 H3421 0.930 . S
C3436 C3431 1.390 . S
C3436 C3435 1.387 . S
H3437 C3449 0.930 . S
H3438 C3451 0.930 . S
H3439 C3452 0.930 . S
H3440 C3456 0.959 . S
H3441 C3456 0.959 1_655 S
H3442 C3456 0.961 . S
H3443 C3457 0.960 . S
H3444 C3457 0.968 . S
H3445 C3457 0.959 . S
H3446 C3460 0.929 . S
H3447 C3461 0.931 . S
H3448 C3463 0.930 . S
C3449 H3437 0.930 . S
C3449 C3450 1.399 . S
C3449 C3454 1.399 . S
C3450 C3449 1.399 . S
C3450 C3451 1.376 . S
C3451 H3438 0.930 . S
C3451 C3450 1.376 . S
C3451 C3452 1.388 . S
C3452 H3439 0.930 . S
C3452 C3451 1.388 . S
C3452 C3453 1.390 . S
C3453 C3452 1.390 . S
C3453 C3454 1.394 . S
C3453 C3459 1.453 1_455 S
C3454 C3449 1.399 . S
C3454 C3453 1.394 . S
C3454 C3455 1.516 . S
C3455 C3454 1.516 . S
C3455 C3456 1.502 . S
C3455 C3457 1.561 . S
C3455 C3458 1.526 1_455 S
C3456 H3440 0.959 . S
C3456 H3441 0.959 1_455 S
C3456 H3442 0.961 . S
C3456 C3455 1.502 . S
C3457 H3443 0.960 . S
C3457 H3444 0.968 . S
C3457 H3445 0.959 . S
C3457 C3455 1.561 . S
C3458 C3455 1.526 1_655 S
C3458 C3459 1.401 . S
C3458 C3463 1.390 . S
C3459 C3453 1.453 1_655 S
C3459 C3458 1.401 . S
C3459 C3460 1.406 . S
C3460 H3446 0.929 . S
C3460 C3459 1.406 . S
C3460 C3461 1.385 . S
C3461 H3447 0.931 . S
C3461 C3460 1.385 . S
C3461 C3462 1.389 . S
C3462 C3461 1.389 . S
C3462 C3463 1.387 . S
C3463 H3448 0.930 . S
C3463 C3458 1.390 . S
C3463 C3462 1.387 . S
H3464 C3476 0.930 . S
H3465 C3478 0.930 . S
H3466 C3479 0.930 . S
H3467 C3483 0.959 . S
H3468 C3483 0.959 . S
H3469 C3483 0.961 . S
H3470 C3484 0.960 . S
H3471 C3484 0.961 . S
H3472 C3484 0.959 . S
H3473 C3487 0.929 . S
H3474 C3488 0.931 . S
H3475 C3490 0.930 . S
C3476 H3464 0.930 . S
C3476 C3477 1.399 . S
C3476 C3481 1.399 . S
C3477 C3476 1.399 . S
C3477 C3478 1.376 . S
C3478 H3465 0.930 . S
C3478 C3477 1.376 . S
C3478 C3479 1.388 . S
C3479 H3466 0.930 . S
C3479 C3478 1.388 . S
C3479 C3480 1.390 . S
C3480 C3479 1.390 . S
C3480 C3481 1.394 . S
C3480 C3486 1.465 . S
C3481 C3476 1.399 . S
C3481 C3480 1.394 . S
C3481 C3482 1.516 . S
C3482 C3481 1.516 . S
C3482 C3483 1.502 . S
C3482 C3484 1.561 . S
C3482 C3485 1.526 . S
C3483 H3467 0.959 . S
C3483 H3468 0.959 . S
C3483 H3469 0.961 . S
C3483 C3482 1.502 . S
C3484 H3470 0.960 . S
C3484 H3471 0.961 . S
C3484 H3472 0.959 . S
C3484 C3482 1.561 . S
C3485 C3482 1.526 . S
C3485 C3486 1.396 . S
C3485 C3490 1.390 . S
C3486 C3480 1.465 . S
C3486 C3485 1.396 . S
C3486 C3487 1.399 . S
C3487 H3473 0.929 . S
C3487 C3486 1.399 . S
C3487 C3488 1.385 . S
C3488 H3474 0.931 . S
C3488 C3487 1.385 . S
C3488 C3489 1.389 . S
C3489 C3488 1.389 . S
C3489 C3490 1.387 . S
C3490 H3475 0.930 . S
C3490 C3485 1.390 . S
C3490 C3489 1.387 . S
H3491 C3503 0.930 . S
H3492 C3505 0.930 . S
H3493 C3506 0.930 . S
H3494 C3510 0.959 . S
H3495 C3510 0.959 . S
H3496 C3510 0.961 . S
H3497 C3511 0.960 . S
H3498 C3511 0.961 1_455 S
H3499 C3511 0.959 . S
H3500 C3514 0.929 . S
H3501 C3515 0.931 . S
H3502 C3517 0.930 . S
C3503 H3491 0.930 . S
C3503 C3504 1.399 . S
C3503 C3508 1.399 . S
C3504 C3503 1.399 . S
C3504 C3505 1.376 . S
C3505 H3492 0.930 . S
C3505 C3504 1.376 . S
C3505 C3506 1.388 . S
C3506 H3493 0.930 . S
C3506 C3505 1.388 . S
C3506 C3507 1.390 . S
C3507 C3506 1.390 . S
C3507 C3508 1.394 . S
C3507 C3513 1.465 1_655 S
C3508 C3503 1.399 . S
C3508 C3507 1.394 . S
C3508 C3509 1.516 . S
C3509 C3508 1.516 . S
C3509 C3510 1.502 . S
C3509 C3511 1.561 . S
C3509 C3512 1.526 1_655 S
C3510 H3494 0.959 . S
C3510 H3495 0.959 . S
C3510 H3496 0.961 . S
C3510 C3509 1.502 . S
C3511 H3497 0.960 . S
C3511 H3498 0.961 1_655 S
C3511 H3499 0.959 . S
C3511 C3509 1.561 . S
C3512 C3509 1.526 1_455 S
C3512 C3513 1.396 . S
C3512 C3517 1.390 . S
C3513 C3507 1.465 1_455 S
C3513 C3512 1.396 . S
C3513 C3514 1.399 . S
C3514 H3500 0.929 . S
C3514 C3513 1.399 . S
C3514 C3515 1.385 . S
C3515 H3501 0.931 . S
C3515 C3514 1.385 . S
C3515 C3516 1.389 . S
C3516 C3515 1.389 . S
C3516 C3517 1.387 . S
C3517 H3502 0.930 . S
C3517 C3512 1.390 . S
C3517 C3516 1.387 . S
H3518 C3530 0.930 . S
H3519 C3532 0.930 . S
H3520 C3533 0.930 . S
H3521 C3537 0.959 . S
H3522 C3537 0.959 . S
H3523 C3537 0.961 . S
H3524 C3538 0.960 . S
H3525 C3538 0.961 . S
H3526 C3538 0.959 . S
H3527 C3541 0.929 . S
H3528 C3542 0.931 . S
H3529 C3544 0.930 . S
C3530 H3518 0.930 . S
C3530 C3531 1.399 . S
C3530 C3535 1.399 . S
C3531 C3530 1.399 . S
C3531 C3532 1.376 . S
C3532 H3519 0.930 . S
C3532 C3531 1.376 . S
C3532 C3533 1.388 . S
C3533 H3520 0.930 . S
C3533 C3532 1.388 . S
C3533 C3534 1.390 . S
C3534 C3533 1.390 . S
C3534 C3535 1.394 . S
C3534 C3540 1.465 . S
C3535 C3530 1.399 . S
C3535 C3534 1.394 . S
C3535 C3536 1.516 . S
C3536 C3535 1.516 . S
C3536 C3537 1.502 . S
C3536 C3538 1.561 . S
C3536 C3539 1.526 . S
C3537 H3521 0.959 . S
C3537 H3522 0.959 . S
C3537 H3523 0.961 . S
C3537 C3536 1.502 . S
C3538 H3524 0.960 . S
C3538 H3525 0.961 . S
C3538 H3526 0.959 . S
C3538 C3536 1.561 . S
C3539 C3536 1.526 . S
C3539 C3540 1.396 . S
C3539 C3544 1.390 . S
C3540 C3534 1.465 . S
C3540 C3539 1.396 . S
C3540 C3541 1.399 . S
C3541 H3527 0.929 . S
C3541 C3540 1.399 . S
C3541 C3542 1.385 . S
C3542 H3528 0.931 . S
C3542 C3541 1.385 . S
C3542 C3543 1.389 . S
C3543 C3542 1.389 . S
C3543 C3544 1.387 . S
C3544 H3529 0.930 . S
C3544 C3539 1.390 . S
C3544 C3543 1.387 . S
H3545 C3557 0.930 . S
H3546 C3559 0.930 . S
H3547 C3560 0.930 . S
H3548 C3564 0.959 . S
H3549 C3564 0.959 . S
H3550 C3564 0.961 . S
H3551 C3565 0.960 . S
H3552 C3565 0.961 . S
H3553 C3565 0.959 . S
H3554 C3568 0.929 . S
H3555 C3569 0.931 . S
H3556 C3571 0.930 . S
C3557 H3545 0.930 . S
C3557 C3558 1.399 . S
C3557 C3562 1.399 . S
C3558 C3557 1.399 . S
C3558 C3559 1.376 . S
C3559 H3546 0.930 . S
C3559 C3558 1.376 . S
C3559 C3560 1.388 . S
C3560 H3547 0.930 . S
C3560 C3559 1.388 . S
C3560 C3561 1.390 . S
C3561 C3560 1.390 . S
C3561 C3562 1.394 . S
C3561 C3567 1.465 . S
C3562 C3557 1.399 . S
C3562 C3561 1.394 . S
C3562 C3563 1.516 . S
C3563 C3562 1.516 . S
C3563 C3564 1.502 . S
C3563 C3565 1.561 . S
C3563 C3566 1.526 . S
C3564 H3548 0.959 . S
C3564 H3549 0.959 . S
C3564 H3550 0.961 . S
C3564 C3563 1.502 . S
C3565 H3551 0.960 . S
C3565 H3552 0.961 . S
C3565 H3553 0.959 . S
C3565 C3563 1.561 . S
C3566 C3563 1.526 . S
C3566 C3567 1.396 . S
C3566 C3571 1.390 . S
C3567 C3561 1.465 . S
C3567 C3566 1.396 . S
C3567 C3568 1.399 . S
C3568 H3554 0.929 . S
C3568 C3567 1.399 . S
C3568 C3569 1.385 . S
C3569 H3555 0.931 . S
C3569 C3568 1.385 . S
C3569 C3570 1.389 . S
C3570 C3569 1.389 . S
C3570 C3571 1.387 . S
C3571 H3556 0.930 . S
C3571 C3566 1.390 . S
C3571 C3570 1.387 . S
H3572 C3584 0.930 . S
H3573 C3586 0.930 . S
H3574 C3587 0.930 . S
H3575 C3591 0.959 . S
H3576 C3591 0.959 . S
H3577 C3591 0.961 . S
H3578 C3592 0.960 . S
H3579 C3592 0.961 . S
H3580 C3592 0.959 . S
H3581 C3595 0.929 . S
H3582 C3596 0.931 . S
H3583 C3598 0.930 . S
C3584 H3572 0.930 . S
C3584 C3585 1.399 . S
C3584 C3589 1.399 . S
C3585 C3584 1.399 . S
C3585 C3586 1.376 . S
C3586 H3573 0.930 . S
C3586 C3585 1.376 . S
C3586 C3587 1.388 . S
C3587 H3574 0.930 . S
C3587 C3586 1.388 . S
C3587 C3588 1.390 . S
C3588 C3587 1.390 . S
C3588 C3589 1.394 . S
C3588 C3594 1.465 . S
C3589 C3584 1.399 . S
C3589 C3588 1.394 . S
C3589 C3590 1.516 . S
C3590 C3589 1.516 . S
C3590 C3591 1.502 . S
C3590 C3592 1.561 . S
C3590 C3593 1.526 . S
C3591 H3575 0.959 . S
C3591 H3576 0.959 . S
C3591 H3577 0.961 . S
C3591 C3590 1.502 . S
C3592 H3578 0.960 . S
C3592 H3579 0.961 . S
C3592 H3580 0.959 . S
C3592 C3590 1.561 . S
C3593 C3590 1.526 . S
C3593 C3594 1.396 . S
C3593 C3598 1.390 . S
C3594 C3588 1.465 . S
C3594 C3593 1.396 . S
C3594 C3595 1.399 . S
C3595 H3581 0.929 . S
C3595 C3594 1.399 . S
C3595 C3596 1.385 . S
C3596 H3582 0.931 . S
C3596 C3595 1.385 . S
C3596 C3597 1.389 . S
C3597 C3596 1.389 . S
C3597 C3598 1.387 . S
C3598 H3583 0.930 . S
C3598 C3593 1.390 . S
C3598 C3597 1.387 . S
H3599 C3611 0.930 . S
H3600 C3613 0.930 . S
H3601 C3614 0.930 . S
H3602 C3618 0.959 . S
H3603 C3618 0.959 . S
H3604 C3618 0.961 . S
H3605 C3619 0.960 . S
H3606 C3619 0.961 . S
H3607 C3619 0.959 . S
H3608 C3622 0.929 . S
H3609 C3623 0.931 . S
H3610 C3625 0.930 . S
C3611 H3599 0.930 . S
C3611 C3612 1.399 . S
C3611 C3616 1.399 . S
C3612 C3611 1.399 . S
C3612 C3613 1.376 . S
C3613 H3600 0.930 . S
C3613 C3612 1.376 . S
C3613 C3614 1.388 . S
C3614 H3601 0.930 . S
C3614 C3613 1.388 . S
C3614 C3615 1.390 . S
C3615 C3614 1.390 . S
C3615 C3616 1.394 . S
C3615 C3621 1.465 . S
C3616 C3611 1.399 . S
C3616 C3615 1.394 . S
C3616 C3617 1.516 . S
C3617 C3616 1.516 . S
C3617 C3618 1.502 . S
C3617 C3619 1.561 . S
C3617 C3620 1.526 . S
C3618 H3602 0.959 . S
C3618 H3603 0.959 . S
C3618 H3604 0.961 . S
C3618 C3617 1.502 . S
C3619 H3605 0.960 . S
C3619 H3606 0.961 . S
C3619 H3607 0.959 . S
C3619 C3617 1.561 . S
C3620 C3617 1.526 . S
C3620 C3621 1.396 . S
C3620 C3625 1.390 . S
C3621 C3615 1.465 . S
C3621 C3620 1.396 . S
C3621 C3622 1.399 . S
C3622 H3608 0.929 . S
C3622 C3621 1.399 . S
C3622 C3623 1.385 . S
C3623 H3609 0.931 . S
C3623 C3622 1.385 . S
C3623 C3624 1.389 . S
C3624 C3623 1.389 . S
C3624 C3625 1.387 . S
C3625 H3610 0.930 . S
C3625 C3620 1.390 . S
C3625 C3624 1.387 . S
H3626 C3638 0.930 . S
H3627 C3640 0.930 . S
H3628 C3641 0.930 . S
H3629 C3645 0.959 . S
H3630 C3645 0.959 . S
H3631 C3645 0.961 . S
H3632 C3646 0.960 . S
H3633 C3646 0.961 . S
H3634 C3646 0.959 . S
H3635 C3649 0.929 . S
H3636 C3650 0.931 . S
H3637 C3652 0.930 . S
C3638 H3626 0.930 . S
C3638 C3639 1.399 . S
C3638 C3643 1.399 . S
C3639 C3638 1.399 . S
C3639 C3640 1.376 . S
C3640 H3627 0.930 . S
C3640 C3639 1.376 . S
C3640 C3641 1.388 . S
C3641 H3628 0.930 . S
C3641 C3640 1.388 . S
C3641 C3642 1.390 . S
C3642 C3641 1.390 . S
C3642 C3643 1.394 . S
C3642 C3648 1.465 . S
C3643 C3638 1.399 . S
C3643 C3642 1.394 . S
C3643 C3644 1.516 . S
C3644 C3643 1.516 . S
C3644 C3645 1.502 . S
C3644 C3646 1.561 . S
C3644 C3647 1.526 . S
C3645 H3629 0.959 . S
C3645 H3630 0.959 . S
C3645 H3631 0.961 . S
C3645 C3644 1.502 . S
C3646 H3632 0.960 . S
C3646 H3633 0.961 . S
C3646 H3634 0.959 . S
C3646 C3644 1.561 . S
C3647 C3644 1.526 . S
C3647 C3648 1.396 . S
C3647 C3652 1.390 . S
C3648 C3642 1.465 . S
C3648 C3647 1.396 . S
C3648 C3649 1.399 . S
C3649 H3635 0.929 . S
C3649 C3648 1.399 . S
C3649 C3650 1.385 . S
C3650 H3636 0.931 . S
C3650 C3649 1.385 . S
C3650 C3651 1.389 . S
C3651 C3650 1.389 . S
C3651 C3652 1.387 . S
C3652 H3637 0.930 . S
C3652 C3647 1.390 . S
C3652 C3651 1.387 . S
H3653 C3665 0.930 . S
H3654 C3667 0.930 . S
H3655 C3668 0.930 . S
H3656 C3672 0.959 . S
H3657 C3672 0.959 1_455 S
H3658 C3672 0.961 . S
H3659 C3673 0.960 . S
H3660 C3673 0.961 1_455 S
H3661 C3673 0.959 . S
H3662 C3676 0.929 . S
H3663 C3677 0.931 . S
H3664 C3679 0.930 . S
C3665 H3653 0.930 . S
C3665 C3666 1.399 . S
C3665 C3670 1.399 . S
C3666 C3665 1.399 . S
C3666 C3667 1.376 . S
C3667 H3654 0.930 . S
C3667 C3666 1.376 . S
C3667 C3668 1.388 . S
C3668 H3655 0.930 . S
C3668 C3667 1.388 . S
C3668 C3669 1.390 . S
C3669 C3668 1.390 . S
C3669 C3670 1.394 . S
C3669 C3675 1.483 . S
C3670 C3665 1.399 . S
C3670 C3669 1.394 . S
C3670 C3671 1.516 . S
C3671 C3670 1.516 . S
C3671 C3672 1.502 . S
C3671 C3673 1.561 . S
C3671 C3674 1.526 1_655 S
C3672 H3656 0.959 . S
C3672 H3657 0.959 1_655 S
C3672 H3658 0.961 . S
C3672 C3671 1.502 . S
C3673 H3659 0.960 . S
C3673 H3660 0.961 1_655 S
C3673 H3661 0.959 . S
C3673 C3671 1.561 . S
C3674 C3671 1.526 1_455 S
C3674 C3675 1.389 1_455 S
C3674 C3679 1.390 . S
C3675 C3669 1.483 . S
C3675 C3674 1.389 1_655 S
C3675 C3676 1.389 1_655 S
C3676 H3662 0.929 . S
C3676 C3675 1.389 1_455 S
C3676 C3677 1.385 . S
C3677 H3663 0.931 . S
C3677 C3676 1.385 . S
C3677 C3678 1.389 . S
C3678 C3677 1.389 . S
C3678 C3679 1.387 . S
C3679 H3664 0.930 . S
C3679 C3674 1.390 . S
C3679 C3678 1.387 . S
H3680 C3692 0.930 . S
H3681 C3694 0.930 . S
H3682 C3695 0.930 . S
H3683 C3699 0.959 . S
H3684 C3699 0.959 . S
H3685 C3699 0.961 . S
H3686 C3700 0.960 . S
H3687 C3700 0.961 . S
H3688 C3700 0.959 . S
H3689 C3703 0.929 . S
H3690 C3704 0.931 . S
H3691 C3706 0.930 . S
C3692 H3680 0.930 . S
C3692 C3693 1.399 . S
C3692 C3697 1.399 . S
C3693 C3692 1.399 . S
C3693 C3694 1.376 . S
C3694 H3681 0.930 . S
C3694 C3693 1.376 . S
C3694 C3695 1.388 . S
C3695 H3682 0.930 . S
C3695 C3694 1.388 . S
C3695 C3696 1.390 . S
C3696 C3695 1.390 . S
C3696 C3697 1.394 . S
C3696 C3702 1.465 . S
C3697 C3692 1.399 . S
C3697 C3696 1.394 . S
C3697 C3698 1.516 . S
C3698 C3697 1.516 . S
C3698 C3699 1.502 . S
C3698 C3700 1.561 . S
C3698 C3701 1.526 . S
C3699 H3683 0.959 . S
C3699 H3684 0.959 . S
C3699 H3685 0.961 . S
C3699 C3698 1.502 . S
C3700 H3686 0.960 . S
C3700 H3687 0.961 . S
C3700 H3688 0.959 . S
C3700 C3698 1.561 . S
C3701 C3698 1.526 . S
C3701 C3702 1.396 . S
C3701 C3706 1.390 . S
C3702 C3696 1.465 . S
C3702 C3701 1.396 . S
C3702 C3703 1.399 . S
C3703 H3689 0.929 . S
C3703 C3702 1.399 . S
C3703 C3704 1.385 . S
C3704 H3690 0.931 . S
C3704 C3703 1.385 . S
C3704 C3705 1.389 . S
C3705 C3704 1.389 . S
C3705 C3706 1.387 . S
C3706 H3691 0.930 . S
C3706 C3701 1.390 . S
C3706 C3705 1.387 . S
H3707 C3719 0.930 . S
H3708 C3721 0.930 . S
H3709 C3722 0.930 . S
H3710 C3726 0.959 . S
H3711 C3726 0.959 . S
H3712 C3726 0.961 . S
H3713 C3727 0.960 . S
H3714 C3727 0.961 . S
H3715 C3727 0.959 . S
H3716 C3730 0.929 . S
H3717 C3731 0.931 . S
H3718 C3733 0.930 . S
C3719 H3707 0.930 . S
C3719 C3720 1.399 . S
C3719 C3724 1.399 . S
C3720 C3719 1.399 . S
C3720 C3721 1.376 . S
C3721 H3708 0.930 . S
C3721 C3720 1.376 . S
C3721 C3722 1.388 . S
C3722 H3709 0.930 . S
C3722 C3721 1.388 . S
C3722 C3723 1.390 . S
C3723 C3722 1.390 . S
C3723 C3724 1.394 . S
C3723 C3729 1.465 . S
C3724 C3719 1.399 . S
C3724 C3723 1.394 . S
C3724 C3725 1.516 . S
C3725 C3724 1.516 . S
C3725 C3726 1.502 . S
C3725 C3727 1.561 . S
C3725 C3728 1.526 . S
C3726 H3710 0.959 . S
C3726 H3711 0.959 . S
C3726 H3712 0.961 . S
C3726 C3725 1.502 . S
C3727 H3713 0.960 . S
C3727 H3714 0.961 . S
C3727 H3715 0.959 . S
C3727 C3725 1.561 . S
C3728 C3725 1.526 . S
C3728 C3729 1.396 . S
C3728 C3733 1.390 . S
C3729 C3723 1.465 . S
C3729 C3728 1.396 . S
C3729 C3730 1.399 . S
C3730 H3716 0.929 . S
C3730 C3729 1.399 . S
C3730 C3731 1.385 . S
C3731 H3717 0.931 . S
C3731 C3730 1.385 . S
C3731 C3732 1.389 . S
C3732 C3731 1.389 . S
C3732 C3733 1.387 . S
C3733 H3718 0.930 . S
C3733 C3728 1.390 . S
C3733 C3732 1.387 . S
H3734 C3746 0.930 . S
H3735 C3748 0.930 . S
H3736 C3749 0.930 . S
H3737 C3753 0.959 . S
H3738 C3753 0.959 . S
H3739 C3753 0.961 . S
H3740 C3754 0.960 . S
H3741 C3754 0.961 . S
H3742 C3754 0.959 . S
H3743 C3757 0.929 . S
H3744 C3758 0.931 . S
H3745 C3760 0.930 . S
C3746 H3734 0.930 . S
C3746 C3747 1.399 . S
C3746 C3751 1.399 . S
C3747 C3746 1.399 . S
C3747 C3748 1.376 . S
C3748 H3735 0.930 . S
C3748 C3747 1.376 . S
C3748 C3749 1.388 . S
C3749 H3736 0.930 . S
C3749 C3748 1.388 . S
C3749 C3750 1.390 . S
C3750 C3749 1.390 . S
C3750 C3751 1.394 . S
C3750 C3756 1.465 . S
C3751 C3746 1.399 . S
C3751 C3750 1.394 . S
C3751 C3752 1.516 . S
C3752 C3751 1.516 . S
C3752 C3753 1.502 . S
C3752 C3754 1.561 . S
C3752 C3755 1.526 . S
C3753 H3737 0.959 . S
C3753 H3738 0.959 . S
C3753 H3739 0.961 . S
C3753 C3752 1.502 . S
C3754 H3740 0.960 . S
C3754 H3741 0.961 . S
C3754 H3742 0.959 . S
C3754 C3752 1.561 . S
C3755 C3752 1.526 . S
C3755 C3756 1.396 . S
C3755 C3760 1.390 . S
C3756 C3750 1.465 . S
C3756 C3755 1.396 . S
C3756 C3757 1.399 . S
C3757 H3743 0.929 . S
C3757 C3756 1.399 . S
C3757 C3758 1.385 . S
C3758 H3744 0.931 . S
C3758 C3757 1.385 . S
C3758 C3759 1.389 . S
C3759 C3758 1.389 . S
C3759 C3760 1.387 . S
C3760 H3745 0.930 . S
C3760 C3755 1.390 . S
C3760 C3759 1.387 . S
H3761 C3773 0.930 . S
H3762 C3775 0.930 . S
H3763 C3776 0.930 . S
H3764 C3780 0.959 . S
H3765 C3780 0.959 . S
H3766 C3780 0.961 . S
H3767 C3781 0.960 . S
H3768 C3781 0.961 1_455 S
H3769 C3781 0.959 . S
H3770 C3784 0.929 . S
H3771 C3785 0.931 . S
H3772 C3787 0.930 . S
C3773 H3761 0.930 . S
C3773 C3774 1.399 . S
C3773 C3778 1.399 . S
C3774 C3773 1.399 . S
C3774 C3775 1.376 . S
C3775 H3762 0.930 . S
C3775 C3774 1.376 . S
C3775 C3776 1.388 . S
C3776 H3763 0.930 . S
C3776 C3775 1.388 . S
C3776 C3777 1.390 . S
C3777 C3776 1.390 . S
C3777 C3778 1.394 . S
C3777 C3783 1.465 1_655 S
C3778 C3773 1.399 . S
C3778 C3777 1.394 . S
C3778 C3779 1.516 . S
C3779 C3778 1.516 . S
C3779 C3780 1.502 . S
C3779 C3781 1.561 . S
C3779 C3782 1.526 1_655 S
C3780 H3764 0.959 . S
C3780 H3765 0.959 . S
C3780 H3766 0.961 . S
C3780 C3779 1.502 . S
C3781 H3767 0.960 . S
C3781 H3768 0.961 1_655 S
C3781 H3769 0.959 . S
C3781 C3779 1.561 . S
C3782 C3779 1.526 1_455 S
C3782 C3783 1.396 . S
C3782 C3787 1.390 . S
C3783 C3777 1.465 1_455 S
C3783 C3782 1.396 . S
C3783 C3784 1.399 . S
C3784 H3770 0.929 . S
C3784 C3783 1.399 . S
C3784 C3785 1.385 . S
C3785 H3771 0.931 . S
C3785 C3784 1.385 . S
C3785 C3786 1.389 . S
C3786 C3785 1.389 . S
C3786 C3787 1.387 . S
C3787 H3772 0.930 . S
C3787 C3782 1.390 . S
C3787 C3786 1.387 . S
H3788 C3800 0.930 . S
H3789 C3802 0.930 . S
H3790 C3803 0.930 . S
H3791 C3807 0.959 . S
H3792 C3807 0.959 . S
H3793 C3807 0.961 . S
H3794 C3808 0.960 . S
H3795 C3808 0.961 . S
H3796 C3808 0.959 . S
H3797 C3811 0.929 . S
H3798 C3812 0.931 . S
H3799 C3814 0.930 . S
C3800 H3788 0.930 . S
C3800 C3801 1.399 . S
C3800 C3805 1.399 . S
C3801 C3800 1.399 . S
C3801 C3802 1.376 . S
C3802 H3789 0.930 . S
C3802 C3801 1.376 . S
C3802 C3803 1.388 . S
C3803 H3790 0.930 . S
C3803 C3802 1.388 . S
C3803 C3804 1.390 . S
C3804 C3803 1.390 . S
C3804 C3805 1.394 . S
C3804 C3810 1.465 . S
C3805 C3800 1.399 . S
C3805 C3804 1.394 . S
C3805 C3806 1.516 . S
C3806 C3805 1.516 . S
C3806 C3807 1.502 . S
C3806 C3808 1.561 . S
C3806 C3809 1.526 . S
C3807 H3791 0.959 . S
C3807 H3792 0.959 . S
C3807 H3793 0.961 . S
C3807 C3806 1.502 . S
C3808 H3794 0.960 . S
C3808 H3795 0.961 . S
C3808 H3796 0.959 . S
C3808 C3806 1.561 . S
C3809 C3806 1.526 . S
C3809 C3810 1.396 . S
C3809 C3814 1.390 . S
C3810 C3804 1.465 . S
C3810 C3809 1.396 . S
C3810 C3811 1.399 . S
C3811 H3797 0.929 . S
C3811 C3810 1.399 . S
C3811 C3812 1.385 . S
C3812 H3798 0.931 . S
C3812 C3811 1.385 . S
C3812 C3813 1.389 . S
C3813 C3812 1.389 . S
C3813 C3814 1.387 . S
C3814 H3799 0.930 . S
C3814 C3809 1.390 . S
C3814 C3813 1.387 . S
H3815 C3827 0.930 . S
H3816 C3829 0.930 . S
H3817 C3830 0.930 . S
H3818 C3834 0.959 . S
H3819 C3834 0.959 . S
H3820 C3834 0.961 1_455 S
H3821 C3835 0.960 . S
H3822 C3835 0.961 . S
H3823 C3835 0.959 . S
H3824 C3838 0.929 . S
H3825 C3839 0.931 . S
H3826 C3841 0.930 . S
C3827 H3815 0.930 . S
C3827 C3828 1.399 . S
C3827 C3832 1.399 . S
C3828 C3827 1.399 . S
C3828 C3829 1.376 . S
C3829 H3816 0.930 . S
C3829 C3828 1.376 . S
C3829 C3830 1.388 . S
C3830 H3817 0.930 . S
C3830 C3829 1.388 . S
C3830 C3831 1.390 . S
C3831 C3830 1.390 . S
C3831 C3832 1.394 . S
C3831 C3837 1.465 1_455 S
C3832 C3827 1.399 . S
C3832 C3831 1.394 . S
C3832 C3833 1.516 1_455 S
C3833 C3832 1.516 1_655 S
C3833 C3834 1.502 . S
C3833 C3835 1.561 . S
C3833 C3836 1.526 . S
C3834 H3818 0.959 . S
C3834 H3819 0.959 . S
C3834 H3820 0.961 1_655 S
C3834 C3833 1.502 . S
C3835 H3821 0.960 . S
C3835 H3822 0.961 . S
C3835 H3823 0.959 . S
C3835 C3833 1.561 . S
C3836 C3833 1.526 . S
C3836 C3837 1.396 . S
C3836 C3841 1.390 . S
C3837 C3831 1.465 1_655 S
C3837 C3836 1.396 . S
C3837 C3838 1.399 . S
C3838 H3824 0.929 . S
C3838 C3837 1.399 . S
C3838 C3839 1.385 . S
C3839 H3825 0.931 . S
C3839 C3838 1.385 . S
C3839 C3840 1.389 . S
C3840 C3839 1.389 . S
C3840 C3841 1.387 . S
C3841 H3826 0.930 . S
C3841 C3836 1.390 . S
C3841 C3840 1.387 . S
H3842 C3854 0.930 . S
H3843 C3856 0.930 . S
H3844 C3857 0.930 . S
H3845 C3861 0.959 . S
H3846 C3861 0.959 . S
H3847 C3861 0.961 . S
H3848 C3862 0.960 . S
H3849 C3862 0.961 . S
H3850 C3862 0.959 . S
H3851 C3865 0.929 . S
H3852 C3866 0.931 . S
H3853 C3868 0.930 . S
C3854 H3842 0.930 . S
C3854 C3855 1.399 . S
C3854 C3859 1.399 . S
C3855 C3854 1.399 . S
C3855 C3856 1.376 . S
C3856 H3843 0.930 . S
C3856 C3855 1.376 . S
C3856 C3857 1.388 . S
C3857 H3844 0.930 . S
C3857 C3856 1.388 . S
C3857 C3858 1.390 . S
C3858 C3857 1.390 . S
C3858 C3859 1.394 . S
C3858 C3864 1.465 . S
C3859 C3854 1.399 . S
C3859 C3858 1.394 . S
C3859 C3860 1.516 . S
C3860 C3859 1.516 . S
C3860 C3861 1.502 . S
C3860 C3862 1.561 . S
C3860 C3863 1.526 . S
C3861 H3845 0.959 . S
C3861 H3846 0.959 . S
C3861 H3847 0.961 . S
C3861 C3860 1.502 . S
C3862 H3848 0.960 . S
C3862 H3849 0.961 . S
C3862 H3850 0.959 . S
C3862 C3860 1.561 . S
C3863 C3860 1.526 . S
C3863 C3864 1.396 . S
C3863 C3868 1.390 . S
C3864 C3858 1.465 . S
C3864 C3863 1.396 . S
C3864 C3865 1.399 . S
C3865 H3851 0.929 . S
C3865 C3864 1.399 . S
C3865 C3866 1.385 . S
C3866 H3852 0.931 . S
C3866 C3865 1.385 . S
C3866 C3867 1.389 . S
C3867 C3866 1.389 . S
C3867 C3868 1.387 . S
C3868 H3853 0.930 . S
C3868 C3863 1.390 . S
C3868 C3867 1.387 . S
H3869 C3881 0.930 . S
H3870 C3883 0.930 . S
H3871 C3884 0.930 . S
H3872 C3888 0.959 . S
H3873 C3888 0.959 . S
H3874 C3888 0.961 . S
H3875 C3889 0.960 . S
H3876 C3889 0.961 . S
H3877 C3889 0.959 . S
H3878 C3892 0.929 . S
H3879 C3893 0.931 . S
H3880 C3895 0.930 . S
C3881 H3869 0.930 . S
C3881 C3882 1.399 . S
C3881 C3886 1.399 . S
C3882 C3881 1.399 . S
C3882 C3883 1.376 . S
C3883 H3870 0.930 . S
C3883 C3882 1.376 . S
C3883 C3884 1.388 . S
C3884 H3871 0.930 . S
C3884 C3883 1.388 . S
C3884 C3885 1.390 . S
C3885 C3884 1.390 . S
C3885 C3886 1.394 . S
C3885 C3891 1.465 . S
C3886 C3881 1.399 . S
C3886 C3885 1.394 . S
C3886 C3887 1.516 . S
C3887 C3886 1.516 . S
C3887 C3888 1.502 . S
C3887 C3889 1.561 . S
C3887 C3890 1.526 . S
C3888 H3872 0.959 . S
C3888 H3873 0.959 . S
C3888 H3874 0.961 . S
C3888 C3887 1.502 . S
C3889 H3875 0.960 . S
C3889 H3876 0.961 . S
C3889 H3877 0.959 . S
C3889 C3887 1.561 . S
C3890 C3887 1.526 . S
C3890 C3891 1.396 . S
C3890 C3895 1.390 . S
C3891 C3885 1.465 . S
C3891 C3890 1.396 . S
C3891 C3892 1.399 . S
C3892 H3878 0.929 . S
C3892 C3891 1.399 . S
C3892 C3893 1.385 . S
C3893 H3879 0.931 . S
C3893 C3892 1.385 . S
C3893 C3894 1.389 . S
C3894 C3893 1.389 . S
C3894 C3895 1.387 . S
C3895 H3880 0.930 . S
C3895 C3890 1.390 . S
C3895 C3894 1.387 . S
H3896 C3908 0.930 . S
H3897 C3910 0.930 . S
H3898 C3911 0.930 . S
H3899 C3915 0.959 . S
H3900 C3915 0.959 . S
H3901 C3915 0.961 . S
H3902 C3916 0.960 . S
H3903 C3916 0.961 . S
H3904 C3916 0.959 . S
H3905 C3919 0.929 . S
H3906 C3920 0.931 . S
H3907 C3922 0.930 . S
C3908 H3896 0.930 . S
C3908 C3909 1.399 . S
C3908 C3913 1.399 . S
C3909 C3908 1.399 . S
C3909 C3910 1.376 . S
C3910 H3897 0.930 . S
C3910 C3909 1.376 . S
C3910 C3911 1.388 . S
C3911 H3898 0.930 . S
C3911 C3910 1.388 . S
C3911 C3912 1.390 . S
C3912 C3911 1.390 . S
C3912 C3913 1.394 . S
C3912 C3918 1.465 . S
C3913 C3908 1.399 . S
C3913 C3912 1.394 . S
C3913 C3914 1.516 . S
C3914 C3913 1.516 . S
C3914 C3915 1.502 . S
C3914 C3916 1.561 . S
C3914 C3917 1.526 . S
C3915 H3899 0.959 . S
C3915 H3900 0.959 . S
C3915 H3901 0.961 . S
C3915 C3914 1.502 . S
C3916 H3902 0.960 . S
C3916 H3903 0.961 . S
C3916 H3904 0.959 . S
C3916 C3914 1.561 . S
C3917 C3914 1.526 . S
C3917 C3918 1.396 . S
C3917 C3922 1.390 . S
C3918 C3912 1.465 . S
C3918 C3917 1.396 . S
C3918 C3919 1.399 . S
C3919 H3905 0.929 . S
C3919 C3918 1.399 . S
C3919 C3920 1.385 . S
C3920 H3906 0.931 . S
C3920 C3919 1.385 . S
C3920 C3921 1.389 . S
C3921 C3920 1.389 . S
C3921 C3922 1.387 . S
C3922 H3907 0.930 . S
C3922 C3917 1.390 . S
C3922 C3921 1.387 . S
H3923 C3935 0.930 . S
H3924 C3937 0.930 . S
H3925 C3938 0.930 . S
H3926 C3942 0.959 . S
H3927 C3942 0.959 . S
H3928 C3942 0.961 . S
H3929 C3943 0.960 . S
H3930 C3943 0.961 . S
H3931 C3943 0.959 . S
H3932 C3946 0.929 . S
H3933 C3947 0.931 . S
H3934 C3949 0.930 . S
C3935 H3923 0.930 . S
C3935 C3936 1.399 . S
C3935 C3940 1.399 . S
C3936 C3935 1.399 . S
C3936 C3937 1.376 . S
C3937 H3924 0.930 . S
C3937 C3936 1.376 . S
C3937 C3938 1.388 . S
C3938 H3925 0.930 . S
C3938 C3937 1.388 . S
C3938 C3939 1.390 . S
C3939 C3938 1.390 . S
C3939 C3940 1.394 . S
C3939 C3945 1.465 . S
C3940 C3935 1.399 . S
C3940 C3939 1.394 . S
C3940 C3941 1.516 . S
C3941 C3940 1.516 . S
C3941 C3942 1.502 . S
C3941 C3943 1.561 . S
C3941 C3944 1.526 . S
C3942 H3926 0.959 . S
C3942 H3927 0.959 . S
C3942 H3928 0.961 . S
C3942 C3941 1.502 . S
C3943 H3929 0.960 . S
C3943 H3930 0.961 . S
C3943 H3931 0.959 . S
C3943 C3941 1.561 . S
C3944 C3941 1.526 . S
C3944 C3945 1.396 . S
C3944 C3949 1.390 . S
C3945 C3939 1.465 . S
C3945 C3944 1.396 . S
C3945 C3946 1.399 . S
C3946 H3932 0.929 . S
C3946 C3945 1.399 . S
C3946 C3947 1.385 . S
C3947 H3933 0.931 . S
C3947 C3946 1.385 . S
C3947 C3948 1.389 . S
C3948 C3947 1.389 . S
C3948 C3949 1.387 . S
C3949 H3934 0.930 . S
C3949 C3944 1.390 . S
C3949 C3948 1.387 . S
H3950 C3962 0.930 . S
H3951 C3964 0.930 . S
H3952 C3965 0.930 . S
H3953 C3969 0.959 . S
H3954 C3969 0.959 . S
H3955 C3969 0.961 . S
H3956 C3970 0.960 . S
H3957 C3970 0.961 . S
H3958 C3970 0.959 . S
H3959 C3973 0.929 . S
H3960 C3974 0.931 . S
H3961 C3976 0.930 . S
C3962 H3950 0.930 . S
C3962 C3963 1.399 . S
C3962 C3967 1.399 . S
C3963 C3962 1.399 . S
C3963 C3964 1.376 . S
C3964 H3951 0.930 . S
C3964 C3963 1.376 . S
C3964 C3965 1.388 . S
C3965 H3952 0.930 . S
C3965 C3964 1.388 . S
C3965 C3966 1.390 . S
C3966 C3965 1.390 . S
C3966 C3967 1.394 . S
C3966 C3972 1.465 . S
C3967 C3962 1.399 . S
C3967 C3966 1.394 . S
C3967 C3968 1.516 . S
C3968 C3967 1.516 . S
C3968 C3969 1.502 . S
C3968 C3970 1.561 . S
C3968 C3971 1.526 . S
C3969 H3953 0.959 . S
C3969 H3954 0.959 . S
C3969 H3955 0.961 . S
C3969 C3968 1.502 . S
C3970 H3956 0.960 . S
C3970 H3957 0.961 . S
C3970 H3958 0.959 . S
C3970 C3968 1.561 . S
C3971 C3968 1.526 . S
C3971 C3972 1.396 . S
C3971 C3976 1.390 . S
C3972 C3966 1.465 . S
C3972 C3971 1.396 . S
C3972 C3973 1.399 . S
C3973 H3959 0.929 . S
C3973 C3972 1.399 . S
C3973 C3974 1.385 . S
C3974 H3960 0.931 . S
C3974 C3973 1.385 . S
C3974 C3975 1.389 . S
C3975 C3974 1.389 . S
C3975 C3976 1.387 . S
C3976 H3961 0.930 . S
C3976 C3971 1.390 . S
C3976 C3975 1.387 . S
H3977 C3989 0.930 . S
H3978 C3991 0.930 . S
H3979 C3992 0.930 . S
H3980 C3996 0.967 . S
H3981 C3996 0.959 1_655 S
H3982 C3996 0.961 . S
H3983 C3997 0.960 . S
H3984 C3997 0.961 1_655 S
H3985 C3997 0.959 . S
H3986 C4000 0.929 . S
H3987 C4001 0.931 . S
H3988 C4003 0.930 . S
C3989 H3977 0.930 . S
C3989 C3990 1.399 . S
C3989 C3994 1.399 . S
C3990 C3989 1.399 . S
C3990 C3991 1.376 . S
C3991 H3978 0.930 . S
C3991 C3990 1.376 . S
C3991 C3992 1.388 . S
C3992 H3979 0.930 . S
C3992 C3991 1.388 . S
C3992 C3993 1.390 . S
C3993 C3992 1.390 . S
C3993 C3994 1.394 . S
C3993 C3999 1.501 . S
C3994 C3989 1.399 . S
C3994 C3993 1.394 . S
C3994 C3995 1.516 . S
C3995 C3994 1.516 . S
C3995 C3996 1.502 . S
C3995 C3997 1.561 . S
C3995 C3998 1.526 1_455 S
C3996 H3980 0.967 . S
C3996 H3981 0.959 1_455 S
C3996 H3982 0.961 . S
C3996 C3995 1.502 . S
C3997 H3983 0.960 . S
C3997 H3984 0.961 1_455 S
C3997 H3985 0.959 . S
C3997 C3995 1.561 . S
C3998 C3995 1.526 1_655 S
C3998 C3999 1.380 1_655 S
C3998 C4003 1.390 . S
C3999 C3993 1.501 . S
C3999 C3998 1.380 1_455 S
C3999 C4000 1.379 1_455 S
C4000 H3986 0.929 . S
C4000 C3999 1.379 1_655 S
C4000 C4001 1.385 . S
C4001 H3987 0.931 . S
C4001 C4000 1.385 . S
C4001 C4002 1.389 . S
C4002 C4001 1.389 . S
C4002 C4003 1.387 . S
C4003 H3988 0.930 . S
C4003 C3998 1.390 . S
C4003 C4002 1.387 . S
H4004 C4016 0.930 . S
H4005 C4018 0.930 . S
H4006 C4019 0.930 . S
H4007 C4023 0.959 . S
H4008 C4023 0.959 . S
H4009 C4023 0.961 . S
H4010 C4024 0.960 . S
H4011 C4024 0.961 . S
H4012 C4024 0.959 . S
H4013 C4027 0.929 . S
H4014 C4028 0.931 . S
H4015 C4030 0.930 . S
C4016 H4004 0.930 . S
C4016 C4017 1.399 . S
C4016 C4021 1.399 . S
C4017 C4016 1.399 . S
C4017 C4018 1.376 . S
C4018 H4005 0.930 . S
C4018 C4017 1.376 . S
C4018 C4019 1.388 . S
C4019 H4006 0.930 . S
C4019 C4018 1.388 . S
C4019 C4020 1.390 . S
C4020 C4019 1.390 . S
C4020 C4021 1.394 . S
C4020 C4026 1.465 . S
C4021 C4016 1.399 . S
C4021 C4020 1.394 . S
C4021 C4022 1.516 . S
C4022 C4021 1.516 . S
C4022 C4023 1.502 . S
C4022 C4024 1.561 . S
C4022 C4025 1.526 . S
C4023 H4007 0.959 . S
C4023 H4008 0.959 . S
C4023 H4009 0.961 . S
C4023 C4022 1.502 . S
C4024 H4010 0.960 . S
C4024 H4011 0.961 . S
C4024 H4012 0.959 . S
C4024 C4022 1.561 . S
C4025 C4022 1.526 . S
C4025 C4026 1.396 . S
C4025 C4030 1.390 . S
C4026 C4020 1.465 . S
C4026 C4025 1.396 . S
C4026 C4027 1.399 . S
C4027 H4013 0.929 . S
C4027 C4026 1.399 . S
C4027 C4028 1.385 . S
C4028 H4014 0.931 . S
C4028 C4027 1.385 . S
C4028 C4029 1.389 . S
C4029 C4028 1.389 . S
C4029 C4030 1.387 . S
C4030 H4015 0.930 . S
C4030 C4025 1.390 . S
C4030 C4029 1.387 . S
H4031 C4043 0.930 . S
H4032 C4045 0.930 . S
H4033 C4046 0.930 . S
H4034 C4050 0.959 . S
H4035 C4050 0.959 . S
H4036 C4050 0.961 1_655 S
H4037 C4051 0.960 . S
H4038 C4051 0.961 . S
H4039 C4051 0.959 . S
H4040 C4054 0.929 . S
H4041 C4055 0.931 . S
H4042 C4057 0.930 . S
C4043 H4031 0.930 . S
C4043 C4044 1.399 . S
C4043 C4048 1.399 . S
C4044 C4043 1.399 . S
C4044 C4045 1.376 . S
C4045 H4032 0.930 . S
C4045 C4044 1.376 . S
C4045 C4046 1.388 . S
C4046 H4033 0.930 . S
C4046 C4045 1.388 . S
C4046 C4047 1.390 . S
C4047 C4046 1.390 . S
C4047 C4048 1.394 . S
C4047 C4053 1.465 1_655 S
C4048 C4043 1.399 . S
C4048 C4047 1.394 . S
C4048 C4049 1.516 1_655 S
C4049 C4048 1.516 1_455 S
C4049 C4050 1.502 . S
C4049 C4051 1.561 . S
C4049 C4052 1.526 . S
C4050 H4034 0.959 . S
C4050 H4035 0.959 . S
C4050 H4036 0.961 1_455 S
C4050 C4049 1.502 . S
C4051 H4037 0.960 . S
C4051 H4038 0.961 . S
C4051 H4039 0.959 . S
C4051 C4049 1.561 . S
C4052 C4049 1.526 . S
C4052 C4053 1.396 . S
C4052 C4057 1.390 . S
C4053 C4047 1.465 1_455 S
C4053 C4052 1.396 . S
C4053 C4054 1.399 . S
C4054 H4040 0.929 . S
C4054 C4053 1.399 . S
C4054 C4055 1.385 . S
C4055 H4041 0.931 . S
C4055 C4054 1.385 . S
C4055 C4056 1.389 . S
C4056 C4055 1.389 . S
C4056 C4057 1.387 . S
C4057 H4042 0.930 . S
C4057 C4052 1.390 . S
C4057 C4056 1.387 . S
H4058 C4070 0.930 . S
H4059 C4072 0.930 . S
H4060 C4073 0.930 . S
H4061 C4077 0.959 . S
H4062 C4077 0.959 . S
H4063 C4077 0.961 . S
H4064 C4078 0.960 . S
H4065 C4078 0.961 . S
H4066 C4078 0.959 . S
H4067 C4081 0.929 . S
H4068 C4082 0.931 . S
H4069 C4084 0.930 . S
C4070 H4058 0.930 . S
C4070 C4071 1.399 . S
C4070 C4075 1.399 . S
C4071 C4070 1.399 . S
C4071 C4072 1.376 . S
C4072 H4059 0.930 . S
C4072 C4071 1.376 . S
C4072 C4073 1.388 . S
C4073 H4060 0.930 . S
C4073 C4072 1.388 . S
C4073 C4074 1.390 . S
C4074 C4073 1.390 . S
C4074 C4075 1.394 . S
C4074 C4080 1.465 . S
C4075 C4070 1.399 . S
C4075 C4074 1.394 . S
C4075 C4076 1.516 . S
C4076 C4075 1.516 . S
C4076 C4077 1.502 . S
C4076 C4078 1.561 . S
C4076 C4079 1.526 . S
C4077 H4061 0.959 . S
C4077 H4062 0.959 . S
C4077 H4063 0.961 . S
C4077 C4076 1.502 . S
C4078 H4064 0.960 . S
C4078 H4065 0.961 . S
C4078 H4066 0.959 . S
C4078 C4076 1.561 . S
C4079 C4076 1.526 . S
C4079 C4080 1.396 . S
C4079 C4084 1.390 . S
C4080 C4074 1.465 . S
C4080 C4079 1.396 . S
C4080 C4081 1.399 . S
C4081 H4067 0.929 . S
C4081 C4080 1.399 . S
C4081 C4082 1.385 . S
C4082 H4068 0.931 . S
C4082 C4081 1.385 . S
C4082 C4083 1.389 . S
C4083 C4082 1.389 . S
C4083 C4084 1.387 . S
C4084 H4069 0.930 . S
C4084 C4079 1.390 . S
C4084 C4083 1.387 . S
H4085 C4097 0.930 . S
H4086 C4099 0.930 . S
H4087 C4100 0.930 . S
H4088 C4104 0.959 . S
H4089 C4104 0.959 . S
H4090 C4104 0.961 . S
H4091 C4105 0.960 . S
H4092 C4105 0.961 . S
H4093 C4105 0.959 . S
H4094 C4108 0.929 . S
H4095 C4109 0.931 . S
H4096 C4111 0.930 . S
C4097 H4085 0.930 . S
C4097 C4098 1.399 . S
C4097 C4102 1.399 . S
C4098 C4097 1.399 . S
C4098 C4099 1.376 . S
C4099 H4086 0.930 . S
C4099 C4098 1.376 . S
C4099 C4100 1.388 . S
C4100 H4087 0.930 . S
C4100 C4099 1.388 . S
C4100 C4101 1.390 . S
C4101 C4100 1.390 . S
C4101 C4102 1.394 . S
C4101 C4107 1.465 . S
C4102 C4097 1.399 . S
C4102 C4101 1.394 . S
C4102 C4103 1.516 . S
C4103 C4102 1.516 . S
C4103 C4104 1.502 . S
C4103 C4105 1.561 . S
C4103 C4106 1.526 . S
C4104 H4088 0.959 . S
C4104 H4089 0.959 . S
C4104 H4090 0.961 . S
C4104 C4103 1.502 . S
C4105 H4091 0.960 . S
C4105 H4092 0.961 . S
C4105 H4093 0.959 . S
C4105 C4103 1.561 . S
C4106 C4103 1.526 . S
C4106 C4107 1.396 . S
C4106 C4111 1.390 . S
C4107 C4101 1.465 . S
C4107 C4106 1.396 . S
C4107 C4108 1.399 . S
C4108 H4094 0.929 . S
C4108 C4107 1.399 . S
C4108 C4109 1.385 . S
C4109 H4095 0.931 . S
C4109 C4108 1.385 . S
C4109 C4110 1.389 . S
C4110 C4109 1.389 . S
C4110 C4111 1.387 . S
C4111 H4096 0.930 . S
C4111 C4106 1.390 . S
C4111 C4110 1.387 . S
H4112 C4124 0.930 . S
H4113 C4126 0.930 . S
H4114 C4127 0.930 . S
H4115 C4131 0.959 . S
H4116 C4131 0.959 . S
H4117 C4131 0.961 . S
H4118 C4132 0.960 . S
H4119 C4132 0.961 . S
H4120 C4132 0.959 . S
H4121 C4135 0.929 . S
H4122 C4136 0.931 . S
H4123 C4138 0.930 . S
C4124 H4112 0.930 . S
C4124 C4125 1.399 . S
C4124 C4129 1.399 . S
C4125 C4124 1.399 . S
C4125 C4126 1.376 . S
C4126 H4113 0.930 . S
C4126 C4125 1.376 . S
C4126 C4127 1.388 . S
C4127 H4114 0.930 . S
C4127 C4126 1.388 . S
C4127 C4128 1.390 . S
C4128 C4127 1.390 . S
C4128 C4129 1.394 . S
C4128 C4134 1.465 . S
C4129 C4124 1.399 . S
C4129 C4128 1.394 . S
C4129 C4130 1.516 . S
C4130 C4129 1.516 . S
C4130 C4131 1.502 . S
C4130 C4132 1.561 . S
C4130 C4133 1.526 . S
C4131 H4115 0.959 . S
C4131 H4116 0.959 . S
C4131 H4117 0.961 . S
C4131 C4130 1.502 . S
C4132 H4118 0.960 . S
C4132 H4119 0.961 . S
C4132 H4120 0.959 . S
C4132 C4130 1.561 . S
C4133 C4130 1.526 . S
C4133 C4134 1.396 . S
C4133 C4138 1.390 . S
C4134 C4128 1.465 . S
C4134 C4133 1.396 . S
C4134 C4135 1.399 . S
C4135 H4121 0.929 . S
C4135 C4134 1.399 . S
C4135 C4136 1.385 . S
C4136 H4122 0.931 . S
C4136 C4135 1.385 . S
C4136 C4137 1.389 . S
C4137 C4136 1.389 . S
C4137 C4138 1.387 . S
C4138 H4123 0.930 . S
C4138 C4133 1.390 . S
C4138 C4137 1.387 . S
H4139 C4151 0.930 . S
H4140 C4153 0.930 . S
H4141 C4154 0.930 . S
H4142 C4158 0.959 . S
H4143 C4158 0.959 . S
H4144 C4158 0.961 . S
H4145 C4159 0.960 . S
H4146 C4159 0.961 . S
H4147 C4159 0.959 . S
H4148 C4162 0.929 . S
H4149 C4163 0.931 . S
H4150 C4165 0.930 . S
C4151 H4139 0.930 . S
C4151 C4152 1.399 . S
C4151 C4156 1.399 . S
C4152 C4151 1.399 . S
C4152 C4153 1.376 . S
C4153 H4140 0.930 . S
C4153 C4152 1.376 . S
C4153 C4154 1.388 . S
C4154 H4141 0.930 . S
C4154 C4153 1.388 . S
C4154 C4155 1.390 . S
C4155 C4154 1.390 . S
C4155 C4156 1.394 . S
C4155 C4161 1.465 . S
C4156 C4151 1.399 . S
C4156 C4155 1.394 . S
C4156 C4157 1.516 . S
C4157 C4156 1.516 . S
C4157 C4158 1.502 . S
C4157 C4159 1.561 . S
C4157 C4160 1.526 . S
C4158 H4142 0.959 . S
C4158 H4143 0.959 . S
C4158 H4144 0.961 . S
C4158 C4157 1.502 . S
C4159 H4145 0.960 . S
C4159 H4146 0.961 . S
C4159 H4147 0.959 . S
C4159 C4157 1.561 . S
C4160 C4157 1.526 . S
C4160 C4161 1.396 . S
C4160 C4165 1.390 . S
C4161 C4155 1.465 . S
C4161 C4160 1.396 . S
C4161 C4162 1.399 . S
C4162 H4148 0.929 . S
C4162 C4161 1.399 . S
C4162 C4163 1.385 . S
C4163 H4149 0.931 . S
C4163 C4162 1.385 . S
C4163 C4164 1.389 . S
C4164 C4163 1.389 . S
C4164 C4165 1.387 . S
C4165 H4150 0.930 . S
C4165 C4160 1.390 . S
C4165 C4164 1.387 . S
H4166 C4178 0.930 . S
H4167 C4180 0.930 . S
H4168 C4181 0.930 . S
H4169 C4185 0.959 . S
H4170 C4185 0.959 . S
H4171 C4185 0.961 . S
H4172 C4186 0.960 . S
H4173 C4186 0.961 . S
H4174 C4186 0.959 . S
H4175 C4189 0.929 . S
H4176 C4190 0.931 . S
H4177 C4192 0.930 . S
C4178 H4166 0.930 . S
C4178 C4179 1.399 . S
C4178 C4183 1.399 . S
C4179 C4178 1.399 . S
C4179 C4180 1.376 . S
C4180 H4167 0.930 . S
C4180 C4179 1.376 . S
C4180 C4181 1.388 . S
C4181 H4168 0.930 . S
C4181 C4180 1.388 . S
C4181 C4182 1.390 . S
C4182 C4181 1.390 . S
C4182 C4183 1.394 . S
C4182 C4188 1.465 . S
C4183 C4178 1.399 . S
C4183 C4182 1.394 . S
C4183 C4184 1.516 . S
C4184 C4183 1.516 . S
C4184 C4185 1.502 . S
C4184 C4186 1.561 . S
C4184 C4187 1.526 . S
C4185 H4169 0.959 . S
C4185 H4170 0.959 . S
C4185 H4171 0.961 . S
C4185 C4184 1.502 . S
C4186 H4172 0.960 . S
C4186 H4173 0.961 . S
C4186 H4174 0.959 . S
C4186 C4184 1.561 . S
C4187 C4184 1.526 . S
C4187 C4188 1.396 . S
C4187 C4192 1.390 . S
C4188 C4182 1.465 . S
C4188 C4187 1.396 . S
C4188 C4189 1.399 . S
C4189 H4175 0.929 . S
C4189 C4188 1.399 . S
C4189 C4190 1.385 . S
C4190 H4176 0.931 . S
C4190 C4189 1.385 . S
C4190 C4191 1.389 . S
C4191 C4190 1.389 . S
C4191 C4192 1.387 . S
C4192 H4177 0.930 . S
C4192 C4187 1.390 . S
C4192 C4191 1.387 . S
H4193 C4205 0.930 . S
H4194 C4207 0.930 . S
H4195 C4208 0.930 . S
H4196 C4212 0.959 . S
H4197 C4212 0.959 . S
H4198 C4212 0.961 . S
H4199 C4213 0.960 . S
H4200 C4213 0.961 . S
H4201 C4213 0.959 . S
H4202 C4216 0.929 . S
H4203 C4217 0.931 . S
H4204 C4219 0.930 . S
C4205 H4193 0.930 . S
C4205 C4206 1.399 . S
C4205 C4210 1.399 . S
C4206 C4205 1.399 . S
C4206 C4207 1.376 . S
C4207 H4194 0.930 . S
C4207 C4206 1.376 . S
C4207 C4208 1.388 . S
C4208 H4195 0.930 . S
C4208 C4207 1.388 . S
C4208 C4209 1.390 . S
C4209 C4208 1.390 . S
C4209 C4210 1.394 . S
C4209 C4215 1.465 . S
C4210 C4205 1.399 . S
C4210 C4209 1.394 . S
C4210 C4211 1.516 . S
C4211 C4210 1.516 . S
C4211 C4212 1.502 . S
C4211 C4213 1.561 . S
C4211 C4214 1.526 . S
C4212 H4196 0.959 . S
C4212 H4197 0.959 . S
C4212 H4198 0.961 . S
C4212 C4211 1.502 . S
C4213 H4199 0.960 . S
C4213 H4200 0.961 . S
C4213 H4201 0.959 . S
C4213 C4211 1.561 . S
C4214 C4211 1.526 . S
C4214 C4215 1.396 . S
C4214 C4219 1.390 . S
C4215 C4209 1.465 . S
C4215 C4214 1.396 . S
C4215 C4216 1.399 . S
C4216 H4202 0.929 . S
C4216 C4215 1.399 . S
C4216 C4217 1.385 . S
C4217 H4203 0.931 . S
C4217 C4216 1.385 . S
C4217 C4218 1.389 . S
C4218 C4217 1.389 . S
C4218 C4219 1.387 . S
C4219 H4204 0.930 . S
C4219 C4214 1.390 . S
C4219 C4218 1.387 . S
H4220 C4232 0.930 . S
H4221 C4234 0.930 . S
H4222 C4235 0.930 . S
H4223 C4239 0.959 . S
H4224 C4239 0.959 . S
H4225 C4239 0.961 . S
H4226 C4240 0.960 . S
H4227 C4240 0.961 . S
H4228 C4240 0.959 . S
H4229 C4243 0.929 . S
H4230 C4244 0.931 . S
H4231 C4246 0.930 . S
C4232 H4220 0.930 . S
C4232 C4233 1.399 . S
C4232 C4237 1.399 . S
C4233 C4232 1.399 . S
C4233 C4234 1.376 . S
C4234 H4221 0.930 . S
C4234 C4233 1.376 . S
C4234 C4235 1.388 . S
C4235 H4222 0.930 . S
C4235 C4234 1.388 . S
C4235 C4236 1.390 . S
C4236 C4235 1.390 . S
C4236 C4237 1.394 . S
C4236 C4242 1.465 . S
C4237 C4232 1.399 . S
C4237 C4236 1.394 . S
C4237 C4238 1.516 . S
C4238 C4237 1.516 . S
C4238 C4239 1.502 . S
C4238 C4240 1.561 . S
C4238 C4241 1.526 . S
C4239 H4223 0.959 . S
C4239 H4224 0.959 . S
C4239 H4225 0.961 . S
C4239 C4238 1.502 . S
C4240 H4226 0.960 . S
C4240 H4227 0.961 . S
C4240 H4228 0.959 . S
C4240 C4238 1.561 . S
C4241 C4238 1.526 . S
C4241 C4242 1.396 . S
C4241 C4246 1.390 . S
C4242 C4236 1.465 . S
C4242 C4241 1.396 . S
C4242 C4243 1.399 . S
C4243 H4229 0.929 . S
C4243 C4242 1.399 . S
C4243 C4244 1.385 . S
C4244 H4230 0.931 . S
C4244 C4243 1.385 . S
C4244 C4245 1.389 . S
C4245 C4244 1.389 . S
C4245 C4246 1.387 . S
C4246 H4231 0.930 . S
C4246 C4241 1.390 . S
C4246 C4245 1.387 . S
H4247 C4259 0.930 . S
H4248 C4261 0.930 . S
H4249 C4262 0.930 . S
H4250 C4266 0.959 . S
H4251 C4266 0.959 . S
H4252 C4266 0.961 . S
H4253 C4267 0.960 . S
H4254 C4267 0.961 . S
H4255 C4267 0.959 . S
H4256 C4270 0.929 . S
H4257 C4271 0.931 . S
H4258 C4273 0.930 . S
C4259 H4247 0.930 . S
C4259 C4260 1.399 . S
C4259 C4264 1.399 . S
C4260 C4259 1.399 . S
C4260 C4261 1.376 . S
C4261 H4248 0.930 . S
C4261 C4260 1.376 . S
C4261 C4262 1.388 . S
C4262 H4249 0.930 . S
C4262 C4261 1.388 . S
C4262 C4263 1.390 . S
C4263 C4262 1.390 . S
C4263 C4264 1.394 . S
C4263 C4269 1.465 . S
C4264 C4259 1.399 . S
C4264 C4263 1.394 . S
C4264 C4265 1.516 . S
C4265 C4264 1.516 . S
C4265 C4266 1.502 . S
C4265 C4267 1.561 . S
C4265 C4268 1.526 . S
C4266 H4250 0.959 . S
C4266 H4251 0.959 . S
C4266 H4252 0.961 . S
C4266 C4265 1.502 . S
C4267 H4253 0.960 . S
C4267 H4254 0.961 . S
C4267 H4255 0.959 . S
C4267 C4265 1.561 . S
C4268 C4265 1.526 . S
C4268 C4269 1.396 . S
C4268 C4273 1.390 . S
C4269 C4263 1.465 . S
C4269 C4268 1.396 . S
C4269 C4270 1.399 . S
C4270 H4256 0.929 . S
C4270 C4269 1.399 . S
C4270 C4271 1.385 . S
C4271 H4257 0.931 . S
C4271 C4270 1.385 . S
C4271 C4272 1.389 . S
C4272 C4271 1.389 . S
C4272 C4273 1.387 . S
C4273 H4258 0.930 . S
C4273 C4268 1.390 . S
C4273 C4272 1.387 . S
H4274 C4286 0.930 . S
H4275 C4288 0.930 . S
H4276 C4289 0.930 . S
H4277 C4293 0.959 . S
H4278 C4293 0.959 . S
H4279 C4293 0.961 . S
H4280 C4294 0.960 . S
H4281 C4294 0.961 . S
H4282 C4294 0.959 . S
H4283 C4297 0.929 . S
H4284 C4298 0.931 . S
H4285 C4300 0.930 . S
C4286 H4274 0.930 . S
C4286 C4287 1.399 . S
C4286 C4291 1.399 . S
C4287 C4286 1.399 . S
C4287 C4288 1.376 . S
C4288 H4275 0.930 . S
C4288 C4287 1.376 . S
C4288 C4289 1.388 . S
C4289 H4276 0.930 . S
C4289 C4288 1.388 . S
C4289 C4290 1.390 . S
C4290 C4289 1.390 . S
C4290 C4291 1.394 . S
C4290 C4296 1.465 . S
C4291 C4286 1.399 . S
C4291 C4290 1.394 . S
C4291 C4292 1.516 . S
C4292 C4291 1.516 . S
C4292 C4293 1.502 . S
C4292 C4294 1.561 . S
C4292 C4295 1.526 . S
C4293 H4277 0.959 . S
C4293 H4278 0.959 . S
C4293 H4279 0.961 . S
C4293 C4292 1.502 . S
C4294 H4280 0.960 . S
C4294 H4281 0.961 . S
C4294 H4282 0.959 . S
C4294 C4292 1.561 . S
C4295 C4292 1.526 . S
C4295 C4296 1.396 . S
C4295 C4300 1.390 . S
C4296 C4290 1.465 . S
C4296 C4295 1.396 . S
C4296 C4297 1.399 . S
C4297 H4283 0.929 . S
C4297 C4296 1.399 . S
C4297 C4298 1.385 . S
C4298 H4284 0.931 . S
C4298 C4297 1.385 . S
C4298 C4299 1.389 . S
C4299 C4298 1.389 . S
C4299 C4300 1.387 . S
C4300 H4285 0.930 . S
C4300 C4295 1.390 . S
C4300 C4299 1.387 . S
H4301 C4313 0.930 . S
H4302 C4315 0.930 . S
H4303 C4316 0.930 . S
H4304 C4320 0.959 . S
H4305 C4320 0.959 . S
H4306 C4320 0.961 . S
H4307 C4321 0.960 . S
H4308 C4321 0.961 . S
H4309 C4321 0.959 . S
H4310 C4324 0.929 . S
H4311 C4325 0.931 . S
H4312 C4327 0.930 . S
C4313 H4301 0.930 . S
C4313 C4314 1.399 . S
C4313 C4318 1.399 . S
C4314 C4313 1.399 . S
C4314 C4315 1.376 . S
C4315 H4302 0.930 . S
C4315 C4314 1.376 . S
C4315 C4316 1.388 . S
C4316 H4303 0.930 . S
C4316 C4315 1.388 . S
C4316 C4317 1.390 . S
C4317 C4316 1.390 . S
C4317 C4318 1.394 . S
C4317 C4323 1.465 . S
C4318 C4313 1.399 . S
C4318 C4317 1.394 . S
C4318 C4319 1.516 . S
C4319 C4318 1.516 . S
C4319 C4320 1.502 . S
C4319 C4321 1.561 . S
C4319 C4322 1.526 . S
C4320 H4304 0.959 . S
C4320 H4305 0.959 . S
C4320 H4306 0.961 . S
C4320 C4319 1.502 . S
C4321 H4307 0.960 . S
C4321 H4308 0.961 . S
C4321 H4309 0.959 . S
C4321 C4319 1.561 . S
C4322 C4319 1.526 . S
C4322 C4323 1.396 . S
C4322 C4327 1.390 . S
C4323 C4317 1.465 . S
C4323 C4322 1.396 . S
C4323 C4324 1.399 . S
C4324 H4310 0.929 . S
C4324 C4323 1.399 . S
C4324 C4325 1.385 . S
C4325 H4311 0.931 . S
C4325 C4324 1.385 . S
C4325 C4326 1.389 . S
C4326 C4325 1.389 . S
C4326 C4327 1.387 . S
C4327 H4312 0.930 . S
C4327 C4322 1.390 . S
C4327 C4326 1.387 . S
H4328 C4340 0.930 . S
H4329 C4342 0.930 . S
H4330 C4343 0.930 . S
H4331 C4347 0.959 . S
H4332 C4347 0.959 . S
H4333 C4347 0.961 . S
H4334 C4348 0.960 . S
H4335 C4348 0.961 . S
H4336 C4348 0.959 . S
H4337 C4351 0.929 . S
H4338 C4352 0.931 . S
H4339 C4354 0.930 . S
C4340 H4328 0.930 . S
C4340 C4341 1.399 . S
C4340 C4345 1.399 . S
C4341 C4340 1.399 . S
C4341 C4342 1.376 . S
C4342 H4329 0.930 . S
C4342 C4341 1.376 . S
C4342 C4343 1.388 . S
C4343 H4330 0.930 . S
C4343 C4342 1.388 . S
C4343 C4344 1.390 . S
C4344 C4343 1.390 . S
C4344 C4345 1.394 . S
C4344 C4350 1.465 . S
C4345 C4340 1.399 . S
C4345 C4344 1.394 . S
C4345 C4346 1.516 . S
C4346 C4345 1.516 . S
C4346 C4347 1.502 . S
C4346 C4348 1.561 . S
C4346 C4349 1.526 . S
C4347 H4331 0.959 . S
C4347 H4332 0.959 . S
C4347 H4333 0.961 . S
C4347 C4346 1.502 . S
C4348 H4334 0.960 . S
C4348 H4335 0.961 . S
C4348 H4336 0.959 . S
C4348 C4346 1.561 . S
C4349 C4346 1.526 . S
C4349 C4350 1.396 . S
C4349 C4354 1.390 . S
C4350 C4344 1.465 . S
C4350 C4349 1.396 . S
C4350 C4351 1.399 . S
C4351 H4337 0.929 . S
C4351 C4350 1.399 . S
C4351 C4352 1.385 . S
C4352 H4338 0.931 . S
C4352 C4351 1.385 . S
C4352 C4353 1.389 . S
C4353 C4352 1.389 . S
C4353 C4354 1.387 . S
C4354 H4339 0.930 . S
C4354 C4349 1.390 . S
C4354 C4353 1.387 . S
H4355 C4367 0.930 . S
H4356 C4369 0.930 . S
H4357 C4370 0.930 . S
H4358 C4374 0.959 . S
H4359 C4374 0.959 . S
H4360 C4374 0.961 . S
H4361 C4375 0.960 . S
H4362 C4375 0.961 . S
H4363 C4375 0.959 . S
H4364 C4378 0.929 . S
H4365 C4379 0.931 . S
H4366 C4381 0.930 . S
C4367 H4355 0.930 . S
C4367 C4368 1.399 . S
C4367 C4372 1.399 . S
C4368 C4367 1.399 . S
C4368 C4369 1.376 . S
C4369 H4356 0.930 . S
C4369 C4368 1.376 . S
C4369 C4370 1.388 . S
C4370 H4357 0.930 . S
C4370 C4369 1.388 . S
C4370 C4371 1.390 . S
C4371 C4370 1.390 . S
C4371 C4372 1.394 . S
C4371 C4377 1.465 . S
C4372 C4367 1.399 . S
C4372 C4371 1.394 . S
C4372 C4373 1.516 . S
C4373 C4372 1.516 . S
C4373 C4374 1.502 . S
C4373 C4375 1.561 . S
C4373 C4376 1.526 . S
C4374 H4358 0.959 . S
C4374 H4359 0.959 . S
C4374 H4360 0.961 . S
C4374 C4373 1.502 . S
C4375 H4361 0.960 . S
C4375 H4362 0.961 . S
C4375 H4363 0.959 . S
C4375 C4373 1.561 . S
C4376 C4373 1.526 . S
C4376 C4377 1.396 . S
C4376 C4381 1.390 . S
C4377 C4371 1.465 . S
C4377 C4376 1.396 . S
C4377 C4378 1.399 . S
C4378 H4364 0.929 . S
C4378 C4377 1.399 . S
C4378 C4379 1.385 . S
C4379 H4365 0.931 . S
C4379 C4378 1.385 . S
C4379 C4380 1.389 . S
C4380 C4379 1.389 . S
C4380 C4381 1.387 . S
C4381 H4366 0.930 . S
C4381 C4376 1.390 . S
C4381 C4380 1.387 . S
H4382 C4394 0.930 . S
H4383 C4396 0.930 . S
H4384 C4397 0.930 . S
H4385 C4401 0.959 . S
H4386 C4401 0.959 . S
H4387 C4401 0.961 . S
H4388 C4402 0.960 . S
H4389 C4402 0.961 . S
H4390 C4402 0.959 . S
H4391 C4405 0.929 . S
H4392 C4406 0.931 . S
H4393 C4408 0.930 . S
C4394 H4382 0.930 . S
C4394 C4395 1.399 . S
C4394 C4399 1.399 . S
C4395 C4394 1.399 . S
C4395 C4396 1.376 . S
C4396 H4383 0.930 . S
C4396 C4395 1.376 . S
C4396 C4397 1.388 . S
C4397 H4384 0.930 . S
C4397 C4396 1.388 . S
C4397 C4398 1.390 . S
C4398 C4397 1.390 . S
C4398 C4399 1.394 . S
C4398 C4404 1.465 . S
C4399 C4394 1.399 . S
C4399 C4398 1.394 . S
C4399 C4400 1.516 . S
C4400 C4399 1.516 . S
C4400 C4401 1.502 . S
C4400 C4402 1.561 . S
C4400 C4403 1.526 . S
C4401 H4385 0.959 . S
C4401 H4386 0.959 . S
C4401 H4387 0.961 . S
C4401 C4400 1.502 . S
C4402 H4388 0.960 . S
C4402 H4389 0.961 . S
C4402 H4390 0.959 . S
C4402 C4400 1.561 . S
C4403 C4400 1.526 . S
C4403 C4404 1.396 . S
C4403 C4408 1.390 . S
C4404 C4398 1.465 . S
C4404 C4403 1.396 . S
C4404 C4405 1.399 . S
C4405 H4391 0.929 . S
C4405 C4404 1.399 . S
C4405 C4406 1.385 . S
C4406 H4392 0.931 . S
C4406 C4405 1.385 . S
C4406 C4407 1.389 . S
C4407 C4406 1.389 . S
C4407 C4408 1.387 . S
C4408 H4393 0.930 . S
C4408 C4403 1.390 . S
C4408 C4407 1.387 . S
H4409 C4421 0.930 . S
H4410 C4423 0.930 . S
H4411 C4424 0.930 . S
H4412 C4428 0.959 . S
H4413 C4428 0.959 . S
H4414 C4428 0.961 . S
H4415 C4429 0.960 . S
H4416 C4429 0.961 . S
H4417 C4429 0.959 . S
H4418 C4432 0.929 . S
H4419 C4433 0.931 . S
H4420 C4435 0.930 . S
C4421 H4409 0.930 . S
C4421 C4422 1.399 . S
C4421 C4426 1.399 . S
C4422 C4421 1.399 . S
C4422 C4423 1.376 . S
C4423 H4410 0.930 . S
C4423 C4422 1.376 . S
C4423 C4424 1.388 . S
C4424 H4411 0.930 . S
C4424 C4423 1.388 . S
C4424 C4425 1.390 . S
C4425 C4424 1.390 . S
C4425 C4426 1.394 . S
C4425 C4431 1.465 . S
C4426 C4421 1.399 . S
C4426 C4425 1.394 . S
C4426 C4427 1.516 . S
C4427 C4426 1.516 . S
C4427 C4428 1.502 . S
C4427 C4429 1.561 . S
C4427 C4430 1.526 . S
C4428 H4412 0.959 . S
C4428 H4413 0.959 . S
C4428 H4414 0.961 . S
C4428 C4427 1.502 . S
C4429 H4415 0.960 . S
C4429 H4416 0.961 . S
C4429 H4417 0.959 . S
C4429 C4427 1.561 . S
C4430 C4427 1.526 . S
C4430 C4431 1.396 . S
C4430 C4435 1.390 . S
C4431 C4425 1.465 . S
C4431 C4430 1.396 . S
C4431 C4432 1.399 . S
C4432 H4418 0.929 . S
C4432 C4431 1.399 . S
C4432 C4433 1.385 . S
C4433 H4419 0.931 . S
C4433 C4432 1.385 . S
C4433 C4434 1.389 . S
C4434 C4433 1.389 . S
C4434 C4435 1.387 . S
C4435 H4420 0.930 . S
C4435 C4430 1.390 . S
C4435 C4434 1.387 . S
H4436 C4448 0.930 . S
H4437 C4450 0.930 . S
H4438 C4451 0.930 . S
H4439 C4455 0.959 . S
H4440 C4455 0.959 . S
H4441 C4455 0.961 . S
H4442 C4456 0.960 . S
H4443 C4456 0.961 . S
H4444 C4456 0.959 . S
H4445 C4459 0.929 . S
H4446 C4460 0.931 . S
H4447 C4462 0.930 . S
C4448 H4436 0.930 . S
C4448 C4449 1.399 . S
C4448 C4453 1.399 . S
C4449 C4448 1.399 . S
C4449 C4450 1.376 . S
C4450 H4437 0.930 . S
C4450 C4449 1.376 . S
C4450 C4451 1.388 . S
C4451 H4438 0.930 . S
C4451 C4450 1.388 . S
C4451 C4452 1.390 . S
C4452 C4451 1.390 . S
C4452 C4453 1.394 . S
C4452 C4458 1.465 . S
C4453 C4448 1.399 . S
C4453 C4452 1.394 . S
C4453 C4454 1.516 . S
C4454 C4453 1.516 . S
C4454 C4455 1.502 . S
C4454 C4456 1.561 . S
C4454 C4457 1.526 . S
C4455 H4439 0.959 . S
C4455 H4440 0.959 . S
C4455 H4441 0.961 . S
C4455 C4454 1.502 . S
C4456 H4442 0.960 . S
C4456 H4443 0.961 . S
C4456 H4444 0.959 . S
C4456 C4454 1.561 . S
C4457 C4454 1.526 . S
C4457 C4458 1.396 . S
C4457 C4462 1.390 . S
C4458 C4452 1.465 . S
C4458 C4457 1.396 . S
C4458 C4459 1.399 . S
C4459 H4445 0.929 . S
C4459 C4458 1.399 . S
C4459 C4460 1.385 . S
C4460 H4446 0.931 . S
C4460 C4459 1.385 . S
C4460 C4461 1.389 . S
C4461 C4460 1.389 . S
C4461 C4462 1.387 . S
C4462 H4447 0.930 . S
C4462 C4457 1.390 . S
C4462 C4461 1.387 . S
H4463 C4475 0.930 . S
H4464 C4477 0.930 . S
H4465 C4478 0.930 . S
H4466 C4482 0.959 . S
H4467 C4482 0.959 . S
H4468 C4482 0.961 . S
H4469 C4483 0.960 . S
H4470 C4483 0.961 . S
H4471 C4483 0.959 . S
H4472 C4486 0.929 . S
H4473 C4487 0.931 . S
H4474 C4489 0.930 . S
C4475 H4463 0.930 . S
C4475 C4476 1.399 . S
C4475 C4480 1.399 . S
C4476 C4475 1.399 . S
C4476 C4477 1.376 . S
C4477 H4464 0.930 . S
C4477 C4476 1.376 . S
C4477 C4478 1.388 . S
C4478 H4465 0.930 . S
C4478 C4477 1.388 . S
C4478 C4479 1.390 . S
C4479 C4478 1.390 . S
C4479 C4480 1.394 . S
C4479 C4485 1.465 . S
C4480 C4475 1.399 . S
C4480 C4479 1.394 . S
C4480 C4481 1.516 . S
C4481 C4480 1.516 . S
C4481 C4482 1.502 . S
C4481 C4483 1.561 . S
C4481 C4484 1.526 . S
C4482 H4466 0.959 . S
C4482 H4467 0.959 . S
C4482 H4468 0.961 . S
C4482 C4481 1.502 . S
C4483 H4469 0.960 . S
C4483 H4470 0.961 . S
C4483 H4471 0.959 . S
C4483 C4481 1.561 . S
C4484 C4481 1.526 . S
C4484 C4485 1.396 . S
C4484 C4489 1.390 . S
C4485 C4479 1.465 . S
C4485 C4484 1.396 . S
C4485 C4486 1.399 . S
C4486 H4472 0.929 . S
C4486 C4485 1.399 . S
C4486 C4487 1.385 . S
C4487 H4473 0.931 . S
C4487 C4486 1.385 . S
C4487 C4488 1.389 . S
C4488 C4487 1.389 . S
C4488 C4489 1.387 . S
C4489 H4474 0.930 . S
C4489 C4484 1.390 . S
C4489 C4488 1.387 . S
H4490 C4502 0.930 . S
H4491 C4504 0.930 . S
H4492 C4505 0.930 . S
H4493 C4509 0.959 . S
H4494 C4509 0.959 . S
H4495 C4509 0.961 . S
H4496 C4510 0.960 . S
H4497 C4510 0.961 . S
H4498 C4510 0.959 . S
H4499 C4513 0.929 . S
H4500 C4514 0.931 . S
H4501 C4516 0.930 . S
C4502 H4490 0.930 . S
C4502 C4503 1.399 . S
C4502 C4507 1.399 . S
C4503 C4502 1.399 . S
C4503 C4504 1.376 . S
C4504 H4491 0.930 . S
C4504 C4503 1.376 . S
C4504 C4505 1.388 . S
C4505 H4492 0.930 . S
C4505 C4504 1.388 . S
C4505 C4506 1.390 . S
C4506 C4505 1.390 . S
C4506 C4507 1.394 . S
C4506 C4512 1.465 . S
C4507 C4502 1.399 . S
C4507 C4506 1.394 . S
C4507 C4508 1.516 . S
C4508 C4507 1.516 . S
C4508 C4509 1.502 . S
C4508 C4510 1.561 . S
C4508 C4511 1.526 . S
C4509 H4493 0.959 . S
C4509 H4494 0.959 . S
C4509 H4495 0.961 . S
C4509 C4508 1.502 . S
C4510 H4496 0.960 . S
C4510 H4497 0.961 . S
C4510 H4498 0.959 . S
C4510 C4508 1.561 . S
C4511 C4508 1.526 . S
C4511 C4512 1.396 . S
C4511 C4516 1.390 . S
C4512 C4506 1.465 . S
C4512 C4511 1.396 . S
C4512 C4513 1.399 . S
C4513 H4499 0.929 . S
C4513 C4512 1.399 . S
C4513 C4514 1.385 . S
C4514 H4500 0.931 . S
C4514 C4513 1.385 . S
C4514 C4515 1.389 . S
C4515 C4514 1.389 . S
C4515 C4516 1.387 . S
C4516 H4501 0.930 . S
C4516 C4511 1.390 . S
C4516 C4515 1.387 . S
H4517 C4529 0.930 . S
H4518 C4531 0.930 . S
H4519 C4532 0.930 . S
H4520 C4536 0.959 . S
H4521 C4536 0.959 . S
H4522 C4536 0.961 . S
H4523 C4537 0.960 . S
H4524 C4537 0.961 . S
H4525 C4537 0.959 . S
H4526 C4540 0.929 . S
H4527 C4541 0.931 . S
H4528 C4543 0.930 . S
C4529 H4517 0.930 . S
C4529 C4530 1.399 . S
C4529 C4534 1.399 . S
C4530 C4529 1.399 . S
C4530 C4531 1.376 . S
C4531 H4518 0.930 . S
C4531 C4530 1.376 . S
C4531 C4532 1.388 . S
C4532 H4519 0.930 . S
C4532 C4531 1.388 . S
C4532 C4533 1.390 . S
C4533 C4532 1.390 . S
C4533 C4534 1.394 . S
C4533 C4539 1.465 . S
C4534 C4529 1.399 . S
C4534 C4533 1.394 . S
C4534 C4535 1.516 . S
C4535 C4534 1.516 . S
C4535 C4536 1.502 . S
C4535 C4537 1.561 . S
C4535 C4538 1.526 . S
C4536 H4520 0.959 . S
C4536 H4521 0.959 . S
C4536 H4522 0.961 . S
C4536 C4535 1.502 . S
C4537 H4523 0.960 . S
C4537 H4524 0.961 . S
C4537 H4525 0.959 . S
C4537 C4535 1.561 . S
C4538 C4535 1.526 . S
C4538 C4539 1.396 . S
C4538 C4543 1.390 . S
C4539 C4533 1.465 . S
C4539 C4538 1.396 . S
C4539 C4540 1.399 . S
C4540 H4526 0.929 . S
C4540 C4539 1.399 . S
C4540 C4541 1.385 . S
C4541 H4527 0.931 . S
C4541 C4540 1.385 . S
C4541 C4542 1.389 . S
C4542 C4541 1.389 . S
C4542 C4543 1.387 . S
C4543 H4528 0.930 . S
C4543 C4538 1.390 . S
C4543 C4542 1.387 . S
C2829 C49 1.230 . S
C2841 C372 1.262 . S
C2856 C145 1.232 . S
C2868 C460 1.229 . S
C2883 C557 1.261 . S
C2895 C225 1.231 . S
C2910 C636 1.274 . S
C2922 C313 1.300 . S
C2937 C724 1.260 . S
C2949 C1113 1.238 . S
C2964 C849 1.254 . S
C2976 C1164 1.228 . S
C2991 C1252 1.238 . S
C3003 C937 1.233 . S
C3018 C1017 1.286 . S
C3030 C1377 1.267 . S
C3045 C1780 1.297 . S
C3057 C1465 1.264 . S
C3072 C1877 1.248 . S
C3084 C1545 1.223 . S
C3099 C1633 1.233 . S
C3111 C1965 1.236 . S
C3126 C2044 1.249 . S
C3138 C1729 1.222 . S
C3153 C2141 1.262 . S
C3165 C2513 1.239 . S
C3180 C2572 1.286 . S
C3192 C2249 1.269 . S
C3207 C2660 1.305 . S
C3219 C2337 1.284 . S
C3234 C2433 1.224 . S
C3246 C2748 1.250 . S
C3261 C57 1.515 . S
C3273 C2396 1.616 . S
C3288 C761 1.585 . S
C3300 C117 1.549 . S
C3315 C233 1.518 . S
C3327 C2229 1.616 . S
C3342 C284 1.573 . S
C3354 C900 1.577 . S
C3369 C2609 1.606 . S
C3381 C381 1.555 . S
C3396 C1289 1.582 . S
C3408 C489 1.557 . S
C3423 C548 1.580 . S
C3435 C2785 1.604 . S
C3450 C665 1.506 . S
C3462 C1076 1.594 . S
C3477 C1721 1.576 . S
C3489 C753 1.568 . S
C3504 C821 1.548 . S
C3516 C29 1.604 . S
C3531 C1553 1.596 . S
C3543 C909 1.515 . S
C3558 C988 1.532 . S
C3570 C205 1.606 . S
C3585 C1868 1.594 . S
C3597 C1085 1.525 . S
C3612 C1193 1.519 . S
C3624 C577 1.608 . S
C3639 C2053 1.595 . S
C3651 C1281 1.518 . S
C3666 C1349 1.542 . S
C3678 C409 1.604 . S
C3693 C997 1.602 . S
C3705 C1457 1.572 . S
C3720 C2161 1.584 . S
C3732 C1516 1.533 . S
C3747 C812 1.603 . S
C3759 C1641 1.565 . S
C3774 C1701 1.573 . S
C3786 C2317 1.577 . S
C3801 C1201 1.604 . S
C3813 C1789 1.578 . S
C3828 C2697 1.580 . S
C3840 C1905 1.565 . S
C3855 C1340 1.606 . S
C3867 C1956 1.554 . S
C3882 C2073 1.510 . S
C3894 C2493 1.592 . S
C3909 C2169 1.525 . S
C3921 C321 1.589 . S
C3936 C2220 1.548 . S
C3948 C1428 1.603 . S
C3963 C2308 1.524 . S
C3975 C137 1.589 . S
C3990 C2405 1.534 . S
C4002 C1613 1.605 . S
C4017 C2484 1.547 . S
C4029 C469 1.588 . S
C4044 C1985 1.606 . S
C4056 C2601 1.535 . S
C4071 C645 1.576 . S
C4083 C2689 1.567 . S
C4098 C2777 1.523 . S
C4110 C1817 1.607 . S
C4125 C20 1.205 . S
C4137 C673 1.180 . S
C4152 C108 1.226 . S
C4164 C401 1.224 . S
C4179 C196 1.183 . S
C4191 C497 1.192 . S
C4206 C585 1.203 . S
C4218 C293 1.177 . S
C4233 C1369 1.212 . S
C4245 C733 1.208 . S
C4260 C1105 1.235 . S
C4272 C841 1.235 . S
C4287 C1173 1.199 . S
C4299 C929 1.202 . S
C4314 C1261 1.233 . S
C4326 C1025 1.234 . S
C4341 C1437 1.207 . S
C4353 C2081 1.182 . S
C4368 C1809 1.211 . S
C4380 C1525 1.187 . S
C4395 C1897 1.226 . S
C4407 C1604 1.223 . S
C4422 C1993 1.206 . S
C4434 C1692 1.181 . S
C4449 C2757 1.180 . S
C4461 C2132 1.178 . S
C4476 C2257 1.200 . S
C4488 C2521 1.203 . S
C4503 C2345 1.180 . S
C4515 C2581 1.184 . S
C4530 C2425 1.222 . S
C4542 C2669 1.219 . S
