# Generated by pormake.
# Topology unl, (4)-cn, num edge types: 1
# Building blocks:
#     Node 0, Type 0, BuildingBlock: CEKHIL_clean_sbu_0, # of connection points: 4
#     Node 1, Type 0, BuildingBlock: CEKHIL_clean_sbu_0, # of connection points: 4
#     Node 2, Type 0, BuildingBlock: CEKHIL_clean_sbu_0, # of connection points: 4
#     Node 3, Type 0, BuildingBlock: CEKHIL_clean_sbu_0, # of connection points: 4
#     Node 4, Type 0, BuildingBlock: CEKHIL_clean_sbu_0, # of connection points: 4
#     Node 5, Type 0, BuildingBlock: CEKHIL_clean_sbu_0, # of connection points: 4
#     Node 6, Type 0, BuildingBlock: CEKHIL_clean_sbu_0, # of connection points: 4
#     Node 7, Type 0, BuildingBlock: CEKHIL_clean_sbu_0, # of connection points: 4
#     Node 8, Type 0, BuildingBlock: CEKHIL_clean_sbu_0, # of connection points: 4
#     Node 9, Type 0, BuildingBlock: CEKHIL_clean_sbu_0, # of connection points: 4
#     Node 10, Type 0, BuildingBlock: CEKHIL_clean_sbu_0, # of connection points: 4
#     Node 11, Type 0, BuildingBlock: CEKHIL_clean_sbu_0, # of connection points: 4
#     Node 12, Type 0, BuildingBlock: CEKHIL_clean_sbu_0, # of connection points: 4
#     Node 13, Type 0, BuildingBlock: CEKHIL_clean_sbu_0, # of connection points: 4
#     Node 14, Type 0, BuildingBlock: CEKHIL_clean_sbu_0, # of connection points: 4
#     Node 15, Type 0, BuildingBlock: CEKHIL_clean_sbu_0, # of connection points: 4
#     Node 16, Type 0, BuildingBlock: CEKHIL_clean_sbu_0, # of connection points: 4
#     Node 17, Type 0, BuildingBlock: CEKHIL_clean_sbu_0, # of connection points: 4
#     Node 18, Type 0, BuildingBlock: CEKHIL_clean_sbu_0, # of connection points: 4
#     Node 19, Type 0, BuildingBlock: CEKHIL_clean_sbu_0, # of connection points: 4
#     Node 20, Type 0, BuildingBlock: CEKHIL_clean_sbu_0, # of connection points: 4
#     Node 21, Type 0, BuildingBlock: CEKHIL_clean_sbu_0, # of connection points: 4
#     Node 22, Type 0, BuildingBlock: CEKHIL_clean_sbu_0, # of connection points: 4
#     Node 23, Type 0, BuildingBlock: CEKHIL_clean_sbu_0, # of connection points: 4
#     Node 24, Type 0, BuildingBlock: CEKHIL_clean_sbu_0, # of connection points: 4
#     Node 25, Type 0, BuildingBlock: CEKHIL_clean_sbu_0, # of connection points: 4
#     Node 26, Type 0, BuildingBlock: CEKHIL_clean_sbu_0, # of connection points: 4
#     Node 27, Type 0, BuildingBlock: CEKHIL_clean_sbu_0, # of connection points: 4
#     Node 28, Type 0, BuildingBlock: CEKHIL_clean_sbu_0, # of connection points: 4
#     Node 29, Type 0, BuildingBlock: CEKHIL_clean_sbu_0, # of connection points: 4
#     Node 30, Type 0, BuildingBlock: CEKHIL_clean_sbu_0, # of connection points: 4
#     Node 31, Type 0, BuildingBlock: CEKHIL_clean_sbu_0, # of connection points: 4
#     Node 32, Type 0, BuildingBlock: CEKHIL_clean_sbu_0, # of connection points: 4
#     Node 33, Type 0, BuildingBlock: CEKHIL_clean_sbu_0, # of connection points: 4
#     Node 34, Type 0, BuildingBlock: CEKHIL_clean_sbu_0, # of connection points: 4
#     Node 35, Type 0, BuildingBlock: CEKHIL_clean_sbu_0, # of connection points: 4
#     Edge 36, Type (0, 0), BuildingBlock: XIVTED_clean_linker_0, # of connection points: 2
#     Edge 37, Type (0, 0), BuildingBlock: XIVTED_clean_linker_0, # of connection points: 2
#     Edge 38, Type (0, 0), BuildingBlock: XIVTED_clean_linker_0, # of connection points: 2
#     Edge 39, Type (0, 0), BuildingBlock: XIVTED_clean_linker_0, # of connection points: 2
#     Edge 40, Type (0, 0), BuildingBlock: XIVTED_clean_linker_0, # of connection points: 2
#     Edge 41, Type (0, 0), BuildingBlock: XIVTED_clean_linker_0, # of connection points: 2
#     Edge 42, Type (0, 0), BuildingBlock: XIVTED_clean_linker_0, # of connection points: 2
#     Edge 43, Type (0, 0), BuildingBlock: XIVTED_clean_linker_0, # of connection points: 2
#     Edge 44, Type (0, 0), BuildingBlock: XIVTED_clean_linker_0, # of connection points: 2
#     Edge 45, Type (0, 0), BuildingBlock: XIVTED_clean_linker_0, # of connection points: 2
#     Edge 46, Type (0, 0), BuildingBlock: XIVTED_clean_linker_0, # of connection points: 2
#     Edge 47, Type (0, 0), BuildingBlock: XIVTED_clean_linker_0, # of connection points: 2
#     Edge 48, Type (0, 0), BuildingBlock: XIVTED_clean_linker_0, # of connection points: 2
#     Edge 49, Type (0, 0), BuildingBlock: XIVTED_clean_linker_0, # of connection points: 2
#     Edge 50, Type (0, 0), BuildingBlock: XIVTED_clean_linker_0, # of connection points: 2
#     Edge 51, Type (0, 0), BuildingBlock: XIVTED_clean_linker_0, # of connection points: 2
#     Edge 52, Type (0, 0), BuildingBlock: XIVTED_clean_linker_0, # of connection points: 2
#     Edge 53, Type (0, 0), BuildingBlock: XIVTED_clean_linker_0, # of connection points: 2
#     Edge 54, Type (0, 0), BuildingBlock: XIVTED_clean_linker_0, # of connection points: 2
#     Edge 55, Type (0, 0), BuildingBlock: XIVTED_clean_linker_0, # of connection points: 2
#     Edge 56, Type (0, 0), BuildingBlock: XIVTED_clean_linker_0, # of connection points: 2
#     Edge 57, Type (0, 0), BuildingBlock: XIVTED_clean_linker_0, # of connection points: 2
#     Edge 58, Type (0, 0), BuildingBlock: XIVTED_clean_linker_0, # of connection points: 2
#     Edge 59, Type (0, 0), BuildingBlock: XIVTED_clean_linker_0, # of connection points: 2
#     Edge 60, Type (0, 0), BuildingBlock: XIVTED_clean_linker_0, # of connection points: 2
#     Edge 61, Type (0, 0), BuildingBlock: XIVTED_clean_linker_0, # of connection points: 2
#     Edge 62, Type (0, 0), BuildingBlock: XIVTED_clean_linker_0, # of connection points: 2
#     Edge 63, Type (0, 0), BuildingBlock: XIVTED_clean_linker_0, # of connection points: 2
#     Edge 64, Type (0, 0), BuildingBlock: XIVTED_clean_linker_0, # of connection points: 2
#     Edge 65, Type (0, 0), BuildingBlock: XIVTED_clean_linker_0, # of connection points: 2
#     Edge 66, Type (0, 0), BuildingBlock: XIVTED_clean_linker_0, # of connection points: 2
#     Edge 67, Type (0, 0), BuildingBlock: XIVTED_clean_linker_0, # of connection points: 2
#     Edge 68, Type (0, 0), BuildingBlock: XIVTED_clean_linker_0, # of connection points: 2
#     Edge 69, Type (0, 0), BuildingBlock: XIVTED_clean_linker_0, # of connection points: 2
#     Edge 70, Type (0, 0), BuildingBlock: XIVTED_clean_linker_0, # of connection points: 2
#     Edge 71, Type (0, 0), BuildingBlock: XIVTED_clean_linker_0, # of connection points: 2
#     Edge 72, Type (0, 0), BuildingBlock: XIVTED_clean_linker_0, # of connection points: 2
#     Edge 73, Type (0, 0), BuildingBlock: XIVTED_clean_linker_0, # of connection points: 2
#     Edge 74, Type (0, 0), BuildingBlock: XIVTED_clean_linker_0, # of connection points: 2
#     Edge 75, Type (0, 0), BuildingBlock: XIVTED_clean_linker_0, # of connection points: 2
#     Edge 76, Type (0, 0), BuildingBlock: XIVTED_clean_linker_0, # of connection points: 2
#     Edge 77, Type (0, 0), BuildingBlock: XIVTED_clean_linker_0, # of connection points: 2
#     Edge 78, Type (0, 0), BuildingBlock: XIVTED_clean_linker_0, # of connection points: 2
#     Edge 79, Type (0, 0), BuildingBlock: XIVTED_clean_linker_0, # of connection points: 2
#     Edge 80, Type (0, 0), BuildingBlock: XIVTED_clean_linker_0, # of connection points: 2
#     Edge 81, Type (0, 0), BuildingBlock: XIVTED_clean_linker_0, # of connection points: 2
#     Edge 82, Type (0, 0), BuildingBlock: XIVTED_clean_linker_0, # of connection points: 2
#     Edge 83, Type (0, 0), BuildingBlock: XIVTED_clean_linker_0, # of connection points: 2
#     Edge 84, Type (0, 0), BuildingBlock: XIVTED_clean_linker_0, # of connection points: 2
#     Edge 85, Type (0, 0), BuildingBlock: XIVTED_clean_linker_0, # of connection points: 2
#     Edge 86, Type (0, 0), BuildingBlock: XIVTED_clean_linker_0, # of connection points: 2
#     Edge 87, Type (0, 0), BuildingBlock: XIVTED_clean_linker_0, # of connection points: 2
#     Edge 88, Type (0, 0), BuildingBlock: XIVTED_clean_linker_0, # of connection points: 2
#     Edge 89, Type (0, 0), BuildingBlock: XIVTED_clean_linker_0, # of connection points: 2
#     Edge 90, Type (0, 0), BuildingBlock: XIVTED_clean_linker_0, # of connection points: 2
#     Edge 91, Type (0, 0), BuildingBlock: XIVTED_clean_linker_0, # of connection points: 2
#     Edge 92, Type (0, 0), BuildingBlock: XIVTED_clean_linker_0, # of connection points: 2
#     Edge 93, Type (0, 0), BuildingBlock: XIVTED_clean_linker_0, # of connection points: 2
#     Edge 94, Type (0, 0), BuildingBlock: XIVTED_clean_linker_0, # of connection points: 2
#     Edge 95, Type (0, 0), BuildingBlock: XIVTED_clean_linker_0, # of connection points: 2
#     Edge 96, Type (0, 0), BuildingBlock: XIVTED_clean_linker_0, # of connection points: 2
#     Edge 97, Type (0, 0), BuildingBlock: XIVTED_clean_linker_0, # of connection points: 2
#     Edge 98, Type (0, 0), BuildingBlock: XIVTED_clean_linker_0, # of connection points: 2
#     Edge 99, Type (0, 0), BuildingBlock: XIVTED_clean_linker_0, # of connection points: 2
#     Edge 100, Type (0, 0), BuildingBlock: XIVTED_clean_linker_0, # of connection points: 2
#     Edge 101, Type (0, 0), BuildingBlock: XIVTED_clean_linker_0, # of connection points: 2
#     Edge 102, Type (0, 0), BuildingBlock: XIVTED_clean_linker_0, # of connection points: 2
#     Edge 103, Type (0, 0), BuildingBlock: XIVTED_clean_linker_0, # of connection points: 2
#     Edge 104, Type (0, 0), BuildingBlock: XIVTED_clean_linker_0, # of connection points: 2
#     Edge 105, Type (0, 0), BuildingBlock: XIVTED_clean_linker_0, # of connection points: 2
#     Edge 106, Type (0, 0), BuildingBlock: XIVTED_clean_linker_0, # of connection points: 2
#     Edge 107, Type (0, 0), BuildingBlock: XIVTED_clean_linker_0, # of connection points: 2
# Relax obj value: 0.039
# Max RMSD: 0.122
# Mean RMSD: 0.122
data_MOF--net-unl--node1-CEKHIL_clean_sbu_0--edge1-XIVTED_clean_linker_0
_symmetry_space_group_name_H-M    P1
_symmetry_Int_Tables_number       1
_symmetry_cell_setting            triclinic
loop_
_symmetry_equiv_pos_as_xyz
'x, y, z'
_cell_length_a     64.48718
_cell_length_b     64.480041
_cell_length_c     41.106137
_cell_angle_alpha  90.003615
_cell_angle_beta   89.984121
_cell_angle_gamma 120.00543
loop_
_atom_site_label
_atom_site_type_symbol
_atom_site_fract_x
_atom_site_fract_y
_atom_site_fract_z
_atom_type_partial_charge
Co0 Co 0.21268 0.11436 0.11044 0.0
O1 O 0.2343 0.1109 0.13919 0.0
O2 O 0.24276 0.14418 0.11287 0.0
C3 C 0.20114 0.07996 0.08274 0.0
O4 O 0.19553 0.12446 0.07784 0.0
Co5 Co 0.15818 0.07674 0.10908 0.0
O6 O 0.15853 0.09353 0.0685 0.0
C7 C 0.17822 0.11298 0.16193 0.0
C8 C 0.2499 0.13289 0.13196 0.0
C9 C 0.17559 0.11454 0.06211 0.0
O10 O 0.19886 0.12402 0.14789 0.0
O11 O 0.16088 0.09308 0.15161 0.0
O12 O 0.22098 0.09925 0.07527 0.0
O13 O 0.19016 0.08163 0.10793 0.0
Co14 Co 0.89028 0.10095 0.11256 0.0
O15 O 0.8926 0.12541 0.14172 0.0
O16 O 0.86016 0.10072 0.11382 0.0
C17 C 0.92527 0.12443 0.08638 0.0
O18 O 0.88141 0.07433 0.0792 0.0
Co19 Co 0.92837 0.08465 0.11271 0.0
O20 O 0.91296 0.06904 0.07106 0.0
C21 C 0.89083 0.06726 0.1639 0.0
C22 C 0.8707 0.11879 0.13365 0.0
C23 C 0.89204 0.06493 0.06365 0.0
O24 O 0.87994 0.07686 0.14944 0.0
O25 O 0.91106 0.07022 0.15441 0.0
O26 O 0.9061 0.12498 0.07822 0.0
O27 O 0.92311 0.11151 0.11148 0.0
Co28 Co 0.90907 0.79312 0.10925 0.0
O29 O 0.88332 0.77097 0.13688 0.0
O30 O 0.90835 0.76277 0.1107 0.0
C31 C 0.88727 0.80601 0.08164 0.0
O32 O 0.93696 0.81074 0.07762 0.0
Co33 Co 0.92683 0.84785 0.11151 0.0
O34 O 0.94871 0.85006 0.07612 0.0
C35 C 0.93959 0.82522 0.16434 0.0
C36 C 0.88974 0.75542 0.12949 0.0
C37 C 0.95039 0.83213 0.06669 0.0
O38 O 0.93179 0.80573 0.14777 0.0
O39 O 0.93664 0.84261 0.15552 0.0
O40 O 0.88639 0.78613 0.07339 0.0
O41 O 0.89947 0.81611 0.10748 0.0
Co42 Co 0.11455 0.20977 0.38359 0.0
O43 O 0.11127 0.23215 0.35617 0.0
O44 O 0.14432 0.24008 0.38261 0.0
C45 C 0.0798 0.19689 0.41106 0.0
O46 O 0.12429 0.19159 0.415 0.0
Co47 Co 0.077 0.15517 0.37981 0.0
O48 O 0.09616 0.1524 0.4154 0.0
C49 C 0.11382 0.17785 0.32856 0.0
C50 C 0.13322 0.24759 0.36377 0.0
C51 C 0.11585 0.16997 0.42535 0.0
O52 O 0.12494 0.19739 0.34514 0.0
O53 O 0.09333 0.16037 0.33676 0.0
O54 O 0.09883 0.21667 0.41947 0.0
O55 O 0.08186 0.187 0.38496 0.0
Co56 Co 0.79109 0.90423 0.38217 0.0
O57 O 0.76934 0.87983 0.35273 0.0
O58 O 0.76118 0.9044 0.38024 0.0
C59 C 0.80215 0.88055 0.40873 0.0
O60 O 0.80845 0.9308 0.41571 0.0
Co61 Co 0.84543 0.92041 0.38326 0.0
O62 O 0.84502 0.93567 0.42495 0.0
C63 C 0.82584 0.93773 0.33122 0.0
C64 C 0.75389 0.8863 0.3605 0.0
C65 C 0.82823 0.93992 0.43182 0.0
O66 O 0.80526 0.92834 0.3454 0.0
O67 O 0.84298 0.9347 0.34117 0.0
O68 O 0.78243 0.88013 0.41649 0.0
O69 O 0.81328 0.89358 0.38388 0.0
Co70 Co 0.09821 0.88895 0.38681 0.0
O71 O 0.12296 0.89259 0.35735 0.0
O72 O 0.09721 0.85862 0.38148 0.0
C73 C 0.12177 0.92165 0.41701 0.0
O74 O 0.07104 0.87868 0.41963 0.0
Co75 Co 0.08344 0.92792 0.39168 0.0
O76 O 0.06731 0.91061 0.43216 0.0
C77 C 0.06457 0.89242 0.33788 0.0
C78 C 0.11573 0.87015 0.36256 0.0
C79 C 0.06221 0.88904 0.437 0.0
O80 O 0.07493 0.88139 0.34959 0.0
O81 O 0.06725 0.91195 0.34992 0.0
O82 O 0.12122 0.90157 0.42255 0.0
O83 O 0.10989 0.92194 0.39193 0.0
Co84 Co 0.79431 0.89122 0.88491 0.0
O85 O 0.7733 0.89556 0.85592 0.0
O86 O 0.7632 0.86256 0.88403 0.0
C87 C 0.80859 0.92664 0.91089 0.0
O88 O 0.81048 0.88028 0.91809 0.0
Co89 Co 0.84944 0.92511 0.88397 0.0
O90 O 0.84799 0.91038 0.92677 0.0
C91 C 0.82677 0.88545 0.83628 0.0
C92 C 0.75688 0.87407 0.86408 0.0
C93 C 0.83034 0.88994 0.93403 0.0
O94 O 0.80587 0.87877 0.84809 0.0
O95 O 0.84604 0.90361 0.84657 0.0
O96 O 0.78811 0.90843 0.91909 0.0
O97 O 0.81872 0.92352 0.88569 0.0
Co98 Co 0.11885 0.90539 0.88203 0.0
O99 O 0.11633 0.8811 0.85247 0.0
O100 O 0.14952 0.90691 0.87807 0.0
C101 C 0.08561 0.88107 0.91105 0.0
O102 O 0.12804 0.93208 0.91528 0.0
Co103 Co 0.0791 0.9192 0.88591 0.0
O104 O 0.09544 0.9348 0.92714 0.0
C105 C 0.116 0.93985 0.83381 0.0
C106 C 0.13863 0.88843 0.85895 0.0
C107 C 0.11706 0.9403 0.93251 0.0
O108 O 0.1269 0.92923 0.84525 0.0
O109 O 0.09616 0.93667 0.84536 0.0
O110 O 0.10574 0.88189 0.9172 0.0
O111 O 0.08564 0.89314 0.886 0.0
Co112 Co 0.09992 0.21299 0.88443 0.0
O113 O 0.12527 0.23473 0.85598 0.0
O114 O 0.10067 0.24333 0.88258 0.0
C115 C 0.12221 0.20055 0.91176 0.0
O116 O 0.07252 0.1959 0.91686 0.0
Co117 Co 0.08207 0.15824 0.88498 0.0
O118 O 0.06589 0.15865 0.92581 0.0
C119 C 0.06758 0.17948 0.83177 0.0
C120 C 0.1191 0.25045 0.86348 0.0
C121 C 0.06231 0.17591 0.9325 0.0
O122 O 0.0766 0.19977 0.84667 0.0
O123 O 0.06997 0.16197 0.84176 0.0
O124 O 0.12318 0.22052 0.9197 0.0
O125 O 0.10951 0.19002 0.88643 0.0
Co126 Co 0.88537 0.78871 0.60918 0.0
O127 O 0.88856 0.76703 0.63832 0.0
O128 O 0.85628 0.75794 0.60912 0.0
C129 C 0.92118 0.80248 0.58445 0.0
O130 O 0.87555 0.80555 0.57556 0.0
Co131 Co 0.92026 0.84372 0.61054 0.0
O132 O 0.90637 0.84273 0.56723 0.0
C133 C 0.88017 0.82153 0.65772 0.0
C134 C 0.86712 0.75103 0.62936 0.0
C135 C 0.88584 0.82538 0.55957 0.0
O136 O 0.87286 0.80058 0.6456 0.0
O137 O 0.89883 0.84054 0.64788 0.0
O138 O 0.90286 0.78228 0.57558 0.0
O139 O 0.91783 0.81261 0.60943 0.0
Co140 Co 0.21422 0.09975 0.61174 0.0
O141 O 0.23701 0.12627 0.63759 0.0
O142 O 0.24416 0.09959 0.61411 0.0
C143 C 0.20224 0.12097 0.58118 0.0
O144 O 0.19566 0.07085 0.58215 0.0
Co145 Co 0.1601 0.08396 0.61459 0.0
O146 O 0.1568 0.06083 0.58035 0.0
C147 C 0.18181 0.07056 0.66789 0.0
C148 C 0.2521 0.11907 0.63128 0.0
C149 C 0.17411 0.0579 0.57154 0.0
O150 O 0.20146 0.07852 0.6517 0.0
O151 O 0.16443 0.07341 0.65864 0.0
O152 O 0.22165 0.12062 0.57389 0.0
O153 O 0.19208 0.11056 0.60812 0.0
Co154 Co 0.90506 0.11201 0.61265 0.0
O155 O 0.88053 0.10872 0.64238 0.0
O156 O 0.90476 0.14179 0.61523 0.0
C157 C 0.88184 0.07739 0.58556 0.0
O158 O 0.93166 0.1219 0.579 0.0
Co159 Co 0.92219 0.07461 0.61052 0.0
O160 O 0.93738 0.09082 0.56907 0.0
C161 C 0.94 0.11182 0.66225 0.0
C162 C 0.88673 0.13064 0.63502 0.0
C163 C 0.94123 0.11179 0.56265 0.0
O164 O 0.92936 0.12216 0.64916 0.0
O165 O 0.93762 0.09201 0.65181 0.0
O166 O 0.881 0.09656 0.57835 0.0
O167 O 0.89493 0.07926 0.61033 0.0
Co168 Co 0.88068 0.44792 0.44638 0.0
O169 O 0.90264 0.44445 0.47439 0.0
O170 O 0.91022 0.4782 0.45017 0.0
C171 C 0.87047 0.41478 0.4165 0.0
O172 O 0.86308 0.45815 0.41481 0.0
Co173 Co 0.82673 0.40916 0.44373 0.0
O174 O 0.82683 0.42656 0.40385 0.0
C175 C 0.84519 0.44438 0.49791 0.0
C176 C 0.91777 0.46679 0.46834 0.0
C177 C 0.8434 0.44801 0.39851 0.0
O178 O 0.86609 0.45584 0.48467 0.0
O179 O 0.82816 0.42466 0.48659 0.0
O180 O 0.88986 0.43475 0.40989 0.0
O181 O 0.85906 0.41493 0.44218 0.0
Co182 Co 0.55596 0.43245 0.44155 0.0
O183 O 0.56002 0.45851 0.46875 0.0
O184 O 0.52655 0.43357 0.44292 0.0
C185 C 0.59054 0.45344 0.41347 0.0
O186 O 0.54538 0.40425 0.41048 0.0
Co187 Co 0.59228 0.41398 0.44547 0.0
O188 O 0.57255 0.39195 0.41024 0.0
C189 C 0.55677 0.40225 0.49769 0.0
C190 C 0.53803 0.45219 0.46165 0.0
C191 C 0.55316 0.3905 0.40025 0.0
O192 O 0.54549 0.41009 0.48039 0.0
O193 O 0.57706 0.40476 0.48952 0.0
O194 O 0.5717 0.45464 0.40533 0.0
O195 O 0.58847 0.44161 0.43973 0.0
Co196 Co 0.57258 0.12924 0.44743 0.0
O197 O 0.54891 0.10818 0.4783 0.0
O198 O 0.57275 0.09939 0.45009 0.0
C199 C 0.54831 0.13976 0.42137 0.0
O200 O 0.59824 0.1456 0.41252 0.0
Co201 Co 0.58897 0.18357 0.44346 0.0
O202 O 0.60305 0.18188 0.40134 0.0
C203 C 0.60879 0.16571 0.49465 0.0
C204 C 0.55511 0.09252 0.47054 0.0
C205 C 0.60708 0.16484 0.39527 0.0
O206 O 0.59778 0.14432 0.48276 0.0
O207 O 0.60597 0.18276 0.48379 0.0
O208 O 0.54761 0.1198 0.41426 0.0
O209 O 0.56202 0.15152 0.4454 0.0
Co210 Co 0.77933 0.5417 0.71623 0.0
O211 O 0.77674 0.56354 0.68681 0.0
O212 O 0.80948 0.57151 0.71414 0.0
C213 C 0.74465 0.53061 0.74301 0.0
O214 O 0.78854 0.5243 0.74961 0.0
Co215 Co 0.74111 0.48734 0.71751 0.0
O216 O 0.75714 0.48754 0.75877 0.0
C217 C 0.77802 0.50679 0.66547 0.0
C218 C 0.79875 0.57886 0.69436 0.0
C219 C 0.77816 0.50442 0.76552 0.0
O220 O 0.78915 0.52745 0.67944 0.0
O221 O 0.75787 0.48966 0.6755 0.0
O222 O 0.76396 0.55037 0.75068 0.0
O223 O 0.7465 0.51952 0.71808 0.0
Co224 Co 0.46117 0.24092 0.71747 0.0
O225 O 0.44032 0.21779 0.68585 0.0
O226 O 0.43128 0.24101 0.71509 0.0
C227 C 0.4718 0.21631 0.74243 0.0
O228 O 0.47723 0.26597 0.75321 0.0
Co229 Co 0.51555 0.25749 0.72184 0.0
O230 O 0.51339 0.27055 0.76455 0.0
C231 C 0.4981 0.27929 0.67287 0.0
C232 C 0.42458 0.22381 0.69396 0.0
C233 C 0.49632 0.27452 0.77071 0.0
O234 O 0.47632 0.26694 0.68314 0.0
O235 O 0.51528 0.27672 0.68381 0.0
O236 O 0.45172 0.21529 0.74971 0.0
O237 O 0.4836 0.23052 0.71884 0.0
Co238 Co 0.76555 0.21933 0.71895 0.0
O239 O 0.79148 0.22303 0.69188 0.0
O240 O 0.76444 0.18888 0.71432 0.0
C241 C 0.78803 0.25163 0.75043 0.0
O242 O 0.73701 0.20899 0.74933 0.0
Co243 Co 0.75133 0.25883 0.72107 0.0
O244 O 0.73298 0.241 0.76013 0.0
C245 C 0.73604 0.22495 0.6656 0.0
C246 C 0.78381 0.2005 0.69695 0.0
C247 C 0.72753 0.21936 0.76529 0.0
O248 O 0.74417 0.2126 0.67968 0.0
O249 O 0.73902 0.24477 0.67695 0.0
O250 O 0.78694 0.23136 0.75653 0.0
O251 O 0.77733 0.25229 0.72427 0.0
Co252 Co 0.45925 0.22206 0.2158 0.0
O253 O 0.43799 0.22482 0.18561 0.0
O254 O 0.43011 0.19151 0.21137 0.0
C255 C 0.46806 0.25529 0.24462 0.0
O256 O 0.47615 0.21262 0.24967 0.0
Co257 Co 0.51287 0.26138 0.22064 0.0
O258 O 0.51137 0.2451 0.26225 0.0
C259 C 0.49682 0.22473 0.16829 0.0
C260 C 0.42289 0.20251 0.19184 0.0
C261 C 0.49505 0.22352 0.26746 0.0
O262 O 0.47525 0.21393 0.1795 0.0
O263 O 0.51353 0.24446 0.18007 0.0
O264 O 0.44859 0.23524 0.2505 0.0
O265 O 0.48038 0.2552 0.21992 0.0
Co266 Co 0.78078 0.2389 0.21899 0.0
O267 O 0.77852 0.21474 0.18926 0.0
O268 O 0.8107 0.23874 0.21811 0.0
C269 C 0.74543 0.2154 0.24445 0.0
O270 O 0.78968 0.26515 0.25288 0.0
Co271 Co 0.74284 0.25558 0.21813 0.0
O272 O 0.7614 0.27593 0.25531 0.0
C273 C 0.78253 0.27528 0.17006 0.0
C274 C 0.80025 0.22098 0.19778 0.0
C275 C 0.78107 0.27777 0.26474 0.0
O276 O 0.79209 0.26383 0.18305 0.0
O277 O 0.76224 0.27248 0.17889 0.0
O278 O 0.76438 0.21444 0.25262 0.0
O279 O 0.74793 0.22863 0.21958 0.0
Co280 Co 0.76898 0.54616 0.21856 0.0
O281 O 0.79388 0.56816 0.18981 0.0
O282 O 0.76897 0.57617 0.2167 0.0
C283 C 0.79195 0.53444 0.24566 0.0
O284 O 0.74184 0.52848 0.25126 0.0
Co285 Co 0.75251 0.49168 0.21865 0.0
O286 O 0.73646 0.49164 0.25983 0.0
C287 C 0.73593 0.51202 0.16671 0.0
C288 C 0.78724 0.58354 0.19724 0.0
C289 C 0.73223 0.50843 0.26679 0.0
O290 O 0.74539 0.5325 0.18118 0.0
O291 O 0.73871 0.49469 0.17648 0.0
O292 O 0.79253 0.55423 0.25358 0.0
O293 O 0.77934 0.52378 0.22033 0.0
Co294 Co 0.55315 0.12258 0.94354 0.0
O295 O 0.5564 0.10031 0.97128 0.0
O296 O 0.52326 0.09248 0.94516 0.0
C297 C 0.58764 0.13468 0.91575 0.0
O298 O 0.54329 0.14042 0.91177 0.0
Co299 Co 0.59089 0.1771 0.94422 0.0
O300 O 0.5745 0.17747 0.90358 0.0
C301 C 0.55503 0.15586 0.99721 0.0
C302 C 0.53442 0.0849 0.96376 0.0
C303 C 0.55351 0.1606 0.89658 0.0
O304 O 0.54351 0.13577 0.98186 0.0
O305 O 0.57512 0.17325 0.98752 0.0
O306 O 0.56839 0.11497 0.90773 0.0
O307 O 0.58586 0.1451 0.94148 0.0
Co308 Co 0.87889 0.43091 0.94342 0.0
O309 O 0.90143 0.45761 0.96924 0.0
O310 O 0.90961 0.4324 0.94343 0.0
C311 C 0.86427 0.45104 0.91558 0.0
O312 O 0.86063 0.40207 0.91359 0.0
Co313 Co 0.82417 0.41211 0.95025 0.0
O314 O 0.82111 0.38942 0.91551 0.0
C315 C 0.84968 0.40169 0.00133 0.0
C316 C 0.91707 0.4514 0.9615 0.0
C317 C 0.83884 0.38793 0.90467 0.0
O318 O 0.86827 0.40927 0.98298 0.0
O319 O 0.83161 0.40397 0.99414 0.0
O320 O 0.88419 0.4523 0.90664 0.0
O321 O 0.85528 0.43974 0.94245 0.0
Co322 Co 0.57269 0.44749 0.94905 0.0
O323 O 0.54824 0.44436 0.97883 0.0
O324 O 0.57252 0.47734 0.95155 0.0
C325 C 0.54933 0.41279 0.92224 0.0
O326 O 0.59922 0.45731 0.91533 0.0
Co327 Co 0.58971 0.41 0.94679 0.0
O328 O 0.60497 0.42624 0.90538 0.0
C329 C 0.60666 0.4465 -0.00065 0.0
C330 C 0.55455 0.46631 0.97145 0.0
C331 C 0.60877 0.4472 0.89894 0.0
O332 O 0.59693 0.45751 0.9856 0.0
O333 O 0.60394 0.42654 0.98901 0.0
O334 O 0.54854 0.43196 0.91481 0.0
O335 O 0.56253 0.41477 0.9469 0.0
Co336 Co 0.5487 0.78561 0.77179 0.0
O337 O 0.57056 0.78208 0.79984 0.0
O338 O 0.57818 0.81599 0.77613 0.0
C339 C 0.5387 0.75271 0.74149 0.0
O340 O 0.53092 0.79572 0.74028 0.0
Co341 Co 0.49484 0.74652 0.76969 0.0
O342 O 0.4949 0.76366 0.72956 0.0
C343 C 0.51348 0.78106 0.82442 0.0
C344 C 0.58559 0.80453 0.79443 0.0
C345 C 0.51125 0.78517 0.72394 0.0
O346 O 0.53398 0.79313 0.81032 0.0
O347 O 0.49657 0.76116 0.81338 0.0
O348 O 0.55807 0.77276 0.73511 0.0
O349 O 0.52727 0.75264 0.76728 0.0
Co350 Co 0.22619 0.76476 0.78243 0.0
O351 O 0.22954 0.78966 0.81162 0.0
O352 O 0.19652 0.76533 0.78451 0.0
C353 C 0.26093 0.78761 0.75538 0.0
O354 O 0.21609 0.7379 0.74919 0.0
Co355 Co 0.26341 0.74728 0.7816 0.0
O356 O 0.24389 0.72657 0.74524 0.0
C357 C 0.22689 0.73116 0.83384 0.0
C358 C 0.2077 0.78357 0.80393 0.0
C359 C 0.22417 0.72502 0.73673 0.0
O360 O 0.21592 0.74073 0.81946 0.0
O361 O 0.24706 0.73409 0.82414 0.0
O362 O 0.24186 0.78853 0.74781 0.0
O363 O 0.25889 0.77464 0.78035 0.0
Co364 Co 0.23913 0.46031 0.77967 0.0
O365 O 0.21611 0.43923 0.81119 0.0
O366 O 0.23933 0.43044 0.78154 0.0
C367 C 0.21432 0.47089 0.75525 0.0
O368 O 0.26416 0.47677 0.74399 0.0
Co369 Co 0.25531 0.51466 0.77602 0.0
O370 O 0.26897 0.51315 0.73349 0.0
C371 C 0.27721 0.49703 0.82464 0.0
C372 C 0.22217 0.42358 0.80277 0.0
C373 C 0.27295 0.49613 0.72698 0.0
O374 O 0.26511 0.47534 0.81399 0.0
O375 O 0.27439 0.51417 0.81407 0.0
O376 O 0.21346 0.45094 0.74755 0.0
O377 O 0.22854 0.4826 0.77885 0.0
Co378 Co 0.4479 0.87552 0.04715 0.0
O379 O 0.4454 0.89651 0.01602 0.0
O380 O 0.47813 0.90508 0.04379 0.0
C381 C 0.41341 0.86568 0.07368 0.0
O382 O 0.45721 0.8593 0.08225 0.0
Co383 Co 0.40951 0.82142 0.05246 0.0
O384 O 0.42545 0.82347 0.09452 0.0
C385 C 0.44676 0.8382 0.00069 0.0
C386 C 0.4674 0.91201 0.02337 0.0
C387 C 0.4467 0.84036 0.10006 0.0
O388 O 0.45741 0.8598 0.0119 0.0
O389 O 0.42694 0.82145 0.01216 0.0
O390 O 0.43287 0.88559 0.08033 0.0
O391 O 0.415 0.85358 0.04982 0.0
Co392 Co 0.12516 0.57078 0.05371 0.0
O393 O 0.10307 0.54543 0.02577 0.0
O394 O 0.09605 0.57228 0.04904 0.0
C395 C 0.13458 0.54771 0.08458 0.0
O396 O 0.14322 0.59875 0.08499 0.0
Co397 Co 0.17878 0.58477 0.05614 0.0
O398 O 0.1792 0.60264 0.09569 0.0
C399 C 0.16092 0.60168 0.00161 0.0
C400 C 0.08834 0.55326 0.03093 0.0
C401 C 0.16299 0.60802 0.10109 0.0
O402 O 0.14021 0.5929 0.01519 0.0
O403 O 0.17772 0.59859 0.01285 0.0
O404 O 0.11535 0.54873 0.09058 0.0
O405 O 0.14618 0.55876 0.0587 0.0
Co406 Co 0.43274 0.55513 0.05288 0.0
O407 O 0.45814 0.55837 0.02497 0.0
O408 O 0.43346 0.52548 0.05214 0.0
C409 C 0.45496 0.59018 0.0794 0.0
O410 O 0.40519 0.54544 0.08489 0.0
Co411 Co 0.41506 0.59212 0.05055 0.0
O412 O 0.39848 0.57624 0.09154 0.0
C413 C 0.40107 0.55554 -0.00127 0.0
C414 C 0.45189 0.53655 0.03297 0.0
C415 C 0.39486 0.55556 0.09941 0.0
O416 O 0.40968 0.54445 0.0149 0.0
O417 O 0.4035 0.57572 0.00748 0.0
O418 O 0.4558 0.57125 0.0881 0.0
O419 O 0.44245 0.58776 0.05376 0.0
Co420 Co 0.12711 0.55689 0.55301 0.0
O421 O 0.10608 0.55975 0.52244 0.0
O422 O 0.09784 0.52649 0.54864 0.0
C423 C 0.1362 0.5904 0.58138 0.0
O424 O 0.14355 0.54723 0.58725 0.0
Co425 Co 0.18087 0.59575 0.55865 0.0
O426 O 0.17901 0.57923 0.60019 0.0
C427 C 0.16488 0.55874 0.50668 0.0
C428 C 0.09081 0.5375 0.52887 0.0
C429 C 0.16241 0.55774 0.60517 0.0
O430 O 0.14312 0.54833 0.51719 0.0
O431 O 0.18164 0.57835 0.51867 0.0
O432 O 0.11655 0.57051 0.58729 0.0
O433 O 0.14855 0.58998 0.55696 0.0
Co434 Co 0.44818 0.57192 0.55074 0.0
O435 O 0.44399 0.54548 0.52427 0.0
O436 O 0.47739 0.57038 0.55025 0.0
C437 C 0.41334 0.55147 0.57841 0.0
O438 O 0.45887 0.60052 0.58111 0.0
Co439 Co 0.41233 0.59088 0.54508 0.0
O440 O 0.43227 0.61351 0.57966 0.0
C441 C 0.44815 0.60171 0.49362 0.0
C442 C 0.46587 0.55162 0.53177 0.0
C443 C 0.45143 0.61478 0.59028 0.0
O444 O 0.45916 0.59391 0.51155 0.0
O445 O 0.42784 0.59943 0.50116 0.0
O446 O 0.43199 0.55014 0.58719 0.0
O447 O 0.41575 0.56313 0.55187 0.0
Co448 Co 0.43271 0.88216 0.5503 0.0
O449 O 0.45583 0.9033 0.51893 0.0
O450 O 0.43289 0.91223 0.549 0.0
C451 C 0.45725 0.87111 0.5745 0.0
O452 O 0.40772 0.8657 0.586 0.0
Co453 Co 0.41594 0.82767 0.55304 0.0
O454 O 0.40315 0.82938 0.59616 0.0
C455 C 0.39371 0.84586 0.50581 0.0
C456 C 0.45008 0.91909 0.52781 0.0
C457 C 0.39921 0.84638 0.60302 0.0
O458 O 0.4066 0.86759 0.51602 0.0
O459 O 0.39596 0.82837 0.51628 0.0
O460 O 0.45834 0.89113 0.58231 0.0
O461 O 0.44303 0.85961 0.55076 0.0
Co462 Co 0.22263 0.45852 0.28153 0.0
O463 O 0.22663 0.43633 0.3085 0.0
O464 O 0.19311 0.42806 0.28306 0.0
C465 C 0.25698 0.47183 0.25297 0.0
O466 O 0.21205 0.47627 0.25068 0.0
Co467 Co 0.25942 0.51328 0.28488 0.0
O468 O 0.23953 0.51565 0.24995 0.0
C469 C 0.22408 0.49003 0.3375 0.0
C470 C 0.20462 0.42072 0.30137 0.0
C471 C 0.21994 0.49779 0.24032 0.0
O472 O 0.21258 0.47071 0.32057 0.0
O473 O 0.24439 0.50762 0.32898 0.0
O474 O 0.238 0.45185 0.24503 0.0
O475 O 0.25518 0.48168 0.2793 0.0
Co476 Co 0.54402 0.76548 0.27788 0.0
O477 O 0.56485 0.78851 0.30957 0.0
O478 O 0.57403 0.76562 0.27981 0.0
C479 C 0.53314 0.79004 0.25339 0.0
O480 O 0.52795 0.74053 0.24206 0.0
Co481 Co 0.48955 0.74862 0.2739 0.0
O482 O 0.49157 0.73552 0.23115 0.0
C483 C 0.50733 0.72642 0.32184 0.0
C484 C 0.58069 0.78272 0.30109 0.0
C485 C 0.50873 0.73174 0.2248 0.0
O486 O 0.52913 0.73926 0.31191 0.0
O487 O 0.48997 0.72878 0.31107 0.0
O488 O 0.55326 0.79119 0.24592 0.0
O489 O 0.52143 0.77571 0.27693 0.0
Co490 Co 0.23914 0.78417 0.276 0.0
O491 O 0.2134 0.78019 0.30375 0.0
O492 O 0.23748 0.81334 0.27666 0.0
C493 C 0.21782 0.74907 0.24923 0.0
O494 O 0.26684 0.7944 0.24407 0.0
Co495 Co 0.25806 0.74822 0.27947 0.0
O496 O 0.27387 0.76376 0.23795 0.0
C497 C 0.27131 0.78506 0.33059 0.0
C498 C 0.21908 0.80186 0.29577 0.0
C499 C 0.27716 0.78424 0.22963 0.0
O500 O 0.26216 0.7955 0.31407 0.0
O501 O 0.26948 0.76505 0.32231 0.0
O502 O 0.21636 0.76767 0.24064 0.0
O503 O 0.23022 0.75172 0.27511 0.0
H504 H 0.22013 0.07073 0.0285 0.0
H505 H 0.09873 0.9515 0.98503 0.0
H506 H 0.1577 0.0397 0.09041 0.0
H507 H 0.16562 0.97053 0.93753 0.0
H508 H 0.12025 0.98426 0.02339 0.0
H509 H 0.20078 0.03488 0.99399 0.0
C510 C 0.20242 0.05636 0.03488 0.0
C511 C 0.19043 0.05825 0.06222 0.0
C512 C 0.1303 0.98118 0.00478 0.0
C513 C 0.16824 0.01739 0.02295 0.0
C514 C 0.118 0.96248 0.98283 0.0
C515 C 0.13038 0.95836 0.95794 0.0
C516 C 0.15516 0.99616 0.0016 0.0
C517 C 0.15539 0.97306 0.95641 0.0
C518 C 0.19144 0.0359 0.01527 0.0
C519 C 0.16756 0.03909 0.06948 0.0
N520 N 0.16695 0.99153 0.97771 0.0
N521 N 0.15716 0.01957 0.04984 0.0
H522 H 0.96499 0.12045 0.09504 0.0
H523 H 0.03541 0.19787 0.93922 0.0
H524 H 0.93543 0.15251 0.03171 0.0
H525 H 0.04826 0.14459 0.98334 0.0
H526 H 0.00308 0.18778 0.97862 0.0
H527 H 1.00002 0.13566 0.05988 0.0
C528 C 0.9659 0.13079 0.07379 0.0
C529 C 0.94713 0.135 0.0661 0.0
C530 C 0.01313 0.17846 0.97972 0.0
C531 C 0.98737 0.15264 0.02581 0.0
C532 C 0.03165 0.1843 0.95744 0.0
C533 C 0.04444 0.17194 0.95791 0.0
C534 C 0.00768 0.16045 0.00289 0.0
C535 C 0.03873 0.15441 0.9819 0.0
C536 C 0.98592 0.13945 0.0537 0.0
C537 C 0.94944 0.14872 0.03837 0.0
N538 N 0.0208 0.14921 0.0034 0.0
N539 N 0.96921 0.15704 0.01912 0.0
H540 H 0.80928 0.84109 0.93994 0.0
H541 H 0.89123 0.8496 0.09123 0.0
H542 H 0.86074 0.90734 0.98569 0.0
H543 H 0.85824 0.78804 0.02784 0.0
H544 H 0.87414 0.86878 0.05836 0.0
H545 H 0.82079 0.81919 0.97799 0.0
C546 C 0.82265 0.85097 0.95836 0.0
C547 C 0.83418 0.87608 0.95958 0.0
C548 C 0.87057 0.85105 0.05164 0.0
C549 C 0.84741 0.85124 0.00288 0.0
C550 C 0.88033 0.84007 0.0704 0.0
C551 C 0.87633 0.81726 0.06207 0.0
C552 C 0.85652 0.83913 0.02441 0.0
C553 C 0.8619 0.80572 0.03494 0.0
C554 C 0.82934 0.8385 0.97982 0.0
C555 C 0.85153 0.88801 0.98372 0.0
N556 N 0.85252 0.81681 0.01699 0.0
N557 N 0.85764 0.8755 0.00433 0.0
H558 H 0.96863 0.16062 0.55605 0.0
H559 H 0.04047 0.15285 0.40228 0.0
H560 H 0.9547 0.09426 0.51144 0.0
H561 H 0.06909 0.21458 0.46534 0.0
H562 H 0.0049 0.13309 0.43656 0.0
H563 H 1.00136 0.18257 0.51714 0.0
C564 C 0.97221 0.1507 0.53779 0.0
C565 C 0.95902 0.12556 0.5371 0.0
C566 C 0.01892 0.15098 0.44288 0.0
C567 C 0.99631 0.15051 0.49271 0.0
C568 C 0.03925 0.1623 0.4233 0.0
C569 C 0.05787 0.18532 0.43115 0.0
C570 C 0.01704 0.16282 0.47039 0.0
C571 C 0.0552 0.19675 0.45858 0.0
C572 C 0.99098 0.16322 0.51579 0.0
C573 C 0.96453 0.11362 0.51305 0.0
N574 N 0.03514 0.18536 0.47729 0.0
N575 N 0.98275 0.12618 0.49188 0.0
H576 H 0.78287 0.85158 0.46226 0.0
H577 H 0.90453 0.85555 0.5078 0.0
H578 H 0.84555 0.88365 0.40082 0.0
H579 H 0.83722 0.80512 0.55217 0.0
H580 H 0.88301 0.86633 0.46879 0.0
H581 H 0.80211 0.83475 0.49638 0.0
C582 C 0.8006 0.85498 0.45588 0.0
C583 C 0.81271 0.86918 0.42883 0.0
C584 C 0.87287 0.8527 0.4868 0.0
C585 C 0.83477 0.85014 0.46767 0.0
C586 C 0.88517 0.84656 0.50909 0.0
C587 C 0.87265 0.82948 0.53332 0.0
C588 C 0.84787 0.84205 0.48904 0.0
C589 C 0.84755 0.81831 0.53378 0.0
C590 C 0.81152 0.84531 0.47526 0.0
C591 C 0.8356 0.87295 0.42155 0.0
N592 N 0.83597 0.82504 0.51224 0.0
N593 N 0.84595 0.86367 0.441 0.0
H594 H 0.12338 0.91911 0.48303 0.0
H595 H 0.19983 0.058 0.51846 0.0
H596 H 0.14338 0.96936 0.40377 0.0
H597 H 0.13619 0.01272 0.57403 0.0
H598 H 0.18899 0.02453 0.48034 0.0
H599 H 0.13803 0.95265 0.52168 0.0
C600 C 0.13122 0.93724 0.47382 0.0
C601 C 0.13221 0.94163 0.44031 0.0
C602 C 0.17758 0.02204 0.50105 0.0
C603 C 0.14928 0.97972 0.48402 0.0
C604 C 0.18375 0.04097 0.52273 0.0
C605 C 0.16874 0.03802 0.54914 0.0
C606 C 0.15677 0.99995 0.50665 0.0
C607 C 0.14806 0.01569 0.55373 0.0
C608 C 0.13942 0.95624 0.49579 0.0
C609 C 0.14226 0.96536 0.42951 0.0
N610 N 0.14276 0.99739 0.53282 0.0
N611 N 0.1506 0.98363 0.45134 0.0
H612 H 0.84351 0.03885 0.05315 0.0
H613 H 0.85442 0.96402 0.90524 0.0
H614 H 0.91088 0.05023 0.01533 0.0
H615 H 0.78982 0.93947 0.96158 0.0
H616 H 0.87427 0.99963 0.9397 0.0
H617 H 0.82246 0.00643 0.01364 0.0
C618 C 0.85388 0.03477 0.03628 0.0
C619 C 0.879 0.04716 0.03772 0.0
C620 C 0.85573 0.98649 0.94445 0.0
C621 C 0.85505 0.01015 0.99258 0.0
C622 C 0.84437 0.96618 0.92477 0.0
C623 C 0.82048 0.94869 0.93072 0.0
C624 C 0.84305 0.98947 0.97009 0.0
C625 C 0.80832 0.95246 0.9563 0.0
C626 C 0.84185 0.01617 0.0139 0.0
C627 C 0.8915 0.04101 0.01533 0.0
N628 N 0.81974 0.97244 0.97508 0.0
N629 N 0.87941 0.02293 0.99376 0.0
H630 H 0.94811 0.80698 0.01165 0.0
H631 H 0.08752 0.87723 0.97686 0.0
H632 H 0.99662 0.86765 0.06991 0.0
H633 H 0.03802 0.86171 0.89766 0.0
H634 H 0.05401 0.86309 0.01537 0.0
H635 H 0.98104 0.81668 0.97293 0.0
C636 C 0.96571 0.82216 0.01636 0.0
C637 C 0.96976 0.83669 0.04372 0.0
C638 C 0.05055 0.86255 0.98951 0.0
C639 C 0.00719 0.84732 0.00055 0.0
C640 C 0.06955 0.87046 0.96759 0.0
C641 C 0.06543 0.87064 0.93414 0.0
C642 C 0.02726 0.85415 0.97777 0.0
C643 C 0.04186 0.86193 0.92334 0.0
C644 C 0.98435 0.82769 0.99434 0.0
C645 C 0.99281 0.85619 0.04887 0.0
N646 N 0.02355 0.85388 0.94513 0.0
N647 N 0.01075 0.86084 0.02762 0.0
H648 H 0.11744 0.15655 0.90313 0.0
H649 H 0.19706 0.16345 0.0562 0.0
H650 H 0.15068 0.21829 0.96618 0.0
H651 H 0.14395 0.09742 0.01163 0.0
H652 H 0.18619 0.18574 0.01797 0.0
H653 H 0.13297 0.13665 0.93745 0.0
C654 C 0.12808 0.16598 0.92418 0.0
C655 C 0.13258 0.18905 0.93198 0.0
C656 C 0.17708 0.16638 0.01651 0.0
C657 C 0.15061 0.16633 0.97134 0.0
C658 C 0.18338 0.15367 0.03811 0.0
C659 C 0.1713 0.12852 0.03718 0.0
C660 C 0.15888 0.15385 0.99357 0.0
C661 C 0.1536 0.11677 0.0134 0.0
C662 C 0.13693 0.15457 0.94379 0.0
C663 C 0.14666 0.20043 0.95944 0.0
N664 N 0.14793 0.12952 0.99259 0.0
N665 N 0.15519 0.18893 0.97822 0.0
H666 H 0.95962 0.84719 0.5935 0.0
H667 H 0.03413 0.84015 0.44223 0.0
H668 H 0.93379 0.78485 0.53203 0.0
H669 H 0.0484 0.90613 0.48842 0.0
H670 H 1.00098 0.81797 0.48038 0.0
H671 H 0.9958 0.86739 0.56033 0.0
C672 C 0.9616 0.8377 0.57309 0.0
C673 C 0.94359 0.81437 0.56535 0.0
C674 C 0.01151 0.83729 0.48224 0.0
C675 C 0.98506 0.83737 0.52734 0.0
C676 C 0.03052 0.84994 0.46064 0.0
C677 C 0.04394 0.87505 0.46197 0.0
C678 C 0.0061 0.84983 0.50554 0.0
C679 C 0.03838 0.88681 0.48626 0.0
C680 C 0.98227 0.84926 0.55414 0.0
C681 C 0.94719 0.80291 0.53871 0.0
N682 N 0.01988 0.87411 0.50699 0.0
N683 N 0.96751 0.81454 0.52059 0.0
H684 H 0.1253 0.1337 0.42067 0.0
H685 H 0.17361 0.1396 0.59631 0.0
H686 H 0.13887 0.19383 0.48116 0.0
H687 H 0.20576 0.12376 0.5151 0.0
H688 H 0.15436 0.15412 0.558 0.0
H689 H 0.1484 0.12377 0.45855 0.0
C690 C 0.13314 0.14477 0.44202 0.0
C691 C 0.13024 0.16457 0.44796 0.0
C692 C 0.1658 0.14763 0.54874 0.0
C693 C 0.15613 0.15305 0.49147 0.0
C694 C 0.17663 0.13925 0.57044 0.0
C695 C 0.19126 0.13054 0.55873 0.0
C696 C 0.16905 0.1465 0.51519 0.0
C697 C 0.19469 0.13047 0.52505 0.0
C698 C 0.14637 0.13918 0.46342 0.0
C699 C 0.14084 0.17847 0.4758 0.0
N700 N 0.18334 0.13798 0.50438 0.0
N701 N 0.15307 0.17222 0.49693 0.0
H702 H 0.85282 0.0679 0.53219 0.0
H703 H 0.85898 0.95179 0.48301 0.0
H704 H 0.88611 0.03762 0.59181 0.0
H705 H 0.80812 0.96845 0.43955 0.0
H706 H 0.86965 0.98385 0.52239 0.0
H707 H 0.83679 0.03247 0.49693 0.0
C708 C 0.85666 0.05377 0.53794 0.0
C709 C 0.87095 0.05578 0.56483 0.0
C710 C 0.85598 0.98039 0.50446 0.0
C711 C 0.85284 0.01539 0.52466 0.0
C712 C 0.84991 0.9621 0.48192 0.0
C713 C 0.83271 0.95751 0.45787 0.0
C714 C 0.84509 0.99454 0.5027 0.0
C715 C 0.82144 0.97135 0.45776 0.0
C716 C 0.84745 0.03355 0.5179 0.0
C717 C 0.8753 0.03692 0.57125 0.0
N718 N 0.82804 0.98947 0.47959 0.0
N719 N 0.86646 0.01764 0.55117 0.0
H720 H 0.80517 0.27607 0.31889 0.0
H721 H 0.87439 0.41581 0.3504 0.0
H722 H 0.79041 0.3235 0.26222 0.0
H723 H 0.84292 0.36746 0.43143 0.0
H724 H 0.85396 0.38167 0.31301 0.0
H725 H 0.82918 0.30948 0.35664 0.0
C726 C 0.8071 0.29351 0.3144 0.0
C727 C 0.79568 0.29712 0.28778 0.0
C728 C 0.85183 0.37861 0.33902 0.0
C729 C 0.82345 0.33509 0.32966 0.0
C730 C 0.86351 0.39796 0.36027 0.0
C731 C 0.8602 0.39433 0.39391 0.0
C732 C 0.83736 0.3555 0.35161 0.0
C733 C 0.84576 0.37091 0.40556 0.0
C734 C 0.82068 0.31242 0.33582 0.0
C735 C 0.79871 0.31999 0.28278 0.0
N736 N 0.83491 0.35227 0.38441 0.0
N737 N 0.81251 0.3382 0.30335 0.0
H738 H 0.60149 0.48255 0.36 0.0
H739 H 0.71884 0.47676 0.31716 0.0
H740 H 0.62952 0.44795 0.42127 0.0
H741 H 0.70362 0.52852 0.27334 0.0
H742 H 0.6855 0.46529 0.35464 0.0
H743 H 0.63783 0.49868 0.32657 0.0
C744 C 0.6153 0.47838 0.36644 0.0
C745 C 0.61245 0.46379 0.39334 0.0
C746 C 0.68957 0.47933 0.33706 0.0
C747 C 0.6539 0.48208 0.35526 0.0
C748 C 0.70859 0.48587 0.31561 0.0
C749 C 0.71396 0.50356 0.292 0.0
C750 C 0.67547 0.49024 0.33459 0.0
C751 C 0.70015 0.51485 0.29125 0.0
C752 C 0.63605 0.48768 0.34746 0.0
C753 C 0.63092 0.45905 0.40069 0.0
N754 N 0.68132 0.50778 0.31197 0.0
N755 N 0.65076 0.46801 0.38163 0.0
H756 H 0.51975 0.12018 0.36756 0.0
H757 H 0.52366 0.24185 0.32081 0.0
H758 H 0.5511 0.18306 0.4286 0.0
H759 H 0.47617 0.17491 0.27314 0.0
H760 H 0.53383 0.22024 0.36045 0.0
H761 H 0.50349 0.13937 0.33232 0.0
C762 C 0.52308 0.13793 0.37364 0.0
C763 C 0.53696 0.15013 0.40087 0.0
C764 C 0.521 0.2102 0.34153 0.0
C765 C 0.5186 0.17216 0.36074 0.0
C766 C 0.51523 0.22255 0.31883 0.0
C767 C 0.49917 0.21018 0.29351 0.0
C768 C 0.51095 0.18529 0.33868 0.0
C769 C 0.48863 0.18514 0.29231 0.0
C770 C 0.51377 0.14884 0.3536 0.0
C771 C 0.54066 0.17305 0.40773 0.0
N772 N 0.49494 0.17352 0.31436 0.0
N773 N 0.53173 0.18338 0.38767 0.0
H774 H 0.63624 0.49601 0.89206 0.0
H775 H 0.70449 0.48719 0.73489 0.0
H776 H 0.62146 0.42947 0.84719 0.0
H777 H 0.73522 0.54914 0.79769 0.0
H778 H 0.66961 0.468 0.77038 0.0
H779 H 0.66823 0.51781 0.85206 0.0
C780 C 0.63948 0.48602 0.87355 0.0
C781 C 0.62627 0.46087 0.87306 0.0
C782 C 0.68393 0.48583 0.77638 0.0
C783 C 0.66266 0.48564 0.8274 0.0
C784 C 0.70387 0.49683 0.7561 0.0
C785 C 0.72293 0.51972 0.76354 0.0
C786 C 0.68286 0.49782 0.80424 0.0
C787 C 0.72099 0.5314 0.79122 0.0
C788 C 0.65783 0.49846 0.85092 0.0
C789 C 0.63133 0.44883 0.84866 0.0
N790 N 0.7013 0.52028 0.81068 0.0
N791 N 0.64911 0.46131 0.82686 0.0
H792 H 0.51558 0.22026 0.73516 0.0
H793 H 0.50474 0.13931 0.88873 0.0
H794 H 0.4523 0.1866 0.79541 0.0
H795 H 0.57179 0.19274 0.84679 0.0
H796 H 0.48337 0.15038 0.84916 0.0
H797 H 0.53439 0.20404 0.77035 0.0
C798 C 0.50556 0.20935 0.75574 0.0
C799 C 0.48241 0.20499 0.76256 0.0
C800 C 0.50275 0.15952 0.84859 0.0
C801 C 0.5039 0.18621 0.80294 0.0
C802 C 0.51494 0.15314 0.87098 0.0
C803 C 0.54009 0.16524 0.87117 0.0
C804 C 0.51583 0.17783 0.82598 0.0
C805 C 0.55241 0.18309 0.84774 0.0
C806 C 0.51636 0.20011 0.77585 0.0
C807 C 0.47025 0.19052 0.78942 0.0
N808 N 0.54017 0.18883 0.82614 0.0
N809 N 0.48118 0.18167 0.80875 0.0
H810 H 0.86361 0.38902 0.84987 0.0
H811 H 0.78985 0.24936 0.81654 0.0
H812 H 0.80245 0.34203 0.90855 0.0
H813 H 0.8089 0.29926 0.73699 0.0
H814 H 0.80421 0.28299 0.85497 0.0
H815 H 0.85317 0.35559 0.81185 0.0
C816 C 0.84815 0.37164 0.85482 0.0
C817 C 0.83371 0.3682 0.88209 0.0
C818 C 0.80543 0.28649 0.82906 0.0
C819 C 0.82221 0.33018 0.83967 0.0
C820 C 0.79738 0.26743 0.80722 0.0
C821 C 0.79818 0.27167 0.77368 0.0
C822 C 0.81492 0.3099 0.81716 0.0
C823 C 0.8079 0.29534 0.76274 0.0
C824 C 0.8422 0.35272 0.8332 0.0
C825 C 0.81385 0.34541 0.88755 0.0
N826 N 0.81606 0.31368 0.78446 0.0
N827 N 0.80877 0.32717 0.86665 0.0
H828 H 0.53121 0.39296 0.34442 0.0
H829 H 0.46141 0.25344 0.31023 0.0
H830 H 0.54176 0.3441 0.40431 0.0
H831 H 0.49672 0.30281 0.23127 0.0
H832 H 0.48042 0.28696 0.34876 0.0
H833 H 0.50821 0.36001 0.30565 0.0
C834 C 0.52847 0.37527 0.34948 0.0
C835 C 0.53844 0.37112 0.37731 0.0
C836 C 0.48371 0.2904 0.32294 0.0
C837 C 0.51191 0.3337 0.33408 0.0
C838 C 0.47283 0.27139 0.30101 0.0
C839 C 0.47761 0.27548 0.26764 0.0
C840 C 0.49887 0.31364 0.31126 0.0
C841 C 0.49273 0.29901 0.2569 0.0
C842 C 0.5155 0.35663 0.32744 0.0
C843 C 0.5345 0.34798 0.3829 0.0
N844 N 0.50278 0.31733 0.27867 0.0
N845 N 0.52136 0.33005 0.3616 0.0
H846 H 0.73471 0.18634 0.29802 0.0
H847 H 0.61931 0.19483 0.34301 0.0
H848 H 0.70592 0.21989 0.23609 0.0
H849 H 0.63469 0.14369 0.38853 0.0
H850 H 0.65135 0.20444 0.30393 0.0
H851 H 0.69876 0.17076 0.33216 0.0
C852 C 0.72079 0.19032 0.29152 0.0
C853 C 0.72339 0.20459 0.26435 0.0
C854 C 0.64758 0.19093 0.32223 0.0
C855 C 0.68241 0.187 0.30326 0.0
C856 C 0.6293 0.18545 0.34459 0.0
C857 C 0.6244 0.16852 0.36917 0.0
C858 C 0.66139 0.17971 0.32473 0.0
C859 C 0.63784 0.15683 0.36992 0.0
C860 C 0.70027 0.18137 0.31093 0.0
C861 C 0.70477 0.20911 0.25694 0.0
N862 N 0.65596 0.16288 0.34828 0.0
N863 N 0.68521 0.20054 0.27644 0.0
H864 H 0.86419 0.49692 0.39366 0.0
H865 H 0.78797 0.49077 0.23701 0.0
H866 H 0.81225 0.43108 0.34743 0.0
H867 H 0.81923 0.55197 0.30114 0.0
H868 H 0.80277 0.47074 0.27239 0.0
H869 H 0.85378 0.51932 0.35501 0.0
C870 C 0.85081 0.4872 0.37518 0.0
C871 C 0.83897 0.46207 0.37385 0.0
C872 C 0.80646 0.48857 0.27873 0.0
C873 C 0.82712 0.48755 0.3297 0.0
C874 C 0.79804 0.50006 0.25851 0.0
C875 C 0.80217 0.52301 0.2663 0.0
C876 C 0.81934 0.50013 0.30689 0.0
C877 C 0.81552 0.53421 0.29436 0.0
C878 C 0.8448 0.49999 0.35332 0.0
C879 C 0.8217 0.45041 0.34954 0.0
N880 N 0.82363 0.52264 0.31374 0.0
N881 N 0.81632 0.46323 0.32845 0.0
H882 H 0.62741 0.17833 0.92433 0.0
H883 H 0.69829 0.17051 0.76954 0.0
H884 H 0.59746 0.11689 0.86062 0.0
H885 H 0.71342 0.23667 0.81598 0.0
H886 H 0.66482 0.14859 0.80749 0.0
H887 H 0.66262 0.19789 0.8895 0.0
C888 C 0.62825 0.1689 0.90302 0.0
C889 C 0.60936 0.14601 0.89521 0.0
C890 C 0.67559 0.16789 0.80937 0.0
C891 C 0.64982 0.16833 0.85525 0.0
C892 C 0.69475 0.18039 0.78791 0.0
C893 C 0.70858 0.20548 0.78949 0.0
C894 C 0.67051 0.18057 0.83284 0.0
C895 C 0.70312 0.21737 0.81366 0.0
C896 C 0.64838 0.18011 0.88311 0.0
C897 C 0.61157 0.13462 0.86739 0.0
N898 N 0.68456 0.20482 0.83434 0.0
N899 N 0.63147 0.14592 0.84834 0.0
H900 H 0.81923 0.44411 0.92382 0.0
H901 H 0.82688 0.52645 0.77351 0.0
H902 H 0.88154 0.48021 0.86218 0.0
H903 H 0.76027 0.47184 0.81506 0.0
H904 H 0.84868 0.5153 0.81203 0.0
H905 H 0.79884 0.45952 0.88986 0.0
C906 C 0.82866 0.45535 0.90319 0.0
C907 C 0.85205 0.46076 0.89565 0.0
C908 C 0.8293 0.50591 0.81279 0.0
C909 C 0.82889 0.47862 0.85689 0.0
C910 C 0.81685 0.51236 0.79101 0.0
C911 C 0.79171 0.49994 0.79093 0.0
C912 C 0.8165 0.48714 0.83491 0.0
C913 C 0.77964 0.48174 0.81405 0.0
C914 C 0.817 0.46411 0.88381 0.0
C915 C 0.86343 0.47548 0.86869 0.0
N916 N 0.79215 0.47588 0.83505 0.0
N917 N 0.85174 0.48393 0.85026 0.0
H918 H 0.5207 0.40311 0.86829 0.0
H919 H 0.52525 0.28538 0.82386 0.0
H920 H 0.55265 0.37264 0.93018 0.0
H921 H 0.47633 0.3032 0.77693 0.0
H922 H 0.53546 0.31752 0.86296 0.0
H923 H 0.50436 0.36717 0.83395 0.0
C924 C 0.52417 0.38883 0.87473 0.0
C925 C 0.53821 0.39093 0.90197 0.0
C926 C 0.52228 0.31427 0.84435 0.0
C927 C 0.51971 0.34997 0.86288 0.0
C928 C 0.51646 0.29591 0.82201 0.0
C929 C 0.5 0.29167 0.79702 0.0
C930 C 0.5119 0.32884 0.84143 0.0
C931 C 0.48906 0.30582 0.79589 0.0
C932 C 0.51479 0.36832 0.85521 0.0
C933 C 0.54208 0.37188 0.90929 0.0
N934 N 0.49546 0.32401 0.81752 0.0
N935 N 0.53306 0.35232 0.88974 0.0
H936 H 0.47348 0.6133 0.64658 0.0
H937 H 0.54402 0.75371 0.67555 0.0
H938 H 0.46332 0.66122 0.58415 0.0
H939 H 0.51042 0.70542 0.75609 0.0
H940 H 0.52445 0.71957 0.63799 0.0
H941 H 0.497 0.64703 0.684 0.0
C942 C 0.47641 0.63094 0.64069 0.0
C943 C 0.46638 0.63459 0.61255 0.0
C944 C 0.52163 0.71652 0.66394 0.0
C945 C 0.49352 0.67291 0.65426 0.0
C946 C 0.53282 0.73588 0.6853 0.0
C947 C 0.5287 0.73227 0.71884 0.0
C948 C 0.50681 0.69342 0.67636 0.0
C949 C 0.51389 0.70888 0.73031 0.0
C950 C 0.48968 0.65004 0.66196 0.0
C951 C 0.47058 0.65771 0.60585 0.0
N952 N 0.50353 0.69023 0.70909 0.0
N953 N 0.48401 0.67608 0.62644 0.0
H954 H 0.3711 0.86686 0.61105 0.0
H955 H 0.30092 0.78398 0.7633 0.0
H956 H 0.38778 0.81609 0.65478 0.0
H957 H 0.27131 0.81744 0.70269 0.0
H958 H 0.33679 0.80161 0.7295 0.0
H959 H 0.33863 0.85513 0.65065 0.0
C960 C 0.36823 0.85358 0.62932 0.0
C961 C 0.38205 0.8423 0.62949 0.0
C962 C 0.32249 0.80518 0.72363 0.0
C963 C 0.345 0.8288 0.67461 0.0
C964 C 0.30198 0.79511 0.74291 0.0
C965 C 0.283 0.79906 0.73559 0.0
C966 C 0.32417 0.81946 0.69689 0.0
C967 C 0.28548 0.81379 0.70901 0.0
C968 C 0.34959 0.84677 0.65171 0.0
C969 C 0.37743 0.82508 0.65356 0.0
N970 N 0.3057 0.82345 0.69052 0.0
N971 N 0.35926 0.81882 0.67505 0.0
H972 H 0.19109 0.57511 0.65866 0.0
H973 H 0.18559 0.45216 0.70132 0.0
H974 H 0.14266 0.509 0.60991 0.0
H975 H 0.21702 0.51396 0.76436 0.0
H976 H 0.16952 0.47209 0.66715 0.0
H977 H 0.20073 0.55262 0.69753 0.0
C978 C 0.18233 0.55581 0.6563 0.0
C979 C 0.16616 0.54393 0.6309 0.0
C980 C 0.17976 0.48115 0.68865 0.0
C981 C 0.17734 0.51804 0.67514 0.0
C982 C 0.18896 0.46981 0.70809 0.0
C983 C 0.20285 0.48152 0.73553 0.0
C984 C 0.18472 0.50439 0.69662 0.0
C985 C 0.2066 0.50434 0.74328 0.0
C986 C 0.1878 0.54296 0.67855 0.0
C987 C 0.15521 0.51887 0.62917 0.0
N988 N 0.19779 0.51509 0.72378 0.0
N989 N 0.16124 0.50675 0.65075 0.0
H990 H 0.40473 0.88623 0.12679 0.0
H991 H 0.2895 0.76483 0.17975 0.0
H992 H 0.37302 0.82215 0.06808 0.0
H993 H 0.30501 0.83284 0.22029 0.0
H994 H 0.3212 0.78582 0.13982 0.0
H995 H 0.36955 0.8675 0.16271 0.0
C996 C 0.39034 0.86832 0.12136 0.0
C997 C 0.39188 0.85565 0.09459 0.0
C998 C 0.31757 0.79622 0.15722 0.0
C999 C 0.35187 0.83417 0.1355 0.0
C1000 C 0.2995 0.78423 0.18009 0.0
C1001 C 0.29468 0.79711 0.20345 0.0
C1002 C 0.3313 0.82132 0.15796 0.0
C1003 C 0.30811 0.82224 0.20261 0.0
C1004 C 0.37027 0.85769 0.14178 0.0
C1005 C 0.37271 0.83254 0.08857 0.0
N1006 N 0.32607 0.83356 0.18047 0.0
N1007 N 0.35364 0.82249 0.10901 0.0
H1008 H 0.12951 0.54501 0.15055 0.0
H1009 H 0.19678 0.47282 0.18536 0.0
H1010 H 0.16213 0.52758 0.07153 0.0
H1011 H 0.20965 0.53361 0.2439 0.0
H1012 H 0.17382 0.48293 0.14681 0.0
H1013 H 0.14862 0.53071 0.18927 0.0
C1014 C 0.14039 0.53784 0.14138 0.0
C1015 C 0.14437 0.53749 0.10792 0.0
C1016 C 0.1816 0.49388 0.16826 0.0
C1017 C 0.16572 0.52081 0.15176 0.0
C1018 C 0.19455 0.48811 0.19018 0.0
C1019 C 0.20518 0.50255 0.21756 0.0
C1020 C 0.17869 0.51368 0.17455 0.0
C1021 C 0.20189 0.52221 0.22284 0.0
C1022 C 0.15132 0.52982 0.16341 0.0
C1023 C 0.15878 0.52822 0.09722 0.0
N1024 N 0.18876 0.5271 0.20166 0.0
N1025 N 0.16888 0.52008 0.11911 0.0
H1026 H 0.47896 0.71956 0.17231 0.0
H1027 H 0.4839 0.60138 0.13315 0.0
H1028 H 0.52925 0.70354 0.21904 0.0
H1029 H 0.45078 0.62972 0.06964 0.0
H1030 H 0.50038 0.63816 0.16568 0.0
H1031 H 0.46835 0.68653 0.13456 0.0
C1032 C 0.48798 0.70926 0.17436 0.0
C1033 C 0.50494 0.71425 0.19893 0.0
C1034 C 0.48965 0.63636 0.14447 0.0
C1035 C 0.49255 0.67608 0.15616 0.0
C1036 C 0.48017 0.61535 0.126 0.0
C1037 C 0.46582 0.61244 0.0988 0.0
C1038 C 0.48449 0.65439 0.13582 0.0
C1039 C 0.46163 0.63114 0.09052 0.0
C1040 C 0.48192 0.69039 0.15281 0.0
C1041 C 0.51614 0.70036 0.20038 0.0
N1042 N 0.47075 0.65121 0.10909 0.0
N1043 N 0.5095 0.68167 0.17957 0.0
H1044 H 0.12817 0.58927 0.64666 0.0
H1045 H 0.20528 0.72913 0.67898 0.0
H1046 H 0.16671 0.63755 0.56791 0.0
H1047 H 0.20891 0.67785 0.74247 0.0
H1048 H 0.18139 0.69647 0.64018 0.0
H1049 H 0.14781 0.62285 0.685 0.0
C1050 C 0.14044 0.60701 0.63742 0.0
C1051 C 0.14595 0.61074 0.60419 0.0
C1052 C 0.18735 0.69249 0.66276 0.0
C1053 C 0.168 0.64899 0.64759 0.0
C1054 C 0.20083 0.71098 0.68478 0.0
C1055 C 0.20908 0.706 0.71362 0.0
C1056 C 0.18155 0.66896 0.6704 0.0
C1057 C 0.20298 0.6823 0.72025 0.0
C1058 C 0.15168 0.62605 0.65925 0.0
C1059 C 0.16213 0.63401 0.59344 0.0
N1060 N 0.1894 0.66458 0.6989 0.0
N1061 N 0.17257 0.65236 0.6151 0.0
H1062 H 0.29998 0.47443 0.71929 0.0
H1063 H 0.37483 0.55761 0.56957 0.0
H1064 H 0.28648 0.52759 0.67614 0.0
H1065 H 0.40127 0.5219 0.6315 0.0
H1066 H 0.33854 0.54129 0.60264 0.0
H1067 H 0.33305 0.48583 0.6809 0.0
C1068 C 0.30368 0.4882 0.7014 0.0
C1069 C 0.29054 0.5002 0.70107 0.0
C1070 C 0.35225 0.53697 0.60895 0.0
C1071 C 0.32835 0.51335 0.65729 0.0
C1072 C 0.37297 0.54628 0.59009 0.0
C1073 C 0.39117 0.54125 0.59797 0.0
C1074 C 0.34956 0.52232 0.63573 0.0
C1075 C 0.38774 0.52636 0.62474 0.0
C1076 C 0.32268 0.49482 0.67971 0.0
C1077 C 0.29626 0.51801 0.67748 0.0
N1078 N 0.36732 0.5174 0.6427 0.0
N1079 N 0.31477 0.52408 0.65663 0.0
H1080 H 0.48031 0.76712 0.67283 0.0
H1081 H 0.48704 0.8903 0.62728 0.0
H1082 H 0.53103 0.83395 0.71806 0.0
H1083 H 0.45298 0.82716 0.56687 0.0
H1084 H 0.50308 0.87044 0.66163 0.0
H1085 H 0.46969 0.7891 0.63446 0.0
C1086 C 0.48932 0.78647 0.67457 0.0
C1087 C 0.50649 0.7987 0.69882 0.0
C1088 C 0.49225 0.86105 0.64068 0.0
C1089 C 0.49421 0.82404 0.65503 0.0
C1090 C 0.48306 0.87235 0.62113 0.0
C1091 C 0.46851 0.86029 0.59433 0.0
C1092 C 0.4866 0.83749 0.6335 0.0
C1093 C 0.46398 0.83709 0.5874 0.0
C1094 C 0.48329 0.79903 0.65257 0.0
C1095 C 0.51772 0.82381 0.69971 0.0
N1096 N 0.47281 0.82639 0.607 0.0
N1097 N 0.51118 0.83566 0.67836 0.0
H1098 H 0.29553 0.5167 0.25961 0.0
H1099 H 0.36818 0.50689 0.1084 0.0
H1100 H 0.26772 0.45352 0.19943 0.0
H1101 H 0.38004 0.57396 0.14801 0.0
H1102 H 0.33542 0.48551 0.14749 0.0
H1103 H 0.33067 0.53638 0.22447 0.0
C1104 C 0.29684 0.50692 0.23904 0.0
C1105 C 0.27859 0.48349 0.23227 0.0
C1106 C 0.34534 0.5049 0.14767 0.0
C1107 C 0.31892 0.50588 0.1921 0.0
C1108 C 0.36412 0.5171 0.12557 0.0
C1109 C 0.37676 0.54225 0.12484 0.0
C1110 C 0.33948 0.51796 0.16946 0.0
C1111 C 0.37064 0.55457 0.14752 0.0
C1112 C 0.31691 0.51819 0.21898 0.0
C1113 C 0.28133 0.47167 0.20536 0.0
N1114 N 0.35246 0.54232 0.16887 0.0
N1115 N 0.30115 0.48299 0.18622 0.0
H1116 H 0.55226 0.81926 0.20002 0.0
H1117 H 0.42885 0.81128 0.15314 0.0
H1118 H 0.48942 0.78621 0.26111 0.0
H1119 H 0.49546 0.86103 0.10651 0.0
H1120 H 0.45109 0.80198 0.19286 0.0
H1121 H 0.53232 0.83491 0.16515 0.0
C1122 C 0.53437 0.81545 0.20622 0.0
C1123 C 0.5224 0.80124 0.23333 0.0
C1124 C 0.46091 0.81513 0.17417 0.0
C1125 C 0.4995 0.81889 0.19358 0.0
C1126 C 0.4482 0.82041 0.15143 0.0
C1127 C 0.4603 0.83685 0.12636 0.0
C1128 C 0.48592 0.82605 0.1716 0.0
C1129 C 0.48542 0.84826 0.12549 0.0
C1130 C 0.52303 0.82441 0.18637 0.0
C1131 C 0.49927 0.79691 0.24032 0.0
N1132 N 0.49741 0.84241 0.14754 0.0
N1133 N 0.48852 0.8055 0.22042 0.0
H1134 H 0.22443 0.71079 0.25739 0.0
H1135 H 0.14221 0.63609 0.10697 0.0
H1136 H 0.18838 0.73716 0.196 0.0
H1137 H 0.19556 0.62309 0.15061 0.0
H1138 H 0.15378 0.66961 0.14469 0.0
H1139 H 0.20894 0.67504 0.22346 0.0
C1140 C 0.21318 0.70903 0.23681 0.0
C1141 C 0.20781 0.72705 0.22936 0.0
C1142 C 0.16283 0.6593 0.14604 0.0
C1143 C 0.18987 0.68604 0.19051 0.0
C1144 C 0.15615 0.64009 0.12469 0.0
C1145 C 0.16805 0.62686 0.12549 0.0
C1146 C 0.18129 0.66508 0.16859 0.0
C1147 C 0.18604 0.63293 0.14889 0.0
C1148 C 0.20437 0.68862 0.21742 0.0
C1149 C 0.19306 0.72374 0.20246 0.0
N1150 N 0.19211 0.65157 0.16946 0.0
N1151 N 0.18458 0.70361 0.18397 0.0
H1152 H 0.16202 0.20124 0.31217 0.0
H1153 H 0.14137 0.09119 0.20468 0.0
H1154 H 0.09277 0.14415 0.28142 0.0
H1155 H 0.20245 0.16034 0.1825 0.0
H1156 H 0.12787 0.11006 0.24371 0.0
H1157 H 0.18095 0.18735 0.27206 0.0
C1158 C 0.1508 0.18616 0.29665 0.0
C1159 C 0.12575 0.1736 0.30058 0.0
C1160 C 0.14429 0.12115 0.23041 0.0
C1161 C 0.14722 0.15747 0.25573 0.0
C1162 C 0.15213 0.11037 0.20819 0.0
C1163 C 0.17288 0.12423 0.18974 0.0
C1164 C 0.15725 0.14604 0.23464 0.0
C1165 C 0.18626 0.149 0.19605 0.0
C1166 C 0.16162 0.17821 0.27399 0.0
C1167 C 0.11212 0.15416 0.27983 0.0
N1168 N 0.17811 0.15924 0.21792 0.0
N1169 N 0.12302 0.14653 0.25878 0.0
H1170 H 0.86158 0.95108 0.2871 0.0
H1171 H 0.84335 0.04471 0.18419 0.0
H1172 H 0.80302 0.96258 0.31196 0.0
H1173 H 0.91167 0.05071 0.20597 0.0
H1174 H 0.82442 0.01181 0.22422 0.0
H1175 H 0.87535 0.98304 0.24742 0.0
C1176 C 0.85145 0.96021 0.28407 0.0
C1177 C 0.83132 0.95435 0.3034 0.0
C1178 C 0.84357 0.02062 0.22026 0.0
C1179 C 0.84729 0.99139 0.25775 0.0
C1180 C 0.85441 0.03943 0.19762 0.0
C1181 C 0.87913 0.0503 0.19128 0.0
C1182 C 0.85759 0.01263 0.23613 0.0
C1183 C 0.89254 0.04269 0.20943 0.0
C1184 C 0.85943 0.97859 0.26145 0.0
C1185 C 0.81871 0.96661 0.2977 0.0
N1186 N 0.88158 0.02424 0.23059 0.0
N1187 N 0.82703 0.98478 0.27547 0.0
H1188 H 0.96875 0.80646 0.17961 0.0
H1189 H 0.03884 0.91019 0.30853 0.0
H1190 H 0.94528 0.85434 0.21515 0.0
H1191 H 0.04971 0.84929 0.30593 0.0
H1192 H 0.0071 0.89077 0.26899 0.0
H1193 H 0.9996 0.82124 0.22257 0.0
C1194 C 0.96971 0.81962 0.19683 0.0
C1195 C 0.95464 0.82943 0.19354 0.0
C1196 C 0.01634 0.88154 0.27701 0.0
C1197 C 0.98997 0.84664 0.24186 0.0
C1198 C 0.03471 0.89275 0.29954 0.0
C1199 C 0.04701 0.88136 0.31093 0.0
C1200 C 0.01007 0.85872 0.26526 0.0
C1201 C 0.0407 0.85874 0.29793 0.0
C1202 C 0.9874 0.82816 0.22112 0.0
C1203 C 0.95674 0.84654 0.21637 0.0
N1204 N 0.02261 0.8481 0.27571 0.0
N1205 N 0.97421 0.85475 0.23919 0.0
H1206 H 0.87146 0.80303 0.71924 0.0
H1207 H 0.8032 0.87131 0.77794 0.0
H1208 H 0.85782 0.84746 0.6546 0.0
H1209 H 0.85607 0.86674 0.83682 0.0
H1210 H 0.81133 0.8505 0.73365 0.0
H1211 H 0.85355 0.81415 0.76416 0.0
C1212 C 0.86415 0.81463 0.71445 0.0
C1213 C 0.86608 0.82448 0.68349 0.0
C1214 C 0.82082 0.85378 0.75652 0.0
C1215 C 0.84555 0.83692 0.73403 0.0
C1216 C 0.81618 0.86554 0.78165 0.0
C1217 C 0.82922 0.87087 0.81069 0.0
C1218 C 0.83806 0.84679 0.76106 0.0
C1219 C 0.84589 0.86314 0.81452 0.0
C1220 C 0.85409 0.82104 0.73994 0.0
C1221 C 0.85663 0.83962 0.67831 0.0
N1222 N 0.84984 0.85143 0.78997 0.0
N1223 N 0.84676 0.84543 0.70338 0.0
H1224 H 0.15155 0.06329 0.71808 0.0
H1225 H 0.15981 0.95604 0.80285 0.0
H1226 H 0.20127 0.04207 0.68301 0.0
H1227 H 0.09884 0.96676 0.80645 0.0
H1228 H 0.17943 0.99007 0.76479 0.0
H1229 H 0.13764 0.03202 0.75906 0.0
C1230 C 0.1598 0.05223 0.71929 0.0
C1231 C 0.17739 0.05513 0.69677 0.0
C1232 C 0.16172 0.98477 0.77397 0.0
C1233 C 0.16111 0.01874 0.74352 0.0
C1234 C 0.15045 0.96531 0.79553 0.0
C1235 C 0.12758 0.95843 0.80808 0.0
C1236 C 0.15015 0.99756 0.7654 0.0
C1237 C 0.11643 0.97124 0.79773 0.0
C1238 C 0.15171 0.03422 0.74259 0.0
C1239 C 0.18764 0.04041 0.69988 0.0
N1240 N 0.12785 0.99014 0.77733 0.0
N1241 N 0.17913 0.02258 0.72261 0.0
H1242 H 0.95753 0.15751 0.68789 0.0
H1243 H 0.06022 0.14843 0.78292 0.0
H1244 H 0.96293 0.09363 0.69751 0.0
H1245 H 0.03943 0.19916 0.81504 0.0
H1246 H 0.0293 0.13418 0.74153 0.0
H1247 H 0.99049 0.17764 0.72753 0.0
C1248 C 0.96538 0.14764 0.69848 0.0
C1249 C 0.95751 0.12385 0.68899 0.0
C1250 C 0.03152 0.14854 0.75745 0.0
C1251 C 0.99533 0.14689 0.7334 0.0
C1252 C 0.04929 0.1568 0.78101 0.0
C1253 C 0.05217 0.17475 0.80284 0.0
C1254 C 0.01627 0.15816 0.75551 0.0
C1255 C 0.03771 0.18521 0.79874 0.0
C1256 C 0.98421 0.15918 0.72092 0.0
C1257 C 0.96841 0.11201 0.70355 0.0
N1258 N 0.02009 0.17654 0.77569 0.0
N1259 N 0.98679 0.12369 0.72463 0.0
H1260 H 0.756 0.47038 0.62216 0.0
H1261 H 0.86993 0.49089 0.52155 0.0
H1262 H 0.82564 0.53002 0.64609 0.0
H1263 H 0.80632 0.42234 0.53756 0.0
H1264 H 0.85507 0.50875 0.56182 0.0
H1265 H 0.77453 0.45671 0.5829 0.0
C1266 C 0.77524 0.48076 0.61902 0.0
C1267 C 0.78929 0.50121 0.63792 0.0
C1268 C 0.84462 0.48977 0.5566 0.0
C1269 C 0.81079 0.48535 0.59277 0.0
C1270 C 0.8531 0.47953 0.53381 0.0
C1271 C 0.83921 0.4551 0.52578 0.0
C1272 C 0.82206 0.47547 0.57097 0.0
C1273 C 0.81753 0.44129 0.54242 0.0
C1274 C 0.78585 0.47283 0.59665 0.0
C1275 C 0.81414 0.5141 0.63214 0.0
N1276 N 0.80958 0.4517 0.56382 0.0
N1277 N 0.8242 0.50585 0.61014 0.0
H1278 H 0.54226 0.31744 0.66297 0.0
H1279 H 0.50885 0.3717 0.51053 0.0
H1280 H 0.46934 0.28654 0.62913 0.0
H1281 H 0.57936 0.39997 0.55189 0.0
H1282 H 0.49234 0.34284 0.55582 0.0
H1283 H 0.55448 0.3496 0.62439 0.0
C1284 C 0.52873 0.31729 0.6472 0.0
C1285 C 0.50474 0.29891 0.64902 0.0
C1286 C 0.51135 0.35563 0.55515 0.0
C1287 C 0.51885 0.33631 0.60415 0.0
C1288 C 0.52074 0.3722 0.5295 0.0
C1289 C 0.54554 0.38806 0.52734 0.0
C1290 C 0.52695 0.35517 0.57867 0.0
C1291 C 0.56018 0.38787 0.55235 0.0
C1292 C 0.53576 0.33589 0.62516 0.0
C1293 C 0.48806 0.30022 0.62835 0.0
N1294 N 0.5507 0.37162 0.5767 0.0
N1295 N 0.49548 0.31852 0.60643 0.0
H1296 H 0.625 0.13747 0.5237 0.0
H1297 H 0.72769 0.25009 0.61959 0.0
H1298 H 0.63485 0.20887 0.52457 0.0
H1299 H 0.70907 0.17792 0.64532 0.0
H1300 H 0.69745 0.23436 0.57725 0.0
H1301 H 0.6581 0.15083 0.56311 0.0
C1302 C 0.63391 0.15581 0.53224 0.0
C1303 C 0.62706 0.17204 0.52059 0.0
C1304 C 0.69996 0.22186 0.59199 0.0
C1305 C 0.66505 0.18742 0.56491 0.0
C1306 C 0.71737 0.23088 0.61612 0.0
C1307 C 0.72072 0.21531 0.63635 0.0
C1308 C 0.68552 0.197 0.58795 0.0
C1309 C 0.70701 0.19055 0.63029 0.0
C1310 C 0.65283 0.16342 0.55458 0.0
C1311 C 0.63936 0.19561 0.53252 0.0
N1312 N 0.68974 0.18208 0.60679 0.0
N1313 N 0.6577 0.20252 0.55372 0.0
H1314 H 0.50721 0.13697 0.01315 0.0
H1315 H 0.54113 0.24115 0.14209 0.0
H1316 H 0.57871 0.18612 0.0469 0.0
H1317 H 0.46856 0.18197 0.1354 0.0
H1318 H 0.55371 0.2214 0.10354 0.0
H1319 H 0.49123 0.15205 0.05585 0.0
C1320 C 0.51948 0.1505 0.02993 0.0
C1321 C 0.54436 0.16055 0.02621 0.0
C1322 C 0.535 0.21259 0.11042 0.0
C1323 C 0.52633 0.17805 0.07433 0.0
C1324 C 0.52769 0.22401 0.13239 0.0
C1325 C 0.50366 0.21326 0.14227 0.0
C1326 C 0.51827 0.19018 0.09767 0.0
C1327 C 0.48726 0.19095 0.12854 0.0
C1328 C 0.51037 0.1592 0.05408 0.0
C1329 C 0.55945 0.17813 0.04846 0.0
N1330 N 0.49486 0.18012 0.10683 0.0
N1331 N 0.55023 0.18643 0.07121 0.0
H1332 H 0.82965 0.40273 0.05862 0.0
H1333 H 0.82119 0.28333 0.13098 0.0
H1334 H 0.86382 0.36829 0.01053 0.0
H1335 H 0.77555 0.31226 0.15568 0.0
H1336 H 0.84314 0.31714 0.0929 0.0
H1337 H 0.81755 0.37369 0.10252 0.0
C1338 C 0.83496 0.38922 0.05765 0.0
C1339 C 0.8475 0.38772 0.03083 0.0
C1340 C 0.82832 0.31593 0.10684 0.0
C1341 C 0.833 0.35375 0.08056 0.0
C1342 C 0.81578 0.29667 0.12843 0.0
C1343 C 0.79623 0.29469 0.14621 0.0
C1344 C 0.82148 0.33343 0.10376 0.0
C1345 C 0.79014 0.31262 0.14218 0.0
C1346 C 0.82791 0.37251 0.0826 0.0
C1347 C 0.85413 0.36999 0.03089 0.0
N1348 N 0.80268 0.33108 0.12156 0.0
N1349 N 0.8464 0.35333 0.05516 0.0
H1350 H 0.62105 0.42441 0.04248 0.0
H1351 H 0.71277 0.53637 0.14676 0.0
H1352 H 0.63059 0.494 0.01935 0.0
H1353 H 0.72061 0.47528 0.12374 0.0
H1354 H 0.67997 0.5221 0.10657 0.0
H1355 H 0.6531 0.4429 0.08196 0.0
C1356 C 0.62977 0.44363 0.04584 0.0
C1357 C 0.62333 0.45769 0.02707 0.0
C1358 C 0.68917 0.51211 0.11027 0.0
C1359 C 0.66047 0.47912 0.07246 0.0
C1360 C 0.70792 0.52025 0.13298 0.0
C1361 C 0.71925 0.50681 0.13905 0.0
C1362 C 0.6817 0.49032 0.09404 0.0
C1363 C 0.71221 0.48606 0.12049 0.0
C1364 C 0.64821 0.4542 0.06834 0.0
C1365 C 0.63507 0.4825 0.03318 0.0
N1366 N 0.69378 0.47837 0.09926 0.0
N1367 N 0.65331 0.49254 0.05529 0.0
H1368 H 0.43071 0.79362 0.97593 0.0
H1369 H 0.53419 0.8282 0.84472 0.0
H1370 H 0.48895 0.86646 0.96627 0.0
H1371 H 0.47987 0.75633 0.87048 0.0
H1372 H 0.51974 0.84366 0.88882 0.0
H1373 H 0.44944 0.78094 0.93616 0.0
C1374 C 0.44745 0.80712 0.96534 0.0
C1375 C 0.45816 0.83127 0.97465 0.0
C1376 C 0.51123 0.82452 0.88494 0.0
C1377 C 0.4801 0.81651 0.92839 0.0
C1378 C 0.51954 0.81567 0.85995 0.0
C1379 C 0.50803 0.79093 0.85366 0.0
C1380 C 0.49135 0.80844 0.9036 0.0
C1381 C 0.48909 0.77554 0.87403 0.0
C1382 C 0.45829 0.79974 0.94256 0.0
C1383 C 0.48 0.84767 0.95984 0.0
N1384 N 0.48132 0.78455 0.89778 0.0
N1385 N 0.49026 0.84 0.9373 0.0
H1386 H 0.1797 0.70923 0.85533 0.0
H1387 H 0.19773 0.61511 0.95898 0.0
H1388 H 0.24759 0.71339 0.87422 0.0
H1389 H 0.13812 0.62582 0.97995 0.0
H1390 H 0.21189 0.64679 0.91869 0.0
H1391 H 0.16075 0.67602 0.89486 0.0
C1392 C 0.19067 0.70347 0.868 0.0
C1393 C 0.21527 0.71401 0.86107 0.0
C1394 C 0.19566 0.64222 0.932 0.0
C1395 C 0.19367 0.67589 0.9053 0.0
C1396 C 0.18745 0.62399 0.95494 0.0
C1397 C 0.16689 0.61799 0.97333 0.0
C1398 C 0.18332 0.65475 0.92714 0.0
C1399 C 0.15414 0.62995 0.96643 0.0
C1400 C 0.17982 0.68446 0.89034 0.0
C1401 C 0.22855 0.70573 0.87823 0.0
N1402 N 0.16269 0.64798 0.94401 0.0
N1403 N 0.21756 0.68711 0.89912 0.0
H1404 H 0.37085 0.5076 0.98536 0.0
H1405 H 0.31484 0.54136 0.83526 0.0
H1406 H 0.39761 0.57841 0.94569 0.0
H1407 H 0.285 0.46816 0.86752 0.0
H1408 H 0.34707 0.55361 0.87366 0.0
H1409 H 0.34167 0.49117 0.94039 0.0
C1410 C 0.37092 0.51958 0.96684 0.0
C1411 C 0.38646 0.54443 0.96937 0.0
C1412 C 0.33358 0.53482 0.87259 0.0
C1413 C 0.35327 0.52593 0.91843 0.0
C1414 C 0.31493 0.52777 0.85066 0.0
C1415 C 0.29683 0.50369 0.84844 0.0
C1416 C 0.33432 0.51783 0.89311 0.0
C1417 C 0.29846 0.48695 0.86863 0.0
C1418 C 0.3542 0.51024 0.94138 0.0
C1419 C 0.38576 0.5592 0.94495 0.0
N1420 N 0.3168 0.49438 0.89047 0.0
N1421 N 0.36938 0.54975 0.92077 0.0
H1422 H 0.20989 0.57291 0.48493 0.0
H1423 H 0.17611 0.47239 0.35062 0.0
H1424 H 0.1363 0.51728 0.47127 0.0
H1425 H 0.24683 0.51714 0.39019 0.0
H1426 H 0.15978 0.48705 0.39336 0.0
H1427 H 0.22248 0.55261 0.4474 0.0
C1428 C 0.19624 0.55645 0.47388 0.0
C1429 C 0.1719 0.54689 0.48144 0.0
C1430 C 0.17879 0.49327 0.39291 0.0
C1431 C 0.18651 0.52315 0.43799 0.0
C1432 C 0.18809 0.48479 0.36874 0.0
C1433 C 0.21291 0.49382 0.36665 0.0
C1434 C 0.19452 0.51088 0.41482 0.0
C1435 C 0.22764 0.50998 0.39055 0.0
C1436 C 0.20354 0.54469 0.45251 0.0
C1437 C 0.15525 0.52536 0.46617 0.0
N1438 N 0.21828 0.51814 0.4133 0.0
N1439 N 0.16286 0.51421 0.44501 0.0
H1440 H 0.49607 0.63322 0.48287 0.0
H1441 H 0.46397 0.68658 0.3283 0.0
H1442 H 0.42654 0.60292 0.43782 0.0
H1443 H 0.53581 0.71994 0.36688 0.0
H1444 H 0.45195 0.65371 0.3657 0.0
H1445 H 0.51299 0.6624 0.43802 0.0
C1446 C 0.48452 0.63233 0.46314 0.0
C1447 C 0.45983 0.61582 0.46412 0.0
C1448 C 0.47039 0.66811 0.36622 0.0
C1449 C 0.47887 0.64908 0.41332 0.0
C1450 C 0.47728 0.6871 0.34488 0.0
C1451 C 0.50088 0.70638 0.34482 0.0
C1452 C 0.48703 0.66823 0.38828 0.0
C1453 C 0.51737 0.70555 0.36637 0.0
C1454 C 0.49413 0.64908 0.43775 0.0
C1455 C 0.4456 0.61551 0.43821 0.0
N1456 N 0.51006 0.68688 0.38762 0.0
N1457 N 0.45528 0.63197 0.41412 0.0
H1458 H 0.35224 0.80382 0.50258 0.0
H1459 H 0.30145 0.83323 0.34226 0.0
H1460 H 0.38921 0.87354 0.45738 0.0
H1461 H 0.27443 0.76333 0.38513 0.0
H1462 H 0.32999 0.85073 0.38781 0.0
H1463 H 0.32002 0.7914 0.46381 0.0
C1464 C 0.35365 0.81656 0.48428 0.0
C1465 C 0.37377 0.83961 0.48279 0.0
C1466 C 0.31756 0.83163 0.38736 0.0
C1467 C 0.33654 0.82529 0.43769 0.0
C1468 C 0.30119 0.82167 0.36158 0.0
C1469 C 0.28573 0.79678 0.35988 0.0
C1470 C 0.31812 0.81651 0.41159 0.0
C1471 C 0.2862 0.78257 0.38529 0.0
C1472 C 0.3351 0.80944 0.46212 0.0
C1473 C 0.37413 0.85551 0.45911 0.0
N1474 N 0.30216 0.79261 0.40988 0.0
N1475 N 0.35588 0.84794 0.43708 0.0
H1476 H 0.26938 0.11289 0.1712 0.0
H1477 H 0.40362 0.22162 0.15075 0.0
H1478 H 0.28798 0.17685 0.11611 0.0
H1479 H 0.38513 0.15806 0.20674 0.0
H1480 H 0.36152 0.20496 0.13652 0.0
H1481 H 0.31162 0.12904 0.18435 0.0
C1482 C 0.28233 0.13044 0.16208 0.0
C1483 C 0.27512 0.14356 0.14253 0.0
C1484 C 0.36665 0.19457 0.15177 0.0
C1485 C 0.32362 0.16205 0.15723 0.0
C1486 C 0.39073 0.20403 0.15979 0.0
C1487 C 0.39792 0.19122 0.18003 0.0
C1488 C 0.34953 0.17214 0.16412 0.0
C1489 C 0.3804 0.16853 0.19104 0.0
C1490 C 0.30648 0.1396 0.16949 0.0
C1491 C 0.29272 0.16616 0.13133 0.0
N1492 N 0.35699 0.15977 0.18307 0.0
N1493 N 0.31616 0.17465 0.13876 0.0
H1494 H 0.84443 0.22774 0.21428 0.0
H1495 H 0.82632 0.11173 0.11743 0.0
H1496 H 0.78171 0.18223 0.15712 0.0
H1497 H 0.8892 0.15762 0.17408 0.0
H1498 H 0.80937 0.13697 0.13229 0.0
H1499 H 0.86127 0.20242 0.19947 0.0
C1500 C 0.83429 0.21255 0.1984 0.0
C1501 C 0.81163 0.20712 0.18692 0.0
C1502 C 0.82684 0.14147 0.14157 0.0
C1503 C 0.83068 0.17787 0.17012 0.0
C1504 C 0.83648 0.12699 0.13321 0.0
C1505 C 0.85921 0.13256 0.14452 0.0
C1506 C 0.84005 0.16169 0.16137 0.0
C1507 C 0.8716 0.15263 0.16479 0.0
C1508 C 0.84386 0.19802 0.19006 0.0
C1509 C 0.79925 0.18712 0.16653 0.0
N1510 N 0.8619 0.16648 0.17247 0.0
N1511 N 0.80889 0.1732 0.15887 0.0
H1512 H 0.77979 0.62095 0.21134 0.0
H1513 H 0.89692 0.71788 0.11536 0.0
H1514 H 0.82656 0.60348 0.15769 0.0
H1515 H 0.84978 0.73541 0.16796 0.0
H1516 H 0.8715 0.67589 0.13099 0.0
H1517 H 0.80492 0.66292 0.19528 0.0
C1518 C 0.79523 0.6259 0.19599 0.0
C1519 C 0.80107 0.60867 0.18586 0.0
C1520 C 0.86675 0.68893 0.13919 0.0
C1521 C 0.83006 0.6567 0.16762 0.0
C1522 C 0.88132 0.71293 0.13036 0.0
C1523 C 0.87549 0.7302 0.14038 0.0
C1524 C 0.84617 0.68212 0.15816 0.0
C1525 C 0.85499 0.72272 0.15969 0.0
C1526 C 0.80963 0.64988 0.18692 0.0
C1527 C 0.82135 0.61614 0.16608 0.0
N1528 N 0.84106 0.69927 0.1679 0.0
N1529 N 0.83513 0.63956 0.15771 0.0
H1530 H 0.22483 0.40095 0.33975 0.0
H1531 H 0.1137 0.26743 0.3244 0.0
H1532 H 0.16016 0.38289 0.28683 0.0
H1533 H 0.17766 0.28536 0.37901 0.0
H1534 H 0.13078 0.30951 0.30968 0.0
H1535 H 0.20796 0.35882 0.35435 0.0
C1536 C 0.207 0.38814 0.33134 0.0
C1537 C 0.19387 0.39548 0.31203 0.0
C1538 C 0.14114 0.30428 0.32481 0.0
C1539 C 0.17451 0.34709 0.3285 0.0
C1540 C 0.13142 0.28021 0.33316 0.0
C1541 C 0.14427 0.27284 0.35301 0.0
C1542 C 0.1639 0.32123 0.33638 0.0
C1543 C 0.16714 0.29023 0.36364 0.0
C1544 C 0.19741 0.36405 0.33963 0.0
C1545 C 0.1709 0.37806 0.30181 0.0
N1546 N 0.1762 0.31362 0.35526 0.0
N1547 N 0.16198 0.35468 0.31009 0.0
H1548 H 0.59973 0.82035 0.34368 0.0
H1549 H 0.73447 0.84819 0.3189 0.0
H1550 H 0.61894 0.7776 0.2837 0.0
H1551 H 0.71573 0.89158 0.37828 0.0
H1552 H 0.69226 0.82235 0.30555 0.0
H1553 H 0.64192 0.84614 0.35756 0.0
C1554 C 0.61279 0.81623 0.33368 0.0
C1555 C 0.60577 0.79676 0.31247 0.0
C1556 C 0.69734 0.83757 0.32139 0.0
C1557 C 0.65421 0.82645 0.32797 0.0
C1558 C 0.72149 0.85242 0.32893 0.0
C1559 C 0.72866 0.8721 0.34975 0.0
C1560 C 0.68014 0.84234 0.33482 0.0
C1561 C 0.71101 0.87665 0.36205 0.0
C1562 C 0.63692 0.83106 0.34149 0.0
C1563 C 0.62352 0.79237 0.30018 0.0
N1564 N 0.68756 0.86182 0.3545 0.0
N1565 N 0.64691 0.80715 0.308 0.0
H1566 H 0.17961 0.78114 0.33492 0.0
H1567 H 0.15416 0.89025 0.32157 0.0
H1568 H 0.22415 0.84561 0.2803 0.0
H1569 H 0.10905 0.82536 0.37505 0.0
H1570 H 0.17934 0.87378 0.30507 0.0
H1571 H 0.15351 0.79694 0.34958 0.0
C1572 C 0.184 0.79871 0.32614 0.0
C1573 C 0.20415 0.8121 0.30638 0.0
C1574 C 0.16387 0.86306 0.32026 0.0
C1575 C 0.17413 0.83025 0.32292 0.0
C1576 C 0.14941 0.87242 0.32963 0.0
C1577 C 0.12947 0.85917 0.3498 0.0
C1578 C 0.15846 0.84027 0.33121 0.0
C1579 C 0.12422 0.83618 0.35946 0.0
C1580 C 0.169 0.80768 0.33444 0.0
C1581 C 0.20886 0.83471 0.29566 0.0
N1582 N 0.13871 0.82751 0.35021 0.0
N1583 N 0.19394 0.84306 0.30404 0.0
H1584 H 0.73858 0.89482 0.82391 0.0
H1585 H 0.60427 0.78479 0.83527 0.0
H1586 H 0.71817 0.83034 0.87875 0.0
H1587 H 0.6236 0.84937 0.7813 0.0
H1588 H 0.64586 0.80166 0.85204 0.0
H1589 H 0.69678 0.87868 0.8079 0.0
C1590 C 0.72533 0.8772 0.83245 0.0
C1591 C 0.73189 0.86389 0.85269 0.0
C1592 C 0.64105 0.81223 0.83664 0.0
C1593 C 0.68394 0.84539 0.83463 0.0
C1594 C 0.61725 0.80263 0.8271 0.0
C1595 C 0.61043 0.81569 0.80679 0.0
C1596 C 0.65831 0.83509 0.82575 0.0
C1597 C 0.62806 0.8387 0.79702 0.0
C1598 C 0.70144 0.86804 0.82338 0.0
C1599 C 0.71394 0.84121 0.86308 0.0
N1600 N 0.65123 0.84764 0.80648 0.0
N1601 N 0.69081 0.83271 0.85397 0.0
H1602 H 0.22751 0.82309 0.84328 0.0
H1603 H 0.11988 0.84982 0.81824 0.0
H1604 H 0.16406 0.77803 0.78714 0.0
H1605 H 0.18274 0.89479 0.87548 0.0
H1606 H 0.13638 0.82401 0.80551 0.0
H1607 H 0.21153 0.84952 0.85548 0.0
C1608 C 0.21011 0.81862 0.83375 0.0
C1609 C 0.19709 0.79828 0.81416 0.0
C1610 C 0.14666 0.83958 0.82071 0.0
C1611 C 0.17881 0.82869 0.82771 0.0
C1612 C 0.1373 0.85443 0.82788 0.0
C1613 C 0.14994 0.87452 0.848 0.0
C1614 C 0.16885 0.84475 0.83381 0.0
C1615 C 0.17241 0.87953 0.8598 0.0
C1616 C 0.20105 0.83381 0.8406 0.0
C1617 C 0.17469 0.79347 0.8024 0.0
N1618 N 0.18109 0.86468 0.85266 0.0
N1619 N 0.16631 0.80859 0.80927 0.0
H1620 H 0.18471 0.40441 0.84556 0.0
H1621 H 0.15823 0.26987 0.8235 0.0
H1622 H 0.2277 0.38548 0.78564 0.0
H1623 H 0.11359 0.28865 0.87999 0.0
H1624 H 0.18413 0.31209 0.80988 0.0
H1625 H 0.15936 0.36229 0.85997 0.0
C1626 C 0.18898 0.39142 0.83566 0.0
C1627 C 0.20838 0.39851 0.81432 0.0
C1628 C 0.16863 0.307 0.82516 0.0
C1629 C 0.17918 0.3501 0.83048 0.0
C1630 C 0.15376 0.28286 0.83286 0.0
C1631 C 0.13367 0.2757 0.85291 0.0
C1632 C 0.16347 0.32419 0.83767 0.0
C1633 C 0.12884 0.29334 0.86439 0.0
C1634 C 0.1744 0.36733 0.84379 0.0
C1635 C 0.21297 0.38084 0.80221 0.0
N1636 N 0.14367 0.31677 0.85669 0.0
N1637 N 0.19843 0.35745 0.81036 0.0
H1638 H 0.82334 0.7131 0.61286 0.0
H1639 H 0.84318 0.61642 0.70991 0.0
H1640 H 0.88659 0.73135 0.66938 0.0
H1641 H 0.77995 0.59869 0.65363 0.0
H1642 H 0.85985 0.65849 0.69452 0.0
H1643 H 0.80719 0.67105 0.62763 0.0
C1644 C 0.83377 0.70829 0.62856 0.0
C1645 C 0.85634 0.72577 0.63992 0.0
C1646 C 0.84237 0.64537 0.68543 0.0
C1647 C 0.83807 0.67761 0.65671 0.0
C1648 C 0.8329 0.62133 0.69409 0.0
C1649 C 0.81013 0.604 0.68306 0.0
C1650 C 0.82897 0.65214 0.66562 0.0
C1651 C 0.79757 0.61142 0.66272 0.0
C1652 C 0.82458 0.68425 0.63689 0.0
C1653 C 0.86909 0.71847 0.66009 0.0
N1654 N 0.80711 0.63491 0.65477 0.0
N1655 N 0.85981 0.69496 0.66778 0.0
H1656 H 0.28954 0.11168 0.61682 0.0
H1657 H 0.38706 0.23089 0.70823 0.0
H1658 H 0.27261 0.15982 0.66792 0.0
H1659 H 0.40494 0.18477 0.65373 0.0
H1660 H 0.34505 0.20522 0.69311 0.0
H1661 H 0.33185 0.13785 0.63055 0.0
C1662 C 0.29468 0.12764 0.63112 0.0
C1663 C 0.2775 0.13355 0.64126 0.0
C1664 C 0.35817 0.20077 0.6843 0.0
C1665 C 0.32588 0.1637 0.65679 0.0
C1666 C 0.38219 0.21551 0.69281 0.0
C1667 C 0.39955 0.20998 0.68224 0.0
C1668 C 0.35141 0.18028 0.66517 0.0
C1669 C 0.39218 0.18974 0.66241 0.0
C1670 C 0.31886 0.14265 0.63881 0.0
C1671 C 0.28522 0.15453 0.65959 0.0
N1672 N 0.36867 0.17557 0.65466 0.0
N1673 N 0.30879 0.16883 0.66671 0.0
H1674 H 0.8475 0.11063 0.67478 0.0
H1675 H 0.8235 0.22058 0.65831 0.0
H1676 H 0.89294 0.17489 0.62028 0.0
H1677 H 0.77663 0.15562 0.71056 0.0
H1678 H 0.84896 0.20398 0.64404 0.0
H1679 H 0.82178 0.12703 0.68906 0.0
C1680 C 0.8522 0.12829 0.66603 0.0
C1681 C 0.87243 0.14142 0.64629 0.0
C1682 C 0.83307 0.19328 0.65851 0.0
C1683 C 0.84286 0.1602 0.66231 0.0
C1684 C 0.81844 0.20271 0.66659 0.0
C1685 C 0.79788 0.18946 0.68569 0.0
C1686 C 0.82721 0.17041 0.66968 0.0
C1687 C 0.79227 0.16643 0.69572 0.0
C1688 C 0.83742 0.13759 0.67409 0.0
C1689 C 0.87757 0.16417 0.6356 0.0
N1690 N 0.80691 0.15767 0.6877 0.0
N1691 N 0.86284 0.1728 0.64367 0.0
H1692 H 0.07137 0.55694 0.48849 0.0
H1693 H 0.93762 0.44688 0.50694 0.0
H1694 H 0.0532 0.49287 0.54306 0.0
H1695 H 0.95543 0.51138 0.4537 0.0
H1696 H 0.97985 0.46346 0.52034 0.0
H1697 H 0.02922 0.54014 0.47423 0.0
C1698 C 0.05855 0.53921 0.49721 0.0
C1699 C 0.06583 0.52629 0.51704 0.0
C1700 C 0.97455 0.47406 0.50583 0.0
C1701 C 0.01742 0.50706 0.50111 0.0
C1702 C 0.9504 0.46465 0.49828 0.0
C1703 C 0.94296 0.47778 0.47916 0.0
C1704 C 0.9915 0.49679 0.49414 0.0
C1705 C 0.96035 0.50066 0.46858 0.0
C1706 C 0.03444 0.52969 0.48918 0.0
C1707 C 0.0484 0.50345 0.52768 0.0
N1708 N 0.98382 0.50941 0.47611 0.0
N1709 N 0.02499 0.49461 0.5197 0.0
H1710 H 0.4455 0.51186 0.4931 0.0
H1711 H 0.55821 0.49161 0.50099 0.0
H1712 H 0.51053 0.5584 0.54539 0.0
H1713 H 0.49322 0.44517 0.44858 0.0
H1714 H 0.5409 0.51598 0.51798 0.0
H1715 H 0.46268 0.48727 0.47659 0.0
C1716 C 0.46345 0.51697 0.50103 0.0
C1717 C 0.47661 0.53725 0.52066 0.0
C1718 C 0.53038 0.50044 0.50283 0.0
C1719 C 0.49637 0.50903 0.50193 0.0
C1720 C 0.54023 0.48646 0.49315 0.0
C1721 C 0.52714 0.4663 0.4733 0.0
C1722 C 0.50723 0.49428 0.49256 0.0
C1723 C 0.50395 0.46054 0.4639 0.0
C1724 C 0.47323 0.50287 0.49163 0.0
C1725 C 0.49976 0.54295 0.53022 0.0
N1726 N 0.49475 0.47449 0.47356 0.0
N1727 N 0.50889 0.5289 0.52079 0.0
H1728 H 0.51728 0.07341 0.51278 0.0
H1729 H 0.48759 0.9383 0.48511 0.0
H1730 H 0.56003 0.0542 0.45281 0.0
H1731 H 0.44561 0.95749 0.54675 0.0
H1732 H 0.51383 0.98058 0.47224 0.0
H1733 H 0.49111 0.03116 0.52597 0.0
C1734 C 0.52132 0.06033 0.50263 0.0
C1735 C 0.54089 0.06737 0.48163 0.0
C1736 C 0.49883 0.97557 0.48846 0.0
C1737 C 0.51074 0.01884 0.49631 0.0
C1738 C 0.48373 0.95139 0.49569 0.0
C1739 C 0.46434 0.94432 0.51704 0.0
C1740 C 0.49458 0.99289 0.50271 0.0
C1741 C 0.4603 0.96211 0.5301 0.0
C1742 C 0.50627 0.03617 0.51006 0.0
C1743 C 0.54519 0.0496 0.46916 0.0
N1744 N 0.47534 0.98557 0.52282 0.0
N1745 N 0.53017 0.02616 0.47656 0.0
H1746 H 0.49015 0.04729 0.94775 0.0
H1747 H 0.51201 0.94947 0.0379 0.0
H1748 H 0.55427 0.06451 0.00153 0.0
H1749 H 0.44803 0.93186 0.98353 0.0
H1750 H 0.52818 0.99162 0.02369 0.0
H1751 H 0.47429 0.00491 0.96065 0.0
C1752 C 0.5008 0.04219 0.9625 0.0
C1753 C 0.52356 0.05948 0.9736 0.0
C1754 C 0.51065 0.97853 0.01471 0.0
C1755 C 0.50565 0.011 0.98816 0.0
C1756 C 0.50147 0.95442 0.02267 0.0
C1757 C 0.47862 0.9371 0.01192 0.0
C1758 C 0.49688 0.9854 0.9959 0.0
C1759 C 0.46573 0.9446 0.99236 0.0
C1760 C 0.4918 0.01798 0.96972 0.0
C1761 C 0.53662 0.05182 0.99247 0.0
N1762 N 0.47498 0.96818 0.98512 0.0
N1763 N 0.52752 0.02818 -0.00092 0.0
H1764 H 0.95461 0.44416 0.94772 0.0
H1765 H 0.05151 0.56222 0.04193 0.0
H1766 H 0.9372 0.49221 0.99814 0.0
H1767 H 0.06845 0.51355 0.99231 0.0
H1768 H 0.00974 0.53756 0.02471 0.0
H1769 H 0.99658 0.46976 0.96317 0.0
C1770 C 0.9596 0.46004 0.96214 0.0
C1771 C 0.94237 0.46603 0.97169 0.0
C1772 C 0.02263 0.53235 0.01748 0.0
C1773 C 0.9904 0.49552 0.9893 0.0
C1774 C 0.04649 0.54648 0.02719 0.0
C1775 C 0.06348 0.53992 0.0186 0.0
C1776 C 0.01573 0.51151 -0.00094 0.0
C1777 C 0.05596 0.51928 -0.00044 0.0
C1778 C 0.98358 0.47469 0.97089 0.0
C1779 C 0.94987 0.48687 0.99028 0.0
N1780 N 0.03266 0.50579 0.99054 0.0
N1781 N 0.97331 0.50086 -0.00155 0.0
H1782 H 0.51599 0.44692 0.01241 0.0
H1783 H 0.49084 0.55595 0.99287 0.0
H1784 H 0.56065 0.5104 0.95603 0.0
H1785 H 0.44617 0.49275 0.04973 0.0
H1786 H 0.51643 0.5394 0.97898 0.0
H1787 H 0.49062 0.46362 0.02712 0.0
C1788 C 0.52059 0.46448 0.00333 0.0
C1789 C 0.54049 0.47728 0.98293 0.0
C1790 C 0.50101 0.52909 0.99442 0.0
C1791 C 0.51131 0.49642 -0.00057 0.0
C1792 C 0.48631 0.5385 0.00229 0.0
C1793 C 0.46631 0.52571 0.02251 0.0
C1794 C 0.49575 0.50671 0.00689 0.0
C1795 C 0.46137 0.5032 0.03401 0.0
C1796 C 0.50602 0.47396 0.01165 0.0
C1797 C 0.54552 0.49992 0.97186 0.0
N1798 N 0.47603 0.49444 0.02611 0.0
N1799 N 0.53098 0.50871 0.98015 0.0
loop_
_geom_bond_atom_site_label_1
_geom_bond_atom_site_label_2
_geom_bond_distance
_geom_bond_site_symmetry_2
_ccdc_geom_bond_type
Co0 O1 2.216 . S
Co0 O2 2.091 . S
Co0 O4 2.004 . S
Co0 O10 2.021 . S
Co0 O12 2.137 . S
Co0 O13 2.244 . S
O1 Co0 2.216 . S
O1 C8 1.247 . S
O2 Co0 2.091 . S
O2 C8 1.261 . S
C3 O12 1.247 . S
C3 O13 1.272 . S
O4 Co0 2.004 . S
O4 C9 1.259 . S
Co5 O6 2.061 . S
Co5 O11 2.052 . S
Co5 O13 2.135 . S
O6 Co5 2.061 . S
O6 C9 1.235 . S
C7 O10 1.238 . S
C7 O11 1.241 . S
C8 O1 1.247 . S
C8 O2 1.261 . S
C9 O4 1.259 . S
C9 O6 1.235 . S
O10 Co0 2.021 . S
O10 C7 1.238 . S
O11 Co5 2.052 . S
O11 C7 1.241 . S
O12 Co0 2.137 . S
O12 C3 1.247 . S
O13 Co0 2.244 . S
O13 C3 1.272 . S
O13 Co5 2.135 . S
Co14 O15 2.216 . S
Co14 O16 2.091 . S
Co14 O18 2.004 . S
Co14 O24 2.021 . S
Co14 O26 2.137 . S
Co14 O27 2.244 . S
O15 Co14 2.216 . S
O15 C22 1.247 . S
O16 Co14 2.091 . S
O16 C22 1.261 . S
C17 O26 1.247 . S
C17 O27 1.272 . S
O18 Co14 2.004 . S
O18 C23 1.259 . S
Co19 O20 2.061 . S
Co19 O25 2.052 . S
Co19 O27 2.135 . S
O20 Co19 2.061 . S
O20 C23 1.235 . S
C21 O24 1.238 . S
C21 O25 1.241 . S
C22 O15 1.247 . S
C22 O16 1.261 . S
C23 O18 1.259 . S
C23 O20 1.235 . S
O24 Co14 2.021 . S
O24 C21 1.238 . S
O25 Co19 2.052 . S
O25 C21 1.241 . S
O26 Co14 2.137 . S
O26 C17 1.247 . S
O27 Co14 2.244 . S
O27 C17 1.272 . S
O27 Co19 2.135 . S
Co28 O29 2.216 . S
Co28 O30 2.091 . S
Co28 O32 2.004 . S
Co28 O38 2.021 . S
Co28 O40 2.137 . S
Co28 O41 2.244 . S
O29 Co28 2.216 . S
O29 C36 1.247 . S
O30 Co28 2.091 . S
O30 C36 1.261 . S
C31 O40 1.247 . S
C31 O41 1.272 . S
O32 Co28 2.004 . S
O32 C37 1.259 . S
Co33 O34 2.061 . S
Co33 O39 2.052 . S
Co33 O41 2.135 . S
O34 Co33 2.061 . S
O34 C37 1.235 . S
C35 O38 1.238 . S
C35 O39 1.241 . S
C36 O29 1.247 . S
C36 O30 1.261 . S
C37 O32 1.259 . S
C37 O34 1.235 . S
O38 Co28 2.021 . S
O38 C35 1.238 . S
O39 Co33 2.052 . S
O39 C35 1.241 . S
O40 Co28 2.137 . S
O40 C31 1.247 . S
O41 Co28 2.244 . S
O41 C31 1.272 . S
O41 Co33 2.135 . S
Co42 O43 2.216 . S
Co42 O44 2.091 . S
Co42 O46 2.004 . S
Co42 O52 2.021 . S
Co42 O54 2.137 . S
Co42 O55 2.244 . S
O43 Co42 2.216 . S
O43 C50 1.247 . S
O44 Co42 2.091 . S
O44 C50 1.261 . S
C45 O54 1.247 . S
C45 O55 1.272 . S
O46 Co42 2.004 . S
O46 C51 1.259 . S
Co47 O48 2.061 . S
Co47 O53 2.052 . S
Co47 O55 2.135 . S
O48 Co47 2.061 . S
O48 C51 1.235 . S
C49 O52 1.238 . S
C49 O53 1.241 . S
C50 O43 1.247 . S
C50 O44 1.261 . S
C51 O46 1.259 . S
C51 O48 1.235 . S
O52 Co42 2.021 . S
O52 C49 1.238 . S
O53 Co47 2.052 . S
O53 C49 1.241 . S
O54 Co42 2.137 . S
O54 C45 1.247 . S
O55 Co42 2.244 . S
O55 C45 1.272 . S
O55 Co47 2.135 . S
Co56 O57 2.216 . S
Co56 O58 2.091 . S
Co56 O60 2.004 . S
Co56 O66 2.021 . S
Co56 O68 2.137 . S
Co56 O69 2.244 . S
O57 Co56 2.216 . S
O57 C64 1.247 . S
O58 Co56 2.091 . S
O58 C64 1.261 . S
C59 O68 1.247 . S
C59 O69 1.272 . S
O60 Co56 2.004 . S
O60 C65 1.259 . S
Co61 O62 2.061 . S
Co61 O67 2.052 . S
Co61 O69 2.135 . S
O62 Co61 2.061 . S
O62 C65 1.235 . S
C63 O66 1.238 . S
C63 O67 1.241 . S
C64 O57 1.247 . S
C64 O58 1.261 . S
C65 O60 1.259 . S
C65 O62 1.235 . S
O66 Co56 2.021 . S
O66 C63 1.238 . S
O67 Co61 2.052 . S
O67 C63 1.241 . S
O68 Co56 2.137 . S
O68 C59 1.247 . S
O69 Co56 2.244 . S
O69 C59 1.272 . S
O69 Co61 2.135 . S
Co70 O71 2.216 . S
Co70 O72 2.091 . S
Co70 O74 2.004 . S
Co70 O80 2.021 . S
Co70 O82 2.137 . S
Co70 O83 2.244 . S
O71 Co70 2.216 . S
O71 C78 1.247 . S
O72 Co70 2.091 . S
O72 C78 1.261 . S
C73 O82 1.247 . S
C73 O83 1.272 . S
O74 Co70 2.004 . S
O74 C79 1.259 . S
Co75 O76 2.061 . S
Co75 O81 2.052 . S
Co75 O83 2.135 . S
O76 Co75 2.061 . S
O76 C79 1.235 . S
C77 O80 1.238 . S
C77 O81 1.241 . S
C78 O71 1.247 . S
C78 O72 1.261 . S
C79 O74 1.259 . S
C79 O76 1.235 . S
O80 Co70 2.021 . S
O80 C77 1.238 . S
O81 Co75 2.052 . S
O81 C77 1.241 . S
O82 Co70 2.137 . S
O82 C73 1.247 . S
O83 Co70 2.244 . S
O83 C73 1.272 . S
O83 Co75 2.135 . S
Co84 O85 2.216 . S
Co84 O86 2.091 . S
Co84 O88 2.004 . S
Co84 O94 2.021 . S
Co84 O96 2.137 . S
Co84 O97 2.244 . S
O85 Co84 2.216 . S
O85 C92 1.247 . S
O86 Co84 2.091 . S
O86 C92 1.261 . S
C87 O96 1.247 . S
C87 O97 1.272 . S
O88 Co84 2.004 . S
O88 C93 1.259 . S
Co89 O90 2.061 . S
Co89 O95 2.052 . S
Co89 O97 2.135 . S
O90 Co89 2.061 . S
O90 C93 1.235 . S
C91 O94 1.238 . S
C91 O95 1.241 . S
C92 O85 1.247 . S
C92 O86 1.261 . S
C93 O88 1.259 . S
C93 O90 1.235 . S
O94 Co84 2.021 . S
O94 C91 1.238 . S
O95 Co89 2.052 . S
O95 C91 1.241 . S
O96 Co84 2.137 . S
O96 C87 1.247 . S
O97 Co84 2.244 . S
O97 C87 1.272 . S
O97 Co89 2.135 . S
Co98 O99 2.216 . S
Co98 O100 2.091 . S
Co98 O102 2.004 . S
Co98 O108 2.021 . S
Co98 O110 2.137 . S
Co98 O111 2.244 . S
O99 Co98 2.216 . S
O99 C106 1.247 . S
O100 Co98 2.091 . S
O100 C106 1.261 . S
C101 O110 1.247 . S
C101 O111 1.272 . S
O102 Co98 2.004 . S
O102 C107 1.259 . S
Co103 O104 2.061 . S
Co103 O109 2.052 . S
Co103 O111 2.135 . S
O104 Co103 2.061 . S
O104 C107 1.235 . S
C105 O108 1.238 . S
C105 O109 1.241 . S
C106 O99 1.247 . S
C106 O100 1.261 . S
C107 O102 1.259 . S
C107 O104 1.235 . S
O108 Co98 2.021 . S
O108 C105 1.238 . S
O109 Co103 2.052 . S
O109 C105 1.241 . S
O110 Co98 2.137 . S
O110 C101 1.247 . S
O111 Co98 2.244 . S
O111 C101 1.272 . S
O111 Co103 2.135 . S
Co112 O113 2.216 . S
Co112 O114 2.091 . S
Co112 O116 2.004 . S
Co112 O122 2.021 . S
Co112 O124 2.137 . S
Co112 O125 2.244 . S
O113 Co112 2.216 . S
O113 C120 1.247 . S
O114 Co112 2.091 . S
O114 C120 1.261 . S
C115 O124 1.247 . S
C115 O125 1.272 . S
O116 Co112 2.004 . S
O116 C121 1.259 . S
Co117 O118 2.061 . S
Co117 O123 2.052 . S
Co117 O125 2.135 . S
O118 Co117 2.061 . S
O118 C121 1.235 . S
C119 O122 1.238 . S
C119 O123 1.241 . S
C120 O113 1.247 . S
C120 O114 1.261 . S
C121 O116 1.259 . S
C121 O118 1.235 . S
O122 Co112 2.021 . S
O122 C119 1.238 . S
O123 Co117 2.052 . S
O123 C119 1.241 . S
O124 Co112 2.137 . S
O124 C115 1.247 . S
O125 Co112 2.244 . S
O125 C115 1.272 . S
O125 Co117 2.135 . S
Co126 O127 2.216 . S
Co126 O128 2.091 . S
Co126 O130 2.004 . S
Co126 O136 2.021 . S
Co126 O138 2.137 . S
Co126 O139 2.244 . S
O127 Co126 2.216 . S
O127 C134 1.247 . S
O128 Co126 2.091 . S
O128 C134 1.261 . S
C129 O138 1.247 . S
C129 O139 1.272 . S
O130 Co126 2.004 . S
O130 C135 1.259 . S
Co131 O132 2.061 . S
Co131 O137 2.052 . S
Co131 O139 2.135 . S
O132 Co131 2.061 . S
O132 C135 1.235 . S
C133 O136 1.238 . S
C133 O137 1.241 . S
C134 O127 1.247 . S
C134 O128 1.261 . S
C135 O130 1.259 . S
C135 O132 1.235 . S
O136 Co126 2.021 . S
O136 C133 1.238 . S
O137 Co131 2.052 . S
O137 C133 1.241 . S
O138 Co126 2.137 . S
O138 C129 1.247 . S
O139 Co126 2.244 . S
O139 C129 1.272 . S
O139 Co131 2.135 . S
Co140 O141 2.216 . S
Co140 O142 2.091 . S
Co140 O144 2.004 . S
Co140 O150 2.021 . S
Co140 O152 2.137 . S
Co140 O153 2.244 . S
O141 Co140 2.216 . S
O141 C148 1.247 . S
O142 Co140 2.091 . S
O142 C148 1.261 . S
C143 O152 1.247 . S
C143 O153 1.272 . S
O144 Co140 2.004 . S
O144 C149 1.259 . S
Co145 O146 2.061 . S
Co145 O151 2.052 . S
Co145 O153 2.135 . S
O146 Co145 2.061 . S
O146 C149 1.235 . S
C147 O150 1.238 . S
C147 O151 1.241 . S
C148 O141 1.247 . S
C148 O142 1.261 . S
C149 O144 1.259 . S
C149 O146 1.235 . S
O150 Co140 2.021 . S
O150 C147 1.238 . S
O151 Co145 2.052 . S
O151 C147 1.241 . S
O152 Co140 2.137 . S
O152 C143 1.247 . S
O153 Co140 2.244 . S
O153 C143 1.272 . S
O153 Co145 2.135 . S
Co154 O155 2.216 . S
Co154 O156 2.091 . S
Co154 O158 2.004 . S
Co154 O164 2.021 . S
Co154 O166 2.137 . S
Co154 O167 2.244 . S
O155 Co154 2.216 . S
O155 C162 1.247 . S
O156 Co154 2.091 . S
O156 C162 1.261 . S
C157 O166 1.247 . S
C157 O167 1.272 . S
O158 Co154 2.004 . S
O158 C163 1.259 . S
Co159 O160 2.061 . S
Co159 O165 2.052 . S
Co159 O167 2.135 . S
O160 Co159 2.061 . S
O160 C163 1.235 . S
C161 O164 1.238 . S
C161 O165 1.241 . S
C162 O155 1.247 . S
C162 O156 1.261 . S
C163 O158 1.259 . S
C163 O160 1.235 . S
O164 Co154 2.021 . S
O164 C161 1.238 . S
O165 Co159 2.052 . S
O165 C161 1.241 . S
O166 Co154 2.137 . S
O166 C157 1.247 . S
O167 Co154 2.244 . S
O167 C157 1.272 . S
O167 Co159 2.135 . S
Co168 O169 2.216 . S
Co168 O170 2.091 . S
Co168 O172 2.004 . S
Co168 O178 2.021 . S
Co168 O180 2.137 . S
Co168 O181 2.244 . S
O169 Co168 2.216 . S
O169 C176 1.247 . S
O170 Co168 2.091 . S
O170 C176 1.261 . S
C171 O180 1.247 . S
C171 O181 1.272 . S
O172 Co168 2.004 . S
O172 C177 1.259 . S
Co173 O174 2.061 . S
Co173 O179 2.052 . S
Co173 O181 2.135 . S
O174 Co173 2.061 . S
O174 C177 1.235 . S
C175 O178 1.238 . S
C175 O179 1.241 . S
C176 O169 1.247 . S
C176 O170 1.261 . S
C177 O172 1.259 . S
C177 O174 1.235 . S
O178 Co168 2.021 . S
O178 C175 1.238 . S
O179 Co173 2.052 . S
O179 C175 1.241 . S
O180 Co168 2.137 . S
O180 C171 1.247 . S
O181 Co168 2.244 . S
O181 C171 1.272 . S
O181 Co173 2.135 . S
Co182 O183 2.216 . S
Co182 O184 2.091 . S
Co182 O186 2.004 . S
Co182 O192 2.021 . S
Co182 O194 2.137 . S
Co182 O195 2.244 . S
O183 Co182 2.216 . S
O183 C190 1.247 . S
O184 Co182 2.091 . S
O184 C190 1.261 . S
C185 O194 1.247 . S
C185 O195 1.272 . S
O186 Co182 2.004 . S
O186 C191 1.259 . S
Co187 O188 2.061 . S
Co187 O193 2.052 . S
Co187 O195 2.135 . S
O188 Co187 2.061 . S
O188 C191 1.235 . S
C189 O192 1.238 . S
C189 O193 1.241 . S
C190 O183 1.247 . S
C190 O184 1.261 . S
C191 O186 1.259 . S
C191 O188 1.235 . S
O192 Co182 2.021 . S
O192 C189 1.238 . S
O193 Co187 2.052 . S
O193 C189 1.241 . S
O194 Co182 2.137 . S
O194 C185 1.247 . S
O195 Co182 2.244 . S
O195 C185 1.272 . S
O195 Co187 2.135 . S
Co196 O197 2.216 . S
Co196 O198 2.091 . S
Co196 O200 2.004 . S
Co196 O206 2.021 . S
Co196 O208 2.137 . S
Co196 O209 2.244 . S
O197 Co196 2.216 . S
O197 C204 1.247 . S
O198 Co196 2.091 . S
O198 C204 1.261 . S
C199 O208 1.247 . S
C199 O209 1.272 . S
O200 Co196 2.004 . S
O200 C205 1.259 . S
Co201 O202 2.061 . S
Co201 O207 2.052 . S
Co201 O209 2.135 . S
O202 Co201 2.061 . S
O202 C205 1.235 . S
C203 O206 1.238 . S
C203 O207 1.241 . S
C204 O197 1.247 . S
C204 O198 1.261 . S
C205 O200 1.259 . S
C205 O202 1.235 . S
O206 Co196 2.021 . S
O206 C203 1.238 . S
O207 Co201 2.052 . S
O207 C203 1.241 . S
O208 Co196 2.137 . S
O208 C199 1.247 . S
O209 Co196 2.244 . S
O209 C199 1.272 . S
O209 Co201 2.135 . S
Co210 O211 2.216 . S
Co210 O212 2.091 . S
Co210 O214 2.004 . S
Co210 O220 2.021 . S
Co210 O222 2.137 . S
Co210 O223 2.244 . S
O211 Co210 2.216 . S
O211 C218 1.247 . S
O212 Co210 2.091 . S
O212 C218 1.261 . S
C213 O222 1.247 . S
C213 O223 1.272 . S
O214 Co210 2.004 . S
O214 C219 1.259 . S
Co215 O216 2.061 . S
Co215 O221 2.052 . S
Co215 O223 2.135 . S
O216 Co215 2.061 . S
O216 C219 1.235 . S
C217 O220 1.238 . S
C217 O221 1.241 . S
C218 O211 1.247 . S
C218 O212 1.261 . S
C219 O214 1.259 . S
C219 O216 1.235 . S
O220 Co210 2.021 . S
O220 C217 1.238 . S
O221 Co215 2.052 . S
O221 C217 1.241 . S
O222 Co210 2.137 . S
O222 C213 1.247 . S
O223 Co210 2.244 . S
O223 C213 1.272 . S
O223 Co215 2.135 . S
Co224 O225 2.216 . S
Co224 O226 2.091 . S
Co224 O228 2.004 . S
Co224 O234 2.021 . S
Co224 O236 2.137 . S
Co224 O237 2.244 . S
O225 Co224 2.216 . S
O225 C232 1.247 . S
O226 Co224 2.091 . S
O226 C232 1.261 . S
C227 O236 1.247 . S
C227 O237 1.272 . S
O228 Co224 2.004 . S
O228 C233 1.259 . S
Co229 O230 2.061 . S
Co229 O235 2.052 . S
Co229 O237 2.135 . S
O230 Co229 2.061 . S
O230 C233 1.235 . S
C231 O234 1.238 . S
C231 O235 1.241 . S
C232 O225 1.247 . S
C232 O226 1.261 . S
C233 O228 1.259 . S
C233 O230 1.235 . S
O234 Co224 2.021 . S
O234 C231 1.238 . S
O235 Co229 2.052 . S
O235 C231 1.241 . S
O236 Co224 2.137 . S
O236 C227 1.247 . S
O237 Co224 2.244 . S
O237 C227 1.272 . S
O237 Co229 2.135 . S
Co238 O239 2.216 . S
Co238 O240 2.091 . S
Co238 O242 2.004 . S
Co238 O248 2.021 . S
Co238 O250 2.137 . S
Co238 O251 2.244 . S
O239 Co238 2.216 . S
O239 C246 1.247 . S
O240 Co238 2.091 . S
O240 C246 1.261 . S
C241 O250 1.247 . S
C241 O251 1.272 . S
O242 Co238 2.004 . S
O242 C247 1.259 . S
Co243 O244 2.061 . S
Co243 O249 2.052 . S
Co243 O251 2.135 . S
O244 Co243 2.061 . S
O244 C247 1.235 . S
C245 O248 1.238 . S
C245 O249 1.241 . S
C246 O239 1.247 . S
C246 O240 1.261 . S
C247 O242 1.259 . S
C247 O244 1.235 . S
O248 Co238 2.021 . S
O248 C245 1.238 . S
O249 Co243 2.052 . S
O249 C245 1.241 . S
O250 Co238 2.137 . S
O250 C241 1.247 . S
O251 Co238 2.244 . S
O251 C241 1.272 . S
O251 Co243 2.135 . S
Co252 O253 2.216 . S
Co252 O254 2.091 . S
Co252 O256 2.004 . S
Co252 O262 2.021 . S
Co252 O264 2.137 . S
Co252 O265 2.244 . S
O253 Co252 2.216 . S
O253 C260 1.247 . S
O254 Co252 2.091 . S
O254 C260 1.261 . S
C255 O264 1.247 . S
C255 O265 1.272 . S
O256 Co252 2.004 . S
O256 C261 1.259 . S
Co257 O258 2.061 . S
Co257 O263 2.052 . S
Co257 O265 2.135 . S
O258 Co257 2.061 . S
O258 C261 1.235 . S
C259 O262 1.238 . S
C259 O263 1.241 . S
C260 O253 1.247 . S
C260 O254 1.261 . S
C261 O256 1.259 . S
C261 O258 1.235 . S
O262 Co252 2.021 . S
O262 C259 1.238 . S
O263 Co257 2.052 . S
O263 C259 1.241 . S
O264 Co252 2.137 . S
O264 C255 1.247 . S
O265 Co252 2.244 . S
O265 C255 1.272 . S
O265 Co257 2.135 . S
Co266 O267 2.216 . S
Co266 O268 2.091 . S
Co266 O270 2.004 . S
Co266 O276 2.021 . S
Co266 O278 2.137 . S
Co266 O279 2.244 . S
O267 Co266 2.216 . S
O267 C274 1.247 . S
O268 Co266 2.091 . S
O268 C274 1.261 . S
C269 O278 1.247 . S
C269 O279 1.272 . S
O270 Co266 2.004 . S
O270 C275 1.259 . S
Co271 O272 2.061 . S
Co271 O277 2.052 . S
Co271 O279 2.135 . S
O272 Co271 2.061 . S
O272 C275 1.235 . S
C273 O276 1.238 . S
C273 O277 1.241 . S
C274 O267 1.247 . S
C274 O268 1.261 . S
C275 O270 1.259 . S
C275 O272 1.235 . S
O276 Co266 2.021 . S
O276 C273 1.238 . S
O277 Co271 2.052 . S
O277 C273 1.241 . S
O278 Co266 2.137 . S
O278 C269 1.247 . S
O279 Co266 2.244 . S
O279 C269 1.272 . S
O279 Co271 2.135 . S
Co280 O281 2.216 . S
Co280 O282 2.091 . S
Co280 O284 2.004 . S
Co280 O290 2.021 . S
Co280 O292 2.137 . S
Co280 O293 2.244 . S
O281 Co280 2.216 . S
O281 C288 1.247 . S
O282 Co280 2.091 . S
O282 C288 1.261 . S
C283 O292 1.247 . S
C283 O293 1.272 . S
O284 Co280 2.004 . S
O284 C289 1.259 . S
Co285 O286 2.061 . S
Co285 O291 2.052 . S
Co285 O293 2.135 . S
O286 Co285 2.061 . S
O286 C289 1.235 . S
C287 O290 1.238 . S
C287 O291 1.241 . S
C288 O281 1.247 . S
C288 O282 1.261 . S
C289 O284 1.259 . S
C289 O286 1.235 . S
O290 Co280 2.021 . S
O290 C287 1.238 . S
O291 Co285 2.052 . S
O291 C287 1.241 . S
O292 Co280 2.137 . S
O292 C283 1.247 . S
O293 Co280 2.244 . S
O293 C283 1.272 . S
O293 Co285 2.135 . S
Co294 O295 2.216 . S
Co294 O296 2.091 . S
Co294 O298 2.004 . S
Co294 O304 2.021 . S
Co294 O306 2.137 . S
Co294 O307 2.244 . S
O295 Co294 2.216 . S
O295 C302 1.247 . S
O296 Co294 2.091 . S
O296 C302 1.261 . S
C297 O306 1.247 . S
C297 O307 1.272 . S
O298 Co294 2.004 . S
O298 C303 1.259 . S
Co299 O300 2.061 . S
Co299 O305 2.052 . S
Co299 O307 2.135 . S
O300 Co299 2.061 . S
O300 C303 1.235 . S
C301 O304 1.238 . S
C301 O305 1.241 . S
C302 O295 1.247 . S
C302 O296 1.261 . S
C303 O298 1.259 . S
C303 O300 1.235 . S
O304 Co294 2.021 . S
O304 C301 1.238 . S
O305 Co299 2.052 . S
O305 C301 1.241 . S
O306 Co294 2.137 . S
O306 C297 1.247 . S
O307 Co294 2.244 . S
O307 C297 1.272 . S
O307 Co299 2.135 . S
Co308 O309 2.216 . S
Co308 O310 2.091 . S
Co308 O312 2.004 . S
Co308 O318 2.021 . S
Co308 O320 2.137 . S
Co308 O321 2.244 . S
O309 Co308 2.216 . S
O309 C316 1.247 . S
O310 Co308 2.091 . S
O310 C316 1.261 . S
C311 O320 1.247 . S
C311 O321 1.272 . S
O312 Co308 2.004 . S
O312 C317 1.259 . S
Co313 O314 2.061 . S
Co313 O319 2.052 . S
Co313 O321 2.135 . S
O314 Co313 2.061 . S
O314 C317 1.235 . S
C315 O318 1.238 . S
C315 O319 1.241 . S
C316 O309 1.247 . S
C316 O310 1.261 . S
C317 O312 1.259 . S
C317 O314 1.235 . S
O318 Co308 2.021 . S
O318 C315 1.238 . S
O319 Co313 2.052 . S
O319 C315 1.241 . S
O320 Co308 2.137 . S
O320 C311 1.247 . S
O321 Co308 2.244 . S
O321 C311 1.272 . S
O321 Co313 2.135 . S
Co322 O323 2.216 . S
Co322 O324 2.091 . S
Co322 O326 2.004 . S
Co322 O332 2.021 . S
Co322 O334 2.137 . S
Co322 O335 2.244 . S
O323 Co322 2.216 . S
O323 C330 1.247 . S
O324 Co322 2.091 . S
O324 C330 1.261 . S
C325 O334 1.247 . S
C325 O335 1.272 . S
O326 Co322 2.004 . S
O326 C331 1.259 . S
Co327 O328 2.061 . S
Co327 O333 2.052 . S
Co327 O335 2.135 . S
O328 Co327 2.061 . S
O328 C331 1.235 . S
C329 O332 1.238 . S
C329 O333 1.241 . S
C330 O323 1.247 . S
C330 O324 1.261 . S
C331 O326 1.259 . S
C331 O328 1.235 . S
O332 Co322 2.021 . S
O332 C329 1.238 . S
O333 Co327 2.052 . S
O333 C329 1.241 . S
O334 Co322 2.137 . S
O334 C325 1.247 . S
O335 Co322 2.244 . S
O335 C325 1.272 . S
O335 Co327 2.135 . S
Co336 O337 2.216 . S
Co336 O338 2.091 . S
Co336 O340 2.004 . S
Co336 O346 2.021 . S
Co336 O348 2.137 . S
Co336 O349 2.244 . S
O337 Co336 2.216 . S
O337 C344 1.247 . S
O338 Co336 2.091 . S
O338 C344 1.261 . S
C339 O348 1.247 . S
C339 O349 1.272 . S
O340 Co336 2.004 . S
O340 C345 1.259 . S
Co341 O342 2.061 . S
Co341 O347 2.052 . S
Co341 O349 2.135 . S
O342 Co341 2.061 . S
O342 C345 1.235 . S
C343 O346 1.238 . S
C343 O347 1.241 . S
C344 O337 1.247 . S
C344 O338 1.261 . S
C345 O340 1.259 . S
C345 O342 1.235 . S
O346 Co336 2.021 . S
O346 C343 1.238 . S
O347 Co341 2.052 . S
O347 C343 1.241 . S
O348 Co336 2.137 . S
O348 C339 1.247 . S
O349 Co336 2.244 . S
O349 C339 1.272 . S
O349 Co341 2.135 . S
Co350 O351 2.216 . S
Co350 O352 2.091 . S
Co350 O354 2.004 . S
Co350 O360 2.021 . S
Co350 O362 2.137 . S
Co350 O363 2.244 . S
O351 Co350 2.216 . S
O351 C358 1.247 . S
O352 Co350 2.091 . S
O352 C358 1.261 . S
C353 O362 1.247 . S
C353 O363 1.272 . S
O354 Co350 2.004 . S
O354 C359 1.259 . S
Co355 O356 2.061 . S
Co355 O361 2.052 . S
Co355 O363 2.135 . S
O356 Co355 2.061 . S
O356 C359 1.235 . S
C357 O360 1.238 . S
C357 O361 1.241 . S
C358 O351 1.247 . S
C358 O352 1.261 . S
C359 O354 1.259 . S
C359 O356 1.235 . S
O360 Co350 2.021 . S
O360 C357 1.238 . S
O361 Co355 2.052 . S
O361 C357 1.241 . S
O362 Co350 2.137 . S
O362 C353 1.247 . S
O363 Co350 2.244 . S
O363 C353 1.272 . S
O363 Co355 2.135 . S
Co364 O365 2.216 . S
Co364 O366 2.091 . S
Co364 O368 2.004 . S
Co364 O374 2.021 . S
Co364 O376 2.137 . S
Co364 O377 2.244 . S
O365 Co364 2.216 . S
O365 C372 1.247 . S
O366 Co364 2.091 . S
O366 C372 1.261 . S
C367 O376 1.247 . S
C367 O377 1.272 . S
O368 Co364 2.004 . S
O368 C373 1.259 . S
Co369 O370 2.061 . S
Co369 O375 2.052 . S
Co369 O377 2.135 . S
O370 Co369 2.061 . S
O370 C373 1.235 . S
C371 O374 1.238 . S
C371 O375 1.241 . S
C372 O365 1.247 . S
C372 O366 1.261 . S
C373 O368 1.259 . S
C373 O370 1.235 . S
O374 Co364 2.021 . S
O374 C371 1.238 . S
O375 Co369 2.052 . S
O375 C371 1.241 . S
O376 Co364 2.137 . S
O376 C367 1.247 . S
O377 Co364 2.244 . S
O377 C367 1.272 . S
O377 Co369 2.135 . S
Co378 O379 2.216 . S
Co378 O380 2.091 . S
Co378 O382 2.004 . S
Co378 O388 2.021 . S
Co378 O390 2.137 . S
Co378 O391 2.244 . S
O379 Co378 2.216 . S
O379 C386 1.247 . S
O380 Co378 2.091 . S
O380 C386 1.261 . S
C381 O390 1.247 . S
C381 O391 1.272 . S
O382 Co378 2.004 . S
O382 C387 1.259 . S
Co383 O384 2.061 . S
Co383 O389 2.052 . S
Co383 O391 2.135 . S
O384 Co383 2.061 . S
O384 C387 1.235 . S
C385 O388 1.238 . S
C385 O389 1.241 . S
C386 O379 1.247 . S
C386 O380 1.261 . S
C387 O382 1.259 . S
C387 O384 1.235 . S
O388 Co378 2.021 . S
O388 C385 1.238 . S
O389 Co383 2.052 . S
O389 C385 1.241 . S
O390 Co378 2.137 . S
O390 C381 1.247 . S
O391 Co378 2.244 . S
O391 C381 1.272 . S
O391 Co383 2.135 . S
Co392 O393 2.216 . S
Co392 O394 2.091 . S
Co392 O396 2.004 . S
Co392 O402 2.021 . S
Co392 O404 2.137 . S
Co392 O405 2.244 . S
O393 Co392 2.216 . S
O393 C400 1.247 . S
O394 Co392 2.091 . S
O394 C400 1.261 . S
C395 O404 1.247 . S
C395 O405 1.272 . S
O396 Co392 2.004 . S
O396 C401 1.259 . S
Co397 O398 2.061 . S
Co397 O403 2.052 . S
Co397 O405 2.135 . S
O398 Co397 2.061 . S
O398 C401 1.235 . S
C399 O402 1.238 . S
C399 O403 1.241 . S
C400 O393 1.247 . S
C400 O394 1.261 . S
C401 O396 1.259 . S
C401 O398 1.235 . S
O402 Co392 2.021 . S
O402 C399 1.238 . S
O403 Co397 2.052 . S
O403 C399 1.241 . S
O404 Co392 2.137 . S
O404 C395 1.247 . S
O405 Co392 2.244 . S
O405 C395 1.272 . S
O405 Co397 2.135 . S
Co406 O407 2.216 . S
Co406 O408 2.091 . S
Co406 O410 2.004 . S
Co406 O416 2.021 . S
Co406 O418 2.137 . S
Co406 O419 2.244 . S
O407 Co406 2.216 . S
O407 C414 1.247 . S
O408 Co406 2.091 . S
O408 C414 1.261 . S
C409 O418 1.247 . S
C409 O419 1.272 . S
O410 Co406 2.004 . S
O410 C415 1.259 . S
Co411 O412 2.061 . S
Co411 O417 2.052 . S
Co411 O419 2.135 . S
O412 Co411 2.061 . S
O412 C415 1.235 . S
C413 O416 1.238 . S
C413 O417 1.241 . S
C414 O407 1.247 . S
C414 O408 1.261 . S
C415 O410 1.259 . S
C415 O412 1.235 . S
O416 Co406 2.021 . S
O416 C413 1.238 . S
O417 Co411 2.052 . S
O417 C413 1.241 . S
O418 Co406 2.137 . S
O418 C409 1.247 . S
O419 Co406 2.244 . S
O419 C409 1.272 . S
O419 Co411 2.135 . S
Co420 O421 2.216 . S
Co420 O422 2.091 . S
Co420 O424 2.004 . S
Co420 O430 2.021 . S
Co420 O432 2.137 . S
Co420 O433 2.244 . S
O421 Co420 2.216 . S
O421 C428 1.247 . S
O422 Co420 2.091 . S
O422 C428 1.261 . S
C423 O432 1.247 . S
C423 O433 1.272 . S
O424 Co420 2.004 . S
O424 C429 1.259 . S
Co425 O426 2.061 . S
Co425 O431 2.052 . S
Co425 O433 2.135 . S
O426 Co425 2.061 . S
O426 C429 1.235 . S
C427 O430 1.238 . S
C427 O431 1.241 . S
C428 O421 1.247 . S
C428 O422 1.261 . S
C429 O424 1.259 . S
C429 O426 1.235 . S
O430 Co420 2.021 . S
O430 C427 1.238 . S
O431 Co425 2.052 . S
O431 C427 1.241 . S
O432 Co420 2.137 . S
O432 C423 1.247 . S
O433 Co420 2.244 . S
O433 C423 1.272 . S
O433 Co425 2.135 . S
Co434 O435 2.216 . S
Co434 O436 2.091 . S
Co434 O438 2.004 . S
Co434 O444 2.021 . S
Co434 O446 2.137 . S
Co434 O447 2.244 . S
O435 Co434 2.216 . S
O435 C442 1.247 . S
O436 Co434 2.091 . S
O436 C442 1.261 . S
C437 O446 1.247 . S
C437 O447 1.272 . S
O438 Co434 2.004 . S
O438 C443 1.259 . S
Co439 O440 2.061 . S
Co439 O445 2.052 . S
Co439 O447 2.135 . S
O440 Co439 2.061 . S
O440 C443 1.235 . S
C441 O444 1.238 . S
C441 O445 1.241 . S
C442 O435 1.247 . S
C442 O436 1.261 . S
C443 O438 1.259 . S
C443 O440 1.235 . S
O444 Co434 2.021 . S
O444 C441 1.238 . S
O445 Co439 2.052 . S
O445 C441 1.241 . S
O446 Co434 2.137 . S
O446 C437 1.247 . S
O447 Co434 2.244 . S
O447 C437 1.272 . S
O447 Co439 2.135 . S
Co448 O449 2.216 . S
Co448 O450 2.091 . S
Co448 O452 2.004 . S
Co448 O458 2.021 . S
Co448 O460 2.137 . S
Co448 O461 2.244 . S
O449 Co448 2.216 . S
O449 C456 1.247 . S
O450 Co448 2.091 . S
O450 C456 1.261 . S
C451 O460 1.247 . S
C451 O461 1.272 . S
O452 Co448 2.004 . S
O452 C457 1.259 . S
Co453 O454 2.061 . S
Co453 O459 2.052 . S
Co453 O461 2.135 . S
O454 Co453 2.061 . S
O454 C457 1.235 . S
C455 O458 1.238 . S
C455 O459 1.241 . S
C456 O449 1.247 . S
C456 O450 1.261 . S
C457 O452 1.259 . S
C457 O454 1.235 . S
O458 Co448 2.021 . S
O458 C455 1.238 . S
O459 Co453 2.052 . S
O459 C455 1.241 . S
O460 Co448 2.137 . S
O460 C451 1.247 . S
O461 Co448 2.244 . S
O461 C451 1.272 . S
O461 Co453 2.135 . S
Co462 O463 2.216 . S
Co462 O464 2.091 . S
Co462 O466 2.004 . S
Co462 O472 2.021 . S
Co462 O474 2.137 . S
Co462 O475 2.244 . S
O463 Co462 2.216 . S
O463 C470 1.247 . S
O464 Co462 2.091 . S
O464 C470 1.261 . S
C465 O474 1.247 . S
C465 O475 1.272 . S
O466 Co462 2.004 . S
O466 C471 1.259 . S
Co467 O468 2.061 . S
Co467 O473 2.052 . S
Co467 O475 2.135 . S
O468 Co467 2.061 . S
O468 C471 1.235 . S
C469 O472 1.238 . S
C469 O473 1.241 . S
C470 O463 1.247 . S
C470 O464 1.261 . S
C471 O466 1.259 . S
C471 O468 1.235 . S
O472 Co462 2.021 . S
O472 C469 1.238 . S
O473 Co467 2.052 . S
O473 C469 1.241 . S
O474 Co462 2.137 . S
O474 C465 1.247 . S
O475 Co462 2.244 . S
O475 C465 1.272 . S
O475 Co467 2.135 . S
Co476 O477 2.216 . S
Co476 O478 2.091 . S
Co476 O480 2.004 . S
Co476 O486 2.021 . S
Co476 O488 2.137 . S
Co476 O489 2.244 . S
O477 Co476 2.216 . S
O477 C484 1.247 . S
O478 Co476 2.091 . S
O478 C484 1.261 . S
C479 O488 1.247 . S
C479 O489 1.272 . S
O480 Co476 2.004 . S
O480 C485 1.259 . S
Co481 O482 2.061 . S
Co481 O487 2.052 . S
Co481 O489 2.135 . S
O482 Co481 2.061 . S
O482 C485 1.235 . S
C483 O486 1.238 . S
C483 O487 1.241 . S
C484 O477 1.247 . S
C484 O478 1.261 . S
C485 O480 1.259 . S
C485 O482 1.235 . S
O486 Co476 2.021 . S
O486 C483 1.238 . S
O487 Co481 2.052 . S
O487 C483 1.241 . S
O488 Co476 2.137 . S
O488 C479 1.247 . S
O489 Co476 2.244 . S
O489 C479 1.272 . S
O489 Co481 2.135 . S
Co490 O491 2.216 . S
Co490 O492 2.091 . S
Co490 O494 2.004 . S
Co490 O500 2.021 . S
Co490 O502 2.137 . S
Co490 O503 2.244 . S
O491 Co490 2.216 . S
O491 C498 1.247 . S
O492 Co490 2.091 . S
O492 C498 1.261 . S
C493 O502 1.247 . S
C493 O503 1.272 . S
O494 Co490 2.004 . S
O494 C499 1.259 . S
Co495 O496 2.061 . S
Co495 O501 2.052 . S
Co495 O503 2.135 . S
O496 Co495 2.061 . S
O496 C499 1.235 . S
C497 O500 1.238 . S
C497 O501 1.241 . S
C498 O491 1.247 . S
C498 O492 1.261 . S
C499 O494 1.259 . S
C499 O496 1.235 . S
O500 Co490 2.021 . S
O500 C497 1.238 . S
O501 Co495 2.052 . S
O501 C497 1.241 . S
O502 Co490 2.137 . S
O502 C493 1.247 . S
O503 Co490 2.244 . S
O503 C493 1.272 . S
O503 Co495 2.135 . S
H504 C510 0.930 . S
H505 C514 0.930 . S
H506 C519 0.929 . S
H507 C517 0.929 . S
H508 C512 0.929 . S
H509 C518 0.929 1_556 S
C510 H504 0.930 . S
C510 C511 1.367 . S
C510 C518 1.378 . S
C511 C510 1.367 . S
C511 C519 1.433 . S
C512 H508 0.929 . S
C512 C514 1.374 1_554 S
C512 C516 1.353 1_564 S
C513 C516 1.463 1_554 S
C513 C518 1.350 . S
C513 N521 1.427 . S
C514 H505 0.930 . S
C514 C512 1.374 1_556 S
C514 C515 1.367 . S
C515 C514 1.367 . S
C515 C517 1.433 1_565 S
C516 C512 1.353 1_546 S
C516 C513 1.463 1_556 S
C516 N520 1.427 . S
C517 H507 0.929 . S
C517 C515 1.433 1_545 S
C517 N520 1.384 . S
C518 H509 0.929 1_554 S
C518 C510 1.378 . S
C518 C513 1.350 . S
C519 H506 0.929 . S
C519 C511 1.433 . S
C519 N521 1.384 . S
N520 C516 1.427 . S
N520 C517 1.384 . S
N521 C513 1.427 . S
N521 C519 1.384 . S
H522 C528 0.930 . S
H523 C532 0.930 . S
H524 C537 0.929 . S
H525 C535 0.929 1_554 S
H526 C530 0.929 . S
H527 C536 0.929 . S
C528 H522 0.930 . S
C528 C529 1.367 . S
C528 C536 1.378 . S
C529 C528 1.367 . S
C529 C537 1.433 . S
C530 H526 0.929 . S
C530 C532 1.378 . S
C530 C534 1.350 . S
C531 C534 1.463 1_554 S
C531 C536 1.350 . S
C531 N539 1.427 . S
C532 H523 0.930 . S
C532 C530 1.378 . S
C532 C533 1.367 1_655 S
C533 C532 1.367 1_455 S
C533 C535 1.433 . S
C534 C530 1.350 . S
C534 C531 1.463 1_556 S
C534 N538 1.437 1_556 S
C535 H525 0.929 1_556 S
C535 C533 1.433 . S
C535 N538 1.375 1_456 S
C536 H527 0.929 . S
C536 C528 1.378 . S
C536 C531 1.350 . S
C537 H524 0.929 . S
C537 C529 1.433 . S
C537 N539 1.384 . S
N538 C534 1.437 1_554 S
N538 C535 1.375 1_654 S
N539 C531 1.427 . S
N539 C537 1.384 . S
H540 C546 0.930 . S
H541 C550 0.930 . S
H542 C555 0.929 . S
H543 C553 0.929 . S
H544 C548 0.929 . S
H545 C554 0.929 . S
C546 H540 0.930 . S
C546 C547 1.367 . S
C546 C554 1.378 . S
C547 C546 1.367 . S
C547 C555 1.433 . S
C548 H544 0.929 . S
C548 C550 1.378 . S
C548 C552 1.350 . S
C549 C552 1.463 1_556 S
C549 C554 1.350 . S
C549 N557 1.427 1_556 S
C550 H541 0.930 . S
C550 C548 1.378 . S
C550 C551 1.367 . S
C551 C550 1.367 . S
C551 C553 1.433 . S
C552 C548 1.350 . S
C552 C549 1.463 1_554 S
C552 N556 1.427 . S
C553 H543 0.929 . S
C553 C551 1.433 . S
C553 N556 1.384 . S
C554 H545 0.929 . S
C554 C546 1.378 . S
C554 C549 1.350 . S
C555 H542 0.929 . S
C555 C547 1.433 . S
C555 N557 1.384 1_556 S
N556 C552 1.427 . S
N556 C553 1.384 . S
N557 C549 1.427 1_554 S
N557 C555 1.384 1_554 S
H558 C564 0.930 . S
H559 C568 0.930 . S
H560 C573 0.929 . S
H561 C571 0.929 . S
H562 C566 0.929 . S
H563 C572 0.929 . S
C564 H558 0.930 . S
C564 C565 1.367 . S
C564 C572 1.378 1_655 S
C565 C564 1.367 . S
C565 C573 1.433 . S
C566 H562 0.929 . S
C566 C568 1.378 . S
C566 C570 1.350 . S
C567 C570 1.463 . S
C567 C572 1.350 . S
C567 N575 1.427 . S
C568 H559 0.930 . S
C568 C566 1.378 . S
C568 C569 1.367 . S
C569 C568 1.367 . S
C569 C571 1.433 . S
C570 C566 1.350 . S
C570 C567 1.463 . S
C570 N574 1.427 . S
C571 H561 0.929 . S
C571 C569 1.433 . S
C571 N574 1.384 . S
C572 H563 0.929 . S
C572 C564 1.378 1_455 S
C572 C567 1.350 . S
C573 H560 0.929 . S
C573 C565 1.433 . S
C573 N575 1.384 1_655 S
N574 C570 1.427 . S
N574 C571 1.384 . S
N575 C567 1.427 . S
N575 C573 1.384 1_455 S
H576 C582 0.930 . S
H577 C586 0.930 . S
H578 C591 0.929 . S
H579 C589 0.929 . S
H580 C584 0.929 . S
H581 C590 0.929 . S
C582 H576 0.930 . S
C582 C583 1.367 . S
C582 C590 1.378 . S
C583 C582 1.367 . S
C583 C591 1.433 . S
C584 H580 0.929 . S
C584 C586 1.378 . S
C584 C588 1.350 . S
C585 C588 1.463 . S
C585 C590 1.350 . S
C585 N593 1.427 . S
C586 H577 0.930 . S
C586 C584 1.378 . S
C586 C587 1.367 . S
C587 C586 1.367 . S
C587 C589 1.433 . S
C588 C584 1.350 . S
C588 C585 1.463 . S
C588 N592 1.427 . S
C589 H579 0.929 . S
C589 C587 1.433 . S
C589 N592 1.384 . S
C590 H581 0.929 . S
C590 C582 1.378 . S
C590 C585 1.350 . S
C591 H578 0.929 . S
C591 C583 1.433 . S
C591 N593 1.384 . S
N592 C588 1.427 . S
N592 C589 1.384 . S
N593 C585 1.427 . S
N593 C591 1.384 . S
H594 C600 0.930 . S
H595 C604 0.930 . S
H596 C609 0.929 . S
H597 C607 0.929 . S
H598 C602 0.929 . S
H599 C608 0.929 . S
C600 H594 0.930 . S
C600 C601 1.367 . S
C600 C608 1.378 . S
C601 C600 1.367 . S
C601 C609 1.433 . S
C602 H598 0.929 . S
C602 C604 1.378 1_565 S
C602 C606 1.350 . S
C603 C606 1.463 . S
C603 C608 1.350 . S
C603 N611 1.427 . S
C604 H595 0.930 . S
C604 C602 1.378 1_545 S
C604 C605 1.367 . S
C605 C604 1.367 . S
C605 C607 1.433 . S
C606 C602 1.350 . S
C606 C603 1.463 . S
C606 N610 1.427 . S
C607 H597 0.929 . S
C607 C605 1.433 . S
C607 N610 1.384 1_545 S
C608 H599 0.929 . S
C608 C600 1.378 . S
C608 C603 1.350 . S
C609 H596 0.929 . S
C609 C601 1.433 . S
C609 N611 1.384 . S
N610 C606 1.427 . S
N610 C607 1.384 1_565 S
N611 C603 1.427 . S
N611 C609 1.384 . S
H612 C618 0.930 . S
H613 C622 0.930 . S
H614 C627 0.929 . S
H615 C625 0.929 . S
H616 C620 0.929 . S
H617 C626 0.929 . S
C618 H612 0.930 . S
C618 C619 1.367 1_565 S
C618 C626 1.378 . S
C619 C618 1.367 1_545 S
C619 C627 1.433 . S
C620 H616 0.929 . S
C620 C622 1.378 . S
C620 C624 1.350 . S
C621 C624 1.463 1_554 S
C621 C626 1.350 . S
C621 N629 1.427 1_554 S
C622 H613 0.930 . S
C622 C620 1.378 . S
C622 C623 1.367 . S
C623 C622 1.367 . S
C623 C625 1.433 . S
C624 C620 1.350 . S
C624 C621 1.463 1_556 S
C624 N628 1.427 . S
C625 H615 0.929 . S
C625 C623 1.433 . S
C625 N628 1.384 . S
C626 H617 0.929 . S
C626 C618 1.378 . S
C626 C621 1.350 . S
C627 H614 0.929 . S
C627 C619 1.433 . S
C627 N629 1.384 1_544 S
N628 C624 1.427 . S
N628 C625 1.384 . S
N629 C621 1.427 1_556 S
N629 C627 1.384 1_566 S
H630 C636 0.930 . S
H631 C640 0.930 . S
H632 C645 0.929 . S
H633 C643 0.929 . S
H634 C638 0.929 1_554 S
H635 C644 0.929 . S
C636 H630 0.930 . S
C636 C637 1.367 . S
C636 C644 1.378 1_654 S
C637 C636 1.367 . S
C637 C645 1.433 . S
C638 H634 0.929 1_556 S
C638 C640 1.378 . S
C638 C642 1.350 . S
C639 C642 1.463 1_554 S
C639 C644 1.350 1_554 S
C639 N647 1.427 . S
C640 H631 0.930 . S
C640 C638 1.378 . S
C640 C641 1.367 . S
C641 C640 1.367 . S
C641 C643 1.433 . S
C642 C638 1.350 . S
C642 C639 1.463 1_556 S
C642 N646 1.427 . S
C643 H633 0.929 . S
C643 C641 1.433 . S
C643 N646 1.384 . S
C644 H635 0.929 . S
C644 C636 1.378 1_456 S
C644 C639 1.350 1_556 S
C645 H632 0.929 . S
C645 C637 1.433 . S
C645 N647 1.384 1_655 S
N646 C642 1.427 . S
N646 C643 1.384 . S
N647 C639 1.427 . S
N647 C645 1.384 1_455 S
H648 C654 0.930 . S
H649 C658 0.930 . S
H650 C663 0.929 . S
H651 C661 0.929 . S
H652 C656 0.929 1_556 S
H653 C662 0.929 . S
C654 H648 0.930 . S
C654 C655 1.367 . S
C654 C662 1.378 . S
C655 C654 1.367 . S
C655 C663 1.433 . S
C656 H652 0.929 1_554 S
C656 C658 1.378 . S
C656 C660 1.350 . S
C657 C660 1.463 1_556 S
C657 C662 1.350 . S
C657 N665 1.427 . S
C658 H649 0.930 . S
C658 C656 1.378 . S
C658 C659 1.367 . S
C659 C658 1.367 . S
C659 C661 1.433 . S
C660 C656 1.350 . S
C660 C657 1.463 1_554 S
C660 N664 1.427 . S
C661 H651 0.929 . S
C661 C659 1.433 . S
C661 N664 1.384 . S
C662 H653 0.929 . S
C662 C654 1.378 . S
C662 C657 1.350 . S
C663 H650 0.929 . S
C663 C655 1.433 . S
C663 N665 1.384 . S
N664 C660 1.427 . S
N664 C661 1.384 . S
N665 C657 1.427 . S
N665 C663 1.384 . S
H666 C672 0.930 . S
H667 C676 0.930 . S
H668 C681 0.929 . S
H669 C679 0.929 . S
H670 C674 0.929 . S
H671 C680 0.929 . S
C672 H666 0.930 . S
C672 C673 1.367 . S
C672 C680 1.378 . S
C673 C672 1.367 . S
C673 C681 1.433 . S
C674 H670 0.929 . S
C674 C676 1.378 . S
C674 C678 1.350 . S
C675 C678 1.463 . S
C675 C680 1.350 . S
C675 N683 1.427 . S
C676 H667 0.930 . S
C676 C674 1.378 . S
C676 C677 1.367 1_655 S
C677 C676 1.367 1_455 S
C677 C679 1.433 . S
C678 C674 1.350 . S
C678 C675 1.463 . S
C678 N682 1.474 . S
C679 H669 0.929 . S
C679 C677 1.433 . S
C679 N682 1.342 1_455 S
C680 H671 0.929 . S
C680 C672 1.378 . S
C680 C675 1.350 . S
C681 H668 0.929 . S
C681 C673 1.433 . S
C681 N683 1.384 . S
N682 C678 1.474 . S
N682 C679 1.342 1_655 S
N683 C675 1.427 . S
N683 C681 1.384 . S
H684 C690 0.930 . S
H685 C694 0.930 . S
H686 C699 0.929 . S
H687 C697 0.929 . S
H688 C692 0.929 . S
H689 C698 0.929 . S
C690 H684 0.930 . S
C690 C691 1.367 . S
C690 C698 1.378 . S
C691 C690 1.367 . S
C691 C699 1.433 . S
C692 H688 0.929 . S
C692 C694 1.378 . S
C692 C696 1.350 . S
C693 C696 1.463 . S
C693 C698 1.350 . S
C693 N701 1.427 . S
C694 H685 0.930 . S
C694 C692 1.378 . S
C694 C695 1.367 . S
C695 C694 1.367 . S
C695 C697 1.433 . S
C696 C692 1.350 . S
C696 C693 1.463 . S
C696 N700 1.427 . S
C697 H687 0.929 . S
C697 C695 1.433 . S
C697 N700 1.384 . S
C698 H689 0.929 . S
C698 C690 1.378 . S
C698 C693 1.350 . S
C699 H686 0.929 . S
C699 C691 1.433 . S
C699 N701 1.384 . S
N700 C696 1.427 . S
N700 C697 1.384 . S
N701 C693 1.427 . S
N701 C699 1.384 . S
H702 C708 0.930 . S
H703 C712 0.930 . S
H704 C717 0.929 . S
H705 C715 0.929 . S
H706 C710 0.930 . S
H707 C716 0.929 . S
C708 H702 0.930 . S
C708 C709 1.367 . S
C708 C716 1.378 . S
C709 C708 1.367 . S
C709 C717 1.433 . S
C710 H706 0.930 . S
C710 C712 1.384 . S
C710 C714 1.342 1_565 S
C711 C714 1.463 . S
C711 C716 1.350 . S
C711 N719 1.427 . S
C712 H703 0.930 . S
C712 C710 1.384 . S
C712 C713 1.367 . S
C713 C712 1.367 . S
C713 C715 1.433 1_565 S
C714 C710 1.342 1_545 S
C714 C711 1.463 . S
C714 N718 1.427 . S
C715 H705 0.929 . S
C715 C713 1.433 1_545 S
C715 N718 1.384 . S
C716 H707 0.929 . S
C716 C708 1.378 . S
C716 C711 1.350 . S
C717 H704 0.929 . S
C717 C709 1.433 . S
C717 N719 1.384 . S
N718 C714 1.427 . S
N718 C715 1.384 . S
N719 C711 1.427 . S
N719 C717 1.384 . S
H720 C726 0.930 . S
H721 C730 0.930 . S
H722 C735 0.929 . S
H723 C733 0.929 . S
H724 C728 0.929 . S
H725 C734 0.929 . S
C726 H720 0.930 . S
C726 C727 1.367 . S
C726 C734 1.378 . S
C727 C726 1.367 . S
C727 C735 1.433 . S
C728 H724 0.929 . S
C728 C730 1.378 . S
C728 C732 1.350 . S
C729 C732 1.463 . S
C729 C734 1.350 . S
C729 N737 1.427 . S
C730 H721 0.930 . S
C730 C728 1.378 . S
C730 C731 1.367 . S
C731 C730 1.367 . S
C731 C733 1.433 . S
C732 C728 1.350 . S
C732 C729 1.463 . S
C732 N736 1.427 . S
C733 H723 0.929 . S
C733 C731 1.433 . S
C733 N736 1.384 . S
C734 H725 0.929 . S
C734 C726 1.378 . S
C734 C729 1.350 . S
C735 H722 0.929 . S
C735 C727 1.433 . S
C735 N737 1.384 . S
N736 C732 1.427 . S
N736 C733 1.384 . S
N737 C729 1.427 . S
N737 C735 1.384 . S
H738 C744 0.930 . S
H739 C748 0.930 . S
H740 C753 0.929 . S
H741 C751 0.929 . S
H742 C746 0.929 . S
H743 C752 0.929 . S
C744 H738 0.930 . S
C744 C745 1.367 . S
C744 C752 1.378 . S
C745 C744 1.367 . S
C745 C753 1.433 . S
C746 H742 0.929 . S
C746 C748 1.378 . S
C746 C750 1.350 . S
C747 C750 1.463 . S
C747 C752 1.350 . S
C747 N755 1.427 . S
C748 H739 0.930 . S
C748 C746 1.378 . S
C748 C749 1.367 . S
C749 C748 1.367 . S
C749 C751 1.433 . S
C750 C746 1.350 . S
C750 C747 1.463 . S
C750 N754 1.427 . S
C751 H741 0.929 . S
C751 C749 1.433 . S
C751 N754 1.384 . S
C752 H743 0.929 . S
C752 C744 1.378 . S
C752 C747 1.350 . S
C753 H740 0.929 . S
C753 C745 1.433 . S
C753 N755 1.384 . S
N754 C750 1.427 . S
N754 C751 1.384 . S
N755 C747 1.427 . S
N755 C753 1.384 . S
H756 C762 0.930 . S
H757 C766 0.930 . S
H758 C771 0.929 . S
H759 C769 0.929 . S
H760 C764 0.929 . S
H761 C770 0.929 . S
C762 H756 0.930 . S
C762 C763 1.367 . S
C762 C770 1.378 . S
C763 C762 1.367 . S
C763 C771 1.433 . S
C764 H760 0.929 . S
C764 C766 1.378 . S
C764 C768 1.350 . S
C765 C768 1.463 . S
C765 C770 1.350 . S
C765 N773 1.427 . S
C766 H757 0.930 . S
C766 C764 1.378 . S
C766 C767 1.367 . S
C767 C766 1.367 . S
C767 C769 1.433 . S
C768 C764 1.350 . S
C768 C765 1.463 . S
C768 N772 1.427 . S
C769 H759 0.929 . S
C769 C767 1.433 . S
C769 N772 1.384 . S
C770 H761 0.929 . S
C770 C762 1.378 . S
C770 C765 1.350 . S
C771 H758 0.929 . S
C771 C763 1.433 . S
C771 N773 1.384 . S
N772 C768 1.427 . S
N772 C769 1.384 . S
N773 C765 1.427 . S
N773 C771 1.384 . S
H774 C780 0.930 . S
H775 C784 0.930 . S
H776 C789 0.929 . S
H777 C787 0.929 . S
H778 C782 0.929 . S
H779 C788 0.929 . S
C780 H774 0.930 . S
C780 C781 1.367 . S
C780 C788 1.378 . S
C781 C780 1.367 . S
C781 C789 1.433 . S
C782 H778 0.929 . S
C782 C784 1.378 . S
C782 C786 1.350 . S
C783 C786 1.463 . S
C783 C788 1.350 . S
C783 N791 1.427 . S
C784 H775 0.930 . S
C784 C782 1.378 . S
C784 C785 1.367 . S
C785 C784 1.367 . S
C785 C787 1.433 . S
C786 C782 1.350 . S
C786 C783 1.463 . S
C786 N790 1.427 . S
C787 H777 0.929 . S
C787 C785 1.433 . S
C787 N790 1.384 . S
C788 H779 0.929 . S
C788 C780 1.378 . S
C788 C783 1.350 . S
C789 H776 0.929 . S
C789 C781 1.433 . S
C789 N791 1.384 . S
N790 C786 1.427 . S
N790 C787 1.384 . S
N791 C783 1.427 . S
N791 C789 1.384 . S
H792 C798 0.930 . S
H793 C802 0.930 . S
H794 C807 0.929 . S
H795 C805 0.929 . S
H796 C800 0.929 . S
H797 C806 0.929 . S
C798 H792 0.930 . S
C798 C799 1.367 . S
C798 C806 1.378 . S
C799 C798 1.367 . S
C799 C807 1.433 . S
C800 H796 0.929 . S
C800 C802 1.378 . S
C800 C804 1.350 . S
C801 C804 1.463 . S
C801 C806 1.350 . S
C801 N809 1.427 . S
C802 H793 0.930 . S
C802 C800 1.378 . S
C802 C803 1.367 . S
C803 C802 1.367 . S
C803 C805 1.433 . S
C804 C800 1.350 . S
C804 C801 1.463 . S
C804 N808 1.427 . S
C805 H795 0.929 . S
C805 C803 1.433 . S
C805 N808 1.384 . S
C806 H797 0.929 . S
C806 C798 1.378 . S
C806 C801 1.350 . S
C807 H794 0.929 . S
C807 C799 1.433 . S
C807 N809 1.384 . S
N808 C804 1.427 . S
N808 C805 1.384 . S
N809 C801 1.427 . S
N809 C807 1.384 . S
H810 C816 0.930 . S
H811 C820 0.930 . S
H812 C825 0.929 . S
H813 C823 0.929 . S
H814 C818 0.929 . S
H815 C824 0.929 . S
C816 H810 0.930 . S
C816 C817 1.367 . S
C816 C824 1.378 . S
C817 C816 1.367 . S
C817 C825 1.433 . S
C818 H814 0.929 . S
C818 C820 1.378 . S
C818 C822 1.350 . S
C819 C822 1.463 . S
C819 C824 1.350 . S
C819 N827 1.427 . S
C820 H811 0.930 . S
C820 C818 1.378 . S
C820 C821 1.367 . S
C821 C820 1.367 . S
C821 C823 1.433 . S
C822 C818 1.350 . S
C822 C819 1.463 . S
C822 N826 1.427 . S
C823 H813 0.929 . S
C823 C821 1.433 . S
C823 N826 1.384 . S
C824 H815 0.929 . S
C824 C816 1.378 . S
C824 C819 1.350 . S
C825 H812 0.929 . S
C825 C817 1.433 . S
C825 N827 1.384 . S
N826 C822 1.427 . S
N826 C823 1.384 . S
N827 C819 1.427 . S
N827 C825 1.384 . S
H828 C834 0.930 . S
H829 C838 0.930 . S
H830 C843 0.929 . S
H831 C841 0.929 . S
H832 C836 0.929 . S
H833 C842 0.929 . S
C834 H828 0.930 . S
C834 C835 1.367 . S
C834 C842 1.378 . S
C835 C834 1.367 . S
C835 C843 1.433 . S
C836 H832 0.929 . S
C836 C838 1.378 . S
C836 C840 1.350 . S
C837 C840 1.463 . S
C837 C842 1.350 . S
C837 N845 1.427 . S
C838 H829 0.930 . S
C838 C836 1.378 . S
C838 C839 1.367 . S
C839 C838 1.367 . S
C839 C841 1.433 . S
C840 C836 1.350 . S
C840 C837 1.463 . S
C840 N844 1.427 . S
C841 H831 0.929 . S
C841 C839 1.433 . S
C841 N844 1.384 . S
C842 H833 0.929 . S
C842 C834 1.378 . S
C842 C837 1.350 . S
C843 H830 0.929 . S
C843 C835 1.433 . S
C843 N845 1.384 . S
N844 C840 1.427 . S
N844 C841 1.384 . S
N845 C837 1.427 . S
N845 C843 1.384 . S
H846 C852 0.930 . S
H847 C856 0.930 . S
H848 C861 0.929 . S
H849 C859 0.929 . S
H850 C854 0.929 . S
H851 C860 0.929 . S
C852 H846 0.930 . S
C852 C853 1.367 . S
C852 C860 1.378 . S
C853 C852 1.367 . S
C853 C861 1.433 . S
C854 H850 0.929 . S
C854 C856 1.378 . S
C854 C858 1.350 . S
C855 C858 1.463 . S
C855 C860 1.350 . S
C855 N863 1.427 . S
C856 H847 0.930 . S
C856 C854 1.378 . S
C856 C857 1.367 . S
C857 C856 1.367 . S
C857 C859 1.433 . S
C858 C854 1.350 . S
C858 C855 1.463 . S
C858 N862 1.427 . S
C859 H849 0.929 . S
C859 C857 1.433 . S
C859 N862 1.384 . S
C860 H851 0.929 . S
C860 C852 1.378 . S
C860 C855 1.350 . S
C861 H848 0.929 . S
C861 C853 1.433 . S
C861 N863 1.384 . S
N862 C858 1.427 . S
N862 C859 1.384 . S
N863 C855 1.427 . S
N863 C861 1.384 . S
H864 C870 0.930 . S
H865 C874 0.930 . S
H866 C879 0.929 . S
H867 C877 0.929 . S
H868 C872 0.929 . S
H869 C878 0.929 . S
C870 H864 0.930 . S
C870 C871 1.367 . S
C870 C878 1.378 . S
C871 C870 1.367 . S
C871 C879 1.433 . S
C872 H868 0.929 . S
C872 C874 1.378 . S
C872 C876 1.350 . S
C873 C876 1.463 . S
C873 C878 1.350 . S
C873 N881 1.427 . S
C874 H865 0.930 . S
C874 C872 1.378 . S
C874 C875 1.367 . S
C875 C874 1.367 . S
C875 C877 1.433 . S
C876 C872 1.350 . S
C876 C873 1.463 . S
C876 N880 1.427 . S
C877 H867 0.929 . S
C877 C875 1.433 . S
C877 N880 1.384 . S
C878 H869 0.929 . S
C878 C870 1.378 . S
C878 C873 1.350 . S
C879 H866 0.929 . S
C879 C871 1.433 . S
C879 N881 1.384 . S
N880 C876 1.427 . S
N880 C877 1.384 . S
N881 C873 1.427 . S
N881 C879 1.384 . S
H882 C888 0.930 . S
H883 C892 0.930 . S
H884 C897 0.929 . S
H885 C895 0.929 . S
H886 C890 0.929 . S
H887 C896 0.929 . S
C888 H882 0.930 . S
C888 C889 1.367 . S
C888 C896 1.378 . S
C889 C888 1.367 . S
C889 C897 1.433 . S
C890 H886 0.929 . S
C890 C892 1.378 . S
C890 C894 1.350 . S
C891 C894 1.463 . S
C891 C896 1.350 . S
C891 N899 1.427 . S
C892 H883 0.930 . S
C892 C890 1.378 . S
C892 C893 1.367 . S
C893 C892 1.367 . S
C893 C895 1.433 . S
C894 C890 1.350 . S
C894 C891 1.463 . S
C894 N898 1.427 . S
C895 H885 0.929 . S
C895 C893 1.433 . S
C895 N898 1.384 . S
C896 H887 0.929 . S
C896 C888 1.378 . S
C896 C891 1.350 . S
C897 H884 0.929 . S
C897 C889 1.433 . S
C897 N899 1.384 . S
N898 C894 1.427 . S
N898 C895 1.384 . S
N899 C891 1.427 . S
N899 C897 1.384 . S
H900 C906 0.930 . S
H901 C910 0.930 . S
H902 C915 0.929 . S
H903 C913 0.929 . S
H904 C908 0.929 . S
H905 C914 0.929 . S
C906 H900 0.930 . S
C906 C907 1.367 . S
C906 C914 1.378 . S
C907 C906 1.367 . S
C907 C915 1.433 . S
C908 H904 0.929 . S
C908 C910 1.378 . S
C908 C912 1.350 . S
C909 C912 1.463 . S
C909 C914 1.350 . S
C909 N917 1.427 . S
C910 H901 0.930 . S
C910 C908 1.378 . S
C910 C911 1.367 . S
C911 C910 1.367 . S
C911 C913 1.433 . S
C912 C908 1.350 . S
C912 C909 1.463 . S
C912 N916 1.427 . S
C913 H903 0.929 . S
C913 C911 1.433 . S
C913 N916 1.384 . S
C914 H905 0.929 . S
C914 C906 1.378 . S
C914 C909 1.350 . S
C915 H902 0.929 . S
C915 C907 1.433 . S
C915 N917 1.384 . S
N916 C912 1.427 . S
N916 C913 1.384 . S
N917 C909 1.427 . S
N917 C915 1.384 . S
H918 C924 0.930 . S
H919 C928 0.930 . S
H920 C933 0.929 . S
H921 C931 0.929 . S
H922 C926 0.929 . S
H923 C932 0.929 . S
C924 H918 0.930 . S
C924 C925 1.367 . S
C924 C932 1.378 . S
C925 C924 1.367 . S
C925 C933 1.433 . S
C926 H922 0.929 . S
C926 C928 1.378 . S
C926 C930 1.350 . S
C927 C930 1.463 . S
C927 C932 1.350 . S
C927 N935 1.427 . S
C928 H919 0.930 . S
C928 C926 1.378 . S
C928 C929 1.367 . S
C929 C928 1.367 . S
C929 C931 1.433 . S
C930 C926 1.350 . S
C930 C927 1.463 . S
C930 N934 1.427 . S
C931 H921 0.929 . S
C931 C929 1.433 . S
C931 N934 1.384 . S
C932 H923 0.929 . S
C932 C924 1.378 . S
C932 C927 1.350 . S
C933 H920 0.929 . S
C933 C925 1.433 . S
C933 N935 1.384 . S
N934 C930 1.427 . S
N934 C931 1.384 . S
N935 C927 1.427 . S
N935 C933 1.384 . S
H936 C942 0.930 . S
H937 C946 0.930 . S
H938 C951 0.929 . S
H939 C949 0.929 . S
H940 C944 0.929 . S
H941 C950 0.929 . S
C942 H936 0.930 . S
C942 C943 1.367 . S
C942 C950 1.378 . S
C943 C942 1.367 . S
C943 C951 1.433 . S
C944 H940 0.929 . S
C944 C946 1.378 . S
C944 C948 1.350 . S
C945 C948 1.463 . S
C945 C950 1.350 . S
C945 N953 1.427 . S
C946 H937 0.930 . S
C946 C944 1.378 . S
C946 C947 1.367 . S
C947 C946 1.367 . S
C947 C949 1.433 . S
C948 C944 1.350 . S
C948 C945 1.463 . S
C948 N952 1.427 . S
C949 H939 0.929 . S
C949 C947 1.433 . S
C949 N952 1.384 . S
C950 H941 0.929 . S
C950 C942 1.378 . S
C950 C945 1.350 . S
C951 H938 0.929 . S
C951 C943 1.433 . S
C951 N953 1.384 . S
N952 C948 1.427 . S
N952 C949 1.384 . S
N953 C945 1.427 . S
N953 C951 1.384 . S
H954 C960 0.930 . S
H955 C964 0.930 . S
H956 C969 0.929 . S
H957 C967 0.929 . S
H958 C962 0.929 . S
H959 C968 0.929 . S
C960 H954 0.930 . S
C960 C961 1.367 . S
C960 C968 1.378 . S
C961 C960 1.367 . S
C961 C969 1.433 . S
C962 H958 0.929 . S
C962 C964 1.378 . S
C962 C966 1.350 . S
C963 C966 1.463 . S
C963 C968 1.350 . S
C963 N971 1.427 . S
C964 H955 0.930 . S
C964 C962 1.378 . S
C964 C965 1.367 . S
C965 C964 1.367 . S
C965 C967 1.433 . S
C966 C962 1.350 . S
C966 C963 1.463 . S
C966 N970 1.427 . S
C967 H957 0.929 . S
C967 C965 1.433 . S
C967 N970 1.384 . S
C968 H959 0.929 . S
C968 C960 1.378 . S
C968 C963 1.350 . S
C969 H956 0.929 . S
C969 C961 1.433 . S
C969 N971 1.384 . S
N970 C966 1.427 . S
N970 C967 1.384 . S
N971 C963 1.427 . S
N971 C969 1.384 . S
H972 C978 0.930 . S
H973 C982 0.930 . S
H974 C987 0.929 . S
H975 C985 0.929 . S
H976 C980 0.929 . S
H977 C986 0.929 . S
C978 H972 0.930 . S
C978 C979 1.367 . S
C978 C986 1.378 . S
C979 C978 1.367 . S
C979 C987 1.433 . S
C980 H976 0.929 . S
C980 C982 1.378 . S
C980 C984 1.350 . S
C981 C984 1.463 . S
C981 C986 1.350 . S
C981 N989 1.427 . S
C982 H973 0.930 . S
C982 C980 1.378 . S
C982 C983 1.367 . S
C983 C982 1.367 . S
C983 C985 1.433 . S
C984 C980 1.350 . S
C984 C981 1.463 . S
C984 N988 1.427 . S
C985 H975 0.929 . S
C985 C983 1.433 . S
C985 N988 1.384 . S
C986 H977 0.929 . S
C986 C978 1.378 . S
C986 C981 1.350 . S
C987 H974 0.929 . S
C987 C979 1.433 . S
C987 N989 1.384 . S
N988 C984 1.427 . S
N988 C985 1.384 . S
N989 C981 1.427 . S
N989 C987 1.384 . S
H990 C996 0.930 . S
H991 C1000 0.930 . S
H992 C1005 0.929 . S
H993 C1003 0.929 . S
H994 C998 0.929 . S
H995 C1004 0.929 . S
C996 H990 0.930 . S
C996 C997 1.367 . S
C996 C1004 1.378 . S
C997 C996 1.367 . S
C997 C1005 1.433 . S
C998 H994 0.929 . S
C998 C1000 1.378 . S
C998 C1002 1.350 . S
C999 C1002 1.463 . S
C999 C1004 1.350 . S
C999 N1007 1.427 . S
C1000 H991 0.930 . S
C1000 C998 1.378 . S
C1000 C1001 1.367 . S
C1001 C1000 1.367 . S
C1001 C1003 1.433 . S
C1002 C998 1.350 . S
C1002 C999 1.463 . S
C1002 N1006 1.427 . S
C1003 H993 0.929 . S
C1003 C1001 1.433 . S
C1003 N1006 1.384 . S
C1004 H995 0.929 . S
C1004 C996 1.378 . S
C1004 C999 1.350 . S
C1005 H992 0.929 . S
C1005 C997 1.433 . S
C1005 N1007 1.384 . S
N1006 C1002 1.427 . S
N1006 C1003 1.384 . S
N1007 C999 1.427 . S
N1007 C1005 1.384 . S
H1008 C1014 0.930 . S
H1009 C1018 0.930 . S
H1010 C1023 0.929 . S
H1011 C1021 0.929 . S
H1012 C1016 0.929 . S
H1013 C1022 0.929 . S
C1014 H1008 0.930 . S
C1014 C1015 1.367 . S
C1014 C1022 1.378 . S
C1015 C1014 1.367 . S
C1015 C1023 1.433 . S
C1016 H1012 0.929 . S
C1016 C1018 1.378 . S
C1016 C1020 1.350 . S
C1017 C1020 1.463 . S
C1017 C1022 1.350 . S
C1017 N1025 1.427 . S
C1018 H1009 0.930 . S
C1018 C1016 1.378 . S
C1018 C1019 1.367 . S
C1019 C1018 1.367 . S
C1019 C1021 1.433 . S
C1020 C1016 1.350 . S
C1020 C1017 1.463 . S
C1020 N1024 1.427 . S
C1021 H1011 0.929 . S
C1021 C1019 1.433 . S
C1021 N1024 1.384 . S
C1022 H1013 0.929 . S
C1022 C1014 1.378 . S
C1022 C1017 1.350 . S
C1023 H1010 0.929 . S
C1023 C1015 1.433 . S
C1023 N1025 1.384 . S
N1024 C1020 1.427 . S
N1024 C1021 1.384 . S
N1025 C1017 1.427 . S
N1025 C1023 1.384 . S
H1026 C1032 0.930 . S
H1027 C1036 0.930 . S
H1028 C1041 0.929 . S
H1029 C1039 0.929 . S
H1030 C1034 0.929 . S
H1031 C1040 0.929 . S
C1032 H1026 0.930 . S
C1032 C1033 1.367 . S
C1032 C1040 1.378 . S
C1033 C1032 1.367 . S
C1033 C1041 1.433 . S
C1034 H1030 0.929 . S
C1034 C1036 1.378 . S
C1034 C1038 1.350 . S
C1035 C1038 1.463 . S
C1035 C1040 1.350 . S
C1035 N1043 1.427 . S
C1036 H1027 0.930 . S
C1036 C1034 1.378 . S
C1036 C1037 1.367 . S
C1037 C1036 1.367 . S
C1037 C1039 1.433 . S
C1038 C1034 1.350 . S
C1038 C1035 1.463 . S
C1038 N1042 1.427 . S
C1039 H1029 0.929 . S
C1039 C1037 1.433 . S
C1039 N1042 1.384 . S
C1040 H1031 0.929 . S
C1040 C1032 1.378 . S
C1040 C1035 1.350 . S
C1041 H1028 0.929 . S
C1041 C1033 1.433 . S
C1041 N1043 1.384 . S
N1042 C1038 1.427 . S
N1042 C1039 1.384 . S
N1043 C1035 1.427 . S
N1043 C1041 1.384 . S
H1044 C1050 0.930 . S
H1045 C1054 0.930 . S
H1046 C1059 0.929 . S
H1047 C1057 0.929 . S
H1048 C1052 0.929 . S
H1049 C1058 0.929 . S
C1050 H1044 0.930 . S
C1050 C1051 1.367 . S
C1050 C1058 1.378 . S
C1051 C1050 1.367 . S
C1051 C1059 1.433 . S
C1052 H1048 0.929 . S
C1052 C1054 1.378 . S
C1052 C1056 1.350 . S
C1053 C1056 1.463 . S
C1053 C1058 1.350 . S
C1053 N1061 1.427 . S
C1054 H1045 0.930 . S
C1054 C1052 1.378 . S
C1054 C1055 1.367 . S
C1055 C1054 1.367 . S
C1055 C1057 1.433 . S
C1056 C1052 1.350 . S
C1056 C1053 1.463 . S
C1056 N1060 1.427 . S
C1057 H1047 0.929 . S
C1057 C1055 1.433 . S
C1057 N1060 1.384 . S
C1058 H1049 0.929 . S
C1058 C1050 1.378 . S
C1058 C1053 1.350 . S
C1059 H1046 0.929 . S
C1059 C1051 1.433 . S
C1059 N1061 1.384 . S
N1060 C1056 1.427 . S
N1060 C1057 1.384 . S
N1061 C1053 1.427 . S
N1061 C1059 1.384 . S
H1062 C1068 0.930 . S
H1063 C1072 0.930 . S
H1064 C1077 0.929 . S
H1065 C1075 0.929 . S
H1066 C1070 0.929 . S
H1067 C1076 0.929 . S
C1068 H1062 0.930 . S
C1068 C1069 1.367 . S
C1068 C1076 1.378 . S
C1069 C1068 1.367 . S
C1069 C1077 1.433 . S
C1070 H1066 0.929 . S
C1070 C1072 1.378 . S
C1070 C1074 1.350 . S
C1071 C1074 1.463 . S
C1071 C1076 1.350 . S
C1071 N1079 1.427 . S
C1072 H1063 0.930 . S
C1072 C1070 1.378 . S
C1072 C1073 1.367 . S
C1073 C1072 1.367 . S
C1073 C1075 1.433 . S
C1074 C1070 1.350 . S
C1074 C1071 1.463 . S
C1074 N1078 1.427 . S
C1075 H1065 0.929 . S
C1075 C1073 1.433 . S
C1075 N1078 1.384 . S
C1076 H1067 0.929 . S
C1076 C1068 1.378 . S
C1076 C1071 1.350 . S
C1077 H1064 0.929 . S
C1077 C1069 1.433 . S
C1077 N1079 1.384 . S
N1078 C1074 1.427 . S
N1078 C1075 1.384 . S
N1079 C1071 1.427 . S
N1079 C1077 1.384 . S
H1080 C1086 0.930 . S
H1081 C1090 0.930 . S
H1082 C1095 0.929 . S
H1083 C1093 0.929 . S
H1084 C1088 0.929 . S
H1085 C1094 0.929 . S
C1086 H1080 0.930 . S
C1086 C1087 1.367 . S
C1086 C1094 1.378 . S
C1087 C1086 1.367 . S
C1087 C1095 1.433 . S
C1088 H1084 0.929 . S
C1088 C1090 1.378 . S
C1088 C1092 1.350 . S
C1089 C1092 1.463 . S
C1089 C1094 1.350 . S
C1089 N1097 1.427 . S
C1090 H1081 0.930 . S
C1090 C1088 1.378 . S
C1090 C1091 1.367 . S
C1091 C1090 1.367 . S
C1091 C1093 1.433 . S
C1092 C1088 1.350 . S
C1092 C1089 1.463 . S
C1092 N1096 1.427 . S
C1093 H1083 0.929 . S
C1093 C1091 1.433 . S
C1093 N1096 1.384 . S
C1094 H1085 0.929 . S
C1094 C1086 1.378 . S
C1094 C1089 1.350 . S
C1095 H1082 0.929 . S
C1095 C1087 1.433 . S
C1095 N1097 1.384 . S
N1096 C1092 1.427 . S
N1096 C1093 1.384 . S
N1097 C1089 1.427 . S
N1097 C1095 1.384 . S
H1098 C1104 0.930 . S
H1099 C1108 0.930 . S
H1100 C1113 0.929 . S
H1101 C1111 0.929 . S
H1102 C1106 0.929 . S
H1103 C1112 0.929 . S
C1104 H1098 0.930 . S
C1104 C1105 1.367 . S
C1104 C1112 1.378 . S
C1105 C1104 1.367 . S
C1105 C1113 1.433 . S
C1106 H1102 0.929 . S
C1106 C1108 1.378 . S
C1106 C1110 1.350 . S
C1107 C1110 1.463 . S
C1107 C1112 1.350 . S
C1107 N1115 1.427 . S
C1108 H1099 0.930 . S
C1108 C1106 1.378 . S
C1108 C1109 1.367 . S
C1109 C1108 1.367 . S
C1109 C1111 1.433 . S
C1110 C1106 1.350 . S
C1110 C1107 1.463 . S
C1110 N1114 1.427 . S
C1111 H1101 0.929 . S
C1111 C1109 1.433 . S
C1111 N1114 1.384 . S
C1112 H1103 0.929 . S
C1112 C1104 1.378 . S
C1112 C1107 1.350 . S
C1113 H1100 0.929 . S
C1113 C1105 1.433 . S
C1113 N1115 1.384 . S
N1114 C1110 1.427 . S
N1114 C1111 1.384 . S
N1115 C1107 1.427 . S
N1115 C1113 1.384 . S
H1116 C1122 0.930 . S
H1117 C1126 0.930 . S
H1118 C1131 0.929 . S
H1119 C1129 0.929 . S
H1120 C1124 0.929 . S
H1121 C1130 0.929 . S
C1122 H1116 0.930 . S
C1122 C1123 1.367 . S
C1122 C1130 1.378 . S
C1123 C1122 1.367 . S
C1123 C1131 1.433 . S
C1124 H1120 0.929 . S
C1124 C1126 1.378 . S
C1124 C1128 1.350 . S
C1125 C1128 1.463 . S
C1125 C1130 1.350 . S
C1125 N1133 1.427 . S
C1126 H1117 0.930 . S
C1126 C1124 1.378 . S
C1126 C1127 1.367 . S
C1127 C1126 1.367 . S
C1127 C1129 1.433 . S
C1128 C1124 1.350 . S
C1128 C1125 1.463 . S
C1128 N1132 1.427 . S
C1129 H1119 0.929 . S
C1129 C1127 1.433 . S
C1129 N1132 1.384 . S
C1130 H1121 0.929 . S
C1130 C1122 1.378 . S
C1130 C1125 1.350 . S
C1131 H1118 0.929 . S
C1131 C1123 1.433 . S
C1131 N1133 1.384 . S
N1132 C1128 1.427 . S
N1132 C1129 1.384 . S
N1133 C1125 1.427 . S
N1133 C1131 1.384 . S
H1134 C1140 0.930 . S
H1135 C1144 0.930 . S
H1136 C1149 0.929 . S
H1137 C1147 0.929 . S
H1138 C1142 0.929 . S
H1139 C1148 0.929 . S
C1140 H1134 0.930 . S
C1140 C1141 1.367 . S
C1140 C1148 1.378 . S
C1141 C1140 1.367 . S
C1141 C1149 1.433 . S
C1142 H1138 0.929 . S
C1142 C1144 1.378 . S
C1142 C1146 1.350 . S
C1143 C1146 1.463 . S
C1143 C1148 1.350 . S
C1143 N1151 1.427 . S
C1144 H1135 0.930 . S
C1144 C1142 1.378 . S
C1144 C1145 1.367 . S
C1145 C1144 1.367 . S
C1145 C1147 1.433 . S
C1146 C1142 1.350 . S
C1146 C1143 1.463 . S
C1146 N1150 1.427 . S
C1147 H1137 0.929 . S
C1147 C1145 1.433 . S
C1147 N1150 1.384 . S
C1148 H1139 0.929 . S
C1148 C1140 1.378 . S
C1148 C1143 1.350 . S
C1149 H1136 0.929 . S
C1149 C1141 1.433 . S
C1149 N1151 1.384 . S
N1150 C1146 1.427 . S
N1150 C1147 1.384 . S
N1151 C1143 1.427 . S
N1151 C1149 1.384 . S
H1152 C1158 0.930 . S
H1153 C1162 0.930 . S
H1154 C1167 0.929 . S
H1155 C1165 0.929 . S
H1156 C1160 0.929 . S
H1157 C1166 0.929 . S
C1158 H1152 0.930 . S
C1158 C1159 1.367 . S
C1158 C1166 1.378 . S
C1159 C1158 1.367 . S
C1159 C1167 1.433 . S
C1160 H1156 0.929 . S
C1160 C1162 1.378 . S
C1160 C1164 1.350 . S
C1161 C1164 1.463 . S
C1161 C1166 1.350 . S
C1161 N1169 1.427 . S
C1162 H1153 0.930 . S
C1162 C1160 1.378 . S
C1162 C1163 1.367 . S
C1163 C1162 1.367 . S
C1163 C1165 1.433 . S
C1164 C1160 1.350 . S
C1164 C1161 1.463 . S
C1164 N1168 1.427 . S
C1165 H1155 0.929 . S
C1165 C1163 1.433 . S
C1165 N1168 1.384 . S
C1166 H1157 0.929 . S
C1166 C1158 1.378 . S
C1166 C1161 1.350 . S
C1167 H1154 0.929 . S
C1167 C1159 1.433 . S
C1167 N1169 1.384 . S
N1168 C1164 1.427 . S
N1168 C1165 1.384 . S
N1169 C1161 1.427 . S
N1169 C1167 1.384 . S
H1170 C1176 0.930 . S
H1171 C1180 0.930 . S
H1172 C1185 0.929 . S
H1173 C1183 0.929 . S
H1174 C1178 0.929 . S
H1175 C1184 0.929 . S
C1176 H1170 0.930 . S
C1176 C1177 1.367 . S
C1176 C1184 1.378 . S
C1177 C1176 1.367 . S
C1177 C1185 1.433 . S
C1178 H1174 0.929 . S
C1178 C1180 1.378 . S
C1178 C1182 1.350 . S
C1179 C1182 1.463 1_565 S
C1179 C1184 1.350 . S
C1179 N1187 1.427 . S
C1180 H1171 0.930 . S
C1180 C1178 1.378 . S
C1180 C1181 1.367 . S
C1181 C1180 1.367 . S
C1181 C1183 1.433 . S
C1182 C1178 1.350 . S
C1182 C1179 1.463 1_545 S
C1182 N1186 1.427 . S
C1183 H1173 0.929 . S
C1183 C1181 1.433 . S
C1183 N1186 1.384 . S
C1184 H1175 0.929 . S
C1184 C1176 1.378 . S
C1184 C1179 1.350 . S
C1185 H1172 0.929 . S
C1185 C1177 1.433 . S
C1185 N1187 1.384 . S
N1186 C1182 1.427 . S
N1186 C1183 1.384 . S
N1187 C1179 1.427 . S
N1187 C1185 1.384 . S
H1188 C1194 0.930 . S
H1189 C1198 0.930 . S
H1190 C1203 0.929 . S
H1191 C1201 0.929 . S
H1192 C1196 0.905 1_655 S
H1193 C1202 0.905 1_455 S
C1194 H1188 0.930 . S
C1194 C1195 1.367 . S
C1194 C1202 1.378 . S
C1195 C1194 1.367 . S
C1195 C1203 1.433 . S
C1196 H1192 0.905 1_455 S
C1196 C1198 1.378 . S
C1196 C1200 1.350 . S
C1197 C1200 1.463 1_655 S
C1197 C1202 1.350 . S
C1197 N1205 1.427 . S
C1198 H1189 0.930 . S
C1198 C1196 1.378 . S
C1198 C1199 1.367 . S
C1199 C1198 1.367 . S
C1199 C1201 1.433 . S
C1200 C1196 1.350 . S
C1200 C1197 1.463 1_455 S
C1200 N1204 1.427 . S
C1201 H1191 0.929 . S
C1201 C1199 1.433 . S
C1201 N1204 1.384 . S
C1202 H1193 0.905 1_655 S
C1202 C1194 1.378 . S
C1202 C1197 1.350 . S
C1203 H1190 0.929 . S
C1203 C1195 1.433 . S
C1203 N1205 1.384 . S
N1204 C1200 1.427 . S
N1204 C1201 1.384 . S
N1205 C1197 1.427 . S
N1205 C1203 1.384 . S
H1206 C1212 0.930 . S
H1207 C1216 0.930 . S
H1208 C1221 0.929 . S
H1209 C1219 0.929 . S
H1210 C1214 0.929 . S
H1211 C1220 0.929 . S
C1212 H1206 0.930 . S
C1212 C1213 1.367 . S
C1212 C1220 1.378 . S
C1213 C1212 1.367 . S
C1213 C1221 1.433 . S
C1214 H1210 0.929 . S
C1214 C1216 1.378 . S
C1214 C1218 1.350 . S
C1215 C1218 1.463 . S
C1215 C1220 1.350 . S
C1215 N1223 1.427 . S
C1216 H1207 0.930 . S
C1216 C1214 1.378 . S
C1216 C1217 1.367 . S
C1217 C1216 1.367 . S
C1217 C1219 1.433 . S
C1218 C1214 1.350 . S
C1218 C1215 1.463 . S
C1218 N1222 1.427 . S
C1219 H1209 0.929 . S
C1219 C1217 1.433 . S
C1219 N1222 1.384 . S
C1220 H1211 0.929 . S
C1220 C1212 1.378 . S
C1220 C1215 1.350 . S
C1221 H1208 0.929 . S
C1221 C1213 1.433 . S
C1221 N1223 1.384 . S
N1222 C1218 1.427 . S
N1222 C1219 1.384 . S
N1223 C1215 1.427 . S
N1223 C1221 1.384 . S
H1224 C1230 0.930 . S
H1225 C1234 0.930 . S
H1226 C1239 0.929 . S
H1227 C1237 0.929 . S
H1228 C1232 0.929 . S
H1229 C1238 0.929 . S
C1230 H1224 0.930 . S
C1230 C1231 1.367 . S
C1230 C1238 1.378 . S
C1231 C1230 1.367 . S
C1231 C1239 1.433 . S
C1232 H1228 0.929 . S
C1232 C1234 1.378 . S
C1232 C1236 1.350 . S
C1233 C1236 1.463 1_545 S
C1233 C1238 1.350 . S
C1233 N1241 1.447 . S
C1234 H1225 0.930 . S
C1234 C1232 1.378 . S
C1234 C1235 1.367 . S
C1235 C1234 1.367 . S
C1235 C1237 1.433 . S
C1236 C1232 1.350 . S
C1236 C1233 1.463 1_565 S
C1236 N1240 1.447 . S
C1237 H1227 0.929 . S
C1237 C1235 1.433 . S
C1237 N1240 1.404 . S
C1238 H1229 0.929 . S
C1238 C1230 1.378 . S
C1238 C1233 1.350 . S
C1239 H1226 0.929 . S
C1239 C1231 1.433 . S
C1239 N1241 1.404 . S
N1240 C1236 1.447 . S
N1240 C1237 1.404 . S
N1241 C1233 1.447 . S
N1241 C1239 1.404 . S
H1242 C1248 0.930 . S
H1243 C1252 0.930 . S
H1244 C1257 0.929 . S
H1245 C1255 0.929 . S
H1246 C1250 0.929 . S
H1247 C1256 0.929 . S
C1248 H1242 0.930 . S
C1248 C1249 1.367 . S
C1248 C1256 1.378 . S
C1249 C1248 1.367 . S
C1249 C1257 1.433 . S
C1250 H1246 0.929 . S
C1250 C1252 1.378 . S
C1250 C1254 1.350 . S
C1251 C1254 1.463 1_655 S
C1251 C1256 1.350 . S
C1251 N1259 1.427 . S
C1252 H1243 0.930 . S
C1252 C1250 1.378 . S
C1252 C1253 1.367 . S
C1253 C1252 1.367 . S
C1253 C1255 1.433 . S
C1254 C1250 1.350 . S
C1254 C1251 1.463 1_455 S
C1254 N1258 1.427 . S
C1255 H1245 0.929 . S
C1255 C1253 1.433 . S
C1255 N1258 1.384 . S
C1256 H1247 0.929 . S
C1256 C1248 1.378 . S
C1256 C1251 1.350 . S
C1257 H1244 0.929 . S
C1257 C1249 1.433 . S
C1257 N1259 1.384 . S
N1258 C1254 1.427 . S
N1258 C1255 1.384 . S
N1259 C1251 1.427 . S
N1259 C1257 1.384 . S
H1260 C1266 0.930 . S
H1261 C1270 0.930 . S
H1262 C1275 0.929 . S
H1263 C1273 0.929 . S
H1264 C1268 0.929 . S
H1265 C1274 0.929 . S
C1266 H1260 0.930 . S
C1266 C1267 1.367 . S
C1266 C1274 1.378 . S
C1267 C1266 1.367 . S
C1267 C1275 1.433 . S
C1268 H1264 0.929 . S
C1268 C1270 1.378 . S
C1268 C1272 1.350 . S
C1269 C1272 1.463 . S
C1269 C1274 1.350 . S
C1269 N1277 1.427 . S
C1270 H1261 0.930 . S
C1270 C1268 1.378 . S
C1270 C1271 1.367 . S
C1271 C1270 1.367 . S
C1271 C1273 1.433 . S
C1272 C1268 1.350 . S
C1272 C1269 1.463 . S
C1272 N1276 1.427 . S
C1273 H1263 0.929 . S
C1273 C1271 1.433 . S
C1273 N1276 1.384 . S
C1274 H1265 0.929 . S
C1274 C1266 1.378 . S
C1274 C1269 1.350 . S
C1275 H1262 0.929 . S
C1275 C1267 1.433 . S
C1275 N1277 1.384 . S
N1276 C1272 1.427 . S
N1276 C1273 1.384 . S
N1277 C1269 1.427 . S
N1277 C1275 1.384 . S
H1278 C1284 0.930 . S
H1279 C1288 0.930 . S
H1280 C1293 0.929 . S
H1281 C1291 0.929 . S
H1282 C1286 0.929 . S
H1283 C1292 0.929 . S
C1284 H1278 0.930 . S
C1284 C1285 1.367 . S
C1284 C1292 1.378 . S
C1285 C1284 1.367 . S
C1285 C1293 1.433 . S
C1286 H1282 0.929 . S
C1286 C1288 1.378 . S
C1286 C1290 1.350 . S
C1287 C1290 1.463 . S
C1287 C1292 1.350 . S
C1287 N1295 1.427 . S
C1288 H1279 0.930 . S
C1288 C1286 1.378 . S
C1288 C1289 1.367 . S
C1289 C1288 1.367 . S
C1289 C1291 1.433 . S
C1290 C1286 1.350 . S
C1290 C1287 1.463 . S
C1290 N1294 1.427 . S
C1291 H1281 0.929 . S
C1291 C1289 1.433 . S
C1291 N1294 1.384 . S
C1292 H1283 0.929 . S
C1292 C1284 1.378 . S
C1292 C1287 1.350 . S
C1293 H1280 0.929 . S
C1293 C1285 1.433 . S
C1293 N1295 1.384 . S
N1294 C1290 1.427 . S
N1294 C1291 1.384 . S
N1295 C1287 1.427 . S
N1295 C1293 1.384 . S
H1296 C1302 0.930 . S
H1297 C1306 0.930 . S
H1298 C1311 0.929 . S
H1299 C1309 0.929 . S
H1300 C1304 0.929 . S
H1301 C1310 0.929 . S
C1302 H1296 0.930 . S
C1302 C1303 1.367 . S
C1302 C1310 1.378 . S
C1303 C1302 1.367 . S
C1303 C1311 1.433 . S
C1304 H1300 0.929 . S
C1304 C1306 1.378 . S
C1304 C1308 1.350 . S
C1305 C1308 1.463 . S
C1305 C1310 1.350 . S
C1305 N1313 1.427 . S
C1306 H1297 0.930 . S
C1306 C1304 1.378 . S
C1306 C1307 1.367 . S
C1307 C1306 1.367 . S
C1307 C1309 1.433 . S
C1308 C1304 1.350 . S
C1308 C1305 1.463 . S
C1308 N1312 1.427 . S
C1309 H1299 0.929 . S
C1309 C1307 1.433 . S
C1309 N1312 1.384 . S
C1310 H1301 0.929 . S
C1310 C1302 1.378 . S
C1310 C1305 1.350 . S
C1311 H1298 0.929 . S
C1311 C1303 1.433 . S
C1311 N1313 1.384 . S
N1312 C1308 1.427 . S
N1312 C1309 1.384 . S
N1313 C1305 1.427 . S
N1313 C1311 1.384 . S
H1314 C1320 0.930 1_556 S
H1315 C1324 0.930 . S
H1316 C1329 0.929 . S
H1317 C1327 0.929 . S
H1318 C1322 0.929 . S
H1319 C1328 0.929 . S
C1320 H1314 0.930 1_554 S
C1320 C1321 1.367 . S
C1320 C1328 1.378 . S
C1321 C1320 1.367 . S
C1321 C1329 1.433 . S
C1322 H1318 0.929 . S
C1322 C1324 1.378 . S
C1322 C1326 1.350 . S
C1323 C1326 1.463 . S
C1323 C1328 1.350 . S
C1323 N1331 1.427 . S
C1324 H1315 0.930 . S
C1324 C1322 1.378 . S
C1324 C1325 1.367 . S
C1325 C1324 1.367 . S
C1325 C1327 1.433 . S
C1326 C1322 1.350 . S
C1326 C1323 1.463 . S
C1326 N1330 1.427 . S
C1327 H1317 0.929 . S
C1327 C1325 1.433 . S
C1327 N1330 1.384 . S
C1328 H1319 0.929 . S
C1328 C1320 1.378 . S
C1328 C1323 1.350 . S
C1329 H1316 0.929 . S
C1329 C1321 1.433 . S
C1329 N1331 1.384 . S
N1330 C1326 1.427 . S
N1330 C1327 1.384 . S
N1331 C1323 1.427 . S
N1331 C1329 1.384 . S
H1332 C1338 0.930 . S
H1333 C1342 0.930 . S
H1334 C1347 0.929 1_556 S
H1335 C1345 0.929 . S
H1336 C1340 0.929 . S
H1337 C1346 0.929 . S
C1338 H1332 0.930 . S
C1338 C1339 1.367 . S
C1338 C1346 1.378 . S
C1339 C1338 1.367 . S
C1339 C1347 1.433 . S
C1340 H1336 0.929 . S
C1340 C1342 1.378 . S
C1340 C1344 1.350 . S
C1341 C1344 1.463 . S
C1341 C1346 1.350 . S
C1341 N1349 1.427 . S
C1342 H1333 0.930 . S
C1342 C1340 1.378 . S
C1342 C1343 1.367 . S
C1343 C1342 1.367 . S
C1343 C1345 1.433 . S
C1344 C1340 1.350 . S
C1344 C1341 1.463 . S
C1344 N1348 1.427 . S
C1345 H1335 0.929 . S
C1345 C1343 1.433 . S
C1345 N1348 1.384 . S
C1346 H1337 0.929 . S
C1346 C1338 1.378 . S
C1346 C1341 1.350 . S
C1347 H1334 0.929 1_554 S
C1347 C1339 1.433 . S
C1347 N1349 1.384 . S
N1348 C1344 1.427 . S
N1348 C1345 1.384 . S
N1349 C1341 1.427 . S
N1349 C1347 1.384 . S
H1350 C1356 0.930 . S
H1351 C1360 0.930 . S
H1352 C1365 0.929 . S
H1353 C1363 0.929 . S
H1354 C1358 0.929 . S
H1355 C1364 0.929 . S
C1356 H1350 0.930 . S
C1356 C1357 1.367 . S
C1356 C1364 1.378 . S
C1357 C1356 1.367 . S
C1357 C1365 1.433 . S
C1358 H1354 0.929 . S
C1358 C1360 1.378 . S
C1358 C1362 1.350 . S
C1359 C1362 1.463 . S
C1359 C1364 1.350 . S
C1359 N1367 1.427 . S
C1360 H1351 0.930 . S
C1360 C1358 1.378 . S
C1360 C1361 1.367 . S
C1361 C1360 1.367 . S
C1361 C1363 1.433 . S
C1362 C1358 1.350 . S
C1362 C1359 1.463 . S
C1362 N1366 1.427 . S
C1363 H1353 0.929 . S
C1363 C1361 1.433 . S
C1363 N1366 1.384 . S
C1364 H1355 0.929 . S
C1364 C1356 1.378 . S
C1364 C1359 1.350 . S
C1365 H1352 0.929 . S
C1365 C1357 1.433 . S
C1365 N1367 1.384 . S
N1366 C1362 1.427 . S
N1366 C1363 1.384 . S
N1367 C1359 1.427 . S
N1367 C1365 1.384 . S
H1368 C1374 0.930 1_554 S
H1369 C1378 0.930 . S
H1370 C1383 0.929 . S
H1371 C1381 0.929 . S
H1372 C1376 0.929 . S
H1373 C1382 0.929 . S
C1374 H1368 0.930 1_556 S
C1374 C1375 1.367 . S
C1374 C1382 1.378 . S
C1375 C1374 1.367 . S
C1375 C1383 1.433 . S
C1376 H1372 0.929 . S
C1376 C1378 1.378 . S
C1376 C1380 1.350 . S
C1377 C1380 1.463 . S
C1377 C1382 1.350 . S
C1377 N1385 1.427 . S
C1378 H1369 0.930 . S
C1378 C1376 1.378 . S
C1378 C1379 1.367 . S
C1379 C1378 1.367 . S
C1379 C1381 1.433 . S
C1380 C1376 1.350 . S
C1380 C1377 1.463 . S
C1380 N1384 1.427 . S
C1381 H1371 0.929 . S
C1381 C1379 1.433 . S
C1381 N1384 1.384 . S
C1382 H1373 0.929 . S
C1382 C1374 1.378 . S
C1382 C1377 1.350 . S
C1383 H1370 0.929 . S
C1383 C1375 1.433 . S
C1383 N1385 1.384 . S
N1384 C1380 1.427 . S
N1384 C1381 1.384 . S
N1385 C1377 1.427 . S
N1385 C1383 1.384 . S
H1386 C1392 0.930 . S
H1387 C1396 0.930 . S
H1388 C1401 0.929 . S
H1389 C1399 0.929 . S
H1390 C1394 0.929 . S
H1391 C1400 0.929 . S
C1392 H1386 0.930 . S
C1392 C1393 1.367 . S
C1392 C1400 1.378 . S
C1393 C1392 1.367 . S
C1393 C1401 1.433 . S
C1394 H1390 0.929 . S
C1394 C1396 1.378 . S
C1394 C1398 1.350 . S
C1395 C1398 1.463 . S
C1395 C1400 1.350 . S
C1395 N1403 1.427 . S
C1396 H1387 0.930 . S
C1396 C1394 1.378 . S
C1396 C1397 1.367 . S
C1397 C1396 1.367 . S
C1397 C1399 1.433 . S
C1398 C1394 1.350 . S
C1398 C1395 1.463 . S
C1398 N1402 1.427 . S
C1399 H1389 0.929 . S
C1399 C1397 1.433 . S
C1399 N1402 1.384 . S
C1400 H1391 0.929 . S
C1400 C1392 1.378 . S
C1400 C1395 1.350 . S
C1401 H1388 0.929 . S
C1401 C1393 1.433 . S
C1401 N1403 1.384 . S
N1402 C1398 1.427 . S
N1402 C1399 1.384 . S
N1403 C1395 1.427 . S
N1403 C1401 1.384 . S
H1404 C1410 0.930 1_554 S
H1405 C1414 0.930 . S
H1406 C1419 0.929 . S
H1407 C1417 0.929 . S
H1408 C1412 0.929 . S
H1409 C1418 0.929 . S
C1410 H1404 0.930 1_556 S
C1410 C1411 1.367 . S
C1410 C1418 1.378 . S
C1411 C1410 1.367 . S
C1411 C1419 1.433 . S
C1412 H1408 0.929 . S
C1412 C1414 1.378 . S
C1412 C1416 1.350 . S
C1413 C1416 1.463 . S
C1413 C1418 1.350 . S
C1413 N1421 1.427 . S
C1414 H1405 0.930 . S
C1414 C1412 1.378 . S
C1414 C1415 1.367 . S
C1415 C1414 1.367 . S
C1415 C1417 1.433 . S
C1416 C1412 1.350 . S
C1416 C1413 1.463 . S
C1416 N1420 1.427 . S
C1417 H1407 0.929 . S
C1417 C1415 1.433 . S
C1417 N1420 1.384 . S
C1418 H1409 0.929 . S
C1418 C1410 1.378 . S
C1418 C1413 1.350 . S
C1419 H1406 0.929 . S
C1419 C1411 1.433 . S
C1419 N1421 1.384 . S
N1420 C1416 1.427 . S
N1420 C1417 1.384 . S
N1421 C1413 1.427 . S
N1421 C1419 1.384 . S
H1422 C1428 0.930 . S
H1423 C1432 0.930 . S
H1424 C1437 0.929 . S
H1425 C1435 0.929 . S
H1426 C1430 0.929 . S
H1427 C1436 0.929 . S
C1428 H1422 0.930 . S
C1428 C1429 1.367 . S
C1428 C1436 1.378 . S
C1429 C1428 1.367 . S
C1429 C1437 1.433 . S
C1430 H1426 0.929 . S
C1430 C1432 1.378 . S
C1430 C1434 1.350 . S
C1431 C1434 1.463 . S
C1431 C1436 1.350 . S
C1431 N1439 1.427 . S
C1432 H1423 0.930 . S
C1432 C1430 1.378 . S
C1432 C1433 1.367 . S
C1433 C1432 1.367 . S
C1433 C1435 1.433 . S
C1434 C1430 1.350 . S
C1434 C1431 1.463 . S
C1434 N1438 1.427 . S
C1435 H1425 0.929 . S
C1435 C1433 1.433 . S
C1435 N1438 1.384 . S
C1436 H1427 0.929 . S
C1436 C1428 1.378 . S
C1436 C1431 1.350 . S
C1437 H1424 0.929 . S
C1437 C1429 1.433 . S
C1437 N1439 1.384 . S
N1438 C1434 1.427 . S
N1438 C1435 1.384 . S
N1439 C1431 1.427 . S
N1439 C1437 1.384 . S
H1440 C1446 0.930 . S
H1441 C1450 0.930 . S
H1442 C1455 0.929 . S
H1443 C1453 0.929 . S
H1444 C1448 0.929 . S
H1445 C1454 0.929 . S
C1446 H1440 0.930 . S
C1446 C1447 1.367 . S
C1446 C1454 1.378 . S
C1447 C1446 1.367 . S
C1447 C1455 1.433 . S
C1448 H1444 0.929 . S
C1448 C1450 1.378 . S
C1448 C1452 1.350 . S
C1449 C1452 1.463 . S
C1449 C1454 1.350 . S
C1449 N1457 1.427 . S
C1450 H1441 0.930 . S
C1450 C1448 1.378 . S
C1450 C1451 1.367 . S
C1451 C1450 1.367 . S
C1451 C1453 1.433 . S
C1452 C1448 1.350 . S
C1452 C1449 1.463 . S
C1452 N1456 1.427 . S
C1453 H1443 0.929 . S
C1453 C1451 1.433 . S
C1453 N1456 1.384 . S
C1454 H1445 0.929 . S
C1454 C1446 1.378 . S
C1454 C1449 1.350 . S
C1455 H1442 0.929 . S
C1455 C1447 1.433 . S
C1455 N1457 1.384 . S
N1456 C1452 1.427 . S
N1456 C1453 1.384 . S
N1457 C1449 1.427 . S
N1457 C1455 1.384 . S
H1458 C1464 0.930 . S
H1459 C1468 0.930 . S
H1460 C1473 0.929 . S
H1461 C1471 0.929 . S
H1462 C1466 0.929 . S
H1463 C1472 0.929 . S
C1464 H1458 0.930 . S
C1464 C1465 1.367 . S
C1464 C1472 1.378 . S
C1465 C1464 1.367 . S
C1465 C1473 1.433 . S
C1466 H1462 0.929 . S
C1466 C1468 1.378 . S
C1466 C1470 1.350 . S
C1467 C1470 1.463 . S
C1467 C1472 1.350 . S
C1467 N1475 1.427 . S
C1468 H1459 0.930 . S
C1468 C1466 1.378 . S
C1468 C1469 1.367 . S
C1469 C1468 1.367 . S
C1469 C1471 1.433 . S
C1470 C1466 1.350 . S
C1470 C1467 1.463 . S
C1470 N1474 1.427 . S
C1471 H1461 0.929 . S
C1471 C1469 1.433 . S
C1471 N1474 1.384 . S
C1472 H1463 0.929 . S
C1472 C1464 1.378 . S
C1472 C1467 1.350 . S
C1473 H1460 0.929 . S
C1473 C1465 1.433 . S
C1473 N1475 1.384 . S
N1474 C1470 1.427 . S
N1474 C1471 1.384 . S
N1475 C1467 1.427 . S
N1475 C1473 1.384 . S
H1476 C1482 0.930 . S
H1477 C1486 0.930 . S
H1478 C1491 0.929 . S
H1479 C1489 0.929 . S
H1480 C1484 0.929 . S
H1481 C1490 0.929 . S
C1482 H1476 0.930 . S
C1482 C1483 1.367 . S
C1482 C1490 1.378 . S
C1483 C1482 1.367 . S
C1483 C1491 1.433 . S
C1484 H1480 0.929 . S
C1484 C1486 1.378 . S
C1484 C1488 1.350 . S
C1485 C1488 1.463 . S
C1485 C1490 1.350 . S
C1485 N1493 1.427 . S
C1486 H1477 0.930 . S
C1486 C1484 1.378 . S
C1486 C1487 1.367 . S
C1487 C1486 1.367 . S
C1487 C1489 1.433 . S
C1488 C1484 1.350 . S
C1488 C1485 1.463 . S
C1488 N1492 1.427 . S
C1489 H1479 0.929 . S
C1489 C1487 1.433 . S
C1489 N1492 1.384 . S
C1490 H1481 0.929 . S
C1490 C1482 1.378 . S
C1490 C1485 1.350 . S
C1491 H1478 0.929 . S
C1491 C1483 1.433 . S
C1491 N1493 1.384 . S
N1492 C1488 1.427 . S
N1492 C1489 1.384 . S
N1493 C1485 1.427 . S
N1493 C1491 1.384 . S
H1494 C1500 0.930 . S
H1495 C1504 0.930 . S
H1496 C1509 0.929 . S
H1497 C1507 0.929 . S
H1498 C1502 0.929 . S
H1499 C1508 0.929 . S
C1500 H1494 0.930 . S
C1500 C1501 1.367 . S
C1500 C1508 1.378 . S
C1501 C1500 1.367 . S
C1501 C1509 1.433 . S
C1502 H1498 0.929 . S
C1502 C1504 1.378 . S
C1502 C1506 1.350 . S
C1503 C1506 1.463 . S
C1503 C1508 1.350 . S
C1503 N1511 1.427 . S
C1504 H1495 0.930 . S
C1504 C1502 1.378 . S
C1504 C1505 1.367 . S
C1505 C1504 1.367 . S
C1505 C1507 1.433 . S
C1506 C1502 1.350 . S
C1506 C1503 1.463 . S
C1506 N1510 1.427 . S
C1507 H1497 0.929 . S
C1507 C1505 1.433 . S
C1507 N1510 1.384 . S
C1508 H1499 0.929 . S
C1508 C1500 1.378 . S
C1508 C1503 1.350 . S
C1509 H1496 0.929 . S
C1509 C1501 1.433 . S
C1509 N1511 1.384 . S
N1510 C1506 1.427 . S
N1510 C1507 1.384 . S
N1511 C1503 1.427 . S
N1511 C1509 1.384 . S
H1512 C1518 0.930 . S
H1513 C1522 0.930 . S
H1514 C1527 0.929 . S
H1515 C1525 0.929 . S
H1516 C1520 0.929 . S
H1517 C1526 0.929 . S
C1518 H1512 0.930 . S
C1518 C1519 1.367 . S
C1518 C1526 1.378 . S
C1519 C1518 1.367 . S
C1519 C1527 1.433 . S
C1520 H1516 0.929 . S
C1520 C1522 1.378 . S
C1520 C1524 1.350 . S
C1521 C1524 1.463 . S
C1521 C1526 1.350 . S
C1521 N1529 1.427 . S
C1522 H1513 0.930 . S
C1522 C1520 1.378 . S
C1522 C1523 1.367 . S
C1523 C1522 1.367 . S
C1523 C1525 1.433 . S
C1524 C1520 1.350 . S
C1524 C1521 1.463 . S
C1524 N1528 1.427 . S
C1525 H1515 0.929 . S
C1525 C1523 1.433 . S
C1525 N1528 1.384 . S
C1526 H1517 0.929 . S
C1526 C1518 1.378 . S
C1526 C1521 1.350 . S
C1527 H1514 0.929 . S
C1527 C1519 1.433 . S
C1527 N1529 1.384 . S
N1528 C1524 1.427 . S
N1528 C1525 1.384 . S
N1529 C1521 1.427 . S
N1529 C1527 1.384 . S
H1530 C1536 0.930 . S
H1531 C1540 0.930 . S
H1532 C1545 0.929 . S
H1533 C1543 0.929 . S
H1534 C1538 0.929 . S
H1535 C1544 0.929 . S
C1536 H1530 0.930 . S
C1536 C1537 1.367 . S
C1536 C1544 1.378 . S
C1537 C1536 1.367 . S
C1537 C1545 1.433 . S
C1538 H1534 0.929 . S
C1538 C1540 1.378 . S
C1538 C1542 1.350 . S
C1539 C1542 1.463 . S
C1539 C1544 1.350 . S
C1539 N1547 1.427 . S
C1540 H1531 0.930 . S
C1540 C1538 1.378 . S
C1540 C1541 1.367 . S
C1541 C1540 1.367 . S
C1541 C1543 1.433 . S
C1542 C1538 1.350 . S
C1542 C1539 1.463 . S
C1542 N1546 1.427 . S
C1543 H1533 0.929 . S
C1543 C1541 1.433 . S
C1543 N1546 1.384 . S
C1544 H1535 0.929 . S
C1544 C1536 1.378 . S
C1544 C1539 1.350 . S
C1545 H1532 0.929 . S
C1545 C1537 1.433 . S
C1545 N1547 1.384 . S
N1546 C1542 1.427 . S
N1546 C1543 1.384 . S
N1547 C1539 1.427 . S
N1547 C1545 1.384 . S
H1548 C1554 0.930 . S
H1549 C1558 0.930 . S
H1550 C1563 0.929 . S
H1551 C1561 0.929 . S
H1552 C1556 0.929 . S
H1553 C1562 0.929 . S
C1554 H1548 0.930 . S
C1554 C1555 1.367 . S
C1554 C1562 1.378 . S
C1555 C1554 1.367 . S
C1555 C1563 1.433 . S
C1556 H1552 0.929 . S
C1556 C1558 1.378 . S
C1556 C1560 1.350 . S
C1557 C1560 1.463 . S
C1557 C1562 1.350 . S
C1557 N1565 1.427 . S
C1558 H1549 0.930 . S
C1558 C1556 1.378 . S
C1558 C1559 1.367 . S
C1559 C1558 1.367 . S
C1559 C1561 1.433 . S
C1560 C1556 1.350 . S
C1560 C1557 1.463 . S
C1560 N1564 1.427 . S
C1561 H1551 0.929 . S
C1561 C1559 1.433 . S
C1561 N1564 1.384 . S
C1562 H1553 0.929 . S
C1562 C1554 1.378 . S
C1562 C1557 1.350 . S
C1563 H1550 0.929 . S
C1563 C1555 1.433 . S
C1563 N1565 1.384 . S
N1564 C1560 1.427 . S
N1564 C1561 1.384 . S
N1565 C1557 1.427 . S
N1565 C1563 1.384 . S
H1566 C1572 0.930 . S
H1567 C1576 0.930 . S
H1568 C1581 0.929 . S
H1569 C1579 0.929 . S
H1570 C1574 0.929 . S
H1571 C1580 0.929 . S
C1572 H1566 0.930 . S
C1572 C1573 1.367 . S
C1572 C1580 1.378 . S
C1573 C1572 1.367 . S
C1573 C1581 1.433 . S
C1574 H1570 0.929 . S
C1574 C1576 1.378 . S
C1574 C1578 1.350 . S
C1575 C1578 1.463 . S
C1575 C1580 1.350 . S
C1575 N1583 1.427 . S
C1576 H1567 0.930 . S
C1576 C1574 1.378 . S
C1576 C1577 1.367 . S
C1577 C1576 1.367 . S
C1577 C1579 1.433 . S
C1578 C1574 1.350 . S
C1578 C1575 1.463 . S
C1578 N1582 1.427 . S
C1579 H1569 0.929 . S
C1579 C1577 1.433 . S
C1579 N1582 1.384 . S
C1580 H1571 0.929 . S
C1580 C1572 1.378 . S
C1580 C1575 1.350 . S
C1581 H1568 0.929 . S
C1581 C1573 1.433 . S
C1581 N1583 1.384 . S
N1582 C1578 1.427 . S
N1582 C1579 1.384 . S
N1583 C1575 1.427 . S
N1583 C1581 1.384 . S
H1584 C1590 0.930 . S
H1585 C1594 0.930 . S
H1586 C1599 0.929 . S
H1587 C1597 0.929 . S
H1588 C1592 0.929 . S
H1589 C1598 0.929 . S
C1590 H1584 0.930 . S
C1590 C1591 1.367 . S
C1590 C1598 1.378 . S
C1591 C1590 1.367 . S
C1591 C1599 1.433 . S
C1592 H1588 0.929 . S
C1592 C1594 1.378 . S
C1592 C1596 1.350 . S
C1593 C1596 1.463 . S
C1593 C1598 1.350 . S
C1593 N1601 1.427 . S
C1594 H1585 0.930 . S
C1594 C1592 1.378 . S
C1594 C1595 1.367 . S
C1595 C1594 1.367 . S
C1595 C1597 1.433 . S
C1596 C1592 1.350 . S
C1596 C1593 1.463 . S
C1596 N1600 1.427 . S
C1597 H1587 0.929 . S
C1597 C1595 1.433 . S
C1597 N1600 1.384 . S
C1598 H1589 0.929 . S
C1598 C1590 1.378 . S
C1598 C1593 1.350 . S
C1599 H1586 0.929 . S
C1599 C1591 1.433 . S
C1599 N1601 1.384 . S
N1600 C1596 1.427 . S
N1600 C1597 1.384 . S
N1601 C1593 1.427 . S
N1601 C1599 1.384 . S
H1602 C1608 0.930 . S
H1603 C1612 0.930 . S
H1604 C1617 0.929 . S
H1605 C1615 0.929 . S
H1606 C1610 0.929 . S
H1607 C1616 0.929 . S
C1608 H1602 0.930 . S
C1608 C1609 1.367 . S
C1608 C1616 1.378 . S
C1609 C1608 1.367 . S
C1609 C1617 1.433 . S
C1610 H1606 0.929 . S
C1610 C1612 1.378 . S
C1610 C1614 1.350 . S
C1611 C1614 1.463 . S
C1611 C1616 1.350 . S
C1611 N1619 1.427 . S
C1612 H1603 0.930 . S
C1612 C1610 1.378 . S
C1612 C1613 1.367 . S
C1613 C1612 1.367 . S
C1613 C1615 1.433 . S
C1614 C1610 1.350 . S
C1614 C1611 1.463 . S
C1614 N1618 1.427 . S
C1615 H1605 0.929 . S
C1615 C1613 1.433 . S
C1615 N1618 1.384 . S
C1616 H1607 0.929 . S
C1616 C1608 1.378 . S
C1616 C1611 1.350 . S
C1617 H1604 0.929 . S
C1617 C1609 1.433 . S
C1617 N1619 1.384 . S
N1618 C1614 1.427 . S
N1618 C1615 1.384 . S
N1619 C1611 1.427 . S
N1619 C1617 1.384 . S
H1620 C1626 0.930 . S
H1621 C1630 0.930 . S
H1622 C1635 0.929 . S
H1623 C1633 0.929 . S
H1624 C1628 0.929 . S
H1625 C1634 0.929 . S
C1626 H1620 0.930 . S
C1626 C1627 1.367 . S
C1626 C1634 1.378 . S
C1627 C1626 1.367 . S
C1627 C1635 1.433 . S
C1628 H1624 0.929 . S
C1628 C1630 1.378 . S
C1628 C1632 1.350 . S
C1629 C1632 1.463 . S
C1629 C1634 1.350 . S
C1629 N1637 1.427 . S
C1630 H1621 0.930 . S
C1630 C1628 1.378 . S
C1630 C1631 1.367 . S
C1631 C1630 1.367 . S
C1631 C1633 1.433 . S
C1632 C1628 1.350 . S
C1632 C1629 1.463 . S
C1632 N1636 1.427 . S
C1633 H1623 0.929 . S
C1633 C1631 1.433 . S
C1633 N1636 1.384 . S
C1634 H1625 0.929 . S
C1634 C1626 1.378 . S
C1634 C1629 1.350 . S
C1635 H1622 0.929 . S
C1635 C1627 1.433 . S
C1635 N1637 1.384 . S
N1636 C1632 1.427 . S
N1636 C1633 1.384 . S
N1637 C1629 1.427 . S
N1637 C1635 1.384 . S
H1638 C1644 0.930 . S
H1639 C1648 0.930 . S
H1640 C1653 0.929 . S
H1641 C1651 0.929 . S
H1642 C1646 0.929 . S
H1643 C1652 0.929 . S
C1644 H1638 0.930 . S
C1644 C1645 1.367 . S
C1644 C1652 1.378 . S
C1645 C1644 1.367 . S
C1645 C1653 1.433 . S
C1646 H1642 0.929 . S
C1646 C1648 1.378 . S
C1646 C1650 1.350 . S
C1647 C1650 1.463 . S
C1647 C1652 1.350 . S
C1647 N1655 1.427 . S
C1648 H1639 0.930 . S
C1648 C1646 1.378 . S
C1648 C1649 1.367 . S
C1649 C1648 1.367 . S
C1649 C1651 1.433 . S
C1650 C1646 1.350 . S
C1650 C1647 1.463 . S
C1650 N1654 1.427 . S
C1651 H1641 0.929 . S
C1651 C1649 1.433 . S
C1651 N1654 1.384 . S
C1652 H1643 0.929 . S
C1652 C1644 1.378 . S
C1652 C1647 1.350 . S
C1653 H1640 0.929 . S
C1653 C1645 1.433 . S
C1653 N1655 1.384 . S
N1654 C1650 1.427 . S
N1654 C1651 1.384 . S
N1655 C1647 1.427 . S
N1655 C1653 1.384 . S
H1656 C1662 0.930 . S
H1657 C1666 0.930 . S
H1658 C1671 0.929 . S
H1659 C1669 0.929 . S
H1660 C1664 0.929 . S
H1661 C1670 0.929 . S
C1662 H1656 0.930 . S
C1662 C1663 1.367 . S
C1662 C1670 1.378 . S
C1663 C1662 1.367 . S
C1663 C1671 1.433 . S
C1664 H1660 0.929 . S
C1664 C1666 1.378 . S
C1664 C1668 1.350 . S
C1665 C1668 1.463 . S
C1665 C1670 1.350 . S
C1665 N1673 1.427 . S
C1666 H1657 0.930 . S
C1666 C1664 1.378 . S
C1666 C1667 1.367 . S
C1667 C1666 1.367 . S
C1667 C1669 1.433 . S
C1668 C1664 1.350 . S
C1668 C1665 1.463 . S
C1668 N1672 1.427 . S
C1669 H1659 0.929 . S
C1669 C1667 1.433 . S
C1669 N1672 1.384 . S
C1670 H1661 0.929 . S
C1670 C1662 1.378 . S
C1670 C1665 1.350 . S
C1671 H1658 0.929 . S
C1671 C1663 1.433 . S
C1671 N1673 1.384 . S
N1672 C1668 1.427 . S
N1672 C1669 1.384 . S
N1673 C1665 1.427 . S
N1673 C1671 1.384 . S
H1674 C1680 0.930 . S
H1675 C1684 0.930 . S
H1676 C1689 0.929 . S
H1677 C1687 0.929 . S
H1678 C1682 0.929 . S
H1679 C1688 0.929 . S
C1680 H1674 0.930 . S
C1680 C1681 1.367 . S
C1680 C1688 1.378 . S
C1681 C1680 1.367 . S
C1681 C1689 1.433 . S
C1682 H1678 0.929 . S
C1682 C1684 1.378 . S
C1682 C1686 1.350 . S
C1683 C1686 1.463 . S
C1683 C1688 1.350 . S
C1683 N1691 1.427 . S
C1684 H1675 0.930 . S
C1684 C1682 1.378 . S
C1684 C1685 1.367 . S
C1685 C1684 1.367 . S
C1685 C1687 1.433 . S
C1686 C1682 1.350 . S
C1686 C1683 1.463 . S
C1686 N1690 1.427 . S
C1687 H1677 0.929 . S
C1687 C1685 1.433 . S
C1687 N1690 1.384 . S
C1688 H1679 0.929 . S
C1688 C1680 1.378 . S
C1688 C1683 1.350 . S
C1689 H1676 0.929 . S
C1689 C1681 1.433 . S
C1689 N1691 1.384 . S
N1690 C1686 1.427 . S
N1690 C1687 1.384 . S
N1691 C1683 1.427 . S
N1691 C1689 1.384 . S
H1692 C1698 0.930 . S
H1693 C1702 0.930 . S
H1694 C1707 0.929 . S
H1695 C1705 0.929 . S
H1696 C1700 0.929 . S
H1697 C1706 0.929 . S
C1698 H1692 0.930 . S
C1698 C1699 1.367 . S
C1698 C1706 1.378 . S
C1699 C1698 1.367 . S
C1699 C1707 1.433 . S
C1700 H1696 0.929 . S
C1700 C1702 1.378 . S
C1700 C1704 1.350 . S
C1701 C1704 1.463 1_455 S
C1701 C1706 1.350 . S
C1701 N1709 1.427 . S
C1702 H1693 0.930 . S
C1702 C1700 1.378 . S
C1702 C1703 1.367 . S
C1703 C1702 1.367 . S
C1703 C1705 1.433 . S
C1704 C1700 1.350 . S
C1704 C1701 1.463 1_655 S
C1704 N1708 1.427 . S
C1705 H1695 0.929 . S
C1705 C1703 1.433 . S
C1705 N1708 1.384 . S
C1706 H1697 0.929 . S
C1706 C1698 1.378 . S
C1706 C1701 1.350 . S
C1707 H1694 0.929 . S
C1707 C1699 1.433 . S
C1707 N1709 1.384 . S
N1708 C1704 1.427 . S
N1708 C1705 1.384 . S
N1709 C1701 1.427 . S
N1709 C1707 1.384 . S
H1710 C1716 0.930 . S
H1711 C1720 0.930 . S
H1712 C1725 0.929 . S
H1713 C1723 0.929 . S
H1714 C1718 0.929 . S
H1715 C1724 0.929 . S
C1716 H1710 0.930 . S
C1716 C1717 1.367 . S
C1716 C1724 1.378 . S
C1717 C1716 1.367 . S
C1717 C1725 1.433 . S
C1718 H1714 0.929 . S
C1718 C1720 1.378 . S
C1718 C1722 1.350 . S
C1719 C1722 1.463 . S
C1719 C1724 1.350 . S
C1719 N1727 1.427 . S
C1720 H1711 0.930 . S
C1720 C1718 1.378 . S
C1720 C1721 1.367 . S
C1721 C1720 1.367 . S
C1721 C1723 1.433 . S
C1722 C1718 1.350 . S
C1722 C1719 1.463 . S
C1722 N1726 1.427 . S
C1723 H1713 0.929 . S
C1723 C1721 1.433 . S
C1723 N1726 1.384 . S
C1724 H1715 0.929 . S
C1724 C1716 1.378 . S
C1724 C1719 1.350 . S
C1725 H1712 0.929 . S
C1725 C1717 1.433 . S
C1725 N1727 1.384 . S
N1726 C1722 1.427 . S
N1726 C1723 1.384 . S
N1727 C1719 1.427 . S
N1727 C1725 1.384 . S
H1728 C1734 0.930 . S
H1729 C1738 0.930 . S
H1730 C1743 0.929 . S
H1731 C1741 0.929 . S
H1732 C1736 0.929 . S
H1733 C1742 0.929 . S
C1734 H1728 0.930 . S
C1734 C1735 1.367 . S
C1734 C1742 1.378 . S
C1735 C1734 1.367 . S
C1735 C1743 1.433 . S
C1736 H1732 0.929 . S
C1736 C1738 1.378 . S
C1736 C1740 1.350 . S
C1737 C1740 1.463 1_545 S
C1737 C1742 1.350 . S
C1737 N1745 1.427 . S
C1738 H1729 0.930 . S
C1738 C1736 1.378 . S
C1738 C1739 1.367 . S
C1739 C1738 1.367 . S
C1739 C1741 1.433 . S
C1740 C1736 1.350 . S
C1740 C1737 1.463 1_565 S
C1740 N1744 1.427 . S
C1741 H1731 0.929 . S
C1741 C1739 1.433 . S
C1741 N1744 1.384 . S
C1742 H1733 0.929 . S
C1742 C1734 1.378 . S
C1742 C1737 1.350 . S
C1743 H1730 0.929 . S
C1743 C1735 1.433 . S
C1743 N1745 1.384 . S
N1744 C1740 1.427 . S
N1744 C1741 1.384 . S
N1745 C1737 1.427 . S
N1745 C1743 1.384 . S
H1746 C1752 0.930 . S
H1747 C1756 0.930 . S
H1748 C1761 0.929 . S
H1749 C1759 0.929 . S
H1750 C1754 0.929 . S
H1751 C1760 0.929 . S
C1752 H1746 0.930 . S
C1752 C1753 1.367 . S
C1752 C1760 1.378 1_556 S
C1753 C1752 1.367 . S
C1753 C1761 1.433 . S
C1754 H1750 0.929 . S
C1754 C1756 1.378 1_556 S
C1754 C1758 1.350 1_556 S
C1755 C1758 1.463 1_546 S
C1755 C1760 1.350 1_556 S
C1755 N1763 1.427 . S
C1756 H1747 0.930 . S
C1756 C1754 1.378 1_554 S
C1756 C1757 1.367 . S
C1757 C1756 1.367 . S
C1757 C1759 1.433 . S
C1758 C1754 1.350 1_554 S
C1758 C1755 1.463 1_564 S
C1758 N1762 1.427 . S
C1759 H1749 0.929 . S
C1759 C1757 1.433 . S
C1759 N1762 1.384 . S
C1760 H1751 0.929 . S
C1760 C1752 1.378 1_554 S
C1760 C1755 1.350 1_554 S
C1761 H1748 0.929 . S
C1761 C1753 1.433 . S
C1761 N1763 1.384 . S
N1762 C1758 1.427 . S
N1762 C1759 1.384 . S
N1763 C1755 1.427 . S
N1763 C1761 1.384 . S
H1764 C1770 0.930 . S
H1765 C1774 0.930 . S
H1766 C1779 0.929 . S
H1767 C1777 0.929 . S
H1768 C1772 0.929 . S
H1769 C1778 0.929 . S
C1770 H1764 0.930 . S
C1770 C1771 1.367 . S
C1770 C1778 1.378 1_556 S
C1771 C1770 1.367 . S
C1771 C1779 1.433 . S
C1772 H1768 0.929 . S
C1772 C1774 1.378 1_556 S
C1772 C1776 1.350 1_556 S
C1773 C1776 1.463 1_656 S
C1773 C1778 1.350 1_556 S
C1773 N1781 1.427 . S
C1774 H1765 0.930 . S
C1774 C1772 1.378 1_554 S
C1774 C1775 1.367 . S
C1775 C1774 1.367 . S
C1775 C1777 1.433 . S
C1776 C1772 1.350 1_554 S
C1776 C1773 1.463 1_454 S
C1776 N1780 1.427 . S
C1777 H1767 0.929 . S
C1777 C1775 1.433 . S
C1777 N1780 1.384 . S
C1778 H1769 0.929 . S
C1778 C1770 1.378 1_554 S
C1778 C1773 1.350 1_554 S
C1779 H1766 0.929 . S
C1779 C1771 1.433 . S
C1779 N1781 1.384 . S
N1780 C1776 1.427 . S
N1780 C1777 1.384 . S
N1781 C1773 1.427 . S
N1781 C1779 1.384 . S
H1782 C1788 0.930 . S
H1783 C1792 0.930 . S
H1784 C1797 0.929 . S
H1785 C1795 0.929 . S
H1786 C1790 0.929 . S
H1787 C1796 0.929 . S
C1788 H1782 0.930 . S
C1788 C1789 1.367 . S
C1788 C1796 1.378 1_556 S
C1789 C1788 1.367 . S
C1789 C1797 1.433 . S
C1790 H1786 0.929 . S
C1790 C1792 1.378 1_556 S
C1790 C1794 1.350 1_556 S
C1791 C1794 1.463 1_556 S
C1791 C1796 1.350 1_556 S
C1791 N1799 1.427 . S
C1792 H1783 0.930 . S
C1792 C1790 1.378 1_554 S
C1792 C1793 1.367 . S
C1793 C1792 1.367 . S
C1793 C1795 1.433 . S
C1794 C1790 1.350 1_554 S
C1794 C1791 1.463 1_554 S
C1794 N1798 1.427 . S
C1795 H1785 0.929 . S
C1795 C1793 1.433 . S
C1795 N1798 1.384 . S
C1796 H1787 0.929 . S
C1796 C1788 1.378 1_554 S
C1796 C1791 1.350 1_554 S
C1797 H1784 0.929 . S
C1797 C1789 1.433 . S
C1797 N1799 1.384 . S
N1798 C1794 1.427 . S
N1798 C1795 1.384 . S
N1799 C1791 1.427 . S
N1799 C1797 1.384 . S
C511 C3 1.309 . S
C515 C107 1.283 . S
C529 C17 1.316 . S
C533 C121 1.283 . S
C547 C93 1.289 . S
C551 C31 1.317 . S
C565 C163 1.293 . S
C569 C45 1.315 . S
C583 C59 1.309 . S
C587 C135 1.288 . S
C601 C73 1.312 . S
C605 C149 1.292 . S
C619 C23 1.290 . S
C623 C87 1.317 . S
C637 C37 1.292 . S
C641 C101 1.312 . S
C655 C115 1.314 . S
C659 C9 1.293 . S
C673 C129 1.316 . S
C677 C79 1.283 . S
C691 C51 1.279 . S
C695 C143 1.314 . S
C709 C157 1.309 . S
C713 C65 1.287 . S
C727 C275 1.292 . S
C731 C171 1.311 . S
C745 C185 1.310 . S
C749 C289 1.290 . S
C763 C199 1.312 . S
C767 C261 1.278 . S
C781 C331 1.285 . S
C785 C213 1.317 . S
C799 C227 1.316 . S
C803 C303 1.292 . S
C817 C317 1.292 . S
C821 C241 1.312 . S
C835 C191 1.291 . S
C839 C255 1.311 . S
C853 C269 1.312 . S
C857 C205 1.278 . S
C871 C177 1.293 . S
C875 C283 1.314 . S
C889 C297 1.316 . S
C893 C247 1.291 . S
C907 C311 1.317 . S
C911 C219 1.291 . S
C925 C325 1.310 . S
C929 C233 1.289 . S
C943 C443 1.290 . S
C947 C339 1.310 . S
C961 C457 1.293 . S
C965 C353 1.316 . S
C979 C429 1.280 . S
C983 C367 1.309 . S
C997 C381 1.312 . S
C1001 C499 1.278 . S
C1015 C395 1.311 . S
C1019 C471 1.291 . S
C1033 C485 1.291 . S
C1037 C409 1.311 . S
C1051 C423 1.310 . S
C1055 C359 1.290 . S
C1069 C373 1.292 . S
C1073 C437 1.316 . S
C1087 C345 1.286 . S
C1091 C451 1.309 . S
C1105 C465 1.317 . S
C1109 C415 1.287 . S
C1123 C479 1.313 . S
C1127 C387 1.279 . S
C1141 C493 1.317 . S
C1145 C401 1.288 . S
C1159 C49 1.341 . S
C1163 C7 1.333 . S
C1177 C63 1.335 . S
C1181 C21 1.342 . S
C1195 C35 1.339 . S
C1199 C77 1.332 . S
C1213 C133 1.343 . S
C1217 C91 1.343 . S
C1231 C147 1.340 . S
C1235 C105 1.344 . S
C1249 C161 1.340 . S
C1253 C119 1.333 . S
C1267 C217 1.334 . S
C1271 C175 1.342 . S
C1285 C231 1.331 . S
C1289 C189 1.335 . S
C1303 C203 1.344 . S
C1307 C245 1.338 . S
C1321 C301 1.335 1_554 S
C1325 C259 1.331 . S
C1339 C315 1.343 1_554 S
C1343 C273 1.343 . S
C1357 C329 1.336 1_554 S
C1361 C287 1.343 . S
C1375 C385 1.331 1_556 S
C1379 C343 1.334 . S
C1393 C357 1.344 . S
C1397 C399 1.338 1_556 S
C1411 C413 1.333 1_556 S
C1415 C371 1.332 . S
C1429 C427 1.331 . S
C1433 C469 1.334 . S
C1447 C441 1.334 . S
C1451 C483 1.331 . S
C1465 C455 1.333 . S
C1469 C497 1.332 . S
C1483 C8 1.431 . S
C1487 C260 1.431 . S
C1501 C274 1.432 . S
C1505 C22 1.432 . S
C1519 C288 1.433 . S
C1523 C36 1.433 . S
C1537 C470 1.431 . S
C1541 C50 1.431 . S
C1555 C484 1.430 . S
C1559 C64 1.430 . S
C1573 C498 1.431 . S
C1577 C78 1.431 . S
C1591 C92 1.431 . S
C1595 C344 1.431 . S
C1609 C358 1.431 . S
C1613 C106 1.431 . S
C1627 C372 1.429 . S
C1631 C120 1.429 . S
C1645 C134 1.432 . S
C1649 C218 1.432 . S
C1663 C148 1.432 . S
C1667 C232 1.432 . S
C1681 C162 1.429 . S
C1685 C246 1.429 . S
C1699 C428 1.430 . S
C1703 C176 1.430 . S
C1717 C442 1.430 . S
C1721 C190 1.430 . S
C1735 C204 1.430 . S
C1739 C456 1.430 . S
C1753 C302 1.432 . S
C1757 C386 1.432 . S
C1771 C316 1.432 . S
C1775 C400 1.432 . S
C1789 C330 1.429 . S
C1793 C414 1.429 . S
