# Generated by pormake.
# Topology ume, (4)-cn, num edge types: 1
# Building blocks:
#     Node 0, Type 0, BuildingBlock: KOZSID_clean_sbu_0, # of connection points: 4
#     Node 1, Type 0, BuildingBlock: KOZSID_clean_sbu_0, # of connection points: 4
#     Node 2, Type 0, BuildingBlock: KOZSID_clean_sbu_0, # of connection points: 4
#     Node 3, Type 0, BuildingBlock: KOZSID_clean_sbu_0, # of connection points: 4
#     Node 4, Type 0, BuildingBlock: KOZSID_clean_sbu_0, # of connection points: 4
#     Node 5, Type 0, BuildingBlock: KOZSID_clean_sbu_0, # of connection points: 4
#     Node 6, Type 0, BuildingBlock: KOZSID_clean_sbu_0, # of connection points: 4
#     Node 7, Type 0, BuildingBlock: KOZSID_clean_sbu_0, # of connection points: 4
#     Node 8, Type 0, BuildingBlock: KOZSID_clean_sbu_0, # of connection points: 4
#     Node 9, Type 0, BuildingBlock: KOZSID_clean_sbu_0, # of connection points: 4
#     Node 10, Type 0, BuildingBlock: KOZSID_clean_sbu_0, # of connection points: 4
#     Node 11, Type 0, BuildingBlock: KOZSID_clean_sbu_0, # of connection points: 4
#     Node 12, Type 0, BuildingBlock: KOZSID_clean_sbu_0, # of connection points: 4
#     Node 13, Type 0, BuildingBlock: KOZSID_clean_sbu_0, # of connection points: 4
#     Node 14, Type 0, BuildingBlock: KOZSID_clean_sbu_0, # of connection points: 4
#     Node 15, Type 0, BuildingBlock: KOZSID_clean_sbu_0, # of connection points: 4
#     Edge 16, Type (0, 0), BuildingBlock: AJUNOK_clean_linker_0, # of connection points: 2
#     Edge 17, Type (0, 0), BuildingBlock: AJUNOK_clean_linker_0, # of connection points: 2
#     Edge 18, Type (0, 0), BuildingBlock: AJUNOK_clean_linker_0, # of connection points: 2
#     Edge 19, Type (0, 0), BuildingBlock: AJUNOK_clean_linker_0, # of connection points: 2
#     Edge 20, Type (0, 0), BuildingBlock: AJUNOK_clean_linker_0, # of connection points: 2
#     Edge 21, Type (0, 0), BuildingBlock: AJUNOK_clean_linker_0, # of connection points: 2
#     Edge 22, Type (0, 0), BuildingBlock: AJUNOK_clean_linker_0, # of connection points: 2
#     Edge 23, Type (0, 0), BuildingBlock: AJUNOK_clean_linker_0, # of connection points: 2
#     Edge 24, Type (0, 0), BuildingBlock: AJUNOK_clean_linker_0, # of connection points: 2
#     Edge 25, Type (0, 0), BuildingBlock: AJUNOK_clean_linker_0, # of connection points: 2
#     Edge 26, Type (0, 0), BuildingBlock: AJUNOK_clean_linker_0, # of connection points: 2
#     Edge 27, Type (0, 0), BuildingBlock: AJUNOK_clean_linker_0, # of connection points: 2
#     Edge 28, Type (0, 0), BuildingBlock: AJUNOK_clean_linker_0, # of connection points: 2
#     Edge 29, Type (0, 0), BuildingBlock: AJUNOK_clean_linker_0, # of connection points: 2
#     Edge 30, Type (0, 0), BuildingBlock: AJUNOK_clean_linker_0, # of connection points: 2
#     Edge 31, Type (0, 0), BuildingBlock: AJUNOK_clean_linker_0, # of connection points: 2
#     Edge 32, Type (0, 0), BuildingBlock: AJUNOK_clean_linker_0, # of connection points: 2
#     Edge 33, Type (0, 0), BuildingBlock: AJUNOK_clean_linker_0, # of connection points: 2
#     Edge 34, Type (0, 0), BuildingBlock: AJUNOK_clean_linker_0, # of connection points: 2
#     Edge 35, Type (0, 0), BuildingBlock: AJUNOK_clean_linker_0, # of connection points: 2
#     Edge 36, Type (0, 0), BuildingBlock: AJUNOK_clean_linker_0, # of connection points: 2
#     Edge 37, Type (0, 0), BuildingBlock: AJUNOK_clean_linker_0, # of connection points: 2
#     Edge 38, Type (0, 0), BuildingBlock: AJUNOK_clean_linker_0, # of connection points: 2
#     Edge 39, Type (0, 0), BuildingBlock: AJUNOK_clean_linker_0, # of connection points: 2
#     Edge 40, Type (0, 0), BuildingBlock: AJUNOK_clean_linker_0, # of connection points: 2
#     Edge 41, Type (0, 0), BuildingBlock: AJUNOK_clean_linker_0, # of connection points: 2
#     Edge 42, Type (0, 0), BuildingBlock: AJUNOK_clean_linker_0, # of connection points: 2
#     Edge 43, Type (0, 0), BuildingBlock: AJUNOK_clean_linker_0, # of connection points: 2
#     Edge 44, Type (0, 0), BuildingBlock: AJUNOK_clean_linker_0, # of connection points: 2
#     Edge 45, Type (0, 0), BuildingBlock: AJUNOK_clean_linker_0, # of connection points: 2
#     Edge 46, Type (0, 0), BuildingBlock: AJUNOK_clean_linker_0, # of connection points: 2
#     Edge 47, Type (0, 0), BuildingBlock: AJUNOK_clean_linker_0, # of connection points: 2
# Relax obj value: 0.054
# Max RMSD: 0.255
# Mean RMSD: 0.215
data_MOF--net-ume--node1-KOZSID_clean_sbu_0--edge1-AJUNOK_clean_linker_0
_symmetry_space_group_name_H-M    P1
_symmetry_Int_Tables_number       1
_symmetry_cell_setting            triclinic
loop_
_symmetry_equiv_pos_as_xyz
'x, y, z'
_cell_length_a     24.787424
_cell_length_b     30.333506
_cell_length_c     103.08466
_cell_angle_alpha  90.023143
_cell_angle_beta   89.6635
_cell_angle_gamma 89.882466
loop_
_atom_site_label
_atom_site_type_symbol
_atom_site_fract_x
_atom_site_fract_y
_atom_site_fract_z
_atom_type_partial_charge
C0 C 0.35809 0.07836 0.33451 0.0
C1 C 0.38189 0.11833 0.33762 0.0
C2 C 0.34626 0.15087 0.33395 0.0
C3 C 0.30281 0.1291 0.32877 0.0
N4 N 0.30891 0.08505 0.32911 0.0
Co5 Co 0.25779 0.04201 0.32175 0.0
N6 N 0.19769 0.08529 0.32113 0.0
C7 C 0.20328 0.12933 0.32155 0.0
C8 C 0.15436 0.15084 0.32118 0.0
C9 C 0.11591 0.11817 0.32046 0.0
C10 C 0.1434 0.07834 0.32049 0.0
N11 N 0.20644 0.9986 0.31431 0.0
C12 C 0.1517 0.99831 0.31441 0.0
C13 C 0.13205 0.95985 0.30885 0.0
C14 C 0.17584 0.93598 0.30484 0.0
C15 C 0.21974 0.96058 0.30833 0.0
N16 N 0.31592 0.99729 0.32231 0.0
C17 C 0.31672 0.95831 0.31604 0.0
C18 C 0.35877 0.93173 0.31965 0.0
C19 C 0.38653 0.95566 0.32863 0.0
C20 C 0.36031 0.99615 0.3298 0.0
N21 N 0.23675 0.02616 0.33996 0.0
C22 C 0.23403 1.01235 0.36743 0.0
C23 C 0.24286 0.97723 0.35867 0.0
C24 C 0.24334 0.98465 0.34505 0.0
C25 C 0.22442 0.0539 0.36193 0.0
C26 C 0.22562 0.05995 0.34843 0.0
N27 N 0.28283 0.06141 0.30393 0.0
C28 C 0.35788 0.09097 0.29111 0.0
C29 C 0.32356 0.10821 0.2816 0.0
C30 C 0.26793 0.0992 0.28328 0.0
C31 C 0.24847 0.07622 0.29445 0.0
C32 C 0.3372 0.06741 0.30186 0.0
H33 H 0.20544 0.07195 0.29565 0.0
H34 H 0.36581 0.05603 0.3089 0.0
H35 H 0.25148 0.95711 0.33869 0.0
H36 H 0.22091 0.09313 0.34497 0.0
C37 C 0.25348 0.14796 0.32482 0.0
C38 C 0.38527 0.03515 0.33565 0.0
C39 C 0.11736 0.03467 0.31905 0.0
C40 C 0.27198 0.94401 0.30914 0.0
H41 H 0.42115 0.12337 0.3419 0.0
H42 H 0.35119 0.18608 0.33512 0.0
H43 H 0.14722 0.18596 0.32195 0.0
H44 H 0.07269 0.12301 0.32001 0.0
H45 H 0.09054 0.9495 0.30792 0.0
H46 H 0.17567 0.90313 0.30073 0.0
H47 H 0.367 0.89826 0.31656 0.0
H48 H 0.42332 0.94526 0.33335 0.0
H49 H 0.25009 0.94428 0.36231 0.0
H50 H 0.21858 0.08256 0.36804 0.0
H51 H 0.40103 0.09602 0.29035 0.0
H52 H 0.23924 0.11136 0.27625 0.0
C53 C 0.95932 0.79651 0.55562 0.0
C54 C 0.99904 0.79466 0.54613 0.0
C55 C 0.0425 0.77284 0.55149 0.0
C56 C 0.0272 0.76229 0.56398 0.0
N57 N 0.97686 0.77605 0.5667 0.0
Co58 Co 0.94107 0.77051 0.58393 0.0
N59 N 0.00951 0.76069 0.59345 0.0
C60 C 0.05578 0.74729 0.58779 0.0
C61 C 0.09617 0.74055 0.59667 0.0
C62 C 0.07352 0.74976 0.60862 0.0
C63 C 0.02034 0.76176 0.60643 0.0
N64 N 0.90349 0.76719 0.60103 0.0
C65 C 0.92284 0.7701 0.61333 0.0
C66 C 0.88141 0.76527 0.62236 0.0
C67 C 0.83504 0.75846 0.6155 0.0
C68 C 0.85042 0.75958 0.60271 0.0
N69 N 0.87214 0.77951 0.5744 0.0
C70 C 0.82277 0.76935 0.57899 0.0
C71 C 0.78212 0.7815 0.57074 0.0
C72 C 0.80731 0.80075 0.56034 0.0
C73 C 0.86235 0.79892 0.56272 0.0
N74 N 0.93665 0.70465 0.58194 0.0
C75 C 0.96436 0.61319 0.5797 0.0
C76 C 0.95778 0.63381 0.5918 0.0
C77 C 0.94442 0.67876 0.5927 0.0
C78 C 0.95144 0.63886 0.56872 0.0
C79 C 0.93745 0.68419 0.57004 0.0
N80 N 0.95021 0.83461 0.58604 0.0
C81 C 0.91816 0.90844 0.59045 0.0
C82 C 0.97065 0.92527 0.58882 0.0
C83 C 0.01199 0.89601 0.58568 0.0
C84 C 0.00096 0.8514 0.58422 0.0
C85 C 0.90887 0.86271 0.58918 0.0
H86 H 0.03416 0.83063 0.58148 0.0
H87 H 0.86858 0.8501 0.59065 0.0
H88 H 0.94419 0.69279 0.60227 0.0
H89 H 0.9302 0.70313 0.56135 0.0
C90 C 0.06121 0.74786 0.57411 0.0
C91 C 0.90409 0.81501 0.55359 0.0
C92 C 0.98035 0.77105 0.61688 0.0
C93 C 0.81554 0.75929 0.59211 0.0
H94 H 0.99682 0.80782 0.53639 0.0
H95 H 0.08151 0.76734 0.547 0.0
H96 H 0.13757 0.73118 0.5947 0.0
H97 H 0.09358 0.74748 0.61789 0.0
H98 H 0.88452 0.76531 0.63283 0.0
H99 H 0.79477 0.75402 0.6194 0.0
H100 H 0.73909 0.77969 0.57251 0.0
H101 H 0.78705 0.8154 0.55214 0.0
H102 H 0.96469 0.61563 0.60067 0.0
H103 H 0.95456 0.62467 0.55911 0.0
H104 H 0.88489 0.9303 0.59277 0.0
H105 H 0.05277 0.90772 0.58407 0.0
C106 C 0.14349 0.45586 0.83341 0.0
C107 C 0.12003 0.41529 0.83601 0.0
C108 C 0.15699 0.38364 0.8324 0.0
C109 C 0.20086 0.4065 0.82776 0.0
N110 N 0.19371 0.45046 0.82837 0.0
Co111 Co 0.24517 0.4949 0.82185 0.0
N112 N 0.30636 0.45247 0.82151 0.0
C113 C 0.30205 0.4083 0.82197 0.0
C114 C 0.35155 0.3877 0.822 0.0
C115 C 0.38912 0.42109 0.82155 0.0
C116 C 0.36049 0.46038 0.82129 0.0
N117 N 0.29653 0.53961 0.81501 0.0
C118 C 0.35118 0.54044 0.81524 0.0
C119 C 0.37075 0.5795 0.80997 0.0
C120 C 0.32701 0.60325 0.80602 0.0
C121 C 0.28321 0.57799 0.80926 0.0
N122 N 0.18629 0.53912 0.82264 0.0
C123 C 0.18555 0.57867 0.81669 0.0
C124 C 0.1414 0.6037 0.81987 0.0
C125 C 0.11215 0.57819 0.82823 0.0
C126 C 0.13996 0.53847 0.82957 0.0
N127 N 0.26328 0.5096 0.84029 0.0
C128 C 0.26629 0.52316 0.86776 0.0
C129 C 0.25873 0.55853 0.85905 0.0
C130 C 0.25807 0.5512 0.84542 0.0
C131 C 0.274 0.48138 0.86221 0.0
C132 C 0.27254 0.47542 0.84871 0.0
N133 N 0.22316 0.47657 0.80359 0.0
C134 C 0.1486 0.45984 0.78886 0.0
C135 C 0.17922 0.42953 0.78152 0.0
C136 C 0.23444 0.42711 0.78492 0.0
C137 C 0.25552 0.45118 0.79565 0.0
C138 C 0.17056 0.48194 0.79971 0.0
H139 H 0.29791 0.44754 0.79768 0.0
H140 H 0.14334 0.5024 0.8051 0.0
H141 H 0.25125 0.57899 0.83909 0.0
H142 H 0.27613 0.44219 0.84521 0.0
C143 C 0.25165 0.38862 0.82447 0.0
C144 C 0.1157 0.49853 0.83509 0.0
C145 C 0.38554 0.50443 0.81996 0.0
C146 C 0.2307 0.59405 0.81004 0.0
H147 H 0.08029 0.40931 0.84004 0.0
H148 H 0.15284 0.34828 0.83337 0.0
H149 H 0.35953 0.35271 0.82278 0.0
H150 H 0.43251 0.41706 0.82141 0.0
H151 H 0.4121 0.59051 0.80926 0.0
H152 H 0.32705 0.63642 0.80215 0.0
H153 H 0.13231 0.637 0.81679 0.0
H154 H 0.07354 0.58718 0.83242 0.0
H155 H 0.25288 0.59164 0.86273 0.0
H156 H 0.27882 0.45259 0.8683 0.0
H157 H 0.10717 0.46683 0.7864 0.0
H158 H 0.26145 0.40564 0.77956 0.0
C159 C 0.53938 0.73934 0.05623 0.0
C160 C 0.4993 0.74074 0.04693 0.0
C161 C 0.456 0.76275 0.05243 0.0
C162 C 0.47174 0.77388 0.0648 0.0
N163 N 0.5222 0.76027 0.06731 0.0
Co164 Co 0.5584 0.76605 0.08437 0.0
N165 N 0.49018 0.7757 0.09419 0.0
C166 C 0.4437 0.78895 0.08874 0.0
C167 C 0.40344 0.7953 0.0978 0.0
C168 C 0.42642 0.78602 0.10964 0.0
C169 C 0.47964 0.77436 0.10722 0.0
N170 N 0.59636 0.76973 0.10131 0.0
C171 C 0.57737 0.76682 0.11369 0.0
C172 C 0.61897 0.77215 0.12254 0.0
C173 C 0.66507 0.77925 0.11547 0.0
C174 C 0.64936 0.77781 0.10274 0.0
N175 N 0.62708 0.75719 0.07456 0.0
C176 C 0.67646 0.76774 0.07892 0.0
C177 C 0.71699 0.75563 0.07053 0.0
C178 C 0.69173 0.73602 0.06026 0.0
C179 C 0.63669 0.73763 0.06285 0.0
N180 N 0.56263 0.83187 0.08229 0.0
C181 C 0.5406 0.92432 0.07989 0.0
C182 C 0.54375 0.90354 0.09202 0.0
C183 C 0.55456 0.85811 0.093 0.0
C184 C 0.55108 0.89765 0.06894 0.0
C185 C 0.56279 0.85196 0.07035 0.0
N186 N 0.54955 0.70189 0.0865 0.0
C187 C 0.58176 0.62771 0.09029 0.0
C188 C 0.52951 0.61057 0.08836 0.0
C189 C 0.48815 0.64038 0.08568 0.0
C190 C 0.49893 0.68512 0.0847 0.0
C191 C 0.59089 0.67363 0.08938 0.0
H192 H 0.46554 0.70602 0.08231 0.0
H193 H 0.63114 0.68623 0.09084 0.0
H194 H 0.55303 0.84409 0.10257 0.0
H195 H 0.56973 0.83263 0.06169 0.0
C196 C 0.43793 0.78832 0.07508 0.0
C197 C 0.59467 0.721 0.05397 0.0
C198 C 0.51999 0.7652 0.11749 0.0
C199 C 0.68394 0.77812 0.09199 0.0
H200 H 0.50116 0.72714 0.03723 0.0
H201 H 0.41678 0.76792 0.04813 0.0
H202 H 0.36191 0.8044 0.09601 0.0
H203 H 0.40653 0.78803 0.119 0.0
H204 H 0.61614 0.7722 0.13302 0.0
H205 H 0.70539 0.78406 0.11918 0.0
H206 H 0.76005 0.75766 0.07212 0.0
H207 H 0.71215 0.72119 0.05207 0.0
H208 H 0.53545 0.92192 0.10082 0.0
H209 H 0.54986 0.91187 0.05931 0.0
H210 H 0.61539 0.60594 0.09224 0.0
H211 H 0.44706 0.62927 0.08431 0.0
C212 C 0.3594 0.45703 0.95847 0.0
C213 C 0.38486 0.41749 0.95549 0.0
C214 C 0.34971 0.38434 0.95895 0.0
C215 C 0.30489 0.40533 0.9639 0.0
N216 N 0.30979 0.44948 0.96361 0.0
Co217 Co 0.25645 0.49166 0.97063 0.0
N218 N 0.19733 0.44766 0.97066 0.0
C219 C 0.20388 0.4037 0.97007 0.0
C220 C 0.15537 0.38171 0.96998 0.0
C221 C 0.11616 0.41399 0.97057 0.0
C222 C 0.14284 0.45407 0.97093 0.0
N223 N 0.20314 0.53419 0.97789 0.0
C224 C 0.1485 0.53389 0.97745 0.0
C225 C 0.12716 0.5719 0.98304 0.0
C226 C 0.16975 0.59603 0.98742 0.0
C227 C 0.2147 0.57209 0.98411 0.0
N228 N 0.31325 0.53731 0.9704 0.0
C229 C 0.31226 0.5762 0.97672 0.0
C230 C 0.35359 0.60365 0.97316 0.0
C231 C 0.38271 0.5804 0.96418 0.0
C232 C 0.35805 0.53938 0.96297 0.0
N233 N 0.23775 0.50773 0.95235 0.0
C234 C 0.24173 0.52298 0.92505 0.0
C235 C 0.24359 0.55817 0.93398 0.0
C236 C 0.24149 0.54988 0.94757 0.0
C237 C 0.23356 0.48078 0.93017 0.0
C238 C 0.23116 0.474 0.94362 0.0
N239 N 0.27943 0.47197 0.98857 0.0
C240 C 0.3544 0.44863 1.00239 0.0
C241 C 0.32061 0.42377 1.01054 0.0
C242 C 0.26487 0.42594 1.00778 0.0
C243 C 0.24519 0.45064 0.99702 0.0
C244 C 0.33352 0.47166 0.99157 0.0
H245 H 0.20228 0.45071 0.99527 0.0
H246 H 0.36236 0.48713 0.98522 0.0
H247 H 0.24586 0.57731 0.95416 0.0
H248 H 0.22767 0.44048 0.94688 0.0
C249 C 0.25518 0.3857 0.96728 0.0
C250 C 0.38473 0.50082 0.95719 0.0
C251 C 0.11578 0.49743 0.97242 0.0
C252 C 0.26652 0.58954 0.98356 0.0
H253 H 0.4247 0.41315 0.95132 0.0
H254 H 0.35571 0.34924 0.9577 0.0
H255 H 0.14907 0.34656 0.96905 0.0
H256 H 0.07299 0.40872 0.9707 0.0
H257 H 0.08533 0.58184 0.98372 0.0
H258 H 0.16822 0.62874 0.99162 0.0
H259 H 0.36041 0.63725 0.97627 0.0
H260 H 0.41939 0.59159 0.95948 0.0
H261 H 0.24935 0.59156 0.93055 0.0
H262 H 0.231 0.45256 0.92375 0.0
H263 H 0.39757 0.44853 1.00396 0.0
H264 H 0.23644 0.40819 1.01383 0.0
C265 C 0.53447 0.79865 0.23554 0.0
C266 C 0.49227 0.80086 0.24441 0.0
C267 C 0.44916 0.77913 0.23893 0.0
C268 C 0.46665 0.76509 0.22692 0.0
N269 N 0.51807 0.77672 0.22459 0.0
Co270 Co 0.55578 0.76936 0.20763 0.0
N271 N 0.48836 0.76028 0.19765 0.0
C272 C 0.44106 0.74819 0.20302 0.0
C273 C 0.40156 0.74206 0.19388 0.0
C274 C 0.42591 0.75029 0.18207 0.0
C275 C 0.4791 0.7612 0.18461 0.0
N276 N 0.59532 0.76435 0.19083 0.0
C277 C 0.57757 0.76722 0.17839 0.0
C278 C 0.61999 0.76134 0.16968 0.0
C279 C 0.66528 0.75367 0.17691 0.0
C280 C 0.64834 0.75545 0.18959 0.0
N281 N 0.62356 0.77739 0.21759 0.0
C282 C 0.67292 0.76475 0.21356 0.0
C283 C 0.71257 0.77454 0.22235 0.0
C284 C 0.68661 0.79496 0.2325 0.0
C285 C 0.63236 0.79681 0.2293 0.0
N286 N 0.5585 0.70365 0.20997 0.0
C287 C 0.53114 0.6124 0.21252 0.0
C288 C 0.53826 0.63234 0.20035 0.0
C289 C 0.55143 0.67722 0.19929 0.0
C290 C 0.54298 0.63869 0.22344 0.0
C291 C 0.55674 0.68395 0.22196 0.0
N292 N 0.54861 0.83345 0.20519 0.0
C293 C 0.58397 0.90676 0.20189 0.0
C294 C 0.53173 0.9247 0.20294 0.0
C295 C 0.48869 0.89621 0.20501 0.0
C296 C 0.49796 0.85128 0.20627 0.0
C297 C 0.5915 0.86073 0.20286 0.0
H298 H 0.46351 0.83125 0.20842 0.0
H299 H 0.63172 0.84729 0.20193 0.0
H300 H 0.55232 0.69076 0.18967 0.0
H301 H 0.56323 0.70342 0.23059 0.0
C302 C 0.43375 0.75043 0.21663 0.0
C303 C 0.59034 0.81584 0.23783 0.0
C304 C 0.5205 0.76938 0.17443 0.0
C305 C 0.68174 0.75417 0.2005 0.0
H306 H 0.49198 0.81727 0.25372 0.0
H307 H 0.40879 0.77657 0.24291 0.0
H308 H 0.35962 0.73398 0.19559 0.0
H309 H 0.40688 0.74825 0.17266 0.0
H310 H 0.61821 0.76131 0.1592 0.0
H311 H 0.70587 0.74816 0.17332 0.0
H312 H 0.75565 0.77001 0.22118 0.0
H313 H 0.70556 0.80762 0.24116 0.0
H314 H 0.53202 0.61364 0.19154 0.0
H315 H 0.53927 0.62502 0.2331 0.0
H316 H 0.61845 0.92803 0.20037 0.0
H317 H 0.44795 0.9088 0.20611 0.0
C318 C 0.13957 0.07784 0.45748 0.0
C319 C 0.11389 0.11711 0.4544 0.0
C320 C 0.14861 0.15061 0.45775 0.0
C321 C 0.1934 0.13009 0.46277 0.0
N322 N 0.18897 0.08591 0.4626 0.0
Co323 Co 0.24199 0.04439 0.47007 0.0
N324 N 0.30037 0.08885 0.47034 0.0
C325 C 0.29336 0.13272 0.46967 0.0
C326 C 0.34172 0.15499 0.46959 0.0
C327 C 0.38121 0.12296 0.47026 0.0
C328 C 0.35484 0.08274 0.47067 0.0
N329 N 0.29477 1.00249 0.47767 0.0
C330 C 0.34938 1.0034 0.47753 0.0
C331 C 0.37055 0.96623 0.48355 0.0
C332 C 0.32769 0.94183 0.48779 0.0
C333 C 0.28285 0.9649 0.48401 0.0
N334 N 0.18571 0.9984 0.46972 0.0
C335 C 0.18695 0.95912 0.47581 0.0
C336 C 0.14845 0.93046 0.47142 0.0
C337 C 0.12095 0.95332 0.46214 0.0
C338 C 0.14325 0.9954 0.46168 0.0
N339 N 0.26314 0.02801 0.4519 0.0
C340 C 0.26066 1.01258 0.42461 0.0
C341 C 0.25827 0.97744 0.43355 0.0
C342 C 0.25977 0.98581 0.44713 0.0
C343 C 0.26902 0.05475 0.42971 0.0
C344 C 0.27071 0.06162 0.44317 0.0
N345 N 0.2172 0.0643 0.48788 0.0
C346 C 0.14246 0.09411 0.5008 0.0
C347 C 0.17689 0.11075 0.51037 0.0
C348 C 0.2325 0.1015 0.50862 0.0
C349 C 0.25175 0.07874 0.49736 0.0
C350 C 0.16299 0.07081 0.48997 0.0
H351 H 0.29474 0.07432 0.4961 0.0
H352 H 0.13458 0.06015 0.48286 0.0
H353 H 0.25498 0.95842 0.45372 0.0
H354 H 0.27418 0.09515 0.44641 0.0
C355 C 0.24231 0.15019 0.46647 0.0
C356 C 0.11423 0.03385 0.45661 0.0
C357 C 0.38196 0.03948 0.47217 0.0
C358 C 0.23162 0.94657 0.48305 0.0
H359 H 0.07403 0.12107 0.45033 0.0
H360 H 0.14215 0.18564 0.45651 0.0
H361 H 0.34779 0.19012 0.46852 0.0
H362 H 0.42433 0.12845 0.47038 0.0
H363 H 0.41238 0.95682 0.48455 0.0
H364 H 0.32915 0.90941 0.49216 0.0
H365 H 0.14261 0.89639 0.4742 0.0
H366 H 0.08605 0.94145 0.45694 0.0
H367 H 0.25241 0.94406 0.43013 0.0
H368 H 0.27201 0.08292 0.42329 0.0
H369 H 0.09934 0.09946 0.50158 0.0
H370 H 0.26133 0.1133 0.51566 0.0
C371 C 0.96633 0.73675 0.73491 0.0
C372 C 0.00816 0.73516 0.74378 0.0
C373 C 0.05148 0.75658 0.73816 0.0
C374 C 0.03439 0.76998 0.7261 0.0
N375 N 0.98303 0.75831 0.72389 0.0
Co376 Co 0.94545 0.76562 0.70703 0.0
N377 N 0.01299 0.7742 0.69688 0.0
C378 C 0.06036 0.78613 0.70212 0.0
C379 C 0.09996 0.79188 0.69287 0.0
C380 C 0.07561 0.78363 0.68113 0.0
C381 C 0.0223 0.77308 0.68381 0.0
N382 N 0.906 0.77062 0.69034 0.0
C383 C 0.92378 0.76755 0.67785 0.0
C384 C 0.88144 0.77366 0.66925 0.0
C385 C 0.83621 0.78173 0.67659 0.0
C386 C 0.85309 0.77992 0.68923 0.0
N387 N 0.8776 0.75825 0.71715 0.0
C388 C 0.82847 0.7715 0.71328 0.0
C389 C 0.7888 0.76267 0.72227 0.0
C390 C 0.81454 0.74226 0.73237 0.0
C391 C 0.86864 0.73933 0.72894 0.0
N392 N 0.94307 0.83134 0.7093 0.0
C393 C 0.9649 0.92356 0.71179 0.0
C394 C 0.96085 0.90311 0.69964 0.0
C395 C 0.95024 0.85775 0.69861 0.0
C396 C 0.95569 0.89669 0.72274 0.0
C397 C 0.94407 0.85107 0.7213 0.0
N398 N 0.95208 0.7014 0.70467 0.0
C399 C 0.91596 0.62806 0.70198 0.0
C400 C 0.9681 0.60988 0.70285 0.0
C401 C 0.01146 0.63827 0.70451 0.0
C402 C 0.00263 0.68334 0.70557 0.0
C403 C 0.90888 0.6742 0.70271 0.0
H404 H 0.03732 0.70328 0.70747 0.0
H405 H 0.86872 0.6878 0.70195 0.0
H406 H 0.95095 0.84395 0.68901 0.0
H407 H 0.93794 0.83153 0.72994 0.0
C408 C 0.06752 0.78423 0.71571 0.0
C409 C 0.91045 0.71947 0.73725 0.0
C410 C 0.98084 0.76513 0.67374 0.0
C411 C 0.8197 0.78185 0.70023 0.0
H412 H 0.00812 0.71951 0.75319 0.0
H413 H 0.09169 0.75945 0.7421 0.0
H414 H 0.14196 0.79978 0.69446 0.0
H415 H 0.0947 0.78546 0.67168 0.0
H416 H 0.88328 0.77367 0.65876 0.0
H417 H 0.79571 0.7876 0.67311 0.0
H418 H 0.74581 0.76786 0.72126 0.0
H419 H 0.79551 0.73021 0.74115 0.0
H420 H 0.96819 0.92175 0.69084 0.0
H421 H 0.95774 0.91073 0.73239 0.0
H422 H 0.88123 0.60687 0.70081 0.0
H423 H 0.05212 0.62551 0.70547 0.0
C424 C 0.86158 0.57608 0.83372 0.0
C425 C 0.88785 0.61513 0.83667 0.0
C426 C 0.85351 0.64894 0.83329 0.0
C427 C 0.80835 0.62882 0.82838 0.0
N428 N 0.81218 0.58459 0.82865 0.0
Co429 Co 0.75849 0.5435 0.82134 0.0
N430 N 0.70072 0.58869 0.82106 0.0
C431 C 0.70829 0.63249 0.82164 0.0
C432 C 0.66023 0.65535 0.82171 0.0
C433 C 0.62033 0.62378 0.82113 0.0
C434 C 0.64618 0.58325 0.82078 0.0
N435 N 0.70504 0.50208 0.81386 0.0
C436 C 0.65047 0.50375 0.81403 0.0
C437 C 0.62864 0.46686 0.80803 0.0
C438 C 0.67107 0.44176 0.80381 0.0
C439 C 0.7163 0.46423 0.80756 0.0
N440 N 0.81414 0.49681 0.8217 0.0
C441 C 0.81229 0.45745 0.81566 0.0
C442 C 0.85088 0.42856 0.81993 0.0
C443 C 0.87913 0.45134 0.82907 0.0
C444 C 0.8571 0.49359 0.82958 0.0
N445 N 0.73741 0.52777 0.83955 0.0
C446 C 0.73802 0.51247 0.86687 0.0
C447 C 0.7398 0.47724 0.85793 0.0
C448 C 0.73939 0.48555 0.84434 0.0
C449 C 0.73165 0.55483 0.86172 0.0
C450 C 0.73076 0.56163 0.84825 0.0
N451 N 0.78322 0.56269 0.80348 0.0
C452 C 0.85825 0.59113 0.79046 0.0
C453 C 0.82387 0.60865 0.781 0.0
C454 C 0.76812 0.60045 0.78283 0.0
C455 C 0.74872 0.57788 0.79409 0.0
C456 C 0.83753 0.56806 0.80129 0.0
H457 H 0.70566 0.57427 0.79541 0.0
H458 H 0.86594 0.55668 0.80832 0.0
H459 H 0.74363 0.45802 0.83777 0.0
H460 H 0.72838 0.59519 0.84498 0.0
C461 C 0.75963 0.64944 0.82472 0.0
C462 C 0.88639 0.53184 0.83463 0.0
C463 C 0.61853 0.54029 0.81937 0.0
C464 C 0.76729 0.44527 0.80849 0.0
H465 H 0.92787 0.61875 0.84067 0.0
H466 H 0.86047 0.68393 0.83444 0.0
H467 H 0.65465 0.69058 0.82271 0.0
H468 H 0.57728 0.62978 0.82103 0.0
H469 H 0.58661 0.45815 0.80702 0.0
H470 H 0.66906 0.40934 0.79945 0.0
H471 H 0.85638 0.39442 0.81715 0.0
H472 H 0.91423 0.43925 0.83417 0.0
H473 H 0.74426 0.44371 0.86137 0.0
H474 H 0.72907 0.58314 0.8681 0.0
H475 H 0.90146 0.59565 0.78959 0.0
H476 H 0.73935 0.61295 0.77587 0.0
C477 C 0.46114 0.29549 0.05645 0.0
C478 C 0.50118 0.29398 0.04703 0.0
C479 C 0.54467 0.27237 0.05245 0.0
C480 C 0.52907 0.26159 0.0649 0.0
N481 N 0.47852 0.27501 0.06754 0.0
Co482 Co 0.44228 0.26899 0.0847 0.0
N483 N 0.51052 0.25949 0.09434 0.0
C484 C 0.55708 0.24644 0.08875 0.0
C485 C 0.59731 0.24003 0.0977 0.0
C486 C 0.57425 0.24908 0.10961 0.0
C487 C 0.52102 0.2607 0.10733 0.0
N488 N 0.40429 0.26519 0.10175 0.0
C489 C 0.42328 0.26823 0.11408 0.0
C490 C 0.38159 0.26352 0.12304 0.0
C491 C 0.33545 0.2565 0.11611 0.0
C492 C 0.35122 0.25746 0.10334 0.0
N493 N 0.37355 0.27771 0.07506 0.0
C494 C 0.32412 0.26737 0.07958 0.0
C495 C 0.28359 0.27964 0.07131 0.0
C496 C 0.3089 0.29915 0.06097 0.0
C497 C 0.36392 0.29731 0.06339 0.0
N498 N 0.4385 0.20313 0.0826 0.0
C499 C 0.46646 0.11172 0.0802 0.0
C500 C 0.45984 0.13211 0.09233 0.0
C501 C 0.44637 0.17704 0.09332 0.0
C502 C 0.45354 0.13762 0.06926 0.0
C503 C 0.43943 0.18292 0.07067 0.0
N504 N 0.45072 0.33312 0.08689 0.0
C505 C 0.41752 0.40683 0.09098 0.0
C506 C 0.46987 0.42401 0.08946 0.0
C507 C 0.51178 0.39499 0.0866 0.0
C508 C 0.50139 0.35025 0.08523 0.0
C509 C 0.40887 0.36098 0.08983 0.0
H510 H 0.53498 0.32969 0.08264 0.0
H511 H 0.36865 0.34811 0.09119 0.0
H512 H 0.44603 0.19093 0.1029 0.0
H513 H 0.43215 0.20201 0.06201 0.0
C514 C 0.5629 0.24723 0.07507 0.0
C515 C 0.40579 0.31364 0.05431 0.0
C516 C 0.48067 0.26968 0.11772 0.0
C517 C 0.31664 0.2572 0.09268 0.0
H518 H 0.49916 0.30722 0.03729 0.0
H519 H 0.58386 0.26715 0.04803 0.0
H520 H 0.63887 0.231 0.09579 0.0
H521 H 0.59409 0.24698 0.11891 0.0
H522 H 0.38435 0.26398 0.13351 0.0
H523 H 0.29506 0.25217 0.11994 0.0
H524 H 0.24054 0.27779 0.07304 0.0
H525 H 0.28871 0.31404 0.0528 0.0
H526 H 0.46671 0.11375 0.10118 0.0
H527 H 0.4567 0.12365 0.05962 0.0
H528 H 0.38386 0.42852 0.0931 0.0
H529 H 0.55251 0.407 0.08512 0.0
C530 C 0.64097 0.9599 0.33388 0.0
C531 C 0.61596 0.9204 0.33701 0.0
C532 C 0.65085 0.88718 0.33335 0.0
C533 C 0.69511 0.90809 0.32814 0.0
N534 N 0.69014 0.95224 0.32845 0.0
Co535 Co 0.74272 0.99425 0.32106 0.0
N536 N 0.80181 0.95008 0.3206 0.0
C537 C 0.79522 0.90615 0.3211 0.0
C538 C 0.84372 0.88397 0.3209 0.0
C539 C 0.88293 0.91609 0.32021 0.0
C540 C 0.85628 0.95629 0.32008 0.0
N541 N 0.79543 0.03661 0.31354 0.0
C542 C 0.85014 0.03612 0.31371 0.0
C543 C 0.87101 0.07395 0.30799 0.0
C544 C 0.82801 0.09825 0.30383 0.0
C545 C 0.78333 0.0745 0.30739 0.0
N546 N 0.68573 0.03992 0.32153 0.0
C547 C 0.68617 0.07872 0.31517 0.0
C548 C 0.64481 0.10618 0.31881 0.0
C549 C 0.61623 0.08303 0.32788 0.0
C550 C 0.64123 0.04207 0.32908 0.0
N551 N 0.7631 1.01025 0.33924 0.0
C552 C 0.7611 0.02507 0.36659 0.0
C553 C 0.7579 0.06036 0.35771 0.0
C554 C 0.75899 0.05229 0.34411 0.0
C555 C 0.76945 0.983 0.36135 0.0
C556 C 0.77098 0.97645 0.34787 0.0
N557 N 0.71813 0.97473 0.30327 0.0
C558 C 0.64284 0.94623 0.29052 0.0
C559 C 0.67716 0.92732 0.28119 0.0
C560 C 0.73296 0.93513 0.28284 0.0
C561 C 0.75254 0.95845 0.2939 0.0
C562 C 0.66368 0.96999 0.30117 0.0
H563 H 0.79563 0.96173 0.29511 0.0
H564 H 0.635 0.98247 0.30812 0.0
H565 H 0.75355 0.07978 0.33758 0.0
H566 H 0.77481 0.94302 0.34454 0.0
C567 C 0.7443 0.88835 0.3243 0.0
C568 C 0.61509 1.00367 0.33505 0.0
C569 C 0.88328 0.9996 0.31862 0.0
C570 C 0.73147 0.09199 0.30817 0.0
H571 H 0.57642 0.91612 0.34134 0.0
H572 H 0.64497 0.85208 0.33458 0.0
H573 H 0.85006 0.84878 0.32176 0.0
H574 H 0.92609 0.91065 0.31987 0.0
H575 H 0.9128 0.08365 0.30707 0.0
H576 H 0.82918 0.1309 0.2996 0.0
H577 H 0.63761 0.13972 0.31567 0.0
H578 H 0.57968 0.09426 0.33266 0.0
H579 H 0.75183 0.09367 0.36121 0.0
H580 H 0.77312 0.95468 0.36769 0.0
H581 H 0.59959 0.94207 0.28974 0.0
H582 H 0.76159 0.92172 0.27591 0.0
C583 C 0.0357 0.23977 0.55674 0.0
C584 C 0.99387 0.2392 0.54787 0.0
C585 C 0.95101 0.26126 0.55353 0.0
C586 C 0.96836 0.27403 0.56562 0.0
N587 N 0.01943 0.26134 0.56782 0.0
Co588 Co 0.05715 0.26786 0.58469 0.0
N589 N 0.98986 0.27755 0.59488 0.0
C590 C 0.94278 0.29041 0.58965 0.0
C591 C 0.90339 0.29708 0.59891 0.0
C592 C 0.92759 0.28847 0.61065 0.0
C593 C 0.9806 0.27677 0.60797 0.0
N594 N 0.09675 0.27216 0.60139 0.0
C595 C 0.07902 0.26951 0.6139 0.0
C596 C 0.12161 0.27476 0.62247 0.0
C597 C 0.16693 0.28194 0.61511 0.0
C598 C 0.14988 0.28044 0.60248 0.0
N599 N 0.12484 0.25932 0.57455 0.0
C600 C 0.17425 0.27165 0.57843 0.0
C601 C 0.21372 0.26237 0.56943 0.0
C602 C 0.18757 0.24263 0.55929 0.0
C603 C 0.13341 0.24052 0.56272 0.0
N604 N 0.06074 0.3336 0.58242 0.0
C605 C 0.03857 0.42592 0.57982 0.0
C606 C 0.04264 0.40558 0.592 0.0
C607 C 0.05355 0.3602 0.59309 0.0
C608 C 0.04815 0.39885 0.56891 0.0
C609 C 0.05992 0.35323 0.57041 0.0
N610 N 0.04903 0.20367 0.58699 0.0
C611 C 0.08251 0.12935 0.58986 0.0
C612 C 0.02991 0.11212 0.58858 0.0
C613 C 0.98779 0.14198 0.58677 0.0
C614 C 0.99812 0.18679 0.58585 0.0
C615 C 0.09116 0.17539 0.58912 0.0
H616 H 0.9641 0.20757 0.58395 0.0
H617 H 0.13167 0.18803 0.59004 0.0
H618 H 0.0529 0.34651 0.6027 0.0
H619 H 0.06617 0.33358 0.56179 0.0
C620 C 0.93559 0.2888 0.57604 0.0
C621 C 0.09124 0.22162 0.55435 0.0
C622 C 0.02194 0.26836 0.61806 0.0
C623 C 0.18324 0.28178 0.59148 0.0
H624 H 0.99366 0.22386 0.5384 0.0
H625 H 0.91091 0.26503 0.54958 0.0
H626 H 0.86164 0.30594 0.59732 0.0
H627 H 0.90864 0.29092 0.62011 0.0
H628 H 0.11992 0.2748 0.63296 0.0
H629 H 0.20759 0.28703 0.61857 0.0
H630 H 0.2568 0.26687 0.57043 0.0
H631 H 0.20634 0.2305 0.55047 0.0
H632 H 0.03502 0.42428 0.60078 0.0
H633 H 0.0462 0.41272 0.55925 0.0
H634 H 0.11674 0.10759 0.59111 0.0
H635 H 0.94645 0.13086 0.58594 0.0
C636 C 0.85821 0.95603 0.45828 0.0
C637 C 0.8824 0.9158 0.45551 0.0
C638 C 0.84588 0.88364 0.45893 0.0
C639 C 0.80152 0.90588 0.46363 0.0
N640 N 0.808 0.9499 0.46326 0.0
Co641 Co 0.75561 0.99353 0.46991 0.0
N642 N 0.69497 0.95087 0.4698 0.0
C643 C 0.69998 0.90676 0.46921 0.0
C644 C 0.65076 0.88588 0.46896 0.0
C645 C 0.61268 0.91904 0.46943 0.0
C646 C 0.64072 0.9585 0.46991 0.0
N647 N 0.70339 0.03751 0.47687 0.0
C648 C 0.64876 0.03823 0.47643 0.0
C649 C 0.62851 0.0768 0.48192 0.0
C650 C 0.67177 0.10026 0.48624 0.0
C651 C 0.71599 0.07535 0.48299 0.0
N652 N 0.81404 0.03795 0.46967 0.0
C653 C 0.81421 0.07678 0.47602 0.0
C654 C 0.85804 0.1024 0.4731 0.0
C655 C 0.88765 0.07802 0.46448 0.0
C656 C 0.86042 0.0383 0.46275 0.0
N657 N 0.73843 1.00939 0.45152 0.0
C658 C 0.7379 0.02441 0.42408 0.0
C659 C 0.74312 0.05946 0.43304 0.0
C660 C 0.74304 0.05133 0.44664 0.0
C661 C 0.73022 0.98231 0.42941 0.0
C662 C 0.73041 0.97565 0.44288 0.0
N663 N 0.77659 0.9739 0.48807 0.0
C664 C 0.85055 0.95294 0.50253 0.0
C665 C 0.81753 0.9252 0.51001 0.0
C666 C 0.76226 0.9251 0.50672 0.0
C667 C 0.74262 0.95012 0.49602 0.0
C668 C 0.82976 0.97626 0.49176 0.0
H669 H 0.70004 0.94856 0.49396 0.0
H670 H 0.85807 0.9946 0.48608 0.0
H671 H 0.74866 0.0788 0.45316 0.0
H672 H 0.72695 0.94221 0.44619 0.0
C673 C 0.75084 0.88751 0.46675 0.0
C674 C 0.88522 0.99911 0.45683 0.0
C675 C 0.61504 1.00238 0.47141 0.0
C676 C 0.76847 0.09147 0.48261 0.0
H677 H 0.92229 0.91035 0.45149 0.0
H678 H 0.85063 0.84838 0.45777 0.0
H679 H 0.64331 0.85089 0.46804 0.0
H680 H 0.56935 0.91476 0.46945 0.0
H681 H 0.58702 0.08764 0.48256 0.0
H682 H 0.67118 0.13305 0.49038 0.0
H683 H 0.86656 0.13545 0.47646 0.0
H684 H 0.92609 0.08772 0.46036 0.0
H685 H 0.74762 0.09298 0.42962 0.0
H686 H 0.72629 0.95375 0.42319 0.0
H687 H 0.89326 0.95508 0.50459 0.0
H688 H 0.73415 0.90544 0.51232 0.0
C689 C 0.03985 0.28731 0.73699 0.0
C690 C 0.00487 0.27272 0.74668 0.0
C691 C 0.96198 0.25223 0.74069 0.0
C692 C 0.97397 0.25273 0.72768 0.0
N693 N 0.02186 0.27161 0.72528 0.0
Co694 Co 0.05871 0.26844 0.70817 0.0
N695 N 0.99108 0.2603 0.69828 0.0
C696 C 0.94521 0.24475 0.70358 0.0
C697 C 0.90551 0.23883 0.69447 0.0
C698 C 0.92839 0.25077 0.68275 0.0
C699 C 0.98108 0.26331 0.68529 0.0
N700 N 0.09751 0.26692 0.69126 0.0
C701 C 0.07926 0.27168 0.67891 0.0
C702 C 0.12136 0.26657 0.67006 0.0
C703 C 0.16678 0.25726 0.67709 0.0
C704 C 0.15028 0.2574 0.68981 0.0
N705 N 0.12665 0.2752 0.718 0.0
C706 C 0.17461 0.2597 0.71392 0.0
C707 C 0.21305 0.26029 0.72343 0.0
C708 C 0.1876 0.27764 0.73414 0.0
C709 C 0.13546 0.28861 0.73041 0.0
N710 N 0.06328 0.20246 0.70949 0.0
C711 C 0.0371 0.11087 0.71141 0.0
C712 C 0.04096 0.13241 0.69938 0.0
C713 C 0.05376 0.17749 0.69863 0.0
C714 C 0.05215 0.13568 0.72239 0.0
C715 C 0.06547 0.18105 0.72121 0.0
N716 N 0.04948 0.33262 0.70684 0.0
C717 C 0.07983 0.40712 0.70298 0.0
C718 C 0.02758 0.42361 0.70556 0.0
C719 C 0.98698 0.39337 0.70844 0.0
C720 C 0.99874 0.34873 0.70918 0.0
C721 C 0.09001 0.36129 0.70369 0.0
H722 H 0.96602 0.32719 0.71172 0.0
H723 H 0.13024 0.34898 0.70178 0.0
H724 H 0.05246 0.19248 0.68918 0.0
H725 H 0.0745 0.19928 0.72993 0.0
C726 C 0.94039 0.24014 0.71723 0.0
C727 C 0.09416 0.30876 0.73908 0.0
C728 C 0.02195 0.27364 0.6751 0.0
C729 C 0.18349 0.25182 0.70068 0.0
H730 H 0.01101 0.27341 0.75704 0.0
H731 H 0.92683 0.23801 0.74533 0.0
H732 H 0.86467 0.22752 0.69613 0.0
H733 H 0.90905 0.24928 0.67338 0.0
H734 H 0.11912 0.26743 0.65958 0.0
H735 H 0.20697 0.25107 0.67334 0.0
H736 H 0.2549 0.25035 0.72262 0.0
H737 H 0.20553 0.28181 0.74361 0.0
H738 H 0.03257 0.11484 0.69048 0.0
H739 H 0.05125 0.12078 0.73193 0.0
H740 H 0.1125 0.42939 0.7006 0.0
H741 H 0.94575 0.40401 0.71006 0.0
C742 C 0.6398 0.57694 0.95804 0.0
C743 C 0.61517 0.61686 0.95518 0.0
C744 C 0.65071 0.64949 0.95873 0.0
C745 C 0.69495 0.62782 0.96361 0.0
N746 N 0.68932 0.58375 0.96319 0.0
Co747 Co 0.7416 0.54075 0.97008 0.0
N748 N 0.80143 0.58415 0.9703 0.0
C749 C 0.79555 0.62819 0.96987 0.0
C750 C 0.84436 0.64973 0.96995 0.0
C751 C 0.88306 0.61708 0.97048 0.0
C752 C 0.85581 0.57723 0.97065 0.0
N753 N 0.79389 0.49735 0.97719 0.0
C754 C 0.84857 0.49713 0.9768 0.0
C755 C 0.869 0.45859 0.98219 0.0
C756 C 0.82579 0.43467 0.98644 0.0
C757 C 0.78142 0.45927 0.98322 0.0
N758 N 0.68401 0.49574 0.96971 0.0
C759 C 0.68398 0.45671 0.97594 0.0
C760 C 0.64197 0.43003 0.97245 0.0
C761 C 0.61346 0.45394 0.96359 0.0
C762 C 0.63924 0.49451 0.96237 0.0
N763 N 0.76097 0.52518 0.95174 0.0
C764 C 0.76144 0.51115 0.92427 0.0
C765 C 0.75554 0.47584 0.93311 0.0
C766 C 0.75582 0.48346 0.94673 0.0
C767 C 0.77023 0.55291 0.92971 0.0
C768 C 0.77001 0.55909 0.94321 0.0
N769 N 0.71809 0.56001 0.98809 0.0
C770 C 0.64284 0.58398 1.00193 0.0
C771 C 0.67675 0.60765 1.01028 0.0
C772 C 0.73259 0.60479 1.00752 0.0
C773 C 0.75233 0.58035 0.99666 0.0
C774 C 0.66385 0.56111 0.99104 0.0
H775 H 0.79533 0.5797 0.99493 0.0
H776 H 0.63508 0.54646 0.9846 0.0
H777 H 0.74959 0.45581 0.95316 0.0
H778 H 0.77394 0.59238 0.94662 0.0
C779 C 0.74473 0.6468 0.9671 0.0
C780 C 0.61367 0.53353 0.95665 0.0
C781 C 0.88221 0.53361 0.97204 0.0
C782 C 0.72929 0.44252 0.98266 0.0
H783 H 0.57557 0.62178 0.95105 0.0
H784 H 0.64535 0.68469 0.9576 0.0
H785 H 0.85121 0.68486 0.96917 0.0
H786 H 0.92629 0.62195 0.97071 0.0
H787 H 0.91064 0.44821 0.98286 0.0
H788 H 0.82657 0.40177 0.9905 0.0
H789 H 0.63427 0.39651 0.97553 0.0
H790 H 0.57649 0.44345 0.95899 0.0
H791 H 0.75024 0.44254 0.92959 0.0
H792 H 0.77486 0.5816 0.92356 0.0
H793 H 0.59955 0.58491 1.0034 0.0
H794 H 0.76107 0.6218 1.01366 0.0
C795 C 0.46482 0.23898 0.23587 0.0
C796 C 0.50619 0.23874 0.24487 0.0
C797 C 0.54895 0.26116 0.23934 0.0
C798 C 0.53201 0.27381 0.2272 0.0
N799 N 0.48127 0.2607 0.22485 0.0
Co800 Co 0.44432 0.26673 0.20787 0.0
N801 N 0.51198 0.27666 0.19788 0.0
C802 C 0.55861 0.2899 0.20322 0.0
C803 C 0.59842 0.29635 0.19407 0.0
C804 C 0.57497 0.28716 0.18227 0.0
C805 C 0.52193 0.27541 0.18483 0.0
N806 N 0.40552 0.27057 0.19107 0.0
C807 C 0.42393 0.26775 0.17862 0.0
C808 C 0.38189 0.27339 0.16991 0.0
C809 C 0.33614 0.28069 0.17713 0.0
C810 C 0.35245 0.27902 0.18982 0.0
N811 N 0.37629 0.25787 0.2178 0.0
C812 C 0.32694 0.27001 0.21379 0.0
C813 C 0.28715 0.26042 0.22268 0.0
C814 C 0.31308 0.2407 0.23287 0.0
C815 C 0.36742 0.23894 0.22959 0.0
N816 N 0.43964 0.3324 0.21006 0.0
C817 C 0.45996 0.42486 0.21264 0.0
C818 C 0.45714 0.40433 0.20047 0.0
C819 C 0.44714 0.35887 0.1994 0.0
C820 C 0.45012 0.39791 0.22355 0.0
C821 C 0.43927 0.35219 0.22205 0.0
N822 N 0.45344 0.20264 0.20566 0.0
C823 C 0.4211 0.12819 0.20268 0.0
C824 C 0.47356 0.11132 0.20452 0.0
C825 C 0.51529 0.14128 0.20639 0.0
C826 C 0.50445 0.18605 0.2071 0.0
C827 C 0.41187 0.17418 0.20328 0.0
H828 H 0.53807 0.20705 0.20908 0.0
H829 H 0.37138 0.18668 0.20203 0.0
H830 H 0.44875 0.34502 0.1898 0.0
H831 H 0.43277 0.3326 0.23067 0.0
C832 C 0.56512 0.28862 0.21686 0.0
C833 C 0.40949 0.22032 0.23807 0.0
C834 C 0.4812 0.26616 0.17466 0.0
C835 C 0.31849 0.28028 0.20072 0.0
H836 H 0.5062 0.22337 0.25432 0.0
H837 H 0.5888 0.26518 0.2434 0.0
H838 H 0.64002 0.30533 0.19576 0.0
H839 H 0.59446 0.28919 0.17287 0.0
H840 H 0.38425 0.27367 0.15943 0.0
H841 H 0.2957 0.28601 0.17354 0.0
H842 H 0.24407 0.26471 0.22156 0.0
H843 H 0.29406 0.2284 0.24162 0.0
H844 H 0.46503 0.42297 0.1917 0.0
H845 H 0.45116 0.41196 0.2332 0.0
H846 H 0.38754 0.10611 0.20107 0.0
H847 H 0.55665 0.13023 0.20741 0.0
C848 C 0.97182 1.01185 0.33043 0.0
C849 C 0.94392 1.00487 0.31872 0.0
C850 C 0.02731 0.02309 0.33052 0.0
C851 C 0.05678 0.02884 0.3189 0.0
H852 H 0.95041 1.00909 0.33958 0.0
H853 H 0.04744 0.02691 0.33975 0.0
S854 S 0.00251 1.01533 0.28567 0.0
N855 N 0.95074 1.00381 0.29523 0.0
N856 N 0.05304 0.0277 0.29538 0.0
C857 C 0.02895 0.02274 0.30716 0.0
C858 C 0.97332 1.00978 0.30708 0.0
C859 C 0.9632 0.53392 0.57066 0.0
C860 C 0.98626 0.56614 0.57886 0.0
C861 C 0.98124 0.4893 0.57064 0.0
C862 C 0.02328 0.47453 0.57881 0.0
H863 H 0.92974 0.54288 0.56449 0.0
H864 H 0.96078 0.46585 0.56447 0.0
S865 S 0.10328 0.54655 0.60059 0.0
N866 N 0.05815 0.5802 0.59426 0.0
N867 N 0.09095 0.49757 0.59431 0.0
C868 C 0.04819 0.50687 0.58658 0.0
C869 C 0.0301 0.55209 0.58657 0.0
C870 C 0.52847 0.53221 0.80838 0.0
C871 C 0.55816 0.53539 0.81995 0.0
C872 C 0.4739 0.51942 0.80843 0.0
C873 C 0.44579 0.51107 0.8201 0.0
H874 H 0.54829 0.53807 0.79915 0.0
H875 H 0.45298 0.51714 0.79926 0.0
S876 S 0.50454 0.5152 0.85306 0.0
N877 N 0.55556 0.52806 0.84338 0.0
N878 N 0.45199 0.50709 0.84355 0.0
C879 C 0.47476 0.51458 0.83175 0.0
C880 C 0.53092 0.52639 0.83166 0.0
C881 C 0.46552 0.0327 0.07093 0.0
C882 C 0.48834 0.06464 0.07926 0.0
C883 C 0.48356 0.98807 0.07079 0.0
C884 C 0.52537 0.97299 0.07898 0.0
H885 H 0.43224 0.04188 0.06472 0.0
H886 H 0.46328 0.96484 0.06451 0.0
S887 S 0.60475 0.04417 0.10112 0.0
N888 N 0.55984 0.07809 0.09482 0.0
N889 N 0.59255 0.99542 0.09467 0.0
C890 C 0.55004 1.00504 0.08689 0.0
C891 C 0.53197 0.05027 0.087 0.0
C892 C 0.02739 0.50996 0.9606 0.0
C893 C 0.05521 0.50279 0.97231 0.0
C894 C 0.97202 0.5217 0.96052 0.0
C895 C 0.94275 0.52791 0.97215 0.0
H896 H 0.04874 0.50696 0.95145 0.0
H897 H 0.95182 0.52552 0.9513 0.0
S898 S 0.99697 0.51409 1.00538 0.0
N899 N 0.04852 0.50187 0.9958 0.0
N900 N 0.94657 0.52701 0.99567 0.0
C901 C 0.97056 0.52169 0.98389 0.0
C902 C 0.02595 0.50805 0.98396 0.0
C903 C 0.51583 0.4888 0.22186 0.0
C904 C 0.47425 0.47357 0.21365 0.0
C905 C 0.53315 0.53353 0.22178 0.0
C906 C 0.50978 0.56534 0.21348 0.0
H907 H 0.53651 0.46563 0.22809 0.0
H908 H 0.56633 0.54289 0.22798 0.0
S909 S 0.39368 0.54442 0.19161 0.0
N910 N 0.4066 0.49568 0.19801 0.0
N911 N 0.43811 0.57856 0.19795 0.0
C912 C 0.46635 0.55083 0.20574 0.0
C913 C 0.44898 0.50551 0.20579 0.0
C914 C 0.4719 0.02913 0.48315 0.0
C915 C 0.44233 0.03384 0.47159 0.0
C916 C 0.52641 1.01593 0.483 0.0
C917 C 0.55468 1.00881 0.47127 0.0
H918 H 0.45206 0.03419 0.49242 0.0
H919 H 0.54721 1.01256 0.49216 0.0
S920 S 0.49652 1.01764 0.43833 0.0
N921 N 0.44536 0.02952 0.4481 0.0
N922 N 0.54885 1.00794 0.4478 0.0
C923 C 0.52589 1.01399 0.45965 0.0
C924 C 0.46976 0.02614 0.45982 0.0
C925 C 0.04055 0.03157 0.72029 0.0
C926 C 0.01602 0.0637 0.71229 0.0
C927 C 0.02287 0.98697 0.72049 0.0
C928 C 0.97976 0.97214 0.7127 0.0
H929 H 0.07481 0.04061 0.72619 0.0
H930 H 0.04439 0.96357 0.72649 0.0
S931 S 0.89605 0.04372 0.69157 0.0
N932 N 0.94175 0.07755 0.69752 0.0
N933 N 0.90975 0.9948 0.69775 0.0
C934 C 0.9535 1.00431 0.70512 0.0
C935 C 0.97119 0.04955 0.70496 0.0
C936 C 0.52689 1.0137 0.32438 0.0
C937 C 0.55544 1.00705 0.33596 0.0
C938 C 0.47338 0.02769 0.32456 0.0
C939 C 0.44502 0.03292 0.3363 0.0
H940 H 0.54698 1.01005 0.31508 0.0
H941 H 0.4531 0.03216 0.31538 0.0
S942 S 0.50049 1.01785 0.36927 0.0
N943 N 0.5522 1.00767 0.3595 0.0
N944 N 0.44865 0.02932 0.35981 0.0
C945 C 0.47246 0.02544 0.34797 0.0
C946 C 0.52823 1.01316 0.3478 0.0
C947 C 0.96203 1.00245 0.58047 0.0
C948 C 0.9834 0.97315 0.58963 0.0
C949 C 0.97875 0.04666 0.57999 0.0
C950 C 0.01706 0.06377 0.58878 0.0
H951 H 0.93331 0.9908 0.57337 0.0
H952 H 0.96159 0.0676 0.57257 0.0
S953 S 0.08391 1.00024 0.61493 0.0
N954 N 0.04475 0.96381 0.60771 0.0
N955 N 0.07468 0.04725 0.60716 0.0
C956 C 0.03852 0.03463 0.59804 0.0
C957 C 0.02194 0.98938 0.5984 0.0
C958 C 0.02937 0.51527 0.84704 0.0
C959 C 0.05601 0.49967 0.83584 0.0
C960 C 0.9746 0.5277 0.84662 0.0
C961 C 0.94613 0.52682 0.83487 0.0
H962 H 0.05132 0.51879 0.85603 0.0
H963 H 0.95442 0.53787 0.85548 0.0
S964 S 0.99894 0.48985 0.80285 0.0
N965 N 0.04951 0.48255 0.81294 0.0
N966 N 0.94966 0.51077 0.81173 0.0
C967 C 0.97333 0.51256 0.82359 0.0
C968 C 0.02726 0.49731 0.82421 0.0
C969 C 0.4808 0.54421 0.07957 0.0
C970 C 0.51633 0.56233 0.08884 0.0
C971 C 0.46379 0.5001 0.08022 0.0
C972 C 0.48202 0.47198 0.09007 0.0
H973 H 0.46617 0.56427 0.07164 0.0
H974 H 0.43743 0.48756 0.07273 0.0
S975 S 0.57446 0.50201 0.1168 0.0
N976 N 0.56791 0.54806 0.10839 0.0
N977 N 0.53748 0.46476 0.10928 0.0
C978 C 0.51774 0.48922 0.09933 0.0
C979 C 0.53462 0.53436 0.09878 0.0
C980 C 0.47249 0.51176 0.96789 0.0
C981 C 0.44425 0.50434 0.95632 0.0
C982 C 0.52573 0.52614 0.96769 0.0
C983 C 0.55411 0.53084 0.95594 0.0
H984 H 0.45229 0.50849 0.97719 0.0
H985 H 0.54584 0.53137 0.97686 0.0
S986 S 0.49962 0.51299 0.923 0.0
N987 N 0.44785 0.50325 0.93278 0.0
N988 N 0.55109 0.52548 0.93245 0.0
C989 C 0.52707 0.52235 0.94428 0.0
C990 C 0.47152 0.50976 0.94447 0.0
C991 C 0.48554 0.99125 0.19362 0.0
C992 C 0.52071 0.97288 0.20288 0.0
C993 C 0.46906 0.03566 0.19436 0.0
C994 C 0.48656 0.06315 0.20449 0.0
H995 H 0.47048 0.97098 0.18579 0.0
H996 H 0.44317 0.0487 0.18685 0.0
S997 S 0.57351 0.02909 0.23203 0.0
N998 N 0.56936 0.9845 0.2229 0.0
N999 N 0.53756 0.06727 0.22459 0.0
C1000 C 0.52046 0.04456 0.21402 0.0
C1001 C 0.53777 0.99968 0.21313 0.0
C1002 C 0.97072 1.01673 0.44462 0.0
C1003 C 0.94492 1.001 0.45591 0.0
C1004 C 0.02534 0.02963 0.44486 0.0
C1005 C 0.05439 0.02931 0.45655 0.0
H1006 H 0.94829 0.01983 0.43568 0.0
H1007 H 0.04499 0.03959 0.43593 0.0
S1008 S 0.0037 0.99269 0.48876 0.0
N1009 N 0.95295 0.98446 0.4788 0.0
N1010 N 0.05205 1.01401 0.47972 0.0
C1011 C 0.02786 1.01522 0.46792 0.0
C1012 C 0.97429 0.99925 0.46745 0.0
C1013 C 0.02917 0.49797 0.69453 0.0
C1014 C 0.01365 0.47164 0.70515 0.0
C1015 C 0.01235 0.54223 0.69355 0.0
C1016 C 0.97877 0.56164 0.70305 0.0
H1017 H 0.05387 0.48413 0.68683 0.0
H1018 H 0.02605 0.5616 0.68534 0.0
S1019 S 0.93123 0.50885 0.73339 0.0
N1020 N 0.96605 0.46985 0.7259 0.0
N1021 N 0.93363 0.55231 0.72377 0.0
C1022 C 0.96355 0.53602 0.71376 0.0
C1023 C 0.9812 0.49129 0.71489 0.0
C1024 C 0.27944 0.98416 0.3882 0.0
C1025 C 0.23673 1.00725 0.38213 0.0
C1026 C 0.28604 0.98412 0.40191 0.0
C1027 C 0.25032 1.00726 0.41021 0.0
H1028 H 0.30936 0.96743 0.38228 0.0
H1029 H 0.32056 0.96729 0.406 0.0
S1030 S 0.12784 0.06774 0.39968 0.0
N1031 N 0.15492 0.0498 0.38599 0.0
N1032 N 0.16808 0.05047 0.41134 0.0
C1033 C 0.20629 0.02864 0.40433 0.0
C1034 C 0.19931 0.02845 0.39047 0.0
C1035 C 0.9931 0.80816 0.63875 0.0
C1036 C 0.99431 0.76937 0.63119 0.0
C1037 C 0.99315 0.80672 0.6525 0.0
C1038 C 0.99376 0.76638 0.65933 0.0
H1039 H 0.98923 0.83984 0.634 0.0
H1040 H 0.98946 0.83736 0.65784 0.0
S1041 S 0.99734 0.65544 0.64424 0.0
N1042 N 0.99728 0.68947 0.63172 0.0
N1043 N 0.99658 0.6868 0.65735 0.0
C1044 C 0.99668 0.72752 0.65189 0.0
C1045 C 0.99715 0.72899 0.63792 0.0
C1046 C 0.22237 0.55199 0.88876 0.0
C1047 C 0.26432 0.52831 0.88247 0.0
C1048 C 0.2163 0.55203 0.9025 0.0
C1049 C 0.25183 0.52834 0.91061 0.0
H1050 H 0.19259 0.56917 0.883 0.0
H1051 H 0.18227 0.56929 0.90677 0.0
S1052 S 0.37282 0.46647 0.89941 0.0
N1053 N 0.34544 0.48472 0.88586 0.0
N1054 N 0.3334 0.48419 0.91129 0.0
C1055 C 0.29526 0.50646 0.90448 0.0
C1056 C 0.30166 0.5066 0.89059 0.0
C1057 C 0.50883 0.72725 0.13933 0.0
C1058 C 0.50639 0.76624 0.13188 0.0
C1059 C 0.50907 0.72826 0.15308 0.0
C1060 C 0.50756 0.76835 0.16004 0.0
H1061 H 0.51339 0.69578 0.13447 0.0
H1062 H 0.51364 0.69752 0.15831 0.0
S1063 S 0.50084 0.87968 0.14529 0.0
N1064 N 0.50147 0.84605 0.13267 0.0
N1065 N 0.50268 0.84793 0.15831 0.0
C1066 C 0.50349 0.80739 0.15273 0.0
C1067 C 0.50273 0.80635 0.13874 0.0
C1068 C 0.78612 0.53184 0.88774 0.0
C1069 C 0.74619 0.50692 0.88138 0.0
C1070 C 0.79205 0.53127 0.90136 0.0
C1071 C 0.75793 0.50616 0.90955 0.0
H1072 H 0.81291 0.55263 0.8821 0.0
H1073 H 0.82348 0.55146 0.90554 0.0
S1074 S 0.64612 0.43503 0.89788 0.0
N1075 N 0.67223 0.45564 0.8844 0.0
N1076 N 0.68216 0.4553 0.90992 0.0
C1077 C 0.71844 0.4802 0.90328 0.0
C1078 C 0.71283 0.48045 0.8893 0.0
C1079 C 0.49289 0.22801 0.15283 0.0
C1080 C 0.49445 0.26711 0.16025 0.0
C1081 C 0.49321 0.22883 0.13907 0.0
C1082 C 0.49449 0.26884 0.13206 0.0
H1083 H 0.48863 0.19659 0.15771 0.0
H1084 H 0.48908 0.198 0.13386 0.0
S1085 S 0.49912 0.3804 0.14673 0.0
N1086 N 0.49844 0.34694 0.15938 0.0
N1087 N 0.49818 0.34846 0.13374 0.0
C1088 C 0.49772 0.30799 0.13936 0.0
C1089 C 0.4979 0.30715 0.15335 0.0
C1090 C 0.71384 1.00393 0.38756 0.0
C1091 C 0.75259 0.03017 0.38113 0.0
C1092 C 0.70796 1.00406 0.4012 0.0
C1093 C 0.74101 0.02996 0.40935 0.0
H1094 H 0.68799 0.98247 0.38195 0.0
H1095 H 0.67742 0.98288 0.40542 0.0
S1096 S 0.84905 0.10505 0.39746 0.0
N1097 N 0.82391 0.08382 0.38403 0.0
N1098 N 0.81419 0.08331 0.40957 0.0
C1099 C 0.77915 0.05733 0.403 0.0
C1100 C 0.78465 0.05755 0.38901 0.0
C1101 C 0.00271 0.23391 0.65379 0.0
C1102 C 0.009 0.27383 0.66069 0.0
C1103 C 0.00309 0.2326 0.64002 0.0
C1104 C 0.00934 0.27115 0.6325 0.0
H1105 H 0.00061 0.20313 0.65909 0.0
H1106 H 0.00115 0.20087 0.63523 0.0
S1107 S 0.02639 0.38405 0.64569 0.0
N1108 N 0.02096 0.35284 0.65877 0.0
N1109 N 0.0207 0.35049 0.63314 0.0
C1110 C 0.01354 0.31134 0.63929 0.0
C1111 C 0.01368 0.31262 0.65327 0.0
C1112 C 0.37907 0.17334 0.2727 0.0
C1113 C 0.34633 0.13588 0.27037 0.0
C1114 C 0.40064 0.19969 0.26245 0.0
C1115 C 0.39233 0.18935 0.24922 0.0
H1116 H 0.38697 0.18317 0.28261 0.0
H1117 H 0.4225 0.22926 0.26499 0.0
S1118 S 0.31283 0.09335 0.23761 0.0
N1119 N 0.3083 0.08967 0.25357 0.0
N1120 N 0.35005 0.1373 0.23458 0.0
C1121 C 0.36077 0.15135 0.2468 0.0
C1122 C 0.33774 0.12523 0.25722 0.0
C1123 C 0.87499 0.91402 0.53058 0.0
C1124 C 0.84116 0.89631 0.52083 0.0
C1125 C 0.89689 0.88761 0.54074 0.0
C1126 C 0.88738 0.84174 0.54157 0.0
H1127 H 0.88359 0.94901 0.53057 0.0
H1128 H 0.92048 0.90353 0.5482 0.0
S1129 S 0.80713 0.77747 0.51784 0.0
N1130 N 0.80265 0.82863 0.51245 0.0
N1131 N 0.84486 0.77954 0.53098 0.0
C1132 C 0.85579 0.82334 0.53156 0.0
C1133 C 0.8325 0.8503 0.52142 0.0
C1134 C 0.16357 0.36288 0.74931 0.0
C1135 C 0.11122 0.34342 0.74968 0.0
C1136 C 0.18469 0.38959 0.75942 0.0
C1137 C 0.15437 0.40128 0.77054 0.0
H1138 H 0.18947 0.35833 0.74097 0.0
H1139 H 0.22536 0.40199 0.75828 0.0
S1140 S 0.00861 0.37437 0.77481 0.0
N1141 N 0.02494 0.35048 0.76097 0.0
N1142 N 0.0647 0.39685 0.78016 0.0
C1143 C 0.10008 0.3862 0.77054 0.0
C1144 C 0.07845 0.35903 0.76011 0.0
C1145 C 0.66762 0.68134 1.02244 0.0
C1146 C 0.65368 0.63631 1.02129 0.0
C1147 C 0.64609 0.70884 0.03241 0.0
C1148 C 0.61048 0.69279 0.04211 0.0
H1149 H 0.69528 0.69572 1.01546 0.0
H1150 H 0.65869 0.74299 0.03271 0.0
S1151 S 0.55996 0.5778 0.04374 0.0
N1152 N 0.59968 0.57768 0.0308 0.0
N1153 N 0.56164 0.62849 0.0496 0.0
C1154 C 0.59542 0.64813 0.04096 0.0
C1155 C 0.61643 0.62026 0.03065 0.0
C1156 C 0.39977 0.38606 0.04129 0.0
C1157 C 0.38929 0.34034 0.04226 0.0
C1158 C 0.37827 0.41248 0.03108 0.0
C1159 C 0.34389 0.39496 1.02142 0.0
H1160 H 0.42384 0.40186 0.04869 0.0
H1161 H 0.38764 0.44733 0.03095 0.0
S1162 S 0.30745 0.27655 1.01872 0.0
N1163 N 0.34549 0.27842 0.03181 0.0
N1164 N 0.30381 0.32765 1.01324 0.0
C1165 C 0.33428 0.34911 1.02213 0.0
C1166 C 0.35723 0.3221 0.0323 0.0
C1167 C 0.65945 0.91076 0.25703 0.0
C1168 C 0.65421 0.89881 0.27023 0.0
C1169 C 0.63678 0.88495 0.24686 0.0
C1170 C 0.60777 0.84545 0.24923 0.0
H1171 H 0.68104 0.94057 0.2545 0.0
H1172 H 0.64275 0.89579 0.23694 0.0
S1173 S 0.58704 0.79679 0.28198 0.0
N1174 N 0.61918 0.84334 0.28496 0.0
N1175 N 0.57982 0.7943 0.26608 0.0
C1176 C 0.60335 0.83271 0.26239 0.0
C1177 C 0.62554 0.8594 0.27275 0.0
C1178 C 0.1207 0.17531 0.51956 0.0
C1179 C 0.15427 0.13812 0.52172 0.0
C1180 C 0.09919 0.20134 0.52991 0.0
C1181 C 0.10841 0.19093 0.5431 0.0
H1182 H 0.11205 0.1852 0.50969 0.0
H1183 H 0.07663 0.23073 0.52747 0.0
S1184 S 0.19044 0.09557 0.55432 0.0
N1185 N 0.19412 0.0921 0.53834 0.0
N1186 N 0.15254 0.13913 0.55753 0.0
C1187 C 0.14085 0.1532 0.54536 0.0
C1188 C 0.1638 0.12741 0.53483 0.0
C1189 C 0.90251 0.69864 0.76163 0.0
C1190 C 0.89282 0.68876 0.74842 0.0
C1191 C 0.88087 0.67259 0.77193 0.0
C1192 C 0.84668 0.63595 0.7697 0.0
H1193 H 0.92557 0.72764 0.76412 0.0
H1194 H 0.88989 0.68206 0.78181 0.0
S1195 S 0.80877 0.59506 0.73704 0.0
N1196 N 0.84737 0.63813 0.7339 0.0
N1197 N 0.80555 0.59107 0.75301 0.0
C1198 C 0.83661 0.62579 0.75657 0.0
C1199 C 0.85969 0.65159 0.74609 0.0
loop_
_geom_bond_atom_site_label_1
_geom_bond_atom_site_label_2
_geom_bond_distance
_geom_bond_site_symmetry_2
_ccdc_geom_bond_type
C0 C1 1.443 . S
C0 N4 1.376 . S
C0 C38 1.389 . S
C1 C0 1.443 . S
C1 C2 1.340 . S
C1 H41 0.951 . S
C2 C1 1.340 . S
C2 C3 1.439 . S
C2 H42 0.950 . S
C3 C2 1.439 . S
C3 N4 1.374 . S
C3 C37 1.395 . S
N4 C0 1.376 . S
N4 C3 1.374 . S
N4 Co5 2.008 . S
Co5 N4 2.008 . S
Co5 N6 1.995 . S
Co5 N11 2.008 . S
Co5 N16 1.995 . S
Co5 N21 2.282 . S
Co5 N27 2.282 . S
N6 Co5 1.995 . S
N6 C7 1.376 . S
N6 C10 1.383 . S
C7 N6 1.376 . S
C7 C8 1.446 . S
C7 C37 1.391 . S
C8 C7 1.446 . S
C8 C9 1.339 . S
C8 H43 0.949 . S
C9 C8 1.339 . S
C9 C10 1.439 . S
C9 H44 0.950 . S
C10 N6 1.383 . S
C10 C9 1.439 . S
C10 C39 1.392 . S
N11 Co5 2.008 . S
N11 C12 1.376 . S
N11 C15 1.374 1_545 S
C12 N11 1.376 . S
C12 C13 1.443 1_545 S
C12 C39 1.389 . S
C13 C12 1.443 1_565 S
C13 C14 1.340 . S
C13 H45 0.951 . S
C14 C13 1.340 . S
C14 C15 1.439 . S
C14 H46 0.950 . S
C15 N11 1.374 1_565 S
C15 C14 1.439 . S
C15 C40 1.395 . S
N16 Co5 1.995 . S
N16 C17 1.376 1_545 S
N16 C20 1.383 . S
C17 N16 1.376 1_565 S
C17 C18 1.446 . S
C17 C40 1.391 . S
C18 C17 1.446 . S
C18 C19 1.339 . S
C18 H47 0.949 . S
C19 C18 1.339 . S
C19 C20 1.439 1_565 S
C19 H48 0.950 . S
C20 N16 1.383 . S
C20 C19 1.439 1_545 S
C20 C38 1.392 . S
N21 Co5 2.282 . S
N21 C24 1.332 . S
N21 C26 1.332 . S
C22 C23 1.386 1_545 S
C22 C25 1.388 . S
C23 C22 1.386 1_565 S
C23 C24 1.382 1_565 S
C23 H49 0.950 . S
C24 N21 1.332 . S
C24 C23 1.382 1_545 S
C24 H35 0.952 1_545 S
C25 C22 1.388 . S
C25 C26 1.382 . S
C25 H50 0.950 . S
C26 N21 1.332 . S
C26 C25 1.382 . S
C26 H36 0.948 . S
N27 Co5 2.282 . S
N27 C31 1.332 . S
N27 C32 1.332 . S
C28 C29 1.388 . S
C28 C32 1.382 . S
C28 H51 0.950 . S
C29 C28 1.388 . S
C29 C30 1.386 . S
C30 C29 1.386 . S
C30 C31 1.382 . S
C30 H52 0.950 . S
C31 N27 1.332 . S
C31 C30 1.382 . S
C31 H33 0.952 . S
C32 N27 1.332 . S
C32 C28 1.382 . S
C32 H34 0.948 . S
H33 C31 0.952 . S
H34 C32 0.948 . S
H35 C24 0.952 1_565 S
H36 C26 0.948 . S
C37 C3 1.395 . S
C37 C7 1.391 . S
C38 C0 1.389 . S
C38 C20 1.392 . S
C39 C10 1.392 . S
C39 C12 1.389 . S
C40 C15 1.395 . S
C40 C17 1.391 . S
H41 C1 0.951 . S
H42 C2 0.950 . S
H43 C8 0.949 . S
H44 C9 0.950 . S
H45 C13 0.951 . S
H46 C14 0.950 . S
H47 C18 0.949 . S
H48 C19 0.950 . S
H49 C23 0.950 . S
H50 C25 0.950 . S
H51 C28 0.950 . S
H52 C30 0.950 . S
C53 C54 1.443 1_655 S
C53 N57 1.376 1_655 S
C53 C91 1.389 . S
C54 C53 1.443 1_455 S
C54 C55 1.340 . S
C54 H94 0.951 . S
C55 C54 1.340 . S
C55 C56 1.439 . S
C55 H95 0.950 . S
C56 C55 1.439 . S
C56 N57 1.374 . S
C56 C90 1.395 . S
N57 C53 1.376 1_455 S
N57 C56 1.374 . S
N57 Co58 2.008 1_455 S
Co58 N57 2.008 1_655 S
Co58 N59 1.995 1_655 S
Co58 N64 2.008 . S
Co58 N69 1.995 . S
Co58 N74 2.282 . S
Co58 N80 2.282 . S
N59 Co58 1.995 1_455 S
N59 C60 1.376 . S
N59 C63 1.383 . S
C60 N59 1.376 . S
C60 C61 1.446 . S
C60 C90 1.391 . S
C61 C60 1.446 . S
C61 C62 1.339 . S
C61 H96 0.949 . S
C62 C61 1.339 . S
C62 C63 1.439 . S
C62 H97 0.950 . S
C63 N59 1.383 . S
C63 C62 1.439 . S
C63 C92 1.392 1_455 S
N64 Co58 2.008 . S
N64 C65 1.376 . S
N64 C68 1.374 . S
C65 N64 1.376 . S
C65 C66 1.443 . S
C65 C92 1.389 . S
C66 C65 1.443 . S
C66 C67 1.340 . S
C66 H98 0.951 . S
C67 C66 1.340 . S
C67 C68 1.439 . S
C67 H99 0.950 . S
C68 N64 1.374 . S
C68 C67 1.439 . S
C68 C93 1.395 . S
N69 Co58 1.995 . S
N69 C70 1.376 . S
N69 C73 1.383 . S
C70 N69 1.376 . S
C70 C71 1.446 . S
C70 C93 1.391 . S
C71 C70 1.446 . S
C71 C72 1.339 . S
C71 H100 0.949 . S
C72 C71 1.339 . S
C72 C73 1.439 . S
C72 H101 0.950 . S
C73 N69 1.383 . S
C73 C72 1.439 . S
C73 C91 1.392 . S
N74 Co58 2.282 . S
N74 C77 1.332 . S
N74 C79 1.332 1_655 S
C75 C76 1.386 . S
C75 C78 1.388 1_655 S
C76 C75 1.386 . S
C76 C77 1.382 . S
C76 H102 0.950 . S
C77 N74 1.332 . S
C77 C76 1.382 . S
C77 H88 0.952 . S
C78 C75 1.388 1_455 S
C78 C79 1.382 . S
C78 H103 0.950 . S
C79 N74 1.332 1_455 S
C79 C78 1.382 . S
C79 H89 0.948 . S
N80 Co58 2.282 . S
N80 C84 1.335 . S
N80 C85 1.332 . S
C81 C82 1.388 . S
C81 C85 1.382 . S
C81 H104 0.950 . S
C82 C81 1.388 . S
C82 C83 1.386 1_655 S
C83 C82 1.386 1_455 S
C83 C84 1.381 1_455 S
C83 H105 0.950 . S
C84 N80 1.335 . S
C84 C83 1.381 1_655 S
C84 H86 0.949 1_655 S
C85 N80 1.332 . S
C85 C81 1.382 . S
C85 H87 0.948 . S
H86 C84 0.949 1_455 S
H87 C85 0.948 . S
H88 C77 0.952 . S
H89 C79 0.948 . S
C90 C56 1.395 . S
C90 C60 1.391 . S
C91 C53 1.389 . S
C91 C73 1.392 . S
C92 C63 1.392 1_655 S
C92 C65 1.389 . S
C93 C68 1.395 . S
C93 C70 1.391 . S
H94 C54 0.951 . S
H95 C55 0.950 . S
H96 C61 0.949 . S
H97 C62 0.950 . S
H98 C66 0.951 . S
H99 C67 0.950 . S
H100 C71 0.949 . S
H101 C72 0.950 . S
H102 C76 0.950 . S
H103 C78 0.950 . S
H104 C81 0.950 . S
H105 C83 0.950 . S
C106 C107 1.443 . S
C106 N110 1.376 . S
C106 C144 1.389 . S
C107 C106 1.443 . S
C107 C108 1.340 . S
C107 H147 0.951 . S
C108 C107 1.340 . S
C108 C109 1.439 . S
C108 H148 0.950 . S
C109 C108 1.439 . S
C109 N110 1.374 . S
C109 C143 1.395 . S
N110 C106 1.376 . S
N110 C109 1.374 . S
N110 Co111 2.008 . S
Co111 N110 2.008 . S
Co111 N112 1.995 . S
Co111 N117 2.008 . S
Co111 N122 1.995 . S
Co111 N127 2.282 . S
Co111 N133 2.282 . S
N112 Co111 1.995 . S
N112 C113 1.376 . S
N112 C116 1.383 . S
C113 N112 1.376 . S
C113 C114 1.446 . S
C113 C143 1.391 . S
C114 C113 1.446 . S
C114 C115 1.339 . S
C114 H149 0.949 . S
C115 C114 1.339 . S
C115 C116 1.439 . S
C115 H150 0.950 . S
C116 N112 1.383 . S
C116 C115 1.439 . S
C116 C145 1.392 . S
N117 Co111 2.008 . S
N117 C118 1.376 . S
N117 C121 1.374 . S
C118 N117 1.376 . S
C118 C119 1.443 . S
C118 C145 1.389 . S
C119 C118 1.443 . S
C119 C120 1.340 . S
C119 H151 0.951 . S
C120 C119 1.340 . S
C120 C121 1.439 . S
C120 H152 0.950 . S
C121 N117 1.374 . S
C121 C120 1.439 . S
C121 C146 1.395 . S
N122 Co111 1.995 . S
N122 C123 1.376 . S
N122 C126 1.383 . S
C123 N122 1.376 . S
C123 C124 1.446 . S
C123 C146 1.391 . S
C124 C123 1.446 . S
C124 C125 1.339 . S
C124 H153 0.949 . S
C125 C124 1.339 . S
C125 C126 1.439 . S
C125 H154 0.950 . S
C126 N122 1.383 . S
C126 C125 1.439 . S
C126 C144 1.392 . S
N127 Co111 2.282 . S
N127 C130 1.332 . S
N127 C132 1.332 . S
C128 C129 1.386 . S
C128 C131 1.388 . S
C129 C128 1.386 . S
C129 C130 1.382 . S
C129 H155 0.950 . S
C130 N127 1.332 . S
C130 C129 1.382 . S
C130 H141 0.952 . S
C131 C128 1.388 . S
C131 C132 1.382 . S
C131 H156 0.950 . S
C132 N127 1.332 . S
C132 C131 1.382 . S
C132 H142 0.948 . S
N133 Co111 2.282 . S
N133 C137 1.332 . S
N133 C138 1.332 . S
C134 C135 1.388 . S
C134 C138 1.382 . S
C134 H157 0.950 . S
C135 C134 1.388 . S
C135 C136 1.386 . S
C136 C135 1.386 . S
C136 C137 1.382 . S
C136 H158 0.950 . S
C137 N133 1.332 . S
C137 C136 1.382 . S
C137 H139 0.952 . S
C138 N133 1.332 . S
C138 C134 1.382 . S
C138 H140 0.948 . S
H139 C137 0.952 . S
H140 C138 0.948 . S
H141 C130 0.952 . S
H142 C132 0.948 . S
C143 C109 1.395 . S
C143 C113 1.391 . S
C144 C106 1.389 . S
C144 C126 1.392 . S
C145 C116 1.392 . S
C145 C118 1.389 . S
C146 C121 1.395 . S
C146 C123 1.391 . S
H147 C107 0.951 . S
H148 C108 0.950 . S
H149 C114 0.949 . S
H150 C115 0.950 . S
H151 C119 0.951 . S
H152 C120 0.950 . S
H153 C124 0.949 . S
H154 C125 0.950 . S
H155 C129 0.950 . S
H156 C131 0.950 . S
H157 C134 0.950 . S
H158 C136 0.950 . S
C159 C160 1.443 . S
C159 N163 1.376 . S
C159 C197 1.389 . S
C160 C159 1.443 . S
C160 C161 1.340 . S
C160 H200 0.951 . S
C161 C160 1.340 . S
C161 C162 1.439 . S
C161 H201 0.950 . S
C162 C161 1.439 . S
C162 N163 1.374 . S
C162 C196 1.395 . S
N163 C159 1.376 . S
N163 C162 1.374 . S
N163 Co164 2.008 . S
Co164 N163 2.008 . S
Co164 N165 1.995 . S
Co164 N170 2.008 . S
Co164 N175 1.995 . S
Co164 N180 2.282 . S
Co164 N186 2.282 . S
N165 Co164 1.995 . S
N165 C166 1.376 . S
N165 C169 1.383 . S
C166 N165 1.376 . S
C166 C167 1.446 . S
C166 C196 1.391 . S
C167 C166 1.446 . S
C167 C168 1.339 . S
C167 H202 0.949 . S
C168 C167 1.339 . S
C168 C169 1.439 . S
C168 H203 0.950 . S
C169 N165 1.383 . S
C169 C168 1.439 . S
C169 C198 1.392 . S
N170 Co164 2.008 . S
N170 C171 1.376 . S
N170 C174 1.374 . S
C171 N170 1.376 . S
C171 C172 1.443 . S
C171 C198 1.389 . S
C172 C171 1.443 . S
C172 C173 1.340 . S
C172 H204 0.951 . S
C173 C172 1.340 . S
C173 C174 1.439 . S
C173 H205 0.950 . S
C174 N170 1.374 . S
C174 C173 1.439 . S
C174 C199 1.395 . S
N175 Co164 1.995 . S
N175 C176 1.376 . S
N175 C179 1.383 . S
C176 N175 1.376 . S
C176 C177 1.446 . S
C176 C199 1.391 . S
C177 C176 1.446 . S
C177 C178 1.339 . S
C177 H206 0.949 . S
C178 C177 1.339 . S
C178 C179 1.439 . S
C178 H207 0.950 . S
C179 N175 1.383 . S
C179 C178 1.439 . S
C179 C197 1.392 . S
N180 Co164 2.282 . S
N180 C183 1.332 . S
N180 C185 1.332 . S
C181 C182 1.386 . S
C181 C184 1.388 . S
C182 C181 1.386 . S
C182 C183 1.382 . S
C182 H208 0.950 . S
C183 N180 1.332 . S
C183 C182 1.382 . S
C183 H194 0.952 . S
C184 C181 1.388 . S
C184 C185 1.382 . S
C184 H209 0.950 . S
C185 N180 1.332 . S
C185 C184 1.382 . S
C185 H195 0.948 . S
N186 Co164 2.282 . S
N186 C190 1.332 . S
N186 C191 1.332 . S
C187 C188 1.388 . S
C187 C191 1.382 . S
C187 H210 0.950 . S
C188 C187 1.388 . S
C188 C189 1.386 . S
C189 C188 1.386 . S
C189 C190 1.382 . S
C189 H211 0.950 . S
C190 N186 1.332 . S
C190 C189 1.382 . S
C190 H192 0.952 . S
C191 N186 1.332 . S
C191 C187 1.382 . S
C191 H193 0.948 . S
H192 C190 0.952 . S
H193 C191 0.948 . S
H194 C183 0.952 . S
H195 C185 0.948 . S
C196 C162 1.395 . S
C196 C166 1.391 . S
C197 C159 1.389 . S
C197 C179 1.392 . S
C198 C169 1.392 . S
C198 C171 1.389 . S
C199 C174 1.395 . S
C199 C176 1.391 . S
H200 C160 0.951 . S
H201 C161 0.950 . S
H202 C167 0.949 . S
H203 C168 0.950 . S
H204 C172 0.951 . S
H205 C173 0.950 . S
H206 C177 0.949 . S
H207 C178 0.950 . S
H208 C182 0.950 . S
H209 C184 0.950 . S
H210 C187 0.950 . S
H211 C189 0.950 . S
C212 C213 1.443 . S
C212 N216 1.376 . S
C212 C250 1.389 . S
C213 C212 1.443 . S
C213 C214 1.340 . S
C213 H253 0.951 . S
C214 C213 1.340 . S
C214 C215 1.439 . S
C214 H254 0.950 . S
C215 C214 1.439 . S
C215 N216 1.374 . S
C215 C249 1.395 . S
N216 C212 1.376 . S
N216 C215 1.374 . S
N216 Co217 2.008 . S
Co217 N216 2.008 . S
Co217 N218 1.995 . S
Co217 N223 2.008 . S
Co217 N228 1.995 . S
Co217 N233 2.282 . S
Co217 N239 2.282 . S
N218 Co217 1.995 . S
N218 C219 1.376 . S
N218 C222 1.383 . S
C219 N218 1.376 . S
C219 C220 1.446 . S
C219 C249 1.391 . S
C220 C219 1.446 . S
C220 C221 1.339 . S
C220 H255 0.949 . S
C221 C220 1.339 . S
C221 C222 1.439 . S
C221 H256 0.950 . S
C222 N218 1.383 . S
C222 C221 1.439 . S
C222 C251 1.392 . S
N223 Co217 2.008 . S
N223 C224 1.376 . S
N223 C227 1.374 . S
C224 N223 1.376 . S
C224 C225 1.443 . S
C224 C251 1.389 . S
C225 C224 1.443 . S
C225 C226 1.340 . S
C225 H257 0.951 . S
C226 C225 1.340 . S
C226 C227 1.439 . S
C226 H258 0.950 . S
C227 N223 1.374 . S
C227 C226 1.439 . S
C227 C252 1.395 . S
N228 Co217 1.995 . S
N228 C229 1.376 . S
N228 C232 1.383 . S
C229 N228 1.376 . S
C229 C230 1.446 . S
C229 C252 1.391 . S
C230 C229 1.446 . S
C230 C231 1.339 . S
C230 H259 0.949 . S
C231 C230 1.339 . S
C231 C232 1.439 . S
C231 H260 0.950 . S
C232 N228 1.383 . S
C232 C231 1.439 . S
C232 C250 1.392 . S
N233 Co217 2.282 . S
N233 C236 1.332 . S
N233 C238 1.332 . S
C234 C235 1.386 . S
C234 C237 1.388 . S
C235 C234 1.386 . S
C235 C236 1.382 . S
C235 H261 0.950 . S
C236 N233 1.332 . S
C236 C235 1.382 . S
C236 H247 0.952 . S
C237 C234 1.388 . S
C237 C238 1.382 . S
C237 H262 0.950 . S
C238 N233 1.332 . S
C238 C237 1.382 . S
C238 H248 0.948 . S
N239 Co217 2.282 . S
N239 C243 1.332 . S
N239 C244 1.332 . S
C240 C241 1.388 . S
C240 C244 1.382 . S
C240 H263 0.950 . S
C241 C240 1.388 . S
C241 C242 1.386 . S
C242 C241 1.386 . S
C242 C243 1.382 . S
C242 H264 0.950 . S
C243 N239 1.332 . S
C243 C242 1.382 . S
C243 H245 0.952 . S
C244 N239 1.332 . S
C244 C240 1.382 . S
C244 H246 0.948 . S
H245 C243 0.952 . S
H246 C244 0.948 . S
H247 C236 0.952 . S
H248 C238 0.948 . S
C249 C215 1.395 . S
C249 C219 1.391 . S
C250 C212 1.389 . S
C250 C232 1.392 . S
C251 C222 1.392 . S
C251 C224 1.389 . S
C252 C227 1.395 . S
C252 C229 1.391 . S
H253 C213 0.951 . S
H254 C214 0.950 . S
H255 C220 0.949 . S
H256 C221 0.950 . S
H257 C225 0.951 . S
H258 C226 0.950 . S
H259 C230 0.949 . S
H260 C231 0.950 . S
H261 C235 0.950 . S
H262 C237 0.950 . S
H263 C240 0.950 . S
H264 C242 0.950 . S
C265 C266 1.443 . S
C265 N269 1.376 . S
C265 C303 1.389 . S
C266 C265 1.443 . S
C266 C267 1.340 . S
C266 H306 0.951 . S
C267 C266 1.340 . S
C267 C268 1.439 . S
C267 H307 0.950 . S
C268 C267 1.439 . S
C268 N269 1.374 . S
C268 C302 1.395 . S
N269 C265 1.376 . S
N269 C268 1.374 . S
N269 Co270 2.008 . S
Co270 N269 2.008 . S
Co270 N271 1.995 . S
Co270 N276 2.008 . S
Co270 N281 1.995 . S
Co270 N286 2.282 . S
Co270 N292 2.282 . S
N271 Co270 1.995 . S
N271 C272 1.376 . S
N271 C275 1.383 . S
C272 N271 1.376 . S
C272 C273 1.446 . S
C272 C302 1.391 . S
C273 C272 1.446 . S
C273 C274 1.339 . S
C273 H308 0.949 . S
C274 C273 1.339 . S
C274 C275 1.439 . S
C274 H309 0.950 . S
C275 N271 1.383 . S
C275 C274 1.439 . S
C275 C304 1.392 . S
N276 Co270 2.008 . S
N276 C277 1.376 . S
N276 C280 1.374 . S
C277 N276 1.376 . S
C277 C278 1.443 . S
C277 C304 1.389 . S
C278 C277 1.443 . S
C278 C279 1.340 . S
C278 H310 0.951 . S
C279 C278 1.340 . S
C279 C280 1.439 . S
C279 H311 0.950 . S
C280 N276 1.374 . S
C280 C279 1.439 . S
C280 C305 1.395 . S
N281 Co270 1.995 . S
N281 C282 1.376 . S
N281 C285 1.383 . S
C282 N281 1.376 . S
C282 C283 1.446 . S
C282 C305 1.391 . S
C283 C282 1.446 . S
C283 C284 1.339 . S
C283 H312 0.949 . S
C284 C283 1.339 . S
C284 C285 1.439 . S
C284 H313 0.950 . S
C285 N281 1.383 . S
C285 C284 1.439 . S
C285 C303 1.392 . S
N286 Co270 2.282 . S
N286 C289 1.332 . S
N286 C291 1.332 . S
C287 C288 1.386 . S
C287 C290 1.388 . S
C288 C287 1.386 . S
C288 C289 1.382 . S
C288 H314 0.950 . S
C289 N286 1.332 . S
C289 C288 1.382 . S
C289 H300 0.952 . S
C290 C287 1.388 . S
C290 C291 1.382 . S
C290 H315 0.950 . S
C291 N286 1.332 . S
C291 C290 1.382 . S
C291 H301 0.948 . S
N292 Co270 2.282 . S
N292 C296 1.332 . S
N292 C297 1.332 . S
C293 C294 1.388 . S
C293 C297 1.382 . S
C293 H316 0.950 . S
C294 C293 1.388 . S
C294 C295 1.386 . S
C295 C294 1.386 . S
C295 C296 1.382 . S
C295 H317 0.950 . S
C296 N292 1.332 . S
C296 C295 1.382 . S
C296 H298 0.952 . S
C297 N292 1.332 . S
C297 C293 1.382 . S
C297 H299 0.948 . S
H298 C296 0.952 . S
H299 C297 0.948 . S
H300 C289 0.952 . S
H301 C291 0.948 . S
C302 C268 1.395 . S
C302 C272 1.391 . S
C303 C265 1.389 . S
C303 C285 1.392 . S
C304 C275 1.392 . S
C304 C277 1.389 . S
C305 C280 1.395 . S
C305 C282 1.391 . S
H306 C266 0.951 . S
H307 C267 0.950 . S
H308 C273 0.949 . S
H309 C274 0.950 . S
H310 C278 0.951 . S
H311 C279 0.950 . S
H312 C283 0.949 . S
H313 C284 0.950 . S
H314 C288 0.950 . S
H315 C290 0.950 . S
H316 C293 0.950 . S
H317 C295 0.950 . S
C318 C319 1.443 . S
C318 N322 1.376 . S
C318 C356 1.389 . S
C319 C318 1.443 . S
C319 C320 1.340 . S
C319 H359 0.951 . S
C320 C319 1.340 . S
C320 C321 1.439 . S
C320 H360 0.950 . S
C321 C320 1.439 . S
C321 N322 1.374 . S
C321 C355 1.395 . S
N322 C318 1.376 . S
N322 C321 1.374 . S
N322 Co323 2.008 . S
Co323 N322 2.008 . S
Co323 N324 1.995 . S
Co323 N329 2.008 . S
Co323 N334 1.995 . S
Co323 N339 2.282 . S
Co323 N345 2.282 . S
N324 Co323 1.995 . S
N324 C325 1.376 . S
N324 C328 1.383 . S
C325 N324 1.376 . S
C325 C326 1.446 . S
C325 C355 1.391 . S
C326 C325 1.446 . S
C326 C327 1.339 . S
C326 H361 0.949 . S
C327 C326 1.339 . S
C327 C328 1.439 . S
C327 H362 0.950 . S
C328 N324 1.383 . S
C328 C327 1.439 . S
C328 C357 1.392 . S
N329 Co323 2.008 . S
N329 C330 1.376 . S
N329 C333 1.374 1_545 S
C330 N329 1.376 . S
C330 C331 1.443 1_545 S
C330 C357 1.389 . S
C331 C330 1.443 1_565 S
C331 C332 1.340 . S
C331 H363 0.951 . S
C332 C331 1.340 . S
C332 C333 1.439 . S
C332 H364 0.950 . S
C333 N329 1.374 1_565 S
C333 C332 1.439 . S
C333 C358 1.395 . S
N334 Co323 1.995 . S
N334 C335 1.376 1_545 S
N334 C338 1.383 . S
C335 N334 1.376 1_565 S
C335 C336 1.446 . S
C335 C358 1.391 . S
C336 C335 1.446 . S
C336 C337 1.339 . S
C336 H365 0.949 . S
C337 C336 1.339 . S
C337 C338 1.439 1_565 S
C337 H366 0.950 . S
C338 N334 1.383 . S
C338 C337 1.439 1_545 S
C338 C356 1.392 . S
N339 Co323 2.282 . S
N339 C342 1.332 . S
N339 C344 1.332 . S
C340 C341 1.386 1_545 S
C340 C343 1.388 . S
C341 C340 1.386 1_565 S
C341 C342 1.382 1_565 S
C341 H367 0.950 . S
C342 N339 1.332 . S
C342 C341 1.382 1_545 S
C342 H353 0.952 1_545 S
C343 C340 1.388 . S
C343 C344 1.382 . S
C343 H368 0.950 . S
C344 N339 1.332 . S
C344 C343 1.382 . S
C344 H354 0.948 . S
N345 Co323 2.282 . S
N345 C349 1.332 . S
N345 C350 1.332 . S
C346 C347 1.388 . S
C346 C350 1.382 . S
C346 H369 0.950 . S
C347 C346 1.388 . S
C347 C348 1.386 . S
C348 C347 1.386 . S
C348 C349 1.382 . S
C348 H370 0.950 . S
C349 N345 1.332 . S
C349 C348 1.382 . S
C349 H351 0.952 . S
C350 N345 1.332 . S
C350 C346 1.382 . S
C350 H352 0.948 . S
H351 C349 0.952 . S
H352 C350 0.948 . S
H353 C342 0.952 1_565 S
H354 C344 0.948 . S
C355 C321 1.395 . S
C355 C325 1.391 . S
C356 C318 1.389 . S
C356 C338 1.392 . S
C357 C328 1.392 . S
C357 C330 1.389 . S
C358 C333 1.395 . S
C358 C335 1.391 . S
H359 C319 0.951 . S
H360 C320 0.950 . S
H361 C326 0.949 . S
H362 C327 0.950 . S
H363 C331 0.951 . S
H364 C332 0.950 . S
H365 C336 0.949 . S
H366 C337 0.950 . S
H367 C341 0.950 . S
H368 C343 0.950 . S
H369 C346 0.950 . S
H370 C348 0.950 . S
C371 C372 1.443 1_655 S
C371 N375 1.376 1_655 S
C371 C409 1.389 . S
C372 C371 1.443 1_455 S
C372 C373 1.340 . S
C372 H412 0.951 . S
C373 C372 1.340 . S
C373 C374 1.439 . S
C373 H413 0.950 . S
C374 C373 1.439 . S
C374 N375 1.374 . S
C374 C408 1.395 . S
N375 C371 1.376 1_455 S
N375 C374 1.374 . S
N375 Co376 2.008 1_455 S
Co376 N375 2.008 1_655 S
Co376 N377 1.995 1_655 S
Co376 N382 2.008 . S
Co376 N387 1.995 . S
Co376 N392 2.282 . S
Co376 N398 2.282 . S
N377 Co376 1.995 1_455 S
N377 C378 1.376 . S
N377 C381 1.383 . S
C378 N377 1.376 . S
C378 C379 1.446 . S
C378 C408 1.391 . S
C379 C378 1.446 . S
C379 C380 1.339 . S
C379 H414 0.949 . S
C380 C379 1.339 . S
C380 C381 1.439 . S
C380 H415 0.950 . S
C381 N377 1.383 . S
C381 C380 1.439 . S
C381 C410 1.392 1_455 S
N382 Co376 2.008 . S
N382 C383 1.376 . S
N382 C386 1.374 . S
C383 N382 1.376 . S
C383 C384 1.443 . S
C383 C410 1.389 . S
C384 C383 1.443 . S
C384 C385 1.340 . S
C384 H416 0.951 . S
C385 C384 1.340 . S
C385 C386 1.439 . S
C385 H417 0.950 . S
C386 N382 1.374 . S
C386 C385 1.439 . S
C386 C411 1.395 . S
N387 Co376 1.995 . S
N387 C388 1.376 . S
N387 C391 1.383 . S
C388 N387 1.376 . S
C388 C389 1.446 . S
C388 C411 1.391 . S
C389 C388 1.446 . S
C389 C390 1.339 . S
C389 H418 0.949 . S
C390 C389 1.339 . S
C390 C391 1.439 . S
C390 H419 0.950 . S
C391 N387 1.383 . S
C391 C390 1.439 . S
C391 C409 1.392 . S
N392 Co376 2.282 . S
N392 C395 1.332 . S
N392 C397 1.332 1_655 S
C393 C394 1.386 . S
C393 C396 1.388 1_655 S
C394 C393 1.386 . S
C394 C395 1.382 . S
C394 H420 0.950 . S
C395 N392 1.332 . S
C395 C394 1.382 . S
C395 H406 0.952 . S
C396 C393 1.388 1_455 S
C396 C397 1.382 . S
C396 H421 0.950 . S
C397 N392 1.332 1_455 S
C397 C396 1.382 . S
C397 H407 0.948 . S
N398 Co376 2.282 . S
N398 C402 1.333 . S
N398 C403 1.332 . S
C399 C400 1.388 . S
C399 C403 1.382 . S
C399 H422 0.950 . S
C400 C399 1.388 . S
C400 C401 1.386 1_655 S
C401 C400 1.386 1_455 S
C401 C402 1.382 1_455 S
C401 H423 0.950 . S
C402 N398 1.333 . S
C402 C401 1.382 1_655 S
C402 H404 0.951 1_655 S
C403 N398 1.332 . S
C403 C399 1.382 . S
C403 H405 0.948 . S
H404 C402 0.951 1_455 S
H405 C403 0.948 . S
H406 C395 0.952 . S
H407 C397 0.948 . S
C408 C374 1.395 . S
C408 C378 1.391 . S
C409 C371 1.389 . S
C409 C391 1.392 . S
C410 C381 1.392 1_655 S
C410 C383 1.389 . S
C411 C386 1.395 . S
C411 C388 1.391 . S
H412 C372 0.951 . S
H413 C373 0.950 . S
H414 C379 0.949 . S
H415 C380 0.950 . S
H416 C384 0.951 . S
H417 C385 0.950 . S
H418 C389 0.949 . S
H419 C390 0.950 . S
H420 C394 0.950 . S
H421 C396 0.950 . S
H422 C399 0.950 . S
H423 C401 0.950 . S
C424 C425 1.443 . S
C424 N428 1.376 . S
C424 C462 1.389 . S
C425 C424 1.443 . S
C425 C426 1.340 . S
C425 H465 0.951 . S
C426 C425 1.340 . S
C426 C427 1.439 . S
C426 H466 0.950 . S
C427 C426 1.439 . S
C427 N428 1.374 . S
C427 C461 1.395 . S
N428 C424 1.376 . S
N428 C427 1.374 . S
N428 Co429 2.008 . S
Co429 N428 2.008 . S
Co429 N430 1.995 . S
Co429 N435 2.008 . S
Co429 N440 1.995 . S
Co429 N445 2.282 . S
Co429 N451 2.282 . S
N430 Co429 1.995 . S
N430 C431 1.376 . S
N430 C434 1.383 . S
C431 N430 1.376 . S
C431 C432 1.446 . S
C431 C461 1.391 . S
C432 C431 1.446 . S
C432 C433 1.339 . S
C432 H467 0.949 . S
C433 C432 1.339 . S
C433 C434 1.439 . S
C433 H468 0.950 . S
C434 N430 1.383 . S
C434 C433 1.439 . S
C434 C463 1.392 . S
N435 Co429 2.008 . S
N435 C436 1.376 . S
N435 C439 1.374 . S
C436 N435 1.376 . S
C436 C437 1.443 . S
C436 C463 1.389 . S
C437 C436 1.443 . S
C437 C438 1.340 . S
C437 H469 0.951 . S
C438 C437 1.340 . S
C438 C439 1.439 . S
C438 H470 0.950 . S
C439 N435 1.374 . S
C439 C438 1.439 . S
C439 C464 1.395 . S
N440 Co429 1.995 . S
N440 C441 1.376 . S
N440 C444 1.383 . S
C441 N440 1.376 . S
C441 C442 1.446 . S
C441 C464 1.391 . S
C442 C441 1.446 . S
C442 C443 1.339 . S
C442 H471 0.949 . S
C443 C442 1.339 . S
C443 C444 1.439 . S
C443 H472 0.950 . S
C444 N440 1.383 . S
C444 C443 1.439 . S
C444 C462 1.392 . S
N445 Co429 2.282 . S
N445 C448 1.332 . S
N445 C450 1.332 . S
C446 C447 1.386 . S
C446 C449 1.388 . S
C447 C446 1.386 . S
C447 C448 1.382 . S
C447 H473 0.950 . S
C448 N445 1.332 . S
C448 C447 1.382 . S
C448 H459 0.952 . S
C449 C446 1.388 . S
C449 C450 1.382 . S
C449 H474 0.950 . S
C450 N445 1.332 . S
C450 C449 1.382 . S
C450 H460 0.948 . S
N451 Co429 2.282 . S
N451 C455 1.332 . S
N451 C456 1.332 . S
C452 C453 1.388 . S
C452 C456 1.382 . S
C452 H475 0.950 . S
C453 C452 1.388 . S
C453 C454 1.386 . S
C454 C453 1.386 . S
C454 C455 1.382 . S
C454 H476 0.950 . S
C455 N451 1.332 . S
C455 C454 1.382 . S
C455 H457 0.952 . S
C456 N451 1.332 . S
C456 C452 1.382 . S
C456 H458 0.948 . S
H457 C455 0.952 . S
H458 C456 0.948 . S
H459 C448 0.952 . S
H460 C450 0.948 . S
C461 C427 1.395 . S
C461 C431 1.391 . S
C462 C424 1.389 . S
C462 C444 1.392 . S
C463 C434 1.392 . S
C463 C436 1.389 . S
C464 C439 1.395 . S
C464 C441 1.391 . S
H465 C425 0.951 . S
H466 C426 0.950 . S
H467 C432 0.949 . S
H468 C433 0.950 . S
H469 C437 0.951 . S
H470 C438 0.950 . S
H471 C442 0.949 . S
H472 C443 0.950 . S
H473 C447 0.950 . S
H474 C449 0.950 . S
H475 C452 0.950 . S
H476 C454 0.950 . S
C477 C478 1.443 . S
C477 N481 1.376 . S
C477 C515 1.389 . S
C478 C477 1.443 . S
C478 C479 1.340 . S
C478 H518 0.951 . S
C479 C478 1.340 . S
C479 C480 1.439 . S
C479 H519 0.950 . S
C480 C479 1.439 . S
C480 N481 1.374 . S
C480 C514 1.395 . S
N481 C477 1.376 . S
N481 C480 1.374 . S
N481 Co482 2.008 . S
Co482 N481 2.008 . S
Co482 N483 1.995 . S
Co482 N488 2.008 . S
Co482 N493 1.995 . S
Co482 N498 2.282 . S
Co482 N504 2.282 . S
N483 Co482 1.995 . S
N483 C484 1.376 . S
N483 C487 1.383 . S
C484 N483 1.376 . S
C484 C485 1.446 . S
C484 C514 1.391 . S
C485 C484 1.446 . S
C485 C486 1.339 . S
C485 H520 0.949 . S
C486 C485 1.339 . S
C486 C487 1.439 . S
C486 H521 0.950 . S
C487 N483 1.383 . S
C487 C486 1.439 . S
C487 C516 1.392 . S
N488 Co482 2.008 . S
N488 C489 1.376 . S
N488 C492 1.374 . S
C489 N488 1.376 . S
C489 C490 1.443 . S
C489 C516 1.389 . S
C490 C489 1.443 . S
C490 C491 1.340 . S
C490 H522 0.951 . S
C491 C490 1.340 . S
C491 C492 1.439 . S
C491 H523 0.950 . S
C492 N488 1.374 . S
C492 C491 1.439 . S
C492 C517 1.395 . S
N493 Co482 1.995 . S
N493 C494 1.376 . S
N493 C497 1.383 . S
C494 N493 1.376 . S
C494 C495 1.446 . S
C494 C517 1.391 . S
C495 C494 1.446 . S
C495 C496 1.339 . S
C495 H524 0.949 . S
C496 C495 1.339 . S
C496 C497 1.439 . S
C496 H525 0.950 . S
C497 N493 1.383 . S
C497 C496 1.439 . S
C497 C515 1.392 . S
N498 Co482 2.282 . S
N498 C501 1.332 . S
N498 C503 1.332 . S
C499 C500 1.386 . S
C499 C502 1.388 . S
C500 C499 1.386 . S
C500 C501 1.382 . S
C500 H526 0.950 . S
C501 N498 1.332 . S
C501 C500 1.382 . S
C501 H512 0.952 . S
C502 C499 1.388 . S
C502 C503 1.382 . S
C502 H527 0.950 . S
C503 N498 1.332 . S
C503 C502 1.382 . S
C503 H513 0.948 . S
N504 Co482 2.282 . S
N504 C508 1.332 . S
N504 C509 1.332 . S
C505 C506 1.388 . S
C505 C509 1.382 . S
C505 H528 0.950 . S
C506 C505 1.388 . S
C506 C507 1.386 . S
C507 C506 1.386 . S
C507 C508 1.382 . S
C507 H529 0.950 . S
C508 N504 1.332 . S
C508 C507 1.382 . S
C508 H510 0.952 . S
C509 N504 1.332 . S
C509 C505 1.382 . S
C509 H511 0.948 . S
H510 C508 0.952 . S
H511 C509 0.948 . S
H512 C501 0.952 . S
H513 C503 0.948 . S
C514 C480 1.395 . S
C514 C484 1.391 . S
C515 C477 1.389 . S
C515 C497 1.392 . S
C516 C487 1.392 . S
C516 C489 1.389 . S
C517 C492 1.395 . S
C517 C494 1.391 . S
H518 C478 0.951 . S
H519 C479 0.950 . S
H520 C485 0.949 . S
H521 C486 0.950 . S
H522 C490 0.951 . S
H523 C491 0.950 . S
H524 C495 0.949 . S
H525 C496 0.950 . S
H526 C500 0.950 . S
H527 C502 0.950 . S
H528 C505 0.950 . S
H529 C507 0.950 . S
C530 C531 1.443 . S
C530 N534 1.376 . S
C530 C568 1.389 . S
C531 C530 1.443 . S
C531 C532 1.340 . S
C531 H571 0.951 . S
C532 C531 1.340 . S
C532 C533 1.439 . S
C532 H572 0.950 . S
C533 C532 1.439 . S
C533 N534 1.374 . S
C533 C567 1.395 . S
N534 C530 1.376 . S
N534 C533 1.374 . S
N534 Co535 2.008 . S
Co535 N534 2.008 . S
Co535 N536 1.995 . S
Co535 N541 2.008 . S
Co535 N546 1.995 . S
Co535 N551 2.282 . S
Co535 N557 2.282 . S
N536 Co535 1.995 . S
N536 C537 1.376 . S
N536 C540 1.383 . S
C537 N536 1.376 . S
C537 C538 1.446 . S
C537 C567 1.391 . S
C538 C537 1.446 . S
C538 C539 1.339 . S
C538 H573 0.949 . S
C539 C538 1.339 . S
C539 C540 1.439 . S
C539 H574 0.950 . S
C540 N536 1.383 . S
C540 C539 1.439 . S
C540 C569 1.392 . S
N541 Co535 2.008 . S
N541 C542 1.376 . S
N541 C545 1.374 1_565 S
C542 N541 1.376 . S
C542 C543 1.443 1_565 S
C542 C569 1.389 . S
C543 C542 1.443 1_545 S
C543 C544 1.340 . S
C543 H575 0.951 . S
C544 C543 1.340 . S
C544 C545 1.439 . S
C544 H576 0.950 . S
C545 N541 1.374 1_545 S
C545 C544 1.439 . S
C545 C570 1.395 . S
N546 Co535 1.995 . S
N546 C547 1.376 1_565 S
N546 C550 1.383 . S
C547 N546 1.376 1_545 S
C547 C548 1.446 . S
C547 C570 1.391 . S
C548 C547 1.446 . S
C548 C549 1.339 . S
C548 H577 0.949 . S
C549 C548 1.339 . S
C549 C550 1.439 1_545 S
C549 H578 0.950 . S
C550 N546 1.383 . S
C550 C549 1.439 1_565 S
C550 C568 1.392 . S
N551 Co535 2.282 . S
N551 C554 1.332 . S
N551 C556 1.332 . S
C552 C553 1.386 1_565 S
C552 C555 1.388 . S
C553 C552 1.386 1_545 S
C553 C554 1.382 1_545 S
C553 H579 0.950 . S
C554 N551 1.332 . S
C554 C553 1.382 1_565 S
C554 H565 0.952 1_565 S
C555 C552 1.388 . S
C555 C556 1.382 . S
C555 H580 0.950 . S
C556 N551 1.332 . S
C556 C555 1.382 . S
C556 H566 0.948 . S
N557 Co535 2.282 . S
N557 C561 1.332 . S
N557 C562 1.332 . S
C558 C559 1.388 . S
C558 C562 1.382 . S
C558 H581 0.950 . S
C559 C558 1.388 . S
C559 C560 1.386 . S
C560 C559 1.386 . S
C560 C561 1.382 . S
C560 H582 0.950 . S
C561 N557 1.332 . S
C561 C560 1.382 . S
C561 H563 0.952 . S
C562 N557 1.332 . S
C562 C558 1.382 . S
C562 H564 0.948 . S
H563 C561 0.952 . S
H564 C562 0.948 . S
H565 C554 0.952 1_545 S
H566 C556 0.948 . S
C567 C533 1.395 . S
C567 C537 1.391 . S
C568 C530 1.389 . S
C568 C550 1.392 . S
C569 C540 1.392 . S
C569 C542 1.389 . S
C570 C545 1.395 . S
C570 C547 1.391 . S
H571 C531 0.951 . S
H572 C532 0.950 . S
H573 C538 0.949 . S
H574 C539 0.950 . S
H575 C543 0.951 . S
H576 C544 0.950 . S
H577 C548 0.949 . S
H578 C549 0.950 . S
H579 C553 0.950 . S
H580 C555 0.950 . S
H581 C558 0.950 . S
H582 C560 0.950 . S
C583 C584 1.443 1_455 S
C583 N587 1.376 1_455 S
C583 C621 1.389 . S
C584 C583 1.443 1_655 S
C584 C585 1.340 . S
C584 H624 0.951 . S
C585 C584 1.340 . S
C585 C586 1.439 . S
C585 H625 0.950 . S
C586 C585 1.439 . S
C586 N587 1.374 . S
C586 C620 1.395 . S
N587 C583 1.376 1_655 S
N587 C586 1.374 . S
N587 Co588 2.008 1_655 S
Co588 N587 2.008 1_455 S
Co588 N589 1.995 1_455 S
Co588 N594 2.008 . S
Co588 N599 1.995 . S
Co588 N604 2.282 . S
Co588 N610 2.282 . S
N589 Co588 1.995 1_655 S
N589 C590 1.376 . S
N589 C593 1.383 . S
C590 N589 1.376 . S
C590 C591 1.446 . S
C590 C620 1.391 . S
C591 C590 1.446 . S
C591 C592 1.339 . S
C591 H626 0.949 . S
C592 C591 1.339 . S
C592 C593 1.439 . S
C592 H627 0.950 . S
C593 N589 1.383 . S
C593 C592 1.439 . S
C593 C622 1.392 1_655 S
N594 Co588 2.008 . S
N594 C595 1.376 . S
N594 C598 1.374 . S
C595 N594 1.376 . S
C595 C596 1.443 . S
C595 C622 1.389 . S
C596 C595 1.443 . S
C596 C597 1.340 . S
C596 H628 0.951 . S
C597 C596 1.340 . S
C597 C598 1.439 . S
C597 H629 0.950 . S
C598 N594 1.374 . S
C598 C597 1.439 . S
C598 C623 1.395 . S
N599 Co588 1.995 . S
N599 C600 1.376 . S
N599 C603 1.383 . S
C600 N599 1.376 . S
C600 C601 1.446 . S
C600 C623 1.391 . S
C601 C600 1.446 . S
C601 C602 1.339 . S
C601 H630 0.949 . S
C602 C601 1.339 . S
C602 C603 1.439 . S
C602 H631 0.950 . S
C603 N599 1.383 . S
C603 C602 1.439 . S
C603 C621 1.392 . S
N604 Co588 2.282 . S
N604 C607 1.332 . S
N604 C609 1.332 1_455 S
C605 C606 1.386 . S
C605 C608 1.388 1_455 S
C606 C605 1.386 . S
C606 C607 1.382 . S
C606 H632 0.950 . S
C607 N604 1.332 . S
C607 C606 1.382 . S
C607 H618 0.952 . S
C608 C605 1.388 1_655 S
C608 C609 1.382 . S
C608 H633 0.950 . S
C609 N604 1.332 1_655 S
C609 C608 1.382 . S
C609 H619 0.948 . S
N610 Co588 2.282 . S
N610 C614 1.332 . S
N610 C615 1.332 . S
C611 C612 1.388 . S
C611 C615 1.382 . S
C611 H634 0.950 . S
C612 C611 1.388 . S
C612 C613 1.386 1_455 S
C613 C612 1.386 1_655 S
C613 C614 1.382 1_655 S
C613 H635 0.950 . S
C614 N610 1.332 . S
C614 C613 1.382 1_455 S
C614 H616 0.952 1_455 S
C615 N610 1.332 . S
C615 C611 1.382 . S
C615 H617 0.948 . S
H616 C614 0.952 1_655 S
H617 C615 0.948 . S
H618 C607 0.952 . S
H619 C609 0.948 . S
C620 C586 1.395 . S
C620 C590 1.391 . S
C621 C583 1.389 . S
C621 C603 1.392 . S
C622 C593 1.392 1_455 S
C622 C595 1.389 . S
C623 C598 1.395 . S
C623 C600 1.391 . S
H624 C584 0.951 . S
H625 C585 0.950 . S
H626 C591 0.949 . S
H627 C592 0.950 . S
H628 C596 0.951 . S
H629 C597 0.950 . S
H630 C601 0.949 . S
H631 C602 0.950 . S
H632 C606 0.950 . S
H633 C608 0.950 . S
H634 C611 0.950 . S
H635 C613 0.950 . S
C636 C637 1.443 . S
C636 N640 1.376 . S
C636 C674 1.389 . S
C637 C636 1.443 . S
C637 C638 1.340 . S
C637 H677 0.951 . S
C638 C637 1.340 . S
C638 C639 1.439 . S
C638 H678 0.950 . S
C639 C638 1.439 . S
C639 N640 1.374 . S
C639 C673 1.395 . S
N640 C636 1.376 . S
N640 C639 1.374 . S
N640 Co641 2.008 . S
Co641 N640 2.008 . S
Co641 N642 1.995 . S
Co641 N647 2.008 . S
Co641 N652 1.995 . S
Co641 N657 2.282 . S
Co641 N663 2.282 . S
N642 Co641 1.995 . S
N642 C643 1.376 . S
N642 C646 1.383 . S
C643 N642 1.376 . S
C643 C644 1.446 . S
C643 C673 1.391 . S
C644 C643 1.446 . S
C644 C645 1.339 . S
C644 H679 0.949 . S
C645 C644 1.339 . S
C645 C646 1.439 . S
C645 H680 0.950 . S
C646 N642 1.383 . S
C646 C645 1.439 . S
C646 C675 1.392 . S
N647 Co641 2.008 . S
N647 C648 1.376 . S
N647 C651 1.374 1_565 S
C648 N647 1.376 . S
C648 C649 1.443 1_565 S
C648 C675 1.389 . S
C649 C648 1.443 1_545 S
C649 C650 1.340 . S
C649 H681 0.951 . S
C650 C649 1.340 . S
C650 C651 1.439 . S
C650 H682 0.950 . S
C651 N647 1.374 1_545 S
C651 C650 1.439 . S
C651 C676 1.395 . S
N652 Co641 1.995 . S
N652 C653 1.376 1_565 S
N652 C656 1.383 . S
C653 N652 1.376 1_545 S
C653 C654 1.446 . S
C653 C676 1.391 . S
C654 C653 1.446 . S
C654 C655 1.339 . S
C654 H683 0.949 . S
C655 C654 1.339 . S
C655 C656 1.439 1_545 S
C655 H684 0.950 . S
C656 N652 1.383 . S
C656 C655 1.439 1_565 S
C656 C674 1.392 . S
N657 Co641 2.282 . S
N657 C660 1.332 . S
N657 C662 1.332 . S
C658 C659 1.386 1_565 S
C658 C661 1.388 . S
C659 C658 1.386 1_545 S
C659 C660 1.382 1_545 S
C659 H685 0.950 . S
C660 N657 1.332 . S
C660 C659 1.382 1_565 S
C660 H671 0.952 1_565 S
C661 C658 1.388 . S
C661 C662 1.382 . S
C661 H686 0.950 . S
C662 N657 1.332 . S
C662 C661 1.382 . S
C662 H672 0.948 . S
N663 Co641 2.282 . S
N663 C667 1.332 . S
N663 C668 1.332 . S
C664 C665 1.388 . S
C664 C668 1.382 . S
C664 H687 0.950 . S
C665 C664 1.388 . S
C665 C666 1.386 . S
C666 C665 1.386 . S
C666 C667 1.382 . S
C666 H688 0.950 . S
C667 N663 1.332 . S
C667 C666 1.382 . S
C667 H669 0.952 . S
C668 N663 1.332 . S
C668 C664 1.382 . S
C668 H670 0.948 . S
H669 C667 0.952 . S
H670 C668 0.948 . S
H671 C660 0.952 1_545 S
H672 C662 0.948 . S
C673 C639 1.395 . S
C673 C643 1.391 . S
C674 C636 1.389 . S
C674 C656 1.392 . S
C675 C646 1.392 . S
C675 C648 1.389 . S
C676 C651 1.395 . S
C676 C653 1.391 . S
H677 C637 0.951 . S
H678 C638 0.950 . S
H679 C644 0.949 . S
H680 C645 0.950 . S
H681 C649 0.951 . S
H682 C650 0.950 . S
H683 C654 0.949 . S
H684 C655 0.950 . S
H685 C659 0.950 . S
H686 C661 0.950 . S
H687 C664 0.950 . S
H688 C666 0.950 . S
C689 C690 1.443 1_455 S
C689 N693 1.376 1_455 S
C689 C727 1.389 . S
C690 C689 1.443 1_655 S
C690 C691 1.340 . S
C690 H730 0.951 . S
C691 C690 1.340 . S
C691 C692 1.439 . S
C691 H731 0.950 . S
C692 C691 1.439 . S
C692 N693 1.374 . S
C692 C726 1.395 . S
N693 C689 1.376 1_655 S
N693 C692 1.374 . S
N693 Co694 2.008 1_655 S
Co694 N693 2.008 1_455 S
Co694 N695 1.995 1_455 S
Co694 N700 2.008 . S
Co694 N705 1.995 . S
Co694 N710 2.282 . S
Co694 N716 2.282 . S
N695 Co694 1.995 1_655 S
N695 C696 1.376 . S
N695 C699 1.383 . S
C696 N695 1.376 . S
C696 C697 1.446 . S
C696 C726 1.391 . S
C697 C696 1.446 . S
C697 C698 1.339 . S
C697 H732 0.949 . S
C698 C697 1.339 . S
C698 C699 1.439 . S
C698 H733 0.950 . S
C699 N695 1.383 . S
C699 C698 1.439 . S
C699 C728 1.392 1_655 S
N700 Co694 2.008 . S
N700 C701 1.376 . S
N700 C704 1.374 . S
C701 N700 1.376 . S
C701 C702 1.443 . S
C701 C728 1.389 . S
C702 C701 1.443 . S
C702 C703 1.340 . S
C702 H734 0.951 . S
C703 C702 1.340 . S
C703 C704 1.439 . S
C703 H735 0.950 . S
C704 N700 1.374 . S
C704 C703 1.439 . S
C704 C729 1.395 . S
N705 Co694 1.995 . S
N705 C706 1.376 . S
N705 C709 1.383 . S
C706 N705 1.376 . S
C706 C707 1.446 . S
C706 C729 1.391 . S
C707 C706 1.446 . S
C707 C708 1.339 . S
C707 H736 0.949 . S
C708 C707 1.339 . S
C708 C709 1.439 . S
C708 H737 0.950 . S
C709 N705 1.383 . S
C709 C708 1.439 . S
C709 C727 1.392 . S
N710 Co694 2.282 . S
N710 C713 1.332 . S
N710 C715 1.332 1_455 S
C711 C712 1.386 . S
C711 C714 1.388 1_455 S
C712 C711 1.386 . S
C712 C713 1.382 . S
C712 H738 0.950 . S
C713 N710 1.332 . S
C713 C712 1.382 . S
C713 H724 0.952 . S
C714 C711 1.388 1_655 S
C714 C715 1.382 . S
C714 H739 0.950 . S
C715 N710 1.332 1_655 S
C715 C714 1.382 . S
C715 H725 0.948 . S
N716 Co694 2.282 . S
N716 C720 1.334 1_455 S
N716 C721 1.332 . S
C717 C718 1.388 . S
C717 C721 1.382 . S
C717 H740 0.950 . S
C718 C717 1.388 . S
C718 C719 1.386 1_455 S
C719 C718 1.386 1_655 S
C719 C720 1.382 . S
C719 H741 0.950 . S
C720 N716 1.334 1_655 S
C720 C719 1.382 . S
C720 H722 0.950 . S
C721 N716 1.332 . S
C721 C717 1.382 . S
C721 H723 0.948 . S
H722 C720 0.950 . S
H723 C721 0.948 . S
H724 C713 0.952 . S
H725 C715 0.948 . S
C726 C692 1.395 . S
C726 C696 1.391 . S
C727 C689 1.389 . S
C727 C709 1.392 . S
C728 C699 1.392 1_455 S
C728 C701 1.389 . S
C729 C704 1.395 . S
C729 C706 1.391 . S
H730 C690 0.951 . S
H731 C691 0.950 . S
H732 C697 0.949 . S
H733 C698 0.950 . S
H734 C702 0.951 . S
H735 C703 0.950 . S
H736 C707 0.949 . S
H737 C708 0.950 . S
H738 C712 0.950 . S
H739 C714 0.950 . S
H740 C717 0.950 . S
H741 C719 0.950 . S
C742 C743 1.443 . S
C742 N746 1.376 . S
C742 C780 1.389 . S
C743 C742 1.443 . S
C743 C744 1.340 . S
C743 H783 0.951 . S
C744 C743 1.340 . S
C744 C745 1.439 . S
C744 H784 0.950 . S
C745 C744 1.439 . S
C745 N746 1.374 . S
C745 C779 1.395 . S
N746 C742 1.376 . S
N746 C745 1.374 . S
N746 Co747 2.008 . S
Co747 N746 2.008 . S
Co747 N748 1.995 . S
Co747 N753 2.008 . S
Co747 N758 1.995 . S
Co747 N763 2.282 . S
Co747 N769 2.282 . S
N748 Co747 1.995 . S
N748 C749 1.376 . S
N748 C752 1.383 . S
C749 N748 1.376 . S
C749 C750 1.446 . S
C749 C779 1.391 . S
C750 C749 1.446 . S
C750 C751 1.339 . S
C750 H785 0.949 . S
C751 C750 1.339 . S
C751 C752 1.439 . S
C751 H786 0.950 . S
C752 N748 1.383 . S
C752 C751 1.439 . S
C752 C781 1.392 . S
N753 Co747 2.008 . S
N753 C754 1.376 . S
N753 C757 1.374 . S
C754 N753 1.376 . S
C754 C755 1.443 . S
C754 C781 1.389 . S
C755 C754 1.443 . S
C755 C756 1.340 . S
C755 H787 0.951 . S
C756 C755 1.340 . S
C756 C757 1.439 . S
C756 H788 0.950 . S
C757 N753 1.374 . S
C757 C756 1.439 . S
C757 C782 1.395 . S
N758 Co747 1.995 . S
N758 C759 1.376 . S
N758 C762 1.383 . S
C759 N758 1.376 . S
C759 C760 1.446 . S
C759 C782 1.391 . S
C760 C759 1.446 . S
C760 C761 1.339 . S
C760 H789 0.949 . S
C761 C760 1.339 . S
C761 C762 1.439 . S
C761 H790 0.950 . S
C762 N758 1.383 . S
C762 C761 1.439 . S
C762 C780 1.392 . S
N763 Co747 2.282 . S
N763 C766 1.332 . S
N763 C768 1.332 . S
C764 C765 1.386 . S
C764 C767 1.388 . S
C765 C764 1.386 . S
C765 C766 1.382 . S
C765 H791 0.950 . S
C766 N763 1.332 . S
C766 C765 1.382 . S
C766 H777 0.952 . S
C767 C764 1.388 . S
C767 C768 1.382 . S
C767 H792 0.950 . S
C768 N763 1.332 . S
C768 C767 1.382 . S
C768 H778 0.948 . S
N769 Co747 2.282 . S
N769 C773 1.332 . S
N769 C774 1.332 . S
C770 C771 1.388 . S
C770 C774 1.382 . S
C770 H793 0.950 . S
C771 C770 1.388 . S
C771 C772 1.386 . S
C772 C771 1.386 . S
C772 C773 1.382 . S
C772 H794 0.950 . S
C773 N769 1.332 . S
C773 C772 1.382 . S
C773 H775 0.952 . S
C774 N769 1.332 . S
C774 C770 1.382 . S
C774 H776 0.948 . S
H775 C773 0.952 . S
H776 C774 0.948 . S
H777 C766 0.952 . S
H778 C768 0.948 . S
C779 C745 1.395 . S
C779 C749 1.391 . S
C780 C742 1.389 . S
C780 C762 1.392 . S
C781 C752 1.392 . S
C781 C754 1.389 . S
C782 C757 1.395 . S
C782 C759 1.391 . S
H783 C743 0.951 . S
H784 C744 0.950 . S
H785 C750 0.949 . S
H786 C751 0.950 . S
H787 C755 0.951 . S
H788 C756 0.950 . S
H789 C760 0.949 . S
H790 C761 0.950 . S
H791 C765 0.950 . S
H792 C767 0.950 . S
H793 C770 0.950 . S
H794 C772 0.950 . S
C795 C796 1.443 . S
C795 N799 1.376 . S
C795 C833 1.389 . S
C796 C795 1.443 . S
C796 C797 1.340 . S
C796 H836 0.951 . S
C797 C796 1.340 . S
C797 C798 1.439 . S
C797 H837 0.950 . S
C798 C797 1.439 . S
C798 N799 1.374 . S
C798 C832 1.395 . S
N799 C795 1.376 . S
N799 C798 1.374 . S
N799 Co800 2.008 . S
Co800 N799 2.008 . S
Co800 N801 1.995 . S
Co800 N806 2.008 . S
Co800 N811 1.995 . S
Co800 N816 2.282 . S
Co800 N822 2.282 . S
N801 Co800 1.995 . S
N801 C802 1.376 . S
N801 C805 1.383 . S
C802 N801 1.376 . S
C802 C803 1.446 . S
C802 C832 1.391 . S
C803 C802 1.446 . S
C803 C804 1.339 . S
C803 H838 0.949 . S
C804 C803 1.339 . S
C804 C805 1.439 . S
C804 H839 0.950 . S
C805 N801 1.383 . S
C805 C804 1.439 . S
C805 C834 1.392 . S
N806 Co800 2.008 . S
N806 C807 1.376 . S
N806 C810 1.374 . S
C807 N806 1.376 . S
C807 C808 1.443 . S
C807 C834 1.389 . S
C808 C807 1.443 . S
C808 C809 1.340 . S
C808 H840 0.951 . S
C809 C808 1.340 . S
C809 C810 1.439 . S
C809 H841 0.950 . S
C810 N806 1.374 . S
C810 C809 1.439 . S
C810 C835 1.395 . S
N811 Co800 1.995 . S
N811 C812 1.376 . S
N811 C815 1.383 . S
C812 N811 1.376 . S
C812 C813 1.446 . S
C812 C835 1.391 . S
C813 C812 1.446 . S
C813 C814 1.339 . S
C813 H842 0.949 . S
C814 C813 1.339 . S
C814 C815 1.439 . S
C814 H843 0.950 . S
C815 N811 1.383 . S
C815 C814 1.439 . S
C815 C833 1.392 . S
N816 Co800 2.282 . S
N816 C819 1.332 . S
N816 C821 1.332 . S
C817 C818 1.386 . S
C817 C820 1.388 . S
C818 C817 1.386 . S
C818 C819 1.382 . S
C818 H844 0.950 . S
C819 N816 1.332 . S
C819 C818 1.382 . S
C819 H830 0.952 . S
C820 C817 1.388 . S
C820 C821 1.382 . S
C820 H845 0.950 . S
C821 N816 1.332 . S
C821 C820 1.382 . S
C821 H831 0.948 . S
N822 Co800 2.282 . S
N822 C826 1.332 . S
N822 C827 1.332 . S
C823 C824 1.388 . S
C823 C827 1.382 . S
C823 H846 0.950 . S
C824 C823 1.388 . S
C824 C825 1.386 . S
C825 C824 1.386 . S
C825 C826 1.382 . S
C825 H847 0.950 . S
C826 N822 1.332 . S
C826 C825 1.382 . S
C826 H828 0.952 . S
C827 N822 1.332 . S
C827 C823 1.382 . S
C827 H829 0.948 . S
H828 C826 0.952 . S
H829 C827 0.948 . S
H830 C819 0.952 . S
H831 C821 0.948 . S
C832 C798 1.395 . S
C832 C802 1.391 . S
C833 C795 1.389 . S
C833 C815 1.392 . S
C834 C805 1.392 . S
C834 C807 1.389 . S
C835 C810 1.395 . S
C835 C812 1.391 . S
H836 C796 0.951 . S
H837 C797 0.950 . S
H838 C803 0.949 . S
H839 C804 0.950 . S
H840 C808 0.951 . S
H841 C809 0.950 . S
H842 C813 0.949 . S
H843 C814 0.950 . S
H844 C818 0.950 . S
H845 C820 0.950 . S
H846 C823 0.950 . S
H847 C825 0.950 . S
C848 C849 1.369 1_545 S
C848 C850 1.419 . S
C848 H852 0.930 . S
C849 C848 1.369 1_565 S
C849 C858 1.429 1_655 S
C850 C848 1.419 . S
C850 C851 1.363 1_655 S
C850 H853 0.929 . S
C851 C850 1.363 1_455 S
C851 C857 1.428 1_545 S
H852 C848 0.930 . S
H853 C850 0.929 . S
S854 N855 1.613 . S
S854 N856 1.610 . S
N855 S854 1.613 . S
N855 C858 1.350 . S
N856 S854 1.610 . S
N856 C857 1.351 . S
C857 C851 1.428 1_565 S
C857 N856 1.351 . S
C857 C858 1.434 . S
C858 C849 1.429 1_455 S
C858 N855 1.350 . S
C858 C857 1.434 . S
C859 C860 1.369 . S
C859 C861 1.419 . S
C859 H863 0.930 . S
C860 C859 1.369 . S
C860 C869 1.429 1_655 S
C861 C859 1.419 . S
C861 C862 1.363 1_655 S
C861 H864 0.929 . S
C862 C861 1.363 1_455 S
C862 C868 1.428 . S
H863 C859 0.930 . S
H864 C861 0.929 . S
S865 N866 1.613 . S
S865 N867 1.610 . S
N866 S865 1.613 . S
N866 C869 1.350 . S
N867 S865 1.610 . S
N867 C868 1.351 . S
C868 C862 1.428 . S
C868 N867 1.351 . S
C868 C869 1.434 . S
C869 C860 1.429 1_455 S
C869 N866 1.350 . S
C869 C868 1.434 . S
C870 C871 1.369 . S
C870 C872 1.419 . S
C870 H874 0.930 . S
C871 C870 1.369 . S
C871 C880 1.429 . S
C872 C870 1.419 . S
C872 C873 1.363 . S
C872 H875 0.929 . S
C873 C872 1.363 . S
C873 C879 1.428 . S
H874 C870 0.930 . S
H875 C872 0.929 . S
S876 N877 1.613 . S
S876 N878 1.610 . S
N877 S876 1.613 . S
N877 C880 1.350 . S
N878 S876 1.610 . S
N878 C879 1.351 . S
C879 C873 1.428 . S
C879 N878 1.351 . S
C879 C880 1.434 . S
C880 C871 1.429 . S
C880 N877 1.350 . S
C880 C879 1.434 . S
C881 C882 1.369 . S
C881 C883 1.419 1_545 S
C881 H885 0.930 . S
C882 C881 1.369 . S
C882 C891 1.429 . S
C883 C881 1.419 1_565 S
C883 C884 1.363 . S
C883 H886 0.929 . S
C884 C883 1.363 . S
C884 C890 1.428 . S
H885 C881 0.930 . S
H886 C883 0.929 . S
S887 N888 1.613 . S
S887 N889 1.610 1_545 S
N888 S887 1.613 . S
N888 C891 1.350 . S
N889 S887 1.610 1_565 S
N889 C890 1.351 . S
C890 C884 1.428 . S
C890 N889 1.351 . S
C890 C891 1.434 1_565 S
C891 C882 1.429 . S
C891 N888 1.350 . S
C891 C890 1.434 1_545 S
C892 C893 1.369 . S
C892 C894 1.419 1_455 S
C892 H896 0.930 . S
C893 C892 1.369 . S
C893 C902 1.429 . S
C894 C892 1.419 1_655 S
C894 C895 1.363 . S
C894 H897 0.929 . S
C895 C894 1.363 . S
C895 C901 1.428 . S
H896 C892 0.930 . S
H897 C894 0.929 . S
S898 N899 1.613 . S
S898 N900 1.610 . S
N899 S898 1.613 . S
N899 C902 1.350 1_655 S
N900 S898 1.610 . S
N900 C901 1.351 . S
C901 C895 1.428 . S
C901 N900 1.351 . S
C901 C902 1.434 1_655 S
C902 C893 1.429 . S
C902 N899 1.350 1_455 S
C902 C901 1.434 1_455 S
C903 C904 1.369 . S
C903 C905 1.419 . S
C903 H907 0.930 . S
C904 C903 1.369 . S
C904 C913 1.429 . S
C905 C903 1.419 . S
C905 C906 1.363 . S
C905 H908 0.929 . S
C906 C905 1.363 . S
C906 C912 1.428 . S
H907 C903 0.930 . S
H908 C905 0.929 . S
S909 N910 1.613 . S
S909 N911 1.610 . S
N910 S909 1.613 . S
N910 C913 1.350 . S
N911 S909 1.610 . S
N911 C912 1.351 . S
C912 C906 1.428 . S
C912 N911 1.351 . S
C912 C913 1.434 . S
C913 C904 1.429 . S
C913 N910 1.350 . S
C913 C912 1.434 . S
C914 C915 1.369 . S
C914 C916 1.419 1_545 S
C914 H918 0.930 . S
C915 C914 1.369 . S
C915 C924 1.429 . S
C916 C914 1.419 1_565 S
C916 C917 1.363 . S
C916 H919 0.929 . S
C917 C916 1.363 . S
C917 C923 1.428 . S
H918 C914 0.930 . S
H919 C916 0.929 . S
S920 N921 1.613 . S
S920 N922 1.610 1_545 S
N921 S920 1.613 . S
N921 C924 1.350 . S
N922 S920 1.610 1_565 S
N922 C923 1.351 . S
C923 C917 1.428 . S
C923 N922 1.351 . S
C923 C924 1.434 1_565 S
C924 C915 1.429 . S
C924 N921 1.350 . S
C924 C923 1.434 1_545 S
C925 C926 1.369 . S
C925 C927 1.419 1_445 S
C925 H929 0.930 . S
C926 C925 1.369 . S
C926 C935 1.429 1_455 S
C927 C925 1.419 1_665 S
C927 C928 1.362 . S
C927 H930 0.929 1_655 S
C928 C927 1.362 . S
C928 C934 1.428 . S
H929 C925 0.930 . S
H930 C927 0.929 1_455 S
S931 N932 1.613 . S
S931 N933 1.610 1_545 S
N932 S931 1.613 . S
N932 C935 1.350 . S
N933 S931 1.610 1_565 S
N933 C934 1.351 . S
C934 C928 1.428 . S
C934 N933 1.351 . S
C934 C935 1.434 1_565 S
C935 C926 1.429 1_655 S
C935 N932 1.350 . S
C935 C934 1.434 1_545 S
C936 C937 1.369 . S
C936 C938 1.432 . S
C936 H940 0.930 . S
C937 C936 1.369 . S
C937 C946 1.429 1_565 S
C938 C936 1.432 . S
C938 C939 1.349 1_565 S
C938 H941 0.931 . S
C939 C938 1.349 1_545 S
C939 C945 1.428 . S
H940 C936 0.930 . S
H941 C938 0.931 . S
S942 N943 1.613 . S
S942 N944 1.610 . S
N943 S942 1.613 . S
N943 C946 1.350 . S
N944 S942 1.610 . S
N944 C945 1.351 . S
C945 C939 1.428 . S
C945 N944 1.351 . S
C945 C946 1.434 . S
C946 C937 1.429 1_545 S
C946 N943 1.350 . S
C946 C945 1.434 . S
C947 C948 1.369 . S
C947 C949 1.419 1_565 S
C947 H951 0.930 . S
C948 C947 1.369 . S
C948 C957 1.429 1_655 S
C949 C947 1.419 1_545 S
C949 C950 1.363 1_655 S
C949 H952 0.929 . S
C950 C949 1.363 1_455 S
C950 C956 1.428 . S
H951 C947 0.930 . S
H952 C949 0.929 . S
S953 N954 1.613 . S
S953 N955 1.630 . S
N954 S953 1.613 . S
N954 C957 1.350 . S
N955 S953 1.630 . S
N955 C956 1.350 1_565 S
C956 C950 1.428 . S
C956 N955 1.350 1_545 S
C956 C957 1.434 1_545 S
C957 C948 1.429 1_455 S
C957 N954 1.350 . S
C957 C956 1.434 1_565 S
C958 C959 1.369 . S
C958 C960 1.419 1_455 S
C958 H962 0.930 . S
C959 C958 1.369 . S
C959 C968 1.429 . S
C960 C958 1.419 1_655 S
C960 C961 1.363 . S
C960 H963 0.929 . S
C961 C960 1.363 . S
C961 C967 1.428 . S
H962 C958 0.930 . S
H963 C960 0.929 . S
S964 N965 1.613 . S
S964 N966 1.610 1_455 S
N965 S964 1.613 . S
N965 C968 1.350 . S
N966 S964 1.610 1_655 S
N966 C967 1.351 . S
C967 C961 1.428 . S
C967 N966 1.351 . S
C967 C968 1.434 1_655 S
C968 C959 1.429 . S
C968 N965 1.350 . S
C968 C967 1.434 1_455 S
C969 C970 1.369 . S
C969 C971 1.419 . S
C969 H973 0.930 . S
C970 C969 1.369 . S
C970 C979 1.429 . S
C971 C969 1.419 . S
C971 C972 1.363 . S
C971 H974 0.929 . S
C972 C971 1.363 . S
C972 C978 1.428 . S
H973 C969 0.930 . S
H974 C971 0.929 . S
S975 N976 1.613 . S
S975 N977 1.610 . S
N976 S975 1.613 . S
N976 C979 1.350 . S
N977 S975 1.610 . S
N977 C978 1.351 . S
C978 C972 1.428 . S
C978 N977 1.351 . S
C978 C979 1.434 . S
C979 C970 1.429 . S
C979 N976 1.350 . S
C979 C978 1.434 . S
C980 C981 1.369 . S
C980 C982 1.419 . S
C980 H984 0.930 . S
C981 C980 1.369 . S
C981 C990 1.429 . S
C982 C980 1.419 . S
C982 C983 1.363 . S
C982 H985 0.929 . S
C983 C982 1.363 . S
C983 C989 1.428 . S
H984 C980 0.930 . S
H985 C982 0.929 . S
S986 N987 1.613 . S
S986 N988 1.610 . S
N987 S986 1.613 . S
N987 C990 1.350 . S
N988 S986 1.610 . S
N988 C989 1.351 . S
C989 C983 1.428 . S
C989 N988 1.351 . S
C989 C990 1.434 . S
C990 C981 1.429 . S
C990 N987 1.350 . S
C990 C989 1.434 . S
C991 C992 1.369 . S
C991 C993 1.419 1_565 S
C991 H995 0.930 . S
C992 C991 1.369 . S
C992 C1001 1.429 . S
C993 C991 1.419 1_545 S
C993 C994 1.363 . S
C993 H996 0.929 . S
C994 C993 1.363 . S
C994 C1000 1.428 . S
H995 C991 0.930 . S
H996 C993 0.929 . S
S997 N998 1.613 1_545 S
S997 N999 1.610 . S
N998 S997 1.613 1_565 S
N998 C1001 1.350 . S
N999 S997 1.610 . S
N999 C1000 1.351 . S
C1000 C994 1.428 . S
C1000 N999 1.351 . S
C1000 C1001 1.434 1_545 S
C1001 C992 1.429 . S
C1001 N998 1.350 . S
C1001 C1000 1.434 1_565 S
C1002 C1003 1.369 . S
C1002 C1004 1.419 1_665 S
C1002 H1006 0.930 . S
C1003 C1002 1.369 . S
C1003 C1012 1.429 . S
C1004 C1002 1.419 1_445 S
C1004 C1005 1.363 . S
C1004 H1007 0.929 . S
C1005 C1004 1.363 . S
C1005 C1011 1.428 . S
H1006 C1002 0.930 . S
H1007 C1004 0.929 . S
S1008 N1009 1.613 1_545 S
S1008 N1010 1.610 1_655 S
N1009 S1008 1.613 1_565 S
N1009 C1012 1.350 . S
N1010 S1008 1.610 1_455 S
N1010 C1011 1.351 . S
C1011 C1005 1.428 . S
C1011 N1010 1.351 . S
C1011 C1012 1.434 1_445 S
C1012 C1003 1.429 . S
C1012 N1009 1.350 . S
C1012 C1011 1.434 1_665 S
C1013 C1014 1.369 . S
C1013 C1015 1.419 . S
C1013 H1017 0.930 . S
C1014 C1013 1.369 . S
C1014 C1023 1.429 1_455 S
C1015 C1013 1.419 . S
C1015 C1016 1.363 1_455 S
C1015 H1018 0.929 . S
C1016 C1015 1.363 1_655 S
C1016 C1022 1.428 . S
H1017 C1013 0.930 . S
H1018 C1015 0.929 . S
S1019 N1020 1.613 . S
S1019 N1021 1.610 . S
N1020 S1019 1.613 . S
N1020 C1023 1.350 . S
N1021 S1019 1.610 . S
N1021 C1022 1.351 . S
C1022 C1016 1.428 . S
C1022 N1021 1.351 . S
C1022 C1023 1.434 . S
C1023 C1014 1.429 1_655 S
C1023 N1020 1.350 . S
C1023 C1022 1.434 . S
C1024 C1025 1.369 1_565 S
C1024 C1026 1.419 . S
C1024 H1028 0.930 . S
C1025 C1024 1.369 1_545 S
C1025 C1034 1.429 . S
C1026 C1024 1.419 . S
C1026 C1027 1.363 1_565 S
C1026 H1029 0.929 . S
C1027 C1026 1.363 1_545 S
C1027 C1033 1.428 . S
H1028 C1024 0.930 . S
H1029 C1026 0.929 . S
S1030 N1031 1.613 . S
S1030 N1032 1.610 . S
N1031 S1030 1.613 . S
N1031 C1034 1.350 . S
N1032 S1030 1.610 . S
N1032 C1033 1.351 . S
C1033 C1027 1.428 . S
C1033 N1032 1.351 . S
C1033 C1034 1.434 . S
C1034 C1025 1.429 . S
C1034 N1031 1.350 . S
C1034 C1033 1.434 . S
C1035 C1036 1.369 . S
C1035 C1037 1.419 . S
C1035 H1039 0.930 . S
C1036 C1035 1.369 . S
C1036 C1045 1.429 1_655 S
C1037 C1035 1.419 . S
C1037 C1038 1.363 . S
C1037 H1040 0.929 . S
C1038 C1037 1.363 . S
C1038 C1044 1.428 1_655 S
H1039 C1035 0.930 . S
H1040 C1037 0.929 . S
S1041 N1042 1.613 . S
S1041 N1043 1.610 . S
N1042 S1041 1.613 . S
N1042 C1045 1.350 . S
N1043 S1041 1.610 . S
N1043 C1044 1.351 . S
C1044 C1038 1.428 1_455 S
C1044 N1043 1.351 . S
C1044 C1045 1.434 . S
C1045 C1036 1.429 1_455 S
C1045 N1042 1.350 . S
C1045 C1044 1.434 . S
C1046 C1047 1.369 . S
C1046 C1048 1.419 . S
C1046 H1050 0.930 . S
C1047 C1046 1.369 . S
C1047 C1056 1.429 . S
C1048 C1046 1.419 . S
C1048 C1049 1.363 . S
C1048 H1051 0.929 . S
C1049 C1048 1.363 . S
C1049 C1055 1.428 . S
H1050 C1046 0.930 . S
H1051 C1048 0.929 . S
S1052 N1053 1.613 . S
S1052 N1054 1.610 . S
N1053 S1052 1.613 . S
N1053 C1056 1.350 . S
N1054 S1052 1.610 . S
N1054 C1055 1.351 . S
C1055 C1049 1.428 . S
C1055 N1054 1.351 . S
C1055 C1056 1.434 . S
C1056 C1047 1.429 . S
C1056 N1053 1.350 . S
C1056 C1055 1.434 . S
C1057 C1058 1.369 . S
C1057 C1059 1.419 . S
C1057 H1061 0.930 . S
C1058 C1057 1.369 . S
C1058 C1067 1.429 . S
C1059 C1057 1.419 . S
C1059 C1060 1.363 . S
C1059 H1062 0.929 . S
C1060 C1059 1.363 . S
C1060 C1066 1.428 . S
H1061 C1057 0.930 . S
H1062 C1059 0.929 . S
S1063 N1064 1.613 . S
S1063 N1065 1.610 . S
N1064 S1063 1.613 . S
N1064 C1067 1.350 . S
N1065 S1063 1.610 . S
N1065 C1066 1.351 . S
C1066 C1060 1.428 . S
C1066 N1065 1.351 . S
C1066 C1067 1.434 . S
C1067 C1058 1.429 . S
C1067 N1064 1.350 . S
C1067 C1066 1.434 . S
C1068 C1069 1.369 . S
C1068 C1070 1.419 . S
C1068 H1072 0.930 . S
C1069 C1068 1.369 . S
C1069 C1078 1.429 . S
C1070 C1068 1.419 . S
C1070 C1071 1.363 . S
C1070 H1073 0.929 . S
C1071 C1070 1.363 . S
C1071 C1077 1.428 . S
H1072 C1068 0.930 . S
H1073 C1070 0.929 . S
S1074 N1075 1.613 . S
S1074 N1076 1.610 . S
N1075 S1074 1.613 . S
N1075 C1078 1.350 . S
N1076 S1074 1.610 . S
N1076 C1077 1.351 . S
C1077 C1071 1.428 . S
C1077 N1076 1.351 . S
C1077 C1078 1.434 . S
C1078 C1069 1.429 . S
C1078 N1075 1.350 . S
C1078 C1077 1.434 . S
C1079 C1080 1.369 . S
C1079 C1081 1.419 . S
C1079 H1083 0.930 . S
C1080 C1079 1.369 . S
C1080 C1089 1.429 . S
C1081 C1079 1.419 . S
C1081 C1082 1.363 . S
C1081 H1084 0.929 . S
C1082 C1081 1.363 . S
C1082 C1088 1.428 . S
H1083 C1079 0.930 . S
H1084 C1081 0.929 . S
S1085 N1086 1.613 . S
S1085 N1087 1.610 . S
N1086 S1085 1.613 . S
N1086 C1089 1.350 . S
N1087 S1085 1.610 . S
N1087 C1088 1.351 . S
C1088 C1082 1.428 . S
C1088 N1087 1.351 . S
C1088 C1089 1.434 . S
C1089 C1080 1.429 . S
C1089 N1086 1.350 . S
C1089 C1088 1.434 . S
C1090 C1091 1.369 . S
C1090 C1092 1.419 . S
C1090 H1094 0.930 . S
C1091 C1090 1.369 . S
C1091 C1100 1.429 . S
C1092 C1090 1.419 . S
C1092 C1093 1.363 . S
C1092 H1095 0.929 . S
C1093 C1092 1.363 . S
C1093 C1099 1.428 . S
H1094 C1090 0.930 . S
H1095 C1092 0.929 . S
S1096 N1097 1.613 . S
S1096 N1098 1.610 . S
N1097 S1096 1.613 . S
N1097 C1100 1.350 . S
N1098 S1096 1.610 . S
N1098 C1099 1.351 . S
C1099 C1093 1.428 . S
C1099 N1098 1.351 . S
C1099 C1100 1.434 . S
C1100 C1091 1.429 . S
C1100 N1097 1.350 . S
C1100 C1099 1.434 . S
C1101 C1102 1.369 1_655 S
C1101 C1103 1.419 . S
C1101 H1105 0.930 . S
C1102 C1101 1.369 1_455 S
C1102 C1111 1.429 . S
C1103 C1101 1.419 . S
C1103 C1104 1.363 1_655 S
C1103 H1106 0.929 . S
C1104 C1103 1.363 1_455 S
C1104 C1110 1.428 . S
H1105 C1101 0.930 . S
H1106 C1103 0.929 . S
S1107 N1108 1.613 . S
S1107 N1109 1.610 . S
N1108 S1107 1.613 . S
N1108 C1111 1.350 . S
N1109 S1107 1.610 . S
N1109 C1110 1.351 . S
C1110 C1104 1.428 . S
C1110 N1109 1.351 . S
C1110 C1111 1.434 . S
C1111 C1102 1.429 . S
C1111 N1108 1.350 . S
C1111 C1110 1.434 . S
C1112 C1113 1.369 . S
C1112 C1114 1.419 . S
C1112 H1116 0.930 . S
C1113 C1112 1.369 . S
C1113 C1122 1.429 . S
C1114 C1112 1.419 . S
C1114 C1115 1.363 . S
C1114 H1117 0.929 . S
C1115 C1114 1.363 . S
C1115 C1121 1.428 . S
H1116 C1112 0.930 . S
H1117 C1114 0.929 . S
S1118 N1119 1.613 . S
S1118 N1120 1.610 . S
N1119 S1118 1.613 . S
N1119 C1122 1.350 . S
N1120 S1118 1.610 . S
N1120 C1121 1.351 . S
C1121 C1115 1.428 . S
C1121 N1120 1.351 . S
C1121 C1122 1.434 . S
C1122 C1113 1.429 . S
C1122 N1119 1.350 . S
C1122 C1121 1.434 . S
C1123 C1124 1.369 . S
C1123 C1125 1.419 . S
C1123 H1127 0.930 . S
C1124 C1123 1.369 . S
C1124 C1133 1.429 . S
C1125 C1123 1.419 . S
C1125 C1126 1.363 . S
C1125 H1128 0.929 . S
C1126 C1125 1.363 . S
C1126 C1132 1.428 . S
H1127 C1123 0.930 . S
H1128 C1125 0.929 . S
S1129 N1130 1.613 . S
S1129 N1131 1.610 . S
N1130 S1129 1.613 . S
N1130 C1133 1.350 . S
N1131 S1129 1.610 . S
N1131 C1132 1.351 . S
C1132 C1126 1.428 . S
C1132 N1131 1.351 . S
C1132 C1133 1.434 . S
C1133 C1124 1.429 . S
C1133 N1130 1.350 . S
C1133 C1132 1.434 . S
C1134 C1135 1.369 . S
C1134 C1136 1.419 . S
C1134 H1138 0.930 . S
C1135 C1134 1.369 . S
C1135 C1144 1.429 . S
C1136 C1134 1.419 . S
C1136 C1137 1.363 . S
C1136 H1139 0.929 . S
C1137 C1136 1.363 . S
C1137 C1143 1.428 . S
H1138 C1134 0.930 . S
H1139 C1136 0.929 . S
S1140 N1141 1.611 1_655 S
S1140 N1142 1.600 1_655 S
N1141 S1140 1.611 1_455 S
N1141 C1144 1.350 . S
N1142 S1140 1.600 1_455 S
N1142 C1143 1.351 . S
C1143 C1137 1.428 . S
C1143 N1142 1.351 . S
C1143 C1144 1.434 . S
C1144 C1135 1.429 . S
C1144 N1141 1.350 . S
C1144 C1143 1.434 . S
C1145 C1146 1.369 1_554 S
C1145 C1147 1.419 . S
C1145 H1149 0.930 . S
C1146 C1145 1.369 1_556 S
C1146 C1155 1.423 1_556 S
C1147 C1145 1.419 . S
C1147 C1148 1.363 . S
C1147 H1150 0.929 . S
C1148 C1147 1.363 . S
C1148 C1154 1.428 . S
H1149 C1145 0.930 . S
H1150 C1147 0.929 . S
S1151 N1152 1.613 1_554 S
S1151 N1153 1.610 . S
N1152 S1151 1.613 1_556 S
N1152 C1155 1.339 1_556 S
N1153 S1151 1.610 . S
N1153 C1154 1.351 . S
C1154 C1148 1.428 . S
C1154 N1153 1.351 . S
C1154 C1155 1.451 . S
C1155 C1146 1.423 1_554 S
C1155 N1152 1.339 1_554 S
C1155 C1154 1.451 . S
C1156 C1157 1.369 . S
C1156 C1158 1.419 . S
C1156 H1160 0.930 . S
C1157 C1156 1.369 . S
C1157 C1166 1.429 . S
C1158 C1156 1.419 . S
C1158 C1159 1.363 1_554 S
C1158 H1161 0.929 . S
C1159 C1158 1.363 1_556 S
C1159 C1165 1.428 . S
H1160 C1156 0.930 . S
H1161 C1158 0.929 . S
S1162 N1163 1.622 . S
S1162 N1164 1.610 . S
N1163 S1162 1.622 . S
N1163 C1166 1.347 1_556 S
N1164 S1162 1.610 . S
N1164 C1165 1.351 . S
C1165 C1159 1.428 . S
C1165 N1164 1.351 . S
C1165 C1166 1.434 1_556 S
C1166 C1157 1.429 . S
C1166 N1163 1.347 1_554 S
C1166 C1165 1.434 1_554 S
C1167 C1168 1.369 . S
C1167 C1169 1.419 . S
C1167 H1171 0.930 . S
C1168 C1167 1.369 . S
C1168 C1177 1.429 . S
C1169 C1167 1.419 . S
C1169 C1170 1.363 . S
C1169 H1172 0.929 . S
C1170 C1169 1.363 . S
C1170 C1176 1.428 . S
H1171 C1167 0.930 . S
H1172 C1169 0.929 . S
S1173 N1174 1.613 . S
S1173 N1175 1.610 . S
N1174 S1173 1.613 . S
N1174 C1177 1.350 . S
N1175 S1173 1.610 . S
N1175 C1176 1.351 . S
C1176 C1170 1.428 . S
C1176 N1175 1.351 . S
C1176 C1177 1.434 . S
C1177 C1168 1.429 . S
C1177 N1174 1.350 . S
C1177 C1176 1.434 . S
C1178 C1179 1.369 . S
C1178 C1180 1.419 . S
C1178 H1182 0.930 . S
C1179 C1178 1.369 . S
C1179 C1188 1.429 . S
C1180 C1178 1.419 . S
C1180 C1181 1.363 . S
C1180 H1183 0.929 . S
C1181 C1180 1.363 . S
C1181 C1187 1.428 . S
H1182 C1178 0.930 . S
H1183 C1180 0.929 . S
S1184 N1185 1.613 . S
S1184 N1186 1.610 . S
N1185 S1184 1.613 . S
N1185 C1188 1.350 . S
N1186 S1184 1.610 . S
N1186 C1187 1.351 . S
C1187 C1181 1.428 . S
C1187 N1186 1.351 . S
C1187 C1188 1.434 . S
C1188 C1179 1.429 . S
C1188 N1185 1.350 . S
C1188 C1187 1.434 . S
C1189 C1190 1.369 . S
C1189 C1191 1.419 . S
C1189 H1193 0.930 . S
C1190 C1189 1.369 . S
C1190 C1199 1.429 . S
C1191 C1189 1.419 . S
C1191 C1192 1.363 . S
C1191 H1194 0.929 . S
C1192 C1191 1.363 . S
C1192 C1198 1.428 . S
H1193 C1189 0.930 . S
H1194 C1191 0.929 . S
S1195 N1196 1.613 . S
S1195 N1197 1.610 . S
N1196 S1195 1.613 . S
N1196 C1199 1.350 . S
N1197 S1195 1.610 . S
N1197 C1198 1.351 . S
C1198 C1192 1.428 . S
C1198 N1197 1.351 . S
C1198 C1199 1.434 . S
C1199 C1190 1.429 . S
C1199 N1196 1.350 . S
C1199 C1198 1.434 . S
C849 C569 2.327 . S
C851 C39 2.321 . S
C860 C75 2.011 . S
C862 C605 2.016 . S
C871 C463 2.320 . S
C873 C145 2.326 . S
C882 C499 2.011 . S
C884 C181 2.015 . S
C893 C251 2.328 . S
C895 C781 2.323 . S
C904 C817 2.014 . S
C906 C287 2.012 . S
C915 C357 2.324 . S
C917 C675 2.324 . S
C926 C711 2.012 . S
C928 C393 2.015 . S
C937 C568 1.509 . S
C939 C38 1.513 . S
C948 C82 1.155 . S
C950 C612 1.161 . S
C959 C144 1.511 . S
C961 C462 1.514 . S
C970 C188 1.164 . S
C972 C506 1.153 . S
C981 C250 1.519 . S
C983 C780 1.508 . S
C992 C294 1.157 . S
C994 C824 1.158 . S
C1003 C674 1.511 . S
C1005 C356 1.515 . S
C1014 C718 1.152 . S
C1016 C400 1.162 . S
C1025 C22 1.929 . S
C1027 C340 1.928 . S
C1036 C92 1.816 . S
C1038 C410 1.810 . S
C1047 C128 1.931 . S
C1049 C234 1.926 . S
C1058 C198 1.816 . S
C1060 C304 1.810 . S
C1069 C446 1.933 . S
C1071 C764 1.926 . S
C1080 C834 1.816 . S
C1082 C516 1.810 . S
C1091 C552 1.932 . S
C1093 C658 1.926 . S
C1102 C728 1.808 . S
C1104 C622 1.815 . S
C1113 C29 1.916 . S
C1115 C833 1.922 . S
C1124 C665 1.910 . S
C1126 C91 1.926 . S
C1135 C727 1.926 . S
C1137 C135 1.912 . S
C1146 C771 1.911 . S
C1148 C197 1.926 . S
C1157 C515 1.928 . S
C1159 C241 1.910 . S
C1168 C559 1.909 . S
C1170 C303 1.928 . S
C1179 C347 1.916 . S
C1181 C621 1.922 . S
C1190 C409 1.921 . S
C1192 C453 1.915 . S
