# Generated by pormake.
# Topology rac, (4)-cn, num edge types: 1
# Building blocks:
#     Node 0, Type 0, BuildingBlock: KUFVIS_clean_sbu_0, # of connection points: 4
#     Node 1, Type 0, BuildingBlock: KUFVIS_clean_sbu_0, # of connection points: 4
#     Node 2, Type 0, BuildingBlock: KUFVIS_clean_sbu_0, # of connection points: 4
#     Node 3, Type 0, BuildingBlock: KUFVIS_clean_sbu_0, # of connection points: 4
#     Node 4, Type 0, BuildingBlock: KUFVIS_clean_sbu_0, # of connection points: 4
#     Node 5, Type 0, BuildingBlock: KUFVIS_clean_sbu_0, # of connection points: 4
#     Node 6, Type 0, BuildingBlock: KUFVIS_clean_sbu_0, # of connection points: 4
#     Node 7, Type 0, BuildingBlock: KUFVIS_clean_sbu_0, # of connection points: 4
#     Edge 8, Type (0, 0), BuildingBlock: XIVTED_clean_linker_0, # of connection points: 2
#     Edge 9, Type (0, 0), BuildingBlock: XIVTED_clean_linker_0, # of connection points: 2
#     Edge 10, Type (0, 0), BuildingBlock: XIVTED_clean_linker_0, # of connection points: 2
#     Edge 11, Type (0, 0), BuildingBlock: XIVTED_clean_linker_0, # of connection points: 2
#     Edge 12, Type (0, 0), BuildingBlock: XIVTED_clean_linker_0, # of connection points: 2
#     Edge 13, Type (0, 0), BuildingBlock: XIVTED_clean_linker_0, # of connection points: 2
#     Edge 14, Type (0, 0), BuildingBlock: XIVTED_clean_linker_0, # of connection points: 2
#     Edge 15, Type (0, 0), BuildingBlock: XIVTED_clean_linker_0, # of connection points: 2
#     Edge 16, Type (0, 0), BuildingBlock: XIVTED_clean_linker_0, # of connection points: 2
#     Edge 17, Type (0, 0), BuildingBlock: XIVTED_clean_linker_0, # of connection points: 2
#     Edge 18, Type (0, 0), BuildingBlock: XIVTED_clean_linker_0, # of connection points: 2
#     Edge 19, Type (0, 0), BuildingBlock: XIVTED_clean_linker_0, # of connection points: 2
#     Edge 20, Type (0, 0), BuildingBlock: XIVTED_clean_linker_0, # of connection points: 2
#     Edge 21, Type (0, 0), BuildingBlock: XIVTED_clean_linker_0, # of connection points: 2
#     Edge 22, Type (0, 0), BuildingBlock: XIVTED_clean_linker_0, # of connection points: 2
#     Edge 23, Type (0, 0), BuildingBlock: XIVTED_clean_linker_0, # of connection points: 2
# Relax obj value: 0.207
# Max RMSD: 0.071
# Mean RMSD: 0.071
data_MOF--net-rac--node1-KUFVIS_clean_sbu_0--edge1-XIVTED_clean_linker_0
_symmetry_space_group_name_H-M    P1
_symmetry_Int_Tables_number       1
_symmetry_cell_setting            triclinic
loop_
_symmetry_equiv_pos_as_xyz
'x, y, z'
_cell_length_a     41.11561
_cell_length_b     21.486111
_cell_length_c     37.045941
_cell_angle_alpha  89.999816
_cell_angle_beta   89.965163
_cell_angle_gamma 89.999997
loop_
_atom_site_label
_atom_site_type_symbol
_atom_site_fract_x
_atom_site_fract_y
_atom_site_fract_z
_atom_type_partial_charge
Mn0 Mn 0.37806 0.27489 0.05423 0.0
Mn1 Mn 0.31837 0.24863 0.11504 0.0
C2 C 0.3289 0.32522 0.04905 0.0
C3 C 0.42284 0.33831 0.03838 0.0
C4 C 0.33475 0.15832 0.05471 0.0
O5 O 0.40255 0.23647 0.09666 0.0
O6 O 0.36106 0.22661 0.13627 0.0
C7 C 0.33548 0.34168 0.17091 0.0
N8 N 0.31369 0.31819 0.1468 0.0
C9 C 0.27287 0.39173 0.16548 0.0
C10 C 0.29481 0.41642 0.19065 0.0
C11 C 0.32629 0.39144 0.19326 0.0
C12 C 0.28334 0.34192 0.14405 0.0
H13 H 0.35966 0.3225 0.17317 0.0
C14 C 0.39123 0.22332 0.12788 0.0
O15 O 0.41902 0.28347 0.02398 0.0
O16 O 0.40166 0.35423 0.06231 0.0
N17 N 0.276 0.27027 0.09764 0.0
C18 C 0.25855 0.24405 0.07033 0.0
C19 C 0.22708 0.26595 0.06291 0.0
C20 C 0.21377 0.31414 0.08384 0.0
C21 C 0.23214 0.34024 0.11189 0.0
C22 C 0.26342 0.31671 0.11791 0.0
H23 H 0.26857 0.20689 0.05423 0.0
O24 O 0.34763 0.31922 0.02111 0.0
O25 O 0.33937 0.30072 0.07883 0.0
O26 O 0.35735 0.18987 0.03919 0.0
O27 O 0.32043 0.17556 0.08354 0.0
C28 C 0.22079 0.3892 0.1338 0.0
C29 C 0.24116 0.41504 0.16051 0.0
H30 H 0.28781 0.4547 0.20801 0.0
H31 H 0.3434 0.41035 0.21255 0.0
H32 H 0.21309 0.24563 0.04117 0.0
H33 H 0.1895 0.33097 0.07802 0.0
H34 H 0.19659 0.408 0.12998 0.0
H35 H 0.23231 0.45327 0.1768 0.0
Mn36 Mn 0.12738 0.73115 0.05558 0.0
Mn37 Mn 0.18644 0.75847 0.11683 0.0
C38 C 0.17682 0.68191 0.05055 0.0
C39 C 0.08298 0.66667 0.03997 0.0
C40 C 0.17009 0.84842 0.05631 0.0
O41 O 0.10247 0.76959 0.09772 0.0
O42 O 0.14348 0.77934 0.13787 0.0
C43 C 0.16961 0.66459 0.17235 0.0
N44 N 0.1914 0.6888 0.14844 0.0
C45 C 0.23245 0.61556 0.16685 0.0
C46 C 0.21052 0.59014 0.19182 0.0
C47 C 0.17893 0.61464 0.19448 0.0
C48 C 0.22188 0.66562 0.1457 0.0
H49 H 0.14533 0.68333 0.1746 0.0
C50 C 0.1134 0.78251 0.12912 0.0
O51 O 0.08656 0.72131 0.02524 0.0
O52 O 0.10418 0.65154 0.06399 0.0
N53 N 0.22906 0.73802 0.09963 0.0
C54 C 0.24651 0.76492 0.0725 0.0
C55 C 0.27809 0.7436 0.06507 0.0
C56 C 0.2915 0.69522 0.08576 0.0
C57 C 0.27314 0.66842 0.11362 0.0
C58 C 0.24177 0.69151 0.11974 0.0
H59 H 0.23639 0.80217 0.05655 0.0
O60 O 0.15807 0.68726 0.02261 0.0
O61 O 0.16608 0.70607 0.08034 0.0
O62 O 0.14792 0.81628 0.04043 0.0
O63 O 0.18404 0.83163 0.08545 0.0
C64 C 0.28457 0.61912 0.13522 0.0
C65 C 0.26423 0.59264 0.16176 0.0
H66 H 0.2176 0.55163 0.20896 0.0
H67 H 0.16183 0.59515 0.21361 0.0
H68 H 0.29207 0.76446 0.04347 0.0
H69 H 0.31584 0.67877 0.07988 0.0
H70 H 0.30882 0.60061 0.13128 0.0
H71 H 0.27315 0.5542 0.17782 0.0
Mn72 Mn 0.37467 0.22226 0.44484 0.0
Mn73 Mn 0.31353 0.24473 0.38548 0.0
C74 C 0.3263 0.17007 0.45175 0.0
C75 C 0.42026 0.1605 0.45977 0.0
C76 C 0.33033 0.33728 0.44451 0.0
O77 O 0.39781 0.26069 0.40153 0.0
O78 O 0.35557 0.26775 0.3627 0.0
C79 C 0.32992 0.1517 0.32936 0.0
N80 N 0.30876 0.17418 0.3545 0.0
C81 C 0.2687 0.0972 0.33873 0.0
C82 C 0.28991 0.0738 0.31236 0.0
C83 C 0.3207 0.10098 0.30779 0.0
C84 C 0.279 0.14852 0.35901 0.0
H85 H 0.35358 0.17252 0.32561 0.0
C86 C 0.38586 0.27242 0.37043 0.0
O87 O 0.41632 0.21544 0.47401 0.0
O88 O 0.39877 0.14364 0.43648 0.0
N89 N 0.27192 0.2218 0.40461 0.0
C90 C 0.25501 0.2479 0.4324 0.0
C91 C 0.22445 0.22372 0.44188 0.0
C92 C 0.21152 0.17317 0.42262 0.0
C93 C 0.22929 0.14724 0.39402 0.0
C94 C 0.25961 0.17337 0.38576 0.0
H95 H 0.26483 0.28657 0.4474 0.0
O96 O 0.3455 0.17758 0.47914 0.0
O97 O 0.33584 0.19435 0.42149 0.0
O98 O 0.35346 0.30689 0.45981 0.0
O99 O 0.31563 0.31873 0.41621 0.0
C100 C 0.21836 0.09582 0.37381 0.0
C101 C 0.23797 0.07108 0.34606 0.0
H102 H 0.28286 0.03493 0.29551 0.0
H103 H 0.33725 0.08299 0.2876 0.0
H104 H 0.21093 0.24391 0.46405 0.0
H105 H 0.18803 0.15441 0.43015 0.0
H106 H 0.19503 0.07459 0.37958 0.0
H107 H 0.22933 0.03148 0.33084 0.0
Mn108 Mn 0.12425 0.76652 0.44361 0.0
Mn109 Mn 0.18441 0.73895 0.38359 0.0
C110 C 0.1739 0.81443 0.45018 0.0
C111 C 0.07981 0.83092 0.45914 0.0
C112 C 0.16608 0.64812 0.44291 0.0
O113 O 0.09999 0.72976 0.40053 0.0
O114 O 0.14175 0.72005 0.36125 0.0
C115 C 0.17017 0.83349 0.32763 0.0
N116 N 0.19089 0.80878 0.35247 0.0
C117 C 0.23361 0.87893 0.3347 0.0
C118 C 0.21283 0.90467 0.30867 0.0
C119 C 0.18091 0.88211 0.30528 0.0
C120 C 0.22164 0.83024 0.356 0.0
H121 H 0.14571 0.81593 0.32465 0.0
C122 C 0.11147 0.71743 0.36928 0.0
O123 O 0.08297 0.77565 0.47317 0.0
O124 O 0.10146 0.8468 0.43573 0.0
N125 N 0.22677 0.75747 0.40218 0.0
C126 C 0.24319 0.72971 0.42977 0.0
C127 C 0.27485 0.74944 0.4381 0.0
C128 C 0.28944 0.79702 0.41776 0.0
C129 C 0.27213 0.82467 0.38938 0.0
C130 C 0.24056 0.80339 0.38249 0.0
H131 H 0.23219 0.69299 0.44542 0.0
O132 O 0.15453 0.8088 0.47761 0.0
O133 O 0.16364 0.79148 0.41986 0.0
O134 O 0.14393 0.68056 0.45858 0.0
O135 O 0.18065 0.66521 0.41423 0.0
C136 C 0.28487 0.87287 0.36786 0.0
C137 C 0.26566 0.89985 0.34049 0.0
H138 H 0.22108 0.94189 0.2912 0.0
H139 H 0.1647 0.90187 0.28533 0.0
H140 H 0.28802 0.7279 0.46009 0.0
H141 H 0.31388 0.81212 0.42426 0.0
H142 H 0.30933 0.88997 0.37234 0.0
H143 H 0.27571 0.93698 0.32427 0.0
Mn144 Mn 0.62696 0.73311 0.94474 0.0
Mn145 Mn 0.68777 0.76072 0.88554 0.0
C146 C 0.6766 0.68556 0.95212 0.0
C147 C 0.58237 0.66866 0.95973 0.0
C148 C 0.66858 0.85177 0.9444 0.0
O149 O 0.60317 0.76955 0.90124 0.0
O150 O 0.64535 0.77904 0.86251 0.0
C151 C 0.67452 0.6657 0.82954 0.0
N152 N 0.69484 0.69075 0.85468 0.0
C153 C 0.73804 0.62115 0.8376 0.0
C154 C 0.71769 0.59508 0.81127 0.0
C155 C 0.68572 0.61718 0.8074 0.0
C156 C 0.72563 0.66971 0.85868 0.0
H157 H 0.65004 0.68293 0.82618 0.0
C158 C 0.61499 0.78163 0.87012 0.0
O159 O 0.58535 0.72401 0.97371 0.0
O160 O 0.60432 0.65267 0.93667 0.0
N161 N 0.72994 0.74275 0.90482 0.0
C162 C 0.74594 0.77087 0.9326 0.0
C163 C 0.77757 0.7516 0.94142 0.0
C164 C 0.79257 0.70413 0.92136 0.0
C165 C 0.7757 0.67613 0.89278 0.0
C166 C 0.74413 0.69692 0.88542 0.0
H167 H 0.73464 0.80752 0.94802 0.0
O168 O 0.65689 0.69115 0.97925 0.0
O169 O 0.66666 0.70828 0.92161 0.0
O170 O 0.64635 0.81923 0.95986 0.0
O171 O 0.68345 0.83466 0.91592 0.0
C172 C 0.78888 0.62804 0.8715 0.0
C173 C 0.7701 0.60072 0.84388 0.0
H174 H 0.72629 0.55794 0.79397 0.0
H175 H 0.66983 0.59714 0.78723 0.0
H176 H 0.7904 0.77342 0.96356 0.0
H177 H 0.817 0.6894 0.92823 0.0
H178 H 0.81335 0.61132 0.87635 0.0
H179 H 0.78051 0.56371 0.82784 0.0
Mn180 Mn 0.877 0.27729 0.9462 0.0
Mn181 Mn 0.81449 0.25548 0.88852 0.0
C182 C 0.82897 0.33017 0.9543 0.0
C183 C 0.92309 0.33879 0.9597 0.0
C184 C 0.83227 0.16282 0.94714 0.0
O185 O 0.89904 0.23837 0.90235 0.0
O186 O 0.85593 0.2318 0.86467 0.0
C187 C 0.82997 0.34806 0.83183 0.0
N188 N 0.8093 0.32601 0.85759 0.0
C189 C 0.76915 0.40333 0.84272 0.0
C190 C 0.78982 0.42628 0.81572 0.0
C191 C 0.82043 0.39873 0.81039 0.0
C192 C 0.77974 0.35205 0.86285 0.0
H193 H 0.85347 0.32693 0.82749 0.0
C194 C 0.88636 0.22668 0.8716 0.0
O195 O 0.91932 0.28405 0.97425 0.0
O196 O 0.90111 0.35559 0.93696 0.0
N197 N 0.77339 0.27906 0.90873 0.0
C198 C 0.75698 0.25326 0.93699 0.0
C199 C 0.72671 0.27783 0.94722 0.0
C200 C 0.71353 0.32843 0.92821 0.0
C201 C 0.73078 0.35403 0.89913 0.0
C202 C 0.76084 0.32756 0.89014 0.0
H203 H 0.76699 0.21453 0.95177 0.0
O204 O 0.84871 0.32254 0.9812 0.0
O205 O 0.83778 0.30556 0.92387 0.0
O206 O 0.85585 0.1929 0.96181 0.0
O207 O 0.81699 0.18159 0.91927 0.0
C208 C 0.71956 0.40543 0.87909 0.0
C209 C 0.73864 0.4298 0.85078 0.0
H210 H 0.7825 0.46506 0.79893 0.0
H211 H 0.83658 0.41638 0.7897 0.0
H212 H 0.71359 0.25788 0.96975 0.0
H213 H 0.69025 0.34747 0.9363 0.0
H214 H 0.6964 0.42691 0.8854 0.0
H215 H 0.72979 0.46938 0.83571 0.0
Mn216 Mn 0.62661 0.77146 0.55276 0.0
Mn217 Mn 0.68873 0.75101 0.61109 0.0
C218 C 0.67454 0.82474 0.54485 0.0
C219 C 0.58048 0.83222 0.53847 0.0
C220 C 0.6716 0.65741 0.55275 0.0
O221 O 0.60436 0.73278 0.5966 0.0
O222 O 0.6472 0.72748 0.63471 0.0
C223 C 0.67284 0.84426 0.66725 0.0
N224 N 0.69365 0.82199 0.6417 0.0
C225 C 0.73368 0.89958 0.65653 0.0
C226 C 0.71284 0.92278 0.68331 0.0
C227 C 0.68223 0.8952 0.68856 0.0
C228 C 0.72323 0.84804 0.63654 0.0
H229 H 0.64935 0.82307 0.67155 0.0
C230 C 0.61685 0.72176 0.62752 0.0
O231 O 0.58452 0.77727 0.52428 0.0
O232 O 0.60218 0.84959 0.5614 0.0
N233 N 0.72991 0.77441 0.59105 0.0
C234 C 0.7465 0.74824 0.56304 0.0
C235 C 0.77682 0.77274 0.55292 0.0
C236 C 0.78985 0.82365 0.57179 0.0
C237 C 0.77241 0.84963 0.60061 0.0
C238 C 0.74231 0.82322 0.6095 0.0
H239 H 0.73661 0.70925 0.54836 0.0
O240 O 0.65501 0.81659 0.51783 0.0
O241 O 0.66559 0.80047 0.57532 0.0
O242 O 0.64817 0.68722 0.53761 0.0
O243 O 0.6865 0.67662 0.58076 0.0
C244 C 0.78348 0.90132 0.6205 0.0
C245 C 0.76421 0.926 0.64857 0.0
H246 H 0.72005 0.96176 0.7 0.0
H247 H 0.66597 0.91301 0.70909 0.0
H248 H 0.79009 0.7525 0.53058 0.0
H249 H 0.81317 0.84263 0.56378 0.0
H250 H 0.80666 0.92276 0.61427 0.0
H251 H 0.77296 0.96577 0.66354 0.0
Mn252 Mn 0.87664 0.22733 0.55296 0.0
Mn253 Mn 0.81584 0.25598 0.61206 0.0
C254 C 0.82684 0.18029 0.5457 0.0
C255 C 0.92098 0.16241 0.5379 0.0
C256 C 0.83532 0.34639 0.55299 0.0
O257 O 0.90055 0.26348 0.59643 0.0
O258 O 0.85831 0.2745 0.63497 0.0
C259 C 0.82913 0.16166 0.66845 0.0
N260 N 0.80877 0.18643 0.64325 0.0
C261 C 0.76556 0.11719 0.66075 0.0
C262 C 0.78594 0.09145 0.68717 0.0
C263 C 0.81793 0.11349 0.69085 0.0
C264 C 0.77797 0.16541 0.63941 0.0
H265 H 0.85363 0.17885 0.67167 0.0
C266 C 0.88871 0.27632 0.62745 0.0
O267 O 0.91818 0.2178 0.52396 0.0
O268 O 0.89901 0.14662 0.56099 0.0
N269 N 0.77362 0.23781 0.59295 0.0
C270 C 0.75761 0.26553 0.56505 0.0
C271 C 0.72595 0.24618 0.55637 0.0
C272 C 0.71095 0.19904 0.57668 0.0
C273 C 0.72785 0.17143 0.60538 0.0
C274 C 0.75944 0.19229 0.61259 0.0
H275 H 0.76891 0.30192 0.54944 0.0
O276 O 0.84651 0.18568 0.51852 0.0
O277 O 0.83686 0.20305 0.57617 0.0
O278 O 0.85764 0.31372 0.53782 0.0
O279 O 0.82014 0.3295 0.58132 0.0
C280 C 0.71468 0.12368 0.62692 0.0
C281 C 0.73348 0.09673 0.65464 0.0
H282 H 0.77734 0.0546 0.70468 0.0
H283 H 0.83384 0.09369 0.71108 0.0
H284 H 0.71311 0.26768 0.53414 0.0
H285 H 0.68652 0.18424 0.56993 0.0
H286 H 0.6902 0.10692 0.62219 0.0
H287 H 0.72308 0.05999 0.67088 0.0
H288 H 0.33245 0.042 0.08227 0.0
H289 H 0.20172 0.85545 0.99134 0.0
H290 H 0.29936 0.15195 0.99235 0.0
H291 H 0.17705 0.9629 0.08556 0.0
H292 H 0.2469 0.92826 0.97901 0.0
H293 H 0.28812 0.96816 0.07118 0.0
C294 C 0.317 0.0487 0.05889 0.0
C295 C 0.32005 0.10261 0.03778 0.0
C296 C 0.23065 0.9371 0.00145 0.0
C297 C 0.26858 0.01946 0.02585 0.0
C298 C 0.20453 0.89632 0.00817 0.0
C299 C 0.18518 0.90372 0.03923 0.0
C300 C 0.23733 0.98501 0.02611 0.0
C301 C 0.19097 0.95601 0.06106 0.0
C302 C 0.29143 0.00713 0.05297 0.0
C303 C 0.29839 0.11016 0.00866 0.0
N304 N 0.21692 0.99366 0.0546 0.0
N305 N 0.27299 0.06984 0.00401 0.0
H306 H 0.19661 0.63873 0.50841 0.0
H307 H 0.32718 0.45228 0.4154 0.0
H308 H 0.17283 0.53432 0.41281 0.0
H309 H 0.29582 0.34583 0.50752 0.0
H310 H 0.28268 0.52582 0.42616 0.0
H311 H 0.24168 0.56556 0.52041 0.0
C312 C 0.19956 0.59838 0.49119 0.0
C313 C 0.18054 0.59207 0.45982 0.0
C314 C 0.28639 0.48772 0.44488 0.0
C315 C 0.23265 0.51052 0.47251 0.0
C316 C 0.31208 0.44635 0.43914 0.0
C317 C 0.31566 0.39344 0.46099 0.0
C318 C 0.26398 0.47627 0.47261 0.0
C319 C 0.29444 0.38686 0.49061 0.0
C320 C 0.22564 0.55744 0.49771 0.0
C321 C 0.18651 0.54041 0.43754 0.0
N322 N 0.26894 0.42703 0.49515 0.0
N323 N 0.21247 0.50273 0.44377 0.0
H324 H 0.69838 0.86143 0.01029 0.0
H325 H 0.82994 0.04741 0.91852 0.0
H326 H 0.67563 0.96547 0.91425 0.0
H327 H 0.79756 0.15442 0.00996 0.0
H328 H 0.78546 0.97368 0.92899 0.0
H329 H 0.7434 0.9345 0.02271 0.0
C330 C 0.70154 0.90169 0.99304 0.0
C331 C 0.68284 0.9079 0.96142 0.0
C332 C 0.78896 0.01195 0.94765 0.0
C333 C 0.73491 0.98932 0.97461 0.0
C334 C 0.81464 0.0534 0.9421 0.0
C335 C 0.81791 0.10655 0.9638 0.0
C336 C 0.76624 0.02354 0.97506 0.0
C337 C 0.79642 0.11323 0.99317 0.0
C338 C 0.7276 0.94257 0.9998 0.0
C339 C 0.68906 0.95945 0.93914 0.0
N340 N 0.77093 0.07299 0.99752 0.0
N341 N 0.715 0.99707 0.94562 0.0
H342 H 0.70233 0.64741 0.48735 0.0
H343 H 0.83308 0.46192 0.58153 0.0
H344 H 0.67917 0.5447 0.58379 0.0
H345 H 0.80204 0.35558 0.48928 0.0
H346 H 0.78889 0.53588 0.57039 0.0
H347 H 0.74767 0.5746 0.47568 0.0
C348 C 0.70551 0.60749 0.50486 0.0
C349 C 0.68653 0.60145 0.5363 0.0
C350 C 0.79263 0.49773 0.55172 0.0
C351 C 0.73895 0.52046 0.524 0.0
C352 C 0.81817 0.45614 0.55765 0.0
C353 C 0.82164 0.40298 0.53598 0.0
C354 C 0.77031 0.48633 0.52391 0.0
C355 C 0.8007 0.39669 0.50612 0.0
C356 C 0.73173 0.56676 0.49851 0.0
C357 C 0.69279 0.55047 0.55897 0.0
N358 N 0.77532 0.43705 0.5014 0.0
N359 N 0.71888 0.51302 0.5529 0.0
H360 H 0.43353 0.31188 0.14877 0.0
H361 H 0.43138 0.18851 0.35093 0.0
H362 H 0.39603 0.13201 0.17883 0.0
H363 H 0.38736 0.3612 0.31769 0.0
H364 H 0.4504 0.17201 0.28881 0.0
H365 H 0.44905 0.33011 0.21184 0.0
C366 C 0.43049 0.2746 0.1682 0.0
C367 C 0.41359 0.22025 0.15874 0.0
C368 C 0.43797 0.21488 0.29564 0.0
C369 C 0.43129 0.24078 0.23037 0.0
C370 C 0.42739 0.22471 0.33104 0.0
C371 C 0.40793 0.27646 0.33929 0.0
C372 C 0.42971 0.25801 0.26881 0.0
C373 C 0.4025 0.321 0.31234 0.0
C374 C 0.43898 0.28544 0.20416 0.0
C375 C 0.40923 0.17426 0.18512 0.0
N376 N 0.41304 0.31044 0.27809 0.0
N377 N 0.41761 0.1859 0.21996 0.0
H378 H 0.10826 0.62903 0.31668 0.0
H379 H 0.10999 0.87148 0.1814 0.0
H380 H 0.06773 0.80482 0.34983 0.0
H381 H 0.06847 0.69682 0.14781 0.0
H382 H 0.09042 0.85209 0.24282 0.0
H383 H 0.08964 0.64914 0.25499 0.0
C384 C 0.09396 0.67035 0.31127 0.0
C385 C 0.08925 0.71511 0.33826 0.0
C386 C 0.08428 0.81931 0.22167 0.0
C387 C 0.06962 0.74002 0.26772 0.0
C388 C 0.09527 0.83062 0.18662 0.0
C389 C 0.09059 0.78588 0.15961 0.0
C390 C 0.06988 0.76174 0.22989 0.0
C391 C 0.07218 0.73274 0.1679 0.0
C392 C 0.0835 0.68205 0.27608 0.0
C393 C 0.07142 0.76886 0.32974 0.0
N394 N 0.06357 0.72087 0.20269 0.0
N395 N 0.06332 0.78104 0.29485 0.0
H396 H 0.61123 0.87096 0.81809 0.0
H397 H 0.61713 0.63295 0.68005 0.0
H398 H 0.57278 0.69251 0.84944 0.0
H399 H 0.57109 0.80441 0.64817 0.0
H400 H 0.59814 0.64991 0.742 0.0
H401 H 0.59345 0.85129 0.756 0.0
C402 C 0.59755 0.82907 0.81219 0.0
C403 C 0.59313 0.78353 0.8388 0.0
C404 C 0.59096 0.68244 0.72112 0.0
C405 C 0.57456 0.75922 0.76785 0.0
C406 C 0.60165 0.67255 0.68581 0.0
C407 C 0.59534 0.71705 0.65909 0.0
C408 C 0.57525 0.73848 0.72987 0.0
C409 C 0.576 0.76864 0.66804 0.0
C410 C 0.58759 0.81764 0.77679 0.0
C411 C 0.57617 0.72907 0.82966 0.0
N412 N 0.56764 0.77926 0.70303 0.0
N413 N 0.56858 0.71726 0.79459 0.0
H414 H 0.9299 0.18593 0.64858 0.0
H415 H 0.93172 0.30986 0.85067 0.0
H416 H 0.89344 0.36633 0.67918 0.0
H417 H 0.88636 0.13754 0.81907 0.0
H418 H 0.94932 0.32579 0.788 0.0
H419 H 0.94583 0.16724 0.71151 0.0
C420 C 0.92709 0.2231 0.66811 0.0
C421 C 0.9105 0.27789 0.65884 0.0
C422 C 0.9369 0.28312 0.79527 0.0
C423 C 0.92869 0.25688 0.73027 0.0
C424 C 0.92714 0.27361 0.83097 0.0
C425 C 0.90772 0.22214 0.83989 0.0
C426 C 0.92786 0.23994 0.76877 0.0
C427 C 0.9015 0.17752 0.81319 0.0
C428 C 0.93584 0.21205 0.70397 0.0
C429 C 0.90641 0.32377 0.68533 0.0
N430 N 0.91126 0.18776 0.77863 0.0
N431 N 0.91509 0.31196 0.72006 0.0
H432 H 0.46741 0.33032 0.9824 0.0
H433 H 0.53681 0.67696 0.01456 0.0
H434 H 0.43567 0.45125 0.06847 0.0
H435 H 0.57052 0.55492 0.92995 0.0
H436 H 0.49868 0.59548 0.03401 0.0
H437 H 0.50553 0.41174 0.96263 0.0
C438 C 0.46863 0.37361 0.99731 0.0
C439 C 0.44826 0.38375 0.02713 0.0
C440 C 0.51437 0.58666 0.01109 0.0
C441 C 0.49151 0.47755 0.00449 0.0
C442 C 0.53601 0.63339 0.99989 0.0
C443 C 0.55695 0.62296 0.9706 0.0
C444 C 0.51362 0.52905 0.99287 0.0
C445 C 0.55493 0.56521 0.95274 0.0
C446 C 0.49027 0.42028 0.98594 0.0
C447 C 0.45081 0.44114 0.04528 0.0
N448 N 0.53382 0.52061 0.96417 0.0
N449 N 0.47185 0.48567 0.03366 0.0
H450 H 0.06879 0.55679 0.07293 0.0
H451 H 0.93851 0.44701 0.92568 0.0
H452 H 0.04034 0.66977 0.982 0.0
H453 H 0.96643 0.33449 0.01699 0.0
H454 H 0.97638 0.52741 0.94512 0.0
H455 H 0.0316 0.47562 0.05295 0.0
C456 C 0.05453 0.56485 0.0488 0.0
C457 C 0.0578 0.62053 0.02911 0.0
C458 C 0.97444 0.48514 0.96089 0.0
C459 C 0.01504 0.52655 0.0058 0.0
C460 C 0.95284 0.43885 0.94974 0.0
C461 C 0.94915 0.38362 0.96976 0.0
C462 C 0.99267 0.47673 0.99248 0.0
C463 C 0.96851 0.37603 0.00063 0.0
C464 C 0.03331 0.51813 0.03735 0.0
C465 C 0.03857 0.6279 0.99812 0.0
N466 N 0.9893 0.42218 0.01113 0.0
N467 N 0.01812 0.58138 0.98736 0.0
H468 H 0.53657 0.82437 0.48195 0.0
H469 H 0.46401 0.16799 0.51646 0.0
H470 H 0.56575 0.94289 0.5702 0.0
H471 H 0.43459 0.04932 0.42838 0.0
H472 H 0.50207 0.08658 0.53627 0.0
H473 H 0.49831 0.90555 0.46228 0.0
C474 C 0.53469 0.867 0.4974 0.0
C475 C 0.55445 0.87666 0.52773 0.0
C476 C 0.48734 0.07854 0.5125 0.0
C477 C 0.51111 0.97024 0.50519 0.0
C478 C 0.46578 0.12525 0.50109 0.0
C479 C 0.44603 0.11565 0.47074 0.0
C480 C 0.48916 0.02182 0.49343 0.0
C481 C 0.44923 0.05893 0.45201 0.0
C482 C 0.51302 0.91359 0.48606 0.0
C483 C 0.55112 0.93325 0.54657 0.0
N484 N 0.47019 0.01434 0.46367 0.0
N485 N 0.53007 0.97774 0.53497 0.0
H486 H 0.96691 0.1709 0.48346 0.0
H487 H 0.03431 0.82246 0.51411 0.0
H488 H 0.93213 0.04796 0.56709 0.0
H489 H 0.0682 0.94503 0.42984 0.0
H490 H 0.99633 0.90411 0.53384 0.0
H491 H 0.00488 0.08921 0.4639 0.0
C492 C 0.96743 0.12707 0.49789 0.0
C493 C 0.94626 0.11647 0.52695 0.0
C494 C 0.01204 0.91298 0.51094 0.0
C495 C 0.98939 0.02234 0.50454 0.0
C496 C 0.03359 0.86618 0.49959 0.0
C497 C 0.05452 0.8767 0.47029 0.0
C498 C 0.01141 0.97075 0.49288 0.0
C499 C 0.05261 0.93462 0.45262 0.0
C500 C 0.98899 0.08024 0.48663 0.0
C501 C 0.94792 0.05841 0.5445 0.0
N502 N 0.03162 0.97927 0.4642 0.0
N503 N 0.96895 0.01372 0.53301 0.0
H504 H 0.1823 0.59178 0.10027 0.0
H505 H 0.32453 0.41506 0.0991 0.0
H506 H 0.22253 0.65507 0.99927 0.0
H507 H 0.28337 0.35461 0.99802 0.0
H508 H 0.28692 0.50281 0.09982 0.0
H509 H 0.22064 0.50524 0.10026 0.0
C510 C 0.19988 0.58817 0.07859 0.0
C511 C 0.20098 0.63234 0.05092 0.0
C512 C 0.28611 0.47017 0.07762 0.0
C513 C 0.24226 0.53078 0.04906 0.0
C514 C 0.30694 0.41961 0.07752 0.0
C515 C 0.30535 0.37589 0.04963 0.0
C516 C 0.2648 0.47856 0.04869 0.0
C517 C 0.28419 0.38646 0.02065 0.0
C518 C 0.22111 0.53824 0.07825 0.0
C519 C 0.2221 0.62287 0.02175 0.0
N520 N 0.26448 0.43727 0.02085 0.0
N521 N 0.24213 0.57254 0.02145 0.0
H522 H 0.32242 0.07803 0.40296 0.0
H523 H 0.21827 0.83606 0.50338 0.0
H524 H 0.28172 0.14089 0.50384 0.0
H525 H 0.18308 0.90565 0.40148 0.0
H526 H 0.2562 0.92515 0.50652 0.0
H527 H 0.2853 0.98933 0.40369 0.0
C528 C 0.30513 0.07361 0.42488 0.0
C529 C 0.30341 0.11832 0.45225 0.0
C530 C 0.24034 0.91985 0.48338 0.0
C531 C 0.26363 0.01472 0.45486 0.0
C532 C 0.21914 0.8693 0.48141 0.0
C533 C 0.19898 0.86235 0.45122 0.0
C534 C 0.2411 0.96261 0.45488 0.0
C535 C 0.19974 0.90757 0.42405 0.0
C536 C 0.28459 0.0226 0.42558 0.0
C537 C 0.28262 0.1082 0.48162 0.0
N538 N 0.22096 0.95549 0.42617 0.0
N539 N 0.26323 0.05698 0.48223 0.0
H540 H 0.72049 0.66452 0.00593 0.0
H541 H 0.82497 0.422 0.90547 0.0
H542 H 0.68646 0.59428 0.90369 0.0
H543 H 0.78526 0.36057 0.00714 0.0
H544 H 0.78811 0.51102 0.9064 0.0
H545 H 0.7587 0.57589 0.00956 0.0
C546 C 0.72166 0.63123 0.984 0.0
C547 C 0.70177 0.63787 0.95357 0.0
C548 C 0.7876 0.47806 0.92846 0.0
C549 C 0.7442 0.53818 0.95777 0.0
C550 C 0.80799 0.42687 0.92766 0.0
C551 C 0.80642 0.38243 0.95517 0.0
C552 C 0.7669 0.48635 0.95793 0.0
C553 C 0.78602 0.39306 0.98482 0.0
C554 C 0.74303 0.58095 0.98625 0.0
C555 C 0.70291 0.59261 0.92646 0.0
N556 N 0.76671 0.44441 0.98547 0.0
N557 N 0.72427 0.54499 0.92885 0.0
H558 H 0.67832 0.91731 0.59326 0.0
H559 H 0.78295 0.15858 0.49196 0.0
H560 H 0.71845 0.85438 0.49211 0.0
H561 H 0.81696 0.08959 0.59449 0.0
H562 H 0.74471 0.06995 0.48871 0.0
H563 H 0.71512 0.00646 0.592 0.0
C564 C 0.69538 0.92189 0.57113 0.0
C565 C 0.69708 0.87701 0.54386 0.0
C566 C 0.76038 0.07529 0.51201 0.0
C567 C 0.73652 0.98102 0.5407 0.0
C568 C 0.78177 0.12557 0.51402 0.0
C569 C 0.80167 0.13258 0.54442 0.0
C570 C 0.7592 0.03289 0.54067 0.0
C571 C 0.80051 0.08766 0.57173 0.0
C572 C 0.71573 0.97313 0.57013 0.0
C573 C 0.71758 0.88723 0.51425 0.0
N574 N 0.77913 0.04004 0.56955 0.0
N575 N 0.73685 0.93862 0.5134 0.0
loop_
_geom_bond_atom_site_label_1
_geom_bond_atom_site_label_2
_geom_bond_distance
_geom_bond_site_symmetry_2
_ccdc_geom_bond_type
Mn0 O5 2.095 . S
Mn0 O15 2.162 . S
Mn0 O16 2.297 . S
Mn0 O24 2.385 1_554 S
Mn0 O25 2.209 . S
Mn0 O26 2.094 . S
Mn1 O6 2.121 . S
Mn1 N8 2.257 . S
Mn1 N17 2.282 . S
Mn1 O25 2.215 . S
Mn1 O27 2.117 . S
C2 O24 1.234 1_554 S
C2 O25 1.283 . S
C3 O15 1.281 . S
C3 O16 1.236 . S
C4 O26 1.240 . S
C4 O27 1.264 . S
O5 Mn0 2.095 . S
O5 C14 1.250 . S
O6 Mn1 2.121 . S
O6 C14 1.258 . S
C7 N8 1.326 . S
C7 C11 1.460 . S
C7 H13 0.929 . S
N8 Mn1 2.257 . S
N8 C7 1.326 . S
N8 C12 1.362 . S
C9 C10 1.258 . S
C9 C12 1.431 . S
C9 C29 1.449 . S
C10 C9 1.258 . S
C10 C11 1.477 . S
C10 H30 0.931 . S
C11 C7 1.460 . S
C11 C10 1.477 . S
C11 H31 0.930 . S
C12 N8 1.362 . S
C12 C9 1.431 . S
C12 C22 1.476 . S
H13 C7 0.929 . S
C14 O5 1.250 . S
C14 O6 1.258 . S
O15 Mn0 2.162 . S
O15 C3 1.281 . S
O16 Mn0 2.297 . S
O16 C3 1.236 . S
N17 Mn1 2.282 . S
N17 C18 1.328 . S
N17 C22 1.318 . S
C18 N17 1.328 . S
C18 C19 1.457 . S
C18 H23 0.929 . S
C19 C18 1.457 . S
C19 C20 1.291 . S
C19 H32 0.931 1_554 S
C20 C19 1.291 . S
C20 C21 1.373 . S
C20 H33 0.929 . S
C21 C20 1.373 . S
C21 C22 1.396 . S
C21 C28 1.403 . S
C22 C12 1.476 . S
C22 N17 1.318 . S
C22 C21 1.396 . S
H23 C18 0.929 . S
O24 Mn0 2.385 1_556 S
O24 C2 1.234 1_556 S
O25 Mn0 2.209 . S
O25 Mn1 2.215 . S
O25 C2 1.283 . S
O26 Mn0 2.094 . S
O26 C4 1.240 . S
O27 Mn1 2.117 . S
O27 C4 1.264 . S
C28 C21 1.403 . S
C28 C29 1.399 . S
C28 H34 0.929 . S
C29 C9 1.449 . S
C29 C28 1.399 . S
C29 H35 0.930 . S
H30 C10 0.931 . S
H31 C11 0.930 . S
H32 C19 0.931 1_556 S
H33 C20 0.929 . S
H34 C28 0.929 . S
H35 C29 0.930 . S
Mn36 O41 2.095 . S
Mn36 O51 2.162 . S
Mn36 O52 2.297 . S
Mn36 O60 2.385 1_554 S
Mn36 O61 2.209 . S
Mn36 O62 2.094 . S
Mn37 O42 2.121 . S
Mn37 N44 2.257 . S
Mn37 N53 2.282 . S
Mn37 O61 2.215 . S
Mn37 O63 2.117 . S
C38 O60 1.234 1_554 S
C38 O61 1.283 . S
C39 O51 1.281 . S
C39 O52 1.236 . S
C40 O62 1.240 . S
C40 O63 1.264 . S
O41 Mn36 2.095 . S
O41 C50 1.250 . S
O42 Mn37 2.121 . S
O42 C50 1.258 . S
C43 N44 1.326 . S
C43 C47 1.460 . S
C43 H49 0.929 . S
N44 Mn37 2.257 . S
N44 C43 1.326 . S
N44 C48 1.362 . S
C45 C46 1.258 . S
C45 C48 1.431 . S
C45 C65 1.449 . S
C46 C45 1.258 . S
C46 C47 1.477 . S
C46 H66 0.931 . S
C47 C43 1.460 . S
C47 C46 1.477 . S
C47 H67 0.930 . S
C48 N44 1.362 . S
C48 C45 1.431 . S
C48 C58 1.476 . S
H49 C43 0.929 . S
C50 O41 1.250 . S
C50 O42 1.258 . S
O51 Mn36 2.162 . S
O51 C39 1.281 . S
O52 Mn36 2.297 . S
O52 C39 1.236 . S
N53 Mn37 2.282 . S
N53 C54 1.328 . S
N53 C58 1.318 . S
C54 N53 1.328 . S
C54 C55 1.457 . S
C54 H59 0.929 . S
C55 C54 1.457 . S
C55 C56 1.291 . S
C55 H68 0.931 1_554 S
C56 C55 1.291 . S
C56 C57 1.373 . S
C56 H69 0.929 . S
C57 C56 1.373 . S
C57 C58 1.396 . S
C57 C64 1.403 . S
C58 C48 1.476 . S
C58 N53 1.318 . S
C58 C57 1.396 . S
H59 C54 0.929 . S
O60 Mn36 2.385 1_556 S
O60 C38 1.234 1_556 S
O61 Mn36 2.209 . S
O61 Mn37 2.215 . S
O61 C38 1.283 . S
O62 Mn36 2.094 . S
O62 C40 1.240 . S
O63 Mn37 2.117 . S
O63 C40 1.264 . S
C64 C57 1.403 . S
C64 C65 1.399 . S
C64 H70 0.929 . S
C65 C45 1.449 . S
C65 C64 1.399 . S
C65 H71 0.930 . S
H66 C46 0.931 . S
H67 C47 0.930 . S
H68 C55 0.931 1_556 S
H69 C56 0.929 . S
H70 C64 0.929 . S
H71 C65 0.930 . S
Mn72 O77 2.095 . S
Mn72 O87 2.162 . S
Mn72 O88 2.297 . S
Mn72 O96 2.385 . S
Mn72 O97 2.209 . S
Mn72 O98 2.094 . S
Mn73 O78 2.121 . S
Mn73 N80 2.257 . S
Mn73 N89 2.282 . S
Mn73 O97 2.215 . S
Mn73 O99 2.117 . S
C74 O96 1.234 . S
C74 O97 1.283 . S
C75 O87 1.281 . S
C75 O88 1.236 . S
C76 O98 1.240 . S
C76 O99 1.264 . S
O77 Mn72 2.095 . S
O77 C86 1.250 . S
O78 Mn73 2.121 . S
O78 C86 1.258 . S
C79 N80 1.326 . S
C79 C83 1.460 . S
C79 H85 0.929 . S
N80 Mn73 2.257 . S
N80 C79 1.326 . S
N80 C84 1.362 . S
C81 C82 1.258 . S
C81 C84 1.431 . S
C81 C101 1.449 . S
C82 C81 1.258 . S
C82 C83 1.477 . S
C82 H102 0.931 . S
C83 C79 1.460 . S
C83 C82 1.477 . S
C83 H103 0.930 . S
C84 N80 1.362 . S
C84 C81 1.431 . S
C84 C94 1.476 . S
H85 C79 0.929 . S
C86 O77 1.250 . S
C86 O78 1.258 . S
O87 Mn72 2.162 . S
O87 C75 1.281 . S
O88 Mn72 2.297 . S
O88 C75 1.236 . S
N89 Mn73 2.282 . S
N89 C90 1.328 . S
N89 C94 1.318 . S
C90 N89 1.328 . S
C90 C91 1.457 . S
C90 H95 0.929 . S
C91 C90 1.457 . S
C91 C92 1.291 . S
C91 H104 0.931 . S
C92 C91 1.291 . S
C92 C93 1.373 . S
C92 H105 0.929 . S
C93 C92 1.373 . S
C93 C94 1.396 . S
C93 C100 1.403 . S
C94 C84 1.476 . S
C94 N89 1.318 . S
C94 C93 1.396 . S
H95 C90 0.929 . S
O96 Mn72 2.385 . S
O96 C74 1.234 . S
O97 Mn72 2.209 . S
O97 Mn73 2.215 . S
O97 C74 1.283 . S
O98 Mn72 2.094 . S
O98 C76 1.240 . S
O99 Mn73 2.117 . S
O99 C76 1.264 . S
C100 C93 1.403 . S
C100 C101 1.399 . S
C100 H106 0.929 . S
C101 C81 1.449 . S
C101 C100 1.399 . S
C101 H107 0.930 . S
H102 C82 0.931 . S
H103 C83 0.930 . S
H104 C91 0.931 . S
H105 C92 0.929 . S
H106 C100 0.929 . S
H107 C101 0.930 . S
Mn108 O113 2.095 . S
Mn108 O123 2.162 . S
Mn108 O124 2.297 . S
Mn108 O132 2.385 . S
Mn108 O133 2.209 . S
Mn108 O134 2.094 . S
Mn109 O114 2.121 . S
Mn109 N116 2.257 . S
Mn109 N125 2.282 . S
Mn109 O133 2.215 . S
Mn109 O135 2.117 . S
C110 O132 1.234 . S
C110 O133 1.283 . S
C111 O123 1.281 . S
C111 O124 1.236 . S
C112 O134 1.240 . S
C112 O135 1.264 . S
O113 Mn108 2.095 . S
O113 C122 1.250 . S
O114 Mn109 2.121 . S
O114 C122 1.258 . S
C115 N116 1.326 . S
C115 C119 1.460 . S
C115 H121 0.929 . S
N116 Mn109 2.257 . S
N116 C115 1.326 . S
N116 C120 1.362 . S
C117 C118 1.258 . S
C117 C120 1.431 . S
C117 C137 1.449 . S
C118 C117 1.258 . S
C118 C119 1.477 . S
C118 H138 0.931 . S
C119 C115 1.460 . S
C119 C118 1.477 . S
C119 H139 0.930 . S
C120 N116 1.362 . S
C120 C117 1.431 . S
C120 C130 1.476 . S
H121 C115 0.929 . S
C122 O113 1.250 . S
C122 O114 1.258 . S
O123 Mn108 2.162 . S
O123 C111 1.281 . S
O124 Mn108 2.297 . S
O124 C111 1.236 . S
N125 Mn109 2.282 . S
N125 C126 1.328 . S
N125 C130 1.318 . S
C126 N125 1.328 . S
C126 C127 1.457 . S
C126 H131 0.929 . S
C127 C126 1.457 . S
C127 C128 1.291 . S
C127 H140 0.931 . S
C128 C127 1.291 . S
C128 C129 1.373 . S
C128 H141 0.929 . S
C129 C128 1.373 . S
C129 C130 1.396 . S
C129 C136 1.403 . S
C130 C120 1.476 . S
C130 N125 1.318 . S
C130 C129 1.396 . S
H131 C126 0.929 . S
O132 Mn108 2.385 . S
O132 C110 1.234 . S
O133 Mn108 2.209 . S
O133 Mn109 2.215 . S
O133 C110 1.283 . S
O134 Mn108 2.094 . S
O134 C112 1.240 . S
O135 Mn109 2.117 . S
O135 C112 1.264 . S
C136 C129 1.403 . S
C136 C137 1.399 . S
C136 H142 0.929 . S
C137 C117 1.449 . S
C137 C136 1.399 . S
C137 H143 0.930 . S
H138 C118 0.931 . S
H139 C119 0.930 . S
H140 C127 0.931 . S
H141 C128 0.929 . S
H142 C136 0.929 . S
H143 C137 0.930 . S
Mn144 O149 2.095 . S
Mn144 O159 2.162 . S
Mn144 O160 2.297 . S
Mn144 O168 2.385 1_556 S
Mn144 O169 2.209 . S
Mn144 O170 2.094 . S
Mn145 O150 2.121 . S
Mn145 N152 2.257 . S
Mn145 N161 2.282 . S
Mn145 O169 2.215 . S
Mn145 O171 2.117 . S
C146 O168 1.234 1_556 S
C146 O169 1.283 . S
C147 O159 1.281 . S
C147 O160 1.236 . S
C148 O170 1.240 . S
C148 O171 1.264 . S
O149 Mn144 2.095 . S
O149 C158 1.250 . S
O150 Mn145 2.121 . S
O150 C158 1.258 . S
C151 N152 1.326 . S
C151 C155 1.460 . S
C151 H157 0.929 . S
N152 Mn145 2.257 . S
N152 C151 1.326 . S
N152 C156 1.362 . S
C153 C154 1.258 . S
C153 C156 1.431 . S
C153 C173 1.449 . S
C154 C153 1.258 . S
C154 C155 1.477 . S
C154 H174 0.931 . S
C155 C151 1.460 . S
C155 C154 1.477 . S
C155 H175 0.930 . S
C156 N152 1.362 . S
C156 C153 1.431 . S
C156 C166 1.476 . S
H157 C151 0.929 . S
C158 O149 1.250 . S
C158 O150 1.258 . S
O159 Mn144 2.162 . S
O159 C147 1.281 . S
O160 Mn144 2.297 . S
O160 C147 1.236 . S
N161 Mn145 2.282 . S
N161 C162 1.328 . S
N161 C166 1.318 . S
C162 N161 1.328 . S
C162 C163 1.457 . S
C162 H167 0.929 . S
C163 C162 1.457 . S
C163 C164 1.291 . S
C163 H176 0.931 1_556 S
C164 C163 1.291 . S
C164 C165 1.373 . S
C164 H177 0.929 . S
C165 C164 1.373 . S
C165 C166 1.396 . S
C165 C172 1.403 . S
C166 C156 1.476 . S
C166 N161 1.318 . S
C166 C165 1.396 . S
H167 C162 0.929 . S
O168 Mn144 2.385 1_554 S
O168 C146 1.234 1_554 S
O169 Mn144 2.209 . S
O169 Mn145 2.215 . S
O169 C146 1.283 . S
O170 Mn144 2.094 . S
O170 C148 1.240 . S
O171 Mn145 2.117 . S
O171 C148 1.264 . S
C172 C165 1.403 . S
C172 C173 1.399 . S
C172 H178 0.929 . S
C173 C153 1.449 . S
C173 C172 1.399 . S
C173 H179 0.930 . S
H174 C154 0.931 . S
H175 C155 0.930 . S
H176 C163 0.931 1_554 S
H177 C164 0.929 . S
H178 C172 0.929 . S
H179 C173 0.930 . S
Mn180 O185 2.095 . S
Mn180 O195 2.162 . S
Mn180 O196 2.297 . S
Mn180 O204 2.385 1_556 S
Mn180 O205 2.209 . S
Mn180 O206 2.094 . S
Mn181 O186 2.121 . S
Mn181 N188 2.257 . S
Mn181 N197 2.282 . S
Mn181 O205 2.215 . S
Mn181 O207 2.117 . S
C182 O204 1.234 1_556 S
C182 O205 1.283 . S
C183 O195 1.281 . S
C183 O196 1.236 . S
C184 O206 1.240 . S
C184 O207 1.264 . S
O185 Mn180 2.095 . S
O185 C194 1.250 . S
O186 Mn181 2.121 . S
O186 C194 1.258 . S
C187 N188 1.326 . S
C187 C191 1.460 . S
C187 H193 0.929 . S
N188 Mn181 2.257 . S
N188 C187 1.326 . S
N188 C192 1.362 . S
C189 C190 1.258 . S
C189 C192 1.431 . S
C189 C209 1.449 . S
C190 C189 1.258 . S
C190 C191 1.477 . S
C190 H210 0.931 . S
C191 C187 1.460 . S
C191 C190 1.477 . S
C191 H211 0.930 . S
C192 N188 1.362 . S
C192 C189 1.431 . S
C192 C202 1.476 . S
H193 C187 0.929 . S
C194 O185 1.250 . S
C194 O186 1.258 . S
O195 Mn180 2.162 . S
O195 C183 1.281 . S
O196 Mn180 2.297 . S
O196 C183 1.236 . S
N197 Mn181 2.282 . S
N197 C198 1.328 . S
N197 C202 1.318 . S
C198 N197 1.328 . S
C198 C199 1.457 . S
C198 H203 0.929 . S
C199 C198 1.457 . S
C199 C200 1.291 . S
C199 H212 0.931 1_556 S
C200 C199 1.291 . S
C200 C201 1.373 . S
C200 H213 0.929 . S
C201 C200 1.373 . S
C201 C202 1.396 . S
C201 C208 1.403 . S
C202 C192 1.476 . S
C202 N197 1.318 . S
C202 C201 1.396 . S
H203 C198 0.929 . S
O204 Mn180 2.385 1_554 S
O204 C182 1.234 1_554 S
O205 Mn180 2.209 . S
O205 Mn181 2.215 . S
O205 C182 1.283 . S
O206 Mn180 2.094 . S
O206 C184 1.240 . S
O207 Mn181 2.117 . S
O207 C184 1.264 . S
C208 C201 1.403 . S
C208 C209 1.399 . S
C208 H214 0.929 . S
C209 C189 1.449 . S
C209 C208 1.399 . S
C209 H215 0.930 . S
H210 C190 0.931 . S
H211 C191 0.930 . S
H212 C199 0.931 1_554 S
H213 C200 0.929 . S
H214 C208 0.929 . S
H215 C209 0.930 . S
Mn216 O221 2.095 . S
Mn216 O231 2.162 . S
Mn216 O232 2.297 . S
Mn216 O240 2.385 . S
Mn216 O241 2.209 . S
Mn216 O242 2.094 . S
Mn217 O222 2.121 . S
Mn217 N224 2.257 . S
Mn217 N233 2.282 . S
Mn217 O241 2.215 . S
Mn217 O243 2.117 . S
C218 O240 1.234 . S
C218 O241 1.283 . S
C219 O231 1.281 . S
C219 O232 1.236 . S
C220 O242 1.240 . S
C220 O243 1.264 . S
O221 Mn216 2.095 . S
O221 C230 1.250 . S
O222 Mn217 2.121 . S
O222 C230 1.258 . S
C223 N224 1.326 . S
C223 C227 1.460 . S
C223 H229 0.929 . S
N224 Mn217 2.257 . S
N224 C223 1.326 . S
N224 C228 1.362 . S
C225 C226 1.258 . S
C225 C228 1.431 . S
C225 C245 1.449 . S
C226 C225 1.258 . S
C226 C227 1.477 . S
C226 H246 0.931 . S
C227 C223 1.460 . S
C227 C226 1.477 . S
C227 H247 0.930 . S
C228 N224 1.362 . S
C228 C225 1.431 . S
C228 C238 1.476 . S
H229 C223 0.929 . S
C230 O221 1.250 . S
C230 O222 1.258 . S
O231 Mn216 2.162 . S
O231 C219 1.281 . S
O232 Mn216 2.297 . S
O232 C219 1.236 . S
N233 Mn217 2.282 . S
N233 C234 1.328 . S
N233 C238 1.318 . S
C234 N233 1.328 . S
C234 C235 1.457 . S
C234 H239 0.929 . S
C235 C234 1.457 . S
C235 C236 1.291 . S
C235 H248 0.931 . S
C236 C235 1.291 . S
C236 C237 1.373 . S
C236 H249 0.929 . S
C237 C236 1.373 . S
C237 C238 1.396 . S
C237 C244 1.403 . S
C238 C228 1.476 . S
C238 N233 1.318 . S
C238 C237 1.396 . S
H239 C234 0.929 . S
O240 Mn216 2.385 . S
O240 C218 1.234 . S
O241 Mn216 2.209 . S
O241 Mn217 2.215 . S
O241 C218 1.283 . S
O242 Mn216 2.094 . S
O242 C220 1.240 . S
O243 Mn217 2.117 . S
O243 C220 1.264 . S
C244 C237 1.403 . S
C244 C245 1.399 . S
C244 H250 0.929 . S
C245 C225 1.449 . S
C245 C244 1.399 . S
C245 H251 0.930 . S
H246 C226 0.931 . S
H247 C227 0.930 . S
H248 C235 0.931 . S
H249 C236 0.929 . S
H250 C244 0.929 . S
H251 C245 0.930 . S
Mn252 O257 2.095 . S
Mn252 O267 2.162 . S
Mn252 O268 2.297 . S
Mn252 O276 2.385 . S
Mn252 O277 2.209 . S
Mn252 O278 2.094 . S
Mn253 O258 2.121 . S
Mn253 N260 2.257 . S
Mn253 N269 2.282 . S
Mn253 O277 2.215 . S
Mn253 O279 2.117 . S
C254 O276 1.234 . S
C254 O277 1.283 . S
C255 O267 1.281 . S
C255 O268 1.236 . S
C256 O278 1.240 . S
C256 O279 1.264 . S
O257 Mn252 2.095 . S
O257 C266 1.250 . S
O258 Mn253 2.121 . S
O258 C266 1.258 . S
C259 N260 1.326 . S
C259 C263 1.460 . S
C259 H265 0.929 . S
N260 Mn253 2.257 . S
N260 C259 1.326 . S
N260 C264 1.362 . S
C261 C262 1.258 . S
C261 C264 1.431 . S
C261 C281 1.449 . S
C262 C261 1.258 . S
C262 C263 1.477 . S
C262 H282 0.931 . S
C263 C259 1.460 . S
C263 C262 1.477 . S
C263 H283 0.930 . S
C264 N260 1.362 . S
C264 C261 1.431 . S
C264 C274 1.476 . S
H265 C259 0.929 . S
C266 O257 1.250 . S
C266 O258 1.258 . S
O267 Mn252 2.162 . S
O267 C255 1.281 . S
O268 Mn252 2.297 . S
O268 C255 1.236 . S
N269 Mn253 2.282 . S
N269 C270 1.328 . S
N269 C274 1.318 . S
C270 N269 1.328 . S
C270 C271 1.457 . S
C270 H275 0.929 . S
C271 C270 1.457 . S
C271 C272 1.291 . S
C271 H284 0.931 . S
C272 C271 1.291 . S
C272 C273 1.373 . S
C272 H285 0.929 . S
C273 C272 1.373 . S
C273 C274 1.396 . S
C273 C280 1.403 . S
C274 C264 1.476 . S
C274 N269 1.318 . S
C274 C273 1.396 . S
H275 C270 0.929 . S
O276 Mn252 2.385 . S
O276 C254 1.234 . S
O277 Mn252 2.209 . S
O277 Mn253 2.215 . S
O277 C254 1.283 . S
O278 Mn252 2.094 . S
O278 C256 1.240 . S
O279 Mn253 2.117 . S
O279 C256 1.264 . S
C280 C273 1.403 . S
C280 C281 1.399 . S
C280 H286 0.929 . S
C281 C261 1.449 . S
C281 C280 1.399 . S
C281 H287 0.930 . S
H282 C262 0.931 . S
H283 C263 0.930 . S
H284 C271 0.931 . S
H285 C272 0.929 . S
H286 C280 0.929 . S
H287 C281 0.930 . S
H288 C294 0.930 . S
H289 C298 0.930 . S
H290 C303 0.929 . S
H291 C301 0.929 . S
H292 C296 0.929 . S
H293 C302 0.929 . S
C294 H288 0.930 . S
C294 C295 1.367 . S
C294 C302 1.378 . S
C295 C294 1.367 . S
C295 C303 1.433 1_554 S
C296 H292 0.929 . S
C296 C298 1.378 . S
C296 C300 1.350 1_556 S
C297 C300 1.463 1_545 S
C297 C302 1.350 . S
C297 N305 1.427 1_554 S
C298 H289 0.930 . S
C298 C296 1.378 . S
C298 C299 1.367 1_556 S
C299 C298 1.367 1_554 S
C299 C301 1.433 . S
C300 C296 1.350 1_554 S
C300 C297 1.463 1_565 S
C300 N304 1.427 . S
C301 H291 0.929 . S
C301 C299 1.433 . S
C301 N304 1.384 . S
C302 H293 0.929 . S
C302 C294 1.378 . S
C302 C297 1.350 . S
C303 H290 0.929 . S
C303 C295 1.433 1_556 S
C303 N305 1.384 . S
N304 C300 1.427 . S
N304 C301 1.384 . S
N305 C297 1.427 1_556 S
N305 C303 1.384 . S
H306 C312 0.930 . S
H307 C316 0.930 . S
H308 C321 0.929 . S
H309 C319 0.929 . S
H310 C314 0.929 . S
H311 C320 0.929 . S
C312 H306 0.930 . S
C312 C313 1.367 . S
C312 C320 1.378 . S
C313 C312 1.367 . S
C313 C321 1.433 . S
C314 H310 0.929 . S
C314 C316 1.378 . S
C314 C318 1.350 . S
C315 C318 1.463 . S
C315 C320 1.350 . S
C315 N323 1.427 . S
C316 H307 0.930 . S
C316 C314 1.378 . S
C316 C317 1.367 . S
C317 C316 1.367 . S
C317 C319 1.433 . S
C318 C314 1.350 . S
C318 C315 1.463 . S
C318 N322 1.427 . S
C319 H309 0.929 . S
C319 C317 1.433 . S
C319 N322 1.384 . S
C320 H311 0.929 . S
C320 C312 1.378 . S
C320 C315 1.350 . S
C321 H308 0.929 . S
C321 C313 1.433 . S
C321 N323 1.384 . S
N322 C318 1.427 . S
N322 C319 1.384 . S
N323 C315 1.427 . S
N323 C321 1.384 . S
H324 C330 0.930 . S
H325 C334 0.930 . S
H326 C339 0.929 . S
H327 C337 0.929 . S
H328 C332 0.929 . S
H329 C338 0.929 . S
C330 H324 0.930 . S
C330 C331 1.367 . S
C330 C338 1.378 . S
C331 C330 1.367 . S
C331 C339 1.433 . S
C332 H328 0.929 . S
C332 C334 1.378 . S
C332 C336 1.350 . S
C333 C336 1.463 1_565 S
C333 C338 1.350 . S
C333 N341 1.427 . S
C334 H325 0.930 . S
C334 C332 1.378 . S
C334 C335 1.367 . S
C335 C334 1.367 . S
C335 C337 1.433 . S
C336 C332 1.350 . S
C336 C333 1.463 1_545 S
C336 N340 1.427 . S
C337 H327 0.929 . S
C337 C335 1.433 . S
C337 N340 1.384 . S
C338 H329 0.929 . S
C338 C330 1.378 . S
C338 C333 1.350 . S
C339 H326 0.929 . S
C339 C331 1.433 . S
C339 N341 1.384 . S
N340 C336 1.427 . S
N340 C337 1.384 . S
N341 C333 1.427 . S
N341 C339 1.384 . S
H342 C348 0.930 . S
H343 C352 0.930 . S
H344 C357 0.929 . S
H345 C355 0.929 . S
H346 C350 0.929 . S
H347 C356 0.929 . S
C348 H342 0.930 . S
C348 C349 1.367 . S
C348 C356 1.378 . S
C349 C348 1.367 . S
C349 C357 1.433 . S
C350 H346 0.929 . S
C350 C352 1.378 . S
C350 C354 1.350 . S
C351 C354 1.463 . S
C351 C356 1.350 . S
C351 N359 1.427 . S
C352 H343 0.930 . S
C352 C350 1.378 . S
C352 C353 1.367 . S
C353 C352 1.367 . S
C353 C355 1.433 . S
C354 C350 1.350 . S
C354 C351 1.463 . S
C354 N358 1.427 . S
C355 H345 0.929 . S
C355 C353 1.433 . S
C355 N358 1.384 . S
C356 H347 0.929 . S
C356 C348 1.378 . S
C356 C351 1.350 . S
C357 H344 0.929 . S
C357 C349 1.433 . S
C357 N359 1.384 . S
N358 C354 1.427 . S
N358 C355 1.384 . S
N359 C351 1.427 . S
N359 C357 1.384 . S
H360 C366 0.930 . S
H361 C370 0.930 . S
H362 C375 0.929 . S
H363 C373 0.929 . S
H364 C368 0.929 . S
H365 C374 0.929 . S
C366 H360 0.930 . S
C366 C367 1.367 . S
C366 C374 1.378 . S
C367 C366 1.367 . S
C367 C375 1.433 . S
C368 H364 0.929 . S
C368 C370 1.378 . S
C368 C372 1.350 . S
C369 C372 1.463 . S
C369 C374 1.350 . S
C369 N377 1.427 . S
C370 H361 0.930 . S
C370 C368 1.378 . S
C370 C371 1.367 . S
C371 C370 1.367 . S
C371 C373 1.433 . S
C372 C368 1.350 . S
C372 C369 1.463 . S
C372 N376 1.427 . S
C373 H363 0.929 . S
C373 C371 1.433 . S
C373 N376 1.384 . S
C374 H365 0.929 . S
C374 C366 1.378 . S
C374 C369 1.350 . S
C375 H362 0.929 . S
C375 C367 1.433 . S
C375 N377 1.384 . S
N376 C372 1.427 . S
N376 C373 1.384 . S
N377 C369 1.427 . S
N377 C375 1.384 . S
H378 C384 0.930 . S
H379 C388 0.930 . S
H380 C393 0.929 . S
H381 C391 0.929 . S
H382 C386 0.929 . S
H383 C392 0.929 . S
C384 H378 0.930 . S
C384 C385 1.367 . S
C384 C392 1.378 . S
C385 C384 1.367 . S
C385 C393 1.433 . S
C386 H382 0.929 . S
C386 C388 1.378 . S
C386 C390 1.350 . S
C387 C390 1.463 . S
C387 C392 1.350 . S
C387 N395 1.427 . S
C388 H379 0.930 . S
C388 C386 1.378 . S
C388 C389 1.367 . S
C389 C388 1.367 . S
C389 C391 1.433 . S
C390 C386 1.350 . S
C390 C387 1.463 . S
C390 N394 1.427 . S
C391 H381 0.929 . S
C391 C389 1.433 . S
C391 N394 1.384 . S
C392 H383 0.929 . S
C392 C384 1.378 . S
C392 C387 1.350 . S
C393 H380 0.929 . S
C393 C385 1.433 . S
C393 N395 1.384 . S
N394 C390 1.427 . S
N394 C391 1.384 . S
N395 C387 1.427 . S
N395 C393 1.384 . S
H396 C402 0.930 . S
H397 C406 0.930 . S
H398 C411 0.929 . S
H399 C409 0.929 . S
H400 C404 0.929 . S
H401 C410 0.929 . S
C402 H396 0.930 . S
C402 C403 1.367 . S
C402 C410 1.378 . S
C403 C402 1.367 . S
C403 C411 1.433 . S
C404 H400 0.929 . S
C404 C406 1.378 . S
C404 C408 1.350 . S
C405 C408 1.463 . S
C405 C410 1.350 . S
C405 N413 1.427 . S
C406 H397 0.930 . S
C406 C404 1.378 . S
C406 C407 1.367 . S
C407 C406 1.367 . S
C407 C409 1.433 . S
C408 C404 1.350 . S
C408 C405 1.463 . S
C408 N412 1.427 . S
C409 H399 0.929 . S
C409 C407 1.433 . S
C409 N412 1.384 . S
C410 H401 0.929 . S
C410 C402 1.378 . S
C410 C405 1.350 . S
C411 H398 0.929 . S
C411 C403 1.433 . S
C411 N413 1.384 . S
N412 C408 1.427 . S
N412 C409 1.384 . S
N413 C405 1.427 . S
N413 C411 1.384 . S
H414 C420 0.930 . S
H415 C424 0.930 . S
H416 C429 0.929 . S
H417 C427 0.929 . S
H418 C422 0.929 . S
H419 C428 0.929 . S
C420 H414 0.930 . S
C420 C421 1.367 . S
C420 C428 1.378 . S
C421 C420 1.367 . S
C421 C429 1.433 . S
C422 H418 0.929 . S
C422 C424 1.378 . S
C422 C426 1.350 . S
C423 C426 1.463 . S
C423 C428 1.350 . S
C423 N431 1.427 . S
C424 H415 0.930 . S
C424 C422 1.378 . S
C424 C425 1.367 . S
C425 C424 1.367 . S
C425 C427 1.433 . S
C426 C422 1.350 . S
C426 C423 1.463 . S
C426 N430 1.427 . S
C427 H417 0.929 . S
C427 C425 1.433 . S
C427 N430 1.384 . S
C428 H419 0.929 . S
C428 C420 1.378 . S
C428 C423 1.350 . S
C429 H416 0.929 . S
C429 C421 1.433 . S
C429 N431 1.384 . S
N430 C426 1.427 . S
N430 C427 1.384 . S
N431 C423 1.427 . S
N431 C429 1.384 . S
H432 C438 0.930 . S
H433 C442 0.930 . S
H434 C447 0.929 . S
H435 C445 0.929 . S
H436 C440 0.929 . S
H437 C446 0.929 . S
C438 H432 0.930 . S
C438 C439 1.367 . S
C438 C446 1.378 . S
C439 C438 1.367 . S
C439 C447 1.433 1_554 S
C440 H436 0.929 . S
C440 C442 1.378 . S
C440 C444 1.350 . S
C441 C444 1.463 1_554 S
C441 C446 1.350 . S
C441 N449 1.427 1_554 S
C442 H433 0.930 . S
C442 C440 1.378 . S
C442 C443 1.367 . S
C443 C442 1.367 . S
C443 C445 1.433 1_556 S
C444 C440 1.350 . S
C444 C441 1.463 1_556 S
C444 N448 1.427 1_556 S
C445 H435 0.929 . S
C445 C443 1.433 1_554 S
C445 N448 1.384 . S
C446 H437 0.929 . S
C446 C438 1.378 . S
C446 C441 1.350 . S
C447 H434 0.929 . S
C447 C439 1.433 1_556 S
C447 N449 1.384 . S
N448 C444 1.427 1_554 S
N448 C445 1.384 . S
N449 C441 1.427 1_556 S
N449 C447 1.384 . S
H450 C456 0.930 . S
H451 C460 0.930 . S
H452 C465 0.929 . S
H453 C463 0.929 . S
H454 C458 0.929 1_455 S
H455 C464 0.929 1_655 S
C456 H450 0.930 . S
C456 C457 1.367 . S
C456 C464 1.378 . S
C457 C456 1.367 . S
C457 C465 1.433 1_554 S
C458 H454 0.929 1_655 S
C458 C460 1.378 . S
C458 C462 1.350 . S
C459 C462 1.463 1_454 S
C459 C464 1.350 . S
C459 N467 1.427 1_554 S
C460 H451 0.930 . S
C460 C458 1.378 . S
C460 C461 1.367 . S
C461 C460 1.367 . S
C461 C463 1.433 1_556 S
C462 C458 1.350 . S
C462 C459 1.463 1_656 S
C462 N466 1.427 1_556 S
C463 H453 0.929 . S
C463 C461 1.433 1_554 S
C463 N466 1.384 . S
C464 H455 0.929 1_455 S
C464 C456 1.378 . S
C464 C459 1.350 . S
C465 H452 0.929 . S
C465 C457 1.433 1_556 S
C465 N467 1.384 . S
N466 C462 1.427 1_554 S
N466 C463 1.384 . S
N467 C459 1.427 1_556 S
N467 C465 1.384 . S
H468 C474 0.930 . S
H469 C478 0.930 . S
H470 C483 0.929 . S
H471 C481 0.929 . S
H472 C476 0.929 . S
H473 C482 0.929 . S
C474 H468 0.930 . S
C474 C475 1.367 . S
C474 C482 1.378 . S
C475 C474 1.367 . S
C475 C483 1.433 . S
C476 H472 0.929 . S
C476 C478 1.378 . S
C476 C480 1.350 . S
C477 C480 1.463 1_565 S
C477 C482 1.350 . S
C477 N485 1.427 . S
C478 H469 0.930 . S
C478 C476 1.378 . S
C478 C479 1.367 . S
C479 C478 1.367 . S
C479 C481 1.433 . S
C480 C476 1.350 . S
C480 C477 1.463 1_545 S
C480 N484 1.427 . S
C481 H471 0.929 . S
C481 C479 1.433 . S
C481 N484 1.384 . S
C482 H473 0.929 . S
C482 C474 1.378 . S
C482 C477 1.350 . S
C483 H470 0.929 . S
C483 C475 1.433 . S
C483 N485 1.384 . S
N484 C480 1.427 . S
N484 C481 1.384 . S
N485 C477 1.427 . S
N485 C483 1.384 . S
H486 C492 0.930 . S
H487 C496 0.930 . S
H488 C501 0.929 . S
H489 C499 0.929 . S
H490 C494 0.929 1_655 S
H491 C500 0.929 1_455 S
C492 H486 0.930 . S
C492 C493 1.367 . S
C492 C500 1.378 . S
C493 C492 1.367 . S
C493 C501 1.433 . S
C494 H490 0.929 1_455 S
C494 C496 1.378 . S
C494 C498 1.350 . S
C495 C498 1.463 1_645 S
C495 C500 1.350 . S
C495 N503 1.427 . S
C496 H487 0.930 . S
C496 C494 1.378 . S
C496 C497 1.367 . S
C497 C496 1.367 . S
C497 C499 1.433 . S
C498 C494 1.350 . S
C498 C495 1.463 1_465 S
C498 N502 1.427 . S
C499 H489 0.929 . S
C499 C497 1.433 . S
C499 N502 1.384 . S
C500 H491 0.929 1_655 S
C500 C492 1.378 . S
C500 C495 1.350 . S
C501 H488 0.929 . S
C501 C493 1.433 . S
C501 N503 1.384 . S
N502 C498 1.427 . S
N502 C499 1.384 . S
N503 C495 1.427 . S
N503 C501 1.384 . S
H504 C510 0.930 . S
H505 C514 0.930 . S
H506 C519 0.929 . S
H507 C517 0.929 . S
H508 C512 0.929 . S
H509 C518 0.929 . S
C510 H504 0.930 . S
C510 C511 1.367 . S
C510 C518 1.378 . S
C511 C510 1.367 . S
C511 C519 1.433 . S
C512 H508 0.929 . S
C512 C514 1.378 . S
C512 C516 1.350 . S
C513 C516 1.463 . S
C513 C518 1.350 . S
C513 N521 1.427 . S
C514 H505 0.930 . S
C514 C512 1.378 . S
C514 C515 1.367 . S
C515 C514 1.367 . S
C515 C517 1.433 . S
C516 C512 1.350 . S
C516 C513 1.463 . S
C516 N520 1.427 . S
C517 H507 0.929 . S
C517 C515 1.433 . S
C517 N520 1.384 . S
C518 H509 0.929 . S
C518 C510 1.378 . S
C518 C513 1.350 . S
C519 H506 0.929 . S
C519 C511 1.433 . S
C519 N521 1.384 . S
N520 C516 1.427 . S
N520 C517 1.384 . S
N521 C513 1.427 . S
N521 C519 1.384 . S
H522 C528 0.930 . S
H523 C532 0.930 . S
H524 C537 0.929 . S
H525 C535 0.929 . S
H526 C530 0.929 . S
H527 C536 0.929 . S
C528 H522 0.930 . S
C528 C529 1.367 . S
C528 C536 1.378 . S
C529 C528 1.367 . S
C529 C537 1.433 . S
C530 H526 0.929 . S
C530 C532 1.378 . S
C530 C534 1.350 . S
C531 C534 1.463 1_545 S
C531 C536 1.350 . S
C531 N539 1.427 . S
C532 H523 0.930 . S
C532 C530 1.378 . S
C532 C533 1.367 . S
C533 C532 1.367 . S
C533 C535 1.433 . S
C534 C530 1.350 . S
C534 C531 1.463 1_565 S
C534 N538 1.427 . S
C535 H525 0.929 . S
C535 C533 1.433 . S
C535 N538 1.384 . S
C536 H527 0.929 . S
C536 C528 1.378 . S
C536 C531 1.350 . S
C537 H524 0.929 . S
C537 C529 1.433 . S
C537 N539 1.384 . S
N538 C534 1.427 . S
N538 C535 1.384 . S
N539 C531 1.427 . S
N539 C537 1.384 . S
H540 C546 0.930 . S
H541 C550 0.930 . S
H542 C555 0.929 . S
H543 C553 0.929 . S
H544 C548 0.929 . S
H545 C554 0.929 . S
C546 H540 0.930 . S
C546 C547 1.367 1_554 S
C546 C554 1.378 . S
C547 C546 1.367 1_556 S
C547 C555 1.433 . S
C548 H544 0.929 . S
C548 C550 1.378 . S
C548 C552 1.350 . S
C549 C552 1.463 . S
C549 C554 1.350 1_556 S
C549 N557 1.427 . S
C550 H541 0.930 . S
C550 C548 1.378 . S
C550 C551 1.367 . S
C551 C550 1.367 . S
C551 C553 1.433 1_556 S
C552 C548 1.350 . S
C552 C549 1.463 . S
C552 N556 1.427 1_556 S
C553 H543 0.929 . S
C553 C551 1.433 1_554 S
C553 N556 1.384 . S
C554 H545 0.929 . S
C554 C546 1.378 . S
C554 C549 1.350 1_554 S
C555 H542 0.929 . S
C555 C547 1.433 . S
C555 N557 1.384 . S
N556 C552 1.427 1_554 S
N556 C553 1.384 . S
N557 C549 1.427 . S
N557 C555 1.384 . S
H558 C564 0.930 . S
H559 C568 0.930 . S
H560 C573 0.929 . S
H561 C571 0.929 . S
H562 C566 0.929 . S
H563 C572 0.929 . S
C564 H558 0.930 . S
C564 C565 1.367 . S
C564 C572 1.378 . S
C565 C564 1.367 . S
C565 C573 1.433 . S
C566 H562 0.929 . S
C566 C568 1.378 . S
C566 C570 1.350 . S
C567 C570 1.463 1_565 S
C567 C572 1.350 . S
C567 N575 1.427 . S
C568 H559 0.930 . S
C568 C566 1.378 . S
C568 C569 1.367 . S
C569 C568 1.367 . S
C569 C571 1.433 . S
C570 C566 1.350 . S
C570 C567 1.463 1_545 S
C570 N574 1.427 . S
C571 H561 0.929 . S
C571 C569 1.433 . S
C571 N574 1.384 . S
C572 H563 0.929 . S
C572 C564 1.378 . S
C572 C567 1.350 . S
C573 H560 0.929 . S
C573 C565 1.433 . S
C573 N575 1.384 . S
N574 C570 1.427 . S
N574 C571 1.384 . S
N575 C567 1.427 . S
N575 C573 1.384 . S
C295 C4 1.446 . S
C299 C40 1.455 . S
C313 C112 1.458 . S
C317 C76 1.456 . S
C331 C148 1.445 . S
C335 C184 1.442 . S
C349 C220 1.454 . S
C353 C256 1.444 . S
C367 C14 1.507 . S
C371 C86 1.517 . S
C385 C122 1.516 . S
C389 C50 1.509 . S
C403 C158 1.512 . S
C407 C230 1.513 . S
C421 C266 1.517 . S
C425 C194 1.507 . S
C439 C3 1.441 . S
C443 C147 1.441 . S
C457 C39 1.436 . S
C461 C183 1.436 . S
C475 C219 1.445 . S
C479 C75 1.445 . S
C493 C255 1.445 . S
C497 C111 1.445 . S
C511 C38 1.027 . S
C515 C2 1.028 . S
C529 C74 1.026 . S
C533 C110 1.028 . S
C547 C146 1.028 . S
C551 C182 1.026 . S
C565 C218 1.026 . S
C569 C254 1.027 . S
