# Generated by pormake.
# Topology whv, (6)-cn, num edge types: 1
# Building blocks:
#     Node 0, Type 0, BuildingBlock: OJICUG_clean_sbu_0, # of connection points: 6
#     Node 1, Type 0, BuildingBlock: OJICUG_clean_sbu_0, # of connection points: 6
#     Node 2, Type 0, BuildingBlock: OJICUG_clean_sbu_0, # of connection points: 6
#     Node 3, Type 0, BuildingBlock: OJICUG_clean_sbu_0, # of connection points: 6
#     Node 4, Type 0, BuildingBlock: OJICUG_clean_sbu_0, # of connection points: 6
#     Node 5, Type 0, BuildingBlock: OJICUG_clean_sbu_0, # of connection points: 6
#     Node 6, Type 0, BuildingBlock: OJICUG_clean_sbu_0, # of connection points: 6
#     Node 7, Type 0, BuildingBlock: OJICUG_clean_sbu_0, # of connection points: 6
#     Node 8, Type 0, BuildingBlock: OJICUG_clean_sbu_0, # of connection points: 6
#     Node 9, Type 0, BuildingBlock: OJICUG_clean_sbu_0, # of connection points: 6
#     Node 10, Type 0, BuildingBlock: OJICUG_clean_sbu_0, # of connection points: 6
#     Node 11, Type 0, BuildingBlock: OJICUG_clean_sbu_0, # of connection points: 6
#     Node 12, Type 0, BuildingBlock: OJICUG_clean_sbu_0, # of connection points: 6
#     Node 13, Type 0, BuildingBlock: OJICUG_clean_sbu_0, # of connection points: 6
#     Node 14, Type 0, BuildingBlock: OJICUG_clean_sbu_0, # of connection points: 6
#     Node 15, Type 0, BuildingBlock: OJICUG_clean_sbu_0, # of connection points: 6
#     Edge 16, Type (0, 0), BuildingBlock: XIVTED_clean_linker_0, # of connection points: 2
#     Edge 17, Type (0, 0), BuildingBlock: XIVTED_clean_linker_0, # of connection points: 2
#     Edge 18, Type (0, 0), BuildingBlock: XIVTED_clean_linker_0, # of connection points: 2
#     Edge 19, Type (0, 0), BuildingBlock: XIVTED_clean_linker_0, # of connection points: 2
#     Edge 20, Type (0, 0), BuildingBlock: XIVTED_clean_linker_0, # of connection points: 2
#     Edge 21, Type (0, 0), BuildingBlock: XIVTED_clean_linker_0, # of connection points: 2
#     Edge 22, Type (0, 0), BuildingBlock: XIVTED_clean_linker_0, # of connection points: 2
#     Edge 23, Type (0, 0), BuildingBlock: XIVTED_clean_linker_0, # of connection points: 2
#     Edge 24, Type (0, 0), BuildingBlock: XIVTED_clean_linker_0, # of connection points: 2
#     Edge 25, Type (0, 0), BuildingBlock: XIVTED_clean_linker_0, # of connection points: 2
#     Edge 26, Type (0, 0), BuildingBlock: XIVTED_clean_linker_0, # of connection points: 2
#     Edge 27, Type (0, 0), BuildingBlock: XIVTED_clean_linker_0, # of connection points: 2
#     Edge 28, Type (0, 0), BuildingBlock: XIVTED_clean_linker_0, # of connection points: 2
#     Edge 29, Type (0, 0), BuildingBlock: XIVTED_clean_linker_0, # of connection points: 2
#     Edge 30, Type (0, 0), BuildingBlock: XIVTED_clean_linker_0, # of connection points: 2
#     Edge 31, Type (0, 0), BuildingBlock: XIVTED_clean_linker_0, # of connection points: 2
#     Edge 32, Type (0, 0), BuildingBlock: XIVTED_clean_linker_0, # of connection points: 2
#     Edge 33, Type (0, 0), BuildingBlock: XIVTED_clean_linker_0, # of connection points: 2
#     Edge 34, Type (0, 0), BuildingBlock: XIVTED_clean_linker_0, # of connection points: 2
#     Edge 35, Type (0, 0), BuildingBlock: XIVTED_clean_linker_0, # of connection points: 2
#     Edge 36, Type (0, 0), BuildingBlock: XIVTED_clean_linker_0, # of connection points: 2
#     Edge 37, Type (0, 0), BuildingBlock: XIVTED_clean_linker_0, # of connection points: 2
#     Edge 38, Type (0, 0), BuildingBlock: XIVTED_clean_linker_0, # of connection points: 2
#     Edge 39, Type (0, 0), BuildingBlock: XIVTED_clean_linker_0, # of connection points: 2
#     Edge 40, Type (0, 0), BuildingBlock: XIVTED_clean_linker_0, # of connection points: 2
#     Edge 41, Type (0, 0), BuildingBlock: XIVTED_clean_linker_0, # of connection points: 2
#     Edge 42, Type (0, 0), BuildingBlock: XIVTED_clean_linker_0, # of connection points: 2
#     Edge 43, Type (0, 0), BuildingBlock: XIVTED_clean_linker_0, # of connection points: 2
#     Edge 44, Type (0, 0), BuildingBlock: XIVTED_clean_linker_0, # of connection points: 2
#     Edge 45, Type (0, 0), BuildingBlock: XIVTED_clean_linker_0, # of connection points: 2
#     Edge 46, Type (0, 0), BuildingBlock: XIVTED_clean_linker_0, # of connection points: 2
#     Edge 47, Type (0, 0), BuildingBlock: XIVTED_clean_linker_0, # of connection points: 2
#     Edge 48, Type (0, 0), BuildingBlock: XIVTED_clean_linker_0, # of connection points: 2
#     Edge 49, Type (0, 0), BuildingBlock: XIVTED_clean_linker_0, # of connection points: 2
#     Edge 50, Type (0, 0), BuildingBlock: XIVTED_clean_linker_0, # of connection points: 2
#     Edge 51, Type (0, 0), BuildingBlock: XIVTED_clean_linker_0, # of connection points: 2
#     Edge 52, Type (0, 0), BuildingBlock: XIVTED_clean_linker_0, # of connection points: 2
#     Edge 53, Type (0, 0), BuildingBlock: XIVTED_clean_linker_0, # of connection points: 2
#     Edge 54, Type (0, 0), BuildingBlock: XIVTED_clean_linker_0, # of connection points: 2
#     Edge 55, Type (0, 0), BuildingBlock: XIVTED_clean_linker_0, # of connection points: 2
#     Edge 56, Type (0, 0), BuildingBlock: XIVTED_clean_linker_0, # of connection points: 2
#     Edge 57, Type (0, 0), BuildingBlock: XIVTED_clean_linker_0, # of connection points: 2
#     Edge 58, Type (0, 0), BuildingBlock: XIVTED_clean_linker_0, # of connection points: 2
#     Edge 59, Type (0, 0), BuildingBlock: XIVTED_clean_linker_0, # of connection points: 2
#     Edge 60, Type (0, 0), BuildingBlock: XIVTED_clean_linker_0, # of connection points: 2
#     Edge 61, Type (0, 0), BuildingBlock: XIVTED_clean_linker_0, # of connection points: 2
#     Edge 62, Type (0, 0), BuildingBlock: XIVTED_clean_linker_0, # of connection points: 2
#     Edge 63, Type (0, 0), BuildingBlock: XIVTED_clean_linker_0, # of connection points: 2
# Relax obj value: 0.290
# Max RMSD: 0.262
# Mean RMSD: 0.262
data_MOF--net-whv--node1-OJICUG_clean_sbu_0--edge1-XIVTED_clean_linker_0
_symmetry_space_group_name_H-M    P1
_symmetry_Int_Tables_number       1
_symmetry_cell_setting            triclinic
loop_
_symmetry_equiv_pos_as_xyz
'x, y, z'
_cell_length_a     51.883915
_cell_length_b     51.770431
_cell_length_c     27.155241
_cell_angle_alpha  89.963135
_cell_angle_beta   89.977801
_cell_angle_gamma 89.998395
loop_
_atom_site_label
_atom_site_type_symbol
_atom_site_fract_x
_atom_site_fract_y
_atom_site_fract_z
_atom_type_partial_charge
Sc0 Sc 0.28049 0.21728 0.00533 0.0
Sc1 Sc 0.3007 0.15802 0.96723 0.0
Sc2 Sc 0.33213 0.18843 0.06274 0.0
O3 O 0.30444 0.18774 0.01248 0.0
C4 C 0.33366 0.24487 0.02633 0.0
C5 C 0.28839 0.20656 0.89809 0.0
C6 C 0.35931 0.16407 0.96709 0.0
C7 C 0.24463 0.16808 0.9838 0.0
C8 C 0.28241 0.21226 0.11742 0.0
C9 C 0.31806 0.13131 0.06889 0.0
O10 O 0.30911 0.24588 0.02697 0.0
O11 O 0.2862 0.18233 0.90646 0.0
O12 O 0.35954 0.1686 0.01348 0.0
O13 O 0.24878 0.19236 0.98022 0.0
O14 O 0.30675 0.20792 0.11615 0.0
O15 O 0.31447 0.13034 0.02235 0.0
O16 O 0.2684 0.21229 0.0791 0.0
O17 O 0.26259 0.1523 0.99342 0.0
O18 O 0.31959 0.15253 0.09202 0.0
O19 O 0.29347 0.22237 0.93215 0.0
O20 O 0.3459 0.22406 0.03389 0.0
O21 O 0.33883 0.16398 0.94158 0.0
Sc22 Sc 0.55191 0.57833 0.31356 0.0
Sc23 Sc 0.59292 0.56323 0.21724 0.0
Sc24 Sc 0.5428 0.52189 0.2479 0.0
O25 O 0.56278 0.55419 0.25945 0.0
C26 C 0.53649 0.52376 0.35911 0.0
C27 C 0.61004 0.57482 0.33015 0.0
C28 C 0.60115 0.50352 0.23063 0.0
C29 C 0.57444 0.61816 0.23546 0.0
C30 C 0.50093 0.56692 0.26 0.0
C31 C 0.55251 0.54066 0.13946 0.0
O32 O 0.53408 0.5482 0.35787 0.0
O33 O 0.61418 0.57555 0.28346 0.0
O34 O 0.57718 0.49871 0.23585 0.0
O35 O 0.5685 0.61293 0.27976 0.0
O36 O 0.50663 0.54289 0.25705 0.0
O37 O 0.57411 0.55148 0.14846 0.0
O38 O 0.51637 0.58403 0.27623 0.0
O39 O 0.57771 0.6007 0.20367 0.0
O40 O 0.53875 0.53008 0.17214 0.0
O41 O 0.58771 0.57192 0.34874 0.0
O42 O 0.54533 0.51115 0.32312 0.0
O43 O 0.60999 0.52623 0.22626 0.0
Sc44 Sc 0.15567 0.79122 0.5772 0.0
Sc45 Sc 0.17372 0.81386 0.4636 0.0
Sc46 Sc 0.20786 0.76459 0.51732 0.0
O47 O 0.17961 0.79041 0.51994 0.0
C48 C 0.21056 0.77917 0.62579 0.0
C49 C 0.16094 0.84851 0.55923 0.0
C50 C 0.23256 0.81532 0.46829 0.0
C51 C 0.11792 0.80215 0.48718 0.0
C52 C 0.16038 0.73344 0.55278 0.0
C53 C 0.19041 0.76131 0.41025 0.0
O54 O 0.18596 0.77951 0.62795 0.0
O55 O 0.15983 0.84452 0.51271 0.0
O56 O 0.2334 0.79111 0.47763 0.0
O57 O 0.12279 0.8038 0.53311 0.0
O58 O 0.18476 0.73595 0.55561 0.0
O59 O 0.18704 0.78575 0.40881 0.0
O60 O 0.14541 0.75239 0.5606 0.0
O61 O 0.13558 0.7991 0.45544 0.0
O62 O 0.1933 0.74921 0.45035 0.0
O63 O 0.16544 0.83057 0.59004 0.0
O64 O 0.22275 0.77861 0.58527 0.0
O65 O 0.21191 0.82846 0.4707 0.0
Sc66 Sc 0.96516 0.471 0.76442 0.0
Sc67 Sc 0.91251 0.44021 0.71531 0.0
Sc68 Sc 0.94253 0.41496 0.81812 0.0
O69 O 0.93979 0.44233 0.76674 0.0
C70 C -0.00041 0.42213 0.78667 0.0
C71 C 0.96091 0.46009 0.65436 0.0
C72 C 0.9292 0.38357 0.71947 0.0
C73 C 0.91119 0.49812 0.73466 0.0
C74 C 0.95573 0.46731 0.8764 0.0
C75 C 0.88438 0.41866 0.81253 0.0
O76 O -0.00269 0.44665 0.78631 0.0
O77 O 0.93647 0.45791 0.65777 0.0
O78 O 0.9306 0.38422 0.76657 0.0
O79 O 0.93575 0.49847 0.73942 0.0
O80 O 0.95443 0.44265 0.87473 0.0
O81 O 0.8852 0.42127 0.76573 0.0
O82 O 0.95642 0.48125 0.83801 0.0
O83 O 0.89824 0.47727 0.73548 0.0
O84 O 0.90394 0.42207 0.8396 0.0
O85 O 0.97534 0.46086 0.69169 0.0
O86 O 0.98091 0.40718 0.79617 0.0
O87 O 0.92707 0.40386 0.69367 0.0
Sc88 Sc 0.71958 0.7932 0.04928 0.0
Sc89 Sc 0.69828 0.85776 0.05953 0.0
Sc90 Sc 0.65845 0.81096 0.00442 0.0
O91 O 0.69218 0.82068 0.03772 0.0
C92 C 0.69901 0.7782 0.94259 0.0
C93 C 0.75317 0.84217 0.01666 0.0
C94 C 0.66876 0.86618 0.95726 0.0
C95 C 0.72489 0.82618 0.14687 0.0
C96 C 0.6678 0.76254 0.07448 0.0
C97 C 0.63992 0.84902 0.09022 0.0
O98 O 0.71506 0.77716 0.9777 0.0
O99 O 0.7358 0.85822 0.02854 0.0
O100 O 0.65821 0.84414 0.9582 0.0
O101 O 0.7278 0.80602 0.12131 0.0
O102 O 0.65432 0.77664 0.04644 0.0
O103 O 0.66129 0.86079 0.09293 0.0
O104 O 0.69184 0.7662 0.08117 0.0
O105 O 0.71369 0.84649 0.13128 0.0
O106 O 0.63582 0.8304 0.06054 0.0
O107 O 0.75046 0.81776 0.02123 0.0
O108 O 0.67781 0.79051 0.94542 0.0
O109 O 0.684 0.87395 0.99089 0.0
Sc110 Sc 0.4701 0.45642 0.7571 0.0
Sc111 Sc 0.40947 0.4424 0.79925 0.0
Sc112 Sc 0.44359 0.39722 0.73015 0.0
O113 O 0.44083 0.43164 0.76243 0.0
C114 C 0.46469 0.43764 0.65099 0.0
C115 C 0.42214 0.49481 0.75905 0.0
C116 C 0.38625 0.41083 0.70702 0.0
C117 C 0.45764 0.46176 0.86545 0.0
C118 C 0.49904 0.40368 0.76838 0.0
C119 C 0.41483 0.38495 0.83257 0.0
O120 O 0.46458 0.45681 0.68017 0.0
O121 O 0.40646 0.4763 0.75497 0.0
O122 O 0.40794 0.4022 0.69307 0.0
O123 O 0.47439 0.45498 0.83401 0.0
O124 O 0.47878 0.39012 0.76758 0.0
O125 O 0.41049 0.40842 0.8434 0.0
O126 O 0.49944 0.4266 0.75152 0.0
O127 O 0.43336 0.46228 0.85592 0.0
O128 O 0.4246 0.37786 0.79152 0.0
O129 O 0.44604 0.49066 0.76575 0.0
O130 O 0.4626 0.41416 0.66535 0.0
O131 O 0.38331 0.42377 0.74675 0.0
Sc132 Sc 0.84585 0.19001 0.47348 0.0
Sc133 Sc 0.80813 0.1571 0.55725 0.0
Sc134 Sc 0.79589 0.22048 0.53305 0.0
O135 O 0.81632 0.189 0.51967 0.0
C136 C 0.85194 0.24309 0.52542 0.0
C137 C 0.86684 0.15914 0.56705 0.0
C138 C 0.79788 0.20111 0.63632 0.0
C139 C 0.82852 0.13514 0.45341 0.0
C140 C 0.80078 0.2227 0.42046 0.0
C141 C 0.75419 0.17413 0.53671 0.0
O142 O 0.86214 0.22196 0.51241 0.0
O143 O 0.84528 0.15859 0.58911 0.0
O144 O 0.80709 0.21796 0.60773 0.0
O145 O 0.83113 0.15741 0.43476 0.0
O146 O 0.78619 0.22331 0.45797 0.0
O147 O 0.77055 0.1568 0.52555 0.0
O148 O 0.82404 0.21431 0.42168 0.0
O149 O 0.82311 0.13185 0.49892 0.0
O150 O 0.76101 0.19737 0.54636 0.0
O151 O 0.86944 0.16544 0.52172 0.0
O152 O 0.82779 0.24707 0.52309 0.0
O153 O 0.79273 0.17836 0.62108 0.0
Sc154 Sc 0.04329 0.59819 0.22965 0.0
Sc155 Sc 0.08358 0.55242 0.28619 0.0
Sc156 Sc 0.01787 0.54772 0.29808 0.0
O157 O 0.04833 0.5663 0.27026 0.0
C158 C -0.00306 0.60538 0.3026 0.0
C159 C 0.08874 0.61209 0.30585 0.0
C160 C 0.05238 0.54556 0.38705 0.0
C161 C 0.09274 0.57569 0.17802 0.0
C162 C 0.00294 0.55598 0.18778 0.0
C163 C 0.05789 0.50113 0.27807 0.0
O164 O 0.01532 0.61471 0.27788 0.0
O165 O 0.09422 0.58875 0.31615 0.0
O166 O 0.03229 0.55571 0.36916 0.0
O167 O 0.07117 0.58708 0.17612 0.0
O168 O 0.00368 0.54143 0.22565 0.0
O169 O 0.07367 0.51573 0.25587 0.0
O170 O 0.01429 0.57801 0.18536 0.0
O171 O 0.10032 0.56342 0.21597 0.0
O172 O 0.03769 0.51035 0.29832 0.0
O173 O 0.07201 0.61876 0.27352 0.0
O174 O 0.99362 0.58126 0.30762 0.0
O175 O 0.07156 0.53926 0.36001 0.0
Sc176 Sc 0.76499 0.71342 0.51068 0.0
Sc177 Sc 0.80995 0.67176 0.46527 0.0
Sc178 Sc 0.82657 0.71199 0.56358 0.0
O179 O 0.80071 0.69846 0.51514 0.0
C180 C 0.80284 0.76109 0.50823 0.0
C181 C 0.777 0.7083 0.40262 0.0
C182 C 0.86396 0.70009 0.47365 0.0
C183 C 0.75246 0.65657 0.50015 0.0
C184 C 0.7756 0.72103 0.62433 0.0
C185 C 0.83296 0.65053 0.5666 0.0
O186 O 0.78286 0.7496 0.49145 0.0
O187 O 0.79933 0.69856 0.40636 0.0
O188 O 0.85903 0.71214 0.51324 0.0
O189 O 0.74846 0.67639 0.52708 0.0
O190 O 0.79878 0.71324 0.62282 0.0
O191 O 0.82288 0.64641 0.52419 0.0
O192 O 0.7624 0.72473 0.5859 0.0
O193 O 0.77192 0.65477 0.47148 0.0
O194 O 0.83603 0.67304 0.58507 0.0
O195 O 0.76043 0.70336 0.43504 0.0
O196 O 0.81795 0.7512 0.54046 0.0
O197 O 0.84826 0.68471 0.45362 0.0
Sc198 Sc 0.05074 0.08039 0.81391 0.0
Sc199 Sc 0.07628 0.05716 0.706 0.0
Sc200 Sc 0.02459 0.0266 0.75897 0.0
O201 O 0.05086 0.05437 0.76021 0.0
C202 C 0.03667 0.02743 0.86915 0.0
C203 C 0.10816 0.07351 0.80276 0.0
C204 C 0.07599 -0.00119 0.71953 0.0
C205 C 0.06458 0.11408 0.71854 0.0
C206 C 0.99317 0.07592 0.78765 0.0
C207 C 0.0249 0.04039 0.64987 0.0
O208 O 0.03765 0.05212 0.86841 0.0
O209 O 0.1058 0.07307 0.75581 0.0
O210 O 0.05155 -0.00091 0.72579 0.0
O211 O 0.06475 0.11147 0.76538 0.0
O212 O 0.99497 0.05139 0.78989 0.0
O213 O 0.04948 0.04201 0.65022 0.0
O214 O 0.01245 0.09062 0.79402 0.0
O215 O 0.06268 0.09494 0.68973 0.0
O216 O 0.01177 0.03926 0.68899 0.0
O217 O 0.0892 0.07015 0.83154 0.0
O218 O 0.03621 0.01398 0.83009 0.0
O219 O 0.08969 0.01912 0.72135 0.0
Sc220 Sc 0.66388 0.30329 0.06319 0.0
Sc221 Sc 0.70419 0.3375 0.98516 0.0
Sc222 Sc 0.71114 0.27216 -0.00344 0.0
O223 O 0.69282 0.3045 0.01565 0.0
C224 C 0.70887 0.26746 0.10925 0.0
C225 C 0.68815 0.3557 0.09367 0.0
C226 C 0.75616 0.31421 -0.00567 0.0
C227 C 0.64459 0.34206 0.9779 0.0
C228 C 0.65435 0.25197 0.00812 0.0
C229 C 0.70699 0.29636 0.89702 0.0
O230 O 0.68592 0.2768 0.1105 0.0
O231 O 0.6956 0.36056 0.04992 0.0
O232 O 0.74724 0.29256 0.97979 0.0
O233 O 0.64087 0.32982 0.01833 0.0
O234 O 0.6783 0.24694 0.0077 0.0
O235 O 0.71411 0.31801 0.91535 0.0
O236 O 0.64556 0.27341 0.02248 0.0
O237 O 0.6666 0.34461 0.95788 0.0
O238 O 0.69814 0.2784 0.92378 0.0
O239 O 0.67939 0.33384 0.10631 0.0
O240 O 0.72256 0.26672 0.07042 0.0
O241 O 0.74158 0.33073 0.01425 0.0
Sc242 Sc 0.45599 0.95816 0.2616 0.0
Sc243 Sc 0.41203 0.91829 0.20338 0.0
Sc244 Sc 0.43681 0.9013 0.3161 0.0
O245 O 0.43461 0.9264 0.26033 0.0
C246 C 0.49364 0.91213 0.29129 0.0
C247 C 0.46131 0.94344 0.1508 0.0
C248 C 0.42769 0.86367 0.22553 0.0
C249 C 0.4021 0.97733 0.21522 0.0
C250 C 0.44634 0.95482 0.37121 0.0
C251 C 0.37926 0.90262 0.30034 0.0
O252 O 0.48898 0.93645 0.29028 0.0
O253 O 0.43866 0.9339 0.14854 0.0
O254 O 0.4256 0.86811 0.27144 0.0
O255 O 0.42493 0.98167 0.23097 0.0
O256 O 0.4483 0.93033 0.36967 0.0
O257 O 0.38291 0.90195 0.25359 0.0
O258 O 0.44203 0.96796 0.33288 0.0
O259 O 0.39323 0.95474 0.20835 0.0
O260 O 0.39711 0.9079 0.3309 0.0
O261 O 0.47152 0.95069 0.19077 0.0
O262 O 0.47606 0.89529 0.29747 0.0
O263 O 0.43066 0.88185 0.19496 0.0
Sc264 Sc 0.20112 0.28464 0.52974 0.0
Sc265 Sc 0.17426 0.34224 0.56305 0.0
Sc266 Sc 0.14544 0.30525 0.47261 0.0
O267 O 0.17399 0.31102 0.52046 0.0
C268 C 0.19574 0.28348 0.41704 0.0
C269 C 0.23126 0.33916 0.54085 0.0
C270 C 0.15138 0.36303 0.45962 0.0
C271 C 0.19388 0.29902 0.63707 0.0
C272 C 0.15037 0.25104 0.52131 0.0
C273 C 0.11735 0.32847 0.56725 0.0
O274 O 0.21041 0.28629 0.45399 0.0
O275 O 0.21118 0.35299 0.53594 0.0
O276 O 0.15351 0.34137 0.43808 0.0
O277 O 0.19162 0.28155 0.60505 0.0
O278 O 0.13605 0.26959 0.50769 0.0
O279 O 0.13806 0.33082 0.5915 0.0
O280 O 0.17491 0.25227 0.51981 0.0
O281 O 0.19288 0.32293 0.62591 0.0
O282 O 0.11696 0.32396 0.52096 0.0
O283 O 0.23025 0.31447 0.54388 0.0
O284 O 0.17124 0.28624 0.41956 0.0
O285 O 0.15528 0.36564 0.50591 0.0
Sc286 Sc 0.96569 0.95726 0.2892 0.0
Sc287 Sc 0.90026 0.94912 0.28074 0.0
Sc288 Sc 0.94188 0.90383 0.22824 0.0
O289 O 0.93584 0.93658 0.26518 0.0
C290 C 0.9818 0.94529 0.18203 0.0
C291 C 0.92325 0.00113 0.26621 0.0
C292 C 0.89311 0.92342 0.17344 0.0
C293 C 0.93193 0.95997 0.37972 0.0
C294 C 0.98735 0.90054 0.30247 0.0
C295 C 0.89634 0.89024 0.3045 0.0
O296 O 0.97878 0.96203 0.21585 0.0
O297 O 0.90823 0.98514 0.2457 0.0
O298 O 0.91578 0.91446 0.17182 0.0
O299 O 0.9526 0.95103 0.36179 0.0
O300 O 0.9683 0.88976 0.28199 0.0
O301 O 0.89188 0.91357 0.31616 0.0
O302 O 0.99122 0.92473 0.30006 0.0
O303 O 0.91223 0.96492 0.35297 0.0
O304 O 0.9116 0.88357 0.26963 0.0
O305 O 0.94411 0.99354 0.28648 0.0
O306 O 0.97222 0.92244 0.18416 0.0
O307 O 0.88402 0.9347 0.21153 0.0
Sc308 Sc 0.33419 0.67678 0.98188 0.0
Sc309 Sc 0.29755 0.6355 0.05347 0.0
Sc310 Sc 0.27839 0.69842 0.03812 0.0
O311 O 0.30325 0.67037 0.02376 0.0
C312 C 0.33306 0.72662 0.04641 0.0
C313 C 0.35508 0.6424 0.07162 0.0
C314 C 0.27701 0.67214 0.13852 0.0
C315 C 0.32301 0.62217 0.94897 0.0
C316 C 0.29046 0.71054 0.92868 0.0
C317 C 0.24293 0.64772 0.02033 0.0
O318 O 0.3458 0.70832 0.02705 0.0
O319 O 0.33312 0.63914 0.09138 0.0
O320 O 0.28277 0.69214 0.11441 0.0
O321 O 0.32371 0.6455 0.93506 0.0
O322 O 0.27388 0.70711 0.96239 0.0
O323 O 0.26192 0.63242 0.01549 0.0
O324 O 0.3137 0.70263 0.93205 0.0
O325 O 0.31739 0.61583 0.9931 0.0
O326 O 0.24576 0.67139 0.03323 0.0
O327 O 0.35806 0.65161 0.02822 0.0
O328 O 0.30847 0.72729 0.04696 0.0
O329 O 0.27699 0.64979 0.11891 0.0
Sc330 Sc 0.54843 0.09127 0.71939 0.0
Sc331 Sc 0.58789 0.05963 0.80315 0.0
Sc332 Sc 0.53223 0.03062 0.76365 0.0
O333 O 0.55628 0.06042 0.76134 0.0
C334 C 0.49463 0.07938 0.76492 0.0
C335 C 0.56944 0.11525 0.82038 0.0
C336 C 0.54651 0.03223 0.87274 0.0
C337 C 0.6069 0.08893 0.70505 0.0
C338 C 0.53041 0.04355 0.65262 0.0
C339 C 0.58861 0.00401 0.76725 0.0
O340 O 0.51195 0.09561 0.75368 0.0
O341 O 0.57516 0.09352 0.83896 0.0
O342 O 0.52903 0.03374 0.8406 0.0
O343 O 0.58506 0.08837 0.68409 0.0
O344 O 0.53398 0.0269 0.68616 0.0
O345 O 0.60069 0.02532 0.76796 0.0
O346 O 0.53175 0.06786 0.66028 0.0
O347 O 0.61008 0.0825 0.75007 0.0
O348 O 0.564 0.00285 0.77003 0.0
O349 O 0.56369 0.11808 0.77486 0.0
O350 O 0.49794 0.055 0.76183 0.0
O351 O 0.57012 0.03684 0.86283 0.0
H352 H 0.21424 0.18716 0.91001 0.0
H353 H 0.12914 0.05931 0.89009 0.0
H354 H 0.22212 0.12262 0.00948 0.0
H355 H 0.13915 0.1123 0.76899 0.0
H356 H 0.16092 0.08364 0.93745 0.0
H357 H 0.18222 0.1626 0.86301 0.0
C358 C 0.20868 0.16813 0.92277 0.0
C359 C 0.2208 0.15685 0.96365 0.0
C360 C 0.15648 0.08976 0.90026 0.0
C361 C 0.18481 0.12856 0.90964 0.0
C362 C 0.13856 0.07574 0.8731 0.0
C363 C 0.13173 0.08375 0.82555 0.0
C364 C 0.16727 0.11225 0.88007 0.0
C365 C 0.1442 0.10532 0.80532 0.0
C366 C 0.19077 0.15397 0.89547 0.0
C367 C 0.21322 0.13198 0.97813 0.0
N368 N 0.16116 0.1191 0.83302 0.0
N369 N 0.19579 0.11861 0.95102 0.0
H370 H 0.667 0.35376 0.18596 0.0
H371 H 0.65119 0.50618 0.19981 0.0
H372 H 0.70174 0.40668 0.08216 0.0
H373 H 0.59347 0.45187 0.24943 0.0
H374 H 0.67971 0.47023 0.18039 0.0
H375 H 0.65113 0.39044 0.23322 0.0
C376 C 0.67188 0.37305 0.17363 0.0
C377 C 0.68507 0.37715 0.12904 0.0
C378 C 0.66097 0.46628 0.1963 0.0
C379 C 0.66703 0.41902 0.18335 0.0
C380 C 0.6446 0.48673 0.20742 0.0
C381 C 0.61961 0.482 0.22538 0.0
C382 C 0.65244 0.44094 0.20369 0.0
C383 C 0.61236 0.45638 0.23483 0.0
C384 C 0.6627 0.39393 0.20066 0.0
C385 C 0.69117 0.40261 0.11566 0.0
N386 N 0.62865 0.43674 0.22341 0.0
N387 N 0.68171 0.42266 0.14234 0.0
H388 H 0.34913 0.86403 0.26356 0.0
H389 H 0.24701 0.86539 0.48115 0.0
H390 H 0.35527 0.91741 0.38496 0.0
H391 H 0.26906 0.79505 0.40714 0.0
H392 H 0.28169 0.88824 0.43801 0.0
H393 H 0.3134 0.84241 0.30611 0.0
C394 C 0.34254 0.87155 0.2986 0.0
C395 C 0.35503 0.89253 0.32087 0.0
C396 C 0.27903 0.86777 0.4316 0.0
C397 C 0.3146 0.8679 0.36953 0.0
C398 C 0.25938 0.85473 0.45623 0.0
C399 C 0.25542 0.8283 0.44791 0.0
C400 C 0.29432 0.85439 0.39753 0.0
C401 C 0.27178 0.81537 0.41504 0.0
C402 C 0.32246 0.85902 0.32307 0.0
C403 C 0.3461 0.90126 0.36668 0.0
N404 N 0.2904 0.82863 0.39051 0.0
N405 N 0.32635 0.88892 0.38954 0.0
H406 H 0.81951 0.59942 0.55796 0.0
H407 H 0.92947 0.548 0.73526 0.0
H408 H 0.8682 0.65102 0.64128 0.0
H409 H 0.86216 0.50275 0.69883 0.0
H410 H 0.90875 0.58588 0.69847 0.0
H411 H 0.8367 0.56306 0.60544 0.0
C412 C 0.83375 0.60311 0.58624 0.0
C413 C 0.84244 0.62828 0.59561 0.0
C414 C 0.89845 0.56769 0.69917 0.0
C415 C 0.86226 0.58685 0.64973 0.0
C416 C 0.91024 0.54608 0.7202 0.0
C417 C 0.89765 0.52209 0.71994 0.0
C418 C 0.87412 0.56515 0.67699 0.0
C419 C 0.87269 0.5208 0.69988 0.0
C420 C 0.84344 0.58239 0.6135 0.0
C421 C 0.86086 0.63195 0.63292 0.0
N422 N 0.86191 0.54192 0.67861 0.0
N423 N 0.87034 0.61144 0.65829 0.0
H424 H 0.76429 0.89005 0.98074 0.0
H425 H 0.84506 0.94294 0.15099 0.0
H426 H 0.80054 0.82085 0.03611 0.0
H427 H 0.90196 0.88779 0.10149 0.0
H428 H 0.81485 0.92539 0.09019 0.0
H429 H 0.80253 0.91477 0.00387 0.0
C430 C 0.7807 0.87985 -0.00402 0.0
C431 C 0.77891 0.85349 0.00819 0.0
C432 C 0.83426 0.91773 0.09178 0.0
C433 C 0.82234 0.88169 0.03481 0.0
C434 C 0.85139 0.92761 0.12672 0.0
C435 C 0.87599 0.91674 0.13174 0.0
C436 C 0.84165 0.89653 0.06259 0.0
C437 C 0.88316 0.89678 0.0992 0.0
C438 C 0.80232 0.89407 0.00962 0.0
C439 C 0.80092 0.84119 0.02684 0.0
N440 N 0.86584 0.88685 0.06699 0.0
N441 N 0.82161 0.85556 0.04073 0.0
H442 H 0.44113 0.52848 0.82666 0.0
H443 H 0.31859 0.61849 0.84891 0.0
H444 H 0.37721 0.51689 0.72739 0.0
H445 H 0.35591 0.5838 0.97455 0.0
H446 H 0.34475 0.59096 0.7943 0.0
H447 H 0.416 0.56126 0.87015 0.0
C448 C 0.42222 0.53355 0.81277 0.0
C449 C 0.41111 0.51987 0.77359 0.0
C450 C 0.34694 0.58936 0.83385 0.0
C451 C 0.38239 0.55699 0.82339 0.0
C452 C 0.33198 0.60479 0.86488 0.0
C453 C 0.3349 0.60302 0.91616 0.0
C454 C 0.36548 0.5729 0.85446 0.0
C455 C 0.35276 0.58535 0.93524 0.0
C456 C 0.40779 0.55193 0.83808 0.0
C457 C 0.38636 0.52698 0.75762 0.0
N458 N 0.36766 0.5712 0.90431 0.0
N459 N 0.37264 0.54499 0.78291 0.0
H460 H 0.61653 0.08543 0.60642 0.0
H461 H 0.7231 0.19534 0.60692 0.0
H462 H 0.64563 0.1193 0.74044 0.0
H463 H 0.7273 0.13196 0.50398 0.0
H464 H 0.68622 0.17449 0.64659 0.0
H465 H 0.65019 0.10824 0.55989 0.0
C466 C 0.63013 0.09752 0.62602 0.0
C467 C 0.62853 0.10034 0.67734 0.0
C468 C 0.69502 0.16541 0.61482 0.0
C469 C 0.66619 0.12703 0.62437 0.0
C470 C 0.71583 0.17741 0.59175 0.0
C471 C 0.72839 0.16525 0.55226 0.0
C472 C 0.68634 0.14142 0.59756 0.0
C473 C 0.71823 0.1419 0.53449 0.0
C474 C 0.64918 0.11053 0.59949 0.0
C475 C 0.64646 0.11635 0.701 0.0
N476 N 0.69779 0.13066 0.55737 0.0
N477 N 0.66441 0.12934 0.67423 0.0
H478 H 0.12061 0.40175 0.49456 0.0
H479 H 0.09799 0.47266 0.24046 0.0
H480 H 0.15365 0.37185 0.36032 0.0
H481 H 0.0411 0.47247 0.35659 0.0
H482 H 0.1212 0.43813 0.28339 0.0
H483 H 0.09527 0.43238 0.44575 0.0
C484 C 0.12293 0.40198 0.45491 0.0
C485 C 0.13937 0.38432 0.43146 0.0
C486 C 0.10341 0.44542 0.29894 0.0
C487 C 0.1102 0.41902 0.37549 0.0
C488 C 0.09003 0.46497 0.27432 0.0
C489 C 0.06768 0.47575 0.29516 0.0
C490 C 0.09466 0.43698 0.34513 0.0
C491 C 0.05828 0.46493 0.33914 0.0
C492 C 0.10817 0.41917 0.42707 0.0
C493 C 0.14123 0.38518 0.37984 0.0
N494 N 0.07212 0.44656 0.36321 0.0
N495 N 0.1269 0.40232 0.35355 0.0
H496 H 0.60704 0.58221 0.42977 0.0
H497 H 0.70221 0.65859 0.5325 0.0
H498 H 0.6618 0.57889 0.30993 0.0
H499 H 0.7556 0.61067 0.45148 0.0
H500 H 0.66673 0.63245 0.50092 0.0
H501 H 0.64152 0.59564 0.48492 0.0
C502 C 0.62634 0.58412 0.41499 0.0
C503 C 0.63142 0.57995 0.36469 0.0
C504 C 0.68628 0.62713 0.4914 0.0
C505 C 0.67082 0.59552 0.42787 0.0
C506 C 0.70657 0.64211 0.50939 0.0
C507 C 0.73185 0.63721 0.49367 0.0
C508 C 0.69146 0.60734 0.45736 0.0
C509 C 0.73634 0.61555 0.46367 0.0
C510 C 0.64594 0.59194 0.4466 0.0
C511 C 0.65689 0.58234 0.34811 0.0
N512 N 0.71627 0.60184 0.44541 0.0
N513 N 0.67565 0.59013 0.37965 0.0
H514 H 0.12417 0.88011 0.52055 0.0
H515 H 0.12525 0.98291 0.73674 0.0
H516 H 0.17563 0.87216 0.64448 0.0
H517 H 0.05568 0.96191 0.65951 0.0
H518 H 0.1478 0.94715 0.69605 0.0
H519 H 0.10323 0.91652 0.56202 0.0
C520 C 0.13147 0.88645 0.55592 0.0
C521 C 0.15168 0.87324 0.57918 0.0
C522 C 0.12754 0.95027 0.68849 0.0
C523 C 0.12772 0.91445 0.62672 0.0
C524 C 0.11468 0.97051 0.71175 0.0
C525 C 0.08856 0.97513 0.70169 0.0
C526 C 0.11434 0.93508 0.65402 0.0
C527 C 0.07573 0.95872 0.66876 0.0
C528 C 0.11928 0.90692 0.57979 0.0
C529 C 0.16008 0.8819 0.62542 0.0
N530 N 0.08886 0.93958 0.64553 0.0
N531 N 0.14807 0.90205 0.64775 0.0
H532 H 0.86613 0.42759 0.90435 0.0
H533 H 0.78062 0.2991 0.90951 0.0
H534 H 0.85405 0.37984 0.77635 0.0
H535 H 0.78574 0.35333 0.02969 0.0
H536 H 0.81109 0.3256 0.8626 0.0
H537 H 0.83781 0.39941 0.95161 0.0
C538 C 0.85694 0.41148 0.88593 0.0
C539 C 0.86222 0.40612 0.83637 0.0
C540 C 0.8058 0.33148 0.89951 0.0
C541 C 0.83051 0.37316 0.89063 0.0
C542 C 0.78872 0.31616 0.92659 0.0
C543 C 0.78033 0.3243 0.97322 0.0
C544 C 0.8147 0.35483 0.91965 0.0
C545 C 0.79148 0.34652 0.99361 0.0
C546 C 0.84103 0.39519 0.91304 0.0
C547 C 0.8501 0.38484 0.81432 0.0
N548 N 0.80783 0.36116 0.96648 0.0
N549 N 0.83497 0.36891 0.84181 0.0
H550 H 0.36033 0.97603 0.15429 0.0
H551 H 0.33474 0.1274 0.16407 0.0
H552 H 0.40656 0.02852 0.24076 0.0
H553 H 0.31662 0.08093 0.03651 0.0
H554 H 0.35193 0.0892 0.20477 0.0
H555 H 0.33557 0.01263 0.12325 0.0
C556 C 0.36509 0.99522 0.16732 0.0
C557 C 0.38569 -0.00075 0.20005 0.0
C558 C 0.34395 0.08737 0.16808 0.0
C559 C 0.35725 0.04108 0.16469 0.0
C560 C 0.33397 0.10912 0.14477 0.0
C561 C 0.32447 0.10748 0.09635 0.0
C562 C 0.34415 0.06372 0.1432 0.0
C563 C 0.32394 0.08316 0.07359 0.0
C564 C 0.35099 0.01606 0.14933 0.0
C565 C 0.39099 0.02456 0.21534 0.0
N566 N 0.3338 0.0622 0.09716 0.0
N567 N 0.37683 0.04458 0.19747 0.0
H568 H 0.33611 0.42859 0.7135 0.0
H569 H 0.28022 0.31916 0.54082 0.0
H570 H 0.38481 0.37649 0.63101 0.0
H571 H 0.23768 0.38906 0.57138 0.0
H572 H 0.3187 0.33921 0.57604 0.0
H573 H 0.29906 0.41364 0.66498 0.0
C574 C 0.33907 0.4142 0.68513 0.0
C575 C 0.36362 0.40373 0.67662 0.0
C576 C 0.30101 0.35027 0.57433 0.0
C577 C 0.32146 0.38647 0.62151 0.0
C578 C 0.27907 0.33885 0.55414 0.0
C579 C 0.25567 0.35238 0.55325 0.0
C580 C 0.29939 0.37518 0.59467 0.0
C581 C 0.25531 0.37788 0.57116 0.0
C582 C 0.31797 0.40576 0.65735 0.0
C583 C 0.36631 0.38515 0.63914 0.0
N584 N 0.27673 0.3883 0.59189 0.0
N585 N 0.34549 0.37694 0.61344 0.0
H586 H 0.85616 0.0938 0.48573 0.0
H587 H 0.88026 0.02601 0.23061 0.0
H588 H 0.82465 0.12799 0.3539 0.0
H589 H 0.93943 0.03196 0.34189 0.0
H590 H 0.85517 0.05889 0.27469 0.0
H591 H 0.88082 0.06368 0.43457 0.0
C592 C 0.85384 0.09445 0.44609 0.0
C593 C 0.83825 0.11328 0.42395 0.0
C594 C 0.87384 0.05319 0.28881 0.0
C595 C 0.86665 0.07928 0.36546 0.0
C596 C 0.88828 0.03463 0.26355 0.0
C597 C 0.91188 0.02591 0.28285 0.0
C598 C 0.88283 0.06256 0.33409 0.0
C599 C 0.9213 0.03786 0.32568 0.0
C600 C 0.86824 0.0776 0.41697 0.0
C601 C 0.83641 0.11366 0.3723 0.0
N602 N 0.90647 0.0551 0.35049 0.0
N603 N 0.85044 0.09685 0.34467 0.0
H604 H 0.13889 0.55151 0.15877 0.0
H605 H 0.19602 0.67167 0.03331 0.0
H606 H 0.08876 0.61198 0.10533 0.0
H607 H 0.23049 0.59659 0.01089 0.0
H608 H 0.1557 0.65036 0.05639 0.0
H609 H 0.17247 0.56682 0.10252 0.0
C610 C 0.13474 0.56762 0.13458 0.0
C611 C 0.11111 0.58069 0.13741 0.0
C612 C 0.17197 0.63862 0.04524 0.0
C613 C 0.14951 0.59857 0.07392 0.0
C614 C 0.19499 0.65078 0.03204 0.0
C615 C 0.21691 0.63596 0.02123 0.0
C616 C 0.17111 0.61155 0.0486 0.0
C617 C 0.21429 0.60889 0.01985 0.0
C618 C 0.15388 0.57632 0.10241 0.0
C619 C 0.10676 0.60141 0.10486 0.0
N620 N 0.19204 0.59755 0.03472 0.0
N621 N 0.126 0.61012 0.07536 0.0
H622 H 0.63301 0.85744 0.8853 0.0
H623 H 0.64105 -9e-05 0.7764 0.0
H624 H 0.68737 0.91486 0.93585 0.0
H625 H 0.57151 0.95394 0.77682 0.0
H626 H 0.66445 0.9636 0.81194 0.0
H627 H 0.61704 0.88795 0.82439 0.0
C628 C 0.64186 0.87636 0.88334 0.0
C629 C 0.66133 0.88373 0.91656 0.0
C630 C 0.64419 0.96136 0.80333 0.0
C631 C 0.64309 0.91862 0.84621 0.0
C632 C 0.63075 0.98201 0.78274 0.0
C633 C 0.60401 0.98024 0.77471 0.0
C634 C 0.63091 0.93868 0.81533 0.0
C635 C 0.59197 0.95637 0.78311 0.0
C636 C 0.63266 0.89373 0.84843 0.0
C637 C 0.67212 0.90844 0.91156 0.0
N638 N 0.60545 0.93661 0.80366 0.0
N639 N 0.66269 0.92512 0.87727 0.0
H640 H 0.3769 0.18047 0.87888 0.0
H641 H 0.46729 0.05767 0.84042 0.0
H642 H 0.393 0.12637 -0.00444 0.0
H643 H 0.4708 0.12528 0.7477 0.0
H644 H 0.43576 0.07981 0.89297 0.0
H645 H 0.40887 0.15891 0.82719 0.0
C646 C 0.38773 0.1644 0.89394 0.0
C647 C 0.38268 0.15532 0.94158 0.0
C648 C 0.44327 0.08965 0.86081 0.0
C649 C 0.4184 0.12988 0.88213 0.0
C650 C 0.46087 0.07688 0.83036 0.0
C651 C 0.47149 0.08965 0.78952 0.0
C652 C 0.4361 0.11518 0.84986 0.0
C653 C 0.46299 0.11475 0.77878 0.0
C654 C 0.40576 0.15195 0.86435 0.0
C655 C 0.39678 0.13417 0.95926 0.0
N656 N 0.44583 0.1267 0.80879 0.0
N657 N 0.41383 0.12188 0.92921 0.0
H658 H 0.60746 0.65021 0.2845 0.0
H659 H 0.62221 0.74114 0.04826 0.0
H660 H 0.56197 0.64393 0.1523 0.0
H661 H 0.68086 0.73698 0.16082 0.0
H662 H 0.59662 0.71005 0.09332 0.0
H663 H 0.63033 0.68729 0.24813 0.0
C664 C 0.60167 0.65727 0.24859 0.0
C665 C 0.58272 0.64426 0.22132 0.0
C666 C 0.61509 0.71579 0.10833 0.0
C667 C 0.60902 0.68587 0.17936 0.0
C668 C 0.62983 0.73358 0.08251 0.0
C669 C 0.65384 0.74169 0.10067 0.0
C670 C 0.62423 0.70579 0.15297 0.0
C671 C 0.66259 0.73106 0.14524 0.0
C672 C 0.61499 0.67808 0.22759 0.0
C673 C 0.57637 0.65359 0.17451 0.0
N674 N 0.64772 0.71362 0.17005 0.0
N675 N 0.58957 0.67371 0.15495 0.0
H676 H 0.01775 0.91579 0.37916 0.0
H677 H 0.09315 0.78528 0.4049 0.0
H678 H -0.0041 0.84859 0.29483 0.0
H679 H 0.08643 0.83901 0.5256 0.0
H680 H 0.05779 0.80753 0.36291 0.0
H681 H 0.04485 0.88834 0.43107 0.0
C682 C 0.01882 0.8953 0.37135 0.0
C683 C 0.0048 0.88446 0.33237 0.0
C684 C 0.06366 0.81406 0.39909 0.0
C685 C 0.03548 0.85303 0.39173 0.0
C686 C 0.0837 0.80133 0.42309 0.0
C687 C 0.09265 0.81042 0.4686 0.0
C688 C 0.05308 0.83639 0.42026 0.0
C689 C 0.07995 0.83133 0.49064 0.0
C690 C 0.03399 0.87962 0.40136 0.0
C691 C 0.00651 0.85772 0.32441 0.0
N692 N 0.06113 0.84402 0.46571 0.0
N693 N 0.02182 0.84292 0.35354 0.0
H694 H 0.85148 0.29536 0.51277 0.0
H695 H 0.91599 0.33533 0.7557 0.0
H696 H 0.88821 0.23444 0.59536 0.0
H697 H 0.93488 0.37583 0.62125 0.0
H698 H 0.90134 0.29839 0.70573 0.0
H699 H 0.87623 0.32722 0.56028 0.0
C700 C 0.86495 0.28877 0.54056 0.0
C701 C 0.86818 0.26242 0.54992 0.0
C702 C 0.90921 0.31529 0.68762 0.0
C703 C 0.89558 0.29839 0.6051 0.0
C704 C 0.91764 0.33626 0.71598 0.0
C705 C 0.92615 0.35891 0.69263 0.0
C706 C 0.90893 0.31744 0.63605 0.0
C707 C 0.92787 0.35904 0.64091 0.0
C708 C 0.879 0.30682 0.5675 0.0
C709 C 0.88561 0.2547 0.58671 0.0
N710 N 0.91873 0.33891 0.61437 0.0
N711 N 0.89842 0.27268 0.61373 0.0
H712 H 0.59664 0.82247 0.11928 0.0
H713 H 0.53576 0.94076 0.26311 0.0
H714 H 0.63669 0.89488 0.13894 0.0
H715 H 0.50991 0.86208 0.2831 0.0
H716 H 0.57337 0.92458 0.21877 0.0
H717 H 0.56383 0.83709 0.1779 0.0
C718 C 0.59847 0.84143 0.13574 0.0
C719 C 0.61935 0.8575 0.12409 0.0
C720 C 0.55966 0.91087 0.23363 0.0
C721 C 0.58214 0.87424 0.19115 0.0
C722 C 0.53825 0.92009 0.25926 0.0
C723 C 0.51939 0.90281 0.27626 0.0
C724 C 0.56201 0.88426 0.22451 0.0
C725 C 0.52374 0.87619 0.27013 0.0
C726 C 0.57992 0.84967 0.16952 0.0
C727 C 0.62093 0.88182 0.14689 0.0
N728 N 0.54435 0.86776 0.24396 0.0
N729 N 0.60249 0.88951 0.17906 0.0
H730 H 0.31687 0.29499 0.01797 0.0
H731 H 0.42906 0.33391 0.83731 0.0
H732 H 0.38383 0.24669 -0.00365 0.0
H733 H 0.38136 0.39097 0.9092 0.0
H734 H 0.41208 0.30111 0.8937 0.0
H735 H 0.33964 0.33054 0.97754 0.0
C736 C 0.33647 0.29198 0.00547 0.0
C737 C 0.34836 0.26778 0.01019 0.0
C738 C 0.40561 0.3209 0.89739 0.0
C739 C 0.37423 0.30808 0.96319 0.0
C740 C 0.41517 0.33956 0.86509 0.0
C741 C 0.40649 0.36515 0.86831 0.0
C742 C 0.38692 0.32784 0.93242 0.0
C743 C 0.3886 0.37146 0.90529 0.0
C744 C 0.34944 0.31225 0.98243 0.0
C745 C 0.37385 0.26499 0.99341 0.0
N746 N 0.37914 0.35286 0.93548 0.0
N747 N 0.38578 0.28477 0.96989 0.0
H748 H 0.89865 0.11887 0.54571 0.0
H749 H 0.97503 0.12504 0.7986 0.0
H750 H 0.88306 0.17747 0.65441 0.0
H751 H 0.96055 0.0535 0.72183 0.0
H752 H 0.94521 0.14699 0.7427 0.0
H753 H 0.92796 0.0976 0.6043 0.0
C754 C 0.90209 0.12761 0.58136 0.0
C755 C 0.88887 0.14996 0.59549 0.0
C756 C 0.94829 0.1264 0.73869 0.0
C757 C 0.92138 0.12572 0.6624 0.0
C758 C 0.96504 0.11385 0.77082 0.0
C759 C 0.9702 0.08745 0.76485 0.0
C760 C 0.93714 0.11252 0.6998 0.0
C761 C 0.95696 0.07384 0.72799 0.0
C762 C 0.91833 0.1153 0.61496 0.0
C763 C 0.89323 0.16032 0.64238 0.0
N764 N 0.94136 0.08666 0.69619 0.0
N765 N 0.90916 0.1481 0.67432 0.0
H766 H 0.06849 0.6582 0.33612 0.0
H767 H 0.18637 0.69234 0.5125 0.0
H768 H 0.13609 0.61003 0.34823 0.0
H769 H 0.10991 0.72417 0.53014 0.0
H770 H 0.16958 0.66306 0.44977 0.0
H771 H 0.08576 0.68597 0.40129 0.0
C772 C 0.08721 0.65383 0.35173 0.0
C773 C 0.10088 0.63183 0.33703 0.0
C774 C 0.15645 0.67623 0.46796 0.0
C775 C 0.1204 0.66295 0.41192 0.0
C776 C 0.16596 0.69276 0.50418 0.0
C777 C 0.14962 0.711 0.52628 0.0
C778 C 0.13054 0.67816 0.45354 0.0
C779 C 0.12333 0.71065 0.51379 0.0
C780 C 0.09686 0.66939 0.38939 0.0
C781 C 0.12489 0.62677 0.35885 0.0
N782 N 0.1147 0.69481 0.47766 0.0
N783 N 0.13387 0.64217 0.39535 0.0
H784 H 0.87948 0.71241 0.38115 0.0
H785 H 0.97313 0.59732 0.39067 0.0
H786 H 0.90665 0.68304 0.52017 0.0
H787 H 0.98314 0.6546 0.27674 0.0
H788 H 0.94683 0.62808 0.4371 0.0
H789 H 0.91709 0.69329 0.34046 0.0
C790 C 0.89408 0.703 0.40335 0.0
C791 C 0.89023 0.69941 0.45399 0.0
C792 C 0.95497 0.63396 0.40211 0.0
C793 C 0.93214 0.67629 0.40764 0.0
C794 C 0.9696 0.61631 0.37528 0.0
C795 C 0.97999 0.62336 0.32956 0.0
C796 C 0.95018 0.6586 0.38253 0.0
C797 C 0.97529 0.6484 0.31175 0.0
C798 C 0.91533 0.69185 0.38012 0.0
C799 C 0.90922 0.68648 0.48112 0.0
N800 N 0.96034 0.66503 0.33793 0.0
N801 N 0.92902 0.67466 0.45737 0.0
H802 H 0.171 0.22013 0.59269 0.0
H803 H 0.04567 0.13538 0.63466 0.0
H804 H 0.10104 0.23328 0.51042 0.0
H805 H 0.10244 0.1471 0.74834 0.0
H806 H 0.06622 0.16924 0.58547 0.0
H807 H 0.14779 0.18945 0.64503 0.0
C808 C 0.15092 0.21612 0.5849 0.0
C809 C 0.13797 0.22911 0.54684 0.0
C810 C 0.0739 0.16475 0.62155 0.0
C811 C 0.11126 0.19447 0.60718 0.0
C812 C 0.06207 0.14562 0.64974 0.0
C813 C 0.07232 0.13865 0.69565 0.0
C814 C 0.09652 0.17648 0.63887 0.0
C815 C 0.09379 0.15219 0.71337 0.0
C816 C 0.1376 0.19896 0.61532 0.0
C817 C 0.11178 0.2236 0.5392 0.0
N818 N 0.10551 0.17019 0.68451 0.0
N819 N 0.09929 0.20663 0.56903 0.0
H820 H 0.64508 0.38317 0.91577 0.0
H821 H 0.50333 0.35734 0.81583 0.0
H822 H 0.59431 0.3257 0.97796 0.0
H823 H 0.54604 0.42692 0.78292 0.0
H824 H 0.53823 0.34326 0.86933 0.0
H825 H 0.61012 0.39805 0.863 0.0
C826 C 0.62645 0.37383 0.9186 0.0
C827 C 0.62254 0.35311 0.95113 0.0
C828 C 0.53999 0.36156 0.85028 0.0
C829 C 0.58261 0.36982 0.89031 0.0
C830 C 0.52018 0.36955 0.81929 0.0
C831 C 0.52171 0.39343 0.79481 0.0
C832 C 0.5616 0.37743 0.85664 0.0
C833 C 0.54402 0.40838 0.80097 0.0
C834 C 0.60653 0.38234 0.88844 0.0
C835 C 0.59804 0.34182 0.95356 0.0
N836 N 0.5631 0.40014 0.8314 0.0
N837 N 0.579 0.35017 0.92307 0.0
H838 H 0.31663 0.75683 0.12278 0.0
H839 H 0.44341 0.84069 0.14051 0.0
H840 H 0.38297 0.74135 0.03139 0.0
H841 H 0.39174 0.83091 0.26365 0.0
H842 H 0.42138 0.80544 0.09777 0.0
H843 H 0.34268 0.78687 0.17142 0.0
C844 C 0.33657 0.76001 0.11257 0.0
C845 C 0.34764 0.74674 0.07282 0.0
C846 C 0.4152 0.81068 0.13454 0.0
C847 C 0.37751 0.7807 0.12851 0.0
C848 C 0.42785 0.83064 0.15899 0.0
C849 C 0.41936 0.83864 0.20557 0.0
C850 C 0.39356 0.79914 0.15641 0.0
C851 C 0.399 0.82517 0.2279 0.0
C852 C 0.35149 0.77684 0.14072 0.0
C853 C 0.37368 0.75124 0.06171 0.0
N854 N 0.38643 0.80636 0.20266 0.0
N855 N 0.38772 0.76798 0.08925 0.0
H856 H 0.09809 0.30888 0.65164 0.0
H857 H 0.02918 0.44229 0.71317 0.0
H858 H 0.08683 0.36919 0.5444 0.0
H859 H 0.01928 0.37405 0.8026 0.0
H860 H 0.05533 0.41717 0.6557 0.0
H861 H 0.0709 0.33259 0.70967 0.0
C862 C 0.08896 0.32666 0.63979 0.0
C863 C 0.0942 0.33699 0.59317 0.0
C864 C 0.04772 0.40781 0.68829 0.0
C865 C 0.06454 0.36488 0.65991 0.0
C866 C 0.03328 0.42226 0.72169 0.0
C867 C 0.02205 0.41019 0.76269 0.0
C868 C 0.05116 0.38124 0.69639 0.0
C869 C 0.0276 0.38405 0.77137 0.0
C870 C 0.07386 0.34039 0.67308 0.0
C871 C 0.08269 0.36042 0.57976 0.0
N872 N 0.04162 0.37037 0.73825 0.0
N873 N 0.06869 0.37387 0.61339 0.0
H874 H 0.83722 0.79719 0.54151 0.0
H875 H 0.87281 0.84551 0.27357 0.0
H876 H 0.79007 0.77781 0.41592 0.0
H877 H 0.88924 0.89098 0.40285 0.0
H878 H 0.84667 0.81617 0.32488 0.0
H879 H 0.85977 0.82919 0.49125 0.0
C880 C 0.83128 0.79999 0.50364 0.0
C881 C 0.8119 0.78461 0.48274 0.0
C882 C 0.85609 0.83259 0.3418 0.0
C883 C 0.8382 0.82048 0.42475 0.0
C884 C 0.8712 0.84904 0.31276 0.0
C885 C 0.88313 0.87053 0.33422 0.0
C886 C 0.85352 0.83753 0.39249 0.0
C887 C 0.88024 0.8746 0.38501 0.0
C888 C 0.84426 0.81812 0.47492 0.0
C889 C 0.805 0.78911 0.43341 0.0
N890 N 0.86586 0.85817 0.41249 0.0
N891 N 0.8185 0.80629 0.40572 0.0
H892 H 0.39754 0.6177 0.03542 0.0
H893 H 0.47101 0.6074 0.28918 0.0
H894 H 0.36282 0.64485 0.1702 0.0
H895 H 0.47695 0.54765 0.179 0.0
H896 H 0.43507 0.62644 0.24314 0.0
H897 H 0.43212 0.59759 0.08403 0.0
C898 C 0.39748 0.61976 0.07512 0.0
C899 C 0.3775 0.63291 0.09906 0.0
C900 C 0.44409 0.60898 0.2295 0.0
C901 C 0.41652 0.61014 0.15428 0.0
C902 C 0.46444 0.5981 0.25573 0.0
C903 C 0.47671 0.57587 0.23792 0.0
C904 C 0.43659 0.59795 0.18459 0.0
C905 C 0.46771 0.56462 0.19421 0.0
C906 C 0.41693 0.60807 0.10274 0.0
C907 C 0.37795 0.63478 0.15057 0.0
N908 N 0.44838 0.57604 0.16851 0.0
N909 N 0.39728 0.62362 0.17657 0.0
H910 H 0.57413 0.11525 0.92005 0.0
H911 H 0.61229 0.26224 0.952 0.0
H912 H 0.57312 0.16676 0.79473 0.0
H913 H 0.65593 0.19946 0.01511 0.0
H914 H 0.5849 0.23068 0.90922 0.0
H915 H 0.58994 0.15039 0.97115 0.0
C916 C 0.5768 0.13407 0.90333 0.0
C917 C 0.57303 0.1379 0.85259 0.0
C918 C 0.60026 0.22397 0.93304 0.0
C919 C 0.59069 0.17811 0.91139 0.0
C920 C 0.61575 0.2418 0.95755 0.0
C921 C 0.63633 0.23325 0.98692 0.0
C922 C 0.60505 0.19759 0.93931 0.0
C923 C 0.6403 0.2067 0.99259 0.0
C924 C 0.5858 0.15403 0.93265 0.0
C925 C 0.57615 0.16289 0.83347 0.0
N926 N 0.62467 0.18973 0.96906 0.0
N927 N 0.5852 0.18213 0.86291 0.0
H928 H 0.23101 0.21177 0.1378 0.0
H929 H 0.24689 0.28451 0.39468 0.0
H930 H 0.3047 0.23063 0.20237 0.0
H931 H 0.17309 0.26206 0.33481 0.0
H932 H 0.26811 0.26569 0.32358 0.0
H933 H 0.20951 0.2296 0.20976 0.0
C934 C 0.24272 0.21951 0.16734 0.0
C935 C 0.26975 0.2199 0.16388 0.0
C936 C 0.24728 0.26489 0.32582 0.0
C937 C 0.24509 0.24059 0.24633 0.0
C938 C 0.23507 0.27573 0.3664 0.0
C939 C 0.20809 0.27471 0.37095 0.0
C940 C 0.23251 0.2529 0.28924 0.0
C941 C 0.19389 0.26331 0.33282 0.0
C942 C 0.23037 0.22974 0.20839 0.0
C943 C 0.28386 0.22991 0.2035 0.0
N944 N 0.2063 0.25271 0.2936 0.0
N945 N 0.27132 0.24006 0.24298 0.0
H946 H 0.4413 0.47473 0.59831 0.0
H947 H 0.54601 0.4734 0.38367 0.0
H948 H 0.49949 0.41553 0.58787 0.0
H949 H 0.50196 0.54026 0.42808 0.0
H950 H 0.52467 0.44811 0.44804 0.0
H951 H 0.45717 0.49378 0.52208 0.0
C952 C 0.45706 0.4654 0.57904 0.0
C953 C 0.46935 0.44378 0.59922 0.0
C954 C 0.51976 0.46831 0.44359 0.0
C955 C 0.48812 0.46585 0.51322 0.0
C956 C 0.53196 0.48279 0.40713 0.0
C957 C 0.5258 0.50902 0.40072 0.0
C958 C 0.50108 0.48009 0.4733 0.0
C959 C 0.50748 0.5202 0.432 0.0
C960 C 0.46627 0.4764 0.53593 0.0
C961 C 0.48957 0.43223 0.57313 0.0
N962 N 0.49568 0.50562 0.46681 0.0
N963 N 0.49871 0.44373 0.53159 0.0
H964 H 0.19361 0.78636 0.71997 0.0
H965 H 0.31488 0.71529 0.83889 0.0
H966 H 0.261 0.76451 0.63633 0.0
H967 H 0.24697 0.73928 0.91887 0.0
H968 H 0.29838 0.73786 0.76593 0.0
H969 H 0.21605 0.77457 0.79535 0.0
C970 C 0.21323 0.77932 0.71751 0.0
C971 C 0.22527 0.77597 0.67178 0.0
C972 C 0.28727 0.7383 0.79968 0.0
C973 C 0.25101 0.76208 0.75786 0.0
C974 C 0.29664 0.7254 0.84121 0.0
C975 C 0.28207 0.72498 0.88472 0.0
C976 C 0.26327 0.75086 0.80203 0.0
C977 C 0.25867 0.73859 0.88588 0.0
C978 C 0.22607 0.77257 0.76057 0.0
C979 C 0.25089 0.76716 0.67082 0.0
N980 N 0.24996 0.75078 0.84511 0.0
N981 N 0.2628 0.76012 0.71325 0.0
H982 H -0.00149 0.57816 0.09603 0.0
H983 H 0.95578 0.4463 0.96971 0.0
H984 H 0.97826 0.50959 0.1783 0.0
H985 H 0.96032 0.51915 0.89232 0.0
H986 H 0.96238 0.46941 0.04732 0.0
H987 H 0.98254 0.5574 0.02128 0.0
C988 C 0.99043 0.55891 0.09857 0.0
C989 C 0.99009 0.54552 0.14347 0.0
C990 C 0.96169 0.4803 0.01328 0.0
C991 C 0.97209 0.52153 0.05804 0.0
C992 C 0.958 0.4671 0.969 0.0
C993 C 0.95782 0.4807 0.92432 0.0
C994 C 0.96541 0.50722 0.01272 0.0
C995 C 0.96059 0.50773 0.92571 0.0
C996 C 0.98134 0.54703 0.05586 0.0
C997 C 0.97924 0.52062 0.14447 0.0
N998 N 0.96451 0.52002 0.96907 0.0
N999 N 0.97099 0.50932 0.10231 0.0
H1000 H 0.67687 0.78308 0.85084 0.0
H1001 H 0.79473 0.71264 0.71744 0.0
H1002 H 0.73892 0.74485 0.92806 0.0
H1003 H 0.72787 0.74163 0.64026 0.0
H1004 H 0.7737 0.72308 0.79548 0.0
H1005 H 0.69397 0.7662 0.77321 0.0
C1006 C 0.69385 0.77091 0.85158 0.0
C1007 C 0.70666 0.7657 0.89594 0.0
C1008 C 0.7636 0.72701 0.7614 0.0
C1009 C 0.72644 0.7466 0.80753 0.0
C1010 C 0.77565 0.72113 0.71686 0.0
C1011 C 0.76317 0.72642 0.6722 0.0
C1012 C 0.73898 0.73841 0.76122 0.0
C1013 C 0.73834 0.73729 0.67374 0.0
C1014 C 0.70366 0.76134 0.80728 0.0
C1015 C 0.72859 0.74975 0.89471 0.0
N1016 N 0.72715 0.74307 0.71747 0.0
N1017 N 0.7379 0.741 0.85122 0.0
H1018 H 0.75177 0.2374 0.11809 0.0
H1019 H 0.75977 0.25467 0.40924 0.0
H1020 H 0.69451 0.27753 0.2046 0.0
H1021 H 0.81512 0.21036 0.32572 0.0
H1022 H 0.7368 0.26456 0.33375 0.0
H1023 H 0.77538 0.2274 0.19313 0.0
C1024 C 0.74402 0.24394 0.15296 0.0
C1025 C 0.72116 0.25847 0.15507 0.0
C1026 C 0.754 0.25274 0.33174 0.0
C1027 C 0.74833 0.24726 0.24106 0.0
C1028 C 0.76722 0.24713 0.37484 0.0
C1029 C 0.78929 0.23144 0.37376 0.0
C1030 C 0.76282 0.24259 0.28702 0.0
C1031 C 0.79821 0.22254 0.32813 0.0
C1032 C 0.75759 0.23827 0.19576 0.0
C1033 C 0.71198 0.26623 0.20126 0.0
N1034 N 0.78479 0.2281 0.28644 0.0
N1035 N 0.72572 0.26067 0.24247 0.0
H1036 H 0.04045 0.04753 0.96235 0.0
H1037 H 0.98457 0.92133 0.09156 0.0
H1038 H 0.02662 0.97613 0.88443 0.0
H1039 H 0.01088 0.98874 0.17067 0.0
H1040 H 0.00276 0.93953 0.01587 0.0
H1041 H 0.0322 0.02513 0.03986 0.0
C1042 C 0.03585 0.02713 0.96152 0.0
C1043 C 0.03394 0.01381 0.91674 0.0
C1044 C 0.0048 0.95015 0.04999 0.0
C1045 C 0.02434 0.98803 0.00532 0.0
C1046 C 0.99448 0.93973 0.09321 0.0
C1047 C -0.0042 0.9537 0.13738 0.0
C1048 C 0.01637 0.97471 0.0511 0.0
C1049 C 0.00895 0.97744 0.13734 0.0
C1050 C 0.03121 0.0143 0.00581 0.0
C1051 C 0.02813 0.98728 0.91802 0.0
N1052 N 0.01843 0.9873 0.09482 0.0
N1053 N 0.02326 0.97533 0.96154 0.0
H1054 H 0.54174 -0.00296 0.61284 0.0
H1055 H 0.44222 0.00664 0.3908 0.0
H1056 H 0.49801 0.06649 0.58534 0.0
H1057 H 0.47044 0.93504 0.45231 0.0
H1058 H 0.46416 0.03027 0.45659 0.0
H1059 H 0.51955 0.97598 0.54513 0.0
C1060 C 0.52769 0.008 0.59194 0.0
C1061 C 0.52146 0.03344 0.60498 0.0
C1062 C 0.46528 0.00938 0.45584 0.0
C1063 C 0.49559 0.00924 0.52792 0.0
C1064 C 0.45266 0.99584 0.41855 0.0
C1065 C 0.45469 0.96879 0.41578 0.0
C1066 C 0.48019 0.99576 0.49015 0.0
C1067 C 0.46837 0.95585 0.4528 0.0
C1068 C 0.51486 0.99587 0.5536 0.0
C1069 C 0.50336 0.04684 0.57634 0.0
N1070 N 0.48085 0.96948 0.48809 0.0
N1071 N 0.49079 0.03445 0.53924 0.0
H1072 H 0.17669 0.25796 0.68869 0.0
H1073 H 0.30303 0.25177 0.8558 0.0
H1074 H 0.23384 0.31838 0.69112 0.0
H1075 H 0.24952 0.18858 0.83936 0.0
H1076 H 0.27797 0.27691 0.79672 0.0
H1077 H 0.20128 0.23423 0.75041 0.0
C1078 C 0.19403 0.26661 0.70363 0.0
C1079 C 0.20327 0.29016 0.68512 0.0
C1080 C 0.27188 0.25744 0.80549 0.0
C1081 C 0.23207 0.26265 0.75406 0.0
C1082 C 0.28634 0.24295 0.83868 0.0
C1083 C 0.27828 0.21808 0.85247 0.0
C1084 C 0.24906 0.24705 0.78623 0.0
C1085 C 0.2565 0.2076 0.82948 0.0
C1086 C 0.20829 0.25286 0.73816 0.0
C1087 C 0.22595 0.30044 0.70502 0.0
N1088 N 0.24242 0.2223 0.79791 0.0
N1089 N 0.23983 0.2864 0.73805 0.0
H1090 H 0.49901 0.44431 0.91523 0.0
H1091 H 0.50848 0.56096 0.10339 0.0
H1092 H 0.4419 0.50484 0.91706 0.0
H1093 H 0.57234 0.51176 0.06526 0.0
H1094 H 0.48337 0.5422 0.03591 0.0
H1095 H 0.52427 0.46802 0.97551 0.0
C1096 C 0.4915 0.4624 0.92932 0.0
C1097 C 0.4683 0.47261 0.91128 0.0
C1098 C 0.50312 0.53603 0.04132 0.0
C1099 C 0.4976 0.50034 0.97946 0.0
C1100 C 0.51758 0.54701 0.07923 0.0
C1101 C 0.5426 0.53808 0.0892 0.0
C1102 C 0.51364 0.5156 0.01404 0.0
C1103 C 0.55332 0.51948 0.05805 0.0
C1104 C 0.50616 0.47613 0.96314 0.0
C1105 C 0.45952 0.49616 0.93055 0.0
N1106 N 0.53859 0.50849 0.02235 0.0
N1107 N 0.47431 0.50938 0.96355 0.0
H1108 H 0.21457 0.7797 0.32853 0.0
H1109 H 0.23373 0.65074 0.18071 0.0
H1110 H 0.18237 0.71011 0.39088 0.0
H1111 H 0.29437 0.70625 0.20524 0.0
H1112 H 0.2085 0.67143 0.24703 0.0
H1113 H 0.23569 0.75359 0.26528 0.0
C1114 C 0.21128 0.75904 0.32798 0.0
C1115 C 0.19691 0.74699 0.36507 0.0
C1116 C 0.22759 0.67857 0.23837 0.0
C1117 C 0.22126 0.71711 0.29364 0.0
C1118 C 0.24213 0.66656 0.20131 0.0
C1119 C 0.26607 0.67694 0.1876 0.0
C1120 C 0.23708 0.70118 0.26045 0.0
C1121 C 0.2759 0.6978 0.21461 0.0
C1122 C 0.22364 0.74413 0.29245 0.0
C1123 C 0.19353 0.72003 0.36298 0.0
N1124 N 0.26114 0.7096 0.24895 0.0
N1125 N 0.20579 0.70586 0.32793 0.0
H1126 H 0.06935 0.49884 0.42223 0.0
H1127 H 0.94433 0.49541 0.58749 0.0
H1128 H 0.02603 0.56668 0.46276 0.0
H1129 H 0.00655 0.44266 0.61881 0.0
H1130 H 0.9717 0.51689 0.52638 0.0
H1131 H 0.04653 0.4744 0.48656 0.0
C1132 C 0.05581 0.50881 0.44587 0.0
C1133 C 0.04904 0.53459 0.43655 0.0
C1134 C 0.97918 0.50035 0.54618 0.0
C1135 C 0.02246 0.50682 0.50797 0.0
C1136 C 0.9634 0.4878 0.58013 0.0
C1137 C 0.97328 0.46732 0.60786 0.0
C1138 C 0.00478 0.49208 0.53974 0.0
C1139 C -0.00164 0.45846 0.59786 0.0
C1140 C 0.04254 0.49479 0.48192 0.0
C1141 C 0.03145 0.54668 0.46831 0.0
N1142 N 0.01341 0.471 0.56464 0.0
N1143 N 0.01822 0.53251 0.50172 0.0
H1144 H 0.77474 0.82425 0.17434 0.0
H1145 H 0.73001 0.72953 0.3866 0.0
H1146 H 0.69733 0.81982 0.23072 0.0
H1147 H 0.80905 0.7342 0.33734 0.0
H1148 H 0.71946 0.7666 0.33649 0.0
H1149 H 0.7898 0.7981 0.24365 0.0
C1150 C 0.76116 0.81895 0.20295 0.0
C1151 C 0.73479 0.82419 0.19714 0.0
C1152 C 0.73915 0.75965 0.33643 0.0
C1153 C 0.75152 0.79318 0.27469 0.0
C1154 C 0.74521 0.7382 0.36478 0.0
C1155 C 0.77051 0.72852 0.36608 0.0
C1156 C 0.75836 0.77161 0.30828 0.0
C1157 C 0.78925 0.74076 0.33696 0.0
C1158 C 0.76967 0.80355 0.2419 0.0
C1159 C 0.71784 0.8164 0.23427 0.0
N1160 N 0.78276 0.76169 0.30904 0.0
N1161 N 0.7264 0.80073 0.27093 0.0
H1162 H 0.7533 0.18583 0.68173 0.0
H1163 H 0.74864 0.31438 0.84531 0.0
H1164 H 0.81569 0.24067 0.6919 0.0
H1165 H 0.6869 0.25863 0.83912 0.0
H1166 H 0.77197 0.28951 0.78313 0.0
H1167 H 0.72848 0.21208 0.7398 0.0
C1168 C 0.76206 0.20295 0.69738 0.0
C1169 C 0.78646 0.21122 0.68192 0.0
C1170 C 0.75313 0.28291 0.79488 0.0
C1171 C 0.75802 0.24173 0.74668 0.0
C1172 C 0.73965 0.29736 0.82978 0.0
C1173 C 0.71614 0.28817 0.84817 0.0
C1174 C 0.74284 0.25933 0.77824 0.0
C1175 C 0.70525 0.2661 0.82648 0.0
C1176 C 0.74774 0.2182 0.72977 0.0
C1177 C 0.79683 0.23374 0.70281 0.0
N1178 N 0.7189 0.25215 0.79327 0.0
N1179 N 0.78245 0.24837 0.7337 0.0
H1180 H 0.95457 0.93615 0.4565 0.0
H1181 H 0.97898 0.05994 0.61912 0.0
H1182 H 0.91724 0.00735 0.41546 0.0
H1183 H 0.03786 0.00463 0.58125 0.0
H1184 H 0.9502 0.04011 0.55786 0.0
H1185 H 0.97677 0.95875 0.52285 0.0
C1186 C 0.95025 0.95637 0.46282 0.0
C1187 C 0.93448 0.97007 0.43002 0.0
C1188 C 0.96957 0.0327 0.56247 0.0
C1189 C 0.96032 0.99608 0.50469 0.0
C1190 C 0.98605 0.0441 0.59681 0.0
C1191 C 0.01088 0.03401 0.60457 0.0
C1192 C 0.97781 0.01062 0.53724 0.0
C1193 C 0.01906 0.01322 0.57567 0.0
C1194 C 0.96331 0.96932 0.49995 0.0
C1195 C 0.92947 0.99622 0.43975 0.0
N1196 N 0.00236 0.00189 0.54384 0.0
N1197 N 0.94282 0.00864 0.47589 0.0
H1198 H 0.57318 0.00015 0.93623 0.0
H1199 H 0.4413 0.95699 0.06151 0.0
H1200 H 0.50036 0.0391 0.91618 0.0
H1201 H 0.51339 0.94638 0.13818 0.0
H1202 H 0.46461 0.97865 -0.00509 0.0
H1203 H 0.5535 0.97441 0.003 0.0
C1204 C 0.55336 0.00374 0.94671 0.0
C1205 C 0.5383 0.0216 0.92056 0.0
C1206 C 0.47533 0.97125 0.02609 0.0
C1207 C 0.51565 0.99174 -0.00565 0.0
C1208 C 0.46209 0.95858 0.06366 0.0
C1209 C 0.47541 0.95018 0.10549 0.0
C1210 C 0.50205 0.97526 0.03026 0.0
C1211 C 0.5024 0.95291 0.10663 0.0
C1212 C 0.54208 0.98885 0.98412 0.0
C1213 C 0.51258 0.0253 0.93504 0.0
N1214 N 0.51489 0.96543 0.06968 0.0
N1215 N 0.50199 0.01024 0.97035 0.0
loop_
_geom_bond_atom_site_label_1
_geom_bond_atom_site_label_2
_geom_bond_distance
_geom_bond_site_symmetry_2
_ccdc_geom_bond_type
Sc0 O3 2.025 . S
Sc0 O10 2.105 . S
Sc0 O13 2.105 . S
Sc0 O16 2.105 . S
Sc0 O19 2.105 1_554 S
Sc1 O3 2.025 1_556 S
Sc1 O11 2.105 . S
Sc1 O15 2.105 1_556 S
Sc1 O17 2.105 . S
Sc1 O21 2.105 . S
Sc2 O3 2.025 . S
Sc2 O12 2.105 . S
Sc2 O14 2.105 . S
Sc2 O18 2.105 . S
Sc2 O20 2.105 . S
O3 Sc0 2.025 . S
O3 Sc1 2.025 1_554 S
O3 Sc2 2.025 . S
C4 O10 1.268 . S
C4 O20 1.268 . S
C5 O11 1.268 . S
C5 O19 1.268 . S
C6 O12 1.268 1_556 S
C6 O21 1.268 . S
C7 O13 1.268 . S
C7 O17 1.268 1_554 S
C8 O14 1.268 . S
C8 O16 1.268 . S
C9 O15 1.268 . S
C9 O18 1.268 . S
O10 Sc0 2.105 . S
O10 C4 1.268 . S
O11 Sc1 2.105 . S
O11 C5 1.268 . S
O12 Sc2 2.105 . S
O12 C6 1.268 1_554 S
O13 Sc0 2.105 . S
O13 C7 1.268 . S
O14 Sc2 2.105 . S
O14 C8 1.268 . S
O15 Sc1 2.105 1_554 S
O15 C9 1.268 . S
O16 Sc0 2.105 . S
O16 C8 1.268 . S
O17 Sc1 2.105 . S
O17 C7 1.268 1_556 S
O18 Sc2 2.105 . S
O18 C9 1.268 . S
O19 Sc0 2.105 1_556 S
O19 C5 1.268 . S
O20 Sc2 2.105 . S
O20 C4 1.268 . S
O21 Sc1 2.105 . S
O21 C6 1.268 . S
Sc22 O25 2.025 . S
Sc22 O32 2.105 . S
Sc22 O35 2.105 . S
Sc22 O38 2.105 . S
Sc22 O41 2.105 . S
Sc23 O25 2.025 . S
Sc23 O33 2.105 . S
Sc23 O37 2.105 . S
Sc23 O39 2.105 . S
Sc23 O43 2.105 . S
Sc24 O25 2.025 . S
Sc24 O34 2.105 . S
Sc24 O36 2.105 . S
Sc24 O40 2.105 . S
Sc24 O42 2.105 . S
O25 Sc22 2.025 . S
O25 Sc23 2.025 . S
O25 Sc24 2.025 . S
C26 O32 1.268 . S
C26 O42 1.268 . S
C27 O33 1.268 . S
C27 O41 1.268 . S
C28 O34 1.268 . S
C28 O43 1.268 . S
C29 O35 1.268 . S
C29 O39 1.268 . S
C30 O36 1.268 . S
C30 O38 1.268 . S
C31 O37 1.268 . S
C31 O40 1.268 . S
O32 Sc22 2.105 . S
O32 C26 1.268 . S
O33 Sc23 2.105 . S
O33 C27 1.268 . S
O34 Sc24 2.105 . S
O34 C28 1.268 . S
O35 Sc22 2.105 . S
O35 C29 1.268 . S
O36 Sc24 2.105 . S
O36 C30 1.268 . S
O37 Sc23 2.105 . S
O37 C31 1.268 . S
O38 Sc22 2.105 . S
O38 C30 1.268 . S
O39 Sc23 2.105 . S
O39 C29 1.268 . S
O40 Sc24 2.105 . S
O40 C31 1.268 . S
O41 Sc22 2.105 . S
O41 C27 1.268 . S
O42 Sc24 2.105 . S
O42 C26 1.268 . S
O43 Sc23 2.105 . S
O43 C28 1.268 . S
Sc44 O47 2.025 . S
Sc44 O54 2.105 . S
Sc44 O57 2.105 . S
Sc44 O60 2.105 . S
Sc44 O63 2.105 . S
Sc45 O47 2.025 . S
Sc45 O55 2.105 . S
Sc45 O59 2.105 . S
Sc45 O61 2.105 . S
Sc45 O65 2.105 . S
Sc46 O47 2.025 . S
Sc46 O56 2.105 . S
Sc46 O58 2.105 . S
Sc46 O62 2.105 . S
Sc46 O64 2.105 . S
O47 Sc44 2.025 . S
O47 Sc45 2.025 . S
O47 Sc46 2.025 . S
C48 O54 1.268 . S
C48 O64 1.268 . S
C49 O55 1.268 . S
C49 O63 1.268 . S
C50 O56 1.268 . S
C50 O65 1.268 . S
C51 O57 1.268 . S
C51 O61 1.268 . S
C52 O58 1.268 . S
C52 O60 1.268 . S
C53 O59 1.268 . S
C53 O62 1.268 . S
O54 Sc44 2.105 . S
O54 C48 1.268 . S
O55 Sc45 2.105 . S
O55 C49 1.268 . S
O56 Sc46 2.105 . S
O56 C50 1.268 . S
O57 Sc44 2.105 . S
O57 C51 1.268 . S
O58 Sc46 2.105 . S
O58 C52 1.268 . S
O59 Sc45 2.105 . S
O59 C53 1.268 . S
O60 Sc44 2.105 . S
O60 C52 1.268 . S
O61 Sc45 2.105 . S
O61 C51 1.268 . S
O62 Sc46 2.105 . S
O62 C53 1.268 . S
O63 Sc44 2.105 . S
O63 C49 1.268 . S
O64 Sc46 2.105 . S
O64 C48 1.268 . S
O65 Sc45 2.105 . S
O65 C50 1.268 . S
Sc66 O69 2.025 . S
Sc66 O76 2.071 1_655 S
Sc66 O79 2.105 . S
Sc66 O82 2.105 . S
Sc66 O85 2.105 . S
Sc67 O69 2.025 . S
Sc67 O77 2.105 . S
Sc67 O81 2.105 . S
Sc67 O83 2.105 . S
Sc67 O87 2.105 . S
Sc68 O69 2.025 . S
Sc68 O78 2.105 . S
Sc68 O80 2.105 . S
Sc68 O84 2.105 . S
Sc68 O86 2.105 . S
O69 Sc66 2.025 . S
O69 Sc67 2.025 . S
O69 Sc68 2.025 . S
C70 O76 1.273 . S
C70 O86 1.268 1_455 S
C71 O77 1.268 . S
C71 O85 1.268 . S
C72 O78 1.268 . S
C72 O87 1.268 . S
C73 O79 1.268 . S
C73 O83 1.268 . S
C74 O80 1.268 . S
C74 O82 1.268 . S
C75 O81 1.268 . S
C75 O84 1.268 . S
O76 Sc66 2.071 1_455 S
O76 C70 1.273 . S
O77 Sc67 2.105 . S
O77 C71 1.268 . S
O78 Sc68 2.105 . S
O78 C72 1.268 . S
O79 Sc66 2.105 . S
O79 C73 1.268 . S
O80 Sc68 2.105 . S
O80 C74 1.268 . S
O81 Sc67 2.105 . S
O81 C75 1.268 . S
O82 Sc66 2.105 . S
O82 C74 1.268 . S
O83 Sc67 2.105 . S
O83 C73 1.268 . S
O84 Sc68 2.105 . S
O84 C75 1.268 . S
O85 Sc66 2.105 . S
O85 C71 1.268 . S
O86 Sc68 2.105 . S
O86 C70 1.268 1_655 S
O87 Sc67 2.105 . S
O87 C72 1.268 . S
Sc88 O91 2.025 . S
Sc88 O98 2.105 1_554 S
Sc88 O101 2.105 . S
Sc88 O104 2.105 . S
Sc88 O107 2.105 . S
Sc89 O91 2.025 . S
Sc89 O99 2.105 . S
Sc89 O103 2.105 . S
Sc89 O105 2.105 . S
Sc89 O109 2.105 . S
Sc90 O91 2.025 1_556 S
Sc90 O100 2.105 . S
Sc90 O102 2.105 1_556 S
Sc90 O106 2.105 1_556 S
Sc90 O108 2.105 . S
O91 Sc88 2.025 . S
O91 Sc89 2.025 . S
O91 Sc90 2.025 1_554 S
C92 O98 1.268 . S
C92 O108 1.268 . S
C93 O99 1.268 . S
C93 O107 1.268 . S
C94 O100 1.268 . S
C94 O109 1.268 1_556 S
C95 O101 1.268 . S
C95 O105 1.268 . S
C96 O102 1.268 . S
C96 O104 1.268 . S
C97 O103 1.268 . S
C97 O106 1.268 . S
O98 Sc88 2.105 1_556 S
O98 C92 1.268 . S
O99 Sc89 2.105 . S
O99 C93 1.268 . S
O100 Sc90 2.105 . S
O100 C94 1.268 . S
O101 Sc88 2.105 . S
O101 C95 1.268 . S
O102 Sc90 2.105 1_554 S
O102 C96 1.268 . S
O103 Sc89 2.105 . S
O103 C97 1.268 . S
O104 Sc88 2.105 . S
O104 C96 1.268 . S
O105 Sc89 2.105 . S
O105 C95 1.268 . S
O106 Sc90 2.105 1_554 S
O106 C97 1.268 . S
O107 Sc88 2.105 . S
O107 C93 1.268 . S
O108 Sc90 2.105 . S
O108 C92 1.268 . S
O109 Sc89 2.105 . S
O109 C94 1.268 1_554 S
Sc110 O113 2.025 . S
Sc110 O120 2.105 . S
Sc110 O123 2.105 . S
Sc110 O126 2.105 . S
Sc110 O129 2.105 . S
Sc111 O113 2.025 . S
Sc111 O121 2.105 . S
Sc111 O125 2.105 . S
Sc111 O127 2.105 . S
Sc111 O131 2.105 . S
Sc112 O113 2.025 . S
Sc112 O122 2.105 . S
Sc112 O124 2.105 . S
Sc112 O128 2.105 . S
Sc112 O130 2.105 . S
O113 Sc110 2.025 . S
O113 Sc111 2.025 . S
O113 Sc112 2.025 . S
C114 O120 1.268 . S
C114 O130 1.268 . S
C115 O121 1.268 . S
C115 O129 1.268 . S
C116 O122 1.268 . S
C116 O131 1.268 . S
C117 O123 1.268 . S
C117 O127 1.268 . S
C118 O124 1.268 . S
C118 O126 1.268 . S
C119 O125 1.268 . S
C119 O128 1.268 . S
O120 Sc110 2.105 . S
O120 C114 1.268 . S
O121 Sc111 2.105 . S
O121 C115 1.268 . S
O122 Sc112 2.105 . S
O122 C116 1.268 . S
O123 Sc110 2.105 . S
O123 C117 1.268 . S
O124 Sc112 2.105 . S
O124 C118 1.268 . S
O125 Sc111 2.105 . S
O125 C119 1.268 . S
O126 Sc110 2.105 . S
O126 C118 1.268 . S
O127 Sc111 2.105 . S
O127 C117 1.268 . S
O128 Sc112 2.105 . S
O128 C119 1.268 . S
O129 Sc110 2.105 . S
O129 C115 1.268 . S
O130 Sc112 2.105 . S
O130 C114 1.268 . S
O131 Sc111 2.105 . S
O131 C116 1.268 . S
Sc132 O135 2.025 . S
Sc132 O142 2.105 . S
Sc132 O145 2.105 . S
Sc132 O148 2.105 . S
Sc132 O151 2.105 . S
Sc133 O135 2.025 . S
Sc133 O143 2.105 . S
Sc133 O147 2.105 . S
Sc133 O149 2.105 . S
Sc133 O153 2.105 . S
Sc134 O135 2.025 . S
Sc134 O144 2.105 . S
Sc134 O146 2.105 . S
Sc134 O150 2.105 . S
Sc134 O152 2.105 . S
O135 Sc132 2.025 . S
O135 Sc133 2.025 . S
O135 Sc134 2.025 . S
C136 O142 1.268 . S
C136 O152 1.268 . S
C137 O143 1.268 . S
C137 O151 1.268 . S
C138 O144 1.268 . S
C138 O153 1.268 . S
C139 O145 1.268 . S
C139 O149 1.268 . S
C140 O146 1.268 . S
C140 O148 1.268 . S
C141 O147 1.268 . S
C141 O150 1.268 . S
O142 Sc132 2.105 . S
O142 C136 1.268 . S
O143 Sc133 2.105 . S
O143 C137 1.268 . S
O144 Sc134 2.105 . S
O144 C138 1.268 . S
O145 Sc132 2.105 . S
O145 C139 1.268 . S
O146 Sc134 2.105 . S
O146 C140 1.268 . S
O147 Sc133 2.105 . S
O147 C141 1.268 . S
O148 Sc132 2.105 . S
O148 C140 1.268 . S
O149 Sc133 2.105 . S
O149 C139 1.268 . S
O150 Sc134 2.105 . S
O150 C141 1.268 . S
O151 Sc132 2.105 . S
O151 C137 1.268 . S
O152 Sc134 2.105 . S
O152 C136 1.268 . S
O153 Sc133 2.105 . S
O153 C138 1.268 . S
Sc154 O157 2.025 . S
Sc154 O164 2.105 . S
Sc154 O167 2.105 . S
Sc154 O170 2.105 . S
Sc154 O173 2.105 . S
Sc155 O157 2.025 . S
Sc155 O165 2.105 . S
Sc155 O169 2.105 . S
Sc155 O171 2.105 . S
Sc155 O175 2.105 . S
Sc156 O157 2.025 . S
Sc156 O166 2.105 . S
Sc156 O168 2.105 . S
Sc156 O172 2.105 . S
Sc156 O174 2.071 1_455 S
O157 Sc154 2.025 . S
O157 Sc155 2.025 . S
O157 Sc156 2.025 . S
C158 O164 1.268 1_655 S
C158 O174 1.273 . S
C159 O165 1.268 . S
C159 O173 1.268 . S
C160 O166 1.268 . S
C160 O175 1.268 . S
C161 O167 1.268 . S
C161 O171 1.268 . S
C162 O168 1.268 . S
C162 O170 1.268 . S
C163 O169 1.268 . S
C163 O172 1.268 . S
O164 Sc154 2.105 . S
O164 C158 1.268 1_455 S
O165 Sc155 2.105 . S
O165 C159 1.268 . S
O166 Sc156 2.105 . S
O166 C160 1.268 . S
O167 Sc154 2.105 . S
O167 C161 1.268 . S
O168 Sc156 2.105 . S
O168 C162 1.268 . S
O169 Sc155 2.105 . S
O169 C163 1.268 . S
O170 Sc154 2.105 . S
O170 C162 1.268 . S
O171 Sc155 2.105 . S
O171 C161 1.268 . S
O172 Sc156 2.105 . S
O172 C163 1.268 . S
O173 Sc154 2.105 . S
O173 C159 1.268 . S
O174 Sc156 2.071 1_655 S
O174 C158 1.273 . S
O175 Sc155 2.105 . S
O175 C160 1.268 . S
Sc176 O179 2.025 . S
Sc176 O186 2.105 . S
Sc176 O189 2.105 . S
Sc176 O192 2.105 . S
Sc176 O195 2.105 . S
Sc177 O179 2.025 . S
Sc177 O187 2.105 . S
Sc177 O191 2.105 . S
Sc177 O193 2.105 . S
Sc177 O197 2.105 . S
Sc178 O179 2.025 . S
Sc178 O188 2.105 . S
Sc178 O190 2.105 . S
Sc178 O194 2.105 . S
Sc178 O196 2.105 . S
O179 Sc176 2.025 . S
O179 Sc177 2.025 . S
O179 Sc178 2.025 . S
C180 O186 1.268 . S
C180 O196 1.268 . S
C181 O187 1.268 . S
C181 O195 1.268 . S
C182 O188 1.268 . S
C182 O197 1.268 . S
C183 O189 1.268 . S
C183 O193 1.268 . S
C184 O190 1.268 . S
C184 O192 1.268 . S
C185 O191 1.268 . S
C185 O194 1.268 . S
O186 Sc176 2.105 . S
O186 C180 1.268 . S
O187 Sc177 2.105 . S
O187 C181 1.268 . S
O188 Sc178 2.105 . S
O188 C182 1.268 . S
O189 Sc176 2.105 . S
O189 C183 1.268 . S
O190 Sc178 2.105 . S
O190 C184 1.268 . S
O191 Sc177 2.105 . S
O191 C185 1.268 . S
O192 Sc176 2.105 . S
O192 C184 1.268 . S
O193 Sc177 2.105 . S
O193 C183 1.268 . S
O194 Sc178 2.105 . S
O194 C185 1.268 . S
O195 Sc176 2.105 . S
O195 C181 1.268 . S
O196 Sc178 2.105 . S
O196 C180 1.268 . S
O197 Sc177 2.105 . S
O197 C182 1.268 . S
Sc198 O201 2.025 . S
Sc198 O208 2.105 . S
Sc198 O211 2.105 . S
Sc198 O214 2.105 . S
Sc198 O217 2.105 . S
Sc199 O201 2.025 . S
Sc199 O209 2.105 . S
Sc199 O213 2.105 . S
Sc199 O215 2.105 . S
Sc199 O219 2.105 . S
Sc200 O201 2.025 . S
Sc200 O210 2.105 1_545 S
Sc200 O212 2.071 1_455 S
Sc200 O216 2.105 . S
Sc200 O218 2.105 . S
O201 Sc198 2.025 . S
O201 Sc199 2.025 . S
O201 Sc200 2.025 . S
C202 O208 1.268 . S
C202 O218 1.268 . S
C203 O209 1.268 . S
C203 O217 1.268 . S
C204 O210 1.268 . S
C204 O219 1.268 1_565 S
C205 O211 1.268 . S
C205 O215 1.268 . S
C206 O212 1.273 . S
C206 O214 1.268 1_655 S
C207 O213 1.268 . S
C207 O216 1.268 . S
O208 Sc198 2.105 . S
O208 C202 1.268 . S
O209 Sc199 2.105 . S
O209 C203 1.268 . S
O210 Sc200 2.105 1_565 S
O210 C204 1.268 . S
O211 Sc198 2.105 . S
O211 C205 1.268 . S
O212 Sc200 2.071 1_655 S
O212 C206 1.273 . S
O213 Sc199 2.105 . S
O213 C207 1.268 . S
O214 Sc198 2.105 . S
O214 C206 1.268 1_455 S
O215 Sc199 2.105 . S
O215 C205 1.268 . S
O216 Sc200 2.105 . S
O216 C207 1.268 . S
O217 Sc198 2.105 . S
O217 C203 1.268 . S
O218 Sc200 2.105 . S
O218 C202 1.268 . S
O219 Sc199 2.105 . S
O219 C204 1.268 1_545 S
Sc220 O223 2.025 . S
Sc220 O230 2.105 . S
Sc220 O233 2.105 . S
Sc220 O236 2.105 . S
Sc220 O239 2.105 . S
Sc221 O223 2.025 1_556 S
Sc221 O231 2.105 1_556 S
Sc221 O235 2.105 . S
Sc221 O237 2.105 . S
Sc221 O241 2.105 . S
Sc222 O223 2.025 . S
Sc222 O232 2.105 . S
Sc222 O234 2.105 . S
Sc222 O238 2.105 1_554 S
Sc222 O240 2.105 . S
O223 Sc220 2.025 . S
O223 Sc221 2.025 1_554 S
O223 Sc222 2.025 . S
C224 O230 1.268 . S
C224 O240 1.268 . S
C225 O231 1.268 . S
C225 O239 1.268 . S
C226 O232 1.268 . S
C226 O241 1.268 1_554 S
C227 O233 1.268 1_556 S
C227 O237 1.268 . S
C228 O234 1.268 . S
C228 O236 1.268 . S
C229 O235 1.268 . S
C229 O238 1.268 . S
O230 Sc220 2.105 . S
O230 C224 1.268 . S
O231 Sc221 2.105 1_554 S
O231 C225 1.268 . S
O232 Sc222 2.105 . S
O232 C226 1.268 . S
O233 Sc220 2.105 . S
O233 C227 1.268 1_554 S
O234 Sc222 2.105 . S
O234 C228 1.268 . S
O235 Sc221 2.105 . S
O235 C229 1.268 . S
O236 Sc220 2.105 . S
O236 C228 1.268 . S
O237 Sc221 2.105 . S
O237 C227 1.268 . S
O238 Sc222 2.105 1_556 S
O238 C229 1.268 . S
O239 Sc220 2.105 . S
O239 C225 1.268 . S
O240 Sc222 2.105 . S
O240 C224 1.268 . S
O241 Sc221 2.105 . S
O241 C226 1.268 1_556 S
Sc242 O245 2.025 . S
Sc242 O252 2.105 . S
Sc242 O255 2.105 1_565 S
Sc242 O258 2.105 . S
Sc242 O261 2.105 . S
Sc243 O245 2.025 . S
Sc243 O253 2.105 . S
Sc243 O257 2.105 . S
Sc243 O259 2.105 . S
Sc243 O263 2.105 . S
Sc244 O245 2.025 . S
Sc244 O254 2.105 . S
Sc244 O256 2.105 . S
Sc244 O260 2.105 . S
Sc244 O262 2.105 . S
O245 Sc242 2.025 . S
O245 Sc243 2.025 . S
O245 Sc244 2.025 . S
C246 O252 1.268 . S
C246 O262 1.268 . S
C247 O253 1.268 . S
C247 O261 1.268 . S
C248 O254 1.268 . S
C248 O263 1.268 . S
C249 O255 1.268 . S
C249 O259 1.268 1_545 S
C250 O256 1.268 . S
C250 O258 1.268 . S
C251 O257 1.268 . S
C251 O260 1.268 . S
O252 Sc242 2.105 . S
O252 C246 1.268 . S
O253 Sc243 2.105 . S
O253 C247 1.268 . S
O254 Sc244 2.105 . S
O254 C248 1.268 . S
O255 Sc242 2.105 1_545 S
O255 C249 1.268 . S
O256 Sc244 2.105 . S
O256 C250 1.268 . S
O257 Sc243 2.105 . S
O257 C251 1.268 . S
O258 Sc242 2.105 . S
O258 C250 1.268 . S
O259 Sc243 2.105 . S
O259 C249 1.268 1_565 S
O260 Sc244 2.105 . S
O260 C251 1.268 . S
O261 Sc242 2.105 . S
O261 C247 1.268 . S
O262 Sc244 2.105 . S
O262 C246 1.268 . S
O263 Sc243 2.105 . S
O263 C248 1.268 . S
Sc264 O267 2.025 . S
Sc264 O274 2.105 . S
Sc264 O277 2.105 . S
Sc264 O280 2.105 . S
Sc264 O283 2.105 . S
Sc265 O267 2.025 . S
Sc265 O275 2.105 . S
Sc265 O279 2.105 . S
Sc265 O281 2.105 . S
Sc265 O285 2.105 . S
Sc266 O267 2.025 . S
Sc266 O276 2.105 . S
Sc266 O278 2.105 . S
Sc266 O282 2.105 . S
Sc266 O284 2.105 . S
O267 Sc264 2.025 . S
O267 Sc265 2.025 . S
O267 Sc266 2.025 . S
C268 O274 1.268 . S
C268 O284 1.268 . S
C269 O275 1.268 . S
C269 O283 1.268 . S
C270 O276 1.268 . S
C270 O285 1.268 . S
C271 O277 1.268 . S
C271 O281 1.268 . S
C272 O278 1.268 . S
C272 O280 1.268 . S
C273 O279 1.268 . S
C273 O282 1.268 . S
O274 Sc264 2.105 . S
O274 C268 1.268 . S
O275 Sc265 2.105 . S
O275 C269 1.268 . S
O276 Sc266 2.105 . S
O276 C270 1.268 . S
O277 Sc264 2.105 . S
O277 C271 1.268 . S
O278 Sc266 2.105 . S
O278 C272 1.268 . S
O279 Sc265 2.105 . S
O279 C273 1.268 . S
O280 Sc264 2.105 . S
O280 C272 1.268 . S
O281 Sc265 2.105 . S
O281 C271 1.268 . S
O282 Sc266 2.105 . S
O282 C273 1.268 . S
O283 Sc264 2.105 . S
O283 C269 1.268 . S
O284 Sc266 2.105 . S
O284 C268 1.268 . S
O285 Sc265 2.105 . S
O285 C270 1.268 . S
Sc286 O289 2.025 . S
Sc286 O296 2.105 . S
Sc286 O299 2.105 . S
Sc286 O302 2.071 1_655 S
Sc286 O305 2.105 1_565 S
Sc287 O289 2.025 . S
Sc287 O297 2.105 . S
Sc287 O301 2.105 . S
Sc287 O303 2.105 . S
Sc287 O307 2.105 . S
Sc288 O289 2.025 . S
Sc288 O298 2.105 . S
Sc288 O300 2.105 . S
Sc288 O304 2.105 . S
Sc288 O306 2.105 . S
O289 Sc286 2.025 . S
O289 Sc287 2.025 . S
O289 Sc288 2.025 . S
C290 O296 1.268 . S
C290 O306 1.268 . S
C291 O297 1.268 1_545 S
C291 O305 1.268 . S
C292 O298 1.268 . S
C292 O307 1.268 . S
C293 O299 1.268 . S
C293 O303 1.268 . S
C294 O300 1.268 1_455 S
C294 O302 1.273 . S
C295 O301 1.268 . S
C295 O304 1.268 . S
O296 Sc286 2.105 . S
O296 C290 1.268 . S
O297 Sc287 2.105 . S
O297 C291 1.268 1_565 S
O298 Sc288 2.105 . S
O298 C292 1.268 . S
O299 Sc286 2.105 . S
O299 C293 1.268 . S
O300 Sc288 2.105 . S
O300 C294 1.268 1_655 S
O301 Sc287 2.105 . S
O301 C295 1.268 . S
O302 Sc286 2.071 1_455 S
O302 C294 1.273 . S
O303 Sc287 2.105 . S
O303 C293 1.268 . S
O304 Sc288 2.105 . S
O304 C295 1.268 . S
O305 Sc286 2.105 1_545 S
O305 C291 1.268 . S
O306 Sc288 2.105 . S
O306 C290 1.268 . S
O307 Sc287 2.105 . S
O307 C292 1.268 . S
Sc308 O311 2.025 1_556 S
Sc308 O318 2.105 1_556 S
Sc308 O321 2.105 . S
Sc308 O324 2.105 . S
Sc308 O327 2.105 1_556 S
Sc309 O311 2.025 . S
Sc309 O319 2.105 . S
Sc309 O323 2.105 . S
Sc309 O325 2.105 . S
Sc309 O329 2.105 . S
Sc310 O311 2.025 . S
Sc310 O320 2.105 . S
Sc310 O322 2.105 1_554 S
Sc310 O326 2.105 . S
Sc310 O328 2.105 . S
O311 Sc308 2.025 1_554 S
O311 Sc309 2.025 . S
O311 Sc310 2.025 . S
C312 O318 1.268 . S
C312 O328 1.268 . S
C313 O319 1.268 . S
C313 O327 1.268 . S
C314 O320 1.268 . S
C314 O329 1.268 . S
C315 O321 1.268 . S
C315 O325 1.268 1_556 S
C316 O322 1.268 . S
C316 O324 1.268 . S
C317 O323 1.268 . S
C317 O326 1.268 . S
O318 Sc308 2.105 1_554 S
O318 C312 1.268 . S
O319 Sc309 2.105 . S
O319 C313 1.268 . S
O320 Sc310 2.105 . S
O320 C314 1.268 . S
O321 Sc308 2.105 . S
O321 C315 1.268 . S
O322 Sc310 2.105 1_556 S
O322 C316 1.268 . S
O323 Sc309 2.105 . S
O323 C317 1.268 . S
O324 Sc308 2.105 . S
O324 C316 1.268 . S
O325 Sc309 2.105 . S
O325 C315 1.268 1_554 S
O326 Sc310 2.105 . S
O326 C317 1.268 . S
O327 Sc308 2.105 1_554 S
O327 C313 1.268 . S
O328 Sc310 2.105 . S
O328 C312 1.268 . S
O329 Sc309 2.105 . S
O329 C314 1.268 . S
Sc330 O333 2.025 . S
Sc330 O340 2.105 . S
Sc330 O343 2.105 . S
Sc330 O346 2.105 . S
Sc330 O349 2.105 . S
Sc331 O333 2.025 . S
Sc331 O341 2.105 . S
Sc331 O345 2.105 . S
Sc331 O347 2.105 . S
Sc331 O351 2.105 . S
Sc332 O333 2.025 . S
Sc332 O342 2.105 . S
Sc332 O344 2.105 . S
Sc332 O348 2.105 1_545 S
Sc332 O350 2.105 . S
O333 Sc330 2.025 . S
O333 Sc331 2.025 . S
O333 Sc332 2.025 . S
C334 O340 1.268 . S
C334 O350 1.268 . S
C335 O341 1.268 . S
C335 O349 1.268 . S
C336 O342 1.268 . S
C336 O351 1.268 . S
C337 O343 1.268 . S
C337 O347 1.268 . S
C338 O344 1.268 . S
C338 O346 1.268 . S
C339 O345 1.268 1_565 S
C339 O348 1.268 . S
O340 Sc330 2.105 . S
O340 C334 1.268 . S
O341 Sc331 2.105 . S
O341 C335 1.268 . S
O342 Sc332 2.105 . S
O342 C336 1.268 . S
O343 Sc330 2.105 . S
O343 C337 1.268 . S
O344 Sc332 2.105 . S
O344 C338 1.268 . S
O345 Sc331 2.105 . S
O345 C339 1.268 1_545 S
O346 Sc330 2.105 . S
O346 C338 1.268 . S
O347 Sc331 2.105 . S
O347 C337 1.268 . S
O348 Sc332 2.105 1_565 S
O348 C339 1.268 . S
O349 Sc330 2.105 . S
O349 C335 1.268 . S
O350 Sc332 2.105 . S
O350 C334 1.268 . S
O351 Sc331 2.105 . S
O351 C336 1.268 . S
H352 C358 0.930 . S
H353 C362 0.930 . S
H354 C367 0.929 . S
H355 C365 0.929 . S
H356 C360 0.929 . S
H357 C366 0.929 . S
C358 H352 0.930 . S
C358 C359 1.367 . S
C358 C366 1.378 . S
C359 C358 1.367 . S
C359 C367 1.433 1_556 S
C360 H356 0.929 . S
C360 C362 1.378 . S
C360 C364 1.350 . S
C361 C364 1.463 . S
C361 C366 1.350 . S
C361 N369 1.427 . S
C362 H353 0.930 . S
C362 C360 1.378 . S
C362 C363 1.367 . S
C363 C362 1.367 . S
C363 C365 1.433 . S
C364 C360 1.350 . S
C364 C361 1.463 . S
C364 N368 1.427 . S
C365 H355 0.929 . S
C365 C363 1.433 . S
C365 N368 1.384 . S
C366 H357 0.929 . S
C366 C358 1.378 . S
C366 C361 1.350 . S
C367 H354 0.929 . S
C367 C359 1.433 1_554 S
C367 N369 1.384 1_554 S
N368 C364 1.427 . S
N368 C365 1.384 . S
N369 C361 1.427 . S
N369 C367 1.384 1_556 S
H370 C376 0.930 . S
H371 C380 0.930 . S
H372 C385 0.929 . S
H373 C383 0.929 . S
H374 C378 0.929 . S
H375 C384 0.929 . S
C376 H370 0.930 . S
C376 C377 1.367 . S
C376 C384 1.378 . S
C377 C376 1.367 . S
C377 C385 1.433 . S
C378 H374 0.929 . S
C378 C380 1.378 . S
C378 C382 1.350 . S
C379 C382 1.463 . S
C379 C384 1.350 . S
C379 N387 1.427 . S
C380 H371 0.930 . S
C380 C378 1.378 . S
C380 C381 1.367 . S
C381 C380 1.367 . S
C381 C383 1.433 . S
C382 C378 1.350 . S
C382 C379 1.463 . S
C382 N386 1.427 . S
C383 H373 0.929 . S
C383 C381 1.433 . S
C383 N386 1.384 . S
C384 H375 0.929 . S
C384 C376 1.378 . S
C384 C379 1.350 . S
C385 H372 0.929 . S
C385 C377 1.433 . S
C385 N387 1.384 . S
N386 C382 1.427 . S
N386 C383 1.384 . S
N387 C379 1.427 . S
N387 C385 1.384 . S
H388 C394 0.930 . S
H389 C398 0.930 . S
H390 C403 0.929 . S
H391 C401 0.929 . S
H392 C396 0.929 . S
H393 C402 0.929 . S
C394 H388 0.930 . S
C394 C395 1.367 . S
C394 C402 1.378 . S
C395 C394 1.367 . S
C395 C403 1.433 . S
C396 H392 0.929 . S
C396 C398 1.378 . S
C396 C400 1.350 . S
C397 C400 1.463 . S
C397 C402 1.350 . S
C397 N405 1.427 . S
C398 H389 0.930 . S
C398 C396 1.378 . S
C398 C399 1.367 . S
C399 C398 1.367 . S
C399 C401 1.433 . S
C400 C396 1.350 . S
C400 C397 1.463 . S
C400 N404 1.427 . S
C401 H391 0.929 . S
C401 C399 1.433 . S
C401 N404 1.384 . S
C402 H393 0.929 . S
C402 C394 1.378 . S
C402 C397 1.350 . S
C403 H390 0.929 . S
C403 C395 1.433 . S
C403 N405 1.384 . S
N404 C400 1.427 . S
N404 C401 1.384 . S
N405 C397 1.427 . S
N405 C403 1.384 . S
H406 C412 0.930 . S
H407 C416 0.930 . S
H408 C421 0.929 . S
H409 C419 0.929 . S
H410 C414 0.929 . S
H411 C420 0.929 . S
C412 H406 0.930 . S
C412 C413 1.367 . S
C412 C420 1.378 . S
C413 C412 1.367 . S
C413 C421 1.433 . S
C414 H410 0.929 . S
C414 C416 1.378 . S
C414 C418 1.350 . S
C415 C418 1.463 . S
C415 C420 1.350 . S
C415 N423 1.427 . S
C416 H407 0.930 . S
C416 C414 1.378 . S
C416 C417 1.367 . S
C417 C416 1.367 . S
C417 C419 1.433 . S
C418 C414 1.350 . S
C418 C415 1.463 . S
C418 N422 1.427 . S
C419 H409 0.929 . S
C419 C417 1.433 . S
C419 N422 1.384 . S
C420 H411 0.929 . S
C420 C412 1.378 . S
C420 C415 1.350 . S
C421 H408 0.929 . S
C421 C413 1.433 . S
C421 N423 1.384 . S
N422 C418 1.427 . S
N422 C419 1.384 . S
N423 C415 1.427 . S
N423 C421 1.384 . S
H424 C430 0.930 . S
H425 C434 0.930 . S
H426 C439 0.929 . S
H427 C437 0.929 . S
H428 C432 0.929 . S
H429 C438 0.929 . S
C430 H424 0.930 . S
C430 C431 1.367 . S
C430 C438 1.378 . S
C431 C430 1.367 . S
C431 C439 1.433 . S
C432 H428 0.929 . S
C432 C434 1.378 . S
C432 C436 1.350 . S
C433 C436 1.463 . S
C433 C438 1.350 . S
C433 N441 1.427 . S
C434 H425 0.930 . S
C434 C432 1.378 . S
C434 C435 1.367 . S
C435 C434 1.367 . S
C435 C437 1.433 . S
C436 C432 1.350 . S
C436 C433 1.463 . S
C436 N440 1.427 . S
C437 H427 0.929 . S
C437 C435 1.433 . S
C437 N440 1.384 . S
C438 H429 0.929 . S
C438 C430 1.378 . S
C438 C433 1.350 . S
C439 H426 0.929 . S
C439 C431 1.433 . S
C439 N441 1.384 . S
N440 C436 1.427 . S
N440 C437 1.384 . S
N441 C433 1.427 . S
N441 C439 1.384 . S
H442 C448 0.930 . S
H443 C452 0.930 . S
H444 C457 0.929 . S
H445 C455 0.929 . S
H446 C450 0.929 . S
H447 C456 0.929 . S
C448 H442 0.930 . S
C448 C449 1.367 . S
C448 C456 1.378 . S
C449 C448 1.367 . S
C449 C457 1.433 . S
C450 H446 0.929 . S
C450 C452 1.378 . S
C450 C454 1.350 . S
C451 C454 1.463 . S
C451 C456 1.350 . S
C451 N459 1.427 . S
C452 H443 0.930 . S
C452 C450 1.378 . S
C452 C453 1.367 . S
C453 C452 1.367 . S
C453 C455 1.433 . S
C454 C450 1.350 . S
C454 C451 1.463 . S
C454 N458 1.427 . S
C455 H445 0.929 . S
C455 C453 1.433 . S
C455 N458 1.384 . S
C456 H447 0.929 . S
C456 C448 1.378 . S
C456 C451 1.350 . S
C457 H444 0.929 . S
C457 C449 1.433 . S
C457 N459 1.384 . S
N458 C454 1.427 . S
N458 C455 1.384 . S
N459 C451 1.427 . S
N459 C457 1.384 . S
H460 C466 0.930 . S
H461 C470 0.930 . S
H462 C475 0.929 . S
H463 C473 0.929 . S
H464 C468 0.929 . S
H465 C474 0.929 . S
C466 H460 0.930 . S
C466 C467 1.367 . S
C466 C474 1.378 . S
C467 C466 1.367 . S
C467 C475 1.433 . S
C468 H464 0.929 . S
C468 C470 1.378 . S
C468 C472 1.350 . S
C469 C472 1.463 . S
C469 C474 1.350 . S
C469 N477 1.427 . S
C470 H461 0.930 . S
C470 C468 1.378 . S
C470 C471 1.367 . S
C471 C470 1.367 . S
C471 C473 1.433 . S
C472 C468 1.350 . S
C472 C469 1.463 . S
C472 N476 1.427 . S
C473 H463 0.929 . S
C473 C471 1.433 . S
C473 N476 1.384 . S
C474 H465 0.929 . S
C474 C466 1.378 . S
C474 C469 1.350 . S
C475 H462 0.929 . S
C475 C467 1.433 . S
C475 N477 1.384 . S
N476 C472 1.427 . S
N476 C473 1.384 . S
N477 C469 1.427 . S
N477 C475 1.384 . S
H478 C484 0.930 . S
H479 C488 0.930 . S
H480 C493 0.929 . S
H481 C491 0.929 . S
H482 C486 0.929 . S
H483 C492 0.929 . S
C484 H478 0.930 . S
C484 C485 1.367 . S
C484 C492 1.378 . S
C485 C484 1.367 . S
C485 C493 1.433 . S
C486 H482 0.929 . S
C486 C488 1.378 . S
C486 C490 1.350 . S
C487 C490 1.463 . S
C487 C492 1.350 . S
C487 N495 1.427 . S
C488 H479 0.930 . S
C488 C486 1.378 . S
C488 C489 1.367 . S
C489 C488 1.367 . S
C489 C491 1.433 . S
C490 C486 1.350 . S
C490 C487 1.463 . S
C490 N494 1.427 . S
C491 H481 0.929 . S
C491 C489 1.433 . S
C491 N494 1.384 . S
C492 H483 0.929 . S
C492 C484 1.378 . S
C492 C487 1.350 . S
C493 H480 0.929 . S
C493 C485 1.433 . S
C493 N495 1.384 . S
N494 C490 1.427 . S
N494 C491 1.384 . S
N495 C487 1.427 . S
N495 C493 1.384 . S
H496 C502 0.930 . S
H497 C506 0.930 . S
H498 C511 0.929 . S
H499 C509 0.929 . S
H500 C504 0.929 . S
H501 C510 0.929 . S
C502 H496 0.930 . S
C502 C503 1.367 . S
C502 C510 1.378 . S
C503 C502 1.367 . S
C503 C511 1.433 . S
C504 H500 0.929 . S
C504 C506 1.378 . S
C504 C508 1.350 . S
C505 C508 1.463 . S
C505 C510 1.350 . S
C505 N513 1.427 . S
C506 H497 0.930 . S
C506 C504 1.378 . S
C506 C507 1.367 . S
C507 C506 1.367 . S
C507 C509 1.433 . S
C508 C504 1.350 . S
C508 C505 1.463 . S
C508 N512 1.427 . S
C509 H499 0.929 . S
C509 C507 1.433 . S
C509 N512 1.384 . S
C510 H501 0.929 . S
C510 C502 1.378 . S
C510 C505 1.350 . S
C511 H498 0.929 . S
C511 C503 1.433 . S
C511 N513 1.384 . S
N512 C508 1.427 . S
N512 C509 1.384 . S
N513 C505 1.427 . S
N513 C511 1.384 . S
H514 C520 0.930 . S
H515 C524 0.930 . S
H516 C529 0.929 . S
H517 C527 0.929 . S
H518 C522 0.929 . S
H519 C528 0.929 . S
C520 H514 0.930 . S
C520 C521 1.367 . S
C520 C528 1.378 . S
C521 C520 1.367 . S
C521 C529 1.433 . S
C522 H518 0.929 . S
C522 C524 1.378 . S
C522 C526 1.350 . S
C523 C526 1.463 . S
C523 C528 1.350 . S
C523 N531 1.427 . S
C524 H515 0.930 . S
C524 C522 1.378 . S
C524 C525 1.367 . S
C525 C524 1.367 . S
C525 C527 1.433 . S
C526 C522 1.350 . S
C526 C523 1.463 . S
C526 N530 1.427 . S
C527 H517 0.929 . S
C527 C525 1.433 . S
C527 N530 1.384 . S
C528 H519 0.929 . S
C528 C520 1.378 . S
C528 C523 1.350 . S
C529 H516 0.929 . S
C529 C521 1.433 . S
C529 N531 1.384 . S
N530 C526 1.427 . S
N530 C527 1.384 . S
N531 C523 1.427 . S
N531 C529 1.384 . S
H532 C538 0.930 . S
H533 C542 0.930 . S
H534 C547 0.929 . S
H535 C545 0.929 . S
H536 C540 0.929 . S
H537 C546 0.929 . S
C538 H532 0.930 . S
C538 C539 1.367 . S
C538 C546 1.378 . S
C539 C538 1.367 . S
C539 C547 1.433 . S
C540 H536 0.929 . S
C540 C542 1.378 . S
C540 C544 1.350 . S
C541 C544 1.463 . S
C541 C546 1.350 . S
C541 N549 1.427 . S
C542 H533 0.930 . S
C542 C540 1.378 . S
C542 C543 1.367 . S
C543 C542 1.367 . S
C543 C545 1.433 1_556 S
C544 C540 1.350 . S
C544 C541 1.463 . S
C544 N548 1.427 . S
C545 H535 0.929 . S
C545 C543 1.433 1_554 S
C545 N548 1.384 1_554 S
C546 H537 0.929 . S
C546 C538 1.378 . S
C546 C541 1.350 . S
C547 H534 0.929 . S
C547 C539 1.433 . S
C547 N549 1.384 . S
N548 C544 1.427 . S
N548 C545 1.384 1_556 S
N549 C541 1.427 . S
N549 C547 1.384 . S
H550 C556 0.930 . S
H551 C560 0.930 . S
H552 C565 0.929 . S
H553 C563 0.929 . S
H554 C558 0.929 . S
H555 C564 0.929 . S
C556 H550 0.930 . S
C556 C557 1.367 . S
C556 C564 1.378 . S
C557 C556 1.367 . S
C557 C565 1.433 . S
C558 H554 0.929 . S
C558 C560 1.378 . S
C558 C562 1.350 . S
C559 C562 1.463 . S
C559 C564 1.350 . S
C559 N567 1.427 . S
C560 H551 0.930 . S
C560 C558 1.378 . S
C560 C561 1.367 . S
C561 C560 1.367 . S
C561 C563 1.433 . S
C562 C558 1.350 . S
C562 C559 1.463 . S
C562 N566 1.427 . S
C563 H553 0.929 . S
C563 C561 1.433 . S
C563 N566 1.384 . S
C564 H555 0.929 . S
C564 C556 1.378 . S
C564 C559 1.350 . S
C565 H552 0.929 . S
C565 C557 1.433 . S
C565 N567 1.384 . S
N566 C562 1.427 . S
N566 C563 1.384 . S
N567 C559 1.427 . S
N567 C565 1.384 . S
H568 C574 0.930 . S
H569 C578 0.930 . S
H570 C583 0.929 . S
H571 C581 0.929 . S
H572 C576 0.929 . S
H573 C582 0.929 . S
C574 H568 0.930 . S
C574 C575 1.367 . S
C574 C582 1.378 . S
C575 C574 1.367 . S
C575 C583 1.433 . S
C576 H572 0.929 . S
C576 C578 1.378 . S
C576 C580 1.350 . S
C577 C580 1.463 . S
C577 C582 1.350 . S
C577 N585 1.427 . S
C578 H569 0.930 . S
C578 C576 1.378 . S
C578 C579 1.367 . S
C579 C578 1.367 . S
C579 C581 1.433 . S
C580 C576 1.350 . S
C580 C577 1.463 . S
C580 N584 1.427 . S
C581 H571 0.929 . S
C581 C579 1.433 . S
C581 N584 1.384 . S
C582 H573 0.929 . S
C582 C574 1.378 . S
C582 C577 1.350 . S
C583 H570 0.929 . S
C583 C575 1.433 . S
C583 N585 1.384 . S
N584 C580 1.427 . S
N584 C581 1.384 . S
N585 C577 1.427 . S
N585 C583 1.384 . S
H586 C592 0.930 . S
H587 C596 0.930 . S
H588 C601 0.929 . S
H589 C599 0.929 . S
H590 C594 0.929 . S
H591 C600 0.929 . S
C592 H586 0.930 . S
C592 C593 1.367 . S
C592 C600 1.378 . S
C593 C592 1.367 . S
C593 C601 1.433 . S
C594 H590 0.929 . S
C594 C596 1.378 . S
C594 C598 1.350 . S
C595 C598 1.463 . S
C595 C600 1.350 . S
C595 N603 1.427 . S
C596 H587 0.930 . S
C596 C594 1.378 . S
C596 C597 1.367 . S
C597 C596 1.367 . S
C597 C599 1.433 . S
C598 C594 1.350 . S
C598 C595 1.463 . S
C598 N602 1.427 . S
C599 H589 0.929 . S
C599 C597 1.433 . S
C599 N602 1.384 . S
C600 H591 0.929 . S
C600 C592 1.378 . S
C600 C595 1.350 . S
C601 H588 0.929 . S
C601 C593 1.433 . S
C601 N603 1.384 . S
N602 C598 1.427 . S
N602 C599 1.384 . S
N603 C595 1.427 . S
N603 C601 1.384 . S
H604 C610 0.930 . S
H605 C614 0.930 . S
H606 C619 0.929 . S
H607 C617 0.929 . S
H608 C612 0.929 . S
H609 C618 0.929 . S
C610 H604 0.930 . S
C610 C611 1.367 . S
C610 C618 1.378 . S
C611 C610 1.367 . S
C611 C619 1.433 . S
C612 H608 0.929 . S
C612 C614 1.378 . S
C612 C616 1.350 . S
C613 C616 1.463 . S
C613 C618 1.350 . S
C613 N621 1.427 . S
C614 H605 0.930 . S
C614 C612 1.378 . S
C614 C615 1.367 . S
C615 C614 1.367 . S
C615 C617 1.433 . S
C616 C612 1.350 . S
C616 C613 1.463 . S
C616 N620 1.427 . S
C617 H607 0.929 . S
C617 C615 1.433 . S
C617 N620 1.384 . S
C618 H609 0.929 . S
C618 C610 1.378 . S
C618 C613 1.350 . S
C619 H606 0.929 . S
C619 C611 1.433 . S
C619 N621 1.384 . S
N620 C616 1.427 . S
N620 C617 1.384 . S
N621 C613 1.427 . S
N621 C619 1.384 . S
H622 C628 0.930 . S
H623 C632 0.930 . S
H624 C637 0.929 . S
H625 C635 0.929 . S
H626 C630 0.929 . S
H627 C636 0.929 . S
C628 H622 0.930 . S
C628 C629 1.367 . S
C628 C636 1.378 . S
C629 C628 1.367 . S
C629 C637 1.433 . S
C630 H626 0.929 . S
C630 C632 1.378 . S
C630 C634 1.350 . S
C631 C634 1.463 . S
C631 C636 1.350 . S
C631 N639 1.427 . S
C632 H623 0.930 . S
C632 C630 1.378 . S
C632 C633 1.367 . S
C633 C632 1.367 . S
C633 C635 1.433 . S
C634 C630 1.350 . S
C634 C631 1.463 . S
C634 N638 1.427 . S
C635 H625 0.929 . S
C635 C633 1.433 . S
C635 N638 1.384 . S
C636 H627 0.929 . S
C636 C628 1.378 . S
C636 C631 1.350 . S
C637 H624 0.929 . S
C637 C629 1.433 . S
C637 N639 1.384 . S
N638 C634 1.427 . S
N638 C635 1.384 . S
N639 C631 1.427 . S
N639 C637 1.384 . S
H640 C646 0.930 . S
H641 C650 0.930 . S
H642 C655 0.929 . S
H643 C653 0.929 . S
H644 C648 0.929 . S
H645 C654 0.929 . S
C646 H640 0.930 . S
C646 C647 1.367 . S
C646 C654 1.378 . S
C647 C646 1.367 . S
C647 C655 1.433 . S
C648 H644 0.929 . S
C648 C650 1.378 . S
C648 C652 1.350 . S
C649 C652 1.463 . S
C649 C654 1.350 . S
C649 N657 1.427 . S
C650 H641 0.930 . S
C650 C648 1.378 . S
C650 C651 1.367 . S
C651 C650 1.367 . S
C651 C653 1.433 . S
C652 C648 1.350 . S
C652 C649 1.463 . S
C652 N656 1.427 . S
C653 H643 0.929 . S
C653 C651 1.433 . S
C653 N656 1.384 . S
C654 H645 0.929 . S
C654 C646 1.378 . S
C654 C649 1.350 . S
C655 H642 0.929 . S
C655 C647 1.433 . S
C655 N657 1.384 . S
N656 C652 1.427 . S
N656 C653 1.384 . S
N657 C649 1.427 . S
N657 C655 1.384 . S
H658 C664 0.930 . S
H659 C668 0.930 1_556 S
H660 C673 0.929 . S
H661 C671 0.929 . S
H662 C666 0.929 . S
H663 C672 0.929 . S
C664 H658 0.930 . S
C664 C665 1.367 . S
C664 C672 1.378 . S
C665 C664 1.367 . S
C665 C673 1.433 . S
C666 H662 0.929 . S
C666 C668 1.378 . S
C666 C670 1.350 . S
C667 C670 1.463 . S
C667 C672 1.350 . S
C667 N675 1.427 . S
C668 H659 0.930 1_554 S
C668 C666 1.378 . S
C668 C669 1.367 . S
C669 C668 1.367 . S
C669 C671 1.433 . S
C670 C666 1.350 . S
C670 C667 1.463 . S
C670 N674 1.427 . S
C671 H661 0.929 . S
C671 C669 1.433 . S
C671 N674 1.384 . S
C672 H663 0.929 . S
C672 C664 1.378 . S
C672 C667 1.350 . S
C673 H660 0.929 . S
C673 C665 1.433 . S
C673 N675 1.384 . S
N674 C670 1.427 . S
N674 C671 1.384 . S
N675 C667 1.427 . S
N675 C673 1.384 . S
H676 C682 0.930 . S
H677 C686 0.930 . S
H678 C691 0.929 . S
H679 C689 0.929 . S
H680 C684 0.929 . S
H681 C690 0.929 . S
C682 H676 0.930 . S
C682 C683 1.367 . S
C682 C690 1.378 . S
C683 C682 1.367 . S
C683 C691 1.433 . S
C684 H680 0.929 . S
C684 C686 1.378 . S
C684 C688 1.350 . S
C685 C688 1.463 . S
C685 C690 1.350 . S
C685 N693 1.427 . S
C686 H677 0.930 . S
C686 C684 1.378 . S
C686 C687 1.367 . S
C687 C686 1.367 . S
C687 C689 1.433 . S
C688 C684 1.350 . S
C688 C685 1.463 . S
C688 N692 1.427 . S
C689 H679 0.929 . S
C689 C687 1.433 . S
C689 N692 1.384 . S
C690 H681 0.929 . S
C690 C682 1.378 . S
C690 C685 1.350 . S
C691 H678 0.929 . S
C691 C683 1.433 . S
C691 N693 1.384 . S
N692 C688 1.427 . S
N692 C689 1.384 . S
N693 C685 1.427 . S
N693 C691 1.384 . S
H694 C700 0.930 . S
H695 C704 0.930 . S
H696 C709 0.929 . S
H697 C707 0.929 . S
H698 C702 0.929 . S
H699 C708 0.929 . S
C700 H694 0.930 . S
C700 C701 1.367 . S
C700 C708 1.378 . S
C701 C700 1.367 . S
C701 C709 1.433 . S
C702 H698 0.929 . S
C702 C704 1.378 . S
C702 C706 1.350 . S
C703 C706 1.463 . S
C703 C708 1.350 . S
C703 N711 1.427 . S
C704 H695 0.930 . S
C704 C702 1.378 . S
C704 C705 1.367 . S
C705 C704 1.367 . S
C705 C707 1.433 . S
C706 C702 1.350 . S
C706 C703 1.463 . S
C706 N710 1.427 . S
C707 H697 0.929 . S
C707 C705 1.433 . S
C707 N710 1.384 . S
C708 H699 0.929 . S
C708 C700 1.378 . S
C708 C703 1.350 . S
C709 H696 0.929 . S
C709 C701 1.433 . S
C709 N711 1.384 . S
N710 C706 1.427 . S
N710 C707 1.384 . S
N711 C703 1.427 . S
N711 C709 1.384 . S
H712 C718 0.930 . S
H713 C722 0.930 . S
H714 C727 0.929 . S
H715 C725 0.929 . S
H716 C720 0.929 . S
H717 C726 0.929 . S
C718 H712 0.930 . S
C718 C719 1.367 . S
C718 C726 1.378 . S
C719 C718 1.367 . S
C719 C727 1.433 . S
C720 H716 0.929 . S
C720 C722 1.378 . S
C720 C724 1.350 . S
C721 C724 1.463 . S
C721 C726 1.350 . S
C721 N729 1.427 . S
C722 H713 0.930 . S
C722 C720 1.378 . S
C722 C723 1.367 . S
C723 C722 1.367 . S
C723 C725 1.433 . S
C724 C720 1.350 . S
C724 C721 1.463 . S
C724 N728 1.427 . S
C725 H715 0.929 . S
C725 C723 1.433 . S
C725 N728 1.384 . S
C726 H717 0.929 . S
C726 C718 1.378 . S
C726 C721 1.350 . S
C727 H714 0.929 . S
C727 C719 1.433 . S
C727 N729 1.384 . S
N728 C724 1.427 . S
N728 C725 1.384 . S
N729 C721 1.427 . S
N729 C727 1.384 . S
H730 C736 0.930 1_554 S
H731 C740 0.930 . S
H732 C745 0.929 . S
H733 C743 0.929 . S
H734 C738 0.929 . S
H735 C744 0.929 . S
C736 H730 0.930 1_556 S
C736 C737 1.367 . S
C736 C744 1.378 . S
C737 C736 1.367 . S
C737 C745 1.433 . S
C738 H734 0.929 . S
C738 C740 1.378 . S
C738 C742 1.350 . S
C739 C742 1.463 . S
C739 C744 1.350 . S
C739 N747 1.427 . S
C740 H731 0.930 . S
C740 C738 1.378 . S
C740 C741 1.367 . S
C741 C740 1.367 . S
C741 C743 1.433 . S
C742 C738 1.350 . S
C742 C739 1.463 . S
C742 N746 1.427 . S
C743 H733 0.929 . S
C743 C741 1.433 . S
C743 N746 1.384 . S
C744 H735 0.929 . S
C744 C736 1.378 . S
C744 C739 1.350 . S
C745 H732 0.929 . S
C745 C737 1.433 . S
C745 N747 1.384 . S
N746 C742 1.427 . S
N746 C743 1.384 . S
N747 C739 1.427 . S
N747 C745 1.384 . S
H748 C754 0.930 . S
H749 C758 0.930 . S
H750 C763 0.929 . S
H751 C761 0.929 . S
H752 C756 0.929 . S
H753 C762 0.929 . S
C754 H748 0.930 . S
C754 C755 1.367 . S
C754 C762 1.378 . S
C755 C754 1.367 . S
C755 C763 1.433 . S
C756 H752 0.929 . S
C756 C758 1.378 . S
C756 C760 1.350 . S
C757 C760 1.463 . S
C757 C762 1.350 . S
C757 N765 1.427 . S
C758 H749 0.930 . S
C758 C756 1.378 . S
C758 C759 1.367 . S
C759 C758 1.367 . S
C759 C761 1.433 . S
C760 C756 1.350 . S
C760 C757 1.463 . S
C760 N764 1.427 . S
C761 H751 0.929 . S
C761 C759 1.433 . S
C761 N764 1.384 . S
C762 H753 0.929 . S
C762 C754 1.378 . S
C762 C757 1.350 . S
C763 H750 0.929 . S
C763 C755 1.433 . S
C763 N765 1.384 . S
N764 C760 1.427 . S
N764 C761 1.384 . S
N765 C757 1.427 . S
N765 C763 1.384 . S
H766 C772 0.930 . S
H767 C776 0.930 . S
H768 C781 0.929 . S
H769 C779 0.929 . S
H770 C774 0.929 . S
H771 C780 0.929 . S
C772 H766 0.930 . S
C772 C773 1.367 . S
C772 C780 1.378 . S
C773 C772 1.367 . S
C773 C781 1.433 . S
C774 H770 0.929 . S
C774 C776 1.378 . S
C774 C778 1.350 . S
C775 C778 1.463 . S
C775 C780 1.350 . S
C775 N783 1.427 . S
C776 H767 0.930 . S
C776 C774 1.378 . S
C776 C777 1.367 . S
C777 C776 1.367 . S
C777 C779 1.433 . S
C778 C774 1.350 . S
C778 C775 1.463 . S
C778 N782 1.427 . S
C779 H769 0.929 . S
C779 C777 1.433 . S
C779 N782 1.384 . S
C780 H771 0.929 . S
C780 C772 1.378 . S
C780 C775 1.350 . S
C781 H768 0.929 . S
C781 C773 1.433 . S
C781 N783 1.384 . S
N782 C778 1.427 . S
N782 C779 1.384 . S
N783 C775 1.427 . S
N783 C781 1.384 . S
H784 C790 0.930 . S
H785 C794 0.930 . S
H786 C799 0.929 . S
H787 C797 0.929 . S
H788 C792 0.929 . S
H789 C798 0.929 . S
C790 H784 0.930 . S
C790 C791 1.367 . S
C790 C798 1.378 . S
C791 C790 1.367 . S
C791 C799 1.433 . S
C792 H788 0.929 . S
C792 C794 1.378 . S
C792 C796 1.350 . S
C793 C796 1.463 . S
C793 C798 1.350 . S
C793 N801 1.427 . S
C794 H785 0.930 . S
C794 C792 1.378 . S
C794 C795 1.367 . S
C795 C794 1.367 . S
C795 C797 1.433 . S
C796 C792 1.350 . S
C796 C793 1.463 . S
C796 N800 1.427 . S
C797 H787 0.929 . S
C797 C795 1.433 . S
C797 N800 1.384 . S
C798 H789 0.929 . S
C798 C790 1.378 . S
C798 C793 1.350 . S
C799 H786 0.929 . S
C799 C791 1.433 . S
C799 N801 1.384 . S
N800 C796 1.427 . S
N800 C797 1.384 . S
N801 C793 1.427 . S
N801 C799 1.384 . S
H802 C808 0.930 . S
H803 C812 0.930 . S
H804 C817 0.929 . S
H805 C815 0.929 . S
H806 C810 0.929 . S
H807 C816 0.929 . S
C808 H802 0.930 . S
C808 C809 1.367 . S
C808 C816 1.378 . S
C809 C808 1.367 . S
C809 C817 1.433 . S
C810 H806 0.929 . S
C810 C812 1.378 . S
C810 C814 1.350 . S
C811 C814 1.463 . S
C811 C816 1.350 . S
C811 N819 1.427 . S
C812 H803 0.930 . S
C812 C810 1.378 . S
C812 C813 1.367 . S
C813 C812 1.367 . S
C813 C815 1.433 . S
C814 C810 1.350 . S
C814 C811 1.463 . S
C814 N818 1.427 . S
C815 H805 0.929 . S
C815 C813 1.433 . S
C815 N818 1.384 . S
C816 H807 0.929 . S
C816 C808 1.378 . S
C816 C811 1.350 . S
C817 H804 0.929 . S
C817 C809 1.433 . S
C817 N819 1.384 . S
N818 C814 1.427 . S
N818 C815 1.384 . S
N819 C811 1.427 . S
N819 C817 1.384 . S
H820 C826 0.930 . S
H821 C830 0.930 . S
H822 C835 0.929 . S
H823 C833 0.929 . S
H824 C828 0.929 . S
H825 C834 0.929 . S
C826 H820 0.930 . S
C826 C827 1.367 . S
C826 C834 1.378 . S
C827 C826 1.367 . S
C827 C835 1.433 . S
C828 H824 0.929 . S
C828 C830 1.378 . S
C828 C832 1.350 . S
C829 C832 1.463 . S
C829 C834 1.350 . S
C829 N837 1.427 . S
C830 H821 0.930 . S
C830 C828 1.378 . S
C830 C831 1.367 . S
C831 C830 1.367 . S
C831 C833 1.433 . S
C832 C828 1.350 . S
C832 C829 1.463 . S
C832 N836 1.427 . S
C833 H823 0.929 . S
C833 C831 1.433 . S
C833 N836 1.384 . S
C834 H825 0.929 . S
C834 C826 1.378 . S
C834 C829 1.350 . S
C835 H822 0.929 . S
C835 C827 1.433 . S
C835 N837 1.384 . S
N836 C832 1.427 . S
N836 C833 1.384 . S
N837 C829 1.427 . S
N837 C835 1.384 . S
H838 C844 0.930 . S
H839 C848 0.930 . S
H840 C853 0.908 1_556 S
H841 C851 0.929 . S
H842 C846 0.929 . S
H843 C852 0.929 . S
C844 H838 0.930 . S
C844 C845 1.367 . S
C844 C852 1.378 . S
C845 C844 1.367 . S
C845 C853 1.433 . S
C846 H842 0.929 . S
C846 C848 1.378 . S
C846 C850 1.350 . S
C847 C850 1.463 . S
C847 C852 1.350 . S
C847 N855 1.427 . S
C848 H839 0.930 . S
C848 C846 1.378 . S
C848 C849 1.367 . S
C849 C848 1.367 . S
C849 C851 1.433 . S
C850 C846 1.350 . S
C850 C847 1.463 . S
C850 N854 1.427 . S
C851 H841 0.929 . S
C851 C849 1.433 . S
C851 N854 1.384 . S
C852 H843 0.929 . S
C852 C844 1.378 . S
C852 C847 1.350 . S
C853 H840 0.908 1_554 S
C853 C845 1.433 . S
C853 N855 1.384 . S
N854 C850 1.427 . S
N854 C851 1.384 . S
N855 C847 1.427 . S
N855 C853 1.384 . S
H856 C862 0.930 . S
H857 C866 0.930 . S
H858 C871 0.929 . S
H859 C869 0.929 . S
H860 C864 0.929 . S
H861 C870 0.929 . S
C862 H856 0.930 . S
C862 C863 1.367 . S
C862 C870 1.378 . S
C863 C862 1.367 . S
C863 C871 1.433 . S
C864 H860 0.929 . S
C864 C866 1.378 . S
C864 C868 1.350 . S
C865 C868 1.463 . S
C865 C870 1.350 . S
C865 N873 1.427 . S
C866 H857 0.930 . S
C866 C864 1.378 . S
C866 C867 1.367 . S
C867 C866 1.367 . S
C867 C869 1.433 . S
C868 C864 1.350 . S
C868 C865 1.463 . S
C868 N872 1.427 . S
C869 H859 0.929 . S
C869 C867 1.433 . S
C869 N872 1.384 . S
C870 H861 0.929 . S
C870 C862 1.378 . S
C870 C865 1.350 . S
C871 H858 0.929 . S
C871 C863 1.433 . S
C871 N873 1.384 . S
N872 C868 1.427 . S
N872 C869 1.384 . S
N873 C865 1.427 . S
N873 C871 1.384 . S
H874 C880 0.930 . S
H875 C884 0.930 . S
H876 C889 0.929 . S
H877 C887 0.929 . S
H878 C882 0.929 . S
H879 C888 0.929 . S
C880 H874 0.930 . S
C880 C881 1.367 . S
C880 C888 1.378 . S
C881 C880 1.367 . S
C881 C889 1.433 . S
C882 H878 0.929 . S
C882 C884 1.378 . S
C882 C886 1.350 . S
C883 C886 1.463 . S
C883 C888 1.350 . S
C883 N891 1.427 . S
C884 H875 0.930 . S
C884 C882 1.378 . S
C884 C885 1.367 . S
C885 C884 1.367 . S
C885 C887 1.433 . S
C886 C882 1.350 . S
C886 C883 1.463 . S
C886 N890 1.427 . S
C887 H877 0.929 . S
C887 C885 1.433 . S
C887 N890 1.384 . S
C888 H879 0.929 . S
C888 C880 1.378 . S
C888 C883 1.350 . S
C889 H876 0.929 . S
C889 C881 1.433 . S
C889 N891 1.384 . S
N890 C886 1.427 . S
N890 C887 1.384 . S
N891 C883 1.427 . S
N891 C889 1.384 . S
H892 C898 0.930 . S
H893 C902 0.930 . S
H894 C907 0.929 . S
H895 C905 0.929 . S
H896 C900 0.929 . S
H897 C906 0.929 . S
C898 H892 0.930 . S
C898 C899 1.367 . S
C898 C906 1.378 . S
C899 C898 1.367 . S
C899 C907 1.433 . S
C900 H896 0.929 . S
C900 C902 1.378 . S
C900 C904 1.350 . S
C901 C904 1.463 . S
C901 C906 1.350 . S
C901 N909 1.427 . S
C902 H893 0.930 . S
C902 C900 1.378 . S
C902 C903 1.367 . S
C903 C902 1.367 . S
C903 C905 1.433 . S
C904 C900 1.350 . S
C904 C901 1.463 . S
C904 N908 1.427 . S
C905 H895 0.929 . S
C905 C903 1.433 . S
C905 N908 1.384 . S
C906 H897 0.929 . S
C906 C898 1.378 . S
C906 C901 1.350 . S
C907 H894 0.929 . S
C907 C899 1.433 . S
C907 N909 1.384 . S
N908 C904 1.427 . S
N908 C905 1.384 . S
N909 C901 1.427 . S
N909 C907 1.384 . S
H910 C916 0.930 . S
H911 C920 0.930 . S
H912 C925 0.929 . S
H913 C923 0.929 1_554 S
H914 C918 0.929 . S
H915 C924 0.929 . S
C916 H910 0.930 . S
C916 C917 1.367 . S
C916 C924 1.378 . S
C917 C916 1.367 . S
C917 C925 1.433 . S
C918 H914 0.929 . S
C918 C920 1.378 . S
C918 C922 1.350 . S
C919 C922 1.463 . S
C919 C924 1.350 . S
C919 N927 1.427 . S
C920 H911 0.930 . S
C920 C918 1.378 . S
C920 C921 1.367 . S
C921 C920 1.367 . S
C921 C923 1.433 . S
C922 C918 1.350 . S
C922 C919 1.463 . S
C922 N926 1.427 . S
C923 H913 0.929 1_556 S
C923 C921 1.433 . S
C923 N926 1.384 . S
C924 H915 0.929 . S
C924 C916 1.378 . S
C924 C919 1.350 . S
C925 H912 0.929 . S
C925 C917 1.433 . S
C925 N927 1.384 . S
N926 C922 1.427 . S
N926 C923 1.384 . S
N927 C919 1.427 . S
N927 C925 1.384 . S
H928 C934 0.930 . S
H929 C938 0.930 . S
H930 C943 0.929 . S
H931 C941 0.929 . S
H932 C936 0.929 . S
H933 C942 0.929 . S
C934 H928 0.930 . S
C934 C935 1.367 . S
C934 C942 1.378 . S
C935 C934 1.367 . S
C935 C943 1.433 . S
C936 H932 0.929 . S
C936 C938 1.378 . S
C936 C940 1.350 . S
C937 C940 1.463 . S
C937 C942 1.350 . S
C937 N945 1.427 . S
C938 H929 0.930 . S
C938 C936 1.378 . S
C938 C939 1.367 . S
C939 C938 1.367 . S
C939 C941 1.433 . S
C940 C936 1.350 . S
C940 C937 1.463 . S
C940 N944 1.427 . S
C941 H931 0.929 . S
C941 C939 1.433 . S
C941 N944 1.384 . S
C942 H933 0.929 . S
C942 C934 1.378 . S
C942 C937 1.350 . S
C943 H930 0.929 . S
C943 C935 1.433 . S
C943 N945 1.384 . S
N944 C940 1.427 . S
N944 C941 1.384 . S
N945 C937 1.427 . S
N945 C943 1.384 . S
H946 C952 0.930 . S
H947 C956 0.930 . S
H948 C961 0.929 . S
H949 C959 0.929 . S
H950 C954 0.929 . S
H951 C960 0.929 . S
C952 H946 0.930 . S
C952 C953 1.367 . S
C952 C960 1.378 . S
C953 C952 1.367 . S
C953 C961 1.433 . S
C954 H950 0.929 . S
C954 C956 1.378 . S
C954 C958 1.350 . S
C955 C958 1.463 . S
C955 C960 1.350 . S
C955 N963 1.427 . S
C956 H947 0.930 . S
C956 C954 1.378 . S
C956 C957 1.367 . S
C957 C956 1.367 . S
C957 C959 1.433 . S
C958 C954 1.350 . S
C958 C955 1.463 . S
C958 N962 1.427 . S
C959 H949 0.929 . S
C959 C957 1.433 . S
C959 N962 1.384 . S
C960 H951 0.929 . S
C960 C952 1.378 . S
C960 C955 1.350 . S
C961 H948 0.929 . S
C961 C953 1.433 . S
C961 N963 1.384 . S
N962 C958 1.427 . S
N962 C959 1.384 . S
N963 C955 1.427 . S
N963 C961 1.384 . S
H964 C970 0.930 . S
H965 C974 0.930 . S
H966 C979 0.929 . S
H967 C977 0.929 . S
H968 C972 0.929 . S
H969 C978 0.929 . S
C970 H964 0.930 . S
C970 C971 1.367 . S
C970 C978 1.378 . S
C971 C970 1.367 . S
C971 C979 1.433 . S
C972 H968 0.929 . S
C972 C974 1.378 . S
C972 C976 1.350 . S
C973 C976 1.463 . S
C973 C978 1.350 . S
C973 N981 1.427 . S
C974 H965 0.930 . S
C974 C972 1.378 . S
C974 C975 1.367 . S
C975 C974 1.367 . S
C975 C977 1.433 . S
C976 C972 1.350 . S
C976 C973 1.463 . S
C976 N980 1.427 . S
C977 H967 0.929 . S
C977 C975 1.433 . S
C977 N980 1.384 . S
C978 H969 0.929 . S
C978 C970 1.378 . S
C978 C973 1.350 . S
C979 H966 0.929 . S
C979 C971 1.433 . S
C979 N981 1.384 . S
N980 C976 1.427 . S
N980 C977 1.384 . S
N981 C973 1.427 . S
N981 C979 1.384 . S
H982 C988 0.930 . S
H983 C992 0.930 . S
H984 C997 0.914 1_655 S
H985 C995 0.914 1_455 S
H986 C990 0.929 . S
H987 C996 0.929 . S
C988 H982 0.930 . S
C988 C989 1.367 . S
C988 C996 1.378 . S
C989 C988 1.367 . S
C989 C997 1.460 . S
C990 H986 0.929 . S
C990 C992 1.378 1_554 S
C990 C994 1.350 . S
C991 C994 1.463 1_455 S
C991 C996 1.350 . S
C991 N999 1.427 1_455 S
C992 H983 0.930 . S
C992 C990 1.378 1_556 S
C992 C993 1.367 . S
C993 C992 1.367 . S
C993 C995 1.460 . S
C994 C990 1.350 . S
C994 C991 1.463 1_655 S
C994 N998 1.427 1_654 S
C995 H985 0.914 1_655 S
C995 C993 1.460 . S
C995 N998 1.373 1_655 S
C996 H987 0.929 . S
C996 C988 1.378 . S
C996 C991 1.350 . S
C997 H984 0.914 1_455 S
C997 C989 1.460 . S
C997 N999 1.373 1_455 S
N998 C994 1.427 1_456 S
N998 C995 1.373 1_455 S
N999 C991 1.427 1_655 S
N999 C997 1.373 1_655 S
H1000 C1006 0.930 . S
H1001 C1010 0.930 . S
H1002 C1015 0.929 . S
H1003 C1013 0.929 . S
H1004 C1008 0.929 . S
H1005 C1014 0.929 . S
C1006 H1000 0.930 . S
C1006 C1007 1.367 . S
C1006 C1014 1.378 . S
C1007 C1006 1.367 . S
C1007 C1015 1.433 . S
C1008 H1004 0.929 . S
C1008 C1010 1.378 . S
C1008 C1012 1.350 . S
C1009 C1012 1.463 . S
C1009 C1014 1.350 . S
C1009 N1017 1.427 . S
C1010 H1001 0.930 . S
C1010 C1008 1.378 . S
C1010 C1011 1.367 . S
C1011 C1010 1.367 . S
C1011 C1013 1.433 . S
C1012 C1008 1.350 . S
C1012 C1009 1.463 . S
C1012 N1016 1.427 . S
C1013 H1003 0.929 . S
C1013 C1011 1.433 . S
C1013 N1016 1.384 . S
C1014 H1005 0.929 . S
C1014 C1006 1.378 . S
C1014 C1009 1.350 . S
C1015 H1002 0.929 . S
C1015 C1007 1.433 . S
C1015 N1017 1.384 . S
N1016 C1012 1.427 . S
N1016 C1013 1.384 . S
N1017 C1009 1.427 . S
N1017 C1015 1.384 . S
H1018 C1024 0.930 . S
H1019 C1028 0.930 . S
H1020 C1033 0.929 . S
H1021 C1031 0.929 . S
H1022 C1026 0.929 . S
H1023 C1032 0.929 . S
C1024 H1018 0.930 . S
C1024 C1025 1.367 . S
C1024 C1032 1.378 . S
C1025 C1024 1.367 . S
C1025 C1033 1.433 . S
C1026 H1022 0.929 . S
C1026 C1028 1.378 . S
C1026 C1030 1.350 . S
C1027 C1030 1.463 . S
C1027 C1032 1.350 . S
C1027 N1035 1.427 . S
C1028 H1019 0.930 . S
C1028 C1026 1.378 . S
C1028 C1029 1.367 . S
C1029 C1028 1.367 . S
C1029 C1031 1.433 . S
C1030 C1026 1.350 . S
C1030 C1027 1.463 . S
C1030 N1034 1.427 . S
C1031 H1021 0.929 . S
C1031 C1029 1.433 . S
C1031 N1034 1.384 . S
C1032 H1023 0.929 . S
C1032 C1024 1.378 . S
C1032 C1027 1.350 . S
C1033 H1020 0.929 . S
C1033 C1025 1.433 . S
C1033 N1035 1.384 . S
N1034 C1030 1.427 . S
N1034 C1031 1.384 . S
N1035 C1027 1.427 . S
N1035 C1033 1.384 . S
H1036 C1042 0.930 . S
H1037 C1046 0.930 . S
H1038 C1051 0.929 1_565 S
H1039 C1049 0.929 1_545 S
H1040 C1044 0.929 . S
H1041 C1050 0.929 . S
C1042 H1036 0.930 . S
C1042 C1043 1.367 . S
C1042 C1050 1.378 1_556 S
C1043 C1042 1.367 . S
C1043 C1051 1.433 . S
C1044 H1040 0.929 . S
C1044 C1046 1.378 . S
C1044 C1048 1.350 . S
C1045 C1048 1.463 1_445 S
C1045 C1050 1.350 . S
C1045 N1053 1.427 1_544 S
C1046 H1037 0.930 . S
C1046 C1044 1.378 . S
C1046 C1047 1.367 . S
C1047 C1046 1.367 . S
C1047 C1049 1.433 . S
C1048 C1044 1.350 . S
C1048 C1045 1.463 1_665 S
C1048 N1052 1.427 1_565 S
C1049 H1039 0.929 1_565 S
C1049 C1047 1.433 . S
C1049 N1052 1.384 1_565 S
C1050 H1041 0.929 . S
C1050 C1042 1.378 1_554 S
C1050 C1045 1.350 . S
C1051 H1038 0.929 1_545 S
C1051 C1043 1.433 . S
C1051 N1053 1.384 1_545 S
N1052 C1048 1.427 1_545 S
N1052 C1049 1.384 1_545 S
N1053 C1045 1.427 1_566 S
N1053 C1051 1.384 1_565 S
H1054 C1060 0.917 1_565 S
H1055 C1064 0.917 1_545 S
H1056 C1069 0.929 . S
H1057 C1067 0.929 . S
H1058 C1062 0.929 . S
H1059 C1068 0.929 . S
C1060 H1054 0.917 1_545 S
C1060 C1061 1.390 . S
C1060 C1068 1.368 1_545 S
C1061 C1060 1.390 . S
C1061 C1069 1.433 . S
C1062 H1058 0.929 . S
C1062 C1064 1.368 1_545 S
C1062 C1066 1.350 1_545 S
C1063 C1066 1.463 1_545 S
C1063 C1068 1.350 1_545 S
C1063 N1071 1.427 . S
C1064 H1055 0.917 1_565 S
C1064 C1062 1.368 1_565 S
C1064 C1065 1.390 . S
C1065 C1064 1.390 . S
C1065 C1067 1.433 . S
C1066 C1062 1.350 1_565 S
C1066 C1063 1.463 1_565 S
C1066 N1070 1.427 . S
C1067 H1057 0.929 . S
C1067 C1065 1.433 . S
C1067 N1070 1.384 . S
C1068 H1059 0.929 . S
C1068 C1060 1.368 1_565 S
C1068 C1063 1.350 1_565 S
C1069 H1056 0.929 . S
C1069 C1061 1.433 . S
C1069 N1071 1.384 . S
N1070 C1066 1.427 . S
N1070 C1067 1.384 . S
N1071 C1063 1.427 . S
N1071 C1069 1.384 . S
H1072 C1078 0.930 . S
H1073 C1082 0.930 . S
H1074 C1087 0.929 . S
H1075 C1085 0.929 . S
H1076 C1080 0.929 . S
H1077 C1086 0.929 . S
C1078 H1072 0.930 . S
C1078 C1079 1.367 . S
C1078 C1086 1.378 . S
C1079 C1078 1.367 . S
C1079 C1087 1.433 . S
C1080 H1076 0.929 . S
C1080 C1082 1.378 . S
C1080 C1084 1.350 . S
C1081 C1084 1.463 . S
C1081 C1086 1.350 . S
C1081 N1089 1.427 . S
C1082 H1073 0.930 . S
C1082 C1080 1.378 . S
C1082 C1083 1.367 . S
C1083 C1082 1.367 . S
C1083 C1085 1.433 . S
C1084 C1080 1.350 . S
C1084 C1081 1.463 . S
C1084 N1088 1.427 . S
C1085 H1075 0.929 . S
C1085 C1083 1.433 . S
C1085 N1088 1.384 . S
C1086 H1077 0.929 . S
C1086 C1078 1.378 . S
C1086 C1081 1.350 . S
C1087 H1074 0.929 . S
C1087 C1079 1.433 . S
C1087 N1089 1.384 . S
N1088 C1084 1.427 . S
N1088 C1085 1.384 . S
N1089 C1081 1.427 . S
N1089 C1087 1.384 . S
H1090 C1096 0.930 . S
H1091 C1100 0.930 . S
H1092 C1105 0.929 . S
H1093 C1103 0.929 . S
H1094 C1098 0.929 . S
H1095 C1104 0.929 . S
C1096 H1090 0.930 . S
C1096 C1097 1.367 . S
C1096 C1104 1.378 . S
C1097 C1096 1.367 . S
C1097 C1105 1.433 . S
C1098 H1094 0.929 . S
C1098 C1100 1.378 . S
C1098 C1102 1.350 . S
C1099 C1102 1.463 . S
C1099 C1104 1.350 1_554 S
C1099 N1107 1.427 . S
C1100 H1091 0.930 . S
C1100 C1098 1.378 . S
C1100 C1101 1.367 . S
C1101 C1100 1.367 . S
C1101 C1103 1.433 . S
C1102 C1098 1.350 . S
C1102 C1099 1.463 . S
C1102 N1106 1.427 . S
C1103 H1093 0.929 . S
C1103 C1101 1.433 . S
C1103 N1106 1.384 . S
C1104 H1095 0.929 . S
C1104 C1096 1.378 . S
C1104 C1099 1.350 1_556 S
C1105 H1092 0.929 . S
C1105 C1097 1.433 . S
C1105 N1107 1.384 1_556 S
N1106 C1102 1.427 . S
N1106 C1103 1.384 . S
N1107 C1099 1.427 . S
N1107 C1105 1.384 1_554 S
H1108 C1114 0.930 . S
H1109 C1118 0.930 . S
H1110 C1123 0.929 . S
H1111 C1121 0.929 . S
H1112 C1116 0.929 . S
H1113 C1122 0.929 . S
C1114 H1108 0.930 . S
C1114 C1115 1.367 . S
C1114 C1122 1.378 . S
C1115 C1114 1.367 . S
C1115 C1123 1.433 . S
C1116 H1112 0.929 . S
C1116 C1118 1.378 . S
C1116 C1120 1.350 . S
C1117 C1120 1.463 . S
C1117 C1122 1.350 . S
C1117 N1125 1.427 . S
C1118 H1109 0.930 . S
C1118 C1116 1.378 . S
C1118 C1119 1.367 . S
C1119 C1118 1.367 . S
C1119 C1121 1.433 . S
C1120 C1116 1.350 . S
C1120 C1117 1.463 . S
C1120 N1124 1.427 . S
C1121 H1111 0.929 . S
C1121 C1119 1.433 . S
C1121 N1124 1.384 . S
C1122 H1113 0.929 . S
C1122 C1114 1.378 . S
C1122 C1117 1.350 . S
C1123 H1110 0.929 . S
C1123 C1115 1.433 . S
C1123 N1125 1.384 . S
N1124 C1120 1.427 . S
N1124 C1121 1.384 . S
N1125 C1117 1.427 . S
N1125 C1123 1.384 . S
H1126 C1132 0.930 . S
H1127 C1136 0.930 . S
H1128 C1141 0.929 . S
H1129 C1139 0.929 . S
H1130 C1134 0.929 . S
H1131 C1140 0.929 . S
C1132 H1126 0.930 . S
C1132 C1133 1.367 . S
C1132 C1140 1.378 . S
C1133 C1132 1.367 . S
C1133 C1141 1.433 . S
C1134 H1130 0.929 . S
C1134 C1136 1.378 . S
C1134 C1138 1.350 . S
C1135 C1138 1.463 1_455 S
C1135 C1140 1.350 . S
C1135 N1143 1.427 1_455 S
C1136 H1127 0.930 . S
C1136 C1134 1.378 . S
C1136 C1137 1.367 . S
C1137 C1136 1.367 . S
C1137 C1139 1.433 . S
C1138 C1134 1.350 . S
C1138 C1135 1.463 1_655 S
C1138 N1142 1.427 1_655 S
C1139 H1129 0.929 . S
C1139 C1137 1.433 . S
C1139 N1142 1.384 1_655 S
C1140 H1131 0.929 . S
C1140 C1132 1.378 . S
C1140 C1135 1.350 . S
C1141 H1128 0.929 . S
C1141 C1133 1.433 . S
C1141 N1143 1.384 1_455 S
N1142 C1138 1.427 1_455 S
N1142 C1139 1.384 1_455 S
N1143 C1135 1.427 1_655 S
N1143 C1141 1.384 1_655 S
H1144 C1150 0.930 . S
H1145 C1154 0.930 . S
H1146 C1159 0.929 . S
H1147 C1157 0.929 . S
H1148 C1152 0.929 . S
H1149 C1158 0.929 . S
C1150 H1144 0.930 . S
C1150 C1151 1.367 . S
C1150 C1158 1.378 . S
C1151 C1150 1.367 . S
C1151 C1159 1.433 . S
C1152 H1148 0.929 . S
C1152 C1154 1.378 . S
C1152 C1156 1.350 . S
C1153 C1156 1.463 . S
C1153 C1158 1.350 . S
C1153 N1161 1.427 . S
C1154 H1145 0.930 . S
C1154 C1152 1.378 . S
C1154 C1155 1.367 . S
C1155 C1154 1.367 . S
C1155 C1157 1.433 . S
C1156 C1152 1.350 . S
C1156 C1153 1.463 . S
C1156 N1160 1.427 . S
C1157 H1147 0.929 . S
C1157 C1155 1.433 . S
C1157 N1160 1.384 . S
C1158 H1149 0.929 . S
C1158 C1150 1.378 . S
C1158 C1153 1.350 . S
C1159 H1146 0.929 . S
C1159 C1151 1.433 . S
C1159 N1161 1.384 . S
N1160 C1156 1.427 . S
N1160 C1157 1.384 . S
N1161 C1153 1.427 . S
N1161 C1159 1.384 . S
H1162 C1168 0.930 . S
H1163 C1172 0.930 . S
H1164 C1177 0.929 . S
H1165 C1175 0.929 . S
H1166 C1170 0.929 . S
H1167 C1176 0.929 . S
C1168 H1162 0.930 . S
C1168 C1169 1.367 . S
C1168 C1176 1.378 . S
C1169 C1168 1.367 . S
C1169 C1177 1.433 . S
C1170 H1166 0.929 . S
C1170 C1172 1.378 . S
C1170 C1174 1.350 . S
C1171 C1174 1.463 . S
C1171 C1176 1.350 . S
C1171 N1179 1.427 . S
C1172 H1163 0.930 . S
C1172 C1170 1.378 . S
C1172 C1173 1.367 . S
C1173 C1172 1.367 . S
C1173 C1175 1.433 . S
C1174 C1170 1.350 . S
C1174 C1171 1.463 . S
C1174 N1178 1.427 . S
C1175 H1165 0.929 . S
C1175 C1173 1.433 . S
C1175 N1178 1.384 . S
C1176 H1167 0.929 . S
C1176 C1168 1.378 . S
C1176 C1171 1.350 . S
C1177 H1164 0.929 . S
C1177 C1169 1.433 . S
C1177 N1179 1.384 . S
N1178 C1174 1.427 . S
N1178 C1175 1.384 . S
N1179 C1171 1.427 . S
N1179 C1177 1.384 . S
H1180 C1186 0.930 . S
H1181 C1190 0.930 . S
H1182 C1195 0.929 . S
H1183 C1193 0.929 . S
H1184 C1188 0.929 . S
H1185 C1194 0.929 . S
C1186 H1180 0.930 . S
C1186 C1187 1.367 . S
C1186 C1194 1.378 . S
C1187 C1186 1.367 . S
C1187 C1195 1.433 . S
C1188 H1184 0.929 . S
C1188 C1190 1.378 . S
C1188 C1192 1.350 . S
C1189 C1192 1.463 1_665 S
C1189 C1194 1.350 . S
C1189 N1197 1.427 1_565 S
C1190 H1181 0.930 . S
C1190 C1188 1.378 . S
C1190 C1191 1.367 . S
C1191 C1190 1.367 . S
C1191 C1193 1.433 . S
C1192 C1188 1.350 . S
C1192 C1189 1.463 1_445 S
C1192 N1196 1.427 1_545 S
C1193 H1183 0.929 . S
C1193 C1191 1.433 . S
C1193 N1196 1.384 1_545 S
C1194 H1185 0.929 . S
C1194 C1186 1.378 . S
C1194 C1189 1.350 . S
C1195 H1182 0.929 . S
C1195 C1187 1.433 . S
C1195 N1197 1.384 1_565 S
N1196 C1192 1.427 1_565 S
N1196 C1193 1.384 1_565 S
N1197 C1189 1.427 1_545 S
N1197 C1195 1.384 1_545 S
H1198 C1204 0.930 1_565 S
H1199 C1208 0.930 1_545 S
H1200 C1213 0.929 . S
H1201 C1211 0.929 . S
H1202 C1206 0.929 . S
H1203 C1212 0.929 . S
C1204 H1198 0.930 1_545 S
C1204 C1205 1.367 . S
C1204 C1212 1.378 1_545 S
C1205 C1204 1.367 . S
C1205 C1213 1.433 . S
C1206 H1202 0.929 . S
C1206 C1208 1.378 1_545 S
C1206 C1210 1.350 1_545 S
C1207 C1210 1.463 1_545 S
C1207 C1212 1.350 1_544 S
C1207 N1215 1.427 . S
C1208 H1199 0.930 1_565 S
C1208 C1206 1.378 1_565 S
C1208 C1209 1.367 . S
C1209 C1208 1.367 . S
C1209 C1211 1.433 . S
C1210 C1206 1.350 1_565 S
C1210 C1207 1.463 1_565 S
C1210 N1214 1.427 . S
C1211 H1201 0.929 . S
C1211 C1209 1.433 . S
C1211 N1214 1.384 . S
C1212 H1203 0.929 . S
C1212 C1204 1.378 1_565 S
C1212 C1207 1.350 1_566 S
C1213 H1200 0.929 . S
C1213 C1205 1.433 . S
C1213 N1215 1.384 1_556 S
N1214 C1210 1.427 . S
N1214 C1211 1.384 . S
N1215 C1207 1.427 . S
N1215 C1213 1.384 1_554 S
C359 C7 1.520 1_556 S
C363 C203 1.598 . S
C377 C225 1.598 . S
C381 C28 1.520 . S
C395 C251 1.595 . S
C399 C50 1.541 . S
C413 C185 1.602 . S
C417 C73 1.539 . S
C431 C93 1.531 . S
C435 C292 1.591 . S
C449 C115 1.521 . S
C453 C315 1.605 . S
C467 C337 1.604 . S
C471 C141 1.520 . S
C485 C270 1.591 . S
C489 C163 1.537 . S
C503 C27 1.607 . S
C507 C183 1.524 . S
C521 C49 1.596 . S
C525 C204 1.541 . S
C539 C75 1.606 . S
C543 C226 1.522 1_556 S
C557 C249 1.523 . S
C561 C9 1.595 . S
C575 C116 1.599 . S
C579 C269 1.541 . S
C593 C139 1.592 . S
C597 C291 1.538 . S
C611 C161 1.605 . S
C615 C317 1.536 . S
C629 C94 1.596 . S
C633 C339 1.522 . S
C647 C6 1.463 . S
C651 C334 1.517 . S
C665 C29 1.451 . S
C669 C96 1.520 . S
C683 C294 1.515 . S
C687 C51 1.457 . S
C701 C136 1.520 . S
C705 C72 1.461 . S
C719 C97 1.464 . S
C723 C246 1.519 . S
C737 C4 1.520 1_556 S
C741 C119 1.462 . S
C755 C137 1.448 . S
C759 C206 1.518 . S
C773 C159 1.459 . S
C777 C52 1.521 . S
C791 C182 1.461 . S
C795 C158 1.516 . S
C809 C272 1.515 . S
C813 C205 1.458 . S
C827 C227 1.448 . S
C831 C118 1.518 . S
C845 C312 1.516 . S
C849 C248 1.462 . S
C863 C273 1.459 . S
C867 C70 1.515 . S
C881 C180 1.521 . S
C885 C295 1.457 . S
C899 C313 1.452 . S
C903 C30 1.520 . S
C917 C335 1.450 . S
C921 C228 1.515 1_556 S
C935 C8 1.368 . S
C939 C268 1.368 . S
C953 C114 1.374 . S
C957 C26 1.374 . S
C971 C48 1.367 . S
C975 C316 1.367 . S
C989 C162 1.378 . S
C993 C74 1.378 . S
C1007 C92 1.378 . S
C1011 C184 1.378 . S
C1025 C224 1.370 . S
C1029 C140 1.370 . S
C1043 C202 1.373 . S
C1047 C290 1.373 . S
C1061 C338 1.373 . S
C1065 C250 1.373 . S
C1079 C271 1.151 . S
C1083 C5 1.151 . S
C1097 C117 1.142 . S
C1101 C31 1.142 . S
C1115 C53 1.146 . S
C1119 C314 1.146 . S
C1133 C160 1.139 . S
C1137 C71 1.139 . S
C1151 C95 1.149 . S
C1155 C181 1.149 . S
C1169 C138 1.152 . S
C1173 C229 1.152 . S
C1187 C293 1.154 . S
C1191 C207 1.154 . S
C1205 C336 1.131 . S
C1209 C247 1.131 . S
