# Generated by pormake.
# Topology sxb, (6)-cn, num edge types: 1
# Building blocks:
#     Node 0, Type 0, BuildingBlock: BETFAJ_clean_sbu_0, # of connection points: 6
#     Node 1, Type 0, BuildingBlock: BETFAJ_clean_sbu_0, # of connection points: 6
#     Node 2, Type 0, BuildingBlock: BETFAJ_clean_sbu_0, # of connection points: 6
#     Node 3, Type 0, BuildingBlock: BETFAJ_clean_sbu_0, # of connection points: 6
#     Edge 4, Type (0, 0), BuildingBlock: FUNLAD_clean_linker_0, # of connection points: 2
#     Edge 5, Type (0, 0), BuildingBlock: FUNLAD_clean_linker_0, # of connection points: 2
#     Edge 6, Type (0, 0), BuildingBlock: FUNLAD_clean_linker_0, # of connection points: 2
#     Edge 7, Type (0, 0), BuildingBlock: FUNLAD_clean_linker_0, # of connection points: 2
#     Edge 8, Type (0, 0), BuildingBlock: FUNLAD_clean_linker_0, # of connection points: 2
#     Edge 9, Type (0, 0), BuildingBlock: FUNLAD_clean_linker_0, # of connection points: 2
#     Edge 10, Type (0, 0), BuildingBlock: FUNLAD_clean_linker_0, # of connection points: 2
#     Edge 11, Type (0, 0), BuildingBlock: FUNLAD_clean_linker_0, # of connection points: 2
#     Edge 12, Type (0, 0), BuildingBlock: FUNLAD_clean_linker_0, # of connection points: 2
#     Edge 13, Type (0, 0), BuildingBlock: FUNLAD_clean_linker_0, # of connection points: 2
#     Edge 14, Type (0, 0), BuildingBlock: FUNLAD_clean_linker_0, # of connection points: 2
#     Edge 15, Type (0, 0), BuildingBlock: FUNLAD_clean_linker_0, # of connection points: 2
# Relax obj value: 0.333
# Max RMSD: 0.118
# Mean RMSD: 0.075
data_MOF--net-sxb--node1-BETFAJ_clean_sbu_0--edge1-FUNLAD_clean_linker_0
_symmetry_space_group_name_H-M    P1
_symmetry_Int_Tables_number       1
_symmetry_cell_setting            triclinic
loop_
_symmetry_equiv_pos_as_xyz
'x, y, z'
_cell_length_a     18.803788
_cell_length_b     39.466443
_cell_length_c     35.126387
_cell_angle_alpha  92.959397
_cell_angle_beta   94.623792
_cell_angle_gamma 68.280806
loop_
_atom_site_label
_atom_site_type_symbol
_atom_site_fract_x
_atom_site_fract_y
_atom_site_fract_z
_atom_type_partial_charge
Sm0 Sm 1.03633 0.06092 0.95141 0.0
Sm1 Sm 0.17804 0.066 0.95189 0.0
C2 C 0.91546 1.04675 0.9681 0.0
C3 C 0.89078 1.04029 0.00475 0.0
C4 C 0.94516 1.02331 0.03448 0.0
C5 C 0.92134 1.01882 0.06989 0.0
C6 C 0.84292 1.03187 0.07628 0.0
C7 C 0.78874 1.04922 0.04664 0.0
C8 C 0.81255 1.05331 0.0111 0.0
C9 C 1.06091 0.07384 0.87741 0.0
C10 C 1.03285 0.14191 0.95266 0.0
C11 C 0.30911 0.07644 0.95629 0.0
C12 C 0.3745 1.05955 0.98399 0.0
C13 C 0.39122 1.02369 -0.0044 0.0
C14 C 0.44038 1.01012 0.02777 0.0
C15 C 0.47377 1.03213 0.04915 0.0
C16 C 0.46002 0.0674 0.03637 0.0
C17 C 0.41059 0.08102 0.00412 0.0
C18 C 0.14808 1.04994 0.02399 0.0
C19 C 0.18644 0.98447 0.94473 0.0
O20 O 0.97788 1.02181 0.95625 0.0
O21 O 0.91335 0.07968 0.96382 0.0
O22 O 0.11151 1.0524 0.89997 0.0
O23 O 0.9963 0.08761 0.89317 0.0
O24 O 1.00151 0.12191 0.96866 0.0
O25 O 1.09807 0.12513 0.93651 0.0
O26 O 0.29332 1.05456 0.93069 0.0
O27 O 0.2479 0.0991 0.97158 0.0
O28 O 1.10211 0.07416 0.00254 0.0
O29 O 0.21027 1.03279 0.00717 0.0
O30 O 0.22024 1.00563 0.93353 0.0
O31 O 0.11813 0.99974 0.95856 0.0
H32 H 1.00605 1.01373 0.03041 0.0
H33 H 0.96408 1.00555 0.0924 0.0
H34 H 0.72787 1.05913 0.05081 0.0
H35 H 0.76994 0.06685 0.98864 0.0
H36 H 0.36305 1.00671 0.98107 0.0
H37 H 0.44903 0.98303 0.03697 0.0
H38 H 0.48593 0.08482 0.05187 0.0
H39 H 0.39769 0.10889 -0.004 0.0
Sm40 Sm 0.13463 1.02306 0.45401 0.0
Sm41 Sm 1.07388 0.09913 0.44639 0.0
C42 C 0.16509 0.95565 0.47556 0.0
C43 C 0.1203 0.94001 0.49616 0.0
C44 C 1.06349 0.96248 0.51961 0.0
C45 C 1.01414 0.94884 0.53543 0.0
C46 C 1.02073 0.91254 0.52795 0.0
C47 C 1.07983 0.88972 0.50571 0.0
C48 C 0.12918 0.90342 0.48986 0.0
C49 C 0.12803 1.04198 0.37859 0.0
C50 C 0.94493 0.06403 0.44562 0.0
C51 C 1.04285 0.16857 0.43334 0.0
C52 C 1.07568 0.19284 0.45452 0.0
C53 C 1.0746 0.22475 0.43843 0.0
C54 C 0.11284 0.24557 0.45789 0.0
C55 C 0.15278 0.2345 0.49354 0.0
C56 C 0.15149 0.20305 0.50992 0.0
C57 C 0.11365 0.18233 0.4905 0.0
C58 C 1.08283 0.08014 0.52205 0.0
C59 C 0.26655 1.05757 0.45251 0.0
O60 O 0.18937 0.97868 0.49524 0.0
O61 O 0.13642 0.967 0.44138 0.0
O62 O 1.07499 1.0564 0.40105 0.0
O63 O 0.18605 1.01691 0.39558 0.0
O64 O 1.00298 1.03755 0.46269 0.0
O65 O 0.96007 0.08996 0.42958 0.0
O66 O 1.09144 0.14208 0.41403 0.0
O67 O 0.99975 0.15747 0.45285 0.0
O68 O 0.13472 0.06595 0.49903 0.0
O69 O 1.02508 0.10537 0.50549 0.0
O70 O 0.2066 0.08787 0.44459 0.0
O71 O 0.2544 1.02776 0.45993 0.0
H72 H 1.0557 0.99091 0.52475 0.0
H73 H 0.96959 0.96694 0.55268 0.0
H74 H 1.08559 0.86177 0.49897 0.0
H75 H 0.17237 0.88586 0.47158 0.0
H76 H 1.04609 0.23298 0.41052 0.0
H77 H 0.11366 0.26947 0.4444 0.0
H78 H 0.18089 0.19409 0.5375 0.0
H79 H 0.11552 0.15755 0.50324 0.0
Sm80 Sm 0.51599 0.55624 0.95408 0.0
Sm81 Sm 0.65619 0.56507 0.95702 0.0
C82 C 0.38495 0.55232 0.97132 0.0
C83 C 0.35322 0.55545 0.00882 0.0
C84 C 0.40272 0.54288 0.04152 0.0
C85 C 0.37338 0.5459 0.07727 0.0
C86 C 0.29405 0.5619 0.08107 0.0
C87 C 0.24462 0.57521 0.04844 0.0
C88 C 0.27407 0.57194 0.01253 0.0
C89 C 0.56721 0.54731 0.88047 0.0
C90 C 0.50376 0.64048 0.95042 0.0
C91 C 0.78585 0.57686 0.96002 0.0
C92 C 0.84982 0.56496 0.98939 0.0
C93 C 0.86596 0.5322 0.00841 0.0
C94 C 0.91142 0.52522 0.04268 0.0
C95 C 0.94141 0.55092 0.05863 0.0
C96 C 0.92933 0.58256 0.03819 0.0
C97 C 0.88367 0.58956 0.00391 0.0
C98 C 0.62216 0.55127 0.02937 0.0
C99 C 0.66566 0.48311 0.95519 0.0
O100 O 0.44677 0.5237 0.96622 0.0
O101 O 0.38947 0.582 0.95896 0.0
O102 O 0.57279 0.57125 0.90464 0.0
O103 O 0.5322 0.52864 0.89451 0.0
O104 O 0.46521 0.61909 0.95398 0.0
O105 O 0.57893 0.62615 0.94845 0.0
O106 O 0.77405 0.55141 0.93798 0.0
O107 O 0.72265 0.6004 0.97275 0.0
O108 O 0.57622 0.57302 0.00567 0.0
O109 O 0.68739 0.53538 0.01481 0.0
O110 O 0.69417 0.504 0.93861 0.0
O111 O 0.60098 0.499 0.97201 0.0
H112 H 0.46424 0.53055 0.03942 0.0
H113 H 0.41272 0.53573 0.10198 0.0
H114 H 0.18309 0.58732 0.05058 0.0
H115 H 0.23515 0.58207 0.98768 0.0
H116 H 0.83963 0.51297 -0.00194 0.0
H117 H 0.91922 0.50071 0.05775 0.0
H118 H 0.95298 0.60254 0.04937 0.0
H119 H 0.8712 0.61516 0.98994 0.0
Sm120 Sm 0.65218 0.51716 0.46237 0.0
Sm121 Sm 0.58005 0.59215 0.45178 0.0
C122 C 0.6914 0.45015 0.48708 0.0
C123 C 0.64976 0.43436 0.50966 0.0
C124 C 0.59183 0.45719 0.53235 0.0
C125 C 0.5446 0.44328 0.54965 0.0
C126 C 0.55458 0.40632 0.54453 0.0
C127 C 0.61509 0.38319 0.52329 0.0
C128 C 0.66223 0.39718 0.50586 0.0
C129 C 0.64643 0.53351 0.38619 0.0
C130 C 0.46076 0.55228 0.45386 0.0
C131 C 0.53751 0.66177 0.4352 0.0
C132 C 0.56862 0.68968 0.44923 0.0
C133 C 0.64555 0.68454 0.44484 0.0
C134 C 0.67841 0.7075 0.46401 0.0
C135 C 0.63512 0.73605 0.48799 0.0
C136 C 0.55708 0.74241 0.49075 0.0
C137 C 0.52411 0.7194 0.47149 0.0
C138 C 0.59072 0.57463 0.52818 0.0
C139 C 0.77414 0.55682 0.45897 0.0
O140 O 0.71354 0.47479 0.5049 0.0
O141 O 0.66067 0.45972 0.45273 0.0
O142 O 0.59084 0.54706 0.40749 0.0
O143 O 0.70587 0.51084 0.40483 0.0
O144 O 0.52212 0.52761 0.47103 0.0
O145 O 0.47011 0.57919 0.43678 0.0
O146 O 0.58034 0.63528 0.41359 0.0
O147 O 0.50585 0.65017 0.46076 0.0
O148 O 0.64413 0.56234 0.50571 0.0
O149 O 0.52946 0.59675 0.51054 0.0
O150 O 0.71065 0.58546 0.45057 0.0
O151 O 0.7679 0.52591 0.46742 0.0
H152 H 0.58133 0.48607 0.53559 0.0
H153 H 0.49884 0.46164 0.56608 0.0
H154 H 0.62344 0.35469 0.51841 0.0
H155 H 0.70633 0.37932 0.48821 0.0
H156 H 0.68131 0.66202 0.4277 0.0
H157 H 0.73821 0.7025 0.46056 0.0
H158 H 0.52231 0.7642 0.50901 0.0
H159 H 0.46471 0.72384 0.47536 0.0
C160 C 0.4998 0.70549 0.94687 0.0
C161 C 0.46134 0.6811 0.9491 0.0
C162 C 0.45922 0.74359 0.94666 0.0
C163 C 0.37862 0.75849 0.94857 0.0
C164 C 0.34067 0.73392 0.95072 0.0
C165 C 0.38107 0.69604 0.95093 0.0
C166 C 0.33135 0.79898 0.94933 0.0
C167 C 0.35716 0.82589 0.94262 0.0
C168 C 0.3097 0.86635 0.94303 0.0
C169 C 0.34163 0.89033 0.92979 0.0
C170 C 0.30145 0.92823 0.93005 0.0
C171 C 0.22758 0.94377 0.9437 0.0
H172 H 0.2083 0.865 0.96784 0.0
C173 C 0.19511 0.91999 0.95699 0.0
C174 C 0.23546 0.88187 0.95674 0.0
H175 H 0.1386 0.93083 0.96796 0.0
H176 H 0.56156 0.69519 0.94563 0.0
H177 H 0.49182 0.76098 0.94554 0.0
H178 H 0.27898 0.74408 0.95234 0.0
H179 H 0.34896 0.67843 0.95276 0.0
H180 H 0.27149 0.80657 0.9549 0.0
H181 H 0.41616 0.81823 0.93543 0.0
H182 H 0.39847 0.87969 0.91917 0.0
H183 H 0.32889 0.94541 0.91968 0.0
C184 C 0.77608 0.42453 0.93899 0.0
C185 C 0.70601 0.44239 0.95603 0.0
C186 C 0.81319 0.38623 0.94004 0.0
C187 C 0.78121 0.36458 0.95827 0.0
C188 C 0.71117 0.38271 0.9752 0.0
C189 C 0.67432 0.4208 0.97416 0.0
C190 C 0.81698 0.32341 0.9604 0.0
C191 C 0.88575 0.30186 0.94731 0.0
C192 C 0.9211 0.26066 0.94957 0.0
C193 C 0.99177 0.24218 0.93327 0.0
C194 C 1.02774 0.204 0.93436 0.0
C195 C 0.99442 0.18274 0.95188 0.0
H196 H 0.83388 0.25165 0.98047 0.0
C197 C 0.92387 0.201 0.96834 0.0
C198 C 0.88773 0.23929 0.96726 0.0
H199 H 0.89626 0.18568 0.98213 0.0
H200 H 0.80239 0.44015 0.92473 0.0
H201 H 0.86653 0.37403 0.92632 0.0
H202 H 0.6844 0.36728 0.98947 0.0
H203 H 0.62059 0.43331 0.98765 0.0
H204 H 0.78382 0.31055 0.97376 0.0
H205 H 0.91901 0.31473 0.93401 0.0
H206 H 1.01961 0.25739 0.91944 0.0
H207 H 1.08191 0.19115 0.92133 0.0
C208 C 0.17321 0.29235 0.51371 0.0
C209 C 0.20007 0.25408 0.5125 0.0
C210 C 0.2203 0.31046 0.52956 0.0
C211 C 0.29524 0.2905 0.54458 0.0
C212 C 0.32121 0.2523 0.54401 0.0
C213 C 0.27421 0.23427 0.52825 0.0
C214 C 0.35112 0.30798 0.55674 0.0
C215 C 0.33154 0.34354 0.5665 0.0
C216 C 0.38839 0.36152 0.56871 0.0
C217 C 0.36462 0.39746 0.55629 0.0
C218 C 0.41862 0.41289 0.55055 0.0
C219 C 0.49737 0.39268 0.55751 0.0
H220 H 0.48659 0.31534 0.59026 0.0
C221 C 0.52066 0.35794 0.5732 0.0
C222 C 0.46661 0.34254 0.579 0.0
H223 H 0.58089 0.34217 0.57971 0.0
H224 H 0.11619 0.30828 0.5019 0.0
H225 H 0.19865 0.33989 0.5284 0.0
H226 H 0.37895 0.23626 0.55488 0.0
H227 H 0.29707 0.20472 0.5272 0.0
H228 H 0.41123 0.29098 0.55474 0.0
H229 H 0.27161 0.36086 0.56825 0.0
H230 H 0.30464 0.41276 0.54852 0.0
H231 H 0.3989 0.43972 0.53832 0.0
C232 C 0.98274 0.86379 0.55295 0.0
C233 C 0.96187 0.89942 0.53993 0.0
C234 C 0.9267 0.84944 0.55811 0.0
C235 C 0.84839 0.87062 0.55051 0.0
C236 C 0.82763 0.90696 0.53976 0.0
C237 C 0.88368 0.92127 0.53459 0.0
C238 C 0.78839 0.85441 0.5474 0.0
C239 C 0.79775 0.82207 0.56205 0.0
C240 C 0.74981 0.80089 0.54801 0.0
C241 C 0.78413 0.76272 0.54713 0.0
C242 C 0.74596 0.74167 0.52851 0.0
C243 C 0.67232 0.75839 0.51061 0.0
H244 H 0.64453 0.84685 0.53374 0.0
C245 C 0.63571 0.79645 0.51375 0.0
C246 C 0.67398 0.81755 0.53241 0.0
H247 H 0.57864 0.81006 0.50059 0.0
H248 H 1.04261 0.84648 0.55763 0.0
H249 H 0.94583 0.82111 0.56568 0.0
H250 H 0.76791 0.9238 0.53343 0.0
H251 H 0.86571 0.94874 0.52414 0.0
H252 H 0.73805 0.8681 0.52868 0.0
H253 H 0.84781 0.80833 0.58088 0.0
H254 H 0.8421 0.74917 0.55931 0.0
H255 H 0.77476 0.71228 0.52751 0.0
C256 C 0.51082 1.0425 0.11778 0.0
C257 C 0.51954 1.01895 0.0856 0.0
C258 C 0.5544 1.03037 0.15194 0.0
C259 C 0.60793 0.99441 0.15466 0.0
C260 C 0.61452 0.97046 0.12301 0.0
C261 C 0.57101 0.98261 0.0888 0.0
C262 C 0.66325 0.9828 0.1886 0.0
C263 C 0.69849 1.00534 0.20233 0.0
C264 C 0.74845 1.01317 0.1763 0.0
C265 C 0.80756 0.98454 0.15933 0.0
C266 C 0.84184 0.99107 0.1281 0.0
C267 C 0.8168 1.02619 0.11315 0.0
H268 H 0.68249 0.07128 0.17586 0.0
C269 C 0.76156 1.05521 0.13178 0.0
C270 C 0.72819 1.04881 0.16337 0.0
H271 H 0.74204 0.0826 0.12095 0.0
H272 H 0.47024 0.07038 0.1166 0.0
H273 H 0.54745 1.0494 0.17595 0.0
H274 H 0.65572 0.94269 0.12419 0.0
H275 H 0.57926 0.96379 0.06454 0.0
H276 H 0.69955 0.95404 0.18782 0.0
H277 H 0.66266 1.02933 0.21785 0.0
H278 H 0.82411 0.95684 0.16885 0.0
H279 H 0.88437 0.96827 0.11417 0.0
C280 C 0.36615 0.0871 0.44391 0.0
C281 C 0.34874 1.05657 0.45292 0.0
C282 C 0.44326 0.08537 0.44421 0.0
C283 C 0.50635 1.05296 0.45365 0.0
C284 C 0.48833 1.02272 0.46277 0.0
C285 C 0.41181 1.0244 0.46233 0.0
C286 C 0.59114 1.04882 0.45515 0.0
C287 C 0.61996 0.07358 0.44372 0.0
C288 C 0.70487 0.06917 0.44471 0.0
C289 C 0.72422 0.09624 0.42814 0.0
C290 C 0.80089 0.09434 0.42829 0.0
C291 C 0.86261 0.06526 0.44521 0.0
H292 H 0.75618 1.01828 0.47516 0.0
C293 C 0.84385 1.03799 0.46193 0.0
C294 C 0.7667 1.03984 0.46168 0.0
H295 H 0.88893 1.01509 0.47543 0.0
H296 H 0.32 0.11252 0.43655 0.0
H297 H 0.45273 0.10967 0.43727 0.0
H298 H 0.53414 0.99723 0.47032 0.0
H299 H 0.40226 1.00015 0.46952 0.0
H300 H 0.63207 1.02315 0.46586 0.0
H301 H 0.57916 0.09887 0.43211 0.0
H302 H 0.67938 0.11935 0.41481 0.0
H303 H 0.81161 0.11605 0.41512 0.0
C304 C 0.96511 0.57568 0.12354 0.0
C305 C 0.98067 0.54593 0.09751 0.0
C306 C 1.00265 0.57145 0.1599 0.0
C307 C 1.05683 0.53739 0.17104 0.0
C308 C 1.07008 0.50729 0.14571 0.0
C309 C 1.0325 0.51152 0.10925 0.0
C310 C 0.10618 0.53405 0.20703 0.0
C311 C 0.13966 0.55865 0.21423 0.0
C312 C 0.18983 0.56158 0.18511 0.0
C313 C 0.25059 0.5305 0.17321 0.0
C314 C 0.2869 0.53118 0.1403 0.0
C315 C 0.26255 0.56285 0.11854 0.0
H316 H 0.12212 0.61823 0.17342 0.0
C317 C 0.20479 0.59454 0.13167 0.0
C318 C 0.1692 0.594 0.16492 0.0
H319 H 0.18568 0.6194 0.11562 0.0
H320 H 0.92392 0.60233 0.11579 0.0
H321 H 0.9908 0.59507 0.17896 0.0
H322 H 0.11199 0.4808 0.15348 0.0
H323 H 1.04571 0.48808 0.08988 0.0
H324 H 0.14226 0.50612 0.21389 0.0
H325 H 1.1024 0.58488 0.22537 0.0
H326 H 0.26731 0.50518 0.18829 0.0
H327 H 0.33117 0.50635 0.13075 0.0
C328 C 0.31413 0.57742 0.43919 0.0
C329 C 0.38134 0.55033 0.45526 0.0
C330 C 0.24031 0.57564 0.44113 0.0
C331 C 0.23049 0.54657 0.45924 0.0
C332 C 0.29795 0.51955 0.47509 0.0
C333 C 0.37138 0.52139 0.47327 0.0
C334 C 0.15295 0.54242 0.46202 0.0
C335 C 1.0816 0.5675 0.45197 0.0
C336 C 1.00406 0.56341 0.455 0.0
C337 C 0.93549 0.59358 0.44678 0.0
C338 C 0.86211 0.59158 0.44836 0.0
C339 C 0.85338 0.55917 0.45814 0.0
H340 H 1.04531 0.50666 0.47135 0.0
C341 C 0.92179 0.52888 0.46648 0.0
C342 C 0.99547 0.53089 0.46498 0.0
H343 H 0.9186 0.50326 0.47407 0.0
H344 H 0.31841 0.60025 0.42504 0.0
H345 H 0.19139 0.59708 0.42809 0.0
H346 H 0.29403 0.4966 0.48923 0.0
H347 H 0.42066 0.49988 0.48613 0.0
H348 H 0.15578 0.51706 0.47379 0.0
H349 H 1.07867 0.59327 0.4412 0.0
H350 H 0.93848 0.61918 0.43892 0.0
H351 H 0.81196 0.61564 0.44166 0.0
C352 C 0.18099 1.02755 0.31385 0.0
C353 C 0.11994 1.0472 0.3365 0.0
C354 C 0.17407 1.03148 0.27412 0.0
C355 C 0.10543 1.05509 0.25569 0.0
C356 C 1.04488 0.07527 0.27855 0.0
C357 C 1.05188 0.0713 0.31841 0.0
C358 C 1.09626 0.06036 0.21319 0.0
C359 C 0.1392 1.03559 0.18794 0.0
C360 C 0.13642 1.0403 0.14559 0.0
C361 C 0.19709 1.016 0.12536 0.0
C362 C 0.19966 1.01909 0.08606 0.0
C363 C 0.14123 1.04646 0.06545 0.0
H364 H 1.02791 0.08628 0.13891 0.0
C365 C 1.07909 0.07037 0.08517 0.0
C366 C 1.07668 0.06742 0.12486 0.0
H367 H 1.03281 0.09158 0.07001 0.0
H368 H 0.23459 1.00908 0.32686 0.0
H369 H 0.22349 1.01638 0.25825 0.0
H370 H 0.99163 0.09403 0.26549 0.0
H371 H 1.00384 0.08703 0.33504 0.0
H372 H 1.05268 0.08548 0.20277 0.0
H373 H 0.18103 1.01018 0.1988 0.0
H374 H 0.24378 0.99466 0.14015 0.0
H375 H 0.24819 1.00006 0.07184 0.0
C376 C 0.13099 1.05351 0.81631 0.0
C377 C 1.06541 0.07497 0.8353 0.0
C378 C 0.13118 1.05414 0.77615 0.0
C379 C 1.06556 0.0763 0.75423 0.0
C380 C 1.00096 0.09794 0.77365 0.0
C381 C 1.00093 0.09741 0.81338 0.0
C382 C 1.05919 0.07769 0.71137 0.0
C383 C 0.11754 0.06401 0.68789 0.0
C384 C 0.10706 0.068 0.64513 0.0
C385 C 0.16442 1.04517 0.62187 0.0
C386 C 0.15701 1.04869 0.5819 0.0
C387 C 1.09203 0.07528 0.56419 0.0
H388 H 0.99786 0.11407 0.64333 0.0
C389 C 1.03495 0.09814 0.58733 0.0
C390 C 1.04247 0.09483 0.62709 0.0
H391 H 0.98441 0.11916 0.57473 0.0
H392 H 0.18161 1.03587 0.83238 0.0
H393 H 0.18211 1.03676 0.76257 0.0
H394 H 0.94953 0.11541 0.75795 0.0
H395 H 0.94949 0.11446 0.82691 0.0
H396 H 1.00166 0.09129 0.69868 0.0
H397 H 0.17511 1.04931 0.7 0.0
H398 H 0.21523 1.02446 0.63465 0.0
H399 H 0.20213 1.03068 0.5649 0.0
C400 C 0.57399 0.55558 0.32217 0.0
C401 C 0.64285 0.53734 0.34389 0.0
C402 C 0.57313 0.55749 0.28204 0.0
C403 C 0.64146 0.54136 0.26286 0.0
C404 C 0.70989 0.52371 0.28502 0.0
C405 C 0.71059 0.52162 0.32468 0.0
C406 C 0.64633 0.54199 0.22032 0.0
C407 C 0.58658 0.55323 0.19367 0.0
C408 C 0.59626 0.5519 0.15133 0.0
C409 C 0.53626 0.57446 0.12679 0.0
C410 C 0.54386 0.5742 0.08721 0.0
C411 C 0.61144 0.551 0.07101 0.0
H412 H 0.70984 0.50909 0.15186 0.0
C413 C 0.67058 0.52777 0.09528 0.0
C414 C 0.66313 0.52806 0.13473 0.0
H415 H 0.72313 0.50925 0.08375 0.0
H416 H 0.52077 0.56807 0.3361 0.0
H417 H 0.51908 0.57175 0.26646 0.0
H418 H 0.76365 0.51109 0.27153 0.0
H419 H 0.76481 0.50751 0.34035 0.0
H420 H 0.70395 0.53223 0.21059 0.0
H421 H 0.52847 0.56435 0.20277 0.0
H422 H 0.48353 0.59275 0.13834 0.0
H423 H 0.497 0.59234 0.06934 0.0
C424 C 0.53346 0.5814 0.59162 0.0
C425 C 0.59898 0.56966 0.57036 0.0
C426 C 0.53993 0.57806 0.63147 0.0
C427 C 0.61237 0.56309 0.65135 0.0
C428 C 0.67794 0.5515 0.63006 0.0
C429 C 0.67136 0.55432 0.59003 0.0
C430 C 0.62106 0.56059 0.69417 0.0
C431 C 0.56849 0.55544 0.71496 0.0
C432 C 0.57508 0.55217 0.75759 0.0
C433 C 0.53907 0.53132 0.77357 0.0
C434 C 0.53876 0.52916 0.81321 0.0
C435 C 0.57284 0.54856 0.83837 0.0
H436 H 0.63835 0.58785 0.77141 0.0
C437 C 0.6095 0.56939 0.82261 0.0
C438 C 0.61112 0.57099 0.78262 0.0
H439 H 0.63626 0.58468 0.84115 0.0
H440 H 0.47681 0.59343 0.57742 0.0
H441 H 0.48803 0.58812 0.6467 0.0
H442 H 0.73456 0.54005 0.64443 0.0
H443 H 0.723 0.54512 0.57456 0.0
H444 H 0.67384 0.56123 0.70864 0.0
H445 H 0.51943 0.55136 0.69986 0.0
H446 H 0.51052 0.51665 0.75522 0.0
H447 H 0.50999 0.51281 0.82413 0.0
loop_
_geom_bond_atom_site_label_1
_geom_bond_atom_site_label_2
_geom_bond_distance
_geom_bond_site_symmetry_2
_ccdc_geom_bond_type
Sm0 C2 2.848 . S
Sm0 O20 2.543 1_566 S
Sm0 O21 2.450 . S
Sm0 O22 2.681 1_655 S
Sm0 O23 2.464 . S
Sm0 O24 2.396 1_565 S
Sm0 O28 2.386 1_566 S
Sm0 O31 2.408 1_655 S
Sm1 C11 2.846 . S
Sm1 O22 2.386 1_544 S
Sm1 O25 2.408 1_455 S
Sm1 O26 2.543 1_544 S
Sm1 O27 2.450 . S
Sm1 O28 2.681 1_455 S
Sm1 O29 2.464 . S
Sm1 O30 2.396 1_545 S
C2 Sm0 2.848 . S
C2 C3 1.504 1_565 S
C2 O20 1.255 1_566 S
C2 O21 1.252 . S
C3 C2 1.504 1_545 S
C3 C4 1.358 1_556 S
C3 C8 1.382 . S
C4 C3 1.358 1_554 S
C4 C5 1.385 . S
C4 H32 0.930 . S
C5 C4 1.385 . S
C5 C6 1.395 1_554 S
C5 H33 0.929 . S
C6 C5 1.395 1_556 S
C6 C7 1.335 . S
C7 C6 1.335 . S
C7 C8 1.398 . S
C7 H34 0.930 . S
C8 C3 1.382 . S
C8 C7 1.398 . S
C8 H35 0.929 1_545 S
C9 O22 1.271 1_655 S
C9 O23 1.251 . S
C10 O24 1.252 . S
C10 O25 1.272 1_556 S
C11 Sm1 2.846 . S
C11 C12 1.506 1_545 S
C11 O26 1.261 1_544 S
C11 O27 1.242 . S
C12 C11 1.506 1_565 S
C12 C13 1.358 1_554 S
C12 C17 1.382 . S
C13 C12 1.358 1_556 S
C13 C14 1.385 . S
C13 H36 0.930 . S
C14 C13 1.385 . S
C14 C15 1.395 1_556 S
C14 H37 0.929 . S
C15 C14 1.395 1_554 S
C15 C16 1.335 . S
C16 C15 1.335 . S
C16 C17 1.398 . S
C16 H38 0.930 . S
C17 C12 1.382 . S
C17 C16 1.398 . S
C17 H39 0.929 1_565 S
C18 O28 1.271 1_455 S
C18 O29 1.251 . S
C19 O30 1.252 . S
C19 O31 1.272 1_554 S
O20 Sm0 2.543 1_544 S
O20 C2 1.255 1_544 S
O21 Sm0 2.450 . S
O21 C2 1.252 . S
O22 Sm0 2.681 1_455 S
O22 Sm1 2.386 1_566 S
O22 C9 1.271 1_455 S
O23 Sm0 2.464 . S
O23 C9 1.251 . S
O24 Sm0 2.396 1_545 S
O24 C10 1.252 . S
O25 Sm1 2.408 1_655 S
O25 C10 1.272 1_554 S
O26 Sm1 2.543 1_566 S
O26 C11 1.261 1_566 S
O27 Sm1 2.450 . S
O27 C11 1.242 . S
O28 Sm0 2.386 1_544 S
O28 Sm1 2.681 1_655 S
O28 C18 1.271 1_655 S
O29 Sm1 2.464 . S
O29 C18 1.251 . S
O30 Sm1 2.396 1_565 S
O30 C19 1.252 . S
O31 Sm0 2.408 1_455 S
O31 C19 1.272 1_556 S
H32 C4 0.930 . S
H33 C5 0.929 . S
H34 C7 0.930 . S
H35 C8 0.929 1_565 S
H36 C13 0.930 . S
H37 C14 0.929 . S
H38 C16 0.930 . S
H39 C17 0.929 1_545 S
Sm40 C42 2.846 1_455 S
Sm40 O60 2.543 1_455 S
Sm40 O61 2.450 1_455 S
Sm40 O62 2.681 1_565 S
Sm40 O63 2.464 . S
Sm40 O64 2.396 1_455 S
Sm40 O68 2.386 1_455 S
Sm40 O71 2.408 . S
Sm41 C51 2.846 1_655 S
Sm41 O62 2.386 1_655 S
Sm41 O65 2.408 . S
Sm41 O66 2.543 1_655 S
Sm41 O67 2.450 1_655 S
Sm41 O68 2.681 1_545 S
Sm41 O69 2.464 . S
Sm41 O70 2.396 1_655 S
C42 Sm40 2.846 1_655 S
C42 C43 1.506 . S
C42 O60 1.261 . S
C42 O61 1.242 . S
C43 C42 1.506 . S
C43 C44 1.358 . S
C43 C48 1.382 . S
C44 C43 1.358 . S
C44 C45 1.385 . S
C44 H72 0.930 . S
C45 C44 1.385 . S
C45 C46 1.395 . S
C45 H73 0.929 . S
C46 C45 1.395 . S
C46 C47 1.335 . S
C47 C46 1.335 . S
C47 C48 1.398 . S
C47 H74 0.930 . S
C48 C43 1.382 . S
C48 C47 1.398 . S
C48 H75 0.929 . S
C49 O62 1.271 1_565 S
C49 O63 1.251 . S
C50 O64 1.252 1_545 S
C50 O65 1.272 . S
C51 Sm41 2.846 1_455 S
C51 C52 1.506 . S
C51 O66 1.261 . S
C51 O67 1.242 . S
C52 C51 1.506 . S
C52 C53 1.358 . S
C52 C57 1.382 . S
C53 C52 1.358 . S
C53 C54 1.385 . S
C53 H76 0.930 . S
C54 C53 1.385 . S
C54 C55 1.395 . S
C54 H77 0.929 . S
C55 C54 1.395 . S
C55 C56 1.335 . S
C56 C55 1.335 . S
C56 C57 1.398 . S
C56 H78 0.930 . S
C57 C52 1.382 . S
C57 C56 1.398 . S
C57 H79 0.929 . S
C58 O68 1.271 1_545 S
C58 O69 1.251 . S
C59 O70 1.252 1_565 S
C59 O71 1.272 . S
O60 Sm40 2.543 1_655 S
O60 C42 1.261 . S
O61 Sm40 2.450 1_655 S
O61 C42 1.242 . S
O62 Sm40 2.681 1_545 S
O62 Sm41 2.386 1_455 S
O62 C49 1.271 1_545 S
O63 Sm40 2.464 . S
O63 C49 1.251 . S
O64 Sm40 2.396 1_655 S
O64 C50 1.252 1_565 S
O65 Sm41 2.408 . S
O65 C50 1.272 . S
O66 Sm41 2.543 1_455 S
O66 C51 1.261 . S
O67 Sm41 2.450 1_455 S
O67 C51 1.242 . S
O68 Sm40 2.386 1_655 S
O68 Sm41 2.681 1_565 S
O68 C58 1.271 1_565 S
O69 Sm41 2.464 . S
O69 C58 1.251 . S
O70 Sm41 2.396 1_455 S
O70 C59 1.252 1_545 S
O71 Sm40 2.408 . S
O71 C59 1.272 . S
H72 C44 0.930 . S
H73 C45 0.929 . S
H74 C47 0.930 . S
H75 C48 0.929 . S
H76 C53 0.930 . S
H77 C54 0.929 . S
H78 C56 0.930 . S
H79 C57 0.929 . S
Sm80 C82 2.846 . S
Sm80 O100 2.543 1_556 S
Sm80 O101 2.450 . S
Sm80 O102 2.681 . S
Sm80 O103 2.464 . S
Sm80 O104 2.396 . S
Sm80 O108 2.386 1_556 S
Sm80 O111 2.408 . S
Sm81 C91 2.846 . S
Sm81 O102 2.386 1_554 S
Sm81 O105 2.408 . S
Sm81 O106 2.543 1_554 S
Sm81 O107 2.450 . S
Sm81 O108 2.681 . S
Sm81 O109 2.464 . S
Sm81 O110 2.396 . S
C82 Sm80 2.846 . S
C82 C83 1.506 . S
C82 O100 1.261 1_556 S
C82 O101 1.242 . S
C83 C82 1.506 . S
C83 C84 1.358 1_556 S
C83 C88 1.382 . S
C84 C83 1.358 1_554 S
C84 C85 1.385 . S
C84 H112 0.930 . S
C85 C84 1.385 . S
C85 C86 1.395 1_554 S
C85 H113 0.929 . S
C86 C85 1.395 1_556 S
C86 C87 1.335 . S
C87 C86 1.335 . S
C87 C88 1.398 . S
C87 H114 0.930 . S
C88 C83 1.382 . S
C88 C87 1.398 . S
C88 H115 0.929 . S
C89 O102 1.271 . S
C89 O103 1.251 . S
C90 O104 1.252 . S
C90 O105 1.272 1_556 S
C91 Sm81 2.846 . S
C91 C92 1.506 . S
C91 O106 1.261 1_554 S
C91 O107 1.242 . S
C92 C91 1.506 . S
C92 C93 1.358 1_554 S
C92 C97 1.382 . S
C93 C92 1.358 1_556 S
C93 C94 1.385 . S
C93 H116 0.930 . S
C94 C93 1.385 . S
C94 C95 1.395 1_556 S
C94 H117 0.929 . S
C95 C94 1.395 1_554 S
C95 C96 1.335 . S
C96 C95 1.335 . S
C96 C97 1.398 . S
C96 H118 0.930 . S
C97 C92 1.382 . S
C97 C96 1.398 . S
C97 H119 0.929 . S
C98 O108 1.271 . S
C98 O109 1.251 . S
C99 O110 1.252 . S
C99 O111 1.272 1_554 S
O100 Sm80 2.543 1_554 S
O100 C82 1.261 1_554 S
O101 Sm80 2.450 . S
O101 C82 1.242 . S
O102 Sm80 2.681 . S
O102 Sm81 2.386 1_556 S
O102 C89 1.271 . S
O103 Sm80 2.464 . S
O103 C89 1.251 . S
O104 Sm80 2.396 . S
O104 C90 1.252 . S
O105 Sm81 2.408 . S
O105 C90 1.272 1_554 S
O106 Sm81 2.543 1_556 S
O106 C91 1.261 1_556 S
O107 Sm81 2.450 . S
O107 C91 1.242 . S
O108 Sm80 2.386 1_554 S
O108 Sm81 2.681 . S
O108 C98 1.271 . S
O109 Sm81 2.464 . S
O109 C98 1.251 . S
O110 Sm81 2.396 . S
O110 C99 1.252 . S
O111 Sm80 2.408 . S
O111 C99 1.272 1_556 S
H112 C84 0.930 . S
H113 C85 0.929 . S
H114 C87 0.930 . S
H115 C88 0.929 . S
H116 C93 0.930 . S
H117 C94 0.929 . S
H118 C96 0.930 . S
H119 C97 0.929 . S
Sm120 C122 2.846 . S
Sm120 O140 2.543 . S
Sm120 O141 2.450 . S
Sm120 O142 2.681 . S
Sm120 O143 2.464 . S
Sm120 O144 2.396 . S
Sm120 O148 2.386 . S
Sm120 O151 2.408 . S
Sm121 C131 2.846 . S
Sm121 O142 2.386 . S
Sm121 O145 2.408 . S
Sm121 O146 2.543 . S
Sm121 O147 2.450 . S
Sm121 O148 2.681 . S
Sm121 O149 2.464 . S
Sm121 O150 2.396 . S
C122 Sm120 2.846 . S
C122 C123 1.506 . S
C122 O140 1.261 . S
C122 O141 1.242 . S
C123 C122 1.506 . S
C123 C124 1.358 . S
C123 C128 1.382 . S
C124 C123 1.358 . S
C124 C125 1.385 . S
C124 H152 0.930 . S
C125 C124 1.385 . S
C125 C126 1.395 . S
C125 H153 0.929 . S
C126 C125 1.395 . S
C126 C127 1.335 . S
C127 C126 1.335 . S
C127 C128 1.398 . S
C127 H154 0.930 . S
C128 C123 1.382 . S
C128 C127 1.398 . S
C128 H155 0.929 . S
C129 O142 1.271 . S
C129 O143 1.251 . S
C130 O144 1.252 . S
C130 O145 1.272 . S
C131 Sm121 2.846 . S
C131 C132 1.506 . S
C131 O146 1.261 . S
C131 O147 1.242 . S
C132 C131 1.506 . S
C132 C133 1.358 . S
C132 C137 1.382 . S
C133 C132 1.358 . S
C133 C134 1.385 . S
C133 H156 0.930 . S
C134 C133 1.385 . S
C134 C135 1.395 . S
C134 H157 0.929 . S
C135 C134 1.395 . S
C135 C136 1.335 . S
C136 C135 1.335 . S
C136 C137 1.398 . S
C136 H158 0.930 . S
C137 C132 1.382 . S
C137 C136 1.398 . S
C137 H159 0.929 . S
C138 O148 1.271 . S
C138 O149 1.251 . S
C139 O150 1.252 . S
C139 O151 1.272 . S
O140 Sm120 2.543 . S
O140 C122 1.261 . S
O141 Sm120 2.450 . S
O141 C122 1.242 . S
O142 Sm120 2.681 . S
O142 Sm121 2.386 . S
O142 C129 1.271 . S
O143 Sm120 2.464 . S
O143 C129 1.251 . S
O144 Sm120 2.396 . S
O144 C130 1.252 . S
O145 Sm121 2.408 . S
O145 C130 1.272 . S
O146 Sm121 2.543 . S
O146 C131 1.261 . S
O147 Sm121 2.450 . S
O147 C131 1.242 . S
O148 Sm120 2.386 . S
O148 Sm121 2.681 . S
O148 C138 1.271 . S
O149 Sm121 2.464 . S
O149 C138 1.251 . S
O150 Sm121 2.396 . S
O150 C139 1.252 . S
O151 Sm120 2.408 . S
O151 C139 1.272 . S
H152 C124 0.930 . S
H153 C125 0.929 . S
H154 C127 0.930 . S
H155 C128 0.929 . S
H156 C133 0.930 . S
H157 C134 0.929 . S
H158 C136 0.930 . S
H159 C137 0.929 . S
C160 C161 1.386 . S
C160 C162 1.383 . S
C160 H176 0.951 1_556 S
C161 C160 1.386 . S
C161 C165 1.383 . S
C162 C160 1.383 . S
C162 C163 1.402 . S
C162 H177 0.951 . S
C163 C162 1.402 . S
C163 C164 1.375 . S
C163 C166 1.481 . S
C164 C163 1.375 . S
C164 C165 1.367 . S
C164 H178 0.951 . S
C165 C161 1.383 . S
C165 C164 1.367 . S
C165 H179 0.950 . S
C166 C163 1.481 . S
C166 C167 1.297 . S
C166 H180 0.950 . S
C167 C166 1.297 . S
C167 C168 1.479 . S
C167 H181 0.950 . S
C168 C167 1.479 . S
C168 C169 1.375 . S
C168 C174 1.404 . S
C169 C168 1.375 . S
C169 C170 1.369 . S
C169 H182 0.950 . S
C170 C169 1.369 . S
C170 C171 1.392 . S
C170 H183 0.951 1_556 S
C171 C170 1.392 . S
C171 C173 1.384 . S
H172 C174 0.949 . S
C173 C171 1.384 . S
C173 C174 1.385 . S
C173 H175 0.950 . S
C174 C168 1.404 . S
C174 H172 0.949 . S
C174 C173 1.385 . S
H175 C173 0.950 . S
H176 C160 0.951 1_554 S
H177 C162 0.951 . S
H178 C164 0.951 . S
H179 C165 0.950 . S
H180 C166 0.950 . S
H181 C167 0.950 . S
H182 C169 0.950 . S
H183 C170 0.951 1_554 S
C184 C185 1.386 1_556 S
C184 C186 1.383 . S
C184 H200 0.951 . S
C185 C184 1.386 1_554 S
C185 C189 1.383 . S
C186 C184 1.383 . S
C186 C187 1.402 1_556 S
C186 H201 0.951 . S
C187 C186 1.402 1_554 S
C187 C188 1.375 . S
C187 C190 1.481 . S
C188 C187 1.375 . S
C188 C189 1.367 . S
C188 H202 0.951 . S
C189 C185 1.383 . S
C189 C188 1.367 . S
C189 H203 0.950 . S
C190 C187 1.481 . S
C190 C191 1.297 . S
C190 H204 0.950 . S
C191 C190 1.297 . S
C191 C192 1.479 . S
C191 H205 0.963 . S
C192 C191 1.479 . S
C192 C193 1.375 1_554 S
C192 C198 1.404 . S
C193 C192 1.375 1_556 S
C193 C194 1.369 . S
C193 H206 0.950 . S
C194 C193 1.369 . S
C194 C195 1.392 1_556 S
C194 H207 0.951 . S
C195 C194 1.392 1_554 S
C195 C197 1.384 . S
H196 C198 0.949 . S
C197 C195 1.384 . S
C197 C198 1.385 . S
C197 H199 0.950 . S
C198 C192 1.404 . S
C198 H196 0.949 . S
C198 C197 1.385 . S
H199 C197 0.950 . S
H200 C184 0.951 . S
H201 C186 0.951 . S
H202 C188 0.951 . S
H203 C189 0.950 . S
H204 C190 0.950 . S
H205 C191 0.963 . S
H206 C193 0.950 . S
H207 C194 0.951 . S
C208 C209 1.386 . S
C208 C210 1.383 . S
C208 H224 0.951 . S
C209 C208 1.386 . S
C209 C213 1.383 . S
C210 C208 1.383 . S
C210 C211 1.402 . S
C210 H225 0.951 . S
C211 C210 1.402 . S
C211 C212 1.375 . S
C211 C214 1.481 . S
C212 C211 1.375 . S
C212 C213 1.367 . S
C212 H226 0.951 . S
C213 C209 1.383 . S
C213 C212 1.367 . S
C213 H227 0.950 . S
C214 C211 1.481 . S
C214 C215 1.297 . S
C214 H228 0.950 . S
C215 C214 1.297 . S
C215 C216 1.479 . S
C215 H229 0.950 . S
C216 C215 1.479 . S
C216 C217 1.375 . S
C216 C222 1.404 . S
C217 C216 1.375 . S
C217 C218 1.369 . S
C217 H230 0.950 . S
C218 C217 1.369 . S
C218 C219 1.392 . S
C218 H231 0.951 . S
C219 C218 1.392 . S
C219 C221 1.384 . S
H220 C222 0.949 . S
C221 C219 1.384 . S
C221 C222 1.385 . S
C221 H223 0.950 . S
C222 C216 1.404 . S
C222 H220 0.949 . S
C222 C221 1.385 . S
H223 C221 0.950 . S
H224 C208 0.951 . S
H225 C210 0.951 . S
H226 C212 0.951 . S
H227 C213 0.950 . S
H228 C214 0.950 . S
H229 C215 0.950 . S
H230 C217 0.950 . S
H231 C218 0.951 . S
C232 C233 1.386 . S
C232 C234 1.383 . S
C232 H248 0.951 . S
C233 C232 1.386 . S
C233 C237 1.383 . S
C234 C232 1.383 . S
C234 C235 1.402 . S
C234 H249 0.951 . S
C235 C234 1.402 . S
C235 C236 1.375 . S
C235 C238 1.481 . S
C236 C235 1.375 . S
C236 C237 1.367 . S
C236 H250 0.951 . S
C237 C233 1.383 . S
C237 C236 1.367 . S
C237 H251 0.950 . S
C238 C235 1.481 . S
C238 C239 1.297 . S
C238 H252 0.950 . S
C239 C238 1.297 . S
C239 C240 1.479 . S
C239 H253 0.950 . S
C240 C239 1.479 . S
C240 C241 1.375 . S
C240 C246 1.404 . S
C241 C240 1.375 . S
C241 C242 1.369 . S
C241 H254 0.950 . S
C242 C241 1.369 . S
C242 C243 1.392 . S
C242 H255 0.951 . S
C243 C242 1.392 . S
C243 C245 1.384 . S
H244 C246 0.949 . S
C245 C243 1.384 . S
C245 C246 1.385 . S
C245 H247 0.950 . S
C246 C240 1.404 . S
C246 H244 0.949 . S
C246 C245 1.385 . S
H247 C245 0.950 . S
H248 C232 0.951 . S
H249 C234 0.951 . S
H250 C236 0.951 . S
H251 C237 0.950 . S
H252 C238 0.950 . S
H253 C239 0.950 . S
H254 C241 0.950 . S
H255 C242 0.951 . S
C256 C257 1.364 1_554 S
C256 C258 1.383 . S
C256 H272 0.951 . S
C257 C256 1.364 1_556 S
C257 C261 1.411 . S
C258 C256 1.383 . S
C258 C259 1.402 1_554 S
C258 H273 0.951 . S
C259 C258 1.402 1_556 S
C259 C260 1.375 . S
C259 C262 1.481 . S
C260 C259 1.375 . S
C260 C261 1.367 . S
C260 H274 0.951 . S
C261 C257 1.411 . S
C261 C260 1.367 . S
C261 H275 0.950 . S
C262 C259 1.481 . S
C262 C263 1.297 1_556 S
C262 H276 0.950 . S
C263 C262 1.297 1_554 S
C263 C264 1.479 1_565 S
C263 H277 0.950 . S
C264 C263 1.479 1_545 S
C264 C265 1.375 . S
C264 C270 1.404 1_554 S
C265 C264 1.375 . S
C265 C266 1.369 . S
C265 H278 0.950 . S
C266 C265 1.369 . S
C266 C267 1.387 1_554 S
C266 H279 0.951 . S
C267 C266 1.387 1_556 S
C267 C269 1.389 . S
H268 C270 0.962 . S
C269 C267 1.389 . S
C269 C270 1.385 . S
C269 H271 0.950 . S
C270 C264 1.404 1_556 S
C270 H268 0.962 . S
C270 C269 1.385 . S
H271 C269 0.950 . S
H272 C256 0.951 . S
H273 C258 0.951 . S
H274 C260 0.951 . S
H275 C261 0.950 . S
H276 C262 0.950 . S
H277 C263 0.950 . S
H278 C265 0.950 . S
H279 C266 0.951 . S
C280 C281 1.386 1_545 S
C280 C282 1.383 . S
C280 H296 0.951 . S
C281 C280 1.386 1_565 S
C281 C285 1.383 . S
C282 C280 1.383 . S
C282 C283 1.402 1_545 S
C282 H297 0.951 . S
C283 C282 1.402 1_565 S
C283 C284 1.375 . S
C283 C286 1.481 . S
C284 C283 1.375 . S
C284 C285 1.367 . S
C284 H298 0.951 . S
C285 C281 1.383 . S
C285 C284 1.367 . S
C285 H299 0.950 . S
C286 C283 1.481 . S
C286 C287 1.297 1_565 S
C286 H300 0.950 . S
C287 C286 1.297 1_545 S
C287 C288 1.479 1_545 S
C287 H301 0.950 . S
C288 C287 1.479 1_565 S
C288 C289 1.375 1_565 S
C288 C294 1.404 . S
C289 C288 1.375 1_545 S
C289 C290 1.369 . S
C289 H302 0.950 . S
C290 C289 1.369 . S
C290 C291 1.398 . S
C290 H303 0.951 . S
C291 C290 1.398 . S
C291 C293 1.377 1_545 S
H292 C294 0.949 . S
C293 C291 1.377 1_565 S
C293 C294 1.385 . S
C293 H295 0.950 . S
C294 C288 1.404 . S
C294 H292 0.949 . S
C294 C293 1.385 . S
H295 C293 0.950 . S
H296 C280 0.951 . S
H297 C282 0.951 . S
H298 C284 0.951 . S
H299 C285 0.950 . S
H300 C286 0.950 . S
H301 C287 0.950 . S
H302 C289 0.950 . S
H303 C290 0.951 . S
C304 C305 1.386 1_554 S
C304 C306 1.383 . S
C304 H320 0.951 . S
C305 C304 1.386 1_556 S
C305 C309 1.383 . S
C306 C304 1.383 . S
C306 C307 1.402 1_554 S
C306 H321 0.951 . S
C307 C306 1.402 1_556 S
C307 C308 1.375 . S
C307 C310 1.481 . S
C308 C307 1.375 . S
C308 C309 1.367 . S
C308 H322 0.951 . S
C309 C305 1.383 . S
C309 C308 1.367 . S
C309 H323 0.950 . S
C310 C307 1.481 . S
C310 C311 1.297 1_656 S
C310 H324 0.950 . S
C311 C310 1.297 1_454 S
C311 C312 1.479 . S
C311 H325 0.950 . S
C312 C311 1.479 . S
C312 C313 1.375 . S
C312 C318 1.404 1_554 S
C313 C312 1.375 . S
C313 C314 1.369 . S
C313 H326 0.950 . S
C314 C313 1.369 . S
C314 C315 1.392 1_554 S
C314 H327 0.951 . S
C315 C314 1.392 1_556 S
C315 C317 1.384 . S
H316 C318 0.949 . S
C317 C315 1.384 . S
C317 C318 1.385 . S
C317 H319 0.950 . S
C318 C312 1.404 1_556 S
C318 H316 0.949 . S
C318 C317 1.385 . S
H319 C317 0.950 . S
H320 C304 0.951 . S
H321 C306 0.951 . S
H322 C308 0.951 . S
H323 C309 0.950 . S
H324 C310 0.950 . S
H325 C311 0.950 . S
H326 C313 0.950 . S
H327 C314 0.951 . S
C328 C329 1.386 . S
C328 C330 1.383 . S
C328 H344 0.951 . S
C329 C328 1.386 . S
C329 C333 1.383 . S
C330 C328 1.383 . S
C330 C331 1.402 . S
C330 H345 0.951 . S
C331 C330 1.402 . S
C331 C332 1.375 . S
C331 C334 1.481 . S
C332 C331 1.375 . S
C332 C333 1.367 . S
C332 H346 0.951 . S
C333 C329 1.383 . S
C333 C332 1.367 . S
C333 H347 0.950 . S
C334 C331 1.481 . S
C334 C335 1.297 1_455 S
C334 H348 0.950 . S
C335 C334 1.297 1_655 S
C335 C336 1.479 . S
C335 H349 0.950 . S
C336 C335 1.479 . S
C336 C337 1.375 . S
C336 C342 1.404 . S
C337 C336 1.375 . S
C337 C338 1.369 . S
C337 H350 0.950 . S
C338 C337 1.369 . S
C338 C339 1.392 . S
C338 H351 0.951 . S
C339 C338 1.392 . S
C339 C341 1.384 . S
H340 C342 0.949 . S
C341 C339 1.384 . S
C341 C342 1.385 . S
C341 H343 0.950 . S
C342 C336 1.404 . S
C342 H340 0.949 . S
C342 C341 1.385 . S
H343 C341 0.950 . S
H344 C328 0.951 . S
H345 C330 0.951 . S
H346 C332 0.951 . S
H347 C333 0.950 . S
H348 C334 0.950 . S
H349 C335 0.950 . S
H350 C337 0.950 . S
H351 C338 0.951 . S
C352 C353 1.386 1_445 S
C352 C354 1.383 . S
C352 H368 0.951 . S
C353 C352 1.386 1_665 S
C353 C357 1.383 . S
C354 C352 1.383 . S
C354 C355 1.402 1_445 S
C354 H369 0.951 . S
C355 C354 1.402 1_665 S
C355 C356 1.375 . S
C355 C358 1.481 . S
C356 C355 1.375 . S
C356 C357 1.367 . S
C356 H370 0.951 . S
C357 C353 1.383 . S
C357 C356 1.367 . S
C357 H371 0.950 . S
C358 C355 1.481 . S
C358 C359 1.297 1_655 S
C358 H372 0.950 . S
C359 C358 1.297 1_455 S
C359 C360 1.479 . S
C359 H373 0.950 . S
C360 C359 1.479 . S
C360 C361 1.375 1_565 S
C360 C366 1.404 1_455 S
C361 C360 1.375 1_545 S
C361 C362 1.369 . S
C361 H374 0.950 . S
C362 C361 1.369 . S
C362 C363 1.392 1_545 S
C362 H375 0.951 . S
C363 C362 1.392 1_565 S
C363 C365 1.384 1_455 S
H364 C366 0.949 . S
C365 C363 1.384 1_655 S
C365 C366 1.385 . S
C365 H367 0.950 . S
C366 C360 1.404 1_655 S
C366 H364 0.949 . S
C366 C365 1.385 . S
H367 C365 0.950 . S
H368 C352 0.951 . S
H369 C354 0.951 . S
H370 C356 0.951 . S
H371 C357 0.950 . S
H372 C358 0.950 . S
H373 C359 0.950 . S
H374 C361 0.950 . S
H375 C362 0.951 . S
C376 C377 1.376 1_445 S
C376 C378 1.380 1_545 S
C376 H392 0.951 . S
C377 C376 1.376 1_665 S
C377 C381 1.392 . S
C378 C376 1.380 1_565 S
C378 C379 1.418 1_455 S
C378 H393 0.938 1_565 S
C379 C378 1.418 1_655 S
C379 C380 1.375 . S
C379 C382 1.481 . S
C380 C379 1.375 . S
C380 C381 1.367 . S
C380 H394 0.951 . S
C381 C377 1.392 . S
C381 C380 1.367 . S
C381 H395 0.950 . S
C382 C379 1.481 . S
C382 C383 1.297 1_655 S
C382 H396 0.950 . S
C383 C382 1.297 1_455 S
C383 C384 1.479 . S
C383 H397 0.950 . S
C384 C383 1.479 . S
C384 C385 1.375 . S
C384 C390 1.404 1_455 S
C385 C384 1.375 . S
C385 C386 1.369 1_565 S
C385 H398 0.950 1_565 S
C386 C385 1.369 1_545 S
C386 C387 1.392 1_545 S
C386 H399 0.951 . S
C387 C386 1.392 1_565 S
C387 C389 1.384 1_455 S
H388 C390 0.949 . S
C389 C387 1.384 1_655 S
C389 C390 1.385 . S
C389 H391 0.950 . S
C390 C384 1.404 1_655 S
C390 H388 0.949 . S
C390 C389 1.385 . S
H391 C389 0.950 . S
H392 C376 0.951 . S
H393 C378 0.938 1_545 S
H394 C380 0.951 . S
H395 C381 0.950 . S
H396 C382 0.950 . S
H397 C383 0.950 . S
H398 C385 0.950 1_545 S
H399 C386 0.951 . S
C400 C401 1.386 . S
C400 C402 1.383 . S
C400 H416 0.951 . S
C401 C400 1.386 . S
C401 C405 1.383 . S
C402 C400 1.383 . S
C402 C403 1.402 . S
C402 H417 0.951 . S
C403 C402 1.402 . S
C403 C404 1.375 . S
C403 C406 1.481 . S
C404 C403 1.375 . S
C404 C405 1.367 . S
C404 H418 0.951 . S
C405 C401 1.383 . S
C405 C404 1.367 . S
C405 H419 0.950 . S
C406 C403 1.481 . S
C406 C407 1.297 . S
C406 H420 0.950 . S
C407 C406 1.297 . S
C407 C408 1.479 . S
C407 H421 0.950 . S
C408 C407 1.479 . S
C408 C409 1.375 . S
C408 C414 1.404 . S
C409 C408 1.375 . S
C409 C410 1.369 . S
C409 H422 0.950 . S
C410 C409 1.369 . S
C410 C411 1.392 . S
C410 H423 0.951 . S
C411 C410 1.392 . S
C411 C413 1.384 . S
H412 C414 0.949 . S
C413 C411 1.384 . S
C413 C414 1.385 . S
C413 H415 0.950 . S
C414 C408 1.404 . S
C414 H412 0.949 . S
C414 C413 1.385 . S
H415 C413 0.950 . S
H416 C400 0.951 . S
H417 C402 0.951 . S
H418 C404 0.951 . S
H419 C405 0.950 . S
H420 C406 0.950 . S
H421 C407 0.950 . S
H422 C409 0.950 . S
H423 C410 0.951 . S
C424 C425 1.386 . S
C424 C426 1.383 . S
C424 H440 0.951 . S
C425 C424 1.386 . S
C425 C429 1.383 . S
C426 C424 1.383 . S
C426 C427 1.402 . S
C426 H441 0.951 . S
C427 C426 1.402 . S
C427 C428 1.375 . S
C427 C430 1.481 . S
C428 C427 1.375 . S
C428 C429 1.367 . S
C428 H442 0.951 . S
C429 C425 1.383 . S
C429 C428 1.367 . S
C429 H443 0.950 . S
C430 C427 1.481 . S
C430 C431 1.297 . S
C430 H444 0.950 . S
C431 C430 1.297 . S
C431 C432 1.479 . S
C431 H445 0.950 . S
C432 C431 1.479 . S
C432 C433 1.375 . S
C432 C438 1.404 . S
C433 C432 1.375 . S
C433 C434 1.369 . S
C433 H446 0.950 . S
C434 C433 1.369 . S
C434 C435 1.392 . S
C434 H447 0.951 . S
C435 C434 1.392 . S
C435 C437 1.384 . S
H436 C438 0.949 . S
C437 C435 1.384 . S
C437 C438 1.385 . S
C437 H439 0.950 . S
C438 C432 1.404 . S
C438 H436 0.949 . S
C438 C437 1.385 . S
H439 C437 0.950 . S
H440 C424 0.951 . S
H441 C426 0.951 . S
H442 C428 0.951 . S
H443 C429 0.950 . S
H444 C430 0.950 . S
H445 C431 0.950 . S
H446 C433 0.950 . S
H447 C434 0.951 . S
C161 C90 3.530 . S
C171 C19 3.528 1_556 S
C185 C99 3.522 . S
C195 C10 3.517 1_554 S
C209 C55 0.094 . S
C219 C126 0.250 . S
C233 C46 0.182 . S
C243 C135 0.133 . S
C257 C15 0.960 1_556 S
C267 C6 0.861 . S
C281 C59 4.873 . S
C291 C50 4.869 . S
C305 C95 0.956 1_556 S
C315 C86 0.860 . S
C329 C130 4.872 . S
C339 C139 4.866 . S
C353 C49 1.423 1_655 S
C363 C18 1.435 1_565 S
C377 C9 1.432 . S
C387 C58 1.487 1_465 S
C401 C129 1.443 . S
C411 C98 1.399 . S
C425 C138 1.467 . S
C435 C89 1.421 . S
