# Generated by pormake.
# Topology whw, (6)-cn, num edge types: 1
# Building blocks:
#     Node 0, Type 0, BuildingBlock: BETDAH_clean_sbu_0, # of connection points: 6
#     Node 1, Type 0, BuildingBlock: BETDAH_clean_sbu_0, # of connection points: 6
#     Node 2, Type 0, BuildingBlock: BETDAH_clean_sbu_0, # of connection points: 6
#     Node 3, Type 0, BuildingBlock: BETDAH_clean_sbu_0, # of connection points: 6
#     Node 4, Type 0, BuildingBlock: BETDAH_clean_sbu_0, # of connection points: 6
#     Node 5, Type 0, BuildingBlock: BETDAH_clean_sbu_0, # of connection points: 6
#     Node 6, Type 0, BuildingBlock: BETDAH_clean_sbu_0, # of connection points: 6
#     Node 7, Type 0, BuildingBlock: BETDAH_clean_sbu_0, # of connection points: 6
#     Node 8, Type 0, BuildingBlock: BETDAH_clean_sbu_0, # of connection points: 6
#     Node 9, Type 0, BuildingBlock: BETDAH_clean_sbu_0, # of connection points: 6
#     Node 10, Type 0, BuildingBlock: BETDAH_clean_sbu_0, # of connection points: 6
#     Node 11, Type 0, BuildingBlock: BETDAH_clean_sbu_0, # of connection points: 6
#     Node 12, Type 0, BuildingBlock: BETDAH_clean_sbu_0, # of connection points: 6
#     Node 13, Type 0, BuildingBlock: BETDAH_clean_sbu_0, # of connection points: 6
#     Node 14, Type 0, BuildingBlock: BETDAH_clean_sbu_0, # of connection points: 6
#     Node 15, Type 0, BuildingBlock: BETDAH_clean_sbu_0, # of connection points: 6
#     Edge 16, Type (0, 0), BuildingBlock: KIFKEQ_clean_linker_1, # of connection points: 2
#     Edge 17, Type (0, 0), BuildingBlock: KIFKEQ_clean_linker_1, # of connection points: 2
#     Edge 18, Type (0, 0), BuildingBlock: KIFKEQ_clean_linker_1, # of connection points: 2
#     Edge 19, Type (0, 0), BuildingBlock: KIFKEQ_clean_linker_1, # of connection points: 2
#     Edge 20, Type (0, 0), BuildingBlock: KIFKEQ_clean_linker_1, # of connection points: 2
#     Edge 21, Type (0, 0), BuildingBlock: KIFKEQ_clean_linker_1, # of connection points: 2
#     Edge 22, Type (0, 0), BuildingBlock: KIFKEQ_clean_linker_1, # of connection points: 2
#     Edge 23, Type (0, 0), BuildingBlock: KIFKEQ_clean_linker_1, # of connection points: 2
#     Edge 24, Type (0, 0), BuildingBlock: KIFKEQ_clean_linker_1, # of connection points: 2
#     Edge 25, Type (0, 0), BuildingBlock: KIFKEQ_clean_linker_1, # of connection points: 2
#     Edge 26, Type (0, 0), BuildingBlock: KIFKEQ_clean_linker_1, # of connection points: 2
#     Edge 27, Type (0, 0), BuildingBlock: KIFKEQ_clean_linker_1, # of connection points: 2
#     Edge 28, Type (0, 0), BuildingBlock: KIFKEQ_clean_linker_1, # of connection points: 2
#     Edge 29, Type (0, 0), BuildingBlock: KIFKEQ_clean_linker_1, # of connection points: 2
#     Edge 30, Type (0, 0), BuildingBlock: KIFKEQ_clean_linker_1, # of connection points: 2
#     Edge 31, Type (0, 0), BuildingBlock: KIFKEQ_clean_linker_1, # of connection points: 2
#     Edge 32, Type (0, 0), BuildingBlock: KIFKEQ_clean_linker_1, # of connection points: 2
#     Edge 33, Type (0, 0), BuildingBlock: KIFKEQ_clean_linker_1, # of connection points: 2
#     Edge 34, Type (0, 0), BuildingBlock: KIFKEQ_clean_linker_1, # of connection points: 2
#     Edge 35, Type (0, 0), BuildingBlock: KIFKEQ_clean_linker_1, # of connection points: 2
#     Edge 36, Type (0, 0), BuildingBlock: KIFKEQ_clean_linker_1, # of connection points: 2
#     Edge 37, Type (0, 0), BuildingBlock: KIFKEQ_clean_linker_1, # of connection points: 2
#     Edge 38, Type (0, 0), BuildingBlock: KIFKEQ_clean_linker_1, # of connection points: 2
#     Edge 39, Type (0, 0), BuildingBlock: KIFKEQ_clean_linker_1, # of connection points: 2
#     Edge 40, Type (0, 0), BuildingBlock: KIFKEQ_clean_linker_1, # of connection points: 2
#     Edge 41, Type (0, 0), BuildingBlock: KIFKEQ_clean_linker_1, # of connection points: 2
#     Edge 42, Type (0, 0), BuildingBlock: KIFKEQ_clean_linker_1, # of connection points: 2
#     Edge 43, Type (0, 0), BuildingBlock: KIFKEQ_clean_linker_1, # of connection points: 2
#     Edge 44, Type (0, 0), BuildingBlock: KIFKEQ_clean_linker_1, # of connection points: 2
#     Edge 45, Type (0, 0), BuildingBlock: KIFKEQ_clean_linker_1, # of connection points: 2
#     Edge 46, Type (0, 0), BuildingBlock: KIFKEQ_clean_linker_1, # of connection points: 2
#     Edge 47, Type (0, 0), BuildingBlock: KIFKEQ_clean_linker_1, # of connection points: 2
#     Edge 48, Type (0, 0), BuildingBlock: KIFKEQ_clean_linker_1, # of connection points: 2
#     Edge 49, Type (0, 0), BuildingBlock: KIFKEQ_clean_linker_1, # of connection points: 2
#     Edge 50, Type (0, 0), BuildingBlock: KIFKEQ_clean_linker_1, # of connection points: 2
#     Edge 51, Type (0, 0), BuildingBlock: KIFKEQ_clean_linker_1, # of connection points: 2
#     Edge 52, Type (0, 0), BuildingBlock: KIFKEQ_clean_linker_1, # of connection points: 2
#     Edge 53, Type (0, 0), BuildingBlock: KIFKEQ_clean_linker_1, # of connection points: 2
#     Edge 54, Type (0, 0), BuildingBlock: KIFKEQ_clean_linker_1, # of connection points: 2
#     Edge 55, Type (0, 0), BuildingBlock: KIFKEQ_clean_linker_1, # of connection points: 2
#     Edge 56, Type (0, 0), BuildingBlock: KIFKEQ_clean_linker_1, # of connection points: 2
#     Edge 57, Type (0, 0), BuildingBlock: KIFKEQ_clean_linker_1, # of connection points: 2
#     Edge 58, Type (0, 0), BuildingBlock: KIFKEQ_clean_linker_1, # of connection points: 2
#     Edge 59, Type (0, 0), BuildingBlock: KIFKEQ_clean_linker_1, # of connection points: 2
#     Edge 60, Type (0, 0), BuildingBlock: KIFKEQ_clean_linker_1, # of connection points: 2
#     Edge 61, Type (0, 0), BuildingBlock: KIFKEQ_clean_linker_1, # of connection points: 2
#     Edge 62, Type (0, 0), BuildingBlock: KIFKEQ_clean_linker_1, # of connection points: 2
#     Edge 63, Type (0, 0), BuildingBlock: KIFKEQ_clean_linker_1, # of connection points: 2
# Relax obj value: 0.337
# Max RMSD: 0.232
# Mean RMSD: 0.205
data_MOF--net-whw--node1-BETDAH_clean_sbu_0--edge1-KIFKEQ_clean_linker_1
_symmetry_space_group_name_H-M    P1
_symmetry_Int_Tables_number       1
_symmetry_cell_setting            triclinic
loop_
_symmetry_equiv_pos_as_xyz
'x, y, z'
_cell_length_a     46.91213
_cell_length_b     47.009532
_cell_length_c     34.628889
_cell_angle_alpha  90.027648
_cell_angle_beta   96.044519
_cell_angle_gamma 94.26896
loop_
_atom_site_label
_atom_site_type_symbol
_atom_site_fract_x
_atom_site_fract_y
_atom_site_fract_z
_atom_type_partial_charge
Ho0 Ho 0.07146 0.15135 0.14448 0.0
Ho1 Ho 0.0106 0.13235 0.1621 0.0
C2 C 0.01899 0.16693 0.08307 0.0
C3 C 0.12429 0.14959 0.13045 0.0
C4 C 0.13776 0.13897 0.09758 0.0
C5 C 0.12256 0.11876 0.07192 0.0
C6 C 0.13439 0.11028 0.0389 0.0
C7 C 0.16151 0.12211 1.03079 0.0
C8 C 0.17708 0.14168 0.05726 0.0
C9 C 0.16527 0.15001 0.09052 0.0
C10 C 0.04185 0.19151 0.17301 0.0
C11 C 0.06285 0.13703 0.23567 0.0
C12 C 0.96241 0.12085 0.18945 0.0
C13 C 0.95308 0.12414 0.22812 0.0
C14 C 0.9634 0.14798 0.25126 0.0
C15 C 0.95622 0.15008 0.28906 0.0
C16 C 0.93896 0.12817 0.30452 0.0
C17 C 0.9285 0.10437 0.28131 0.0
C18 C 0.93544 0.10245 0.2432 0.0
C19 C 0.03062 0.10035 0.10771 0.0
O20 O 0.04556 0.15836 0.08655 0.0
O21 O 0.0026 0.16344 0.11217 0.0
O22 O 0.10958 0.17193 0.12338 0.0
O23 O 0.1108 0.13005 0.15007 0.0
O24 O 0.0609 0.19802 0.14915 0.0
O25 O 0.04179 0.16602 0.18137 0.0
O26 O 0.0354 0.12918 0.22329 0.0
O27 O 0.08078 0.14647 0.2103 0.0
O28 O 0.98123 0.10177 0.18688 0.0
O29 O 0.96859 0.14471 0.17126 0.0
O30 O 0.00431 0.10635 0.10778 0.0
O31 O 0.04534 0.10985 0.13838 0.0
H32 H 0.10115 0.11018 0.07679 0.0
H33 H 0.12161 0.09563 1.01869 0.0
H34 H 0.19801 0.1511 0.05165 0.0
H35 H 0.17723 0.16565 0.11012 0.0
H36 H 0.97751 0.1647 0.24042 0.0
H37 H 0.96494 0.1684 0.30663 0.0
H38 H 0.91515 0.08726 0.29274 0.0
H39 H 0.92755 0.08379 0.22579 0.0
Ho40 Ho 0.16671 0.78836 0.44706 0.0
Ho41 Ho 0.16815 0.72968 0.41 0.0
C42 C 0.17606 0.73249 0.50074 0.0
C43 C 0.16001 0.83305 0.48806 0.0
C44 C 0.15122 0.84143 0.52573 0.0
C45 C 0.14293 0.82114 0.55291 0.0
C46 C 0.13369 0.82997 0.58794 0.0
C47 C 0.13239 0.85919 0.5961 0.0
C48 C 0.14113 0.87932 0.56886 0.0
C49 C 0.15047 0.8705 0.53408 0.0
C50 C 0.2157 0.77822 0.41659 0.0
C51 C 0.15023 0.78467 0.35611 0.0
C52 C 0.17692 0.68893 0.36362 0.0
C53 C 0.1634 0.68071 0.3243 0.0
C54 C 0.18028 0.67219 0.29591 0.0
C55 C 0.16769 0.66506 0.25831 0.0
C56 C 0.13786 0.66619 0.24835 0.0
C57 C 0.12109 0.67485 0.27702 0.0
C58 C 0.13372 0.6822 0.31442 0.0
C59 C 0.11779 0.73905 0.43661 0.0
O60 O 0.16504 0.75757 0.49675 0.0
O61 O 0.18467 0.71911 0.4709 0.0
O62 O 0.18437 0.8211 0.48866 0.0
O63 O 0.13984 0.82086 0.46321 0.0
O64 O 0.20409 0.80237 0.41413 0.0
O65 O 0.20134 0.76094 0.43612 0.0
O66 O 0.15726 0.75787 0.35814 0.0
O67 O 0.14986 0.80061 0.38739 0.0
O68 O 0.16048 0.68558 0.39178 0.0
O69 O 0.19265 0.71318 0.36627 0.0
O70 O 0.12808 0.71426 0.43584 0.0
O71 O 0.13341 0.75707 0.41985 0.0
H72 H 0.14323 0.79858 0.54682 0.0
H73 H 0.12685 0.81392 0.60813 0.0
H74 H 0.14076 0.90196 0.57443 0.0
H75 H 0.15685 0.88645 0.51345 0.0
H76 H 0.20326 0.67125 0.30274 0.0
H77 H 0.18145 0.65905 0.23694 0.0
H78 H 0.09806 0.67564 0.27082 0.0
H79 H 0.12019 0.68905 0.33563 0.0
Ho80 Ho 0.47112 0.86905 0.69945 0.0
Ho81 Ho 0.49747 0.84857 0.62063 0.0
C82 C 0.54157 0.87043 0.69296 0.0
C83 C 0.45941 0.86403 0.77121 0.0
C84 C 0.4538 0.86098 0.8132 0.0
C85 C 0.47637 0.85668 0.84241 0.0
C86 C 0.47092 0.85051 0.88099 0.0
C87 C 0.44264 0.84765 0.89165 0.0
C88 C 0.42008 0.85217 0.86245 0.0
C89 C 0.42559 0.85899 0.82401 0.0
C90 C 0.48093 0.90966 0.64625 0.0
C91 C 0.42934 0.85512 0.62416 0.0
C92 C 0.51039 0.83526 0.55177 0.0
C93 C 0.5174 0.82692 0.51178 0.0
C94 C 0.53826 0.84287 0.49262 0.0
C95 C 0.54575 0.83411 0.45613 0.0
C96 C 0.53257 0.80907 0.43714 0.0
C97 C 0.51141 0.79344 0.45633 0.0
C98 C 0.50407 0.80207 0.49285 0.0
C99 C 0.49029 0.81128 0.67875 0.0
O100 O 0.51947 0.87313 0.71359 0.0
O101 O 0.53903 0.86285 0.65572 0.0
O102 O 0.44374 0.87822 0.7452 0.0
O103 O 0.48215 0.85448 0.75835 0.0
O104 O 0.46305 0.91242 0.6724 0.0
O105 O 0.49454 0.888 0.65357 0.0
O106 O 0.45167 0.85941 0.60364 0.0
O107 O 0.43215 0.85135 0.66217 0.0
O108 O 0.49388 0.81869 0.57197 0.0
O109 O 0.51938 0.85971 0.56902 0.0
O110 O 0.51091 0.8109 0.65656 0.0
O111 O 0.47386 0.82989 0.66704 0.0
H112 H 0.49835 0.85764 0.83529 0.0
H113 H 0.48892 0.847 0.90228 0.0
H114 H 0.39802 0.85036 0.8693 0.0
H115 H 0.40759 0.8617 0.80238 0.0
H116 H 0.54924 0.86199 0.50616 0.0
H117 H 0.56243 0.84681 0.44331 0.0
H118 H 0.50017 0.77447 0.44303 0.0
H119 H 0.48787 0.7891 0.50633 0.0
Ho120 Ho 0.35126 0.19049 0.90621 0.0
Ho121 Ho 0.34475 0.24781 0.86513 0.0
C122 C 0.34012 0.24716 0.95518 0.0
C123 C 0.36237 0.14812 0.9518 0.0
C124 C 0.37244 0.14161 0.99231 0.0
C125 C 0.3824 0.16313 1.01957 0.0
C126 C 0.39254 0.15597 0.05765 0.0
C127 C 0.39304 0.12718 0.06889 0.0
C128 C 0.38266 0.10583 0.04141 0.0
C129 C 0.37246 0.113 1.00357 0.0
C130 C 0.30107 0.19491 0.8615 0.0
C131 C 0.36598 0.19294 0.819 0.0
C132 C 0.3322 0.28717 0.815 0.0
C133 C 0.34263 0.29584 0.77748 0.0
C134 C 0.34922 0.27553 0.75063 0.0
C135 C 0.36163 0.28413 0.71701 0.0
C136 C 0.36733 0.31327 0.7092 0.0
C137 C 0.3599 0.33355 0.73559 0.0
C138 C 0.34783 0.32491 0.76944 0.0
C139 C 0.39646 0.2427 0.9051 0.0
O140 O 0.35189 0.22246 0.9548 0.0
O141 O 0.33013 0.25948 0.92256 0.0
O142 O 0.33693 0.15795 0.94551 0.0
O143 O 0.38122 0.16106 0.93121 0.0
O144 O 0.31434 0.17177 0.86548 0.0
O145 O 0.31408 0.21434 0.88345 0.0
O146 O 0.35714 0.21913 0.81777 0.0
O147 O 0.36798 0.17794 0.85127 0.0
O148 O 0.35094 0.29136 0.84547 0.0
O149 O 0.31728 0.26255 0.81599 0.0
O150 O 0.38449 0.2666 0.90046 0.0
O151 O 0.38162 0.22332 0.88534 0.0
H152 H 0.38265 0.18536 1.01131 0.0
H153 H 0.40059 0.17292 0.078 0.0
H154 H 0.38232 0.0835 0.04919 0.0
H155 H 0.36475 0.0961 0.98293 0.0
H156 H 0.34508 0.253 0.75583 0.0
H157 H 0.3667 0.26796 0.69705 0.0
H158 H 0.36417 0.35614 0.73064 0.0
H159 H 0.34304 0.34098 0.78976 0.0
Ho160 Ho 0.03993 0.89788 0.92642 0.0
Ho161 Ho 0.98164 0.89449 0.87692 0.0
C162 C 0.98039 0.87891 0.96619 0.0
C163 C 0.08108 0.90935 0.98104 0.0
C164 C 0.08869 0.89634 1.01907 0.0
C165 C 0.09898 0.91371 0.05117 0.0
C166 C 0.10533 0.90165 0.08771 0.0
C167 C 0.10161 0.87191 0.0928 0.0
C168 C 0.09127 0.85462 0.0604 0.0
C169 C 0.08469 0.86671 1.02401 0.0
C170 C 0.02601 0.84747 0.89051 0.0
C171 C 0.04081 0.90468 0.83669 0.0
C172 C 0.9386 0.88453 0.82385 0.0
C173 C 0.93158 0.87231 0.78397 0.0
C174 C 0.93099 0.84277 0.777 0.0
C175 C 0.92167 0.83129 0.74006 0.0
C176 C 0.91267 0.84898 0.70894 0.0
C177 C 0.91372 0.87859 0.71587 0.0
C178 C 0.92295 0.89005 0.75289 0.0
C179 C -0.00219 0.94465 0.91464 0.0
O180 O 0.00852 0.88573 0.97045 0.0
O181 O 0.96499 0.8791 0.93196 0.0
O182 O 0.08378 0.89376 0.95052 0.0
O183 O 0.05725 0.92232 0.97774 0.0
O184 O 0.05214 0.85836 0.89876 0.0
O185 O 0.00865 0.86243 0.90535 0.0
O186 O 0.01436 0.89244 0.8341 0.0
O187 O 0.05415 0.9143 0.87026 0.0
O188 O 0.95402 0.90895 0.8276 0.0
O189 O 0.94543 0.86693 0.85204 0.0
O190 O 0.97146 0.93373 0.90917 0.0
O191 O 0.01366 0.92943 0.89772 0.0
H192 H 0.10184 0.93665 0.04804 0.0
H193 H 0.11272 0.91571 0.11207 0.0
H194 H 0.08849 0.83165 0.06297 0.0
H195 H 0.07643 0.85286 0.99973 0.0
H196 H 0.93715 0.82834 0.80026 0.0
H197 H 0.92078 0.80837 0.73625 0.0
H198 H 0.90738 0.89299 0.69267 0.0
H199 H 0.92289 0.91286 0.75736 0.0
Ho200 Ho 0.41398 0.79414 0.26374 0.0
Ho201 Ho 0.43037 0.73619 0.23602 0.0
C202 C 0.44294 0.74833 0.32573 0.0
C203 C 0.38717 0.83211 0.29612 0.0
C204 C 0.36932 0.83024 0.32839 0.0
C205 C 0.36158 0.8036 0.34379 0.0
C206 C 0.34549 0.80155 0.37539 0.0
C207 C 0.33836 0.8263 0.39402 0.0
C208 C 0.34559 0.85304 0.37749 0.0
C209 C 0.36066 0.85491 0.34474 0.0
C210 C 0.46709 0.79584 0.24134 0.0
C211 C 0.41354 0.78433 0.1704 0.0
C212 C 0.44664 0.69092 0.2048 0.0
C213 C 0.43994 0.67791 0.16634 0.0
C214 C 0.45612 0.65622 0.15472 0.0
C215 C 0.45067 0.64489 0.11717 0.0
C216 C 0.42899 0.65521 0.09083 0.0
C217 C 0.41264 0.67678 0.10293 0.0
C218 C 0.41806 0.68801 0.14042 0.0
C219 C 0.37712 0.73729 0.25947 0.0
O220 O 0.42403 0.7682 0.31978 0.0
O221 O 0.45305 0.73639 0.29598 0.0
O222 O 0.41445 0.82854 0.30538 0.0
O223 O 0.3764 0.81775 0.26496 0.0
O224 O 0.45178 0.8178 0.24092 0.0
O225 O 0.45467 0.77558 0.25883 0.0
O226 O 0.42227 0.75858 0.17841 0.0
O227 O 0.40738 0.80176 0.19828 0.0
O228 O 0.42521 0.69062 0.22597 0.0
O229 O 0.46114 0.71568 0.20551 0.0
O230 O 0.39368 0.71678 0.26683 0.0
O231 O 0.38939 0.75584 0.23943 0.0
H232 H 0.36863 0.78436 0.33194 0.0
H233 H 0.33992 0.7805 0.38612 0.0
H234 H 0.34131 0.87281 0.39096 0.0
H235 H 0.3666 0.87569 0.33324 0.0
H236 H 0.47317 0.64835 0.17448 0.0
H237 H 0.46349 0.62817 0.10868 0.0
H238 H 0.39619 0.68556 0.08309 0.0
H239 H 0.40549 0.70491 0.149 0.0
Ho240 Ho 0.48497 0.08677 0.43182 0.0
Ho241 Ho 0.5425 0.09437 0.39686 0.0
C242 C 0.54259 0.10433 0.48772 0.0
C243 C 0.43812 0.07306 0.46222 0.0
C244 C 0.42701 0.08473 0.49684 0.0
C245 C 0.41825 0.06635 0.52597 0.0
C246 C 0.41078 0.0774 0.5608 0.0
C247 C 0.41199 0.10708 0.56713 0.0
C248 C 0.42001 0.12538 0.53738 0.0
C249 C 0.42757 0.11436 0.50276 0.0
C250 C 0.5049 0.14148 0.42398 0.0
C251 C 0.48372 0.08502 0.3385 0.0
C252 C 0.58684 0.10642 0.35957 0.0
C253 C 0.59542 0.11886 0.32308 0.0
C254 C 0.57547 0.12231 0.29056 0.0
C255 C 0.58466 0.13378 0.25614 0.0
C256 C 0.61392 0.14213 0.25379 0.0
C257 C 0.63369 0.13856 0.28659 0.0
C258 C 0.62452 0.12705 0.32078 0.0
C259 C 0.53118 0.04382 0.43256 0.0
O260 O 0.51744 0.08925 0.48481 0.0
O261 O 0.55477 0.113 0.45656 0.0
O262 O 0.43935 0.09016 0.43248 0.0
O263 O 0.46128 0.0592 0.46928 0.0
O264 O 0.49119 0.13197 0.45239 0.0
O265 O 0.5065 0.12163 0.40004 0.0
O266 O 0.51173 0.09184 0.34264 0.0
O267 O 0.46887 0.07993 0.36857 0.0
O268 O 0.57184 0.08171 0.35704 0.0
O269 O 0.57795 0.12393 0.38444 0.0
O270 O 0.55639 0.05714 0.43359 0.0
O271 O 0.51372 0.05731 0.41105 0.0
H272 H 0.41798 0.04344 0.52224 0.0
H273 H 0.40496 0.06269 0.58323 0.0
H274 H 0.42069 0.14832 0.54094 0.0
H275 H 0.43444 0.12914 0.481 0.0
H276 H 0.55287 0.11619 0.29181 0.0
H277 H 0.56882 0.13651 0.23159 0.0
H278 H 0.65639 0.14436 0.28571 0.0
H279 H 0.64026 0.12443 0.34551 0.0
Ho280 Ho 0.09713 0.1968 0.6089 0.0
Ho281 Ho 0.11422 0.25701 0.58556 0.0
C282 C 0.08677 0.24998 0.66677 0.0
C283 C 0.09634 0.14815 0.64335 0.0
C284 C 0.10887 0.13938 0.68155 0.0
C285 C 0.11081 0.11041 0.68996 0.0
C286 C 0.12487 0.10221 0.72537 0.0
C287 C 0.13748 0.12298 0.75242 0.0
C288 C 0.13536 0.15198 0.74378 0.0
C289 C 0.12104 0.1601 0.70871 0.0
C290 C 0.05626 0.22213 0.56261 0.0
C291 C 0.10813 0.20467 0.52003 0.0
C292 C 0.12657 0.30504 0.5529 0.0
C293 C 0.12516 0.31623 0.51297 0.0
C294 C 0.09913 0.32419 0.49374 0.0
C295 C 0.09804 0.33431 0.45582 0.0
C296 C 0.12294 0.33679 0.43636 0.0
C297 C 0.14903 0.32914 0.45567 0.0
C298 C 0.15016 0.31915 0.49373 0.0
C299 C 0.15214 0.23555 0.63954 0.0
O300 O 0.09127 0.22247 0.66346 0.0
O301 O 0.09093 0.26781 0.63765 0.0
O302 O 0.07547 0.16519 0.64319 0.0
O303 O 0.11532 0.15646 0.61983 0.0
O304 O 0.05766 0.19464 0.56437 0.0
O305 O 0.07361 0.23322 0.58936 0.0
O306 O 0.10976 0.23259 0.52728 0.0
O307 O 0.10687 0.18611 0.54858 0.0
O308 O 0.14522 0.28602 0.56132 0.0
O309 O 0.10217 0.29883 0.56741 0.0
O310 O 0.14572 0.26172 0.6377 0.0
O311 O 0.13933 0.22149 0.61055 0.0
H312 H 0.10172 0.09419 0.66903 0.0
H313 H 0.12613 0.07972 0.73149 0.0
H314 H 0.1444 0.16843 0.7644 0.0
H315 H 0.11989 0.18258 0.70254 0.0
H316 H 0.0795 0.32239 0.50777 0.0
H317 H 0.07752 0.33968 0.44143 0.0
H318 H 0.16855 0.33105 0.44142 0.0
H319 H 0.17061 0.31353 0.50804 0.0
Ho320 Ho 0.91573 0.29808 0.76143 0.0
Ho321 Ho 0.91567 0.23557 0.73398 0.0
C322 C 0.93986 0.25025 0.82159 0.0
C323 C 0.89549 0.34447 0.78237 0.0
C324 C 0.8774 0.34876 0.81374 0.0
C325 C 0.85707 0.36927 0.81076 0.0
C326 C 0.84001 0.37295 0.84104 0.0
C327 C 0.84306 0.35611 0.87467 0.0
C328 C 0.8627 0.33478 0.87643 0.0
C329 C 0.87953 0.33111 0.84634 0.0
C330 C 0.96717 0.28341 0.7431 0.0
C331 C 0.91007 0.28605 0.66685 0.0
C332 C 0.91821 0.18632 0.7026 0.0
C333 C 0.92267 0.17421 0.66475 0.0
C334 C 0.94923 0.17819 0.64949 0.0
C335 C 0.95207 0.16833 0.61221 0.0
C336 C 0.92838 0.15469 0.58954 0.0
C337 C 0.90234 0.14929 0.60564 0.0
C338 C 0.89956 0.15887 0.64304 0.0
C339 C 0.87217 0.24728 0.77584 0.0
O340 O 0.92472 0.27325 0.81803 0.0
O341 O 0.94409 0.2353 0.7905 0.0
O342 O 0.92172 0.33789 0.7935 0.0
O343 O 0.8832 0.32851 0.75352 0.0
O344 O 0.96435 0.30464 0.7662 0.0
O345 O 0.94255 0.27445 0.72871 0.0
O346 O 0.90962 0.25821 0.67491 0.0
O347 O 0.9126 0.30549 0.69548 0.0
O348 O 0.89423 0.19889 0.70344 0.0
O349 O 0.94037 0.20012 0.72259 0.0
O350 O 0.88457 0.22369 0.77784 0.0
O351 O 0.8825 0.26285 0.75042 0.0
H352 H 0.85468 0.38265 0.78534 0.0
H353 H 0.82497 0.38941 0.83851 0.0
H354 H 0.8663 0.32168 0.90193 0.0
H355 H 0.8946 0.31467 0.8489 0.0
H356 H 0.9676 0.18949 0.66583 0.0
H357 H 0.97257 0.17201 0.60067 0.0
H358 H 0.88376 0.13884 0.58872 0.0
H359 H 0.87901 0.15513 0.65453 0.0
Ho360 Ho 0.60467 0.69001 0.11417 0.0
Ho361 Ho 0.61186 0.75155 0.08925 0.0
C362 C 0.59078 0.74136 0.17326 0.0
C363 C 0.61123 0.64235 0.14967 0.0
C364 C 0.62454 0.63605 0.18846 0.0
C365 C 0.63957 0.65807 0.21107 0.0
C366 C 0.65276 0.65252 0.24786 0.0
C367 C 0.64981 0.62503 0.26375 0.0
C368 C 0.63458 0.60294 0.24081 0.0
C369 C 0.62228 0.60839 0.20324 0.0
C370 C 0.55818 0.70887 0.07228 0.0
C371 C 0.60913 0.69988 1.02388 0.0
C372 C 0.61683 0.80102 0.05708 0.0
C373 C 0.61622 0.81268 1.01783 0.0
C374 C 0.61793 0.7949 0.98575 0.0
C375 C 0.61951 0.80659 0.94891 0.0
C376 C 0.61939 0.83623 0.94364 0.0
C377 C 0.61758 0.85392 0.97592 0.0
C378 C 0.61605 0.8422 1.01275 0.0
C379 C 0.65598 0.73484 0.1381 0.0
O380 O 0.59927 0.71509 0.16975 0.0
O381 O 0.59005 0.75902 0.14327 0.0
O382 O 0.58771 0.65576 0.14877 0.0
O383 O 0.62906 0.65334 0.12611 0.0
O384 O 0.56357 0.68218 0.07351 0.0
O385 O 0.57512 0.72244 0.09747 0.0
O386 O 0.60685 0.72727 1.03145 0.0
O387 O 0.61292 0.68132 0.05235 0.0
O388 O 0.63847 0.78572 0.06732 0.0
O389 O 0.59251 0.78976 0.06769 0.0
O390 O 0.64565 0.75947 0.13855 0.0
O391 O 0.64303 0.71974 0.11021 0.0
H392 H 0.64086 0.67968 0.20035 0.0
H393 H 0.6648 0.67001 0.26402 0.0
H394 H 0.63128 0.58164 0.25218 0.0
H395 H 0.6105 0.59121 0.1861 0.0
H396 H 0.61835 0.77207 0.9892 0.0
H397 H 0.62035 0.79238 0.92449 0.0
H398 H 0.61758 0.87684 0.97275 0.0
H399 H 0.61508 0.85622 0.03735 0.0
Ho400 Ho 0.65412 0.29232 0.95287 0.0
Ho401 Ho 0.66045 0.23474 0.91512 0.0
C402 C 0.66508 0.23656 1.00601 0.0
C403 C 0.64275 0.33476 0.99505 0.0
C404 C 0.63217 0.34137 1.03275 0.0
C405 C 0.60307 0.34607 1.03428 0.0
C406 C 0.59342 0.35536 0.06866 0.0
C407 C 0.61265 0.36043 0.10238 0.0
C408 C 0.64166 0.35512 0.10112 0.0
C409 C 0.65133 0.34582 0.06667 0.0
C410 C 0.70531 0.28583 0.92635 0.0
C411 C 0.64117 0.28947 0.86128 0.0
C412 C 0.67305 0.19518 0.8693 0.0
C413 C 0.66032 0.18497 0.83022 0.0
C414 C 0.6772 0.18557 0.79903 0.0
C415 C 0.66515 0.17678 0.76175 0.0
C416 C 0.6359 0.16706 0.75484 0.0
C417 C 0.61915 0.16625 0.7863 0.0
C418 C 0.63113 0.17519 0.82341 0.0
C419 C 0.6082 0.2406 0.93816 0.0
O420 O 0.6525 0.26078 1.00158 0.0
O421 O 0.67562 0.22428 0.97672 0.0
O422 O 0.66833 0.32524 0.99579 0.0
O423 O 0.62425 0.32222 0.96824 0.0
O424 O 0.69246 0.30929 0.92387 0.0
O425 O 0.69106 0.26725 0.94412 0.0
O426 O 0.6496 0.26313 0.86332 0.0
O427 O 0.63888 0.30477 0.89262 0.0
O428 O 0.65729 0.19036 0.89793 0.0
O429 O 0.68626 0.22076 0.87115 0.0
O430 O 0.61985 0.21651 0.93733 0.0
O431 O 0.62355 0.25973 0.923 0.0
H432 H 0.58776 0.34315 1.00865 0.0
H433 H 0.57084 0.35873 0.06871 0.0
H434 H 0.65711 0.35903 0.12642 0.0
H435 H 0.67398 0.34281 0.06642 0.0
H436 H 0.6997 0.19313 0.80341 0.0
H437 H 0.67868 0.17809 0.73825 0.0
H438 H 0.59672 0.15845 0.78243 0.0
H439 H 0.61741 0.17447 0.8467 0.0
Ho440 Ho 0.86119 0.6958 0.40097 0.0
Ho441 Ho 0.85584 0.75323 0.35987 0.0
C442 C 0.85001 0.75266 0.44931 0.0
C443 C 0.8714 0.65391 0.44781 0.0
C444 C 0.88234 0.64768 0.48854 0.0
C445 C 0.91196 0.64638 0.49938 0.0
C446 C 0.92201 0.63719 0.53642 0.0
C447 C 0.90272 0.62894 0.56357 0.0
C448 C 0.87315 0.63094 0.5531 0.0
C449 C 0.86308 0.64006 0.51596 0.0
C450 C 0.81168 0.70081 0.35493 0.0
C451 C 0.87707 0.69814 0.31438 0.0
C452 C 0.84468 0.79183 0.30831 0.0
C453 C 0.85787 0.79993 0.27251 0.0
C454 C 0.84125 0.81066 0.24053 0.0
C455 C 0.85375 0.81843 0.20663 0.0
C456 C 0.88325 0.81576 0.20402 0.0
C457 C 0.8997 0.80472 0.2362 0.0
C458 C 0.88714 0.79674 0.26987 0.0
C459 C 0.90718 0.74762 0.40065 0.0
O460 O 0.86198 0.72806 0.44915 0.0
O461 O 0.8402 0.76493 0.41658 0.0
O462 O 0.8463 0.66455 0.44173 0.0
O463 O 0.8899 0.66502 0.42517 0.0
O464 O 0.82457 0.67746 0.35939 0.0
O465 O 0.82456 0.72005 0.37727 0.0
O466 O 0.86837 0.72435 0.31297 0.0
O467 O 0.87875 0.68318 0.3467 0.0
O468 O 0.86092 0.79695 0.34097 0.0
O469 O 0.8305 0.76678 0.30788 0.0
O470 O 0.89574 0.77173 0.39523 0.0
O471 O 0.89221 0.72834 0.3809 0.0
H472 H 0.92745 0.65185 0.47898 0.0
H473 H 0.94496 0.63635 0.5437 0.0
H474 H 0.85768 0.62453 0.57314 0.0
H475 H 0.84011 0.64038 0.50839 0.0
H476 H 0.81856 0.813 0.24176 0.0
H477 H 0.84017 0.82629 0.18235 0.0
H478 H 0.9225 0.80265 0.23578 0.0
H479 H 0.90042 0.78825 0.29402 0.0
Ho480 Ho 0.55795 0.64286 0.65895 0.0
Ho481 Ho 0.49444 0.63524 0.6704 0.0
C482 C 0.50945 0.66613 0.59244 0.0
C483 C 0.60846 0.63631 0.63867 0.0
C484 C 0.62127 0.62678 0.60477 0.0
C485 C 0.6512 0.62674 0.60621 0.0
C486 C 0.66381 0.61805 0.57385 0.0
C487 C 0.64655 0.6092 0.53971 0.0
C488 C 0.61643 0.60853 0.53891 0.0
C489 C 0.60389 0.61729 0.57124 0.0
C490 C 0.53973 0.68513 0.69997 0.0
C491 C 0.54297 0.6309 0.74596 0.0
C492 C 0.44359 0.62858 0.69275 0.0
C493 C 0.43304 0.63091 0.7308 0.0
C494 C 0.45024 0.64585 0.76081 0.0
C495 C 0.44277 0.64449 0.79858 0.0
C496 C 0.41796 0.62819 0.80681 0.0
C497 C 0.39999 0.61416 0.7767 0.0
C498 C 0.40759 0.61545 0.7387 0.0
C499 C 0.51322 0.59639 0.62361 0.0
O500 O 0.53567 0.65673 0.6001 0.0
O501 O 0.49044 0.66351 0.61822 0.0
O502 O 0.59623 0.66048 0.63527 0.0
O503 O 0.59318 0.61648 0.65551 0.0
O504 O 0.56607 0.67806 0.70397 0.0
O505 O 0.52589 0.67181 0.67162 0.0
O506 O 0.5159 0.63455 0.73271 0.0
O507 O 0.56273 0.62876 0.72166 0.0
O508 O 0.46006 0.6076 0.68972 0.0
O509 O 0.45387 0.65239 0.6781 0.0
O510 O 0.48864 0.60706 0.61777 0.0
O511 O 0.52649 0.60554 0.65537 0.0
H512 H 0.66482 0.63377 0.6322 0.0
H513 H 0.68702 0.61869 0.57528 0.0
H514 H 0.60257 0.60237 0.51278 0.0
H515 H 0.5807 0.61715 0.5699 0.0
H516 H 0.47007 0.65757 0.75533 0.0
H517 H 0.45688 0.65536 0.82165 0.0
H518 H 0.38084 0.60137 0.78284 0.0
H519 H 0.39427 0.60354 0.71584 0.0
Ho520 Ho 0.9606 0.37678 0.19123 0.0
Ho521 Ho 0.98536 0.35571 0.11099 0.0
C522 C 0.02983 0.36612 0.1868 0.0
C523 C 0.94826 0.36983 0.26287 0.0
C524 C 0.94449 0.36487 0.30546 0.0
C525 C 0.96684 0.35453 0.33094 0.0
C526 C 0.96294 0.34726 0.3698 0.0
C527 C 0.93627 0.34932 0.38472 0.0
C528 C 0.91389 0.35974 0.35919 0.0
C529 C 0.91801 0.36763 0.32047 0.0
C530 C 0.97972 0.41781 0.14387 0.0
C531 C 0.92006 0.37566 0.11237 0.0
C532 C -0.00077 0.34381 0.04193 0.0
C533 C 0.00708 0.33529 1.00233 0.0
C534 C 0.01625 0.35561 0.97546 0.0
C535 C 0.02402 0.34727 0.93885 0.0
C536 C 0.02335 0.31817 0.92771 0.0
C537 C 0.01431 0.29795 0.95506 0.0
C538 C 0.00617 0.30632 0.9913 0.0
C539 C 0.9664 0.31674 0.16147 0.0
O540 O 0.00827 0.37231 0.20676 0.0
O541 O 0.02715 0.36061 0.14897 0.0
O542 O 0.93854 0.39077 0.24122 0.0
O543 O 0.96474 0.35406 0.24539 0.0
O544 O 0.96154 0.42239 0.16907 0.0
O545 O 0.98894 0.39353 0.14914 0.0
O546 O 0.94322 0.37478 0.09334 0.0
O547 O 0.9202 0.37089 0.15021 0.0
O548 O 0.98322 0.32658 0.06188 0.0
O549 O 0.00714 0.3684 0.05939 0.0
O550 O 0.98791 0.31359 0.14157 0.0
O551 O 0.95582 0.33973 0.15266 0.0
H552 H 0.98748 0.35173 0.32065 0.0
H553 H 0.98075 0.33919 0.38792 0.0
H554 H 0.89305 0.36191 0.36921 0.0
H555 H 0.90012 0.37511 0.30187 0.0
H556 H 0.01727 0.37812 0.98261 0.0
H557 H 0.03027 0.36389 0.91917 0.0
H558 H 0.01399 0.27535 0.94906 0.0
H559 H -0.00043 0.28986 1.01109 0.0
Ho560 Ho 0.52321 0.4007 0.43249 0.0
Ho561 Ho 0.46463 0.39444 0.38333 0.0
C562 C 0.4646 0.37811 0.47243 0.0
C563 C 0.56409 0.41349 0.48708 0.0
C564 C 0.57238 0.40067 0.52515 0.0
C565 C 0.58121 0.41823 0.55757 0.0
C566 C 0.58857 0.40627 0.59396 0.0
C567 C 0.58738 0.37644 0.59862 0.0
C568 C 0.57845 0.35895 0.56591 0.0
C569 C 0.57085 0.37091 0.52969 0.0
C570 C 0.51155 0.35002 0.39609 0.0
C571 C 0.52335 0.40853 0.34291 0.0
C572 C 0.42213 0.38254 0.33003 0.0
C573 C 0.4161 0.37018 0.29005 0.0
C574 C 0.41722 0.3408 0.28313 0.0
C575 C 0.40884 0.329 0.24611 0.0
C576 C 0.3991 0.34618 0.21479 0.0
C577 C 0.39846 0.37566 0.22166 0.0
C578 C 0.40675 0.38745 0.25877 0.0
C579 C 0.47802 0.44436 0.42278 0.0
O580 O 0.49239 0.38674 0.47669 0.0
O581 O 0.44917 0.37728 0.43816 0.0
O582 O 0.56732 0.39818 0.4565 0.0
O583 O 0.53978 0.42567 0.48377 0.0
O584 O 0.5372 0.36221 0.404 0.0
O585 O 0.49365 0.36402 0.41134 0.0
O586 O 0.49752 0.39487 0.34043 0.0
O587 O 0.53637 0.41848 0.37648 0.0
O588 O 0.43614 0.40771 0.33406 0.0
O589 O 0.42983 0.36526 0.35824 0.0
O590 O 0.45229 0.43184 0.4175 0.0
O591 O 0.4946 0.43072 0.40482 0.0
H592 H 0.58222 0.44123 0.5548 0.0
H593 H 0.59482 0.42046 0.61852 0.0
H594 H 0.57761 0.33593 0.5681 0.0
H595 H 0.56382 0.35683 0.5052 0.0
H596 H 0.42399 0.32669 0.3065 0.0
H597 H 0.40927 0.30617 0.24238 0.0
H598 H 0.39151 0.38972 0.19834 0.0
H599 H 0.40539 0.41011 0.26316 0.0
Ho600 Ho 0.9886 0.58666 0.91942 0.0
Ho601 Ho 0.04807 0.59479 0.88976 0.0
C602 C 0.04521 0.61004 0.97866 0.0
C603 C 0.94655 0.57276 0.95991 0.0
C604 C 0.93719 0.58522 0.99511 0.0
C605 C 0.93087 0.5675 1.02614 0.0
C606 C 0.9239 0.57924 0.06075 0.0
C607 C 0.92296 0.60892 0.06479 0.0
C608 C 0.92904 0.62659 1.03352 0.0
C609 C 0.93626 0.61488 0.99911 0.0
C610 C -0.00028 0.6378 0.88751 0.0
C611 C 0.99119 0.57929 0.82987 0.0
C612 C 0.09327 0.60734 0.85427 0.0
C613 C 0.10236 0.61815 0.81725 0.0
C614 C 0.08246 0.62363 0.78546 0.0
C615 C 0.09205 0.6344 0.75091 0.0
C616 C 0.12166 0.64004 0.7478 0.0
C617 C 0.14137 0.63425 0.77978 0.0
C618 C 0.1318 0.62341 0.81408 0.0
C619 C 0.03612 0.54472 0.92559 0.0
O620 O 0.01769 0.60057 0.97384 0.0
O621 O 0.06126 0.612 0.9495 0.0
O622 O 0.94378 0.58795 0.9283 0.0
O623 O 0.9712 0.56137 0.96486 0.0
O624 O 0.97426 0.62502 0.88691 0.0
O625 O 0.01764 0.6242 0.9084 0.0
O626 O 0.01681 0.59329 0.83581 0.0
O627 O 0.97759 0.56898 0.85907 0.0
O628 O 0.07993 0.58186 0.85376 0.0
O629 O 0.08207 0.62548 0.87588 0.0
O630 O 0.06134 0.5582 0.92769 0.0
O631 O 0.01906 0.5575 0.90228 0.0
H632 H 0.93175 0.5446 1.02379 0.0
H633 H 0.91915 0.56511 0.08432 0.0
H634 H 0.9289 0.64955 1.036 0.0
H635 H 0.94156 0.62911 0.97589 0.0
H636 H 0.05962 0.61984 0.78749 0.0
H637 H 0.07629 0.63887 0.72695 0.0
H638 H 0.16429 0.63796 0.77824 0.0
H639 H 0.14746 0.61924 0.83831 0.0
H640 H 0.1833 0.16147 0.98229 0.0
H641 H 0.16098 0.07117 0.99217 0.0
H642 H 0.18716 0.15542 0.91366 0.0
H643 H 0.16541 0.06485 0.92309 0.0
H644 H 0.11618 0.08401 0.80183 0.0
H645 H 0.13267 0.07817 0.86994 0.0
H646 H 0.20612 0.13761 0.85807 0.0
H647 H 0.18897 0.14395 0.78977 0.0
C648 C 0.18039 0.1401 0.97008 0.0
C649 C 0.17134 0.11687 0.99237 0.0
C650 C 0.18267 0.13657 0.93059 0.0
C651 C 0.17607 0.10969 0.91264 0.0
C652 C 0.16998 0.08594 0.93588 0.0
C653 C 0.1675 0.08952 0.97539 0.0
C654 C 0.13631 0.09513 0.81349 0.0
C655 C 0.15103 0.1148 0.79085 0.0
C656 C 0.14591 0.0917 0.85257 0.0
C657 C 0.17055 0.10774 0.86969 0.0
C658 C 0.18675 0.12539 0.84597 0.0
C659 C 0.17697 0.12902 0.80693 0.0
H660 H 0.14568 0.84087 0.3386 0.0
H661 H 0.13723 0.75672 0.2863 0.0
H662 H 0.13374 0.86169 0.27499 0.0
H663 H 0.12518 0.77771 0.22262 0.0
H664 H 0.07294 0.82635 0.12527 0.0
H665 H 0.08472 0.80475 0.18842 0.0
H666 H 0.15692 0.8669 0.21222 0.0
H667 H 0.14587 0.88802 0.14862 0.0
C668 C 0.14117 0.82679 0.31358 0.0
C669 C 0.14239 0.79713 0.31755 0.0
C670 C 0.13451 0.83876 0.27713 0.0
C671 C 0.12859 0.82132 0.24388 0.0
C672 C 0.12947 0.79163 0.24782 0.0
C673 C 0.13649 0.77966 0.28425 0.0
C674 C 0.09158 0.83522 0.14365 0.0
C675 C 0.10847 0.85896 0.13166 0.0
C676 C 0.09824 0.82286 0.1799 0.0
C677 C 0.1217 0.83417 0.20521 0.0
C678 C 0.13849 0.85796 0.19346 0.0
C679 C 0.13205 0.87012 0.15705 0.0
H680 H 0.34783 0.78472 0.4494 0.0
H681 H 0.30687 0.86394 0.43095 0.0
H682 H 0.35151 0.79234 0.51793 0.0
H683 H 0.31287 0.8724 0.50085 0.0
H684 H 0.38404 0.81666 0.63272 0.0
H685 H 0.34123 0.8078 0.58587 0.0
H686 H 0.36747 0.88268 0.52234 0.0
H687 H 0.41018 0.89083 0.56815 0.0
C688 C 0.33837 0.80325 0.45948 0.0
C689 C 0.32889 0.82477 0.43393 0.0
C690 C 0.34042 0.80753 0.49947 0.0
C691 C 0.33373 0.8336 0.51458 0.0
C692 C 0.31898 0.85244 0.48972 0.0
C693 C 0.31617 0.84781 0.44957 0.0
C694 C 0.37992 0.8317 0.60946 0.0
C695 C 0.4005 0.85395 0.60312 0.0
C696 C 0.35539 0.82678 0.58294 0.0
C697 C 0.35108 0.84444 0.55039 0.0
C698 C 0.36996 0.86882 0.54727 0.0
C699 C 0.39469 0.87328 0.5731 0.0
H700 H 0.36891 0.13644 0.80264 0.0
H701 H 0.38135 0.22045 0.75396 0.0
H702 H 0.38053 0.11522 0.74237 0.0
H703 H 0.39222 0.19927 0.69347 0.0
H704 H 0.44041 0.15254 0.60757 0.0
H705 H 0.4299 0.17296 0.66865 0.0
H706 H 0.35944 0.10901 0.67401 0.0
H707 H 0.36974 0.08867 0.6125 0.0
C708 C 0.37414 0.15039 0.7791 0.0
C709 C 0.37396 0.18014 0.78296 0.0
C710 C 0.38055 0.13821 0.74447 0.0
C711 C 0.38716 0.15554 0.71307 0.0
C712 C 0.38738 0.18532 0.71718 0.0
C713 C 0.38083 0.19747 0.75171 0.0
C714 C 0.42246 0.14298 0.62149 0.0
C715 C 0.40577 0.11907 0.6049 0.0
C716 C 0.41649 0.15468 0.65658 0.0
C717 C 0.39378 0.14268 0.67611 0.0
C718 C 0.3773 0.11855 0.65987 0.0
C719 C 0.38321 0.10689 0.62463 0.0
H720 H 0.92654 0.79115 0.17109 0.0
H721 H 0.87115 0.86065 0.15529 0.0
H722 H 0.94994 0.80672 0.11435 0.0
H723 H 0.89402 0.87549 0.09775 0.0
H724 H 0.92258 0.87305 0.97337 0.0
H725 H 0.89891 0.85772 1.03023 0.0
H726 H 0.98165 0.84861 0.09447 0.0
H727 H 0.00541 0.86402 0.03776 0.0
C728 C 0.91939 0.80984 0.15579 0.0
C729 C 0.89691 0.82465 0.16822 0.0
C730 C 0.9328 0.81869 0.1231 0.0
C731 C 0.92391 0.84238 0.10154 0.0
C732 C 0.90119 0.85696 0.11347 0.0
C733 C 0.88798 0.84833 0.14646 0.0
C734 C 0.93576 0.86779 0.99959 0.0
C735 C 0.96593 0.86978 1.00088 0.0
C736 C 0.92217 0.85915 1.03226 0.0
C737 C 0.93837 0.8519 0.06688 0.0
C738 C 0.96852 0.85378 0.06814 0.0
C739 C 0.98214 0.86279 1.03566 0.0
H740 H 0.93216 0.26991 0.89553 0.0
H741 H 0.97428 0.20618 0.83758 0.0
H742 H 0.95117 0.25138 0.95864 0.0
H743 H 0.99267 0.18758 0.89987 0.0
H744 H 0.04478 0.17448 1.01552 0.0
H745 H 0.02646 0.19607 0.95486 0.0
H746 H 0.94826 0.21204 1.00387 0.0
H747 H 0.96695 0.19081 0.0651 0.0
C748 C 0.9454 0.25197 0.89608 0.0
C749 C 0.95154 0.23972 0.86096 0.0
C750 C 0.95621 0.24113 0.93245 0.0
C751 C 0.97372 0.21781 0.93498 0.0
C752 C 0.9798 0.20576 0.89974 0.0
C753 C 0.96893 0.21641 0.86362 0.0
C754 C 0.02367 0.18259 1.0136 0.0
C755 C 0.00744 0.18056 0.04564 0.0
C756 C 0.01298 0.19493 0.97841 0.0
C757 C 0.98556 0.20581 0.97369 0.0
C758 C 0.96949 0.20422 1.00601 0.0
C759 C 0.98019 0.19176 0.04127 0.0
H760 H 0.58184 0.17561 0.72009 0.0
H761 H 0.66007 0.1378 0.69913 0.0
H762 H 0.55985 0.15956 0.6562 0.0
H763 H 0.63814 0.12239 0.63472 0.0
H764 H 0.59739 0.12825 0.50672 0.0
H765 H 0.62027 0.14316 0.57092 0.0
H766 H 0.54322 0.11388 0.62158 0.0
H767 H 0.52027 0.09901 0.55753 0.0
C768 C 0.59434 0.16369 0.70207 0.0
C769 C 0.62276 0.1579 0.71512 0.0
C770 C 0.5817 0.15455 0.66533 0.0
C771 C 0.59719 0.13959 0.6404 0.0
C772 C 0.62571 0.13411 0.65308 0.0
C773 C 0.63831 0.14304 0.69001 0.0
C774 C 0.58534 0.1249 0.53155 0.0
C775 C 0.55695 0.11247 0.52688 0.0
C776 C 0.59853 0.13333 0.56838 0.0
C777 C 0.58355 0.1298 0.60136 0.0
C778 C 0.55524 0.11719 0.59672 0.0
C779 C 0.54216 0.1085 0.55998 0.0
H780 H 0.55303 0.84132 0.37682 0.0
H781 H 0.53137 0.7539 0.40712 0.0
H782 H 0.56732 0.82539 0.31548 0.0
H783 H 0.54337 0.73817 0.34453 0.0
H784 H 0.59129 0.71252 0.24298 0.0
H785 H 0.57781 0.72857 0.30501 0.0
H786 H 0.55584 0.80867 0.25314 0.0
H787 H 0.57034 0.79285 0.19164 0.0
C788 C 0.55116 0.81865 0.37069 0.0
C789 C 0.54084 0.79917 0.39799 0.0
C790 C 0.55902 0.8094 0.33468 0.0
C791 C 0.55672 0.78021 0.32396 0.0
C792 C 0.54613 0.76076 0.35112 0.0
C793 C 0.53859 0.76998 0.38729 0.0
C794 C 0.58364 0.73361 0.24472 0.0
C795 C 0.58209 0.75125 0.21175 0.0
C796 C 0.57558 0.74288 0.2806 0.0
C797 C 0.56547 0.77019 0.28513 0.0
C798 C 0.56397 0.78779 0.25194 0.0
C799 C 0.57216 0.77855 0.21613 0.0
H800 H 0.67069 0.57642 0.2976 0.0
H801 H 0.65182 0.6626 0.32441 0.0
H802 H 0.68061 0.56728 0.36715 0.0
H803 H 0.66342 0.65386 0.39251 0.0
H804 H 0.63134 0.56666 0.48585 0.0
H805 H 0.64327 0.56686 0.41891 0.0
H806 H 0.70305 0.64035 0.44491 0.0
H807 H 0.69076 0.64061 0.51148 0.0
C808 C 0.66912 0.59354 0.318 0.0
C809 C 0.66023 0.62023 0.30511 0.0
C810 C 0.67515 0.58834 0.3577 0.0
C811 C 0.67308 0.60996 0.38499 0.0
C812 C 0.66588 0.63701 0.37203 0.0
C813 C 0.65926 0.64201 0.33271 0.0
C814 C 0.64765 0.58232 0.47751 0.0
C815 C 0.65958 0.60404 0.50352 0.0
C816 C 0.65474 0.58221 0.43938 0.0
C817 C 0.67375 0.60389 0.42682 0.0
C818 C 0.68818 0.62354 0.454 0.0
C819 C 0.68117 0.62362 0.49211 0.0
H820 H 0.63149 0.26201 0.79071 0.0
H821 H 0.63348 0.34531 0.84427 0.0
H822 H 0.61866 0.28292 0.72719 0.0
H823 H 0.62075 0.36607 0.78082 0.0
H824 H 0.63026 0.39539 0.65501 0.0
H825 H 0.64316 0.37437 0.71822 0.0
H826 H 0.57635 0.30679 0.69295 0.0
H827 H 0.56271 0.32818 0.63023 0.0
C828 C 0.62923 0.28476 0.78898 0.0
C829 C 0.63345 0.30198 0.82262 0.0
C830 C 0.62174 0.29669 0.75261 0.0
C831 C 0.61871 0.32613 0.74905 0.0
C832 C 0.62317 0.34336 0.78262 0.0
C833 C 0.63029 0.3314 0.819 0.0
C834 C 0.61801 0.37628 0.66303 0.0
C835 C 0.59539 0.36357 0.63731 0.0
C836 C 0.62552 0.36417 0.69923 0.0
C837 C 0.61081 0.3389 0.71049 0.0
C838 C 0.58833 0.32606 0.68484 0.0
C839 C 0.5806 0.33832 0.64882 0.0
H840 H 0.91439 0.41641 0.05872 0.0
H841 H 0.86612 0.34877 0.11284 0.0
H842 H 0.8766 0.41791 1.00635 0.0
H843 H 0.82701 0.35041 0.06016 0.0
H844 H 0.82271 0.31966 0.92944 0.0
H845 H 0.82615 0.33166 0.99772 0.0
H846 H 0.83313 0.42132 0.96963 0.0
H847 H 0.83314 0.40915 0.9017 0.0
C848 C 0.89497 0.40256 0.05998 0.0
C849 C 0.89336 0.38198 0.08899 0.0
C850 C 0.87291 0.40356 1.03003 0.0
C851 C 0.84875 0.38369 1.02812 0.0
C852 C 0.84557 0.36555 0.06009 0.0
C853 C 0.86782 0.36468 0.09041 0.0
C854 C 0.82446 0.34199 0.93777 0.0
C855 C 0.82999 0.36332 0.91048 0.0
C856 C 0.82594 0.34898 0.97715 0.0
C857 C 0.83206 0.37753 0.98952 0.0
C858 C 0.83023 0.39901 0.96123 0.0
C859 C 0.82986 0.39199 0.92197 0.0
H860 H 0.887 0.64251 0.30167 0.0
H861 H 0.88511 0.72457 0.24558 0.0
H862 H 0.89785 0.62083 0.24162 0.0
H863 H 0.89689 0.70307 0.18588 0.0
H864 H 0.88644 0.65039 0.07414 0.0
H865 H 0.87591 0.67188 0.13462 0.0
H866 H 0.93445 0.61806 0.19923 0.0
H867 H 0.94438 0.59617 0.13866 0.0
C868 C 0.88923 0.656 0.27666 0.0
C869 C 0.88513 0.68526 0.27844 0.0
C870 C 0.89559 0.64358 0.24222 0.0
C871 C 0.8982 0.66015 0.20879 0.0
C872 C 0.89453 0.68953 0.21081 0.0
C873 C 0.88796 0.70192 0.24517 0.0
C874 C 0.89708 0.64323 0.1013 0.0
C875 C 0.91619 0.62158 0.10169 0.0
C876 C 0.89116 0.65562 0.13598 0.0
C877 C 0.90441 0.64681 0.17188 0.0
C878 C 0.92351 0.62508 0.1722 0.0
C879 C 0.92924 0.61254 0.13751 0.0
H880 H 0.49012 0.36575 0.54493 0.0
H881 H 0.40697 0.36862 0.47885 0.0
H882 H 0.46668 0.34995 0.60183 0.0
H883 H 0.38367 0.35291 0.53573 0.0
H884 H 0.35307 0.35592 0.65838 0.0
H885 H 0.37675 0.37158 0.6016 0.0
H886 H 0.43723 0.30716 0.62376 0.0
H887 H 0.41367 0.29163 0.68071 0.0
C888 C 0.46687 0.36304 0.54248 0.0
C889 C 0.45047 0.36846 0.50719 0.0
C890 C 0.45344 0.35383 0.57507 0.0
C891 C 0.42328 0.35017 0.57336 0.0
C892 C 0.40691 0.35575 0.53816 0.0
C893 C 0.42032 0.36461 0.50545 0.0
C894 C 0.37148 0.34516 0.65121 0.0
C895 C 0.38144 0.32249 0.6741 0.0
C896 C 0.38492 0.35399 0.6185 0.0
C897 C 0.4089 0.34063 0.60811 0.0
C898 C 0.41896 0.31805 0.6311 0.0
C899 C 0.40528 0.30898 0.66353 0.0
H900 H 0.45648 0.6839 0.56558 0.0
H901 H 0.54193 0.67955 0.53159 0.0
H902 H 0.44102 0.70465 0.50328 0.0
H903 H 0.52673 0.70135 0.46946 0.0
H904 H 0.48447 0.71156 0.346 0.0
H905 H 0.50027 0.69308 0.40926 0.0
H906 H 0.44135 0.74401 0.46133 0.0
H907 H 0.42482 0.76208 0.39704 0.0
C908 C 0.47217 0.68755 0.54496 0.0
C909 C 0.50057 0.67974 0.55401 0.0
C910 C 0.46325 0.69979 0.50901 0.0
C911 C 0.48238 0.70484 0.48057 0.0
C912 C 0.51098 0.69742 0.48989 0.0
C913 C 0.51987 0.685 0.52587 0.0
C914 C 0.47473 0.71897 0.37079 0.0
C915 C 0.45316 0.73843 0.36591 0.0
C916 C 0.48409 0.7084 0.40753 0.0
C917 C 0.47237 0.71685 0.44117 0.0
C918 C 0.45079 0.73647 0.43638 0.0
C919 C 0.44142 0.74716 0.39939 0.0
H920 H 0.15175 0.62418 0.19982 0.0
H921 H 0.09292 0.69022 0.20591 0.0
H922 H 0.12942 0.61129 0.1348 0.0
H923 H 0.07006 0.67652 0.1414 0.0
H924 H 0.0182 0.62017 0.04336 0.0
H925 H 0.0405 0.63401 0.10835 0.0
H926 H 0.12451 0.63347 0.06821 0.0
H927 H 0.10239 0.61978 1.00333 0.0
C928 C 0.13424 0.63613 0.18732 0.0
C929 C 0.12425 0.65831 0.20839 0.0
C930 C 0.12135 0.62861 0.15006 0.0
C931 C 0.09794 0.64284 0.13302 0.0
C932 C 0.08782 0.66491 0.15398 0.0
C933 C 0.10092 0.67267 0.19107 0.0
C934 C 0.04143 0.62305 0.04836 0.0
C935 C 0.05849 0.6189 1.01806 0.0
C936 C 0.05418 0.63111 0.08555 0.0
C937 C 0.08427 0.63478 0.0934 0.0
C938 C 0.10129 0.63056 0.06315 0.0
C939 C 0.08857 0.62289 1.02589 0.0
H940 H 0.07669 0.30516 0.68804 0.0
H941 H 0.07397 0.21915 0.7314 0.0
H942 H 0.06104 0.32187 0.74892 0.0
H943 H 0.05852 0.23575 0.79203 0.0
H944 H 0.00574 0.26887 0.88425 0.0
H945 H 0.01975 0.25353 0.82242 0.0
H946 H 0.07502 0.33064 0.81773 0.0
H947 H 0.06113 0.34599 0.87988 0.0
C948 C 0.0729 0.28973 0.71049 0.0
C949 C 0.07689 0.26067 0.70425 0.0
C950 C 0.06399 0.2994 0.74577 0.0
C951 C 0.05839 0.28037 0.77618 0.0
C952 C 0.06217 0.25128 0.76966 0.0
C953 C 0.07129 0.24168 0.73461 0.0
C954 C 0.02101 0.28267 0.87054 0.0
C955 C 0.03199 0.30891 0.88827 0.0
C956 C 0.0292 0.27372 0.83459 0.0
C957 C 0.04884 0.29057 0.81438 0.0
C958 C 0.05961 0.31698 0.83165 0.0
C959 C 0.05146 0.3259 0.86776 0.0
H960 H 0.00597 0.3165 0.22448 0.0
H961 H 0.91919 0.28569 0.18276 0.0
H962 H 0.00733 0.27968 0.27314 0.0
H963 H 0.92321 0.24571 0.22793 0.0
H964 H 0.04421 0.2015 0.24945 0.0
H965 H 0.00884 0.225 0.28314 0.0
H966 H 0.96092 0.23906 0.17166 0.0
H967 H -0.00307 0.2174 0.13904 0.0
C968 C 0.98704 0.30217 0.22623 0.0
C969 C 0.96326 0.30237 0.19812 0.0
C970 C 0.98739 0.28129 0.25467 0.0
C971 C 0.96783 0.25734 0.24761 0.0
C972 C 0.94033 0.26259 0.22981 0.0
C973 C 0.93835 0.28488 0.20301 0.0
C974 C 0.0263 0.21046 0.23255 0.0
C975 C 0.02401 0.20984 0.19177 0.0
C976 C 0.00558 0.2227 0.25182 0.0
C977 C 0.98201 0.23401 0.23045 0.0
C978 C 0.97871 0.2308 0.18952 0.0
C979 C -0.00018 0.21936 0.17042 0.0
H980 H 0.93898 0.70153 0.39928 0.0
H981 H 0.94271 0.78906 0.43858 0.0
H982 H 0.99051 0.70054 0.41771 0.0
H983 H 0.99421 0.78799 0.45775 0.0
H984 H 0.08134 0.70074 0.4686 0.0
H985 H 0.02965 0.70292 0.47002 0.0
H986 H 0.03503 0.78704 0.41968 0.0
H987 H 0.0868 0.78502 0.41907 0.0
C988 C 0.95076 0.72034 0.41261 0.0
C989 C 0.93711 0.74549 0.41697 0.0
C990 C 0.98022 0.71976 0.42341 0.0
C991 C -0.00354 0.74432 0.43886 0.0
C992 C 0.98234 0.76893 0.44533 0.0
C993 C 0.9529 0.76949 0.43448 0.0
C994 C 0.07148 0.71988 0.4585 0.0
C995 C 0.08782 0.74254 0.44314 0.0
C996 C 0.04193 0.72107 0.45918 0.0
C997 C 0.02823 0.74495 0.44447 0.0
C998 C 0.04498 0.76841 0.43148 0.0
C999 C 0.07458 0.76723 0.43091 0.0
H1000 H 0.56447 0.70421 0.77139 0.0
H1001 H 0.48434 0.69714 0.69754 0.0
H1002 H 0.54384 0.73611 0.81487 0.0
H1003 H 0.46315 0.72659 0.74138 0.0
H1004 H 0.44688 0.79471 0.7227 0.0
H1005 H 0.45248 0.76594 0.78163 0.0
H1006 H 0.54415 0.78231 0.78747 0.0
H1007 H 0.53898 0.80903 0.72786 0.0
C1008 C 0.54226 0.70905 0.7649 0.0
C1009 C 0.52639 0.69987 0.72992 0.0
C1010 C 0.53015 0.72658 0.7904 0.0
C1011 C 0.50278 0.73642 0.7796 0.0
C1012 C 0.48511 0.72155 0.74949 0.0
C1013 C 0.49728 0.70471 0.72369 0.0
C1014 C 0.46823 0.79211 0.73685 0.0
C1015 C 0.49274 0.80113 0.71877 0.0
C1016 C 0.4715 0.77661 0.7714 0.0
C1017 C 0.49889 0.76747 0.78397 0.0
C1018 C 0.52258 0.7853 0.77444 0.0
C1019 C 0.51987 0.8001 0.7396 0.0
H1020 H 0.57277 0.19998 0.96754 0.0
H1021 H 0.57549 0.28555 0.92208 0.0
H1022 H 0.52093 0.20023 0.96919 0.0
H1023 H 0.52355 0.28567 0.92288 0.0
H1024 H 0.42952 0.19781 0.9007 0.0
H1025 H 0.48133 0.19805 0.91764 0.0
H1026 H 0.48307 0.28428 0.96176 0.0
H1027 H 0.4313 0.28415 0.94405 0.0
C1028 C 0.56226 0.21895 0.9583 0.0
C1029 C 0.5779 0.24259 0.94413 0.0
C1030 C 0.53262 0.21905 0.95912 0.0
C1031 C 0.51812 0.2428 0.94572 0.0
C1032 C 0.53412 0.26712 0.9337 0.0
C1033 C 0.56382 0.26703 0.933 0.0
C1034 C 0.44095 0.2166 0.91461 0.0
C1035 C 0.42664 0.2411 0.92056 0.0
C1036 C 0.47058 0.21672 0.92453 0.0
C1037 C 0.48631 0.24132 0.94071 0.0
C1038 C 0.47159 0.26522 0.94873 0.0
C1039 C 0.44199 0.26509 0.93874 0.0
H1040 H 0.06154 0.81442 0.85747 0.0
H1041 H 0.97634 0.81379 0.89424 0.0
H1042 H 0.05499 0.76306 0.84617 0.0
H1043 H 0.96991 0.76221 0.8837 0.0
H1044 H 0.04865 0.67276 0.90248 0.0
H1045 H 0.05373 0.72422 0.89301 0.0
H1046 H 0.96644 0.72176 0.83807 0.0
H1047 H 0.96129 0.67032 0.84812 0.0
C1048 C 0.04125 0.80328 0.8626 0.0
C1049 C 0.01962 0.81779 0.8774 0.0
C1050 C 0.03755 0.77392 0.85626 0.0
C1051 C 0.01217 0.75858 0.86468 0.0
C1052 C 0.98968 0.77349 0.87678 0.0
C1053 C 0.99336 0.80296 0.883 0.0
C1054 C 0.03078 0.68319 0.88777 0.0
C1055 C 0.00448 0.6678 0.87655 0.0
C1056 C 0.03368 0.7126 0.88213 0.0
C1057 C 0.01035 0.72703 0.86507 0.0
C1058 C 0.9846 0.71126 0.85181 0.0
C1059 C 0.98171 0.68186 0.85745 0.0
H1060 H 0.50547 0.68353 0.08258 0.0
H1061 H 0.54713 0.75881 1.03671 0.0
H1062 H 0.47752 0.71315 0.11932 0.0
H1063 H 0.52079 0.78873 0.07561 0.0
H1064 H 0.46991 0.82648 0.17458 0.0
H1065 H 0.48063 0.80628 0.11302 0.0
H1066 H 0.51498 0.73457 0.1748 0.0
H1067 H 0.50323 0.75414 0.2359 0.0
C1068 C 0.50717 0.70638 0.07807 0.0
C1069 C 0.53014 0.71934 0.06023 0.0
C1070 C 0.49162 0.72338 0.09984 0.0
C1071 C 0.49895 0.75294 0.10249 0.0
C1072 C 0.51569 0.76587 0.07526 0.0
C1073 C 0.53059 0.74871 0.05275 0.0
C1074 C 0.48033 0.80667 0.17501 0.0
C1075 C 0.48421 0.79075 0.20935 0.0
C1076 C 0.48608 0.79505 0.13977 0.0
C1077 C 0.49634 0.76787 0.13913 0.0
C1078 C 0.50502 0.75466 0.17441 0.0
C1079 C 0.4989 0.76604 0.20939 0.0
H1080 H 0.52229 0.1665 0.35803 0.0
H1081 H 0.49085 0.18473 0.46766 0.0
H1082 H 0.52032 0.21703 0.34033 0.0
H1083 H 0.48872 0.23452 0.45 0.0
H1084 H 0.54947 0.31644 0.36856 0.0
H1085 H 0.5462 0.26439 0.36745 0.0
H1086 H 0.45964 0.26314 0.39965 0.0
H1087 H 0.46297 0.31527 0.40108 0.0
C1088 C 0.51512 0.18131 0.37829 0.0
C1089 C 0.50661 0.17184 0.41409 0.0
C1090 C 0.51383 0.21002 0.3681 0.0
C1091 C 0.50368 0.22937 0.39344 0.0
C1092 C 0.49581 0.21986 0.42948 0.0
C1093 C 0.49738 0.19143 0.43977 0.0
C1094 C 0.52949 0.305 0.37439 0.0
C1095 C 0.50673 0.31965 0.38592 0.0
C1096 C 0.52758 0.27527 0.3735 0.0
C1097 C 0.50291 0.25992 0.38424 0.0
C1098 C 0.47907 0.27464 0.3919 0.0
C1099 C 0.48094 0.30437 0.39263 0.0
H1100 H 0.00026 0.2004 0.55712 0.0
H1101 H 0.05216 0.27727 0.5392 0.0
H1102 H 0.97301 0.22618 0.60007 0.0
H1103 H 0.02767 0.30249 0.58576 0.0
H1104 H 0.98183 0.32681 0.69649 0.0
H1105 H 0.99123 0.31741 0.62961 0.0
H1106 H 0.00853 0.23101 0.66131 0.0
H1107 H -0.00191 0.2402 0.72721 0.0
C1108 C 0.00466 0.22326 0.56035 0.0
C1109 C 0.03028 0.23641 0.54952 0.0
C1110 C 0.9896 0.23785 0.58575 0.0
C1111 C 0.00041 0.26526 0.59902 0.0
C1112 C 0.01988 0.28083 0.5776 0.0
C1113 C 0.03381 0.26636 0.55072 0.0
C1114 C 0.98927 0.30634 0.6895 0.0
C1115 C 0.98923 0.2841 0.71669 0.0
C1116 C 0.99374 0.30075 0.65103 0.0
C1117 C -0.00136 0.27302 0.63991 0.0
C1118 C 0.00297 0.25216 0.66866 0.0
C1119 C -0.0018 0.25766 0.70677 0.0
H1120 H 0.06102 0.05223 0.11519 0.0
H1121 H 0.01693 0.1061 1.03158 0.0
H1122 H 0.05845 0.01428 0.06536 0.0
H1123 H 0.01421 0.06853 0.98249 0.0
H1124 H 0.96567 0.97539 0.95762 0.0
H1125 H 0.98205 0.01475 1.0026 0.0
H1126 H 0.06941 0.00787 0.9777 0.0
H1127 H 0.05291 0.96884 0.9313 0.0
C1128 C 0.05211 0.05644 0.08579 0.0
C1129 C 0.03918 0.08199 0.07708 0.0
C1130 C 0.05044 0.03473 0.05743 0.0
C1131 C 0.03586 0.03854 1.02034 0.0
C1132 C 0.02548 0.0651 1.01087 0.0
C1133 C 0.02718 0.0866 0.03892 0.0
C1134 C 0.98835 0.98228 0.96154 0.0
C1135 C 0.00801 0.96892 0.94111 0.0
C1136 C -0.00229 0.0047 0.98737 0.0
C1137 C 0.02698 0.01406 0.99374 0.0
C1138 C 0.04679 0.00077 0.9735 0.0
C1139 C 0.03731 0.97857 0.947 0.0
H1140 H 0.26146 0.74706 0.43625 0.0
H1141 H 0.21834 0.79126 0.34082 0.0
H1142 H 0.29863 0.7359 0.39587 0.0
H1143 H 0.25364 0.77791 0.29881 0.0
H1144 H 0.33785 0.77713 0.24419 0.0
H1145 H 0.29804 0.78611 0.28094 0.0
H1146 H 0.31356 0.71014 0.34832 0.0
H1147 H 0.35505 0.70327 0.31405 0.0
C1148 C 0.25976 0.75387 0.40626 0.0
C1149 C 0.23734 0.77015 0.39162 0.0
C1150 C 0.28088 0.7472 0.38274 0.0
C1151 C 0.27945 0.75577 0.3435 0.0
C1152 C 0.25624 0.77144 0.32886 0.0
C1153 C 0.23576 0.77895 0.35284 0.0
C1154 C 0.33282 0.76263 0.26719 0.0
C1155 C 0.35019 0.74022 0.27729 0.0
C1156 C 0.30955 0.76739 0.28797 0.0
C1157 C 0.30252 0.74924 0.31861 0.0
C1158 C 0.31874 0.72543 0.32632 0.0
C1159 C 0.34241 0.72116 0.30621 0.0
H1160 H 0.47959 0.01292 0.43554 0.0
H1161 H 0.56472 0.02742 0.49603 0.0
H1162 H 0.46569 0.981 0.48766 0.0
H1163 H 0.55111 -0.00457 0.5474 0.0
H1164 H 0.52709 0.91179 0.60587 0.0
H1165 H 0.53789 0.94315 0.55276 0.0
H1166 H 0.45932 0.98402 0.56134 0.0
H1167 H 0.44825 0.952 0.61497 0.0
C1168 C 0.49529 0.00923 0.45993 0.0
C1169 C 0.52314 0.02277 0.46193 0.0
C1170 C 0.48731 0.99113 0.48975 0.0
C1171 C 0.50728 0.98583 0.52164 0.0
C1172 C 0.5353 -0.00105 0.52308 0.0
C1173 C 0.54312 0.01722 0.4936 0.0
C1174 C 0.51198 0.92734 0.59637 0.0
C1175 C 0.48682 0.92948 0.61451 0.0
C1176 C 0.51829 0.94543 0.56609 0.0
C1177 C 0.49953 0.96611 0.553 0.0
C1178 C 0.47408 0.96813 0.57076 0.0
C1179 C 0.46785 0.95004 0.60154 0.0
H1180 H 0.28569 0.16138 0.79765 0.0
H1181 H 0.26312 0.23654 0.8554 0.0
H1182 H 0.24909 0.16862 0.7439 0.0
H1183 H 0.22531 0.24305 0.80284 0.0
H1184 H 0.18821 0.27031 0.68636 0.0
H1185 H 0.22232 0.25876 0.73963 0.0
H1186 H 0.20027 0.16884 0.71751 0.0
H1187 H 0.16666 0.18086 0.6614 0.0
C1188 C 0.27254 0.17927 0.79908 0.0
C1189 C 0.27748 0.19868 0.83045 0.0
C1190 C 0.25136 0.18328 0.76833 0.0
C1191 C 0.23433 0.20665 0.76843 0.0
C1192 C 0.23851 0.22527 0.80093 0.0
C1193 C 0.26005 0.22153 0.83131 0.0
C1194 C 0.19059 0.24796 0.69248 0.0
C1195 C 0.17436 0.22647 0.66978 0.0
C1196 C 0.21004 0.24132 0.72367 0.0
C1197 C 0.2137 0.21286 0.73396 0.0
C1198 C 0.19807 0.19108 0.71059 0.0
C1199 C 0.17872 0.19786 0.67851 0.0
H1200 H 0.71969 0.31069 0.85994 0.0
H1201 H 0.7466 0.24891 0.94551 0.0
H1202 H 0.7595 0.30134 0.82357 0.0
H1203 H 0.78823 0.24113 0.91132 0.0
H1204 H 0.84508 0.21166 0.82423 0.0
H1205 H 0.80498 0.22069 0.86017 0.0
H1206 H 0.8066 0.30705 0.81645 0.0
H1207 H 0.84442 0.29644 0.77723 0.0
C1208 C 0.73458 0.29541 0.87127 0.0
C1209 C 0.73016 0.28046 0.9054 0.0
C1210 C 0.7577 0.29019 0.85062 0.0
C1211 C 0.77758 0.27047 0.86423 0.0
C1212 C 0.77324 0.25594 0.89907 0.0
C1213 C 0.74951 0.26054 0.91902 0.0
C1214 C 0.83668 0.23252 0.82219 0.0
C1215 C 0.84816 0.25352 0.79822 0.0
C1216 C 0.81381 0.23791 0.84329 0.0
C1217 C 0.80226 0.26477 0.84185 0.0
C1218 C 0.81419 0.28587 0.81804 0.0
C1219 C 0.83641 0.28007 0.79594 0.0
H1220 H 0.79985 0.66949 0.28853 0.0
H1221 H 0.77285 0.74159 0.34846 0.0
H1222 H 0.76398 0.67664 0.23399 0.0
H1223 H 0.73551 0.74779 0.2953 0.0
H1224 H 0.68998 0.77251 0.18355 0.0
H1225 H 0.72796 0.76394 0.23352 0.0
H1226 H 0.71638 0.67355 0.20733 0.0
H1227 H 0.67951 0.6829 0.15412 0.0
C1228 C 0.78589 0.68671 0.29018 0.0
C1229 C 0.78919 0.70512 0.32263 0.0
C1230 C 0.76511 0.69069 0.25895 0.0
C1231 C 0.74669 0.71293 0.25963 0.0
C1232 C 0.74969 0.73091 0.29281 0.0
C1233 C 0.77094 0.72729 0.32364 0.0
C1234 C 0.69564 0.75074 0.18804 0.0
C1235 C 0.68116 0.72824 0.16537 0.0
C1236 C 0.71732 0.74574 0.21735 0.0
C1237 C 0.72489 0.71791 0.22585 0.0
C1238 C 0.71128 0.69536 0.20193 0.0
C1239 C 0.68996 0.70059 0.17151 0.0
H1240 H 0.52681 0.60061 0.55017 0.0
H1241 H 0.5127 0.53991 0.64064 0.0
H1242 H 0.52326 0.56179 0.50244 0.0
H1243 H 0.5084 0.50087 0.59273 0.0
H1244 H 0.45085 0.45712 0.48554 0.0
H1245 H 0.46716 0.49178 0.53731 0.0
H1246 H 0.54351 0.5148 0.48142 0.0
H1247 H 0.52734 0.4796 0.42976 0.0
C1248 C 0.52423 0.57878 0.56004 0.0
C1249 C 0.5207 0.57309 0.5991 0.0
C1250 C 0.52198 0.55658 0.53271 0.0
C1251 C 0.51526 0.52832 0.54378 0.0
C1252 C 0.51345 0.52248 0.58337 0.0
C1253 C 0.5163 0.54471 0.61086 0.0
C1254 C 0.47112 0.46957 0.48431 0.0
C1255 C 0.48773 0.46587 0.45351 0.0
C1256 C 0.48063 0.48916 0.51419 0.0
C1257 C 0.50674 0.50584 0.51361 0.0
C1258 C 0.52334 0.5022 0.48267 0.0
C1259 C 0.51405 0.48218 0.4531 0.0
H1260 H 0.06855 0.5295 0.99066 0.0
H1261 H 0.98453 0.51327 0.9275 0.0
H1262 H 0.054 0.4988 0.04285 0.0
H1263 H 0.96962 0.48283 0.98066 0.0
H1264 H 0.02686 0.41686 0.10561 0.0
H1265 H 0.03955 0.44603 0.05089 0.0
H1266 H 0.96252 0.49039 0.05459 0.0
H1267 H 0.94976 0.46092 0.10989 0.0
C1268 C 0.047 0.51919 0.9878 0.0
C1269 C 0.02755 0.52401 0.95518 0.0
C1270 C 0.03865 0.50166 1.01777 0.0
C1271 C 0.01061 0.48864 1.01597 0.0
C1272 C 0.99126 0.49293 0.98299 0.0
C1273 C -0.00019 0.51017 0.95257 0.0
C1274 C 0.01263 0.43285 0.09478 0.0
C1275 C 0.9874 0.43676 0.112 0.0
C1276 C 0.01993 0.44958 0.06353 0.0
C1277 C 0.00202 0.47044 0.04847 0.0
C1278 C 0.9766 0.47429 0.06549 0.0
C1279 C 0.96946 0.45771 0.09728 0.0
H1280 H 0.03239 0.12384 0.29878 0.0
H1281 H 0.1124 0.16567 0.27028 0.0
H1282 H 0.04417 0.13939 0.36658 0.0
H1283 H 0.12383 0.18152 0.33762 0.0
H1284 H 0.08854 0.15076 0.49334 0.0
H1285 H 0.07827 0.13327 0.4265 0.0
H1286 H 0.10716 0.21567 0.38462 0.0
H1287 H 0.11704 0.23343 0.45173 0.0
C1288 C 0.05271 0.13591 0.3069 0.0
C1289 C 0.07149 0.14302 0.2785 0.0
C1290 C 0.05947 0.14498 0.34599 0.0
C1291 C 0.08499 0.16201 0.35806 0.0
C1292 C 0.10386 0.16879 0.32975 0.0
C1293 C 0.09736 0.15933 0.29092 0.0
C1294 C 0.09299 0.16523 0.47004 0.0
C1295 C 0.10395 0.19362 0.47853 0.0
C1296 C 0.0868 0.15516 0.43142 0.0
C1297 C 0.09177 0.17288 0.39962 0.0
C1298 C 0.1032 0.20116 0.40806 0.0
C1299 C 0.10888 0.21142 0.44675 0.0
H1300 H 0.14381 0.83963 0.67045 0.0
H1301 H 0.0952 0.90045 0.60324 0.0
H1302 H 0.12372 0.85463 0.729 0.0
H1303 H 0.07564 0.91575 0.66168 0.0
H1304 H 0.0174 0.90171 0.76157 0.0
H1305 H 0.04139 0.89317 0.70417 0.0
H1306 H 0.12321 0.89665 0.77463 0.0
H1307 H 0.09902 0.90521 0.83256 0.0
C1308 C 0.12893 0.85624 0.6682 0.0
C1309 C 0.12106 0.86878 0.63215 0.0
C1310 C 0.1177 0.86507 0.7018 0.0
C1311 C 0.09812 0.88641 0.69998 0.0
C1312 C 0.09055 0.89916 0.66402 0.0
C1313 C 0.10193 0.89052 0.63057 0.0
C1314 C 0.04058 0.90114 0.76481 0.0
C1315 C 0.05632 0.90416 0.80162 0.0
C1316 C 0.05435 0.89632 0.73185 0.0
C1317 C 0.0842 0.89409 0.73485 0.0
C1318 C 0.10014 0.89801 0.77148 0.0
C1319 C 0.08635 0.90322 0.80455 0.0
H1320 H 0.41545 0.83956 0.14187 0.0
H1321 H 0.41346 0.75192 0.10413 0.0
H1322 H 0.422 0.85531 0.07551 0.0
H1323 H 0.41931 0.76763 0.03801 0.0
H1324 H 0.40174 0.80775 0.9149 0.0
H1325 H 0.39302 0.79317 0.98087 0.0
H1326 H 0.46112 0.85396 1.02796 0.0
H1327 H 0.47022 0.8682 0.9619 0.0
C1328 C 0.41577 0.82359 0.11942 0.0
C1329 C 0.41359 0.79436 0.12883 0.0
C1330 C 0.41987 0.83266 0.08128 0.0
C1331 C 0.42122 0.81283 0.05097 0.0
C1332 C 0.41816 0.78364 0.06019 0.0
C1333 C 0.41472 0.7746 0.09837 0.0
C1334 C 0.41481 0.81818 0.93924 0.0
C1335 C 0.43673 0.83928 0.9326 0.0
C1336 C 0.4099 0.80965 0.97725 0.0
C1337 C 0.42625 0.82235 1.01018 0.0
C1338 C 0.44786 0.84378 1.00359 0.0
C1339 C 0.45323 0.85185 0.96553 0.0
H1340 H 0.50688 0.0834 0.2696 0.0
H1341 H 0.42627 0.09052 0.31745 0.0
H1342 H 0.48375 0.09226 0.20499 0.0
H1343 H 0.40295 0.09915 0.25231 0.0
H1344 H 0.38473 0.15148 0.13865 0.0
H1345 H 0.40498 0.13842 0.2037 0.0
H1346 H 0.44801 0.07134 0.15407 0.0
H1347 H 0.4284 0.08475 0.08923 0.0
C1348 C 0.4841 0.08646 0.26629 0.0
C1349 C 0.46846 0.08629 0.2988 0.0
C1350 C 0.4708 0.09144 0.22914 0.0
C1351 C 0.44152 0.09658 0.22346 0.0
C1352 C 0.42562 0.0956 0.25578 0.0
C1353 C 0.43891 0.09034 0.29303 0.0
C1354 C 0.39862 0.13403 0.14166 0.0
C1355 C 0.40495 0.11919 0.1087 0.0
C1356 C 0.40994 0.12632 0.17895 0.0
C1357 C 0.42808 0.10378 0.1841 0.0
C1358 C 0.43428 0.08891 0.15114 0.0
C1359 C 0.42283 0.09647 0.11397 0.0
H1360 H 0.84944 0.81046 0.46382 0.0
H1361 H 0.85653 0.72935 0.52115 0.0
H1362 H 0.86307 0.83506 0.52639 0.0
H1363 H 0.86988 0.75369 0.58299 0.0
H1364 H 0.93232 0.80378 0.67191 0.0
H1365 H 0.91353 0.78181 0.60997 0.0
H1366 H 0.85004 0.84382 0.59397 0.0
H1367 H 0.86851 0.86567 0.65664 0.0
C1368 C 0.85316 0.79788 0.4898 0.0
C1369 C 0.85209 0.76793 0.48733 0.0
C1370 C 0.8611 0.81196 0.52565 0.0
C1371 C 0.86821 0.79636 0.55964 0.0
C1372 C 0.86532 0.76643 0.55733 0.0
C1373 C 0.8574 0.75245 0.52179 0.0
C1374 C 0.91415 0.81265 0.65556 0.0
C1375 C 0.90186 0.83643 0.66979 0.0
C1376 C 0.90337 0.80002 0.61987 0.0
C1377 C 0.88001 0.81081 0.59707 0.0
C1378 C 0.86812 0.83503 0.61066 0.0
C1379 C 0.87882 0.84761 0.64661 0.0
H1380 H 0.94908 0.19083 0.53678 0.0
H1381 H 0.90989 0.10571 0.54875 0.0
H1382 H 0.9501 0.18264 0.46768 0.0
H1383 H 0.90939 0.09786 0.47875 0.0
H1384 H 0.94563 0.08721 0.35958 0.0
H1385 H 0.94211 0.09218 0.42913 0.0
H1386 H 0.91578 0.17776 0.41069 0.0
H1387 H 0.91995 0.17291 0.34145 0.0
C1388 C 0.94111 0.17019 0.52461 0.0
C1389 C 0.92995 0.14871 0.54807 0.0
C1390 C 0.94111 0.16568 0.48492 0.0
C1391 C 0.92955 0.1397 0.46774 0.0
C1392 C 0.91858 0.11804 0.49127 0.0
C1393 C 0.91872 0.12255 0.53116 0.0
C1394 C 0.93862 0.10685 0.37046 0.0
C1395 C 0.93325 0.12978 0.34544 0.0
C1396 C 0.93661 0.10971 0.41018 0.0
C1397 C 0.92906 0.1355 0.42537 0.0
C1398 C 0.92233 0.15788 0.39992 0.0
C1399 C 0.92455 0.15509 0.36035 0.0
H1400 H 0.66642 0.1792 1.02126 0.0
H1401 H 0.65945 0.26065 0.07584 0.0
H1402 H 0.65627 0.15507 0.08167 0.0
H1403 H 0.64917 0.23674 0.13557 0.0
H1404 H 0.65325 0.18749 0.2477 0.0
H1405 H 0.66991 0.20849 0.18904 0.0
H1406 H 0.6136 0.1473 0.11905 0.0
H1407 H 0.59742 0.12569 0.178 0.0
C1408 C 0.66333 0.19196 0.04632 0.0
C1409 C 0.66378 0.22183 0.04375 0.0
C1410 C 0.65717 0.17814 0.08076 0.0
C1411 C 0.65174 0.19396 0.11343 0.0
C1412 C 0.65348 0.22387 0.11119 0.0
C1413 C 0.6593 0.2376 0.07682 0.0
C1414 C 0.64464 0.17824 0.21986 0.0
C1415 C 0.62395 0.15488 0.21765 0.0
C1416 C 0.65405 0.19045 0.18618 0.0
C1417 C 0.64311 0.17961 0.14929 0.0
C1418 C 0.62271 0.15599 0.147 0.0
C1419 C 0.61315 0.14384 0.18077 0.0
H1420 H 0.56437 0.91771 0.73238 0.0
H1421 H 0.58147 0.8317 0.70464 0.0
H1422 H 0.59705 0.9164 0.79174 0.0
H1423 H 0.61205 0.82913 0.76557 0.0
H1424 H 0.65252 0.82312 0.88626 0.0
H1425 H 0.64769 0.83916 0.81883 0.0
H1426 H 0.58052 0.89205 0.84528 0.0
H1427 H 0.58579 0.87653 0.91189 0.0
C1428 C 0.5762 0.89897 0.73826 0.0
C1429 C 0.57001 0.87453 0.71482 0.0
C1430 C 0.59454 0.89799 0.77253 0.0
C1431 C 0.60591 0.87217 0.78445 0.0
C1432 C 0.60339 0.8493 0.7577 0.0
C1433 C 0.58579 0.85069 0.72268 0.0
C1434 C 0.63708 0.83853 0.87756 0.0
C1435 C 0.61936 0.84843 0.90421 0.0
C1436 C 0.63439 0.84779 0.83903 0.0
C1437 C 0.61379 0.86696 0.82644 0.0
C1438 C 0.59718 0.87787 0.85384 0.0
C1439 C 0.60001 0.86879 0.8922 0.0
H1440 H 0.51215 0.65127 0.80209 0.0
H1441 H 0.59599 0.62373 0.7869 0.0
H1442 H 0.52954 0.6675 0.86782 0.0
H1443 H 0.61318 0.63934 0.85351 0.0
H1444 H 0.6203 0.6482 0.99218 0.0
H1445 H 0.60496 0.62947 0.92639 0.0
H1446 H 0.56595 0.70778 0.89654 0.0
H1447 H 0.58176 0.72675 0.96162 0.0
C1448 C 0.53413 0.64798 0.81289 0.0
C1449 C 0.55249 0.63595 0.78863 0.0
C1450 C 0.54423 0.65766 0.85071 0.0
C1451 C 0.57292 0.65504 0.86618 0.0
C1452 C 0.59096 0.64173 0.84276 0.0
C1453 C 0.58102 0.63265 0.80447 0.0
C1454 C 0.60883 0.66163 0.97145 0.0
C1455 C 0.60256 0.68918 0.98256 0.0
C1456 C 0.59999 0.65083 0.93363 0.0
C1457 C 0.58393 0.66694 0.906 0.0
C1458 C 0.57798 0.69457 0.91699 0.0
C1459 C 0.58735 0.70559 0.9544 0.0
H1460 H 0.49967 0.40477 0.268 0.0
H1461 H 0.58165 0.41195 0.33819 0.0
H1462 H 0.52364 0.3967 0.21056 0.0
H1463 H 0.60591 0.40404 0.28012 0.0
H1464 H 0.6275 0.34538 0.17817 0.0
H1465 H 0.60859 0.36234 0.23641 0.0
H1466 H 0.55595 0.4183 0.16616 0.0
H1467 H 0.5749 0.40153 0.10809 0.0
C1468 C 0.52293 0.4052 0.27103 0.0
C1469 C 0.53876 0.40897 0.30768 0.0
C1470 C 0.53671 0.40068 0.238 0.0
C1471 C 0.5667 0.39957 0.24072 0.0
C1472 C 0.58273 0.40449 0.27714 0.0
C1473 C 0.56889 0.40934 0.31031 0.0
C1474 C 0.61222 0.36161 0.17521 0.0
C1475 C 0.60244 0.37178 0.13832 0.0
C1476 C 0.60144 0.3714 0.20863 0.0
C1477 C 0.58063 0.39157 0.20594 0.0
C1478 C 0.57161 0.40241 0.16921 0.0
C1479 C 0.58238 0.39268 0.13588 0.0
H1480 H 0.88981 0.31834 0.41203 0.0
H1481 H 0.97278 0.35933 0.45266 0.0
H1482 H 0.88322 0.3031 0.47848 0.0
H1483 H 0.96598 0.34446 0.51915 0.0
H1484 H 0.92911 0.33888 0.64006 0.0
H1485 H 0.93558 0.35363 0.57351 0.0
H1486 H 0.90301 0.26995 0.53141 0.0
H1487 H 0.89715 0.25495 0.59817 0.0
C1488 C 0.90664 0.32435 0.43505 0.0
C1489 C 0.93187 0.34028 0.42626 0.0
C1490 C 0.90292 0.31535 0.4734 0.0
C1491 C 0.92397 0.32244 0.50488 0.0
C1492 C 0.94907 0.33863 0.49617 0.0
C1493 C 0.95306 0.34707 0.45769 0.0
C1494 C 0.92302 0.32358 0.61672 0.0
C1495 C 0.91216 0.29568 0.62515 0.0
C1496 C 0.92702 0.33204 0.57827 0.0
C1497 C 0.91978 0.31318 0.54637 0.0
C1498 C 0.90861 0.28536 0.55473 0.0
C1499 C 0.90522 0.27669 0.59332 0.0
H1500 H 0.01608 0.58578 0.76276 0.0
H1501 H 0.93316 0.57338 0.80634 0.0
H1502 H 0.9929 0.59461 0.69837 0.0
H1503 H 0.90967 0.58167 0.74111 0.0
H1504 H 0.88516 0.64009 0.63495 0.0
H1505 H 0.90445 0.62294 0.69826 0.0
H1506 H 0.96353 0.57441 0.64264 0.0
H1507 H 0.94441 0.59167 0.57956 0.0
C1508 C 0.99281 0.58437 0.75841 0.0
C1509 C 0.97649 0.579 0.78978 0.0
C1510 C 0.97946 0.5893 0.72131 0.0
C1511 C 0.94937 0.58905 0.71447 0.0
C1512 C 0.93291 0.58239 0.74547 0.0
C1513 C 0.94634 0.57728 0.78274 0.0
C1514 C 0.90204 0.6255 0.63622 0.0
C1515 C 0.91348 0.61757 0.60217 0.0
C1516 C 0.91303 0.61555 0.67253 0.0
C1517 C 0.93567 0.59737 0.67566 0.0
C1518 C 0.94646 0.58878 0.64144 0.0
C1519 C 0.93555 0.59876 0.60524 0.0
H1520 H 0.42133 0.30216 0.17829 0.0
H1521 H 0.35437 0.36066 0.16172 0.0
H1522 H 0.40397 0.27939 0.11634 0.0
H1523 H 0.33731 0.33802 0.09911 0.0
H1524 H 0.33748 0.30476 0.96966 0.0
H1525 H 0.35055 0.32987 1.03193 0.0
H1526 H 0.36211 0.24922 0.08879 0.0
H1527 H 0.34922 0.22437 1.02725 0.0
C1528 C 0.40278 0.31012 0.16165 0.0
C1529 C 0.3892 0.3332 0.17556 0.0
C1530 C 0.39281 0.29703 0.12594 0.0
C1531 C 0.36898 0.30661 0.10277 0.0
C1532 C 0.35579 0.33015 0.11603 0.0
C1533 C 0.36569 0.34319 0.15199 0.0
C1534 C 0.34219 0.29239 0.99562 0.0
C1535 C 0.34249 0.26252 0.99324 0.0
C1536 C 0.34981 0.30679 1.03132 0.0
C1537 C 0.35799 0.29163 0.06534 0.0
C1538 C 0.35669 0.26169 0.06313 0.0
C1539 C 0.34906 0.2474 1.02772 0.0
H1540 H 0.46984 0.64488 0.04338 0.0
H1541 H 0.37782 0.64249 0.04639 0.0
H1542 H 0.46272 0.63213 0.9749 0.0
H1543 H 0.37067 0.62982 0.97738 0.0
H1544 H 0.38055 0.65488 0.84643 0.0
H1545 H 0.38003 0.65592 0.91712 0.0
H1546 H 0.44412 0.59408 0.92862 0.0
H1547 H 0.44493 0.59374 0.85815 0.0
C1548 C 0.44807 0.641 1.02961 0.0
C1549 C 0.4244 0.64475 0.05021 0.0
C1550 C 0.44397 0.63366 0.99035 0.0
C1551 C 0.41611 0.62991 0.97084 0.0
C1552 C 0.39237 0.63282 0.99166 0.0
C1553 C 0.39648 0.64011 1.03105 0.0
C1554 C 0.39381 0.64099 0.86424 0.0
C1555 C 0.41275 0.62424 0.84746 0.0
C1556 C 0.39353 0.64149 0.90453 0.0
C1557 C 0.41229 0.62529 0.92833 0.0
C1558 C 0.42977 0.60708 0.911 0.0
C1559 C 0.4301 0.60669 0.87085 0.0
H1560 H 0.17384 0.67499 0.51522 0.0
H1561 H 0.17347 0.75701 0.57131 0.0
H1562 H 0.16286 0.65134 0.57553 0.0
H1563 H 0.16232 0.73354 0.63107 0.0
H1564 H 0.16406 0.68255 0.74222 0.0
H1565 H 0.18145 0.70309 0.68367 0.0
H1566 H 0.12003 0.64679 0.61315 0.0
H1567 H 0.10303 0.62571 0.67193 0.0
C1568 C 0.17203 0.68795 0.5406 0.0
C1569 C 0.17452 0.71788 0.53847 0.0
C1570 C 0.16539 0.67442 0.57498 0.0
C1571 C 0.16149 0.69055 0.60803 0.0
C1572 C 0.16536 0.72044 0.6063 0.0
C1573 C 0.17169 0.73392 0.57196 0.0
C1574 C 0.15447 0.6743 0.71426 0.0
C1575 C 0.13213 0.65246 0.7118 0.0
C1576 C 0.16431 0.68623 0.68068 0.0
C1577 C 0.15217 0.67658 0.64371 0.0
C1578 C 0.13008 0.65449 0.64118 0.0
C1579 C 0.12008 0.64266 0.67484 0.0
H1580 H 0.06221 0.4111 0.22016 0.0
H1581 H 0.05878 0.31981 0.20601 0.0
H1582 H 0.09788 0.40849 0.27645 0.0
H1583 H 0.09308 0.31669 0.26347 0.0
H1584 H 0.09537 0.38165 0.4055 0.0
H1585 H 0.08464 0.39242 0.33741 0.0
H1586 H 0.13654 0.32528 0.30661 0.0
H1587 H 0.14633 0.31377 0.37538 0.0
C1588 C 0.07009 0.39062 0.22828 0.0
C1589 C 0.05793 0.36564 0.20922 0.0
C1590 C 0.09022 0.38903 0.2607 0.0
C1591 C 0.09763 0.36232 0.27522 0.0
C1592 C 0.08795 0.33763 0.25316 0.0
C1593 C 0.06826 0.33933 0.2202 0.0
C1594 C 0.1048 0.36945 0.38422 0.0
C1595 C 0.12115 0.34653 0.39562 0.0
C1596 C 0.09906 0.37589 0.34508 0.0
C1597 C 0.10964 0.35961 0.31636 0.0
C1598 C 0.12784 0.33803 0.32798 0.0
C1599 C 0.13358 0.33155 0.36733 0.0
loop_
_geom_bond_atom_site_label_1
_geom_bond_atom_site_label_2
_geom_bond_distance
_geom_bond_site_symmetry_2
_ccdc_geom_bond_type
Ho0 C3 2.811 . S
Ho0 O20 2.322 1_455 S
Ho0 O22 2.378 . S
Ho0 O23 2.524 . S
Ho0 O24 2.381 . S
Ho0 O25 2.669 1_455 S
Ho0 O27 2.346 . S
Ho0 O31 2.305 . S
Ho1 C12 2.811 . S
Ho1 O21 2.346 . S
Ho1 O25 2.305 . S
Ho1 O26 2.322 1_655 S
Ho1 O28 2.378 . S
Ho1 O29 2.524 . S
Ho1 O30 2.381 . S
Ho1 O31 2.669 1_655 S
C2 O20 1.259 . S
C2 O21 1.268 . S
C3 Ho0 2.811 . S
C3 C4 1.488 1_554 S
C3 O22 1.215 . S
C3 O23 1.289 . S
C4 C3 1.488 1_556 S
C4 C5 1.348 . S
C4 C9 1.413 . S
C5 C4 1.348 . S
C5 C6 1.442 . S
C5 H32 0.930 . S
C6 C5 1.442 . S
C6 C7 1.381 . S
C6 H33 0.931 . S
C7 C6 1.381 . S
C7 C8 1.321 . S
C8 C7 1.321 . S
C8 C9 1.403 . S
C8 H34 0.934 . S
C9 C4 1.413 . S
C9 C8 1.403 . S
C9 H35 0.930 . S
C10 O24 1.275 . S
C10 O25 1.256 1_455 S
C11 O26 1.259 . S
C11 O27 1.268 . S
C12 Ho1 2.811 . S
C12 C13 1.488 . S
C12 O28 1.215 . S
C12 O29 1.289 . S
C13 C12 1.488 . S
C13 C14 1.348 . S
C13 C18 1.413 . S
C14 C13 1.348 . S
C14 C15 1.442 . S
C14 H36 0.930 . S
C15 C14 1.442 . S
C15 C16 1.381 . S
C15 H37 0.931 . S
C16 C15 1.381 . S
C16 C17 1.321 . S
C17 C16 1.321 . S
C17 C18 1.403 . S
C17 H38 0.934 . S
C18 C13 1.413 . S
C18 C17 1.403 . S
C18 H39 0.930 . S
C19 O30 1.275 . S
C19 O31 1.256 1_655 S
O20 Ho0 2.322 1_655 S
O20 C2 1.259 . S
O21 Ho1 2.346 . S
O21 C2 1.268 . S
O22 Ho0 2.378 . S
O22 C3 1.215 . S
O23 Ho0 2.524 . S
O23 C3 1.289 . S
O24 Ho0 2.381 . S
O24 C10 1.275 . S
O25 Ho0 2.669 1_655 S
O25 Ho1 2.305 . S
O25 C10 1.256 1_655 S
O26 Ho1 2.322 1_455 S
O26 C11 1.259 . S
O27 Ho0 2.346 . S
O27 C11 1.268 . S
O28 Ho1 2.378 . S
O28 C12 1.215 . S
O29 Ho1 2.524 . S
O29 C12 1.289 . S
O30 Ho1 2.381 . S
O30 C19 1.275 . S
O31 Ho0 2.305 . S
O31 Ho1 2.669 1_455 S
O31 C19 1.256 1_455 S
H32 C5 0.930 . S
H33 C6 0.931 . S
H34 C8 0.934 . S
H35 C9 0.930 . S
H36 C14 0.930 . S
H37 C15 0.931 . S
H38 C17 0.934 . S
H39 C18 0.930 . S
Ho40 C43 2.811 . S
Ho40 O60 2.322 . S
Ho40 O62 2.378 . S
Ho40 O63 2.524 . S
Ho40 O64 2.381 . S
Ho40 O65 2.669 . S
Ho40 O67 2.346 . S
Ho40 O71 2.305 . S
Ho41 C52 2.811 . S
Ho41 O61 2.346 . S
Ho41 O65 2.305 . S
Ho41 O66 2.322 . S
Ho41 O68 2.378 . S
Ho41 O69 2.524 . S
Ho41 O70 2.381 . S
Ho41 O71 2.669 . S
C42 O60 1.259 . S
C42 O61 1.268 . S
C43 Ho40 2.811 . S
C43 C44 1.488 . S
C43 O62 1.215 . S
C43 O63 1.289 . S
C44 C43 1.488 . S
C44 C45 1.348 . S
C44 C49 1.413 . S
C45 C44 1.348 . S
C45 C46 1.442 . S
C45 H72 0.930 . S
C46 C45 1.442 . S
C46 C47 1.381 . S
C46 H73 0.931 . S
C47 C46 1.381 . S
C47 C48 1.321 . S
C48 C47 1.321 . S
C48 C49 1.403 . S
C48 H74 0.934 . S
C49 C44 1.413 . S
C49 C48 1.403 . S
C49 H75 0.930 . S
C50 O64 1.275 . S
C50 O65 1.256 . S
C51 O66 1.259 . S
C51 O67 1.268 . S
C52 Ho41 2.811 . S
C52 C53 1.488 . S
C52 O68 1.215 . S
C52 O69 1.289 . S
C53 C52 1.488 . S
C53 C54 1.348 . S
C53 C58 1.413 . S
C54 C53 1.348 . S
C54 C55 1.442 . S
C54 H76 0.930 . S
C55 C54 1.442 . S
C55 C56 1.381 . S
C55 H77 0.931 . S
C56 C55 1.381 . S
C56 C57 1.321 . S
C57 C56 1.321 . S
C57 C58 1.403 . S
C57 H78 0.934 . S
C58 C53 1.413 . S
C58 C57 1.403 . S
C58 H79 0.930 . S
C59 O70 1.275 . S
C59 O71 1.256 . S
O60 Ho40 2.322 . S
O60 C42 1.259 . S
O61 Ho41 2.346 . S
O61 C42 1.268 . S
O62 Ho40 2.378 . S
O62 C43 1.215 . S
O63 Ho40 2.524 . S
O63 C43 1.289 . S
O64 Ho40 2.381 . S
O64 C50 1.275 . S
O65 Ho40 2.669 . S
O65 Ho41 2.305 . S
O65 C50 1.256 . S
O66 Ho41 2.322 . S
O66 C51 1.259 . S
O67 Ho40 2.346 . S
O67 C51 1.268 . S
O68 Ho41 2.378 . S
O68 C52 1.215 . S
O69 Ho41 2.524 . S
O69 C52 1.289 . S
O70 Ho41 2.381 . S
O70 C59 1.275 . S
O71 Ho40 2.305 . S
O71 Ho41 2.669 . S
O71 C59 1.256 . S
H72 C45 0.930 . S
H73 C46 0.931 . S
H74 C48 0.934 . S
H75 C49 0.930 . S
H76 C54 0.930 . S
H77 C55 0.931 . S
H78 C57 0.934 . S
H79 C58 0.930 . S
Ho80 C83 2.811 . S
Ho80 O100 2.322 . S
Ho80 O102 2.378 . S
Ho80 O103 2.524 . S
Ho80 O104 2.381 . S
Ho80 O105 2.669 . S
Ho80 O107 2.346 . S
Ho80 O111 2.305 . S
Ho81 C92 2.811 . S
Ho81 O101 2.346 . S
Ho81 O105 2.305 . S
Ho81 O106 2.322 . S
Ho81 O108 2.378 . S
Ho81 O109 2.524 . S
Ho81 O110 2.381 . S
Ho81 O111 2.669 . S
C82 O100 1.259 . S
C82 O101 1.268 . S
C83 Ho80 2.811 . S
C83 C84 1.488 . S
C83 O102 1.215 . S
C83 O103 1.289 . S
C84 C83 1.488 . S
C84 C85 1.348 . S
C84 C89 1.413 . S
C85 C84 1.348 . S
C85 C86 1.442 . S
C85 H112 0.930 . S
C86 C85 1.442 . S
C86 C87 1.381 . S
C86 H113 0.931 . S
C87 C86 1.381 . S
C87 C88 1.321 . S
C88 C87 1.321 . S
C88 C89 1.403 . S
C88 H114 0.934 . S
C89 C84 1.413 . S
C89 C88 1.403 . S
C89 H115 0.930 . S
C90 O104 1.275 . S
C90 O105 1.256 . S
C91 O106 1.259 . S
C91 O107 1.268 . S
C92 Ho81 2.811 . S
C92 C93 1.488 . S
C92 O108 1.215 . S
C92 O109 1.289 . S
C93 C92 1.488 . S
C93 C94 1.348 . S
C93 C98 1.413 . S
C94 C93 1.348 . S
C94 C95 1.442 . S
C94 H116 0.930 . S
C95 C94 1.442 . S
C95 C96 1.381 . S
C95 H117 0.931 . S
C96 C95 1.381 . S
C96 C97 1.321 . S
C97 C96 1.321 . S
C97 C98 1.403 . S
C97 H118 0.934 . S
C98 C93 1.413 . S
C98 C97 1.403 . S
C98 H119 0.930 . S
C99 O110 1.275 . S
C99 O111 1.256 . S
O100 Ho80 2.322 . S
O100 C82 1.259 . S
O101 Ho81 2.346 . S
O101 C82 1.268 . S
O102 Ho80 2.378 . S
O102 C83 1.215 . S
O103 Ho80 2.524 . S
O103 C83 1.289 . S
O104 Ho80 2.381 . S
O104 C90 1.275 . S
O105 Ho80 2.669 . S
O105 Ho81 2.305 . S
O105 C90 1.256 . S
O106 Ho81 2.322 . S
O106 C91 1.259 . S
O107 Ho80 2.346 . S
O107 C91 1.268 . S
O108 Ho81 2.378 . S
O108 C92 1.215 . S
O109 Ho81 2.524 . S
O109 C92 1.289 . S
O110 Ho81 2.381 . S
O110 C99 1.275 . S
O111 Ho80 2.305 . S
O111 Ho81 2.669 . S
O111 C99 1.256 . S
H112 C85 0.930 . S
H113 C86 0.931 . S
H114 C88 0.934 . S
H115 C89 0.930 . S
H116 C94 0.930 . S
H117 C95 0.931 . S
H118 C97 0.934 . S
H119 C98 0.930 . S
Ho120 C123 2.811 . S
Ho120 O140 2.322 . S
Ho120 O142 2.378 . S
Ho120 O143 2.524 . S
Ho120 O144 2.381 . S
Ho120 O145 2.669 . S
Ho120 O147 2.346 . S
Ho120 O151 2.305 . S
Ho121 C132 2.811 . S
Ho121 O141 2.346 . S
Ho121 O145 2.305 . S
Ho121 O146 2.322 . S
Ho121 O148 2.378 . S
Ho121 O149 2.524 . S
Ho121 O150 2.381 . S
Ho121 O151 2.669 . S
C122 O140 1.259 . S
C122 O141 1.268 . S
C123 Ho120 2.811 . S
C123 C124 1.488 . S
C123 O142 1.215 . S
C123 O143 1.289 . S
C124 C123 1.488 . S
C124 C125 1.348 1_556 S
C124 C129 1.413 . S
C125 C124 1.348 1_554 S
C125 C126 1.442 . S
C125 H152 0.930 . S
C126 C125 1.442 . S
C126 C127 1.381 . S
C126 H153 0.931 . S
C127 C126 1.381 . S
C127 C128 1.321 . S
C128 C127 1.321 . S
C128 C129 1.403 1_554 S
C128 H154 0.934 . S
C129 C124 1.413 . S
C129 C128 1.403 1_556 S
C129 H155 0.930 . S
C130 O144 1.275 . S
C130 O145 1.256 . S
C131 O146 1.259 . S
C131 O147 1.268 . S
C132 Ho121 2.811 . S
C132 C133 1.488 . S
C132 O148 1.215 . S
C132 O149 1.289 . S
C133 C132 1.488 . S
C133 C134 1.348 . S
C133 C138 1.413 . S
C134 C133 1.348 . S
C134 C135 1.442 . S
C134 H156 0.930 . S
C135 C134 1.442 . S
C135 C136 1.381 . S
C135 H157 0.931 . S
C136 C135 1.381 . S
C136 C137 1.321 . S
C137 C136 1.321 . S
C137 C138 1.403 . S
C137 H158 0.934 . S
C138 C133 1.413 . S
C138 C137 1.403 . S
C138 H159 0.930 . S
C139 O150 1.275 . S
C139 O151 1.256 . S
O140 Ho120 2.322 . S
O140 C122 1.259 . S
O141 Ho121 2.346 . S
O141 C122 1.268 . S
O142 Ho120 2.378 . S
O142 C123 1.215 . S
O143 Ho120 2.524 . S
O143 C123 1.289 . S
O144 Ho120 2.381 . S
O144 C130 1.275 . S
O145 Ho120 2.669 . S
O145 Ho121 2.305 . S
O145 C130 1.256 . S
O146 Ho121 2.322 . S
O146 C131 1.259 . S
O147 Ho120 2.346 . S
O147 C131 1.268 . S
O148 Ho121 2.378 . S
O148 C132 1.215 . S
O149 Ho121 2.524 . S
O149 C132 1.289 . S
O150 Ho121 2.381 . S
O150 C139 1.275 . S
O151 Ho120 2.305 . S
O151 Ho121 2.669 . S
O151 C139 1.256 . S
H152 C125 0.930 . S
H153 C126 0.931 . S
H154 C128 0.934 . S
H155 C129 0.930 . S
H156 C134 0.930 . S
H157 C135 0.931 . S
H158 C137 0.934 . S
H159 C138 0.930 . S
Ho160 C163 2.811 . S
Ho160 O180 2.322 . S
Ho160 O182 2.378 . S
Ho160 O183 2.524 . S
Ho160 O184 2.381 . S
Ho160 O185 2.669 . S
Ho160 O187 2.346 . S
Ho160 O191 2.305 . S
Ho161 C172 2.811 . S
Ho161 O181 2.346 . S
Ho161 O185 2.305 1_655 S
Ho161 O186 2.322 1_655 S
Ho161 O188 2.378 . S
Ho161 O189 2.524 . S
Ho161 O190 2.381 . S
Ho161 O191 2.669 1_655 S
C162 O180 1.259 1_655 S
C162 O181 1.268 . S
C163 Ho160 2.811 . S
C163 C164 1.488 1_556 S
C163 O182 1.215 . S
C163 O183 1.289 . S
C164 C163 1.488 1_554 S
C164 C165 1.348 . S
C164 C169 1.413 . S
C165 C164 1.348 . S
C165 C166 1.442 . S
C165 H192 0.930 . S
C166 C165 1.442 . S
C166 C167 1.381 . S
C166 H193 0.931 . S
C167 C166 1.381 . S
C167 C168 1.321 . S
C168 C167 1.321 . S
C168 C169 1.403 . S
C168 H194 0.934 . S
C169 C164 1.413 . S
C169 C168 1.403 . S
C169 H195 0.930 . S
C170 O184 1.275 . S
C170 O185 1.256 . S
C171 O186 1.259 . S
C171 O187 1.268 . S
C172 Ho161 2.811 . S
C172 C173 1.488 . S
C172 O188 1.215 . S
C172 O189 1.289 . S
C173 C172 1.488 . S
C173 C174 1.348 . S
C173 C178 1.413 . S
C174 C173 1.348 . S
C174 C175 1.442 . S
C174 H196 0.930 . S
C175 C174 1.442 . S
C175 C176 1.381 . S
C175 H197 0.931 . S
C176 C175 1.381 . S
C176 C177 1.321 . S
C177 C176 1.321 . S
C177 C178 1.403 . S
C177 H198 0.934 . S
C178 C173 1.413 . S
C178 C177 1.403 . S
C178 H199 0.930 . S
C179 O190 1.275 1_455 S
C179 O191 1.256 . S
O180 Ho160 2.322 . S
O180 C162 1.259 1_455 S
O181 Ho161 2.346 . S
O181 C162 1.268 . S
O182 Ho160 2.378 . S
O182 C163 1.215 . S
O183 Ho160 2.524 . S
O183 C163 1.289 . S
O184 Ho160 2.381 . S
O184 C170 1.275 . S
O185 Ho160 2.669 . S
O185 Ho161 2.305 1_455 S
O185 C170 1.256 . S
O186 Ho161 2.322 1_455 S
O186 C171 1.259 . S
O187 Ho160 2.346 . S
O187 C171 1.268 . S
O188 Ho161 2.378 . S
O188 C172 1.215 . S
O189 Ho161 2.524 . S
O189 C172 1.289 . S
O190 Ho161 2.381 . S
O190 C179 1.275 1_655 S
O191 Ho160 2.305 . S
O191 Ho161 2.669 1_455 S
O191 C179 1.256 . S
H192 C165 0.930 . S
H193 C166 0.931 . S
H194 C168 0.934 . S
H195 C169 0.930 . S
H196 C174 0.930 . S
H197 C175 0.931 . S
H198 C177 0.934 . S
H199 C178 0.930 . S
Ho200 C203 2.811 . S
Ho200 O220 2.322 . S
Ho200 O222 2.378 . S
Ho200 O223 2.524 . S
Ho200 O224 2.381 . S
Ho200 O225 2.669 . S
Ho200 O227 2.346 . S
Ho200 O231 2.305 . S
Ho201 C212 2.811 . S
Ho201 O221 2.346 . S
Ho201 O225 2.305 . S
Ho201 O226 2.322 . S
Ho201 O228 2.378 . S
Ho201 O229 2.524 . S
Ho201 O230 2.381 . S
Ho201 O231 2.669 . S
C202 O220 1.259 . S
C202 O221 1.268 . S
C203 Ho200 2.811 . S
C203 C204 1.488 . S
C203 O222 1.215 . S
C203 O223 1.289 . S
C204 C203 1.488 . S
C204 C205 1.348 . S
C204 C209 1.413 . S
C205 C204 1.348 . S
C205 C206 1.442 . S
C205 H232 0.930 . S
C206 C205 1.442 . S
C206 C207 1.381 . S
C206 H233 0.931 . S
C207 C206 1.381 . S
C207 C208 1.321 . S
C208 C207 1.321 . S
C208 C209 1.403 . S
C208 H234 0.934 . S
C209 C204 1.413 . S
C209 C208 1.403 . S
C209 H235 0.930 . S
C210 O224 1.275 . S
C210 O225 1.256 . S
C211 O226 1.259 . S
C211 O227 1.268 . S
C212 Ho201 2.811 . S
C212 C213 1.488 . S
C212 O228 1.215 . S
C212 O229 1.289 . S
C213 C212 1.488 . S
C213 C214 1.348 . S
C213 C218 1.413 . S
C214 C213 1.348 . S
C214 C215 1.442 1_554 S
C214 H236 0.930 . S
C215 C214 1.442 1_556 S
C215 C216 1.381 . S
C215 H237 0.931 . S
C216 C215 1.381 . S
C216 C217 1.321 . S
C217 C216 1.321 . S
C217 C218 1.403 1_556 S
C217 H238 0.934 . S
C218 C213 1.413 . S
C218 C217 1.403 1_554 S
C218 H239 0.930 . S
C219 O230 1.275 . S
C219 O231 1.256 . S
O220 Ho200 2.322 . S
O220 C202 1.259 . S
O221 Ho201 2.346 . S
O221 C202 1.268 . S
O222 Ho200 2.378 . S
O222 C203 1.215 . S
O223 Ho200 2.524 . S
O223 C203 1.289 . S
O224 Ho200 2.381 . S
O224 C210 1.275 . S
O225 Ho200 2.669 . S
O225 Ho201 2.305 . S
O225 C210 1.256 . S
O226 Ho201 2.322 . S
O226 C211 1.259 . S
O227 Ho200 2.346 . S
O227 C211 1.268 . S
O228 Ho201 2.378 . S
O228 C212 1.215 . S
O229 Ho201 2.524 . S
O229 C212 1.289 . S
O230 Ho201 2.381 . S
O230 C219 1.275 . S
O231 Ho200 2.305 . S
O231 Ho201 2.669 . S
O231 C219 1.256 . S
H232 C205 0.930 . S
H233 C206 0.931 . S
H234 C208 0.934 . S
H235 C209 0.930 . S
H236 C214 0.930 . S
H237 C215 0.931 . S
H238 C217 0.934 . S
H239 C218 0.930 . S
Ho240 C243 2.811 . S
Ho240 O260 2.322 . S
Ho240 O262 2.378 . S
Ho240 O263 2.524 . S
Ho240 O264 2.381 . S
Ho240 O265 2.669 . S
Ho240 O267 2.346 . S
Ho240 O271 2.305 . S
Ho241 C252 2.811 . S
Ho241 O261 2.346 . S
Ho241 O265 2.305 . S
Ho241 O266 2.322 . S
Ho241 O268 2.378 . S
Ho241 O269 2.524 . S
Ho241 O270 2.381 . S
Ho241 O271 2.669 . S
C242 O260 1.259 . S
C242 O261 1.268 . S
C243 Ho240 2.811 . S
C243 C244 1.488 . S
C243 O262 1.215 . S
C243 O263 1.289 . S
C244 C243 1.488 . S
C244 C245 1.348 . S
C244 C249 1.413 . S
C245 C244 1.348 . S
C245 C246 1.442 . S
C245 H272 0.930 . S
C246 C245 1.442 . S
C246 C247 1.381 . S
C246 H273 0.931 . S
C247 C246 1.381 . S
C247 C248 1.321 . S
C248 C247 1.321 . S
C248 C249 1.403 . S
C248 H274 0.934 . S
C249 C244 1.413 . S
C249 C248 1.403 . S
C249 H275 0.930 . S
C250 O264 1.275 . S
C250 O265 1.256 . S
C251 O266 1.259 . S
C251 O267 1.268 . S
C252 Ho241 2.811 . S
C252 C253 1.488 . S
C252 O268 1.215 . S
C252 O269 1.289 . S
C253 C252 1.488 . S
C253 C254 1.348 . S
C253 C258 1.413 . S
C254 C253 1.348 . S
C254 C255 1.442 . S
C254 H276 0.930 . S
C255 C254 1.442 . S
C255 C256 1.381 . S
C255 H277 0.931 . S
C256 C255 1.381 . S
C256 C257 1.321 . S
C257 C256 1.321 . S
C257 C258 1.403 . S
C257 H278 0.934 . S
C258 C253 1.413 . S
C258 C257 1.403 . S
C258 H279 0.930 . S
C259 O270 1.275 . S
C259 O271 1.256 . S
O260 Ho240 2.322 . S
O260 C242 1.259 . S
O261 Ho241 2.346 . S
O261 C242 1.268 . S
O262 Ho240 2.378 . S
O262 C243 1.215 . S
O263 Ho240 2.524 . S
O263 C243 1.289 . S
O264 Ho240 2.381 . S
O264 C250 1.275 . S
O265 Ho240 2.669 . S
O265 Ho241 2.305 . S
O265 C250 1.256 . S
O266 Ho241 2.322 . S
O266 C251 1.259 . S
O267 Ho240 2.346 . S
O267 C251 1.268 . S
O268 Ho241 2.378 . S
O268 C252 1.215 . S
O269 Ho241 2.524 . S
O269 C252 1.289 . S
O270 Ho241 2.381 . S
O270 C259 1.275 . S
O271 Ho240 2.305 . S
O271 Ho241 2.669 . S
O271 C259 1.256 . S
H272 C245 0.930 . S
H273 C246 0.931 . S
H274 C248 0.934 . S
H275 C249 0.930 . S
H276 C254 0.930 . S
H277 C255 0.931 . S
H278 C257 0.934 . S
H279 C258 0.930 . S
Ho280 C283 2.811 . S
Ho280 O300 2.322 . S
Ho280 O302 2.378 . S
Ho280 O303 2.524 . S
Ho280 O304 2.381 . S
Ho280 O305 2.669 . S
Ho280 O307 2.346 . S
Ho280 O311 2.305 . S
Ho281 C292 2.811 . S
Ho281 O301 2.346 . S
Ho281 O305 2.305 . S
Ho281 O306 2.322 . S
Ho281 O308 2.378 . S
Ho281 O309 2.524 . S
Ho281 O310 2.381 . S
Ho281 O311 2.669 . S
C282 O300 1.259 . S
C282 O301 1.268 . S
C283 Ho280 2.811 . S
C283 C284 1.488 . S
C283 O302 1.215 . S
C283 O303 1.289 . S
C284 C283 1.488 . S
C284 C285 1.348 . S
C284 C289 1.413 . S
C285 C284 1.348 . S
C285 C286 1.442 . S
C285 H312 0.930 . S
C286 C285 1.442 . S
C286 C287 1.381 . S
C286 H313 0.931 . S
C287 C286 1.381 . S
C287 C288 1.321 . S
C288 C287 1.321 . S
C288 C289 1.403 . S
C288 H314 0.934 . S
C289 C284 1.413 . S
C289 C288 1.403 . S
C289 H315 0.930 . S
C290 O304 1.275 . S
C290 O305 1.256 . S
C291 O306 1.259 . S
C291 O307 1.268 . S
C292 Ho281 2.811 . S
C292 C293 1.488 . S
C292 O308 1.215 . S
C292 O309 1.289 . S
C293 C292 1.488 . S
C293 C294 1.348 . S
C293 C298 1.413 . S
C294 C293 1.348 . S
C294 C295 1.442 . S
C294 H316 0.930 . S
C295 C294 1.442 . S
C295 C296 1.381 . S
C295 H317 0.931 . S
C296 C295 1.381 . S
C296 C297 1.321 . S
C297 C296 1.321 . S
C297 C298 1.403 . S
C297 H318 0.934 . S
C298 C293 1.413 . S
C298 C297 1.403 . S
C298 H319 0.930 . S
C299 O310 1.275 . S
C299 O311 1.256 . S
O300 Ho280 2.322 . S
O300 C282 1.259 . S
O301 Ho281 2.346 . S
O301 C282 1.268 . S
O302 Ho280 2.378 . S
O302 C283 1.215 . S
O303 Ho280 2.524 . S
O303 C283 1.289 . S
O304 Ho280 2.381 . S
O304 C290 1.275 . S
O305 Ho280 2.669 . S
O305 Ho281 2.305 . S
O305 C290 1.256 . S
O306 Ho281 2.322 . S
O306 C291 1.259 . S
O307 Ho280 2.346 . S
O307 C291 1.268 . S
O308 Ho281 2.378 . S
O308 C292 1.215 . S
O309 Ho281 2.524 . S
O309 C292 1.289 . S
O310 Ho281 2.381 . S
O310 C299 1.275 . S
O311 Ho280 2.305 . S
O311 Ho281 2.669 . S
O311 C299 1.256 . S
H312 C285 0.930 . S
H313 C286 0.931 . S
H314 C288 0.934 . S
H315 C289 0.930 . S
H316 C294 0.930 . S
H317 C295 0.931 . S
H318 C297 0.934 . S
H319 C298 0.930 . S
Ho320 C323 2.811 . S
Ho320 O340 2.322 . S
Ho320 O342 2.378 . S
Ho320 O343 2.524 . S
Ho320 O344 2.381 . S
Ho320 O345 2.669 . S
Ho320 O347 2.346 . S
Ho320 O351 2.305 . S
Ho321 C332 2.811 . S
Ho321 O341 2.346 . S
Ho321 O345 2.305 . S
Ho321 O346 2.322 . S
Ho321 O348 2.378 . S
Ho321 O349 2.524 . S
Ho321 O350 2.381 . S
Ho321 O351 2.669 . S
C322 O340 1.259 . S
C322 O341 1.268 . S
C323 Ho320 2.811 . S
C323 C324 1.488 . S
C323 O342 1.215 . S
C323 O343 1.289 . S
C324 C323 1.488 . S
C324 C325 1.348 . S
C324 C329 1.413 . S
C325 C324 1.348 . S
C325 C326 1.442 . S
C325 H352 0.930 . S
C326 C325 1.442 . S
C326 C327 1.381 . S
C326 H353 0.931 . S
C327 C326 1.381 . S
C327 C328 1.321 . S
C328 C327 1.321 . S
C328 C329 1.403 . S
C328 H354 0.934 . S
C329 C324 1.413 . S
C329 C328 1.403 . S
C329 H355 0.930 . S
C330 O344 1.275 . S
C330 O345 1.256 . S
C331 O346 1.259 . S
C331 O347 1.268 . S
C332 Ho321 2.811 . S
C332 C333 1.488 . S
C332 O348 1.215 . S
C332 O349 1.289 . S
C333 C332 1.488 . S
C333 C334 1.348 . S
C333 C338 1.413 . S
C334 C333 1.348 . S
C334 C335 1.442 . S
C334 H356 0.930 . S
C335 C334 1.442 . S
C335 C336 1.381 . S
C335 H357 0.931 . S
C336 C335 1.381 . S
C336 C337 1.321 . S
C337 C336 1.321 . S
C337 C338 1.403 . S
C337 H358 0.934 . S
C338 C333 1.413 . S
C338 C337 1.403 . S
C338 H359 0.930 . S
C339 O350 1.275 . S
C339 O351 1.256 . S
O340 Ho320 2.322 . S
O340 C322 1.259 . S
O341 Ho321 2.346 . S
O341 C322 1.268 . S
O342 Ho320 2.378 . S
O342 C323 1.215 . S
O343 Ho320 2.524 . S
O343 C323 1.289 . S
O344 Ho320 2.381 . S
O344 C330 1.275 . S
O345 Ho320 2.669 . S
O345 Ho321 2.305 . S
O345 C330 1.256 . S
O346 Ho321 2.322 . S
O346 C331 1.259 . S
O347 Ho320 2.346 . S
O347 C331 1.268 . S
O348 Ho321 2.378 . S
O348 C332 1.215 . S
O349 Ho321 2.524 . S
O349 C332 1.289 . S
O350 Ho321 2.381 . S
O350 C339 1.275 . S
O351 Ho320 2.305 . S
O351 Ho321 2.669 . S
O351 C339 1.256 . S
H352 C325 0.930 . S
H353 C326 0.931 . S
H354 C328 0.934 . S
H355 C329 0.930 . S
H356 C334 0.930 . S
H357 C335 0.931 . S
H358 C337 0.934 . S
H359 C338 0.930 . S
Ho360 C363 2.811 . S
Ho360 O380 2.322 . S
Ho360 O382 2.378 . S
Ho360 O383 2.524 . S
Ho360 O384 2.381 . S
Ho360 O385 2.669 . S
Ho360 O387 2.346 . S
Ho360 O391 2.305 . S
Ho361 C372 2.811 1_554 S
Ho361 O381 2.346 . S
Ho361 O385 2.305 . S
Ho361 O386 2.322 . S
Ho361 O388 2.378 . S
Ho361 O389 2.524 . S
Ho361 O390 2.381 . S
Ho361 O391 2.669 . S
C362 O380 1.259 . S
C362 O381 1.268 . S
C363 Ho360 2.811 . S
C363 C364 1.488 . S
C363 O382 1.215 . S
C363 O383 1.289 . S
C364 C363 1.488 . S
C364 C365 1.348 . S
C364 C369 1.413 . S
C365 C364 1.348 . S
C365 C366 1.442 . S
C365 H392 0.930 . S
C366 C365 1.442 . S
C366 C367 1.381 . S
C366 H393 0.931 . S
C367 C366 1.381 . S
C367 C368 1.321 . S
C368 C367 1.321 . S
C368 C369 1.403 . S
C368 H394 0.934 . S
C369 C364 1.413 . S
C369 C368 1.403 . S
C369 H395 0.930 . S
C370 O384 1.275 . S
C370 O385 1.256 . S
C371 O386 1.259 . S
C371 O387 1.268 . S
C372 Ho361 2.811 1_556 S
C372 C373 1.488 . S
C372 O388 1.215 1_556 S
C372 O389 1.289 1_556 S
C373 C372 1.488 . S
C373 C374 1.348 . S
C373 C378 1.413 . S
C374 C373 1.348 . S
C374 C375 1.442 . S
C374 H396 0.930 . S
C375 C374 1.442 . S
C375 C376 1.381 . S
C375 H397 0.931 . S
C376 C375 1.381 . S
C376 C377 1.321 . S
C377 C376 1.321 . S
C377 C378 1.403 . S
C377 H398 0.934 . S
C378 C373 1.413 . S
C378 C377 1.403 . S
C378 H399 0.930 . S
C379 O390 1.275 . S
C379 O391 1.256 . S
O380 Ho360 2.322 . S
O380 C362 1.259 . S
O381 Ho361 2.346 . S
O381 C362 1.268 . S
O382 Ho360 2.378 . S
O382 C363 1.215 . S
O383 Ho360 2.524 . S
O383 C363 1.289 . S
O384 Ho360 2.381 . S
O384 C370 1.275 . S
O385 Ho360 2.669 . S
O385 Ho361 2.305 . S
O385 C370 1.256 . S
O386 Ho361 2.322 . S
O386 C371 1.259 . S
O387 Ho360 2.346 . S
O387 C371 1.268 . S
O388 Ho361 2.378 . S
O388 C372 1.215 1_554 S
O389 Ho361 2.524 . S
O389 C372 1.289 1_554 S
O390 Ho361 2.381 . S
O390 C379 1.275 . S
O391 Ho360 2.305 . S
O391 Ho361 2.669 . S
O391 C379 1.256 . S
H392 C365 0.930 . S
H393 C366 0.931 . S
H394 C368 0.934 . S
H395 C369 0.930 . S
H396 C374 0.930 . S
H397 C375 0.931 . S
H398 C377 0.934 . S
H399 C378 0.930 . S
Ho400 C403 2.811 . S
Ho400 O420 2.322 . S
Ho400 O422 2.378 . S
Ho400 O423 2.524 . S
Ho400 O424 2.381 . S
Ho400 O425 2.669 . S
Ho400 O427 2.346 . S
Ho400 O431 2.305 . S
Ho401 C412 2.811 . S
Ho401 O421 2.346 . S
Ho401 O425 2.305 . S
Ho401 O426 2.322 . S
Ho401 O428 2.378 . S
Ho401 O429 2.524 . S
Ho401 O430 2.381 . S
Ho401 O431 2.669 . S
C402 O420 1.259 . S
C402 O421 1.268 . S
C403 Ho400 2.811 . S
C403 C404 1.488 1_556 S
C403 O422 1.215 . S
C403 O423 1.289 . S
C404 C403 1.488 1_554 S
C404 C405 1.348 . S
C404 C409 1.413 . S
C405 C404 1.348 . S
C405 C406 1.442 . S
C405 H432 0.930 . S
C406 C405 1.442 . S
C406 C407 1.381 . S
C406 H433 0.931 . S
C407 C406 1.381 . S
C407 C408 1.321 . S
C408 C407 1.321 . S
C408 C409 1.403 . S
C408 H434 0.934 . S
C409 C404 1.413 . S
C409 C408 1.403 . S
C409 H435 0.930 . S
C410 O424 1.275 . S
C410 O425 1.256 . S
C411 O426 1.259 . S
C411 O427 1.268 . S
C412 Ho401 2.811 . S
C412 C413 1.488 . S
C412 O428 1.215 . S
C412 O429 1.289 . S
C413 C412 1.488 . S
C413 C414 1.348 . S
C413 C418 1.413 . S
C414 C413 1.348 . S
C414 C415 1.442 . S
C414 H436 0.930 . S
C415 C414 1.442 . S
C415 C416 1.381 . S
C415 H437 0.931 . S
C416 C415 1.381 . S
C416 C417 1.321 . S
C417 C416 1.321 . S
C417 C418 1.403 . S
C417 H438 0.934 . S
C418 C413 1.413 . S
C418 C417 1.403 . S
C418 H439 0.930 . S
C419 O430 1.275 . S
C419 O431 1.256 . S
O420 Ho400 2.322 . S
O420 C402 1.259 . S
O421 Ho401 2.346 . S
O421 C402 1.268 . S
O422 Ho400 2.378 . S
O422 C403 1.215 . S
O423 Ho400 2.524 . S
O423 C403 1.289 . S
O424 Ho400 2.381 . S
O424 C410 1.275 . S
O425 Ho400 2.669 . S
O425 Ho401 2.305 . S
O425 C410 1.256 . S
O426 Ho401 2.322 . S
O426 C411 1.259 . S
O427 Ho400 2.346 . S
O427 C411 1.268 . S
O428 Ho401 2.378 . S
O428 C412 1.215 . S
O429 Ho401 2.524 . S
O429 C412 1.289 . S
O430 Ho401 2.381 . S
O430 C419 1.275 . S
O431 Ho400 2.305 . S
O431 Ho401 2.669 . S
O431 C419 1.256 . S
H432 C405 0.930 . S
H433 C406 0.931 . S
H434 C408 0.934 . S
H435 C409 0.930 . S
H436 C414 0.930 . S
H437 C415 0.931 . S
H438 C417 0.934 . S
H439 C418 0.930 . S
Ho440 C443 2.811 . S
Ho440 O460 2.322 . S
Ho440 O462 2.378 . S
Ho440 O463 2.524 . S
Ho440 O464 2.381 . S
Ho440 O465 2.669 . S
Ho440 O467 2.346 . S
Ho440 O471 2.305 . S
Ho441 C452 2.811 . S
Ho441 O461 2.346 . S
Ho441 O465 2.305 . S
Ho441 O466 2.322 . S
Ho441 O468 2.378 . S
Ho441 O469 2.524 . S
Ho441 O470 2.381 . S
Ho441 O471 2.669 . S
C442 O460 1.259 . S
C442 O461 1.268 . S
C443 Ho440 2.811 . S
C443 C444 1.488 . S
C443 O462 1.215 . S
C443 O463 1.289 . S
C444 C443 1.488 . S
C444 C445 1.348 . S
C444 C449 1.413 . S
C445 C444 1.348 . S
C445 C446 1.442 . S
C445 H472 0.930 . S
C446 C445 1.442 . S
C446 C447 1.381 . S
C446 H473 0.931 . S
C447 C446 1.381 . S
C447 C448 1.321 . S
C448 C447 1.321 . S
C448 C449 1.403 . S
C448 H474 0.934 . S
C449 C444 1.413 . S
C449 C448 1.403 . S
C449 H475 0.930 . S
C450 O464 1.275 . S
C450 O465 1.256 . S
C451 O466 1.259 . S
C451 O467 1.268 . S
C452 Ho441 2.811 . S
C452 C453 1.488 . S
C452 O468 1.215 . S
C452 O469 1.289 . S
C453 C452 1.488 . S
C453 C454 1.348 . S
C453 C458 1.413 . S
C454 C453 1.348 . S
C454 C455 1.442 . S
C454 H476 0.930 . S
C455 C454 1.442 . S
C455 C456 1.381 . S
C455 H477 0.931 . S
C456 C455 1.381 . S
C456 C457 1.321 . S
C457 C456 1.321 . S
C457 C458 1.403 . S
C457 H478 0.934 . S
C458 C453 1.413 . S
C458 C457 1.403 . S
C458 H479 0.930 . S
C459 O470 1.275 . S
C459 O471 1.256 . S
O460 Ho440 2.322 . S
O460 C442 1.259 . S
O461 Ho441 2.346 . S
O461 C442 1.268 . S
O462 Ho440 2.378 . S
O462 C443 1.215 . S
O463 Ho440 2.524 . S
O463 C443 1.289 . S
O464 Ho440 2.381 . S
O464 C450 1.275 . S
O465 Ho440 2.669 . S
O465 Ho441 2.305 . S
O465 C450 1.256 . S
O466 Ho441 2.322 . S
O466 C451 1.259 . S
O467 Ho440 2.346 . S
O467 C451 1.268 . S
O468 Ho441 2.378 . S
O468 C452 1.215 . S
O469 Ho441 2.524 . S
O469 C452 1.289 . S
O470 Ho441 2.381 . S
O470 C459 1.275 . S
O471 Ho440 2.305 . S
O471 Ho441 2.669 . S
O471 C459 1.256 . S
H472 C445 0.930 . S
H473 C446 0.931 . S
H474 C448 0.934 . S
H475 C449 0.930 . S
H476 C454 0.930 . S
H477 C455 0.931 . S
H478 C457 0.934 . S
H479 C458 0.930 . S
Ho480 C483 2.811 . S
Ho480 O500 2.322 . S
Ho480 O502 2.378 . S
Ho480 O503 2.524 . S
Ho480 O504 2.381 . S
Ho480 O505 2.669 . S
Ho480 O507 2.346 . S
Ho480 O511 2.305 . S
Ho481 C492 2.811 . S
Ho481 O501 2.346 . S
Ho481 O505 2.305 . S
Ho481 O506 2.322 . S
Ho481 O508 2.378 . S
Ho481 O509 2.524 . S
Ho481 O510 2.381 . S
Ho481 O511 2.669 . S
C482 O500 1.259 . S
C482 O501 1.268 . S
C483 Ho480 2.811 . S
C483 C484 1.488 . S
C483 O502 1.215 . S
C483 O503 1.289 . S
C484 C483 1.488 . S
C484 C485 1.348 . S
C484 C489 1.413 . S
C485 C484 1.348 . S
C485 C486 1.442 . S
C485 H512 0.930 . S
C486 C485 1.442 . S
C486 C487 1.381 . S
C486 H513 0.931 . S
C487 C486 1.381 . S
C487 C488 1.321 . S
C488 C487 1.321 . S
C488 C489 1.403 . S
C488 H514 0.934 . S
C489 C484 1.413 . S
C489 C488 1.403 . S
C489 H515 0.930 . S
C490 O504 1.275 . S
C490 O505 1.256 . S
C491 O506 1.259 . S
C491 O507 1.268 . S
C492 Ho481 2.811 . S
C492 C493 1.488 . S
C492 O508 1.215 . S
C492 O509 1.289 . S
C493 C492 1.488 . S
C493 C494 1.348 . S
C493 C498 1.413 . S
C494 C493 1.348 . S
C494 C495 1.442 . S
C494 H516 0.930 . S
C495 C494 1.442 . S
C495 C496 1.381 . S
C495 H517 0.931 . S
C496 C495 1.381 . S
C496 C497 1.321 . S
C497 C496 1.321 . S
C497 C498 1.403 . S
C497 H518 0.934 . S
C498 C493 1.413 . S
C498 C497 1.403 . S
C498 H519 0.930 . S
C499 O510 1.275 . S
C499 O511 1.256 . S
O500 Ho480 2.322 . S
O500 C482 1.259 . S
O501 Ho481 2.346 . S
O501 C482 1.268 . S
O502 Ho480 2.378 . S
O502 C483 1.215 . S
O503 Ho480 2.524 . S
O503 C483 1.289 . S
O504 Ho480 2.381 . S
O504 C490 1.275 . S
O505 Ho480 2.669 . S
O505 Ho481 2.305 . S
O505 C490 1.256 . S
O506 Ho481 2.322 . S
O506 C491 1.259 . S
O507 Ho480 2.346 . S
O507 C491 1.268 . S
O508 Ho481 2.378 . S
O508 C492 1.215 . S
O509 Ho481 2.524 . S
O509 C492 1.289 . S
O510 Ho481 2.381 . S
O510 C499 1.275 . S
O511 Ho480 2.305 . S
O511 Ho481 2.669 . S
O511 C499 1.256 . S
H512 C485 0.930 . S
H513 C486 0.931 . S
H514 C488 0.934 . S
H515 C489 0.930 . S
H516 C494 0.930 . S
H517 C495 0.931 . S
H518 C497 0.934 . S
H519 C498 0.930 . S
Ho520 C523 2.811 . S
Ho520 O540 2.322 1_655 S
Ho520 O542 2.378 . S
Ho520 O543 2.524 . S
Ho520 O544 2.381 . S
Ho520 O545 2.669 1_655 S
Ho520 O547 2.346 . S
Ho520 O551 2.305 1_655 S
Ho521 C532 2.811 . S
Ho521 O541 2.346 . S
Ho521 O545 2.305 . S
Ho521 O546 2.322 . S
Ho521 O548 2.378 . S
Ho521 O549 2.524 . S
Ho521 O550 2.381 . S
Ho521 O551 2.669 . S
C522 O540 1.259 . S
C522 O541 1.268 . S
C523 Ho520 2.811 . S
C523 C524 1.488 . S
C523 O542 1.215 . S
C523 O543 1.289 . S
C524 C523 1.488 . S
C524 C525 1.348 . S
C524 C529 1.413 . S
C525 C524 1.348 . S
C525 C526 1.442 . S
C525 H552 0.930 . S
C526 C525 1.442 . S
C526 C527 1.381 . S
C526 H553 0.931 . S
C527 C526 1.381 . S
C527 C528 1.321 . S
C528 C527 1.321 . S
C528 C529 1.403 . S
C528 H554 0.934 . S
C529 C524 1.413 . S
C529 C528 1.403 . S
C529 H555 0.930 . S
C530 O544 1.275 1_455 S
C530 O545 1.256 . S
C531 O546 1.259 1_655 S
C531 O547 1.268 . S
C532 Ho521 2.811 . S
C532 C533 1.488 1_554 S
C532 O548 1.215 . S
C532 O549 1.289 . S
C533 C532 1.488 1_556 S
C533 C534 1.348 . S
C533 C538 1.413 . S
C534 C533 1.348 . S
C534 C535 1.442 . S
C534 H556 0.930 . S
C535 C534 1.442 . S
C535 C536 1.381 . S
C535 H557 0.931 . S
C536 C535 1.381 . S
C536 C537 1.321 . S
C537 C536 1.321 . S
C537 C538 1.403 . S
C537 H558 0.934 . S
C538 C533 1.413 . S
C538 C537 1.403 . S
C538 H559 0.930 . S
C539 O550 1.275 . S
C539 O551 1.256 . S
O540 Ho520 2.322 1_455 S
O540 C522 1.259 . S
O541 Ho521 2.346 . S
O541 C522 1.268 . S
O542 Ho520 2.378 . S
O542 C523 1.215 . S
O543 Ho520 2.524 . S
O543 C523 1.289 . S
O544 Ho520 2.381 . S
O544 C530 1.275 1_655 S
O545 Ho520 2.669 1_455 S
O545 Ho521 2.305 . S
O545 C530 1.256 . S
O546 Ho521 2.322 . S
O546 C531 1.259 1_455 S
O547 Ho520 2.346 . S
O547 C531 1.268 . S
O548 Ho521 2.378 . S
O548 C532 1.215 . S
O549 Ho521 2.524 . S
O549 C532 1.289 . S
O550 Ho521 2.381 . S
O550 C539 1.275 . S
O551 Ho520 2.305 1_455 S
O551 Ho521 2.669 . S
O551 C539 1.256 . S
H552 C525 0.930 . S
H553 C526 0.931 . S
H554 C528 0.934 . S
H555 C529 0.930 . S
H556 C534 0.930 . S
H557 C535 0.931 . S
H558 C537 0.934 . S
H559 C538 0.930 . S
Ho560 C563 2.811 . S
Ho560 O580 2.322 . S
Ho560 O582 2.378 . S
Ho560 O583 2.524 . S
Ho560 O584 2.381 . S
Ho560 O585 2.669 . S
Ho560 O587 2.346 . S
Ho560 O591 2.305 . S
Ho561 C572 2.811 . S
Ho561 O581 2.346 . S
Ho561 O585 2.305 . S
Ho561 O586 2.322 . S
Ho561 O588 2.378 . S
Ho561 O589 2.524 . S
Ho561 O590 2.381 . S
Ho561 O591 2.669 . S
C562 O580 1.259 . S
C562 O581 1.268 . S
C563 Ho560 2.811 . S
C563 C564 1.488 . S
C563 O582 1.215 . S
C563 O583 1.289 . S
C564 C563 1.488 . S
C564 C565 1.348 . S
C564 C569 1.413 . S
C565 C564 1.348 . S
C565 C566 1.442 . S
C565 H592 0.930 . S
C566 C565 1.442 . S
C566 C567 1.381 . S
C566 H593 0.931 . S
C567 C566 1.381 . S
C567 C568 1.321 . S
C568 C567 1.321 . S
C568 C569 1.403 . S
C568 H594 0.934 . S
C569 C564 1.413 . S
C569 C568 1.403 . S
C569 H595 0.930 . S
C570 O584 1.275 . S
C570 O585 1.256 . S
C571 O586 1.259 . S
C571 O587 1.268 . S
C572 Ho561 2.811 . S
C572 C573 1.488 . S
C572 O588 1.215 . S
C572 O589 1.289 . S
C573 C572 1.488 . S
C573 C574 1.348 . S
C573 C578 1.413 . S
C574 C573 1.348 . S
C574 C575 1.442 . S
C574 H596 0.930 . S
C575 C574 1.442 . S
C575 C576 1.381 . S
C575 H597 0.931 . S
C576 C575 1.381 . S
C576 C577 1.321 . S
C577 C576 1.321 . S
C577 C578 1.403 . S
C577 H598 0.934 . S
C578 C573 1.413 . S
C578 C577 1.403 . S
C578 H599 0.930 . S
C579 O590 1.275 . S
C579 O591 1.256 . S
O580 Ho560 2.322 . S
O580 C562 1.259 . S
O581 Ho561 2.346 . S
O581 C562 1.268 . S
O582 Ho560 2.378 . S
O582 C563 1.215 . S
O583 Ho560 2.524 . S
O583 C563 1.289 . S
O584 Ho560 2.381 . S
O584 C570 1.275 . S
O585 Ho560 2.669 . S
O585 Ho561 2.305 . S
O585 C570 1.256 . S
O586 Ho561 2.322 . S
O586 C571 1.259 . S
O587 Ho560 2.346 . S
O587 C571 1.268 . S
O588 Ho561 2.378 . S
O588 C572 1.215 . S
O589 Ho561 2.524 . S
O589 C572 1.289 . S
O590 Ho561 2.381 . S
O590 C579 1.275 . S
O591 Ho560 2.305 . S
O591 Ho561 2.669 . S
O591 C579 1.256 . S
H592 C565 0.930 . S
H593 C566 0.931 . S
H594 C568 0.934 . S
H595 C569 0.930 . S
H596 C574 0.930 . S
H597 C575 0.931 . S
H598 C577 0.934 . S
H599 C578 0.930 . S
Ho600 C603 2.811 . S
Ho600 O620 2.322 1_655 S
Ho600 O622 2.378 . S
Ho600 O623 2.524 . S
Ho600 O624 2.381 . S
Ho600 O625 2.669 1_655 S
Ho600 O627 2.346 . S
Ho600 O631 2.305 1_655 S
Ho601 C612 2.811 . S
Ho601 O621 2.346 . S
Ho601 O625 2.305 . S
Ho601 O626 2.322 . S
Ho601 O628 2.378 . S
Ho601 O629 2.524 . S
Ho601 O630 2.381 . S
Ho601 O631 2.669 . S
C602 O620 1.259 . S
C602 O621 1.268 . S
C603 Ho600 2.811 . S
C603 C604 1.488 1_556 S
C603 O622 1.215 . S
C603 O623 1.289 . S
C604 C603 1.488 1_554 S
C604 C605 1.348 . S
C604 C609 1.413 . S
C605 C604 1.348 . S
C605 C606 1.442 . S
C605 H632 0.930 . S
C606 C605 1.442 . S
C606 C607 1.381 . S
C606 H633 0.931 . S
C607 C606 1.381 . S
C607 C608 1.321 . S
C608 C607 1.321 . S
C608 C609 1.403 . S
C608 H634 0.934 . S
C609 C604 1.413 . S
C609 C608 1.403 . S
C609 H635 0.930 . S
C610 O624 1.275 1_455 S
C610 O625 1.256 . S
C611 O626 1.259 1_655 S
C611 O627 1.268 . S
C612 Ho601 2.811 . S
C612 C613 1.488 . S
C612 O628 1.215 . S
C612 O629 1.289 . S
C613 C612 1.488 . S
C613 C614 1.348 . S
C613 C618 1.413 . S
C614 C613 1.348 . S
C614 C615 1.442 . S
C614 H636 0.930 . S
C615 C614 1.442 . S
C615 C616 1.381 . S
C615 H637 0.931 . S
C616 C615 1.381 . S
C616 C617 1.321 . S
C617 C616 1.321 . S
C617 C618 1.403 . S
C617 H638 0.934 . S
C618 C613 1.413 . S
C618 C617 1.403 . S
C618 H639 0.930 . S
C619 O630 1.275 . S
C619 O631 1.256 . S
O620 Ho600 2.322 1_455 S
O620 C602 1.259 . S
O621 Ho601 2.346 . S
O621 C602 1.268 . S
O622 Ho600 2.378 . S
O622 C603 1.215 . S
O623 Ho600 2.524 . S
O623 C603 1.289 . S
O624 Ho600 2.381 . S
O624 C610 1.275 1_655 S
O625 Ho600 2.669 1_455 S
O625 Ho601 2.305 . S
O625 C610 1.256 . S
O626 Ho601 2.322 . S
O626 C611 1.259 1_455 S
O627 Ho600 2.346 . S
O627 C611 1.268 . S
O628 Ho601 2.378 . S
O628 C612 1.215 . S
O629 Ho601 2.524 . S
O629 C612 1.289 . S
O630 Ho601 2.381 . S
O630 C619 1.275 . S
O631 Ho600 2.305 1_455 S
O631 Ho601 2.669 . S
O631 C619 1.256 . S
H632 C605 0.930 . S
H633 C606 0.931 . S
H634 C608 0.934 . S
H635 C609 0.930 . S
H636 C614 0.930 . S
H637 C615 0.931 . S
H638 C617 0.934 . S
H639 C618 0.930 . S
H640 C648 0.950 . S
H641 C653 0.950 . S
H642 C650 0.950 . S
H643 C652 0.950 . S
H644 C654 0.950 . S
H645 C656 0.950 . S
H646 C658 0.950 . S
H647 C659 0.950 . S
C648 H640 0.950 . S
C648 C649 1.386 . S
C648 C650 1.391 . S
C649 C648 1.386 . S
C649 C653 1.393 . S
C650 H642 0.950 . S
C650 C648 1.391 . S
C650 C651 1.400 . S
C651 C650 1.400 . S
C651 C652 1.398 . S
C651 C657 1.491 . S
C652 H643 0.950 . S
C652 C651 1.398 . S
C652 C653 1.391 . S
C653 H641 0.950 . S
C653 C649 1.393 . S
C653 C652 1.391 . S
C654 H644 0.950 . S
C654 C655 1.386 . S
C654 C656 1.391 . S
C655 C654 1.386 . S
C655 C659 1.393 . S
C656 H645 0.950 . S
C656 C654 1.391 . S
C656 C657 1.400 . S
C657 C651 1.491 . S
C657 C656 1.400 . S
C657 C658 1.398 . S
C658 H646 0.950 . S
C658 C657 1.398 . S
C658 C659 1.391 . S
C659 H647 0.950 . S
C659 C655 1.393 . S
C659 C658 1.391 . S
H660 C668 0.950 . S
H661 C673 0.950 . S
H662 C670 0.950 . S
H663 C672 0.950 . S
H664 C674 0.950 . S
H665 C676 0.950 . S
H666 C678 0.950 . S
H667 C679 0.950 . S
C668 H660 0.950 . S
C668 C669 1.386 . S
C668 C670 1.391 . S
C669 C668 1.386 . S
C669 C673 1.393 . S
C670 H662 0.950 . S
C670 C668 1.391 . S
C670 C671 1.400 . S
C671 C670 1.400 . S
C671 C672 1.398 . S
C671 C677 1.491 . S
C672 H663 0.950 . S
C672 C671 1.398 . S
C672 C673 1.391 . S
C673 H661 0.950 . S
C673 C669 1.393 . S
C673 C672 1.391 . S
C674 H664 0.950 . S
C674 C675 1.386 . S
C674 C676 1.391 . S
C675 C674 1.386 . S
C675 C679 1.393 . S
C676 H665 0.950 . S
C676 C674 1.391 . S
C676 C677 1.400 . S
C677 C671 1.491 . S
C677 C676 1.400 . S
C677 C678 1.398 . S
C678 H666 0.950 . S
C678 C677 1.398 . S
C678 C679 1.391 . S
C679 H667 0.950 . S
C679 C675 1.393 . S
C679 C678 1.391 . S
H680 C688 0.950 . S
H681 C693 0.950 . S
H682 C690 0.950 . S
H683 C692 0.950 . S
H684 C694 0.950 . S
H685 C696 0.950 . S
H686 C698 0.950 . S
H687 C699 0.950 . S
C688 H680 0.950 . S
C688 C689 1.386 . S
C688 C690 1.391 . S
C689 C688 1.386 . S
C689 C693 1.393 . S
C690 H682 0.950 . S
C690 C688 1.391 . S
C690 C691 1.400 . S
C691 C690 1.400 . S
C691 C692 1.398 . S
C691 C697 1.491 . S
C692 H683 0.950 . S
C692 C691 1.398 . S
C692 C693 1.391 . S
C693 H681 0.950 . S
C693 C689 1.393 . S
C693 C692 1.391 . S
C694 H684 0.950 . S
C694 C695 1.386 . S
C694 C696 1.391 . S
C695 C694 1.386 . S
C695 C699 1.393 . S
C696 H685 0.950 . S
C696 C694 1.391 . S
C696 C697 1.400 . S
C697 C691 1.491 . S
C697 C696 1.400 . S
C697 C698 1.398 . S
C698 H686 0.950 . S
C698 C697 1.398 . S
C698 C699 1.391 . S
C699 H687 0.950 . S
C699 C695 1.393 . S
C699 C698 1.391 . S
H700 C708 0.950 . S
H701 C713 0.950 . S
H702 C710 0.950 . S
H703 C712 0.950 . S
H704 C714 0.950 . S
H705 C716 0.950 . S
H706 C718 0.950 . S
H707 C719 0.950 . S
C708 H700 0.950 . S
C708 C709 1.386 . S
C708 C710 1.391 . S
C709 C708 1.386 . S
C709 C713 1.393 . S
C710 H702 0.950 . S
C710 C708 1.391 . S
C710 C711 1.400 . S
C711 C710 1.400 . S
C711 C712 1.398 . S
C711 C717 1.491 . S
C712 H703 0.950 . S
C712 C711 1.398 . S
C712 C713 1.391 . S
C713 H701 0.950 . S
C713 C709 1.393 . S
C713 C712 1.391 . S
C714 H704 0.950 . S
C714 C715 1.386 . S
C714 C716 1.391 . S
C715 C714 1.386 . S
C715 C719 1.393 . S
C716 H705 0.950 . S
C716 C714 1.391 . S
C716 C717 1.400 . S
C717 C711 1.491 . S
C717 C716 1.400 . S
C717 C718 1.398 . S
C718 H706 0.950 . S
C718 C717 1.398 . S
C718 C719 1.391 . S
C719 H707 0.950 . S
C719 C715 1.393 . S
C719 C718 1.391 . S
H720 C728 0.950 . S
H721 C733 0.950 . S
H722 C730 0.950 . S
H723 C732 0.950 . S
H724 C734 0.950 . S
H725 C736 0.950 . S
H726 C738 0.950 . S
H727 C739 0.950 1_454 S
C728 H720 0.950 . S
C728 C729 1.386 . S
C728 C730 1.391 . S
C729 C728 1.386 . S
C729 C733 1.393 . S
C730 H722 0.950 . S
C730 C728 1.391 . S
C730 C731 1.400 . S
C731 C730 1.400 . S
C731 C732 1.398 . S
C731 C737 1.491 . S
C732 H723 0.950 . S
C732 C731 1.398 . S
C732 C733 1.391 . S
C733 H721 0.950 . S
C733 C729 1.393 . S
C733 C732 1.391 . S
C734 H724 0.950 . S
C734 C735 1.386 . S
C734 C736 1.391 . S
C735 C734 1.386 . S
C735 C739 1.391 . S
C736 H725 0.950 . S
C736 C734 1.391 . S
C736 C737 1.400 1_556 S
C737 C731 1.491 . S
C737 C736 1.400 1_554 S
C737 C738 1.398 . S
C738 H726 0.950 . S
C738 C737 1.398 . S
C738 C739 1.393 1_554 S
C739 H727 0.950 1_656 S
C739 C735 1.391 . S
C739 C738 1.393 1_556 S
H740 C748 0.950 . S
H741 C753 0.950 . S
H742 C750 0.950 . S
H743 C752 0.950 . S
H744 C754 0.950 . S
H745 C756 0.950 . S
H746 C758 0.950 . S
H747 C759 0.935 1_554 S
C748 H740 0.950 . S
C748 C749 1.386 . S
C748 C750 1.391 . S
C749 C748 1.386 . S
C749 C753 1.393 . S
C750 H742 0.950 . S
C750 C748 1.391 . S
C750 C751 1.400 . S
C751 C750 1.400 . S
C751 C752 1.398 . S
C751 C757 1.491 . S
C752 H743 0.950 . S
C752 C751 1.398 . S
C752 C753 1.391 . S
C753 H741 0.950 . S
C753 C749 1.393 . S
C753 C752 1.391 . S
C754 H744 0.950 . S
C754 C755 1.386 . S
C754 C756 1.391 . S
C755 C754 1.386 . S
C755 C759 1.393 . S
C756 H745 0.950 . S
C756 C754 1.391 . S
C756 C757 1.400 . S
C757 C751 1.491 . S
C757 C756 1.400 . S
C757 C758 1.398 . S
C758 H746 0.950 . S
C758 C757 1.398 . S
C758 C759 1.391 . S
C759 H747 0.935 1_556 S
C759 C755 1.393 . S
C759 C758 1.391 . S
H760 C768 0.950 . S
H761 C773 0.950 . S
H762 C770 0.950 . S
H763 C772 0.950 . S
H764 C774 0.950 . S
H765 C776 0.950 . S
H766 C778 0.950 . S
H767 C779 0.950 . S
C768 H760 0.950 . S
C768 C769 1.386 . S
C768 C770 1.391 . S
C769 C768 1.386 . S
C769 C773 1.393 . S
C770 H762 0.950 . S
C770 C768 1.391 . S
C770 C771 1.400 . S
C771 C770 1.400 . S
C771 C772 1.398 . S
C771 C777 1.491 . S
C772 H763 0.950 . S
C772 C771 1.398 . S
C772 C773 1.391 . S
C773 H761 0.950 . S
C773 C769 1.393 . S
C773 C772 1.391 . S
C774 H764 0.950 . S
C774 C775 1.386 . S
C774 C776 1.391 . S
C775 C774 1.386 . S
C775 C779 1.393 . S
C776 H765 0.950 . S
C776 C774 1.391 . S
C776 C777 1.400 . S
C777 C771 1.491 . S
C777 C776 1.400 . S
C777 C778 1.398 . S
C778 H766 0.950 . S
C778 C777 1.398 . S
C778 C779 1.391 . S
C779 H767 0.950 . S
C779 C775 1.393 . S
C779 C778 1.391 . S
H780 C788 0.950 . S
H781 C793 0.950 . S
H782 C790 0.950 . S
H783 C792 0.950 . S
H784 C794 0.950 . S
H785 C796 0.950 . S
H786 C798 0.950 . S
H787 C799 0.950 . S
C788 H780 0.950 . S
C788 C789 1.386 . S
C788 C790 1.391 . S
C789 C788 1.386 . S
C789 C793 1.393 . S
C790 H782 0.950 . S
C790 C788 1.391 . S
C790 C791 1.400 . S
C791 C790 1.400 . S
C791 C792 1.398 . S
C791 C797 1.491 . S
C792 H783 0.950 . S
C792 C791 1.398 . S
C792 C793 1.391 . S
C793 H781 0.950 . S
C793 C789 1.393 . S
C793 C792 1.391 . S
C794 H784 0.950 . S
C794 C795 1.386 . S
C794 C796 1.391 . S
C795 C794 1.386 . S
C795 C799 1.393 . S
C796 H785 0.950 . S
C796 C794 1.391 . S
C796 C797 1.400 . S
C797 C791 1.491 . S
C797 C796 1.400 . S
C797 C798 1.398 . S
C798 H786 0.950 . S
C798 C797 1.398 . S
C798 C799 1.391 . S
C799 H787 0.950 . S
C799 C795 1.393 . S
C799 C798 1.391 . S
H800 C808 0.950 . S
H801 C813 0.950 . S
H802 C810 0.950 . S
H803 C812 0.950 . S
H804 C814 0.950 . S
H805 C816 0.950 . S
H806 C818 0.950 . S
H807 C819 0.950 . S
C808 H800 0.950 . S
C808 C809 1.386 . S
C808 C810 1.391 . S
C809 C808 1.386 . S
C809 C813 1.393 . S
C810 H802 0.950 . S
C810 C808 1.391 . S
C810 C811 1.400 . S
C811 C810 1.400 . S
C811 C812 1.398 . S
C811 C817 1.491 . S
C812 H803 0.950 . S
C812 C811 1.398 . S
C812 C813 1.391 . S
C813 H801 0.950 . S
C813 C809 1.393 . S
C813 C812 1.391 . S
C814 H804 0.950 . S
C814 C815 1.386 . S
C814 C816 1.391 . S
C815 C814 1.386 . S
C815 C819 1.393 . S
C816 H805 0.950 . S
C816 C814 1.391 . S
C816 C817 1.400 . S
C817 C811 1.491 . S
C817 C816 1.400 . S
C817 C818 1.398 . S
C818 H806 0.950 . S
C818 C817 1.398 . S
C818 C819 1.391 . S
C819 H807 0.950 . S
C819 C815 1.393 . S
C819 C818 1.391 . S
H820 C828 0.950 . S
H821 C833 0.950 . S
H822 C830 0.950 . S
H823 C832 0.950 . S
H824 C834 0.950 . S
H825 C836 0.950 . S
H826 C838 0.950 . S
H827 C839 0.950 . S
C828 H820 0.950 . S
C828 C829 1.386 . S
C828 C830 1.391 . S
C829 C828 1.386 . S
C829 C833 1.393 . S
C830 H822 0.950 . S
C830 C828 1.391 . S
C830 C831 1.400 . S
C831 C830 1.400 . S
C831 C832 1.398 . S
C831 C837 1.491 . S
C832 H823 0.950 . S
C832 C831 1.398 . S
C832 C833 1.391 . S
C833 H821 0.950 . S
C833 C829 1.393 . S
C833 C832 1.391 . S
C834 H824 0.950 . S
C834 C835 1.386 . S
C834 C836 1.391 . S
C835 C834 1.386 . S
C835 C839 1.393 . S
C836 H825 0.950 . S
C836 C834 1.391 . S
C836 C837 1.400 . S
C837 C831 1.491 . S
C837 C836 1.400 . S
C837 C838 1.398 . S
C838 H826 0.950 . S
C838 C837 1.398 . S
C838 C839 1.391 . S
C839 H827 0.950 . S
C839 C835 1.393 . S
C839 C838 1.391 . S
H840 C848 0.950 . S
H841 C853 0.950 . S
H842 C850 0.945 1_556 S
H843 C852 0.950 1_556 S
H844 C854 0.950 . S
H845 C856 0.950 . S
H846 C858 0.950 . S
H847 C859 0.950 . S
C848 H840 0.950 . S
C848 C849 1.386 . S
C848 C850 1.400 . S
C849 C848 1.386 . S
C849 C853 1.393 . S
C850 H842 0.945 1_554 S
C850 C848 1.400 . S
C850 C851 1.396 1_554 S
C851 C850 1.396 1_556 S
C851 C852 1.398 1_556 S
C851 C857 1.491 . S
C852 H843 0.950 1_554 S
C852 C851 1.398 1_554 S
C852 C853 1.391 . S
C853 H841 0.950 . S
C853 C849 1.393 . S
C853 C852 1.391 . S
C854 H844 0.950 . S
C854 C855 1.386 . S
C854 C856 1.391 . S
C855 C854 1.386 . S
C855 C859 1.393 . S
C856 H845 0.950 . S
C856 C854 1.391 . S
C856 C857 1.400 . S
C857 C851 1.491 . S
C857 C856 1.400 . S
C857 C858 1.398 . S
C858 H846 0.950 . S
C858 C857 1.398 . S
C858 C859 1.391 . S
C859 H847 0.950 . S
C859 C855 1.393 . S
C859 C858 1.391 . S
H860 C868 0.950 . S
H861 C873 0.950 . S
H862 C870 0.950 . S
H863 C872 0.950 . S
H864 C874 0.950 . S
H865 C876 0.950 . S
H866 C878 0.950 . S
H867 C879 0.950 . S
C868 H860 0.950 . S
C868 C869 1.386 . S
C868 C870 1.391 . S
C869 C868 1.386 . S
C869 C873 1.393 . S
C870 H862 0.950 . S
C870 C868 1.391 . S
C870 C871 1.400 . S
C871 C870 1.400 . S
C871 C872 1.398 . S
C871 C877 1.491 . S
C872 H863 0.950 . S
C872 C871 1.398 . S
C872 C873 1.391 . S
C873 H861 0.950 . S
C873 C869 1.393 . S
C873 C872 1.391 . S
C874 H864 0.950 . S
C874 C875 1.386 . S
C874 C876 1.391 . S
C875 C874 1.386 . S
C875 C879 1.393 . S
C876 H865 0.950 . S
C876 C874 1.391 . S
C876 C877 1.400 . S
C877 C871 1.491 . S
C877 C876 1.400 . S
C877 C878 1.398 . S
C878 H866 0.950 . S
C878 C877 1.398 . S
C878 C879 1.391 . S
C879 H867 0.950 . S
C879 C875 1.393 . S
C879 C878 1.391 . S
H880 C888 0.950 . S
H881 C893 0.950 . S
H882 C890 0.950 . S
H883 C892 0.950 . S
H884 C894 0.950 . S
H885 C896 0.950 . S
H886 C898 0.950 . S
H887 C899 0.950 . S
C888 H880 0.950 . S
C888 C889 1.386 . S
C888 C890 1.391 . S
C889 C888 1.386 . S
C889 C893 1.393 . S
C890 H882 0.950 . S
C890 C888 1.391 . S
C890 C891 1.400 . S
C891 C890 1.400 . S
C891 C892 1.398 . S
C891 C897 1.491 . S
C892 H883 0.950 . S
C892 C891 1.398 . S
C892 C893 1.391 . S
C893 H881 0.950 . S
C893 C889 1.393 . S
C893 C892 1.391 . S
C894 H884 0.950 . S
C894 C895 1.386 . S
C894 C896 1.391 . S
C895 C894 1.386 . S
C895 C899 1.393 . S
C896 H885 0.950 . S
C896 C894 1.391 . S
C896 C897 1.400 . S
C897 C891 1.491 . S
C897 C896 1.400 . S
C897 C898 1.398 . S
C898 H886 0.950 . S
C898 C897 1.398 . S
C898 C899 1.391 . S
C899 H887 0.950 . S
C899 C895 1.393 . S
C899 C898 1.391 . S
H900 C908 0.950 . S
H901 C913 0.950 . S
H902 C910 0.950 . S
H903 C912 0.950 . S
H904 C914 0.950 . S
H905 C916 0.950 . S
H906 C918 0.950 . S
H907 C919 0.950 . S
C908 H900 0.950 . S
C908 C909 1.386 . S
C908 C910 1.391 . S
C909 C908 1.386 . S
C909 C913 1.393 . S
C910 H902 0.950 . S
C910 C908 1.391 . S
C910 C911 1.400 . S
C911 C910 1.400 . S
C911 C912 1.398 . S
C911 C917 1.491 . S
C912 H903 0.950 . S
C912 C911 1.398 . S
C912 C913 1.391 . S
C913 H901 0.950 . S
C913 C909 1.393 . S
C913 C912 1.391 . S
C914 H904 0.950 . S
C914 C915 1.386 . S
C914 C916 1.391 . S
C915 C914 1.386 . S
C915 C919 1.393 . S
C916 H905 0.950 . S
C916 C914 1.391 . S
C916 C917 1.400 . S
C917 C911 1.491 . S
C917 C916 1.400 . S
C917 C918 1.398 . S
C918 H906 0.950 . S
C918 C917 1.398 . S
C918 C919 1.391 . S
C919 H907 0.950 . S
C919 C915 1.393 . S
C919 C918 1.391 . S
H920 C928 0.950 . S
H921 C933 0.950 . S
H922 C930 0.950 . S
H923 C932 0.950 . S
H924 C934 0.950 . S
H925 C936 0.950 . S
H926 C938 0.950 . S
H927 C939 0.950 . S
C928 H920 0.950 . S
C928 C929 1.386 . S
C928 C930 1.391 . S
C929 C928 1.386 . S
C929 C933 1.393 . S
C930 H922 0.950 . S
C930 C928 1.391 . S
C930 C931 1.400 . S
C931 C930 1.400 . S
C931 C932 1.398 . S
C931 C937 1.491 . S
C932 H923 0.950 . S
C932 C931 1.398 . S
C932 C933 1.391 . S
C933 H921 0.950 . S
C933 C929 1.393 . S
C933 C932 1.391 . S
C934 H924 0.950 . S
C934 C935 1.386 1_554 S
C934 C936 1.391 . S
C935 C934 1.386 1_556 S
C935 C939 1.393 . S
C936 H925 0.950 . S
C936 C934 1.391 . S
C936 C937 1.400 . S
C937 C931 1.491 . S
C937 C936 1.400 . S
C937 C938 1.398 . S
C938 H926 0.950 . S
C938 C937 1.398 . S
C938 C939 1.391 1_554 S
C939 H927 0.950 . S
C939 C935 1.393 . S
C939 C938 1.391 1_556 S
H940 C948 0.950 . S
H941 C953 0.950 . S
H942 C950 0.950 . S
H943 C952 0.950 . S
H944 C954 0.950 . S
H945 C956 0.950 . S
H946 C958 0.950 . S
H947 C959 0.950 . S
C948 H940 0.950 . S
C948 C949 1.386 . S
C948 C950 1.391 . S
C949 C948 1.386 . S
C949 C953 1.393 . S
C950 H942 0.950 . S
C950 C948 1.391 . S
C950 C951 1.400 . S
C951 C950 1.400 . S
C951 C952 1.398 . S
C951 C957 1.491 . S
C952 H943 0.950 . S
C952 C951 1.398 . S
C952 C953 1.391 . S
C953 H941 0.950 . S
C953 C949 1.393 . S
C953 C952 1.391 . S
C954 H944 0.950 . S
C954 C955 1.386 . S
C954 C956 1.391 . S
C955 C954 1.386 . S
C955 C959 1.393 . S
C956 H945 0.950 . S
C956 C954 1.391 . S
C956 C957 1.400 . S
C957 C951 1.491 . S
C957 C956 1.400 . S
C957 C958 1.398 . S
C958 H946 0.950 . S
C958 C957 1.398 . S
C958 C959 1.391 . S
C959 H947 0.950 . S
C959 C955 1.393 . S
C959 C958 1.391 . S
H960 C968 0.950 . S
H961 C973 0.950 . S
H962 C970 0.950 . S
H963 C972 0.950 . S
H964 C974 0.950 . S
H965 C976 0.950 . S
H966 C978 0.950 . S
H967 C979 0.950 . S
C968 H960 0.950 . S
C968 C969 1.386 . S
C968 C970 1.391 . S
C969 C968 1.386 . S
C969 C973 1.393 1_455 S
C970 H962 0.950 . S
C970 C968 1.391 . S
C970 C971 1.400 . S
C971 C970 1.400 . S
C971 C972 1.398 1_455 S
C971 C977 1.491 . S
C972 H963 0.950 . S
C972 C971 1.398 1_655 S
C972 C973 1.391 . S
C973 H961 0.950 . S
C973 C969 1.393 1_655 S
C973 C972 1.391 . S
C974 H964 0.950 . S
C974 C975 1.386 1_655 S
C974 C976 1.391 . S
C975 C974 1.386 1_455 S
C975 C979 1.393 . S
C976 H965 0.950 . S
C976 C974 1.391 . S
C976 C977 1.400 1_655 S
C977 C971 1.491 . S
C977 C976 1.400 1_455 S
C977 C978 1.398 . S
C978 H966 0.950 . S
C978 C977 1.398 . S
C978 C979 1.391 . S
C979 H967 0.950 . S
C979 C975 1.393 . S
C979 C978 1.391 . S
H980 C988 0.950 . S
H981 C993 0.950 . S
H982 C990 0.950 . S
H983 C992 0.950 . S
H984 C994 0.950 . S
H985 C996 0.950 . S
H986 C998 0.950 . S
H987 C999 0.950 . S
C988 H980 0.950 . S
C988 C989 1.386 . S
C988 C990 1.391 . S
C989 C988 1.386 . S
C989 C993 1.393 . S
C990 H982 0.950 . S
C990 C988 1.391 . S
C990 C991 1.400 1_655 S
C991 C990 1.400 1_455 S
C991 C992 1.398 1_455 S
C991 C997 1.491 . S
C992 H983 0.950 . S
C992 C991 1.398 1_655 S
C992 C993 1.391 . S
C993 H981 0.950 . S
C993 C989 1.393 . S
C993 C992 1.391 . S
C994 H984 0.950 . S
C994 C995 1.386 . S
C994 C996 1.391 . S
C995 C994 1.386 . S
C995 C999 1.393 . S
C996 H985 0.950 . S
C996 C994 1.391 . S
C996 C997 1.400 . S
C997 C991 1.491 . S
C997 C996 1.400 . S
C997 C998 1.398 . S
C998 H986 0.950 . S
C998 C997 1.398 . S
C998 C999 1.391 . S
C999 H987 0.950 . S
C999 C995 1.393 . S
C999 C998 1.391 . S
H1000 C1008 0.950 . S
H1001 C1013 0.950 . S
H1002 C1010 0.950 . S
H1003 C1012 0.950 . S
H1004 C1014 0.950 . S
H1005 C1016 0.950 . S
H1006 C1018 0.950 . S
H1007 C1019 0.950 . S
C1008 H1000 0.950 . S
C1008 C1009 1.386 . S
C1008 C1010 1.391 . S
C1009 C1008 1.386 . S
C1009 C1013 1.393 . S
C1010 H1002 0.950 . S
C1010 C1008 1.391 . S
C1010 C1011 1.400 . S
C1011 C1010 1.400 . S
C1011 C1012 1.398 . S
C1011 C1017 1.491 . S
C1012 H1003 0.950 . S
C1012 C1011 1.398 . S
C1012 C1013 1.391 . S
C1013 H1001 0.950 . S
C1013 C1009 1.393 . S
C1013 C1012 1.391 . S
C1014 H1004 0.950 . S
C1014 C1015 1.386 . S
C1014 C1016 1.391 . S
C1015 C1014 1.386 . S
C1015 C1019 1.393 . S
C1016 H1005 0.950 . S
C1016 C1014 1.391 . S
C1016 C1017 1.400 . S
C1017 C1011 1.491 . S
C1017 C1016 1.400 . S
C1017 C1018 1.398 . S
C1018 H1006 0.950 . S
C1018 C1017 1.398 . S
C1018 C1019 1.391 . S
C1019 H1007 0.950 . S
C1019 C1015 1.393 . S
C1019 C1018 1.391 . S
H1020 C1028 0.950 . S
H1021 C1033 0.950 . S
H1022 C1030 0.950 . S
H1023 C1032 0.950 . S
H1024 C1034 0.950 . S
H1025 C1036 0.950 . S
H1026 C1038 0.950 . S
H1027 C1039 0.950 . S
C1028 H1020 0.950 . S
C1028 C1029 1.386 . S
C1028 C1030 1.391 . S
C1029 C1028 1.386 . S
C1029 C1033 1.393 . S
C1030 H1022 0.950 . S
C1030 C1028 1.391 . S
C1030 C1031 1.400 . S
C1031 C1030 1.400 . S
C1031 C1032 1.398 . S
C1031 C1037 1.491 . S
C1032 H1023 0.950 . S
C1032 C1031 1.398 . S
C1032 C1033 1.391 . S
C1033 H1021 0.950 . S
C1033 C1029 1.393 . S
C1033 C1032 1.391 . S
C1034 H1024 0.950 . S
C1034 C1035 1.386 . S
C1034 C1036 1.391 . S
C1035 C1034 1.386 . S
C1035 C1039 1.393 . S
C1036 H1025 0.950 . S
C1036 C1034 1.391 . S
C1036 C1037 1.400 . S
C1037 C1031 1.491 . S
C1037 C1036 1.400 . S
C1037 C1038 1.398 . S
C1038 H1026 0.950 . S
C1038 C1037 1.398 . S
C1038 C1039 1.391 . S
C1039 H1027 0.950 . S
C1039 C1035 1.393 . S
C1039 C1038 1.391 . S
H1040 C1048 0.950 . S
H1041 C1053 0.950 . S
H1042 C1050 0.950 . S
H1043 C1052 0.950 . S
H1044 C1054 0.950 1_655 S
H1045 C1056 0.956 . S
H1046 C1058 0.950 . S
H1047 C1059 0.950 . S
C1048 H1040 0.950 . S
C1048 C1049 1.386 . S
C1048 C1050 1.391 . S
C1049 C1048 1.386 . S
C1049 C1053 1.393 1_455 S
C1050 H1042 0.950 . S
C1050 C1048 1.391 . S
C1050 C1051 1.400 . S
C1051 C1050 1.400 . S
C1051 C1052 1.398 1_455 S
C1051 C1057 1.491 . S
C1052 H1043 0.950 . S
C1052 C1051 1.398 1_655 S
C1052 C1053 1.391 . S
C1053 H1041 0.950 . S
C1053 C1049 1.393 1_655 S
C1053 C1052 1.391 . S
C1054 H1044 0.950 1_455 S
C1054 C1055 1.386 . S
C1054 C1056 1.390 1_455 S
C1055 C1054 1.386 . S
C1055 C1059 1.393 . S
C1056 H1045 0.956 . S
C1056 C1054 1.390 1_655 S
C1056 C1057 1.395 1_655 S
C1057 C1051 1.491 . S
C1057 C1056 1.395 1_455 S
C1057 C1058 1.398 . S
C1058 H1046 0.950 . S
C1058 C1057 1.398 . S
C1058 C1059 1.391 . S
C1059 H1047 0.950 . S
C1059 C1055 1.393 . S
C1059 C1058 1.391 . S
H1060 C1068 0.950 . S
H1061 C1073 0.950 . S
H1062 C1070 0.950 . S
H1063 C1072 0.950 . S
H1064 C1074 0.950 . S
H1065 C1076 0.950 . S
H1066 C1078 0.950 . S
H1067 C1079 0.950 . S
C1068 H1060 0.950 . S
C1068 C1069 1.386 . S
C1068 C1070 1.391 . S
C1069 C1068 1.386 . S
C1069 C1073 1.393 . S
C1070 H1062 0.950 . S
C1070 C1068 1.391 . S
C1070 C1071 1.400 . S
C1071 C1070 1.400 . S
C1071 C1072 1.398 . S
C1071 C1077 1.491 . S
C1072 H1063 0.950 . S
C1072 C1071 1.398 . S
C1072 C1073 1.391 . S
C1073 H1061 0.950 . S
C1073 C1069 1.393 . S
C1073 C1072 1.391 . S
C1074 H1064 0.950 . S
C1074 C1075 1.386 . S
C1074 C1076 1.391 . S
C1075 C1074 1.386 . S
C1075 C1079 1.393 . S
C1076 H1065 0.950 . S
C1076 C1074 1.391 . S
C1076 C1077 1.400 . S
C1077 C1071 1.491 . S
C1077 C1076 1.400 . S
C1077 C1078 1.398 . S
C1078 H1066 0.950 . S
C1078 C1077 1.398 . S
C1078 C1079 1.391 . S
C1079 H1067 0.950 . S
C1079 C1075 1.393 . S
C1079 C1078 1.391 . S
H1080 C1088 0.950 . S
H1081 C1093 0.950 . S
H1082 C1090 0.950 . S
H1083 C1092 0.950 . S
H1084 C1094 0.950 . S
H1085 C1096 0.950 . S
H1086 C1098 0.950 . S
H1087 C1099 0.950 . S
C1088 H1080 0.950 . S
C1088 C1089 1.386 . S
C1088 C1090 1.391 . S
C1089 C1088 1.386 . S
C1089 C1093 1.393 . S
C1090 H1082 0.950 . S
C1090 C1088 1.391 . S
C1090 C1091 1.400 . S
C1091 C1090 1.400 . S
C1091 C1092 1.398 . S
C1091 C1097 1.491 . S
C1092 H1083 0.950 . S
C1092 C1091 1.398 . S
C1092 C1093 1.391 . S
C1093 H1081 0.950 . S
C1093 C1089 1.393 . S
C1093 C1092 1.391 . S
C1094 H1084 0.950 . S
C1094 C1095 1.386 . S
C1094 C1096 1.391 . S
C1095 C1094 1.386 . S
C1095 C1099 1.393 . S
C1096 H1085 0.950 . S
C1096 C1094 1.391 . S
C1096 C1097 1.400 . S
C1097 C1091 1.491 . S
C1097 C1096 1.400 . S
C1097 C1098 1.398 . S
C1098 H1086 0.950 . S
C1098 C1097 1.398 . S
C1098 C1099 1.391 . S
C1099 H1087 0.950 . S
C1099 C1095 1.393 . S
C1099 C1098 1.391 . S
H1100 C1108 0.950 . S
H1101 C1113 0.950 . S
H1102 C1110 0.950 . S
H1103 C1112 0.950 . S
H1104 C1114 0.950 . S
H1105 C1116 0.950 1_455 S
H1106 C1118 0.950 . S
H1107 C1119 0.950 . S
C1108 H1100 0.950 . S
C1108 C1109 1.386 . S
C1108 C1110 1.391 . S
C1109 C1108 1.386 . S
C1109 C1113 1.393 . S
C1110 H1102 0.950 . S
C1110 C1108 1.391 . S
C1110 C1111 1.400 . S
C1111 C1110 1.400 . S
C1111 C1112 1.398 . S
C1111 C1117 1.491 1_455 S
C1112 H1103 0.950 . S
C1112 C1111 1.398 . S
C1112 C1113 1.391 . S
C1113 H1101 0.950 . S
C1113 C1109 1.393 . S
C1113 C1112 1.391 . S
C1114 H1104 0.950 . S
C1114 C1115 1.386 . S
C1114 C1116 1.391 . S
C1115 C1114 1.386 . S
C1115 C1119 1.393 . S
C1116 H1105 0.950 1_655 S
C1116 C1114 1.391 . S
C1116 C1117 1.400 . S
C1117 C1111 1.491 1_655 S
C1117 C1116 1.400 . S
C1117 C1118 1.398 . S
C1118 H1106 0.950 . S
C1118 C1117 1.398 . S
C1118 C1119 1.391 . S
C1119 H1107 0.950 . S
C1119 C1115 1.393 . S
C1119 C1118 1.391 . S
H1120 C1128 0.950 . S
H1121 C1133 0.950 . S
H1122 C1130 0.950 1_565 S
H1123 C1132 0.950 . S
H1124 C1134 0.950 . S
H1125 C1136 0.950 1_545 S
H1126 C1138 0.950 . S
H1127 C1139 0.950 . S
C1128 H1120 0.950 . S
C1128 C1129 1.386 . S
C1128 C1130 1.391 . S
C1129 C1128 1.386 . S
C1129 C1133 1.393 1_455 S
C1130 H1122 0.950 1_545 S
C1130 C1128 1.391 . S
C1130 C1131 1.400 . S
C1131 C1130 1.400 . S
C1131 C1132 1.398 1_455 S
C1131 C1137 1.491 1_544 S
C1132 H1123 0.950 . S
C1132 C1131 1.398 1_655 S
C1132 C1133 1.391 . S
C1133 H1121 0.950 . S
C1133 C1129 1.393 1_655 S
C1133 C1132 1.391 . S
C1134 H1124 0.950 . S
C1134 C1135 1.386 1_655 S
C1134 C1136 1.391 . S
C1135 C1134 1.386 1_455 S
C1135 C1139 1.393 . S
C1136 H1125 0.950 1_565 S
C1136 C1134 1.391 . S
C1136 C1137 1.400 1_655 S
C1137 C1131 1.491 1_566 S
C1137 C1136 1.400 1_455 S
C1137 C1138 1.398 . S
C1138 H1126 0.950 . S
C1138 C1137 1.398 . S
C1138 C1139 1.391 . S
C1139 H1127 0.950 . S
C1139 C1135 1.393 . S
C1139 C1138 1.391 . S
H1140 C1148 0.950 . S
H1141 C1153 0.950 . S
H1142 C1150 0.950 . S
H1143 C1152 0.950 . S
H1144 C1154 0.950 . S
H1145 C1156 0.950 . S
H1146 C1158 0.950 . S
H1147 C1159 0.950 . S
C1148 H1140 0.950 . S
C1148 C1149 1.386 . S
C1148 C1150 1.391 . S
C1149 C1148 1.386 . S
C1149 C1153 1.393 . S
C1150 H1142 0.950 . S
C1150 C1148 1.391 . S
C1150 C1151 1.400 . S
C1151 C1150 1.400 . S
C1151 C1152 1.398 . S
C1151 C1157 1.491 . S
C1152 H1143 0.950 . S
C1152 C1151 1.398 . S
C1152 C1153 1.391 . S
C1153 H1141 0.950 . S
C1153 C1149 1.393 . S
C1153 C1152 1.391 . S
C1154 H1144 0.950 . S
C1154 C1155 1.386 . S
C1154 C1156 1.391 . S
C1155 C1154 1.386 . S
C1155 C1159 1.393 . S
C1156 H1145 0.950 . S
C1156 C1154 1.391 . S
C1156 C1157 1.400 . S
C1157 C1151 1.491 . S
C1157 C1156 1.400 . S
C1157 C1158 1.398 . S
C1158 H1146 0.950 . S
C1158 C1157 1.398 . S
C1158 C1159 1.391 . S
C1159 H1147 0.950 . S
C1159 C1155 1.393 . S
C1159 C1158 1.391 . S
H1160 C1168 0.950 . S
H1161 C1173 0.950 . S
H1162 C1170 0.950 1_565 S
H1163 C1172 0.950 . S
H1164 C1174 0.950 . S
H1165 C1176 0.950 1_545 S
H1166 C1178 0.950 . S
H1167 C1179 0.950 . S
C1168 H1160 0.950 . S
C1168 C1169 1.386 . S
C1168 C1170 1.391 . S
C1169 C1168 1.386 . S
C1169 C1173 1.393 . S
C1170 H1162 0.950 1_545 S
C1170 C1168 1.391 . S
C1170 C1171 1.400 . S
C1171 C1170 1.400 . S
C1171 C1172 1.398 . S
C1171 C1177 1.491 1_545 S
C1172 H1163 0.950 . S
C1172 C1171 1.398 . S
C1172 C1173 1.391 . S
C1173 H1161 0.950 . S
C1173 C1169 1.393 . S
C1173 C1172 1.391 . S
C1174 H1164 0.950 . S
C1174 C1175 1.386 . S
C1174 C1176 1.391 . S
C1175 C1174 1.386 . S
C1175 C1179 1.393 . S
C1176 H1165 0.950 1_565 S
C1176 C1174 1.391 . S
C1176 C1177 1.400 . S
C1177 C1171 1.491 1_565 S
C1177 C1176 1.400 . S
C1177 C1178 1.398 . S
C1178 H1166 0.950 . S
C1178 C1177 1.398 . S
C1178 C1179 1.391 . S
C1179 H1167 0.950 . S
C1179 C1175 1.393 . S
C1179 C1178 1.391 . S
H1180 C1188 0.950 . S
H1181 C1193 0.950 . S
H1182 C1190 0.950 . S
H1183 C1192 0.950 . S
H1184 C1194 0.950 . S
H1185 C1196 0.950 . S
H1186 C1198 0.950 . S
H1187 C1199 0.950 . S
C1188 H1180 0.950 . S
C1188 C1189 1.386 . S
C1188 C1190 1.391 . S
C1189 C1188 1.386 . S
C1189 C1193 1.393 . S
C1190 H1182 0.950 . S
C1190 C1188 1.391 . S
C1190 C1191 1.400 . S
C1191 C1190 1.400 . S
C1191 C1192 1.398 . S
C1191 C1197 1.491 . S
C1192 H1183 0.950 . S
C1192 C1191 1.398 . S
C1192 C1193 1.391 . S
C1193 H1181 0.950 . S
C1193 C1189 1.393 . S
C1193 C1192 1.391 . S
C1194 H1184 0.950 . S
C1194 C1195 1.386 . S
C1194 C1196 1.391 . S
C1195 C1194 1.386 . S
C1195 C1199 1.393 . S
C1196 H1185 0.950 . S
C1196 C1194 1.391 . S
C1196 C1197 1.400 . S
C1197 C1191 1.491 . S
C1197 C1196 1.400 . S
C1197 C1198 1.398 . S
C1198 H1186 0.950 . S
C1198 C1197 1.398 . S
C1198 C1199 1.391 . S
C1199 H1187 0.950 . S
C1199 C1195 1.393 . S
C1199 C1198 1.391 . S
H1200 C1208 0.950 . S
H1201 C1213 0.950 . S
H1202 C1210 0.950 . S
H1203 C1212 0.950 . S
H1204 C1214 0.950 . S
H1205 C1216 0.950 . S
H1206 C1218 0.950 . S
H1207 C1219 0.950 . S
C1208 H1200 0.950 . S
C1208 C1209 1.386 . S
C1208 C1210 1.391 . S
C1209 C1208 1.386 . S
C1209 C1213 1.393 . S
C1210 H1202 0.950 . S
C1210 C1208 1.391 . S
C1210 C1211 1.400 . S
C1211 C1210 1.400 . S
C1211 C1212 1.398 . S
C1211 C1217 1.491 . S
C1212 H1203 0.950 . S
C1212 C1211 1.398 . S
C1212 C1213 1.391 . S
C1213 H1201 0.950 . S
C1213 C1209 1.393 . S
C1213 C1212 1.391 . S
C1214 H1204 0.950 . S
C1214 C1215 1.386 . S
C1214 C1216 1.391 . S
C1215 C1214 1.386 . S
C1215 C1219 1.393 . S
C1216 H1205 0.950 . S
C1216 C1214 1.391 . S
C1216 C1217 1.400 . S
C1217 C1211 1.491 . S
C1217 C1216 1.400 . S
C1217 C1218 1.398 . S
C1218 H1206 0.950 . S
C1218 C1217 1.398 . S
C1218 C1219 1.391 . S
C1219 H1207 0.950 . S
C1219 C1215 1.393 . S
C1219 C1218 1.391 . S
H1220 C1228 0.950 . S
H1221 C1233 0.950 . S
H1222 C1230 0.950 . S
H1223 C1232 0.950 . S
H1224 C1234 0.950 . S
H1225 C1236 0.950 . S
H1226 C1238 0.950 . S
H1227 C1239 0.950 . S
C1228 H1220 0.950 . S
C1228 C1229 1.386 . S
C1228 C1230 1.391 . S
C1229 C1228 1.386 . S
C1229 C1233 1.393 . S
C1230 H1222 0.950 . S
C1230 C1228 1.391 . S
C1230 C1231 1.400 . S
C1231 C1230 1.400 . S
C1231 C1232 1.398 . S
C1231 C1237 1.491 . S
C1232 H1223 0.950 . S
C1232 C1231 1.398 . S
C1232 C1233 1.391 . S
C1233 H1221 0.950 . S
C1233 C1229 1.393 . S
C1233 C1232 1.391 . S
C1234 H1224 0.950 . S
C1234 C1235 1.386 . S
C1234 C1236 1.391 . S
C1235 C1234 1.386 . S
C1235 C1239 1.393 . S
C1236 H1225 0.950 . S
C1236 C1234 1.391 . S
C1236 C1237 1.400 . S
C1237 C1231 1.491 . S
C1237 C1236 1.400 . S
C1237 C1238 1.398 . S
C1238 H1226 0.950 . S
C1238 C1237 1.398 . S
C1238 C1239 1.391 . S
C1239 H1227 0.950 . S
C1239 C1235 1.393 . S
C1239 C1238 1.391 . S
H1240 C1248 0.950 . S
H1241 C1253 0.950 . S
H1242 C1250 0.950 . S
H1243 C1252 0.950 . S
H1244 C1254 0.950 . S
H1245 C1256 0.950 . S
H1246 C1258 0.950 . S
H1247 C1259 0.950 . S
C1248 H1240 0.950 . S
C1248 C1249 1.386 . S
C1248 C1250 1.391 . S
C1249 C1248 1.386 . S
C1249 C1253 1.393 . S
C1250 H1242 0.950 . S
C1250 C1248 1.391 . S
C1250 C1251 1.400 . S
C1251 C1250 1.400 . S
C1251 C1252 1.398 . S
C1251 C1257 1.491 . S
C1252 H1243 0.950 . S
C1252 C1251 1.398 . S
C1252 C1253 1.391 . S
C1253 H1241 0.950 . S
C1253 C1249 1.393 . S
C1253 C1252 1.391 . S
C1254 H1244 0.950 . S
C1254 C1255 1.386 . S
C1254 C1256 1.391 . S
C1255 C1254 1.386 . S
C1255 C1259 1.393 . S
C1256 H1245 0.950 . S
C1256 C1254 1.391 . S
C1256 C1257 1.400 . S
C1257 C1251 1.491 . S
C1257 C1256 1.400 . S
C1257 C1258 1.398 . S
C1258 H1246 0.950 . S
C1258 C1257 1.398 . S
C1258 C1259 1.391 . S
C1259 H1247 0.950 . S
C1259 C1255 1.393 . S
C1259 C1258 1.391 . S
H1260 C1268 0.950 1_655 S
H1261 C1273 0.950 . S
H1262 C1270 0.948 1_655 S
H1263 C1272 0.950 . S
H1264 C1274 0.950 . S
H1265 C1276 0.972 . S
H1266 C1278 0.950 1_655 S
H1267 C1279 0.933 1_655 S
C1268 H1260 0.950 1_455 S
C1268 C1269 1.386 . S
C1268 C1270 1.391 . S
C1269 C1268 1.386 . S
C1269 C1273 1.393 . S
C1270 H1262 0.948 1_455 S
C1270 C1268 1.391 . S
C1270 C1271 1.400 . S
C1271 C1270 1.400 . S
C1271 C1272 1.398 . S
C1271 C1277 1.491 1_556 S
C1272 H1263 0.950 . S
C1272 C1271 1.398 . S
C1272 C1273 1.391 . S
C1273 H1261 0.950 . S
C1273 C1269 1.393 . S
C1273 C1272 1.391 . S
C1274 H1264 0.950 . S
C1274 C1275 1.386 . S
C1274 C1276 1.391 . S
C1275 C1274 1.386 . S
C1275 C1279 1.407 . S
C1276 H1265 0.972 . S
C1276 C1274 1.391 . S
C1276 C1277 1.400 . S
C1277 C1271 1.491 1_554 S
C1277 C1276 1.400 . S
C1277 C1278 1.398 . S
C1278 H1266 0.950 1_455 S
C1278 C1277 1.398 . S
C1278 C1279 1.394 . S
C1279 H1267 0.933 1_455 S
C1279 C1275 1.407 . S
C1279 C1278 1.394 . S
H1280 C1288 0.950 . S
H1281 C1293 0.950 . S
H1282 C1290 0.950 . S
H1283 C1292 0.950 . S
H1284 C1294 0.950 . S
H1285 C1296 0.950 . S
H1286 C1298 0.950 . S
H1287 C1299 0.950 . S
C1288 H1280 0.950 . S
C1288 C1289 1.386 . S
C1288 C1290 1.391 . S
C1289 C1288 1.386 . S
C1289 C1293 1.393 . S
C1290 H1282 0.950 . S
C1290 C1288 1.391 . S
C1290 C1291 1.400 . S
C1291 C1290 1.400 . S
C1291 C1292 1.398 . S
C1291 C1297 1.491 . S
C1292 H1283 0.950 . S
C1292 C1291 1.398 . S
C1292 C1293 1.391 . S
C1293 H1281 0.950 . S
C1293 C1289 1.393 . S
C1293 C1292 1.391 . S
C1294 H1284 0.950 . S
C1294 C1295 1.386 . S
C1294 C1296 1.391 . S
C1295 C1294 1.386 . S
C1295 C1299 1.393 . S
C1296 H1285 0.950 . S
C1296 C1294 1.391 . S
C1296 C1297 1.400 . S
C1297 C1291 1.491 . S
C1297 C1296 1.400 . S
C1297 C1298 1.398 . S
C1298 H1286 0.950 . S
C1298 C1297 1.398 . S
C1298 C1299 1.391 . S
C1299 H1287 0.950 . S
C1299 C1295 1.393 . S
C1299 C1298 1.391 . S
H1300 C1308 0.950 . S
H1301 C1313 0.950 . S
H1302 C1310 0.950 . S
H1303 C1312 0.950 . S
H1304 C1314 0.950 . S
H1305 C1316 0.950 . S
H1306 C1318 0.950 . S
H1307 C1319 0.950 . S
C1308 H1300 0.950 . S
C1308 C1309 1.386 . S
C1308 C1310 1.391 . S
C1309 C1308 1.386 . S
C1309 C1313 1.393 . S
C1310 H1302 0.950 . S
C1310 C1308 1.391 . S
C1310 C1311 1.400 . S
C1311 C1310 1.400 . S
C1311 C1312 1.398 . S
C1311 C1317 1.491 . S
C1312 H1303 0.950 . S
C1312 C1311 1.398 . S
C1312 C1313 1.391 . S
C1313 H1301 0.950 . S
C1313 C1309 1.393 . S
C1313 C1312 1.391 . S
C1314 H1304 0.950 . S
C1314 C1315 1.386 . S
C1314 C1316 1.391 . S
C1315 C1314 1.386 . S
C1315 C1319 1.393 . S
C1316 H1305 0.950 . S
C1316 C1314 1.391 . S
C1316 C1317 1.400 . S
C1317 C1311 1.491 . S
C1317 C1316 1.400 . S
C1317 C1318 1.398 . S
C1318 H1306 0.950 . S
C1318 C1317 1.398 . S
C1318 C1319 1.391 . S
C1319 H1307 0.950 . S
C1319 C1315 1.393 . S
C1319 C1318 1.391 . S
H1320 C1328 0.950 . S
H1321 C1333 0.950 . S
H1322 C1330 0.950 . S
H1323 C1332 0.950 . S
H1324 C1334 0.950 . S
H1325 C1336 0.950 . S
H1326 C1338 0.950 . S
H1327 C1339 0.950 . S
C1328 H1320 0.950 . S
C1328 C1329 1.386 . S
C1328 C1330 1.391 . S
C1329 C1328 1.386 . S
C1329 C1333 1.393 . S
C1330 H1322 0.950 . S
C1330 C1328 1.391 . S
C1330 C1331 1.400 1_554 S
C1331 C1330 1.400 1_556 S
C1331 C1332 1.398 . S
C1331 C1337 1.491 . S
C1332 H1323 0.950 . S
C1332 C1331 1.398 . S
C1332 C1333 1.391 1_556 S
C1333 H1321 0.950 . S
C1333 C1329 1.393 . S
C1333 C1332 1.391 1_554 S
C1334 H1324 0.950 . S
C1334 C1335 1.386 . S
C1334 C1336 1.391 . S
C1335 C1334 1.386 . S
C1335 C1339 1.393 . S
C1336 H1325 0.950 . S
C1336 C1334 1.391 . S
C1336 C1337 1.400 . S
C1337 C1331 1.491 . S
C1337 C1336 1.400 . S
C1337 C1338 1.398 . S
C1338 H1326 0.950 . S
C1338 C1337 1.398 . S
C1338 C1339 1.391 . S
C1339 H1327 0.950 . S
C1339 C1335 1.393 . S
C1339 C1338 1.391 . S
H1340 C1348 0.950 . S
H1341 C1353 0.950 . S
H1342 C1350 0.950 . S
H1343 C1352 0.950 . S
H1344 C1354 0.950 . S
H1345 C1356 0.950 . S
H1346 C1358 0.950 . S
H1347 C1359 0.950 . S
C1348 H1340 0.950 . S
C1348 C1349 1.386 . S
C1348 C1350 1.391 . S
C1349 C1348 1.386 . S
C1349 C1353 1.393 . S
C1350 H1342 0.950 . S
C1350 C1348 1.391 . S
C1350 C1351 1.400 . S
C1351 C1350 1.400 . S
C1351 C1352 1.398 . S
C1351 C1357 1.491 . S
C1352 H1343 0.950 . S
C1352 C1351 1.398 . S
C1352 C1353 1.391 . S
C1353 H1341 0.950 . S
C1353 C1349 1.393 . S
C1353 C1352 1.391 . S
C1354 H1344 0.950 . S
C1354 C1355 1.386 . S
C1354 C1356 1.391 . S
C1355 C1354 1.386 . S
C1355 C1359 1.393 . S
C1356 H1345 0.950 . S
C1356 C1354 1.391 . S
C1356 C1357 1.400 . S
C1357 C1351 1.491 . S
C1357 C1356 1.400 . S
C1357 C1358 1.398 . S
C1358 H1346 0.950 . S
C1358 C1357 1.398 . S
C1358 C1359 1.391 . S
C1359 H1347 0.950 . S
C1359 C1355 1.393 . S
C1359 C1358 1.391 . S
H1360 C1368 0.950 . S
H1361 C1373 0.950 . S
H1362 C1370 0.950 . S
H1363 C1372 0.950 . S
H1364 C1374 0.950 . S
H1365 C1376 0.950 . S
H1366 C1378 0.950 . S
H1367 C1379 0.950 . S
C1368 H1360 0.950 . S
C1368 C1369 1.386 . S
C1368 C1370 1.391 . S
C1369 C1368 1.386 . S
C1369 C1373 1.393 . S
C1370 H1362 0.950 . S
C1370 C1368 1.391 . S
C1370 C1371 1.400 . S
C1371 C1370 1.400 . S
C1371 C1372 1.398 . S
C1371 C1377 1.491 . S
C1372 H1363 0.950 . S
C1372 C1371 1.398 . S
C1372 C1373 1.391 . S
C1373 H1361 0.950 . S
C1373 C1369 1.393 . S
C1373 C1372 1.391 . S
C1374 H1364 0.950 . S
C1374 C1375 1.386 . S
C1374 C1376 1.391 . S
C1375 C1374 1.386 . S
C1375 C1379 1.393 . S
C1376 H1365 0.950 . S
C1376 C1374 1.391 . S
C1376 C1377 1.400 . S
C1377 C1371 1.491 . S
C1377 C1376 1.400 . S
C1377 C1378 1.398 . S
C1378 H1366 0.950 . S
C1378 C1377 1.398 . S
C1378 C1379 1.391 . S
C1379 H1367 0.950 . S
C1379 C1375 1.393 . S
C1379 C1378 1.391 . S
H1380 C1388 0.950 . S
H1381 C1393 0.950 . S
H1382 C1390 0.950 . S
H1383 C1392 0.950 . S
H1384 C1394 0.950 . S
H1385 C1396 0.950 . S
H1386 C1398 0.950 . S
H1387 C1399 0.950 . S
C1388 H1380 0.950 . S
C1388 C1389 1.386 . S
C1388 C1390 1.391 . S
C1389 C1388 1.386 . S
C1389 C1393 1.393 . S
C1390 H1382 0.950 . S
C1390 C1388 1.391 . S
C1390 C1391 1.400 . S
C1391 C1390 1.400 . S
C1391 C1392 1.398 . S
C1391 C1397 1.491 . S
C1392 H1383 0.950 . S
C1392 C1391 1.398 . S
C1392 C1393 1.391 . S
C1393 H1381 0.950 . S
C1393 C1389 1.393 . S
C1393 C1392 1.391 . S
C1394 H1384 0.950 . S
C1394 C1395 1.386 . S
C1394 C1396 1.391 . S
C1395 C1394 1.386 . S
C1395 C1399 1.393 . S
C1396 H1385 0.950 . S
C1396 C1394 1.391 . S
C1396 C1397 1.400 . S
C1397 C1391 1.491 . S
C1397 C1396 1.400 . S
C1397 C1398 1.398 . S
C1398 H1386 0.950 . S
C1398 C1397 1.398 . S
C1398 C1399 1.391 . S
C1399 H1387 0.950 . S
C1399 C1395 1.393 . S
C1399 C1398 1.391 . S
H1400 C1408 0.950 . S
H1401 C1413 0.950 . S
H1402 C1410 0.950 . S
H1403 C1412 0.950 . S
H1404 C1414 0.950 . S
H1405 C1416 0.950 . S
H1406 C1418 0.950 . S
H1407 C1419 0.950 . S
C1408 H1400 0.950 . S
C1408 C1409 1.386 . S
C1408 C1410 1.391 1_556 S
C1409 C1408 1.386 . S
C1409 C1413 1.393 1_556 S
C1410 H1402 0.950 . S
C1410 C1408 1.391 1_554 S
C1410 C1411 1.400 . S
C1411 C1410 1.400 . S
C1411 C1412 1.398 . S
C1411 C1417 1.491 . S
C1412 H1403 0.950 . S
C1412 C1411 1.398 . S
C1412 C1413 1.391 . S
C1413 H1401 0.950 . S
C1413 C1409 1.393 1_554 S
C1413 C1412 1.391 . S
C1414 H1404 0.950 . S
C1414 C1415 1.386 . S
C1414 C1416 1.391 . S
C1415 C1414 1.386 . S
C1415 C1419 1.393 . S
C1416 H1405 0.950 . S
C1416 C1414 1.391 . S
C1416 C1417 1.400 . S
C1417 C1411 1.491 . S
C1417 C1416 1.400 . S
C1417 C1418 1.398 . S
C1418 H1406 0.950 . S
C1418 C1417 1.398 . S
C1418 C1419 1.391 . S
C1419 H1407 0.950 . S
C1419 C1415 1.393 . S
C1419 C1418 1.391 . S
H1420 C1428 0.950 . S
H1421 C1433 0.950 . S
H1422 C1430 0.950 . S
H1423 C1432 0.950 . S
H1424 C1434 0.950 . S
H1425 C1436 0.950 . S
H1426 C1438 0.950 . S
H1427 C1439 0.950 . S
C1428 H1420 0.950 . S
C1428 C1429 1.386 . S
C1428 C1430 1.391 . S
C1429 C1428 1.386 . S
C1429 C1433 1.393 . S
C1430 H1422 0.950 . S
C1430 C1428 1.391 . S
C1430 C1431 1.400 . S
C1431 C1430 1.400 . S
C1431 C1432 1.398 . S
C1431 C1437 1.491 . S
C1432 H1423 0.950 . S
C1432 C1431 1.398 . S
C1432 C1433 1.391 . S
C1433 H1421 0.950 . S
C1433 C1429 1.393 . S
C1433 C1432 1.391 . S
C1434 H1424 0.950 . S
C1434 C1435 1.386 . S
C1434 C1436 1.391 . S
C1435 C1434 1.386 . S
C1435 C1439 1.393 . S
C1436 H1425 0.950 . S
C1436 C1434 1.391 . S
C1436 C1437 1.400 . S
C1437 C1431 1.491 . S
C1437 C1436 1.400 . S
C1437 C1438 1.398 . S
C1438 H1426 0.950 . S
C1438 C1437 1.398 . S
C1438 C1439 1.391 . S
C1439 H1427 0.950 . S
C1439 C1435 1.393 . S
C1439 C1438 1.391 . S
H1440 C1448 0.950 . S
H1441 C1453 0.950 . S
H1442 C1450 0.950 . S
H1443 C1452 0.950 . S
H1444 C1454 0.950 . S
H1445 C1456 0.950 . S
H1446 C1458 0.950 . S
H1447 C1459 0.950 . S
C1448 H1440 0.950 . S
C1448 C1449 1.386 . S
C1448 C1450 1.391 . S
C1449 C1448 1.386 . S
C1449 C1453 1.393 . S
C1450 H1442 0.950 . S
C1450 C1448 1.391 . S
C1450 C1451 1.400 . S
C1451 C1450 1.400 . S
C1451 C1452 1.398 . S
C1451 C1457 1.491 . S
C1452 H1443 0.950 . S
C1452 C1451 1.398 . S
C1452 C1453 1.391 . S
C1453 H1441 0.950 . S
C1453 C1449 1.393 . S
C1453 C1452 1.391 . S
C1454 H1444 0.950 . S
C1454 C1455 1.386 . S
C1454 C1456 1.391 . S
C1455 C1454 1.386 . S
C1455 C1459 1.393 . S
C1456 H1445 0.950 . S
C1456 C1454 1.391 . S
C1456 C1457 1.400 . S
C1457 C1451 1.491 . S
C1457 C1456 1.400 . S
C1457 C1458 1.398 . S
C1458 H1446 0.950 . S
C1458 C1457 1.398 . S
C1458 C1459 1.391 . S
C1459 H1447 0.950 . S
C1459 C1455 1.393 . S
C1459 C1458 1.391 . S
H1460 C1468 0.950 . S
H1461 C1473 0.950 . S
H1462 C1470 0.950 . S
H1463 C1472 0.950 . S
H1464 C1474 0.950 . S
H1465 C1476 0.950 . S
H1466 C1478 0.950 . S
H1467 C1479 0.950 . S
C1468 H1460 0.950 . S
C1468 C1469 1.386 . S
C1468 C1470 1.391 . S
C1469 C1468 1.386 . S
C1469 C1473 1.393 . S
C1470 H1462 0.950 . S
C1470 C1468 1.391 . S
C1470 C1471 1.400 . S
C1471 C1470 1.400 . S
C1471 C1472 1.398 . S
C1471 C1477 1.491 . S
C1472 H1463 0.950 . S
C1472 C1471 1.398 . S
C1472 C1473 1.391 . S
C1473 H1461 0.950 . S
C1473 C1469 1.393 . S
C1473 C1472 1.391 . S
C1474 H1464 0.950 . S
C1474 C1475 1.386 . S
C1474 C1476 1.391 . S
C1475 C1474 1.386 . S
C1475 C1479 1.393 . S
C1476 H1465 0.950 . S
C1476 C1474 1.391 . S
C1476 C1477 1.400 . S
C1477 C1471 1.491 . S
C1477 C1476 1.400 . S
C1477 C1478 1.398 . S
C1478 H1466 0.950 . S
C1478 C1477 1.398 . S
C1478 C1479 1.391 . S
C1479 H1467 0.950 . S
C1479 C1475 1.393 . S
C1479 C1478 1.391 . S
H1480 C1488 0.950 . S
H1481 C1493 0.950 . S
H1482 C1490 0.950 . S
H1483 C1492 0.950 . S
H1484 C1494 0.950 . S
H1485 C1496 0.950 . S
H1486 C1498 0.950 . S
H1487 C1499 0.950 . S
C1488 H1480 0.950 . S
C1488 C1489 1.386 . S
C1488 C1490 1.391 . S
C1489 C1488 1.386 . S
C1489 C1493 1.393 . S
C1490 H1482 0.950 . S
C1490 C1488 1.391 . S
C1490 C1491 1.400 . S
C1491 C1490 1.400 . S
C1491 C1492 1.398 . S
C1491 C1497 1.491 . S
C1492 H1483 0.950 . S
C1492 C1491 1.398 . S
C1492 C1493 1.391 . S
C1493 H1481 0.950 . S
C1493 C1489 1.393 . S
C1493 C1492 1.391 . S
C1494 H1484 0.950 . S
C1494 C1495 1.386 . S
C1494 C1496 1.391 . S
C1495 C1494 1.386 . S
C1495 C1499 1.393 . S
C1496 H1485 0.950 . S
C1496 C1494 1.391 . S
C1496 C1497 1.400 . S
C1497 C1491 1.491 . S
C1497 C1496 1.400 . S
C1497 C1498 1.398 . S
C1498 H1486 0.950 . S
C1498 C1497 1.398 . S
C1498 C1499 1.391 . S
C1499 H1487 0.950 . S
C1499 C1495 1.393 . S
C1499 C1498 1.391 . S
H1500 C1508 0.950 . S
H1501 C1513 0.950 . S
H1502 C1510 0.950 . S
H1503 C1512 0.950 . S
H1504 C1514 0.950 . S
H1505 C1516 0.950 . S
H1506 C1518 0.950 . S
H1507 C1519 0.950 . S
C1508 H1500 0.950 . S
C1508 C1509 1.386 . S
C1508 C1510 1.391 . S
C1509 C1508 1.386 . S
C1509 C1513 1.393 . S
C1510 H1502 0.950 . S
C1510 C1508 1.391 . S
C1510 C1511 1.400 . S
C1511 C1510 1.400 . S
C1511 C1512 1.398 . S
C1511 C1517 1.491 . S
C1512 H1503 0.950 . S
C1512 C1511 1.398 . S
C1512 C1513 1.391 . S
C1513 H1501 0.950 . S
C1513 C1509 1.393 . S
C1513 C1512 1.391 . S
C1514 H1504 0.950 . S
C1514 C1515 1.386 . S
C1514 C1516 1.391 . S
C1515 C1514 1.386 . S
C1515 C1519 1.393 . S
C1516 H1505 0.950 . S
C1516 C1514 1.391 . S
C1516 C1517 1.400 . S
C1517 C1511 1.491 . S
C1517 C1516 1.400 . S
C1517 C1518 1.398 . S
C1518 H1506 0.950 . S
C1518 C1517 1.398 . S
C1518 C1519 1.391 . S
C1519 H1507 0.950 . S
C1519 C1515 1.393 . S
C1519 C1518 1.391 . S
H1520 C1528 0.950 . S
H1521 C1533 0.950 . S
H1522 C1530 0.950 . S
H1523 C1532 0.950 . S
H1524 C1534 0.950 . S
H1525 C1536 0.950 . S
H1526 C1538 0.950 . S
H1527 C1539 0.950 . S
C1528 H1520 0.950 . S
C1528 C1529 1.386 . S
C1528 C1530 1.391 . S
C1529 C1528 1.386 . S
C1529 C1533 1.393 . S
C1530 H1522 0.950 . S
C1530 C1528 1.391 . S
C1530 C1531 1.400 . S
C1531 C1530 1.400 . S
C1531 C1532 1.398 . S
C1531 C1537 1.491 . S
C1532 H1523 0.950 . S
C1532 C1531 1.398 . S
C1532 C1533 1.391 . S
C1533 H1521 0.950 . S
C1533 C1529 1.393 . S
C1533 C1532 1.391 . S
C1534 H1524 0.950 . S
C1534 C1535 1.386 . S
C1534 C1536 1.391 . S
C1535 C1534 1.386 . S
C1535 C1539 1.393 . S
C1536 H1525 0.950 . S
C1536 C1534 1.391 . S
C1536 C1537 1.400 1_556 S
C1537 C1531 1.491 . S
C1537 C1536 1.400 1_554 S
C1537 C1538 1.398 . S
C1538 H1526 0.950 . S
C1538 C1537 1.398 . S
C1538 C1539 1.391 1_554 S
C1539 H1527 0.950 . S
C1539 C1535 1.393 . S
C1539 C1538 1.391 1_556 S
H1540 C1548 0.950 . S
H1541 C1553 0.950 . S
H1542 C1550 0.950 . S
H1543 C1552 0.950 . S
H1544 C1554 0.950 . S
H1545 C1556 0.950 . S
H1546 C1558 0.950 . S
H1547 C1559 0.950 . S
C1548 H1540 0.950 . S
C1548 C1549 1.386 . S
C1548 C1550 1.391 . S
C1549 C1548 1.386 . S
C1549 C1553 1.393 . S
C1550 H1542 0.950 . S
C1550 C1548 1.391 . S
C1550 C1551 1.400 . S
C1551 C1550 1.400 . S
C1551 C1552 1.398 . S
C1551 C1557 1.491 . S
C1552 H1543 0.950 . S
C1552 C1551 1.398 . S
C1552 C1553 1.391 . S
C1553 H1541 0.950 . S
C1553 C1549 1.393 . S
C1553 C1552 1.391 . S
C1554 H1544 0.950 . S
C1554 C1555 1.386 . S
C1554 C1556 1.391 . S
C1555 C1554 1.386 . S
C1555 C1559 1.393 . S
C1556 H1545 0.950 . S
C1556 C1554 1.391 . S
C1556 C1557 1.400 . S
C1557 C1551 1.491 . S
C1557 C1556 1.400 . S
C1557 C1558 1.398 . S
C1558 H1546 0.950 . S
C1558 C1557 1.398 . S
C1558 C1559 1.391 . S
C1559 H1547 0.950 . S
C1559 C1555 1.393 . S
C1559 C1558 1.391 . S
H1560 C1568 0.950 . S
H1561 C1573 0.950 . S
H1562 C1570 0.950 . S
H1563 C1572 0.950 . S
H1564 C1574 0.950 . S
H1565 C1576 0.950 . S
H1566 C1578 0.950 . S
H1567 C1579 0.950 . S
C1568 H1560 0.950 . S
C1568 C1569 1.386 . S
C1568 C1570 1.391 . S
C1569 C1568 1.386 . S
C1569 C1573 1.393 . S
C1570 H1562 0.950 . S
C1570 C1568 1.391 . S
C1570 C1571 1.400 . S
C1571 C1570 1.400 . S
C1571 C1572 1.398 . S
C1571 C1577 1.491 . S
C1572 H1563 0.950 . S
C1572 C1571 1.398 . S
C1572 C1573 1.391 . S
C1573 H1561 0.950 . S
C1573 C1569 1.393 . S
C1573 C1572 1.391 . S
C1574 H1564 0.950 . S
C1574 C1575 1.386 . S
C1574 C1576 1.391 . S
C1575 C1574 1.386 . S
C1575 C1579 1.393 . S
C1576 H1565 0.950 . S
C1576 C1574 1.391 . S
C1576 C1577 1.400 . S
C1577 C1571 1.491 . S
C1577 C1576 1.400 . S
C1577 C1578 1.398 . S
C1578 H1566 0.950 . S
C1578 C1577 1.398 . S
C1578 C1579 1.391 . S
C1579 H1567 0.950 . S
C1579 C1575 1.393 . S
C1579 C1578 1.391 . S
H1580 C1588 0.950 . S
H1581 C1593 0.950 . S
H1582 C1590 0.950 . S
H1583 C1592 0.950 . S
H1584 C1594 0.950 . S
H1585 C1596 0.950 . S
H1586 C1598 0.950 . S
H1587 C1599 0.950 . S
C1588 H1580 0.950 . S
C1588 C1589 1.386 . S
C1588 C1590 1.391 . S
C1589 C1588 1.386 . S
C1589 C1593 1.393 . S
C1590 H1582 0.950 . S
C1590 C1588 1.391 . S
C1590 C1591 1.400 . S
C1591 C1590 1.400 . S
C1591 C1592 1.398 . S
C1591 C1597 1.491 . S
C1592 H1583 0.950 . S
C1592 C1591 1.398 . S
C1592 C1593 1.391 . S
C1593 H1581 0.950 . S
C1593 C1589 1.393 . S
C1593 C1592 1.391 . S
C1594 H1584 0.950 . S
C1594 C1595 1.386 . S
C1594 C1596 1.391 . S
C1595 C1594 1.386 . S
C1595 C1599 1.393 . S
C1596 H1585 0.950 . S
C1596 C1594 1.391 . S
C1596 C1597 1.400 . S
C1597 C1591 1.491 . S
C1597 C1596 1.400 . S
C1597 C1598 1.398 . S
C1598 H1586 0.950 . S
C1598 C1597 1.398 . S
C1598 C1599 1.391 . S
C1599 H1587 0.950 . S
C1599 C1595 1.393 . S
C1599 C1598 1.391 . S
C649 C7 0.806 . S
C655 C287 0.886 . S
C669 C51 1.019 . S
C675 C167 1.006 . S
C689 C207 0.481 . S
C695 C91 0.398 . S
C709 C131 0.961 . S
C715 C247 0.941 . S
C729 C456 0.944 . S
C735 C162 0.967 . S
C749 C322 2.761 . S
C755 C2 2.703 1_556 S
C769 C416 0.983 . S
C775 C242 1.007 . S
C789 C96 1.997 . S
C795 C362 1.967 . S
C809 C367 0.912 . S
C815 C487 0.824 . S
C829 C411 0.996 . S
C835 C567 1.004 . S
C849 C531 0.447 . S
C855 C327 0.504 . S
C869 C451 0.953 . S
C875 C607 0.921 . S
C889 C562 0.961 . S
C895 C136 0.961 . S
C909 C482 2.704 . S
C915 C202 2.763 . S
C929 C56 0.988 . S
C935 C602 0.981 . S
C949 C282 1.964 . S
C955 C536 1.990 . S
C969 C539 0.451 . S
C975 C10 0.387 . S
C989 C459 0.450 . S
C995 C59 0.473 . S
C1009 C490 0.400 . S
C1015 C99 0.441 . S
C1029 C419 0.531 . S
C1035 C139 0.524 . S
C1049 C170 0.391 . S
C1055 C610 0.455 . S
C1069 C370 0.657 . S
C1075 C210 0.609 . S
C1089 C250 0.441 . S
C1095 C570 0.481 . S
C1109 C290 0.651 . S
C1115 C330 0.620 . S
C1129 C19 1.491 1_455 S
C1135 C179 1.492 . S
C1149 C50 1.369 . S
C1155 C219 1.380 . S
C1169 C259 1.554 . S
C1175 C90 1.553 . S
C1189 C130 1.737 . S
C1195 C299 1.713 . S
C1209 C410 1.399 . S
C1215 C339 1.408 . S
C1229 C450 1.735 . S
C1235 C379 1.711 . S
C1249 C499 1.497 . S
C1255 C579 1.467 . S
C1269 C619 1.563 . S
C1275 C530 1.564 . S
C1289 C11 3.616 . S
C1295 C291 3.632 . S
C1309 C47 1.981 . S
C1315 C171 2.052 . S
C1329 C211 2.890 . S
C1335 C87 2.836 . S
C1349 C251 2.011 . S
C1355 C127 1.924 . S
C1369 C442 2.022 . S
C1375 C176 1.948 . S
C1389 C336 0.524 . S
C1395 C16 0.542 . S
C1409 C402 2.018 . S
C1415 C256 1.935 . S
C1429 C82 0.992 . S
C1435 C376 0.961 . S
C1449 C491 3.617 . S
C1455 C371 3.632 1_556 S
C1469 C571 2.051 . S
C1475 C407 1.965 . S
C1489 C527 2.825 . S
C1495 C331 2.889 . S
C1509 C611 2.014 . S
C1515 C447 1.923 . S
C1529 C576 1.940 . S
C1535 C122 2.016 . S
C1549 C216 0.538 . S
C1555 C496 0.523 . S
C1569 C42 2.018 . S
C1575 C616 1.935 . S
C1589 C522 0.991 . S
C1595 C296 0.959 . S
