# Generated by pormake.
# Topology uow, (4)-cn, num edge types: 1
# Building blocks:
#     Node 0, Type 0, BuildingBlock: ESEHIV_clean_sbu_0, # of connection points: 4
#     Node 1, Type 0, BuildingBlock: ESEHIV_clean_sbu_0, # of connection points: 4
#     Node 2, Type 0, BuildingBlock: ESEHIV_clean_sbu_0, # of connection points: 4
#     Node 3, Type 0, BuildingBlock: ESEHIV_clean_sbu_0, # of connection points: 4
#     Node 4, Type 0, BuildingBlock: ESEHIV_clean_sbu_0, # of connection points: 4
#     Node 5, Type 0, BuildingBlock: ESEHIV_clean_sbu_0, # of connection points: 4
#     Node 6, Type 0, BuildingBlock: ESEHIV_clean_sbu_0, # of connection points: 4
#     Node 7, Type 0, BuildingBlock: ESEHIV_clean_sbu_0, # of connection points: 4
#     Node 8, Type 0, BuildingBlock: ESEHIV_clean_sbu_0, # of connection points: 4
#     Node 9, Type 0, BuildingBlock: ESEHIV_clean_sbu_0, # of connection points: 4
#     Node 10, Type 0, BuildingBlock: ESEHIV_clean_sbu_0, # of connection points: 4
#     Node 11, Type 0, BuildingBlock: ESEHIV_clean_sbu_0, # of connection points: 4
#     Node 12, Type 0, BuildingBlock: ESEHIV_clean_sbu_0, # of connection points: 4
#     Node 13, Type 0, BuildingBlock: ESEHIV_clean_sbu_0, # of connection points: 4
#     Node 14, Type 0, BuildingBlock: ESEHIV_clean_sbu_0, # of connection points: 4
#     Node 15, Type 0, BuildingBlock: ESEHIV_clean_sbu_0, # of connection points: 4
#     Node 16, Type 0, BuildingBlock: ESEHIV_clean_sbu_0, # of connection points: 4
#     Node 17, Type 0, BuildingBlock: ESEHIV_clean_sbu_0, # of connection points: 4
#     Node 18, Type 0, BuildingBlock: ESEHIV_clean_sbu_0, # of connection points: 4
#     Node 19, Type 0, BuildingBlock: ESEHIV_clean_sbu_0, # of connection points: 4
#     Node 20, Type 0, BuildingBlock: ESEHIV_clean_sbu_0, # of connection points: 4
#     Node 21, Type 0, BuildingBlock: ESEHIV_clean_sbu_0, # of connection points: 4
#     Node 22, Type 0, BuildingBlock: ESEHIV_clean_sbu_0, # of connection points: 4
#     Node 23, Type 0, BuildingBlock: ESEHIV_clean_sbu_0, # of connection points: 4
#     Node 24, Type 0, BuildingBlock: ESEHIV_clean_sbu_0, # of connection points: 4
#     Node 25, Type 0, BuildingBlock: ESEHIV_clean_sbu_0, # of connection points: 4
#     Node 26, Type 0, BuildingBlock: ESEHIV_clean_sbu_0, # of connection points: 4
#     Node 27, Type 0, BuildingBlock: ESEHIV_clean_sbu_0, # of connection points: 4
#     Node 28, Type 0, BuildingBlock: ESEHIV_clean_sbu_0, # of connection points: 4
#     Node 29, Type 0, BuildingBlock: ESEHIV_clean_sbu_0, # of connection points: 4
#     Node 30, Type 0, BuildingBlock: ESEHIV_clean_sbu_0, # of connection points: 4
#     Node 31, Type 0, BuildingBlock: ESEHIV_clean_sbu_0, # of connection points: 4
#     Edge 32, Type (0, 0), BuildingBlock: UVAHIK_clean_linker_0, # of connection points: 2
#     Edge 33, Type (0, 0), BuildingBlock: UVAHIK_clean_linker_0, # of connection points: 2
#     Edge 34, Type (0, 0), BuildingBlock: UVAHIK_clean_linker_0, # of connection points: 2
#     Edge 35, Type (0, 0), BuildingBlock: UVAHIK_clean_linker_0, # of connection points: 2
#     Edge 36, Type (0, 0), BuildingBlock: UVAHIK_clean_linker_0, # of connection points: 2
#     Edge 37, Type (0, 0), BuildingBlock: UVAHIK_clean_linker_0, # of connection points: 2
#     Edge 38, Type (0, 0), BuildingBlock: UVAHIK_clean_linker_0, # of connection points: 2
#     Edge 39, Type (0, 0), BuildingBlock: UVAHIK_clean_linker_0, # of connection points: 2
#     Edge 40, Type (0, 0), BuildingBlock: UVAHIK_clean_linker_0, # of connection points: 2
#     Edge 41, Type (0, 0), BuildingBlock: UVAHIK_clean_linker_0, # of connection points: 2
#     Edge 42, Type (0, 0), BuildingBlock: UVAHIK_clean_linker_0, # of connection points: 2
#     Edge 43, Type (0, 0), BuildingBlock: UVAHIK_clean_linker_0, # of connection points: 2
#     Edge 44, Type (0, 0), BuildingBlock: UVAHIK_clean_linker_0, # of connection points: 2
#     Edge 45, Type (0, 0), BuildingBlock: UVAHIK_clean_linker_0, # of connection points: 2
#     Edge 46, Type (0, 0), BuildingBlock: UVAHIK_clean_linker_0, # of connection points: 2
#     Edge 47, Type (0, 0), BuildingBlock: UVAHIK_clean_linker_0, # of connection points: 2
#     Edge 48, Type (0, 0), BuildingBlock: UVAHIK_clean_linker_0, # of connection points: 2
#     Edge 49, Type (0, 0), BuildingBlock: UVAHIK_clean_linker_0, # of connection points: 2
#     Edge 50, Type (0, 0), BuildingBlock: UVAHIK_clean_linker_0, # of connection points: 2
#     Edge 51, Type (0, 0), BuildingBlock: UVAHIK_clean_linker_0, # of connection points: 2
#     Edge 52, Type (0, 0), BuildingBlock: UVAHIK_clean_linker_0, # of connection points: 2
#     Edge 53, Type (0, 0), BuildingBlock: UVAHIK_clean_linker_0, # of connection points: 2
#     Edge 54, Type (0, 0), BuildingBlock: UVAHIK_clean_linker_0, # of connection points: 2
#     Edge 55, Type (0, 0), BuildingBlock: UVAHIK_clean_linker_0, # of connection points: 2
#     Edge 56, Type (0, 0), BuildingBlock: UVAHIK_clean_linker_0, # of connection points: 2
#     Edge 57, Type (0, 0), BuildingBlock: UVAHIK_clean_linker_0, # of connection points: 2
#     Edge 58, Type (0, 0), BuildingBlock: UVAHIK_clean_linker_0, # of connection points: 2
#     Edge 59, Type (0, 0), BuildingBlock: UVAHIK_clean_linker_0, # of connection points: 2
#     Edge 60, Type (0, 0), BuildingBlock: UVAHIK_clean_linker_0, # of connection points: 2
#     Edge 61, Type (0, 0), BuildingBlock: UVAHIK_clean_linker_0, # of connection points: 2
#     Edge 62, Type (0, 0), BuildingBlock: UVAHIK_clean_linker_0, # of connection points: 2
#     Edge 63, Type (0, 0), BuildingBlock: UVAHIK_clean_linker_0, # of connection points: 2
#     Edge 64, Type (0, 0), BuildingBlock: UVAHIK_clean_linker_0, # of connection points: 2
#     Edge 65, Type (0, 0), BuildingBlock: UVAHIK_clean_linker_0, # of connection points: 2
#     Edge 66, Type (0, 0), BuildingBlock: UVAHIK_clean_linker_0, # of connection points: 2
#     Edge 67, Type (0, 0), BuildingBlock: UVAHIK_clean_linker_0, # of connection points: 2
#     Edge 68, Type (0, 0), BuildingBlock: UVAHIK_clean_linker_0, # of connection points: 2
#     Edge 69, Type (0, 0), BuildingBlock: UVAHIK_clean_linker_0, # of connection points: 2
#     Edge 70, Type (0, 0), BuildingBlock: UVAHIK_clean_linker_0, # of connection points: 2
#     Edge 71, Type (0, 0), BuildingBlock: UVAHIK_clean_linker_0, # of connection points: 2
#     Edge 72, Type (0, 0), BuildingBlock: UVAHIK_clean_linker_0, # of connection points: 2
#     Edge 73, Type (0, 0), BuildingBlock: UVAHIK_clean_linker_0, # of connection points: 2
#     Edge 74, Type (0, 0), BuildingBlock: UVAHIK_clean_linker_0, # of connection points: 2
#     Edge 75, Type (0, 0), BuildingBlock: UVAHIK_clean_linker_0, # of connection points: 2
#     Edge 76, Type (0, 0), BuildingBlock: UVAHIK_clean_linker_0, # of connection points: 2
#     Edge 77, Type (0, 0), BuildingBlock: UVAHIK_clean_linker_0, # of connection points: 2
#     Edge 78, Type (0, 0), BuildingBlock: UVAHIK_clean_linker_0, # of connection points: 2
#     Edge 79, Type (0, 0), BuildingBlock: UVAHIK_clean_linker_0, # of connection points: 2
#     Edge 80, Type (0, 0), BuildingBlock: UVAHIK_clean_linker_0, # of connection points: 2
#     Edge 81, Type (0, 0), BuildingBlock: UVAHIK_clean_linker_0, # of connection points: 2
#     Edge 82, Type (0, 0), BuildingBlock: UVAHIK_clean_linker_0, # of connection points: 2
#     Edge 83, Type (0, 0), BuildingBlock: UVAHIK_clean_linker_0, # of connection points: 2
#     Edge 84, Type (0, 0), BuildingBlock: UVAHIK_clean_linker_0, # of connection points: 2
#     Edge 85, Type (0, 0), BuildingBlock: UVAHIK_clean_linker_0, # of connection points: 2
#     Edge 86, Type (0, 0), BuildingBlock: UVAHIK_clean_linker_0, # of connection points: 2
#     Edge 87, Type (0, 0), BuildingBlock: UVAHIK_clean_linker_0, # of connection points: 2
#     Edge 88, Type (0, 0), BuildingBlock: UVAHIK_clean_linker_0, # of connection points: 2
#     Edge 89, Type (0, 0), BuildingBlock: UVAHIK_clean_linker_0, # of connection points: 2
#     Edge 90, Type (0, 0), BuildingBlock: UVAHIK_clean_linker_0, # of connection points: 2
#     Edge 91, Type (0, 0), BuildingBlock: UVAHIK_clean_linker_0, # of connection points: 2
#     Edge 92, Type (0, 0), BuildingBlock: UVAHIK_clean_linker_0, # of connection points: 2
#     Edge 93, Type (0, 0), BuildingBlock: UVAHIK_clean_linker_0, # of connection points: 2
#     Edge 94, Type (0, 0), BuildingBlock: UVAHIK_clean_linker_0, # of connection points: 2
#     Edge 95, Type (0, 0), BuildingBlock: UVAHIK_clean_linker_0, # of connection points: 2
# Relax obj value: 0.058
# Max RMSD: 0.239
# Mean RMSD: 0.222
data_MOF--net-uow--node1-ESEHIV_clean_sbu_0--edge1-UVAHIK_clean_linker_0
_symmetry_space_group_name_H-M    P1
_symmetry_Int_Tables_number       1
_symmetry_cell_setting            triclinic
loop_
_symmetry_equiv_pos_as_xyz
'x, y, z'
_cell_length_a     80.763644
_cell_length_b     86.553463
_cell_length_c     62.197662
_cell_angle_alpha  90.084948
_cell_angle_beta   89.981751
_cell_angle_gamma 89.935168
loop_
_atom_site_label
_atom_site_type_symbol
_atom_site_fract_x
_atom_site_fract_y
_atom_site_fract_z
_atom_type_partial_charge
Cu0 Cu 0.08629 0.38241 0.29979 0.0
N1 N 0.10125 0.37142 0.31675 0.0
N2 N 0.11116 0.35435 0.3405 0.0
C3 C 0.09764 0.35952 0.32989 0.0
C4 C 0.12374 0.36341 0.3337 0.0
C5 C 0.11758 0.3739 0.31906 0.0
O6 O 0.0645 0.37499 0.3079 0.0
C7 C 0.08105 0.3809 0.25455 0.0
O8 O 0.06641 0.38665 0.25915 0.0
H9 H 0.08526 0.35498 0.33192 0.0
H10 H 0.12447 0.38279 0.31076 0.0
N11 N 0.08815 0.40341 0.30643 0.0
N12 N 0.08927 0.42923 0.30444 0.0
C13 C 0.08818 0.4158 0.29329 0.0
C14 C 0.08921 0.40913 0.32647 0.0
C15 C 0.0899 0.42498 0.32533 0.0
C16 C 0.05158 0.38337 0.30918 0.0
O17 O 0.05221 0.39781 0.30278 0.0
H18 H 0.08744 0.41494 0.27596 0.0
H19 H 0.08925 0.40221 0.34093 0.0
O20 O 0.09128 0.37841 0.2697 0.0
H21 H 0.13651 0.36245 0.33876 0.0
H22 H 0.09041 0.43276 0.33894 0.0
Cu23 Cu 0.8721 0.82768 0.53263 0.0
N24 N 0.87991 0.82425 0.50458 0.0
N25 N 0.88913 0.82713 0.47087 0.0
C26 C 0.88616 0.83419 0.48993 0.0
C27 C 0.88491 0.81221 0.47386 0.0
C28 C 0.87928 0.81049 0.49455 0.0
O29 O 0.85004 0.83707 0.53209 0.0
C30 C 0.90348 0.83546 0.54854 0.0
O31 O 0.90808 0.82583 0.53331 0.0
H32 H 0.88784 0.84641 0.49292 0.0
H33 H 0.87473 0.79993 0.50168 0.0
N34 N 0.86911 0.80836 0.54519 0.0
N35 N 0.87307 0.78688 0.56443 0.0
C36 C 0.87931 0.80077 0.55868 0.0
C37 C 0.85601 0.79903 0.5423 0.0
C38 C 0.85841 0.78578 0.5541 0.0
C39 C 0.84417 0.84478 0.5164 0.0
O40 O 0.85391 0.84844 0.50032 0.0
H41 H 0.89093 0.80544 0.56433 0.0
H42 H 0.84551 0.80167 0.53214 0.0
O43 O 0.88815 0.83871 0.55046 0.0
H44 H 0.88572 0.80316 0.46187 0.0
H45 H 0.85008 0.776 0.5547 0.0
Cu46 Cu 0.43167 0.63374 0.80216 0.0
N47 N 0.41733 0.64509 0.81958 0.0
N48 N 0.40813 0.66233 0.84361 0.0
C49 C 0.42148 0.65657 0.83319 0.0
C50 C 0.39511 0.65411 0.83618 0.0
C51 C 0.40084 0.6435 0.82136 0.0
O52 O 0.45397 0.63975 0.81046 0.0
C53 C 0.43617 0.63543 0.75672 0.0
O54 O 0.45025 0.62831 0.76045 0.0
H55 H 0.43408 0.66044 0.83557 0.0
H56 H 0.39351 0.63521 0.81248 0.0
N57 N 0.42814 0.61271 0.80736 0.0
N58 N 0.4268 0.58698 0.8038 0.0
C59 C 0.43047 0.60055 0.7941 0.0
C60 C 0.42274 0.60668 0.82598 0.0
C61 C 0.42187 0.59088 0.82385 0.0
C62 C 0.46611 0.63045 0.81215 0.0
O63 O 0.46424 0.61597 0.80628 0.0
H64 H 0.43507 0.60166 0.77784 0.0
H65 H 0.41964 0.61336 0.84014 0.0
O66 O 0.42672 0.63876 0.77242 0.0
H67 H 0.38232 0.65577 0.84083 0.0
H68 H 0.41773 0.58294 0.83614 0.0
Cu69 Cu 0.64363 0.19854 0.03849 0.0
N70 N 0.63131 0.18802 0.01762 0.0
N71 N 0.62181 0.17809 0.98671 0.0
C72 C 0.63405 0.18628 0.99634 0.0
C73 C 0.611 0.17476 1.00261 0.0
C74 C 0.61687 0.18087 0.02152 0.0
O75 O 0.66743 0.19502 0.03571 0.0
C76 C 0.63487 0.17951 0.07502 0.0
O77 O 0.64225 0.16798 0.06515 0.0
H78 H 0.64483 0.19084 0.9882 0.0
H79 H 0.61089 0.18033 0.03707 0.0
N80 N 0.63943 0.21965 0.03619 0.0
N81 N 0.63183 0.24349 0.0461 0.0
C82 C 0.63493 0.22888 0.0526 0.0
C83 C 0.63925 0.22865 0.01859 0.0
C84 C 0.6346 0.24339 0.02466 0.0
C85 C 0.67393 0.18294 0.02755 0.0
O86 O 0.66431 0.17161 0.02116 0.0
H87 H 0.63395 0.22487 0.06901 0.0
H88 H 0.642 0.22469 1.00248 0.0
O89 O 0.63501 0.19288 0.06658 0.0
H90 H 0.59942 0.16862 1.00074 0.0
H91 H 0.63296 0.25313 0.01399 0.0
Cu92 Cu 0.07675 0.63304 0.23802 0.0
N93 N 0.09159 0.64553 0.223 0.0
N94 N 0.1015 0.6627 0.19946 0.0
C95 C 0.08821 0.65437 0.20573 0.0
C96 C 0.1137 0.65886 0.21331 0.0
C97 C 0.10755 0.64825 0.22778 0.0
O98 O 0.05479 0.63938 0.22873 0.0
C99 C 0.07143 0.6305 0.28348 0.0
O100 O 0.05877 0.62174 0.2783 0.0
H101 H 0.07609 0.65503 0.19835 0.0
H102 H 0.11416 0.64305 0.24105 0.0
N103 N 0.08061 0.61244 0.2303 0.0
N104 N 0.08306 0.58667 0.23093 0.0
C105 C 0.0809 0.59967 0.24274 0.0
C106 C 0.0828 0.60736 0.21006 0.0
C107 C 0.08429 0.59152 0.21037 0.0
C108 C 0.04302 0.63002 0.22492 0.0
O109 O 0.04493 0.61532 0.22955 0.0
H110 H 0.0791 0.59987 0.25997 0.0
H111 H 0.08303 0.61471 0.196 0.0
O112 O 0.08029 0.63634 0.26864 0.0
H113 H 0.12618 0.66339 0.21304 0.0
H114 H 0.08618 0.58416 0.19651 0.0
Cu115 Cu 0.63684 0.8273 0.48411 0.0
N116 N 0.62432 0.8255 0.5092 0.0
N117 N 0.61385 0.8297 0.54198 0.0
C118 C 0.62596 0.83333 0.52784 0.0
C119 C 0.60433 0.81916 0.53183 0.0
C120 C 0.61082 0.8166 0.51165 0.0
O121 O 0.65848 0.83595 0.49116 0.0
C122 C 0.62431 0.8377 0.44351 0.0
O123 O 0.63505 0.82798 0.43519 0.0
H124 H 0.63552 0.84184 0.5307 0.0
H125 H 0.60589 0.80897 0.49946 0.0
N126 N 0.64019 0.80759 0.47267 0.0
N127 N 0.6366 0.78574 0.45408 0.0
C128 C 0.62938 0.79875 0.46166 0.0
C129 C 0.65463 0.79984 0.4723 0.0
C130 C 0.65247 0.78638 0.46081 0.0
C131 C 0.66873 0.84035 0.47688 0.0
O132 O 0.66416 0.8403 0.45662 0.0
H133 H 0.61673 0.80215 0.4584 0.0
H134 H 0.66604 0.80391 0.47942 0.0
O135 O 0.62396 0.83965 0.46383 0.0
H136 H 0.59344 0.81367 0.53849 0.0
H137 H 0.66192 0.77783 0.45744 0.0
Cu138 Cu 0.43017 0.38539 0.72331 0.0
N139 N 0.41532 0.37404 0.70663 0.0
N140 N 0.40583 0.35675 0.68289 0.0
C141 C 0.4193 0.36259 0.69289 0.0
C142 C 0.39289 0.36492 0.6907 0.0
C143 C 0.39879 0.37557 0.70535 0.0
O144 O 0.452 0.37822 0.71474 0.0
C145 C 0.43622 0.37746 0.76715 0.0
O146 O 0.4517 0.37594 0.76098 0.0
H147 H 0.43189 0.35881 0.69008 0.0
H148 H 0.39157 0.38386 0.71441 0.0
N149 N 0.42756 0.40634 0.71695 0.0
N150 N 0.4269 0.43215 0.7195 0.0
C151 C 0.43003 0.41869 0.72981 0.0
C152 C 0.42267 0.41212 0.69795 0.0
C153 C 0.42223 0.42798 0.69945 0.0
C154 C 0.46466 0.38671 0.71202 0.0
O155 O 0.46391 0.40143 0.7171 0.0
H156 H 0.43426 0.41775 0.74626 0.0
H157 H 0.41956 0.40524 0.684 0.0
O158 O 0.42536 0.38157 0.75349 0.0
H159 H 0.38004 0.36323 0.6864 0.0
H160 H 0.41847 0.43578 0.68677 0.0
Cu161 Cu 0.88134 0.19694 0.9809 0.0
N162 N 0.89519 0.19526 1.00478 0.0
N163 N 0.90577 0.18876 0.03675 0.0
C164 C 0.89236 0.18817 0.02373 0.0
C165 C 0.91737 0.19657 0.02552 0.0
C166 C 0.91081 0.20055 1.00588 0.0
O167 O 0.85879 0.19141 0.98902 0.0
C168 C 0.88901 0.18749 0.938 0.0
O169 O 0.87835 0.19822 0.93235 0.0
H170 H 0.88087 0.1824 0.02765 0.0
H171 H 0.91702 0.20676 0.99313 0.0
N172 N 0.8808 0.21762 0.97242 0.0
N173 N 0.88581 0.2397 0.95506 0.0
C174 C 0.89126 0.22525 0.95929 0.0
C175 C 0.86853 0.22763 0.97689 0.0
C176 C 0.87155 0.24124 0.96619 0.0
C177 C 0.84917 0.18211 0.97927 0.0
O178 O 0.85469 0.17437 0.96256 0.0
H179 H 0.90214 0.22006 0.95212 0.0
H180 H 0.85786 0.22502 0.98675 0.0
O181 O 0.89102 0.18452 0.95788 0.0
H182 H 0.9297 0.1993 0.03115 0.0
H183 H 0.86372 0.25139 0.96629 0.0
Cu184 Cu 0.9759 0.64243 0.72774 0.0
N185 N 0.95709 0.65281 0.7183 0.0
N186 N 0.94021 0.66909 0.70108 0.0
C187 C 0.95591 0.6638 0.70308 0.0
C188 C 0.9313 0.66106 0.71566 0.0
C189 C 0.94174 0.65105 0.72622 0.0
O190 O 0.99505 0.65178 0.71335 0.0
C191 C 0.9755 0.65808 0.7673 0.0
O192 O 0.97731 0.67015 0.75473 0.0
H193 H 0.96635 0.66778 0.69371 0.0
H194 H 0.93845 0.64319 0.73903 0.0
N195 N 0.97341 0.6217 0.71972 0.0
N196 N 0.9733 0.59583 0.71904 0.0
C197 C 0.97687 0.60865 0.73069 0.0
C198 C 0.96735 0.61701 0.70068 0.0
C199 C 0.96729 0.60113 0.70018 0.0
C200 C 1.00569 0.64391 0.70284 0.0
O201 O 1.00488 0.62877 0.70333 0.0
H202 H 0.98206 0.60857 0.74673 0.0
H203 H 0.96324 0.62468 0.68803 0.0
O204 O 0.97587 0.64464 0.75893 0.0
H205 H 0.91823 0.66254 0.71889 0.0
H206 H 0.96285 0.59405 0.68704 0.0
Cu207 Cu 0.12254 0.19356 0.49449 0.0
N208 N 0.1102 0.17852 0.4803 0.0
N209 N 0.09347 0.16666 0.45693 0.0
C210 C 0.09966 0.18033 0.4637 0.0
C211 C 0.1004 0.1559 0.46983 0.0
C212 C 0.11069 0.16325 0.48419 0.0
O213 O 0.11641 0.21357 0.48272 0.0
C214 C 0.12436 0.18207 0.53737 0.0
O215 O 0.13667 0.17373 0.52985 0.0
H216 H 0.09688 0.19141 0.45649 0.0
H217 H 0.11813 0.15786 0.49654 0.0
N218 N 0.14481 0.18997 0.48765 0.0
N219 N 0.17249 0.18955 0.48671 0.0
C220 C 0.1589 0.19271 0.4987 0.0
C221 C 0.1497 0.18488 0.46822 0.0
C222 C 0.1667 0.18461 0.46757 0.0
C223 C 0.12543 0.22547 0.48544 0.0
O224 O 0.13846 0.22448 0.498 0.0
H225 H 0.15921 0.19735 0.51487 0.0
H226 H 0.1414 0.18184 0.45525 0.0
O227 O 0.11731 0.19183 0.52508 0.0
H228 H 0.09808 0.1436 0.46909 0.0
H229 H 0.17423 0.18101 0.45406 0.0
Cu230 Cu 0.54233 0.38154 0.22788 0.0
N231 N 0.56026 0.37741 0.20991 0.0
N232 N 0.57621 0.36532 0.18578 0.0
C233 C 0.56135 0.36568 0.19575 0.0
C234 C 0.58478 0.37734 0.19404 0.0
C235 C 0.57488 0.38479 0.2089 0.0
O236 O 0.52382 0.36994 0.21616 0.0
C237 C 0.54339 0.38066 0.27439 0.0
O238 O 0.53276 0.39216 0.27399 0.0
H239 H 0.55158 0.35731 0.19329 0.0
H240 H 0.57815 0.39477 0.21848 0.0
N241 N 0.53687 0.40253 0.22589 0.0
N242 N 0.53621 0.42834 0.22824 0.0
C243 C 0.54341 0.41517 0.23542 0.0
C244 C 0.52524 0.40792 0.21236 0.0
C245 C 0.52476 0.42374 0.2138 0.0
C246 C 0.50894 0.37111 0.22267 0.0
O247 O 0.50569 0.3794 0.23987 0.0
H248 H 0.55345 0.41473 0.24693 0.0
H249 H 0.51774 0.4008 0.20192 0.0
O250 O 0.54838 0.3748 0.25675 0.0
H251 H 0.59728 0.38054 0.18965 0.0
H252 H 0.51651 0.43126 0.20494 0.0
Cu253 Cu 0.39346 0.82506 0.99187 0.0
N254 N 0.40641 0.83962 0.97765 0.0
N255 N 0.42526 0.85045 0.95608 0.0
C256 C 0.419 0.83708 0.96388 0.0
C257 C 0.41616 0.86174 0.96537 0.0
C258 C 0.40457 0.85503 0.97863 0.0
O259 O 0.40023 0.80469 0.98211 0.0
C260 C 0.41069 0.82573 0.031 0.0
O261 O 0.42265 0.82025 0.01886 0.0
H262 H 0.42349 0.82566 0.95981 0.0
H263 H 0.39529 0.86093 0.98813 0.0
N264 N 0.37149 0.82835 0.98362 0.0
N265 N 0.34382 0.82861 0.98211 0.0
C266 C 0.35729 0.82565 0.99441 0.0
C267 C 0.36686 0.83325 0.96403 0.0
C268 C 0.34985 0.83344 0.96303 0.0
C269 C 0.39122 0.79279 0.98468 0.0
O270 O 0.37746 0.79401 0.99583 0.0
H271 H 0.35686 0.82117 0.01063 0.0
H272 H 0.37532 0.83627 0.95123 0.0
O273 O 0.39652 0.82806 0.02261 0.0
H274 H 0.41749 0.87401 0.96251 0.0
H275 H 0.34251 0.8369 0.9493 0.0
Cu276 Cu 0.96759 0.39002 0.78168 0.0
N277 N 0.95101 0.37916 0.79619 0.0
N278 N 0.93774 0.36117 0.81544 0.0
C279 C 0.95247 0.36589 0.80739 0.0
C280 C 0.9267 0.37195 0.80902 0.0
C281 C 0.93487 0.38293 0.79714 0.0
O282 O 0.98879 0.38463 0.79481 0.0
C283 C 0.95349 0.38791 0.74075 0.0
O284 O 0.94249 0.39698 0.74989 0.0
H285 H 0.96406 0.35976 0.80925 0.0
H286 H 0.92943 0.39303 0.78976 0.0
N287 N 0.96371 0.41131 0.78519 0.0
N288 N 0.96467 0.4371 0.78243 0.0
C289 C 0.96972 0.42344 0.77398 0.0
C290 C 0.95454 0.41755 0.80105 0.0
C291 C 0.95509 0.43335 0.7994 0.0
C292 C 0.99125 0.38913 0.81406 0.0
O293 O 0.97962 0.39716 0.82375 0.0
H294 H 0.97791 0.42228 0.7603 0.0
H295 H 0.94814 0.41105 0.81332 0.0
O296 O 0.96625 0.38396 0.75149 0.0
H297 H 0.91363 0.37207 0.81281 0.0
H298 H 0.94884 0.44146 0.8099 0.0
Cu299 Cu 0.39558 0.19532 0.53118 0.0
N300 N 0.40781 0.18129 0.54755 0.0
N301 N 0.42674 0.17132 0.56982 0.0
C302 C 0.42206 0.18382 0.55825 0.0
C303 C 0.41491 0.16061 0.56625 0.0
C304 C 0.40324 0.16681 0.55266 0.0
O305 O 0.40176 0.2159 0.5408 0.0
C306 C 0.40006 0.1786 0.49266 0.0
O307 O 0.39483 0.16714 0.50469 0.0
H308 H 0.42873 0.19465 0.55773 0.0
H309 H 0.39194 0.16132 0.54736 0.0
N310 N 0.37332 0.19235 0.53833 0.0
N311 N 0.34569 0.19002 0.53871 0.0
C312 C 0.35942 0.19158 0.52629 0.0
C313 C 0.36823 0.19133 0.55883 0.0
C314 C 0.35132 0.18991 0.55916 0.0
C315 C 0.39208 0.22743 0.53888 0.0
O316 O 0.37813 0.22574 0.52828 0.0
H317 H 0.35939 0.19223 0.50892 0.0
H318 H 0.37633 0.19188 0.57265 0.0
O319 O 0.40053 0.19214 0.50068 0.0
H320 H 0.41439 0.14928 0.57356 0.0
H321 H 0.34376 0.18931 0.57349 0.0
Cu322 Cu 0.55085 0.63447 0.28426 0.0
N323 N 0.56748 0.64627 0.29703 0.0
N324 N 0.58116 0.6644 0.31553 0.0
C325 C 0.56615 0.65849 0.31039 0.0
C326 C 0.59224 0.65546 0.30499 0.0
C327 C 0.58378 0.6444 0.29356 0.0
O328 O 0.52973 0.63931 0.29815 0.0
C329 C 0.56052 0.6332 0.24032 0.0
O330 O 0.56897 0.62103 0.24651 0.0
H331 H 0.55441 0.66314 0.31577 0.0
H332 H 0.58911 0.63558 0.28333 0.0
N333 N 0.55611 0.61353 0.28866 0.0
N334 N 0.55678 0.58766 0.28765 0.0
C335 C 0.54986 0.60065 0.27944 0.0
C336 C 0.56727 0.60848 0.30308 0.0
C337 C 0.56774 0.59263 0.30249 0.0
C338 C 0.5271 0.6341 0.317 0.0
O339 O 0.53862 0.62569 0.32622 0.0
H340 H 0.54034 0.60081 0.26719 0.0
H341 H 0.5745 0.61583 0.31352 0.0
O342 O 0.55118 0.6401 0.25381 0.0
H343 H 0.60556 0.6567 0.30553 0.0
H344 H 0.57572 0.58534 0.3121 0.0
Cu345 Cu 0.12166 0.81116 0.02783 0.0
N346 N 0.11118 0.82725 0.04232 0.0
N347 N 0.09508 0.84 0.0656 0.0
C348 C 0.09988 0.82601 0.05813 0.0
C349 C 0.10376 0.85037 0.05393 0.0
C350 C 0.11368 0.84246 0.03963 0.0
O351 O 0.11245 0.79199 0.03884 0.0
C352 C 0.10352 0.81324 0.98954 0.0
O353 O 0.09138 0.80932 1.0025 0.0
H354 H 0.09523 0.81506 0.06388 0.0
H355 H 0.12225 0.84742 0.0282 0.0
N356 N 0.144 0.81161 0.03552 0.0
N357 N 0.17159 0.81393 0.0362 0.0
C358 C 0.15773 0.81482 0.02398 0.0
C359 C 0.14935 0.80855 0.05552 0.0
C360 C 0.16627 0.80994 0.05601 0.0
C361 C 0.12008 0.77916 0.0374 0.0
O362 O 0.1337 0.77839 0.02589 0.0
H363 H 0.15751 0.81791 1.00713 0.0
H364 H 0.14139 0.80545 0.06883 0.0
O365 O 0.11815 0.81407 0.9971 0.0
H366 H 0.10324 0.86279 0.05583 0.0
H367 H 0.17406 0.80789 0.06987 0.0
Cu368 Cu 0.59208 0.88839 0.8018 0.0
N369 N 0.60621 0.8757 0.81779 0.0
N370 N 0.61561 0.85737 0.84006 0.0
C371 C 0.60211 0.86459 0.83202 0.0
C372 C 0.62867 0.86429 0.83052 0.0
C373 C 0.62283 0.87555 0.81683 0.0
O374 O 0.56968 0.88555 0.81232 0.0
C375 C 0.58315 0.88334 0.75771 0.0
O376 O 0.56817 0.88749 0.7636 0.0
H377 H 0.58949 0.8619 0.83643 0.0
H378 H 0.63016 0.88298 0.80662 0.0
N379 N 0.59804 0.90901 0.80627 0.0
N380 N 0.60052 0.93465 0.80284 0.0
C381 C 0.59504 0.9214 0.7937 0.0
C382 C 0.6057 0.91457 0.82383 0.0
C383 C 0.60726 0.93034 0.82177 0.0
C384 C 0.56186 0.87283 0.81107 0.0
O385 O 0.56861 0.86115 0.80076 0.0
H386 H 0.58862 0.92074 0.77845 0.0
H387 H 0.60973 0.90763 0.83729 0.0
O388 O 0.59471 0.8831 0.77159 0.0
H389 H 0.64153 0.86118 0.83278 0.0
H390 H 0.61303 0.93801 0.83331 0.0
Cu391 Cu 0.37129 0.31361 0.03399 0.0
N392 N 0.38249 0.31334 1.00766 0.0
N393 N 0.39325 0.31964 0.97571 0.0
C394 C 0.38239 0.32362 0.99135 0.0
C395 C 0.40033 0.30638 0.98243 0.0
C396 C 0.39368 0.30254 1.00206 0.0
O397 O 0.34826 0.31992 0.03085 0.0
C398 C 0.38036 0.32652 0.07422 0.0
O399 O 0.36678 0.3198 0.0811 0.0
H400 H 0.37492 0.33399 0.9912 0.0
H401 H 0.39697 0.29266 0.0118 0.0
N402 N 0.37078 0.29342 0.04429 0.0
N403 N 0.37699 0.27163 0.0618 0.0
C404 C 0.38142 0.28643 0.05785 0.0
C405 C 0.35927 0.28276 0.0395 0.0
C406 C 0.36305 0.26933 0.05025 0.0
C407 C 0.34266 0.33286 0.02441 0.0
O408 O 0.353 0.34402 0.01954 0.0
H409 H 0.39223 0.29207 0.06449 0.0
H410 H 0.34879 0.2847 0.02901 0.0
O411 O 0.38388 0.32596 0.05428 0.0
H412 H 0.40965 0.29988 0.97376 0.0
H413 H 0.35586 0.25879 0.04988 0.0
Cu414 Cu 0.92936 0.13462 0.29808 0.0
N415 N 0.91472 0.14606 0.31497 0.0
N416 N 0.90522 0.16319 0.33899 0.0
C417 C 0.91871 0.15737 0.32894 0.0
C418 C 0.89227 0.15517 0.33094 0.0
C419 C 0.89818 0.14463 0.31615 0.0
O420 O 0.9515 0.14083 0.30673 0.0
C421 C 0.93571 0.13751 0.2532 0.0
O422 O 0.9506 0.13258 0.25822 0.0
H423 H 0.93131 0.16104 0.33189 0.0
H424 H 0.89095 0.13647 0.3069 0.0
N425 N 0.92632 0.11366 0.30404 0.0
N426 N 0.9243 0.08793 0.30095 0.0
C427 C 0.92577 0.10156 0.29038 0.0
C428 C 0.92517 0.10758 0.32383 0.0
C429 C 0.92394 0.09179 0.32202 0.0
C430 C 0.96373 0.13159 0.30785 0.0
O431 O 0.962 0.1173 0.30107 0.0
H432 H 0.92654 0.10278 0.27311 0.0
H433 H 0.92556 0.11421 0.33858 0.0
O434 O 0.92492 0.13903 0.26797 0.0
H435 H 0.87941 0.1569 0.33521 0.0
H436 H 0.92331 0.08379 0.33534 0.0
Cu437 Cu 0.13813 0.68821 0.54744 0.0
N438 N 0.12944 0.67152 0.53197 0.0
N439 N 0.11959 0.65881 0.50333 0.0
C440 C 0.12513 0.67242 0.51111 0.0
C441 C 0.12044 0.64891 0.52006 0.0
C442 C 0.12663 0.65676 0.53769 0.0
O443 O 0.16179 0.68946 0.54127 0.0
C444 C 0.11367 0.71303 0.54386 0.0
O445 O 0.10924 0.72645 0.53584 0.0
H446 H 0.126 0.68297 0.50185 0.0
H447 H 0.12917 0.65194 0.55335 0.0
N448 N 0.13512 0.68774 0.57723 0.0
N449 N 0.13062 0.69872 0.60931 0.0
C450 C 0.13639 0.70065 0.58914 0.0
C451 C 0.12865 0.67701 0.59042 0.0
C452 C 0.12579 0.68379 0.61024 0.0
C453 C 0.17127 0.67819 0.546 0.0
O454 O 0.16484 0.66598 0.55531 0.0
H455 H 0.14004 0.71165 0.58239 0.0
H456 H 0.1251 0.66548 0.58566 0.0
O457 O 0.12714 0.70687 0.53718 0.0
H458 H 0.11724 0.63677 0.51947 0.0
H459 H 0.11985 0.67835 0.62385 0.0
Cu460 Cu 0.59582 0.13621 0.72057 0.0
N461 N 0.60937 0.1486 0.70333 0.0
N462 N 0.61793 0.16628 0.67954 0.0
C463 C 0.60475 0.15905 0.68841 0.0
C464 C 0.63131 0.16003 0.68924 0.0
C465 C 0.62599 0.14918 0.70388 0.0
O466 O 0.57314 0.13867 0.71096 0.0
C467 C 0.58954 0.1382 0.76565 0.0
O468 O 0.57677 0.1293 0.76141 0.0
H469 H 0.592 0.16129 0.68413 0.0
H470 H 0.63368 0.14231 0.71443 0.0
N471 N 0.60194 0.1155 0.71692 0.0
N472 N 0.60405 0.08985 0.72088 0.0
C473 C 0.59817 0.1032 0.72931 0.0
C474 C 0.6105 0.10974 0.70018 0.0
C475 C 0.61183 0.09398 0.70256 0.0
C476 C 0.56548 0.1515 0.71197 0.0
O477 O 0.57265 0.16334 0.72137 0.0
H478 H 0.59093 0.10398 0.7439 0.0
H479 H 0.61528 0.11655 0.687 0.0
O480 O 0.5989 0.14249 0.75034 0.0
H481 H 0.64404 0.16336 0.68644 0.0
H482 H 0.61815 0.08619 0.69166 0.0
Cu483 Cu 0.13572 0.31834 0.9831 0.0
N484 N 0.12171 0.3224 1.00632 0.0
N485 N 0.11132 0.33044 0.03775 0.0
C486 C 0.12509 0.32903 0.02547 0.0
C487 C 0.09894 0.32439 0.02585 0.0
C488 C 0.10538 0.31945 1.00655 0.0
O489 O 0.15851 0.32365 0.99025 0.0
C490 C 0.1203 0.34212 0.95917 0.0
O491 O 0.12097 0.34962 0.97754 0.0
H492 H 0.13728 0.33301 0.03008 0.0
H493 H 0.09863 0.31414 0.99346 0.0
N494 N 0.13511 0.29718 0.97769 0.0
N495 N 0.13016 0.27434 0.96216 0.0
C496 C 0.1276 0.28977 0.96131 0.0
C497 C 0.14257 0.28612 0.98935 0.0
C498 C 0.13957 0.27203 0.97982 0.0
C499 C 0.16717 0.33425 0.98162 0.0
O500 O 0.16049 0.34314 0.96688 0.0
H501 H 0.12074 0.29563 0.94879 0.0
H502 H 0.14978 0.28821 1.00372 0.0
O503 O 0.12697 0.32882 0.95785 0.0
H504 H 0.08613 0.32344 0.0308 0.0
H505 H 0.14391 0.26094 0.98553 0.0
Cu506 Cu 0.93237 0.88681 0.21792 0.0
N507 N 0.91944 0.87425 0.20011 0.0
N508 N 0.91187 0.85599 0.1765 0.0
C509 C 0.92456 0.86255 0.1874 0.0
C510 C 0.89828 0.86399 0.18267 0.0
C511 C 0.90299 0.87519 0.19718 0.0
O512 O 0.95526 0.88413 0.20947 0.0
C513 C 0.93705 0.88547 0.26351 0.0
O514 O 0.94945 0.89498 0.26019 0.0
H515 H 0.93732 0.85884 0.18634 0.0
H516 H 0.89501 0.88355 0.20497 0.0
N517 N 0.92652 0.90745 0.21324 0.0
N518 N 0.92363 0.93305 0.21663 0.0
C519 C 0.92783 0.91971 0.22656 0.0
C520 C 0.92125 0.91322 0.19438 0.0
C521 C 0.91946 0.92897 0.1964 0.0
C522 C 0.96334 0.87179 0.21311 0.0
O523 O 0.95643 0.86078 0.22452 0.0
H524 H 0.93228 0.91895 0.24293 0.0
H525 H 0.91919 0.90645 0.18 0.0
O526 O 0.9285 0.8808 0.24759 0.0
H527 H 0.88581 0.86209 0.17689 0.0
H528 H 0.91544 0.93682 0.18391 0.0
Cu529 Cu 0.37701 0.69485 0.48508 0.0
N530 N 0.39044 0.68855 0.50794 0.0
N531 N 0.40058 0.6799 0.53916 0.0
C532 C 0.38674 0.68349 0.5279 0.0
C533 C 0.41333 0.68301 0.52583 0.0
C534 C 0.40706 0.68835 0.50672 0.0
O535 O 0.35346 0.69111 0.48986 0.0
C536 C 0.39169 0.67193 0.45846 0.0
O537 O 0.39004 0.66317 0.47556 0.0
H538 H 0.37424 0.68227 0.53391 0.0
H539 H 0.41411 0.69183 0.49275 0.0
N540 N 0.37949 0.7161 0.48224 0.0
N541 N 0.38551 0.73923 0.46849 0.0
C542 C 0.38656 0.72377 0.46582 0.0
C543 C 0.37386 0.72701 0.49581 0.0
C544 C 0.37753 0.74131 0.48735 0.0
C545 C 0.34675 0.67888 0.49713 0.0
O546 O 0.35605 0.66684 0.50157 0.0
H547 H 0.39191 0.71812 0.45191 0.0
H548 H 0.36735 0.72469 0.51065 0.0
O549 O 0.38568 0.68554 0.45879 0.0
H550 H 0.42632 0.68173 0.52969 0.0
H551 H 0.37452 0.75237 0.49451 0.0
Cu552 Cu 0.48058 0.13976 0.24397 0.0
N553 N 0.46313 0.14497 0.22582 0.0
N554 N 0.44711 0.15775 0.20255 0.0
C555 C 0.46114 0.15806 0.21442 0.0
C556 C 0.44007 0.14393 0.20676 0.0
C557 C 0.44997 0.1361 0.22111 0.0
O558 O 0.50013 0.1508 0.23401 0.0
C559 C 0.47757 0.13847 0.29042 0.0
O560 O 0.48695 0.12608 0.28958 0.0
H561 H 0.46994 0.16748 0.21456 0.0
H562 H 0.44777 0.12471 0.22765 0.0
N563 N 0.48475 0.11859 0.24027 0.0
N564 N 0.48501 0.09276 0.24207 0.0
C565 C 0.47867 0.10599 0.25035 0.0
C566 C 0.49487 0.11308 0.22489 0.0
C567 C 0.49515 0.09725 0.22601 0.0
C568 C 0.51468 0.14629 0.23883 0.0
O569 O 0.51648 0.13513 0.25294 0.0
H570 H 0.46988 0.10652 0.26347 0.0
H571 H 0.50152 0.12015 0.21345 0.0
O572 O 0.47414 0.14569 0.27315 0.0
H573 H 0.42849 0.13982 0.20015 0.0
H574 H 0.50203 0.08963 0.21548 0.0
Cu575 Cu 0.62676 0.6951 0.99565 0.0
N576 N 0.61388 0.68039 0.98142 0.0
N577 N 0.59682 0.66848 0.9585 0.0
C578 C 0.6036 0.6821 0.9645 0.0
C579 C 0.60299 0.65791 0.97228 0.0
C580 C 0.61345 0.66529 0.98638 0.0
O581 O 0.6233 0.71528 0.98245 0.0
C582 C 0.62677 0.68706 0.04035 0.0
O583 O 0.64079 0.68002 0.03599 0.0
H584 H 0.60135 0.69303 0.95659 0.0
H585 H 0.62037 0.66003 0.99935 0.0
N586 N 0.64904 0.68944 0.99208 0.0
N587 N 0.67673 0.6892 0.99193 0.0
C588 C 0.66295 0.69561 1.00056 0.0
C589 C 0.65429 0.67881 0.9778 0.0
C590 C 0.67129 0.67865 0.97764 0.0
C591 C 0.62817 0.71725 0.96316 0.0
O592 O 0.63515 0.70561 0.95303 0.0
H593 H 0.66298 0.7049 0.01222 0.0
H594 H 0.64627 0.67195 0.96767 0.0
O595 O 0.61951 0.69474 0.02565 0.0
H596 H 0.60001 0.64572 0.97236 0.0
H597 H 0.67909 0.67137 0.96771 0.0
Cu598 Cu 0.05413 0.87241 0.73569 0.0
N599 N 0.07141 0.86013 0.72498 0.0
N600 N 0.08574 0.83998 0.71209 0.0
C601 C 0.07071 0.84532 0.71826 0.0
C602 C 0.09624 0.8519 0.71522 0.0
C603 C 0.0874 0.86425 0.72319 0.0
O604 O 0.03367 0.86689 0.72067 0.0
C605 C 0.06611 0.8725 0.77762 0.0
O606 O 0.078 0.88018 0.76799 0.0
H607 H 0.05937 0.83869 0.71776 0.0
H608 H 0.09233 0.87542 0.72758 0.0
N609 N 0.05871 0.89322 0.72962 0.0
N610 N 0.0587 0.91911 0.72956 0.0
C611 C 0.05379 0.90616 0.74 0.0
C612 C 0.06702 0.89818 0.7122 0.0
C613 C 0.06706 0.91406 0.71213 0.0
C614 C 0.03434 0.86612 0.70021 0.0
O615 O 0.04856 0.86883 0.69067 0.0
H616 H 0.0464 0.90608 0.75452 0.0
H617 H 0.07248 0.89074 0.70016 0.0
O618 O 0.05345 0.86859 0.76664 0.0
H619 H 0.10946 0.85168 0.7124 0.0
H620 H 0.07286 0.92132 0.70015 0.0
Cu621 Cu 0.89255 0.32246 0.49578 0.0
N622 N 0.90628 0.33706 0.48298 0.0
N623 N 0.92482 0.34825 0.46142 0.0
C624 C 0.91556 0.33553 0.4651 0.0
C625 C 0.92114 0.35813 0.47754 0.0
C626 C 0.90968 0.3512 0.49078 0.0
O627 O 0.89878 0.30222 0.48486 0.0
C628 C 0.90983 0.32227 0.53467 0.0
O629 O 0.9217 0.31723 0.52202 0.0
H630 H 0.91591 0.32513 0.45542 0.0
H631 H 0.9044 0.35599 0.50532 0.0
N632 N 0.87079 0.32659 0.48735 0.0
N633 N 0.84316 0.32788 0.48579 0.0
C634 C 0.85649 0.32498 0.49835 0.0
C635 C 0.86636 0.33074 0.46735 0.0
C636 C 0.84938 0.33155 0.46632 0.0
C637 C 0.88908 0.29067 0.4859 0.0
O638 O 0.875 0.29208 0.4963 0.0
H639 H 0.85586 0.32122 0.51493 0.0
H640 H 0.87495 0.33274 0.45429 0.0
O641 O 0.89549 0.32451 0.52671 0.0
H642 H 0.9264 0.36952 0.47967 0.0
H643 H 0.84215 0.33458 0.45228 0.0
Cu644 Cu 0.45991 0.88642 0.28447 0.0
N645 N 0.44349 0.87436 0.29731 0.0
N646 N 0.43027 0.85747 0.31831 0.0
C647 C 0.44514 0.86293 0.31186 0.0
C648 C 0.41891 0.8657 0.30729 0.0
C649 C 0.42708 0.87605 0.29436 0.0
O650 O 0.48114 0.88173 0.29796 0.0
C651 C 0.44798 0.88657 0.24203 0.0
O652 O 0.4371 0.89609 0.25049 0.0
H653 H 0.45695 0.85899 0.31801 0.0
H654 H 0.42143 0.88447 0.28385 0.0
N655 N 0.45451 0.9072 0.28943 0.0
N656 N 0.45309 0.93301 0.28806 0.0
C657 C 0.46017 0.92011 0.27977 0.0
C658 C 0.44364 0.91212 0.30434 0.0
C659 C 0.44273 0.92795 0.30353 0.0
C660 C 0.48302 0.88512 0.31775 0.0
O661 O 0.4707 0.89174 0.32805 0.0
H662 H 0.46914 0.92001 0.26683 0.0
H663 H 0.43696 0.90468 0.31526 0.0
O664 O 0.45972 0.88153 0.2538 0.0
H665 H 0.40562 0.86433 0.30848 0.0
H666 H 0.43524 0.93518 0.31391 0.0
Cu667 Cu 0.9003 0.69638 0.01865 0.0
N668 N 0.91495 0.68302 0.03269 0.0
N669 N 0.93049 0.67148 0.05769 0.0
C670 C 0.92131 0.68404 0.05271 0.0
C671 C 0.92994 0.66231 0.04016 0.0
C672 C 0.9204 0.66945 0.02481 0.0
O673 O 0.90161 0.71682 0.03152 0.0
C674 C 0.90214 0.685 0.97618 0.0
O675 O 0.89273 0.67408 0.98426 0.0
H676 H 0.91889 0.69356 0.06358 0.0
H677 H 0.91746 0.66492 1.00908 0.0
N678 N 0.87881 0.689 0.02324 0.0
N679 N 0.85124 0.68734 0.02544 0.0
C680 C 0.8642 0.69486 0.01651 0.0
C681 C 0.8749 0.67739 0.03666 0.0
C682 C 0.85795 0.67634 0.03807 0.0
C683 C 0.91512 0.72393 0.03511 0.0
O684 O 0.92914 0.71769 0.02879 0.0
H685 H 0.8631 0.7048 1.00607 0.0
H686 H 0.88381 0.67045 0.04535 0.0
O687 O 0.90617 0.69638 0.98811 0.0
H688 H 0.93606 0.65123 0.03853 0.0
H689 H 0.85106 0.66823 0.04782 0.0
Cu690 Cu 0.0499 0.12633 0.78253 0.0
N691 N 0.06671 0.13766 0.79573 0.0
N692 N 0.08066 0.15442 0.81622 0.0
C693 C 0.06556 0.14925 0.81018 0.0
C694 C 0.09163 0.14579 0.80504 0.0
C695 C 0.083 0.13552 0.79242 0.0
O696 O 0.02898 0.1313 0.79651 0.0
C697 C 0.0604 0.12489 0.73907 0.0
O698 O 0.06901 0.113 0.74594 0.0
H699 H 0.05392 0.15361 0.81634 0.0
H700 H 0.08821 0.12703 0.78158 0.0
N701 N 0.05424 0.10535 0.78764 0.0
N702 N 0.05451 0.07947 0.78693 0.0
C703 C 0.04919 0.09253 0.7771 0.0
C704 C 0.06295 0.10019 0.8046 0.0
C705 C 0.06317 0.08432 0.8042 0.0
C706 C 0.02042 0.14342 0.79326 0.0
O707 O 0.02529 0.15341 0.77869 0.0
H708 H 0.04158 0.09277 0.76277 0.0
H709 H 0.06866 0.10752 0.81658 0.0
O710 O 0.05061 0.13177 0.75202 0.0
H711 H 0.10496 0.14695 0.80569 0.0
H712 H 0.06942 0.07693 0.81565 0.0
Cu713 Cu 0.61989 0.32588 0.51822 0.0
N714 N 0.60447 0.33893 0.53141 0.0
N715 N 0.58542 0.34873 0.55364 0.0
C716 C 0.59606 0.33695 0.54993 0.0
C717 C 0.58729 0.35846 0.5369 0.0
C718 C 0.59904 0.3524 0.52327 0.0
O719 O 0.61845 0.3054 0.53116 0.0
C720 C 0.61943 0.33688 0.47559 0.0
O721 O 0.62944 0.34729 0.48376 0.0
H722 H 0.59735 0.32692 0.56017 0.0
H723 H 0.60324 0.35743 0.50834 0.0
N724 N 0.64111 0.33387 0.52308 0.0
N725 N 0.66861 0.33653 0.52498 0.0
C726 C 0.65592 0.32799 0.51721 0.0
C727 C 0.64456 0.34654 0.5348 0.0
C728 C 0.66147 0.3482 0.53601 0.0
C729 C 0.62393 0.30369 0.55023 0.0
O730 O 0.63031 0.31571 0.56013 0.0
H731 H 0.65734 0.31747 0.50798 0.0
H732 H 0.63538 0.35392 0.54223 0.0
O733 O 0.61449 0.32585 0.48756 0.0
H734 H 0.58067 0.36922 0.5347 0.0
H735 H 0.66801 0.35734 0.54432 0.0
C736 C 0.07387 0.37889 0.21537 0.0
C737 C 0.08546 0.37697 0.23201 0.0
C738 C 0.07785 0.37482 0.19421 0.0
C739 C 0.10675 0.35055 0.16244 0.0
H740 H 0.09053 0.37515 0.11483 0.0
C741 C 0.12315 0.33653 0.07359 0.0
C742 C 0.10986 0.33704 0.05901 0.0
C743 C 0.12133 0.34228 0.09455 0.0
C744 C 0.09507 0.3681 0.12794 0.0
H745 H 0.11048 0.36947 0.2393 0.0
H746 H 0.11748 0.36257 0.20237 0.0
H747 H 0.08518 0.38352 0.15163 0.0
H748 H 0.08443 0.34452 0.05486 0.0
H749 H 0.08121 0.35435 0.09127 0.0
H750 H 0.11655 0.33508 0.13868 0.0
C751 C 0.1052 0.367 0.20573 0.0
C752 C 0.09198 0.37289 0.14906 0.0
C753 C 0.10121 0.37104 0.22691 0.0
C754 C 0.09485 0.34374 0.06573 0.0
C755 C 0.09306 0.34956 0.08657 0.0
C756 C 0.10989 0.34579 0.1413 0.0
C757 C 0.09355 0.36877 0.1891 0.0
C758 C 0.0976 0.36408 0.1666 0.0
C759 C 0.10622 0.34879 0.10132 0.0
C760 C 0.10391 0.35441 0.12379 0.0
H761 H 0.0616 0.38337 0.2187 0.0
H762 H 0.06847 0.37614 0.18191 0.0
H763 H 0.1111 0.34337 0.17551 0.0
H764 H 0.13484 0.33137 0.06897 0.0
H765 H 0.13175 0.34163 0.10546 0.0
C766 C 0.92141 0.86823 0.28868 0.0
C767 C 0.93303 0.88009 0.28555 0.0
C768 C 0.91766 0.863 0.30936 0.0
C769 C 0.91824 0.87406 0.36648 0.0
H770 H 0.91472 0.8299 0.3757 0.0
C771 C 0.90505 0.84689 0.45062 0.0
C772 C 0.89447 0.834 0.45089 0.0
C773 C 0.91063 0.85304 0.43104 0.0
C774 C 0.91546 0.84228 0.3734 0.0
H775 H 0.9497 0.89588 0.30183 0.0
H776 H 0.94302 0.88678 0.33805 0.0
H777 H 0.92272 0.8396 0.34051 0.0
H778 H 0.8808 0.81801 0.43078 0.0
H779 H 0.89026 0.82871 0.39695 0.0
H780 H 0.91063 0.87673 0.39932 0.0
C781 C 0.93683 0.88155 0.32442 0.0
C782 C 0.92009 0.84783 0.3532 0.0
C783 C 0.94071 0.8867 0.30367 0.0
C784 C 0.88927 0.82768 0.4312 0.0
C785 C 0.89474 0.83383 0.41174 0.0
C786 C 0.91347 0.8685 0.38673 0.0
C787 C 0.92534 0.86957 0.32748 0.0
C788 C 0.92132 0.86378 0.3494 0.0
C789 C 0.90567 0.84645 0.41134 0.0
C790 C 0.91178 0.85252 0.39034 0.0
H791 H 0.91523 0.86288 0.27512 0.0
H792 H 0.90859 0.85388 0.31118 0.0
H793 H 0.91899 0.88643 0.36402 0.0
H794 H 0.90931 0.85198 0.46553 0.0
H795 H 0.91911 0.86272 0.43136 0.0
C796 C 0.41629 0.64735 0.73044 0.0
C797 C 0.43121 0.63945 0.73442 0.0
C798 C 0.41159 0.65111 0.70943 0.0
C799 C 0.41924 0.64051 0.65256 0.0
H800 H 0.40108 0.68106 0.64038 0.0
C801 C 0.41557 0.66489 0.56672 0.0
C802 C 0.40189 0.674 0.5608 0.0
C803 C 0.4176 0.65992 0.58789 0.0
C804 C 0.40588 0.6696 0.64353 0.0
H805 H 0.45287 0.6293 0.71934 0.0
H806 H 0.44473 0.63594 0.68276 0.0
H807 H 0.40784 0.67403 0.67734 0.0
H808 H 0.37938 0.68473 0.57251 0.0
H809 H 0.38281 0.67588 0.60966 0.0
H810 H 0.41746 0.63612 0.61877 0.0
C811 C 0.43656 0.63909 0.69587 0.0
C812 C 0.40979 0.66557 0.66474 0.0
C813 C 0.44129 0.63537 0.71688 0.0
C814 C 0.39002 0.67768 0.57653 0.0
C815 C 0.39208 0.67274 0.59784 0.0
C816 C 0.41532 0.64452 0.63139 0.0
C817 C 0.42165 0.647 0.69187 0.0
C818 C 0.41673 0.65105 0.66947 0.0
C819 C 0.40598 0.6639 0.6038 0.0
C820 C 0.40881 0.6592 0.62656 0.0
H821 H 0.4082 0.65065 0.74356 0.0
H822 H 0.39995 0.65706 0.70692 0.0
H823 H 0.42424 0.62912 0.65567 0.0
H824 H 0.42483 0.66164 0.55497 0.0
H825 H 0.42854 0.65328 0.59189 0.0
C826 C 0.6058 0.15368 0.79257 0.0
C827 C 0.59336 0.14275 0.78814 0.0
C828 C 0.60966 0.1577 0.8138 0.0
C829 C 0.60716 0.14306 0.86927 0.0
H830 H 0.61293 0.18592 0.88585 0.0
C831 C 0.60989 0.16154 0.95813 0.0
C832 C 0.6202 0.17387 0.96427 0.0
C833 C 0.60764 0.15777 0.93649 0.0
C834 C 0.61164 0.17387 0.88146 0.0
H835 H 0.57519 0.12755 0.80263 0.0
H836 H 0.582 0.1345 0.83963 0.0
H837 H 0.60687 0.17944 0.84845 0.0
H838 H 0.63649 0.19175 0.95209 0.0
H839 H 0.63294 0.18489 0.91429 0.0
H840 H 0.61207 0.13739 0.9021 0.0
C841 C 0.58881 0.13991 0.82666 0.0
C842 C 0.6081 0.17017 0.86001 0.0
C843 C 0.58484 0.136 0.80544 0.0
C844 C 0.62851 0.18214 0.94806 0.0
C845 C 0.62632 0.17831 0.92632 0.0
C846 C 0.61083 0.14673 0.89065 0.0
C847 C 0.6013 0.15077 0.8311 0.0
C848 C 0.60563 0.15473 0.85372 0.0
C849 C 0.61576 0.16612 0.92024 0.0
C850 C 0.61291 0.1622 0.89713 0.0
H851 H 0.6126 0.15912 0.77963 0.0
H852 H 0.61942 0.16602 0.81668 0.0
H853 H 0.60564 0.13103 0.86487 0.0
H854 H 0.60347 0.1547 0.97004 0.0
H855 H 0.59925 0.14845 0.93252 0.0
C856 C 0.06733 0.62549 0.32298 0.0
C857 C 0.07562 0.63338 0.30641 0.0
C858 C 0.07151 0.62806 0.34455 0.0
C859 C 0.09141 0.65658 0.38047 0.0
H860 H 0.09662 0.62194 0.41935 0.0
C861 C 0.12076 0.66414 0.46428 0.0
C862 C 0.11435 0.65558 0.48157 0.0
C863 C 0.11559 0.66123 0.44321 0.0
C864 C 0.09499 0.63178 0.40882 0.0
H865 H 0.09477 0.65025 0.29963 0.0
H866 H 0.10198 0.65476 0.33717 0.0
H867 H 0.0882 0.61735 0.38219 0.0
H868 H 0.09737 0.63724 0.49016 0.0
H869 H 0.08813 0.63227 0.4534 0.0
H870 H 0.09804 0.67104 0.407 0.0
C871 C 0.09219 0.64663 0.3335 0.0
C872 C 0.09019 0.62913 0.38749 0.0
C873 C 0.08811 0.64398 0.31195 0.0
C874 C 0.10268 0.64394 0.47721 0.0
C875 C 0.09741 0.64108 0.45609 0.0
C876 C 0.09611 0.65924 0.4018 0.0
C877 C 0.08398 0.63869 0.35008 0.0
C878 C 0.08849 0.64149 0.373 0.0
C879 C 0.10375 0.64974 0.4388 0.0
C880 C 0.09813 0.64687 0.41625 0.0
H881 H 0.05767 0.61724 0.3193 0.0
H882 H 0.06485 0.62185 0.35693 0.0
H883 H 0.08993 0.66639 0.36985 0.0
H884 H 0.13001 0.67297 0.46696 0.0
H885 H 0.12106 0.6679 0.43033 0.0
C886 C 0.59508 0.83728 0.57161 0.0
C887 C 0.61119 0.83603 0.56319 0.0
C888 C 0.59243 0.84317 0.59227 0.0
C889 C 0.61278 0.84854 0.64451 0.0
H890 H 0.57718 0.87766 0.6551 0.0
C891 C 0.60295 0.87641 0.72809 0.0
C892 C 0.58659 0.87871 0.73515 0.0
C893 C 0.60623 0.87183 0.70693 0.0
C894 C 0.58704 0.86938 0.65252 0.0
H895 H 0.63715 0.83999 0.56993 0.0
H896 H 0.63254 0.85024 0.60616 0.0
H897 H 0.58242 0.86856 0.61862 0.0
H898 H 0.56083 0.87794 0.72544 0.0
H899 H 0.56648 0.86958 0.68873 0.0
H900 H 0.61721 0.84903 0.6784 0.0
C901 C 0.62196 0.84664 0.59671 0.0
C902 C 0.59008 0.86421 0.63156 0.0
C903 C 0.6246 0.84089 0.57591 0.0
C904 C 0.57358 0.87635 0.72051 0.0
C905 C 0.57685 0.87164 0.69938 0.0
C906 C 0.60966 0.8536 0.66551 0.0
C907 C 0.60584 0.84783 0.60512 0.0
C908 C 0.60295 0.85369 0.62732 0.0
C909 C 0.59322 0.86929 0.69229 0.0
C910 C 0.59671 0.86407 0.66983 0.0
H911 H 0.58447 0.83381 0.56215 0.0
H912 H 0.57988 0.84382 0.59833 0.0
H913 H 0.62265 0.84027 0.64181 0.0
H914 H 0.61329 0.87822 0.7389 0.0
H915 H 0.619 0.87042 0.70202 0.0
C916 C 0.38478 0.33633 0.94525 0.0
C917 C 0.39704 0.32787 0.95615 0.0
C918 C 0.38837 0.34354 0.92562 0.0
C919 C 0.42318 0.3575 0.89207 0.0
H920 H 0.39317 0.35104 0.84427 0.0
C921 C 0.44304 0.36794 0.8042 0.0
C922 C 0.43134 0.37379 0.78959 0.0
C923 C 0.43835 0.36389 0.8251 0.0
C924 C 0.40158 0.3532 0.85749 0.0
H925 H 0.42281 0.32088 0.95544 0.0
H926 H 0.42906 0.33338 0.92136 0.0
H927 H 0.38575 0.34158 0.87991 0.0
H928 H 0.40556 0.38026 0.7857 0.0
H929 H 0.39744 0.37342 0.82223 0.0
H930 H 0.43905 0.36904 0.86974 0.0
C931 C 0.41667 0.33445 0.92788 0.0
C932 C 0.39731 0.34775 0.87794 0.0
C933 C 0.41304 0.32714 0.94731 0.0
C934 C 0.41488 0.37572 0.7965 0.0
C935 C 0.4102 0.37171 0.81743 0.0
C936 C 0.4274 0.36302 0.87167 0.0
C937 C 0.40436 0.34261 0.91667 0.0
C938 C 0.40818 0.34962 0.89539 0.0
C939 C 0.42184 0.36563 0.83198 0.0
C940 C 0.41679 0.36073 0.85402 0.0
H941 H 0.37233 0.33704 0.95162 0.0
H942 H 0.37865 0.34984 0.91743 0.0
H943 H 0.43171 0.35934 0.90526 0.0
H944 H 0.45581 0.36625 0.79943 0.0
H945 H 0.44762 0.35903 0.83569 0.0
C946 C 0.89395 0.18078 0.07183 0.0
C947 C 0.90763 0.18225 0.05798 0.0
C948 C 0.89598 0.17501 0.09271 0.0
C949 C 0.92452 0.15197 0.12654 0.0
H950 H 0.90385 0.17362 0.17412 0.0
C951 C 0.94389 0.1412 0.21461 0.0
C952 C 0.93161 0.14158 0.23063 0.0
C953 C 0.94016 0.14538 0.19343 0.0
C954 C 0.90952 0.16727 0.16102 0.0
H955 H 0.93404 0.17832 0.05503 0.0
H956 H 0.93759 0.16836 0.09132 0.0
H957 H 0.89854 0.18205 0.13736 0.0
H958 H 0.90569 0.14645 0.23681 0.0
H959 H 0.89913 0.15349 0.19983 0.0
H960 H 0.93552 0.1372 0.1501 0.0
C961 C 0.92529 0.17165 0.0861 0.0
C962 C 0.90647 0.17213 0.13993 0.0
C963 C 0.92329 0.17753 0.06535 0.0
C964 C 0.91547 0.14609 0.2249 0.0
C965 C 0.91173 0.15022 0.2037 0.0
C966 C 0.9275 0.14707 0.1476 0.0
C967 C 0.9117 0.17041 0.1001 0.0
C968 C 0.91409 0.16465 0.12244 0.0
C969 C 0.92404 0.14999 0.18768 0.0
C970 C 0.9202 0.15476 0.16516 0.0
H971 H 0.88175 0.1844 0.06669 0.0
H972 H 0.88524 0.17409 0.10305 0.0
H973 H 0.93037 0.1458 0.11341 0.0
H974 H 0.95646 0.13785 0.21844 0.0
H975 H 0.95003 0.14528 0.18165 0.0
C976 C 0.9715 0.67504 0.79969 0.0
C977 C 0.97051 0.66033 0.79011 0.0
C978 C 0.965 0.67769 0.82026 0.0
C979 C 0.93307 0.66307 0.85699 0.0
H980 H 0.95546 0.68776 0.90014 0.0
C981 C 0.90714 0.66908 0.9431 0.0
C982 C 0.90935 0.68305 0.95432 0.0
C983 C 0.91472 0.66661 0.92317 0.0
C984 C 0.94889 0.68104 0.88819 0.0
H985 H 0.9623 0.63675 0.79502 0.0
H986 H 0.95088 0.64141 0.83086 0.0
H987 H 0.96906 0.68256 0.86581 0.0
H988 H 0.9211 0.70553 0.95302 0.0
H989 H 0.93395 0.70143 0.91788 0.0
H990 H 0.91276 0.6618 0.87894 0.0
C991 C 0.95664 0.65091 0.82238 0.0
C992 C 0.95675 0.67799 0.86852 0.0
C993 C 0.96332 0.64821 0.8019 0.0
C994 C 0.91914 0.69462 0.94485 0.0
C995 C 0.92664 0.6922 0.92475 0.0
C996 C 0.92514 0.66625 0.87652 0.0
C997 C 0.95718 0.66574 0.83167 0.0
C998 C 0.94898 0.66889 0.85274 0.0
C999 C 0.92464 0.6781 0.91368 0.0
C1000 C 0.93295 0.6752 0.89251 0.0
H1001 H 0.97695 0.68464 0.79108 0.0
H1002 H 0.96555 0.68926 0.82688 0.0
H1003 H 0.9266 0.65628 0.84503 0.0
H1004 H 0.89981 0.65983 0.94993 0.0
H1005 H 0.91308 0.6555 0.91547 0.0
C1006 C 0.10081 0.18145 0.56381 0.0
C1007 C 0.11758 0.17871 0.55905 0.0
C1008 C 0.09399 0.17652 0.58336 0.0
C1009 C 0.10266 0.14908 0.62854 0.0
H1010 H 0.06513 0.16961 0.65488 0.0
C1011 C 0.07003 0.12152 0.70114 0.0
C1012 C 0.06384 0.13122 0.71737 0.0
C1013 C 0.07527 0.12761 0.68146 0.0
C1014 C 0.07573 0.16378 0.64795 0.0
H1015 H 0.14053 0.16941 0.57155 0.0
H1016 H 0.12899 0.16162 0.60599 0.0
H1017 H 0.07766 0.18053 0.62279 0.0
H1018 H 0.05797 0.15493 0.72554 0.0
H1019 H 0.06774 0.1657 0.69161 0.0
H1020 H 0.10141 0.13284 0.65422 0.0
C1021 C 0.12081 0.16693 0.59436 0.0
C1022 C 0.08281 0.16996 0.62923 0.0
C1023 C 0.12752 0.17156 0.57465 0.0
C1024 C 0.06254 0.14713 0.71325 0.0
C1025 C 0.06813 0.1533 0.6937 0.0
C1026 C 0.09579 0.14308 0.64739 0.0
C1027 C 0.10382 0.16895 0.59885 0.0
C1028 C 0.09638 0.16267 0.61916 0.0
C1029 C 0.07489 0.14365 0.67762 0.0
C1030 C 0.08213 0.15023 0.65737 0.0
H1031 H 0.09278 0.18681 0.55203 0.0
H1032 H 0.08085 0.17817 0.58593 0.0
H1033 H 0.11285 0.14286 0.62122 0.0
H1034 H 0.07105 0.10918 0.70377 0.0
H1035 H 0.07982 0.11966 0.66937 0.0
C1036 C 0.59936 0.33012 0.44591 0.0
C1037 C 0.61242 0.33928 0.45373 0.0
C1038 C 0.59171 0.33363 0.42623 0.0
C1039 C 0.58511 0.3666 0.38929 0.0
H1040 H 0.57114 0.3353 0.34856 0.0
C1041 C 0.54565 0.38194 0.31472 0.0
C1042 C 0.55012 0.37491 0.29517 0.0
C1043 C 0.55257 0.37694 0.33417 0.0
C1044 C 0.57503 0.34419 0.35973 0.0
H1045 H 0.62812 0.35893 0.44646 0.0
H1046 H 0.615 0.36488 0.41229 0.0
H1047 H 0.58515 0.3276 0.38172 0.0
H1048 H 0.56523 0.35686 0.28088 0.0
H1049 H 0.57733 0.34823 0.31469 0.0
H1050 H 0.57531 0.38322 0.36725 0.0
C1051 C 0.6104 0.35518 0.42149 0.0
C1052 C 0.58292 0.33976 0.37884 0.0
C1053 C 0.61802 0.35167 0.44107 0.0
C1054 C 0.56147 0.36256 0.29561 0.0
C1055 C 0.56835 0.35753 0.31505 0.0
C1056 C 0.57718 0.37102 0.37028 0.0
C1057 C 0.59694 0.3464 0.41398 0.0
C1058 C 0.58819 0.35093 0.3938 0.0
C1059 C 0.56411 0.36474 0.33458 0.0
C1060 C 0.5721 0.35989 0.35516 0.0
H1061 H 0.5947 0.32052 0.45526 0.0
H1062 H 0.58135 0.32666 0.42099 0.0
H1063 H 0.58877 0.37552 0.40056 0.0
H1064 H 0.53691 0.39145 0.31503 0.0
H1065 H 0.54883 0.38263 0.34891 0.0
C1066 C 0.43114 0.88491 0.2083 0.0
C1067 C 0.44541 0.88063 0.21984 0.0
C1068 C 0.4278 0.8785 0.18812 0.0
C1069 C 0.44679 0.85887 0.14165 0.0
H1070 H 0.40188 0.84519 0.13056 0.0
C1071 C 0.42946 0.8268 0.06313 0.0
C1072 C 0.41419 0.83044 0.05353 0.0
C1073 C 0.43332 0.83214 0.08378 0.0
C1074 C 0.41444 0.84911 0.13323 0.0
H1075 H 0.46759 0.86652 0.21882 0.0
H1076 H 0.46181 0.85542 0.18335 0.0
H1077 H 0.40885 0.85635 0.16537 0.0
H1078 H 0.3909 0.84245 0.05832 0.0
H1079 H 0.39772 0.85201 0.09409 0.0
H1080 H 0.45234 0.85193 0.1094 0.0
C1081 C 0.45321 0.86374 0.19004 0.0
C1082 C 0.41844 0.85549 0.15325 0.0
C1083 C 0.4565 0.87008 0.21038 0.0
C1084 C 0.40274 0.83933 0.06526 0.0
C1085 C 0.40665 0.84478 0.08586 0.0
C1086 C 0.44275 0.8526 0.12155 0.0
C1087 C 0.43868 0.86772 0.17883 0.0
C1088 C 0.43464 0.86053 0.15768 0.0
C1089 C 0.42206 0.84137 0.09536 0.0
C1090 C 0.42649 0.84768 0.11701 0.0
H1091 H 0.42232 0.89303 0.215 0.0
H1092 H 0.41665 0.88201 0.17978 0.0
H1093 H 0.45934 0.86278 0.14447 0.0
H1094 H 0.43855 0.8199 0.05461 0.0
H1095 H 0.44517 0.829 0.09065 0.0
C1096 C 0.93503 0.38469 0.7087 0.0
C1097 C 0.95005 0.38129 0.71913 0.0
C1098 C 0.931 0.3777 0.68912 0.0
C1099 C 0.94871 0.35777 0.64196 0.0
H1100 H 0.90387 0.34267 0.63456 0.0
C1101 C 0.92937 0.32377 0.56595 0.0
C1102 C 0.91374 0.32704 0.55707 0.0
C1103 C 0.93377 0.32946 0.58622 0.0
C1104 C 0.91639 0.34697 0.63621 0.0
H1105 H 0.97281 0.36808 0.71675 0.0
H1106 H 0.96579 0.35592 0.68235 0.0
H1107 H 0.91192 0.35469 0.66843 0.0
H1108 H 0.89036 0.33865 0.56283 0.0
H1109 H 0.89809 0.34878 0.59802 0.0
H1110 H 0.95313 0.35032 0.60964 0.0
C1111 C 0.95714 0.36404 0.68943 0.0
C1112 C 0.92102 0.35385 0.65568 0.0
C1113 C 0.96115 0.37098 0.70916 0.0
C1114 C 0.90246 0.33582 0.56922 0.0
C1115 C 0.9069 0.3416 0.58948 0.0
C1116 C 0.94405 0.35097 0.62242 0.0
C1117 C 0.9419 0.36717 0.67932 0.0
C1118 C 0.9372 0.35942 0.65877 0.0
C1119 C 0.92271 0.33867 0.59815 0.0
C1120 C 0.9278 0.34553 0.61923 0.0
H1121 H 0.92618 0.3926 0.71582 0.0
H1122 H 0.9193 0.38059 0.68162 0.0
H1123 H 0.96122 0.36209 0.64371 0.0
H1124 H 0.93835 0.31697 0.5571 0.0
H1125 H 0.94592 0.32668 0.59251 0.0
C1126 C 0.46317 0.15835 0.31336 0.0
C1127 C 0.47012 0.14351 0.31113 0.0
C1128 C 0.45553 0.16283 0.33262 0.0
C1129 C 0.43378 0.14698 0.37917 0.0
H1130 H 0.44438 0.18559 0.40763 0.0
C1131 C 0.41021 0.16001 0.46473 0.0
C1132 C 0.40683 0.17532 0.47087 0.0
C1133 C 0.41743 0.15669 0.44482 0.0
C1134 C 0.441 0.17489 0.39976 0.0
H1135 H 0.47448 0.12178 0.3275 0.0
H1136 H 0.46083 0.12951 0.36092 0.0
H1137 H 0.45806 0.17888 0.37385 0.0
H1138 H 0.40813 0.19919 0.46059 0.0
H1139 H 0.42017 0.19341 0.42541 0.0
H1140 H 0.41643 0.14306 0.40448 0.0
C1141 C 0.46141 0.13769 0.34778 0.0
C1142 C 0.44895 0.17102 0.38043 0.0
C1143 C 0.46931 0.1333 0.32867 0.0
C1144 C 0.41061 0.18727 0.45639 0.0
C1145 C 0.41765 0.18393 0.43626 0.0
C1146 C 0.42565 0.15094 0.39827 0.0
C1147 C 0.45437 0.15248 0.34995 0.0
C1148 C 0.44558 0.15692 0.37008 0.0
C1149 C 0.42128 0.16858 0.43022 0.0
C1150 C 0.42929 0.16486 0.40907 0.0
H1151 H 0.4636 0.1665 0.30018 0.0
H1152 H 0.45015 0.17427 0.33379 0.0
H1153 H 0.43071 0.13615 0.37137 0.0
H1154 H 0.40764 0.1505 0.47553 0.0
H1155 H 0.42033 0.14477 0.44117 0.0
C1156 C 0.5696 0.6304 0.20201 0.0
C1157 C 0.56363 0.63984 0.21872 0.0
C1158 C 0.57435 0.63682 0.1823 0.0
C1159 C 0.59219 0.67144 0.15965 0.0
H1160 H 0.57824 0.6551 0.10445 0.0
C1161 C 0.62796 0.67987 0.07939 0.0
C1162 C 0.61861 0.6845 0.06144 0.0
C1163 C 0.62015 0.6761 0.09879 0.0
C1164 C 0.58216 0.65985 0.11975 0.0
H1165 H 0.55778 0.66343 0.22775 0.0
H1166 H 0.56656 0.6747 0.19342 0.0
H1167 H 0.56595 0.64499 0.13763 0.0
H1168 H 0.59373 0.68891 0.04988 0.0
H1169 H 0.58008 0.68188 0.08366 0.0
H1170 H 0.60891 0.68584 0.14182 0.0
C1171 C 0.56732 0.6623 0.19556 0.0
C1172 C 0.57519 0.65402 0.1387 0.0
C1173 C 0.5622 0.65583 0.21513 0.0
C1174 C 0.60129 0.6855 0.06344 0.0
C1175 C 0.59346 0.68138 0.08272 0.0
C1176 C 0.59942 0.67703 0.14072 0.0
C1177 C 0.5736 0.65286 0.17904 0.0
C1178 C 0.58018 0.65971 0.15885 0.0
C1179 C 0.60281 0.67653 0.10054 0.0
C1180 C 0.59453 0.67125 0.12058 0.0
H1181 H 0.57087 0.61805 0.20429 0.0
H1182 H 0.57922 0.62928 0.16989 0.0
H1183 H 0.59637 0.67595 0.17498 0.0
H1184 H 0.64132 0.67898 0.07836 0.0
H1185 H 0.62766 0.67231 0.11223 0.0
C1186 C 0.08354 0.87027 0.81076 0.0
C1187 C 0.06858 0.86704 0.80007 0.0
C1188 C 0.0868 0.86413 0.83109 0.0
C1189 C 0.06742 0.84745 0.87942 0.0
H1190 H 0.1111 0.83006 0.88889 0.0
C1191 C 0.08392 0.81562 0.95839 0.0
C1192 C 0.09983 0.81791 0.96704 0.0
C1193 C 0.07997 0.82094 0.93777 0.0
C1194 C 0.09891 0.83503 0.88668 0.0
H1195 H 0.04508 0.85512 0.80284 0.0
H1196 H 0.05074 0.84449 0.83862 0.0
H1197 H 0.10414 0.84098 0.85396 0.0
H1198 H 0.12411 0.82748 0.96058 0.0
H1199 H 0.11716 0.83702 0.92483 0.0
H1200 H 0.06226 0.8418 0.91224 0.0
C1201 C 0.05995 0.85179 0.83111 0.0
C1202 C 0.0949 0.84127 0.86659 0.0
C1203 C 0.05672 0.85786 0.8106 0.0
C1204 C 0.11177 0.82543 0.95438 0.0
C1205 C 0.10778 0.83085 0.9338 0.0
C1206 C 0.07147 0.84131 0.8996 0.0
C1207 C 0.07516 0.85465 0.84144 0.0
C1208 C 0.07915 0.84763 0.86272 0.0
C1209 C 0.09176 0.82881 0.92525 0.0
C1210 C 0.08731 0.83506 0.90357 0.0
H1211 H 0.09297 0.87733 0.80325 0.0
H1212 H 0.09851 0.8668 0.83872 0.0
H1213 H 0.05524 0.85239 0.87706 0.0
H1214 H 0.07443 0.8098 0.96763 0.0
H1215 H 0.06762 0.81884 0.93166 0.0
C1216 C 0.12449 0.34155 0.37165 0.0
C1217 C 0.11197 0.34191 0.35595 0.0
C1218 C 0.12534 0.32945 0.38651 0.0
C1219 C 0.10054 0.29779 0.41074 0.0
H1220 H 0.14365 0.28116 0.4255 0.0
C1221 C 0.10939 0.24044 0.45774 0.0
C1222 C 0.12237 0.23973 0.47279 0.0
C1223 C 0.10748 0.2534 0.44449 0.0
C1224 C 0.13152 0.28579 0.42179 0.0
H1225 H 0.09059 0.32964 0.34356 0.0
H1226 H 0.09213 0.30853 0.36935 0.0
H1227 H 0.14167 0.30262 0.40037 0.0
H1228 H 0.14317 0.25235 0.48616 0.0
H1229 H 0.13972 0.27493 0.46325 0.0
H1230 H 0.09041 0.2808 0.43205 0.0
C1231 C 0.10114 0.31775 0.37042 0.0
C1232 C 0.13038 0.29812 0.40736 0.0
C1233 C 0.10027 0.32987 0.35558 0.0
C1234 C 0.13308 0.25246 0.47469 0.0
C1235 C 0.13117 0.26538 0.46143 0.0
C1236 C 0.10168 0.28542 0.42517 0.0
C1237 C 0.11373 0.31735 0.38605 0.0
C1238 C 0.11488 0.30429 0.40161 0.0
C1239 C 0.11851 0.26593 0.44594 0.0
C1240 C 0.11719 0.27927 0.43088 0.0
H1241 H 0.13353 0.35073 0.37268 0.0
H1242 H 0.13503 0.32968 0.39854 0.0
H1243 H 0.08841 0.30238 0.40694 0.0
H1244 H 0.10094 0.23084 0.4558 0.0
H1245 H 0.09766 0.25336 0.43263 0.0
C1246 C 0.9328 0.83852 0.56067 0.0
C1247 C 0.91583 0.84063 0.56473 0.0
C1248 C 0.94456 0.84159 0.57657 0.0
C1249 C 0.95157 0.86118 0.62908 0.0
H1250 H 0.9884 0.83246 0.63182 0.0
C1251 C 1.0034 0.86337 0.69506 0.0
C1252 C 0.01961 0.86241 0.68687 0.0
C1253 C 0.98971 0.86051 0.68167 0.0
C1254 C 0.97823 0.84062 0.63125 0.0
H1255 H 0.89797 0.84814 0.58858 0.0
H1256 H 0.91856 0.85337 0.61655 0.0
H1257 H 0.96656 0.82842 0.60552 0.0
H1258 H 0.0341 0.85743 0.65829 0.0
H1259 H 0.01046 0.85231 0.63528 0.0
H1260 H 0.96343 0.87332 0.65501 0.0
C1261 C 0.92277 0.84945 0.60093 0.0
C1262 C 0.96572 0.83836 0.61607 0.0
C1263 C 0.91095 0.84645 0.58489 0.0
C1264 C 0.02182 0.8583 0.66518 0.0
C1265 C 1.00824 0.85527 0.65196 0.0
C1266 C 0.96411 0.86339 0.64443 0.0
C1267 C 0.93972 0.84674 0.5971 0.0
C1268 C 0.95239 0.84878 0.61441 0.0
C1269 C 0.99202 0.85638 0.65996 0.0
C1270 C 0.97775 0.8533 0.64537 0.0
H1271 H 0.93703 0.8342 0.54526 0.0
H1272 H 0.95751 0.83977 0.57277 0.0
H1273 H 0.94154 0.86946 0.62826 0.0
H1274 H 1.00129 0.86657 0.71168 0.0
H1275 H 0.97735 0.86139 0.68832 0.0
C1276 C 0.40923 0.77721 0.95983 0.0
C1277 C 0.39516 0.77824 0.9731 0.0
C1278 C 0.41205 0.76405 0.94727 0.0
C1279 C 0.39962 0.72299 0.94003 0.0
H1280 H 0.41332 0.72991 0.88107 0.0
C1281 C 0.39493 0.67583 0.87434 0.0
C1282 C 0.4078 0.67475 0.85917 0.0
C1283 C 0.39443 0.688 0.88915 0.0
C1284 C 0.40971 0.72773 0.89756 0.0
H1285 H 0.37334 0.76596 0.98407 0.0
H1286 H 0.37819 0.74311 0.96206 0.0
H1287 H 0.41089 0.75174 0.9056 0.0
H1288 H 0.43028 0.68575 0.84781 0.0
H1289 H 0.42955 0.70681 0.87381 0.0
H1290 H 0.39823 0.69898 0.93185 0.0
C1291 C 0.38713 0.75241 0.96149 0.0
C1292 C 0.40834 0.74027 0.91166 0.0
C1293 C 0.38431 0.76557 0.97406 0.0
C1294 C 0.42026 0.6861 0.85934 0.0
C1295 C 0.41974 0.69829 0.87412 0.0
C1296 C 0.40099 0.71045 0.92591 0.0
C1297 C 0.40089 0.75158 0.94767 0.0
C1298 C 0.40316 0.73808 0.93304 0.0
C1299 C 0.40679 0.69943 0.88916 0.0
C1300 C 0.40594 0.71267 0.90445 0.0
H1301 H 0.41789 0.78672 0.95877 0.0
H1302 H 0.42293 0.7637 0.93709 0.0
H1303 H 0.39584 0.72085 0.95647 0.0
H1304 H 0.38523 0.66722 0.87487 0.0
H1305 H 0.38418 0.68859 0.90035 0.0
C1306 C 0.61341 0.18804 0.10162 0.0
C1307 C 0.62482 0.17681 0.09467 0.0
C1308 C 0.60296 0.1852 0.1191 0.0
C1309 C 0.5858 0.15284 0.15171 0.0
H1310 H 0.57011 0.18641 0.18778 0.0
C1311 C 0.54374 0.1427 0.22558 0.0
C1312 C 0.52906 0.15147 0.22584 0.0
C1313 C 0.55655 0.1463 0.2113 0.0
C1314 C 0.57437 0.17694 0.1778 0.0
H1315 H 0.63458 0.15397 0.10117 0.0
H1316 H 0.61683 0.14921 0.13221 0.0
H1317 H 0.59089 0.19149 0.16021 0.0
H1318 H 0.51667 0.17132 0.21194 0.0
H1319 H 0.53929 0.17783 0.18737 0.0
H1320 H 0.56943 0.13829 0.16971 0.0
C1321 C 0.61555 0.16006 0.12375 0.0
C1322 C 0.58623 0.17983 0.16188 0.0
C1323 C 0.62586 0.16283 0.10603 0.0
C1324 C 0.52781 0.16434 0.21216 0.0
C1325 C 0.54077 0.16809 0.19812 0.0
C1326 C 0.57415 0.14992 0.16786 0.0
C1327 C 0.60377 0.17113 0.13037 0.0
C1328 C 0.59196 0.16787 0.14837 0.0
C1329 C 0.55512 0.1589 0.19722 0.0
C1330 C 0.56817 0.16196 0.18091 0.0
H1331 H 0.61216 0.19891 0.09317 0.0
H1332 H 0.5939 0.19392 0.1233 0.0
H1333 H 0.58958 0.14335 0.14147 0.0
H1334 H 0.54511 0.13267 0.23582 0.0
H1335 H 0.56753 0.13909 0.21109 0.0
C1336 C 0.11314 0.68654 0.18356 0.0
C1337 C 0.10229 0.67388 0.18226 0.0
C1338 C 0.11374 0.69752 0.16711 0.0
C1339 C 0.10475 0.70338 0.10967 0.0
H1340 H 0.10656 0.74684 0.12476 0.0
C1341 C 0.12366 0.7518 0.05002 0.0
C1342 C 0.11518 0.76598 0.05128 0.0
C1343 C 0.12048 0.74002 0.06486 0.0
C1344 C 0.10591 0.73476 0.12024 0.0
H1345 H 0.08376 0.66273 0.16241 0.0
H1346 H 0.08483 0.68192 0.1336 0.0
H1347 H 0.10427 0.72749 0.15307 0.0
H1348 H 0.09621 0.77863 0.0687 0.0
H1349 H 0.09069 0.75809 0.09454 0.0
H1350 H 0.10653 0.7107 0.07681 0.0
C1351 C 0.09286 0.68333 0.14741 0.0
C1352 C 0.10477 0.72366 0.13649 0.0
C1353 C 0.09214 0.67241 0.16399 0.0
C1354 C 0.103 0.76787 0.06724 0.0
C1355 C 0.09991 0.75614 0.08217 0.0
C1356 C 0.10604 0.71449 0.0934 0.0
C1357 C 0.10361 0.69606 0.14884 0.0
C1358 C 0.10428 0.70784 0.13142 0.0
C1359 C 0.10883 0.74219 0.08141 0.0
C1360 C 0.10669 0.73032 0.09851 0.0
H1361 H 0.121 0.68812 0.19747 0.0
H1362 H 0.12227 0.70711 0.16861 0.0
H1363 H 0.1045 0.69127 0.10525 0.0
H1364 H 0.13312 0.74994 0.03794 0.0
H1365 H 0.12764 0.72946 0.0639 0.0
C1366 C 0.50025 0.88562 0.35118 0.0
C1367 C 0.49852 0.88131 0.32949 0.0
C1368 C 0.51446 0.88171 0.36276 0.0
C1369 C 0.55822 0.86938 0.35699 0.0
H1370 H 0.55225 0.8555 0.41573 0.0
C1371 C 0.61083 0.84147 0.4075 0.0
C1372 C 0.61141 0.84481 0.42964 0.0
C1373 C 0.59773 0.84682 0.39478 0.0
C1374 C 0.5542 0.85956 0.39946 0.0
H1375 H 0.51058 0.86965 0.30288 0.0
H1376 H 0.53543 0.86266 0.32321 0.0
H1377 H 0.52823 0.86271 0.39442 0.0
H1378 H 0.59893 0.85693 0.45554 0.0
H1379 H 0.57624 0.86643 0.43333 0.0
H1380 H 0.58424 0.8661 0.36209 0.0
C1381 C 0.5258 0.86922 0.33119 0.0
C1382 C 0.54039 0.86368 0.3872 0.0
C1383 C 0.51152 0.87317 0.31955 0.0
C1384 C 0.59886 0.85408 0.43858 0.0
C1385 C 0.58576 0.85943 0.42586 0.0
C1386 C 0.57207 0.86524 0.36929 0.0
C1387 C 0.52737 0.87333 0.35302 0.0
C1388 C 0.5422 0.86871 0.36582 0.0
C1389 C 0.58487 0.85564 0.40387 0.0
C1390 C 0.57024 0.86032 0.39072 0.0
H1391 H 0.49057 0.892 0.35936 0.0
H1392 H 0.51535 0.88533 0.37939 0.0
H1393 H 0.56009 0.87336 0.34067 0.0
H1394 H 0.62026 0.83434 0.40006 0.0
H1395 H 0.5974 0.84357 0.37797 0.0
C1396 C 0.38401 0.25421 0.55035 0.0
C1397 C 0.39548 0.24198 0.55075 0.0
C1398 C 0.38629 0.26727 0.56328 0.0
C1399 C 0.4073 0.27946 0.6132 0.0
H1400 H 0.39523 0.32066 0.59444 0.0
C1401 C 0.41811 0.33323 0.66656 0.0
C1402 C 0.40541 0.34436 0.66727 0.0
C1403 C 0.41765 0.32116 0.65159 0.0
C1404 C 0.39851 0.3092 0.59999 0.0
H1405 H 0.41872 0.2342 0.5645 0.0
H1406 H 0.42281 0.25707 0.58681 0.0
H1407 H 0.3935 0.29908 0.56922 0.0
H1408 H 0.38239 0.35157 0.65238 0.0
H1409 H 0.38144 0.33039 0.62655 0.0
H1410 H 0.41217 0.28951 0.644 0.0
C1411 C 0.41188 0.25644 0.57677 0.0
C1412 C 0.39754 0.29683 0.58552 0.0
C1413 C 0.4096 0.24337 0.56384 0.0
C1414 C 0.39229 0.34314 0.65249 0.0
C1415 C 0.39185 0.33109 0.63748 0.0
C1416 C 0.40829 0.29181 0.62765 0.0
C1417 C 0.40011 0.26844 0.57694 0.0
C1418 C 0.40184 0.28178 0.59197 0.0
C1419 C 0.40449 0.3199 0.63689 0.0
C1420 C 0.40382 0.30684 0.62128 0.0
H1421 H 0.37298 0.25353 0.54049 0.0
H1422 H 0.3769 0.27621 0.56312 0.0
H1423 H 0.41043 0.26799 0.61886 0.0
H1424 H 0.42833 0.33367 0.67778 0.0
H1425 H 0.42769 0.31285 0.65146 0.0
C1426 C 0.99505 0.15911 0.80222 0.0
C1427 C 1.00561 0.14661 0.80678 0.0
C1428 C 0.98149 0.16241 0.81555 0.0
C1429 C 0.96676 0.15724 0.87104 0.0
H1430 H 0.92371 0.16784 0.8478 0.0
C1431 C 0.9111 0.1685 0.9272 0.0
C1432 C 0.90033 0.18064 0.92172 0.0
C1433 C 0.92298 0.16318 0.91252 0.0
C1434 C 0.93569 0.16508 0.8546 0.0
H1435 H 0.01003 0.12767 0.82889 0.0
H1436 H 0.98651 0.1335 0.85213 0.0
H1437 H 0.94635 0.16122 0.82345 0.0
H1438 H 0.89339 0.19646 0.89625 0.0
H1439 H 0.91427 0.18751 0.87095 0.0
H1440 H 0.9564 0.1615 0.90211 0.0
C1441 C 0.98874 0.14078 0.83828 0.0
C1442 C 0.94866 0.16125 0.8406 0.0
C1443 C 1.00217 0.13739 0.82486 0.0
C1444 C 0.90141 0.18702 0.90099 0.0
C1445 C 0.91339 0.18182 0.88639 0.0
C1446 C 0.95386 0.16122 0.88502 0.0
C1447 C 0.97828 0.15338 0.83387 0.0
C1448 C 0.96436 0.15729 0.84866 0.0
C1449 C 0.92454 0.16998 0.89205 0.0
C1450 C 0.93812 0.16522 0.87704 0.0
H1451 H 0.99731 0.16645 0.78844 0.0
H1452 H 0.97374 0.17226 0.81179 0.0
H1453 H 0.97877 0.15447 0.87777 0.0
H1454 H 0.91055 0.16325 0.94298 0.0
H1455 H 0.93105 0.15382 0.91735 0.0
C1456 C 0.945 0.69227 0.67849 0.0
C1457 C 0.9342 0.68105 0.68691 0.0
C1458 C 0.93899 0.7041 0.66529 0.0
C1459 C 0.90065 0.72522 0.6524 0.0
H1460 H 0.92367 0.73697 0.60022 0.0
C1461 C 0.87051 0.76454 0.58899 0.0
C1462 C 0.88043 0.77558 0.57858 0.0
C1463 C 0.87758 0.75347 0.60248 0.0
C1464 C 0.91721 0.73398 0.61489 0.0
H1465 H 0.90866 0.67328 0.6873 0.0
H1466 H 0.89824 0.69391 0.66456 0.0
H1467 H 0.93518 0.71673 0.62312 0.0
H1468 H 0.9057 0.78351 0.57428 0.0
H1469 H 0.91798 0.76442 0.59824 0.0
H1470 H 0.88271 0.74244 0.64431 0.0
C1471 C 0.91131 0.6937 0.66846 0.0
C1472 C 0.9238 0.72237 0.62799 0.0
C1473 C 0.9173 0.68186 0.68154 0.0
C1474 C 0.89764 0.7753 0.58215 0.0
C1475 C 0.90472 0.76423 0.59571 0.0
C1476 C 0.8941 0.73685 0.63938 0.0
C1477 C 0.92205 0.70502 0.6603 0.0
C1478 C 0.91549 0.71775 0.64676 0.0
C1479 C 0.89477 0.75317 0.60603 0.0
C1480 C 0.9022 0.74127 0.62034 0.0
H1481 H 0.95804 0.69216 0.68245 0.0
H1482 H 0.94756 0.71273 0.65939 0.0
H1483 H 0.89411 0.72213 0.66698 0.0
H1484 H 0.85722 0.76447 0.58687 0.0
H1485 H 0.86955 0.74501 0.60993 0.0
C1486 C 0.98032 0.15109 0.32857 0.0
C1487 C 0.97907 0.13635 0.31914 0.0
C1488 C 0.99398 0.15495 0.34131 0.0
C1489 C 0.02571 0.13641 0.37492 0.0
H1490 H 0.04582 0.17707 0.37558 0.0
C1491 C 0.08191 0.14976 0.42861 0.0
C1492 C 0.08194 0.16396 0.43961 0.0
C1493 C 0.07032 0.14683 0.41244 0.0
C1494 C 0.04024 0.1657 0.37572 0.0
H1495 H 0.99163 0.11439 0.31489 0.0
H1496 H 0.0155 0.12118 0.33691 0.0
H1497 H 0.0241 0.17123 0.34946 0.0
H1498 H 0.06991 0.18628 0.44201 0.0
H1499 H 0.04955 0.18113 0.41391 0.0
H1500 H 0.04155 0.13091 0.40134 0.0
C1501 C 1.00577 0.12966 0.33476 0.0
C1502 C 0.02782 0.16235 0.36072 0.0
C1503 C 0.99213 0.1258 0.32201 0.0
C1504 C 0.07032 0.17529 0.43373 0.0
C1505 C 0.05866 0.17233 0.41758 0.0
C1506 C 0.03808 0.13976 0.3899 0.0
C1507 C 1.0067 0.14416 0.34492 0.0
C1508 C 0.02038 0.14766 0.36019 0.0
C1509 C 0.05841 0.15799 0.4069 0.0
C1510 C 0.04548 0.15445 0.39054 0.0
H1511 H 0.97048 0.1595 0.32671 0.0
H1512 H 0.99424 0.16617 0.34902 0.0
H1513 H 0.02003 0.12509 0.37526 0.0
H1514 H 0.0909 0.1409 0.43241 0.0
H1515 H 0.07073 0.13578 0.40425 0.0
C1516 C 0.61821 0.2535 0.07902 0.0
C1517 C 0.62617 0.25624 0.05926 0.0
C1518 C 0.61278 0.26577 0.09184 0.0
C1519 C 0.61867 0.30768 0.1014 0.0
H1520 H 0.57724 0.30358 0.13235 0.0
C1521 C 0.59876 0.35034 0.1685 0.0
C1522 C 0.58186 0.35406 0.17027 0.0
C1523 C 0.60412 0.33896 0.15407 0.0
C1524 C 0.58875 0.30502 0.12367 0.0
H1525 H 0.63465 0.27422 0.03765 0.0
H1526 H 0.62482 0.29562 0.05979 0.0
H1527 H 0.58633 0.28293 0.10857 0.0
H1528 H 0.55744 0.34909 0.15761 0.0
H1529 H 0.56675 0.3294 0.13234 0.0
H1530 H 0.6209 0.32994 0.11621 0.0
C1531 C 0.62299 0.28393 0.06549 0.0
C1532 C 0.59409 0.29306 0.11022 0.0
C1533 C 0.62847 0.27163 0.05265 0.0
C1534 C 0.5705 0.34633 0.15695 0.0
C1535 C 0.57585 0.33501 0.14246 0.0
C1536 C 0.61331 0.31968 0.11483 0.0
C1537 C 0.61506 0.28115 0.08525 0.0
C1538 C 0.60917 0.29417 0.09902 0.0
C1539 C 0.59272 0.33105 0.14097 0.0
C1540 C 0.59831 0.31848 0.12622 0.0
H1541 H 0.61598 0.24186 0.08459 0.0
H1542 H 0.60693 0.26316 0.10707 0.0
H1543 H 0.63042 0.30889 0.09319 0.0
H1544 H 0.60782 0.35593 0.17868 0.0
H1545 H 0.61717 0.33608 0.15361 0.0
C1546 C 0.44734 0.86641 0.93972 0.0
C1547 C 0.43867 0.85235 0.94091 0.0
C1548 C 0.4602 0.86838 0.92496 0.0
C1549 C 0.47779 0.85245 0.87449 0.0
H1550 H 0.51661 0.87551 0.89219 0.0
C1551 C 0.53827 0.85633 0.82392 0.0
C1552 C 0.54631 0.87073 0.82341 0.0
C1553 C 0.52453 0.854 0.83726 0.0
C1554 C 0.50578 0.86919 0.8869 0.0
H1555 H 0.43681 0.82935 0.92717 0.0
H1556 H 0.45953 0.83266 0.90183 0.0
H1557 H 0.49422 0.87132 0.91768 0.0
H1558 H 0.54577 0.89415 0.83592 0.0
H1559 H 0.52182 0.8901 0.859 0.0
H1560 H 0.48956 0.85022 0.84372 0.0
C1561 C 0.4562 0.84225 0.91217 0.0
C1562 C 0.49291 0.86679 0.90152 0.0
C1563 C 0.44327 0.84029 0.92693 0.0
C1564 C 0.53995 0.88288 0.83599 0.0
C1565 C 0.52628 0.88054 0.84935 0.0
C1566 C 0.49073 0.8548 0.85986 0.0
C1567 C 0.46484 0.85633 0.91103 0.0
C1568 C 0.47869 0.85848 0.89549 0.0
C1569 C 0.51858 0.866 0.85043 0.0
C1570 C 0.50482 0.8633 0.86587 0.0
H1571 H 0.44432 0.87592 0.95032 0.0
H1572 H 0.46641 0.87945 0.92436 0.0
H1573 H 0.46694 0.84616 0.8692 0.0
H1574 H 0.54284 0.84672 0.81445 0.0
H1575 H 0.51891 0.84265 0.83781 0.0
C1576 C 0.90993 0.25179 0.93714 0.0
C1577 C 0.89272 0.25065 0.94012 0.0
C1578 C 0.91652 0.2626 0.92272 0.0
C1579 C 0.90576 0.28525 0.87481 0.0
H1580 H 0.93961 0.314 0.89353 0.0
C1581 C 0.91813 0.34159 0.82925 0.0
C1582 C 0.93431 0.34751 0.82806 0.0
C1583 C 0.91457 0.32871 0.8419 0.0
C1584 C 0.93038 0.3059 0.88786 0.0
H1585 H 0.86893 0.25964 0.92993 0.0
H1586 H 0.88036 0.27834 0.90474 0.0
H1587 H 0.93082 0.29319 0.91747 0.0
H1588 H 0.95951 0.34423 0.83928 0.0
H1589 H 0.95338 0.32145 0.86091 0.0
H1590 H 0.90524 0.29778 0.84526 0.0
C1591 C 0.88878 0.27097 0.9136 0.0
C1592 C 0.92533 0.294 0.90162 0.0
C1593 C 0.88224 0.26037 0.92819 0.0
C1594 C 0.94693 0.33998 0.83965 0.0
C1595 C 0.94337 0.32699 0.85227 0.0
C1596 C 0.91091 0.297 0.86099 0.0
C1597 C 0.90598 0.27224 0.91073 0.0
C1598 C 0.91269 0.28379 0.89541 0.0
C1599 C 0.92711 0.32123 0.85361 0.0
C1600 C 0.92299 0.30774 0.86752 0.0
H1601 H 0.91828 0.24449 0.94619 0.0
H1602 H 0.92982 0.26332 0.92076 0.0
H1603 H 0.89619 0.27737 0.86946 0.0
H1604 H 0.9081 0.34686 0.82038 0.0
H1605 H 0.90186 0.32481 0.84276 0.0
C1606 C 0.54284 0.16836 0.69726 0.0
C1607 C 0.54978 0.15358 0.69995 0.0
C1608 C 0.52905 0.17051 0.68396 0.0
C1609 C 0.50768 0.15217 0.63804 0.0
H1610 H 0.47228 0.18084 0.65167 0.0
C1611 C 0.44764 0.15518 0.58822 0.0
C1612 C 0.44085 0.16982 0.58391 0.0
C1613 C 0.46091 0.15356 0.60242 0.0
C1614 C 0.48217 0.17293 0.64752 0.0
H1615 H 0.5472 0.12937 0.69149 0.0
H1616 H 0.52306 0.13309 0.66864 0.0
H1617 H 0.49494 0.17713 0.67716 0.0
H1618 H 0.44278 0.19425 0.59125 0.0
H1619 H 0.46616 0.19143 0.61585 0.0
H1620 H 0.49496 0.14794 0.60845 0.0
C1621 C 0.52847 0.14308 0.67642 0.0
C1622 C 0.49515 0.17078 0.66215 0.0
C1623 C 0.54225 0.14093 0.68967 0.0
C1624 C 0.44779 0.18283 0.59403 0.0
C1625 C 0.46107 0.18119 0.60834 0.0
C1626 C 0.49473 0.1543 0.62346 0.0
C1627 C 0.52189 0.15793 0.67306 0.0
C1628 C 0.50802 0.16031 0.65762 0.0
C1629 C 0.46776 0.16652 0.61273 0.0
C1630 C 0.48177 0.16464 0.62805 0.0
H1631 H 0.54835 0.17836 0.70489 0.0
H1632 H 0.52438 0.18212 0.68162 0.0
H1633 H 0.51757 0.14427 0.6338 0.0
H1634 H 0.44272 0.14494 0.58054 0.0
H1635 H 0.46565 0.14207 0.60558 0.0
C1636 C 0.63914 0.7668 0.42457 0.0
C1637 C 0.62938 0.77427 0.44013 0.0
C1638 C 0.6322 0.75582 0.41079 0.0
C1639 C 0.59842 0.72805 0.4057 0.0
H1640 H 0.6093 0.7296 0.34501 0.0
C1641 C 0.57345 0.68288 0.3445 0.0
C1642 C 0.5848 0.67763 0.32893 0.0
C1643 C 0.57729 0.69551 0.35773 0.0
C1644 C 0.60625 0.72888 0.36194 0.0
H1645 H 0.60471 0.77598 0.45362 0.0
H1646 H 0.59255 0.75655 0.42959 0.0
H1647 H 0.61911 0.74991 0.36894 0.0
H1648 H 0.60896 0.68196 0.31487 0.0
H1649 H 0.61581 0.70339 0.3382 0.0
H1650 H 0.58602 0.70673 0.39885 0.0
C1651 C 0.60558 0.75929 0.42806 0.0
C1652 C 0.61183 0.74057 0.37562 0.0
C1653 C 0.6125 0.77046 0.44169 0.0
C1654 C 0.59998 0.68544 0.32682 0.0
C1655 C 0.60382 0.69796 0.34005 0.0
C1656 C 0.59294 0.71624 0.39201 0.0
C1657 C 0.61536 0.75194 0.41238 0.0
C1658 C 0.60822 0.74015 0.3977 0.0
C1659 C 0.59256 0.70318 0.3557 0.0
C1660 C 0.59705 0.71637 0.37001 0.0
H1661 H 0.65212 0.7696 0.42279 0.0
H1662 H 0.64008 0.75024 0.39901 0.0
H1663 H 0.59552 0.72739 0.42268 0.0
H1664 H 0.56169 0.67712 0.34671 0.0
H1665 H 0.56825 0.69929 0.36948 0.0
C1666 C 0.07955 0.83197 0.09812 0.0
C1667 C 0.08325 0.84318 0.08247 0.0
C1668 C 0.06794 0.83501 0.11428 0.0
C1669 C 0.04634 0.86693 0.14235 0.0
H1670 H 0.01364 0.83558 0.15555 0.0
C1671 C 0.98588 0.88033 0.18813 0.0
C1672 C 0.97933 0.86907 0.202 0.0
C1673 C 0.99993 0.87718 0.17576 0.0
C1674 C 0.02284 0.84437 0.15237 0.0
H1675 H 0.07743 0.86638 0.07163 0.0
H1676 H 0.0573 0.87167 0.09981 0.0
H1677 H 0.03543 0.82999 0.12959 0.0
H1678 H 0.98286 0.84589 0.21442 0.0
H1679 H 1.00754 0.84049 0.19303 0.0
H1680 H 0.03365 0.88137 0.16495 0.0
C1681 C 0.06356 0.8606 0.09973 0.0
C1682 C 0.03533 0.84117 0.13743 0.0
C1683 C 0.07512 0.85755 0.08354 0.0
C1684 C 0.98754 0.8548 0.20383 0.0
C1685 C 1.00162 0.85166 0.19145 0.0
C1686 C 0.03388 0.87012 0.15733 0.0
C1687 C 0.05979 0.84935 0.11525 0.0
C1688 C 0.0471 0.85247 0.13204 0.0
C1689 C 1.00781 0.86271 0.17696 0.0
C1690 C 0.02184 0.85895 0.16233 0.0
H1691 H 0.08573 0.82089 0.09807 0.0
H1692 H 0.06547 0.82617 0.12616 0.0
H1693 H 0.05539 0.87579 0.13882 0.0
H1694 H 0.97987 0.89144 0.1863 0.0
H1695 H 1.00422 0.88591 0.16462 0.0
C1696 C 0.63248 0.73422 0.93113 0.0
C1697 C 0.62623 0.73233 0.95206 0.0
C1698 C 0.63099 0.74834 0.92047 0.0
C1699 C 0.60719 0.78473 0.91928 0.0
H1700 H 0.64463 0.79908 0.88578 0.0
C1701 C 0.60258 0.83431 0.85667 0.0
C1702 C 0.61609 0.84449 0.85484 0.0
C1703 C 0.60346 0.82136 0.87012 0.0
C1704 C 0.6341 0.79535 0.89521 0.0
H1705 H 0.61333 0.74385 0.97812 0.0
H1706 H 0.61074 0.76864 0.95943 0.0
H1707 H 0.64698 0.77532 0.90642 0.0
H1708 H 0.64083 0.8493 0.86661 0.0
H1709 H 0.64236 0.8268 0.88994 0.0
H1710 H 0.59434 0.80488 0.90807 0.0
C1711 C 0.61673 0.75909 0.95127 0.0
C1712 C 0.63538 0.78161 0.90687 0.0
C1713 C 0.61829 0.74492 0.96202 0.0
C1714 C 0.63032 0.84158 0.86724 0.0
C1715 C 0.63119 0.82865 0.88066 0.0
C1716 C 0.60587 0.79849 0.90752 0.0
C1717 C 0.62318 0.76099 0.9304 0.0
C1718 C 0.62191 0.77604 0.9189 0.0
C1719 C 0.61787 0.81826 0.88207 0.0
C1720 C 0.6193 0.80393 0.89524 0.0
H1721 H 0.63861 0.72477 0.92289 0.0
H1722 H 0.63584 0.74929 0.90429 0.0
H1723 H 0.59654 0.78073 0.92827 0.0
H1724 H 0.59149 0.83605 0.84723 0.0
H1725 H 0.59303 0.81352 0.87061 0.0
C1726 C 0.47875 0.36556 0.21622 0.0
C1727 C 0.49526 0.36519 0.20901 0.0
C1728 C 0.46577 0.36138 0.20245 0.0
C1729 C 0.45526 0.36014 0.14524 0.0
H1730 H 0.42012 0.33214 0.16187 0.0
C1731 C 0.4088 0.33614 0.08326 0.0
C1732 C 0.39252 0.33287 0.08979 0.0
C1733 C 0.42074 0.34072 0.09824 0.0
C1734 C 0.42965 0.34021 0.15704 0.0
H1735 H 0.51105 0.35977 0.18175 0.0
H1736 H 0.48843 0.35268 0.15778 0.0
H1737 H 0.44199 0.33845 0.18751 0.0
H1738 H 0.37589 0.33238 0.11714 0.0
H1739 H 0.39654 0.3409 0.14317 0.0
H1740 H 0.44291 0.36226 0.11502 0.0
C1741 C 0.48553 0.35623 0.17407 0.0
C1742 C 0.44223 0.34374 0.17174 0.0
C1743 C 0.4985 0.36019 0.18789 0.0
C1744 C 0.38834 0.33474 0.11158 0.0
C1745 C 0.40025 0.3395 0.12655 0.0
C1746 C 0.44259 0.35679 0.13065 0.0
C1747 C 0.46902 0.35697 0.18109 0.0
C1748 C 0.45528 0.35359 0.16589 0.0
C1749 C 0.4167 0.34235 0.12015 0.0
C1750 C 0.4297 0.34661 0.13621 0.0
H1751 H 0.47583 0.36936 0.23239 0.0
H1752 H 0.45315 0.36209 0.20827 0.0
H1753 H 0.46501 0.368 0.14041 0.0
H1754 H 0.41251 0.33469 0.06664 0.0
H1755 H 0.43329 0.34252 0.09265 0.0
C1756 C 0.88137 0.26408 0.47325 0.0
C1757 C 0.8927 0.2764 0.47346 0.0
C1758 C 0.88396 0.25124 0.45999 0.0
C1759 C 0.9058 0.23977 0.41027 0.0
H1760 H 0.89399 0.19831 0.42804 0.0
C1761 C 0.9174 0.18652 0.35592 0.0
C1762 C 0.90474 0.17539 0.35489 0.0
C1763 C 0.91681 0.19844 0.37113 0.0
C1764 C 0.89721 0.20984 0.42276 0.0
H1765 H 0.916 0.28459 0.46037 0.0
H1766 H 0.92062 0.2621 0.43744 0.0
H1767 H 0.89172 0.21961 0.45361 0.0
H1768 H 0.88167 0.16801 0.36946 0.0
H1769 H 0.88049 0.18892 0.39566 0.0
H1770 H 0.91114 0.23004 0.37937 0.0
C1771 C 0.90957 0.26249 0.44729 0.0
C1772 C 0.89592 0.22206 0.43743 0.0
C1773 C 0.90697 0.27534 0.46057 0.0
C1774 C 0.89154 0.17645 0.36959 0.0
C1775 C 0.89097 0.18835 0.38482 0.0
C1776 C 0.9071 0.22756 0.39561 0.0
C1777 C 0.89797 0.25038 0.44658 0.0
C1778 C 0.9001 0.23721 0.43134 0.0
C1779 C 0.90356 0.19954 0.38573 0.0
C1780 C 0.90271 0.21245 0.40161 0.0
H1781 H 0.87023 0.26451 0.48294 0.0
H1782 H 0.87468 0.24222 0.45972 0.0
H1783 H 0.90886 0.25132 0.40488 0.0
H1784 H 0.92768 0.18619 0.34478 0.0
H1785 H 0.92681 0.20677 0.3715 0.0
C1786 C 0.09877 0.69042 0.5602 0.0
C1787 C 0.10325 0.70604 0.5609 0.0
C1788 C 0.08854 0.68407 0.57608 0.0
C1789 C 0.07016 0.69253 0.63062 0.0
H1790 H 0.0422 0.6578 0.61563 0.0
C1791 C 0.01893 0.66779 0.68713 0.0
C1792 C 0.01778 0.65159 0.6883 0.0
C1793 C 0.02954 0.67485 0.6722 0.0
C1794 C 0.05007 0.6674 0.62016 0.0
H1795 H 0.09978 0.72754 0.57814 0.0
H1796 H 0.08138 0.7168 0.60527 0.0
H1797 H 0.05977 0.66933 0.58838 0.0
H1798 H 0.0272 0.63015 0.67485 0.0
H1799 H 0.04553 0.64242 0.64895 0.0
H1800 H 0.05996 0.69069 0.66238 0.0
C1801 C 0.08631 0.70911 0.59312 0.0
C1802 C 0.06028 0.67401 0.6045 0.0
C1803 C 0.09676 0.71536 0.57739 0.0
C1804 C 0.02771 0.64265 0.67444 0.0
C1805 C 0.03816 0.64968 0.65944 0.0
C1806 C 0.05982 0.68597 0.64625 0.0
C1807 C 0.08203 0.69332 0.59279 0.0
C1808 C 0.07071 0.68656 0.6095 0.0
C1809 C 0.03909 0.66586 0.65795 0.0
C1810 C 0.04978 0.67321 0.64127 0.0
H1811 H 0.10295 0.68313 0.54721 0.0
H1812 H 0.08586 0.67184 0.57521 0.0
H1813 H 0.07786 0.70215 0.63533 0.0
H1814 H 0.01145 0.67504 0.69751 0.0
H1815 H 0.0299 0.68734 0.6714 0.0
C1816 C 0.61526 0.2757 0.55221 0.0
C1817 C 0.62307 0.28859 0.56151 0.0
C1818 C 0.61446 0.26161 0.56332 0.0
C1819 C 0.6348 0.24009 0.60756 0.0
H1820 H 0.59417 0.21631 0.60921 0.0
C1821 C 0.63174 0.18133 0.65083 0.0
C1822 C 0.61782 0.17862 0.66389 0.0
C1823 C 0.63208 0.1938 0.63656 0.0
C1824 C 0.6056 0.22284 0.60896 0.0
H1825 H 0.63613 0.29674 0.58984 0.0
H1826 H 0.6347 0.27239 0.60904 0.0
H1827 H 0.59543 0.23999 0.58785 0.0
H1828 H 0.5932 0.1869 0.67179 0.0
H1829 H 0.5938 0.20867 0.64698 0.0
H1830 H 0.64487 0.22329 0.62906 0.0
C1831 C 0.62934 0.27303 0.5931 0.0
C1832 C 0.60637 0.23633 0.59652 0.0
C1833 C 0.63007 0.28706 0.5821 0.0
C1834 C 0.60406 0.1885 0.66186 0.0
C1835 C 0.6044 0.20101 0.64759 0.0
C1836 C 0.63405 0.22663 0.6199 0.0
C1837 C 0.62157 0.2601 0.58388 0.0
C1838 C 0.62093 0.24522 0.5959 0.0
C1839 C 0.61851 0.20394 0.63497 0.0
C1840 C 0.6194 0.21789 0.62093 0.0
H1841 H 0.60973 0.27648 0.53639 0.0
H1842 H 0.60848 0.25184 0.5557 0.0
H1843 H 0.64628 0.24654 0.60724 0.0
H1844 H 0.64242 0.1738 0.65161 0.0
H1845 H 0.64302 0.19552 0.6268 0.0
C1846 C 0.01697 0.37297 0.81947 0.0
C1847 C 1.00652 0.38509 0.82606 0.0
C1848 C 0.03053 0.36855 0.83221 0.0
C1849 C 0.04522 0.37135 0.8887 0.0
H1850 H 0.08742 0.35788 0.86555 0.0
C1851 C 0.10115 0.36204 0.94385 0.0
C1852 C 0.10993 0.34813 0.94132 0.0
C1853 C 0.08973 0.36683 0.92834 0.0
C1854 C 0.07566 0.36153 0.87222 0.0
H1855 H 1.00265 0.4026 0.85054 0.0
H1856 H 0.02632 0.39526 0.87222 0.0
H1857 H 0.06517 0.36563 0.84103 0.0
H1858 H 0.11415 0.32871 0.91988 0.0
H1859 H 0.0942 0.33716 0.89272 0.0
H1860 H 0.05564 0.36738 0.9198 0.0
C1861 C 0.02384 0.38877 0.85767 0.0
C1862 C 0.0629 0.36593 0.85818 0.0
C1863 C 0.01029 0.39306 0.84513 0.0
C1864 C 0.10759 0.33949 0.92236 0.0
C1865 C 0.09619 0.34434 0.90676 0.0
C1866 C 0.05796 0.36707 0.90265 0.0
C1867 C 0.03395 0.37624 0.8517 0.0
C1868 C 0.04755 0.37105 0.86628 0.0
C1869 C 0.08683 0.35787 0.90985 0.0
C1870 C 0.07338 0.36224 0.89463 0.0
H1871 H 0.01437 0.36659 0.80487 0.0
H1872 H 0.038 0.35881 0.82713 0.0
H1873 H 0.03346 0.37478 0.89558 0.0
H1874 H 0.10269 0.36905 0.95815 0.0
H1875 H 0.08294 0.37746 0.93102 0.0
C1876 C 0.90024 0.74432 0.05642 0.0
C1877 C 0.91507 0.73852 0.04772 0.0
C1878 C 0.90027 0.75758 0.06932 0.0
C1879 C 0.928 0.78162 0.10312 0.0
H1880 H 0.89161 0.81081 0.10049 0.0
C1881 C 0.92758 0.83908 0.15138 0.0
C1882 C 0.9126 0.84319 0.16151 0.0
C1883 C 0.92823 0.8267 0.13688 0.0
C1884 C 0.9018 0.80271 0.10155 0.0
H1885 H 0.94155 0.74236 0.04544 0.0
H1886 H 0.94155 0.76564 0.0676 0.0
H1887 H 0.89217 0.78884 0.07595 0.0
H1888 H 0.88663 0.8371 0.16438 0.0
H1889 H 0.88777 0.81571 0.13907 0.0
H1890 H 0.93763 0.79556 0.12873 0.0
C1891 C 0.92992 0.75978 0.06478 0.0
C1892 C 0.90212 0.79008 0.08748 0.0
C1893 C 0.9299 0.74647 0.05193 0.0
C1894 C 0.89832 0.83454 0.1567 0.0
C1895 C 0.89897 0.82222 0.14214 0.0
C1896 C 0.92772 0.7943 0.11713 0.0
C1897 C 0.91511 0.76545 0.0738 0.0
C1898 C 0.91515 0.77928 0.08819 0.0
C1899 C 0.91392 0.81813 0.13204 0.0
C1900 C 0.91454 0.80493 0.11664 0.0
H1901 H 0.88859 0.73847 0.05362 0.0
H1902 H 0.88866 0.76144 0.0762 0.0
H1903 H 0.93811 0.77344 0.10439 0.0
H1904 H 0.9388 0.84555 0.15436 0.0
H1905 H 0.93991 0.82398 0.1292 0.0
C1906 C 0.41158 0.65301 0.44211 0.0
C1907 C 0.40281 0.66701 0.44065 0.0
C1908 C 0.42377 0.64924 0.42702 0.0
C1909 C 0.44033 0.6578 0.37295 0.0
H1910 H 0.48173 0.64395 0.39792 0.0
C1911 C 0.50098 0.64967 0.32281 0.0
C1912 C 0.51158 0.63754 0.32891 0.0
C1913 C 0.48697 0.65331 0.33525 0.0
C1914 C 0.47021 0.64756 0.39055 0.0
H1915 H 0.39947 0.68768 0.42142 0.0
H1916 H 0.42071 0.68098 0.39491 0.0
H1917 H 0.45836 0.64968 0.42116 0.0
H1918 H 0.51531 0.61928 0.35226 0.0
H1919 H 0.49087 0.62524 0.37334 0.0
H1920 H 0.4522 0.65547 0.34224 0.0
C1921 C 0.41813 0.67295 0.40783 0.0
C1922 C 0.45679 0.65089 0.40395 0.0
C1923 C 0.40598 0.6768 0.42306 0.0
C1924 C 0.50756 0.62885 0.34724 0.0
C1925 C 0.49355 0.63235 0.35946 0.0
C1926 C 0.45377 0.65431 0.35944 0.0
C1927 C 0.42746 0.65931 0.40997 0.0
C1928 C 0.44165 0.65594 0.39535 0.0
C1929 C 0.4832 0.64481 0.35394 0.0
C1930 C 0.46887 0.64901 0.36807 0.0
H1931 H 0.40945 0.64515 0.45536 0.0
H1932 H 0.43055 0.63852 0.42893 0.0
H1933 H 0.42881 0.66165 0.36584 0.0
H1934 H 0.50375 0.65661 0.30879 0.0
H1935 H 0.47938 0.66305 0.33052 0.0
C1936 C 0.43066 0.16562 0.17087 0.0
C1937 C 0.44092 0.16956 0.18828 0.0
C1938 C 0.42431 0.17703 0.15731 0.0
C1939 C 0.43022 0.21762 0.14004 0.0
H1940 H 0.38484 0.21338 0.12058 0.0
C1941 C 0.39516 0.26553 0.09285 0.0
C1942 C 0.38514 0.2606 0.07565 0.0
C1943 C 0.40249 0.25477 0.1067 0.0
C1944 C 0.39759 0.21466 0.12569 0.0
H1945 H 0.45256 0.18867 0.20502 0.0
H1946 H 0.44139 0.20862 0.18141 0.0
H1947 H 0.39657 0.19407 0.14457 0.0
H1948 H 0.37557 0.2404 0.05915 0.0
H1949 H 0.3882 0.22174 0.08327 0.0
H1950 H 0.43113 0.23831 0.12115 0.0
C1951 C 0.43844 0.19666 0.17808 0.0
C1952 C 0.40433 0.20358 0.13944 0.0
C1953 C 0.44484 0.18521 0.19163 0.0
C1954 C 0.38289 0.24465 0.07245 0.0
C1955 C 0.39016 0.23393 0.0863 0.0
C1956 C 0.42344 0.22876 0.1263 0.0
C1957 C 0.428 0.19271 0.16083 0.0
C1958 C 0.42078 0.20483 0.14665 0.0
C1959 C 0.39991 0.23884 0.10371 0.0
C1960 C 0.40709 0.22733 0.11882 0.0
H1961 H 0.42766 0.15368 0.16755 0.0
H1962 H 0.41661 0.17352 0.14392 0.0
H1963 H 0.44298 0.21886 0.1451 0.0
H1964 H 0.39704 0.27771 0.09595 0.0
H1965 H 0.40982 0.25893 0.12008 0.0
C1966 C 0.49444 0.62489 0.82674 0.0
C1967 C 0.48151 0.63545 0.82314 0.0
C1968 C 0.50814 0.62906 0.83922 0.0
C1969 C 0.53064 0.66238 0.86289 0.0
H1970 H 0.54406 0.63221 0.90549 0.0
C1971 C 0.57403 0.67704 0.93459 0.0
C1972 C 0.58532 0.66561 0.94119 0.0
C1973 C 0.56223 0.67382 0.91869 0.0
C1974 C 0.54068 0.64071 0.8935 0.0
H1975 H 0.47319 0.65892 0.82911 0.0
H1976 H 0.49704 0.66614 0.85094 0.0
H1977 H 0.52233 0.62579 0.88 0.0
H1978 H 0.59363 0.64215 0.93541 0.0
H1979 H 0.57327 0.6366 0.90767 0.0
H1980 H 0.54897 0.67734 0.87659 0.0
C1981 C 0.49664 0.65466 0.84402 0.0
C1982 C 0.52819 0.63701 0.87885 0.0
C1983 C 0.48293 0.65049 0.83156 0.0
C1984 C 0.58488 0.6511 0.93106 0.0
C1985 C 0.57318 0.64791 0.91514 0.0
C1986 C 0.5432 0.66608 0.87755 0.0
C1987 C 0.50924 0.64389 0.84838 0.0
C1988 C 0.52298 0.64779 0.86338 0.0
C1989 C 0.56152 0.65914 0.90898 0.0
C1990 C 0.54836 0.65528 0.89306 0.0
H1991 H 0.49382 0.61324 0.82041 0.0
H1992 H 0.51777 0.62057 0.84195 0.0
H1993 H 0.52702 0.6709 0.85105 0.0
H1994 H 0.57396 0.68829 0.94219 0.0
H1995 H 0.55335 0.6827 0.9145 0.0
C1996 C 0.08004 0.81186 0.70876 0.0
C1997 C 0.08991 0.8248 0.70397 0.0
C1998 C 0.0844 0.79714 0.70121 0.0
C1999 C 0.12034 0.7749 0.68048 0.0
H2000 H 0.08715 0.74782 0.65588 0.0
C2001 C 0.1368 0.72466 0.62384 0.0
C2002 C 0.12748 0.71096 0.62459 0.0
C2003 C 0.13248 0.73738 0.63647 0.0
C2004 C 0.09654 0.75512 0.66304 0.0
H2005 H 0.11187 0.83232 0.68683 0.0
H2006 H 0.11944 0.80683 0.6738 0.0
H2007 H 0.07874 0.77239 0.67192 0.0
H2008 H 0.10686 0.69967 0.64031 0.0
H2009 H 0.09921 0.72196 0.66241 0.0
H2010 H 0.13817 0.75782 0.67127 0.0
C2011 C 0.10851 0.80797 0.68378 0.0
C2012 C 0.09172 0.76922 0.6722 0.0
C2013 C 0.10414 0.82264 0.69126 0.0
C2014 C 0.11421 0.71007 0.63918 0.0
C2015 C 0.10976 0.72288 0.65173 0.0
C2016 C 0.12515 0.76084 0.67134 0.0
C2017 C 0.09877 0.79501 0.68874 0.0
C2018 C 0.10361 0.77943 0.68064 0.0
C2019 C 0.1187 0.73678 0.65025 0.0
C2020 C 0.11335 0.7509 0.66211 0.0
H2021 H 0.0691 0.81303 0.71867 0.0
H2022 H 0.07669 0.78738 0.70546 0.0
H2023 H 0.12979 0.78232 0.68727 0.0
H2024 H 0.14728 0.72568 0.6131 0.0
H2025 H 0.1396 0.74791 0.6348 0.0
C2026 C 0.93453 0.34392 0.42413 0.0
C2027 C 0.93681 0.35055 0.44456 0.0
C2028 C 0.9462 0.34629 0.40779 0.0
C2029 C 0.98997 0.35574 0.39935 0.0
H2030 H 0.9765 0.36914 0.34248 0.0
C2031 C 0.03734 0.36314 0.33122 0.0
C2032 C 0.03677 0.37748 0.32062 0.0
C2033 C 0.02427 0.35844 0.34439 0.0
C2034 C 0.98041 0.36537 0.35828 0.0
H2035 H 0.9532 0.36461 0.46399 0.0
H2036 H 0.97357 0.36866 0.43561 0.0
H2037 H 0.95544 0.36374 0.36986 0.0
H2038 H 0.0216 0.39771 0.31463 0.0
H2039 H 0.99871 0.38942 0.33756 0.0
H2040 H 0.01489 0.35753 0.38801 0.0
C2041 C 0.96275 0.36168 0.43217 0.0
C2042 C 0.96838 0.36218 0.37387 0.0
C2043 C 0.95102 0.35949 0.44836 0.0
C2044 C 0.02245 0.38663 0.32261 0.0
C2045 C 0.0093 0.38185 0.33567 0.0
C2046 C 1.00196 0.35873 0.38373 0.0
C2047 C 0.96048 0.35513 0.41171 0.0
C2048 C 0.97306 0.35755 0.39466 0.0
C2049 C 0.01027 0.36789 0.34713 0.0
C2050 C 0.99734 0.36375 0.3631 0.0
H2051 H 0.92364 0.33707 0.42071 0.0
H2052 H 0.94417 0.34105 0.39219 0.0
H2053 H 0.99393 0.35206 0.41517 0.0
H2054 H 0.04814 0.35576 0.33 0.0
H2055 H 0.02526 0.34753 0.3528 0.0
C2056 C 0.4378 0.83314 0.33682 0.0
C2057 C 0.42696 0.84569 0.33408 0.0
C2058 C 0.43403 0.82135 0.35143 0.0
C2059 C 0.3983 0.80464 0.38099 0.0
H2060 H 0.43218 0.78474 0.41539 0.0
C2061 C 0.38242 0.76514 0.45238 0.0
C2062 C 0.39095 0.75102 0.45375 0.0
C2063 C 0.38736 0.77642 0.43769 0.0
C2064 C 0.42262 0.79012 0.40574 0.0
H2065 H 0.40413 0.85613 0.34526 0.0
H2066 H 0.39771 0.83587 0.37093 0.0
H2067 H 0.43994 0.80509 0.3901 0.0
H2068 H 0.4116 0.73782 0.44112 0.0
H2069 H 0.42029 0.75761 0.41542 0.0
H2070 H 0.38096 0.78987 0.3969 0.0
C2071 C 0.40884 0.83478 0.36135 0.0
C2072 C 0.42705 0.80175 0.39121 0.0
C2073 C 0.41254 0.84644 0.34666 0.0
C2074 C 0.40469 0.74852 0.44029 0.0
C2075 C 0.40975 0.75989 0.42573 0.0
C2076 C 0.39387 0.79314 0.39561 0.0
C2077 C 0.41939 0.82195 0.36372 0.0
C2078 C 0.41491 0.80924 0.37877 0.0
C2079 C 0.40104 0.77391 0.42415 0.0
C2080 C 0.40595 0.78583 0.40825 0.0
H2081 H 0.44895 0.83222 0.32723 0.0
H2082 H 0.44237 0.81159 0.35268 0.0
H2083 H 0.38865 0.80985 0.37132 0.0
H2084 H 0.3717 0.76737 0.46237 0.0
H2085 H 0.38049 0.78717 0.43698 0.0
C2086 C 0.01675 0.62443 0.20492 0.0
C2087 C 0.02844 0.63521 0.21232 0.0
C2088 C 1.00433 0.62888 0.19055 0.0
C2089 C 0.98209 0.66226 0.1671 0.0
H2090 H 0.97826 0.63545 0.11739 0.0
C2091 C 0.94702 0.6799 0.08911 0.0
C2092 C 0.93904 0.66815 0.07748 0.0
C2093 C 0.95662 0.67629 0.10721 0.0
C2094 C 0.97889 0.64296 0.1313 0.0
H2095 H 0.03563 0.65936 0.21133 0.0
H2096 H 0.01388 0.66711 0.18631 0.0
H2097 H 0.99676 0.62839 0.14649 0.0
H2098 H 0.93387 0.64363 0.07645 0.0
H2099 H 0.95009 0.63735 0.1082 0.0
H2100 H 0.96414 0.67684 0.15183 0.0
C2101 C 0.01435 0.6552 0.19163 0.0
C2102 C 0.98956 0.6389 0.148 0.0
C2103 C 0.02686 0.65074 0.20592 0.0
C2104 C 0.94019 0.65287 0.08485 0.0
C2105 C 0.94956 0.64928 0.10301 0.0
C2106 C 0.97126 0.66628 0.15041 0.0
C2107 C 1.00323 0.64423 0.18334 0.0
C2108 C 0.99132 0.64849 0.16609 0.0
C2109 C 0.95826 0.66087 0.11416 0.0
C2110 C 0.96952 0.65667 0.13226 0.0
H2111 H 0.01753 0.6124 0.20958 0.0
H2112 H 0.99577 0.6202 0.1847 0.0
H2113 H 0.98314 0.66985 0.1809 0.0
H2114 H 0.94639 0.69176 0.0837 0.0
H2115 H 0.96323 0.68551 0.11526 0.0
C2116 C 0.13365 0.24911 0.94402 0.0
C2117 C 0.12452 0.26277 0.94712 0.0
C2118 C 0.12829 0.23789 0.92945 0.0
C2119 C 0.09142 0.22329 0.90122 0.0
H2120 H 0.12385 0.20389 0.86395 0.0
C2121 C 0.07368 0.17909 0.83447 0.0
C2122 C 0.08452 0.16656 0.83133 0.0
C2123 C 0.07794 0.1912 0.84839 0.0
C2124 C 0.11465 0.20904 0.87441 0.0
H2125 H 0.10244 0.27522 0.93748 0.0
H2126 H 0.09308 0.25558 0.9119 0.0
H2127 H 0.13245 0.22432 0.88841 0.0
H2128 H 0.10796 0.15661 0.84115 0.0
H2129 H 0.11529 0.1775 0.86548 0.0
H2130 H 0.07365 0.20782 0.88739 0.0
C2131 C 0.10439 0.25359 0.92083 0.0
C2132 C 0.11958 0.22079 0.8884 0.0
C2133 C 0.10983 0.2649 0.93533 0.0
C2134 C 0.0995 0.16624 0.84282 0.0
C2135 C 0.10371 0.17826 0.85676 0.0
C2136 C 0.08647 0.21145 0.88725 0.0
C2137 C 0.11361 0.23998 0.91767 0.0
C2138 C 0.10808 0.22796 0.90213 0.0
C2139 C 0.09311 0.19101 0.85954 0.0
C2140 C 0.09807 0.20405 0.87383 0.0
H2141 H 0.14509 0.24716 0.95266 0.0
H2142 H 0.13559 0.22746 0.92757 0.0
H2143 H 0.08228 0.22851 0.91172 0.0
H2144 H 0.06212 0.17974 0.82573 0.0
H2145 H 0.06953 0.20089 0.84999 0.0
C2146 C 0.57807 0.34518 0.59199 0.0
C2147 C 0.57401 0.35048 0.57129 0.0
C2148 C 0.56712 0.34746 0.6092 0.0
C2149 C 0.52318 0.35437 0.62136 0.0
H2150 H 0.53879 0.37285 0.67447 0.0
C2151 C 0.4789 0.36534 0.69201 0.0
C2152 C 0.47924 0.38044 0.7004 0.0
C2153 C 0.49158 0.36006 0.67858 0.0
C2154 C 0.53428 0.36764 0.65975 0.0
H2155 H 0.55516 0.3619 0.55228 0.0
H2156 H 0.53606 0.36577 0.58216 0.0
H2157 H 0.5586 0.36653 0.64589 0.0
H2158 H 0.4937 0.4015 0.70222 0.0
H2159 H 0.51588 0.39224 0.67879 0.0
H2160 H 0.49888 0.35575 0.63486 0.0
C2161 C 0.5477 0.35992 0.58515 0.0
C2162 C 0.54562 0.36392 0.64349 0.0
C2163 C 0.5587 0.35784 0.56808 0.0
C2164 C 0.49302 0.38983 0.69598 0.0
C2165 C 0.50577 0.3845 0.68263 0.0
C2166 C 0.5119 0.35793 0.63765 0.0
C2167 C 0.55181 0.35484 0.60591 0.0
C2168 C 0.54013 0.3575 0.62398 0.0
C2169 C 0.50496 0.3697 0.67333 0.0
C2170 C 0.51728 0.36481 0.65691 0.0
H2171 H 0.58983 0.33956 0.59493 0.0
H2172 H 0.57057 0.34337 0.62503 0.0
H2173 H 0.51861 0.34932 0.60656 0.0
H2174 H 0.46853 0.35774 0.69515 0.0
H2175 H 0.49072 0.34852 0.67191 0.0
C2176 C 0.08275 0.44831 0.2758 0.0
C2177 C 0.08933 0.44486 0.29618 0.0
C2178 C 0.08231 0.46357 0.26829 0.0
C2179 C 0.10055 0.50255 0.27784 0.0
H2180 H 0.06193 0.5168 0.24661 0.0
C2181 C 0.08903 0.56729 0.25924 0.0
C2182 C 0.08347 0.57087 0.23841 0.0
C2183 C 0.08976 0.55191 0.2662 0.0
C2184 C 0.07287 0.51297 0.25515 0.0
H2185 H 0.10106 0.45493 0.32431 0.0
H2186 H 0.09984 0.48136 0.31158 0.0
H2187 H 0.06345 0.48998 0.25842 0.0
H2188 H 0.07392 0.56106 0.20881 0.0
H2189 H 0.07531 0.53433 0.22086 0.0
H2190 H 0.10986 0.52561 0.27476 0.0
C2191 C 0.09517 0.47229 0.30123 0.0
C2192 C 0.07377 0.49756 0.26187 0.0
C2193 C 0.09566 0.45707 0.30868 0.0
C2194 C 0.07846 0.55873 0.22484 0.0
C2195 C 0.07909 0.54339 0.23184 0.0
C2196 C 0.0996 0.51797 0.27122 0.0
C2197 C 0.08843 0.47579 0.28097 0.0
C2198 C 0.08762 0.49213 0.27334 0.0
C2199 C 0.08482 0.53977 0.25256 0.0
C2200 C 0.08574 0.52338 0.2598 0.0
H2201 H 0.07766 0.43928 0.26575 0.0
H2202 H 0.07721 0.46577 0.25249 0.0
H2203 H 0.11154 0.49875 0.28629 0.0
H2204 H 0.09307 0.57634 0.27004 0.0
H2205 H 0.09409 0.54953 0.28234 0.0
C2206 C 0.81507 0.84236 0.53069 0.0
C2207 C 0.82605 0.84766 0.51475 0.0
C2208 C 0.79789 0.84348 0.52778 0.0
C2209 C 0.76703 0.84549 0.48431 0.0
H2210 H 0.73616 0.85609 0.52974 0.0
C2211 C 0.69711 0.84986 0.46721 0.0
C2212 C 0.68619 0.84385 0.48267 0.0
C2213 C 0.71391 0.85185 0.47193 0.0
C2214 C 0.74459 0.85295 0.51692 0.0
H2215 H 0.82747 0.85893 0.48365 0.0
H2216 H 0.79764 0.86092 0.47868 0.0
H2217 H 0.76594 0.85683 0.53676 0.0
H2218 H 0.68437 0.83556 0.51547 0.0
H2219 H 0.71372 0.83871 0.52357 0.0
H2220 H 0.74587 0.84122 0.46458 0.0
C2221 C 0.80229 0.8557 0.4933 0.0
C2222 C 0.76167 0.85341 0.52095 0.0
C2223 C 0.81942 0.85464 0.49624 0.0
C2224 C 0.69241 0.84028 0.50319 0.0
C2225 C 0.70927 0.84215 0.50787 0.0
C2226 C 0.75 0.84493 0.48032 0.0
C2227 C 0.7913 0.84985 0.50882 0.0
C2228 C 0.7731 0.8497 0.50467 0.0
C2229 C 0.72032 0.84773 0.49218 0.0
C2230 C 0.73851 0.84867 0.49654 0.0
H2231 H 0.81973 0.8369 0.54513 0.0
H2232 H 0.78979 0.8388 0.54001 0.0
H2233 H 0.77545 0.84225 0.47151 0.0
H2234 H 0.69273 0.85285 0.45129 0.0
H2235 H 0.72191 0.85651 0.45957 0.0
C2236 C 0.42762 0.45055 0.75021 0.0
C2237 C 0.42809 0.44771 0.72793 0.0
C2238 C 0.42832 0.46567 0.75822 0.0
C2239 C 0.42027 0.50611 0.74258 0.0
H2240 H 0.44699 0.51608 0.79244 0.0
C2241 C 0.42799 0.56908 0.77253 0.0
C2242 C 0.42794 0.57154 0.7949 0.0
C2243 C 0.42874 0.55409 0.76405 0.0
C2244 C 0.43931 0.51348 0.77865 0.0
H2245 H 0.43025 0.45877 0.69673 0.0
H2246 H 0.43124 0.48499 0.71068 0.0
H2247 H 0.44677 0.48971 0.77857 0.0
H2248 H 0.42909 0.55993 0.82579 0.0
H2249 H 0.42984 0.53398 0.81111 0.0
H2250 H 0.41257 0.52977 0.74279 0.0
C2251 C 0.43009 0.47552 0.72193 0.0
C2252 C 0.43921 0.49835 0.77069 0.0
C2253 C 0.42949 0.46043 0.71393 0.0
C2254 C 0.42884 0.55859 0.80851 0.0
C2255 C 0.42952 0.54363 0.80005 0.0
C2256 C 0.42029 0.52122 0.7506 0.0
C2257 C 0.42943 0.47835 0.74416 0.0
C2258 C 0.42966 0.49447 0.75258 0.0
C2259 C 0.42943 0.54115 0.77771 0.0
C2260 C 0.42977 0.52512 0.76879 0.0
H2261 H 0.42637 0.44114 0.76151 0.0
H2262 H 0.4276 0.46746 0.77544 0.0
H2263 H 0.4126 0.50347 0.72877 0.0
H2264 H 0.42721 0.5787 0.7615 0.0
H2265 H 0.42885 0.55267 0.74675 0.0
C2266 C 0.82093 0.16987 0.97672 0.0
C2267 C 0.83151 0.18099 0.98587 0.0
C2268 C 0.8041 0.16943 0.98222 0.0
C2269 C 0.77054 0.1943 1.00277 0.0
H2270 H 0.7477 0.15578 0.01401 0.0
C2271 C 0.70268 0.19359 0.03231 0.0
C2272 C 0.69215 0.18202 0.02425 0.0
C2273 C 0.71976 0.19302 0.02846 0.0
C2274 C 0.75381 0.16664 0.01065 0.0
H2275 H 0.83261 0.20023 1.00824 0.0
H2276 H 0.80334 0.19949 0.01767 0.0
H2277 H 0.77722 0.15548 1.00553 0.0
H2278 H 0.69145 0.1607 1.00591 0.0
H2279 H 0.72109 0.15988 0.99882 0.0
H2280 H 0.74719 0.20549 1.00741 0.0
C2281 C 0.80804 0.19115 1.00617 0.0
C2282 C 0.77077 0.16646 1.00584 0.0
C2283 C 0.82487 0.1915 1.00086 0.0
C2284 C 0.69917 0.16978 0.01245 0.0
C2285 C 0.71624 0.16926 1.00848 0.0
C2286 C 0.75358 0.19448 1.00741 0.0
C2287 C 0.7974 0.1802 0.99681 0.0
C2288 C 0.77935 0.18029 1.0019 0.0
C2289 C 0.72679 0.18093 0.0163 0.0
C2290 C 0.74495 0.18067 0.01148 0.0
H2291 H 0.82562 0.1616 0.96514 0.0
H2292 H 0.79623 0.1609 0.97461 0.0
H2293 H 0.7767 0.20515 0.99947 0.0
H2294 H 0.69773 0.20314 0.04157 0.0
H2295 H 0.72746 0.20207 0.03512 0.0
C2296 C 0.97154 0.45586 0.75362 0.0
C2297 C 0.96862 0.45257 0.77541 0.0
C2298 C 0.97409 0.47113 0.74682 0.0
C2299 C 0.98463 0.51054 0.76685 0.0
H2300 H 0.96101 0.52429 0.71613 0.0
C2301 C 0.97456 0.57534 0.74691 0.0
C2302 C 0.97511 0.57981 0.7252 0.0
C2303 C 0.97534 0.55969 0.75263 0.0
C2304 C 0.96789 0.52062 0.73017 0.0
H2305 H 0.96695 0.46268 0.80726 0.0
H2306 H 0.97114 0.48913 0.79549 0.0
H2307 H 0.96003 0.49716 0.7264 0.0
H2308 H 0.97776 0.57126 0.69257 0.0
H2309 H 0.97914 0.54413 0.70248 0.0
H2310 H 0.99232 0.53406 0.77077 0.0
C2311 C 0.9715 0.48 0.78357 0.0
C2312 C 0.96735 0.50503 0.73604 0.0
C2313 C 0.96889 0.46482 0.79031 0.0
C2314 C 0.97692 0.56826 0.70941 0.0
C2315 C 0.97772 0.55266 0.71511 0.0
C2316 C 0.98518 0.52614 0.76098 0.0
C2317 C 0.97393 0.48342 0.76172 0.0
C2318 C 0.97556 0.4998 0.75458 0.0
C2319 C 0.97673 0.54813 0.73676 0.0
C2320 C 0.9767 0.53142 0.74266 0.0
H2321 H 0.97137 0.44671 0.74175 0.0
H2322 H 0.97611 0.47333 0.72989 0.0
H2323 H 0.99132 0.50688 0.78105 0.0
H2324 H 0.97303 0.58389 0.75947 0.0
H2325 H 0.97438 0.55663 0.76946 0.0
C2326 C 0.32322 0.19522 0.5123 0.0
C2327 C 0.32851 0.18927 0.53219 0.0
C2328 C 0.30636 0.19528 0.50684 0.0
C2329 C 0.26569 0.17797 0.52253 0.0
H2330 H 0.2475 0.21325 0.4923 0.0
C2331 C 0.19509 0.18781 0.51349 0.0
C2332 C 0.18968 0.19113 0.49254 0.0
C2333 C 0.21201 0.18807 0.51849 0.0
C2334 C 0.25243 0.20329 0.50068 0.0
H2335 H 0.32006 0.17812 0.56146 0.0
H2336 H 0.29099 0.1788 0.55242 0.0
H2337 H 0.27714 0.21219 0.49988 0.0
H2338 H 0.19763 0.19805 0.46071 0.0
H2339 H 0.22708 0.19866 0.46945 0.0
H2340 H 0.24088 0.16925 0.52365 0.0
C2341 C 0.29977 0.18324 0.54082 0.0
C2342 C 0.26945 0.20262 0.5049 0.0
C2343 C 0.31654 0.18307 0.54618 0.0
C2344 C 0.20146 0.19527 0.47693 0.0
C2345 C 0.21831 0.19574 0.48198 0.0
C2346 C 0.24867 0.17874 0.51852 0.0
C2347 C 0.29438 0.18943 0.52114 0.0
C2348 C 0.27632 0.18995 0.51593 0.0
C2349 C 0.22381 0.1919 0.50271 0.0
C2350 C 0.24184 0.1914 0.50755 0.0
H2351 H 0.33203 0.20013 0.50114 0.0
H2352 H 0.30274 0.19993 0.49139 0.0
H2353 H 0.27051 0.16787 0.53066 0.0
H2354 H 0.18629 0.18452 0.52579 0.0
H2355 H 0.21589 0.18519 0.53467 0.0
C2356 C 0.5564 0.55989 0.29696 0.0
C2357 C 0.55359 0.57174 0.28194 0.0
C2358 C 0.55442 0.54438 0.29124 0.0
C2359 C 0.55381 0.51851 0.24395 0.0
H2360 H 0.53509 0.48908 0.28412 0.0
C2361 C 0.53695 0.45616 0.21942 0.0
C2362 C 0.53978 0.44413 0.23416 0.0
C2363 C 0.53926 0.47157 0.22534 0.0
C2364 C 0.54056 0.4971 0.27282 0.0
H2365 H 0.54612 0.57651 0.24916 0.0
H2366 H 0.54238 0.54938 0.2392 0.0
H2367 H 0.53685 0.5163 0.29404 0.0
H2368 H 0.54764 0.43894 0.26664 0.0
H2369 H 0.55188 0.46597 0.27703 0.0
H2370 H 0.55747 0.49932 0.22271 0.0
C2371 C 0.54637 0.55212 0.25538 0.0
C2372 C 0.54153 0.51273 0.27848 0.0
C2373 C 0.54832 0.56769 0.26114 0.0
C2374 C 0.54541 0.44791 0.25489 0.0
C2375 C 0.54767 0.46341 0.26089 0.0
C2376 C 0.55283 0.50288 0.23828 0.0
C2377 C 0.54954 0.54026 0.27032 0.0
C2378 C 0.54815 0.52366 0.26411 0.0
C2379 C 0.54448 0.47543 0.24621 0.0
C2380 C 0.54615 0.49197 0.25262 0.0
H2381 H 0.56022 0.56256 0.31321 0.0
H2382 H 0.5571 0.5356 0.30313 0.0
H2383 H 0.55927 0.52653 0.23263 0.0
H2384 H 0.53285 0.45367 0.20322 0.0
H2385 H 0.53655 0.48049 0.21366 0.0
C2386 C 0.2005 0.82074 0.04528 0.0
C2387 C 0.1886 0.81646 0.02987 0.0
C2388 C 0.21714 0.82238 0.03964 0.0
C2389 C 0.24767 0.81055 0.99843 0.0
H2390 H 0.27445 0.84263 0.02462 0.0
C2391 C 0.31481 0.82346 0.97159 0.0
C2392 C 0.32658 0.82667 0.98765 0.0
C2393 C 0.29802 0.82207 0.97667 0.0
C2394 C 0.26719 0.8335 0.01736 0.0
H2395 H 0.18496 0.81087 0.99623 0.0
H2396 H 0.21402 0.81406 0.98622 0.0
H2397 H 0.24498 0.84117 0.03281 0.0
H2398 H 0.32987 0.83082 0.02173 0.0
H2399 H 0.3005 0.82831 0.0307 0.0
H2400 H 0.26991 0.80296 0.98288 0.0
C2401 C 0.21046 0.81589 1.00282 0.0
C2402 C 0.25027 0.83266 0.02203 0.0
C2403 C 0.19375 0.81423 1.00849 0.0
C2404 C 0.32115 0.82827 1.00901 0.0
C2405 C 0.3043 0.82698 0.0141 0.0
C2406 C 0.26458 0.81143 0.9937 0.0
C2407 C 0.22239 0.81988 0.01838 0.0
C2408 C 0.24029 0.82113 0.01271 0.0
C2409 C 0.29253 0.82393 0.99795 0.0
C2410 C 0.27456 0.82289 1.00316 0.0
H2411 H 0.197 0.8228 0.06183 0.0
H2412 H 0.22595 0.8253 0.05212 0.0
H2413 H 0.24045 0.80136 0.99124 0.0
H2414 H 0.31857 0.82194 0.95502 0.0
H2415 H 0.2893 0.81983 0.96382 0.0
C2416 C 0.59887 0.96291 0.80864 0.0
C2417 C 0.59935 0.9502 0.79453 0.0
C2418 C 0.59837 0.97802 0.80075 0.0
C2419 C 0.58948 1.00117 0.75171 0.0
H2420 H 0.61557 0.03226 0.78116 0.0
C2421 C 0.60258 0.06152 0.71543 0.0
C2422 C 0.60226 0.07437 0.7293 0.0
C2423 C 0.60133 0.04649 0.72353 0.0
C2424 C 0.60805 0.02378 0.7729 0.0
H2425 H 0.59952 0.94351 0.76096 0.0
H2426 H 0.59882 0.9699 0.74711 0.0
H2427 H 0.61517 1.00588 0.7947 0.0
H2428 H 0.60026 0.08141 0.76266 0.0
H2429 H 0.59796 0.05517 0.77681 0.0
H2430 H 0.58256 0.01909 0.72973 0.0
C2431 C 0.59859 0.96816 0.76435 0.0
C2432 C 0.6078 0.00862 0.78067 0.0
C2433 C 0.59902 0.95301 0.77227 0.0
C2434 C 0.60045 0.0718 0.7515 0.0
C2435 C 0.5993 0.05675 0.75963 0.0
C2436 C 0.58978 0.01633 0.74389 0.0
C2437 C 0.5984 0.98089 0.7785 0.0
C2438 C 0.59852 0.99708 0.77019 0.0
C2439 C 0.59979 0.04389 0.74574 0.0
C2440 C 0.59909 0.02783 0.75436 0.0
H2441 H 0.59876 0.96119 0.82587 0.0
H2442 H 0.59784 0.98747 0.81216 0.0
H2443 H 0.58198 0.99268 0.7434 0.0
H2444 H 0.60373 0.06304 0.69823 0.0
H2445 H 0.6019 0.03688 0.71238 0.0
C2446 C 0.31801 0.34787 0.01094 0.0
C2447 C 0.32451 0.33492 0.02166 0.0
C2448 C 0.3009 0.3493 1.00753 0.0
C2449 C 0.26032 0.33513 0.02704 0.0
H2450 H 0.24453 0.3464 0.97034 0.0
C2451 C 0.19252 0.32527 1.00137 0.0
C2452 C 0.18492 0.33596 0.9875 0.0
C2453 C 0.20937 0.32642 1.00628 0.0
C2454 C 0.24867 0.34348 0.98639 0.0
H2455 H 0.31802 0.31344 0.03753 0.0
H2456 H 0.28835 0.31599 0.03171 0.0
H2457 H 0.27419 0.34636 0.97775 0.0
H2458 H 0.18912 0.35645 0.96825 0.0
H2459 H 0.21847 0.35865 0.97715 0.0
H2460 H 0.23489 0.33224 0.03576 0.0
C2461 C 0.29642 0.32508 0.02599 0.0
C2462 C 0.26572 0.34344 0.99061 0.0
C2463 C 0.31348 0.32359 0.02922 0.0
C2464 C 0.19457 0.34798 0.97892 0.0
C2465 C 0.21145 0.34918 0.98392 0.0
C2466 C 0.2433 0.33526 0.02288 0.0
C2467 C 0.28991 0.33789 0.01498 0.0
C2468 C 0.27176 0.33904 0.0109 0.0
C2469 C 0.21911 0.33835 0.99758 0.0
C2470 C 0.23723 0.33921 1.00239 0.0
H2471 H 0.32613 0.35681 1.00488 0.0
H2472 H 0.29627 0.35938 0.99914 0.0
H2473 H 0.26455 0.33194 0.04296 0.0
H2474 H 0.18551 0.31581 1.0082 0.0
H2475 H 0.21483 0.31771 0.01655 0.0
C2476 C 0.91832 0.05992 0.30446 0.0
C2477 C 0.92385 0.07247 0.29198 0.0
C2478 C 0.91843 0.04489 0.29621 0.0
C2479 C 0.91823 0.02267 0.24581 0.0
H2480 H 0.93537 0.98946 0.28121 0.0
C2481 C 0.92749 0.96117 0.21184 0.0
C2482 C 0.92414 0.94853 0.22531 0.0
C2483 C 0.9277 0.97622 0.22002 0.0
C2484 C 0.93031 0.99853 0.27119 0.0
H2485 H 0.93371 0.07876 0.2607 0.0
H2486 H 0.93356 0.05258 0.24624 0.0
H2487 H 0.93501 0.0158 0.29514 0.0
H2488 H 0.91834 0.9418 0.25796 0.0
H2489 H 0.91835 0.9681 0.27226 0.0
H2490 H 0.9132 1.00546 0.22201 0.0
C2491 C 0.92914 0.05447 0.26248 0.0
C2492 C 0.93016 0.01365 0.27917 0.0
C2493 C 0.92919 0.06953 0.2708 0.0
C2494 C 0.92112 0.95129 0.24723 0.0
C2495 C 0.92117 0.96638 0.2554 0.0
C2496 C 0.91822 1.00753 0.23789 0.0
C2497 C 0.92389 0.04197 0.27516 0.0
C2498 C 0.92414 0.02591 0.26657 0.0
C2499 C 0.92441 0.97908 0.24189 0.0
C2500 C 0.9243 0.99523 0.25044 0.0
H2501 H 0.91377 0.06162 0.32064 0.0
H2502 H 0.91403 0.03554 0.30626 0.0
H2503 H 0.9133 0.03183 0.23582 0.0
H2504 H 0.93018 0.95943 0.19497 0.0
H2505 H 0.93063 0.98561 0.20918 0.0
C2506 C 0.31868 0.69151 0.49655 0.0
C2507 C 0.3286 0.67858 0.50132 0.0
C2508 C 0.30169 0.69147 0.50105 0.0
C2509 C 0.27019 0.67211 0.53495 0.0
H2510 H 0.23905 0.69056 0.49508 0.0
C2511 C 0.1994 0.66581 0.54568 0.0
C2512 C 0.18927 0.67859 0.54088 0.0
C2513 C 0.21631 0.66597 0.54079 0.0
C2514 C 0.24758 0.68553 0.50654 0.0
H2515 H 0.32825 0.65538 0.51442 0.0
H2516 H 0.2986 0.65526 0.5221 0.0
H2517 H 0.26851 0.6903 0.48646 0.0
H2518 H 0.18913 0.7016 0.52717 0.0
H2519 H 0.2187 0.70195 0.51886 0.0
H2520 H 0.2493 0.66737 0.55507 0.0
C2521 C 0.30402 0.66552 0.5151 0.0
C2522 C 0.26451 0.68536 0.50157 0.0
C2523 C 0.32103 0.66555 0.51056 0.0
C2524 C 0.19653 0.69155 0.53106 0.0
C2525 C 0.2135 0.69171 0.52617 0.0
C2526 C 0.25328 0.67229 0.53994 0.0
C2527 C 0.29413 0.67851 0.51048 0.0
C2528 C 0.27605 0.67862 0.51569 0.0
C2529 C 0.22363 0.67891 0.53098 0.0
C2530 C 0.24171 0.67897 0.52578 0.0
H2531 H 0.32406 0.70178 0.48949 0.0
H2532 H 0.29454 0.70174 0.4975 0.0
H2533 H 0.27872 0.66706 0.54641 0.0
H2534 H 0.19425 0.65559 0.55315 0.0
H2535 H 0.22361 0.6558 0.54444 0.0
C2536 C 0.46653 0.07272 0.25747 0.0
C2537 C 0.48181 0.07701 0.24848 0.0
C2538 C 0.46324 0.05721 0.26236 0.0
C2539 C 0.48393 0.01943 0.27173 0.0
H2540 H 0.44126 1.00228 0.25614 0.0
C2541 C 0.47129 0.95363 0.27365 0.0
C2542 C 0.45601 0.94893 0.28227 0.0
C2543 C 0.47433 0.96926 0.2693 0.0
C2544 C 0.45319 1.00691 0.26079 0.0
H2545 H 0.50586 0.06844 0.23847 0.0
H2546 H 0.50009 0.04155 0.24663 0.0
H2547 H 0.44665 0.02968 0.25032 0.0
H2548 H 0.43174 0.95697 0.29223 0.0
H2549 H 0.4371 0.98409 0.28504 0.0
H2550 H 0.49049 0.99667 0.28216 0.0
C2551 C 0.49062 0.05009 0.24999 0.0
C2552 C 0.45626 0.02264 0.2575 0.0
C2553 C 0.49386 0.06552 0.24506 0.0
C2554 C 0.44373 0.96018 0.28591 0.0
C2555 C 0.44674 0.97575 0.28154 0.0
C2556 C 0.48086 1.00371 0.27501 0.0
C2557 C 0.47523 0.04569 0.25852 0.0
C2558 C 0.47169 0.02909 0.26286 0.0
C2559 C 0.46212 0.98053 0.27337 0.0
C2560 C 0.46547 0.99723 0.26954 0.0
H2561 H 0.45697 0.08126 0.26022 0.0
H2562 H 0.45132 0.05423 0.26914 0.0
H2563 H 0.49587 0.02405 0.27633 0.0
H2564 H 0.48104 0.94531 0.27074 0.0
H2565 H 0.48624 0.97251 0.26275 0.0
C2566 C 0.82714 0.69466 1.00307 0.0
C2567 C 0.83383 0.69064 0.02311 0.0
C2568 C 0.81001 0.69664 1.00062 0.0
C2569 C 0.77011 0.68673 0.02786 0.0
H2570 H 0.75158 0.7144 0.98521 0.0
C2571 C 0.69934 0.69527 0.01743 0.0
C2572 C 0.69381 0.69281 0.99629 0.0
C2573 C 0.71629 0.69702 0.02172 0.0
C2574 C 0.7566 0.70665 0.99721 0.0
H2575 H 0.82805 0.68644 0.05656 0.0
H2576 H 0.79839 0.69051 0.05266 0.0
H2577 H 0.78148 0.71381 0.99092 0.0
H2578 H 0.70147 0.69112 0.96301 0.0
H2579 H 0.73095 0.69449 0.9704 0.0
H2580 H 0.74514 0.67974 0.03424 0.0
C2581 C 0.80612 0.69151 0.03852 0.0
C2582 C 0.77377 0.7062 1.0004 0.0
C2583 C 0.82317 0.68925 0.04083 0.0
C2584 C 0.70543 0.69287 0.97946 0.0
C2585 C 0.72228 0.69491 0.98368 0.0
C2586 C 0.75296 0.68737 0.02489 0.0
C2587 C 0.7992 0.69491 0.01829 0.0
C2588 C 0.78082 0.69608 0.01558 0.0
C2589 C 0.72794 0.69668 1.00488 0.0
C2590 C 0.74602 0.69717 1.00935 0.0
H2591 H 0.83511 0.69569 0.98914 0.0
H2592 H 0.80523 0.69904 0.98472 0.0
H2593 H 0.77496 0.67853 0.03937 0.0
H2594 H 0.69063 0.69519 0.03066 0.0
H2595 H 0.72031 0.69844 0.03821 0.0
C2596 C 0.05167 0.05182 0.79618 0.0
C2597 C 0.05188 0.06359 0.7806 0.0
C2598 C 0.05041 0.0363 0.79017 0.0
C2599 C 0.05893 0.01024 0.74467 0.0
H2600 H 0.03353 0.98072 0.77796 0.0
C2601 C 0.05456 0.94638 0.71905 0.0
C2602 C 0.05558 0.93506 0.7352 0.0
C2603 C 0.05261 0.96198 0.72431 0.0
C2604 C 0.04083 0.98877 0.76862 0.0
H2605 H 0.05051 0.06822 0.74644 0.0
H2606 H 0.04821 0.04104 0.73586 0.0
H2607 H 0.03246 1.00813 0.78724 0.0
H2608 H 0.05498 0.93129 0.76959 0.0
H2609 H 0.05175 0.95861 0.77889 0.0
H2610 H 0.06756 0.99095 0.7263 0.0
C2611 C 0.04916 0.04387 0.75278 0.0
C2612 C 0.04018 1.00451 0.7739 0.0
C2613 C 0.05032 0.05945 0.75883 0.0
C2614 C 0.05413 0.9397 0.75678 0.0
C2615 C 0.05226 0.95538 0.76208 0.0
C2616 C 0.05963 0.99452 0.73944 0.0
C2617 C 0.04939 0.03208 0.76838 0.0
C2618 C 0.04929 0.01544 0.76206 0.0
C2619 C 0.0517 0.96675 0.74589 0.0
C2620 C 0.05064 0.98355 0.75137 0.0
H2621 H 0.05261 0.0546 0.8131 0.0
H2622 H 0.05076 0.02757 0.80262 0.0
H2623 H 0.06635 0.01827 0.73545 0.0
H2624 H 0.05525 0.94318 0.70225 0.0
H2625 H 0.05181 0.97031 0.71137 0.0
C2626 C 0.69727 0.33838 0.53864 0.0
C2627 C 0.68614 0.3338 0.52248 0.0
C2628 C 0.71433 0.33643 0.53596 0.0
C2629 C 0.74593 0.31597 0.50269 0.0
H2630 H 0.77464 0.34868 0.52333 0.0
C2631 C 0.81407 0.32269 0.47585 0.0
C2632 C 0.82587 0.32685 0.49144 0.0
C2633 C 0.79721 0.32235 0.48089 0.0
C2634 C 0.76682 0.33934 0.51773 0.0
H2635 H 0.6842 0.32343 0.4909 0.0
H2636 H 0.71401 0.32027 0.48592 0.0
H2637 H 0.74491 0.35041 0.52936 0.0
H2638 H 0.8292 0.3337 0.52465 0.0
H2639 H 0.79963 0.33319 0.5335 0.0
H2640 H 0.76792 0.30515 0.49053 0.0
C2641 C 0.70956 0.32511 0.50091 0.0
C2642 C 0.74974 0.34031 0.5212 0.0
C2643 C 0.69245 0.32694 0.50371 0.0
C2644 C 0.82042 0.3304 0.51234 0.0
C2645 C 0.8035 0.33022 0.51733 0.0
C2646 C 0.76302 0.31507 0.49906 0.0
C2647 C 0.72075 0.32996 0.51693 0.0
C2648 C 0.73903 0.32867 0.51366 0.0
C2649 C 0.79169 0.32628 0.50161 0.0
C2650 C 0.77365 0.32679 0.50645 0.0
H2651 H 0.69278 0.34342 0.55348 0.0
H2652 H 0.72247 0.33996 0.54888 0.0
H2653 H 0.73816 0.30664 0.49697 0.0
H2654 H 0.81788 0.31969 0.45969 0.0
H2655 H 0.78846 0.31938 0.46836 0.0
loop_
_geom_bond_atom_site_label_1
_geom_bond_atom_site_label_2
_geom_bond_distance
_geom_bond_site_symmetry_2
_ccdc_geom_bond_type
Cu0 N1 1.999 . S
Cu0 O6 1.974 . S
Cu0 N11 1.985 . S
Cu0 O20 1.959 . S
N1 Cu0 1.999 . S
N1 C3 1.263 . S
N1 C5 1.389 . S
N2 C3 1.358 . S
N2 C4 1.400 . S
C3 N1 1.263 . S
C3 N2 1.358 . S
C3 H9 0.930 . S
C4 N2 1.400 . S
C4 C5 1.351 . S
C4 H21 0.930 . S
C5 N1 1.389 . S
C5 C4 1.351 . S
C5 H10 0.930 . S
O6 Cu0 1.974 . S
O6 C16 1.282 . S
C7 O8 1.261 . S
C7 O20 1.251 . S
O8 C7 1.261 . S
H9 C3 0.930 . S
H10 C5 0.930 . S
N11 Cu0 1.985 . S
N11 C13 1.335 . S
N11 C14 1.390 . S
N12 C13 1.345 . S
N12 C15 1.336 . S
C13 N11 1.335 . S
C13 N12 1.345 . S
C13 H18 0.930 . S
C14 N11 1.390 . S
C14 C15 1.346 . S
C14 H19 0.930 . S
C15 N12 1.336 . S
C15 C14 1.346 . S
C15 H22 0.929 . S
C16 O6 1.282 . S
C16 O17 1.216 . S
O17 C16 1.216 . S
H18 C13 0.930 . S
H19 C14 0.930 . S
O20 Cu0 1.959 . S
O20 C7 1.251 . S
H21 C4 0.930 . S
H22 C15 0.929 . S
Cu23 N24 1.999 . S
Cu23 O29 1.974 . S
Cu23 N34 1.985 . S
Cu23 O43 1.959 . S
N24 Cu23 1.999 . S
N24 C26 1.263 . S
N24 C28 1.389 . S
N25 C26 1.358 . S
N25 C27 1.400 . S
C26 N24 1.263 . S
C26 N25 1.358 . S
C26 H32 0.930 . S
C27 N25 1.400 . S
C27 C28 1.351 . S
C27 H44 0.930 . S
C28 N24 1.389 . S
C28 C27 1.351 . S
C28 H33 0.930 . S
O29 Cu23 1.974 . S
O29 C39 1.282 . S
C30 O31 1.261 . S
C30 O43 1.251 . S
O31 C30 1.261 . S
H32 C26 0.930 . S
H33 C28 0.930 . S
N34 Cu23 1.985 . S
N34 C36 1.335 . S
N34 C37 1.390 . S
N35 C36 1.345 . S
N35 C38 1.336 . S
C36 N34 1.335 . S
C36 N35 1.345 . S
C36 H41 0.930 . S
C37 N34 1.390 . S
C37 C38 1.346 . S
C37 H42 0.930 . S
C38 N35 1.336 . S
C38 C37 1.346 . S
C38 H45 0.929 . S
C39 O29 1.282 . S
C39 O40 1.216 . S
O40 C39 1.216 . S
H41 C36 0.930 . S
H42 C37 0.930 . S
O43 Cu23 1.959 . S
O43 C30 1.251 . S
H44 C27 0.930 . S
H45 C38 0.929 . S
Cu46 N47 1.999 . S
Cu46 O52 1.974 . S
Cu46 N57 1.985 . S
Cu46 O66 1.959 . S
N47 Cu46 1.999 . S
N47 C49 1.263 . S
N47 C51 1.389 . S
N48 C49 1.358 . S
N48 C50 1.400 . S
C49 N47 1.263 . S
C49 N48 1.358 . S
C49 H55 0.930 . S
C50 N48 1.400 . S
C50 C51 1.351 . S
C50 H67 0.930 . S
C51 N47 1.389 . S
C51 C50 1.351 . S
C51 H56 0.930 . S
O52 Cu46 1.974 . S
O52 C62 1.282 . S
C53 O54 1.261 . S
C53 O66 1.251 . S
O54 C53 1.261 . S
H55 C49 0.930 . S
H56 C51 0.930 . S
N57 Cu46 1.985 . S
N57 C59 1.335 . S
N57 C60 1.390 . S
N58 C59 1.345 . S
N58 C61 1.336 . S
C59 N57 1.335 . S
C59 N58 1.345 . S
C59 H64 0.930 . S
C60 N57 1.390 . S
C60 C61 1.346 . S
C60 H65 0.930 . S
C61 N58 1.336 . S
C61 C60 1.346 . S
C61 H68 0.929 . S
C62 O52 1.282 . S
C62 O63 1.216 . S
O63 C62 1.216 . S
H64 C59 0.930 . S
H65 C60 0.930 . S
O66 Cu46 1.959 . S
O66 C53 1.251 . S
H67 C50 0.930 . S
H68 C61 0.929 . S
Cu69 N70 1.999 . S
Cu69 O75 1.974 . S
Cu69 N80 1.985 . S
Cu69 O89 1.959 . S
N70 Cu69 1.999 . S
N70 C72 1.259 1_554 S
N70 C74 1.389 1_554 S
N71 C72 1.365 . S
N71 C73 1.400 . S
C72 N70 1.259 1_556 S
C72 N71 1.365 . S
C72 H78 0.927 1_556 S
C73 N71 1.400 . S
C73 C74 1.351 . S
C73 H90 0.930 . S
C74 N70 1.389 1_556 S
C74 C73 1.351 . S
C74 H79 0.930 1_556 S
O75 Cu69 1.974 . S
O75 C85 1.282 . S
C76 O77 1.261 . S
C76 O89 1.251 . S
O77 C76 1.261 . S
H78 C72 0.927 1_554 S
H79 C74 0.930 1_554 S
N80 Cu69 1.985 . S
N80 C82 1.335 . S
N80 C83 1.390 . S
N81 C82 1.345 . S
N81 C84 1.336 . S
C82 N80 1.335 . S
C82 N81 1.345 . S
C82 H87 0.930 . S
C83 N80 1.390 . S
C83 C84 1.346 . S
C83 H88 0.930 . S
C84 N81 1.336 . S
C84 C83 1.346 . S
C84 H91 0.929 . S
C85 O75 1.282 . S
C85 O86 1.216 . S
O86 C85 1.216 . S
H87 C82 0.930 . S
H88 C83 0.930 . S
O89 Cu69 1.959 . S
O89 C76 1.251 . S
H90 C73 0.930 . S
H91 C84 0.929 . S
Cu92 N93 1.999 . S
Cu92 O98 1.974 . S
Cu92 N103 1.985 . S
Cu92 O112 1.959 . S
N93 Cu92 1.999 . S
N93 C95 1.263 . S
N93 C97 1.389 . S
N94 C95 1.358 . S
N94 C96 1.400 . S
C95 N93 1.263 . S
C95 N94 1.358 . S
C95 H101 0.930 . S
C96 N94 1.400 . S
C96 C97 1.351 . S
C96 H113 0.930 . S
C97 N93 1.389 . S
C97 C96 1.351 . S
C97 H102 0.930 . S
O98 Cu92 1.974 . S
O98 C108 1.282 . S
C99 O100 1.261 . S
C99 O112 1.251 . S
O100 C99 1.261 . S
H101 C95 0.930 . S
H102 C97 0.930 . S
N103 Cu92 1.985 . S
N103 C105 1.335 . S
N103 C106 1.390 . S
N104 C105 1.345 . S
N104 C107 1.336 . S
C105 N103 1.335 . S
C105 N104 1.345 . S
C105 H110 0.930 . S
C106 N103 1.390 . S
C106 C107 1.346 . S
C106 H111 0.930 . S
C107 N104 1.336 . S
C107 C106 1.346 . S
C107 H114 0.929 . S
C108 O98 1.282 . S
C108 O109 1.216 . S
O109 C108 1.216 . S
H110 C105 0.930 . S
H111 C106 0.930 . S
O112 Cu92 1.959 . S
O112 C99 1.251 . S
H113 C96 0.930 . S
H114 C107 0.929 . S
Cu115 N116 1.999 . S
Cu115 O121 1.974 . S
Cu115 N126 1.985 . S
Cu115 O135 1.959 . S
N116 Cu115 1.999 . S
N116 C118 1.263 . S
N116 C120 1.389 . S
N117 C118 1.358 . S
N117 C119 1.400 . S
C118 N116 1.263 . S
C118 N117 1.358 . S
C118 H124 0.930 . S
C119 N117 1.400 . S
C119 C120 1.351 . S
C119 H136 0.930 . S
C120 N116 1.389 . S
C120 C119 1.351 . S
C120 H125 0.930 . S
O121 Cu115 1.974 . S
O121 C131 1.282 . S
C122 O123 1.261 . S
C122 O135 1.251 . S
O123 C122 1.261 . S
H124 C118 0.930 . S
H125 C120 0.930 . S
N126 Cu115 1.985 . S
N126 C128 1.335 . S
N126 C129 1.390 . S
N127 C128 1.345 . S
N127 C130 1.336 . S
C128 N126 1.335 . S
C128 N127 1.345 . S
C128 H133 0.930 . S
C129 N126 1.390 . S
C129 C130 1.346 . S
C129 H134 0.930 . S
C130 N127 1.336 . S
C130 C129 1.346 . S
C130 H137 0.929 . S
C131 O121 1.282 . S
C131 O132 1.216 . S
O132 C131 1.216 . S
H133 C128 0.930 . S
H134 C129 0.930 . S
O135 Cu115 1.959 . S
O135 C122 1.251 . S
H136 C119 0.930 . S
H137 C130 0.929 . S
Cu138 N139 1.999 . S
Cu138 O144 1.974 . S
Cu138 N149 1.985 . S
Cu138 O158 1.959 . S
N139 Cu138 1.999 . S
N139 C141 1.263 . S
N139 C143 1.389 . S
N140 C141 1.358 . S
N140 C142 1.400 . S
C141 N139 1.263 . S
C141 N140 1.358 . S
C141 H147 0.930 . S
C142 N140 1.400 . S
C142 C143 1.351 . S
C142 H159 0.930 . S
C143 N139 1.389 . S
C143 C142 1.351 . S
C143 H148 0.930 . S
O144 Cu138 1.974 . S
O144 C154 1.282 . S
C145 O146 1.261 . S
C145 O158 1.251 . S
O146 C145 1.261 . S
H147 C141 0.930 . S
H148 C143 0.930 . S
N149 Cu138 1.985 . S
N149 C151 1.335 . S
N149 C152 1.390 . S
N150 C151 1.345 . S
N150 C153 1.336 . S
C151 N149 1.335 . S
C151 N150 1.345 . S
C151 H156 0.930 . S
C152 N149 1.390 . S
C152 C153 1.346 . S
C152 H157 0.930 . S
C153 N150 1.336 . S
C153 C152 1.346 . S
C153 H160 0.929 . S
C154 O144 1.282 . S
C154 O155 1.216 . S
O155 C154 1.216 . S
H156 C151 0.930 . S
H157 C152 0.930 . S
O158 Cu138 1.959 . S
O158 C145 1.251 . S
H159 C142 0.930 . S
H160 C153 0.929 . S
Cu161 N162 1.999 . S
Cu161 O167 1.974 . S
Cu161 N172 1.985 . S
Cu161 O181 1.959 . S
N162 Cu161 1.999 . S
N162 C164 1.259 1_556 S
N162 C166 1.389 1_556 S
N163 C164 1.365 . S
N163 C165 1.400 . S
C164 N162 1.259 1_554 S
C164 N163 1.365 . S
C164 H170 0.927 1_554 S
C165 N163 1.400 . S
C165 C166 1.351 . S
C165 H182 0.930 . S
C166 N162 1.389 1_554 S
C166 C165 1.351 . S
C166 H171 0.930 1_554 S
O167 Cu161 1.974 . S
O167 C177 1.282 . S
C168 O169 1.261 . S
C168 O181 1.251 . S
O169 C168 1.261 . S
H170 C164 0.927 1_556 S
H171 C166 0.930 1_556 S
N172 Cu161 1.985 . S
N172 C174 1.335 . S
N172 C175 1.390 . S
N173 C174 1.345 . S
N173 C176 1.336 . S
C174 N172 1.335 . S
C174 N173 1.345 . S
C174 H179 0.930 . S
C175 N172 1.390 . S
C175 C176 1.346 . S
C175 H180 0.930 . S
C176 N173 1.336 . S
C176 C175 1.346 . S
C176 H183 0.929 . S
C177 O167 1.282 . S
C177 O178 1.216 . S
O178 C177 1.216 . S
H179 C174 0.930 . S
H180 C175 0.930 . S
O181 Cu161 1.959 . S
O181 C168 1.251 . S
H182 C165 0.930 . S
H183 C176 0.929 . S
Cu184 N185 1.999 . S
Cu184 O190 1.974 . S
Cu184 N195 1.985 . S
Cu184 O204 1.959 . S
N185 Cu184 1.999 . S
N185 C187 1.263 . S
N185 C189 1.389 . S
N186 C187 1.358 . S
N186 C188 1.400 . S
C187 N185 1.263 . S
C187 N186 1.358 . S
C187 H193 0.930 . S
C188 N186 1.400 . S
C188 C189 1.351 . S
C188 H205 0.930 . S
C189 N185 1.389 . S
C189 C188 1.351 . S
C189 H194 0.930 . S
O190 Cu184 1.974 . S
O190 C200 1.282 . S
C191 O192 1.261 . S
C191 O204 1.251 . S
O192 C191 1.261 . S
H193 C187 0.930 . S
H194 C189 0.930 . S
N195 Cu184 1.985 . S
N195 C197 1.335 . S
N195 C198 1.390 . S
N196 C197 1.345 . S
N196 C199 1.336 . S
C197 N195 1.335 . S
C197 N196 1.345 . S
C197 H202 0.930 . S
C198 N195 1.390 . S
C198 C199 1.346 . S
C198 H203 0.930 . S
C199 N196 1.336 . S
C199 C198 1.346 . S
C199 H206 0.929 . S
C200 O190 1.282 . S
C200 O201 1.216 . S
O201 C200 1.216 . S
H202 C197 0.930 . S
H203 C198 0.930 . S
O204 Cu184 1.959 . S
O204 C191 1.251 . S
H205 C188 0.930 . S
H206 C199 0.929 . S
Cu207 N208 1.999 . S
Cu207 O213 1.974 . S
Cu207 N218 1.985 . S
Cu207 O227 1.959 . S
N208 Cu207 1.999 . S
N208 C210 1.263 . S
N208 C212 1.389 . S
N209 C210 1.358 . S
N209 C211 1.400 . S
C210 N208 1.263 . S
C210 N209 1.358 . S
C210 H216 0.930 . S
C211 N209 1.400 . S
C211 C212 1.351 . S
C211 H228 0.930 . S
C212 N208 1.389 . S
C212 C211 1.351 . S
C212 H217 0.930 . S
O213 Cu207 1.974 . S
O213 C223 1.282 . S
C214 O215 1.261 . S
C214 O227 1.251 . S
O215 C214 1.261 . S
H216 C210 0.930 . S
H217 C212 0.930 . S
N218 Cu207 1.985 . S
N218 C220 1.335 . S
N218 C221 1.390 . S
N219 C220 1.345 . S
N219 C222 1.336 . S
C220 N218 1.335 . S
C220 N219 1.345 . S
C220 H225 0.930 . S
C221 N218 1.390 . S
C221 C222 1.346 . S
C221 H226 0.930 . S
C222 N219 1.336 . S
C222 C221 1.346 . S
C222 H229 0.929 . S
C223 O213 1.282 . S
C223 O224 1.216 . S
O224 C223 1.216 . S
H225 C220 0.930 . S
H226 C221 0.930 . S
O227 Cu207 1.959 . S
O227 C214 1.251 . S
H228 C211 0.930 . S
H229 C222 0.929 . S
Cu230 N231 1.999 . S
Cu230 O236 1.974 . S
Cu230 N241 1.985 . S
Cu230 O250 1.959 . S
N231 Cu230 1.999 . S
N231 C233 1.263 . S
N231 C235 1.389 . S
N232 C233 1.358 . S
N232 C234 1.400 . S
C233 N231 1.263 . S
C233 N232 1.358 . S
C233 H239 0.930 . S
C234 N232 1.400 . S
C234 C235 1.351 . S
C234 H251 0.930 . S
C235 N231 1.389 . S
C235 C234 1.351 . S
C235 H240 0.930 . S
O236 Cu230 1.974 . S
O236 C246 1.282 . S
C237 O238 1.261 . S
C237 O250 1.251 . S
O238 C237 1.261 . S
H239 C233 0.930 . S
H240 C235 0.930 . S
N241 Cu230 1.985 . S
N241 C243 1.335 . S
N241 C244 1.390 . S
N242 C243 1.345 . S
N242 C245 1.336 . S
C243 N241 1.335 . S
C243 N242 1.345 . S
C243 H248 0.930 . S
C244 N241 1.390 . S
C244 C245 1.346 . S
C244 H249 0.930 . S
C245 N242 1.336 . S
C245 C244 1.346 . S
C245 H252 0.929 . S
C246 O236 1.282 . S
C246 O247 1.216 . S
O247 C246 1.216 . S
H248 C243 0.930 . S
H249 C244 0.930 . S
O250 Cu230 1.959 . S
O250 C237 1.251 . S
H251 C234 0.930 . S
H252 C245 0.929 . S
Cu253 N254 1.999 . S
Cu253 O259 1.974 . S
Cu253 N264 1.985 . S
Cu253 O273 1.959 . S
N254 Cu253 1.999 . S
N254 C256 1.263 . S
N254 C258 1.389 . S
N255 C256 1.358 . S
N255 C257 1.400 . S
C256 N254 1.263 . S
C256 N255 1.358 . S
C256 H262 0.930 . S
C257 N255 1.400 . S
C257 C258 1.351 . S
C257 H274 0.930 . S
C258 N254 1.389 . S
C258 C257 1.351 . S
C258 H263 0.930 . S
O259 Cu253 1.974 . S
O259 C269 1.282 . S
C260 O261 1.262 . S
C260 O273 1.242 1_554 S
O261 C260 1.262 . S
H262 C256 0.930 . S
H263 C258 0.930 . S
N264 Cu253 1.985 . S
N264 C266 1.335 . S
N264 C267 1.390 . S
N265 C266 1.345 . S
N265 C268 1.336 . S
C266 N264 1.335 . S
C266 N265 1.345 . S
C266 H271 0.930 . S
C267 N264 1.390 . S
C267 C268 1.346 . S
C267 H272 0.930 . S
C268 N265 1.336 . S
C268 C267 1.346 . S
C268 H275 0.929 . S
C269 O259 1.282 . S
C269 O270 1.216 . S
O270 C269 1.216 . S
H271 C266 0.930 . S
H272 C267 0.930 . S
O273 Cu253 1.959 . S
O273 C260 1.242 1_556 S
H274 C257 0.930 . S
H275 C268 0.929 . S
Cu276 N277 1.999 . S
Cu276 O282 1.974 . S
Cu276 N287 1.985 . S
Cu276 O296 1.959 . S
N277 Cu276 1.999 . S
N277 C279 1.263 . S
N277 C281 1.389 . S
N278 C279 1.358 . S
N278 C280 1.400 . S
C279 N277 1.263 . S
C279 N278 1.358 . S
C279 H285 0.930 . S
C280 N278 1.400 . S
C280 C281 1.351 . S
C280 H297 0.930 . S
C281 N277 1.389 . S
C281 C280 1.351 . S
C281 H286 0.930 . S
O282 Cu276 1.974 . S
O282 C292 1.282 . S
C283 O284 1.261 . S
C283 O296 1.251 . S
O284 C283 1.261 . S
H285 C279 0.930 . S
H286 C281 0.930 . S
N287 Cu276 1.985 . S
N287 C289 1.335 . S
N287 C290 1.390 . S
N288 C289 1.345 . S
N288 C291 1.336 . S
C289 N287 1.335 . S
C289 N288 1.345 . S
C289 H294 0.930 . S
C290 N287 1.390 . S
C290 C291 1.346 . S
C290 H295 0.930 . S
C291 N288 1.336 . S
C291 C290 1.346 . S
C291 H298 0.929 . S
C292 O282 1.282 . S
C292 O293 1.216 . S
O293 C292 1.216 . S
H294 C289 0.930 . S
H295 C290 0.930 . S
O296 Cu276 1.959 . S
O296 C283 1.251 . S
H297 C280 0.930 . S
H298 C291 0.929 . S
Cu299 N300 1.999 . S
Cu299 O305 1.974 . S
Cu299 N310 1.985 . S
Cu299 O319 1.959 . S
N300 Cu299 1.999 . S
N300 C302 1.263 . S
N300 C304 1.389 . S
N301 C302 1.358 . S
N301 C303 1.400 . S
C302 N300 1.263 . S
C302 N301 1.358 . S
C302 H308 0.930 . S
C303 N301 1.400 . S
C303 C304 1.351 . S
C303 H320 0.930 . S
C304 N300 1.389 . S
C304 C303 1.351 . S
C304 H309 0.930 . S
O305 Cu299 1.974 . S
O305 C315 1.282 . S
C306 O307 1.261 . S
C306 O319 1.251 . S
O307 C306 1.261 . S
H308 C302 0.930 . S
H309 C304 0.930 . S
N310 Cu299 1.985 . S
N310 C312 1.335 . S
N310 C313 1.390 . S
N311 C312 1.345 . S
N311 C314 1.336 . S
C312 N310 1.335 . S
C312 N311 1.345 . S
C312 H317 0.930 . S
C313 N310 1.390 . S
C313 C314 1.346 . S
C313 H318 0.930 . S
C314 N311 1.336 . S
C314 C313 1.346 . S
C314 H321 0.929 . S
C315 O305 1.282 . S
C315 O316 1.216 . S
O316 C315 1.216 . S
H317 C312 0.930 . S
H318 C313 0.930 . S
O319 Cu299 1.959 . S
O319 C306 1.251 . S
H320 C303 0.930 . S
H321 C314 0.929 . S
Cu322 N323 1.999 . S
Cu322 O328 1.974 . S
Cu322 N333 1.985 . S
Cu322 O342 1.959 . S
N323 Cu322 1.999 . S
N323 C325 1.263 . S
N323 C327 1.389 . S
N324 C325 1.358 . S
N324 C326 1.400 . S
C325 N323 1.263 . S
C325 N324 1.358 . S
C325 H331 0.930 . S
C326 N324 1.400 . S
C326 C327 1.351 . S
C326 H343 0.930 . S
C327 N323 1.389 . S
C327 C326 1.351 . S
C327 H332 0.930 . S
O328 Cu322 1.974 . S
O328 C338 1.282 . S
C329 O330 1.261 . S
C329 O342 1.251 . S
O330 C329 1.261 . S
H331 C325 0.930 . S
H332 C327 0.930 . S
N333 Cu322 1.985 . S
N333 C335 1.335 . S
N333 C336 1.390 . S
N334 C335 1.345 . S
N334 C337 1.336 . S
C335 N333 1.335 . S
C335 N334 1.345 . S
C335 H340 0.930 . S
C336 N333 1.390 . S
C336 C337 1.346 . S
C336 H341 0.930 . S
C337 N334 1.336 . S
C337 C336 1.346 . S
C337 H344 0.929 . S
C338 O328 1.282 . S
C338 O339 1.216 . S
O339 C338 1.216 . S
H340 C335 0.930 . S
H341 C336 0.930 . S
O342 Cu322 1.959 . S
O342 C329 1.251 . S
H343 C326 0.930 . S
H344 C337 0.929 . S
Cu345 N346 1.999 . S
Cu345 O351 1.974 . S
Cu345 N356 1.985 . S
Cu345 O365 1.959 . S
N346 Cu345 1.999 . S
N346 C348 1.263 . S
N346 C350 1.389 . S
N347 C348 1.358 . S
N347 C349 1.400 . S
C348 N346 1.263 . S
C348 N347 1.358 . S
C348 H354 0.930 . S
C349 N347 1.400 . S
C349 C350 1.351 . S
C349 H366 0.930 . S
C350 N346 1.389 . S
C350 C349 1.351 . S
C350 H355 0.930 . S
O351 Cu345 1.974 . S
O351 C361 1.282 . S
C352 O353 1.262 . S
C352 O365 1.242 1_556 S
O353 C352 1.262 . S
H354 C348 0.930 . S
H355 C350 0.930 . S
N356 Cu345 1.985 . S
N356 C358 1.335 . S
N356 C359 1.390 . S
N357 C358 1.345 . S
N357 C360 1.336 . S
C358 N356 1.335 . S
C358 N357 1.345 . S
C358 H363 0.930 . S
C359 N356 1.390 . S
C359 C360 1.346 . S
C359 H364 0.930 . S
C360 N357 1.336 . S
C360 C359 1.346 . S
C360 H367 0.929 . S
C361 O351 1.282 . S
C361 O362 1.216 . S
O362 C361 1.216 . S
H363 C358 0.930 . S
H364 C359 0.930 . S
O365 Cu345 1.959 . S
O365 C352 1.242 1_554 S
H366 C349 0.930 . S
H367 C360 0.929 . S
Cu368 N369 1.999 . S
Cu368 O374 1.974 . S
Cu368 N379 1.985 . S
Cu368 O388 1.959 . S
N369 Cu368 1.999 . S
N369 C371 1.263 . S
N369 C373 1.389 . S
N370 C371 1.358 . S
N370 C372 1.400 . S
C371 N369 1.263 . S
C371 N370 1.358 . S
C371 H377 0.930 . S
C372 N370 1.400 . S
C372 C373 1.351 . S
C372 H389 0.930 . S
C373 N369 1.389 . S
C373 C372 1.351 . S
C373 H378 0.930 . S
O374 Cu368 1.974 . S
O374 C384 1.282 . S
C375 O376 1.261 . S
C375 O388 1.251 . S
O376 C375 1.261 . S
H377 C371 0.930 . S
H378 C373 0.930 . S
N379 Cu368 1.985 . S
N379 C381 1.335 . S
N379 C382 1.390 . S
N380 C381 1.345 . S
N380 C383 1.336 . S
C381 N379 1.335 . S
C381 N380 1.345 . S
C381 H386 0.930 . S
C382 N379 1.390 . S
C382 C383 1.346 . S
C382 H387 0.930 . S
C383 N380 1.336 . S
C383 C382 1.346 . S
C383 H390 0.929 . S
C384 O374 1.282 . S
C384 O385 1.216 . S
O385 C384 1.216 . S
H386 C381 0.930 . S
H387 C382 0.930 . S
O388 Cu368 1.959 . S
O388 C375 1.251 . S
H389 C372 0.930 . S
H390 C383 0.929 . S
Cu391 N392 1.999 . S
Cu391 O397 1.974 . S
Cu391 N402 1.985 . S
Cu391 O411 1.959 . S
N392 Cu391 1.999 . S
N392 C394 1.259 1_554 S
N392 C396 1.389 1_554 S
N393 C394 1.365 . S
N393 C395 1.400 . S
C394 N392 1.259 1_556 S
C394 N393 1.365 . S
C394 H400 0.927 1_556 S
C395 N393 1.400 . S
C395 C396 1.351 . S
C395 H412 0.930 . S
C396 N392 1.389 1_556 S
C396 C395 1.351 . S
C396 H401 0.930 1_556 S
O397 Cu391 1.974 . S
O397 C407 1.282 . S
C398 O399 1.261 . S
C398 O411 1.251 . S
O399 C398 1.261 . S
H400 C394 0.927 1_554 S
H401 C396 0.930 1_554 S
N402 Cu391 1.985 . S
N402 C404 1.335 . S
N402 C405 1.390 . S
N403 C404 1.345 . S
N403 C406 1.336 . S
C404 N402 1.335 . S
C404 N403 1.345 . S
C404 H409 0.930 . S
C405 N402 1.390 . S
C405 C406 1.346 . S
C405 H410 0.930 . S
C406 N403 1.336 . S
C406 C405 1.346 . S
C406 H413 0.929 . S
C407 O397 1.282 . S
C407 O408 1.216 . S
O408 C407 1.216 . S
H409 C404 0.930 . S
H410 C405 0.930 . S
O411 Cu391 1.959 . S
O411 C398 1.251 . S
H412 C395 0.930 . S
H413 C406 0.929 . S
Cu414 N415 1.999 . S
Cu414 O420 1.974 . S
Cu414 N425 1.985 . S
Cu414 O434 1.959 . S
N415 Cu414 1.999 . S
N415 C417 1.263 . S
N415 C419 1.389 . S
N416 C417 1.358 . S
N416 C418 1.400 . S
C417 N415 1.263 . S
C417 N416 1.358 . S
C417 H423 0.930 . S
C418 N416 1.400 . S
C418 C419 1.351 . S
C418 H435 0.930 . S
C419 N415 1.389 . S
C419 C418 1.351 . S
C419 H424 0.930 . S
O420 Cu414 1.974 . S
O420 C430 1.282 . S
C421 O422 1.261 . S
C421 O434 1.251 . S
O422 C421 1.261 . S
H423 C417 0.930 . S
H424 C419 0.930 . S
N425 Cu414 1.985 . S
N425 C427 1.335 . S
N425 C428 1.390 . S
N426 C427 1.345 . S
N426 C429 1.336 . S
C427 N425 1.335 . S
C427 N426 1.345 . S
C427 H432 0.930 . S
C428 N425 1.390 . S
C428 C429 1.346 . S
C428 H433 0.930 . S
C429 N426 1.336 . S
C429 C428 1.346 . S
C429 H436 0.929 . S
C430 O420 1.282 . S
C430 O431 1.216 . S
O431 C430 1.216 . S
H432 C427 0.930 . S
H433 C428 0.930 . S
O434 Cu414 1.959 . S
O434 C421 1.251 . S
H435 C418 0.930 . S
H436 C429 0.929 . S
Cu437 N438 1.999 . S
Cu437 O443 1.974 . S
Cu437 N448 1.985 . S
Cu437 O457 1.959 . S
N438 Cu437 1.999 . S
N438 C440 1.263 . S
N438 C442 1.389 . S
N439 C440 1.358 . S
N439 C441 1.400 . S
C440 N438 1.263 . S
C440 N439 1.358 . S
C440 H446 0.930 . S
C441 N439 1.400 . S
C441 C442 1.351 . S
C441 H458 0.930 . S
C442 N438 1.389 . S
C442 C441 1.351 . S
C442 H447 0.930 . S
O443 Cu437 1.974 . S
O443 C453 1.282 . S
C444 O445 1.261 . S
C444 O457 1.251 . S
O445 C444 1.261 . S
H446 C440 0.930 . S
H447 C442 0.930 . S
N448 Cu437 1.985 . S
N448 C450 1.335 . S
N448 C451 1.390 . S
N449 C450 1.345 . S
N449 C452 1.336 . S
C450 N448 1.335 . S
C450 N449 1.345 . S
C450 H455 0.930 . S
C451 N448 1.390 . S
C451 C452 1.346 . S
C451 H456 0.930 . S
C452 N449 1.336 . S
C452 C451 1.346 . S
C452 H459 0.929 . S
C453 O443 1.282 . S
C453 O454 1.216 . S
O454 C453 1.216 . S
H455 C450 0.930 . S
H456 C451 0.930 . S
O457 Cu437 1.959 . S
O457 C444 1.251 . S
H458 C441 0.930 . S
H459 C452 0.929 . S
Cu460 N461 1.999 . S
Cu460 O466 1.974 . S
Cu460 N471 1.985 . S
Cu460 O480 1.959 . S
N461 Cu460 1.999 . S
N461 C463 1.263 . S
N461 C465 1.389 . S
N462 C463 1.358 . S
N462 C464 1.400 . S
C463 N461 1.263 . S
C463 N462 1.358 . S
C463 H469 0.930 . S
C464 N462 1.400 . S
C464 C465 1.351 . S
C464 H481 0.930 . S
C465 N461 1.389 . S
C465 C464 1.351 . S
C465 H470 0.930 . S
O466 Cu460 1.974 . S
O466 C476 1.282 . S
C467 O468 1.261 . S
C467 O480 1.251 . S
O468 C467 1.261 . S
H469 C463 0.930 . S
H470 C465 0.930 . S
N471 Cu460 1.985 . S
N471 C473 1.335 . S
N471 C474 1.390 . S
N472 C473 1.345 . S
N472 C475 1.336 . S
C473 N471 1.335 . S
C473 N472 1.345 . S
C473 H478 0.930 . S
C474 N471 1.390 . S
C474 C475 1.346 . S
C474 H479 0.930 . S
C475 N472 1.336 . S
C475 C474 1.346 . S
C475 H482 0.929 . S
C476 O466 1.282 . S
C476 O477 1.216 . S
O477 C476 1.216 . S
H478 C473 0.930 . S
H479 C474 0.930 . S
O480 Cu460 1.959 . S
O480 C467 1.251 . S
H481 C464 0.930 . S
H482 C475 0.929 . S
Cu483 N484 1.999 . S
Cu483 O489 1.974 . S
Cu483 N494 1.985 . S
Cu483 O503 1.959 . S
N484 Cu483 1.999 . S
N484 C486 1.259 1_556 S
N484 C488 1.389 1_556 S
N485 C486 1.365 . S
N485 C487 1.400 . S
C486 N484 1.259 1_554 S
C486 N485 1.365 . S
C486 H492 0.927 1_554 S
C487 N485 1.400 . S
C487 C488 1.351 . S
C487 H504 0.930 . S
C488 N484 1.389 1_554 S
C488 C487 1.351 . S
C488 H493 0.930 1_554 S
O489 Cu483 1.974 . S
O489 C499 1.282 . S
C490 O491 1.261 . S
C490 O503 1.251 . S
O491 C490 1.261 . S
H492 C486 0.927 1_556 S
H493 C488 0.930 1_556 S
N494 Cu483 1.985 . S
N494 C496 1.335 . S
N494 C497 1.390 . S
N495 C496 1.345 . S
N495 C498 1.336 . S
C496 N494 1.335 . S
C496 N495 1.345 . S
C496 H501 0.930 . S
C497 N494 1.390 . S
C497 C498 1.346 . S
C497 H502 0.930 . S
C498 N495 1.336 . S
C498 C497 1.346 . S
C498 H505 0.929 . S
C499 O489 1.282 . S
C499 O500 1.216 . S
O500 C499 1.216 . S
H501 C496 0.930 . S
H502 C497 0.930 . S
O503 Cu483 1.959 . S
O503 C490 1.251 . S
H504 C487 0.930 . S
H505 C498 0.929 . S
Cu506 N507 1.999 . S
Cu506 O512 1.974 . S
Cu506 N517 1.985 . S
Cu506 O526 1.959 . S
N507 Cu506 1.999 . S
N507 C509 1.263 . S
N507 C511 1.389 . S
N508 C509 1.358 . S
N508 C510 1.400 . S
C509 N507 1.263 . S
C509 N508 1.358 . S
C509 H515 0.930 . S
C510 N508 1.400 . S
C510 C511 1.351 . S
C510 H527 0.930 . S
C511 N507 1.389 . S
C511 C510 1.351 . S
C511 H516 0.930 . S
O512 Cu506 1.974 . S
O512 C522 1.282 . S
C513 O514 1.261 . S
C513 O526 1.251 . S
O514 C513 1.261 . S
H515 C509 0.930 . S
H516 C511 0.930 . S
N517 Cu506 1.985 . S
N517 C519 1.335 . S
N517 C520 1.390 . S
N518 C519 1.345 . S
N518 C521 1.336 . S
C519 N517 1.335 . S
C519 N518 1.345 . S
C519 H524 0.930 . S
C520 N517 1.390 . S
C520 C521 1.346 . S
C520 H525 0.930 . S
C521 N518 1.336 . S
C521 C520 1.346 . S
C521 H528 0.929 . S
C522 O512 1.282 . S
C522 O523 1.216 . S
O523 C522 1.216 . S
H524 C519 0.930 . S
H525 C520 0.930 . S
O526 Cu506 1.959 . S
O526 C513 1.251 . S
H527 C510 0.930 . S
H528 C521 0.929 . S
Cu529 N530 1.999 . S
Cu529 O535 1.974 . S
Cu529 N540 1.985 . S
Cu529 O549 1.959 . S
N530 Cu529 1.999 . S
N530 C532 1.263 . S
N530 C534 1.389 . S
N531 C532 1.358 . S
N531 C533 1.400 . S
C532 N530 1.263 . S
C532 N531 1.358 . S
C532 H538 0.930 . S
C533 N531 1.400 . S
C533 C534 1.351 . S
C533 H550 0.930 . S
C534 N530 1.389 . S
C534 C533 1.351 . S
C534 H539 0.930 . S
O535 Cu529 1.974 . S
O535 C545 1.282 . S
C536 O537 1.261 . S
C536 O549 1.251 . S
O537 C536 1.261 . S
H538 C532 0.930 . S
H539 C534 0.930 . S
N540 Cu529 1.985 . S
N540 C542 1.335 . S
N540 C543 1.390 . S
N541 C542 1.345 . S
N541 C544 1.336 . S
C542 N540 1.335 . S
C542 N541 1.345 . S
C542 H547 0.930 . S
C543 N540 1.390 . S
C543 C544 1.346 . S
C543 H548 0.930 . S
C544 N541 1.336 . S
C544 C543 1.346 . S
C544 H551 0.929 . S
C545 O535 1.282 . S
C545 O546 1.216 . S
O546 C545 1.216 . S
H547 C542 0.930 . S
H548 C543 0.930 . S
O549 Cu529 1.959 . S
O549 C536 1.251 . S
H550 C533 0.930 . S
H551 C544 0.929 . S
Cu552 N553 1.999 . S
Cu552 O558 1.974 . S
Cu552 N563 1.985 . S
Cu552 O572 1.959 . S
N553 Cu552 1.999 . S
N553 C555 1.263 . S
N553 C557 1.389 . S
N554 C555 1.358 . S
N554 C556 1.400 . S
C555 N553 1.263 . S
C555 N554 1.358 . S
C555 H561 0.930 . S
C556 N554 1.400 . S
C556 C557 1.351 . S
C556 H573 0.930 . S
C557 N553 1.389 . S
C557 C556 1.351 . S
C557 H562 0.930 . S
O558 Cu552 1.974 . S
O558 C568 1.282 . S
C559 O560 1.261 . S
C559 O572 1.251 . S
O560 C559 1.261 . S
H561 C555 0.930 . S
H562 C557 0.930 . S
N563 Cu552 1.985 . S
N563 C565 1.335 . S
N563 C566 1.390 . S
N564 C565 1.345 . S
N564 C567 1.336 . S
C565 N563 1.335 . S
C565 N564 1.345 . S
C565 H570 0.930 . S
C566 N563 1.390 . S
C566 C567 1.346 . S
C566 H571 0.930 . S
C567 N564 1.336 . S
C567 C566 1.346 . S
C567 H574 0.929 . S
C568 O558 1.282 . S
C568 O569 1.216 . S
O569 C568 1.216 . S
H570 C565 0.930 . S
H571 C566 0.930 . S
O572 Cu552 1.959 . S
O572 C559 1.251 . S
H573 C556 0.930 . S
H574 C567 0.929 . S
Cu575 N576 1.999 . S
Cu575 O581 1.974 . S
Cu575 N586 1.985 . S
Cu575 O595 1.959 . S
N576 Cu575 1.999 . S
N576 C578 1.263 . S
N576 C580 1.389 . S
N577 C578 1.358 . S
N577 C579 1.400 . S
C578 N576 1.263 . S
C578 N577 1.358 . S
C578 H584 0.930 . S
C579 N577 1.400 . S
C579 C580 1.351 . S
C579 H596 0.930 . S
C580 N576 1.389 . S
C580 C579 1.351 . S
C580 H585 0.930 . S
O581 Cu575 1.974 . S
O581 C591 1.282 . S
C582 O583 1.262 . S
C582 O595 1.242 1_554 S
O583 C582 1.262 . S
H584 C578 0.930 . S
H585 C580 0.930 . S
N586 Cu575 1.985 . S
N586 C588 1.335 . S
N586 C589 1.390 . S
N587 C588 1.345 . S
N587 C590 1.336 . S
C588 N586 1.335 . S
C588 N587 1.345 . S
C588 H593 0.930 . S
C589 N586 1.390 . S
C589 C590 1.346 . S
C589 H594 0.930 . S
C590 N587 1.336 . S
C590 C589 1.346 . S
C590 H597 0.929 . S
C591 O581 1.282 . S
C591 O592 1.216 . S
O592 C591 1.216 . S
H593 C588 0.930 . S
H594 C589 0.930 . S
O595 Cu575 1.959 . S
O595 C582 1.242 1_556 S
H596 C579 0.930 . S
H597 C590 0.929 . S
Cu598 N599 1.999 . S
Cu598 O604 1.974 . S
Cu598 N609 1.985 . S
Cu598 O618 1.959 . S
N599 Cu598 1.999 . S
N599 C601 1.263 . S
N599 C603 1.389 . S
N600 C601 1.358 . S
N600 C602 1.400 . S
C601 N599 1.263 . S
C601 N600 1.358 . S
C601 H607 0.930 . S
C602 N600 1.400 . S
C602 C603 1.351 . S
C602 H619 0.930 . S
C603 N599 1.389 . S
C603 C602 1.351 . S
C603 H608 0.930 . S
O604 Cu598 1.974 . S
O604 C614 1.282 . S
C605 O606 1.261 . S
C605 O618 1.251 . S
O606 C605 1.261 . S
H607 C601 0.930 . S
H608 C603 0.930 . S
N609 Cu598 1.985 . S
N609 C611 1.335 . S
N609 C612 1.390 . S
N610 C611 1.345 . S
N610 C613 1.336 . S
C611 N609 1.335 . S
C611 N610 1.345 . S
C611 H616 0.930 . S
C612 N609 1.390 . S
C612 C613 1.346 . S
C612 H617 0.930 . S
C613 N610 1.336 . S
C613 C612 1.346 . S
C613 H620 0.929 . S
C614 O604 1.282 . S
C614 O615 1.216 . S
O615 C614 1.216 . S
H616 C611 0.930 . S
H617 C612 0.930 . S
O618 Cu598 1.959 . S
O618 C605 1.251 . S
H619 C602 0.930 . S
H620 C613 0.929 . S
Cu621 N622 1.999 . S
Cu621 O627 1.974 . S
Cu621 N632 1.985 . S
Cu621 O641 1.959 . S
N622 Cu621 1.999 . S
N622 C624 1.263 . S
N622 C626 1.389 . S
N623 C624 1.358 . S
N623 C625 1.400 . S
C624 N622 1.263 . S
C624 N623 1.358 . S
C624 H630 0.930 . S
C625 N623 1.400 . S
C625 C626 1.351 . S
C625 H642 0.930 . S
C626 N622 1.389 . S
C626 C625 1.351 . S
C626 H631 0.930 . S
O627 Cu621 1.974 . S
O627 C637 1.282 . S
C628 O629 1.261 . S
C628 O641 1.251 . S
O629 C628 1.261 . S
H630 C624 0.930 . S
H631 C626 0.930 . S
N632 Cu621 1.985 . S
N632 C634 1.335 . S
N632 C635 1.390 . S
N633 C634 1.345 . S
N633 C636 1.336 . S
C634 N632 1.335 . S
C634 N633 1.345 . S
C634 H639 0.930 . S
C635 N632 1.390 . S
C635 C636 1.346 . S
C635 H640 0.930 . S
C636 N633 1.336 . S
C636 C635 1.346 . S
C636 H643 0.929 . S
C637 O627 1.282 . S
C637 O638 1.216 . S
O638 C637 1.216 . S
H639 C634 0.930 . S
H640 C635 0.930 . S
O641 Cu621 1.959 . S
O641 C628 1.251 . S
H642 C625 0.930 . S
H643 C636 0.929 . S
Cu644 N645 1.999 . S
Cu644 O650 1.974 . S
Cu644 N655 1.985 . S
Cu644 O664 1.959 . S
N645 Cu644 1.999 . S
N645 C647 1.263 . S
N645 C649 1.389 . S
N646 C647 1.358 . S
N646 C648 1.400 . S
C647 N645 1.263 . S
C647 N646 1.358 . S
C647 H653 0.930 . S
C648 N646 1.400 . S
C648 C649 1.351 . S
C648 H665 0.930 . S
C649 N645 1.389 . S
C649 C648 1.351 . S
C649 H654 0.930 . S
O650 Cu644 1.974 . S
O650 C660 1.282 . S
C651 O652 1.261 . S
C651 O664 1.251 . S
O652 C651 1.261 . S
H653 C647 0.930 . S
H654 C649 0.930 . S
N655 Cu644 1.985 . S
N655 C657 1.335 . S
N655 C658 1.390 . S
N656 C657 1.345 . S
N656 C659 1.336 . S
C657 N655 1.335 . S
C657 N656 1.345 . S
C657 H662 0.930 . S
C658 N655 1.390 . S
C658 C659 1.346 . S
C658 H663 0.930 . S
C659 N656 1.336 . S
C659 C658 1.346 . S
C659 H666 0.929 . S
C660 O650 1.282 . S
C660 O661 1.216 . S
O661 C660 1.216 . S
H662 C657 0.930 . S
H663 C658 0.930 . S
O664 Cu644 1.959 . S
O664 C651 1.251 . S
H665 C648 0.930 . S
H666 C659 0.929 . S
Cu667 N668 1.999 . S
Cu667 O673 1.974 . S
Cu667 N678 1.985 . S
Cu667 O687 1.959 . S
N668 Cu667 1.999 . S
N668 C670 1.263 . S
N668 C672 1.389 . S
N669 C670 1.358 . S
N669 C671 1.400 . S
C670 N668 1.263 . S
C670 N669 1.358 . S
C670 H676 0.930 . S
C671 N669 1.400 . S
C671 C672 1.351 . S
C671 H688 0.930 . S
C672 N668 1.389 . S
C672 C671 1.351 . S
C672 H677 0.930 . S
O673 Cu667 1.974 . S
O673 C683 1.282 . S
C674 O675 1.262 . S
C674 O687 1.242 1_556 S
O675 C674 1.262 . S
H676 C670 0.930 . S
H677 C672 0.930 . S
N678 Cu667 1.985 . S
N678 C680 1.335 . S
N678 C681 1.390 . S
N679 C680 1.345 . S
N679 C682 1.336 . S
C680 N678 1.335 . S
C680 N679 1.345 . S
C680 H685 0.930 . S
C681 N678 1.390 . S
C681 C682 1.346 . S
C681 H686 0.930 . S
C682 N679 1.336 . S
C682 C681 1.346 . S
C682 H689 0.929 . S
C683 O673 1.282 . S
C683 O684 1.216 . S
O684 C683 1.216 . S
H685 C680 0.930 . S
H686 C681 0.930 . S
O687 Cu667 1.959 . S
O687 C674 1.242 1_554 S
H688 C671 0.930 . S
H689 C682 0.929 . S
Cu690 N691 1.999 . S
Cu690 O696 1.974 . S
Cu690 N701 1.985 . S
Cu690 O710 1.959 . S
N691 Cu690 1.999 . S
N691 C693 1.263 . S
N691 C695 1.389 . S
N692 C693 1.358 . S
N692 C694 1.400 . S
C693 N691 1.263 . S
C693 N692 1.358 . S
C693 H699 0.930 . S
C694 N692 1.400 . S
C694 C695 1.351 . S
C694 H711 0.930 . S
C695 N691 1.389 . S
C695 C694 1.351 . S
C695 H700 0.930 . S
O696 Cu690 1.974 . S
O696 C706 1.282 . S
C697 O698 1.261 . S
C697 O710 1.251 . S
O698 C697 1.261 . S
H699 C693 0.930 . S
H700 C695 0.930 . S
N701 Cu690 1.985 . S
N701 C703 1.335 . S
N701 C704 1.390 . S
N702 C703 1.345 . S
N702 C705 1.336 . S
C703 N701 1.335 . S
C703 N702 1.345 . S
C703 H708 0.930 . S
C704 N701 1.390 . S
C704 C705 1.346 . S
C704 H709 0.930 . S
C705 N702 1.336 . S
C705 C704 1.346 . S
C705 H712 0.929 . S
C706 O696 1.282 . S
C706 O707 1.216 . S
O707 C706 1.216 . S
H708 C703 0.930 . S
H709 C704 0.930 . S
O710 Cu690 1.959 . S
O710 C697 1.251 . S
H711 C694 0.930 . S
H712 C705 0.929 . S
Cu713 N714 1.999 . S
Cu713 O719 1.974 . S
Cu713 N724 1.985 . S
Cu713 O733 1.959 . S
N714 Cu713 1.999 . S
N714 C716 1.263 . S
N714 C718 1.389 . S
N715 C716 1.358 . S
N715 C717 1.400 . S
C716 N714 1.263 . S
C716 N715 1.358 . S
C716 H722 0.930 . S
C717 N715 1.400 . S
C717 C718 1.351 . S
C717 H734 0.930 . S
C718 N714 1.389 . S
C718 C717 1.351 . S
C718 H723 0.930 . S
O719 Cu713 1.974 . S
O719 C729 1.282 . S
C720 O721 1.261 . S
C720 O733 1.251 . S
O721 C720 1.261 . S
H722 C716 0.930 . S
H723 C718 0.930 . S
N724 Cu713 1.985 . S
N724 C726 1.335 . S
N724 C727 1.390 . S
N725 C726 1.345 . S
N725 C728 1.336 . S
C726 N724 1.335 . S
C726 N725 1.345 . S
C726 H731 0.930 . S
C727 N724 1.390 . S
C727 C728 1.346 . S
C727 H732 0.930 . S
C728 N725 1.336 . S
C728 C727 1.346 . S
C728 H735 0.929 . S
C729 O719 1.282 . S
C729 O730 1.216 . S
O730 C729 1.216 . S
H731 C726 0.930 . S
H732 C727 0.930 . S
O733 Cu713 1.959 . S
O733 C720 1.251 . S
H734 C717 0.930 . S
H735 C728 0.929 . S
C736 C737 1.349 . S
C736 C738 1.327 . S
C736 H761 0.950 . S
C737 C736 1.349 . S
C737 C753 1.349 . S
C738 C736 1.327 . S
C738 C757 1.429 . S
C738 H762 0.950 . S
C739 C756 1.574 . S
C739 C758 1.368 . S
C739 H763 0.949 . S
H740 C744 0.949 . S
C741 C742 1.349 . S
C741 C743 1.327 . S
C741 H764 0.950 . S
C742 C741 1.349 . S
C742 C754 1.349 . S
C743 C741 1.327 . S
C743 C759 1.429 . S
C743 H765 0.950 . S
C744 H740 0.949 . S
C744 C752 1.574 . S
C744 C760 1.368 . S
H745 C753 0.950 . S
H746 C751 0.950 . S
H747 C752 0.949 . S
H748 C754 0.950 . S
H749 C755 0.950 . S
H750 C756 0.949 . S
C751 H746 0.950 . S
C751 C753 1.327 . S
C751 C757 1.429 . S
C752 C744 1.574 . S
C752 H747 0.949 . S
C752 C758 1.368 . S
C753 C737 1.349 . S
C753 H745 0.950 . S
C753 C751 1.327 . S
C754 C742 1.349 . S
C754 H748 0.950 . S
C754 C755 1.327 . S
C755 H749 0.950 . S
C755 C754 1.327 . S
C755 C759 1.429 . S
C756 C739 1.574 . S
C756 H750 0.949 . S
C756 C760 1.368 . S
C757 C738 1.429 . S
C757 C751 1.429 . S
C757 C758 1.523 . S
C758 C739 1.368 . S
C758 C752 1.368 . S
C758 C757 1.523 . S
C759 C743 1.429 . S
C759 C755 1.429 . S
C759 C760 1.523 . S
C760 C744 1.368 . S
C760 C756 1.368 . S
C760 C759 1.523 . S
H761 C736 0.950 . S
H762 C738 0.950 . S
H763 C739 0.949 . S
H764 C741 0.950 . S
H765 C743 0.950 . S
C766 C767 1.349 . S
C766 C768 1.327 . S
C766 H791 0.950 . S
C767 C766 1.349 . S
C767 C783 1.349 . S
C768 C766 1.327 . S
C768 C787 1.429 . S
C768 H792 0.950 . S
C769 C786 1.574 . S
C769 C788 1.368 . S
C769 H793 0.949 . S
H770 C774 0.949 . S
C771 C772 1.349 . S
C771 C773 1.327 . S
C771 H794 0.950 . S
C772 C771 1.349 . S
C772 C784 1.349 . S
C773 C771 1.327 . S
C773 C789 1.429 . S
C773 H795 0.950 . S
C774 H770 0.949 . S
C774 C782 1.574 . S
C774 C790 1.368 . S
H775 C783 0.950 . S
H776 C781 0.950 . S
H777 C782 0.949 . S
H778 C784 0.950 . S
H779 C785 0.950 . S
H780 C786 0.949 . S
C781 H776 0.950 . S
C781 C783 1.327 . S
C781 C787 1.429 . S
C782 C774 1.574 . S
C782 H777 0.949 . S
C782 C788 1.368 . S
C783 C767 1.349 . S
C783 H775 0.950 . S
C783 C781 1.327 . S
C784 C772 1.349 . S
C784 H778 0.950 . S
C784 C785 1.327 . S
C785 H779 0.950 . S
C785 C784 1.327 . S
C785 C789 1.429 . S
C786 C769 1.574 . S
C786 H780 0.949 . S
C786 C790 1.368 . S
C787 C768 1.429 . S
C787 C781 1.429 . S
C787 C788 1.523 . S
C788 C769 1.368 . S
C788 C782 1.368 . S
C788 C787 1.523 . S
C789 C773 1.429 . S
C789 C785 1.429 . S
C789 C790 1.523 . S
C790 C774 1.368 . S
C790 C786 1.368 . S
C790 C789 1.523 . S
H791 C766 0.950 . S
H792 C768 0.950 . S
H793 C769 0.949 . S
H794 C771 0.950 . S
H795 C773 0.950 . S
C796 C797 1.349 . S
C796 C798 1.327 . S
C796 H821 0.950 . S
C797 C796 1.349 . S
C797 C813 1.349 . S
C798 C796 1.327 . S
C798 C817 1.429 . S
C798 H822 0.950 . S
C799 C816 1.574 . S
C799 C818 1.368 . S
C799 H823 0.949 . S
H800 C804 0.949 . S
C801 C802 1.349 . S
C801 C803 1.327 . S
C801 H824 0.950 . S
C802 C801 1.349 . S
C802 C814 1.349 . S
C803 C801 1.327 . S
C803 C819 1.429 . S
C803 H825 0.950 . S
C804 H800 0.949 . S
C804 C812 1.574 . S
C804 C820 1.368 . S
H805 C813 0.950 . S
H806 C811 0.950 . S
H807 C812 0.949 . S
H808 C814 0.950 . S
H809 C815 0.950 . S
H810 C816 0.949 . S
C811 H806 0.950 . S
C811 C813 1.327 . S
C811 C817 1.429 . S
C812 C804 1.574 . S
C812 H807 0.949 . S
C812 C818 1.368 . S
C813 C797 1.349 . S
C813 H805 0.950 . S
C813 C811 1.327 . S
C814 C802 1.349 . S
C814 H808 0.950 . S
C814 C815 1.327 . S
C815 H809 0.950 . S
C815 C814 1.327 . S
C815 C819 1.429 . S
C816 C799 1.574 . S
C816 H810 0.949 . S
C816 C820 1.368 . S
C817 C798 1.429 . S
C817 C811 1.429 . S
C817 C818 1.523 . S
C818 C799 1.368 . S
C818 C812 1.368 . S
C818 C817 1.523 . S
C819 C803 1.429 . S
C819 C815 1.429 . S
C819 C820 1.523 . S
C820 C804 1.368 . S
C820 C816 1.368 . S
C820 C819 1.523 . S
H821 C796 0.950 . S
H822 C798 0.950 . S
H823 C799 0.949 . S
H824 C801 0.950 . S
H825 C803 0.950 . S
C826 C827 1.349 . S
C826 C828 1.327 . S
C826 H851 0.950 . S
C827 C826 1.349 . S
C827 C843 1.349 . S
C828 C826 1.327 . S
C828 C847 1.429 . S
C828 H852 0.950 . S
C829 C846 1.574 . S
C829 C848 1.368 . S
C829 H853 0.949 . S
H830 C834 0.949 . S
C831 C832 1.349 . S
C831 C833 1.327 . S
C831 H854 0.950 . S
C832 C831 1.349 . S
C832 C844 1.349 . S
C833 C831 1.327 . S
C833 C849 1.429 . S
C833 H855 0.950 . S
C834 H830 0.949 . S
C834 C842 1.574 . S
C834 C850 1.368 . S
H835 C843 0.950 . S
H836 C841 0.950 . S
H837 C842 0.949 . S
H838 C844 0.950 . S
H839 C845 0.950 . S
H840 C846 0.949 . S
C841 H836 0.950 . S
C841 C843 1.327 . S
C841 C847 1.429 . S
C842 C834 1.574 . S
C842 H837 0.949 . S
C842 C848 1.368 . S
C843 C827 1.349 . S
C843 H835 0.950 . S
C843 C841 1.327 . S
C844 C832 1.349 . S
C844 H838 0.950 . S
C844 C845 1.327 . S
C845 H839 0.950 . S
C845 C844 1.327 . S
C845 C849 1.429 . S
C846 C829 1.574 . S
C846 H840 0.949 . S
C846 C850 1.368 . S
C847 C828 1.429 . S
C847 C841 1.429 . S
C847 C848 1.523 . S
C848 C829 1.368 . S
C848 C842 1.368 . S
C848 C847 1.523 . S
C849 C833 1.429 . S
C849 C845 1.429 . S
C849 C850 1.523 . S
C850 C834 1.368 . S
C850 C846 1.368 . S
C850 C849 1.523 . S
H851 C826 0.950 . S
H852 C828 0.950 . S
H853 C829 0.949 . S
H854 C831 0.950 . S
H855 C833 0.950 . S
C856 C857 1.349 . S
C856 C858 1.327 . S
C856 H881 0.950 . S
C857 C856 1.349 . S
C857 C873 1.349 . S
C858 C856 1.327 . S
C858 C877 1.429 . S
C858 H882 0.950 . S
C859 C876 1.574 . S
C859 C878 1.368 . S
C859 H883 0.949 . S
H860 C864 0.949 . S
C861 C862 1.349 . S
C861 C863 1.327 . S
C861 H884 0.950 . S
C862 C861 1.349 . S
C862 C874 1.349 . S
C863 C861 1.327 . S
C863 C879 1.429 . S
C863 H885 0.950 . S
C864 H860 0.949 . S
C864 C872 1.574 . S
C864 C880 1.368 . S
H865 C873 0.950 . S
H866 C871 0.950 . S
H867 C872 0.949 . S
H868 C874 0.950 . S
H869 C875 0.950 . S
H870 C876 0.949 . S
C871 H866 0.950 . S
C871 C873 1.327 . S
C871 C877 1.429 . S
C872 C864 1.574 . S
C872 H867 0.949 . S
C872 C878 1.368 . S
C873 C857 1.349 . S
C873 H865 0.950 . S
C873 C871 1.327 . S
C874 C862 1.349 . S
C874 H868 0.950 . S
C874 C875 1.327 . S
C875 H869 0.950 . S
C875 C874 1.327 . S
C875 C879 1.429 . S
C876 C859 1.574 . S
C876 H870 0.949 . S
C876 C880 1.368 . S
C877 C858 1.429 . S
C877 C871 1.429 . S
C877 C878 1.523 . S
C878 C859 1.368 . S
C878 C872 1.368 . S
C878 C877 1.523 . S
C879 C863 1.429 . S
C879 C875 1.429 . S
C879 C880 1.523 . S
C880 C864 1.368 . S
C880 C876 1.368 . S
C880 C879 1.523 . S
H881 C856 0.950 . S
H882 C858 0.950 . S
H883 C859 0.949 . S
H884 C861 0.950 . S
H885 C863 0.950 . S
C886 C887 1.349 . S
C886 C888 1.327 . S
C886 H911 0.950 . S
C887 C886 1.349 . S
C887 C903 1.349 . S
C888 C886 1.327 . S
C888 C907 1.429 . S
C888 H912 0.950 . S
C889 C906 1.574 . S
C889 C908 1.368 . S
C889 H913 0.949 . S
H890 C894 0.949 . S
C891 C892 1.349 . S
C891 C893 1.327 . S
C891 H914 0.950 . S
C892 C891 1.349 . S
C892 C904 1.349 . S
C893 C891 1.327 . S
C893 C909 1.429 . S
C893 H915 0.950 . S
C894 H890 0.949 . S
C894 C902 1.574 . S
C894 C910 1.368 . S
H895 C903 0.950 . S
H896 C901 0.950 . S
H897 C902 0.949 . S
H898 C904 0.950 . S
H899 C905 0.950 . S
H900 C906 0.949 . S
C901 H896 0.950 . S
C901 C903 1.327 . S
C901 C907 1.429 . S
C902 C894 1.574 . S
C902 H897 0.949 . S
C902 C908 1.368 . S
C903 C887 1.349 . S
C903 H895 0.950 . S
C903 C901 1.327 . S
C904 C892 1.349 . S
C904 H898 0.950 . S
C904 C905 1.327 . S
C905 H899 0.950 . S
C905 C904 1.327 . S
C905 C909 1.429 . S
C906 C889 1.574 . S
C906 H900 0.949 . S
C906 C910 1.368 . S
C907 C888 1.429 . S
C907 C901 1.429 . S
C907 C908 1.523 . S
C908 C889 1.368 . S
C908 C902 1.368 . S
C908 C907 1.523 . S
C909 C893 1.429 . S
C909 C905 1.429 . S
C909 C910 1.523 . S
C910 C894 1.368 . S
C910 C906 1.368 . S
C910 C909 1.523 . S
H911 C886 0.950 . S
H912 C888 0.950 . S
H913 C889 0.949 . S
H914 C891 0.950 . S
H915 C893 0.950 . S
C916 C917 1.349 . S
C916 C918 1.327 . S
C916 H941 0.950 . S
C917 C916 1.349 . S
C917 C933 1.349 . S
C918 C916 1.327 . S
C918 C937 1.429 . S
C918 H942 0.950 . S
C919 C936 1.574 . S
C919 C938 1.368 . S
C919 H943 0.949 . S
H920 C924 0.949 . S
C921 C922 1.349 . S
C921 C923 1.327 . S
C921 H944 0.950 . S
C922 C921 1.349 . S
C922 C934 1.349 . S
C923 C921 1.327 . S
C923 C939 1.429 . S
C923 H945 0.950 . S
C924 H920 0.949 . S
C924 C932 1.574 . S
C924 C940 1.368 . S
H925 C933 0.950 . S
H926 C931 0.950 . S
H927 C932 0.949 . S
H928 C934 0.950 . S
H929 C935 0.950 . S
H930 C936 0.949 . S
C931 H926 0.950 . S
C931 C933 1.327 . S
C931 C937 1.429 . S
C932 C924 1.574 . S
C932 H927 0.949 . S
C932 C938 1.368 . S
C933 C917 1.349 . S
C933 H925 0.950 . S
C933 C931 1.327 . S
C934 C922 1.349 . S
C934 H928 0.950 . S
C934 C935 1.327 . S
C935 H929 0.950 . S
C935 C934 1.327 . S
C935 C939 1.429 . S
C936 C919 1.574 . S
C936 H930 0.949 . S
C936 C940 1.368 . S
C937 C918 1.429 . S
C937 C931 1.429 . S
C937 C938 1.523 . S
C938 C919 1.368 . S
C938 C932 1.368 . S
C938 C937 1.523 . S
C939 C923 1.429 . S
C939 C935 1.429 . S
C939 C940 1.523 . S
C940 C924 1.368 . S
C940 C936 1.368 . S
C940 C939 1.523 . S
H941 C916 0.950 . S
H942 C918 0.950 . S
H943 C919 0.949 . S
H944 C921 0.950 . S
H945 C923 0.950 . S
C946 C947 1.349 . S
C946 C948 1.327 . S
C946 H971 0.950 . S
C947 C946 1.349 . S
C947 C963 1.349 . S
C948 C946 1.327 . S
C948 C967 1.429 . S
C948 H972 0.950 . S
C949 C966 1.574 . S
C949 C968 1.368 . S
C949 H973 0.949 . S
H950 C954 0.949 . S
C951 C952 1.349 . S
C951 C953 1.327 . S
C951 H974 0.950 . S
C952 C951 1.349 . S
C952 C964 1.349 . S
C953 C951 1.327 . S
C953 C969 1.429 . S
C953 H975 0.950 . S
C954 H950 0.949 . S
C954 C962 1.574 . S
C954 C970 1.368 . S
H955 C963 0.950 . S
H956 C961 0.950 . S
H957 C962 0.949 . S
H958 C964 0.950 . S
H959 C965 0.950 . S
H960 C966 0.949 . S
C961 H956 0.950 . S
C961 C963 1.327 . S
C961 C967 1.429 . S
C962 C954 1.574 . S
C962 H957 0.949 . S
C962 C968 1.368 . S
C963 C947 1.349 . S
C963 H955 0.950 . S
C963 C961 1.327 . S
C964 C952 1.349 . S
C964 H958 0.950 . S
C964 C965 1.327 . S
C965 H959 0.950 . S
C965 C964 1.327 . S
C965 C969 1.429 . S
C966 C949 1.574 . S
C966 H960 0.949 . S
C966 C970 1.368 . S
C967 C948 1.429 . S
C967 C961 1.429 . S
C967 C968 1.523 . S
C968 C949 1.368 . S
C968 C962 1.368 . S
C968 C967 1.523 . S
C969 C953 1.429 . S
C969 C965 1.429 . S
C969 C970 1.523 . S
C970 C954 1.368 . S
C970 C966 1.368 . S
C970 C969 1.523 . S
H971 C946 0.950 . S
H972 C948 0.950 . S
H973 C949 0.949 . S
H974 C951 0.950 . S
H975 C953 0.950 . S
C976 C977 1.349 . S
C976 C978 1.327 . S
C976 H1001 0.950 . S
C977 C976 1.349 . S
C977 C993 1.349 . S
C978 C976 1.327 . S
C978 C997 1.429 . S
C978 H1002 0.950 . S
C979 C996 1.574 . S
C979 C998 1.368 . S
C979 H1003 0.949 . S
H980 C984 0.949 . S
C981 C982 1.349 . S
C981 C983 1.327 . S
C981 H1004 0.950 . S
C982 C981 1.349 . S
C982 C994 1.349 . S
C983 C981 1.327 . S
C983 C999 1.429 . S
C983 H1005 0.950 . S
C984 H980 0.949 . S
C984 C992 1.574 . S
C984 C1000 1.368 . S
H985 C993 0.950 . S
H986 C991 0.950 . S
H987 C992 0.949 . S
H988 C994 0.950 . S
H989 C995 0.950 . S
H990 C996 0.949 . S
C991 H986 0.950 . S
C991 C993 1.327 . S
C991 C997 1.429 . S
C992 C984 1.574 . S
C992 H987 0.949 . S
C992 C998 1.368 . S
C993 C977 1.349 . S
C993 H985 0.950 . S
C993 C991 1.327 . S
C994 C982 1.349 . S
C994 H988 0.950 . S
C994 C995 1.327 . S
C995 H989 0.950 . S
C995 C994 1.327 . S
C995 C999 1.429 . S
C996 C979 1.574 . S
C996 H990 0.949 . S
C996 C1000 1.368 . S
C997 C978 1.429 . S
C997 C991 1.429 . S
C997 C998 1.523 . S
C998 C979 1.368 . S
C998 C992 1.368 . S
C998 C997 1.523 . S
C999 C983 1.429 . S
C999 C995 1.429 . S
C999 C1000 1.523 . S
C1000 C984 1.368 . S
C1000 C996 1.368 . S
C1000 C999 1.523 . S
H1001 C976 0.950 . S
H1002 C978 0.950 . S
H1003 C979 0.949 . S
H1004 C981 0.950 . S
H1005 C983 0.950 . S
C1006 C1007 1.349 . S
C1006 C1008 1.327 . S
C1006 H1031 0.950 . S
C1007 C1006 1.349 . S
C1007 C1023 1.349 . S
C1008 C1006 1.327 . S
C1008 C1027 1.429 . S
C1008 H1032 0.950 . S
C1009 C1026 1.574 . S
C1009 C1028 1.368 . S
C1009 H1033 0.949 . S
H1010 C1014 0.949 . S
C1011 C1012 1.349 . S
C1011 C1013 1.327 . S
C1011 H1034 0.950 . S
C1012 C1011 1.349 . S
C1012 C1024 1.349 . S
C1013 C1011 1.327 . S
C1013 C1029 1.429 . S
C1013 H1035 0.950 . S
C1014 H1010 0.949 . S
C1014 C1022 1.574 . S
C1014 C1030 1.368 . S
H1015 C1023 0.950 . S
H1016 C1021 0.950 . S
H1017 C1022 0.949 . S
H1018 C1024 0.950 . S
H1019 C1025 0.950 . S
H1020 C1026 0.949 . S
C1021 H1016 0.950 . S
C1021 C1023 1.327 . S
C1021 C1027 1.429 . S
C1022 C1014 1.574 . S
C1022 H1017 0.949 . S
C1022 C1028 1.368 . S
C1023 C1007 1.349 . S
C1023 H1015 0.950 . S
C1023 C1021 1.327 . S
C1024 C1012 1.349 . S
C1024 H1018 0.950 . S
C1024 C1025 1.327 . S
C1025 H1019 0.950 . S
C1025 C1024 1.327 . S
C1025 C1029 1.429 . S
C1026 C1009 1.574 . S
C1026 H1020 0.949 . S
C1026 C1030 1.368 . S
C1027 C1008 1.429 . S
C1027 C1021 1.429 . S
C1027 C1028 1.523 . S
C1028 C1009 1.368 . S
C1028 C1022 1.368 . S
C1028 C1027 1.523 . S
C1029 C1013 1.429 . S
C1029 C1025 1.429 . S
C1029 C1030 1.523 . S
C1030 C1014 1.368 . S
C1030 C1026 1.368 . S
C1030 C1029 1.523 . S
H1031 C1006 0.950 . S
H1032 C1008 0.950 . S
H1033 C1009 0.949 . S
H1034 C1011 0.950 . S
H1035 C1013 0.950 . S
C1036 C1037 1.349 . S
C1036 C1038 1.327 . S
C1036 H1061 0.950 . S
C1037 C1036 1.349 . S
C1037 C1053 1.349 . S
C1038 C1036 1.327 . S
C1038 C1057 1.429 . S
C1038 H1062 0.950 . S
C1039 C1056 1.574 . S
C1039 C1058 1.368 . S
C1039 H1063 0.949 . S
H1040 C1044 0.949 . S
C1041 C1042 1.349 . S
C1041 C1043 1.327 . S
C1041 H1064 0.950 . S
C1042 C1041 1.349 . S
C1042 C1054 1.349 . S
C1043 C1041 1.327 . S
C1043 C1059 1.429 . S
C1043 H1065 0.950 . S
C1044 H1040 0.949 . S
C1044 C1052 1.574 . S
C1044 C1060 1.368 . S
H1045 C1053 0.950 . S
H1046 C1051 0.950 . S
H1047 C1052 0.949 . S
H1048 C1054 0.950 . S
H1049 C1055 0.950 . S
H1050 C1056 0.949 . S
C1051 H1046 0.950 . S
C1051 C1053 1.327 . S
C1051 C1057 1.429 . S
C1052 C1044 1.574 . S
C1052 H1047 0.949 . S
C1052 C1058 1.368 . S
C1053 C1037 1.349 . S
C1053 H1045 0.950 . S
C1053 C1051 1.327 . S
C1054 C1042 1.349 . S
C1054 H1048 0.950 . S
C1054 C1055 1.327 . S
C1055 H1049 0.950 . S
C1055 C1054 1.327 . S
C1055 C1059 1.429 . S
C1056 C1039 1.574 . S
C1056 H1050 0.949 . S
C1056 C1060 1.368 . S
C1057 C1038 1.429 . S
C1057 C1051 1.429 . S
C1057 C1058 1.523 . S
C1058 C1039 1.368 . S
C1058 C1052 1.368 . S
C1058 C1057 1.523 . S
C1059 C1043 1.429 . S
C1059 C1055 1.429 . S
C1059 C1060 1.523 . S
C1060 C1044 1.368 . S
C1060 C1056 1.368 . S
C1060 C1059 1.523 . S
H1061 C1036 0.950 . S
H1062 C1038 0.950 . S
H1063 C1039 0.949 . S
H1064 C1041 0.950 . S
H1065 C1043 0.950 . S
C1066 C1067 1.349 . S
C1066 C1068 1.327 . S
C1066 H1091 0.950 . S
C1067 C1066 1.349 . S
C1067 C1083 1.349 . S
C1068 C1066 1.327 . S
C1068 C1087 1.429 . S
C1068 H1092 0.950 . S
C1069 C1086 1.574 . S
C1069 C1088 1.368 . S
C1069 H1093 0.949 . S
H1070 C1074 0.949 . S
C1071 C1072 1.349 . S
C1071 C1073 1.327 . S
C1071 H1094 0.950 . S
C1072 C1071 1.349 . S
C1072 C1084 1.349 . S
C1073 C1071 1.327 . S
C1073 C1089 1.429 . S
C1073 H1095 0.950 . S
C1074 H1070 0.949 . S
C1074 C1082 1.574 . S
C1074 C1090 1.368 . S
H1075 C1083 0.950 . S
H1076 C1081 0.950 . S
H1077 C1082 0.949 . S
H1078 C1084 0.950 . S
H1079 C1085 0.950 . S
H1080 C1086 0.949 . S
C1081 H1076 0.950 . S
C1081 C1083 1.327 . S
C1081 C1087 1.429 . S
C1082 C1074 1.574 . S
C1082 H1077 0.949 . S
C1082 C1088 1.368 . S
C1083 C1067 1.349 . S
C1083 H1075 0.950 . S
C1083 C1081 1.327 . S
C1084 C1072 1.349 . S
C1084 H1078 0.950 . S
C1084 C1085 1.327 . S
C1085 H1079 0.950 . S
C1085 C1084 1.327 . S
C1085 C1089 1.429 . S
C1086 C1069 1.574 . S
C1086 H1080 0.949 . S
C1086 C1090 1.368 . S
C1087 C1068 1.429 . S
C1087 C1081 1.429 . S
C1087 C1088 1.523 . S
C1088 C1069 1.368 . S
C1088 C1082 1.368 . S
C1088 C1087 1.523 . S
C1089 C1073 1.429 . S
C1089 C1085 1.429 . S
C1089 C1090 1.523 . S
C1090 C1074 1.368 . S
C1090 C1086 1.368 . S
C1090 C1089 1.523 . S
H1091 C1066 0.950 . S
H1092 C1068 0.950 . S
H1093 C1069 0.949 . S
H1094 C1071 0.950 . S
H1095 C1073 0.950 . S
C1096 C1097 1.349 . S
C1096 C1098 1.327 . S
C1096 H1121 0.950 . S
C1097 C1096 1.349 . S
C1097 C1113 1.349 . S
C1098 C1096 1.327 . S
C1098 C1117 1.429 . S
C1098 H1122 0.950 . S
C1099 C1116 1.574 . S
C1099 C1118 1.368 . S
C1099 H1123 0.949 . S
H1100 C1104 0.949 . S
C1101 C1102 1.349 . S
C1101 C1103 1.327 . S
C1101 H1124 0.950 . S
C1102 C1101 1.349 . S
C1102 C1114 1.349 . S
C1103 C1101 1.327 . S
C1103 C1119 1.429 . S
C1103 H1125 0.950 . S
C1104 H1100 0.949 . S
C1104 C1112 1.574 . S
C1104 C1120 1.368 . S
H1105 C1113 0.950 . S
H1106 C1111 0.950 . S
H1107 C1112 0.949 . S
H1108 C1114 0.950 . S
H1109 C1115 0.950 . S
H1110 C1116 0.949 . S
C1111 H1106 0.950 . S
C1111 C1113 1.327 . S
C1111 C1117 1.429 . S
C1112 C1104 1.574 . S
C1112 H1107 0.949 . S
C1112 C1118 1.368 . S
C1113 C1097 1.349 . S
C1113 H1105 0.950 . S
C1113 C1111 1.327 . S
C1114 C1102 1.349 . S
C1114 H1108 0.950 . S
C1114 C1115 1.327 . S
C1115 H1109 0.950 . S
C1115 C1114 1.327 . S
C1115 C1119 1.429 . S
C1116 C1099 1.574 . S
C1116 H1110 0.949 . S
C1116 C1120 1.368 . S
C1117 C1098 1.429 . S
C1117 C1111 1.429 . S
C1117 C1118 1.523 . S
C1118 C1099 1.368 . S
C1118 C1112 1.368 . S
C1118 C1117 1.523 . S
C1119 C1103 1.429 . S
C1119 C1115 1.429 . S
C1119 C1120 1.523 . S
C1120 C1104 1.368 . S
C1120 C1116 1.368 . S
C1120 C1119 1.523 . S
H1121 C1096 0.950 . S
H1122 C1098 0.950 . S
H1123 C1099 0.949 . S
H1124 C1101 0.950 . S
H1125 C1103 0.950 . S
C1126 C1127 1.349 . S
C1126 C1128 1.327 . S
C1126 H1151 0.950 . S
C1127 C1126 1.349 . S
C1127 C1143 1.349 . S
C1128 C1126 1.327 . S
C1128 C1147 1.429 . S
C1128 H1152 0.950 . S
C1129 C1146 1.574 . S
C1129 C1148 1.368 . S
C1129 H1153 0.949 . S
H1130 C1134 0.949 . S
C1131 C1132 1.349 . S
C1131 C1133 1.327 . S
C1131 H1154 0.950 . S
C1132 C1131 1.349 . S
C1132 C1144 1.349 . S
C1133 C1131 1.327 . S
C1133 C1149 1.429 . S
C1133 H1155 0.950 . S
C1134 H1130 0.949 . S
C1134 C1142 1.574 . S
C1134 C1150 1.368 . S
H1135 C1143 0.950 . S
H1136 C1141 0.950 . S
H1137 C1142 0.949 . S
H1138 C1144 0.950 . S
H1139 C1145 0.950 . S
H1140 C1146 0.949 . S
C1141 H1136 0.950 . S
C1141 C1143 1.327 . S
C1141 C1147 1.429 . S
C1142 C1134 1.574 . S
C1142 H1137 0.949 . S
C1142 C1148 1.368 . S
C1143 C1127 1.349 . S
C1143 H1135 0.950 . S
C1143 C1141 1.327 . S
C1144 C1132 1.349 . S
C1144 H1138 0.950 . S
C1144 C1145 1.327 . S
C1145 H1139 0.950 . S
C1145 C1144 1.327 . S
C1145 C1149 1.429 . S
C1146 C1129 1.574 . S
C1146 H1140 0.949 . S
C1146 C1150 1.368 . S
C1147 C1128 1.429 . S
C1147 C1141 1.429 . S
C1147 C1148 1.523 . S
C1148 C1129 1.368 . S
C1148 C1142 1.368 . S
C1148 C1147 1.523 . S
C1149 C1133 1.429 . S
C1149 C1145 1.429 . S
C1149 C1150 1.523 . S
C1150 C1134 1.368 . S
C1150 C1146 1.368 . S
C1150 C1149 1.523 . S
H1151 C1126 0.950 . S
H1152 C1128 0.950 . S
H1153 C1129 0.949 . S
H1154 C1131 0.950 . S
H1155 C1133 0.950 . S
C1156 C1157 1.349 . S
C1156 C1158 1.327 . S
C1156 H1181 0.950 . S
C1157 C1156 1.349 . S
C1157 C1173 1.349 . S
C1158 C1156 1.327 . S
C1158 C1177 1.429 . S
C1158 H1182 0.950 . S
C1159 C1176 1.574 . S
C1159 C1178 1.368 . S
C1159 H1183 0.949 . S
H1160 C1164 0.949 . S
C1161 C1162 1.349 . S
C1161 C1163 1.327 . S
C1161 H1184 0.950 . S
C1162 C1161 1.349 . S
C1162 C1174 1.349 . S
C1163 C1161 1.327 . S
C1163 C1179 1.429 . S
C1163 H1185 0.950 . S
C1164 H1160 0.949 . S
C1164 C1172 1.574 . S
C1164 C1180 1.368 . S
H1165 C1173 0.950 . S
H1166 C1171 0.950 . S
H1167 C1172 0.949 . S
H1168 C1174 0.950 . S
H1169 C1175 0.950 . S
H1170 C1176 0.949 . S
C1171 H1166 0.950 . S
C1171 C1173 1.327 . S
C1171 C1177 1.429 . S
C1172 C1164 1.574 . S
C1172 H1167 0.949 . S
C1172 C1178 1.368 . S
C1173 C1157 1.349 . S
C1173 H1165 0.950 . S
C1173 C1171 1.327 . S
C1174 C1162 1.349 . S
C1174 H1168 0.950 . S
C1174 C1175 1.327 . S
C1175 H1169 0.950 . S
C1175 C1174 1.327 . S
C1175 C1179 1.429 . S
C1176 C1159 1.574 . S
C1176 H1170 0.949 . S
C1176 C1180 1.368 . S
C1177 C1158 1.429 . S
C1177 C1171 1.429 . S
C1177 C1178 1.523 . S
C1178 C1159 1.368 . S
C1178 C1172 1.368 . S
C1178 C1177 1.523 . S
C1179 C1163 1.429 . S
C1179 C1175 1.429 . S
C1179 C1180 1.523 . S
C1180 C1164 1.368 . S
C1180 C1176 1.368 . S
C1180 C1179 1.523 . S
H1181 C1156 0.950 . S
H1182 C1158 0.950 . S
H1183 C1159 0.949 . S
H1184 C1161 0.950 . S
H1185 C1163 0.950 . S
C1186 C1187 1.349 . S
C1186 C1188 1.327 . S
C1186 H1211 0.950 . S
C1187 C1186 1.349 . S
C1187 C1203 1.349 . S
C1188 C1186 1.327 . S
C1188 C1207 1.429 . S
C1188 H1212 0.950 . S
C1189 C1206 1.574 . S
C1189 C1208 1.368 . S
C1189 H1213 0.949 . S
H1190 C1194 0.949 . S
C1191 C1192 1.349 . S
C1191 C1193 1.327 . S
C1191 H1214 0.950 . S
C1192 C1191 1.349 . S
C1192 C1204 1.349 . S
C1193 C1191 1.327 . S
C1193 C1209 1.429 . S
C1193 H1215 0.950 . S
C1194 H1190 0.949 . S
C1194 C1202 1.574 . S
C1194 C1210 1.368 . S
H1195 C1203 0.950 . S
H1196 C1201 0.950 . S
H1197 C1202 0.949 . S
H1198 C1204 0.950 . S
H1199 C1205 0.950 . S
H1200 C1206 0.949 . S
C1201 H1196 0.950 . S
C1201 C1203 1.327 . S
C1201 C1207 1.429 . S
C1202 C1194 1.574 . S
C1202 H1197 0.949 . S
C1202 C1208 1.368 . S
C1203 C1187 1.349 . S
C1203 H1195 0.950 . S
C1203 C1201 1.327 . S
C1204 C1192 1.349 . S
C1204 H1198 0.950 . S
C1204 C1205 1.327 . S
C1205 H1199 0.950 . S
C1205 C1204 1.327 . S
C1205 C1209 1.429 . S
C1206 C1189 1.574 . S
C1206 H1200 0.949 . S
C1206 C1210 1.368 . S
C1207 C1188 1.429 . S
C1207 C1201 1.429 . S
C1207 C1208 1.523 . S
C1208 C1189 1.368 . S
C1208 C1202 1.368 . S
C1208 C1207 1.523 . S
C1209 C1193 1.429 . S
C1209 C1205 1.429 . S
C1209 C1210 1.523 . S
C1210 C1194 1.368 . S
C1210 C1206 1.368 . S
C1210 C1209 1.523 . S
H1211 C1186 0.950 . S
H1212 C1188 0.950 . S
H1213 C1189 0.949 . S
H1214 C1191 0.950 . S
H1215 C1193 0.950 . S
C1216 C1217 1.349 . S
C1216 C1218 1.327 . S
C1216 H1241 0.950 . S
C1217 C1216 1.349 . S
C1217 C1233 1.349 . S
C1218 C1216 1.327 . S
C1218 C1237 1.429 . S
C1218 H1242 0.950 . S
C1219 C1236 1.574 . S
C1219 C1238 1.368 . S
C1219 H1243 0.949 . S
H1220 C1224 0.949 . S
C1221 C1222 1.349 . S
C1221 C1223 1.327 . S
C1221 H1244 0.950 . S
C1222 C1221 1.349 . S
C1222 C1234 1.349 . S
C1223 C1221 1.327 . S
C1223 C1239 1.429 . S
C1223 H1245 0.950 . S
C1224 H1220 0.949 . S
C1224 C1232 1.574 . S
C1224 C1240 1.368 . S
H1225 C1233 0.950 . S
H1226 C1231 0.950 . S
H1227 C1232 0.949 . S
H1228 C1234 0.950 . S
H1229 C1235 0.950 . S
H1230 C1236 0.949 . S
C1231 H1226 0.950 . S
C1231 C1233 1.327 . S
C1231 C1237 1.429 . S
C1232 C1224 1.574 . S
C1232 H1227 0.949 . S
C1232 C1238 1.368 . S
C1233 C1217 1.349 . S
C1233 H1225 0.950 . S
C1233 C1231 1.327 . S
C1234 C1222 1.349 . S
C1234 H1228 0.950 . S
C1234 C1235 1.327 . S
C1235 H1229 0.950 . S
C1235 C1234 1.327 . S
C1235 C1239 1.429 . S
C1236 C1219 1.574 . S
C1236 H1230 0.949 . S
C1236 C1240 1.368 . S
C1237 C1218 1.429 . S
C1237 C1231 1.429 . S
C1237 C1238 1.523 . S
C1238 C1219 1.368 . S
C1238 C1232 1.368 . S
C1238 C1237 1.523 . S
C1239 C1223 1.429 . S
C1239 C1235 1.429 . S
C1239 C1240 1.523 . S
C1240 C1224 1.368 . S
C1240 C1236 1.368 . S
C1240 C1239 1.523 . S
H1241 C1216 0.950 . S
H1242 C1218 0.950 . S
H1243 C1219 0.949 . S
H1244 C1221 0.950 . S
H1245 C1223 0.950 . S
C1246 C1247 1.349 . S
C1246 C1248 1.327 . S
C1246 H1271 0.950 . S
C1247 C1246 1.349 . S
C1247 C1263 1.349 . S
C1248 C1246 1.327 . S
C1248 C1267 1.429 . S
C1248 H1272 0.950 . S
C1249 C1266 1.574 . S
C1249 C1268 1.368 . S
C1249 H1273 0.949 . S
H1250 C1254 0.949 . S
C1251 C1252 1.349 . S
C1251 C1253 1.327 . S
C1251 H1274 0.950 . S
C1252 C1251 1.349 . S
C1252 C1264 1.349 . S
C1253 C1251 1.327 . S
C1253 C1269 1.429 . S
C1253 H1275 0.950 . S
C1254 H1250 0.949 . S
C1254 C1262 1.574 . S
C1254 C1270 1.368 . S
H1255 C1263 0.950 . S
H1256 C1261 0.950 . S
H1257 C1262 0.949 . S
H1258 C1264 0.950 . S
H1259 C1265 0.909 1_655 S
H1260 C1266 0.949 . S
C1261 H1256 0.950 . S
C1261 C1263 1.327 . S
C1261 C1267 1.429 . S
C1262 C1254 1.574 . S
C1262 H1257 0.949 . S
C1262 C1268 1.368 . S
C1263 C1247 1.349 . S
C1263 H1255 0.950 . S
C1263 C1261 1.327 . S
C1264 C1252 1.349 . S
C1264 H1258 0.950 . S
C1264 C1265 1.327 . S
C1265 H1259 0.909 1_455 S
C1265 C1264 1.327 . S
C1265 C1269 1.429 . S
C1266 C1249 1.574 . S
C1266 H1260 0.949 . S
C1266 C1270 1.368 . S
C1267 C1248 1.429 . S
C1267 C1261 1.429 . S
C1267 C1268 1.523 . S
C1268 C1249 1.368 . S
C1268 C1262 1.368 . S
C1268 C1267 1.523 . S
C1269 C1253 1.429 . S
C1269 C1265 1.429 . S
C1269 C1270 1.523 1_455 S
C1270 C1254 1.368 . S
C1270 C1266 1.368 . S
C1270 C1269 1.523 1_655 S
H1271 C1246 0.950 . S
H1272 C1248 0.950 . S
H1273 C1249 0.949 . S
H1274 C1251 0.950 . S
H1275 C1253 0.950 . S
C1276 C1277 1.349 . S
C1276 C1278 1.327 . S
C1276 H1301 0.950 . S
C1277 C1276 1.349 . S
C1277 C1293 1.349 . S
C1278 C1276 1.327 . S
C1278 C1297 1.429 . S
C1278 H1302 0.950 . S
C1279 C1296 1.574 . S
C1279 C1298 1.368 . S
C1279 H1303 0.949 . S
H1280 C1284 0.949 . S
C1281 C1282 1.349 . S
C1281 C1283 1.327 . S
C1281 H1304 0.950 . S
C1282 C1281 1.349 . S
C1282 C1294 1.349 . S
C1283 C1281 1.327 . S
C1283 C1299 1.429 . S
C1283 H1305 0.950 . S
C1284 H1280 0.949 . S
C1284 C1292 1.574 . S
C1284 C1300 1.368 . S
H1285 C1293 0.950 . S
H1286 C1291 0.950 . S
H1287 C1292 0.949 . S
H1288 C1294 0.950 . S
H1289 C1295 0.950 . S
H1290 C1296 0.949 . S
C1291 H1286 0.950 . S
C1291 C1293 1.327 . S
C1291 C1297 1.429 . S
C1292 C1284 1.574 . S
C1292 H1287 0.949 . S
C1292 C1298 1.368 . S
C1293 C1277 1.349 . S
C1293 H1285 0.950 . S
C1293 C1291 1.327 . S
C1294 C1282 1.349 . S
C1294 H1288 0.950 . S
C1294 C1295 1.327 . S
C1295 H1289 0.950 . S
C1295 C1294 1.327 . S
C1295 C1299 1.429 . S
C1296 C1279 1.574 . S
C1296 H1290 0.949 . S
C1296 C1300 1.368 . S
C1297 C1278 1.429 . S
C1297 C1291 1.429 . S
C1297 C1298 1.523 . S
C1298 C1279 1.368 . S
C1298 C1292 1.368 . S
C1298 C1297 1.523 . S
C1299 C1283 1.429 . S
C1299 C1295 1.429 . S
C1299 C1300 1.523 . S
C1300 C1284 1.368 . S
C1300 C1296 1.368 . S
C1300 C1299 1.523 . S
H1301 C1276 0.950 . S
H1302 C1278 0.950 . S
H1303 C1279 0.949 . S
H1304 C1281 0.950 . S
H1305 C1283 0.950 . S
C1306 C1307 1.349 . S
C1306 C1308 1.327 . S
C1306 H1331 0.950 . S
C1307 C1306 1.349 . S
C1307 C1323 1.349 . S
C1308 C1306 1.327 . S
C1308 C1327 1.429 . S
C1308 H1332 0.950 . S
C1309 C1326 1.574 . S
C1309 C1328 1.368 . S
C1309 H1333 0.949 . S
H1310 C1314 0.949 . S
C1311 C1312 1.349 . S
C1311 C1313 1.327 . S
C1311 H1334 0.950 . S
C1312 C1311 1.349 . S
C1312 C1324 1.349 . S
C1313 C1311 1.327 . S
C1313 C1329 1.429 . S
C1313 H1335 0.950 . S
C1314 H1310 0.949 . S
C1314 C1322 1.574 . S
C1314 C1330 1.368 . S
H1315 C1323 0.950 . S
H1316 C1321 0.950 . S
H1317 C1322 0.949 . S
H1318 C1324 0.950 . S
H1319 C1325 0.950 . S
H1320 C1326 0.949 . S
C1321 H1316 0.950 . S
C1321 C1323 1.327 . S
C1321 C1327 1.429 . S
C1322 C1314 1.574 . S
C1322 H1317 0.949 . S
C1322 C1328 1.368 . S
C1323 C1307 1.349 . S
C1323 H1315 0.950 . S
C1323 C1321 1.327 . S
C1324 C1312 1.349 . S
C1324 H1318 0.950 . S
C1324 C1325 1.327 . S
C1325 H1319 0.950 . S
C1325 C1324 1.327 . S
C1325 C1329 1.429 . S
C1326 C1309 1.574 . S
C1326 H1320 0.949 . S
C1326 C1330 1.368 . S
C1327 C1308 1.429 . S
C1327 C1321 1.429 . S
C1327 C1328 1.523 . S
C1328 C1309 1.368 . S
C1328 C1322 1.368 . S
C1328 C1327 1.523 . S
C1329 C1313 1.429 . S
C1329 C1325 1.429 . S
C1329 C1330 1.523 . S
C1330 C1314 1.368 . S
C1330 C1326 1.368 . S
C1330 C1329 1.523 . S
H1331 C1306 0.950 . S
H1332 C1308 0.950 . S
H1333 C1309 0.949 . S
H1334 C1311 0.950 . S
H1335 C1313 0.950 . S
C1336 C1337 1.349 . S
C1336 C1338 1.327 . S
C1336 H1361 0.950 . S
C1337 C1336 1.349 . S
C1337 C1353 1.349 . S
C1338 C1336 1.327 . S
C1338 C1357 1.429 . S
C1338 H1362 0.950 . S
C1339 C1356 1.574 . S
C1339 C1358 1.368 . S
C1339 H1363 0.949 . S
H1340 C1344 0.949 . S
C1341 C1342 1.349 . S
C1341 C1343 1.327 . S
C1341 H1364 0.950 . S
C1342 C1341 1.349 . S
C1342 C1354 1.349 . S
C1343 C1341 1.327 . S
C1343 C1359 1.429 . S
C1343 H1365 0.950 . S
C1344 H1340 0.949 . S
C1344 C1352 1.574 . S
C1344 C1360 1.368 . S
H1345 C1353 0.950 . S
H1346 C1351 0.950 . S
H1347 C1352 0.949 . S
H1348 C1354 0.950 . S
H1349 C1355 0.950 . S
H1350 C1356 0.949 . S
C1351 H1346 0.950 . S
C1351 C1353 1.327 . S
C1351 C1357 1.429 . S
C1352 C1344 1.574 . S
C1352 H1347 0.949 . S
C1352 C1358 1.368 . S
C1353 C1337 1.349 . S
C1353 H1345 0.950 . S
C1353 C1351 1.327 . S
C1354 C1342 1.349 . S
C1354 H1348 0.950 . S
C1354 C1355 1.327 . S
C1355 H1349 0.950 . S
C1355 C1354 1.327 . S
C1355 C1359 1.429 . S
C1356 C1339 1.574 . S
C1356 H1350 0.949 . S
C1356 C1360 1.368 . S
C1357 C1338 1.429 . S
C1357 C1351 1.429 . S
C1357 C1358 1.523 . S
C1358 C1339 1.368 . S
C1358 C1352 1.368 . S
C1358 C1357 1.523 . S
C1359 C1343 1.429 . S
C1359 C1355 1.429 . S
C1359 C1360 1.523 . S
C1360 C1344 1.368 . S
C1360 C1356 1.368 . S
C1360 C1359 1.523 . S
H1361 C1336 0.950 . S
H1362 C1338 0.950 . S
H1363 C1339 0.949 . S
H1364 C1341 0.950 . S
H1365 C1343 0.950 . S
C1366 C1367 1.349 . S
C1366 C1368 1.327 . S
C1366 H1391 0.950 . S
C1367 C1366 1.349 . S
C1367 C1383 1.349 . S
C1368 C1366 1.327 . S
C1368 C1387 1.429 . S
C1368 H1392 0.950 . S
C1369 C1386 1.574 . S
C1369 C1388 1.368 . S
C1369 H1393 0.949 . S
H1370 C1374 0.949 . S
C1371 C1372 1.349 . S
C1371 C1373 1.327 . S
C1371 H1394 0.950 . S
C1372 C1371 1.349 . S
C1372 C1384 1.349 . S
C1373 C1371 1.327 . S
C1373 C1389 1.429 . S
C1373 H1395 0.950 . S
C1374 H1370 0.949 . S
C1374 C1382 1.574 . S
C1374 C1390 1.368 . S
H1375 C1383 0.950 . S
H1376 C1381 0.950 . S
H1377 C1382 0.949 . S
H1378 C1384 0.950 . S
H1379 C1385 0.950 . S
H1380 C1386 0.949 . S
C1381 H1376 0.950 . S
C1381 C1383 1.327 . S
C1381 C1387 1.429 . S
C1382 C1374 1.574 . S
C1382 H1377 0.949 . S
C1382 C1388 1.368 . S
C1383 C1367 1.349 . S
C1383 H1375 0.950 . S
C1383 C1381 1.327 . S
C1384 C1372 1.349 . S
C1384 H1378 0.950 . S
C1384 C1385 1.327 . S
C1385 H1379 0.950 . S
C1385 C1384 1.327 . S
C1385 C1389 1.429 . S
C1386 C1369 1.574 . S
C1386 H1380 0.949 . S
C1386 C1390 1.368 . S
C1387 C1368 1.429 . S
C1387 C1381 1.429 . S
C1387 C1388 1.523 . S
C1388 C1369 1.368 . S
C1388 C1382 1.368 . S
C1388 C1387 1.523 . S
C1389 C1373 1.429 . S
C1389 C1385 1.429 . S
C1389 C1390 1.523 . S
C1390 C1374 1.368 . S
C1390 C1386 1.368 . S
C1390 C1389 1.523 . S
H1391 C1366 0.950 . S
H1392 C1368 0.950 . S
H1393 C1369 0.949 . S
H1394 C1371 0.950 . S
H1395 C1373 0.950 . S
C1396 C1397 1.349 . S
C1396 C1398 1.327 . S
C1396 H1421 0.950 . S
C1397 C1396 1.349 . S
C1397 C1413 1.349 . S
C1398 C1396 1.327 . S
C1398 C1417 1.429 . S
C1398 H1422 0.950 . S
C1399 C1416 1.574 . S
C1399 C1418 1.368 . S
C1399 H1423 0.949 . S
H1400 C1404 0.949 . S
C1401 C1402 1.349 . S
C1401 C1403 1.327 . S
C1401 H1424 0.950 . S
C1402 C1401 1.349 . S
C1402 C1414 1.349 . S
C1403 C1401 1.327 . S
C1403 C1419 1.429 . S
C1403 H1425 0.950 . S
C1404 H1400 0.949 . S
C1404 C1412 1.574 . S
C1404 C1420 1.368 . S
H1405 C1413 0.950 . S
H1406 C1411 0.950 . S
H1407 C1412 0.949 . S
H1408 C1414 0.950 . S
H1409 C1415 0.950 . S
H1410 C1416 0.949 . S
C1411 H1406 0.950 . S
C1411 C1413 1.327 . S
C1411 C1417 1.429 . S
C1412 C1404 1.574 . S
C1412 H1407 0.949 . S
C1412 C1418 1.368 . S
C1413 C1397 1.349 . S
C1413 H1405 0.950 . S
C1413 C1411 1.327 . S
C1414 C1402 1.349 . S
C1414 H1408 0.950 . S
C1414 C1415 1.327 . S
C1415 H1409 0.950 . S
C1415 C1414 1.327 . S
C1415 C1419 1.429 . S
C1416 C1399 1.574 . S
C1416 H1410 0.949 . S
C1416 C1420 1.368 . S
C1417 C1398 1.429 . S
C1417 C1411 1.429 . S
C1417 C1418 1.523 . S
C1418 C1399 1.368 . S
C1418 C1412 1.368 . S
C1418 C1417 1.523 . S
C1419 C1403 1.429 . S
C1419 C1415 1.429 . S
C1419 C1420 1.523 . S
C1420 C1404 1.368 . S
C1420 C1416 1.368 . S
C1420 C1419 1.523 . S
H1421 C1396 0.950 . S
H1422 C1398 0.950 . S
H1423 C1399 0.949 . S
H1424 C1401 0.950 . S
H1425 C1403 0.950 . S
C1426 C1427 1.349 . S
C1426 C1428 1.327 . S
C1426 H1451 0.950 . S
C1427 C1426 1.349 . S
C1427 C1443 1.349 . S
C1428 C1426 1.327 . S
C1428 C1447 1.429 . S
C1428 H1452 0.995 . S
C1429 C1446 1.574 . S
C1429 C1448 1.368 . S
C1429 H1453 0.949 . S
H1430 C1434 0.949 . S
C1431 C1432 1.349 . S
C1431 C1433 1.327 . S
C1431 H1454 0.950 . S
C1432 C1431 1.349 . S
C1432 C1444 1.349 . S
C1433 C1431 1.327 . S
C1433 C1449 1.429 . S
C1433 H1455 0.950 . S
C1434 H1430 0.949 . S
C1434 C1442 1.574 . S
C1434 C1450 1.368 . S
H1435 C1443 0.950 . S
H1436 C1441 0.950 . S
H1437 C1442 0.949 . S
H1438 C1444 0.950 . S
H1439 C1445 0.950 . S
H1440 C1446 0.949 . S
C1441 H1436 0.950 . S
C1441 C1443 1.327 . S
C1441 C1447 1.429 . S
C1442 C1434 1.574 . S
C1442 H1437 0.949 . S
C1442 C1448 1.368 . S
C1443 C1427 1.349 . S
C1443 H1435 0.950 . S
C1443 C1441 1.327 . S
C1444 C1432 1.349 . S
C1444 H1438 0.950 . S
C1444 C1445 1.327 . S
C1445 H1439 0.950 . S
C1445 C1444 1.327 . S
C1445 C1449 1.429 . S
C1446 C1429 1.574 . S
C1446 H1440 0.949 . S
C1446 C1450 1.368 . S
C1447 C1428 1.429 . S
C1447 C1441 1.429 . S
C1447 C1448 1.523 1_455 S
C1448 C1429 1.368 . S
C1448 C1442 1.368 . S
C1448 C1447 1.523 1_655 S
C1449 C1433 1.429 . S
C1449 C1445 1.429 . S
C1449 C1450 1.523 . S
C1450 C1434 1.368 . S
C1450 C1446 1.368 . S
C1450 C1449 1.523 . S
H1451 C1426 0.950 . S
H1452 C1428 0.995 . S
H1453 C1429 0.949 . S
H1454 C1431 0.950 . S
H1455 C1433 0.950 . S
C1456 C1457 1.349 . S
C1456 C1458 1.327 . S
C1456 H1481 0.950 . S
C1457 C1456 1.349 . S
C1457 C1473 1.349 . S
C1458 C1456 1.327 . S
C1458 C1477 1.429 . S
C1458 H1482 0.950 . S
C1459 C1476 1.574 . S
C1459 C1478 1.368 . S
C1459 H1483 0.949 . S
H1460 C1464 0.949 . S
C1461 C1462 1.349 . S
C1461 C1463 1.327 . S
C1461 H1484 0.950 . S
C1462 C1461 1.349 . S
C1462 C1474 1.349 . S
C1463 C1461 1.327 . S
C1463 C1479 1.429 . S
C1463 H1485 0.950 . S
C1464 H1460 0.949 . S
C1464 C1472 1.574 . S
C1464 C1480 1.368 . S
H1465 C1473 0.950 . S
H1466 C1471 0.950 . S
H1467 C1472 0.949 . S
H1468 C1474 0.950 . S
H1469 C1475 0.950 . S
H1470 C1476 0.949 . S
C1471 H1466 0.950 . S
C1471 C1473 1.327 . S
C1471 C1477 1.429 . S
C1472 C1464 1.574 . S
C1472 H1467 0.949 . S
C1472 C1478 1.368 . S
C1473 C1457 1.349 . S
C1473 H1465 0.950 . S
C1473 C1471 1.327 . S
C1474 C1462 1.349 . S
C1474 H1468 0.950 . S
C1474 C1475 1.327 . S
C1475 H1469 0.950 . S
C1475 C1474 1.327 . S
C1475 C1479 1.429 . S
C1476 C1459 1.574 . S
C1476 H1470 0.949 . S
C1476 C1480 1.368 . S
C1477 C1458 1.429 . S
C1477 C1471 1.429 . S
C1477 C1478 1.523 . S
C1478 C1459 1.368 . S
C1478 C1472 1.368 . S
C1478 C1477 1.523 . S
C1479 C1463 1.429 . S
C1479 C1475 1.429 . S
C1479 C1480 1.523 . S
C1480 C1464 1.368 . S
C1480 C1476 1.368 . S
C1480 C1479 1.523 . S
H1481 C1456 0.950 . S
H1482 C1458 0.950 . S
H1483 C1459 0.949 . S
H1484 C1461 0.950 . S
H1485 C1463 0.950 . S
C1486 C1487 1.349 . S
C1486 C1488 1.327 . S
C1486 H1511 0.950 . S
C1487 C1486 1.349 . S
C1487 C1503 1.349 . S
C1488 C1486 1.327 . S
C1488 C1507 1.429 . S
C1488 H1512 0.950 . S
C1489 C1506 1.560 1_655 S
C1489 C1508 1.379 . S
C1489 H1513 0.952 . S
H1490 C1494 0.949 . S
C1491 C1492 1.349 . S
C1491 C1493 1.327 . S
C1491 H1514 0.950 . S
C1492 C1491 1.349 . S
C1492 C1504 1.349 . S
C1493 C1491 1.327 . S
C1493 C1509 1.429 . S
C1493 H1515 0.950 . S
C1494 H1490 0.949 . S
C1494 C1502 1.574 1_455 S
C1494 C1510 1.368 . S
H1495 C1503 0.950 . S
H1496 C1501 0.950 . S
H1497 C1502 0.949 . S
H1498 C1504 0.950 . S
H1499 C1505 0.950 . S
H1500 C1506 0.949 . S
C1501 H1496 0.950 . S
C1501 C1503 1.327 . S
C1501 C1507 1.429 . S
C1502 C1494 1.574 1_655 S
C1502 H1497 0.949 . S
C1502 C1508 1.368 . S
C1503 C1487 1.349 . S
C1503 H1495 0.950 . S
C1503 C1501 1.327 . S
C1504 C1492 1.349 . S
C1504 H1498 0.950 . S
C1504 C1505 1.327 . S
C1505 H1499 0.950 . S
C1505 C1504 1.327 . S
C1505 C1509 1.429 . S
C1506 C1489 1.560 1_455 S
C1506 H1500 0.949 . S
C1506 C1510 1.368 . S
C1507 C1488 1.429 . S
C1507 C1501 1.429 . S
C1507 C1508 1.523 . S
C1508 C1489 1.379 . S
C1508 C1502 1.368 . S
C1508 C1507 1.523 . S
C1509 C1493 1.429 . S
C1509 C1505 1.429 . S
C1509 C1510 1.523 . S
C1510 C1494 1.368 . S
C1510 C1506 1.368 . S
C1510 C1509 1.523 . S
H1511 C1486 0.950 . S
H1512 C1488 0.950 . S
H1513 C1489 0.952 . S
H1514 C1491 0.950 . S
H1515 C1493 0.950 . S
C1516 C1517 1.349 . S
C1516 C1518 1.327 . S
C1516 H1541 0.950 . S
C1517 C1516 1.349 . S
C1517 C1533 1.349 . S
C1518 C1516 1.327 . S
C1518 C1537 1.429 . S
C1518 H1542 0.950 . S
C1519 C1536 1.574 . S
C1519 C1538 1.368 . S
C1519 H1543 0.949 . S
H1520 C1524 0.949 . S
C1521 C1522 1.349 . S
C1521 C1523 1.327 . S
C1521 H1544 0.950 . S
C1522 C1521 1.349 . S
C1522 C1534 1.349 . S
C1523 C1521 1.327 . S
C1523 C1539 1.429 . S
C1523 H1545 0.950 . S
C1524 H1520 0.949 . S
C1524 C1532 1.574 . S
C1524 C1540 1.368 . S
H1525 C1533 0.950 . S
H1526 C1531 0.950 . S
H1527 C1532 0.949 . S
H1528 C1534 0.950 . S
H1529 C1535 0.950 . S
H1530 C1536 0.949 . S
C1531 H1526 0.950 . S
C1531 C1533 1.327 . S
C1531 C1537 1.429 . S
C1532 C1524 1.574 . S
C1532 H1527 0.949 . S
C1532 C1538 1.368 . S
C1533 C1517 1.349 . S
C1533 H1525 0.950 . S
C1533 C1531 1.327 . S
C1534 C1522 1.349 . S
C1534 H1528 0.950 . S
C1534 C1535 1.327 . S
C1535 H1529 0.950 . S
C1535 C1534 1.327 . S
C1535 C1539 1.429 . S
C1536 C1519 1.574 . S
C1536 H1530 0.949 . S
C1536 C1540 1.368 . S
C1537 C1518 1.429 . S
C1537 C1531 1.429 . S
C1537 C1538 1.523 . S
C1538 C1519 1.368 . S
C1538 C1532 1.368 . S
C1538 C1537 1.523 . S
C1539 C1523 1.429 . S
C1539 C1535 1.429 . S
C1539 C1540 1.523 . S
C1540 C1524 1.368 . S
C1540 C1536 1.368 . S
C1540 C1539 1.523 . S
H1541 C1516 0.950 . S
H1542 C1518 0.950 . S
H1543 C1519 0.949 . S
H1544 C1521 0.950 . S
H1545 C1523 0.950 . S
C1546 C1547 1.349 . S
C1546 C1548 1.327 . S
C1546 H1571 0.950 . S
C1547 C1546 1.349 . S
C1547 C1563 1.349 . S
C1548 C1546 1.327 . S
C1548 C1567 1.429 . S
C1548 H1572 0.950 . S
C1549 C1566 1.574 . S
C1549 C1568 1.368 . S
C1549 H1573 0.949 . S
H1550 C1554 0.949 . S
C1551 C1552 1.349 . S
C1551 C1553 1.327 . S
C1551 H1574 0.950 . S
C1552 C1551 1.349 . S
C1552 C1564 1.349 . S
C1553 C1551 1.327 . S
C1553 C1569 1.429 . S
C1553 H1575 0.950 . S
C1554 H1550 0.949 . S
C1554 C1562 1.574 . S
C1554 C1570 1.368 . S
H1555 C1563 0.950 . S
H1556 C1561 0.950 . S
H1557 C1562 0.949 . S
H1558 C1564 0.950 . S
H1559 C1565 0.950 . S
H1560 C1566 0.949 . S
C1561 H1556 0.950 . S
C1561 C1563 1.327 . S
C1561 C1567 1.429 . S
C1562 C1554 1.574 . S
C1562 H1557 0.949 . S
C1562 C1568 1.368 . S
C1563 C1547 1.349 . S
C1563 H1555 0.950 . S
C1563 C1561 1.327 . S
C1564 C1552 1.349 . S
C1564 H1558 0.950 . S
C1564 C1565 1.327 . S
C1565 H1559 0.950 . S
C1565 C1564 1.327 . S
C1565 C1569 1.429 . S
C1566 C1549 1.574 . S
C1566 H1560 0.949 . S
C1566 C1570 1.368 . S
C1567 C1548 1.429 . S
C1567 C1561 1.429 . S
C1567 C1568 1.523 . S
C1568 C1549 1.368 . S
C1568 C1562 1.368 . S
C1568 C1567 1.523 . S
C1569 C1553 1.429 . S
C1569 C1565 1.429 . S
C1569 C1570 1.523 . S
C1570 C1554 1.368 . S
C1570 C1566 1.368 . S
C1570 C1569 1.523 . S
H1571 C1546 0.950 . S
H1572 C1548 0.950 . S
H1573 C1549 0.949 . S
H1574 C1551 0.950 . S
H1575 C1553 0.950 . S
C1576 C1577 1.349 . S
C1576 C1578 1.327 . S
C1576 H1601 0.950 . S
C1577 C1576 1.349 . S
C1577 C1593 1.349 . S
C1578 C1576 1.327 . S
C1578 C1597 1.429 . S
C1578 H1602 0.950 . S
C1579 C1596 1.574 . S
C1579 C1598 1.368 . S
C1579 H1603 0.949 . S
H1580 C1584 0.949 . S
C1581 C1582 1.349 . S
C1581 C1583 1.327 . S
C1581 H1604 0.950 . S
C1582 C1581 1.349 . S
C1582 C1594 1.349 . S
C1583 C1581 1.327 . S
C1583 C1599 1.429 . S
C1583 H1605 0.950 . S
C1584 H1580 0.949 . S
C1584 C1592 1.574 . S
C1584 C1600 1.368 . S
H1585 C1593 0.950 . S
H1586 C1591 0.950 . S
H1587 C1592 0.949 . S
H1588 C1594 0.950 . S
H1589 C1595 0.950 . S
H1590 C1596 0.949 . S
C1591 H1586 0.950 . S
C1591 C1593 1.327 . S
C1591 C1597 1.429 . S
C1592 C1584 1.574 . S
C1592 H1587 0.949 . S
C1592 C1598 1.368 . S
C1593 C1577 1.349 . S
C1593 H1585 0.950 . S
C1593 C1591 1.327 . S
C1594 C1582 1.349 . S
C1594 H1588 0.950 . S
C1594 C1595 1.327 . S
C1595 H1589 0.950 . S
C1595 C1594 1.327 . S
C1595 C1599 1.429 . S
C1596 C1579 1.574 . S
C1596 H1590 0.949 . S
C1596 C1600 1.368 . S
C1597 C1578 1.429 . S
C1597 C1591 1.429 . S
C1597 C1598 1.523 . S
C1598 C1579 1.368 . S
C1598 C1592 1.368 . S
C1598 C1597 1.523 . S
C1599 C1583 1.429 . S
C1599 C1595 1.429 . S
C1599 C1600 1.523 . S
C1600 C1584 1.368 . S
C1600 C1596 1.368 . S
C1600 C1599 1.523 . S
H1601 C1576 0.950 . S
H1602 C1578 0.950 . S
H1603 C1579 0.949 . S
H1604 C1581 0.950 . S
H1605 C1583 0.950 . S
C1606 C1607 1.349 . S
C1606 C1608 1.327 . S
C1606 H1631 0.950 . S
C1607 C1606 1.349 . S
C1607 C1623 1.349 . S
C1608 C1606 1.327 . S
C1608 C1627 1.429 . S
C1608 H1632 0.950 . S
C1609 C1626 1.574 . S
C1609 C1628 1.368 . S
C1609 H1633 0.949 . S
H1610 C1614 0.949 . S
C1611 C1612 1.349 . S
C1611 C1613 1.327 . S
C1611 H1634 0.950 . S
C1612 C1611 1.349 . S
C1612 C1624 1.349 . S
C1613 C1611 1.327 . S
C1613 C1629 1.429 . S
C1613 H1635 0.950 . S
C1614 H1610 0.949 . S
C1614 C1622 1.574 . S
C1614 C1630 1.368 . S
H1615 C1623 0.950 . S
H1616 C1621 0.950 . S
H1617 C1622 0.949 . S
H1618 C1624 0.950 . S
H1619 C1625 0.950 . S
H1620 C1626 0.949 . S
C1621 H1616 0.950 . S
C1621 C1623 1.327 . S
C1621 C1627 1.429 . S
C1622 C1614 1.574 . S
C1622 H1617 0.949 . S
C1622 C1628 1.368 . S
C1623 C1607 1.349 . S
C1623 H1615 0.950 . S
C1623 C1621 1.327 . S
C1624 C1612 1.349 . S
C1624 H1618 0.950 . S
C1624 C1625 1.327 . S
C1625 H1619 0.950 . S
C1625 C1624 1.327 . S
C1625 C1629 1.429 . S
C1626 C1609 1.574 . S
C1626 H1620 0.949 . S
C1626 C1630 1.368 . S
C1627 C1608 1.429 . S
C1627 C1621 1.429 . S
C1627 C1628 1.523 . S
C1628 C1609 1.368 . S
C1628 C1622 1.368 . S
C1628 C1627 1.523 . S
C1629 C1613 1.429 . S
C1629 C1625 1.429 . S
C1629 C1630 1.523 . S
C1630 C1614 1.368 . S
C1630 C1626 1.368 . S
C1630 C1629 1.523 . S
H1631 C1606 0.950 . S
H1632 C1608 0.950 . S
H1633 C1609 0.949 . S
H1634 C1611 0.950 . S
H1635 C1613 0.950 . S
C1636 C1637 1.349 . S
C1636 C1638 1.327 . S
C1636 H1661 0.950 . S
C1637 C1636 1.349 . S
C1637 C1653 1.349 . S
C1638 C1636 1.327 . S
C1638 C1657 1.429 . S
C1638 H1662 0.950 . S
C1639 C1656 1.574 . S
C1639 C1658 1.368 . S
C1639 H1663 0.949 . S
H1640 C1644 0.949 . S
C1641 C1642 1.349 . S
C1641 C1643 1.327 . S
C1641 H1664 0.950 . S
C1642 C1641 1.349 . S
C1642 C1654 1.349 . S
C1643 C1641 1.327 . S
C1643 C1659 1.429 . S
C1643 H1665 0.950 . S
C1644 H1640 0.949 . S
C1644 C1652 1.574 . S
C1644 C1660 1.368 . S
H1645 C1653 0.950 . S
H1646 C1651 0.950 . S
H1647 C1652 0.949 . S
H1648 C1654 0.950 . S
H1649 C1655 0.950 . S
H1650 C1656 0.949 . S
C1651 H1646 0.950 . S
C1651 C1653 1.327 . S
C1651 C1657 1.429 . S
C1652 C1644 1.574 . S
C1652 H1647 0.949 . S
C1652 C1658 1.368 . S
C1653 C1637 1.349 . S
C1653 H1645 0.950 . S
C1653 C1651 1.327 . S
C1654 C1642 1.349 . S
C1654 H1648 0.950 . S
C1654 C1655 1.327 . S
C1655 H1649 0.950 . S
C1655 C1654 1.327 . S
C1655 C1659 1.429 . S
C1656 C1639 1.574 . S
C1656 H1650 0.949 . S
C1656 C1660 1.368 . S
C1657 C1638 1.429 . S
C1657 C1651 1.429 . S
C1657 C1658 1.523 . S
C1658 C1639 1.368 . S
C1658 C1652 1.368 . S
C1658 C1657 1.523 . S
C1659 C1643 1.429 . S
C1659 C1655 1.429 . S
C1659 C1660 1.523 . S
C1660 C1644 1.368 . S
C1660 C1656 1.368 . S
C1660 C1659 1.523 . S
H1661 C1636 0.950 . S
H1662 C1638 0.950 . S
H1663 C1639 0.949 . S
H1664 C1641 0.950 . S
H1665 C1643 0.950 . S
C1666 C1667 1.349 . S
C1666 C1668 1.327 . S
C1666 H1691 0.950 . S
C1667 C1666 1.349 . S
C1667 C1683 1.349 . S
C1668 C1666 1.327 . S
C1668 C1687 1.429 . S
C1668 H1692 0.950 . S
C1669 C1686 1.574 1_455 S
C1669 C1688 1.368 . S
C1669 H1693 0.949 . S
H1670 C1674 0.946 1_655 S
C1671 C1672 1.349 . S
C1671 C1673 1.327 . S
C1671 H1694 0.950 . S
C1672 C1671 1.349 . S
C1672 C1684 1.349 . S
C1673 C1671 1.327 . S
C1673 C1689 1.429 . S
C1673 H1695 0.950 . S
C1674 H1670 0.946 1_455 S
C1674 C1682 1.618 . S
C1674 C1690 1.330 1_455 S
H1675 C1683 0.950 . S
H1676 C1681 0.950 . S
H1677 C1682 0.949 . S
H1678 C1684 0.950 . S
H1679 C1685 0.950 . S
H1680 C1686 0.949 . S
C1681 H1676 0.950 . S
C1681 C1683 1.327 . S
C1681 C1687 1.429 . S
C1682 C1674 1.618 . S
C1682 H1677 0.949 . S
C1682 C1688 1.368 . S
C1683 C1667 1.349 . S
C1683 H1675 0.950 . S
C1683 C1681 1.327 . S
C1684 C1672 1.349 . S
C1684 H1678 0.950 . S
C1684 C1685 1.327 . S
C1685 H1679 0.950 . S
C1685 C1684 1.327 . S
C1685 C1689 1.429 . S
C1686 C1669 1.574 1_655 S
C1686 H1680 0.949 . S
C1686 C1690 1.368 . S
C1687 C1668 1.429 . S
C1687 C1681 1.429 . S
C1687 C1688 1.523 . S
C1688 C1669 1.368 . S
C1688 C1682 1.368 . S
C1688 C1687 1.523 . S
C1689 C1673 1.429 . S
C1689 C1685 1.429 . S
C1689 C1690 1.523 . S
C1690 C1674 1.330 1_655 S
C1690 C1686 1.368 . S
C1690 C1689 1.523 . S
H1691 C1666 0.950 . S
H1692 C1668 0.950 . S
H1693 C1669 0.949 . S
H1694 C1671 0.950 . S
H1695 C1673 0.950 . S
C1696 C1697 1.349 . S
C1696 C1698 1.327 . S
C1696 H1721 0.950 . S
C1697 C1696 1.349 . S
C1697 C1713 1.349 . S
C1698 C1696 1.327 . S
C1698 C1717 1.429 . S
C1698 H1722 0.950 . S
C1699 C1716 1.574 . S
C1699 C1718 1.368 . S
C1699 H1723 0.949 . S
H1700 C1704 0.949 . S
C1701 C1702 1.349 . S
C1701 C1703 1.327 . S
C1701 H1724 0.950 . S
C1702 C1701 1.349 . S
C1702 C1714 1.349 . S
C1703 C1701 1.327 . S
C1703 C1719 1.429 . S
C1703 H1725 0.950 . S
C1704 H1700 0.949 . S
C1704 C1712 1.574 . S
C1704 C1720 1.368 . S
H1705 C1713 0.950 . S
H1706 C1711 0.950 . S
H1707 C1712 0.949 . S
H1708 C1714 0.950 . S
H1709 C1715 0.950 . S
H1710 C1716 0.949 . S
C1711 H1706 0.950 . S
C1711 C1713 1.327 . S
C1711 C1717 1.429 . S
C1712 C1704 1.574 . S
C1712 H1707 0.949 . S
C1712 C1718 1.368 . S
C1713 C1697 1.349 . S
C1713 H1705 0.950 . S
C1713 C1711 1.327 . S
C1714 C1702 1.349 . S
C1714 H1708 0.950 . S
C1714 C1715 1.327 . S
C1715 H1709 0.950 . S
C1715 C1714 1.327 . S
C1715 C1719 1.429 . S
C1716 C1699 1.574 . S
C1716 H1710 0.949 . S
C1716 C1720 1.368 . S
C1717 C1698 1.429 . S
C1717 C1711 1.429 . S
C1717 C1718 1.523 . S
C1718 C1699 1.368 . S
C1718 C1712 1.368 . S
C1718 C1717 1.523 . S
C1719 C1703 1.429 . S
C1719 C1715 1.429 . S
C1719 C1720 1.523 . S
C1720 C1704 1.368 . S
C1720 C1716 1.368 . S
C1720 C1719 1.523 . S
H1721 C1696 0.950 . S
H1722 C1698 0.950 . S
H1723 C1699 0.949 . S
H1724 C1701 0.950 . S
H1725 C1703 0.950 . S
C1726 C1727 1.349 . S
C1726 C1728 1.327 . S
C1726 H1751 0.950 . S
C1727 C1726 1.349 . S
C1727 C1743 1.349 . S
C1728 C1726 1.327 . S
C1728 C1747 1.429 . S
C1728 H1752 0.950 . S
C1729 C1746 1.574 . S
C1729 C1748 1.368 . S
C1729 H1753 0.949 . S
H1730 C1734 0.949 . S
C1731 C1732 1.349 . S
C1731 C1733 1.327 . S
C1731 H1754 0.950 . S
C1732 C1731 1.349 . S
C1732 C1744 1.349 . S
C1733 C1731 1.327 . S
C1733 C1749 1.429 . S
C1733 H1755 0.950 . S
C1734 H1730 0.949 . S
C1734 C1742 1.574 . S
C1734 C1750 1.368 . S
H1735 C1743 0.950 . S
H1736 C1741 0.950 . S
H1737 C1742 0.949 . S
H1738 C1744 0.950 . S
H1739 C1745 0.950 . S
H1740 C1746 0.949 . S
C1741 H1736 0.950 . S
C1741 C1743 1.327 . S
C1741 C1747 1.429 . S
C1742 C1734 1.574 . S
C1742 H1737 0.949 . S
C1742 C1748 1.368 . S
C1743 C1727 1.349 . S
C1743 H1735 0.950 . S
C1743 C1741 1.327 . S
C1744 C1732 1.349 . S
C1744 H1738 0.950 . S
C1744 C1745 1.327 . S
C1745 H1739 0.950 . S
C1745 C1744 1.327 . S
C1745 C1749 1.429 . S
C1746 C1729 1.574 . S
C1746 H1740 0.949 . S
C1746 C1750 1.368 . S
C1747 C1728 1.429 . S
C1747 C1741 1.429 . S
C1747 C1748 1.523 . S
C1748 C1729 1.368 . S
C1748 C1742 1.368 . S
C1748 C1747 1.523 . S
C1749 C1733 1.429 . S
C1749 C1745 1.429 . S
C1749 C1750 1.523 . S
C1750 C1734 1.368 . S
C1750 C1746 1.368 . S
C1750 C1749 1.523 . S
H1751 C1726 0.950 . S
H1752 C1728 0.950 . S
H1753 C1729 0.949 . S
H1754 C1731 0.950 . S
H1755 C1733 0.950 . S
C1756 C1757 1.349 . S
C1756 C1758 1.327 . S
C1756 H1781 0.950 . S
C1757 C1756 1.349 . S
C1757 C1773 1.349 . S
C1758 C1756 1.327 . S
C1758 C1777 1.429 . S
C1758 H1782 0.950 . S
C1759 C1776 1.574 . S
C1759 C1778 1.368 . S
C1759 H1783 0.949 . S
H1760 C1764 0.949 . S
C1761 C1762 1.349 . S
C1761 C1763 1.327 . S
C1761 H1784 0.950 . S
C1762 C1761 1.349 . S
C1762 C1774 1.349 . S
C1763 C1761 1.327 . S
C1763 C1779 1.429 . S
C1763 H1785 0.950 . S
C1764 H1760 0.949 . S
C1764 C1772 1.574 . S
C1764 C1780 1.368 . S
H1765 C1773 0.950 . S
H1766 C1771 0.950 . S
H1767 C1772 0.949 . S
H1768 C1774 0.950 . S
H1769 C1775 0.950 . S
H1770 C1776 0.949 . S
C1771 H1766 0.950 . S
C1771 C1773 1.327 . S
C1771 C1777 1.429 . S
C1772 C1764 1.574 . S
C1772 H1767 0.949 . S
C1772 C1778 1.368 . S
C1773 C1757 1.349 . S
C1773 H1765 0.950 . S
C1773 C1771 1.327 . S
C1774 C1762 1.349 . S
C1774 H1768 0.950 . S
C1774 C1775 1.327 . S
C1775 H1769 0.950 . S
C1775 C1774 1.327 . S
C1775 C1779 1.429 . S
C1776 C1759 1.574 . S
C1776 H1770 0.949 . S
C1776 C1780 1.368 . S
C1777 C1758 1.429 . S
C1777 C1771 1.429 . S
C1777 C1778 1.523 . S
C1778 C1759 1.368 . S
C1778 C1772 1.368 . S
C1778 C1777 1.523 . S
C1779 C1763 1.429 . S
C1779 C1775 1.429 . S
C1779 C1780 1.523 . S
C1780 C1764 1.368 . S
C1780 C1776 1.368 . S
C1780 C1779 1.523 . S
H1781 C1756 0.950 . S
H1782 C1758 0.950 . S
H1783 C1759 0.949 . S
H1784 C1761 0.950 . S
H1785 C1763 0.950 . S
C1786 C1787 1.349 . S
C1786 C1788 1.327 . S
C1786 H1811 0.950 . S
C1787 C1786 1.349 . S
C1787 C1803 1.349 . S
C1788 C1786 1.327 . S
C1788 C1807 1.429 . S
C1788 H1812 0.950 . S
C1789 C1806 1.574 . S
C1789 C1808 1.368 . S
C1789 H1813 0.949 . S
H1790 C1794 0.949 . S
C1791 C1792 1.349 . S
C1791 C1793 1.327 . S
C1791 H1814 0.950 . S
C1792 C1791 1.349 . S
C1792 C1804 1.349 . S
C1793 C1791 1.327 . S
C1793 C1809 1.429 . S
C1793 H1815 0.950 . S
C1794 H1790 0.949 . S
C1794 C1802 1.574 . S
C1794 C1810 1.368 . S
H1795 C1803 0.950 . S
H1796 C1801 0.950 . S
H1797 C1802 0.949 . S
H1798 C1804 0.950 . S
H1799 C1805 0.944 1_455 S
H1800 C1806 0.949 . S
C1801 H1796 0.950 . S
C1801 C1803 1.327 . S
C1801 C1807 1.429 . S
C1802 C1794 1.574 . S
C1802 H1797 0.949 . S
C1802 C1808 1.368 . S
C1803 C1787 1.349 . S
C1803 H1795 0.950 . S
C1803 C1801 1.327 . S
C1804 C1792 1.349 . S
C1804 H1798 0.950 . S
C1804 C1805 1.327 . S
C1805 H1799 0.944 1_655 S
C1805 C1804 1.327 . S
C1805 C1809 1.429 . S
C1806 C1789 1.574 . S
C1806 H1800 0.949 . S
C1806 C1810 1.368 . S
C1807 C1788 1.429 . S
C1807 C1801 1.429 . S
C1807 C1808 1.523 . S
C1808 C1789 1.368 . S
C1808 C1802 1.368 . S
C1808 C1807 1.523 . S
C1809 C1793 1.429 . S
C1809 C1805 1.429 . S
C1809 C1810 1.523 1_655 S
C1810 C1794 1.368 . S
C1810 C1806 1.368 . S
C1810 C1809 1.523 1_455 S
H1811 C1786 0.950 . S
H1812 C1788 0.950 . S
H1813 C1789 0.949 . S
H1814 C1791 0.950 . S
H1815 C1793 0.950 . S
C1816 C1817 1.349 . S
C1816 C1818 1.327 . S
C1816 H1841 0.950 . S
C1817 C1816 1.349 . S
C1817 C1833 1.349 . S
C1818 C1816 1.327 . S
C1818 C1837 1.429 . S
C1818 H1842 0.950 . S
C1819 C1836 1.574 . S
C1819 C1838 1.368 . S
C1819 H1843 0.949 . S
H1820 C1824 0.949 . S
C1821 C1822 1.349 . S
C1821 C1823 1.327 . S
C1821 H1844 0.950 . S
C1822 C1821 1.349 . S
C1822 C1834 1.349 . S
C1823 C1821 1.327 . S
C1823 C1839 1.429 . S
C1823 H1845 0.950 . S
C1824 H1820 0.949 . S
C1824 C1832 1.574 . S
C1824 C1840 1.368 . S
H1825 C1833 0.950 . S
H1826 C1831 0.950 . S
H1827 C1832 0.949 . S
H1828 C1834 0.950 . S
H1829 C1835 0.950 . S
H1830 C1836 0.949 . S
C1831 H1826 0.950 . S
C1831 C1833 1.327 . S
C1831 C1837 1.429 . S
C1832 C1824 1.574 . S
C1832 H1827 0.949 . S
C1832 C1838 1.368 . S
C1833 C1817 1.349 . S
C1833 H1825 0.950 . S
C1833 C1831 1.327 . S
C1834 C1822 1.349 . S
C1834 H1828 0.950 . S
C1834 C1835 1.327 . S
C1835 H1829 0.950 . S
C1835 C1834 1.327 . S
C1835 C1839 1.429 . S
C1836 C1819 1.574 . S
C1836 H1830 0.949 . S
C1836 C1840 1.368 . S
C1837 C1818 1.429 . S
C1837 C1831 1.429 . S
C1837 C1838 1.523 . S
C1838 C1819 1.368 . S
C1838 C1832 1.368 . S
C1838 C1837 1.523 . S
C1839 C1823 1.429 . S
C1839 C1835 1.429 . S
C1839 C1840 1.523 . S
C1840 C1824 1.368 . S
C1840 C1836 1.368 . S
C1840 C1839 1.523 . S
H1841 C1816 0.950 . S
H1842 C1818 0.950 . S
H1843 C1819 0.949 . S
H1844 C1821 0.950 . S
H1845 C1823 0.950 . S
C1846 C1847 1.349 . S
C1846 C1848 1.327 . S
C1846 H1871 0.950 . S
C1847 C1846 1.349 . S
C1847 C1863 1.349 . S
C1848 C1846 1.327 . S
C1848 C1867 1.429 . S
C1848 H1872 0.950 . S
C1849 C1866 1.574 . S
C1849 C1868 1.368 . S
C1849 H1873 0.949 . S
H1850 C1854 0.949 . S
C1851 C1852 1.349 . S
C1851 C1853 1.327 . S
C1851 H1874 0.950 . S
C1852 C1851 1.349 . S
C1852 C1864 1.349 . S
C1853 C1851 1.327 . S
C1853 C1869 1.429 . S
C1853 H1875 0.950 . S
C1854 H1850 0.949 . S
C1854 C1862 1.574 . S
C1854 C1870 1.368 . S
H1855 C1863 0.950 . S
H1856 C1861 0.993 . S
H1857 C1862 0.949 . S
H1858 C1864 0.950 . S
H1859 C1865 0.950 . S
H1860 C1866 0.949 . S
C1861 H1856 0.993 . S
C1861 C1863 1.327 . S
C1861 C1867 1.429 . S
C1862 C1854 1.574 . S
C1862 H1857 0.949 . S
C1862 C1868 1.368 . S
C1863 C1847 1.349 . S
C1863 H1855 0.950 . S
C1863 C1861 1.327 . S
C1864 C1852 1.349 . S
C1864 H1858 0.950 . S
C1864 C1865 1.327 . S
C1865 H1859 0.950 . S
C1865 C1864 1.327 . S
C1865 C1869 1.429 . S
C1866 C1849 1.574 . S
C1866 H1860 0.949 . S
C1866 C1870 1.368 . S
C1867 C1848 1.429 . S
C1867 C1861 1.429 . S
C1867 C1868 1.523 1_655 S
C1868 C1849 1.368 . S
C1868 C1862 1.368 . S
C1868 C1867 1.523 1_455 S
C1869 C1853 1.429 . S
C1869 C1865 1.429 . S
C1869 C1870 1.523 . S
C1870 C1854 1.368 . S
C1870 C1866 1.368 . S
C1870 C1869 1.523 . S
H1871 C1846 0.950 . S
H1872 C1848 0.950 . S
H1873 C1849 0.949 . S
H1874 C1851 0.950 . S
H1875 C1853 0.950 . S
C1876 C1877 1.349 . S
C1876 C1878 1.327 . S
C1876 H1901 0.950 . S
C1877 C1876 1.349 . S
C1877 C1893 1.349 . S
C1878 C1876 1.327 . S
C1878 C1897 1.429 . S
C1878 H1902 0.950 . S
C1879 C1896 1.574 . S
C1879 C1898 1.368 . S
C1879 H1903 0.949 . S
H1880 C1884 0.949 . S
C1881 C1882 1.349 . S
C1881 C1883 1.327 . S
C1881 H1904 0.950 . S
C1882 C1881 1.349 . S
C1882 C1894 1.349 . S
C1883 C1881 1.327 . S
C1883 C1899 1.429 . S
C1883 H1905 0.950 . S
C1884 H1880 0.949 . S
C1884 C1892 1.574 . S
C1884 C1900 1.368 . S
H1885 C1893 0.950 . S
H1886 C1891 0.950 . S
H1887 C1892 0.949 . S
H1888 C1894 0.950 . S
H1889 C1895 0.950 . S
H1890 C1896 0.949 . S
C1891 H1886 0.950 . S
C1891 C1893 1.327 . S
C1891 C1897 1.429 . S
C1892 C1884 1.574 . S
C1892 H1887 0.949 . S
C1892 C1898 1.368 . S
C1893 C1877 1.349 . S
C1893 H1885 0.950 . S
C1893 C1891 1.327 . S
C1894 C1882 1.349 . S
C1894 H1888 0.950 . S
C1894 C1895 1.327 . S
C1895 H1889 0.950 . S
C1895 C1894 1.327 . S
C1895 C1899 1.429 . S
C1896 C1879 1.574 . S
C1896 H1890 0.949 . S
C1896 C1900 1.368 . S
C1897 C1878 1.429 . S
C1897 C1891 1.429 . S
C1897 C1898 1.523 . S
C1898 C1879 1.368 . S
C1898 C1892 1.368 . S
C1898 C1897 1.523 . S
C1899 C1883 1.429 . S
C1899 C1895 1.429 . S
C1899 C1900 1.523 . S
C1900 C1884 1.368 . S
C1900 C1896 1.368 . S
C1900 C1899 1.523 . S
H1901 C1876 0.950 . S
H1902 C1878 0.950 . S
H1903 C1879 0.949 . S
H1904 C1881 0.950 . S
H1905 C1883 0.950 . S
C1906 C1907 1.349 . S
C1906 C1908 1.327 . S
C1906 H1931 0.950 . S
C1907 C1906 1.349 . S
C1907 C1923 1.349 . S
C1908 C1906 1.327 . S
C1908 C1927 1.429 . S
C1908 H1932 0.950 . S
C1909 C1926 1.574 . S
C1909 C1928 1.368 . S
C1909 H1933 0.949 . S
H1910 C1914 0.949 . S
C1911 C1912 1.349 . S
C1911 C1913 1.327 . S
C1911 H1934 0.950 . S
C1912 C1911 1.349 . S
C1912 C1924 1.349 . S
C1913 C1911 1.327 . S
C1913 C1929 1.429 . S
C1913 H1935 0.950 . S
C1914 H1910 0.949 . S
C1914 C1922 1.574 . S
C1914 C1930 1.368 . S
H1915 C1923 0.950 . S
H1916 C1921 0.950 . S
H1917 C1922 0.949 . S
H1918 C1924 0.950 . S
H1919 C1925 0.950 . S
H1920 C1926 0.949 . S
C1921 H1916 0.950 . S
C1921 C1923 1.327 . S
C1921 C1927 1.429 . S
C1922 C1914 1.574 . S
C1922 H1917 0.949 . S
C1922 C1928 1.368 . S
C1923 C1907 1.349 . S
C1923 H1915 0.950 . S
C1923 C1921 1.327 . S
C1924 C1912 1.349 . S
C1924 H1918 0.950 . S
C1924 C1925 1.327 . S
C1925 H1919 0.950 . S
C1925 C1924 1.327 . S
C1925 C1929 1.429 . S
C1926 C1909 1.574 . S
C1926 H1920 0.949 . S
C1926 C1930 1.368 . S
C1927 C1908 1.429 . S
C1927 C1921 1.429 . S
C1927 C1928 1.523 . S
C1928 C1909 1.368 . S
C1928 C1922 1.368 . S
C1928 C1927 1.523 . S
C1929 C1913 1.429 . S
C1929 C1925 1.429 . S
C1929 C1930 1.523 . S
C1930 C1914 1.368 . S
C1930 C1926 1.368 . S
C1930 C1929 1.523 . S
H1931 C1906 0.950 . S
H1932 C1908 0.950 . S
H1933 C1909 0.949 . S
H1934 C1911 0.950 . S
H1935 C1913 0.950 . S
C1936 C1937 1.349 . S
C1936 C1938 1.327 . S
C1936 H1961 0.950 . S
C1937 C1936 1.349 . S
C1937 C1953 1.349 . S
C1938 C1936 1.327 . S
C1938 C1957 1.429 . S
C1938 H1962 0.950 . S
C1939 C1956 1.574 . S
C1939 C1958 1.368 . S
C1939 H1963 0.949 . S
H1940 C1944 0.949 . S
C1941 C1942 1.349 . S
C1941 C1943 1.327 . S
C1941 H1964 0.950 . S
C1942 C1941 1.349 . S
C1942 C1954 1.349 . S
C1943 C1941 1.327 . S
C1943 C1959 1.429 . S
C1943 H1965 0.950 . S
C1944 H1940 0.949 . S
C1944 C1952 1.574 . S
C1944 C1960 1.368 . S
H1945 C1953 0.950 . S
H1946 C1951 0.950 . S
H1947 C1952 0.949 . S
H1948 C1954 0.950 . S
H1949 C1955 0.950 . S
H1950 C1956 0.949 . S
C1951 H1946 0.950 . S
C1951 C1953 1.327 . S
C1951 C1957 1.429 . S
C1952 C1944 1.574 . S
C1952 H1947 0.949 . S
C1952 C1958 1.368 . S
C1953 C1937 1.349 . S
C1953 H1945 0.950 . S
C1953 C1951 1.327 . S
C1954 C1942 1.349 . S
C1954 H1948 0.950 . S
C1954 C1955 1.327 . S
C1955 H1949 0.950 . S
C1955 C1954 1.327 . S
C1955 C1959 1.429 . S
C1956 C1939 1.574 . S
C1956 H1950 0.949 . S
C1956 C1960 1.368 . S
C1957 C1938 1.429 . S
C1957 C1951 1.429 . S
C1957 C1958 1.523 . S
C1958 C1939 1.368 . S
C1958 C1952 1.368 . S
C1958 C1957 1.523 . S
C1959 C1943 1.429 . S
C1959 C1955 1.429 . S
C1959 C1960 1.523 . S
C1960 C1944 1.368 . S
C1960 C1956 1.368 . S
C1960 C1959 1.523 . S
H1961 C1936 0.950 . S
H1962 C1938 0.950 . S
H1963 C1939 0.949 . S
H1964 C1941 0.950 . S
H1965 C1943 0.950 . S
C1966 C1967 1.349 . S
C1966 C1968 1.327 . S
C1966 H1991 0.950 . S
C1967 C1966 1.349 . S
C1967 C1983 1.349 . S
C1968 C1966 1.327 . S
C1968 C1987 1.429 . S
C1968 H1992 0.950 . S
C1969 C1986 1.574 . S
C1969 C1988 1.368 . S
C1969 H1993 0.949 . S
H1970 C1974 0.949 . S
C1971 C1972 1.349 . S
C1971 C1973 1.327 . S
C1971 H1994 0.950 . S
C1972 C1971 1.349 . S
C1972 C1984 1.349 . S
C1973 C1971 1.327 . S
C1973 C1989 1.429 . S
C1973 H1995 0.950 . S
C1974 H1970 0.949 . S
C1974 C1982 1.574 . S
C1974 C1990 1.368 . S
H1975 C1983 0.950 . S
H1976 C1981 0.950 . S
H1977 C1982 0.949 . S
H1978 C1984 0.950 . S
H1979 C1985 0.950 . S
H1980 C1986 0.949 . S
C1981 H1976 0.950 . S
C1981 C1983 1.327 . S
C1981 C1987 1.429 . S
C1982 C1974 1.574 . S
C1982 H1977 0.949 . S
C1982 C1988 1.368 . S
C1983 C1967 1.349 . S
C1983 H1975 0.950 . S
C1983 C1981 1.327 . S
C1984 C1972 1.349 . S
C1984 H1978 0.950 . S
C1984 C1985 1.327 . S
C1985 H1979 0.950 . S
C1985 C1984 1.327 . S
C1985 C1989 1.429 . S
C1986 C1969 1.574 . S
C1986 H1980 0.949 . S
C1986 C1990 1.368 . S
C1987 C1968 1.429 . S
C1987 C1981 1.429 . S
C1987 C1988 1.523 . S
C1988 C1969 1.368 . S
C1988 C1982 1.368 . S
C1988 C1987 1.523 . S
C1989 C1973 1.429 . S
C1989 C1985 1.429 . S
C1989 C1990 1.523 . S
C1990 C1974 1.368 . S
C1990 C1986 1.368 . S
C1990 C1989 1.523 . S
H1991 C1966 0.950 . S
H1992 C1968 0.950 . S
H1993 C1969 0.949 . S
H1994 C1971 0.950 . S
H1995 C1973 0.950 . S
C1996 C1997 1.349 . S
C1996 C1998 1.327 . S
C1996 H2021 0.950 . S
C1997 C1996 1.349 . S
C1997 C2013 1.349 . S
C1998 C1996 1.327 . S
C1998 C2017 1.429 . S
C1998 H2022 0.950 . S
C1999 C2016 1.574 . S
C1999 C2018 1.368 . S
C1999 H2023 0.949 . S
H2000 C2004 0.949 . S
C2001 C2002 1.349 . S
C2001 C2003 1.327 . S
C2001 H2024 0.950 . S
C2002 C2001 1.349 . S
C2002 C2014 1.349 . S
C2003 C2001 1.327 . S
C2003 C2019 1.429 . S
C2003 H2025 0.950 . S
C2004 H2000 0.949 . S
C2004 C2012 1.574 . S
C2004 C2020 1.368 . S
H2005 C2013 0.950 . S
H2006 C2011 0.950 . S
H2007 C2012 0.949 . S
H2008 C2014 0.950 . S
H2009 C2015 0.950 . S
H2010 C2016 0.949 . S
C2011 H2006 0.950 . S
C2011 C2013 1.327 . S
C2011 C2017 1.429 . S
C2012 C2004 1.574 . S
C2012 H2007 0.949 . S
C2012 C2018 1.368 . S
C2013 C1997 1.349 . S
C2013 H2005 0.950 . S
C2013 C2011 1.327 . S
C2014 C2002 1.349 . S
C2014 H2008 0.950 . S
C2014 C2015 1.327 . S
C2015 H2009 0.950 . S
C2015 C2014 1.327 . S
C2015 C2019 1.429 . S
C2016 C1999 1.574 . S
C2016 H2010 0.949 . S
C2016 C2020 1.368 . S
C2017 C1998 1.429 . S
C2017 C2011 1.429 . S
C2017 C2018 1.523 . S
C2018 C1999 1.368 . S
C2018 C2012 1.368 . S
C2018 C2017 1.523 . S
C2019 C2003 1.429 . S
C2019 C2015 1.429 . S
C2019 C2020 1.523 . S
C2020 C2004 1.368 . S
C2020 C2016 1.368 . S
C2020 C2019 1.523 . S
H2021 C1996 0.950 . S
H2022 C1998 0.950 . S
H2023 C1999 0.949 . S
H2024 C2001 0.950 . S
H2025 C2003 0.950 . S
C2026 C2027 1.349 . S
C2026 C2028 1.327 . S
C2026 H2051 0.950 . S
C2027 C2026 1.349 . S
C2027 C2043 1.349 . S
C2028 C2026 1.327 . S
C2028 C2047 1.429 . S
C2028 H2052 0.950 . S
C2029 C2046 1.574 1_655 S
C2029 C2048 1.368 . S
C2029 H2053 0.949 . S
H2030 C2034 0.949 . S
C2031 C2032 1.349 . S
C2031 C2033 1.327 . S
C2031 H2054 0.950 . S
C2032 C2031 1.349 . S
C2032 C2044 1.349 . S
C2033 C2031 1.327 . S
C2033 C2049 1.429 . S
C2033 H2055 0.950 . S
C2034 H2030 0.949 . S
C2034 C2042 1.574 . S
C2034 C2050 1.368 1_655 S
H2035 C2043 0.950 . S
H2036 C2041 0.950 . S
H2037 C2042 0.949 . S
H2038 C2044 0.950 . S
H2039 C2045 0.950 . S
H2040 C2046 0.949 . S
C2041 H2036 0.950 . S
C2041 C2043 1.327 . S
C2041 C2047 1.429 . S
C2042 C2034 1.574 . S
C2042 H2037 0.949 . S
C2042 C2048 1.368 . S
C2043 C2027 1.349 . S
C2043 H2035 0.950 . S
C2043 C2041 1.327 . S
C2044 C2032 1.349 . S
C2044 H2038 0.950 . S
C2044 C2045 1.327 . S
C2045 H2039 0.950 . S
C2045 C2044 1.327 . S
C2045 C2049 1.429 . S
C2046 C2029 1.574 1_455 S
C2046 H2040 0.949 . S
C2046 C2050 1.368 . S
C2047 C2028 1.429 . S
C2047 C2041 1.429 . S
C2047 C2048 1.523 . S
C2048 C2029 1.368 . S
C2048 C2042 1.368 . S
C2048 C2047 1.523 . S
C2049 C2033 1.429 . S
C2049 C2045 1.429 . S
C2049 C2050 1.523 . S
C2050 C2034 1.368 1_455 S
C2050 C2046 1.368 . S
C2050 C2049 1.523 . S
H2051 C2026 0.950 . S
H2052 C2028 0.950 . S
H2053 C2029 0.949 . S
H2054 C2031 0.950 . S
H2055 C2033 0.950 . S
C2056 C2057 1.349 . S
C2056 C2058 1.327 . S
C2056 H2081 0.950 . S
C2057 C2056 1.349 . S
C2057 C2073 1.349 . S
C2058 C2056 1.327 . S
C2058 C2077 1.429 . S
C2058 H2082 0.950 . S
C2059 C2076 1.574 . S
C2059 C2078 1.368 . S
C2059 H2083 0.949 . S
H2060 C2064 0.949 . S
C2061 C2062 1.349 . S
C2061 C2063 1.327 . S
C2061 H2084 0.950 . S
C2062 C2061 1.349 . S
C2062 C2074 1.349 . S
C2063 C2061 1.327 . S
C2063 C2079 1.429 . S
C2063 H2085 0.950 . S
C2064 H2060 0.949 . S
C2064 C2072 1.574 . S
C2064 C2080 1.368 . S
H2065 C2073 0.950 . S
H2066 C2071 0.950 . S
H2067 C2072 0.949 . S
H2068 C2074 0.950 . S
H2069 C2075 0.950 . S
H2070 C2076 0.949 . S
C2071 H2066 0.950 . S
C2071 C2073 1.327 . S
C2071 C2077 1.429 . S
C2072 C2064 1.574 . S
C2072 H2067 0.949 . S
C2072 C2078 1.368 . S
C2073 C2057 1.349 . S
C2073 H2065 0.950 . S
C2073 C2071 1.327 . S
C2074 C2062 1.349 . S
C2074 H2068 0.950 . S
C2074 C2075 1.327 . S
C2075 H2069 0.950 . S
C2075 C2074 1.327 . S
C2075 C2079 1.429 . S
C2076 C2059 1.574 . S
C2076 H2070 0.949 . S
C2076 C2080 1.368 . S
C2077 C2058 1.429 . S
C2077 C2071 1.429 . S
C2077 C2078 1.523 . S
C2078 C2059 1.368 . S
C2078 C2072 1.368 . S
C2078 C2077 1.523 . S
C2079 C2063 1.429 . S
C2079 C2075 1.429 . S
C2079 C2080 1.523 . S
C2080 C2064 1.368 . S
C2080 C2076 1.368 . S
C2080 C2079 1.523 . S
H2081 C2056 0.950 . S
H2082 C2058 0.950 . S
H2083 C2059 0.949 . S
H2084 C2061 0.950 . S
H2085 C2063 0.950 . S
C2086 C2087 1.349 . S
C2086 C2088 1.327 . S
C2086 H2111 0.950 . S
C2087 C2086 1.349 . S
C2087 C2103 1.349 . S
C2088 C2086 1.327 . S
C2088 C2107 1.429 . S
C2088 H2112 0.950 . S
C2089 C2106 1.574 1_455 S
C2089 C2108 1.368 . S
C2089 H2113 0.949 . S
H2090 C2094 0.949 . S
C2091 C2092 1.349 . S
C2091 C2093 1.327 . S
C2091 H2114 0.950 . S
C2092 C2091 1.349 . S
C2092 C2104 1.349 . S
C2093 C2091 1.327 . S
C2093 C2109 1.429 . S
C2093 H2115 0.950 . S
C2094 H2090 0.949 . S
C2094 C2102 1.574 . S
C2094 C2110 1.368 . S
H2095 C2103 0.950 . S
H2096 C2101 0.950 . S
H2097 C2102 0.953 . S
H2098 C2104 0.950 . S
H2099 C2105 0.950 . S
H2100 C2106 0.949 . S
C2101 H2096 0.950 . S
C2101 C2103 1.327 . S
C2101 C2107 1.429 . S
C2102 C2094 1.574 . S
C2102 H2097 0.953 . S
C2102 C2108 1.368 1_655 S
C2103 C2087 1.349 . S
C2103 H2095 0.950 . S
C2103 C2101 1.327 . S
C2104 C2092 1.349 . S
C2104 H2098 0.950 . S
C2104 C2105 1.327 . S
C2105 H2099 0.950 . S
C2105 C2104 1.327 . S
C2105 C2109 1.429 . S
C2106 C2089 1.574 1_655 S
C2106 H2100 0.949 . S
C2106 C2110 1.368 . S
C2107 C2088 1.429 . S
C2107 C2101 1.429 . S
C2107 C2108 1.523 . S
C2108 C2089 1.368 . S
C2108 C2102 1.368 1_455 S
C2108 C2107 1.523 . S
C2109 C2093 1.429 . S
C2109 C2105 1.429 . S
C2109 C2110 1.523 . S
C2110 C2094 1.368 . S
C2110 C2106 1.368 . S
C2110 C2109 1.523 . S
H2111 C2086 0.950 . S
H2112 C2088 0.950 . S
H2113 C2089 0.949 . S
H2114 C2091 0.950 . S
H2115 C2093 0.950 . S
C2116 C2117 1.349 . S
C2116 C2118 1.327 . S
C2116 H2141 0.950 . S
C2117 C2116 1.349 . S
C2117 C2133 1.349 . S
C2118 C2116 1.327 . S
C2118 C2137 1.429 . S
C2118 H2142 0.950 . S
C2119 C2136 1.574 . S
C2119 C2138 1.368 . S
C2119 H2143 0.949 . S
H2120 C2124 0.949 . S
C2121 C2122 1.349 . S
C2121 C2123 1.327 . S
C2121 H2144 0.950 . S
C2122 C2121 1.349 . S
C2122 C2134 1.349 . S
C2123 C2121 1.327 . S
C2123 C2139 1.429 . S
C2123 H2145 0.950 . S
C2124 H2120 0.949 . S
C2124 C2132 1.574 . S
C2124 C2140 1.368 . S
H2125 C2133 0.950 . S
H2126 C2131 0.950 . S
H2127 C2132 0.949 . S
H2128 C2134 0.950 . S
H2129 C2135 0.950 . S
H2130 C2136 0.949 . S
C2131 H2126 0.950 . S
C2131 C2133 1.327 . S
C2131 C2137 1.429 . S
C2132 C2124 1.574 . S
C2132 H2127 0.949 . S
C2132 C2138 1.368 . S
C2133 C2117 1.349 . S
C2133 H2125 0.950 . S
C2133 C2131 1.327 . S
C2134 C2122 1.349 . S
C2134 H2128 0.950 . S
C2134 C2135 1.327 . S
C2135 H2129 0.950 . S
C2135 C2134 1.327 . S
C2135 C2139 1.429 . S
C2136 C2119 1.574 . S
C2136 H2130 0.949 . S
C2136 C2140 1.368 . S
C2137 C2118 1.429 . S
C2137 C2131 1.429 . S
C2137 C2138 1.523 . S
C2138 C2119 1.368 . S
C2138 C2132 1.368 . S
C2138 C2137 1.523 . S
C2139 C2123 1.429 . S
C2139 C2135 1.429 . S
C2139 C2140 1.523 . S
C2140 C2124 1.368 . S
C2140 C2136 1.368 . S
C2140 C2139 1.523 . S
H2141 C2116 0.950 . S
H2142 C2118 0.950 . S
H2143 C2119 0.949 . S
H2144 C2121 0.950 . S
H2145 C2123 0.950 . S
C2146 C2147 1.349 . S
C2146 C2148 1.327 . S
C2146 H2171 0.950 . S
C2147 C2146 1.349 . S
C2147 C2163 1.349 . S
C2148 C2146 1.327 . S
C2148 C2167 1.429 . S
C2148 H2172 0.950 . S
C2149 C2166 1.574 . S
C2149 C2168 1.368 . S
C2149 H2173 0.949 . S
H2150 C2154 0.949 . S
C2151 C2152 1.349 . S
C2151 C2153 1.327 . S
C2151 H2174 0.950 . S
C2152 C2151 1.349 . S
C2152 C2164 1.349 . S
C2153 C2151 1.327 . S
C2153 C2169 1.429 . S
C2153 H2175 0.950 . S
C2154 H2150 0.949 . S
C2154 C2162 1.574 . S
C2154 C2170 1.368 . S
H2155 C2163 0.950 . S
H2156 C2161 0.950 . S
H2157 C2162 0.949 . S
H2158 C2164 0.950 . S
H2159 C2165 0.950 . S
H2160 C2166 0.949 . S
C2161 H2156 0.950 . S
C2161 C2163 1.327 . S
C2161 C2167 1.429 . S
C2162 C2154 1.574 . S
C2162 H2157 0.949 . S
C2162 C2168 1.368 . S
C2163 C2147 1.349 . S
C2163 H2155 0.950 . S
C2163 C2161 1.327 . S
C2164 C2152 1.349 . S
C2164 H2158 0.950 . S
C2164 C2165 1.327 . S
C2165 H2159 0.950 . S
C2165 C2164 1.327 . S
C2165 C2169 1.429 . S
C2166 C2149 1.574 . S
C2166 H2160 0.949 . S
C2166 C2170 1.368 . S
C2167 C2148 1.429 . S
C2167 C2161 1.429 . S
C2167 C2168 1.523 . S
C2168 C2149 1.368 . S
C2168 C2162 1.368 . S
C2168 C2167 1.523 . S
C2169 C2153 1.429 . S
C2169 C2165 1.429 . S
C2169 C2170 1.523 . S
C2170 C2154 1.368 . S
C2170 C2166 1.368 . S
C2170 C2169 1.523 . S
H2171 C2146 0.950 . S
H2172 C2148 0.950 . S
H2173 C2149 0.949 . S
H2174 C2151 0.950 . S
H2175 C2153 0.950 . S
C2176 C2177 1.349 . S
C2176 C2178 1.327 . S
C2176 H2201 0.950 . S
C2177 C2176 1.349 . S
C2177 C2193 1.349 . S
C2178 C2176 1.327 . S
C2178 C2197 1.429 . S
C2178 H2202 0.950 . S
C2179 C2196 1.574 . S
C2179 C2198 1.368 . S
C2179 H2203 0.949 . S
H2180 C2184 0.949 . S
C2181 C2182 1.349 . S
C2181 C2183 1.327 . S
C2181 H2204 0.950 . S
C2182 C2181 1.349 . S
C2182 C2194 1.349 . S
C2183 C2181 1.327 . S
C2183 C2199 1.429 . S
C2183 H2205 0.950 . S
C2184 H2180 0.949 . S
C2184 C2192 1.574 . S
C2184 C2200 1.368 . S
H2185 C2193 0.950 . S
H2186 C2191 0.950 . S
H2187 C2192 0.949 . S
H2188 C2194 0.950 . S
H2189 C2195 0.950 . S
H2190 C2196 0.949 . S
C2191 H2186 0.950 . S
C2191 C2193 1.327 . S
C2191 C2197 1.429 . S
C2192 C2184 1.574 . S
C2192 H2187 0.949 . S
C2192 C2198 1.368 . S
C2193 C2177 1.349 . S
C2193 H2185 0.950 . S
C2193 C2191 1.327 . S
C2194 C2182 1.349 . S
C2194 H2188 0.950 . S
C2194 C2195 1.327 . S
C2195 H2189 0.950 . S
C2195 C2194 1.327 . S
C2195 C2199 1.429 . S
C2196 C2179 1.574 . S
C2196 H2190 0.949 . S
C2196 C2200 1.368 . S
C2197 C2178 1.429 . S
C2197 C2191 1.429 . S
C2197 C2198 1.523 . S
C2198 C2179 1.368 . S
C2198 C2192 1.368 . S
C2198 C2197 1.523 . S
C2199 C2183 1.429 . S
C2199 C2195 1.429 . S
C2199 C2200 1.523 . S
C2200 C2184 1.368 . S
C2200 C2196 1.368 . S
C2200 C2199 1.523 . S
H2201 C2176 0.950 . S
H2202 C2178 0.950 . S
H2203 C2179 0.949 . S
H2204 C2181 0.950 . S
H2205 C2183 0.950 . S
C2206 C2207 1.349 . S
C2206 C2208 1.327 . S
C2206 H2231 0.950 . S
C2207 C2206 1.349 . S
C2207 C2223 1.349 . S
C2208 C2206 1.327 . S
C2208 C2227 1.429 . S
C2208 H2232 0.950 . S
C2209 C2226 1.574 . S
C2209 C2228 1.368 . S
C2209 H2233 0.949 . S
H2210 C2214 0.949 . S
C2211 C2212 1.349 . S
C2211 C2213 1.327 . S
C2211 H2234 0.950 . S
C2212 C2211 1.349 . S
C2212 C2224 1.349 . S
C2213 C2211 1.327 . S
C2213 C2229 1.429 . S
C2213 H2235 0.950 . S
C2214 H2210 0.949 . S
C2214 C2222 1.574 . S
C2214 C2230 1.368 . S
H2215 C2223 0.950 . S
H2216 C2221 0.950 . S
H2217 C2222 0.949 . S
H2218 C2224 0.950 . S
H2219 C2225 0.950 . S
H2220 C2226 0.949 . S
C2221 H2216 0.950 . S
C2221 C2223 1.327 . S
C2221 C2227 1.429 . S
C2222 C2214 1.574 . S
C2222 H2217 0.949 . S
C2222 C2228 1.368 . S
C2223 C2207 1.349 . S
C2223 H2215 0.950 . S
C2223 C2221 1.327 . S
C2224 C2212 1.349 . S
C2224 H2218 0.950 . S
C2224 C2225 1.327 . S
C2225 H2219 0.950 . S
C2225 C2224 1.327 . S
C2225 C2229 1.429 . S
C2226 C2209 1.574 . S
C2226 H2220 0.949 . S
C2226 C2230 1.368 . S
C2227 C2208 1.429 . S
C2227 C2221 1.429 . S
C2227 C2228 1.523 . S
C2228 C2209 1.368 . S
C2228 C2222 1.368 . S
C2228 C2227 1.523 . S
C2229 C2213 1.429 . S
C2229 C2225 1.429 . S
C2229 C2230 1.523 . S
C2230 C2214 1.368 . S
C2230 C2226 1.368 . S
C2230 C2229 1.523 . S
H2231 C2206 0.950 . S
H2232 C2208 0.950 . S
H2233 C2209 0.949 . S
H2234 C2211 0.950 . S
H2235 C2213 0.950 . S
C2236 C2237 1.349 . S
C2236 C2238 1.327 . S
C2236 H2261 0.950 . S
C2237 C2236 1.349 . S
C2237 C2253 1.349 . S
C2238 C2236 1.327 . S
C2238 C2257 1.429 . S
C2238 H2262 0.950 . S
C2239 C2256 1.574 . S
C2239 C2258 1.368 . S
C2239 H2263 0.949 . S
H2240 C2244 0.949 . S
C2241 C2242 1.349 . S
C2241 C2243 1.327 . S
C2241 H2264 0.950 . S
C2242 C2241 1.349 . S
C2242 C2254 1.349 . S
C2243 C2241 1.327 . S
C2243 C2259 1.429 . S
C2243 H2265 0.950 . S
C2244 H2240 0.949 . S
C2244 C2252 1.574 . S
C2244 C2260 1.368 . S
H2245 C2253 0.950 . S
H2246 C2251 0.950 . S
H2247 C2252 0.949 . S
H2248 C2254 0.950 . S
H2249 C2255 0.950 . S
H2250 C2256 0.949 . S
C2251 H2246 0.950 . S
C2251 C2253 1.327 . S
C2251 C2257 1.429 . S
C2252 C2244 1.574 . S
C2252 H2247 0.949 . S
C2252 C2258 1.368 . S
C2253 C2237 1.349 . S
C2253 H2245 0.950 . S
C2253 C2251 1.327 . S
C2254 C2242 1.349 . S
C2254 H2248 0.950 . S
C2254 C2255 1.327 . S
C2255 H2249 0.950 . S
C2255 C2254 1.327 . S
C2255 C2259 1.429 . S
C2256 C2239 1.574 . S
C2256 H2250 0.949 . S
C2256 C2260 1.368 . S
C2257 C2238 1.429 . S
C2257 C2251 1.429 . S
C2257 C2258 1.523 . S
C2258 C2239 1.368 . S
C2258 C2252 1.368 . S
C2258 C2257 1.523 . S
C2259 C2243 1.429 . S
C2259 C2255 1.429 . S
C2259 C2260 1.523 . S
C2260 C2244 1.368 . S
C2260 C2256 1.368 . S
C2260 C2259 1.523 . S
H2261 C2236 0.950 . S
H2262 C2238 0.950 . S
H2263 C2239 0.949 . S
H2264 C2241 0.950 . S
H2265 C2243 0.950 . S
C2266 C2267 1.349 . S
C2266 C2268 1.327 . S
C2266 H2291 0.948 . S
C2267 C2266 1.349 . S
C2267 C2283 1.349 . S
C2268 C2266 1.327 . S
C2268 C2287 1.429 . S
C2268 H2292 0.950 1_556 S
C2269 C2286 1.574 . S
C2269 C2288 1.368 . S
C2269 H2293 0.949 . S
H2270 C2274 0.949 . S
C2271 C2272 1.349 . S
C2271 C2273 1.327 . S
C2271 H2294 0.948 . S
C2272 C2271 1.349 . S
C2272 C2284 1.349 . S
C2273 C2271 1.327 . S
C2273 C2289 1.429 . S
C2273 H2295 0.950 1_554 S
C2274 H2270 0.949 . S
C2274 C2282 1.574 . S
C2274 C2290 1.368 . S
H2275 C2283 0.950 . S
H2276 C2281 0.950 . S
H2277 C2282 0.949 . S
H2278 C2284 0.950 . S
H2279 C2285 0.950 . S
H2280 C2286 0.949 . S
C2281 H2276 0.950 . S
C2281 C2283 1.327 . S
C2281 C2287 1.429 . S
C2282 C2274 1.574 . S
C2282 H2277 0.949 . S
C2282 C2288 1.368 1_554 S
C2283 C2267 1.349 . S
C2283 H2275 0.950 . S
C2283 C2281 1.327 . S
C2284 C2272 1.349 . S
C2284 H2278 0.950 . S
C2284 C2285 1.327 . S
C2285 H2279 0.950 . S
C2285 C2284 1.327 . S
C2285 C2289 1.429 . S
C2286 C2269 1.574 . S
C2286 H2280 0.949 . S
C2286 C2290 1.368 1_556 S
C2287 C2268 1.429 . S
C2287 C2281 1.429 . S
C2287 C2288 1.523 . S
C2288 C2269 1.368 . S
C2288 C2282 1.368 1_556 S
C2288 C2287 1.523 . S
C2289 C2273 1.429 . S
C2289 C2285 1.429 . S
C2289 C2290 1.523 . S
C2290 C2274 1.368 . S
C2290 C2286 1.368 1_554 S
C2290 C2289 1.523 . S
H2291 C2266 0.948 . S
H2292 C2268 0.950 1_554 S
H2293 C2269 0.949 . S
H2294 C2271 0.948 . S
H2295 C2273 0.950 1_556 S
C2296 C2297 1.349 . S
C2296 C2298 1.327 . S
C2296 H2321 0.950 . S
C2297 C2296 1.349 . S
C2297 C2313 1.349 . S
C2298 C2296 1.327 . S
C2298 C2317 1.429 . S
C2298 H2322 0.950 . S
C2299 C2316 1.574 . S
C2299 C2318 1.368 . S
C2299 H2323 0.949 . S
H2300 C2304 0.949 . S
C2301 C2302 1.349 . S
C2301 C2303 1.327 . S
C2301 H2324 0.950 . S
C2302 C2301 1.349 . S
C2302 C2314 1.349 . S
C2303 C2301 1.327 . S
C2303 C2319 1.429 . S
C2303 H2325 0.950 . S
C2304 H2300 0.949 . S
C2304 C2312 1.574 . S
C2304 C2320 1.368 . S
H2305 C2313 0.950 . S
H2306 C2311 0.950 . S
H2307 C2312 0.949 . S
H2308 C2314 0.950 . S
H2309 C2315 0.950 . S
H2310 C2316 0.949 . S
C2311 H2306 0.950 . S
C2311 C2313 1.327 . S
C2311 C2317 1.429 . S
C2312 C2304 1.574 . S
C2312 H2307 0.949 . S
C2312 C2318 1.368 . S
C2313 C2297 1.349 . S
C2313 H2305 0.950 . S
C2313 C2311 1.327 . S
C2314 C2302 1.349 . S
C2314 H2308 0.950 . S
C2314 C2315 1.327 . S
C2315 H2309 0.950 . S
C2315 C2314 1.327 . S
C2315 C2319 1.429 . S
C2316 C2299 1.574 . S
C2316 H2310 0.949 . S
C2316 C2320 1.368 . S
C2317 C2298 1.429 . S
C2317 C2311 1.429 . S
C2317 C2318 1.523 . S
C2318 C2299 1.368 . S
C2318 C2312 1.368 . S
C2318 C2317 1.523 . S
C2319 C2303 1.429 . S
C2319 C2315 1.429 . S
C2319 C2320 1.523 . S
C2320 C2304 1.368 . S
C2320 C2316 1.368 . S
C2320 C2319 1.523 . S
H2321 C2296 0.950 . S
H2322 C2298 0.950 . S
H2323 C2299 0.949 . S
H2324 C2301 0.950 . S
H2325 C2303 0.950 . S
C2326 C2327 1.349 . S
C2326 C2328 1.327 . S
C2326 H2351 0.950 . S
C2327 C2326 1.349 . S
C2327 C2343 1.349 . S
C2328 C2326 1.327 . S
C2328 C2347 1.429 . S
C2328 H2352 0.950 . S
C2329 C2346 1.574 . S
C2329 C2348 1.368 . S
C2329 H2353 0.949 . S
H2330 C2334 0.949 . S
C2331 C2332 1.349 . S
C2331 C2333 1.327 . S
C2331 H2354 0.950 . S
C2332 C2331 1.349 . S
C2332 C2344 1.349 . S
C2333 C2331 1.327 . S
C2333 C2349 1.429 . S
C2333 H2355 0.950 . S
C2334 H2330 0.949 . S
C2334 C2342 1.574 . S
C2334 C2350 1.368 . S
H2335 C2343 0.950 . S
H2336 C2341 0.950 . S
H2337 C2342 0.949 . S
H2338 C2344 0.950 . S
H2339 C2345 0.950 . S
H2340 C2346 0.949 . S
C2341 H2336 0.950 . S
C2341 C2343 1.327 . S
C2341 C2347 1.429 . S
C2342 C2334 1.574 . S
C2342 H2337 0.949 . S
C2342 C2348 1.368 . S
C2343 C2327 1.349 . S
C2343 H2335 0.950 . S
C2343 C2341 1.327 . S
C2344 C2332 1.349 . S
C2344 H2338 0.950 . S
C2344 C2345 1.327 . S
C2345 H2339 0.950 . S
C2345 C2344 1.327 . S
C2345 C2349 1.429 . S
C2346 C2329 1.574 . S
C2346 H2340 0.949 . S
C2346 C2350 1.368 . S
C2347 C2328 1.429 . S
C2347 C2341 1.429 . S
C2347 C2348 1.523 . S
C2348 C2329 1.368 . S
C2348 C2342 1.368 . S
C2348 C2347 1.523 . S
C2349 C2333 1.429 . S
C2349 C2345 1.429 . S
C2349 C2350 1.523 . S
C2350 C2334 1.368 . S
C2350 C2346 1.368 . S
C2350 C2349 1.523 . S
H2351 C2326 0.950 . S
H2352 C2328 0.950 . S
H2353 C2329 0.949 . S
H2354 C2331 0.950 . S
H2355 C2333 0.950 . S
C2356 C2357 1.349 . S
C2356 C2358 1.327 . S
C2356 H2381 0.950 . S
C2357 C2356 1.349 . S
C2357 C2373 1.349 . S
C2358 C2356 1.327 . S
C2358 C2377 1.429 . S
C2358 H2382 0.950 . S
C2359 C2376 1.574 . S
C2359 C2378 1.368 . S
C2359 H2383 0.949 . S
H2360 C2364 0.949 . S
C2361 C2362 1.349 . S
C2361 C2363 1.327 . S
C2361 H2384 0.950 . S
C2362 C2361 1.349 . S
C2362 C2374 1.349 . S
C2363 C2361 1.327 . S
C2363 C2379 1.429 . S
C2363 H2385 0.950 . S
C2364 H2360 0.949 . S
C2364 C2372 1.574 . S
C2364 C2380 1.368 . S
H2365 C2373 0.950 . S
H2366 C2371 0.950 . S
H2367 C2372 0.949 . S
H2368 C2374 0.950 . S
H2369 C2375 0.950 . S
H2370 C2376 0.949 . S
C2371 H2366 0.950 . S
C2371 C2373 1.327 . S
C2371 C2377 1.429 . S
C2372 C2364 1.574 . S
C2372 H2367 0.949 . S
C2372 C2378 1.368 . S
C2373 C2357 1.349 . S
C2373 H2365 0.950 . S
C2373 C2371 1.327 . S
C2374 C2362 1.349 . S
C2374 H2368 0.950 . S
C2374 C2375 1.327 . S
C2375 H2369 0.950 . S
C2375 C2374 1.327 . S
C2375 C2379 1.429 . S
C2376 C2359 1.574 . S
C2376 H2370 0.949 . S
C2376 C2380 1.368 . S
C2377 C2358 1.429 . S
C2377 C2371 1.429 . S
C2377 C2378 1.523 . S
C2378 C2359 1.368 . S
C2378 C2372 1.368 . S
C2378 C2377 1.523 . S
C2379 C2363 1.429 . S
C2379 C2375 1.429 . S
C2379 C2380 1.523 . S
C2380 C2364 1.368 . S
C2380 C2376 1.368 . S
C2380 C2379 1.523 . S
H2381 C2356 0.950 . S
H2382 C2358 0.950 . S
H2383 C2359 0.949 . S
H2384 C2361 0.950 . S
H2385 C2363 0.950 . S
C2386 C2387 1.349 . S
C2386 C2388 1.327 . S
C2386 H2411 0.950 . S
C2387 C2386 1.349 . S
C2387 C2403 1.349 1_554 S
C2388 C2386 1.327 . S
C2388 C2407 1.429 . S
C2388 H2412 0.950 . S
C2389 C2406 1.574 . S
C2389 C2408 1.368 1_556 S
C2389 H2413 0.949 . S
H2390 C2394 0.949 . S
C2391 C2392 1.349 . S
C2391 C2393 1.327 . S
C2391 H2414 0.950 . S
C2392 C2391 1.349 . S
C2392 C2404 1.349 1_556 S
C2393 C2391 1.327 . S
C2393 C2409 1.429 . S
C2393 H2415 0.950 . S
C2394 H2390 0.949 . S
C2394 C2402 1.574 . S
C2394 C2410 1.368 1_554 S
H2395 C2403 0.950 . S
H2396 C2401 0.950 . S
H2397 C2402 0.949 . S
H2398 C2404 0.950 . S
H2399 C2405 0.950 . S
H2400 C2406 0.949 . S
C2401 H2396 0.950 . S
C2401 C2403 1.327 . S
C2401 C2407 1.429 1_556 S
C2402 C2394 1.574 . S
C2402 H2397 0.949 . S
C2402 C2408 1.368 . S
C2403 C2387 1.349 1_556 S
C2403 H2395 0.950 . S
C2403 C2401 1.327 . S
C2404 C2392 1.349 1_554 S
C2404 H2398 0.950 . S
C2404 C2405 1.327 . S
C2405 H2399 0.950 . S
C2405 C2404 1.327 . S
C2405 C2409 1.429 1_554 S
C2406 C2389 1.574 . S
C2406 H2400 0.949 . S
C2406 C2410 1.368 . S
C2407 C2388 1.429 . S
C2407 C2401 1.429 1_554 S
C2407 C2408 1.523 . S
C2408 C2389 1.368 1_554 S
C2408 C2402 1.368 . S
C2408 C2407 1.523 . S
C2409 C2393 1.429 . S
C2409 C2405 1.429 1_556 S
C2409 C2410 1.523 . S
C2410 C2394 1.368 1_556 S
C2410 C2406 1.368 . S
C2410 C2409 1.523 . S
H2411 C2386 0.950 . S
H2412 C2388 0.950 . S
H2413 C2389 0.949 . S
H2414 C2391 0.950 . S
H2415 C2393 0.950 . S
C2416 C2417 1.349 . S
C2416 C2418 1.327 . S
C2416 H2441 0.950 . S
C2417 C2416 1.349 . S
C2417 C2433 1.349 . S
C2418 C2416 1.327 . S
C2418 C2437 1.429 . S
C2418 H2442 0.950 . S
C2419 C2436 1.574 1_565 S
C2419 C2438 1.368 . S
C2419 H2443 0.949 . S
H2420 C2424 0.949 . S
C2421 C2422 1.349 . S
C2421 C2423 1.327 . S
C2421 H2444 0.950 . S
C2422 C2421 1.349 . S
C2422 C2434 1.349 . S
C2423 C2421 1.327 . S
C2423 C2439 1.429 . S
C2423 H2445 0.950 . S
C2424 H2420 0.949 . S
C2424 C2432 1.574 1_545 S
C2424 C2440 1.368 . S
H2425 C2433 0.950 . S
H2426 C2431 0.950 . S
H2427 C2432 0.949 . S
H2428 C2434 0.950 . S
H2429 C2435 0.950 . S
H2430 C2436 0.949 . S
C2431 H2426 0.950 . S
C2431 C2433 1.327 . S
C2431 C2437 1.429 . S
C2432 C2424 1.574 1_565 S
C2432 H2427 0.949 . S
C2432 C2438 1.368 . S
C2433 C2417 1.349 . S
C2433 H2425 0.950 . S
C2433 C2431 1.327 . S
C2434 C2422 1.349 . S
C2434 H2428 0.950 . S
C2434 C2435 1.327 . S
C2435 H2429 0.950 . S
C2435 C2434 1.327 . S
C2435 C2439 1.429 . S
C2436 C2419 1.574 1_545 S
C2436 H2430 0.949 . S
C2436 C2440 1.368 . S
C2437 C2418 1.429 . S
C2437 C2431 1.429 . S
C2437 C2438 1.523 . S
C2438 C2419 1.368 . S
C2438 C2432 1.368 . S
C2438 C2437 1.523 . S
C2439 C2423 1.429 . S
C2439 C2435 1.429 . S
C2439 C2440 1.523 . S
C2440 C2424 1.368 . S
C2440 C2436 1.368 . S
C2440 C2439 1.523 . S
H2441 C2416 0.950 . S
H2442 C2418 0.950 . S
H2443 C2419 0.949 . S
H2444 C2421 0.950 . S
H2445 C2423 0.950 . S
C2446 C2447 1.349 . S
C2446 C2448 1.327 . S
C2446 H2471 0.948 . S
C2447 C2446 1.349 . S
C2447 C2463 1.349 . S
C2448 C2446 1.327 . S
C2448 C2467 1.429 . S
C2448 H2472 0.950 1_554 S
C2449 C2466 1.574 . S
C2449 C2468 1.368 . S
C2449 H2473 0.949 . S
H2450 C2454 0.949 . S
C2451 C2452 1.349 . S
C2451 C2453 1.327 . S
C2451 H2474 0.948 . S
C2452 C2451 1.349 . S
C2452 C2464 1.349 . S
C2453 C2451 1.327 . S
C2453 C2469 1.429 . S
C2453 H2475 0.950 1_556 S
C2454 H2450 0.949 . S
C2454 C2462 1.574 . S
C2454 C2470 1.368 . S
H2455 C2463 0.950 . S
H2456 C2461 0.950 . S
H2457 C2462 0.949 . S
H2458 C2464 0.950 . S
H2459 C2465 0.950 . S
H2460 C2466 0.949 . S
C2461 H2456 0.950 . S
C2461 C2463 1.327 . S
C2461 C2467 1.429 . S
C2462 C2454 1.574 . S
C2462 H2457 0.949 . S
C2462 C2468 1.368 1_556 S
C2463 C2447 1.349 . S
C2463 H2455 0.950 . S
C2463 C2461 1.327 . S
C2464 C2452 1.349 . S
C2464 H2458 0.950 . S
C2464 C2465 1.327 . S
C2465 H2459 0.950 . S
C2465 C2464 1.327 . S
C2465 C2469 1.429 . S
C2466 C2449 1.574 . S
C2466 H2460 0.949 . S
C2466 C2470 1.368 1_554 S
C2467 C2448 1.429 . S
C2467 C2461 1.429 . S
C2467 C2468 1.523 . S
C2468 C2449 1.368 . S
C2468 C2462 1.368 1_554 S
C2468 C2467 1.523 . S
C2469 C2453 1.429 . S
C2469 C2465 1.429 . S
C2469 C2470 1.523 . S
C2470 C2454 1.368 . S
C2470 C2466 1.368 1_556 S
C2470 C2469 1.523 . S
H2471 C2446 0.948 . S
H2472 C2448 0.950 1_556 S
H2473 C2449 0.949 . S
H2474 C2451 0.948 . S
H2475 C2453 0.950 1_554 S
C2476 C2477 1.349 . S
C2476 C2478 1.327 . S
C2476 H2501 0.950 . S
C2477 C2476 1.349 . S
C2477 C2493 1.349 . S
C2478 C2476 1.327 . S
C2478 C2497 1.429 . S
C2478 H2502 0.950 . S
C2479 C2496 1.574 1_545 S
C2479 C2498 1.368 . S
C2479 H2503 0.949 . S
H2480 C2484 0.949 . S
C2481 C2482 1.349 . S
C2481 C2483 1.327 . S
C2481 H2504 0.950 . S
C2482 C2481 1.349 . S
C2482 C2494 1.349 . S
C2483 C2481 1.327 . S
C2483 C2499 1.429 . S
C2483 H2505 0.950 . S
C2484 H2480 0.949 . S
C2484 C2492 1.574 1_565 S
C2484 C2500 1.368 . S
H2485 C2493 0.950 . S
H2486 C2491 0.950 . S
H2487 C2492 0.949 . S
H2488 C2494 0.950 . S
H2489 C2495 0.950 . S
H2490 C2496 0.949 . S
C2491 H2486 0.950 . S
C2491 C2493 1.327 . S
C2491 C2497 1.429 . S
C2492 C2484 1.574 1_545 S
C2492 H2487 0.949 . S
C2492 C2498 1.368 . S
C2493 C2477 1.349 . S
C2493 H2485 0.950 . S
C2493 C2491 1.327 . S
C2494 C2482 1.349 . S
C2494 H2488 0.950 . S
C2494 C2495 1.327 . S
C2495 H2489 0.950 . S
C2495 C2494 1.327 . S
C2495 C2499 1.429 . S
C2496 C2479 1.574 1_565 S
C2496 H2490 0.949 . S
C2496 C2500 1.368 . S
C2497 C2478 1.429 . S
C2497 C2491 1.429 . S
C2497 C2498 1.523 . S
C2498 C2479 1.368 . S
C2498 C2492 1.368 . S
C2498 C2497 1.523 . S
C2499 C2483 1.429 . S
C2499 C2495 1.429 . S
C2499 C2500 1.523 . S
C2500 C2484 1.368 . S
C2500 C2496 1.368 . S
C2500 C2499 1.523 . S
H2501 C2476 0.950 . S
H2502 C2478 0.950 . S
H2503 C2479 0.949 . S
H2504 C2481 0.950 . S
H2505 C2483 0.950 . S
C2506 C2507 1.349 . S
C2506 C2508 1.327 . S
C2506 H2531 0.950 . S
C2507 C2506 1.349 . S
C2507 C2523 1.349 . S
C2508 C2506 1.327 . S
C2508 C2527 1.429 . S
C2508 H2532 0.950 . S
C2509 C2526 1.574 . S
C2509 C2528 1.368 . S
C2509 H2533 0.949 . S
H2510 C2514 0.949 . S
C2511 C2512 1.349 . S
C2511 C2513 1.327 . S
C2511 H2534 0.950 . S
C2512 C2511 1.349 . S
C2512 C2524 1.349 . S
C2513 C2511 1.327 . S
C2513 C2529 1.429 . S
C2513 H2535 0.950 . S
C2514 H2510 0.949 . S
C2514 C2522 1.574 . S
C2514 C2530 1.368 . S
H2515 C2523 0.950 . S
H2516 C2521 0.950 . S
H2517 C2522 0.949 . S
H2518 C2524 0.950 . S
H2519 C2525 0.950 . S
H2520 C2526 0.949 . S
C2521 H2516 0.950 . S
C2521 C2523 1.327 . S
C2521 C2527 1.429 . S
C2522 C2514 1.574 . S
C2522 H2517 0.949 . S
C2522 C2528 1.368 . S
C2523 C2507 1.349 . S
C2523 H2515 0.950 . S
C2523 C2521 1.327 . S
C2524 C2512 1.349 . S
C2524 H2518 0.950 . S
C2524 C2525 1.327 . S
C2525 H2519 0.950 . S
C2525 C2524 1.327 . S
C2525 C2529 1.429 . S
C2526 C2509 1.574 . S
C2526 H2520 0.949 . S
C2526 C2530 1.368 . S
C2527 C2508 1.429 . S
C2527 C2521 1.429 . S
C2527 C2528 1.523 . S
C2528 C2509 1.368 . S
C2528 C2522 1.368 . S
C2528 C2527 1.523 . S
C2529 C2513 1.429 . S
C2529 C2525 1.429 . S
C2529 C2530 1.523 . S
C2530 C2514 1.368 . S
C2530 C2526 1.368 . S
C2530 C2529 1.523 . S
H2531 C2506 0.950 . S
H2532 C2508 0.950 . S
H2533 C2509 0.949 . S
H2534 C2511 0.950 . S
H2535 C2513 0.950 . S
C2536 C2537 1.349 . S
C2536 C2538 1.327 . S
C2536 H2561 0.950 . S
C2537 C2536 1.349 . S
C2537 C2553 1.349 . S
C2538 C2536 1.327 . S
C2538 C2557 1.429 . S
C2538 H2562 0.950 . S
C2539 C2556 1.574 1_545 S
C2539 C2558 1.368 . S
C2539 H2563 0.949 . S
H2540 C2544 0.949 . S
C2541 C2542 1.349 . S
C2541 C2543 1.327 . S
C2541 H2564 0.950 . S
C2542 C2541 1.349 . S
C2542 C2554 1.349 . S
C2543 C2541 1.327 . S
C2543 C2559 1.429 . S
C2543 H2565 0.950 . S
C2544 H2540 0.949 . S
C2544 C2552 1.574 1_565 S
C2544 C2560 1.368 . S
H2545 C2553 0.950 . S
H2546 C2551 0.950 . S
H2547 C2552 0.949 . S
H2548 C2554 0.950 . S
H2549 C2555 0.950 . S
H2550 C2556 0.949 . S
C2551 H2546 0.950 . S
C2551 C2553 1.327 . S
C2551 C2557 1.429 . S
C2552 C2544 1.574 1_545 S
C2552 H2547 0.949 . S
C2552 C2558 1.368 . S
C2553 C2537 1.349 . S
C2553 H2545 0.950 . S
C2553 C2551 1.327 . S
C2554 C2542 1.349 . S
C2554 H2548 0.950 . S
C2554 C2555 1.327 . S
C2555 H2549 0.950 . S
C2555 C2554 1.327 . S
C2555 C2559 1.429 . S
C2556 C2539 1.574 1_565 S
C2556 H2550 0.949 . S
C2556 C2560 1.368 . S
C2557 C2538 1.429 . S
C2557 C2551 1.429 . S
C2557 C2558 1.523 . S
C2558 C2539 1.368 . S
C2558 C2552 1.368 . S
C2558 C2557 1.523 . S
C2559 C2543 1.429 . S
C2559 C2555 1.429 . S
C2559 C2560 1.523 . S
C2560 C2544 1.368 . S
C2560 C2556 1.368 . S
C2560 C2559 1.523 . S
H2561 C2536 0.950 . S
H2562 C2538 0.950 . S
H2563 C2539 0.949 . S
H2564 C2541 0.950 . S
H2565 C2543 0.950 . S
C2566 C2567 1.349 1_556 S
C2566 C2568 1.327 . S
C2566 H2591 0.950 . S
C2567 C2566 1.349 1_554 S
C2567 C2583 1.349 . S
C2568 C2566 1.327 . S
C2568 C2587 1.429 1_556 S
C2568 H2592 0.950 . S
C2569 C2586 1.574 . S
C2569 C2588 1.368 . S
C2569 H2593 0.949 . S
H2570 C2574 0.949 . S
C2571 C2572 1.349 1_554 S
C2571 C2573 1.327 . S
C2571 H2594 0.950 . S
C2572 C2571 1.349 1_556 S
C2572 C2584 1.349 . S
C2573 C2571 1.327 . S
C2573 C2589 1.429 1_554 S
C2573 H2595 0.950 . S
C2574 H2570 0.949 . S
C2574 C2582 1.574 . S
C2574 C2590 1.368 . S
H2575 C2583 0.950 . S
H2576 C2581 0.950 . S
H2577 C2582 0.949 . S
H2578 C2584 0.950 . S
H2579 C2585 0.950 . S
H2580 C2586 0.949 . S
C2581 H2576 0.950 . S
C2581 C2583 1.327 . S
C2581 C2587 1.429 . S
C2582 C2574 1.574 . S
C2582 H2577 0.949 . S
C2582 C2588 1.368 1_556 S
C2583 C2567 1.349 . S
C2583 H2575 0.950 . S
C2583 C2581 1.327 . S
C2584 C2572 1.349 . S
C2584 H2578 0.950 . S
C2584 C2585 1.327 . S
C2585 H2579 0.950 . S
C2585 C2584 1.327 . S
C2585 C2589 1.429 . S
C2586 C2569 1.574 . S
C2586 H2580 0.949 . S
C2586 C2590 1.368 1_554 S
C2587 C2568 1.429 1_554 S
C2587 C2581 1.429 . S
C2587 C2588 1.523 . S
C2588 C2569 1.368 . S
C2588 C2582 1.368 1_554 S
C2588 C2587 1.523 . S
C2589 C2573 1.429 1_556 S
C2589 C2585 1.429 . S
C2589 C2590 1.523 . S
C2590 C2574 1.368 . S
C2590 C2586 1.368 1_556 S
C2590 C2589 1.523 . S
H2591 C2566 0.950 . S
H2592 C2568 0.950 . S
H2593 C2569 0.949 . S
H2594 C2571 0.950 . S
H2595 C2573 0.950 . S
C2596 C2597 1.349 . S
C2596 C2598 1.327 . S
C2596 H2621 0.950 . S
C2597 C2596 1.349 . S
C2597 C2613 1.349 . S
C2598 C2596 1.327 . S
C2598 C2617 1.429 . S
C2598 H2622 0.950 . S
C2599 C2616 1.574 1_545 S
C2599 C2618 1.368 . S
C2599 H2623 0.949 . S
H2600 C2604 0.949 . S
C2601 C2602 1.349 . S
C2601 C2603 1.327 . S
C2601 H2624 0.950 . S
C2602 C2601 1.349 . S
C2602 C2614 1.349 . S
C2603 C2601 1.327 . S
C2603 C2619 1.429 . S
C2603 H2625 0.950 . S
C2604 H2600 0.949 . S
C2604 C2612 1.574 1_565 S
C2604 C2620 1.368 . S
H2605 C2613 0.950 . S
H2606 C2611 0.950 . S
H2607 C2612 0.949 . S
H2608 C2614 0.950 . S
H2609 C2615 0.950 . S
H2610 C2616 0.949 . S
C2611 H2606 0.950 . S
C2611 C2613 1.327 . S
C2611 C2617 1.429 . S
C2612 C2604 1.574 1_545 S
C2612 H2607 0.949 . S
C2612 C2618 1.368 . S
C2613 C2597 1.349 . S
C2613 H2605 0.950 . S
C2613 C2611 1.327 . S
C2614 C2602 1.349 . S
C2614 H2608 0.950 . S
C2614 C2615 1.327 . S
C2615 H2609 0.950 . S
C2615 C2614 1.327 . S
C2615 C2619 1.429 . S
C2616 C2599 1.574 1_565 S
C2616 H2610 0.949 . S
C2616 C2620 1.368 . S
C2617 C2598 1.429 . S
C2617 C2611 1.429 . S
C2617 C2618 1.523 . S
C2618 C2599 1.368 . S
C2618 C2612 1.368 . S
C2618 C2617 1.523 . S
C2619 C2603 1.429 . S
C2619 C2615 1.429 . S
C2619 C2620 1.523 . S
C2620 C2604 1.368 . S
C2620 C2616 1.368 . S
C2620 C2619 1.523 . S
H2621 C2596 0.950 . S
H2622 C2598 0.950 . S
H2623 C2599 0.949 . S
H2624 C2601 0.950 . S
H2625 C2603 0.950 . S
C2626 C2627 1.349 . S
C2626 C2628 1.327 . S
C2626 H2651 0.950 . S
C2627 C2626 1.349 . S
C2627 C2643 1.349 . S
C2628 C2626 1.327 . S
C2628 C2647 1.429 . S
C2628 H2652 0.950 . S
C2629 C2646 1.574 . S
C2629 C2648 1.368 . S
C2629 H2653 0.949 . S
H2630 C2634 0.949 . S
C2631 C2632 1.349 . S
C2631 C2633 1.327 . S
C2631 H2654 0.950 . S
C2632 C2631 1.349 . S
C2632 C2644 1.349 . S
C2633 C2631 1.327 . S
C2633 C2649 1.429 . S
C2633 H2655 0.950 . S
C2634 H2630 0.949 . S
C2634 C2642 1.574 . S
C2634 C2650 1.368 . S
H2635 C2643 0.950 . S
H2636 C2641 0.950 . S
H2637 C2642 0.949 . S
H2638 C2644 0.950 . S
H2639 C2645 0.950 . S
H2640 C2646 0.949 . S
C2641 H2636 0.950 . S
C2641 C2643 1.327 . S
C2641 C2647 1.429 . S
C2642 C2634 1.574 . S
C2642 H2637 0.949 . S
C2642 C2648 1.368 . S
C2643 C2627 1.349 . S
C2643 H2635 0.950 . S
C2643 C2641 1.327 . S
C2644 C2632 1.349 . S
C2644 H2638 0.950 . S
C2644 C2645 1.327 . S
C2645 H2639 0.950 . S
C2645 C2644 1.327 . S
C2645 C2649 1.429 . S
C2646 C2629 1.574 . S
C2646 H2640 0.949 . S
C2646 C2650 1.368 . S
C2647 C2628 1.429 . S
C2647 C2641 1.429 . S
C2647 C2648 1.523 . S
C2648 C2629 1.368 . S
C2648 C2642 1.368 . S
C2648 C2647 1.523 . S
C2649 C2633 1.429 . S
C2649 C2645 1.429 . S
C2649 C2650 1.523 . S
C2650 C2634 1.368 . S
C2650 C2646 1.368 . S
C2650 C2649 1.523 . S
H2651 C2626 0.950 . S
H2652 C2628 0.950 . S
H2653 C2629 0.949 . S
H2654 C2631 0.950 . S
H2655 C2633 0.950 . S
C737 C7 2.237 . S
C742 N485 2.078 . S
C767 C513 2.237 . S
C772 N25 2.078 . S
C797 C53 2.237 . S
C802 N531 2.078 . S
C827 C467 2.237 . S
C832 N71 2.078 . S
C857 C99 2.237 . S
C862 N439 2.078 . S
C887 N117 2.078 . S
C892 C375 2.237 . S
C917 N393 2.078 . S
C922 C145 2.237 . S
C947 N163 2.078 . S
C952 C421 2.237 . S
C977 C191 2.517 . S
C982 C674 2.519 . S
C1007 C214 2.509 . S
C1012 C697 2.517 . S
C1037 C720 2.509 . S
C1042 C237 2.517 . S
C1067 C651 2.517 . S
C1072 C260 2.519 . S
C1097 C283 2.517 . S
C1102 C628 2.509 . S
C1127 C559 2.517 . S
C1132 C306 2.509 . S
C1157 C329 2.517 . S
C1162 C582 2.519 . S
C1187 C605 2.517 . S
C1192 C352 2.519 . S
C1217 N2 1.890 . S
C1222 C223 1.845 . S
C1247 C30 2.081 . S
C1252 C614 1.985 . S
C1277 C269 1.845 . S
C1282 N48 1.890 . S
C1307 C76 2.081 . S
C1312 C568 1.985 . S
C1337 N94 1.890 . S
C1342 C361 1.845 . S
C1367 C660 1.985 . S
C1372 C122 2.081 . S
C1397 C315 1.845 . S
C1402 N140 1.890 . S
C1427 C706 1.985 . S
C1432 C168 2.081 . S
C1457 N186 1.628 . S
C1462 N35 1.658 . S
C1487 C430 1.431 . S
C1492 N209 1.448 . S
C1517 N81 1.658 . S
C1522 N232 1.628 . S
C1547 N255 1.448 . S
C1552 C384 1.431 . S
C1577 N173 1.658 . S
C1582 N278 1.628 . S
C1607 C476 1.431 . S
C1612 N301 1.448 . S
C1637 N127 1.658 . S
C1642 N324 1.628 . S
C1667 N347 1.448 . S
C1672 C522 1.431 . S
C1697 C591 1.845 . S
C1702 N370 1.890 . S
C1727 C246 1.985 . S
C1732 C398 2.081 . S
C1757 C637 1.845 . S
C1762 N416 1.890 . S
C1787 C444 2.081 . S
C1792 C200 1.985 . S
C1817 C729 1.845 . S
C1822 N462 1.890 . S
C1847 C292 1.985 . S
C1852 C490 2.081 . S
C1877 C683 1.845 . S
C1882 N508 1.890 . S
C1907 C536 2.081 . S
C1912 C338 1.985 . S
C1937 N554 1.628 . S
C1942 N403 1.658 . S
C1967 C62 1.431 . S
C1972 N577 1.448 . S
C1997 N600 1.628 . S
C2002 N449 1.658 . S
C2027 N623 1.448 . S
C2032 C16 1.431 . S
C2057 N646 1.628 . S
C2062 N541 1.658 . S
C2087 C108 1.431 . S
C2092 N669 1.448 . S
C2117 N495 1.658 . S
C2122 N692 1.628 . S
C2147 N715 1.448 . S
C2152 C154 1.431 . S
C2177 N12 1.554 . S
C2182 N104 1.554 . S
C2207 C39 1.725 . S
C2212 C131 1.725 . S
C2237 N150 1.554 . S
C2242 N58 1.554 . S
C2267 C177 1.725 . S
C2272 C85 1.725 . S
C2297 N288 1.443 . S
C2302 N196 1.443 . S
C2327 N311 1.324 . S
C2332 N219 1.324 . S
C2357 N334 1.443 . S
C2362 N242 1.443 . S
C2387 N357 1.324 . S
C2392 N265 1.324 . S
C2417 N380 1.554 . S
C2422 N472 1.554 . S
C2447 C407 1.725 . S
C2452 C499 1.725 . S
C2477 N426 1.554 . S
C2482 N518 1.554 . S
C2507 C545 1.725 . S
C2512 C453 1.725 . S
C2537 N564 1.443 . S
C2542 N656 1.443 . S
C2567 N679 1.324 . S
C2572 N587 1.324 . S
C2597 N702 1.443 . S
C2602 N610 1.443 . S
C2627 N725 1.324 . S
C2632 N633 1.324 . S
