# Generated by pormake.
# Topology zfe, (5)-cn, num edge types: 1
# Building blocks:
#     Node 0, Type 0, BuildingBlock: XOMCOT_clean_sbu_0, # of connection points: 5
#     Node 1, Type 0, BuildingBlock: XOMCOT_clean_sbu_0, # of connection points: 5
#     Node 2, Type 0, BuildingBlock: XOMCOT_clean_sbu_0, # of connection points: 5
#     Node 3, Type 0, BuildingBlock: XOMCOT_clean_sbu_0, # of connection points: 5
#     Node 4, Type 0, BuildingBlock: XOMCOT_clean_sbu_0, # of connection points: 5
#     Node 5, Type 0, BuildingBlock: XOMCOT_clean_sbu_0, # of connection points: 5
#     Node 6, Type 0, BuildingBlock: XOMCOT_clean_sbu_0, # of connection points: 5
#     Node 7, Type 0, BuildingBlock: XOMCOT_clean_sbu_0, # of connection points: 5
#     Node 8, Type 0, BuildingBlock: XOMCOT_clean_sbu_0, # of connection points: 5
#     Node 9, Type 0, BuildingBlock: XOMCOT_clean_sbu_0, # of connection points: 5
#     Node 10, Type 0, BuildingBlock: XOMCOT_clean_sbu_0, # of connection points: 5
#     Node 11, Type 0, BuildingBlock: XOMCOT_clean_sbu_0, # of connection points: 5
#     Node 12, Type 0, BuildingBlock: XOMCOT_clean_sbu_0, # of connection points: 5
#     Node 13, Type 0, BuildingBlock: XOMCOT_clean_sbu_0, # of connection points: 5
#     Node 14, Type 0, BuildingBlock: XOMCOT_clean_sbu_0, # of connection points: 5
#     Node 15, Type 0, BuildingBlock: XOMCOT_clean_sbu_0, # of connection points: 5
#     Edge 16, Type (0, 0), BuildingBlock: UVAHIK_clean_linker_0, # of connection points: 2
#     Edge 17, Type (0, 0), BuildingBlock: UVAHIK_clean_linker_0, # of connection points: 2
#     Edge 18, Type (0, 0), BuildingBlock: UVAHIK_clean_linker_0, # of connection points: 2
#     Edge 19, Type (0, 0), BuildingBlock: UVAHIK_clean_linker_0, # of connection points: 2
#     Edge 20, Type (0, 0), BuildingBlock: UVAHIK_clean_linker_0, # of connection points: 2
#     Edge 21, Type (0, 0), BuildingBlock: UVAHIK_clean_linker_0, # of connection points: 2
#     Edge 22, Type (0, 0), BuildingBlock: UVAHIK_clean_linker_0, # of connection points: 2
#     Edge 23, Type (0, 0), BuildingBlock: UVAHIK_clean_linker_0, # of connection points: 2
#     Edge 24, Type (0, 0), BuildingBlock: UVAHIK_clean_linker_0, # of connection points: 2
#     Edge 25, Type (0, 0), BuildingBlock: UVAHIK_clean_linker_0, # of connection points: 2
#     Edge 26, Type (0, 0), BuildingBlock: UVAHIK_clean_linker_0, # of connection points: 2
#     Edge 27, Type (0, 0), BuildingBlock: UVAHIK_clean_linker_0, # of connection points: 2
#     Edge 28, Type (0, 0), BuildingBlock: UVAHIK_clean_linker_0, # of connection points: 2
#     Edge 29, Type (0, 0), BuildingBlock: UVAHIK_clean_linker_0, # of connection points: 2
#     Edge 30, Type (0, 0), BuildingBlock: UVAHIK_clean_linker_0, # of connection points: 2
#     Edge 31, Type (0, 0), BuildingBlock: UVAHIK_clean_linker_0, # of connection points: 2
#     Edge 32, Type (0, 0), BuildingBlock: UVAHIK_clean_linker_0, # of connection points: 2
#     Edge 33, Type (0, 0), BuildingBlock: UVAHIK_clean_linker_0, # of connection points: 2
#     Edge 34, Type (0, 0), BuildingBlock: UVAHIK_clean_linker_0, # of connection points: 2
#     Edge 35, Type (0, 0), BuildingBlock: UVAHIK_clean_linker_0, # of connection points: 2
#     Edge 36, Type (0, 0), BuildingBlock: UVAHIK_clean_linker_0, # of connection points: 2
#     Edge 37, Type (0, 0), BuildingBlock: UVAHIK_clean_linker_0, # of connection points: 2
#     Edge 38, Type (0, 0), BuildingBlock: UVAHIK_clean_linker_0, # of connection points: 2
#     Edge 39, Type (0, 0), BuildingBlock: UVAHIK_clean_linker_0, # of connection points: 2
#     Edge 40, Type (0, 0), BuildingBlock: UVAHIK_clean_linker_0, # of connection points: 2
#     Edge 41, Type (0, 0), BuildingBlock: UVAHIK_clean_linker_0, # of connection points: 2
#     Edge 42, Type (0, 0), BuildingBlock: UVAHIK_clean_linker_0, # of connection points: 2
#     Edge 43, Type (0, 0), BuildingBlock: UVAHIK_clean_linker_0, # of connection points: 2
#     Edge 44, Type (0, 0), BuildingBlock: UVAHIK_clean_linker_0, # of connection points: 2
#     Edge 45, Type (0, 0), BuildingBlock: UVAHIK_clean_linker_0, # of connection points: 2
#     Edge 46, Type (0, 0), BuildingBlock: UVAHIK_clean_linker_0, # of connection points: 2
#     Edge 47, Type (0, 0), BuildingBlock: UVAHIK_clean_linker_0, # of connection points: 2
#     Edge 48, Type (0, 0), BuildingBlock: UVAHIK_clean_linker_0, # of connection points: 2
#     Edge 49, Type (0, 0), BuildingBlock: UVAHIK_clean_linker_0, # of connection points: 2
#     Edge 50, Type (0, 0), BuildingBlock: UVAHIK_clean_linker_0, # of connection points: 2
#     Edge 51, Type (0, 0), BuildingBlock: UVAHIK_clean_linker_0, # of connection points: 2
#     Edge 52, Type (0, 0), BuildingBlock: UVAHIK_clean_linker_0, # of connection points: 2
#     Edge 53, Type (0, 0), BuildingBlock: UVAHIK_clean_linker_0, # of connection points: 2
#     Edge 54, Type (0, 0), BuildingBlock: UVAHIK_clean_linker_0, # of connection points: 2
#     Edge 55, Type (0, 0), BuildingBlock: UVAHIK_clean_linker_0, # of connection points: 2
# Relax obj value: 0.217
# Max RMSD: 0.183
# Mean RMSD: 0.183
data_MOF--net-zfe--node1-XOMCOT_clean_sbu_0--edge1-UVAHIK_clean_linker_0
_symmetry_space_group_name_H-M    P1
_symmetry_Int_Tables_number       1
_symmetry_cell_setting            triclinic
loop_
_symmetry_equiv_pos_as_xyz
'x, y, z'
_cell_length_a     68.734337
_cell_length_b     68.755069
_cell_length_c     35.535392
_cell_angle_alpha  89.949889
_cell_angle_beta   89.994334
_cell_angle_gamma 89.95633
loop_
_atom_site_label
_atom_site_type_symbol
_atom_site_fract_x
_atom_site_fract_y
_atom_site_fract_z
_atom_type_partial_charge
Co0 Co 0.04354 0.22734 0.06896 0.0
C1 C 0.07828 0.25466 0.06736 0.0
C2 C 0.05061 0.26889 0.07154 0.0
C3 C 0.0647 0.28285 0.06838 0.0
N4 N 0.05895 0.25113 0.07083 0.0
N5 N 0.08206 0.27393 0.06535 0.0
H6 H 0.08926 0.2437 0.06304 0.0
H7 H 0.03513 0.27161 0.07241 0.0
C8 C 0.04589 0.2409 0.98954 0.0
O9 O 0.06452 0.24308 0.99628 0.0
N10 N 0.02735 0.20451 0.06734 0.0
C11 C 0.03159 0.18643 0.07949 0.0
C12 C 0.01575 0.17464 0.07275 0.0
C13 C 0.00903 0.20364 0.05407 0.0
N14 N 0.00161 0.18554 0.05692 0.0
C15 C 0.08024 0.2079 0.07369 0.0
C16 C 0.07557 0.18536 0.00999 0.0
C17 C 0.0909 0.1811 0.03469 0.0
C18 C 0.09349 0.19299 0.06628 0.0
C19 C 0.06275 0.20056 0.01822 0.0
N20 N 0.06506 0.21162 0.04991 0.0
H21 H 0.08163 0.21588 0.09973 0.0
H22 H 0.05004 0.20228 1.00069 0.0
H23 H 0.04519 0.18214 0.09236 0.0
H24 H 0.00134 0.216 0.04244 0.0
O25 O 0.04811 0.22312 0.12194 0.0
O26 O 0.02357 0.24026 0.09946 0.0
O27 O 0.03472 0.23451 0.01575 0.0
C28 C 0.03281 0.23355 0.12882 0.0
H29 H 0.06228 0.2984 0.0671 0.0
H30 H 0.01455 0.15936 0.07973 0.0
H31 H 0.07293 0.17641 0.98546 0.0
H32 H 0.10484 0.18996 0.08659 0.0
Co33 Co 0.77219 0.04746 0.04684 0.0
C34 C 0.74543 0.08069 0.03275 0.0
C35 C 0.73529 0.05371 0.00937 0.0
C36 C 0.72221 0.06804 1.00031 0.0
N37 N 0.74984 0.06165 0.02945 0.0
N38 N 0.72861 0.08501 0.01482 0.0
H39 H 0.7545 0.09118 0.04712 0.0
H40 H 0.73437 0.03853 1.00164 0.0
C41 C 0.78935 0.0312 0.97539 0.0
O42 O 0.80699 0.03408 0.9885 0.0
N43 N 0.79421 0.03218 0.06406 0.0
C44 C 0.80831 0.03648 0.08919 0.0
C45 C 0.81966 0.02018 0.09476 0.0
C46 C 0.79683 0.01321 0.05589 0.0
N47 N 0.81246 0.00565 0.0735 0.0
C48 C 0.79671 0.08006 0.06273 0.0
C49 C 0.80626 0.08924 0.98933 0.0
C50 C 0.81593 0.09867 0.01879 0.0
C51 C 0.8104 0.09456 0.0558 0.0
C52 C 0.79221 0.07513 0.99761 0.0
N53 N 0.78886 0.0695 0.03398 0.0
H54 H 0.79282 0.07705 0.09153 0.0
H55 H 0.78428 0.0687 0.97461 0.0
H56 H 0.8101 0.05014 0.10356 0.0
H57 H 0.78724 0.005 0.03773 0.0
O58 O 0.76615 0.05437 0.09806 0.0
O59 O 0.75527 0.02804 0.06894 0.0
O60 O 0.77446 0.03584 0.99496 0.0
C61 C 0.75607 0.03842 0.09953 0.0
H62 H 0.70891 0.06605 0.9845 0.0
H63 H 0.83225 0.01912 0.11294 0.0
H64 H 0.80963 0.09263 0.96028 0.0
H65 H 0.81724 0.10187 0.07934 0.0
Co66 Co 0.94802 0.76981 0.03993 0.0
C67 C 0.91611 0.73961 0.03726 0.0
C68 C 0.9428 0.7308 0.01104 0.0
C69 C 0.93007 0.71547 0.00971 0.0
N70 N 0.93411 0.74602 0.02809 0.0
N71 N 0.91333 0.72101 0.02623 0.0
H72 H 0.90548 0.74775 0.05296 0.0
H73 H 0.95764 0.73076 1.00091 0.0
C74 C 0.94774 0.76766 0.95662 0.0
O75 O 0.92904 0.76385 0.95889 0.0
N76 N 0.96279 0.79287 0.05138 0.0
C77 C 0.9577 0.8077 0.074 0.0
C78 C 0.97277 0.82088 0.07476 0.0
C79 C 0.98083 0.79703 0.03899 0.0
N80 N 0.98735 0.81415 0.05277 0.0
C81 C 0.91075 0.78673 0.05466 0.0
C82 C 0.91371 0.81629 1.00225 0.0
C83 C 0.89876 0.81703 0.02898 0.0
C84 C 0.89703 0.80168 0.05467 0.0
C85 C 0.92718 0.80108 1.00328 0.0
N86 N 0.92566 0.78643 0.02924 0.0
H87 H 0.91027 0.77637 0.0774 0.0
H88 H 0.9398 0.80222 0.98539 0.0
H89 H 0.94402 0.80884 0.08889 0.0
H90 H 0.9891 0.78745 0.02091 0.0
O91 O 0.94344 0.76564 0.09273 0.0
O92 O 0.96886 0.75426 0.06114 0.0
O93 O 0.95756 0.771 0.98644 0.0
C94 C 0.95965 0.75592 0.09301 0.0
H95 H 0.93297 0.70126 0.99791 0.0
H96 H 0.97285 0.83444 0.09018 0.0
H97 H 0.91598 0.82818 0.98273 0.0
H98 H 0.88584 0.80182 0.07614 0.0
Co99 Co 0.22302 0.95236 0.05302 0.0
C100 C 0.24934 0.91812 0.04693 0.0
C101 C 0.25902 0.94266 0.01445 0.0
C102 C 0.27197 0.92769 0.00936 0.0
N103 N 0.2448 0.93663 0.03769 0.0
N104 N 0.26589 0.91225 0.02967 0.0
H105 H 0.24065 0.90911 0.0654 0.0
H106 H 0.25994 0.95704 1.00219 0.0
C107 C 0.207 0.96839 0.98001 0.0
O108 O 0.18919 0.96743 0.99333 0.0
N109 N 0.20149 0.96896 0.06824 0.0
C110 C 0.18547 0.96466 0.08856 0.0
C111 C 0.17402 0.98105 0.09117 0.0
C112 C 0.1999 0.98812 0.06025 0.0
N113 N 0.18307 0.99573 0.07318 0.0
C114 C 0.19826 0.92056 0.07274 0.0
C115 C 0.18425 0.91251 1.00166 0.0
C116 C 0.17471 0.90455 0.03301 0.0
C117 C 0.1828 0.90769 0.06863 0.0
C118 C 0.2 0.92517 0.00712 0.0
N119 N 0.20542 0.93061 0.04263 0.0
H120 H 0.20345 0.92341 0.10081 0.0
H121 H 0.20729 0.93089 0.98269 0.0
H122 H 0.18208 0.9508 0.10101 0.0
H123 H 0.21046 0.99609 0.04374 0.0
O124 O 0.22861 0.94678 0.10503 0.0
O125 O 0.24076 0.97169 0.07329 0.0
O126 O 0.22142 0.96263 0.99982 0.0
C127 C 0.23942 0.96223 0.10495 0.0
H128 H 0.28507 0.92825 0.99248 0.0
H129 H 0.16009 0.98207 0.10526 0.0
H130 H 0.17906 0.90981 0.97338 0.0
H131 H 0.17661 0.901 0.09351 0.0
Co132 Co 0.04633 0.77546 0.51486 0.0
C133 C 0.08088 0.74895 0.52839 0.0
C134 C 0.05307 0.73528 0.5353 0.0
C135 C 0.06721 0.72187 0.54327 0.0
N136 N 0.0615 0.75231 0.52596 0.0
N137 N 0.0847 0.73046 0.53917 0.0
H138 H 0.09201 0.75972 0.52396 0.0
H139 H 0.03755 0.73286 0.53699 0.0
C140 C 0.04454 0.77067 0.59767 0.0
O141 O 0.06347 0.76803 0.5968 0.0
N142 N 0.03042 0.7978 0.50398 0.0
C143 C 0.03494 0.81321 0.48231 0.0
C144 C 0.01914 0.82554 0.48137 0.0
C145 C 0.01204 0.80078 0.51569 0.0
N146 N 0.00475 0.81768 0.50236 0.0
C147 C 0.08286 0.79521 0.50677 0.0
C148 C 0.07599 0.82258 0.5621 0.0
C149 C 0.09204 0.82503 0.53832 0.0
C150 C 0.09572 0.81081 0.51097 0.0
C151 C 0.06352 0.80684 0.55693 0.0
N152 N 0.06705 0.79321 0.52975 0.0
H153 H 0.08506 0.78528 0.48362 0.0
H154 H 0.05022 0.8066 0.573 0.0
H155 H 0.04872 0.81531 0.4682 0.0
H156 H 0.00408 0.79054 0.53292 0.0
O157 O 0.05253 0.77306 0.46207 0.0
O158 O 0.02725 0.75929 0.49017 0.0
O159 O 0.03527 0.77439 0.56733 0.0
C160 C 0.03702 0.76233 0.45936 0.0
H161 H 0.06475 0.70691 0.55142 0.0
H162 H 0.01841 0.83929 0.46662 0.0
H163 H 0.07249 0.83329 0.5834 0.0
H164 H 0.10767 0.81239 0.49135 0.0
Co165 Co 0.23284 0.04844 0.52736 0.0
C166 C 0.26181 0.08065 0.52959 0.0
C167 C 0.27209 0.05466 0.55657 0.0
C168 C 0.2869 0.06803 0.55644 0.0
N169 N 0.25634 0.06251 0.53979 0.0
N170 N 0.28042 0.08432 0.53954 0.0
H171 H 0.25291 0.09057 0.51346 0.0
H172 H 0.2732 0.03992 0.56664 0.0
C173 C 0.23954 0.02234 0.59293 0.0
O174 O 0.25014 0.01124 0.57094 0.0
N175 N 0.20958 0.03402 0.51518 0.0
C176 C 0.19375 0.0403 0.49635 0.0
C177 C 0.18064 0.02519 0.49378 0.0
C178 C 0.20607 0.01518 0.52316 0.0
N179 N 0.18847 0.00943 0.51061 0.0
C180 C 0.21311 0.08464 0.51474 0.0
C181 C 0.1913 0.0843 0.57995 0.0
C182 C 0.18625 0.09739 0.55132 0.0
C183 C 0.19795 0.09802 0.51904 0.0
C184 C 0.20642 0.07105 0.5744 0.0
N185 N 0.21667 0.07073 0.5414 0.0
H186 H 0.22102 0.08467 0.48854 0.0
H187 H 0.20884 0.0605 0.59619 0.0
H188 H 0.19186 0.05473 0.48488 0.0
H189 H 0.21613 0.00586 0.53798 0.0
O190 O 0.23654 0.05424 0.47459 0.0
O191 O 0.24834 0.02831 0.5034 0.0
O192 O 0.23182 0.03787 0.58011 0.0
C193 C 0.24626 0.03811 0.47234 0.0
H194 H 0.30151 0.0658 0.56702 0.0
H195 H 0.16661 0.02569 0.48 0.0
H196 H 0.18305 0.08363 0.60588 0.0
H197 H 0.19464 0.10782 0.49604 0.0
Co198 Co 0.95422 0.22104 0.5596 0.0
C199 C 0.92617 0.25369 0.55695 0.0
C200 C 0.94143 0.25216 0.60965 0.0
C201 C 0.92889 0.26774 0.61082 0.0
N202 N 0.93993 0.24359 0.57573 0.0
N203 N 0.91931 0.26862 0.57778 0.0
H204 H 0.92136 0.25029 0.52871 0.0
H205 H 0.95072 0.24722 0.63222 0.0
C206 C 0.98362 0.22444 0.61169 0.0
O207 O 0.97374 0.20885 0.62127 0.0
N208 N 0.96877 0.19793 0.54412 0.0
C209 C 0.96246 0.17933 0.54418 0.0
C210 C 0.97798 0.1671 0.53813 0.0
C211 C 0.98818 0.19657 0.53802 0.0
N212 N 0.99419 0.17796 0.53466 0.0
C213 C 0.92242 0.20219 0.5205 0.0
C214 C 0.90694 0.18712 0.58637 0.0
C215 C 0.89984 0.18052 0.55167 0.0
C216 C 0.90715 0.18882 0.51846 0.0
C217 C 0.92209 0.20056 0.58715 0.0
N218 N 0.9301 0.20717 0.55457 0.0
H219 H 0.92889 0.20737 0.4947 0.0
H220 H 0.92841 0.20478 0.6138 0.0
H221 H 0.94786 0.17457 0.5504 0.0
H222 H 0.99805 0.20877 0.53897 0.0
O223 O 0.95439 0.23091 0.50724 0.0
O224 O 0.97732 0.23815 0.54448 0.0
O225 O 0.97896 0.23312 0.5807 0.0
C226 C 0.97035 0.2397 0.51092 0.0
H227 H 0.92664 0.27743 0.63443 0.0
H228 H 0.97744 0.15137 0.53805 0.0
H229 H 0.9015 0.18121 0.6126 0.0
H230 H 0.90212 0.18398 0.49115 0.0
Co231 Co 0.76936 0.95318 0.52138 0.0
C232 C 0.74263 0.91919 0.52503 0.0
C233 C 0.72982 0.94524 0.54723 0.0
C234 C 0.71605 0.9308 0.54786 0.0
N235 N 0.74649 0.93801 0.53293 0.0
N236 N 0.72414 0.91449 0.53395 0.0
H237 H 0.75265 0.90933 0.51147 0.0
H238 H 0.7275 0.96018 0.55531 0.0
C239 C 0.76115 0.97831 0.5874 0.0
O240 O 0.75001 0.98904 0.56572 0.0
N241 N 0.79197 0.96881 0.51024 0.0
C242 C 0.80951 0.96311 0.49716 0.0
C243 C 0.8215 0.97913 0.4952 0.0
C244 C 0.79341 0.98817 0.51525 0.0
N245 N 0.81127 0.9948 0.50644 0.0
C246 C 0.79063 0.91794 0.50822 0.0
C247 C 0.81128 0.91791 0.57487 0.0
C248 C 0.8169 0.9051 0.54622 0.0
C249 C 0.80583 0.90469 0.51312 0.0
C250 C 0.79605 0.93098 0.56882 0.0
N251 N 0.78634 0.93145 0.5352 0.0
H252 H 0.78315 0.91805 0.48156 0.0
H253 H 0.79306 0.94122 0.59085 0.0
H254 H 0.81349 0.94842 0.48975 0.0
H255 H 0.78177 0.9972 0.52589 0.0
O256 O 0.76613 0.94772 0.46836 0.0
O257 O 0.75306 0.97279 0.49792 0.0
O258 O 0.76966 0.9633 0.57429 0.0
C259 C 0.75563 0.96339 0.46662 0.0
H260 H 0.70113 0.93223 0.55723 0.0
H261 H 0.83654 0.97929 0.48614 0.0
H262 H 0.81915 0.91845 0.60125 0.0
H263 H 0.80965 0.89514 0.49006 0.0
Co264 Co 0.54701 0.72281 0.5594 0.0
C265 C 0.5804 0.75156 0.55507 0.0
C266 C 0.5522 0.76467 0.55957 0.0
C267 C 0.56569 0.77917 0.55555 0.0
N268 N 0.56128 0.74727 0.55926 0.0
N269 N 0.58339 0.77093 0.5524 0.0
H270 H 0.5918 0.741 0.55103 0.0
H271 H 0.53662 0.76673 0.56102 0.0
C272 C 0.54738 0.73553 0.47937 0.0
O273 O 0.56606 0.73834 0.4846 0.0
N274 N 0.53202 0.69919 0.55985 0.0
C275 C 0.53718 0.68197 0.57484 0.0
C276 C 0.52208 0.66911 0.56986 0.0
C277 C 0.5139 0.69674 0.5463 0.0
N278 N 0.50741 0.67842 0.552 0.0
C279 C 0.58444 0.70489 0.56281 0.0
C280 C 0.57919 0.68085 0.50138 0.0
C281 C 0.59475 0.6772 0.5259 0.0
C282 C 0.5977 0.68991 0.55613 0.0
C283 C 0.56635 0.69614 0.50885 0.0
N284 N 0.56886 0.70784 0.53961 0.0
H285 H 0.58602 0.71336 0.58821 0.0
H286 H 0.55339 0.6973 0.49184 0.0
H287 H 0.55094 0.67899 0.58844 0.0
H288 H 0.50553 0.7083 0.53343 0.0
O289 O 0.55267 0.71936 0.61215 0.0
O290 O 0.52697 0.7351 0.59074 0.0
O291 O 0.53695 0.72904 0.5066 0.0
C292 C 0.53695 0.72899 0.6197 0.0
H293 H 0.56263 0.7946 0.55411 0.0
H294 H 0.52201 0.65404 0.57862 0.0
H295 H 0.57629 0.67128 0.47786 0.0
H296 H 0.60927 0.68739 0.57626 0.0
Co297 Co 0.27079 0.54896 0.55537 0.0
C298 C 0.24485 0.58309 0.54963 0.0
C299 C 0.23318 0.55787 0.52188 0.0
C300 C 0.21964 0.57257 0.51995 0.0
N301 N 0.24887 0.56448 0.54059 0.0
N302 N 0.22706 0.58834 0.53727 0.0
H303 H 0.25429 0.59229 0.56625 0.0
H304 H 0.2315 0.54319 0.51148 0.0
C305 C 0.28657 0.53249 0.48327 0.0
O306 O 0.30428 0.53378 0.49693 0.0
N307 N 0.29247 0.53252 0.57035 0.0
C308 C 0.30965 0.53701 0.58667 0.0
C309 C 0.32061 0.52034 0.58989 0.0
C310 C 0.29303 0.51307 0.56525 0.0
N311 N 0.31011 0.50537 0.57641 0.0
C312 C 0.29592 0.58081 0.57278 0.0
C313 C 0.30777 0.58901 0.50024 0.0
C314 C 0.31814 0.59693 0.53052 0.0
C315 C 0.31119 0.59374 0.56701 0.0
C316 C 0.29236 0.5762 0.50741 0.0
N317 N 0.28807 0.57068 0.54347 0.0
H318 H 0.2916 0.57777 0.60136 0.0
H319 H 0.28446 0.57034 0.48383 0.0
H320 H 0.31433 0.5512 0.59551 0.0
H321 H 0.28155 0.50488 0.55175 0.0
O322 O 0.26569 0.55488 0.60744 0.0
O323 O 0.25334 0.52973 0.5767 0.0
O324 O 0.27199 0.53831 0.50254 0.0
C325 C 0.25495 0.53936 0.60805 0.0
H326 H 0.20532 0.57169 0.50735 0.0
H327 H 0.33526 0.5193 0.60091 0.0
H328 H 0.31217 0.59177 0.47146 0.0
H329 H 0.31823 0.6003 0.59113 0.0
Co330 Co 0.45476 0.28137 0.5033 0.0
C331 C 0.42625 0.24902 0.50245 0.0
C332 C 0.44067 0.25295 0.44931 0.0
C333 C 0.42781 0.23776 0.44601 0.0
N334 N 0.43988 0.25978 0.48474 0.0
N335 N 0.41876 0.23533 0.47936 0.0
H336 H 0.42195 0.25112 0.53147 0.0
H337 H 0.44969 0.25887 0.4272 0.0
C338 C 0.48478 0.27771 0.45179 0.0
O339 O 0.47633 0.2943 0.44341 0.0
N340 N 0.46994 0.30357 0.52086 0.0
C341 C 0.46459 0.32247 0.51934 0.0
C342 C 0.48057 0.33397 0.52605 0.0
C343 C 0.48923 0.30401 0.5286 0.0
N344 N 0.49608 0.32233 0.53151 0.0
C345 C 0.42374 0.30064 0.54383 0.0
C346 C 0.4077 0.31646 0.47913 0.0
C347 C 0.40071 0.32247 0.51432 0.0
C348 C 0.40841 0.3139 0.54691 0.0
C349 C 0.42289 0.30305 0.47729 0.0
N350 N 0.43107 0.29594 0.50932 0.0
H351 H 0.43041 0.29516 0.56921 0.0
H352 H 0.42897 0.29911 0.45027 0.0
H353 H 0.45043 0.32783 0.51129 0.0
H354 H 0.49854 0.29135 0.52873 0.0
O355 O 0.45424 0.27032 0.55481 0.0
O356 O 0.47716 0.26312 0.5176 0.0
O357 O 0.47918 0.26873 0.48187 0.0
C358 C 0.46995 0.26112 0.55089 0.0
H359 H 0.42496 0.22944 0.42075 0.0
H360 H 0.48094 0.3497 0.5249 0.0
H361 H 0.402 0.32265 0.45334 0.0
H362 H 0.40352 0.31833 0.57459 0.0
Co363 Co 0.73019 0.45242 0.55425 0.0
C364 C 0.76033 0.42159 0.54613 0.0
C365 C 0.76629 0.44717 0.51323 0.0
C366 C 0.78158 0.4345 0.50921 0.0
N367 N 0.75304 0.43913 0.53637 0.0
N368 N 0.77784 0.41848 0.52987 0.0
H369 H 0.7534 0.41174 0.56576 0.0
H370 H 0.76516 0.46155 0.50104 0.0
C371 C 0.70994 0.46641 0.48477 0.0
O372 O 0.6932 0.46274 0.50115 0.0
N373 N 0.70766 0.46698 0.57192 0.0
C374 C 0.69195 0.46157 0.59222 0.0
C375 C 0.6797 0.47735 0.59594 0.0
C376 C 0.70501 0.48611 0.56497 0.0
N377 N 0.68794 0.49272 0.57864 0.0
C378 C 0.70766 0.41882 0.57375 0.0
C379 C 0.6978 0.40802 0.50144 0.0
C380 C 0.68827 0.39912 0.53181 0.0
C381 C 0.69413 0.40398 0.56836 0.0
C382 C 0.71144 0.42269 0.50823 0.0
N383 N 0.71472 0.42921 0.544 0.0
H384 H 0.71154 0.42269 0.60219 0.0
H385 H 0.71891 0.42905 0.48455 0.0
H386 H 0.68918 0.44736 0.60371 0.0
H387 H 0.71501 0.49479 0.54849 0.0
O388 O 0.73737 0.44681 0.6055 0.0
O389 O 0.74646 0.47308 0.57394 0.0
O390 O 0.72597 0.46289 0.50172 0.0
C391 C 0.74659 0.46329 0.60535 0.0
H392 H 0.79462 0.43695 0.49276 0.0
H393 H 0.66578 0.47747 0.61017 0.0
H394 H 0.69442 0.404 0.47271 0.0
H395 H 0.6875 0.39723 0.59273 0.0
Co396 Co 0.54165 0.26838 0.99365 0.0
C397 C 0.57691 0.24191 0.99231 0.0
C398 C 0.54968 0.22683 0.98906 0.0
C399 C 0.56439 0.21335 0.98753 0.0
N400 N 0.55742 0.24483 0.99165 0.0
N401 N 0.58143 0.22287 0.98973 0.0
H402 H 0.58773 0.2531 0.99539 0.0
H403 H 0.53428 0.22364 0.98873 0.0
C404 C 0.5434 0.25402 0.07252 0.0
O405 O 0.56197 0.25128 0.06575 0.0
N406 N 0.52532 0.29113 0.99506 0.0
C407 C 0.52954 0.30896 0.98162 0.0
C408 C 0.51396 0.32103 0.98853 0.0
C409 C 0.50723 0.29243 0.0094 0.0
N410 N 0.49996 0.3106 0.00591 0.0
C411 C 0.57785 0.2887 0.99039 0.0
C412 C 0.57258 0.31012 0.05534 0.0
C413 C 0.58789 0.31501 0.03106 0.0
C414 C 0.59077 0.30371 0.9988 0.0
C415 C 0.5601 0.29479 0.04611 0.0
N416 N 0.56276 0.28423 0.01387 0.0
H417 H 0.57943 0.28132 0.96376 0.0
H418 H 0.54737 0.29262 0.06337 0.0
H419 H 0.543 0.31289 0.96781 0.0
H420 H 0.49963 0.28038 0.02238 0.0
O421 O 0.54672 0.27292 0.94102 0.0
O422 O 0.5221 0.25545 0.96204 0.0
O423 O 0.53244 0.26086 0.04639 0.0
C424 C 0.53164 0.2624 0.93323 0.0
H425 H 0.56272 0.19772 0.98587 0.0
H426 H 0.51287 0.33621 0.98072 0.0
H427 H 0.56966 0.31869 0.08027 0.0
H428 H 0.60207 0.3073 0.97872 0.0
Co429 Co 0.72111 0.54107 0.02618 0.0
C430 C 0.75077 0.57204 0.03673 0.0
C431 C 0.75642 0.54646 0.06982 0.0
C432 C 0.7712 0.55948 0.07573 0.0
N433 N 0.74363 0.55432 0.04552 0.0
N434 N 0.76775 0.57551 0.0548 0.0
H435 H 0.74404 0.58184 0.01674 0.0
H436 H 0.75528 0.53206 0.08189 0.0
C437 C 0.70255 0.52306 0.09441 0.0
O438 O 0.68527 0.52641 0.07997 0.0
N439 N 0.69889 0.52668 0.00694 0.0
C440 C 0.68289 0.53259 0.98805 0.0
C441 C 0.67086 0.5168 0.9826 0.0
C442 C 0.69665 0.50729 0.01121 0.0
N443 N 0.67952 0.50095 0.99739 0.0
C444 C 0.69744 0.57481 0.01366 0.0
C445 C 0.68817 0.58194 0.08799 0.0
C446 C 0.67842 0.59233 0.05973 0.0
C447 C 0.68389 0.58924 0.02224 0.0
C448 C 0.70186 0.56779 0.07806 0.0
N449 N 0.70497 0.56314 0.04113 0.0
H450 H 0.70113 0.57243 0.98452 0.0
H451 H 0.70967 0.56047 0.10025 0.0
H452 H 0.67976 0.54716 0.97881 0.0
H453 H 0.70695 0.4982 0.02613 0.0
O454 O 0.72756 0.54931 0.97588 0.0
O455 O 0.73792 0.52202 1.00244 0.0
O456 O 0.71796 0.52807 0.07677 0.0
C457 C 0.73752 0.53332 0.97301 0.0
H458 H 0.78361 0.55724 0.09398 0.0
H459 H 0.65675 0.51701 0.96907 0.0
H460 H 0.68505 0.58456 0.11743 0.0
H461 H 0.67706 0.59721 0.99949 0.0
Co462 Co 0.45121 0.72596 0.05228 0.0
C463 C 0.41744 0.75335 0.04885 0.0
C464 C 0.44352 0.76651 0.02772 0.0
C465 C 0.42861 0.77963 0.02415 0.0
N466 N 0.43657 0.74982 0.04269 0.0
N467 N 0.41224 0.77137 0.03735 0.0
H468 H 0.40738 0.74297 0.06081 0.0
H469 H 0.45842 0.76931 0.01988 0.0
C470 C 0.46879 0.74843 0.10689 0.0
O471 O 0.4504 0.7475 0.11687 0.0
N472 N 0.46603 0.7021 0.06157 0.0
C473 C 0.45969 0.68348 0.06272 0.0
C474 C 0.4753 0.67126 0.06831 0.0
C475 C 0.48554 0.70069 0.06606 0.0
N476 N 0.49153 0.68213 0.07024 0.0
C477 C 0.42093 0.7046 0.01312 0.0
C478 C 0.40434 0.69129 0.07941 0.0
C479 C 0.39841 0.68317 0.0451 0.0
C480 C 0.4062 0.6906 0.01155 0.0
C481 C 0.41893 0.70537 0.0797 0.0
N482 N 0.42765 0.71099 0.04705 0.0
H483 H 0.42749 0.70945 0.98718 0.0
H484 H 0.42436 0.71081 0.10624 0.0
H485 H 0.44492 0.67866 0.0587 0.0
H486 H 0.49537 0.7129 0.0658 0.0
O487 O 0.45841 0.72467 0.99833 0.0
O488 O 0.4765 0.73963 0.03692 0.0
O489 O 0.47351 0.74173 0.07418 0.0
C490 C 0.47384 0.7343 1.00251 0.0
H491 H 0.42973 0.79426 0.01303 0.0
H492 H 0.4748 0.65553 0.06942 0.0
H493 H 0.39847 0.68608 0.10585 0.0
H494 H 0.40193 0.68471 0.98453 0.0
Co495 Co 0.27077 0.45307 0.02935 0.0
C496 C 0.24375 0.41903 0.03376 0.0
C497 C 0.23107 0.44546 0.0544 0.0
C498 C 0.21716 0.43117 0.05547 0.0
N499 N 0.24777 0.43793 0.04079 0.0
N500 N 0.22517 0.41461 0.04256 0.0
H501 H 0.25367 0.40885 0.02095 0.0
H502 H 0.22883 0.46052 0.06173 0.0
C503 C 0.26219 0.4784 0.09479 0.0
O504 O 0.2516 0.48922 0.07226 0.0
N505 N 0.29341 0.46871 0.01834 0.0
C506 C 0.31091 0.46291 0.00527 0.0
C507 C 0.32293 0.4789 1.00285 0.0
C508 C 0.29488 0.48811 0.02285 0.0
N509 N 0.31274 0.49467 0.01377 0.0
C510 C 0.29105 0.41706 0.01793 0.0
C511 C 0.31349 0.4186 0.08232 0.0
C512 C 0.31742 0.40419 0.05556 0.0
C513 C 0.30562 0.40319 0.0235 0.0
C514 C 0.29873 0.43214 0.07579 0.0
N515 N 0.28781 0.4315 0.04362 0.0
H516 H 0.283 0.41667 0.99188 0.0
H517 H 0.29712 0.44369 0.09588 0.0
H518 H 0.31479 0.44814 0.99812 0.0
H519 H 0.28323 0.49724 0.03315 0.0
O520 O 0.26782 0.44743 0.97632 0.0
O521 O 0.25453 0.47253 0.00541 0.0
O522 O 0.27072 0.46324 0.08231 0.0
C523 C 0.25724 0.46304 0.97426 0.0
H524 H 0.20221 0.43286 0.06449 0.0
H525 H 0.33792 0.47898 0.99355 0.0
H526 H 0.32224 0.41987 0.10755 0.0
H527 H 0.30835 0.39251 1.00175 0.0
C528 C 0.11799 0.27573 0.06999 0.0
C529 C 0.10027 0.2832 0.05652 0.0
C530 C 0.13547 0.2856 0.06292 0.0
C531 C 0.15682 0.32441 1.00252 0.0
H532 H 0.18892 0.33595 0.08939 0.0
C533 C 0.19621 0.39634 0.02314 0.0
C534 C 0.21529 0.39645 0.03706 0.0
C535 C 0.18596 0.37894 0.02001 0.0
C536 C 0.18037 0.33252 0.06466 0.0
H537 H 0.08708 0.30616 0.02335 0.0
H538 H 0.11717 0.32342 0.01164 0.0
H539 H 0.16362 0.3111 0.09409 0.0
H540 H 0.23885 0.3786 0.05805 0.0
H541 H 0.22056 0.34789 0.05364 0.0
H542 H 0.17271 0.34675 0.97394 0.0
C543 C 0.11778 0.30997 0.02749 0.0
C544 C 0.1659 0.31828 0.06731 0.0
C545 C 0.10043 0.30023 0.03473 0.0
C546 C 0.22416 0.37878 0.0471 0.0
C547 C 0.21372 0.36132 0.0447 0.0
C548 C 0.17113 0.33872 1.0 0.0
C549 C 0.13549 0.30293 0.04181 0.0
C550 C 0.15343 0.31467 0.03672 0.0
C551 C 0.19448 0.36131 0.03131 0.0
C552 C 0.18252 0.34342 0.03147 0.0
H553 H 0.11824 0.26261 0.08684 0.0
H554 H 0.1489 0.27979 0.07421 0.0
H555 H 0.14774 0.32164 0.97819 0.0
H556 H 0.18917 0.40979 0.01496 0.0
H557 H 0.17107 0.37939 0.01001 0.0
C558 C 0.72094 0.11791 0.0392 0.0
C559 C 0.71923 0.10365 0.01107 0.0
C560 C 0.71034 0.13528 0.03668 0.0
C561 C 0.68065 0.165 0.96986 0.0
H562 H 0.65171 0.17958 0.05918 0.0
C563 C 0.60457 0.19839 0.96671 0.0
C564 C 0.60042 0.21417 0.99037 0.0
C565 C 0.62253 0.18902 0.96871 0.0
C566 C 0.65998 0.17594 0.03419 0.0
H567 H 0.70606 0.09697 0.95719 0.0
H568 H 0.68732 0.1267 0.95324 0.0
H569 H 0.67769 0.15545 0.06393 0.0
H570 H 0.61168 0.23271 0.03446 0.0
H571 H 0.64318 0.21584 0.03881 0.0
H572 H 0.66197 0.18454 0.93979 0.0
C573 C 0.69689 0.12473 0.97714 0.0
C574 C 0.6749 0.16216 0.03688 0.0
C575 C 0.70742 0.10748 0.97968 0.0
C576 C 0.61467 0.22065 0.01576 0.0
C577 C 0.63257 0.21099 0.01834 0.0
C578 C 0.6656 0.17856 0.96713 0.0
C579 C 0.69795 0.13874 0.00583 0.0
C580 C 0.68492 0.15601 1.00447 0.0
C581 C 0.63658 0.19504 0.99491 0.0
C582 C 0.65473 0.18367 0.99904 0.0
H583 H 0.72991 0.11535 0.06374 0.0
H584 H 0.7116 0.14585 0.05912 0.0
H585 H 0.6884 0.16096 0.94451 0.0
H586 H 0.5938 0.19323 0.94683 0.0
H587 H 0.62518 0.17662 0.95063 0.0
C588 C 0.77282 0.61083 0.04394 0.0
C589 C 0.78032 0.59221 0.05171 0.0
C590 C 0.78516 0.62707 0.04329 0.0
C591 C 0.83312 0.64296 0.07894 0.0
H592 H 0.83175 0.68131 0.99891 0.0
C593 C 0.89914 0.68899 0.04039 0.0
C594 C 0.89663 0.70888 0.03293 0.0
C595 C 0.88311 0.67693 0.04578 0.0
C596 C 0.83207 0.67089 0.02179 0.0
H597 H 0.80678 0.57594 0.06255 0.0
H598 H 0.82809 0.60398 0.06144 0.0
H599 H 0.80674 0.65593 1.00159 0.0
H600 H 0.87538 0.73182 0.02536 0.0
H601 H 0.84703 0.7105 0.03442 0.0
H602 H 0.85874 0.6574 0.09843 0.0
C603 C 0.81266 0.60622 0.05695 0.0
C604 C 0.81778 0.65638 0.02332 0.0
C605 C 0.80042 0.59011 0.05757 0.0
C606 C 0.87768 0.71654 0.03128 0.0
C607 C 0.86152 0.70436 0.0362 0.0
C608 C 0.84736 0.65734 0.07733 0.0
C609 C 0.80518 0.62493 0.05045 0.0
C610 C 0.81853 0.64191 0.05129 0.0
C611 C 0.86413 0.68443 0.04356 0.0
C612 C 0.84733 0.67112 0.04815 0.0
H613 H 0.75738 0.61289 0.0394 0.0
H614 H 0.77899 0.64132 0.03813 0.0
H615 H 0.83381 0.63231 0.1014 0.0
H616 H 0.91357 0.68274 0.04223 0.0
H617 H 0.88557 0.6616 0.05101 0.0
C618 C 0.275 0.88254 0.06526 0.0
C619 C 0.27551 0.89365 0.03204 0.0
C620 C 0.28591 0.86535 0.06822 0.0
C621 C 0.31307 0.82902 0.01064 0.0
H622 H 0.34571 0.82359 0.09902 0.0
C623 C 0.38747 0.7921 0.00765 0.0
C624 C 0.39326 0.7802 0.03775 0.0
C625 C 0.36985 0.80212 0.0089 0.0
C626 C 0.33642 0.82465 0.07449 0.0
H627 H 0.28698 0.89488 0.97528 0.0
H628 H 0.30608 0.86533 0.98048 0.0
H629 H 0.32023 0.8484 0.09785 0.0
H630 H 0.38504 0.76908 0.09245 0.0
H631 H 0.35407 0.78706 0.09509 0.0
H632 H 0.32992 0.80597 0.98656 0.0
C633 C 0.29726 0.86969 1.00429 0.0
C634 C 0.3218 0.83886 0.0738 0.0
C635 C 0.28649 0.88682 1.00144 0.0
C636 C 0.38081 0.7781 0.06884 0.0
C637 C 0.36322 0.78845 0.07041 0.0
C638 C 0.32772 0.81494 0.01125 0.0
C639 C 0.29735 0.85886 0.03785 0.0
C640 C 0.3104 0.84165 0.04134 0.0
C641 C 0.35767 0.80069 0.04052 0.0
C642 C 0.33996 0.81303 0.04269 0.0
H643 H 0.26673 0.88748 0.08934 0.0
H644 H 0.28557 0.85727 0.09439 0.0
H645 H 0.30426 0.83048 0.98552 0.0
H646 H 0.39675 0.79382 0.98326 0.0
H647 H 0.36611 0.8116 0.98562 0.0
C648 C 0.12008 0.72771 0.52649 0.0
C649 C 0.10335 0.72151 0.54583 0.0
C650 C 0.13771 0.7177 0.53073 0.0
C651 C 0.16194 0.67931 0.58921 0.0
H652 H 0.18843 0.66655 0.49607 0.0
C653 C 0.19782 0.6063 0.55618 0.0
C654 C 0.21719 0.60639 0.54381 0.0
C655 C 0.18779 0.62373 0.56112 0.0
C656 C 0.18142 0.67031 0.5224 0.0
H657 H 0.09239 0.70078 0.58669 0.0
H658 H 0.12254 0.68302 0.59289 0.0
H659 H 0.16346 0.69184 0.49628 0.0
H660 H 0.24142 0.62447 0.52703 0.0
H661 H 0.22342 0.65532 0.53417 0.0
H662 H 0.17883 0.65653 0.61439 0.0
C663 C 0.12234 0.6957 0.57481 0.0
C664 C 0.16716 0.68483 0.52263 0.0
C665 C 0.10485 0.7057 0.57072 0.0
C666 C 0.22649 0.6242 0.53676 0.0
C667 C 0.21626 0.6417 0.54076 0.0
C668 C 0.17592 0.66458 0.58878 0.0
C669 C 0.13894 0.70133 0.55443 0.0
C670 C 0.15672 0.68898 0.55576 0.0
C671 C 0.19683 0.64153 0.55296 0.0
C672 C 0.1853 0.65958 0.55513 0.0
H673 H 0.11939 0.73984 0.5071 0.0
H674 H 0.15026 0.72257 0.5149 0.0
H675 H 0.15459 0.68248 0.61545 0.0
H676 H 0.19047 0.5927 0.56196 0.0
H677 H 0.17275 0.62329 0.57023 0.0
C678 C 0.40492 0.20265 0.47119 0.0
C679 C 0.40394 0.22119 0.48752 0.0
C680 C 0.39004 0.18919 0.47679 0.0
C681 C 0.34713 0.17789 0.53672 0.0
H682 H 0.33539 0.14318 0.45376 0.0
C683 C 0.28472 0.11997 0.53695 0.0
C684 C 0.29193 0.10113 0.53069 0.0
C685 C 0.29666 0.1362 0.53084 0.0
C686 C 0.33847 0.15285 0.47707 0.0
H687 H 0.38679 0.24017 0.52297 0.0
H688 H 0.36032 0.21679 0.53212 0.0
H689 H 0.35952 0.16873 0.44542 0.0
H690 H 0.31674 0.08438 0.5119 0.0
H691 H 0.33738 0.11266 0.50006 0.0
H692 H 0.32571 0.16189 0.56803 0.0
C693 C 0.37281 0.21249 0.51551 0.0
C694 C 0.35243 0.16739 0.4725 0.0
C695 C 0.38792 0.2259 0.5103 0.0
C696 C 0.31096 0.09877 0.51713 0.0
C697 C 0.32268 0.11492 0.51022 0.0
C698 C 0.3329 0.16349 0.54107 0.0
C699 C 0.37357 0.19403 0.49838 0.0
C700 C 0.35736 0.17977 0.50256 0.0
C701 C 0.31575 0.13375 0.51741 0.0
C702 C 0.3288 0.15058 0.51153 0.0
H703 H 0.41729 0.19855 0.45407 0.0
H704 H 0.39151 0.17495 0.46414 0.0
H705 H 0.35059 0.18704 0.56057 0.0
H706 H 0.27011 0.12204 0.5476 0.0
H707 H 0.29102 0.15062 0.53649 0.0
C708 C 0.78386 0.38309 0.53496 0.0
C709 C 0.79082 0.40228 0.53501 0.0
C710 C 0.79691 0.36741 0.53672 0.0
C711 C 0.84971 0.35625 0.5228 0.0
H712 H 0.83756 0.30882 0.57696 0.0
C713 C 0.90715 0.30225 0.57738 0.0
C714 C 0.90468 0.28263 0.56768 0.0
C715 C 0.89263 0.31584 0.56946 0.0
C716 C 0.841 0.32192 0.56138 0.0
H717 H 0.81655 0.42023 0.5391 0.0
H718 H 0.83917 0.3932 0.54388 0.0
H719 H 0.81313 0.33462 0.57245 0.0
H720 H 0.88521 0.26171 0.54226 0.0
H721 H 0.8593 0.28558 0.5293 0.0
H722 H 0.87793 0.34387 0.51354 0.0
C723 C 0.82383 0.38999 0.54072 0.0
C724 C 0.82702 0.3367 0.55868 0.0
C725 C 0.81088 0.40555 0.53831 0.0
C726 C 0.88744 0.27681 0.5497 0.0
C727 C 0.87265 0.29038 0.54255 0.0
C728 C 0.86373 0.34166 0.52612 0.0
C729 C 0.81712 0.37068 0.53914 0.0
C730 C 0.83132 0.35423 0.5399 0.0
C731 C 0.87517 0.31 0.55241 0.0
C732 C 0.8596 0.32449 0.54584 0.0
H733 H 0.76843 0.38026 0.53222 0.0
H734 H 0.79116 0.35278 0.53519 0.0
H735 H 0.85341 0.36923 0.50709 0.0
H736 H 0.92036 0.30704 0.59112 0.0
H737 H 0.89486 0.33088 0.57747 0.0
C738 C 0.61926 0.7737 0.55661 0.0
C739 C 0.60128 0.78085 0.54377 0.0
C740 C 0.63643 0.78409 0.54967 0.0
C741 C 0.6565 0.82416 0.49078 0.0
H742 H 0.68915 0.83485 0.57729 0.0
C743 C 0.69523 0.89622 0.51428 0.0
C744 C 0.71441 0.89632 0.5277 0.0
C745 C 0.68515 0.87877 0.51042 0.0
C746 C 0.68045 0.83167 0.55264 0.0
H747 H 0.58733 0.80388 0.51193 0.0
H748 H 0.61692 0.82207 0.50057 0.0
H749 H 0.66424 0.8096 0.58136 0.0
H750 H 0.73832 0.87843 0.547 0.0
H751 H 0.72034 0.8476 0.5413 0.0
H752 H 0.67186 0.84713 0.46298 0.0
C753 C 0.61794 0.80844 0.51575 0.0
C754 C 0.66619 0.8172 0.55492 0.0
C755 C 0.60089 0.79817 0.52281 0.0
C756 C 0.72354 0.8786 0.53646 0.0
C757 C 0.71328 0.86108 0.53333 0.0
C758 C 0.6706 0.8387 0.48863 0.0
C759 C 0.6359 0.80167 0.52939 0.0
C760 C 0.65354 0.81386 0.5245 0.0
C761 C 0.69395 0.86107 0.52046 0.0
C762 C 0.68219 0.84307 0.52 0.0
H763 H 0.61996 0.7604 0.57287 0.0
H764 H 0.65006 0.77847 0.56042 0.0
H765 H 0.64728 0.82161 0.46655 0.0
H766 H 0.68799 0.90971 0.50707 0.0
H767 H 0.67019 0.8792 0.50086 0.0
C768 C 0.18802 0.03105 0.06354 0.0
C769 C 0.1755 0.01496 0.06624 0.0
C770 C 0.18055 0.04967 0.05647 0.0
C771 C 0.13839 0.07488 0.01555 0.0
H772 H 0.15283 0.11788 0.08023 0.0
C773 C 0.09329 0.14532 0.02252 0.0
C774 C 0.10259 0.16305 0.03036 0.0
C775 C 0.10373 0.12788 0.02272 0.0
C776 C 0.1489 0.10618 0.06135 0.0
H777 H 0.14544 0.00566 0.0628 0.0
H778 H 0.13243 0.03805 0.05026 0.0
H779 H 0.16838 0.08627 0.08863 0.0
H780 H 0.13032 0.17647 0.04303 0.0
H781 H 0.14874 0.14606 0.04244 0.0
H782 H 0.119 0.09464 0.98808 0.0
C783 C 0.148 0.03632 0.05376 0.0
C784 C 0.15778 0.08803 0.06631 0.0
C785 C 0.15542 0.01781 0.06135 0.0
C786 C 0.12274 0.16301 0.03716 0.0
C787 C 0.13325 0.14556 0.03703 0.0
C788 C 0.12968 0.09306 0.01028 0.0
C789 C 0.16046 0.05245 0.0513 0.0
C790 C 0.15233 0.07211 0.04395 0.0
C791 C 0.12381 0.1277 0.03047 0.0
C792 C 0.13451 0.10887 0.0336 0.0
H793 H 0.20354 0.02927 0.06735 0.0
H794 H 0.1905 0.06184 0.05462 0.0
H795 H 0.13413 0.06293 0.9975 0.0
H796 H 0.07772 0.14479 0.01789 0.0
H797 H 0.09584 0.11446 0.01825 0.0
C798 C 0.96636 0.1918 0.05136 0.0
C799 C 0.98235 0.17931 0.04661 0.0
C800 C 0.94753 0.18542 0.04308 0.0
C801 C 0.91948 0.14983 0.98908 0.0
H802 H 0.88164 0.15402 0.06952 0.0
C803 C 0.84886 0.10458 0.99171 0.0
C804 C 0.83272 0.1116 0.01169 0.0
C805 C 0.8662 0.11518 0.99083 0.0
C806 C 0.89177 0.15311 0.04627 0.0
H807 H 0.99134 0.15066 0.02824 0.0
H808 H 0.95839 0.13956 0.01318 0.0
H809 H 0.91373 0.16825 0.07737 0.0
H810 H 0.82143 0.13571 0.04411 0.0
H811 H 0.85131 0.1548 0.041 0.0
H812 H 0.89757 0.13489 0.95769 0.0
C813 C 0.96044 0.15423 0.02354 0.0
C814 C 0.91025 0.16119 0.05097 0.0
C815 C 0.97923 0.1605 0.03245 0.0
C816 C 0.83377 0.12996 0.02873 0.0
C817 C 0.85098 0.14076 0.02725 0.0
C818 C 0.90087 0.14202 0.98406 0.0
C819 C 0.94439 0.16655 0.02925 0.0
C820 C 0.92437 0.15934 0.02271 0.0
C821 C 0.86767 0.13321 0.00945 0.0
C822 C 0.88685 0.14324 0.01289 0.0
H823 H 0.96835 0.20631 0.06248 0.0
H824 H 0.9354 0.1952 0.04765 0.0
H825 H 0.93009 0.14839 0.9667 0.0
H826 H 0.84846 0.09033 0.97872 0.0
H827 H 0.87871 0.10869 0.97723 0.0
C828 C 0.87938 0.84482 1.00207 0.0
C829 C 0.88695 0.83496 0.03349 0.0
C830 C 0.86992 0.86272 0.00648 0.0
C831 C 0.86901 0.90476 0.0693 0.0
H832 H 0.82027 0.91764 0.02038 0.0
C833 C 0.82932 0.97692 0.09968 0.0
C834 C 0.82001 0.98624 0.06948 0.0
C835 C 0.83671 0.9581 0.09554 0.0
C836 C 0.83402 0.91438 0.03386 0.0
H837 H 0.89048 0.83608 0.09413 0.0
H838 H 0.87395 0.86718 0.10174 0.0
H839 H 0.83436 0.88531 0.012 0.0
H840 H 0.81148 0.98334 0.01106 0.0
H841 H 0.82473 0.95072 1.00347 0.0
H842 H 0.86907 0.93382 0.09046 0.0
C843 C 0.87529 0.86108 0.07376 0.0
C844 C 0.84203 0.89584 0.02912 0.0
C845 C 0.88455 0.84316 0.06942 0.0
C846 C 0.8183 0.97638 0.03501 0.0
C847 C 0.82586 0.95766 0.03073 0.0
C848 C 0.86113 0.92333 0.07374 0.0
C849 C 0.86812 0.87118 0.04232 0.0
C850 C 0.85955 0.89082 0.04695 0.0
C851 C 0.83517 0.94825 0.06094 0.0
C852 C 0.84349 0.92839 0.0562 0.0
H853 H 0.88101 0.83883 0.97407 0.0
H854 H 0.86459 0.87024 0.98174 0.0
H855 H 0.88271 0.90139 0.08289 0.0
H856 H 0.83062 0.98409 0.12667 0.0
H857 H 0.84346 0.9512 0.11964 0.0
C858 C 0.1515 0.8815 1.00031 0.0
C859 C 0.15556 0.89463 0.0296 0.0
C860 C 0.13313 0.87268 0.99769 0.0
C861 C 0.08218 0.87911 0.0297 0.0
H862 H 0.07718 0.82361 0.01321 0.0
C863 C 0.01334 0.83722 0.07104 0.0
C864 C 0.00605 0.82313 0.04608 0.0
C865 C 0.03136 0.84597 0.06465 0.0
C866 C 0.07833 0.83917 0.01733 0.0
H867 H 0.1433 0.9092 0.07835 0.0
H868 H 0.1118 0.89365 0.07428 0.0
H869 H 0.10926 0.83893 0.00911 0.0
H870 H 0.01223 0.80739 0.99445 0.0
H871 H 0.04386 0.8225 0.98375 0.0
H872 H 0.05143 0.87934 0.03885 0.0
C873 C 0.12262 0.89017 0.05317 0.0
C874 C 0.09669 0.84795 0.01491 0.0
C875 C 0.14085 0.89887 0.05584 0.0
C876 C 0.01741 0.81796 0.01461 0.0
C877 C 0.03554 0.82664 0.00837 0.0
C878 C 0.06392 0.87036 0.03225 0.0
C879 C 0.11846 0.87704 0.02403 0.0
C880 C 0.09886 0.86795 0.02198 0.0
C881 C 0.04266 0.84082 0.03324 0.0
C882 C 0.06184 0.85023 0.02694 0.0
H883 H 0.16253 0.87793 0.97968 0.0
H884 H 0.13034 0.86266 0.97482 0.0
H885 H 0.08328 0.89463 0.03442 0.0
H886 H 0.00529 0.84135 0.09593 0.0
H887 H 0.03661 0.85658 0.08474 0.0
C888 C 0.15955 0.98844 0.51762 0.0
C889 C 0.17983 0.99046 0.51474 0.0
C890 C 0.15118 0.97009 0.52241 0.0
C891 C 0.15989 0.91803 0.50704 0.0
H892 H 0.11839 0.91154 0.57986 0.0
C893 C 0.12383 0.84321 0.5353 0.0
C894 C 0.10349 0.84334 0.53936 0.0
C895 C 0.13428 0.86069 0.53478 0.0
C896 C 0.12984 0.91312 0.55916 0.0
H897 H 0.2072 0.97478 0.51389 0.0
H898 H 0.19256 0.9427 0.52226 0.0
H899 H 0.13426 0.94304 0.57342 0.0
H900 H 0.07815 0.86194 0.54514 0.0
H901 H 0.09623 0.89222 0.54401 0.0
H902 H 0.15518 0.88824 0.49212 0.0
C903 C 0.18316 0.95533 0.52087 0.0
C904 C 0.13894 0.93118 0.55552 0.0
C905 C 0.19155 0.97371 0.51641 0.0
C906 C 0.09386 0.86128 0.5429 0.0
C907 C 0.10425 0.87869 0.54225 0.0
C908 C 0.1507 0.89997 0.5105 0.0
C909 C 0.16289 0.95334 0.52412 0.0
C910 C 0.15391 0.93389 0.52912 0.0
C911 C 0.12458 0.87865 0.53813 0.0
C912 C 0.13538 0.89737 0.53628 0.0
H913 H 0.15016 0.00107 0.51676 0.0
H914 H 0.13549 0.96899 0.52443 0.0
H915 H 0.17129 0.91974 0.48624 0.0
H916 H 0.13166 0.8296 0.53268 0.0
H917 H 0.14996 0.86013 0.53195 0.0
C918 C 0.01888 0.15315 0.55088 0.0
C919 C 0.01407 0.17115 0.53452 0.0
C920 C 0.03823 0.14714 0.55334 0.0
C921 C 0.08715 0.15461 0.51365 0.0
H922 H 0.10349 0.12982 0.60652 0.0
C923 C 0.16624 0.1275 0.53811 0.0
C924 C 0.16775 0.10866 0.55337 0.0
C925 C 0.1483 0.1372 0.53744 0.0
C926 C 0.09914 0.13664 0.58035 0.0
H927 H 0.02589 0.19665 0.50681 0.0
H928 H 0.05982 0.18616 0.51139 0.0
H929 H 0.07054 0.14256 0.60104 0.0
H930 H 0.15139 0.08526 0.57954 0.0
H931 H 0.12045 0.10217 0.57883 0.0
H932 H 0.11575 0.14836 0.4928 0.0
C933 C 0.04853 0.17673 0.52227 0.0
C934 C 0.08025 0.14391 0.57717 0.0
C935 C 0.02911 0.18279 0.5199 0.0
C936 C 0.15097 0.09993 0.56847 0.0
C937 C 0.13315 0.10962 0.56795 0.0
C938 C 0.10611 0.14731 0.51683 0.0
C939 C 0.05331 0.15894 0.53951 0.0
C940 C 0.0739 0.15262 0.54354 0.0
C941 C 0.13153 0.12829 0.55216 0.0
C942 C 0.11218 0.1379 0.54998 0.0
H943 H 0.00777 0.14389 0.56282 0.0
H944 H 0.04139 0.13321 0.56622 0.0
H945 H 0.08267 0.16116 0.48731 0.0
H946 H 0.17889 0.13473 0.52652 0.0
H947 H 0.14756 0.15165 0.5254 0.0
C948 C 0.83684 0.01797 0.52473 0.0
C949 C 0.81817 0.0144 0.51038 0.0
C950 C 0.84322 0.03702 0.53029 0.0
C951 C 0.83921 0.08607 0.49704 0.0
H952 H 0.85677 0.10106 0.59656 0.0
C953 C 0.87084 0.16262 0.5259 0.0
C954 C 0.88698 0.16327 0.55007 0.0
C955 C 0.85981 0.14558 0.52272 0.0
C956 C 0.85214 0.09709 0.56848 0.0
H957 H 0.7917 0.02771 0.48965 0.0
H958 H 0.80319 0.06126 0.49825 0.0
H959 H 0.8433 0.06869 0.58654 0.0
H960 H 0.90445 0.14663 0.58937 0.0
H961 H 0.88578 0.11696 0.58316 0.0
H962 H 0.84901 0.11395 0.47828 0.0
C963 C 0.81268 0.04927 0.5057 0.0
C964 C 0.84432 0.0786 0.56289 0.0
C965 C 0.80612 0.03018 0.50094 0.0
C966 C 0.8918 0.14669 0.57116 0.0
C967 C 0.88101 0.12966 0.56764 0.0
C968 C 0.8474 0.10448 0.50243 0.0
C969 C 0.8312 0.0528 0.52083 0.0
C970 C 0.83806 0.07286 0.52706 0.0
C971 C 0.86492 0.12879 0.54324 0.0
C972 C 0.8543 0.1101 0.53813 0.0
H973 H 0.84628 0.00601 0.53249 0.0
H974 H 0.85761 0.03946 0.54183 0.0
H975 H 0.8345 0.08186 0.46912 0.0
H976 H 0.86682 0.17524 0.50937 0.0
H977 H 0.84737 0.14554 0.50403 0.0
C978 C 0.97729 0.83877 0.48323 0.0
C979 C 0.98557 0.82554 0.50883 0.0
C980 C 0.9588 0.8465 0.48959 0.0
C981 C 0.91305 0.83824 0.5413 0.0
H982 H 0.90515 0.89327 0.5228 0.0
C983 C 0.83709 0.87517 0.53377 0.0
C984 C 0.8354 0.89398 0.54896 0.0
C985 C 0.85518 0.86585 0.53233 0.0
C986 C 0.90714 0.87791 0.52846 0.0
H987 H 0.98079 0.81021 0.56145 0.0
H988 H 0.94845 0.82365 0.57238 0.0
H989 H 0.9372 0.87907 0.5132 0.0
H990 H 0.85141 0.91748 0.5755 0.0
H991 H 0.88271 0.90108 0.57377 0.0
H992 H 0.8829 0.83719 0.55678 0.0
C993 C 0.95624 0.82784 0.54715 0.0
C994 C 0.92546 0.86974 0.5225 0.0
C995 C 0.97479 0.82013 0.54085 0.0
C996 C 0.85208 0.90291 0.56401 0.0
C997 C 0.87011 0.89362 0.56255 0.0
C998 C 0.89464 0.84643 0.54712 0.0
C999 C 0.94809 0.84119 0.52168 0.0
C1000 C 0.92862 0.8498 0.5287 0.0
C1001 C 0.87196 0.87519 0.54591 0.0
C1002 C 0.8915 0.86637 0.54074 0.0
H1003 H 0.98499 0.843 0.45796 0.0
H1004 H 0.95278 0.85651 0.46911 0.0
H1005 H 0.91501 0.8228 0.54607 0.0
H1006 H 0.8245 0.86782 0.52226 0.0
H1007 H 0.85615 0.85167 0.51922 0.0
C1008 C 0.65937 0.5139 0.56833 0.0
C1009 C 0.67958 0.5117 0.57263 0.0
C1010 C 0.65133 0.53213 0.5604 0.0
C1011 C 0.66021 0.58449 0.56879 0.0
H1012 H 0.62125 0.58878 0.49032 0.0
C1013 C 0.6263 0.6587 0.5298 0.0
C1014 C 0.60613 0.65886 0.52333 0.0
C1015 C 0.63648 0.64109 0.53194 0.0
C1016 C 0.63196 0.58784 0.51258 0.0
H1017 H 0.70714 0.52695 0.57288 0.0
H1018 H 0.69306 0.55892 0.55942 0.0
H1019 H 0.6363 0.55736 0.50326 0.0
H1020 H 0.58087 0.64066 0.51376 0.0
H1021 H 0.59844 0.61009 0.51797 0.0
H1022 H 0.6555 0.61477 0.57905 0.0
C1023 C 0.68348 0.54649 0.56199 0.0
C1024 C 0.64061 0.56983 0.51992 0.0
C1025 C 0.69154 0.5282 0.56946 0.0
C1026 C 0.59647 0.64107 0.51802 0.0
C1027 C 0.60659 0.62349 0.52047 0.0
C1028 C 0.65142 0.60248 0.56173 0.0
C1029 C 0.6633 0.54861 0.55703 0.0
C1030 C 0.65469 0.56792 0.54833 0.0
C1031 C 0.62668 0.62322 0.52805 0.0
C1032 C 0.63704 0.60437 0.53375 0.0
H1033 H 0.64981 0.50144 0.5702 0.0
H1034 H 0.63571 0.53336 0.55709 0.0
H1035 H 0.67092 0.58342 0.59107 0.0
H1036 H 0.63416 0.6722 0.53376 0.0
H1037 H 0.652 0.64149 0.5371 0.0
C1038 C 0.34041 0.62049 0.49696 0.0
C1039 C 0.3373 0.60639 0.52501 0.0
C1040 C 0.35889 0.62883 0.49226 0.0
C1041 C 0.41064 0.61917 0.51183 0.0
H1042 H 0.41731 0.67515 0.51401 0.0
C1043 C 0.48127 0.65424 0.56148 0.0
C1044 C 0.48856 0.6706 0.54241 0.0
C1045 C 0.46303 0.64668 0.55258 0.0
C1046 C 0.41568 0.6595 0.51267 0.0
H1047 H 0.35113 0.58955 0.56922 0.0
H1048 H 0.38303 0.60403 0.56118 0.0
H1049 H 0.38453 0.66134 0.50962 0.0
H1050 H 0.48226 0.69169 0.49853 0.0
H1051 H 0.45017 0.67856 0.4834 0.0
H1052 H 0.4416 0.6172 0.51601 0.0
C1053 C 0.37133 0.60872 0.54285 0.0
C1054 C 0.39694 0.65162 0.51012 0.0
C1055 C 0.35298 0.60062 0.54778 0.0
C1056 C 0.47705 0.67923 0.51416 0.0
C1057 C 0.45868 0.67169 0.50537 0.0
C1058 C 0.42929 0.62701 0.51433 0.0
C1059 C 0.37454 0.62286 0.51504 0.0
C1060 C 0.39424 0.63137 0.51097 0.0
C1061 C 0.45153 0.65528 0.52443 0.0
C1062 C 0.43198 0.64723 0.51606 0.0
H1063 H 0.32857 0.62516 0.47899 0.0
H1064 H 0.36101 0.63971 0.47061 0.0
H1065 H 0.40899 0.6035 0.5118 0.0
H1066 H 0.48945 0.64742 0.58389 0.0
H1067 H 0.45776 0.63427 0.56836 0.0
C1068 C 0.30402 0.47002 0.57698 0.0
C1069 C 0.31662 0.48576 0.57064 0.0
C1070 C 0.31031 0.45096 0.57031 0.0
C1071 C 0.34185 0.42275 0.51159 0.0
H1072 H 0.348 0.38576 0.59316 0.0
C1073 C 0.39131 0.35631 0.49701 0.0
C1074 C 0.38725 0.33923 0.51717 0.0
C1075 C 0.37992 0.37288 0.5019 0.0
C1076 C 0.34596 0.39569 0.56981 0.0
H1077 H 0.34537 0.49415 0.55185 0.0
H1078 H 0.35619 0.46086 0.53914 0.0
H1079 H 0.33286 0.41732 0.60529 0.0
H1080 H 0.36776 0.32586 0.55746 0.0
H1081 H 0.34728 0.35472 0.56516 0.0
H1082 H 0.35458 0.40133 0.4758 0.0
C1083 C 0.34162 0.46325 0.54984 0.0
C1084 C 0.3374 0.41378 0.57691 0.0
C1085 C 0.33551 0.48221 0.55733 0.0
C1086 C 0.37122 0.33889 0.54168 0.0
C1087 C 0.3596 0.35546 0.54621 0.0
C1088 C 0.35003 0.40457 0.50429 0.0
C1089 C 0.32908 0.44751 0.55627 0.0
C1090 C 0.33578 0.42759 0.54804 0.0
C1091 C 0.36397 0.37277 0.52673 0.0
C1092 C 0.35277 0.391 0.53353 0.0
H1093 H 0.28941 0.47249 0.58731 0.0
H1094 H 0.30044 0.43897 0.57543 0.0
H1095 H 0.34051 0.43318 0.48885 0.0
H1096 H 0.40382 0.35711 0.47853 0.0
H1097 H 0.38412 0.386 0.48712 0.0
C1098 C 0.52245 0.34449 0.51196 0.0
C1099 C 0.51624 0.32805 0.53219 0.0
C1100 C 0.54214 0.34936 0.51039 0.0
C1101 C 0.58835 0.34433 0.5599 0.0
H1102 H 0.61058 0.35885 0.46355 0.0
C1103 C 0.66802 0.36985 0.54835 0.0
C1104 C 0.67109 0.3864 0.52585 0.0
C1105 C 0.6504 0.35971 0.54657 0.0
C1106 C 0.60459 0.35497 0.49073 0.0
H1107 H 0.52573 0.30406 0.5672 0.0
H1108 H 0.56032 0.3128 0.56492 0.0
H1109 H 0.57702 0.34749 0.46671 0.0
H1110 H 0.65831 0.40491 0.48308 0.0
H1111 H 0.62764 0.38749 0.48023 0.0
H1112 H 0.61558 0.35253 0.58424 0.0
C1113 C 0.54987 0.3218 0.55014 0.0
C1114 C 0.58538 0.34842 0.49249 0.0
C1115 C 0.53014 0.31677 0.55134 0.0
C1116 C 0.65653 0.39205 0.50036 0.0
C1117 C 0.63889 0.38202 0.49876 0.0
C1118 C 0.60753 0.35107 0.55821 0.0
C1119 C 0.55607 0.33803 0.52927 0.0
C1120 C 0.57695 0.34336 0.52716 0.0
C1121 C 0.63542 0.36598 0.52244 0.0
C1122 C 0.61579 0.35681 0.52367 0.0
H1123 H 0.51216 0.35331 0.49646 0.0
H1124 H 0.54647 0.36208 0.49445 0.0
H1125 H 0.58218 0.34065 0.58703 0.0
H1126 H 0.67907 0.36501 0.56796 0.0
H1127 H 0.64839 0.34719 0.56465 0.0
C1128 C 0.68349 0.46531 1.0026 0.0
C1129 C 0.67137 0.48178 1.00168 0.0
C1130 C 0.67566 0.44679 0.00857 0.0
C1131 C 0.6334 0.42202 0.04988 0.0
H1132 H 0.6479 0.37901 0.98523 0.0
C1133 C 0.5895 0.35072 0.04434 0.0
C1134 C 0.59919 0.33321 0.03634 0.0
C1135 C 0.59955 0.36836 0.0441 0.0
C1136 C 0.64394 0.39073 1.00408 0.0
H1137 H 0.64157 0.49175 0.00658 0.0
H1138 H 0.62787 0.45944 0.01698 0.0
H1139 H 0.66305 0.41071 0.97618 0.0
H1140 H 0.62721 0.32033 0.02373 0.0
H1141 H 0.64494 0.35111 0.02429 0.0
H1142 H 0.61439 0.40213 0.07798 0.0
C1143 C 0.64344 0.46086 0.0131 0.0
C1144 C 0.65258 0.40893 0.99872 0.0
C1145 C 0.65125 0.47933 0.00669 0.0
C1146 C 0.61934 0.33363 0.02969 0.0
C1147 C 0.62945 0.35128 0.02977 0.0
C1148 C 0.6249 0.40379 0.0555 0.0
C1149 C 0.65556 0.4444 0.01423 0.0
C1150 C 0.64719 0.42483 0.02121 0.0
C1151 C 0.6196 0.36894 0.03612 0.0
C1152 C 0.62984 0.38795 0.03231 0.0
H1153 H 0.69904 0.46675 0.99861 0.0
H1154 H 0.68535 0.43437 0.00942 0.0
H1155 H 0.6292 0.43395 0.06806 0.0
H1156 H 0.57391 0.35092 0.04891 0.0
H1157 H 0.59138 0.38163 0.04854 0.0
C1158 C 0.5155 0.658 0.09302 0.0
C1159 C 0.5113 0.67531 0.07357 0.0
C1160 C 0.53461 0.65111 0.09536 0.0
C1161 C 0.58125 0.65316 0.04557 0.0
H1162 H 0.6023 0.63151 0.13779 0.0
C1163 C 0.65921 0.62302 0.0501 0.0
C1164 C 0.66167 0.60515 0.06868 0.0
C1165 C 0.64205 0.63371 0.05455 0.0
C1166 C 0.5966 0.63738 0.11173 0.0
H1167 H 0.5239 0.69893 0.04125 0.0
H1168 H 0.55723 0.68695 0.04544 0.0
H1169 H 0.56974 0.64577 0.13778 0.0
H1170 H 0.64836 0.58477 0.10744 0.0
H1171 H 0.61835 0.60319 0.1148 0.0
H1172 H 0.60769 0.64429 0.0191 0.0
C1173 C 0.54573 0.67871 0.05888 0.0
C1174 C 0.57795 0.64556 0.11177 0.0
C1175 C 0.52665 0.68567 0.05679 0.0
C1176 C 0.64699 0.59861 0.09311 0.0
C1177 C 0.62976 0.60921 0.09732 0.0
C1178 C 0.5998 0.64487 0.04545 0.0
C1179 C 0.54991 0.6613 0.078 0.0
C1180 C 0.57003 0.65341 0.07861 0.0
C1181 C 0.62688 0.62667 0.0774 0.0
C1182 C 0.60768 0.63673 0.07845 0.0
H1183 H 0.50401 0.6498 0.10649 0.0
H1184 H 0.53735 0.63756 0.11001 0.0
H1185 H 0.57544 0.65884 0.01944 0.0
H1186 H 0.6704 0.62855 0.03147 0.0
H1187 H 0.64053 0.64732 0.03945 0.0
C1188 C 0.33837 0.51815 0.03034 0.0
C1189 C 0.31962 0.51433 0.01659 0.0
C1190 C 0.34482 0.53729 0.03445 0.0
C1191 C 0.34063 0.58569 0.99758 0.0
H1192 H 0.35837 0.60294 0.09558 0.0
C1193 C 0.37039 0.66356 0.02002 0.0
C1194 C 0.38625 0.66541 0.04464 0.0
C1195 C 0.36001 0.64606 0.01806 0.0
C1196 C 0.35374 0.59834 0.06786 0.0
H1197 H 0.29307 0.52732 0.99551 0.0
H1198 H 0.30466 0.56098 1.00155 0.0
H1199 H 0.34535 0.57021 0.08822 0.0
H1200 H 0.40392 0.65043 0.08599 0.0
H1201 H 0.38646 0.6199 0.08177 0.0
H1202 H 0.34994 0.61329 0.97652 0.0
C1203 C 0.31417 0.54912 0.00966 0.0
C1204 C 0.34616 0.57963 0.06381 0.0
C1205 C 0.30755 0.52997 0.00637 0.0
C1206 C 0.39148 0.64954 0.06735 0.0
C1207 C 0.38137 0.63202 0.06497 0.0
C1208 C 0.3486 0.6043 1.00141 0.0
C1209 C 0.33279 0.55291 0.0241 0.0
C1210 C 0.33974 0.5731 0.02859 0.0
C1211 C 0.36553 0.62995 0.0402 0.0
C1212 C 0.35551 0.6108 0.03655 0.0
H1213 H 0.34785 0.50632 0.03866 0.0
H1214 H 0.35928 0.53991 0.04549 0.0
H1215 H 0.33581 0.58088 0.97009 0.0
H1216 H 0.36607 0.67562 1.00224 0.0
H1217 H 0.34773 0.64517 0.99908 0.0
C1218 C 0.46484 0.30507 0.01657 0.0
C1219 C 0.4811 0.31746 0.0175 0.0
C1220 C 0.44636 0.31209 0.02596 0.0
C1221 C 0.42103 0.35167 0.07598 0.0
H1222 H 0.37937 0.34247 1.00465 0.0
C1223 C 0.3528 0.3998 0.06981 0.0
C1224 C 0.33492 0.39163 0.05903 0.0
C1225 C 0.36976 0.38863 0.06967 0.0
C1226 C 0.39068 0.34487 0.02533 0.0
H1227 H 0.49088 0.34664 0.03038 0.0
H1228 H 0.45866 0.35891 0.04686 0.0
H1229 H 0.41075 0.32663 0.99566 0.0
H1230 H 0.32067 0.36511 0.04105 0.0
H1231 H 0.35031 0.34543 0.04135 0.0
H1232 H 0.40109 0.37002 0.10556 0.0
C1233 C 0.46018 0.34379 0.03881 0.0
C1234 C 0.40869 0.33582 0.02009 0.0
C1235 C 0.47858 0.33684 0.029 0.0
C1236 C 0.33428 0.37185 0.04916 0.0
C1237 C 0.35127 0.36061 0.04924 0.0
C1238 C 0.40298 0.36059 0.08143 0.0
C1239 C 0.44384 0.33156 0.03698 0.0
C1240 C 0.42417 0.33946 0.04489 0.0
C1241 C 0.36928 0.36895 0.05892 0.0
C1242 C 0.3877 0.35767 0.05569 0.0
H1243 H 0.46633 0.29011 0.00758 0.0
H1244 H 0.43403 0.30233 0.02448 0.0
H1245 H 0.43263 0.3545 0.09588 0.0
H1246 H 0.35387 0.41508 0.07687 0.0
H1247 H 0.38338 0.39568 0.07657 0.0
C1248 C 0.99929 0.24176 0.46809 0.0
C1249 C 0.98034 0.24768 0.47745 0.0
C1250 C 0.00617 0.24386 0.43101 0.0
C1251 C 0.9859 0.24744 0.33407 0.0
H1252 H 0.03977 0.25396 0.30476 0.0
C1253 C 0.00988 0.24812 0.17693 0.0
C1254 C 0.02685 0.23761 0.16834 0.0
C1255 C 0.00463 0.25162 0.21458 0.0
C1256 C 0.02465 0.25201 0.31247 0.0
H1257 H 0.95434 0.26172 0.45645 0.0
H1258 H 0.9666 0.26639 0.39281 0.0
H1259 H 0.03064 0.25696 0.37095 0.0
H1260 H 0.05167 0.22268 0.19276 0.0
H1261 H 0.0425 0.22862 0.25775 0.0
H1262 H 0.97992 0.24226 0.27577 0.0
C1263 C 0.97599 0.25949 0.41332 0.0
C1264 C 0.01942 0.25372 0.35052 0.0
C1265 C 0.96907 0.25714 0.45003 0.0
C1266 C 0.03848 0.23085 0.19822 0.0
C1267 C 0.03331 0.2344 0.23566 0.0
C1268 C 0.99111 0.2458 0.29609 0.0
C1269 C 0.99426 0.25204 0.40272 0.0
C1270 C -4e-05 0.25133 0.36196 0.0
C1271 C 0.0163 0.24479 0.24448 0.0
C1272 C 0.01059 0.24786 0.28474 0.0
H1273 H 0.00812 0.23404 0.48845 0.0
H1274 H 0.02029 0.23788 0.42405 0.0
H1275 H 0.97083 0.24503 0.34162 0.0
H1276 H 0.00064 0.25359 0.15462 0.0
H1277 H 0.99149 0.2598 0.22027 0.0
C1278 C 0.74947 0.95936 0.3978 0.0
C1279 C 0.74835 0.97089 0.43033 0.0
C1280 C 0.74472 0.96715 0.36266 0.0
C1281 C 0.74619 0.01329 0.31363 0.0
H1282 H 0.71866 0.98595 0.2345 0.0
C1283 C 0.74453 0.04484 0.16479 0.0
C1284 C 0.74781 0.0316 0.13545 0.0
C1285 C 0.73966 0.03821 0.20072 0.0
C1286 C 0.72649 0.99373 0.2562 0.0
H1287 H 0.7406 0.99935 0.45192 0.0
H1288 H 0.73252 0.01304 0.39034 0.0
H1289 H 0.7192 0.97251 0.29821 0.0
H1290 H 0.74776 0.00113 0.12003 0.0
H1291 H 0.74002 0.98944 0.18302 0.0
H1292 H 0.75448 0.0339 0.27182 0.0
C1293 C 0.73707 0.99798 0.39209 0.0
C1294 C 0.7267 0.98607 0.2927 0.0
C1295 C 0.74161 0.99012 0.42731 0.0
C1296 C 0.74519 0.01166 0.14215 0.0
C1297 C 0.74066 0.00498 0.1783 0.0
C1298 C 0.74618 0.02082 0.27717 0.0
C1299 C 0.73895 0.98668 0.35935 0.0
C1300 C 0.73678 0.99566 0.32163 0.0
C1301 C 0.73839 0.01816 0.20833 0.0
C1302 C 0.73657 0.01102 0.24779 0.0
H1303 H 0.75456 0.94446 0.39931 0.0
H1304 H 0.74647 0.95815 0.33787 0.0
H1305 H 0.75435 0.02083 0.33521 0.0
H1306 H 0.74626 0.06032 0.16023 0.0
H1307 H 0.73748 0.04883 0.22281 0.0
C1308 C 0.98794 0.7478 0.13423 0.0
C1309 C 0.96776 0.74869 0.1287 0.0
C1310 C 0.99551 0.7443 0.17017 0.0
C1311 C 0.98044 0.74962 0.26959 0.0
H1312 H 0.03092 0.72669 0.28985 0.0
C1313 C 0.01149 0.74691 0.41926 0.0
C1314 C 0.03013 0.75507 0.42264 0.0
C1315 C 0.00409 0.74205 0.38389 0.0
C1316 C 0.01677 0.73308 0.28452 0.0
H1317 H 0.93963 0.745 0.15518 0.0
H1318 H 0.95272 0.73789 0.21733 0.0
H1319 H 0.01717 0.72476 0.22645 0.0
H1320 H 0.05607 0.76355 0.392 0.0
H1321 H 0.04314 0.75494 0.33019 0.0
H1322 H 0.98008 0.75801 0.32747 0.0
C1323 C 0.96281 0.74073 0.19457 0.0
C1324 C 0.00892 0.73207 0.24822 0.0
C1325 C 0.95527 0.74464 0.1589 0.0
C1326 C 0.04161 0.75736 0.39022 0.0
C1327 C 0.03427 0.75232 0.35488 0.0
C1328 C 0.98816 0.75041 0.30581 0.0
C1329 C 0.983 0.7413 0.20104 0.0
C1330 C 0.99076 0.74059 0.24017 0.0
C1331 C 0.01526 0.74507 0.3513 0.0
C1332 C 0.00651 0.74241 0.31356 0.0
H1333 H 0.99786 0.751 0.11135 0.0
H1334 H 0.01112 0.74502 0.17401 0.0
H1335 H 0.96667 0.75681 0.26446 0.0
H1336 H 0.00232 0.74491 0.44376 0.0
H1337 H 0.98944 0.73633 0.38192 0.0
C1338 C 0.25872 0.01104 0.43185 0.0
C1339 C 0.25292 0.03053 0.43563 0.0
C1340 C 0.26239 0.00321 0.39621 0.0
C1341 C 0.27139 0.01539 0.29607 0.0
H1342 H 0.24239 0.96812 0.2769 0.0
C1343 C 0.25086 0.98937 0.14626 0.0
C1344 C 0.24807 0.96939 0.14027 0.0
C1345 C 0.2557 0.99629 0.18212 0.0
C1346 C 0.251 0.98106 0.28172 0.0
H1347 H 0.2475 0.05741 0.4054 0.0
H1348 H 0.254 0.04378 0.3433 0.0
H1349 H 0.24377 0.98111 0.34023 0.0
H1350 H 0.24966 0.94086 0.16594 0.0
H1351 H 0.25898 0.95274 0.22785 0.0
H1352 H 0.27846 0.01543 0.23735 0.0
C1353 C 0.25573 0.03454 0.36779 0.0
C1354 C 0.25173 0.98854 0.31818 0.0
C1355 C 0.25189 0.04231 0.40335 0.0
C1356 C 0.25151 0.95637 0.16995 0.0
C1357 C 0.25668 0.96322 0.20552 0.0
C1358 C 0.27083 0.00778 0.25953 0.0
C1359 C 0.2605 0.01478 0.36374 0.0
C1360 C 0.26166 0.00594 0.32569 0.0
C1361 C 0.2581 0.98331 0.21251 0.0
C1362 C 0.26037 0.99066 0.25176 0.0
H1363 H 0.25965 0.00161 0.45622 0.0
H1364 H 0.26622 0.98798 0.39396 0.0
H1365 H 0.27928 0.02877 0.30111 0.0
H1366 H 0.24816 -0.00028 0.12386 0.0
H1367 H 0.2565 0.01186 0.18637 0.0
C1368 C 0.94634 0.76734 0.88624 0.0
C1369 C 0.95736 0.76843 0.91948 0.0
C1370 C 0.95548 0.76779 0.85114 0.0
C1371 C 0.00198 0.75747 0.80519 0.0
H1372 H 0.98244 0.79065 0.72535 0.0
C1373 C 0.04471 0.76915 0.66792 0.0
C1374 C 0.0342 0.7704 0.63411 0.0
C1375 C 0.03505 0.76894 0.70244 0.0
C1376 C 0.98792 0.78109 0.74715 0.0
H1377 H 0.98661 0.77094 0.94199 0.0
H1378 H 0.00254 0.77158 0.88065 0.0
H1379 H 0.96602 0.79023 0.78624 0.0
H1380 H 0.00527 0.77231 0.60996 0.0
H1381 H 0.98836 0.77148 0.67026 0.0
H1382 H 0.02369 0.74807 0.76619 0.0
C1383 C 0.98684 0.77031 0.88182 0.0
C1384 C 0.97854 0.78091 0.78204 0.0
C1385 C 0.9777 0.77005 0.9169 0.0
C1386 C 0.0138 0.7714 0.63555 0.0
C1387 C 0.00411 0.77104 0.67013 0.0
C1388 C 0.01126 0.75752 0.77025 0.0
C1389 C 0.97582 0.76915 0.84861 0.0
C1390 C 0.98556 0.76919 0.81144 0.0
C1391 C 0.01463 0.7698 0.704 0.0
C1392 C 0.00443 0.76943 0.74087 0.0
H1393 H 0.93064 0.76611 0.88727 0.0
H1394 H 0.94665 0.76672 0.82597 0.0
H1395 H 0.00751 0.74807 0.8272 0.0
H1396 H 0.06046 0.76849 0.66782 0.0
H1397 H 0.04364 0.76834 0.72797 0.0
C1398 C 0.249 0.00385 0.65093 0.0
C1399 C 0.23624 0.01672 0.6326 0.0
C1400 C 0.24593 0.99873 0.68858 0.0
C1401 C 0.20795 0.995 0.76059 0.0
H1402 H 0.25064 0.99773 0.83167 0.0
C1403 C 0.19585 0.98428 0.9202 0.0
C1404 C 0.21033 0.97442 0.94054 0.0
C1405 C 0.19903 0.98973 0.88276 0.0
C1406 C 0.2386 0.99659 0.81216 0.0
H1407 H 0.20997 0.03389 0.6391 0.0
H1408 H 0.20454 0.02483 0.70462 0.0
H1409 H 0.25621 0.00602 0.76584 0.0
H1410 H 0.23946 0.96233 0.9374 0.0
H1411 H 0.24478 0.97126 0.87206 0.0
H1412 H 0.19039 0.98516 0.80645 0.0
C1413 C 0.21699 0.01882 0.68995 0.0
C1414 C 0.24181 0.00141 0.77444 0.0
C1415 C 0.2202 0.02414 0.65252 0.0
C1416 C 0.22805 0.97009 0.92265 0.0
C1417 C 0.23115 0.97532 0.88514 0.0
C1418 C 0.20477 0.98996 0.79821 0.0
C1419 C 0.22986 0.00613 0.70842 0.0
C1420 C 0.22651 0.00072 0.74831 0.0
C1421 C 0.2167 0.98524 0.86465 0.0
C1422 C 0.22004 0.99072 0.82455 0.0
H1423 H 0.26149 0.9979 0.63631 0.0
H1424 H 0.25599 0.9888 0.70207 0.0
H1425 H 0.19594 0.99414 0.74093 0.0
H1426 H 0.18209 0.98794 0.93329 0.0
H1427 H 0.18769 0.99764 0.86815 0.0
C1428 C 0.05153 0.25245 0.92374 0.0
C1429 C 0.03895 0.24386 0.95022 0.0
C1430 C 0.04646 0.25362 0.88575 0.0
C1431 C 0.00574 0.2511 0.81783 0.0
H1432 H 0.0462 0.23525 0.74809 0.0
C1433 C 0.00947 0.21978 0.65906 0.0
C1434 C 0.9969 0.23262 0.64023 0.0
C1435 C 0.01679 0.22434 0.69467 0.0
C1436 C 0.03477 0.23984 0.76713 0.0
H1437 H 0.01067 0.23045 0.95741 0.0
H1438 H 0.0017 0.23254 0.89057 0.0
H1439 H 0.05311 0.23644 0.81535 0.0
H1440 H 0.98312 0.26089 0.64283 0.0
H1441 H 0.99582 0.2689 0.70553 0.0
H1442 H 0.9873 0.25405 0.7694 0.0
C1443 C 0.01557 0.23841 0.89953 0.0
C1444 C 0.03874 0.24061 0.80573 0.0
C1445 C 0.0207 0.23717 0.93782 0.0
C1446 C 0.99299 0.25083 0.65647 0.0
C1447 C 2e-05 0.25527 0.69261 0.0
C1448 C 0.00182 0.25052 0.77906 0.0
C1449 C 0.02861 0.24627 0.87291 0.0
C1450 C 0.02425 0.24605 0.83169 0.0
C1451 C 0.01141 0.24173 0.71267 0.0
C1452 C 0.01623 0.24464 0.75327 0.0
H1453 H 0.06562 0.25801 0.93216 0.0
H1454 H 0.05669 0.26012 0.86627 0.0
H1455 H 0.9943 0.2555 0.83697 0.0
H1456 H 0.01242 0.2055 0.64747 0.0
H1457 H 0.02545 0.21354 0.70926 0.0
C1458 C 0.78071 0.97724 0.64664 0.0
C1459 C 0.76411 0.98369 0.62722 0.0
C1460 C 0.78357 0.9822 0.68431 0.0
C1461 C 0.7576 0.99593 0.7697 0.0
H1462 H 0.80736 0.0164 0.80246 0.0
C1463 C 0.76847 0.0272 0.91843 0.0
C1464 C 0.78653 0.02455 0.93624 0.0
C1465 C 0.76586 0.02174 0.88097 0.0
C1466 C 0.79348 0.01039 0.79398 0.0
H1467 H 0.73749 0.00044 0.63193 0.0
H1468 H 0.74237 0.0089 0.69819 0.0
H1469 H 0.80254 0.00796 0.73648 0.0
H1470 H 0.81589 0.01368 0.92905 0.0
H1471 H 0.81119 0.00354 0.86387 0.0
H1472 H 0.74859 0.99788 0.82712 0.0
C1473 C 0.75315 1e-05 0.68411 0.0
C1474 C 0.79071 0.00567 0.75613 0.0
C1475 C 0.75042 0.99526 0.6462 0.0
C1476 C 0.80185 0.01602 0.91597 0.0
C1477 C 0.79916 0.01033 0.87854 0.0
C1478 C 0.76044 0.00042 0.80764 0.0
C1479 C 0.76977 0.99354 0.70347 0.0
C1480 C 0.77271 0.9985 0.74361 0.0
C1481 C 0.78116 0.01326 0.86046 0.0
C1482 C 0.77838 0.00783 0.82026 0.0
H1483 H 0.79165 0.96852 0.63265 0.0
H1484 H 0.79646 0.97695 0.69864 0.0
H1485 H 0.74368 0.99016 0.76085 0.0
H1486 H 0.7564 0.0339 0.93315 0.0
H1487 H 0.75191 0.02458 0.86789 0.0
C1488 C 0.50242 0.73169 0.95911 0.0
C1489 C 0.48496 0.74085 0.96934 0.0
C1490 C 0.50963 0.73347 0.9222 0.0
C1491 C 0.49071 0.74217 0.82602 0.0
H1492 H 0.54506 0.74363 0.79745 0.0
C1493 C 0.51475 0.74368 0.66896 0.0
C1494 C 0.53115 0.7325 0.65949 0.0
C1495 C 0.5097 0.74667 0.70689 0.0
C1496 C 0.5298 0.74304 0.80489 0.0
H1497 H 0.46169 0.75948 0.94977 0.0
H1498 H 0.47452 0.76324 0.88627 0.0
H1499 H 0.53611 0.74574 0.86383 0.0
H1500 H 0.55504 0.71564 0.68262 0.0
H1501 H 0.54612 0.7205 0.74796 0.0
H1502 H 0.48435 0.73903 0.76737 0.0
C1503 C 0.4826 0.75447 0.9062 0.0
C1504 C 0.52468 0.74429 0.84305 0.0
C1505 C 0.47542 0.75261 0.94282 0.0
C1506 C 0.54235 0.72443 0.68876 0.0
C1507 C 0.53731 0.72736 0.72645 0.0
C1508 C 0.49582 0.74085 0.78794 0.0
C1509 C 0.49938 0.74432 0.89487 0.0
C1510 C 0.50506 0.7438 0.85419 0.0
C1511 C 0.52093 0.73852 0.73621 0.0
C1512 C 0.51544 0.7411 0.77676 0.0
H1513 H 0.50971 0.72207 0.97873 0.0
H1514 H 0.52252 0.72534 0.91448 0.0
H1515 H 0.47546 0.74135 0.83345 0.0
H1516 H 0.50585 0.75016 0.64713 0.0
H1517 H 0.49708 0.75552 0.71321 0.0
C1518 C 0.25138 0.45888 0.90532 0.0
C1519 C 0.24992 0.47037 0.93787 0.0
C1520 C 0.24643 0.46656 0.87018 0.0
C1521 C 0.24666 0.51275 0.82134 0.0
H1522 H 0.21933 0.48511 0.74234 0.0
C1523 C 0.24346 0.54509 0.67348 0.0
C1524 C 0.24684 0.53213 0.64375 0.0
C1525 C 0.23887 0.53812 0.70928 0.0
C1526 C 0.2271 0.49298 0.76401 0.0
H1527 H 0.24137 0.4986 0.95948 0.0
H1528 H 0.23296 0.51209 0.89794 0.0
H1529 H 0.22056 0.47141 0.80584 0.0
H1530 H 0.24724 0.50181 0.62739 0.0
H1531 H 0.24003 0.48949 0.69021 0.0
H1532 H 0.25424 0.53372 0.77973 0.0
C1533 C 0.23792 0.49715 0.89966 0.0
C1534 C 0.22771 0.48516 0.80037 0.0
C1535 C 0.24267 0.48941 0.93485 0.0
C1536 C 0.24456 0.5121 0.64987 0.0
C1537 C 0.24036 0.50508 0.68592 0.0
C1538 C 0.24627 0.52043 0.78502 0.0
C1539 C 0.24013 0.48593 0.86691 0.0
C1540 C 0.23769 0.49489 0.82926 0.0
C1541 C 0.23804 0.51799 0.71637 0.0
C1542 C 0.23669 0.51056 0.75569 0.0
H1543 H 0.25687 0.44413 0.90683 0.0
H1544 H 0.24843 0.45763 0.84537 0.0
H1545 H 0.25475 0.5204 0.84289 0.0
H1546 H 0.24493 0.56064 0.66931 0.0
H1547 H 0.23661 0.54854 0.7317 0.0
C1548 C 0.50857 0.24993 0.88306 0.0
C1549 C 0.52632 0.25856 0.8933 0.0
C1550 C 0.50385 0.24717 0.84487 0.0
C1551 C 0.51756 0.26513 0.74904 0.0
H1552 H 0.48789 0.22074 0.71438 0.0
C1553 C 0.49953 0.25601 0.59128 0.0
C1554 C 0.47973 0.25259 0.58417 0.0
C1555 C 0.5071 0.25343 0.62773 0.0
C1556 C 0.49619 0.23324 0.72359 0.0
H1557 H 0.5533 0.2704 0.87136 0.0
H1558 H 0.54538 0.26522 0.80573 0.0
H1559 H 0.49659 0.22335 0.78088 0.0
H1560 H 0.45273 0.24249 0.60867 0.0
H1561 H 0.4659 0.23753 0.67148 0.0
H1562 H 0.51702 0.27512 0.69197 0.0
C1563 C 0.53476 0.26105 0.82674 0.0
C1564 C 0.50109 0.2348 0.76185 0.0
C1565 C 0.53937 0.26393 0.86461 0.0
C1566 C 0.4681 0.24505 0.61326 0.0
C1567 C 0.47568 0.24224 0.64938 0.0
C1568 C 0.51277 0.26351 0.71087 0.0
C1569 C 0.51683 0.25289 0.81611 0.0
C1570 C 0.51175 0.25086 0.77522 0.0
C1571 C 0.49506 0.24716 0.65756 0.0
C1572 C 0.50187 0.24764 0.69759 0.0
H1573 H 0.49821 0.24563 0.90446 0.0
H1574 H 0.48983 0.24097 0.83792 0.0
H1575 H 0.52543 0.27793 0.75814 0.0
H1576 H 0.50876 0.26211 0.56958 0.0
H1577 H 0.52217 0.25713 0.63291 0.0
C1578 C 0.7589 0.49123 0.64372 0.0
C1579 C 0.75469 0.47132 0.64055 0.0
C1580 C 0.76314 0.49935 0.67888 0.0
C1581 C 0.77515 0.4877 0.77852 0.0
H1582 H 0.74185 0.53178 0.80026 0.0
C1583 C 0.75084 0.50823 0.92895 0.0
C1584 C 0.74652 0.52776 0.93687 0.0
C1585 C 0.75662 0.5027 0.89272 0.0
C1586 C 0.75163 0.51977 0.79469 0.0
H1587 H 0.75302 0.44404 0.67104 0.0
H1588 H 0.76044 0.45814 0.73217 0.0
H1589 H 0.74429 0.51984 0.73626 0.0
H1590 H 0.74625 0.55701 0.91414 0.0
H1591 H 0.75694 0.54753 0.85146 0.0
H1592 H 0.78213 0.48738 0.83728 0.0
C1593 C 0.7605 0.46753 0.70767 0.0
C1594 C 0.75301 0.51291 0.75784 0.0
C1595 C 0.75612 0.45946 0.67265 0.0
C1596 C 0.74924 0.5418 0.90867 0.0
C1597 C 0.75526 0.53634 0.87267 0.0
C1598 C 0.77388 0.49466 0.81545 0.0
C1599 C 0.76341 0.48766 0.7114 0.0
C1600 C 0.76444 0.49653 0.74945 0.0
C1601 C 0.7584 0.51664 0.86385 0.0
C1602 C 0.76175 0.51053 0.82414 0.0
H1603 H 0.75791 0.50072 0.61945 0.0
H1604 H 0.76554 0.51488 0.68084 0.0
H1605 H 0.78423 0.47515 0.77283 0.0
H1606 H 0.74879 0.49709 0.95015 0.0
H1607 H 0.75872 0.48738 0.88697 0.0
C1608 C 0.51857 0.25922 0.1244 0.0
C1609 C 0.53641 0.25152 0.11194 0.0
C1610 C 0.51356 0.25859 0.1628 0.0
C1611 C 0.53711 0.25623 0.2562 0.0
H1612 H 0.4852 0.24622 0.29412 0.0
C1613 C 0.49192 0.25056 0.407 0.0
C1614 C 0.49697 0.2687 0.4223 0.0
C1615 C 0.49833 0.24533 0.37081 0.0
C1616 C 0.49984 0.24879 0.28401 0.0
H1617 H 0.56242 0.23617 0.13001 0.0
H1618 H 0.55369 0.23507 0.19613 0.0
H1619 H 0.49176 0.24344 0.22652 0.0
H1620 H 0.51383 0.29485 0.41326 0.0
H1621 H 0.52575 0.28541 0.35134 0.0
H1622 H 0.54514 0.26198 0.3134 0.0
C1623 C 0.54371 0.24191 0.17659 0.0
C1624 C 0.50353 0.24745 0.24522 0.0
C1625 C 0.54866 0.24248 0.13849 0.0
C1626 C 0.50995 0.28065 0.40237 0.0
C1627 C 0.51666 0.27528 0.36672 0.0
C1628 C 0.53339 0.25777 0.29481 0.0
C1629 C 0.52632 0.25032 0.18949 0.0
C1630 C 0.5222 0.25125 0.23078 0.0
C1631 C 0.51025 0.25797 0.34975 0.0
C1632 C 0.51468 0.25423 0.30923 0.0
H1633 H 0.50882 0.26633 0.10477 0.0
H1634 H 0.50006 0.26527 0.17179 0.0
H1635 H 0.55163 0.25946 0.24612 0.0
H1636 H 0.48171 0.24119 0.42148 0.0
H1637 H 0.49332 0.23178 0.35868 0.0
C1638 C 0.69485 0.48404 0.43083 0.0
C1639 C 0.71014 0.47275 0.44518 0.0
C1640 C 0.69459 0.48942 0.39293 0.0
C1641 C 0.6907 0.49016 0.30863 0.0
H1642 H 0.73872 0.49738 0.25337 0.0
C1643 C 0.68985 0.5036 0.14848 0.0
C1644 C 0.70416 0.51584 0.13333 0.0
C1645 C 0.69107 0.49741 0.1859 0.0
C1646 C 0.72512 0.49572 0.26835 0.0
H1647 H 0.73708 0.45804 0.4314 0.0
H1648 H 0.73618 0.46645 0.3649 0.0
H1649 H 0.73996 0.49008 0.31994 0.0
H1650 H 0.73083 0.53142 0.14524 0.0
H1651 H 0.73246 0.52161 0.21081 0.0
H1652 H 0.67583 0.49714 0.25771 0.0
C1653 C 0.72472 0.4719 0.38291 0.0
C1654 C 0.72584 0.49113 0.30663 0.0
C1655 C 0.72521 0.46695 0.42105 0.0
C1656 C 0.71972 0.52177 0.15613 0.0
C1657 C 0.72069 0.516 0.19376 0.0
C1658 C 0.68997 0.49521 0.27058 0.0
C1659 C 0.70937 0.48319 0.36822 0.0
C1660 C 0.70864 0.48824 0.32737 0.0
C1661 C 0.70636 0.50375 0.20928 0.0
C1662 C 0.70717 0.49803 0.2498 0.0
H1663 H 0.68314 0.48884 0.44902 0.0
H1664 H 0.6828 0.49856 0.38315 0.0
H1665 H 0.6771 0.48769 0.32321 0.0
H1666 H 0.67778 0.49871 0.13132 0.0
H1667 H 0.67999 0.48761 0.19635 0.0
C1668 C 0.52076 0.7319 0.43044 0.0
C1669 C 0.53938 0.73847 0.4408 0.0
C1670 C 0.51421 0.73387 0.39311 0.0
C1671 C 0.53267 0.74168 0.29524 0.0
H1672 H 0.47916 0.7554 0.27389 0.0
C1673 C 0.47815 0.76631 0.16458 0.0
C1674 C 0.48304 0.75243 0.13717 0.0
C1675 C 0.48695 0.76604 0.20005 0.0
C1676 C 0.49424 0.75179 0.27925 0.0
H1677 H 0.56541 0.75278 0.41998 0.0
H1678 H 0.55396 0.75642 0.35587 0.0
H1679 H 0.48969 0.75173 0.33891 0.0
H1680 H 0.502 0.72813 0.12478 0.0
H1681 H 0.51748 0.72759 0.1867 0.0
H1682 H 0.53728 0.74205 0.23553 0.0
C1683 C 0.54453 0.74933 0.37608 0.0
C1684 C 0.5002 0.74937 0.31668 0.0
C1685 C 0.55105 0.74735 0.41313 0.0
C1686 C 0.49815 0.73925 0.14496 0.0
C1687 C 0.5069 0.73885 0.18073 0.0
C1688 C 0.5267 0.74408 0.25777 0.0
C1689 C 0.52612 0.74246 0.36532 0.0
C1690 C 0.51953 0.74439 0.32528 0.0
C1691 C 0.50075 0.7517 0.20931 0.0
C1692 C 0.50742 0.74931 0.24921 0.0
H1693 H 0.51143 0.72491 0.45094 0.0
H1694 H 0.49997 0.72829 0.38587 0.0
H1695 H 0.54762 0.73757 0.30064 0.0
H1696 H 0.46647 0.77658 0.15946 0.0
H1697 H 0.48224 0.77655 0.22083 0.0
C1698 C 0.27978 0.47628 0.1563 0.0
C1699 C 0.26436 0.48383 0.13481 0.0
C1700 C 0.28199 0.48151 0.194 0.0
C1701 C 0.25525 0.49887 0.27607 0.0
H1702 H 0.30583 0.51558 0.31189 0.0
C1703 C 0.26614 0.53027 0.42518 0.0
C1704 C 0.28364 0.52611 0.44399 0.0
C1705 C 0.26362 0.52492 0.38758 0.0
C1706 C 0.29167 0.51065 0.30258 0.0
H1707 H 0.23906 0.50269 0.13608 0.0
H1708 H 0.24279 0.51162 0.20233 0.0
H1709 H 0.30171 0.50658 0.24606 0.0
H1710 H 0.312 0.51261 0.43853 0.0
H1711 H 0.3074 0.50269 0.37334 0.0
H1712 H 0.24523 0.50244 0.3326 0.0
C1713 C 0.25317 0.50168 0.18982 0.0
C1714 C 0.28932 0.5056 0.2648 0.0
C1715 C 0.25111 0.49665 0.1519 0.0
C1716 C 0.29842 0.51617 0.42466 0.0
C1717 C 0.29581 0.5106 0.38719 0.0
C1718 C 0.25765 0.50368 0.31399 0.0
C1719 C 0.26868 0.49422 0.21115 0.0
C1720 C 0.27109 0.49969 0.25118 0.0
C1721 C 0.27844 0.51506 0.36804 0.0
C1722 C 0.27589 0.50968 0.32775 0.0
H1723 H 0.29032 0.46649 0.14395 0.0
H1724 H 0.294 0.47545 0.20989 0.0
H1725 H 0.24109 0.49414 0.26635 0.0
H1726 H 0.25451 0.53804 0.43923 0.0
H1727 H 0.25018 0.52889 0.37367 0.0
loop_
_geom_bond_atom_site_label_1
_geom_bond_atom_site_label_2
_geom_bond_distance
_geom_bond_site_symmetry_2
_ccdc_geom_bond_type
Co0 N4 2.148 . S
Co0 N10 2.128 . S
Co0 N20 2.194 . S
Co0 O25 2.351 . S
Co0 O26 2.155 . S
Co0 O27 2.096 1_554 S
C1 N4 1.301 . S
C1 N5 1.328 . S
C1 H6 0.930 . S
C2 C3 1.333 . S
C2 N4 1.317 1_556 S
C2 H7 0.930 . S
C3 C2 1.333 . S
C3 N5 1.350 1_556 S
C3 H29 0.931 . S
N4 Co0 2.148 . S
N4 C1 1.301 . S
N4 C2 1.317 1_554 S
N5 C1 1.328 . S
N5 C3 1.350 1_554 S
H6 C1 0.930 . S
H7 C2 0.930 . S
C8 O9 1.224 . S
C8 O27 1.247 . S
O9 C8 1.224 . S
N10 Co0 2.128 . S
N10 C11 1.355 . S
N10 C13 1.311 1_454 S
C11 N10 1.355 . S
C11 C12 1.363 1_455 S
C11 H23 0.929 . S
C12 C11 1.363 1_655 S
C12 N14 1.375 . S
C12 H30 0.931 . S
C13 N10 1.311 1_656 S
C13 N14 1.347 1_556 S
C13 H24 0.929 . S
N14 C12 1.375 . S
N14 C13 1.347 1_554 S
C15 C18 1.365 . S
C15 N20 1.328 . S
C15 H21 0.929 . S
C16 C17 1.362 1_556 S
C16 C19 1.378 . S
C16 H31 0.929 . S
C17 C16 1.362 1_554 S
C17 C18 1.366 . S
C18 C15 1.365 . S
C18 C17 1.366 . S
C18 H32 0.930 . S
C19 C16 1.378 . S
C19 N20 1.315 1_556 S
C19 H22 0.930 . S
N20 Co0 2.194 . S
N20 C15 1.328 . S
N20 C19 1.315 1_554 S
H21 C15 0.929 . S
H22 C19 0.930 . S
H23 C11 0.929 . S
H24 C13 0.929 . S
O25 Co0 2.351 . S
O25 C28 1.244 . S
O26 Co0 2.155 . S
O26 C28 1.240 . S
O27 Co0 2.096 1_556 S
O27 C8 1.247 . S
C28 O25 1.244 . S
C28 O26 1.240 . S
H29 C3 0.931 . S
H30 C12 0.931 . S
H31 C16 0.929 . S
H32 C18 0.930 . S
Co33 N37 2.148 . S
Co33 N43 2.128 . S
Co33 N53 2.194 . S
Co33 O58 2.351 . S
Co33 O59 2.155 . S
Co33 O60 2.096 1_554 S
C34 N37 1.301 . S
C34 N38 1.328 . S
C34 H39 0.930 . S
C35 C36 1.333 . S
C35 N37 1.317 1_556 S
C35 H40 0.930 . S
C36 C35 1.333 . S
C36 N38 1.350 1_556 S
C36 H62 0.931 . S
N37 Co33 2.148 . S
N37 C34 1.301 . S
N37 C35 1.317 1_554 S
N38 C34 1.328 . S
N38 C36 1.350 1_554 S
H39 C34 0.930 . S
H40 C35 0.930 . S
C41 O42 1.224 . S
C41 O60 1.247 . S
O42 C41 1.224 . S
N43 Co33 2.128 . S
N43 C44 1.355 . S
N43 C46 1.311 1_544 S
C44 N43 1.355 . S
C44 C45 1.363 1_545 S
C44 H56 0.929 . S
C45 C44 1.363 1_565 S
C45 N47 1.375 . S
C45 H63 0.931 . S
C46 N43 1.311 1_566 S
C46 N47 1.347 1_556 S
C46 H57 0.929 . S
N47 C45 1.375 . S
N47 C46 1.347 1_554 S
C48 C51 1.365 . S
C48 N53 1.328 . S
C48 H54 0.929 . S
C49 C50 1.362 1_556 S
C49 C52 1.378 . S
C49 H64 0.929 . S
C50 C49 1.362 1_554 S
C50 C51 1.366 . S
C51 C48 1.365 . S
C51 C50 1.366 . S
C51 H65 0.930 . S
C52 C49 1.378 . S
C52 N53 1.315 1_556 S
C52 H55 0.930 . S
N53 Co33 2.194 . S
N53 C48 1.328 . S
N53 C52 1.315 1_554 S
H54 C48 0.929 . S
H55 C52 0.930 . S
H56 C44 0.929 . S
H57 C46 0.929 . S
O58 Co33 2.351 . S
O58 C61 1.244 . S
O59 Co33 2.155 . S
O59 C61 1.240 . S
O60 Co33 2.096 1_556 S
O60 C41 1.247 . S
C61 O58 1.244 . S
C61 O59 1.240 . S
H62 C36 0.931 . S
H63 C45 0.931 . S
H64 C49 0.929 . S
H65 C51 0.930 . S
Co66 N70 2.148 . S
Co66 N76 2.128 . S
Co66 N86 2.194 . S
Co66 O91 2.351 . S
Co66 O92 2.155 . S
Co66 O93 2.096 1_554 S
C67 N70 1.301 . S
C67 N71 1.328 . S
C67 H72 0.930 . S
C68 C69 1.333 . S
C68 N70 1.317 1_556 S
C68 H73 0.930 . S
C69 C68 1.333 . S
C69 N71 1.350 1_556 S
C69 H95 0.931 . S
N70 Co66 2.148 . S
N70 C67 1.301 . S
N70 C68 1.317 1_554 S
N71 C67 1.328 . S
N71 C69 1.350 1_554 S
H72 C67 0.930 . S
H73 C68 0.930 . S
C74 O75 1.224 . S
C74 O93 1.247 . S
O75 C74 1.224 . S
N76 Co66 2.128 . S
N76 C77 1.355 . S
N76 C79 1.311 1_654 S
C77 N76 1.355 . S
C77 C78 1.363 1_655 S
C77 H89 0.929 . S
C78 C77 1.363 1_455 S
C78 N80 1.375 . S
C78 H96 0.931 . S
C79 N76 1.311 1_456 S
C79 N80 1.347 1_556 S
C79 H90 0.929 . S
N80 C78 1.375 . S
N80 C79 1.347 1_554 S
C81 C84 1.365 . S
C81 N86 1.328 . S
C81 H87 0.929 . S
C82 C83 1.362 1_556 S
C82 C85 1.378 . S
C82 H97 0.929 . S
C83 C82 1.362 1_554 S
C83 C84 1.366 . S
C84 C81 1.365 . S
C84 C83 1.366 . S
C84 H98 0.930 . S
C85 C82 1.378 . S
C85 N86 1.315 1_556 S
C85 H88 0.930 . S
N86 Co66 2.194 . S
N86 C81 1.328 . S
N86 C85 1.315 1_554 S
H87 C81 0.929 . S
H88 C85 0.930 . S
H89 C77 0.929 . S
H90 C79 0.929 . S
O91 Co66 2.351 . S
O91 C94 1.244 . S
O92 Co66 2.155 . S
O92 C94 1.240 . S
O93 Co66 2.096 1_556 S
O93 C74 1.247 . S
C94 O91 1.244 . S
C94 O92 1.240 . S
H95 C69 0.931 . S
H96 C78 0.931 . S
H97 C82 0.929 . S
H98 C84 0.930 . S
Co99 N103 2.148 . S
Co99 N109 2.128 . S
Co99 N119 2.194 . S
Co99 O124 2.351 . S
Co99 O125 2.155 . S
Co99 O126 2.096 1_554 S
C100 N103 1.301 . S
C100 N104 1.328 . S
C100 H105 0.930 . S
C101 C102 1.333 . S
C101 N103 1.317 1_556 S
C101 H106 0.930 . S
C102 C101 1.333 . S
C102 N104 1.350 1_556 S
C102 H128 0.931 . S
N103 Co99 2.148 . S
N103 C100 1.301 . S
N103 C101 1.317 1_554 S
N104 C100 1.328 . S
N104 C102 1.350 1_554 S
H105 C100 0.930 . S
H106 C101 0.930 . S
C107 O108 1.224 . S
C107 O126 1.247 . S
O108 C107 1.224 . S
N109 Co99 2.128 . S
N109 C110 1.355 . S
N109 C112 1.311 1_564 S
C110 N109 1.355 . S
C110 C111 1.363 1_565 S
C110 H122 0.929 . S
C111 C110 1.363 1_545 S
C111 N113 1.375 . S
C111 H129 0.931 . S
C112 N109 1.311 1_546 S
C112 N113 1.347 1_556 S
C112 H123 0.929 . S
N113 C111 1.375 . S
N113 C112 1.347 1_554 S
C114 C117 1.365 . S
C114 N119 1.328 . S
C114 H120 0.929 . S
C115 C116 1.362 1_556 S
C115 C118 1.378 . S
C115 H130 0.929 . S
C116 C115 1.362 1_554 S
C116 C117 1.366 . S
C117 C114 1.365 . S
C117 C116 1.366 . S
C117 H131 0.930 . S
C118 C115 1.378 . S
C118 N119 1.315 1_556 S
C118 H121 0.930 . S
N119 Co99 2.194 . S
N119 C114 1.328 . S
N119 C118 1.315 1_554 S
H120 C114 0.929 . S
H121 C118 0.930 . S
H122 C110 0.929 . S
H123 C112 0.929 . S
O124 Co99 2.351 . S
O124 C127 1.244 . S
O125 Co99 2.155 . S
O125 C127 1.240 . S
O126 Co99 2.096 1_556 S
O126 C107 1.247 . S
C127 O124 1.244 . S
C127 O125 1.240 . S
H128 C102 0.931 . S
H129 C111 0.931 . S
H130 C115 0.929 . S
H131 C117 0.930 . S
Co132 N136 2.148 . S
Co132 N142 2.128 . S
Co132 N152 2.194 . S
Co132 O157 2.351 . S
Co132 O158 2.155 . S
Co132 O159 2.096 . S
C133 N136 1.301 . S
C133 N137 1.328 . S
C133 H138 0.930 . S
C134 C135 1.333 . S
C134 N136 1.317 . S
C134 H139 0.930 . S
C135 C134 1.333 . S
C135 N137 1.350 . S
C135 H161 0.931 . S
N136 Co132 2.148 . S
N136 C133 1.301 . S
N136 C134 1.317 . S
N137 C133 1.328 . S
N137 C135 1.350 . S
H138 C133 0.930 . S
H139 C134 0.930 . S
C140 O141 1.224 . S
C140 O159 1.247 . S
O141 C140 1.224 . S
N142 Co132 2.128 . S
N142 C143 1.355 . S
N142 C145 1.311 1_455 S
C143 N142 1.355 . S
C143 C144 1.363 1_455 S
C143 H155 0.929 . S
C144 C143 1.363 1_655 S
C144 N146 1.375 . S
C144 H162 0.931 . S
C145 N142 1.311 1_655 S
C145 N146 1.347 . S
C145 H156 0.929 . S
N146 C144 1.375 . S
N146 C145 1.347 . S
C147 C150 1.365 . S
C147 N152 1.328 . S
C147 H153 0.929 . S
C148 C149 1.362 . S
C148 C151 1.378 . S
C148 H163 0.929 . S
C149 C148 1.362 . S
C149 C150 1.366 . S
C150 C147 1.365 . S
C150 C149 1.366 . S
C150 H164 0.930 . S
C151 C148 1.378 . S
C151 N152 1.315 . S
C151 H154 0.930 . S
N152 Co132 2.194 . S
N152 C147 1.328 . S
N152 C151 1.315 . S
H153 C147 0.929 . S
H154 C151 0.930 . S
H155 C143 0.929 . S
H156 C145 0.929 . S
O157 Co132 2.351 . S
O157 C160 1.244 . S
O158 Co132 2.155 . S
O158 C160 1.240 . S
O159 Co132 2.096 . S
O159 C140 1.247 . S
C160 O157 1.244 . S
C160 O158 1.240 . S
H161 C135 0.931 . S
H162 C144 0.931 . S
H163 C148 0.929 . S
H164 C150 0.930 . S
Co165 N169 2.148 . S
Co165 N175 2.128 . S
Co165 N185 2.194 . S
Co165 O190 2.351 . S
Co165 O191 2.155 . S
Co165 O192 2.096 . S
C166 N169 1.301 . S
C166 N170 1.328 . S
C166 H171 0.930 . S
C167 C168 1.333 . S
C167 N169 1.317 . S
C167 H172 0.930 . S
C168 C167 1.333 . S
C168 N170 1.350 . S
C168 H194 0.931 . S
N169 Co165 2.148 . S
N169 C166 1.301 . S
N169 C167 1.317 . S
N170 C166 1.328 . S
N170 C168 1.350 . S
H171 C166 0.930 . S
H172 C167 0.930 . S
C173 O174 1.224 . S
C173 O192 1.247 . S
O174 C173 1.224 . S
N175 Co165 2.128 . S
N175 C176 1.355 . S
N175 C178 1.311 1_545 S
C176 N175 1.355 . S
C176 C177 1.363 1_545 S
C176 H188 0.929 . S
C177 C176 1.363 1_565 S
C177 N179 1.375 . S
C177 H195 0.931 . S
C178 N175 1.311 1_565 S
C178 N179 1.347 . S
C178 H189 0.929 . S
N179 C177 1.375 . S
N179 C178 1.347 . S
C180 C183 1.365 . S
C180 N185 1.328 . S
C180 H186 0.929 . S
C181 C182 1.362 . S
C181 C184 1.378 . S
C181 H196 0.929 . S
C182 C181 1.362 . S
C182 C183 1.366 . S
C183 C180 1.365 . S
C183 C182 1.366 . S
C183 H197 0.930 . S
C184 C181 1.378 . S
C184 N185 1.315 . S
C184 H187 0.930 . S
N185 Co165 2.194 . S
N185 C180 1.328 . S
N185 C184 1.315 . S
H186 C180 0.929 . S
H187 C184 0.930 . S
H188 C176 0.929 . S
H189 C178 0.929 . S
O190 Co165 2.351 . S
O190 C193 1.244 . S
O191 Co165 2.155 . S
O191 C193 1.240 . S
O192 Co165 2.096 . S
O192 C173 1.247 . S
C193 O190 1.244 . S
C193 O191 1.240 . S
H194 C168 0.931 . S
H195 C177 0.931 . S
H196 C181 0.929 . S
H197 C183 0.930 . S
Co198 N202 2.148 . S
Co198 N208 2.128 . S
Co198 N218 2.194 . S
Co198 O223 2.351 . S
Co198 O224 2.155 . S
Co198 O225 2.096 . S
C199 N202 1.301 . S
C199 N203 1.328 . S
C199 H204 0.930 . S
C200 C201 1.333 . S
C200 N202 1.317 . S
C200 H205 0.930 . S
C201 C200 1.333 . S
C201 N203 1.350 . S
C201 H227 0.931 . S
N202 Co198 2.148 . S
N202 C199 1.301 . S
N202 C200 1.317 . S
N203 C199 1.328 . S
N203 C201 1.350 . S
H204 C199 0.930 . S
H205 C200 0.930 . S
C206 O207 1.224 . S
C206 O225 1.247 . S
O207 C206 1.224 . S
N208 Co198 2.128 . S
N208 C209 1.355 . S
N208 C211 1.311 1_655 S
C209 N208 1.355 . S
C209 C210 1.363 1_655 S
C209 H221 0.929 . S
C210 C209 1.363 1_455 S
C210 N212 1.375 . S
C210 H228 0.931 . S
C211 N208 1.311 1_455 S
C211 N212 1.347 . S
C211 H222 0.929 . S
N212 C210 1.375 . S
N212 C211 1.347 . S
C213 C216 1.365 . S
C213 N218 1.328 . S
C213 H219 0.929 . S
C214 C215 1.362 . S
C214 C217 1.378 . S
C214 H229 0.929 . S
C215 C214 1.362 . S
C215 C216 1.366 . S
C216 C213 1.365 . S
C216 C215 1.366 . S
C216 H230 0.930 . S
C217 C214 1.378 . S
C217 N218 1.315 . S
C217 H220 0.930 . S
N218 Co198 2.194 . S
N218 C213 1.328 . S
N218 C217 1.315 . S
H219 C213 0.929 . S
H220 C217 0.930 . S
H221 C209 0.929 . S
H222 C211 0.929 . S
O223 Co198 2.351 . S
O223 C226 1.244 . S
O224 Co198 2.155 . S
O224 C226 1.240 . S
O225 Co198 2.096 . S
O225 C206 1.247 . S
C226 O223 1.244 . S
C226 O224 1.240 . S
H227 C201 0.931 . S
H228 C210 0.931 . S
H229 C214 0.929 . S
H230 C216 0.930 . S
Co231 N235 2.148 . S
Co231 N241 2.128 . S
Co231 N251 2.194 . S
Co231 O256 2.351 . S
Co231 O257 2.155 . S
Co231 O258 2.096 . S
C232 N235 1.301 . S
C232 N236 1.328 . S
C232 H237 0.930 . S
C233 C234 1.333 . S
C233 N235 1.317 . S
C233 H238 0.930 . S
C234 C233 1.333 . S
C234 N236 1.350 . S
C234 H260 0.931 . S
N235 Co231 2.148 . S
N235 C232 1.301 . S
N235 C233 1.317 . S
N236 C232 1.328 . S
N236 C234 1.350 . S
H237 C232 0.930 . S
H238 C233 0.930 . S
C239 O240 1.224 . S
C239 O258 1.247 . S
O240 C239 1.224 . S
N241 Co231 2.128 . S
N241 C242 1.355 . S
N241 C244 1.311 1_565 S
C242 N241 1.355 . S
C242 C243 1.363 1_565 S
C242 H254 0.929 . S
C243 C242 1.363 1_545 S
C243 N245 1.375 . S
C243 H261 0.931 . S
C244 N241 1.311 1_545 S
C244 N245 1.347 . S
C244 H255 0.929 . S
N245 C243 1.375 . S
N245 C244 1.347 . S
C246 C249 1.365 . S
C246 N251 1.328 . S
C246 H252 0.929 . S
C247 C248 1.362 . S
C247 C250 1.378 . S
C247 H262 0.929 . S
C248 C247 1.362 . S
C248 C249 1.366 . S
C249 C246 1.365 . S
C249 C248 1.366 . S
C249 H263 0.930 . S
C250 C247 1.378 . S
C250 N251 1.315 . S
C250 H253 0.930 . S
N251 Co231 2.194 . S
N251 C246 1.328 . S
N251 C250 1.315 . S
H252 C246 0.929 . S
H253 C250 0.930 . S
H254 C242 0.929 . S
H255 C244 0.929 . S
O256 Co231 2.351 . S
O256 C259 1.244 . S
O257 Co231 2.155 . S
O257 C259 1.240 . S
O258 Co231 2.096 . S
O258 C239 1.247 . S
C259 O256 1.244 . S
C259 O257 1.240 . S
H260 C234 0.931 . S
H261 C243 0.931 . S
H262 C247 0.929 . S
H263 C249 0.930 . S
Co264 N268 2.148 . S
Co264 N274 2.128 . S
Co264 N284 2.194 . S
Co264 O289 2.351 . S
Co264 O290 2.155 . S
Co264 O291 2.096 . S
C265 N268 1.301 . S
C265 N269 1.328 . S
C265 H270 0.930 . S
C266 C267 1.333 . S
C266 N268 1.317 . S
C266 H271 0.930 . S
C267 C266 1.333 . S
C267 N269 1.350 . S
C267 H293 0.931 . S
N268 Co264 2.148 . S
N268 C265 1.301 . S
N268 C266 1.317 . S
N269 C265 1.328 . S
N269 C267 1.350 . S
H270 C265 0.930 . S
H271 C266 0.930 . S
C272 O273 1.224 . S
C272 O291 1.247 . S
O273 C272 1.224 . S
N274 Co264 2.128 . S
N274 C275 1.355 . S
N274 C277 1.311 . S
C275 N274 1.355 . S
C275 C276 1.363 . S
C275 H287 0.929 . S
C276 C275 1.363 . S
C276 N278 1.375 . S
C276 H294 0.931 . S
C277 N274 1.311 . S
C277 N278 1.347 . S
C277 H288 0.929 . S
N278 C276 1.375 . S
N278 C277 1.347 . S
C279 C282 1.365 . S
C279 N284 1.328 . S
C279 H285 0.929 . S
C280 C281 1.362 . S
C280 C283 1.378 . S
C280 H295 0.929 . S
C281 C280 1.362 . S
C281 C282 1.366 . S
C282 C279 1.365 . S
C282 C281 1.366 . S
C282 H296 0.930 . S
C283 C280 1.378 . S
C283 N284 1.315 . S
C283 H286 0.930 . S
N284 Co264 2.194 . S
N284 C279 1.328 . S
N284 C283 1.315 . S
H285 C279 0.929 . S
H286 C283 0.930 . S
H287 C275 0.929 . S
H288 C277 0.929 . S
O289 Co264 2.351 . S
O289 C292 1.244 . S
O290 Co264 2.155 . S
O290 C292 1.240 . S
O291 Co264 2.096 . S
O291 C272 1.247 . S
C292 O289 1.244 . S
C292 O290 1.240 . S
H293 C267 0.931 . S
H294 C276 0.931 . S
H295 C280 0.929 . S
H296 C282 0.930 . S
Co297 N301 2.148 . S
Co297 N307 2.128 . S
Co297 N317 2.194 . S
Co297 O322 2.351 . S
Co297 O323 2.155 . S
Co297 O324 2.096 . S
C298 N301 1.301 . S
C298 N302 1.328 . S
C298 H303 0.930 . S
C299 C300 1.333 . S
C299 N301 1.317 . S
C299 H304 0.930 . S
C300 C299 1.333 . S
C300 N302 1.350 . S
C300 H326 0.931 . S
N301 Co297 2.148 . S
N301 C298 1.301 . S
N301 C299 1.317 . S
N302 C298 1.328 . S
N302 C300 1.350 . S
H303 C298 0.930 . S
H304 C299 0.930 . S
C305 O306 1.224 . S
C305 O324 1.247 . S
O306 C305 1.224 . S
N307 Co297 2.128 . S
N307 C308 1.355 . S
N307 C310 1.311 . S
C308 N307 1.355 . S
C308 C309 1.363 . S
C308 H320 0.929 . S
C309 C308 1.363 . S
C309 N311 1.375 . S
C309 H327 0.931 . S
C310 N307 1.311 . S
C310 N311 1.347 . S
C310 H321 0.929 . S
N311 C309 1.375 . S
N311 C310 1.347 . S
C312 C315 1.365 . S
C312 N317 1.328 . S
C312 H318 0.929 . S
C313 C314 1.362 . S
C313 C316 1.378 . S
C313 H328 0.929 . S
C314 C313 1.362 . S
C314 C315 1.366 . S
C315 C312 1.365 . S
C315 C314 1.366 . S
C315 H329 0.930 . S
C316 C313 1.378 . S
C316 N317 1.315 . S
C316 H319 0.930 . S
N317 Co297 2.194 . S
N317 C312 1.328 . S
N317 C316 1.315 . S
H318 C312 0.929 . S
H319 C316 0.930 . S
H320 C308 0.929 . S
H321 C310 0.929 . S
O322 Co297 2.351 . S
O322 C325 1.244 . S
O323 Co297 2.155 . S
O323 C325 1.240 . S
O324 Co297 2.096 . S
O324 C305 1.247 . S
C325 O322 1.244 . S
C325 O323 1.240 . S
H326 C300 0.931 . S
H327 C309 0.931 . S
H328 C313 0.929 . S
H329 C315 0.930 . S
Co330 N334 2.148 . S
Co330 N340 2.128 . S
Co330 N350 2.194 . S
Co330 O355 2.351 . S
Co330 O356 2.155 . S
Co330 O357 2.096 . S
C331 N334 1.301 . S
C331 N335 1.328 . S
C331 H336 0.930 . S
C332 C333 1.333 . S
C332 N334 1.317 . S
C332 H337 0.930 . S
C333 C332 1.333 . S
C333 N335 1.350 . S
C333 H359 0.931 . S
N334 Co330 2.148 . S
N334 C331 1.301 . S
N334 C332 1.317 . S
N335 C331 1.328 . S
N335 C333 1.350 . S
H336 C331 0.930 . S
H337 C332 0.930 . S
C338 O339 1.224 . S
C338 O357 1.247 . S
O339 C338 1.224 . S
N340 Co330 2.128 . S
N340 C341 1.355 . S
N340 C343 1.311 . S
C341 N340 1.355 . S
C341 C342 1.363 . S
C341 H353 0.929 . S
C342 C341 1.363 . S
C342 N344 1.375 . S
C342 H360 0.931 . S
C343 N340 1.311 . S
C343 N344 1.347 . S
C343 H354 0.929 . S
N344 C342 1.375 . S
N344 C343 1.347 . S
C345 C348 1.365 . S
C345 N350 1.328 . S
C345 H351 0.929 . S
C346 C347 1.362 . S
C346 C349 1.378 . S
C346 H361 0.929 . S
C347 C346 1.362 . S
C347 C348 1.366 . S
C348 C345 1.365 . S
C348 C347 1.366 . S
C348 H362 0.930 . S
C349 C346 1.378 . S
C349 N350 1.315 . S
C349 H352 0.930 . S
N350 Co330 2.194 . S
N350 C345 1.328 . S
N350 C349 1.315 . S
H351 C345 0.929 . S
H352 C349 0.930 . S
H353 C341 0.929 . S
H354 C343 0.929 . S
O355 Co330 2.351 . S
O355 C358 1.244 . S
O356 Co330 2.155 . S
O356 C358 1.240 . S
O357 Co330 2.096 . S
O357 C338 1.247 . S
C358 O355 1.244 . S
C358 O356 1.240 . S
H359 C333 0.931 . S
H360 C342 0.931 . S
H361 C346 0.929 . S
H362 C348 0.930 . S
Co363 N367 2.148 . S
Co363 N373 2.128 . S
Co363 N383 2.194 . S
Co363 O388 2.351 . S
Co363 O389 2.155 . S
Co363 O390 2.096 . S
C364 N367 1.301 . S
C364 N368 1.328 . S
C364 H369 0.930 . S
C365 C366 1.333 . S
C365 N367 1.317 . S
C365 H370 0.930 . S
C366 C365 1.333 . S
C366 N368 1.350 . S
C366 H392 0.931 . S
N367 Co363 2.148 . S
N367 C364 1.301 . S
N367 C365 1.317 . S
N368 C364 1.328 . S
N368 C366 1.350 . S
H369 C364 0.930 . S
H370 C365 0.930 . S
C371 O372 1.224 . S
C371 O390 1.247 . S
O372 C371 1.224 . S
N373 Co363 2.128 . S
N373 C374 1.355 . S
N373 C376 1.311 . S
C374 N373 1.355 . S
C374 C375 1.363 . S
C374 H386 0.929 . S
C375 C374 1.363 . S
C375 N377 1.375 . S
C375 H393 0.931 . S
C376 N373 1.311 . S
C376 N377 1.347 . S
C376 H387 0.929 . S
N377 C375 1.375 . S
N377 C376 1.347 . S
C378 C381 1.365 . S
C378 N383 1.328 . S
C378 H384 0.929 . S
C379 C380 1.362 . S
C379 C382 1.378 . S
C379 H394 0.929 . S
C380 C379 1.362 . S
C380 C381 1.366 . S
C381 C378 1.365 . S
C381 C380 1.366 . S
C381 H395 0.930 . S
C382 C379 1.378 . S
C382 N383 1.315 . S
C382 H385 0.930 . S
N383 Co363 2.194 . S
N383 C378 1.328 . S
N383 C382 1.315 . S
H384 C378 0.929 . S
H385 C382 0.930 . S
H386 C374 0.929 . S
H387 C376 0.929 . S
O388 Co363 2.351 . S
O388 C391 1.244 . S
O389 Co363 2.155 . S
O389 C391 1.240 . S
O390 Co363 2.096 . S
O390 C371 1.247 . S
C391 O388 1.244 . S
C391 O389 1.240 . S
H392 C366 0.931 . S
H393 C375 0.931 . S
H394 C379 0.929 . S
H395 C381 0.930 . S
Co396 N400 2.148 . S
Co396 N406 2.128 . S
Co396 N416 2.194 . S
Co396 O421 2.351 1_554 S
Co396 O422 2.155 . S
Co396 O423 2.096 . S
C397 N400 1.301 . S
C397 N401 1.328 . S
C397 H402 0.930 . S
C398 C399 1.333 . S
C398 N400 1.317 . S
C398 H403 0.930 . S
C399 C398 1.333 . S
C399 N401 1.350 . S
C399 H425 0.931 . S
N400 Co396 2.148 . S
N400 C397 1.301 . S
N400 C398 1.317 . S
N401 C397 1.328 . S
N401 C399 1.350 . S
H402 C397 0.930 . S
H403 C398 0.930 . S
C404 O405 1.224 . S
C404 O423 1.247 . S
O405 C404 1.224 . S
N406 Co396 2.128 . S
N406 C407 1.355 . S
N406 C409 1.311 . S
C407 N406 1.355 . S
C407 C408 1.363 . S
C407 H419 0.929 . S
C408 C407 1.363 . S
C408 N410 1.375 . S
C408 H426 0.931 . S
C409 N406 1.311 . S
C409 N410 1.347 . S
C409 H420 0.929 . S
N410 C408 1.375 . S
N410 C409 1.347 . S
C411 C414 1.365 . S
C411 N416 1.328 . S
C411 H417 0.929 1_554 S
C412 C413 1.362 . S
C412 C415 1.378 . S
C412 H427 0.929 . S
C413 C412 1.362 . S
C413 C414 1.366 . S
C414 C411 1.365 . S
C414 C413 1.366 . S
C414 H428 0.947 . S
C415 C412 1.378 . S
C415 N416 1.315 . S
C415 H418 0.930 . S
N416 Co396 2.194 . S
N416 C411 1.328 . S
N416 C415 1.315 . S
H417 C411 0.929 1_556 S
H418 C415 0.930 . S
H419 C407 0.929 . S
H420 C409 0.929 . S
O421 Co396 2.351 1_556 S
O421 C424 1.244 . S
O422 Co396 2.155 . S
O422 C424 1.240 1_554 S
O423 Co396 2.096 . S
O423 C404 1.247 . S
C424 O421 1.244 . S
C424 O422 1.240 1_556 S
H425 C399 0.931 . S
H426 C408 0.931 . S
H427 C412 0.929 . S
H428 C414 0.947 . S
Co429 N433 2.148 . S
Co429 N439 2.128 . S
Co429 N449 2.194 . S
Co429 O454 2.351 1_554 S
Co429 O455 2.155 . S
Co429 O456 2.096 . S
C430 N433 1.301 . S
C430 N434 1.328 . S
C430 H435 0.930 . S
C431 C432 1.333 . S
C431 N433 1.317 . S
C431 H436 0.930 . S
C432 C431 1.333 . S
C432 N434 1.350 . S
C432 H458 0.931 . S
N433 Co429 2.148 . S
N433 C430 1.301 . S
N433 C431 1.317 . S
N434 C430 1.328 . S
N434 C432 1.350 . S
H435 C430 0.930 . S
H436 C431 0.930 . S
C437 O438 1.224 . S
C437 O456 1.247 . S
O438 C437 1.224 . S
N439 Co429 2.128 . S
N439 C440 1.355 . S
N439 C442 1.311 . S
C440 N439 1.355 . S
C440 C441 1.363 . S
C440 H452 0.929 . S
C441 C440 1.363 . S
C441 N443 1.375 . S
C441 H459 0.931 . S
C442 N439 1.311 . S
C442 N443 1.347 . S
C442 H453 0.929 . S
N443 C441 1.375 . S
N443 C442 1.347 . S
C444 C447 1.365 . S
C444 N449 1.328 . S
C444 H450 0.929 1_554 S
C445 C446 1.362 . S
C445 C448 1.378 . S
C445 H460 0.929 . S
C446 C445 1.362 . S
C446 C447 1.366 . S
C447 C444 1.365 . S
C447 C446 1.366 . S
C447 H461 0.947 . S
C448 C445 1.378 . S
C448 N449 1.315 . S
C448 H451 0.930 . S
N449 Co429 2.194 . S
N449 C444 1.328 . S
N449 C448 1.315 . S
H450 C444 0.929 1_556 S
H451 C448 0.930 . S
H452 C440 0.929 . S
H453 C442 0.929 . S
O454 Co429 2.351 1_556 S
O454 C457 1.244 . S
O455 Co429 2.155 . S
O455 C457 1.240 1_554 S
O456 Co429 2.096 . S
O456 C437 1.247 . S
C457 O454 1.244 . S
C457 O455 1.240 1_556 S
H458 C432 0.931 . S
H459 C441 0.931 . S
H460 C445 0.929 . S
H461 C447 0.947 . S
Co462 N466 2.148 . S
Co462 N472 2.128 . S
Co462 N482 2.194 . S
Co462 O487 2.351 1_554 S
Co462 O488 2.155 . S
Co462 O489 2.096 . S
C463 N466 1.301 . S
C463 N467 1.328 . S
C463 H468 0.930 . S
C464 C465 1.333 . S
C464 N466 1.317 . S
C464 H469 0.930 . S
C465 C464 1.333 . S
C465 N467 1.350 . S
C465 H491 0.931 . S
N466 Co462 2.148 . S
N466 C463 1.301 . S
N466 C464 1.317 . S
N467 C463 1.328 . S
N467 C465 1.350 . S
H468 C463 0.930 . S
H469 C464 0.930 . S
C470 O471 1.224 . S
C470 O489 1.247 . S
O471 C470 1.224 . S
N472 Co462 2.128 . S
N472 C473 1.355 . S
N472 C475 1.311 . S
C473 N472 1.355 . S
C473 C474 1.363 . S
C473 H485 0.929 . S
C474 C473 1.363 . S
C474 N476 1.375 . S
C474 H492 0.931 . S
C475 N472 1.311 . S
C475 N476 1.347 . S
C475 H486 0.929 . S
N476 C474 1.375 . S
N476 C475 1.347 . S
C477 C480 1.365 . S
C477 N482 1.328 . S
C477 H483 0.929 1_554 S
C478 C479 1.362 . S
C478 C481 1.378 . S
C478 H493 0.929 . S
C479 C478 1.362 . S
C479 C480 1.366 . S
C480 C477 1.365 . S
C480 C479 1.366 . S
C480 H494 0.947 . S
C481 C478 1.378 . S
C481 N482 1.315 . S
C481 H484 0.930 . S
N482 Co462 2.194 . S
N482 C477 1.328 . S
N482 C481 1.315 . S
H483 C477 0.929 1_556 S
H484 C481 0.930 . S
H485 C473 0.929 . S
H486 C475 0.929 . S
O487 Co462 2.351 1_556 S
O487 C490 1.244 . S
O488 Co462 2.155 . S
O488 C490 1.240 1_554 S
O489 Co462 2.096 . S
O489 C470 1.247 . S
C490 O487 1.244 . S
C490 O488 1.240 1_556 S
H491 C465 0.931 . S
H492 C474 0.931 . S
H493 C478 0.929 . S
H494 C480 0.947 . S
Co495 N499 2.148 . S
Co495 N505 2.128 . S
Co495 N515 2.194 . S
Co495 O520 2.351 1_554 S
Co495 O521 2.155 . S
Co495 O522 2.096 . S
C496 N499 1.301 . S
C496 N500 1.328 . S
C496 H501 0.930 . S
C497 C498 1.333 . S
C497 N499 1.317 . S
C497 H502 0.930 . S
C498 C497 1.333 . S
C498 N500 1.350 . S
C498 H524 0.931 . S
N499 Co495 2.148 . S
N499 C496 1.301 . S
N499 C497 1.317 . S
N500 C496 1.328 . S
N500 C498 1.350 . S
H501 C496 0.930 . S
H502 C497 0.930 . S
C503 O504 1.224 . S
C503 O522 1.247 . S
O504 C503 1.224 . S
N505 Co495 2.128 . S
N505 C506 1.355 . S
N505 C508 1.311 . S
C506 N505 1.355 . S
C506 C507 1.363 . S
C506 H518 0.929 . S
C507 C506 1.363 . S
C507 N509 1.375 . S
C507 H525 0.931 . S
C508 N505 1.311 . S
C508 N509 1.347 . S
C508 H519 0.929 . S
N509 C507 1.375 . S
N509 C508 1.347 . S
C510 C513 1.365 . S
C510 N515 1.328 . S
C510 H516 0.929 1_554 S
C511 C512 1.362 . S
C511 C514 1.378 . S
C511 H526 0.929 . S
C512 C511 1.362 . S
C512 C513 1.366 . S
C513 C510 1.365 . S
C513 C512 1.366 . S
C513 H527 0.947 . S
C514 C511 1.378 . S
C514 N515 1.315 . S
C514 H517 0.930 . S
N515 Co495 2.194 . S
N515 C510 1.328 . S
N515 C514 1.315 . S
H516 C510 0.929 1_556 S
H517 C514 0.930 . S
H518 C506 0.929 . S
H519 C508 0.929 . S
O520 Co495 2.351 1_556 S
O520 C523 1.244 . S
O521 Co495 2.155 . S
O521 C523 1.240 1_554 S
O522 Co495 2.096 . S
O522 C503 1.247 . S
C523 O520 1.244 . S
C523 O521 1.240 1_556 S
H524 C498 0.931 . S
H525 C507 0.931 . S
H526 C511 0.929 . S
H527 C513 0.947 . S
C528 C529 1.349 . S
C528 C530 1.327 . S
C528 H553 0.950 . S
C529 C528 1.349 . S
C529 C545 1.349 . S
C530 C528 1.327 . S
C530 C549 1.429 . S
C530 H554 0.950 . S
C531 C548 1.574 . S
C531 C550 1.368 . S
C531 H555 0.949 1_554 S
H532 C536 0.949 . S
C533 C534 1.349 . S
C533 C535 1.327 . S
C533 H556 0.950 1_554 S
C534 C533 1.349 . S
C534 C546 1.349 . S
C535 C533 1.327 . S
C535 C551 1.429 . S
C535 H557 0.950 1_554 S
C536 H532 0.949 . S
C536 C544 1.574 . S
C536 C552 1.368 . S
H537 C545 0.950 1_556 S
H538 C543 0.950 1_556 S
H539 C544 0.949 . S
H540 C546 0.950 . S
H541 C547 0.950 . S
H542 C548 0.949 1_556 S
C543 H538 0.950 1_554 S
C543 C545 1.327 . S
C543 C549 1.429 . S
C544 C536 1.574 . S
C544 H539 0.949 . S
C544 C550 1.368 . S
C545 C529 1.349 . S
C545 H537 0.950 1_554 S
C545 C543 1.327 . S
C546 C534 1.349 . S
C546 H540 0.950 . S
C546 C547 1.327 . S
C547 H541 0.950 . S
C547 C546 1.327 . S
C547 C551 1.429 . S
C548 C531 1.574 . S
C548 H542 0.949 1_554 S
C548 C552 1.368 . S
C549 C530 1.429 . S
C549 C543 1.429 . S
C549 C550 1.523 . S
C550 C531 1.368 . S
C550 C544 1.368 . S
C550 C549 1.523 . S
C551 C535 1.429 . S
C551 C547 1.429 . S
C551 C552 1.523 . S
C552 C536 1.368 . S
C552 C548 1.368 . S
C552 C551 1.523 . S
H553 C528 0.950 . S
H554 C530 0.950 . S
H555 C531 0.949 1_556 S
H556 C533 0.950 1_556 S
H557 C535 0.950 1_556 S
C558 C559 1.349 . S
C558 C560 1.327 . S
C558 H583 0.950 . S
C559 C558 1.349 . S
C559 C575 1.349 . S
C560 C558 1.327 . S
C560 C579 1.429 . S
C560 H584 0.950 . S
C561 C578 1.574 . S
C561 C580 1.368 . S
C561 H585 0.949 1_554 S
H562 C566 0.949 . S
C563 C564 1.349 . S
C563 C565 1.327 . S
C563 H586 0.950 1_554 S
C564 C563 1.349 . S
C564 C576 1.349 . S
C565 C563 1.327 . S
C565 C581 1.429 . S
C565 H587 0.950 1_554 S
C566 H562 0.949 . S
C566 C574 1.574 . S
C566 C582 1.368 . S
H567 C575 0.950 1_556 S
H568 C573 0.950 1_556 S
H569 C574 0.949 . S
H570 C576 0.950 . S
H571 C577 0.950 . S
H572 C578 0.949 1_556 S
C573 H568 0.950 1_554 S
C573 C575 1.327 . S
C573 C579 1.429 . S
C574 C566 1.574 . S
C574 H569 0.949 . S
C574 C580 1.368 . S
C575 C559 1.349 . S
C575 H567 0.950 1_554 S
C575 C573 1.327 . S
C576 C564 1.349 . S
C576 H570 0.950 . S
C576 C577 1.327 . S
C577 H571 0.950 . S
C577 C576 1.327 . S
C577 C581 1.429 . S
C578 C561 1.574 . S
C578 H572 0.949 1_554 S
C578 C582 1.368 . S
C579 C560 1.429 . S
C579 C573 1.429 . S
C579 C580 1.523 . S
C580 C561 1.368 . S
C580 C574 1.368 . S
C580 C579 1.523 . S
C581 C565 1.429 . S
C581 C577 1.429 . S
C581 C582 1.523 . S
C582 C566 1.368 . S
C582 C578 1.368 . S
C582 C581 1.523 . S
H583 C558 0.950 . S
H584 C560 0.950 . S
H585 C561 0.949 1_556 S
H586 C563 0.950 1_556 S
H587 C565 0.950 1_556 S
C588 C589 1.349 . S
C588 C590 1.327 . S
C588 H613 0.950 1_554 S
C589 C588 1.349 . S
C589 C605 1.349 . S
C590 C588 1.327 . S
C590 C609 1.429 . S
C590 H614 0.950 1_554 S
C591 C608 1.574 . S
C591 C610 1.368 . S
C591 H615 0.949 . S
H592 C596 0.949 1_556 S
C593 C594 1.349 . S
C593 C595 1.327 . S
C593 H616 0.950 . S
C594 C593 1.349 . S
C594 C606 1.349 . S
C595 C593 1.327 . S
C595 C611 1.429 . S
C595 H617 0.950 . S
C596 H592 0.949 1_554 S
C596 C604 1.574 . S
C596 C612 1.368 . S
H597 C605 0.950 . S
H598 C603 0.950 . S
H599 C604 0.949 1_556 S
H600 C606 0.950 1_556 S
H601 C607 0.950 1_556 S
H602 C608 0.949 . S
C603 H598 0.950 . S
C603 C605 1.327 . S
C603 C609 1.429 . S
C604 C596 1.574 . S
C604 H599 0.949 1_554 S
C604 C610 1.368 . S
C605 C589 1.349 . S
C605 H597 0.950 . S
C605 C603 1.327 . S
C606 C594 1.349 . S
C606 H600 0.950 1_554 S
C606 C607 1.327 . S
C607 H601 0.950 1_554 S
C607 C606 1.327 . S
C607 C611 1.429 . S
C608 C591 1.574 . S
C608 H602 0.949 . S
C608 C612 1.368 . S
C609 C590 1.429 . S
C609 C603 1.429 . S
C609 C610 1.523 . S
C610 C591 1.368 . S
C610 C604 1.368 . S
C610 C609 1.523 . S
C611 C595 1.429 . S
C611 C607 1.429 . S
C611 C612 1.523 . S
C612 C596 1.368 . S
C612 C608 1.368 . S
C612 C611 1.523 . S
H613 C588 0.950 1_556 S
H614 C590 0.950 1_556 S
H615 C591 0.949 . S
H616 C593 0.950 . S
H617 C595 0.950 . S
C618 C619 1.349 . S
C618 C620 1.327 . S
C618 H643 0.950 . S
C619 C618 1.349 . S
C619 C635 1.349 . S
C620 C618 1.327 . S
C620 C639 1.429 . S
C620 H644 0.950 . S
C621 C638 1.574 . S
C621 C640 1.368 . S
C621 H645 0.949 1_554 S
H622 C626 0.949 . S
C623 C624 1.349 . S
C623 C625 1.327 . S
C623 H646 0.950 1_554 S
C624 C623 1.349 . S
C624 C636 1.349 . S
C625 C623 1.327 . S
C625 C641 1.429 . S
C625 H647 0.950 1_554 S
C626 H622 0.949 . S
C626 C634 1.574 . S
C626 C642 1.368 . S
H627 C635 0.950 1_556 S
H628 C633 0.950 1_556 S
H629 C634 0.949 . S
H630 C636 0.950 . S
H631 C637 0.950 . S
H632 C638 0.949 1_556 S
C633 H628 0.950 1_554 S
C633 C635 1.327 . S
C633 C639 1.429 . S
C634 C626 1.574 . S
C634 H629 0.949 . S
C634 C640 1.368 . S
C635 C619 1.349 . S
C635 H627 0.950 1_554 S
C635 C633 1.327 . S
C636 C624 1.349 . S
C636 H630 0.950 . S
C636 C637 1.327 . S
C637 H631 0.950 . S
C637 C636 1.327 . S
C637 C641 1.429 . S
C638 C621 1.574 . S
C638 H632 0.949 1_554 S
C638 C642 1.368 . S
C639 C620 1.429 . S
C639 C633 1.429 . S
C639 C640 1.523 . S
C640 C621 1.368 . S
C640 C634 1.368 . S
C640 C639 1.523 . S
C641 C625 1.429 . S
C641 C637 1.429 . S
C641 C642 1.523 . S
C642 C626 1.368 . S
C642 C638 1.368 . S
C642 C641 1.523 . S
H643 C618 0.950 . S
H644 C620 0.950 . S
H645 C621 0.949 1_556 S
H646 C623 0.950 1_556 S
H647 C625 0.950 1_556 S
C648 C649 1.349 . S
C648 C650 1.327 . S
C648 H673 0.950 . S
C649 C648 1.349 . S
C649 C665 1.349 . S
C650 C648 1.327 . S
C650 C669 1.429 . S
C650 H674 0.950 . S
C651 C668 1.574 . S
C651 C670 1.368 . S
C651 H675 0.949 . S
H652 C656 0.949 . S
C653 C654 1.349 . S
C653 C655 1.327 . S
C653 H676 0.950 . S
C654 C653 1.349 . S
C654 C666 1.349 . S
C655 C653 1.327 . S
C655 C671 1.429 . S
C655 H677 0.950 . S
C656 H652 0.949 . S
C656 C664 1.574 . S
C656 C672 1.368 . S
H657 C665 0.950 . S
H658 C663 0.950 . S
H659 C664 0.949 . S
H660 C666 0.950 . S
H661 C667 0.950 . S
H662 C668 0.949 . S
C663 H658 0.950 . S
C663 C665 1.327 . S
C663 C669 1.429 . S
C664 C656 1.574 . S
C664 H659 0.949 . S
C664 C670 1.368 . S
C665 C649 1.349 . S
C665 H657 0.950 . S
C665 C663 1.327 . S
C666 C654 1.349 . S
C666 H660 0.950 . S
C666 C667 1.327 . S
C667 H661 0.950 . S
C667 C666 1.327 . S
C667 C671 1.429 . S
C668 C651 1.574 . S
C668 H662 0.949 . S
C668 C672 1.368 . S
C669 C650 1.429 . S
C669 C663 1.429 . S
C669 C670 1.523 . S
C670 C651 1.368 . S
C670 C664 1.368 . S
C670 C669 1.523 . S
C671 C655 1.429 . S
C671 C667 1.429 . S
C671 C672 1.523 . S
C672 C656 1.368 . S
C672 C668 1.368 . S
C672 C671 1.523 . S
H673 C648 0.950 . S
H674 C650 0.950 . S
H675 C651 0.949 . S
H676 C653 0.950 . S
H677 C655 0.950 . S
C678 C679 1.349 . S
C678 C680 1.327 . S
C678 H703 0.950 . S
C679 C678 1.349 . S
C679 C695 1.349 . S
C680 C678 1.327 . S
C680 C699 1.429 . S
C680 H704 0.950 . S
C681 C698 1.574 . S
C681 C700 1.368 . S
C681 H705 0.949 . S
H682 C686 0.949 . S
C683 C684 1.349 . S
C683 C685 1.327 . S
C683 H706 0.950 . S
C684 C683 1.349 . S
C684 C696 1.349 . S
C685 C683 1.327 . S
C685 C701 1.429 . S
C685 H707 0.950 . S
C686 H682 0.949 . S
C686 C694 1.574 . S
C686 C702 1.368 . S
H687 C695 0.950 . S
H688 C693 0.950 . S
H689 C694 0.949 . S
H690 C696 0.950 . S
H691 C697 0.950 . S
H692 C698 0.949 . S
C693 H688 0.950 . S
C693 C695 1.327 . S
C693 C699 1.429 . S
C694 C686 1.574 . S
C694 H689 0.949 . S
C694 C700 1.368 . S
C695 C679 1.349 . S
C695 H687 0.950 . S
C695 C693 1.327 . S
C696 C684 1.349 . S
C696 H690 0.950 . S
C696 C697 1.327 . S
C697 H691 0.950 . S
C697 C696 1.327 . S
C697 C701 1.429 . S
C698 C681 1.574 . S
C698 H692 0.949 . S
C698 C702 1.368 . S
C699 C680 1.429 . S
C699 C693 1.429 . S
C699 C700 1.523 . S
C700 C681 1.368 . S
C700 C694 1.368 . S
C700 C699 1.523 . S
C701 C685 1.429 . S
C701 C697 1.429 . S
C701 C702 1.523 . S
C702 C686 1.368 . S
C702 C698 1.368 . S
C702 C701 1.523 . S
H703 C678 0.950 . S
H704 C680 0.950 . S
H705 C681 0.949 . S
H706 C683 0.950 . S
H707 C685 0.950 . S
C708 C709 1.349 . S
C708 C710 1.327 . S
C708 H733 0.950 . S
C709 C708 1.349 . S
C709 C725 1.349 . S
C710 C708 1.327 . S
C710 C729 1.429 . S
C710 H734 0.950 . S
C711 C728 1.574 . S
C711 C730 1.368 . S
C711 H735 0.949 . S
H712 C716 0.949 . S
C713 C714 1.349 . S
C713 C715 1.327 . S
C713 H736 0.950 . S
C714 C713 1.349 . S
C714 C726 1.349 . S
C715 C713 1.327 . S
C715 C731 1.429 . S
C715 H737 0.950 . S
C716 H712 0.949 . S
C716 C724 1.574 . S
C716 C732 1.368 . S
H717 C725 0.950 . S
H718 C723 0.950 . S
H719 C724 0.949 . S
H720 C726 0.950 . S
H721 C727 0.950 . S
H722 C728 0.949 . S
C723 H718 0.950 . S
C723 C725 1.327 . S
C723 C729 1.429 . S
C724 C716 1.574 . S
C724 H719 0.949 . S
C724 C730 1.368 . S
C725 C709 1.349 . S
C725 H717 0.950 . S
C725 C723 1.327 . S
C726 C714 1.349 . S
C726 H720 0.950 . S
C726 C727 1.327 . S
C727 H721 0.950 . S
C727 C726 1.327 . S
C727 C731 1.429 . S
C728 C711 1.574 . S
C728 H722 0.949 . S
C728 C732 1.368 . S
C729 C710 1.429 . S
C729 C723 1.429 . S
C729 C730 1.523 . S
C730 C711 1.368 . S
C730 C724 1.368 . S
C730 C729 1.523 . S
C731 C715 1.429 . S
C731 C727 1.429 . S
C731 C732 1.523 . S
C732 C716 1.368 . S
C732 C728 1.368 . S
C732 C731 1.523 . S
H733 C708 0.950 . S
H734 C710 0.950 . S
H735 C711 0.949 . S
H736 C713 0.950 . S
H737 C715 0.950 . S
C738 C739 1.349 . S
C738 C740 1.327 . S
C738 H763 0.950 . S
C739 C738 1.349 . S
C739 C755 1.349 . S
C740 C738 1.327 . S
C740 C759 1.429 . S
C740 H764 0.950 . S
C741 C758 1.574 . S
C741 C760 1.368 . S
C741 H765 0.949 . S
H742 C746 0.949 . S
C743 C744 1.349 . S
C743 C745 1.327 . S
C743 H766 0.950 . S
C744 C743 1.349 . S
C744 C756 1.349 . S
C745 C743 1.327 . S
C745 C761 1.429 . S
C745 H767 0.950 . S
C746 H742 0.949 . S
C746 C754 1.574 . S
C746 C762 1.368 . S
H747 C755 0.950 . S
H748 C753 0.950 . S
H749 C754 0.949 . S
H750 C756 0.950 . S
H751 C757 0.950 . S
H752 C758 0.949 . S
C753 H748 0.950 . S
C753 C755 1.327 . S
C753 C759 1.429 . S
C754 C746 1.574 . S
C754 H749 0.949 . S
C754 C760 1.368 . S
C755 C739 1.349 . S
C755 H747 0.950 . S
C755 C753 1.327 . S
C756 C744 1.349 . S
C756 H750 0.950 . S
C756 C757 1.327 . S
C757 H751 0.950 . S
C757 C756 1.327 . S
C757 C761 1.429 . S
C758 C741 1.574 . S
C758 H752 0.949 . S
C758 C762 1.368 . S
C759 C740 1.429 . S
C759 C753 1.429 . S
C759 C760 1.523 . S
C760 C741 1.368 . S
C760 C754 1.368 . S
C760 C759 1.523 . S
C761 C745 1.429 . S
C761 C757 1.429 . S
C761 C762 1.523 . S
C762 C746 1.368 . S
C762 C758 1.368 . S
C762 C761 1.523 . S
H763 C738 0.950 . S
H764 C740 0.950 . S
H765 C741 0.949 . S
H766 C743 0.950 . S
H767 C745 0.950 . S
C768 C769 1.349 1_554 S
C768 C770 1.327 . S
C768 H793 0.950 . S
C769 C768 1.349 1_556 S
C769 C785 1.349 . S
C770 C768 1.327 . S
C770 C789 1.429 1_554 S
C770 H794 0.950 . S
C771 C788 1.574 . S
C771 C790 1.367 . S
C771 H795 0.949 . S
H772 C776 0.949 . S
C773 C774 1.349 1_556 S
C773 C775 1.327 . S
C773 H796 0.950 . S
C774 C773 1.349 1_554 S
C774 C786 1.349 . S
C775 C773 1.327 . S
C775 C791 1.429 1_556 S
C775 H797 0.950 . S
C776 H772 0.949 . S
C776 C784 1.574 . S
C776 C792 1.368 . S
H777 C785 0.950 . S
H778 C783 0.950 . S
H779 C784 0.949 . S
H780 C786 0.950 . S
H781 C787 0.950 . S
H782 C788 0.949 . S
C783 H778 0.950 . S
C783 C785 1.327 . S
C783 C789 1.429 . S
C784 C776 1.574 . S
C784 H779 0.949 . S
C784 C790 1.370 1_554 S
C785 C769 1.349 . S
C785 H777 0.950 . S
C785 C783 1.327 . S
C786 C774 1.349 . S
C786 H780 0.950 . S
C786 C787 1.327 . S
C787 H781 0.950 . S
C787 C786 1.327 . S
C787 C791 1.429 . S
C788 C771 1.574 . S
C788 H782 0.949 . S
C788 C792 1.368 1_556 S
C789 C770 1.429 1_556 S
C789 C783 1.429 . S
C789 C790 1.523 . S
C790 C771 1.367 . S
C790 C784 1.370 1_556 S
C790 C789 1.523 . S
C791 C775 1.429 1_554 S
C791 C787 1.429 . S
C791 C792 1.523 . S
C792 C776 1.368 . S
C792 C788 1.368 1_554 S
C792 C791 1.523 . S
H793 C768 0.950 . S
H794 C770 0.950 . S
H795 C771 0.949 . S
H796 C773 0.950 . S
H797 C775 0.950 . S
C798 C799 1.349 1_554 S
C798 C800 1.327 . S
C798 H823 0.950 . S
C799 C798 1.349 1_556 S
C799 C815 1.349 . S
C800 C798 1.327 . S
C800 C819 1.429 1_554 S
C800 H824 0.950 . S
C801 C818 1.574 . S
C801 C820 1.367 . S
C801 H825 0.949 . S
H802 C806 0.949 . S
C803 C804 1.349 1_556 S
C803 C805 1.327 . S
C803 H826 0.950 . S
C804 C803 1.349 1_554 S
C804 C816 1.349 . S
C805 C803 1.327 . S
C805 C821 1.429 1_556 S
C805 H827 0.950 . S
C806 H802 0.949 . S
C806 C814 1.574 . S
C806 C822 1.368 . S
H807 C815 0.950 . S
H808 C813 0.950 . S
H809 C814 0.949 . S
H810 C816 0.950 . S
H811 C817 0.950 . S
H812 C818 0.949 . S
C813 H808 0.950 . S
C813 C815 1.327 . S
C813 C819 1.429 . S
C814 C806 1.574 . S
C814 H809 0.949 . S
C814 C820 1.370 1_554 S
C815 C799 1.349 . S
C815 H807 0.950 . S
C815 C813 1.327 . S
C816 C804 1.349 . S
C816 H810 0.950 . S
C816 C817 1.327 . S
C817 H811 0.950 . S
C817 C816 1.327 . S
C817 C821 1.429 . S
C818 C801 1.574 . S
C818 H812 0.949 . S
C818 C822 1.368 1_556 S
C819 C800 1.429 1_556 S
C819 C813 1.429 . S
C819 C820 1.523 . S
C820 C801 1.367 . S
C820 C814 1.370 1_556 S
C820 C819 1.523 . S
C821 C805 1.429 1_554 S
C821 C817 1.429 . S
C821 C822 1.523 . S
C822 C806 1.368 . S
C822 C818 1.368 1_554 S
C822 C821 1.523 . S
H823 C798 0.950 . S
H824 C800 0.950 . S
H825 C801 0.949 . S
H826 C803 0.950 . S
H827 C805 0.950 . S
C828 C829 1.349 1_556 S
C828 C830 1.327 . S
C828 H853 0.950 . S
C829 C828 1.349 1_554 S
C829 C845 1.349 . S
C830 C828 1.327 . S
C830 C849 1.429 1_556 S
C830 H854 0.950 . S
C831 C848 1.574 . S
C831 C850 1.368 . S
C831 H855 0.949 . S
H832 C836 0.949 . S
C833 C834 1.349 1_554 S
C833 C835 1.327 . S
C833 H856 0.950 . S
C834 C833 1.349 1_556 S
C834 C846 1.349 . S
C835 C833 1.327 . S
C835 C851 1.429 1_554 S
C835 H857 0.950 . S
C836 H832 0.949 . S
C836 C844 1.574 . S
C836 C852 1.367 . S
H837 C845 0.950 . S
H838 C843 0.950 . S
H839 C844 0.949 . S
H840 C846 0.950 . S
H841 C847 0.950 . S
H842 C848 0.949 . S
C843 H838 0.950 . S
C843 C845 1.327 . S
C843 C849 1.429 . S
C844 C836 1.574 . S
C844 H839 0.949 . S
C844 C850 1.368 1_556 S
C845 C829 1.349 . S
C845 H837 0.950 . S
C845 C843 1.327 . S
C846 C834 1.349 . S
C846 H840 0.950 . S
C846 C847 1.327 . S
C847 H841 0.950 . S
C847 C846 1.327 . S
C847 C851 1.429 . S
C848 C831 1.574 . S
C848 H842 0.949 . S
C848 C852 1.370 1_554 S
C849 C830 1.429 1_554 S
C849 C843 1.429 . S
C849 C850 1.523 . S
C850 C831 1.368 . S
C850 C844 1.368 1_554 S
C850 C849 1.523 . S
C851 C835 1.429 1_556 S
C851 C847 1.429 . S
C851 C852 1.523 . S
C852 C836 1.367 . S
C852 C848 1.370 1_556 S
C852 C851 1.523 . S
H853 C828 0.950 . S
H854 C830 0.950 . S
H855 C831 0.949 . S
H856 C833 0.950 . S
H857 C835 0.950 . S
C858 C859 1.349 1_556 S
C858 C860 1.327 . S
C858 H883 0.950 . S
C859 C858 1.349 1_554 S
C859 C875 1.349 . S
C860 C858 1.327 . S
C860 C879 1.429 1_556 S
C860 H884 0.950 . S
C861 C878 1.574 . S
C861 C880 1.368 . S
C861 H885 0.949 . S
H862 C866 0.949 . S
C863 C864 1.349 1_554 S
C863 C865 1.327 . S
C863 H886 0.950 . S
C864 C863 1.349 1_556 S
C864 C876 1.349 . S
C865 C863 1.327 . S
C865 C881 1.429 1_554 S
C865 H887 0.950 . S
C866 H862 0.949 . S
C866 C874 1.574 . S
C866 C882 1.366 . S
H867 C875 0.950 . S
H868 C873 0.950 . S
H869 C874 0.949 . S
H870 C876 0.950 . S
H871 C877 0.950 . S
H872 C878 0.949 . S
C873 H868 0.950 . S
C873 C875 1.327 . S
C873 C879 1.429 . S
C874 C866 1.574 . S
C874 H869 0.949 . S
C874 C880 1.368 1_556 S
C875 C859 1.349 . S
C875 H867 0.950 . S
C875 C873 1.327 . S
C876 C864 1.349 . S
C876 H870 0.950 . S
C876 C877 1.327 . S
C877 H871 0.950 . S
C877 C876 1.327 . S
C877 C881 1.429 . S
C878 C861 1.574 . S
C878 H872 0.949 . S
C878 C882 1.370 1_554 S
C879 C860 1.429 1_554 S
C879 C873 1.429 . S
C879 C880 1.523 . S
C880 C861 1.368 . S
C880 C874 1.368 1_554 S
C880 C879 1.523 . S
C881 C865 1.429 1_556 S
C881 C877 1.429 . S
C881 C882 1.523 . S
C882 C866 1.366 . S
C882 C878 1.370 1_556 S
C882 C881 1.523 . S
H883 C858 0.950 . S
H884 C860 0.950 . S
H885 C861 0.949 . S
H886 C863 0.950 . S
H887 C865 0.950 . S
C888 C889 1.349 . S
C888 C890 1.327 . S
C888 H913 0.950 . S
C889 C888 1.349 . S
C889 C905 1.349 . S
C890 C888 1.327 . S
C890 C909 1.429 . S
C890 H914 0.950 . S
C891 C908 1.574 . S
C891 C910 1.368 . S
C891 H915 0.949 . S
H892 C896 0.949 . S
C893 C894 1.349 . S
C893 C895 1.327 . S
C893 H916 0.950 . S
C894 C893 1.349 . S
C894 C906 1.349 . S
C895 C893 1.327 . S
C895 C911 1.429 . S
C895 H917 0.950 . S
C896 H892 0.949 . S
C896 C904 1.574 . S
C896 C912 1.368 . S
H897 C905 0.950 . S
H898 C903 0.950 . S
H899 C904 0.949 . S
H900 C906 0.950 . S
H901 C907 0.950 . S
H902 C908 0.949 . S
C903 H898 0.950 . S
C903 C905 1.327 . S
C903 C909 1.429 . S
C904 C896 1.574 . S
C904 H899 0.949 . S
C904 C910 1.368 . S
C905 C889 1.349 . S
C905 H897 0.950 . S
C905 C903 1.327 . S
C906 C894 1.349 . S
C906 H900 0.950 . S
C906 C907 1.327 . S
C907 H901 0.950 . S
C907 C906 1.327 . S
C907 C911 1.429 . S
C908 C891 1.574 . S
C908 H902 0.949 . S
C908 C912 1.368 . S
C909 C890 1.429 . S
C909 C903 1.429 . S
C909 C910 1.523 . S
C910 C891 1.368 . S
C910 C904 1.368 . S
C910 C909 1.523 . S
C911 C895 1.429 . S
C911 C907 1.429 . S
C911 C912 1.523 . S
C912 C896 1.368 . S
C912 C908 1.368 . S
C912 C911 1.523 . S
H913 C888 0.950 . S
H914 C890 0.950 . S
H915 C891 0.949 . S
H916 C893 0.950 . S
H917 C895 0.950 . S
C918 C919 1.349 . S
C918 C920 1.327 . S
C918 H943 0.950 . S
C919 C918 1.349 . S
C919 C935 1.349 . S
C920 C918 1.327 . S
C920 C939 1.429 . S
C920 H944 0.950 . S
C921 C938 1.574 . S
C921 C940 1.368 . S
C921 H945 0.949 . S
H922 C926 0.949 . S
C923 C924 1.349 . S
C923 C925 1.327 . S
C923 H946 0.950 . S
C924 C923 1.349 . S
C924 C936 1.349 . S
C925 C923 1.327 . S
C925 C941 1.429 . S
C925 H947 0.950 . S
C926 H922 0.949 . S
C926 C934 1.574 . S
C926 C942 1.368 . S
H927 C935 0.950 . S
H928 C933 0.950 . S
H929 C934 0.949 . S
H930 C936 0.950 . S
H931 C937 0.950 . S
H932 C938 0.949 . S
C933 H928 0.950 . S
C933 C935 1.327 . S
C933 C939 1.429 . S
C934 C926 1.574 . S
C934 H929 0.949 . S
C934 C940 1.368 . S
C935 C919 1.349 . S
C935 H927 0.950 . S
C935 C933 1.327 . S
C936 C924 1.349 . S
C936 H930 0.950 . S
C936 C937 1.327 . S
C937 H931 0.950 . S
C937 C936 1.327 . S
C937 C941 1.429 . S
C938 C921 1.574 . S
C938 H932 0.949 . S
C938 C942 1.368 . S
C939 C920 1.429 . S
C939 C933 1.429 . S
C939 C940 1.523 . S
C940 C921 1.368 . S
C940 C934 1.368 . S
C940 C939 1.523 . S
C941 C925 1.429 . S
C941 C937 1.429 . S
C941 C942 1.523 . S
C942 C926 1.368 . S
C942 C938 1.368 . S
C942 C941 1.523 . S
H943 C918 0.950 . S
H944 C920 0.950 . S
H945 C921 0.949 . S
H946 C923 0.950 . S
H947 C925 0.950 . S
C948 C949 1.349 . S
C948 C950 1.327 . S
C948 H973 0.950 . S
C949 C948 1.349 . S
C949 C965 1.349 . S
C950 C948 1.327 . S
C950 C969 1.429 . S
C950 H974 0.950 . S
C951 C968 1.574 . S
C951 C970 1.368 . S
C951 H975 0.949 . S
H952 C956 0.949 . S
C953 C954 1.349 . S
C953 C955 1.327 . S
C953 H976 0.950 . S
C954 C953 1.349 . S
C954 C966 1.349 . S
C955 C953 1.327 . S
C955 C971 1.429 . S
C955 H977 0.950 . S
C956 H952 0.949 . S
C956 C964 1.574 . S
C956 C972 1.368 . S
H957 C965 0.950 . S
H958 C963 0.950 . S
H959 C964 0.949 . S
H960 C966 0.950 . S
H961 C967 0.950 . S
H962 C968 0.949 . S
C963 H958 0.950 . S
C963 C965 1.327 . S
C963 C969 1.429 . S
C964 C956 1.574 . S
C964 H959 0.949 . S
C964 C970 1.368 . S
C965 C949 1.349 . S
C965 H957 0.950 . S
C965 C963 1.327 . S
C966 C954 1.349 . S
C966 H960 0.950 . S
C966 C967 1.327 . S
C967 H961 0.950 . S
C967 C966 1.327 . S
C967 C971 1.429 . S
C968 C951 1.574 . S
C968 H962 0.949 . S
C968 C972 1.368 . S
C969 C950 1.429 . S
C969 C963 1.429 . S
C969 C970 1.523 . S
C970 C951 1.368 . S
C970 C964 1.368 . S
C970 C969 1.523 . S
C971 C955 1.429 . S
C971 C967 1.429 . S
C971 C972 1.523 . S
C972 C956 1.368 . S
C972 C968 1.368 . S
C972 C971 1.523 . S
H973 C948 0.950 . S
H974 C950 0.950 . S
H975 C951 0.949 . S
H976 C953 0.950 . S
H977 C955 0.950 . S
C978 C979 1.349 . S
C978 C980 1.327 . S
C978 H1003 0.950 . S
C979 C978 1.349 . S
C979 C995 1.349 . S
C980 C978 1.327 . S
C980 C999 1.429 . S
C980 H1004 0.950 . S
C981 C998 1.574 . S
C981 C1000 1.368 . S
C981 H1005 0.949 . S
H982 C986 0.949 . S
C983 C984 1.349 . S
C983 C985 1.327 . S
C983 H1006 0.950 . S
C984 C983 1.349 . S
C984 C996 1.349 . S
C985 C983 1.327 . S
C985 C1001 1.429 . S
C985 H1007 0.950 . S
C986 H982 0.949 . S
C986 C994 1.574 . S
C986 C1002 1.368 . S
H987 C995 0.950 . S
H988 C993 0.950 . S
H989 C994 0.949 . S
H990 C996 0.950 . S
H991 C997 0.950 . S
H992 C998 0.949 . S
C993 H988 0.950 . S
C993 C995 1.327 . S
C993 C999 1.429 . S
C994 C986 1.574 . S
C994 H989 0.949 . S
C994 C1000 1.368 . S
C995 C979 1.349 . S
C995 H987 0.950 . S
C995 C993 1.327 . S
C996 C984 1.349 . S
C996 H990 0.950 . S
C996 C997 1.327 . S
C997 H991 0.950 . S
C997 C996 1.327 . S
C997 C1001 1.429 . S
C998 C981 1.574 . S
C998 H992 0.949 . S
C998 C1002 1.368 . S
C999 C980 1.429 . S
C999 C993 1.429 . S
C999 C1000 1.523 . S
C1000 C981 1.368 . S
C1000 C994 1.368 . S
C1000 C999 1.523 . S
C1001 C985 1.429 . S
C1001 C997 1.429 . S
C1001 C1002 1.523 . S
C1002 C986 1.368 . S
C1002 C998 1.368 . S
C1002 C1001 1.523 . S
H1003 C978 0.950 . S
H1004 C980 0.950 . S
H1005 C981 0.949 . S
H1006 C983 0.950 . S
H1007 C985 0.950 . S
C1008 C1009 1.349 . S
C1008 C1010 1.327 . S
C1008 H1033 0.950 . S
C1009 C1008 1.349 . S
C1009 C1025 1.349 . S
C1010 C1008 1.327 . S
C1010 C1029 1.429 . S
C1010 H1034 0.950 . S
C1011 C1028 1.574 . S
C1011 C1030 1.368 . S
C1011 H1035 0.949 . S
H1012 C1016 0.949 . S
C1013 C1014 1.349 . S
C1013 C1015 1.327 . S
C1013 H1036 0.950 . S
C1014 C1013 1.349 . S
C1014 C1026 1.349 . S
C1015 C1013 1.327 . S
C1015 C1031 1.429 . S
C1015 H1037 0.950 . S
C1016 H1012 0.949 . S
C1016 C1024 1.574 . S
C1016 C1032 1.368 . S
H1017 C1025 0.950 . S
H1018 C1023 0.950 . S
H1019 C1024 0.949 . S
H1020 C1026 0.950 . S
H1021 C1027 0.950 . S
H1022 C1028 0.949 . S
C1023 H1018 0.950 . S
C1023 C1025 1.327 . S
C1023 C1029 1.429 . S
C1024 C1016 1.574 . S
C1024 H1019 0.949 . S
C1024 C1030 1.368 . S
C1025 C1009 1.349 . S
C1025 H1017 0.950 . S
C1025 C1023 1.327 . S
C1026 C1014 1.349 . S
C1026 H1020 0.950 . S
C1026 C1027 1.327 . S
C1027 H1021 0.950 . S
C1027 C1026 1.327 . S
C1027 C1031 1.429 . S
C1028 C1011 1.574 . S
C1028 H1022 0.949 . S
C1028 C1032 1.368 . S
C1029 C1010 1.429 . S
C1029 C1023 1.429 . S
C1029 C1030 1.523 . S
C1030 C1011 1.368 . S
C1030 C1024 1.368 . S
C1030 C1029 1.523 . S
C1031 C1015 1.429 . S
C1031 C1027 1.429 . S
C1031 C1032 1.523 . S
C1032 C1016 1.368 . S
C1032 C1028 1.368 . S
C1032 C1031 1.523 . S
H1033 C1008 0.950 . S
H1034 C1010 0.950 . S
H1035 C1011 0.949 . S
H1036 C1013 0.950 . S
H1037 C1015 0.950 . S
C1038 C1039 1.349 . S
C1038 C1040 1.327 . S
C1038 H1063 0.950 . S
C1039 C1038 1.349 . S
C1039 C1055 1.349 . S
C1040 C1038 1.327 . S
C1040 C1059 1.429 . S
C1040 H1064 0.950 . S
C1041 C1058 1.574 . S
C1041 C1060 1.368 . S
C1041 H1065 0.949 . S
H1042 C1046 0.949 . S
C1043 C1044 1.349 . S
C1043 C1045 1.327 . S
C1043 H1066 0.950 . S
C1044 C1043 1.349 . S
C1044 C1056 1.349 . S
C1045 C1043 1.327 . S
C1045 C1061 1.429 . S
C1045 H1067 0.950 . S
C1046 H1042 0.949 . S
C1046 C1054 1.574 . S
C1046 C1062 1.368 . S
H1047 C1055 0.950 . S
H1048 C1053 0.950 . S
H1049 C1054 0.949 . S
H1050 C1056 0.950 . S
H1051 C1057 0.950 . S
H1052 C1058 0.949 . S
C1053 H1048 0.950 . S
C1053 C1055 1.327 . S
C1053 C1059 1.429 . S
C1054 C1046 1.574 . S
C1054 H1049 0.949 . S
C1054 C1060 1.368 . S
C1055 C1039 1.349 . S
C1055 H1047 0.950 . S
C1055 C1053 1.327 . S
C1056 C1044 1.349 . S
C1056 H1050 0.950 . S
C1056 C1057 1.327 . S
C1057 H1051 0.950 . S
C1057 C1056 1.327 . S
C1057 C1061 1.429 . S
C1058 C1041 1.574 . S
C1058 H1052 0.949 . S
C1058 C1062 1.368 . S
C1059 C1040 1.429 . S
C1059 C1053 1.429 . S
C1059 C1060 1.523 . S
C1060 C1041 1.368 . S
C1060 C1054 1.368 . S
C1060 C1059 1.523 . S
C1061 C1045 1.429 . S
C1061 C1057 1.429 . S
C1061 C1062 1.523 . S
C1062 C1046 1.368 . S
C1062 C1058 1.368 . S
C1062 C1061 1.523 . S
H1063 C1038 0.950 . S
H1064 C1040 0.950 . S
H1065 C1041 0.949 . S
H1066 C1043 0.950 . S
H1067 C1045 0.950 . S
C1068 C1069 1.349 . S
C1068 C1070 1.327 . S
C1068 H1093 0.950 . S
C1069 C1068 1.349 . S
C1069 C1085 1.349 . S
C1070 C1068 1.327 . S
C1070 C1089 1.429 . S
C1070 H1094 0.950 . S
C1071 C1088 1.574 . S
C1071 C1090 1.368 . S
C1071 H1095 0.949 . S
H1072 C1076 0.949 . S
C1073 C1074 1.349 . S
C1073 C1075 1.327 . S
C1073 H1096 0.950 . S
C1074 C1073 1.349 . S
C1074 C1086 1.349 . S
C1075 C1073 1.327 . S
C1075 C1091 1.429 . S
C1075 H1097 0.950 . S
C1076 H1072 0.949 . S
C1076 C1084 1.574 . S
C1076 C1092 1.368 . S
H1077 C1085 0.950 . S
H1078 C1083 0.950 . S
H1079 C1084 0.949 . S
H1080 C1086 0.950 . S
H1081 C1087 0.950 . S
H1082 C1088 0.949 . S
C1083 H1078 0.950 . S
C1083 C1085 1.327 . S
C1083 C1089 1.429 . S
C1084 C1076 1.574 . S
C1084 H1079 0.949 . S
C1084 C1090 1.368 . S
C1085 C1069 1.349 . S
C1085 H1077 0.950 . S
C1085 C1083 1.327 . S
C1086 C1074 1.349 . S
C1086 H1080 0.950 . S
C1086 C1087 1.327 . S
C1087 H1081 0.950 . S
C1087 C1086 1.327 . S
C1087 C1091 1.429 . S
C1088 C1071 1.574 . S
C1088 H1082 0.949 . S
C1088 C1092 1.368 . S
C1089 C1070 1.429 . S
C1089 C1083 1.429 . S
C1089 C1090 1.523 . S
C1090 C1071 1.368 . S
C1090 C1084 1.368 . S
C1090 C1089 1.523 . S
C1091 C1075 1.429 . S
C1091 C1087 1.429 . S
C1091 C1092 1.523 . S
C1092 C1076 1.368 . S
C1092 C1088 1.368 . S
C1092 C1091 1.523 . S
H1093 C1068 0.950 . S
H1094 C1070 0.950 . S
H1095 C1071 0.949 . S
H1096 C1073 0.950 . S
H1097 C1075 0.950 . S
C1098 C1099 1.349 . S
C1098 C1100 1.327 . S
C1098 H1123 0.950 . S
C1099 C1098 1.349 . S
C1099 C1115 1.349 . S
C1100 C1098 1.327 . S
C1100 C1119 1.429 . S
C1100 H1124 0.950 . S
C1101 C1118 1.574 . S
C1101 C1120 1.368 . S
C1101 H1125 0.949 . S
H1102 C1106 0.949 . S
C1103 C1104 1.349 . S
C1103 C1105 1.327 . S
C1103 H1126 0.950 . S
C1104 C1103 1.349 . S
C1104 C1116 1.349 . S
C1105 C1103 1.327 . S
C1105 C1121 1.429 . S
C1105 H1127 0.950 . S
C1106 H1102 0.949 . S
C1106 C1114 1.574 . S
C1106 C1122 1.368 . S
H1107 C1115 0.950 . S
H1108 C1113 0.950 . S
H1109 C1114 0.949 . S
H1110 C1116 0.950 . S
H1111 C1117 0.950 . S
H1112 C1118 0.949 . S
C1113 H1108 0.950 . S
C1113 C1115 1.327 . S
C1113 C1119 1.429 . S
C1114 C1106 1.574 . S
C1114 H1109 0.949 . S
C1114 C1120 1.368 . S
C1115 C1099 1.349 . S
C1115 H1107 0.950 . S
C1115 C1113 1.327 . S
C1116 C1104 1.349 . S
C1116 H1110 0.950 . S
C1116 C1117 1.327 . S
C1117 H1111 0.950 . S
C1117 C1116 1.327 . S
C1117 C1121 1.429 . S
C1118 C1101 1.574 . S
C1118 H1112 0.949 . S
C1118 C1122 1.368 . S
C1119 C1100 1.429 . S
C1119 C1113 1.429 . S
C1119 C1120 1.523 . S
C1120 C1101 1.368 . S
C1120 C1114 1.368 . S
C1120 C1119 1.523 . S
C1121 C1105 1.429 . S
C1121 C1117 1.429 . S
C1121 C1122 1.523 . S
C1122 C1106 1.368 . S
C1122 C1118 1.368 . S
C1122 C1121 1.523 . S
H1123 C1098 0.950 . S
H1124 C1100 0.950 . S
H1125 C1101 0.949 . S
H1126 C1103 0.950 . S
H1127 C1105 0.950 . S
C1128 C1129 1.349 . S
C1128 C1130 1.327 . S
C1128 H1153 0.950 . S
C1129 C1128 1.349 . S
C1129 C1145 1.349 . S
C1130 C1128 1.327 . S
C1130 C1149 1.429 . S
C1130 H1154 0.950 . S
C1131 C1148 1.574 . S
C1131 C1150 1.368 . S
C1131 H1155 0.949 . S
H1132 C1136 0.949 . S
C1133 C1134 1.349 . S
C1133 C1135 1.327 . S
C1133 H1156 0.950 . S
C1134 C1133 1.349 . S
C1134 C1146 1.349 . S
C1135 C1133 1.327 . S
C1135 C1151 1.429 . S
C1135 H1157 0.950 . S
C1136 H1132 0.949 . S
C1136 C1144 1.574 . S
C1136 C1152 1.368 . S
H1137 C1145 0.950 . S
H1138 C1143 0.950 . S
H1139 C1144 0.949 . S
H1140 C1146 0.950 . S
H1141 C1147 0.950 . S
H1142 C1148 0.949 . S
C1143 H1138 0.950 . S
C1143 C1145 1.327 . S
C1143 C1149 1.429 . S
C1144 C1136 1.574 . S
C1144 H1139 0.949 . S
C1144 C1150 1.368 . S
C1145 C1129 1.349 . S
C1145 H1137 0.950 . S
C1145 C1143 1.327 . S
C1146 C1134 1.349 . S
C1146 H1140 0.950 . S
C1146 C1147 1.327 . S
C1147 H1141 0.950 . S
C1147 C1146 1.327 . S
C1147 C1151 1.429 . S
C1148 C1131 1.574 . S
C1148 H1142 0.949 . S
C1148 C1152 1.368 . S
C1149 C1130 1.429 . S
C1149 C1143 1.429 . S
C1149 C1150 1.523 . S
C1150 C1131 1.368 . S
C1150 C1144 1.368 . S
C1150 C1149 1.523 . S
C1151 C1135 1.429 . S
C1151 C1147 1.429 . S
C1151 C1152 1.523 . S
C1152 C1136 1.368 . S
C1152 C1148 1.368 . S
C1152 C1151 1.523 . S
H1153 C1128 0.950 . S
H1154 C1130 0.950 . S
H1155 C1131 0.949 . S
H1156 C1133 0.950 . S
H1157 C1135 0.950 . S
C1158 C1159 1.349 . S
C1158 C1160 1.327 . S
C1158 H1183 0.950 . S
C1159 C1158 1.349 . S
C1159 C1175 1.349 . S
C1160 C1158 1.327 . S
C1160 C1179 1.429 . S
C1160 H1184 0.950 . S
C1161 C1178 1.574 . S
C1161 C1180 1.368 . S
C1161 H1185 0.949 . S
H1162 C1166 0.949 . S
C1163 C1164 1.349 . S
C1163 C1165 1.327 . S
C1163 H1186 0.950 . S
C1164 C1163 1.349 . S
C1164 C1176 1.349 . S
C1165 C1163 1.327 . S
C1165 C1181 1.429 . S
C1165 H1187 0.950 . S
C1166 H1162 0.949 . S
C1166 C1174 1.574 . S
C1166 C1182 1.368 . S
H1167 C1175 0.950 . S
H1168 C1173 0.950 . S
H1169 C1174 0.949 . S
H1170 C1176 0.950 . S
H1171 C1177 0.950 . S
H1172 C1178 0.949 . S
C1173 H1168 0.950 . S
C1173 C1175 1.327 . S
C1173 C1179 1.429 . S
C1174 C1166 1.574 . S
C1174 H1169 0.949 . S
C1174 C1180 1.368 . S
C1175 C1159 1.349 . S
C1175 H1167 0.950 . S
C1175 C1173 1.327 . S
C1176 C1164 1.349 . S
C1176 H1170 0.950 . S
C1176 C1177 1.327 . S
C1177 H1171 0.950 . S
C1177 C1176 1.327 . S
C1177 C1181 1.429 . S
C1178 C1161 1.574 . S
C1178 H1172 0.949 . S
C1178 C1182 1.368 . S
C1179 C1160 1.429 . S
C1179 C1173 1.429 . S
C1179 C1180 1.523 . S
C1180 C1161 1.368 . S
C1180 C1174 1.368 . S
C1180 C1179 1.523 . S
C1181 C1165 1.429 . S
C1181 C1177 1.429 . S
C1181 C1182 1.523 . S
C1182 C1166 1.368 . S
C1182 C1178 1.368 . S
C1182 C1181 1.523 . S
H1183 C1158 0.950 . S
H1184 C1160 0.950 . S
H1185 C1161 0.949 . S
H1186 C1163 0.950 . S
H1187 C1165 0.950 . S
C1188 C1189 1.349 . S
C1188 C1190 1.327 . S
C1188 H1213 0.950 . S
C1189 C1188 1.349 . S
C1189 C1205 1.349 . S
C1190 C1188 1.327 . S
C1190 C1209 1.429 . S
C1190 H1214 0.950 . S
C1191 C1208 1.574 . S
C1191 C1210 1.368 . S
C1191 H1215 0.949 . S
H1192 C1196 0.949 . S
C1193 C1194 1.349 . S
C1193 C1195 1.327 . S
C1193 H1216 0.950 . S
C1194 C1193 1.349 . S
C1194 C1206 1.349 . S
C1195 C1193 1.327 . S
C1195 C1211 1.429 . S
C1195 H1217 0.950 . S
C1196 H1192 0.949 . S
C1196 C1204 1.574 . S
C1196 C1212 1.368 . S
H1197 C1205 0.950 . S
H1198 C1203 0.950 . S
H1199 C1204 0.949 . S
H1200 C1206 0.950 . S
H1201 C1207 0.950 . S
H1202 C1208 0.949 . S
C1203 H1198 0.950 . S
C1203 C1205 1.327 . S
C1203 C1209 1.429 . S
C1204 C1196 1.574 . S
C1204 H1199 0.949 . S
C1204 C1210 1.368 . S
C1205 C1189 1.349 . S
C1205 H1197 0.950 . S
C1205 C1203 1.327 . S
C1206 C1194 1.349 . S
C1206 H1200 0.950 . S
C1206 C1207 1.327 . S
C1207 H1201 0.950 . S
C1207 C1206 1.327 . S
C1207 C1211 1.429 . S
C1208 C1191 1.574 . S
C1208 H1202 0.949 . S
C1208 C1212 1.368 . S
C1209 C1190 1.429 . S
C1209 C1203 1.429 . S
C1209 C1210 1.523 . S
C1210 C1191 1.368 . S
C1210 C1204 1.368 . S
C1210 C1209 1.523 . S
C1211 C1195 1.429 . S
C1211 C1207 1.429 . S
C1211 C1212 1.523 . S
C1212 C1196 1.368 . S
C1212 C1208 1.368 . S
C1212 C1211 1.523 . S
H1213 C1188 0.950 . S
H1214 C1190 0.950 . S
H1215 C1191 0.949 . S
H1216 C1193 0.950 . S
H1217 C1195 0.950 . S
C1218 C1219 1.349 . S
C1218 C1220 1.327 . S
C1218 H1243 0.950 . S
C1219 C1218 1.349 . S
C1219 C1235 1.349 . S
C1220 C1218 1.327 . S
C1220 C1239 1.429 . S
C1220 H1244 0.950 . S
C1221 C1238 1.574 . S
C1221 C1240 1.368 . S
C1221 H1245 0.949 . S
H1222 C1226 0.949 . S
C1223 C1224 1.349 . S
C1223 C1225 1.327 . S
C1223 H1246 0.950 . S
C1224 C1223 1.349 . S
C1224 C1236 1.349 . S
C1225 C1223 1.327 . S
C1225 C1241 1.429 . S
C1225 H1247 0.950 . S
C1226 H1222 0.949 . S
C1226 C1234 1.574 . S
C1226 C1242 1.368 . S
H1227 C1235 0.950 . S
H1228 C1233 0.950 . S
H1229 C1234 0.949 . S
H1230 C1236 0.950 . S
H1231 C1237 0.950 . S
H1232 C1238 0.949 . S
C1233 H1228 0.950 . S
C1233 C1235 1.327 . S
C1233 C1239 1.429 . S
C1234 C1226 1.574 . S
C1234 H1229 0.949 . S
C1234 C1240 1.368 . S
C1235 C1219 1.349 . S
C1235 H1227 0.950 . S
C1235 C1233 1.327 . S
C1236 C1224 1.349 . S
C1236 H1230 0.950 . S
C1236 C1237 1.327 . S
C1237 H1231 0.950 . S
C1237 C1236 1.327 . S
C1237 C1241 1.429 . S
C1238 C1221 1.574 . S
C1238 H1232 0.949 . S
C1238 C1242 1.368 . S
C1239 C1220 1.429 . S
C1239 C1233 1.429 . S
C1239 C1240 1.523 . S
C1240 C1221 1.368 . S
C1240 C1234 1.368 . S
C1240 C1239 1.523 . S
C1241 C1225 1.429 . S
C1241 C1237 1.429 . S
C1241 C1242 1.523 . S
C1242 C1226 1.368 . S
C1242 C1238 1.368 . S
C1242 C1241 1.523 . S
H1243 C1218 0.950 . S
H1244 C1220 0.950 . S
H1245 C1221 0.949 . S
H1246 C1223 0.950 . S
H1247 C1225 0.950 . S
C1248 C1249 1.349 . S
C1248 C1250 1.327 . S
C1248 H1273 0.950 . S
C1249 C1248 1.349 . S
C1249 C1265 1.349 . S
C1250 C1248 1.327 . S
C1250 C1269 1.429 . S
C1250 H1274 0.950 1_655 S
C1251 C1268 1.574 . S
C1251 C1270 1.368 . S
C1251 H1275 0.949 . S
H1252 C1256 0.949 . S
C1253 C1254 1.349 . S
C1253 C1255 1.327 . S
C1253 H1276 0.950 . S
C1254 C1253 1.349 . S
C1254 C1266 1.349 . S
C1255 C1253 1.327 . S
C1255 C1271 1.429 . S
C1255 H1277 0.950 1_455 S
C1256 H1252 0.949 . S
C1256 C1264 1.574 . S
C1256 C1272 1.368 . S
H1257 C1265 0.950 . S
H1258 C1263 0.950 . S
H1259 C1264 0.949 . S
H1260 C1266 0.950 . S
H1261 C1267 0.950 . S
H1262 C1268 0.949 . S
C1263 H1258 0.950 . S
C1263 C1265 1.327 . S
C1263 C1269 1.429 . S
C1264 C1256 1.574 . S
C1264 H1259 0.949 . S
C1264 C1270 1.368 1_455 S
C1265 C1249 1.349 . S
C1265 H1257 0.950 . S
C1265 C1263 1.327 . S
C1266 C1254 1.349 . S
C1266 H1260 0.950 . S
C1266 C1267 1.327 . S
C1267 H1261 0.950 . S
C1267 C1266 1.327 . S
C1267 C1271 1.429 . S
C1268 C1251 1.574 . S
C1268 H1262 0.949 . S
C1268 C1272 1.368 1_655 S
C1269 C1250 1.429 . S
C1269 C1263 1.429 . S
C1269 C1270 1.523 . S
C1270 C1251 1.368 . S
C1270 C1264 1.368 1_655 S
C1270 C1269 1.523 . S
C1271 C1255 1.429 . S
C1271 C1267 1.429 . S
C1271 C1272 1.523 . S
C1272 C1256 1.368 . S
C1272 C1268 1.368 1_455 S
C1272 C1271 1.523 . S
H1273 C1248 0.950 . S
H1274 C1250 0.950 1_455 S
H1275 C1251 0.949 . S
H1276 C1253 0.950 . S
H1277 C1255 0.950 1_655 S
C1278 C1279 1.349 . S
C1278 C1280 1.327 . S
C1278 H1303 0.950 . S
C1279 C1278 1.349 . S
C1279 C1295 1.349 . S
C1280 C1278 1.327 . S
C1280 C1299 1.429 . S
C1280 H1304 0.950 . S
C1281 C1298 1.574 . S
C1281 C1300 1.368 1_545 S
C1281 H1305 0.949 . S
H1282 C1286 0.949 . S
C1283 C1284 1.349 . S
C1283 C1285 1.327 . S
C1283 H1306 0.950 . S
C1284 C1283 1.349 . S
C1284 C1296 1.349 . S
C1285 C1283 1.327 . S
C1285 C1301 1.429 . S
C1285 H1307 0.950 . S
C1286 H1282 0.949 . S
C1286 C1294 1.574 . S
C1286 C1302 1.368 1_565 S
H1287 C1295 0.950 1_545 S
H1288 C1293 0.950 . S
H1289 C1294 0.949 . S
H1290 C1296 0.950 1_565 S
H1291 C1297 0.950 . S
H1292 C1298 0.949 . S
C1293 H1288 0.950 . S
C1293 C1295 1.327 1_545 S
C1293 C1299 1.429 1_545 S
C1294 C1286 1.574 . S
C1294 H1289 0.949 . S
C1294 C1300 1.368 . S
C1295 C1279 1.349 . S
C1295 H1287 0.950 1_565 S
C1295 C1293 1.327 1_565 S
C1296 C1284 1.349 . S
C1296 H1290 0.950 1_545 S
C1296 C1297 1.327 1_545 S
C1297 H1291 0.950 . S
C1297 C1296 1.327 1_565 S
C1297 C1301 1.429 1_565 S
C1298 C1281 1.574 . S
C1298 H1292 0.949 . S
C1298 C1302 1.368 . S
C1299 C1280 1.429 . S
C1299 C1293 1.429 1_565 S
C1299 C1300 1.523 . S
C1300 C1281 1.368 1_565 S
C1300 C1294 1.368 . S
C1300 C1299 1.523 . S
C1301 C1285 1.429 . S
C1301 C1297 1.429 1_545 S
C1301 C1302 1.523 . S
C1302 C1286 1.368 1_545 S
C1302 C1298 1.368 . S
C1302 C1301 1.523 . S
H1303 C1278 0.950 . S
H1304 C1280 0.950 . S
H1305 C1281 0.949 . S
H1306 C1283 0.950 . S
H1307 C1285 0.950 . S
C1308 C1309 1.349 . S
C1308 C1310 1.327 . S
C1308 H1333 0.950 . S
C1309 C1308 1.349 . S
C1309 C1325 1.349 . S
C1310 C1308 1.327 . S
C1310 C1329 1.429 . S
C1310 H1334 0.950 1_655 S
C1311 C1328 1.574 . S
C1311 C1330 1.368 . S
C1311 H1335 0.949 . S
H1312 C1316 0.949 . S
C1313 C1314 1.349 . S
C1313 C1315 1.327 . S
C1313 H1336 0.950 . S
C1314 C1313 1.349 . S
C1314 C1326 1.349 . S
C1315 C1313 1.327 . S
C1315 C1331 1.429 . S
C1315 H1337 0.950 1_455 S
C1316 H1312 0.949 . S
C1316 C1324 1.574 . S
C1316 C1332 1.368 . S
H1317 C1325 0.950 . S
H1318 C1323 0.950 . S
H1319 C1324 0.949 . S
H1320 C1326 0.950 . S
H1321 C1327 0.950 . S
H1322 C1328 0.949 . S
C1323 H1318 0.950 . S
C1323 C1325 1.327 . S
C1323 C1329 1.429 . S
C1324 C1316 1.574 . S
C1324 H1319 0.949 . S
C1324 C1330 1.368 1_455 S
C1325 C1309 1.349 . S
C1325 H1317 0.950 . S
C1325 C1323 1.327 . S
C1326 C1314 1.349 . S
C1326 H1320 0.950 . S
C1326 C1327 1.327 . S
C1327 H1321 0.950 . S
C1327 C1326 1.327 . S
C1327 C1331 1.429 . S
C1328 C1311 1.574 . S
C1328 H1322 0.949 . S
C1328 C1332 1.368 1_655 S
C1329 C1310 1.429 . S
C1329 C1323 1.429 . S
C1329 C1330 1.523 . S
C1330 C1311 1.368 . S
C1330 C1324 1.368 1_655 S
C1330 C1329 1.523 . S
C1331 C1315 1.429 . S
C1331 C1327 1.429 . S
C1331 C1332 1.523 . S
C1332 C1316 1.368 . S
C1332 C1328 1.368 1_455 S
C1332 C1331 1.523 . S
H1333 C1308 0.950 . S
H1334 C1310 0.950 1_455 S
H1335 C1311 0.949 . S
H1336 C1313 0.950 . S
H1337 C1315 0.950 1_655 S
C1338 C1339 1.349 . S
C1338 C1340 1.327 1_545 S
C1338 H1363 0.950 1_545 S
C1339 C1338 1.349 . S
C1339 C1355 1.349 . S
C1340 C1338 1.327 1_565 S
C1340 C1359 1.429 1_565 S
C1340 H1364 0.950 . S
C1341 C1358 1.574 . S
C1341 C1360 1.368 . S
C1341 H1365 0.949 . S
H1342 C1346 0.949 . S
C1343 C1344 1.349 . S
C1343 C1345 1.327 1_565 S
C1343 H1366 0.950 1_565 S
C1344 C1343 1.349 . S
C1344 C1356 1.349 . S
C1345 C1343 1.327 1_545 S
C1345 C1361 1.429 1_545 S
C1345 H1367 0.950 . S
C1346 H1342 0.949 . S
C1346 C1354 1.574 . S
C1346 C1362 1.368 . S
H1347 C1355 0.950 . S
H1348 C1353 0.950 . S
H1349 C1354 0.949 . S
H1350 C1356 0.950 . S
H1351 C1357 0.950 . S
H1352 C1358 0.949 . S
C1353 H1348 0.950 . S
C1353 C1355 1.327 . S
C1353 C1359 1.429 . S
C1354 C1346 1.574 . S
C1354 H1349 0.949 . S
C1354 C1360 1.368 1_565 S
C1355 C1339 1.349 . S
C1355 H1347 0.950 . S
C1355 C1353 1.327 . S
C1356 C1344 1.349 . S
C1356 H1350 0.950 . S
C1356 C1357 1.327 . S
C1357 H1351 0.950 . S
C1357 C1356 1.327 . S
C1357 C1361 1.429 . S
C1358 C1341 1.574 . S
C1358 H1352 0.949 . S
C1358 C1362 1.368 1_545 S
C1359 C1340 1.429 1_545 S
C1359 C1353 1.429 . S
C1359 C1360 1.523 . S
C1360 C1341 1.368 . S
C1360 C1354 1.368 1_545 S
C1360 C1359 1.523 . S
C1361 C1345 1.429 1_565 S
C1361 C1357 1.429 . S
C1361 C1362 1.523 . S
C1362 C1346 1.368 . S
C1362 C1358 1.368 1_565 S
C1362 C1361 1.523 . S
H1363 C1338 0.950 1_565 S
H1364 C1340 0.950 . S
H1365 C1341 0.949 . S
H1366 C1343 0.950 1_545 S
H1367 C1345 0.950 . S
C1368 C1369 1.349 . S
C1368 C1370 1.327 . S
C1368 H1393 0.950 . S
C1369 C1368 1.349 . S
C1369 C1385 1.349 . S
C1370 C1368 1.327 . S
C1370 C1389 1.429 . S
C1370 H1394 0.950 . S
C1371 C1388 1.574 . S
C1371 C1390 1.368 1_455 S
C1371 H1395 0.949 . S
H1372 C1376 0.949 . S
C1373 C1374 1.349 . S
C1373 C1375 1.327 . S
C1373 H1396 0.950 . S
C1374 C1373 1.349 . S
C1374 C1386 1.349 . S
C1375 C1373 1.327 . S
C1375 C1391 1.429 . S
C1375 H1397 0.950 . S
C1376 H1372 0.949 . S
C1376 C1384 1.574 . S
C1376 C1392 1.368 1_655 S
H1377 C1385 0.950 1_455 S
H1378 C1383 0.970 . S
H1379 C1384 0.949 . S
H1380 C1386 0.950 1_655 S
H1381 C1387 0.970 . S
H1382 C1388 0.949 . S
C1383 H1378 0.970 . S
C1383 C1385 1.321 1_455 S
C1383 C1389 1.416 1_455 S
C1384 C1376 1.574 . S
C1384 H1379 0.949 . S
C1384 C1390 1.368 . S
C1385 C1369 1.349 . S
C1385 H1377 0.950 1_655 S
C1385 C1383 1.321 1_655 S
C1386 C1374 1.349 . S
C1386 H1380 0.950 1_455 S
C1386 C1387 1.321 1_455 S
C1387 H1381 0.970 . S
C1387 C1386 1.321 1_655 S
C1387 C1391 1.416 1_655 S
C1388 C1371 1.574 . S
C1388 H1382 0.949 . S
C1388 C1392 1.368 . S
C1389 C1370 1.429 . S
C1389 C1383 1.416 1_655 S
C1389 C1390 1.523 . S
C1390 C1371 1.368 1_655 S
C1390 C1384 1.368 . S
C1390 C1389 1.523 . S
C1391 C1375 1.429 . S
C1391 C1387 1.416 1_455 S
C1391 C1392 1.523 . S
C1392 C1376 1.368 1_455 S
C1392 C1388 1.368 . S
C1392 C1391 1.523 . S
H1393 C1368 0.950 . S
H1394 C1370 0.950 . S
H1395 C1371 0.949 . S
H1396 C1373 0.950 . S
H1397 C1375 0.950 . S
C1398 C1399 1.349 1_565 S
C1398 C1400 1.327 . S
C1398 H1423 0.950 . S
C1399 C1398 1.349 1_545 S
C1399 C1415 1.349 . S
C1400 C1398 1.327 . S
C1400 C1419 1.429 1_565 S
C1400 H1424 0.950 . S
C1401 C1418 1.574 . S
C1401 C1420 1.368 . S
C1401 H1425 0.949 . S
H1402 C1406 0.949 . S
C1403 C1404 1.349 1_545 S
C1403 C1405 1.327 . S
C1403 H1426 0.950 . S
C1404 C1403 1.349 1_565 S
C1404 C1416 1.349 . S
C1405 C1403 1.327 . S
C1405 C1421 1.429 1_545 S
C1405 H1427 0.950 . S
C1406 H1402 0.949 . S
C1406 C1414 1.574 . S
C1406 C1422 1.368 . S
H1407 C1415 0.950 . S
H1408 C1413 0.950 . S
H1409 C1414 0.949 . S
H1410 C1416 0.950 . S
H1411 C1417 0.950 . S
H1412 C1418 0.949 . S
C1413 H1408 0.950 . S
C1413 C1415 1.327 . S
C1413 C1419 1.429 . S
C1414 C1406 1.574 . S
C1414 H1409 0.949 . S
C1414 C1420 1.368 1_565 S
C1415 C1399 1.349 . S
C1415 H1407 0.950 . S
C1415 C1413 1.327 . S
C1416 C1404 1.349 . S
C1416 H1410 0.950 . S
C1416 C1417 1.327 . S
C1417 H1411 0.950 . S
C1417 C1416 1.327 . S
C1417 C1421 1.429 . S
C1418 C1401 1.574 . S
C1418 H1412 0.949 . S
C1418 C1422 1.368 1_545 S
C1419 C1400 1.429 1_545 S
C1419 C1413 1.429 . S
C1419 C1420 1.523 . S
C1420 C1401 1.368 . S
C1420 C1414 1.368 1_545 S
C1420 C1419 1.523 . S
C1421 C1405 1.429 1_565 S
C1421 C1417 1.429 . S
C1421 C1422 1.523 . S
C1422 C1406 1.368 . S
C1422 C1418 1.368 1_565 S
C1422 C1421 1.523 . S
H1423 C1398 0.950 . S
H1424 C1400 0.950 . S
H1425 C1401 0.949 . S
H1426 C1403 0.950 . S
H1427 C1405 0.950 . S
C1428 C1429 1.349 . S
C1428 C1430 1.327 . S
C1428 H1453 0.950 . S
C1429 C1428 1.349 . S
C1429 C1445 1.349 . S
C1430 C1428 1.327 . S
C1430 C1449 1.429 . S
C1430 H1454 0.950 . S
C1431 C1448 1.574 . S
C1431 C1450 1.368 1_655 S
C1431 H1455 0.949 . S
H1432 C1436 0.949 . S
C1433 C1434 1.349 . S
C1433 C1435 1.327 . S
C1433 H1456 0.950 . S
C1434 C1433 1.349 . S
C1434 C1446 1.349 . S
C1435 C1433 1.327 . S
C1435 C1451 1.429 . S
C1435 H1457 0.950 . S
C1436 H1432 0.949 . S
C1436 C1444 1.574 . S
C1436 C1452 1.368 1_455 S
H1437 C1445 0.950 1_655 S
H1438 C1443 0.970 . S
H1439 C1444 0.949 . S
H1440 C1446 0.950 1_455 S
H1441 C1447 0.970 . S
H1442 C1448 0.949 . S
C1443 H1438 0.970 . S
C1443 C1445 1.321 1_655 S
C1443 C1449 1.416 1_655 S
C1444 C1436 1.574 . S
C1444 H1439 0.949 . S
C1444 C1450 1.368 . S
C1445 C1429 1.349 . S
C1445 H1437 0.950 1_455 S
C1445 C1443 1.321 1_455 S
C1446 C1434 1.349 . S
C1446 H1440 0.950 1_655 S
C1446 C1447 1.321 1_655 S
C1447 H1441 0.970 . S
C1447 C1446 1.321 1_455 S
C1447 C1451 1.416 1_455 S
C1448 C1431 1.574 . S
C1448 H1442 0.949 . S
C1448 C1452 1.368 . S
C1449 C1430 1.429 . S
C1449 C1443 1.416 1_455 S
C1449 C1450 1.523 . S
C1450 C1431 1.368 1_455 S
C1450 C1444 1.368 . S
C1450 C1449 1.523 . S
C1451 C1435 1.429 . S
C1451 C1447 1.416 1_655 S
C1451 C1452 1.523 . S
C1452 C1436 1.368 1_655 S
C1452 C1448 1.368 . S
C1452 C1451 1.523 . S
H1453 C1428 0.950 . S
H1454 C1430 0.950 . S
H1455 C1431 0.949 . S
H1456 C1433 0.950 . S
H1457 C1435 0.950 . S
C1458 C1459 1.349 . S
C1458 C1460 1.327 . S
C1458 H1483 0.950 . S
C1459 C1458 1.349 . S
C1459 C1475 1.310 1_565 S
C1460 C1458 1.327 . S
C1460 C1479 1.429 . S
C1460 H1484 0.950 . S
C1461 C1478 1.574 . S
C1461 C1480 1.368 1_545 S
C1461 H1485 0.949 . S
H1462 C1466 0.949 . S
C1463 C1464 1.349 . S
C1463 C1465 1.327 . S
C1463 H1486 0.950 . S
C1464 C1463 1.349 . S
C1464 C1476 1.310 1_545 S
C1465 C1463 1.327 . S
C1465 C1481 1.429 . S
C1465 H1487 0.950 . S
C1466 H1462 0.949 . S
C1466 C1474 1.574 . S
C1466 C1482 1.368 1_565 S
H1467 C1475 0.981 . S
H1468 C1473 0.950 . S
H1469 C1474 0.949 . S
H1470 C1476 0.981 . S
H1471 C1477 0.950 . S
H1472 C1478 0.949 . S
C1473 H1468 0.950 . S
C1473 C1475 1.338 . S
C1473 C1479 1.429 1_545 S
C1474 C1466 1.574 . S
C1474 H1469 0.949 . S
C1474 C1480 1.368 . S
C1475 C1459 1.310 1_545 S
C1475 H1467 0.981 . S
C1475 C1473 1.338 . S
C1476 C1464 1.310 1_565 S
C1476 H1470 0.981 . S
C1476 C1477 1.338 . S
C1477 H1471 0.950 . S
C1477 C1476 1.338 . S
C1477 C1481 1.429 1_565 S
C1478 C1461 1.574 . S
C1478 H1472 0.949 . S
C1478 C1482 1.368 . S
C1479 C1460 1.429 . S
C1479 C1473 1.429 1_565 S
C1479 C1480 1.523 . S
C1480 C1461 1.368 1_565 S
C1480 C1474 1.368 . S
C1480 C1479 1.523 . S
C1481 C1465 1.429 . S
C1481 C1477 1.429 1_545 S
C1481 C1482 1.523 . S
C1482 C1466 1.368 1_545 S
C1482 C1478 1.368 . S
C1482 C1481 1.523 . S
H1483 C1458 0.950 . S
H1484 C1460 0.950 . S
H1485 C1461 0.949 . S
H1486 C1463 0.950 . S
H1487 C1465 0.950 . S
C1488 C1489 1.349 . S
C1488 C1490 1.327 . S
C1488 H1513 0.950 . S
C1489 C1488 1.349 . S
C1489 C1505 1.349 . S
C1490 C1488 1.327 . S
C1490 C1509 1.429 . S
C1490 H1514 0.950 . S
C1491 C1508 1.574 . S
C1491 C1510 1.368 . S
C1491 H1515 0.949 . S
H1492 C1496 0.949 . S
C1493 C1494 1.349 . S
C1493 C1495 1.327 . S
C1493 H1516 0.950 . S
C1494 C1493 1.349 . S
C1494 C1506 1.349 . S
C1495 C1493 1.327 . S
C1495 C1511 1.429 . S
C1495 H1517 0.950 . S
C1496 H1492 0.949 . S
C1496 C1504 1.574 . S
C1496 C1512 1.368 . S
H1497 C1505 0.950 . S
H1498 C1503 0.950 . S
H1499 C1504 0.949 . S
H1500 C1506 0.950 . S
H1501 C1507 0.950 . S
H1502 C1508 0.949 . S
C1503 H1498 0.950 . S
C1503 C1505 1.327 . S
C1503 C1509 1.429 . S
C1504 C1496 1.574 . S
C1504 H1499 0.949 . S
C1504 C1510 1.368 . S
C1505 C1489 1.349 . S
C1505 H1497 0.950 . S
C1505 C1503 1.327 . S
C1506 C1494 1.349 . S
C1506 H1500 0.950 . S
C1506 C1507 1.327 . S
C1507 H1501 0.950 . S
C1507 C1506 1.327 . S
C1507 C1511 1.429 . S
C1508 C1491 1.574 . S
C1508 H1502 0.949 . S
C1508 C1512 1.368 . S
C1509 C1490 1.429 . S
C1509 C1503 1.429 . S
C1509 C1510 1.523 . S
C1510 C1491 1.368 . S
C1510 C1504 1.368 . S
C1510 C1509 1.523 . S
C1511 C1495 1.429 . S
C1511 C1507 1.429 . S
C1511 C1512 1.523 . S
C1512 C1496 1.368 . S
C1512 C1508 1.368 . S
C1512 C1511 1.523 . S
H1513 C1488 0.950 . S
H1514 C1490 0.950 . S
H1515 C1491 0.949 . S
H1516 C1493 0.950 . S
H1517 C1495 0.950 . S
C1518 C1519 1.349 . S
C1518 C1520 1.327 . S
C1518 H1543 0.950 . S
C1519 C1518 1.349 . S
C1519 C1535 1.349 . S
C1520 C1518 1.327 . S
C1520 C1539 1.429 . S
C1520 H1544 0.950 . S
C1521 C1538 1.574 . S
C1521 C1540 1.368 . S
C1521 H1545 0.949 . S
H1522 C1526 0.949 . S
C1523 C1524 1.349 . S
C1523 C1525 1.327 . S
C1523 H1546 0.950 . S
C1524 C1523 1.349 . S
C1524 C1536 1.349 . S
C1525 C1523 1.327 . S
C1525 C1541 1.429 . S
C1525 H1547 0.950 . S
C1526 H1522 0.949 . S
C1526 C1534 1.574 . S
C1526 C1542 1.368 . S
H1527 C1535 0.950 . S
H1528 C1533 0.950 . S
H1529 C1534 0.949 . S
H1530 C1536 0.950 . S
H1531 C1537 0.950 . S
H1532 C1538 0.949 . S
C1533 H1528 0.950 . S
C1533 C1535 1.327 . S
C1533 C1539 1.429 . S
C1534 C1526 1.574 . S
C1534 H1529 0.949 . S
C1534 C1540 1.368 . S
C1535 C1519 1.349 . S
C1535 H1527 0.950 . S
C1535 C1533 1.327 . S
C1536 C1524 1.349 . S
C1536 H1530 0.950 . S
C1536 C1537 1.327 . S
C1537 H1531 0.950 . S
C1537 C1536 1.327 . S
C1537 C1541 1.429 . S
C1538 C1521 1.574 . S
C1538 H1532 0.949 . S
C1538 C1542 1.368 . S
C1539 C1520 1.429 . S
C1539 C1533 1.429 . S
C1539 C1540 1.523 . S
C1540 C1521 1.368 . S
C1540 C1534 1.368 . S
C1540 C1539 1.523 . S
C1541 C1525 1.429 . S
C1541 C1537 1.429 . S
C1541 C1542 1.523 . S
C1542 C1526 1.368 . S
C1542 C1538 1.368 . S
C1542 C1541 1.523 . S
H1543 C1518 0.950 . S
H1544 C1520 0.950 . S
H1545 C1521 0.949 . S
H1546 C1523 0.950 . S
H1547 C1525 0.950 . S
C1548 C1549 1.349 . S
C1548 C1550 1.327 . S
C1548 H1573 0.950 . S
C1549 C1548 1.349 . S
C1549 C1565 1.349 . S
C1550 C1548 1.327 . S
C1550 C1569 1.429 . S
C1550 H1574 0.950 . S
C1551 C1568 1.574 . S
C1551 C1570 1.368 . S
C1551 H1575 0.949 . S
H1552 C1556 0.949 . S
C1553 C1554 1.349 . S
C1553 C1555 1.327 . S
C1553 H1576 0.950 . S
C1554 C1553 1.349 . S
C1554 C1566 1.349 . S
C1555 C1553 1.327 . S
C1555 C1571 1.429 . S
C1555 H1577 0.950 . S
C1556 H1552 0.949 . S
C1556 C1564 1.574 . S
C1556 C1572 1.368 . S
H1557 C1565 0.950 . S
H1558 C1563 0.950 . S
H1559 C1564 0.949 . S
H1560 C1566 0.950 . S
H1561 C1567 0.950 . S
H1562 C1568 0.949 . S
C1563 H1558 0.950 . S
C1563 C1565 1.327 . S
C1563 C1569 1.429 . S
C1564 C1556 1.574 . S
C1564 H1559 0.949 . S
C1564 C1570 1.368 . S
C1565 C1549 1.349 . S
C1565 H1557 0.950 . S
C1565 C1563 1.327 . S
C1566 C1554 1.349 . S
C1566 H1560 0.950 . S
C1566 C1567 1.327 . S
C1567 H1561 0.950 . S
C1567 C1566 1.327 . S
C1567 C1571 1.429 . S
C1568 C1551 1.574 . S
C1568 H1562 0.949 . S
C1568 C1572 1.368 . S
C1569 C1550 1.429 . S
C1569 C1563 1.429 . S
C1569 C1570 1.523 . S
C1570 C1551 1.368 . S
C1570 C1564 1.368 . S
C1570 C1569 1.523 . S
C1571 C1555 1.429 . S
C1571 C1567 1.429 . S
C1571 C1572 1.523 . S
C1572 C1556 1.368 . S
C1572 C1568 1.368 . S
C1572 C1571 1.523 . S
H1573 C1548 0.950 . S
H1574 C1550 0.950 . S
H1575 C1551 0.949 . S
H1576 C1553 0.950 . S
H1577 C1555 0.950 . S
C1578 C1579 1.349 . S
C1578 C1580 1.327 . S
C1578 H1603 0.950 . S
C1579 C1578 1.349 . S
C1579 C1595 1.349 . S
C1580 C1578 1.327 . S
C1580 C1599 1.429 . S
C1580 H1604 0.950 . S
C1581 C1598 1.574 . S
C1581 C1600 1.368 . S
C1581 H1605 0.949 . S
H1582 C1586 0.949 . S
C1583 C1584 1.349 . S
C1583 C1585 1.327 . S
C1583 H1606 0.950 . S
C1584 C1583 1.349 . S
C1584 C1596 1.349 . S
C1585 C1583 1.327 . S
C1585 C1601 1.429 . S
C1585 H1607 0.950 . S
C1586 H1582 0.949 . S
C1586 C1594 1.574 . S
C1586 C1602 1.368 . S
H1587 C1595 0.950 . S
H1588 C1593 0.950 . S
H1589 C1594 0.949 . S
H1590 C1596 0.950 . S
H1591 C1597 0.950 . S
H1592 C1598 0.949 . S
C1593 H1588 0.950 . S
C1593 C1595 1.327 . S
C1593 C1599 1.429 . S
C1594 C1586 1.574 . S
C1594 H1589 0.949 . S
C1594 C1600 1.368 . S
C1595 C1579 1.349 . S
C1595 H1587 0.950 . S
C1595 C1593 1.327 . S
C1596 C1584 1.349 . S
C1596 H1590 0.950 . S
C1596 C1597 1.327 . S
C1597 H1591 0.950 . S
C1597 C1596 1.327 . S
C1597 C1601 1.429 . S
C1598 C1581 1.574 . S
C1598 H1592 0.949 . S
C1598 C1602 1.368 . S
C1599 C1580 1.429 . S
C1599 C1593 1.429 . S
C1599 C1600 1.523 . S
C1600 C1581 1.368 . S
C1600 C1594 1.368 . S
C1600 C1599 1.523 . S
C1601 C1585 1.429 . S
C1601 C1597 1.429 . S
C1601 C1602 1.523 . S
C1602 C1586 1.368 . S
C1602 C1598 1.368 . S
C1602 C1601 1.523 . S
H1603 C1578 0.950 . S
H1604 C1580 0.950 . S
H1605 C1581 0.949 . S
H1606 C1583 0.950 . S
H1607 C1585 0.950 . S
C1608 C1609 1.349 . S
C1608 C1610 1.327 . S
C1608 H1633 0.950 . S
C1609 C1608 1.349 . S
C1609 C1625 1.349 . S
C1610 C1608 1.327 . S
C1610 C1629 1.429 . S
C1610 H1634 0.950 . S
C1611 C1628 1.574 . S
C1611 C1630 1.368 . S
C1611 H1635 0.949 . S
H1612 C1616 0.949 . S
C1613 C1614 1.349 . S
C1613 C1615 1.327 . S
C1613 H1636 0.950 . S
C1614 C1613 1.349 . S
C1614 C1626 1.349 . S
C1615 C1613 1.327 . S
C1615 C1631 1.429 . S
C1615 H1637 0.950 . S
C1616 H1612 0.949 . S
C1616 C1624 1.574 . S
C1616 C1632 1.368 . S
H1617 C1625 0.950 . S
H1618 C1623 0.950 . S
H1619 C1624 0.949 . S
H1620 C1626 0.950 . S
H1621 C1627 0.950 . S
H1622 C1628 0.949 . S
C1623 H1618 0.950 . S
C1623 C1625 1.327 . S
C1623 C1629 1.429 . S
C1624 C1616 1.574 . S
C1624 H1619 0.949 . S
C1624 C1630 1.368 . S
C1625 C1609 1.349 . S
C1625 H1617 0.950 . S
C1625 C1623 1.327 . S
C1626 C1614 1.349 . S
C1626 H1620 0.950 . S
C1626 C1627 1.327 . S
C1627 H1621 0.950 . S
C1627 C1626 1.327 . S
C1627 C1631 1.429 . S
C1628 C1611 1.574 . S
C1628 H1622 0.949 . S
C1628 C1632 1.368 . S
C1629 C1610 1.429 . S
C1629 C1623 1.429 . S
C1629 C1630 1.523 . S
C1630 C1611 1.368 . S
C1630 C1624 1.368 . S
C1630 C1629 1.523 . S
C1631 C1615 1.429 . S
C1631 C1627 1.429 . S
C1631 C1632 1.523 . S
C1632 C1616 1.368 . S
C1632 C1628 1.368 . S
C1632 C1631 1.523 . S
H1633 C1608 0.950 . S
H1634 C1610 0.950 . S
H1635 C1611 0.949 . S
H1636 C1613 0.950 . S
H1637 C1615 0.950 . S
C1638 C1639 1.349 . S
C1638 C1640 1.327 . S
C1638 H1663 0.950 . S
C1639 C1638 1.349 . S
C1639 C1655 1.349 . S
C1640 C1638 1.327 . S
C1640 C1659 1.429 . S
C1640 H1664 0.950 . S
C1641 C1658 1.574 . S
C1641 C1660 1.368 . S
C1641 H1665 0.949 . S
H1642 C1646 0.949 . S
C1643 C1644 1.349 . S
C1643 C1645 1.327 . S
C1643 H1666 0.950 . S
C1644 C1643 1.349 . S
C1644 C1656 1.349 . S
C1645 C1643 1.327 . S
C1645 C1661 1.429 . S
C1645 H1667 0.950 . S
C1646 H1642 0.949 . S
C1646 C1654 1.574 . S
C1646 C1662 1.368 . S
H1647 C1655 0.950 . S
H1648 C1653 0.950 . S
H1649 C1654 0.949 . S
H1650 C1656 0.950 . S
H1651 C1657 0.950 . S
H1652 C1658 0.949 . S
C1653 H1648 0.950 . S
C1653 C1655 1.327 . S
C1653 C1659 1.429 . S
C1654 C1646 1.574 . S
C1654 H1649 0.949 . S
C1654 C1660 1.368 . S
C1655 C1639 1.349 . S
C1655 H1647 0.950 . S
C1655 C1653 1.327 . S
C1656 C1644 1.349 . S
C1656 H1650 0.950 . S
C1656 C1657 1.327 . S
C1657 H1651 0.950 . S
C1657 C1656 1.327 . S
C1657 C1661 1.429 . S
C1658 C1641 1.574 . S
C1658 H1652 0.949 . S
C1658 C1662 1.368 . S
C1659 C1640 1.429 . S
C1659 C1653 1.429 . S
C1659 C1660 1.523 . S
C1660 C1641 1.368 . S
C1660 C1654 1.368 . S
C1660 C1659 1.523 . S
C1661 C1645 1.429 . S
C1661 C1657 1.429 . S
C1661 C1662 1.523 . S
C1662 C1646 1.368 . S
C1662 C1658 1.368 . S
C1662 C1661 1.523 . S
H1663 C1638 0.950 . S
H1664 C1640 0.950 . S
H1665 C1641 0.949 . S
H1666 C1643 0.950 . S
H1667 C1645 0.950 . S
C1668 C1669 1.349 . S
C1668 C1670 1.327 . S
C1668 H1693 0.950 . S
C1669 C1668 1.349 . S
C1669 C1685 1.349 . S
C1670 C1668 1.327 . S
C1670 C1689 1.429 . S
C1670 H1694 0.950 . S
C1671 C1688 1.574 . S
C1671 C1690 1.368 . S
C1671 H1695 0.949 . S
H1672 C1676 0.949 . S
C1673 C1674 1.349 . S
C1673 C1675 1.327 . S
C1673 H1696 0.950 . S
C1674 C1673 1.349 . S
C1674 C1686 1.349 . S
C1675 C1673 1.327 . S
C1675 C1691 1.429 . S
C1675 H1697 0.950 . S
C1676 H1672 0.949 . S
C1676 C1684 1.574 . S
C1676 C1692 1.368 . S
H1677 C1685 0.950 . S
H1678 C1683 0.950 . S
H1679 C1684 0.949 . S
H1680 C1686 0.950 . S
H1681 C1687 0.950 . S
H1682 C1688 0.949 . S
C1683 H1678 0.950 . S
C1683 C1685 1.327 . S
C1683 C1689 1.429 . S
C1684 C1676 1.574 . S
C1684 H1679 0.949 . S
C1684 C1690 1.368 . S
C1685 C1669 1.349 . S
C1685 H1677 0.950 . S
C1685 C1683 1.327 . S
C1686 C1674 1.349 . S
C1686 H1680 0.950 . S
C1686 C1687 1.327 . S
C1687 H1681 0.950 . S
C1687 C1686 1.327 . S
C1687 C1691 1.429 . S
C1688 C1671 1.574 . S
C1688 H1682 0.949 . S
C1688 C1692 1.368 . S
C1689 C1670 1.429 . S
C1689 C1683 1.429 . S
C1689 C1690 1.523 . S
C1690 C1671 1.368 . S
C1690 C1684 1.368 . S
C1690 C1689 1.523 . S
C1691 C1675 1.429 . S
C1691 C1687 1.429 . S
C1691 C1692 1.523 . S
C1692 C1676 1.368 . S
C1692 C1688 1.368 . S
C1692 C1691 1.523 . S
H1693 C1668 0.950 . S
H1694 C1670 0.950 . S
H1695 C1671 0.949 . S
H1696 C1673 0.950 . S
H1697 C1675 0.950 . S
C1698 C1699 1.349 . S
C1698 C1700 1.327 . S
C1698 H1723 0.950 . S
C1699 C1698 1.349 . S
C1699 C1715 1.349 . S
C1700 C1698 1.327 . S
C1700 C1719 1.429 . S
C1700 H1724 0.950 . S
C1701 C1718 1.574 . S
C1701 C1720 1.368 . S
C1701 H1725 0.949 . S
H1702 C1706 0.949 . S
C1703 C1704 1.349 . S
C1703 C1705 1.327 . S
C1703 H1726 0.950 . S
C1704 C1703 1.349 . S
C1704 C1716 1.349 . S
C1705 C1703 1.327 . S
C1705 C1721 1.429 . S
C1705 H1727 0.950 . S
C1706 H1702 0.949 . S
C1706 C1714 1.574 . S
C1706 C1722 1.368 . S
H1707 C1715 0.950 . S
H1708 C1713 0.950 . S
H1709 C1714 0.949 . S
H1710 C1716 0.950 . S
H1711 C1717 0.950 . S
H1712 C1718 0.949 . S
C1713 H1708 0.950 . S
C1713 C1715 1.327 . S
C1713 C1719 1.429 . S
C1714 C1706 1.574 . S
C1714 H1709 0.949 . S
C1714 C1720 1.368 . S
C1715 C1699 1.349 . S
C1715 H1707 0.950 . S
C1715 C1713 1.327 . S
C1716 C1704 1.349 . S
C1716 H1710 0.950 . S
C1716 C1717 1.327 . S
C1717 H1711 0.950 . S
C1717 C1716 1.327 . S
C1717 C1721 1.429 . S
C1718 C1701 1.574 . S
C1718 H1712 0.949 . S
C1718 C1722 1.368 . S
C1719 C1700 1.429 . S
C1719 C1713 1.429 . S
C1719 C1720 1.523 . S
C1720 C1701 1.368 . S
C1720 C1714 1.368 . S
C1720 C1719 1.523 . S
C1721 C1705 1.429 . S
C1721 C1717 1.429 . S
C1721 C1722 1.523 . S
C1722 C1706 1.368 . S
C1722 C1718 1.368 . S
C1722 C1721 1.523 . S
H1723 C1698 0.950 . S
H1724 C1700 0.950 . S
H1725 C1701 0.949 . S
H1726 C1703 0.950 . S
H1727 C1705 0.950 . S
C529 N5 1.271 . S
C534 N500 1.271 . S
C559 N38 1.271 . S
C564 N401 1.271 . S
C589 N434 1.271 . S
C594 N71 1.271 . S
C619 N104 1.271 . S
C624 N467 1.271 . S
C649 N137 1.271 . S
C654 N302 1.271 . S
C679 N335 1.271 . S
C684 N170 1.271 . S
C709 N368 1.271 . S
C714 N203 1.271 . S
C739 N269 1.271 . S
C744 N236 1.271 . S
C769 N113 1.593 1_556 S
C774 C17 1.645 . S
C799 N14 1.593 1_556 S
C804 C50 1.645 . S
C829 C83 1.645 . S
C834 N47 1.593 1_556 S
C859 C116 1.645 . S
C864 N80 1.593 1_556 S
C889 N179 1.593 . S
C894 C149 1.645 . S
C919 N212 1.593 . S
C924 C182 1.645 . S
C949 N245 1.593 . S
C954 C215 1.645 . S
C979 N146 1.593 . S
C984 C248 1.645 . S
C1009 N377 1.593 . S
C1014 C281 1.645 . S
C1039 C314 1.645 . S
C1044 N278 1.593 . S
C1069 N311 1.593 . S
C1074 C347 1.645 . S
C1099 N344 1.593 . S
C1104 C380 1.645 . S
C1129 N443 1.593 . S
C1134 C413 1.645 . S
C1159 N476 1.593 . S
C1164 C446 1.645 . S
C1189 N509 1.593 . S
C1194 C479 1.645 . S
C1219 N410 1.593 . S
C1224 C512 1.645 . S
C1249 C226 1.729 . S
C1254 C28 1.729 . S
C1279 C259 1.729 . S
C1284 C61 1.729 . S
C1309 C94 1.729 . S
C1314 C160 1.729 . S
C1339 C193 1.729 . S
C1344 C127 1.729 . S
C1369 C74 0.460 . S
C1374 C140 0.460 . S
C1399 C173 0.460 . S
C1404 C107 0.460 . S
C1429 C8 0.460 . S
C1434 C206 0.460 . S
C1459 C239 0.460 . S
C1464 C41 0.460 . S
C1489 C490 1.729 . S
C1494 C292 1.729 . S
C1519 C523 1.729 . S
C1524 C325 1.729 . S
C1549 C424 1.729 . S
C1554 C358 1.729 . S
C1579 C391 1.729 . S
C1584 C457 1.729 . S
C1609 C404 0.460 . S
C1614 C338 0.460 . S
C1639 C371 0.460 . S
C1644 C437 0.460 . S
C1669 C272 0.460 . S
C1674 C470 0.460 . S
C1699 C503 0.460 . S
C1704 C305 0.460 . S
