# Generated by pormake.
# Topology kag, (6)-cn, num edge types: 1
# Building blocks:
#     Node 0, Type 0, BuildingBlock: PAMTUU_clean_sbu_0, # of connection points: 6
#     Node 1, Type 0, BuildingBlock: PAMTUU_clean_sbu_0, # of connection points: 6
#     Node 2, Type 0, BuildingBlock: PAMTUU_clean_sbu_0, # of connection points: 6
#     Edge 3, Type (0, 0), BuildingBlock: KIFKEQ_clean_linker_1, # of connection points: 2
#     Edge 4, Type (0, 0), BuildingBlock: KIFKEQ_clean_linker_1, # of connection points: 2
#     Edge 5, Type (0, 0), BuildingBlock: KIFKEQ_clean_linker_1, # of connection points: 2
#     Edge 6, Type (0, 0), BuildingBlock: KIFKEQ_clean_linker_1, # of connection points: 2
#     Edge 7, Type (0, 0), BuildingBlock: KIFKEQ_clean_linker_1, # of connection points: 2
#     Edge 8, Type (0, 0), BuildingBlock: KIFKEQ_clean_linker_1, # of connection points: 2
#     Edge 9, Type (0, 0), BuildingBlock: KIFKEQ_clean_linker_1, # of connection points: 2
#     Edge 10, Type (0, 0), BuildingBlock: KIFKEQ_clean_linker_1, # of connection points: 2
#     Edge 11, Type (0, 0), BuildingBlock: KIFKEQ_clean_linker_1, # of connection points: 2
# Relax obj value: 0.090
# Max RMSD: 0.160
# Mean RMSD: 0.116
data_MOF--net-kag--node1-PAMTUU_clean_sbu_0--edge1-KIFKEQ_clean_linker_1
_symmetry_space_group_name_H-M    P1
_symmetry_Int_Tables_number       1
_symmetry_cell_setting            triclinic
loop_
_symmetry_equiv_pos_as_xyz
'x, y, z'
_cell_length_a     49.770586
_cell_length_b     30.937094
_cell_length_c     15.380568
_cell_angle_alpha  88.325669
_cell_angle_beta   98.501049
_cell_angle_gamma 122.67463
loop_
_atom_site_label
_atom_site_type_symbol
_atom_site_fract_x
_atom_site_fract_y
_atom_site_fract_z
_atom_type_partial_charge
Tb0 Tb 1.0348 0.60313 0.01068 0.0
Tb1 Tb 0.04685 0.5081 0.02344 0.0
C2 C 0.03913 0.55304 0.84476 0.0
C3 C 0.99078 0.66854 -0.00135 0.0
C4 C 0.93162 0.66238 0.98675 0.0
C5 C 0.95795 0.7039 0.9529 0.0
C6 C 0.98728 0.70691 0.95885 0.0
C7 C 0.96451 0.62688 0.0319 0.0
C8 C 0.93524 0.62381 0.026 0.0
C9 C 1.02157 0.67158 0.00439 0.0
O10 O 0.98824 0.53488 0.02388 0.0
O11 O 0.99466 0.47011 0.98335 0.0
O12 O 1.03057 0.51266 0.14393 0.0
O13 O 0.05228 0.59902 0.14732 0.0
O14 O 0.04389 0.4445 0.9662 0.0
O15 O 0.06543 0.47065 0.10187 0.0
O16 O 0.0941 0.5791 0.05875 0.0
O17 O 0.08491 0.63872 -0.00684 0.0
O18 O 1.02232 0.56759 0.87863 0.0
O19 O 0.0564 0.53889 0.89508 0.0
C20 C 0.97626 0.48682 -0.0017 0.0
O21 O 1.03052 0.65692 0.07703 0.0
O22 O 1.02535 0.65296 0.93575 0.0
C23 C 0.04138 0.55606 0.18784 0.0
C24 C 0.08959 0.44144 0.02158 0.0
C25 C 0.14703 0.44662 0.0056 0.0
C26 C 0.12319 0.40621 0.04837 0.0
C27 C 0.09474 0.40369 0.05624 0.0
C28 C 0.1131 0.48166 0.97836 0.0
C29 C 0.1415 0.48412 0.97012 0.0
C30 C 0.0608 0.4407 0.03587 0.0
C31 C 0.10468 0.62459 0.02702 0.0
H32 H 0.95606 0.73448 0.92303 0.0
H33 H 1.00726 0.73929 0.93265 0.0
H34 H 0.96661 0.59669 0.06263 0.0
H35 H 0.91535 0.59092 0.0515 0.0
H36 H 0.12681 0.37713 0.07769 0.0
H37 H 0.07701 0.37277 0.09081 0.0
H38 H 0.10965 0.51147 0.95185 0.0
H39 H 0.15907 0.51538 0.93578 0.0
Tb40 Tb 0.49818 1.02692 0.97491 0.0
Tb41 Tb 0.5788 0.08939 0.01431 0.0
C42 C 0.53975 0.06157 0.82237 0.0
C43 C 0.40499 0.94327 0.95279 0.0
C44 C 0.34099 0.86573 0.97305 0.0
C45 C 0.34721 0.90598 0.91742 0.0
C46 C 0.37876 0.94408 0.90734 0.0
C47 C 0.39931 0.90356 0.00893 0.0
C48 C 0.36747 0.865 0.01905 0.0
C49 C 0.43762 0.98557 0.9407 0.0
O50 O 0.50936 0.96842 0.96285 0.0
O51 O 0.56007 1.01007 0.04634 0.0
O52 O 0.56143 0.08978 0.1355 0.0
O53 O 0.51027 1.01702 0.11228 0.0
O54 O 0.62144 0.09366 -0.00117 0.0
O55 O 0.6228 0.14874 0.08546 0.0
O56 O 0.56889 0.14702 0.96586 0.0
O57 O 0.51796 0.10823 0.00303 0.0
O58 O 0.51546 0.05845 0.8525 0.0
O59 O 0.56449 0.06583 0.87499 0.0
C60 C 0.53433 0.96832 0.00525 0.0
O61 O 0.45602 1.01803 0.00769 0.0
O62 O 0.45388 0.97576 0.89452 0.0
C63 C 0.53574 1.05259 0.16534 0.0
C64 C 0.67152 0.17531 0.03077 0.0
C65 C 0.73593 0.24673 0.00351 0.0
C66 C 0.72627 0.24627 0.08518 0.0
C67 C 0.69452 0.21106 0.09849 0.0
C68 C 0.68073 0.17616 0.94827 0.0
C69 C 0.71263 0.2116 0.93476 0.0
C70 C 0.63966 0.13451 0.05234 0.0
C71 C 0.54416 0.14884 0.9809 0.0
H72 H 0.32766 0.9087 0.88254 0.0
H73 H 0.38271 0.97471 0.86432 0.0
H74 H 0.41935 0.90247 0.04482 0.0
H75 H 0.36358 0.83447 0.06212 0.0
H76 H 0.74352 0.27194 0.14021 0.0
H77 H 0.68819 0.21066 0.1631 0.0
H78 H 0.66354 0.14881 0.89489 0.0
H79 H 0.71911 0.21123 0.87073 0.0
Tb80 Tb 0.58065 0.59646 -0.00087 0.0
Tb81 Tb 0.50091 0.5236 0.96143 0.0
C82 C 0.53855 0.56004 0.15135 0.0
C83 C 0.66923 0.65035 0.00677 0.0
C84 C 0.72378 0.64941 0.97974 0.0
C85 C 0.69277 0.60388 0.96648 0.0
C86 C 0.6657 0.60436 0.97972 0.0
C87 C 0.69988 0.69597 0.01765 0.0
C88 C 0.72691 0.69559 0.00417 0.0
C89 C 0.64183 0.65106 0.02985 0.0
O90 O 0.56889 0.5208 0.95721 0.0
O91 O 0.51839 0.47319 -0.0024 0.0
O92 O 0.51764 0.51952 0.84153 0.0
O93 O 0.56535 0.59794 0.85974 0.0
O94 O 0.45695 0.46595 -0.00045 0.0
O95 O 0.45804 0.49978 0.87419 0.0
O96 O 0.51419 0.60261 0.9429 0.0
O97 O 0.56423 0.64602 0.02919 0.0
O98 O 0.56374 0.56568 0.12253 0.0
O99 O 0.5136 0.55377 0.09699 0.0
C100 C 0.54436 0.4769 0.97742 0.0
O101 O 0.62453 0.65875 0.96693 0.0
O102 O 0.62382 0.61481 0.07879 0.0
C103 C 0.54135 0.55886 0.80879 0.0
C104 C 0.4117 0.4712 0.94074 0.0
C105 C 0.35522 0.46921 0.95762 0.0
C106 C 0.36199 0.46435 0.87414 0.0
C107 C 0.3898 0.4651 0.86593 0.0
C108 C 0.40545 0.47713 0.02432 0.0
C109 C 0.37746 0.47611 0.03263 0.0
C110 C 0.43986 0.46885 0.92934 0.0
C111 C 0.53863 0.64446 0.98754 0.0
H112 H 0.68948 0.56782 0.94662 0.0
H113 H 0.64216 0.56871 0.97077 0.0
H114 H 0.70305 0.73176 0.0389 0.0
H115 H 0.75042 0.73118 0.01601 0.0
H116 H 0.34577 0.45994 0.81484 0.0
H117 H 0.39407 0.46042 0.80079 0.0
H118 H 0.42187 0.48181 0.08332 0.0
H119 H 0.37289 0.47948 0.09799 0.0
H120 H 1.01307 0.59152 0.72114 0.0
H121 H 0.06548 0.51579 0.74979 0.0
H122 H 1.01379 0.59283 0.5626 0.0
H123 H 0.06632 0.51748 0.59166 0.0
H124 H 1.02845 0.47746 0.2956 0.0
H125 H 1.02765 0.47702 0.45361 0.0
H126 H 0.05325 0.63446 0.45709 0.0
H127 H 0.05387 0.63494 0.29841 0.0
C128 C 1.02471 0.57511 0.69374 0.0
C129 C 0.03914 0.55343 0.74828 0.0
C130 C 1.0253 0.5762 0.60295 0.0
C131 C 0.0401 0.55525 0.56455 0.0
C132 C 0.05443 0.53344 0.61906 0.0
C133 C 0.05406 0.5327 0.70983 0.0
C134 C 1.03392 0.51205 0.32987 0.0
C135 C 0.04127 0.55628 0.28423 0.0
C136 C 1.03362 0.51185 0.42062 0.0
C137 C 0.04043 0.55572 0.46794 0.0
C138 C 0.04762 0.5999 0.42233 0.0
C139 C 0.04818 0.60026 0.33153 0.0
H140 H 0.48616 0.9877 0.25561 0.0
H141 H 0.58553 0.11679 0.29314 0.0
H142 H 0.48689 0.98866 0.41489 0.0
H143 H 0.58597 0.11808 0.451 0.0
H144 H 0.58624 0.07072 0.73393 0.0
H145 H 0.58445 0.06599 0.57523 0.0
H146 H 0.49009 1.04437 0.53364 0.0
H147 H 0.49153 1.04827 0.69239 0.0
C148 C 0.5081 1.01622 0.29762 0.0
C149 C 0.53576 1.05214 0.26155 0.0
C150 C 0.50846 1.01694 0.38873 0.0
C151 C 0.53652 1.0534 0.4454 0.0
C152 C 0.56414 0.08907 0.40922 0.0
C153 C 0.56376 0.08848 0.31848 0.0
C154 C 0.5651 0.06502 0.69109 0.0
C155 C 0.53909 0.06006 0.72599 0.0
C156 C 0.56413 0.06246 0.6001 0.0
C157 C 0.53712 1.05481 0.54199 0.0
C158 C 0.51106 1.04968 0.57679 0.0
C159 C 0.51204 1.05236 0.6678 0.0
H160 H 0.58812 0.62968 0.71725 0.0
H161 H 0.49326 0.4892 0.68181 0.0
H162 H 0.58685 0.63086 0.5582 0.0
H163 H 0.49226 0.49021 0.52285 0.0
H164 H 0.48916 0.54051 0.23851 0.0
H165 H 0.48968 0.54102 0.39762 0.0
H166 H 0.58831 0.58035 0.4403 0.0
H167 H 0.58804 0.58049 0.28212 0.0
C168 C 0.56704 0.59898 0.67566 0.0
C169 C 0.54084 0.55928 0.71234 0.0
C170 C 0.56638 0.59957 0.58453 0.0
C171 C 0.53945 0.56061 0.52805 0.0
C172 C 0.51319 0.52106 0.56464 0.0
C173 C 0.5139 0.52032 0.6558 0.0
C174 C 0.51097 0.54938 0.28186 0.0
C175 C 0.53854 0.56044 0.24753 0.0
C176 C 0.5112 0.5494 0.37293 0.0
C177 C 0.53906 0.56079 0.4314 0.0
C178 C 0.56662 0.57205 0.39699 0.0
C179 C 0.56635 0.57179 0.30618 0.0
H180 H 0.15527 0.36789 0.97496 0.0
H181 H 0.20838 0.53301 0.02198 0.0
H182 H 0.20546 0.37322 0.96744 0.0
H183 H 0.25837 0.5386 0.00963 0.0
H184 H 0.34628 0.52566 0.07132 0.0
H185 H 0.29614 0.51942 0.08524 0.0
H186 H 0.24534 0.40086 0.87382 0.0
H187 H 0.29494 0.40514 0.86316 0.0
C188 C 0.17763 0.40536 0.98373 0.0
C189 C 0.17769 0.45 -0.00088 0.0
C190 C 0.20642 0.4085 0.97827 0.0
C191 C 0.23603 0.45637 0.98764 0.0
C192 C 0.2361 0.50102 0.00306 0.0
C193 C 0.20732 0.49787 0.00888 0.0
C194 C 0.32434 0.49783 0.02854 0.0
C195 C 0.32474 0.46598 0.96603 0.0
C196 C 0.29563 0.4947 0.03575 0.0
C197 C 0.26663 0.45969 0.98055 0.0
C198 C 0.26707 0.42784 0.91818 0.0
C199 C 0.2957 0.43083 0.9112 0.0
H200 H 0.77295 0.22794 0.91402 0.0
H201 H 0.77742 0.3468 0.06815 0.0
H202 H 0.83024 0.28528 0.90355 0.0
H203 H 0.83475 0.40277 0.062 0.0
H204 H 0.93053 0.51068 0.9767 0.0
H205 H 0.87249 0.45318 0.9684 0.0
H206 H 0.8828 0.32307 0.99078 0.0
H207 H 0.94123 0.38105 -0.00354 0.0
C208 C 0.78604 0.26639 0.94514 0.0
C209 C 0.77045 0.28258 -0.00786 0.0
C210 C 0.81906 0.29905 0.94021 0.0
C211 C 0.83734 0.34875 0.98216 0.0
C212 C 0.82154 0.36511 0.02781 0.0
C213 C 0.7886 0.33265 0.03236 0.0
C214 C 0.92051 0.46982 0.97985 0.0
C215 C 0.94065 0.45058 0.98837 0.0
C216 C 0.8871 0.43673 0.97536 0.0
C217 C 0.87279 0.38335 0.98011 0.0
C218 C 0.89285 0.36387 0.98617 0.0
C219 C 0.9264 0.39711 0.98986 0.0
H220 H 0.4823 0.86934 0.96341 0.0
H221 H 0.58557 0.9577 0.04824 0.0
H222 H 0.48235 0.79051 0.96275 0.0
H223 H 0.58596 0.87972 0.0438 0.0
H224 H 0.57522 0.72826 0.10445 0.0
H225 H 0.5727 0.80433 0.1129 0.0
H226 H 0.49675 0.743 0.88722 0.0
H227 H 0.49834 0.6658 0.88167 0.0
C228 C 0.50503 0.87199 0.98159 0.0
C229 C 0.53389 0.91988 0.00631 0.0
C230 C 0.50514 0.82675 0.98061 0.0
C231 C 0.53417 0.82833 0.00324 0.0
C232 C 0.56299 0.87645 0.02777 0.0
C233 C 0.56281 0.92144 0.02986 0.0
C234 C 0.55796 0.73098 0.05666 0.0
C235 C 0.53706 0.69094 -0.00779 0.0
C236 C 0.55661 0.77488 0.06113 0.0
C237 C 0.53465 0.78039 0.00041 0.0
C238 C 0.51365 0.74008 0.9361 0.0
C239 C 0.51471 0.69582 0.93243 0.0
H240 H 0.89987 0.68426 0.84899 0.0
H241 H 0.8931 0.63382 0.11424 0.0
H242 H 0.84884 0.67902 0.84195 0.0
H243 H 0.84224 0.62864 0.10728 0.0
H244 H 0.73717 0.5777 0.03869 0.0
H245 H 0.78639 0.57895 0.03531 0.0
H246 H 0.82644 0.72182 0.9052 0.0
H247 H 0.77672 0.71958 0.9057 0.0
C248 C 0.88762 0.67241 0.90601 0.0
C249 C 0.90056 0.65938 0.98212 0.0
C250 C 0.85836 0.66936 0.90194 0.0
C251 C 0.84136 0.65322 0.97392 0.0
C252 C 0.85435 0.64026 0.05001 0.0
C253 C 0.88356 0.64329 0.05405 0.0
C254 C 0.75623 0.60891 0.00794 0.0
C255 C 0.753 0.64858 0.97257 0.0
C256 C 0.78463 0.60997 0.00702 0.0
C257 C 0.81049 0.65069 0.97059 0.0
C258 C 0.80694 0.6897 0.93324 0.0
C259 C 0.77855 0.68869 0.93432 0.0
H260 H 0.13523 0.71547 0.94651 0.0
H261 H 0.15408 0.61368 0.10329 0.0
H262 H 0.19251 0.77088 0.93615 0.0
H263 H 0.21157 0.66954 0.09276 0.0
H264 H 0.31685 0.8198 0.12351 0.0
H265 H 0.26013 0.76032 0.14028 0.0
H266 H 0.23134 0.76251 0.86224 0.0
H267 H 0.28769 0.82059 0.84483 0.0
C268 C 0.15156 0.70503 0.97937 0.0
C269 C 0.13992 0.66001 0.02573 0.0
C270 C 0.18441 0.73667 0.97287 0.0
C271 C 0.20655 0.72441 0.01314 0.0
C272 C 0.19513 0.68013 0.0614 0.0
C273 C 0.16216 0.64809 0.06717 0.0
C274 C 0.29848 0.80687 0.06569 0.0
C275 C 0.30692 0.82567 0.98302 0.0
C276 C 0.26597 0.77295 0.07541 0.0
C277 C 0.24124 0.75741 0.00282 0.0
C278 C 0.24977 0.7747 0.91981 0.0
C279 C 0.28213 0.8081 0.90995 0.0
H280 H 0.58684 0.4621 0.90802 0.0
H281 H 0.50515 0.38568 0.04785 0.0
H282 H 0.58759 0.38387 0.90477 0.0
H283 H 0.50669 0.30864 0.04806 0.0
H284 H 0.49342 0.16093 0.95923 0.0
H285 H 0.49445 0.24018 0.95501 0.0
H286 H 0.59883 0.32789 0.98796 0.0
H287 H 0.59759 0.24772 0.98837 0.0
C288 C 0.56919 0.42876 0.93867 0.0
C289 C 0.54573 0.43009 0.97747 0.0
C290 C 0.56974 0.3839 0.9373 0.0
C291 C 0.54702 0.33943 0.97542 0.0
C292 C 0.52407 0.34143 0.01588 0.0
C293 C 0.5233 0.38591 0.01633 0.0
C294 C 0.51665 0.19708 0.96541 0.0
C295 C 0.54545 0.19792 0.97483 0.0
C296 C 0.51726 0.24276 0.96362 0.0
C297 C 0.54674 0.29085 0.97259 0.0
C298 C 0.57562 0.29172 0.98021 0.0
C299 C 0.57496 0.24574 0.98082 0.0
loop_
_geom_bond_atom_site_label_1
_geom_bond_atom_site_label_2
_geom_bond_distance
_geom_bond_site_symmetry_2
_ccdc_geom_bond_type
Tb0 C9 2.764 . S
Tb0 O10 2.325 . S
Tb0 O13 2.291 1_656 S
Tb0 O17 2.322 1_655 S
Tb0 O18 2.349 . S
Tb0 O21 2.415 1_556 S
Tb0 O22 2.399 . S
Tb1 O11 2.322 1_455 S
Tb1 O12 2.349 . S
Tb1 O14 2.415 1_554 S
Tb1 O15 2.399 . S
Tb1 O16 2.325 . S
Tb1 O19 2.303 1_554 S
Tb1 C30 2.764 . S
C2 O18 1.261 . S
C2 O19 1.257 1_655 S
C3 C6 1.358 . S
C3 C7 1.332 1_556 S
C3 C9 1.504 . S
C4 C5 1.373 1_554 S
C4 C8 1.308 . S
C5 C4 1.373 1_556 S
C5 C6 1.429 . S
C5 H32 0.932 . S
C6 C3 1.358 . S
C6 C5 1.429 . S
C6 H33 0.930 . S
C7 C3 1.332 1_554 S
C7 C8 1.394 . S
C7 H34 0.932 . S
C8 C4 1.308 . S
C8 C7 1.394 . S
C8 H35 0.929 . S
C9 Tb0 2.764 . S
C9 C3 1.504 . S
C9 O21 1.239 1_556 S
C9 O22 1.263 . S
O10 Tb0 2.325 . S
O10 C20 1.236 . S
O11 Tb1 2.322 1_655 S
O11 C20 1.257 1_554 S
O12 Tb1 2.349 . S
O12 C23 1.261 . S
O13 Tb0 2.291 1_454 S
O13 C23 1.267 . S
O14 Tb1 2.415 1_556 S
O14 C30 1.239 1_556 S
O15 Tb1 2.399 . S
O15 C30 1.263 . S
O16 Tb1 2.325 . S
O16 C31 1.236 . S
O17 Tb0 2.322 1_455 S
O17 C31 1.257 1_556 S
O18 Tb0 2.349 . S
O18 C2 1.261 . S
O19 Tb1 2.303 1_556 S
O19 C2 1.257 1_455 S
C20 O10 1.236 . S
C20 O11 1.257 1_556 S
O21 Tb0 2.415 1_554 S
O21 C9 1.239 1_554 S
O22 Tb0 2.399 . S
O22 C9 1.263 . S
C23 O12 1.261 . S
C23 O13 1.267 . S
C24 C27 1.358 . S
C24 C28 1.332 1_554 S
C24 C30 1.504 . S
C25 C26 1.373 1_556 S
C25 C29 1.308 . S
C26 C25 1.373 1_554 S
C26 C27 1.429 . S
C26 H36 0.932 . S
C27 C24 1.358 . S
C27 C26 1.429 . S
C27 H37 0.930 . S
C28 C24 1.332 1_556 S
C28 C29 1.394 . S
C28 H38 0.932 . S
C29 C25 1.308 . S
C29 C28 1.394 . S
C29 H39 0.929 . S
C30 Tb1 2.764 . S
C30 O14 1.239 1_554 S
C30 O15 1.263 . S
C30 C24 1.504 . S
C31 O16 1.236 . S
C31 O17 1.257 1_554 S
H32 C5 0.932 . S
H33 C6 0.930 . S
H34 C7 0.932 . S
H35 C8 0.929 . S
H36 C26 0.932 . S
H37 C27 0.930 . S
H38 C28 0.932 . S
H39 C29 0.929 . S
Tb40 C49 2.764 . S
Tb40 O50 2.325 . S
Tb40 O53 2.303 1_556 S
Tb40 O57 2.322 1_565 S
Tb40 O58 2.349 . S
Tb40 O61 2.415 1_556 S
Tb40 O62 2.399 . S
Tb41 O51 2.322 1_545 S
Tb41 O52 2.349 . S
Tb41 O54 2.415 1_554 S
Tb41 O55 2.399 . S
Tb41 O56 2.325 . S
Tb41 O59 2.303 1_554 S
Tb41 C70 2.764 . S
C42 O58 1.261 . S
C42 O59 1.257 1_565 S
C43 C46 1.358 . S
C43 C47 1.332 1_556 S
C43 C49 1.504 . S
C44 C45 1.373 . S
C44 C48 1.308 1_556 S
C45 C44 1.373 . S
C45 C46 1.429 . S
C45 H72 0.932 . S
C46 C43 1.358 . S
C46 C45 1.429 . S
C46 H73 0.930 . S
C47 C43 1.332 1_554 S
C47 C48 1.394 . S
C47 H74 0.932 . S
C48 C44 1.308 1_554 S
C48 C47 1.394 . S
C48 H75 0.929 . S
C49 Tb40 2.764 . S
C49 C43 1.504 . S
C49 O61 1.239 1_556 S
C49 O62 1.263 . S
O50 Tb40 2.325 . S
O50 C60 1.236 1_556 S
O51 Tb41 2.322 1_565 S
O51 C60 1.257 . S
O52 Tb41 2.349 . S
O52 C63 1.261 . S
O53 Tb40 2.303 1_554 S
O53 C63 1.257 1_565 S
O54 Tb41 2.415 1_556 S
O54 C70 1.239 1_556 S
O55 Tb41 2.399 . S
O55 C70 1.263 . S
O56 Tb41 2.325 . S
O56 C71 1.236 1_554 S
O57 Tb40 2.322 1_545 S
O57 C71 1.257 . S
O58 Tb40 2.349 . S
O58 C42 1.261 . S
O59 Tb41 2.303 1_556 S
O59 C42 1.257 1_545 S
C60 O50 1.236 1_554 S
C60 O51 1.257 . S
O61 Tb40 2.415 1_554 S
O61 C49 1.239 1_554 S
O62 Tb40 2.399 . S
O62 C49 1.263 . S
C63 O52 1.261 . S
C63 O53 1.257 1_545 S
C64 C67 1.358 . S
C64 C68 1.332 1_554 S
C64 C70 1.504 . S
C65 C66 1.373 . S
C65 C69 1.308 1_554 S
C66 C65 1.373 . S
C66 C67 1.429 . S
C66 H76 0.932 . S
C67 C64 1.358 . S
C67 C66 1.429 . S
C67 H77 0.930 . S
C68 C64 1.332 1_556 S
C68 C69 1.394 . S
C68 H78 0.932 . S
C69 C65 1.308 1_556 S
C69 C68 1.394 . S
C69 H79 0.929 . S
C70 Tb41 2.764 . S
C70 O54 1.239 1_554 S
C70 O55 1.263 . S
C70 C64 1.504 . S
C71 O56 1.236 1_556 S
C71 O57 1.257 . S
H72 C45 0.932 . S
H73 C46 0.930 . S
H74 C47 0.932 . S
H75 C48 0.929 . S
H76 C66 0.932 . S
H77 C67 0.930 . S
H78 C68 0.932 . S
H79 C69 0.929 . S
Tb80 C89 2.764 . S
Tb80 O90 2.325 . S
Tb80 O93 2.303 1_554 S
Tb80 O97 2.322 . S
Tb80 O98 2.349 . S
Tb80 O101 2.415 1_554 S
Tb80 O102 2.399 . S
Tb81 O91 2.322 . S
Tb81 O92 2.349 . S
Tb81 O94 2.415 1_556 S
Tb81 O95 2.399 . S
Tb81 O96 2.325 . S
Tb81 O99 2.303 1_556 S
Tb81 C110 2.764 . S
C82 O98 1.261 . S
C82 O99 1.257 . S
C83 C86 1.358 . S
C83 C87 1.332 1_554 S
C83 C89 1.504 . S
C84 C85 1.373 . S
C84 C88 1.308 1_554 S
C85 C84 1.373 . S
C85 C86 1.429 . S
C85 H112 0.932 . S
C86 C83 1.358 . S
C86 C85 1.429 . S
C86 H113 0.930 . S
C87 C83 1.332 1_556 S
C87 C88 1.394 . S
C87 H114 0.932 . S
C88 C84 1.308 1_556 S
C88 C87 1.394 . S
C88 H115 0.929 . S
C89 Tb80 2.764 . S
C89 C83 1.504 . S
C89 O101 1.239 1_554 S
C89 O102 1.263 . S
O90 Tb80 2.325 . S
O90 C100 1.236 1_554 S
O91 Tb81 2.322 . S
O91 C100 1.257 . S
O92 Tb81 2.349 . S
O92 C103 1.261 . S
O93 Tb80 2.303 1_556 S
O93 C103 1.257 . S
O94 Tb81 2.415 1_554 S
O94 C110 1.239 1_554 S
O95 Tb81 2.399 . S
O95 C110 1.263 . S
O96 Tb81 2.325 . S
O96 C111 1.236 1_556 S
O97 Tb80 2.322 . S
O97 C111 1.257 . S
O98 Tb80 2.349 . S
O98 C82 1.261 . S
O99 Tb81 2.303 1_554 S
O99 C82 1.257 . S
C100 O90 1.236 1_556 S
C100 O91 1.257 . S
O101 Tb80 2.415 1_556 S
O101 C89 1.239 1_556 S
O102 Tb80 2.399 . S
O102 C89 1.263 . S
C103 O92 1.261 . S
C103 O93 1.257 . S
C104 C107 1.358 . S
C104 C108 1.332 1_556 S
C104 C110 1.504 . S
C105 C106 1.373 . S
C105 C109 1.308 1_556 S
C106 C105 1.373 . S
C106 C107 1.429 . S
C106 H116 0.932 . S
C107 C104 1.358 . S
C107 C106 1.429 . S
C107 H117 0.930 . S
C108 C104 1.332 1_554 S
C108 C109 1.394 . S
C108 H118 0.932 . S
C109 C105 1.308 1_554 S
C109 C108 1.394 . S
C109 H119 0.929 . S
C110 Tb81 2.764 . S
C110 O94 1.239 1_556 S
C110 O95 1.263 . S
C110 C104 1.504 . S
C111 O96 1.236 1_554 S
C111 O97 1.257 . S
H112 C85 0.932 . S
H113 C86 0.930 . S
H114 C87 0.932 . S
H115 C88 0.929 . S
H116 C106 0.932 . S
H117 C107 0.930 . S
H118 C108 0.932 . S
H119 C109 0.929 . S
H120 C128 0.950 . S
H121 C133 0.950 . S
H122 C130 0.950 . S
H123 C132 0.950 . S
H124 C134 0.950 . S
H125 C136 0.950 . S
H126 C138 0.950 . S
H127 C139 0.950 . S
C128 H120 0.950 . S
C128 C129 1.386 1_655 S
C128 C130 1.391 . S
C129 C128 1.386 1_455 S
C129 C133 1.393 . S
C130 H122 0.950 . S
C130 C128 1.391 . S
C130 C131 1.400 1_655 S
C131 C130 1.400 1_455 S
C131 C132 1.398 . S
C131 C137 1.491 . S
C132 H123 0.950 . S
C132 C131 1.398 . S
C132 C133 1.391 . S
C133 H121 0.950 . S
C133 C129 1.393 . S
C133 C132 1.391 . S
C134 H124 0.950 . S
C134 C135 1.386 . S
C134 C136 1.391 . S
C135 C134 1.386 . S
C135 C139 1.393 1_455 S
C136 H125 0.950 . S
C136 C134 1.391 . S
C136 C137 1.400 . S
C137 C131 1.491 . S
C137 C136 1.400 . S
C137 C138 1.398 1_455 S
C138 H126 0.950 . S
C138 C137 1.398 1_655 S
C138 C139 1.391 . S
C139 H127 0.950 . S
C139 C135 1.393 1_655 S
C139 C138 1.391 . S
H140 C148 0.950 . S
H141 C153 0.950 . S
H142 C150 0.950 . S
H143 C152 0.950 . S
H144 C154 0.950 . S
H145 C156 0.950 . S
H146 C158 0.950 . S
H147 C159 0.950 . S
C148 H140 0.950 . S
C148 C149 1.386 . S
C148 C150 1.391 . S
C149 C148 1.386 . S
C149 C153 1.393 1_565 S
C150 H142 0.950 . S
C150 C148 1.391 . S
C150 C151 1.400 . S
C151 C150 1.400 . S
C151 C152 1.399 1_565 S
C151 C157 1.491 1_565 S
C152 H143 0.950 . S
C152 C151 1.399 1_545 S
C152 C153 1.391 . S
C153 H141 0.950 . S
C153 C149 1.393 1_545 S
C153 C152 1.391 . S
C154 H144 0.950 . S
C154 C155 1.386 . S
C154 C156 1.391 . S
C155 C154 1.386 . S
C155 C159 1.393 1_545 S
C156 H145 0.950 . S
C156 C154 1.391 . S
C156 C157 1.400 . S
C157 C151 1.491 1_545 S
C157 C156 1.400 . S
C157 C158 1.398 1_545 S
C158 H146 0.950 . S
C158 C157 1.398 1_565 S
C158 C159 1.391 . S
C159 H147 0.950 . S
C159 C155 1.393 1_565 S
C159 C158 1.391 . S
H160 C168 0.950 . S
H161 C173 0.950 . S
H162 C170 0.950 . S
H163 C172 0.950 . S
H164 C174 0.950 . S
H165 C176 0.950 . S
H166 C178 0.950 . S
H167 C179 0.950 . S
C168 H160 0.950 . S
C168 C169 1.386 . S
C168 C170 1.391 . S
C169 C168 1.386 . S
C169 C173 1.393 . S
C170 H162 0.950 . S
C170 C168 1.391 . S
C170 C171 1.400 . S
C171 C170 1.400 . S
C171 C172 1.398 . S
C171 C177 1.491 . S
C172 H163 0.950 . S
C172 C171 1.398 . S
C172 C173 1.391 . S
C173 H161 0.950 . S
C173 C169 1.393 . S
C173 C172 1.391 . S
C174 H164 0.950 . S
C174 C175 1.386 . S
C174 C176 1.391 . S
C175 C174 1.386 . S
C175 C179 1.393 . S
C176 H165 0.950 . S
C176 C174 1.391 . S
C176 C177 1.400 . S
C177 C171 1.491 . S
C177 C176 1.400 . S
C177 C178 1.398 . S
C178 H166 0.950 . S
C178 C177 1.398 . S
C178 C179 1.391 . S
C179 H167 0.950 . S
C179 C175 1.393 . S
C179 C178 1.391 . S
H180 C188 0.950 . S
H181 C193 0.950 . S
H182 C190 0.950 . S
H183 C192 0.950 . S
H184 C194 0.950 . S
H185 C196 0.950 . S
H186 C198 0.950 . S
H187 C199 0.950 . S
C188 H180 0.950 . S
C188 C189 1.386 . S
C188 C190 1.391 . S
C189 C188 1.386 . S
C189 C193 1.393 . S
C190 H182 0.950 . S
C190 C188 1.391 . S
C190 C191 1.400 . S
C191 C190 1.400 . S
C191 C192 1.398 . S
C191 C197 1.491 . S
C192 H183 0.950 . S
C192 C191 1.398 . S
C192 C193 1.391 . S
C193 H181 0.950 . S
C193 C189 1.393 . S
C193 C192 1.391 . S
C194 H184 0.950 . S
C194 C195 1.386 1_554 S
C194 C196 1.391 . S
C195 C194 1.386 1_556 S
C195 C199 1.393 . S
C196 H185 0.950 . S
C196 C194 1.391 . S
C196 C197 1.400 1_554 S
C197 C191 1.491 . S
C197 C196 1.400 1_556 S
C197 C198 1.398 . S
C198 H186 0.950 . S
C198 C197 1.398 . S
C198 C199 1.391 . S
C199 H187 0.950 . S
C199 C195 1.393 . S
C199 C198 1.391 . S
H200 C208 0.950 . S
H201 C213 0.950 . S
H202 C210 0.950 . S
H203 C212 0.950 . S
H204 C214 0.950 . S
H205 C216 0.950 . S
H206 C218 0.950 . S
H207 C219 0.950 . S
C208 H200 0.950 . S
C208 C209 1.377 1_556 S
C208 C210 1.391 . S
C209 C208 1.377 1_554 S
C209 C213 1.399 . S
C210 H202 0.950 . S
C210 C208 1.391 . S
C210 C211 1.402 . S
C211 C210 1.402 . S
C211 C212 1.396 1_556 S
C211 C217 1.493 1_556 S
C212 H203 0.950 . S
C212 C211 1.396 1_554 S
C212 C213 1.391 . S
C213 H201 0.950 . S
C213 C209 1.399 . S
C213 C212 1.391 . S
C214 H204 0.950 . S
C214 C215 1.381 1_554 S
C214 C216 1.391 . S
C215 C214 1.381 1_556 S
C215 C219 1.396 . S
C216 H205 0.950 . S
C216 C214 1.391 . S
C216 C217 1.405 . S
C217 C211 1.493 1_554 S
C217 C216 1.405 . S
C217 C218 1.392 1_554 S
C218 H206 0.950 . S
C218 C217 1.392 1_556 S
C218 C219 1.391 . S
C219 H207 0.950 . S
C219 C215 1.396 . S
C219 C218 1.391 . S
H220 C228 0.950 . S
H221 C233 0.950 . S
H222 C230 0.950 . S
H223 C232 0.950 . S
H224 C234 0.950 . S
H225 C236 0.950 . S
H226 C238 0.950 . S
H227 C239 0.950 . S
C228 H220 0.950 . S
C228 C229 1.386 1_556 S
C228 C230 1.391 . S
C229 C228 1.386 1_554 S
C229 C233 1.393 . S
C230 H222 0.950 . S
C230 C228 1.391 . S
C230 C231 1.400 1_556 S
C231 C230 1.400 1_554 S
C231 C232 1.398 . S
C231 C237 1.491 . S
C232 H223 0.950 . S
C232 C231 1.398 . S
C232 C233 1.391 . S
C233 H221 0.950 . S
C233 C229 1.393 . S
C233 C232 1.391 . S
C234 H224 0.950 . S
C234 C235 1.386 . S
C234 C236 1.391 . S
C235 C234 1.386 . S
C235 C239 1.393 1_554 S
C236 H225 0.950 . S
C236 C234 1.391 . S
C236 C237 1.400 . S
C237 C231 1.491 . S
C237 C236 1.400 . S
C237 C238 1.398 1_554 S
C238 H226 0.950 . S
C238 C237 1.398 1_556 S
C238 C239 1.391 . S
C239 H227 0.950 . S
C239 C235 1.393 1_556 S
C239 C238 1.391 . S
H240 C248 0.950 . S
H241 C253 0.950 . S
H242 C250 0.950 . S
H243 C252 0.950 . S
H244 C254 0.950 . S
H245 C256 0.950 . S
H246 C258 0.950 . S
H247 C259 0.950 . S
C248 H240 0.950 . S
C248 C249 1.386 1_556 S
C248 C250 1.391 . S
C249 C248 1.386 1_554 S
C249 C253 1.393 . S
C250 H242 0.950 . S
C250 C248 1.391 . S
C250 C251 1.400 1_556 S
C251 C250 1.400 1_554 S
C251 C252 1.398 . S
C251 C257 1.491 . S
C252 H243 0.950 . S
C252 C251 1.398 . S
C252 C253 1.391 . S
C253 H241 0.950 . S
C253 C249 1.393 . S
C253 C252 1.391 . S
C254 H244 0.950 . S
C254 C255 1.386 . S
C254 C256 1.391 . S
C255 C254 1.386 . S
C255 C259 1.393 1_554 S
C256 H245 0.950 . S
C256 C254 1.391 . S
C256 C257 1.400 . S
C257 C251 1.491 . S
C257 C256 1.400 . S
C257 C258 1.398 1_554 S
C258 H246 0.950 . S
C258 C257 1.398 1_556 S
C258 C259 1.391 . S
C259 H247 0.950 . S
C259 C255 1.393 1_556 S
C259 C258 1.391 . S
H260 C268 0.950 . S
H261 C273 0.950 . S
H262 C270 0.950 . S
H263 C272 0.950 . S
H264 C274 0.950 . S
H265 C276 0.950 . S
H266 C278 0.950 . S
H267 C279 0.950 . S
C268 H260 0.950 . S
C268 C269 1.386 1_556 S
C268 C270 1.391 . S
C269 C268 1.386 1_554 S
C269 C273 1.393 . S
C270 H262 0.950 . S
C270 C268 1.391 . S
C270 C271 1.400 1_556 S
C271 C270 1.400 1_554 S
C271 C272 1.398 . S
C271 C277 1.490 1_554 S
C272 H263 0.950 . S
C272 C271 1.398 . S
C272 C273 1.391 . S
C273 H261 0.950 . S
C273 C269 1.393 . S
C273 C272 1.391 . S
C274 H264 0.950 . S
C274 C275 1.386 1_554 S
C274 C276 1.391 . S
C275 C274 1.386 1_556 S
C275 C279 1.393 . S
C276 H265 0.950 . S
C276 C274 1.391 . S
C276 C277 1.397 1_554 S
C277 C271 1.490 1_556 S
C277 C276 1.397 1_556 S
C277 C278 1.402 . S
C278 H266 0.950 . S
C278 C277 1.402 . S
C278 C279 1.391 . S
C279 H267 0.950 . S
C279 C275 1.393 . S
C279 C278 1.391 . S
H280 C288 0.950 . S
H281 C293 0.950 . S
H282 C290 0.950 . S
H283 C292 0.950 . S
H284 C294 0.950 . S
H285 C296 0.950 . S
H286 C298 0.950 . S
H287 C299 0.950 . S
C288 H280 0.950 . S
C288 C289 1.386 1_554 S
C288 C290 1.391 . S
C289 C288 1.386 1_556 S
C289 C293 1.393 . S
C290 H282 0.950 . S
C290 C288 1.391 . S
C290 C291 1.400 1_554 S
C291 C290 1.400 1_556 S
C291 C292 1.398 . S
C291 C297 1.491 . S
C292 H283 0.950 . S
C292 C291 1.398 . S
C292 C293 1.391 . S
C293 H281 0.950 . S
C293 C289 1.393 . S
C293 C292 1.391 . S
C294 H284 0.950 . S
C294 C295 1.386 . S
C294 C296 1.391 . S
C295 C294 1.386 . S
C295 C299 1.393 1_556 S
C296 H285 0.950 . S
C296 C294 1.391 . S
C296 C297 1.400 . S
C297 C291 1.491 . S
C297 C296 1.400 . S
C297 C298 1.398 1_556 S
C298 H286 0.950 . S
C298 C297 1.398 1_554 S
C298 C299 1.391 . S
C299 H287 0.950 . S
C299 C295 1.393 1_554 S
C299 C298 1.391 . S
C129 C2 1.466 1_455 S
C135 C23 1.466 . S
C149 C63 1.465 1_565 S
C155 C42 1.465 1_545 S
C169 C103 1.480 . S
C175 C82 1.480 . S
C189 C25 0.747 . S
C195 C105 0.748 . S
C209 C65 1.807 . S
C215 C20 1.809 . S
C229 C60 2.499 . S
C235 C111 2.527 . S
C249 C4 0.736 . S
C255 C84 0.747 . S
C269 C31 1.808 . S
C275 C44 1.808 . S
C289 C100 2.528 . S
C295 C71 2.507 . S
