# Generated by pormake.
# Topology ukn, (4)-cn, num edge types: 1
# Building blocks:
#     Node 0, Type 0, BuildingBlock: NAHDIM_clean_sbu_0, # of connection points: 4
#     Node 1, Type 0, BuildingBlock: NAHDIM_clean_sbu_0, # of connection points: 4
#     Node 2, Type 0, BuildingBlock: NAHDIM_clean_sbu_0, # of connection points: 4
#     Node 3, Type 0, BuildingBlock: NAHDIM_clean_sbu_0, # of connection points: 4
#     Node 4, Type 0, BuildingBlock: NAHDIM_clean_sbu_0, # of connection points: 4
#     Node 5, Type 0, BuildingBlock: NAHDIM_clean_sbu_0, # of connection points: 4
#     Node 6, Type 0, BuildingBlock: NAHDIM_clean_sbu_0, # of connection points: 4
#     Node 7, Type 0, BuildingBlock: NAHDIM_clean_sbu_0, # of connection points: 4
#     Node 8, Type 0, BuildingBlock: NAHDIM_clean_sbu_0, # of connection points: 4
#     Node 9, Type 0, BuildingBlock: NAHDIM_clean_sbu_0, # of connection points: 4
#     Node 10, Type 0, BuildingBlock: NAHDIM_clean_sbu_0, # of connection points: 4
#     Node 11, Type 0, BuildingBlock: NAHDIM_clean_sbu_0, # of connection points: 4
#     Node 12, Type 0, BuildingBlock: NAHDIM_clean_sbu_0, # of connection points: 4
#     Node 13, Type 0, BuildingBlock: NAHDIM_clean_sbu_0, # of connection points: 4
#     Node 14, Type 0, BuildingBlock: NAHDIM_clean_sbu_0, # of connection points: 4
#     Node 15, Type 0, BuildingBlock: NAHDIM_clean_sbu_0, # of connection points: 4
#     Node 16, Type 0, BuildingBlock: NAHDIM_clean_sbu_0, # of connection points: 4
#     Node 17, Type 0, BuildingBlock: NAHDIM_clean_sbu_0, # of connection points: 4
#     Node 18, Type 0, BuildingBlock: NAHDIM_clean_sbu_0, # of connection points: 4
#     Node 19, Type 0, BuildingBlock: NAHDIM_clean_sbu_0, # of connection points: 4
#     Node 20, Type 0, BuildingBlock: NAHDIM_clean_sbu_0, # of connection points: 4
#     Node 21, Type 0, BuildingBlock: NAHDIM_clean_sbu_0, # of connection points: 4
#     Node 22, Type 0, BuildingBlock: NAHDIM_clean_sbu_0, # of connection points: 4
#     Node 23, Type 0, BuildingBlock: NAHDIM_clean_sbu_0, # of connection points: 4
#     Node 24, Type 0, BuildingBlock: NAHDIM_clean_sbu_0, # of connection points: 4
#     Node 25, Type 0, BuildingBlock: NAHDIM_clean_sbu_0, # of connection points: 4
#     Node 26, Type 0, BuildingBlock: NAHDIM_clean_sbu_0, # of connection points: 4
#     Node 27, Type 0, BuildingBlock: NAHDIM_clean_sbu_0, # of connection points: 4
#     Node 28, Type 0, BuildingBlock: NAHDIM_clean_sbu_0, # of connection points: 4
#     Node 29, Type 0, BuildingBlock: NAHDIM_clean_sbu_0, # of connection points: 4
#     Node 30, Type 0, BuildingBlock: NAHDIM_clean_sbu_0, # of connection points: 4
#     Node 31, Type 0, BuildingBlock: NAHDIM_clean_sbu_0, # of connection points: 4
#     Node 32, Type 0, BuildingBlock: NAHDIM_clean_sbu_0, # of connection points: 4
#     Node 33, Type 0, BuildingBlock: NAHDIM_clean_sbu_0, # of connection points: 4
#     Node 34, Type 0, BuildingBlock: NAHDIM_clean_sbu_0, # of connection points: 4
#     Node 35, Type 0, BuildingBlock: NAHDIM_clean_sbu_0, # of connection points: 4
#     Edge 36, Type (0, 0), BuildingBlock: AJUNOK_clean_linker_0, # of connection points: 2
#     Edge 37, Type (0, 0), BuildingBlock: AJUNOK_clean_linker_0, # of connection points: 2
#     Edge 38, Type (0, 0), BuildingBlock: AJUNOK_clean_linker_0, # of connection points: 2
#     Edge 39, Type (0, 0), BuildingBlock: AJUNOK_clean_linker_0, # of connection points: 2
#     Edge 40, Type (0, 0), BuildingBlock: AJUNOK_clean_linker_0, # of connection points: 2
#     Edge 41, Type (0, 0), BuildingBlock: AJUNOK_clean_linker_0, # of connection points: 2
#     Edge 42, Type (0, 0), BuildingBlock: AJUNOK_clean_linker_0, # of connection points: 2
#     Edge 43, Type (0, 0), BuildingBlock: AJUNOK_clean_linker_0, # of connection points: 2
#     Edge 44, Type (0, 0), BuildingBlock: AJUNOK_clean_linker_0, # of connection points: 2
#     Edge 45, Type (0, 0), BuildingBlock: AJUNOK_clean_linker_0, # of connection points: 2
#     Edge 46, Type (0, 0), BuildingBlock: AJUNOK_clean_linker_0, # of connection points: 2
#     Edge 47, Type (0, 0), BuildingBlock: AJUNOK_clean_linker_0, # of connection points: 2
#     Edge 48, Type (0, 0), BuildingBlock: AJUNOK_clean_linker_0, # of connection points: 2
#     Edge 49, Type (0, 0), BuildingBlock: AJUNOK_clean_linker_0, # of connection points: 2
#     Edge 50, Type (0, 0), BuildingBlock: AJUNOK_clean_linker_0, # of connection points: 2
#     Edge 51, Type (0, 0), BuildingBlock: AJUNOK_clean_linker_0, # of connection points: 2
#     Edge 52, Type (0, 0), BuildingBlock: AJUNOK_clean_linker_0, # of connection points: 2
#     Edge 53, Type (0, 0), BuildingBlock: AJUNOK_clean_linker_0, # of connection points: 2
#     Edge 54, Type (0, 0), BuildingBlock: AJUNOK_clean_linker_0, # of connection points: 2
#     Edge 55, Type (0, 0), BuildingBlock: AJUNOK_clean_linker_0, # of connection points: 2
#     Edge 56, Type (0, 0), BuildingBlock: AJUNOK_clean_linker_0, # of connection points: 2
#     Edge 57, Type (0, 0), BuildingBlock: AJUNOK_clean_linker_0, # of connection points: 2
#     Edge 58, Type (0, 0), BuildingBlock: AJUNOK_clean_linker_0, # of connection points: 2
#     Edge 59, Type (0, 0), BuildingBlock: AJUNOK_clean_linker_0, # of connection points: 2
#     Edge 60, Type (0, 0), BuildingBlock: AJUNOK_clean_linker_0, # of connection points: 2
#     Edge 61, Type (0, 0), BuildingBlock: AJUNOK_clean_linker_0, # of connection points: 2
#     Edge 62, Type (0, 0), BuildingBlock: AJUNOK_clean_linker_0, # of connection points: 2
#     Edge 63, Type (0, 0), BuildingBlock: AJUNOK_clean_linker_0, # of connection points: 2
#     Edge 64, Type (0, 0), BuildingBlock: AJUNOK_clean_linker_0, # of connection points: 2
#     Edge 65, Type (0, 0), BuildingBlock: AJUNOK_clean_linker_0, # of connection points: 2
#     Edge 66, Type (0, 0), BuildingBlock: AJUNOK_clean_linker_0, # of connection points: 2
#     Edge 67, Type (0, 0), BuildingBlock: AJUNOK_clean_linker_0, # of connection points: 2
#     Edge 68, Type (0, 0), BuildingBlock: AJUNOK_clean_linker_0, # of connection points: 2
#     Edge 69, Type (0, 0), BuildingBlock: AJUNOK_clean_linker_0, # of connection points: 2
#     Edge 70, Type (0, 0), BuildingBlock: AJUNOK_clean_linker_0, # of connection points: 2
#     Edge 71, Type (0, 0), BuildingBlock: AJUNOK_clean_linker_0, # of connection points: 2
#     Edge 72, Type (0, 0), BuildingBlock: AJUNOK_clean_linker_0, # of connection points: 2
#     Edge 73, Type (0, 0), BuildingBlock: AJUNOK_clean_linker_0, # of connection points: 2
#     Edge 74, Type (0, 0), BuildingBlock: AJUNOK_clean_linker_0, # of connection points: 2
#     Edge 75, Type (0, 0), BuildingBlock: AJUNOK_clean_linker_0, # of connection points: 2
#     Edge 76, Type (0, 0), BuildingBlock: AJUNOK_clean_linker_0, # of connection points: 2
#     Edge 77, Type (0, 0), BuildingBlock: AJUNOK_clean_linker_0, # of connection points: 2
#     Edge 78, Type (0, 0), BuildingBlock: AJUNOK_clean_linker_0, # of connection points: 2
#     Edge 79, Type (0, 0), BuildingBlock: AJUNOK_clean_linker_0, # of connection points: 2
#     Edge 80, Type (0, 0), BuildingBlock: AJUNOK_clean_linker_0, # of connection points: 2
#     Edge 81, Type (0, 0), BuildingBlock: AJUNOK_clean_linker_0, # of connection points: 2
#     Edge 82, Type (0, 0), BuildingBlock: AJUNOK_clean_linker_0, # of connection points: 2
#     Edge 83, Type (0, 0), BuildingBlock: AJUNOK_clean_linker_0, # of connection points: 2
#     Edge 84, Type (0, 0), BuildingBlock: AJUNOK_clean_linker_0, # of connection points: 2
#     Edge 85, Type (0, 0), BuildingBlock: AJUNOK_clean_linker_0, # of connection points: 2
#     Edge 86, Type (0, 0), BuildingBlock: AJUNOK_clean_linker_0, # of connection points: 2
#     Edge 87, Type (0, 0), BuildingBlock: AJUNOK_clean_linker_0, # of connection points: 2
#     Edge 88, Type (0, 0), BuildingBlock: AJUNOK_clean_linker_0, # of connection points: 2
#     Edge 89, Type (0, 0), BuildingBlock: AJUNOK_clean_linker_0, # of connection points: 2
#     Edge 90, Type (0, 0), BuildingBlock: AJUNOK_clean_linker_0, # of connection points: 2
#     Edge 91, Type (0, 0), BuildingBlock: AJUNOK_clean_linker_0, # of connection points: 2
#     Edge 92, Type (0, 0), BuildingBlock: AJUNOK_clean_linker_0, # of connection points: 2
#     Edge 93, Type (0, 0), BuildingBlock: AJUNOK_clean_linker_0, # of connection points: 2
#     Edge 94, Type (0, 0), BuildingBlock: AJUNOK_clean_linker_0, # of connection points: 2
#     Edge 95, Type (0, 0), BuildingBlock: AJUNOK_clean_linker_0, # of connection points: 2
#     Edge 96, Type (0, 0), BuildingBlock: AJUNOK_clean_linker_0, # of connection points: 2
#     Edge 97, Type (0, 0), BuildingBlock: AJUNOK_clean_linker_0, # of connection points: 2
#     Edge 98, Type (0, 0), BuildingBlock: AJUNOK_clean_linker_0, # of connection points: 2
#     Edge 99, Type (0, 0), BuildingBlock: AJUNOK_clean_linker_0, # of connection points: 2
#     Edge 100, Type (0, 0), BuildingBlock: AJUNOK_clean_linker_0, # of connection points: 2
#     Edge 101, Type (0, 0), BuildingBlock: AJUNOK_clean_linker_0, # of connection points: 2
#     Edge 102, Type (0, 0), BuildingBlock: AJUNOK_clean_linker_0, # of connection points: 2
#     Edge 103, Type (0, 0), BuildingBlock: AJUNOK_clean_linker_0, # of connection points: 2
#     Edge 104, Type (0, 0), BuildingBlock: AJUNOK_clean_linker_0, # of connection points: 2
#     Edge 105, Type (0, 0), BuildingBlock: AJUNOK_clean_linker_0, # of connection points: 2
#     Edge 106, Type (0, 0), BuildingBlock: AJUNOK_clean_linker_0, # of connection points: 2
#     Edge 107, Type (0, 0), BuildingBlock: AJUNOK_clean_linker_0, # of connection points: 2
# Relax obj value: 0.143
# Max RMSD: 0.135
# Mean RMSD: 0.135
data_MOF--net-ukn--node1-NAHDIM_clean_sbu_0--edge1-AJUNOK_clean_linker_0
_symmetry_space_group_name_H-M    P1
_symmetry_Int_Tables_number       1
_symmetry_cell_setting            triclinic
loop_
_symmetry_equiv_pos_as_xyz
'x, y, z'
_cell_length_a     81.351148
_cell_length_b     81.36473
_cell_length_c     17.635878
_cell_angle_alpha  89.987775
_cell_angle_beta   89.996008
_cell_angle_gamma 120.02571
loop_
_atom_site_label
_atom_site_type_symbol
_atom_site_fract_x
_atom_site_fract_y
_atom_site_fract_z
_atom_type_partial_charge
C0 C 0.03765 0.2716 0.07989 0.0
O1 O 0.04669 0.29003 0.09112 0.0
O2 O 0.08045 0.29296 0.20494 0.0
Zn3 Zn 0.07515 0.27988 0.1026 0.0
O4 O 0.08546 0.29941 0.01951 0.0
C5 C 0.09533 0.26092 0.15415 0.0
O6 O 0.08904 0.26236 0.22101 0.0
O7 O 0.04702 0.26295 0.08364 0.0
C8 C 0.10315 0.30842 0.00532 0.0
O9 O 0.11457 0.30527 0.04768 0.0
C10 C 0.08474 0.31015 0.21463 0.0
O11 O 0.08488 0.32012 0.1558 0.0
O12 O 0.08984 0.26602 0.09584 0.0
C13 C 0.74209 0.78691 0.03877 0.0
O14 O 0.75231 0.8055 0.03469 0.0
O15 O 0.69529 0.78149 0.17898 0.0
Zn16 Zn 0.70943 0.79194 0.08024 0.0
O17 O 0.69082 0.78529 0.99401 0.0
C18 C 0.72927 0.8295 0.14862 0.0
O19 O 0.72513 0.8198 0.21213 0.0
O20 O 0.72471 0.7792 0.05769 0.0
C21 C 0.68608 0.7969 0.96782 0.0
O22 O 0.69302 0.81369 0.99944 0.0
C23 C 0.67968 0.78083 0.19379 0.0
O24 O 0.67222 0.78691 0.14269 0.0
O25 O 0.72513 0.82054 0.08605 0.0
C26 C 0.23577 0.96164 0.07115 0.0
O27 O 0.24584 0.95325 0.08096 0.0
O28 O 0.21625 0.91895 0.19726 0.0
Zn29 Zn 0.20815 0.92377 0.09477 0.0
O30 O 0.21899 0.91521 0.01153 0.0
C31 C 0.16906 0.90212 0.14515 0.0
O32 O 0.17667 0.90874 0.21192 0.0
O33 O 0.21781 0.95167 0.07678 0.0
C34 C 0.21327 0.89779 0.9993 0.0
O35 O 0.20026 0.88495 0.04403 0.0
C36 C 0.22966 0.9154 0.20704 0.0
O37 O 0.23978 0.91581 0.14829 0.0
O38 O 0.17969 0.90766 0.08689 0.0
C39 C 0.27297 0.03969 0.96073 0.0
O40 O 0.29155 0.04951 0.9547 0.0
O41 O 0.29431 0.07918 0.81778 0.0
Zn42 Zn 0.28054 0.07554 0.91763 0.0
O43 O 0.29954 0.08587 0.00282 0.0
C44 C 0.26351 0.09633 0.85342 0.0
O45 O 0.26647 0.09002 0.78923 0.0
O46 O 0.26353 0.04769 0.94233 0.0
C47 C 0.30566 0.1019 0.03454 0.0
O48 O 0.29988 0.11338 0.00976 0.0
C49 C 0.31182 0.08422 0.81352 0.0
O50 O 0.32136 0.08641 0.87637 0.0
O51 O 0.26707 0.09072 0.91534 0.0
C52 C 0.95908 0.23345 0.97487 0.0
O53 O 0.94974 0.24273 0.9713 0.0
O54 O 0.92126 0.21917 0.83021 0.0
Zn55 Zn 0.92312 0.20654 0.92644 0.0
O56 O 0.91236 0.21427 0.01349 0.0
C57 C 0.90144 0.16993 0.85144 0.0
O58 O 0.90759 0.18025 0.78958 0.0
O59 O 0.95063 0.21618 0.95367 0.0
C60 C 0.90115 0.20287 0.06323 0.0
O61 O 0.89534 0.18468 0.05735 0.0
C62 C 0.90822 0.22335 0.82313 0.0
O63 O 0.89627 0.21956 0.87939 0.0
O64 O 0.90731 0.17802 0.91535 0.0
C65 C 0.77098 0.7364 0.95778 0.0
O66 O 0.75889 0.71805 0.95801 0.0
O67 O 0.78661 0.70878 0.82625 0.0
Zn68 Zn 0.79534 0.72177 0.92808 0.0
O69 O 0.78365 0.70275 0.01253 0.0
C70 C 0.83385 0.73888 0.87442 0.0
O71 O 0.82602 0.74043 0.81171 0.0
O72 O 0.78832 0.74209 0.94345 0.0
C73 C 0.78781 0.68978 0.02176 0.0
O74 O 0.79951 0.68858 0.97369 0.0
C75 C 0.77237 0.69234 0.81556 0.0
O76 O 0.76138 0.68316 0.8733 0.0
O77 O 0.82358 0.73232 0.93334 0.0
C78 C 0.96002 0.72516 0.94686 0.0
O79 O 0.95144 0.70655 0.94344 0.0
O80 O 0.91683 0.70268 0.81733 0.0
Zn81 Zn 0.92216 0.71547 0.9199 0.0
O82 O 0.91265 0.69583 0.00258 0.0
C83 C 0.90335 0.73552 0.86854 0.0
O84 O 0.91138 0.73551 0.80395 0.0
O85 O 0.9502 0.73316 0.93625 0.0
C86 C 0.89495 0.68458 0.01108 0.0
O87 O 0.88308 0.68574 0.9639 0.0
C88 C 0.91383 0.68598 0.80588 0.0
O89 O 0.91519 0.67637 0.86304 0.0
O90 O 0.90702 0.72882 0.92708 0.0
C91 C 0.27408 0.23431 0.96065 0.0
O92 O 0.2927 0.24313 0.95713 0.0
O93 O 0.29658 0.21802 0.81889 0.0
Zn94 Zn 0.28197 0.20631 0.91598 0.0
O95 O 0.30055 0.2138 0.00217 0.0
C96 C 0.26569 0.16852 0.84869 0.0
O97 O 0.27004 0.17783 0.78414 0.0
O98 O 0.26485 0.2169 0.94164 0.0
C99 C 0.29653 0.20383 0.06203 0.0
O100 O 0.28008 0.18805 0.06677 0.0
C101 C 0.31312 0.22024 0.81088 0.0
O102 O 0.32013 0.21471 0.86588 0.0
O103 O 0.26843 0.1777 0.91009 0.0
C104 C 0.76587 0.04139 0.97142 0.0
O105 O 0.75661 0.05077 0.97012 0.0
O106 O 0.78052 0.07881 0.82351 0.0
Zn107 Zn 0.79291 0.07741 0.92107 0.0
O108 O 0.78564 0.0892 0.00621 0.0
C109 C 0.8299 0.099 0.84701 0.0
O110 O 0.81986 0.09345 0.7843 0.0
O111 O 0.7831 0.04994 0.94969 0.0
C112 C 0.79744 0.09891 0.0579 0.0
O113 O 0.81467 0.1014 0.05532 0.0
C114 C 0.7787 0.09314 0.80932 0.0
O115 O 0.7846 0.10679 0.85989 0.0
O116 O 0.82148 0.0928 0.91014 0.0
C117 C 0.72738 0.96147 0.05907 0.0
O118 O 0.70881 0.95207 0.06627 0.0
O119 O 0.702 0.91789 0.16728 0.0
Zn120 Zn 0.71878 0.92394 0.07492 0.0
O121 O 0.70156 0.91459 0.98372 0.0
C122 C 0.73583 0.90364 0.14498 0.0
O123 O 0.73332 0.91078 0.2078 0.0
O124 O 0.73617 0.95223 0.06256 0.0
C125 C 0.7038 0.90529 0.93075 0.0
O126 O 0.718 0.90198 0.93475 0.0
C127 C 0.69005 0.9004 0.17748 0.0
O128 O 0.6893 0.88805 0.12758 0.0
O129 O 0.73224 0.90877 0.08197 0.0
C130 C 0.04046 0.76563 0.0261 0.0
O131 O 0.04924 0.75577 0.02835 0.0
O132 O 0.08058 0.78123 0.15863 0.0
Zn133 Zn 0.07765 0.79289 0.06215 0.0
O134 O 0.0881 0.78497 0.97482 0.0
C135 C 0.09846 0.83044 0.13159 0.0
O136 O 0.0916 0.8211 0.1953 0.0
O137 O 0.04996 0.78328 0.04081 0.0
C138 C 0.09428 0.7955 0.91642 0.0
O139 O 0.09342 0.81119 0.91412 0.0
C140 C 0.0961 0.78146 0.17078 0.0
O141 O 0.10964 0.7892 0.11973 0.0
O142 O 0.09341 0.82139 0.06936 0.0
C143 C 0.23476 0.27396 0.06109 0.0
O144 O 0.24401 0.29257 0.06548 0.0
O145 O 0.21488 0.29656 0.18785 0.0
Zn146 Zn 0.206 0.28243 0.08799 0.0
O147 O 0.21528 0.30104 0.00141 0.0
C148 C 0.16742 0.26298 0.14545 0.0
O149 O 0.17591 0.26432 0.21041 0.0
O150 O 0.21688 0.26516 0.07128 0.0
C151 C 0.20615 0.30876 0.97604 0.0
O152 O 0.19003 0.30482 0.0084 0.0
C153 C 0.2281 0.31379 0.19272 0.0
O154 O 0.23692 0.32284 0.13069 0.0
O155 O 0.1774 0.26863 0.0855 0.0
C156 C 0.70538 0.61045 0.38713 0.0
O157 O 0.71345 0.62902 0.39222 0.0
O158 O 0.74563 0.63598 0.51908 0.0
Zn159 Zn 0.74299 0.62161 0.42186 0.0
O160 O 0.75252 0.64025 0.3353 0.0
C161 C 0.76583 0.60657 0.48733 0.0
O162 O 0.76021 0.60995 0.55237 0.0
O163 O 0.71545 0.60283 0.40009 0.0
C164 C 0.7584 0.63653 0.27454 0.0
O165 O 0.75836 0.6204 0.26927 0.0
C166 C 0.76053 0.65203 0.52861 0.0
O167 O 0.77353 0.65846 0.47522 0.0
O168 O 0.7595 0.60959 0.42618 0.0
C169 C 0.38918 0.09379 0.37185 0.0
O170 O 0.37055 0.08461 0.3745 0.0
O171 O 0.36674 0.1108 0.50934 0.0
Zn172 Zn 0.38063 0.1218 0.41057 0.0
O173 O 0.36191 0.11373 0.32414 0.0
C174 C 0.39736 0.15948 0.47709 0.0
O175 O 0.39352 0.15009 0.54133 0.0
O176 O 0.39801 0.11139 0.38803 0.0
C177 C 0.35624 0.12442 0.29607 0.0
O178 O 0.36224 0.14128 0.32589 0.0
C179 C 0.34997 0.10766 0.52041 0.0
O180 O 0.34133 0.1113 0.46553 0.0
O181 O 0.39431 0.15039 0.41521 0.0
C182 C 0.90296 0.29373 0.37512 0.0
O183 O 0.91195 0.28411 0.37968 0.0
O184 O 0.88327 0.25382 0.52192 0.0
Zn185 Zn 0.87458 0.25764 0.41907 0.0
O186 O 0.88376 0.24696 0.33735 0.0
C187 C 0.8357 0.23719 0.47394 0.0
O188 O 0.84379 0.24345 0.54029 0.0
O189 O 0.88554 0.28547 0.39409 0.0
C190 C 0.87539 0.22956 0.31875 0.0
O191 O 0.86009 0.21742 0.35605 0.0
C192 C 0.89577 0.24895 0.53075 0.0
O193 O 0.90426 0.24712 0.47066 0.0
O194 O 0.84599 0.24264 0.41475 0.0
C195 C 0.94223 0.37204 0.26693 0.0
O196 O 0.96058 0.38071 0.25366 0.0
O197 O 0.96527 0.41143 0.13854 0.0
Zn198 Zn 0.95159 0.40924 0.23741 0.0
O199 O 0.97043 0.42004 0.32305 0.0
C200 C 0.93595 0.43164 0.17218 0.0
O201 O 0.93995 0.42668 0.10689 0.0
O202 O 0.93383 0.38163 0.26233 0.0
C203 C 0.96539 0.42493 0.38324 0.0
O204 O 0.94818 0.42247 0.38725 0.0
C205 C 0.9822 0.42474 0.12732 0.0
O206 O 0.99091 0.43724 0.18145 0.0
O207 O 0.93865 0.4249 0.23286 0.0
C208 C 0.62529 0.5685 0.30302 0.0
O209 O 0.61533 0.57686 0.31592 0.0
O210 O 0.58089 0.54654 0.1615 0.0
Zn211 Zn 0.58837 0.53919 0.25995 0.0
O212 O 0.57684 0.54556 0.34827 0.0
C213 C 0.57029 0.50081 0.20145 0.0
O214 O 0.57617 0.5095 0.13595 0.0
O215 O 0.61688 0.55177 0.27581 0.0
C216 C 0.57268 0.55867 0.3491 0.0
O217 O 0.57599 0.56935 0.2888 0.0
C218 C 0.58863 0.56241 0.12726 0.0
O219 O 0.60386 0.57688 0.15631 0.0
O220 O 0.57541 0.51067 0.26179 0.0
C221 C 0.43071 0.05505 0.28991 0.0
O222 O 0.4218 0.03653 0.28121 0.0
O223 O 0.44881 0.03253 0.16799 0.0
Zn224 Zn 0.46006 0.0475 0.26427 0.0
O225 O 0.45318 0.02928 0.35239 0.0
C226 C 0.49722 0.06656 0.19135 0.0
O227 O 0.48725 0.06323 0.12888 0.0
O228 O 0.44872 0.06417 0.28455 0.0
C229 C 0.4653 0.03144 0.40277 0.0
O230 O 0.48266 0.04589 0.39741 0.0
C231 C 0.44927 0.01736 0.15594 0.0
O232 O 0.45705 0.01168 0.20723 0.0
O233 O 0.48859 0.06213 0.25465 0.0
C234 C 0.62765 0.06181 0.27458 0.0
O235 O 0.61867 0.04319 0.27073 0.0
O236 O 0.58568 0.04006 0.13757 0.0
Zn237 Zn 0.59042 0.05294 0.23989 0.0
O238 O 0.58018 0.03341 0.32321 0.0
C239 C 0.5707 0.0717 0.18329 0.0
O240 O 0.57827 0.07083 0.11874 0.0
O241 O 0.61841 0.07026 0.26039 0.0
C242 C 0.56265 0.02463 0.34047 0.0
O243 O 0.55092 0.02789 0.30082 0.0
C244 C 0.58173 0.02299 0.12741 0.0
O245 O 0.58181 0.01303 0.18589 0.0
O246 O 0.57535 0.06644 0.24354 0.0
C247 C 0.93791 0.56635 0.26805 0.0
O248 O 0.95651 0.57647 0.2638 0.0
O249 O 0.9628 0.54919 0.13851 0.0
Zn250 Zn 0.94862 0.53939 0.23789 0.0
O251 O 0.96706 0.54936 0.32474 0.0
C252 C 0.93286 0.50131 0.17811 0.0
O253 O 0.93457 0.51 0.11333 0.0
O254 O 0.92996 0.5486 0.2555 0.0
C255 C 0.97908 0.54407 0.33702 0.0
O256 O 0.97982 0.53184 0.29048 0.0
C257 C 0.97978 0.56291 0.13335 0.0
O258 O 0.9886 0.57213 0.19508 0.0
O259 O 0.93675 0.51085 0.23916 0.0
C260 C 0.44395 0.36805 0.27951 0.0
O261 O 0.43769 0.36935 0.21237 0.0
O262 O 0.45194 0.41145 0.18092 0.0
Zn263 Zn 0.46214 0.40966 0.28365 0.0
O264 O 0.45172 0.41895 0.36561 0.0
C265 C 0.49983 0.42931 0.22038 0.0
O266 O 0.49095 0.41904 0.16067 0.0
O267 O 0.45503 0.38313 0.31534 0.0
C268 C 0.45629 0.43618 0.37524 0.0
O269 O 0.46806 0.44905 0.32724 0.0
C270 C 0.43859 0.41509 0.17124 0.0
O271 O 0.42943 0.4161 0.23078 0.0
O272 O 0.49048 0.42691 0.28117 0.0
C273 C 0.40715 0.2934 0.42127 0.0
O274 O 0.4017 0.29136 0.49242 0.0
O275 O 0.36947 0.24992 0.51183 0.0
Zn276 Zn 0.38144 0.25209 0.40879 0.0
O277 O 0.36164 0.24334 0.32738 0.0
C278 C 0.3987 0.23131 0.4684 0.0
O279 O 0.39989 0.24091 0.53001 0.0
O280 O 0.40093 0.2788 0.37934 0.0
C281 C 0.34924 0.2261 0.31582 0.0
O282 O 0.34859 0.21297 0.36114 0.0
C283 C 0.35277 0.24709 0.52178 0.0
O284 O 0.34297 0.24711 0.4626 0.0
O285 O 0.39223 0.23458 0.40817 0.0
C286 C 0.70691 0.10007 0.37149 0.0
O287 O 0.71549 0.09003 0.37201 0.0
O288 O 0.74863 0.11846 0.51128 0.0
Zn289 Zn 0.74433 0.12755 0.41007 0.0
O290 O 0.75441 0.11841 0.32568 0.0
C291 C 0.76452 0.16608 0.46816 0.0
O292 O 0.75742 0.15764 0.53326 0.0
O293 O 0.71646 0.11754 0.38922 0.0
C294 C 0.77211 0.1263 0.31249 0.0
O295 O 0.78392 0.14034 0.35623 0.0
C296 C 0.75185 0.10475 0.51802 0.0
O297 O 0.7515 0.0953 0.45712 0.0
O298 O 0.75975 0.15614 0.40807 0.0
C299 C 0.89853 0.6061 0.36631 0.0
O300 O 0.90858 0.62472 0.36943 0.0
O301 O 0.885 0.63133 0.50465 0.0
Zn302 Zn 0.87234 0.6168 0.40887 0.0
O303 O 0.88042 0.63526 0.3217 0.0
C304 C 0.83542 0.60326 0.48118 0.0
O305 O 0.84517 0.60698 0.54447 0.0
O306 O 0.88103 0.59807 0.38388 0.0
C307 C 0.86961 0.63149 0.26447 0.0
O308 O 0.85335 0.61546 0.26316 0.0
C309 C 0.88551 0.64699 0.51656 0.0
O310 O 0.87794 0.65307 0.4659 0.0
O311 O 0.8439 0.60511 0.4185 0.0
C312 C 0.37636 0.93917 0.72553 0.0
O313 O 0.38519 0.95777 0.731 0.0
O314 O 0.41899 0.96153 0.8551 0.0
Zn315 Zn 0.41397 0.94855 0.7529 0.0
O316 O 0.42351 0.96806 0.66948 0.0
C317 C 0.43395 0.92999 0.80786 0.0
O318 O 0.42608 0.93043 0.87226 0.0
O319 O 0.38592 0.93087 0.73534 0.0
C320 C 0.44119 0.97858 0.65726 0.0
O321 O 0.45326 0.97685 0.70129 0.0
C322 C 0.4226 0.97848 0.86545 0.0
O323 O 0.42203 0.98827 0.8073 0.0
O324 O 0.42946 0.9355 0.74789 0.0
C325 C 0.07291 0.44253 0.74172 0.0
O326 O 0.06375 0.43627 0.80614 0.0
O327 O 0.03731 0.45105 0.82877 0.0
Zn328 Zn 0.05014 0.46101 0.72699 0.0
O329 O 0.03069 0.45045 0.64379 0.0
C330 C 0.06604 0.49905 0.78734 0.0
O331 O 0.06545 0.49053 0.85143 0.0
O332 O 0.06984 0.45367 0.70147 0.0
C333 C 0.01811 0.45525 0.63717 0.0
O334 O 0.01771 0.46708 0.68682 0.0
C335 C 0.02086 0.43656 0.83624 0.0
O336 O 0.01212 0.42655 0.77585 0.0
O337 O 0.06113 0.48939 0.72648 0.0
C338 C 0.56658 0.63114 0.72996 0.0
O339 O 0.57732 0.6233 0.73105 0.0
O340 O 0.55527 0.5898 0.84583 0.0
Zn341 Zn 0.54156 0.59318 0.7565 0.0
O342 O 0.5504 0.58677 0.66042 0.0
C343 C 0.50492 0.56929 0.82905 0.0
O344 O 0.5146 0.5765 0.89178 0.0
O345 O 0.54897 0.62071 0.74421 0.0
C346 C 0.54244 0.57056 0.62898 0.0
O347 O 0.52767 0.55628 0.6615 0.0
C348 C 0.55235 0.57328 0.86125 0.0
O349 O 0.54057 0.55902 0.81839 0.0
O350 O 0.5133 0.57522 0.76572 0.0
C351 C 0.60277 0.71021 0.63258 0.0
O352 O 0.62142 0.71983 0.63151 0.0
O353 O 0.62433 0.75147 0.49238 0.0
Zn354 Zn 0.61074 0.74678 0.59322 0.0
O355 O 0.62983 0.75746 0.67835 0.0
C356 C 0.59184 0.76632 0.53416 0.0
O357 O 0.59374 0.75973 0.46873 0.0
O358 O 0.59386 0.71877 0.61451 0.0
C359 C 0.63635 0.77423 0.70358 0.0
O360 O 0.63114 0.78543 0.67118 0.0
C361 C 0.64156 0.75559 0.48649 0.0
O362 O 0.65089 0.75611 0.54803 0.0
O363 O 0.59661 0.76119 0.59433 0.0
C364 C 0.29635 0.90077 0.63945 0.0
O365 O 0.288 0.91104 0.63767 0.0
O366 O 0.25638 0.88632 0.50509 0.0
Zn367 Zn 0.25895 0.87439 0.60185 0.0
O368 O 0.24927 0.88323 0.68881 0.0
C369 C 0.23804 0.837 0.53231 0.0
O370 O 0.2458 0.84645 0.46964 0.0
O371 O 0.28652 0.88321 0.62337 0.0
C372 C 0.2419 0.87298 0.74719 0.0
O373 O 0.24036 0.85613 0.75026 0.0
C374 C 0.24174 0.88792 0.49589 0.0
O375 O 0.22884 0.88177 0.54969 0.0
O376 O 0.24248 0.84591 0.59497 0.0
C377 C 0.11311 0.40686 0.61019 0.0
O378 O 0.11495 0.40696 0.53615 0.0
O379 O 0.11293 0.36471 0.51741 0.0
Zn380 Zn 0.12589 0.37845 0.61446 0.0
O381 O 0.1183 0.35917 0.69844 0.0
C382 C 0.16286 0.3946 0.53882 0.0
O383 O 0.15294 0.39119 0.47614 0.0
O384 O 0.11735 0.39653 0.65008 0.0
C385 C 0.13005 0.36071 0.74941 0.0
O386 O 0.14756 0.37497 0.74637 0.0
C387 C 0.11284 0.34931 0.50378 0.0
O388 O 0.12098 0.34346 0.55274 0.0
O389 O 0.15434 0.39116 0.60223 0.0
C390 C 0.29539 0.39286 0.63438 0.0
O391 O 0.28675 0.37426 0.62906 0.0
O392 O 0.25616 0.36902 0.49639 0.0
Zn393 Zn 0.25837 0.38288 0.59465 0.0
O394 O 0.24803 0.36404 0.68097 0.0
C395 C 0.23533 0.39737 0.52748 0.0
O396 O 0.24025 0.39291 0.46311 0.0
O397 O 0.28596 0.40106 0.61932 0.0
C398 C 0.23217 0.35893 0.71286 0.0
O399 O 0.22148 0.36558 0.68723 0.0
C400 C 0.2416 0.35295 0.48317 0.0
O401 O 0.22824 0.34538 0.53501 0.0
O402 O 0.24253 0.39561 0.58878 0.0
C403 C 0.61556 0.9089 0.60834 0.0
O404 O 0.6342 0.91778 0.60852 0.0
O405 O 0.63671 0.88677 0.47748 0.0
Zn406 Zn 0.62254 0.87893 0.57776 0.0
O407 O 0.64185 0.88763 0.66195 0.0
C408 C 0.5971 0.83957 0.53073 0.0
O409 O 0.5957 0.8471 0.46685 0.0
O410 O 0.60656 0.89122 0.59379 0.0
C411 C 0.64995 0.8783 0.68021 0.0
O412 O 0.64546 0.8625 0.64397 0.0
C413 C 0.64288 0.87649 0.44922 0.0
O414 O 0.63965 0.86105 0.48539 0.0
O415 O 0.60689 0.85046 0.58454 0.0
C416 C 0.09972 0.70744 0.59001 0.0
O417 O 0.09045 0.7166 0.579 0.0
O418 O 0.12108 0.75061 0.47147 0.0
Zn419 Zn 0.1286 0.74505 0.57368 0.0
O420 O 0.11828 0.75423 0.65678 0.0
C421 C 0.16742 0.76514 0.52171 0.0
O422 O 0.15934 0.75768 0.45649 0.0
O423 O 0.11777 0.71684 0.58911 0.0
C424 C 0.12401 0.7718 0.66466 0.0
O425 O 0.13665 0.78391 0.61681 0.0
C426 C 0.10775 0.75424 0.46084 0.0
O427 O 0.09719 0.75345 0.51862 0.0
O428 O 0.15715 0.76043 0.58099 0.0
C429 C 0.05803 0.62799 0.68287 0.0
O430 O 0.03939 0.61887 0.68569 0.0
O431 O 0.03558 0.58999 0.83103 0.0
Zn432 Zn 0.04875 0.59183 0.73138 0.0
O433 O 0.02917 0.58076 0.64833 0.0
C434 C 0.06433 0.56938 0.79578 0.0
O435 O 0.06069 0.57461 0.8612 0.0
O436 O 0.0666 0.61927 0.70363 0.0
C437 C 0.03264 0.57446 0.58814 0.0
O438 O 0.04898 0.57497 0.58164 0.0
C439 C 0.01921 0.5758 0.84375 0.0
O440 O 0.0112 0.56273 0.79106 0.0
O441 O 0.06145 0.57599 0.73513 0.0
C442 C 0.37417 0.43175 0.73783 0.0
O443 O 0.3826 0.42158 0.74251 0.0
O444 O 0.41358 0.44616 0.87434 0.0
Zn445 Zn 0.41133 0.45835 0.77737 0.0
O446 O 0.42133 0.44985 0.69057 0.0
C447 C 0.43574 0.49595 0.843 0.0
O448 O 0.43182 0.48659 0.90735 0.0
O449 O 0.3838 0.44935 0.75333 0.0
C450 C 0.42684 0.45942 0.62957 0.0
O451 O 0.4261 0.47514 0.62402 0.0
C452 C 0.42693 0.4424 0.8812 0.0
O453 O 0.43897 0.44664 0.82495 0.0
O454 O 0.42774 0.48693 0.78269 0.0
C455 C 0.57406 0.94755 0.69269 0.0
O456 O 0.58255 0.96615 0.69639 0.0
O457 O 0.55577 0.96925 0.82382 0.0
Zn458 Zn 0.5445 0.95422 0.72758 0.0
O459 O 0.55094 0.97223 0.63903 0.0
C460 C 0.50741 0.93506 0.80059 0.0
O461 O 0.51748 0.93908 0.86307 0.0
O462 O 0.55631 0.93804 0.70581 0.0
C463 C 0.53863 0.97474 0.6046 0.0
O464 O 0.52099 0.96574 0.62864 0.0
C465 C 0.55519 0.98434 0.83639 0.0
O466 O 0.54726 0.98998 0.7856 0.0
O467 O 0.51596 0.93903 0.73713 0.0
C468 C 0.12011 0.25567 0.21514 0.0
C469 C 0.1116 0.25747 0.14854 0.0
C470 C 0.1376 0.25621 0.21305 0.0
C471 C 0.14733 0.25859 0.14426 0.0
H472 H 0.11375 0.25482 0.27002 0.0
H473 H 0.14395 0.25574 0.26639 0.0
S474 S 0.12963 0.26069 0.95232 0.0
N475 N 0.1131 0.25925 0.01065 0.0
N476 N 0.14593 0.26028 0.00674 0.0
C477 C 0.13825 0.25884 0.0766 0.0
C478 C 0.12041 0.25827 0.07873 0.0
C479 C 0.73574 0.85916 0.08055 0.0
C480 C 0.73496 0.84996 0.14924 0.0
C481 C 0.73739 0.87714 0.07966 0.0
C482 C 0.73833 0.88674 0.14742 0.0
H483 H 0.73408 0.85205 0.0268 0.0
H484 H 0.73691 0.88307 0.02526 0.0
S485 S 0.74031 0.87038 0.34213 0.0
N486 N 0.73784 0.85296 0.28659 0.0
N487 N 0.74093 0.88674 0.28494 0.0
C488 C 0.73919 0.87842 0.2163 0.0
C489 C 0.7375 0.86006 0.2172 0.0
C490 C 0.12243 0.85912 0.20279 0.0
C491 C 0.11447 0.85037 0.13297 0.0
C492 C 0.13951 0.87648 0.20604 0.0
C493 C 0.14937 0.88581 0.13961 0.0
H494 H 0.11594 0.85211 0.25571 0.0
H495 H 0.14545 0.8821 0.26135 0.0
S496 S 0.13301 0.87049 0.94208 0.0
N497 N 0.11659 0.85359 0.99546 0.0
N498 N 0.14867 0.88613 0.00163 0.0
C499 C 0.14084 0.87795 0.06931 0.0
C500 C 0.12341 0.86027 0.06598 0.0
C501 C 0.2611 0.12192 0.78435 0.0
C502 C 0.2601 0.11266 0.85312 0.0
C503 C 0.26169 0.13943 0.78319 0.0
C504 C 0.26125 0.14842 0.85073 0.0
H505 H 0.26246 0.11614 0.73093 0.0
H506 H 0.26344 0.14637 0.72895 0.0
S507 S 0.25524 0.12853 0.04511 0.0
N508 N 0.25617 0.11263 0.98996 0.0
N509 N 0.25719 0.14546 0.98784 0.0
C510 C 0.25865 0.13857 0.91949 0.0
C511 C 0.2581 0.12073 0.92067 0.0
C512 C 0.85893 0.12353 0.91471 0.0
C513 C 0.84983 0.11504 0.84596 0.0
C514 C 0.87623 0.14068 0.9158 0.0
C515 C 0.88521 0.15012 0.84818 0.0
H516 H 0.85224 0.1174 0.96852 0.0
H517 H 0.88209 0.147 0.97038 0.0
S518 S 0.86901 0.13221 0.65288 0.0
N519 N 0.85238 0.11615 0.70833 0.0
N520 N 0.88488 0.14837 0.71034 0.0
C521 C 0.87704 0.14104 0.77899 0.0
C522 C 0.85938 0.12353 0.77789 0.0
C523 C 0.86057 0.7378 0.93994 0.0
C524 C 0.85329 0.74149 0.87373 0.0
C525 C 0.87738 0.73702 0.93854 0.0
C526 C 0.88765 0.73987 0.87085 0.0
H527 H 0.85284 0.73467 0.99292 0.0
H528 H 0.88185 0.73331 0.99051 0.0
S529 S 0.87619 0.75272 0.68391 0.0
N530 N 0.85881 0.75008 0.7401 0.0
N531 N 0.89038 0.74861 0.73748 0.0
C532 C 0.88127 0.7449 0.80532 0.0
C533 C 0.86411 0.74571 0.80675 0.0
C534 C 0.80807 0.6022 0.55088 0.0
C535 C 0.81594 0.60058 0.48207 0.0
C536 C 0.79129 0.60306 0.55235 0.0
C537 C 0.78164 0.60236 0.48507 0.0
H538 H 0.81535 0.60367 0.60404 0.0
H539 H 0.78635 0.60514 0.60658 0.0
S540 S 0.79469 0.59529 0.29075 0.0
N541 N 0.81155 0.59614 0.34549 0.0
N542 N 0.78008 0.59779 0.34825 0.0
C543 C 0.78861 0.5994 0.41631 0.0
C544 C 0.80571 0.5985 0.41482 0.0
C545 C 0.40018 0.18745 0.40652 0.0
C546 C 0.40135 0.17941 0.47562 0.0
C547 C 0.40038 0.20475 0.40449 0.0
C548 C 0.40186 0.21484 0.47137 0.0
H549 H 0.39816 0.17992 0.35359 0.0
H550 H 0.39857 0.20984 0.35009 0.0
S551 S 0.40827 0.20144 0.66598 0.0
N552 N 0.40623 0.18396 0.61186 0.0
N553 N 0.40668 0.21652 0.60808 0.0
C554 C 0.40447 0.20769 0.54033 0.0
C555 C 0.40419 0.18997 0.54243 0.0
C556 C 0.80578 0.21271 0.53676 0.0
C557 C 0.81582 0.22117 0.46956 0.0
C558 C 0.78854 0.19548 0.53536 0.0
C559 C 0.78061 0.18597 0.4667 0.0
H560 H 0.8117 0.2189 0.59144 0.0
H561 H 0.78193 0.18914 0.58902 0.0
S562 S 0.79957 0.20371 0.27378 0.0
N563 N 0.81527 0.2199 0.33156 0.0
N564 N 0.78294 0.18757 0.32896 0.0
C565 C 0.78971 0.19502 0.39865 0.0
C566 C 0.80729 0.2126 0.40006 0.0
C567 C 0.93008 0.47306 0.10975 0.0
C568 C 0.93009 0.48179 0.17869 0.0
C569 C 0.93088 0.45625 0.10828 0.0
C570 C 0.93165 0.44739 0.17567 0.0
H571 H 0.93038 0.4797 0.05613 0.0
H572 H 0.93172 0.45064 0.05362 0.0
S573 S 0.92908 0.46288 0.37148 0.0
N574 N 0.92876 0.47911 0.31632 0.0
N575 N 0.93017 0.44751 0.31364 0.0
C576 C 0.93025 0.4552 0.24509 0.0
C577 C 0.92949 0.47238 0.24658 0.0
C578 C 0.54618 0.47286 0.27544 0.0
C579 C 0.55457 0.48077 0.20497 0.0
C580 C 0.52902 0.45565 0.27997 0.0
C581 C 0.51955 0.44552 0.21431 0.0
H582 H 0.55237 0.48047 0.32768 0.0
H583 H 0.52276 0.45069 0.33545 0.0
S584 S 0.53693 0.45853 0.01637 0.0
N585 N 0.55316 0.47598 0.06833 0.0
N586 N 0.52095 0.44359 0.07687 0.0
C587 C 0.52851 0.45246 0.14378 0.0
C588 C 0.54601 0.47008 0.13912 0.0
C589 C 0.54473 0.07312 0.25349 0.0
C590 C 0.55401 0.07453 0.18437 0.0
C591 C 0.52691 0.07182 0.25539 0.0
C592 C 0.51755 0.07184 0.18823 0.0
H593 H 0.55079 0.07203 0.30664 0.0
H594 H 0.52005 0.06981 0.30997 0.0
S595 S 0.53714 0.07855 0.99318 0.0
N596 N 0.55356 0.07837 0.04757 0.0
N597 N 0.52005 0.07589 0.05117 0.0
C598 C 0.52734 0.07482 0.11914 0.0
C599 C 0.54556 0.07619 0.11721 0.0
C600 C 0.45994 0.92852 0.73792 0.0
C601 C 0.45065 0.92717 0.80696 0.0
C602 C 0.47773 0.92974 0.73618 0.0
C603 C 0.48706 0.92975 0.80345 0.0
H604 H 0.45388 0.92958 0.6847 0.0
H605 H 0.4846 0.9317 0.68165 0.0
S606 S 0.46745 0.92321 0.99839 0.0
N607 N 0.45107 0.92341 0.94383 0.0
N608 N 0.48453 0.92578 0.94053 0.0
C609 C 0.47727 0.92684 0.87247 0.0
C610 C 0.45907 0.92552 0.87424 0.0
C611 C 0.06832 0.54407 0.85935 0.0
C612 C 0.06829 0.55342 0.79223 0.0
C613 C 0.06873 0.52706 0.85729 0.0
C614 C 0.06906 0.51863 0.788 0.0
H615 H 0.06717 0.54944 0.91411 0.0
H616 H 0.06785 0.52003 0.91055 0.0
S617 S 0.07221 0.5389 0.59627 0.0
N618 N 0.07096 0.55411 0.65452 0.0
N619 N 0.07161 0.52212 0.65078 0.0
C620 C 0.0704 0.52851 0.72061 0.0
C621 C 0.07006 0.5459 0.72269 0.0
C622 C 0.46182 0.52505 0.90504 0.0
C623 C 0.45152 0.51599 0.83904 0.0
C624 C 0.4785 0.54277 0.9017 0.0
C625 C 0.48564 0.5522 0.83219 0.0
H626 H 0.45742 0.5181 0.95966 0.0
H627 H 0.48626 0.54869 0.95388 0.0
S628 S 0.46268 0.53587 0.64387 0.0
N629 N 0.44868 0.51879 0.70277 0.0
N630 N 0.48 0.55202 0.69656 0.0
C631 C 0.47485 0.54388 0.7663 0.0
C632 C 0.45781 0.52583 0.76971 0.0
C633 C 0.58861 0.80886 0.46708 0.0
C634 C 0.59133 0.81918 0.53443 0.0
C635 C 0.58733 0.79102 0.468 0.0
C636 C 0.58866 0.78279 0.53632 0.0
H637 H 0.58869 0.81507 0.41265 0.0
H638 H 0.58642 0.7842 0.41419 0.0
S639 S 0.59201 0.80243 0.72961 0.0
N640 N 0.59254 0.8187 0.67218 0.0
N641 N 0.58998 0.78517 0.67416 0.0
C642 C 0.58957 0.79219 0.60466 0.0
C643 C 0.59097 0.81039 0.60363 0.0
C644 C 0.19453 0.79113 0.59338 0.0
C645 C 0.18715 0.78152 0.5244 0.0
C646 C 0.21157 0.80852 0.59587 0.0
C647 C 0.22197 0.81711 0.52946 0.0
H648 H 0.18669 0.78564 0.64575 0.0
H649 H 0.2161 0.81566 0.65007 0.0
S650 S 0.2104 0.7964 0.33584 0.0
N651 N 0.19278 0.78085 0.38912 0.0
N652 N 0.22476 0.81354 0.39382 0.0
C653 C 0.21549 0.80701 0.46087 0.0
C654 C 0.19812 0.78923 0.45834 0.0
C655 C 0.20826 0.39823 0.46374 0.0
C656 C 0.21883 0.40051 0.53008 0.0
C657 C 0.19069 0.3975 0.46648 0.0
C658 C 0.18293 0.39902 0.5357 0.0
H659 H 0.21309 0.39602 0.40947 0.0
H660 H 0.18273 0.39477 0.41424 0.0
S661 S 0.20637 0.40846 0.72411 0.0
N662 N 0.22133 0.40674 0.66588 0.0
N663 N 0.18835 0.40537 0.67098 0.0
C664 C 0.19402 0.4028 0.60166 0.0
C665 C 0.21195 0.40356 0.59887 0.0
C666 C 0.00897 0.24351 0.02331 0.0
C667 C 0.01728 0.26152 0.05781 0.0
C668 C 0.99011 0.23441 0.99718 0.0
C669 C 0.97884 0.24297 0.0046 0.0
H670 H 0.01719 0.23652 0.01486 0.0
H671 H 0.98446 0.2207 0.96995 0.0
S672 S 0.99329 0.28925 0.09771 0.0
N673 N 0.01231 0.28699 0.10257 0.0
N674 N 0.97707 0.27001 0.05393 0.0
C675 C 0.98683 0.26074 0.04114 0.0
C676 C 0.00598 0.26997 0.06761 0.0
C677 C 0.74484 0.74296 0.9886 0.0
C678 C 0.76433 0.74993 0.97688 0.0
C679 C 0.73793 0.75502 0.00876 0.0
C680 C 0.75019 0.77468 0.01803 0.0
H681 H 0.73469 0.72797 0.98234 0.0
H682 H 0.72277 0.7488 0.01676 0.0
S683 S 0.80261 0.80024 0.99543 0.0
N684 N 0.79593 0.77787 0.97693 0.0
N685 N 0.78292 0.80059 0.01471 0.0
C686 C 0.76976 0.78193 0.00646 0.0
C687 C 0.77683 0.76957 0.98595 0.0
C688 C 0.23474 0.98944 0.01405 0.0
C689 C 0.24523 0.98189 0.0478 0.0
C690 C 0.24373 0.00815 0.9864 0.0
C691 C 0.26355 0.02003 0.99145 0.0
H692 H 0.21951 0.98071 0.00735 0.0
H693 H 0.23509 0.01323 0.95989 0.0
S694 S 0.29728 0.0077 0.08183 0.0
N695 N 0.27639 0.98823 0.08937 0.0
N696 N 0.29322 0.02321 0.03783 0.0
C697 C 0.27412 0.01281 0.0272 0.0
C698 C 0.26498 0.99381 0.05526 0.0
C699 C 0.99088 0.72669 0.97339 0.0
C700 C 0.98057 0.73625 0.96554 0.0
C701 C 0.01012 0.73636 0.99292 0.0
C702 C 0.02 0.75608 0.00571 0.0
H703 H 0.98405 0.7115 0.96459 0.0
H704 H 0.01724 0.72819 0.99819 0.0
S705 S 0.99974 0.78798 0.99195 0.0
N706 N 0.98178 0.76672 0.97165 0.0
N707 N 0.01803 0.78495 0.0085 0.0
C708 C 0.00995 0.76593 0.99781 0.0
C709 C 0.99025 0.75602 0.97766 0.0
C710 C 0.24428 0.23534 0.98902 0.0
C711 C 0.26426 0.24447 0.98811 0.0
C712 C 0.23481 0.24479 0.01426 0.0
C713 C 0.24493 0.26375 0.0394 0.0
H714 H 0.23585 0.22083 0.96952 0.0
H715 H 0.21943 0.23725 0.01272 0.0
S716 S 0.29739 0.29372 0.05309 0.0
N717 N 0.29381 0.2734 0.01804 0.0
N718 N 0.27607 0.29101 0.06514 0.0
C719 C 0.26489 0.2729 0.04023 0.0
C720 C 0.27453 0.26331 0.01469 0.0
C721 C 0.76522 0.01038 0.99006 0.0
C722 C 0.75624 0.02128 0.99739 0.0
C723 C 0.75604 0.99119 0.01192 0.0
C724 C 0.73749 0.98213 0.04181 0.0
H725 H 0.77935 0.01661 0.96616 0.0
H726 H 0.76338 0.98331 0.00367 0.0
S727 S 0.70832 0.00471 0.07905 0.0
N728 N 0.7281 0.02176 0.04137 0.0
N729 N 0.71096 0.9859 0.08206 0.0
C730 C 0.72858 0.99301 0.0515 0.0
C731 C 0.73791 0.01251 0.02941 0.0
C732 C 0.65488 0.59792 0.3414 0.0
C733 C 0.64583 0.57854 0.32228 0.0
C734 C 0.67402 0.60793 0.36225 0.0
C735 C 0.68504 0.59904 0.36548 0.0
H736 H 0.64714 0.60555 0.34033 0.0
H737 H 0.68017 0.62282 0.37634 0.0
S738 S 0.66829 0.54849 0.32052 0.0
N739 N 0.64943 0.55077 0.30746 0.0
N740 N 0.6855 0.56962 0.34709 0.0
C741 C 0.67624 0.57965 0.34642 0.0
C742 C 0.65666 0.56942 0.32461 0.0
C743 C 0.4295 0.08387 0.3329 0.0
C744 C 0.41994 0.06486 0.30825 0.0
C745 C 0.4195 0.09315 0.35315 0.0
C746 C 0.39954 0.0838 0.34944 0.0
H747 H 0.44483 0.09163 0.33758 0.0
H748 H 0.42751 0.10772 0.37239 0.0
S749 S 0.36778 0.03427 0.28403 0.0
N750 N 0.38934 0.03725 0.27829 0.0
N751 N 0.37063 0.05458 0.31606 0.0
C752 C 0.38983 0.06487 0.32359 0.0
C753 C 0.4 0.05544 0.30308 0.0
C754 C 0.90467 0.32508 0.35256 0.0
C755 C 0.9129 0.3135 0.34559 0.0
C756 C 0.91403 0.34387 0.3257 0.0
C757 C 0.93198 0.35181 0.29084 0.0
H758 H 0.89099 0.3197 0.3798 0.0
H759 H 0.90727 0.35233 0.33361 0.0
S760 S 0.95892 0.32692 0.25229 0.0
N761 N 0.93959 0.31105 0.29669 0.0
N762 N 0.95707 0.34616 0.24658 0.0
C763 C 0.94013 0.34021 0.28176 0.0
C764 C 0.93063 0.32113 0.30903 0.0
C765 C 0.67658 0.07142 0.33283 0.0
C766 C 0.68668 0.09104 0.34773 0.0
C767 C 0.65766 0.0623 0.30875 0.0
C768 C 0.64792 0.07235 0.29818 0.0
H769 H 0.68329 0.0629 0.33979 0.0
H770 H 0.65066 0.04716 0.29842 0.0
S771 S 0.66782 0.12405 0.32901 0.0
N772 N 0.68548 0.12034 0.34995 0.0
N773 N 0.64985 0.10315 0.30453 0.0
C774 C 0.65781 0.09202 0.31263 0.0
C775 C 0.67716 0.10135 0.33751 0.0
C776 C 0.92724 0.60502 0.32435 0.0
C777 C 0.90771 0.59516 0.34103 0.0
C778 C 0.93663 0.59553 0.29999 0.0
C779 C 0.92695 0.57569 0.29093 0.0
H780 H 0.93553 0.62031 0.3303 0.0
H781 H 0.9517 0.60395 0.2885 0.0
S782 S 0.87558 0.54304 0.32599 0.0
N783 N 0.87885 0.5643 0.34598 0.0
N784 N 0.89655 0.5464 0.30005 0.0
C785 C 0.90735 0.56556 0.30675 0.0
C786 C 0.89773 0.57529 0.33187 0.0
C787 C 0.42724 0.33258 0.27318 0.0
C788 C 0.43644 0.34926 0.31676 0.0
C789 C 0.4185 0.31462 0.30739 0.0
C790 C 0.41834 0.31257 0.3868 0.0
H791 H 0.4265 0.33337 0.21205 0.0
H792 H 0.41125 0.30227 0.27115 0.0
S793 S 0.44131 0.35173 0.52668 0.0
N794 N 0.44565 0.36254 0.44378 0.0
N795 N 0.42902 0.32879 0.50788 0.0
C796 C 0.42797 0.3291 0.43102 0.0
C797 C 0.43707 0.34742 0.3961 0.0
C798 C 0.32685 0.92936 0.67666 0.0
C799 C 0.31669 0.90975 0.66141 0.0
C800 C 0.34597 0.93852 0.69796 0.0
C801 C 0.35588 0.92855 0.70519 0.0
H802 H 0.32005 0.93785 0.67202 0.0
H803 H 0.35301 0.95365 0.70859 0.0
S804 S 0.33586 0.87689 0.67266 0.0
N805 N 0.31796 0.88052 0.65572 0.0
N806 N 0.35399 0.8978 0.69587 0.0
C807 C 0.34591 0.90888 0.69065 0.0
C808 C 0.32633 0.89949 0.6687 0.0
C809 C 0.08949 0.4368 0.63383 0.0
C810 C 0.08485 0.43494 0.71152 0.0
C811 C 0.09906 0.42813 0.60205 0.0
C812 C 0.10453 0.41732 0.64664 0.0
H813 H 0.08517 0.44453 0.59647 0.0
H814 H 0.1018 0.4296 0.54161 0.0
S815 S 0.0975 0.40969 0.85485 0.0
N816 N 0.08768 0.42259 0.83338 0.0
N817 N 0.10575 0.40642 0.7742 0.0
C818 C 0.10072 0.41605 0.72517 0.0
C819 C 0.09086 0.4248 0.7574 0.0
C820 C 0.59481 0.6624 0.69829 0.0
C821 C 0.57501 0.65139 0.70762 0.0
C822 C 0.60345 0.68125 0.67381 0.0
C823 C 0.59273 0.69003 0.65727 0.0
H824 H 0.60385 0.65644 0.70966 0.0
H825 H 0.61876 0.68895 0.6677 0.0
S826 S 0.54032 0.66755 0.67274 0.0
N827 N 0.54482 0.6507 0.69871 0.0
N828 N 0.56111 0.68625 0.65257 0.0
C829 C 0.57288 0.67926 0.6666 0.0
C830 C 0.56403 0.65996 0.69189 0.0
C831 C 0.344 0.4029 0.69955 0.0
C832 C 0.35405 0.42261 0.71243 0.0
C833 C 0.3252 0.39362 0.67405 0.0
C834 C 0.31551 0.40358 0.66 0.0
H835 H 0.35066 0.39442 0.70916 0.0
H836 H 0.31826 0.37842 0.66538 0.0
S837 S 0.3353 0.45546 0.68449 0.0
N838 N 0.35286 0.4519 0.70905 0.0
N839 N 0.31743 0.43441 0.66097 0.0
C840 C 0.32533 0.42334 0.67252 0.0
C841 C 0.34459 0.43284 0.69879 0.0
C842 C 0.58538 0.90907 0.63673 0.0
C843 C 0.60527 0.91911 0.62849 0.0
C844 C 0.57542 0.91831 0.65795 0.0
C845 C 0.58493 0.938 0.67152 0.0
H846 H 0.57738 0.89389 0.62723 0.0
H847 H 0.56013 0.90992 0.66344 0.0
S848 S 0.63699 0.97094 0.65758 0.0
N849 N 0.63412 0.94997 0.63546 0.0
N850 N 0.61549 0.96726 0.67519 0.0
C851 C 0.60483 0.94824 0.66327 0.0
C852 C 0.61496 0.93883 0.64182 0.0
C853 C 0.08843 0.65899 0.66532 0.0
C854 C 0.06862 0.64795 0.65559 0.0
C855 C 0.09851 0.67808 0.64222 0.0
C856 C 0.08917 0.68686 0.60853 0.0
H857 H 0.09619 0.65297 0.6922 0.0
H858 H 0.11366 0.68611 0.65249 0.0
S859 S 0.03774 0.66367 0.56322 0.0
N860 N 0.04028 0.64693 0.60489 0.0
N861 N 0.05914 0.6826 0.56175 0.0
C862 C 0.06947 0.67579 0.59625 0.0
C863 C 0.05923 0.65641 0.6197 0.0
C864 C 0.10425 0.33631 0.83084 0.0
C865 C 0.12371 0.34723 0.81384 0.0
C866 C 0.09782 0.32394 0.89298 0.0
C867 C 0.11057 0.32183 0.94043 0.0
H868 H 0.09384 0.3375 0.79654 0.0
H869 H 0.08269 0.31597 0.90369 0.0
S870 S 0.16302 0.34653 0.91803 0.0
N871 N 0.1557 0.35474 0.84797 0.0
N872 N 0.14366 0.3314 0.9645 0.0
C873 C 0.13009 0.33248 0.92342 0.0
C874 C 0.13665 0.34519 0.86028 0.0
C875 C 0.66821 0.77466 0.86176 0.0
C876 C 0.67333 0.79163 0.90089 0.0
C877 C 0.65642 0.7693 0.79794 0.0
C878 C 0.6492 0.78067 0.77031 0.0
H879 H 0.6734 0.76538 0.88025 0.0
H880 H 0.65296 0.75609 0.77007 0.0
S881 S 0.65774 0.82624 0.85349 0.0
N882 N 0.66992 0.81967 0.90805 0.0
N883 N 0.64774 0.80959 0.78811 0.0
C884 C 0.65415 0.79769 0.80888 0.0
C885 C 0.66619 0.80316 0.8741 0.0
C886 C 0.21639 0.87294 0.92762 0.0
C887 C 0.22101 0.892 0.93491 0.0
C888 C 0.22331 0.86699 0.86708 0.0
C889 C 0.23499 0.87981 0.81091 0.0
H890 H 0.20738 0.86246 0.96907 0.0
H891 H 0.21929 0.85215 0.86411 0.0
S892 S 0.25149 0.9314 0.80374 0.0
N893 N 0.23822 0.92378 0.88073 0.0
N894 N 0.2511 0.91257 0.76693 0.0
C895 C 0.23977 0.89894 0.81744 0.0
C896 C 0.23283 0.90504 0.87942 0.0
C897 C 0.32522 0.12494 0.13607 0.0
C898 C 0.3187 0.10726 0.10052 0.0
C899 C 0.33726 0.13027 0.19922 0.0
C900 C 0.34329 0.11817 0.22963 0.0
H901 H 0.32099 0.13479 0.11519 0.0
H902 H 0.34185 0.14406 0.22428 0.0
S903 S 0.33031 0.07023 0.15769 0.0
N904 N 0.31923 0.07758 0.10058 0.0
N905 N 0.3418 0.0876 0.2191 0.0
C906 C 0.33689 0.10042 0.19467 0.0
C907 C 0.32464 0.09499 0.13022 0.0
C908 C 0.8733 0.20379 0.23449 0.0
C909 C 0.88248 0.22315 0.25411 0.0
C910 C 0.87946 0.19738 0.1729 0.0
C911 C 0.89497 0.21008 0.12804 0.0
H912 H 0.8612 0.19343 0.26678 0.0
H913 H 0.87187 0.18234 0.16006 0.0
S914 S 0.92436 0.2622 0.15644 0.0
N915 N 0.90824 0.25497 0.22426 0.0
N916 N 0.91971 0.24293 0.1086 0.0
C917 C 0.90437 0.22948 0.14717 0.0
C918 C 0.89818 0.23601 0.21015 0.0
C919 C 0.77581 0.64798 0.15159 0.0
C920 C 0.76548 0.65024 0.21067 0.0
C921 C 0.7829 0.6608 0.0909 0.0
C922 C 0.77983 0.67632 0.08636 0.0
H923 H 0.77865 0.63632 0.1524 0.0
H924 H 0.79086 0.65845 0.04721 0.0
S925 S 0.75321 0.68837 0.22567 0.0
N926 N 0.75226 0.66907 0.26032 0.0
N927 N 0.76547 0.69309 0.14619 0.0
C928 C 0.76934 0.67866 0.14474 0.0
C929 C 0.76222 0.66566 0.20688 0.0
C930 C 0.90084 0.67135 0.12943 0.0
C931 C 0.88796 0.67073 0.07461 0.0
C932 C 0.89475 0.65872 0.19074 0.0
C933 C 0.87553 0.6448 0.19949 0.0
H934 H 0.91582 0.68174 0.12538 0.0
H935 H 0.90526 0.65978 0.2312 0.0
S936 S 0.8359 0.6373 0.07283 0.0
N937 N 0.85493 0.65512 0.03391 0.0
N938 N 0.84353 0.63132 0.14892 0.0
C939 C 0.86245 0.64398 0.14526 0.0
C940 C 0.86864 0.65696 0.08296 0.0
C941 C 0.30791 0.19688 0.18309 0.0
C942 C 0.31014 0.20993 0.126 0.0
C943 C 0.3206 0.20223 0.24412 0.0
C944 C 0.33593 0.22089 0.25094 0.0
H945 H 0.29636 0.18233 0.18041 0.0
H946 H 0.31831 0.19162 0.28634 0.0
S947 S 0.3478 0.26066 0.11727 0.0
N948 N 0.32871 0.24244 0.08064 0.0
N949 N 0.35249 0.25255 0.19524 0.0
C950 C 0.33823 0.23415 0.19445 0.0
C951 C 0.32538 0.22865 0.13203 0.0
C952 C 0.77209 0.09898 0.13776 0.0
C953 C 0.79151 0.10652 0.12211 0.0
C954 C 0.76603 0.10544 0.19944 0.0
C955 C 0.77913 0.11982 0.2478 0.0
H956 H 0.76143 0.08779 0.10272 0.0
H957 H 0.75091 0.09903 0.20912 0.0
S958 S 0.83167 0.14495 0.22919 0.0
N959 N 0.82387 0.12957 0.1586 0.0
N960 N 0.81252 0.1418 0.27424 0.0
C961 C 0.79862 0.12769 0.23217 0.0
C962 C 0.8048 0.12101 0.16949 0.0
C963 C 0.66434 0.89806 0.79596 0.0
C964 C 0.66397 0.885 0.7428 0.0
C965 C 0.67722 0.90447 0.85641 0.0
C966 C 0.69044 0.89825 0.86575 0.0
H967 H 0.65444 0.90325 0.79148 0.0
H968 H 0.67682 0.91445 0.89595 0.0
S969 S 0.69585 0.86461 0.74008 0.0
N970 N 0.67823 0.86635 0.70225 0.0
N971 N 0.70256 0.87848 0.81548 0.0
C972 C 0.69037 0.88533 0.81243 0.0
C973 C 0.67711 0.87867 0.75115 0.0
C974 C 0.1055 0.7655 0.78491 0.0
C975 C 0.11665 0.77837 0.72776 0.0
C976 C 0.09846 0.77121 0.84573 0.0
C977 C 0.1021 0.78998 0.85162 0.0
H978 H 0.10222 0.75086 0.78313 0.0
H979 H 0.08994 0.76074 0.88812 0.0
S980 S 0.13065 0.82933 0.7175 0.0
N981 N 0.13111 0.81086 0.68139 0.0
N982 N 0.11778 0.82155 0.79547 0.0
C983 C 0.1132 0.80303 0.79491 0.0
C984 C 0.12051 0.79724 0.73314 0.0
C985 C 0.20225 0.3288 0.878 0.0
C986 C 0.21329 0.32163 0.90939 0.0
C987 C 0.20844 0.34073 0.81443 0.0
C988 C 0.22596 0.34602 0.77947 0.0
H989 H 0.18861 0.32514 0.90242 0.0
H990 H 0.19935 0.34584 0.79274 0.0
S991 S 0.26046 0.33131 0.83995 0.0
N992 N 0.24279 0.32085 0.90089 0.0
N993 N 0.25439 0.34321 0.78154 0.0
C994 C 0.2372 0.33899 0.81033 0.0
C995 C 0.23089 0.32683 0.87517 0.0
C996 C 0.00709 0.43771 0.51428 0.0
C997 C 0.00438 0.44775 0.57338 0.0
C998 C 0.99453 0.43055 0.45286 0.0
C999 C 0.9786 0.43297 0.44831 0.0
H1000 H 0.01909 0.43539 0.51503 0.0
H1001 H 0.99725 0.42289 0.40899 0.0
S1002 S 0.96512 0.45845 0.58738 0.0
N1003 N 0.9846 0.45994 0.62278 0.0
N1004 N 0.96094 0.4464 0.50758 0.0
C1005 C 0.97569 0.443 0.50685 0.0
C1006 C 0.98859 0.45043 0.56923 0.0
C1007 C 0.55421 0.54697 0.46934 0.0
C1008 C 0.56466 0.56204 0.41864 0.0
C1009 C 0.54678 0.54979 0.5366 0.0
C1010 C 0.54988 0.56785 0.55643 0.0
H1011 H 0.55166 0.53285 0.45683 0.0
H1012 H 0.53886 0.53778 0.57397 0.0
S1013 S 0.57626 0.612 0.443 0.0
N1014 N 0.57753 0.59561 0.39231 0.0
N1015 N 0.56391 0.60101 0.51942 0.0
C1016 C 0.56028 0.58304 0.50616 0.0
C1017 C 0.56756 0.5801 0.43703 0.0
C1018 C 0.43462 0.99255 0.54272 0.0
C1019 C 0.4479 0.99226 0.59309 0.0
C1020 C 0.4404 0.00512 0.48123 0.0
C1021 C 0.45972 0.01806 0.46766 0.0
H1022 H 0.41955 0.98294 0.55052 0.0
H1023 H 0.42956 0.00477 0.44446 0.0
S1024 S 0.50033 0.02301 0.582 0.0
N1025 N 0.48138 0.00598 0.62463 0.0
N1026 N 0.49223 0.02965 0.50932 0.0
C1027 C 0.47321 0.01793 0.51739 0.0
C1028 C 0.46731 0.00503 0.57994 0.0
C1029 C 0.56319 0.99688 0.51273 0.0
C1030 C 0.54416 0.98734 0.53713 0.0
C1031 C 0.56891 0.00871 0.44896 0.0
C1032 C 0.55588 0.01156 0.40661 0.0
H1033 H 0.57385 0.99523 0.54309 0.0
H1034 H 0.58376 0.01572 0.43305 0.0
S1035 S 0.50424 0.98974 0.44568 0.0
N1036 N 0.51216 0.98146 0.51326 0.0
N1037 N 0.52294 0.00369 0.39342 0.0
C1038 C 0.53676 0.00207 0.43007 0.0
C1039 C 0.53091 0.98999 0.49524 0.0
C1040 C 0.00753 0.5483 0.40837 0.0
C1041 C 0.99233 0.55185 0.40222 0.0
C1042 C 0.02045 0.55568 0.46862 0.0
C1043 C 0.0186 0.56674 0.52565 0.0
H1044 H 0.00962 0.53988 0.36599 0.0
H1045 H 0.03193 0.55257 0.47056 0.0
S1046 S 0.98125 0.58018 0.53653 0.0
N1047 N 0.97617 0.56722 0.45886 0.0
N1048 N 1.00038 0.58094 0.57216 0.0
C1049 C 0.0034 0.57031 0.52063 0.0
C1050 C 0.99031 0.56292 0.45892 0.0
C1051 C 0.4506 0.45987 0.44348 0.0
C1052 C 0.44853 0.44165 0.4405 0.0
C1053 C 0.44346 0.46542 0.50456 0.0
C1054 C 0.43411 0.45304 0.56555 0.0
H1055 H 0.45772 0.46995 0.39808 0.0
H1056 H 0.44543 0.47961 0.50406 0.0
S1057 S 0.42507 0.40375 0.58576 0.0
N1058 N 0.43644 0.41119 0.50435 0.0
N1059 N 0.42313 0.42165 0.61905 0.0
C1060 C 0.43197 0.43478 0.56347 0.0
C1061 C 0.43913 0.42907 0.50101 0.0
C1062 C 0.09378 0.33774 0.30199 0.0
C1063 C 0.09075 0.31929 0.29046 0.0
C1064 C 0.10049 0.34716 0.37153 0.0
C1065 C 0.10462 0.3386 0.43231 0.0
H1066 H 0.09115 0.34511 0.25668 0.0
H1067 H 0.10284 0.36144 0.37698 0.0
S1068 S 0.09834 0.29011 0.4331 0.0
N1069 N 0.09179 0.29254 0.34726 0.0
N1070 N 0.10444 0.31023 0.47734 0.0
C1071 C 0.10129 0.32 0.42216 0.0
C1072 C 0.09434 0.31036 0.35153 0.0
C1073 C 0.6427 0.76504 0.35049 0.0
C1074 C 0.65131 0.76111 0.41173 0.0
C1075 C 0.65193 0.77126 0.28044 0.0
C1076 C 0.67013 0.7737 0.26826 0.0
H1077 H 0.62881 0.76363 0.35689 0.0
H1078 H 0.64471 0.77427 0.23562 0.0
S1079 S 0.69862 0.76462 0.40918 0.0
N1080 N 0.67894 0.75961 0.45482 0.0
N1081 N 0.69625 0.77121 0.32328 0.0
C1082 C 0.67878 0.76949 0.32858 0.0
C1083 C 0.6694 0.76324 0.40017 0.0
C1084 C 0.24797 0.90569 0.29246 0.0
C1085 C 0.23302 0.90952 0.28274 0.0
C1086 C 0.25086 0.89905 0.36176 0.0
C1087 C 0.23888 0.89586 0.42434 0.0
H1088 H 0.25744 0.9076 0.24589 0.0
H1089 H 0.26242 0.89609 0.3657 0.0
S1090 S 0.19819 0.90456 0.43027 0.0
N1091 N 0.20649 0.91029 0.34308 0.0
N1092 N 0.21189 0.89779 0.47291 0.0
C1093 C 0.22411 0.9 0.41602 0.0
C1094 C 0.2212 0.90684 0.34546 0.0
C1095 C 0.32142 0.0962 0.604 0.0
C1096 C 0.34043 0.10072 0.59499 0.0
C1097 C 0.3122 0.09044 0.67424 0.0
C1098 C 0.32161 0.08905 0.7388 0.0
H1099 H 0.31355 0.09727 0.55657 0.0
H1100 H 0.29766 0.08744 0.67806 0.0
S1101 S 0.37123 0.09842 0.74525 0.0
N1102 N 0.36817 0.10274 0.65648 0.0
N1103 N 0.35089 0.09198 0.7884 0.0
C1104 C 0.34051 0.09314 0.73038 0.0
C1105 C 0.3499 0.09894 0.65861 0.0
C1106 C 0.91541 0.23084 0.68503 0.0
C1107 C 0.90576 0.23123 0.75066 0.0
C1108 C 0.9124 0.23701 0.6148 0.0
C1109 C 0.89967 0.24388 0.60714 0.0
H1110 H 0.92506 0.22532 0.68732 0.0
H1111 H 0.91991 0.23601 0.56589 0.0
S1112 S 0.87201 0.24934 0.76297 0.0
N1113 N 0.88376 0.24013 0.80437 0.0
N1114 N 0.87815 0.25173 0.67272 0.0
C1115 C 0.89039 0.24494 0.67287 0.0
C1116 C 0.89342 0.2386 0.74442 0.0
C1117 C 0.75335 0.66469 0.72908 0.0
C1118 C 0.76913 0.68294 0.74024 0.0
C1119 C 0.75055 0.65496 0.66032 0.0
C1120 C 0.76344 0.66302 0.59972 0.0
H1121 H 0.74314 0.65768 0.77416 0.0
H1122 H 0.73829 0.64087 0.65521 0.0
S1123 S 0.80674 0.71081 0.59831 0.0
N1124 N 0.79756 0.70895 0.68346 0.0
N1125 N 0.79233 0.69071 0.55471 0.0
C1126 C 0.77911 0.68142 0.60951 0.0
C1127 C 0.78193 0.69136 0.67949 0.0
C1128 C 0.89873 0.64953 0.6473 0.0
C1129 C 0.89361 0.65771 0.58814 0.0
C1130 C 0.90553 0.6589 0.7168 0.0
C1131 C 0.90762 0.67692 0.73006 0.0
H1132 H 0.89719 0.6356 0.64055 0.0
H1133 H 0.909 0.65182 0.7607 0.0
S1134 S 0.89697 0.70497 0.59259 0.0
N1135 N 0.89167 0.68525 0.54677 0.0
N1136 N 0.90447 0.70283 0.67694 0.0
C1137 C 0.90294 0.68547 0.67078 0.0
C1138 C 0.89593 0.67588 0.60007 0.0
C1139 C 0.31532 0.2315 0.67675 0.0
C1140 C 0.32401 0.22823 0.73947 0.0
C1141 C 0.3249 0.23808 0.60748 0.0
C1142 C 0.34364 0.24176 0.59789 0.0
H1143 H 0.30082 0.22861 0.68051 0.0
H1144 H 0.31738 0.23996 0.5607 0.0
S1145 S 0.37333 0.23669 0.7459 0.0
N1146 N 0.35287 0.23006 0.78838 0.0
N1147 N 0.37085 0.24243 0.65864 0.0
C1148 C 0.35273 0.23911 0.66086 0.0
C1149 C 0.34293 0.23234 0.73139 0.0
C1150 C 0.76776 0.11036 0.72383 0.0
C1151 C 0.77082 0.09498 0.73568 0.0
C1152 C 0.7612 0.1131 0.6541 0.0
C1153 C 0.75749 0.10063 0.5928 0.0
H1154 H 0.77063 0.12057 0.76857 0.0
H1155 H 0.7594 0.12535 0.64797 0.0
S1156 S 0.76236 0.05759 0.59488 0.0
N1157 N 0.76897 0.06668 0.68059 0.0
N1158 N 0.75671 0.07183 0.5496 0.0
C1159 C 0.7601 0.08494 0.60423 0.0
C1160 C 0.76672 0.08211 0.67551 0.0
C1161 C 0.67453 0.90684 0.28757 0.0
C1162 C 0.67762 0.89393 0.24545 0.0
C1163 C 0.66295 0.90102 0.35239 0.0
C1164 C 0.65423 0.88213 0.37826 0.0
H1165 H 0.68107 0.92156 0.27028 0.0
H1166 H 0.66112 0.91151 0.38319 0.0
S1167 S 0.65768 0.84269 0.2881 0.0
N1168 N 0.67084 0.8613 0.23411 0.0
N1169 N 0.64925 0.85044 0.35574 0.0
C1170 C 0.65713 0.86906 0.33642 0.0
C1171 C 0.66876 0.87493 0.2701 0.0
C1172 C 0.08858 0.76192 0.37162 0.0
C1173 C 0.10478 0.76033 0.38505 0.0
C1174 C 0.08577 0.76846 0.30194 0.0
C1175 C 0.09912 0.77382 0.24279 0.0
H1176 H 0.07796 0.75821 0.41546 0.0
H1177 H 0.07313 0.76957 0.29499 0.0
S1178 S 0.14384 0.77198 0.24812 0.0
N1179 N 0.13425 0.76435 0.33247 0.0
N1180 N 0.12903 0.77667 0.20188 0.0
C1181 C 0.11529 0.77207 0.25503 0.0
C1182 C 0.1181 0.76531 0.32593 0.0
C1183 C 0.22043 0.31524 0.32929 0.0
C1184 C 0.23257 0.32381 0.26693 0.0
C1185 C 0.22363 0.3247 0.39885 0.0
C1186 C 0.23919 0.34311 0.40943 0.0
H1187 H 0.20808 0.3012 0.32418 0.0
H1188 H 0.21367 0.3175 0.44452 0.0
S1189 S 0.27586 0.37157 0.26533 0.0
N1190 N 0.26123 0.35162 0.22119 0.0
N1191 N 0.26727 0.36935 0.35189 0.0
C1192 C 0.25172 0.35171 0.34809 0.0
C1193 C 0.2484 0.3421 0.27697 0.0
C1194 C 0.01995 0.44442 0.97306 0.0
C1195 C 0.01105 0.43227 0.91101 0.0
C1196 C 0.01061 0.44167 0.04267 0.0
C1197 C 0.99193 0.42664 0.05359 0.0
H1198 H 0.03419 0.45643 0.96768 0.0
H1199 H 0.01809 0.45165 0.08798 0.0
S1200 S 0.9625 0.39008 0.91066 0.0
N1201 N 0.98261 0.40408 0.86619 0.0
N1202 N 0.96508 0.39893 0.99689 0.0
C1203 C 0.98298 0.41406 0.99267 0.0
C1204 C 0.99252 0.41687 0.92158 0.0
C1205 C 0.58494 0.58306 0.03096 0.0
C1206 C 0.57973 0.56477 0.05755 0.0
C1207 C 0.57608 0.58566 0.96748 0.0
C1208 C 0.56175 0.57009 0.92747 0.0
H1209 H 0.59574 0.59552 0.06011 0.0
H1210 H 0.5805 0.60004 0.94986 0.0
S1211 S 0.54338 0.51916 0.97198 0.0
N1212 N 0.55961 0.53077 0.03744 0.0
N1213 N 0.54308 0.53563 0.91837 0.0
C1214 C 0.55663 0.5517 0.95268 0.0
C1215 C 0.56557 0.54906 0.01758 0.0
C1216 C 0.43636 0.0146 0.02452 0.0
C1217 C 0.4418 0.00671 0.08378 0.0
C1218 C 0.42995 0.00526 0.95475 0.0
C1219 C 0.42855 0.98754 0.94134 0.0
H1220 H 0.43731 0.02827 0.03146 0.0
H1221 H 0.42618 0.01208 0.91084 0.0
S1222 S 0.44053 0.96042 0.07842 0.0
N1223 N 0.44497 0.97985 0.12471 0.0
N1224 N 0.43288 0.9623 0.99401 0.0
C1225 C 0.43362 0.97931 0.00055 0.0
C1226 C 0.44026 0.98888 0.07152 0.0
C1227 C 0.56798 0.98696 0.96798 0.0
C1228 C 0.56267 0.99494 0.90867 0.0
C1229 C 0.57435 0.99624 0.03789 0.0
C1230 C 0.57586 0.01399 0.05137 0.0
H1231 H 0.56695 0.97324 0.96098 0.0
H1232 H 0.57803 0.98934 0.08186 0.0
S1233 S 0.56421 0.04135 0.91419 0.0
N1234 N 0.55971 0.02193 0.86778 0.0
N1235 N 0.57175 0.03937 0.9987 0.0
C1236 C 0.57092 0.02233 0.99209 0.0
C1237 C 0.5643 0.01281 0.92101 0.0
C1238 C 0.99068 0.55847 0.92721 0.0
C1239 C 0.00937 0.57358 0.91736 0.0
C1240 C 0.98115 0.55545 0.99649 0.0
C1241 C 0.9899 0.56735 0.05931 0.0
H1242 H 0.9833 0.54871 0.88116 0.0
H1243 H 0.96689 0.54343 0.00096 0.0
S1244 S 0.0385 0.60943 0.06294 0.0
N1245 N 0.03613 0.60097 0.9761 0.0
N1246 N 0.01826 0.59528 0.1063 0.0
C1247 C 0.00848 0.58275 0.04999 0.0
C1248 C 0.01819 0.58587 0.97916 0.0
C1249 C 0.42072 0.42536 0.08584 0.0
C1250 C 0.43488 0.42037 0.09489 0.0
C1251 C 0.41801 0.43207 0.01635 0.0
C1252 C 0.42938 0.43415 0.95282 0.0
H1253 H 0.41183 0.42444 0.13324 0.0
H1254 H 0.40713 0.43601 0.01306 0.0
S1255 S 0.46771 0.42198 0.94472 0.0
N1256 N 0.45986 0.41716 0.03275 0.0
N1257 N 0.4548 0.42976 0.90257 0.0
C1258 C 0.44324 0.4287 0.96034 0.0
C1259 C 0.44597 0.42181 0.03112 0.0
loop_
_geom_bond_atom_site_label_1
_geom_bond_atom_site_label_2
_geom_bond_distance
_geom_bond_site_symmetry_2
_ccdc_geom_bond_type
C0 O1 1.160 . S
C0 O7 1.185 . S
O1 C0 1.160 . S
O2 Zn3 1.899 . S
O2 C10 1.284 . S
Zn3 O2 1.899 . S
Zn3 O4 2.032 1_554 S
Zn3 O7 2.086 . S
Zn3 O12 1.977 . S
O4 Zn3 2.032 1_556 S
O4 C8 1.278 . S
C5 O6 1.203 . S
C5 O12 1.267 . S
O6 C5 1.203 . S
O7 C0 1.185 . S
O7 Zn3 2.086 . S
C8 O4 1.278 . S
C8 O9 1.211 . S
O9 C8 1.211 . S
C10 O2 1.284 . S
C10 O11 1.273 . S
O11 C10 1.273 . S
O12 Zn3 1.977 . S
O12 C5 1.267 . S
C13 O14 1.160 . S
C13 O20 1.185 . S
O14 C13 1.160 . S
O15 Zn16 1.899 . S
O15 C23 1.284 . S
Zn16 O15 1.899 . S
Zn16 O17 2.032 1_554 S
Zn16 O20 2.086 . S
Zn16 O25 1.977 . S
O17 Zn16 2.032 1_556 S
O17 C21 1.278 . S
C18 O19 1.203 . S
C18 O25 1.267 . S
O19 C18 1.203 . S
O20 C13 1.185 . S
O20 Zn16 2.086 . S
C21 O17 1.278 . S
C21 O22 1.211 . S
O22 C21 1.211 . S
C23 O15 1.284 . S
C23 O24 1.273 . S
O24 C23 1.273 . S
O25 Zn16 1.977 . S
O25 C18 1.267 . S
C26 O27 1.160 . S
C26 O33 1.185 . S
O27 C26 1.160 . S
O28 Zn29 1.899 . S
O28 C36 1.284 . S
Zn29 O28 1.899 . S
Zn29 O30 2.032 1_554 S
Zn29 O33 2.086 . S
Zn29 O38 1.977 . S
O30 Zn29 2.032 1_556 S
O30 C34 1.278 . S
C31 O32 1.203 . S
C31 O38 1.267 . S
O32 C31 1.203 . S
O33 C26 1.185 . S
O33 Zn29 2.086 . S
C34 O30 1.278 . S
C34 O35 1.211 . S
O35 C34 1.211 . S
C36 O28 1.284 . S
C36 O37 1.273 . S
O37 C36 1.273 . S
O38 Zn29 1.977 . S
O38 C31 1.267 . S
C39 O40 1.160 . S
C39 O46 1.185 . S
O40 C39 1.160 . S
O41 Zn42 1.899 . S
O41 C49 1.284 . S
Zn42 O41 1.899 . S
Zn42 O43 2.032 1_556 S
Zn42 O46 2.086 . S
Zn42 O51 1.977 . S
O43 Zn42 2.032 1_554 S
O43 C47 1.278 . S
C44 O45 1.203 . S
C44 O51 1.267 . S
O45 C44 1.203 . S
O46 C39 1.185 . S
O46 Zn42 2.086 . S
C47 O43 1.278 . S
C47 O48 1.211 . S
O48 C47 1.211 . S
C49 O41 1.284 . S
C49 O50 1.273 . S
O50 C49 1.273 . S
O51 Zn42 1.977 . S
O51 C44 1.267 . S
C52 O53 1.160 . S
C52 O59 1.185 . S
O53 C52 1.160 . S
O54 Zn55 1.899 . S
O54 C62 1.284 . S
Zn55 O54 1.899 . S
Zn55 O56 2.032 1_556 S
Zn55 O59 2.086 . S
Zn55 O64 1.977 . S
O56 Zn55 2.032 1_554 S
O56 C60 1.278 . S
C57 O58 1.203 . S
C57 O64 1.267 . S
O58 C57 1.203 . S
O59 C52 1.185 . S
O59 Zn55 2.086 . S
C60 O56 1.278 . S
C60 O61 1.211 . S
O61 C60 1.211 . S
C62 O54 1.284 . S
C62 O63 1.273 . S
O63 C62 1.273 . S
O64 Zn55 1.977 . S
O64 C57 1.267 . S
C65 O66 1.160 . S
C65 O72 1.185 . S
O66 C65 1.160 . S
O67 Zn68 1.899 . S
O67 C75 1.284 . S
Zn68 O67 1.899 . S
Zn68 O69 2.032 1_556 S
Zn68 O72 2.086 . S
Zn68 O77 1.977 . S
O69 Zn68 2.032 1_554 S
O69 C73 1.278 . S
C70 O71 1.203 . S
C70 O77 1.267 . S
O71 C70 1.203 . S
O72 C65 1.185 . S
O72 Zn68 2.086 . S
C73 O69 1.278 . S
C73 O74 1.211 . S
O74 C73 1.211 . S
C75 O67 1.284 . S
C75 O76 1.273 . S
O76 C75 1.273 . S
O77 Zn68 1.977 . S
O77 C70 1.267 . S
C78 O79 1.160 . S
C78 O85 1.185 . S
O79 C78 1.160 . S
O80 Zn81 1.899 . S
O80 C88 1.284 . S
Zn81 O80 1.899 . S
Zn81 O82 2.032 1_556 S
Zn81 O85 2.086 . S
Zn81 O90 1.977 . S
O82 Zn81 2.032 1_554 S
O82 C86 1.278 . S
C83 O84 1.203 . S
C83 O90 1.267 . S
O84 C83 1.203 . S
O85 C78 1.185 . S
O85 Zn81 2.086 . S
C86 O82 1.278 . S
C86 O87 1.211 . S
O87 C86 1.211 . S
C88 O80 1.284 . S
C88 O89 1.273 . S
O89 C88 1.273 . S
O90 Zn81 1.977 . S
O90 C83 1.267 . S
C91 O92 1.160 . S
C91 O98 1.185 . S
O92 C91 1.160 . S
O93 Zn94 1.899 . S
O93 C101 1.284 . S
Zn94 O93 1.899 . S
Zn94 O95 2.032 1_556 S
Zn94 O98 2.086 . S
Zn94 O103 1.977 . S
O95 Zn94 2.032 1_554 S
O95 C99 1.278 . S
C96 O97 1.203 . S
C96 O103 1.267 . S
O97 C96 1.203 . S
O98 C91 1.185 . S
O98 Zn94 2.086 . S
C99 O95 1.278 . S
C99 O100 1.211 . S
O100 C99 1.211 . S
C101 O93 1.284 . S
C101 O102 1.273 . S
O102 C101 1.273 . S
O103 Zn94 1.977 . S
O103 C96 1.267 . S
C104 O105 1.160 . S
C104 O111 1.185 . S
O105 C104 1.160 . S
O106 Zn107 1.899 . S
O106 C114 1.284 . S
Zn107 O106 1.899 . S
Zn107 O108 2.032 1_556 S
Zn107 O111 2.086 . S
Zn107 O116 1.977 . S
O108 Zn107 2.032 1_554 S
O108 C112 1.278 . S
C109 O110 1.203 . S
C109 O116 1.267 . S
O110 C109 1.203 . S
O111 C104 1.185 . S
O111 Zn107 2.086 . S
C112 O108 1.278 . S
C112 O113 1.211 . S
O113 C112 1.211 . S
C114 O106 1.284 . S
C114 O115 1.273 . S
O115 C114 1.273 . S
O116 Zn107 1.977 . S
O116 C109 1.267 . S
C117 O118 1.160 . S
C117 O124 1.185 . S
O118 C117 1.160 . S
O119 Zn120 1.899 . S
O119 C127 1.284 . S
Zn120 O119 1.899 . S
Zn120 O121 2.032 1_554 S
Zn120 O124 2.086 . S
Zn120 O129 1.977 . S
O121 Zn120 2.032 1_556 S
O121 C125 1.278 . S
C122 O123 1.203 . S
C122 O129 1.267 . S
O123 C122 1.203 . S
O124 C117 1.185 . S
O124 Zn120 2.086 . S
C125 O121 1.278 . S
C125 O126 1.211 . S
O126 C125 1.211 . S
C127 O119 1.284 . S
C127 O128 1.273 . S
O128 C127 1.273 . S
O129 Zn120 1.977 . S
O129 C122 1.267 . S
C130 O131 1.160 . S
C130 O137 1.185 . S
O131 C130 1.160 . S
O132 Zn133 1.899 . S
O132 C140 1.284 . S
Zn133 O132 1.899 . S
Zn133 O134 2.032 1_554 S
Zn133 O137 2.086 . S
Zn133 O142 1.977 . S
O134 Zn133 2.032 1_556 S
O134 C138 1.278 . S
C135 O136 1.203 . S
C135 O142 1.267 . S
O136 C135 1.203 . S
O137 C130 1.185 . S
O137 Zn133 2.086 . S
C138 O134 1.278 . S
C138 O139 1.211 . S
O139 C138 1.211 . S
C140 O132 1.284 . S
C140 O141 1.273 . S
O141 C140 1.273 . S
O142 Zn133 1.977 . S
O142 C135 1.267 . S
C143 O144 1.160 . S
C143 O150 1.185 . S
O144 C143 1.160 . S
O145 Zn146 1.899 . S
O145 C153 1.284 . S
Zn146 O145 1.899 . S
Zn146 O147 2.032 1_554 S
Zn146 O150 2.086 . S
Zn146 O155 1.977 . S
O147 Zn146 2.032 1_556 S
O147 C151 1.278 . S
C148 O149 1.203 . S
C148 O155 1.267 . S
O149 C148 1.203 . S
O150 C143 1.185 . S
O150 Zn146 2.086 . S
C151 O147 1.278 . S
C151 O152 1.211 . S
O152 C151 1.211 . S
C153 O145 1.284 . S
C153 O154 1.273 . S
O154 C153 1.273 . S
O155 Zn146 1.977 . S
O155 C148 1.267 . S
C156 O157 1.160 . S
C156 O163 1.185 . S
O157 C156 1.160 . S
O158 Zn159 1.899 . S
O158 C166 1.284 . S
Zn159 O158 1.899 . S
Zn159 O160 2.032 . S
Zn159 O163 2.086 . S
Zn159 O168 1.977 . S
O160 Zn159 2.032 . S
O160 C164 1.278 . S
C161 O162 1.203 . S
C161 O168 1.267 . S
O162 C161 1.203 . S
O163 C156 1.185 . S
O163 Zn159 2.086 . S
C164 O160 1.278 . S
C164 O165 1.211 . S
O165 C164 1.211 . S
C166 O158 1.284 . S
C166 O167 1.273 . S
O167 C166 1.273 . S
O168 Zn159 1.977 . S
O168 C161 1.267 . S
C169 O170 1.160 . S
C169 O176 1.185 . S
O170 C169 1.160 . S
O171 Zn172 1.899 . S
O171 C179 1.284 . S
Zn172 O171 1.899 . S
Zn172 O173 2.032 . S
Zn172 O176 2.086 . S
Zn172 O181 1.977 . S
O173 Zn172 2.032 . S
O173 C177 1.278 . S
C174 O175 1.203 . S
C174 O181 1.267 . S
O175 C174 1.203 . S
O176 C169 1.185 . S
O176 Zn172 2.086 . S
C177 O173 1.278 . S
C177 O178 1.211 . S
O178 C177 1.211 . S
C179 O171 1.284 . S
C179 O180 1.273 . S
O180 C179 1.273 . S
O181 Zn172 1.977 . S
O181 C174 1.267 . S
C182 O183 1.160 . S
C182 O189 1.185 . S
O183 C182 1.160 . S
O184 Zn185 1.899 . S
O184 C192 1.284 . S
Zn185 O184 1.899 . S
Zn185 O186 2.032 . S
Zn185 O189 2.086 . S
Zn185 O194 1.977 . S
O186 Zn185 2.032 . S
O186 C190 1.278 . S
C187 O188 1.203 . S
C187 O194 1.267 . S
O188 C187 1.203 . S
O189 C182 1.185 . S
O189 Zn185 2.086 . S
C190 O186 1.278 . S
C190 O191 1.211 . S
O191 C190 1.211 . S
C192 O184 1.284 . S
C192 O193 1.273 . S
O193 C192 1.273 . S
O194 Zn185 1.977 . S
O194 C187 1.267 . S
C195 O196 1.160 . S
C195 O202 1.185 . S
O196 C195 1.160 . S
O197 Zn198 1.899 . S
O197 C205 1.284 . S
Zn198 O197 1.899 . S
Zn198 O199 2.032 . S
Zn198 O202 2.086 . S
Zn198 O207 1.977 . S
O199 Zn198 2.032 . S
O199 C203 1.278 . S
C200 O201 1.203 . S
C200 O207 1.267 . S
O201 C200 1.203 . S
O202 C195 1.185 . S
O202 Zn198 2.086 . S
C203 O199 1.278 . S
C203 O204 1.211 . S
O204 C203 1.211 . S
C205 O197 1.284 . S
C205 O206 1.273 . S
O206 C205 1.273 . S
O207 Zn198 1.977 . S
O207 C200 1.267 . S
C208 O209 1.160 . S
C208 O215 1.185 . S
O209 C208 1.160 . S
O210 Zn211 1.899 . S
O210 C218 1.284 . S
Zn211 O210 1.899 . S
Zn211 O212 2.032 . S
Zn211 O215 2.086 . S
Zn211 O220 1.977 . S
O212 Zn211 2.032 . S
O212 C216 1.278 . S
C213 O214 1.203 . S
C213 O220 1.267 . S
O214 C213 1.203 . S
O215 C208 1.185 . S
O215 Zn211 2.086 . S
C216 O212 1.278 . S
C216 O217 1.211 . S
O217 C216 1.211 . S
C218 O210 1.284 . S
C218 O219 1.273 . S
O219 C218 1.273 . S
O220 Zn211 1.977 . S
O220 C213 1.267 . S
C221 O222 1.160 . S
C221 O228 1.185 . S
O222 C221 1.160 . S
O223 Zn224 1.899 . S
O223 C231 1.284 . S
Zn224 O223 1.899 . S
Zn224 O225 2.032 . S
Zn224 O228 2.086 . S
Zn224 O233 1.977 . S
O225 Zn224 2.032 . S
O225 C229 1.278 . S
C226 O227 1.203 . S
C226 O233 1.267 . S
O227 C226 1.203 . S
O228 C221 1.185 . S
O228 Zn224 2.086 . S
C229 O225 1.278 . S
C229 O230 1.211 . S
O230 C229 1.211 . S
C231 O223 1.284 . S
C231 O232 1.273 . S
O232 C231 1.273 . S
O233 Zn224 1.977 . S
O233 C226 1.267 . S
C234 O235 1.160 . S
C234 O241 1.185 . S
O235 C234 1.160 . S
O236 Zn237 1.899 . S
O236 C244 1.284 . S
Zn237 O236 1.899 . S
Zn237 O238 2.032 . S
Zn237 O241 2.086 . S
Zn237 O246 1.977 . S
O238 Zn237 2.032 . S
O238 C242 1.278 . S
C239 O240 1.203 . S
C239 O246 1.267 . S
O240 C239 1.203 . S
O241 C234 1.185 . S
O241 Zn237 2.086 . S
C242 O238 1.278 . S
C242 O243 1.211 . S
O243 C242 1.211 . S
C244 O236 1.284 . S
C244 O245 1.273 . S
O245 C244 1.273 . S
O246 Zn237 1.977 . S
O246 C239 1.267 . S
C247 O248 1.160 . S
C247 O254 1.185 . S
O248 C247 1.160 . S
O249 Zn250 1.899 . S
O249 C257 1.284 . S
Zn250 O249 1.899 . S
Zn250 O251 2.032 . S
Zn250 O254 2.086 . S
Zn250 O259 1.977 . S
O251 Zn250 2.032 . S
O251 C255 1.278 . S
C252 O253 1.203 . S
C252 O259 1.267 . S
O253 C252 1.203 . S
O254 C247 1.185 . S
O254 Zn250 2.086 . S
C255 O251 1.278 . S
C255 O256 1.211 . S
O256 C255 1.211 . S
C257 O249 1.284 . S
C257 O258 1.273 . S
O258 C257 1.273 . S
O259 Zn250 1.977 . S
O259 C252 1.267 . S
C260 O261 1.160 . S
C260 O267 1.185 . S
O261 C260 1.160 . S
O262 Zn263 1.899 . S
O262 C270 1.284 . S
Zn263 O262 1.899 . S
Zn263 O264 2.032 . S
Zn263 O267 2.086 . S
Zn263 O272 1.977 . S
O264 Zn263 2.032 . S
O264 C268 1.278 . S
C265 O266 1.203 . S
C265 O272 1.267 . S
O266 C265 1.203 . S
O267 C260 1.185 . S
O267 Zn263 2.086 . S
C268 O264 1.278 . S
C268 O269 1.211 . S
O269 C268 1.211 . S
C270 O262 1.284 . S
C270 O271 1.273 . S
O271 C270 1.273 . S
O272 Zn263 1.977 . S
O272 C265 1.267 . S
C273 O274 1.160 . S
C273 O280 1.185 . S
O274 C273 1.160 . S
O275 Zn276 1.899 . S
O275 C283 1.284 . S
Zn276 O275 1.899 . S
Zn276 O277 2.032 . S
Zn276 O280 2.086 . S
Zn276 O285 1.977 . S
O277 Zn276 2.032 . S
O277 C281 1.278 . S
C278 O279 1.203 . S
C278 O285 1.267 . S
O279 C278 1.203 . S
O280 C273 1.185 . S
O280 Zn276 2.086 . S
C281 O277 1.278 . S
C281 O282 1.211 . S
O282 C281 1.211 . S
C283 O275 1.284 . S
C283 O284 1.273 . S
O284 C283 1.273 . S
O285 Zn276 1.977 . S
O285 C278 1.267 . S
C286 O287 1.160 . S
C286 O293 1.185 . S
O287 C286 1.160 . S
O288 Zn289 1.899 . S
O288 C296 1.284 . S
Zn289 O288 1.899 . S
Zn289 O290 2.032 . S
Zn289 O293 2.086 . S
Zn289 O298 1.977 . S
O290 Zn289 2.032 . S
O290 C294 1.278 . S
C291 O292 1.203 . S
C291 O298 1.267 . S
O292 C291 1.203 . S
O293 C286 1.185 . S
O293 Zn289 2.086 . S
C294 O290 1.278 . S
C294 O295 1.211 . S
O295 C294 1.211 . S
C296 O288 1.284 . S
C296 O297 1.273 . S
O297 C296 1.273 . S
O298 Zn289 1.977 . S
O298 C291 1.267 . S
C299 O300 1.160 . S
C299 O306 1.185 . S
O300 C299 1.160 . S
O301 Zn302 1.899 . S
O301 C309 1.284 . S
Zn302 O301 1.899 . S
Zn302 O303 2.032 . S
Zn302 O306 2.086 . S
Zn302 O311 1.977 . S
O303 Zn302 2.032 . S
O303 C307 1.278 . S
C304 O305 1.203 . S
C304 O311 1.267 . S
O305 C304 1.203 . S
O306 C299 1.185 . S
O306 Zn302 2.086 . S
C307 O303 1.278 . S
C307 O308 1.211 . S
O308 C307 1.211 . S
C309 O301 1.284 . S
C309 O310 1.273 . S
O310 C309 1.273 . S
O311 Zn302 1.977 . S
O311 C304 1.267 . S
C312 O313 1.160 . S
C312 O319 1.185 . S
O313 C312 1.160 . S
O314 Zn315 1.899 . S
O314 C322 1.284 . S
Zn315 O314 1.899 . S
Zn315 O316 2.032 . S
Zn315 O319 2.086 . S
Zn315 O324 1.977 . S
O316 Zn315 2.032 . S
O316 C320 1.278 . S
C317 O318 1.203 . S
C317 O324 1.267 . S
O318 C317 1.203 . S
O319 C312 1.185 . S
O319 Zn315 2.086 . S
C320 O316 1.278 . S
C320 O321 1.211 . S
O321 C320 1.211 . S
C322 O314 1.284 . S
C322 O323 1.273 . S
O323 C322 1.273 . S
O324 Zn315 1.977 . S
O324 C317 1.267 . S
C325 O326 1.160 . S
C325 O332 1.185 . S
O326 C325 1.160 . S
O327 Zn328 1.899 . S
O327 C335 1.284 . S
Zn328 O327 1.899 . S
Zn328 O329 2.032 . S
Zn328 O332 2.086 . S
Zn328 O337 1.977 . S
O329 Zn328 2.032 . S
O329 C333 1.278 . S
C330 O331 1.203 . S
C330 O337 1.267 . S
O331 C330 1.203 . S
O332 C325 1.185 . S
O332 Zn328 2.086 . S
C333 O329 1.278 . S
C333 O334 1.211 . S
O334 C333 1.211 . S
C335 O327 1.284 . S
C335 O336 1.273 . S
O336 C335 1.273 . S
O337 Zn328 1.977 . S
O337 C330 1.267 . S
C338 O339 1.160 . S
C338 O345 1.185 . S
O339 C338 1.160 . S
O340 Zn341 1.899 . S
O340 C348 1.284 . S
Zn341 O340 1.899 . S
Zn341 O342 2.032 . S
Zn341 O345 2.086 . S
Zn341 O350 1.977 . S
O342 Zn341 2.032 . S
O342 C346 1.278 . S
C343 O344 1.203 . S
C343 O350 1.267 . S
O344 C343 1.203 . S
O345 C338 1.185 . S
O345 Zn341 2.086 . S
C346 O342 1.278 . S
C346 O347 1.211 . S
O347 C346 1.211 . S
C348 O340 1.284 . S
C348 O349 1.273 . S
O349 C348 1.273 . S
O350 Zn341 1.977 . S
O350 C343 1.267 . S
C351 O352 1.160 . S
C351 O358 1.185 . S
O352 C351 1.160 . S
O353 Zn354 1.899 . S
O353 C361 1.284 . S
Zn354 O353 1.899 . S
Zn354 O355 2.032 . S
Zn354 O358 2.086 . S
Zn354 O363 1.977 . S
O355 Zn354 2.032 . S
O355 C359 1.278 . S
C356 O357 1.203 . S
C356 O363 1.267 . S
O357 C356 1.203 . S
O358 C351 1.185 . S
O358 Zn354 2.086 . S
C359 O355 1.278 . S
C359 O360 1.211 . S
O360 C359 1.211 . S
C361 O353 1.284 . S
C361 O362 1.273 . S
O362 C361 1.273 . S
O363 Zn354 1.977 . S
O363 C356 1.267 . S
C364 O365 1.160 . S
C364 O371 1.185 . S
O365 C364 1.160 . S
O366 Zn367 1.899 . S
O366 C374 1.284 . S
Zn367 O366 1.899 . S
Zn367 O368 2.032 . S
Zn367 O371 2.086 . S
Zn367 O376 1.977 . S
O368 Zn367 2.032 . S
O368 C372 1.278 . S
C369 O370 1.203 . S
C369 O376 1.267 . S
O370 C369 1.203 . S
O371 C364 1.185 . S
O371 Zn367 2.086 . S
C372 O368 1.278 . S
C372 O373 1.211 . S
O373 C372 1.211 . S
C374 O366 1.284 . S
C374 O375 1.273 . S
O375 C374 1.273 . S
O376 Zn367 1.977 . S
O376 C369 1.267 . S
C377 O378 1.160 . S
C377 O384 1.185 . S
O378 C377 1.160 . S
O379 Zn380 1.899 . S
O379 C387 1.284 . S
Zn380 O379 1.899 . S
Zn380 O381 2.032 . S
Zn380 O384 2.086 . S
Zn380 O389 1.977 . S
O381 Zn380 2.032 . S
O381 C385 1.278 . S
C382 O383 1.203 . S
C382 O389 1.267 . S
O383 C382 1.203 . S
O384 C377 1.185 . S
O384 Zn380 2.086 . S
C385 O381 1.278 . S
C385 O386 1.211 . S
O386 C385 1.211 . S
C387 O379 1.284 . S
C387 O388 1.273 . S
O388 C387 1.273 . S
O389 Zn380 1.977 . S
O389 C382 1.267 . S
C390 O391 1.160 . S
C390 O397 1.185 . S
O391 C390 1.160 . S
O392 Zn393 1.899 . S
O392 C400 1.284 . S
Zn393 O392 1.899 . S
Zn393 O394 2.032 . S
Zn393 O397 2.086 . S
Zn393 O402 1.977 . S
O394 Zn393 2.032 . S
O394 C398 1.278 . S
C395 O396 1.203 . S
C395 O402 1.267 . S
O396 C395 1.203 . S
O397 C390 1.185 . S
O397 Zn393 2.086 . S
C398 O394 1.278 . S
C398 O399 1.211 . S
O399 C398 1.211 . S
C400 O392 1.284 . S
C400 O401 1.273 . S
O401 C400 1.273 . S
O402 Zn393 1.977 . S
O402 C395 1.267 . S
C403 O404 1.160 . S
C403 O410 1.185 . S
O404 C403 1.160 . S
O405 Zn406 1.899 . S
O405 C413 1.284 . S
Zn406 O405 1.899 . S
Zn406 O407 2.032 . S
Zn406 O410 2.086 . S
Zn406 O415 1.977 . S
O407 Zn406 2.032 . S
O407 C411 1.278 . S
C408 O409 1.203 . S
C408 O415 1.267 . S
O409 C408 1.203 . S
O410 C403 1.185 . S
O410 Zn406 2.086 . S
C411 O407 1.278 . S
C411 O412 1.211 . S
O412 C411 1.211 . S
C413 O405 1.284 . S
C413 O414 1.273 . S
O414 C413 1.273 . S
O415 Zn406 1.977 . S
O415 C408 1.267 . S
C416 O417 1.160 . S
C416 O423 1.185 . S
O417 C416 1.160 . S
O418 Zn419 1.899 . S
O418 C426 1.284 . S
Zn419 O418 1.899 . S
Zn419 O420 2.032 . S
Zn419 O423 2.086 . S
Zn419 O428 1.977 . S
O420 Zn419 2.032 . S
O420 C424 1.278 . S
C421 O422 1.203 . S
C421 O428 1.267 . S
O422 C421 1.203 . S
O423 C416 1.185 . S
O423 Zn419 2.086 . S
C424 O420 1.278 . S
C424 O425 1.211 . S
O425 C424 1.211 . S
C426 O418 1.284 . S
C426 O427 1.273 . S
O427 C426 1.273 . S
O428 Zn419 1.977 . S
O428 C421 1.267 . S
C429 O430 1.160 . S
C429 O436 1.185 . S
O430 C429 1.160 . S
O431 Zn432 1.899 . S
O431 C439 1.284 . S
Zn432 O431 1.899 . S
Zn432 O433 2.032 . S
Zn432 O436 2.086 . S
Zn432 O441 1.977 . S
O433 Zn432 2.032 . S
O433 C437 1.278 . S
C434 O435 1.203 . S
C434 O441 1.267 . S
O435 C434 1.203 . S
O436 C429 1.185 . S
O436 Zn432 2.086 . S
C437 O433 1.278 . S
C437 O438 1.211 . S
O438 C437 1.211 . S
C439 O431 1.284 . S
C439 O440 1.273 . S
O440 C439 1.273 . S
O441 Zn432 1.977 . S
O441 C434 1.267 . S
C442 O443 1.160 . S
C442 O449 1.185 . S
O443 C442 1.160 . S
O444 Zn445 1.899 . S
O444 C452 1.284 . S
Zn445 O444 1.899 . S
Zn445 O446 2.032 . S
Zn445 O449 2.086 . S
Zn445 O454 1.977 . S
O446 Zn445 2.032 . S
O446 C450 1.278 . S
C447 O448 1.203 . S
C447 O454 1.267 . S
O448 C447 1.203 . S
O449 C442 1.185 . S
O449 Zn445 2.086 . S
C450 O446 1.278 . S
C450 O451 1.211 . S
O451 C450 1.211 . S
C452 O444 1.284 . S
C452 O453 1.273 . S
O453 C452 1.273 . S
O454 Zn445 1.977 . S
O454 C447 1.267 . S
C455 O456 1.160 . S
C455 O462 1.185 . S
O456 C455 1.160 . S
O457 Zn458 1.899 . S
O457 C465 1.284 . S
Zn458 O457 1.899 . S
Zn458 O459 2.032 . S
Zn458 O462 2.086 . S
Zn458 O467 1.977 . S
O459 Zn458 2.032 . S
O459 C463 1.278 . S
C460 O461 1.203 . S
C460 O467 1.267 . S
O461 C460 1.203 . S
O462 C455 1.185 . S
O462 Zn458 2.086 . S
C463 O459 1.278 . S
C463 O464 1.211 . S
O464 C463 1.211 . S
C465 O457 1.284 . S
C465 O466 1.273 . S
O466 C465 1.273 . S
O467 Zn458 1.977 . S
O467 C460 1.267 . S
C468 C469 1.369 . S
C468 C470 1.419 . S
C468 H472 0.930 . S
C469 C468 1.369 . S
C469 C478 1.429 . S
C470 C468 1.419 . S
C470 C471 1.363 . S
C470 H473 0.929 . S
C471 C470 1.363 . S
C471 C477 1.428 . S
H472 C468 0.930 . S
H473 C470 0.929 . S
S474 N475 1.613 . S
S474 N476 1.610 . S
N475 S474 1.613 . S
N475 C478 1.350 1_556 S
N476 S474 1.610 . S
N476 C477 1.351 1_556 S
C477 C471 1.428 . S
C477 N476 1.351 1_554 S
C477 C478 1.434 . S
C478 C469 1.429 . S
C478 N475 1.350 1_554 S
C478 C477 1.434 . S
C479 C480 1.369 . S
C479 C481 1.419 . S
C479 H483 0.930 . S
C480 C479 1.369 . S
C480 C489 1.429 . S
C481 C479 1.419 . S
C481 C482 1.363 . S
C481 H484 0.929 . S
C482 C481 1.363 . S
C482 C488 1.428 . S
H483 C479 0.930 . S
H484 C481 0.929 . S
S485 N486 1.613 . S
S485 N487 1.610 . S
N486 S485 1.613 . S
N486 C489 1.350 . S
N487 S485 1.610 . S
N487 C488 1.351 . S
C488 C482 1.428 . S
C488 N487 1.351 . S
C488 C489 1.434 . S
C489 C480 1.429 . S
C489 N486 1.350 . S
C489 C488 1.434 . S
C490 C491 1.369 . S
C490 C492 1.419 . S
C490 H494 0.930 . S
C491 C490 1.369 . S
C491 C500 1.429 . S
C492 C490 1.419 . S
C492 C493 1.363 . S
C492 H495 0.929 . S
C493 C492 1.363 . S
C493 C499 1.428 . S
H494 C490 0.930 . S
H495 C492 0.929 . S
S496 N497 1.613 . S
S496 N498 1.610 . S
N497 S496 1.613 . S
N497 C500 1.350 1_556 S
N498 S496 1.610 . S
N498 C499 1.351 1_556 S
C499 C493 1.428 . S
C499 N498 1.351 1_554 S
C499 C500 1.434 . S
C500 C491 1.429 . S
C500 N497 1.350 1_554 S
C500 C499 1.434 . S
C501 C502 1.369 . S
C501 C503 1.419 . S
C501 H505 0.930 . S
C502 C501 1.369 . S
C502 C511 1.429 . S
C503 C501 1.419 . S
C503 C504 1.363 . S
C503 H506 0.929 . S
C504 C503 1.363 . S
C504 C510 1.428 . S
H505 C501 0.930 . S
H506 C503 0.929 . S
S507 N508 1.612 1_554 S
S507 N509 1.605 1_554 S
N508 S507 1.612 1_556 S
N508 C511 1.351 . S
N509 S507 1.605 1_556 S
N509 C510 1.359 . S
C510 C504 1.428 . S
C510 N509 1.359 . S
C510 C511 1.434 . S
C511 C502 1.429 . S
C511 N508 1.351 . S
C511 C510 1.434 . S
C512 C513 1.369 . S
C512 C514 1.419 . S
C512 H516 0.930 . S
C513 C512 1.369 . S
C513 C522 1.429 . S
C514 C512 1.419 . S
C514 C515 1.363 . S
C514 H517 0.929 . S
C515 C514 1.363 . S
C515 C521 1.428 . S
H516 C512 0.930 . S
H517 C514 0.929 . S
S518 N519 1.613 . S
S518 N520 1.610 . S
N519 S518 1.613 . S
N519 C522 1.350 . S
N520 S518 1.610 . S
N520 C521 1.351 . S
C521 C515 1.428 . S
C521 N520 1.351 . S
C521 C522 1.434 . S
C522 C513 1.429 . S
C522 N519 1.350 . S
C522 C521 1.434 . S
C523 C524 1.369 . S
C523 C525 1.419 . S
C523 H527 0.930 . S
C524 C523 1.369 . S
C524 C533 1.429 . S
C525 C523 1.419 . S
C525 C526 1.363 . S
C525 H528 0.929 . S
C526 C525 1.363 . S
C526 C532 1.428 . S
H527 C523 0.930 . S
H528 C525 0.929 . S
S529 N530 1.613 . S
S529 N531 1.610 . S
N530 S529 1.613 . S
N530 C533 1.350 . S
N531 S529 1.610 . S
N531 C532 1.351 . S
C532 C526 1.428 . S
C532 N531 1.351 . S
C532 C533 1.434 . S
C533 C524 1.429 . S
C533 N530 1.350 . S
C533 C532 1.434 . S
C534 C535 1.369 . S
C534 C536 1.419 . S
C534 H538 0.930 . S
C535 C534 1.369 . S
C535 C544 1.429 . S
C536 C534 1.419 . S
C536 C537 1.363 . S
C536 H539 0.929 . S
C537 C536 1.363 . S
C537 C543 1.428 . S
H538 C534 0.930 . S
H539 C536 0.929 . S
S540 N541 1.613 . S
S540 N542 1.610 . S
N541 S540 1.613 . S
N541 C544 1.350 . S
N542 S540 1.610 . S
N542 C543 1.351 . S
C543 C537 1.428 . S
C543 N542 1.351 . S
C543 C544 1.434 . S
C544 C535 1.429 . S
C544 N541 1.350 . S
C544 C543 1.434 . S
C545 C546 1.369 . S
C545 C547 1.419 . S
C545 H549 0.930 . S
C546 C545 1.369 . S
C546 C555 1.429 . S
C547 C545 1.419 . S
C547 C548 1.363 . S
C547 H550 0.929 . S
C548 C547 1.363 . S
C548 C554 1.428 . S
H549 C545 0.930 . S
H550 C547 0.929 . S
S551 N552 1.613 . S
S551 N553 1.610 . S
N552 S551 1.613 . S
N552 C555 1.350 . S
N553 S551 1.610 . S
N553 C554 1.351 . S
C554 C548 1.428 . S
C554 N553 1.351 . S
C554 C555 1.434 . S
C555 C546 1.429 . S
C555 N552 1.350 . S
C555 C554 1.434 . S
C556 C557 1.369 . S
C556 C558 1.419 . S
C556 H560 0.930 . S
C557 C556 1.369 . S
C557 C566 1.429 . S
C558 C556 1.419 . S
C558 C559 1.363 . S
C558 H561 0.929 . S
C559 C558 1.363 . S
C559 C565 1.428 . S
H560 C556 0.930 . S
H561 C558 0.929 . S
S562 N563 1.613 . S
S562 N564 1.610 . S
N563 S562 1.613 . S
N563 C566 1.350 . S
N564 S562 1.610 . S
N564 C565 1.351 . S
C565 C559 1.428 . S
C565 N564 1.351 . S
C565 C566 1.434 . S
C566 C557 1.429 . S
C566 N563 1.350 . S
C566 C565 1.434 . S
C567 C568 1.369 . S
C567 C569 1.419 . S
C567 H571 0.930 . S
C568 C567 1.369 . S
C568 C577 1.429 . S
C569 C567 1.419 . S
C569 C570 1.363 . S
C569 H572 0.929 . S
C570 C569 1.363 . S
C570 C576 1.428 . S
H571 C567 0.930 . S
H572 C569 0.929 . S
S573 N574 1.613 . S
S573 N575 1.610 . S
N574 S573 1.613 . S
N574 C577 1.350 . S
N575 S573 1.610 . S
N575 C576 1.351 . S
C576 C570 1.428 . S
C576 N575 1.351 . S
C576 C577 1.434 . S
C577 C568 1.429 . S
C577 N574 1.350 . S
C577 C576 1.434 . S
C578 C579 1.369 . S
C578 C580 1.419 . S
C578 H582 0.930 . S
C579 C578 1.369 . S
C579 C588 1.429 . S
C580 C578 1.419 . S
C580 C581 1.363 . S
C580 H583 0.929 . S
C581 C580 1.363 . S
C581 C587 1.428 . S
H582 C578 0.930 . S
H583 C580 0.929 . S
S584 N585 1.613 . S
S584 N586 1.610 . S
N585 S584 1.613 . S
N585 C588 1.350 . S
N586 S584 1.610 . S
N586 C587 1.351 . S
C587 C581 1.428 . S
C587 N586 1.351 . S
C587 C588 1.434 . S
C588 C579 1.429 . S
C588 N585 1.350 . S
C588 C587 1.434 . S
C589 C590 1.369 . S
C589 C591 1.419 . S
C589 H593 0.930 . S
C590 C589 1.369 . S
C590 C599 1.429 . S
C591 C589 1.419 . S
C591 C592 1.363 . S
C591 H594 0.929 . S
C592 C591 1.363 . S
C592 C598 1.428 . S
H593 C589 0.930 . S
H594 C591 0.929 . S
S595 N596 1.613 . S
S595 N597 1.610 . S
N596 S595 1.613 . S
N596 C599 1.350 . S
N597 S595 1.610 . S
N597 C598 1.351 . S
C598 C592 1.428 . S
C598 N597 1.351 . S
C598 C599 1.434 . S
C599 C590 1.429 . S
C599 N596 1.350 . S
C599 C598 1.434 . S
C600 C601 1.369 . S
C600 C602 1.419 . S
C600 H604 0.930 . S
C601 C600 1.369 . S
C601 C610 1.429 . S
C602 C600 1.419 . S
C602 C603 1.363 . S
C602 H605 0.929 . S
C603 C602 1.363 . S
C603 C609 1.428 . S
H604 C600 0.930 . S
H605 C602 0.929 . S
S606 N607 1.613 . S
S606 N608 1.610 . S
N607 S606 1.613 . S
N607 C610 1.350 . S
N608 S606 1.610 . S
N608 C609 1.351 . S
C609 C603 1.428 . S
C609 N608 1.351 . S
C609 C610 1.434 . S
C610 C601 1.429 . S
C610 N607 1.350 . S
C610 C609 1.434 . S
C611 C612 1.369 . S
C611 C613 1.419 . S
C611 H615 0.930 . S
C612 C611 1.369 . S
C612 C621 1.429 . S
C613 C611 1.419 . S
C613 C614 1.363 . S
C613 H616 0.929 . S
C614 C613 1.363 . S
C614 C620 1.428 . S
H615 C611 0.930 . S
H616 C613 0.929 . S
S617 N618 1.613 . S
S617 N619 1.610 . S
N618 S617 1.613 . S
N618 C621 1.350 . S
N619 S617 1.610 . S
N619 C620 1.351 . S
C620 C614 1.428 . S
C620 N619 1.351 . S
C620 C621 1.434 . S
C621 C612 1.429 . S
C621 N618 1.350 . S
C621 C620 1.434 . S
C622 C623 1.369 . S
C622 C624 1.419 . S
C622 H626 0.930 . S
C623 C622 1.369 . S
C623 C632 1.429 . S
C624 C622 1.419 . S
C624 C625 1.363 . S
C624 H627 0.929 . S
C625 C624 1.363 . S
C625 C631 1.428 . S
H626 C622 0.930 . S
H627 C624 0.929 . S
S628 N629 1.613 . S
S628 N630 1.610 . S
N629 S628 1.613 . S
N629 C632 1.350 . S
N630 S628 1.610 . S
N630 C631 1.351 . S
C631 C625 1.428 . S
C631 N630 1.351 . S
C631 C632 1.434 . S
C632 C623 1.429 . S
C632 N629 1.350 . S
C632 C631 1.434 . S
C633 C634 1.369 . S
C633 C635 1.419 . S
C633 H637 0.930 . S
C634 C633 1.369 . S
C634 C643 1.429 . S
C635 C633 1.419 . S
C635 C636 1.363 . S
C635 H638 0.929 . S
C636 C635 1.363 . S
C636 C642 1.428 . S
H637 C633 0.930 . S
H638 C635 0.929 . S
S639 N640 1.613 . S
S639 N641 1.610 . S
N640 S639 1.613 . S
N640 C643 1.350 . S
N641 S639 1.610 . S
N641 C642 1.351 . S
C642 C636 1.428 . S
C642 N641 1.351 . S
C642 C643 1.434 . S
C643 C634 1.429 . S
C643 N640 1.350 . S
C643 C642 1.434 . S
C644 C645 1.369 . S
C644 C646 1.419 . S
C644 H648 0.930 . S
C645 C644 1.369 . S
C645 C654 1.429 . S
C646 C644 1.419 . S
C646 C647 1.363 . S
C646 H649 0.929 . S
C647 C646 1.363 . S
C647 C653 1.428 . S
H648 C644 0.930 . S
H649 C646 0.929 . S
S650 N651 1.613 . S
S650 N652 1.610 . S
N651 S650 1.613 . S
N651 C654 1.350 . S
N652 S650 1.610 . S
N652 C653 1.351 . S
C653 C647 1.428 . S
C653 N652 1.351 . S
C653 C654 1.434 . S
C654 C645 1.429 . S
C654 N651 1.350 . S
C654 C653 1.434 . S
C655 C656 1.369 . S
C655 C657 1.419 . S
C655 H659 0.930 . S
C656 C655 1.369 . S
C656 C665 1.429 . S
C657 C655 1.419 . S
C657 C658 1.363 . S
C657 H660 0.929 . S
C658 C657 1.363 . S
C658 C664 1.428 . S
H659 C655 0.930 . S
H660 C657 0.929 . S
S661 N662 1.613 . S
S661 N663 1.610 . S
N662 S661 1.613 . S
N662 C665 1.350 . S
N663 S661 1.610 . S
N663 C664 1.351 . S
C664 C658 1.428 . S
C664 N663 1.351 . S
C664 C665 1.434 . S
C665 C656 1.429 . S
C665 N662 1.350 . S
C665 C664 1.434 . S
C666 C667 1.369 1_556 S
C666 C668 1.419 1_455 S
C666 H670 0.930 . S
C667 C666 1.369 1_554 S
C667 C676 1.429 . S
C668 C666 1.419 1_655 S
C668 C669 1.363 . S
C668 H671 0.929 . S
C669 C668 1.363 . S
C669 C675 1.428 1_556 S
H670 C666 0.930 . S
H671 C668 0.929 . S
S672 N673 1.613 1_655 S
S672 N674 1.610 . S
N673 S672 1.613 1_455 S
N673 C676 1.350 . S
N674 S672 1.610 . S
N674 C675 1.351 . S
C675 C669 1.428 1_554 S
C675 N674 1.351 . S
C675 C676 1.434 1_655 S
C676 C667 1.429 . S
C676 N673 1.350 . S
C676 C675 1.434 1_455 S
C677 C678 1.369 . S
C677 C679 1.419 . S
C677 H681 0.930 . S
C678 C677 1.369 . S
C678 C687 1.429 1_556 S
C679 C677 1.419 . S
C679 C680 1.363 1_556 S
C679 H682 0.929 . S
C680 C679 1.363 1_554 S
C680 C686 1.428 . S
H681 C677 0.930 . S
H682 C679 0.929 . S
S683 N684 1.613 . S
S683 N685 1.610 . S
N684 S683 1.613 . S
N684 C687 1.350 . S
N685 S683 1.610 . S
N685 C686 1.351 . S
C686 C680 1.428 . S
C686 N685 1.351 . S
C686 C687 1.434 . S
C687 C678 1.429 1_554 S
C687 N684 1.350 . S
C687 C686 1.434 . S
C688 C689 1.369 1_556 S
C688 C690 1.419 1_565 S
C688 H692 0.930 . S
C689 C688 1.369 1_554 S
C689 C698 1.429 . S
C690 C688 1.419 1_545 S
C690 C691 1.363 . S
C690 H693 0.929 . S
C691 C690 1.363 . S
C691 C697 1.428 1_556 S
H692 C688 0.930 . S
H693 C690 0.929 . S
S694 N695 1.613 1_545 S
S694 N696 1.610 . S
N695 S694 1.613 1_565 S
N695 C698 1.350 . S
N696 S694 1.610 . S
N696 C697 1.351 . S
C697 C691 1.428 1_554 S
C697 N696 1.351 . S
C697 C698 1.434 1_545 S
C698 C689 1.429 . S
C698 N695 1.350 . S
C698 C697 1.434 1_565 S
C699 C700 1.369 . S
C699 C701 1.419 1_655 S
C699 H703 0.930 . S
C700 C699 1.369 . S
C700 C709 1.429 1_556 S
C701 C699 1.419 1_455 S
C701 C702 1.363 1_556 S
C701 H704 0.929 . S
C702 C701 1.363 1_554 S
C702 C708 1.428 . S
H703 C699 0.930 . S
H704 C701 0.929 . S
S705 N706 1.613 . S
S705 N707 1.610 1_655 S
N706 S705 1.613 . S
N706 C709 1.350 . S
N707 S705 1.610 1_455 S
N707 C708 1.351 . S
C708 C702 1.428 . S
C708 N707 1.351 . S
C708 C709 1.434 1_455 S
C709 C700 1.429 1_554 S
C709 N706 1.350 . S
C709 C708 1.434 1_655 S
C710 C711 1.369 . S
C710 C712 1.419 . S
C710 H714 0.930 . S
C711 C710 1.369 . S
C711 C720 1.429 1_556 S
C712 C710 1.419 . S
C712 C713 1.363 1_556 S
C712 H715 0.929 . S
C713 C712 1.363 1_554 S
C713 C719 1.428 . S
H714 C710 0.930 . S
H715 C712 0.929 . S
S716 N717 1.613 . S
S716 N718 1.610 . S
N717 S716 1.613 . S
N717 C720 1.350 . S
N718 S716 1.610 . S
N718 C719 1.351 . S
C719 C713 1.428 . S
C719 N718 1.351 . S
C719 C720 1.434 . S
C720 C711 1.429 1_554 S
C720 N717 1.350 . S
C720 C719 1.434 . S
C721 C722 1.369 . S
C721 C723 1.419 1_546 S
C721 H725 0.930 . S
C722 C721 1.369 . S
C722 C731 1.429 . S
C723 C721 1.419 1_564 S
C723 C724 1.363 . S
C723 H726 0.929 . S
C724 C723 1.363 . S
C724 C730 1.428 . S
H725 C721 0.930 . S
H726 C723 0.929 . S
S727 N728 1.613 1_554 S
S727 N729 1.610 1_545 S
N728 S727 1.613 1_556 S
N728 C731 1.350 . S
N729 S727 1.610 1_565 S
N729 C730 1.351 . S
C730 C724 1.428 . S
C730 N729 1.351 . S
C730 C731 1.434 1_564 S
C731 C722 1.429 . S
C731 N728 1.350 . S
C731 C730 1.434 1_546 S
C732 C733 1.369 . S
C732 C734 1.419 . S
C732 H736 0.930 . S
C733 C732 1.369 . S
C733 C742 1.429 . S
C734 C732 1.419 . S
C734 C735 1.363 . S
C734 H737 0.929 . S
C735 C734 1.363 . S
C735 C741 1.428 . S
H736 C732 0.930 . S
H737 C734 0.929 . S
S738 N739 1.613 . S
S738 N740 1.610 . S
N739 S738 1.613 . S
N739 C742 1.350 . S
N740 S738 1.610 . S
N740 C741 1.351 . S
C741 C735 1.428 . S
C741 N740 1.351 . S
C741 C742 1.434 . S
C742 C733 1.429 . S
C742 N739 1.350 . S
C742 C741 1.434 . S
C743 C744 1.369 . S
C743 C745 1.419 . S
C743 H747 0.930 . S
C744 C743 1.369 . S
C744 C753 1.429 . S
C745 C743 1.419 . S
C745 C746 1.363 . S
C745 H748 0.929 . S
C746 C745 1.363 . S
C746 C752 1.428 . S
H747 C743 0.930 . S
H748 C745 0.929 . S
S749 N750 1.613 . S
S749 N751 1.610 . S
N750 S749 1.613 . S
N750 C753 1.350 . S
N751 S749 1.610 . S
N751 C752 1.351 . S
C752 C746 1.428 . S
C752 N751 1.351 . S
C752 C753 1.434 . S
C753 C744 1.429 . S
C753 N750 1.350 . S
C753 C752 1.434 . S
C754 C755 1.369 . S
C754 C756 1.419 . S
C754 H758 0.930 . S
C755 C754 1.369 . S
C755 C764 1.429 . S
C756 C754 1.419 . S
C756 C757 1.363 . S
C756 H759 0.929 . S
C757 C756 1.363 . S
C757 C763 1.428 . S
H758 C754 0.930 . S
H759 C756 0.929 . S
S760 N761 1.613 . S
S760 N762 1.610 . S
N761 S760 1.613 . S
N761 C764 1.350 . S
N762 S760 1.610 . S
N762 C763 1.351 . S
C763 C757 1.428 . S
C763 N762 1.351 . S
C763 C764 1.434 . S
C764 C755 1.429 . S
C764 N761 1.350 . S
C764 C763 1.434 . S
C765 C766 1.369 . S
C765 C767 1.419 . S
C765 H769 0.930 . S
C766 C765 1.369 . S
C766 C775 1.429 . S
C767 C765 1.419 . S
C767 C768 1.363 . S
C767 H770 0.929 . S
C768 C767 1.363 . S
C768 C774 1.428 . S
H769 C765 0.930 . S
H770 C767 0.929 . S
S771 N772 1.613 . S
S771 N773 1.610 . S
N772 S771 1.613 . S
N772 C775 1.350 . S
N773 S771 1.610 . S
N773 C774 1.351 . S
C774 C768 1.428 . S
C774 N773 1.351 . S
C774 C775 1.434 . S
C775 C766 1.429 . S
C775 N772 1.350 . S
C775 C774 1.434 . S
C776 C777 1.369 . S
C776 C778 1.419 . S
C776 H780 0.930 . S
C777 C776 1.369 . S
C777 C786 1.429 . S
C778 C776 1.419 . S
C778 C779 1.363 . S
C778 H781 0.929 . S
C779 C778 1.363 . S
C779 C785 1.428 . S
H780 C776 0.930 . S
H781 C778 0.929 . S
S782 N783 1.613 . S
S782 N784 1.610 . S
N783 S782 1.613 . S
N783 C786 1.350 . S
N784 S782 1.610 . S
N784 C785 1.351 . S
C785 C779 1.428 . S
C785 N784 1.351 . S
C785 C786 1.434 . S
C786 C777 1.429 . S
C786 N783 1.350 . S
C786 C785 1.434 . S
C787 C788 1.369 . S
C787 C789 1.419 . S
C787 H791 0.930 . S
C788 C787 1.369 . S
C788 C797 1.429 . S
C789 C787 1.419 . S
C789 C790 1.363 . S
C789 H792 0.929 . S
C790 C789 1.363 . S
C790 C796 1.428 . S
H791 C787 0.930 . S
H792 C789 0.929 . S
S793 N794 1.613 . S
S793 N795 1.610 . S
N794 S793 1.613 . S
N794 C797 1.350 . S
N795 S793 1.610 . S
N795 C796 1.351 . S
C796 C790 1.428 . S
C796 N795 1.351 . S
C796 C797 1.434 . S
C797 C788 1.429 . S
C797 N794 1.350 . S
C797 C796 1.434 . S
C798 C799 1.369 . S
C798 C800 1.419 . S
C798 H802 0.930 . S
C799 C798 1.369 . S
C799 C808 1.429 . S
C800 C798 1.419 . S
C800 C801 1.363 . S
C800 H803 0.929 . S
C801 C800 1.363 . S
C801 C807 1.428 . S
H802 C798 0.930 . S
H803 C800 0.929 . S
S804 N805 1.613 . S
S804 N806 1.610 . S
N805 S804 1.613 . S
N805 C808 1.350 . S
N806 S804 1.610 . S
N806 C807 1.351 . S
C807 C801 1.428 . S
C807 N806 1.351 . S
C807 C808 1.434 . S
C808 C799 1.429 . S
C808 N805 1.350 . S
C808 C807 1.434 . S
C809 C810 1.369 . S
C809 C811 1.419 . S
C809 H813 0.930 . S
C810 C809 1.369 . S
C810 C819 1.429 . S
C811 C809 1.419 . S
C811 C812 1.363 . S
C811 H814 0.929 . S
C812 C811 1.363 . S
C812 C818 1.428 . S
H813 C809 0.930 . S
H814 C811 0.929 . S
S815 N816 1.613 . S
S815 N817 1.610 . S
N816 S815 1.613 . S
N816 C819 1.350 . S
N817 S815 1.610 . S
N817 C818 1.351 . S
C818 C812 1.428 . S
C818 N817 1.351 . S
C818 C819 1.434 . S
C819 C810 1.429 . S
C819 N816 1.350 . S
C819 C818 1.434 . S
C820 C821 1.369 . S
C820 C822 1.419 . S
C820 H824 0.930 . S
C821 C820 1.369 . S
C821 C830 1.429 . S
C822 C820 1.419 . S
C822 C823 1.363 . S
C822 H825 0.929 . S
C823 C822 1.363 . S
C823 C829 1.428 . S
H824 C820 0.930 . S
H825 C822 0.929 . S
S826 N827 1.613 . S
S826 N828 1.610 . S
N827 S826 1.613 . S
N827 C830 1.350 . S
N828 S826 1.610 . S
N828 C829 1.351 . S
C829 C823 1.428 . S
C829 N828 1.351 . S
C829 C830 1.434 . S
C830 C821 1.429 . S
C830 N827 1.350 . S
C830 C829 1.434 . S
C831 C832 1.369 . S
C831 C833 1.419 . S
C831 H835 0.930 . S
C832 C831 1.369 . S
C832 C841 1.429 . S
C833 C831 1.419 . S
C833 C834 1.363 . S
C833 H836 0.929 . S
C834 C833 1.363 . S
C834 C840 1.428 . S
H835 C831 0.930 . S
H836 C833 0.929 . S
S837 N838 1.613 . S
S837 N839 1.610 . S
N838 S837 1.613 . S
N838 C841 1.350 . S
N839 S837 1.610 . S
N839 C840 1.351 . S
C840 C834 1.428 . S
C840 N839 1.351 . S
C840 C841 1.434 . S
C841 C832 1.429 . S
C841 N838 1.350 . S
C841 C840 1.434 . S
C842 C843 1.369 . S
C842 C844 1.419 . S
C842 H846 0.930 . S
C843 C842 1.369 . S
C843 C852 1.429 . S
C844 C842 1.419 . S
C844 C845 1.363 . S
C844 H847 0.929 . S
C845 C844 1.363 . S
C845 C851 1.428 . S
H846 C842 0.930 . S
H847 C844 0.929 . S
S848 N849 1.613 . S
S848 N850 1.610 . S
N849 S848 1.613 . S
N849 C852 1.350 . S
N850 S848 1.610 . S
N850 C851 1.351 . S
C851 C845 1.428 . S
C851 N850 1.351 . S
C851 C852 1.434 . S
C852 C843 1.429 . S
C852 N849 1.350 . S
C852 C851 1.434 . S
C853 C854 1.369 . S
C853 C855 1.419 . S
C853 H857 0.930 . S
C854 C853 1.369 . S
C854 C863 1.429 . S
C855 C853 1.419 . S
C855 C856 1.363 . S
C855 H858 0.929 . S
C856 C855 1.363 . S
C856 C862 1.428 . S
H857 C853 0.930 . S
H858 C855 0.929 . S
S859 N860 1.613 . S
S859 N861 1.610 . S
N860 S859 1.613 . S
N860 C863 1.350 . S
N861 S859 1.610 . S
N861 C862 1.351 . S
C862 C856 1.428 . S
C862 N861 1.351 . S
C862 C863 1.434 . S
C863 C854 1.429 . S
C863 N860 1.350 . S
C863 C862 1.434 . S
C864 C865 1.369 . S
C864 C866 1.419 . S
C864 H868 0.930 . S
C865 C864 1.369 . S
C865 C874 1.429 . S
C866 C864 1.419 . S
C866 C867 1.363 . S
C866 H869 0.929 . S
C867 C866 1.363 . S
C867 C873 1.428 . S
H868 C864 0.930 . S
H869 C866 0.929 . S
S870 N871 1.613 . S
S870 N872 1.610 . S
N871 S870 1.613 . S
N871 C874 1.350 . S
N872 S870 1.610 . S
N872 C873 1.351 . S
C873 C867 1.428 . S
C873 N872 1.351 . S
C873 C874 1.434 . S
C874 C865 1.429 . S
C874 N871 1.350 . S
C874 C873 1.434 . S
C875 C876 1.369 . S
C875 C877 1.419 . S
C875 H879 0.930 . S
C876 C875 1.369 . S
C876 C885 1.429 . S
C877 C875 1.419 . S
C877 C878 1.363 . S
C877 H880 0.929 . S
C878 C877 1.363 . S
C878 C884 1.428 . S
H879 C875 0.930 . S
H880 C877 0.929 . S
S881 N882 1.613 . S
S881 N883 1.610 . S
N882 S881 1.613 . S
N882 C885 1.350 . S
N883 S881 1.610 . S
N883 C884 1.351 . S
C884 C878 1.428 . S
C884 N883 1.351 . S
C884 C885 1.434 . S
C885 C876 1.429 . S
C885 N882 1.350 . S
C885 C884 1.434 . S
C886 C887 1.369 . S
C886 C888 1.419 . S
C886 H890 0.930 . S
C887 C886 1.369 . S
C887 C896 1.429 . S
C888 C886 1.419 . S
C888 C889 1.363 . S
C888 H891 0.929 . S
C889 C888 1.363 . S
C889 C895 1.428 . S
H890 C886 0.930 . S
H891 C888 0.929 . S
S892 N893 1.613 . S
S892 N894 1.610 . S
N893 S892 1.613 . S
N893 C896 1.350 . S
N894 S892 1.610 . S
N894 C895 1.351 . S
C895 C889 1.428 . S
C895 N894 1.351 . S
C895 C896 1.434 . S
C896 C887 1.429 . S
C896 N893 1.350 . S
C896 C895 1.434 . S
C897 C898 1.369 . S
C897 C899 1.419 . S
C897 H901 0.930 . S
C898 C897 1.369 . S
C898 C907 1.429 . S
C899 C897 1.419 . S
C899 C900 1.363 . S
C899 H902 0.929 . S
C900 C899 1.363 . S
C900 C906 1.428 . S
H901 C897 0.930 . S
H902 C899 0.929 . S
S903 N904 1.613 . S
S903 N905 1.610 . S
N904 S903 1.613 . S
N904 C907 1.350 . S
N905 S903 1.610 . S
N905 C906 1.351 . S
C906 C900 1.428 . S
C906 N905 1.351 . S
C906 C907 1.434 . S
C907 C898 1.429 . S
C907 N904 1.350 . S
C907 C906 1.434 . S
C908 C909 1.369 . S
C908 C910 1.419 . S
C908 H912 0.930 . S
C909 C908 1.369 . S
C909 C918 1.429 . S
C910 C908 1.419 . S
C910 C911 1.363 . S
C910 H913 0.929 . S
C911 C910 1.363 . S
C911 C917 1.428 . S
H912 C908 0.930 . S
H913 C910 0.929 . S
S914 N915 1.613 . S
S914 N916 1.610 . S
N915 S914 1.613 . S
N915 C918 1.350 . S
N916 S914 1.610 . S
N916 C917 1.351 . S
C917 C911 1.428 . S
C917 N916 1.351 . S
C917 C918 1.434 . S
C918 C909 1.429 . S
C918 N915 1.350 . S
C918 C917 1.434 . S
C919 C920 1.369 . S
C919 C921 1.419 . S
C919 H923 0.930 . S
C920 C919 1.369 . S
C920 C929 1.429 . S
C921 C919 1.419 . S
C921 C922 1.363 . S
C921 H924 0.929 . S
C922 C921 1.363 . S
C922 C928 1.428 . S
H923 C919 0.930 . S
H924 C921 0.929 . S
S925 N926 1.613 . S
S925 N927 1.610 . S
N926 S925 1.613 . S
N926 C929 1.350 . S
N927 S925 1.610 . S
N927 C928 1.351 . S
C928 C922 1.428 . S
C928 N927 1.351 . S
C928 C929 1.434 . S
C929 C920 1.429 . S
C929 N926 1.350 . S
C929 C928 1.434 . S
C930 C931 1.369 . S
C930 C932 1.419 . S
C930 H934 0.930 . S
C931 C930 1.369 . S
C931 C940 1.429 . S
C932 C930 1.419 . S
C932 C933 1.363 . S
C932 H935 0.929 . S
C933 C932 1.363 . S
C933 C939 1.428 . S
H934 C930 0.930 . S
H935 C932 0.929 . S
S936 N937 1.613 . S
S936 N938 1.610 . S
N937 S936 1.613 . S
N937 C940 1.350 . S
N938 S936 1.610 . S
N938 C939 1.351 . S
C939 C933 1.428 . S
C939 N938 1.351 . S
C939 C940 1.434 . S
C940 C931 1.429 . S
C940 N937 1.350 . S
C940 C939 1.434 . S
C941 C942 1.369 . S
C941 C943 1.419 . S
C941 H945 0.930 . S
C942 C941 1.369 . S
C942 C951 1.429 . S
C943 C941 1.419 . S
C943 C944 1.363 . S
C943 H946 0.929 . S
C944 C943 1.363 . S
C944 C950 1.428 . S
H945 C941 0.930 . S
H946 C943 0.929 . S
S947 N948 1.613 . S
S947 N949 1.610 . S
N948 S947 1.613 . S
N948 C951 1.350 . S
N949 S947 1.610 . S
N949 C950 1.351 . S
C950 C944 1.428 . S
C950 N949 1.351 . S
C950 C951 1.434 . S
C951 C942 1.429 . S
C951 N948 1.350 . S
C951 C950 1.434 . S
C952 C953 1.369 . S
C952 C954 1.419 . S
C952 H956 0.930 . S
C953 C952 1.369 . S
C953 C962 1.429 . S
C954 C952 1.419 . S
C954 C955 1.363 . S
C954 H957 0.929 . S
C955 C954 1.363 . S
C955 C961 1.428 . S
H956 C952 0.930 . S
H957 C954 0.929 . S
S958 N959 1.613 . S
S958 N960 1.610 . S
N959 S958 1.613 . S
N959 C962 1.350 . S
N960 S958 1.610 . S
N960 C961 1.351 . S
C961 C955 1.428 . S
C961 N960 1.351 . S
C961 C962 1.434 . S
C962 C953 1.429 . S
C962 N959 1.350 . S
C962 C961 1.434 . S
C963 C964 1.369 . S
C963 C965 1.419 . S
C963 H967 0.930 . S
C964 C963 1.369 . S
C964 C973 1.429 . S
C965 C963 1.419 . S
C965 C966 1.363 . S
C965 H968 0.929 . S
C966 C965 1.363 . S
C966 C972 1.428 . S
H967 C963 0.930 . S
H968 C965 0.929 . S
S969 N970 1.613 . S
S969 N971 1.610 . S
N970 S969 1.613 . S
N970 C973 1.350 . S
N971 S969 1.610 . S
N971 C972 1.351 . S
C972 C966 1.428 . S
C972 N971 1.351 . S
C972 C973 1.434 . S
C973 C964 1.429 . S
C973 N970 1.350 . S
C973 C972 1.434 . S
C974 C975 1.369 . S
C974 C976 1.419 . S
C974 H978 0.930 . S
C975 C974 1.369 . S
C975 C984 1.429 . S
C976 C974 1.419 . S
C976 C977 1.363 . S
C976 H979 0.929 . S
C977 C976 1.363 . S
C977 C983 1.428 . S
H978 C974 0.930 . S
H979 C976 0.929 . S
S980 N981 1.613 . S
S980 N982 1.610 . S
N981 S980 1.613 . S
N981 C984 1.350 . S
N982 S980 1.610 . S
N982 C983 1.351 . S
C983 C977 1.428 . S
C983 N982 1.351 . S
C983 C984 1.434 . S
C984 C975 1.429 . S
C984 N981 1.350 . S
C984 C983 1.434 . S
C985 C986 1.369 . S
C985 C987 1.419 . S
C985 H989 0.930 . S
C986 C985 1.369 . S
C986 C995 1.429 . S
C987 C985 1.419 . S
C987 C988 1.363 . S
C987 H990 0.929 . S
C988 C987 1.363 . S
C988 C994 1.428 . S
H989 C985 0.930 . S
H990 C987 0.929 . S
S991 N992 1.613 . S
S991 N993 1.610 . S
N992 S991 1.613 . S
N992 C995 1.350 . S
N993 S991 1.610 . S
N993 C994 1.351 . S
C994 C988 1.428 . S
C994 N993 1.351 . S
C994 C995 1.434 . S
C995 C986 1.429 . S
C995 N992 1.350 . S
C995 C994 1.434 . S
C996 C997 1.369 . S
C996 C998 1.419 . S
C996 H1000 0.930 . S
C997 C996 1.369 . S
C997 C1006 1.429 1_455 S
C998 C996 1.419 . S
C998 C999 1.363 1_455 S
C998 H1001 0.929 . S
C999 C998 1.363 1_655 S
C999 C1005 1.428 . S
H1000 C996 0.930 . S
H1001 C998 0.929 . S
S1002 N1003 1.613 . S
S1002 N1004 1.610 . S
N1003 S1002 1.613 . S
N1003 C1006 1.350 . S
N1004 S1002 1.610 . S
N1004 C1005 1.351 . S
C1005 C999 1.428 . S
C1005 N1004 1.351 . S
C1005 C1006 1.434 . S
C1006 C997 1.429 1_655 S
C1006 N1003 1.350 . S
C1006 C1005 1.434 . S
C1007 C1008 1.369 . S
C1007 C1009 1.419 . S
C1007 H1011 0.930 . S
C1008 C1007 1.369 . S
C1008 C1017 1.429 . S
C1009 C1007 1.419 . S
C1009 C1010 1.363 . S
C1009 H1012 0.929 . S
C1010 C1009 1.363 . S
C1010 C1016 1.428 . S
H1011 C1007 0.930 . S
H1012 C1009 0.929 . S
S1013 N1014 1.613 . S
S1013 N1015 1.610 . S
N1014 S1013 1.613 . S
N1014 C1017 1.350 . S
N1015 S1013 1.610 . S
N1015 C1016 1.351 . S
C1016 C1010 1.428 . S
C1016 N1015 1.351 . S
C1016 C1017 1.434 . S
C1017 C1008 1.429 . S
C1017 N1014 1.350 . S
C1017 C1016 1.434 . S
C1018 C1019 1.369 . S
C1018 C1020 1.419 . S
C1018 H1022 0.930 . S
C1019 C1018 1.369 . S
C1019 C1028 1.429 1_565 S
C1020 C1018 1.419 . S
C1020 C1021 1.363 1_565 S
C1020 H1023 0.929 . S
C1021 C1020 1.363 1_545 S
C1021 C1027 1.428 . S
H1022 C1018 0.930 . S
H1023 C1020 0.929 . S
S1024 N1025 1.613 . S
S1024 N1026 1.610 . S
N1025 S1024 1.613 . S
N1025 C1028 1.350 . S
N1026 S1024 1.610 . S
N1026 C1027 1.351 . S
C1027 C1021 1.428 . S
C1027 N1026 1.351 . S
C1027 C1028 1.434 . S
C1028 C1019 1.429 1_545 S
C1028 N1025 1.350 . S
C1028 C1027 1.434 . S
C1029 C1030 1.364 1_545 S
C1029 C1031 1.431 . S
C1029 H1033 0.923 . S
C1030 C1029 1.364 1_565 S
C1030 C1039 1.429 . S
C1031 C1029 1.431 . S
C1031 C1032 1.363 . S
C1031 H1034 0.929 . S
C1032 C1031 1.363 . S
C1032 C1038 1.428 1_545 S
H1033 C1029 0.923 . S
H1034 C1031 0.929 . S
S1035 N1036 1.613 . S
S1035 N1037 1.610 . S
N1036 S1035 1.613 . S
N1036 C1039 1.350 . S
N1037 S1035 1.610 . S
N1037 C1038 1.351 . S
C1038 C1032 1.428 1_565 S
C1038 N1037 1.351 . S
C1038 C1039 1.434 . S
C1039 C1030 1.429 . S
C1039 N1036 1.350 . S
C1039 C1038 1.434 . S
C1040 C1041 1.369 1_455 S
C1040 C1042 1.419 . S
C1040 H1044 0.930 . S
C1041 C1040 1.369 1_655 S
C1041 C1050 1.429 . S
C1042 C1040 1.419 . S
C1042 C1043 1.363 . S
C1042 H1045 0.929 . S
C1043 C1042 1.363 . S
C1043 C1049 1.428 1_455 S
H1044 C1040 0.930 . S
H1045 C1042 0.929 . S
S1046 N1047 1.613 . S
S1046 N1048 1.610 . S
N1047 S1046 1.613 . S
N1047 C1050 1.350 . S
N1048 S1046 1.610 . S
N1048 C1049 1.351 . S
C1049 C1043 1.428 1_655 S
C1049 N1048 1.351 . S
C1049 C1050 1.434 . S
C1050 C1041 1.429 . S
C1050 N1047 1.350 . S
C1050 C1049 1.434 . S
C1051 C1052 1.369 . S
C1051 C1053 1.419 . S
C1051 H1055 0.930 . S
C1052 C1051 1.369 . S
C1052 C1061 1.429 . S
C1053 C1051 1.419 . S
C1053 C1054 1.363 . S
C1053 H1056 0.929 . S
C1054 C1053 1.363 . S
C1054 C1060 1.428 . S
H1055 C1051 0.930 . S
H1056 C1053 0.929 . S
S1057 N1058 1.613 . S
S1057 N1059 1.610 . S
N1058 S1057 1.613 . S
N1058 C1061 1.350 . S
N1059 S1057 1.610 . S
N1059 C1060 1.351 . S
C1060 C1054 1.428 . S
C1060 N1059 1.351 . S
C1060 C1061 1.434 . S
C1061 C1052 1.429 . S
C1061 N1058 1.350 . S
C1061 C1060 1.434 . S
C1062 C1063 1.369 . S
C1062 C1064 1.419 . S
C1062 H1066 0.930 . S
C1063 C1062 1.369 . S
C1063 C1072 1.429 . S
C1064 C1062 1.419 . S
C1064 C1065 1.363 . S
C1064 H1067 0.929 . S
C1065 C1064 1.363 . S
C1065 C1071 1.428 . S
H1066 C1062 0.930 . S
H1067 C1064 0.929 . S
S1068 N1069 1.613 . S
S1068 N1070 1.610 . S
N1069 S1068 1.613 . S
N1069 C1072 1.350 . S
N1070 S1068 1.610 . S
N1070 C1071 1.351 . S
C1071 C1065 1.428 . S
C1071 N1070 1.351 . S
C1071 C1072 1.434 . S
C1072 C1063 1.429 . S
C1072 N1069 1.350 . S
C1072 C1071 1.434 . S
C1073 C1074 1.369 . S
C1073 C1075 1.419 . S
C1073 H1077 0.930 . S
C1074 C1073 1.369 . S
C1074 C1083 1.429 . S
C1075 C1073 1.419 . S
C1075 C1076 1.363 . S
C1075 H1078 0.929 . S
C1076 C1075 1.363 . S
C1076 C1082 1.428 . S
H1077 C1073 0.930 . S
H1078 C1075 0.929 . S
S1079 N1080 1.613 . S
S1079 N1081 1.610 . S
N1080 S1079 1.613 . S
N1080 C1083 1.350 . S
N1081 S1079 1.610 . S
N1081 C1082 1.351 . S
C1082 C1076 1.428 . S
C1082 N1081 1.351 . S
C1082 C1083 1.434 . S
C1083 C1074 1.429 . S
C1083 N1080 1.350 . S
C1083 C1082 1.434 . S
C1084 C1085 1.369 . S
C1084 C1086 1.419 . S
C1084 H1088 0.930 . S
C1085 C1084 1.369 . S
C1085 C1094 1.429 . S
C1086 C1084 1.419 . S
C1086 C1087 1.363 . S
C1086 H1089 0.929 . S
C1087 C1086 1.363 . S
C1087 C1093 1.428 . S
H1088 C1084 0.930 . S
H1089 C1086 0.929 . S
S1090 N1091 1.613 . S
S1090 N1092 1.610 . S
N1091 S1090 1.613 . S
N1091 C1094 1.350 . S
N1092 S1090 1.610 . S
N1092 C1093 1.351 . S
C1093 C1087 1.428 . S
C1093 N1092 1.351 . S
C1093 C1094 1.434 . S
C1094 C1085 1.429 . S
C1094 N1091 1.350 . S
C1094 C1093 1.434 . S
C1095 C1096 1.369 . S
C1095 C1097 1.419 . S
C1095 H1099 0.930 . S
C1096 C1095 1.369 . S
C1096 C1105 1.429 . S
C1097 C1095 1.419 . S
C1097 C1098 1.363 . S
C1097 H1100 0.929 . S
C1098 C1097 1.363 . S
C1098 C1104 1.428 . S
H1099 C1095 0.930 . S
H1100 C1097 0.929 . S
S1101 N1102 1.613 . S
S1101 N1103 1.610 . S
N1102 S1101 1.613 . S
N1102 C1105 1.350 . S
N1103 S1101 1.610 . S
N1103 C1104 1.351 . S
C1104 C1098 1.428 . S
C1104 N1103 1.351 . S
C1104 C1105 1.434 . S
C1105 C1096 1.429 . S
C1105 N1102 1.350 . S
C1105 C1104 1.434 . S
C1106 C1107 1.369 . S
C1106 C1108 1.419 . S
C1106 H1110 0.930 . S
C1107 C1106 1.369 . S
C1107 C1116 1.429 . S
C1108 C1106 1.419 . S
C1108 C1109 1.363 . S
C1108 H1111 0.929 . S
C1109 C1108 1.363 . S
C1109 C1115 1.428 . S
H1110 C1106 0.930 . S
H1111 C1108 0.929 . S
S1112 N1113 1.613 . S
S1112 N1114 1.610 . S
N1113 S1112 1.613 . S
N1113 C1116 1.350 . S
N1114 S1112 1.610 . S
N1114 C1115 1.351 . S
C1115 C1109 1.428 . S
C1115 N1114 1.351 . S
C1115 C1116 1.434 . S
C1116 C1107 1.429 . S
C1116 N1113 1.350 . S
C1116 C1115 1.434 . S
C1117 C1118 1.369 . S
C1117 C1119 1.419 . S
C1117 H1121 0.930 . S
C1118 C1117 1.369 . S
C1118 C1127 1.429 . S
C1119 C1117 1.419 . S
C1119 C1120 1.363 . S
C1119 H1122 0.929 . S
C1120 C1119 1.363 . S
C1120 C1126 1.428 . S
H1121 C1117 0.930 . S
H1122 C1119 0.929 . S
S1123 N1124 1.613 . S
S1123 N1125 1.610 . S
N1124 S1123 1.613 . S
N1124 C1127 1.350 . S
N1125 S1123 1.610 . S
N1125 C1126 1.351 . S
C1126 C1120 1.428 . S
C1126 N1125 1.351 . S
C1126 C1127 1.434 . S
C1127 C1118 1.429 . S
C1127 N1124 1.350 . S
C1127 C1126 1.434 . S
C1128 C1129 1.369 . S
C1128 C1130 1.419 . S
C1128 H1132 0.930 . S
C1129 C1128 1.369 . S
C1129 C1138 1.429 . S
C1130 C1128 1.419 . S
C1130 C1131 1.363 . S
C1130 H1133 0.929 . S
C1131 C1130 1.363 . S
C1131 C1137 1.428 . S
H1132 C1128 0.930 . S
H1133 C1130 0.929 . S
S1134 N1135 1.613 . S
S1134 N1136 1.610 . S
N1135 S1134 1.613 . S
N1135 C1138 1.350 . S
N1136 S1134 1.610 . S
N1136 C1137 1.351 . S
C1137 C1131 1.428 . S
C1137 N1136 1.351 . S
C1137 C1138 1.434 . S
C1138 C1129 1.429 . S
C1138 N1135 1.350 . S
C1138 C1137 1.434 . S
C1139 C1140 1.369 . S
C1139 C1141 1.419 . S
C1139 H1143 0.930 . S
C1140 C1139 1.369 . S
C1140 C1149 1.429 . S
C1141 C1139 1.419 . S
C1141 C1142 1.363 . S
C1141 H1144 0.929 . S
C1142 C1141 1.363 . S
C1142 C1148 1.428 . S
H1143 C1139 0.930 . S
H1144 C1141 0.929 . S
S1145 N1146 1.613 . S
S1145 N1147 1.610 . S
N1146 S1145 1.613 . S
N1146 C1149 1.350 . S
N1147 S1145 1.610 . S
N1147 C1148 1.351 . S
C1148 C1142 1.428 . S
C1148 N1147 1.351 . S
C1148 C1149 1.434 . S
C1149 C1140 1.429 . S
C1149 N1146 1.350 . S
C1149 C1148 1.434 . S
C1150 C1151 1.369 . S
C1150 C1152 1.419 . S
C1150 H1154 0.930 . S
C1151 C1150 1.369 . S
C1151 C1160 1.429 . S
C1152 C1150 1.419 . S
C1152 C1153 1.363 . S
C1152 H1155 0.929 . S
C1153 C1152 1.363 . S
C1153 C1159 1.428 . S
H1154 C1150 0.930 . S
H1155 C1152 0.929 . S
S1156 N1157 1.613 . S
S1156 N1158 1.610 . S
N1157 S1156 1.613 . S
N1157 C1160 1.350 . S
N1158 S1156 1.610 . S
N1158 C1159 1.351 . S
C1159 C1153 1.428 . S
C1159 N1158 1.351 . S
C1159 C1160 1.434 . S
C1160 C1151 1.429 . S
C1160 N1157 1.350 . S
C1160 C1159 1.434 . S
C1161 C1162 1.369 . S
C1161 C1163 1.419 . S
C1161 H1165 0.930 . S
C1162 C1161 1.369 . S
C1162 C1171 1.429 . S
C1163 C1161 1.419 . S
C1163 C1164 1.363 . S
C1163 H1166 0.929 . S
C1164 C1163 1.363 . S
C1164 C1170 1.428 . S
H1165 C1161 0.930 . S
H1166 C1163 0.929 . S
S1167 N1168 1.613 . S
S1167 N1169 1.610 . S
N1168 S1167 1.613 . S
N1168 C1171 1.350 . S
N1169 S1167 1.610 . S
N1169 C1170 1.351 . S
C1170 C1164 1.428 . S
C1170 N1169 1.351 . S
C1170 C1171 1.434 . S
C1171 C1162 1.429 . S
C1171 N1168 1.350 . S
C1171 C1170 1.434 . S
C1172 C1173 1.369 . S
C1172 C1174 1.419 . S
C1172 H1176 0.930 . S
C1173 C1172 1.369 . S
C1173 C1182 1.429 . S
C1174 C1172 1.419 . S
C1174 C1175 1.363 . S
C1174 H1177 0.929 . S
C1175 C1174 1.363 . S
C1175 C1181 1.428 . S
H1176 C1172 0.930 . S
H1177 C1174 0.929 . S
S1178 N1179 1.613 . S
S1178 N1180 1.610 . S
N1179 S1178 1.613 . S
N1179 C1182 1.350 . S
N1180 S1178 1.610 . S
N1180 C1181 1.351 . S
C1181 C1175 1.428 . S
C1181 N1180 1.351 . S
C1181 C1182 1.434 . S
C1182 C1173 1.429 . S
C1182 N1179 1.350 . S
C1182 C1181 1.434 . S
C1183 C1184 1.369 . S
C1183 C1185 1.419 . S
C1183 H1187 0.930 . S
C1184 C1183 1.369 . S
C1184 C1193 1.429 . S
C1185 C1183 1.419 . S
C1185 C1186 1.363 . S
C1185 H1188 0.929 . S
C1186 C1185 1.363 . S
C1186 C1192 1.428 . S
H1187 C1183 0.930 . S
H1188 C1185 0.929 . S
S1189 N1190 1.613 . S
S1189 N1191 1.610 . S
N1190 S1189 1.613 . S
N1190 C1193 1.350 . S
N1191 S1189 1.610 . S
N1191 C1192 1.351 . S
C1192 C1186 1.428 . S
C1192 N1191 1.351 . S
C1192 C1193 1.434 . S
C1193 C1184 1.429 . S
C1193 N1190 1.350 . S
C1193 C1192 1.434 . S
C1194 C1195 1.369 1_554 S
C1194 C1196 1.419 . S
C1194 H1198 0.930 . S
C1195 C1194 1.369 1_556 S
C1195 C1204 1.429 1_455 S
C1196 C1194 1.419 . S
C1196 C1197 1.363 1_455 S
C1196 H1199 0.929 . S
C1197 C1196 1.363 1_655 S
C1197 C1203 1.428 1_554 S
H1198 C1194 0.930 . S
H1199 C1196 0.929 . S
S1200 N1201 1.613 . S
S1200 N1202 1.610 . S
N1201 S1200 1.613 . S
N1201 C1204 1.350 . S
N1202 S1200 1.610 . S
N1202 C1203 1.351 . S
C1203 C1197 1.428 1_556 S
C1203 N1202 1.351 . S
C1203 C1204 1.434 . S
C1204 C1195 1.429 1_655 S
C1204 N1201 1.350 . S
C1204 C1203 1.434 . S
C1205 C1206 1.369 . S
C1205 C1207 1.419 1_554 S
C1205 H1209 0.930 . S
C1206 C1205 1.369 . S
C1206 C1215 1.429 . S
C1207 C1205 1.419 1_556 S
C1207 C1208 1.363 . S
C1207 H1210 0.929 . S
C1208 C1207 1.363 . S
C1208 C1214 1.428 . S
H1209 C1205 0.930 . S
H1210 C1207 0.929 . S
S1211 N1212 1.613 1_556 S
S1211 N1213 1.610 . S
N1212 S1211 1.613 1_554 S
N1212 C1215 1.350 . S
N1213 S1211 1.610 . S
N1213 C1214 1.351 . S
C1214 C1208 1.428 . S
C1214 N1213 1.351 . S
C1214 C1215 1.434 1_556 S
C1215 C1206 1.429 . S
C1215 N1212 1.350 . S
C1215 C1214 1.434 1_554 S
C1216 C1217 1.369 1_556 S
C1216 C1218 1.419 . S
C1216 H1220 0.930 . S
C1217 C1216 1.369 1_554 S
C1217 C1226 1.429 1_545 S
C1218 C1216 1.419 . S
C1218 C1219 1.363 1_545 S
C1218 H1221 0.929 . S
C1219 C1218 1.363 1_565 S
C1219 C1225 1.428 1_556 S
H1220 C1216 0.930 . S
H1221 C1218 0.929 . S
S1222 N1223 1.613 . S
S1222 N1224 1.610 . S
N1223 S1222 1.613 . S
N1223 C1226 1.350 . S
N1224 S1222 1.610 . S
N1224 C1225 1.351 . S
C1225 C1219 1.428 1_554 S
C1225 N1224 1.351 . S
C1225 C1226 1.434 . S
C1226 C1217 1.429 1_565 S
C1226 N1223 1.350 . S
C1226 C1225 1.434 . S
C1227 C1228 1.369 1_554 S
C1227 C1229 1.419 . S
C1227 H1231 0.930 . S
C1228 C1227 1.369 1_556 S
C1228 C1237 1.429 1_565 S
C1229 C1227 1.419 . S
C1229 C1230 1.363 1_565 S
C1229 H1232 0.929 . S
C1230 C1229 1.363 1_545 S
C1230 C1236 1.428 1_554 S
H1231 C1227 0.930 . S
H1232 C1229 0.929 . S
S1233 N1234 1.613 . S
S1233 N1235 1.610 . S
N1234 S1233 1.613 . S
N1234 C1237 1.350 . S
N1235 S1233 1.610 . S
N1235 C1236 1.351 . S
C1236 C1230 1.428 1_556 S
C1236 N1235 1.351 . S
C1236 C1237 1.434 . S
C1237 C1228 1.429 1_545 S
C1237 N1234 1.350 . S
C1237 C1236 1.434 . S
C1238 C1239 1.369 1_655 S
C1238 C1240 1.419 . S
C1238 H1242 0.930 . S
C1239 C1238 1.369 1_455 S
C1239 C1248 1.429 1_556 S
C1240 C1238 1.419 . S
C1240 C1241 1.363 1_556 S
C1240 H1243 0.929 . S
C1241 C1240 1.363 1_554 S
C1241 C1247 1.428 1_655 S
H1242 C1238 0.930 . S
H1243 C1240 0.929 . S
S1244 N1245 1.613 . S
S1244 N1246 1.610 . S
N1245 S1244 1.613 . S
N1245 C1248 1.350 . S
N1246 S1244 1.610 . S
N1246 C1247 1.351 . S
C1247 C1241 1.428 1_455 S
C1247 N1246 1.351 . S
C1247 C1248 1.434 . S
C1248 C1239 1.429 1_554 S
C1248 N1245 1.350 . S
C1248 C1247 1.434 . S
C1249 C1250 1.369 . S
C1249 C1251 1.419 1_554 S
C1249 H1253 0.930 . S
C1250 C1249 1.369 . S
C1250 C1259 1.429 . S
C1251 C1249 1.419 1_556 S
C1251 C1252 1.363 . S
C1251 H1254 0.929 . S
C1252 C1251 1.363 . S
C1252 C1258 1.428 . S
H1253 C1249 0.930 . S
H1254 C1251 0.929 . S
S1255 N1256 1.613 1_556 S
S1255 N1257 1.610 . S
N1256 S1255 1.613 1_554 S
N1256 C1259 1.350 . S
N1257 S1255 1.610 . S
N1257 C1258 1.351 . S
C1258 C1252 1.428 . S
C1258 N1257 1.351 . S
C1258 C1259 1.434 1_556 S
C1259 C1250 1.429 . S
C1259 N1256 1.350 . S
C1259 C1258 1.434 1_554 S
C469 C5 1.259 . S
C471 C148 1.258 . S
C480 C18 1.259 . S
C482 C122 1.259 . S
C491 C135 1.259 . S
C493 C31 1.259 . S
C502 C44 1.255 . S
C504 C96 1.255 . S
C513 C109 1.253 . S
C515 C57 1.253 . S
C524 C70 1.260 . S
C526 C83 1.260 . S
C535 C304 1.263 . S
C537 C161 1.262 . S
C546 C174 1.253 . S
C548 C278 1.254 . S
C557 C187 1.261 . S
C559 C291 1.260 . S
C568 C252 1.259 . S
C570 C200 1.259 . S
C579 C213 1.251 . S
C581 C265 1.252 . S
C590 C239 1.262 . S
C592 C226 1.261 . S
C601 C317 1.253 . S
C603 C460 1.254 . S
C612 C434 1.258 . S
C614 C330 1.258 . S
C623 C447 1.254 . S
C625 C343 1.255 . S
C634 C408 1.262 . S
C636 C356 1.261 . S
C645 C421 1.257 . S
C647 C369 1.256 . S
C656 C395 1.255 . S
C658 C382 1.255 . S
C667 C0 1.315 . S
C669 C52 1.316 . S
C678 C65 1.319 . S
C680 C13 1.318 . S
C689 C26 1.315 . S
C691 C39 1.316 . S
C700 C78 1.321 . S
C702 C130 1.321 . S
C711 C91 1.316 . S
C713 C143 1.316 . S
C722 C104 1.315 . S
C724 C117 1.315 . S
C733 C208 1.321 . S
C735 C156 1.320 . S
C744 C221 1.314 . S
C746 C169 1.315 . S
C755 C182 1.315 . S
C757 C195 1.315 . S
C766 C286 1.321 . S
C768 C234 1.320 . S
C777 C299 1.318 . S
C779 C247 1.319 . S
C788 C260 1.320 . S
C790 C273 1.318 . S
C799 C364 1.321 . S
C801 C312 1.320 . S
C810 C325 1.318 . S
C812 C377 1.319 . S
C821 C338 1.321 . S
C823 C351 1.320 . S
C832 C442 1.319 . S
C834 C390 1.320 . S
C843 C403 1.317 . S
C845 C455 1.316 . S
C854 C429 1.318 . S
C856 C416 1.316 . S
C865 C385 1.299 . S
C867 C8 1.300 . S
C876 C21 1.299 . S
C878 C359 1.300 . S
C887 C34 1.304 . S
C889 C372 1.305 . S
C898 C47 1.307 . S
C900 C177 1.306 . S
C909 C190 1.305 . S
C911 C60 1.305 . S
C920 C164 1.307 . S
C922 C73 1.306 . S
C931 C86 1.299 . S
C933 C307 1.300 . S
C942 C99 1.304 . S
C944 C281 1.303 . S
C953 C112 1.301 . S
C955 C294 1.302 . S
C964 C411 1.299 . S
C966 C125 1.300 . S
C975 C424 1.299 . S
C977 C138 1.300 . S
C986 C151 1.303 . S
C988 C398 1.303 . S
C997 C333 1.303 . S
C999 C203 1.302 . S
C1008 C216 1.306 . S
C1010 C346 1.305 . S
C1019 C320 1.303 . S
C1021 C229 1.302 . S
C1030 C463 1.300 . S
C1032 C242 1.301 . S
C1041 C255 1.307 . S
C1043 C437 1.307 . S
C1052 C268 1.305 . S
C1054 C450 1.305 . S
C1063 C10 1.608 . S
C1065 C387 1.606 . S
C1074 C361 1.605 . S
C1076 C23 1.610 . S
C1085 C36 1.611 . S
C1087 C374 1.605 . S
C1096 C179 1.610 . S
C1098 C49 1.606 . S
C1107 C62 1.606 . S
C1109 C192 1.608 . S
C1118 C75 1.610 . S
C1120 C166 1.605 . S
C1129 C309 1.604 . S
C1131 C88 1.609 . S
C1140 C101 1.605 . S
C1142 C283 1.609 . S
C1151 C114 1.610 . S
C1153 C296 1.605 . S
C1162 C127 1.605 . S
C1164 C413 1.608 . S
C1173 C426 1.606 . S
C1175 C140 1.607 . S
C1184 C153 1.609 . S
C1186 C400 1.608 . S
C1195 C335 1.604 . S
C1197 C205 1.609 . S
C1206 C218 1.609 . S
C1208 C348 1.606 . S
C1217 C231 1.604 . S
C1219 C322 1.609 . S
C1228 C465 1.604 . S
C1230 C244 1.610 . S
C1239 C439 1.610 . S
C1241 C257 1.605 . S
C1250 C270 1.607 . S
C1252 C452 1.607 . S
