# Generated by pormake.
# Topology smm, (6)-cn, num edge types: 1
# Building blocks:
#     Node 0, Type 0, BuildingBlock: LEVNOQ01_clean_sbu_1, # of connection points: 6
#     Node 1, Type 0, BuildingBlock: LEVNOQ01_clean_sbu_1, # of connection points: 6
#     Node 2, Type 0, BuildingBlock: LEVNOQ01_clean_sbu_1, # of connection points: 6
#     Node 3, Type 0, BuildingBlock: LEVNOQ01_clean_sbu_1, # of connection points: 6
#     Node 4, Type 0, BuildingBlock: LEVNOQ01_clean_sbu_1, # of connection points: 6
#     Node 5, Type 0, BuildingBlock: LEVNOQ01_clean_sbu_1, # of connection points: 6
#     Node 6, Type 0, BuildingBlock: LEVNOQ01_clean_sbu_1, # of connection points: 6
#     Node 7, Type 0, BuildingBlock: LEVNOQ01_clean_sbu_1, # of connection points: 6
#     Node 8, Type 0, BuildingBlock: LEVNOQ01_clean_sbu_1, # of connection points: 6
#     Edge 9, Type (0, 0), BuildingBlock: EYOCIG_clean_linker_4, # of connection points: 2
#     Edge 10, Type (0, 0), BuildingBlock: EYOCIG_clean_linker_4, # of connection points: 2
#     Edge 11, Type (0, 0), BuildingBlock: EYOCIG_clean_linker_4, # of connection points: 2
#     Edge 12, Type (0, 0), BuildingBlock: EYOCIG_clean_linker_4, # of connection points: 2
#     Edge 13, Type (0, 0), BuildingBlock: EYOCIG_clean_linker_4, # of connection points: 2
#     Edge 14, Type (0, 0), BuildingBlock: EYOCIG_clean_linker_4, # of connection points: 2
#     Edge 15, Type (0, 0), BuildingBlock: EYOCIG_clean_linker_4, # of connection points: 2
#     Edge 16, Type (0, 0), BuildingBlock: EYOCIG_clean_linker_4, # of connection points: 2
#     Edge 17, Type (0, 0), BuildingBlock: EYOCIG_clean_linker_4, # of connection points: 2
#     Edge 18, Type (0, 0), BuildingBlock: EYOCIG_clean_linker_4, # of connection points: 2
#     Edge 19, Type (0, 0), BuildingBlock: EYOCIG_clean_linker_4, # of connection points: 2
#     Edge 20, Type (0, 0), BuildingBlock: EYOCIG_clean_linker_4, # of connection points: 2
#     Edge 21, Type (0, 0), BuildingBlock: EYOCIG_clean_linker_4, # of connection points: 2
#     Edge 22, Type (0, 0), BuildingBlock: EYOCIG_clean_linker_4, # of connection points: 2
#     Edge 23, Type (0, 0), BuildingBlock: EYOCIG_clean_linker_4, # of connection points: 2
#     Edge 24, Type (0, 0), BuildingBlock: EYOCIG_clean_linker_4, # of connection points: 2
#     Edge 25, Type (0, 0), BuildingBlock: EYOCIG_clean_linker_4, # of connection points: 2
#     Edge 26, Type (0, 0), BuildingBlock: EYOCIG_clean_linker_4, # of connection points: 2
#     Edge 27, Type (0, 0), BuildingBlock: EYOCIG_clean_linker_4, # of connection points: 2
#     Edge 28, Type (0, 0), BuildingBlock: EYOCIG_clean_linker_4, # of connection points: 2
#     Edge 29, Type (0, 0), BuildingBlock: EYOCIG_clean_linker_4, # of connection points: 2
#     Edge 30, Type (0, 0), BuildingBlock: EYOCIG_clean_linker_4, # of connection points: 2
#     Edge 31, Type (0, 0), BuildingBlock: EYOCIG_clean_linker_4, # of connection points: 2
#     Edge 32, Type (0, 0), BuildingBlock: EYOCIG_clean_linker_4, # of connection points: 2
#     Edge 33, Type (0, 0), BuildingBlock: EYOCIG_clean_linker_4, # of connection points: 2
#     Edge 34, Type (0, 0), BuildingBlock: EYOCIG_clean_linker_4, # of connection points: 2
#     Edge 35, Type (0, 0), BuildingBlock: EYOCIG_clean_linker_4, # of connection points: 2
# Relax obj value: 0.194
# Max RMSD: 0.229
# Mean RMSD: 0.209
data_MOF--net-smm--node1-LEVNOQ01_clean_sbu_1--edge1-EYOCIG_clean_linker_4
_symmetry_space_group_name_H-M    P1
_symmetry_Int_Tables_number       1
_symmetry_cell_setting            triclinic
loop_
_symmetry_equiv_pos_as_xyz
'x, y, z'
_cell_length_a     41.429194
_cell_length_b     40.545522
_cell_length_c     11.772628
_cell_angle_alpha  94.247824
_cell_angle_beta   94.739461
_cell_angle_gamma 119.59584
loop_
_atom_site_label
_atom_site_type_symbol
_atom_site_fract_x
_atom_site_fract_y
_atom_site_fract_z
_atom_type_partial_charge
O0 O 0.07147 0.30368 0.09269 0.0
Mg1 Mg 0.02811 0.27586 0.18749 0.0
O2 O 0.06203 0.24897 0.00334 0.0
Mg3 Mg 0.01423 0.19513 0.07754 0.0
O4 O 0.02562 0.22992 0.25441 0.0
O5 O 0.03836 0.28408 0.3621 0.0
O6 O 0.96395 0.13754 0.13003 0.0
O7 O 0.06141 0.18218 0.14905 0.0
Mg8 Mg 1.00689 0.11407 0.93099 0.0
O9 O 0.00904 0.16332 0.90765 0.0
O10 O 0.95773 0.08964 0.0035 0.0
O11 O 0.05585 0.13072 0.04495 0.0
O12 O 0.00858 0.12648 0.76018 0.0
C13 C 0.95186 0.22829 0.05907 0.0
C14 C 0.07955 0.2856 0.01968 0.0
C15 C 0.03203 0.24945 0.35425 0.0
C16 C 0.94593 0.10247 0.08139 0.0
C17 C 0.07231 0.15809 0.12675 0.0
C18 C 0.01077 0.15799 0.80032 0.0
O19 O 0.9743 0.25952 0.12119 0.0
O20 O 0.96203 0.20446 0.02301 0.0
O21 O 0.78366 0.7429 0.09066 0.0
Mg22 Mg 0.76865 0.76803 0.96068 0.0
O23 O 0.8244 0.7991 0.19064 0.0
Mg24 Mg 0.83576 0.85125 0.0882 0.0
O25 O 0.81257 0.81465 0.91258 0.0
O26 O 0.77562 0.76251 0.78832 0.0
O27 O 0.84724 0.90807 0.00752 0.0
O28 O 0.89281 0.85627 0.05545 0.0
Mg29 Mg 0.91159 0.93092 0.23989 0.0
O30 O 0.86249 0.88547 0.26157 0.0
O31 O 0.8912 0.95713 0.1349 0.0
O32 O 0.94129 0.90768 0.16039 0.0
O33 O 0.90059 0.92506 0.41169 0.0
C34 C 0.74332 0.8228 0.05079 0.0
C35 C 0.80612 0.76257 0.18045 0.0
C36 C 0.80227 0.79768 0.80794 0.0
C37 C 0.86643 0.94393 0.04733 0.0
C38 C 0.92792 0.87766 0.08849 0.0
C39 C 0.87006 0.89396 0.37129 0.0
O40 O 0.73435 0.79056 -0.0031 0.0
O41 O 0.77669 0.84633 0.10141 0.0
O42 O 0.22187 0.95648 0.93125 0.0
Mg43 Mg 0.23876 0.99549 0.08417 0.0
O44 O 0.18612 0.97645 0.84486 0.0
Mg45 Mg 0.17402 0.0151 0.97694 0.0
O46 O 0.19508 0.99899 0.13508 0.0
O47 O 0.22762 0.9828 0.25235 0.0
O48 O 0.16245 0.05603 0.10214 0.0
O49 O 0.11535 0.9624 0.98433 0.0
Mg50 Mg 0.10519 0.02883 0.85934 0.0
O51 O 0.15104 0.02833 0.81689 0.0
O52 O 0.12551 0.07201 -0.00033 0.0
O53 O 0.07111 0.97299 0.90353 0.0
O54 O 0.1161 0.03812 0.68868 0.0
C55 C 0.26667 0.07752 0.02533 0.0
C56 C 0.2025 0.95669 0.84242 0.0
C57 C 0.20244 0.99244 0.23673 0.0
C58 C 0.14609 0.07572 0.09116 0.0
C59 C 0.08105 0.95201 0.95319 0.0
C60 C 0.14382 0.03265 0.71233 0.0
O61 O 0.27411 0.05348 0.06595 0.0
O62 O 0.23363 0.06888 0.98191 0.0
O63 O 0.60442 0.56961 0.26527 0.0
Mg64 Mg 0.6495 0.59187 0.17132 0.0
O65 O 0.6143 0.52625 0.34329 0.0
Mg66 Mg 0.66177 0.52088 0.25661 0.0
O67 O 0.65316 0.54729 0.10251 0.0
O68 O 0.64398 0.58471 -0.00759 0.0
O69 O 0.71013 0.51589 0.17391 0.0
O70 O 0.61427 0.4606 0.16055 0.0
Mg71 Mg 0.67153 0.44815 0.34248 0.0
O72 O 0.66806 0.49295 0.41056 0.0
O73 O 0.71902 0.47295 0.25941 0.0
O74 O 0.62073 0.41443 0.23336 0.0
O75 O 0.67393 0.45386 0.52114 0.0
C76 C 0.72173 0.61705 0.33152 0.0
C77 C 0.59639 0.54438 0.33199 0.0
C78 C 0.64943 0.55634 0.00172 0.0
C79 C 0.72821 0.4982 0.19212 0.0
C80 C 0.60344 0.42523 0.16561 0.0
C81 C 0.66994 0.48309 0.5113 0.0
O82 O 0.70242 0.62614 0.26587 0.0
O83 O 0.71103 0.5822 0.34622 0.0
O84 O 0.45745 0.06893 0.18846 0.0
Mg85 Mg 0.4396 0.09373 0.06317 0.0
O86 O 0.50224 0.12362 0.28962 0.0
Mg87 Mg 0.51109 0.177 0.19316 0.0
O88 O 0.48439 0.14055 0.02094 0.0
O89 O 0.44663 0.09256 0.88724 0.0
O90 O 0.51841 0.23085 0.10503 0.0
O91 O 0.56859 0.18627 0.14102 0.0
Mg92 Mg 0.58316 0.25986 0.32947 0.0
O93 O 0.539 0.21179 0.3668 0.0
O94 O 0.55857 0.28376 0.22507 0.0
O95 O 0.61497 0.24151 0.23663 0.0
O96 O 0.57773 0.25637 0.50687 0.0
C97 C 0.4192 0.14866 0.18759 0.0
C98 C 0.4822 0.08694 0.27532 0.0
C99 C 0.47479 0.12672 0.91368 0.0
C100 C 0.53502 0.26716 0.1347 0.0
C101 C 0.60335 0.21184 0.16396 0.0
C102 C 0.54849 0.22323 0.47554 0.0
O103 O 0.4083 0.11796 0.12094 0.0
O104 O 0.45353 0.17094 0.23078 0.0
O105 O 0.95148 0.42633 0.3603 0.0
Mg106 Mg 0.92997 0.38667 0.20859 0.0
O107 O 0.89552 0.40736 0.41412 0.0
Mg108 Mg 0.84538 0.36512 0.26959 0.0
O109 O 0.88248 0.38155 0.12631 0.0
O110 O 0.93345 0.39994 0.04077 0.0
O111 O 0.79137 0.31927 0.13892 0.0
O112 O 0.83503 0.41505 0.22927 0.0
Mg113 Mg 0.76386 0.35391 0.35574 0.0
O114 O 0.81082 0.35455 0.41682 0.0
O115 O 0.74153 0.30736 0.22836 0.0
O116 O 0.78223 0.407 0.29005 0.0
O117 O 0.76947 0.34864 0.53189 0.0
C118 C 0.87946 0.30414 0.25383 0.0
C119 C 0.93126 0.42734 0.43387 0.0
C120 C 0.89835 0.38918 0.03424 0.0
C121 C 0.75615 0.29978 0.14732 0.0
C122 C 0.81098 0.42565 0.24079 0.0
C123 C 0.80154 0.35227 0.51883 0.0
O124 O 0.91027 0.32904 0.2253 0.0
O125 O 0.85495 0.31223 0.28633 0.0
O126 O 0.40821 0.97623 0.6914 0.0
Mg127 Mg 0.3622 0.95063 0.78491 0.0
O128 O 0.39731 0.92146 0.59658 0.0
Mg129 Mg 0.34892 0.86696 0.66765 0.0
O130 O 0.3557 0.90158 0.83744 0.0
O131 O 0.36545 0.95017 0.96278 0.0
O132 O 0.2974 0.80985 0.71819 0.0
O133 O 0.39456 0.85515 0.76194 0.0
Mg134 Mg 0.34655 0.7871 0.54718 0.0
O135 O 0.34735 0.83444 0.50191 0.0
O136 O 0.29552 0.76045 0.61182 0.0
O137 O 0.39415 0.80479 0.67014 0.0
O138 O 0.34781 0.79291 0.37119 0.0
C139 C 0.28996 0.90249 0.61851 0.0
C140 C 0.4154 0.95819 0.61459 0.0
C141 C 0.35875 0.91556 0.94239 0.0
C142 C 0.28136 0.77397 0.6793 0.0
C143 C 0.40726 0.83212 0.75181 0.0
C144 C 0.34752 0.82419 0.39612 0.0
O145 O 0.30982 0.93168 0.69251 0.0
O146 O 0.30017 0.87808 0.58949 0.0
O147 O 0.11666 0.41059 0.70292 0.0
Mg148 Mg 0.09501 0.43601 0.59795 0.0
O149 O 0.15803 0.46466 0.81425 0.0
Mg150 Mg 0.1639 0.51885 0.73177 0.0
O151 O 0.13773 0.48422 0.55503 0.0
O152 O 0.09881 0.43499 0.42343 0.0
O153 O 0.17226 0.57619 0.65944 0.0
O154 O 0.22132 0.52626 0.68774 0.0
Mg155 Mg 0.23961 0.59861 0.87941 0.0
O156 O 0.19195 0.55238 0.90606 0.0
O157 O 0.21963 0.62569 0.77671 0.0
O158 O 0.26923 0.57569 0.80189 0.0
O159 O 0.23098 0.59448 0.05197 0.0
C160 C 0.06977 0.48455 0.73092 0.0
C161 C 0.14146 0.42823 0.78922 0.0
C162 C 0.12678 0.46934 0.44856 0.0
C163 C 0.19319 0.61231 0.694 0.0
C164 C 0.25628 0.54695 0.72532 0.0
C165 C 0.20068 0.56269 0.01508 0.0
O166 O 0.06073 0.45426 0.66529 0.0
O167 O 0.1041 0.50965 0.76901 0.0
O168 O 0.55704 0.62931 0.70594 0.0
Mg169 Mg 0.57348 0.67159 0.84263 0.0
O170 O 0.51688 0.6432 0.61558 0.0
Mg171 Mg 0.50785 0.68706 0.73595 0.0
O172 O 0.52888 0.67229 0.89982 0.0
O173 O 0.56595 0.65766 0.00645 0.0
O174 O 0.49609 0.73111 0.84835 0.0
O175 O 0.44826 0.63455 0.7396 0.0
Mg176 Mg 0.43883 0.6991 0.59827 0.0
O177 O 0.48586 0.69908 0.57311 0.0
O178 O 0.45794 0.74282 0.73332 0.0
O179 O 0.40532 0.64353 0.64046 0.0
O180 O 0.45316 0.70668 0.43115 0.0
C181 C 0.60176 0.75177 0.78525 0.0
C182 C 0.53381 0.62401 0.62054 0.0
C183 C 0.53872 0.66457 -0.00307 0.0
C184 C 0.47887 0.7496 0.8269 0.0
C185 C 0.41449 0.62325 0.69701 0.0
C186 C 0.48033 0.70142 0.46593 0.0
O187 O 0.61013 0.72841 0.82515 0.0
O188 O 0.56828 0.74172 0.74145 0.0
C189 C 0.12985 0.33822 0.92015 0.0
C190 C 0.10794 0.30868 0.95263 0.0
C191 C 0.14592 0.37593 0.89187 0.0
C192 C 0.14921 0.40478 0.85898 0.0
C193 C 0.68979 0.83228 0.96555 0.0
C194 C 0.71724 0.83554 0.02184 0.0
C195 C 0.65721 0.81594 0.8828 0.0
C196 C 0.62899 0.79126 0.82349 0.0
C197 C 0.20985 0.91919 0.66321 0.0
C198 C 0.20304 0.93699 0.73541 0.0
C199 C 0.22804 0.90256 0.60396 0.0
C200 C 0.25239 0.8951 0.58781 0.0
C201 C 0.36269 0.15845 0.159 0.0
C202 C 0.39239 0.16114 0.19075 0.0
C203 C 0.32629 0.14178 0.09792 0.0
C204 C 0.29594 0.11662 0.05226 0.0
C205 C 0.87402 0.24077 0.16672 0.0
C206 C 0.86967 0.26522 0.21691 0.0
C207 C 0.88972 0.22282 0.1003 0.0
C208 C 0.91311 0.21723 0.06158 0.0
C209 C 0.80161 0.71692 0.333 0.0
C210 C 0.8078 0.74223 0.2745 0.0
C211 C 0.78342 0.68076 0.37352 0.0
C212 C 0.75887 0.64803 0.37363 0.0
C213 C 1.00803 0.48472 0.70405 0.0
C214 C 0.03963 0.49234 0.73802 0.0
C215 C 0.97386 0.46734 0.62772 0.0
C216 C 0.9502 0.44851 0.54588 0.0
C217 C 0.53064 0.56963 0.4821 0.0
C218 C 0.52689 0.59443 0.53127 0.0
C219 C 0.5464 0.54797 0.44039 0.0
C220 C 0.5681 0.54 0.40162 0.0
C221 C 0.47704 0.03882 0.42236 0.0
C222 C 0.48334 0.06442 0.36427 0.0
C223 C 0.46056 1.0066 0.48417 0.0
C224 C 0.44029 0.98089 0.53611 0.0
C225 C 0.1432 0.12753 0.22235 0.0
C226 C 0.14984 0.10362 0.18188 0.0
C227 C 0.12541 0.14965 0.22606 0.0
C228 C 0.10341 0.15974 0.19611 0.0
C229 C 0.863 1.00388 0.02775 0.0
C230 C 0.85726 0.97155 0.01016 0.0
C231 C 0.88239 0.04313 0.07435 0.0
C232 C 0.90884 0.07515 0.10098 0.0
C233 C 0.98351 0.87363 0.01496 0.0
C234 C 0.95433 0.87 0.03872 0.0
C235 C 0.02124 0.89177 -0.0042 0.0
C236 C 0.05177 0.91697 0.98254 0.0
C237 C 0.78651 0.50011 0.1309 0.0
C238 C 0.76117 0.50632 0.1409 0.0
C239 C 0.80656 0.48088 0.15287 0.0
C240 C 0.8136 0.4575 0.18725 0.0
C241 C 0.54913 0.36229 0.05395 0.0
C242 C 0.57128 0.39516 0.09215 0.0
C243 C 0.53268 0.32205 0.04326 0.0
C244 C 0.52829 0.29175 0.06681 0.0
C245 C 0.65999 0.21868 0.06243 0.0
C246 C 0.63075 0.21019 0.09904 0.0
C247 C 0.69821 0.24004 0.04611 0.0
C248 C 0.73012 0.26625 0.06935 0.0
C249 C 0.47456 0.80542 0.92024 0.0
C250 C 0.48281 0.78085 0.9043 0.0
C251 C 0.456 0.82576 0.89072 0.0
C252 C 0.43505 0.83396 0.83865 0.0
C253 C 0.19502 0.67413 0.65543 0.0
C254 C 0.18653 0.64085 0.6504 0.0
C255 C 0.21715 0.71448 0.68394 0.0
C256 C 0.2442 0.74645 0.69889 0.0
C257 C 0.35289 0.55994 0.69874 0.0
C258 C 0.38464 0.58606 0.70883 0.0
C259 C 0.31351 0.54124 0.68419 0.0
C260 C 0.28295 0.53744 0.68763 0.0
C261 C 0.02549 0.20578 0.65099 0.0
C262 C 0.01891 0.18687 0.72831 0.0
C263 C 0.03017 0.22162 0.54811 0.0
C264 C 0.03073 0.23289 0.45686 0.0
C265 C 0.82683 0.83246 0.62703 0.0
C266 C 0.81668 0.818 0.71268 0.0
C267 C 0.83751 0.85002 0.52698 0.0
C268 C 0.84984 0.86758 0.44804 0.0
C269 C 0.17038 0.01773 0.53158 0.0
C270 C 0.1602 0.0242 0.61954 0.0
C271 C 0.17917 0.00854 0.42426 0.0
C272 C 0.18845 1.00171 0.33484 0.0
C273 C 0.6606 0.51312 0.70077 0.0
C274 C 0.66462 0.50137 0.60979 0.0
C275 C 0.65616 0.52507 0.80999 0.0
C276 C 0.65343 0.53755 0.90182 0.0
C277 C 0.51747 0.18275 0.64237 0.0
C278 C 0.52996 0.19934 0.56121 0.0
C279 C 0.50464 0.16481 0.74144 0.0
C280 C 0.49232 0.14902 0.82397 0.0
C281 C 0.84475 0.36678 0.71249 0.0
C282 C 0.82758 0.36036 0.61854 0.0
C283 C 0.86219 0.37527 0.8267 0.0
C284 C 0.87713 0.38112 0.92376 0.0
C285 C 0.35081 0.86281 0.2242 0.0
C286 C 0.34929 0.84711 0.30789 0.0
C287 C 0.35303 0.87917 0.12183 0.0
C288 C 0.3553 0.89404 0.03596 0.0
C289 C 0.16731 0.52185 0.17476 0.0
C290 C 0.18042 0.5383 0.09519 0.0
C291 C 0.15508 0.50508 0.27415 0.0
C292 C 0.14356 0.49048 0.35797 0.0
C293 C 0.50741 0.68245 0.29766 0.0
C294 C 0.49765 0.69077 0.38282 0.0
C295 C 0.51531 0.67364 0.18993 0.0
C296 C 0.52461 0.66987 0.09844 0.0
loop_
_geom_bond_atom_site_label_1
_geom_bond_atom_site_label_2
_geom_bond_distance
_geom_bond_site_symmetry_2
_ccdc_geom_bond_type
O0 Mg1 1.990 . S
O0 C14 1.253 . S
Mg1 O0 1.990 . S
Mg1 O4 2.180 . S
Mg1 O5 2.117 . S
Mg1 O19 2.030 1_455 S
O2 Mg3 2.072 . S
O2 C14 1.260 . S
Mg3 O2 2.072 . S
Mg3 O4 2.099 . S
Mg3 O6 2.079 1_455 S
Mg3 O7 2.072 . S
Mg3 O9 2.099 1_454 S
Mg3 O20 2.079 1_455 S
O4 Mg1 2.180 . S
O4 Mg3 2.099 . S
O4 C15 1.279 . S
O5 Mg1 2.117 . S
O5 C15 1.250 . S
O6 Mg3 2.079 1_655 S
O6 C16 1.264 . S
O7 Mg3 2.072 . S
O7 C17 1.260 . S
Mg8 O9 2.180 . S
Mg8 O10 2.030 . S
Mg8 O11 1.990 1_655 S
Mg8 O12 2.117 1_655 S
O9 Mg3 2.099 1_656 S
O9 Mg8 2.180 . S
O9 C18 1.279 1_655 S
O10 Mg8 2.030 . S
O10 C16 1.248 1_556 S
O11 Mg8 1.990 1_455 S
O11 C17 1.253 1_556 S
O12 Mg8 2.117 1_455 S
O12 C18 1.250 . S
C13 O19 1.248 . S
C13 O20 1.264 . S
C14 O0 1.253 . S
C14 O2 1.260 . S
C15 O4 1.279 . S
C15 O5 1.250 . S
C16 O6 1.264 . S
C16 O10 1.248 1_554 S
C17 O7 1.260 . S
C17 O11 1.253 1_554 S
C18 O9 1.279 1_455 S
C18 O12 1.250 . S
O19 Mg1 2.030 1_655 S
O19 C13 1.248 . S
O20 Mg3 2.079 1_655 S
O20 C13 1.264 . S
O21 Mg22 1.990 . S
O21 C35 1.253 1_556 S
Mg22 O21 1.990 . S
Mg22 O25 2.180 . S
Mg22 O26 2.117 . S
Mg22 O40 2.030 . S
O23 Mg24 2.072 . S
O23 C35 1.260 . S
Mg24 O23 2.072 . S
Mg24 O25 2.099 1_554 S
Mg24 O27 2.079 . S
Mg24 O28 2.072 . S
Mg24 O30 2.099 . S
Mg24 O41 2.079 . S
O25 Mg22 2.180 . S
O25 Mg24 2.099 1_556 S
O25 C36 1.279 . S
O26 Mg22 2.117 . S
O26 C36 1.250 . S
O27 Mg24 2.079 . S
O27 C37 1.264 . S
O28 Mg24 2.072 . S
O28 C38 1.260 . S
Mg29 O30 2.180 . S
Mg29 O31 2.030 . S
Mg29 O32 1.990 . S
Mg29 O33 2.117 . S
O30 Mg24 2.099 . S
O30 Mg29 2.180 . S
O30 C39 1.279 . S
O31 Mg29 2.030 . S
O31 C37 1.248 . S
O32 Mg29 1.990 . S
O32 C38 1.253 . S
O33 Mg29 2.117 . S
O33 C39 1.250 . S
C34 O40 1.248 1_554 S
C34 O41 1.264 . S
C35 O21 1.253 1_554 S
C35 O23 1.260 . S
C36 O25 1.279 . S
C36 O26 1.250 . S
C37 O27 1.264 . S
C37 O31 1.248 . S
C38 O28 1.260 . S
C38 O32 1.253 . S
C39 O30 1.279 . S
C39 O33 1.250 . S
O40 Mg22 2.030 . S
O40 C34 1.248 1_556 S
O41 Mg24 2.079 . S
O41 C34 1.264 . S
O42 Mg43 1.990 1_565 S
O42 C56 1.253 1_554 S
Mg43 O42 1.990 1_545 S
Mg43 O46 2.180 . S
Mg43 O47 2.117 1_545 S
Mg43 O61 2.030 . S
O44 Mg45 2.072 1_566 S
O44 C56 1.260 . S
Mg45 O44 2.072 1_544 S
Mg45 O46 2.099 . S
Mg45 O48 2.079 . S
Mg45 O49 2.072 1_545 S
Mg45 O51 2.099 1_554 S
Mg45 O62 2.079 . S
O46 Mg43 2.180 . S
O46 Mg45 2.099 . S
O46 C57 1.279 1_545 S
O47 Mg43 2.117 1_565 S
O47 C57 1.250 . S
O48 Mg45 2.079 . S
O48 C58 1.264 . S
O49 Mg45 2.072 1_565 S
O49 C59 1.260 1_554 S
Mg50 O51 2.180 . S
Mg50 O52 2.030 . S
Mg50 O53 1.990 1_545 S
Mg50 O54 2.117 1_545 S
O51 Mg45 2.099 1_556 S
O51 Mg50 2.180 . S
O51 C60 1.279 . S
O52 Mg50 2.030 . S
O52 C58 1.248 1_556 S
O53 Mg50 1.990 1_565 S
O53 C59 1.253 . S
O54 Mg50 2.117 1_565 S
O54 C60 1.250 1_565 S
C55 O61 1.248 . S
C55 O62 1.264 . S
C56 O42 1.253 1_556 S
C56 O44 1.260 . S
C57 O46 1.279 1_565 S
C57 O47 1.250 . S
C58 O48 1.264 . S
C58 O52 1.248 1_554 S
C59 O49 1.260 1_556 S
C59 O53 1.253 . S
C60 O51 1.279 . S
C60 O54 1.250 1_545 S
O61 Mg43 2.030 . S
O61 C55 1.248 . S
O62 Mg45 2.079 . S
O62 C55 1.264 . S
O63 Mg64 1.990 . S
O63 C77 1.253 . S
Mg64 O63 1.990 . S
Mg64 O67 2.180 . S
Mg64 O68 2.117 1_554 S
Mg64 O82 2.030 . S
O65 Mg66 2.072 . S
O65 C77 1.260 . S
Mg66 O65 2.072 . S
Mg66 O67 2.099 . S
Mg66 O69 2.079 . S
Mg66 O70 2.072 . S
Mg66 O72 2.099 . S
Mg66 O83 2.079 . S
O67 Mg64 2.180 . S
O67 Mg66 2.099 . S
O67 C78 1.279 . S
O68 Mg64 2.117 1_556 S
O68 C78 1.250 1_556 S
O69 Mg66 2.079 . S
O69 C79 1.264 . S
O70 Mg66 2.072 . S
O70 C80 1.260 . S
Mg71 O72 2.180 . S
Mg71 O73 2.030 . S
Mg71 O74 1.990 . S
Mg71 O75 2.117 . S
O72 Mg66 2.099 . S
O72 Mg71 2.180 . S
O72 C81 1.279 . S
O73 Mg71 2.030 . S
O73 C79 1.248 . S
O74 Mg71 1.990 . S
O74 C80 1.253 . S
O75 Mg71 2.117 . S
O75 C81 1.250 . S
C76 O82 1.248 . S
C76 O83 1.264 . S
C77 O63 1.253 . S
C77 O65 1.260 . S
C78 O67 1.279 . S
C78 O68 1.250 1_554 S
C79 O69 1.264 . S
C79 O73 1.248 . S
C80 O70 1.260 . S
C80 O74 1.253 . S
C81 O72 1.279 . S
C81 O75 1.250 . S
O82 Mg64 2.030 . S
O82 C76 1.248 . S
O83 Mg66 2.079 . S
O83 C76 1.264 . S
O84 Mg85 1.990 . S
O84 C98 1.253 . S
Mg85 O84 1.990 . S
Mg85 O88 2.180 . S
Mg85 O89 2.117 1_554 S
Mg85 O103 2.030 . S
O86 Mg87 2.072 . S
O86 C98 1.260 . S
Mg87 O86 2.072 . S
Mg87 O88 2.099 . S
Mg87 O90 2.079 . S
Mg87 O91 2.072 . S
Mg87 O93 2.099 . S
Mg87 O104 2.079 . S
O88 Mg85 2.180 . S
O88 Mg87 2.099 . S
O88 C99 1.279 1_554 S
O89 Mg85 2.117 1_556 S
O89 C99 1.250 . S
O90 Mg87 2.079 . S
O90 C100 1.264 . S
O91 Mg87 2.072 . S
O91 C101 1.260 . S
Mg92 O93 2.180 . S
Mg92 O94 2.030 . S
Mg92 O95 1.990 . S
Mg92 O96 2.117 . S
O93 Mg87 2.099 . S
O93 Mg92 2.180 . S
O93 C102 1.279 . S
O94 Mg92 2.030 . S
O94 C100 1.248 . S
O95 Mg92 1.990 . S
O95 C101 1.253 . S
O96 Mg92 2.117 . S
O96 C102 1.250 . S
C97 O103 1.248 . S
C97 O104 1.264 . S
C98 O84 1.253 . S
C98 O86 1.260 . S
C99 O88 1.279 1_556 S
C99 O89 1.250 . S
C100 O90 1.264 . S
C100 O94 1.248 . S
C101 O91 1.260 . S
C101 O95 1.253 . S
C102 O93 1.279 . S
C102 O96 1.250 . S
O103 Mg85 2.030 . S
O103 C97 1.248 . S
O104 Mg87 2.079 . S
O104 C97 1.264 . S
O105 Mg106 1.990 . S
O105 C119 1.253 . S
Mg106 O105 1.990 . S
Mg106 O109 2.180 . S
Mg106 O110 2.117 1_554 S
Mg106 O124 2.030 . S
O107 Mg108 2.072 . S
O107 C119 1.260 . S
Mg108 O107 2.072 . S
Mg108 O109 2.099 . S
Mg108 O111 2.079 . S
Mg108 O112 2.072 . S
Mg108 O114 2.099 . S
Mg108 O125 2.079 . S
O109 Mg106 2.180 . S
O109 Mg108 2.099 . S
O109 C120 1.279 . S
O110 Mg106 2.117 1_556 S
O110 C120 1.250 1_556 S
O111 Mg108 2.079 . S
O111 C121 1.264 . S
O112 Mg108 2.072 . S
O112 C122 1.260 . S
Mg113 O114 2.180 . S
Mg113 O115 2.030 . S
Mg113 O116 1.990 . S
Mg113 O117 2.117 . S
O114 Mg108 2.099 . S
O114 Mg113 2.180 . S
O114 C123 1.279 . S
O115 Mg113 2.030 . S
O115 C121 1.248 . S
O116 Mg113 1.990 . S
O116 C122 1.253 . S
O117 Mg113 2.117 . S
O117 C123 1.250 . S
C118 O124 1.248 . S
C118 O125 1.264 . S
C119 O105 1.253 . S
C119 O107 1.260 . S
C120 O109 1.279 . S
C120 O110 1.250 1_554 S
C121 O111 1.264 . S
C121 O115 1.248 . S
C122 O112 1.260 . S
C122 O116 1.253 . S
C123 O114 1.279 . S
C123 O117 1.250 . S
O124 Mg106 2.030 . S
O124 C118 1.248 . S
O125 Mg108 2.079 . S
O125 C118 1.264 . S
O126 Mg127 1.990 . S
O126 C140 1.253 . S
Mg127 O126 1.990 . S
Mg127 O130 2.180 . S
Mg127 O131 2.117 1_556 S
Mg127 O145 2.030 . S
O128 Mg129 2.072 . S
O128 C140 1.260 . S
Mg129 O128 2.072 . S
Mg129 O130 2.099 . S
Mg129 O132 2.079 . S
Mg129 O133 2.072 . S
Mg129 O135 2.099 . S
Mg129 O146 2.079 . S
O130 Mg127 2.180 . S
O130 Mg129 2.099 . S
O130 C141 1.279 . S
O131 Mg127 2.117 1_554 S
O131 C141 1.250 1_554 S
O132 Mg129 2.079 . S
O132 C142 1.264 . S
O133 Mg129 2.072 . S
O133 C143 1.260 . S
Mg134 O135 2.180 . S
Mg134 O136 2.030 . S
Mg134 O137 1.990 . S
Mg134 O138 2.117 . S
O135 Mg129 2.099 . S
O135 Mg134 2.180 . S
O135 C144 1.279 . S
O136 Mg134 2.030 . S
O136 C142 1.248 . S
O137 Mg134 1.990 . S
O137 C143 1.253 . S
O138 Mg134 2.117 . S
O138 C144 1.250 . S
C139 O145 1.248 . S
C139 O146 1.264 . S
C140 O126 1.253 . S
C140 O128 1.260 . S
C141 O130 1.279 . S
C141 O131 1.250 1_556 S
C142 O132 1.264 . S
C142 O136 1.248 . S
C143 O133 1.260 . S
C143 O137 1.253 . S
C144 O135 1.279 . S
C144 O138 1.250 . S
O145 Mg127 2.030 . S
O145 C139 1.248 . S
O146 Mg129 2.079 . S
O146 C139 1.264 . S
O147 Mg148 1.990 . S
O147 C161 1.253 . S
Mg148 O147 1.990 . S
Mg148 O151 2.180 . S
Mg148 O152 2.117 . S
Mg148 O166 2.030 . S
O149 Mg150 2.072 . S
O149 C161 1.260 . S
Mg150 O149 2.072 . S
Mg150 O151 2.099 . S
Mg150 O153 2.079 . S
Mg150 O154 2.072 . S
Mg150 O156 2.099 . S
Mg150 O167 2.079 . S
O151 Mg148 2.180 . S
O151 Mg150 2.099 . S
O151 C162 1.279 . S
O152 Mg148 2.117 . S
O152 C162 1.250 . S
O153 Mg150 2.079 . S
O153 C163 1.264 . S
O154 Mg150 2.072 . S
O154 C164 1.260 . S
Mg155 O156 2.180 . S
Mg155 O157 2.030 . S
Mg155 O158 1.990 . S
Mg155 O159 2.117 1_556 S
O156 Mg150 2.099 . S
O156 Mg155 2.180 . S
O156 C165 1.279 1_556 S
O157 Mg155 2.030 . S
O157 C163 1.248 . S
O158 Mg155 1.990 . S
O158 C164 1.253 . S
O159 Mg155 2.117 1_554 S
O159 C165 1.250 . S
C160 O166 1.248 . S
C160 O167 1.264 . S
C161 O147 1.253 . S
C161 O149 1.260 . S
C162 O151 1.279 . S
C162 O152 1.250 . S
C163 O153 1.264 . S
C163 O157 1.248 . S
C164 O154 1.260 . S
C164 O158 1.253 . S
C165 O156 1.279 1_554 S
C165 O159 1.250 . S
O166 Mg148 2.030 . S
O166 C160 1.248 . S
O167 Mg150 2.079 . S
O167 C160 1.264 . S
O168 Mg169 1.990 . S
O168 C182 1.253 . S
Mg169 O168 1.990 . S
Mg169 O172 2.180 . S
Mg169 O173 2.117 1_556 S
Mg169 O187 2.030 . S
O170 Mg171 2.072 . S
O170 C182 1.260 . S
Mg171 O170 2.072 . S
Mg171 O172 2.099 . S
Mg171 O174 2.079 . S
Mg171 O175 2.072 . S
Mg171 O177 2.099 . S
Mg171 O188 2.079 . S
O172 Mg169 2.180 . S
O172 Mg171 2.099 . S
O172 C183 1.279 . S
O173 Mg169 2.117 1_554 S
O173 C183 1.250 1_554 S
O174 Mg171 2.079 . S
O174 C184 1.264 . S
O175 Mg171 2.072 . S
O175 C185 1.260 . S
Mg176 O177 2.180 . S
Mg176 O178 2.030 . S
Mg176 O179 1.990 . S
Mg176 O180 2.117 . S
O177 Mg171 2.099 . S
O177 Mg176 2.180 . S
O177 C186 1.279 . S
O178 Mg176 2.030 . S
O178 C184 1.248 . S
O179 Mg176 1.990 . S
O179 C185 1.253 . S
O180 Mg176 2.117 . S
O180 C186 1.250 . S
C181 O187 1.248 . S
C181 O188 1.264 . S
C182 O168 1.253 . S
C182 O170 1.260 . S
C183 O172 1.279 . S
C183 O173 1.250 1_556 S
C184 O174 1.264 . S
C184 O178 1.248 . S
C185 O175 1.260 . S
C185 O179 1.253 . S
C186 O177 1.279 . S
C186 O180 1.250 . S
O187 Mg169 2.030 . S
O187 C181 1.248 . S
O188 Mg171 2.079 . S
O188 C181 1.264 . S
C189 C190 1.170 . S
C189 C191 1.380 . S
C190 C189 1.170 . S
C191 C189 1.380 . S
C191 C192 1.170 . S
C192 C191 1.170 . S
C193 C194 1.170 1_556 S
C193 C195 1.380 . S
C194 C193 1.170 1_554 S
C195 C193 1.380 . S
C195 C196 1.170 . S
C196 C195 1.170 . S
C197 C198 1.170 . S
C197 C199 1.380 . S
C198 C197 1.170 . S
C199 C197 1.380 . S
C199 C200 1.170 . S
C200 C199 1.170 . S
C201 C202 1.170 . S
C201 C203 1.380 . S
C202 C201 1.170 . S
C203 C201 1.380 . S
C203 C204 1.170 . S
C204 C203 1.170 . S
C205 C206 1.170 . S
C205 C207 1.380 . S
C206 C205 1.170 . S
C207 C205 1.380 . S
C207 C208 1.170 . S
C208 C207 1.170 . S
C209 C210 1.170 . S
C209 C211 1.380 . S
C210 C209 1.170 . S
C211 C209 1.380 . S
C211 C212 1.170 . S
C212 C211 1.170 . S
C213 C214 1.170 . S
C213 C215 1.380 1_455 S
C214 C213 1.170 . S
C215 C213 1.380 1_655 S
C215 C216 1.170 . S
C216 C215 1.170 . S
C217 C218 1.170 . S
C217 C219 1.380 . S
C218 C217 1.170 . S
C219 C217 1.380 . S
C219 C220 1.170 . S
C220 C219 1.170 . S
C221 C222 1.170 . S
C221 C223 1.380 . S
C222 C221 1.170 . S
C223 C221 1.380 . S
C223 C224 1.170 1_545 S
C224 C223 1.170 1_565 S
C225 C226 1.170 . S
C225 C227 1.380 . S
C226 C225 1.170 . S
C227 C225 1.380 . S
C227 C228 1.170 . S
C228 C227 1.170 . S
C229 C230 1.146 1_545 S
C229 C231 1.405 . S
C230 C229 1.146 1_565 S
C231 C229 1.405 . S
C231 C232 1.170 . S
C232 C231 1.170 . S
C233 C234 1.170 . S
C233 C235 1.380 1_655 S
C234 C233 1.170 . S
C235 C233 1.380 1_455 S
C235 C236 1.170 . S
C236 C235 1.170 . S
C237 C238 1.170 . S
C237 C239 1.380 . S
C238 C237 1.170 . S
C239 C237 1.380 . S
C239 C240 1.170 . S
C240 C239 1.170 . S
C241 C242 1.170 . S
C241 C243 1.380 . S
C242 C241 1.170 . S
C243 C241 1.380 . S
C243 C244 1.170 . S
C244 C243 1.170 . S
C245 C246 1.170 . S
C245 C247 1.380 . S
C246 C245 1.170 . S
C247 C245 1.380 . S
C247 C248 1.170 . S
C248 C247 1.170 . S
C249 C250 1.170 . S
C249 C251 1.380 . S
C250 C249 1.170 . S
C251 C249 1.380 . S
C251 C252 1.170 . S
C252 C251 1.170 . S
C253 C254 1.170 . S
C253 C255 1.380 . S
C254 C253 1.170 . S
C255 C253 1.380 . S
C255 C256 1.170 . S
C256 C255 1.170 . S
C257 C258 1.170 . S
C257 C259 1.380 . S
C258 C257 1.170 . S
C259 C257 1.380 . S
C259 C260 1.170 . S
C260 C259 1.170 . S
C261 C262 1.170 . S
C261 C263 1.380 . S
C262 C261 1.170 . S
C263 C261 1.380 . S
C263 C264 1.170 . S
C264 C263 1.170 . S
C265 C266 1.170 . S
C265 C267 1.380 . S
C266 C265 1.170 . S
C267 C265 1.380 . S
C267 C268 1.170 . S
C268 C267 1.170 . S
C269 C270 1.170 . S
C269 C271 1.381 1_545 S
C270 C269 1.170 . S
C271 C269 1.381 1_565 S
C271 C272 1.170 . S
C272 C271 1.170 . S
C273 C274 1.170 . S
C273 C275 1.380 . S
C274 C273 1.170 . S
C275 C273 1.380 . S
C275 C276 1.170 . S
C276 C275 1.170 . S
C277 C278 1.170 . S
C277 C279 1.380 . S
C278 C277 1.170 . S
C279 C277 1.380 . S
C279 C280 1.170 . S
C280 C279 1.170 . S
C281 C282 1.170 . S
C281 C283 1.380 . S
C282 C281 1.170 . S
C283 C281 1.380 . S
C283 C284 1.170 . S
C284 C283 1.170 . S
C285 C286 1.170 . S
C285 C287 1.380 . S
C286 C285 1.170 . S
C287 C285 1.380 . S
C287 C288 1.170 . S
C288 C287 1.170 . S
C289 C290 1.170 . S
C289 C291 1.380 . S
C290 C289 1.170 . S
C291 C289 1.380 . S
C291 C292 1.170 . S
C292 C291 1.170 . S
C293 C294 1.170 . S
C293 C295 1.380 . S
C294 C293 1.170 . S
C295 C293 1.380 . S
C295 C296 1.170 . S
C296 C295 1.170 . S
C190 C14 1.671 1_556 S
C192 C161 1.674 . S
C194 C34 1.378 . S
C196 C181 1.327 . S
C198 C56 1.610 . S
C200 C139 1.431 . S
C202 C97 1.207 . S
C204 C55 1.177 . S
C206 C118 1.238 . S
C208 C13 1.327 . S
C210 C35 1.592 . S
C212 C76 1.414 . S
C214 C160 1.452 . S
C216 C119 1.692 . S
C218 C182 1.772 . S
C220 C77 1.781 . S
C222 C98 1.930 . S
C224 C140 1.949 . S
C226 C58 1.221 . S
C228 C17 1.208 . S
C230 C37 1.218 . S
C232 C16 1.168 . S
C234 C38 1.314 . S
C236 C59 1.299 1_554 S
C238 C79 1.218 . S
C240 C122 1.293 . S
C242 C80 1.344 . S
C244 C100 1.318 . S
C246 C101 1.314 . S
C248 C121 1.268 . S
C250 C184 1.299 . S
C252 C143 1.400 . S
C254 C163 1.252 . S
C256 C142 1.204 . S
C258 C185 1.314 . S
C260 C164 1.331 . S
C262 C18 1.051 . S
C264 C15 0.986 . S
C266 C36 1.023 . S
C268 C39 0.951 . S
C270 C60 1.039 . S
C272 C57 0.947 . S
C274 C81 0.959 . S
C276 C78 1.057 1_556 S
C278 C102 0.986 . S
C280 C99 1.071 . S
C282 C123 1.000 . S
C284 C120 0.937 1_556 S
C286 C144 1.093 . S
C288 C141 1.013 1_554 S
C290 C165 1.083 . S
C292 C162 0.988 . S
C294 C186 1.016 . S
C296 C183 0.938 1_554 S
