# Generated by pormake.
# Topology ict, (4)-cn, num edge types: 1
# Building blocks:
#     Node 0, Type 0, BuildingBlock: GALJAG_clean_sbu_0, # of connection points: 4
#     Node 1, Type 0, BuildingBlock: GALJAG_clean_sbu_0, # of connection points: 4
#     Node 2, Type 0, BuildingBlock: GALJAG_clean_sbu_0, # of connection points: 4
#     Node 3, Type 0, BuildingBlock: GALJAG_clean_sbu_0, # of connection points: 4
#     Node 4, Type 0, BuildingBlock: GALJAG_clean_sbu_0, # of connection points: 4
#     Node 5, Type 0, BuildingBlock: GALJAG_clean_sbu_0, # of connection points: 4
#     Node 6, Type 0, BuildingBlock: GALJAG_clean_sbu_0, # of connection points: 4
#     Node 7, Type 0, BuildingBlock: GALJAG_clean_sbu_0, # of connection points: 4
#     Node 8, Type 0, BuildingBlock: GALJAG_clean_sbu_0, # of connection points: 4
#     Node 9, Type 0, BuildingBlock: GALJAG_clean_sbu_0, # of connection points: 4
#     Node 10, Type 0, BuildingBlock: GALJAG_clean_sbu_0, # of connection points: 4
#     Node 11, Type 0, BuildingBlock: GALJAG_clean_sbu_0, # of connection points: 4
#     Node 12, Type 0, BuildingBlock: GALJAG_clean_sbu_0, # of connection points: 4
#     Node 13, Type 0, BuildingBlock: GALJAG_clean_sbu_0, # of connection points: 4
#     Node 14, Type 0, BuildingBlock: GALJAG_clean_sbu_0, # of connection points: 4
#     Node 15, Type 0, BuildingBlock: GALJAG_clean_sbu_0, # of connection points: 4
#     Node 16, Type 0, BuildingBlock: GALJAG_clean_sbu_0, # of connection points: 4
#     Node 17, Type 0, BuildingBlock: GALJAG_clean_sbu_0, # of connection points: 4
#     Node 18, Type 0, BuildingBlock: GALJAG_clean_sbu_0, # of connection points: 4
#     Node 19, Type 0, BuildingBlock: GALJAG_clean_sbu_0, # of connection points: 4
#     Node 20, Type 0, BuildingBlock: GALJAG_clean_sbu_0, # of connection points: 4
#     Node 21, Type 0, BuildingBlock: GALJAG_clean_sbu_0, # of connection points: 4
#     Node 22, Type 0, BuildingBlock: GALJAG_clean_sbu_0, # of connection points: 4
#     Node 23, Type 0, BuildingBlock: GALJAG_clean_sbu_0, # of connection points: 4
#     Node 24, Type 0, BuildingBlock: GALJAG_clean_sbu_0, # of connection points: 4
#     Node 25, Type 0, BuildingBlock: GALJAG_clean_sbu_0, # of connection points: 4
#     Node 26, Type 0, BuildingBlock: GALJAG_clean_sbu_0, # of connection points: 4
#     Node 27, Type 0, BuildingBlock: GALJAG_clean_sbu_0, # of connection points: 4
#     Node 28, Type 0, BuildingBlock: GALJAG_clean_sbu_0, # of connection points: 4
#     Node 29, Type 0, BuildingBlock: GALJAG_clean_sbu_0, # of connection points: 4
#     Node 30, Type 0, BuildingBlock: GALJAG_clean_sbu_0, # of connection points: 4
#     Node 31, Type 0, BuildingBlock: GALJAG_clean_sbu_0, # of connection points: 4
#     Node 32, Type 0, BuildingBlock: GALJAG_clean_sbu_0, # of connection points: 4
#     Node 33, Type 0, BuildingBlock: GALJAG_clean_sbu_0, # of connection points: 4
#     Node 34, Type 0, BuildingBlock: GALJAG_clean_sbu_0, # of connection points: 4
#     Node 35, Type 0, BuildingBlock: GALJAG_clean_sbu_0, # of connection points: 4
#     Edge 36, Type (0, 0), None
#     Edge 37, Type (0, 0), None
#     Edge 38, Type (0, 0), None
#     Edge 39, Type (0, 0), None
#     Edge 40, Type (0, 0), None
#     Edge 41, Type (0, 0), None
#     Edge 42, Type (0, 0), None
#     Edge 43, Type (0, 0), None
#     Edge 44, Type (0, 0), None
#     Edge 45, Type (0, 0), None
#     Edge 46, Type (0, 0), None
#     Edge 47, Type (0, 0), None
#     Edge 48, Type (0, 0), None
#     Edge 49, Type (0, 0), None
#     Edge 50, Type (0, 0), None
#     Edge 51, Type (0, 0), None
#     Edge 52, Type (0, 0), None
#     Edge 53, Type (0, 0), None
#     Edge 54, Type (0, 0), None
#     Edge 55, Type (0, 0), None
#     Edge 56, Type (0, 0), None
#     Edge 57, Type (0, 0), None
#     Edge 58, Type (0, 0), None
#     Edge 59, Type (0, 0), None
#     Edge 60, Type (0, 0), None
#     Edge 61, Type (0, 0), None
#     Edge 62, Type (0, 0), None
#     Edge 63, Type (0, 0), None
#     Edge 64, Type (0, 0), None
#     Edge 65, Type (0, 0), None
#     Edge 66, Type (0, 0), None
#     Edge 67, Type (0, 0), None
#     Edge 68, Type (0, 0), None
#     Edge 69, Type (0, 0), None
#     Edge 70, Type (0, 0), None
#     Edge 71, Type (0, 0), None
#     Edge 72, Type (0, 0), None
#     Edge 73, Type (0, 0), None
#     Edge 74, Type (0, 0), None
#     Edge 75, Type (0, 0), None
#     Edge 76, Type (0, 0), None
#     Edge 77, Type (0, 0), None
#     Edge 78, Type (0, 0), None
#     Edge 79, Type (0, 0), None
#     Edge 80, Type (0, 0), None
#     Edge 81, Type (0, 0), None
#     Edge 82, Type (0, 0), None
#     Edge 83, Type (0, 0), None
#     Edge 84, Type (0, 0), None
#     Edge 85, Type (0, 0), None
#     Edge 86, Type (0, 0), None
#     Edge 87, Type (0, 0), None
#     Edge 88, Type (0, 0), None
#     Edge 89, Type (0, 0), None
#     Edge 90, Type (0, 0), None
#     Edge 91, Type (0, 0), None
#     Edge 92, Type (0, 0), None
#     Edge 93, Type (0, 0), None
#     Edge 94, Type (0, 0), None
#     Edge 95, Type (0, 0), None
#     Edge 96, Type (0, 0), None
#     Edge 97, Type (0, 0), None
#     Edge 98, Type (0, 0), None
#     Edge 99, Type (0, 0), None
#     Edge 100, Type (0, 0), None
#     Edge 101, Type (0, 0), None
#     Edge 102, Type (0, 0), None
#     Edge 103, Type (0, 0), None
#     Edge 104, Type (0, 0), None
#     Edge 105, Type (0, 0), None
#     Edge 106, Type (0, 0), None
#     Edge 107, Type (0, 0), None
# Relax obj value: 0.053
# Max RMSD: 0.104
# Mean RMSD: 0.104
data_MOF--net-ict--node1-GALJAG_clean_sbu_0--edge1-none
_symmetry_space_group_name_H-M    P1
_symmetry_Int_Tables_number       1
_symmetry_cell_setting            triclinic
loop_
_symmetry_equiv_pos_as_xyz
'x, y, z'
_cell_length_a     30.292845
_cell_length_b     30.293024
_cell_length_c     16.288589
_cell_angle_alpha  89.997644
_cell_angle_beta   90.002515
_cell_angle_gamma 119.99724
loop_
_atom_site_label
_atom_site_type_symbol
_atom_site_fract_x
_atom_site_fract_y
_atom_site_fract_z
_atom_type_partial_charge
In0 In 0.23579 0.21415 0.04244 0.0
O1 O 0.19805 0.13447 0.9876 0.0
O2 O 0.26666 0.15857 0.05413 0.0
C3 C 0.15508 0.22494 0.00292 0.0
C4 C 0.31554 0.27107 0.94379 0.0
C5 C 0.23487 0.22801 0.20591 0.0
O6 O 0.15107 0.18357 0.02653 0.0
O7 O 0.20022 0.26171 0.99736 0.0
O8 O 0.26704 0.26302 0.16033 0.0
O9 O 0.20516 0.18713 0.16973 0.0
C10 C 0.23076 0.12378 0.01341 0.0
O11 O 0.3199 0.27101 0.02091 0.0
O12 O 0.27078 0.24414 0.91664 0.0
In13 In 0.79317 0.0231 0.04245 0.0
O14 O 0.7363 0.05035 0.0209 0.0
O15 O 0.7632 0.02812 0.91663 0.0
C16 C 0.7793 0.00833 0.20592 0.0
C17 C 0.88354 0.10845 0.01343 0.0
C18 C 0.78238 0.93161 0.00292 0.0
O19 O 0.7443 0.00549 0.16033 0.0
O20 O 0.82019 0.01949 0.16974 0.0
O21 O 0.82374 0.96896 0.02653 0.0
O22 O 0.74561 0.93998 0.99737 0.0
C23 C 0.73625 0.04594 0.94378 0.0
O24 O 0.87286 0.06505 0.98763 0.0
O25 O 0.84873 0.10955 0.05413 0.0
In26 In 0.98422 0.77153 0.04243 0.0
O27 O 0.94226 0.80927 0.98759 0.0
O28 O 0.89777 0.74066 0.05412 0.0
C29 C 0.0757 0.85223 0.0029 0.0
C30 C 0.96138 0.69178 0.94377 0.0
C31 C 0.99899 0.77245 0.2059 0.0
O32 O 0.03835 0.85624 0.0265 0.0
O33 O 0.06735 0.8071 0.99736 0.0
O34 O 1.00183 0.74028 0.16032 0.0
O35 O 0.98783 0.80216 0.16971 0.0
C36 C 0.89887 0.77656 0.0134 0.0
O37 O 0.95698 0.68742 0.02089 0.0
O38 O 0.97919 0.73654 0.91662 0.0
In39 In 0.21561 0.23433 0.45734 0.0
O40 O 0.27247 0.31844 0.47888 0.0
O41 O 0.24559 0.26932 0.58315 0.0
C42 C 0.22949 0.2334 0.29388 0.0
C43 C 0.12524 0.2293 0.48636 0.0
C44 C 0.2264 0.15362 0.49688 0.0
O45 O 0.26448 0.26559 0.33946 0.0
O46 O 0.18861 0.20368 0.33007 0.0
O47 O 0.18503 0.14962 0.47327 0.0
O48 O 0.26317 0.19876 0.50243 0.0
C49 C 0.27253 0.31408 0.556 0.0
O50 O 0.13593 0.19659 0.51218 0.0
O51 O 0.16003 0.2652 0.44564 0.0
In52 In 0.77299 0.98276 0.45736 0.0
O53 O 0.81072 0.9408 0.51218 0.0
O54 O 0.74212 0.89631 0.44564 0.0
C55 C 0.85369 0.07424 0.4969 0.0
C56 C 0.69324 0.95992 0.55602 0.0
C57 C 0.77392 0.99756 0.29389 0.0
O58 O 0.8577 0.03688 0.47331 0.0
O59 O 0.80856 0.06588 0.50243 0.0
O60 O 0.74173 1.00036 0.33946 0.0
O61 O 0.80365 0.9864 0.33008 0.0
C62 C 0.77801 0.8974 0.48636 0.0
O63 O 0.68888 0.95552 0.4789 0.0
O64 O 0.738 0.97773 0.58317 0.0
In65 In 0.02457 0.79171 0.45733 0.0
O66 O 0.06652 0.8714 0.51215 0.0
O67 O 0.11101 0.84728 0.44564 0.0
C68 C 0.93307 0.78092 0.49687 0.0
C69 C 0.0474 0.7348 0.55601 0.0
C70 C 0.00976 0.77784 0.29387 0.0
O71 O 0.97043 0.82228 0.47327 0.0
O72 O 0.94144 0.74415 0.50242 0.0
O73 O 0.00697 0.74284 0.33945 0.0
O74 O 0.02091 0.81871 0.33006 0.0
C75 C 0.10991 0.88208 0.48634 0.0
O76 O 0.05181 0.73484 0.47889 0.0
O77 O 0.02959 0.76174 0.58315 0.0
In78 In 0.77299 0.79171 0.95733 0.0
O79 O 0.68888 0.73485 0.97887 0.0
O80 O 0.738 0.76172 0.08314 0.0
C81 C 0.7739 0.77784 0.79387 0.0
C82 C 0.77801 0.88208 0.98637 0.0
C83 C 0.85369 0.78091 0.99685 0.0
O84 O 0.74173 0.74283 0.83945 0.0
O85 O 0.80361 0.81872 0.83005 0.0
O86 O 0.8577 0.82228 0.97324 0.0
O87 O 0.80856 0.74415 0.00242 0.0
C88 C 0.69323 0.73479 0.05599 0.0
O89 O 0.81072 0.87139 0.01218 0.0
O90 O 0.74212 0.84728 0.94565 0.0
In91 In 0.2156 0.98275 0.95733 0.0
O92 O 0.27247 0.95551 0.97888 0.0
O93 O 0.24558 0.97773 0.08315 0.0
C94 C 0.22947 0.99753 0.79386 0.0
C95 C 0.12523 0.8974 0.98635 0.0
C96 C 0.2264 0.07425 0.99684 0.0
O97 O 0.26448 1.00036 0.83945 0.0
O98 O 0.18859 0.98636 0.83004 0.0
O99 O 0.18503 0.03689 0.97324 0.0
O100 O 0.26317 0.06588 0.00241 0.0
C101 C 0.27252 0.95991 0.056 0.0
O102 O 0.13592 0.9408 0.01215 0.0
O103 O 0.16004 0.89631 0.94565 0.0
In104 In 0.02456 0.23432 0.95735 0.0
O105 O 0.05179 0.31843 0.97889 0.0
O106 O 0.02958 0.26931 0.08316 0.0
C107 C 0.00978 0.23341 0.79388 0.0
C108 C 0.10991 0.2293 0.98637 0.0
C109 C 0.93307 0.15362 0.99687 0.0
O110 O 0.00694 0.26558 0.83946 0.0
O111 O 0.02095 0.20369 0.83007 0.0
O112 O 0.97043 0.14961 0.97328 0.0
O113 O 0.94143 0.19875 0.00242 0.0
C114 C 0.0474 0.31407 0.05601 0.0
O115 O 0.06651 0.19659 0.01218 0.0
O116 O 0.111 0.2652 0.94566 0.0
In117 In 0.79317 0.77153 0.54244 0.0
O118 O 0.7363 0.68742 0.5209 0.0
O119 O 0.76318 0.73654 0.41663 0.0
C120 C 0.77929 0.77245 0.7059 0.0
C121 C 0.88354 0.77655 0.51343 0.0
C122 C 0.78237 0.85223 0.50291 0.0
O123 O 0.7443 0.74027 0.66032 0.0
O124 O 0.82017 0.80217 0.66971 0.0
O125 O 0.82374 0.85624 0.52651 0.0
O126 O 0.7456 0.8071 0.49735 0.0
C127 C 0.73625 0.69177 0.44378 0.0
O128 O 0.87285 0.80926 0.4876 0.0
O129 O 0.84874 0.74066 0.55414 0.0
In130 In 0.23578 0.0231 0.54243 0.0
O131 O 0.31989 0.05033 0.52088 0.0
O132 O 0.27077 0.02813 0.41661 0.0
C133 C 0.23486 0.0083 0.70589 0.0
C134 C 0.23076 0.10845 0.51343 0.0
C135 C 0.15508 0.93161 0.50289 0.0
O136 O 0.26705 0.0055 0.66032 0.0
O137 O 0.20513 0.01945 0.6697 0.0
O138 O 0.15107 0.96897 0.52648 0.0
O139 O 0.20022 0.93997 0.49735 0.0
C140 C 0.31553 0.04594 0.44376 0.0
O141 O 0.19805 0.06506 0.4876 0.0
O142 O 0.26666 0.10954 0.55414 0.0
In143 In 0.98421 0.21414 0.54245 0.0
O144 O 0.94226 0.13446 0.48763 0.0
O145 O 0.89777 0.15858 0.55415 0.0
C146 C 0.0757 0.22494 0.50292 0.0
C147 C 0.96137 0.27106 0.44377 0.0
C148 C 0.99901 0.22802 0.70591 0.0
O149 O 0.03835 0.18357 0.52652 0.0
O150 O 0.06734 0.26171 0.49736 0.0
O151 O 1.00181 0.26301 0.66033 0.0
O152 O 0.98786 0.18714 0.66972 0.0
C153 C 0.89886 0.12377 0.51345 0.0
O154 O 0.95697 0.27102 0.52089 0.0
O155 O 0.97919 0.24411 0.41663 0.0
In156 In 0.90245 0.54748 0.37578 0.0
O157 O 0.98657 0.60434 0.35424 0.0
O158 O 0.93745 0.57747 0.24997 0.0
C159 C 0.90154 0.56135 0.53924 0.0
C160 C 0.89743 0.45711 0.34674 0.0
C161 C 0.82175 0.55827 0.33625 0.0
O162 O 0.93371 0.59635 0.49366 0.0
O163 O 0.87183 0.52046 0.50306 0.0
O164 O 0.81774 0.5169 0.35986 0.0
O165 O 0.86688 0.59504 0.3307 0.0
C166 C 0.98221 0.6044 0.27712 0.0
O167 O 0.86472 0.4678 0.32093 0.0
O168 O 0.93332 0.4919 0.38746 0.0
In169 In 0.45984 0.35644 0.37578 0.0
O170 O 0.40297 0.38369 0.35423 0.0
O171 O 0.42986 0.36146 0.24997 0.0
C172 C 0.44597 0.34166 0.53925 0.0
C173 C 0.55021 0.44178 0.34676 0.0
C174 C 0.44904 0.26495 0.33626 0.0
O175 O 0.41097 0.33883 0.49367 0.0
O176 O 0.48685 0.35282 0.50307 0.0
O177 O 0.49041 0.3023 0.35987 0.0
O178 O 0.41227 0.27331 0.3307 0.0
C179 C 0.40292 0.37928 0.27711 0.0
O180 O 0.53952 0.39839 0.32096 0.0
O181 O 0.5154 0.44288 0.38746 0.0
In182 In 0.65088 0.10487 0.37576 0.0
O183 O 0.62364 0.02076 0.35422 0.0
O184 O 0.64586 0.06987 0.24995 0.0
C185 C 0.66566 0.10578 0.53923 0.0
C186 C 0.56553 0.10989 0.34674 0.0
C187 C 0.74237 0.18557 0.33623 0.0
O188 O 0.6685 0.07361 0.49365 0.0
O189 O 0.65449 0.1355 0.50304 0.0
O190 O 0.70501 0.18958 0.35983 0.0
O191 O 0.73401 0.14043 0.33069 0.0
C192 C 0.62804 0.02511 0.2771 0.0
O193 O 0.60893 0.1426 0.32092 0.0
O194 O 0.56444 0.07399 0.38746 0.0
In195 In 0.88227 0.56766 0.79068 0.0
O196 O 0.93914 0.65177 0.81221 0.0
O197 O 0.91226 0.60265 0.91649 0.0
C198 C 0.89615 0.56673 0.62721 0.0
C199 C 0.7919 0.56263 0.81969 0.0
C200 C 0.89307 0.48696 0.83021 0.0
O201 O 0.93115 0.59892 0.67279 0.0
O202 O 0.85527 0.53702 0.6634 0.0
O203 O 0.8517 0.48295 0.8066 0.0
O204 O 0.92984 0.53209 0.83577 0.0
C205 C 0.93918 0.64741 0.88933 0.0
O206 O 0.80259 0.52993 0.84551 0.0
O207 O 0.8267 0.59853 0.77897 0.0
In208 In 0.43966 0.31609 0.79069 0.0
O209 O 0.35555 0.28885 0.81223 0.0
O210 O 0.40467 0.31106 0.91651 0.0
C211 C 0.44059 0.33089 0.62722 0.0
C212 C 0.44468 0.23074 0.81969 0.0
C213 C 0.52036 0.40757 0.83023 0.0
O214 O 0.4084 0.33369 0.6728 0.0
O215 O 0.47031 0.31973 0.66342 0.0
O216 O 0.52437 0.37022 0.80664 0.0
O217 O 0.47522 0.39922 0.83577 0.0
C218 C 0.35991 0.29323 0.88935 0.0
O219 O 0.47739 0.27413 0.84551 0.0
O220 O 0.40879 0.22965 0.77898 0.0
In221 In 0.69123 0.12505 0.79067 0.0
O222 O 0.71848 0.06817 0.81222 0.0
O223 O 0.69626 0.09508 0.91649 0.0
C224 C 0.67643 0.11117 0.6272 0.0
C225 C 0.77658 0.21542 0.81967 0.0
C226 C 0.59974 0.11425 0.83021 0.0
O227 O 0.67363 0.07618 0.67278 0.0
O228 O 0.68758 0.15205 0.66339 0.0
O229 O 0.63709 0.15562 0.8066 0.0
O230 O 0.60811 0.07748 0.83576 0.0
C231 C 0.71409 0.06815 0.88934 0.0
O232 O 0.73318 0.20473 0.84548 0.0
O233 O 0.77768 0.18061 0.77897 0.0
In234 In 0.43965 0.12504 0.29067 0.0
O235 O 0.35554 0.06818 0.3122 0.0
O236 O 0.40466 0.09506 0.41648 0.0
C237 C 0.44057 0.11117 0.1272 0.0
C238 C 0.44468 0.21541 0.3197 0.0
C239 C 0.52036 0.11425 0.33018 0.0
O240 O 0.4084 0.07617 0.17279 0.0
O241 O 0.47027 0.15206 0.16338 0.0
O242 O 0.52437 0.15561 0.30657 0.0
O243 O 0.47522 0.07748 0.33576 0.0
C244 C 0.3599 0.06814 0.38932 0.0
O245 O 0.47739 0.20472 0.34551 0.0
O246 O 0.40878 0.18062 0.27898 0.0
In247 In 0.88227 0.31608 0.29066 0.0
O248 O 0.93914 0.28884 0.31221 0.0
O249 O 0.91224 0.31106 0.41648 0.0
C250 C 0.89614 0.33086 0.12719 0.0
C251 C 0.7919 0.23074 0.31968 0.0
C252 C 0.89307 0.40758 0.33018 0.0
O253 O 0.93114 0.3337 0.17278 0.0
O254 O 0.85525 0.31969 0.16338 0.0
O255 O 0.8517 0.37023 0.30657 0.0
O256 O 0.92983 0.39921 0.33575 0.0
C257 C 0.93917 0.29322 0.38933 0.0
O258 O 0.80258 0.27414 0.34548 0.0
O259 O 0.82671 0.22964 0.27898 0.0
In260 In 0.69123 0.56765 0.29068 0.0
O261 O 0.71846 0.65177 0.31222 0.0
O262 O 0.69625 0.60265 0.4165 0.0
C263 C 0.67645 0.56674 0.12721 0.0
C264 C 0.77658 0.56263 0.3197 0.0
C265 C 0.59974 0.48695 0.3302 0.0
O266 O 0.67361 0.59891 0.1728 0.0
O267 O 0.68762 0.53703 0.1634 0.0
O268 O 0.63709 0.48294 0.3066 0.0
O269 O 0.6081 0.53209 0.33576 0.0
C270 C 0.71408 0.64741 0.38934 0.0
O271 O 0.73318 0.52992 0.34552 0.0
O272 O 0.77767 0.59853 0.27899 0.0
In273 In 0.45983 0.10486 0.87577 0.0
O274 O 0.40297 0.02075 0.85423 0.0
O275 O 0.42985 0.06987 0.74996 0.0
C276 C 0.44595 0.10579 0.03923 0.0
C277 C 0.55021 0.10989 0.84676 0.0
C278 C 0.44904 0.18556 0.83624 0.0
O279 O 0.41096 0.0736 0.99365 0.0
O280 O 0.48683 0.13551 0.00305 0.0
O281 O 0.49041 0.18957 0.85984 0.0
O282 O 0.41227 0.14043 0.83069 0.0
C283 C 0.40292 0.02511 0.77711 0.0
O284 O 0.53951 0.14259 0.82093 0.0
O285 O 0.51541 0.07399 0.88748 0.0
In286 In 0.90245 0.35643 0.87576 0.0
O287 O 0.98656 0.38367 0.85421 0.0
O288 O 0.93744 0.36146 0.74994 0.0
C289 C 0.90152 0.34163 0.03922 0.0
C290 C 0.89743 0.44179 0.84676 0.0
C291 C 0.82175 0.26495 0.83623 0.0
O292 O 0.93372 0.33883 0.99365 0.0
O293 O 0.87179 0.35278 0.00303 0.0
O294 O 0.81774 0.3023 0.85981 0.0
O295 O 0.86689 0.2733 0.83069 0.0
C296 C 0.9822 0.37927 0.77709 0.0
O297 O 0.86472 0.39839 0.82093 0.0
O298 O 0.93332 0.44287 0.88748 0.0
In299 In 0.65087 0.54748 0.87578 0.0
O300 O 0.60892 0.46779 0.82097 0.0
O301 O 0.56443 0.49191 0.88748 0.0
C302 C 0.74237 0.55827 0.83625 0.0
C303 C 0.62804 0.60439 0.77711 0.0
C304 C 0.66568 0.56135 0.03924 0.0
O305 O 0.70502 0.5169 0.85985 0.0
O306 O 0.734 0.59504 0.8307 0.0
O307 O 0.66847 0.59634 0.99366 0.0
O308 O 0.65453 0.52048 0.00306 0.0
C309 C 0.56553 0.4571 0.84678 0.0
O310 O 0.62363 0.60435 0.85422 0.0
O311 O 0.64585 0.57745 0.74996 0.0
In312 In 0.56912 0.88081 0.70911 0.0
O313 O 0.65324 0.93767 0.68758 0.0
O314 O 0.60411 0.9108 0.5833 0.0
C315 C 0.56821 0.89468 0.87258 0.0
C316 C 0.56409 0.79044 0.68008 0.0
C317 C 0.48842 0.8916 0.66959 0.0
O318 O 0.60037 0.92968 0.82699 0.0
O319 O 0.5385 0.8538 0.83639 0.0
O320 O 0.48441 0.85024 0.6932 0.0
O321 O 0.53355 0.92837 0.66402 0.0
C322 C 0.64888 0.93771 0.61046 0.0
O323 O 0.53139 0.80113 0.65426 0.0
O324 O 0.59999 0.82524 0.7208 0.0
In325 In 0.12651 0.68977 0.70912 0.0
O326 O 0.06964 0.71702 0.68757 0.0
O327 O 0.09653 0.6948 0.5833 0.0
C328 C 0.11264 0.67499 0.87259 0.0
C329 C 0.21688 0.77512 0.68009 0.0
C330 C 0.11571 0.59828 0.66959 0.0
O331 O 0.07763 0.67216 0.827 0.0
O332 O 0.15352 0.68616 0.8364 0.0
O333 O 0.15708 0.63563 0.69321 0.0
O334 O 0.07894 0.60665 0.66403 0.0
C335 C 0.06961 0.71263 0.61045 0.0
O336 O 0.20619 0.73172 0.65429 0.0
O337 O 0.18207 0.77622 0.7208 0.0
In338 In 0.31755 0.4382 0.7091 0.0
O339 O 0.29031 0.35409 0.68756 0.0
O340 O 0.31252 0.40321 0.58328 0.0
C341 C 0.33233 0.43911 0.87257 0.0
C342 C 0.2322 0.44322 0.68007 0.0
C343 C 0.40903 0.5189 0.66957 0.0
O344 O 0.33517 0.40695 0.82698 0.0
O345 O 0.32116 0.46883 0.83637 0.0
O346 O 0.37168 0.52291 0.69317 0.0
O347 O 0.40067 0.47376 0.66402 0.0
C348 C 0.29469 0.35845 0.61044 0.0
O349 O 0.27559 0.47593 0.65426 0.0
O350 O 0.2311 0.40733 0.72079 0.0
In351 In 0.54894 0.90099 0.12401 0.0
O352 O 0.46926 0.86326 0.17885 0.0
O353 O 0.49336 0.93186 0.1123 0.0
C354 C 0.55973 0.82029 0.16355 0.0
C355 C 0.60584 0.98075 0.22266 0.0
C356 C 0.56282 0.90007 0.96055 0.0
O357 O 0.51837 0.81628 0.13994 0.0
O358 O 0.5965 0.86543 0.1691 0.0
O359 O 0.59781 0.93225 0.00613 0.0
O360 O 0.52194 0.87035 0.99673 0.0
C361 C 0.45857 0.89597 0.15303 0.0
O362 O 0.6058 0.98511 0.14554 0.0
O363 O 0.57892 0.93599 0.24982 0.0
In364 In 0.10633 0.64942 0.12402 0.0
O365 O 0.14406 0.60746 0.17885 0.0
O366 O 0.07545 0.56298 0.11231 0.0
C367 C 0.18702 0.74091 0.16356 0.0
C368 C 0.02657 0.62656 0.22268 0.0
C369 C 0.10725 0.66422 0.96056 0.0
O370 O 0.19103 0.70355 0.13997 0.0
O371 O 0.14189 0.73255 0.1691 0.0
O372 O 0.07506 0.66702 0.00613 0.0
O373 O 0.13698 0.65307 0.99675 0.0
C374 C 0.11135 0.56407 0.15302 0.0
O375 O 0.02222 0.62219 0.14556 0.0
O376 O 0.07134 0.64439 0.24984 0.0
In377 In 0.3579 0.45838 0.124 0.0
O378 O 0.39985 0.53807 0.17881 0.0
O379 O 0.44434 0.51395 0.1123 0.0
C380 C 0.26641 0.44758 0.16354 0.0
C381 C 0.38076 0.40148 0.22267 0.0
C382 C 0.3431 0.4445 0.96054 0.0
O383 O 0.30376 0.48895 0.13993 0.0
O384 O 0.27478 0.41081 0.16909 0.0
O385 O 0.3403 0.40951 0.00612 0.0
O386 O 0.35425 0.48538 0.99672 0.0
C387 C 0.44325 0.54875 0.153 0.0
O388 O 0.38514 0.40151 0.14555 0.0
O389 O 0.36293 0.42841 0.24982 0.0
In390 In 0.10632 0.45838 0.624 0.0
O391 O 0.02221 0.40151 0.64553 0.0
O392 O 0.07133 0.42839 0.74981 0.0
C393 C 0.10723 0.44451 0.46053 0.0
C394 C 0.11135 0.54875 0.65303 0.0
C395 C 0.18702 0.44758 0.66351 0.0
O396 O 0.07507 0.4095 0.50612 0.0
O397 O 0.13694 0.48539 0.49672 0.0
O398 O 0.19103 0.48895 0.6399 0.0
O399 O 0.14189 0.41082 0.66909 0.0
C400 C 0.02657 0.40148 0.72265 0.0
O401 O 0.14406 0.53805 0.67885 0.0
O402 O 0.07545 0.51395 0.61231 0.0
In403 In 0.54893 0.64941 0.62399 0.0
O404 O 0.46925 0.60747 0.67882 0.0
O405 O 0.49337 0.56297 0.61231 0.0
C406 C 0.55973 0.74091 0.66351 0.0
C407 C 0.60583 0.62655 0.72266 0.0
C408 C 0.5628 0.66419 0.46053 0.0
O409 O 0.51837 0.70356 0.6399 0.0
O410 O 0.5965 0.73254 0.66908 0.0
O411 O 0.59781 0.66703 0.50612 0.0
O412 O 0.52192 0.65303 0.49671 0.0
C413 C 0.45856 0.56407 0.65301 0.0
O414 O 0.60581 0.62217 0.64554 0.0
O415 O 0.5789 0.64439 0.74981 0.0
In416 In 0.3579 0.90099 0.62402 0.0
O417 O 0.39985 0.86325 0.67885 0.0
O418 O 0.44434 0.93186 0.61232 0.0
C419 C 0.2664 0.82029 0.66353 0.0
C420 C 0.38075 0.98074 0.72267 0.0
C421 C 0.34312 0.90007 0.46055 0.0
O422 O 0.30376 0.81628 0.63994 0.0
O423 O 0.27477 0.86542 0.66909 0.0
O424 O 0.34028 0.93224 0.50613 0.0
O425 O 0.35428 0.87036 0.49674 0.0
C426 C 0.44325 0.89596 0.65303 0.0
O427 O 0.38513 0.9851 0.64555 0.0
O428 O 0.36292 0.93598 0.74983 0.0
In429 In 0.1265 0.43819 0.20911 0.0
O430 O 0.06964 0.35408 0.18757 0.0
O431 O 0.09652 0.4032 0.08329 0.0
C432 C 0.11262 0.43912 0.37257 0.0
C433 C 0.21688 0.44322 0.18009 0.0
C434 C 0.11571 0.51889 0.16958 0.0
O435 O 0.07763 0.40693 0.32699 0.0
O436 O 0.1535 0.46884 0.33638 0.0
O437 O 0.15707 0.5229 0.19318 0.0
O438 O 0.07894 0.47376 0.16401 0.0
C439 C 0.0696 0.35844 0.11045 0.0
O440 O 0.20618 0.47593 0.15427 0.0
O441 O 0.18208 0.40733 0.22081 0.0
In442 In 0.56912 0.68977 0.20909 0.0
O443 O 0.53139 0.73173 0.15427 0.0
O444 O 0.59999 0.77621 0.22081 0.0
C445 C 0.48842 0.59828 0.16956 0.0
C446 C 0.64887 0.71262 0.11043 0.0
C447 C 0.56819 0.67496 0.37256 0.0
O448 O 0.48441 0.63564 0.19315 0.0
O449 O 0.53355 0.60664 0.16402 0.0
O450 O 0.60038 0.67216 0.32698 0.0
O451 O 0.53846 0.68612 0.33636 0.0
C452 C 0.56409 0.77512 0.1801 0.0
O453 O 0.65323 0.717 0.18755 0.0
O454 O 0.60411 0.6948 0.08327 0.0
In455 In 0.31754 0.88081 0.20911 0.0
O456 O 0.2903 0.93768 0.18757 0.0
O457 O 0.31252 0.91078 0.08329 0.0
C458 C 0.33234 0.89469 0.37258 0.0
C459 C 0.23219 0.79044 0.18011 0.0
C460 C 0.40903 0.89161 0.16959 0.0
O461 O 0.33514 0.92968 0.327 0.0
O462 O 0.32119 0.85381 0.33639 0.0
O463 O 0.37168 0.85024 0.19319 0.0
O464 O 0.40066 0.92837 0.16402 0.0
C465 C 0.29468 0.93771 0.11045 0.0
O466 O 0.27559 0.80112 0.1543 0.0
O467 O 0.2311 0.82524 0.22082 0.0
loop_
_geom_bond_atom_site_label_1
_geom_bond_atom_site_label_2
_geom_bond_distance
_geom_bond_site_symmetry_2
_ccdc_geom_bond_type
In0 O1 2.294 1_554 S
In0 O2 2.326 . S
In0 O6 2.266 . S
In0 O7 2.326 . S
In0 O8 2.266 . S
In0 O9 2.326 . S
In0 O11 2.294 . S
In0 O12 2.326 1_554 S
O1 In0 2.294 1_556 S
O1 C10 1.240 1_556 S
O2 In0 2.326 . S
O2 C10 1.252 . S
C3 O6 1.252 . S
C3 O7 1.260 . S
C4 O11 1.240 1_556 S
C4 O12 1.252 . S
C5 O8 1.252 . S
C5 O9 1.260 . S
O6 In0 2.266 . S
O6 C3 1.252 . S
O7 In0 2.326 . S
O7 C3 1.260 . S
O8 In0 2.266 . S
O8 C5 1.252 . S
O9 In0 2.326 . S
O9 C5 1.260 . S
C10 O1 1.240 1_554 S
C10 O2 1.252 . S
O11 In0 2.294 . S
O11 C4 1.240 1_554 S
O12 In0 2.326 1_556 S
O12 C4 1.252 . S
In13 O14 2.294 . S
In13 O15 2.326 1_554 S
In13 O19 2.266 . S
In13 O20 2.326 . S
In13 O21 2.266 1_545 S
In13 O22 2.326 1_545 S
In13 O24 2.294 1_554 S
In13 O25 2.326 . S
O14 In13 2.294 . S
O14 C23 1.240 1_554 S
O15 In13 2.326 1_556 S
O15 C23 1.252 . S
C16 O19 1.252 . S
C16 O20 1.260 . S
C17 O24 1.240 1_554 S
C17 O25 1.252 . S
C18 O21 1.252 . S
C18 O22 1.260 . S
O19 In13 2.266 . S
O19 C16 1.252 . S
O20 In13 2.326 . S
O20 C16 1.260 . S
O21 In13 2.266 1_565 S
O21 C18 1.252 . S
O22 In13 2.326 1_565 S
O22 C18 1.260 . S
C23 O14 1.240 1_556 S
C23 O15 1.252 . S
O24 In13 2.294 1_556 S
O24 C17 1.240 1_556 S
O25 In13 2.326 . S
O25 C17 1.252 . S
In26 O27 2.294 1_554 S
In26 O28 2.326 . S
In26 O32 2.266 1_655 S
In26 O33 2.326 1_655 S
In26 O34 2.266 . S
In26 O35 2.326 . S
In26 O37 2.294 . S
In26 O38 2.326 1_554 S
O27 In26 2.294 1_556 S
O27 C36 1.240 1_556 S
O28 In26 2.326 . S
O28 C36 1.252 . S
C29 O32 1.252 . S
C29 O33 1.260 . S
C30 O37 1.240 1_556 S
C30 O38 1.252 . S
C31 O34 1.252 . S
C31 O35 1.260 . S
O32 In26 2.266 1_455 S
O32 C29 1.252 . S
O33 In26 2.326 1_455 S
O33 C29 1.260 . S
O34 In26 2.266 . S
O34 C31 1.252 . S
O35 In26 2.326 . S
O35 C31 1.260 . S
C36 O27 1.240 1_554 S
C36 O28 1.252 . S
O37 In26 2.294 . S
O37 C30 1.240 1_554 S
O38 In26 2.326 1_556 S
O38 C30 1.252 . S
In39 O40 2.294 . S
In39 O41 2.326 . S
In39 O45 2.266 . S
In39 O46 2.326 . S
In39 O47 2.266 . S
In39 O48 2.326 . S
In39 O50 2.294 . S
In39 O51 2.326 . S
O40 In39 2.294 . S
O40 C49 1.240 . S
O41 In39 2.326 . S
O41 C49 1.252 . S
C42 O45 1.252 . S
C42 O46 1.260 . S
C43 O50 1.240 . S
C43 O51 1.252 . S
C44 O47 1.252 . S
C44 O48 1.260 . S
O45 In39 2.266 . S
O45 C42 1.252 . S
O46 In39 2.326 . S
O46 C42 1.260 . S
O47 In39 2.266 . S
O47 C44 1.252 . S
O48 In39 2.326 . S
O48 C44 1.260 . S
C49 O40 1.240 . S
C49 O41 1.252 . S
O50 In39 2.294 . S
O50 C43 1.240 . S
O51 In39 2.326 . S
O51 C43 1.252 . S
In52 O53 2.294 . S
In52 O54 2.326 . S
In52 O58 2.266 1_565 S
In52 O59 2.326 1_565 S
In52 O60 2.266 . S
In52 O61 2.326 . S
In52 O63 2.294 . S
In52 O64 2.326 . S
O53 In52 2.294 . S
O53 C62 1.240 . S
O54 In52 2.326 . S
O54 C62 1.252 . S
C55 O58 1.252 . S
C55 O59 1.260 . S
C56 O63 1.240 . S
C56 O64 1.252 . S
C57 O60 1.252 . S
C57 O61 1.260 . S
O58 In52 2.266 1_545 S
O58 C55 1.252 . S
O59 In52 2.326 1_545 S
O59 C55 1.260 . S
O60 In52 2.266 . S
O60 C57 1.252 . S
O61 In52 2.326 . S
O61 C57 1.260 . S
C62 O53 1.240 . S
C62 O54 1.252 . S
O63 In52 2.294 . S
O63 C56 1.240 . S
O64 In52 2.326 . S
O64 C56 1.252 . S
In65 O66 2.294 . S
In65 O67 2.326 . S
In65 O71 2.266 1_455 S
In65 O72 2.326 1_455 S
In65 O73 2.266 . S
In65 O74 2.326 . S
In65 O76 2.294 . S
In65 O77 2.326 . S
O66 In65 2.294 . S
O66 C75 1.240 . S
O67 In65 2.326 . S
O67 C75 1.252 . S
C68 O71 1.252 . S
C68 O72 1.260 . S
C69 O76 1.240 . S
C69 O77 1.252 . S
C70 O73 1.252 . S
C70 O74 1.260 . S
O71 In65 2.266 1_655 S
O71 C68 1.252 . S
O72 In65 2.326 1_655 S
O72 C68 1.260 . S
O73 In65 2.266 . S
O73 C70 1.252 . S
O74 In65 2.326 . S
O74 C70 1.260 . S
C75 O66 1.240 . S
C75 O67 1.252 . S
O76 In65 2.294 . S
O76 C69 1.240 . S
O77 In65 2.326 . S
O77 C69 1.252 . S
In78 O79 2.294 . S
In78 O80 2.326 1_556 S
In78 O84 2.266 . S
In78 O85 2.326 . S
In78 O86 2.266 . S
In78 O87 2.326 . S
In78 O89 2.294 1_556 S
In78 O90 2.326 . S
O79 In78 2.294 . S
O79 C88 1.240 1_556 S
O80 In78 2.326 1_554 S
O80 C88 1.252 . S
C81 O84 1.252 . S
C81 O85 1.260 . S
C82 O89 1.240 1_556 S
C82 O90 1.252 . S
C83 O86 1.252 . S
C83 O87 1.260 . S
O84 In78 2.266 . S
O84 C81 1.252 . S
O85 In78 2.326 . S
O85 C81 1.260 . S
O86 In78 2.266 . S
O86 C83 1.252 . S
O87 In78 2.326 . S
O87 C83 1.260 . S
C88 O79 1.240 1_554 S
C88 O80 1.252 . S
O89 In78 2.294 1_554 S
O89 C82 1.240 1_554 S
O90 In78 2.326 . S
O90 C82 1.252 . S
In91 O92 2.294 . S
In91 O93 2.326 1_556 S
In91 O97 2.266 . S
In91 O98 2.326 . S
In91 O99 2.266 1_565 S
In91 O100 2.326 1_565 S
In91 O102 2.294 1_556 S
In91 O103 2.326 . S
O92 In91 2.294 . S
O92 C101 1.240 1_556 S
O93 In91 2.326 1_554 S
O93 C101 1.252 . S
C94 O97 1.252 . S
C94 O98 1.260 . S
C95 O102 1.240 1_556 S
C95 O103 1.252 . S
C96 O99 1.252 . S
C96 O100 1.260 . S
O97 In91 2.266 . S
O97 C94 1.252 . S
O98 In91 2.326 . S
O98 C94 1.260 . S
O99 In91 2.266 1_545 S
O99 C96 1.252 . S
O100 In91 2.326 1_545 S
O100 C96 1.260 . S
C101 O92 1.240 1_554 S
C101 O93 1.252 . S
O102 In91 2.294 1_554 S
O102 C95 1.240 1_554 S
O103 In91 2.326 . S
O103 C95 1.252 . S
In104 O105 2.294 . S
In104 O106 2.326 1_556 S
In104 O110 2.266 . S
In104 O111 2.326 . S
In104 O112 2.266 1_455 S
In104 O113 2.326 1_455 S
In104 O115 2.294 1_556 S
In104 O116 2.326 . S
O105 In104 2.294 . S
O105 C114 1.240 1_556 S
O106 In104 2.326 1_554 S
O106 C114 1.252 . S
C107 O110 1.252 . S
C107 O111 1.260 . S
C108 O115 1.240 1_556 S
C108 O116 1.252 . S
C109 O112 1.252 . S
C109 O113 1.260 . S
O110 In104 2.266 . S
O110 C107 1.252 . S
O111 In104 2.326 . S
O111 C107 1.260 . S
O112 In104 2.266 1_655 S
O112 C109 1.252 . S
O113 In104 2.326 1_655 S
O113 C109 1.260 . S
C114 O105 1.240 1_554 S
C114 O106 1.252 . S
O115 In104 2.294 1_554 S
O115 C108 1.240 1_554 S
O116 In104 2.326 . S
O116 C108 1.252 . S
In117 O118 2.294 . S
In117 O119 2.326 . S
In117 O123 2.266 . S
In117 O124 2.326 . S
In117 O125 2.266 . S
In117 O126 2.326 . S
In117 O128 2.294 . S
In117 O129 2.326 . S
O118 In117 2.294 . S
O118 C127 1.240 . S
O119 In117 2.326 . S
O119 C127 1.252 . S
C120 O123 1.252 . S
C120 O124 1.260 . S
C121 O128 1.240 . S
C121 O129 1.252 . S
C122 O125 1.252 . S
C122 O126 1.260 . S
O123 In117 2.266 . S
O123 C120 1.252 . S
O124 In117 2.326 . S
O124 C120 1.260 . S
O125 In117 2.266 . S
O125 C122 1.252 . S
O126 In117 2.326 . S
O126 C122 1.260 . S
C127 O118 1.240 . S
C127 O119 1.252 . S
O128 In117 2.294 . S
O128 C121 1.240 . S
O129 In117 2.326 . S
O129 C121 1.252 . S
In130 O131 2.294 . S
In130 O132 2.326 . S
In130 O136 2.266 . S
In130 O137 2.326 . S
In130 O138 2.266 1_545 S
In130 O139 2.326 1_545 S
In130 O141 2.294 . S
In130 O142 2.326 . S
O131 In130 2.294 . S
O131 C140 1.240 . S
O132 In130 2.326 . S
O132 C140 1.252 . S
C133 O136 1.252 . S
C133 O137 1.260 . S
C134 O141 1.240 . S
C134 O142 1.252 . S
C135 O138 1.252 . S
C135 O139 1.260 . S
O136 In130 2.266 . S
O136 C133 1.252 . S
O137 In130 2.326 . S
O137 C133 1.260 . S
O138 In130 2.266 1_565 S
O138 C135 1.252 . S
O139 In130 2.326 1_565 S
O139 C135 1.260 . S
C140 O131 1.240 . S
C140 O132 1.252 . S
O141 In130 2.294 . S
O141 C134 1.240 . S
O142 In130 2.326 . S
O142 C134 1.252 . S
In143 O144 2.294 . S
In143 O145 2.326 . S
In143 O149 2.266 1_655 S
In143 O150 2.326 1_655 S
In143 O151 2.266 . S
In143 O152 2.326 . S
In143 O154 2.294 . S
In143 O155 2.326 . S
O144 In143 2.294 . S
O144 C153 1.240 . S
O145 In143 2.326 . S
O145 C153 1.252 . S
C146 O149 1.252 . S
C146 O150 1.260 . S
C147 O154 1.240 . S
C147 O155 1.252 . S
C148 O151 1.252 . S
C148 O152 1.260 . S
O149 In143 2.266 1_455 S
O149 C146 1.252 . S
O150 In143 2.326 1_455 S
O150 C146 1.260 . S
O151 In143 2.266 . S
O151 C148 1.252 . S
O152 In143 2.326 . S
O152 C148 1.260 . S
C153 O144 1.240 . S
C153 O145 1.252 . S
O154 In143 2.294 . S
O154 C147 1.240 . S
O155 In143 2.326 . S
O155 C147 1.252 . S
In156 O157 2.294 . S
In156 O158 2.326 . S
In156 O162 2.266 . S
In156 O163 2.326 . S
In156 O164 2.266 . S
In156 O165 2.326 . S
In156 O167 2.294 . S
In156 O168 2.326 . S
O157 In156 2.294 . S
O157 C166 1.240 . S
O158 In156 2.326 . S
O158 C166 1.252 . S
C159 O162 1.252 . S
C159 O163 1.260 . S
C160 O167 1.240 . S
C160 O168 1.252 . S
C161 O164 1.252 . S
C161 O165 1.260 . S
O162 In156 2.266 . S
O162 C159 1.252 . S
O163 In156 2.326 . S
O163 C159 1.260 . S
O164 In156 2.266 . S
O164 C161 1.252 . S
O165 In156 2.326 . S
O165 C161 1.260 . S
C166 O157 1.240 . S
C166 O158 1.252 . S
O167 In156 2.294 . S
O167 C160 1.240 . S
O168 In156 2.326 . S
O168 C160 1.252 . S
In169 O170 2.294 . S
In169 O171 2.326 . S
In169 O175 2.266 . S
In169 O176 2.326 . S
In169 O177 2.266 . S
In169 O178 2.326 . S
In169 O180 2.294 . S
In169 O181 2.326 . S
O170 In169 2.294 . S
O170 C179 1.240 . S
O171 In169 2.326 . S
O171 C179 1.252 . S
C172 O175 1.252 . S
C172 O176 1.260 . S
C173 O180 1.240 . S
C173 O181 1.252 . S
C174 O177 1.252 . S
C174 O178 1.260 . S
O175 In169 2.266 . S
O175 C172 1.252 . S
O176 In169 2.326 . S
O176 C172 1.260 . S
O177 In169 2.266 . S
O177 C174 1.252 . S
O178 In169 2.326 . S
O178 C174 1.260 . S
C179 O170 1.240 . S
C179 O171 1.252 . S
O180 In169 2.294 . S
O180 C173 1.240 . S
O181 In169 2.326 . S
O181 C173 1.252 . S
In182 O183 2.294 . S
In182 O184 2.326 . S
In182 O188 2.266 . S
In182 O189 2.326 . S
In182 O190 2.266 . S
In182 O191 2.326 . S
In182 O193 2.294 . S
In182 O194 2.326 . S
O183 In182 2.294 . S
O183 C192 1.240 . S
O184 In182 2.326 . S
O184 C192 1.252 . S
C185 O188 1.252 . S
C185 O189 1.260 . S
C186 O193 1.240 . S
C186 O194 1.252 . S
C187 O190 1.252 . S
C187 O191 1.260 . S
O188 In182 2.266 . S
O188 C185 1.252 . S
O189 In182 2.326 . S
O189 C185 1.260 . S
O190 In182 2.266 . S
O190 C187 1.252 . S
O191 In182 2.326 . S
O191 C187 1.260 . S
C192 O183 1.240 . S
C192 O184 1.252 . S
O193 In182 2.294 . S
O193 C186 1.240 . S
O194 In182 2.326 . S
O194 C186 1.252 . S
In195 O196 2.294 . S
In195 O197 2.326 . S
In195 O201 2.266 . S
In195 O202 2.326 . S
In195 O203 2.266 . S
In195 O204 2.326 . S
In195 O206 2.294 . S
In195 O207 2.326 . S
O196 In195 2.294 . S
O196 C205 1.240 . S
O197 In195 2.326 . S
O197 C205 1.252 . S
C198 O201 1.252 . S
C198 O202 1.260 . S
C199 O206 1.240 . S
C199 O207 1.252 . S
C200 O203 1.252 . S
C200 O204 1.260 . S
O201 In195 2.266 . S
O201 C198 1.252 . S
O202 In195 2.326 . S
O202 C198 1.260 . S
O203 In195 2.266 . S
O203 C200 1.252 . S
O204 In195 2.326 . S
O204 C200 1.260 . S
C205 O196 1.240 . S
C205 O197 1.252 . S
O206 In195 2.294 . S
O206 C199 1.240 . S
O207 In195 2.326 . S
O207 C199 1.252 . S
In208 O209 2.294 . S
In208 O210 2.326 . S
In208 O214 2.266 . S
In208 O215 2.326 . S
In208 O216 2.266 . S
In208 O217 2.326 . S
In208 O219 2.294 . S
In208 O220 2.326 . S
O209 In208 2.294 . S
O209 C218 1.240 . S
O210 In208 2.326 . S
O210 C218 1.252 . S
C211 O214 1.252 . S
C211 O215 1.260 . S
C212 O219 1.240 . S
C212 O220 1.252 . S
C213 O216 1.252 . S
C213 O217 1.260 . S
O214 In208 2.266 . S
O214 C211 1.252 . S
O215 In208 2.326 . S
O215 C211 1.260 . S
O216 In208 2.266 . S
O216 C213 1.252 . S
O217 In208 2.326 . S
O217 C213 1.260 . S
C218 O209 1.240 . S
C218 O210 1.252 . S
O219 In208 2.294 . S
O219 C212 1.240 . S
O220 In208 2.326 . S
O220 C212 1.252 . S
In221 O222 2.294 . S
In221 O223 2.326 . S
In221 O227 2.266 . S
In221 O228 2.326 . S
In221 O229 2.266 . S
In221 O230 2.326 . S
In221 O232 2.294 . S
In221 O233 2.326 . S
O222 In221 2.294 . S
O222 C231 1.240 . S
O223 In221 2.326 . S
O223 C231 1.252 . S
C224 O227 1.252 . S
C224 O228 1.260 . S
C225 O232 1.240 . S
C225 O233 1.252 . S
C226 O229 1.252 . S
C226 O230 1.260 . S
O227 In221 2.266 . S
O227 C224 1.252 . S
O228 In221 2.326 . S
O228 C224 1.260 . S
O229 In221 2.266 . S
O229 C226 1.252 . S
O230 In221 2.326 . S
O230 C226 1.260 . S
C231 O222 1.240 . S
C231 O223 1.252 . S
O232 In221 2.294 . S
O232 C225 1.240 . S
O233 In221 2.326 . S
O233 C225 1.252 . S
In234 O235 2.294 . S
In234 O236 2.326 . S
In234 O240 2.266 . S
In234 O241 2.326 . S
In234 O242 2.266 . S
In234 O243 2.326 . S
In234 O245 2.294 . S
In234 O246 2.326 . S
O235 In234 2.294 . S
O235 C244 1.240 . S
O236 In234 2.326 . S
O236 C244 1.252 . S
C237 O240 1.252 . S
C237 O241 1.260 . S
C238 O245 1.240 . S
C238 O246 1.252 . S
C239 O242 1.252 . S
C239 O243 1.260 . S
O240 In234 2.266 . S
O240 C237 1.252 . S
O241 In234 2.326 . S
O241 C237 1.260 . S
O242 In234 2.266 . S
O242 C239 1.252 . S
O243 In234 2.326 . S
O243 C239 1.260 . S
C244 O235 1.240 . S
C244 O236 1.252 . S
O245 In234 2.294 . S
O245 C238 1.240 . S
O246 In234 2.326 . S
O246 C238 1.252 . S
In247 O248 2.294 . S
In247 O249 2.326 . S
In247 O253 2.266 . S
In247 O254 2.326 . S
In247 O255 2.266 . S
In247 O256 2.326 . S
In247 O258 2.294 . S
In247 O259 2.326 . S
O248 In247 2.294 . S
O248 C257 1.240 . S
O249 In247 2.326 . S
O249 C257 1.252 . S
C250 O253 1.252 . S
C250 O254 1.260 . S
C251 O258 1.240 . S
C251 O259 1.252 . S
C252 O255 1.252 . S
C252 O256 1.260 . S
O253 In247 2.266 . S
O253 C250 1.252 . S
O254 In247 2.326 . S
O254 C250 1.260 . S
O255 In247 2.266 . S
O255 C252 1.252 . S
O256 In247 2.326 . S
O256 C252 1.260 . S
C257 O248 1.240 . S
C257 O249 1.252 . S
O258 In247 2.294 . S
O258 C251 1.240 . S
O259 In247 2.326 . S
O259 C251 1.252 . S
In260 O261 2.294 . S
In260 O262 2.326 . S
In260 O266 2.266 . S
In260 O267 2.326 . S
In260 O268 2.266 . S
In260 O269 2.326 . S
In260 O271 2.294 . S
In260 O272 2.326 . S
O261 In260 2.294 . S
O261 C270 1.240 . S
O262 In260 2.326 . S
O262 C270 1.252 . S
C263 O266 1.252 . S
C263 O267 1.260 . S
C264 O271 1.240 . S
C264 O272 1.252 . S
C265 O268 1.252 . S
C265 O269 1.260 . S
O266 In260 2.266 . S
O266 C263 1.252 . S
O267 In260 2.326 . S
O267 C263 1.260 . S
O268 In260 2.266 . S
O268 C265 1.252 . S
O269 In260 2.326 . S
O269 C265 1.260 . S
C270 O261 1.240 . S
C270 O262 1.252 . S
O271 In260 2.294 . S
O271 C264 1.240 . S
O272 In260 2.326 . S
O272 C264 1.252 . S
In273 O274 2.294 . S
In273 O275 2.326 . S
In273 O279 2.257 1_556 S
In273 O280 2.326 . S
In273 O281 2.266 . S
In273 O282 2.326 . S
In273 O284 2.294 . S
In273 O285 2.326 . S
O274 In273 2.294 . S
O274 C283 1.240 . S
O275 In273 2.326 . S
O275 C283 1.252 . S
C276 O279 1.257 . S
C276 O280 1.260 1_554 S
C277 O284 1.240 . S
C277 O285 1.252 . S
C278 O281 1.252 . S
C278 O282 1.260 . S
O279 In273 2.257 1_554 S
O279 C276 1.257 . S
O280 In273 2.326 . S
O280 C276 1.260 1_556 S
O281 In273 2.266 . S
O281 C278 1.252 . S
O282 In273 2.326 . S
O282 C278 1.260 . S
C283 O274 1.240 . S
C283 O275 1.252 . S
O284 In273 2.294 . S
O284 C277 1.240 . S
O285 In273 2.326 . S
O285 C277 1.252 . S
In286 O287 2.294 . S
In286 O288 2.326 . S
In286 O292 2.257 1_556 S
In286 O293 2.326 . S
In286 O294 2.266 . S
In286 O295 2.326 . S
In286 O297 2.294 . S
In286 O298 2.326 . S
O287 In286 2.294 . S
O287 C296 1.240 . S
O288 In286 2.326 . S
O288 C296 1.252 . S
C289 O292 1.257 . S
C289 O293 1.260 1_554 S
C290 O297 1.240 . S
C290 O298 1.252 . S
C291 O294 1.252 . S
C291 O295 1.260 . S
O292 In286 2.257 1_554 S
O292 C289 1.257 . S
O293 In286 2.326 . S
O293 C289 1.260 1_556 S
O294 In286 2.266 . S
O294 C291 1.252 . S
O295 In286 2.326 . S
O295 C291 1.260 . S
C296 O287 1.240 . S
C296 O288 1.252 . S
O297 In286 2.294 . S
O297 C290 1.240 . S
O298 In286 2.326 . S
O298 C290 1.252 . S
In299 O300 2.294 . S
In299 O301 2.326 . S
In299 O305 2.266 . S
In299 O306 2.326 . S
In299 O307 2.257 1_556 S
In299 O308 2.326 . S
In299 O310 2.294 . S
In299 O311 2.326 . S
O300 In299 2.294 . S
O300 C309 1.240 . S
O301 In299 2.326 . S
O301 C309 1.252 . S
C302 O305 1.252 . S
C302 O306 1.260 . S
C303 O310 1.240 . S
C303 O311 1.252 . S
C304 O307 1.257 . S
C304 O308 1.260 1_554 S
O305 In299 2.266 . S
O305 C302 1.252 . S
O306 In299 2.326 . S
O306 C302 1.260 . S
O307 In299 2.257 1_554 S
O307 C304 1.257 . S
O308 In299 2.326 . S
O308 C304 1.260 1_556 S
C309 O300 1.240 . S
C309 O301 1.252 . S
O310 In299 2.294 . S
O310 C303 1.240 . S
O311 In299 2.326 . S
O311 C303 1.252 . S
In312 O313 2.294 . S
In312 O314 2.326 . S
In312 O318 2.266 . S
In312 O319 2.326 . S
In312 O320 2.266 . S
In312 O321 2.326 . S
In312 O323 2.294 . S
In312 O324 2.326 . S
O313 In312 2.294 . S
O313 C322 1.240 . S
O314 In312 2.326 . S
O314 C322 1.252 . S
C315 O318 1.252 . S
C315 O319 1.260 . S
C316 O323 1.240 . S
C316 O324 1.252 . S
C317 O320 1.252 . S
C317 O321 1.260 . S
O318 In312 2.266 . S
O318 C315 1.252 . S
O319 In312 2.326 . S
O319 C315 1.260 . S
O320 In312 2.266 . S
O320 C317 1.252 . S
O321 In312 2.326 . S
O321 C317 1.260 . S
C322 O313 1.240 . S
C322 O314 1.252 . S
O323 In312 2.294 . S
O323 C316 1.240 . S
O324 In312 2.326 . S
O324 C316 1.252 . S
In325 O326 2.294 . S
In325 O327 2.326 . S
In325 O331 2.266 . S
In325 O332 2.326 . S
In325 O333 2.266 . S
In325 O334 2.326 . S
In325 O336 2.294 . S
In325 O337 2.326 . S
O326 In325 2.294 . S
O326 C335 1.240 . S
O327 In325 2.326 . S
O327 C335 1.252 . S
C328 O331 1.252 . S
C328 O332 1.260 . S
C329 O336 1.240 . S
C329 O337 1.252 . S
C330 O333 1.252 . S
C330 O334 1.260 . S
O331 In325 2.266 . S
O331 C328 1.252 . S
O332 In325 2.326 . S
O332 C328 1.260 . S
O333 In325 2.266 . S
O333 C330 1.252 . S
O334 In325 2.326 . S
O334 C330 1.260 . S
C335 O326 1.240 . S
C335 O327 1.252 . S
O336 In325 2.294 . S
O336 C329 1.240 . S
O337 In325 2.326 . S
O337 C329 1.252 . S
In338 O339 2.294 . S
In338 O340 2.326 . S
In338 O344 2.266 . S
In338 O345 2.326 . S
In338 O346 2.266 . S
In338 O347 2.326 . S
In338 O349 2.294 . S
In338 O350 2.326 . S
O339 In338 2.294 . S
O339 C348 1.240 . S
O340 In338 2.326 . S
O340 C348 1.252 . S
C341 O344 1.252 . S
C341 O345 1.260 . S
C342 O349 1.240 . S
C342 O350 1.252 . S
C343 O346 1.252 . S
C343 O347 1.260 . S
O344 In338 2.266 . S
O344 C341 1.252 . S
O345 In338 2.326 . S
O345 C341 1.260 . S
O346 In338 2.266 . S
O346 C343 1.252 . S
O347 In338 2.326 . S
O347 C343 1.260 . S
C348 O339 1.240 . S
C348 O340 1.252 . S
O349 In338 2.294 . S
O349 C342 1.240 . S
O350 In338 2.326 . S
O350 C342 1.252 . S
In351 O352 2.294 . S
In351 O353 2.326 . S
In351 O357 2.266 . S
In351 O358 2.326 . S
In351 O359 2.257 1_554 S
In351 O360 2.326 . S
In351 O362 2.294 . S
In351 O363 2.326 . S
O352 In351 2.294 . S
O352 C361 1.240 . S
O353 In351 2.326 . S
O353 C361 1.252 . S
C354 O357 1.252 . S
C354 O358 1.260 . S
C355 O362 1.240 . S
C355 O363 1.252 . S
C356 O359 1.257 . S
C356 O360 1.260 1_556 S
O357 In351 2.266 . S
O357 C354 1.252 . S
O358 In351 2.326 . S
O358 C354 1.260 . S
O359 In351 2.257 1_556 S
O359 C356 1.257 . S
O360 In351 2.326 . S
O360 C356 1.260 1_554 S
C361 O352 1.240 . S
C361 O353 1.252 . S
O362 In351 2.294 . S
O362 C355 1.240 . S
O363 In351 2.326 . S
O363 C355 1.252 . S
In364 O365 2.294 . S
In364 O366 2.326 . S
In364 O370 2.266 . S
In364 O371 2.326 . S
In364 O372 2.257 1_554 S
In364 O373 2.326 . S
In364 O375 2.294 . S
In364 O376 2.326 . S
O365 In364 2.294 . S
O365 C374 1.240 . S
O366 In364 2.326 . S
O366 C374 1.252 . S
C367 O370 1.252 . S
C367 O371 1.260 . S
C368 O375 1.240 . S
C368 O376 1.252 . S
C369 O372 1.257 . S
C369 O373 1.260 1_556 S
O370 In364 2.266 . S
O370 C367 1.252 . S
O371 In364 2.326 . S
O371 C367 1.260 . S
O372 In364 2.257 1_556 S
O372 C369 1.257 . S
O373 In364 2.326 . S
O373 C369 1.260 1_554 S
C374 O365 1.240 . S
C374 O366 1.252 . S
O375 In364 2.294 . S
O375 C368 1.240 . S
O376 In364 2.326 . S
O376 C368 1.252 . S
In377 O378 2.294 . S
In377 O379 2.326 . S
In377 O383 2.266 . S
In377 O384 2.326 . S
In377 O385 2.257 1_554 S
In377 O386 2.326 . S
In377 O388 2.294 . S
In377 O389 2.326 . S
O378 In377 2.294 . S
O378 C387 1.240 . S
O379 In377 2.326 . S
O379 C387 1.252 . S
C380 O383 1.252 . S
C380 O384 1.260 . S
C381 O388 1.240 . S
C381 O389 1.252 . S
C382 O385 1.257 . S
C382 O386 1.260 1_556 S
O383 In377 2.266 . S
O383 C380 1.252 . S
O384 In377 2.326 . S
O384 C380 1.260 . S
O385 In377 2.257 1_556 S
O385 C382 1.257 . S
O386 In377 2.326 . S
O386 C382 1.260 1_554 S
C387 O378 1.240 . S
C387 O379 1.252 . S
O388 In377 2.294 . S
O388 C381 1.240 . S
O389 In377 2.326 . S
O389 C381 1.252 . S
In390 O391 2.294 . S
In390 O392 2.326 . S
In390 O396 2.266 . S
In390 O397 2.326 . S
In390 O398 2.266 . S
In390 O399 2.326 . S
In390 O401 2.294 . S
In390 O402 2.326 . S
O391 In390 2.294 . S
O391 C400 1.240 . S
O392 In390 2.326 . S
O392 C400 1.252 . S
C393 O396 1.252 . S
C393 O397 1.260 . S
C394 O401 1.240 . S
C394 O402 1.252 . S
C395 O398 1.252 . S
C395 O399 1.260 . S
O396 In390 2.266 . S
O396 C393 1.252 . S
O397 In390 2.326 . S
O397 C393 1.260 . S
O398 In390 2.266 . S
O398 C395 1.252 . S
O399 In390 2.326 . S
O399 C395 1.260 . S
C400 O391 1.240 . S
C400 O392 1.252 . S
O401 In390 2.294 . S
O401 C394 1.240 . S
O402 In390 2.326 . S
O402 C394 1.252 . S
In403 O404 2.294 . S
In403 O405 2.326 . S
In403 O409 2.266 . S
In403 O410 2.326 . S
In403 O411 2.266 . S
In403 O412 2.326 . S
In403 O414 2.294 . S
In403 O415 2.326 . S
O404 In403 2.294 . S
O404 C413 1.240 . S
O405 In403 2.326 . S
O405 C413 1.252 . S
C406 O409 1.252 . S
C406 O410 1.260 . S
C407 O414 1.240 . S
C407 O415 1.252 . S
C408 O411 1.252 . S
C408 O412 1.260 . S
O409 In403 2.266 . S
O409 C406 1.252 . S
O410 In403 2.326 . S
O410 C406 1.260 . S
O411 In403 2.266 . S
O411 C408 1.252 . S
O412 In403 2.326 . S
O412 C408 1.260 . S
C413 O404 1.240 . S
C413 O405 1.252 . S
O414 In403 2.294 . S
O414 C407 1.240 . S
O415 In403 2.326 . S
O415 C407 1.252 . S
In416 O417 2.294 . S
In416 O418 2.326 . S
In416 O422 2.266 . S
In416 O423 2.326 . S
In416 O424 2.266 . S
In416 O425 2.326 . S
In416 O427 2.294 . S
In416 O428 2.326 . S
O417 In416 2.294 . S
O417 C426 1.240 . S
O418 In416 2.326 . S
O418 C426 1.252 . S
C419 O422 1.252 . S
C419 O423 1.260 . S
C420 O427 1.240 . S
C420 O428 1.252 . S
C421 O424 1.252 . S
C421 O425 1.260 . S
O422 In416 2.266 . S
O422 C419 1.252 . S
O423 In416 2.326 . S
O423 C419 1.260 . S
O424 In416 2.266 . S
O424 C421 1.252 . S
O425 In416 2.326 . S
O425 C421 1.260 . S
C426 O417 1.240 . S
C426 O418 1.252 . S
O427 In416 2.294 . S
O427 C420 1.240 . S
O428 In416 2.326 . S
O428 C420 1.252 . S
In429 O430 2.294 . S
In429 O431 2.326 . S
In429 O435 2.266 . S
In429 O436 2.326 . S
In429 O437 2.266 . S
In429 O438 2.326 . S
In429 O440 2.294 . S
In429 O441 2.326 . S
O430 In429 2.294 . S
O430 C439 1.240 . S
O431 In429 2.326 . S
O431 C439 1.252 . S
C432 O435 1.252 . S
C432 O436 1.260 . S
C433 O440 1.240 . S
C433 O441 1.252 . S
C434 O437 1.252 . S
C434 O438 1.260 . S
O435 In429 2.266 . S
O435 C432 1.252 . S
O436 In429 2.326 . S
O436 C432 1.260 . S
O437 In429 2.266 . S
O437 C434 1.252 . S
O438 In429 2.326 . S
O438 C434 1.260 . S
C439 O430 1.240 . S
C439 O431 1.252 . S
O440 In429 2.294 . S
O440 C433 1.240 . S
O441 In429 2.326 . S
O441 C433 1.252 . S
In442 O443 2.294 . S
In442 O444 2.326 . S
In442 O448 2.266 . S
In442 O449 2.326 . S
In442 O450 2.266 . S
In442 O451 2.326 . S
In442 O453 2.294 . S
In442 O454 2.326 . S
O443 In442 2.294 . S
O443 C452 1.240 . S
O444 In442 2.326 . S
O444 C452 1.252 . S
C445 O448 1.252 . S
C445 O449 1.260 . S
C446 O453 1.240 . S
C446 O454 1.252 . S
C447 O450 1.252 . S
C447 O451 1.260 . S
O448 In442 2.266 . S
O448 C445 1.252 . S
O449 In442 2.326 . S
O449 C445 1.260 . S
O450 In442 2.266 . S
O450 C447 1.252 . S
O451 In442 2.326 . S
O451 C447 1.260 . S
C452 O443 1.240 . S
C452 O444 1.252 . S
O453 In442 2.294 . S
O453 C446 1.240 . S
O454 In442 2.326 . S
O454 C446 1.252 . S
In455 O456 2.294 . S
In455 O457 2.326 . S
In455 O461 2.266 . S
In455 O462 2.326 . S
In455 O463 2.266 . S
In455 O464 2.326 . S
In455 O466 2.294 . S
In455 O467 2.326 . S
O456 In455 2.294 . S
O456 C465 1.240 . S
O457 In455 2.326 . S
O457 C465 1.252 . S
C458 O461 1.252 . S
C458 O462 1.260 . S
C459 O466 1.240 . S
C459 O467 1.252 . S
C460 O463 1.252 . S
C460 O464 1.260 . S
O461 In455 2.266 . S
O461 C458 1.252 . S
O462 In455 2.326 . S
O462 C458 1.260 . S
O463 In455 2.266 . S
O463 C460 1.252 . S
O464 In455 2.326 . S
O464 C460 1.260 . S
C465 O456 1.240 . S
C465 O457 1.252 . S
O466 In455 2.294 . S
O466 C459 1.240 . S
O467 In455 2.326 . S
O467 C459 1.252 . S
C218 C4 1.265 . S
C231 C23 1.264 . S
C30 C205 1.265 . S
C348 C49 1.265 . S
C322 C56 1.265 . S
C69 C335 1.264 . S
C446 C88 1.265 . S
C465 C101 1.264 . S
C439 C114 1.265 . S
C270 C127 1.265 . S
C140 C244 1.265 . S
C257 C147 1.264 . S
C368 C166 1.265 1_455 S
C179 C381 1.264 . S
C355 C192 1.265 1_565 S
C420 C283 1.265 1_565 S
C400 C296 1.265 1_455 S
C303 C407 1.264 . S
C96 C10 1.762 1_556 S
C109 C17 1.762 1_556 S
C83 C36 1.762 1_556 S
C43 C146 1.762 . S
C122 C62 1.762 . S
C75 C135 1.762 . S
C18 C82 1.762 1_554 S
C95 C29 1.762 1_556 S
C3 C108 1.762 1_554 S
C68 C121 1.762 . S
C44 C134 1.762 . S
C153 C55 1.762 . S
C160 C252 1.762 . S
C265 C173 1.762 . S
C239 C186 1.762 . S
C199 C302 1.762 . S
C278 C212 1.762 . S
C225 C291 1.762 . S
C238 C174 1.762 . S
C251 C187 1.762 . S
C161 C264 1.762 . S
C226 C277 1.762 . S
C200 C290 1.762 . S
C309 C213 1.762 . S
C406 C316 1.762 . S
C329 C419 1.762 . S
C342 C395 1.762 . S
C460 C361 1.762 . S
C374 C434 1.762 . S
C445 C387 1.762 . S
C330 C394 1.762 . S
C343 C413 1.762 . S
C426 C317 1.762 . S
C433 C380 1.762 . S
C354 C452 1.762 . S
C367 C459 1.762 . S
C5 C42 1.567 . S
C16 C57 1.567 1_545 S
C70 C31 1.567 1_455 S
C81 C120 1.567 . S
C133 C94 1.567 1_545 S
C148 C107 1.567 1_655 S
C159 C198 1.567 . S
C172 C211 1.567 . S
C224 C185 1.567 . S
C237 C276 1.567 . S
C250 C289 1.567 . S
C263 C304 1.567 . S
C356 C315 1.567 . S
C369 C328 1.567 . S
C382 C341 1.567 . S
C393 C432 1.567 . S
C447 C408 1.567 . S
C458 C421 1.567 . S
