# Generated by pormake.
# Topology svh, (7)-cn, num edge types: 1
# Building blocks:
#     Node 0, Type 0, BuildingBlock: HICVOG_clean_sbu_0, # of connection points: 7
#     Node 1, Type 0, BuildingBlock: HICVOG_clean_sbu_0, # of connection points: 7
#     Node 2, Type 0, BuildingBlock: HICVOG_clean_sbu_0, # of connection points: 7
#     Node 3, Type 0, BuildingBlock: HICVOG_clean_sbu_0, # of connection points: 7
#     Node 4, Type 0, BuildingBlock: HICVOG_clean_sbu_0, # of connection points: 7
#     Node 5, Type 0, BuildingBlock: HICVOG_clean_sbu_0, # of connection points: 7
#     Node 6, Type 0, BuildingBlock: HICVOG_clean_sbu_0, # of connection points: 7
#     Node 7, Type 0, BuildingBlock: HICVOG_clean_sbu_0, # of connection points: 7
#     Edge 8, Type (0, 0), BuildingBlock: EZIPEK_clean_linker_0, # of connection points: 2
#     Edge 9, Type (0, 0), BuildingBlock: EZIPEK_clean_linker_0, # of connection points: 2
#     Edge 10, Type (0, 0), BuildingBlock: EZIPEK_clean_linker_0, # of connection points: 2
#     Edge 11, Type (0, 0), BuildingBlock: EZIPEK_clean_linker_0, # of connection points: 2
#     Edge 12, Type (0, 0), BuildingBlock: EZIPEK_clean_linker_0, # of connection points: 2
#     Edge 13, Type (0, 0), BuildingBlock: EZIPEK_clean_linker_0, # of connection points: 2
#     Edge 14, Type (0, 0), BuildingBlock: EZIPEK_clean_linker_0, # of connection points: 2
#     Edge 15, Type (0, 0), BuildingBlock: EZIPEK_clean_linker_0, # of connection points: 2
#     Edge 16, Type (0, 0), BuildingBlock: EZIPEK_clean_linker_0, # of connection points: 2
#     Edge 17, Type (0, 0), BuildingBlock: EZIPEK_clean_linker_0, # of connection points: 2
#     Edge 18, Type (0, 0), BuildingBlock: EZIPEK_clean_linker_0, # of connection points: 2
#     Edge 19, Type (0, 0), BuildingBlock: EZIPEK_clean_linker_0, # of connection points: 2
#     Edge 20, Type (0, 0), BuildingBlock: EZIPEK_clean_linker_0, # of connection points: 2
#     Edge 21, Type (0, 0), BuildingBlock: EZIPEK_clean_linker_0, # of connection points: 2
#     Edge 22, Type (0, 0), BuildingBlock: EZIPEK_clean_linker_0, # of connection points: 2
#     Edge 23, Type (0, 0), BuildingBlock: EZIPEK_clean_linker_0, # of connection points: 2
#     Edge 24, Type (0, 0), BuildingBlock: EZIPEK_clean_linker_0, # of connection points: 2
#     Edge 25, Type (0, 0), BuildingBlock: EZIPEK_clean_linker_0, # of connection points: 2
#     Edge 26, Type (0, 0), BuildingBlock: EZIPEK_clean_linker_0, # of connection points: 2
#     Edge 27, Type (0, 0), BuildingBlock: EZIPEK_clean_linker_0, # of connection points: 2
#     Edge 28, Type (0, 0), BuildingBlock: EZIPEK_clean_linker_0, # of connection points: 2
#     Edge 29, Type (0, 0), BuildingBlock: EZIPEK_clean_linker_0, # of connection points: 2
#     Edge 30, Type (0, 0), BuildingBlock: EZIPEK_clean_linker_0, # of connection points: 2
#     Edge 31, Type (0, 0), BuildingBlock: EZIPEK_clean_linker_0, # of connection points: 2
#     Edge 32, Type (0, 0), BuildingBlock: EZIPEK_clean_linker_0, # of connection points: 2
#     Edge 33, Type (0, 0), BuildingBlock: EZIPEK_clean_linker_0, # of connection points: 2
#     Edge 34, Type (0, 0), BuildingBlock: EZIPEK_clean_linker_0, # of connection points: 2
#     Edge 35, Type (0, 0), BuildingBlock: EZIPEK_clean_linker_0, # of connection points: 2
# Relax obj value: 0.318
# Max RMSD: 0.264
# Mean RMSD: 0.264
data_MOF--net-svh--node1-HICVOG_clean_sbu_0--edge1-EZIPEK_clean_linker_0
_symmetry_space_group_name_H-M    P1
_symmetry_Int_Tables_number       1
_symmetry_cell_setting            triclinic
loop_
_symmetry_equiv_pos_as_xyz
'x, y, z'
_cell_length_a     14.99996
_cell_length_b     14.856861
_cell_length_c     73.143107
_cell_angle_alpha  90.148478
_cell_angle_beta   90.251062
_cell_angle_gamma 89.57542
loop_
_atom_site_label
_atom_site_type_symbol
_atom_site_fract_x
_atom_site_fract_y
_atom_site_fract_z
_atom_type_partial_charge
Zn0 Zn 0.05067 0.90046 0.09088 0.0
C1 C 0.01947 0.71658 0.05097 0.0
N2 N 0.03946 0.78428 1.03954 0.0
C3 C 0.0434 0.85549 0.0509 0.0
N4 N 0.02803 0.83179 0.06839 0.0
N5 N 0.01068 0.74442 0.06849 0.0
C6 C 0.9839 0.49663 0.0858 0.0
O7 O 0.06265 0.53439 0.08673 0.0
O8 O 0.05766 0.04379 0.08671 0.0
Zn9 Zn 0.92371 0.69434 0.08586 0.0
N10 N 0.15851 0.83706 0.09794 0.0
C11 C 0.20333 0.68818 0.10655 0.0
C12 C 0.1377 0.75133 0.10277 0.0
C13 C 0.24467 0.85991 0.09513 0.0
N14 N 0.28867 0.70989 0.10339 0.0
C15 C 0.3105 0.79294 0.09732 0.0
O16 O 0.92986 0.73174 0.11296 0.0
C17 C 0.94425 0.80444 0.12186 0.0
O18 O 0.97503 0.8748 0.11406 0.0
H19 H 0.07092 0.72909 0.10212 0.0
H20 H 0.26088 0.92572 0.08985 0.0
C21 C 0.7353 0.73568 0.07735 0.0
C22 C 0.66742 0.79901 0.07382 0.0
C23 C 0.77259 0.91471 0.07123 0.0
C24 C 0.83755 0.85523 0.07727 0.0
N25 N 0.82018 0.76539 0.0788 0.0
N26 N 0.68812 0.88566 0.07 0.0
H27 H 0.71996 0.66673 0.08082 0.0
C28 C 0.99225 0.09751 0.09042 0.0
O29 O 0.91881 0.06286 0.097 0.0
O30 O 0.91517 0.54906 0.08477 0.0
H31 H 0.89927 0.883 0.08172 0.0
H32 H 0.18636 0.6205 0.11061 0.0
H33 H 0.78737 0.9851 0.0692 0.0
Zn34 Zn 0.34006 0.84663 0.343 0.0
C35 C 0.51826 0.8028 0.30322 0.0
N36 N 0.44844 0.81404 0.29177 0.0
C37 C 0.37918 0.81885 0.30338 0.0
N38 N 0.40562 0.81145 0.32096 0.0
N39 N 0.49353 0.80036 0.32096 0.0
C40 C 0.7484 0.78671 0.33782 0.0
O41 O 0.71124 0.86656 0.33626 0.0
O42 O 0.19756 0.8531 0.33877 0.0
Zn43 Zn 0.55158 0.72466 0.33986 0.0
N44 N 0.40324 0.95757 0.34647 0.0
C45 C 0.55309 1.00394 0.35225 0.0
C46 C 0.48883 0.93813 0.35143 0.0
C47 C 0.38073 0.04164 0.34093 0.0
N48 N 0.53125 0.08721 0.3467 0.0
C49 C 0.44773 0.10697 0.34073 0.0
O50 O 0.51287 0.73696 0.36711 0.0
C51 C 0.44116 0.75433 0.37596 0.0
O52 O 0.3707 0.78479 0.36802 0.0
H53 H 0.50991 0.87086 0.35311 0.0
H54 H 0.31402 0.05623 0.33603 0.0
C55 C 0.51849 0.5371 0.32823 0.0
C56 C 0.45672 0.46885 0.32463 0.0
C57 C 0.33688 0.56913 0.32944 0.0
C58 C 0.39708 0.63229 0.33556 0.0
N59 N 0.48667 0.61777 0.33394 0.0
N60 N 0.36804 0.48779 0.32444 0.0
H61 H 0.5895 0.52359 0.32848 0.0
C62 C 0.14393 0.79055 0.34383 0.0
O63 O 0.1778 0.71992 0.35219 0.0
O64 O 0.69636 0.71813 0.3388 0.0
H65 H 0.37144 0.69293 0.34135 0.0
H66 H 0.62072 0.9883 0.3564 0.0
H67 H 0.2659 0.58224 0.32981 0.0
Zn68 Zn 0.55392 0.34451 0.59565 0.0
C69 C 0.46583 0.17622 0.5576 0.0
N70 N 0.47399 0.24631 0.54617 0.0
C71 C 0.48613 0.31529 0.55784 0.0
N72 N 0.48585 0.28922 0.57551 0.0
N73 N 0.4727 0.20118 0.57528 0.0
C74 C 0.48387 0.93967 0.59804 0.0
O75 O 0.5522 0.97272 0.60703 0.0
O76 O 0.56208 0.48953 0.59444 0.0
Zn77 Zn 0.43121 0.13729 0.59695 0.0
N78 N 0.66009 0.27468 0.592 0.0
C79 C 0.70881 0.1218 0.58918 0.0
C80 C 0.64409 0.18465 0.59352 0.0
C81 C 0.74205 0.30442 0.58759 0.0
N82 N 0.79078 0.15106 0.58513 0.0
C83 C 0.80931 0.24024 0.58473 0.0
O84 O 0.48563 0.16361 0.62271 0.0
C85 C 0.5125 0.23437 0.63106 0.0
O86 O 0.53146 0.30699 0.6226 0.0
H87 H 0.58109 0.16048 0.59773 0.0
H88 H 0.75577 0.37586 0.58748 0.0
C89 C 0.24027 0.18157 0.59464 0.0
C90 C 0.17353 0.24781 0.59471 0.0
C91 C 0.27476 0.35793 0.60441 0.0
C92 C 0.34156 0.29372 0.60376 0.0
N93 N 0.32368 0.2063 0.5994 0.0
N94 N 0.19176 0.33354 0.59979 0.0
H95 H 0.2267 0.11294 0.59055 0.0
C96 C 0.49424 0.54182 0.59187 0.0
O97 O 0.41673 0.50438 0.58868 0.0
O98 O 0.42268 0.99458 0.59249 0.0
H99 H 0.40767 0.31584 0.6056 0.0
H100 H 0.69535 0.05048 0.58973 0.0
H101 H 0.28881 0.42694 0.60808 0.0
Zn102 Zn 0.9664 0.28462 0.83641 0.0
C103 C 0.12497 0.13087 0.80419 0.0
N104 N 0.05107 0.11737 0.794 0.0
C105 C 0.98542 0.15437 0.80427 0.0
N106 N 0.01843 0.19039 0.82007 0.0
N107 N 0.10571 0.17292 0.82016 0.0
C108 C 0.38432 0.20201 0.84765 0.0
O109 O 0.35965 0.1994 0.86483 0.0
O110 O 0.82411 0.28372 0.8382 0.0
Zn111 Zn 0.18779 0.1802 0.84162 0.0
N112 N 0.01349 0.40355 0.82736 0.0
C113 C 0.08793 0.47824 0.80285 0.0
C114 C 0.05016 0.40164 0.81032 0.0
C115 C 0.01553 0.48168 0.83737 0.0
N116 N 0.09034 0.55493 0.81281 0.0
C117 C 0.05564 0.55931 0.82989 0.0
O118 O 0.15634 0.2777 0.86064 0.0
C119 C 0.08509 0.29189 0.86971 0.0
O120 O 0.00967 0.27214 0.86271 0.0
H121 H 0.04919 0.34104 0.80225 0.0
H122 H 0.98842 0.48343 0.851 0.0
C123 C 0.14943 0.98746 0.84774 0.0
C124 C 0.13704 0.91177 0.85909 0.0
C125 C 0.17587 1.00011 0.88492 0.0
C126 C 0.18824 0.07453 0.87371 0.0
N127 N 0.17467 0.06749 0.85536 0.0
N128 N 0.15077 0.92072 0.87739 0.0
H129 H 0.13872 0.9827 0.83316 0.0
C130 C 0.77451 0.21372 0.838 0.0
O131 O 0.81357 0.13496 0.83594 0.0
O132 O 0.32448 0.19513 0.83514 0.0
H133 H 0.20792 0.1379 0.87968 0.0
H134 H 0.11618 0.47644 0.78927 0.0
H135 H 0.18622 0.00537 0.89953 0.0
Zn136 Zn 0.98007 0.39598 0.98236 0.0
C137 C 0.03536 0.21624 1.02153 0.0
N138 N 0.02412 0.28559 1.0332 0.0
C139 C 0.01366 0.35567 1.02177 0.0
N140 N 0.01777 0.33017 1.0041 0.0
N141 N 0.03238 0.24209 1.00382 0.0
C142 C 0.04164 0.99068 0.98658 0.0
O143 O 0.96331 0.02955 0.98835 0.0
O144 O 0.96995 0.53883 0.98669 0.0
Zn145 Zn 0.10442 0.18699 0.98408 0.0
N146 N 0.87331 0.32728 0.97766 0.0
C147 C 0.83235 0.17681 0.96969 0.0
C148 C 0.89611 0.2416 0.97273 0.0
C149 C 0.78718 0.3483 0.98133 0.0
N150 N 0.74716 0.19708 0.97346 0.0
C151 C 0.72357 0.27992 0.97965 0.0
O152 O 0.09018 0.22932 0.95683 0.0
C153 C 0.07499 0.30523 0.94907 0.0
O154 O 0.04632 0.3738 0.95798 0.0
H155 H 0.96341 0.22121 0.97224 0.0
H156 H 0.76937 0.41459 0.98635 0.0
C157 C 0.29331 0.21516 0.99289 0.0
C158 C 0.36443 0.27443 0.99547 0.0
C159 C 0.2676 0.39955 0.99365 0.0
C160 C 0.19923 0.34192 0.98907 0.0
N161 N 0.2118 0.25081 0.98945 0.0
N162 N 0.34942 0.36454 0.99637 0.0
H163 H 0.30392 0.14315 0.99192 0.0
C164 C 0.0337 0.59218 0.98228 0.0
O165 O 0.10568 0.55702 0.97491 0.0
O166 O 0.11035 0.04168 0.98507 0.0
H167 H 0.13703 0.37097 0.98506 0.0
H168 H 0.85061 0.10967 0.96528 0.0
H169 H 0.25714 0.47166 0.99397 0.0
Zn170 Zn 0.83879 0.74338 0.2369 0.0
C171 C 0.0174 0.81132 0.2754 0.0
N172 N 0.9479 0.80721 0.28697 0.0
C173 C 0.87848 0.79612 0.27548 0.0
N174 N 0.90417 0.79341 0.25784 0.0
N175 N 0.99207 0.80312 0.25771 0.0
C176 C 0.247 0.80321 0.2408 0.0
O177 O 0.21155 0.72482 0.24436 0.0
O178 O 0.6968 0.73754 0.24128 0.0
Zn179 Zn 0.04913 0.86265 0.23673 0.0
N180 N 0.90526 0.63275 0.23636 0.0
C181 C 0.05649 0.58256 0.23386 0.0
C182 C 0.9924 0.64913 0.23239 0.0
C183 C 0.87984 0.55044 0.24212 0.0
N184 N 0.03169 0.50114 0.23971 0.0
C185 C 0.94567 0.48382 0.24398 0.0
O186 O 0.00756 0.83308 0.20986 0.0
C187 C 0.93443 0.81279 0.20173 0.0
O188 O 0.86513 0.78772 0.21046 0.0
H189 H 0.01391 0.71449 0.22897 0.0
H190 H 0.81077 0.53749 0.24534 0.0
C191 C 0.01505 0.0507 0.2468 0.0
C192 C 0.95308 0.11915 0.25048 0.0
C193 C 0.8338 0.02419 0.2427 0.0
C194 C 0.89494 0.95935 0.23751 0.0
N195 N 0.98414 0.97218 0.24002 0.0
N196 N 0.86435 0.1035 0.24881 0.0
H197 H 0.08607 0.06139 0.24821 0.0
C198 C 0.64191 0.79828 0.23544 0.0
O199 O 0.67417 0.86626 0.2262 0.0
O200 O 0.19376 0.87028 0.23788 0.0
H201 H 0.8701 0.89712 0.2326 0.0
H202 H 0.1253 0.59503 0.23047 0.0
H203 H 0.76291 0.01282 0.24145 0.0
Zn204 Zn 0.40789 0.85058 0.49217 0.0
C205 C 0.49537 0.67458 0.52896 0.0
N206 N 0.48853 0.74453 0.54061 0.0
C207 C 0.47581 0.8141 0.52918 0.0
N208 N 0.47451 0.78836 0.5115 0.0
N209 N 0.48698 0.69999 0.51132 0.0
C210 C 0.47703 0.44487 0.49557 0.0
O211 O 0.40459 0.48409 0.50179 0.0
O212 O 0.40633 0.9936 0.49661 0.0
Zn213 Zn 0.53211 0.64041 0.48918 0.0
N214 N 0.29975 0.78686 0.49597 0.0
C215 C 0.24404 0.63702 0.49726 0.0
C216 C 0.31143 0.69659 0.4933 0.0
C217 C 0.22056 0.82052 0.50163 0.0
N218 N 0.16428 0.67042 0.50223 0.0
C219 C 0.15022 0.76036 0.50401 0.0
O220 O 0.47558 0.67423 0.4639 0.0
C221 C 0.44637 0.74526 0.45588 0.0
O222 O 0.42798 0.81776 0.46467 0.0
H223 H 0.3732 0.66995 0.48843 0.0
H224 H 0.21085 0.89255 0.50288 0.0
C225 C 0.72533 0.6878 0.49256 0.0
C226 C 0.78777 0.75752 0.49391 0.0
C227 C 0.68038 0.86491 0.48517 0.0
C228 C 0.61819 0.79716 0.48428 0.0
N229 N 0.64059 0.70976 0.48771 0.0
N230 N 0.76406 0.84358 0.49004 0.0
H231 H 0.74307 0.61887 0.49576 0.0
C232 C 0.45729 0.04838 0.48801 0.0
O233 O 0.5102 0.01576 0.47534 0.0
O234 O 0.54157 0.49553 0.49044 0.0
H235 H 0.55125 0.81616 0.48206 0.0
H236 H 0.25321 0.56528 0.49554 0.0
H237 H 0.66217 0.93415 0.48253 0.0
Zn238 Zn 0.42783 0.10637 0.73782 0.0
C239 C 0.6245 0.09584 0.77642 0.0
N240 N 0.55858 0.06553 0.78728 0.0
C241 C 0.48571 0.07019 0.77639 0.0
N242 N 0.50722 0.09926 0.75946 0.0
N243 N 0.59322 0.12036 0.75972 0.0
C244 C 0.8409 0.15065 0.74432 0.0
O245 O 0.80808 0.07049 0.74748 0.0
O246 O 0.29028 0.11142 0.74459 0.0
Zn247 Zn 0.6435 0.20913 0.74225 0.0
N248 N 0.4488 0.99797 0.72289 0.0
C249 C 0.46003 0.94354 0.69229 0.0
C250 C 0.43712 0.01115 0.70463 0.0
C251 C 0.47843 0.91675 0.72934 0.0
N252 N 0.49018 0.86329 0.69865 0.0
C253 C 0.49884 0.84672 0.71687 0.0
O254 O 0.60406 0.18065 0.71643 0.0
C255 C 0.53137 0.21367 0.71019 0.0
O256 O 0.46044 0.20831 0.71981 0.0
H257 H 0.41139 0.07454 0.69962 0.0
H258 H 0.48649 0.90673 0.74387 0.0
C259 C 0.60763 0.40938 0.73963 0.0
C260 C 0.55381 0.48651 0.74304 0.0
C261 C 0.45772 0.39869 0.76115 0.0
C262 C 0.50786 0.32257 0.75707 0.0
N263 N 0.58404 0.32837 0.74707 0.0
N264 N 0.4812 0.47843 0.75391 0.0
H265 H 0.66434 0.41306 0.73058 0.0
C266 C 0.23258 0.1648 0.73734 0.0
O267 O 0.25972 0.22476 0.72551 0.0
O268 O 0.78582 0.2164 0.7421 0.0
H269 H 0.48509 0.2592 0.76192 0.0
H270 H 0.45285 0.95435 0.67773 0.0
H271 H 0.39842 0.39389 0.76944 0.0
C272 C 0.89524 0.88171 0.17104 0.0
C273 C 0.93239 0.80958 0.18132 0.0
C274 C 0.97852 0.73487 0.15286 0.0
C275 C 0.93608 0.80393 0.14234 0.0
N276 N 0.83781 0.93313 0.14171 0.0
N277 N 0.98941 0.65763 0.18185 0.0
C278 C 0.88993 0.87477 0.15154 0.0
C279 C 0.96781 0.73327 0.17216 0.0
N280 N 0.8665 0.95758 0.17989 0.0
N281 N 0.03358 0.67311 0.14472 0.0
H282 H 0.98275 0.65359 0.19596 0.0
H283 H 0.00524 0.59617 0.17573 0.0
H284 H 0.04495 0.66986 0.13078 0.0
H285 H 0.07503 0.62959 0.15207 0.0
H286 H 0.84786 0.01648 0.17314 0.0
H287 H 0.86748 0.96382 0.1941 0.0
H288 H 0.79575 0.98076 0.1477 0.0
H289 H 0.82976 0.92818 0.12758 0.0
C290 C 0.50348 0.80476 0.40647 0.0
C291 C 0.44317 0.74964 0.39645 0.0
C292 C 0.37971 0.69635 0.42555 0.0
C293 C 0.4442 0.74675 0.43542 0.0
N294 N 0.57763 0.83633 0.43516 0.0
N295 N 0.33279 0.63273 0.39638 0.0
C296 C 0.50873 0.79744 0.42583 0.0
C297 C 0.38347 0.69273 0.40599 0.0
N298 N 0.55345 0.86754 0.39763 0.0
N299 N 0.31329 0.65408 0.43486 0.0
H300 H 0.3345 0.62779 0.38215 0.0
H301 H 0.29474 0.5829 0.40248 0.0
H302 H 0.30919 0.65477 0.4491 0.0
H303 H 0.25865 0.62424 0.42853 0.0
H304 H 0.58864 0.91805 0.40435 0.0
H305 H 0.55457 0.87438 0.38352 0.0
H306 H 0.63344 0.86327 0.42882 0.0
H307 H 0.58304 0.83522 0.44931 0.0
C308 C 0.43785 0.23933 0.66188 0.0
C309 C 0.51746 0.23472 0.65144 0.0
C310 C 0.60557 0.24865 0.67975 0.0
C311 C 0.52631 0.24121 0.69026 0.0
N312 N 0.37115 0.2848 0.69051 0.0
N313 N 0.67787 0.22978 0.65031 0.0
C314 C 0.44306 0.25208 0.68116 0.0
C315 C 0.6016 0.23892 0.66034 0.0
N316 N 0.35687 0.23074 0.65346 0.0
N317 N 0.68301 0.27397 0.68815 0.0
H318 H 0.67751 0.22264 0.63611 0.0
H319 H 0.74091 0.22172 0.65611 0.0
H320 H 0.68508 0.2943 0.7018 0.0
H321 H 0.7417 0.28761 0.68117 0.0
H322 H 0.29756 0.22263 0.66061 0.0
H323 H 0.34948 0.22422 0.63936 0.0
H324 H 0.31017 0.30007 0.68436 0.0
H325 H 0.37693 0.31163 0.70363 0.0
C326 C 0.16456 0.30227 0.91973 0.0
C327 C 0.08121 0.31225 0.9287 0.0
C328 C 0.00923 0.34231 0.89901 0.0
C329 C 0.08921 0.31851 0.88977 0.0
N330 N 0.24977 0.32634 0.89211 0.0
N331 N 0.92157 0.33368 0.92651 0.0
C332 C 0.16939 0.31234 0.90029 0.0
C333 C 0.00311 0.33119 0.91826 0.0
N334 N 0.23926 0.28283 0.92977 0.0
N335 N 0.94127 0.38309 0.8896 0.0
H336 H 0.91295 0.32684 0.94052 0.0
H337 H 0.86158 0.3346 0.91928 0.0
H338 H 0.9471 0.4019 0.87597 0.0
H339 H 0.88476 0.41015 0.89583 0.0
H340 H 0.29948 0.26259 0.92399 0.0
H341 H 0.23966 0.28165 0.94403 0.0
H342 H 0.31018 0.32799 0.89914 0.0
H343 H 0.25526 0.35133 0.87888 0.0
C344 C 0.09396 0.48361 1.03635 0.0
C345 C 0.01446 0.45001 1.02832 0.0
C346 C 0.93649 0.59146 1.03547 0.0
C347 C 0.01418 0.62231 0.04461 0.0
N348 N 0.16502 0.5979 0.05504 0.0
N349 N 0.85826 0.46615 1.02143 0.0
C350 C 0.09243 0.56833 0.0454 0.0
C351 C 0.93535 0.50277 1.02802 0.0
N352 N 0.17177 0.43558 1.03473 0.0
N353 N 0.8641 0.64732 1.0339 0.0
H354 H 0.8556 0.40117 1.01607 0.0
H355 H 0.79592 0.49687 1.0224 0.0
H356 H 0.86043 0.70965 0.04042 0.0
H357 H 0.80922 0.63397 1.0256 0.0
H358 H 0.23416 0.46025 1.03832 0.0
H359 H 0.1756 0.37279 1.02839 0.0
H360 H 0.22094 0.55848 0.05789 0.0
H361 H 0.1669 0.66021 0.06162 0.0
C362 C 0.66116 0.87993 0.2962 0.0
C363 C 0.61126 0.79917 0.29662 0.0
C364 C 0.73596 0.716 0.28283 0.0
C365 C 0.78475 0.79717 0.28181 0.0
N366 N 0.79221 0.95828 0.28538 0.0
N367 N 0.59351 0.64387 0.2879 0.0
C368 C 0.74687 0.87973 0.28793 0.0
C369 C 0.64633 0.71823 0.28915 0.0
N370 N 0.62678 0.95654 0.30397 0.0
N371 N 0.77707 0.63623 0.27868 0.0
H372 H 0.52896 0.64209 0.29311 0.0
H373 H 0.61122 0.58586 0.28074 0.0
H374 H 0.84353 0.63254 0.27464 0.0
H375 H 0.74871 0.57345 0.28083 0.0
H376 H 0.66268 0.01539 0.30597 0.0
H377 H 0.56326 0.95994 0.30968 0.0
H378 H 0.76507 0.022 0.28756 0.0
H379 H 0.85595 0.96065 0.27978 0.0
C380 C 0.40913 0.45636 0.54855 0.0
C381 C 0.49027 0.40896 0.55146 0.0
C382 C 0.5744 0.53161 0.53748 0.0
C383 C 0.49374 0.58086 0.53548 0.0
N384 N 0.33568 0.59697 0.54088 0.0
N385 N 0.65007 0.39929 0.54972 0.0
C386 C 0.41147 0.54518 0.54154 0.0
C387 C 0.57306 0.44604 0.54621 0.0
N388 N 0.32957 0.41538 0.55209 0.0
N389 N 0.65192 0.56718 0.53105 0.0
H390 H 0.65031 0.33438 0.55509 0.0
H391 H 0.71373 0.42494 0.54794 0.0
H392 H 0.65504 0.63173 0.52558 0.0
H393 H 0.71233 0.53257 0.53047 0.0
H394 H 0.26793 0.44135 0.54807 0.0
H395 H 0.32486 0.35219 0.55818 0.0
H396 H 0.27632 0.57982 0.54725 0.0
H397 H 0.33289 0.66013 0.53472 0.0
C398 C 0.83231 0.21598 0.79459 0.0
C399 C 0.88848 0.14189 0.79923 0.0
C400 C 0.77217 0.03792 0.78822 0.0
C401 C 0.71656 0.11234 0.78359 0.0
N402 N 0.68945 0.27178 0.78366 0.0
N403 N 0.90307 0.98246 0.80443 0.0
C404 C 0.746 0.20132 0.78699 0.0
C405 C 0.85587 0.05278 0.79707 0.0
N406 N 0.86038 0.30073 0.79826 0.0
N407 N 0.74663 0.95294 0.78333 0.0
H408 H 0.96241 0.99114 0.81169 0.0
H409 H 0.87947 0.91686 0.80506 0.0
H410 H 0.68626 0.93945 0.77678 0.0
H411 H 0.78806 0.89663 0.78429 0.0
H412 H 0.83174 0.35988 0.79338 0.0
H413 H 0.91129 0.31078 0.80741 0.0
H414 H 0.7048 0.33946 0.78508 0.0
H415 H 0.62355 0.26225 0.78002 0.0
C416 C 0.24457 0.02397 0.79186 0.0
C417 C 0.2175 0.11214 0.79733 0.0
C418 C 0.36872 0.16629 0.79152 0.0
C419 C 0.39401 0.08127 0.78423 0.0
N420 N 0.35503 0.92917 0.77659 0.0
N421 N 0.24901 0.27115 0.79705 0.0
C422 C 0.3314 0.01002 0.78409 0.0
C423 C 0.27816 0.18429 0.79557 0.0
N424 N 0.18863 0.95321 0.79464 0.0
N425 N 0.43151 0.22973 0.79532 0.0
H426 H 0.18307 0.28759 0.79956 0.0
H427 H 0.28781 0.32654 0.79368 0.0
H428 H 0.49941 0.21837 0.79387 0.0
H429 H 0.41693 0.29069 0.8017 0.0
H430 H 0.20715 0.88621 0.79274 0.0
H431 H 0.12502 0.96097 0.80014 0.0
H432 H 0.31018 0.87752 0.774 0.0
H433 H 0.41974 0.91545 0.77219 0.0
C434 C 0.23453 0.89855 0.2961 0.0
C435 C 0.28497 0.81748 0.29702 0.0
C436 C 0.16017 0.73366 0.28352 0.0
C437 C 0.11083 0.81513 0.282 0.0
N438 N 0.09288 0.9723 0.28925 0.0
N439 N 0.30231 0.66042 0.2892 0.0
C440 C 0.14574 0.8969 0.289 0.0
C441 C 0.24941 0.73569 0.29012 0.0
N442 N 0.27393 0.9778 0.30094 0.0
N443 N 0.12012 0.6535 0.27943 0.0
H444 H 0.36663 0.65739 0.2946 0.0
H445 H 0.28499 0.60235 0.28207 0.0
H446 H 0.05542 0.64882 0.27425 0.0
H447 H 0.14801 0.5909 0.28244 0.0
H448 H 0.24524 0.04102 0.29903 0.0
H449 H 0.33925 0.98079 0.30577 0.0
H450 H 0.10973 0.03195 0.29583 0.0
H451 H 0.0289 0.97394 0.28361 0.0
C452 C 0.54966 0.04484 0.54501 0.0
C453 C 0.46729 0.0823 0.55094 0.0
C454 C 0.38962 0.94368 0.54247 0.0
C455 C 0.47102 0.90807 0.53568 0.0
N456 N 0.62776 0.92333 0.5294 0.0
N457 N 0.30747 0.07536 0.55299 0.0
C458 C 0.55085 0.95845 0.5366 0.0
C459 C 0.38677 0.03386 0.54906 0.0
N460 N 0.62698 0.09145 0.54779 0.0
N461 N 0.31568 0.89051 0.54296 0.0
H462 H 0.3036 0.1411 0.55797 0.0
H463 H 0.24546 0.0475 0.55016 0.0
H464 H 0.31481 0.82529 0.53767 0.0
H465 H 0.25684 0.9086 0.54955 0.0
H466 H 0.69045 0.06496 0.54567 0.0
H467 H 0.62864 0.15621 0.55328 0.0
H468 H 0.68631 0.95936 0.52774 0.0
H469 H 0.63241 0.85828 0.52409 0.0
C470 C 0.96307 0.9824 1.03536 0.0
C471 C 0.04182 0.94942 0.04401 0.0
C472 C 0.12023 0.08822 1.03581 0.0
C473 C 0.04012 0.12226 1.028 0.0
N474 N 0.88146 0.11033 1.02323 0.0
N475 N 0.19388 0.97039 0.05347 0.0
C476 C 0.96054 0.0717 1.02857 0.0
C477 C 0.11995 1.0026 0.04463 0.0
N478 N 0.89091 0.92764 1.03321 0.0
N479 N 0.19674 0.13713 1.03435 0.0
H480 H 0.19651 0.90607 0.05907 0.0
H481 H 0.25092 0.00782 0.05602 0.0
H482 H 0.1983 0.2003 1.02818 0.0
H483 H 0.25957 0.11386 1.03821 0.0
H484 H 0.83688 0.9431 1.02477 0.0
H485 H 0.88677 0.864 1.03902 0.0
H486 H 0.8195 0.08166 1.02565 0.0
H487 H 0.87674 0.17442 1.0175 0.0
C488 C 0.46834 0.81918 0.10399 0.0
C489 C 0.40083 0.80412 0.09087 0.0
C490 C 0.51032 0.76349 0.06762 0.0
C491 C 0.57768 0.78457 0.08037 0.0
N492 N 0.62507 0.8396 0.11007 0.0
N493 N 0.35275 0.7669 0.06021 0.0
C494 C 0.55801 0.81365 0.09847 0.0
C495 C 0.42039 0.77792 0.07262 0.0
N496 N 0.44631 0.83621 0.12182 0.0
N497 N 0.53313 0.72857 0.05094 0.0
H498 H 0.2857 0.77427 0.06358 0.0
H499 H 0.3623 0.75546 0.04632 0.0
H500 H 0.59929 0.71682 0.0472 0.0
H501 H 0.48755 0.70516 0.04132 0.0
H502 H 0.4921 0.83562 0.13256 0.0
H503 H 0.38077 0.84665 0.12612 0.0
H504 H 0.61436 0.87317 0.12238 0.0
H505 H 0.69256 0.83179 0.1071 0.0
C506 C 0.45972 0.22279 0.31701 0.0
C507 C 0.4327 0.19821 0.33485 0.0
C508 C 0.46167 0.34744 0.34629 0.0
C509 C 0.47836 0.37563 0.32813 0.0
N510 N 0.48802 0.34495 0.29593 0.0
N511 N 0.38804 0.23854 0.36531 0.0
C512 C 0.47632 0.31447 0.31335 0.0
C513 C 0.42661 0.26151 0.34908 0.0
N514 N 0.47194 0.15819 0.30392 0.0
N515 N 0.47803 0.40332 0.36079 0.0
H516 H 0.36109 0.17496 0.36755 0.0
H517 H 0.37466 0.2847 0.3757 0.0
H518 H 0.50519 0.46715 0.3594 0.0
H519 H 0.47366 0.38275 0.37436 0.0
H520 H 0.50092 0.17069 0.29127 0.0
H521 H 0.45623 0.09083 0.30611 0.0
H522 H 0.47762 0.30546 0.28434 0.0
H523 H 0.50525 0.41156 0.2932 0.0
C524 C 0.95573 0.26146 0.57089 0.0
C525 C 0.90182 0.26257 0.58666 0.0
C526 C 0.02648 0.22156 0.60606 0.0
C527 C 0.08205 0.22842 0.5907 0.0
N528 N 0.10587 0.26243 0.55888 0.0
N529 N 0.88608 0.26354 0.61955 0.0
C530 C 0.04857 0.25012 0.57312 0.0
C531 C 0.93759 0.24969 0.60439 0.0
N532 N 0.9175 0.26897 0.55397 0.0
N533 N 0.05943 0.18849 0.62219 0.0
H534 H 0.81983 0.28479 0.61885 0.0
H535 H 0.91123 0.26256 0.63284 0.0
H536 H 0.12536 0.16669 0.62366 0.0
H537 H 0.0198 0.17447 0.63347 0.0
H538 H 0.95211 0.25869 0.54182 0.0
H539 H 0.84958 0.28247 0.5522 0.0
H540 H 0.08634 0.28802 0.54623 0.0
H541 H 0.17426 0.25021 0.56005 0.0
C542 C 0.02727 0.80492 0.84428 0.0
C543 C 0.11332 0.82116 0.85175 0.0
C544 C 0.1485 0.65949 0.84956 0.0
C545 C 0.06711 0.64515 0.84013 0.0
N546 N 0.93166 0.70442 0.82692 0.0
N547 N 0.261 0.76636 0.85906 0.0
C548 C 0.00703 0.71798 0.83709 0.0
C549 C 0.17515 0.74889 0.85384 0.0
N550 N 0.9639 0.87149 0.84464 0.0
N551 N 0.2004 0.58731 0.85442 0.0
H552 H 0.28392 0.8311 0.86184 0.0
H553 H 0.31174 0.71817 0.85898 0.0
H554 H 0.18315 0.52107 0.85133 0.0
H555 H 0.25596 0.59218 0.86294 0.0
H556 H 0.89734 0.86118 0.84118 0.0
H557 H 0.97614 0.93581 0.84976 0.0
H558 H 0.89071 0.75649 0.82226 0.0
H559 H 0.91262 0.64086 0.82229 0.0
C560 C 0.48386 0.25652 0.97384 0.0
C561 C 0.45576 0.24768 0.99218 0.0
C562 C 0.6072 0.27 1.0031 0.0
C563 C 0.63168 0.29107 0.98491 0.0
N564 N 0.59276 0.32097 0.95358 0.0
N565 N 0.48607 0.24801 1.02445 0.0
C566 C 0.56944 0.28989 0.97047 0.0
C567 C 0.51644 0.25414 1.00691 0.0
N568 N 0.42826 0.23413 0.95972 0.0
N569 N 0.67084 0.2626 1.01647 0.0
H570 H 0.42016 0.2311 1.02736 0.0
H571 H 0.52482 0.26258 1.03591 0.0
H572 H 0.73768 0.27781 1.01425 0.0
H573 H 0.65821 0.23755 1.02947 0.0
H574 H 0.44818 0.23293 0.94609 0.0
H575 H 0.36528 0.20704 0.96171 0.0
H576 H 0.54752 0.3292 0.94286 0.0
H577 H 0.65584 0.34701 0.9509 0.0
C578 C 0.9695 0.25231 0.23286 0.0
C579 C 0.97759 0.21255 0.2503 0.0
C580 C 0.94465 0.35588 0.2649 0.0
C581 C 0.92552 0.39109 0.24736 0.0
N582 N 0.89648 0.36864 0.21531 0.0
N583 N 0.96852 0.22137 0.28305 0.0
C584 C 0.92913 0.33711 0.23157 0.0
C585 C 0.96448 0.2631 0.26646 0.0
N586 N 0.9982 0.2079 0.21757 0.0
N587 N 0.9462 0.41175 0.27975 0.0
H588 H 0.98738 0.15384 0.28431 0.0
H589 H 0.95045 0.25252 0.29527 0.0
H590 H 0.92752 0.47946 0.27887 0.0
H591 H 0.96881 0.39184 0.29262 0.0
H592 H 0.99908 0.2373 0.20465 0.0
H593 H 0.03028 0.14555 0.2181 0.0
H594 H 0.89159 0.32896 0.20359 0.0
H595 H 0.86591 0.43171 0.21416 0.0
C596 C 0.00426 0.77329 0.51847 0.0
C597 C 0.05814 0.78887 0.50303 0.0
C598 C 0.93709 0.75226 0.48247 0.0
C599 C 0.88099 0.74277 0.49771 0.0
N600 N 0.85445 0.75507 0.53012 0.0
N601 N 0.0704 0.82005 0.47077 0.0
C602 C 0.91252 0.75628 0.51578 0.0
C603 C 0.02221 0.78823 0.48516 0.0
N604 N 0.04206 0.77192 0.53549 0.0
N605 N 0.90809 0.72749 0.46545 0.0
H606 H 0.13305 0.84882 0.47237 0.0
H607 H 0.04428 0.82705 0.45762 0.0
H608 H 0.8452 0.6998 0.46321 0.0
H609 H 0.94916 0.72595 0.454 0.0
H610 H 0.00862 0.75117 0.54718 0.0
H611 H 0.10872 0.78911 0.53764 0.0
H612 H 0.87188 0.77386 0.54338 0.0
H613 H 0.78735 0.73862 0.52849 0.0
C614 C 0.61102 0.6453 0.74092 0.0
C615 C 0.56216 0.57322 0.73316 0.0
C616 C 0.47047 0.68023 0.71588 0.0
C617 C 0.52185 0.753 0.72281 0.0
N618 N 0.65508 0.80183 0.73854 0.0
N619 N 0.46362 0.52023 0.70955 0.0
C620 C 0.59659 0.73477 0.73434 0.0
C621 C 0.49869 0.59043 0.71924 0.0
N622 N 0.66896 0.62855 0.75497 0.0
N623 N 0.39093 0.69637 0.70724 0.0
H624 H 0.48326 0.4536 0.71181 0.0
H625 H 0.42273 0.52896 0.69813 0.0
H626 H 0.36359 0.76063 0.70569 0.0
H627 H 0.34702 0.64546 0.7035 0.0
H628 H 0.69874 0.67917 0.7627 0.0
H629 H 0.68357 0.56336 0.75942 0.0
H630 H 0.71466 0.79076 0.74558 0.0
H631 H 0.6482 0.86716 0.73352 0.0
C632 C 0.03598 0.34882 0.10018 0.0
C633 C 0.9792 0.39379 0.08732 0.0
C634 C 0.93201 0.24293 0.07609 0.0
C635 C 0.99552 0.19921 0.08774 0.0
N636 N 0.11708 0.21349 0.10912 0.0
N637 N 0.87511 0.38095 0.06226 0.0
C638 C 0.05067 0.25328 0.09909 0.0
C639 C 0.92726 0.33991 0.07515 0.0
N640 N 0.07091 0.39665 0.11449 0.0
N641 N 0.87556 0.19121 0.06585 0.0
H642 H 0.8663 0.4503 0.06157 0.0
H643 H 0.84399 0.34704 0.05156 0.0
H644 H 0.88232 0.12149 0.06483 0.0
H645 H 0.82 0.21623 0.05892 0.0
H646 H 0.1053 0.36715 0.12535 0.0
H647 H 0.05604 0.46443 0.11678 0.0
H648 H 0.16633 0.24975 0.11592 0.0
H649 H 0.12773 0.14412 0.1094 0.0
C650 C 0.90401 0.72046 0.32946 0.0
C651 C 0.85026 0.78147 0.33983 0.0
C652 C 0.98933 0.85788 0.35013 0.0
C653 C 0.04323 0.79398 0.3407 0.0
N654 N 0.05138 0.65942 0.32235 0.0
N655 N 0.84644 0.89154 0.36412 0.0
C656 C 1.00006 0.72372 0.33071 0.0
C657 C 0.89446 0.84595 0.35117 0.0
N658 N 0.86372 0.66094 0.31789 0.0
N659 N 0.02858 0.93013 0.35838 0.0
H660 H 0.77902 0.87975 0.36649 0.0
H661 H 0.87521 0.93255 0.37405 0.0
H662 H 0.09734 0.93942 0.35875 0.0
H663 H 0.99262 0.98474 0.36353 0.0
H664 H 0.89777 0.62199 0.30833 0.0
H665 H 0.79495 0.65357 0.31707 0.0
H666 H 0.02649 0.5998 0.31694 0.0
H667 H 0.12054 0.66401 0.32141 0.0
C668 C 0.43084 0.68831 0.60478 0.0
C669 C 0.49716 0.64423 0.59394 0.0
C670 C 0.55244 0.79526 0.58497 0.0
C671 C 0.48163 0.83846 0.59472 0.0
N672 N 0.34543 0.82391 0.61169 0.0
N673 N 0.61888 0.65748 0.57278 0.0
C674 C 0.41815 0.78411 0.6038 0.0
C675 C 0.55775 0.69839 0.58387 0.0
N676 N 0.38375 0.63905 0.61716 0.0
N677 N 0.61521 0.84741 0.57671 0.0
H678 H 0.62814 0.58806 0.57233 0.0
H679 H 0.65757 0.69135 0.56328 0.0
H680 H 0.6093 0.91722 0.57576 0.0
H681 H 0.67456 0.82261 0.57131 0.0
H682 H 0.34114 0.66745 0.62681 0.0
H683 H 0.39502 0.57053 0.61931 0.0
H684 H 0.29123 0.78789 0.61656 0.0
H685 H 0.33547 0.89338 0.61202 0.0
C686 C 0.61743 0.28564 0.8332 0.0
C687 C 0.67384 0.2172 0.84087 0.0
C688 C 0.53836 0.13371 0.84959 0.0
C689 C 0.4827 0.20517 0.84351 0.0
N690 N 0.47153 0.35861 0.83327 0.0
N691 N 0.68217 0.09274 0.8621 0.0
C692 C 0.52293 0.28388 0.83638 0.0
C693 C 0.63253 0.14572 0.85062 0.0
N694 N 0.65247 0.35103 0.82239 0.0
N695 N 0.50139 0.05339 0.85437 0.0
H696 H 0.7491 0.10503 0.865 0.0
H697 H 0.65417 0.04481 0.87068 0.0
H698 H 0.43293 0.04168 0.85367 0.0
H699 H 0.53946 0.99605 0.85718 0.0
H700 H 0.61321 0.39555 0.8148 0.0
H701 H 0.72004 0.35637 0.81962 0.0
H702 H 0.49805 0.42134 0.83018 0.0
H703 H 0.40255 0.35924 0.83506 0.0
C704 C 0.10235 0.83442 0.99637 0.0
C705 C 0.04522 0.88801 0.9851 0.0
C706 C 0.96987 0.74788 0.97472 0.0
C707 C 0.03026 0.69386 0.98504 0.0
N708 N 0.15754 0.68562 1.00516 0.0
N709 N 0.93991 0.89166 0.96012 0.0
C710 C 0.09766 0.73746 0.99565 0.0
C711 C 0.98276 0.84339 0.97346 0.0
N712 N 0.1593 0.87604 1.00826 0.0
N713 N 0.90003 0.70808 0.96587 0.0
H714 H 0.95183 0.95974 0.95781 0.0
H715 H 0.9007 0.8626 0.94995 0.0
H716 H 0.89037 0.63873 0.96564 0.0
H717 H 0.84749 0.74421 0.96002 0.0
H718 H 0.1957 0.84284 1.01836 0.0
H719 H 0.16689 0.94552 1.00879 0.0
H720 H 0.21489 0.71038 1.01136 0.0
H721 H 0.15141 0.61602 1.00639 0.0
C722 C 0.39355 0.73962 0.22853 0.0
C723 C 0.34851 0.80769 0.23889 0.0
C724 C 0.49715 0.86793 0.2477 0.0
C725 C 0.54141 0.79531 0.23851 0.0
N726 N 0.52926 0.65427 0.22245 0.0
N727 N 0.35936 0.9337 0.25952 0.0
C728 C 0.48866 0.72857 0.22978 0.0
C729 C 0.40104 0.87145 0.24869 0.0
N730 N 0.3458 0.68902 0.21635 0.0
N731 N 0.5475 0.93402 0.25557 0.0
H732 H 0.29035 0.94043 0.26015 0.0
H733 H 0.39235 0.9754 0.26872 0.0
H734 H 0.61678 0.9299 0.25659 0.0
H735 H 0.52162 0.99444 0.26052 0.0
H736 H 0.37486 0.64487 0.20701 0.0
H737 H 0.27777 0.69875 0.21401 0.0
H738 H 0.49443 0.59801 0.21793 0.0
H739 H 0.59819 0.64529 0.22226 0.0
C740 C 0.40006 0.30113 0.48511 0.0
C741 C 0.4765 0.34271 0.49313 0.0
C742 C 0.53978 0.1898 0.49839 0.0
C743 C 0.45977 0.149 0.49185 0.0
N744 N 0.3081 0.16795 0.48166 0.0
N745 N 0.61615 0.32417 0.50912 0.0
C746 C 0.38808 0.20551 0.4862 0.0
C747 C 0.54575 0.28621 0.50016 0.0
N748 N 0.34136 0.35251 0.4752 0.0
N749 N 0.61103 0.13608 0.50278 0.0
H750 H 0.62515 0.39342 0.51001 0.0
H751 H 0.66278 0.28752 0.51667 0.0
H752 H 0.60746 0.06605 0.50295 0.0
H753 H 0.67475 0.16029 0.5054 0.0
H754 H 0.28944 0.32572 0.46747 0.0
H755 H 0.35058 0.42101 0.47285 0.0
H756 H 0.25019 0.20563 0.4795 0.0
H757 H 0.29752 0.09869 0.4816 0.0
C758 C 0.98909 0.09175 0.73227 0.0
C759 C 0.94156 0.15985 0.74209 0.0
C760 C 0.08711 0.23106 0.74938 0.0
C761 C 0.1337 0.15795 0.74103 0.0
N762 N 0.12811 0.01123 0.72702 0.0
N763 N 0.94782 0.29437 0.76067 0.0
C764 C 0.08426 0.08578 0.73342 0.0
C765 C 0.99135 0.22987 0.75075 0.0
N766 N 0.94372 0.03671 0.72051 0.0
N767 N 0.1349 0.30235 0.75593 0.0
H768 H 0.87881 0.29975 0.76124 0.0
H769 H 0.97961 0.34052 0.76914 0.0
H770 H 0.20442 0.30218 0.75652 0.0
H771 H 0.10664 0.36315 0.76008 0.0
H772 H 0.97491 0.99184 0.7116 0.0
H773 H 0.87565 0.04378 0.71789 0.0
H774 H 0.09569 0.95206 0.72335 0.0
H775 H 0.19738 0.00536 0.72685 0.0
loop_
_geom_bond_atom_site_label_1
_geom_bond_atom_site_label_2
_geom_bond_distance
_geom_bond_site_symmetry_2
_ccdc_geom_bond_type
Zn0 N4 2.020 . S
Zn0 O8 2.019 . S
Zn0 N10 2.119 . S
Zn0 O18 1.975 . S
C1 N2 1.334 1_655 S
C1 N5 1.336 . S
N2 C1 1.334 1_455 S
N2 C3 1.334 . S
C3 N2 1.334 . S
C3 N4 1.336 . S
N4 Zn0 2.020 . S
N4 C3 1.336 . S
N4 N5 1.354 1_455 S
N5 C1 1.336 . S
N5 N4 1.354 1_655 S
N5 Zn9 2.020 . S
C6 O7 1.244 1_655 S
C6 O30 1.257 . S
O7 C6 1.244 1_455 S
O8 Zn0 2.019 . S
O8 C28 1.257 1_565 S
Zn9 N5 2.020 . S
Zn9 O16 1.975 . S
Zn9 N25 2.119 . S
Zn9 O30 2.019 . S
N10 Zn0 2.119 . S
N10 C12 1.334 . S
N10 C13 1.328 . S
C11 C12 1.391 . S
C11 N14 1.329 . S
C11 H32 0.930 . S
C12 N10 1.334 . S
C12 C11 1.391 . S
C12 H19 0.930 . S
C13 N10 1.328 . S
C13 C15 1.392 . S
C13 H20 0.930 . S
N14 C11 1.329 . S
N14 C15 1.331 . S
C15 C13 1.392 . S
C15 N14 1.331 . S
O16 Zn9 1.975 . S
O16 C17 1.252 1_655 S
C17 O16 1.252 1_455 S
C17 O18 1.252 . S
O18 Zn0 1.975 . S
O18 C17 1.252 . S
H19 C12 0.930 . S
H20 C13 0.930 . S
C21 C22 1.392 . S
C21 N25 1.328 . S
C21 H27 0.930 . S
C22 C21 1.392 . S
C22 N26 1.331 . S
C23 C24 1.391 . S
C23 N26 1.329 . S
C23 H33 0.930 . S
C24 C23 1.391 . S
C24 N25 1.334 . S
C24 H31 0.930 . S
N25 Zn9 2.119 . S
N25 C21 1.328 . S
N25 C24 1.334 . S
N26 C22 1.331 . S
N26 C23 1.329 . S
H27 C21 0.930 . S
C28 O8 1.257 1_545 S
C28 O29 1.244 1_445 S
O29 C28 1.244 1_665 S
O30 C6 1.257 . S
O30 Zn9 2.019 . S
H31 C24 0.930 . S
H32 C11 0.930 . S
H33 C23 0.930 . S
Zn34 N38 2.020 . S
Zn34 O42 2.019 . S
Zn34 N44 2.119 . S
Zn34 O52 1.975 . S
C35 N36 1.334 . S
C35 N39 1.336 . S
N36 C35 1.334 . S
N36 C37 1.334 . S
C37 N36 1.334 . S
C37 N38 1.336 . S
N38 Zn34 2.020 . S
N38 C37 1.336 . S
N38 N39 1.354 . S
N39 C35 1.336 . S
N39 N38 1.354 . S
N39 Zn43 2.020 . S
C40 O41 1.244 . S
C40 O64 1.257 . S
O41 C40 1.244 . S
O42 Zn34 2.019 . S
O42 C62 1.257 . S
Zn43 N39 2.020 . S
Zn43 O50 1.975 . S
Zn43 N59 2.119 . S
Zn43 O64 2.019 . S
N44 Zn34 2.119 . S
N44 C46 1.334 . S
N44 C47 1.328 1_565 S
C45 C46 1.391 1_545 S
C45 N48 1.329 . S
C45 H66 0.930 . S
C46 N44 1.334 . S
C46 C45 1.391 1_565 S
C46 H53 0.930 . S
C47 N44 1.328 1_545 S
C47 C49 1.392 . S
C47 H54 0.930 . S
N48 C45 1.329 . S
N48 C49 1.331 . S
C49 C47 1.392 . S
C49 N48 1.331 . S
O50 Zn43 1.975 . S
O50 C51 1.252 . S
C51 O50 1.252 . S
C51 O52 1.252 . S
O52 Zn34 1.975 . S
O52 C51 1.252 . S
H53 C46 0.930 . S
H54 C47 0.930 . S
C55 C56 1.392 . S
C55 N59 1.328 . S
C55 H61 0.930 . S
C56 C55 1.392 . S
C56 N60 1.331 . S
C57 C58 1.391 . S
C57 N60 1.329 . S
C57 H67 0.930 . S
C58 C57 1.391 . S
C58 N59 1.334 . S
C58 H65 0.930 . S
N59 Zn43 2.119 . S
N59 C55 1.328 . S
N59 C58 1.334 . S
N60 C56 1.331 . S
N60 C57 1.329 . S
H61 C55 0.930 . S
C62 O42 1.257 . S
C62 O63 1.244 . S
O63 C62 1.244 . S
O64 C40 1.257 . S
O64 Zn43 2.019 . S
H65 C58 0.930 . S
H66 C45 0.930 . S
H67 C57 0.930 . S
Zn68 N72 2.020 . S
Zn68 O76 2.019 . S
Zn68 N78 2.119 . S
Zn68 O86 1.975 . S
C69 N70 1.334 . S
C69 N73 1.336 . S
N70 C69 1.334 . S
N70 C71 1.334 . S
C71 N70 1.334 . S
C71 N72 1.336 . S
N72 Zn68 2.020 . S
N72 C71 1.336 . S
N72 N73 1.354 . S
N73 C69 1.336 . S
N73 N72 1.354 . S
N73 Zn77 2.020 . S
C74 O75 1.244 1_565 S
C74 O98 1.257 1_565 S
O75 C74 1.244 1_545 S
O76 Zn68 2.019 . S
O76 C96 1.257 . S
Zn77 N73 2.020 . S
Zn77 O84 1.975 . S
Zn77 N93 2.119 . S
Zn77 O98 2.019 . S
N78 Zn68 2.119 . S
N78 C80 1.334 . S
N78 C81 1.328 . S
C79 C80 1.391 . S
C79 N82 1.329 . S
C79 H100 0.930 . S
C80 N78 1.334 . S
C80 C79 1.391 . S
C80 H87 0.930 . S
C81 N78 1.328 . S
C81 C83 1.392 . S
C81 H88 0.930 . S
N82 C79 1.329 . S
N82 C83 1.331 . S
C83 C81 1.392 . S
C83 N82 1.331 . S
O84 Zn77 1.975 . S
O84 C85 1.252 . S
C85 O84 1.252 . S
C85 O86 1.252 . S
O86 Zn68 1.975 . S
O86 C85 1.252 . S
H87 C80 0.930 . S
H88 C81 0.930 . S
C89 C90 1.392 . S
C89 N93 1.328 . S
C89 H95 0.930 . S
C90 C89 1.392 . S
C90 N94 1.331 . S
C91 C92 1.391 . S
C91 N94 1.329 . S
C91 H101 0.930 . S
C92 C91 1.391 . S
C92 N93 1.334 . S
C92 H99 0.930 . S
N93 Zn77 2.119 . S
N93 C89 1.328 . S
N93 C92 1.334 . S
N94 C90 1.331 . S
N94 C91 1.329 . S
H95 C89 0.930 . S
C96 O76 1.257 . S
C96 O97 1.244 . S
O97 C96 1.244 . S
O98 C74 1.257 1_545 S
O98 Zn77 2.019 . S
H99 C92 0.930 . S
H100 C79 0.930 . S
H101 C91 0.930 . S
Zn102 N106 2.020 . S
Zn102 O110 2.019 . S
Zn102 N112 2.119 . S
Zn102 O120 1.975 . S
C103 N104 1.334 . S
C103 N107 1.336 . S
N104 C103 1.334 . S
N104 C105 1.334 1_455 S
C105 N104 1.334 1_655 S
C105 N106 1.336 . S
N106 Zn102 2.020 . S
N106 C105 1.336 . S
N106 N107 1.354 1_655 S
N107 C103 1.336 . S
N107 N106 1.354 1_455 S
N107 Zn111 2.020 . S
C108 O109 1.244 . S
C108 O132 1.257 . S
O109 C108 1.244 . S
O110 Zn102 2.019 . S
O110 C130 1.257 . S
Zn111 N107 2.020 . S
Zn111 O118 1.975 . S
Zn111 N127 2.119 . S
Zn111 O132 2.019 . S
N112 Zn102 2.119 . S
N112 C114 1.334 1_655 S
N112 C115 1.328 . S
C113 C114 1.391 . S
C113 N116 1.329 1_455 S
C113 H134 0.930 . S
C114 N112 1.334 1_455 S
C114 C113 1.391 . S
C114 H121 0.930 . S
C115 N112 1.328 . S
C115 C117 1.392 . S
C115 H122 0.930 . S
N116 C113 1.329 1_655 S
N116 C117 1.331 . S
C117 C115 1.392 . S
C117 N116 1.331 . S
O118 Zn111 1.975 . S
O118 C119 1.252 . S
C119 O118 1.252 . S
C119 O120 1.252 1_455 S
O120 Zn102 1.975 . S
O120 C119 1.252 1_655 S
H121 C114 0.930 . S
H122 C115 0.930 . S
C123 C124 1.392 . S
C123 N127 1.328 1_565 S
C123 H129 0.930 . S
C124 C123 1.392 . S
C124 N128 1.331 . S
C125 C126 1.391 1_565 S
C125 N128 1.329 1_655 S
C125 H135 0.930 . S
C126 C125 1.391 1_545 S
C126 N127 1.334 1_655 S
C126 H133 0.930 . S
N127 Zn111 2.119 . S
N127 C123 1.328 1_545 S
N127 C126 1.334 1_455 S
N128 C124 1.331 . S
N128 C125 1.329 1_455 S
H129 C123 0.930 . S
C130 O110 1.257 . S
C130 O131 1.244 . S
O131 C130 1.244 . S
O132 C108 1.257 . S
O132 Zn111 2.019 . S
H133 C126 0.930 . S
H134 C113 0.930 . S
H135 C125 0.930 . S
Zn136 N140 2.020 . S
Zn136 O144 2.019 . S
Zn136 N146 2.119 . S
Zn136 O154 1.975 . S
C137 N138 1.334 . S
C137 N141 1.336 . S
N138 C137 1.334 . S
N138 C139 1.334 1_455 S
C139 N138 1.334 1_655 S
C139 N140 1.336 . S
N140 Zn136 2.020 . S
N140 C139 1.336 . S
N140 N141 1.354 1_655 S
N141 C137 1.336 . S
N141 N140 1.354 1_455 S
N141 Zn145 2.020 . S
C142 O143 1.244 1_465 S
C142 O166 1.257 1_565 S
O143 C142 1.244 1_645 S
O144 Zn136 2.019 . S
O144 C164 1.257 . S
Zn145 N141 2.020 . S
Zn145 O152 1.975 . S
Zn145 N161 2.119 . S
Zn145 O166 2.019 . S
N146 Zn136 2.119 . S
N146 C148 1.334 . S
N146 C149 1.328 . S
C147 C148 1.391 . S
C147 N150 1.329 . S
C147 H168 0.930 . S
C148 N146 1.334 . S
C148 C147 1.391 . S
C148 H155 0.930 . S
C149 N146 1.328 . S
C149 C151 1.392 . S
C149 H156 0.930 . S
N150 C147 1.329 . S
N150 C151 1.331 . S
C151 C149 1.392 . S
C151 N150 1.331 . S
O152 Zn145 1.975 . S
O152 C153 1.252 . S
C153 O152 1.252 . S
C153 O154 1.252 1_455 S
O154 Zn136 1.975 . S
O154 C153 1.252 1_655 S
H155 C148 0.930 . S
H156 C149 0.930 . S
C157 C158 1.392 . S
C157 N161 1.328 . S
C157 H163 0.930 . S
C158 C157 1.392 . S
C158 N162 1.331 . S
C159 C160 1.391 . S
C159 N162 1.329 . S
C159 H169 0.930 . S
C160 C159 1.391 . S
C160 N161 1.334 . S
C160 H167 0.930 . S
N161 Zn145 2.119 . S
N161 C157 1.328 . S
N161 C160 1.334 . S
N162 C158 1.331 . S
N162 C159 1.329 . S
H163 C157 0.930 . S
C164 O144 1.257 . S
C164 O165 1.244 1_655 S
O165 C164 1.244 1_455 S
O166 C142 1.257 1_545 S
O166 Zn145 2.019 . S
H167 C160 0.930 . S
H168 C147 0.930 . S
H169 C159 0.930 . S
Zn170 N174 2.020 . S
Zn170 O178 2.019 . S
Zn170 N180 2.119 . S
Zn170 O188 1.975 . S
C171 N172 1.334 . S
C171 N175 1.336 . S
N172 C171 1.334 . S
N172 C173 1.334 1_455 S
C173 N172 1.334 1_655 S
C173 N174 1.336 . S
N174 Zn170 2.020 . S
N174 C173 1.336 . S
N174 N175 1.354 1_655 S
N175 C171 1.336 . S
N175 N174 1.354 1_455 S
N175 Zn179 2.020 . S
C176 O177 1.244 . S
C176 O200 1.257 . S
O177 C176 1.244 . S
O178 Zn170 2.019 . S
O178 C198 1.257 . S
Zn179 N175 2.020 . S
Zn179 O186 1.975 . S
Zn179 N195 2.119 . S
Zn179 O200 2.019 . S
N180 Zn170 2.119 . S
N180 C182 1.334 1_655 S
N180 C183 1.328 . S
C181 C182 1.391 . S
C181 N184 1.329 1_455 S
C181 H202 0.930 . S
C182 N180 1.334 1_455 S
C182 C181 1.391 . S
C182 H189 0.930 . S
C183 N180 1.328 . S
C183 C185 1.392 . S
C183 H190 0.930 . S
N184 C181 1.329 1_655 S
N184 C185 1.331 . S
C185 C183 1.392 . S
C185 N184 1.331 . S
O186 Zn179 1.975 . S
O186 C187 1.252 . S
C187 O186 1.252 . S
C187 O188 1.252 1_455 S
O188 Zn170 1.975 . S
O188 C187 1.252 1_655 S
H189 C182 0.930 . S
H190 C183 0.930 . S
C191 C192 1.392 . S
C191 N195 1.328 1_545 S
C191 H197 0.930 . S
C192 C191 1.392 . S
C192 N196 1.331 . S
C193 C194 1.391 1_545 S
C193 N196 1.329 1_655 S
C193 H203 0.930 . S
C194 C193 1.391 1_565 S
C194 N195 1.334 1_655 S
C194 H201 0.930 . S
N195 Zn179 2.119 . S
N195 C191 1.328 1_565 S
N195 C194 1.334 1_455 S
N196 C192 1.331 . S
N196 C193 1.329 1_455 S
H197 C191 0.930 . S
C198 O178 1.257 . S
C198 O199 1.244 . S
O199 C198 1.244 . S
O200 C176 1.257 . S
O200 Zn179 2.019 . S
H201 C194 0.930 . S
H202 C181 0.930 . S
H203 C193 0.930 . S
Zn204 N208 2.020 . S
Zn204 O212 2.019 . S
Zn204 N214 2.119 . S
Zn204 O222 1.975 . S
C205 N206 1.334 . S
C205 N209 1.336 . S
N206 C205 1.334 . S
N206 C207 1.334 . S
C207 N206 1.334 . S
C207 N208 1.336 . S
N208 Zn204 2.020 . S
N208 C207 1.336 . S
N208 N209 1.354 . S
N209 C205 1.336 . S
N209 N208 1.354 . S
N209 Zn213 2.020 . S
C210 O211 1.244 . S
C210 O234 1.257 . S
O211 C210 1.244 . S
O212 Zn204 2.019 . S
O212 C232 1.257 1_565 S
Zn213 N209 2.020 . S
Zn213 O220 1.975 . S
Zn213 N229 2.119 . S
Zn213 O234 2.019 . S
N214 Zn204 2.119 . S
N214 C216 1.334 . S
N214 C217 1.328 . S
C215 C216 1.391 . S
C215 N218 1.329 . S
C215 H236 0.930 . S
C216 N214 1.334 . S
C216 C215 1.391 . S
C216 H223 0.930 . S
C217 N214 1.328 . S
C217 C219 1.392 . S
C217 H224 0.930 . S
N218 C215 1.329 . S
N218 C219 1.331 . S
C219 C217 1.392 . S
C219 N218 1.331 . S
O220 Zn213 1.975 . S
O220 C221 1.252 . S
C221 O220 1.252 . S
C221 O222 1.252 . S
O222 Zn204 1.975 . S
O222 C221 1.252 . S
H223 C216 0.930 . S
H224 C217 0.930 . S
C225 C226 1.392 . S
C225 N229 1.328 . S
C225 H231 0.930 . S
C226 C225 1.392 . S
C226 N230 1.331 . S
C227 C228 1.391 . S
C227 N230 1.329 . S
C227 H237 0.930 . S
C228 C227 1.391 . S
C228 N229 1.334 . S
C228 H235 0.930 . S
N229 Zn213 2.119 . S
N229 C225 1.328 . S
N229 C228 1.334 . S
N230 C226 1.331 . S
N230 C227 1.329 . S
H231 C225 0.930 . S
C232 O212 1.257 1_545 S
C232 O233 1.244 1_545 S
O233 C232 1.244 1_565 S
O234 C210 1.257 . S
O234 Zn213 2.019 . S
H235 C228 0.930 . S
H236 C215 0.930 . S
H237 C227 0.930 . S
Zn238 N242 2.020 . S
Zn238 O246 2.019 . S
Zn238 N248 2.119 . S
Zn238 O256 1.975 . S
C239 N240 1.334 . S
C239 N243 1.336 . S
N240 C239 1.334 . S
N240 C241 1.334 . S
C241 N240 1.334 . S
C241 N242 1.336 . S
N242 Zn238 2.020 . S
N242 C241 1.336 . S
N242 N243 1.354 . S
N243 C239 1.336 . S
N243 N242 1.354 . S
N243 Zn247 2.020 . S
C244 O245 1.244 . S
C244 O268 1.257 . S
O245 C244 1.244 . S
O246 Zn238 2.019 . S
O246 C266 1.257 . S
Zn247 N243 2.020 . S
Zn247 O254 1.975 . S
Zn247 N263 2.119 . S
Zn247 O268 2.019 . S
N248 Zn238 2.119 . S
N248 C250 1.334 . S
N248 C251 1.328 1_545 S
C249 C250 1.391 1_565 S
C249 N252 1.329 . S
C249 H270 0.930 . S
C250 N248 1.334 . S
C250 C249 1.391 1_545 S
C250 H257 0.930 . S
C251 N248 1.328 1_565 S
C251 C253 1.392 . S
C251 H258 0.930 . S
N252 C249 1.329 . S
N252 C253 1.331 . S
C253 C251 1.392 . S
C253 N252 1.331 . S
O254 Zn247 1.975 . S
O254 C255 1.252 . S
C255 O254 1.252 . S
C255 O256 1.252 . S
O256 Zn238 1.975 . S
O256 C255 1.252 . S
H257 C250 0.930 . S
H258 C251 0.930 . S
C259 C260 1.392 . S
C259 N263 1.328 . S
C259 H265 0.930 . S
C260 C259 1.392 . S
C260 N264 1.331 . S
C261 C262 1.391 . S
C261 N264 1.329 . S
C261 H271 0.930 . S
C262 C261 1.391 . S
C262 N263 1.334 . S
C262 H269 0.930 . S
N263 Zn247 2.119 . S
N263 C259 1.328 . S
N263 C262 1.334 . S
N264 C260 1.331 . S
N264 C261 1.329 . S
H265 C259 0.930 . S
C266 O246 1.257 . S
C266 O267 1.244 . S
O267 C266 1.244 . S
O268 C244 1.257 . S
O268 Zn247 2.019 . S
H269 C262 0.930 . S
H270 C249 0.930 . S
H271 C261 0.930 . S
C272 C273 1.363 1_655 S
C272 C278 1.379 . S
C272 N280 1.356 . S
C273 C272 1.363 1_455 S
C273 C279 1.363 . S
C274 C275 1.363 . S
C274 C279 1.379 . S
C274 N281 1.356 . S
C275 C274 1.363 . S
C275 C278 1.363 1_455 S
N276 C278 1.356 . S
N276 H288 0.984 . S
N276 H289 0.985 . S
N277 C279 1.356 . S
N277 H282 0.984 . S
N277 H283 0.985 . S
C278 C272 1.379 . S
C278 C275 1.363 1_655 S
C278 N276 1.356 . S
C279 C273 1.363 . S
C279 C274 1.379 . S
C279 N277 1.356 . S
N280 C272 1.356 . S
N280 H286 0.984 . S
N280 H287 0.984 . S
N281 C274 1.356 . S
N281 H284 0.984 . S
N281 H285 0.985 . S
H282 N277 0.984 . S
H283 N277 0.985 . S
H284 N281 0.984 . S
H285 N281 0.985 . S
H286 N280 0.984 . S
H287 N280 0.984 . S
H288 N276 0.984 . S
H289 N276 0.985 . S
C290 C291 1.363 . S
C290 C296 1.379 . S
C290 N298 1.356 . S
C291 C290 1.363 . S
C291 C297 1.363 . S
C292 C293 1.363 . S
C292 C297 1.379 . S
C292 N299 1.356 . S
C293 C292 1.363 . S
C293 C296 1.363 . S
N294 C296 1.356 . S
N294 H306 0.984 . S
N294 H307 0.985 . S
N295 C297 1.356 . S
N295 H300 0.984 . S
N295 H301 0.985 . S
C296 C290 1.379 . S
C296 C293 1.363 . S
C296 N294 1.356 . S
C297 C291 1.363 . S
C297 C292 1.379 . S
C297 N295 1.356 . S
N298 C290 1.356 . S
N298 H304 0.984 . S
N298 H305 0.984 . S
N299 C292 1.356 . S
N299 H302 0.984 . S
N299 H303 0.985 . S
H300 N295 0.984 . S
H301 N295 0.985 . S
H302 N299 0.984 . S
H303 N299 0.985 . S
H304 N298 0.984 . S
H305 N298 0.984 . S
H306 N294 0.984 . S
H307 N294 0.985 . S
C308 C309 1.363 . S
C308 C314 1.379 . S
C308 N316 1.356 . S
C309 C308 1.363 . S
C309 C315 1.363 . S
C310 C311 1.363 . S
C310 C315 1.379 . S
C310 N317 1.356 . S
C311 C310 1.363 . S
C311 C314 1.363 . S
N312 C314 1.356 . S
N312 H324 0.984 . S
N312 H325 0.985 . S
N313 C315 1.356 . S
N313 H318 0.984 . S
N313 H319 0.985 . S
C314 C308 1.379 . S
C314 C311 1.363 . S
C314 N312 1.356 . S
C315 C309 1.363 . S
C315 C310 1.379 . S
C315 N313 1.356 . S
N316 C308 1.356 . S
N316 H322 0.984 . S
N316 H323 0.984 . S
N317 C310 1.356 . S
N317 H320 0.984 . S
N317 H321 0.985 . S
H318 N313 0.984 . S
H319 N313 0.985 . S
H320 N317 0.984 . S
H321 N317 0.985 . S
H322 N316 0.984 . S
H323 N316 0.984 . S
H324 N312 0.984 . S
H325 N312 0.985 . S
C326 C327 1.363 . S
C326 C332 1.379 . S
C326 N334 1.356 . S
C327 C326 1.363 . S
C327 C333 1.363 1_455 S
C328 C329 1.363 1_655 S
C328 C333 1.379 . S
C328 N335 1.356 . S
C329 C328 1.363 1_455 S
C329 C332 1.363 . S
N330 C332 1.356 . S
N330 H342 0.984 . S
N330 H343 0.985 . S
N331 C333 1.356 . S
N331 H336 0.984 . S
N331 H337 0.985 . S
C332 C326 1.379 . S
C332 C329 1.363 . S
C332 N330 1.356 . S
C333 C327 1.363 1_655 S
C333 C328 1.379 . S
C333 N331 1.356 . S
N334 C326 1.356 . S
N334 H340 0.984 . S
N334 H341 0.984 . S
N335 C328 1.356 . S
N335 H338 0.984 . S
N335 H339 0.985 . S
H336 N331 0.984 . S
H337 N331 0.985 . S
H338 N335 0.984 . S
H339 N335 0.985 . S
H340 N334 0.984 . S
H341 N334 0.984 . S
H342 N330 0.984 . S
H343 N330 0.985 . S
C344 C345 1.363 . S
C344 C350 1.379 . S
C344 N352 1.356 1_655 S
C345 C344 1.363 . S
C345 C351 1.363 1_556 S
C346 C347 1.363 . S
C346 C351 1.379 . S
C346 N353 1.356 . S
C347 C346 1.363 . S
C347 C350 1.363 1_554 S
N348 C350 1.356 1_455 S
N348 H360 0.984 . S
N348 H361 0.985 1_556 S
N349 C351 1.356 . S
N349 H354 0.984 1_554 S
N349 H355 0.985 . S
C350 C344 1.379 . S
C350 C347 1.363 1_556 S
C350 N348 1.356 1_655 S
C351 C345 1.363 1_554 S
C351 C346 1.379 . S
C351 N349 1.356 . S
N352 C344 1.356 1_455 S
N352 H358 0.984 . S
N352 H359 0.984 . S
N353 C346 1.356 . S
N353 H356 0.984 . S
N353 H357 0.985 . S
H354 N349 0.984 1_556 S
H355 N349 0.985 . S
H356 N353 0.984 . S
H357 N353 0.985 . S
H358 N352 0.984 . S
H359 N352 0.984 . S
H360 N348 0.984 . S
H361 N348 0.985 1_554 S
C362 C363 1.363 . S
C362 C368 1.379 . S
C362 N370 1.356 . S
C363 C362 1.363 . S
C363 C369 1.363 . S
C364 C365 1.363 . S
C364 C369 1.379 . S
C364 N371 1.356 . S
C365 C364 1.363 . S
C365 C368 1.363 . S
N366 C368 1.356 . S
N366 H378 0.984 . S
N366 H379 0.985 . S
N367 C369 1.356 . S
N367 H372 0.984 . S
N367 H373 0.985 . S
C368 C362 1.379 . S
C368 C365 1.363 . S
C368 N366 1.356 . S
C369 C363 1.363 . S
C369 C364 1.379 . S
C369 N367 1.356 . S
N370 C362 1.356 . S
N370 H376 0.984 . S
N370 H377 0.984 . S
N371 C364 1.356 . S
N371 H374 0.984 . S
N371 H375 0.985 . S
H372 N367 0.984 . S
H373 N367 0.985 . S
H374 N371 0.984 . S
H375 N371 0.985 . S
H376 N370 0.984 . S
H377 N370 0.984 . S
H378 N366 0.984 . S
H379 N366 0.985 . S
C380 C381 1.363 . S
C380 C386 1.379 . S
C380 N388 1.356 . S
C381 C380 1.363 . S
C381 C387 1.363 . S
C382 C383 1.363 . S
C382 C387 1.379 . S
C382 N389 1.356 . S
C383 C382 1.363 . S
C383 C386 1.363 . S
N384 C386 1.356 . S
N384 H396 0.984 . S
N384 H397 0.985 . S
N385 C387 1.356 . S
N385 H390 0.984 . S
N385 H391 0.985 . S
C386 C380 1.379 . S
C386 C383 1.363 . S
C386 N384 1.356 . S
C387 C381 1.363 . S
C387 C382 1.379 . S
C387 N385 1.356 . S
N388 C380 1.356 . S
N388 H394 0.984 . S
N388 H395 0.984 . S
N389 C382 1.356 . S
N389 H392 0.984 . S
N389 H393 0.985 . S
H390 N385 0.984 . S
H391 N385 0.985 . S
H392 N389 0.984 . S
H393 N389 0.985 . S
H394 N388 0.984 . S
H395 N388 0.984 . S
H396 N384 0.984 . S
H397 N384 0.985 . S
C398 C399 1.363 . S
C398 C404 1.379 . S
C398 N406 1.356 . S
C399 C398 1.363 . S
C399 C405 1.363 . S
C400 C401 1.363 . S
C400 C405 1.379 . S
C400 N407 1.356 . S
C401 C400 1.363 . S
C401 C404 1.363 . S
N402 C404 1.356 . S
N402 H414 0.984 . S
N402 H415 0.985 . S
N403 C405 1.356 . S
N403 H408 0.984 . S
N403 H409 0.985 . S
C404 C398 1.379 . S
C404 C401 1.363 . S
C404 N402 1.356 . S
C405 C399 1.363 . S
C405 C400 1.379 . S
C405 N403 1.356 . S
N406 C398 1.356 . S
N406 H412 0.984 . S
N406 H413 0.984 . S
N407 C400 1.356 . S
N407 H410 0.984 . S
N407 H411 0.985 . S
H408 N403 0.984 . S
H409 N403 0.985 . S
H410 N407 0.984 . S
H411 N407 0.985 . S
H412 N406 0.984 . S
H413 N406 0.984 . S
H414 N402 0.984 . S
H415 N402 0.985 . S
C416 C417 1.363 . S
C416 C422 1.379 . S
C416 N424 1.356 . S
C417 C416 1.363 . S
C417 C423 1.363 . S
C418 C419 1.363 . S
C418 C423 1.379 . S
C418 N425 1.356 . S
C419 C418 1.363 . S
C419 C422 1.363 . S
N420 C422 1.356 . S
N420 H432 0.984 . S
N420 H433 0.985 . S
N421 C423 1.356 . S
N421 H426 0.984 . S
N421 H427 0.985 . S
C422 C416 1.379 . S
C422 C419 1.363 . S
C422 N420 1.356 . S
C423 C417 1.363 . S
C423 C418 1.379 . S
C423 N421 1.356 . S
N424 C416 1.356 . S
N424 H430 0.984 . S
N424 H431 0.984 . S
N425 C418 1.356 . S
N425 H428 0.984 . S
N425 H429 0.985 . S
H426 N421 0.984 . S
H427 N421 0.985 . S
H428 N425 0.984 . S
H429 N425 0.985 . S
H430 N424 0.984 . S
H431 N424 0.984 . S
H432 N420 0.984 . S
H433 N420 0.985 . S
C434 C435 1.363 . S
C434 C440 1.379 . S
C434 N442 1.356 . S
C435 C434 1.363 . S
C435 C441 1.363 . S
C436 C437 1.363 . S
C436 C441 1.379 . S
C436 N443 1.356 . S
C437 C436 1.363 . S
C437 C440 1.363 . S
N438 C440 1.356 . S
N438 H450 0.984 . S
N438 H451 0.985 . S
N439 C441 1.356 . S
N439 H444 0.984 . S
N439 H445 0.985 . S
C440 C434 1.379 . S
C440 C437 1.363 . S
C440 N438 1.356 . S
C441 C435 1.363 . S
C441 C436 1.379 . S
C441 N439 1.356 . S
N442 C434 1.356 . S
N442 H448 0.984 . S
N442 H449 0.984 . S
N443 C436 1.356 . S
N443 H446 0.984 . S
N443 H447 0.985 . S
H444 N439 0.984 . S
H445 N439 0.985 . S
H446 N443 0.984 . S
H447 N443 0.985 . S
H448 N442 0.984 . S
H449 N442 0.984 . S
H450 N438 0.984 . S
H451 N438 0.985 . S
C452 C453 1.363 1_565 S
C452 C458 1.379 . S
C452 N460 1.356 1_565 S
C453 C452 1.363 1_545 S
C453 C459 1.363 . S
C454 C455 1.363 1_545 S
C454 C459 1.379 . S
C454 N461 1.356 1_545 S
C455 C454 1.363 1_565 S
C455 C458 1.363 . S
N456 C458 1.356 . S
N456 H468 0.984 . S
N456 H469 0.985 . S
N457 C459 1.356 . S
N457 H462 0.984 . S
N457 H463 0.985 . S
C458 C452 1.379 . S
C458 C455 1.363 . S
C458 N456 1.356 . S
C459 C453 1.363 . S
C459 C454 1.379 . S
C459 N457 1.356 . S
N460 C452 1.356 1_545 S
N460 H466 0.984 1_545 S
N460 H467 0.984 . S
N461 C454 1.356 1_565 S
N461 H464 0.984 . S
N461 H465 0.985 1_565 S
H462 N457 0.984 . S
H463 N457 0.985 . S
H464 N461 0.984 . S
H465 N461 0.985 1_545 S
H466 N460 0.984 1_565 S
H467 N460 0.984 . S
H468 N456 0.984 . S
H469 N456 0.985 . S
C470 C471 1.363 1_556 S
C470 C476 1.379 . S
C470 N478 1.356 . S
C471 C470 1.363 1_554 S
C471 C477 1.363 1_565 S
C472 C473 1.363 1_554 S
C472 C477 1.379 . S
C472 N479 1.356 . S
C473 C472 1.363 1_556 S
C473 C476 1.363 1_545 S
N474 C476 1.356 1_545 S
N474 H486 0.984 1_545 S
N474 H487 0.985 . S
N475 C477 1.356 1_565 S
N475 H480 0.984 . S
N475 H481 0.985 1_565 S
C476 C470 1.379 . S
C476 C473 1.363 1_565 S
C476 N474 1.356 1_565 S
C477 C471 1.363 1_545 S
C477 C472 1.379 . S
C477 N475 1.356 1_545 S
N478 C470 1.356 . S
N478 H484 0.984 . S
N478 H485 0.984 1_556 S
N479 C472 1.356 . S
N479 H482 0.984 1_554 S
N479 H483 0.985 . S
H480 N475 0.984 . S
H481 N475 0.985 1_545 S
H482 N479 0.984 1_556 S
H483 N479 0.985 . S
H484 N478 0.984 . S
H485 N478 0.984 1_554 S
H486 N474 0.984 1_565 S
H487 N474 0.985 . S
C488 C489 1.363 . S
C488 C494 1.379 . S
C488 N496 1.356 . S
C489 C488 1.363 . S
C489 C495 1.363 . S
C490 C491 1.363 . S
C490 C495 1.379 . S
C490 N497 1.356 . S
C491 C490 1.363 . S
C491 C494 1.363 . S
N492 C494 1.356 . S
N492 H504 0.984 . S
N492 H505 0.985 . S
N493 C495 1.356 . S
N493 H498 0.984 . S
N493 H499 0.985 . S
C494 C488 1.379 . S
C494 C491 1.363 . S
C494 N492 1.356 . S
C495 C489 1.363 . S
C495 C490 1.379 . S
C495 N493 1.356 . S
N496 C488 1.356 . S
N496 H502 0.984 . S
N496 H503 0.984 . S
N497 C490 1.356 . S
N497 H500 0.984 . S
N497 H501 0.985 . S
H498 N493 0.984 . S
H499 N493 0.985 . S
H500 N497 0.984 . S
H501 N497 0.985 . S
H502 N496 0.984 . S
H503 N496 0.984 . S
H504 N492 0.984 . S
H505 N492 0.985 . S
C506 C507 1.363 . S
C506 C512 1.379 . S
C506 N514 1.356 . S
C507 C506 1.363 . S
C507 C513 1.363 . S
C508 C509 1.363 . S
C508 C513 1.379 . S
C508 N515 1.356 . S
C509 C508 1.363 . S
C509 C512 1.363 . S
N510 C512 1.356 . S
N510 H522 0.984 . S
N510 H523 0.985 . S
N511 C513 1.356 . S
N511 H516 0.984 . S
N511 H517 0.985 . S
C512 C506 1.379 . S
C512 C509 1.363 . S
C512 N510 1.356 . S
C513 C507 1.363 . S
C513 C508 1.379 . S
C513 N511 1.356 . S
N514 C506 1.356 . S
N514 H520 0.984 . S
N514 H521 0.984 . S
N515 C508 1.356 . S
N515 H518 0.984 . S
N515 H519 0.985 . S
H516 N511 0.984 . S
H517 N511 0.985 . S
H518 N515 0.984 . S
H519 N515 0.985 . S
H520 N514 0.984 . S
H521 N514 0.984 . S
H522 N510 0.984 . S
H523 N510 0.985 . S
C524 C525 1.363 . S
C524 C530 1.379 . S
C524 N532 1.356 . S
C525 C524 1.363 . S
C525 C531 1.363 1_655 S
C526 C527 1.363 . S
C526 C531 1.379 . S
C526 N533 1.356 . S
C527 C526 1.363 . S
C527 C530 1.363 1_455 S
N528 C530 1.356 1_455 S
N528 H540 0.984 1_455 S
N528 H541 0.985 . S
N529 C531 1.356 1_655 S
N529 H534 0.984 . S
N529 H535 0.985 1_655 S
C530 C524 1.379 . S
C530 C527 1.363 1_655 S
C530 N528 1.356 1_655 S
C531 C525 1.363 1_455 S
C531 C526 1.379 . S
C531 N529 1.356 1_455 S
N532 C524 1.356 . S
N532 H538 0.984 . S
N532 H539 0.984 . S
N533 C526 1.356 . S
N533 H536 0.984 . S
N533 H537 0.985 . S
H534 N529 0.984 . S
H535 N529 0.985 1_455 S
H536 N533 0.984 . S
H537 N533 0.985 . S
H538 N532 0.984 . S
H539 N532 0.984 . S
H540 N528 0.984 1_655 S
H541 N528 0.985 . S
C542 C543 1.363 . S
C542 C548 1.379 1_455 S
C542 N550 1.356 . S
C543 C542 1.363 . S
C543 C549 1.363 . S
C544 C545 1.363 . S
C544 C549 1.379 1_655 S
C544 N551 1.356 . S
C545 C544 1.363 . S
C545 C548 1.363 . S
N546 C548 1.356 . S
N546 H558 0.984 . S
N546 H559 0.985 . S
N547 C549 1.356 . S
N547 H552 0.984 . S
N547 H553 0.985 . S
C548 C542 1.379 1_655 S
C548 C545 1.363 . S
C548 N546 1.356 . S
C549 C543 1.363 . S
C549 C544 1.379 1_455 S
C549 N547 1.356 . S
N550 C542 1.356 . S
N550 H556 0.984 1_455 S
N550 H557 0.984 . S
N551 C544 1.356 . S
N551 H554 0.984 . S
N551 H555 0.985 1_655 S
H552 N547 0.984 . S
H553 N547 0.985 . S
H554 N551 0.984 . S
H555 N551 0.985 1_455 S
H556 N550 0.984 1_655 S
H557 N550 0.984 . S
H558 N546 0.984 . S
H559 N546 0.985 . S
C560 C561 1.363 . S
C560 C566 1.379 . S
C560 N568 1.356 . S
C561 C560 1.363 . S
C561 C567 1.363 . S
C562 C563 1.363 . S
C562 C567 1.379 . S
C562 N569 1.356 . S
C563 C562 1.363 . S
C563 C566 1.363 . S
N564 C566 1.356 . S
N564 H576 0.984 . S
N564 H577 0.985 . S
N565 C567 1.356 . S
N565 H570 0.984 . S
N565 H571 0.985 . S
C566 C560 1.379 . S
C566 C563 1.363 . S
C566 N564 1.356 . S
C567 C561 1.363 . S
C567 C562 1.379 . S
C567 N565 1.356 . S
N568 C560 1.356 . S
N568 H574 0.984 . S
N568 H575 0.984 . S
N569 C562 1.356 . S
N569 H572 0.984 . S
N569 H573 0.985 . S
H570 N565 0.984 . S
H571 N565 0.985 . S
H572 N569 0.984 . S
H573 N569 0.985 . S
H574 N568 0.984 . S
H575 N568 0.984 . S
H576 N564 0.984 . S
H577 N564 0.985 . S
C578 C579 1.363 . S
C578 C584 1.379 1_455 S
C578 N586 1.356 . S
C579 C578 1.363 . S
C579 C585 1.363 . S
C580 C581 1.363 . S
C580 C585 1.379 1_655 S
C580 N587 1.356 . S
C581 C580 1.363 . S
C581 C584 1.363 . S
N582 C584 1.356 . S
N582 H594 0.984 1_655 S
N582 H595 0.985 . S
N583 C585 1.356 . S
N583 H588 0.984 . S
N583 H589 0.985 1_455 S
C584 C578 1.379 1_655 S
C584 C581 1.363 . S
C584 N582 1.356 . S
C585 C579 1.363 . S
C585 C580 1.379 1_455 S
C585 N583 1.356 . S
N586 C578 1.356 . S
N586 H592 0.984 . S
N586 H593 0.984 . S
N587 C580 1.356 . S
N587 H590 0.984 . S
N587 H591 0.985 . S
H588 N583 0.984 . S
H589 N583 0.985 1_655 S
H590 N587 0.984 . S
H591 N587 0.985 . S
H592 N586 0.984 . S
H593 N586 0.984 . S
H594 N582 0.984 1_455 S
H595 N582 0.985 . S
C596 C597 1.363 . S
C596 C602 1.379 . S
C596 N604 1.356 . S
C597 C596 1.363 . S
C597 C603 1.363 1_455 S
C598 C599 1.363 . S
C598 C603 1.379 . S
C598 N605 1.356 . S
C599 C598 1.363 . S
C599 C602 1.363 1_655 S
N600 C602 1.356 1_655 S
N600 H612 0.984 1_655 S
N600 H613 0.985 . S
N601 C603 1.356 1_455 S
N601 H606 0.984 . S
N601 H607 0.985 1_455 S
C602 C596 1.379 . S
C602 C599 1.363 1_455 S
C602 N600 1.356 1_455 S
C603 C597 1.363 1_655 S
C603 C598 1.379 . S
C603 N601 1.356 1_655 S
N604 C596 1.356 . S
N604 H610 0.984 . S
N604 H611 0.984 . S
N605 C598 1.356 . S
N605 H608 0.984 . S
N605 H609 0.985 . S
H606 N601 0.984 . S
H607 N601 0.985 1_655 S
H608 N605 0.984 . S
H609 N605 0.985 . S
H610 N604 0.984 . S
H611 N604 0.984 . S
H612 N600 0.984 1_455 S
H613 N600 0.985 . S
C614 C615 1.363 . S
C614 C620 1.379 . S
C614 N622 1.356 . S
C615 C614 1.363 . S
C615 C621 1.363 . S
C616 C617 1.363 . S
C616 C621 1.379 . S
C616 N623 1.356 . S
C617 C616 1.363 . S
C617 C620 1.363 . S
N618 C620 1.356 . S
N618 H630 0.984 . S
N618 H631 0.985 . S
N619 C621 1.356 . S
N619 H624 0.984 . S
N619 H625 0.985 . S
C620 C614 1.379 . S
C620 C617 1.363 . S
C620 N618 1.356 . S
C621 C615 1.363 . S
C621 C616 1.379 . S
C621 N619 1.356 . S
N622 C614 1.356 . S
N622 H628 0.984 . S
N622 H629 0.984 . S
N623 C616 1.356 . S
N623 H626 0.984 . S
N623 H627 0.985 . S
H624 N619 0.984 . S
H625 N619 0.985 . S
H626 N623 0.984 . S
H627 N623 0.985 . S
H628 N622 0.984 . S
H629 N622 0.984 . S
H630 N618 0.984 . S
H631 N618 0.985 . S
C632 C633 1.363 1_455 S
C632 C638 1.379 . S
C632 N640 1.356 . S
C633 C632 1.363 1_655 S
C633 C639 1.363 . S
C634 C635 1.363 1_655 S
C634 C639 1.379 . S
C634 N641 1.356 . S
C635 C634 1.363 1_455 S
C635 C638 1.363 . S
N636 C638 1.356 . S
N636 H648 0.984 . S
N636 H649 0.985 . S
N637 C639 1.356 . S
N637 H642 0.984 . S
N637 H643 0.985 . S
C638 C632 1.379 . S
C638 C635 1.363 . S
C638 N636 1.356 . S
C639 C633 1.363 . S
C639 C634 1.379 . S
C639 N637 1.356 . S
N640 C632 1.356 . S
N640 H646 0.984 . S
N640 H647 0.984 . S
N641 C634 1.356 . S
N641 H644 0.984 . S
N641 H645 0.985 . S
H642 N637 0.984 . S
H643 N637 0.985 . S
H644 N641 0.984 . S
H645 N641 0.985 . S
H646 N640 0.984 . S
H647 N640 0.984 . S
H648 N636 0.984 . S
H649 N636 0.985 . S
C650 C651 1.363 . S
C650 C656 1.379 1_655 S
C650 N658 1.356 . S
C651 C650 1.363 . S
C651 C657 1.363 . S
C652 C653 1.363 . S
C652 C657 1.379 1_455 S
C652 N659 1.356 . S
C653 C652 1.363 . S
C653 C656 1.363 . S
N654 C656 1.356 . S
N654 H666 0.984 . S
N654 H667 0.985 . S
N655 C657 1.356 . S
N655 H660 0.984 . S
N655 H661 0.985 . S
C656 C650 1.379 1_455 S
C656 C653 1.363 . S
C656 N654 1.356 . S
C657 C651 1.363 . S
C657 C652 1.379 1_655 S
C657 N655 1.356 . S
N658 C650 1.356 . S
N658 H664 0.984 . S
N658 H665 0.984 . S
N659 C652 1.356 . S
N659 H662 0.984 . S
N659 H663 0.985 . S
H660 N655 0.984 . S
H661 N655 0.985 . S
H662 N659 0.984 . S
H663 N659 0.985 . S
H664 N658 0.984 . S
H665 N658 0.984 . S
H666 N654 0.984 . S
H667 N654 0.985 . S
C668 C669 1.363 . S
C668 C674 1.379 . S
C668 N676 1.356 . S
C669 C668 1.363 . S
C669 C675 1.363 . S
C670 C671 1.363 . S
C670 C675 1.379 . S
C670 N677 1.356 . S
C671 C670 1.363 . S
C671 C674 1.363 . S
N672 C674 1.356 . S
N672 H684 0.984 . S
N672 H685 0.985 . S
N673 C675 1.356 . S
N673 H678 0.984 . S
N673 H679 0.985 . S
C674 C668 1.379 . S
C674 C671 1.363 . S
C674 N672 1.356 . S
C675 C669 1.363 . S
C675 C670 1.379 . S
C675 N673 1.356 . S
N676 C668 1.356 . S
N676 H682 0.984 . S
N676 H683 0.984 . S
N677 C670 1.356 . S
N677 H680 0.984 . S
N677 H681 0.985 . S
H678 N673 0.984 . S
H679 N673 0.985 . S
H680 N677 0.984 . S
H681 N677 0.985 . S
H682 N676 0.984 . S
H683 N676 0.984 . S
H684 N672 0.984 . S
H685 N672 0.985 . S
C686 C687 1.363 . S
C686 C692 1.379 . S
C686 N694 1.356 . S
C687 C686 1.363 . S
C687 C693 1.363 . S
C688 C689 1.363 . S
C688 C693 1.379 . S
C688 N695 1.356 . S
C689 C688 1.363 . S
C689 C692 1.363 . S
N690 C692 1.356 . S
N690 H702 0.984 . S
N690 H703 0.985 . S
N691 C693 1.356 . S
N691 H696 0.984 . S
N691 H697 0.985 . S
C692 C686 1.379 . S
C692 C689 1.363 . S
C692 N690 1.356 . S
C693 C687 1.363 . S
C693 C688 1.379 . S
C693 N691 1.356 . S
N694 C686 1.356 . S
N694 H700 0.984 . S
N694 H701 0.984 . S
N695 C688 1.356 . S
N695 H698 0.984 . S
N695 H699 0.985 . S
H696 N691 0.984 . S
H697 N691 0.985 . S
H698 N695 0.984 . S
H699 N695 0.985 . S
H700 N694 0.984 . S
H701 N694 0.984 . S
H702 N690 0.984 . S
H703 N690 0.985 . S
C704 C705 1.363 . S
C704 C710 1.379 . S
C704 N712 1.356 . S
C705 C704 1.363 . S
C705 C711 1.363 1_455 S
C706 C707 1.363 . S
C706 C711 1.379 . S
C706 N713 1.356 . S
C707 C706 1.363 . S
C707 C710 1.363 1_655 S
N708 C710 1.356 . S
N708 H720 0.984 . S
N708 H721 0.985 . S
N709 C711 1.356 . S
N709 H714 0.984 . S
N709 H715 0.985 . S
C710 C704 1.379 . S
C710 C707 1.363 1_455 S
C710 N708 1.356 . S
C711 C705 1.363 1_655 S
C711 C706 1.379 . S
C711 N709 1.356 . S
N712 C704 1.356 . S
N712 H718 0.984 . S
N712 H719 0.984 . S
N713 C706 1.356 . S
N713 H716 0.984 . S
N713 H717 0.985 . S
H714 N709 0.984 . S
H715 N709 0.985 . S
H716 N713 0.984 . S
H717 N713 0.985 . S
H718 N712 0.984 . S
H719 N712 0.984 . S
H720 N708 0.984 . S
H721 N708 0.985 . S
C722 C723 1.363 . S
C722 C728 1.379 . S
C722 N730 1.356 . S
C723 C722 1.363 . S
C723 C729 1.363 . S
C724 C725 1.363 . S
C724 C729 1.379 . S
C724 N731 1.356 . S
C725 C724 1.363 . S
C725 C728 1.363 . S
N726 C728 1.356 . S
N726 H738 0.984 . S
N726 H739 0.985 . S
N727 C729 1.356 . S
N727 H732 0.984 . S
N727 H733 0.985 . S
C728 C722 1.379 . S
C728 C725 1.363 . S
C728 N726 1.356 . S
C729 C723 1.363 . S
C729 C724 1.379 . S
C729 N727 1.356 . S
N730 C722 1.356 . S
N730 H736 0.984 . S
N730 H737 0.984 . S
N731 C724 1.356 . S
N731 H734 0.984 . S
N731 H735 0.985 . S
H732 N727 0.984 . S
H733 N727 0.985 . S
H734 N731 0.984 . S
H735 N731 0.985 . S
H736 N730 0.984 . S
H737 N730 0.984 . S
H738 N726 0.984 . S
H739 N726 0.985 . S
C740 C741 1.363 . S
C740 C746 1.379 . S
C740 N748 1.356 . S
C741 C740 1.363 . S
C741 C747 1.363 . S
C742 C743 1.363 . S
C742 C747 1.379 . S
C742 N749 1.356 . S
C743 C742 1.363 . S
C743 C746 1.363 . S
N744 C746 1.356 . S
N744 H756 0.984 . S
N744 H757 0.985 . S
N745 C747 1.356 . S
N745 H750 0.984 . S
N745 H751 0.985 . S
C746 C740 1.379 . S
C746 C743 1.363 . S
C746 N744 1.356 . S
C747 C741 1.363 . S
C747 C742 1.379 . S
C747 N745 1.356 . S
N748 C740 1.356 . S
N748 H754 0.984 . S
N748 H755 0.984 . S
N749 C742 1.356 . S
N749 H752 0.984 . S
N749 H753 0.985 . S
H750 N745 0.984 . S
H751 N745 0.985 . S
H752 N749 0.984 . S
H753 N749 0.985 . S
H754 N748 0.984 . S
H755 N748 0.984 . S
H756 N744 0.984 . S
H757 N744 0.985 . S
C758 C759 1.363 . S
C758 C764 1.379 1_655 S
C758 N766 1.356 . S
C759 C758 1.363 . S
C759 C765 1.363 . S
C760 C761 1.363 . S
C760 C765 1.379 1_455 S
C760 N767 1.356 . S
C761 C760 1.363 . S
C761 C764 1.363 . S
N762 C764 1.356 . S
N762 H774 0.984 . S
N762 H775 0.985 . S
N763 C765 1.356 . S
N763 H768 0.984 . S
N763 H769 0.985 . S
C764 C758 1.379 1_455 S
C764 C761 1.363 . S
C764 N762 1.356 . S
C765 C759 1.363 . S
C765 C760 1.379 1_655 S
C765 N763 1.356 . S
N766 C758 1.356 . S
N766 H772 0.984 . S
N766 H773 0.984 . S
N767 C760 1.356 . S
N767 H770 0.984 . S
N767 H771 0.985 . S
H768 N763 0.984 . S
H769 N763 0.985 . S
H770 N767 0.984 . S
H771 N767 0.985 . S
H772 N766 0.984 . S
H773 N766 0.984 . S
H774 N762 0.984 . S
H775 N762 0.985 . S
C273 C187 1.555 . S
C275 C17 1.555 . S
C291 C51 1.555 . S
C293 C221 1.555 . S
C309 C85 1.555 . S
C311 C255 1.555 . S
C327 C153 1.555 . S
C329 C119 1.555 . S
C345 C139 2.038 . S
C347 C1 2.038 . S
C363 C35 2.038 . S
C365 C173 2.040 . S
C381 C71 2.038 . S
C383 C205 2.038 . S
C399 C105 2.038 . S
C401 C239 2.040 . S
C417 C103 2.038 . S
C419 C241 2.037 . S
C435 C37 2.038 . S
C437 C171 2.037 . S
C453 C69 2.038 . S
C455 C207 2.038 . S
C471 C3 2.038 . S
C473 C137 2.038 . S
C489 C15 1.298 . S
C491 C22 1.298 . S
C507 C49 1.298 . S
C509 C56 1.298 . S
C525 C83 1.298 . S
C527 C90 1.298 . S
C543 C124 1.298 . S
C545 C117 1.298 . S
C561 C158 1.298 . S
C563 C151 1.298 . S
C579 C192 1.298 . S
C581 C185 1.298 . S
C597 C219 1.298 . S
C599 C226 1.298 . S
C615 C260 1.298 . S
C617 C253 1.298 . S
C633 C6 1.945 . S
C635 C28 1.945 . S
C651 C40 1.945 . S
C653 C62 1.945 . S
C669 C96 1.945 . S
C671 C74 1.945 . S
C687 C130 1.945 . S
C689 C108 1.945 . S
C705 C142 1.945 . S
C707 C164 1.945 . S
C723 C176 1.945 . S
C725 C198 1.945 . S
C741 C210 1.945 . S
C743 C232 1.945 . S
C759 C244 1.945 . S
C761 C266 1.945 . S
