# Generated by pormake.
# Topology snl, (6)-cn, num edge types: 1
# Building blocks:
#     Node 0, Type 0, BuildingBlock: MIFKUJ_clean_sbu_0, # of connection points: 6
#     Node 1, Type 0, BuildingBlock: MIFKUJ_clean_sbu_0, # of connection points: 6
#     Node 2, Type 0, BuildingBlock: MIFKUJ_clean_sbu_0, # of connection points: 6
#     Node 3, Type 0, BuildingBlock: MIFKUJ_clean_sbu_0, # of connection points: 6
#     Node 4, Type 0, BuildingBlock: MIFKUJ_clean_sbu_0, # of connection points: 6
#     Node 5, Type 0, BuildingBlock: MIFKUJ_clean_sbu_0, # of connection points: 6
#     Node 6, Type 0, BuildingBlock: MIFKUJ_clean_sbu_0, # of connection points: 6
#     Node 7, Type 0, BuildingBlock: MIFKUJ_clean_sbu_0, # of connection points: 6
#     Node 8, Type 0, BuildingBlock: MIFKUJ_clean_sbu_0, # of connection points: 6
#     Node 9, Type 0, BuildingBlock: MIFKUJ_clean_sbu_0, # of connection points: 6
#     Node 10, Type 0, BuildingBlock: MIFKUJ_clean_sbu_0, # of connection points: 6
#     Node 11, Type 0, BuildingBlock: MIFKUJ_clean_sbu_0, # of connection points: 6
#     Node 12, Type 0, BuildingBlock: MIFKUJ_clean_sbu_0, # of connection points: 6
#     Node 13, Type 0, BuildingBlock: MIFKUJ_clean_sbu_0, # of connection points: 6
#     Node 14, Type 0, BuildingBlock: MIFKUJ_clean_sbu_0, # of connection points: 6
#     Node 15, Type 0, BuildingBlock: MIFKUJ_clean_sbu_0, # of connection points: 6
#     Edge 16, Type (0, 0), BuildingBlock: XUDNAN_clean_linker_2, # of connection points: 2
#     Edge 17, Type (0, 0), BuildingBlock: XUDNAN_clean_linker_2, # of connection points: 2
#     Edge 18, Type (0, 0), BuildingBlock: XUDNAN_clean_linker_2, # of connection points: 2
#     Edge 19, Type (0, 0), BuildingBlock: XUDNAN_clean_linker_2, # of connection points: 2
#     Edge 20, Type (0, 0), BuildingBlock: XUDNAN_clean_linker_2, # of connection points: 2
#     Edge 21, Type (0, 0), BuildingBlock: XUDNAN_clean_linker_2, # of connection points: 2
#     Edge 22, Type (0, 0), BuildingBlock: XUDNAN_clean_linker_2, # of connection points: 2
#     Edge 23, Type (0, 0), BuildingBlock: XUDNAN_clean_linker_2, # of connection points: 2
#     Edge 24, Type (0, 0), BuildingBlock: XUDNAN_clean_linker_2, # of connection points: 2
#     Edge 25, Type (0, 0), BuildingBlock: XUDNAN_clean_linker_2, # of connection points: 2
#     Edge 26, Type (0, 0), BuildingBlock: XUDNAN_clean_linker_2, # of connection points: 2
#     Edge 27, Type (0, 0), BuildingBlock: XUDNAN_clean_linker_2, # of connection points: 2
#     Edge 28, Type (0, 0), BuildingBlock: XUDNAN_clean_linker_2, # of connection points: 2
#     Edge 29, Type (0, 0), BuildingBlock: XUDNAN_clean_linker_2, # of connection points: 2
#     Edge 30, Type (0, 0), BuildingBlock: XUDNAN_clean_linker_2, # of connection points: 2
#     Edge 31, Type (0, 0), BuildingBlock: XUDNAN_clean_linker_2, # of connection points: 2
#     Edge 32, Type (0, 0), BuildingBlock: XUDNAN_clean_linker_2, # of connection points: 2
#     Edge 33, Type (0, 0), BuildingBlock: XUDNAN_clean_linker_2, # of connection points: 2
#     Edge 34, Type (0, 0), BuildingBlock: XUDNAN_clean_linker_2, # of connection points: 2
#     Edge 35, Type (0, 0), BuildingBlock: XUDNAN_clean_linker_2, # of connection points: 2
#     Edge 36, Type (0, 0), BuildingBlock: XUDNAN_clean_linker_2, # of connection points: 2
#     Edge 37, Type (0, 0), BuildingBlock: XUDNAN_clean_linker_2, # of connection points: 2
#     Edge 38, Type (0, 0), BuildingBlock: XUDNAN_clean_linker_2, # of connection points: 2
#     Edge 39, Type (0, 0), BuildingBlock: XUDNAN_clean_linker_2, # of connection points: 2
#     Edge 40, Type (0, 0), BuildingBlock: XUDNAN_clean_linker_2, # of connection points: 2
#     Edge 41, Type (0, 0), BuildingBlock: XUDNAN_clean_linker_2, # of connection points: 2
#     Edge 42, Type (0, 0), BuildingBlock: XUDNAN_clean_linker_2, # of connection points: 2
#     Edge 43, Type (0, 0), BuildingBlock: XUDNAN_clean_linker_2, # of connection points: 2
#     Edge 44, Type (0, 0), BuildingBlock: XUDNAN_clean_linker_2, # of connection points: 2
#     Edge 45, Type (0, 0), BuildingBlock: XUDNAN_clean_linker_2, # of connection points: 2
#     Edge 46, Type (0, 0), BuildingBlock: XUDNAN_clean_linker_2, # of connection points: 2
#     Edge 47, Type (0, 0), BuildingBlock: XUDNAN_clean_linker_2, # of connection points: 2
#     Edge 48, Type (0, 0), BuildingBlock: XUDNAN_clean_linker_2, # of connection points: 2
#     Edge 49, Type (0, 0), BuildingBlock: XUDNAN_clean_linker_2, # of connection points: 2
#     Edge 50, Type (0, 0), BuildingBlock: XUDNAN_clean_linker_2, # of connection points: 2
#     Edge 51, Type (0, 0), BuildingBlock: XUDNAN_clean_linker_2, # of connection points: 2
#     Edge 52, Type (0, 0), BuildingBlock: XUDNAN_clean_linker_2, # of connection points: 2
#     Edge 53, Type (0, 0), BuildingBlock: XUDNAN_clean_linker_2, # of connection points: 2
#     Edge 54, Type (0, 0), BuildingBlock: XUDNAN_clean_linker_2, # of connection points: 2
#     Edge 55, Type (0, 0), BuildingBlock: XUDNAN_clean_linker_2, # of connection points: 2
#     Edge 56, Type (0, 0), BuildingBlock: XUDNAN_clean_linker_2, # of connection points: 2
#     Edge 57, Type (0, 0), BuildingBlock: XUDNAN_clean_linker_2, # of connection points: 2
#     Edge 58, Type (0, 0), BuildingBlock: XUDNAN_clean_linker_2, # of connection points: 2
#     Edge 59, Type (0, 0), BuildingBlock: XUDNAN_clean_linker_2, # of connection points: 2
#     Edge 60, Type (0, 0), BuildingBlock: XUDNAN_clean_linker_2, # of connection points: 2
#     Edge 61, Type (0, 0), BuildingBlock: XUDNAN_clean_linker_2, # of connection points: 2
#     Edge 62, Type (0, 0), BuildingBlock: XUDNAN_clean_linker_2, # of connection points: 2
#     Edge 63, Type (0, 0), BuildingBlock: XUDNAN_clean_linker_2, # of connection points: 2
# Relax obj value: 0.125
# Max RMSD: 0.180
# Mean RMSD: 0.162
data_MOF--net-snl--node1-MIFKUJ_clean_sbu_0--edge1-XUDNAN_clean_linker_2
_symmetry_space_group_name_H-M    P1
_symmetry_Int_Tables_number       1
_symmetry_cell_setting            triclinic
loop_
_symmetry_equiv_pos_as_xyz
'x, y, z'
_cell_length_a     60.776725
_cell_length_b     62.578718
_cell_length_c     18.599304
_cell_angle_alpha  89.044133
_cell_angle_beta   90.978111
_cell_angle_gamma 90.03054
loop_
_atom_site_label
_atom_site_type_symbol
_atom_site_fract_x
_atom_site_fract_y
_atom_site_fract_z
_atom_type_partial_charge
Zn0 Zn 0.13462 0.61273 0.25593 0.0
Zn1 Zn 0.12256 0.62198 0.07671 0.0
C2 C 0.17683 0.59988 0.29249 0.0
O3 O 0.16394 0.58498 0.31927 0.0
C4 C 0.07459 0.61793 0.06272 0.0
O5 O 0.07898 0.60979 0.99996 0.0
O6 O 0.12778 0.6113 0.36227 0.0
O7 O 0.11927 0.63956 0.22184 0.0
O8 O 0.13823 0.64685 0.12555 0.0
C9 C 0.13268 0.62835 0.39529 0.0
O10 O 0.14099 0.64447 0.35862 0.0
O11 O 0.16804 0.61507 0.25577 0.0
C12 C 0.12409 0.61417 0.92145 0.0
O13 O 0.12312 0.59391 0.94062 0.0
O14 O 0.12412 0.62836 0.9697 0.0
O15 O 0.13245 0.59116 0.09366 0.0
O16 O 0.12628 0.58495 0.20959 0.0
O17 O 0.09038 0.62381 0.10367 0.0
C18 C 0.12881 0.65315 0.18183 0.0
C19 C 0.12958 0.57824 0.14639 0.0
Zn20 Zn 0.61514 0.89497 0.47419 0.0
Zn21 Zn 0.61595 0.85895 0.28514 0.0
C22 C 0.62576 0.93735 0.52142 0.0
O23 O 0.63587 0.92674 0.57375 0.0
C24 C 0.60162 0.81769 0.2399 0.0
O25 O 0.58835 0.82931 0.19877 0.0
O26 O 0.61619 0.88636 0.57918 0.0
O27 O 0.58428 0.88673 0.43956 0.0
O28 O 0.59104 0.86835 0.3432 0.0
C29 C 0.60064 0.8941 0.61555 0.0
O30 O 0.58554 0.90575 0.58211 0.0
O31 O 0.61601 0.92718 0.47156 0.0
C32 C 0.62215 0.86419 0.13212 0.0
O33 O 0.63735 0.84951 0.14287 0.0
O34 O 0.61137 0.87082 0.18524 0.0
O35 O 0.64543 0.86777 0.32212 0.0
O36 O 0.64364 0.88558 0.42483 0.0
O37 O 0.61511 0.82695 0.282 0.0
C38 C 0.57745 0.87584 0.38687 0.0
C39 C 0.65465 0.87705 0.37491 0.0
Zn40 Zn 0.35424 0.37819 0.76111 0.0
Zn41 Zn 0.39479 0.37349 0.57503 0.0
C42 C 0.31064 0.39218 0.77259 0.0
O43 O 0.32161 0.41005 0.78116 0.0
C44 C 0.44152 0.37225 0.61318 0.0
O45 O 0.43572 0.35808 0.66221 0.0
O46 O 0.36371 0.3791 0.86375 0.0
O47 O 0.36956 0.35403 0.70549 0.0
O48 O 0.38981 0.3437 0.61398 0.0
C49 C 0.3628 0.36341 0.90753 0.0
O50 O 0.3569 0.3445 0.88447 0.0
O51 O 0.32111 0.37494 0.76198 0.0
C52 C 0.38738 0.36312 0.4293 0.0
O53 O 0.39931 0.34646 0.44913 0.0
O54 O 0.38254 0.37692 0.47567 0.0
O55 O 0.37923 0.39181 0.64113 0.0
O56 O 0.36052 0.40779 0.72085 0.0
O57 O 0.42687 0.38076 0.5725 0.0
C58 C 0.37908 0.33928 0.67072 0.0
C59 C 0.37198 0.40912 0.66502 0.0
Zn60 Zn 0.87733 0.10988 0.02189 0.0
Zn61 Zn 0.87583 0.14556 0.82883 0.0
C62 C 0.8772 0.06284 0.01637 0.0
O63 O 0.8804 0.06549 0.94711 0.0
C64 C 0.89118 0.18715 0.81024 0.0
O65 O 0.90566 0.17562 0.77637 0.0
O66 O 0.87425 0.12694 0.11298 0.0
O67 O 0.9071 0.11523 0.97761 0.0
O68 O 0.90374 0.13363 0.8744 0.0
C69 C 0.88451 0.12035 0.1694 0.0
O70 O 0.89783 0.10392 0.16476 0.0
O71 O 0.87599 0.07912 0.05603 0.0
C72 C 0.86456 0.15253 0.68048 0.0
O73 O 0.85047 0.16539 0.71062 0.0
O74 O 0.87758 0.14156 0.72071 0.0
O75 O 0.84693 0.13263 0.85728 0.0
O76 O 0.85026 0.1137 0.95895 0.0
O77 O 0.87572 0.1776 0.84292 0.0
C78 C 0.91543 0.12388 0.9219 0.0
C79 C 0.83877 0.12066 0.90583 0.0
Zn80 Zn 0.12493 0.37978 0.00756 0.0
Zn81 Zn 0.11568 0.36779 0.8259 0.0
C82 C 0.12414 0.42925 0.98113 0.0
O83 O 0.1193 0.42824 0.91218 0.0
C84 C 0.11294 0.32187 0.82339 0.0
O85 O 0.09476 0.32656 0.7873 0.0
O86 O 0.12808 0.37092 0.11215 0.0
O87 O 0.09373 0.37085 0.98094 0.0
O88 O 0.08583 0.37237 0.86408 0.0
C89 C 0.11335 0.38054 0.14721 0.0
O90 O 0.09855 0.39196 0.11145 0.0
O91 O 0.12654 0.41215 0.01839 0.0
C92 C 0.12354 0.36234 0.67218 0.0
O93 O 0.13759 0.34734 0.69207 0.0
O94 O 0.11283 0.37218 0.71945 0.0
O95 O 0.13857 0.38872 0.85724 0.0
O96 O 0.15141 0.37045 0.95047 0.0
O97 O 0.12494 0.33705 0.84663 0.0
C98 C 0.07998 0.37024 0.92881 0.0
C99 C 0.15476 0.38117 0.8931 0.0
Zn100 Zn 0.86061 0.87362 0.26425 0.0
Zn101 Zn 0.89866 0.87314 0.07569 0.0
C102 C 0.81203 0.87815 0.26053 0.0
O103 O 0.8144 0.88272 0.19189 0.0
C104 C 0.94686 0.87169 0.05985 0.0
O105 O 0.94195 0.86883 0.99169 0.0
O106 O 0.87864 0.87625 0.35675 0.0
O107 O 0.86545 0.84514 0.21562 0.0
O108 O 0.88477 0.84611 0.1145 0.0
C109 C 0.87378 0.86509 0.41218 0.0
O110 O 0.85868 0.85016 0.40623 0.0
O111 O 0.82899 0.87377 0.29903 0.0
C112 C 0.90097 0.88869 0.92819 0.0
O113 O 0.90803 0.9059 0.96087 0.0
O114 O 0.89587 0.87235 0.96609 0.0
O115 O 0.88468 0.9007 0.10531 0.0
O116 O 0.86476 0.90076 0.20479 0.0
O117 O 0.93136 0.87361 0.10466 0.0
C118 C 0.87373 0.83599 0.16162 0.0
C119 C 0.87286 0.91033 0.15034 0.0
Zn120 Zn 0.37912 0.60152 0.4563 0.0
Zn121 Zn 0.37394 0.63808 0.27338 0.0
C122 C 0.36858 0.55868 0.50107 0.0
O123 O 0.35251 0.56848 0.53349 0.0
C124 C 0.39255 0.6772 0.25318 0.0
O125 O 0.40591 0.66361 0.22308 0.0
O126 O 0.37763 0.61304 0.55687 0.0
O127 O 0.40741 0.61039 0.41089 0.0
O128 O 0.40381 0.62607 0.303 0.0
C129 C 0.38659 0.60294 0.60952 0.0
O130 O 0.39809 0.58565 0.59741 0.0
O131 O 0.38197 0.56961 0.46397 0.0
C132 C 0.3737 0.61905 0.13035 0.0
O133 O 0.37762 0.6008 0.1641 0.0
O134 O 0.37159 0.63594 0.16633 0.0
O135 O 0.34514 0.6266 0.30923 0.0
O136 O 0.3498 0.6067 0.4078 0.0
O137 O 0.37599 0.66989 0.28646 0.0
C138 C 0.41554 0.61772 0.35316 0.0
C139 C 0.33741 0.61491 0.35915 0.0
Zn140 Zn 0.64096 0.11956 0.74412 0.0
Zn141 Zn 0.61442 0.12824 0.55229 0.0
C142 C 0.68087 0.10096 0.80238 0.0
O143 O 0.66689 0.08674 0.82722 0.0
C144 C 0.57097 0.13811 0.54356 0.0
O145 O 0.58153 0.15317 0.50815 0.0
O146 O 0.62668 0.1184 0.8405 0.0
O147 O 0.63648 0.14924 0.69953 0.0
O148 O 0.62297 0.15655 0.58999 0.0
C149 C 0.63403 0.12914 0.89307 0.0
O150 O 0.65063 0.14225 0.88305 0.0
O151 O 0.67364 0.11638 0.76337 0.0
C152 C 0.60421 0.11614 0.40873 0.0
O153 O 0.5917 0.10256 0.44389 0.0
O154 O 0.61588 0.12934 0.444 0.0
O155 O 0.63591 0.10561 0.58279 0.0
O156 O 0.63021 0.09336 0.69164 0.0
O157 O 0.58215 0.1235 0.57569 0.0
C158 C 0.63093 0.16257 0.64989 0.0
C159 C 0.63044 0.09043 0.62439 0.0
Zn160 Zn 0.87703 0.37756 0.92448 0.0
Zn161 Zn 0.87719 0.38587 0.75096 0.0
C162 C 0.91926 0.36127 0.95478 0.0
O163 O 0.90677 0.34654 0.98448 0.0
C164 C 0.83619 0.40397 0.73082 0.0
O165 O 0.8498 0.41844 0.70534 0.0
O166 O 0.86945 0.37372 0.03045 0.0
O167 O 0.86667 0.40712 0.89153 0.0
O168 O 0.88979 0.41135 0.8019 0.0
C169 C 0.87818 0.38518 0.07932 0.0
O170 O 0.89164 0.40066 0.06062 0.0
O171 O 0.91013 0.37715 0.92295 0.0
C172 C 0.87163 0.37263 0.60905 0.0
O173 O 0.86106 0.35827 0.64761 0.0
O174 O 0.88159 0.38762 0.64191 0.0
O175 O 0.8892 0.35743 0.78189 0.0
O176 O 0.86716 0.35071 0.87221 0.0
O177 O 0.84417 0.38703 0.75957 0.0
C178 C 0.87883 0.41913 0.853 0.0
C179 C 0.87924 0.34411 0.82193 0.0
Zn180 Zn 0.37671 0.14043 0.70416 0.0
Zn181 Zn 0.36893 0.13566 0.52787 0.0
C182 C 0.38756 0.18371 0.73851 0.0
O183 O 0.4012 0.17349 0.78247 0.0
C184 C 0.35876 0.0893 0.54125 0.0
O185 O 0.33811 0.09505 0.5475 0.0
O186 O 0.38127 0.13321 0.81013 0.0
O187 O 0.34688 0.12802 0.67726 0.0
O188 O 0.34092 0.14532 0.5741 0.0
C189 C 0.36936 0.14129 0.8584 0.0
O190 O 0.35332 0.15434 0.83901 0.0
O191 O 0.37528 0.17298 0.69626 0.0
C192 C 0.38276 0.13112 0.38694 0.0
O193 O 0.3983 0.12174 0.42596 0.0
O194 O 0.36686 0.13988 0.41913 0.0
O195 O 0.39655 0.15078 0.55838 0.0
O196 O 0.40399 0.13042 0.65304 0.0
O197 O 0.37366 0.10356 0.53826 0.0
C198 C 0.33381 0.13703 0.63207 0.0
C199 C 0.41044 0.14069 0.59775 0.0
Zn200 Zn 0.62334 0.62866 0.39335 0.0
Zn201 Zn 0.63183 0.62067 0.21941 0.0
C202 C 0.57639 0.62859 0.39747 0.0
O203 O 0.58096 0.64194 0.44943 0.0
C204 C 0.67804 0.61272 0.20192 0.0
O205 O 0.67022 0.59436 0.17955 0.0
O206 O 0.624 0.63049 0.50316 0.0
O207 O 0.64515 0.60578 0.3706 0.0
O208 O 0.62593 0.59381 0.27855 0.0
C209 C 0.61868 0.61336 0.53656 0.0
O210 O 0.61336 0.59653 0.49865 0.0
O211 O 0.59218 0.62016 0.36387 0.0
C212 C 0.6295 0.62713 0.06412 0.0
O213 O 0.63805 0.64576 0.08044 0.0
O214 O 0.62513 0.61388 0.11468 0.0
O215 O 0.61544 0.64794 0.24081 0.0
O216 O 0.6288 0.65733 0.34742 0.0
O217 O 0.66465 0.62673 0.22388 0.0
C218 C 0.63867 0.59036 0.33231 0.0
C219 C 0.61983 0.66221 0.287 0.0
Zn220 Zn 0.14666 0.85134 0.21043 0.0
Zn221 Zn 0.14732 0.88981 0.02104 0.0
C222 C 0.12981 0.80981 0.23499 0.0
O223 O 0.11546 0.82165 0.26827 0.0
C224 C 0.14811 0.93824 0.03156 0.0
O225 O 0.14992 0.93647 0.10189 0.0
O226 O 0.14388 0.85957 0.31462 0.0
O227 O 0.17582 0.86282 0.17796 0.0
O228 O 0.17571 0.88318 0.07843 0.0
C229 C 0.1508 0.84937 0.37028 0.0
O230 O 0.16132 0.83122 0.36294 0.0
O231 O 0.14573 0.81899 0.20352 0.0
C232 C 0.13316 0.88459 0.88051 0.0
O233 O 0.11874 0.8977 0.90775 0.0
O234 O 0.14794 0.87653 0.92208 0.0
O235 O 0.11735 0.88346 0.06352 0.0
O236 O 0.11941 0.86322 0.16254 0.0
O237 O 0.14731 0.92147 0.99393 0.0
C238 C 0.18583 0.87414 0.13145 0.0
C239 C 0.10825 0.87363 0.11553 0.0
Zn240 Zn 0.87262 0.63457 0.20617 0.0
Zn241 Zn 0.87439 0.61509 0.01758 0.0
C242 C 0.87218 0.68 0.20795 0.0
O243 O 0.88377 0.67576 0.26669 0.0
C244 C 0.8622 0.56917 0.99204 0.0
O245 O 0.84148 0.57398 0.00264 0.0
O246 O 0.87217 0.63411 0.31414 0.0
O247 O 0.85057 0.61248 0.17641 0.0
O248 O 0.84492 0.62175 0.06301 0.0
C249 C 0.85654 0.64242 0.34846 0.0
O250 O 0.84015 0.65154 0.31265 0.0
O251 O 0.86497 0.66458 0.17038 0.0
C252 C 0.88241 0.62148 0.86664 0.0
O253 O 0.89576 0.60518 0.87727 0.0
O254 O 0.87237 0.62912 0.91979 0.0
O255 O 0.90419 0.62239 0.06339 0.0
O256 O 0.90366 0.62921 0.18017 0.0
O257 O 0.87689 0.58353 0.99805 0.0
C258 C 0.83754 0.61681 0.12448 0.0
C259 C 0.91411 0.6262 0.1227 0.0
Zn260 Zn 0.12417 0.12966 0.95689 0.0
Zn261 Zn 0.13221 0.12817 0.78103 0.0
C262 C 0.07634 0.13515 0.96877 0.0
O263 O 0.08139 0.14252 0.03263 0.0
C264 C 0.17961 0.12008 0.77135 0.0
O265 O 0.17378 0.10006 0.76285 0.0
O266 O 0.12761 0.13401 0.06392 0.0
O267 O 0.13686 0.10097 0.93738 0.0
O268 O 0.12665 0.09815 0.82304 0.0
C269 C 0.12021 0.12234 0.11471 0.0
O270 O 0.10835 0.1054 0.09948 0.0
O271 O 0.09167 0.12934 0.92761 0.0
C272 C 0.1345 0.14261 0.63754 0.0
O273 O 0.14492 0.15777 0.67236 0.0
O274 O 0.12587 0.1274 0.67355 0.0
O275 O 0.11767 0.1553 0.81782 0.0
O276 O 0.13944 0.15499 0.91291 0.0
O277 O 0.16499 0.13394 0.78456 0.0
C278 C 0.13273 0.08959 0.88289 0.0
C279 C 0.12916 0.1654 0.86388 0.0
Zn280 Zn 0.64 0.36386 0.6939 0.0
Zn281 Zn 0.64289 0.39893 0.50028 0.0
C282 C 0.63201 0.31945 0.64712 0.0
O283 O 0.61614 0.32701 0.60518 0.0
C284 C 0.65999 0.43872 0.45326 0.0
O285 O 0.67794 0.42706 0.45267 0.0
O286 O 0.63754 0.36776 0.80127 0.0
O287 O 0.66858 0.3781 0.66848 0.0
O288 O 0.66936 0.39639 0.56509 0.0
C289 C 0.65196 0.35807 0.84008 0.0
O290 O 0.66717 0.34687 0.8084 0.0
O291 O 0.64363 0.33219 0.68417 0.0
C292 C 0.63583 0.38899 0.35309 0.0
O293 O 0.62143 0.40445 0.35985 0.0
O294 O 0.64701 0.38285 0.40815 0.0
O295 O 0.6139 0.39189 0.54361 0.0
O296 O 0.6113 0.37365 0.64694 0.0
O297 O 0.64195 0.43008 0.47141 0.0
C298 C 0.67864 0.38951 0.62254 0.0
C299 C 0.60251 0.38347 0.59324 0.0
Zn300 Zn 0.37952 0.87488 0.20918 0.0
Zn301 Zn 0.3736 0.89314 0.39588 0.0
C302 C 0.38764 0.83319 0.18194 0.0
O303 O 0.40296 0.84452 0.15006 0.0
C304 C 0.36105 0.93634 0.42823 0.0
O305 O 0.34691 0.92613 0.46898 0.0
O306 O 0.38349 0.88317 0.10669 0.0
O307 O 0.3574 0.89492 0.24758 0.0
O308 O 0.34546 0.88123 0.3476 0.0
C309 C 0.37136 0.87632 0.05592 0.0
O310 O 0.3548 0.86357 0.07062 0.0
O311 O 0.37256 0.84306 0.21469 0.0
C312 C 0.38798 0.89585 0.53602 0.0
O313 O 0.40283 0.90673 0.50023 0.0
O314 O 0.3722 0.88721 0.50147 0.0
O315 O 0.4048 0.88303 0.37069 0.0
O316 O 0.409 0.87686 0.25458 0.0
O317 O 0.37352 0.92558 0.38805 0.0
C318 C 0.34187 0.88649 0.28223 0.0
C319 C 0.41685 0.87844 0.31778 0.0
H320 H 0.12398 0.58792 0.80422 0.0
H321 H 0.12561 0.65471 0.86417 0.0
H322 H 0.12675 0.66536 0.73604 0.0
H323 H 0.16116 0.59285 0.65728 0.0
H324 H 0.14667 0.57396 0.60172 0.0
H325 H 0.14554 0.57153 0.6982 0.0
H326 H 0.10295 0.57267 0.69096 0.0
H327 H 0.10394 0.57517 0.59443 0.0
H328 H 0.08944 0.59479 0.6453 0.0
H329 H 0.12876 0.66884 0.60257 0.0
H330 H 0.13147 0.66504 0.47137 0.0
H331 H 0.12789 0.59603 0.49655 0.0
C332 C 0.12452 0.6048 0.79046 0.0
C333 C 0.12471 0.62049 0.84439 0.0
C334 C 0.12546 0.64239 0.82396 0.0
C335 C 0.12608 0.64861 0.75128 0.0
C336 C 0.12589 0.63275 0.6996 0.0
C337 C 0.12511 0.6113 0.71809 0.0
C338 C 0.12539 0.5975 0.65182 0.0
C339 C 0.14591 0.58311 0.65231 0.0
C340 C 0.10416 0.58425 0.64526 0.0
C341 C 0.12649 0.61457 0.59319 0.0
C342 C 0.12679 0.63478 0.62212 0.0
C343 C 0.12843 0.65312 0.57922 0.0
C344 C 0.13 0.65077 0.50475 0.0
C345 C 0.1298 0.63024 0.47372 0.0
C346 C 0.12781 0.61193 0.51865 0.0
H347 H 0.63998 0.85161 0.00468 0.0
H348 H 0.59138 0.89424 0.09327 0.0
H349 H 0.58064 0.90618 0.97078 0.0
H350 H 0.65665 0.88672 0.85896 0.0
H351 H 0.65984 0.86534 0.79625 0.0
H352 H 0.66399 0.8603 0.89114 0.0
H353 H 0.63492 0.83001 0.88656 0.0
H354 H 0.63059 0.83503 0.79174 0.0
H355 H 0.60765 0.83578 0.85183 0.0
H356 H 0.57437 0.91281 0.8398 0.0
H357 H 0.57401 0.91499 0.70751 0.0
H358 H 0.62699 0.86848 0.70275 0.0
C359 C 0.62718 0.86355 0.99837 0.0
C360 C 0.61652 0.87198 0.05863 0.0
C361 C 0.59979 0.88754 0.048 0.0
C362 C 0.59354 0.89442 0.97862 0.0
C363 C 0.6042 0.88563 0.92044 0.0
C364 C 0.62073 0.87063 0.92941 0.0
C365 C 0.62942 0.8637 0.85755 0.0
C366 C 0.65393 0.86936 0.85058 0.0
C367 C 0.6254 0.83971 0.84628 0.0
C368 C 0.6152 0.8772 0.80688 0.0
C369 C 0.6007 0.88963 0.84443 0.0
C370 C 0.58568 0.90321 0.80972 0.0
C371 C 0.58558 0.90427 0.7345 0.0
C372 C 0.60048 0.89191 0.69475 0.0
C373 C 0.61544 0.87816 0.73164 0.0
H374 H 0.39194 0.33538 0.31793 0.0
H375 H 0.369 0.39905 0.36842 0.0
H376 H 0.36059 0.40595 0.24002 0.0
H377 H 0.41747 0.34956 0.15189 0.0
H378 H 0.4094 0.3254 0.1071 0.0
H379 H 0.4135 0.32522 0.20325 0.0
H380 H 0.37399 0.31056 0.22026 0.0
H381 H 0.36983 0.31056 0.12415 0.0
H382 H 0.35099 0.32477 0.17992 0.0
H383 H 0.35663 0.40675 0.10672 0.0
H384 H 0.35395 0.40021 0.97649 0.0
H385 H 0.37756 0.3354 0.01247 0.0
C386 C 0.38503 0.35073 0.30205 0.0
C387 C 0.38116 0.3667 0.3531 0.0
C388 C 0.37206 0.38656 0.33023 0.0
C389 C 0.3673 0.39067 0.25743 0.0
C390 C 0.37158 0.37469 0.20844 0.0
C391 C 0.38 0.35504 0.22967 0.0
C392 C 0.38288 0.3406 0.16598 0.0
C393 C 0.40726 0.33486 0.15652 0.0
C394 C 0.36856 0.32043 0.17302 0.0
C395 C 0.37464 0.35519 0.1057 0.0
C396 C 0.36852 0.37488 0.1314 0.0
C397 C 0.36119 0.39135 0.08593 0.0
C398 C 0.35985 0.38752 0.01214 0.0
C399 C 0.36548 0.36728 0.98487 0.0
C400 C 0.37297 0.35093 0.03224 0.0
H401 H 0.8891 0.12526 0.59874 0.0
H402 H 0.84187 0.17722 0.58201 0.0
H403 H 0.84293 0.17562 0.44979 0.0
H404 H 0.92162 0.14091 0.44518 0.0
H405 H 0.92612 0.11384 0.41727 0.0
H406 H 0.92214 0.11939 0.51088 0.0
H407 H 0.88982 0.0924 0.51448 0.0
H408 H 0.89374 0.08672 0.42099 0.0
H409 H 0.86722 0.09542 0.45108 0.0
H410 H 0.84852 0.16801 0.31898 0.0
H411 H 0.85763 0.15421 0.19936 0.0
H412 H 0.90108 0.10719 0.30101 0.0
C413 C 0.87904 0.13636 0.5673 0.0
C414 C 0.86541 0.15139 0.60095 0.0
C415 C 0.85243 0.16554 0.55768 0.0
C416 C 0.85294 0.16481 0.4824 0.0
C417 C 0.86651 0.14981 0.45095 0.0
C418 C 0.87929 0.1358 0.49195 0.0
C419 C 0.89201 0.12086 0.44464 0.0
C420 C 0.91695 0.12394 0.45513 0.0
C421 C 0.88529 0.09747 0.45864 0.0
C422 C 0.88432 0.12863 0.37076 0.0
C423 C 0.86968 0.14539 0.37556 0.0
C424 C 0.86004 0.15494 0.31451 0.0
C425 C 0.86533 0.14701 0.24677 0.0
C426 C 0.88012 0.12967 0.24058 0.0
C427 C 0.88982 0.12055 0.30366 0.0
H428 H 0.13279 0.35198 0.24433 0.0
H429 H 0.0946 0.4106 0.22885 0.0
H430 H 0.094 0.4124 0.36049 0.0
H431 H 0.10422 0.33018 0.3972 0.0
H432 H 0.12837 0.31831 0.43881 0.0
H433 H 0.12672 0.32173 0.34251 0.0
H434 H 0.16321 0.34316 0.34491 0.0
H435 H 0.16498 0.33977 0.44122 0.0
H436 H 0.16568 0.36621 0.40136 0.0
H437 H 0.09641 0.40793 0.49154 0.0
H438 H 0.10186 0.39726 0.61831 0.0
H439 H 0.13832 0.34129 0.55306 0.0
C440 C 0.12444 0.36521 0.26889 0.0
C441 C 0.11367 0.3811 0.22642 0.0
C442 C 0.10277 0.39812 0.26027 0.0
C443 C 0.1024 0.39936 0.33507 0.0
C444 C 0.1129 0.38341 0.37546 0.0
C445 C 0.12369 0.36661 0.34404 0.0
C446 C 0.13302 0.35131 0.40091 0.0
C447 C 0.12245 0.32907 0.39445 0.0
C448 C 0.15822 0.35005 0.39684 0.0
C449 C 0.12586 0.36229 0.46878 0.0
C450 C 0.11426 0.38075 0.45244 0.0
C451 C 0.10551 0.39353 0.50529 0.0
C452 C 0.10865 0.38728 0.57716 0.0
C453 C 0.12052 0.36844 0.59564 0.0
C454 C 0.12928 0.35583 0.54059 0.0
H455 H 0.88378 0.85717 0.84146 0.0
H456 H 0.91588 0.91916 0.83393 0.0
H457 H 0.91455 0.91869 0.70142 0.0
H458 H 0.91032 0.83511 0.68484 0.0
H459 H 0.88594 0.82131 0.65435 0.0
H460 H 0.89035 0.82592 0.7489 0.0
H461 H 0.85259 0.84495 0.75455 0.0
H462 H 0.84803 0.84031 0.66021 0.0
H463 H 0.84669 0.8671 0.69404 0.0
H464 H 0.90935 0.91186 0.56949 0.0
H465 H 0.89828 0.90027 0.44793 0.0
H466 H 0.86868 0.84317 0.54035 0.0
C467 C 0.89065 0.87059 0.81196 0.0
C468 C 0.90003 0.88817 0.84834 0.0
C469 C 0.90864 0.90549 0.80753 0.0
C470 C 0.90804 0.90535 0.7321 0.0
C471 C 0.89873 0.8878 0.69795 0.0
C472 C 0.89007 0.87078 0.73645 0.0
C473 C 0.88016 0.85432 0.68642 0.0
C474 C 0.89243 0.8329 0.6941 0.0
C475 C 0.8554 0.85151 0.69959 0.0
C476 C 0.88432 0.8649 0.61392 0.0
C477 C 0.89532 0.88406 0.62179 0.0
C478 C 0.90078 0.89685 0.56264 0.0
C479 C 0.89448 0.89008 0.49369 0.0
C480 C 0.88263 0.87079 0.48433 0.0
C481 C 0.87777 0.85797 0.54549 0.0
H482 H 0.3894 0.57807 0.73119 0.0
H483 H 0.37469 0.64256 0.65561 0.0
H484 H 0.36824 0.65338 0.78088 0.0
H485 H 0.34779 0.57684 0.87036 0.0
H486 H 0.36462 0.56105 0.93169 0.0
H487 H 0.36761 0.55835 0.83604 0.0
H488 H 0.40925 0.56684 0.84874 0.0
H489 H 0.40638 0.56952 0.94431 0.0
H490 H 0.41786 0.59114 0.89176 0.0
H491 H 0.36516 0.65742 0.9144 0.0
H492 H 0.36494 0.65445 0.04664 0.0
H493 H 0.3805 0.58688 0.03442 0.0
C494 C 0.3849 0.59449 0.74101 0.0
C495 C 0.38275 0.60957 0.68398 0.0
C496 C 0.37646 0.6308 0.69872 0.0
C497 C 0.37274 0.63707 0.76956 0.0
C498 C 0.37504 0.6218 0.8246 0.0
C499 C 0.38078 0.60091 0.81109 0.0
C500 C 0.38208 0.58759 0.87973 0.0
C501 C 0.36448 0.56992 0.87941 0.0
C502 C 0.40528 0.57823 0.89183 0.0
C503 C 0.37698 0.60444 0.93437 0.0
C504 C 0.37277 0.62401 0.90139 0.0
C505 C 0.36825 0.64215 0.94078 0.0
C506 C 0.3682 0.64028 0.01593 0.0
C507 C 0.37269 0.62041 0.05094 0.0
C508 C 0.37691 0.60225 0.00932 0.0
H509 H 0.64568 0.14951 0.01775 0.0
H510 H 0.60267 0.10012 0.93318 0.0
H511 H 0.58963 0.09224 0.05556 0.0
H512 H 0.66176 0.12196 0.17774 0.0
H513 H 0.66191 0.14531 0.23319 0.0
H514 H 0.66709 0.14794 0.13844 0.0
H515 H 0.6352 0.17528 0.12458 0.0
H516 H 0.62999 0.1728 0.21943 0.0
H517 H 0.60814 0.16805 0.15491 0.0
H518 H 0.58257 0.08846 0.18713 0.0
H519 H 0.58126 0.08966 0.3194 0.0
H520 H 0.62861 0.14168 0.31864 0.0
C521 C 0.63335 0.13719 0.02481 0.0
C522 C 0.62517 0.12547 0.9658 0.0
C523 C 0.60912 0.10939 0.97746 0.0
C524 C 0.60162 0.10476 0.04679 0.0
C525 C 0.61021 0.11644 0.10382 0.0
C526 C 0.62561 0.13241 0.09363 0.0
C527 C 0.6325 0.14225 0.16438 0.0
C528 C 0.65728 0.13917 0.17929 0.0
C529 C 0.62607 0.166 0.1659 0.0
C530 C 0.61885 0.12906 0.21599 0.0
C531 C 0.60604 0.11433 0.17988 0.0
C532 C 0.5924 0.10003 0.21602 0.0
C533 C 0.59179 0.10083 0.29119 0.0
C534 C 0.60479 0.11579 0.32939 0.0
C535 C 0.61843 0.13011 0.29101 0.0
H536 H 0.8927 0.40767 0.19752 0.0
H537 H 0.85514 0.35155 0.13659 0.0
H538 H 0.84985 0.34252 0.2647 0.0
H539 H 0.92038 0.38408 0.35131 0.0
H540 H 0.919 0.40772 0.40509 0.0
H541 H 0.9197 0.41014 0.3085 0.0
H542 H 0.88362 0.43214 0.30813 0.0
H543 H 0.88285 0.42987 0.40475 0.0
H544 H 0.85965 0.42119 0.35106 0.0
H545 H 0.84916 0.33901 0.39824 0.0
H546 H 0.85187 0.3417 0.52967 0.0
H547 H 0.88957 0.40036 0.5071 0.0
C548 C 0.88328 0.39352 0.21106 0.0
C549 C 0.87431 0.38033 0.15665 0.0
C550 C 0.86211 0.36196 0.17696 0.0
C551 C 0.85906 0.35666 0.2497 0.0
C552 C 0.86821 0.3699 0.30179 0.0
C553 C 0.87998 0.38802 0.28362 0.0
C554 C 0.88799 0.39952 0.35056 0.0
C555 C 0.91327 0.40041 0.35405 0.0
C556 C 0.87792 0.42201 0.3538 0.0
C557 C 0.87899 0.38493 0.40919 0.0
C558 C 0.86767 0.36796 0.37951 0.0
C559 C 0.85792 0.35226 0.42209 0.0
C560 C 0.8596 0.35396 0.49696 0.0
C561 C 0.87094 0.37126 0.5292 0.0
C562 C 0.88082 0.38693 0.48435 0.0
H563 H 0.35706 0.15292 0.28514 0.0
H564 H 0.4106 0.10723 0.30849 0.0
H565 H 0.41263 0.10481 0.17704 0.0
H566 H 0.33052 0.12899 0.13169 0.0
H567 H 0.32354 0.15408 0.08811 0.0
H568 H 0.32606 0.15242 0.18468 0.0
H569 H 0.35484 0.18297 0.18286 0.0
H570 H 0.35236 0.18475 0.08628 0.0
H571 H 0.37895 0.18047 0.12849 0.0
H572 H 0.40905 0.10689 0.04381 0.0
H573 H 0.40036 0.11398 0.91569 0.0
H574 H 0.34942 0.15859 0.97608 0.0
C575 C 0.36918 0.14242 0.26251 0.0
C576 C 0.38366 0.13027 0.30738 0.0
C577 C 0.39936 0.11677 0.27553 0.0
C578 C 0.40065 0.11523 0.20075 0.0
C579 C 0.3862 0.12737 0.1581 0.0
C580 C 0.37083 0.14078 0.18751 0.0
C581 C 0.35751 0.15225 0.12883 0.0
C582 C 0.33295 0.14659 0.13363 0.0
C583 C 0.36114 0.17655 0.13181 0.0
C584 C 0.36766 0.14294 0.06221 0.0
C585 C 0.38421 0.12866 0.08052 0.0
C586 C 0.39612 0.11805 0.02867 0.0
C587 C 0.39105 0.12218 0.95598 0.0
C588 C 0.37418 0.13679 0.93562 0.0
C589 C 0.36235 0.14726 0.98975 0.0
H590 H 0.63605 0.65223 0.9431 0.0
H591 H 0.61441 0.58907 0.0117 0.0
H592 H 0.60888 0.57917 0.88481 0.0
H593 H 0.59779 0.65798 0.79189 0.0
H594 H 0.61729 0.67168 0.73555 0.0
H595 H 0.61922 0.67404 0.83187 0.0
H596 H 0.65957 0.66081 0.83014 0.0
H597 H 0.65777 0.65838 0.73387 0.0
H598 H 0.66575 0.63565 0.78913 0.0
H599 H 0.60643 0.57574 0.75112 0.0
H600 H 0.60682 0.57897 0.61913 0.0
H601 H 0.62984 0.64446 0.63534 0.0
C602 C 0.63006 0.63633 0.93153 0.0
C603 C 0.62565 0.62142 0.98766 0.0
C604 C 0.61787 0.60079 0.96992 0.0
C605 C 0.61468 0.59501 0.8979 0.0
C606 C 0.61927 0.61003 0.84403 0.0
C607 C 0.62673 0.63029 0.85982 0.0
C608 C 0.63056 0.64332 0.79152 0.0
C609 C 0.6153 0.66292 0.78749 0.0
C610 C 0.65486 0.64992 0.78585 0.0
C611 C 0.62428 0.62714 0.73484 0.0
C612 C 0.61778 0.60807 0.76652 0.0
C613 C 0.61143 0.59061 0.72571 0.0
C614 C 0.61173 0.59263 0.65057 0.0
C615 C 0.61835 0.61198 0.61647 0.0
C616 C 0.62465 0.62947 0.65955 0.0
H617 H 0.16103 0.83107 0.50304 0.0
H618 H 0.13093 0.88711 0.40139 0.0
H619 H 0.12323 0.90156 0.5205 0.0
H620 H 0.12284 0.82686 0.65006 0.0
H621 H 0.14345 0.81857 0.71549 0.0
H622 H 0.1467 0.81229 0.62206 0.0
H623 H 0.18475 0.83095 0.6227 0.0
H624 H 0.18164 0.83726 0.71611 0.0
H625 H 0.18692 0.85828 0.6512 0.0
H626 H 0.11789 0.90977 0.64847 0.0
H627 H 0.11662 0.91223 0.78006 0.0
H628 H 0.15112 0.85166 0.80246 0.0
C629 C 0.15287 0.8464 0.50586 0.0
C630 C 0.14658 0.85793 0.44262 0.0
C631 C 0.13588 0.87792 0.4488 0.0
C632 C 0.13141 0.88629 0.5163 0.0
C633 C 0.13771 0.87451 0.57735 0.0
C634 C 0.14826 0.85505 0.5731 0.0
C635 C 0.15322 0.84578 0.64767 0.0
C636 C 0.14081 0.82462 0.65949 0.0
C637 C 0.17812 0.84291 0.66013 0.0
C638 C 0.14409 0.86327 0.69427 0.0
C639 C 0.135 0.87952 0.65222 0.0
C640 C 0.12499 0.89718 0.68205 0.0
C641 C 0.12427 0.89837 0.75697 0.0
C642 C 0.13374 0.88213 0.80158 0.0
C643 C 0.14385 0.86436 0.76968 0.0
H644 H 0.89849 0.60652 0.74018 0.0
H645 H 0.85397 0.6536 0.82602 0.0
H646 H 0.84275 0.66437 0.70253 0.0
H647 H 0.91574 0.63801 0.58514 0.0
H648 H 0.91667 0.6152 0.52735 0.0
H649 H 0.92181 0.61186 0.62253 0.0
H650 H 0.89087 0.5834 0.62884 0.0
H651 H 0.88553 0.58677 0.53382 0.0
H652 H 0.86358 0.59018 0.59656 0.0
H653 H 0.83479 0.66857 0.56996 0.0
H654 H 0.83246 0.66742 0.43726 0.0
H655 H 0.88269 0.61811 0.43865 0.0
C656 C 0.88659 0.61928 0.73313 0.0
C657 C 0.87714 0.62924 0.79282 0.0
C658 C 0.86149 0.64577 0.78113 0.0
C659 C 0.85496 0.65198 0.7112 0.0
C660 C 0.86431 0.64156 0.65361 0.0
C661 C 0.87992 0.62569 0.66378 0.0
C662 C 0.88712 0.61676 0.59282 0.0
C663 C 0.9118 0.6207 0.5813 0.0
C664 C 0.88143 0.59286 0.58775 0.0
C665 C 0.87311 0.63008 0.54118 0.0
C666 C 0.85996 0.6442 0.57728 0.0
C667 C 0.84513 0.6577 0.54103 0.0
C668 C 0.84385 0.65687 0.46576 0.0
C669 C 0.85745 0.64275 0.42775 0.0
C670 C 0.87222 0.6292 0.46621 0.0
H671 H 0.10936 0.11821 0.54434 0.0
H672 H 0.16022 0.16697 0.55049 0.0
H673 H 0.16189 0.16686 0.41848 0.0
H674 H 0.13058 0.08843 0.39804 0.0
H675 H 0.10403 0.08303 0.35758 0.0
H676 H 0.10647 0.08692 0.45311 0.0
H677 H 0.07745 0.11721 0.44415 0.0
H678 H 0.07489 0.11337 0.34856 0.0
H679 H 0.08167 0.13938 0.38278 0.0
H680 H 0.15861 0.16154 0.28704 0.0
H681 H 0.15017 0.15153 0.16217 0.0
H682 H 0.10124 0.10625 0.23822 0.0
C683 C 0.12079 0.12888 0.5178 0.0
C684 C 0.13463 0.14264 0.55788 0.0
C685 C 0.14933 0.1564 0.52112 0.0
C686 C 0.15047 0.15643 0.44604 0.0
C687 C 0.13667 0.14272 0.40817 0.0
C688 C 0.12201 0.12927 0.44246 0.0
C689 C 0.10888 0.11635 0.38826 0.0
C690 C 0.11273 0.09226 0.39996 0.0
C691 C 0.08426 0.12191 0.39112 0.0
C692 C 0.11885 0.12433 0.31851 0.0
C693 C 0.13474 0.13964 0.33149 0.0
C694 C 0.14618 0.14959 0.27606 0.0
C695 C 0.14123 0.14379 0.20525 0.0
C696 C 0.12506 0.12809 0.19028 0.0
C697 C 0.11377 0.11822 0.2479 0.0
H698 H 0.61715 0.40139 0.22371 0.0
H699 H 0.6643 0.35677 0.31966 0.0
H700 H 0.67273 0.34343 0.19894 0.0
H701 H 0.59679 0.36658 0.08283 0.0
H702 H 0.59422 0.38801 0.01724 0.0
H703 H 0.59122 0.3934 0.1114 0.0
H704 H 0.62187 0.42211 0.10345 0.0
H705 H 0.62501 0.41675 0.00937 0.0
H706 H 0.64845 0.41487 0.06983 0.0
H707 H 0.67723 0.3361 0.06786 0.0
H708 H 0.67694 0.33456 0.93554 0.0
H709 H 0.62663 0.38382 0.92456 0.0
C710 C 0.62909 0.38865 0.21956 0.0
C711 C 0.64003 0.38007 0.2813 0.0
C712 C 0.65567 0.36356 0.27325 0.0
C713 C 0.66058 0.35588 0.2049 0.0
C714 C 0.64968 0.36487 0.14518 0.0
C715 C 0.6342 0.38083 0.1518 0.0
C716 C 0.62524 0.38813 0.07887 0.0
C717 C 0.60039 0.38376 0.07222 0.0
C718 C 0.63046 0.41187 0.06457 0.0
C719 C 0.63819 0.37385 0.0301 0.0
C720 C 0.65219 0.36056 0.06951 0.0
C721 C 0.66624 0.34633 0.03647 0.0
C722 C 0.66598 0.34562 0.96119 0.0
C723 C 0.65173 0.35904 0.91958 0.0
C724 C 0.63761 0.37327 0.9548 0.0
H725 H 0.34991 0.86388 0.93214 0.0
H726 H 0.40556 0.90098 0.0106 0.0
H727 H 0.41588 0.90942 0.88611 0.0
H728 H 0.37714 0.84164 0.78047 0.0
H729 H 0.35326 0.84323 0.72182 0.0
H730 H 0.34995 0.84002 0.81745 0.0
H731 H 0.32552 0.87395 0.81854 0.0
H732 H 0.32868 0.87722 0.72288 0.0
H733 H 0.33597 0.89874 0.78196 0.0
H734 H 0.42057 0.91367 0.75508 0.0
H735 H 0.41878 0.91439 0.62281 0.0
H736 H 0.36001 0.87483 0.62782 0.0
C737 C 0.36421 0.87383 0.9231 0.0
C738 C 0.3769 0.88179 0.98106 0.0
C739 C 0.39554 0.89473 0.96706 0.0
C740 C 0.40159 0.8996 0.89655 0.0
C741 C 0.38882 0.89143 0.84072 0.0
C742 C 0.37049 0.8789 0.85291 0.0
C743 C 0.35964 0.87228 0.78285 0.0
C744 C 0.36003 0.84784 0.77522 0.0
C745 C 0.33606 0.88108 0.77618 0.0
C746 C 0.37475 0.88312 0.72961 0.0
C747 C 0.3915 0.894 0.76434 0.0
C748 C 0.40754 0.90525 0.72706 0.0
C749 C 0.40637 0.90554 0.65196 0.0
C750 C 0.38924 0.89469 0.61509 0.0
C751 C 0.37329 0.88327 0.65456 0.0
H752 H 0.14864 0.6882 0.11518 0.0
H753 H 0.10447 0.67035 0.28754 0.0
H754 H 0.10043 0.70803 0.31846 0.0
H755 H 0.17609 0.73088 0.21108 0.0
H756 H 0.17836 0.74821 0.13317 0.0
H757 H 0.1779 0.71964 0.12274 0.0
H758 H 0.14479 0.72325 0.03386 0.0
H759 H 0.14516 0.75183 0.04398 0.0
H760 H 0.12034 0.73698 0.06136 0.0
H761 H 0.10009 0.74712 0.3305 0.0
H762 H 0.1046 0.78617 0.32553 0.0
H763 H 0.14982 0.78008 0.14867 0.0
C764 C 0.13811 0.69226 0.1593 0.0
C765 C 0.12685 0.67619 0.19869 0.0
C766 C 0.11331 0.68222 0.25633 0.0
C767 C 0.11085 0.70365 0.27446 0.0
C768 C 0.12209 0.71904 0.23482 0.0
C769 C 0.13553 0.71375 0.17866 0.0
C770 C 0.14583 0.7337 0.14571 0.0
C771 C 0.17104 0.73307 0.15368 0.0
C772 C 0.1386 0.73661 0.06653 0.0
C773 C 0.136 0.75089 0.19225 0.0
C774 C 0.12227 0.74196 0.24294 0.0
C775 C 0.11086 0.75436 0.29126 0.0
C776 C 0.1135 0.77656 0.28786 0.0
C777 C 0.12759 0.78622 0.23688 0.0
C778 C 0.13906 0.77315 0.18859 0.0
H779 H 0.54204 0.89638 0.44741 0.0
H780 H 0.55885 0.84629 0.29907 0.0
H781 H 0.51957 0.8401 0.2737 0.0
H782 H 0.49176 0.871 0.51703 0.0
H783 H 0.47692 0.89587 0.52125 0.0
H784 H 0.50644 0.89558 0.53267 0.0
H785 H 0.51 0.92342 0.42895 0.0
H786 H 0.48053 0.92381 0.41728 0.0
H787 H 0.49776 0.91787 0.34226 0.0
H788 H 0.47937 0.84069 0.25706 0.0
H789 H 0.43967 0.84813 0.24947 0.0
H790 H 0.44731 0.89747 0.40928 0.0
C791 C 0.53741 0.88392 0.41037 0.0
C792 C 0.5536 0.87181 0.37522 0.0
C793 C 0.54685 0.85584 0.32641 0.0
C794 C 0.52453 0.85212 0.31186 0.0
C795 C 0.50904 0.86446 0.34653 0.0
C796 C 0.51506 0.88003 0.39483 0.0
C797 C 0.49489 0.8917 0.42148 0.0
C798 C 0.49236 0.88833 0.50296 0.0
C799 C 0.49586 0.91562 0.40127 0.0
C800 C 0.47672 0.88041 0.37972 0.0
C801 C 0.4854 0.8647 0.33715 0.0
C802 C 0.47233 0.85279 0.2906 0.0
C803 C 0.4498 0.85721 0.28647 0.0
C804 C 0.44043 0.87332 0.32887 0.0
C805 C 0.45402 0.88485 0.37711 0.0
H806 H 0.37113 0.30368 0.59145 0.0
H807 H 0.38654 0.32464 0.80734 0.0
H808 H 0.3889 0.28694 0.84927 0.0
H809 H 0.33722 0.25741 0.64736 0.0
H810 H 0.34661 0.24113 0.57496 0.0
H811 H 0.34502 0.26974 0.56329 0.0
H812 H 0.38611 0.27072 0.52869 0.0
H813 H 0.38791 0.24218 0.54081 0.0
H814 H 0.40648 0.25935 0.58963 0.0
H815 H 0.39338 0.24731 0.86421 0.0
H816 H 0.39597 0.20811 0.85518 0.0
H817 H 0.37517 0.21238 0.63108 0.0
C818 C 0.37466 0.30024 0.64775 0.0
C819 C 0.37836 0.31693 0.6967 0.0
C820 C 0.3831 0.31201 0.76974 0.0
C821 C 0.38466 0.29067 0.79372 0.0
C822 C 0.38109 0.27453 0.74403 0.0
C823 C 0.3758 0.27903 0.67283 0.0
C824 C 0.37283 0.25869 0.63049 0.0
C825 C 0.349 0.25662 0.60238 0.0
C826 C 0.38932 0.25768 0.56878 0.0
C827 C 0.37796 0.24203 0.68849 0.0
C828 C 0.38277 0.25156 0.75346 0.0
C829 C 0.3893 0.23965 0.81399 0.0
C830 C 0.39084 0.2174 0.80819 0.0
C831 C 0.38561 0.20722 0.74262 0.0
C832 C 0.37894 0.21973 0.68215 0.0
H833 H 0.94677 0.12643 0.02868 0.0
H834 H 0.93846 0.12225 0.79733 0.0
H835 H 0.97889 0.12382 0.78368 0.0
H836 H 0.99028 0.16503 0.0215 0.0
H837 H 0.00469 0.1544 0.09967 0.0
H838 H 0.97529 0.15142 0.09144 0.0
H839 H 0.97922 0.11038 0.10744 0.0
H840 H 0.00863 0.11322 0.11601 0.0
H841 H 0.997 0.09594 0.04874 0.0
H842 H 0.02043 0.12552 0.796 0.0
H843 H 0.05955 0.12953 0.83246 0.0
H844 H 0.04024 0.13527 0.0549 0.0
C845 C 0.95351 0.12553 0.97528 0.0
C846 C 0.93959 0.12388 0.91407 0.0
C847 C 0.94892 0.12336 0.84488 0.0
C848 C 0.97183 0.12423 0.83665 0.0
C849 C 0.98513 0.12602 0.89809 0.0
C850 C 0.97629 0.1269 0.966 0.0
C851 C 0.99405 0.13015 0.02287 0.0
C852 C 0.99088 0.15152 0.0611 0.0
C853 C 0.99477 0.11129 0.07694 0.0
C854 C 0.0143 0.13065 0.97653 0.0
C855 C 0.00885 0.12809 0.90477 0.0
C856 C 0.02488 0.12765 0.85201 0.0
C857 C 0.04704 0.12992 0.87321 0.0
C858 C 0.05295 0.13286 0.9464 0.0
C859 C 0.03627 0.13326 0.99843 0.0
H860 H 0.09145 0.28587 0.77647 0.0
H861 H 0.14917 0.3065 0.89746 0.0
H862 H 0.15991 0.26879 0.91772 0.0
H863 H 0.07937 0.23992 0.88693 0.0
H864 H 0.07065 0.22363 0.81268 0.0
H865 H 0.06762 0.25224 0.80682 0.0
H866 H 0.09004 0.25303 0.68955 0.0
H867 H 0.09318 0.22442 0.69517 0.0
H868 H 0.11714 0.24133 0.68953 0.0
H869 H 0.16381 0.22899 0.92809 0.0
H870 H 0.161 0.18972 0.92677 0.0
H871 H 0.10126 0.19458 0.79625 0.0
C872 C 0.10638 0.28249 0.80715 0.0
C873 C 0.11946 0.29921 0.83548 0.0
C874 C 0.13886 0.29403 0.87528 0.0
C875 C 0.14512 0.27264 0.88701 0.0
C876 C 0.13185 0.25659 0.8584 0.0
C877 C 0.11291 0.26123 0.81917 0.0
C878 C 0.10147 0.24094 0.7949 0.0
C879 C 0.07841 0.23908 0.82728 0.0
C880 C 0.10041 0.23988 0.71238 0.0
C881 C 0.11694 0.22415 0.82673 0.0
C882 C 0.1343 0.23357 0.86333 0.0
C883 C 0.15036 0.22145 0.8993 0.0
C884 C 0.14858 0.19913 0.89833 0.0
C885 C 0.13095 0.18904 0.86125 0.0
C886 C 0.11504 0.20179 0.82442 0.0
H887 H 0.07713 0.87831 0.00726 0.0
H888 H 0.08455 0.86958 0.23833 0.0
H889 H 0.04412 0.86944 0.24999 0.0
H890 H 0.02877 0.91218 0.00684 0.0
H891 H 0.01632 0.89974 0.92945 0.0
H892 H 0.04584 0.90042 0.93975 0.0
H893 H 0.04728 0.85922 0.92911 0.0
H894 H 0.01778 0.8584 0.91885 0.0
H895 H 0.03122 0.84279 0.98905 0.0
H896 H 0.00273 0.87025 0.23652 0.0
H897 H 0.96358 0.86968 0.19797 0.0
H898 H 0.9832 0.87585 0.97523 0.0
C899 C 0.07023 0.87662 0.06035 0.0
C900 C 0.08398 0.87415 0.12199 0.0
C901 C 0.07432 0.87152 0.19039 0.0
C902 C 0.05137 0.87148 0.1976 0.0
C903 C 0.03826 0.8738 0.13578 0.0
C904 C 0.04732 0.87613 0.06839 0.0
C905 C 0.02956 0.87713 0.01024 0.0
C906 C 0.03016 0.89865 0.96917 0.0
C907 C 0.03158 0.85826 0.95879 0.0
C908 C 0.00911 0.87514 0.05548 0.0
C909 C 0.01447 0.87342 0.1278 0.0
C910 C 0.99834 0.87153 0.17998 0.0
C911 C 0.97614 0.87125 0.1576 0.0
C912 C 0.97028 0.87261 0.08362 0.0
C913 C 0.98709 0.87464 0.03219 0.0
H914 H 0.37056 0.71116 0.31337 0.0
H915 H 0.42076 0.69544 0.15912 0.0
H916 H 0.42367 0.73323 0.12401 0.0
H917 H 0.3435 0.75175 0.20969 0.0
H918 H 0.33895 0.76945 0.28347 0.0
H919 H 0.3409 0.74105 0.29976 0.0
H920 H 0.37238 0.74685 0.39284 0.0
H921 H 0.37035 0.77531 0.37779 0.0
H922 H 0.39633 0.76195 0.36707 0.0
H923 H 0.42006 0.77141 0.09939 0.0
H924 H 0.41328 0.80999 0.09539 0.0
H925 H 0.36633 0.80302 0.26797 0.0
C926 C 0.38227 0.71576 0.27269 0.0
C927 C 0.39533 0.7003 0.23869 0.0
C928 C 0.41056 0.70692 0.18601 0.0
C929 C 0.41231 0.72838 0.16537 0.0
C930 C 0.39893 0.74312 0.19852 0.0
C931 C 0.38449 0.73732 0.25193 0.0
C932 C 0.37245 0.75677 0.27931 0.0
C933 C 0.34747 0.75462 0.26731 0.0
C934 C 0.37823 0.76044 0.35898 0.0
C935 C 0.38205 0.77424 0.23145 0.0
C936 C 0.39724 0.76579 0.18538 0.0
C937 C 0.40837 0.77832 0.13558 0.0
C938 C 0.40434 0.80026 0.13375 0.0
C939 C 0.38935 0.8096 0.18158 0.0
C940 C 0.37779 0.79633 0.23052 0.0
H941 H 0.54101 0.12226 0.64231 0.0
H942 H 0.54621 0.15305 0.43233 0.0
H943 H 0.50594 0.15516 0.42216 0.0
H944 H 0.49023 0.09165 0.60266 0.0
H945 H 0.47894 0.09579 0.69033 0.0
H946 H 0.50834 0.0948 0.67955 0.0
H947 H 0.51204 0.13191 0.73818 0.0
H948 H 0.48267 0.13306 0.74872 0.0
H949 H 0.49664 0.15421 0.70087 0.0
H950 H 0.46601 0.15635 0.43597 0.0
H951 H 0.42744 0.15613 0.47287 0.0
H952 H 0.44646 0.12493 0.67505 0.0
C953 C 0.53357 0.12909 0.59386 0.0
C954 C 0.54671 0.1375 0.53807 0.0
C955 C 0.53647 0.14665 0.47591 0.0
C956 C 0.51359 0.14784 0.46941 0.0
C957 C 0.50107 0.13991 0.52567 0.0
C958 C 0.51054 0.13066 0.58675 0.0
C959 C 0.49298 0.12455 0.6406 0.0
C960 C 0.4926 0.10025 0.65406 0.0
C961 C 0.49629 0.13666 0.71127 0.0
C962 C 0.47236 0.13206 0.60029 0.0
C963 C 0.47755 0.14074 0.534 0.0
C964 C 0.46165 0.14944 0.48752 0.0
C965 C 0.43975 0.1493 0.5092 0.0
C966 C 0.43384 0.14049 0.57685 0.0
C967 C 0.45043 0.13166 0.62285 0.0
H968 H 0.86954 0.21714 0.89126 0.0
H969 H 0.91453 0.21052 0.71397 0.0
H970 H 0.91562 0.24955 0.69821 0.0
H971 H 0.8388 0.26188 0.81801 0.0
H972 H 0.83627 0.27519 0.90267 0.0
H973 H 0.83868 0.24651 0.90089 0.0
H974 H 0.87245 0.24815 0.98752 0.0
H975 H 0.87009 0.27683 0.98971 0.0
H976 H 0.89561 0.2647 0.96403 0.0
H977 H 0.91154 0.28855 0.69842 0.0
H978 H 0.90413 0.32643 0.71849 0.0
H979 H 0.86258 0.30934 0.89862 0.0
C980 C 0.87961 0.22395 0.84925 0.0
C981 C 0.89196 0.21074 0.80382 0.0
C982 C 0.90504 0.22026 0.7497 0.0
C983 C 0.90571 0.24244 0.74008 0.0
C984 C 0.89338 0.25499 0.78541 0.0
C985 C 0.88072 0.24623 0.83938 0.0
C986 C 0.86949 0.26367 0.88133 0.0
C987 C 0.84432 0.26169 0.87533 0.0
C988 C 0.87739 0.26331 0.96034 0.0
C989 C 0.87768 0.28348 0.84174 0.0
C990 C 0.89138 0.27794 0.78656 0.0
C991 C 0.90094 0.29315 0.74167 0.0
C992 C 0.89657 0.31468 0.75366 0.0
C993 C 0.8828 0.32098 0.81037 0.0
C994 C 0.87317 0.30508 0.85489 0.0
H995 H 0.62172 0.78886 0.33221 0.0
H996 H 0.58056 0.79335 0.13937 0.0
H997 H 0.58038 0.75401 0.13169 0.0
H998 H 0.65479 0.74504 0.27792 0.0
H999 H 0.6562 0.73265 0.36606 0.0
H1000 H 0.6529 0.76116 0.35701 0.0
H1001 H 0.61772 0.75918 0.43364 0.0
H1002 H 0.62091 0.73065 0.44295 0.0
H1003 H 0.59556 0.74169 0.407 0.0
H1004 H 0.58564 0.7145 0.1425 0.0
H1005 H 0.59493 0.67711 0.17317 0.0
H1006 H 0.63185 0.69819 0.36114 0.0
C1007 C 0.61264 0.78157 0.28839 0.0
C1008 C 0.60118 0.79415 0.23625 0.0
C1009 C 0.58941 0.78402 0.17999 0.0
C1010 C 0.58923 0.7617 0.17511 0.0
C1011 C 0.60075 0.74978 0.22725 0.0
C1012 C 0.61212 0.75932 0.28307 0.0
C1013 C 0.62308 0.74281 0.3322 0.0
C1014 C 0.64823 0.74558 0.33331 0.0
C1015 C 0.61375 0.74364 0.40846 0.0
C1016 C 0.61627 0.7225 0.29475 0.0
C1017 C 0.60343 0.72691 0.2343 0.0
C1018 C 0.59557 0.71082 0.18994 0.0
C1019 C 0.60099 0.68963 0.20782 0.0
C1020 C 0.61406 0.68469 0.26974 0.0
C1021 C 0.6217 0.70141 0.31378 0.0
H1022 H 0.86977 0.71448 0.2947 0.0
H1023 H 0.86698 0.69622 0.07085 0.0
H1024 H 0.8652 0.73445 0.03403 0.0
H1025 H 0.83161 0.76017 0.2739 0.0
H1026 H 0.84651 0.77574 0.33928 0.0
H1027 H 0.84623 0.747 0.34721 0.0
H1028 H 0.88888 0.74666 0.34876 0.0
H1029 H 0.88929 0.77534 0.3403 0.0
H1030 H 0.90341 0.75934 0.2759 0.0
H1031 H 0.86824 0.7747 0.02244 0.0
H1032 H 0.87178 0.81378 0.03651 0.0
H1033 H 0.86973 0.80557 0.26834 0.0
C1034 C 0.86849 0.71854 0.23793 0.0
C1035 C 0.86859 0.70248 0.18546 0.0
C1036 C 0.86679 0.70833 0.11179 0.0
C1037 C 0.86585 0.72997 0.09048 0.0
C1038 C 0.86623 0.74545 0.14366 0.0
C1039 C 0.86706 0.73997 0.21593 0.0
C1040 C 0.86747 0.7596 0.26249 0.0
C1041 C 0.84672 0.76069 0.30842 0.0
C1042 C 0.88852 0.76027 0.30961 0.0
C1043 C 0.86746 0.77705 0.20518 0.0
C1044 C 0.86683 0.76857 0.13696 0.0
C1045 C 0.8683 0.78152 0.07553 0.0
C1046 C 0.87041 0.80367 0.08407 0.0
C1047 C 0.87076 0.81269 0.15346 0.0
C1048 C 0.86905 0.79916 0.21461 0.0
H1049 H 0.61339 0.19568 0.56983 0.0
H1050 H 0.65508 0.18175 0.7568 0.0
H1051 H 0.66042 0.22045 0.77467 0.0
H1052 H 0.64351 0.24093 0.50351 0.0
H1053 H 0.61925 0.25561 0.47547 0.0
H1054 H 0.6189 0.22683 0.47691 0.0
H1055 H 0.5851 0.227 0.56 0.0
H1056 H 0.58528 0.25578 0.55865 0.0
H1057 H 0.58657 0.24132 0.64325 0.0
H1058 H 0.66183 0.26045 0.77048 0.0
H1059 H 0.65749 0.2992 0.74961 0.0
H1060 H 0.61387 0.28704 0.56737 0.0
C1061 C 0.62372 0.20072 0.61442 0.0
C1062 C 0.63396 0.18568 0.66165 0.0
C1063 C 0.6471 0.19298 0.71988 0.0
C1064 C 0.65028 0.21491 0.73036 0.0
C1065 C 0.64005 0.22928 0.68249 0.0
C1066 C 0.6269 0.2225 0.62605 0.0
C1067 C 0.61736 0.24122 0.58333 0.0
C1068 C 0.62523 0.24113 0.50518 0.0
C1069 C 0.59208 0.24133 0.58654 0.0
C1070 C 0.62728 0.25963 0.62442 0.0
C1071 C 0.64042 0.25237 0.68111 0.0
C1072 C 0.65154 0.26634 0.72641 0.0
C1073 C 0.649 0.28833 0.71388 0.0
C1074 C 0.63532 0.29617 0.6568 0.0
C1075 C 0.6244 0.28156 0.61146 0.0
H1076 H 0.95021 0.38697 0.89029 0.0
H1077 H 0.94306 0.33143 0.03124 0.0
H1078 H 0.98341 0.32844 0.04224 0.0
H1079 H 0.99653 0.36793 0.79466 0.0
H1080 H 0.00976 0.39366 0.78835 0.0
H1081 H 0.98026 0.39203 0.79361 0.0
H1082 H 0.98121 0.41647 0.90477 0.0
H1083 H 0.01075 0.41812 0.89992 0.0
H1084 H 0.99808 0.40905 0.98185 0.0
H1085 H 0.02433 0.33204 0.04146 0.0
H1086 H 0.06355 0.3401 0.01936 0.0
H1087 H 0.04429 0.3916 0.87271 0.0
C1088 C 0.95713 0.3742 0.92357 0.0
C1089 C 0.94347 0.35949 0.96017 0.0
C1090 C 0.95318 0.34293 0.00282 0.0
C1091 C 0.97608 0.34112 0.00961 0.0
C1092 C 0.98906 0.35592 0.97317 0.0
C1093 C 0.97999 0.37205 0.93051 0.0
C1094 C 0.99772 0.38552 0.89567 0.0
C1095 C 0.99596 0.38472 0.81318 0.0
C1096 C 0.99688 0.40866 0.92214 0.0
C1097 C 0.01812 0.37411 0.92412 0.0
C1098 C 0.01274 0.35739 0.97003 0.0
C1099 C 0.02877 0.34499 0.00524 0.0
C1100 C 0.05092 0.3497 0.99264 0.0
C1101 C 0.05671 0.36629 0.94404 0.0
C1102 C 0.04014 0.37865 0.90942 0.0
H1103 H 0.44644 0.62931 0.45275 0.0
H1104 H 0.43875 0.60569 0.2361 0.0
H1105 H 0.47936 0.60444 0.22472 0.0
H1106 H 0.49197 0.66419 0.4104 0.0
H1107 H 0.50533 0.66035 0.49689 0.0
H1108 H 0.47585 0.65818 0.48866 0.0
H1109 H 0.47758 0.6202 0.54607 0.0
H1110 H 0.50707 0.6222 0.55425 0.0
H1111 H 0.49478 0.60018 0.50686 0.0
H1112 H 0.52107 0.60487 0.2395 0.0
H1113 H 0.56018 0.61054 0.2737 0.0
H1114 H 0.53999 0.63659 0.47704 0.0
C1115 C 0.45337 0.62374 0.40316 0.0
C1116 C 0.43964 0.6173 0.34555 0.0
C1117 C 0.44913 0.6106 0.28079 0.0
C1118 C 0.47211 0.60978 0.27404 0.0
C1119 C 0.48527 0.61621 0.332 0.0
C1120 C 0.4762 0.62342 0.39483 0.0
C1121 C 0.49383 0.63074 0.44737 0.0
C1122 C 0.49161 0.65479 0.46164 0.0
C1123 C 0.49328 0.61753 0.51779 0.0
C1124 C 0.51429 0.62607 0.40507 0.0
C1125 C 0.50906 0.61754 0.33888 0.0
C1126 C 0.52533 0.61168 0.29099 0.0
C1127 C 0.54749 0.61488 0.31095 0.0
C1128 C 0.55314 0.6241 0.37781 0.0
C1129 C 0.53623 0.62964 0.42533 0.0
H1130 H 0.47761 0.35669 0.68848 0.0
H1131 H 0.45844 0.39977 0.51281 0.0
H1132 H 0.49745 0.40771 0.4907 0.0
H1133 H 0.52379 0.3883 0.75357 0.0
H1134 H 0.54058 0.36527 0.77525 0.0
H1135 H 0.51104 0.36333 0.77884 0.0
H1136 H 0.51175 0.33167 0.69077 0.0
H1137 H 0.54127 0.33357 0.68677 0.0
H1138 H 0.52489 0.33506 0.60514 0.0
H1139 H 0.53821 0.41007 0.48434 0.0
H1140 H 0.57851 0.40746 0.49601 0.0
H1141 H 0.57157 0.36318 0.67677 0.0
C1142 C 0.4816 0.3679 0.64569 0.0
C1143 C 0.46494 0.3776 0.60241 0.0
C1144 C 0.47088 0.39214 0.54678 0.0
C1145 C 0.493 0.39677 0.53372 0.0
C1146 C 0.50899 0.38681 0.57692 0.0
C1147 C 0.50363 0.37276 0.63197 0.0
C1148 C 0.5241 0.36405 0.66977 0.0
C1149 C 0.52492 0.37064 0.74906 0.0
C1150 C 0.52558 0.33964 0.66265 0.0
C1151 C 0.54177 0.3753 0.6269 0.0
C1152 C 0.53266 0.38833 0.57364 0.0
C1153 C 0.54557 0.40002 0.52609 0.0
C1154 C 0.56847 0.39838 0.53316 0.0
C1155 C 0.57826 0.38517 0.58752 0.0
C1156 C 0.56464 0.37354 0.63503 0.0
H1157 H 0.03688 0.60911 0.9848 0.0
H1158 H 0.05989 0.63309 0.19062 0.0
H1159 H 0.02142 0.63801 0.22727 0.0
H1160 H 0.99092 0.64506 0.96245 0.0
H1161 H 0.97313 0.62539 0.92209 0.0
H1162 H 1.00249 0.62359 0.91186 0.0
H1163 H 1.00203 0.58504 0.96497 0.0
H1164 H 0.97267 0.58673 0.97521 0.0
H1165 H 0.99009 0.58016 0.05179 0.0
H1166 H 0.98068 0.64007 0.2422 0.0
H1167 H 0.94021 0.63938 0.23462 0.0
H1168 H 0.94337 0.61448 0.01833 0.0
C1169 C 0.03386 0.61536 0.03765 0.0
C1170 C 0.05146 0.62067 0.08491 0.0
C1171 C 0.04673 0.62888 0.15349 0.0
C1172 C 0.02492 0.63174 0.17481 0.0
C1173 C 0.00801 0.62638 0.12692 0.0
C1174 C 0.01218 0.61839 0.05975 0.0
C1175 C 0.99095 0.61395 0.01857 0.0
C1176 C 0.98928 0.62783 0.94967 0.0
C1177 C 0.98881 0.59005 0.00166 0.0
C1178 C 0.97419 0.62067 0.0732 0.0
C1179 C 0.98442 0.62776 0.13531 0.0
C1180 C 0.97248 0.63458 0.19382 0.0
C1181 C 0.94946 0.63409 0.18894 0.0
C1182 C 0.93852 0.62688 0.12586 0.0
C1183 C 0.95117 0.62017 0.06718 0.0
H1184 H 0.12704 0.55696 0.01749 0.0
H1185 H 0.13294 0.54641 0.24841 0.0
H1186 H 0.13293 0.5075 0.23018 0.0
H1187 H 0.09017 0.51343 0.98402 0.0
H1188 H 0.10214 0.50654 0.8995 0.0
H1189 H 0.10344 0.53368 0.93 0.0
H1190 H 0.14583 0.53332 0.91908 0.0
H1191 H 0.14472 0.50617 0.88847 0.0
H1192 H 0.16162 0.5128 0.9655 0.0
H1193 H 0.13192 0.46995 0.18809 0.0
H1194 H 0.12925 0.4358 0.12515 0.0
H1195 H 0.12329 0.47006 0.92055 0.0
C1196 C 0.12849 0.5465 0.0642 0.0
C1197 C 0.13003 0.55484 0.13445 0.0
C1198 C 0.13167 0.54049 0.1941 0.0
C1199 C 0.13174 0.51833 0.18431 0.0
C1200 C 0.13005 0.51068 0.11454 0.0
C1201 C 0.12841 0.52427 0.05544 0.0
C1202 C 0.12622 0.51176 0.98639 0.0
C1203 C 0.10418 0.51664 0.94772 0.0
C1204 C 0.14576 0.51628 0.93695 0.0
C1205 C 0.12685 0.48901 0.01605 0.0
C1206 C 0.12918 0.48884 0.09011 0.0
C1207 C 0.13013 0.46987 0.13011 0.0
C1208 C 0.12861 0.45051 0.09364 0.0
C1209 C 0.12608 0.45014 0.01767 0.0
C1210 C 0.12521 0.46974 0.97854 0.0
H1211 H 0.68075 0.88257 0.25883 0.0
H1212 H 0.68328 0.87518 0.49097 0.0
H1213 H 0.72413 0.87512 0.488 0.0
H1214 H 0.72539 0.84979 0.21708 0.0
H1215 H 0.73543 0.86686 0.14582 0.0
H1216 H 0.70666 0.86699 0.1671 0.0
H1217 H 0.7082 0.90788 0.18618 0.0
H1218 H 0.73697 0.90794 0.16448 0.0
H1219 H 0.72815 0.91869 0.24852 0.0
H1220 H 0.76488 0.87335 0.45705 0.0
H1221 H 0.80177 0.87303 0.40312 0.0
H1222 H 0.77199 0.88348 0.19167 0.0
C1223 C 0.68991 0.88104 0.30913 0.0
C1224 C 0.67894 0.8787 0.37516 0.0
C1225 C 0.69143 0.87704 0.43991 0.0
C1226 C 0.71459 0.87693 0.43861 0.0
C1227 C 0.72491 0.87896 0.37226 0.0
C1228 C 0.71291 0.88138 0.30888 0.0
C1229 C 0.72779 0.88366 0.24471 0.0
C1230 C 0.72356 0.86575 0.19052 0.0
C1231 C 0.72512 0.90586 0.20887 0.0
C1232 C 0.75011 0.88135 0.28132 0.0
C1233 C 0.74815 0.87871 0.35491 0.0
C1234 C 0.76657 0.87565 0.39961 0.0
C1235 C 0.78747 0.87543 0.36838 0.0
C1236 C 0.78985 0.87831 0.29309 0.0
C1237 C 0.77082 0.88135 0.24937 0.0
H1238 H 0.35364 0.4469 0.70081 0.0
H1239 H 0.39784 0.41871 0.54801 0.0
H1240 H 0.40238 0.45425 0.48874 0.0
H1241 H 0.32607 0.48179 0.5774 0.0
H1242 H 0.32337 0.50298 0.6411 0.0
H1243 H 0.32454 0.47561 0.67221 0.0
H1244 H 0.35766 0.48471 0.75619 0.0
H1245 H 0.35655 0.51213 0.72539 0.0
H1246 H 0.38174 0.49716 0.71872 0.0
H1247 H 0.40177 0.49352 0.44726 0.0
H1248 H 0.39531 0.53217 0.42521 0.0
H1249 H 0.35044 0.53309 0.60411 0.0
C1250 C 0.36442 0.44812 0.65514 0.0
C1251 C 0.37549 0.43007 0.62916 0.0
C1252 C 0.38926 0.43238 0.56886 0.0
C1253 C 0.39193 0.45248 0.53499 0.0
C1254 C 0.38062 0.46994 0.56207 0.0
C1255 C 0.36711 0.46786 0.62075 0.0
C1256 C 0.35629 0.48877 0.6389 0.0
C1257 C 0.33108 0.48718 0.63195 0.0
C1258 C 0.3635 0.49612 0.71425 0.0
C1259 C 0.36564 0.50306 0.58092 0.0
C1260 C 0.3798 0.49206 0.53739 0.0
C1261 C 0.39064 0.50222 0.48089 0.0
C1262 C 0.38686 0.52414 0.46879 0.0
C1263 C 0.3722 0.53555 0.51258 0.0
C1264 C 0.3615 0.52477 0.56914 0.0
H1265 H 0.80582 0.14057 0.82743 0.0
H1266 H 0.81894 0.0861 0.96935 0.0
H1267 H 0.7802 0.07467 0.95584 0.0
H1268 H 0.75171 0.15149 0.89522 0.0
H1269 H 0.74056 0.15957 0.80856 0.0
H1270 H 0.76941 0.16319 0.82846 0.0
H1271 H 0.77921 0.14147 0.71604 0.0
H1272 H 0.75039 0.13769 0.6959 0.0
H1273 H 0.76831 0.11486 0.70609 0.0
H1274 H 0.74019 0.06891 0.92558 0.0
H1275 H 0.70124 0.07024 0.88617 0.0
H1276 H 0.71396 0.12901 0.76643 0.0
C1277 C 0.80055 0.12621 0.85555 0.0
C1278 C 0.81541 0.11418 0.89929 0.0
C1279 C 0.80782 0.09562 0.93583 0.0
C1280 C 0.78588 0.08895 0.92825 0.0
C1281 C 0.77168 0.10113 0.88456 0.0
C1282 C 0.77865 0.11948 0.84938 0.0
C1283 C 0.75991 0.13005 0.80745 0.0
C1284 C 0.75512 0.15239 0.83669 0.0
C1285 C 0.76475 0.13107 0.72657 0.0
C1286 C 0.74138 0.11461 0.82371 0.0
C1287 C 0.74853 0.09803 0.86819 0.0
C1288 C 0.73438 0.08184 0.89087 0.0
C1289 C 0.71228 0.08273 0.86809 0.0
C1290 C 0.70449 0.09972 0.82319 0.0
C1291 C 0.71936 0.11577 0.80055 0.0
H1292 H 0.83698 0.53245 0.98939 0.0
H1293 H 0.90204 0.557 0.94097 0.0
H1294 H 0.91293 0.52157 0.89839 0.0
H1295 H 0.85501 0.48082 0.05527 0.0
H1296 H 0.83193 0.46665 0.01686 0.0
H1297 H 0.8289 0.49413 0.04215 0.0
H1298 H 0.81537 0.50386 0.9128 0.0
H1299 H 0.81844 0.47641 0.88709 0.0
H1300 H 0.83227 0.49729 0.83758 0.0
H1301 H 0.9166 0.48398 0.8571 0.0
H1302 H 0.91361 0.44561 0.82895 0.0
H1303 H 0.84708 0.44464 0.90989 0.0
C1304 C 0.85351 0.53037 0.96986 0.0
C1305 C 0.86862 0.54756 0.96849 0.0
C1306 C 0.89015 0.54411 0.9428 0.0
C1307 C 0.8965 0.52404 0.91819 0.0
C1308 C 0.88123 0.50749 0.91998 0.0
C1309 C 0.86024 0.51032 0.94569 0.0
C1310 C 0.84722 0.48966 0.94309 0.0
C1311 C 0.84037 0.48239 0.01886 0.0
C1312 C 0.82714 0.49195 0.89211 0.0
C1313 C 0.86426 0.47478 0.91263 0.0
C1314 C 0.88364 0.4855 0.89865 0.0
C1315 C 0.90156 0.47536 0.86823 0.0
C1316 C 0.8997 0.45362 0.8522 0.0
C1317 C 0.8802 0.4422 0.86774 0.0
C1318 C 0.86228 0.45296 0.89829 0.0
H1319 H 0.21734 0.09584 0.7715 0.0
H1320 H 0.19278 0.1601 0.73035 0.0
H1321 H 0.22949 0.17124 0.68932 0.0
H1322 H 0.27138 0.11231 0.83954 0.0
H1323 H 0.28542 0.0902 0.79968 0.0
H1324 H 0.25721 0.08732 0.82641 0.0
H1325 H 0.24646 0.07587 0.6972 0.0
H1326 H 0.2746 0.07893 0.66995 0.0
H1327 H 0.25299 0.0932 0.62213 0.0
H1328 H 0.26786 0.17461 0.64275 0.0
H1329 H 0.30699 0.1713 0.60979 0.0
H1330 H 0.30769 0.10593 0.69085 0.0
C1331 C 0.21977 0.1123 0.75455 0.0
C1332 C 0.2022 0.12709 0.75409 0.0
C1333 C 0.20602 0.14851 0.73166 0.0
C1334 C 0.22678 0.15497 0.70782 0.0
C1335 C 0.24366 0.13993 0.70783 0.0
C1336 C 0.24053 0.11915 0.7319 0.0
C1337 C 0.2616 0.10629 0.72764 0.0
C1338 C 0.26936 0.09858 0.8028 0.0
C1339 C 0.25873 0.08746 0.67617 0.0
C1340 C 0.27697 0.12305 0.69698 0.0
C1341 C 0.26618 0.14224 0.68482 0.0
C1342 C 0.27658 0.15977 0.65299 0.0
C1343 C 0.29871 0.15772 0.63408 0.0
C1344 C 0.31024 0.13845 0.64844 0.0
C1345 C 0.29923 0.12093 0.68029 0.0
H1346 H 0.616 0.55286 0.31613 0.0
H1347 H 0.67822 0.57901 0.39118 0.0
H1348 H 0.6909 0.54273 0.42611 0.0
H1349 H 0.61079 0.51495 0.46027 0.0
H1350 H 0.59834 0.49453 0.40572 0.0
H1351 H 0.59475 0.52229 0.38124 0.0
H1352 H 0.61036 0.51513 0.25512 0.0
H1353 H 0.61397 0.48732 0.27913 0.0
H1354 H 0.63703 0.50281 0.2479 0.0
H1355 H 0.69695 0.50388 0.45157 0.0
H1356 H 0.69493 0.46499 0.47572 0.0
H1357 H 0.62768 0.46429 0.39356 0.0
C1358 C 0.63239 0.55084 0.33903 0.0
C1359 C 0.64628 0.56858 0.35039 0.0
C1360 C 0.66741 0.56552 0.382 0.0
C1361 C 0.67475 0.54502 0.40174 0.0
C1362 C 0.66062 0.52783 0.39044 0.0
C1363 C 0.6398 0.53051 0.36055 0.0
C1364 C 0.62742 0.5095 0.35843 0.0
C1365 C 0.6066 0.51038 0.40416 0.0
C1366 C 0.62188 0.50333 0.28051 0.0
C1367 C 0.64453 0.49464 0.39196 0.0
C1368 C 0.66367 0.50551 0.40892 0.0
C1369 C 0.68203 0.49518 0.43885 0.0
C1370 C 0.68075 0.47313 0.45215 0.0
C1371 C 0.66113 0.46178 0.4368 0.0
C1372 C 0.6428 0.47269 0.40641 0.0
H1373 H 0.30282 0.87104 0.33946 0.0
H1374 H 0.33072 0.89832 0.14493 0.0
H1375 H 0.29432 0.89765 0.08575 0.0
H1376 H 0.2639 0.83569 0.24774 0.0
H1377 H 0.24252 0.83944 0.31231 0.0
H1378 H 0.271 0.84152 0.33986 0.0
H1379 H 0.26371 0.8794 0.38827 0.0
H1380 H 0.23525 0.87745 0.36061 0.0
H1381 H 0.25176 0.89951 0.32909 0.0
H1382 H 0.25476 0.89582 0.04832 0.0
H1383 H 0.21463 0.891 0.03355 0.0
H1384 H 0.2119 0.86403 0.24998 0.0
C1385 C 0.30128 0.87673 0.28432 0.0
C1386 C 0.31975 0.88479 0.24718 0.0
C1387 C 0.31694 0.89209 0.17491 0.0
C1388 C 0.29626 0.89181 0.14058 0.0
C1389 C 0.2784 0.88405 0.17876 0.0
C1390 C 0.28065 0.87647 0.24878 0.0
C1391 C 0.2586 0.86906 0.27723 0.0
C1392 C 0.25904 0.845 0.29534 0.0
C1393 C 0.25194 0.88214 0.34267 0.0
C1394 C 0.24371 0.87389 0.21253 0.0
C1395 C 0.25549 0.88258 0.15643 0.0
C1396 C 0.24534 0.88887 0.09169 0.0
C1397 C 0.2225 0.88612 0.08384 0.0
C1398 C 0.21003 0.87703 0.14027 0.0
C1399 C 0.22092 0.87085 0.20542 0.0
H1400 H 0.62908 0.96293 0.63839 0.0
H1401 H 0.62073 0.96467 0.4062 0.0
H1402 H 0.62035 0.0042 0.40764 0.0
H1403 H 0.59271 0.00759 0.67105 0.0
H1404 H 0.60917 0.01729 0.74517 0.0
H1405 H 0.60889 0.9892 0.7256 0.0
H1406 H 0.65139 0.98953 0.71601 0.0
H1407 H 0.6518 0.01762 0.73548 0.0
H1408 H 0.66426 0.00814 0.65474 0.0
H1409 H 0.62331 0.04324 0.4339 0.0
H1410 H 0.62661 0.07937 0.48348 0.0
H1411 H 0.63004 0.0522 0.69969 0.0
C1412 C 0.62723 0.97166 0.58786 0.0
C1413 C 0.62514 0.96086 0.52205 0.0
C1414 C 0.62237 0.97272 0.45711 0.0
C1415 C 0.62217 0.99513 0.45742 0.0
C1416 C 0.62435 0.0053 0.52326 0.0
C1417 C 0.62655 0.99397 0.58736 0.0
C1418 C 0.62816 0.00877 0.65083 0.0
C1419 C 0.60856 0.00552 0.70111 0.0
C1420 C 0.65021 0.00584 0.69164 0.0
C1421 C 0.62697 0.03023 0.61226 0.0
C1422 C 0.62488 0.02785 0.53869 0.0
C1423 C 0.62456 0.04532 0.49147 0.0
C1424 C 0.62638 0.0658 0.5202 0.0
C1425 C 0.62813 0.06867 0.5955 0.0
C1426 C 0.62834 0.05058 0.64198 0.0
H1427 H 0.19246 0.35742 0.9158 0.0
H1428 H 0.16749 0.41583 0.81513 0.0
H1429 H 0.20442 0.42402 0.76975 0.0
H1430 H 0.24573 0.37775 0.9689 0.0
H1431 H 0.26022 0.35353 0.94852 0.0
H1432 H 0.23183 0.35234 0.97451 0.0
H1433 H 0.22207 0.33229 0.85743 0.0
H1434 H 0.25042 0.33358 0.83077 0.0
H1435 H 0.22907 0.3441 0.77175 0.0
H1436 H 0.24371 0.42684 0.73954 0.0
H1437 H 0.28376 0.42364 0.72297 0.0
H1438 H 0.28354 0.36228 0.83501 0.0
C1439 C 0.19489 0.37198 0.88466 0.0
C1440 C 0.17721 0.38606 0.86917 0.0
C1441 C 0.18084 0.40482 0.82741 0.0
C1442 C 0.20173 0.40962 0.80141 0.0
C1443 C 0.21876 0.39534 0.81678 0.0
C1444 C 0.21565 0.37686 0.85704 0.0
C1445 C 0.23683 0.36415 0.86442 0.0
C1446 C 0.24408 0.36182 0.9438 0.0
C1447 C 0.23445 0.34223 0.82897 0.0
C1448 C 0.25233 0.37856 0.82282 0.0
C1449 C 0.24149 0.3965 0.79617 0.0
C1450 C 0.25238 0.41277 0.7593 0.0
C1451 C 0.27506 0.41081 0.75017 0.0
C1452 C 0.28652 0.3926 0.77684 0.0
C1453 C 0.27499 0.37612 0.81271 0.0
H1454 H 0.88084 0.93521 0.03051 0.0
H1455 H 0.858 0.93845 0.25004 0.0
H1456 H 0.85572 0.97774 0.2383 0.0
H1457 H 0.91463 0.98089 0.03369 0.0
H1458 H 0.9079 0.98964 0.94314 0.0
H1459 H 0.90652 0.96168 0.96707 0.0
H1460 H 0.86593 0.96031 0.92291 0.0
H1461 H 0.86717 0.98826 0.89828 0.0
H1462 H 0.84628 0.97874 0.95856 0.0
H1463 H 0.85855 0.01671 0.20582 0.0
H1464 H 0.86385 0.05262 0.15234 0.0
H1465 H 0.88391 0.02403 0.95263 0.0
C1466 C 0.87519 0.94414 0.076 0.0
C1467 C 0.86968 0.93371 0.14134 0.0
C1468 C 0.86223 0.94603 0.19936 0.0
C1469 C 0.86094 0.96837 0.19328 0.0
C1470 C 0.86689 0.97813 0.12858 0.0
C1471 C 0.8736 0.96641 0.07065 0.0
C1472 C 0.87931 0.98083 0.00738 0.0
C1473 C 0.90353 0.97809 0.98665 0.0
C1474 C 0.86374 0.97679 0.94298 0.0
C1475 C 0.87525 0.00255 0.03939 0.0
C1476 C 0.86807 1.00062 0.10932 0.0
C1477 C 0.86394 0.01843 0.15087 0.0
C1478 C 0.86709 0.03877 0.12003 0.0
C1479 C 0.87424 0.04118 0.04817 0.0
C1480 C 0.8783 0.02275 0.00749 0.0
H1481 H 0.21021 0.6256 0.23869 0.0
H1482 H 0.19759 0.5728 0.38703 0.0
H1483 H 0.2368 0.57158 0.42089 0.0
H1484 H 0.26256 0.60585 0.178 0.0
H1485 H 0.27511 0.63191 0.17192 0.0
H1486 H 0.24579 0.62913 0.15946 0.0
H1487 H 0.2394 0.65633 0.2605 0.0
H1488 H 0.2687 0.65915 0.27336 0.0
H1489 H 0.25174 0.65162 0.34818 0.0
H1490 H 0.27693 0.57606 0.4411 0.0
H1491 H 0.3164 0.58491 0.44157 0.0
H1492 H 0.30416 0.63409 0.27808 0.0
C1493 C 0.21573 0.61379 0.2782 0.0
C1494 C 0.20073 0.5993 0.31011 0.0
C1495 C 0.20867 0.58405 0.36151 0.0
C1496 C 0.23095 0.58323 0.38141 0.0
C1497 C 0.24526 0.5977 0.34927 0.0
C1498 C 0.2381 0.61261 0.29844 0.0
C1499 C 0.25722 0.62599 0.2715 0.0
C1500 C 0.26035 0.62303 0.1904 0.0
C1501 C 0.25407 0.64967 0.28948 0.0
C1502 C 0.27613 0.61618 0.31508 0.0
C1503 C 0.26876 0.6 0.35996 0.0
C1504 C 0.28295 0.58866 0.40606 0.0
C1505 C 0.30537 0.59385 0.40603 0.0
C1506 C 0.31348 0.61017 0.35979 0.0
C1507 C 0.29855 0.62148 0.31386 0.0
H1508 H 0.33747 0.96372 0.51135 0.0
H1509 H 0.39165 0.96193 0.36237 0.0
H1510 H 0.39811 1.00046 0.3805 0.0
H1511 H 0.31652 0.01501 0.45714 0.0
H1512 H 0.30954 0.02265 0.54697 0.0
H1513 H 0.30961 0.99486 0.52342 0.0
H1514 H 0.33687 0.98671 0.62895 0.0
H1515 H 0.33705 0.01454 0.65243 0.0
H1516 H 0.36253 0.0011 0.63437 0.0
H1517 H 0.39932 0.03898 0.41746 0.0
H1518 H 0.39269 0.07554 0.45996 0.0
H1519 H 0.33666 0.0527 0.58064 0.0
C1520 C 0.35064 0.97142 0.4822 0.0
C1521 C 0.36406 0.95975 0.43534 0.0
C1522 C 0.38113 0.97049 0.39841 0.0
C1523 C 0.385 0.99236 0.40867 0.0
C1524 C 0.37166 0.0033 0.45595 0.0
C1525 C 0.35468 0.99324 0.49158 0.0
C1526 C 0.34244 0.00876 0.53825 0.0
C1527 C 0.31808 0.01042 0.51501 0.0
C1528 C 0.34487 0.00239 0.61823 0.0
C1529 C 0.35481 0.02925 0.52185 0.0
C1530 C 0.37192 0.02563 0.47552 0.0
C1531 C 0.38595 0.04201 0.45359 0.0
C1532 C 0.38213 0.0627 0.47842 0.0
C1533 C 0.36416 0.06695 0.52363 0.0
C1534 C 0.35048 0.04992 0.54602 0.0
H1535 H 0.80382 0.58824 0.11151 0.0
H1536 H 0.81903 0.65324 0.17142 0.0
H1537 H 0.77986 0.65933 0.20004 0.0
H1538 H 0.75098 0.59943 0.02775 0.0
H1539 H 0.73848 0.57506 0.06013 0.0
H1540 H 0.76764 0.57599 0.04475 0.0
H1541 H 0.77518 0.56328 0.17615 0.0
H1542 H 0.74604 0.56241 0.19209 0.0
H1543 H 0.76382 0.57811 0.24905 0.0
H1544 H 0.73901 0.65813 0.22232 0.0
H1545 H 0.6994 0.65012 0.23419 0.0
H1546 H 0.71084 0.58576 0.15951 0.0
C1547 C 0.79876 0.60373 0.13049 0.0
C1548 C 0.81419 0.62034 0.13946 0.0
C1549 C 0.80727 0.6404 0.16446 0.0
C1550 C 0.78512 0.64397 0.1808 0.0
C1551 C 0.7702 0.62724 0.1718 0.0
C1552 C 0.77671 0.60753 0.14708 0.0
C1553 C 0.75739 0.59228 0.14207 0.0
C1554 C 0.75339 0.58529 0.06403 0.0
C1555 C 0.76082 0.57288 0.19288 0.0
C1556 C 0.73899 0.6065 0.16742 0.0
C1557 C 0.74673 0.62657 0.18455 0.0
C1558 C 0.73277 0.64245 0.20907 0.0
C1559 C 0.71029 0.63774 0.21576 0.0
C1560 C 0.70195 0.61732 0.19782 0.0
C1561 C 0.71663 0.60153 0.17371 0.0
H1562 H 0.14204 0.06589 0.00539 0.0
H1563 H 0.12805 0.0597 0.7769 0.0
H1564 H 0.13119 0.02044 0.7898 0.0
H1565 H 0.1819 0.02317 0.02051 0.0
H1566 H 0.17296 0.01451 0.10819 0.0
H1567 H 0.17 0.04211 0.08063 0.0
H1568 H 0.12827 0.04032 0.10624 0.0
H1569 H 0.13107 0.01273 0.13392 0.0
H1570 H 0.11162 0.02014 0.06363 0.0
H1571 H 0.13558 0.98177 0.82806 0.0
H1572 H 0.1402 0.94666 0.88849 0.0
H1573 H 0.15102 0.97809 0.09254 0.0
C1574 C 0.13971 0.05634 0.95784 0.0
C1575 C 0.13481 0.06597 0.88999 0.0
C1576 C 0.13179 0.05277 0.82942 0.0
C1577 C 0.13358 0.03044 0.83621 0.0
C1578 C 0.13838 0.02152 0.9039 0.0
C1579 C 0.14139 0.03406 0.96365 0.0
C1580 C 0.14609 0.02051 0.03051 0.0
C1581 C 0.16911 0.02537 0.06178 0.0
C1582 C 0.12819 0.02361 0.08689 0.0
C1583 C 0.1451 0.99832 0.99922 0.0
C1584 C 0.14075 0.99927 0.92603 0.0
C1585 C 0.13901 0.98085 0.88531 0.0
C1586 C 0.1417 0.96096 0.92027 0.0
C1587 C 0.146 0.95953 0.99545 0.0
C1588 C 0.14776 0.97857 0.03513 0.0
H1589 H 0.71047 0.36696 0.69793 0.0
H1590 H 0.69844 0.42655 0.58115 0.0
H1591 H 0.73685 0.43749 0.60386 0.0
H1592 H 0.74818 0.38818 0.83388 0.0
H1593 H 0.76585 0.36505 0.83441 0.0
H1594 H 0.73696 0.36229 0.813 0.0
H1595 H 0.7465 0.34478 0.69222 0.0
H1596 H 0.77538 0.3474 0.71331 0.0
H1597 H 0.7643 0.35867 0.63054 0.0
H1598 H 0.77618 0.44182 0.63649 0.0
H1599 H 0.81537 0.43835 0.66947 0.0
H1600 H 0.80292 0.37542 0.76246 0.0
C1601 C 0.71593 0.38238 0.67784 0.0
C1602 C 0.70157 0.39592 0.6376 0.0
C1603 C 0.70928 0.41585 0.61125 0.0
C1604 C 0.731 0.42228 0.62445 0.0
C1605 C 0.7448 0.40855 0.66381 0.0
C1606 C 0.7377 0.38895 0.68971 0.0
C1607 C 0.75636 0.37676 0.72675 0.0
C1608 C 0.75154 0.37284 0.80677 0.0
C1609 C 0.7609 0.35566 0.68839 0.0
C1610 C 0.77506 0.39254 0.71703 0.0
C1611 C 0.76788 0.41085 0.68135 0.0
C1612 C 0.78204 0.42759 0.66462 0.0
C1613 C 0.80429 0.42545 0.68366 0.0
C1614 C 0.81225 0.40661 0.71852 0.0
C1615 C 0.79732 0.39007 0.73627 0.0
loop_
_geom_bond_atom_site_label_1
_geom_bond_atom_site_label_2
_geom_bond_distance
_geom_bond_site_symmetry_2
_ccdc_geom_bond_type
Zn0 O6 1.969 . S
Zn0 O7 1.965 . S
Zn0 O11 2.024 . S
Zn0 O16 1.969 . S
Zn1 O8 1.969 . S
Zn1 O14 1.969 1_554 S
Zn1 O15 1.965 . S
Zn1 O17 2.024 . S
C2 O3 1.229 . S
C2 O11 1.058 . S
O3 C2 1.229 . S
C4 O5 1.229 . S
C4 O17 1.058 . S
O5 C4 1.229 . S
O6 Zn0 1.969 . S
O6 C9 1.267 . S
O7 Zn0 1.965 . S
O7 C18 1.260 . S
O8 Zn1 1.969 . S
O8 C18 1.258 . S
C9 O6 1.267 . S
C9 O10 1.228 . S
O10 C9 1.228 . S
O11 Zn0 2.024 . S
O11 C2 1.058 . S
C12 O13 1.228 . S
C12 O14 1.267 . S
O13 C12 1.228 . S
O14 Zn1 1.969 1_556 S
O14 C12 1.267 . S
O15 Zn1 1.965 . S
O15 C19 1.260 . S
O16 Zn0 1.969 . S
O16 C19 1.258 . S
O17 Zn1 2.024 . S
O17 C4 1.058 . S
C18 O7 1.260 . S
C18 O8 1.258 . S
C19 O15 1.260 . S
C19 O16 1.258 . S
Zn20 O26 1.969 . S
Zn20 O27 1.965 . S
Zn20 O31 2.024 . S
Zn20 O36 1.969 . S
Zn21 O28 1.969 . S
Zn21 O34 1.969 . S
Zn21 O35 1.965 . S
Zn21 O37 2.024 . S
C22 O23 1.229 . S
C22 O31 1.058 . S
O23 C22 1.229 . S
C24 O25 1.229 . S
C24 O37 1.058 . S
O25 C24 1.229 . S
O26 Zn20 1.969 . S
O26 C29 1.267 . S
O27 Zn20 1.965 . S
O27 C38 1.260 . S
O28 Zn21 1.969 . S
O28 C38 1.258 . S
C29 O26 1.267 . S
C29 O30 1.228 . S
O30 C29 1.228 . S
O31 Zn20 2.024 . S
O31 C22 1.058 . S
C32 O33 1.228 . S
C32 O34 1.267 . S
O33 C32 1.228 . S
O34 Zn21 1.969 . S
O34 C32 1.267 . S
O35 Zn21 1.965 . S
O35 C39 1.260 . S
O36 Zn20 1.969 . S
O36 C39 1.258 . S
O37 Zn21 2.024 . S
O37 C24 1.058 . S
C38 O27 1.260 . S
C38 O28 1.258 . S
C39 O35 1.260 . S
C39 O36 1.258 . S
Zn40 O46 1.969 . S
Zn40 O47 1.965 . S
Zn40 O51 2.024 . S
Zn40 O56 1.969 . S
Zn41 O48 1.969 . S
Zn41 O54 1.969 . S
Zn41 O55 1.965 . S
Zn41 O57 2.024 . S
C42 O43 1.229 . S
C42 O51 1.058 . S
O43 C42 1.229 . S
C44 O45 1.229 . S
C44 O57 1.058 . S
O45 C44 1.229 . S
O46 Zn40 1.969 . S
O46 C49 1.267 . S
O47 Zn40 1.965 . S
O47 C58 1.260 . S
O48 Zn41 1.969 . S
O48 C58 1.258 . S
C49 O46 1.267 . S
C49 O50 1.228 . S
O50 C49 1.228 . S
O51 Zn40 2.024 . S
O51 C42 1.058 . S
C52 O53 1.228 . S
C52 O54 1.267 . S
O53 C52 1.228 . S
O54 Zn41 1.969 . S
O54 C52 1.267 . S
O55 Zn41 1.965 . S
O55 C59 1.260 . S
O56 Zn40 1.969 . S
O56 C59 1.258 . S
O57 Zn41 2.024 . S
O57 C44 1.058 . S
C58 O47 1.260 . S
C58 O48 1.258 . S
C59 O55 1.260 . S
C59 O56 1.258 . S
Zn60 O66 1.969 . S
Zn60 O67 1.965 1_554 S
Zn60 O71 2.024 1_554 S
Zn60 O76 1.969 1_554 S
Zn61 O68 1.969 . S
Zn61 O74 1.969 . S
Zn61 O75 1.965 . S
Zn61 O77 2.024 . S
C62 O63 1.229 . S
C62 O71 1.058 1_554 S
O63 C62 1.229 . S
C64 O65 1.229 . S
C64 O77 1.058 . S
O65 C64 1.229 . S
O66 Zn60 1.969 . S
O66 C69 1.267 . S
O67 Zn60 1.965 1_556 S
O67 C78 1.260 . S
O68 Zn61 1.969 . S
O68 C78 1.258 . S
C69 O66 1.267 . S
C69 O70 1.228 . S
O70 C69 1.228 . S
O71 Zn60 2.024 1_556 S
O71 C62 1.058 1_556 S
C72 O73 1.228 . S
C72 O74 1.267 . S
O73 C72 1.228 . S
O74 Zn61 1.969 . S
O74 C72 1.267 . S
O75 Zn61 1.965 . S
O75 C79 1.260 . S
O76 Zn60 1.969 1_556 S
O76 C79 1.258 . S
O77 Zn61 2.024 . S
O77 C64 1.058 . S
C78 O67 1.260 . S
C78 O68 1.258 . S
C79 O75 1.260 . S
C79 O76 1.258 . S
Zn80 O86 1.969 . S
Zn80 O87 1.965 1_554 S
Zn80 O91 2.024 1_554 S
Zn80 O96 1.969 1_554 S
Zn81 O88 1.969 . S
Zn81 O94 1.969 . S
Zn81 O95 1.965 . S
Zn81 O97 2.024 . S
C82 O83 1.229 . S
C82 O91 1.058 1_554 S
O83 C82 1.229 . S
C84 O85 1.229 . S
C84 O97 1.058 . S
O85 C84 1.229 . S
O86 Zn80 1.969 . S
O86 C89 1.267 . S
O87 Zn80 1.965 1_556 S
O87 C98 1.260 . S
O88 Zn81 1.969 . S
O88 C98 1.258 . S
C89 O86 1.267 . S
C89 O90 1.228 . S
O90 C89 1.228 . S
O91 Zn80 2.024 1_556 S
O91 C82 1.058 1_556 S
C92 O93 1.228 . S
C92 O94 1.267 . S
O93 C92 1.228 . S
O94 Zn81 1.969 . S
O94 C92 1.267 . S
O95 Zn81 1.965 . S
O95 C99 1.260 . S
O96 Zn80 1.969 1_556 S
O96 C99 1.258 . S
O97 Zn81 2.024 . S
O97 C84 1.058 . S
C98 O87 1.260 . S
C98 O88 1.258 . S
C99 O95 1.260 . S
C99 O96 1.258 . S
Zn100 O106 1.969 . S
Zn100 O107 1.965 . S
Zn100 O111 2.024 . S
Zn100 O116 1.969 . S
Zn101 O108 1.969 . S
Zn101 O114 1.969 1_554 S
Zn101 O115 1.965 . S
Zn101 O117 2.024 . S
C102 O103 1.229 . S
C102 O111 1.058 . S
O103 C102 1.229 . S
C104 O105 1.229 . S
C104 O117 1.058 . S
O105 C104 1.229 . S
O106 Zn100 1.969 . S
O106 C109 1.267 . S
O107 Zn100 1.965 . S
O107 C118 1.260 . S
O108 Zn101 1.969 . S
O108 C118 1.258 . S
C109 O106 1.267 . S
C109 O110 1.228 . S
O110 C109 1.228 . S
O111 Zn100 2.024 . S
O111 C102 1.058 . S
C112 O113 1.228 . S
C112 O114 1.267 . S
O113 C112 1.228 . S
O114 Zn101 1.969 1_556 S
O114 C112 1.267 . S
O115 Zn101 1.965 . S
O115 C119 1.260 . S
O116 Zn100 1.969 . S
O116 C119 1.258 . S
O117 Zn101 2.024 . S
O117 C104 1.058 . S
C118 O107 1.260 . S
C118 O108 1.258 . S
C119 O115 1.260 . S
C119 O116 1.258 . S
Zn120 O126 1.969 . S
Zn120 O127 1.965 . S
Zn120 O131 2.024 . S
Zn120 O136 1.969 . S
Zn121 O128 1.969 . S
Zn121 O134 1.969 . S
Zn121 O135 1.965 . S
Zn121 O137 2.024 . S
C122 O123 1.229 . S
C122 O131 1.058 . S
O123 C122 1.229 . S
C124 O125 1.229 . S
C124 O137 1.058 . S
O125 C124 1.229 . S
O126 Zn120 1.969 . S
O126 C129 1.267 . S
O127 Zn120 1.965 . S
O127 C138 1.260 . S
O128 Zn121 1.969 . S
O128 C138 1.258 . S
C129 O126 1.267 . S
C129 O130 1.228 . S
O130 C129 1.228 . S
O131 Zn120 2.024 . S
O131 C122 1.058 . S
C132 O133 1.228 . S
C132 O134 1.267 . S
O133 C132 1.228 . S
O134 Zn121 1.969 . S
O134 C132 1.267 . S
O135 Zn121 1.965 . S
O135 C139 1.260 . S
O136 Zn120 1.969 . S
O136 C139 1.258 . S
O137 Zn121 2.024 . S
O137 C124 1.058 . S
C138 O127 1.260 . S
C138 O128 1.258 . S
C139 O135 1.260 . S
C139 O136 1.258 . S
Zn140 O146 1.969 . S
Zn140 O147 1.965 . S
Zn140 O151 2.024 . S
Zn140 O156 1.969 . S
Zn141 O148 1.969 . S
Zn141 O154 1.969 . S
Zn141 O155 1.965 . S
Zn141 O157 2.024 . S
C142 O143 1.229 . S
C142 O151 1.058 . S
O143 C142 1.229 . S
C144 O145 1.229 . S
C144 O157 1.058 . S
O145 C144 1.229 . S
O146 Zn140 1.969 . S
O146 C149 1.267 . S
O147 Zn140 1.965 . S
O147 C158 1.260 . S
O148 Zn141 1.969 . S
O148 C158 1.258 . S
C149 O146 1.267 . S
C149 O150 1.228 . S
O150 C149 1.228 . S
O151 Zn140 2.024 . S
O151 C142 1.058 . S
C152 O153 1.228 . S
C152 O154 1.267 . S
O153 C152 1.228 . S
O154 Zn141 1.969 . S
O154 C152 1.267 . S
O155 Zn141 1.965 . S
O155 C159 1.260 . S
O156 Zn140 1.969 . S
O156 C159 1.258 . S
O157 Zn141 2.024 . S
O157 C144 1.058 . S
C158 O147 1.260 . S
C158 O148 1.258 . S
C159 O155 1.260 . S
C159 O156 1.258 . S
Zn160 O166 1.969 1_556 S
Zn160 O167 1.965 . S
Zn160 O171 2.024 . S
Zn160 O176 1.969 . S
Zn161 O168 1.969 . S
Zn161 O174 1.969 . S
Zn161 O175 1.965 . S
Zn161 O177 2.024 . S
C162 O163 1.229 . S
C162 O171 1.058 . S
O163 C162 1.229 . S
C164 O165 1.229 . S
C164 O177 1.058 . S
O165 C164 1.229 . S
O166 Zn160 1.969 1_554 S
O166 C169 1.267 . S
O167 Zn160 1.965 . S
O167 C178 1.260 . S
O168 Zn161 1.969 . S
O168 C178 1.258 . S
C169 O166 1.267 . S
C169 O170 1.228 . S
O170 C169 1.228 . S
O171 Zn160 2.024 . S
O171 C162 1.058 . S
C172 O173 1.228 . S
C172 O174 1.267 . S
O173 C172 1.228 . S
O174 Zn161 1.969 . S
O174 C172 1.267 . S
O175 Zn161 1.965 . S
O175 C179 1.260 . S
O176 Zn160 1.969 . S
O176 C179 1.258 . S
O177 Zn161 2.024 . S
O177 C164 1.058 . S
C178 O167 1.260 . S
C178 O168 1.258 . S
C179 O175 1.260 . S
C179 O176 1.258 . S
Zn180 O186 1.969 . S
Zn180 O187 1.965 . S
Zn180 O191 2.024 . S
Zn180 O196 1.969 . S
Zn181 O188 1.969 . S
Zn181 O194 1.969 . S
Zn181 O195 1.965 . S
Zn181 O197 2.024 . S
C182 O183 1.229 . S
C182 O191 1.058 . S
O183 C182 1.229 . S
C184 O185 1.229 . S
C184 O197 1.058 . S
O185 C184 1.229 . S
O186 Zn180 1.969 . S
O186 C189 1.267 . S
O187 Zn180 1.965 . S
O187 C198 1.260 . S
O188 Zn181 1.969 . S
O188 C198 1.258 . S
C189 O186 1.267 . S
C189 O190 1.228 . S
O190 C189 1.228 . S
O191 Zn180 2.024 . S
O191 C182 1.058 . S
C192 O193 1.228 . S
C192 O194 1.267 . S
O193 C192 1.228 . S
O194 Zn181 1.969 . S
O194 C192 1.267 . S
O195 Zn181 1.965 . S
O195 C199 1.260 . S
O196 Zn180 1.969 . S
O196 C199 1.258 . S
O197 Zn181 2.024 . S
O197 C184 1.058 . S
C198 O187 1.260 . S
C198 O188 1.258 . S
C199 O195 1.260 . S
C199 O196 1.258 . S
Zn200 O206 1.969 . S
Zn200 O207 1.965 . S
Zn200 O211 2.024 . S
Zn200 O216 1.969 . S
Zn201 O208 1.969 . S
Zn201 O214 1.969 . S
Zn201 O215 1.965 . S
Zn201 O217 2.024 . S
C202 O203 1.229 . S
C202 O211 1.058 . S
O203 C202 1.229 . S
C204 O205 1.229 . S
C204 O217 1.058 . S
O205 C204 1.229 . S
O206 Zn200 1.969 . S
O206 C209 1.267 . S
O207 Zn200 1.965 . S
O207 C218 1.260 . S
O208 Zn201 1.969 . S
O208 C218 1.258 . S
C209 O206 1.267 . S
C209 O210 1.228 . S
O210 C209 1.228 . S
O211 Zn200 2.024 . S
O211 C202 1.058 . S
C212 O213 1.228 . S
C212 O214 1.267 . S
O213 C212 1.228 . S
O214 Zn201 1.969 . S
O214 C212 1.267 . S
O215 Zn201 1.965 . S
O215 C219 1.260 . S
O216 Zn200 1.969 . S
O216 C219 1.258 . S
O217 Zn201 2.024 . S
O217 C204 1.058 . S
C218 O207 1.260 . S
C218 O208 1.258 . S
C219 O215 1.260 . S
C219 O216 1.258 . S
Zn220 O226 1.969 . S
Zn220 O227 1.965 . S
Zn220 O231 2.024 . S
Zn220 O236 1.969 . S
Zn221 O228 1.969 . S
Zn221 O234 1.969 1_554 S
Zn221 O235 1.965 . S
Zn221 O237 2.024 . S
C222 O223 1.229 . S
C222 O231 1.058 . S
O223 C222 1.229 . S
C224 O225 1.229 1_554 S
C224 O237 1.058 . S
O225 C224 1.229 1_556 S
O226 Zn220 1.969 . S
O226 C229 1.267 . S
O227 Zn220 1.965 . S
O227 C238 1.260 . S
O228 Zn221 1.969 . S
O228 C238 1.258 . S
C229 O226 1.267 . S
C229 O230 1.228 . S
O230 C229 1.228 . S
O231 Zn220 2.024 . S
O231 C222 1.058 . S
C232 O233 1.228 . S
C232 O234 1.267 . S
O233 C232 1.228 . S
O234 Zn221 1.969 1_556 S
O234 C232 1.267 . S
O235 Zn221 1.965 . S
O235 C239 1.260 . S
O236 Zn220 1.969 . S
O236 C239 1.258 . S
O237 Zn221 2.024 . S
O237 C224 1.058 . S
C238 O227 1.260 . S
C238 O228 1.258 . S
C239 O235 1.260 . S
C239 O236 1.258 . S
Zn240 O246 1.969 . S
Zn240 O247 1.965 . S
Zn240 O251 2.024 . S
Zn240 O256 1.969 . S
Zn241 O248 1.969 1_556 S
Zn241 O254 1.969 . S
Zn241 O255 1.965 1_556 S
Zn241 O257 2.024 1_556 S
C242 O243 1.229 . S
C242 O251 1.058 . S
O243 C242 1.229 . S
C244 O245 1.229 . S
C244 O257 1.058 1_556 S
O245 C244 1.229 . S
O246 Zn240 1.969 . S
O246 C249 1.267 . S
O247 Zn240 1.965 . S
O247 C258 1.260 . S
O248 Zn241 1.969 1_554 S
O248 C258 1.258 . S
C249 O246 1.267 . S
C249 O250 1.228 . S
O250 C249 1.228 . S
O251 Zn240 2.024 . S
O251 C242 1.058 . S
C252 O253 1.228 . S
C252 O254 1.267 . S
O253 C252 1.228 . S
O254 Zn241 1.969 . S
O254 C252 1.267 . S
O255 Zn241 1.965 1_554 S
O255 C259 1.260 . S
O256 Zn240 1.969 . S
O256 C259 1.258 . S
O257 Zn241 2.024 1_554 S
O257 C244 1.058 1_554 S
C258 O247 1.260 . S
C258 O248 1.258 . S
C259 O255 1.260 . S
C259 O256 1.258 . S
Zn260 O266 1.969 1_556 S
Zn260 O267 1.965 . S
Zn260 O271 2.024 . S
Zn260 O276 1.969 . S
Zn261 O268 1.969 . S
Zn261 O274 1.969 . S
Zn261 O275 1.965 . S
Zn261 O277 2.024 . S
C262 O263 1.229 . S
C262 O271 1.058 . S
O263 C262 1.229 . S
C264 O265 1.229 . S
C264 O277 1.058 . S
O265 C264 1.229 . S
O266 Zn260 1.969 1_554 S
O266 C269 1.267 . S
O267 Zn260 1.965 . S
O267 C278 1.260 . S
O268 Zn261 1.969 . S
O268 C278 1.258 . S
C269 O266 1.267 . S
C269 O270 1.228 . S
O270 C269 1.228 . S
O271 Zn260 2.024 . S
O271 C262 1.058 . S
C272 O273 1.228 . S
C272 O274 1.267 . S
O273 C272 1.228 . S
O274 Zn261 1.969 . S
O274 C272 1.267 . S
O275 Zn261 1.965 . S
O275 C279 1.260 . S
O276 Zn260 1.969 . S
O276 C279 1.258 . S
O277 Zn261 2.024 . S
O277 C264 1.058 . S
C278 O267 1.260 . S
C278 O268 1.258 . S
C279 O275 1.260 . S
C279 O276 1.258 . S
Zn280 O286 1.969 . S
Zn280 O287 1.965 . S
Zn280 O291 2.024 . S
Zn280 O296 1.969 . S
Zn281 O288 1.969 . S
Zn281 O294 1.969 . S
Zn281 O295 1.965 . S
Zn281 O297 2.024 . S
C282 O283 1.229 . S
C282 O291 1.058 . S
O283 C282 1.229 . S
C284 O285 1.229 . S
C284 O297 1.058 . S
O285 C284 1.229 . S
O286 Zn280 1.969 . S
O286 C289 1.267 . S
O287 Zn280 1.965 . S
O287 C298 1.260 . S
O288 Zn281 1.969 . S
O288 C298 1.258 . S
C289 O286 1.267 . S
C289 O290 1.228 . S
O290 C289 1.228 . S
O291 Zn280 2.024 . S
O291 C282 1.058 . S
C292 O293 1.228 . S
C292 O294 1.267 . S
O293 C292 1.228 . S
O294 Zn281 1.969 . S
O294 C292 1.267 . S
O295 Zn281 1.965 . S
O295 C299 1.260 . S
O296 Zn280 1.969 . S
O296 C299 1.258 . S
O297 Zn281 2.024 . S
O297 C284 1.058 . S
C298 O287 1.260 . S
C298 O288 1.258 . S
C299 O295 1.260 . S
C299 O296 1.258 . S
Zn300 O306 1.969 . S
Zn300 O307 1.965 . S
Zn300 O311 2.024 . S
Zn300 O316 1.969 . S
Zn301 O308 1.969 . S
Zn301 O314 1.969 . S
Zn301 O315 1.965 . S
Zn301 O317 2.024 . S
C302 O303 1.229 . S
C302 O311 1.058 . S
O303 C302 1.229 . S
C304 O305 1.229 . S
C304 O317 1.058 . S
O305 C304 1.229 . S
O306 Zn300 1.969 . S
O306 C309 1.267 . S
O307 Zn300 1.965 . S
O307 C318 1.260 . S
O308 Zn301 1.969 . S
O308 C318 1.258 . S
C309 O306 1.267 . S
C309 O310 1.228 . S
O310 C309 1.228 . S
O311 Zn300 2.024 . S
O311 C302 1.058 . S
C312 O313 1.228 . S
C312 O314 1.267 . S
O313 C312 1.228 . S
O314 Zn301 1.969 . S
O314 C312 1.267 . S
O315 Zn301 1.965 . S
O315 C319 1.260 . S
O316 Zn300 1.969 . S
O316 C319 1.258 . S
O317 Zn301 2.024 . S
O317 C304 1.058 . S
C318 O307 1.260 . S
C318 O308 1.258 . S
C319 O315 1.260 . S
C319 O316 1.258 . S
H320 C332 0.930 . S
H321 C334 0.930 . S
H322 C335 0.930 . S
H323 C339 0.959 . S
H324 C339 0.959 . S
H325 C339 0.961 . S
H326 C340 0.960 . S
H327 C340 0.961 . S
H328 C340 0.959 . S
H329 C343 0.929 . S
H330 C344 0.931 . S
H331 C346 0.930 . S
C332 H320 0.930 . S
C332 C333 1.399 . S
C332 C337 1.399 . S
C333 C332 1.399 . S
C333 C334 1.376 . S
C334 H321 0.930 . S
C334 C333 1.376 . S
C334 C335 1.388 . S
C335 H322 0.930 . S
C335 C334 1.388 . S
C335 C336 1.390 . S
C336 C335 1.390 . S
C336 C337 1.394 . S
C336 C342 1.465 . S
C337 C332 1.399 . S
C337 C336 1.394 . S
C337 C338 1.516 . S
C338 C337 1.516 . S
C338 C339 1.502 . S
C338 C340 1.561 . S
C338 C341 1.526 . S
C339 H323 0.959 . S
C339 H324 0.959 . S
C339 H325 0.961 . S
C339 C338 1.502 . S
C340 H326 0.960 . S
C340 H327 0.961 . S
C340 H328 0.959 . S
C340 C338 1.561 . S
C341 C338 1.526 . S
C341 C342 1.396 . S
C341 C346 1.390 . S
C342 C336 1.465 . S
C342 C341 1.396 . S
C342 C343 1.399 . S
C343 H329 0.929 . S
C343 C342 1.399 . S
C343 C344 1.385 . S
C344 H330 0.931 . S
C344 C343 1.385 . S
C344 C345 1.389 . S
C345 C344 1.389 . S
C345 C346 1.387 . S
C346 H331 0.930 . S
C346 C341 1.390 . S
C346 C345 1.387 . S
H347 C359 0.930 . S
H348 C361 0.930 . S
H349 C362 0.930 . S
H350 C366 0.959 . S
H351 C366 0.959 . S
H352 C366 0.961 . S
H353 C367 0.960 . S
H354 C367 0.961 . S
H355 C367 0.959 . S
H356 C370 0.929 . S
H357 C371 0.931 . S
H358 C373 0.930 . S
C359 H347 0.930 . S
C359 C360 1.399 . S
C359 C364 1.399 1_554 S
C360 C359 1.399 . S
C360 C361 1.376 . S
C361 H348 0.930 . S
C361 C360 1.376 . S
C361 C362 1.388 1_554 S
C362 H349 0.930 . S
C362 C361 1.388 1_556 S
C362 C363 1.390 . S
C363 C362 1.390 . S
C363 C364 1.394 . S
C363 C369 1.465 . S
C364 C359 1.399 1_556 S
C364 C363 1.394 . S
C364 C365 1.516 . S
C365 C364 1.516 . S
C365 C366 1.502 . S
C365 C367 1.561 . S
C365 C368 1.526 . S
C366 H350 0.959 . S
C366 H351 0.959 . S
C366 H352 0.961 . S
C366 C365 1.502 . S
C367 H353 0.960 . S
C367 H354 0.961 . S
C367 H355 0.959 . S
C367 C365 1.561 . S
C368 C365 1.526 . S
C368 C369 1.396 . S
C368 C373 1.390 . S
C369 C363 1.465 . S
C369 C368 1.396 . S
C369 C370 1.399 . S
C370 H356 0.929 . S
C370 C369 1.399 . S
C370 C371 1.385 . S
C371 H357 0.931 . S
C371 C370 1.385 . S
C371 C372 1.389 . S
C372 C371 1.389 . S
C372 C373 1.387 . S
C373 H358 0.930 . S
C373 C368 1.390 . S
C373 C372 1.387 . S
H374 C386 0.930 . S
H375 C388 0.930 . S
H376 C389 0.930 . S
H377 C393 0.959 . S
H378 C393 0.959 . S
H379 C393 0.961 . S
H380 C394 0.960 . S
H381 C394 0.961 . S
H382 C394 0.959 . S
H383 C397 0.929 . S
H384 C398 0.931 1_556 S
H385 C400 0.930 . S
C386 H374 0.930 . S
C386 C387 1.399 . S
C386 C391 1.399 . S
C387 C386 1.399 . S
C387 C388 1.376 . S
C388 H375 0.930 . S
C388 C387 1.376 . S
C388 C389 1.388 . S
C389 H376 0.930 . S
C389 C388 1.388 . S
C389 C390 1.390 . S
C390 C389 1.390 . S
C390 C391 1.394 . S
C390 C396 1.465 . S
C391 C386 1.399 . S
C391 C390 1.394 . S
C391 C392 1.516 . S
C392 C391 1.516 . S
C392 C393 1.502 . S
C392 C394 1.561 . S
C392 C395 1.526 . S
C393 H377 0.959 . S
C393 H378 0.959 . S
C393 H379 0.961 . S
C393 C392 1.502 . S
C394 H380 0.960 . S
C394 H381 0.961 . S
C394 H382 0.959 . S
C394 C392 1.561 . S
C395 C392 1.526 . S
C395 C396 1.396 . S
C395 C400 1.390 . S
C396 C390 1.465 . S
C396 C395 1.396 . S
C396 C397 1.399 . S
C397 H383 0.929 . S
C397 C396 1.399 . S
C397 C398 1.385 . S
C398 H384 0.931 1_554 S
C398 C397 1.385 . S
C398 C399 1.389 1_554 S
C399 C398 1.389 1_556 S
C399 C400 1.387 1_556 S
C400 H385 0.930 . S
C400 C395 1.390 . S
C400 C399 1.387 1_554 S
H401 C413 0.930 . S
H402 C415 0.930 . S
H403 C416 0.930 . S
H404 C420 0.959 . S
H405 C420 0.959 . S
H406 C420 0.961 . S
H407 C421 0.960 . S
H408 C421 0.961 . S
H409 C421 0.959 . S
H410 C424 0.929 . S
H411 C425 0.931 . S
H412 C427 0.930 . S
C413 H401 0.930 . S
C413 C414 1.399 . S
C413 C418 1.399 . S
C414 C413 1.399 . S
C414 C415 1.376 . S
C415 H402 0.930 . S
C415 C414 1.376 . S
C415 C416 1.388 . S
C416 H403 0.930 . S
C416 C415 1.388 . S
C416 C417 1.390 . S
C417 C416 1.390 . S
C417 C418 1.394 . S
C417 C423 1.465 . S
C418 C413 1.399 . S
C418 C417 1.394 . S
C418 C419 1.516 . S
C419 C418 1.516 . S
C419 C420 1.502 . S
C419 C421 1.561 . S
C419 C422 1.526 . S
C420 H404 0.959 . S
C420 H405 0.959 . S
C420 H406 0.961 . S
C420 C419 1.502 . S
C421 H407 0.960 . S
C421 H408 0.961 . S
C421 H409 0.959 . S
C421 C419 1.561 . S
C422 C419 1.526 . S
C422 C423 1.396 . S
C422 C427 1.390 . S
C423 C417 1.465 . S
C423 C422 1.396 . S
C423 C424 1.399 . S
C424 H410 0.929 . S
C424 C423 1.399 . S
C424 C425 1.385 . S
C425 H411 0.931 . S
C425 C424 1.385 . S
C425 C426 1.389 . S
C426 C425 1.389 . S
C426 C427 1.387 . S
C427 H412 0.930 . S
C427 C422 1.390 . S
C427 C426 1.387 . S
H428 C440 0.930 . S
H429 C442 0.930 . S
H430 C443 0.930 . S
H431 C447 0.959 . S
H432 C447 0.959 . S
H433 C447 0.961 . S
H434 C448 0.960 . S
H435 C448 0.961 . S
H436 C448 0.959 . S
H437 C451 0.929 . S
H438 C452 0.931 . S
H439 C454 0.930 . S
C440 H428 0.930 . S
C440 C441 1.399 . S
C440 C445 1.399 . S
C441 C440 1.399 . S
C441 C442 1.376 . S
C442 H429 0.930 . S
C442 C441 1.376 . S
C442 C443 1.388 . S
C443 H430 0.930 . S
C443 C442 1.388 . S
C443 C444 1.390 . S
C444 C443 1.390 . S
C444 C445 1.394 . S
C444 C450 1.465 . S
C445 C440 1.399 . S
C445 C444 1.394 . S
C445 C446 1.516 . S
C446 C445 1.516 . S
C446 C447 1.502 . S
C446 C448 1.561 . S
C446 C449 1.526 . S
C447 H431 0.959 . S
C447 H432 0.959 . S
C447 H433 0.961 . S
C447 C446 1.502 . S
C448 H434 0.960 . S
C448 H435 0.961 . S
C448 H436 0.959 . S
C448 C446 1.561 . S
C449 C446 1.526 . S
C449 C450 1.396 . S
C449 C454 1.390 . S
C450 C444 1.465 . S
C450 C449 1.396 . S
C450 C451 1.399 . S
C451 H437 0.929 . S
C451 C450 1.399 . S
C451 C452 1.385 . S
C452 H438 0.931 . S
C452 C451 1.385 . S
C452 C453 1.389 . S
C453 C452 1.389 . S
C453 C454 1.387 . S
C454 H439 0.930 . S
C454 C449 1.390 . S
C454 C453 1.387 . S
H455 C467 0.930 . S
H456 C469 0.930 . S
H457 C470 0.930 . S
H458 C474 0.959 . S
H459 C474 0.959 . S
H460 C474 0.961 . S
H461 C475 0.960 . S
H462 C475 0.961 . S
H463 C475 0.959 . S
H464 C478 0.929 . S
H465 C479 0.931 . S
H466 C481 0.930 . S
C467 H455 0.930 . S
C467 C468 1.399 . S
C467 C472 1.399 . S
C468 C467 1.399 . S
C468 C469 1.376 . S
C469 H456 0.930 . S
C469 C468 1.376 . S
C469 C470 1.388 . S
C470 H457 0.930 . S
C470 C469 1.388 . S
C470 C471 1.390 . S
C471 C470 1.390 . S
C471 C472 1.394 . S
C471 C477 1.465 . S
C472 C467 1.399 . S
C472 C471 1.394 . S
C472 C473 1.516 . S
C473 C472 1.516 . S
C473 C474 1.502 . S
C473 C475 1.561 . S
C473 C476 1.526 . S
C474 H458 0.959 . S
C474 H459 0.959 . S
C474 H460 0.961 . S
C474 C473 1.502 . S
C475 H461 0.960 . S
C475 H462 0.961 . S
C475 H463 0.959 . S
C475 C473 1.561 . S
C476 C473 1.526 . S
C476 C477 1.396 . S
C476 C481 1.390 . S
C477 C471 1.465 . S
C477 C476 1.396 . S
C477 C478 1.399 . S
C478 H464 0.929 . S
C478 C477 1.399 . S
C478 C479 1.385 . S
C479 H465 0.931 . S
C479 C478 1.385 . S
C479 C480 1.389 . S
C480 C479 1.389 . S
C480 C481 1.387 . S
C481 H466 0.930 . S
C481 C476 1.390 . S
C481 C480 1.387 . S
H482 C494 0.930 . S
H483 C496 0.930 . S
H484 C497 0.930 . S
H485 C501 0.959 . S
H486 C501 0.959 . S
H487 C501 0.961 . S
H488 C502 0.960 . S
H489 C502 0.961 . S
H490 C502 0.959 . S
H491 C505 0.929 . S
H492 C506 0.931 . S
H493 C508 0.930 . S
C494 H482 0.930 . S
C494 C495 1.399 . S
C494 C499 1.399 . S
C495 C494 1.399 . S
C495 C496 1.376 . S
C496 H483 0.930 . S
C496 C495 1.376 . S
C496 C497 1.388 . S
C497 H484 0.930 . S
C497 C496 1.388 . S
C497 C498 1.390 . S
C498 C497 1.390 . S
C498 C499 1.394 . S
C498 C504 1.465 . S
C499 C494 1.399 . S
C499 C498 1.394 . S
C499 C500 1.516 . S
C500 C499 1.516 . S
C500 C501 1.502 . S
C500 C502 1.561 . S
C500 C503 1.526 . S
C501 H485 0.959 . S
C501 H486 0.959 . S
C501 H487 0.961 . S
C501 C500 1.502 . S
C502 H488 0.960 . S
C502 H489 0.961 . S
C502 H490 0.959 . S
C502 C500 1.561 . S
C503 C500 1.526 . S
C503 C504 1.396 . S
C503 C508 1.390 1_556 S
C504 C498 1.465 . S
C504 C503 1.396 . S
C504 C505 1.399 . S
C505 H491 0.929 . S
C505 C504 1.399 . S
C505 C506 1.385 1_556 S
C506 H492 0.931 . S
C506 C505 1.385 1_554 S
C506 C507 1.389 . S
C507 C506 1.389 . S
C507 C508 1.387 . S
C508 H493 0.930 . S
C508 C503 1.390 1_554 S
C508 C507 1.387 . S
H509 C521 0.930 . S
H510 C523 0.930 1_556 S
H511 C524 0.930 . S
H512 C528 0.959 . S
H513 C528 0.959 . S
H514 C528 0.961 . S
H515 C529 0.960 . S
H516 C529 0.961 . S
H517 C529 0.959 . S
H518 C532 0.929 . S
H519 C533 0.931 . S
H520 C535 0.930 . S
C521 H509 0.930 . S
C521 C522 1.399 1_554 S
C521 C526 1.399 . S
C522 C521 1.399 1_556 S
C522 C523 1.376 1_556 S
C523 H510 0.930 1_554 S
C523 C522 1.376 1_554 S
C523 C524 1.388 . S
C524 H511 0.930 . S
C524 C523 1.388 . S
C524 C525 1.390 . S
C525 C524 1.390 . S
C525 C526 1.394 . S
C525 C531 1.465 . S
C526 C521 1.399 . S
C526 C525 1.394 . S
C526 C527 1.516 . S
C527 C526 1.516 . S
C527 C528 1.502 . S
C527 C529 1.561 . S
C527 C530 1.526 . S
C528 H512 0.959 . S
C528 H513 0.959 . S
C528 H514 0.961 . S
C528 C527 1.502 . S
C529 H515 0.960 . S
C529 H516 0.961 . S
C529 H517 0.959 . S
C529 C527 1.561 . S
C530 C527 1.526 . S
C530 C531 1.396 . S
C530 C535 1.390 . S
C531 C525 1.465 . S
C531 C530 1.396 . S
C531 C532 1.399 . S
C532 H518 0.929 . S
C532 C531 1.399 . S
C532 C533 1.385 . S
C533 H519 0.931 . S
C533 C532 1.385 . S
C533 C534 1.389 . S
C534 C533 1.389 . S
C534 C535 1.387 . S
C535 H520 0.930 . S
C535 C530 1.390 . S
C535 C534 1.387 . S
H536 C548 0.930 . S
H537 C550 0.930 . S
H538 C551 0.930 . S
H539 C555 0.959 . S
H540 C555 0.959 . S
H541 C555 0.961 . S
H542 C556 0.960 . S
H543 C556 0.961 . S
H544 C556 0.959 . S
H545 C559 0.929 . S
H546 C560 0.931 . S
H547 C562 0.930 . S
C548 H536 0.930 . S
C548 C549 1.399 . S
C548 C553 1.399 . S
C549 C548 1.399 . S
C549 C550 1.376 . S
C550 H537 0.930 . S
C550 C549 1.376 . S
C550 C551 1.388 . S
C551 H538 0.930 . S
C551 C550 1.388 . S
C551 C552 1.390 . S
C552 C551 1.390 . S
C552 C553 1.394 . S
C552 C558 1.465 . S
C553 C548 1.399 . S
C553 C552 1.394 . S
C553 C554 1.516 . S
C554 C553 1.516 . S
C554 C555 1.502 . S
C554 C556 1.561 . S
C554 C557 1.526 . S
C555 H539 0.959 . S
C555 H540 0.959 . S
C555 H541 0.961 . S
C555 C554 1.502 . S
C556 H542 0.960 . S
C556 H543 0.961 . S
C556 H544 0.959 . S
C556 C554 1.561 . S
C557 C554 1.526 . S
C557 C558 1.396 . S
C557 C562 1.390 . S
C558 C552 1.465 . S
C558 C557 1.396 . S
C558 C559 1.399 . S
C559 H545 0.929 . S
C559 C558 1.399 . S
C559 C560 1.385 . S
C560 H546 0.931 . S
C560 C559 1.385 . S
C560 C561 1.389 . S
C561 C560 1.389 . S
C561 C562 1.387 . S
C562 H547 0.930 . S
C562 C557 1.390 . S
C562 C561 1.387 . S
H563 C575 0.930 . S
H564 C577 0.930 . S
H565 C578 0.930 . S
H566 C582 0.959 . S
H567 C582 0.959 . S
H568 C582 0.961 . S
H569 C583 0.960 . S
H570 C583 0.961 . S
H571 C583 0.959 . S
H572 C586 0.929 . S
H573 C587 0.931 . S
H574 C589 0.930 . S
C575 H563 0.930 . S
C575 C576 1.399 . S
C575 C580 1.399 . S
C576 C575 1.399 . S
C576 C577 1.376 . S
C577 H564 0.930 . S
C577 C576 1.376 . S
C577 C578 1.388 . S
C578 H565 0.930 . S
C578 C577 1.388 . S
C578 C579 1.390 . S
C579 C578 1.390 . S
C579 C580 1.394 . S
C579 C585 1.465 . S
C580 C575 1.399 . S
C580 C579 1.394 . S
C580 C581 1.516 . S
C581 C580 1.516 . S
C581 C582 1.502 . S
C581 C583 1.561 . S
C581 C584 1.526 . S
C582 H566 0.959 . S
C582 H567 0.959 . S
C582 H568 0.961 . S
C582 C581 1.502 . S
C583 H569 0.960 . S
C583 H570 0.961 . S
C583 H571 0.959 . S
C583 C581 1.561 . S
C584 C581 1.526 . S
C584 C585 1.396 . S
C584 C589 1.390 1_554 S
C585 C579 1.465 . S
C585 C584 1.396 . S
C585 C586 1.399 . S
C586 H572 0.929 . S
C586 C585 1.399 . S
C586 C587 1.385 1_554 S
C587 H573 0.931 . S
C587 C586 1.385 1_556 S
C587 C588 1.389 . S
C588 C587 1.389 . S
C588 C589 1.387 . S
C589 H574 0.930 . S
C589 C584 1.390 1_556 S
C589 C588 1.387 . S
H590 C602 0.930 . S
H591 C604 0.930 1_554 S
H592 C605 0.930 . S
H593 C609 0.959 . S
H594 C609 0.959 . S
H595 C609 0.961 . S
H596 C610 0.960 . S
H597 C610 0.961 . S
H598 C610 0.959 . S
H599 C613 0.929 . S
H600 C614 0.931 . S
H601 C616 0.930 . S
C602 H590 0.930 . S
C602 C603 1.399 . S
C602 C607 1.399 . S
C603 C602 1.399 . S
C603 C604 1.376 . S
C604 H591 0.930 1_556 S
C604 C603 1.376 . S
C604 C605 1.388 . S
C605 H592 0.930 . S
C605 C604 1.388 . S
C605 C606 1.390 . S
C606 C605 1.390 . S
C606 C607 1.394 . S
C606 C612 1.465 . S
C607 C602 1.399 . S
C607 C606 1.394 . S
C607 C608 1.516 . S
C608 C607 1.516 . S
C608 C609 1.502 . S
C608 C610 1.561 . S
C608 C611 1.526 . S
C609 H593 0.959 . S
C609 H594 0.959 . S
C609 H595 0.961 . S
C609 C608 1.502 . S
C610 H596 0.960 . S
C610 H597 0.961 . S
C610 H598 0.959 . S
C610 C608 1.561 . S
C611 C608 1.526 . S
C611 C612 1.396 . S
C611 C616 1.390 . S
C612 C606 1.465 . S
C612 C611 1.396 . S
C612 C613 1.399 . S
C613 H599 0.929 . S
C613 C612 1.399 . S
C613 C614 1.385 . S
C614 H600 0.931 . S
C614 C613 1.385 . S
C614 C615 1.389 . S
C615 C614 1.389 . S
C615 C616 1.387 . S
C616 H601 0.930 . S
C616 C611 1.390 . S
C616 C615 1.387 . S
H617 C629 0.930 . S
H618 C631 0.930 . S
H619 C632 0.930 . S
H620 C636 0.959 . S
H621 C636 0.959 . S
H622 C636 0.961 . S
H623 C637 0.960 . S
H624 C637 0.961 . S
H625 C637 0.959 . S
H626 C640 0.929 . S
H627 C641 0.931 . S
H628 C643 0.930 . S
C629 H617 0.930 . S
C629 C630 1.399 . S
C629 C634 1.399 . S
C630 C629 1.399 . S
C630 C631 1.376 . S
C631 H618 0.930 . S
C631 C630 1.376 . S
C631 C632 1.388 . S
C632 H619 0.930 . S
C632 C631 1.388 . S
C632 C633 1.390 . S
C633 C632 1.390 . S
C633 C634 1.394 . S
C633 C639 1.465 . S
C634 C629 1.399 . S
C634 C633 1.394 . S
C634 C635 1.516 . S
C635 C634 1.516 . S
C635 C636 1.502 . S
C635 C637 1.561 . S
C635 C638 1.526 . S
C636 H620 0.959 . S
C636 H621 0.959 . S
C636 H622 0.961 . S
C636 C635 1.502 . S
C637 H623 0.960 . S
C637 H624 0.961 . S
C637 H625 0.959 . S
C637 C635 1.561 . S
C638 C635 1.526 . S
C638 C639 1.396 . S
C638 C643 1.390 . S
C639 C633 1.465 . S
C639 C638 1.396 . S
C639 C640 1.399 . S
C640 H626 0.929 . S
C640 C639 1.399 . S
C640 C641 1.385 . S
C641 H627 0.931 . S
C641 C640 1.385 . S
C641 C642 1.389 . S
C642 C641 1.389 . S
C642 C643 1.387 . S
C643 H628 0.930 . S
C643 C638 1.390 . S
C643 C642 1.387 . S
H644 C656 0.930 . S
H645 C658 0.930 . S
H646 C659 0.930 . S
H647 C663 0.959 . S
H648 C663 0.959 . S
H649 C663 0.961 . S
H650 C664 0.960 . S
H651 C664 0.961 . S
H652 C664 0.959 . S
H653 C667 0.929 . S
H654 C668 0.931 . S
H655 C670 0.930 . S
C656 H644 0.930 . S
C656 C657 1.399 . S
C656 C661 1.399 . S
C657 C656 1.399 . S
C657 C658 1.376 . S
C658 H645 0.930 . S
C658 C657 1.376 . S
C658 C659 1.388 . S
C659 H646 0.930 . S
C659 C658 1.388 . S
C659 C660 1.390 . S
C660 C659 1.390 . S
C660 C661 1.394 . S
C660 C666 1.465 . S
C661 C656 1.399 . S
C661 C660 1.394 . S
C661 C662 1.516 . S
C662 C661 1.516 . S
C662 C663 1.502 . S
C662 C664 1.561 . S
C662 C665 1.526 . S
C663 H647 0.959 . S
C663 H648 0.959 . S
C663 H649 0.961 . S
C663 C662 1.502 . S
C664 H650 0.960 . S
C664 H651 0.961 . S
C664 H652 0.959 . S
C664 C662 1.561 . S
C665 C662 1.526 . S
C665 C666 1.396 . S
C665 C670 1.390 . S
C666 C660 1.465 . S
C666 C665 1.396 . S
C666 C667 1.399 . S
C667 H653 0.929 . S
C667 C666 1.399 . S
C667 C668 1.385 . S
C668 H654 0.931 . S
C668 C667 1.385 . S
C668 C669 1.389 . S
C669 C668 1.389 . S
C669 C670 1.387 . S
C670 H655 0.930 . S
C670 C665 1.390 . S
C670 C669 1.387 . S
H671 C683 0.930 . S
H672 C685 0.930 . S
H673 C686 0.930 . S
H674 C690 0.959 . S
H675 C690 0.959 . S
H676 C690 0.961 . S
H677 C691 0.960 . S
H678 C691 0.961 . S
H679 C691 0.959 . S
H680 C694 0.929 . S
H681 C695 0.931 . S
H682 C697 0.930 . S
C683 H671 0.930 . S
C683 C684 1.399 . S
C683 C688 1.399 . S
C684 C683 1.399 . S
C684 C685 1.376 . S
C685 H672 0.930 . S
C685 C684 1.376 . S
C685 C686 1.388 . S
C686 H673 0.930 . S
C686 C685 1.388 . S
C686 C687 1.390 . S
C687 C686 1.390 . S
C687 C688 1.394 . S
C687 C693 1.465 . S
C688 C683 1.399 . S
C688 C687 1.394 . S
C688 C689 1.516 . S
C689 C688 1.516 . S
C689 C690 1.502 . S
C689 C691 1.561 . S
C689 C692 1.526 . S
C690 H674 0.959 . S
C690 H675 0.959 . S
C690 H676 0.961 . S
C690 C689 1.502 . S
C691 H677 0.960 . S
C691 H678 0.961 . S
C691 H679 0.959 . S
C691 C689 1.561 . S
C692 C689 1.526 . S
C692 C693 1.396 . S
C692 C697 1.390 . S
C693 C687 1.465 . S
C693 C692 1.396 . S
C693 C694 1.399 . S
C694 H680 0.929 . S
C694 C693 1.399 . S
C694 C695 1.385 . S
C695 H681 0.931 . S
C695 C694 1.385 . S
C695 C696 1.389 . S
C696 C695 1.389 . S
C696 C697 1.387 . S
C697 H682 0.930 . S
C697 C692 1.390 . S
C697 C696 1.387 . S
H698 C710 0.930 . S
H699 C712 0.930 . S
H700 C713 0.930 . S
H701 C717 0.959 . S
H702 C717 0.959 1_556 S
H703 C717 0.961 . S
H704 C718 0.960 . S
H705 C718 0.961 . S
H706 C718 0.959 . S
H707 C721 0.929 . S
H708 C722 0.931 . S
H709 C724 0.930 . S
C710 H698 0.930 . S
C710 C711 1.399 . S
C710 C715 1.399 . S
C711 C710 1.399 . S
C711 C712 1.376 . S
C712 H699 0.930 . S
C712 C711 1.376 . S
C712 C713 1.388 . S
C713 H700 0.930 . S
C713 C712 1.388 . S
C713 C714 1.390 . S
C714 C713 1.390 . S
C714 C715 1.394 . S
C714 C720 1.465 . S
C715 C710 1.399 . S
C715 C714 1.394 . S
C715 C716 1.516 . S
C716 C715 1.516 . S
C716 C717 1.502 . S
C716 C718 1.561 . S
C716 C719 1.526 . S
C717 H701 0.959 . S
C717 H702 0.959 1_554 S
C717 H703 0.961 . S
C717 C716 1.502 . S
C718 H704 0.960 . S
C718 H705 0.961 . S
C718 H706 0.959 . S
C718 C716 1.561 . S
C719 C716 1.526 . S
C719 C720 1.396 . S
C719 C724 1.390 1_554 S
C720 C714 1.465 . S
C720 C719 1.396 . S
C720 C721 1.399 . S
C721 H707 0.929 . S
C721 C720 1.399 . S
C721 C722 1.385 1_554 S
C722 H708 0.931 . S
C722 C721 1.385 1_556 S
C722 C723 1.389 . S
C723 C722 1.389 . S
C723 C724 1.387 . S
C724 H709 0.930 . S
C724 C719 1.390 1_556 S
C724 C723 1.387 . S
H725 C737 0.930 . S
H726 C739 0.930 1_554 S
H727 C740 0.930 . S
H728 C744 0.959 . S
H729 C744 0.959 . S
H730 C744 0.961 . S
H731 C745 0.960 . S
H732 C745 0.961 . S
H733 C745 0.959 . S
H734 C748 0.929 . S
H735 C749 0.931 . S
H736 C751 0.930 . S
C737 H725 0.930 . S
C737 C738 1.399 . S
C737 C742 1.399 . S
C738 C737 1.399 . S
C738 C739 1.376 . S
C739 H726 0.930 1_556 S
C739 C738 1.376 . S
C739 C740 1.388 . S
C740 H727 0.930 . S
C740 C739 1.388 . S
C740 C741 1.390 . S
C741 C740 1.390 . S
C741 C742 1.394 . S
C741 C747 1.465 . S
C742 C737 1.399 . S
C742 C741 1.394 . S
C742 C743 1.516 . S
C743 C742 1.516 . S
C743 C744 1.502 . S
C743 C745 1.561 . S
C743 C746 1.526 . S
C744 H728 0.959 . S
C744 H729 0.959 . S
C744 H730 0.961 . S
C744 C743 1.502 . S
C745 H731 0.960 . S
C745 H732 0.961 . S
C745 H733 0.959 . S
C745 C743 1.561 . S
C746 C743 1.526 . S
C746 C747 1.396 . S
C746 C751 1.390 . S
C747 C741 1.465 . S
C747 C746 1.396 . S
C747 C748 1.399 . S
C748 H734 0.929 . S
C748 C747 1.399 . S
C748 C749 1.385 . S
C749 H735 0.931 . S
C749 C748 1.385 . S
C749 C750 1.389 . S
C750 C749 1.389 . S
C750 C751 1.387 . S
C751 H736 0.930 . S
C751 C746 1.390 . S
C751 C750 1.387 . S
H752 C764 0.930 . S
H753 C766 0.930 . S
H754 C767 0.930 . S
H755 C771 0.959 . S
H756 C771 0.959 . S
H757 C771 0.961 . S
H758 C772 0.960 . S
H759 C772 0.961 . S
H760 C772 0.959 . S
H761 C775 0.929 . S
H762 C776 0.931 . S
H763 C778 0.930 . S
C764 H752 0.930 . S
C764 C765 1.399 . S
C764 C769 1.399 . S
C765 C764 1.399 . S
C765 C766 1.376 . S
C766 H753 0.930 . S
C766 C765 1.376 . S
C766 C767 1.388 . S
C767 H754 0.930 . S
C767 C766 1.388 . S
C767 C768 1.390 . S
C768 C767 1.390 . S
C768 C769 1.394 . S
C768 C774 1.465 . S
C769 C764 1.399 . S
C769 C768 1.394 . S
C769 C770 1.516 . S
C770 C769 1.516 . S
C770 C771 1.502 . S
C770 C772 1.561 . S
C770 C773 1.526 . S
C771 H755 0.959 . S
C771 H756 0.959 . S
C771 H757 0.961 . S
C771 C770 1.502 . S
C772 H758 0.960 . S
C772 H759 0.961 . S
C772 H760 0.959 . S
C772 C770 1.561 . S
C773 C770 1.526 . S
C773 C774 1.396 . S
C773 C778 1.390 . S
C774 C768 1.465 . S
C774 C773 1.396 . S
C774 C775 1.399 . S
C775 H761 0.929 . S
C775 C774 1.399 . S
C775 C776 1.385 . S
C776 H762 0.931 . S
C776 C775 1.385 . S
C776 C777 1.389 . S
C777 C776 1.389 . S
C777 C778 1.387 . S
C778 H763 0.930 . S
C778 C773 1.390 . S
C778 C777 1.387 . S
H779 C791 0.930 . S
H780 C793 0.930 . S
H781 C794 0.930 . S
H782 C798 0.959 . S
H783 C798 0.959 . S
H784 C798 0.961 . S
H785 C799 0.960 . S
H786 C799 0.961 . S
H787 C799 0.959 . S
H788 C802 0.929 . S
H789 C803 0.931 . S
H790 C805 0.930 . S
C791 H779 0.930 . S
C791 C792 1.399 . S
C791 C796 1.399 . S
C792 C791 1.399 . S
C792 C793 1.376 . S
C793 H780 0.930 . S
C793 C792 1.376 . S
C793 C794 1.388 . S
C794 H781 0.930 . S
C794 C793 1.388 . S
C794 C795 1.390 . S
C795 C794 1.390 . S
C795 C796 1.394 . S
C795 C801 1.465 . S
C796 C791 1.399 . S
C796 C795 1.394 . S
C796 C797 1.516 . S
C797 C796 1.516 . S
C797 C798 1.502 . S
C797 C799 1.561 . S
C797 C800 1.526 . S
C798 H782 0.959 . S
C798 H783 0.959 . S
C798 H784 0.961 . S
C798 C797 1.502 . S
C799 H785 0.960 . S
C799 H786 0.961 . S
C799 H787 0.959 . S
C799 C797 1.561 . S
C800 C797 1.526 . S
C800 C801 1.396 . S
C800 C805 1.390 . S
C801 C795 1.465 . S
C801 C800 1.396 . S
C801 C802 1.399 . S
C802 H788 0.929 . S
C802 C801 1.399 . S
C802 C803 1.385 . S
C803 H789 0.931 . S
C803 C802 1.385 . S
C803 C804 1.389 . S
C804 C803 1.389 . S
C804 C805 1.387 . S
C805 H790 0.930 . S
C805 C800 1.390 . S
C805 C804 1.387 . S
H806 C818 0.930 . S
H807 C820 0.930 . S
H808 C821 0.930 . S
H809 C825 0.959 . S
H810 C825 0.959 . S
H811 C825 0.961 . S
H812 C826 0.960 . S
H813 C826 0.961 . S
H814 C826 0.959 . S
H815 C829 0.929 . S
H816 C830 0.931 . S
H817 C832 0.930 . S
C818 H806 0.930 . S
C818 C819 1.399 . S
C818 C823 1.399 . S
C819 C818 1.399 . S
C819 C820 1.376 . S
C820 H807 0.930 . S
C820 C819 1.376 . S
C820 C821 1.388 . S
C821 H808 0.930 . S
C821 C820 1.388 . S
C821 C822 1.390 . S
C822 C821 1.390 . S
C822 C823 1.394 . S
C822 C828 1.465 . S
C823 C818 1.399 . S
C823 C822 1.394 . S
C823 C824 1.516 . S
C824 C823 1.516 . S
C824 C825 1.502 . S
C824 C826 1.561 . S
C824 C827 1.526 . S
C825 H809 0.959 . S
C825 H810 0.959 . S
C825 H811 0.961 . S
C825 C824 1.502 . S
C826 H812 0.960 . S
C826 H813 0.961 . S
C826 H814 0.959 . S
C826 C824 1.561 . S
C827 C824 1.526 . S
C827 C828 1.396 . S
C827 C832 1.390 . S
C828 C822 1.465 . S
C828 C827 1.396 . S
C828 C829 1.399 . S
C829 H815 0.929 . S
C829 C828 1.399 . S
C829 C830 1.385 . S
C830 H816 0.931 . S
C830 C829 1.385 . S
C830 C831 1.389 . S
C831 C830 1.389 . S
C831 C832 1.387 . S
C832 H817 0.930 . S
C832 C827 1.390 . S
C832 C831 1.387 . S
H833 C845 0.930 1_554 S
H834 C847 0.930 . S
H835 C848 0.930 . S
H836 C852 0.959 1_556 S
H837 C852 0.959 1_455 S
H838 C852 0.961 . S
H839 C853 0.960 . S
H840 C853 0.961 1_455 S
H841 C853 0.959 . S
H842 C856 0.929 . S
H843 C857 0.931 . S
H844 C859 0.930 1_554 S
C845 H833 0.930 1_556 S
C845 C846 1.399 . S
C845 C850 1.399 . S
C846 C845 1.399 . S
C846 C847 1.376 . S
C847 H834 0.930 . S
C847 C846 1.376 . S
C847 C848 1.388 . S
C848 H835 0.930 . S
C848 C847 1.388 . S
C848 C849 1.390 . S
C849 C848 1.390 . S
C849 C850 1.394 . S
C849 C855 1.465 . S
C850 C845 1.399 . S
C850 C849 1.394 . S
C850 C851 1.516 1_556 S
C851 C850 1.516 1_554 S
C851 C852 1.502 . S
C851 C853 1.561 . S
C851 C854 1.526 1_654 S
C852 H836 0.959 1_554 S
C852 H837 0.959 1_655 S
C852 H838 0.961 . S
C852 C851 1.502 . S
C853 H839 0.960 . S
C853 H840 0.961 1_655 S
C853 H841 0.959 . S
C853 C851 1.561 . S
C854 C851 1.526 1_456 S
C854 C855 1.396 1_455 S
C854 C859 1.390 . S
C855 C849 1.465 . S
C855 C854 1.396 1_655 S
C855 C856 1.399 1_655 S
C856 H842 0.929 . S
C856 C855 1.399 1_455 S
C856 C857 1.385 . S
C857 H843 0.931 . S
C857 C856 1.385 . S
C857 C858 1.389 . S
C858 C857 1.389 . S
C858 C859 1.387 . S
C859 H844 0.930 1_556 S
C859 C854 1.390 . S
C859 C858 1.387 . S
H860 C872 0.930 . S
H861 C874 0.930 . S
H862 C875 0.930 . S
H863 C879 0.959 . S
H864 C879 0.959 . S
H865 C879 0.961 . S
H866 C880 0.960 . S
H867 C880 0.961 . S
H868 C880 0.959 . S
H869 C883 0.929 . S
H870 C884 0.931 . S
H871 C886 0.930 . S
C872 H860 0.930 . S
C872 C873 1.399 . S
C872 C877 1.399 . S
C873 C872 1.399 . S
C873 C874 1.376 . S
C874 H861 0.930 . S
C874 C873 1.376 . S
C874 C875 1.388 . S
C875 H862 0.930 . S
C875 C874 1.388 . S
C875 C876 1.390 . S
C876 C875 1.390 . S
C876 C877 1.394 . S
C876 C882 1.465 . S
C877 C872 1.399 . S
C877 C876 1.394 . S
C877 C878 1.516 . S
C878 C877 1.516 . S
C878 C879 1.502 . S
C878 C880 1.561 . S
C878 C881 1.526 . S
C879 H863 0.959 . S
C879 H864 0.959 . S
C879 H865 0.961 . S
C879 C878 1.502 . S
C880 H866 0.960 . S
C880 H867 0.961 . S
C880 H868 0.959 . S
C880 C878 1.561 . S
C881 C878 1.526 . S
C881 C882 1.396 . S
C881 C886 1.390 . S
C882 C876 1.465 . S
C882 C881 1.396 . S
C882 C883 1.399 . S
C883 H869 0.929 . S
C883 C882 1.399 . S
C883 C884 1.385 . S
C884 H870 0.931 . S
C884 C883 1.385 . S
C884 C885 1.389 . S
C885 C884 1.389 . S
C885 C886 1.387 . S
C886 H871 0.930 . S
C886 C881 1.390 . S
C886 C885 1.387 . S
H887 C899 0.930 1_556 S
H888 C901 0.930 . S
H889 C902 0.930 . S
H890 C906 0.959 . S
H891 C906 0.959 . S
H892 C906 0.961 . S
H893 C907 0.960 1_556 S
H894 C907 0.961 1_556 S
H895 C907 0.959 . S
H896 C910 0.922 1_455 S
H897 C911 0.931 . S
H898 C913 0.930 . S
C899 H887 0.930 1_554 S
C899 C900 1.399 . S
C899 C904 1.399 . S
C900 C899 1.399 . S
C900 C901 1.376 . S
C901 H888 0.930 . S
C901 C900 1.376 . S
C901 C902 1.388 . S
C902 H889 0.930 . S
C902 C901 1.388 . S
C902 C903 1.390 . S
C903 C902 1.390 . S
C903 C904 1.394 . S
C903 C909 1.465 . S
C904 C899 1.399 . S
C904 C903 1.394 . S
C904 C905 1.516 . S
C905 C904 1.516 . S
C905 C906 1.502 1_554 S
C905 C907 1.561 . S
C905 C908 1.536 . S
C906 H890 0.959 . S
C906 H891 0.959 . S
C906 H892 0.961 . S
C906 C905 1.502 1_556 S
C907 H893 0.960 1_554 S
C907 H894 0.961 1_554 S
C907 H895 0.959 . S
C907 C905 1.561 . S
C908 C905 1.536 . S
C908 C909 1.401 . S
C908 C913 1.376 1_455 S
C909 C903 1.465 . S
C909 C908 1.401 . S
C909 C910 1.399 1_455 S
C910 H896 0.922 1_655 S
C910 C909 1.399 1_655 S
C910 C911 1.385 . S
C911 H897 0.931 . S
C911 C910 1.385 . S
C911 C912 1.389 . S
C912 C911 1.389 . S
C912 C913 1.387 . S
C913 H898 0.930 . S
C913 C908 1.376 1_655 S
C913 C912 1.387 . S
H914 C926 0.930 . S
H915 C928 0.930 . S
H916 C929 0.930 . S
H917 C933 0.959 . S
H918 C933 0.959 . S
H919 C933 0.961 . S
H920 C934 0.960 . S
H921 C934 0.961 . S
H922 C934 0.959 . S
H923 C937 0.929 . S
H924 C938 0.931 . S
H925 C940 0.930 . S
C926 H914 0.930 . S
C926 C927 1.399 . S
C926 C931 1.399 . S
C927 C926 1.399 . S
C927 C928 1.376 . S
C928 H915 0.930 . S
C928 C927 1.376 . S
C928 C929 1.388 . S
C929 H916 0.930 . S
C929 C928 1.388 . S
C929 C930 1.390 . S
C930 C929 1.390 . S
C930 C931 1.394 . S
C930 C936 1.465 . S
C931 C926 1.399 . S
C931 C930 1.394 . S
C931 C932 1.516 . S
C932 C931 1.516 . S
C932 C933 1.502 . S
C932 C934 1.561 . S
C932 C935 1.526 . S
C933 H917 0.959 . S
C933 H918 0.959 . S
C933 H919 0.961 . S
C933 C932 1.502 . S
C934 H920 0.960 . S
C934 H921 0.961 . S
C934 H922 0.959 . S
C934 C932 1.561 . S
C935 C932 1.526 . S
C935 C936 1.396 . S
C935 C940 1.390 . S
C936 C930 1.465 . S
C936 C935 1.396 . S
C936 C937 1.399 . S
C937 H923 0.929 . S
C937 C936 1.399 . S
C937 C938 1.385 . S
C938 H924 0.931 . S
C938 C937 1.385 . S
C938 C939 1.389 . S
C939 C938 1.389 . S
C939 C940 1.387 . S
C940 H925 0.930 . S
C940 C935 1.390 . S
C940 C939 1.387 . S
H941 C953 0.930 . S
H942 C955 0.930 . S
H943 C956 0.930 . S
H944 C960 0.959 . S
H945 C960 0.959 . S
H946 C960 0.961 . S
H947 C961 0.960 . S
H948 C961 0.961 . S
H949 C961 0.959 . S
H950 C964 0.929 . S
H951 C965 0.931 . S
H952 C967 0.930 . S
C953 H941 0.930 . S
C953 C954 1.399 . S
C953 C958 1.399 . S
C954 C953 1.399 . S
C954 C955 1.376 . S
C955 H942 0.930 . S
C955 C954 1.376 . S
C955 C956 1.388 . S
C956 H943 0.930 . S
C956 C955 1.388 . S
C956 C957 1.390 . S
C957 C956 1.390 . S
C957 C958 1.394 . S
C957 C963 1.465 . S
C958 C953 1.399 . S
C958 C957 1.394 . S
C958 C959 1.516 . S
C959 C958 1.516 . S
C959 C960 1.502 . S
C959 C961 1.561 . S
C959 C962 1.526 . S
C960 H944 0.959 . S
C960 H945 0.959 . S
C960 H946 0.961 . S
C960 C959 1.502 . S
C961 H947 0.960 . S
C961 H948 0.961 . S
C961 H949 0.959 . S
C961 C959 1.561 . S
C962 C959 1.526 . S
C962 C963 1.396 . S
C962 C967 1.390 . S
C963 C957 1.465 . S
C963 C962 1.396 . S
C963 C964 1.399 . S
C964 H950 0.929 . S
C964 C963 1.399 . S
C964 C965 1.385 . S
C965 H951 0.931 . S
C965 C964 1.385 . S
C965 C966 1.389 . S
C966 C965 1.389 . S
C966 C967 1.387 . S
C967 H952 0.930 . S
C967 C962 1.390 . S
C967 C966 1.387 . S
H968 C980 0.930 . S
H969 C982 0.930 . S
H970 C983 0.930 . S
H971 C987 0.959 . S
H972 C987 0.959 . S
H973 C987 0.961 . S
H974 C988 0.960 1_554 S
H975 C988 0.961 1_554 S
H976 C988 0.959 . S
H977 C991 0.929 . S
H978 C992 0.931 . S
H979 C994 0.930 . S
C980 H968 0.930 . S
C980 C981 1.399 . S
C980 C985 1.399 . S
C981 C980 1.399 . S
C981 C982 1.376 . S
C982 H969 0.930 . S
C982 C981 1.376 . S
C982 C983 1.388 . S
C983 H970 0.930 . S
C983 C982 1.388 . S
C983 C984 1.390 . S
C984 C983 1.390 . S
C984 C985 1.394 . S
C984 C990 1.465 . S
C985 C980 1.399 . S
C985 C984 1.394 . S
C985 C986 1.516 . S
C986 C985 1.516 . S
C986 C987 1.502 . S
C986 C988 1.561 . S
C986 C989 1.526 . S
C987 H971 0.959 . S
C987 H972 0.959 . S
C987 H973 0.961 . S
C987 C986 1.502 . S
C988 H974 0.960 1_556 S
C988 H975 0.961 1_556 S
C988 H976 0.959 . S
C988 C986 1.561 . S
C989 C986 1.526 . S
C989 C990 1.396 . S
C989 C994 1.390 . S
C990 C984 1.465 . S
C990 C989 1.396 . S
C990 C991 1.399 . S
C991 H977 0.929 . S
C991 C990 1.399 . S
C991 C992 1.385 . S
C992 H978 0.931 . S
C992 C991 1.385 . S
C992 C993 1.389 . S
C993 C992 1.389 . S
C993 C994 1.387 . S
C994 H979 0.930 . S
C994 C989 1.390 . S
C994 C993 1.387 . S
H995 C1007 0.930 . S
H996 C1009 0.930 . S
H997 C1010 0.930 . S
H998 C1014 0.959 . S
H999 C1014 0.959 . S
H1000 C1014 0.961 . S
H1001 C1015 0.960 . S
H1002 C1015 0.961 . S
H1003 C1015 0.959 . S
H1004 C1018 0.929 . S
H1005 C1019 0.931 . S
H1006 C1021 0.930 . S
C1007 H995 0.930 . S
C1007 C1008 1.399 . S
C1007 C1012 1.399 . S
C1008 C1007 1.399 . S
C1008 C1009 1.376 . S
C1009 H996 0.930 . S
C1009 C1008 1.376 . S
C1009 C1010 1.388 . S
C1010 H997 0.930 . S
C1010 C1009 1.388 . S
C1010 C1011 1.390 . S
C1011 C1010 1.390 . S
C1011 C1012 1.394 . S
C1011 C1017 1.465 . S
C1012 C1007 1.399 . S
C1012 C1011 1.394 . S
C1012 C1013 1.516 . S
C1013 C1012 1.516 . S
C1013 C1014 1.502 . S
C1013 C1015 1.561 . S
C1013 C1016 1.526 . S
C1014 H998 0.959 . S
C1014 H999 0.959 . S
C1014 H1000 0.961 . S
C1014 C1013 1.502 . S
C1015 H1001 0.960 . S
C1015 H1002 0.961 . S
C1015 H1003 0.959 . S
C1015 C1013 1.561 . S
C1016 C1013 1.526 . S
C1016 C1017 1.396 . S
C1016 C1021 1.390 . S
C1017 C1011 1.465 . S
C1017 C1016 1.396 . S
C1017 C1018 1.399 . S
C1018 H1004 0.929 . S
C1018 C1017 1.399 . S
C1018 C1019 1.385 . S
C1019 H1005 0.931 . S
C1019 C1018 1.385 . S
C1019 C1020 1.389 . S
C1020 C1019 1.389 . S
C1020 C1021 1.387 . S
C1021 H1006 0.930 . S
C1021 C1016 1.390 . S
C1021 C1020 1.387 . S
H1022 C1034 0.930 . S
H1023 C1036 0.930 . S
H1024 C1037 0.930 . S
H1025 C1041 0.959 . S
H1026 C1041 0.959 . S
H1027 C1041 0.961 . S
H1028 C1042 0.960 . S
H1029 C1042 0.961 . S
H1030 C1042 0.959 . S
H1031 C1045 0.929 . S
H1032 C1046 0.931 . S
H1033 C1048 0.930 . S
C1034 H1022 0.930 . S
C1034 C1035 1.399 . S
C1034 C1039 1.399 . S
C1035 C1034 1.399 . S
C1035 C1036 1.376 . S
C1036 H1023 0.930 . S
C1036 C1035 1.376 . S
C1036 C1037 1.388 . S
C1037 H1024 0.930 . S
C1037 C1036 1.388 . S
C1037 C1038 1.390 . S
C1038 C1037 1.390 . S
C1038 C1039 1.394 . S
C1038 C1044 1.465 . S
C1039 C1034 1.399 . S
C1039 C1038 1.394 . S
C1039 C1040 1.516 . S
C1040 C1039 1.516 . S
C1040 C1041 1.502 . S
C1040 C1042 1.561 . S
C1040 C1043 1.526 . S
C1041 H1025 0.959 . S
C1041 H1026 0.959 . S
C1041 H1027 0.961 . S
C1041 C1040 1.502 . S
C1042 H1028 0.960 . S
C1042 H1029 0.961 . S
C1042 H1030 0.959 . S
C1042 C1040 1.561 . S
C1043 C1040 1.526 . S
C1043 C1044 1.396 . S
C1043 C1048 1.390 . S
C1044 C1038 1.465 . S
C1044 C1043 1.396 . S
C1044 C1045 1.399 . S
C1045 H1031 0.929 . S
C1045 C1044 1.399 . S
C1045 C1046 1.385 . S
C1046 H1032 0.931 . S
C1046 C1045 1.385 . S
C1046 C1047 1.389 . S
C1047 C1046 1.389 . S
C1047 C1048 1.387 . S
C1048 H1033 0.930 . S
C1048 C1043 1.390 . S
C1048 C1047 1.387 . S
H1049 C1061 0.930 . S
H1050 C1063 0.930 . S
H1051 C1064 0.930 . S
H1052 C1068 0.959 . S
H1053 C1068 0.959 . S
H1054 C1068 0.961 . S
H1055 C1069 0.960 . S
H1056 C1069 0.961 . S
H1057 C1069 0.959 . S
H1058 C1072 0.929 . S
H1059 C1073 0.931 . S
H1060 C1075 0.930 . S
C1061 H1049 0.930 . S
C1061 C1062 1.399 . S
C1061 C1066 1.399 . S
C1062 C1061 1.399 . S
C1062 C1063 1.376 . S
C1063 H1050 0.930 . S
C1063 C1062 1.376 . S
C1063 C1064 1.388 . S
C1064 H1051 0.930 . S
C1064 C1063 1.388 . S
C1064 C1065 1.390 . S
C1065 C1064 1.390 . S
C1065 C1066 1.394 . S
C1065 C1071 1.465 . S
C1066 C1061 1.399 . S
C1066 C1065 1.394 . S
C1066 C1067 1.516 . S
C1067 C1066 1.516 . S
C1067 C1068 1.502 . S
C1067 C1069 1.561 . S
C1067 C1070 1.526 . S
C1068 H1052 0.959 . S
C1068 H1053 0.959 . S
C1068 H1054 0.961 . S
C1068 C1067 1.502 . S
C1069 H1055 0.960 . S
C1069 H1056 0.961 . S
C1069 H1057 0.959 . S
C1069 C1067 1.561 . S
C1070 C1067 1.526 . S
C1070 C1071 1.396 . S
C1070 C1075 1.390 . S
C1071 C1065 1.465 . S
C1071 C1070 1.396 . S
C1071 C1072 1.399 . S
C1072 H1058 0.929 . S
C1072 C1071 1.399 . S
C1072 C1073 1.385 . S
C1073 H1059 0.931 . S
C1073 C1072 1.385 . S
C1073 C1074 1.389 . S
C1074 C1073 1.389 . S
C1074 C1075 1.387 . S
C1075 H1060 0.930 . S
C1075 C1070 1.390 . S
C1075 C1074 1.387 . S
H1076 C1088 0.930 . S
H1077 C1090 0.930 . S
H1078 C1091 0.930 . S
H1079 C1095 0.959 . S
H1080 C1095 0.959 . S
H1081 C1095 0.961 . S
H1082 C1096 0.960 . S
H1083 C1096 0.961 . S
H1084 C1096 0.959 . S
H1085 C1099 0.929 . S
H1086 C1100 0.931 . S
H1087 C1102 0.930 . S
C1088 H1076 0.930 . S
C1088 C1089 1.399 . S
C1088 C1093 1.399 . S
C1089 C1088 1.399 . S
C1089 C1090 1.376 . S
C1090 H1077 0.930 . S
C1090 C1089 1.376 . S
C1090 C1091 1.388 . S
C1091 H1078 0.930 . S
C1091 C1090 1.388 . S
C1091 C1092 1.390 1_655 S
C1092 C1091 1.390 1_455 S
C1092 C1093 1.394 1_455 S
C1092 C1098 1.465 . S
C1093 C1088 1.399 . S
C1093 C1092 1.394 1_655 S
C1093 C1094 1.516 1_655 S
C1094 C1093 1.516 1_455 S
C1094 C1095 1.502 . S
C1094 C1096 1.561 1_556 S
C1094 C1097 1.526 . S
C1095 H1079 0.959 . S
C1095 H1080 0.959 . S
C1095 H1081 0.961 . S
C1095 C1094 1.502 . S
C1096 H1082 0.960 . S
C1096 H1083 0.961 . S
C1096 H1084 0.959 . S
C1096 C1094 1.561 1_554 S
C1097 C1094 1.526 . S
C1097 C1098 1.396 . S
C1097 C1102 1.390 . S
C1098 C1092 1.465 . S
C1098 C1097 1.396 . S
C1098 C1099 1.399 . S
C1099 H1085 0.929 . S
C1099 C1098 1.399 . S
C1099 C1100 1.385 . S
C1100 H1086 0.931 . S
C1100 C1099 1.385 . S
C1100 C1101 1.389 . S
C1101 C1100 1.389 . S
C1101 C1102 1.387 . S
C1102 H1087 0.930 . S
C1102 C1097 1.390 . S
C1102 C1101 1.387 . S
H1103 C1115 0.930 . S
H1104 C1117 0.930 . S
H1105 C1118 0.930 . S
H1106 C1122 0.959 . S
H1107 C1122 0.959 . S
H1108 C1122 0.961 . S
H1109 C1123 0.960 . S
H1110 C1123 0.961 . S
H1111 C1123 0.959 . S
H1112 C1126 0.929 . S
H1113 C1127 0.931 . S
H1114 C1129 0.930 . S
C1115 H1103 0.930 . S
C1115 C1116 1.399 . S
C1115 C1120 1.399 . S
C1116 C1115 1.399 . S
C1116 C1117 1.376 . S
C1117 H1104 0.930 . S
C1117 C1116 1.376 . S
C1117 C1118 1.388 . S
C1118 H1105 0.930 . S
C1118 C1117 1.388 . S
C1118 C1119 1.390 . S
C1119 C1118 1.390 . S
C1119 C1120 1.394 . S
C1119 C1125 1.465 . S
C1120 C1115 1.399 . S
C1120 C1119 1.394 . S
C1120 C1121 1.516 . S
C1121 C1120 1.516 . S
C1121 C1122 1.502 . S
C1121 C1123 1.561 . S
C1121 C1124 1.526 . S
C1122 H1106 0.959 . S
C1122 H1107 0.959 . S
C1122 H1108 0.961 . S
C1122 C1121 1.502 . S
C1123 H1109 0.960 . S
C1123 H1110 0.961 . S
C1123 H1111 0.959 . S
C1123 C1121 1.561 . S
C1124 C1121 1.526 . S
C1124 C1125 1.396 . S
C1124 C1129 1.390 . S
C1125 C1119 1.465 . S
C1125 C1124 1.396 . S
C1125 C1126 1.399 . S
C1126 H1112 0.929 . S
C1126 C1125 1.399 . S
C1126 C1127 1.385 . S
C1127 H1113 0.931 . S
C1127 C1126 1.385 . S
C1127 C1128 1.389 . S
C1128 C1127 1.389 . S
C1128 C1129 1.387 . S
C1129 H1114 0.930 . S
C1129 C1124 1.390 . S
C1129 C1128 1.387 . S
H1130 C1142 0.930 . S
H1131 C1144 0.930 . S
H1132 C1145 0.930 . S
H1133 C1149 0.959 . S
H1134 C1149 0.959 . S
H1135 C1149 0.961 . S
H1136 C1150 0.960 . S
H1137 C1150 0.961 . S
H1138 C1150 0.959 . S
H1139 C1153 0.929 . S
H1140 C1154 0.931 . S
H1141 C1156 0.930 . S
C1142 H1130 0.930 . S
C1142 C1143 1.399 . S
C1142 C1147 1.399 . S
C1143 C1142 1.399 . S
C1143 C1144 1.376 . S
C1144 H1131 0.930 . S
C1144 C1143 1.376 . S
C1144 C1145 1.388 . S
C1145 H1132 0.930 . S
C1145 C1144 1.388 . S
C1145 C1146 1.390 . S
C1146 C1145 1.390 . S
C1146 C1147 1.394 . S
C1146 C1152 1.465 . S
C1147 C1142 1.399 . S
C1147 C1146 1.394 . S
C1147 C1148 1.516 . S
C1148 C1147 1.516 . S
C1148 C1149 1.502 . S
C1148 C1150 1.561 . S
C1148 C1151 1.526 . S
C1149 H1133 0.959 . S
C1149 H1134 0.959 . S
C1149 H1135 0.961 . S
C1149 C1148 1.502 . S
C1150 H1136 0.960 . S
C1150 H1137 0.961 . S
C1150 H1138 0.959 . S
C1150 C1148 1.561 . S
C1151 C1148 1.526 . S
C1151 C1152 1.396 . S
C1151 C1156 1.390 . S
C1152 C1146 1.465 . S
C1152 C1151 1.396 . S
C1152 C1153 1.399 . S
C1153 H1139 0.929 . S
C1153 C1152 1.399 . S
C1153 C1154 1.385 . S
C1154 H1140 0.931 . S
C1154 C1153 1.385 . S
C1154 C1155 1.389 . S
C1155 C1154 1.389 . S
C1155 C1156 1.387 . S
C1156 H1141 0.930 . S
C1156 C1151 1.390 . S
C1156 C1155 1.387 . S
H1157 C1169 0.930 . S
H1158 C1171 0.930 . S
H1159 C1172 0.930 . S
H1160 C1176 0.959 . S
H1161 C1176 0.959 . S
H1162 C1176 0.961 1_455 S
H1163 C1177 0.960 1_556 S
H1164 C1177 0.961 1_556 S
H1165 C1177 0.959 . S
H1166 C1180 0.929 . S
H1167 C1181 0.931 . S
H1168 C1183 0.930 1_556 S
C1169 H1157 0.930 . S
C1169 C1170 1.399 . S
C1169 C1174 1.399 . S
C1170 C1169 1.399 . S
C1170 C1171 1.376 . S
C1171 H1158 0.930 . S
C1171 C1170 1.376 . S
C1171 C1172 1.388 . S
C1172 H1159 0.930 . S
C1172 C1171 1.388 . S
C1172 C1173 1.390 1_455 S
C1173 C1172 1.390 1_655 S
C1173 C1174 1.394 1_655 S
C1173 C1179 1.465 . S
C1174 C1169 1.399 . S
C1174 C1173 1.394 1_455 S
C1174 C1175 1.516 1_455 S
C1175 C1174 1.516 1_655 S
C1175 C1176 1.502 1_554 S
C1175 C1177 1.561 . S
C1175 C1178 1.526 . S
C1176 H1160 0.959 . S
C1176 H1161 0.959 . S
C1176 H1162 0.961 1_655 S
C1176 C1175 1.502 1_556 S
C1177 H1163 0.960 1_554 S
C1177 H1164 0.961 1_554 S
C1177 H1165 0.959 . S
C1177 C1175 1.561 . S
C1178 C1175 1.526 . S
C1178 C1179 1.396 . S
C1178 C1183 1.390 . S
C1179 C1173 1.465 . S
C1179 C1178 1.396 . S
C1179 C1180 1.399 . S
C1180 H1166 0.929 . S
C1180 C1179 1.399 . S
C1180 C1181 1.385 . S
C1181 H1167 0.931 . S
C1181 C1180 1.385 . S
C1181 C1182 1.389 . S
C1182 C1181 1.389 . S
C1182 C1183 1.387 . S
C1183 H1168 0.930 1_554 S
C1183 C1178 1.390 . S
C1183 C1182 1.387 . S
H1184 C1196 0.930 . S
H1185 C1198 0.930 . S
H1186 C1199 0.930 . S
H1187 C1203 0.959 . S
H1188 C1203 0.959 . S
H1189 C1203 0.961 . S
H1190 C1204 0.960 . S
H1191 C1204 0.961 . S
H1192 C1204 0.959 . S
H1193 C1207 0.929 . S
H1194 C1208 0.931 . S
H1195 C1210 0.930 . S
C1196 H1184 0.930 . S
C1196 C1197 1.399 . S
C1196 C1201 1.399 . S
C1197 C1196 1.399 . S
C1197 C1198 1.376 . S
C1198 H1185 0.930 . S
C1198 C1197 1.376 . S
C1198 C1199 1.388 . S
C1199 H1186 0.930 . S
C1199 C1198 1.388 . S
C1199 C1200 1.390 . S
C1200 C1199 1.390 . S
C1200 C1201 1.394 . S
C1200 C1206 1.465 . S
C1201 C1196 1.399 . S
C1201 C1200 1.394 . S
C1201 C1202 1.516 1_554 S
C1202 C1201 1.516 1_556 S
C1202 C1203 1.502 . S
C1202 C1204 1.561 . S
C1202 C1205 1.526 1_556 S
C1203 H1187 0.959 . S
C1203 H1188 0.959 . S
C1203 H1189 0.961 . S
C1203 C1202 1.502 . S
C1204 H1190 0.960 . S
C1204 H1191 0.961 . S
C1204 H1192 0.959 . S
C1204 C1202 1.561 . S
C1205 C1202 1.526 1_554 S
C1205 C1206 1.396 . S
C1205 C1210 1.390 1_554 S
C1206 C1200 1.465 . S
C1206 C1205 1.396 . S
C1206 C1207 1.399 . S
C1207 H1193 0.929 . S
C1207 C1206 1.399 . S
C1207 C1208 1.385 . S
C1208 H1194 0.931 . S
C1208 C1207 1.385 . S
C1208 C1209 1.389 . S
C1209 C1208 1.389 . S
C1209 C1210 1.387 1_554 S
C1210 H1195 0.930 . S
C1210 C1205 1.390 1_556 S
C1210 C1209 1.387 1_556 S
H1211 C1223 0.930 . S
H1212 C1225 0.930 . S
H1213 C1226 0.930 . S
H1214 C1230 0.959 . S
H1215 C1230 0.959 . S
H1216 C1230 0.961 . S
H1217 C1231 0.960 . S
H1218 C1231 0.961 . S
H1219 C1231 0.959 . S
H1220 C1234 0.929 . S
H1221 C1235 0.931 . S
H1222 C1237 0.930 . S
C1223 H1211 0.930 . S
C1223 C1224 1.399 . S
C1223 C1228 1.399 . S
C1224 C1223 1.399 . S
C1224 C1225 1.376 . S
C1225 H1212 0.930 . S
C1225 C1224 1.376 . S
C1225 C1226 1.388 . S
C1226 H1213 0.930 . S
C1226 C1225 1.388 . S
C1226 C1227 1.390 . S
C1227 C1226 1.390 . S
C1227 C1228 1.394 . S
C1227 C1233 1.465 . S
C1228 C1223 1.399 . S
C1228 C1227 1.394 . S
C1228 C1229 1.516 . S
C1229 C1228 1.516 . S
C1229 C1230 1.502 . S
C1229 C1231 1.561 . S
C1229 C1232 1.526 . S
C1230 H1214 0.959 . S
C1230 H1215 0.959 . S
C1230 H1216 0.961 . S
C1230 C1229 1.502 . S
C1231 H1217 0.960 . S
C1231 H1218 0.961 . S
C1231 H1219 0.959 . S
C1231 C1229 1.561 . S
C1232 C1229 1.526 . S
C1232 C1233 1.396 . S
C1232 C1237 1.390 . S
C1233 C1227 1.465 . S
C1233 C1232 1.396 . S
C1233 C1234 1.399 . S
C1234 H1220 0.929 . S
C1234 C1233 1.399 . S
C1234 C1235 1.385 . S
C1235 H1221 0.931 . S
C1235 C1234 1.385 . S
C1235 C1236 1.389 . S
C1236 C1235 1.389 . S
C1236 C1237 1.387 . S
C1237 H1222 0.930 . S
C1237 C1232 1.390 . S
C1237 C1236 1.387 . S
H1238 C1250 0.930 . S
H1239 C1252 0.930 . S
H1240 C1253 0.930 . S
H1241 C1257 0.959 . S
H1242 C1257 0.959 . S
H1243 C1257 0.961 . S
H1244 C1258 0.960 . S
H1245 C1258 0.961 . S
H1246 C1258 0.959 . S
H1247 C1261 0.929 . S
H1248 C1262 0.931 . S
H1249 C1264 0.930 . S
C1250 H1238 0.930 . S
C1250 C1251 1.399 . S
C1250 C1255 1.399 . S
C1251 C1250 1.399 . S
C1251 C1252 1.376 . S
C1252 H1239 0.930 . S
C1252 C1251 1.376 . S
C1252 C1253 1.388 . S
C1253 H1240 0.930 . S
C1253 C1252 1.388 . S
C1253 C1254 1.390 . S
C1254 C1253 1.390 . S
C1254 C1255 1.394 . S
C1254 C1260 1.465 . S
C1255 C1250 1.399 . S
C1255 C1254 1.394 . S
C1255 C1256 1.516 . S
C1256 C1255 1.516 . S
C1256 C1257 1.502 . S
C1256 C1258 1.561 . S
C1256 C1259 1.526 . S
C1257 H1241 0.959 . S
C1257 H1242 0.959 . S
C1257 H1243 0.961 . S
C1257 C1256 1.502 . S
C1258 H1244 0.960 . S
C1258 H1245 0.961 . S
C1258 H1246 0.959 . S
C1258 C1256 1.561 . S
C1259 C1256 1.526 . S
C1259 C1260 1.396 . S
C1259 C1264 1.390 . S
C1260 C1254 1.465 . S
C1260 C1259 1.396 . S
C1260 C1261 1.399 . S
C1261 H1247 0.929 . S
C1261 C1260 1.399 . S
C1261 C1262 1.385 . S
C1262 H1248 0.931 . S
C1262 C1261 1.385 . S
C1262 C1263 1.389 . S
C1263 C1262 1.389 . S
C1263 C1264 1.387 . S
C1264 H1249 0.930 . S
C1264 C1259 1.390 . S
C1264 C1263 1.387 . S
H1265 C1277 0.930 . S
H1266 C1279 0.930 . S
H1267 C1280 0.930 . S
H1268 C1284 0.959 . S
H1269 C1284 0.959 . S
H1270 C1284 0.961 . S
H1271 C1285 0.960 . S
H1272 C1285 0.961 . S
H1273 C1285 0.959 . S
H1274 C1288 0.929 . S
H1275 C1289 0.931 . S
H1276 C1291 0.930 . S
C1277 H1265 0.930 . S
C1277 C1278 1.399 . S
C1277 C1282 1.399 . S
C1278 C1277 1.399 . S
C1278 C1279 1.376 . S
C1279 H1266 0.930 . S
C1279 C1278 1.376 . S
C1279 C1280 1.388 . S
C1280 H1267 0.930 . S
C1280 C1279 1.388 . S
C1280 C1281 1.390 . S
C1281 C1280 1.390 . S
C1281 C1282 1.394 . S
C1281 C1287 1.465 . S
C1282 C1277 1.399 . S
C1282 C1281 1.394 . S
C1282 C1283 1.516 . S
C1283 C1282 1.516 . S
C1283 C1284 1.502 . S
C1283 C1285 1.561 . S
C1283 C1286 1.526 . S
C1284 H1268 0.959 . S
C1284 H1269 0.959 . S
C1284 H1270 0.961 . S
C1284 C1283 1.502 . S
C1285 H1271 0.960 . S
C1285 H1272 0.961 . S
C1285 H1273 0.959 . S
C1285 C1283 1.561 . S
C1286 C1283 1.526 . S
C1286 C1287 1.396 . S
C1286 C1291 1.390 . S
C1287 C1281 1.465 . S
C1287 C1286 1.396 . S
C1287 C1288 1.399 . S
C1288 H1274 0.929 . S
C1288 C1287 1.399 . S
C1288 C1289 1.385 . S
C1289 H1275 0.931 . S
C1289 C1288 1.385 . S
C1289 C1290 1.389 . S
C1290 C1289 1.389 . S
C1290 C1291 1.387 . S
C1291 H1276 0.930 . S
C1291 C1286 1.390 . S
C1291 C1290 1.387 . S
H1292 C1304 0.930 . S
H1293 C1306 0.930 . S
H1294 C1307 0.930 . S
H1295 C1311 0.963 . S
H1296 C1311 0.959 . S
H1297 C1311 0.961 . S
H1298 C1312 0.960 . S
H1299 C1312 0.961 . S
H1300 C1312 0.959 . S
H1301 C1315 0.929 . S
H1302 C1316 0.931 . S
H1303 C1318 0.930 . S
C1304 H1292 0.930 . S
C1304 C1305 1.399 . S
C1304 C1309 1.399 . S
C1305 C1304 1.399 . S
C1305 C1306 1.376 . S
C1306 H1293 0.930 . S
C1306 C1305 1.376 . S
C1306 C1307 1.388 . S
C1307 H1294 0.930 . S
C1307 C1306 1.388 . S
C1307 C1308 1.390 . S
C1308 C1307 1.390 . S
C1308 C1309 1.394 . S
C1308 C1314 1.465 . S
C1309 C1304 1.399 . S
C1309 C1308 1.394 . S
C1309 C1310 1.516 . S
C1310 C1309 1.516 . S
C1310 C1311 1.502 . S
C1310 C1312 1.561 . S
C1310 C1313 1.526 . S
C1311 H1295 0.963 . S
C1311 H1296 0.959 . S
C1311 H1297 0.961 . S
C1311 C1310 1.502 . S
C1312 H1298 0.960 . S
C1312 H1299 0.961 . S
C1312 H1300 0.959 . S
C1312 C1310 1.561 . S
C1313 C1310 1.526 . S
C1313 C1314 1.396 . S
C1313 C1318 1.390 . S
C1314 C1308 1.465 . S
C1314 C1313 1.396 . S
C1314 C1315 1.399 . S
C1315 H1301 0.929 . S
C1315 C1314 1.399 . S
C1315 C1316 1.385 . S
C1316 H1302 0.931 . S
C1316 C1315 1.385 . S
C1316 C1317 1.389 . S
C1317 C1316 1.389 . S
C1317 C1318 1.387 . S
C1318 H1303 0.930 . S
C1318 C1313 1.390 . S
C1318 C1317 1.387 . S
H1319 C1331 0.930 . S
H1320 C1333 0.930 . S
H1321 C1334 0.930 . S
H1322 C1338 0.959 . S
H1323 C1338 0.959 . S
H1324 C1338 0.961 . S
H1325 C1339 0.960 . S
H1326 C1339 0.961 . S
H1327 C1339 0.959 . S
H1328 C1342 0.929 . S
H1329 C1343 0.931 . S
H1330 C1345 0.930 . S
C1331 H1319 0.930 . S
C1331 C1332 1.399 . S
C1331 C1336 1.399 . S
C1332 C1331 1.399 . S
C1332 C1333 1.376 . S
C1333 H1320 0.930 . S
C1333 C1332 1.376 . S
C1333 C1334 1.388 . S
C1334 H1321 0.930 . S
C1334 C1333 1.388 . S
C1334 C1335 1.390 . S
C1335 C1334 1.390 . S
C1335 C1336 1.394 . S
C1335 C1341 1.465 . S
C1336 C1331 1.399 . S
C1336 C1335 1.394 . S
C1336 C1337 1.516 . S
C1337 C1336 1.516 . S
C1337 C1338 1.502 . S
C1337 C1339 1.561 . S
C1337 C1340 1.526 . S
C1338 H1322 0.959 . S
C1338 H1323 0.959 . S
C1338 H1324 0.961 . S
C1338 C1337 1.502 . S
C1339 H1325 0.960 . S
C1339 H1326 0.961 . S
C1339 H1327 0.959 . S
C1339 C1337 1.561 . S
C1340 C1337 1.526 . S
C1340 C1341 1.396 . S
C1340 C1345 1.390 . S
C1341 C1335 1.465 . S
C1341 C1340 1.396 . S
C1341 C1342 1.399 . S
C1342 H1328 0.929 . S
C1342 C1341 1.399 . S
C1342 C1343 1.385 . S
C1343 H1329 0.931 . S
C1343 C1342 1.385 . S
C1343 C1344 1.389 . S
C1344 C1343 1.389 . S
C1344 C1345 1.387 . S
C1345 H1330 0.930 . S
C1345 C1340 1.390 . S
C1345 C1344 1.387 . S
H1346 C1358 0.930 . S
H1347 C1360 0.930 . S
H1348 C1361 0.930 . S
H1349 C1365 0.959 . S
H1350 C1365 0.959 . S
H1351 C1365 0.961 . S
H1352 C1366 0.960 . S
H1353 C1366 0.961 . S
H1354 C1366 0.959 . S
H1355 C1369 0.929 . S
H1356 C1370 0.931 . S
H1357 C1372 0.930 . S
C1358 H1346 0.930 . S
C1358 C1359 1.399 . S
C1358 C1363 1.399 . S
C1359 C1358 1.399 . S
C1359 C1360 1.376 . S
C1360 H1347 0.930 . S
C1360 C1359 1.376 . S
C1360 C1361 1.388 . S
C1361 H1348 0.930 . S
C1361 C1360 1.388 . S
C1361 C1362 1.390 . S
C1362 C1361 1.390 . S
C1362 C1363 1.394 . S
C1362 C1368 1.465 . S
C1363 C1358 1.399 . S
C1363 C1362 1.394 . S
C1363 C1364 1.516 . S
C1364 C1363 1.516 . S
C1364 C1365 1.502 . S
C1364 C1366 1.561 . S
C1364 C1367 1.526 . S
C1365 H1349 0.959 . S
C1365 H1350 0.959 . S
C1365 H1351 0.961 . S
C1365 C1364 1.502 . S
C1366 H1352 0.960 . S
C1366 H1353 0.961 . S
C1366 H1354 0.959 . S
C1366 C1364 1.561 . S
C1367 C1364 1.526 . S
C1367 C1368 1.396 . S
C1367 C1372 1.390 . S
C1368 C1362 1.465 . S
C1368 C1367 1.396 . S
C1368 C1369 1.399 . S
C1369 H1355 0.929 . S
C1369 C1368 1.399 . S
C1369 C1370 1.385 . S
C1370 H1356 0.931 . S
C1370 C1369 1.385 . S
C1370 C1371 1.389 . S
C1371 C1370 1.389 . S
C1371 C1372 1.387 . S
C1372 H1357 0.930 . S
C1372 C1367 1.390 . S
C1372 C1371 1.387 . S
H1373 C1385 0.930 . S
H1374 C1387 0.930 . S
H1375 C1388 0.930 . S
H1376 C1392 0.959 . S
H1377 C1392 0.959 . S
H1378 C1392 0.961 . S
H1379 C1393 0.960 . S
H1380 C1393 0.961 . S
H1381 C1393 0.959 . S
H1382 C1396 0.929 . S
H1383 C1397 0.931 . S
H1384 C1399 0.930 . S
C1385 H1373 0.930 . S
C1385 C1386 1.399 . S
C1385 C1390 1.399 . S
C1386 C1385 1.399 . S
C1386 C1387 1.376 . S
C1387 H1374 0.930 . S
C1387 C1386 1.376 . S
C1387 C1388 1.388 . S
C1388 H1375 0.930 . S
C1388 C1387 1.388 . S
C1388 C1389 1.390 . S
C1389 C1388 1.390 . S
C1389 C1390 1.394 . S
C1389 C1395 1.465 . S
C1390 C1385 1.399 . S
C1390 C1389 1.394 . S
C1390 C1391 1.516 . S
C1391 C1390 1.516 . S
C1391 C1392 1.502 . S
C1391 C1393 1.561 . S
C1391 C1394 1.526 . S
C1392 H1376 0.959 . S
C1392 H1377 0.959 . S
C1392 H1378 0.961 . S
C1392 C1391 1.502 . S
C1393 H1379 0.960 . S
C1393 H1380 0.961 . S
C1393 H1381 0.959 . S
C1393 C1391 1.561 . S
C1394 C1391 1.526 . S
C1394 C1395 1.396 . S
C1394 C1399 1.390 . S
C1395 C1389 1.465 . S
C1395 C1394 1.396 . S
C1395 C1396 1.399 . S
C1396 H1382 0.929 . S
C1396 C1395 1.399 . S
C1396 C1397 1.385 . S
C1397 H1383 0.931 . S
C1397 C1396 1.385 . S
C1397 C1398 1.389 . S
C1398 C1397 1.389 . S
C1398 C1399 1.387 . S
C1399 H1384 0.930 . S
C1399 C1394 1.390 . S
C1399 C1398 1.387 . S
H1400 C1412 0.930 . S
H1401 C1414 0.930 . S
H1402 C1415 0.930 1_545 S
H1403 C1419 0.959 1_545 S
H1404 C1419 0.959 1_545 S
H1405 C1419 0.961 . S
H1406 C1420 0.960 . S
H1407 C1420 0.961 1_545 S
H1408 C1420 0.959 . S
H1409 C1423 0.929 . S
H1410 C1424 0.931 . S
H1411 C1426 0.930 . S
C1412 H1400 0.930 . S
C1412 C1413 1.399 . S
C1412 C1417 1.399 . S
C1413 C1412 1.399 . S
C1413 C1414 1.376 . S
C1414 H1401 0.930 . S
C1414 C1413 1.376 . S
C1414 C1415 1.388 . S
C1415 H1402 0.930 1_565 S
C1415 C1414 1.388 . S
C1415 C1416 1.390 1_565 S
C1416 C1415 1.390 1_545 S
C1416 C1417 1.394 1_545 S
C1416 C1422 1.465 . S
C1417 C1412 1.399 . S
C1417 C1416 1.394 1_565 S
C1417 C1418 1.516 1_565 S
C1418 C1417 1.516 1_545 S
C1418 C1419 1.502 1_545 S
C1418 C1420 1.561 1_545 S
C1418 C1421 1.526 . S
C1419 H1403 0.959 1_565 S
C1419 H1404 0.959 1_565 S
C1419 H1405 0.961 . S
C1419 C1418 1.502 1_565 S
C1420 H1406 0.960 . S
C1420 H1407 0.961 1_565 S
C1420 H1408 0.959 . S
C1420 C1418 1.561 1_565 S
C1421 C1418 1.526 . S
C1421 C1422 1.396 . S
C1421 C1426 1.390 . S
C1422 C1416 1.465 . S
C1422 C1421 1.396 . S
C1422 C1423 1.399 . S
C1423 H1409 0.929 . S
C1423 C1422 1.399 . S
C1423 C1424 1.385 . S
C1424 H1410 0.931 . S
C1424 C1423 1.385 . S
C1424 C1425 1.389 . S
C1425 C1424 1.389 . S
C1425 C1426 1.387 . S
C1426 H1411 0.930 . S
C1426 C1421 1.390 . S
C1426 C1425 1.387 . S
H1427 C1439 0.930 . S
H1428 C1441 0.930 . S
H1429 C1442 0.930 . S
H1430 C1446 0.959 . S
H1431 C1446 0.959 . S
H1432 C1446 0.961 . S
H1433 C1447 0.960 . S
H1434 C1447 0.961 . S
H1435 C1447 0.959 . S
H1436 C1450 0.929 . S
H1437 C1451 0.931 . S
H1438 C1453 0.930 . S
C1439 H1427 0.930 . S
C1439 C1440 1.399 . S
C1439 C1444 1.399 . S
C1440 C1439 1.399 . S
C1440 C1441 1.376 . S
C1441 H1428 0.930 . S
C1441 C1440 1.376 . S
C1441 C1442 1.388 . S
C1442 H1429 0.930 . S
C1442 C1441 1.388 . S
C1442 C1443 1.390 . S
C1443 C1442 1.390 . S
C1443 C1444 1.394 . S
C1443 C1449 1.465 . S
C1444 C1439 1.399 . S
C1444 C1443 1.394 . S
C1444 C1445 1.516 . S
C1445 C1444 1.516 . S
C1445 C1446 1.502 . S
C1445 C1447 1.561 . S
C1445 C1448 1.526 . S
C1446 H1430 0.959 . S
C1446 H1431 0.959 . S
C1446 H1432 0.961 . S
C1446 C1445 1.502 . S
C1447 H1433 0.960 . S
C1447 H1434 0.961 . S
C1447 H1435 0.959 . S
C1447 C1445 1.561 . S
C1448 C1445 1.526 . S
C1448 C1449 1.396 . S
C1448 C1453 1.390 . S
C1449 C1443 1.465 . S
C1449 C1448 1.396 . S
C1449 C1450 1.399 . S
C1450 H1436 0.929 . S
C1450 C1449 1.399 . S
C1450 C1451 1.385 . S
C1451 H1437 0.931 . S
C1451 C1450 1.385 . S
C1451 C1452 1.389 . S
C1452 C1451 1.389 . S
C1452 C1453 1.387 . S
C1453 H1438 0.930 . S
C1453 C1448 1.390 . S
C1453 C1452 1.387 . S
H1454 C1466 0.930 . S
H1455 C1468 0.930 . S
H1456 C1469 0.930 . S
H1457 C1473 0.959 . S
H1458 C1473 0.959 . S
H1459 C1473 0.961 . S
H1460 C1474 0.960 . S
H1461 C1474 0.961 . S
H1462 C1474 0.959 . S
H1463 C1477 0.929 . S
H1464 C1478 0.931 . S
H1465 C1480 0.930 . S
C1466 H1454 0.930 . S
C1466 C1467 1.399 . S
C1466 C1471 1.399 . S
C1467 C1466 1.399 . S
C1467 C1468 1.376 . S
C1468 H1455 0.930 . S
C1468 C1467 1.376 . S
C1468 C1469 1.388 . S
C1469 H1456 0.930 . S
C1469 C1468 1.388 . S
C1469 C1470 1.390 . S
C1470 C1469 1.390 . S
C1470 C1471 1.394 . S
C1470 C1476 1.465 1_565 S
C1471 C1466 1.399 . S
C1471 C1470 1.394 . S
C1471 C1472 1.508 1_554 S
C1472 C1471 1.508 1_556 S
C1472 C1473 1.507 . S
C1472 C1474 1.567 . S
C1472 C1475 1.522 1_566 S
C1473 H1457 0.959 . S
C1473 H1458 0.959 . S
C1473 H1459 0.961 . S
C1473 C1472 1.507 . S
C1474 H1460 0.960 . S
C1474 H1461 0.961 . S
C1474 H1462 0.959 . S
C1474 C1472 1.567 . S
C1475 C1472 1.522 1_544 S
C1475 C1476 1.396 . S
C1475 C1480 1.390 1_554 S
C1476 C1470 1.465 1_545 S
C1476 C1475 1.396 . S
C1476 C1477 1.399 . S
C1477 H1463 0.929 . S
C1477 C1476 1.399 . S
C1477 C1478 1.385 . S
C1478 H1464 0.931 . S
C1478 C1477 1.385 . S
C1478 C1479 1.389 . S
C1479 C1478 1.389 . S
C1479 C1480 1.387 1_554 S
C1480 H1465 0.930 . S
C1480 C1475 1.390 1_556 S
C1480 C1479 1.387 1_556 S
H1481 C1493 0.930 . S
H1482 C1495 0.930 . S
H1483 C1496 0.930 . S
H1484 C1500 0.959 . S
H1485 C1500 0.959 . S
H1486 C1500 0.961 . S
H1487 C1501 0.960 . S
H1488 C1501 0.961 . S
H1489 C1501 0.959 . S
H1490 C1504 0.929 . S
H1491 C1505 0.931 . S
H1492 C1507 0.930 . S
C1493 H1481 0.930 . S
C1493 C1494 1.399 . S
C1493 C1498 1.399 . S
C1494 C1493 1.399 . S
C1494 C1495 1.376 . S
C1495 H1482 0.930 . S
C1495 C1494 1.376 . S
C1495 C1496 1.388 . S
C1496 H1483 0.930 . S
C1496 C1495 1.388 . S
C1496 C1497 1.390 . S
C1497 C1496 1.390 . S
C1497 C1498 1.394 . S
C1497 C1503 1.465 . S
C1498 C1493 1.399 . S
C1498 C1497 1.394 . S
C1498 C1499 1.516 . S
C1499 C1498 1.516 . S
C1499 C1500 1.502 . S
C1499 C1501 1.561 . S
C1499 C1502 1.526 . S
C1500 H1484 0.959 . S
C1500 H1485 0.959 . S
C1500 H1486 0.961 . S
C1500 C1499 1.502 . S
C1501 H1487 0.960 . S
C1501 H1488 0.961 . S
C1501 H1489 0.959 . S
C1501 C1499 1.561 . S
C1502 C1499 1.526 . S
C1502 C1503 1.396 . S
C1502 C1507 1.390 . S
C1503 C1497 1.465 . S
C1503 C1502 1.396 . S
C1503 C1504 1.399 . S
C1504 H1490 0.929 . S
C1504 C1503 1.399 . S
C1504 C1505 1.385 . S
C1505 H1491 0.931 . S
C1505 C1504 1.385 . S
C1505 C1506 1.389 . S
C1506 C1505 1.389 . S
C1506 C1507 1.387 . S
C1507 H1492 0.930 . S
C1507 C1502 1.390 . S
C1507 C1506 1.387 . S
H1508 C1520 0.930 . S
H1509 C1522 0.930 . S
H1510 C1523 0.930 1_545 S
H1511 C1527 0.959 . S
H1512 C1527 0.961 . S
H1513 C1527 0.961 . S
H1514 C1528 0.960 . S
H1515 C1528 0.961 . S
H1516 C1528 0.959 . S
H1517 C1531 0.929 . S
H1518 C1532 0.931 . S
H1519 C1534 0.930 . S
C1520 H1508 0.930 . S
C1520 C1521 1.399 . S
C1520 C1525 1.399 . S
C1521 C1520 1.399 . S
C1521 C1522 1.376 . S
C1522 H1509 0.930 . S
C1522 C1521 1.376 . S
C1522 C1523 1.388 . S
C1523 H1510 0.930 1_565 S
C1523 C1522 1.388 . S
C1523 C1524 1.390 1_565 S
C1524 C1523 1.390 1_545 S
C1524 C1525 1.394 1_545 S
C1524 C1530 1.465 . S
C1525 C1520 1.399 . S
C1525 C1524 1.394 1_565 S
C1525 C1526 1.516 . S
C1526 C1525 1.516 . S
C1526 C1527 1.502 . S
C1526 C1528 1.561 . S
C1526 C1529 1.526 1_565 S
C1527 H1511 0.959 . S
C1527 H1512 0.961 . S
C1527 H1513 0.961 . S
C1527 C1526 1.502 . S
C1528 H1514 0.960 . S
C1528 H1515 0.961 . S
C1528 H1516 0.959 . S
C1528 C1526 1.561 . S
C1529 C1526 1.526 1_545 S
C1529 C1530 1.396 . S
C1529 C1534 1.390 . S
C1530 C1524 1.465 . S
C1530 C1529 1.396 . S
C1530 C1531 1.399 . S
C1531 H1517 0.929 . S
C1531 C1530 1.399 . S
C1531 C1532 1.385 . S
C1532 H1518 0.931 . S
C1532 C1531 1.385 . S
C1532 C1533 1.389 . S
C1533 C1532 1.389 . S
C1533 C1534 1.387 . S
C1534 H1519 0.930 . S
C1534 C1529 1.390 . S
C1534 C1533 1.387 . S
H1535 C1547 0.930 . S
H1536 C1549 0.930 . S
H1537 C1550 0.930 . S
H1538 C1554 0.959 . S
H1539 C1554 0.959 . S
H1540 C1554 0.961 . S
H1541 C1555 0.960 . S
H1542 C1555 0.961 . S
H1543 C1555 0.959 . S
H1544 C1558 0.929 . S
H1545 C1559 0.931 . S
H1546 C1561 0.930 . S
C1547 H1535 0.930 . S
C1547 C1548 1.399 . S
C1547 C1552 1.399 . S
C1548 C1547 1.399 . S
C1548 C1549 1.376 . S
C1549 H1536 0.930 . S
C1549 C1548 1.376 . S
C1549 C1550 1.388 . S
C1550 H1537 0.930 . S
C1550 C1549 1.388 . S
C1550 C1551 1.390 . S
C1551 C1550 1.390 . S
C1551 C1552 1.394 . S
C1551 C1557 1.465 . S
C1552 C1547 1.399 . S
C1552 C1551 1.394 . S
C1552 C1553 1.516 . S
C1553 C1552 1.516 . S
C1553 C1554 1.502 . S
C1553 C1555 1.561 . S
C1553 C1556 1.526 . S
C1554 H1538 0.959 . S
C1554 H1539 0.959 . S
C1554 H1540 0.961 . S
C1554 C1553 1.502 . S
C1555 H1541 0.960 . S
C1555 H1542 0.961 . S
C1555 H1543 0.959 . S
C1555 C1553 1.561 . S
C1556 C1553 1.526 . S
C1556 C1557 1.396 . S
C1556 C1561 1.390 . S
C1557 C1551 1.465 . S
C1557 C1556 1.396 . S
C1557 C1558 1.399 . S
C1558 H1544 0.929 . S
C1558 C1557 1.399 . S
C1558 C1559 1.385 . S
C1559 H1545 0.931 . S
C1559 C1558 1.385 . S
C1559 C1560 1.389 . S
C1560 C1559 1.389 . S
C1560 C1561 1.387 . S
C1561 H1546 0.930 . S
C1561 C1556 1.390 . S
C1561 C1560 1.387 . S
H1562 C1574 0.930 . S
H1563 C1576 0.930 . S
H1564 C1577 0.930 . S
H1565 C1581 0.959 . S
H1566 C1581 0.959 . S
H1567 C1581 0.961 . S
H1568 C1582 0.960 . S
H1569 C1582 0.961 . S
H1570 C1582 0.959 . S
H1571 C1585 0.929 . S
H1572 C1586 0.931 . S
H1573 C1588 0.930 . S
C1574 H1562 0.930 . S
C1574 C1575 1.399 . S
C1574 C1579 1.399 . S
C1575 C1574 1.399 . S
C1575 C1576 1.376 . S
C1576 H1563 0.930 . S
C1576 C1575 1.376 . S
C1576 C1577 1.388 . S
C1577 H1564 0.930 . S
C1577 C1576 1.388 . S
C1577 C1578 1.390 . S
C1578 C1577 1.390 . S
C1578 C1579 1.394 . S
C1578 C1584 1.465 1_545 S
C1579 C1574 1.399 . S
C1579 C1578 1.394 . S
C1579 C1580 1.516 1_556 S
C1580 C1579 1.516 1_554 S
C1580 C1581 1.502 . S
C1580 C1582 1.561 . S
C1580 C1583 1.526 1_545 S
C1581 H1565 0.959 . S
C1581 H1566 0.959 . S
C1581 H1567 0.961 . S
C1581 C1580 1.502 . S
C1582 H1568 0.960 . S
C1582 H1569 0.961 . S
C1582 H1570 0.959 . S
C1582 C1580 1.561 . S
C1583 C1580 1.526 1_565 S
C1583 C1584 1.396 1_554 S
C1583 C1588 1.390 . S
C1584 C1578 1.465 1_565 S
C1584 C1583 1.396 1_556 S
C1584 C1585 1.399 . S
C1585 H1571 0.929 . S
C1585 C1584 1.399 . S
C1585 C1586 1.385 . S
C1586 H1572 0.931 . S
C1586 C1585 1.385 . S
C1586 C1587 1.389 1_556 S
C1587 C1586 1.389 1_554 S
C1587 C1588 1.387 . S
C1588 H1573 0.930 . S
C1588 C1583 1.390 . S
C1588 C1587 1.387 . S
H1589 C1601 0.930 . S
H1590 C1603 0.930 . S
H1591 C1604 0.930 . S
H1592 C1608 0.959 . S
H1593 C1608 0.959 . S
H1594 C1608 0.961 . S
H1595 C1609 0.960 . S
H1596 C1609 0.961 . S
H1597 C1609 0.959 . S
H1598 C1612 0.929 . S
H1599 C1613 0.931 . S
H1600 C1615 0.930 . S
C1601 H1589 0.930 . S
C1601 C1602 1.399 . S
C1601 C1606 1.399 . S
C1602 C1601 1.399 . S
C1602 C1603 1.376 . S
C1603 H1590 0.930 . S
C1603 C1602 1.376 . S
C1603 C1604 1.388 . S
C1604 H1591 0.930 . S
C1604 C1603 1.388 . S
C1604 C1605 1.390 . S
C1605 C1604 1.390 . S
C1605 C1606 1.394 . S
C1605 C1611 1.465 . S
C1606 C1601 1.399 . S
C1606 C1605 1.394 . S
C1606 C1607 1.516 . S
C1607 C1606 1.516 . S
C1607 C1608 1.502 . S
C1607 C1609 1.561 . S
C1607 C1610 1.526 . S
C1608 H1592 0.959 . S
C1608 H1593 0.959 . S
C1608 H1594 0.961 . S
C1608 C1607 1.502 . S
C1609 H1595 0.960 . S
C1609 H1596 0.961 . S
C1609 H1597 0.959 . S
C1609 C1607 1.561 . S
C1610 C1607 1.526 . S
C1610 C1611 1.396 . S
C1610 C1615 1.390 . S
C1611 C1605 1.465 . S
C1611 C1610 1.396 . S
C1611 C1612 1.399 . S
C1612 H1598 0.929 . S
C1612 C1611 1.399 . S
C1612 C1613 1.385 . S
C1613 H1599 0.931 . S
C1613 C1612 1.385 . S
C1613 C1614 1.389 . S
C1614 C1613 1.389 . S
C1614 C1615 1.387 . S
C1615 H1600 0.930 . S
C1615 C1610 1.390 . S
C1615 C1614 1.387 . S
C333 C12 1.584 . S
C345 C9 1.585 . S
C360 C32 1.570 . S
C372 C29 1.542 . S
C387 C52 1.559 . S
C399 C49 1.542 . S
C414 C72 1.579 . S
C426 C69 1.601 . S
C441 C89 1.561 . S
C453 C92 1.576 . S
C468 C112 1.606 . S
C480 C109 1.601 . S
C495 C129 1.585 . S
C507 C132 1.574 . S
C522 C149 1.602 . S
C534 C152 1.579 . S
C549 C169 1.588 . S
C561 C172 1.564 . S
C576 C192 1.531 . S
C588 C189 1.563 . S
C603 C212 1.572 1_556 S
C615 C209 1.568 . S
C630 C229 1.611 . S
C642 C232 1.599 . S
C657 C252 1.575 . S
C669 C249 1.548 . S
C684 C272 1.560 . S
C696 C269 1.586 . S
C711 C292 1.595 . S
C723 C289 1.574 . S
C738 C309 1.619 1_556 S
C750 C312 1.598 . S
C765 C18 1.801 . S
C777 C222 1.765 . S
C792 C38 1.968 . S
C804 C319 1.992 . S
C819 C58 1.408 . S
C831 C182 1.384 . S
C846 C78 1.556 . S
C858 C262 1.572 . S
C873 C84 1.666 . S
C885 C279 1.695 . S
C900 C239 1.775 . S
C912 C104 1.808 . S
C927 C124 1.332 . S
C939 C302 1.382 . S
C954 C144 1.455 . S
C966 C199 1.507 . S
C981 C64 1.691 . S
C993 C179 1.732 . S
C1008 C24 1.792 . S
C1020 C219 1.810 . S
C1035 C242 1.703 . S
C1047 C118 1.679 . S
C1062 C158 1.703 . S
C1074 C282 1.659 . S
C1089 C162 1.492 . S
C1101 C98 1.509 . S
C1116 C138 1.458 . S
C1128 C202 1.461 . S
C1143 C44 1.495 . S
C1155 C299 1.563 . S
C1170 C4 1.583 . S
C1182 C259 1.538 . S
C1197 C19 1.594 . S
C1209 C82 1.494 . S
C1224 C39 1.759 . S
C1236 C102 1.658 . S
C1251 C59 1.350 . S
C1263 C122 1.321 . S
C1278 C79 1.487 . S
C1290 C142 1.458 . S
C1305 C244 1.601 . S
C1317 C178 1.703 . S
C1332 C264 1.351 . S
C1344 C198 1.457 . S
C1359 C218 1.599 . S
C1371 C284 1.565 . S
C1386 C318 1.926 . S
C1398 C238 1.920 . S
C1413 C22 1.737 . S
C1425 C159 1.796 . S
C1440 C99 1.508 . S
C1452 C42 1.474 . S
C1467 C119 1.603 . S
C1479 C62 1.508 . S
C1494 C2 1.248 . S
C1506 C139 1.336 . S
C1521 C304 1.226 . S
C1533 C184 1.126 . S
C1548 C258 1.528 . S
C1560 C204 1.477 . S
C1575 C278 1.702 . S
C1587 C224 1.578 . S
C1602 C298 1.452 . S
C1614 C164 1.352 . S
