# Generated by pormake.
# Topology uos, (4)-cn, num edge types: 1
# Building blocks:
#     Node 0, Type 0, BuildingBlock: CEKHIL_clean_sbu_0, # of connection points: 4
#     Node 1, Type 0, BuildingBlock: CEKHIL_clean_sbu_0, # of connection points: 4
#     Node 2, Type 0, BuildingBlock: CEKHIL_clean_sbu_0, # of connection points: 4
#     Node 3, Type 0, BuildingBlock: CEKHIL_clean_sbu_0, # of connection points: 4
#     Node 4, Type 0, BuildingBlock: CEKHIL_clean_sbu_0, # of connection points: 4
#     Node 5, Type 0, BuildingBlock: CEKHIL_clean_sbu_0, # of connection points: 4
#     Node 6, Type 0, BuildingBlock: CEKHIL_clean_sbu_0, # of connection points: 4
#     Node 7, Type 0, BuildingBlock: CEKHIL_clean_sbu_0, # of connection points: 4
#     Node 8, Type 0, BuildingBlock: CEKHIL_clean_sbu_0, # of connection points: 4
#     Node 9, Type 0, BuildingBlock: CEKHIL_clean_sbu_0, # of connection points: 4
#     Node 10, Type 0, BuildingBlock: CEKHIL_clean_sbu_0, # of connection points: 4
#     Node 11, Type 0, BuildingBlock: CEKHIL_clean_sbu_0, # of connection points: 4
#     Node 12, Type 0, BuildingBlock: CEKHIL_clean_sbu_0, # of connection points: 4
#     Node 13, Type 0, BuildingBlock: CEKHIL_clean_sbu_0, # of connection points: 4
#     Node 14, Type 0, BuildingBlock: CEKHIL_clean_sbu_0, # of connection points: 4
#     Node 15, Type 0, BuildingBlock: CEKHIL_clean_sbu_0, # of connection points: 4
#     Node 16, Type 0, BuildingBlock: CEKHIL_clean_sbu_0, # of connection points: 4
#     Node 17, Type 0, BuildingBlock: CEKHIL_clean_sbu_0, # of connection points: 4
#     Node 18, Type 0, BuildingBlock: CEKHIL_clean_sbu_0, # of connection points: 4
#     Node 19, Type 0, BuildingBlock: CEKHIL_clean_sbu_0, # of connection points: 4
#     Node 20, Type 0, BuildingBlock: CEKHIL_clean_sbu_0, # of connection points: 4
#     Node 21, Type 0, BuildingBlock: CEKHIL_clean_sbu_0, # of connection points: 4
#     Node 22, Type 0, BuildingBlock: CEKHIL_clean_sbu_0, # of connection points: 4
#     Node 23, Type 0, BuildingBlock: CEKHIL_clean_sbu_0, # of connection points: 4
#     Node 24, Type 0, BuildingBlock: CEKHIL_clean_sbu_0, # of connection points: 4
#     Node 25, Type 0, BuildingBlock: CEKHIL_clean_sbu_0, # of connection points: 4
#     Node 26, Type 0, BuildingBlock: CEKHIL_clean_sbu_0, # of connection points: 4
#     Node 27, Type 0, BuildingBlock: CEKHIL_clean_sbu_0, # of connection points: 4
#     Node 28, Type 0, BuildingBlock: CEKHIL_clean_sbu_0, # of connection points: 4
#     Node 29, Type 0, BuildingBlock: CEKHIL_clean_sbu_0, # of connection points: 4
#     Node 30, Type 0, BuildingBlock: CEKHIL_clean_sbu_0, # of connection points: 4
#     Node 31, Type 0, BuildingBlock: CEKHIL_clean_sbu_0, # of connection points: 4
#     Edge 32, Type (0, 0), BuildingBlock: KIFKEQ_clean_linker_1, # of connection points: 2
#     Edge 33, Type (0, 0), BuildingBlock: KIFKEQ_clean_linker_1, # of connection points: 2
#     Edge 34, Type (0, 0), BuildingBlock: KIFKEQ_clean_linker_1, # of connection points: 2
#     Edge 35, Type (0, 0), BuildingBlock: KIFKEQ_clean_linker_1, # of connection points: 2
#     Edge 36, Type (0, 0), BuildingBlock: KIFKEQ_clean_linker_1, # of connection points: 2
#     Edge 37, Type (0, 0), BuildingBlock: KIFKEQ_clean_linker_1, # of connection points: 2
#     Edge 38, Type (0, 0), BuildingBlock: KIFKEQ_clean_linker_1, # of connection points: 2
#     Edge 39, Type (0, 0), BuildingBlock: KIFKEQ_clean_linker_1, # of connection points: 2
#     Edge 40, Type (0, 0), BuildingBlock: KIFKEQ_clean_linker_1, # of connection points: 2
#     Edge 41, Type (0, 0), BuildingBlock: KIFKEQ_clean_linker_1, # of connection points: 2
#     Edge 42, Type (0, 0), BuildingBlock: KIFKEQ_clean_linker_1, # of connection points: 2
#     Edge 43, Type (0, 0), BuildingBlock: KIFKEQ_clean_linker_1, # of connection points: 2
#     Edge 44, Type (0, 0), BuildingBlock: KIFKEQ_clean_linker_1, # of connection points: 2
#     Edge 45, Type (0, 0), BuildingBlock: KIFKEQ_clean_linker_1, # of connection points: 2
#     Edge 46, Type (0, 0), BuildingBlock: KIFKEQ_clean_linker_1, # of connection points: 2
#     Edge 47, Type (0, 0), BuildingBlock: KIFKEQ_clean_linker_1, # of connection points: 2
#     Edge 48, Type (0, 0), BuildingBlock: KIFKEQ_clean_linker_1, # of connection points: 2
#     Edge 49, Type (0, 0), BuildingBlock: KIFKEQ_clean_linker_1, # of connection points: 2
#     Edge 50, Type (0, 0), BuildingBlock: KIFKEQ_clean_linker_1, # of connection points: 2
#     Edge 51, Type (0, 0), BuildingBlock: KIFKEQ_clean_linker_1, # of connection points: 2
#     Edge 52, Type (0, 0), BuildingBlock: KIFKEQ_clean_linker_1, # of connection points: 2
#     Edge 53, Type (0, 0), BuildingBlock: KIFKEQ_clean_linker_1, # of connection points: 2
#     Edge 54, Type (0, 0), BuildingBlock: KIFKEQ_clean_linker_1, # of connection points: 2
#     Edge 55, Type (0, 0), BuildingBlock: KIFKEQ_clean_linker_1, # of connection points: 2
#     Edge 56, Type (0, 0), BuildingBlock: KIFKEQ_clean_linker_1, # of connection points: 2
#     Edge 57, Type (0, 0), BuildingBlock: KIFKEQ_clean_linker_1, # of connection points: 2
#     Edge 58, Type (0, 0), BuildingBlock: KIFKEQ_clean_linker_1, # of connection points: 2
#     Edge 59, Type (0, 0), BuildingBlock: KIFKEQ_clean_linker_1, # of connection points: 2
#     Edge 60, Type (0, 0), BuildingBlock: KIFKEQ_clean_linker_1, # of connection points: 2
#     Edge 61, Type (0, 0), BuildingBlock: KIFKEQ_clean_linker_1, # of connection points: 2
#     Edge 62, Type (0, 0), BuildingBlock: KIFKEQ_clean_linker_1, # of connection points: 2
#     Edge 63, Type (0, 0), BuildingBlock: KIFKEQ_clean_linker_1, # of connection points: 2
#     Edge 64, Type (0, 0), BuildingBlock: KIFKEQ_clean_linker_1, # of connection points: 2
#     Edge 65, Type (0, 0), BuildingBlock: KIFKEQ_clean_linker_1, # of connection points: 2
#     Edge 66, Type (0, 0), BuildingBlock: KIFKEQ_clean_linker_1, # of connection points: 2
#     Edge 67, Type (0, 0), BuildingBlock: KIFKEQ_clean_linker_1, # of connection points: 2
#     Edge 68, Type (0, 0), BuildingBlock: KIFKEQ_clean_linker_1, # of connection points: 2
#     Edge 69, Type (0, 0), BuildingBlock: KIFKEQ_clean_linker_1, # of connection points: 2
#     Edge 70, Type (0, 0), BuildingBlock: KIFKEQ_clean_linker_1, # of connection points: 2
#     Edge 71, Type (0, 0), BuildingBlock: KIFKEQ_clean_linker_1, # of connection points: 2
#     Edge 72, Type (0, 0), BuildingBlock: KIFKEQ_clean_linker_1, # of connection points: 2
#     Edge 73, Type (0, 0), BuildingBlock: KIFKEQ_clean_linker_1, # of connection points: 2
#     Edge 74, Type (0, 0), BuildingBlock: KIFKEQ_clean_linker_1, # of connection points: 2
#     Edge 75, Type (0, 0), BuildingBlock: KIFKEQ_clean_linker_1, # of connection points: 2
#     Edge 76, Type (0, 0), BuildingBlock: KIFKEQ_clean_linker_1, # of connection points: 2
#     Edge 77, Type (0, 0), BuildingBlock: KIFKEQ_clean_linker_1, # of connection points: 2
#     Edge 78, Type (0, 0), BuildingBlock: KIFKEQ_clean_linker_1, # of connection points: 2
#     Edge 79, Type (0, 0), BuildingBlock: KIFKEQ_clean_linker_1, # of connection points: 2
#     Edge 80, Type (0, 0), BuildingBlock: KIFKEQ_clean_linker_1, # of connection points: 2
#     Edge 81, Type (0, 0), BuildingBlock: KIFKEQ_clean_linker_1, # of connection points: 2
#     Edge 82, Type (0, 0), BuildingBlock: KIFKEQ_clean_linker_1, # of connection points: 2
#     Edge 83, Type (0, 0), BuildingBlock: KIFKEQ_clean_linker_1, # of connection points: 2
#     Edge 84, Type (0, 0), BuildingBlock: KIFKEQ_clean_linker_1, # of connection points: 2
#     Edge 85, Type (0, 0), BuildingBlock: KIFKEQ_clean_linker_1, # of connection points: 2
#     Edge 86, Type (0, 0), BuildingBlock: KIFKEQ_clean_linker_1, # of connection points: 2
#     Edge 87, Type (0, 0), BuildingBlock: KIFKEQ_clean_linker_1, # of connection points: 2
#     Edge 88, Type (0, 0), BuildingBlock: KIFKEQ_clean_linker_1, # of connection points: 2
#     Edge 89, Type (0, 0), BuildingBlock: KIFKEQ_clean_linker_1, # of connection points: 2
#     Edge 90, Type (0, 0), BuildingBlock: KIFKEQ_clean_linker_1, # of connection points: 2
#     Edge 91, Type (0, 0), BuildingBlock: KIFKEQ_clean_linker_1, # of connection points: 2
#     Edge 92, Type (0, 0), BuildingBlock: KIFKEQ_clean_linker_1, # of connection points: 2
#     Edge 93, Type (0, 0), BuildingBlock: KIFKEQ_clean_linker_1, # of connection points: 2
#     Edge 94, Type (0, 0), BuildingBlock: KIFKEQ_clean_linker_1, # of connection points: 2
#     Edge 95, Type (0, 0), BuildingBlock: KIFKEQ_clean_linker_1, # of connection points: 2
# Relax obj value: 0.049
# Max RMSD: 0.070
# Mean RMSD: 0.070
data_MOF--net-uos--node1-CEKHIL_clean_sbu_0--edge1-KIFKEQ_clean_linker_1
_symmetry_space_group_name_H-M    P1
_symmetry_Int_Tables_number       1
_symmetry_cell_setting            triclinic
loop_
_symmetry_equiv_pos_as_xyz
'x, y, z'
_cell_length_a     86.161909
_cell_length_b     86.111895
_cell_length_c     23.115438
_cell_angle_alpha  90.002111
_cell_angle_beta   89.927138
_cell_angle_gamma 90.005178
loop_
_atom_site_label
_atom_site_type_symbol
_atom_site_fract_x
_atom_site_fract_y
_atom_site_fract_z
_atom_type_partial_charge
Co0 Co 0.16974 0.17171 0.12284 0.0
O1 O 0.15146 0.16675 0.07814 0.0
O2 O 0.17303 0.15306 0.07561 0.0
C3 C 0.16953 0.19744 0.10033 0.0
O4 O 0.1911 0.17373 0.1624 0.0
Co5 Co 0.16752 0.19571 0.22434 0.0
O6 O 0.19037 0.19392 0.22434 0.0
C7 C 0.15769 0.16302 0.24296 0.0
C8 C 0.15897 0.15512 0.05631 0.0
C9 C 0.19769 0.18299 0.19905 0.0
O10 O 0.16169 0.15906 0.19105 0.0
O11 O 0.1583 0.17698 0.26184 0.0
O12 O 0.17587 0.18752 0.06519 0.0
O13 O 0.1628 0.19145 0.14474 0.0
Co14 Co 0.08988 0.9208 0.36598 0.0
O15 O 0.09315 0.90215 0.32084 0.0
O16 O 0.1081 0.92288 0.31603 0.0
C17 C 0.06391 0.92191 0.34864 0.0
O18 O 0.08985 0.94247 0.40327 0.0
Co19 Co 0.06732 0.9216 0.47207 0.0
O20 O 0.07054 0.94431 0.46892 0.0
C21 C 0.09931 0.90911 0.48547 0.0
C22 C 0.10491 0.90902 0.29692 0.0
C23 C 0.08156 0.95025 0.43972 0.0
O24 O 0.10288 0.91234 0.43243 0.0
O25 O 0.08573 0.91109 0.5068 0.0
O26 O 0.07365 0.9275 0.31104 0.0
O27 O 0.0701 0.91529 0.39281 0.0
Co28 Co 0.34086 0.8384 0.61631 0.0
O29 O 0.35885 0.84157 0.56766 0.0
O30 O 0.3383 0.8568 0.56749 0.0
C31 C 0.33875 0.81242 0.59917 0.0
O32 O 0.31986 0.83834 0.65916 0.0
Co33 Co 0.34313 0.81588 0.72277 0.0
O34 O 0.3206 0.81975 0.72792 0.0
C35 C 0.35437 0.84819 0.73341 0.0
C36 C 0.35188 0.85355 0.54589 0.0
C37 C 0.3135 0.83042 0.70042 0.0
O38 O 0.35035 0.85141 0.68091 0.0
O39 O 0.35314 0.83471 0.75612 0.0
O40 O 0.33315 0.82234 0.56232 0.0
O41 O 0.34647 0.81846 0.64112 0.0
Co42 Co 0.42035 0.0908 0.87449 0.0
O43 O 0.41651 0.10918 0.82842 0.0
O44 O 0.40149 0.08847 0.82827 0.0
C45 C 0.44608 0.08874 0.85292 0.0
O46 O 0.4209 0.0695 0.91486 0.0
Co47 Co 0.44409 0.09204 0.97711 0.0
O48 O 0.43972 0.06957 0.98269 0.0
C49 C 0.41281 0.10551 0.99162 0.0
C50 C 0.40435 0.10225 0.80772 0.0
C51 C 0.42892 0.06274 0.9549 0.0
O52 O 0.40827 0.09995 0.94245 0.0
O53 O 0.42689 0.10489 1.00888 0.0
O54 O 0.43576 0.08346 0.817 0.0
O55 O 0.44053 0.09616 0.89656 0.0
Co56 Co 0.17238 0.83969 0.89484 0.0
O57 O 0.15348 0.84255 0.93896 0.0
O58 O 0.17339 0.85861 0.94141 0.0
C59 C 0.17521 0.81405 0.91651 0.0
O60 O 0.19412 0.84017 0.85794 0.0
Co61 Co 0.17407 0.81605 0.79215 0.0
O62 O 0.1967 0.81897 0.80141 0.0
C63 C 0.15928 0.84676 0.77473 0.0
C64 C 0.1597 0.85493 0.96096 0.0
C65 C 0.20233 0.83084 0.82661 0.0
O66 O 0.16337 0.85138 0.82581 0.0
O67 O 0.16147 0.8329 0.75648 0.0
O68 O 0.17974 0.82456 0.95315 0.0
O69 O 0.16819 0.81931 0.87151 0.0
Co70 Co 0.42171 0.92189 0.14697 0.0
O71 O 0.41875 0.90347 0.19352 0.0
O72 O 0.40332 0.92387 0.19619 0.0
C73 C 0.44762 0.92409 0.16432 0.0
O74 O 0.42155 0.94329 0.10705 0.0
Co75 Co 0.44419 0.92122 0.04021 0.0
O76 O 0.4401 0.94375 0.03812 0.0
C77 C 0.41224 0.90907 0.02853 0.0
C78 C 0.40673 0.91017 0.21629 0.0
C79 C 0.42936 0.95033 0.06705 0.0
O80 O 0.40887 0.91272 0.08132 0.0
O81 O 0.4257 0.9108 1.00605 0.0
O82 O 0.43765 0.9293 0.20182 0.0
O83 O 0.44168 0.91673 0.12124 0.0
Co84 Co 0.33764 0.17117 0.40465 0.0
O85 O 0.35621 0.16693 0.44881 0.0
O86 O 0.33482 0.15304 0.45486 0.0
C87 C 0.33768 0.19717 0.42281 0.0
O88 O 0.31601 0.17236 0.36669 0.0
Co89 Co 0.33891 0.1939 0.29884 0.0
O90 O 0.31635 0.19014 0.29491 0.0
C91 C 0.3492 0.16121 0.28533 0.0
C92 C 0.34895 0.15544 0.47278 0.0
C93 C 0.30934 0.18002 0.32548 0.0
O94 O 0.34552 0.15781 0.33809 0.0
O95 O 0.34827 0.1749 0.26408 0.0
O96 O 0.33165 0.1876 0.46005 0.0
O97 O 0.34417 0.19073 0.37879 0.0
Co98 Co 0.08958 0.08874 0.65401 0.0
O99 O 0.09301 0.10715 0.70032 0.0
O100 O 0.10858 0.08686 0.69975 0.0
C101 C 0.06397 0.0859 0.67614 0.0
O102 O 0.0895 0.06748 0.61318 0.0
Co103 Co 0.06556 0.08974 0.55192 0.0
O104 O 0.07109 0.06758 0.5436 0.0
C105 C 0.09661 0.10368 0.53659 0.0
C106 C 0.10538 0.10054 0.72064 0.0
C107 C 0.08185 0.06085 0.57188 0.0
O108 O 0.10131 0.09831 0.58586 0.0
O109 O 0.08252 0.10279 0.5196 0.0
O110 O 0.07448 0.08091 0.71182 0.0
O111 O 0.06922 0.09356 0.63258 0.0
Co112 Co 0.84038 0.84012 0.90011 0.0
O113 O 0.85856 0.84455 0.94612 0.0
O114 O 0.83699 0.85822 0.95007 0.0
C115 C 0.84049 0.81412 0.91767 0.0
O116 O 0.81909 0.83866 0.85968 0.0
Co117 Co 0.84294 0.81768 0.79385 0.0
O118 O 0.82018 0.82018 0.79064 0.0
C119 C 0.85244 0.85061 0.78208 0.0
C120 C 0.85104 0.85601 0.96917 0.0
C121 C 0.81276 0.83043 0.81921 0.0
O122 O 0.84854 0.85369 0.83482 0.0
O123 O 0.85175 0.83705 0.75962 0.0
O124 O 0.83415 0.82359 0.95455 0.0
O125 O 0.84734 0.82067 0.87464 0.0
Co126 Co 0.92195 0.09106 0.65151 0.0
O127 O 0.91841 0.10911 0.69938 0.0
O128 O 0.90294 0.08874 0.69751 0.0
C129 C 0.94763 0.08904 0.67383 0.0
O130 O 0.92237 0.07002 0.60913 0.0
Co131 Co 0.9462 0.09256 0.55027 0.0
O132 O 0.94161 0.07017 0.54279 0.0
C133 C 0.91484 0.10613 0.53487 0.0
C134 C 0.90618 0.10226 0.71975 0.0
C135 C 0.93053 0.06336 0.56918 0.0
O136 O 0.91013 0.10075 0.58415 0.0
O137 O 0.92895 0.10526 0.51779 0.0
O138 O 0.93725 0.08318 0.70837 0.0
O139 O 0.94213 0.09658 0.63053 0.0
Co140 Co 0.66982 0.17047 0.39421 0.0
O141 O 0.65142 0.16658 0.44009 0.0
O142 O 0.67211 0.15155 0.44025 0.0
C143 C 0.67191 0.19619 0.41606 0.0
O144 O 0.69115 0.17104 0.35406 0.0
Co145 Co 0.66871 0.19435 0.29182 0.0
O146 O 0.69114 0.18987 0.28619 0.0
C147 C 0.65545 0.16298 0.27644 0.0
C148 C 0.65832 0.15441 0.46077 0.0
C149 C 0.69793 0.17906 0.31402 0.0
O150 O 0.66075 0.15844 0.32601 0.0
O151 O 0.65615 0.17708 0.25917 0.0
O152 O 0.67711 0.18581 0.45196 0.0
O153 O 0.66453 0.1907 0.3723 0.0
Co154 Co 0.59013 0.92078 0.147 0.0
O155 O 0.59493 0.90269 0.19309 0.0
O156 O 0.60899 0.92403 0.19288 0.0
C157 C 0.56443 0.92118 0.17021 0.0
O158 O 0.58841 0.94194 0.10592 0.0
Co159 Co 0.5658 0.91831 0.04655 0.0
O160 O 0.56916 0.94095 0.03993 0.0
C161 C 0.59792 0.90676 0.02922 0.0
C162 C 0.60679 0.91012 0.21352 0.0
C163 C 0.57988 0.94827 0.06639 0.0
O164 O 0.6024 0.91211 0.07879 0.0
O165 O 0.58376 0.90691 0.01256 0.0
O166 O 0.57451 0.92752 0.20472 0.0
O167 O 0.57026 0.91412 0.12633 0.0
Co168 Co 0.83867 0.17162 0.12206 0.0
O169 O 0.85709 0.16848 0.07557 0.0
O170 O 0.83657 0.15322 0.07287 0.0
C171 C 0.83668 0.19758 0.10448 0.0
O172 O 0.81726 0.17164 0.16185 0.0
Co173 Co 0.83938 0.19429 0.22837 0.0
O174 O 0.81685 0.1903 0.23036 0.0
C175 C 0.85135 0.16223 0.24078 0.0
C176 C 0.85029 0.15654 0.05268 0.0
C177 C 0.81024 0.17954 0.20164 0.0
O178 O 0.84765 0.15873 0.18813 0.0
O179 O 0.84984 0.17582 0.26233 0.0
O180 O 0.83144 0.18764 0.06697 0.0
O181 O 0.84395 0.19158 0.14759 0.0
Co182 Co 0.58886 0.08844 0.86434 0.0
O183 O 0.59335 0.1069 0.81978 0.0
O184 O 0.6072 0.08544 0.81527 0.0
C185 C 0.56296 0.08849 0.84468 0.0
O186 O 0.58737 0.06693 0.90322 0.0
Co187 Co 0.56558 0.09016 0.96856 0.0
O188 O 0.56846 0.06743 0.97079 0.0
C189 C 0.59828 0.10028 0.98386 0.0
C190 C 0.60491 0.09954 0.79669 0.0
C191 C 0.579 0.0603 0.94263 0.0
O192 O 0.60192 0.09642 0.93148 0.0
O193 O 0.58447 0.09951 1.00414 0.0
O194 O 0.57266 0.08236 0.80816 0.0
O195 O 0.56924 0.0951 0.88868 0.0
Co196 Co 0.67283 0.84096 0.61637 0.0
O197 O 0.65449 0.8457 0.57172 0.0
O198 O 0.67606 0.85935 0.56761 0.0
C199 C 0.67243 0.81509 0.59604 0.0
O200 O 0.69426 0.8392 0.65562 0.0
Co201 Co 0.67069 0.81757 0.71999 0.0
O202 O 0.69341 0.82026 0.72304 0.0
C203 C 0.6609 0.85037 0.73579 0.0
C204 C 0.66195 0.85723 0.54892 0.0
C205 C 0.70072 0.83074 0.69517 0.0
O206 O 0.6649 0.85404 0.68361 0.0
O207 O 0.66146 0.83652 0.75575 0.0
O208 O 0.6788 0.82475 0.55995 0.0
O209 O 0.66587 0.82139 0.64015 0.0
Co210 Co 0.92072 0.92311 0.36949 0.0
O211 O 0.91688 0.90459 0.32438 0.0
O212 O 0.90259 0.92576 0.31951 0.0
C213 C 0.94675 0.92409 0.3527 0.0
O214 O 0.92148 0.94464 0.40857 0.0
Co215 Co 0.94289 0.9216 0.4769 0.0
O216 O 0.93981 0.94429 0.47819 0.0
C217 C 0.91039 0.91098 0.48793 0.0
C218 C 0.9052 0.9117 0.30106 0.0
C219 C 0.92948 0.95135 0.44885 0.0
O220 O 0.90732 0.9148 0.43513 0.0
O221 O 0.92386 0.91205 0.51075 0.0
O222 O 0.9371 0.92956 0.31464 0.0
O223 O 0.94039 0.91711 0.3959 0.0
Co224 Co 0.67038 0.67218 0.62627 0.0
O225 O 0.65147 0.6677 0.58426 0.0
O226 O 0.6727 0.6535 0.57912 0.0
C227 C 0.67095 0.69797 0.60459 0.0
O228 O 0.69227 0.67341 0.66139 0.0
Co229 Co 0.671 0.69597 0.72852 0.0
O230 O 0.69368 0.69508 0.7158 0.0
C231 C 0.65904 0.66404 0.7479 0.0
C232 C 0.65857 0.65591 0.56143 0.0
C233 C 0.70001 0.68348 0.69105 0.0
O234 O 0.66278 0.65979 0.69597 0.0
O235 O 0.66045 0.67799 0.76616 0.0
O236 O 0.67615 0.68787 0.56756 0.0
O237 O 0.66464 0.69214 0.65014 0.0
Co238 Co 0.5897 0.42115 0.87296 0.0
O239 O 0.59325 0.40254 0.82775 0.0
O240 O 0.60856 0.42302 0.82639 0.0
C241 C 0.56401 0.42355 0.85171 0.0
O242 O 0.58952 0.44263 0.91199 0.0
Co243 Co 0.56599 0.42081 0.97612 0.0
O244 O 0.57135 0.44304 0.98257 0.0
C245 C 0.59701 0.40676 0.99085 0.0
C246 C 0.60549 0.40922 0.80648 0.0
C247 C 0.58197 0.44957 0.95289 0.0
O248 O 0.60165 0.41204 0.94131 0.0
O249 O 0.58294 0.40771 1.00816 0.0
O250 O 0.57439 0.42849 0.81527 0.0
O251 O 0.56945 0.41624 0.89574 0.0
Co252 Co 0.83873 0.34065 0.1201 0.0
O253 O 0.85677 0.34433 0.07228 0.0
O254 O 0.83582 0.35898 0.07085 0.0
C255 C 0.83783 0.31467 0.10194 0.0
O256 O 0.81757 0.3399 0.1619 0.0
Co257 Co 0.84082 0.31784 0.22551 0.0
O258 O 0.8182 0.32118 0.23019 0.0
C259 C 0.85155 0.35041 0.23787 0.0
C260 C 0.84955 0.35605 0.04979 0.0
C261 C 0.81107 0.33176 0.2023 0.0
O262 O 0.84772 0.35379 0.18529 0.0
O263 O 0.8504 0.3368 0.25969 0.0
O264 O 0.83163 0.32441 0.06577 0.0
O265 O 0.84505 0.32092 0.14465 0.0
Co266 Co 0.92221 0.59072 0.36671 0.0
O267 O 0.9181 0.60898 0.32071 0.0
O268 O 0.90422 0.58751 0.31655 0.0
C269 C 0.94822 0.59047 0.34981 0.0
O270 O 0.92327 0.56937 0.40664 0.0
Co271 Co 0.94433 0.59264 0.47361 0.0
O272 O 0.94199 0.56983 0.47457 0.0
C273 C 0.91155 0.60264 0.48473 0.0
C274 C 0.90662 0.60154 0.29744 0.0
C275 C 0.93155 0.56268 0.44605 0.0
O276 O 0.9086 0.59898 0.4317 0.0
O277 O 0.925 0.60161 0.50776 0.0
O278 O 0.93874 0.58433 0.31261 0.0
O279 O 0.94169 0.59738 0.39284 0.0
Co280 Co 0.67086 0.339 0.40284 0.0
O281 O 0.65242 0.34334 0.4478 0.0
O282 O 0.67376 0.35738 0.45166 0.0
C283 C 0.67112 0.31308 0.42261 0.0
O284 O 0.69233 0.33774 0.36361 0.0
Co285 Co 0.66934 0.31569 0.29877 0.0
O286 O 0.69204 0.31874 0.29644 0.0
C287 C 0.6589 0.3483 0.28336 0.0
C288 C 0.65971 0.35498 0.47063 0.0
C289 C 0.69906 0.32939 0.32432 0.0
O290 O 0.66271 0.35198 0.33571 0.0
O291 O 0.6598 0.33449 0.26315 0.0
O292 O 0.67714 0.32286 0.45902 0.0
O293 O 0.6644 0.31929 0.3787 0.0
Co294 Co 0.92024 0.4232 0.64997 0.0
O295 O 0.91741 0.40516 0.69863 0.0
O296 O 0.90118 0.42491 0.69586 0.0
C297 C 0.94579 0.42675 0.6709 0.0
O298 O 0.91987 0.44415 0.60701 0.0
Co299 Co 0.944 0.42187 0.54705 0.0
O300 O 0.93843 0.444 0.53788 0.0
C301 C 0.91358 0.40653 0.53583 0.0
C302 C 0.90489 0.41158 0.71855 0.0
C303 C 0.92755 0.45075 0.5656 0.0
O304 O 0.90867 0.4128 0.58334 0.0
O305 O 0.92768 0.40742 0.51873 0.0
O306 O 0.93524 0.43182 0.7064 0.0
O307 O 0.94062 0.41866 0.62834 0.0
Co308 Co 0.83967 0.67076 0.89712 0.0
O309 O 0.85869 0.66654 0.93871 0.0
O310 O 0.83725 0.65274 0.94755 0.0
C311 C 0.83957 0.69677 0.9138 0.0
O312 O 0.81762 0.67184 0.86315 0.0
Co313 Co 0.83879 0.69285 0.79003 0.0
O314 O 0.81626 0.69301 0.8062 0.0
C315 C 0.84948 0.66034 0.77614 0.0
C316 C 0.85153 0.65509 0.96364 0.0
C317 C 0.80987 0.68182 0.83315 0.0
O318 O 0.84685 0.65729 0.83 0.0
O319 O 0.84755 0.67375 0.75339 0.0
O320 O 0.83439 0.68725 0.95297 0.0
O321 O 0.84559 0.69028 0.86886 0.0
Co322 Co 0.59017 0.58978 0.15626 0.0
O323 O 0.59403 0.60857 0.19994 0.0
O324 O 0.60827 0.58739 0.20631 0.0
C325 C 0.56417 0.58922 0.17394 0.0
O326 O 0.58954 0.568 0.11987 0.0
Co327 Co 0.56757 0.58961 0.0502 0.0
O328 O 0.57152 0.56702 0.04913 0.0
C329 C 0.59979 0.60138 0.03665 0.0
C330 C 0.60561 0.60148 0.22413 0.0
C331 C 0.58186 0.56066 0.08046 0.0
O332 O 0.60337 0.5977 0.08924 0.0
O333 O 0.58609 0.60006 0.01592 0.0
O334 O 0.57382 0.58365 0.21179 0.0
O335 O 0.5705 0.59566 0.12961 0.0
Co336 Co 0.33929 0.34042 0.40118 0.0
O337 O 0.35824 0.34475 0.44312 0.0
O338 O 0.33688 0.35871 0.45031 0.0
C339 C 0.33898 0.31447 0.42002 0.0
O340 O 0.31734 0.33928 0.36651 0.0
Co341 Co 0.33854 0.31751 0.29627 0.0
O342 O 0.31595 0.31783 0.31098 0.0
C343 C 0.34955 0.34988 0.27956 0.0
C344 C 0.35109 0.35632 0.46724 0.0
C345 C 0.30958 0.32926 0.33668 0.0
O346 O 0.34664 0.35344 0.33286 0.0
O347 O 0.34783 0.33621 0.25883 0.0
O348 O 0.33378 0.32424 0.45825 0.0
O349 O 0.34515 0.32069 0.37485 0.0
Co350 Co 0.42151 0.5893 0.14345 0.0
O351 O 0.41763 0.60774 0.18924 0.0
O352 O 0.40275 0.58695 0.1904 0.0
C353 C 0.44727 0.58743 0.16438 0.0
O354 O 0.42216 0.56789 0.10361 0.0
Co355 Co 0.44507 0.59053 0.04005 0.0
O356 O 0.44085 0.56802 0.03514 0.0
C357 C 0.41366 0.60375 0.02609 0.0
C358 C 0.40557 0.60078 0.21061 0.0
C359 C 0.43018 0.56114 0.0635 0.0
O360 O 0.40926 0.59829 0.07564 0.0
O361 O 0.4277 0.60314 1.00825 0.0
O362 O 0.43702 0.58216 0.20069 0.0
O363 O 0.44164 0.59474 0.12067 0.0
Co364 Co 0.17106 0.67166 0.90375 0.0
O365 O 0.15349 0.66798 0.95381 0.0
O366 O 0.17403 0.6528 0.95028 0.0
C367 C 0.17272 0.69747 0.92514 0.0
O368 O 0.19169 0.67242 0.85834 0.0
Co369 Co 0.16772 0.69568 0.80234 0.0
O370 O 0.19021 0.69188 0.79315 0.0
C371 C 0.15506 0.66385 0.78937 0.0
C372 C 0.16064 0.65592 0.97386 0.0
C373 C 0.19765 0.68092 0.81779 0.0
O374 O 0.16102 0.65943 0.83805 0.0
O375 O 0.15532 0.67795 0.77182 0.0
O376 O 0.17915 0.6873 0.9591 0.0
O377 O 0.1649 0.69166 0.88317 0.0
Co378 Co 0.08761 0.4199 0.65113 0.0
O379 O 0.09129 0.40255 0.70191 0.0
O380 O 0.10664 0.42297 0.69638 0.0
C381 C 0.06195 0.42201 0.67371 0.0
O382 O 0.08682 0.44031 0.60464 0.0
Co383 Co 0.06328 0.41616 0.55116 0.0
O384 O 0.06674 0.43874 0.54236 0.0
C385 C 0.09499 0.40336 0.53729 0.0
C386 C 0.10346 0.40971 0.72092 0.0
C387 C 0.07792 0.44624 0.56535 0.0
O388 O 0.09954 0.40949 0.58549 0.0
O389 O 0.08087 0.40361 0.52021 0.0
O390 O 0.07231 0.42843 0.70681 0.0
O391 O 0.06749 0.41384 0.63206 0.0
Co392 Co 0.33827 0.66919 0.61459 0.0
O393 O 0.35723 0.66504 0.57216 0.0
O394 O 0.33596 0.65103 0.56442 0.0
C395 C 0.33831 0.69517 0.5962 0.0
O396 O 0.31628 0.67017 0.64974 0.0
Co397 Co 0.33736 0.69204 0.71952 0.0
O398 O 0.31468 0.6913 0.70693 0.0
C399 C 0.34863 0.65965 0.73559 0.0
C400 C 0.35016 0.65352 0.54748 0.0
C401 C 0.30844 0.67989 0.68076 0.0
O402 O 0.34575 0.65607 0.6823 0.0
O403 O 0.34675 0.67329 0.75647 0.0
O404 O 0.33267 0.68554 0.55837 0.0
O405 O 0.34433 0.68883 0.6413 0.0
Co406 Co 0.09137 0.58791 0.37492 0.0
O407 O 0.09532 0.60689 0.33254 0.0
O408 O 0.10964 0.58579 0.32508 0.0
C409 C 0.0654 0.58748 0.35695 0.0
O410 O 0.09038 0.56583 0.40935 0.0
Co411 Co 0.06875 0.58711 0.48085 0.0
O412 O 0.06911 0.56454 0.46597 0.0
C413 C 0.10105 0.59825 0.49633 0.0
C414 C 0.1069 0.59991 0.30781 0.0
C415 C 0.08036 0.55809 0.4395 0.0
O416 O 0.10448 0.5954 0.44285 0.0
O417 O 0.08746 0.59641 0.51771 0.0
O418 O 0.07511 0.58232 0.3184 0.0
O419 O 0.07168 0.59363 0.40195 0.0
Co420 Co 0.17106 0.34044 0.12087 0.0
O421 O 0.15222 0.34423 0.07775 0.0
O422 O 0.1732 0.35882 0.07183 0.0
C423 C 0.17182 0.3145 0.10223 0.0
O424 O 0.19292 0.33975 0.15652 0.0
Co425 Co 0.17201 0.31759 0.22593 0.0
O426 O 0.19458 0.31811 0.21087 0.0
C427 C 0.16048 0.3498 0.2422 0.0
C428 C 0.15918 0.35595 0.05383 0.0
C429 C 0.2008 0.3297 0.18578 0.0
O430 O 0.16319 0.35334 0.18874 0.0
O431 O 0.16259 0.33622 0.26334 0.0
O432 O 0.17704 0.32432 0.0642 0.0
O433 O 0.16548 0.32065 0.14718 0.0
Co434 Co 0.42167 0.42043 0.8709 0.0
O435 O 0.41731 0.40208 0.82563 0.0
O436 O 0.40296 0.42325 0.82411 0.0
C437 C 0.44742 0.42115 0.84875 0.0
O438 O 0.4229 0.4418 0.91059 0.0
Co439 Co 0.4456 0.41891 0.97269 0.0
O440 O 0.44202 0.44154 0.97714 0.0
C441 C 0.41368 0.40673 0.98907 0.0
C442 C 0.40545 0.40932 0.80421 0.0
C443 C 0.43126 0.44853 0.94973 0.0
O444 O 0.40931 0.41183 0.93901 0.0
O445 O 0.42776 0.40727 1.00652 0.0
O446 O 0.43734 0.42714 0.81343 0.0
O447 O 0.44158 0.41421 0.8929 0.0
H448 H 0.29786 0.17762 0.21717 0.0
H449 H 0.28407 0.17518 0.39643 0.0
H450 H 0.2708 0.17581 0.18729 0.0
H451 H 0.25673 0.17354 0.36642 0.0
H452 H 0.21311 0.19745 0.28683 0.0
H453 H 0.23953 0.19361 0.31924 0.0
H454 H 0.2465 0.15914 0.18624 0.0
H455 H 0.21965 0.16289 0.15326 0.0
C456 C 0.289 0.17648 0.25022 0.0
C457 C 0.29305 0.17668 0.3092 0.0
C458 C 0.27351 0.17533 0.23301 0.0
C459 C 0.2616 0.17462 0.27438 0.0
C460 C 0.26567 0.17417 0.3335 0.0
C461 C 0.28128 0.17503 0.35076 0.0
C462 C 0.22015 0.18899 0.26415 0.0
C463 C 0.21415 0.18054 0.2169 0.0
C464 C 0.23532 0.18667 0.28343 0.0
C465 C 0.24508 0.17596 0.25585 0.0
C466 C 0.23922 0.16748 0.20847 0.0
C467 C 0.22386 0.16965 0.18947 0.0
H468 H 0.06931 0.97576 0.38871 0.0
H469 H 0.10126 0.96126 0.52125 0.0
H470 H 0.07178 1.00265 0.42078 0.0
H471 H 0.1042 0.98827 0.55305 0.0
H472 H 0.08754 0.03483 0.63806 0.0
H473 H 0.08981 0.00802 0.60297 0.0
H474 H 0.08788 0.02463 0.42662 0.0
H475 H 0.08494 0.05105 0.46184 0.0
C476 C 0.07723 0.97847 0.42364 0.0
C477 C 0.08533 0.9666 0.45184 0.0
C478 C 0.07869 0.99387 0.44221 0.0
C479 C 0.08824 0.99773 0.48966 0.0
C480 C 0.09664 0.98577 0.51684 0.0
C481 C 0.09515 0.97035 0.4982 0.0
C482 C 0.08787 0.03268 0.5919 0.0
C483 C 0.08588 0.04495 0.55268 0.0
C484 C 0.08919 0.01734 0.57163 0.0
C485 C 0.08876 0.01406 0.51176 0.0
C486 C 0.08779 0.02657 0.47291 0.0
C487 C 0.08623 0.04176 0.49309 0.0
H488 H 0.22573 0.81093 0.84673 0.0
H489 H 0.21618 0.85683 0.78138 0.0
H490 H 0.25277 0.81341 0.81713 0.0
H491 H 0.24348 0.85933 0.7505 0.0
H492 H 0.28859 0.84273 0.63951 0.0
H493 H 0.26169 0.84544 0.67463 0.0
H494 H 0.27596 0.82936 0.8432 0.0
H495 H 0.30236 0.82652 0.8087 0.0
C496 C 0.22956 0.82169 0.827 0.0
C497 C 0.21901 0.83379 0.81723 0.0
C498 C 0.24502 0.82312 0.80987 0.0
C499 C 0.25027 0.83658 0.78146 0.0
C500 C 0.23974 0.84882 0.77216 0.0
C501 C 0.22423 0.84749 0.79048 0.0
C502 C 0.28596 0.83999 0.68418 0.0
C503 C 0.29754 0.83405 0.72084 0.0
C504 C 0.2706 0.8416 0.70436 0.0
C505 C 0.26669 0.83737 0.76148 0.0
C506 C 0.27852 0.8324 0.79871 0.0
C507 C 0.29367 0.83074 0.77872 0.0
H508 H 0.43511 0.04906 0.05823 0.0
H509 H 0.41485 0.03958 0.89105 0.0
H510 H 0.43178 0.02206 0.08573 0.0
H511 H 0.41148 0.01227 0.91901 0.0
H512 H 0.43399 0.96398 0.96273 0.0
H513 H 0.43053 0.99102 0.93618 0.0
H514 H 0.41281 1.0009 0.10708 0.0
H515 H 0.41632 0.97351 0.13405 0.0
C516 C 0.42982 0.04122 0.02736 0.0
C517 C 0.42546 0.04646 0.97197 0.0
C518 C 0.42774 0.02574 0.04354 0.0
C519 C 0.42139 0.01499 1.00465 0.0
C520 C 0.41651 0.02028 0.94986 0.0
C521 C 0.4184 0.03591 0.93384 0.0
C522 C 0.42923 0.97185 0.99473 0.0
C523 C 0.42565 0.96661 0.05091 0.0
C524 C 0.42707 0.98735 0.97914 0.0
C525 C 0.42142 0.99814 0.01943 0.0
C526 C 0.41729 0.99286 0.07513 0.0
C527 C 0.41925 0.97719 0.09058 0.0
H528 H 0.79977 0.82392 0.71496 0.0
H529 H 0.78871 0.8435 0.88208 0.0
H530 H 0.77296 0.82686 0.68492 0.0
H531 H 0.76155 0.84644 0.85154 0.0
H532 H 0.71357 0.82456 0.79978 0.0
H533 H 0.74041 0.82732 0.82978 0.0
H534 H 0.75206 0.8462 0.66228 0.0
H535 H 0.72486 0.84346 0.63183 0.0
C536 C 0.79161 0.82893 0.7454 0.0
C537 C 0.7964 0.83327 0.80141 0.0
C538 C 0.77624 0.83078 0.72773 0.0
C539 C 0.76509 0.83689 0.76568 0.0
C540 C 0.76987 0.84162 0.82133 0.0
C541 C 0.78541 0.83996 0.83885 0.0
C542 C 0.72179 0.82938 0.76917 0.0
C543 C 0.71707 0.83358 0.71294 0.0
C544 C 0.73718 0.83113 0.78679 0.0
C545 C 0.7484 0.83697 0.74856 0.0
C546 C 0.74368 0.84158 0.6927 0.0
C547 C 0.72812 0.84005 0.67523 0.0
H548 H 0.91689 0.9751 0.38319 0.0
H549 H 0.93485 0.96467 0.5532 0.0
H550 H 0.91387 1.00245 0.41181 0.0
H551 H 0.93187 0.99162 0.5813 0.0
H552 H 0.91633 0.03987 0.63103 0.0
H553 H 0.91282 0.01276 0.60068 0.0
H554 H 0.933 0.02354 0.43443 0.0
H555 H 0.9365 0.05035 0.46438 0.0
C556 C 0.92002 0.97858 0.42665 0.0
C557 C 0.92632 0.96773 0.4655 0.0
C558 C 0.91834 0.99422 0.44306 0.0
C559 C 0.92263 0.99921 0.49894 0.0
C560 C 0.92828 0.98819 0.53827 0.0
C561 C 0.93016 0.97272 0.52174 0.0
C562 C 0.91982 0.03646 0.58782 0.0
C563 C 0.92691 0.04723 0.55055 0.0
C564 C 0.91785 0.02095 0.57044 0.0
C565 C 0.92267 0.01598 0.5151 0.0
C566 C 0.92903 0.02696 0.47703 0.0
C567 C 0.93119 0.04233 0.4946 0.0
H568 H 0.71153 0.18488 0.21022 0.0
H569 H 0.7211 0.16526 0.37844 0.0
H570 H 0.73853 0.18156 0.18273 0.0
H571 H 0.74841 0.16191 0.35052 0.0
H572 H 0.79649 0.18466 0.3055 0.0
H573 H 0.76948 0.18114 0.33219 0.0
H574 H 0.75981 0.16257 0.16251 0.0
H575 H 0.78717 0.16613 0.13536 0.0
C576 C 0.71939 0.17973 0.24132 0.0
C577 C 0.71419 0.17555 0.29698 0.0
C578 C 0.73487 0.17766 0.22516 0.0
C579 C 0.74564 0.17149 0.26436 0.0
C580 C 0.74037 0.16678 0.31943 0.0
C581 C 0.72476 0.16867 0.33543 0.0
C582 C 0.78867 0.1797 0.27379 0.0
C583 C 0.79396 0.17589 0.21788 0.0
C584 C 0.77319 0.17752 0.28947 0.0
C585 C 0.76247 0.17159 0.24957 0.0
C586 C 0.7678 0.16725 0.19415 0.0
C587 C 0.78345 0.16925 0.1786 0.0
H588 H 0.57296 0.04713 0.04687 0.0
H589 H 0.59198 0.03644 0.8785 0.0
H590 H 0.57611 0.02026 0.07621 0.0
H591 H 0.59509 0.00919 0.90829 0.0
H592 H 0.57317 0.96105 0.96189 0.0
H593 H 0.5759 0.98791 0.93134 0.0
H594 H 0.59585 0.99951 0.09699 0.0
H595 H 0.59317 0.97234 0.12792 0.0
C596 C 0.57789 0.03903 0.01602 0.0
C597 C 0.58202 0.04393 0.9599 0.0
C598 C 0.57986 0.02363 0.03325 0.0
C599 C 0.58586 0.01257 0.99473 0.0
C600 C 0.59037 0.01746 0.93892 0.0
C601 C 0.58861 0.03304 0.92185 0.0
C602 C 0.57824 0.96927 0.99191 0.0
C603 C 0.58275 0.96456 0.0478 0.0
C604 C 0.57997 0.98466 0.97398 0.0
C605 C 0.58608 0.99586 0.01163 0.0
C606 C 0.59102 0.99113 0.06705 0.0
C607 C 0.58952 0.97559 0.08477 0.0
H608 H 0.71469 0.65694 0.72645 0.0
H609 H 0.72268 0.70507 0.6847 0.0
H610 H 0.74093 0.6551 0.76681 0.0
H611 H 0.74901 0.70316 0.72143 0.0
H612 H 0.78751 0.70346 0.84645 0.0
H613 H 0.76098 0.70239 0.81098 0.0
H614 H 0.76831 0.65499 0.75524 0.0
H615 H 0.79472 0.65594 0.79442 0.0
C616 C 0.72227 0.66696 0.72418 0.0
C617 C 0.71671 0.68115 0.70257 0.0
C618 C 0.73729 0.66595 0.74755 0.0
C619 C 0.74706 0.67909 0.74902 0.0
C620 C 0.74171 0.69294 0.72337 0.0
C621 C 0.72669 0.694 0.70128 0.0
C622 C 0.78326 0.69268 0.82807 0.0
C623 C 0.79307 0.67977 0.82347 0.0
C624 C 0.76813 0.69212 0.80666 0.0
C625 C 0.76254 0.67875 0.77834 0.0
C626 C 0.77214 0.66549 0.77665 0.0
C627 C 0.78725 0.66598 0.79934 0.0
H628 H 0.58326 0.47556 0.88459 0.0
H629 H 0.58922 0.45963 0.05985 0.0
H630 H 0.58535 0.50247 0.91756 0.0
H631 H 0.59237 0.48627 0.09284 0.0
H632 H 0.57534 0.53481 0.14398 0.0
H633 H 0.57755 0.50785 0.11233 0.0
H634 H 0.59943 0.52318 0.95361 0.0
H635 H 0.59624 0.5501 0.98452 0.0
C636 C 0.5855 0.47786 0.92989 0.0
C637 C 0.58603 0.4656 0.96972 0.0
C638 C 0.58675 0.49328 0.94905 0.0
C639 C 0.58885 0.49673 1.00834 0.0
C640 C 0.59029 0.48425 0.04729 0.0
C641 C 0.58869 0.46894 0.02832 0.0
C642 C 0.58087 0.5323 0.10292 0.0
C643 C 0.58574 0.54441 0.06685 0.0
C644 C 0.5822 0.51683 0.08456 0.0
C645 C 0.58863 0.51316 0.02995 0.0
C646 C 0.59411 0.52543 0.99522 0.0
C647 C 0.5925 0.54086 0.0132 0.0
H648 H 0.72232 0.34409 0.38616 0.0
H649 H 0.71278 0.32212 0.22194 0.0
H650 H 0.74945 0.34786 0.35621 0.0
H651 H 0.73953 0.3259 0.19251 0.0
H652 H 0.78682 0.34347 0.13743 0.0
H653 H 0.75954 0.34588 0.16739 0.0
H654 H 0.77154 0.32954 0.33814 0.0
H655 H 0.7985 0.32713 0.30855 0.0
C656 C 0.72594 0.34019 0.3437 0.0
C657 C 0.7154 0.33261 0.30693 0.0
C658 C 0.74146 0.34233 0.32651 0.0
C659 C 0.74664 0.33721 0.27182 0.0
C660 C 0.73593 0.33016 0.23452 0.0
C661 C 0.72058 0.32782 0.25188 0.0
C662 C 0.78363 0.34061 0.18149 0.0
C663 C 0.79479 0.3349 0.22025 0.0
C664 C 0.76802 0.34194 0.19866 0.0
C665 C 0.76336 0.33785 0.2552 0.0
C666 C 0.77471 0.33292 0.29455 0.0
C667 C 0.79017 0.33138 0.27725 0.0
H668 H 0.91787 0.47525 0.63317 0.0
H669 H 0.92936 0.46274 0.45742 0.0
H670 H 0.91604 0.50261 0.60388 0.0
H671 H 0.92748 0.48985 0.42831 0.0
H672 H 0.91461 0.54033 0.38766 0.0
H673 H 0.9102 0.51327 0.41716 0.0
H674 H 0.9369 0.52112 0.5723 0.0
H675 H 0.94132 0.5478 0.54338 0.0
C676 C 0.91967 0.47829 0.58819 0.0
C677 C 0.92392 0.46689 0.54778 0.0
C678 C 0.91871 0.49394 0.57142 0.0
C679 C 0.92172 0.49841 0.51377 0.0
C680 C 0.925 0.48682 0.47286 0.0
C681 C 0.92619 0.4713 0.48973 0.0
C682 C 0.91947 0.53627 0.4281 0.0
C683 C 0.92846 0.54625 0.46268 0.0
C684 C 0.91694 0.52079 0.44504 0.0
C685 C 0.92311 0.51509 0.49735 0.0
C686 C 0.93177 0.52518 0.5323 0.0
C687 C 0.93446 0.54048 0.51515 0.0
H688 H 0.28697 0.30764 0.34315 0.0
H689 H 0.29491 0.35577 0.30116 0.0
H690 H 0.2608 0.30938 0.30453 0.0
H691 H 0.26884 0.35744 0.25913 0.0
H692 H 0.21512 0.35582 0.22681 0.0
H693 H 0.24121 0.35717 0.26889 0.0
H694 H 0.24988 0.31007 0.21247 0.0
H695 H 0.2237 0.3086 0.17381 0.0
C696 C 0.28296 0.31868 0.32629 0.0
C697 C 0.29289 0.33157 0.32531 0.0
C698 C 0.26805 0.31964 0.30314 0.0
C699 C 0.2628 0.33342 0.27678 0.0
C700 C 0.27245 0.34663 0.27887 0.0
C701 C 0.28735 0.34572 0.30323 0.0
C702 C 0.22282 0.34594 0.22232 0.0
C703 C 0.21747 0.33211 0.1971 0.0
C704 C 0.23774 0.34666 0.24671 0.0
C705 C 0.24757 0.33358 0.2457 0.0
C706 C 0.24249 0.32019 0.21625 0.0
C707 C 0.22757 0.3194 0.19305 0.0
H708 H 0.43505 0.54781 0.95868 0.0
H709 H 0.41793 0.53747 0.1301 0.0
H710 H 0.4323 0.5207 0.93151 0.0
H711 H 0.4152 0.51003 0.10257 0.0
H712 H 0.43836 0.46244 0.05192 0.0
H713 H 0.43491 0.48942 0.07967 0.0
H714 H 0.41345 0.49896 0.91482 0.0
H715 H 0.41688 0.47167 0.88667 0.0
C716 C 0.43056 0.53974 0.99056 0.0
C717 C 0.4269 0.54479 0.04692 0.0
C718 C 0.42884 0.5242 0.97465 0.0
C719 C 0.42356 0.51318 0.0148 0.0
C720 C 0.41938 0.51825 0.07072 0.0
C721 C 0.42089 0.53395 0.08648 0.0
C722 C 0.43281 0.47022 0.02146 0.0
C723 C 0.42808 0.4649 0.96661 0.0
C724 C 0.43067 0.48569 0.03781 0.0
C725 C 0.4239 0.49636 0.99958 0.0
C726 C 0.41878 0.49101 0.94518 0.0
C727 C 0.42072 0.4754 0.92905 0.0
H728 H 0.28568 0.70112 0.66786 0.0
H729 H 0.2937 0.65379 0.72076 0.0
H730 H 0.25877 0.69922 0.69969 0.0
H731 H 0.26656 0.65187 0.75386 0.0
H732 H 0.22274 0.66683 0.87219 0.0
H733 H 0.24937 0.66443 0.83411 0.0
H734 H 0.23466 0.6852 0.67339 0.0
H735 H 0.20852 0.68773 0.71083 0.0
C736 C 0.28154 0.69019 0.6853 0.0
C737 C 0.29166 0.67753 0.69089 0.0
C738 C 0.26614 0.68909 0.70374 0.0
C739 C 0.2605 0.67539 0.72941 0.0
C740 C 0.27058 0.66259 0.73445 0.0
C741 C 0.28601 0.66361 0.71478 0.0
C742 C 0.22521 0.67071 0.82858 0.0
C743 C 0.21355 0.67778 0.79515 0.0
C744 C 0.24043 0.66928 0.80667 0.0
C745 C 0.24417 0.67485 0.75097 0.0
C746 C 0.23227 0.68111 0.71684 0.0
C747 C 0.21725 0.68258 0.73854 0.0
H748 H 0.09667 0.46963 0.60994 0.0
H749 H 0.06565 0.45912 0.46833 0.0
H750 H 0.09927 0.49636 0.57323 0.0
H751 H 0.06839 0.48531 0.4323 0.0
H752 H 0.05714 0.53719 0.44479 0.0
H753 H 0.05852 0.51006 0.47301 0.0
H754 H 0.10843 0.5133 0.48458 0.0
H755 H 0.107 0.54084 0.45575 0.0
C756 C 0.09054 0.47292 0.57095 0.0
C757 C 0.0807 0.46224 0.54298 0.0
C758 C 0.09211 0.48818 0.54972 0.0
C759 C 0.08388 0.49298 0.50022 0.0
C760 C 0.07466 0.48208 0.47108 0.0
C761 C 0.07308 0.46701 0.49207 0.0
C762 C 0.06845 0.53208 0.45239 0.0
C763 C 0.08196 0.5411 0.44762 0.0
C764 C 0.06925 0.51652 0.4686 0.0
C765 C 0.08358 0.50951 0.48115 0.0
C766 C 0.09721 0.51842 0.47549 0.0
C767 C 0.09642 0.53408 0.45826 0.0
H768 H 0.1287 0.15476 0.02343 0.0
H769 H 0.17287 0.13375 0.98297 0.0
H770 H 0.11677 0.14107 0.94333 0.0
H771 H 0.16092 0.1202 0.90076 0.0
H772 H 0.12929 0.08822 0.78593 0.0
H773 H 0.14276 0.10037 0.86775 0.0
H774 H 0.11612 0.14226 0.84152 0.0
H775 H 0.10252 0.13006 0.76166 0.0
C776 C 0.13591 0.14719 0.99736 0.0
C777 C 0.1518 0.14547 1.00968 0.0
C778 C 0.12906 0.13939 0.95081 0.0
C779 C 0.13787 0.12968 0.91436 0.0
C780 C 0.15371 0.12753 0.92774 0.0
C781 C 0.16059 0.13532 0.97488 0.0
C782 C 0.1264 0.10005 0.79755 0.0
C783 C 0.1147 0.10809 0.76734 0.0
C784 C 0.13417 0.10706 0.84444 0.0
C785 C 0.13043 0.12228 0.86227 0.0
C786 C 0.1191 0.13041 0.8305 0.0
C787 C 0.11133 0.12342 0.7841 0.0
H788 H 0.13707 0.84425 0.03251 0.0
H789 H 0.16492 0.88488 0.99923 0.0
H790 H 0.12487 0.85716 0.11361 0.0
H791 H 0.15189 0.89847 0.0786 0.0
H792 H 0.13451 0.91504 0.25666 0.0
H793 H 0.14808 0.90234 0.17646 0.0
H794 H 0.10716 0.87466 0.14293 0.0
H795 H 0.0943 0.88651 0.22489 0.0
C796 C 0.14039 0.85612 0.04191 0.0
C797 C 0.15192 0.86353 1.00894 0.0
C798 C 0.13326 0.86366 0.08855 0.0
C799 C 0.13708 0.87911 0.10317 0.0
C800 C 0.14865 0.88656 0.06981 0.0
C801 C 0.15607 0.87882 0.02373 0.0
C802 C 0.12853 0.90614 0.23223 0.0
C803 C 0.1134 0.90166 0.24777 0.0
C804 C 0.13626 0.8989 0.1857 0.0
C805 C 0.12892 0.88721 0.15262 0.0
C806 C 0.11358 0.88313 0.16778 0.0
C807 C 0.10607 0.89007 0.21489 0.0
H808 H 0.37679 0.9157 0.2545 0.0
H809 H 0.41726 0.88773 0.28861 0.0
H810 H 0.36287 0.90238 0.33265 0.0
H811 H 0.404 0.87523 0.36828 0.0
H812 H 0.37406 0.84345 0.47154 0.0
H813 H 0.38611 0.85708 0.39183 0.0
H814 H 0.3587 0.89784 0.43097 0.0
H815 H 0.34583 0.88354 0.50922 0.0
C816 C 0.38275 0.9068 0.27901 0.0
C817 C 0.39807 0.90265 0.26471 0.0
C818 C 0.37481 0.8992 0.32427 0.0
C819 C 0.3821 0.88743 0.35709 0.0
C820 C 0.39763 0.88374 0.34338 0.0
C821 C 0.40537 0.89105 0.29764 0.0
C822 C 0.37057 0.85533 0.46324 0.0
C823 C 0.35904 0.86241 0.49721 0.0
C824 C 0.37763 0.86329 0.41749 0.0
C825 C 0.37374 0.87883 0.40477 0.0
C826 C 0.36203 0.88589 0.43858 0.0
C827 C 0.35468 0.87774 0.48388 0.0
H828 H 0.4065 0.13188 0.76706 0.0
H829 H 0.38079 0.08941 0.74217 0.0
H830 H 0.39254 0.14385 0.68756 0.0
H831 H 0.36696 0.10132 0.66074 0.0
H832 H 0.33582 0.13379 0.54676 0.0
H833 H 0.34827 0.12061 0.62869 0.0
H834 H 0.39167 0.14296 0.58582 0.0
H835 H 0.37923 0.15628 0.50591 0.0
C836 C 0.39785 0.12506 0.74455 0.0
C837 C 0.39487 0.10962 0.76107 0.0
C838 C 0.38988 0.13191 0.69836 0.0
C839 C 0.37872 0.12355 0.66658 0.0
C840 C 0.3754 0.1082 0.68409 0.0
C841 C 0.38337 0.10133 0.73076 0.0
C842 C 0.34804 0.13579 0.55478 0.0
C843 C 0.35646 0.14621 0.51985 0.0
C844 C 0.35522 0.1282 0.60174 0.0
C845 C 0.37099 0.13084 0.61487 0.0
C846 C 0.37944 0.14089 0.57848 0.0
C847 C 0.37229 0.14848 0.53205 0.0
H848 H 0.83759 0.87837 0.03951 0.0
H849 H 0.88104 0.85517 1.00532 0.0
H850 H 0.8497 0.89228 0.12058 0.0
H851 H 0.89312 0.86915 0.08436 0.0
H852 H 0.90685 0.88163 0.26525 0.0
H853 H 0.89307 0.86908 0.18662 0.0
H854 H 0.86874 0.91185 0.15062 0.0
H855 H 0.88241 0.9244 0.23122 0.0
C856 C 0.84974 0.87634 0.04885 0.0
C857 C 0.85827 0.86552 0.01604 0.0
C858 C 0.85671 0.88436 0.09527 0.0
C859 C 0.87239 0.88173 0.10996 0.0
C860 C 0.88094 0.87125 0.07573 0.0
C861 C 0.87401 0.86326 0.02983 0.0
C862 C 0.89852 0.88841 0.24088 0.0
C863 C 0.89586 0.9041 0.25454 0.0
C864 C 0.89066 0.88121 0.19523 0.0
C865 C 0.87991 0.88945 0.16116 0.0
C866 C 0.87688 0.90507 0.17581 0.0
C867 C 0.88476 0.9123 0.22194 0.0
H868 H 0.84418 0.12686 0.01253 0.0
H869 H 0.87298 0.16693 0.98106 0.0
H870 H 0.8572 0.11308 0.93326 0.0
H871 H 0.88519 0.15385 0.90043 0.0
H872 H 0.91647 0.12386 0.7957 0.0
H873 H 0.90297 0.13571 0.87603 0.0
H874 H 0.86178 0.1093 0.83439 0.0
H875 H 0.87594 0.09658 0.75529 0.0
C876 C 0.85321 0.13276 0.98842 0.0
C877 C 0.85768 0.14793 1.0038 0.0
C878 C 0.86063 0.12491 0.94251 0.0
C879 C 0.87255 0.13213 0.91014 0.0
C880 C 0.87656 0.14751 0.92493 0.0
C881 C 0.86942 0.15516 0.97127 0.0
C882 C 0.90451 0.12056 0.80347 0.0
C883 C 0.89727 0.10936 0.7685 0.0
C884 C 0.89663 0.12751 0.84964 0.0
C885 C 0.88102 0.12385 0.86188 0.0
C886 C 0.87378 0.11245 0.82711 0.0
C887 C 0.88185 0.1052 0.78132 0.0
H888 H 0.60448 0.12982 0.76341 0.0
H889 H 0.6265 0.08614 0.72306 0.0
H890 H 0.61789 0.14207 0.6832 0.0
H891 H 0.63978 0.09841 0.64081 0.0
H892 H 0.67113 0.13082 0.5264 0.0
H893 H 0.65923 0.11706 0.60816 0.0
H894 H 0.61675 0.14268 0.58128 0.0
H895 H 0.6287 0.15656 0.50143 0.0
C896 C 0.61221 0.12278 0.73733 0.0
C897 C 0.61429 0.10693 0.74972 0.0
C898 C 0.61984 0.12982 0.69073 0.0
C899 C 0.62977 0.12124 0.65435 0.0
C900 C 0.63228 0.10544 0.66774 0.0
C901 C 0.62463 0.09838 0.71489 0.0
C902 C 0.65922 0.13342 0.53785 0.0
C903 C 0.65094 0.14491 0.50745 0.0
C904 C 0.65236 0.12549 0.58471 0.0
C905 C 0.63704 0.12885 0.60232 0.0
C906 C 0.62868 0.13999 0.57039 0.0
C907 C 0.63552 0.14791 0.52401 0.0
H908 H 0.6754 0.87913 0.47638 0.0
H909 H 0.63177 0.85679 0.51511 0.0
H910 H 0.66317 0.89256 0.3943 0.0
H911 H 0.61962 0.87026 0.43502 0.0
H912 H 0.60587 0.88036 0.25248 0.0
H913 H 0.61992 0.86874 0.33232 0.0
H914 H 0.64382 0.91208 0.3621 0.0
H915 H 0.6298 0.92374 0.2803 0.0
C916 C 0.66319 0.87722 0.4679 0.0
C917 C 0.65464 0.86673 0.50218 0.0
C918 C 0.65616 0.88494 0.42088 0.0
C919 C 0.64042 0.88233 0.40705 0.0
C920 C 0.63184 0.87229 0.44298 0.0
C921 C 0.63882 0.86461 0.48946 0.0
C922 C 0.61417 0.88746 0.27565 0.0
C923 C 0.61657 0.90306 0.25997 0.0
C924 C 0.62219 0.88079 0.322 0.0
C925 C 0.63286 0.88949 0.3548 0.0
C926 C 0.63572 0.90498 0.33797 0.0
C927 C 0.62766 0.9117 0.29111 0.0
H928 H 0.67162 0.63327 0.4922 0.0
H929 H 0.62856 0.65737 0.52444 0.0
H930 H 0.65964 0.61979 0.41024 0.0
H931 H 0.61652 0.64371 0.44419 0.0
H932 H 0.60365 0.63148 0.26112 0.0
H933 H 0.61681 0.64372 0.34203 0.0
H934 H 0.64083 0.60077 0.37814 0.0
H935 H 0.62784 0.58858 0.29548 0.0
C936 C 0.65955 0.63555 0.48233 0.0
C937 C 0.65111 0.6465 0.51485 0.0
C938 C 0.65264 0.62778 0.43533 0.0
C939 C 0.63711 0.63075 0.41967 0.0
C940 C 0.62859 0.64135 0.45363 0.0
C941 C 0.63549 0.64912 0.50023 0.0
C942 C 0.6118 0.62462 0.286 0.0
C943 C 0.61461 0.609 0.2717 0.0
C944 C 0.61929 0.63163 0.33298 0.0
C945 C 0.62978 0.62324 0.36767 0.0
C946 C 0.63291 0.60768 0.35249 0.0
C947 C 0.62542 0.60065 0.3051 0.0
H948 H 0.62902 0.42167 0.73969 0.0
H949 H 0.60298 0.3795 0.76691 0.0
H950 H 0.64254 0.40949 0.65804 0.0
H951 H 0.61666 0.36723 0.68718 0.0
H952 H 0.62953 0.35426 0.50537 0.0
H953 H 0.61737 0.36778 0.58555 0.0
H954 H 0.66095 0.39012 0.62544 0.0
H955 H 0.6731 0.37677 0.54321 0.0
C956 C 0.6263 0.40975 0.72875 0.0
C957 C 0.6148 0.40163 0.75977 0.0
C958 C 0.6341 0.40272 0.68195 0.0
C959 C 0.63061 0.38737 0.66501 0.0
C960 C 0.61945 0.37917 0.69752 0.0
C961 C 0.61165 0.38619 0.74384 0.0
C962 C 0.63656 0.36211 0.53091 0.0
C963 C 0.65235 0.36433 0.51776 0.0
C964 C 0.62958 0.36981 0.57751 0.0
C965 C 0.63816 0.37992 0.61316 0.0
C966 C 0.6539 0.3825 0.59908 0.0
C967 C 0.6609 0.37481 0.55193 0.0
H968 H 0.87464 0.41695 0.75414 0.0
H969 H 0.91526 0.3897 0.79352 0.0
H970 H 0.8605 0.40395 0.83262 0.0
H971 H 0.90174 0.37752 0.87322 0.0
H972 H 0.87181 0.34586 0.97624 0.0
H973 H 0.88386 0.35923 0.896 0.0
H974 H 0.85601 0.3999 0.93179 0.0
H975 H 0.84314 0.38584 0.01084 0.0
C976 C 0.88058 0.40827 0.77979 0.0
C977 C 0.89602 0.40422 0.76688 0.0
C978 C 0.87251 0.40086 0.82523 0.0
C979 C 0.87977 0.38938 0.85951 0.0
C980 C 0.8954 0.3858 0.84718 0.0
C981 C 0.90329 0.39293 0.80138 0.0
C982 C 0.86822 0.35767 0.96716 0.0
C983 C 0.85659 0.3648 1.00053 0.0
C984 C 0.87528 0.36548 0.92107 0.0
C985 C 0.87129 0.38092 0.90732 0.0
C986 C 0.85943 0.38803 0.94032 0.0
C987 C 0.85208 0.38001 0.98605 0.0
H988 H 0.88419 0.58816 0.22789 0.0
H989 H 0.90805 0.63141 0.2595 0.0
H990 H 0.87056 0.60013 0.14603 0.0
H991 H 0.89432 0.64337 0.17952 0.0
H992 H 0.83877 0.63278 0.03508 0.0
H993 H 0.85128 0.61932 0.11605 0.0
H994 H 0.8943 0.64286 0.07694 0.0
H995 H 0.88177 0.65646 0.99767 0.0
C996 C 0.88642 0.60024 0.21779 0.0
C997 C 0.89733 0.60876 0.25012 0.0
C998 C 0.87857 0.60713 0.17093 0.0
C999 C 0.88145 0.62271 0.15531 0.0
C1000 C 0.89204 0.63126 0.18896 0.0
C1001 C 0.89986 0.6244 0.23537 0.0
C1002 C 0.85092 0.63499 0.04367 0.0
C1003 C 0.85921 0.64581 0.01003 0.0
C1004 C 0.85813 0.62723 0.09003 0.0
C1005 C 0.8738 0.63011 0.10387 0.0
C1006 C 0.88214 0.64057 0.06881 0.0
C1007 C 0.87496 0.64833 0.02284 0.0
H1008 H 0.38124 0.35499 0.50247 0.0
H1009 H 0.33808 0.37851 0.53865 0.0
H1010 H 0.39347 0.36839 0.58287 0.0
H1011 H 0.35028 0.39176 0.62078 0.0
H1012 H 0.40686 0.37948 0.76585 0.0
H1013 H 0.39327 0.36765 0.68523 0.0
H1014 H 0.36931 0.41084 0.65306 0.0
H1015 H 0.38279 0.42266 0.73557 0.0
C1016 C 0.37433 0.36306 0.5276 0.0
C1017 C 0.35862 0.36558 0.51406 0.0
C1018 C 0.38133 0.37069 0.57425 0.0
C1019 C 0.37286 0.38104 0.60937 0.0
C1020 C 0.35723 0.38394 0.5948 0.0
C1021 C 0.35021 0.37631 0.54772 0.0
C1022 C 0.39864 0.38649 0.74194 0.0
C1023 C 0.39601 0.40208 0.75723 0.0
C1024 C 0.3909 0.37971 0.69512 0.0
C1025 C 0.38032 0.3883 0.66153 0.0
C1026 C 0.37731 0.40381 0.67783 0.0
C1027 C 0.38507 0.41062 0.72513 0.0
H1028 H 0.38042 0.65499 0.51324 0.0
H1029 H 0.33739 0.63164 0.47405 0.0
H1030 H 0.39297 0.64183 0.43293 0.0
H1031 H 0.3499 0.61866 0.39188 0.0
H1032 H 0.38227 0.58785 0.27736 0.0
H1033 H 0.36861 0.59969 0.35936 0.0
H1034 H 0.39388 0.64237 0.33128 0.0
H1035 H 0.4077 0.63044 0.25116 0.0
C1036 C 0.3736 0.64702 0.48742 0.0
C1037 C 0.35784 0.64446 0.50025 0.0
C1038 C 0.3808 0.63953 0.44074 0.0
C1039 C 0.37248 0.62928 0.40478 0.0
C1040 C 0.35677 0.62638 0.4185 0.0
C1041 C 0.34956 0.63387 0.46563 0.0
C1042 C 0.38483 0.59979 0.28861 0.0
C1043 C 0.39619 0.60813 0.2577 0.0
C1044 C 0.37695 0.60662 0.33563 0.0
C1045 C 0.38021 0.622 0.35294 0.0
C1046 C 0.39126 0.63041 0.32066 0.0
C1047 C 0.39914 0.62358 0.27409 0.0
H1048 H 0.14043 0.66667 0.05397 0.0
H1049 H 0.16576 0.62536 1.00719 0.0
H1050 H 0.12884 0.65325 0.13496 0.0
H1051 H 0.15325 0.61128 0.08697 0.0
H1052 H 0.13606 0.59299 0.26435 0.0
H1053 H 0.14988 0.6061 0.18539 0.0
H1054 H 0.11024 0.63617 0.16033 0.0
H1055 H 0.09718 0.62386 0.24076 0.0
C1056 C 0.14337 0.65457 0.06056 0.0
C1057 C 0.15394 0.64708 0.02357 0.0
C1058 C 0.13655 0.64673 0.1071 0.0
C1059 C 0.13969 0.63092 0.11771 0.0
C1060 C 0.15051 0.62344 0.08101 0.0
C1061 C 0.15765 0.63147 0.03485 0.0
C1062 C 0.13043 0.60251 0.24208 0.0
C1063 C 0.1156 0.60751 0.25957 0.0
C1064 C 0.1383 0.60999 0.19632 0.0
C1065 C 0.13141 0.62248 0.16612 0.0
C1066 C 0.11636 0.62706 0.18311 0.0
C1067 C 0.10871 0.61987 0.22936 0.0
H1068 H 0.09245 0.39054 0.80372 0.0
H1069 H 0.13426 0.4143 0.75183 0.0
H1070 H 0.10591 0.37904 0.88467 0.0
H1071 H 0.14833 0.40185 0.8318 0.0
H1072 H 0.16652 0.38498 0.01014 0.0
H1073 H 0.15355 0.39895 0.9313 0.0
H1074 H 0.12277 0.35979 0.90744 0.0
H1075 H 0.135 0.34656 0.9875 0.0
C1076 C 0.10466 0.39315 0.80922 0.0
C1077 C 0.1123 0.40321 0.77077 0.0
C1078 C 0.1125 0.38639 0.85571 0.0
C1079 C 0.12844 0.38908 0.86478 0.0
C1080 C 0.13608 0.39947 0.82683 0.0
C1081 C 0.12805 0.40656 0.78065 0.0
C1082 C 0.15688 0.37949 0.98816 0.0
C1083 C 0.15166 0.36474 1.00581 0.0
C1084 C 0.14949 0.38744 0.94252 0.0
C1085 C 0.13684 0.38072 0.91281 0.0
C1086 C 0.13203 0.36575 0.92994 0.0
C1087 C 0.13917 0.35802 0.97596 0.0
H1088 H 0.16946 0.29356 0.18906 0.0
H1089 H 0.17817 0.29671 1.00545 0.0
H1090 H 0.1702 0.2656 0.18364 0.0
H1091 H 0.17822 0.26817 0.99935 0.0
H1092 H 0.18922 0.21479 0.03124 0.0
H1093 H 0.19111 0.24331 0.02754 0.0
H1094 H 0.15275 0.24667 0.1475 0.0
H1095 H 0.1513 0.21865 0.15264 0.0
C1096 C 0.17154 0.28828 0.1473 0.0
C1097 C 0.1736 0.29742 0.09759 0.0
C1098 C 0.17184 0.27215 0.1441 0.0
C1099 C 0.17387 0.26456 0.09082 0.0
C1100 C 0.1766 0.27364 0.04109 0.0
C1101 C 0.17652 0.28997 0.04451 0.0
C1102 C 0.1812 0.22172 0.05652 0.0
C1103 C 0.17028 0.21451 0.09294 0.0
C1104 C 0.18224 0.23802 0.05427 0.0
C1105 C 0.1723 0.24731 0.08818 0.0
C1106 C 0.16094 0.23995 0.12221 0.0
C1107 C 0.16004 0.22383 0.12493 0.0
H1108 H 0.96737 0.92232 0.44082 0.0
H1109 H 0.96476 0.93027 0.25675 0.0
H1110 H 0.99538 0.92338 0.43646 0.0
H1111 H 0.99326 0.93059 0.25161 0.0
H1112 H 0.04631 0.94117 0.27868 0.0
H1113 H 0.01782 0.94329 0.27702 0.0
H1114 H 0.01483 0.9065 0.40376 0.0
H1115 H 0.04281 0.90491 0.40695 0.0
C1116 C 0.9728 0.92427 0.39921 0.0
C1117 C 0.96382 0.92603 0.34904 0.0
C1118 C 0.98894 0.92476 0.39658 0.0
C1119 C 0.99669 0.92668 0.34343 0.0
C1120 C 0.98771 0.92909 0.29329 0.0
C1121 C 0.9714 0.92885 0.29615 0.0
C1122 C 0.03947 0.93359 0.30604 0.0
C1123 C 0.0468 0.92303 0.34352 0.0
C1124 C 0.02317 0.93474 0.30498 0.0
C1125 C 0.01397 0.92528 0.34112 0.0
C1126 C 0.02145 0.91436 0.37673 0.0
C1127 C 0.03757 0.91336 0.37827 0.0
H1128 H 0.33239 0.79454 0.50311 0.0
H1129 H 0.33936 0.79181 0.68763 0.0
H1130 H 0.33144 0.76603 0.49818 0.0
H1131 H 0.33767 0.76382 0.68349 0.0
H1132 H 0.35534 0.71597 0.65583 0.0
H1133 H 0.35428 0.74399 0.65244 0.0
H1134 H 0.31831 0.74167 0.52254 0.0
H1135 H 0.3199 0.71313 0.52445 0.0
C1136 C 0.33344 0.78788 0.54265 0.0
C1137 C 0.33621 0.79541 0.59562 0.0
C1138 C 0.33285 0.77156 0.53992 0.0
C1139 C 0.33485 0.76254 0.59027 0.0
C1140 C 0.33664 0.77027 0.64346 0.0
C1141 C 0.3375 0.78641 0.64597 0.0
C1142 C 0.34719 0.72137 0.6264 0.0
C1143 C 0.3376 0.71231 0.59082 0.0
C1144 C 0.34648 0.73752 0.62474 0.0
C1145 C 0.33594 0.74521 0.58817 0.0
C1146 C 0.32657 0.73617 0.55124 0.0
C1147 C 0.32743 0.71984 0.55242 0.0
H1148 H 0.46334 0.08334 0.75418 0.0
H1149 H 0.46714 0.08782 0.93957 0.0
H1150 H 0.49185 0.08231 0.74693 0.0
H1151 H 0.49504 0.08619 0.93286 0.0
H1152 H 0.54206 0.10556 0.90377 0.0
H1153 H 0.51406 0.10427 0.9005 0.0
H1154 H 0.51661 0.06827 0.7706 0.0
H1155 H 0.54516 0.06997 0.77268 0.0
C1156 C 0.47022 0.08382 0.79333 0.0
C1157 C 0.46299 0.08596 0.84735 0.0
C1158 C 0.48652 0.08319 0.78924 0.0
C1159 C 0.49577 0.08456 0.83922 0.0
C1160 C 0.48836 0.08564 0.89325 0.0
C1161 C 0.47226 0.08649 0.89717 0.0
C1162 C 0.53673 0.09735 0.87435 0.0
C1163 C 0.54585 0.08773 0.83901 0.0
C1164 C 0.52061 0.09654 0.87269 0.0
C1165 C 0.51303 0.0859 0.83625 0.0
C1166 C 0.52209 0.07657 0.79925 0.0
C1167 C 0.5384 0.07749 0.80056 0.0
H1168 H 0.17919 0.79697 0.01659 0.0
H1169 H 0.17819 0.79296 0.83051 0.0
H1170 H 0.18012 0.76843 0.02434 0.0
H1171 H 0.1797 0.76503 0.83798 0.0
H1172 H 0.15701 0.71922 0.86537 0.0
H1173 H 0.15961 0.7471 0.86897 0.0
H1174 H 0.19475 0.74292 1.00111 0.0
H1175 H 0.19189 0.7144 0.99826 0.0
C1176 C 0.17952 0.79005 0.97748 0.0
C1177 C 0.17832 0.79721 0.92296 0.0
C1178 C 0.18009 0.77374 0.98189 0.0
C1179 C 0.17961 0.76445 0.93176 0.0
C1180 C 0.17962 0.77179 0.87751 0.0
C1181 C 0.17882 0.78789 0.87321 0.0
C1182 C 0.16534 0.72412 0.89533 0.0
C1183 C 0.1744 0.71454 0.93099 0.0
C1184 C 0.16687 0.74019 0.8972 0.0
C1185 C 0.17763 0.74727 0.93443 0.0
C1186 C 0.1864 0.73779 0.97179 0.0
C1187 C 0.18481 0.7215 0.97003 0.0
H1188 H 0.4651 0.93085 0.26108 0.0
H1189 H 0.46863 0.92252 0.0774 0.0
H1190 H 0.49361 0.93116 0.26786 0.0
H1191 H 0.49663 0.92339 0.08356 0.0
H1192 H 0.54301 0.90322 0.11831 0.0
H1193 H 0.51506 0.90536 0.12164 0.0
H1194 H 0.51877 0.94406 0.23977 0.0
H1195 H 0.54727 0.94155 0.23764 0.0
C1196 C 0.47193 0.92937 0.22212 0.0
C1197 C 0.46462 0.9264 0.16887 0.0
C1198 C 0.48823 0.92959 0.22594 0.0
C1199 C 0.49742 0.92694 0.17646 0.0
C1200 C 0.48997 0.92498 0.12289 0.0
C1201 C 0.47384 0.92457 0.11926 0.0
C1202 C 0.53795 0.91219 0.14524 0.0
C1203 C 0.54737 0.92234 0.17715 0.0
C1204 C 0.52186 0.91348 0.14687 0.0
C1205 C 0.51462 0.92513 0.17985 0.0
C1206 C 0.52399 0.93499 0.21377 0.0
C1207 C 0.54027 0.93358 0.21249 0.0
H1208 H 0.31893 0.21539 0.49242 0.0
H1209 H 0.35593 0.21765 0.36665 0.0
H1210 H 0.31801 0.24395 0.49517 0.0
H1211 H 0.35555 0.24569 0.37109 0.0
H1212 H 0.34125 0.29356 0.33286 0.0
H1213 H 0.33953 0.26565 0.33746 0.0
H1214 H 0.33135 0.26814 0.52171 0.0
H1215 H 0.33225 0.29666 0.51627 0.0
C1216 C 0.32694 0.22197 0.46588 0.0
C1217 C 0.33733 0.2143 0.42866 0.0
C1218 C 0.32648 0.23831 0.4676 0.0
C1219 C 0.3365 0.24719 0.43247 0.0
C1220 C 0.34728 0.23934 0.39732 0.0
C1221 C 0.34758 0.22319 0.39503 0.0
C1222 C 0.33894 0.28828 0.37444 0.0
C1223 C 0.33701 0.29739 0.42429 0.0
C1224 C 0.33809 0.27215 0.3772 0.0
C1225 C 0.33569 0.26452 0.43021 0.0
C1226 C 0.33322 0.27361 0.48012 0.0
C1227 C 0.33381 0.28993 0.4771 0.0
H1228 H 0.96994 0.10257 0.60934 0.0
H1229 H 0.96386 0.07123 0.75354 0.0
H1230 H 0.99773 0.09955 0.6155 0.0
H1231 H 0.99227 0.06795 0.75917 0.0
H1232 H 0.04615 0.08391 0.77505 0.0
H1233 H 0.01758 0.08292 0.7798 0.0
H1234 H 0.01583 0.07875 0.59374 0.0
H1235 H 0.04385 0.08023 0.58915 0.0
C1236 C 0.97454 0.09491 0.64231 0.0
C1237 C 0.96463 0.087 0.68053 0.0
C1238 C 0.99055 0.09312 0.64565 0.0
C1239 C 0.99725 0.08326 0.68708 0.0
C1240 C 0.98744 0.07559 0.72664 0.0
C1241 C 0.97121 0.07742 0.7233 0.0
C1242 C 0.03958 0.08251 0.73547 0.0
C1243 C 0.0472 0.08249 0.68162 0.0
C1244 C 0.02326 0.08192 0.73815 0.0
C1245 C 0.01442 0.08115 0.68699 0.0
C1246 C 0.02224 0.07983 0.63385 0.0
C1247 C 0.03836 0.08065 0.63118 0.0
H1248 H 0.8332 0.71484 1.00947 0.0
H1249 H 0.84224 0.71746 0.826 0.0
H1250 H 0.83284 0.74334 0.0144 0.0
H1251 H 0.84113 0.74546 0.83012 0.0
H1252 H 0.85824 0.79344 0.85993 0.0
H1253 H 0.85729 0.76538 0.86326 0.0
H1254 H 0.81994 0.76755 0.98804 0.0
H1255 H 0.82141 0.79605 0.98632 0.0
C1256 C 0.83489 0.72148 0.97016 0.0
C1257 C 0.83794 0.71388 0.9175 0.0
C1258 C 0.83461 0.73779 0.97288 0.0
C1259 C 0.83725 0.74678 0.92284 0.0
C1260 C 0.83955 0.73903 0.86995 0.0
C1261 C 0.84006 0.72287 0.86746 0.0
C1262 C 0.84982 0.78798 0.88821 0.0
C1263 C 0.8398 0.79698 0.92243 0.0
C1264 C 0.84918 0.77182 0.88985 0.0
C1265 C 0.83831 0.76409 0.92501 0.0
C1266 C 0.82848 0.77308 0.96051 0.0
C1267 C 0.82926 0.7894 0.95938 0.0
H1268 H 0.67588 0.21358 0.51527 0.0
H1269 H 0.67452 0.21705 0.32913 0.0
H1270 H 0.67681 0.24212 0.52194 0.0
H1271 H 0.67602 0.24501 0.3354 0.0
H1272 H 0.65542 0.29186 0.35992 0.0
H1273 H 0.65716 0.26387 0.36354 0.0
H1274 H 0.69111 0.26702 0.50045 0.0
H1275 H 0.68898 0.29555 0.49781 0.0
C1276 C 0.67608 0.2204 0.47589 0.0
C1277 C 0.6748 0.21308 0.4217 0.0
C1278 C 0.67665 0.23671 0.47966 0.0
C1279 C 0.67609 0.24589 0.4292 0.0
C1280 C 0.67594 0.23838 0.37523 0.0
C1281 C 0.67514 0.22226 0.37159 0.0
C1282 C 0.66328 0.28667 0.39093 0.0
C1283 C 0.6722 0.29596 0.42811 0.0
C1284 C 0.66435 0.27055 0.3928 0.0
C1285 C 0.67453 0.26314 0.43142 0.0
C1286 C 0.68318 0.27236 0.47009 0.0
C1287 C 0.68201 0.28867 0.46846 0.0
H1288 H 0.85458 0.29348 0.16091 0.0
H1289 H 0.81876 0.29713 0.03118 0.0
H1290 H 0.85297 0.26549 0.15709 0.0
H1291 H 0.81669 0.26862 0.02868 0.0
H1292 H 0.83081 0.21549 1.00792 0.0
H1293 H 0.83006 0.24402 1.00307 0.0
H1294 H 0.83545 0.24616 0.18872 0.0
H1295 H 0.83687 0.21818 0.19295 0.0
C1296 C 0.84623 0.28828 0.13176 0.0
C1297 C 0.83668 0.29755 0.09681 0.0
C1298 C 0.84522 0.27215 0.12981 0.0
C1299 C 0.83445 0.26472 0.09349 0.0
C1300 C 0.82511 0.27396 0.05719 0.0
C1301 C 0.82624 0.29026 0.05876 0.0
C1302 C 0.8317 0.22213 0.04755 0.0
C1303 C 0.83416 0.21458 0.10069 0.0
C1304 C 0.83122 0.23846 0.04485 0.0
C1305 C 0.83306 0.24744 0.09537 0.0
C1306 C 0.83452 0.23971 0.14865 0.0
C1307 C 0.83523 0.22357 0.15116 0.0
H1308 H 0.66832 0.71947 0.68947 0.0
H1309 H 0.67829 0.71513 0.50707 0.0
H1310 H 0.67001 0.74732 0.68235 0.0
H1311 H 0.67924 0.74363 0.49911 0.0
H1312 H 0.69185 0.79681 0.52903 0.0
H1313 H 0.69271 0.76821 0.52675 0.0
H1314 H 0.6536 0.76668 0.64382 0.0
H1315 H 0.65319 0.79473 0.64775 0.0
C1316 C 0.67086 0.72445 0.64758 0.0
C1317 C 0.67303 0.71501 0.59873 0.0
C1318 C 0.6717 0.74054 0.64338 0.0
C1319 C 0.67437 0.74782 0.58987 0.0
C1320 C 0.67714 0.73842 0.54101 0.0
C1321 C 0.67653 0.72211 0.54548 0.0
C1322 C 0.68346 0.79026 0.554 0.0
C1323 C 0.67263 0.79799 0.58934 0.0
C1324 C 0.6839 0.77392 0.55255 0.0
C1325 C 0.67344 0.76511 0.58611 0.0
C1326 C 0.66218 0.773 0.61891 0.0
C1327 C 0.66188 0.78915 0.62093 0.0
H1328 H 0.54659 0.42717 0.75246 0.0
H1329 H 0.54324 0.42657 0.93873 0.0
H1330 H 0.51804 0.42786 0.74614 0.0
H1331 H 0.51527 0.42773 0.9327 0.0
H1332 H 0.46914 0.40549 0.90893 0.0
H1333 H 0.49705 0.40784 0.90404 0.0
H1334 H 0.49279 0.44229 0.76917 0.0
H1335 H 0.46431 0.43963 0.77324 0.0
C1336 C 0.5398 0.42751 0.79191 0.0
C1337 C 0.54714 0.42648 0.84608 0.0
C1338 C 0.52349 0.42793 0.78832 0.0
C1339 C 0.51437 0.42745 0.83894 0.0
C1340 C 0.52189 0.42761 0.89282 0.0
C1341 C 0.538 0.42699 0.89631 0.0
C1342 C 0.47406 0.41359 0.87808 0.0
C1343 C 0.46447 0.42252 0.84199 0.0
C1344 C 0.49012 0.415 0.87547 0.0
C1345 C 0.49719 0.42551 0.83711 0.0
C1346 C 0.48769 0.43412 0.79933 0.0
C1347 C 0.47142 0.43264 0.80177 0.0
H1348 H 0.96918 0.60728 0.40998 0.0
H1349 H 0.96599 0.57151 0.27969 0.0
H1350 H 0.9972 0.60569 0.40722 0.0
H1351 H 0.99445 0.56941 0.27843 0.0
H1352 H 0.04755 0.58205 0.25992 0.0
H1353 H 0.01906 0.58213 0.25404 0.0
H1354 H 0.01654 0.58857 0.43923 0.0
H1355 H 0.04451 0.58925 0.44439 0.0
C1356 C 0.97449 0.59896 0.38095 0.0
C1357 C 0.96535 0.58942 0.34549 0.0
C1358 C 0.99063 0.59795 0.37962 0.0
C1359 C 0.99817 0.58718 0.34348 0.0
C1360 C 0.98905 0.57785 0.30674 0.0
C1361 C 0.97276 0.57899 0.30762 0.0
C1362 C 0.04083 0.58339 0.29922 0.0
C1363 C 0.04831 0.58584 0.35249 0.0
C1364 C 0.02452 0.58339 0.29595 0.0
C1365 C 0.01544 0.58569 0.34602 0.0
C1366 C 0.02306 0.58729 0.39943 0.0
C1367 C 0.0392 0.58754 0.4025 0.0
H1368 H 0.96629 0.43053 0.58359 0.0
H1369 H 0.96322 0.43048 0.76991 0.0
H1370 H 0.99432 0.4316 0.58916 0.0
H1371 H 0.99178 0.43111 0.77573 0.0
H1372 H 0.04582 0.44165 0.74747 0.0
H1373 H 0.01746 0.44543 0.75137 0.0
H1374 H 0.01183 0.4107 0.61825 0.0
H1375 H 0.03961 0.40715 0.6138 0.0
C1376 C 0.97162 0.43086 0.6259 0.0
C1377 C 0.96256 0.43012 0.67629 0.0
C1378 C 0.98773 0.43144 0.62912 0.0
C1379 C 0.99531 0.43101 0.68286 0.0
C1380 C 0.98627 0.4314 0.73367 0.0
C1381 C 0.96996 0.43102 0.73037 0.0
C1382 C 0.03844 0.43486 0.71925 0.0
C1383 C 0.04497 0.42425 0.6798 0.0
C1384 C 0.02225 0.43699 0.72159 0.0
C1385 C 0.01242 0.42858 0.68433 0.0
C1386 C 0.01905 0.41768 0.64646 0.0
C1387 C 0.03504 0.41559 0.64411 0.0
H1388 H 0.46462 0.58326 0.26339 0.0
H1389 H 0.46825 0.58568 0.07742 0.0
H1390 H 0.49312 0.58263 0.27035 0.0
H1391 H 0.49621 0.58439 0.08389 0.0
H1392 H 0.54311 0.60469 0.10981 0.0
H1393 H 0.51514 0.60281 0.11226 0.0
H1394 H 0.518 0.56896 0.24983 0.0
H1395 H 0.54648 0.57128 0.24853 0.0
C1396 C 0.47147 0.58335 0.22408 0.0
C1397 C 0.4642 0.58482 0.16992 0.0
C1398 C 0.48777 0.58296 0.228 0.0
C1399 C 0.497 0.58386 0.17771 0.0
C1400 C 0.48955 0.58423 0.12366 0.0
C1401 C 0.47344 0.58488 0.11989 0.0
C1402 C 0.53785 0.59681 0.14071 0.0
C1403 C 0.54705 0.58801 0.17855 0.0
C1404 C 0.52174 0.59565 0.14187 0.0
C1405 C 0.51425 0.58546 0.18036 0.0
C1406 C 0.52339 0.5769 0.21957 0.0
C1407 C 0.53968 0.57818 0.21872 0.0
H1408 H 0.16017 0.16412 0.35975 0.0
H1409 H 0.1428 0.13526 0.22137 0.0
H1410 H 0.1478 0.14742 0.43066 0.0
H1411 H 0.1305 0.11823 0.29312 0.0
H1412 H 0.09068 0.11197 0.42524 0.0
H1413 H 0.10796 0.12315 0.35473 0.0
H1414 H 0.14545 0.12194 0.47847 0.0
H1415 H 0.12784 0.11064 0.55087 0.0
C1416 C 0.15388 0.15403 0.34446 0.0
C1417 C 0.15216 0.15119 0.28479 0.0
C1418 C 0.14694 0.14435 0.38534 0.0
C1419 C 0.13802 0.13159 0.36767 0.0
C1420 C 0.13714 0.12812 0.30807 0.0
C1421 C 0.14422 0.13781 0.26695 0.0
C1422 C 0.1026 0.11399 0.43805 0.0
C1423 C 0.10777 0.11051 0.49444 0.0
C1424 C 0.1126 0.12024 0.39689 0.0
C1425 C 0.12813 0.1233 0.41055 0.0
C1426 C 0.13349 0.11971 0.46663 0.0
C1427 C 0.12343 0.11328 0.50814 0.0
H1428 H 0.1257 0.89218 0.4607 0.0
H1429 H 0.09964 0.91211 0.60215 0.0
H1430 H 0.14271 0.87919 0.53066 0.0
H1431 H 0.11623 0.89903 0.67124 0.0
H1432 H 0.15314 0.87818 0.78742 0.0
H1433 H 0.14165 0.89565 0.71535 0.0
H1434 H 0.13798 0.85742 0.59517 0.0
H1435 H 0.14942 0.84025 0.66548 0.0
C1436 C 0.12376 0.89398 0.50652 0.0
C1437 C 0.11115 0.90291 0.52581 0.0
C1438 C 0.13341 0.88649 0.54663 0.0
C1439 C 0.13071 0.88792 0.60665 0.0
C1440 C 0.11874 0.89771 0.62558 0.0
C1441 C 0.10909 0.90508 0.58574 0.0
C1442 C 0.1499 0.87355 0.74557 0.0
C1443 C 0.15217 0.85776 0.73273 0.0
C1444 C 0.14336 0.88355 0.70421 0.0
C1445 C 0.13904 0.87796 0.64916 0.0
C1446 C 0.14148 0.86224 0.63642 0.0
C1447 C 0.14792 0.85232 0.67743 0.0
H1448 H 0.40587 0.91947 0.92135 0.0
H1449 H 0.39196 0.88502 0.04641 0.0
H1450 H 0.38941 0.90742 0.84861 0.0
H1451 H 0.37607 0.87227 0.97288 0.0
H1452 H 0.34339 0.85466 0.83966 0.0
H1453 H 0.35459 0.87181 0.91212 0.0
H1454 H 0.38992 0.88562 0.7892 0.0
H1455 H 0.37798 0.86901 0.71586 0.0
C1456 C 0.3991 0.90935 0.93327 0.0
C1457 C 0.40015 0.90313 0.9893 0.0
C1458 C 0.3898 0.90232 0.89139 0.0
C1459 C 0.38157 0.88866 0.90412 0.0
C1460 C 0.38207 0.88286 0.96132 0.0
C1461 C 0.39118 0.89012 1.00366 0.0
C1462 C 0.35336 0.86167 0.82796 0.0
C1463 C 0.35988 0.86055 0.77238 0.0
C1464 C 0.3599 0.87136 0.86968 0.0
C1465 C 0.37336 0.87996 0.85728 0.0
C1466 C 0.37945 0.87935 0.80048 0.0
C1467 C 0.37267 0.86983 0.75826 0.0
H1468 H 0.38075 0.10746 0.98327 0.0
H1469 H 0.41921 0.11847 0.09628 0.0
H1470 H 0.36271 0.11737 0.05698 0.0
H1471 H 0.40145 0.12814 0.1683 0.0
H1472 H 0.36788 0.13609 0.30891 0.0
H1473 H 0.38123 0.11979 0.23732 0.0
H1474 H 0.35671 0.1432 0.09972 0.0
H1475 H 0.34338 0.1592 0.17075 0.0
C1476 C 0.38537 0.11198 0.02343 0.0
C1477 C 0.40146 0.11215 0.03344 0.0
C1478 C 0.37505 0.11756 0.06575 0.0
C1479 C 0.38065 0.12326 0.11898 0.0
C1480 C 0.39669 0.12343 0.12862 0.0
C1481 C 0.40692 0.11803 0.08659 0.0
C1482 C 0.36506 0.13739 0.26352 0.0
C1483 C 0.35484 0.14907 0.24528 0.0
C1484 C 0.37275 0.12817 0.22248 0.0
C1485 C 0.37019 0.13039 0.16275 0.0
C1486 C 0.35893 0.14115 0.1452 0.0
C1487 C 0.3514 0.15041 0.18597 0.0
H1488 H 0.90341 0.92206 0.59372 0.0
H1489 H 0.89003 0.88712 0.46994 0.0
H1490 H 0.8865 0.91039 0.66613 0.0
H1491 H 0.87375 0.87471 0.54314 0.0
H1492 H 0.84128 0.85678 0.6758 0.0
H1493 H 0.85217 0.87414 0.60326 0.0
H1494 H 0.887 0.88885 0.72642 0.0
H1495 H 0.87534 0.87208 0.79976 0.0
C1496 C 0.89663 0.91194 0.58197 0.0
C1497 C 0.89796 0.90545 0.52647 0.0
C1498 C 0.88709 0.90513 0.62365 0.0
C1499 C 0.87892 0.8914 0.61125 0.0
C1500 C 0.87967 0.88537 0.55444 0.0
C1501 C 0.88901 0.89243 0.51228 0.0
C1502 C 0.85104 0.86405 0.68752 0.0
C1503 C 0.85752 0.86314 0.74313 0.0
C1504 C 0.85742 0.87388 0.64578 0.0
C1505 C 0.87068 0.88276 0.65822 0.0
C1506 C 0.87668 0.88237 0.71509 0.0
C1507 C 0.87006 0.87275 0.75732 0.0
H1508 H 0.84601 0.16036 0.35569 0.0
H1509 H 0.87035 0.13726 0.21683 0.0
H1510 H 0.85942 0.14442 0.4263 0.0
H1511 H 0.88377 0.12096 0.28816 0.0
H1512 H 0.92156 0.11855 0.42946 0.0
H1513 H 0.90405 0.12845 0.35717 0.0
H1514 H 0.86505 0.11885 0.4691 0.0
H1515 H 0.88283 0.10876 0.54308 0.0
C1516 C 0.85405 0.15162 0.3402 0.0
C1517 C 0.85739 0.15026 0.28077 0.0
C1518 C 0.86162 0.14237 0.38079 0.0
C1519 C 0.87282 0.13156 0.36303 0.0
C1520 C 0.87535 0.12938 0.30321 0.0
C1521 C 0.86762 0.13861 0.26232 0.0
C1522 C 0.90926 0.11844 0.43923 0.0
C1523 C 0.90366 0.11286 0.4927 0.0
C1524 C 0.89917 0.12397 0.39704 0.0
C1525 C 0.88313 0.12422 0.40679 0.0
C1526 C 0.87739 0.11875 0.46023 0.0
C1527 C 0.88757 0.11306 0.50273 0.0
H1528 H 0.65091 0.13124 0.28879 0.0
H1529 H 0.6455 0.16903 0.16707 0.0
H1530 H 0.64053 0.11325 0.21597 0.0
H1531 H 0.63526 0.15134 0.09612 0.0
H1532 H 0.62491 0.11688 0.96059 0.0
H1533 H 0.64167 0.1297 0.03186 0.0
H1534 H 0.61502 0.10908 0.17043 0.0
H1535 H 0.59862 0.09621 0.0999 0.0
C1536 C 0.64755 0.13572 0.24686 0.0
C1537 C 0.64897 0.15164 0.23433 0.0
C1538 C 0.64167 0.12542 0.20508 0.0
C1539 C 0.63726 0.13084 0.1499 0.0
C1540 C 0.63888 0.14668 0.13748 0.0
C1541 C 0.64459 0.15689 0.17891 0.0
C1542 C 0.62293 0.11482 1.00624 0.0
C1543 C 0.61028 0.10583 0.02466 0.0
C1544 C 0.63244 0.1222 0.04708 0.0
C1545 C 0.62952 0.12058 0.1069 0.0
C1546 C 0.61765 0.11056 0.12492 0.0
C1547 C 0.60813 0.10331 0.08433 0.0
H1548 H 0.64463 0.87721 0.71272 0.0
H1549 H 0.66473 0.85052 0.8519 0.0
H1550 H 0.63183 0.89401 0.78405 0.0
H1551 H 0.65186 0.86694 0.92248 0.0
H1552 H 0.62963 0.9023 0.0419 0.0
H1553 H 0.64777 0.89226 0.96886 0.0
H1554 H 0.61001 0.88783 0.84728 0.0
H1555 H 0.59219 0.8978 0.91842 0.0
C1556 C 0.64657 0.87515 0.75836 0.0
C1557 C 0.65539 0.86238 0.77671 0.0
C1558 C 0.6392 0.88468 0.79924 0.0
C1559 C 0.64065 0.88166 0.85903 0.0
C1560 C 0.65052 0.86966 0.87701 0.0
C1561 C 0.65776 0.86013 0.83638 0.0
C1562 C 0.62526 0.89923 0.99949 0.0
C1563 C 0.60939 0.90074 0.98658 0.0
C1564 C 0.63564 0.89353 0.95761 0.0
C1565 C 0.63035 0.8894 0.90196 0.0
C1566 C 0.61458 0.89122 0.88906 0.0
C1567 C 0.60428 0.89676 0.93058 0.0
H1568 H 0.62749 0.61618 0.06109 0.0
H1569 H 0.59913 0.59986 0.91958 0.0
H1570 H 0.64492 0.62876 0.99135 0.0
H1571 H 0.61606 0.61261 0.85092 0.0
H1572 H 0.65165 0.63302 0.73152 0.0
H1573 H 0.64072 0.61508 0.80315 0.0
H1574 H 0.64188 0.65143 0.93189 0.0
H1575 H 0.65297 0.66899 0.86206 0.0
C1576 C 0.6251 0.61509 0.01528 0.0
C1577 C 0.61175 0.60732 0.99606 0.0
C1578 C 0.63501 0.62235 0.97528 0.0
C1579 C 0.63179 0.62186 0.91541 0.0
C1580 C 0.61901 0.61318 0.8964 0.0
C1581 C 0.60916 0.60602 0.93609 0.0
C1582 C 0.64969 0.6371 0.77526 0.0
C1583 C 0.65303 0.65254 0.79047 0.0
C1584 C 0.64343 0.62683 0.81634 0.0
C1585 C 0.64042 0.6318 0.87347 0.0
C1586 C 0.64426 0.64706 0.88885 0.0
C1587 C 0.65046 0.65725 0.84813 0.0
H1588 H 0.66271 0.34848 0.16713 0.0
H1589 H 0.64245 0.37506 0.30651 0.0
H1590 H 0.65001 0.36504 0.09664 0.0
H1591 H 0.6298 0.39196 0.23526 0.0
H1592 H 0.5907 0.39671 0.09997 0.0
H1593 H 0.6081 0.38598 0.1708 0.0
H1594 H 0.64637 0.3907 0.05128 0.0
H1595 H 0.62865 0.40159 0.97856 0.0
C1596 C 0.65572 0.35807 0.18273 0.0
C1597 C 0.65329 0.36027 0.24244 0.0
C1598 C 0.64858 0.36768 0.14215 0.0
C1599 C 0.63874 0.3797 0.1602 0.0
C1600 C 0.63716 0.38262 0.22002 0.0
C1601 C 0.64444 0.37302 0.26085 0.0
C1602 C 0.60281 0.39558 0.08816 0.0
C1603 C 0.60819 0.39997 0.03288 0.0
C1604 C 0.61286 0.38958 0.12953 0.0
C1605 C 0.62867 0.38767 0.11718 0.0
C1606 C 0.63421 0.39207 0.06211 0.0
C1607 C 0.62408 0.39824 0.0204 0.0
H1608 H 0.92101 0.38868 0.44286 0.0
H1609 H 0.88142 0.40723 0.53504 0.0
H1610 H 0.90408 0.37864 0.36855 0.0
H1611 H 0.86425 0.39679 0.45955 0.0
H1612 H 0.84325 0.35464 0.34926 0.0
H1613 H 0.85657 0.37021 0.42195 0.0
H1614 H 0.88675 0.38869 0.28951 0.0
H1615 H 0.87329 0.373 0.21635 0.0
C1616 C 0.90866 0.39063 0.44749 0.0
C1617 C 0.90262 0.39889 0.49511 0.0
C1618 C 0.89895 0.38498 0.40427 0.0
C1619 C 0.88287 0.38726 0.40736 0.0
C1620 C 0.87665 0.39502 0.4558 0.0
C1621 C 0.88645 0.40086 0.49923 0.0
C1622 C 0.85249 0.36234 0.33547 0.0
C1623 C 0.85739 0.36253 0.27738 0.0
C1624 C 0.86005 0.37131 0.37709 0.0
C1625 C 0.87282 0.3805 0.36162 0.0
C1626 C 0.87703 0.38155 0.30272 0.0
C1627 C 0.86929 0.3727 0.26078 0.0
H1628 H 0.83928 0.65392 0.66825 0.0
H1629 H 0.87302 0.63974 0.79525 0.0
H1630 H 0.85143 0.63719 0.59641 0.0
H1631 H 0.88593 0.62371 0.72275 0.0
H1632 H 0.90492 0.59161 0.59101 0.0
H1633 H 0.88714 0.60248 0.66218 0.0
H1634 H 0.87319 0.6374 0.53797 0.0
H1635 H 0.89033 0.62571 0.46588 0.0
C1636 C 0.84925 0.64704 0.6808 0.0
C1637 C 0.85526 0.64809 0.73712 0.0
C1638 C 0.85635 0.63759 0.63945 0.0
C1639 C 0.8699 0.62925 0.65297 0.0
C1640 C 0.87543 0.62975 0.71048 0.0
C1641 C 0.86808 0.63897 0.75228 0.0
C1642 C 0.89774 0.60141 0.57877 0.0
C1643 C 0.89896 0.60789 0.5232 0.0
C1644 C 0.88767 0.60777 0.61975 0.0
C1645 C 0.87886 0.62105 0.60666 0.0
C1646 C 0.8796 0.62707 0.54983 0.0
C1647 C 0.88944 0.62044 0.50832 0.0
H1648 H 0.34621 0.35006 0.1629 0.0
H1649 H 0.36617 0.37649 0.30315 0.0
H1650 H 0.35951 0.36635 0.09306 0.0
H1651 H 0.37935 0.39317 0.23255 0.0
H1652 H 0.41919 0.39761 0.0999 0.0
H1653 H 0.40126 0.38731 0.17006 0.0
H1654 H 0.36383 0.39155 0.04699 0.0
H1655 H 0.38208 0.40189 0.97498 0.0
C1656 C 0.35325 0.35957 0.17885 0.0
C1657 C 0.35543 0.36178 0.23868 0.0
C1658 C 0.36074 0.36903 0.13861 0.0
C1659 C 0.37066 0.38094 0.15708 0.0
C1660 C 0.37196 0.3839 0.21694 0.0
C1661 C 0.36436 0.37443 0.25743 0.0
C1662 C 0.40715 0.39646 0.08722 0.0
C1663 C 0.40216 0.40049 0.03111 0.0
C1664 C 0.39678 0.39071 0.12817 0.0
C1665 C 0.38106 0.38874 0.11458 0.0
C1666 C 0.37591 0.39291 0.05879 0.0
C1667 C 0.38635 0.3988 0.01749 0.0
H1668 H 0.41958 0.61538 0.91878 0.0
H1669 H 0.38176 0.60698 0.03809 0.0
H1670 H 0.40162 0.62545 0.84841 0.0
H1671 H 0.36351 0.61722 0.96596 0.0
H1672 H 0.34428 0.65864 0.85171 0.0
H1673 H 0.35802 0.64281 0.92194 0.0
H1674 H 0.38055 0.61801 0.78281 0.0
H1675 H 0.36685 0.63415 0.71195 0.0
C1676 C 0.40739 0.6156 0.93021 0.0
C1677 C 0.40219 0.61037 0.98471 0.0
C1678 C 0.39703 0.62123 0.88913 0.0
C1679 C 0.38109 0.62193 0.90102 0.0
C1680 C 0.37576 0.61679 0.95546 0.0
C1681 C 0.3862 0.61098 0.99686 0.0
C1682 C 0.35198 0.64963 0.83595 0.0
C1683 C 0.35472 0.64783 0.77624 0.0
C1684 C 0.35975 0.64045 0.87636 0.0
C1685 C 0.37054 0.62929 0.85811 0.0
C1686 C 0.37246 0.6267 0.79823 0.0
C1687 C 0.36456 0.63585 0.7576 0.0
H1688 H 0.15353 0.63175 0.79873 0.0
H1689 H 0.14176 0.66986 0.68495 0.0
H1690 H 0.14389 0.61342 0.72563 0.0
H1691 H 0.13237 0.6518 0.61349 0.0
H1692 H 0.1256 0.61774 0.47322 0.0
H1693 H 0.14125 0.63173 0.54491 0.0
H1694 H 0.11834 0.60665 0.68247 0.0
H1695 H 0.10299 0.59266 0.61136 0.0
C1696 C 0.14888 0.63623 0.75856 0.0
C1697 C 0.14844 0.65232 0.74816 0.0
C1698 C 0.14345 0.62575 0.71657 0.0
C1699 C 0.13764 0.63116 0.66323 0.0
C1700 C 0.13716 0.6472 0.65326 0.0
C1701 C 0.1424 0.65759 0.69498 0.0
C1702 C 0.12427 0.61493 0.51864 0.0
C1703 C 0.11291 0.60432 0.53672 0.0
C1704 C 0.13311 0.623 0.55975 0.0
C1705 C 0.13084 0.62046 0.61949 0.0
C1706 C 0.12042 0.60887 0.637 0.0
C1707 C 0.11153 0.60094 0.59613 0.0
H1708 H 0.14036 0.37385 0.21992 0.0
H1709 H 0.16643 0.35196 0.35688 0.0
H1710 H 0.12628 0.38926 0.29221 0.0
H1711 H 0.15238 0.36711 0.42862 0.0
H1712 H 0.1271 0.40249 0.54472 0.0
H1713 H 0.14529 0.39287 0.47102 0.0
H1714 H 0.10669 0.37977 0.36258 0.0
H1715 H 0.08875 0.38911 0.43477 0.0
C1716 C 0.14336 0.37263 0.2652 0.0
C1717 C 0.15428 0.36154 0.28284 0.0
C1718 C 0.13525 0.38134 0.30663 0.0
C1719 C 0.13807 0.37921 0.36623 0.0
C1720 C 0.14994 0.36907 0.38324 0.0
C1721 C 0.1579 0.3603 0.34205 0.0
C1722 C 0.12253 0.39747 0.50528 0.0
C1723 C 0.10642 0.3966 0.49603 0.0
C1724 C 0.13294 0.39207 0.46294 0.0
C1725 C 0.12742 0.38586 0.41042 0.0
C1726 C 0.11136 0.38488 0.4017 0.0
C1727 C 0.10104 0.3901 0.44379 0.0
loop_
_geom_bond_atom_site_label_1
_geom_bond_atom_site_label_2
_geom_bond_distance
_geom_bond_site_symmetry_2
_ccdc_geom_bond_type
Co0 O1 2.216 . S
Co0 O2 2.091 . S
Co0 O4 2.004 . S
Co0 O10 2.021 . S
Co0 O12 2.137 . S
Co0 O13 2.244 . S
O1 Co0 2.216 . S
O1 C8 1.247 . S
O2 Co0 2.091 . S
O2 C8 1.261 . S
C3 O12 1.247 . S
C3 O13 1.272 . S
O4 Co0 2.004 . S
O4 C9 1.259 . S
Co5 O6 2.061 . S
Co5 O11 2.052 . S
Co5 O13 2.135 . S
O6 Co5 2.061 . S
O6 C9 1.235 . S
C7 O10 1.238 . S
C7 O11 1.241 . S
C8 O1 1.247 . S
C8 O2 1.261 . S
C9 O4 1.259 . S
C9 O6 1.235 . S
O10 Co0 2.021 . S
O10 C7 1.238 . S
O11 Co5 2.052 . S
O11 C7 1.241 . S
O12 Co0 2.137 . S
O12 C3 1.247 . S
O13 Co0 2.244 . S
O13 C3 1.272 . S
O13 Co5 2.135 . S
Co14 O15 2.216 . S
Co14 O16 2.091 . S
Co14 O18 2.004 . S
Co14 O24 2.021 . S
Co14 O26 2.137 . S
Co14 O27 2.244 . S
O15 Co14 2.216 . S
O15 C22 1.247 . S
O16 Co14 2.091 . S
O16 C22 1.261 . S
C17 O26 1.247 . S
C17 O27 1.272 . S
O18 Co14 2.004 . S
O18 C23 1.259 . S
Co19 O20 2.061 . S
Co19 O25 2.052 . S
Co19 O27 2.135 . S
O20 Co19 2.061 . S
O20 C23 1.235 . S
C21 O24 1.238 . S
C21 O25 1.241 . S
C22 O15 1.247 . S
C22 O16 1.261 . S
C23 O18 1.259 . S
C23 O20 1.235 . S
O24 Co14 2.021 . S
O24 C21 1.238 . S
O25 Co19 2.052 . S
O25 C21 1.241 . S
O26 Co14 2.137 . S
O26 C17 1.247 . S
O27 Co14 2.244 . S
O27 C17 1.272 . S
O27 Co19 2.135 . S
Co28 O29 2.216 . S
Co28 O30 2.091 . S
Co28 O32 2.004 . S
Co28 O38 2.021 . S
Co28 O40 2.137 . S
Co28 O41 2.244 . S
O29 Co28 2.216 . S
O29 C36 1.247 . S
O30 Co28 2.091 . S
O30 C36 1.261 . S
C31 O40 1.247 . S
C31 O41 1.272 . S
O32 Co28 2.004 . S
O32 C37 1.259 . S
Co33 O34 2.061 . S
Co33 O39 2.052 . S
Co33 O41 2.135 . S
O34 Co33 2.061 . S
O34 C37 1.235 . S
C35 O38 1.238 . S
C35 O39 1.241 . S
C36 O29 1.247 . S
C36 O30 1.261 . S
C37 O32 1.259 . S
C37 O34 1.235 . S
O38 Co28 2.021 . S
O38 C35 1.238 . S
O39 Co33 2.052 . S
O39 C35 1.241 . S
O40 Co28 2.137 . S
O40 C31 1.247 . S
O41 Co28 2.244 . S
O41 C31 1.272 . S
O41 Co33 2.135 . S
Co42 O43 2.216 . S
Co42 O44 2.091 . S
Co42 O46 2.004 . S
Co42 O52 2.021 . S
Co42 O54 2.137 . S
Co42 O55 2.244 . S
O43 Co42 2.216 . S
O43 C50 1.247 . S
O44 Co42 2.091 . S
O44 C50 1.261 . S
C45 O54 1.247 . S
C45 O55 1.272 . S
O46 Co42 2.004 . S
O46 C51 1.259 . S
Co47 O48 2.061 . S
Co47 O53 2.052 . S
Co47 O55 2.135 . S
O48 Co47 2.061 . S
O48 C51 1.235 . S
C49 O52 1.238 . S
C49 O53 1.241 . S
C50 O43 1.247 . S
C50 O44 1.261 . S
C51 O46 1.259 . S
C51 O48 1.235 . S
O52 Co42 2.021 . S
O52 C49 1.238 . S
O53 Co47 2.052 . S
O53 C49 1.241 . S
O54 Co42 2.137 . S
O54 C45 1.247 . S
O55 Co42 2.244 . S
O55 C45 1.272 . S
O55 Co47 2.135 . S
Co56 O57 2.216 . S
Co56 O58 2.091 . S
Co56 O60 2.004 . S
Co56 O66 2.021 . S
Co56 O68 2.137 . S
Co56 O69 2.244 . S
O57 Co56 2.216 . S
O57 C64 1.247 . S
O58 Co56 2.091 . S
O58 C64 1.261 . S
C59 O68 1.247 . S
C59 O69 1.272 . S
O60 Co56 2.004 . S
O60 C65 1.259 . S
Co61 O62 2.061 . S
Co61 O67 2.052 . S
Co61 O69 2.135 . S
O62 Co61 2.061 . S
O62 C65 1.235 . S
C63 O66 1.238 . S
C63 O67 1.241 . S
C64 O57 1.247 . S
C64 O58 1.261 . S
C65 O60 1.259 . S
C65 O62 1.235 . S
O66 Co56 2.021 . S
O66 C63 1.238 . S
O67 Co61 2.052 . S
O67 C63 1.241 . S
O68 Co56 2.137 . S
O68 C59 1.247 . S
O69 Co56 2.244 . S
O69 C59 1.272 . S
O69 Co61 2.135 . S
Co70 O71 2.216 . S
Co70 O72 2.091 . S
Co70 O74 2.004 . S
Co70 O80 2.021 . S
Co70 O82 2.137 . S
Co70 O83 2.244 . S
O71 Co70 2.216 . S
O71 C78 1.247 . S
O72 Co70 2.091 . S
O72 C78 1.261 . S
C73 O82 1.247 . S
C73 O83 1.272 . S
O74 Co70 2.004 . S
O74 C79 1.259 . S
Co75 O76 2.061 . S
Co75 O81 2.052 . S
Co75 O83 2.135 . S
O76 Co75 2.061 . S
O76 C79 1.235 . S
C77 O80 1.238 . S
C77 O81 1.241 . S
C78 O71 1.247 . S
C78 O72 1.261 . S
C79 O74 1.259 . S
C79 O76 1.235 . S
O80 Co70 2.021 . S
O80 C77 1.238 . S
O81 Co75 2.052 . S
O81 C77 1.241 . S
O82 Co70 2.137 . S
O82 C73 1.247 . S
O83 Co70 2.244 . S
O83 C73 1.272 . S
O83 Co75 2.135 . S
Co84 O85 2.216 . S
Co84 O86 2.091 . S
Co84 O88 2.004 . S
Co84 O94 2.021 . S
Co84 O96 2.137 . S
Co84 O97 2.244 . S
O85 Co84 2.216 . S
O85 C92 1.247 . S
O86 Co84 2.091 . S
O86 C92 1.261 . S
C87 O96 1.247 . S
C87 O97 1.272 . S
O88 Co84 2.004 . S
O88 C93 1.259 . S
Co89 O90 2.061 . S
Co89 O95 2.052 . S
Co89 O97 2.135 . S
O90 Co89 2.061 . S
O90 C93 1.235 . S
C91 O94 1.238 . S
C91 O95 1.241 . S
C92 O85 1.247 . S
C92 O86 1.261 . S
C93 O88 1.259 . S
C93 O90 1.235 . S
O94 Co84 2.021 . S
O94 C91 1.238 . S
O95 Co89 2.052 . S
O95 C91 1.241 . S
O96 Co84 2.137 . S
O96 C87 1.247 . S
O97 Co84 2.244 . S
O97 C87 1.272 . S
O97 Co89 2.135 . S
Co98 O99 2.216 . S
Co98 O100 2.091 . S
Co98 O102 2.004 . S
Co98 O108 2.021 . S
Co98 O110 2.137 . S
Co98 O111 2.244 . S
O99 Co98 2.216 . S
O99 C106 1.247 . S
O100 Co98 2.091 . S
O100 C106 1.261 . S
C101 O110 1.247 . S
C101 O111 1.272 . S
O102 Co98 2.004 . S
O102 C107 1.259 . S
Co103 O104 2.061 . S
Co103 O109 2.052 . S
Co103 O111 2.135 . S
O104 Co103 2.061 . S
O104 C107 1.235 . S
C105 O108 1.238 . S
C105 O109 1.241 . S
C106 O99 1.247 . S
C106 O100 1.261 . S
C107 O102 1.259 . S
C107 O104 1.235 . S
O108 Co98 2.021 . S
O108 C105 1.238 . S
O109 Co103 2.052 . S
O109 C105 1.241 . S
O110 Co98 2.137 . S
O110 C101 1.247 . S
O111 Co98 2.244 . S
O111 C101 1.272 . S
O111 Co103 2.135 . S
Co112 O113 2.216 . S
Co112 O114 2.091 . S
Co112 O116 2.004 . S
Co112 O122 2.021 . S
Co112 O124 2.137 . S
Co112 O125 2.244 . S
O113 Co112 2.216 . S
O113 C120 1.247 . S
O114 Co112 2.091 . S
O114 C120 1.261 . S
C115 O124 1.247 . S
C115 O125 1.272 . S
O116 Co112 2.004 . S
O116 C121 1.259 . S
Co117 O118 2.061 . S
Co117 O123 2.052 . S
Co117 O125 2.135 . S
O118 Co117 2.061 . S
O118 C121 1.235 . S
C119 O122 1.238 . S
C119 O123 1.241 . S
C120 O113 1.247 . S
C120 O114 1.261 . S
C121 O116 1.259 . S
C121 O118 1.235 . S
O122 Co112 2.021 . S
O122 C119 1.238 . S
O123 Co117 2.052 . S
O123 C119 1.241 . S
O124 Co112 2.137 . S
O124 C115 1.247 . S
O125 Co112 2.244 . S
O125 C115 1.272 . S
O125 Co117 2.135 . S
Co126 O127 2.216 . S
Co126 O128 2.091 . S
Co126 O130 2.004 . S
Co126 O136 2.021 . S
Co126 O138 2.137 . S
Co126 O139 2.244 . S
O127 Co126 2.216 . S
O127 C134 1.247 . S
O128 Co126 2.091 . S
O128 C134 1.261 . S
C129 O138 1.247 . S
C129 O139 1.272 . S
O130 Co126 2.004 . S
O130 C135 1.259 . S
Co131 O132 2.061 . S
Co131 O137 2.052 . S
Co131 O139 2.135 . S
O132 Co131 2.061 . S
O132 C135 1.235 . S
C133 O136 1.238 . S
C133 O137 1.241 . S
C134 O127 1.247 . S
C134 O128 1.261 . S
C135 O130 1.259 . S
C135 O132 1.235 . S
O136 Co126 2.021 . S
O136 C133 1.238 . S
O137 Co131 2.052 . S
O137 C133 1.241 . S
O138 Co126 2.137 . S
O138 C129 1.247 . S
O139 Co126 2.244 . S
O139 C129 1.272 . S
O139 Co131 2.135 . S
Co140 O141 2.216 . S
Co140 O142 2.091 . S
Co140 O144 2.004 . S
Co140 O150 2.021 . S
Co140 O152 2.137 . S
Co140 O153 2.244 . S
O141 Co140 2.216 . S
O141 C148 1.247 . S
O142 Co140 2.091 . S
O142 C148 1.261 . S
C143 O152 1.247 . S
C143 O153 1.272 . S
O144 Co140 2.004 . S
O144 C149 1.259 . S
Co145 O146 2.061 . S
Co145 O151 2.052 . S
Co145 O153 2.135 . S
O146 Co145 2.061 . S
O146 C149 1.235 . S
C147 O150 1.238 . S
C147 O151 1.241 . S
C148 O141 1.247 . S
C148 O142 1.261 . S
C149 O144 1.259 . S
C149 O146 1.235 . S
O150 Co140 2.021 . S
O150 C147 1.238 . S
O151 Co145 2.052 . S
O151 C147 1.241 . S
O152 Co140 2.137 . S
O152 C143 1.247 . S
O153 Co140 2.244 . S
O153 C143 1.272 . S
O153 Co145 2.135 . S
Co154 O155 2.216 . S
Co154 O156 2.091 . S
Co154 O158 2.004 . S
Co154 O164 2.021 . S
Co154 O166 2.137 . S
Co154 O167 2.244 . S
O155 Co154 2.216 . S
O155 C162 1.247 . S
O156 Co154 2.091 . S
O156 C162 1.261 . S
C157 O166 1.247 . S
C157 O167 1.272 . S
O158 Co154 2.004 . S
O158 C163 1.259 . S
Co159 O160 2.061 . S
Co159 O165 2.052 . S
Co159 O167 2.135 . S
O160 Co159 2.061 . S
O160 C163 1.235 . S
C161 O164 1.238 . S
C161 O165 1.241 . S
C162 O155 1.247 . S
C162 O156 1.261 . S
C163 O158 1.259 . S
C163 O160 1.235 . S
O164 Co154 2.021 . S
O164 C161 1.238 . S
O165 Co159 2.052 . S
O165 C161 1.241 . S
O166 Co154 2.137 . S
O166 C157 1.247 . S
O167 Co154 2.244 . S
O167 C157 1.272 . S
O167 Co159 2.135 . S
Co168 O169 2.216 . S
Co168 O170 2.091 . S
Co168 O172 2.004 . S
Co168 O178 2.021 . S
Co168 O180 2.137 . S
Co168 O181 2.244 . S
O169 Co168 2.216 . S
O169 C176 1.247 . S
O170 Co168 2.091 . S
O170 C176 1.261 . S
C171 O180 1.247 . S
C171 O181 1.272 . S
O172 Co168 2.004 . S
O172 C177 1.259 . S
Co173 O174 2.061 . S
Co173 O179 2.052 . S
Co173 O181 2.135 . S
O174 Co173 2.061 . S
O174 C177 1.235 . S
C175 O178 1.238 . S
C175 O179 1.241 . S
C176 O169 1.247 . S
C176 O170 1.261 . S
C177 O172 1.259 . S
C177 O174 1.235 . S
O178 Co168 2.021 . S
O178 C175 1.238 . S
O179 Co173 2.052 . S
O179 C175 1.241 . S
O180 Co168 2.137 . S
O180 C171 1.247 . S
O181 Co168 2.244 . S
O181 C171 1.272 . S
O181 Co173 2.135 . S
Co182 O183 2.216 . S
Co182 O184 2.091 . S
Co182 O186 2.004 . S
Co182 O192 2.021 . S
Co182 O194 2.137 . S
Co182 O195 2.244 . S
O183 Co182 2.216 . S
O183 C190 1.247 . S
O184 Co182 2.091 . S
O184 C190 1.261 . S
C185 O194 1.247 . S
C185 O195 1.272 . S
O186 Co182 2.004 . S
O186 C191 1.259 . S
Co187 O188 2.061 . S
Co187 O193 2.052 . S
Co187 O195 2.135 . S
O188 Co187 2.061 . S
O188 C191 1.235 . S
C189 O192 1.238 . S
C189 O193 1.241 . S
C190 O183 1.247 . S
C190 O184 1.261 . S
C191 O186 1.259 . S
C191 O188 1.235 . S
O192 Co182 2.021 . S
O192 C189 1.238 . S
O193 Co187 2.052 . S
O193 C189 1.241 . S
O194 Co182 2.137 . S
O194 C185 1.247 . S
O195 Co182 2.244 . S
O195 C185 1.272 . S
O195 Co187 2.135 . S
Co196 O197 2.216 . S
Co196 O198 2.091 . S
Co196 O200 2.004 . S
Co196 O206 2.021 . S
Co196 O208 2.137 . S
Co196 O209 2.244 . S
O197 Co196 2.216 . S
O197 C204 1.247 . S
O198 Co196 2.091 . S
O198 C204 1.261 . S
C199 O208 1.247 . S
C199 O209 1.272 . S
O200 Co196 2.004 . S
O200 C205 1.259 . S
Co201 O202 2.061 . S
Co201 O207 2.052 . S
Co201 O209 2.135 . S
O202 Co201 2.061 . S
O202 C205 1.235 . S
C203 O206 1.238 . S
C203 O207 1.241 . S
C204 O197 1.247 . S
C204 O198 1.261 . S
C205 O200 1.259 . S
C205 O202 1.235 . S
O206 Co196 2.021 . S
O206 C203 1.238 . S
O207 Co201 2.052 . S
O207 C203 1.241 . S
O208 Co196 2.137 . S
O208 C199 1.247 . S
O209 Co196 2.244 . S
O209 C199 1.272 . S
O209 Co201 2.135 . S
Co210 O211 2.216 . S
Co210 O212 2.091 . S
Co210 O214 2.004 . S
Co210 O220 2.021 . S
Co210 O222 2.137 . S
Co210 O223 2.244 . S
O211 Co210 2.216 . S
O211 C218 1.247 . S
O212 Co210 2.091 . S
O212 C218 1.261 . S
C213 O222 1.247 . S
C213 O223 1.272 . S
O214 Co210 2.004 . S
O214 C219 1.259 . S
Co215 O216 2.061 . S
Co215 O221 2.052 . S
Co215 O223 2.135 . S
O216 Co215 2.061 . S
O216 C219 1.235 . S
C217 O220 1.238 . S
C217 O221 1.241 . S
C218 O211 1.247 . S
C218 O212 1.261 . S
C219 O214 1.259 . S
C219 O216 1.235 . S
O220 Co210 2.021 . S
O220 C217 1.238 . S
O221 Co215 2.052 . S
O221 C217 1.241 . S
O222 Co210 2.137 . S
O222 C213 1.247 . S
O223 Co210 2.244 . S
O223 C213 1.272 . S
O223 Co215 2.135 . S
Co224 O225 2.216 . S
Co224 O226 2.091 . S
Co224 O228 2.004 . S
Co224 O234 2.021 . S
Co224 O236 2.137 . S
Co224 O237 2.244 . S
O225 Co224 2.216 . S
O225 C232 1.247 . S
O226 Co224 2.091 . S
O226 C232 1.261 . S
C227 O236 1.247 . S
C227 O237 1.272 . S
O228 Co224 2.004 . S
O228 C233 1.259 . S
Co229 O230 2.061 . S
Co229 O235 2.052 . S
Co229 O237 2.135 . S
O230 Co229 2.061 . S
O230 C233 1.235 . S
C231 O234 1.238 . S
C231 O235 1.241 . S
C232 O225 1.247 . S
C232 O226 1.261 . S
C233 O228 1.259 . S
C233 O230 1.235 . S
O234 Co224 2.021 . S
O234 C231 1.238 . S
O235 Co229 2.052 . S
O235 C231 1.241 . S
O236 Co224 2.137 . S
O236 C227 1.247 . S
O237 Co224 2.244 . S
O237 C227 1.272 . S
O237 Co229 2.135 . S
Co238 O239 2.216 . S
Co238 O240 2.091 . S
Co238 O242 2.004 . S
Co238 O248 2.021 . S
Co238 O250 2.137 . S
Co238 O251 2.244 . S
O239 Co238 2.216 . S
O239 C246 1.247 . S
O240 Co238 2.091 . S
O240 C246 1.261 . S
C241 O250 1.247 . S
C241 O251 1.272 . S
O242 Co238 2.004 . S
O242 C247 1.259 . S
Co243 O244 2.061 . S
Co243 O249 2.052 . S
Co243 O251 2.135 . S
O244 Co243 2.061 . S
O244 C247 1.235 . S
C245 O248 1.238 . S
C245 O249 1.241 . S
C246 O239 1.247 . S
C246 O240 1.261 . S
C247 O242 1.259 . S
C247 O244 1.235 . S
O248 Co238 2.021 . S
O248 C245 1.238 . S
O249 Co243 2.052 . S
O249 C245 1.241 . S
O250 Co238 2.137 . S
O250 C241 1.247 . S
O251 Co238 2.244 . S
O251 C241 1.272 . S
O251 Co243 2.135 . S
Co252 O253 2.216 . S
Co252 O254 2.091 . S
Co252 O256 2.004 . S
Co252 O262 2.021 . S
Co252 O264 2.137 . S
Co252 O265 2.244 . S
O253 Co252 2.216 . S
O253 C260 1.247 . S
O254 Co252 2.091 . S
O254 C260 1.261 . S
C255 O264 1.247 . S
C255 O265 1.272 . S
O256 Co252 2.004 . S
O256 C261 1.259 . S
Co257 O258 2.061 . S
Co257 O263 2.052 . S
Co257 O265 2.135 . S
O258 Co257 2.061 . S
O258 C261 1.235 . S
C259 O262 1.238 . S
C259 O263 1.241 . S
C260 O253 1.247 . S
C260 O254 1.261 . S
C261 O256 1.259 . S
C261 O258 1.235 . S
O262 Co252 2.021 . S
O262 C259 1.238 . S
O263 Co257 2.052 . S
O263 C259 1.241 . S
O264 Co252 2.137 . S
O264 C255 1.247 . S
O265 Co252 2.244 . S
O265 C255 1.272 . S
O265 Co257 2.135 . S
Co266 O267 2.216 . S
Co266 O268 2.091 . S
Co266 O270 2.004 . S
Co266 O276 2.021 . S
Co266 O278 2.137 . S
Co266 O279 2.244 . S
O267 Co266 2.216 . S
O267 C274 1.247 . S
O268 Co266 2.091 . S
O268 C274 1.261 . S
C269 O278 1.247 . S
C269 O279 1.272 . S
O270 Co266 2.004 . S
O270 C275 1.259 . S
Co271 O272 2.061 . S
Co271 O277 2.052 . S
Co271 O279 2.135 . S
O272 Co271 2.061 . S
O272 C275 1.235 . S
C273 O276 1.238 . S
C273 O277 1.241 . S
C274 O267 1.247 . S
C274 O268 1.261 . S
C275 O270 1.259 . S
C275 O272 1.235 . S
O276 Co266 2.021 . S
O276 C273 1.238 . S
O277 Co271 2.052 . S
O277 C273 1.241 . S
O278 Co266 2.137 . S
O278 C269 1.247 . S
O279 Co266 2.244 . S
O279 C269 1.272 . S
O279 Co271 2.135 . S
Co280 O281 2.216 . S
Co280 O282 2.091 . S
Co280 O284 2.004 . S
Co280 O290 2.021 . S
Co280 O292 2.137 . S
Co280 O293 2.244 . S
O281 Co280 2.216 . S
O281 C288 1.247 . S
O282 Co280 2.091 . S
O282 C288 1.261 . S
C283 O292 1.247 . S
C283 O293 1.272 . S
O284 Co280 2.004 . S
O284 C289 1.259 . S
Co285 O286 2.061 . S
Co285 O291 2.052 . S
Co285 O293 2.135 . S
O286 Co285 2.061 . S
O286 C289 1.235 . S
C287 O290 1.238 . S
C287 O291 1.241 . S
C288 O281 1.247 . S
C288 O282 1.261 . S
C289 O284 1.259 . S
C289 O286 1.235 . S
O290 Co280 2.021 . S
O290 C287 1.238 . S
O291 Co285 2.052 . S
O291 C287 1.241 . S
O292 Co280 2.137 . S
O292 C283 1.247 . S
O293 Co280 2.244 . S
O293 C283 1.272 . S
O293 Co285 2.135 . S
Co294 O295 2.216 . S
Co294 O296 2.091 . S
Co294 O298 2.004 . S
Co294 O304 2.021 . S
Co294 O306 2.137 . S
Co294 O307 2.244 . S
O295 Co294 2.216 . S
O295 C302 1.247 . S
O296 Co294 2.091 . S
O296 C302 1.261 . S
C297 O306 1.247 . S
C297 O307 1.272 . S
O298 Co294 2.004 . S
O298 C303 1.259 . S
Co299 O300 2.061 . S
Co299 O305 2.052 . S
Co299 O307 2.135 . S
O300 Co299 2.061 . S
O300 C303 1.235 . S
C301 O304 1.238 . S
C301 O305 1.241 . S
C302 O295 1.247 . S
C302 O296 1.261 . S
C303 O298 1.259 . S
C303 O300 1.235 . S
O304 Co294 2.021 . S
O304 C301 1.238 . S
O305 Co299 2.052 . S
O305 C301 1.241 . S
O306 Co294 2.137 . S
O306 C297 1.247 . S
O307 Co294 2.244 . S
O307 C297 1.272 . S
O307 Co299 2.135 . S
Co308 O309 2.216 . S
Co308 O310 2.091 . S
Co308 O312 2.004 . S
Co308 O318 2.021 . S
Co308 O320 2.137 . S
Co308 O321 2.244 . S
O309 Co308 2.216 . S
O309 C316 1.247 . S
O310 Co308 2.091 . S
O310 C316 1.261 . S
C311 O320 1.247 . S
C311 O321 1.272 . S
O312 Co308 2.004 . S
O312 C317 1.259 . S
Co313 O314 2.061 . S
Co313 O319 2.052 . S
Co313 O321 2.135 . S
O314 Co313 2.061 . S
O314 C317 1.235 . S
C315 O318 1.238 . S
C315 O319 1.241 . S
C316 O309 1.247 . S
C316 O310 1.261 . S
C317 O312 1.259 . S
C317 O314 1.235 . S
O318 Co308 2.021 . S
O318 C315 1.238 . S
O319 Co313 2.052 . S
O319 C315 1.241 . S
O320 Co308 2.137 . S
O320 C311 1.247 . S
O321 Co308 2.244 . S
O321 C311 1.272 . S
O321 Co313 2.135 . S
Co322 O323 2.216 . S
Co322 O324 2.091 . S
Co322 O326 2.004 . S
Co322 O332 2.021 . S
Co322 O334 2.137 . S
Co322 O335 2.244 . S
O323 Co322 2.216 . S
O323 C330 1.247 . S
O324 Co322 2.091 . S
O324 C330 1.261 . S
C325 O334 1.247 . S
C325 O335 1.272 . S
O326 Co322 2.004 . S
O326 C331 1.259 . S
Co327 O328 2.061 . S
Co327 O333 2.052 . S
Co327 O335 2.135 . S
O328 Co327 2.061 . S
O328 C331 1.235 . S
C329 O332 1.238 . S
C329 O333 1.241 . S
C330 O323 1.247 . S
C330 O324 1.261 . S
C331 O326 1.259 . S
C331 O328 1.235 . S
O332 Co322 2.021 . S
O332 C329 1.238 . S
O333 Co327 2.052 . S
O333 C329 1.241 . S
O334 Co322 2.137 . S
O334 C325 1.247 . S
O335 Co322 2.244 . S
O335 C325 1.272 . S
O335 Co327 2.135 . S
Co336 O337 2.216 . S
Co336 O338 2.091 . S
Co336 O340 2.004 . S
Co336 O346 2.021 . S
Co336 O348 2.137 . S
Co336 O349 2.244 . S
O337 Co336 2.216 . S
O337 C344 1.247 . S
O338 Co336 2.091 . S
O338 C344 1.261 . S
C339 O348 1.247 . S
C339 O349 1.272 . S
O340 Co336 2.004 . S
O340 C345 1.259 . S
Co341 O342 2.061 . S
Co341 O347 2.052 . S
Co341 O349 2.135 . S
O342 Co341 2.061 . S
O342 C345 1.235 . S
C343 O346 1.238 . S
C343 O347 1.241 . S
C344 O337 1.247 . S
C344 O338 1.261 . S
C345 O340 1.259 . S
C345 O342 1.235 . S
O346 Co336 2.021 . S
O346 C343 1.238 . S
O347 Co341 2.052 . S
O347 C343 1.241 . S
O348 Co336 2.137 . S
O348 C339 1.247 . S
O349 Co336 2.244 . S
O349 C339 1.272 . S
O349 Co341 2.135 . S
Co350 O351 2.216 . S
Co350 O352 2.091 . S
Co350 O354 2.004 . S
Co350 O360 2.021 . S
Co350 O362 2.137 . S
Co350 O363 2.244 . S
O351 Co350 2.216 . S
O351 C358 1.247 . S
O352 Co350 2.091 . S
O352 C358 1.261 . S
C353 O362 1.247 . S
C353 O363 1.272 . S
O354 Co350 2.004 . S
O354 C359 1.259 . S
Co355 O356 2.061 . S
Co355 O361 2.052 . S
Co355 O363 2.135 . S
O356 Co355 2.061 . S
O356 C359 1.235 . S
C357 O360 1.238 . S
C357 O361 1.241 . S
C358 O351 1.247 . S
C358 O352 1.261 . S
C359 O354 1.259 . S
C359 O356 1.235 . S
O360 Co350 2.021 . S
O360 C357 1.238 . S
O361 Co355 2.052 . S
O361 C357 1.241 . S
O362 Co350 2.137 . S
O362 C353 1.247 . S
O363 Co350 2.244 . S
O363 C353 1.272 . S
O363 Co355 2.135 . S
Co364 O365 2.216 . S
Co364 O366 2.091 . S
Co364 O368 2.004 . S
Co364 O374 2.021 . S
Co364 O376 2.137 . S
Co364 O377 2.244 . S
O365 Co364 2.216 . S
O365 C372 1.247 . S
O366 Co364 2.091 . S
O366 C372 1.261 . S
C367 O376 1.247 . S
C367 O377 1.272 . S
O368 Co364 2.004 . S
O368 C373 1.259 . S
Co369 O370 2.061 . S
Co369 O375 2.052 . S
Co369 O377 2.135 . S
O370 Co369 2.061 . S
O370 C373 1.235 . S
C371 O374 1.238 . S
C371 O375 1.241 . S
C372 O365 1.247 . S
C372 O366 1.261 . S
C373 O368 1.259 . S
C373 O370 1.235 . S
O374 Co364 2.021 . S
O374 C371 1.238 . S
O375 Co369 2.052 . S
O375 C371 1.241 . S
O376 Co364 2.137 . S
O376 C367 1.247 . S
O377 Co364 2.244 . S
O377 C367 1.272 . S
O377 Co369 2.135 . S
Co378 O379 2.216 . S
Co378 O380 2.091 . S
Co378 O382 2.004 . S
Co378 O388 2.021 . S
Co378 O390 2.137 . S
Co378 O391 2.244 . S
O379 Co378 2.216 . S
O379 C386 1.247 . S
O380 Co378 2.091 . S
O380 C386 1.261 . S
C381 O390 1.247 . S
C381 O391 1.272 . S
O382 Co378 2.004 . S
O382 C387 1.259 . S
Co383 O384 2.061 . S
Co383 O389 2.052 . S
Co383 O391 2.135 . S
O384 Co383 2.061 . S
O384 C387 1.235 . S
C385 O388 1.238 . S
C385 O389 1.241 . S
C386 O379 1.247 . S
C386 O380 1.261 . S
C387 O382 1.259 . S
C387 O384 1.235 . S
O388 Co378 2.021 . S
O388 C385 1.238 . S
O389 Co383 2.052 . S
O389 C385 1.241 . S
O390 Co378 2.137 . S
O390 C381 1.247 . S
O391 Co378 2.244 . S
O391 C381 1.272 . S
O391 Co383 2.135 . S
Co392 O393 2.216 . S
Co392 O394 2.091 . S
Co392 O396 2.004 . S
Co392 O402 2.021 . S
Co392 O404 2.137 . S
Co392 O405 2.244 . S
O393 Co392 2.216 . S
O393 C400 1.247 . S
O394 Co392 2.091 . S
O394 C400 1.261 . S
C395 O404 1.247 . S
C395 O405 1.272 . S
O396 Co392 2.004 . S
O396 C401 1.259 . S
Co397 O398 2.061 . S
Co397 O403 2.052 . S
Co397 O405 2.135 . S
O398 Co397 2.061 . S
O398 C401 1.235 . S
C399 O402 1.238 . S
C399 O403 1.241 . S
C400 O393 1.247 . S
C400 O394 1.261 . S
C401 O396 1.259 . S
C401 O398 1.235 . S
O402 Co392 2.021 . S
O402 C399 1.238 . S
O403 Co397 2.052 . S
O403 C399 1.241 . S
O404 Co392 2.137 . S
O404 C395 1.247 . S
O405 Co392 2.244 . S
O405 C395 1.272 . S
O405 Co397 2.135 . S
Co406 O407 2.216 . S
Co406 O408 2.091 . S
Co406 O410 2.004 . S
Co406 O416 2.021 . S
Co406 O418 2.137 . S
Co406 O419 2.244 . S
O407 Co406 2.216 . S
O407 C414 1.247 . S
O408 Co406 2.091 . S
O408 C414 1.261 . S
C409 O418 1.247 . S
C409 O419 1.272 . S
O410 Co406 2.004 . S
O410 C415 1.259 . S
Co411 O412 2.061 . S
Co411 O417 2.052 . S
Co411 O419 2.135 . S
O412 Co411 2.061 . S
O412 C415 1.235 . S
C413 O416 1.238 . S
C413 O417 1.241 . S
C414 O407 1.247 . S
C414 O408 1.261 . S
C415 O410 1.259 . S
C415 O412 1.235 . S
O416 Co406 2.021 . S
O416 C413 1.238 . S
O417 Co411 2.052 . S
O417 C413 1.241 . S
O418 Co406 2.137 . S
O418 C409 1.247 . S
O419 Co406 2.244 . S
O419 C409 1.272 . S
O419 Co411 2.135 . S
Co420 O421 2.216 . S
Co420 O422 2.091 . S
Co420 O424 2.004 . S
Co420 O430 2.021 . S
Co420 O432 2.137 . S
Co420 O433 2.244 . S
O421 Co420 2.216 . S
O421 C428 1.247 . S
O422 Co420 2.091 . S
O422 C428 1.261 . S
C423 O432 1.247 . S
C423 O433 1.272 . S
O424 Co420 2.004 . S
O424 C429 1.259 . S
Co425 O426 2.061 . S
Co425 O431 2.052 . S
Co425 O433 2.135 . S
O426 Co425 2.061 . S
O426 C429 1.235 . S
C427 O430 1.238 . S
C427 O431 1.241 . S
C428 O421 1.247 . S
C428 O422 1.261 . S
C429 O424 1.259 . S
C429 O426 1.235 . S
O430 Co420 2.021 . S
O430 C427 1.238 . S
O431 Co425 2.052 . S
O431 C427 1.241 . S
O432 Co420 2.137 . S
O432 C423 1.247 . S
O433 Co420 2.244 . S
O433 C423 1.272 . S
O433 Co425 2.135 . S
Co434 O435 2.216 . S
Co434 O436 2.091 . S
Co434 O438 2.004 . S
Co434 O444 2.021 . S
Co434 O446 2.137 . S
Co434 O447 2.244 . S
O435 Co434 2.216 . S
O435 C442 1.247 . S
O436 Co434 2.091 . S
O436 C442 1.261 . S
C437 O446 1.247 . S
C437 O447 1.272 . S
O438 Co434 2.004 . S
O438 C443 1.259 . S
Co439 O440 2.061 . S
Co439 O445 2.052 . S
Co439 O447 2.135 . S
O440 Co439 2.061 . S
O440 C443 1.235 . S
C441 O444 1.238 . S
C441 O445 1.241 . S
C442 O435 1.247 . S
C442 O436 1.261 . S
C443 O438 1.259 . S
C443 O440 1.235 . S
O444 Co434 2.021 . S
O444 C441 1.238 . S
O445 Co439 2.052 . S
O445 C441 1.241 . S
O446 Co434 2.137 . S
O446 C437 1.247 . S
O447 Co434 2.244 . S
O447 C437 1.272 . S
O447 Co439 2.135 . S
H448 C456 0.950 . S
H449 C461 0.950 . S
H450 C458 0.950 . S
H451 C460 0.950 . S
H452 C462 0.950 . S
H453 C464 0.950 . S
H454 C466 0.950 . S
H455 C467 0.950 . S
C456 H448 0.950 . S
C456 C457 1.386 . S
C456 C458 1.391 . S
C457 C456 1.386 . S
C457 C461 1.393 . S
C458 H450 0.950 . S
C458 C456 1.391 . S
C458 C459 1.400 . S
C459 C458 1.400 . S
C459 C460 1.398 . S
C459 C465 1.491 . S
C460 H451 0.950 . S
C460 C459 1.398 . S
C460 C461 1.391 . S
C461 H449 0.950 . S
C461 C457 1.393 . S
C461 C460 1.391 . S
C462 H452 0.950 . S
C462 C463 1.386 . S
C462 C464 1.391 . S
C463 C462 1.386 . S
C463 C467 1.393 . S
C464 H453 0.950 . S
C464 C462 1.391 . S
C464 C465 1.400 . S
C465 C459 1.491 . S
C465 C464 1.400 . S
C465 C466 1.398 . S
C466 H454 0.950 . S
C466 C465 1.398 . S
C466 C467 1.391 . S
C467 H455 0.950 . S
C467 C463 1.393 . S
C467 C466 1.391 . S
H468 C476 0.950 . S
H469 C481 0.950 . S
H470 C478 0.950 . S
H471 C480 0.950 . S
H472 C482 0.950 . S
H473 C484 0.950 . S
H474 C486 0.950 . S
H475 C487 0.950 . S
C476 H468 0.950 . S
C476 C477 1.386 . S
C476 C478 1.391 . S
C477 C476 1.386 . S
C477 C481 1.393 . S
C478 H470 0.950 . S
C478 C476 1.391 . S
C478 C479 1.400 . S
C479 C478 1.400 . S
C479 C480 1.398 . S
C479 C485 1.491 1_565 S
C480 H471 0.950 . S
C480 C479 1.398 . S
C480 C481 1.391 . S
C481 H469 0.950 . S
C481 C477 1.393 . S
C481 C480 1.391 . S
C482 H472 0.950 . S
C482 C483 1.386 . S
C482 C484 1.391 . S
C483 C482 1.386 . S
C483 C487 1.393 . S
C484 H473 0.950 . S
C484 C482 1.391 . S
C484 C485 1.400 . S
C485 C479 1.491 1_545 S
C485 C484 1.400 . S
C485 C486 1.398 . S
C486 H474 0.950 . S
C486 C485 1.398 . S
C486 C487 1.391 . S
C487 H475 0.950 . S
C487 C483 1.393 . S
C487 C486 1.391 . S
H488 C496 0.950 . S
H489 C501 0.950 . S
H490 C498 0.950 . S
H491 C500 0.950 . S
H492 C502 0.950 . S
H493 C504 0.950 . S
H494 C506 0.950 . S
H495 C507 0.950 . S
C496 H488 0.950 . S
C496 C497 1.386 . S
C496 C498 1.391 . S
C497 C496 1.386 . S
C497 C501 1.393 . S
C498 H490 0.950 . S
C498 C496 1.391 . S
C498 C499 1.400 . S
C499 C498 1.400 . S
C499 C500 1.398 . S
C499 C505 1.491 . S
C500 H491 0.950 . S
C500 C499 1.398 . S
C500 C501 1.391 . S
C501 H489 0.950 . S
C501 C497 1.393 . S
C501 C500 1.391 . S
C502 H492 0.950 . S
C502 C503 1.386 . S
C502 C504 1.391 . S
C503 C502 1.386 . S
C503 C507 1.393 . S
C504 H493 0.950 . S
C504 C502 1.391 . S
C504 C505 1.400 . S
C505 C499 1.491 . S
C505 C504 1.400 . S
C505 C506 1.398 . S
C506 H494 0.950 . S
C506 C505 1.398 . S
C506 C507 1.391 . S
C507 H495 0.950 . S
C507 C503 1.393 . S
C507 C506 1.391 . S
H508 C516 0.950 1_554 S
H509 C521 0.950 . S
H510 C518 0.950 . S
H511 C520 0.950 . S
H512 C522 0.950 1_556 S
H513 C524 0.950 . S
H514 C526 0.950 . S
H515 C527 0.950 . S
C516 H508 0.950 1_556 S
C516 C517 1.386 . S
C516 C518 1.391 1_556 S
C517 C516 1.386 . S
C517 C521 1.393 . S
C518 H510 0.950 . S
C518 C516 1.391 1_554 S
C518 C519 1.400 1_554 S
C519 C518 1.400 1_556 S
C519 C520 1.398 . S
C519 C525 1.491 1_546 S
C520 H511 0.950 . S
C520 C519 1.398 . S
C520 C521 1.391 . S
C521 H509 0.950 . S
C521 C517 1.393 . S
C521 C520 1.391 . S
C522 H512 0.950 1_554 S
C522 C523 1.386 . S
C522 C524 1.391 1_554 S
C523 C522 1.386 . S
C523 C527 1.393 . S
C524 H513 0.950 . S
C524 C522 1.391 1_556 S
C524 C525 1.400 1_556 S
C525 C519 1.491 1_564 S
C525 C524 1.400 1_554 S
C525 C526 1.398 . S
C526 H514 0.950 . S
C526 C525 1.398 . S
C526 C527 1.391 . S
C527 H515 0.950 . S
C527 C523 1.393 . S
C527 C526 1.391 . S
H528 C536 0.950 . S
H529 C541 0.950 . S
H530 C538 0.950 . S
H531 C540 0.950 . S
H532 C542 0.950 . S
H533 C544 0.950 . S
H534 C546 0.950 . S
H535 C547 0.950 . S
C536 H528 0.950 . S
C536 C537 1.386 . S
C536 C538 1.391 . S
C537 C536 1.386 . S
C537 C541 1.393 . S
C538 H530 0.950 . S
C538 C536 1.391 . S
C538 C539 1.400 . S
C539 C538 1.400 . S
C539 C540 1.398 . S
C539 C545 1.491 . S
C540 H531 0.950 . S
C540 C539 1.398 . S
C540 C541 1.391 . S
C541 H529 0.950 . S
C541 C537 1.393 . S
C541 C540 1.391 . S
C542 H532 0.950 . S
C542 C543 1.386 . S
C542 C544 1.391 . S
C543 C542 1.386 . S
C543 C547 1.393 . S
C544 H533 0.950 . S
C544 C542 1.391 . S
C544 C545 1.400 . S
C545 C539 1.491 . S
C545 C544 1.400 . S
C545 C546 1.398 . S
C546 H534 0.950 . S
C546 C545 1.398 . S
C546 C547 1.391 . S
C547 H535 0.950 . S
C547 C543 1.393 . S
C547 C546 1.391 . S
H548 C556 0.950 . S
H549 C561 0.950 . S
H550 C558 0.950 . S
H551 C560 0.950 . S
H552 C562 0.950 . S
H553 C564 0.950 . S
H554 C566 0.950 . S
H555 C567 0.950 . S
C556 H548 0.950 . S
C556 C557 1.386 . S
C556 C558 1.391 . S
C557 C556 1.386 . S
C557 C561 1.393 . S
C558 H550 0.950 . S
C558 C556 1.391 . S
C558 C559 1.400 . S
C559 C558 1.400 . S
C559 C560 1.398 . S
C559 C565 1.491 1_565 S
C560 H551 0.950 . S
C560 C559 1.398 . S
C560 C561 1.391 . S
C561 H549 0.950 . S
C561 C557 1.393 . S
C561 C560 1.391 . S
C562 H552 0.950 . S
C562 C563 1.386 . S
C562 C564 1.391 . S
C563 C562 1.386 . S
C563 C567 1.393 . S
C564 H553 0.950 . S
C564 C562 1.391 . S
C564 C565 1.400 . S
C565 C559 1.491 1_545 S
C565 C564 1.400 . S
C565 C566 1.398 . S
C566 H554 0.950 . S
C566 C565 1.398 . S
C566 C567 1.391 . S
C567 H555 0.950 . S
C567 C563 1.393 . S
C567 C566 1.391 . S
H568 C576 0.950 . S
H569 C581 0.950 . S
H570 C578 0.950 . S
H571 C580 0.950 . S
H572 C582 0.950 . S
H573 C584 0.950 . S
H574 C586 0.950 . S
H575 C587 0.950 . S
C576 H568 0.950 . S
C576 C577 1.386 . S
C576 C578 1.391 . S
C577 C576 1.386 . S
C577 C581 1.393 . S
C578 H570 0.950 . S
C578 C576 1.391 . S
C578 C579 1.400 . S
C579 C578 1.400 . S
C579 C580 1.398 . S
C579 C585 1.491 . S
C580 H571 0.950 . S
C580 C579 1.398 . S
C580 C581 1.391 . S
C581 H569 0.950 . S
C581 C577 1.393 . S
C581 C580 1.391 . S
C582 H572 0.950 . S
C582 C583 1.386 . S
C582 C584 1.391 . S
C583 C582 1.386 . S
C583 C587 1.393 . S
C584 H573 0.950 . S
C584 C582 1.391 . S
C584 C585 1.400 . S
C585 C579 1.491 . S
C585 C584 1.400 . S
C585 C586 1.398 . S
C586 H574 0.950 . S
C586 C585 1.398 . S
C586 C587 1.391 . S
C587 H575 0.950 . S
C587 C583 1.393 . S
C587 C586 1.391 . S
H588 C596 0.950 . S
H589 C601 0.950 . S
H590 C598 0.950 . S
H591 C600 0.950 . S
H592 C602 0.950 . S
H593 C604 0.950 . S
H594 C606 0.950 . S
H595 C607 0.950 . S
C596 H588 0.950 . S
C596 C597 1.386 . S
C596 C598 1.391 1_556 S
C597 C596 1.386 . S
C597 C601 1.393 . S
C598 H590 0.950 . S
C598 C596 1.391 1_554 S
C598 C599 1.400 1_554 S
C599 C598 1.400 1_556 S
C599 C600 1.398 . S
C599 C605 1.491 1_546 S
C600 H591 0.950 . S
C600 C599 1.398 . S
C600 C601 1.391 . S
C601 H589 0.950 . S
C601 C597 1.393 . S
C601 C600 1.391 . S
C602 H592 0.950 . S
C602 C603 1.386 . S
C602 C604 1.391 1_554 S
C603 C602 1.386 . S
C603 C607 1.393 . S
C604 H593 0.950 . S
C604 C602 1.391 1_556 S
C604 C605 1.400 1_556 S
C605 C599 1.491 1_564 S
C605 C604 1.400 1_554 S
C605 C606 1.398 . S
C606 H594 0.950 . S
C606 C605 1.398 . S
C606 C607 1.391 . S
C607 H595 0.950 . S
C607 C603 1.393 . S
C607 C606 1.391 . S
H608 C616 0.950 . S
H609 C621 0.950 . S
H610 C618 0.950 . S
H611 C620 0.950 . S
H612 C622 0.950 . S
H613 C624 0.950 . S
H614 C626 0.950 . S
H615 C627 0.950 . S
C616 H608 0.950 . S
C616 C617 1.386 . S
C616 C618 1.391 . S
C617 C616 1.386 . S
C617 C621 1.393 . S
C618 H610 0.950 . S
C618 C616 1.391 . S
C618 C619 1.400 . S
C619 C618 1.400 . S
C619 C620 1.398 . S
C619 C625 1.491 . S
C620 H611 0.950 . S
C620 C619 1.398 . S
C620 C621 1.391 . S
C621 H609 0.950 . S
C621 C617 1.393 . S
C621 C620 1.391 . S
C622 H612 0.950 . S
C622 C623 1.386 . S
C622 C624 1.391 . S
C623 C622 1.386 . S
C623 C627 1.393 . S
C624 H613 0.950 . S
C624 C622 1.391 . S
C624 C625 1.400 . S
C625 C619 1.491 . S
C625 C624 1.400 . S
C625 C626 1.398 . S
C626 H614 0.950 . S
C626 C625 1.398 . S
C626 C627 1.391 . S
C627 H615 0.950 . S
C627 C623 1.393 . S
C627 C626 1.391 . S
H628 C636 0.950 . S
H629 C641 0.950 . S
H630 C638 0.950 . S
H631 C640 0.950 . S
H632 C642 0.950 . S
H633 C644 0.950 . S
H634 C646 0.950 . S
H635 C647 0.950 . S
C636 H628 0.950 . S
C636 C637 1.386 . S
C636 C638 1.391 . S
C637 C636 1.386 . S
C637 C641 1.393 1_556 S
C638 H630 0.950 . S
C638 C636 1.391 . S
C638 C639 1.400 . S
C639 C638 1.400 . S
C639 C640 1.398 1_556 S
C639 C645 1.491 1_556 S
C640 H631 0.950 . S
C640 C639 1.398 1_554 S
C640 C641 1.391 . S
C641 H629 0.950 . S
C641 C637 1.393 1_554 S
C641 C640 1.391 . S
C642 H632 0.950 . S
C642 C643 1.386 . S
C642 C644 1.391 . S
C643 C642 1.386 . S
C643 C647 1.393 1_554 S
C644 H633 0.950 . S
C644 C642 1.391 . S
C644 C645 1.400 . S
C645 C639 1.491 1_554 S
C645 C644 1.400 . S
C645 C646 1.398 1_554 S
C646 H634 0.950 . S
C646 C645 1.398 1_556 S
C646 C647 1.391 . S
C647 H635 0.950 . S
C647 C643 1.393 1_556 S
C647 C646 1.391 . S
H648 C656 0.950 . S
H649 C661 0.950 . S
H650 C658 0.950 . S
H651 C660 0.950 . S
H652 C662 0.950 . S
H653 C664 0.950 . S
H654 C666 0.950 . S
H655 C667 0.950 . S
C656 H648 0.950 . S
C656 C657 1.386 . S
C656 C658 1.391 . S
C657 C656 1.386 . S
C657 C661 1.393 . S
C658 H650 0.950 . S
C658 C656 1.391 . S
C658 C659 1.400 . S
C659 C658 1.400 . S
C659 C660 1.398 . S
C659 C665 1.491 . S
C660 H651 0.950 . S
C660 C659 1.398 . S
C660 C661 1.391 . S
C661 H649 0.950 . S
C661 C657 1.393 . S
C661 C660 1.391 . S
C662 H652 0.950 . S
C662 C663 1.386 . S
C662 C664 1.391 . S
C663 C662 1.386 . S
C663 C667 1.393 . S
C664 H653 0.950 . S
C664 C662 1.391 . S
C664 C665 1.400 . S
C665 C659 1.491 . S
C665 C664 1.400 . S
C665 C666 1.398 . S
C666 H654 0.950 . S
C666 C665 1.398 . S
C666 C667 1.391 . S
C667 H655 0.950 . S
C667 C663 1.393 . S
C667 C666 1.391 . S
H668 C676 0.950 . S
H669 C681 0.950 . S
H670 C678 0.950 . S
H671 C680 0.950 . S
H672 C682 0.950 . S
H673 C684 0.950 . S
H674 C686 0.950 . S
H675 C687 0.950 . S
C676 H668 0.950 . S
C676 C677 1.386 . S
C676 C678 1.391 . S
C677 C676 1.386 . S
C677 C681 1.393 . S
C678 H670 0.950 . S
C678 C676 1.391 . S
C678 C679 1.400 . S
C679 C678 1.400 . S
C679 C680 1.398 . S
C679 C685 1.491 . S
C680 H671 0.950 . S
C680 C679 1.398 . S
C680 C681 1.391 . S
C681 H669 0.950 . S
C681 C677 1.393 . S
C681 C680 1.391 . S
C682 H672 0.950 . S
C682 C683 1.386 . S
C682 C684 1.391 . S
C683 C682 1.386 . S
C683 C687 1.393 . S
C684 H673 0.950 . S
C684 C682 1.391 . S
C684 C685 1.400 . S
C685 C679 1.491 . S
C685 C684 1.400 . S
C685 C686 1.398 . S
C686 H674 0.950 . S
C686 C685 1.398 . S
C686 C687 1.391 . S
C687 H675 0.950 . S
C687 C683 1.393 . S
C687 C686 1.391 . S
H688 C696 0.950 . S
H689 C701 0.950 . S
H690 C698 0.950 . S
H691 C700 0.950 . S
H692 C702 0.950 . S
H693 C704 0.950 . S
H694 C706 0.950 . S
H695 C707 0.950 . S
C696 H688 0.950 . S
C696 C697 1.386 . S
C696 C698 1.391 . S
C697 C696 1.386 . S
C697 C701 1.393 . S
C698 H690 0.950 . S
C698 C696 1.391 . S
C698 C699 1.400 . S
C699 C698 1.400 . S
C699 C700 1.398 . S
C699 C705 1.491 . S
C700 H691 0.950 . S
C700 C699 1.398 . S
C700 C701 1.391 . S
C701 H689 0.950 . S
C701 C697 1.393 . S
C701 C700 1.391 . S
C702 H692 0.950 . S
C702 C703 1.386 . S
C702 C704 1.391 . S
C703 C702 1.386 . S
C703 C707 1.393 . S
C704 H693 0.950 . S
C704 C702 1.391 . S
C704 C705 1.400 . S
C705 C699 1.491 . S
C705 C704 1.400 . S
C705 C706 1.398 . S
C706 H694 0.950 . S
C706 C705 1.398 . S
C706 C707 1.391 . S
C707 H695 0.950 . S
C707 C703 1.393 . S
C707 C706 1.391 . S
H708 C716 0.950 . S
H709 C721 0.950 . S
H710 C718 0.950 . S
H711 C720 0.950 . S
H712 C722 0.950 . S
H713 C724 0.950 . S
H714 C726 0.950 . S
H715 C727 0.950 . S
C716 H708 0.950 . S
C716 C717 1.386 . S
C716 C718 1.391 1_554 S
C717 C716 1.386 . S
C717 C721 1.393 . S
C718 H710 0.950 . S
C718 C716 1.391 1_556 S
C718 C719 1.400 1_556 S
C719 C718 1.400 1_554 S
C719 C720 1.398 . S
C719 C725 1.491 1_554 S
C720 H711 0.950 . S
C720 C719 1.398 . S
C720 C721 1.391 . S
C721 H709 0.950 . S
C721 C717 1.393 . S
C721 C720 1.391 . S
C722 H712 0.950 . S
C722 C723 1.386 . S
C722 C724 1.391 1_556 S
C723 C722 1.386 . S
C723 C727 1.393 . S
C724 H713 0.950 . S
C724 C722 1.391 1_554 S
C724 C725 1.400 1_554 S
C725 C719 1.491 1_556 S
C725 C724 1.400 1_556 S
C725 C726 1.398 . S
C726 H714 0.950 . S
C726 C725 1.398 . S
C726 C727 1.391 . S
C727 H715 0.950 . S
C727 C723 1.393 . S
C727 C726 1.391 . S
H728 C736 0.950 . S
H729 C741 0.950 . S
H730 C738 0.950 . S
H731 C740 0.950 . S
H732 C742 0.950 . S
H733 C744 0.950 . S
H734 C746 0.950 . S
H735 C747 0.950 . S
C736 H728 0.950 . S
C736 C737 1.386 . S
C736 C738 1.391 . S
C737 C736 1.386 . S
C737 C741 1.393 . S
C738 H730 0.950 . S
C738 C736 1.391 . S
C738 C739 1.400 . S
C739 C738 1.400 . S
C739 C740 1.398 . S
C739 C745 1.491 . S
C740 H731 0.950 . S
C740 C739 1.398 . S
C740 C741 1.391 . S
C741 H729 0.950 . S
C741 C737 1.393 . S
C741 C740 1.391 . S
C742 H732 0.950 . S
C742 C743 1.386 . S
C742 C744 1.391 . S
C743 C742 1.386 . S
C743 C747 1.393 . S
C744 H733 0.950 . S
C744 C742 1.391 . S
C744 C745 1.400 . S
C745 C739 1.491 . S
C745 C744 1.400 . S
C745 C746 1.398 . S
C746 H734 0.950 . S
C746 C745 1.398 . S
C746 C747 1.391 . S
C747 H735 0.950 . S
C747 C743 1.393 . S
C747 C746 1.391 . S
H748 C756 0.950 . S
H749 C761 0.950 . S
H750 C758 0.950 . S
H751 C760 0.950 . S
H752 C762 0.950 . S
H753 C764 0.950 . S
H754 C766 0.950 . S
H755 C767 0.950 . S
C756 H748 0.950 . S
C756 C757 1.386 . S
C756 C758 1.391 . S
C757 C756 1.386 . S
C757 C761 1.393 . S
C758 H750 0.950 . S
C758 C756 1.391 . S
C758 C759 1.400 . S
C759 C758 1.400 . S
C759 C760 1.398 . S
C759 C765 1.491 . S
C760 H751 0.950 . S
C760 C759 1.398 . S
C760 C761 1.391 . S
C761 H749 0.950 . S
C761 C757 1.393 . S
C761 C760 1.391 . S
C762 H752 0.950 . S
C762 C763 1.386 . S
C762 C764 1.391 . S
C763 C762 1.386 . S
C763 C767 1.393 . S
C764 H753 0.950 . S
C764 C762 1.391 . S
C764 C765 1.400 . S
C765 C759 1.491 . S
C765 C764 1.400 . S
C765 C766 1.398 . S
C766 H754 0.950 . S
C766 C765 1.398 . S
C766 C767 1.391 . S
C767 H755 0.950 . S
C767 C763 1.393 . S
C767 C766 1.391 . S
H768 C776 0.950 . S
H769 C781 0.950 . S
H770 C778 0.950 . S
H771 C780 0.950 . S
H772 C782 0.950 . S
H773 C784 0.950 . S
H774 C786 0.950 . S
H775 C787 0.950 . S
C776 H768 0.950 . S
C776 C777 1.386 . S
C776 C778 1.391 . S
C777 C776 1.386 . S
C777 C781 1.393 . S
C778 H770 0.950 . S
C778 C776 1.391 . S
C778 C779 1.400 . S
C779 C778 1.400 . S
C779 C780 1.398 . S
C779 C785 1.491 . S
C780 H771 0.950 . S
C780 C779 1.398 . S
C780 C781 1.391 . S
C781 H769 0.950 . S
C781 C777 1.393 . S
C781 C780 1.391 . S
C782 H772 0.950 . S
C782 C783 1.386 . S
C782 C784 1.391 . S
C783 C782 1.386 . S
C783 C787 1.393 . S
C784 H773 0.950 . S
C784 C782 1.391 . S
C784 C785 1.400 . S
C785 C779 1.491 . S
C785 C784 1.400 . S
C785 C786 1.398 . S
C786 H774 0.950 . S
C786 C785 1.398 . S
C786 C787 1.391 . S
C787 H775 0.950 . S
C787 C783 1.393 . S
C787 C786 1.391 . S
H788 C796 0.950 1_556 S
H789 C801 0.950 . S
H790 C798 0.950 . S
H791 C800 0.950 . S
H792 C802 0.950 . S
H793 C804 0.950 . S
H794 C806 0.950 . S
H795 C807 0.950 . S
C796 H788 0.950 1_554 S
C796 C797 1.386 . S
C796 C798 1.391 . S
C797 C796 1.386 . S
C797 C801 1.393 . S
C798 H790 0.950 . S
C798 C796 1.391 . S
C798 C799 1.400 . S
C799 C798 1.400 . S
C799 C800 1.398 . S
C799 C805 1.491 . S
C800 H791 0.950 . S
C800 C799 1.398 . S
C800 C801 1.391 . S
C801 H789 0.950 . S
C801 C797 1.393 . S
C801 C800 1.391 . S
C802 H792 0.950 . S
C802 C803 1.386 . S
C802 C804 1.391 . S
C803 C802 1.386 . S
C803 C807 1.393 . S
C804 H793 0.950 . S
C804 C802 1.391 . S
C804 C805 1.400 . S
C805 C799 1.491 . S
C805 C804 1.400 . S
C805 C806 1.398 . S
C806 H794 0.950 . S
C806 C805 1.398 . S
C806 C807 1.391 . S
C807 H795 0.950 . S
C807 C803 1.393 . S
C807 C806 1.391 . S
H808 C816 0.950 . S
H809 C821 0.950 . S
H810 C818 0.950 . S
H811 C820 0.950 . S
H812 C822 0.950 . S
H813 C824 0.950 . S
H814 C826 0.950 . S
H815 C827 0.950 . S
C816 H808 0.950 . S
C816 C817 1.386 . S
C816 C818 1.391 . S
C817 C816 1.386 . S
C817 C821 1.393 . S
C818 H810 0.950 . S
C818 C816 1.391 . S
C818 C819 1.400 . S
C819 C818 1.400 . S
C819 C820 1.398 . S
C819 C825 1.491 . S
C820 H811 0.950 . S
C820 C819 1.398 . S
C820 C821 1.391 . S
C821 H809 0.950 . S
C821 C817 1.393 . S
C821 C820 1.391 . S
C822 H812 0.950 . S
C822 C823 1.386 . S
C822 C824 1.391 . S
C823 C822 1.386 . S
C823 C827 1.393 . S
C824 H813 0.950 . S
C824 C822 1.391 . S
C824 C825 1.400 . S
C825 C819 1.491 . S
C825 C824 1.400 . S
C825 C826 1.398 . S
C826 H814 0.950 . S
C826 C825 1.398 . S
C826 C827 1.391 . S
C827 H815 0.950 . S
C827 C823 1.393 . S
C827 C826 1.391 . S
H828 C836 0.950 . S
H829 C841 0.950 . S
H830 C838 0.950 . S
H831 C840 0.950 . S
H832 C842 0.950 . S
H833 C844 0.950 . S
H834 C846 0.950 . S
H835 C847 0.950 . S
C836 H828 0.950 . S
C836 C837 1.386 . S
C836 C838 1.391 . S
C837 C836 1.386 . S
C837 C841 1.393 . S
C838 H830 0.950 . S
C838 C836 1.391 . S
C838 C839 1.400 . S
C839 C838 1.400 . S
C839 C840 1.398 . S
C839 C845 1.491 . S
C840 H831 0.950 . S
C840 C839 1.398 . S
C840 C841 1.391 . S
C841 H829 0.950 . S
C841 C837 1.393 . S
C841 C840 1.391 . S
C842 H832 0.950 . S
C842 C843 1.386 . S
C842 C844 1.391 . S
C843 C842 1.386 . S
C843 C847 1.393 . S
C844 H833 0.950 . S
C844 C842 1.391 . S
C844 C845 1.400 . S
C845 C839 1.491 . S
C845 C844 1.400 . S
C845 C846 1.398 . S
C846 H834 0.950 . S
C846 C845 1.398 . S
C846 C847 1.391 . S
C847 H835 0.950 . S
C847 C843 1.393 . S
C847 C846 1.391 . S
H848 C856 0.950 . S
H849 C861 0.950 1_556 S
H850 C858 0.950 . S
H851 C860 0.950 . S
H852 C862 0.950 . S
H853 C864 0.950 . S
H854 C866 0.950 . S
H855 C867 0.950 . S
C856 H848 0.950 . S
C856 C857 1.386 . S
C856 C858 1.391 . S
C857 C856 1.386 . S
C857 C861 1.393 . S
C858 H850 0.950 . S
C858 C856 1.391 . S
C858 C859 1.400 . S
C859 C858 1.400 . S
C859 C860 1.398 . S
C859 C865 1.491 . S
C860 H851 0.950 . S
C860 C859 1.398 . S
C860 C861 1.391 . S
C861 H849 0.950 1_554 S
C861 C857 1.393 . S
C861 C860 1.391 . S
C862 H852 0.950 . S
C862 C863 1.386 . S
C862 C864 1.391 . S
C863 C862 1.386 . S
C863 C867 1.393 . S
C864 H853 0.950 . S
C864 C862 1.391 . S
C864 C865 1.400 . S
C865 C859 1.491 . S
C865 C864 1.400 . S
C865 C866 1.398 . S
C866 H854 0.950 . S
C866 C865 1.398 . S
C866 C867 1.391 . S
C867 H855 0.950 . S
C867 C863 1.393 . S
C867 C866 1.391 . S
H868 C876 0.950 . S
H869 C881 0.950 1_554 S
H870 C878 0.950 . S
H871 C880 0.950 . S
H872 C882 0.950 . S
H873 C884 0.950 . S
H874 C886 0.950 . S
H875 C887 0.950 . S
C876 H868 0.950 . S
C876 C877 1.386 . S
C876 C878 1.391 . S
C877 C876 1.386 . S
C877 C881 1.393 . S
C878 H870 0.950 . S
C878 C876 1.391 . S
C878 C879 1.400 . S
C879 C878 1.400 . S
C879 C880 1.398 . S
C879 C885 1.491 . S
C880 H871 0.950 . S
C880 C879 1.398 . S
C880 C881 1.391 . S
C881 H869 0.950 1_556 S
C881 C877 1.393 . S
C881 C880 1.391 . S
C882 H872 0.950 . S
C882 C883 1.386 . S
C882 C884 1.391 . S
C883 C882 1.386 . S
C883 C887 1.393 . S
C884 H873 0.950 . S
C884 C882 1.391 . S
C884 C885 1.400 . S
C885 C879 1.491 . S
C885 C884 1.400 . S
C885 C886 1.398 . S
C886 H874 0.950 . S
C886 C885 1.398 . S
C886 C887 1.391 . S
C887 H875 0.950 . S
C887 C883 1.393 . S
C887 C886 1.391 . S
H888 C896 0.950 . S
H889 C901 0.950 . S
H890 C898 0.950 . S
H891 C900 0.950 . S
H892 C902 0.950 . S
H893 C904 0.950 . S
H894 C906 0.950 . S
H895 C907 0.950 . S
C896 H888 0.950 . S
C896 C897 1.386 . S
C896 C898 1.391 . S
C897 C896 1.386 . S
C897 C901 1.393 . S
C898 H890 0.950 . S
C898 C896 1.391 . S
C898 C899 1.400 . S
C899 C898 1.400 . S
C899 C900 1.398 . S
C899 C905 1.491 . S
C900 H891 0.950 . S
C900 C899 1.398 . S
C900 C901 1.391 . S
C901 H889 0.950 . S
C901 C897 1.393 . S
C901 C900 1.391 . S
C902 H892 0.950 . S
C902 C903 1.386 . S
C902 C904 1.391 . S
C903 C902 1.386 . S
C903 C907 1.393 . S
C904 H893 0.950 . S
C904 C902 1.391 . S
C904 C905 1.400 . S
C905 C899 1.491 . S
C905 C904 1.400 . S
C905 C906 1.398 . S
C906 H894 0.950 . S
C906 C905 1.398 . S
C906 C907 1.391 . S
C907 H895 0.950 . S
C907 C903 1.393 . S
C907 C906 1.391 . S
H908 C916 0.950 . S
H909 C921 0.950 . S
H910 C918 0.950 . S
H911 C920 0.950 . S
H912 C922 0.950 . S
H913 C924 0.950 . S
H914 C926 0.950 . S
H915 C927 0.950 . S
C916 H908 0.950 . S
C916 C917 1.386 . S
C916 C918 1.391 . S
C917 C916 1.386 . S
C917 C921 1.393 . S
C918 H910 0.950 . S
C918 C916 1.391 . S
C918 C919 1.400 . S
C919 C918 1.400 . S
C919 C920 1.398 . S
C919 C925 1.491 . S
C920 H911 0.950 . S
C920 C919 1.398 . S
C920 C921 1.391 . S
C921 H909 0.950 . S
C921 C917 1.393 . S
C921 C920 1.391 . S
C922 H912 0.950 . S
C922 C923 1.386 . S
C922 C924 1.391 . S
C923 C922 1.386 . S
C923 C927 1.393 . S
C924 H913 0.950 . S
C924 C922 1.391 . S
C924 C925 1.400 . S
C925 C919 1.491 . S
C925 C924 1.400 . S
C925 C926 1.398 . S
C926 H914 0.950 . S
C926 C925 1.398 . S
C926 C927 1.391 . S
C927 H915 0.950 . S
C927 C923 1.393 . S
C927 C926 1.391 . S
H928 C936 0.950 . S
H929 C941 0.950 . S
H930 C938 0.950 . S
H931 C940 0.950 . S
H932 C942 0.950 . S
H933 C944 0.950 . S
H934 C946 0.950 . S
H935 C947 0.950 . S
C936 H928 0.950 . S
C936 C937 1.386 . S
C936 C938 1.391 . S
C937 C936 1.386 . S
C937 C941 1.393 . S
C938 H930 0.950 . S
C938 C936 1.391 . S
C938 C939 1.400 . S
C939 C938 1.400 . S
C939 C940 1.398 . S
C939 C945 1.491 . S
C940 H931 0.950 . S
C940 C939 1.398 . S
C940 C941 1.391 . S
C941 H929 0.950 . S
C941 C937 1.393 . S
C941 C940 1.391 . S
C942 H932 0.950 . S
C942 C943 1.386 . S
C942 C944 1.391 . S
C943 C942 1.386 . S
C943 C947 1.393 . S
C944 H933 0.950 . S
C944 C942 1.391 . S
C944 C945 1.400 . S
C945 C939 1.491 . S
C945 C944 1.400 . S
C945 C946 1.398 . S
C946 H934 0.950 . S
C946 C945 1.398 . S
C946 C947 1.391 . S
C947 H935 0.950 . S
C947 C943 1.393 . S
C947 C946 1.391 . S
H948 C956 0.950 . S
H949 C961 0.950 . S
H950 C958 0.950 . S
H951 C960 0.950 . S
H952 C962 0.950 . S
H953 C964 0.950 . S
H954 C966 0.950 . S
H955 C967 0.950 . S
C956 H948 0.950 . S
C956 C957 1.386 . S
C956 C958 1.391 . S
C957 C956 1.386 . S
C957 C961 1.393 . S
C958 H950 0.950 . S
C958 C956 1.391 . S
C958 C959 1.400 . S
C959 C958 1.400 . S
C959 C960 1.398 . S
C959 C965 1.491 . S
C960 H951 0.950 . S
C960 C959 1.398 . S
C960 C961 1.391 . S
C961 H949 0.950 . S
C961 C957 1.393 . S
C961 C960 1.391 . S
C962 H952 0.950 . S
C962 C963 1.386 . S
C962 C964 1.391 . S
C963 C962 1.386 . S
C963 C967 1.393 . S
C964 H953 0.950 . S
C964 C962 1.391 . S
C964 C965 1.400 . S
C965 C959 1.491 . S
C965 C964 1.400 . S
C965 C966 1.398 . S
C966 H954 0.950 . S
C966 C965 1.398 . S
C966 C967 1.391 . S
C967 H955 0.950 . S
C967 C963 1.393 . S
C967 C966 1.391 . S
H968 C976 0.950 . S
H969 C981 0.950 . S
H970 C978 0.950 . S
H971 C980 0.950 . S
H972 C982 0.950 . S
H973 C984 0.950 . S
H974 C986 0.950 . S
H975 C987 0.950 1_554 S
C976 H968 0.950 . S
C976 C977 1.386 . S
C976 C978 1.391 . S
C977 C976 1.386 . S
C977 C981 1.393 . S
C978 H970 0.950 . S
C978 C976 1.391 . S
C978 C979 1.400 . S
C979 C978 1.400 . S
C979 C980 1.398 . S
C979 C985 1.491 . S
C980 H971 0.950 . S
C980 C979 1.398 . S
C980 C981 1.391 . S
C981 H969 0.950 . S
C981 C977 1.393 . S
C981 C980 1.391 . S
C982 H972 0.950 . S
C982 C983 1.386 . S
C982 C984 1.391 . S
C983 C982 1.386 . S
C983 C987 1.393 . S
C984 H973 0.950 . S
C984 C982 1.391 . S
C984 C985 1.400 . S
C985 C979 1.491 . S
C985 C984 1.400 . S
C985 C986 1.398 . S
C986 H974 0.950 . S
C986 C985 1.398 . S
C986 C987 1.391 . S
C987 H975 0.950 1_556 S
C987 C983 1.393 . S
C987 C986 1.391 . S
H988 C996 0.950 . S
H989 C1001 0.950 . S
H990 C998 0.950 . S
H991 C1000 0.950 . S
H992 C1002 0.950 . S
H993 C1004 0.950 . S
H994 C1006 0.950 . S
H995 C1007 0.950 . S
C996 H988 0.950 . S
C996 C997 1.386 . S
C996 C998 1.391 . S
C997 C996 1.386 . S
C997 C1001 1.393 . S
C998 H990 0.950 . S
C998 C996 1.391 . S
C998 C999 1.400 . S
C999 C998 1.400 . S
C999 C1000 1.398 . S
C999 C1005 1.491 . S
C1000 H991 0.950 . S
C1000 C999 1.398 . S
C1000 C1001 1.391 . S
C1001 H989 0.950 . S
C1001 C997 1.393 . S
C1001 C1000 1.391 . S
C1002 H992 0.950 . S
C1002 C1003 1.386 . S
C1002 C1004 1.391 . S
C1003 C1002 1.386 . S
C1003 C1007 1.393 1_554 S
C1004 H993 0.950 . S
C1004 C1002 1.391 . S
C1004 C1005 1.400 . S
C1005 C999 1.491 . S
C1005 C1004 1.400 . S
C1005 C1006 1.398 . S
C1006 H994 0.950 . S
C1006 C1005 1.398 . S
C1006 C1007 1.391 1_554 S
C1007 H995 0.950 . S
C1007 C1003 1.393 1_556 S
C1007 C1006 1.391 1_556 S
H1008 C1016 0.950 . S
H1009 C1021 0.950 . S
H1010 C1018 0.950 . S
H1011 C1020 0.950 . S
H1012 C1022 0.950 . S
H1013 C1024 0.950 . S
H1014 C1026 0.950 . S
H1015 C1027 0.950 . S
C1016 H1008 0.950 . S
C1016 C1017 1.386 . S
C1016 C1018 1.391 . S
C1017 C1016 1.386 . S
C1017 C1021 1.393 . S
C1018 H1010 0.950 . S
C1018 C1016 1.391 . S
C1018 C1019 1.400 . S
C1019 C1018 1.400 . S
C1019 C1020 1.398 . S
C1019 C1025 1.491 . S
C1020 H1011 0.950 . S
C1020 C1019 1.398 . S
C1020 C1021 1.391 . S
C1021 H1009 0.950 . S
C1021 C1017 1.393 . S
C1021 C1020 1.391 . S
C1022 H1012 0.950 . S
C1022 C1023 1.386 . S
C1022 C1024 1.391 . S
C1023 C1022 1.386 . S
C1023 C1027 1.393 . S
C1024 H1013 0.950 . S
C1024 C1022 1.391 . S
C1024 C1025 1.400 . S
C1025 C1019 1.491 . S
C1025 C1024 1.400 . S
C1025 C1026 1.398 . S
C1026 H1014 0.950 . S
C1026 C1025 1.398 . S
C1026 C1027 1.391 . S
C1027 H1015 0.950 . S
C1027 C1023 1.393 . S
C1027 C1026 1.391 . S
H1028 C1036 0.950 . S
H1029 C1041 0.950 . S
H1030 C1038 0.950 . S
H1031 C1040 0.950 . S
H1032 C1042 0.950 . S
H1033 C1044 0.950 . S
H1034 C1046 0.950 . S
H1035 C1047 0.950 . S
C1036 H1028 0.950 . S
C1036 C1037 1.386 . S
C1036 C1038 1.391 . S
C1037 C1036 1.386 . S
C1037 C1041 1.393 . S
C1038 H1030 0.950 . S
C1038 C1036 1.391 . S
C1038 C1039 1.400 . S
C1039 C1038 1.400 . S
C1039 C1040 1.398 . S
C1039 C1045 1.491 . S
C1040 H1031 0.950 . S
C1040 C1039 1.398 . S
C1040 C1041 1.391 . S
C1041 H1029 0.950 . S
C1041 C1037 1.393 . S
C1041 C1040 1.391 . S
C1042 H1032 0.950 . S
C1042 C1043 1.386 . S
C1042 C1044 1.391 . S
C1043 C1042 1.386 . S
C1043 C1047 1.393 . S
C1044 H1033 0.950 . S
C1044 C1042 1.391 . S
C1044 C1045 1.400 . S
C1045 C1039 1.491 . S
C1045 C1044 1.400 . S
C1045 C1046 1.398 . S
C1046 H1034 0.950 . S
C1046 C1045 1.398 . S
C1046 C1047 1.391 . S
C1047 H1035 0.950 . S
C1047 C1043 1.393 . S
C1047 C1046 1.391 . S
H1048 C1056 0.950 . S
H1049 C1061 0.935 1_556 S
H1050 C1058 0.950 . S
H1051 C1060 0.950 . S
H1052 C1062 0.950 . S
H1053 C1064 0.950 . S
H1054 C1066 0.950 . S
H1055 C1067 0.950 . S
C1056 H1048 0.950 . S
C1056 C1057 1.386 . S
C1056 C1058 1.391 . S
C1057 C1056 1.386 . S
C1057 C1061 1.395 . S
C1058 H1050 0.950 . S
C1058 C1056 1.391 . S
C1058 C1059 1.400 . S
C1059 C1058 1.400 . S
C1059 C1060 1.398 . S
C1059 C1065 1.491 . S
C1060 H1051 0.950 . S
C1060 C1059 1.398 . S
C1060 C1061 1.403 . S
C1061 H1049 0.935 1_554 S
C1061 C1057 1.395 . S
C1061 C1060 1.403 . S
C1062 H1052 0.950 . S
C1062 C1063 1.386 . S
C1062 C1064 1.391 . S
C1063 C1062 1.386 . S
C1063 C1067 1.393 . S
C1064 H1053 0.950 . S
C1064 C1062 1.391 . S
C1064 C1065 1.400 . S
C1065 C1059 1.491 . S
C1065 C1064 1.400 . S
C1065 C1066 1.398 . S
C1066 H1054 0.950 . S
C1066 C1065 1.398 . S
C1066 C1067 1.391 . S
C1067 H1055 0.950 . S
C1067 C1063 1.393 . S
C1067 C1066 1.391 . S
H1068 C1076 0.950 . S
H1069 C1081 0.950 . S
H1070 C1078 0.950 . S
H1071 C1080 0.950 . S
H1072 C1082 0.950 . S
H1073 C1084 0.950 . S
H1074 C1086 0.950 . S
H1075 C1087 0.950 1_554 S
C1076 H1068 0.950 . S
C1076 C1077 1.386 . S
C1076 C1078 1.391 . S
C1077 C1076 1.386 . S
C1077 C1081 1.393 . S
C1078 H1070 0.950 . S
C1078 C1076 1.391 . S
C1078 C1079 1.400 . S
C1079 C1078 1.400 . S
C1079 C1080 1.398 . S
C1079 C1085 1.491 . S
C1080 H1071 0.950 . S
C1080 C1079 1.398 . S
C1080 C1081 1.391 . S
C1081 H1069 0.950 . S
C1081 C1077 1.393 . S
C1081 C1080 1.391 . S
C1082 H1072 0.950 . S
C1082 C1083 1.386 . S
C1082 C1084 1.391 . S
C1083 C1082 1.386 . S
C1083 C1087 1.393 . S
C1084 H1073 0.950 . S
C1084 C1082 1.391 . S
C1084 C1085 1.400 . S
C1085 C1079 1.491 . S
C1085 C1084 1.400 . S
C1085 C1086 1.398 . S
C1086 H1074 0.950 . S
C1086 C1085 1.398 . S
C1086 C1087 1.391 . S
C1087 H1075 0.950 1_556 S
C1087 C1083 1.393 . S
C1087 C1086 1.391 . S
H1088 C1096 0.950 . S
H1089 C1101 0.950 . S
H1090 C1098 0.950 . S
H1091 C1100 0.950 . S
H1092 C1102 0.950 . S
H1093 C1104 0.950 . S
H1094 C1106 0.950 . S
H1095 C1107 0.950 . S
C1096 H1088 0.950 . S
C1096 C1097 1.386 . S
C1096 C1098 1.391 . S
C1097 C1096 1.386 . S
C1097 C1101 1.393 . S
C1098 H1090 0.950 . S
C1098 C1096 1.391 . S
C1098 C1099 1.400 . S
C1099 C1098 1.400 . S
C1099 C1100 1.398 . S
C1099 C1105 1.491 . S
C1100 H1091 0.950 . S
C1100 C1099 1.398 . S
C1100 C1101 1.391 . S
C1101 H1089 0.950 . S
C1101 C1097 1.393 . S
C1101 C1100 1.391 . S
C1102 H1092 0.950 . S
C1102 C1103 1.386 . S
C1102 C1104 1.391 . S
C1103 C1102 1.386 . S
C1103 C1107 1.393 . S
C1104 H1093 0.950 . S
C1104 C1102 1.391 . S
C1104 C1105 1.400 . S
C1105 C1099 1.491 . S
C1105 C1104 1.400 . S
C1105 C1106 1.398 . S
C1106 H1094 0.950 . S
C1106 C1105 1.398 . S
C1106 C1107 1.391 . S
C1107 H1095 0.950 . S
C1107 C1103 1.393 . S
C1107 C1106 1.391 . S
H1108 C1116 0.950 . S
H1109 C1121 0.950 . S
H1110 C1118 0.950 . S
H1111 C1120 0.950 . S
H1112 C1122 0.950 . S
H1113 C1124 0.950 . S
H1114 C1126 0.950 . S
H1115 C1127 0.950 . S
C1116 H1108 0.950 . S
C1116 C1117 1.386 . S
C1116 C1118 1.391 . S
C1117 C1116 1.386 . S
C1117 C1121 1.393 . S
C1118 H1110 0.950 . S
C1118 C1116 1.391 . S
C1118 C1119 1.400 . S
C1119 C1118 1.400 . S
C1119 C1120 1.398 . S
C1119 C1125 1.491 1_655 S
C1120 H1111 0.950 . S
C1120 C1119 1.398 . S
C1120 C1121 1.391 . S
C1121 H1109 0.950 . S
C1121 C1117 1.393 . S
C1121 C1120 1.391 . S
C1122 H1112 0.950 . S
C1122 C1123 1.386 . S
C1122 C1124 1.391 . S
C1123 C1122 1.386 . S
C1123 C1127 1.393 . S
C1124 H1113 0.950 . S
C1124 C1122 1.391 . S
C1124 C1125 1.400 . S
C1125 C1119 1.491 1_455 S
C1125 C1124 1.400 . S
C1125 C1126 1.398 . S
C1126 H1114 0.950 . S
C1126 C1125 1.398 . S
C1126 C1127 1.391 . S
C1127 H1115 0.950 . S
C1127 C1123 1.393 . S
C1127 C1126 1.391 . S
H1128 C1136 0.950 . S
H1129 C1141 0.950 . S
H1130 C1138 0.950 . S
H1131 C1140 0.950 . S
H1132 C1142 0.950 . S
H1133 C1144 0.950 . S
H1134 C1146 0.950 . S
H1135 C1147 0.950 . S
C1136 H1128 0.950 . S
C1136 C1137 1.386 . S
C1136 C1138 1.391 . S
C1137 C1136 1.386 . S
C1137 C1141 1.393 . S
C1138 H1130 0.950 . S
C1138 C1136 1.391 . S
C1138 C1139 1.400 . S
C1139 C1138 1.400 . S
C1139 C1140 1.398 . S
C1139 C1145 1.491 . S
C1140 H1131 0.950 . S
C1140 C1139 1.398 . S
C1140 C1141 1.391 . S
C1141 H1129 0.950 . S
C1141 C1137 1.393 . S
C1141 C1140 1.391 . S
C1142 H1132 0.950 . S
C1142 C1143 1.386 . S
C1142 C1144 1.391 . S
C1143 C1142 1.386 . S
C1143 C1147 1.393 . S
C1144 H1133 0.950 . S
C1144 C1142 1.391 . S
C1144 C1145 1.400 . S
C1145 C1139 1.491 . S
C1145 C1144 1.400 . S
C1145 C1146 1.398 . S
C1146 H1134 0.950 . S
C1146 C1145 1.398 . S
C1146 C1147 1.391 . S
C1147 H1135 0.950 . S
C1147 C1143 1.393 . S
C1147 C1146 1.391 . S
H1148 C1156 0.950 . S
H1149 C1161 0.950 . S
H1150 C1158 0.950 . S
H1151 C1160 0.950 . S
H1152 C1162 0.950 . S
H1153 C1164 0.950 . S
H1154 C1166 0.950 . S
H1155 C1167 0.950 . S
C1156 H1148 0.950 . S
C1156 C1157 1.386 . S
C1156 C1158 1.391 . S
C1157 C1156 1.386 . S
C1157 C1161 1.393 . S
C1158 H1150 0.950 . S
C1158 C1156 1.391 . S
C1158 C1159 1.400 . S
C1159 C1158 1.400 . S
C1159 C1160 1.398 . S
C1159 C1165 1.491 . S
C1160 H1151 0.950 . S
C1160 C1159 1.398 . S
C1160 C1161 1.391 . S
C1161 H1149 0.950 . S
C1161 C1157 1.393 . S
C1161 C1160 1.391 . S
C1162 H1152 0.950 . S
C1162 C1163 1.386 . S
C1162 C1164 1.391 . S
C1163 C1162 1.386 . S
C1163 C1167 1.393 . S
C1164 H1153 0.950 . S
C1164 C1162 1.391 . S
C1164 C1165 1.400 . S
C1165 C1159 1.491 . S
C1165 C1164 1.400 . S
C1165 C1166 1.398 . S
C1166 H1154 0.950 . S
C1166 C1165 1.398 . S
C1166 C1167 1.391 . S
C1167 H1155 0.950 . S
C1167 C1163 1.393 . S
C1167 C1166 1.391 . S
H1168 C1176 0.950 . S
H1169 C1181 0.950 . S
H1170 C1178 0.950 . S
H1171 C1180 0.950 . S
H1172 C1182 0.950 . S
H1173 C1184 0.950 . S
H1174 C1186 0.950 . S
H1175 C1187 0.950 . S
C1176 H1168 0.950 . S
C1176 C1177 1.386 . S
C1176 C1178 1.391 . S
C1177 C1176 1.386 . S
C1177 C1181 1.393 . S
C1178 H1170 0.950 . S
C1178 C1176 1.391 . S
C1178 C1179 1.400 . S
C1179 C1178 1.400 . S
C1179 C1180 1.398 . S
C1179 C1185 1.491 . S
C1180 H1171 0.950 . S
C1180 C1179 1.398 . S
C1180 C1181 1.391 . S
C1181 H1169 0.950 . S
C1181 C1177 1.393 . S
C1181 C1180 1.391 . S
C1182 H1172 0.950 . S
C1182 C1183 1.386 . S
C1182 C1184 1.391 . S
C1183 C1182 1.386 . S
C1183 C1187 1.393 . S
C1184 H1173 0.950 . S
C1184 C1182 1.391 . S
C1184 C1185 1.400 . S
C1185 C1179 1.491 . S
C1185 C1184 1.400 . S
C1185 C1186 1.398 . S
C1186 H1174 0.950 . S
C1186 C1185 1.398 . S
C1186 C1187 1.391 . S
C1187 H1175 0.950 . S
C1187 C1183 1.393 . S
C1187 C1186 1.391 . S
H1188 C1196 0.950 . S
H1189 C1201 0.950 . S
H1190 C1198 0.950 . S
H1191 C1200 0.950 . S
H1192 C1202 0.950 . S
H1193 C1204 0.950 . S
H1194 C1206 0.950 . S
H1195 C1207 0.950 . S
C1196 H1188 0.950 . S
C1196 C1197 1.386 . S
C1196 C1198 1.391 . S
C1197 C1196 1.386 . S
C1197 C1201 1.393 . S
C1198 H1190 0.950 . S
C1198 C1196 1.391 . S
C1198 C1199 1.400 . S
C1199 C1198 1.400 . S
C1199 C1200 1.398 . S
C1199 C1205 1.491 . S
C1200 H1191 0.950 . S
C1200 C1199 1.398 . S
C1200 C1201 1.391 . S
C1201 H1189 0.950 . S
C1201 C1197 1.393 . S
C1201 C1200 1.391 . S
C1202 H1192 0.950 . S
C1202 C1203 1.386 . S
C1202 C1204 1.391 . S
C1203 C1202 1.386 . S
C1203 C1207 1.393 . S
C1204 H1193 0.950 . S
C1204 C1202 1.391 . S
C1204 C1205 1.400 . S
C1205 C1199 1.491 . S
C1205 C1204 1.400 . S
C1205 C1206 1.398 . S
C1206 H1194 0.950 . S
C1206 C1205 1.398 . S
C1206 C1207 1.391 . S
C1207 H1195 0.950 . S
C1207 C1203 1.393 . S
C1207 C1206 1.391 . S
H1208 C1216 0.950 . S
H1209 C1221 0.950 . S
H1210 C1218 0.950 . S
H1211 C1220 0.950 . S
H1212 C1222 0.950 . S
H1213 C1224 0.950 . S
H1214 C1226 0.950 . S
H1215 C1227 0.950 . S
C1216 H1208 0.950 . S
C1216 C1217 1.386 . S
C1216 C1218 1.391 . S
C1217 C1216 1.386 . S
C1217 C1221 1.393 . S
C1218 H1210 0.950 . S
C1218 C1216 1.391 . S
C1218 C1219 1.400 . S
C1219 C1218 1.400 . S
C1219 C1220 1.398 . S
C1219 C1225 1.491 . S
C1220 H1211 0.950 . S
C1220 C1219 1.398 . S
C1220 C1221 1.391 . S
C1221 H1209 0.950 . S
C1221 C1217 1.393 . S
C1221 C1220 1.391 . S
C1222 H1212 0.950 . S
C1222 C1223 1.386 . S
C1222 C1224 1.391 . S
C1223 C1222 1.386 . S
C1223 C1227 1.393 . S
C1224 H1213 0.950 . S
C1224 C1222 1.391 . S
C1224 C1225 1.400 . S
C1225 C1219 1.491 . S
C1225 C1224 1.400 . S
C1225 C1226 1.398 . S
C1226 H1214 0.950 . S
C1226 C1225 1.398 . S
C1226 C1227 1.391 . S
C1227 H1215 0.950 . S
C1227 C1223 1.393 . S
C1227 C1226 1.391 . S
H1228 C1236 0.950 . S
H1229 C1241 0.950 . S
H1230 C1238 0.950 . S
H1231 C1240 0.950 . S
H1232 C1242 0.950 . S
H1233 C1244 0.950 . S
H1234 C1246 0.950 . S
H1235 C1247 0.950 . S
C1236 H1228 0.950 . S
C1236 C1237 1.386 . S
C1236 C1238 1.391 . S
C1237 C1236 1.386 . S
C1237 C1241 1.393 . S
C1238 H1230 0.950 . S
C1238 C1236 1.391 . S
C1238 C1239 1.400 . S
C1239 C1238 1.400 . S
C1239 C1240 1.398 . S
C1239 C1245 1.491 1_655 S
C1240 H1231 0.950 . S
C1240 C1239 1.398 . S
C1240 C1241 1.391 . S
C1241 H1229 0.950 . S
C1241 C1237 1.393 . S
C1241 C1240 1.391 . S
C1242 H1232 0.950 . S
C1242 C1243 1.386 . S
C1242 C1244 1.391 . S
C1243 C1242 1.386 . S
C1243 C1247 1.393 . S
C1244 H1233 0.950 . S
C1244 C1242 1.391 . S
C1244 C1245 1.400 . S
C1245 C1239 1.491 1_455 S
C1245 C1244 1.400 . S
C1245 C1246 1.398 . S
C1246 H1234 0.950 . S
C1246 C1245 1.398 . S
C1246 C1247 1.391 . S
C1247 H1235 0.950 . S
C1247 C1243 1.393 . S
C1247 C1246 1.391 . S
H1248 C1256 0.950 . S
H1249 C1261 0.950 . S
H1250 C1258 0.950 . S
H1251 C1260 0.950 . S
H1252 C1262 0.950 . S
H1253 C1264 0.950 . S
H1254 C1266 0.950 . S
H1255 C1267 0.950 . S
C1256 H1248 0.950 . S
C1256 C1257 1.386 . S
C1256 C1258 1.391 . S
C1257 C1256 1.386 . S
C1257 C1261 1.393 . S
C1258 H1250 0.950 . S
C1258 C1256 1.391 . S
C1258 C1259 1.400 . S
C1259 C1258 1.400 . S
C1259 C1260 1.398 . S
C1259 C1265 1.491 . S
C1260 H1251 0.950 . S
C1260 C1259 1.398 . S
C1260 C1261 1.391 . S
C1261 H1249 0.950 . S
C1261 C1257 1.393 . S
C1261 C1260 1.391 . S
C1262 H1252 0.950 . S
C1262 C1263 1.386 . S
C1262 C1264 1.391 . S
C1263 C1262 1.386 . S
C1263 C1267 1.393 . S
C1264 H1253 0.950 . S
C1264 C1262 1.391 . S
C1264 C1265 1.400 . S
C1265 C1259 1.491 . S
C1265 C1264 1.400 . S
C1265 C1266 1.398 . S
C1266 H1254 0.950 . S
C1266 C1265 1.398 . S
C1266 C1267 1.391 . S
C1267 H1255 0.950 . S
C1267 C1263 1.393 . S
C1267 C1266 1.391 . S
H1268 C1276 0.950 . S
H1269 C1281 0.950 . S
H1270 C1278 0.950 . S
H1271 C1280 0.950 . S
H1272 C1282 0.950 . S
H1273 C1284 0.950 . S
H1274 C1286 0.950 . S
H1275 C1287 0.950 . S
C1276 H1268 0.950 . S
C1276 C1277 1.386 . S
C1276 C1278 1.391 . S
C1277 C1276 1.386 . S
C1277 C1281 1.393 . S
C1278 H1270 0.950 . S
C1278 C1276 1.391 . S
C1278 C1279 1.400 . S
C1279 C1278 1.400 . S
C1279 C1280 1.398 . S
C1279 C1285 1.491 . S
C1280 H1271 0.950 . S
C1280 C1279 1.398 . S
C1280 C1281 1.391 . S
C1281 H1269 0.950 . S
C1281 C1277 1.393 . S
C1281 C1280 1.391 . S
C1282 H1272 0.950 . S
C1282 C1283 1.386 . S
C1282 C1284 1.391 . S
C1283 C1282 1.386 . S
C1283 C1287 1.393 . S
C1284 H1273 0.950 . S
C1284 C1282 1.391 . S
C1284 C1285 1.400 . S
C1285 C1279 1.491 . S
C1285 C1284 1.400 . S
C1285 C1286 1.398 . S
C1286 H1274 0.950 . S
C1286 C1285 1.398 . S
C1286 C1287 1.391 . S
C1287 H1275 0.950 . S
C1287 C1283 1.393 . S
C1287 C1286 1.391 . S
H1288 C1296 0.950 . S
H1289 C1301 0.950 . S
H1290 C1298 0.950 . S
H1291 C1300 0.950 . S
H1292 C1302 0.950 . S
H1293 C1304 0.950 . S
H1294 C1306 0.950 . S
H1295 C1307 0.950 . S
C1296 H1288 0.950 . S
C1296 C1297 1.386 . S
C1296 C1298 1.391 . S
C1297 C1296 1.386 . S
C1297 C1301 1.393 . S
C1298 H1290 0.950 . S
C1298 C1296 1.391 . S
C1298 C1299 1.400 . S
C1299 C1298 1.400 . S
C1299 C1300 1.398 . S
C1299 C1305 1.491 . S
C1300 H1291 0.950 . S
C1300 C1299 1.398 . S
C1300 C1301 1.391 . S
C1301 H1289 0.950 . S
C1301 C1297 1.393 . S
C1301 C1300 1.391 . S
C1302 H1292 0.950 . S
C1302 C1303 1.386 . S
C1302 C1304 1.391 . S
C1303 C1302 1.386 . S
C1303 C1307 1.393 . S
C1304 H1293 0.950 . S
C1304 C1302 1.391 . S
C1304 C1305 1.400 . S
C1305 C1299 1.491 . S
C1305 C1304 1.400 . S
C1305 C1306 1.398 . S
C1306 H1294 0.950 . S
C1306 C1305 1.398 . S
C1306 C1307 1.391 . S
C1307 H1295 0.950 . S
C1307 C1303 1.393 . S
C1307 C1306 1.391 . S
H1308 C1316 0.950 . S
H1309 C1321 0.950 . S
H1310 C1318 0.950 . S
H1311 C1320 0.950 . S
H1312 C1322 0.950 . S
H1313 C1324 0.950 . S
H1314 C1326 0.950 . S
H1315 C1327 0.950 . S
C1316 H1308 0.950 . S
C1316 C1317 1.386 . S
C1316 C1318 1.391 . S
C1317 C1316 1.386 . S
C1317 C1321 1.393 . S
C1318 H1310 0.950 . S
C1318 C1316 1.391 . S
C1318 C1319 1.400 . S
C1319 C1318 1.400 . S
C1319 C1320 1.398 . S
C1319 C1325 1.491 . S
C1320 H1311 0.950 . S
C1320 C1319 1.398 . S
C1320 C1321 1.391 . S
C1321 H1309 0.950 . S
C1321 C1317 1.393 . S
C1321 C1320 1.391 . S
C1322 H1312 0.950 . S
C1322 C1323 1.386 . S
C1322 C1324 1.391 . S
C1323 C1322 1.386 . S
C1323 C1327 1.393 . S
C1324 H1313 0.950 . S
C1324 C1322 1.391 . S
C1324 C1325 1.400 . S
C1325 C1319 1.491 . S
C1325 C1324 1.400 . S
C1325 C1326 1.398 . S
C1326 H1314 0.950 . S
C1326 C1325 1.398 . S
C1326 C1327 1.391 . S
C1327 H1315 0.950 . S
C1327 C1323 1.393 . S
C1327 C1326 1.391 . S
H1328 C1336 0.950 . S
H1329 C1341 0.950 . S
H1330 C1338 0.950 . S
H1331 C1340 0.950 . S
H1332 C1342 0.950 . S
H1333 C1344 0.950 . S
H1334 C1346 0.950 . S
H1335 C1347 0.950 . S
C1336 H1328 0.950 . S
C1336 C1337 1.386 . S
C1336 C1338 1.391 . S
C1337 C1336 1.386 . S
C1337 C1341 1.393 . S
C1338 H1330 0.950 . S
C1338 C1336 1.391 . S
C1338 C1339 1.400 . S
C1339 C1338 1.400 . S
C1339 C1340 1.398 . S
C1339 C1345 1.491 . S
C1340 H1331 0.950 . S
C1340 C1339 1.398 . S
C1340 C1341 1.391 . S
C1341 H1329 0.950 . S
C1341 C1337 1.393 . S
C1341 C1340 1.391 . S
C1342 H1332 0.950 . S
C1342 C1343 1.386 . S
C1342 C1344 1.391 . S
C1343 C1342 1.386 . S
C1343 C1347 1.393 . S
C1344 H1333 0.950 . S
C1344 C1342 1.391 . S
C1344 C1345 1.400 . S
C1345 C1339 1.491 . S
C1345 C1344 1.400 . S
C1345 C1346 1.398 . S
C1346 H1334 0.950 . S
C1346 C1345 1.398 . S
C1346 C1347 1.391 . S
C1347 H1335 0.950 . S
C1347 C1343 1.393 . S
C1347 C1346 1.391 . S
H1348 C1356 0.950 . S
H1349 C1361 0.950 . S
H1350 C1358 0.950 . S
H1351 C1360 0.950 . S
H1352 C1362 0.950 . S
H1353 C1364 0.950 . S
H1354 C1366 0.950 . S
H1355 C1367 0.950 . S
C1356 H1348 0.950 . S
C1356 C1357 1.386 . S
C1356 C1358 1.391 . S
C1357 C1356 1.386 . S
C1357 C1361 1.393 . S
C1358 H1350 0.950 . S
C1358 C1356 1.391 . S
C1358 C1359 1.400 . S
C1359 C1358 1.400 . S
C1359 C1360 1.398 . S
C1359 C1365 1.491 1_655 S
C1360 H1351 0.950 . S
C1360 C1359 1.398 . S
C1360 C1361 1.391 . S
C1361 H1349 0.950 . S
C1361 C1357 1.393 . S
C1361 C1360 1.391 . S
C1362 H1352 0.950 . S
C1362 C1363 1.386 . S
C1362 C1364 1.391 . S
C1363 C1362 1.386 . S
C1363 C1367 1.393 . S
C1364 H1353 0.950 . S
C1364 C1362 1.391 . S
C1364 C1365 1.400 . S
C1365 C1359 1.491 1_455 S
C1365 C1364 1.400 . S
C1365 C1366 1.398 . S
C1366 H1354 0.950 . S
C1366 C1365 1.398 . S
C1366 C1367 1.391 . S
C1367 H1355 0.950 . S
C1367 C1363 1.393 . S
C1367 C1366 1.391 . S
H1368 C1376 0.950 . S
H1369 C1381 0.950 . S
H1370 C1378 0.950 . S
H1371 C1380 0.950 . S
H1372 C1382 0.950 . S
H1373 C1384 0.950 . S
H1374 C1386 0.950 . S
H1375 C1387 0.950 . S
C1376 H1368 0.950 . S
C1376 C1377 1.386 . S
C1376 C1378 1.391 . S
C1377 C1376 1.386 . S
C1377 C1381 1.393 . S
C1378 H1370 0.950 . S
C1378 C1376 1.391 . S
C1378 C1379 1.400 . S
C1379 C1378 1.400 . S
C1379 C1380 1.398 . S
C1379 C1385 1.491 1_655 S
C1380 H1371 0.950 . S
C1380 C1379 1.398 . S
C1380 C1381 1.391 . S
C1381 H1369 0.950 . S
C1381 C1377 1.393 . S
C1381 C1380 1.391 . S
C1382 H1372 0.950 . S
C1382 C1383 1.386 . S
C1382 C1384 1.391 . S
C1383 C1382 1.386 . S
C1383 C1387 1.393 . S
C1384 H1373 0.950 . S
C1384 C1382 1.391 . S
C1384 C1385 1.400 . S
C1385 C1379 1.491 1_455 S
C1385 C1384 1.400 . S
C1385 C1386 1.398 . S
C1386 H1374 0.950 . S
C1386 C1385 1.398 . S
C1386 C1387 1.391 . S
C1387 H1375 0.950 . S
C1387 C1383 1.393 . S
C1387 C1386 1.391 . S
H1388 C1396 0.950 . S
H1389 C1401 0.950 . S
H1390 C1398 0.950 . S
H1391 C1400 0.950 . S
H1392 C1402 0.950 . S
H1393 C1404 0.950 . S
H1394 C1406 0.950 . S
H1395 C1407 0.950 . S
C1396 H1388 0.950 . S
C1396 C1397 1.386 . S
C1396 C1398 1.391 . S
C1397 C1396 1.386 . S
C1397 C1401 1.393 . S
C1398 H1390 0.950 . S
C1398 C1396 1.391 . S
C1398 C1399 1.400 . S
C1399 C1398 1.400 . S
C1399 C1400 1.398 . S
C1399 C1405 1.491 . S
C1400 H1391 0.950 . S
C1400 C1399 1.398 . S
C1400 C1401 1.391 . S
C1401 H1389 0.950 . S
C1401 C1397 1.393 . S
C1401 C1400 1.391 . S
C1402 H1392 0.950 . S
C1402 C1403 1.386 . S
C1402 C1404 1.391 . S
C1403 C1402 1.386 . S
C1403 C1407 1.393 . S
C1404 H1393 0.950 . S
C1404 C1402 1.391 . S
C1404 C1405 1.400 . S
C1405 C1399 1.491 . S
C1405 C1404 1.400 . S
C1405 C1406 1.398 . S
C1406 H1394 0.950 . S
C1406 C1405 1.398 . S
C1406 C1407 1.391 . S
C1407 H1395 0.950 . S
C1407 C1403 1.393 . S
C1407 C1406 1.391 . S
H1408 C1416 0.950 . S
H1409 C1421 0.950 . S
H1410 C1418 0.950 . S
H1411 C1420 0.950 . S
H1412 C1422 0.950 . S
H1413 C1424 0.950 . S
H1414 C1426 0.950 . S
H1415 C1427 0.950 . S
C1416 H1408 0.950 . S
C1416 C1417 1.386 . S
C1416 C1418 1.391 . S
C1417 C1416 1.386 . S
C1417 C1421 1.393 . S
C1418 H1410 0.950 . S
C1418 C1416 1.391 . S
C1418 C1419 1.400 . S
C1419 C1418 1.400 . S
C1419 C1420 1.398 . S
C1419 C1425 1.491 . S
C1420 H1411 0.950 . S
C1420 C1419 1.398 . S
C1420 C1421 1.391 . S
C1421 H1409 0.950 . S
C1421 C1417 1.393 . S
C1421 C1420 1.391 . S
C1422 H1412 0.950 . S
C1422 C1423 1.386 . S
C1422 C1424 1.391 . S
C1423 C1422 1.386 . S
C1423 C1427 1.393 . S
C1424 H1413 0.950 . S
C1424 C1422 1.391 . S
C1424 C1425 1.400 . S
C1425 C1419 1.491 . S
C1425 C1424 1.400 . S
C1425 C1426 1.398 . S
C1426 H1414 0.950 . S
C1426 C1425 1.398 . S
C1426 C1427 1.391 . S
C1427 H1415 0.950 . S
C1427 C1423 1.393 . S
C1427 C1426 1.391 . S
H1428 C1436 0.950 . S
H1429 C1441 0.950 . S
H1430 C1438 0.950 . S
H1431 C1440 0.950 . S
H1432 C1442 0.950 . S
H1433 C1444 0.950 . S
H1434 C1446 0.950 . S
H1435 C1447 0.950 . S
C1436 H1428 0.950 . S
C1436 C1437 1.386 . S
C1436 C1438 1.391 . S
C1437 C1436 1.386 . S
C1437 C1441 1.393 . S
C1438 H1430 0.950 . S
C1438 C1436 1.391 . S
C1438 C1439 1.400 . S
C1439 C1438 1.400 . S
C1439 C1440 1.398 . S
C1439 C1445 1.491 . S
C1440 H1431 0.950 . S
C1440 C1439 1.398 . S
C1440 C1441 1.391 . S
C1441 H1429 0.950 . S
C1441 C1437 1.393 . S
C1441 C1440 1.391 . S
C1442 H1432 0.950 . S
C1442 C1443 1.386 . S
C1442 C1444 1.391 . S
C1443 C1442 1.386 . S
C1443 C1447 1.393 . S
C1444 H1433 0.950 . S
C1444 C1442 1.391 . S
C1444 C1445 1.400 . S
C1445 C1439 1.491 . S
C1445 C1444 1.400 . S
C1445 C1446 1.398 . S
C1446 H1434 0.950 . S
C1446 C1445 1.398 . S
C1446 C1447 1.391 . S
C1447 H1435 0.950 . S
C1447 C1443 1.393 . S
C1447 C1446 1.391 . S
H1448 C1456 0.950 . S
H1449 C1461 0.950 . S
H1450 C1458 0.950 . S
H1451 C1460 0.950 . S
H1452 C1462 0.950 . S
H1453 C1464 0.950 . S
H1454 C1466 0.950 . S
H1455 C1467 0.950 . S
C1456 H1448 0.950 . S
C1456 C1457 1.386 . S
C1456 C1458 1.391 . S
C1457 C1456 1.386 . S
C1457 C1461 1.393 1_556 S
C1458 H1450 0.950 . S
C1458 C1456 1.391 . S
C1458 C1459 1.400 . S
C1459 C1458 1.400 . S
C1459 C1460 1.398 . S
C1459 C1465 1.491 . S
C1460 H1451 0.950 . S
C1460 C1459 1.398 . S
C1460 C1461 1.391 1_556 S
C1461 H1449 0.950 . S
C1461 C1457 1.393 1_554 S
C1461 C1460 1.391 1_554 S
C1462 H1452 0.950 . S
C1462 C1463 1.386 . S
C1462 C1464 1.391 . S
C1463 C1462 1.386 . S
C1463 C1467 1.393 . S
C1464 H1453 0.950 . S
C1464 C1462 1.391 . S
C1464 C1465 1.400 . S
C1465 C1459 1.491 . S
C1465 C1464 1.400 . S
C1465 C1466 1.398 . S
C1466 H1454 0.950 . S
C1466 C1465 1.398 . S
C1466 C1467 1.391 . S
C1467 H1455 0.950 . S
C1467 C1463 1.393 . S
C1467 C1466 1.391 . S
H1468 C1476 0.950 1_556 S
H1469 C1481 0.950 . S
H1470 C1478 0.950 . S
H1471 C1480 0.950 . S
H1472 C1482 0.950 . S
H1473 C1484 0.950 . S
H1474 C1486 0.950 . S
H1475 C1487 0.950 . S
C1476 H1468 0.950 1_554 S
C1476 C1477 1.386 . S
C1476 C1478 1.391 . S
C1477 C1476 1.386 . S
C1477 C1481 1.393 . S
C1478 H1470 0.950 . S
C1478 C1476 1.391 . S
C1478 C1479 1.400 . S
C1479 C1478 1.400 . S
C1479 C1480 1.398 . S
C1479 C1485 1.491 . S
C1480 H1471 0.950 . S
C1480 C1479 1.398 . S
C1480 C1481 1.391 . S
C1481 H1469 0.950 . S
C1481 C1477 1.393 . S
C1481 C1480 1.391 . S
C1482 H1472 0.950 . S
C1482 C1483 1.386 . S
C1482 C1484 1.391 . S
C1483 C1482 1.386 . S
C1483 C1487 1.393 . S
C1484 H1473 0.950 . S
C1484 C1482 1.391 . S
C1484 C1485 1.400 . S
C1485 C1479 1.491 . S
C1485 C1484 1.400 . S
C1485 C1486 1.398 . S
C1486 H1474 0.950 . S
C1486 C1485 1.398 . S
C1486 C1487 1.391 . S
C1487 H1475 0.950 . S
C1487 C1483 1.393 . S
C1487 C1486 1.391 . S
H1488 C1496 0.950 . S
H1489 C1501 0.950 . S
H1490 C1498 0.950 . S
H1491 C1500 0.950 . S
H1492 C1502 0.950 . S
H1493 C1504 0.950 . S
H1494 C1506 0.950 . S
H1495 C1507 0.950 . S
C1496 H1488 0.950 . S
C1496 C1497 1.386 . S
C1496 C1498 1.391 . S
C1497 C1496 1.386 . S
C1497 C1501 1.393 . S
C1498 H1490 0.950 . S
C1498 C1496 1.391 . S
C1498 C1499 1.400 . S
C1499 C1498 1.400 . S
C1499 C1500 1.398 . S
C1499 C1505 1.491 . S
C1500 H1491 0.950 . S
C1500 C1499 1.398 . S
C1500 C1501 1.391 . S
C1501 H1489 0.950 . S
C1501 C1497 1.393 . S
C1501 C1500 1.391 . S
C1502 H1492 0.950 . S
C1502 C1503 1.386 . S
C1502 C1504 1.391 . S
C1503 C1502 1.386 . S
C1503 C1507 1.393 . S
C1504 H1493 0.950 . S
C1504 C1502 1.391 . S
C1504 C1505 1.400 . S
C1505 C1499 1.491 . S
C1505 C1504 1.400 . S
C1505 C1506 1.398 . S
C1506 H1494 0.950 . S
C1506 C1505 1.398 . S
C1506 C1507 1.391 . S
C1507 H1495 0.950 . S
C1507 C1503 1.393 . S
C1507 C1506 1.391 . S
H1508 C1516 0.950 . S
H1509 C1521 0.950 . S
H1510 C1518 0.950 . S
H1511 C1520 0.950 . S
H1512 C1522 0.950 . S
H1513 C1524 0.950 . S
H1514 C1526 0.950 . S
H1515 C1527 0.950 . S
C1516 H1508 0.950 . S
C1516 C1517 1.386 . S
C1516 C1518 1.391 . S
C1517 C1516 1.386 . S
C1517 C1521 1.393 . S
C1518 H1510 0.950 . S
C1518 C1516 1.391 . S
C1518 C1519 1.400 . S
C1519 C1518 1.400 . S
C1519 C1520 1.398 . S
C1519 C1525 1.491 . S
C1520 H1511 0.950 . S
C1520 C1519 1.398 . S
C1520 C1521 1.391 . S
C1521 H1509 0.950 . S
C1521 C1517 1.393 . S
C1521 C1520 1.391 . S
C1522 H1512 0.950 . S
C1522 C1523 1.386 . S
C1522 C1524 1.391 . S
C1523 C1522 1.386 . S
C1523 C1527 1.393 . S
C1524 H1513 0.950 . S
C1524 C1522 1.391 . S
C1524 C1525 1.400 . S
C1525 C1519 1.491 . S
C1525 C1524 1.400 . S
C1525 C1526 1.398 . S
C1526 H1514 0.950 . S
C1526 C1525 1.398 . S
C1526 C1527 1.391 . S
C1527 H1515 0.950 . S
C1527 C1523 1.393 . S
C1527 C1526 1.391 . S
H1528 C1536 0.950 . S
H1529 C1541 0.950 . S
H1530 C1538 0.950 . S
H1531 C1540 0.950 . S
H1532 C1542 0.950 1_556 S
H1533 C1544 0.950 . S
H1534 C1546 0.950 . S
H1535 C1547 0.950 . S
C1536 H1528 0.950 . S
C1536 C1537 1.386 . S
C1536 C1538 1.391 . S
C1537 C1536 1.386 . S
C1537 C1541 1.393 . S
C1538 H1530 0.950 . S
C1538 C1536 1.391 . S
C1538 C1539 1.400 . S
C1539 C1538 1.400 . S
C1539 C1540 1.398 . S
C1539 C1545 1.491 . S
C1540 H1531 0.950 . S
C1540 C1539 1.398 . S
C1540 C1541 1.391 . S
C1541 H1529 0.950 . S
C1541 C1537 1.393 . S
C1541 C1540 1.391 . S
C1542 H1532 0.950 1_554 S
C1542 C1543 1.386 . S
C1542 C1544 1.391 . S
C1543 C1542 1.386 . S
C1543 C1547 1.393 . S
C1544 H1533 0.950 . S
C1544 C1542 1.391 . S
C1544 C1545 1.400 . S
C1545 C1539 1.491 . S
C1545 C1544 1.400 . S
C1545 C1546 1.398 . S
C1546 H1534 0.950 . S
C1546 C1545 1.398 . S
C1546 C1547 1.391 . S
C1547 H1535 0.950 . S
C1547 C1543 1.393 . S
C1547 C1546 1.391 . S
H1548 C1556 0.950 . S
H1549 C1561 0.950 . S
H1550 C1558 0.950 . S
H1551 C1560 0.950 . S
H1552 C1562 0.950 1_554 S
H1553 C1564 0.950 . S
H1554 C1566 0.950 . S
H1555 C1567 0.950 . S
C1556 H1548 0.950 . S
C1556 C1557 1.386 . S
C1556 C1558 1.391 . S
C1557 C1556 1.386 . S
C1557 C1561 1.393 . S
C1558 H1550 0.950 . S
C1558 C1556 1.391 . S
C1558 C1559 1.400 . S
C1559 C1558 1.400 . S
C1559 C1560 1.398 . S
C1559 C1565 1.491 . S
C1560 H1551 0.950 . S
C1560 C1559 1.398 . S
C1560 C1561 1.391 . S
C1561 H1549 0.950 . S
C1561 C1557 1.393 . S
C1561 C1560 1.391 . S
C1562 H1552 0.950 1_556 S
C1562 C1563 1.386 . S
C1562 C1564 1.391 . S
C1563 C1562 1.386 . S
C1563 C1567 1.393 . S
C1564 H1553 0.950 . S
C1564 C1562 1.391 . S
C1564 C1565 1.400 . S
C1565 C1559 1.491 . S
C1565 C1564 1.400 . S
C1565 C1566 1.398 . S
C1566 H1554 0.950 . S
C1566 C1565 1.398 . S
C1566 C1567 1.391 . S
C1567 H1555 0.950 . S
C1567 C1563 1.393 . S
C1567 C1566 1.391 . S
H1568 C1576 0.950 1_554 S
H1569 C1581 0.950 . S
H1570 C1578 0.950 . S
H1571 C1580 0.950 . S
H1572 C1582 0.950 . S
H1573 C1584 0.950 . S
H1574 C1586 0.950 . S
H1575 C1587 0.950 . S
C1576 H1568 0.950 1_556 S
C1576 C1577 1.386 . S
C1576 C1578 1.391 . S
C1577 C1576 1.386 . S
C1577 C1581 1.393 . S
C1578 H1570 0.950 . S
C1578 C1576 1.391 . S
C1578 C1579 1.400 . S
C1579 C1578 1.400 . S
C1579 C1580 1.398 . S
C1579 C1585 1.491 . S
C1580 H1571 0.950 . S
C1580 C1579 1.398 . S
C1580 C1581 1.391 . S
C1581 H1569 0.950 . S
C1581 C1577 1.393 . S
C1581 C1580 1.391 . S
C1582 H1572 0.950 . S
C1582 C1583 1.386 . S
C1582 C1584 1.391 . S
C1583 C1582 1.386 . S
C1583 C1587 1.393 . S
C1584 H1573 0.950 . S
C1584 C1582 1.391 . S
C1584 C1585 1.400 . S
C1585 C1579 1.491 . S
C1585 C1584 1.400 . S
C1585 C1586 1.398 . S
C1586 H1574 0.950 . S
C1586 C1585 1.398 . S
C1586 C1587 1.391 . S
C1587 H1575 0.950 . S
C1587 C1583 1.393 . S
C1587 C1586 1.391 . S
H1588 C1596 0.950 . S
H1589 C1601 0.950 . S
H1590 C1598 0.950 . S
H1591 C1600 0.950 . S
H1592 C1602 0.950 . S
H1593 C1604 0.950 . S
H1594 C1606 0.950 . S
H1595 C1607 0.950 1_556 S
C1596 H1588 0.950 . S
C1596 C1597 1.386 . S
C1596 C1598 1.391 . S
C1597 C1596 1.386 . S
C1597 C1601 1.393 . S
C1598 H1590 0.950 . S
C1598 C1596 1.391 . S
C1598 C1599 1.400 . S
C1599 C1598 1.400 . S
C1599 C1600 1.398 . S
C1599 C1605 1.491 . S
C1600 H1591 0.950 . S
C1600 C1599 1.398 . S
C1600 C1601 1.391 . S
C1601 H1589 0.950 . S
C1601 C1597 1.393 . S
C1601 C1600 1.391 . S
C1602 H1592 0.950 . S
C1602 C1603 1.386 . S
C1602 C1604 1.391 . S
C1603 C1602 1.386 . S
C1603 C1607 1.393 . S
C1604 H1593 0.950 . S
C1604 C1602 1.391 . S
C1604 C1605 1.400 . S
C1605 C1599 1.491 . S
C1605 C1604 1.400 . S
C1605 C1606 1.398 . S
C1606 H1594 0.950 . S
C1606 C1605 1.398 . S
C1606 C1607 1.391 . S
C1607 H1595 0.950 1_554 S
C1607 C1603 1.393 . S
C1607 C1606 1.391 . S
H1608 C1616 0.950 . S
H1609 C1621 0.950 . S
H1610 C1618 0.950 . S
H1611 C1620 0.950 . S
H1612 C1622 0.950 . S
H1613 C1624 0.950 . S
H1614 C1626 0.950 . S
H1615 C1627 0.950 . S
C1616 H1608 0.950 . S
C1616 C1617 1.386 . S
C1616 C1618 1.391 . S
C1617 C1616 1.386 . S
C1617 C1621 1.393 . S
C1618 H1610 0.950 . S
C1618 C1616 1.391 . S
C1618 C1619 1.400 . S
C1619 C1618 1.400 . S
C1619 C1620 1.398 . S
C1619 C1625 1.491 . S
C1620 H1611 0.950 . S
C1620 C1619 1.398 . S
C1620 C1621 1.391 . S
C1621 H1609 0.950 . S
C1621 C1617 1.393 . S
C1621 C1620 1.391 . S
C1622 H1612 0.950 . S
C1622 C1623 1.386 . S
C1622 C1624 1.391 . S
C1623 C1622 1.386 . S
C1623 C1627 1.393 . S
C1624 H1613 0.950 . S
C1624 C1622 1.391 . S
C1624 C1625 1.400 . S
C1625 C1619 1.491 . S
C1625 C1624 1.400 . S
C1625 C1626 1.398 . S
C1626 H1614 0.950 . S
C1626 C1625 1.398 . S
C1626 C1627 1.391 . S
C1627 H1615 0.950 . S
C1627 C1623 1.393 . S
C1627 C1626 1.391 . S
H1628 C1636 0.950 . S
H1629 C1641 0.950 . S
H1630 C1638 0.950 . S
H1631 C1640 0.950 . S
H1632 C1642 0.950 . S
H1633 C1644 0.950 . S
H1634 C1646 0.950 . S
H1635 C1647 0.950 . S
C1636 H1628 0.950 . S
C1636 C1637 1.386 . S
C1636 C1638 1.391 . S
C1637 C1636 1.386 . S
C1637 C1641 1.393 . S
C1638 H1630 0.950 . S
C1638 C1636 1.391 . S
C1638 C1639 1.400 . S
C1639 C1638 1.400 . S
C1639 C1640 1.398 . S
C1639 C1645 1.491 . S
C1640 H1631 0.950 . S
C1640 C1639 1.398 . S
C1640 C1641 1.391 . S
C1641 H1629 0.950 . S
C1641 C1637 1.393 . S
C1641 C1640 1.391 . S
C1642 H1632 0.950 . S
C1642 C1643 1.386 . S
C1642 C1644 1.391 . S
C1643 C1642 1.386 . S
C1643 C1647 1.393 . S
C1644 H1633 0.950 . S
C1644 C1642 1.391 . S
C1644 C1645 1.400 . S
C1645 C1639 1.491 . S
C1645 C1644 1.400 . S
C1645 C1646 1.398 . S
C1646 H1634 0.950 . S
C1646 C1645 1.398 . S
C1646 C1647 1.391 . S
C1647 H1635 0.950 . S
C1647 C1643 1.393 . S
C1647 C1646 1.391 . S
H1648 C1656 0.950 . S
H1649 C1661 0.950 . S
H1650 C1658 0.950 . S
H1651 C1660 0.950 . S
H1652 C1662 0.950 . S
H1653 C1664 0.950 . S
H1654 C1666 0.950 . S
H1655 C1667 0.950 1_556 S
C1656 H1648 0.950 . S
C1656 C1657 1.386 . S
C1656 C1658 1.391 . S
C1657 C1656 1.386 . S
C1657 C1661 1.393 . S
C1658 H1650 0.950 . S
C1658 C1656 1.391 . S
C1658 C1659 1.400 . S
C1659 C1658 1.400 . S
C1659 C1660 1.398 . S
C1659 C1665 1.491 . S
C1660 H1651 0.950 . S
C1660 C1659 1.398 . S
C1660 C1661 1.391 . S
C1661 H1649 0.950 . S
C1661 C1657 1.393 . S
C1661 C1660 1.391 . S
C1662 H1652 0.950 . S
C1662 C1663 1.386 . S
C1662 C1664 1.391 . S
C1663 C1662 1.386 . S
C1663 C1667 1.393 . S
C1664 H1653 0.950 . S
C1664 C1662 1.391 . S
C1664 C1665 1.400 . S
C1665 C1659 1.491 . S
C1665 C1664 1.400 . S
C1665 C1666 1.398 . S
C1666 H1654 0.950 . S
C1666 C1665 1.398 . S
C1666 C1667 1.391 . S
C1667 H1655 0.950 1_554 S
C1667 C1663 1.393 . S
C1667 C1666 1.391 . S
H1668 C1676 0.950 . S
H1669 C1681 0.950 1_554 S
H1670 C1678 0.950 . S
H1671 C1680 0.950 . S
H1672 C1682 0.950 . S
H1673 C1684 0.950 . S
H1674 C1686 0.950 . S
H1675 C1687 0.950 . S
C1676 H1668 0.950 . S
C1676 C1677 1.386 . S
C1676 C1678 1.391 . S
C1677 C1676 1.386 . S
C1677 C1681 1.393 . S
C1678 H1670 0.950 . S
C1678 C1676 1.391 . S
C1678 C1679 1.400 . S
C1679 C1678 1.400 . S
C1679 C1680 1.398 . S
C1679 C1685 1.491 . S
C1680 H1671 0.950 . S
C1680 C1679 1.398 . S
C1680 C1681 1.391 . S
C1681 H1669 0.950 1_556 S
C1681 C1677 1.393 . S
C1681 C1680 1.391 . S
C1682 H1672 0.950 . S
C1682 C1683 1.386 . S
C1682 C1684 1.391 . S
C1683 C1682 1.386 . S
C1683 C1687 1.393 . S
C1684 H1673 0.950 . S
C1684 C1682 1.391 . S
C1684 C1685 1.400 . S
C1685 C1679 1.491 . S
C1685 C1684 1.400 . S
C1685 C1686 1.398 . S
C1686 H1674 0.950 . S
C1686 C1685 1.398 . S
C1686 C1687 1.391 . S
C1687 H1675 0.950 . S
C1687 C1683 1.393 . S
C1687 C1686 1.391 . S
H1688 C1696 0.950 . S
H1689 C1701 0.950 . S
H1690 C1698 0.950 . S
H1691 C1700 0.950 . S
H1692 C1702 0.950 . S
H1693 C1704 0.950 . S
H1694 C1706 0.950 . S
H1695 C1707 0.950 . S
C1696 H1688 0.950 . S
C1696 C1697 1.386 . S
C1696 C1698 1.391 . S
C1697 C1696 1.386 . S
C1697 C1701 1.393 . S
C1698 H1690 0.950 . S
C1698 C1696 1.391 . S
C1698 C1699 1.400 . S
C1699 C1698 1.400 . S
C1699 C1700 1.398 . S
C1699 C1705 1.491 . S
C1700 H1691 0.950 . S
C1700 C1699 1.398 . S
C1700 C1701 1.391 . S
C1701 H1689 0.950 . S
C1701 C1697 1.393 . S
C1701 C1700 1.391 . S
C1702 H1692 0.950 . S
C1702 C1703 1.386 . S
C1702 C1704 1.391 . S
C1703 C1702 1.386 . S
C1703 C1707 1.393 . S
C1704 H1693 0.950 . S
C1704 C1702 1.391 . S
C1704 C1705 1.400 . S
C1705 C1699 1.491 . S
C1705 C1704 1.400 . S
C1705 C1706 1.398 . S
C1706 H1694 0.950 . S
C1706 C1705 1.398 . S
C1706 C1707 1.391 . S
C1707 H1695 0.950 . S
C1707 C1703 1.393 . S
C1707 C1706 1.391 . S
H1708 C1716 0.950 . S
H1709 C1721 0.950 . S
H1710 C1718 0.950 . S
H1711 C1720 0.950 . S
H1712 C1722 0.950 . S
H1713 C1724 0.950 . S
H1714 C1726 0.950 . S
H1715 C1727 0.950 . S
C1716 H1708 0.950 . S
C1716 C1717 1.386 . S
C1716 C1718 1.391 . S
C1717 C1716 1.386 . S
C1717 C1721 1.393 . S
C1718 H1710 0.950 . S
C1718 C1716 1.391 . S
C1718 C1719 1.400 . S
C1719 C1718 1.400 . S
C1719 C1720 1.398 . S
C1719 C1725 1.491 . S
C1720 H1711 0.950 . S
C1720 C1719 1.398 . S
C1720 C1721 1.391 . S
C1721 H1709 0.950 . S
C1721 C1717 1.393 . S
C1721 C1720 1.391 . S
C1722 H1712 0.950 . S
C1722 C1723 1.386 . S
C1722 C1724 1.391 . S
C1723 C1722 1.386 . S
C1723 C1727 1.393 . S
C1724 H1713 0.950 . S
C1724 C1722 1.391 . S
C1724 C1725 1.400 . S
C1725 C1719 1.491 . S
C1725 C1724 1.400 . S
C1725 C1726 1.398 . S
C1726 H1714 0.950 . S
C1726 C1725 1.398 . S
C1726 C1727 1.391 . S
C1727 H1715 0.950 . S
C1727 C1723 1.393 . S
C1727 C1726 1.391 . S
C457 C93 1.494 . S
C463 C9 1.492 . S
C477 C23 1.480 . S
C483 C107 1.490 . S
C497 C65 1.479 . S
C503 C37 1.489 . S
C517 C51 1.496 . S
C523 C79 1.488 . S
C537 C121 1.486 . S
C543 C205 1.495 . S
C557 C219 1.484 . S
C563 C135 1.480 . S
C577 C149 1.479 . S
C583 C177 1.488 . S
C597 C191 1.490 . S
C603 C163 1.495 . S
C617 C233 1.492 . S
C623 C317 1.494 . S
C637 C247 1.480 . S
C643 C331 1.491 . S
C657 C289 1.487 . S
C663 C261 1.496 . S
C677 C303 1.481 . S
C683 C275 1.482 . S
C697 C345 1.494 . S
C703 C429 1.492 . S
C717 C359 1.490 . S
C723 C443 1.495 . S
C737 C401 1.493 . S
C743 C373 1.481 . S
C757 C387 1.489 . S
C763 C415 1.480 . S
C777 C8 1.491 1_556 S
C783 C106 1.491 . S
C797 C64 1.493 1_554 S
C803 C22 1.489 . S
C817 C78 1.493 . S
C823 C36 1.489 . S
C837 C50 1.491 . S
C843 C92 1.491 . S
C857 C120 1.492 1_554 S
C863 C218 1.490 . S
C877 C176 1.493 1_556 S
C883 C134 1.489 . S
C897 C190 1.491 . S
C903 C148 1.490 . S
C917 C204 1.493 . S
C923 C162 1.489 . S
C937 C232 1.490 . S
C943 C330 1.491 . S
C957 C246 1.492 . S
C963 C288 1.489 . S
C977 C302 1.489 . S
C983 C260 1.492 1_556 S
C997 C274 1.489 . S
C1003 C316 1.493 1_554 S
C1017 C344 1.489 . S
C1023 C442 1.493 . S
C1037 C400 1.490 . S
C1043 C358 1.491 . S
C1057 C372 1.493 1_554 S
C1063 C414 1.489 . S
C1077 C386 1.492 . S
C1083 C428 1.489 1_556 S
C1097 C423 1.485 . S
C1103 C3 1.481 . S
C1117 C213 1.486 . S
C1123 C17 1.481 . S
C1137 C31 1.484 . S
C1143 C395 1.482 . S
C1157 C45 1.485 . S
C1163 C185 1.482 . S
C1177 C59 1.485 . S
C1183 C367 1.481 . S
C1197 C73 1.485 . S
C1203 C157 1.481 . S
C1217 C87 1.483 . S
C1223 C339 1.484 . S
C1237 C129 1.484 . S
C1243 C101 1.483 . S
C1257 C311 1.484 . S
C1263 C115 1.482 . S
C1277 C143 1.482 . S
C1283 C283 1.484 . S
C1297 C255 1.481 . S
C1303 C171 1.486 . S
C1317 C227 1.483 . S
C1323 C199 1.484 . S
C1337 C241 1.485 . S
C1343 C437 1.481 . S
C1357 C269 1.481 . S
C1363 C409 1.485 . S
C1377 C297 1.481 . S
C1383 C381 1.485 . S
C1397 C353 1.481 . S
C1403 C325 1.485 . S
C1417 C7 1.413 . S
C1423 C105 1.418 . S
C1437 C21 1.434 . S
C1443 C63 1.429 . S
C1457 C77 1.426 1_556 S
C1463 C35 1.432 . S
C1477 C49 1.414 1_554 S
C1483 C91 1.412 . S
C1497 C217 1.424 . S
C1503 C119 1.418 . S
C1517 C175 1.435 . S
C1523 C133 1.429 . S
C1537 C147 1.430 . S
C1543 C189 1.435 1_554 S
C1557 C203 1.413 . S
C1563 C161 1.416 1_556 S
C1577 C329 1.435 1_556 S
C1583 C231 1.430 . S
C1597 C287 1.414 . S
C1603 C245 1.419 1_554 S
C1617 C301 1.437 . S
C1623 C259 1.437 . S
C1637 C315 1.427 . S
C1643 C273 1.433 . S
C1657 C343 1.437 . S
C1663 C441 1.433 1_554 S
C1677 C357 1.418 1_556 S
C1683 C399 1.414 . S
C1697 C371 1.427 . S
C1703 C413 1.433 . S
C1717 C427 1.413 . S
C1723 C385 1.417 . S
