# Generated by pormake.
# Topology ecf, (8)-cn, num edge types: 1
# Building blocks:
#     Node 0, Type 0, BuildingBlock: VETTIZ_charged_sbu_0, # of connection points: 8
#     Node 1, Type 0, BuildingBlock: VETTIZ_charged_sbu_0, # of connection points: 8
#     Node 2, Type 0, BuildingBlock: VETTIZ_charged_sbu_0, # of connection points: 8
#     Node 3, Type 0, BuildingBlock: VETTIZ_charged_sbu_0, # of connection points: 8
#     Node 4, Type 0, BuildingBlock: VETTIZ_charged_sbu_0, # of connection points: 8
#     Node 5, Type 0, BuildingBlock: VETTIZ_charged_sbu_0, # of connection points: 8
#     Edge 6, Type (0, 0), BuildingBlock: OJICUG_clean_linker_0, # of connection points: 2
#     Edge 7, Type (0, 0), BuildingBlock: OJICUG_clean_linker_0, # of connection points: 2
#     Edge 8, Type (0, 0), BuildingBlock: OJICUG_clean_linker_0, # of connection points: 2
#     Edge 9, Type (0, 0), BuildingBlock: OJICUG_clean_linker_0, # of connection points: 2
#     Edge 10, Type (0, 0), BuildingBlock: OJICUG_clean_linker_0, # of connection points: 2
#     Edge 11, Type (0, 0), BuildingBlock: OJICUG_clean_linker_0, # of connection points: 2
#     Edge 12, Type (0, 0), BuildingBlock: OJICUG_clean_linker_0, # of connection points: 2
#     Edge 13, Type (0, 0), BuildingBlock: OJICUG_clean_linker_0, # of connection points: 2
#     Edge 14, Type (0, 0), BuildingBlock: OJICUG_clean_linker_0, # of connection points: 2
#     Edge 15, Type (0, 0), BuildingBlock: OJICUG_clean_linker_0, # of connection points: 2
#     Edge 16, Type (0, 0), BuildingBlock: OJICUG_clean_linker_0, # of connection points: 2
#     Edge 17, Type (0, 0), BuildingBlock: OJICUG_clean_linker_0, # of connection points: 2
#     Edge 18, Type (0, 0), BuildingBlock: OJICUG_clean_linker_0, # of connection points: 2
#     Edge 19, Type (0, 0), BuildingBlock: OJICUG_clean_linker_0, # of connection points: 2
#     Edge 20, Type (0, 0), BuildingBlock: OJICUG_clean_linker_0, # of connection points: 2
#     Edge 21, Type (0, 0), BuildingBlock: OJICUG_clean_linker_0, # of connection points: 2
#     Edge 22, Type (0, 0), BuildingBlock: OJICUG_clean_linker_0, # of connection points: 2
#     Edge 23, Type (0, 0), BuildingBlock: OJICUG_clean_linker_0, # of connection points: 2
#     Edge 24, Type (0, 0), BuildingBlock: OJICUG_clean_linker_0, # of connection points: 2
#     Edge 25, Type (0, 0), BuildingBlock: OJICUG_clean_linker_0, # of connection points: 2
#     Edge 26, Type (0, 0), BuildingBlock: OJICUG_clean_linker_0, # of connection points: 2
#     Edge 27, Type (0, 0), BuildingBlock: OJICUG_clean_linker_0, # of connection points: 2
#     Edge 28, Type (0, 0), BuildingBlock: OJICUG_clean_linker_0, # of connection points: 2
#     Edge 29, Type (0, 0), BuildingBlock: OJICUG_clean_linker_0, # of connection points: 2
# Relax obj value: 0.148
# Max RMSD: 0.140
# Mean RMSD: 0.140
data_MOF--net-ecf--node1-VETTIZ_charged_sbu_0--edge1-OJICUG_clean_linker_0
_symmetry_space_group_name_H-M    P1
_symmetry_Int_Tables_number       1
_symmetry_cell_setting            triclinic
loop_
_symmetry_equiv_pos_as_xyz
'x, y, z'
_cell_length_a     25.548978
_cell_length_b     25.086894
_cell_length_c     20.51825
_cell_angle_alpha  91.434057
_cell_angle_beta   89.436963
_cell_angle_gamma 118.98125
loop_
_atom_site_label
_atom_site_type_symbol
_atom_site_fract_x
_atom_site_fract_y
_atom_site_fract_z
_atom_type_partial_charge
Fe0 Fe 0.09034 0.22897 0.17252 0.0
O1 O 0.11959 0.2892 0.24381 0.0
Fe2 Fe 0.18757 0.37817 0.22387 0.0
Fe3 Fe 0.14961 0.27596 0.3282 0.0
O4 O 0.12018 0.29452 0.23945 0.0
O5 O 0.2161 0.36597 0.31 0.0
O6 O 0.21592 0.36063 0.31405 0.0
Fe7 Fe 0.24113 0.42531 0.38275 0.0
C8 C 0.02458 0.16904 0.29609 0.0
O9 O 0.12447 0.17782 0.21051 0.0
O10 O 0.19492 0.23526 0.283 0.0
O11 O 0.31128 0.47287 0.32074 0.0
O12 O 0.26484 0.46488 0.22165 0.0
O13 O 0.23658 0.34148 0.17824 0.0
O14 O 0.1657 0.27098 0.11395 0.0
O15 O 0.1954 0.27575 0.41479 0.0
O16 O 0.27389 0.37398 0.42185 0.0
C17 C 0.22037 0.30259 0.13113 0.0
O18 O 0.20363 0.47364 0.3453 0.0
O19 O 0.1401 0.41788 0.2662 0.0
O20 O 0.02157 0.18564 0.23736 0.0
O21 O 0.0728 0.19028 0.33183 0.0
C22 C 0.1686 0.18756 0.24635 0.0
C23 C 0.24872 0.31688 0.43535 0.0
C24 C 0.11086 0.34295 0.42519 0.0
O25 O 0.09885 0.30855 0.37502 0.0
O26 O 0.16501 0.37974 0.44128 0.0
C27 C 0.31057 0.48946 0.26154 0.0
O28 O 0.14472 0.37865 0.1353 0.0
O29 O 0.061 0.2834 0.13284 0.0
C30 C 0.16005 0.46199 0.30775 0.0
C31 C 0.09029 0.33976 0.11626 0.0
Fe32 Fe 0.94673 0.1706 0.69795 0.0
O33 O 0.90984 0.20376 0.75712 0.0
Fe34 Fe 0.83719 0.21398 0.72985 0.0
Fe35 Fe 0.88399 0.17208 0.8461 0.0
O36 O 0.90996 0.2086 0.75325 0.0
O37 O 0.80982 0.18015 0.81981 0.0
O38 O 0.81192 0.17872 0.82559 0.0
Fe39 Fe 0.78197 0.21663 0.8896 0.0
C40 C 0.86644 0.0578 0.77857 0.0
O41 O 0.01441 0.20912 0.76584 0.0
O42 O 0.96251 0.17072 0.86018 0.0
O43 O 0.81046 0.29779 0.8417 0.0
O44 O 0.8751 0.30297 0.76455 0.0
O45 O 0.88214 0.25127 0.63839 0.0
O46 O 0.97102 0.24784 0.64775 0.0
O47 O 0.92785 0.26044 0.87878 0.0
O48 O 0.86 0.25834 0.94726 0.0
C49 C 0.93774 0.26713 0.62127 0.0
O50 O 0.71091 0.18188 0.82551 0.0
O51 O 0.75279 0.21051 0.72181 0.0
O52 O 0.91386 0.08857 0.7455 0.0
O53 O 0.84241 0.08306 0.81282 0.0
C54 C 0.01123 0.20165 0.82827 0.0
C55 C 0.91463 0.27999 0.93007 0.0
C56 C 0.79583 0.11837 0.96076 0.0
O57 O 0.84936 0.13897 0.93764 0.0
O58 O 0.75907 0.13701 0.94172 0.0
C59 C 0.85049 0.32737 0.79947 0.0
O60 O 0.79712 0.12668 0.68923 0.0
O61 O 0.87487 0.12909 0.63569 0.0
C62 C 0.70773 0.18784 0.76286 0.0
C63 C 0.81876 0.10669 0.64472 0.0
Fe64 Fe 0.76788 0.83318 0.20165 0.0
O65 O 0.6974 0.81241 0.254 0.0
Fe66 Fe 0.62446 0.81878 0.22142 0.0
Fe67 Fe 0.70334 0.84777 0.34254 0.0
O68 O 0.69445 0.81076 0.24982 0.0
O69 O 0.63252 0.85885 0.31052 0.0
O70 O 0.63594 0.86027 0.3162 0.0
Fe71 Fe 0.56851 0.83259 0.37763 0.0
C72 C 0.7855 0.79243 0.33336 0.0
O73 O 0.82369 0.90731 0.25904 0.0
O74 O 0.76308 0.93299 0.31296 0.0
O75 O 0.53631 0.86888 0.30854 0.0
O76 O 0.54887 0.83057 0.20819 0.0
O77 O 0.67886 0.90323 0.181 0.0
O78 O 0.75476 0.89101 0.14079 0.0
O79 O 0.70447 0.88849 0.4323 0.0
O80 O 0.62793 0.91134 0.42949 0.0
C81 C 0.72419 0.91925 0.14345 0.0
O82 O 0.51352 0.7515 0.32928 0.0
O83 O 0.56861 0.73329 0.25592 0.0
O84 O 0.78108 0.78207 0.27062 0.0
O85 O 0.7704 0.82848 0.3638 0.0
C86 C 0.81455 0.94521 0.29269 0.0
C87 C 0.67863 0.91936 0.45251 0.0
C88 C 0.62695 0.7596 0.4291 0.0
O89 O 0.64531 0.76242 0.37181 0.0
O90 O 0.59996 0.78978 0.44351 0.0
C91 C 0.52417 0.85454 0.24669 0.0
O92 O 0.62797 0.77606 0.13061 0.0
O93 O 0.71054 0.76214 0.14321 0.0
C94 C 0.52011 0.7172 0.28692 0.0
C95 C 0.66235 0.7526 0.11332 0.0
Fe96 Fe 0.85684 0.7351 0.72461 0.0
O97 O 0.88141 0.7183 0.81061 0.0
Fe98 Fe 0.769 0.58759 0.66089 0.0
Fe99 Fe 0.90385 0.77453 0.88606 0.0
O100 O 0.7898 0.64945 0.73215 0.0
O101 O 0.78878 0.64392 0.73664 0.0
O102 O 0.88009 0.71341 0.81492 0.0
Fe103 Fe 0.81429 0.62774 0.82293 0.0
C104 C 0.97922 0.8415 0.77017 0.0
O105 O 0.80741 0.77137 0.76822 0.0
O106 O 0.87087 0.82683 0.8474 0.0
O107 O 0.73905 0.54019 0.81841 0.0
O108 O 0.6957 0.53621 0.71853 0.0
O109 O 0.73877 0.64173 0.61887 0.0
O110 O 0.81672 0.73981 0.63527 0.0
O111 O 0.82486 0.72808 0.9377 0.0
O112 O 0.75976 0.65664 0.86938 0.0
C113 C 0.76573 0.69987 0.60836 0.0
O114 O 0.86634 0.59519 0.77932 0.0
O115 O 0.80465 0.53681 0.70075 0.0
O116 O 0.93429 0.82174 0.72926 0.0
O117 O 0.97667 0.8222 0.82877 0.0
C118 C 0.82956 0.81741 0.80732 0.0
C119 C 0.7715 0.69299 0.91812 0.0
C120 C 0.90753 0.66208 0.9348 0.0
O121 O 0.93335 0.71995 0.92514 0.0
O122 O 0.85464 0.62253 0.91197 0.0
C123 C 0.69422 0.51724 0.77736 0.0
O124 O 0.84736 0.63684 0.60804 0.0
O125 O 0.91061 0.70541 0.67896 0.0
C126 C 0.84592 0.54824 0.74196 0.0
C127 C 0.90053 0.67446 0.62623 0.0
Fe128 Fe 0.04802 0.82308 0.20348 0.0
O129 O 0.08977 0.79946 0.26454 0.0
Fe130 Fe 0.1616 0.78774 0.23615 0.0
Fe131 Fe 0.11919 0.84084 0.35068 0.0
O132 O 0.0897 0.7946 0.26096 0.0
O133 O 0.19378 0.83286 0.3223 0.0
O134 O 0.19219 0.83571 0.32809 0.0
Fe135 Fe 0.22622 0.8052 0.39368 0.0
C136 C 0.12902 0.94602 0.27483 0.0
O137 O 0.98453 0.79113 0.27496 0.0
O138 O 0.03842 0.83825 0.3674 0.0
O139 O 0.19446 0.71877 0.35429 0.0
O140 O 0.12637 0.70316 0.27806 0.0
O141 O 0.1126 0.73848 0.14974 0.0
O142 O 0.02307 0.74005 0.16095 0.0
O143 O 0.0811 0.7562 0.38925 0.0
O144 O 0.15252 0.77227 0.45821 0.0
C145 C 0.05549 0.71782 0.13644 0.0
O146 O 0.29353 0.83131 0.32454 0.0
O147 O 0.24529 0.79053 0.22501 0.0
O148 O 0.08116 0.91032 0.24362 0.0
O149 O 0.15532 0.92636 0.31176 0.0
C150 C 0.98909 0.8033 0.33697 0.0
C151 C 0.09696 0.74755 0.44409 0.0
C152 C 0.21373 0.90755 0.45938 0.0
O153 O 0.15897 0.88446 0.43876 0.0
O154 O 0.251 0.8895 0.43868 0.0
C155 C 0.15167 0.6836 0.31657 0.0
O156 O 0.19758 0.87024 0.18816 0.0
O157 O 0.11604 0.85853 0.13641 0.0
C158 C 0.2928 0.81748 0.26257 0.0
C159 C 0.17266 0.88492 0.14352 0.0
Fe160 Fe 0.24661 0.19158 0.71725 0.0
O161 O 0.3096 0.20292 0.77662 0.0
Fe162 Fe 0.38067 0.19144 0.74617 0.0
Fe163 Fe 0.29296 0.1595 0.85954 0.0
O164 O 0.31268 0.20419 0.77252 0.0
O165 O 0.36627 0.14969 0.83262 0.0
O166 O 0.36171 0.14664 0.83695 0.0
Fe167 Fe 0.42536 0.17079 0.90371 0.0
C168 C 0.21904 0.22429 0.85069 0.0
O169 O 0.18308 0.11556 0.76136 0.0
O170 O 0.23373 0.07846 0.81349 0.0
O171 O 0.46303 0.138 0.83272 0.0
O172 O 0.45285 0.1755 0.73367 0.0
O173 O 0.32412 0.10913 0.7004 0.0
O174 O 0.26056 0.13455 0.65267 0.0
O175 O 0.28292 0.10978 0.94435 0.0
O176 O 0.36205 0.08981 0.94398 0.0
C177 C 0.28462 0.10021 0.65724 0.0
O178 O 0.48334 0.25538 0.86777 0.0
O179 O 0.43804 0.27526 0.78638 0.0
O180 O 0.23145 0.23997 0.79017 0.0
O181 O 0.22654 0.18228 0.87768 0.0
C182 C 0.18883 0.07077 0.77965 0.0
C183 C 0.30905 0.07902 0.96293 0.0
C184 C 0.36587 0.24278 0.95879 0.0
O185 O 0.34998 0.24157 0.90107 0.0
O186 O 0.39007 0.21035 0.97242 0.0
C187 C 0.4763 0.15162 0.7714 0.0
O188 O 0.38378 0.2333 0.65602 0.0
O189 O 0.31343 0.26423 0.67217 0.0
C190 C 0.48064 0.2916 0.82717 0.0
C191 C 0.35454 0.26116 0.6381 0.0
C192 C 0.12755 0.53011 0.25293 0.0
C193 C 0.13793 0.50682 0.31012 0.0
H194 H 0.12306 0.60531 0.21009 0.0
C195 C 0.14041 0.53636 0.37008 0.0
H196 H 0.12598 0.5086 0.20601 0.0
C197 C 0.13949 0.59149 0.37233 0.0
C198 C 0.13538 0.61825 0.31476 0.0
H199 H 0.14784 0.51921 0.41505 0.0
H200 H 0.14598 0.61525 0.41891 0.0
C201 C 0.12611 0.58556 0.25529 0.0
C202 C 0.57373 0.19911 0.71274 0.0
C203 C 0.52942 0.14923 0.74667 0.0
H204 H 0.66741 0.25082 0.69047 0.0
C205 C 0.54232 0.10459 0.76899 0.0
H206 H 0.56484 0.23436 0.69528 0.0
C207 C 0.60042 0.11349 0.76491 0.0
C208 C 0.64664 0.16768 0.73968 0.0
H209 H 0.50884 0.06557 0.79472 0.0
H210 H 0.61053 0.08114 0.78805 0.0
C211 C 0.6324 0.20853 0.7096 0.0
C212 C 0.35903 0.60055 0.25556 0.0
C213 C 0.36299 0.54722 0.24556 0.0
H214 H 0.40602 0.69594 0.27894 0.0
C215 C 0.41957 0.55076 0.24275 0.0
H216 H 0.31575 0.59848 0.25992 0.0
C217 C 0.4715 0.60672 0.25298 0.0
C218 C 0.46702 0.65911 0.26876 0.0
H219 H 0.42329 0.50967 0.23707 0.0
H220 H 0.51462 0.60826 0.25284 0.0
C221 C 0.41056 0.65593 0.26787 0.0
C222 C 0.86389 0.42973 0.83512 0.0
C223 C 0.86225 0.3899 0.78477 0.0
H224 H 0.86263 0.51253 0.86082 0.0
C225 C 0.8632 0.40691 0.71977 0.0
H226 H 0.86285 0.41763 0.88562 0.0
C227 C 0.86123 0.46035 0.70552 0.0
C228 C 0.86039 0.49896 0.75592 0.0
H229 H 0.86121 0.37678 0.67996 0.0
H230 H 0.85802 0.47031 0.6551 0.0
C231 C 0.86403 0.4842 0.82085 0.0
C232 C 0.40029 0.8914 0.25312 0.0
C233 C 0.35207 0.83459 0.23473 0.0
H234 H 0.49467 0.94342 0.26881 0.0
C235 C 0.36355 0.7914 0.20237 0.0
H236 H 0.39243 0.92574 0.2774 0.0
C237 C 0.4226 0.80196 0.1967 0.0
C238 C 0.47009 0.85543 0.22395 0.0
H239 H 0.32699 0.74725 0.1879 0.0
H240 H 0.43015 0.76538 0.17836 0.0
C241 C 0.45884 0.90176 0.24777 0.0
C242 C 0.53282 0.3931 0.77454 0.0
C243 C 0.53248 0.3536 0.82208 0.0
H244 H 0.58383 0.47568 0.72364 0.0
C245 C 0.58442 0.37162 0.85975 0.0
H246 H 0.4936 0.38113 0.74497 0.0
C247 C 0.63654 0.42624 0.84741 0.0
C248 C 0.63774 0.46365 0.79696 0.0
H249 H 0.58569 0.34242 0.89699 0.0
H250 H 0.67651 0.43769 0.87537 0.0
C251 C 0.5848 0.44733 0.76207 0.0
C252 C 0.16622 0.09507 0.19791 0.0
C253 C 0.1793 0.13476 0.25234 0.0
H254 H 0.13858 0.00426 0.16308 0.0
C255 C 0.18545 0.11442 0.31366 0.0
H256 H 0.16126 0.10932 0.14997 0.0
C257 C 0.17326 0.05373 0.32095 0.0
C258 C 0.15371 0.01259 0.26721 0.0
H259 H 0.19441 0.14349 0.35663 0.0
H260 H 0.1746 0.03785 0.36921 0.0
C261 C 0.15272 0.03464 0.2054 0.0
C262 C 0.116 0.28032 0.84343 0.0
C263 C 0.06708 0.22613 0.86396 0.0
H264 H 0.21036 0.32686 0.83044 0.0
C265 C 0.07523 0.19027 0.90967 0.0
H266 H 0.10994 0.31049 0.81119 0.0
C267 C 0.13275 0.19984 0.92076 0.0
C268 C 0.17992 0.24353 0.88379 0.0
H269 H 0.03751 0.14981 0.92861 0.0
H270 H 0.13773 0.16553 0.94686 0.0
C271 C 0.17332 0.29019 0.85542 0.0
C272 C 0.97322 0.06204 0.32834 0.0
C273 C 0.97071 0.11561 0.31762 0.0
H274 H 0.92417 0.96464 0.32767 0.0
C275 C 0.91515 0.11349 0.31024 0.0
H276 H 0.01586 0.06296 0.33326 0.0
C277 C 0.86279 0.05753 0.30755 0.0
C278 C 0.86618 1.0036 0.31048 0.0
H279 H 0.91281 0.15471 0.30145 0.0
H280 H 0.82065 0.05631 0.29754 0.0
C281 C 0.9211 0.00608 0.32409 0.0
C282 C 0.8446 0.95705 0.72837 0.0
C283 C 0.84323 0.99132 0.78303 0.0
H284 H 0.83756 0.87263 0.69281 0.0
C285 C 0.8256 0.9629 0.84344 0.0
H286 H 0.85805 0.97795 0.68125 0.0
C287 C 0.81529 0.90322 0.85033 0.0
C288 C 0.8199 0.86996 0.79641 0.0
H289 H 0.82455 0.98836 0.88641 0.0
H290 H 0.80782 0.88466 0.89872 0.0
C291 C 0.83208 0.89652 0.7348 0.0
C292 C 0.86758 0.81845 0.41013 0.0
C293 C 0.82303 0.77444 0.36913 0.0
H294 H 0.96099 0.86284 0.43186 0.0
C295 C 0.8283 0.7244 0.34599 0.0
H296 H 0.86319 0.85623 0.43094 0.0
C297 C 0.88386 0.72746 0.34823 0.0
C298 C 0.93299 0.7812 0.37195 0.0
H299 H 0.7931 0.68857 0.31685 0.0
H300 H 0.8904 0.69366 0.32079 0.0
C301 C 0.92366 0.82227 0.41099 0.0
C302 C 0.13986 0.95774 0.7893 0.0
C303 C 0.13914 0.00917 0.76552 0.0
H304 H 0.08909 0.86243 0.80648 0.0
C305 C 0.08889 1.00167 0.72998 0.0
H306 H 0.17837 0.96178 0.8153 0.0
C307 C 0.0378 0.94474 0.72467 0.0
C308 C 0.03652 0.89474 0.7547 0.0
H309 H 0.08758 0.04034 0.70938 0.0
H310 H 0.99794 0.9411 0.70222 0.0
C311 C 0.08895 0.90088 0.78369 0.0
C312 C 0.27899 0.31785 1.02881 0.0
C313 C 0.26618 0.29577 0.09219 0.0
H314 H 0.32289 0.32115 0.93881 0.0
C315 C 0.29247 0.26159 0.1149 0.0
H316 H 0.25906 0.34388 1.00994 0.0
C317 C 0.32855 0.24718 0.07351 0.0
C318 C 0.33933 0.26723 1.00882 0.0
H319 H 0.2827 0.24348 0.16354 0.0
H320 H 0.34523 0.21784 0.091 0.0
C321 C 0.31565 0.30456 0.98812 0.0
C322 C 0.95537 0.27211 0.50239 0.0
C323 C 0.96714 0.3033 0.56287 0.0
H324 H 0.99114 0.25951 0.412 0.0
C325 C 0.02383 0.3551 0.57212 0.0
H326 H 0.91306 0.23101 0.4942 0.0
C327 C 0.06969 0.37051 0.5259 0.0
C328 C 0.05993 0.33483 0.46871 0.0
H329 H 0.035 0.37927 0.61878 0.0
H330 H 0.11385 0.40776 0.53723 0.0
C331 C 0.00105 0.28768 0.45588 0.0
C332 C 0.79762 0.99699 0.06732 0.0
C333 C 0.7422 0.97217 0.09947 0.0
H334 H 0.85763 0.06142 1.00013 0.0
C335 C 0.70448 0.99736 0.08722 0.0
H336 H 0.8282 0.97939 0.07535 0.0
C337 C 0.72143 0.04515 0.04292 0.0
C338 C 0.77681 0.06935 1.01033 0.0
H339 H 0.66134 0.97941 0.1109 0.0
H340 H 0.69101 0.06273 1.03389 0.0
C341 C 0.81465 0.04465 1.02391 0.0
C342 C 0.72166 0.7674 0.57672 0.0
C343 C 0.73413 0.71957 0.56171 0.0
H344 H 0.67573 0.81626 0.5484 0.0
C345 C 0.7082 0.68379 0.50512 0.0
H346 H 0.73994 0.79508 0.62059 0.0
C347 C 0.67152 0.69555 0.46432 0.0
C348 C 0.65808 0.7426 0.47931 0.0
H349 H 0.71635 0.64628 0.4923 0.0
H350 H 0.65392 0.66791 0.42026 0.0
C351 C 0.68367 0.77853 0.53619 0.0
C352 C 0.00573 0.67323 0.96677 0.0
C353 C 0.94324 0.64453 0.97732 0.0
H354 H 0.0929 0.71848 1.01093 0.0
C355 C 0.92158 0.6198 0.03847 0.0
H356 H 0.02378 0.69242 0.91974 0.0
C357 C 0.96175 0.63318 0.09052 0.0
C358 C 0.0238 0.67311 0.08257 0.0
H359 H 0.87402 0.59774 0.04839 0.0
H360 H 0.9434 0.6207 0.13908 0.0
C361 C 0.04578 0.6878 1.01905 0.0
C362 C 0.3015 0.0206 0.59696 0.0
C363 C 0.26671 0.04952 0.6084 0.0
H364 H 0.31279 0.95357 0.5404 0.0
C365 C 0.21489 0.03109 0.57068 0.0
H366 H 0.34187 0.03391 0.62493 0.0
C367 C 0.1983 0.98535 0.52272 0.0
C368 C 0.23314 0.95664 0.51053 0.0
H369 H 0.18681 0.05206 0.57809 0.0
H370 H 0.15811 0.97292 0.49475 0.0
C371 C 0.28507 0.97485 0.54822 0.0
C372 C 0.69041 0.65322 1.00219 0.0
C373 C 0.72222 0.69564 0.95412 0.0
H374 H 0.64009 0.6365 0.09065 0.0
C375 C 0.71422 0.74694 0.94876 0.0
H376 H 0.69583 0.61329 1.00735 0.0
C377 C 0.68113 0.75967 0.9956 0.0
C378 C 0.65657 0.72183 0.04939 0.0
H379 H 0.73773 0.77983 0.91152 0.0
H380 H 0.68251 0.80352 0.99484 0.0
C381 C 0.65744 0.66602 0.04919 0.0
C382 C 0.05979 0.73957 0.55993 0.0
C383 C 0.04918 0.71998 0.49427 0.0
H384 H 0.02136 0.74113 0.65304 0.0
C385 C 0.98975 0.68085 0.47423 0.0
H386 H 0.10482 0.77039 0.57679 0.0
C387 C 0.94197 0.66402 0.51766 0.0
C388 C 0.95202 0.68636 0.58243 0.0
H389 H 0.97987 0.6651 0.4239 0.0
H390 H 0.89689 0.63556 0.49952 0.0
C391 C 0.01174 0.72323 0.60343 0.0
C392 C 0.30467 0.00659 0.04936 0.0
C393 C 0.27559 0.02896 1.00914 0.0
H394 H 0.29536 0.94406 0.1243 0.0
C395 C 0.21317 1.0032 1.01348 0.0
H396 H 0.35279 0.02559 0.04731 0.0
C397 C 0.18055 0.95645 0.05654 0.0
C398 C 0.20923 0.93434 0.09757 0.0
H399 H 0.1891 0.01878 0.98303 0.0
H400 H 0.13247 0.93807 0.05795 0.0
C401 C 0.27183 0.96005 0.09359 0.0
C402 C 0.3679 0.33518 0.55636 0.0
C403 C 0.35178 0.27485 0.56963 0.0
H404 H 0.34721 0.39541 0.5059 0.0
C405 C 0.30731 0.22791 0.53059 0.0
H406 H 0.40088 0.37212 0.58648 0.0
C407 C 0.27356 0.2406 0.48613 0.0
C408 C 0.28541 0.30079 0.4783 0.0
H409 H 0.29379 0.18071 0.5398 0.0
H410 H 0.23691 0.20331 0.46017 0.0
C411 C 0.33533 0.34805 0.51131 0.0
C412 C 0.07025 0.3557 1.00287 0.0
C413 C 0.05732 0.35599 0.06931 0.0
H414 H 0.03502 0.33256 0.90606 0.0
C415 C 0.99983 0.34544 0.0876 0.0
H416 H 0.11363 0.36225 0.98744 0.0
C417 C 0.95389 0.32647 0.04129 0.0
C418 C 0.96482 0.31802 0.97571 0.0
H419 H 0.98849 0.34441 0.13876 0.0
H420 H 0.90887 0.31283 0.05791 0.0
C421 C 0.02451 0.33729 0.95642 0.0
C422 C 0.80134 0.02056 0.57025 0.0
C423 C 0.77879 0.05592 0.60042 0.0
H424 H 0.78818 0.95082 0.50162 0.0
C425 C 0.72073 0.0444 0.58418 0.0
H426 H 0.84565 0.02783 0.5818 0.0
C427 C 0.68699 0.99964 0.53647 0.0
C428 C 0.7107 0.96542 0.50521 0.0
H429 H 0.70232 0.07122 0.60664 0.0
H430 H 0.643 0.99244 0.52358 0.0
C431 C 0.76794 0.97604 0.52383 0.0
loop_
_geom_bond_atom_site_label_1
_geom_bond_atom_site_label_2
_geom_bond_distance
_geom_bond_site_symmetry_2
_ccdc_geom_bond_type
Fe0 O1 1.886 . S
Fe0 O4 1.715 . S
Fe0 O9 2.077 . S
Fe0 O14 1.935 . S
Fe0 O20 2.077 . S
Fe0 O29 1.935 . S
O1 Fe0 1.886 . S
O1 Fe3 1.715 . S
Fe2 O4 1.886 . S
Fe2 O5 1.715 . S
Fe2 O12 1.935 . S
Fe2 O13 2.077 . S
Fe2 O19 1.935 . S
Fe2 O28 2.077 . S
Fe3 O1 1.715 . S
Fe3 O6 1.886 . S
Fe3 O10 1.935 . S
Fe3 O15 2.077 . S
Fe3 O21 1.935 . S
Fe3 O25 2.077 . S
O4 Fe0 1.715 . S
O4 Fe2 1.886 . S
O5 Fe2 1.715 . S
O5 Fe7 1.886 . S
O6 Fe3 1.886 . S
O6 Fe7 1.715 . S
Fe7 O5 1.886 . S
Fe7 O6 1.715 . S
Fe7 O11 2.077 . S
Fe7 O16 1.935 . S
Fe7 O18 2.077 . S
Fe7 O26 1.935 . S
C8 O20 1.381 . S
C8 O21 1.421 . S
O9 Fe0 2.077 . S
O9 C22 1.381 . S
O10 Fe3 1.935 . S
O10 C22 1.421 . S
O11 Fe7 2.077 . S
O11 C27 1.381 . S
O12 Fe2 1.935 . S
O12 C27 1.421 . S
O13 Fe2 2.077 . S
O13 C17 1.381 . S
O14 Fe0 1.935 . S
O14 C17 1.421 . S
O15 Fe3 2.077 . S
O15 C23 1.381 . S
O16 Fe7 1.935 . S
O16 C23 1.421 . S
C17 O13 1.381 . S
C17 O14 1.421 . S
O18 Fe7 2.077 . S
O18 C30 1.381 . S
O19 Fe2 1.935 . S
O19 C30 1.421 . S
O20 Fe0 2.077 . S
O20 C8 1.381 . S
O21 Fe3 1.935 . S
O21 C8 1.421 . S
C22 O9 1.381 . S
C22 O10 1.421 . S
C23 O15 1.381 . S
C23 O16 1.421 . S
C24 O25 1.381 . S
C24 O26 1.421 . S
O25 Fe3 2.077 . S
O25 C24 1.381 . S
O26 Fe7 1.935 . S
O26 C24 1.421 . S
C27 O11 1.381 . S
C27 O12 1.421 . S
O28 Fe2 2.077 . S
O28 C31 1.381 . S
O29 Fe0 1.935 . S
O29 C31 1.421 . S
C30 O18 1.381 . S
C30 O19 1.421 . S
C31 O28 1.381 . S
C31 O29 1.421 . S
Fe32 O33 1.886 . S
Fe32 O36 1.715 . S
Fe32 O41 2.077 . S
Fe32 O46 1.935 . S
Fe32 O52 2.077 . S
Fe32 O61 1.935 . S
O33 Fe32 1.886 . S
O33 Fe35 1.715 . S
Fe34 O36 1.886 . S
Fe34 O37 1.715 . S
Fe34 O44 1.935 . S
Fe34 O45 2.077 . S
Fe34 O51 1.935 . S
Fe34 O60 2.077 . S
Fe35 O33 1.715 . S
Fe35 O38 1.886 . S
Fe35 O42 1.935 . S
Fe35 O47 2.077 . S
Fe35 O53 1.935 . S
Fe35 O57 2.077 . S
O36 Fe32 1.715 . S
O36 Fe34 1.886 . S
O37 Fe34 1.715 . S
O37 Fe39 1.886 . S
O38 Fe35 1.886 . S
O38 Fe39 1.715 . S
Fe39 O37 1.886 . S
Fe39 O38 1.715 . S
Fe39 O43 2.077 . S
Fe39 O48 1.935 . S
Fe39 O50 2.077 . S
Fe39 O58 1.935 . S
C40 O52 1.381 . S
C40 O53 1.421 . S
O41 Fe32 2.077 . S
O41 C54 1.381 . S
O42 Fe35 1.935 . S
O42 C54 1.421 . S
O43 Fe39 2.077 . S
O43 C59 1.381 . S
O44 Fe34 1.935 . S
O44 C59 1.421 . S
O45 Fe34 2.077 . S
O45 C49 1.381 . S
O46 Fe32 1.935 . S
O46 C49 1.421 . S
O47 Fe35 2.077 . S
O47 C55 1.381 . S
O48 Fe39 1.935 . S
O48 C55 1.421 . S
C49 O45 1.381 . S
C49 O46 1.421 . S
O50 Fe39 2.077 . S
O50 C62 1.381 . S
O51 Fe34 1.935 . S
O51 C62 1.421 . S
O52 Fe32 2.077 . S
O52 C40 1.381 . S
O53 Fe35 1.935 . S
O53 C40 1.421 . S
C54 O41 1.381 . S
C54 O42 1.421 . S
C55 O47 1.381 . S
C55 O48 1.421 . S
C56 O57 1.381 . S
C56 O58 1.421 . S
O57 Fe35 2.077 . S
O57 C56 1.381 . S
O58 Fe39 1.935 . S
O58 C56 1.421 . S
C59 O43 1.381 . S
C59 O44 1.421 . S
O60 Fe34 2.077 . S
O60 C63 1.381 . S
O61 Fe32 1.935 . S
O61 C63 1.421 . S
C62 O50 1.381 . S
C62 O51 1.421 . S
C63 O60 1.381 . S
C63 O61 1.421 . S
Fe64 O65 1.886 . S
Fe64 O68 1.715 . S
Fe64 O73 2.077 . S
Fe64 O78 1.935 . S
Fe64 O84 2.077 . S
Fe64 O93 1.935 . S
O65 Fe64 1.886 . S
O65 Fe67 1.715 . S
Fe66 O68 1.886 . S
Fe66 O69 1.715 . S
Fe66 O76 1.935 . S
Fe66 O77 2.077 . S
Fe66 O83 1.935 . S
Fe66 O92 2.077 . S
Fe67 O65 1.715 . S
Fe67 O70 1.886 . S
Fe67 O74 1.935 . S
Fe67 O79 2.077 . S
Fe67 O85 1.935 . S
Fe67 O89 2.077 . S
O68 Fe64 1.715 . S
O68 Fe66 1.886 . S
O69 Fe66 1.715 . S
O69 Fe71 1.886 . S
O70 Fe67 1.886 . S
O70 Fe71 1.715 . S
Fe71 O69 1.886 . S
Fe71 O70 1.715 . S
Fe71 O75 2.077 . S
Fe71 O80 1.935 . S
Fe71 O82 2.077 . S
Fe71 O90 1.935 . S
C72 O84 1.381 . S
C72 O85 1.421 . S
O73 Fe64 2.077 . S
O73 C86 1.381 . S
O74 Fe67 1.935 . S
O74 C86 1.421 . S
O75 Fe71 2.077 . S
O75 C91 1.381 . S
O76 Fe66 1.935 . S
O76 C91 1.421 . S
O77 Fe66 2.077 . S
O77 C81 1.381 . S
O78 Fe64 1.935 . S
O78 C81 1.421 . S
O79 Fe67 2.077 . S
O79 C87 1.381 . S
O80 Fe71 1.935 . S
O80 C87 1.421 . S
C81 O77 1.381 . S
C81 O78 1.421 . S
O82 Fe71 2.077 . S
O82 C94 1.381 . S
O83 Fe66 1.935 . S
O83 C94 1.421 . S
O84 Fe64 2.077 . S
O84 C72 1.381 . S
O85 Fe67 1.935 . S
O85 C72 1.421 . S
C86 O73 1.381 . S
C86 O74 1.421 . S
C87 O79 1.381 . S
C87 O80 1.421 . S
C88 O89 1.381 . S
C88 O90 1.421 . S
O89 Fe67 2.077 . S
O89 C88 1.381 . S
O90 Fe71 1.935 . S
O90 C88 1.421 . S
C91 O75 1.381 . S
C91 O76 1.421 . S
O92 Fe66 2.077 . S
O92 C95 1.381 . S
O93 Fe64 1.935 . S
O93 C95 1.421 . S
C94 O82 1.381 . S
C94 O83 1.421 . S
C95 O92 1.381 . S
C95 O93 1.421 . S
Fe96 O97 1.886 . S
Fe96 O100 1.715 . S
Fe96 O105 2.077 . S
Fe96 O110 1.935 . S
Fe96 O116 2.077 . S
Fe96 O125 1.935 . S
O97 Fe96 1.886 . S
O97 Fe99 1.715 . S
Fe98 O100 1.886 . S
Fe98 O101 1.715 . S
Fe98 O108 1.935 . S
Fe98 O109 2.077 . S
Fe98 O115 1.935 . S
Fe98 O124 2.077 . S
Fe99 O97 1.715 . S
Fe99 O102 1.886 . S
Fe99 O106 1.935 . S
Fe99 O111 2.077 . S
Fe99 O117 1.935 . S
Fe99 O121 2.077 . S
O100 Fe96 1.715 . S
O100 Fe98 1.886 . S
O101 Fe98 1.715 . S
O101 Fe103 1.886 . S
O102 Fe99 1.886 . S
O102 Fe103 1.715 . S
Fe103 O101 1.886 . S
Fe103 O102 1.715 . S
Fe103 O107 2.077 . S
Fe103 O112 1.935 . S
Fe103 O114 2.077 . S
Fe103 O122 1.935 . S
C104 O116 1.381 . S
C104 O117 1.421 . S
O105 Fe96 2.077 . S
O105 C118 1.381 . S
O106 Fe99 1.935 . S
O106 C118 1.421 . S
O107 Fe103 2.077 . S
O107 C123 1.381 . S
O108 Fe98 1.935 . S
O108 C123 1.421 . S
O109 Fe98 2.077 . S
O109 C113 1.381 . S
O110 Fe96 1.935 . S
O110 C113 1.421 . S
O111 Fe99 2.077 . S
O111 C119 1.381 . S
O112 Fe103 1.935 . S
O112 C119 1.421 . S
C113 O109 1.381 . S
C113 O110 1.421 . S
O114 Fe103 2.077 . S
O114 C126 1.381 . S
O115 Fe98 1.935 . S
O115 C126 1.421 . S
O116 Fe96 2.077 . S
O116 C104 1.381 . S
O117 Fe99 1.935 . S
O117 C104 1.421 . S
C118 O105 1.381 . S
C118 O106 1.421 . S
C119 O111 1.381 . S
C119 O112 1.421 . S
C120 O121 1.381 . S
C120 O122 1.421 . S
O121 Fe99 2.077 . S
O121 C120 1.381 . S
O122 Fe103 1.935 . S
O122 C120 1.421 . S
C123 O107 1.381 . S
C123 O108 1.421 . S
O124 Fe98 2.077 . S
O124 C127 1.381 . S
O125 Fe96 1.935 . S
O125 C127 1.421 . S
C126 O114 1.381 . S
C126 O115 1.421 . S
C127 O124 1.381 . S
C127 O125 1.421 . S
Fe128 O129 1.886 . S
Fe128 O132 1.715 . S
Fe128 O137 2.077 . S
Fe128 O142 1.935 . S
Fe128 O148 2.077 . S
Fe128 O157 1.935 . S
O129 Fe128 1.886 . S
O129 Fe131 1.715 . S
Fe130 O132 1.886 . S
Fe130 O133 1.715 . S
Fe130 O140 1.935 . S
Fe130 O141 2.077 . S
Fe130 O147 1.935 . S
Fe130 O156 2.077 . S
Fe131 O129 1.715 . S
Fe131 O134 1.886 . S
Fe131 O138 1.935 . S
Fe131 O143 2.077 . S
Fe131 O149 1.935 . S
Fe131 O153 2.077 . S
O132 Fe128 1.715 . S
O132 Fe130 1.886 . S
O133 Fe130 1.715 . S
O133 Fe135 1.886 . S
O134 Fe131 1.886 . S
O134 Fe135 1.715 . S
Fe135 O133 1.886 . S
Fe135 O134 1.715 . S
Fe135 O139 2.077 . S
Fe135 O144 1.935 . S
Fe135 O146 2.077 . S
Fe135 O154 1.935 . S
C136 O148 1.381 . S
C136 O149 1.421 . S
O137 Fe128 2.077 . S
O137 C150 1.381 . S
O138 Fe131 1.935 . S
O138 C150 1.421 . S
O139 Fe135 2.077 . S
O139 C155 1.381 . S
O140 Fe130 1.935 . S
O140 C155 1.421 . S
O141 Fe130 2.077 . S
O141 C145 1.381 . S
O142 Fe128 1.935 . S
O142 C145 1.421 . S
O143 Fe131 2.077 . S
O143 C151 1.381 . S
O144 Fe135 1.935 . S
O144 C151 1.421 . S
C145 O141 1.381 . S
C145 O142 1.421 . S
O146 Fe135 2.077 . S
O146 C158 1.381 . S
O147 Fe130 1.935 . S
O147 C158 1.421 . S
O148 Fe128 2.077 . S
O148 C136 1.381 . S
O149 Fe131 1.935 . S
O149 C136 1.421 . S
C150 O137 1.381 . S
C150 O138 1.421 . S
C151 O143 1.381 . S
C151 O144 1.421 . S
C152 O153 1.381 . S
C152 O154 1.421 . S
O153 Fe131 2.077 . S
O153 C152 1.381 . S
O154 Fe135 1.935 . S
O154 C152 1.421 . S
C155 O139 1.381 . S
C155 O140 1.421 . S
O156 Fe130 2.077 . S
O156 C159 1.381 . S
O157 Fe128 1.935 . S
O157 C159 1.421 . S
C158 O146 1.381 . S
C158 O147 1.421 . S
C159 O156 1.381 . S
C159 O157 1.421 . S
Fe160 O161 1.886 . S
Fe160 O164 1.715 . S
Fe160 O169 2.077 . S
Fe160 O174 1.935 . S
Fe160 O180 2.077 . S
Fe160 O189 1.935 . S
O161 Fe160 1.886 . S
O161 Fe163 1.715 . S
Fe162 O164 1.886 . S
Fe162 O165 1.715 . S
Fe162 O172 1.935 . S
Fe162 O173 2.077 . S
Fe162 O179 1.935 . S
Fe162 O188 2.077 . S
Fe163 O161 1.715 . S
Fe163 O166 1.886 . S
Fe163 O170 1.935 . S
Fe163 O175 2.077 . S
Fe163 O181 1.935 . S
Fe163 O185 2.077 . S
O164 Fe160 1.715 . S
O164 Fe162 1.886 . S
O165 Fe162 1.715 . S
O165 Fe167 1.886 . S
O166 Fe163 1.886 . S
O166 Fe167 1.715 . S
Fe167 O165 1.886 . S
Fe167 O166 1.715 . S
Fe167 O171 2.077 . S
Fe167 O176 1.935 . S
Fe167 O178 2.077 . S
Fe167 O186 1.935 . S
C168 O180 1.381 . S
C168 O181 1.421 . S
O169 Fe160 2.077 . S
O169 C182 1.381 . S
O170 Fe163 1.935 . S
O170 C182 1.421 . S
O171 Fe167 2.077 . S
O171 C187 1.381 . S
O172 Fe162 1.935 . S
O172 C187 1.421 . S
O173 Fe162 2.077 . S
O173 C177 1.381 . S
O174 Fe160 1.935 . S
O174 C177 1.421 . S
O175 Fe163 2.077 . S
O175 C183 1.381 . S
O176 Fe167 1.935 . S
O176 C183 1.421 . S
C177 O173 1.381 . S
C177 O174 1.421 . S
O178 Fe167 2.077 . S
O178 C190 1.381 . S
O179 Fe162 1.935 . S
O179 C190 1.421 . S
O180 Fe160 2.077 . S
O180 C168 1.381 . S
O181 Fe163 1.935 . S
O181 C168 1.421 . S
C182 O169 1.381 . S
C182 O170 1.421 . S
C183 O175 1.381 . S
C183 O176 1.421 . S
C184 O185 1.381 . S
C184 O186 1.421 . S
O185 Fe163 2.077 . S
O185 C184 1.381 . S
O186 Fe167 1.935 . S
O186 C184 1.421 . S
C187 O171 1.381 . S
C187 O172 1.421 . S
O188 Fe162 2.077 . S
O188 C191 1.381 . S
O189 Fe160 1.935 . S
O189 C191 1.421 . S
C190 O178 1.381 . S
C190 O179 1.421 . S
C191 O188 1.381 . S
C191 O189 1.421 . S
C192 C193 1.387 . S
C192 H196 0.950 . S
C192 C201 1.390 . S
C193 C192 1.387 . S
C193 C195 1.387 . S
H194 C201 0.950 . S
C195 C193 1.387 . S
C195 C197 1.390 . S
C195 H199 0.950 . S
H196 C192 0.950 . S
C197 C195 1.390 . S
C197 C198 1.387 . S
C197 H200 0.950 . S
C198 C197 1.387 . S
C198 C201 1.387 . S
H199 C195 0.950 . S
H200 C197 0.950 . S
C201 C192 1.390 . S
C201 H194 0.950 . S
C201 C198 1.387 . S
C202 C203 1.387 . S
C202 H206 0.950 . S
C202 C211 1.390 . S
C203 C202 1.387 . S
C203 C205 1.387 . S
H204 C211 0.950 . S
C205 C203 1.387 . S
C205 C207 1.390 . S
C205 H209 0.950 . S
H206 C202 0.950 . S
C207 C205 1.390 . S
C207 C208 1.387 . S
C207 H210 0.950 . S
C208 C207 1.387 . S
C208 C211 1.387 . S
H209 C205 0.950 . S
H210 C207 0.950 . S
C211 C202 1.390 . S
C211 H204 0.950 . S
C211 C208 1.387 . S
C212 C213 1.387 . S
C212 H216 0.950 . S
C212 C221 1.390 . S
C213 C212 1.387 . S
C213 C215 1.387 . S
H214 C221 0.950 . S
C215 C213 1.387 . S
C215 C217 1.390 . S
C215 H219 0.950 . S
H216 C212 0.950 . S
C217 C215 1.390 . S
C217 C218 1.387 . S
C217 H220 0.950 . S
C218 C217 1.387 . S
C218 C221 1.387 . S
H219 C215 0.950 . S
H220 C217 0.950 . S
C221 C212 1.390 . S
C221 H214 0.950 . S
C221 C218 1.387 . S
C222 C223 1.387 . S
C222 H226 0.950 . S
C222 C231 1.390 . S
C223 C222 1.387 . S
C223 C225 1.387 . S
H224 C231 0.950 . S
C225 C223 1.387 . S
C225 C227 1.390 . S
C225 H229 0.950 . S
H226 C222 0.950 . S
C227 C225 1.390 . S
C227 C228 1.387 . S
C227 H230 0.950 . S
C228 C227 1.387 . S
C228 C231 1.387 . S
H229 C225 0.950 . S
H230 C227 0.950 . S
C231 C222 1.390 . S
C231 H224 0.950 . S
C231 C228 1.387 . S
C232 C233 1.387 . S
C232 H236 0.950 . S
C232 C241 1.390 . S
C233 C232 1.387 . S
C233 C235 1.387 . S
H234 C241 0.950 . S
C235 C233 1.387 . S
C235 C237 1.390 . S
C235 H239 0.950 . S
H236 C232 0.950 . S
C237 C235 1.390 . S
C237 C238 1.387 . S
C237 H240 0.950 . S
C238 C237 1.387 . S
C238 C241 1.387 . S
H239 C235 0.950 . S
H240 C237 0.950 . S
C241 C232 1.390 . S
C241 H234 0.950 . S
C241 C238 1.387 . S
C242 C243 1.387 . S
C242 H246 0.950 . S
C242 C251 1.390 . S
C243 C242 1.387 . S
C243 C245 1.387 . S
H244 C251 0.950 . S
C245 C243 1.387 . S
C245 C247 1.390 . S
C245 H249 0.950 . S
H246 C242 0.950 . S
C247 C245 1.390 . S
C247 C248 1.387 . S
C247 H250 0.950 . S
C248 C247 1.387 . S
C248 C251 1.387 . S
H249 C245 0.950 . S
H250 C247 0.950 . S
C251 C242 1.390 . S
C251 H244 0.950 . S
C251 C248 1.387 . S
C252 C253 1.387 . S
C252 H256 0.950 . S
C252 C261 1.390 . S
C253 C252 1.387 . S
C253 C255 1.387 . S
H254 C261 0.950 . S
C255 C253 1.387 . S
C255 C257 1.390 . S
C255 H259 0.950 . S
H256 C252 0.950 . S
C257 C255 1.390 . S
C257 C258 1.387 . S
C257 H260 0.950 . S
C258 C257 1.387 . S
C258 C261 1.387 . S
H259 C255 0.950 . S
H260 C257 0.950 . S
C261 C252 1.390 . S
C261 H254 0.950 . S
C261 C258 1.387 . S
C262 C263 1.387 . S
C262 H266 0.950 . S
C262 C271 1.390 . S
C263 C262 1.387 . S
C263 C265 1.387 . S
H264 C271 0.950 . S
C265 C263 1.387 . S
C265 C267 1.390 . S
C265 H269 0.950 . S
H266 C262 0.950 . S
C267 C265 1.390 . S
C267 C268 1.387 . S
C267 H270 0.950 . S
C268 C267 1.387 . S
C268 C271 1.387 . S
H269 C265 0.950 . S
H270 C267 0.950 . S
C271 C262 1.390 . S
C271 H264 0.950 . S
C271 C268 1.387 . S
C272 C273 1.387 . S
C272 H276 0.950 . S
C272 C281 1.390 . S
C273 C272 1.387 . S
C273 C275 1.387 . S
H274 C281 0.950 . S
C275 C273 1.387 . S
C275 C277 1.390 . S
C275 H279 0.950 . S
H276 C272 0.950 . S
C277 C275 1.390 . S
C277 C278 1.387 . S
C277 H280 0.950 . S
C278 C277 1.387 . S
C278 C281 1.387 . S
H279 C275 0.950 . S
H280 C277 0.950 . S
C281 C272 1.390 . S
C281 H274 0.950 . S
C281 C278 1.387 . S
C282 C283 1.387 . S
C282 H286 0.950 . S
C282 C291 1.390 . S
C283 C282 1.387 . S
C283 C285 1.387 . S
H284 C291 0.950 . S
C285 C283 1.387 . S
C285 C287 1.390 . S
C285 H289 0.950 . S
H286 C282 0.950 . S
C287 C285 1.390 . S
C287 C288 1.387 . S
C287 H290 0.950 . S
C288 C287 1.387 . S
C288 C291 1.387 . S
H289 C285 0.950 . S
H290 C287 0.950 . S
C291 C282 1.390 . S
C291 H284 0.950 . S
C291 C288 1.387 . S
C292 C293 1.387 . S
C292 H296 0.950 . S
C292 C301 1.390 . S
C293 C292 1.387 . S
C293 C295 1.387 . S
H294 C301 0.950 . S
C295 C293 1.387 . S
C295 C297 1.390 . S
C295 H299 0.950 . S
H296 C292 0.950 . S
C297 C295 1.390 . S
C297 C298 1.387 . S
C297 H300 0.950 . S
C298 C297 1.387 . S
C298 C301 1.387 . S
H299 C295 0.950 . S
H300 C297 0.950 . S
C301 C292 1.390 . S
C301 H294 0.950 . S
C301 C298 1.387 . S
C302 C303 1.387 . S
C302 H306 0.950 . S
C302 C311 1.390 . S
C303 C302 1.387 . S
C303 C305 1.387 . S
H304 C311 0.950 . S
C305 C303 1.387 . S
C305 C307 1.390 . S
C305 H309 0.950 . S
H306 C302 0.950 . S
C307 C305 1.390 . S
C307 C308 1.387 . S
C307 H310 0.950 . S
C308 C307 1.387 . S
C308 C311 1.387 . S
H309 C305 0.950 . S
H310 C307 0.950 . S
C311 C302 1.390 . S
C311 H304 0.950 . S
C311 C308 1.387 . S
C312 C313 1.387 1_556 S
C312 H316 0.950 . S
C312 C321 1.390 . S
C313 C312 1.387 1_554 S
C313 C315 1.387 . S
H314 C321 0.950 . S
C315 C313 1.387 . S
C315 C317 1.390 . S
C315 H319 0.950 . S
H316 C312 0.950 . S
C317 C315 1.390 . S
C317 C318 1.387 1_554 S
C317 H320 0.950 . S
C318 C317 1.387 1_556 S
C318 C321 1.387 . S
H319 C315 0.950 . S
H320 C317 0.950 . S
C321 C312 1.390 . S
C321 H314 0.950 . S
C321 C318 1.387 . S
C322 C323 1.387 . S
C322 H326 0.950 . S
C322 C331 1.390 1_655 S
C323 C322 1.387 . S
C323 C325 1.387 . S
H324 C331 0.950 . S
C325 C323 1.387 . S
C325 C327 1.390 1_655 S
C325 H329 0.950 . S
H326 C322 0.950 . S
C327 C325 1.390 1_455 S
C327 C328 1.387 . S
C327 H330 0.950 . S
C328 C327 1.387 . S
C328 C331 1.387 . S
H329 C325 0.950 . S
H330 C327 0.950 . S
C331 C322 1.390 1_455 S
C331 H324 0.950 . S
C331 C328 1.387 . S
C332 C333 1.387 . S
C332 H336 0.950 . S
C332 C341 1.390 1_564 S
C333 C332 1.387 . S
C333 C335 1.387 . S
H334 C341 0.950 . S
C335 C333 1.387 . S
C335 C337 1.390 1_564 S
C335 H339 0.950 . S
H336 C332 0.950 . S
C337 C335 1.390 1_546 S
C337 C338 1.387 . S
C337 H340 0.950 . S
C338 C337 1.387 . S
C338 C341 1.387 . S
H339 C335 0.950 . S
H340 C337 0.950 . S
C341 C332 1.390 1_546 S
C341 H334 0.950 . S
C341 C338 1.387 . S
C342 C343 1.387 . S
C342 H346 0.950 . S
C342 C351 1.390 . S
C343 C342 1.387 . S
C343 C345 1.387 . S
H344 C351 0.950 . S
C345 C343 1.387 . S
C345 C347 1.390 . S
C345 H349 0.950 . S
H346 C342 0.950 . S
C347 C345 1.390 . S
C347 C348 1.387 . S
C347 H350 0.950 . S
C348 C347 1.387 . S
C348 C351 1.387 . S
H349 C345 0.950 . S
H350 C347 0.950 . S
C351 C342 1.390 . S
C351 H344 0.950 . S
C351 C348 1.387 . S
C352 C353 1.387 1_455 S
C352 H356 0.950 . S
C352 C361 1.390 . S
C353 C352 1.387 1_655 S
C353 C355 1.387 1_556 S
H354 C361 0.950 . S
C355 C353 1.387 1_554 S
C355 C357 1.390 . S
C355 H359 0.950 . S
H356 C352 0.950 . S
C357 C355 1.390 . S
C357 C358 1.387 1_655 S
C357 H360 0.950 . S
C358 C357 1.387 1_455 S
C358 C361 1.387 1_554 S
H359 C355 0.950 . S
H360 C357 0.950 . S
C361 C352 1.390 . S
C361 H354 0.950 . S
C361 C358 1.387 1_556 S
C362 C363 1.387 . S
C362 H366 0.950 . S
C362 C371 1.390 1_545 S
C363 C362 1.387 . S
C363 C365 1.387 . S
H364 C371 0.950 . S
C365 C363 1.387 . S
C365 C367 1.390 1_545 S
C365 H369 0.950 . S
H366 C362 0.950 . S
C367 C365 1.390 1_565 S
C367 C368 1.387 . S
C367 H370 0.950 . S
C368 C367 1.387 . S
C368 C371 1.387 . S
H369 C365 0.950 . S
H370 C367 0.950 . S
C371 C362 1.390 1_565 S
C371 H364 0.950 . S
C371 C368 1.387 . S
C372 C373 1.382 1_554 S
C372 H376 0.950 . S
C372 C381 1.395 . S
C373 C372 1.382 1_556 S
C373 C375 1.387 . S
H374 C381 0.950 . S
C375 C373 1.387 . S
C375 C377 1.395 . S
C375 H379 0.950 . S
H376 C372 0.950 . S
C377 C375 1.395 . S
C377 C378 1.382 1_556 S
C377 H380 0.950 . S
C378 C377 1.382 1_554 S
C378 C381 1.387 . S
H379 C375 0.950 . S
H380 C377 0.950 . S
C381 C372 1.395 . S
C381 H374 0.950 . S
C381 C378 1.387 . S
C382 C383 1.387 . S
C382 H386 0.950 . S
C382 C391 1.393 . S
C383 C382 1.387 . S
C383 C385 1.387 1_455 S
H384 C391 0.950 . S
C385 C383 1.387 1_655 S
C385 C387 1.393 . S
C385 H389 0.950 . S
H386 C382 0.950 . S
C387 C385 1.393 . S
C387 C388 1.387 . S
C387 H390 0.950 . S
C388 C387 1.387 . S
C388 C391 1.387 1_655 S
H389 C385 0.950 . S
H390 C387 0.950 . S
C391 C382 1.393 . S
C391 H384 0.950 . S
C391 C388 1.387 1_455 S
C392 C393 1.387 . S
C392 H396 0.950 . S
C392 C401 1.390 1_546 S
C393 C392 1.387 . S
C393 C395 1.387 . S
H394 C401 0.950 . S
C395 C393 1.387 . S
C395 C397 1.390 1_546 S
C395 H399 0.950 . S
H396 C392 0.950 . S
C397 C395 1.390 1_564 S
C397 C398 1.387 . S
C397 H400 0.950 . S
C398 C397 1.387 . S
C398 C401 1.387 . S
H399 C395 0.950 . S
H400 C397 0.950 . S
C401 C392 1.390 1_564 S
C401 H394 0.950 . S
C401 C398 1.387 . S
C402 C403 1.387 . S
C402 H406 0.950 . S
C402 C411 1.390 . S
C403 C402 1.387 . S
C403 C405 1.387 . S
H404 C411 0.950 . S
C405 C403 1.387 . S
C405 C407 1.390 . S
C405 H409 0.950 . S
H406 C402 0.950 . S
C407 C405 1.390 . S
C407 C408 1.387 . S
C407 H410 0.950 . S
C408 C407 1.387 . S
C408 C411 1.387 . S
H409 C405 0.950 . S
H410 C407 0.950 . S
C411 C402 1.390 . S
C411 H404 0.950 . S
C411 C408 1.387 . S
C412 C413 1.387 . S
C412 H416 0.950 . S
C412 C421 1.390 1_554 S
C413 C412 1.387 . S
C413 C415 1.387 1_455 S
H414 C421 0.950 . S
C415 C413 1.387 1_655 S
C415 C417 1.390 1_554 S
C415 H419 0.950 . S
H416 C412 0.950 . S
C417 C415 1.390 1_556 S
C417 C418 1.387 . S
C417 H420 0.950 . S
C418 C417 1.387 . S
C418 C421 1.387 1_655 S
H419 C415 0.950 . S
H420 C417 0.950 . S
C421 C412 1.390 1_556 S
C421 H414 0.950 . S
C421 C418 1.387 1_455 S
C422 C423 1.387 . S
C422 H426 0.950 . S
C422 C431 1.390 1_545 S
C423 C422 1.387 . S
C423 C425 1.387 . S
H424 C431 0.950 . S
C425 C423 1.387 . S
C425 C427 1.390 1_545 S
C425 H429 0.950 . S
H426 C422 0.950 . S
C427 C425 1.390 1_565 S
C427 C428 1.387 . S
C427 H430 0.950 . S
C428 C427 1.387 . S
C428 C431 1.387 . S
H429 C425 0.950 . S
H430 C427 0.950 . S
C431 C422 1.390 1_565 S
C431 H424 0.950 . S
C431 C428 1.387 . S
C193 C30 1.212 . S
C198 C155 1.216 . S
C203 C187 1.215 . S
C208 C62 1.212 . S
C213 C27 1.216 . S
C218 C94 1.212 . S
C223 C59 1.212 . S
C228 C126 1.216 . S
C233 C158 1.216 . S
C238 C91 1.212 . S
C243 C190 1.212 . S
C248 C123 1.216 . S
C253 C22 1.094 . S
C258 C136 1.099 1_545 S
C263 C54 1.094 1_455 S
C268 C168 1.099 . S
C273 C8 1.094 1_655 S
C278 C86 1.099 1_545 S
C283 C40 1.099 1_565 S
C288 C118 1.094 . S
C293 C72 1.094 . S
C298 C150 1.099 1_655 S
C303 C182 1.099 1_565 S
C308 C104 1.094 1_455 S
C313 C17 1.541 . S
C318 C184 1.568 . S
C323 C49 1.545 . S
C328 C24 1.568 . S
C333 C81 1.544 . S
C338 C56 1.569 . S
C343 C113 1.545 . S
C348 C88 1.568 . S
C353 C120 1.569 . S
C358 C145 1.542 . S
C363 C177 1.542 . S
C368 C152 1.567 . S
C373 C119 1.569 . S
C378 C95 1.543 . S
C383 C151 1.567 . S
C388 C127 1.542 . S
C393 C183 1.569 . S
C398 C159 1.544 . S
C403 C191 1.543 . S
C408 C23 1.569 . S
C413 C31 1.545 . S
C418 C55 1.568 . S
C423 C63 1.542 . S
C428 C87 1.567 . S
