# Generated by pormake.
# Topology ske, (6)-cn, num edge types: 1
# Building blocks:
#     Node 0, Type 0, BuildingBlock: CIFDUS_clean_sbu_1, # of connection points: 6
#     Node 1, Type 0, BuildingBlock: CIFDUS_clean_sbu_1, # of connection points: 6
#     Node 2, Type 0, BuildingBlock: CIFDUS_clean_sbu_1, # of connection points: 6
#     Node 3, Type 0, BuildingBlock: CIFDUS_clean_sbu_1, # of connection points: 6
#     Node 4, Type 0, BuildingBlock: CIFDUS_clean_sbu_1, # of connection points: 6
#     Node 5, Type 0, BuildingBlock: CIFDUS_clean_sbu_1, # of connection points: 6
#     Node 6, Type 0, BuildingBlock: CIFDUS_clean_sbu_1, # of connection points: 6
#     Node 7, Type 0, BuildingBlock: CIFDUS_clean_sbu_1, # of connection points: 6
#     Edge 8, Type (0, 0), BuildingBlock: AJUNOK_clean_linker_0, # of connection points: 2
#     Edge 9, Type (0, 0), BuildingBlock: AJUNOK_clean_linker_0, # of connection points: 2
#     Edge 10, Type (0, 0), BuildingBlock: AJUNOK_clean_linker_0, # of connection points: 2
#     Edge 11, Type (0, 0), BuildingBlock: AJUNOK_clean_linker_0, # of connection points: 2
#     Edge 12, Type (0, 0), BuildingBlock: AJUNOK_clean_linker_0, # of connection points: 2
#     Edge 13, Type (0, 0), BuildingBlock: AJUNOK_clean_linker_0, # of connection points: 2
#     Edge 14, Type (0, 0), BuildingBlock: AJUNOK_clean_linker_0, # of connection points: 2
#     Edge 15, Type (0, 0), BuildingBlock: AJUNOK_clean_linker_0, # of connection points: 2
#     Edge 16, Type (0, 0), BuildingBlock: AJUNOK_clean_linker_0, # of connection points: 2
#     Edge 17, Type (0, 0), BuildingBlock: AJUNOK_clean_linker_0, # of connection points: 2
#     Edge 18, Type (0, 0), BuildingBlock: AJUNOK_clean_linker_0, # of connection points: 2
#     Edge 19, Type (0, 0), BuildingBlock: AJUNOK_clean_linker_0, # of connection points: 2
#     Edge 20, Type (0, 0), BuildingBlock: AJUNOK_clean_linker_0, # of connection points: 2
#     Edge 21, Type (0, 0), BuildingBlock: AJUNOK_clean_linker_0, # of connection points: 2
#     Edge 22, Type (0, 0), BuildingBlock: AJUNOK_clean_linker_0, # of connection points: 2
#     Edge 23, Type (0, 0), BuildingBlock: AJUNOK_clean_linker_0, # of connection points: 2
#     Edge 24, Type (0, 0), BuildingBlock: AJUNOK_clean_linker_0, # of connection points: 2
#     Edge 25, Type (0, 0), BuildingBlock: AJUNOK_clean_linker_0, # of connection points: 2
#     Edge 26, Type (0, 0), BuildingBlock: AJUNOK_clean_linker_0, # of connection points: 2
#     Edge 27, Type (0, 0), BuildingBlock: AJUNOK_clean_linker_0, # of connection points: 2
#     Edge 28, Type (0, 0), BuildingBlock: AJUNOK_clean_linker_0, # of connection points: 2
#     Edge 29, Type (0, 0), BuildingBlock: AJUNOK_clean_linker_0, # of connection points: 2
#     Edge 30, Type (0, 0), BuildingBlock: AJUNOK_clean_linker_0, # of connection points: 2
#     Edge 31, Type (0, 0), BuildingBlock: AJUNOK_clean_linker_0, # of connection points: 2
# Relax obj value: 0.101
# Max RMSD: 0.136
# Mean RMSD: 0.136
data_MOF--net-ske--node1-CIFDUS_clean_sbu_1--edge1-AJUNOK_clean_linker_0
_symmetry_space_group_name_H-M    P1
_symmetry_Int_Tables_number       1
_symmetry_cell_setting            triclinic
loop_
_symmetry_equiv_pos_as_xyz
'x, y, z'
_cell_length_a     45.327743
_cell_length_b     23.109782
_cell_length_c     11.637773
_cell_angle_alpha  90.034321
_cell_angle_beta   90.277483
_cell_angle_gamma 89.443769
loop_
_atom_site_label
_atom_site_type_symbol
_atom_site_fract_x
_atom_site_fract_y
_atom_site_fract_z
_atom_type_partial_charge
O0 O 0.15797 0.24232 0.39436 0.0
Mn1 Mn 0.1497 0.25315 0.56976 0.0
O2 O 0.11484 0.27345 0.33693 0.0
Mn3 Mn 0.11624 0.33315 0.44158 0.0
O4 O 0.14295 0.26261 0.74722 0.0
O5 O 0.15227 0.16202 0.58475 0.0
Mn6 Mn 0.18338 0.16374 0.6783 0.0
O7 O 0.19536 0.27247 0.59947 0.0
O8 O 0.17545 0.19778 0.81691 0.0
O9 O 0.10223 0.24209 0.55674 0.0
O10 O 0.08452 0.3314 0.53329 0.0
O11 O 0.17693 0.08884 0.6741 0.0
O12 O 0.21674 0.18752 0.60699 0.0
C13 C 0.15459 0.38179 0.47507 0.0
C14 C 0.13841 0.24705 0.31597 0.0
C15 C 0.15656 0.23771 0.83119 0.0
C16 C 0.15629 0.10581 0.60382 0.0
C17 C 0.21898 0.24165 0.60458 0.0
C18 C 0.08063 0.27962 0.56446 0.0
O19 O 0.14568 0.34108 0.54542 0.0
O20 O 0.13838 0.38998 0.38476 0.0
O21 O 0.84231 0.23148 0.6112 0.0
Mn22 Mn 0.88775 0.24687 0.56738 0.0
O23 O 0.82305 0.31595 0.58912 0.0
Mn24 Mn 0.85638 0.33631 0.66796 0.0
O25 O 0.9353 0.25508 0.5491 0.0
O26 O 0.88974 0.15813 0.53997 0.0
Mn27 Mn 0.91708 0.17735 0.43187 0.0
O28 O 0.87572 0.2596 0.39308 0.0
O29 O 0.95167 0.16728 0.50513 0.0
O30 O 0.89696 0.23675 0.74381 0.0
O31 O 0.86463 0.30232 0.80773 0.0
O32 O 0.89363 0.12826 0.35863 0.0
O33 O 0.91975 0.24132 0.33772 0.0
C34 C 0.8842 0.39404 0.60449 0.0
C35 C 0.81918 0.26381 0.61149 0.0
C36 C 0.9567 0.21699 0.54554 0.0
C37 C 0.88169 0.12189 0.45825 0.0
C38 C 0.89525 0.26315 0.31557 0.0
C39 C 0.88334 0.26271 0.82606 0.0
O40 O 0.88825 0.33836 0.58074 0.0
O41 O 0.86261 0.41066 0.66991 0.0
O42 O 0.19653 0.7273 0.40452 0.0
Mn43 Mn 0.15119 0.74801 0.43849 0.0
O44 O 0.21707 0.80731 0.44239 0.0
Mn45 Mn 0.18592 0.83076 0.35193 0.0
O46 O 0.10312 0.75743 0.44737 0.0
O47 O 0.14927 0.65868 0.46309 0.0
Mn48 Mn 0.12147 0.68129 0.56678 0.0
O49 O 0.16081 0.76009 0.61638 0.0
O50 O 0.08799 0.66885 0.48921 0.0
O51 O 0.14448 0.73955 0.26102 0.0
O52 O 0.18096 0.79722 0.20912 0.0
O53 O 0.14609 0.63687 0.6486 0.0
O54 O 0.11588 0.74652 0.65543 0.0
C55 C 0.1588 0.895 0.39825 0.0
C56 C 0.2204 0.75555 0.41453 0.0
C57 C 0.08233 0.71869 0.44973 0.0
C58 C 0.15673 0.62439 0.54935 0.0
C59 C 0.14006 0.76405 0.68937 0.0
C60 C 0.16077 0.76221 0.1832 0.0
O61 O 0.15178 0.8408 0.42563 0.0
O62 O 0.18275 0.90567 0.34189 0.0
O63 O 0.84412 0.77616 0.40304 0.0
Mn64 Mn 0.88876 0.7516 0.44437 0.0
O65 O 0.81996 0.69578 0.38081 0.0
Mn66 Mn 0.85508 0.66439 0.33372 0.0
O67 O 0.93563 0.73557 0.46444 0.0
O68 O 0.89445 0.83931 0.46492 0.0
Mn69 Mn 0.92328 0.82947 0.57117 0.0
O70 O 0.87903 0.74448 0.62012 0.0
O71 O 0.95515 0.82327 0.47991 0.0
O72 O 0.89739 0.75905 0.2683 0.0
O73 O 0.86981 0.68774 0.19583 0.0
O74 O 0.90067 0.88661 0.62727 0.0
O75 O 0.92296 0.77065 0.67698 0.0
C76 C 0.8789 0.60408 0.41627 0.0
C77 C 0.81979 0.74999 0.38284 0.0
C78 C 0.95773 0.77058 0.45176 0.0
C79 C 0.88529 0.8803 0.53451 0.0
C80 C 0.89861 0.74836 0.69877 0.0
C81 C 0.88759 0.72911 0.18361 0.0
O82 O 0.88479 0.65984 0.43364 0.0
O83 O 0.85694 0.58955 0.35076 0.0
O84 O 0.65612 0.75218 0.90849 0.0
Mn85 Mn 0.64841 0.75692 0.08489 0.0
O86 O 0.61521 0.7967 0.85053 0.0
Mn87 Mn 0.61156 0.84109 0.9826 0.0
O88 O 0.64134 0.76141 0.26222 0.0
O89 O 0.6524 0.66326 0.09117 0.0
Mn90 Mn 0.6847 0.67291 0.17891 0.0
O91 O 0.69272 0.78152 0.11793 0.0
O92 O 0.67601 0.69948 0.32381 0.0
O93 O 0.60223 0.73906 0.06574 0.0
O94 O 0.58072 0.82521 0.07388 0.0
O95 O 0.68397 0.59788 0.17429 0.0
O96 O 0.71772 0.70124 0.11113 0.0
C97 C 0.6462 0.89333 0.00622 0.0
C98 C 0.63828 0.76775 0.82874 0.0
C99 C 0.65553 0.73562 0.34335 0.0
C100 C 0.66047 0.60838 0.11359 0.0
C101 C 0.71755 0.75527 0.11635 0.0
C102 C 0.57952 0.77136 0.08835 0.0
O103 O 0.64326 0.84759 0.07397 0.0
O104 O 0.6236 0.91043 0.94572 0.0
O105 O 0.34213 0.7323 0.10669 0.0
Mn106 Mn 0.38777 0.74786 0.0734 0.0
O107 O 0.32269 0.81923 0.11505 0.0
Mn108 Mn 0.35677 0.8417 0.18415 0.0
O109 O 0.43536 0.75584 0.05795 0.0
O110 O 0.39069 0.65962 0.04957 0.0
Mn111 Mn 0.41795 0.67043 0.9381 0.0
O112 O 0.37746 0.75955 0.89877 0.0
O113 O 0.4516 0.66671 0.01817 0.0
O114 O 0.3955 0.73837 0.25073 0.0
O115 O 0.36558 0.80752 0.32155 0.0
O116 O 0.39354 0.61802 0.87854 0.0
O117 O 0.42038 0.73214 0.83939 0.0
C118 C 0.38461 0.8953 0.10232 0.0
C119 C 0.3193 0.76527 0.11338 0.0
C120 C 0.45646 0.71704 0.05544 0.0
C121 C 0.38092 0.62014 0.97775 0.0
C122 C 0.39669 0.75793 0.81994 0.0
C123 C 0.38344 0.76569 0.33505 0.0
O124 O 0.38667 0.83859 0.08721 0.0
O125 O 0.36557 0.91581 0.17505 0.0
O126 O 0.69532 0.23584 0.90742 0.0
Mn127 Mn 0.6489 0.24492 0.93119 0.0
O128 O 0.71176 0.32262 0.8676 0.0
Mn129 Mn 0.67464 0.34248 0.82344 0.0
O130 O 0.60217 0.24834 0.94915 0.0
O131 O 0.65127 0.15395 0.94258 0.0
Mn132 Mn 0.6213 0.13038 0.03612 0.0
O133 O 0.65313 0.24798 0.1096 0.0
O134 O 0.58682 0.15691 0.97144 0.0
O135 O 0.64291 0.23809 0.75226 0.0
O136 O 0.66375 0.3173 0.68253 0.0
O137 O 0.65199 0.15236 0.94231 0.0
O138 O 0.62491 0.17349 0.1704 0.0
C139 C 0.649 0.39562 0.91371 0.0
C140 C 0.71666 0.26986 0.8863 0.0
C141 C 0.58151 0.21039 0.95656 0.0
C142 C 0.67371 0.11993 0.92324 0.0
C143 C 0.64066 0.218 0.18886 0.0
C144 C 0.64987 0.27106 0.66825 0.0
O145 O 0.64686 0.33842 0.93153 0.0
O146 O 0.667 0.41573 0.83749 0.0
O147 O 0.34382 0.27747 0.89335 0.0
Mn148 Mn 0.3881 0.25136 0.93951 0.0
O149 O 0.32058 0.20006 0.9268 0.0
Mn150 Mn 0.35238 0.17366 0.8442 0.0
O151 O 0.43514 0.23582 0.9631 0.0
O152 O 0.39323 0.33911 0.96575 0.0
Mn153 Mn 0.42004 0.32082 0.07739 0.0
O154 O 0.37593 0.24175 0.11373 0.0
O155 O 0.45378 0.32281 0.99725 0.0
O156 O 0.39797 0.25932 0.76471 0.0
O157 O 0.36058 0.20598 0.70282 0.0
O158 O 0.39658 0.37361 0.14259 0.0
O159 O 0.42014 0.25752 0.17398 0.0
C160 C 0.37667 0.10559 0.89412 0.0
C161 C 0.31898 0.25212 0.89943 0.0
C162 C 0.45718 0.27173 0.96067 0.0
C163 C 0.38441 0.37722 0.04242 0.0
C164 C 0.39506 0.23853 0.19398 0.0
C165 C 0.38216 0.23849 0.68314 0.0
O166 O 0.38518 0.15857 0.92489 0.0
O167 O 0.35295 0.0987 0.83317 0.0
C168 C 0.2721 0.22684 0.63494 0.0
C169 C 0.24779 0.26423 0.64812 0.0
C170 C 0.29486 0.22517 0.71547 0.0
C171 C 0.29658 0.26473 0.80738 0.0
H172 H 0.27157 0.19274 0.57094 0.0
H173 H 0.3098 0.18872 0.71009 0.0
S174 S 0.24439 0.38673 0.85527 0.0
N175 N 0.22964 0.3506 0.74672 0.0
N176 N 0.27525 0.35204 0.89033 0.0
C177 C 0.27503 0.30899 0.81101 0.0
C178 C 0.25027 0.30832 0.73219 0.0
C179 C 0.74973 0.2081 0.76273 0.0
C180 C 0.74642 0.24874 0.85295 0.0
C181 C 0.77453 0.2094 0.6887 0.0
C182 C 0.79582 0.25316 0.69968 0.0
H183 H 0.73184 0.17903 0.74233 0.0
H184 H 0.77567 0.17943 0.61725 0.0
S185 S 0.79758 0.36578 0.92988 0.0
N186 N 0.76879 0.32598 0.961 0.0
N187 N 0.81125 0.33698 0.81193 0.0
C188 C 0.7931 0.29142 0.79431 0.0
C189 C 0.76968 0.28642 0.87425 0.0
C190 C 0.26718 0.78555 0.15355 0.0
C191 C 0.29049 0.7453 0.16008 0.0
C192 C 0.24532 0.78761 0.23672 0.0
C193 C 0.24325 0.74567 0.32402 0.0
H194 H 0.26788 0.82086 0.09233 0.0
H195 H 0.23095 0.82514 0.23561 0.0
S196 S 0.29295 0.6184 0.35635 0.0
N197 N 0.30757 0.65551 0.24956 0.0
N198 N 0.26307 0.65461 0.39661 0.0
C199 C 0.26365 0.69935 0.32123 0.0
C200 C 0.28774 0.69968 0.24043 0.0
C201 C 0.74378 0.79935 0.28417 0.0
C202 C 0.74425 0.78133 0.16796 0.0
C203 C 0.76951 0.79662 0.35366 0.0
C204 C 0.79656 0.77718 0.30818 0.0
H205 H 0.72287 0.80873 0.32521 0.0
H206 H 0.76756 0.8044 0.44509 0.0
S207 S 0.80955 0.73269 0.00522 0.0
N208 N 0.77415 0.74929 0.009 0.0
N209 N 0.82215 0.74647 0.1355 0.0
C210 C 0.79754 0.766 0.18885 0.0
C211 C 0.77151 0.7677 0.11958 0.0
C212 C 0.13571 0.953 0.55535 0.0
C213 C 0.14245 0.94709 0.43851 0.0
C214 C 0.1346 0.00816 0.60659 0.0
C215 C 0.14056 0.0589 0.5431 0.0
H216 H 0.13517 0.91516 0.61021 0.0
H217 H 0.13307 0.01043 0.6994 0.0
S218 S 0.15195 0.06672 0.22914 0.0
N219 N 0.14862 0.99692 0.2561 0.0
N220 N 0.14779 0.09983 0.35391 0.0
C221 C 0.14275 0.05388 0.42367 0.0
C222 C 0.14343 0.99795 0.37108 0.0
C223 C 0.90026 0.44899 0.43449 0.0
C224 C 0.90144 0.44124 0.55361 0.0
C225 C 0.89849 0.505 0.38816 0.0
C226 C 0.89684 0.55462 0.4597 0.0
H227 H 0.89632 0.41237 0.37841 0.0
H228 H 0.89413 0.50894 0.29679 0.0
S229 S 0.90792 0.55528 0.77422 0.0
N230 N 0.90925 0.4863 0.73877 0.0
N231 N 0.90317 0.59162 0.65303 0.0
C232 C 0.90308 0.5473 0.57656 0.0
C233 C 0.90621 0.49026 0.62291 0.0
C234 C 0.90383 0.96716 0.45269 0.0
C235 C 0.87867 0.93723 0.48708 0.0
C236 C 0.90469 0.02682 0.45751 0.0
C237 C 0.8795 0.06003 0.48455 0.0
H238 H 0.92421 0.94406 0.43396 0.0
H239 H 0.92534 0.0475 0.4361 0.0
S240 S 0.80675 0.00249 0.5679 0.0
N241 N 0.82771 0.94416 0.55008 0.0
N242 N 0.82772 0.05877 0.5383 0.0
C243 C 0.85338 0.03115 0.51228 0.0
C244 C 0.85326 0.96916 0.51692 0.0
C245 C 0.18149 0.53413 0.46704 0.0
C246 C 0.15947 0.5609 0.53368 0.0
C247 C 0.18308 0.47311 0.45939 0.0
C248 C 0.16366 0.43767 0.5223 0.0
H249 H 0.19678 0.56014 0.41848 0.0
H250 H 0.19827 0.45359 0.39872 0.0
S251 S 0.10117 0.48658 0.70268 0.0
N252 N 0.11599 0.54626 0.65349 0.0
N253 N 0.12234 0.43406 0.65331 0.0
C254 C 0.14296 0.46433 0.59411 0.0
C255 C 0.13974 0.52521 0.59474 0.0
C256 C 0.64903 0.504 0.14297 0.0
C257 C 0.64412 0.55512 0.07755 0.0
C258 C 0.64486 0.44852 0.09652 0.0
C259 C 0.63479 0.44163 0.98367 0.0
H260 H 0.65933 0.50647 0.22703 0.0
H261 H 0.65361 0.41161 0.14322 0.0
S262 S 0.60926 0.55955 0.78963 0.0
N263 N 0.62228 0.5942 0.90314 0.0
N264 N 0.61293 0.48982 0.81803 0.0
C265 C 0.62467 0.49194 0.92556 0.0
C266 C 0.62979 0.54877 0.97147 0.0
C267 C 0.38858 0.94473 0.91735 0.0
C268 C 0.39912 0.93877 0.02995 0.0
C269 C 0.38508 0.99976 0.86815 0.0
C270 C 0.39178 0.05087 0.93001 0.0
H271 H 0.3791 0.90793 0.87326 0.0
H272 H 0.37408 0.00231 0.78539 0.0
S273 S 0.42943 0.05567 0.21244 0.0
N274 N 0.42335 0.98619 0.19014 0.0
N275 N 0.4164 0.09005 0.09816 0.0
C276 C 0.4069 0.04457 0.03457 0.0
C277 C 0.41073 0.98823 0.08416 0.0
C278 C 0.35446 0.46659 0.99401 0.0
C279 C 0.38179 0.43825 0.00982 0.0
C280 C 0.35284 0.52769 0.99335 0.0
C281 C 0.3779 0.56096 0.01991 0.0
H282 H 0.33456 0.44169 0.9818 0.0
H283 H 0.33225 0.54894 0.97035 0.0
S284 S 0.45403 0.50621 0.07075 0.0
N285 N 0.43451 0.44814 0.04254 0.0
N286 N 0.43012 0.56031 0.06712 0.0
C287 C 0.40467 0.53215 0.04236 0.0
C288 C 0.40703 0.47171 0.02898 0.0
C289 C 0.68671 0.01575 0.89739 0.0
C290 C 0.67539 0.05936 0.96932 0.0
C291 C 0.68317 0.95682 0.92413 0.0
C292 C 0.66795 0.93936 0.02338 0.0
H293 H 0.69603 0.02704 0.81491 0.0
H294 H 0.68874 0.9251 0.85897 0.0
S295 S 0.64466 0.03508 0.26103 0.0
N296 N 0.65736 0.07963 0.16225 0.0
N297 N 0.64851 0.96943 0.2071 0.0
C298 C 0.66118 0.98201 0.10462 0.0
C299 C 0.66508 0.04201 0.07837 0.0
C300 C 0.1232 0.21745 0.12066 0.0
C301 C 0.1451 0.23996 0.19376 0.0
C302 C 0.12555 0.22186 1.00104 0.0
C303 C 0.14955 0.25004 0.95103 0.0
H304 H 0.10399 0.19669 0.15656 0.0
H305 H 0.10911 0.20121 0.94738 0.0
S306 S 0.21159 0.31968 0.10404 0.0
N307 N 0.19065 0.2941 0.20765 0.0
N308 N 0.19527 0.30145 0.98221 0.0
C309 C 0.1713 0.27343 0.02298 0.0
C310 C 0.16905 0.26863 0.1446 0.0
C311 C 0.87139 0.2268 0.13667 0.0
C312 C 0.88863 0.26891 0.19218 0.0
C313 C 0.87201 0.22039 0.01632 0.0
C314 C 0.8905 0.2547 0.9481 0.0
H315 H 0.85806 0.19754 0.18676 0.0
H316 H 0.85733 0.18961 0.97602 0.0
S317 S 0.93837 0.37311 0.05158 0.0
N318 N 0.92383 0.34629 0.16976 0.0
N319 N 0.92476 0.33468 0.94434 0.0
C320 C 0.90749 0.29715 1.00288 0.0
C321 C 0.90665 0.30404 0.12454 0.0
C322 C 0.17841 0.76631 0.98068 0.0
C323 C 0.15534 0.75466 0.05859 0.0
C324 C 0.17334 0.77074 0.86203 0.0
C325 C 0.14494 0.76421 0.81615 0.0
H326 H 0.20065 0.77327 0.01198 0.0
H327 H 0.19182 0.77939 0.80611 0.0
S328 S 0.07698 0.73113 0.98375 0.0
N329 N 0.10334 0.73492 0.08151 0.0
N330 N 0.09321 0.74358 0.85967 0.0
C331 C 0.12166 0.75146 0.89355 0.0
C332 C 0.12702 0.74631 0.01418 0.0
C333 C 0.90786 0.69837 0.88087 0.0
C334 C 0.89243 0.74165 0.82097 0.0
C335 C 0.90831 0.69713 1.00065 0.0
C336 C 0.89521 0.74178 0.06483 0.0
H337 H 0.92057 0.66642 0.8346 0.0
H338 H 0.91859 0.66049 0.04365 0.0
S339 S 0.8577 0.8724 0.94927 0.0
N340 N 0.86687 0.83449 0.83407 0.0
N341 N 0.86938 0.83427 0.06097 0.0
C342 C 0.88179 0.78814 0.00648 0.0
C343 C 0.8801 0.78781 0.88401 0.0
C344 C 0.64027 0.69983 0.53424 0.0
C345 C 0.64877 0.74643 0.46436 0.0
C346 C 0.6382 0.70607 0.65377 0.0
C347 C 0.6452 0.75859 0.70694 0.0
H348 H 0.63537 0.6582 0.49609 0.0
H349 H 0.63067 0.67009 0.70465 0.0
S350 S 0.6709 0.89189 0.56258 0.0
N351 N 0.66564 0.84551 0.4565 0.0
N352 N 0.6619 0.85743 0.68168 0.0
C353 C 0.65417 0.80517 0.63803 0.0
C354 C 0.65596 0.799 0.51638 0.0
C355 C 0.40575 0.80291 0.63285 0.0
C356 C 0.38943 0.76375 0.69821 0.0
C357 C 0.40636 0.79893 0.51303 0.0
C358 C 0.39131 0.75475 0.4547 0.0
H359 H 0.41854 0.83625 0.67495 0.0
H360 H 0.4178 0.83202 0.4651 0.0
S361 S 0.34781 0.638 0.58712 0.0
N362 N 0.35946 0.67705 0.69704 0.0
N363 N 0.36066 0.66976 0.47063 0.0
C364 C 0.37563 0.71428 0.519 0.0
C365 C 0.37465 0.71877 0.64113 0.0
C366 C 0.65249 0.19046 0.3891 0.0
C367 C 0.64423 0.2337 0.30965 0.0
C368 C 0.65229 0.20122 0.50728 0.0
C369 C 0.64378 0.25563 0.54893 0.0
H370 H 0.65939 0.14814 0.35957 0.0
H371 H 0.65996 0.16774 0.56569 0.0
S372 S 0.61858 0.38214 0.37702 0.0
N373 N 0.62609 0.33165 0.28065 0.0
N374 N 0.62598 0.3527 0.50332 0.0
C375 C 0.63508 0.29897 0.47043 0.0
C376 C 0.63535 0.28793 0.35038 0.0
C377 C 0.40255 0.19408 0.38486 0.0
C378 C 0.38755 0.23509 0.31672 0.0
C379 C 0.40291 0.19843 0.50498 0.0
C380 C 0.38932 0.24531 0.56136 0.0
H381 H 0.41459 0.15895 0.34479 0.0
H382 H 0.41332 0.16407 0.55444 0.0
S383 S 0.34876 0.36659 0.42358 0.0
N384 N 0.35953 0.32544 0.31506 0.0
N385 N 0.36078 0.33393 0.54132 0.0
C386 C 0.37467 0.2872 0.49477 0.0
C387 C 0.37372 0.28214 0.37238 0.0
C388 C 0.04064 0.20506 0.55799 0.0
C389 C 0.04938 0.26208 0.58007 0.0
C390 C 1.01064 0.19076 0.55117 0.0
C391 C 0.98808 0.23287 0.5659 0.0
H392 H 0.05699 0.17175 0.54042 0.0
H393 H 1.00519 0.14643 0.53038 0.0
S394 S 0.9993 0.38758 0.63649 0.0
N395 N 0.03295 0.36021 0.62628 0.0
N396 N 0.97684 0.33322 0.61125 0.0
C397 C 0.99654 0.28944 0.59341 0.0
C398 C 0.02706 0.304 0.6011 0.0
C399 C 1.00494 0.75629 0.34573 0.0
C400 C 0.98831 0.74919 0.44659 0.0
C401 C 0.03583 0.7486 0.34654 0.0
C402 C 0.05086 0.73507 0.449 0.0
H403 H 0.99406 0.76895 0.26645 0.0
H404 H 0.04791 0.75273 0.26694 0.0
S405 S 1.01767 0.71742 0.73762 0.0
N406 N 0.98931 0.73128 0.65201 0.0
N407 N 0.04704 0.71723 0.65423 0.0
C408 C 0.03443 0.72895 0.55045 0.0
C409 C 1.00322 0.73605 0.54921 0.0
C410 C 0.53834 0.71853 0.99841 0.0
C411 C 0.54959 0.7483 0.09363 0.0
C412 C 0.50796 0.71038 0.98601 0.0
C413 C 0.48779 0.73193 0.06801 0.0
H414 H 0.55291 0.70416 0.93029 0.0
H415 H 0.50011 0.68769 0.91043 0.0
S416 S 0.50664 0.80991 0.33549 0.0
N417 N 0.53875 0.7979 0.27268 0.0
N418 N 0.4814 0.78155 0.24994 0.0
C419 C 0.49882 0.76078 0.16444 0.0
C420 C 0.52981 0.76906 0.17715 0.0
C421 C 0.50802 0.28316 0.88323 0.0
C422 C 0.488 0.25173 0.95094 0.0
C423 C 0.53851 0.27106 0.8865 0.0
C424 C 0.54992 0.22765 0.95897 0.0
H425 H 0.50001 0.31775 0.82817 0.0
H426 H 0.55311 0.2952 0.83129 0.0
S427 S 0.50731 0.14205 0.17082 0.0
N428 N 0.4821 0.18115 0.10265 0.0
N429 N 0.53912 0.15888 0.11156 0.0
C430 C 0.53015 0.19811 0.0313 0.0
C431 C 0.49925 0.20994 0.02654 0.0
loop_
_geom_bond_atom_site_label_1
_geom_bond_atom_site_label_2
_geom_bond_distance
_geom_bond_site_symmetry_2
_ccdc_geom_bond_type
O0 Mn1 2.163 . S
O0 C14 1.244 . S
Mn1 O0 2.163 . S
Mn1 O4 2.160 . S
Mn1 O5 2.221 . S
Mn1 O7 2.163 . S
Mn1 O9 2.160 . S
Mn1 O19 2.221 . S
O2 Mn3 2.087 . S
O2 C14 1.256 . S
Mn3 O2 2.087 . S
Mn3 O10 2.089 . S
Mn3 O19 2.290 . S
Mn3 O20 2.251 . S
O4 Mn1 2.160 . S
O4 C15 1.239 . S
O5 Mn1 2.221 . S
O5 Mn6 2.290 . S
O5 C16 1.278 . S
Mn6 O5 2.290 . S
Mn6 O8 2.089 . S
Mn6 O11 2.251 . S
Mn6 O12 2.087 . S
O7 Mn1 2.163 . S
O7 C17 1.244 . S
O8 Mn6 2.089 . S
O8 C15 1.256 . S
O9 Mn1 2.160 . S
O9 C18 1.239 . S
O10 Mn3 2.089 . S
O10 C18 1.256 . S
O11 Mn6 2.251 . S
O11 C16 1.241 . S
O12 Mn6 2.087 . S
O12 C17 1.256 . S
C13 O19 1.278 . S
C13 O20 1.241 . S
C14 O0 1.244 . S
C14 O2 1.256 . S
C15 O4 1.239 . S
C15 O8 1.256 . S
C16 O5 1.278 . S
C16 O11 1.241 . S
C17 O7 1.244 . S
C17 O12 1.256 . S
C18 O9 1.239 . S
C18 O10 1.256 . S
O19 Mn1 2.221 . S
O19 Mn3 2.290 . S
O19 C13 1.278 . S
O20 Mn3 2.251 . S
O20 C13 1.241 . S
O21 Mn22 2.163 . S
O21 C35 1.244 . S
Mn22 O21 2.163 . S
Mn22 O25 2.160 . S
Mn22 O26 2.221 . S
Mn22 O28 2.163 . S
Mn22 O30 2.160 . S
Mn22 O40 2.221 . S
O23 Mn24 2.087 . S
O23 C35 1.256 . S
Mn24 O23 2.087 . S
Mn24 O31 2.089 . S
Mn24 O40 2.290 . S
Mn24 O41 2.251 . S
O25 Mn22 2.160 . S
O25 C36 1.239 . S
O26 Mn22 2.221 . S
O26 Mn27 2.290 . S
O26 C37 1.278 . S
Mn27 O26 2.290 . S
Mn27 O29 2.089 . S
Mn27 O32 2.251 . S
Mn27 O33 2.087 . S
O28 Mn22 2.163 . S
O28 C38 1.244 . S
O29 Mn27 2.089 . S
O29 C36 1.256 . S
O30 Mn22 2.160 . S
O30 C39 1.239 . S
O31 Mn24 2.089 . S
O31 C39 1.256 . S
O32 Mn27 2.251 . S
O32 C37 1.241 . S
O33 Mn27 2.087 . S
O33 C38 1.256 . S
C34 O40 1.278 . S
C34 O41 1.241 . S
C35 O21 1.244 . S
C35 O23 1.256 . S
C36 O25 1.239 . S
C36 O29 1.256 . S
C37 O26 1.278 . S
C37 O32 1.241 . S
C38 O28 1.244 . S
C38 O33 1.256 . S
C39 O30 1.239 . S
C39 O31 1.256 . S
O40 Mn22 2.221 . S
O40 Mn24 2.290 . S
O40 C34 1.278 . S
O41 Mn24 2.251 . S
O41 C34 1.241 . S
O42 Mn43 2.163 . S
O42 C56 1.244 . S
Mn43 O42 2.163 . S
Mn43 O46 2.160 . S
Mn43 O47 2.221 . S
Mn43 O49 2.163 . S
Mn43 O51 2.160 . S
Mn43 O61 2.221 . S
O44 Mn45 2.087 . S
O44 C56 1.256 . S
Mn45 O44 2.087 . S
Mn45 O52 2.089 . S
Mn45 O61 2.290 . S
Mn45 O62 2.251 . S
O46 Mn43 2.160 . S
O46 C57 1.239 . S
O47 Mn43 2.221 . S
O47 Mn48 2.290 . S
O47 C58 1.278 . S
Mn48 O47 2.290 . S
Mn48 O50 2.089 . S
Mn48 O53 2.251 . S
Mn48 O54 2.087 . S
O49 Mn43 2.163 . S
O49 C59 1.244 . S
O50 Mn48 2.089 . S
O50 C57 1.256 . S
O51 Mn43 2.160 . S
O51 C60 1.239 . S
O52 Mn45 2.089 . S
O52 C60 1.256 . S
O53 Mn48 2.251 . S
O53 C58 1.241 . S
O54 Mn48 2.087 . S
O54 C59 1.256 . S
C55 O61 1.278 . S
C55 O62 1.241 . S
C56 O42 1.244 . S
C56 O44 1.256 . S
C57 O46 1.239 . S
C57 O50 1.256 . S
C58 O47 1.278 . S
C58 O53 1.241 . S
C59 O49 1.244 . S
C59 O54 1.256 . S
C60 O51 1.239 . S
C60 O52 1.256 . S
O61 Mn43 2.221 . S
O61 Mn45 2.290 . S
O61 C55 1.278 . S
O62 Mn45 2.251 . S
O62 C55 1.241 . S
O63 Mn64 2.163 . S
O63 C77 1.244 . S
Mn64 O63 2.163 . S
Mn64 O67 2.160 . S
Mn64 O68 2.221 . S
Mn64 O70 2.163 . S
Mn64 O72 2.160 . S
Mn64 O82 2.221 . S
O65 Mn66 2.087 . S
O65 C77 1.256 . S
Mn66 O65 2.087 . S
Mn66 O73 2.089 . S
Mn66 O82 2.290 . S
Mn66 O83 2.251 . S
O67 Mn64 2.160 . S
O67 C78 1.239 . S
O68 Mn64 2.221 . S
O68 Mn69 2.290 . S
O68 C79 1.278 . S
Mn69 O68 2.290 . S
Mn69 O71 2.089 . S
Mn69 O74 2.251 . S
Mn69 O75 2.087 . S
O70 Mn64 2.163 . S
O70 C80 1.244 . S
O71 Mn69 2.089 . S
O71 C78 1.256 . S
O72 Mn64 2.160 . S
O72 C81 1.239 . S
O73 Mn66 2.089 . S
O73 C81 1.256 . S
O74 Mn69 2.251 . S
O74 C79 1.241 . S
O75 Mn69 2.087 . S
O75 C80 1.256 . S
C76 O82 1.278 . S
C76 O83 1.241 . S
C77 O63 1.244 . S
C77 O65 1.256 . S
C78 O67 1.239 . S
C78 O71 1.256 . S
C79 O68 1.278 . S
C79 O74 1.241 . S
C80 O70 1.244 . S
C80 O75 1.256 . S
C81 O72 1.239 . S
C81 O73 1.256 . S
O82 Mn64 2.221 . S
O82 Mn66 2.290 . S
O82 C76 1.278 . S
O83 Mn66 2.251 . S
O83 C76 1.241 . S
O84 Mn85 2.163 1_556 S
O84 C98 1.244 . S
Mn85 O84 2.163 1_554 S
Mn85 O88 2.160 . S
Mn85 O89 2.221 . S
Mn85 O91 2.163 . S
Mn85 O93 2.160 . S
Mn85 O103 2.221 . S
O86 Mn87 2.087 . S
O86 C98 1.256 . S
Mn87 O86 2.087 . S
Mn87 O94 2.089 . S
Mn87 O103 2.290 1_556 S
Mn87 O104 2.251 . S
O88 Mn85 2.160 . S
O88 C99 1.239 . S
O89 Mn85 2.221 . S
O89 Mn90 2.290 . S
O89 C100 1.278 . S
Mn90 O89 2.290 . S
Mn90 O92 2.089 . S
Mn90 O95 2.251 . S
Mn90 O96 2.087 . S
O91 Mn85 2.163 . S
O91 C101 1.244 . S
O92 Mn90 2.089 . S
O92 C99 1.256 . S
O93 Mn85 2.160 . S
O93 C102 1.239 . S
O94 Mn87 2.089 . S
O94 C102 1.256 1_556 S
O95 Mn90 2.251 . S
O95 C100 1.241 . S
O96 Mn90 2.087 . S
O96 C101 1.256 . S
C97 O103 1.278 . S
C97 O104 1.241 1_554 S
C98 O84 1.244 . S
C98 O86 1.256 . S
C99 O88 1.239 . S
C99 O92 1.256 . S
C100 O89 1.278 . S
C100 O95 1.241 . S
C101 O91 1.244 . S
C101 O96 1.256 . S
C102 O93 1.239 . S
C102 O94 1.256 1_554 S
O103 Mn85 2.221 . S
O103 Mn87 2.290 1_554 S
O103 C97 1.278 . S
O104 Mn87 2.251 . S
O104 C97 1.241 1_556 S
O105 Mn106 2.163 . S
O105 C119 1.244 . S
Mn106 O105 2.163 . S
Mn106 O109 2.160 . S
Mn106 O110 2.221 . S
Mn106 O112 2.163 1_554 S
Mn106 O114 2.160 . S
Mn106 O124 2.221 . S
O107 Mn108 2.087 . S
O107 C119 1.256 . S
Mn108 O107 2.087 . S
Mn108 O115 2.089 . S
Mn108 O124 2.290 . S
Mn108 O125 2.251 . S
O109 Mn106 2.160 . S
O109 C120 1.239 . S
O110 Mn106 2.221 . S
O110 Mn111 2.290 1_554 S
O110 C121 1.278 . S
Mn111 O110 2.290 1_556 S
Mn111 O113 2.089 . S
Mn111 O116 2.251 . S
Mn111 O117 2.087 . S
O112 Mn106 2.163 1_556 S
O112 C122 1.244 . S
O113 Mn111 2.089 . S
O113 C120 1.256 1_556 S
O114 Mn106 2.160 . S
O114 C123 1.239 . S
O115 Mn108 2.089 . S
O115 C123 1.256 . S
O116 Mn111 2.251 . S
O116 C121 1.241 1_556 S
O117 Mn111 2.087 . S
O117 C122 1.256 . S
C118 O124 1.278 . S
C118 O125 1.241 . S
C119 O105 1.244 . S
C119 O107 1.256 . S
C120 O109 1.239 . S
C120 O113 1.256 1_554 S
C121 O110 1.278 . S
C121 O116 1.241 1_554 S
C122 O112 1.244 . S
C122 O117 1.256 . S
C123 O114 1.239 . S
C123 O115 1.256 . S
O124 Mn106 2.221 . S
O124 Mn108 2.290 . S
O124 C118 1.278 . S
O125 Mn108 2.251 . S
O125 C118 1.241 . S
O126 Mn127 2.163 . S
O126 C140 1.244 . S
Mn127 O126 2.163 . S
Mn127 O130 2.160 . S
Mn127 O131 2.221 . S
Mn127 O133 2.163 1_556 S
Mn127 O135 2.160 . S
Mn127 O145 2.221 . S
O128 Mn129 2.087 . S
O128 C140 1.256 . S
Mn129 O128 2.087 . S
Mn129 O136 2.089 . S
Mn129 O145 2.290 . S
Mn129 O146 2.251 . S
O130 Mn127 2.160 . S
O130 C141 1.239 . S
O131 Mn127 2.221 . S
O131 Mn132 2.290 1_556 S
O131 C142 1.278 . S
Mn132 O131 2.290 1_554 S
Mn132 O134 2.089 . S
Mn132 O137 2.251 . S
Mn132 O138 2.087 . S
O133 Mn127 2.163 1_554 S
O133 C143 1.244 . S
O134 Mn132 2.089 . S
O134 C141 1.256 1_554 S
O135 Mn127 2.160 . S
O135 C144 1.239 . S
O136 Mn129 2.089 . S
O136 C144 1.256 . S
O137 Mn132 2.251 . S
O137 C142 1.241 1_554 S
O138 Mn132 2.087 . S
O138 C143 1.256 . S
C139 O145 1.278 . S
C139 O146 1.241 . S
C140 O126 1.244 . S
C140 O128 1.256 . S
C141 O130 1.239 . S
C141 O134 1.256 1_556 S
C142 O131 1.278 . S
C142 O137 1.241 1_556 S
C143 O133 1.244 . S
C143 O138 1.256 . S
C144 O135 1.239 . S
C144 O136 1.256 . S
O145 Mn127 2.221 . S
O145 Mn129 2.290 . S
O145 C139 1.278 . S
O146 Mn129 2.251 . S
O146 C139 1.241 . S
O147 Mn148 2.163 . S
O147 C161 1.244 . S
Mn148 O147 2.163 . S
Mn148 O151 2.160 . S
Mn148 O152 2.221 . S
Mn148 O154 2.163 1_556 S
Mn148 O156 2.160 . S
Mn148 O166 2.221 . S
O149 Mn150 2.087 . S
O149 C161 1.256 . S
Mn150 O149 2.087 . S
Mn150 O157 2.089 . S
Mn150 O166 2.290 . S
Mn150 O167 2.251 . S
O151 Mn148 2.160 . S
O151 C162 1.239 . S
O152 Mn148 2.221 . S
O152 Mn153 2.290 1_556 S
O152 C163 1.278 . S
Mn153 O152 2.290 1_554 S
Mn153 O155 2.089 . S
Mn153 O158 2.251 . S
Mn153 O159 2.087 . S
O154 Mn148 2.163 1_554 S
O154 C164 1.244 . S
O155 Mn153 2.089 . S
O155 C162 1.256 1_554 S
O156 Mn148 2.160 . S
O156 C165 1.239 . S
O157 Mn150 2.089 . S
O157 C165 1.256 . S
O158 Mn153 2.251 . S
O158 C163 1.241 1_554 S
O159 Mn153 2.087 . S
O159 C164 1.256 . S
C160 O166 1.278 . S
C160 O167 1.241 . S
C161 O147 1.244 . S
C161 O149 1.256 . S
C162 O151 1.239 . S
C162 O155 1.256 1_556 S
C163 O152 1.278 . S
C163 O158 1.241 1_556 S
C164 O154 1.244 . S
C164 O159 1.256 . S
C165 O156 1.239 . S
C165 O157 1.256 . S
O166 Mn148 2.221 . S
O166 Mn150 2.290 . S
O166 C160 1.278 . S
O167 Mn150 2.251 . S
O167 C160 1.241 . S
C168 C169 1.369 . S
C168 C170 1.419 . S
C168 H172 0.930 . S
C169 C168 1.369 . S
C169 C178 1.429 . S
C170 C168 1.419 . S
C170 C171 1.363 . S
C170 H173 0.929 . S
C171 C170 1.363 . S
C171 C177 1.428 . S
H172 C168 0.930 . S
H173 C170 0.929 . S
S174 N175 1.613 . S
S174 N176 1.610 . S
N175 S174 1.613 . S
N175 C178 1.350 . S
N176 S174 1.610 . S
N176 C177 1.351 . S
C177 C171 1.428 . S
C177 N176 1.351 . S
C177 C178 1.434 . S
C178 C169 1.429 . S
C178 N175 1.350 . S
C178 C177 1.434 . S
C179 C180 1.369 . S
C179 C181 1.419 . S
C179 H183 0.930 . S
C180 C179 1.369 . S
C180 C189 1.429 . S
C181 C179 1.419 . S
C181 C182 1.363 . S
C181 H184 0.929 . S
C182 C181 1.363 . S
C182 C188 1.428 . S
H183 C179 0.930 . S
H184 C181 0.929 . S
S185 N186 1.613 . S
S185 N187 1.610 . S
N186 S185 1.613 . S
N186 C189 1.350 . S
N187 S185 1.610 . S
N187 C188 1.351 . S
C188 C182 1.428 . S
C188 N187 1.351 . S
C188 C189 1.434 . S
C189 C180 1.429 . S
C189 N186 1.350 . S
C189 C188 1.434 . S
C190 C191 1.369 . S
C190 C192 1.419 . S
C190 H194 0.930 . S
C191 C190 1.369 . S
C191 C200 1.429 . S
C192 C190 1.419 . S
C192 C193 1.363 . S
C192 H195 0.929 . S
C193 C192 1.363 . S
C193 C199 1.428 . S
H194 C190 0.930 . S
H195 C192 0.929 . S
S196 N197 1.613 . S
S196 N198 1.610 . S
N197 S196 1.613 . S
N197 C200 1.350 . S
N198 S196 1.610 . S
N198 C199 1.351 . S
C199 C193 1.428 . S
C199 N198 1.351 . S
C199 C200 1.434 . S
C200 C191 1.429 . S
C200 N197 1.350 . S
C200 C199 1.434 . S
C201 C202 1.369 . S
C201 C203 1.419 . S
C201 H205 0.930 . S
C202 C201 1.369 . S
C202 C211 1.429 . S
C203 C201 1.419 . S
C203 C204 1.363 . S
C203 H206 0.929 . S
C204 C203 1.363 . S
C204 C210 1.428 . S
H205 C201 0.930 . S
H206 C203 0.929 . S
S207 N208 1.613 . S
S207 N209 1.610 . S
N208 S207 1.613 . S
N208 C211 1.350 . S
N209 S207 1.610 . S
N209 C210 1.351 . S
C210 C204 1.428 . S
C210 N209 1.351 . S
C210 C211 1.434 . S
C211 C202 1.429 . S
C211 N208 1.350 . S
C211 C210 1.434 . S
C212 C213 1.369 . S
C212 C214 1.419 1_565 S
C212 H216 0.930 . S
C213 C212 1.369 . S
C213 C222 1.429 . S
C214 C212 1.419 1_545 S
C214 C215 1.363 . S
C214 H217 0.929 . S
C215 C214 1.363 . S
C215 C221 1.428 . S
H216 C212 0.930 . S
H217 C214 0.929 . S
S218 N219 1.613 1_545 S
S218 N220 1.610 . S
N219 S218 1.613 1_565 S
N219 C222 1.350 . S
N220 S218 1.610 . S
N220 C221 1.351 . S
C221 C215 1.428 . S
C221 N220 1.351 . S
C221 C222 1.434 1_545 S
C222 C213 1.429 . S
C222 N219 1.350 . S
C222 C221 1.434 1_565 S
C223 C224 1.369 . S
C223 C225 1.419 . S
C223 H227 0.930 . S
C224 C223 1.369 . S
C224 C233 1.429 . S
C225 C223 1.419 . S
C225 C226 1.363 . S
C225 H228 0.929 . S
C226 C225 1.363 . S
C226 C232 1.428 . S
H227 C223 0.930 . S
H228 C225 0.929 . S
S229 N230 1.613 . S
S229 N231 1.610 . S
N230 S229 1.613 . S
N230 C233 1.350 . S
N231 S229 1.610 . S
N231 C232 1.351 . S
C232 C226 1.428 . S
C232 N231 1.351 . S
C232 C233 1.434 . S
C233 C224 1.429 . S
C233 N230 1.350 . S
C233 C232 1.434 . S
C234 C235 1.369 . S
C234 C236 1.419 1_565 S
C234 H238 0.930 . S
C235 C234 1.369 . S
C235 C244 1.429 . S
C236 C234 1.419 1_545 S
C236 C237 1.363 . S
C236 H239 0.929 . S
C237 C236 1.363 . S
C237 C243 1.428 . S
H238 C234 0.930 . S
H239 C236 0.929 . S
S240 N241 1.613 . S
S240 N242 1.610 1_565 S
N241 S240 1.613 . S
N241 C244 1.350 . S
N242 S240 1.610 1_545 S
N242 C243 1.351 . S
C243 C237 1.428 . S
C243 N242 1.351 . S
C243 C244 1.434 1_545 S
C244 C235 1.429 . S
C244 N241 1.350 . S
C244 C243 1.434 1_565 S
C245 C246 1.369 . S
C245 C247 1.419 . S
C245 H249 0.930 . S
C246 C245 1.369 . S
C246 C255 1.429 . S
C247 C245 1.419 . S
C247 C248 1.363 . S
C247 H250 0.929 . S
C248 C247 1.363 . S
C248 C254 1.428 . S
H249 C245 0.930 . S
H250 C247 0.929 . S
S251 N252 1.613 . S
S251 N253 1.610 . S
N252 S251 1.613 . S
N252 C255 1.350 . S
N253 S251 1.610 . S
N253 C254 1.351 . S
C254 C248 1.428 . S
C254 N253 1.351 . S
C254 C255 1.434 . S
C255 C246 1.429 . S
C255 N252 1.350 . S
C255 C254 1.434 . S
C256 C257 1.369 . S
C256 C258 1.419 . S
C256 H260 0.930 . S
C257 C256 1.369 . S
C257 C266 1.429 1_554 S
C258 C256 1.419 . S
C258 C259 1.363 1_554 S
C258 H261 0.929 . S
C259 C258 1.363 1_556 S
C259 C265 1.428 . S
H260 C256 0.930 . S
H261 C258 0.929 . S
S262 N263 1.613 . S
S262 N264 1.610 . S
N263 S262 1.613 . S
N263 C266 1.350 . S
N264 S262 1.610 . S
N264 C265 1.351 . S
C265 C259 1.428 . S
C265 N264 1.351 . S
C265 C266 1.434 . S
C266 C257 1.429 1_556 S
C266 N263 1.350 . S
C266 C265 1.434 . S
C267 C268 1.369 1_556 S
C267 C269 1.419 1_565 S
C267 H271 0.930 . S
C268 C267 1.369 1_554 S
C268 C277 1.429 . S
C269 C267 1.419 1_545 S
C269 C270 1.363 . S
C269 H272 0.929 . S
C270 C269 1.363 . S
C270 C276 1.428 1_556 S
H271 C267 0.930 . S
H272 C269 0.929 . S
S273 N274 1.613 1_545 S
S273 N275 1.610 . S
N274 S273 1.613 1_565 S
N274 C277 1.350 . S
N275 S273 1.610 . S
N275 C276 1.351 . S
C276 C270 1.428 1_554 S
C276 N275 1.351 . S
C276 C277 1.434 1_545 S
C277 C268 1.429 . S
C277 N274 1.350 . S
C277 C276 1.434 1_565 S
C278 C279 1.369 . S
C278 C280 1.419 1_556 S
C278 H282 0.930 . S
C279 C278 1.369 . S
C279 C288 1.429 1_556 S
C280 C278 1.419 1_554 S
C280 C281 1.363 . S
C280 H283 0.929 . S
C281 C280 1.363 . S
C281 C287 1.428 . S
H282 C278 0.930 . S
H283 C280 0.929 . S
S284 N285 1.613 . S
S284 N286 1.610 . S
N285 S284 1.613 . S
N285 C288 1.350 . S
N286 S284 1.610 . S
N286 C287 1.351 . S
C287 C281 1.428 . S
C287 N286 1.351 . S
C287 C288 1.434 . S
C288 C279 1.429 1_554 S
C288 N285 1.350 . S
C288 C287 1.434 . S
C289 C290 1.369 . S
C289 C291 1.419 1_545 S
C289 H293 0.930 . S
C290 C289 1.369 . S
C290 C299 1.429 1_556 S
C291 C289 1.419 1_565 S
C291 C292 1.363 1_556 S
C291 H294 0.929 . S
C292 C291 1.363 1_554 S
C292 C298 1.428 . S
H293 C289 0.930 . S
H294 C291 0.929 . S
S295 N296 1.613 . S
S295 N297 1.610 1_545 S
N296 S295 1.613 . S
N296 C299 1.350 . S
N297 S295 1.610 1_565 S
N297 C298 1.351 . S
C298 C292 1.428 . S
C298 N297 1.351 . S
C298 C299 1.434 1_565 S
C299 C290 1.429 1_554 S
C299 N296 1.350 . S
C299 C298 1.434 1_545 S
C300 C301 1.369 . S
C300 C302 1.419 . S
C300 H304 0.930 . S
C301 C300 1.369 . S
C301 C310 1.429 . S
C302 C300 1.419 . S
C302 C303 1.363 1_554 S
C302 H305 0.929 1_554 S
C303 C302 1.363 1_556 S
C303 C309 1.428 1_556 S
H304 C300 0.930 . S
H305 C302 0.929 1_556 S
S306 N307 1.613 . S
S306 N308 1.610 1_554 S
N307 S306 1.613 . S
N307 C310 1.350 . S
N308 S306 1.610 1_556 S
N308 C309 1.351 1_556 S
C309 C303 1.428 1_554 S
C309 N308 1.351 1_554 S
C309 C310 1.434 . S
C310 C301 1.429 . S
C310 N307 1.350 . S
C310 C309 1.434 . S
C311 C312 1.369 . S
C311 C313 1.419 . S
C311 H315 0.930 . S
C312 C311 1.369 . S
C312 C321 1.429 . S
C313 C311 1.419 . S
C313 C314 1.363 1_554 S
C313 H316 0.929 1_554 S
C314 C313 1.363 1_556 S
C314 C320 1.428 1_556 S
H315 C311 0.930 . S
H316 C313 0.929 1_556 S
S317 N318 1.613 . S
S317 N319 1.610 1_554 S
N318 S317 1.613 . S
N318 C321 1.350 . S
N319 S317 1.610 1_556 S
N319 C320 1.351 1_556 S
C320 C314 1.428 1_554 S
C320 N319 1.351 1_554 S
C320 C321 1.434 . S
C321 C312 1.429 . S
C321 N318 1.350 . S
C321 C320 1.434 . S
C322 C323 1.369 1_556 S
C322 C324 1.419 . S
C322 H326 0.930 1_556 S
C323 C322 1.369 1_554 S
C323 C332 1.429 1_554 S
C324 C322 1.419 . S
C324 C325 1.363 . S
C324 H327 0.929 . S
C325 C324 1.363 . S
C325 C331 1.428 . S
H326 C322 0.930 1_554 S
H327 C324 0.929 . S
S328 N329 1.613 1_556 S
S328 N330 1.610 . S
N329 S328 1.613 1_554 S
N329 C332 1.350 1_554 S
N330 S328 1.610 . S
N330 C331 1.351 . S
C331 C325 1.428 . S
C331 N330 1.351 . S
C331 C332 1.434 . S
C332 C323 1.429 1_556 S
C332 N329 1.350 1_556 S
C332 C331 1.434 . S
C333 C334 1.369 . S
C333 C335 1.419 . S
C333 H337 0.930 . S
C334 C333 1.369 . S
C334 C343 1.429 . S
C335 C333 1.419 . S
C335 C336 1.363 1_556 S
C335 H338 0.929 1_556 S
C336 C335 1.363 1_554 S
C336 C342 1.428 1_554 S
H337 C333 0.930 . S
H338 C335 0.929 1_554 S
S339 N340 1.613 . S
S339 N341 1.610 1_556 S
N340 S339 1.613 . S
N340 C343 1.350 . S
N341 S339 1.610 1_554 S
N341 C342 1.351 1_554 S
C342 C336 1.428 1_556 S
C342 N341 1.351 1_556 S
C342 C343 1.434 . S
C343 C334 1.429 . S
C343 N340 1.350 . S
C343 C342 1.434 . S
C344 C345 1.369 . S
C344 C346 1.419 . S
C344 H348 0.930 . S
C345 C344 1.369 . S
C345 C354 1.429 . S
C346 C344 1.419 . S
C346 C347 1.363 . S
C346 H349 0.929 . S
C347 C346 1.363 . S
C347 C353 1.428 . S
H348 C344 0.930 . S
H349 C346 0.929 . S
S350 N351 1.613 . S
S350 N352 1.610 . S
N351 S350 1.613 . S
N351 C354 1.350 . S
N352 S350 1.610 . S
N352 C353 1.351 . S
C353 C347 1.428 . S
C353 N352 1.351 . S
C353 C354 1.434 . S
C354 C345 1.429 . S
C354 N351 1.350 . S
C354 C353 1.434 . S
C355 C356 1.369 . S
C355 C357 1.419 . S
C355 H359 0.930 . S
C356 C355 1.369 . S
C356 C365 1.429 . S
C357 C355 1.419 . S
C357 C358 1.363 . S
C357 H360 0.929 . S
C358 C357 1.363 . S
C358 C364 1.428 . S
H359 C355 0.930 . S
H360 C357 0.929 . S
S361 N362 1.613 . S
S361 N363 1.610 . S
N362 S361 1.613 . S
N362 C365 1.350 . S
N363 S361 1.610 . S
N363 C364 1.351 . S
C364 C358 1.428 . S
C364 N363 1.351 . S
C364 C365 1.434 . S
C365 C356 1.429 . S
C365 N362 1.350 . S
C365 C364 1.434 . S
C366 C367 1.369 . S
C366 C368 1.419 . S
C366 H370 0.930 . S
C367 C366 1.369 . S
C367 C376 1.429 . S
C368 C366 1.419 . S
C368 C369 1.363 . S
C368 H371 0.929 . S
C369 C368 1.363 . S
C369 C375 1.428 . S
H370 C366 0.930 . S
H371 C368 0.929 . S
S372 N373 1.613 . S
S372 N374 1.610 . S
N373 S372 1.613 . S
N373 C376 1.350 . S
N374 S372 1.610 . S
N374 C375 1.351 . S
C375 C369 1.428 . S
C375 N374 1.351 . S
C375 C376 1.434 . S
C376 C367 1.429 . S
C376 N373 1.350 . S
C376 C375 1.434 . S
C377 C378 1.369 . S
C377 C379 1.419 . S
C377 H381 0.930 . S
C378 C377 1.369 . S
C378 C387 1.429 . S
C379 C377 1.419 . S
C379 C380 1.363 . S
C379 H382 0.929 . S
C380 C379 1.363 . S
C380 C386 1.428 . S
H381 C377 0.930 . S
H382 C379 0.929 . S
S383 N384 1.613 . S
S383 N385 1.610 . S
N384 S383 1.613 . S
N384 C387 1.350 . S
N385 S383 1.610 . S
N385 C386 1.351 . S
C386 C380 1.428 . S
C386 N385 1.351 . S
C386 C387 1.434 . S
C387 C378 1.429 . S
C387 N384 1.350 . S
C387 C386 1.434 . S
C388 C389 1.369 . S
C388 C390 1.419 1_455 S
C388 H392 0.930 . S
C389 C388 1.369 . S
C389 C398 1.429 . S
C390 C388 1.419 1_655 S
C390 C391 1.363 . S
C390 H393 0.929 . S
C391 C390 1.363 . S
C391 C397 1.428 . S
H392 C388 0.930 . S
H393 C390 0.929 . S
S394 N395 1.613 . S
S394 N396 1.610 1_455 S
N395 S394 1.613 . S
N395 C398 1.350 . S
N396 S394 1.610 1_655 S
N396 C397 1.351 . S
C397 C391 1.428 . S
C397 N396 1.351 . S
C397 C398 1.434 1_655 S
C398 C389 1.429 . S
C398 N395 1.350 . S
C398 C397 1.434 1_455 S
C399 C400 1.369 . S
C399 C401 1.419 1_655 S
C399 H403 0.930 . S
C400 C399 1.369 . S
C400 C409 1.429 . S
C401 C399 1.419 1_455 S
C401 C402 1.363 . S
C401 H404 0.929 . S
C402 C401 1.363 . S
C402 C408 1.428 . S
H403 C399 0.930 . S
H404 C401 0.929 . S
S405 N406 1.600 1_455 S
S405 N407 1.623 . S
N406 S405 1.600 1_655 S
N406 C409 1.350 . S
N407 S405 1.623 . S
N407 C408 1.351 . S
C408 C402 1.428 . S
C408 N407 1.351 . S
C408 C409 1.434 1_455 S
C409 C400 1.429 . S
C409 N406 1.350 . S
C409 C408 1.434 1_655 S
C410 C411 1.369 1_556 S
C410 C412 1.419 . S
C410 H414 0.930 . S
C411 C410 1.369 1_554 S
C411 C420 1.429 . S
C412 C410 1.419 . S
C412 C413 1.363 1_556 S
C412 H415 0.929 . S
C413 C412 1.363 1_554 S
C413 C419 1.428 . S
H414 C410 0.930 . S
H415 C412 0.929 . S
S416 N417 1.613 . S
S416 N418 1.610 . S
N417 S416 1.613 . S
N417 C420 1.350 . S
N418 S416 1.610 . S
N418 C419 1.351 . S
C419 C413 1.428 . S
C419 N418 1.351 . S
C419 C420 1.434 . S
C420 C411 1.429 . S
C420 N417 1.350 . S
C420 C419 1.434 . S
C421 C422 1.369 . S
C421 C423 1.419 . S
C421 H425 0.930 . S
C422 C421 1.369 . S
C422 C431 1.429 1_556 S
C423 C421 1.419 . S
C423 C424 1.363 . S
C423 H426 0.929 . S
C424 C423 1.363 . S
C424 C430 1.428 1_556 S
H425 C421 0.930 . S
H426 C423 0.929 . S
S427 N428 1.613 . S
S427 N429 1.610 . S
N428 S427 1.613 . S
N428 C431 1.350 . S
N429 S427 1.610 . S
N429 C430 1.351 . S
C430 C424 1.428 1_554 S
C430 N429 1.351 . S
C430 C431 1.434 . S
C431 C422 1.429 1_554 S
C431 N428 1.350 . S
C431 C430 1.434 . S
C169 C17 1.600 . S
C171 C161 1.600 . S
C180 C140 1.592 . S
C182 C35 1.592 . S
C191 C119 1.601 . S
C193 C56 1.600 . S
C202 C101 1.595 . S
C204 C77 1.592 . S
C213 C55 1.453 . S
C215 C16 1.464 . S
C224 C34 1.455 . S
C226 C76 1.466 . S
C235 C79 1.127 . S
C237 C37 1.123 . S
C246 C58 1.107 . S
C248 C13 1.123 . S
C257 C100 1.468 . S
C259 C139 1.462 . S
C268 C118 1.458 . S
C270 C160 1.467 . S
C279 C163 1.108 . S
C281 C121 1.118 . S
C290 C142 1.109 . S
C292 C97 1.125 . S
C301 C14 1.286 . S
C303 C15 1.301 . S
C312 C38 1.297 . S
C314 C39 1.295 . S
C323 C60 1.304 . S
C325 C59 1.287 . S
C334 C80 1.284 . S
C336 C81 1.303 . S
C345 C99 1.301 . S
C347 C98 1.287 . S
C356 C122 1.284 . S
C358 C123 1.302 . S
C367 C143 1.297 . S
C369 C144 1.294 . S
C378 C164 1.284 . S
C380 C165 1.303 . S
C389 C18 1.559 . S
C391 C36 1.565 . S
C400 C78 1.560 . S
C402 C57 1.561 . S
C411 C102 1.563 . S
C413 C120 1.563 . S
C422 C162 1.562 . S
C424 C141 1.559 . S
