# Generated by pormake.
# Topology uoz, (4)-cn, num edge types: 1
# Building blocks:
#     Node 0, Type 0, BuildingBlock: QUQFOY_clean_sbu_1, # of connection points: 4
#     Node 1, Type 0, BuildingBlock: QUQFOY_clean_sbu_1, # of connection points: 4
#     Node 2, Type 0, BuildingBlock: QUQFOY_clean_sbu_1, # of connection points: 4
#     Node 3, Type 0, BuildingBlock: QUQFOY_clean_sbu_1, # of connection points: 4
#     Node 4, Type 0, BuildingBlock: QUQFOY_clean_sbu_1, # of connection points: 4
#     Node 5, Type 0, BuildingBlock: QUQFOY_clean_sbu_1, # of connection points: 4
#     Node 6, Type 0, BuildingBlock: QUQFOY_clean_sbu_1, # of connection points: 4
#     Node 7, Type 0, BuildingBlock: QUQFOY_clean_sbu_1, # of connection points: 4
#     Node 8, Type 0, BuildingBlock: QUQFOY_clean_sbu_1, # of connection points: 4
#     Node 9, Type 0, BuildingBlock: QUQFOY_clean_sbu_1, # of connection points: 4
#     Node 10, Type 0, BuildingBlock: QUQFOY_clean_sbu_1, # of connection points: 4
#     Node 11, Type 0, BuildingBlock: QUQFOY_clean_sbu_1, # of connection points: 4
#     Node 12, Type 0, BuildingBlock: QUQFOY_clean_sbu_1, # of connection points: 4
#     Node 13, Type 0, BuildingBlock: QUQFOY_clean_sbu_1, # of connection points: 4
#     Node 14, Type 0, BuildingBlock: QUQFOY_clean_sbu_1, # of connection points: 4
#     Node 15, Type 0, BuildingBlock: QUQFOY_clean_sbu_1, # of connection points: 4
#     Edge 16, Type (0, 0), BuildingBlock: KIFKEQ_clean_linker_1, # of connection points: 2
#     Edge 17, Type (0, 0), BuildingBlock: KIFKEQ_clean_linker_1, # of connection points: 2
#     Edge 18, Type (0, 0), BuildingBlock: KIFKEQ_clean_linker_1, # of connection points: 2
#     Edge 19, Type (0, 0), BuildingBlock: KIFKEQ_clean_linker_1, # of connection points: 2
#     Edge 20, Type (0, 0), BuildingBlock: KIFKEQ_clean_linker_1, # of connection points: 2
#     Edge 21, Type (0, 0), BuildingBlock: KIFKEQ_clean_linker_1, # of connection points: 2
#     Edge 22, Type (0, 0), BuildingBlock: KIFKEQ_clean_linker_1, # of connection points: 2
#     Edge 23, Type (0, 0), BuildingBlock: KIFKEQ_clean_linker_1, # of connection points: 2
#     Edge 24, Type (0, 0), BuildingBlock: KIFKEQ_clean_linker_1, # of connection points: 2
#     Edge 25, Type (0, 0), BuildingBlock: KIFKEQ_clean_linker_1, # of connection points: 2
#     Edge 26, Type (0, 0), BuildingBlock: KIFKEQ_clean_linker_1, # of connection points: 2
#     Edge 27, Type (0, 0), BuildingBlock: KIFKEQ_clean_linker_1, # of connection points: 2
#     Edge 28, Type (0, 0), BuildingBlock: KIFKEQ_clean_linker_1, # of connection points: 2
#     Edge 29, Type (0, 0), BuildingBlock: KIFKEQ_clean_linker_1, # of connection points: 2
#     Edge 30, Type (0, 0), BuildingBlock: KIFKEQ_clean_linker_1, # of connection points: 2
#     Edge 31, Type (0, 0), BuildingBlock: KIFKEQ_clean_linker_1, # of connection points: 2
#     Edge 32, Type (0, 0), BuildingBlock: KIFKEQ_clean_linker_1, # of connection points: 2
#     Edge 33, Type (0, 0), BuildingBlock: KIFKEQ_clean_linker_1, # of connection points: 2
#     Edge 34, Type (0, 0), BuildingBlock: KIFKEQ_clean_linker_1, # of connection points: 2
#     Edge 35, Type (0, 0), BuildingBlock: KIFKEQ_clean_linker_1, # of connection points: 2
#     Edge 36, Type (0, 0), BuildingBlock: KIFKEQ_clean_linker_1, # of connection points: 2
#     Edge 37, Type (0, 0), BuildingBlock: KIFKEQ_clean_linker_1, # of connection points: 2
#     Edge 38, Type (0, 0), BuildingBlock: KIFKEQ_clean_linker_1, # of connection points: 2
#     Edge 39, Type (0, 0), BuildingBlock: KIFKEQ_clean_linker_1, # of connection points: 2
#     Edge 40, Type (0, 0), BuildingBlock: KIFKEQ_clean_linker_1, # of connection points: 2
#     Edge 41, Type (0, 0), BuildingBlock: KIFKEQ_clean_linker_1, # of connection points: 2
#     Edge 42, Type (0, 0), BuildingBlock: KIFKEQ_clean_linker_1, # of connection points: 2
#     Edge 43, Type (0, 0), BuildingBlock: KIFKEQ_clean_linker_1, # of connection points: 2
#     Edge 44, Type (0, 0), BuildingBlock: KIFKEQ_clean_linker_1, # of connection points: 2
#     Edge 45, Type (0, 0), BuildingBlock: KIFKEQ_clean_linker_1, # of connection points: 2
#     Edge 46, Type (0, 0), BuildingBlock: KIFKEQ_clean_linker_1, # of connection points: 2
#     Edge 47, Type (0, 0), BuildingBlock: KIFKEQ_clean_linker_1, # of connection points: 2
# Relax obj value: 0.170
# Max RMSD: 0.208
# Mean RMSD: 0.208
data_MOF--net-uoz--node1-QUQFOY_clean_sbu_1--edge1-KIFKEQ_clean_linker_1
_symmetry_space_group_name_H-M    P1
_symmetry_Int_Tables_number       1
_symmetry_cell_setting            triclinic
loop_
_symmetry_equiv_pos_as_xyz
'x, y, z'
_cell_length_a     65.538367
_cell_length_b     65.603953
_cell_length_c     22.86872
_cell_angle_alpha  89.970651
_cell_angle_beta   89.956221
_cell_angle_gamma 90.051092
loop_
_atom_site_label
_atom_site_type_symbol
_atom_site_fract_x
_atom_site_fract_y
_atom_site_fract_z
_atom_type_partial_charge
O0 O 0.08743 0.54987 0.25854 0.0
Cd1 Cd 0.09159 0.56866 0.32859 0.0
Cd2 Cd 0.05742 0.5891 0.26878 0.0
O3 O 0.0564 0.56004 0.23583 0.0
O4 O 0.1093 0.55184 0.38007 0.0
O5 O 0.07777 0.56054 0.40374 0.0
C6 C 0.09406 0.55023 0.41545 0.0
C7 C 0.02701 0.60672 0.24927 0.0
C8 C 0.07101 0.54755 0.2301 0.0
C9 C 0.10062 0.60834 0.2744 0.0
O10 O 0.0827 0.60717 0.2534 0.0
O11 O 0.10696 0.5953 0.31128 0.0
O12 O 0.0391 0.60097 0.20841 0.0
O13 O 0.03206 0.60257 0.30245 0.0
O14 O 0.75901 0.77201 0.49157 0.0
Cd15 Cd 0.7399 0.77286 0.56218 0.0
Cd16 Cd 0.72055 0.74077 0.49921 0.0
O17 O 0.74907 0.7416 0.46222 0.0
O18 O 0.75546 0.78789 0.62308 0.0
O19 O 0.74798 0.75502 0.62976 0.0
C20 C 0.75734 0.7708 0.65044 0.0
C21 C 0.70397 0.70944 0.48566 0.0
C22 C 0.76135 0.75653 0.45914 0.0
C23 C 0.69979 0.78244 0.51125 0.0
O24 O 0.70127 0.76518 0.48638 0.0
O25 O 0.71282 0.788 0.54919 0.0
O26 O 0.70834 0.72122 0.44264 0.0
O27 O 0.7091 0.71528 0.53747 0.0
O28 O 0.53936 0.43571 0.7701 0.0
Cd29 Cd 0.53858 0.41543 0.8386 0.0
Cd30 Cd 0.57049 0.40013 0.76863 0.0
O31 O 0.5719 0.43077 0.75253 0.0
O32 O 0.52079 0.42987 0.89554 0.0
O33 O 0.55354 0.42396 0.91151 0.0
C34 C 0.53672 0.43258 0.92766 0.0
C35 C 0.60081 0.38291 0.74625 0.0
C36 C 0.55592 0.4414 0.7465 0.0
C37 C 0.52932 0.37888 0.77317 0.0
O38 O 0.54485 0.38402 0.74331 0.0
O39 O 0.52558 0.3874 0.8219 0.0
O40 O 0.58972 0.39113 0.70647 0.0
O41 O 0.59483 0.38452 0.79982 0.0
O42 O 0.86701 0.21631 0.98413 0.0
Cd43 Cd 0.88502 0.21541 0.0571 0.0
Cd44 Cd 0.90504 0.24846 -0.00159 0.0
O45 O 0.87756 0.24669 0.95605 0.0
O46 O 0.86872 0.20061 0.11704 0.0
O47 O 0.87622 0.2335 0.12334 0.0
C48 C 0.86662 0.2178 0.14378 0.0
C49 C 0.92118 0.28 0.98394 0.0
C50 C 0.86543 0.23172 0.95096 0.0
C51 C 0.92647 0.20713 0.01274 0.0
O52 O 0.92523 0.22466 0.98941 0.0
O53 O 0.91259 0.20076 0.04707 0.0
O54 O 0.91778 0.26762 0.94171 0.0
O55 O 0.91531 0.27468 0.03558 0.0
O56 O 0.08659 0.44151 0.87988 0.0
Cd57 Cd 0.0909 0.42207 0.81132 0.0
Cd58 Cd 0.05749 0.40161 0.8725 0.0
O59 O 0.05621 0.43048 0.90648 0.0
O60 O 0.10876 0.43857 0.75921 0.0
O61 O 0.07735 0.42956 0.73522 0.0
C62 C 0.09367 0.43985 0.72332 0.0
C63 C 0.02676 0.38393 0.88654 0.0
C64 C 0.07047 0.44348 0.90997 0.0
C65 C 0.10062 0.38285 0.86835 0.0
O66 O 0.08273 0.38377 0.88972 0.0
O67 O 0.10658 0.39577 0.83052 0.0
O68 O 0.03816 0.38924 0.92946 0.0
O69 O 0.03274 0.38853 0.83442 0.0
O70 O 0.86927 0.7726 0.10906 0.0
Cd71 Cd 0.88786 0.77352 0.03741 0.0
Cd72 Cd 0.90816 0.74107 0.10124 0.0
O73 O 0.87971 0.74238 0.13868 0.0
O74 O 0.87184 0.78842 0.97726 0.0
O75 O 0.87941 0.75558 0.97043 0.0
C76 C 0.86986 0.7713 0.95011 0.0
C77 C 0.92475 0.71034 0.12338 0.0
C78 C 0.8673 0.75717 0.14196 0.0
C79 C 0.92866 0.783 0.08441 0.0
O80 O 0.92758 0.76567 0.10904 0.0
O81 O 0.91499 0.78875 0.04864 0.0
O82 O 0.92034 0.72348 0.16286 0.0
O83 O 0.91976 0.71446 0.07014 0.0
O84 O 0.53918 0.54623 0.39314 0.0
Cd85 Cd 0.53582 0.56333 0.31904 0.0
Cd86 Cd 0.56868 0.58635 0.37776 0.0
O87 O 0.56818 0.55954 0.42377 0.0
O88 O 0.51898 0.54513 0.2689 0.0
O89 O 0.55061 0.55395 0.24654 0.0
C90 C 0.53457 0.54321 0.23495 0.0
C91 C 0.59948 0.60397 0.39162 0.0
C92 C 0.55422 0.54623 0.42796 0.0
C93 C 0.52585 0.60503 0.36023 0.0
O94 O 0.54363 0.60526 0.38238 0.0
O95 O 0.51992 0.59016 0.32887 0.0
O96 O 0.58683 0.60093 0.43351 0.0
O97 O 0.59475 0.59712 0.34055 0.0
O98 O 0.75614 0.21712 0.60312 0.0
Cd99 Cd 0.73676 0.21773 0.53274 0.0
Cd100 Cd 0.72116 0.25043 0.59726 0.0
O101 O 0.75114 0.24957 0.62231 0.0
O102 O 0.75117 0.20252 0.46992 0.0
O103 O 0.74571 0.23586 0.46678 0.0
C104 C 0.75408 0.21982 0.44432 0.0
C105 C 0.70511 0.28157 0.61759 0.0
C106 C 0.76135 0.23334 0.62929 0.0
C107 C 0.69807 0.21005 0.59053 0.0
O108 O 0.7024 0.22626 0.61821 0.0
O109 O 0.70843 0.20489 0.54593 0.0
O110 O 0.71172 0.26985 0.65828 0.0
O111 O 0.7079 0.2759 0.56418 0.0
O112 O 0.37214 0.27464 0.58632 0.0
Cd113 Cd 0.39429 0.27095 0.52334 0.0
Cd114 Cd 0.40466 0.24125 0.5987 0.0
O115 O 0.37367 0.2422 0.60919 0.0
O116 O 0.38344 0.28514 0.45323 0.0
O117 O 0.38658 0.25155 0.45917 0.0
C118 C 0.38015 0.26738 0.43092 0.0
C119 C 0.42048 0.21002 0.61775 0.0
C120 C 0.36431 0.25909 0.61057 0.0
C121 C 0.42926 0.27979 0.59469 0.0
O122 O 0.42163 0.26592 0.62672 0.0
O123 O 0.42289 0.28228 0.54272 0.0
O124 O 0.41209 0.22054 0.6586 0.0
O125 O 0.41951 0.21698 0.565 0.0
O126 O 0.25838 0.72609 0.11279 0.0
Cd127 Cd 0.23897 0.72044 0.04483 0.0
Cd128 Cd 0.21504 0.75272 0.11149 0.0
O129 O 0.24264 0.75232 0.15314 0.0
O130 O 0.25628 0.70286 0.99421 0.0
O131 O 0.24618 0.73365 0.96787 0.0
C132 C 0.25708 0.71766 0.95726 0.0
C133 C 0.19728 0.78275 0.13386 0.0
C134 C 0.25766 0.74021 0.15049 0.0
C135 C 0.19803 0.70916 0.0944 0.0
O136 O 0.19697 0.72711 0.115 0.0
O137 O 0.2131 0.70358 0.06316 0.0
O138 O 0.2011 0.76916 0.17259 0.0
O139 O 0.2032 0.77932 0.08099 0.0
O140 O 0.2626 0.27491 0.96868 0.0
Cd141 Cd 0.24752 0.27436 0.04715 0.0
Cd142 Cd 0.22292 0.24377 0.98635 0.0
O143 O 0.24628 0.24899 0.92866 0.0
O144 O 0.26622 0.28839 0.10267 0.0
O145 O 0.25857 0.2556 0.10934 0.0
C146 C 0.26891 0.27106 0.1281 0.0
C147 C 0.20677 0.21236 0.96833 0.0
C148 C 0.26004 0.26258 0.92658 0.0
C149 C 0.20375 0.28428 0.02515 0.0
O150 O 0.20251 0.26705 0.0001 0.0
O151 O 0.22023 0.28997 0.04947 0.0
O152 O 0.20586 0.22729 0.93224 0.0
O153 O 0.21692 0.2151 0.01598 0.0
O154 O 0.36622 0.72666 0.4928 0.0
Cd155 Cd 0.38552 0.72106 0.56113 0.0
Cd156 Cd 0.40959 0.75281 0.49411 0.0
O157 O 0.3822 0.75259 0.45144 0.0
O158 O 0.36806 0.70341 0.61133 0.0
O159 O 0.37813 0.73417 0.63808 0.0
C160 C 0.36721 0.71816 0.64841 0.0
C161 C 0.4275 0.78309 0.47586 0.0
C162 C 0.36709 0.74059 0.45447 0.0
C163 C 0.42639 0.70936 0.51171 0.0
O164 O 0.42754 0.72719 0.49016 0.0
O165 O 0.41136 0.7041 0.54359 0.0
O166 O 0.42393 0.77002 0.43545 0.0
O167 O 0.42118 0.77899 0.52798 0.0
O168 O 0.58772 0.05439 0.75086 0.0
Cd169 Cd 0.58685 0.07404 0.8205 0.0
Cd170 Cd 0.5548 0.08983 0.75347 0.0
O171 O 0.55574 0.06004 0.72678 0.0
O172 O 0.6025 0.05992 0.88298 0.0
O173 O 0.56912 0.06509 0.88753 0.0
C174 C 0.58537 0.05695 0.90946 0.0
C175 C 0.52351 0.10595 0.73518 0.0
C176 C 0.57188 0.0495 0.72235 0.0
C177 C 0.59536 0.11251 0.76185 0.0
O178 O 0.5792 0.10845 0.73347 0.0
O179 O 0.60008 0.10212 0.80678 0.0
O180 O 0.53515 0.09978 0.69368 0.0
O181 O 0.5294 0.10276 0.78821 0.0
O182 O 0.03279 0.94084 0.27052 0.0
Cd183 Cd 0.0323 0.92017 0.33731 0.0
Cd184 Cd 0.06547 0.90408 0.27523 0.0
O185 O 0.06479 0.93401 0.24889 0.0
O186 O 0.01829 0.93397 0.40326 0.0
O187 O 0.05133 0.92656 0.40336 0.0
C188 C 0.03592 0.93537 0.42808 0.0
C189 C 0.0969 0.88819 0.25806 0.0
C190 C 0.0492 0.94533 0.24409 0.0
C191 C 0.02436 0.88168 0.27775 0.0
O192 O 0.04162 0.88487 0.25414 0.0
O193 O 0.01808 0.893 0.31907 0.0
O194 O 0.08557 0.89453 0.21613 0.0
O195 O 0.09066 0.89115 0.31089 0.0
O196 O 0.59292 0.94389 0.36942 0.0
Cd197 Cd 0.59411 0.92618 0.29593 0.0
Cd198 Cd 0.5613 0.90526 0.35337 0.0
O199 O 0.5627 0.93258 0.39672 0.0
O200 O 0.60831 0.94295 0.23595 0.0
O201 O 0.57554 0.93469 0.23052 0.0
C202 C 0.59096 0.94469 0.20979 0.0
C203 C 0.52994 0.88881 0.36809 0.0
C204 C 0.5774 0.94501 0.4024 0.0
C205 C 0.603 0.88457 0.33771 0.0
O206 O 0.58539 0.88529 0.36079 0.0
O207 O 0.60926 0.89888 0.30476 0.0
O208 O 0.54242 0.89215 0.41013 0.0
O209 O 0.53508 0.89484 0.31646 0.0
O210 O 0.04002 0.05026 0.88788 0.0
Cd211 Cd 0.0396 0.0672 0.81281 0.0
Cd212 Cd 0.07111 0.08946 0.87569 0.0
O213 O 0.068 0.06364 0.92536 0.0
O214 O 0.02398 0.05004 0.75674 0.0
O215 O 0.05686 0.0569 0.74617 0.0
C216 C 0.04078 0.04729 0.72851 0.0
C217 C 0.10259 0.10578 0.89122 0.0
C218 C 0.05378 0.05053 0.92683 0.0
C219 C 0.02972 0.10949 0.8493 0.0
O220 O 0.04703 0.10959 0.87428 0.0
O221 O 0.02415 0.09443 0.81823 0.0
O222 O 0.08886 0.10464 0.93109 0.0
O223 O 0.0986 0.09753 0.84133 0.0
H224 H 0.16081 0.7171 0.14212 0.0
H225 H 0.20024 0.66743 0.09078 0.0
H226 H 0.13728 0.69296 0.18662 0.0
H227 H 0.17643 0.64317 0.13511 0.0
H228 H 0.14224 0.61055 0.28563 0.0
H229 H 0.16528 0.63469 0.23767 0.0
H230 H 0.11358 0.66528 0.16034 0.0
H231 H 0.0906 0.64144 0.20843 0.0
C232 C 0.16431 0.70099 0.13955 0.0
C233 C 0.18243 0.69419 0.11301 0.0
C234 C 0.1508 0.68716 0.16502 0.0
C235 C 0.15512 0.66621 0.16485 0.0
C236 C 0.17288 0.65929 0.13663 0.0
C237 C 0.18637 0.67315 0.11064 0.0
C238 C 0.1358 0.62258 0.259 0.0
C239 C 0.11459 0.62408 0.25094 0.0
C240 C 0.14899 0.63624 0.23098 0.0
C241 C 0.14122 0.65174 0.19485 0.0
C242 C 0.12002 0.65354 0.18809 0.0
C243 C 0.10686 0.63986 0.21567 0.0
H244 H 0.59273 0.8481 0.3865 0.0
H245 H 0.64471 0.88387 0.33123 0.0
H246 H 0.61557 0.82309 0.43026 0.0
H247 H 0.66758 0.85871 0.37512 0.0
H248 H 0.69859 0.82382 0.52599 0.0
H249 H 0.67506 0.84782 0.47985 0.0
H250 H 0.64233 0.79761 0.4017 0.0
H251 H 0.66574 0.77362 0.44769 0.0
C252 C 0.60905 0.85047 0.38293 0.0
C253 C 0.61693 0.86799 0.35552 0.0
C254 C 0.62211 0.83613 0.40799 0.0
C255 C 0.64331 0.83911 0.4067 0.0
C256 C 0.65125 0.85623 0.3775 0.0
C257 C 0.63818 0.87048 0.35178 0.0
C258 C 0.68619 0.81789 0.4997 0.0
C259 C 0.68403 0.79683 0.49046 0.0
C260 C 0.67289 0.83164 0.47273 0.0
C261 C 0.65705 0.82456 0.43665 0.0
C262 C 0.6544 0.80348 0.42931 0.0
C263 C 0.66781 0.78976 0.45569 0.0
H264 H 0.51835 0.37543 0.6598 0.0
H265 H 0.50789 0.34909 0.82999 0.0
H266 H 0.49416 0.35183 0.6168 0.0
H267 H 0.4849 0.32406 0.7867 0.0
H268 H 0.42981 0.29422 0.70533 0.0
H269 H 0.4536 0.31821 0.74844 0.0
H270 H 0.48751 0.31977 0.58581 0.0
H271 H 0.46241 0.29706 0.54168 0.0
C272 C 0.51104 0.36427 0.68782 0.0
C273 C 0.5149 0.36404 0.74814 0.0
C274 C 0.49728 0.35054 0.6631 0.0
C275 C 0.48747 0.33575 0.69782 0.0
C276 C 0.49168 0.33542 0.75838 0.0
C277 C 0.50499 0.34964 0.78339 0.0
C278 C 0.44237 0.29978 0.67892 0.0
C279 C 0.44431 0.29388 0.62022 0.0
C280 C 0.45619 0.31343 0.70379 0.0
C281 C 0.47273 0.32105 0.67108 0.0
C282 C 0.47479 0.31474 0.61234 0.0
C283 C 0.46053 0.30157 0.58694 0.0
H284 H 0.96156 0.21767 0.95634 0.0
H285 H 0.9287 0.16563 0.02433 0.0
H286 H 0.98655 0.19498 0.912 0.0
H287 H 0.95391 0.14291 0.98012 0.0
H288 H 0.98823 0.10904 0.83583 0.0
H289 H 0.96379 0.13315 0.87725 0.0
H290 H 0.01351 0.17033 0.94041 0.0
H291 H 0.03793 0.1464 0.89885 0.0
C292 C 0.95982 0.20139 0.96252 0.0
C293 C 0.94312 0.19344 0.99379 0.0
C294 C 0.97415 0.18841 0.93708 0.0
C295 C 0.97202 0.16719 0.94197 0.0
C296 C 0.95571 0.15922 0.97481 0.0
C297 C 0.94144 0.17223 0.00075 0.0
C298 C 0.99395 0.12257 0.85747 0.0
C299 C 0.01502 0.12577 0.86422 0.0
C300 C 0.97996 0.13622 0.88185 0.0
C301 C 0.98677 0.15342 0.91283 0.0
C302 C 0.00782 0.15719 0.91679 0.0
C303 C 0.02179 0.14348 0.89292 0.0
H304 H 0.142 0.3808 0.85216 0.0
H305 H 0.09188 0.3507 0.93998 0.0
H306 H 0.16591 0.35741 0.89902 0.0
H307 H 0.1158 0.32754 0.98706 0.0
H308 H 0.16455 0.27568 0.99406 0.0
H309 H 0.13904 0.29961 0.95857 0.0
H310 H 0.17917 0.34985 -0.00039 0.0
H311 H 0.20488 0.32586 0.03482 0.0
C312 C 0.13607 0.36913 0.88106 0.0
C313 C 0.11503 0.3676 0.89218 0.0
C314 C 0.14978 0.35591 0.90848 0.0
C315 C 0.14273 0.34081 0.94722 0.0
C316 C 0.12168 0.33901 0.95736 0.0
C317 C 0.10799 0.35229 0.9303 0.0
C318 C 0.16778 0.29185 0.99673 0.0
C319 C 0.1868 0.29886 0.01687 0.0
C320 C 0.15315 0.30556 0.97638 0.0
C321 C 0.15726 0.32656 0.97542 0.0
C322 C 0.17576 0.33369 -0.00113 0.0
C323 C 0.19037 0.31997 0.01974 0.0
H324 H 0.03561 0.84952 0.20975 0.0
H325 H 0.98285 0.87842 0.28709 0.0
H326 H 0.01337 0.82571 0.15823 0.0
H327 H 0.96061 0.85457 0.23513 0.0
H328 H 0.92819 0.82463 0.07878 0.0
H329 H 0.95188 0.84813 0.12665 0.0
H330 H 0.98849 0.79722 0.1838 0.0
H331 H 0.96485 0.77372 0.1364 0.0
C332 C 0.01927 0.85066 0.21619 0.0
C333 C 0.01097 0.86584 0.25251 0.0
C334 C 0.00657 0.83704 0.18667 0.0
C335 C 0.9853 0.83848 0.19223 0.0
C336 C 0.97697 0.85335 0.22948 0.0
C337 C 0.9897 0.86682 0.25971 0.0
C338 C 0.94151 0.81849 0.10055 0.0
C339 C 0.94465 0.79733 0.10394 0.0
C340 C 0.9549 0.83191 0.12851 0.0
C341 C 0.97183 0.82443 0.15949 0.0
C342 C 0.97556 0.80337 0.16022 0.0
C343 C 0.96203 0.78995 0.13305 0.0
H344 H 0.46281 0.71669 0.45812 0.0
H345 H 0.42499 0.66778 0.52419 0.0
H346 H 0.4866 0.6919 0.41833 0.0
H347 H 0.44911 0.6429 0.48474 0.0
H348 H 0.48425 0.60567 0.34698 0.0
H349 H 0.46047 0.63099 0.38577 0.0
H350 H 0.51117 0.66623 0.45169 0.0
H351 H 0.53487 0.64122 0.41255 0.0
C352 C 0.45968 0.70064 0.4648 0.0
C353 C 0.44197 0.69422 0.49431 0.0
C354 C 0.47336 0.68644 0.44202 0.0
C355 C 0.46963 0.66546 0.44798 0.0
C356 C 0.45219 0.65898 0.47871 0.0
C357 C 0.43853 0.67323 0.5019 0.0
C358 C 0.49032 0.61898 0.36896 0.0
C359 C 0.51145 0.62142 0.37668 0.0
C360 C 0.47669 0.63333 0.39177 0.0
C361 C 0.48397 0.65047 0.42225 0.0
C362 C 0.50511 0.65323 0.42819 0.0
C363 C 0.51868 0.63886 0.40578 0.0
H364 H 0.68079 0.1764 0.53885 0.0
H365 H 0.67888 0.2131 0.6958 0.0
H366 H 0.65532 0.15339 0.58134 0.0
H367 H 0.6537 0.1901 0.73786 0.0
H368 H 0.62931 0.12877 0.81449 0.0
H369 H 0.65368 0.15289 0.77194 0.0
H370 H 0.61786 0.15532 0.61379 0.0
H371 H 0.59348 0.13146 0.65596 0.0
C372 C 0.67489 0.17962 0.58212 0.0
C373 C 0.68186 0.19659 0.61384 0.0
C374 C 0.66031 0.1665 0.60636 0.0
C375 C 0.65267 0.16996 0.66298 0.0
C376 C 0.65951 0.18697 0.69442 0.0
C377 C 0.67383 0.20021 0.67001 0.0
C378 C 0.62655 0.13459 0.77087 0.0
C379 C 0.60945 0.1282 0.73871 0.0
C380 C 0.64047 0.14839 0.74658 0.0
C381 C 0.63767 0.15582 0.68946 0.0
C382 C 0.62048 0.14963 0.65762 0.0
C383 C 0.60645 0.13609 0.68209 0.0
H384 H 0.00402 0.38419 0.98556 0.0
H385 H 0.0073 0.35732 0.81359 0.0
H386 H 0.97514 0.36244 0.00967 0.0
H387 H 0.97913 0.33465 0.83846 0.0
H388 H 0.92221 0.3016 0.88302 0.0
H389 H 0.94458 0.32997 0.85858 0.0
H390 H 0.96935 0.32841 0.03389 0.0
H391 H 0.94604 0.30078 0.05885 0.0
C392 C -0.00153 0.37362 0.95284 0.0
C393 C 0.00793 0.3723 0.89784 0.0
C394 C 0.98201 0.36103 0.96679 0.0
C395 C 0.97489 0.34652 0.92646 0.0
C396 C 0.98394 0.34579 0.87051 0.0
C397 C 0.00018 0.3587 0.85618 0.0
C398 C 0.9322 0.30764 0.91657 0.0
C399 C 0.93254 0.29897 0.97271 0.0
C400 C 0.94516 0.32378 0.90244 0.0
C401 C 0.95909 0.33134 0.94381 0.0
C402 C 0.9587 0.32322 0.00094 0.0
C403 C 0.9454 0.30731 0.01538 0.0
H404 H 0.50247 0.10549 0.63301 0.0
H405 H 0.50255 0.13246 0.80518 0.0
H406 H 0.47446 0.1276 0.60413 0.0
H407 H 0.47506 0.1553 0.7757 0.0
H408 H 0.41873 0.18812 0.7188 0.0
H409 H 0.44054 0.15989 0.74812 0.0
H410 H 0.47087 0.1624 0.58025 0.0
H411 H 0.44847 0.19007 0.5503 0.0
C412 C 0.49637 0.11609 0.66484 0.0
C413 C 0.50478 0.1174 0.7212 0.0
C414 C 0.48041 0.12887 0.64814 0.0
C415 C 0.47267 0.14349 0.68717 0.0
C416 C 0.48047 0.1441 0.74457 0.0
C417 C 0.49628 0.13108 0.76154 0.0
C418 C 0.42986 0.18241 0.68786 0.0
C419 C 0.43199 0.19137 0.63235 0.0
C420 C 0.44247 0.16631 0.70484 0.0
C421 C 0.45765 0.15896 0.66691 0.0
C422 C 0.45919 0.16744 0.61045 0.0
C423 C 0.44641 0.18339 0.59324 0.0
H424 H 0.62017 0.62878 0.31614 0.0
H425 H 0.62088 0.60556 0.49267 0.0
H426 H 0.64795 0.65202 0.34029 0.0
H427 H 0.64946 0.62774 0.51626 0.0
H428 H 0.67791 0.68986 0.55991 0.0
H429 H 0.65493 0.66191 0.53597 0.0
H430 H 0.6819 0.6579 0.36352 0.0
H431 H 0.7039 0.68667 0.38674 0.0
C432 C 0.62669 0.62829 0.35964 0.0
C433 C 0.6183 0.6156 0.4027 0.0
C434 C 0.6427 0.64153 0.37361 0.0
C435 C 0.6509 0.64201 0.43063 0.0
C436 C 0.64322 0.62829 0.47247 0.0
C437 C 0.62695 0.61543 0.45884 0.0
C438 C 0.67907 0.68276 0.51728 0.0
C439 C 0.69249 0.6905 0.47502 0.0
C440 C 0.66597 0.66664 0.50344 0.0
C441 C 0.66634 0.65766 0.44739 0.0
C442 C 0.68073 0.66472 0.40648 0.0
C443 C 0.69349 0.6811 0.41994 0.0
H444 H 0.19673 0.80066 0.24043 0.0
H445 H 0.17277 0.8066 0.06554 0.0
H446 H 0.17606 0.82931 0.27239 0.0
H447 H 0.15106 0.83459 0.09794 0.0
H448 H 0.1201 0.89073 0.16002 0.0
H449 H 0.14767 0.86814 0.1304 0.0
H450 H 0.14204 0.83572 0.29448 0.0
H451 H 0.11528 0.85912 0.325 0.0
C452 C 0.18699 0.80816 0.2088 0.0
C453 C 0.18618 0.80136 0.15064 0.0
C454 C 0.17502 0.82451 0.2272 0.0
C455 C 0.1616 0.83416 0.18814 0.0
C456 C 0.16138 0.82776 0.12925 0.0
C457 C 0.17372 0.81164 0.11057 0.0
C458 C 0.1251 0.879 0.19013 0.0
C459 C 0.11554 0.87657 0.24467 0.0
C460 C 0.14076 0.86591 0.17295 0.0
C461 C 0.14694 0.84983 0.20948 0.0
C462 C 0.13794 0.84805 0.26531 0.0
C463 C 0.12252 0.86142 0.28291 0.0
H464 H 0.00553 0.60503 0.14824 0.0
H465 H 0.00718 0.63492 0.31622 0.0
H466 H 0.97761 0.62698 0.11773 0.0
H467 H 0.98002 0.65779 0.28486 0.0
H468 H 0.92447 0.69118 0.22838 0.0
H469 H 0.94599 0.6631 0.26011 0.0
H470 H 0.97309 0.66055 0.08763 0.0
H471 H 0.95061 0.6879 0.05539 0.0
C472 C -0.00018 0.61631 0.17872 0.0
C473 C 0.00855 0.61841 0.23445 0.0
C474 C 0.98392 0.62902 0.16107 0.0
C475 C 0.97667 0.64444 0.19831 0.0
C476 C 0.98495 0.64596 0.25509 0.0
C477 C 0.0006 0.63292 0.27316 0.0
C478 C 0.93482 0.68434 0.19707 0.0
C479 C 0.936 0.69174 0.13954 0.0
C480 C 0.94729 0.66835 0.21538 0.0
C481 C 0.96157 0.65967 0.17688 0.0
C482 C 0.96213 0.66661 0.11849 0.0
C483 C 0.94932 0.68236 0.09988 0.0
H484 H 0.13344 0.115 0.81423 0.0
H485 H 0.11489 0.1221 0.99444 0.0
H486 H 0.16287 0.13709 0.83233 0.0
H487 H 0.14373 0.1444 0.01199 0.0
H488 H 0.18716 0.20259 0.8677 0.0
H489 H 0.16568 0.17329 0.84866 0.0
H490 H 0.18019 0.14902 0.01936 0.0
H491 H 0.2015 0.1789 0.03915 0.0
C492 C 0.13577 0.12106 0.85776 0.0
C493 C 0.1217 0.11705 0.90264 0.0
C494 C 0.15256 0.13376 0.86812 0.0
C495 C 0.15557 0.14264 0.92353 0.0
C496 C 0.14206 0.13766 0.96903 0.0
C497 C 0.12536 0.12502 0.95872 0.0
C498 C 0.18599 0.19093 0.90107 0.0
C499 C 0.19579 0.19321 0.95534 0.0
C500 C 0.17382 0.17396 0.88982 0.0
C501 C 0.17114 0.15881 0.93252 0.0
C502 C 0.18176 0.16057 0.98582 0.0
C503 C 0.194 0.17763 0.99712 0.0
H504 H 0.70617 0.30222 0.72035 0.0
H505 H 0.67762 0.30228 0.55026 0.0
H506 H 0.68371 0.32961 0.75188 0.0
H507 H 0.65447 0.32912 0.5824 0.0
H508 H 0.62147 0.38479 0.6433 0.0
H509 H 0.64961 0.36336 0.61122 0.0
H510 H 0.64902 0.33257 0.7785 0.0
H511 H 0.62142 0.35466 0.81125 0.0
C512 C 0.69515 0.30823 0.68954 0.0
C513 C 0.69351 0.30005 0.63297 0.0
C514 C 0.68217 0.32382 0.70777 0.0
C515 C 0.66703 0.33139 0.67011 0.0
C516 C 0.66606 0.32383 0.61249 0.0
C517 C 0.67928 0.3084 0.59399 0.0
C518 C 0.62755 0.3736 0.67346 0.0
C519 C 0.61918 0.37128 0.72968 0.0
C520 C 0.6436 0.36122 0.65492 0.0
C521 C 0.65149 0.34606 0.69192 0.0
C522 C 0.64355 0.34426 0.74899 0.0
C523 C 0.62764 0.35684 0.7678 0.0
H524 H 0.42818 0.80306 0.37227 0.0
H525 H 0.4525 0.80511 0.54745 0.0
H526 H 0.44934 0.83199 0.34468 0.0
H527 H 0.47474 0.83324 0.51932 0.0
H528 H 0.50735 0.88944 0.46716 0.0
H529 H 0.47917 0.86701 0.49309 0.0
H530 H 0.48309 0.83873 0.32246 0.0
H531 H 0.51039 0.86219 0.29574 0.0
C532 C 0.43811 0.80978 0.4049 0.0
C533 C 0.43886 0.80184 0.46187 0.0
C534 C 0.45037 0.82627 0.38899 0.0
C535 C 0.46405 0.83488 0.42934 0.0
C536 C 0.46423 0.82729 0.48709 0.0
C537 C 0.45157 0.81107 0.50333 0.0
C538 C 0.50182 0.87867 0.43489 0.0
C539 C 0.51102 0.87741 0.37958 0.0
C540 C 0.48581 0.86566 0.44992 0.0
C541 C 0.479 0.85071 0.41044 0.0
C542 C 0.48767 0.85016 0.35396 0.0
C543 C 0.50339 0.86355 0.3385 0.0
H544 H 0.03864 0.53879 0.15921 0.0
H545 H 0.10005 0.51956 0.2012 0.0
H546 H 0.03761 0.51418 0.07948 0.0
H547 H 0.09883 0.49485 0.12197 0.0
H548 H 0.09902 0.47249 0.93463 0.0
H549 H 0.09809 0.49747 0.01321 0.0
H550 H 0.03796 0.4766 0.0626 0.0
H551 H 0.03868 0.45172 0.98355 0.0
C552 C 0.05181 0.52917 0.15191 0.0
C553 C 0.06949 0.53121 0.18622 0.0
C554 C 0.05119 0.51508 0.10635 0.0
C555 C 0.06823 0.50286 0.09428 0.0
C556 C 0.08563 0.50441 0.12976 0.0
C557 C 0.08625 0.51843 0.17538 0.0
C558 C 0.0855 0.47335 0.96181 0.0
C559 C 0.06899 0.46003 0.95319 0.0
C560 C 0.08505 0.48753 0.00703 0.0
C561 C 0.06807 0.48871 0.04431 0.0
C562 C 0.05121 0.47599 0.03433 0.0
C563 C 0.05167 0.46174 0.98917 0.0
H564 H 0.83972 0.78706 0.16827 0.0
H565 H 0.85865 0.72628 0.21772 0.0
H566 H 0.81434 0.78674 0.24638 0.0
H567 H 0.83357 0.72618 0.29603 0.0
H568 H 0.77092 0.72553 0.38478 0.0
H569 H 0.79621 0.72575 0.307 0.0
H570 H 0.81409 0.78686 0.35538 0.0
H571 H 0.78851 0.78685 0.43294 0.0
C572 C 0.83843 0.77363 0.1956 0.0
C573 C 0.85118 0.7567 0.18683 0.0
C574 C 0.82404 0.77353 0.24055 0.0
C575 C 0.8221 0.75648 0.27728 0.0
C576 C 0.83463 0.73946 0.26798 0.0
C577 C 0.84903 0.73956 0.22322 0.0
C578 C 0.7803 0.739 0.37914 0.0
C579 C 0.7777 0.7562 0.41493 0.0
C580 C 0.79482 0.73907 0.33469 0.0
C581 C 0.80701 0.75635 0.32513 0.0
C582 C 0.80466 0.77345 0.3614 0.0
C583 C 0.79015 0.77337 0.40604 0.0
H584 H 0.58309 0.54307 0.51343 0.0
H585 H 0.52697 0.5158 0.45166 0.0
H586 H 0.58346 0.51952 0.5957 0.0
H587 H 0.52761 0.49204 0.53345 0.0
H588 H 0.58856 0.45672 0.68697 0.0
H589 H 0.58825 0.48289 0.61171 0.0
H590 H 0.5238 0.49235 0.64088 0.0
H591 H 0.52395 0.46584 0.71565 0.0
C592 C 0.57091 0.53197 0.51714 0.0
C593 C 0.555 0.53128 0.476 0.0
C594 C 0.57115 0.5185 0.56424 0.0
C595 C 0.5555 0.50408 0.57107 0.0
C596 C 0.53968 0.50327 0.52976 0.0
C597 C 0.53943 0.51674 0.48265 0.0
C598 C 0.57436 0.46453 0.67789 0.0
C599 C 0.55623 0.45908 0.70683 0.0
C600 C 0.57421 0.47958 0.63492 0.0
C601 C 0.55596 0.48947 0.62014 0.0
C602 C 0.53801 0.48467 0.6508 0.0
C603 C 0.53814 0.46962 0.69386 0.0
H604 H 0.86055 0.26079 0.86723 0.0
H605 H 0.83617 0.2031 0.92695 0.0
H606 H 0.83673 0.26068 0.7861 0.0
H607 H 0.81188 0.20331 0.84608 0.0
H608 H 0.78532 0.20107 0.66147 0.0
H609 H 0.81109 0.20049 0.73854 0.0
H610 H 0.80036 0.26443 0.77184 0.0
H611 H 0.77512 0.26519 0.69441 0.0
C612 C 0.84998 0.24816 0.86338 0.0
C613 C 0.85019 0.23197 0.90365 0.0
C614 C 0.83631 0.24813 0.81689 0.0
C615 C 0.82247 0.23199 0.8098 0.0
C616 C 0.8226 0.21581 0.85009 0.0
C617 C 0.83636 0.21579 0.89664 0.0
C618 C 0.78866 0.21504 0.68483 0.0
C619 C 0.77818 0.23316 0.67193 0.0
C620 C 0.80326 0.21465 0.72922 0.0
C621 C 0.80762 0.23238 0.76131 0.0
C622 C 0.79748 0.25058 0.74742 0.0
C623 C 0.78295 0.25098 0.70313 0.0
H624 H 0.25649 0.24072 0.82584 0.0
H625 H 0.29276 0.28776 0.90819 0.0
H626 H 0.27867 0.24178 0.74067 0.0
H627 H 0.31519 0.28849 0.82307 0.0
H628 H 0.34506 0.29395 0.6461 0.0
H629 H 0.31714 0.29652 0.71668 0.0
H630 H 0.31404 0.2308 0.72617 0.0
H631 H 0.34155 0.2282 0.6555 0.0
C632 C 0.26917 0.25132 0.82577 0.0
C633 C 0.27304 0.26398 0.8741 0.0
C634 C 0.28184 0.25192 0.77693 0.0
C635 C 0.29867 0.26514 0.77543 0.0
C636 C 0.30216 0.27831 0.82282 0.0
C637 C 0.28944 0.27775 0.87175 0.0
C638 C 0.33811 0.28008 0.66244 0.0
C639 C 0.3456 0.26087 0.64581 0.0
C640 C 0.32226 0.28156 0.70305 0.0
C641 C 0.31357 0.26387 0.72714 0.0
C642 C 0.32032 0.24471 0.70796 0.0
C643 C 0.33618 0.24322 0.66774 0.0
H644 H 0.36955 0.75785 0.3466 0.0
H645 H 0.3279 0.72706 0.46398 0.0
H646 H 0.34296 0.75901 0.2718 0.0
H647 H 0.30126 0.72862 0.38922 0.0
H648 H 0.25539 0.75802 0.2576 0.0
H649 H 0.28201 0.75936 0.33226 0.0
H650 H 0.32342 0.72814 0.21605 0.0
H651 H 0.29674 0.7264 0.14141 0.0
C652 C 0.35466 0.75155 0.3566 0.0
C653 C 0.35073 0.74233 0.41093 0.0
C654 C 0.33957 0.75214 0.3138 0.0
C655 C 0.32025 0.74389 0.3252 0.0
C656 C 0.3161 0.73515 0.3799 0.0
C657 C 0.33132 0.73419 0.42236 0.0
C658 C 0.27022 0.75158 0.24781 0.0
C659 C 0.27405 0.74206 0.19388 0.0
C660 C 0.28533 0.75228 0.29054 0.0
C661 C 0.30458 0.74384 0.27946 0.0
C662 C 0.30864 0.73481 0.22511 0.0
C663 C 0.2934 0.73375 0.18274 0.0
H664 H 0.54745 0.9497 0.48379 0.0
H665 H 0.60567 0.97433 0.42898 0.0
H666 H 0.54652 0.97363 0.56463 0.0
H667 H 0.60445 -0.00133 0.50962 0.0
H668 H 0.60445 0.02533 0.69419 0.0
H669 H 0.60597 -0.0006 0.61777 0.0
H670 H 0.54248 0.0102 0.5774 0.0
H671 H 0.54079 0.03569 0.65413 0.0
C672 C 0.55999 0.96032 0.48869 0.0
C673 C 0.57662 0.96017 0.44983 0.0
C674 C 0.55942 0.97405 0.535 0.0
C675 C 0.5754 0.98798 0.54335 0.0
C676 C 0.59204 0.98789 0.50458 0.0
C677 C 0.59265 0.97409 0.45817 0.0
C678 C 0.59077 0.02199 0.66942 0.0
C679 C 0.57251 0.03257 0.68009 0.0
C680 C 0.5917 0.00729 0.62541 0.0
C681 C 0.57438 0.00291 0.59153 0.0
C682 C 0.55602 0.01313 0.60324 0.0
C683 C 0.55509 0.02778 0.6471 0.0
H684 H 0.08038 0.04731 0.01794 0.0
H685 H 0.02519 0.02094 0.94676 0.0
H686 H 0.07877 0.02369 0.09983 0.0
H687 H 0.02384 -0.0029 0.02846 0.0
H688 H 0.01764 0.96993 0.21042 0.0
H689 H 0.0185 -0.00327 0.13635 0.0
H690 H 0.08311 0.98669 0.11234 0.0
H691 H 0.0824 0.96023 0.18662 0.0
C692 C 0.06795 0.03644 0.01962 0.0
C693 C 0.05296 0.03592 0.97571 0.0
C694 C 0.06706 0.02292 0.0665 0.0
C695 C 0.05118 0.00863 0.07041 0.0
C696 C 0.0361 0.00817 0.02684 0.0
C697 C 0.03699 0.02169 0.97984 0.0
C698 C 0.03206 0.97364 0.18986 0.0
C699 C 0.04992 0.9629 0.20405 0.0
C700 C 0.03251 0.98886 0.14725 0.0
C701 C 0.05084 0.99364 0.11847 0.0
C702 C 0.06881 0.98342 0.13421 0.0
C703 C 0.06836 0.96819 0.17656 0.0
H704 H 0.06341 0.44922 0.6449 0.0
H705 H 0.12556 0.46407 0.69131 0.0
H706 H 0.06374 0.47631 0.57148 0.0
H707 H 0.1257 0.49136 0.61955 0.0
H708 H 0.12571 0.52556 0.44615 0.0
H709 H 0.12566 0.49803 0.51718 0.0
H710 H 0.06384 0.51329 0.56613 0.0
H711 H 0.06369 0.54062 0.49345 0.0
C712 C 0.07719 0.45811 0.63907 0.0
C713 C 0.09446 0.45443 0.67388 0.0
C714 C 0.0773 0.47381 0.59751 0.0
C715 C 0.09468 0.48616 0.58991 0.0
C716 C 0.11211 0.48206 0.62371 0.0
C717 C 0.11202 0.46639 0.66503 0.0
C718 C 0.11215 0.52323 0.47245 0.0
C719 C 0.09471 0.53534 0.46414 0.0
C720 C 0.11214 0.50741 0.51333 0.0
C721 C 0.09471 0.50333 0.54722 0.0
C722 C 0.07741 0.51578 0.54002 0.0
C723 C 0.0774 0.53161 0.49889 0.0
H724 H 0.85822 0.80107 0.87447 0.0
H725 H 0.84797 0.73783 0.91721 0.0
H726 H 0.83077 0.79977 0.80316 0.0
H727 H 0.81953 0.7367 0.8486 0.0
H728 H 0.77933 0.73751 0.684 0.0
H729 H 0.8076 0.73665 0.75316 0.0
H730 H 0.79568 0.79955 0.79855 0.0
H731 H 0.76839 0.80061 0.72668 0.0
C732 C 0.8501 0.78684 0.86832 0.0
C733 C 0.85525 0.76956 0.90122 0.0
C734 C 0.83411 0.78613 0.82804 0.0
C735 C 0.82246 0.76825 0.82073 0.0
C736 C 0.82814 0.75072 0.85242 0.0
C737 C 0.84448 0.75133 0.89183 0.0
C738 C 0.78262 0.75103 0.70952 0.0
C739 C 0.77173 0.76915 0.69989 0.0
C740 C 0.79887 0.75057 0.74925 0.0
C741 C 0.80433 0.76815 0.78102 0.0
C742 C 0.79252 0.7859 0.7736 0.0
C743 C 0.77662 0.78646 0.733 0.0
H744 H 0.56481 0.53466 0.15542 0.0
H745 H 0.50426 0.51632 0.20876 0.0
H746 H 0.5653 0.5072 0.08323 0.0
H747 H 0.50501 0.48862 0.13856 0.0
H748 H 0.50413 0.45471 0.96522 0.0
H749 H 0.50373 0.48181 0.03728 0.0
H750 H 0.56732 0.47059 0.07535 0.0
H751 H 0.56789 0.44375 0.00126 0.0
C752 C 0.55158 0.52485 0.15157 0.0
C753 C 0.53446 0.52777 0.18764 0.0
C754 C 0.55194 0.50895 0.11068 0.0
C755 C 0.53523 0.49558 0.10517 0.0
C756 C 0.51805 0.49873 0.14087 0.0
C757 C 0.51764 0.51465 0.18135 0.0
C758 C 0.518 0.45781 0.98938 0.0
C759 C 0.53604 0.44701 0.97747 0.0
C760 C 0.51776 0.47339 0.03093 0.0
C761 C 0.53552 0.47851 0.06211 0.0
C762 C 0.55345 0.4673 0.05144 0.0
C763 C 0.55372 0.45173 0.0095 0.0
H764 H 0.85405 0.18793 0.21812 0.0
H765 H 0.84548 0.25161 0.17791 0.0
H766 H 0.82664 0.18958 0.2896 0.0
H767 H 0.81712 0.25312 0.24683 0.0
H768 H 0.77721 0.25258 0.41222 0.0
H769 H 0.80544 0.25299 0.34277 0.0
H770 H 0.79149 0.19075 0.29456 0.0
H771 H 0.76419 0.1901 0.36658 0.0
C772 C 0.8463 0.20233 0.22481 0.0
C773 C 0.85191 0.21964 0.19253 0.0
C774 C 0.83034 0.20324 0.26523 0.0
C775 C 0.81919 0.22138 0.27341 0.0
C776 C 0.82533 0.2389 0.24233 0.0
C777 C 0.84163 0.23807 0.20272 0.0
C778 C 0.78004 0.23911 0.38604 0.0
C779 C 0.76855 0.22129 0.39489 0.0
C780 C 0.79626 0.23931 0.34613 0.0
C781 C 0.80113 0.22178 0.31342 0.0
C782 C 0.78877 0.20434 0.32018 0.0
C783 C 0.77287 0.20403 0.36089 0.0
H784 H 0.37394 0.29543 0.34508 0.0
H785 H 0.35586 0.23523 0.40094 0.0
H786 H 0.34765 0.29494 0.27008 0.0
H787 H 0.32871 0.23507 0.32809 0.0
H788 H 0.28886 0.23646 0.16298 0.0
H789 H 0.31762 0.23408 0.23054 0.0
H790 H 0.31243 0.29862 0.2662 0.0
H791 H 0.28456 0.30104 0.19668 0.0
C792 C 0.36445 0.28198 0.34084 0.0
C793 C 0.36693 0.26539 0.37888 0.0
C794 C 0.34914 0.28179 0.29837 0.0
C795 C 0.33559 0.26518 0.29375 0.0
C796 C 0.33882 0.24811 0.32994 0.0
C797 C 0.35443 0.24816 0.37176 0.0
C798 C 0.29381 0.25007 0.18575 0.0
C799 C 0.28453 0.26895 0.17439 0.0
C800 C 0.31032 0.24873 0.22453 0.0
C801 C 0.3177 0.26622 0.25337 0.0
C802 C 0.30773 0.28492 0.24353 0.0
C803 C 0.29152 0.28629 0.20417 0.0
H804 H 0.35793 0.74824 0.72741 0.0
H805 H 0.34262 0.68642 0.6792 0.0
H806 H 0.33072 0.74789 0.80063 0.0
H807 H 0.31527 0.68625 0.75095 0.0
H808 H 0.26626 0.74792 0.87858 0.0
H809 H 0.29345 0.74781 0.80532 0.0
H810 H 0.30903 0.68613 0.85416 0.0
H811 H 0.2817 0.68606 0.92595 0.0
C812 C 0.34891 0.73453 0.73281 0.0
C813 C 0.35249 0.71735 0.69756 0.0
C814 C 0.33316 0.7344 0.77424 0.0
C815 C 0.32068 0.7171 0.78135 0.0
C816 C 0.32467 0.69977 0.74709 0.0
C817 C 0.34037 0.69989 0.70581 0.0
C818 C 0.2753 0.73424 0.87298 0.0
C819 C 0.27176 0.71699 0.908 0.0
C820 C 0.29105 0.73426 0.83153 0.0
C821 C 0.30356 0.71702 0.82418 0.0
C822 C 0.29961 0.69961 0.85821 0.0
C823 C 0.28391 0.69959 0.8995 0.0
H824 H 0.62026 0.95801 0.13464 0.0
H825 H 0.55651 0.96512 0.17716 0.0
H826 H 0.6177 0.98542 0.0635 0.0
H827 H 0.55409 0.99348 0.10856 0.0
H828 H 0.55314 0.03329 0.94288 0.0
H829 H 0.55357 0.00516 0.0126 0.0
H830 H 0.61572 0.0205 0.05891 0.0
H831 H 0.61553 0.04769 0.98662 0.0
C832 C 0.60566 0.96544 0.12854 0.0
C833 C 0.58859 0.95942 0.16134 0.0
C834 C 0.60422 0.9814 0.08832 0.0
C835 C 0.58578 0.99213 0.08088 0.0
C836 C 0.56851 0.98559 0.11251 0.0
C837 C 0.56987 0.96929 0.15192 0.0
C838 C 0.56676 0.03079 0.96873 0.0
C839 C 0.58432 0.04262 0.95924 0.0
C840 C 0.56704 0.01463 0.00878 0.0
C841 C 0.58482 0.01017 0.04096 0.0
C842 C 0.60196 0.0229 0.03367 0.0
C843 C 0.6018 0.03873 0.99281 0.0
H844 H 0.00976 0.03499 0.65818 0.0
H845 H 0.07364 0.02486 0.69304 0.0
H846 H 0.00986 0.0072 0.58803 0.0
H847 H 0.07361 -0.0039 0.6254 0.0
H848 H 0.06995 0.95675 0.45872 0.0
H849 H 0.07212 0.98442 0.52949 0.0
H850 H 0.01006 0.97206 0.58374 0.0
H851 H 0.00765 0.94534 0.51035 0.0
C852 C 0.02386 0.02678 0.65066 0.0
C853 C 0.04169 0.0321 0.68094 0.0
C854 C 0.02389 0.0106 0.61102 0.0
C855 C 0.04164 -0.00105 0.60167 0.0
C856 C 0.05966 0.00471 0.6309 0.0
C857 C 0.05972 0.02123 0.66972 0.0
C858 C 0.05693 0.95976 0.4866 0.0
C859 C 0.0386 0.94897 0.47893 0.0
C860 C 0.05813 0.97567 0.52725 0.0
C861 C 0.04113 0.98089 0.56185 0.0
C862 C 0.02326 0.96907 0.5566 0.0
C863 C 0.02193 0.9535 0.51513 0.0
loop_
_geom_bond_atom_site_label_1
_geom_bond_atom_site_label_2
_geom_bond_distance
_geom_bond_site_symmetry_2
_ccdc_geom_bond_type
O0 Cd1 2.223 . S
O0 C8 1.315 . S
Cd1 O0 2.223 . S
Cd1 O4 2.297 . S
Cd1 O5 2.439 . S
Cd1 O11 2.240 . S
Cd2 O3 2.240 . S
Cd2 O10 2.223 . S
Cd2 O12 2.297 . S
Cd2 O13 2.439 . S
O3 Cd2 2.240 . S
O3 C8 1.279 . S
O4 Cd1 2.297 . S
O4 C6 1.247 . S
O5 Cd1 2.439 . S
O5 C6 1.208 . S
C6 O4 1.247 . S
C6 O5 1.208 . S
C7 O12 1.247 . S
C7 O13 1.208 . S
C8 O0 1.315 . S
C8 O3 1.279 . S
C9 O10 1.315 . S
C9 O11 1.279 . S
O10 Cd2 2.223 . S
O10 C9 1.315 . S
O11 Cd1 2.240 . S
O11 C9 1.279 . S
O12 Cd2 2.297 . S
O12 C7 1.247 . S
O13 Cd2 2.439 . S
O13 C7 1.208 . S
O14 Cd15 2.223 . S
O14 C22 1.315 . S
Cd15 O14 2.223 . S
Cd15 O18 2.297 . S
Cd15 O19 2.439 . S
Cd15 O25 2.240 . S
Cd16 O17 2.240 . S
Cd16 O24 2.223 . S
Cd16 O26 2.297 . S
Cd16 O27 2.439 . S
O17 Cd16 2.240 . S
O17 C22 1.279 . S
O18 Cd15 2.297 . S
O18 C20 1.247 . S
O19 Cd15 2.439 . S
O19 C20 1.208 . S
C20 O18 1.247 . S
C20 O19 1.208 . S
C21 O26 1.247 . S
C21 O27 1.208 . S
C22 O14 1.315 . S
C22 O17 1.279 . S
C23 O24 1.315 . S
C23 O25 1.279 . S
O24 Cd16 2.223 . S
O24 C23 1.315 . S
O25 Cd15 2.240 . S
O25 C23 1.279 . S
O26 Cd16 2.297 . S
O26 C21 1.247 . S
O27 Cd16 2.439 . S
O27 C21 1.208 . S
O28 Cd29 2.223 . S
O28 C36 1.315 . S
Cd29 O28 2.223 . S
Cd29 O32 2.297 . S
Cd29 O33 2.439 . S
Cd29 O39 2.240 . S
Cd30 O31 2.240 . S
Cd30 O38 2.223 . S
Cd30 O40 2.297 . S
Cd30 O41 2.439 . S
O31 Cd30 2.240 . S
O31 C36 1.279 . S
O32 Cd29 2.297 . S
O32 C34 1.247 . S
O33 Cd29 2.439 . S
O33 C34 1.208 . S
C34 O32 1.247 . S
C34 O33 1.208 . S
C35 O40 1.247 . S
C35 O41 1.208 . S
C36 O28 1.315 . S
C36 O31 1.279 . S
C37 O38 1.315 . S
C37 O39 1.279 . S
O38 Cd30 2.223 . S
O38 C37 1.315 . S
O39 Cd29 2.240 . S
O39 C37 1.279 . S
O40 Cd30 2.297 . S
O40 C35 1.247 . S
O41 Cd30 2.439 . S
O41 C35 1.208 . S
O42 Cd43 2.223 1_556 S
O42 C50 1.315 . S
Cd43 O42 2.223 1_554 S
Cd43 O46 2.297 . S
Cd43 O47 2.439 . S
Cd43 O53 2.240 . S
Cd44 O45 2.240 . S
Cd44 O52 2.223 . S
Cd44 O54 2.297 . S
Cd44 O55 2.439 1_556 S
O45 Cd44 2.240 . S
O45 C50 1.279 . S
O46 Cd43 2.297 . S
O46 C48 1.247 . S
O47 Cd43 2.439 . S
O47 C48 1.208 . S
C48 O46 1.247 . S
C48 O47 1.208 . S
C49 O54 1.247 1_554 S
C49 O55 1.208 . S
C50 O42 1.315 . S
C50 O45 1.279 . S
C51 O52 1.315 . S
C51 O53 1.279 1_556 S
O52 Cd44 2.223 . S
O52 C51 1.315 . S
O53 Cd43 2.240 . S
O53 C51 1.279 1_554 S
O54 Cd44 2.297 . S
O54 C49 1.247 1_556 S
O55 Cd44 2.439 1_554 S
O55 C49 1.208 . S
O56 Cd57 2.223 . S
O56 C64 1.315 . S
Cd57 O56 2.223 . S
Cd57 O60 2.297 . S
Cd57 O61 2.439 . S
Cd57 O67 2.240 . S
Cd58 O59 2.240 . S
Cd58 O66 2.223 . S
Cd58 O68 2.297 . S
Cd58 O69 2.439 . S
O59 Cd58 2.240 . S
O59 C64 1.279 . S
O60 Cd57 2.297 . S
O60 C62 1.247 . S
O61 Cd57 2.439 . S
O61 C62 1.208 . S
C62 O60 1.247 . S
C62 O61 1.208 . S
C63 O68 1.247 . S
C63 O69 1.208 . S
C64 O56 1.315 . S
C64 O59 1.279 . S
C65 O66 1.315 . S
C65 O67 1.279 . S
O66 Cd58 2.223 . S
O66 C65 1.315 . S
O67 Cd57 2.240 . S
O67 C65 1.279 . S
O68 Cd58 2.297 . S
O68 C63 1.247 . S
O69 Cd58 2.439 . S
O69 C63 1.208 . S
O70 Cd71 2.223 . S
O70 C78 1.315 . S
Cd71 O70 2.223 . S
Cd71 O74 2.297 1_554 S
Cd71 O75 2.439 . S
Cd71 O81 2.240 . S
Cd72 O73 2.240 . S
Cd72 O80 2.223 . S
Cd72 O82 2.297 . S
Cd72 O83 2.439 . S
O73 Cd72 2.240 . S
O73 C78 1.279 . S
O74 Cd71 2.297 1_556 S
O74 C76 1.247 . S
O75 Cd71 2.439 . S
O75 C76 1.208 1_554 S
C76 O74 1.247 . S
C76 O75 1.208 1_556 S
C77 O82 1.247 . S
C77 O83 1.208 . S
C78 O70 1.315 . S
C78 O73 1.279 . S
C79 O80 1.315 . S
C79 O81 1.279 . S
O80 Cd72 2.223 . S
O80 C79 1.315 . S
O81 Cd71 2.240 . S
O81 C79 1.279 . S
O82 Cd72 2.297 . S
O82 C77 1.247 . S
O83 Cd72 2.439 . S
O83 C77 1.208 . S
O84 Cd85 2.223 . S
O84 C92 1.315 . S
Cd85 O84 2.223 . S
Cd85 O88 2.297 . S
Cd85 O89 2.439 . S
Cd85 O95 2.240 . S
Cd86 O87 2.240 . S
Cd86 O94 2.223 . S
Cd86 O96 2.297 . S
Cd86 O97 2.439 . S
O87 Cd86 2.240 . S
O87 C92 1.279 . S
O88 Cd85 2.297 . S
O88 C90 1.247 . S
O89 Cd85 2.439 . S
O89 C90 1.208 . S
C90 O88 1.247 . S
C90 O89 1.208 . S
C91 O96 1.247 . S
C91 O97 1.208 . S
C92 O84 1.315 . S
C92 O87 1.279 . S
C93 O94 1.315 . S
C93 O95 1.279 . S
O94 Cd86 2.223 . S
O94 C93 1.315 . S
O95 Cd85 2.240 . S
O95 C93 1.279 . S
O96 Cd86 2.297 . S
O96 C91 1.247 . S
O97 Cd86 2.439 . S
O97 C91 1.208 . S
O98 Cd99 2.223 . S
O98 C106 1.315 . S
Cd99 O98 2.223 . S
Cd99 O102 2.297 . S
Cd99 O103 2.439 . S
Cd99 O109 2.240 . S
Cd100 O101 2.240 . S
Cd100 O108 2.223 . S
Cd100 O110 2.297 . S
Cd100 O111 2.439 . S
O101 Cd100 2.240 . S
O101 C106 1.279 . S
O102 Cd99 2.297 . S
O102 C104 1.247 . S
O103 Cd99 2.439 . S
O103 C104 1.208 . S
C104 O102 1.247 . S
C104 O103 1.208 . S
C105 O110 1.247 . S
C105 O111 1.208 . S
C106 O98 1.315 . S
C106 O101 1.279 . S
C107 O108 1.315 . S
C107 O109 1.279 . S
O108 Cd100 2.223 . S
O108 C107 1.315 . S
O109 Cd99 2.240 . S
O109 C107 1.279 . S
O110 Cd100 2.297 . S
O110 C105 1.247 . S
O111 Cd100 2.439 . S
O111 C105 1.208 . S
O112 Cd113 2.223 . S
O112 C120 1.315 . S
Cd113 O112 2.223 . S
Cd113 O116 2.297 . S
Cd113 O117 2.439 . S
Cd113 O123 2.240 . S
Cd114 O115 2.240 . S
Cd114 O122 2.223 . S
Cd114 O124 2.297 . S
Cd114 O125 2.439 . S
O115 Cd114 2.240 . S
O115 C120 1.279 . S
O116 Cd113 2.297 . S
O116 C118 1.247 . S
O117 Cd113 2.439 . S
O117 C118 1.208 . S
C118 O116 1.247 . S
C118 O117 1.208 . S
C119 O124 1.247 . S
C119 O125 1.208 . S
C120 O112 1.315 . S
C120 O115 1.279 . S
C121 O122 1.315 . S
C121 O123 1.279 . S
O122 Cd114 2.223 . S
O122 C121 1.315 . S
O123 Cd113 2.240 . S
O123 C121 1.279 . S
O124 Cd114 2.297 . S
O124 C119 1.247 . S
O125 Cd114 2.439 . S
O125 C119 1.208 . S
O126 Cd127 2.223 . S
O126 C134 1.315 . S
Cd127 O126 2.223 . S
Cd127 O130 2.297 1_554 S
Cd127 O131 2.439 . S
Cd127 O137 2.240 . S
Cd128 O129 2.240 . S
Cd128 O136 2.223 . S
Cd128 O138 2.297 . S
Cd128 O139 2.439 . S
O129 Cd128 2.240 . S
O129 C134 1.279 . S
O130 Cd127 2.297 1_556 S
O130 C132 1.247 . S
O131 Cd127 2.439 . S
O131 C132 1.208 1_554 S
C132 O130 1.247 . S
C132 O131 1.208 1_556 S
C133 O138 1.247 . S
C133 O139 1.208 . S
C134 O126 1.315 . S
C134 O129 1.279 . S
C135 O136 1.315 . S
C135 O137 1.279 . S
O136 Cd128 2.223 . S
O136 C135 1.315 . S
O137 Cd127 2.240 . S
O137 C135 1.279 . S
O138 Cd128 2.297 . S
O138 C133 1.247 . S
O139 Cd128 2.439 . S
O139 C133 1.208 . S
O140 Cd141 2.223 1_556 S
O140 C148 1.315 . S
Cd141 O140 2.223 1_554 S
Cd141 O144 2.297 . S
Cd141 O145 2.439 . S
Cd141 O151 2.240 . S
Cd142 O143 2.240 . S
Cd142 O150 2.223 . S
Cd142 O152 2.297 . S
Cd142 O153 2.439 1_556 S
O143 Cd142 2.240 . S
O143 C148 1.279 . S
O144 Cd141 2.297 . S
O144 C146 1.247 . S
O145 Cd141 2.439 . S
O145 C146 1.208 . S
C146 O144 1.247 . S
C146 O145 1.208 . S
C147 O152 1.247 1_554 S
C147 O153 1.208 . S
C148 O140 1.315 . S
C148 O143 1.279 . S
C149 O150 1.315 . S
C149 O151 1.279 1_556 S
O150 Cd142 2.223 . S
O150 C149 1.315 . S
O151 Cd141 2.240 . S
O151 C149 1.279 1_554 S
O152 Cd142 2.297 . S
O152 C147 1.247 1_556 S
O153 Cd142 2.439 1_554 S
O153 C147 1.208 . S
O154 Cd155 2.223 . S
O154 C162 1.315 . S
Cd155 O154 2.223 . S
Cd155 O158 2.297 . S
Cd155 O159 2.439 . S
Cd155 O165 2.240 . S
Cd156 O157 2.240 . S
Cd156 O164 2.223 . S
Cd156 O166 2.297 . S
Cd156 O167 2.439 . S
O157 Cd156 2.240 . S
O157 C162 1.279 . S
O158 Cd155 2.297 . S
O158 C160 1.247 . S
O159 Cd155 2.439 . S
O159 C160 1.208 . S
C160 O158 1.247 . S
C160 O159 1.208 . S
C161 O166 1.247 . S
C161 O167 1.208 . S
C162 O154 1.315 . S
C162 O157 1.279 . S
C163 O164 1.315 . S
C163 O165 1.279 . S
O164 Cd156 2.223 . S
O164 C163 1.315 . S
O165 Cd155 2.240 . S
O165 C163 1.279 . S
O166 Cd156 2.297 . S
O166 C161 1.247 . S
O167 Cd156 2.439 . S
O167 C161 1.208 . S
O168 Cd169 2.223 . S
O168 C176 1.315 . S
Cd169 O168 2.223 . S
Cd169 O172 2.297 . S
Cd169 O173 2.439 . S
Cd169 O179 2.240 . S
Cd170 O171 2.240 . S
Cd170 O178 2.223 . S
Cd170 O180 2.297 . S
Cd170 O181 2.439 . S
O171 Cd170 2.240 . S
O171 C176 1.279 . S
O172 Cd169 2.297 . S
O172 C174 1.247 . S
O173 Cd169 2.439 . S
O173 C174 1.208 . S
C174 O172 1.247 . S
C174 O173 1.208 . S
C175 O180 1.247 . S
C175 O181 1.208 . S
C176 O168 1.315 . S
C176 O171 1.279 . S
C177 O178 1.315 . S
C177 O179 1.279 . S
O178 Cd170 2.223 . S
O178 C177 1.315 . S
O179 Cd169 2.240 . S
O179 C177 1.279 . S
O180 Cd170 2.297 . S
O180 C175 1.247 . S
O181 Cd170 2.439 . S
O181 C175 1.208 . S
O182 Cd183 2.223 . S
O182 C190 1.315 . S
Cd183 O182 2.223 . S
Cd183 O186 2.297 . S
Cd183 O187 2.439 . S
Cd183 O193 2.240 . S
Cd184 O185 2.240 . S
Cd184 O192 2.223 . S
Cd184 O194 2.297 . S
Cd184 O195 2.439 . S
O185 Cd184 2.240 . S
O185 C190 1.279 . S
O186 Cd183 2.297 . S
O186 C188 1.247 . S
O187 Cd183 2.439 . S
O187 C188 1.208 . S
C188 O186 1.247 . S
C188 O187 1.208 . S
C189 O194 1.247 . S
C189 O195 1.208 . S
C190 O182 1.315 . S
C190 O185 1.279 . S
C191 O192 1.315 . S
C191 O193 1.279 . S
O192 Cd184 2.223 . S
O192 C191 1.315 . S
O193 Cd183 2.240 . S
O193 C191 1.279 . S
O194 Cd184 2.297 . S
O194 C189 1.247 . S
O195 Cd184 2.439 . S
O195 C189 1.208 . S
O196 Cd197 2.223 . S
O196 C204 1.315 . S
Cd197 O196 2.223 . S
Cd197 O200 2.297 . S
Cd197 O201 2.439 . S
Cd197 O207 2.240 . S
Cd198 O199 2.240 . S
Cd198 O206 2.223 . S
Cd198 O208 2.297 . S
Cd198 O209 2.439 . S
O199 Cd198 2.240 . S
O199 C204 1.279 . S
O200 Cd197 2.297 . S
O200 C202 1.247 . S
O201 Cd197 2.439 . S
O201 C202 1.208 . S
C202 O200 1.247 . S
C202 O201 1.208 . S
C203 O208 1.247 . S
C203 O209 1.208 . S
C204 O196 1.315 . S
C204 O199 1.279 . S
C205 O206 1.315 . S
C205 O207 1.279 . S
O206 Cd198 2.223 . S
O206 C205 1.315 . S
O207 Cd197 2.240 . S
O207 C205 1.279 . S
O208 Cd198 2.297 . S
O208 C203 1.247 . S
O209 Cd198 2.439 . S
O209 C203 1.208 . S
O210 Cd211 2.223 . S
O210 C218 1.315 . S
Cd211 O210 2.223 . S
Cd211 O214 2.297 . S
Cd211 O215 2.439 . S
Cd211 O221 2.240 . S
Cd212 O213 2.240 . S
Cd212 O220 2.223 . S
Cd212 O222 2.297 . S
Cd212 O223 2.439 . S
O213 Cd212 2.240 . S
O213 C218 1.279 . S
O214 Cd211 2.297 . S
O214 C216 1.247 . S
O215 Cd211 2.439 . S
O215 C216 1.208 . S
C216 O214 1.247 . S
C216 O215 1.208 . S
C217 O222 1.247 . S
C217 O223 1.208 . S
C218 O210 1.315 . S
C218 O213 1.279 . S
C219 O220 1.315 . S
C219 O221 1.279 . S
O220 Cd212 2.223 . S
O220 C219 1.315 . S
O221 Cd211 2.240 . S
O221 C219 1.279 . S
O222 Cd212 2.297 . S
O222 C217 1.247 . S
O223 Cd212 2.439 . S
O223 C217 1.208 . S
H224 C232 0.950 . S
H225 C237 0.950 . S
H226 C234 0.950 . S
H227 C236 0.950 . S
H228 C238 0.950 . S
H229 C240 0.950 . S
H230 C242 0.950 . S
H231 C243 0.950 . S
C232 H224 0.950 . S
C232 C233 1.386 . S
C232 C234 1.391 . S
C233 C232 1.386 . S
C233 C237 1.393 . S
C234 H226 0.950 . S
C234 C232 1.391 . S
C234 C235 1.400 . S
C235 C234 1.400 . S
C235 C236 1.398 . S
C235 C241 1.491 . S
C236 H227 0.950 . S
C236 C235 1.398 . S
C236 C237 1.391 . S
C237 H225 0.950 . S
C237 C233 1.393 . S
C237 C236 1.391 . S
C238 H228 0.950 . S
C238 C239 1.386 . S
C238 C240 1.391 . S
C239 C238 1.386 . S
C239 C243 1.393 . S
C240 H229 0.950 . S
C240 C238 1.391 . S
C240 C241 1.400 . S
C241 C235 1.491 . S
C241 C240 1.400 . S
C241 C242 1.398 . S
C242 H230 0.950 . S
C242 C241 1.398 . S
C242 C243 1.391 . S
C243 H231 0.950 . S
C243 C239 1.393 . S
C243 C242 1.391 . S
H244 C252 0.950 . S
H245 C257 0.950 . S
H246 C254 0.950 . S
H247 C256 0.950 . S
H248 C258 0.950 . S
H249 C260 0.950 . S
H250 C262 0.950 . S
H251 C263 0.950 . S
C252 H244 0.950 . S
C252 C253 1.386 . S
C252 C254 1.391 . S
C253 C252 1.386 . S
C253 C257 1.393 . S
C254 H246 0.950 . S
C254 C252 1.391 . S
C254 C255 1.400 . S
C255 C254 1.400 . S
C255 C256 1.398 . S
C255 C261 1.491 . S
C256 H247 0.950 . S
C256 C255 1.398 . S
C256 C257 1.391 . S
C257 H245 0.950 . S
C257 C253 1.393 . S
C257 C256 1.391 . S
C258 H248 0.950 . S
C258 C259 1.386 . S
C258 C260 1.391 . S
C259 C258 1.386 . S
C259 C263 1.393 . S
C260 H249 0.950 . S
C260 C258 1.391 . S
C260 C261 1.400 . S
C261 C255 1.491 . S
C261 C260 1.400 . S
C261 C262 1.398 . S
C262 H250 0.950 . S
C262 C261 1.398 . S
C262 C263 1.391 . S
C263 H251 0.950 . S
C263 C259 1.393 . S
C263 C262 1.391 . S
H264 C272 0.950 . S
H265 C277 0.950 . S
H266 C274 0.950 . S
H267 C276 0.950 . S
H268 C278 0.950 . S
H269 C280 0.950 . S
H270 C282 0.950 . S
H271 C283 0.950 . S
C272 H264 0.950 . S
C272 C273 1.386 . S
C272 C274 1.391 . S
C273 C272 1.386 . S
C273 C277 1.393 . S
C274 H266 0.950 . S
C274 C272 1.391 . S
C274 C275 1.400 . S
C275 C274 1.400 . S
C275 C276 1.398 . S
C275 C281 1.491 . S
C276 H267 0.950 . S
C276 C275 1.398 . S
C276 C277 1.391 . S
C277 H265 0.950 . S
C277 C273 1.393 . S
C277 C276 1.391 . S
C278 H268 0.950 . S
C278 C279 1.386 . S
C278 C280 1.391 . S
C279 C278 1.386 . S
C279 C283 1.393 . S
C280 H269 0.950 . S
C280 C278 1.391 . S
C280 C281 1.400 . S
C281 C275 1.491 . S
C281 C280 1.400 . S
C281 C282 1.398 . S
C282 H270 0.950 . S
C282 C281 1.398 . S
C282 C283 1.391 . S
C283 H271 0.950 . S
C283 C279 1.393 . S
C283 C282 1.391 . S
H284 C292 0.950 . S
H285 C297 0.950 . S
H286 C294 0.950 . S
H287 C296 0.950 . S
H288 C298 0.950 . S
H289 C300 0.950 . S
H290 C302 0.953 . S
H291 C303 0.950 . S
C292 H284 0.950 . S
C292 C293 1.386 . S
C292 C294 1.391 . S
C293 C292 1.386 . S
C293 C297 1.393 . S
C294 H286 0.950 . S
C294 C292 1.391 . S
C294 C295 1.400 . S
C295 C294 1.400 . S
C295 C296 1.398 . S
C295 C301 1.491 . S
C296 H287 0.950 . S
C296 C295 1.398 . S
C296 C297 1.391 . S
C297 H285 0.950 . S
C297 C293 1.393 . S
C297 C296 1.391 . S
C298 H288 0.950 . S
C298 C299 1.386 1_655 S
C298 C300 1.391 . S
C299 C298 1.386 1_455 S
C299 C303 1.393 . S
C300 H289 0.950 . S
C300 C298 1.391 . S
C300 C301 1.400 . S
C301 C295 1.491 . S
C301 C300 1.400 . S
C301 C302 1.389 1_655 S
C302 H290 0.953 . S
C302 C301 1.389 1_455 S
C302 C303 1.398 . S
C303 H291 0.950 . S
C303 C299 1.393 . S
C303 C302 1.398 . S
H304 C312 0.950 . S
H305 C317 0.950 . S
H306 C314 0.940 1_554 S
H307 C316 0.950 . S
H308 C318 0.950 . S
H309 C320 0.950 . S
H310 C322 0.950 1_554 S
H311 C323 0.950 1_554 S
C312 H304 0.950 . S
C312 C313 1.386 . S
C312 C314 1.391 . S
C313 C312 1.386 . S
C313 C317 1.393 . S
C314 H306 0.940 1_556 S
C314 C312 1.391 . S
C314 C315 1.400 . S
C315 C314 1.400 . S
C315 C316 1.398 . S
C315 C321 1.491 . S
C316 H307 0.950 . S
C316 C315 1.398 . S
C316 C317 1.391 . S
C317 H305 0.950 . S
C317 C313 1.393 . S
C317 C316 1.391 . S
C318 H308 0.950 . S
C318 C319 1.386 . S
C318 C320 1.391 . S
C319 C318 1.386 . S
C319 C323 1.393 . S
C320 H309 0.950 . S
C320 C318 1.391 . S
C320 C321 1.400 . S
C321 C315 1.491 . S
C321 C320 1.400 . S
C321 C322 1.398 . S
C322 H310 0.950 1_556 S
C322 C321 1.398 . S
C322 C323 1.391 . S
C323 H311 0.950 1_556 S
C323 C319 1.393 . S
C323 C322 1.391 . S
H324 C332 0.950 . S
H325 C337 0.950 . S
H326 C334 0.943 1_455 S
H327 C336 0.950 . S
H328 C338 0.950 . S
H329 C340 0.950 . S
H330 C342 0.950 . S
H331 C343 0.950 . S
C332 H324 0.950 . S
C332 C333 1.386 . S
C332 C334 1.391 1_455 S
C333 C332 1.386 . S
C333 C337 1.393 1_455 S
C334 H326 0.943 1_655 S
C334 C332 1.391 1_655 S
C334 C335 1.400 . S
C335 C334 1.400 . S
C335 C336 1.398 . S
C335 C341 1.491 . S
C336 H327 0.950 . S
C336 C335 1.398 . S
C336 C337 1.391 . S
C337 H325 0.950 . S
C337 C333 1.393 1_655 S
C337 C336 1.391 . S
C338 H328 0.950 . S
C338 C339 1.386 . S
C338 C340 1.391 . S
C339 C338 1.386 . S
C339 C343 1.393 . S
C340 H329 0.950 . S
C340 C338 1.391 . S
C340 C341 1.400 . S
C341 C335 1.491 . S
C341 C340 1.400 . S
C341 C342 1.398 . S
C342 H330 0.950 . S
C342 C341 1.398 . S
C342 C343 1.391 . S
C343 H331 0.950 . S
C343 C339 1.393 . S
C343 C342 1.391 . S
H344 C352 0.950 . S
H345 C357 0.950 . S
H346 C354 0.950 . S
H347 C356 0.950 . S
H348 C358 0.950 . S
H349 C360 0.950 . S
H350 C362 0.950 . S
H351 C363 0.950 . S
C352 H344 0.950 . S
C352 C353 1.386 . S
C352 C354 1.391 . S
C353 C352 1.386 . S
C353 C357 1.393 . S
C354 H346 0.950 . S
C354 C352 1.391 . S
C354 C355 1.400 . S
C355 C354 1.400 . S
C355 C356 1.398 . S
C355 C361 1.491 . S
C356 H347 0.950 . S
C356 C355 1.398 . S
C356 C357 1.391 . S
C357 H345 0.950 . S
C357 C353 1.393 . S
C357 C356 1.391 . S
C358 H348 0.950 . S
C358 C359 1.386 . S
C358 C360 1.391 . S
C359 C358 1.386 . S
C359 C363 1.393 . S
C360 H349 0.950 . S
C360 C358 1.391 . S
C360 C361 1.400 . S
C361 C355 1.491 . S
C361 C360 1.400 . S
C361 C362 1.398 . S
C362 H350 0.950 . S
C362 C361 1.398 . S
C362 C363 1.391 . S
C363 H351 0.950 . S
C363 C359 1.393 . S
C363 C362 1.391 . S
H364 C372 0.950 . S
H365 C377 0.950 . S
H366 C374 0.950 . S
H367 C376 0.950 . S
H368 C378 0.950 . S
H369 C380 0.950 . S
H370 C382 0.950 . S
H371 C383 0.950 . S
C372 H364 0.950 . S
C372 C373 1.386 . S
C372 C374 1.391 . S
C373 C372 1.386 . S
C373 C377 1.393 . S
C374 H366 0.950 . S
C374 C372 1.391 . S
C374 C375 1.400 . S
C375 C374 1.400 . S
C375 C376 1.398 . S
C375 C381 1.491 . S
C376 H367 0.950 . S
C376 C375 1.398 . S
C376 C377 1.391 . S
C377 H365 0.950 . S
C377 C373 1.393 . S
C377 C376 1.391 . S
C378 H368 0.950 . S
C378 C379 1.386 . S
C378 C380 1.391 . S
C379 C378 1.386 . S
C379 C383 1.393 . S
C380 H369 0.950 . S
C380 C378 1.391 . S
C380 C381 1.400 . S
C381 C375 1.491 . S
C381 C380 1.400 . S
C381 C382 1.398 . S
C382 H370 0.950 . S
C382 C381 1.398 . S
C382 C383 1.391 . S
C383 H371 0.950 . S
C383 C379 1.393 . S
C383 C382 1.391 . S
H384 C392 0.950 . S
H385 C397 0.950 . S
H386 C394 0.950 . S
H387 C396 0.950 . S
H388 C398 0.950 . S
H389 C400 0.950 . S
H390 C402 0.950 1_454 S
H391 C403 0.950 . S
C392 H384 0.950 . S
C392 C393 1.386 . S
C392 C394 1.391 . S
C393 C392 1.386 . S
C393 C397 1.393 . S
C394 H386 0.950 . S
C394 C392 1.391 . S
C394 C395 1.420 . S
C395 C394 1.420 . S
C395 C396 1.392 1_455 S
C395 C401 1.477 1_455 S
C396 H387 0.950 . S
C396 C395 1.392 1_655 S
C396 C397 1.391 1_655 S
C397 H385 0.950 . S
C397 C393 1.393 . S
C397 C396 1.391 1_455 S
C398 H388 0.950 . S
C398 C399 1.386 . S
C398 C400 1.391 . S
C399 C398 1.386 . S
C399 C403 1.393 1_556 S
C400 H389 0.950 . S
C400 C398 1.391 . S
C400 C401 1.400 . S
C401 C395 1.477 1_655 S
C401 C400 1.400 . S
C401 C402 1.398 . S
C402 H390 0.950 1_656 S
C402 C401 1.398 . S
C402 C403 1.391 1_556 S
C403 H391 0.950 . S
C403 C399 1.393 1_554 S
C403 C402 1.391 1_554 S
H404 C412 0.950 . S
H405 C417 0.950 . S
H406 C414 0.950 . S
H407 C416 0.950 . S
H408 C418 0.950 . S
H409 C420 0.950 . S
H410 C422 0.950 . S
H411 C423 0.950 . S
C412 H404 0.950 . S
C412 C413 1.386 . S
C412 C414 1.391 . S
C413 C412 1.386 . S
C413 C417 1.393 . S
C414 H406 0.950 . S
C414 C412 1.391 . S
C414 C415 1.400 . S
C415 C414 1.400 . S
C415 C416 1.398 . S
C415 C421 1.491 . S
C416 H407 0.950 . S
C416 C415 1.398 . S
C416 C417 1.391 . S
C417 H405 0.950 . S
C417 C413 1.393 . S
C417 C416 1.391 . S
C418 H408 0.950 . S
C418 C419 1.386 . S
C418 C420 1.391 . S
C419 C418 1.386 . S
C419 C423 1.393 . S
C420 H409 0.950 . S
C420 C418 1.391 . S
C420 C421 1.400 . S
C421 C415 1.491 . S
C421 C420 1.400 . S
C421 C422 1.398 . S
C422 H410 0.950 . S
C422 C421 1.398 . S
C422 C423 1.391 . S
C423 H411 0.950 . S
C423 C419 1.393 . S
C423 C422 1.391 . S
H424 C432 0.950 . S
H425 C437 0.950 . S
H426 C434 0.950 . S
H427 C436 0.950 . S
H428 C438 0.950 . S
H429 C440 0.950 . S
H430 C442 0.950 . S
H431 C443 0.950 . S
C432 H424 0.950 . S
C432 C433 1.386 . S
C432 C434 1.391 . S
C433 C432 1.386 . S
C433 C437 1.393 . S
C434 H426 0.950 . S
C434 C432 1.391 . S
C434 C435 1.400 . S
C435 C434 1.400 . S
C435 C436 1.398 . S
C435 C441 1.491 . S
C436 H427 0.950 . S
C436 C435 1.398 . S
C436 C437 1.391 . S
C437 H425 0.950 . S
C437 C433 1.393 . S
C437 C436 1.391 . S
C438 H428 0.950 . S
C438 C439 1.386 . S
C438 C440 1.391 . S
C439 C438 1.386 . S
C439 C443 1.393 . S
C440 H429 0.950 . S
C440 C438 1.391 . S
C440 C441 1.400 . S
C441 C435 1.491 . S
C441 C440 1.400 . S
C441 C442 1.398 . S
C442 H430 0.950 . S
C442 C441 1.398 . S
C442 C443 1.391 . S
C443 H431 0.950 . S
C443 C439 1.393 . S
C443 C442 1.391 . S
H444 C452 0.950 . S
H445 C457 0.950 . S
H446 C454 0.950 . S
H447 C456 0.950 . S
H448 C458 0.950 . S
H449 C460 0.950 . S
H450 C462 0.950 . S
H451 C463 0.950 . S
C452 H444 0.950 . S
C452 C453 1.386 . S
C452 C454 1.391 . S
C453 C452 1.386 . S
C453 C457 1.393 . S
C454 H446 0.950 . S
C454 C452 1.391 . S
C454 C455 1.400 . S
C455 C454 1.400 . S
C455 C456 1.398 . S
C455 C461 1.491 . S
C456 H447 0.950 . S
C456 C455 1.398 . S
C456 C457 1.391 . S
C457 H445 0.950 . S
C457 C453 1.393 . S
C457 C456 1.391 . S
C458 H448 0.950 . S
C458 C459 1.386 . S
C458 C460 1.391 . S
C459 C458 1.386 . S
C459 C463 1.393 . S
C460 H449 0.950 . S
C460 C458 1.391 . S
C460 C461 1.400 . S
C461 C455 1.491 . S
C461 C460 1.400 . S
C461 C462 1.398 . S
C462 H450 0.950 . S
C462 C461 1.398 . S
C462 C463 1.391 . S
C463 H451 0.950 . S
C463 C459 1.393 . S
C463 C462 1.391 . S
H464 C472 0.950 . S
H465 C477 0.950 . S
H466 C474 0.950 . S
H467 C476 0.950 . S
H468 C478 0.950 . S
H469 C480 0.950 . S
H470 C482 0.915 1_455 S
H471 C483 0.950 . S
C472 H464 0.950 . S
C472 C473 1.386 . S
C472 C474 1.391 . S
C473 C472 1.386 . S
C473 C477 1.393 . S
C474 H466 0.950 . S
C474 C472 1.391 . S
C474 C475 1.411 . S
C475 C474 1.411 . S
C475 C476 1.396 1_455 S
C475 C481 1.482 1_455 S
C476 H467 0.950 . S
C476 C475 1.396 1_655 S
C476 C477 1.391 1_655 S
C477 H465 0.950 . S
C477 C473 1.393 . S
C477 C476 1.391 1_455 S
C478 H468 0.950 . S
C478 C479 1.386 . S
C478 C480 1.391 . S
C479 C478 1.386 . S
C479 C483 1.393 . S
C480 H469 0.950 . S
C480 C478 1.391 . S
C480 C481 1.400 . S
C481 C475 1.482 1_655 S
C481 C480 1.400 . S
C481 C482 1.398 . S
C482 H470 0.915 1_655 S
C482 C481 1.398 . S
C482 C483 1.391 . S
C483 H471 0.950 . S
C483 C479 1.393 . S
C483 C482 1.391 . S
H484 C492 0.950 . S
H485 C497 0.950 . S
H486 C494 0.950 . S
H487 C496 0.950 . S
H488 C498 0.950 1_554 S
H489 C500 0.950 . S
H490 C502 0.950 . S
H491 C503 0.950 . S
C492 H484 0.950 . S
C492 C493 1.386 . S
C492 C494 1.391 . S
C493 C492 1.386 . S
C493 C497 1.393 . S
C494 H486 0.950 . S
C494 C492 1.391 . S
C494 C495 1.400 . S
C495 C494 1.400 . S
C495 C496 1.398 . S
C495 C501 1.491 . S
C496 H487 0.950 . S
C496 C495 1.398 . S
C496 C497 1.391 . S
C497 H485 0.950 . S
C497 C493 1.393 . S
C497 C496 1.391 . S
C498 H488 0.950 1_556 S
C498 C499 1.387 . S
C498 C500 1.391 . S
C499 C498 1.387 . S
C499 C503 1.399 . S
C500 H489 0.950 . S
C500 C498 1.391 . S
C500 C501 1.400 . S
C501 C495 1.491 . S
C501 C500 1.400 . S
C501 C502 1.398 . S
C502 H490 0.950 . S
C502 C501 1.398 . S
C502 C503 1.391 . S
C503 H491 0.950 . S
C503 C499 1.399 . S
C503 C502 1.391 . S
H504 C512 0.950 . S
H505 C517 0.950 . S
H506 C514 0.950 . S
H507 C516 0.950 . S
H508 C518 0.950 . S
H509 C520 0.950 . S
H510 C522 0.950 . S
H511 C523 0.950 . S
C512 H504 0.950 . S
C512 C513 1.386 . S
C512 C514 1.391 . S
C513 C512 1.386 . S
C513 C517 1.393 . S
C514 H506 0.950 . S
C514 C512 1.391 . S
C514 C515 1.400 . S
C515 C514 1.400 . S
C515 C516 1.398 . S
C515 C521 1.491 . S
C516 H507 0.950 . S
C516 C515 1.398 . S
C516 C517 1.391 . S
C517 H505 0.950 . S
C517 C513 1.393 . S
C517 C516 1.391 . S
C518 H508 0.950 . S
C518 C519 1.386 . S
C518 C520 1.391 . S
C519 C518 1.386 . S
C519 C523 1.393 . S
C520 H509 0.950 . S
C520 C518 1.391 . S
C520 C521 1.400 . S
C521 C515 1.491 . S
C521 C520 1.400 . S
C521 C522 1.398 . S
C522 H510 0.950 . S
C522 C521 1.398 . S
C522 C523 1.391 . S
C523 H511 0.950 . S
C523 C519 1.393 . S
C523 C522 1.391 . S
H524 C532 0.950 . S
H525 C537 0.950 . S
H526 C534 0.950 . S
H527 C536 0.950 . S
H528 C538 0.950 . S
H529 C540 0.950 . S
H530 C542 0.950 . S
H531 C543 0.950 . S
C532 H524 0.950 . S
C532 C533 1.386 . S
C532 C534 1.391 . S
C533 C532 1.386 . S
C533 C537 1.393 . S
C534 H526 0.950 . S
C534 C532 1.391 . S
C534 C535 1.400 . S
C535 C534 1.400 . S
C535 C536 1.398 . S
C535 C541 1.491 . S
C536 H527 0.950 . S
C536 C535 1.398 . S
C536 C537 1.391 . S
C537 H525 0.950 . S
C537 C533 1.393 . S
C537 C536 1.391 . S
C538 H528 0.950 . S
C538 C539 1.386 . S
C538 C540 1.391 . S
C539 C538 1.386 . S
C539 C543 1.393 . S
C540 H529 0.950 . S
C540 C538 1.391 . S
C540 C541 1.400 . S
C541 C535 1.491 . S
C541 C540 1.400 . S
C541 C542 1.398 . S
C542 H530 0.950 . S
C542 C541 1.398 . S
C542 C543 1.391 . S
C543 H531 0.950 . S
C543 C539 1.393 . S
C543 C542 1.391 . S
H544 C552 0.950 . S
H545 C557 0.950 . S
H546 C554 0.950 . S
H547 C556 0.950 . S
H548 C558 0.950 . S
H549 C560 0.950 . S
H550 C562 0.950 . S
H551 C563 0.950 . S
C552 H544 0.950 . S
C552 C553 1.386 . S
C552 C554 1.391 . S
C553 C552 1.386 . S
C553 C557 1.393 . S
C554 H546 0.950 . S
C554 C552 1.391 . S
C554 C555 1.400 . S
C555 C554 1.400 . S
C555 C556 1.398 . S
C555 C561 1.491 . S
C556 H547 0.950 . S
C556 C555 1.398 . S
C556 C557 1.391 . S
C557 H545 0.950 . S
C557 C553 1.393 . S
C557 C556 1.391 . S
C558 H548 0.950 . S
C558 C559 1.386 . S
C558 C560 1.391 1_556 S
C559 C558 1.386 . S
C559 C563 1.393 . S
C560 H549 0.950 . S
C560 C558 1.391 1_554 S
C560 C561 1.400 . S
C561 C555 1.491 . S
C561 C560 1.400 . S
C561 C562 1.398 . S
C562 H550 0.950 . S
C562 C561 1.398 . S
C562 C563 1.391 1_554 S
C563 H551 0.950 . S
C563 C559 1.393 . S
C563 C562 1.391 1_556 S
H564 C572 0.950 . S
H565 C577 0.950 . S
H566 C574 0.950 . S
H567 C576 0.950 . S
H568 C578 0.950 . S
H569 C580 0.950 . S
H570 C582 0.950 . S
H571 C583 0.950 . S
C572 H564 0.950 . S
C572 C573 1.386 . S
C572 C574 1.391 . S
C573 C572 1.386 . S
C573 C577 1.393 . S
C574 H566 0.950 . S
C574 C572 1.391 . S
C574 C575 1.400 . S
C575 C574 1.400 . S
C575 C576 1.398 . S
C575 C581 1.491 . S
C576 H567 0.950 . S
C576 C575 1.398 . S
C576 C577 1.391 . S
C577 H565 0.950 . S
C577 C573 1.393 . S
C577 C576 1.391 . S
C578 H568 0.950 . S
C578 C579 1.386 . S
C578 C580 1.391 . S
C579 C578 1.386 . S
C579 C583 1.393 . S
C580 H569 0.950 . S
C580 C578 1.391 . S
C580 C581 1.400 . S
C581 C575 1.491 . S
C581 C580 1.400 . S
C581 C582 1.398 . S
C582 H570 0.950 . S
C582 C581 1.398 . S
C582 C583 1.391 . S
C583 H571 0.950 . S
C583 C579 1.393 . S
C583 C582 1.391 . S
H584 C592 0.950 . S
H585 C597 0.950 . S
H586 C594 0.950 . S
H587 C596 0.950 . S
H588 C598 0.950 . S
H589 C600 0.950 . S
H590 C602 0.950 . S
H591 C603 0.950 . S
C592 H584 0.950 . S
C592 C593 1.386 . S
C592 C594 1.391 . S
C593 C592 1.386 . S
C593 C597 1.393 . S
C594 H586 0.950 . S
C594 C592 1.391 . S
C594 C595 1.400 . S
C595 C594 1.400 . S
C595 C596 1.398 . S
C595 C601 1.491 . S
C596 H587 0.950 . S
C596 C595 1.398 . S
C596 C597 1.391 . S
C597 H585 0.950 . S
C597 C593 1.393 . S
C597 C596 1.391 . S
C598 H588 0.950 . S
C598 C599 1.386 . S
C598 C600 1.391 . S
C599 C598 1.386 . S
C599 C603 1.393 . S
C600 H589 0.950 . S
C600 C598 1.391 . S
C600 C601 1.400 . S
C601 C595 1.491 . S
C601 C600 1.400 . S
C601 C602 1.398 . S
C602 H590 0.950 . S
C602 C601 1.398 . S
C602 C603 1.391 . S
C603 H591 0.950 . S
C603 C599 1.393 . S
C603 C602 1.391 . S
H604 C612 0.950 . S
H605 C617 0.950 . S
H606 C614 0.950 . S
H607 C616 0.950 . S
H608 C618 0.950 . S
H609 C620 0.950 . S
H610 C622 0.950 . S
H611 C623 0.950 . S
C612 H604 0.950 . S
C612 C613 1.386 . S
C612 C614 1.391 . S
C613 C612 1.386 . S
C613 C617 1.393 . S
C614 H606 0.950 . S
C614 C612 1.391 . S
C614 C615 1.400 . S
C615 C614 1.400 . S
C615 C616 1.398 . S
C615 C621 1.491 . S
C616 H607 0.950 . S
C616 C615 1.398 . S
C616 C617 1.391 . S
C617 H605 0.950 . S
C617 C613 1.393 . S
C617 C616 1.391 . S
C618 H608 0.950 . S
C618 C619 1.386 . S
C618 C620 1.391 . S
C619 C618 1.386 . S
C619 C623 1.393 . S
C620 H609 0.950 . S
C620 C618 1.391 . S
C620 C621 1.400 . S
C621 C615 1.491 . S
C621 C620 1.400 . S
C621 C622 1.398 . S
C622 H610 0.950 . S
C622 C621 1.398 . S
C622 C623 1.391 . S
C623 H611 0.950 . S
C623 C619 1.393 . S
C623 C622 1.391 . S
H624 C632 0.950 . S
H625 C637 0.950 . S
H626 C634 0.950 . S
H627 C636 0.950 . S
H628 C638 0.950 . S
H629 C640 0.950 . S
H630 C642 0.950 . S
H631 C643 0.950 . S
C632 H624 0.950 . S
C632 C633 1.386 . S
C632 C634 1.391 . S
C633 C632 1.386 . S
C633 C637 1.393 . S
C634 H626 0.950 . S
C634 C632 1.391 . S
C634 C635 1.400 . S
C635 C634 1.400 . S
C635 C636 1.398 . S
C635 C641 1.491 . S
C636 H627 0.950 . S
C636 C635 1.398 . S
C636 C637 1.391 . S
C637 H625 0.950 . S
C637 C633 1.393 . S
C637 C636 1.391 . S
C638 H628 0.950 . S
C638 C639 1.386 . S
C638 C640 1.391 . S
C639 C638 1.386 . S
C639 C643 1.393 . S
C640 H629 0.950 . S
C640 C638 1.391 . S
C640 C641 1.400 . S
C641 C635 1.491 . S
C641 C640 1.400 . S
C641 C642 1.398 . S
C642 H630 0.950 . S
C642 C641 1.398 . S
C642 C643 1.391 . S
C643 H631 0.950 . S
C643 C639 1.393 . S
C643 C642 1.391 . S
H644 C652 0.950 . S
H645 C657 0.950 . S
H646 C654 0.950 . S
H647 C656 0.950 . S
H648 C658 0.950 . S
H649 C660 0.950 . S
H650 C662 0.950 . S
H651 C663 0.950 . S
C652 H644 0.950 . S
C652 C653 1.386 . S
C652 C654 1.391 . S
C653 C652 1.386 . S
C653 C657 1.393 . S
C654 H646 0.950 . S
C654 C652 1.391 . S
C654 C655 1.400 . S
C655 C654 1.400 . S
C655 C656 1.398 . S
C655 C661 1.491 . S
C656 H647 0.950 . S
C656 C655 1.398 . S
C656 C657 1.391 . S
C657 H645 0.950 . S
C657 C653 1.393 . S
C657 C656 1.391 . S
C658 H648 0.950 . S
C658 C659 1.386 . S
C658 C660 1.391 . S
C659 C658 1.386 . S
C659 C663 1.393 . S
C660 H649 0.950 . S
C660 C658 1.391 . S
C660 C661 1.400 . S
C661 C655 1.491 . S
C661 C660 1.400 . S
C661 C662 1.398 . S
C662 H650 0.950 . S
C662 C661 1.398 . S
C662 C663 1.391 . S
C663 H651 0.950 . S
C663 C659 1.393 . S
C663 C662 1.391 . S
H664 C672 0.950 . S
H665 C677 0.950 . S
H666 C674 0.950 1_545 S
H667 C676 0.950 . S
H668 C678 0.950 . S
H669 C680 0.950 1_565 S
H670 C682 0.950 . S
H671 C683 0.950 . S
C672 H664 0.950 . S
C672 C673 1.386 . S
C672 C674 1.391 . S
C673 C672 1.386 . S
C673 C677 1.393 . S
C674 H666 0.950 1_565 S
C674 C672 1.391 . S
C674 C675 1.400 . S
C675 C674 1.400 . S
C675 C676 1.398 . S
C675 C681 1.491 1_565 S
C676 H667 0.950 . S
C676 C675 1.398 . S
C676 C677 1.391 . S
C677 H665 0.950 . S
C677 C673 1.393 . S
C677 C676 1.391 . S
C678 H668 0.950 . S
C678 C679 1.386 . S
C678 C680 1.391 . S
C679 C678 1.386 . S
C679 C683 1.393 . S
C680 H669 0.950 1_545 S
C680 C678 1.391 . S
C680 C681 1.400 . S
C681 C675 1.491 1_545 S
C681 C680 1.400 . S
C681 C682 1.398 . S
C682 H670 0.950 . S
C682 C681 1.398 . S
C682 C683 1.391 . S
C683 H671 0.950 . S
C683 C679 1.393 . S
C683 C682 1.391 . S
H684 C692 0.950 . S
H685 C697 0.950 . S
H686 C694 0.950 . S
H687 C696 0.950 1_565 S
H688 C698 0.950 . S
H689 C700 0.950 . S
H690 C702 0.950 1_545 S
H691 C703 0.950 . S
C692 H684 0.950 . S
C692 C693 1.386 1_554 S
C692 C694 1.391 . S
C693 C692 1.386 1_556 S
C693 C697 1.393 . S
C694 H686 0.950 . S
C694 C692 1.391 . S
C694 C695 1.400 . S
C695 C694 1.400 . S
C695 C696 1.398 1_554 S
C695 C701 1.491 1_545 S
C696 H687 0.950 1_545 S
C696 C695 1.398 1_556 S
C696 C697 1.391 . S
C697 H685 0.950 . S
C697 C693 1.393 . S
C697 C696 1.391 . S
C698 H688 0.950 . S
C698 C699 1.386 . S
C698 C700 1.391 . S
C699 C698 1.386 . S
C699 C703 1.393 . S
C700 H689 0.950 . S
C700 C698 1.391 . S
C700 C701 1.400 . S
C701 C695 1.491 1_565 S
C701 C700 1.400 . S
C701 C702 1.398 . S
C702 H690 0.950 1_565 S
C702 C701 1.398 . S
C702 C703 1.391 . S
C703 H691 0.950 . S
C703 C699 1.393 . S
C703 C702 1.391 . S
H704 C712 0.950 . S
H705 C717 0.950 . S
H706 C714 0.950 . S
H707 C716 0.950 . S
H708 C718 0.950 . S
H709 C720 0.950 . S
H710 C722 0.950 . S
H711 C723 0.950 . S
C712 H704 0.950 . S
C712 C713 1.386 . S
C712 C714 1.391 . S
C713 C712 1.386 . S
C713 C717 1.393 . S
C714 H706 0.950 . S
C714 C712 1.391 . S
C714 C715 1.400 . S
C715 C714 1.400 . S
C715 C716 1.398 . S
C715 C721 1.491 . S
C716 H707 0.950 . S
C716 C715 1.398 . S
C716 C717 1.391 . S
C717 H705 0.950 . S
C717 C713 1.393 . S
C717 C716 1.391 . S
C718 H708 0.950 . S
C718 C719 1.386 . S
C718 C720 1.391 . S
C719 C718 1.386 . S
C719 C723 1.393 . S
C720 H709 0.950 . S
C720 C718 1.391 . S
C720 C721 1.400 . S
C721 C715 1.491 . S
C721 C720 1.400 . S
C721 C722 1.398 . S
C722 H710 0.950 . S
C722 C721 1.398 . S
C722 C723 1.391 . S
C723 H711 0.950 . S
C723 C719 1.393 . S
C723 C722 1.391 . S
H724 C732 0.950 . S
H725 C737 0.950 . S
H726 C734 0.950 . S
H727 C736 0.950 . S
H728 C738 0.950 . S
H729 C740 0.950 . S
H730 C742 0.950 . S
H731 C743 0.950 . S
C732 H724 0.950 . S
C732 C733 1.386 . S
C732 C734 1.391 . S
C733 C732 1.386 . S
C733 C737 1.393 . S
C734 H726 0.950 . S
C734 C732 1.391 . S
C734 C735 1.400 . S
C735 C734 1.400 . S
C735 C736 1.398 . S
C735 C741 1.491 . S
C736 H727 0.950 . S
C736 C735 1.398 . S
C736 C737 1.391 . S
C737 H725 0.950 . S
C737 C733 1.393 . S
C737 C736 1.391 . S
C738 H728 0.950 . S
C738 C739 1.386 . S
C738 C740 1.391 . S
C739 C738 1.386 . S
C739 C743 1.393 . S
C740 H729 0.950 . S
C740 C738 1.391 . S
C740 C741 1.400 . S
C741 C735 1.491 . S
C741 C740 1.400 . S
C741 C742 1.398 . S
C742 H730 0.950 . S
C742 C741 1.398 . S
C742 C743 1.391 . S
C743 H731 0.950 . S
C743 C739 1.393 . S
C743 C742 1.391 . S
H744 C752 0.950 . S
H745 C757 0.950 . S
H746 C754 0.950 . S
H747 C756 0.950 . S
H748 C758 0.950 . S
H749 C760 0.950 . S
H750 C762 0.950 . S
H751 C763 0.950 . S
C752 H744 0.950 . S
C752 C753 1.386 . S
C752 C754 1.391 . S
C753 C752 1.386 . S
C753 C757 1.393 . S
C754 H746 0.950 . S
C754 C752 1.391 . S
C754 C755 1.400 . S
C755 C754 1.400 . S
C755 C756 1.398 . S
C755 C761 1.491 . S
C756 H747 0.950 . S
C756 C755 1.398 . S
C756 C757 1.391 . S
C757 H745 0.950 . S
C757 C753 1.393 . S
C757 C756 1.391 . S
C758 H748 0.950 . S
C758 C759 1.386 . S
C758 C760 1.391 1_556 S
C759 C758 1.386 . S
C759 C763 1.393 . S
C760 H749 0.950 . S
C760 C758 1.391 1_554 S
C760 C761 1.400 . S
C761 C755 1.491 . S
C761 C760 1.400 . S
C761 C762 1.398 . S
C762 H750 0.950 . S
C762 C761 1.398 . S
C762 C763 1.391 1_554 S
C763 H751 0.950 . S
C763 C759 1.393 . S
C763 C762 1.391 1_556 S
H764 C772 0.950 . S
H765 C777 0.950 . S
H766 C774 0.950 . S
H767 C776 0.950 . S
H768 C778 0.950 . S
H769 C780 0.950 . S
H770 C782 0.950 . S
H771 C783 0.950 . S
C772 H764 0.950 . S
C772 C773 1.386 . S
C772 C774 1.391 . S
C773 C772 1.386 . S
C773 C777 1.393 . S
C774 H766 0.950 . S
C774 C772 1.391 . S
C774 C775 1.400 . S
C775 C774 1.400 . S
C775 C776 1.398 . S
C775 C781 1.491 . S
C776 H767 0.950 . S
C776 C775 1.398 . S
C776 C777 1.391 . S
C777 H765 0.950 . S
C777 C773 1.393 . S
C777 C776 1.391 . S
C778 H768 0.950 . S
C778 C779 1.386 . S
C778 C780 1.391 . S
C779 C778 1.386 . S
C779 C783 1.393 . S
C780 H769 0.950 . S
C780 C778 1.391 . S
C780 C781 1.400 . S
C781 C775 1.491 . S
C781 C780 1.400 . S
C781 C782 1.398 . S
C782 H770 0.950 . S
C782 C781 1.398 . S
C782 C783 1.391 . S
C783 H771 0.950 . S
C783 C779 1.393 . S
C783 C782 1.391 . S
H784 C792 0.950 . S
H785 C797 0.950 . S
H786 C794 0.950 . S
H787 C796 0.950 . S
H788 C798 0.950 . S
H789 C800 0.950 . S
H790 C802 0.950 . S
H791 C803 0.950 . S
C792 H784 0.950 . S
C792 C793 1.386 . S
C792 C794 1.391 . S
C793 C792 1.386 . S
C793 C797 1.393 . S
C794 H786 0.950 . S
C794 C792 1.391 . S
C794 C795 1.400 . S
C795 C794 1.400 . S
C795 C796 1.398 . S
C795 C801 1.491 . S
C796 H787 0.950 . S
C796 C795 1.398 . S
C796 C797 1.391 . S
C797 H785 0.950 . S
C797 C793 1.393 . S
C797 C796 1.391 . S
C798 H788 0.950 . S
C798 C799 1.386 . S
C798 C800 1.391 . S
C799 C798 1.386 . S
C799 C803 1.393 . S
C800 H789 0.950 . S
C800 C798 1.391 . S
C800 C801 1.400 . S
C801 C795 1.491 . S
C801 C800 1.400 . S
C801 C802 1.398 . S
C802 H790 0.950 . S
C802 C801 1.398 . S
C802 C803 1.391 . S
C803 H791 0.950 . S
C803 C799 1.393 . S
C803 C802 1.391 . S
H804 C812 0.950 . S
H805 C817 0.950 . S
H806 C814 0.950 . S
H807 C816 0.950 . S
H808 C818 0.950 . S
H809 C820 0.950 . S
H810 C822 0.950 . S
H811 C823 0.950 . S
C812 H804 0.950 . S
C812 C813 1.386 . S
C812 C814 1.391 . S
C813 C812 1.386 . S
C813 C817 1.393 . S
C814 H806 0.950 . S
C814 C812 1.391 . S
C814 C815 1.400 . S
C815 C814 1.400 . S
C815 C816 1.398 . S
C815 C821 1.491 . S
C816 H807 0.950 . S
C816 C815 1.398 . S
C816 C817 1.391 . S
C817 H805 0.950 . S
C817 C813 1.393 . S
C817 C816 1.391 . S
C818 H808 0.950 . S
C818 C819 1.386 . S
C818 C820 1.391 . S
C819 C818 1.386 . S
C819 C823 1.393 . S
C820 H809 0.950 . S
C820 C818 1.391 . S
C820 C821 1.400 . S
C821 C815 1.491 . S
C821 C820 1.400 . S
C821 C822 1.398 . S
C822 H810 0.950 . S
C822 C821 1.398 . S
C822 C823 1.391 . S
C823 H811 0.950 . S
C823 C819 1.393 . S
C823 C822 1.391 . S
H824 C832 0.950 . S
H825 C837 0.950 . S
H826 C834 0.950 1_545 S
H827 C836 0.950 . S
H828 C838 0.950 . S
H829 C840 0.950 1_565 S
H830 C842 0.950 . S
H831 C843 0.950 . S
C832 H824 0.950 . S
C832 C833 1.386 . S
C832 C834 1.391 . S
C833 C832 1.386 . S
C833 C837 1.393 . S
C834 H826 0.950 1_565 S
C834 C832 1.391 . S
C834 C835 1.400 . S
C835 C834 1.400 . S
C835 C836 1.398 . S
C835 C841 1.491 1_565 S
C836 H827 0.950 . S
C836 C835 1.398 . S
C836 C837 1.391 . S
C837 H825 0.950 . S
C837 C833 1.393 . S
C837 C836 1.391 . S
C838 H828 0.950 . S
C838 C839 1.386 . S
C838 C840 1.391 . S
C839 C838 1.386 . S
C839 C843 1.393 . S
C840 H829 0.950 1_545 S
C840 C838 1.391 . S
C840 C841 1.400 1_556 S
C841 C835 1.491 1_545 S
C841 C840 1.400 1_554 S
C841 C842 1.398 . S
C842 H830 0.950 . S
C842 C841 1.398 . S
C842 C843 1.391 1_554 S
C843 H831 0.950 . S
C843 C839 1.393 . S
C843 C842 1.391 1_556 S
H844 C852 0.950 . S
H845 C857 0.950 . S
H846 C854 0.950 1_565 S
H847 C856 0.950 . S
H848 C858 0.950 . S
H849 C860 0.950 1_545 S
H850 C862 0.950 . S
H851 C863 0.950 . S
C852 H844 0.950 . S
C852 C853 1.386 . S
C852 C854 1.391 . S
C853 C852 1.386 . S
C853 C857 1.393 . S
C854 H846 0.950 1_545 S
C854 C852 1.391 . S
C854 C855 1.400 . S
C855 C854 1.400 . S
C855 C856 1.398 . S
C855 C861 1.491 1_545 S
C856 H847 0.950 . S
C856 C855 1.398 . S
C856 C857 1.391 . S
C857 H845 0.950 . S
C857 C853 1.393 . S
C857 C856 1.391 . S
C858 H848 0.950 . S
C858 C859 1.386 . S
C858 C860 1.391 . S
C859 C858 1.386 . S
C859 C863 1.393 . S
C860 H849 0.950 1_565 S
C860 C858 1.391 . S
C860 C861 1.400 . S
C861 C855 1.491 1_565 S
C861 C860 1.400 . S
C861 C862 1.398 . S
C862 H850 0.950 . S
C862 C861 1.398 . S
C862 C863 1.391 . S
C863 H851 0.950 . S
C863 C859 1.393 . S
C863 C862 1.391 . S
C233 C135 1.334 . S
C239 C9 1.324 . S
C253 C205 1.326 . S
C259 C23 1.332 . S
C273 C37 1.320 . S
C279 C121 1.339 . S
C293 C51 1.335 . S
C299 C219 1.323 . S
C313 C65 1.321 . S
C319 C149 1.339 . S
C333 C191 1.335 . S
C339 C79 1.323 . S
C353 C163 1.334 . S
C359 C93 1.324 . S
C373 C107 1.339 . S
C379 C177 1.319 . S
C393 C63 1.628 . S
C399 C49 1.631 1_556 S
C413 C175 1.626 . S
C419 C119 1.628 . S
C433 C91 1.649 . S
C439 C21 1.645 . S
C453 C133 1.630 . S
C459 C189 1.632 . S
C473 C7 1.634 . S
C479 C77 1.638 . S
C493 C217 1.656 . S
C499 C147 1.654 1_556 S
C513 C105 1.634 . S
C519 C35 1.638 . S
C533 C161 1.632 . S
C539 C203 1.636 . S
C553 C8 1.225 . S
C559 C64 1.225 . S
C573 C78 1.210 . S
C579 C22 1.211 . S
C593 C92 1.218 . S
C599 C36 1.215 . S
C613 C50 1.224 . S
C619 C106 1.225 . S
C633 C148 1.223 . S
C639 C120 1.221 . S
C653 C162 1.215 . S
C659 C134 1.213 . S
C673 C204 1.222 . S
C679 C176 1.224 . S
C693 C218 1.222 . S
C699 C190 1.220 . S
C713 C62 1.542 . S
C719 C6 1.560 . S
C733 C76 1.552 . S
C739 C20 1.553 . S
C753 C90 1.551 . S
C759 C34 1.550 . S
C773 C48 1.556 . S
C779 C104 1.549 . S
C793 C118 1.563 . S
C799 C146 1.541 . S
C813 C160 1.562 . S
C819 C132 1.540 . S
C833 C202 1.544 . S
C839 C174 1.560 . S
C853 C216 1.544 . S
C859 C188 1.561 . S
