# Generated by pormake.
# Topology uos, (4)-cn, num edge types: 1
# Building blocks:
#     Node 0, Type 0, BuildingBlock: CEKHIL_clean_sbu_0, # of connection points: 4
#     Node 1, Type 0, BuildingBlock: CEKHIL_clean_sbu_0, # of connection points: 4
#     Node 2, Type 0, BuildingBlock: CEKHIL_clean_sbu_0, # of connection points: 4
#     Node 3, Type 0, BuildingBlock: CEKHIL_clean_sbu_0, # of connection points: 4
#     Node 4, Type 0, BuildingBlock: CEKHIL_clean_sbu_0, # of connection points: 4
#     Node 5, Type 0, BuildingBlock: CEKHIL_clean_sbu_0, # of connection points: 4
#     Node 6, Type 0, BuildingBlock: CEKHIL_clean_sbu_0, # of connection points: 4
#     Node 7, Type 0, BuildingBlock: CEKHIL_clean_sbu_0, # of connection points: 4
#     Node 8, Type 0, BuildingBlock: CEKHIL_clean_sbu_0, # of connection points: 4
#     Node 9, Type 0, BuildingBlock: CEKHIL_clean_sbu_0, # of connection points: 4
#     Node 10, Type 0, BuildingBlock: CEKHIL_clean_sbu_0, # of connection points: 4
#     Node 11, Type 0, BuildingBlock: CEKHIL_clean_sbu_0, # of connection points: 4
#     Node 12, Type 0, BuildingBlock: CEKHIL_clean_sbu_0, # of connection points: 4
#     Node 13, Type 0, BuildingBlock: CEKHIL_clean_sbu_0, # of connection points: 4
#     Node 14, Type 0, BuildingBlock: CEKHIL_clean_sbu_0, # of connection points: 4
#     Node 15, Type 0, BuildingBlock: CEKHIL_clean_sbu_0, # of connection points: 4
#     Node 16, Type 0, BuildingBlock: CEKHIL_clean_sbu_0, # of connection points: 4
#     Node 17, Type 0, BuildingBlock: CEKHIL_clean_sbu_0, # of connection points: 4
#     Node 18, Type 0, BuildingBlock: CEKHIL_clean_sbu_0, # of connection points: 4
#     Node 19, Type 0, BuildingBlock: CEKHIL_clean_sbu_0, # of connection points: 4
#     Node 20, Type 0, BuildingBlock: CEKHIL_clean_sbu_0, # of connection points: 4
#     Node 21, Type 0, BuildingBlock: CEKHIL_clean_sbu_0, # of connection points: 4
#     Node 22, Type 0, BuildingBlock: CEKHIL_clean_sbu_0, # of connection points: 4
#     Node 23, Type 0, BuildingBlock: CEKHIL_clean_sbu_0, # of connection points: 4
#     Node 24, Type 0, BuildingBlock: CEKHIL_clean_sbu_0, # of connection points: 4
#     Node 25, Type 0, BuildingBlock: CEKHIL_clean_sbu_0, # of connection points: 4
#     Node 26, Type 0, BuildingBlock: CEKHIL_clean_sbu_0, # of connection points: 4
#     Node 27, Type 0, BuildingBlock: CEKHIL_clean_sbu_0, # of connection points: 4
#     Node 28, Type 0, BuildingBlock: CEKHIL_clean_sbu_0, # of connection points: 4
#     Node 29, Type 0, BuildingBlock: CEKHIL_clean_sbu_0, # of connection points: 4
#     Node 30, Type 0, BuildingBlock: CEKHIL_clean_sbu_0, # of connection points: 4
#     Node 31, Type 0, BuildingBlock: CEKHIL_clean_sbu_0, # of connection points: 4
#     Edge 32, Type (0, 0), BuildingBlock: AJUNOK_clean_linker_0, # of connection points: 2
#     Edge 33, Type (0, 0), BuildingBlock: AJUNOK_clean_linker_0, # of connection points: 2
#     Edge 34, Type (0, 0), BuildingBlock: AJUNOK_clean_linker_0, # of connection points: 2
#     Edge 35, Type (0, 0), BuildingBlock: AJUNOK_clean_linker_0, # of connection points: 2
#     Edge 36, Type (0, 0), BuildingBlock: AJUNOK_clean_linker_0, # of connection points: 2
#     Edge 37, Type (0, 0), BuildingBlock: AJUNOK_clean_linker_0, # of connection points: 2
#     Edge 38, Type (0, 0), BuildingBlock: AJUNOK_clean_linker_0, # of connection points: 2
#     Edge 39, Type (0, 0), BuildingBlock: AJUNOK_clean_linker_0, # of connection points: 2
#     Edge 40, Type (0, 0), BuildingBlock: AJUNOK_clean_linker_0, # of connection points: 2
#     Edge 41, Type (0, 0), BuildingBlock: AJUNOK_clean_linker_0, # of connection points: 2
#     Edge 42, Type (0, 0), BuildingBlock: AJUNOK_clean_linker_0, # of connection points: 2
#     Edge 43, Type (0, 0), BuildingBlock: AJUNOK_clean_linker_0, # of connection points: 2
#     Edge 44, Type (0, 0), BuildingBlock: AJUNOK_clean_linker_0, # of connection points: 2
#     Edge 45, Type (0, 0), BuildingBlock: AJUNOK_clean_linker_0, # of connection points: 2
#     Edge 46, Type (0, 0), BuildingBlock: AJUNOK_clean_linker_0, # of connection points: 2
#     Edge 47, Type (0, 0), BuildingBlock: AJUNOK_clean_linker_0, # of connection points: 2
#     Edge 48, Type (0, 0), BuildingBlock: AJUNOK_clean_linker_0, # of connection points: 2
#     Edge 49, Type (0, 0), BuildingBlock: AJUNOK_clean_linker_0, # of connection points: 2
#     Edge 50, Type (0, 0), BuildingBlock: AJUNOK_clean_linker_0, # of connection points: 2
#     Edge 51, Type (0, 0), BuildingBlock: AJUNOK_clean_linker_0, # of connection points: 2
#     Edge 52, Type (0, 0), BuildingBlock: AJUNOK_clean_linker_0, # of connection points: 2
#     Edge 53, Type (0, 0), BuildingBlock: AJUNOK_clean_linker_0, # of connection points: 2
#     Edge 54, Type (0, 0), BuildingBlock: AJUNOK_clean_linker_0, # of connection points: 2
#     Edge 55, Type (0, 0), BuildingBlock: AJUNOK_clean_linker_0, # of connection points: 2
#     Edge 56, Type (0, 0), BuildingBlock: AJUNOK_clean_linker_0, # of connection points: 2
#     Edge 57, Type (0, 0), BuildingBlock: AJUNOK_clean_linker_0, # of connection points: 2
#     Edge 58, Type (0, 0), BuildingBlock: AJUNOK_clean_linker_0, # of connection points: 2
#     Edge 59, Type (0, 0), BuildingBlock: AJUNOK_clean_linker_0, # of connection points: 2
#     Edge 60, Type (0, 0), BuildingBlock: AJUNOK_clean_linker_0, # of connection points: 2
#     Edge 61, Type (0, 0), BuildingBlock: AJUNOK_clean_linker_0, # of connection points: 2
#     Edge 62, Type (0, 0), BuildingBlock: AJUNOK_clean_linker_0, # of connection points: 2
#     Edge 63, Type (0, 0), BuildingBlock: AJUNOK_clean_linker_0, # of connection points: 2
#     Edge 64, Type (0, 0), BuildingBlock: AJUNOK_clean_linker_0, # of connection points: 2
#     Edge 65, Type (0, 0), BuildingBlock: AJUNOK_clean_linker_0, # of connection points: 2
#     Edge 66, Type (0, 0), BuildingBlock: AJUNOK_clean_linker_0, # of connection points: 2
#     Edge 67, Type (0, 0), BuildingBlock: AJUNOK_clean_linker_0, # of connection points: 2
#     Edge 68, Type (0, 0), BuildingBlock: AJUNOK_clean_linker_0, # of connection points: 2
#     Edge 69, Type (0, 0), BuildingBlock: AJUNOK_clean_linker_0, # of connection points: 2
#     Edge 70, Type (0, 0), BuildingBlock: AJUNOK_clean_linker_0, # of connection points: 2
#     Edge 71, Type (0, 0), BuildingBlock: AJUNOK_clean_linker_0, # of connection points: 2
#     Edge 72, Type (0, 0), BuildingBlock: AJUNOK_clean_linker_0, # of connection points: 2
#     Edge 73, Type (0, 0), BuildingBlock: AJUNOK_clean_linker_0, # of connection points: 2
#     Edge 74, Type (0, 0), BuildingBlock: AJUNOK_clean_linker_0, # of connection points: 2
#     Edge 75, Type (0, 0), BuildingBlock: AJUNOK_clean_linker_0, # of connection points: 2
#     Edge 76, Type (0, 0), BuildingBlock: AJUNOK_clean_linker_0, # of connection points: 2
#     Edge 77, Type (0, 0), BuildingBlock: AJUNOK_clean_linker_0, # of connection points: 2
#     Edge 78, Type (0, 0), BuildingBlock: AJUNOK_clean_linker_0, # of connection points: 2
#     Edge 79, Type (0, 0), BuildingBlock: AJUNOK_clean_linker_0, # of connection points: 2
#     Edge 80, Type (0, 0), BuildingBlock: AJUNOK_clean_linker_0, # of connection points: 2
#     Edge 81, Type (0, 0), BuildingBlock: AJUNOK_clean_linker_0, # of connection points: 2
#     Edge 82, Type (0, 0), BuildingBlock: AJUNOK_clean_linker_0, # of connection points: 2
#     Edge 83, Type (0, 0), BuildingBlock: AJUNOK_clean_linker_0, # of connection points: 2
#     Edge 84, Type (0, 0), BuildingBlock: AJUNOK_clean_linker_0, # of connection points: 2
#     Edge 85, Type (0, 0), BuildingBlock: AJUNOK_clean_linker_0, # of connection points: 2
#     Edge 86, Type (0, 0), BuildingBlock: AJUNOK_clean_linker_0, # of connection points: 2
#     Edge 87, Type (0, 0), BuildingBlock: AJUNOK_clean_linker_0, # of connection points: 2
#     Edge 88, Type (0, 0), BuildingBlock: AJUNOK_clean_linker_0, # of connection points: 2
#     Edge 89, Type (0, 0), BuildingBlock: AJUNOK_clean_linker_0, # of connection points: 2
#     Edge 90, Type (0, 0), BuildingBlock: AJUNOK_clean_linker_0, # of connection points: 2
#     Edge 91, Type (0, 0), BuildingBlock: AJUNOK_clean_linker_0, # of connection points: 2
#     Edge 92, Type (0, 0), BuildingBlock: AJUNOK_clean_linker_0, # of connection points: 2
#     Edge 93, Type (0, 0), BuildingBlock: AJUNOK_clean_linker_0, # of connection points: 2
#     Edge 94, Type (0, 0), BuildingBlock: AJUNOK_clean_linker_0, # of connection points: 2
#     Edge 95, Type (0, 0), BuildingBlock: AJUNOK_clean_linker_0, # of connection points: 2
# Relax obj value: 0.047
# Max RMSD: 0.072
# Mean RMSD: 0.072
data_MOF--net-uos--node1-CEKHIL_clean_sbu_0--edge1-AJUNOK_clean_linker_0
_symmetry_space_group_name_H-M    P1
_symmetry_Int_Tables_number       1
_symmetry_cell_setting            triclinic
loop_
_symmetry_equiv_pos_as_xyz
'x, y, z'
_cell_length_a     62.260675
_cell_length_b     62.19563
_cell_length_c     16.576394
_cell_angle_alpha  89.966622
_cell_angle_beta   90.000383
_cell_angle_gamma 89.993063
loop_
_atom_site_label
_atom_site_type_symbol
_atom_site_fract_x
_atom_site_fract_y
_atom_site_fract_z
_atom_type_partial_charge
Co0 Co 0.17215 0.17417 0.12295 0.0
O1 O 0.14642 0.1698 0.05917 0.0
O2 O 0.17497 0.14912 0.05176 0.0
C3 C 0.1731 0.21032 0.10062 0.0
O4 O 0.20197 0.17419 0.17719 0.0
Co5 Co 0.1723 0.20549 0.27236 0.0
O6 O 0.20308 0.19852 0.27821 0.0
C7 C 0.15158 0.16269 0.28213 0.0
C8 C 0.15574 0.15349 0.02543 0.0
C9 C 0.2119 0.18413 0.23481 0.0
O10 O 0.15964 0.1563 0.21436 0.0
O11 O 0.15324 0.18185 0.30931 0.0
O12 O 0.18136 0.19729 0.04761 0.0
O13 O 0.16439 0.20108 0.16144 0.0
Co14 Co 0.08934 0.92356 0.36689 0.0
O15 O 0.09454 0.89742 0.30629 0.0
O16 O 0.11414 0.92667 0.29494 0.0
C17 C 0.05316 0.92401 0.34612 0.0
O18 O 0.0884 0.95376 0.41751 0.0
Co19 Co 0.05877 0.92308 0.5182 0.0
O20 O 0.06499 0.95414 0.5217 0.0
C21 C 0.10377 0.90818 0.53337 0.0
C22 C 0.11046 0.90706 0.27113 0.0
C23 C 0.0787 0.96334 0.47638 0.0
O24 O 0.10811 0.91312 0.45929 0.0
O25 O 0.08499 0.90958 0.56417 0.0
O26 O 0.06603 0.93156 0.29116 0.0
O27 O 0.06258 0.91532 0.40685 0.0
Co28 Co 0.34122 0.84189 0.61315 0.0
O29 O 0.36695 0.84759 0.55135 0.0
O30 O 0.3371 0.86622 0.53923 0.0
C31 C 0.34252 0.80556 0.59466 0.0
O32 O 0.31126 0.84025 0.66529 0.0
Co33 Co 0.34295 0.81214 0.76643 0.0
O34 O 0.3117 0.81708 0.77024 0.0
C35 C 0.35664 0.85774 0.77718 0.0
C36 C 0.35677 0.86303 0.51532 0.0
C37 C 0.30203 0.83046 0.72478 0.0
O38 O 0.35135 0.86156 0.70312 0.0
O39 O 0.35574 0.83911 0.80971 0.0
O40 O 0.33394 0.8178 0.53977 0.0
O41 O 0.35065 0.81566 0.65484 0.0
Co42 Co 0.42582 0.09273 0.87969 0.0
O43 O 0.41996 0.11898 0.82181 0.0
O44 O 0.40094 0.08956 0.80705 0.0
C45 C 0.46185 0.09327 0.85707 0.0
O46 O 0.42823 0.06234 0.92913 0.0
Co47 Co 0.45658 0.09458 0.03008 0.0
O48 O 0.45598 0.06309 1.01697 0.0
C49 C 0.41117 0.10785 0.04647 0.0
C50 C 0.40431 0.10943 0.7852 0.0
C51 C 0.44168 0.05295 0.97729 0.0
O52 O 0.40694 0.10246 0.97282 0.0
O53 O 0.42999 0.10709 0.07728 0.0
O54 O 0.44898 0.08559 0.80254 0.0
O55 O 0.45244 0.10171 0.91837 0.0
Co56 Co 0.17176 0.84161 0.90962 0.0
O57 O 0.14587 0.84613 0.97253 0.0
O58 O 0.17501 0.86588 0.98384 0.0
C59 C 0.1734 0.80515 0.92586 0.0
O60 O 0.20184 0.84126 0.85768 0.0
Co61 Co 0.17047 0.81375 0.7533 0.0
O62 O 0.20141 0.82022 0.74689 0.0
C63 C 0.15563 0.85826 0.74586 0.0
C64 C 0.15553 0.86195 1.00837 0.0
C65 C 0.21113 0.83256 0.79594 0.0
O66 O 0.16073 0.86147 0.82055 0.0
O67 O 0.15674 0.84001 0.71118 0.0
O68 O 0.18038 0.81785 0.9823 0.0
O69 O 0.16388 0.81474 0.86692 0.0
Co70 Co 0.42337 0.92267 0.15416 0.0
O71 O 0.41637 0.8969 0.21358 0.0
O72 O 0.39902 0.92744 0.22774 0.0
C73 C 0.45938 0.9198 0.1751 0.0
O74 O 0.42709 0.95281 0.10369 0.0
Co75 Co 0.45372 0.91943 1.0029 0.0
O76 O 0.45461 0.95091 1.01523 0.0
C77 C 0.40748 0.90889 0.98783 0.0
C78 C 0.40143 0.90751 0.25043 0.0
C79 C 0.44076 0.96164 0.05495 0.0
O80 O 0.40367 0.91377 0.06231 0.0
O81 O 0.42622 0.90895 0.9562 0.0
O82 O 0.44728 0.92864 0.22971 0.0
O83 O 0.44922 0.91211 0.1142 0.0
Co84 Co 0.34198 0.17306 0.42064 0.0
O85 O 0.368 0.16905 0.48229 0.0
O86 O 0.33937 0.14871 0.4958 0.0
C87 C 0.34071 0.20942 0.43784 0.0
O88 O 0.31189 0.17306 0.3688 0.0
Co89 Co 0.34237 0.20251 0.26605 0.0
O90 O 0.31138 0.19614 0.26336 0.0
C91 C 0.35807 0.15764 0.25662 0.0
C92 C 0.35876 0.15329 0.5198 0.0
C93 C 0.30227 0.1825 0.3093 0.0
O94 O 0.35321 0.15378 0.33108 0.0
O95 O 0.35632 0.17611 0.22334 0.0
O96 O 0.33328 0.19672 0.49357 0.0
O97 O 0.34975 0.1998 0.37827 0.0
Co98 Co 0.08903 0.09317 0.66484 0.0
O99 O 0.09362 0.11869 0.72974 0.0
O100 O 0.11461 0.09029 0.73306 0.0
C101 C 0.05311 0.09102 0.68983 0.0
O102 O 0.08889 0.06353 0.60924 0.0
Co103 Co 0.05684 0.09338 0.51821 0.0
O104 O 0.06378 0.06258 0.51093 0.0
C105 C 0.09937 0.11435 0.50493 0.0
C106 C 0.11026 0.10935 0.76113 0.0
C107 C 0.07851 0.0537 0.55252 0.0
O108 O 0.10616 0.10617 0.57205 0.0
O109 O 0.0801 0.11251 0.47929 0.0
O110 O 0.06668 0.08322 0.74191 0.0
O111 O 0.0617 0.10061 0.62946 0.0
Co112 Co 0.8418 0.83995 0.91824 0.0
O113 O 0.86735 0.84441 0.98273 0.0
O114 O 0.83871 0.86509 0.9884 0.0
C115 C 0.83973 0.80381 0.94031 0.0
O116 O 0.81224 0.83994 0.86283 0.0
Co117 Co 0.84298 0.8092 0.76794 0.0
O118 O 0.81216 0.8162 0.75979 0.0
C119 C 0.85969 0.85357 0.75419 0.0
C120 C 0.8579 0.86083 1.01538 0.0
C121 C 0.80294 0.83038 0.80302 0.0
O122 O 0.85398 0.85817 0.8272 0.0
O123 O 0.85798 0.83481 0.72332 0.0
O124 O 0.83211 0.81714 0.99351 0.0
O125 O 0.84948 0.81272 0.88068 0.0
Co126 Co 0.92342 0.09257 0.67078 0.0
O127 O 0.91975 0.11889 0.73081 0.0
O128 O 0.89868 0.09079 0.74431 0.0
C129 C 0.95954 0.09052 0.69106 0.0
O130 O 0.92307 0.06236 0.61978 0.0
Co131 Co 0.95368 0.09226 0.51855 0.0
O132 O 0.94677 0.06136 0.51638 0.0
C133 C 0.9094 0.10911 0.50524 0.0
C134 C 0.90359 0.1102 0.76757 0.0
C135 C 0.93272 0.05251 0.5613 0.0
O136 O 0.90495 0.10412 0.57918 0.0
O137 O 0.92802 0.10707 0.47373 0.0
O138 O 0.94644 0.08347 0.74609 0.0
O139 O 0.95042 0.09964 0.63052 0.0
Co140 Co 0.67326 0.1737 0.42193 0.0
O141 O 0.64749 0.16809 0.48364 0.0
O142 O 0.67724 0.14929 0.49549 0.0
C143 C 0.67231 0.20994 0.44117 0.0
O144 O 0.70323 0.17539 0.36997 0.0
Co145 Co 0.67161 0.20372 0.26926 0.0
O146 O 0.70293 0.1992 0.26704 0.0
C147 C 0.65793 0.1582 0.25713 0.0
C148 C 0.6576 0.15261 0.51961 0.0
C149 C 0.71261 0.18572 0.31207 0.0
O150 O 0.66295 0.15423 0.33138 0.0
O151 O 0.65888 0.17687 0.225 0.0
O152 O 0.68077 0.19758 0.49591 0.0
O153 O 0.66402 0.2 0.3809 0.0
Co154 Co 0.58929 0.91988 0.15544 0.0
O155 O 0.59428 0.8934 0.21366 0.0
O156 O 0.61354 0.92264 0.23067 0.0
C157 C 0.55306 0.91927 0.17375 0.0
O158 O 0.58826 0.95045 0.10775 0.0
Co159 Co 0.55954 0.92046 1.00207 0.0
O160 O 0.56464 0.95172 1.0044 0.0
C161 C 0.60459 0.90543 0.98935 0.0
C162 C 0.6097 0.90285 0.25224 0.0
C163 C 0.5782 0.96065 0.05111 0.0
O164 O 0.60867 0.91001 0.06394 0.0
O165 O 0.58598 0.90703 0.95733 0.0
O166 O 0.56544 0.92702 0.22981 0.0
O167 O 0.56295 0.9115 0.11242 0.0
Co168 Co 0.8429 0.17671 0.12837 0.0
O169 O 0.86895 0.17232 0.06734 0.0
O170 O 0.84038 0.15181 0.05605 0.0
C171 C 0.84133 0.21288 0.10722 0.0
O172 O 0.81286 0.17696 0.18009 0.0
Co173 Co 0.84336 0.20705 0.28001 0.0
O174 O 0.81237 0.2006 0.28362 0.0
C175 C 0.85969 0.16252 0.29341 0.0
C176 C 0.85981 0.15619 0.03181 0.0
C177 C 0.80325 0.18671 0.23881 0.0
O178 O 0.85419 0.15814 0.21999 0.0
O179 O 0.85804 0.18124 0.32473 0.0
O180 O 0.83405 0.19971 0.05283 0.0
O181 O 0.85052 0.20379 0.16773 0.0
Co182 Co 0.59159 0.09178 0.87971 0.0
O183 O 0.59717 0.11777 0.81898 0.0
O184 O 0.61637 0.08823 0.80785 0.0
C185 C 0.55548 0.09189 0.85845 0.0
O186 O 0.59004 0.0616 0.93045 0.0
Co187 Co 0.5612 0.09281 0.03101 0.0
O188 O 0.56607 0.0615 0.0328 0.0
C189 C 0.60626 0.10751 0.04532 0.0
C190 C 0.61293 0.10788 0.78387 0.0
C191 C 0.57973 0.05204 0.98798 0.0
O192 O 0.61053 0.10213 0.97169 0.0
O193 O 0.5875 0.10635 0.07646 0.0
O194 O 0.56831 0.08408 0.80392 0.0
O195 O 0.56492 0.1005 0.91936 0.0
Co196 Co 0.67305 0.83908 0.61398 0.0
O197 O 0.64671 0.84218 0.55322 0.0
O198 O 0.67428 0.86401 0.54144 0.0
C199 C 0.67696 0.80305 0.59362 0.0
O200 O 0.7032 0.84032 0.66483 0.0
Co201 Co 0.67365 0.80966 0.76759 0.0
O202 O 0.70366 0.81959 0.77672 0.0
C203 C 0.65554 0.85314 0.7789 0.0
C204 C 0.65507 0.85872 0.51744 0.0
C205 C 0.71273 0.83243 0.7276 0.0
O206 O 0.66106 0.8574 0.70539 0.0
O207 O 0.65761 0.8346 0.81116 0.0
O208 O 0.68292 0.81658 0.53827 0.0
O209 O 0.66711 0.81148 0.65413 0.0
Co210 Co 0.92349 0.92249 0.37458 0.0
O211 O 0.91873 0.89663 0.31217 0.0
O212 O 0.8984 0.92547 0.30396 0.0
C213 C 0.95953 0.92386 0.35172 0.0
O214 O 0.92394 0.95243 0.42762 0.0
Co215 Co 0.95445 0.92197 0.52431 0.0
O216 O 0.94818 0.95301 0.52892 0.0
C217 C 0.90991 0.90589 0.54036 0.0
C218 C 0.90251 0.9061 0.27839 0.0
C219 C 0.93402 0.96215 0.48535 0.0
O220 O 0.90526 0.91093 0.46668 0.0
O221 O 0.92868 0.90769 0.57086 0.0
O222 O 0.94625 0.93148 0.29833 0.0
O223 O 0.9506 0.91462 0.41245 0.0
Co224 Co 0.67334 0.67422 0.61688 0.0
O225 O 0.64694 0.67136 0.55637 0.0
O226 O 0.67425 0.6492 0.54485 0.0
C227 C 0.67751 0.71018 0.59554 0.0
O228 O 0.70351 0.67266 0.66762 0.0
Co229 Co 0.67448 0.70387 0.76963 0.0
O230 O 0.70444 0.69378 0.7783 0.0
C231 C 0.65566 0.6607 0.78209 0.0
C232 C 0.6551 0.65469 0.52084 0.0
C233 C 0.71326 0.68061 0.72981 0.0
O234 O 0.66117 0.6562 0.70879 0.0
O235 O 0.658 0.67927 0.81374 0.0
O236 O 0.68338 0.69652 0.54055 0.0
O237 O 0.66768 0.70191 0.65645 0.0
Co238 Co 0.58885 0.42231 0.87556 0.0
O239 O 0.59252 0.39611 0.81437 0.0
O240 O 0.61419 0.42383 0.80491 0.0
C241 C 0.55291 0.42482 0.85179 0.0
O242 O 0.58945 0.45249 0.9273 0.0
Co243 Co 0.55713 0.42388 0.02371 0.0
O244 O 0.56462 0.45458 0.0265 0.0
C245 C 0.59913 0.40186 0.03658 0.0
C246 C 0.60913 0.40463 0.7799 0.0
C247 C 0.57934 0.46292 0.98328 0.0
O248 O 0.606 0.40972 0.96903 0.0
O249 O 0.57995 0.4042 0.06259 0.0
O250 O 0.56642 0.43195 0.79823 0.0
O251 O 0.56154 0.41574 0.91314 0.0
Co252 Co 0.84114 0.34298 0.12023 0.0
O253 O 0.8673 0.34725 0.05969 0.0
O254 O 0.83855 0.36736 0.04506 0.0
C255 C 0.84021 0.30664 0.10267 0.0
O256 O 0.81095 0.34264 0.17124 0.0
Co257 Co 0.84164 0.31355 0.2747 0.0
O258 O 0.81052 0.3193 0.27581 0.0
C259 C 0.8572 0.35845 0.28434 0.0
C260 C 0.85808 0.36298 0.02195 0.0
C261 C 0.80126 0.33286 0.22986 0.0
O262 O 0.85195 0.36231 0.21025 0.0
O263 O 0.85567 0.33992 0.31736 0.0
O264 O 0.83282 0.31931 0.04678 0.0
O265 O 0.84906 0.3163 0.16255 0.0
Co266 Co 0.92687 0.59444 0.38122 0.0
O267 O 0.92106 0.61992 0.31777 0.0
O268 O 0.90076 0.59105 0.31561 0.0
C269 C 0.96251 0.59354 0.35043 0.0
O270 O 0.92867 0.56471 0.43693 0.0
Co271 Co 0.96087 0.59606 0.52198 0.0
O272 O 0.95811 0.56458 0.51649 0.0
C273 C 0.91741 0.61476 0.54384 0.0
C274 C 0.9045 0.61026 0.28748 0.0
C275 C 0.94231 0.555 0.48347 0.0
O276 O 0.91032 0.60687 0.47661 0.0
O277 O 0.93691 0.61325 0.56723 0.0
O278 O 0.94867 0.58519 0.30073 0.0
O279 O 0.95425 0.60285 0.41197 0.0
Co280 Co 0.67106 0.33998 0.41615 0.0
O281 O 0.64511 0.3436 0.47874 0.0
O282 O 0.67319 0.36473 0.48972 0.0
C283 C 0.67244 0.30373 0.43627 0.0
O284 O 0.70098 0.34061 0.36278 0.0
Co285 Co 0.67154 0.30942 0.26442 0.0
O286 O 0.70212 0.31727 0.25832 0.0
C287 C 0.6506 0.35211 0.25734 0.0
C288 C 0.65395 0.35982 0.51465 0.0
C289 C 0.71081 0.33142 0.30319 0.0
O290 O 0.65859 0.35818 0.32563 0.0
O291 O 0.65229 0.33308 0.22893 0.0
O292 O 0.68039 0.31664 0.4903 0.0
O293 O 0.66374 0.31313 0.37576 0.0
Co294 Co 0.92435 0.42365 0.65975 0.0
O295 O 0.91833 0.39727 0.71676 0.0
O296 O 0.90022 0.42711 0.73569 0.0
C297 C 0.96056 0.42143 0.67815 0.0
O298 O 0.92689 0.45425 0.61221 0.0
Co299 Co 0.95423 0.42269 0.50665 0.0
O300 O 0.95446 0.45404 0.52365 0.0
C301 C 0.90834 0.41036 0.49319 0.0
C302 C 0.90331 0.40709 0.7561 0.0
C303 C 0.94013 0.46392 0.5641 0.0
O304 O 0.90457 0.41479 0.56812 0.0
O305 O 0.92697 0.41128 0.46083 0.0
O306 O 0.94852 0.42965 0.73434 0.0
O307 O 0.95029 0.41411 0.61693 0.0
Co308 Co 0.84221 0.67388 0.92307 0.0
O309 O 0.86752 0.67054 0.99011 0.0
O310 O 0.83966 0.64887 0.99464 0.0
C311 C 0.83912 0.71007 0.94263 0.0
O312 O 0.81289 0.67265 0.86543 0.0
Co313 Co 0.84257 0.70435 0.77124 0.0
O314 O 0.81214 0.69618 0.76159 0.0
C315 C 0.86421 0.66211 0.76622 0.0
C316 C 0.85852 0.65389 0.02292 0.0
C317 C 0.80335 0.68178 0.80505 0.0
O318 O 0.856 0.65604 0.83415 0.0
O319 O 0.86235 0.68104 0.73707 0.0
O320 O 0.83143 0.6968 0.99607 0.0
O321 O 0.84915 0.70109 0.88405 0.0
Co322 Co 0.58894 0.594 0.15892 0.0
O323 O 0.59365 0.6203 0.21845 0.0
O324 O 0.61324 0.59122 0.23383 0.0
C325 C 0.55264 0.59422 0.17739 0.0
O326 O 0.58838 0.56362 0.10954 0.0
Co327 Co 0.55913 0.59373 1.00562 0.0
O328 O 0.56552 0.56271 1.00373 0.0
C329 C 0.60409 0.60907 0.99341 0.0
C330 C 0.60924 0.61089 0.25627 0.0
C331 C 0.57908 0.55375 0.05041 0.0
O332 O 0.6082 0.60438 0.06789 0.0
O333 O 0.58548 0.60743 0.96135 0.0
O334 O 0.56511 0.58633 0.23295 0.0
O335 O 0.56247 0.60226 0.11641 0.0
Co336 Co 0.34273 0.33938 0.41185 0.0
O337 O 0.36846 0.34383 0.47444 0.0
O338 O 0.33981 0.36427 0.48426 0.0
C339 C 0.34123 0.30318 0.43282 0.0
O340 O 0.31298 0.33901 0.35774 0.0
Co341 Co 0.34428 0.30905 0.26016 0.0
O342 O 0.31329 0.31538 0.25416 0.0
C343 C 0.35996 0.35385 0.2479 0.0
C344 C 0.35914 0.35991 0.50958 0.0
C345 C 0.30381 0.32925 0.29801 0.0
O346 O 0.3543 0.35808 0.32123 0.0
O347 O 0.35859 0.33516 0.21616 0.0
O348 O 0.33362 0.31632 0.48668 0.0
O349 O 0.35069 0.31233 0.37301 0.0
Co350 Co 0.42276 0.59283 0.15767 0.0
O351 O 0.41658 0.61843 0.21916 0.0
O352 O 0.39818 0.58843 0.23061 0.0
C353 C 0.45889 0.59453 0.17892 0.0
O354 O 0.42538 0.56297 0.10423 0.0
Co355 Co 0.45331 0.59607 1.00691 0.0
O356 O 0.45274 0.56447 1.01502 0.0
C357 C 0.40747 0.60852 0.99305 0.0
C358 C 0.40119 0.60816 0.25474 0.0
C359 C 0.43838 0.55402 0.0533 0.0
O360 O 0.40342 0.60295 0.06667 0.0
O361 O 0.42623 0.60804 0.9616 0.0
O362 O 0.44654 0.58564 0.23268 0.0
O363 O 0.44894 0.60282 0.11866 0.0
Co364 Co 0.17353 0.67493 0.9054 0.0
O365 O 0.14725 0.6699 0.96437 0.0
O366 O 0.17658 0.65077 0.98112 0.0
C367 C 0.17395 0.71142 0.92248 0.0
O368 O 0.20405 0.67638 0.85699 0.0
Co369 Co 0.17177 0.70294 0.74898 0.0
O370 O 0.20322 0.70002 0.75348 0.0
C371 C 0.15859 0.65791 0.74045 0.0
C372 C 0.15683 0.65454 1.00298 0.0
C373 C 0.21329 0.68748 0.80077 0.0
O374 O 0.16367 0.65482 0.81525 0.0
O375 O 0.15918 0.67621 0.70584 0.0
O376 O 0.18088 0.69881 0.97928 0.0
O377 O 0.16514 0.70163 0.86245 0.0
Co378 Co 0.09055 0.42127 0.65268 0.0
O379 O 0.09564 0.39504 0.71188 0.0
O380 O 0.11503 0.42426 0.72692 0.0
C381 C 0.0543 0.42081 0.67233 0.0
O382 O 0.08944 0.45153 0.60266 0.0
Co383 Co 0.06055 0.42068 0.50005 0.0
O384 O 0.06599 0.4519 0.49869 0.0
C385 C 0.10571 0.40596 0.48746 0.0
C386 C 0.11124 0.40452 0.74925 0.0
C387 C 0.07952 0.46122 0.54444 0.0
O388 O 0.10979 0.41115 0.56141 0.0
O389 O 0.08702 0.40718 0.4557 0.0
O390 O 0.06686 0.42876 0.72743 0.0
O391 O 0.06407 0.41268 0.61133 0.0
Co392 Co 0.34234 0.67552 0.61573 0.0
O393 O 0.36773 0.66886 0.55371 0.0
O394 O 0.33747 0.65086 0.54359 0.0
C395 C 0.34427 0.71167 0.59378 0.0
O396 O 0.31266 0.6786 0.66956 0.0
Co397 Co 0.34621 0.70619 0.76594 0.0
O398 O 0.31461 0.70567 0.75991 0.0
C399 C 0.35721 0.66 0.78128 0.0
C400 C 0.35716 0.65354 0.51884 0.0
C401 C 0.30394 0.69163 0.7209 0.0
O402 O 0.35221 0.65608 0.70702 0.0
O403 O 0.35704 0.67877 0.81268 0.0
O404 O 0.3353 0.69927 0.54041 0.0
O405 O 0.35267 0.70173 0.65393 0.0
Co406 Co 0.09223 0.59192 0.36413 0.0
O407 O 0.09694 0.61836 0.3059 0.0
O408 O 0.11683 0.58952 0.29005 0.0
C409 C 0.05606 0.59156 0.34395 0.0
O410 O 0.09134 0.56154 0.41348 0.0
Co411 Co 0.06195 0.59237 0.51643 0.0
O412 O 0.06772 0.56122 0.51724 0.0
C413 C 0.10702 0.60714 0.5304 0.0
C414 C 0.11268 0.60922 0.26818 0.0
C415 C 0.08138 0.55195 0.47184 0.0
O416 O 0.1112 0.60212 0.4563 0.0
O417 O 0.08829 0.60582 0.56175 0.0
O418 O 0.06882 0.58414 0.28848 0.0
O419 O 0.06559 0.59999 0.40492 0.0
Co420 Co 0.1736 0.34039 0.11235 0.0
O421 O 0.14737 0.34498 0.05293 0.0
O422 O 0.17637 0.36459 0.03637 0.0
C423 C 0.17333 0.30407 0.09484 0.0
O424 O 0.20385 0.33959 0.16253 0.0
Co425 Co 0.17302 0.31078 0.26666 0.0
O426 O 0.20417 0.31631 0.26734 0.0
C427 C 0.15844 0.35607 0.27701 0.0
C428 C 0.15671 0.36046 1.01428 0.0
C429 C 0.21348 0.32975 0.22112 0.0
O430 O 0.16326 0.35994 0.2025 0.0
O431 O 0.15978 0.33751 0.30982 0.0
O432 O 0.18128 0.3164 0.03898 0.0
O433 O 0.16518 0.31407 0.15521 0.0
Co434 Co 0.42336 0.42311 0.8701 0.0
O435 O 0.41872 0.39677 0.81161 0.0
O436 O 0.39848 0.4254 0.79697 0.0
C437 C 0.45939 0.42392 0.84791 0.0
O438 O 0.42445 0.45348 0.92039 0.0
Co439 Co 0.45418 0.42253 0.02055 0.0
O440 O 0.45283 0.45392 1.00547 0.0
C441 C 0.40929 0.40756 0.03694 0.0
C442 C 0.40281 0.40577 0.77455 0.0
C443 C 0.43775 0.4634 0.96757 0.0
O444 O 0.40485 0.41237 0.96284 0.0
O445 O 0.42802 0.40925 0.06796 0.0
O446 O 0.44634 0.43129 0.79331 0.0
O447 O 0.4502 0.41515 0.90903 0.0
C448 C 0.26393 0.17986 0.35295 0.0
C449 C 0.2794 0.17801 0.29191 0.0
C450 C 0.24197 0.18063 0.33389 0.0
C451 C 0.23469 0.1792 0.25333 0.0
H452 H 0.26885 0.18216 0.41505 0.0
H453 H 0.23061 0.18321 0.38246 0.0
S454 S 0.26887 0.17125 0.07294 0.0
N455 N 0.28604 0.17271 0.14872 0.0
N456 N 0.24474 0.17372 0.11335 0.0
C457 C 0.24995 0.17566 0.1926 0.0
C458 C 0.27232 0.17523 0.21181 0.0
C459 C 0.08186 1.00177 0.43348 0.0
C460 C 0.08327 0.98617 0.49436 0.0
C461 C 0.08157 0.02374 0.45285 0.0
C462 C 0.08312 0.03088 0.53351 0.0
H463 H 0.07956 0.99696 0.37126 0.0
H464 H 0.07927 0.03524 0.40447 0.0
S465 S 0.09001 0.99631 0.7136 0.0
N466 N 0.08823 0.97924 0.63756 0.0
N467 N 0.08817 0.02056 0.67346 0.0
C468 C 0.08621 0.01546 0.59411 0.0
C469 C 0.08611 0.99309 0.57461 0.0
C470 C 0.24179 0.83621 0.69961 0.0
C471 C 0.2343 0.83609 0.78005 0.0
C472 C 0.26382 0.83576 0.68163 0.0
C473 C 0.27915 0.8347 0.74351 0.0
H474 H 0.23048 0.83595 0.64994 0.0
H475 H 0.26881 0.83502 0.61907 0.0
S476 S 0.26816 0.8363 0.96373 0.0
N477 N 0.24411 0.83679 0.92172 0.0
N478 N 0.2855 0.83557 0.88837 0.0
C479 C 0.27194 0.83575 0.82411 0.0
C480 C 0.24952 0.83658 0.84231 0.0
C481 C 0.42148 0.01847 1.00515 0.0
C482 C 0.44096 0.02938 0.99098 0.0
C483 C 0.42132 0.99671 0.02972 0.0
C484 C 0.44063 0.98519 0.04002 0.0
H485 H 0.40635 0.02693 0.99923 0.0
H486 H 0.40604 0.98876 0.03896 0.0
S487 S 0.4958 1.00644 1.00989 0.0
N488 N 0.47992 0.02689 0.98841 0.0
N489 N 0.47964 0.98647 0.03457 0.0
C490 C 0.46011 0.99601 0.02573 0.0
C491 C 0.46026 0.01794 1.00111 0.0
C492 C 0.76487 0.83751 0.84343 0.0
C493 C 0.78035 0.83548 0.78247 0.0
C494 C 0.7429 0.83805 0.8244 0.0
C495 C 0.73568 0.83702 0.74375 0.0
H496 H 0.76963 0.83725 0.90629 0.0
H497 H 0.73142 0.83828 0.87352 0.0
S498 S 0.77008 0.83495 0.56172 0.0
N499 N 0.78719 0.83484 0.63791 0.0
N500 N 0.74591 0.83618 0.60253 0.0
C501 C 0.75108 0.83681 0.68212 0.0
C502 C 0.77343 0.83591 0.70145 0.0
C503 C 0.93084 0.99216 0.58496 0.0
C504 C 0.92935 0.98499 0.50427 0.0
C505 C 0.93002 0.01411 0.60446 0.0
C506 C 0.92805 0.02968 0.54375 0.0
H507 H 0.93346 0.98072 0.6333 0.0
H508 H 0.9324 0.01895 0.66661 0.0
S509 S 0.92119 0.01947 0.32463 0.0
N510 N 0.92373 0.99526 0.36453 0.0
N511 N 0.92266 0.03654 0.40075 0.0
C512 C 0.92524 0.02272 0.46354 0.0
C513 C 0.92572 1.00036 0.44387 0.0
C514 C 0.74299 0.18332 0.21393 0.0
C515 C 0.73568 0.1821 0.29447 0.0
C516 C 0.76498 0.18315 0.19526 0.0
C517 C 0.78043 0.18217 0.25667 0.0
H518 H 0.7316 0.18511 0.16494 0.0
H519 H 0.7699 0.18511 0.13299 0.0
S520 S 0.76987 0.17652 0.4761 0.0
N521 N 0.74572 0.17791 0.43511 0.0
N522 N 0.78708 0.17809 0.40046 0.0
C523 C 0.77336 0.17977 0.33696 0.0
C524 C 0.75098 0.17956 0.35579 0.0
C525 C 0.58279 0.01396 0.94093 0.0
C526 C 0.58332 0.02892 1.00416 0.0
C527 C 0.58207 0.9918 0.95702 0.0
C528 C 0.58232 0.98381 0.03678 0.0
H529 H 0.58167 0.01941 0.87897 0.0
H530 H 0.58067 0.98083 0.90654 0.0
S531 S 0.58623 0.01643 0.22299 0.0
N532 N 0.5858 0.0343 0.14922 0.0
N533 N 0.58497 0.99264 0.17901 0.0
C534 C 0.58433 0.99858 0.10017 0.0
C535 C 0.58465 0.02114 0.08393 0.0
C536 C 0.74332 0.67474 0.82702 0.0
C537 C 0.73611 0.67555 0.74628 0.0
C538 C 0.7653 0.6749 0.84605 0.0
C539 C 0.78082 0.67629 0.78498 0.0
H540 H 0.73184 0.67504 0.87614 0.0
H541 H 0.77006 0.67551 0.90887 0.0
S542 S 0.77057 0.67588 0.56424 0.0
N543 N 0.74637 0.67537 0.60506 0.0
N544 N 0.78767 0.67601 0.64044 0.0
C545 C 0.77389 0.67552 0.70401 0.0
C546 C 0.75152 0.67502 0.6847 0.0
C547 C 0.58311 0.49355 0.07951 0.0
C548 C 0.58416 0.48585 0.99947 0.0
C549 C 0.58317 0.51566 0.09664 0.0
C550 C 0.58384 0.53084 0.03412 0.0
H551 H 0.58129 0.48238 0.12923 0.0
H552 H 0.58125 0.52087 0.15859 0.0
S553 S 0.58926 0.5192 0.81535 0.0
N554 N 0.58806 0.49522 0.8581 0.0
N555 N 0.58775 0.53679 0.88978 0.0
C556 C 0.58627 0.52338 0.95431 0.0
C557 C 0.58658 0.50087 0.93707 0.0
C558 C 0.74896 0.33634 0.34646 0.0
C559 C 0.73349 0.33665 0.28502 0.0
C560 C 0.77095 0.33633 0.32775 0.0
C561 C 0.77826 0.33703 0.2471 0.0
H562 H 0.74408 0.33464 0.40888 0.0
H563 H 0.78235 0.33492 0.37686 0.0
S564 S 0.74401 0.34108 0.06511 0.0
N565 N 0.72682 0.33982 0.14088 0.0
N566 N 0.76817 0.34023 0.10618 0.0
C567 C 0.76294 0.33908 0.18563 0.0
C568 C 0.74054 0.33873 0.20453 0.0
C569 C 0.95873 0.4986 0.54271 0.0
C570 C 0.93922 0.4875 0.55144 0.0
C571 C 0.95928 0.52013 0.51903 0.0
C572 C 0.94035 0.53167 0.50203 0.0
H573 H 0.97386 0.49044 0.55333 0.0
H574 H 0.97486 0.52776 0.51341 0.0
S575 S 0.88492 0.51007 0.51549 0.0
N576 N 0.90033 0.48953 0.54131 0.0
N577 N 0.90134 0.53035 0.49646 0.0
C578 C 0.92061 0.52085 0.51055 0.0
C579 C 0.92005 0.49874 0.53574 0.0
C580 C 0.26546 0.33428 0.33881 0.0
C581 C 0.28108 0.33372 0.27793 0.0
C582 C 0.24352 0.33414 0.31935 0.0
C583 C 0.23644 0.33387 0.23842 0.0
H584 H 0.27017 0.33348 0.40167 0.0
H585 H 0.23197 0.33346 0.36819 0.0
S586 S 0.2711 0.33526 0.05706 0.0
N587 N 0.28811 0.33492 0.13354 0.0
N588 N 0.24684 0.33508 0.09745 0.0
C589 C 0.2519 0.33495 0.17718 0.0
C590 C 0.27424 0.33472 0.19687 0.0
C591 C 0.45581 0.52006 1.00948 0.0
C592 C 0.43698 0.53071 0.03426 0.0
C593 C 0.45546 0.49866 0.98419 0.0
C594 C 0.43625 0.48686 0.98148 0.0
H595 H 0.47114 0.52831 1.01008 0.0
H596 H 0.47054 0.49115 0.9676 0.0
S597 S 0.38231 0.50696 0.03878 0.0
N598 N 0.39835 0.52778 0.05361 0.0
N599 N 0.39776 0.48722 1.00576 0.0
C600 C 0.41716 0.4972 1.00502 0.0
C601 C 0.41752 0.51915 0.03186 0.0
C602 C 0.26983 0.67033 0.74263 0.0
C603 C 0.28067 0.69024 0.74006 0.0
C604 C 0.24821 0.66901 0.76795 0.0
C605 C 0.23685 0.68757 0.79103 0.0
H606 H 0.27814 0.65571 0.72579 0.0
H607 H 0.24016 0.65358 0.76675 0.0
S608 S 0.25756 0.74346 0.79367 0.0
N609 N 0.27804 0.72886 0.76209 0.0
N610 N 0.23784 0.72625 0.80951 0.0
C611 C 0.24756 0.70742 0.78911 0.0
C612 C 0.26933 0.7088 0.76361 0.0
C613 C 0.08265 0.49161 0.44637 0.0
C614 C 0.08384 0.4842 0.52686 0.0
C615 C 0.0836 0.51361 0.42771 0.0
C616 C 0.08539 0.52898 0.48909 0.0
H617 H 0.08028 0.48032 0.39741 0.0
H618 H 0.08157 0.51863 0.36558 0.0
S619 S 0.09137 0.51812 0.70821 0.0
N620 N 0.08891 0.49403 0.66728 0.0
N621 N 0.09022 0.53541 0.63266 0.0
C622 C 0.08781 0.52178 0.56923 0.0
C623 C 0.0872 0.49938 0.58805 0.0
C624 C 0.12553 0.14944 0.92605 0.0
C625 C 0.14489 0.1414 0.95837 0.0
C626 C 0.11482 0.13906 0.86241 0.0
C627 C 0.12274 0.11994 0.82779 0.0
H628 H 0.11852 0.16407 0.94976 0.0
H629 H 0.10001 0.14613 0.84061 0.0
S630 S 0.17279 0.0919 0.8897 0.0
N631 N 0.17161 0.11298 0.95013 0.0
N632 N 0.15134 0.09333 0.83122 0.0
C633 C 0.14206 0.1116 0.85945 0.0
C634 C 0.15313 0.12233 0.92429 0.0
C635 C 0.12548 0.86623 0.10841 0.0
C636 C 0.14478 0.87414 0.07533 0.0
C637 C 0.11486 0.87687 0.17172 0.0
C638 C 0.12281 0.89616 0.20492 0.0
H639 H 0.11847 0.85151 0.08559 0.0
H640 H 0.10009 0.86991 0.19426 0.0
S641 S 0.17277 0.92394 0.1406 0.0
N642 N 0.17151 0.9026 0.08146 0.0
N643 N 0.15139 0.92275 0.19949 0.0
C644 C 0.14208 0.90437 0.17246 0.0
C645 C 0.15308 0.89335 0.10818 0.0
C646 C 0.39669 0.87753 0.34973 0.0
C647 C 0.38908 0.8971 0.31768 0.0
C648 C 0.38618 0.86702 0.41337 0.0
C649 C 0.36727 0.8753 0.44809 0.0
H650 H 0.41115 0.8702 0.32596 0.0
H651 H 0.39297 0.85205 0.43503 0.0
S652 S 0.34029 0.92603 0.387 0.0
N653 N 0.36131 0.92447 0.32633 0.0
N654 N 0.34126 0.90447 0.44524 0.0
C655 C 0.35928 0.89482 0.41665 0.0
C656 C 0.37024 0.90576 0.35194 0.0
C657 C 0.37458 0.11094 0.67913 0.0
C658 C 0.39199 0.12075 0.71955 0.0
C659 C 0.36361 0.12149 0.61544 0.0
C660 C 0.36979 0.14215 0.58875 0.0
H661 H 0.36945 0.09496 0.69646 0.0
H662 H 0.35044 0.11325 0.58606 0.0
S663 S 0.41357 0.17539 0.67641 0.0
N664 N 0.41415 0.15292 0.72913 0.0
N665 N 0.39397 0.17226 0.61061 0.0
C666 C 0.38695 0.15216 0.62945 0.0
C667 C 0.3979 0.14162 0.69434 0.0
C668 C 0.88752 0.86505 0.11679 0.0
C669 C 0.86854 0.8732 0.08198 0.0
C670 C 0.89803 0.87573 0.18016 0.0
C671 C 0.89026 0.89527 0.21187 0.0
H672 H 0.89439 0.85011 0.09535 0.0
H673 H 0.91255 0.86856 0.20406 0.0
S674 S 0.84123 0.9238 0.14222 0.0
N675 N 0.84236 0.9022 0.08438 0.0
N676 N 0.86225 0.92241 0.20283 0.0
C677 C 0.87132 0.90373 0.17759 0.0
C678 C 0.86045 0.89269 0.11306 0.0
C679 C 0.86249 0.12511 0.9322 0.0
C680 C 0.87096 0.14427 0.96497 0.0
C681 C 0.873 0.11406 0.86873 0.0
C682 C 0.89227 0.12186 0.83467 0.0
H683 H 0.84769 0.11852 0.95592 0.0
H684 H 0.86589 0.09938 0.84598 0.0
S685 S 0.92115 0.17142 0.89816 0.0
N686 N 0.89996 0.17043 0.95765 0.0
N687 N 0.91932 0.15008 0.83965 0.0
C688 C 0.9008 0.14104 0.86693 0.0
C689 C 0.89027 0.1521 0.93156 0.0
C690 C 0.61724 0.13775 0.68353 0.0
C691 C 0.62527 0.11856 0.71724 0.0
C692 C 0.62776 0.14828 0.61988 0.0
C693 C 0.64707 0.14038 0.58689 0.0
H694 H 0.60245 0.14472 0.7059 0.0
H695 H 0.62065 0.16294 0.59677 0.0
S696 S 0.67529 0.09084 0.65341 0.0
N697 N 0.65394 0.09204 0.71245 0.0
N698 N 0.67394 0.11206 0.5936 0.0
C699 C 0.65548 0.12128 0.62021 0.0
C700 C 0.64455 0.11034 0.68491 0.0
C701 C 0.65107 0.88966 0.41789 0.0
C702 C 0.64341 0.87014 0.45053 0.0
C703 C 0.6402 0.90026 0.3542 0.0
C704 C 0.62136 0.89164 0.31964 0.0
H705 H 0.66555 0.89689 0.44188 0.0
H706 H 0.64671 0.91524 0.33159 0.0
S707 S 0.59452 0.84091 0.38282 0.0
N708 N 0.61556 0.84279 0.44279 0.0
N709 N 0.59553 0.8623 0.32416 0.0
C710 C 0.61361 0.87211 0.35179 0.0
C711 C 0.62449 0.8615 0.41677 0.0
C712 C 0.65075 0.62374 0.42174 0.0
C713 C 0.6433 0.64337 0.4541 0.0
C714 C 0.63976 0.61323 0.35818 0.0
C715 C 0.62101 0.62204 0.32352 0.0
H716 H 0.66514 0.61635 0.44583 0.0
H717 H 0.6461 0.59816 0.3358 0.0
S718 S 0.5948 0.67317 0.38575 0.0
N719 N 0.6158 0.67107 0.44584 0.0
N720 N 0.59555 0.65171 0.32746 0.0
C721 C 0.61349 0.64169 0.35534 0.0
C722 C 0.6245 0.65222 0.42017 0.0
C723 C 0.63999 0.40128 0.67949 0.0
C724 C 0.62082 0.39312 0.71317 0.0
C725 C 0.65073 0.39055 0.61576 0.0
C726 C 0.64263 0.37132 0.58229 0.0
H727 H 0.64681 0.41607 0.70255 0.0
H728 H 0.66541 0.39748 0.59228 0.0
S729 S 0.59296 0.34309 0.64839 0.0
N730 N 0.59436 0.36437 0.70745 0.0
N731 N 0.61414 0.3446 0.58897 0.0
C732 C 0.62346 0.36306 0.61554 0.0
C733 C 0.6127 0.37382 0.68044 0.0
C734 C 0.87321 0.40506 0.86055 0.0
C735 C 0.89139 0.39588 0.82303 0.0
C736 C 0.86229 0.39443 0.92418 0.0
C737 C 0.8693 0.37432 0.95381 0.0
H738 H 0.86731 0.42055 0.84054 0.0
H739 H 0.84841 0.40214 0.95091 0.0
S740 S 0.91591 0.34315 0.87624 0.0
N741 N 0.9156 0.36514 0.82068 0.0
N742 N 0.89551 0.3456 0.93894 0.0
C743 C 0.88743 0.36503 0.91659 0.0
C744 C 0.89833 0.37566 0.85175 0.0
C745 C 0.89901 0.64032 0.1884 0.0
C746 C 0.8917 0.62073 0.22131 0.0
C747 C 0.88821 0.6506 0.12475 0.0
C748 C 0.86936 0.642 0.09059 0.0
H749 H 0.91344 0.64785 0.21146 0.0
H750 H 0.89478 0.66559 0.10236 0.0
S751 S 0.84307 0.59112 0.15432 0.0
N752 N 0.86416 0.59308 0.21437 0.0
N753 N 0.8437 0.61254 0.09532 0.0
C754 C 0.86167 0.62247 0.12303 0.0
C755 C 0.87284 0.61183 0.18798 0.0
C756 C 0.36201 0.39133 0.60795 0.0
C757 C 0.37007 0.37176 0.57712 0.0
C758 C 0.3725 0.40237 0.67155 0.0
C759 C 0.39133 0.39415 0.70768 0.0
H760 H 0.34758 0.39828 0.58241 0.0
H761 H 0.36576 0.4174 0.69265 0.0
S762 S 0.41888 0.34327 0.65029 0.0
N763 N 0.39809 0.34468 0.58894 0.0
N764 N 0.41741 0.36497 0.70701 0.0
C765 C 0.39938 0.37451 0.67752 0.0
C766 C 0.38889 0.36347 0.61282 0.0
C767 C 0.38668 0.64866 0.41817 0.0
C768 C 0.36737 0.64096 0.45178 0.0
C769 C 0.39707 0.63794 0.35487 0.0
C770 C 0.38894 0.61872 0.32188 0.0
H771 H 0.39392 0.66334 0.44045 0.0
H772 H 0.41185 0.64484 0.33208 0.0
S773 S 0.33891 0.59136 0.3877 0.0
N774 N 0.34039 0.61273 0.44668 0.0
N775 N 0.3602 0.59231 0.32821 0.0
C776 C 0.36968 0.61063 0.35489 0.0
C777 C 0.35885 0.6218 0.41939 0.0
C778 C 0.15394 0.62355 0.10323 0.0
C779 C 0.14575 0.64287 0.07063 0.0
C780 C 0.14331 0.61263 0.16679 0.0
C781 C 0.12422 0.62075 0.20123 0.0
H782 H 0.16858 0.6167 0.07905 0.0
H783 H 0.15016 0.59779 0.18926 0.0
S784 S 0.09629 0.67101 0.13911 0.0
N785 N 0.11735 0.66964 0.07907 0.0
N786 N 0.09777 0.64955 0.19727 0.0
C787 C 0.11605 0.64015 0.16943 0.0
C788 C 0.12667 0.65106 0.10465 0.0
C789 C 0.14205 0.40194 0.85029 0.0
C790 C 0.12315 0.39331 0.81606 0.0
C791 C 0.15303 0.39132 0.91376 0.0
C792 C 0.14538 0.3718 0.94641 0.0
H793 H 0.14847 0.41697 0.82777 0.0
H794 H 0.16747 0.39857 0.93787 0.0
S795 S 0.09668 0.34229 0.87821 0.0
N796 N 0.09752 0.36379 0.82013 0.0
N797 N 0.11773 0.34424 0.93805 0.0
C798 C 0.12652 0.36307 0.91248 0.0
C799 C 0.11555 0.37369 0.84785 0.0
C800 C 0.18677 0.2683 0.04149 0.0
C801 C 0.17287 0.28021 0.09159 0.0
C802 C 0.18674 0.24557 0.04284 0.0
C803 C 0.17278 0.23415 0.09425 0.0
H804 H 0.19802 0.27655 1.00242 0.0
H805 H 0.19795 0.23696 1.0048 0.0
S806 S 0.13151 0.2579 0.22999 0.0
N807 N 0.14364 0.27873 0.18889 0.0
N808 N 0.14349 0.23666 0.19129 0.0
C809 C 0.15831 0.24601 0.14216 0.0
C810 C 0.15838 0.26886 0.14088 0.0
C811 C 0.99543 0.91686 0.41073 0.0
C812 C 0.98331 0.92547 0.34689 0.0
C813 C 0.0178 0.91685 0.40926 0.0
C814 C 0.02934 0.92546 0.34389 0.0
H815 H 0.98764 0.9097 0.46264 0.0
H816 H 0.02603 0.90967 0.46013 0.0
S817 S 1.00549 0.95057 0.1616 0.0
N818 N 0.98451 0.94332 0.21633 0.0
N819 N 0.02696 0.94332 0.21361 0.0
C820 C 0.01757 0.93447 0.27967 0.0
C821 C 0.99449 0.93448 0.28117 0.0
C822 C 0.33 0.76976 0.53879 0.0
C823 C 0.34337 0.78167 0.59082 0.0
C824 C 0.33046 0.74706 0.5385 0.0
C825 C 0.34434 0.73557 0.5901 0.0
H826 H 0.31887 0.778 0.49922 0.0
H827 H 0.31964 0.73848 0.49877 0.0
S828 S 0.3841 0.75925 0.73178 0.0
N829 N 0.37191 0.78013 0.69107 0.0
N830 N 0.3728 0.738 0.69029 0.0
C831 C 0.3582 0.74739 0.64038 0.0
C832 C 0.35771 0.77029 0.6408 0.0
C833 C 0.49753 0.10088 0.91735 0.0
C834 C 0.48565 0.09183 0.85374 0.0
C835 C 0.51992 0.10048 0.91779 0.0
C836 C 0.53166 0.09104 0.8546 0.0
H837 H 0.48953 0.10859 0.96762 0.0
H838 H 0.52803 0.10792 0.96838 0.0
S839 S 0.50844 0.06462 0.67388 0.0
N840 N 0.48729 0.07274 0.72583 0.0
N841 N 0.52972 0.07204 0.72659 0.0
C842 C 0.52011 0.08169 0.79055 0.0
C843 C 0.49705 0.08209 0.79014 0.0
C844 C 0.17499 0.76947 0.99902 0.0
C845 C 0.17632 0.78139 0.92685 0.0
C846 C 0.17501 0.74674 0.99802 0.0
C847 C 0.17621 0.73525 0.9248 0.0
H848 H 0.17307 0.7777 0.05613 0.0
H849 H 0.17321 0.73814 0.05448 0.0
S850 S 0.18429 0.75899 0.72145 0.0
N851 N 0.18222 0.77976 0.78239 0.0
N852 N 0.18151 0.73783 0.78015 0.0
C853 C 0.17877 0.74712 0.85339 0.0
C854 C 0.17903 0.76999 0.85453 0.0
C855 C 0.49501 0.93215 0.23204 0.0
C856 C 0.48322 0.91915 0.17835 0.0
C857 C 0.51768 0.93206 0.23166 0.0
C858 C 0.52922 0.91899 0.17746 0.0
H859 H 0.48671 0.94272 0.27357 0.0
H860 H 0.52618 0.94253 0.27295 0.0
S861 S 0.50587 0.8805 0.03002 0.0
N862 N 0.48493 0.89182 0.07352 0.0
N863 N 0.52701 0.89169 0.07258 0.0
C864 C 0.51752 0.90553 0.12523 0.0
C865 C 0.49466 0.90559 0.12573 0.0
C866 C 0.34743 0.24482 0.37325 0.0
C867 C 0.33914 0.23327 0.43926 0.0
C868 C 0.34756 0.26725 0.37203 0.0
C869 C 0.3394 0.27937 0.43672 0.0
H870 H 0.35426 0.23653 0.32187 0.0
H871 H 0.35448 0.27508 0.31978 0.0
S872 S 0.31517 0.25714 0.62355 0.0
N873 N 0.322 0.23566 0.57079 0.0
N874 N 0.32223 0.27814 0.56846 0.0
C875 C 0.33064 0.26816 0.50283 0.0
C876 C 0.33051 0.24506 0.50411 0.0
C877 C 0.99505 0.09692 0.62876 0.0
C878 C 0.98331 0.08868 0.69419 0.0
C879 C 0.01738 0.09707 0.62864 0.0
C880 C 0.02935 0.08891 0.6938 0.0
H881 H 0.98699 0.1038 0.57691 0.0
H882 H 0.02521 0.10412 0.57669 0.0
S883 S 1.00662 0.06466 0.87959 0.0
N884 N 0.9853 0.0715 0.82593 0.0
N885 N 0.02778 0.0717 0.82544 0.0
C886 C 0.01799 0.08011 0.75942 0.0
C887 C 0.99489 0.08001 0.75966 0.0
C888 C 0.84479 0.74561 0.87841 0.0
C889 C 0.83698 0.73389 0.94483 0.0
C890 C 0.84501 0.768 0.87791 0.0
C891 C 0.83743 0.78002 0.94377 0.0
H892 H 0.85131 0.7375 0.82609 0.0
H893 H 0.85166 0.77586 0.82525 0.0
S894 S 0.81437 0.75743 0.13207 0.0
N895 N 0.82072 0.73603 0.07798 0.0
N896 N 0.82111 0.77855 0.07702 0.0
C897 C 0.82898 0.76868 1.01023 0.0
C898 C 0.82876 0.74556 1.01075 0.0
C899 C 0.68598 0.24564 0.49437 0.0
C900 C 0.67189 0.23381 0.44473 0.0
C901 C 0.68606 0.26837 0.49312 0.0
C902 C 0.67205 0.27988 0.44216 0.0
H903 H 0.69729 0.23732 0.533 0.0
H904 H 0.69739 0.27691 0.53088 0.0
S905 S 0.63033 0.25641 0.3078 0.0
N906 N 0.64243 0.23549 0.34846 0.0
N907 N 0.64254 0.27758 0.34607 0.0
C908 C 0.65742 0.26812 0.39467 0.0
C909 C 0.65735 0.24526 0.39597 0.0
C910 C 0.84693 0.27125 0.16736 0.0
C911 C 0.8388 0.28278 0.10104 0.0
C912 C 0.84721 0.24883 0.16845 0.0
C913 C 0.83936 0.23668 0.10328 0.0
H914 H 0.85352 0.27956 0.21913 0.0
H915 H 0.854 0.24102 0.22099 0.0
S916 S 0.81562 0.25884 0.91543 0.0
N917 N 0.82212 0.28033 0.96866 0.0
N918 N 0.82264 0.23786 0.97072 0.0
C919 C 0.83075 0.24787 0.03681 0.0
C920 C 0.83047 0.27096 0.03569 0.0
C921 C 0.67631 0.74515 0.51914 0.0
C922 C 0.6813 0.73364 0.58991 0.0
C923 C 0.67614 0.76785 0.51874 0.0
C924 C 0.68094 0.77959 0.58912 0.0
H925 H 0.67134 0.73662 0.46533 0.0
H926 H 0.67107 0.77619 0.4646 0.0
S927 S 0.69957 0.75695 0.78391 0.0
N928 N 0.69437 0.73577 0.72747 0.0
N929 N 0.694 0.77793 0.72679 0.0
C930 C 0.68753 0.76818 0.65778 0.0
C931 C 0.68772 0.7453 0.65815 0.0
C932 C 0.51718 0.41847 0.9124 0.0
C933 C 0.52915 0.42656 0.84713 0.0
C934 C 0.49486 0.41813 0.91139 0.0
C935 C 0.48314 0.4259 0.84512 0.0
H936 H 0.52504 0.41184 0.96511 0.0
H937 H 0.48681 0.4113 0.96332 0.0
S938 S 0.50644 0.44956 0.65906 0.0
N939 N 0.5276 0.44312 0.71432 0.0
N940 N 0.48512 0.44256 0.71245 0.0
C941 C 0.49471 0.43451 0.77953 0.0
C942 C 0.5178 0.43483 0.78053 0.0
C943 C 0.99861 0.6019 0.4039 0.0
C944 C 0.98624 0.5919 0.34363 0.0
C945 C 0.02093 0.60135 0.40267 0.0
C946 C 0.03224 0.59087 0.34083 0.0
H947 H 0.99109 0.61051 0.45313 0.0
H948 H 0.02933 0.60952 0.45097 0.0
S949 S 0.0078 0.56203 0.16775 0.0
N950 N 0.98698 0.571 0.21971 0.0
N951 N 0.02945 0.57008 0.21696 0.0
C952 C 0.02027 0.58072 0.27959 0.0
C953 C 0.99718 0.58121 0.28107 0.0
C954 C 0.99643 0.43379 0.73342 0.0
C955 C 0.98442 0.42079 0.6804 0.0
C956 C 0.01911 0.43368 0.7318 0.0
C957 C 0.03046 0.42059 0.67707 0.0
H958 H 0.98828 0.44437 0.77532 0.0
H959 H 0.02776 0.44416 0.77262 0.0
S960 S 1.00651 0.38198 0.5314 0.0
N961 N 0.98574 0.39337 0.57581 0.0
N962 N 0.02782 0.3932 0.57266 0.0
C963 C 0.01854 0.4071 0.62561 0.0
C964 C 0.99568 0.40719 0.62731 0.0
C965 C 0.49444 0.58128 0.23446 0.0
C966 C 0.48275 0.59494 0.18269 0.0
C967 C 0.51714 0.58118 0.23404 0.0
C968 C 0.52879 0.5947 0.1817 0.0
H969 H 0.48605 0.57034 0.27437 0.0
H970 H 0.52556 0.57019 0.27367 0.0
S971 S 0.50575 0.6351 0.04067 0.0
N972 N 0.48472 0.62346 0.08235 0.0
N973 N 0.5268 0.62322 0.08132 0.0
C974 C 0.51719 0.60886 0.13171 0.0
C975 C 0.49433 0.60899 0.13227 0.0
C976 C 0.14632 0.1303 0.37048 0.0
C977 C 0.13794 0.14848 0.33087 0.0
C978 C 0.13428 0.1196 0.43044 0.0
C979 C 0.11368 0.12696 0.45209 0.0
H980 H 0.1624 0.12475 0.3568 0.0
H981 H 0.14091 0.10538 0.4588 0.0
S982 S 0.08517 0.17428 0.36708 0.0
N983 N 0.10815 0.17338 0.31769 0.0
N984 N 0.08583 0.15381 0.43038 0.0
C985 C 0.10538 0.14521 0.41283 0.0
C986 C 0.11742 0.15581 0.35209 0.0
C987 C 0.11746 0.90053 0.67202 0.0
C988 C 0.12069 0.89971 0.58758 0.0
C989 C 0.1304 0.88877 0.72524 0.0
C990 C 0.14696 0.87578 0.6957 0.0
H991 H 0.10404 0.90937 0.69711 0.0
H992 H 0.12626 0.88847 0.78874 0.0
S993 S 0.16511 0.87158 0.48284 0.0
N994 N 0.1439 0.8875 0.47898 0.0
N995 N 0.16834 0.86546 0.57904 0.0
C996 C 0.15185 0.87664 0.61267 0.0
C997 C 0.1387 0.88862 0.55849 0.0
C998 C 0.37526 0.88597 0.96605 0.0
C999 C 0.39006 0.90087 0.9356 0.0
C1000 C 0.36309 0.87323 0.91356 0.0
C1001 C 0.36519 0.87509 0.82899 0.0
H1002 H 0.37441 0.88281 0.03026 0.0
H1003 H 0.35292 0.8609 0.93952 0.0
S1004 S 0.3983 0.91519 0.72025 0.0
N1005 N 0.40357 0.91943 0.81661 0.0
N1006 N 0.38062 0.8954 0.71801 0.0
C1007 C 0.3781 0.89163 0.79821 0.0
C1008 C 0.39059 0.90453 0.85163 0.0
C1009 C 0.3968 0.11551 0.18406 0.0
C1010 C 0.39404 0.11641 0.09949 0.0
C1011 C 0.38367 0.12736 0.23631 0.0
C1012 C 0.36744 0.14063 0.20564 0.0
H1013 H 0.40997 0.10647 0.21005 0.0
H1014 H 0.38735 0.12742 0.3002 0.0
S1015 S 0.35079 0.14548 0.99125 0.0
N1016 N 0.37175 0.12922 0.98906 0.0
N1017 N 0.34702 0.15152 0.08723 0.0
C1018 C 0.36313 0.14005 0.12216 0.0
C1019 C 0.37642 0.12789 0.06899 0.0
C1020 C 0.87942 0.8807 0.56368 0.0
C1021 C 0.89345 0.89639 0.59358 0.0
C1022 C 0.86753 0.86779 0.61658 0.0
C1023 C 0.86911 0.87024 0.70114 0.0
H1024 H 0.87874 0.87735 0.49958 0.0
H1025 H 0.85773 0.85512 0.59095 0.0
S1026 S 0.90063 0.91186 0.80834 0.0
N1027 N 0.90608 0.91581 0.71194 0.0
N1028 N 0.88363 0.8915 0.81125 0.0
C1029 C 0.88155 0.88721 0.73125 0.0
C1030 C 0.89378 0.90027 0.67742 0.0
C1031 C 0.86759 0.1481 0.43083 0.0
C1032 C 0.86889 0.14564 0.3462 0.0
C1033 C 0.87932 0.1349 0.48328 0.0
C1034 C 0.8929 0.11889 0.45286 0.0
H1035 H 0.85816 0.16099 0.45686 0.0
H1036 H 0.87892 0.13828 0.54739 0.0
S1037 S 0.89916 0.10326 0.23785 0.0
N1038 N 0.88264 0.12403 0.23557 0.0
N1039 N 0.90474 0.09917 0.33405 0.0
C1040 C 0.8929 0.115 0.36901 0.0
C1041 C 0.88085 0.12836 0.31564 0.0
C1042 C 0.63359 0.12696 0.23544 0.0
C1043 C 0.64918 0.14105 0.20519 0.0
C1044 C 0.62079 0.11489 0.18279 0.0
C1045 C 0.62325 0.11638 0.09821 0.0
H1046 H 0.63009 0.12652 0.29946 0.0
H1047 H 0.60805 0.10519 0.20854 0.0
S1048 S 0.66493 0.14773 0.9905 0.0
N1049 N 0.66875 0.15339 0.08677 0.0
N1050 N 0.64464 0.13065 0.9879 0.0
C1051 C 0.64029 0.1287 0.06791 0.0
C1052 C 0.65325 0.14109 0.12148 0.0
C1053 C 0.64759 0.8678 0.91567 0.0
C1054 C 0.64603 0.86997 0.83098 0.0
C1055 C 0.63557 0.88078 0.96784 0.0
C1056 C 0.62147 0.89628 0.93709 0.0
H1057 H 0.65742 0.85525 0.94202 0.0
H1058 H 0.63616 0.87755 0.03205 0.0
S1059 S 0.61449 0.91121 0.72158 0.0
N1060 N 0.63157 0.8909 0.71977 0.0
N1061 N 0.60893 0.91539 0.81773 0.0
C1062 C 0.62126 0.89999 0.85308 0.0
C1063 C 0.63359 0.88683 0.79997 0.0
C1064 C 0.63506 0.63373 0.97163 0.0
C1065 C 0.62096 0.6182 0.94112 0.0
C1066 C 0.64723 0.64652 0.91926 0.0
C1067 C 0.64585 0.64413 0.83462 0.0
H1068 H 0.63556 0.6371 0.03574 0.0
H1069 H 0.65708 0.65908 0.9454 0.0
S1070 S 0.6143 0.60277 0.72605 0.0
N1071 N 0.60855 0.59886 0.82221 0.0
N1072 N 0.63147 0.623 0.72387 0.0
C1073 C 0.63336 0.62727 0.80395 0.0
C1074 C 0.62087 0.6143 0.85726 0.0
C1075 C 0.64585 0.38474 0.17007 0.0
C1076 C 0.63716 0.36663 0.20921 0.0
C1077 C 0.63396 0.3958 0.11064 0.0
C1078 C 0.6132 0.38891 0.08914 0.0
H1079 H 0.66205 0.38994 0.18368 0.0
H1080 H 0.64085 0.40994 0.08257 0.0
S1081 S 0.58389 0.34195 0.17297 0.0
N1082 N 0.60695 0.34225 0.22195 0.0
N1083 N 0.58485 0.36258 0.11046 0.0
C1084 C 0.60459 0.37074 0.12795 0.0
C1085 C 0.6165 0.35974 0.18807 0.0
C1086 C 0.87656 0.38675 0.47236 0.0
C1087 C 0.89108 0.40183 0.44126 0.0
C1088 C 0.8644 0.37384 0.42046 0.0
C1089 C 0.86622 0.37566 0.33578 0.0
H1090 H 0.87586 0.38367 0.53665 0.0
H1091 H 0.85437 0.36148 0.44703 0.0
S1092 S 0.89867 0.41598 0.22536 0.0
N1093 N 0.90412 0.42038 0.32147 0.0
N1094 N 0.88121 0.396 0.22402 0.0
C1095 C 0.87894 0.39226 0.30434 0.0
C1096 C 0.89142 0.40535 0.35717 0.0
C1097 C 0.86979 0.63017 0.67641 0.0
C1098 C 0.87818 0.64775 0.7196 0.0
C1099 C 0.88217 0.61973 0.61685 0.0
C1100 C 0.90315 0.62674 0.5991 0.0
H1101 H 0.8534 0.625 0.68666 0.0
H1102 H 0.87541 0.60608 0.58525 0.0
S1103 S 0.93175 0.67269 0.69396 0.0
N1104 N 0.90829 0.67183 0.7401 0.0
N1105 N 0.93132 0.65278 0.62826 0.0
C1106 C 0.91148 0.64438 0.64219 0.0
C1107 C 0.89907 0.65471 0.70252 0.0
C1108 C 0.36733 0.36881 0.11105 0.0
C1109 C 0.36896 0.37093 0.19569 0.0
C1110 C 0.37895 0.38215 0.05882 0.0
C1111 C 0.39273 0.39795 0.08949 0.0
H1112 H 0.35777 0.35605 0.08481 0.0
H1113 H 0.37833 0.379 0.99457 0.0
S1114 S 0.39982 0.41267 0.30501 0.0
N1115 N 0.38317 0.39201 0.30689 0.0
N1116 N 0.4051 0.41712 0.20879 0.0
C1117 C 0.39303 0.40153 0.1735 0.0
C1118 C 0.38108 0.38803 0.22667 0.0
C1119 C 0.39231 0.61513 0.85631 0.0
C1120 C 0.39027 0.61715 0.94082 0.0
C1121 C 0.37989 0.62758 0.80358 0.0
C1122 C 0.36516 0.64257 0.83378 0.0
H1123 H 0.40458 0.60484 0.83068 0.0
H1124 H 0.38315 0.62674 0.73945 0.0
S1125 S 0.3505 0.65078 0.04876 0.0
N1126 N 0.36998 0.63278 0.05137 0.0
N1127 N 0.34656 0.65624 0.95236 0.0
C1128 C 0.36133 0.64307 0.91762 0.0
C1129 C 0.37389 0.63029 0.97126 0.0
C1130 C 0.13408 0.62678 0.72091 0.0
C1131 C 0.15022 0.64019 0.69057 0.0
C1132 C 0.12118 0.61477 0.66833 0.0
C1133 C 0.12405 0.61575 0.58377 0.0
H1134 H 0.13018 0.62694 0.78462 0.0
H1135 H 0.10803 0.60565 0.69405 0.0
S1136 S 0.16736 0.645 0.47673 0.0
N1137 N 0.17086 0.6511 0.57279 0.0
N1138 N 0.14653 0.62858 0.47396 0.0
C1139 C 0.14169 0.62725 0.55376 0.0
C1140 C 0.15479 0.6395 0.60728 0.0
C1141 C 0.13345 0.38679 0.29781 0.0
C1142 C 0.14939 0.37315 0.32839 0.0
C1143 C 0.12036 0.39862 0.35017 0.0
C1144 C 0.12285 0.39731 0.43479 0.0
H1145 H 0.12993 0.38702 0.23379 0.0
H1146 H 0.1074 0.40796 0.32415 0.0
S1147 S 0.1654 0.36728 0.54313 0.0
N1148 N 0.16934 0.36155 0.44699 0.0
N1149 N 0.14465 0.38382 0.5454 0.0
C1150 C 0.14022 0.3855 0.46536 0.0
C1151 C 0.15349 0.37337 0.41206 0.0
loop_
_geom_bond_atom_site_label_1
_geom_bond_atom_site_label_2
_geom_bond_distance
_geom_bond_site_symmetry_2
_ccdc_geom_bond_type
Co0 O1 2.216 . S
Co0 O2 2.091 . S
Co0 O4 2.004 . S
Co0 O10 2.021 . S
Co0 O12 2.137 . S
Co0 O13 2.244 . S
O1 Co0 2.216 . S
O1 C8 1.247 . S
O2 Co0 2.091 . S
O2 C8 1.261 . S
C3 O12 1.247 . S
C3 O13 1.272 . S
O4 Co0 2.004 . S
O4 C9 1.259 . S
Co5 O6 2.061 . S
Co5 O11 2.052 . S
Co5 O13 2.135 . S
O6 Co5 2.061 . S
O6 C9 1.235 . S
C7 O10 1.238 . S
C7 O11 1.241 . S
C8 O1 1.247 . S
C8 O2 1.261 . S
C9 O4 1.259 . S
C9 O6 1.235 . S
O10 Co0 2.021 . S
O10 C7 1.238 . S
O11 Co5 2.052 . S
O11 C7 1.241 . S
O12 Co0 2.137 . S
O12 C3 1.247 . S
O13 Co0 2.244 . S
O13 C3 1.272 . S
O13 Co5 2.135 . S
Co14 O15 2.216 . S
Co14 O16 2.091 . S
Co14 O18 2.004 . S
Co14 O24 2.021 . S
Co14 O26 2.137 . S
Co14 O27 2.244 . S
O15 Co14 2.216 . S
O15 C22 1.247 . S
O16 Co14 2.091 . S
O16 C22 1.261 . S
C17 O26 1.247 . S
C17 O27 1.272 . S
O18 Co14 2.004 . S
O18 C23 1.259 . S
Co19 O20 2.061 . S
Co19 O25 2.052 . S
Co19 O27 2.135 . S
O20 Co19 2.061 . S
O20 C23 1.235 . S
C21 O24 1.238 . S
C21 O25 1.241 . S
C22 O15 1.247 . S
C22 O16 1.261 . S
C23 O18 1.259 . S
C23 O20 1.235 . S
O24 Co14 2.021 . S
O24 C21 1.238 . S
O25 Co19 2.052 . S
O25 C21 1.241 . S
O26 Co14 2.137 . S
O26 C17 1.247 . S
O27 Co14 2.244 . S
O27 C17 1.272 . S
O27 Co19 2.135 . S
Co28 O29 2.216 . S
Co28 O30 2.091 . S
Co28 O32 2.004 . S
Co28 O38 2.021 . S
Co28 O40 2.137 . S
Co28 O41 2.244 . S
O29 Co28 2.216 . S
O29 C36 1.247 . S
O30 Co28 2.091 . S
O30 C36 1.261 . S
C31 O40 1.247 . S
C31 O41 1.272 . S
O32 Co28 2.004 . S
O32 C37 1.259 . S
Co33 O34 2.061 . S
Co33 O39 2.052 . S
Co33 O41 2.135 . S
O34 Co33 2.061 . S
O34 C37 1.235 . S
C35 O38 1.238 . S
C35 O39 1.241 . S
C36 O29 1.247 . S
C36 O30 1.261 . S
C37 O32 1.259 . S
C37 O34 1.235 . S
O38 Co28 2.021 . S
O38 C35 1.238 . S
O39 Co33 2.052 . S
O39 C35 1.241 . S
O40 Co28 2.137 . S
O40 C31 1.247 . S
O41 Co28 2.244 . S
O41 C31 1.272 . S
O41 Co33 2.135 . S
Co42 O43 2.216 . S
Co42 O44 2.091 . S
Co42 O46 2.004 . S
Co42 O52 2.021 . S
Co42 O54 2.137 . S
Co42 O55 2.244 . S
O43 Co42 2.216 . S
O43 C50 1.247 . S
O44 Co42 2.091 . S
O44 C50 1.261 . S
C45 O54 1.247 . S
C45 O55 1.272 . S
O46 Co42 2.004 . S
O46 C51 1.259 . S
Co47 O48 2.061 . S
Co47 O53 2.052 . S
Co47 O55 2.135 1_554 S
O48 Co47 2.061 . S
O48 C51 1.235 1_554 S
C49 O52 1.238 1_554 S
C49 O53 1.241 . S
C50 O43 1.247 . S
C50 O44 1.261 . S
C51 O46 1.259 . S
C51 O48 1.235 1_556 S
O52 Co42 2.021 . S
O52 C49 1.238 1_556 S
O53 Co47 2.052 . S
O53 C49 1.241 . S
O54 Co42 2.137 . S
O54 C45 1.247 . S
O55 Co42 2.244 . S
O55 C45 1.272 . S
O55 Co47 2.135 1_556 S
Co56 O57 2.216 . S
Co56 O58 2.091 . S
Co56 O60 2.004 . S
Co56 O66 2.021 . S
Co56 O68 2.137 . S
Co56 O69 2.244 . S
O57 Co56 2.216 . S
O57 C64 1.247 . S
O58 Co56 2.091 . S
O58 C64 1.261 . S
C59 O68 1.247 . S
C59 O69 1.272 . S
O60 Co56 2.004 . S
O60 C65 1.259 . S
Co61 O62 2.061 . S
Co61 O67 2.052 . S
Co61 O69 2.135 . S
O62 Co61 2.061 . S
O62 C65 1.235 . S
C63 O66 1.238 . S
C63 O67 1.241 . S
C64 O57 1.247 . S
C64 O58 1.261 . S
C65 O60 1.259 . S
C65 O62 1.235 . S
O66 Co56 2.021 . S
O66 C63 1.238 . S
O67 Co61 2.052 . S
O67 C63 1.241 . S
O68 Co56 2.137 . S
O68 C59 1.247 . S
O69 Co56 2.244 . S
O69 C59 1.272 . S
O69 Co61 2.135 . S
Co70 O71 2.216 . S
Co70 O72 2.091 . S
Co70 O74 2.004 . S
Co70 O80 2.021 . S
Co70 O82 2.137 . S
Co70 O83 2.244 . S
O71 Co70 2.216 . S
O71 C78 1.247 . S
O72 Co70 2.091 . S
O72 C78 1.261 . S
C73 O82 1.247 . S
C73 O83 1.272 . S
O74 Co70 2.004 . S
O74 C79 1.259 . S
Co75 O76 2.061 . S
Co75 O81 2.052 . S
Co75 O83 2.135 1_556 S
O76 Co75 2.061 . S
O76 C79 1.235 1_556 S
C77 O80 1.238 1_556 S
C77 O81 1.241 . S
C78 O71 1.247 . S
C78 O72 1.261 . S
C79 O74 1.259 . S
C79 O76 1.235 1_554 S
O80 Co70 2.021 . S
O80 C77 1.238 1_554 S
O81 Co75 2.052 . S
O81 C77 1.241 . S
O82 Co70 2.137 . S
O82 C73 1.247 . S
O83 Co70 2.244 . S
O83 C73 1.272 . S
O83 Co75 2.135 1_554 S
Co84 O85 2.216 . S
Co84 O86 2.091 . S
Co84 O88 2.004 . S
Co84 O94 2.021 . S
Co84 O96 2.137 . S
Co84 O97 2.244 . S
O85 Co84 2.216 . S
O85 C92 1.247 . S
O86 Co84 2.091 . S
O86 C92 1.261 . S
C87 O96 1.247 . S
C87 O97 1.272 . S
O88 Co84 2.004 . S
O88 C93 1.259 . S
Co89 O90 2.061 . S
Co89 O95 2.052 . S
Co89 O97 2.135 . S
O90 Co89 2.061 . S
O90 C93 1.235 . S
C91 O94 1.238 . S
C91 O95 1.241 . S
C92 O85 1.247 . S
C92 O86 1.261 . S
C93 O88 1.259 . S
C93 O90 1.235 . S
O94 Co84 2.021 . S
O94 C91 1.238 . S
O95 Co89 2.052 . S
O95 C91 1.241 . S
O96 Co84 2.137 . S
O96 C87 1.247 . S
O97 Co84 2.244 . S
O97 C87 1.272 . S
O97 Co89 2.135 . S
Co98 O99 2.216 . S
Co98 O100 2.091 . S
Co98 O102 2.004 . S
Co98 O108 2.021 . S
Co98 O110 2.137 . S
Co98 O111 2.244 . S
O99 Co98 2.216 . S
O99 C106 1.247 . S
O100 Co98 2.091 . S
O100 C106 1.261 . S
C101 O110 1.247 . S
C101 O111 1.272 . S
O102 Co98 2.004 . S
O102 C107 1.259 . S
Co103 O104 2.061 . S
Co103 O109 2.052 . S
Co103 O111 2.135 . S
O104 Co103 2.061 . S
O104 C107 1.235 . S
C105 O108 1.238 . S
C105 O109 1.241 . S
C106 O99 1.247 . S
C106 O100 1.261 . S
C107 O102 1.259 . S
C107 O104 1.235 . S
O108 Co98 2.021 . S
O108 C105 1.238 . S
O109 Co103 2.052 . S
O109 C105 1.241 . S
O110 Co98 2.137 . S
O110 C101 1.247 . S
O111 Co98 2.244 . S
O111 C101 1.272 . S
O111 Co103 2.135 . S
Co112 O113 2.216 . S
Co112 O114 2.091 . S
Co112 O116 2.004 . S
Co112 O122 2.021 . S
Co112 O124 2.137 . S
Co112 O125 2.244 . S
O113 Co112 2.216 . S
O113 C120 1.247 . S
O114 Co112 2.091 . S
O114 C120 1.261 . S
C115 O124 1.247 . S
C115 O125 1.272 . S
O116 Co112 2.004 . S
O116 C121 1.259 . S
Co117 O118 2.061 . S
Co117 O123 2.052 . S
Co117 O125 2.135 . S
O118 Co117 2.061 . S
O118 C121 1.235 . S
C119 O122 1.238 . S
C119 O123 1.241 . S
C120 O113 1.247 . S
C120 O114 1.261 . S
C121 O116 1.259 . S
C121 O118 1.235 . S
O122 Co112 2.021 . S
O122 C119 1.238 . S
O123 Co117 2.052 . S
O123 C119 1.241 . S
O124 Co112 2.137 . S
O124 C115 1.247 . S
O125 Co112 2.244 . S
O125 C115 1.272 . S
O125 Co117 2.135 . S
Co126 O127 2.216 . S
Co126 O128 2.091 . S
Co126 O130 2.004 . S
Co126 O136 2.021 . S
Co126 O138 2.137 . S
Co126 O139 2.244 . S
O127 Co126 2.216 . S
O127 C134 1.247 . S
O128 Co126 2.091 . S
O128 C134 1.261 . S
C129 O138 1.247 . S
C129 O139 1.272 . S
O130 Co126 2.004 . S
O130 C135 1.259 . S
Co131 O132 2.061 . S
Co131 O137 2.052 . S
Co131 O139 2.135 . S
O132 Co131 2.061 . S
O132 C135 1.235 . S
C133 O136 1.238 . S
C133 O137 1.241 . S
C134 O127 1.247 . S
C134 O128 1.261 . S
C135 O130 1.259 . S
C135 O132 1.235 . S
O136 Co126 2.021 . S
O136 C133 1.238 . S
O137 Co131 2.052 . S
O137 C133 1.241 . S
O138 Co126 2.137 . S
O138 C129 1.247 . S
O139 Co126 2.244 . S
O139 C129 1.272 . S
O139 Co131 2.135 . S
Co140 O141 2.216 . S
Co140 O142 2.091 . S
Co140 O144 2.004 . S
Co140 O150 2.021 . S
Co140 O152 2.137 . S
Co140 O153 2.244 . S
O141 Co140 2.216 . S
O141 C148 1.247 . S
O142 Co140 2.091 . S
O142 C148 1.261 . S
C143 O152 1.247 . S
C143 O153 1.272 . S
O144 Co140 2.004 . S
O144 C149 1.259 . S
Co145 O146 2.061 . S
Co145 O151 2.052 . S
Co145 O153 2.135 . S
O146 Co145 2.061 . S
O146 C149 1.235 . S
C147 O150 1.238 . S
C147 O151 1.241 . S
C148 O141 1.247 . S
C148 O142 1.261 . S
C149 O144 1.259 . S
C149 O146 1.235 . S
O150 Co140 2.021 . S
O150 C147 1.238 . S
O151 Co145 2.052 . S
O151 C147 1.241 . S
O152 Co140 2.137 . S
O152 C143 1.247 . S
O153 Co140 2.244 . S
O153 C143 1.272 . S
O153 Co145 2.135 . S
Co154 O155 2.216 . S
Co154 O156 2.091 . S
Co154 O158 2.004 . S
Co154 O164 2.021 . S
Co154 O166 2.137 . S
Co154 O167 2.244 . S
O155 Co154 2.216 . S
O155 C162 1.247 . S
O156 Co154 2.091 . S
O156 C162 1.261 . S
C157 O166 1.247 . S
C157 O167 1.272 . S
O158 Co154 2.004 . S
O158 C163 1.259 . S
Co159 O160 2.061 . S
Co159 O165 2.052 . S
Co159 O167 2.135 1_556 S
O160 Co159 2.061 . S
O160 C163 1.235 1_556 S
C161 O164 1.238 1_556 S
C161 O165 1.241 . S
C162 O155 1.247 . S
C162 O156 1.261 . S
C163 O158 1.259 . S
C163 O160 1.235 1_554 S
O164 Co154 2.021 . S
O164 C161 1.238 1_554 S
O165 Co159 2.052 . S
O165 C161 1.241 . S
O166 Co154 2.137 . S
O166 C157 1.247 . S
O167 Co154 2.244 . S
O167 C157 1.272 . S
O167 Co159 2.135 1_554 S
Co168 O169 2.216 . S
Co168 O170 2.091 . S
Co168 O172 2.004 . S
Co168 O178 2.021 . S
Co168 O180 2.137 . S
Co168 O181 2.244 . S
O169 Co168 2.216 . S
O169 C176 1.247 . S
O170 Co168 2.091 . S
O170 C176 1.261 . S
C171 O180 1.247 . S
C171 O181 1.272 . S
O172 Co168 2.004 . S
O172 C177 1.259 . S
Co173 O174 2.061 . S
Co173 O179 2.052 . S
Co173 O181 2.135 . S
O174 Co173 2.061 . S
O174 C177 1.235 . S
C175 O178 1.238 . S
C175 O179 1.241 . S
C176 O169 1.247 . S
C176 O170 1.261 . S
C177 O172 1.259 . S
C177 O174 1.235 . S
O178 Co168 2.021 . S
O178 C175 1.238 . S
O179 Co173 2.052 . S
O179 C175 1.241 . S
O180 Co168 2.137 . S
O180 C171 1.247 . S
O181 Co168 2.244 . S
O181 C171 1.272 . S
O181 Co173 2.135 . S
Co182 O183 2.216 . S
Co182 O184 2.091 . S
Co182 O186 2.004 . S
Co182 O192 2.021 . S
Co182 O194 2.137 . S
Co182 O195 2.244 . S
O183 Co182 2.216 . S
O183 C190 1.247 . S
O184 Co182 2.091 . S
O184 C190 1.261 . S
C185 O194 1.247 . S
C185 O195 1.272 . S
O186 Co182 2.004 . S
O186 C191 1.259 . S
Co187 O188 2.061 . S
Co187 O193 2.052 . S
Co187 O195 2.135 1_554 S
O188 Co187 2.061 . S
O188 C191 1.235 1_554 S
C189 O192 1.238 1_554 S
C189 O193 1.241 . S
C190 O183 1.247 . S
C190 O184 1.261 . S
C191 O186 1.259 . S
C191 O188 1.235 1_556 S
O192 Co182 2.021 . S
O192 C189 1.238 1_556 S
O193 Co187 2.052 . S
O193 C189 1.241 . S
O194 Co182 2.137 . S
O194 C185 1.247 . S
O195 Co182 2.244 . S
O195 C185 1.272 . S
O195 Co187 2.135 1_556 S
Co196 O197 2.216 . S
Co196 O198 2.091 . S
Co196 O200 2.004 . S
Co196 O206 2.021 . S
Co196 O208 2.137 . S
Co196 O209 2.244 . S
O197 Co196 2.216 . S
O197 C204 1.247 . S
O198 Co196 2.091 . S
O198 C204 1.261 . S
C199 O208 1.247 . S
C199 O209 1.272 . S
O200 Co196 2.004 . S
O200 C205 1.259 . S
Co201 O202 2.061 . S
Co201 O207 2.052 . S
Co201 O209 2.135 . S
O202 Co201 2.061 . S
O202 C205 1.235 . S
C203 O206 1.238 . S
C203 O207 1.241 . S
C204 O197 1.247 . S
C204 O198 1.261 . S
C205 O200 1.259 . S
C205 O202 1.235 . S
O206 Co196 2.021 . S
O206 C203 1.238 . S
O207 Co201 2.052 . S
O207 C203 1.241 . S
O208 Co196 2.137 . S
O208 C199 1.247 . S
O209 Co196 2.244 . S
O209 C199 1.272 . S
O209 Co201 2.135 . S
Co210 O211 2.216 . S
Co210 O212 2.091 . S
Co210 O214 2.004 . S
Co210 O220 2.021 . S
Co210 O222 2.137 . S
Co210 O223 2.244 . S
O211 Co210 2.216 . S
O211 C218 1.247 . S
O212 Co210 2.091 . S
O212 C218 1.261 . S
C213 O222 1.247 . S
C213 O223 1.272 . S
O214 Co210 2.004 . S
O214 C219 1.259 . S
Co215 O216 2.061 . S
Co215 O221 2.052 . S
Co215 O223 2.135 . S
O216 Co215 2.061 . S
O216 C219 1.235 . S
C217 O220 1.238 . S
C217 O221 1.241 . S
C218 O211 1.247 . S
C218 O212 1.261 . S
C219 O214 1.259 . S
C219 O216 1.235 . S
O220 Co210 2.021 . S
O220 C217 1.238 . S
O221 Co215 2.052 . S
O221 C217 1.241 . S
O222 Co210 2.137 . S
O222 C213 1.247 . S
O223 Co210 2.244 . S
O223 C213 1.272 . S
O223 Co215 2.135 . S
Co224 O225 2.216 . S
Co224 O226 2.091 . S
Co224 O228 2.004 . S
Co224 O234 2.021 . S
Co224 O236 2.137 . S
Co224 O237 2.244 . S
O225 Co224 2.216 . S
O225 C232 1.247 . S
O226 Co224 2.091 . S
O226 C232 1.261 . S
C227 O236 1.247 . S
C227 O237 1.272 . S
O228 Co224 2.004 . S
O228 C233 1.259 . S
Co229 O230 2.061 . S
Co229 O235 2.052 . S
Co229 O237 2.135 . S
O230 Co229 2.061 . S
O230 C233 1.235 . S
C231 O234 1.238 . S
C231 O235 1.241 . S
C232 O225 1.247 . S
C232 O226 1.261 . S
C233 O228 1.259 . S
C233 O230 1.235 . S
O234 Co224 2.021 . S
O234 C231 1.238 . S
O235 Co229 2.052 . S
O235 C231 1.241 . S
O236 Co224 2.137 . S
O236 C227 1.247 . S
O237 Co224 2.244 . S
O237 C227 1.272 . S
O237 Co229 2.135 . S
Co238 O239 2.216 . S
Co238 O240 2.091 . S
Co238 O242 2.004 . S
Co238 O248 2.021 . S
Co238 O250 2.137 . S
Co238 O251 2.244 . S
O239 Co238 2.216 . S
O239 C246 1.247 . S
O240 Co238 2.091 . S
O240 C246 1.261 . S
C241 O250 1.247 . S
C241 O251 1.272 . S
O242 Co238 2.004 . S
O242 C247 1.259 . S
Co243 O244 2.061 . S
Co243 O249 2.052 . S
Co243 O251 2.135 1_554 S
O244 Co243 2.061 . S
O244 C247 1.235 1_554 S
C245 O248 1.238 1_554 S
C245 O249 1.241 . S
C246 O239 1.247 . S
C246 O240 1.261 . S
C247 O242 1.259 . S
C247 O244 1.235 1_556 S
O248 Co238 2.021 . S
O248 C245 1.238 1_556 S
O249 Co243 2.052 . S
O249 C245 1.241 . S
O250 Co238 2.137 . S
O250 C241 1.247 . S
O251 Co238 2.244 . S
O251 C241 1.272 . S
O251 Co243 2.135 1_556 S
Co252 O253 2.216 . S
Co252 O254 2.091 . S
Co252 O256 2.004 . S
Co252 O262 2.021 . S
Co252 O264 2.137 . S
Co252 O265 2.244 . S
O253 Co252 2.216 . S
O253 C260 1.247 . S
O254 Co252 2.091 . S
O254 C260 1.261 . S
C255 O264 1.247 . S
C255 O265 1.272 . S
O256 Co252 2.004 . S
O256 C261 1.259 . S
Co257 O258 2.061 . S
Co257 O263 2.052 . S
Co257 O265 2.135 . S
O258 Co257 2.061 . S
O258 C261 1.235 . S
C259 O262 1.238 . S
C259 O263 1.241 . S
C260 O253 1.247 . S
C260 O254 1.261 . S
C261 O256 1.259 . S
C261 O258 1.235 . S
O262 Co252 2.021 . S
O262 C259 1.238 . S
O263 Co257 2.052 . S
O263 C259 1.241 . S
O264 Co252 2.137 . S
O264 C255 1.247 . S
O265 Co252 2.244 . S
O265 C255 1.272 . S
O265 Co257 2.135 . S
Co266 O267 2.216 . S
Co266 O268 2.091 . S
Co266 O270 2.004 . S
Co266 O276 2.021 . S
Co266 O278 2.137 . S
Co266 O279 2.244 . S
O267 Co266 2.216 . S
O267 C274 1.247 . S
O268 Co266 2.091 . S
O268 C274 1.261 . S
C269 O278 1.247 . S
C269 O279 1.272 . S
O270 Co266 2.004 . S
O270 C275 1.259 . S
Co271 O272 2.061 . S
Co271 O277 2.052 . S
Co271 O279 2.135 . S
O272 Co271 2.061 . S
O272 C275 1.235 . S
C273 O276 1.238 . S
C273 O277 1.241 . S
C274 O267 1.247 . S
C274 O268 1.261 . S
C275 O270 1.259 . S
C275 O272 1.235 . S
O276 Co266 2.021 . S
O276 C273 1.238 . S
O277 Co271 2.052 . S
O277 C273 1.241 . S
O278 Co266 2.137 . S
O278 C269 1.247 . S
O279 Co266 2.244 . S
O279 C269 1.272 . S
O279 Co271 2.135 . S
Co280 O281 2.216 . S
Co280 O282 2.091 . S
Co280 O284 2.004 . S
Co280 O290 2.021 . S
Co280 O292 2.137 . S
Co280 O293 2.244 . S
O281 Co280 2.216 . S
O281 C288 1.247 . S
O282 Co280 2.091 . S
O282 C288 1.261 . S
C283 O292 1.247 . S
C283 O293 1.272 . S
O284 Co280 2.004 . S
O284 C289 1.259 . S
Co285 O286 2.061 . S
Co285 O291 2.052 . S
Co285 O293 2.135 . S
O286 Co285 2.061 . S
O286 C289 1.235 . S
C287 O290 1.238 . S
C287 O291 1.241 . S
C288 O281 1.247 . S
C288 O282 1.261 . S
C289 O284 1.259 . S
C289 O286 1.235 . S
O290 Co280 2.021 . S
O290 C287 1.238 . S
O291 Co285 2.052 . S
O291 C287 1.241 . S
O292 Co280 2.137 . S
O292 C283 1.247 . S
O293 Co280 2.244 . S
O293 C283 1.272 . S
O293 Co285 2.135 . S
Co294 O295 2.216 . S
Co294 O296 2.091 . S
Co294 O298 2.004 . S
Co294 O304 2.021 . S
Co294 O306 2.137 . S
Co294 O307 2.244 . S
O295 Co294 2.216 . S
O295 C302 1.247 . S
O296 Co294 2.091 . S
O296 C302 1.261 . S
C297 O306 1.247 . S
C297 O307 1.272 . S
O298 Co294 2.004 . S
O298 C303 1.259 . S
Co299 O300 2.061 . S
Co299 O305 2.052 . S
Co299 O307 2.135 . S
O300 Co299 2.061 . S
O300 C303 1.235 . S
C301 O304 1.238 . S
C301 O305 1.241 . S
C302 O295 1.247 . S
C302 O296 1.261 . S
C303 O298 1.259 . S
C303 O300 1.235 . S
O304 Co294 2.021 . S
O304 C301 1.238 . S
O305 Co299 2.052 . S
O305 C301 1.241 . S
O306 Co294 2.137 . S
O306 C297 1.247 . S
O307 Co294 2.244 . S
O307 C297 1.272 . S
O307 Co299 2.135 . S
Co308 O309 2.216 . S
Co308 O310 2.091 . S
Co308 O312 2.004 . S
Co308 O318 2.021 . S
Co308 O320 2.137 . S
Co308 O321 2.244 . S
O309 Co308 2.216 . S
O309 C316 1.247 . S
O310 Co308 2.091 . S
O310 C316 1.261 . S
C311 O320 1.247 . S
C311 O321 1.272 . S
O312 Co308 2.004 . S
O312 C317 1.259 . S
Co313 O314 2.061 . S
Co313 O319 2.052 . S
Co313 O321 2.135 . S
O314 Co313 2.061 . S
O314 C317 1.235 . S
C315 O318 1.238 . S
C315 O319 1.241 . S
C316 O309 1.247 . S
C316 O310 1.261 . S
C317 O312 1.259 . S
C317 O314 1.235 . S
O318 Co308 2.021 . S
O318 C315 1.238 . S
O319 Co313 2.052 . S
O319 C315 1.241 . S
O320 Co308 2.137 . S
O320 C311 1.247 . S
O321 Co308 2.244 . S
O321 C311 1.272 . S
O321 Co313 2.135 . S
Co322 O323 2.216 . S
Co322 O324 2.091 . S
Co322 O326 2.004 . S
Co322 O332 2.021 . S
Co322 O334 2.137 . S
Co322 O335 2.244 . S
O323 Co322 2.216 . S
O323 C330 1.247 . S
O324 Co322 2.091 . S
O324 C330 1.261 . S
C325 O334 1.247 . S
C325 O335 1.272 . S
O326 Co322 2.004 . S
O326 C331 1.259 . S
Co327 O328 2.061 . S
Co327 O333 2.052 . S
Co327 O335 2.135 1_556 S
O328 Co327 2.061 . S
O328 C331 1.235 1_556 S
C329 O332 1.238 1_556 S
C329 O333 1.241 . S
C330 O323 1.247 . S
C330 O324 1.261 . S
C331 O326 1.259 . S
C331 O328 1.235 1_554 S
O332 Co322 2.021 . S
O332 C329 1.238 1_554 S
O333 Co327 2.052 . S
O333 C329 1.241 . S
O334 Co322 2.137 . S
O334 C325 1.247 . S
O335 Co322 2.244 . S
O335 C325 1.272 . S
O335 Co327 2.135 1_554 S
Co336 O337 2.216 . S
Co336 O338 2.091 . S
Co336 O340 2.004 . S
Co336 O346 2.021 . S
Co336 O348 2.137 . S
Co336 O349 2.244 . S
O337 Co336 2.216 . S
O337 C344 1.247 . S
O338 Co336 2.091 . S
O338 C344 1.261 . S
C339 O348 1.247 . S
C339 O349 1.272 . S
O340 Co336 2.004 . S
O340 C345 1.259 . S
Co341 O342 2.061 . S
Co341 O347 2.052 . S
Co341 O349 2.135 . S
O342 Co341 2.061 . S
O342 C345 1.235 . S
C343 O346 1.238 . S
C343 O347 1.241 . S
C344 O337 1.247 . S
C344 O338 1.261 . S
C345 O340 1.259 . S
C345 O342 1.235 . S
O346 Co336 2.021 . S
O346 C343 1.238 . S
O347 Co341 2.052 . S
O347 C343 1.241 . S
O348 Co336 2.137 . S
O348 C339 1.247 . S
O349 Co336 2.244 . S
O349 C339 1.272 . S
O349 Co341 2.135 . S
Co350 O351 2.216 . S
Co350 O352 2.091 . S
Co350 O354 2.004 . S
Co350 O360 2.021 . S
Co350 O362 2.137 . S
Co350 O363 2.244 . S
O351 Co350 2.216 . S
O351 C358 1.247 . S
O352 Co350 2.091 . S
O352 C358 1.261 . S
C353 O362 1.247 . S
C353 O363 1.272 . S
O354 Co350 2.004 . S
O354 C359 1.259 . S
Co355 O356 2.061 . S
Co355 O361 2.052 . S
Co355 O363 2.135 1_556 S
O356 Co355 2.061 . S
O356 C359 1.235 1_556 S
C357 O360 1.238 1_556 S
C357 O361 1.241 . S
C358 O351 1.247 . S
C358 O352 1.261 . S
C359 O354 1.259 . S
C359 O356 1.235 1_554 S
O360 Co350 2.021 . S
O360 C357 1.238 1_554 S
O361 Co355 2.052 . S
O361 C357 1.241 . S
O362 Co350 2.137 . S
O362 C353 1.247 . S
O363 Co350 2.244 . S
O363 C353 1.272 . S
O363 Co355 2.135 1_554 S
Co364 O365 2.216 . S
Co364 O366 2.091 . S
Co364 O368 2.004 . S
Co364 O374 2.021 . S
Co364 O376 2.137 . S
Co364 O377 2.244 . S
O365 Co364 2.216 . S
O365 C372 1.247 . S
O366 Co364 2.091 . S
O366 C372 1.261 . S
C367 O376 1.247 . S
C367 O377 1.272 . S
O368 Co364 2.004 . S
O368 C373 1.259 . S
Co369 O370 2.061 . S
Co369 O375 2.052 . S
Co369 O377 2.135 . S
O370 Co369 2.061 . S
O370 C373 1.235 . S
C371 O374 1.238 . S
C371 O375 1.241 . S
C372 O365 1.247 . S
C372 O366 1.261 . S
C373 O368 1.259 . S
C373 O370 1.235 . S
O374 Co364 2.021 . S
O374 C371 1.238 . S
O375 Co369 2.052 . S
O375 C371 1.241 . S
O376 Co364 2.137 . S
O376 C367 1.247 . S
O377 Co364 2.244 . S
O377 C367 1.272 . S
O377 Co369 2.135 . S
Co378 O379 2.216 . S
Co378 O380 2.091 . S
Co378 O382 2.004 . S
Co378 O388 2.021 . S
Co378 O390 2.137 . S
Co378 O391 2.244 . S
O379 Co378 2.216 . S
O379 C386 1.247 . S
O380 Co378 2.091 . S
O380 C386 1.261 . S
C381 O390 1.247 . S
C381 O391 1.272 . S
O382 Co378 2.004 . S
O382 C387 1.259 . S
Co383 O384 2.061 . S
Co383 O389 2.052 . S
Co383 O391 2.135 . S
O384 Co383 2.061 . S
O384 C387 1.235 . S
C385 O388 1.238 . S
C385 O389 1.241 . S
C386 O379 1.247 . S
C386 O380 1.261 . S
C387 O382 1.259 . S
C387 O384 1.235 . S
O388 Co378 2.021 . S
O388 C385 1.238 . S
O389 Co383 2.052 . S
O389 C385 1.241 . S
O390 Co378 2.137 . S
O390 C381 1.247 . S
O391 Co378 2.244 . S
O391 C381 1.272 . S
O391 Co383 2.135 . S
Co392 O393 2.216 . S
Co392 O394 2.091 . S
Co392 O396 2.004 . S
Co392 O402 2.021 . S
Co392 O404 2.137 . S
Co392 O405 2.244 . S
O393 Co392 2.216 . S
O393 C400 1.247 . S
O394 Co392 2.091 . S
O394 C400 1.261 . S
C395 O404 1.247 . S
C395 O405 1.272 . S
O396 Co392 2.004 . S
O396 C401 1.259 . S
Co397 O398 2.061 . S
Co397 O403 2.052 . S
Co397 O405 2.135 . S
O398 Co397 2.061 . S
O398 C401 1.235 . S
C399 O402 1.238 . S
C399 O403 1.241 . S
C400 O393 1.247 . S
C400 O394 1.261 . S
C401 O396 1.259 . S
C401 O398 1.235 . S
O402 Co392 2.021 . S
O402 C399 1.238 . S
O403 Co397 2.052 . S
O403 C399 1.241 . S
O404 Co392 2.137 . S
O404 C395 1.247 . S
O405 Co392 2.244 . S
O405 C395 1.272 . S
O405 Co397 2.135 . S
Co406 O407 2.216 . S
Co406 O408 2.091 . S
Co406 O410 2.004 . S
Co406 O416 2.021 . S
Co406 O418 2.137 . S
Co406 O419 2.244 . S
O407 Co406 2.216 . S
O407 C414 1.247 . S
O408 Co406 2.091 . S
O408 C414 1.261 . S
C409 O418 1.247 . S
C409 O419 1.272 . S
O410 Co406 2.004 . S
O410 C415 1.259 . S
Co411 O412 2.061 . S
Co411 O417 2.052 . S
Co411 O419 2.135 . S
O412 Co411 2.061 . S
O412 C415 1.235 . S
C413 O416 1.238 . S
C413 O417 1.241 . S
C414 O407 1.247 . S
C414 O408 1.261 . S
C415 O410 1.259 . S
C415 O412 1.235 . S
O416 Co406 2.021 . S
O416 C413 1.238 . S
O417 Co411 2.052 . S
O417 C413 1.241 . S
O418 Co406 2.137 . S
O418 C409 1.247 . S
O419 Co406 2.244 . S
O419 C409 1.272 . S
O419 Co411 2.135 . S
Co420 O421 2.216 . S
Co420 O422 2.091 . S
Co420 O424 2.004 . S
Co420 O430 2.021 . S
Co420 O432 2.137 . S
Co420 O433 2.244 . S
O421 Co420 2.216 . S
O421 C428 1.247 . S
O422 Co420 2.091 . S
O422 C428 1.261 . S
C423 O432 1.247 . S
C423 O433 1.272 . S
O424 Co420 2.004 . S
O424 C429 1.259 . S
Co425 O426 2.061 . S
Co425 O431 2.052 . S
Co425 O433 2.135 . S
O426 Co425 2.061 . S
O426 C429 1.235 . S
C427 O430 1.238 . S
C427 O431 1.241 . S
C428 O421 1.247 . S
C428 O422 1.261 . S
C429 O424 1.259 . S
C429 O426 1.235 . S
O430 Co420 2.021 . S
O430 C427 1.238 . S
O431 Co425 2.052 . S
O431 C427 1.241 . S
O432 Co420 2.137 . S
O432 C423 1.247 . S
O433 Co420 2.244 . S
O433 C423 1.272 . S
O433 Co425 2.135 . S
Co434 O435 2.216 . S
Co434 O436 2.091 . S
Co434 O438 2.004 . S
Co434 O444 2.021 . S
Co434 O446 2.137 . S
Co434 O447 2.244 . S
O435 Co434 2.216 . S
O435 C442 1.247 . S
O436 Co434 2.091 . S
O436 C442 1.261 . S
C437 O446 1.247 . S
C437 O447 1.272 . S
O438 Co434 2.004 . S
O438 C443 1.259 . S
Co439 O440 2.061 . S
Co439 O445 2.052 . S
Co439 O447 2.135 1_554 S
O440 Co439 2.061 . S
O440 C443 1.235 1_554 S
C441 O444 1.238 1_554 S
C441 O445 1.241 . S
C442 O435 1.247 . S
C442 O436 1.261 . S
C443 O438 1.259 . S
C443 O440 1.235 1_556 S
O444 Co434 2.021 . S
O444 C441 1.238 1_556 S
O445 Co439 2.052 . S
O445 C441 1.241 . S
O446 Co434 2.137 . S
O446 C437 1.247 . S
O447 Co434 2.244 . S
O447 C437 1.272 . S
O447 Co439 2.135 1_556 S
C448 C449 1.369 . S
C448 C450 1.419 . S
C448 H452 0.930 . S
C449 C448 1.369 . S
C449 C458 1.429 . S
C450 C448 1.419 . S
C450 C451 1.363 . S
C450 H453 0.929 . S
C451 C450 1.363 . S
C451 C457 1.428 . S
H452 C448 0.930 . S
H453 C450 0.929 . S
S454 N455 1.613 . S
S454 N456 1.610 . S
N455 S454 1.613 . S
N455 C458 1.350 . S
N456 S454 1.610 . S
N456 C457 1.351 . S
C457 C451 1.428 . S
C457 N456 1.351 . S
C457 C458 1.434 . S
C458 C449 1.429 . S
C458 N455 1.350 . S
C458 C457 1.434 . S
C459 C460 1.369 . S
C459 C461 1.419 1_565 S
C459 H463 0.930 . S
C460 C459 1.369 . S
C460 C469 1.429 . S
C461 C459 1.419 1_545 S
C461 C462 1.363 . S
C461 H464 0.929 . S
C462 C461 1.363 . S
C462 C468 1.428 . S
H463 C459 0.930 . S
H464 C461 0.929 . S
S465 N466 1.613 . S
S465 N467 1.610 1_565 S
N466 S465 1.613 . S
N466 C469 1.350 . S
N467 S465 1.610 1_545 S
N467 C468 1.351 . S
C468 C462 1.428 . S
C468 N467 1.351 . S
C468 C469 1.434 1_545 S
C469 C460 1.429 . S
C469 N466 1.350 . S
C469 C468 1.434 1_565 S
C470 C471 1.369 . S
C470 C472 1.419 . S
C470 H474 0.930 . S
C471 C470 1.369 . S
C471 C480 1.429 . S
C472 C470 1.419 . S
C472 C473 1.363 . S
C472 H475 0.929 . S
C473 C472 1.363 . S
C473 C479 1.428 . S
H474 C470 0.930 . S
H475 C472 0.929 . S
S476 N477 1.613 . S
S476 N478 1.610 . S
N477 S476 1.613 . S
N477 C480 1.350 . S
N478 S476 1.610 . S
N478 C479 1.351 . S
C479 C473 1.428 . S
C479 N478 1.351 . S
C479 C480 1.434 . S
C480 C471 1.429 . S
C480 N477 1.350 . S
C480 C479 1.434 . S
C481 C482 1.369 . S
C481 C483 1.419 1_546 S
C481 H485 0.930 . S
C482 C481 1.369 . S
C482 C491 1.429 . S
C483 C481 1.419 1_564 S
C483 C484 1.363 . S
C483 H486 0.929 . S
C484 C483 1.363 . S
C484 C490 1.428 . S
H485 C481 0.930 . S
H486 C483 0.929 . S
S487 N488 1.613 1_565 S
S487 N489 1.610 1_556 S
N488 S487 1.613 1_545 S
N488 C491 1.350 . S
N489 S487 1.610 1_554 S
N489 C490 1.351 . S
C490 C484 1.428 . S
C490 N489 1.351 . S
C490 C491 1.434 1_564 S
C491 C482 1.429 . S
C491 N488 1.350 . S
C491 C490 1.434 1_546 S
C492 C493 1.369 . S
C492 C494 1.419 . S
C492 H496 0.930 . S
C493 C492 1.369 . S
C493 C502 1.429 . S
C494 C492 1.419 . S
C494 C495 1.363 . S
C494 H497 0.929 . S
C495 C494 1.363 . S
C495 C501 1.428 . S
H496 C492 0.930 . S
H497 C494 0.929 . S
S498 N499 1.613 . S
S498 N500 1.610 . S
N499 S498 1.613 . S
N499 C502 1.350 . S
N500 S498 1.610 . S
N500 C501 1.351 . S
C501 C495 1.428 . S
C501 N500 1.351 . S
C501 C502 1.434 . S
C502 C493 1.429 . S
C502 N499 1.350 . S
C502 C501 1.434 . S
C503 C504 1.369 . S
C503 C505 1.419 1_565 S
C503 H507 0.930 . S
C504 C503 1.369 . S
C504 C513 1.429 . S
C505 C503 1.419 1_545 S
C505 C506 1.363 . S
C505 H508 0.929 . S
C506 C505 1.363 . S
C506 C512 1.428 . S
H507 C503 0.930 . S
H508 C505 0.929 . S
S509 N510 1.613 1_545 S
S509 N511 1.610 . S
N510 S509 1.613 1_565 S
N510 C513 1.350 . S
N511 S509 1.610 . S
N511 C512 1.351 . S
C512 C506 1.428 . S
C512 N511 1.351 . S
C512 C513 1.434 1_545 S
C513 C504 1.429 . S
C513 N510 1.350 . S
C513 C512 1.434 1_565 S
C514 C515 1.369 . S
C514 C516 1.419 . S
C514 H518 0.930 . S
C515 C514 1.369 . S
C515 C524 1.429 . S
C516 C514 1.419 . S
C516 C517 1.363 . S
C516 H519 0.929 . S
C517 C516 1.363 . S
C517 C523 1.428 . S
H518 C514 0.930 . S
H519 C516 0.929 . S
S520 N521 1.613 . S
S520 N522 1.610 . S
N521 S520 1.613 . S
N521 C524 1.350 . S
N522 S520 1.610 . S
N522 C523 1.351 . S
C523 C517 1.428 . S
C523 N522 1.351 . S
C523 C524 1.434 . S
C524 C515 1.429 . S
C524 N521 1.350 . S
C524 C523 1.434 . S
C525 C526 1.369 . S
C525 C527 1.419 1_545 S
C525 H529 0.930 . S
C526 C525 1.369 . S
C526 C535 1.429 1_556 S
C527 C525 1.419 1_565 S
C527 C528 1.363 1_556 S
C527 H530 0.929 . S
C528 C527 1.363 1_554 S
C528 C534 1.428 . S
H529 C525 0.930 . S
H530 C527 0.929 . S
S531 N532 1.613 . S
S531 N533 1.610 1_545 S
N532 S531 1.613 . S
N532 C535 1.350 . S
N533 S531 1.610 1_565 S
N533 C534 1.351 . S
C534 C528 1.428 . S
C534 N533 1.351 . S
C534 C535 1.434 1_565 S
C535 C526 1.429 1_554 S
C535 N532 1.350 . S
C535 C534 1.434 1_545 S
C536 C537 1.369 . S
C536 C538 1.419 . S
C536 H540 0.930 . S
C537 C536 1.369 . S
C537 C546 1.429 . S
C538 C536 1.419 . S
C538 C539 1.363 . S
C538 H541 0.929 . S
C539 C538 1.363 . S
C539 C545 1.428 . S
H540 C536 0.930 . S
H541 C538 0.929 . S
S542 N543 1.613 . S
S542 N544 1.610 . S
N543 S542 1.613 . S
N543 C546 1.350 . S
N544 S542 1.610 . S
N544 C545 1.351 . S
C545 C539 1.428 . S
C545 N544 1.351 . S
C545 C546 1.434 . S
C546 C537 1.429 . S
C546 N543 1.350 . S
C546 C545 1.434 . S
C547 C548 1.369 1_554 S
C547 C549 1.419 . S
C547 H551 0.930 . S
C548 C547 1.369 1_556 S
C548 C557 1.429 . S
C549 C547 1.419 . S
C549 C550 1.363 . S
C549 H552 0.929 . S
C550 C549 1.363 . S
C550 C556 1.428 1_554 S
H551 C547 0.930 . S
H552 C549 0.929 . S
S553 N554 1.613 . S
S553 N555 1.610 . S
N554 S553 1.613 . S
N554 C557 1.350 . S
N555 S553 1.610 . S
N555 C556 1.351 . S
C556 C550 1.428 1_556 S
C556 N555 1.351 . S
C556 C557 1.434 . S
C557 C548 1.429 . S
C557 N554 1.350 . S
C557 C556 1.434 . S
C558 C559 1.369 . S
C558 C560 1.419 . S
C558 H562 0.930 . S
C559 C558 1.369 . S
C559 C568 1.429 . S
C560 C558 1.419 . S
C560 C561 1.363 . S
C560 H563 0.929 . S
C561 C560 1.363 . S
C561 C567 1.428 . S
H562 C558 0.930 . S
H563 C560 0.929 . S
S564 N565 1.613 . S
S564 N566 1.610 . S
N565 S564 1.613 . S
N565 C568 1.350 . S
N566 S564 1.610 . S
N566 C567 1.351 . S
C567 C561 1.428 . S
C567 N566 1.351 . S
C567 C568 1.434 . S
C568 C559 1.429 . S
C568 N565 1.350 . S
C568 C567 1.434 . S
C569 C570 1.369 . S
C569 C571 1.419 . S
C569 H573 0.930 . S
C570 C569 1.369 . S
C570 C579 1.429 . S
C571 C569 1.419 . S
C571 C572 1.363 . S
C571 H574 0.929 . S
C572 C571 1.363 . S
C572 C578 1.428 . S
H573 C569 0.930 . S
H574 C571 0.929 . S
S575 N576 1.613 . S
S575 N577 1.610 . S
N576 S575 1.613 . S
N576 C579 1.350 . S
N577 S575 1.610 . S
N577 C578 1.351 . S
C578 C572 1.428 . S
C578 N577 1.351 . S
C578 C579 1.434 . S
C579 C570 1.429 . S
C579 N576 1.350 . S
C579 C578 1.434 . S
C580 C581 1.369 . S
C580 C582 1.419 . S
C580 H584 0.930 . S
C581 C580 1.369 . S
C581 C590 1.429 . S
C582 C580 1.419 . S
C582 C583 1.363 . S
C582 H585 0.929 . S
C583 C582 1.363 . S
C583 C589 1.428 . S
H584 C580 0.930 . S
H585 C582 0.929 . S
S586 N587 1.613 . S
S586 N588 1.610 . S
N587 S586 1.613 . S
N587 C590 1.350 . S
N588 S586 1.610 . S
N588 C589 1.351 . S
C589 C583 1.428 . S
C589 N588 1.351 . S
C589 C590 1.434 . S
C590 C581 1.429 . S
C590 N587 1.350 . S
C590 C589 1.434 . S
C591 C592 1.369 . S
C591 C593 1.419 1_554 S
C591 H595 0.930 . S
C592 C591 1.369 . S
C592 C601 1.429 . S
C593 C591 1.419 1_556 S
C593 C594 1.363 . S
C593 H596 0.929 . S
C594 C593 1.363 . S
C594 C600 1.428 . S
H595 C591 0.930 . S
H596 C593 0.929 . S
S597 N598 1.613 . S
S597 N599 1.610 1_554 S
N598 S597 1.613 . S
N598 C601 1.350 . S
N599 S597 1.610 1_556 S
N599 C600 1.351 . S
C600 C594 1.428 . S
C600 N599 1.351 . S
C600 C601 1.434 1_556 S
C601 C592 1.429 . S
C601 N598 1.350 . S
C601 C600 1.434 1_554 S
C602 C603 1.369 . S
C602 C604 1.419 . S
C602 H606 0.930 . S
C603 C602 1.369 . S
C603 C612 1.429 . S
C604 C602 1.419 . S
C604 C605 1.363 . S
C604 H607 0.929 . S
C605 C604 1.363 . S
C605 C611 1.428 . S
H606 C602 0.930 . S
H607 C604 0.929 . S
S608 N609 1.613 . S
S608 N610 1.610 . S
N609 S608 1.613 . S
N609 C612 1.350 . S
N610 S608 1.610 . S
N610 C611 1.351 . S
C611 C605 1.428 . S
C611 N610 1.351 . S
C611 C612 1.434 . S
C612 C603 1.429 . S
C612 N609 1.350 . S
C612 C611 1.434 . S
C613 C614 1.369 . S
C613 C615 1.419 . S
C613 H617 0.930 . S
C614 C613 1.369 . S
C614 C623 1.429 . S
C615 C613 1.419 . S
C615 C616 1.363 . S
C615 H618 0.929 . S
C616 C615 1.363 . S
C616 C622 1.428 . S
H617 C613 0.930 . S
H618 C615 0.929 . S
S619 N620 1.613 . S
S619 N621 1.610 . S
N620 S619 1.613 . S
N620 C623 1.350 . S
N621 S619 1.610 . S
N621 C622 1.351 . S
C622 C616 1.428 . S
C622 N621 1.351 . S
C622 C623 1.434 . S
C623 C614 1.429 . S
C623 N620 1.350 . S
C623 C622 1.434 . S
C624 C625 1.369 . S
C624 C626 1.419 . S
C624 H628 0.930 . S
C625 C624 1.369 . S
C625 C634 1.429 . S
C626 C624 1.419 . S
C626 C627 1.363 . S
C626 H629 0.929 . S
C627 C626 1.363 . S
C627 C633 1.428 . S
H628 C624 0.930 . S
H629 C626 0.929 . S
S630 N631 1.613 . S
S630 N632 1.610 . S
N631 S630 1.613 . S
N631 C634 1.350 . S
N632 S630 1.610 . S
N632 C633 1.351 . S
C633 C627 1.428 . S
C633 N632 1.351 . S
C633 C634 1.434 . S
C634 C625 1.429 . S
C634 N631 1.350 . S
C634 C633 1.434 . S
C635 C636 1.369 . S
C635 C637 1.419 . S
C635 H639 0.930 . S
C636 C635 1.369 . S
C636 C645 1.429 . S
C637 C635 1.419 . S
C637 C638 1.363 . S
C637 H640 0.929 . S
C638 C637 1.363 . S
C638 C644 1.428 . S
H639 C635 0.930 . S
H640 C637 0.929 . S
S641 N642 1.613 . S
S641 N643 1.610 1_556 S
N642 S641 1.613 . S
N642 C645 1.350 1_556 S
N643 S641 1.610 1_554 S
N643 C644 1.351 . S
C644 C638 1.428 . S
C644 N643 1.351 . S
C644 C645 1.434 . S
C645 C636 1.429 . S
C645 N642 1.350 1_554 S
C645 C644 1.434 . S
C646 C647 1.369 . S
C646 C648 1.419 . S
C646 H650 0.930 . S
C647 C646 1.369 . S
C647 C656 1.429 . S
C648 C646 1.419 . S
C648 C649 1.363 . S
C648 H651 0.929 . S
C649 C648 1.363 . S
C649 C655 1.428 . S
H650 C646 0.930 . S
H651 C648 0.929 . S
S652 N653 1.613 . S
S652 N654 1.610 . S
N653 S652 1.613 . S
N653 C656 1.350 . S
N654 S652 1.610 . S
N654 C655 1.351 . S
C655 C649 1.428 . S
C655 N654 1.351 . S
C655 C656 1.434 . S
C656 C647 1.429 . S
C656 N653 1.350 . S
C656 C655 1.434 . S
C657 C658 1.369 . S
C657 C659 1.419 . S
C657 H661 0.930 . S
C658 C657 1.369 . S
C658 C667 1.429 . S
C659 C657 1.419 . S
C659 C660 1.363 . S
C659 H662 0.929 . S
C660 C659 1.363 . S
C660 C666 1.428 . S
H661 C657 0.930 . S
H662 C659 0.929 . S
S663 N664 1.613 . S
S663 N665 1.610 . S
N664 S663 1.613 . S
N664 C667 1.350 . S
N665 S663 1.610 . S
N665 C666 1.351 . S
C666 C660 1.428 . S
C666 N665 1.351 . S
C666 C667 1.434 . S
C667 C658 1.429 . S
C667 N664 1.350 . S
C667 C666 1.434 . S
C668 C669 1.369 . S
C668 C670 1.419 . S
C668 H672 0.930 . S
C669 C668 1.369 . S
C669 C678 1.429 . S
C670 C668 1.419 . S
C670 C671 1.363 . S
C670 H673 0.929 . S
C671 C670 1.363 . S
C671 C677 1.428 . S
H672 C668 0.930 . S
H673 C670 0.929 . S
S674 N675 1.613 1_554 S
S674 N676 1.610 . S
N675 S674 1.613 1_556 S
N675 C678 1.350 1_556 S
N676 S674 1.610 . S
N676 C677 1.351 . S
C677 C671 1.428 . S
C677 N676 1.351 . S
C677 C678 1.434 . S
C678 C669 1.429 . S
C678 N675 1.350 1_554 S
C678 C677 1.434 . S
C679 C680 1.369 . S
C679 C681 1.419 . S
C679 H683 0.930 . S
C680 C679 1.369 . S
C680 C689 1.429 . S
C681 C679 1.419 . S
C681 C682 1.363 . S
C681 H684 0.929 . S
C682 C681 1.363 . S
C682 C688 1.428 . S
H683 C679 0.930 . S
H684 C681 0.929 . S
S685 N686 1.613 . S
S685 N687 1.610 . S
N686 S685 1.613 . S
N686 C689 1.350 . S
N687 S685 1.610 . S
N687 C688 1.351 . S
C688 C682 1.428 . S
C688 N687 1.351 . S
C688 C689 1.434 . S
C689 C680 1.429 . S
C689 N686 1.350 . S
C689 C688 1.434 . S
C690 C691 1.369 . S
C690 C692 1.419 . S
C690 H694 0.930 . S
C691 C690 1.369 . S
C691 C700 1.429 . S
C692 C690 1.419 . S
C692 C693 1.363 . S
C692 H695 0.929 . S
C693 C692 1.363 . S
C693 C699 1.428 . S
H694 C690 0.930 . S
H695 C692 0.929 . S
S696 N697 1.613 . S
S696 N698 1.610 . S
N697 S696 1.613 . S
N697 C700 1.350 . S
N698 S696 1.610 . S
N698 C699 1.351 . S
C699 C693 1.428 . S
C699 N698 1.351 . S
C699 C700 1.434 . S
C700 C691 1.429 . S
C700 N697 1.350 . S
C700 C699 1.434 . S
C701 C702 1.369 . S
C701 C703 1.419 . S
C701 H705 0.930 . S
C702 C701 1.369 . S
C702 C711 1.429 . S
C703 C701 1.419 . S
C703 C704 1.363 . S
C703 H706 0.929 . S
C704 C703 1.363 . S
C704 C710 1.428 . S
H705 C701 0.930 . S
H706 C703 0.929 . S
S707 N708 1.613 . S
S707 N709 1.610 . S
N708 S707 1.613 . S
N708 C711 1.350 . S
N709 S707 1.610 . S
N709 C710 1.351 . S
C710 C704 1.428 . S
C710 N709 1.351 . S
C710 C711 1.434 . S
C711 C702 1.429 . S
C711 N708 1.350 . S
C711 C710 1.434 . S
C712 C713 1.369 . S
C712 C714 1.419 . S
C712 H716 0.930 . S
C713 C712 1.369 . S
C713 C722 1.429 . S
C714 C712 1.419 . S
C714 C715 1.363 . S
C714 H717 0.929 . S
C715 C714 1.363 . S
C715 C721 1.428 . S
H716 C712 0.930 . S
H717 C714 0.929 . S
S718 N719 1.613 . S
S718 N720 1.610 . S
N719 S718 1.613 . S
N719 C722 1.350 . S
N720 S718 1.610 . S
N720 C721 1.351 . S
C721 C715 1.428 . S
C721 N720 1.351 . S
C721 C722 1.434 . S
C722 C713 1.429 . S
C722 N719 1.350 . S
C722 C721 1.434 . S
C723 C724 1.369 . S
C723 C725 1.419 . S
C723 H727 0.930 . S
C724 C723 1.369 . S
C724 C733 1.429 . S
C725 C723 1.419 . S
C725 C726 1.363 . S
C725 H728 0.929 . S
C726 C725 1.363 . S
C726 C732 1.428 . S
H727 C723 0.930 . S
H728 C725 0.929 . S
S729 N730 1.613 . S
S729 N731 1.610 . S
N730 S729 1.613 . S
N730 C733 1.350 . S
N731 S729 1.610 . S
N731 C732 1.351 . S
C732 C726 1.428 . S
C732 N731 1.351 . S
C732 C733 1.434 . S
C733 C724 1.429 . S
C733 N730 1.350 . S
C733 C732 1.434 . S
C734 C735 1.369 . S
C734 C736 1.419 . S
C734 H738 0.930 . S
C735 C734 1.369 . S
C735 C744 1.429 . S
C736 C734 1.419 . S
C736 C737 1.363 . S
C736 H739 0.916 1_556 S
C737 C736 1.363 . S
C737 C743 1.428 . S
H738 C734 0.930 . S
H739 C736 0.916 1_554 S
S740 N741 1.613 . S
S740 N742 1.610 . S
N741 S740 1.613 . S
N741 C744 1.350 . S
N742 S740 1.610 . S
N742 C743 1.351 . S
C743 C737 1.428 . S
C743 N742 1.351 . S
C743 C744 1.434 . S
C744 C735 1.429 . S
C744 N741 1.350 . S
C744 C743 1.434 . S
C745 C746 1.369 . S
C745 C747 1.419 . S
C745 H749 0.930 . S
C746 C745 1.369 . S
C746 C755 1.429 . S
C747 C745 1.419 . S
C747 C748 1.363 . S
C747 H750 0.929 . S
C748 C747 1.363 . S
C748 C754 1.428 . S
H749 C745 0.930 . S
H750 C747 0.929 . S
S751 N752 1.613 . S
S751 N753 1.610 . S
N752 S751 1.613 . S
N752 C755 1.350 . S
N753 S751 1.610 . S
N753 C754 1.351 . S
C754 C748 1.428 . S
C754 N753 1.351 . S
C754 C755 1.434 . S
C755 C746 1.429 . S
C755 N752 1.350 . S
C755 C754 1.434 . S
C756 C757 1.369 . S
C756 C758 1.419 . S
C756 H760 0.930 . S
C757 C756 1.369 . S
C757 C766 1.429 . S
C758 C756 1.419 . S
C758 C759 1.363 . S
C758 H761 0.929 . S
C759 C758 1.363 . S
C759 C765 1.428 . S
H760 C756 0.930 . S
H761 C758 0.929 . S
S762 N763 1.613 . S
S762 N764 1.610 . S
N763 S762 1.613 . S
N763 C766 1.350 . S
N764 S762 1.610 . S
N764 C765 1.351 . S
C765 C759 1.428 . S
C765 N764 1.351 . S
C765 C766 1.434 . S
C766 C757 1.429 . S
C766 N763 1.350 . S
C766 C765 1.434 . S
C767 C768 1.369 . S
C767 C769 1.419 . S
C767 H771 0.930 . S
C768 C767 1.369 . S
C768 C777 1.429 . S
C769 C767 1.419 . S
C769 C770 1.363 . S
C769 H772 0.929 . S
C770 C769 1.363 . S
C770 C776 1.428 . S
H771 C767 0.930 . S
H772 C769 0.929 . S
S773 N774 1.613 . S
S773 N775 1.610 . S
N774 S773 1.613 . S
N774 C777 1.350 . S
N775 S773 1.610 . S
N775 C776 1.351 . S
C776 C770 1.428 . S
C776 N775 1.351 . S
C776 C777 1.434 . S
C777 C768 1.429 . S
C777 N774 1.350 . S
C777 C776 1.434 . S
C778 C779 1.369 . S
C778 C780 1.419 . S
C778 H782 0.930 . S
C779 C778 1.369 . S
C779 C788 1.429 . S
C780 C778 1.419 . S
C780 C781 1.363 . S
C780 H783 0.929 . S
C781 C780 1.363 . S
C781 C787 1.428 . S
H782 C778 0.930 . S
H783 C780 0.929 . S
S784 N785 1.613 . S
S784 N786 1.610 . S
N785 S784 1.613 . S
N785 C788 1.350 . S
N786 S784 1.610 . S
N786 C787 1.351 . S
C787 C781 1.428 . S
C787 N786 1.351 . S
C787 C788 1.434 . S
C788 C779 1.429 . S
C788 N785 1.350 . S
C788 C787 1.434 . S
C789 C790 1.369 . S
C789 C791 1.419 . S
C789 H793 0.930 . S
C790 C789 1.369 . S
C790 C799 1.429 . S
C791 C789 1.419 . S
C791 C792 1.363 . S
C791 H794 0.929 . S
C792 C791 1.363 . S
C792 C798 1.428 . S
H793 C789 0.930 . S
H794 C791 0.929 . S
S795 N796 1.613 . S
S795 N797 1.610 . S
N796 S795 1.613 . S
N796 C799 1.350 . S
N797 S795 1.610 . S
N797 C798 1.351 . S
C798 C792 1.428 . S
C798 N797 1.351 . S
C798 C799 1.434 . S
C799 C790 1.429 . S
C799 N796 1.350 . S
C799 C798 1.434 . S
C800 C801 1.369 . S
C800 C802 1.419 . S
C800 H804 0.930 . S
C801 C800 1.369 . S
C801 C810 1.429 . S
C802 C800 1.419 . S
C802 C803 1.363 . S
C802 H805 0.929 . S
C803 C802 1.363 . S
C803 C809 1.428 . S
H804 C800 0.930 . S
H805 C802 0.929 . S
S806 N807 1.613 . S
S806 N808 1.610 . S
N807 S806 1.613 . S
N807 C810 1.350 . S
N808 S806 1.610 . S
N808 C809 1.351 . S
C809 C803 1.428 . S
C809 N808 1.351 . S
C809 C810 1.434 . S
C810 C801 1.429 . S
C810 N807 1.350 . S
C810 C809 1.434 . S
C811 C812 1.369 . S
C811 C813 1.419 1_655 S
C811 H815 0.930 . S
C812 C811 1.369 . S
C812 C821 1.429 . S
C813 C811 1.419 1_455 S
C813 C814 1.363 . S
C813 H816 0.929 . S
C814 C813 1.363 . S
C814 C820 1.428 . S
H815 C811 0.930 . S
H816 C813 0.929 . S
S817 N818 1.617 1_455 S
S817 N819 1.606 . S
N818 S817 1.617 1_655 S
N818 C821 1.350 . S
N819 S817 1.606 . S
N819 C820 1.351 . S
C820 C814 1.428 . S
C820 N819 1.351 . S
C820 C821 1.434 1_455 S
C821 C812 1.429 . S
C821 N818 1.350 . S
C821 C820 1.434 1_655 S
C822 C823 1.369 . S
C822 C824 1.419 . S
C822 H826 0.930 . S
C823 C822 1.369 . S
C823 C832 1.429 . S
C824 C822 1.419 . S
C824 C825 1.363 . S
C824 H827 0.929 . S
C825 C824 1.363 . S
C825 C831 1.428 . S
H826 C822 0.930 . S
H827 C824 0.929 . S
S828 N829 1.613 . S
S828 N830 1.610 . S
N829 S828 1.613 . S
N829 C832 1.350 . S
N830 S828 1.610 . S
N830 C831 1.351 . S
C831 C825 1.428 . S
C831 N830 1.351 . S
C831 C832 1.434 . S
C832 C823 1.429 . S
C832 N829 1.350 . S
C832 C831 1.434 . S
C833 C834 1.369 . S
C833 C835 1.419 . S
C833 H837 0.930 . S
C834 C833 1.369 . S
C834 C843 1.429 . S
C835 C833 1.419 . S
C835 C836 1.363 . S
C835 H838 0.929 . S
C836 C835 1.363 . S
C836 C842 1.428 . S
H837 C833 0.930 . S
H838 C835 0.929 . S
S839 N840 1.613 . S
S839 N841 1.610 . S
N840 S839 1.613 . S
N840 C843 1.350 . S
N841 S839 1.610 . S
N841 C842 1.351 . S
C842 C836 1.428 . S
C842 N841 1.351 . S
C842 C843 1.434 . S
C843 C834 1.429 . S
C843 N840 1.350 . S
C843 C842 1.434 . S
C844 C845 1.369 . S
C844 C846 1.419 . S
C844 H848 0.930 . S
C845 C844 1.369 . S
C845 C854 1.429 . S
C846 C844 1.419 . S
C846 C847 1.363 . S
C846 H849 0.929 . S
C847 C846 1.363 . S
C847 C853 1.428 . S
H848 C844 0.930 . S
H849 C846 0.929 . S
S850 N851 1.613 . S
S850 N852 1.610 . S
N851 S850 1.613 . S
N851 C854 1.350 . S
N852 S850 1.610 . S
N852 C853 1.351 . S
C853 C847 1.428 . S
C853 N852 1.351 . S
C853 C854 1.434 . S
C854 C845 1.429 . S
C854 N851 1.350 . S
C854 C853 1.434 . S
C855 C856 1.369 . S
C855 C857 1.419 . S
C855 H859 0.930 . S
C856 C855 1.369 . S
C856 C865 1.429 . S
C857 C855 1.419 . S
C857 C858 1.363 . S
C857 H860 0.929 . S
C858 C857 1.363 . S
C858 C864 1.428 . S
H859 C855 0.930 . S
H860 C857 0.929 . S
S861 N862 1.613 1_556 S
S861 N863 1.610 1_556 S
N862 S861 1.613 1_554 S
N862 C865 1.350 . S
N863 S861 1.610 1_554 S
N863 C864 1.351 . S
C864 C858 1.428 . S
C864 N863 1.351 . S
C864 C865 1.434 . S
C865 C856 1.429 . S
C865 N862 1.350 . S
C865 C864 1.434 . S
C866 C867 1.369 . S
C866 C868 1.419 . S
C866 H870 0.930 . S
C867 C866 1.369 . S
C867 C876 1.429 . S
C868 C866 1.419 . S
C868 C869 1.363 . S
C868 H871 0.929 . S
C869 C868 1.363 . S
C869 C875 1.428 . S
H870 C866 0.930 . S
H871 C868 0.929 . S
S872 N873 1.613 . S
S872 N874 1.610 . S
N873 S872 1.613 . S
N873 C876 1.350 . S
N874 S872 1.610 . S
N874 C875 1.351 . S
C875 C869 1.428 . S
C875 N874 1.351 . S
C875 C876 1.434 . S
C876 C867 1.429 . S
C876 N873 1.350 . S
C876 C875 1.434 . S
C877 C878 1.369 . S
C877 C879 1.419 1_655 S
C877 H881 0.930 . S
C878 C877 1.369 . S
C878 C887 1.429 . S
C879 C877 1.419 1_455 S
C879 C880 1.363 . S
C879 H882 0.929 . S
C880 C879 1.363 . S
C880 C886 1.428 . S
H881 C877 0.930 . S
H882 C879 0.929 . S
S883 N884 1.617 1_455 S
S883 N885 1.606 . S
N884 S883 1.617 1_655 S
N884 C887 1.350 . S
N885 S883 1.606 . S
N885 C886 1.351 . S
C886 C880 1.428 . S
C886 N885 1.351 . S
C886 C887 1.434 1_455 S
C887 C878 1.429 . S
C887 N884 1.350 . S
C887 C886 1.434 1_655 S
C888 C889 1.369 . S
C888 C890 1.419 . S
C888 H892 0.930 . S
C889 C888 1.369 . S
C889 C898 1.429 . S
C890 C888 1.419 . S
C890 C891 1.363 . S
C890 H893 0.929 . S
C891 C890 1.363 . S
C891 C897 1.428 . S
H892 C888 0.930 . S
H893 C890 0.929 . S
S894 N895 1.613 . S
S894 N896 1.610 . S
N895 S894 1.613 . S
N895 C898 1.350 1_554 S
N896 S894 1.610 . S
N896 C897 1.351 1_554 S
C897 C891 1.428 . S
C897 N896 1.351 1_556 S
C897 C898 1.434 . S
C898 C889 1.429 . S
C898 N895 1.350 1_556 S
C898 C897 1.434 . S
C899 C900 1.369 . S
C899 C901 1.419 . S
C899 H903 0.930 . S
C900 C899 1.369 . S
C900 C909 1.429 . S
C901 C899 1.419 . S
C901 C902 1.363 . S
C901 H904 0.929 . S
C902 C901 1.363 . S
C902 C908 1.428 . S
H903 C899 0.930 . S
H904 C901 0.929 . S
S905 N906 1.613 . S
S905 N907 1.610 . S
N906 S905 1.613 . S
N906 C909 1.350 . S
N907 S905 1.610 . S
N907 C908 1.351 . S
C908 C902 1.428 . S
C908 N907 1.351 . S
C908 C909 1.434 . S
C909 C900 1.429 . S
C909 N906 1.350 . S
C909 C908 1.434 . S
C910 C911 1.369 . S
C910 C912 1.419 . S
C910 H914 0.930 . S
C911 C910 1.369 . S
C911 C920 1.429 . S
C912 C910 1.419 . S
C912 C913 1.363 . S
C912 H915 0.929 . S
C913 C912 1.363 . S
C913 C919 1.428 . S
H914 C910 0.930 . S
H915 C912 0.929 . S
S916 N917 1.613 1_556 S
S916 N918 1.610 1_556 S
N917 S916 1.613 1_554 S
N917 C920 1.350 . S
N918 S916 1.610 1_554 S
N918 C919 1.351 . S
C919 C913 1.428 . S
C919 N918 1.351 . S
C919 C920 1.434 . S
C920 C911 1.429 . S
C920 N917 1.350 . S
C920 C919 1.434 . S
C921 C922 1.369 . S
C921 C923 1.419 . S
C921 H925 0.930 . S
C922 C921 1.369 . S
C922 C931 1.429 . S
C923 C921 1.419 . S
C923 C924 1.363 . S
C923 H926 0.929 . S
C924 C923 1.363 . S
C924 C930 1.428 . S
H925 C921 0.930 . S
H926 C923 0.929 . S
S927 N928 1.613 . S
S927 N929 1.610 . S
N928 S927 1.613 . S
N928 C931 1.350 . S
N929 S927 1.610 . S
N929 C930 1.351 . S
C930 C924 1.428 . S
C930 N929 1.351 . S
C930 C931 1.434 . S
C931 C922 1.429 . S
C931 N928 1.350 . S
C931 C930 1.434 . S
C932 C933 1.369 . S
C932 C934 1.419 . S
C932 H936 0.930 . S
C933 C932 1.369 . S
C933 C942 1.429 . S
C934 C932 1.419 . S
C934 C935 1.363 . S
C934 H937 0.929 . S
C935 C934 1.363 . S
C935 C941 1.428 . S
H936 C932 0.930 . S
H937 C934 0.929 . S
S938 N939 1.613 . S
S938 N940 1.610 . S
N939 S938 1.613 . S
N939 C942 1.350 . S
N940 S938 1.610 . S
N940 C941 1.351 . S
C941 C935 1.428 . S
C941 N940 1.351 . S
C941 C942 1.434 . S
C942 C933 1.429 . S
C942 N939 1.350 . S
C942 C941 1.434 . S
C943 C944 1.369 . S
C943 C945 1.419 1_655 S
C943 H947 0.930 . S
C944 C943 1.369 . S
C944 C953 1.429 . S
C945 C943 1.419 1_455 S
C945 C946 1.363 . S
C945 H948 0.929 . S
C946 C945 1.363 . S
C946 C952 1.428 . S
H947 C943 0.930 . S
H948 C945 0.929 . S
S949 N950 1.617 1_455 S
S949 N951 1.606 . S
N950 S949 1.617 1_655 S
N950 C953 1.350 . S
N951 S949 1.606 . S
N951 C952 1.351 . S
C952 C946 1.428 . S
C952 N951 1.351 . S
C952 C953 1.434 1_455 S
C953 C944 1.429 . S
C953 N950 1.350 . S
C953 C952 1.434 1_655 S
C954 C955 1.369 . S
C954 C956 1.419 1_655 S
C954 H958 0.930 . S
C955 C954 1.369 . S
C955 C964 1.429 . S
C956 C954 1.419 1_455 S
C956 C957 1.363 . S
C956 H959 0.929 . S
C957 C956 1.363 . S
C957 C963 1.428 . S
H958 C954 0.930 . S
H959 C956 0.929 . S
S960 N961 1.617 1_455 S
S960 N962 1.606 . S
N961 S960 1.617 1_655 S
N961 C964 1.350 . S
N962 S960 1.606 . S
N962 C963 1.351 . S
C963 C957 1.428 . S
C963 N962 1.351 . S
C963 C964 1.434 1_455 S
C964 C955 1.429 . S
C964 N961 1.350 . S
C964 C963 1.434 1_655 S
C965 C966 1.369 . S
C965 C967 1.419 . S
C965 H969 0.930 . S
C966 C965 1.369 . S
C966 C975 1.429 . S
C967 C965 1.419 . S
C967 C968 1.363 . S
C967 H970 0.929 . S
C968 C967 1.363 . S
C968 C974 1.428 . S
H969 C965 0.930 . S
H970 C967 0.929 . S
S971 N972 1.613 1_556 S
S971 N973 1.610 1_556 S
N972 S971 1.613 1_554 S
N972 C975 1.350 . S
N973 S971 1.610 1_554 S
N973 C974 1.351 . S
C974 C968 1.428 . S
C974 N973 1.351 . S
C974 C975 1.434 . S
C975 C966 1.429 . S
C975 N972 1.350 . S
C975 C974 1.434 . S
C976 C977 1.369 . S
C976 C978 1.419 . S
C976 H980 0.930 . S
C977 C976 1.369 . S
C977 C986 1.429 . S
C978 C976 1.419 . S
C978 C979 1.363 . S
C978 H981 0.929 . S
C979 C978 1.363 . S
C979 C985 1.428 . S
H980 C976 0.930 . S
H981 C978 0.929 . S
S982 N983 1.613 . S
S982 N984 1.610 . S
N983 S982 1.613 . S
N983 C986 1.350 . S
N984 S982 1.610 . S
N984 C985 1.351 . S
C985 C979 1.428 . S
C985 N984 1.351 . S
C985 C986 1.434 . S
C986 C977 1.429 . S
C986 N983 1.350 . S
C986 C985 1.434 . S
C987 C988 1.369 . S
C987 C989 1.419 . S
C987 H991 0.930 . S
C988 C987 1.369 . S
C988 C997 1.429 . S
C989 C987 1.419 . S
C989 C990 1.363 . S
C989 H992 0.929 . S
C990 C989 1.363 . S
C990 C996 1.428 . S
H991 C987 0.930 . S
H992 C989 0.929 . S
S993 N994 1.613 . S
S993 N995 1.610 . S
N994 S993 1.613 . S
N994 C997 1.350 . S
N995 S993 1.610 . S
N995 C996 1.351 . S
C996 C990 1.428 . S
C996 N995 1.351 . S
C996 C997 1.434 . S
C997 C988 1.429 . S
C997 N994 1.350 . S
C997 C996 1.434 . S
C998 C999 1.369 . S
C998 C1000 1.419 . S
C998 H1002 0.930 . S
C999 C998 1.369 . S
C999 C1008 1.429 . S
C1000 C998 1.419 . S
C1000 C1001 1.363 . S
C1000 H1003 0.929 . S
C1001 C1000 1.363 . S
C1001 C1007 1.428 . S
H1002 C998 0.930 . S
H1003 C1000 0.929 . S
S1004 N1005 1.613 . S
S1004 N1006 1.610 . S
N1005 S1004 1.613 . S
N1005 C1008 1.350 . S
N1006 S1004 1.610 . S
N1006 C1007 1.351 . S
C1007 C1001 1.428 . S
C1007 N1006 1.351 . S
C1007 C1008 1.434 . S
C1008 C999 1.429 . S
C1008 N1005 1.350 . S
C1008 C1007 1.434 . S
C1009 C1010 1.369 . S
C1009 C1011 1.419 . S
C1009 H1013 0.930 . S
C1010 C1009 1.369 . S
C1010 C1019 1.429 . S
C1011 C1009 1.419 . S
C1011 C1012 1.363 . S
C1011 H1014 0.929 . S
C1012 C1011 1.363 . S
C1012 C1018 1.428 . S
H1013 C1009 0.930 . S
H1014 C1011 0.929 . S
S1015 N1016 1.613 1_554 S
S1015 N1017 1.610 . S
N1016 S1015 1.613 1_556 S
N1016 C1019 1.350 1_556 S
N1017 S1015 1.610 . S
N1017 C1018 1.351 . S
C1018 C1012 1.428 . S
C1018 N1017 1.351 . S
C1018 C1019 1.434 . S
C1019 C1010 1.429 . S
C1019 N1016 1.350 1_554 S
C1019 C1018 1.434 . S
C1020 C1021 1.369 . S
C1020 C1022 1.419 . S
C1020 H1024 0.930 . S
C1021 C1020 1.369 . S
C1021 C1030 1.429 . S
C1022 C1020 1.419 . S
C1022 C1023 1.363 . S
C1022 H1025 0.929 . S
C1023 C1022 1.363 . S
C1023 C1029 1.428 . S
H1024 C1020 0.930 . S
H1025 C1022 0.929 . S
S1026 N1027 1.613 . S
S1026 N1028 1.610 . S
N1027 S1026 1.613 . S
N1027 C1030 1.350 . S
N1028 S1026 1.610 . S
N1028 C1029 1.351 . S
C1029 C1023 1.428 . S
C1029 N1028 1.351 . S
C1029 C1030 1.434 . S
C1030 C1021 1.429 . S
C1030 N1027 1.350 . S
C1030 C1029 1.434 . S
C1031 C1032 1.369 . S
C1031 C1033 1.419 . S
C1031 H1035 0.930 . S
C1032 C1031 1.369 . S
C1032 C1041 1.429 . S
C1033 C1031 1.419 . S
C1033 C1034 1.363 . S
C1033 H1036 0.929 . S
C1034 C1033 1.363 . S
C1034 C1040 1.428 . S
H1035 C1031 0.930 . S
H1036 C1033 0.929 . S
S1037 N1038 1.613 . S
S1037 N1039 1.610 . S
N1038 S1037 1.613 . S
N1038 C1041 1.350 . S
N1039 S1037 1.610 . S
N1039 C1040 1.351 . S
C1040 C1034 1.428 . S
C1040 N1039 1.351 . S
C1040 C1041 1.434 . S
C1041 C1032 1.429 . S
C1041 N1038 1.350 . S
C1041 C1040 1.434 . S
C1042 C1043 1.369 . S
C1042 C1044 1.419 . S
C1042 H1046 0.930 . S
C1043 C1042 1.369 . S
C1043 C1052 1.429 . S
C1044 C1042 1.419 . S
C1044 C1045 1.363 . S
C1044 H1047 0.929 . S
C1045 C1044 1.363 . S
C1045 C1051 1.428 . S
H1046 C1042 0.930 . S
H1047 C1044 0.929 . S
S1048 N1049 1.613 . S
S1048 N1050 1.610 1_554 S
N1049 S1048 1.613 . S
N1049 C1052 1.350 . S
N1050 S1048 1.610 1_556 S
N1050 C1051 1.351 1_556 S
C1051 C1045 1.428 . S
C1051 N1050 1.351 1_554 S
C1051 C1052 1.434 . S
C1052 C1043 1.429 . S
C1052 N1049 1.350 . S
C1052 C1051 1.434 . S
C1053 C1054 1.369 . S
C1053 C1055 1.419 . S
C1053 H1057 0.930 . S
C1054 C1053 1.369 . S
C1054 C1063 1.429 . S
C1055 C1053 1.419 . S
C1055 C1056 1.363 . S
C1055 H1058 0.929 . S
C1056 C1055 1.363 . S
C1056 C1062 1.428 . S
H1057 C1053 0.930 . S
H1058 C1055 0.929 . S
S1059 N1060 1.613 . S
S1059 N1061 1.610 . S
N1060 S1059 1.613 . S
N1060 C1063 1.350 . S
N1061 S1059 1.610 . S
N1061 C1062 1.351 . S
C1062 C1056 1.428 . S
C1062 N1061 1.351 . S
C1062 C1063 1.434 . S
C1063 C1054 1.429 . S
C1063 N1060 1.350 . S
C1063 C1062 1.434 . S
C1064 C1065 1.369 . S
C1064 C1066 1.419 . S
C1064 H1068 0.930 . S
C1065 C1064 1.369 . S
C1065 C1074 1.429 . S
C1066 C1064 1.419 . S
C1066 C1067 1.363 . S
C1066 H1069 0.929 . S
C1067 C1066 1.363 . S
C1067 C1073 1.428 . S
H1068 C1064 0.930 . S
H1069 C1066 0.929 . S
S1070 N1071 1.613 . S
S1070 N1072 1.610 . S
N1071 S1070 1.613 . S
N1071 C1074 1.350 . S
N1072 S1070 1.610 . S
N1072 C1073 1.351 . S
C1073 C1067 1.428 . S
C1073 N1072 1.351 . S
C1073 C1074 1.434 . S
C1074 C1065 1.429 . S
C1074 N1071 1.350 . S
C1074 C1073 1.434 . S
C1075 C1076 1.369 . S
C1075 C1077 1.419 . S
C1075 H1079 0.930 . S
C1076 C1075 1.369 . S
C1076 C1085 1.429 . S
C1077 C1075 1.419 . S
C1077 C1078 1.363 . S
C1077 H1080 0.929 . S
C1078 C1077 1.363 . S
C1078 C1084 1.428 . S
H1079 C1075 0.930 . S
H1080 C1077 0.929 . S
S1081 N1082 1.613 . S
S1081 N1083 1.610 . S
N1082 S1081 1.613 . S
N1082 C1085 1.350 . S
N1083 S1081 1.610 . S
N1083 C1084 1.351 . S
C1084 C1078 1.428 . S
C1084 N1083 1.351 . S
C1084 C1085 1.434 . S
C1085 C1076 1.429 . S
C1085 N1082 1.350 . S
C1085 C1084 1.434 . S
C1086 C1087 1.369 . S
C1086 C1088 1.419 . S
C1086 H1090 0.930 . S
C1087 C1086 1.369 . S
C1087 C1096 1.429 . S
C1088 C1086 1.419 . S
C1088 C1089 1.363 . S
C1088 H1091 0.929 . S
C1089 C1088 1.363 . S
C1089 C1095 1.428 . S
H1090 C1086 0.930 . S
H1091 C1088 0.929 . S
S1092 N1093 1.613 . S
S1092 N1094 1.610 . S
N1093 S1092 1.613 . S
N1093 C1096 1.350 . S
N1094 S1092 1.610 . S
N1094 C1095 1.351 . S
C1095 C1089 1.428 . S
C1095 N1094 1.351 . S
C1095 C1096 1.434 . S
C1096 C1087 1.429 . S
C1096 N1093 1.350 . S
C1096 C1095 1.434 . S
C1097 C1098 1.369 . S
C1097 C1099 1.419 . S
C1097 H1101 0.930 . S
C1098 C1097 1.369 . S
C1098 C1107 1.429 . S
C1099 C1097 1.419 . S
C1099 C1100 1.363 . S
C1099 H1102 0.929 . S
C1100 C1099 1.363 . S
C1100 C1106 1.428 . S
H1101 C1097 0.930 . S
H1102 C1099 0.929 . S
S1103 N1104 1.613 . S
S1103 N1105 1.610 . S
N1104 S1103 1.613 . S
N1104 C1107 1.350 . S
N1105 S1103 1.610 . S
N1105 C1106 1.351 . S
C1106 C1100 1.428 . S
C1106 N1105 1.351 . S
C1106 C1107 1.434 . S
C1107 C1098 1.429 . S
C1107 N1104 1.350 . S
C1107 C1106 1.434 . S
C1108 C1109 1.369 . S
C1108 C1110 1.419 . S
C1108 H1112 0.930 . S
C1109 C1108 1.369 . S
C1109 C1118 1.429 . S
C1110 C1108 1.419 . S
C1110 C1111 1.363 . S
C1110 H1113 0.929 . S
C1111 C1110 1.363 . S
C1111 C1117 1.428 . S
H1112 C1108 0.930 . S
H1113 C1110 0.929 . S
S1114 N1115 1.613 . S
S1114 N1116 1.610 . S
N1115 S1114 1.613 . S
N1115 C1118 1.350 . S
N1116 S1114 1.610 . S
N1116 C1117 1.351 . S
C1117 C1111 1.428 . S
C1117 N1116 1.351 . S
C1117 C1118 1.434 . S
C1118 C1109 1.429 . S
C1118 N1115 1.350 . S
C1118 C1117 1.434 . S
C1119 C1120 1.369 . S
C1119 C1121 1.419 . S
C1119 H1123 0.930 . S
C1120 C1119 1.369 . S
C1120 C1129 1.429 . S
C1121 C1119 1.419 . S
C1121 C1122 1.363 . S
C1121 H1124 0.929 . S
C1122 C1121 1.363 . S
C1122 C1128 1.428 . S
H1123 C1119 0.930 . S
H1124 C1121 0.929 . S
S1125 N1126 1.613 . S
S1125 N1127 1.610 . S
N1126 S1125 1.613 . S
N1126 C1129 1.350 . S
N1127 S1125 1.610 . S
N1127 C1128 1.351 . S
C1128 C1122 1.428 . S
C1128 N1127 1.351 . S
C1128 C1129 1.434 . S
C1129 C1120 1.429 . S
C1129 N1126 1.350 . S
C1129 C1128 1.434 . S
C1130 C1131 1.369 . S
C1130 C1132 1.419 . S
C1130 H1134 0.930 . S
C1131 C1130 1.369 . S
C1131 C1140 1.429 . S
C1132 C1130 1.419 . S
C1132 C1133 1.363 . S
C1132 H1135 0.929 . S
C1133 C1132 1.363 . S
C1133 C1139 1.428 . S
H1134 C1130 0.930 . S
H1135 C1132 0.929 . S
S1136 N1137 1.613 . S
S1136 N1138 1.610 . S
N1137 S1136 1.613 . S
N1137 C1140 1.350 . S
N1138 S1136 1.610 . S
N1138 C1139 1.351 . S
C1139 C1133 1.428 . S
C1139 N1138 1.351 . S
C1139 C1140 1.434 . S
C1140 C1131 1.429 . S
C1140 N1137 1.350 . S
C1140 C1139 1.434 . S
C1141 C1142 1.369 . S
C1141 C1143 1.419 . S
C1141 H1145 0.930 . S
C1142 C1141 1.369 . S
C1142 C1151 1.429 . S
C1143 C1141 1.419 . S
C1143 C1144 1.363 . S
C1143 H1146 0.929 . S
C1144 C1143 1.363 . S
C1144 C1150 1.428 . S
H1145 C1141 0.930 . S
H1146 C1143 0.929 . S
S1147 N1148 1.613 . S
S1147 N1149 1.610 . S
N1148 S1147 1.613 . S
N1148 C1151 1.350 . S
N1149 S1147 1.610 . S
N1149 C1150 1.351 . S
C1150 C1144 1.428 . S
C1150 N1149 1.351 . S
C1150 C1151 1.434 . S
C1151 C1142 1.429 . S
C1151 N1148 1.350 . S
C1151 C1150 1.434 . S
C449 C93 1.484 . S
C451 C9 1.488 . S
C460 C23 1.484 . S
C462 C107 1.487 . S
C471 C65 1.487 . S
C473 C37 1.484 . S
C482 C51 1.485 . S
C484 C79 1.484 . S
C493 C121 1.485 . S
C495 C205 1.488 . S
C504 C219 1.484 . S
C506 C135 1.484 . S
C515 C149 1.486 . S
C517 C177 1.484 . S
C526 C191 1.486 . S
C528 C163 1.488 . S
C537 C233 1.488 . S
C539 C317 1.487 . S
C548 C247 1.486 . S
C550 C331 1.484 . S
C559 C289 1.485 . S
C561 C261 1.488 . S
C570 C303 1.487 . S
C572 C275 1.488 . S
C581 C345 1.483 . S
C583 C429 1.486 . S
C592 C359 1.489 . S
C594 C443 1.487 . S
C603 C401 1.483 . S
C605 C373 1.484 . S
C614 C387 1.486 . S
C616 C415 1.484 . S
C625 C8 1.491 1_556 S
C627 C106 1.491 . S
C636 C64 1.491 1_554 S
C638 C22 1.492 . S
C647 C78 1.491 . S
C649 C36 1.491 . S
C658 C50 1.491 . S
C660 C92 1.492 . S
C669 C120 1.491 1_554 S
C671 C218 1.492 . S
C680 C176 1.493 1_556 S
C682 C134 1.492 . S
C691 C190 1.491 . S
C693 C148 1.491 . S
C702 C204 1.492 . S
C704 C162 1.492 . S
C713 C232 1.493 . S
C715 C330 1.492 . S
C724 C246 1.493 . S
C726 C288 1.493 . S
C735 C302 1.491 . S
C737 C260 1.492 1_556 S
C746 C274 1.491 . S
C748 C316 1.491 1_554 S
C757 C344 1.493 . S
C759 C442 1.492 . S
C768 C400 1.491 . S
C770 C358 1.491 . S
C779 C372 1.493 1_554 S
C781 C414 1.493 . S
C790 C386 1.493 . S
C792 C428 1.493 1_556 S
C801 C423 1.497 . S
C803 C3 1.498 . S
C812 C213 1.499 . S
C814 C17 1.499 . S
C823 C31 1.499 . S
C825 C395 1.499 . S
C834 C45 1.499 . S
C836 C185 1.499 . S
C845 C59 1.497 . S
C847 C367 1.497 . S
C856 C73 1.498 . S
C858 C157 1.498 . S
C867 C87 1.498 . S
C869 C339 1.498 . S
C878 C129 1.497 . S
C880 C101 1.497 . S
C889 C311 1.499 . S
C891 C115 1.499 . S
C900 C143 1.498 . S
C902 C283 1.498 . S
C911 C255 1.499 . S
C913 C171 1.499 . S
C922 C227 1.497 . S
C924 C199 1.498 . S
C933 C241 1.498 . S
C935 C437 1.498 . S
C944 C269 1.497 . S
C946 C409 1.497 . S
C955 C297 1.498 . S
C957 C381 1.498 . S
C966 C353 1.497 . S
C968 C325 1.498 . S
C977 C7 1.448 . S
C979 C105 1.452 . S
C988 C21 1.452 . S
C990 C63 1.449 . S
C999 C77 1.448 . S
C1001 C35 1.455 . S
C1010 C49 1.456 . S
C1012 C91 1.448 . S
C1021 C217 1.449 . S
C1023 C119 1.454 . S
C1032 C175 1.456 . S
C1034 C133 1.448 . S
C1043 C147 1.447 . S
C1045 C189 1.454 . S
C1054 C203 1.456 . S
C1056 C161 1.449 . S
C1065 C329 1.448 . S
C1067 C231 1.455 . S
C1076 C287 1.449 . S
C1078 C245 1.452 . S
C1087 C301 1.447 . S
C1089 C259 1.455 . S
C1098 C315 1.449 . S
C1100 C273 1.451 . S
C1109 C343 1.456 . S
C1111 C441 1.449 . S
C1120 C357 1.454 . S
C1122 C399 1.449 . S
C1131 C371 1.449 . S
C1133 C413 1.455 . S
C1142 C427 1.450 . S
C1144 C385 1.454 . S
