# Generated by pormake.
# Topology vbf, (5)-cn, num edge types: 1
# Building blocks:
#     Node 0, Type 0, BuildingBlock: XOMCOT_clean_sbu_1, # of connection points: 5
#     Node 1, Type 0, BuildingBlock: XOMCOT_clean_sbu_1, # of connection points: 5
#     Node 2, Type 0, BuildingBlock: XOMCOT_clean_sbu_1, # of connection points: 5
#     Node 3, Type 0, BuildingBlock: XOMCOT_clean_sbu_1, # of connection points: 5
#     Node 4, Type 0, BuildingBlock: XOMCOT_clean_sbu_1, # of connection points: 5
#     Node 5, Type 0, BuildingBlock: XOMCOT_clean_sbu_1, # of connection points: 5
#     Node 6, Type 0, BuildingBlock: XOMCOT_clean_sbu_1, # of connection points: 5
#     Node 7, Type 0, BuildingBlock: XOMCOT_clean_sbu_1, # of connection points: 5
#     Node 8, Type 0, BuildingBlock: XOMCOT_clean_sbu_1, # of connection points: 5
#     Node 9, Type 0, BuildingBlock: XOMCOT_clean_sbu_1, # of connection points: 5
#     Node 10, Type 0, BuildingBlock: XOMCOT_clean_sbu_1, # of connection points: 5
#     Node 11, Type 0, BuildingBlock: XOMCOT_clean_sbu_1, # of connection points: 5
#     Node 12, Type 0, BuildingBlock: XOMCOT_clean_sbu_1, # of connection points: 5
#     Node 13, Type 0, BuildingBlock: XOMCOT_clean_sbu_1, # of connection points: 5
#     Node 14, Type 0, BuildingBlock: XOMCOT_clean_sbu_1, # of connection points: 5
#     Node 15, Type 0, BuildingBlock: XOMCOT_clean_sbu_1, # of connection points: 5
#     Edge 16, Type (0, 0), BuildingBlock: CIFDUS_clean_linker_0, # of connection points: 2
#     Edge 17, Type (0, 0), BuildingBlock: CIFDUS_clean_linker_0, # of connection points: 2
#     Edge 18, Type (0, 0), BuildingBlock: CIFDUS_clean_linker_0, # of connection points: 2
#     Edge 19, Type (0, 0), BuildingBlock: CIFDUS_clean_linker_0, # of connection points: 2
#     Edge 20, Type (0, 0), BuildingBlock: CIFDUS_clean_linker_0, # of connection points: 2
#     Edge 21, Type (0, 0), BuildingBlock: CIFDUS_clean_linker_0, # of connection points: 2
#     Edge 22, Type (0, 0), BuildingBlock: CIFDUS_clean_linker_0, # of connection points: 2
#     Edge 23, Type (0, 0), BuildingBlock: CIFDUS_clean_linker_0, # of connection points: 2
#     Edge 24, Type (0, 0), BuildingBlock: CIFDUS_clean_linker_0, # of connection points: 2
#     Edge 25, Type (0, 0), BuildingBlock: CIFDUS_clean_linker_0, # of connection points: 2
#     Edge 26, Type (0, 0), BuildingBlock: CIFDUS_clean_linker_0, # of connection points: 2
#     Edge 27, Type (0, 0), BuildingBlock: CIFDUS_clean_linker_0, # of connection points: 2
#     Edge 28, Type (0, 0), BuildingBlock: CIFDUS_clean_linker_0, # of connection points: 2
#     Edge 29, Type (0, 0), BuildingBlock: CIFDUS_clean_linker_0, # of connection points: 2
#     Edge 30, Type (0, 0), BuildingBlock: CIFDUS_clean_linker_0, # of connection points: 2
#     Edge 31, Type (0, 0), BuildingBlock: CIFDUS_clean_linker_0, # of connection points: 2
#     Edge 32, Type (0, 0), BuildingBlock: CIFDUS_clean_linker_0, # of connection points: 2
#     Edge 33, Type (0, 0), BuildingBlock: CIFDUS_clean_linker_0, # of connection points: 2
#     Edge 34, Type (0, 0), BuildingBlock: CIFDUS_clean_linker_0, # of connection points: 2
#     Edge 35, Type (0, 0), BuildingBlock: CIFDUS_clean_linker_0, # of connection points: 2
#     Edge 36, Type (0, 0), BuildingBlock: CIFDUS_clean_linker_0, # of connection points: 2
#     Edge 37, Type (0, 0), BuildingBlock: CIFDUS_clean_linker_0, # of connection points: 2
#     Edge 38, Type (0, 0), BuildingBlock: CIFDUS_clean_linker_0, # of connection points: 2
#     Edge 39, Type (0, 0), BuildingBlock: CIFDUS_clean_linker_0, # of connection points: 2
#     Edge 40, Type (0, 0), BuildingBlock: CIFDUS_clean_linker_0, # of connection points: 2
#     Edge 41, Type (0, 0), BuildingBlock: CIFDUS_clean_linker_0, # of connection points: 2
#     Edge 42, Type (0, 0), BuildingBlock: CIFDUS_clean_linker_0, # of connection points: 2
#     Edge 43, Type (0, 0), BuildingBlock: CIFDUS_clean_linker_0, # of connection points: 2
#     Edge 44, Type (0, 0), BuildingBlock: CIFDUS_clean_linker_0, # of connection points: 2
#     Edge 45, Type (0, 0), BuildingBlock: CIFDUS_clean_linker_0, # of connection points: 2
#     Edge 46, Type (0, 0), BuildingBlock: CIFDUS_clean_linker_0, # of connection points: 2
#     Edge 47, Type (0, 0), BuildingBlock: CIFDUS_clean_linker_0, # of connection points: 2
#     Edge 48, Type (0, 0), BuildingBlock: CIFDUS_clean_linker_0, # of connection points: 2
#     Edge 49, Type (0, 0), BuildingBlock: CIFDUS_clean_linker_0, # of connection points: 2
#     Edge 50, Type (0, 0), BuildingBlock: CIFDUS_clean_linker_0, # of connection points: 2
#     Edge 51, Type (0, 0), BuildingBlock: CIFDUS_clean_linker_0, # of connection points: 2
#     Edge 52, Type (0, 0), BuildingBlock: CIFDUS_clean_linker_0, # of connection points: 2
#     Edge 53, Type (0, 0), BuildingBlock: CIFDUS_clean_linker_0, # of connection points: 2
#     Edge 54, Type (0, 0), BuildingBlock: CIFDUS_clean_linker_0, # of connection points: 2
#     Edge 55, Type (0, 0), BuildingBlock: CIFDUS_clean_linker_0, # of connection points: 2
# Relax obj value: 0.076
# Max RMSD: 0.167
# Mean RMSD: 0.159
data_MOF--net-vbf--node1-XOMCOT_clean_sbu_1--edge1-CIFDUS_clean_linker_0
_symmetry_space_group_name_H-M    P1
_symmetry_Int_Tables_number       1
_symmetry_cell_setting            triclinic
loop_
_symmetry_equiv_pos_as_xyz
'x, y, z'
_cell_length_a     36.752826
_cell_length_b     65.799416
_cell_length_c     25.152485
_cell_angle_alpha  89.898005
_cell_angle_beta   89.988555
_cell_angle_gamma 76.876605
loop_
_atom_site_label
_atom_site_type_symbol
_atom_site_fract_x
_atom_site_fract_y
_atom_site_fract_z
_atom_type_partial_charge
C0 C 0.0794 0.36769 0.97773 0.0
C1 C 0.09809 0.38215 0.95969 0.0
N2 N 0.13363 0.37228 0.94932 0.0
N3 N 0.10303 0.34876 0.97937 0.0
C4 C 0.13594 0.35195 0.96112 0.0
H5 H 0.05036 0.37079 0.98946 0.0
Co6 Co 0.08788 0.32564 0.00579 0.0
C7 C 0.15768 0.29318 0.03358 0.0
O8 O 0.13909 0.27835 0.03488 0.0
N9 N 0.07021 0.30267 0.0331 0.0
C10 C 0.03717 0.27834 0.04198 0.0
C11 C 0.05189 0.29018 0.00648 0.0
C12 C 0.06647 0.29778 0.0849 0.0
N13 N 0.0459 0.28334 0.09144 0.0
O14 O 0.08137 0.33914 0.07415 0.0
H15 H 0.04729 0.29032 0.96412 0.0
H16 H 0.07739 0.30527 0.11751 0.0
O17 O 0.14054 0.31197 0.02248 0.0
C18 C 0.04698 0.34658 0.08502 0.0
O19 O 0.02143 0.3423 0.05307 0.0
N20 N 0.09043 0.31455 0.93711 0.0
C21 C 0.07609 0.29978 0.83725 0.0
C22 C 0.11 0.2915 0.8635 0.0
C23 C 0.11677 0.29919 0.91361 0.0
C24 C 0.05861 0.32366 0.91053 0.0
C25 C 0.0508 0.3165 0.86076 0.0
H26 H 0.14259 0.29235 0.93341 0.0
H27 H 0.03827 0.33599 0.92949 0.0
H28 H 0.16118 0.3398 0.95759 0.0
H29 H 0.08639 0.39866 0.95413 0.0
H30 H 0.01918 0.26796 0.0321 0.0
H31 H 0.13045 0.27869 0.84646 0.0
H32 H 0.02474 0.32373 0.84137 0.0
C33 C 0.9378 0.67281 0.97339 0.0
C34 C 0.91683 0.65997 0.95266 0.0
N35 N 0.88149 0.67108 0.94659 0.0
N36 N 0.91597 0.69202 0.98082 0.0
C37 C 0.88174 0.69058 0.96364 0.0
H38 H 0.96741 0.66844 0.98145 0.0
Co39 Co 0.9344 0.71411 0.00762 0.0
C40 C 0.867 0.74674 0.0453 0.0
O41 O 0.88614 0.7613 0.04788 0.0
N42 N 0.95501 0.73564 0.03457 0.0
C43 C 0.99234 0.75768 0.04481 0.0
C44 C 0.97796 0.74582 0.009 0.0
C45 C 0.9563 0.74142 0.08598 0.0
N46 N 0.97855 0.75488 0.09309 0.0
O47 O 0.94484 0.69934 0.07458 0.0
H48 H 0.98537 0.74408 0.96745 0.0
H49 H 0.94225 0.73528 0.118 0.0
O50 O 0.88317 0.72822 0.03058 0.0
C51 C 0.9796 0.69048 0.07428 0.0
O52 O 0.99952 0.69379 0.03304 0.0
N53 N 0.92853 0.72692 0.94032 0.0
C54 C 0.94188 0.74518 0.84415 0.0
C55 C 0.91157 0.75462 0.87638 0.0
C56 C 0.90513 0.74514 0.92433 0.0
C57 C 0.9564 0.71688 0.90768 0.0
C58 C 0.96357 0.72567 0.85955 0.0
H59 H 0.8825 0.75308 0.9489 0.0
H60 H 0.97504 0.70262 0.92104 0.0
H61 H 0.85761 0.70354 0.96342 0.0
H62 H 0.9272 0.64384 0.94129 0.0
H63 H 1.01206 0.76723 0.03629 0.0
H64 H 0.89376 0.76953 0.86552 0.0
H65 H 0.98757 0.71788 0.83649 0.0
C66 C 0.16688 0.53347 0.24751 0.0
C67 C 0.13647 0.52451 0.24865 0.0
N68 N 0.10625 0.53914 0.26354 0.0
N69 N 0.15607 0.55372 0.26157 0.0
C70 C 0.119 0.55665 0.2714 0.0
H71 H 0.19504 0.52579 0.23626 0.0
Co72 Co 0.18721 0.57299 0.26469 0.0
C73 C 0.11724 0.60898 0.26199 0.0
O74 O 0.10902 0.61014 0.31287 0.0
N75 N 0.21787 0.59265 0.26774 0.0
C76 C 0.23876 0.62141 0.25299 0.0
C77 C 0.21369 0.60995 0.23726 0.0
C78 C 0.2465 0.59374 0.30092 0.0
N79 N 0.25936 0.61122 0.29311 0.0
O80 O 0.17948 0.57547 0.34018 0.0
H81 H 0.19345 0.61415 0.20572 0.0
H82 H 0.25726 0.58227 0.33119 0.0
O83 O 0.14535 0.5954 0.24517 0.0
C84 C 0.20599 0.55983 0.35244 0.0
O85 O 0.22452 0.54871 0.31358 0.0
N86 N 0.19967 0.5677 0.19374 0.0
C87 C 0.22354 0.54526 0.10129 0.0
C88 C 0.18694 0.55774 0.1054 0.0
C89 C 0.1753 0.56859 0.15253 0.0
C90 C 0.23596 0.55723 0.18881 0.0
C91 C 0.24841 0.54579 0.14331 0.0
H92 H 0.1462 0.57625 0.15733 0.0
H93 H 0.25467 0.55619 0.22236 0.0
H94 H 0.1016 0.57128 0.28439 0.0
H95 H 0.13646 0.5086 0.2378 0.0
H96 H 0.24177 0.63607 0.23602 0.0
H97 H 0.16682 0.55832 0.07372 0.0
H98 H 0.2766 0.5363 0.1432 0.0
C99 C 0.85842 0.50462 0.2264 0.0
C100 C 0.8863 0.51546 0.23049 0.0
N101 N 0.91216 0.5054 0.26523 0.0
N102 N 0.86685 0.48752 0.2577 0.0
C103 C 0.89883 0.48899 0.28251 0.0
H104 H 0.8344 0.50855 0.20042 0.0
Co105 Co 0.84154 0.46549 0.26428 0.0
C106 C 0.92071 0.44213 0.23135 0.0
O107 O 0.93172 0.45846 0.21326 0.0
N108 N 0.81709 0.44312 0.2711 0.0
C109 C 0.80242 0.41293 0.25227 0.0
C110 C 0.82146 0.42741 0.23551 0.0
C111 C 0.7948 0.43781 0.30928 0.0
N112 N 0.78572 0.41934 0.29884 0.0
O113 O 0.84955 0.46554 0.33962 0.0
H114 H 0.83791 0.42639 0.19956 0.0
H115 H 0.78614 0.44697 0.34463 0.0
O116 O 0.88779 0.44415 0.25059 0.0
C117 C 0.82176 0.48058 0.35063 0.0
O118 O 0.79831 0.48814 0.3122 0.0
N119 N 0.82779 0.46821 0.19259 0.0
C120 C 0.79445 0.48321 0.09663 0.0
C121 C 0.8328 0.47371 0.09892 0.0
C122 C 0.84914 0.46634 0.14771 0.0
C123 C 0.79023 0.47635 0.19005 0.0
C124 C 0.77304 0.48396 0.14268 0.0
H125 H 0.87882 0.46017 0.14944 0.0
H126 H 0.77352 0.47771 0.22572 0.0
H127 H 0.9133 0.47738 0.31035 0.0
H128 H 0.88841 0.52896 0.20706 0.0
H129 H 0.80078 0.3988 0.23138 0.0
H130 H 0.85025 0.47285 0.06392 0.0
H131 H 0.74327 0.49074 0.14236 0.0
C132 C 0.06345 0.86118 0.45531 0.0
C133 C 0.0766 0.87608 0.42778 0.0
N134 N 0.11359 0.87298 0.43662 0.0
N135 N 0.09208 0.84848 0.48083 0.0
C136 C 0.12228 0.85632 0.46956 0.0
H137 H 0.03518 0.85898 0.45441 0.0
Co138 Co 0.08688 0.82429 0.51669 0.0
C139 C 0.16548 0.79966 0.49338 0.0
O140 O 0.1532 0.78958 0.45488 0.0
N141 N 0.08078 0.80016 0.55493 0.0
C142 C 0.0858 0.76754 0.58356 0.0
C143 C 0.10167 0.78039 0.5528 0.0
C144 C 0.05227 0.79871 0.58806 0.0
N145 N 0.05459 0.77904 0.60557 0.0
O146 O 0.08745 0.8389 0.5824 0.0
H147 H 0.12637 0.775 0.52951 0.0
H148 H 0.02924 0.81156 0.59758 0.0
O149 O 0.1424 0.81357 0.51988 0.0
C150 C 0.05375 0.84851 0.5913 0.0
O151 O 0.02774 0.8461 0.55758 0.0
N152 N 0.08118 0.81137 0.44998 0.0
C153 C 0.06268 0.79597 0.35207 0.0
C154 C 0.08987 0.80781 0.35518 0.0
C155 C 0.09837 0.81553 0.40416 0.0
C156 C 0.05326 0.80079 0.4469 0.0
C157 C 0.04436 0.79249 0.39895 0.0
H158 H 0.11959 0.82447 0.40511 0.0
H159 H 0.03673 0.79908 0.48132 0.0
H160 H 0.15048 0.84908 0.48177 0.0
H161 H 0.06056 0.88774 0.40129 0.0
H162 H 0.09641 0.75093 0.58913 0.0
H163 H 0.10408 0.81148 0.31996 0.0
H164 H 0.02295 0.78359 0.39882 0.0
C165 C 0.94552 0.16926 0.48668 0.0
C166 C 0.92461 0.15627 0.46632 0.0
N167 N 0.89121 0.16796 0.45096 0.0
N168 N 0.92557 0.18913 0.48443 0.0
C169 C 0.89262 0.1879 0.46223 0.0
H170 H 0.97381 0.16456 0.50149 0.0
Co171 Co 0.94393 0.21177 0.50751 0.0
C172 C 0.87523 0.24584 0.53442 0.0
O173 O 0.89427 0.26039 0.53888 0.0
N174 N 0.96432 0.23405 0.53137 0.0
C175 C 1.00341 0.25529 0.53847 0.0
C176 C 0.98867 0.24289 0.50458 0.0
C177 C 0.96505 0.24128 0.58165 0.0
N178 N 0.98868 0.25416 0.58706 0.0
O179 O 0.94931 0.19959 0.57748 0.0
H180 H 0.99709 0.23963 0.46375 0.0
H181 H 0.95015 0.23623 0.61441 0.0
O182 O 0.89209 0.2271 0.52269 0.0
C183 C 0.98358 0.19179 0.58832 0.0
O184 O 1.00925 0.19462 0.55448 0.0
N185 N 0.9424 0.22176 0.43746 0.0
C186 C 0.95893 0.23394 0.33573 0.0
C187 C 0.93095 0.24678 0.36631 0.0
C188 C 0.92281 0.24031 0.4172 0.0
C189 C 0.96888 0.20892 0.4075 0.0
C190 C 0.9773 0.21458 0.35642 0.0
H191 H 0.90227 0.25073 0.44065 0.0
H192 H 0.98498 0.19458 0.42451 0.0
H193 H 0.87021 0.20137 0.45448 0.0
H194 H 0.93386 0.13954 0.46184 0.0
H195 H 0.02432 0.26389 0.52845 0.0
H196 H 0.91617 0.26187 0.35151 0.0
H197 H 0.99948 0.20436 0.33448 0.0
C198 C 0.16809 0.03459 0.75238 0.0
C199 C 0.13944 0.02445 0.75896 0.0
N200 N 0.11298 0.03635 0.78977 0.0
N201 N 0.1595 0.05304 0.77814 0.0
C202 C 0.12659 0.05315 0.80243 0.0
H203 H 0.19282 0.02919 0.72846 0.0
Co204 Co 0.18619 0.07449 0.77949 0.0
C205 C 0.10791 0.09828 0.74371 0.0
O206 O 0.09609 0.08192 0.72774 0.0
N207 N 0.21216 0.09624 0.78129 0.0
C208 C 0.22898 0.12541 0.75764 0.0
C209 C 0.20941 0.11088 0.7429 0.0
C210 C 0.23395 0.10221 0.81903 0.0
N211 N 0.24434 0.12005 0.80569 0.0
O212 O 0.17793 0.07667 0.85481 0.0
H213 H 0.1935 0.11122 0.70661 0.0
H214 H 0.24115 0.09406 0.85627 0.0
O215 O 0.14087 0.09612 0.76286 0.0
C216 C 0.20494 0.06161 0.86856 0.0
O217 O 0.2291 0.05306 0.83193 0.0
N218 N 0.1997 0.06943 0.70801 0.0
C219 C 0.22884 0.04687 0.61784 0.0
C220 C 0.19182 0.05888 0.61843 0.0
C221 C 0.17763 0.07003 0.66419 0.0
C222 C 0.23661 0.05972 0.70592 0.0
C223 C 0.2517 0.04826 0.66157 0.0
H224 H 0.14863 0.07785 0.66505 0.0
H225 H 0.25394 0.05939 0.74073 0.0
H226 H 0.11171 0.06606 0.82632 0.0
H227 H 0.13721 1.01009 0.73964 0.0
H228 H 0.23177 0.13886 0.73455 0.0
H229 H 0.17339 0.05887 0.58486 0.0
H230 H 0.2803 0.03934 0.66352 0.0
C231 C 0.86525 1.00492 0.73873 0.0
C232 C 0.8935 1.01532 0.74624 0.0
N233 N 0.91847 1.00424 0.78064 0.0
N234 N 0.87265 0.98717 0.7677 0.0
C235 C 0.9044 0.9877 0.79433 0.0
H236 H 0.84172 1.00959 0.7121 0.0
Co237 Co 0.8469 0.96536 0.77081 0.0
C238 C 0.92605 0.94246 0.73792 0.0
O239 O 0.93644 0.95899 0.71984 0.0
N240 N 0.82218 0.9431 0.77443 0.0
C241 C 0.80677 0.91335 0.75301 0.0
C242 C 0.8262 0.92785 0.73758 0.0
C243 C 0.79997 0.93742 0.8121 0.0
N244 N 0.79034 0.91925 0.80011 0.0
O245 O 0.85376 0.9645 0.84653 0.0
H246 H 0.84274 0.92715 0.70178 0.0
H247 H 0.79179 0.94614 0.84823 0.0
O248 O 0.89321 0.94412 0.75714 0.0
C249 C 0.82594 0.97955 0.85746 0.0
O250 O 0.80307 0.98744 0.81872 0.0
N251 N 0.83404 0.96911 0.6988 0.0
C252 C 0.80117 0.98484 0.60299 0.0
C253 C 0.83941 0.97506 0.60533 0.0
C254 C 0.85551 0.96734 0.65403 0.0
C255 C 0.7966 0.97761 0.69615 0.0
C256 C 0.77967 0.98561 0.64894 0.0
H257 H 0.88503 0.96073 0.6556 0.0
H258 H 0.77966 0.97877 0.73153 0.0
H259 H 0.91831 0.97536 0.82072 0.0
H260 H 0.89664 0.02921 0.72531 0.0
H261 H 0.80474 0.89958 0.7308 0.0
H262 H 0.8569 0.97409 0.57035 0.0
H263 H 0.74996 0.99253 0.64857 0.0
C264 C 0.57411 0.37015 0.47007 0.0
C265 C 0.59187 0.38492 0.45127 0.0
N266 N 0.62871 0.37627 0.44763 0.0
N267 N 0.59938 0.35213 0.47846 0.0
C268 C 0.63254 0.35624 0.46408 0.0
H269 H 0.54451 0.37244 0.47773 0.0
Co270 Co 0.58477 0.32914 0.50782 0.0
C271 C 0.65485 0.29639 0.53094 0.0
O272 O 0.63608 0.28163 0.53218 0.0
N273 N 0.56763 0.30625 0.5382 0.0
C274 C 0.53612 0.28127 0.54931 0.0
C275 C 0.54962 0.29323 0.51294 0.0
C276 C 0.565 0.30144 0.59041 0.0
N277 N 0.54541 0.28659 0.59811 0.0
O278 O 0.58068 0.34299 0.57563 0.0
H279 H 0.54503 0.29262 0.47075 0.0
H280 H 0.57554 0.3094 0.62251 0.0
O281 O 0.63772 0.31531 0.52137 0.0
C282 C 0.5463 0.35054 0.58628 0.0
O283 O 0.52075 0.34641 0.55415 0.0
N284 N 0.58451 0.31768 0.43974 0.0
C285 C 0.56265 0.29981 0.34846 0.0
C286 C 0.59896 0.29281 0.36873 0.0
C287 C 0.60952 0.30206 0.4148 0.0
C288 C 0.55072 0.32601 0.41711 0.0
C289 C 0.53904 0.31717 0.37184 0.0
H290 H 0.63691 0.29598 0.4311 0.0
H291 H 0.5314 0.3385 0.4371 0.0
H292 H 0.65898 0.34498 0.46664 0.0
H293 H 0.57851 0.4008 0.44057 0.0
H294 H 0.51995 0.26984 0.5405 0.0
H295 H 0.61816 0.27964 0.35093 0.0
H296 H 0.5111 0.32327 0.35665 0.0
C297 C 0.45932 0.67514 0.43864 0.0
C298 C 0.43982 0.6621 0.4144 0.0
N299 N 0.40364 0.66823 0.42847 0.0
N300 N 0.43565 0.68936 0.46826 0.0
C301 C 0.40194 0.68465 0.46134 0.0
H302 H 0.48873 0.67467 0.43368 0.0
Co303 Co 0.4481 0.71149 0.50652 0.0
C304 C 0.37364 0.73439 0.54887 0.0
O305 O 0.38621 0.73659 0.59692 0.0
N306 N 0.46028 0.73375 0.54478 0.0
C307 C 0.46137 0.76588 0.57102 0.0
C308 C 0.44578 0.75426 0.53612 0.0
C309 C 0.48484 0.73338 0.58512 0.0
N310 N 0.486 0.75274 0.60193 0.0
O311 O 0.44941 0.6956 0.57134 0.0
H312 H 0.42489 0.7604 0.50638 0.0
H313 H 0.50189 0.71923 0.60167 0.0
O314 O 0.39561 0.72465 0.51336 0.0
C315 C 0.48248 0.6841 0.57077 0.0
O316 O 0.50451 0.68666 0.53131 0.0
N317 N 0.45085 0.72566 0.44254 0.0
C318 C 0.46356 0.74463 0.34675 0.0
C319 C 0.42903 0.73948 0.35704 0.0
C320 C 0.42315 0.73013 0.40537 0.0
C321 C 0.48476 0.72997 0.43286 0.0
C322 C 0.49137 0.73991 0.38611 0.0
H323 H 0.39676 0.72597 0.41225 0.0
H324 H 0.50684 0.7258 0.46201 0.0
H325 H 0.37635 0.69323 0.47936 0.0
H326 H 0.45105 0.64971 0.38664 0.0
H327 H 0.45438 0.78272 0.57414 0.0
H328 H 0.40689 0.74219 0.32776 0.0
H329 H 0.51819 0.74386 0.38135 0.0
C330 C 0.66825 0.52747 0.73239 0.0
C331 C 0.63784 0.51842 0.7326 0.0
N332 N 0.60902 0.5316 0.75662 0.0
N333 N 0.65853 0.54635 0.75573 0.0
C334 C 0.62267 0.54822 0.77075 0.0
H335 H 0.69536 0.52095 0.71521 0.0
Co336 Co 0.6862 0.56682 0.76511 0.0
C337 C 0.61423 0.60152 0.76135 0.0
O338 O 0.60648 0.60348 0.81232 0.0
N339 N 0.71236 0.58811 0.77437 0.0
C340 C 0.73098 0.6176 0.76102 0.0
C341 C 0.70987 0.60458 0.74138 0.0
C342 C 0.73538 0.59145 0.81376 0.0
N343 N 0.74698 0.60938 0.80672 0.0
O344 O 0.67547 0.56698 0.83975 0.0
H345 H 0.69361 0.60702 0.70516 0.0
H346 H 0.743 0.58116 0.84749 0.0
O347 O 0.64279 0.58809 0.74527 0.0
C348 C 0.70194 0.55116 0.85099 0.0
O349 O 0.72548 0.54315 0.81302 0.0
N350 N 0.70177 0.5637 0.69475 0.0
C351 C 0.73348 0.54875 0.59813 0.0
C352 C 0.69473 0.55682 0.60238 0.0
C353 C 0.67925 0.56406 0.65152 0.0
C354 C 0.73949 0.55653 0.69075 0.0
C355 C 0.75596 0.54906 0.64278 0.0
H356 H 0.64924 0.56857 0.65569 0.0
H357 H 0.75684 0.5557 0.72574 0.0
H358 H 0.60696 0.56159 0.79205 0.0
H359 H 0.63691 0.50356 0.71499 0.0
H360 H 0.73469 0.63186 0.74255 0.0
H361 H 0.67641 0.5565 0.56882 0.0
H362 H 0.78594 0.54311 0.64097 0.0
C363 C 0.35075 0.50695 0.76616 0.0
C364 C 0.381 0.51609 0.76732 0.0
N365 N 0.41224 0.50104 0.77554 0.0
N366 N 0.36283 0.48622 0.77312 0.0
C367 C 0.40014 0.48319 0.77995 0.0
H368 H 0.32208 0.51473 0.75791 0.0
Co369 Co 0.33482 0.46589 0.76663 0.0
C370 C 0.39297 0.43282 0.71405 0.0
O371 O 0.37351 0.43452 0.67 0.0
N372 N 0.30693 0.44443 0.76082 0.0
C373 C 0.28042 0.41947 0.72937 0.0
C374 C 0.29917 0.4346 0.71634 0.0
C375 C 0.2923 0.43469 0.80044 0.0
N376 N 0.27605 0.41957 0.78233 0.0
O377 O 0.33878 0.46221 0.84156 0.0
H378 H 0.30597 0.43821 0.67622 0.0
H379 H 0.29387 0.43821 0.84216 0.0
O380 O 0.38084 0.44412 0.75444 0.0
C381 C 0.30908 0.47502 0.8569 0.0
O382 O 0.28457 0.48377 0.82083 0.0
N383 N 0.32657 0.47328 0.6948 0.0
C384 C 0.30414 0.49684 0.60289 0.0
C385 C 0.34227 0.48971 0.61548 0.0
C386 C 0.3529 0.47799 0.66158 0.0
C387 C 0.28952 0.48049 0.6838 0.0
C388 C 0.27775 0.49163 0.63746 0.0
H389 H 0.38214 0.47385 0.67232 0.0
H390 H 0.26873 0.47824 0.71225 0.0
H391 H 0.41825 0.46802 0.78664 0.0
H392 H 0.38003 0.5324 0.75987 0.0
H393 H 0.26994 0.40954 0.70181 0.0
H394 H 0.36386 0.49388 0.59138 0.0
H395 H 0.24808 0.49645 0.62972 0.0
C396 C 0.57652 0.87487 0.97438 0.0
C397 C 0.59681 0.8888 0.95806 0.0
N398 N 0.63286 0.87867 0.95379 0.0
N399 N 0.5994 0.85589 0.98087 0.0
C400 C 0.63374 0.8586 0.9674 0.0
H401 H 0.54668 0.87841 0.98066 0.0
Co402 Co 0.58086 0.83321 0.00471 0.0
C403 C 0.64813 0.79947 0.03754 0.0
O404 O 0.62902 0.78488 0.03545 0.0
N405 N 0.55999 0.81129 0.02896 0.0
C406 C 0.52005 0.7906 0.03788 0.0
C407 C 0.53437 0.80305 0.00336 0.0
C408 C 0.5604 0.80376 0.07914 0.0
N409 N 0.53669 0.79104 0.08527 0.0
O410 O 0.57106 0.84653 0.07348 0.0
H411 H 0.52508 0.80667 0.963 0.0
H412 H 0.57671 0.80817 0.11117 0.0
O413 O 0.63213 0.81844 0.02624 0.0
C414 C 0.53629 0.85535 0.07441 0.0
O415 O 0.51597 0.85288 0.0329 0.0
N416 N 0.58597 0.82187 0.9356 0.0
C417 C 0.5738 0.80724 0.83443 0.0
C418 C 0.60331 0.79642 0.86617 0.0
C419 C 0.60929 0.80415 0.91659 0.0
C420 C 0.55819 0.83293 0.90419 0.0
C421 C 0.55176 0.82601 0.85351 0.0
H422 H 0.63185 0.79542 0.94007 0.0
H423 H 0.53948 0.84672 0.91983 0.0
H424 H 0.65882 0.84624 0.96802 0.0
H425 H 0.58567 0.90511 0.94888 0.0
H426 H 0.49853 0.78225 0.02929 0.0
H427 H 0.6212 0.78195 0.85249 0.0
H428 H 0.52841 0.83474 0.8306 0.0
C429 C 0.45566 0.16884 0.97361 0.0
C430 C 0.43676 0.15433 0.95671 0.0
N431 N 0.40002 0.16331 0.95566 0.0
N432 N 0.43117 0.18699 0.98386 0.0
C433 C 0.3973 0.18325 0.97184 0.0
H434 H 0.48561 0.1663 0.9776 0.0
Co435 Co 0.44726 0.2103 0.00873 0.0
C436 C 0.3782 0.24298 0.03822 0.0
O437 O 0.39704 0.25768 0.04014 0.0
N438 N 0.466 0.23359 0.03375 0.0
C439 C 0.49463 0.26014 0.03513 0.0
C440 C 0.47708 0.24828 0.00385 0.0
C441 C 0.47682 0.23741 0.08377 0.0
N442 N 0.4948 0.25319 0.0853 0.0
O443 O 0.45565 0.19712 0.07782 0.0
H444 H 0.47391 0.25026 0.96146 0.0
H445 H 0.47331 0.22822 0.11827 0.0
O446 O 0.39509 0.22419 0.02699 0.0
C447 C 0.49016 0.18779 0.07907 0.0
O448 O 0.51134 0.19086 0.03907 0.0
N449 N 0.44327 0.22104 0.93961 0.0
C450 C 0.45669 0.23779 0.84177 0.0
C451 C 0.42151 0.24395 0.86626 0.0
C452 C 0.41522 0.23528 0.91551 0.0
C453 C 0.4762 0.21356 0.91392 0.0
C454 C 0.48364 0.22183 0.86527 0.0
H455 H 0.38856 0.24066 0.93464 0.0
H456 H 0.49782 0.202 0.93319 0.0
H457 H 0.37124 0.19479 0.97506 0.0
H458 H 0.44924 0.13847 0.94484 0.0
H459 H 0.50702 0.27269 0.02175 0.0
H460 H 0.39974 0.256 0.84879 0.0
H461 H 0.51074 0.21621 0.84696 0.0
C462 C 0.66958 0.02779 0.23863 0.0
C463 C 0.63884 1.01905 0.23752 0.0
N464 N 0.60963 0.03268 0.25932 0.0
N465 N 0.6598 0.04691 0.26068 0.0
C466 C 0.62337 0.04928 0.27348 0.0
H467 H 0.6971 0.02085 0.22333 0.0
Co468 Co 0.6892 0.06661 0.27049 0.0
C469 C 0.61864 0.10223 0.26711 0.0
O470 O 0.60953 0.10318 0.31768 0.0
N471 N 0.71733 0.08708 0.2799 0.0
C472 C 0.73916 0.11543 0.26462 0.0
C473 C 0.71694 0.10293 0.24558 0.0
C474 C 0.7402 0.09032 0.31967 0.0
N475 N 0.75375 0.10758 0.31144 0.0
O476 O 0.67863 0.06689 0.34524 0.0
H477 H 0.7015 0.10526 0.20867 0.0
H478 H 0.74634 0.08045 0.35442 0.0
O479 O 0.64715 0.08881 0.25087 0.0
C480 C 0.70444 0.05069 0.35617 0.0
O481 O 0.72693 0.0421 0.31763 0.0
N482 N 0.70467 0.06325 0.20022 0.0
C483 C 0.73614 0.04785 0.1039 0.0
C484 C 0.69773 0.0571 0.10746 0.0
C485 C 0.68234 0.06461 0.15649 0.0
C486 C 0.74211 0.05497 0.19685 0.0
C487 C 0.75845 0.04729 0.14906 0.0
H488 H 0.65244 0.07028 0.16005 0.0
H489 H 0.75927 0.05352 0.23216 0.0
H490 H 0.60727 0.06294 0.29324 0.0
H491 H 0.63796 1.00407 0.22056 0.0
H492 H 0.74458 0.12906 0.24486 0.0
H493 H 0.67953 0.05758 0.0734 0.0
H494 H 0.78821 0.04053 0.14779 0.0
C495 C 0.35041 1.00886 0.26179 0.0
C496 C 0.38098 1.01768 0.25887 0.0
N497 N 0.41173 1.00308 0.2724 0.0
N498 N 0.36174 0.98874 0.27673 0.0
C499 C 0.39905 0.9858 0.28363 0.0
H500 H 0.32188 1.01646 0.25216 0.0
Co501 Co 0.33219 0.96902 0.28271 0.0
C502 C 0.40164 0.93355 0.27214 0.0
O503 O 0.41106 0.93185 0.3226 0.0
N504 N 0.30313 0.9487 0.28806 0.0
C505 C 0.27765 0.92231 0.26536 0.0
C506 C 0.30111 0.9347 0.24958 0.0
C507 C 0.28073 0.94428 0.32726 0.0
N508 N 0.26483 0.92832 0.31429 0.0
O509 O 0.34575 0.96531 0.356 0.0
H510 H 0.31574 0.93358 0.21203 0.0
H511 H 0.27561 0.95269 0.36434 0.0
O512 O 0.37312 0.94728 0.25708 0.0
C513 C 0.31988 0.97988 0.37496 0.0
O514 O 0.29495 0.99074 0.34221 0.0
N515 N 0.31502 0.97526 0.21378 0.0
C516 C 0.2831 0.99235 0.11893 0.0
C517 C 0.32101 0.98198 0.12106 0.0
C518 C 0.33665 0.9737 0.16927 0.0
C519 C 0.27809 0.98496 0.21216 0.0
C520 C 0.26153 0.99363 0.16511 0.0
H521 H 0.36628 0.96689 0.17131 0.0
H522 H 0.26163 0.98651 0.24817 0.0
H523 H 0.41665 0.97122 0.29666 0.0
H524 H 0.38058 0.03342 0.24598 0.0
H525 H 0.27089 0.90966 0.2428 0.0
H526 H 0.33869 0.98099 0.08626 0.0
H527 H 0.23218 1.00139 0.16495 0.0
H528 H 0.1854 0.35727 0.87487 0.0
H529 H 0.14553 0.40942 0.97914 0.0
H530 H 0.18884 0.42826 0.93919 0.0
H531 H 0.23431 0.43108 0.86967 0.0
H532 H 0.2723 0.37977 0.76209 0.0
H533 H 0.23378 0.3594 0.80797 0.0
C534 C 0.18681 0.37259 0.88928 0.0
C535 C 0.16231 0.38201 0.92965 0.0
C536 C 0.21118 0.38356 0.86512 0.0
C537 C 0.16394 0.40199 0.94771 0.0
C538 C 0.18868 0.41275 0.92492 0.0
C539 C 0.23463 0.41531 0.85692 0.0
C540 C 0.256 0.40697 0.81246 0.0
C541 C 0.21187 0.40388 0.88285 0.0
C542 C 0.25571 0.38661 0.79584 0.0
C543 C 0.23378 0.37495 0.82215 0.0
H544 H 0.87235 0.63165 0.94917 0.0
H545 H 0.82194 0.69348 0.89206 0.0
H546 H 0.77398 0.67986 0.84581 0.0
H547 H 0.74892 0.64999 0.81711 0.0
H548 H 0.80123 0.58802 0.87166 0.0
H549 H 0.84592 0.60211 0.92352 0.0
C550 C 0.85097 0.64216 0.92646 0.0
C551 C 0.85109 0.66353 0.92355 0.0
C552 C 0.82392 0.63417 0.89936 0.0
C553 C 0.82249 0.677 0.89517 0.0
C554 C 0.79522 0.66918 0.86838 0.0
C555 C 0.77018 0.63953 0.84012 0.0
C556 C 0.77187 0.61791 0.83995 0.0
C557 C 0.7961 0.64773 0.86941 0.0
C558 C 0.79907 0.6047 0.87119 0.0
C559 C 0.82481 0.61274 0.90064 0.0
H560 H 0.04592 0.66351 0.06673 0.0
H561 H 0.95557 0.68497 0.17694 0.0
H562 H 0.99016 0.66173 0.24593 0.0
H563 H 0.04751 0.63548 0.27463 0.0
H564 H 0.13563 0.61486 0.15975 0.0
H565 H 0.10048 0.6377 0.09329 0.0
C566 C 0.03358 0.66325 0.10584 0.0
C567 C 0.99829 0.67611 0.11673 0.0
C568 C 0.05342 0.64997 0.14467 0.0
C569 C 0.98271 0.67522 0.16749 0.0
C570 C 1.00257 0.66198 0.20693 0.0
C571 C 0.05897 0.63605 0.23509 0.0
C572 C 0.09444 0.62339 0.22264 0.0
C573 C 0.03819 0.64932 0.19604 0.0
C574 C 0.1086 0.62427 0.17092 0.0
C575 C 0.08848 0.63739 0.13258 0.0
H576 H 0.98564 0.35162 0.14645 0.0
H577 H 0.08042 0.37797 0.11345 0.0
H578 H 0.05093 0.40969 0.16212 0.0
H579 H 0.99396 0.43173 0.2016 0.0
H580 H 0.89965 0.40484 0.23527 0.0
H581 H 0.93331 0.37148 0.19939 0.0
C582 C 1.00024 0.36411 0.15127 0.0
C583 C 0.03495 0.36261 0.12625 0.0
C584 C 0.98289 0.38232 0.17859 0.0
C585 C 0.0538 0.37875 0.13282 0.0
C586 C 0.03672 0.39697 0.16007 0.0
C587 C 0.98098 0.41848 0.20189 0.0
C588 C 0.94385 0.421 0.21975 0.0
C589 C 1.0006 0.39924 0.1812 0.0
C590 C 0.92784 0.40353 0.22093 0.0
C591 C 0.9471 0.3844 0.20034 0.0
H592 H 0.17053 0.88798 0.47653 0.0
H593 H 0.11336 0.87965 0.33152 0.0
H594 H 0.15527 0.89626 0.28062 0.0
H595 H 0.20793 0.91322 0.27709 0.0
H596 H 0.26429 0.92335 0.42138 0.0
H597 H 0.22282 0.90637 0.47307 0.0
C598 C 0.16752 0.88982 0.43381 0.0
C599 C 0.13899 0.88265 0.40767 0.0
C600 C 0.19137 0.89983 0.40483 0.0
C601 C 0.13495 0.88523 0.35238 0.0
C602 C 0.15893 0.89467 0.3233 0.0
C603 C 0.21124 0.91162 0.31983 0.0
C604 C 0.23932 0.91937 0.34531 0.0
C605 C 0.18717 0.90205 0.34907 0.0
C606 C 0.24276 0.9176 0.40089 0.0
C607 C 0.21919 0.90778 0.43036 0.0
H608 H 0.87812 0.12921 0.45767 0.0
H609 H 0.83662 0.18985 0.3868 0.0
H610 H 0.78871 0.17667 0.33981 0.0
H611 H 0.76053 0.1476 0.31549 0.0
H612 H 0.80405 0.08651 0.38265 0.0
H613 H 0.84916 0.10026 0.4346 0.0
C614 C 0.85884 0.13956 0.4317 0.0
C615 C 0.86142 0.1605 0.42558 0.0
C616 C 0.83169 0.13178 0.40404 0.0
C617 C 0.83535 0.17374 0.39272 0.0
C618 C 0.80802 0.16616 0.36548 0.0
C619 C 0.78002 0.1372 0.34112 0.0
C620 C 0.779 0.11594 0.34455 0.0
C621 C 0.80628 0.14515 0.37027 0.0
C622 C 0.80391 0.10292 0.37929 0.0
C623 C 0.82993 0.11076 0.40881 0.0
H624 H 0.04564 0.18726 0.64775 0.0
H625 H 0.94849 0.162 0.62411 0.0
H626 H 0.97732 0.13114 0.67672 0.0
H627 H 0.03425 0.10917 0.71664 0.0
H628 H 0.13114 0.1349 0.74022 0.0
H629 H 0.09818 0.16785 0.70103 0.0
C630 C 0.03039 0.17525 0.65551 0.0
C631 C 0.9952 0.17674 0.63197 0.0
C632 C 0.04738 0.1575 0.68494 0.0
C633 C 0.9755 0.16122 0.64229 0.0
C634 C 0.9922 0.14347 0.67178 0.0
C635 C 0.04795 0.1221 0.714 0.0
C636 C 0.08551 0.11935 0.73006 0.0
C637 C 0.02878 0.14107 0.69132 0.0
C638 C 0.10253 0.13642 0.72746 0.0
C639 C 0.08369 0.1553 0.70494 0.0
H640 H 0.99945 0.93291 0.70872 0.0
H641 H 0.90662 0.90479 0.74261 0.0
H642 H 0.94179 0.87152 0.70811 0.0
H643 H 0.99443 0.85222 0.6552 0.0
H644 H 0.08723 0.87989 0.62004 0.0
H645 H 0.05707 0.9114 0.66933 0.0
C646 C 0.98715 0.91942 0.70938 0.0
C647 C 0.95003 0.92152 0.72697 0.0
C648 C 1.00754 0.90027 0.6892 0.0
C649 C 0.93484 0.90376 0.72861 0.0
C650 C 0.95494 0.88469 0.70879 0.0
C651 C 1.00855 0.86492 0.65993 0.0
C652 C 0.04283 0.8639 0.63412 0.0
C653 C 0.99066 0.88302 0.68713 0.0
C654 C 0.06102 0.88032 0.64021 0.0
C655 C 0.0435 0.89841 0.66771 0.0
H656 H 0.72725 0.43601 0.3626 0.0
H657 H 0.79324 0.37755 0.30466 0.0
H658 H 0.75159 0.35872 0.34833 0.0
H659 H 0.69371 0.35894 0.39803 0.0
H660 H 0.62783 0.41738 0.45635 0.0
H661 H 0.67193 0.43594 0.41811 0.0
C662 C 0.73281 0.41914 0.36025 0.0
C663 C 0.76309 0.40831 0.3297 0.0
C664 C 0.70847 0.40833 0.38528 0.0
C665 C 0.76972 0.38639 0.32691 0.0
C666 C 0.74597 0.37555 0.35211 0.0
C667 C 0.68932 0.37568 0.40305 0.0
C668 C 0.65711 0.38671 0.42943 0.0
C669 C 0.71481 0.38636 0.38059 0.0
C670 C 0.65186 0.40848 0.43526 0.0
C671 C 0.67722 0.41915 0.41359 0.0
H672 H 0.25912 0.65047 0.32264 0.0
H673 H 0.3247 0.58734 0.32865 0.0
H674 H 0.37571 0.59935 0.37235 0.0
H675 H 0.40254 0.62827 0.40575 0.0
H676 H 0.33521 0.6911 0.40302 0.0
H677 H 0.284 0.67886 0.36148 0.0
C678 C 0.28462 0.63937 0.33356 0.0
C679 C 0.28836 0.61808 0.32192 0.0
C680 C 0.31348 0.64639 0.35926 0.0
C681 C 0.3212 0.60378 0.33727 0.0
C682 C 0.35038 0.61068 0.36202 0.0
C683 C 0.37658 0.63921 0.39613 0.0
C684 C 0.37275 0.66058 0.40727 0.0
C685 C 0.347 0.63199 0.37273 0.0
C686 C 0.33877 0.67458 0.39529 0.0
C687 C 0.30955 0.6676 0.37123 0.0
H688 H 0.54372 0.65355 0.56237 0.0
H689 H 0.45731 0.68048 0.67409 0.0
H690 H 0.48989 0.65682 0.74394 0.0
H691 H 0.54557 0.62935 0.77343 0.0
H692 H 0.63182 0.60542 0.65803 0.0
H693 H 0.59667 0.6271 0.58984 0.0
C694 C 0.53173 0.65435 0.60196 0.0
C695 C 0.49826 0.66889 0.61306 0.0
C696 C 0.55081 0.6412 0.64146 0.0
C697 C 0.48302 0.66938 0.66444 0.0
C698 C 0.50181 0.65594 0.70439 0.0
C699 C 0.55654 0.62889 0.73334 0.0
C700 C 0.59128 0.61538 0.72111 0.0
C701 C 0.53617 0.64194 0.69352 0.0
C702 C 0.60502 0.61513 0.66885 0.0
C703 C 0.58498 0.6277 0.62955 0.0
H704 H 0.49876 0.34818 0.66572 0.0
H705 H 0.56352 0.38831 0.59633 0.0
H706 H 0.52396 0.41861 0.64044 0.0
H707 H 0.46252 0.43407 0.68138 0.0
H708 H 0.39744 0.39366 0.74873 0.0
H709 H 0.44575 0.36299 0.72413 0.0
C710 C 0.50518 0.36344 0.66245 0.0
C711 C 0.53388 0.36613 0.62815 0.0
C712 C 0.48178 0.38075 0.6869 0.0
C713 C 0.54187 0.38591 0.6233 0.0
C714 C 0.51887 0.40326 0.64786 0.0
C715 C 0.4599 0.41855 0.69268 0.0
C716 C 0.42681 0.41596 0.71699 0.0
C717 C 0.48752 0.40099 0.67731 0.0
C718 C 0.42303 0.39589 0.73067 0.0
C719 C 0.45045 0.37838 0.71606 0.0
H720 H 0.69369 0.86043 0.89617 0.0
H721 H 0.63948 0.91803 0.97213 0.0
H722 H 0.68481 0.93563 0.93333 0.0
H723 H 0.73685 0.93546 0.87203 0.0
H724 H 0.7919 0.8778 0.79674 0.0
H725 H 0.74954 0.85959 0.84076 0.0
C726 C 0.69227 0.87672 0.90493 0.0
C727 C 0.66289 0.88794 0.93641 0.0
C728 C 0.71836 0.88688 0.88197 0.0
C729 C 0.66135 0.90911 0.94717 0.0
C730 C 0.68734 0.9192 0.92509 0.0
C731 C 0.74001 0.91887 0.86584 0.0
C732 C 0.76728 0.90821 0.83025 0.0
C733 C 0.71549 0.90838 0.89143 0.0
C734 C 0.77066 0.88663 0.82274 0.0
C735 C 0.74654 0.8761 0.84825 0.0
H736 H 0.33699 0.18074 0.9017 0.0
H737 H 0.39786 0.12304 0.97086 0.0
H738 H 0.35344 0.10454 0.93317 0.0
H739 H 0.2999 0.10415 0.8747 0.0
H740 H 0.23937 0.16173 0.80436 0.0
H741 H 0.28063 0.18077 0.84817 0.0
C742 C 0.34007 0.16421 0.90922 0.0
C743 C 0.37091 0.15327 0.93862 0.0
C744 C 0.31463 0.15354 0.88664 0.0
C745 C 0.37471 0.13177 0.94766 0.0
C746 C 0.34926 0.12117 0.92619 0.0
C747 C 0.29541 0.1209 0.86963 0.0
C748 C 0.26682 0.13139 0.8357 0.0
C749 C 0.31953 0.13179 0.89466 0.0
C750 C 0.26161 0.15314 0.82932 0.0
C751 C 0.2851 0.16409 0.85462 0.0
H752 H 0.54956 0.12962 0.27795 0.0
H753 H 0.64017 0.1089 0.16691 0.0
H754 H 0.60808 0.13306 0.10081 0.0
H755 H 0.55565 0.16007 0.07358 0.0
H756 H 0.46291 0.18185 0.17969 0.0
H757 H 0.49432 0.15726 0.24839 0.0
C758 C 0.56219 0.13044 0.2393 0.0
C759 C 0.59741 0.1173 0.22779 0.0
C760 C 0.54326 0.14456 0.20047 0.0
C761 C 0.61318 0.11856 0.17726 0.0
C762 C 0.59486 0.13249 0.13916 0.0
C763 C 0.54212 0.15962 0.11176 0.0
C764 C 0.50711 0.17296 0.12161 0.0
C765 C 0.56009 0.14555 0.15033 0.0
C766 C 0.48992 0.17178 0.17111 0.0
C767 C 0.50795 0.15775 0.21035 0.0
H768 H 0.46792 0.88059 0.07253 0.0
H769 H 0.56322 0.86064 0.17546 0.0
H770 H 0.52993 0.8829 0.24696 0.0
H771 H 0.47266 0.90814 0.27971 0.0
H772 H 0.37939 0.92731 0.17218 0.0
H773 H 0.41307 0.90517 0.10324 0.0
C774 C 0.48165 0.88095 0.11058 0.0
C775 C 0.518 0.86883 0.11864 0.0
C776 C 0.46256 0.89371 0.15083 0.0
C777 C 0.53524 0.86981 0.16816 0.0
C778 C 0.51615 0.88251 0.20903 0.0
C779 C 0.45977 0.90739 0.24123 0.0
C780 C 0.4234 0.9195 0.23142 0.0
C781 C 0.47962 0.89453 0.20084 0.0
C782 C 0.40726 0.91839 0.18111 0.0
C783 C 0.42651 0.90565 0.14145 0.0
H784 H 0.97747 0.27078 0.31496 0.0
H785 H 0.96969 0.21265 0.24214 0.0
H786 H 0.9968 0.22268 0.16006 0.0
H787 H 0.02463 0.24743 0.11022 0.0
H788 H 0.03237 0.30564 0.18293 0.0
H789 H 1.00413 0.29596 0.26409 0.0
C790 C 0.98115 0.2605 0.28075 0.0
C791 C 0.9714 0.24108 0.28435 0.0
C792 C 0.99739 0.2662 0.23406 0.0
C793 C 0.977 0.22768 0.24018 0.0
C794 C 0.99259 0.23338 0.19338 0.0
C795 C 0.01997 0.25805 0.14369 0.0
C796 C 0.0309 0.27717 0.14038 0.0
C797 C 1.00328 0.25249 0.19009 0.0
C798 C 0.02501 0.29064 0.18452 0.0
C799 C 1.00844 0.28522 0.23085 0.0
H800 H 0.9938 0.79249 0.31799 0.0
H801 H 0.10936 0.78098 0.26897 0.0
H802 H 0.09306 0.76815 0.18341 0.0
H803 H 0.04619 0.7595 0.123 0.0
H804 H 0.93189 0.76846 0.17447 0.0
H805 H 0.94765 0.78248 0.25944 0.0
C806 C 0.01563 0.78688 0.28909 0.0
C807 C 0.05279 0.7878 0.30018 0.0
C808 C 1.00628 0.77898 0.24048 0.0
C809 C 0.08041 0.78085 0.2614 0.0
C810 C 0.07119 0.77334 0.21252 0.0
C811 C 0.02479 0.76469 0.15279 0.0
C812 C 0.98793 0.76316 0.14269 0.0
C813 C 0.03424 0.77235 0.20165 0.0
C814 C 0.96046 0.76949 0.18176 0.0
C815 C 0.96945 0.77753 0.2301 0.0
H816 H 0.2741 0.53843 0.37772 0.0
H817 H 0.16872 0.56799 0.44932 0.0
H818 H 0.19157 0.55231 0.53574 0.0
H819 H 0.24 0.52774 0.58763 0.0
H820 H 0.3406 0.49491 0.50766 0.0
H821 H 0.32095 0.51467 0.42749 0.0
C822 C 0.25582 0.54155 0.41208 0.0
C823 C 0.21945 0.55405 0.40697 0.0
C824 C 0.26835 0.53181 0.45997 0.0
C825 C 0.19678 0.55837 0.45228 0.0
C826 C 0.20978 0.54925 0.50139 0.0
C827 C 0.25752 0.52464 0.5526 0.0
C828 C 0.29196 0.50965 0.55433 0.0
C829 C 0.24519 0.53543 0.50521 0.0
C830 C 0.31447 0.5065 0.50855 0.0
C831 C 0.30309 0.51768 0.46224 0.0
H832 H 0.78379 0.51161 0.58566 0.0
H833 H 0.72083 0.56467 0.49856 0.0
H834 H 0.74636 0.5487 0.4151 0.0
H835 H 0.78335 0.51945 0.36729 0.0
H836 H 0.84459 0.46504 0.45085 0.0
H837 H 0.82394 0.48216 0.53625 0.0
C838 C 0.77607 0.51974 0.54836 0.0
C839 C 0.75031 0.53926 0.54804 0.0
C840 C 0.79061 0.51033 0.50041 0.0
C841 C 0.74018 0.54955 0.49961 0.0
C842 C 0.75491 0.54049 0.45204 0.0
C843 C 0.79236 0.51122 0.40412 0.0
C844 C 0.815 0.49087 0.40292 0.0
C845 C 0.77963 0.52082 0.45206 0.0
C846 C 0.82713 0.4807 0.45091 0.0
C847 C 0.81507 0.49043 0.49952 0.0
H848 H 0.96637 0.72886 0.74792 0.0
H849 H 0.94479 0.7863 0.83699 0.0
H850 H 0.97475 0.80281 0.76759 0.0
H851 H 0.01403 0.79948 0.68675 0.0
H852 H 0.03762 0.74135 0.60071 0.0
H853 H 1.00052 0.7265 0.66391 0.0
C854 C 0.96794 0.74505 0.75194 0.0
C855 C 0.95367 0.75623 0.79784 0.0
C856 C 0.98618 0.75423 0.71275 0.0
C857 C 0.95527 0.77734 0.80192 0.0
C858 C 0.97279 0.78674 0.76248 0.0
C859 C 1.01046 0.78371 0.68145 0.0
C860 C 0.02908 0.77142 0.63964 0.0
C861 C 0.98935 0.77514 0.71848 0.0
C862 C 0.0243 0.75096 0.63327 0.0
C863 C 1.00292 0.74249 0.66923 0.0
H864 H 1.00935 0.29141 0.81145 0.0
H865 H 0.12041 0.28734 0.75013 0.0
H866 H 0.10301 0.27287 0.66678 0.0
H867 H 0.05598 0.26164 0.61134 0.0
H868 H 0.94494 0.26602 0.6729 0.0
H869 H 0.96254 0.28023 0.75628 0.0
C870 C 0.02967 0.28756 0.77965 0.0
C871 C 0.06605 0.29063 0.78683 0.0
C872 C 0.01945 0.27933 0.73197 0.0
C873 C 0.0923 0.28505 0.74573 0.0
C874 C 0.0823 0.27688 0.69799 0.0
C875 C 0.03551 0.26594 0.64273 0.0
C876 C 0.99908 0.26289 0.63576 0.0
C877 C 0.0459 0.27404 0.69061 0.0
C878 C 0.97317 0.26808 0.67739 0.0
C879 C 0.9832 0.27627 0.72497 0.0
H880 H 0.23369 0.02152 0.88757 0.0
H881 H 0.1857 0.07926 0.96769 0.0
H882 H 0.20376 0.06217 0.05413 0.0
H883 H 0.23912 0.03148 0.10507 0.0
H884 H 0.28941 0.97492 0.02094 0.0
H885 H 0.26504 0.9911 0.93709 0.0
C886 C 0.22695 0.03044 0.92394 0.0
C887 C 0.20894 0.05169 0.92148 0.0
C888 C 0.23836 0.02077 0.9724 0.0
C889 C 0.19957 0.06288 0.9688 0.0
C890 C 0.21021 0.05314 0.01797 0.0
C891 C 0.24429 0.02268 0.06836 0.0
C892 C 0.26632 1.00209 0.06894 0.0
C893 C 0.23052 0.03222 0.02005 0.0
C894 C 0.27306 0.99086 0.02125 0.0
C895 C 0.25898 1.00005 0.97345 0.0
H896 H 0.78909 1.01867 0.87407 0.0
H897 H 0.84609 0.96332 0.95794 0.0
H898 H 0.82421 0.98028 0.0431 0.0
H899 H 0.7843 1.00997 0.09185 0.0
H900 H 0.72561 0.06406 0.00431 0.0
H901 H 0.75208 0.04806 0.92135 0.0
C902 C 0.79689 1.0102 0.91092 0.0
C903 C 0.81871 0.98965 0.90987 0.0
C904 C 0.7834 0.01972 0.95863 0.0
C905 C 0.82932 0.97914 0.95792 0.0
C906 C 0.81653 0.98879 0.00635 0.0
C907 C 0.77767 1.01831 0.05458 0.0
C908 C 0.75289 0.03815 0.05398 0.0
C909 C 0.79285 1.00892 0.00696 0.0
C910 C 0.74416 0.0487 0.00557 0.0
C911 C 0.75947 0.03963 0.9583 0.0
H912 H 0.48019 0.27587 0.61713 0.0
H913 H 0.58338 0.28124 0.69105 0.0
H914 H 0.56417 0.26729 0.77423 0.0
H915 H 0.51909 0.25224 0.82442 0.0
H916 H 0.41572 0.24707 0.7505 0.0
H917 H 0.43382 0.26238 0.66855 0.0
C918 C 0.49858 0.27386 0.65135 0.0
C919 C 0.53344 0.27928 0.64777 0.0
C920 C 0.48727 0.26589 0.69885 0.0
C921 C 0.55648 0.27717 0.69288 0.0
C922 C 0.54555 0.26912 0.74028 0.0
C923 C 0.50058 0.25443 0.79027 0.0
C924 C 0.46631 0.2483 0.79318 0.0
C925 C 0.5112 0.26322 0.74348 0.0
C926 C 0.44219 0.25167 0.74917 0.0
C927 C 0.45263 0.26032 0.70232 0.0
H928 H 0.56464 0.76801 0.81532 0.0
H929 H 0.55961 0.8274 0.73947 0.0
H930 H 0.53423 0.81513 0.65894 0.0
H931 H 0.50911 0.78857 0.61276 0.0
H932 H 0.51128 0.72965 0.68959 0.0
H933 H 0.54282 0.74047 0.76646 0.0
C934 C 0.55871 0.77807 0.78071 0.0
C935 C 0.5639 0.7986 0.78331 0.0
C936 C 0.54335 0.77105 0.73487 0.0
C937 C 0.55562 0.81159 0.73847 0.0
C938 C 0.54105 0.8046 0.69249 0.0
C939 C 0.51639 0.77809 0.6463 0.0
C940 C 0.50738 0.7584 0.64545 0.0
C941 C 0.53394 0.78455 0.69073 0.0
C942 C 0.51796 0.74484 0.68888 0.0
C943 C 0.53583 0.75107 0.73308 0.0
H944 H 0.74738 0.52146 0.08474 0.0
H945 H 0.80139 0.46634 0.99768 0.0
H946 H 0.77252 0.48197 0.91544 0.0
H947 H 0.7352 0.51146 0.86824 0.0
H948 H 0.68413 0.56805 0.95129 0.0
H949 H 0.70725 0.55127 0.03631 0.0
C950 C 0.7525 0.51284 0.04774 0.0
C951 C 0.77664 0.49279 0.04704 0.0
C952 C 0.73607 0.52205 1.00048 0.0
C953 C 0.78338 0.48185 0.99897 0.0
C954 C 0.76667 0.49071 0.95214 0.0
C955 C 0.72884 0.52019 0.90495 0.0
C956 C 0.70836 0.54105 0.90362 0.0
C957 C 0.74343 0.51083 0.95247 0.0
C958 C 0.69971 0.55196 0.95147 0.0
C959 C 0.71331 0.54244 0.9998 0.0
H960 H 0.29356 0.5312 0.0576 0.0
H961 H 0.17937 0.52466 0.04426 0.0
H962 H 0.19728 0.50005 0.972 0.0
H963 H 0.24432 0.48184 0.90926 0.0
H964 H 0.35883 0.48653 0.92459 0.0
H965 H 0.34223 0.50931 0.00225 0.0
C966 C 0.27253 0.52418 0.03986 0.0
C967 C 0.23485 0.53032 0.05631 0.0
C968 C 0.28326 0.50927 0.99952 0.0
C969 C 0.20826 0.52105 0.03163 0.0
C970 C 0.21858 0.50661 0.99075 0.0
C971 C 0.2658 0.48737 0.93072 0.0
C972 C 0.30269 0.48252 0.91178 0.0
C973 C 0.25585 0.50078 0.97411 0.0
C974 C 0.33038 0.48979 0.9393 0.0
C975 C 0.32072 0.50311 0.98297 0.0
H976 H 0.5304 0.74068 0.29442 0.0
H977 H 0.41335 0.77123 0.28227 0.0
H978 H 0.42543 0.78715 0.19865 0.0
H979 H 0.46965 0.79335 0.12965 0.0
H980 H 0.58712 0.76661 0.14843 0.0
H981 H 0.57471 0.74881 0.23 0.0
C982 C 0.50743 0.75115 0.27451 0.0
C983 C 0.47088 0.75457 0.29541 0.0
C984 C 0.51476 0.76108 0.22759 0.0
C985 C 0.44166 0.76778 0.2672 0.0
C986 C 0.44857 0.77714 0.21943 0.0
C987 C 0.49233 0.78355 0.15181 0.0
C988 C 0.52916 0.78102 0.13337 0.0
C989 C 0.48501 0.77395 0.19934 0.0
C990 C 0.55863 0.76866 0.16234 0.0
C991 C 0.55148 0.7585 0.20869 0.0
H992 H 0.59115 0.2903 0.24926 0.0
H993 H 0.5007 0.28411 0.35247 0.0
H994 H 0.47262 0.26769 0.28099 0.0
H995 H 0.47174 0.25699 0.18714 0.0
H996 H 0.56051 0.26484 0.08281 0.0
H997 H 0.59124 0.27861 0.1561 0.0
C998 C 0.56554 0.28512 0.25603 0.0
C999 C 0.5479 0.28844 0.30575 0.0
C1000 C 0.54907 0.27613 0.21433 0.0
C1001 C 0.51456 0.28183 0.31419 0.0
C1002 C 0.49851 0.27244 0.27341 0.0
C1003 C 0.49799 0.26152 0.18081 0.0
C1004 C 0.51367 0.26008 0.12967 0.0
C1005 C 0.51518 0.2698 0.22302 0.0
C1006 C 0.54759 0.26614 0.12171 0.0
C1007 C 0.56527 0.27393 0.16364 0.0
H1008 H 0.75427 0.02313 0.59016 0.0
H1009 H 0.80762 0.96747 0.50469 0.0
H1010 H 0.77744 0.98238 0.42259 0.0
H1011 H 0.73861 1.01122 0.37508 0.0
H1012 H 0.68836 0.06846 0.45604 0.0
H1013 H 0.71324 0.05252 0.54119 0.0
C1014 C 0.75905 1.01427 0.55351 0.0
C1015 C 0.78331 0.99424 0.55325 0.0
C1016 C 0.74182 0.02306 0.50629 0.0
C1017 C 0.78956 0.98297 0.50562 0.0
C1018 C 0.77207 0.99141 0.45889 0.0
C1019 C 0.73282 0.0203 0.41134 0.0
C1020 C 0.71198 0.04108 0.40932 0.0
C1021 C 0.74851 1.01144 0.45882 0.0
C1022 C 0.70415 0.05242 0.45671 0.0
C1023 C 0.71878 0.04337 0.5051 0.0
H1024 H 0.29974 0.03507 0.57591 0.0
H1025 H 0.18912 0.02307 0.56421 0.0
H1026 H 0.21056 0.9976 0.49465 0.0
H1027 H 0.25871 0.98114 0.43188 0.0
H1028 H 0.369 0.99295 0.44093 0.0
H1029 H 0.35042 1.01506 0.51946 0.0
C1030 C 0.28037 0.0267 0.55879 0.0
C1031 C 0.24252 0.03146 0.57479 0.0
C1032 C 0.29309 1.01164 0.51931 0.0
C1033 C 0.21799 0.02042 0.55163 0.0
C1034 C 0.23036 1.00554 0.51237 0.0
C1035 C 0.2791 0.98788 0.45248 0.0
C1036 C 0.31525 0.98526 0.43147 0.0
C1037 C 0.26762 1.00128 0.49543 0.0
C1038 C 0.34131 0.99436 0.45744 0.0
C1039 C 0.33037 1.00736 0.50149 0.0
H1040 H 0.33343 0.28223 0.04003 0.0
H1041 H 0.32915 0.21721 0.04388 0.0
H1042 H 0.26089 0.22711 0.04478 0.0
H1043 H 0.20247 0.25411 0.04164 0.0
H1044 H 0.20664 0.31911 0.03507 0.0
H1045 H 0.27491 0.30928 0.03831 0.0
C1046 C 0.31767 0.27017 0.04147 0.0
C1047 C 0.33664 0.24894 0.04184 0.0
C1048 C 0.27833 0.27598 0.04135 0.0
C1049 C 0.31549 0.23363 0.04337 0.0
C1050 C 0.27638 0.23929 0.04391 0.0
C1051 C 0.21819 0.26619 0.04122 0.0
C1052 C 0.1992 0.28738 0.03811 0.0
C1053 C 0.2575 0.26041 0.04246 0.0
C1054 C 0.22032 0.30272 0.0374 0.0
C1055 C 0.25943 0.29709 0.03922 0.0
H1056 H 0.82371 0.78613 0.05362 0.0
H1057 H 0.81683 0.72156 0.0458 0.0
H1058 H 0.7486 0.73228 0.04576 0.0
H1059 H 0.69116 0.75995 0.04348 0.0
H1060 H 0.6981 0.82457 0.04742 0.0
H1061 H 0.7662 0.81379 0.05364 0.0
C1062 C 0.8074 0.77433 0.0524 0.0
C1063 C 0.82557 0.753 0.04966 0.0
C1064 C 0.76817 0.78063 0.05143 0.0
C1065 C 0.80374 0.73804 0.04784 0.0
C1066 C 0.76468 0.74418 0.04774 0.0
C1067 C 0.70744 0.77174 0.0461 0.0
C1068 C 0.68934 0.7931 0.04486 0.0
C1069 C 0.74662 0.76543 0.04883 0.0
C1070 C 0.71113 0.80806 0.04814 0.0
C1071 C 0.75012 0.80189 0.05167 0.0
H1072 H 0.0832 0.50399 0.28676 0.0
H1073 H 0.04292 0.56906 0.24777 0.0
H1074 H 0.97864 0.5647 0.24824 0.0
H1075 H 0.93393 0.54193 0.25531 0.0
H1076 H 0.97499 0.47665 0.29231 0.0
H1077 H 0.03845 0.48164 0.29749 0.0
C1078 C 0.0604 0.51721 0.27825 0.0
C1079 C 0.06809 0.53679 0.26693 0.0
C1080 C 0.02344 0.51457 0.27833 0.0
C1081 C 0.03797 0.55384 0.25704 0.0
C1082 C 1.00114 0.55133 0.25699 0.0
C1083 C 0.95671 0.5288 0.26462 0.0
C1084 C 0.9493 0.50893 0.27329 0.0
C1085 C 0.99354 0.5317 0.26695 0.0
C1086 C 0.97937 0.49219 0.28608 0.0
C1087 C 0.01593 0.49497 0.28861 0.0
H1088 H 0.3231 0.76477 0.60267 0.0
H1089 H 0.33735 0.72808 0.45866 0.0
H1090 H 0.27613 0.74629 0.42803 0.0
H1091 H 0.21862 0.77204 0.44128 0.0
H1092 H 0.20064 0.80864 0.58503 0.0
H1093 H 0.26359 0.79142 0.61594 0.0
C1094 C 0.31265 0.76069 0.5648 0.0
C1095 C 0.33503 0.74498 0.53313 0.0
C1096 C 0.27696 0.77138 0.54699 0.0
C1097 C 0.32107 0.74005 0.48393 0.0
C1098 C 0.28596 0.75052 0.46619 0.0
C1099 C 0.22828 0.77642 0.47943 0.0
C1100 C 0.20474 0.7916 0.51085 0.0
C1101 C 0.26377 0.76618 0.49725 0.0
C1102 C 0.21817 0.79708 0.55988 0.0
C1103 C 0.25406 0.78711 0.57772 0.0
H1104 H 0.83064 0.2851 0.5392 0.0
H1105 H 0.82604 0.22014 0.5342 0.0
H1106 H 0.7578 0.23011 0.53439 0.0
H1107 H 0.6995 0.25719 0.53376 0.0
H1108 H 0.70392 0.32219 0.53605 0.0
H1109 H 0.77219 0.31223 0.5392 0.0
C1110 C 0.8148 0.27307 0.53847 0.0
C1111 C 0.83367 0.25185 0.53675 0.0
C1112 C 0.77547 0.27893 0.53794 0.0
C1113 C 0.81244 0.23656 0.53548 0.0
C1114 C 0.77335 0.24227 0.53557 0.0
C1115 C 0.71528 0.26924 0.53521 0.0
C1116 C 0.69638 0.29047 0.53467 0.0
C1117 C 0.75457 0.2634 0.53647 0.0
C1118 C 0.71755 0.30577 0.5363 0.0
C1119 C 0.75666 0.30007 0.53813 0.0
H1120 H 0.09037 1.00026 0.7985 0.0
H1121 H 0.04992 0.06711 0.79596 0.0
H1122 H 0.98559 0.06312 0.79569 0.0
H1123 H 0.94049 0.04053 0.78927 0.0
H1124 H 0.98106 0.9737 0.79364 0.0
H1125 H 0.04516 0.97776 0.80039 0.0
C1126 C 0.06744 1.01393 0.79832 0.0
C1127 C 0.07514 0.03392 0.79678 0.0
C1128 C 0.03034 1.01153 0.79823 0.0
C1129 C 0.04504 0.05151 0.79739 0.0
C1130 C 1.0081 0.04925 0.79686 0.0
C1131 C 0.96339 0.0269 0.79213 0.0
C1132 C 0.95585 1.00687 0.79064 0.0
C1133 C 1.00039 0.02933 0.7962 0.0
C1134 C 0.98584 0.98932 0.79507 0.0
C1135 C 0.02265 0.99161 0.79859 0.0
H1136 H 0.43741 0.53647 0.78697 0.0
H1137 H 0.47475 0.47023 0.75881 0.0
H1138 H 0.53887 0.47378 0.75285 0.0
H1139 H 0.58472 0.49567 0.75319 0.0
H1140 H 0.54675 0.56225 0.77469 0.0
H1141 H 0.48301 0.55843 0.78547 0.0
C1142 C 0.45939 0.52278 0.77921 0.0
C1143 C 0.45066 0.50312 0.77367 0.0
C1144 C 0.49647 0.52494 0.77454 0.0
C1145 C 0.48007 0.48558 0.76431 0.0
C1146 C 0.51702 0.48759 0.76038 0.0
C1147 C 0.5626 0.5094 0.75985 0.0
C1148 C 0.57108 0.52919 0.76335 0.0
C1149 C 0.52555 0.50721 0.76505 0.0
C1150 C 0.54168 0.54671 0.77271 0.0
C1151 C 0.50492 0.5446 0.77853 0.0
H1152 H 0.43676 0.03872 0.27776 0.0
H1153 H 0.47427 0.97181 0.26438 0.0
H1154 H 0.53886 0.97504 0.26101 0.0
H1155 H 0.58503 0.99682 0.2601 0.0
H1156 H 0.54717 0.06384 0.26862 0.0
H1157 H 0.48278 0.06051 0.27558 0.0
C1158 C 0.45893 0.02482 0.27373 0.0
C1159 C 0.45021 1.00505 0.27151 0.0
C1160 C 0.49624 0.02677 0.27096 0.0
C1161 C 0.47973 0.98724 0.26709 0.0
C1162 C 0.51688 0.98907 0.26472 0.0
C1163 C 0.56278 1.01074 0.26309 0.0
C1164 C 0.57138 0.03055 0.26401 0.0
C1165 C 0.52548 1.00876 0.26636 0.0
C1166 C 0.54185 0.04834 0.26869 0.0
C1167 C 0.50479 0.04647 0.27229 0.0
loop_
_geom_bond_atom_site_label_1
_geom_bond_atom_site_label_2
_geom_bond_distance
_geom_bond_site_symmetry_2
_ccdc_geom_bond_type
C0 C1 1.351 . S
C0 N3 1.368 . S
C0 H5 0.931 . S
C1 C0 1.351 . S
C1 N2 1.373 . S
C1 H29 0.930 . S
N2 C1 1.373 . S
N2 C4 1.340 . S
N3 C0 1.368 . S
N3 C4 1.321 . S
N3 Co6 2.135 1_556 S
C4 N2 1.340 . S
C4 N3 1.321 . S
C4 H28 0.930 . S
H5 C0 0.931 . S
Co6 N3 2.135 1_554 S
Co6 N9 2.121 . S
Co6 O14 2.055 . S
Co6 O17 2.039 . S
Co6 N20 2.140 1_554 S
C7 O8 1.227 1_554 S
C7 O17 1.265 . S
O8 C7 1.227 1_556 S
N9 Co6 2.121 . S
N9 C11 1.375 . S
N9 C12 1.313 . S
C10 C11 1.338 . S
C10 N13 1.377 . S
C10 H30 0.930 . S
C11 N9 1.375 . S
C11 C10 1.338 . S
C11 H15 0.931 . S
C12 N9 1.313 . S
C12 N13 1.344 . S
C12 H16 0.930 . S
N13 C10 1.377 . S
N13 C12 1.344 . S
O14 Co6 2.055 . S
O14 C18 1.253 . S
H15 C11 0.931 . S
H16 C12 0.930 . S
O17 Co6 2.039 . S
O17 C7 1.265 . S
C18 O14 1.253 . S
C18 O19 1.227 . S
O19 C18 1.227 . S
N20 Co6 2.140 1_556 S
N20 C23 1.346 . S
N20 C24 1.345 . S
C21 C22 1.387 . S
C21 C25 1.391 . S
C22 C21 1.387 . S
C22 C23 1.369 . S
C22 H31 0.929 . S
C23 N20 1.346 . S
C23 C22 1.369 . S
C23 H26 0.928 . S
C24 N20 1.345 . S
C24 C25 1.371 . S
C24 H27 0.931 1_556 S
C25 C21 1.391 . S
C25 C24 1.371 . S
C25 H32 0.930 1_455 S
H26 C23 0.928 . S
H27 C24 0.931 1_554 S
H28 C4 0.930 . S
H29 C1 0.930 . S
H30 C10 0.930 . S
H31 C22 0.929 . S
H32 C25 0.930 1_655 S
C33 C34 1.351 . S
C33 N36 1.368 . S
C33 H38 0.931 . S
C34 C33 1.351 . S
C34 N35 1.373 . S
C34 H62 0.930 . S
N35 C34 1.373 . S
N35 C37 1.340 . S
N36 C33 1.368 . S
N36 C37 1.321 . S
N36 Co39 2.135 1_556 S
C37 N35 1.340 . S
C37 N36 1.321 . S
C37 H61 0.930 . S
H38 C33 0.931 . S
Co39 N36 2.135 1_554 S
Co39 N42 2.121 . S
Co39 O47 2.055 . S
Co39 O50 2.039 . S
Co39 N53 2.140 1_554 S
C40 O41 1.227 1_554 S
C40 O50 1.265 . S
O41 C40 1.227 1_556 S
N42 Co39 2.121 . S
N42 C44 1.375 . S
N42 C45 1.313 . S
C43 C44 1.338 . S
C43 N46 1.377 . S
C43 H63 0.930 . S
C44 N42 1.375 . S
C44 C43 1.338 . S
C44 H48 0.931 . S
C45 N42 1.313 . S
C45 N46 1.344 . S
C45 H49 0.930 . S
N46 C43 1.377 . S
N46 C45 1.344 . S
O47 Co39 2.055 . S
O47 C51 1.253 . S
H48 C44 0.931 . S
H49 C45 0.930 . S
O50 Co39 2.039 . S
O50 C40 1.265 . S
C51 O47 1.253 . S
C51 O52 1.227 . S
O52 C51 1.227 . S
N53 Co39 2.140 1_556 S
N53 C56 1.346 . S
N53 C57 1.345 . S
C54 C55 1.387 . S
C54 C58 1.391 . S
C55 C54 1.387 . S
C55 C56 1.369 . S
C55 H64 0.929 . S
C56 N53 1.346 . S
C56 C55 1.369 . S
C56 H59 0.928 . S
C57 N53 1.345 . S
C57 C58 1.371 . S
C57 H60 0.931 1_556 S
C58 C54 1.391 . S
C58 C57 1.371 . S
C58 H65 0.930 1_655 S
H59 C56 0.928 . S
H60 C57 0.931 1_554 S
H61 C37 0.930 . S
H62 C34 0.930 . S
H63 C43 0.930 . S
H64 C55 0.929 . S
H65 C58 0.930 1_455 S
C66 C67 1.351 . S
C66 N69 1.368 . S
C66 H71 0.931 . S
C67 C66 1.351 . S
C67 N68 1.373 . S
C67 H95 0.930 . S
N68 C67 1.373 . S
N68 C70 1.340 . S
N69 C66 1.368 . S
N69 C70 1.321 . S
N69 Co72 2.135 . S
C70 N68 1.340 . S
C70 N69 1.321 . S
C70 H94 0.930 . S
H71 C66 0.931 . S
Co72 N69 2.135 . S
Co72 N75 2.121 . S
Co72 O80 2.055 . S
Co72 O83 2.039 . S
Co72 N86 2.140 . S
C73 O74 1.227 . S
C73 O83 1.265 . S
O74 C73 1.227 . S
N75 Co72 2.121 . S
N75 C77 1.375 . S
N75 C78 1.313 . S
C76 C77 1.338 . S
C76 N79 1.377 . S
C76 H96 0.930 . S
C77 N75 1.375 . S
C77 C76 1.338 . S
C77 H81 0.931 . S
C78 N75 1.313 . S
C78 N79 1.344 . S
C78 H82 0.930 . S
N79 C76 1.377 . S
N79 C78 1.344 . S
O80 Co72 2.055 . S
O80 C84 1.253 . S
H81 C77 0.931 . S
H82 C78 0.930 . S
O83 Co72 2.039 . S
O83 C73 1.265 . S
C84 O80 1.253 . S
C84 O85 1.227 . S
O85 C84 1.227 . S
N86 Co72 2.140 . S
N86 C89 1.346 . S
N86 C90 1.345 . S
C87 C88 1.387 . S
C87 C91 1.391 . S
C88 C87 1.387 . S
C88 C89 1.369 . S
C88 H97 0.929 . S
C89 N86 1.346 . S
C89 C88 1.369 . S
C89 H92 0.928 . S
C90 N86 1.345 . S
C90 C91 1.371 . S
C90 H93 0.931 . S
C91 C87 1.391 . S
C91 C90 1.371 . S
C91 H98 0.930 . S
H92 C89 0.928 . S
H93 C90 0.931 . S
H94 C70 0.930 . S
H95 C67 0.930 . S
H96 C76 0.930 . S
H97 C88 0.929 . S
H98 C91 0.930 . S
C99 C100 1.351 . S
C99 N102 1.368 . S
C99 H104 0.931 . S
C100 C99 1.351 . S
C100 N101 1.373 . S
C100 H128 0.930 . S
N101 C100 1.373 . S
N101 C103 1.340 . S
N102 C99 1.368 . S
N102 C103 1.321 . S
N102 Co105 2.135 . S
C103 N101 1.340 . S
C103 N102 1.321 . S
C103 H127 0.930 . S
H104 C99 0.931 . S
Co105 N102 2.135 . S
Co105 N108 2.121 . S
Co105 O113 2.055 . S
Co105 O116 2.039 . S
Co105 N119 2.140 . S
C106 O107 1.227 . S
C106 O116 1.265 . S
O107 C106 1.227 . S
N108 Co105 2.121 . S
N108 C110 1.375 . S
N108 C111 1.313 . S
C109 C110 1.338 . S
C109 N112 1.377 . S
C109 H129 0.930 . S
C110 N108 1.375 . S
C110 C109 1.338 . S
C110 H114 0.931 . S
C111 N108 1.313 . S
C111 N112 1.344 . S
C111 H115 0.930 . S
N112 C109 1.377 . S
N112 C111 1.344 . S
O113 Co105 2.055 . S
O113 C117 1.253 . S
H114 C110 0.931 . S
H115 C111 0.930 . S
O116 Co105 2.039 . S
O116 C106 1.265 . S
C117 O113 1.253 . S
C117 O118 1.227 . S
O118 C117 1.227 . S
N119 Co105 2.140 . S
N119 C122 1.346 . S
N119 C123 1.345 . S
C120 C121 1.387 . S
C120 C124 1.391 . S
C121 C120 1.387 . S
C121 C122 1.369 . S
C121 H130 0.929 . S
C122 N119 1.346 . S
C122 C121 1.369 . S
C122 H125 0.928 . S
C123 N119 1.345 . S
C123 C124 1.371 . S
C123 H126 0.931 . S
C124 C120 1.391 . S
C124 C123 1.371 . S
C124 H131 0.930 . S
H125 C122 0.928 . S
H126 C123 0.931 . S
H127 C103 0.930 . S
H128 C100 0.930 . S
H129 C109 0.930 . S
H130 C121 0.929 . S
H131 C124 0.930 . S
C132 C133 1.351 . S
C132 N135 1.368 . S
C132 H137 0.931 . S
C133 C132 1.351 . S
C133 N134 1.373 . S
C133 H161 0.930 . S
N134 C133 1.373 . S
N134 C136 1.340 . S
N135 C132 1.368 . S
N135 C136 1.321 . S
N135 Co138 2.135 . S
C136 N134 1.340 . S
C136 N135 1.321 . S
C136 H160 0.930 . S
H137 C132 0.931 . S
Co138 N135 2.135 . S
Co138 N141 2.121 . S
Co138 O146 2.055 . S
Co138 O149 2.039 . S
Co138 N152 2.140 . S
C139 O140 1.227 . S
C139 O149 1.265 . S
O140 C139 1.227 . S
N141 Co138 2.121 . S
N141 C143 1.375 . S
N141 C144 1.313 . S
C142 C143 1.338 . S
C142 N145 1.377 . S
C142 H162 0.930 . S
C143 N141 1.375 . S
C143 C142 1.338 . S
C143 H147 0.931 . S
C144 N141 1.313 . S
C144 N145 1.344 . S
C144 H148 0.930 . S
N145 C142 1.377 . S
N145 C144 1.344 . S
O146 Co138 2.055 . S
O146 C150 1.253 . S
H147 C143 0.931 . S
H148 C144 0.930 . S
O149 Co138 2.039 . S
O149 C139 1.265 . S
C150 O146 1.253 . S
C150 O151 1.227 . S
O151 C150 1.227 . S
N152 Co138 2.140 . S
N152 C155 1.346 . S
N152 C156 1.345 . S
C153 C154 1.387 . S
C153 C157 1.391 . S
C154 C153 1.387 . S
C154 C155 1.369 . S
C154 H163 0.929 . S
C155 N152 1.346 . S
C155 C154 1.369 . S
C155 H158 0.928 . S
C156 N152 1.345 . S
C156 C157 1.371 . S
C156 H159 0.931 . S
C157 C153 1.391 . S
C157 C156 1.371 . S
C157 H164 0.930 1_455 S
H158 C155 0.928 . S
H159 C156 0.931 . S
H160 C136 0.930 . S
H161 C133 0.930 . S
H162 C142 0.930 . S
H163 C154 0.929 . S
H164 C157 0.930 1_655 S
C165 C166 1.351 . S
C165 N168 1.368 . S
C165 H170 0.931 . S
C166 C165 1.351 . S
C166 N167 1.373 . S
C166 H194 0.930 . S
N167 C166 1.373 . S
N167 C169 1.340 . S
N168 C165 1.368 . S
N168 C169 1.321 . S
N168 Co171 2.135 . S
C169 N167 1.340 . S
C169 N168 1.321 . S
C169 H193 0.930 . S
H170 C165 0.931 . S
Co171 N168 2.135 . S
Co171 N174 2.121 . S
Co171 O179 2.055 . S
Co171 O182 2.039 . S
Co171 N185 2.140 . S
C172 O173 1.227 . S
C172 O182 1.265 . S
O173 C172 1.227 . S
N174 Co171 2.121 . S
N174 C176 1.375 . S
N174 C177 1.313 . S
C175 C176 1.338 . S
C175 N178 1.377 . S
C175 H195 0.930 . S
C176 N174 1.375 . S
C176 C175 1.338 . S
C176 H180 0.931 . S
C177 N174 1.313 . S
C177 N178 1.344 . S
C177 H181 0.930 . S
N178 C175 1.377 . S
N178 C177 1.344 . S
O179 Co171 2.055 . S
O179 C183 1.253 . S
H180 C176 0.931 . S
H181 C177 0.930 . S
O182 Co171 2.039 . S
O182 C172 1.265 . S
C183 O179 1.253 . S
C183 O184 1.227 . S
O184 C183 1.227 . S
N185 Co171 2.140 . S
N185 C188 1.346 . S
N185 C189 1.345 . S
C186 C187 1.387 . S
C186 C190 1.391 . S
C187 C186 1.387 . S
C187 C188 1.369 . S
C187 H196 0.929 . S
C188 N185 1.346 . S
C188 C187 1.369 . S
C188 H191 0.928 . S
C189 N185 1.345 . S
C189 C190 1.371 . S
C189 H192 0.931 . S
C190 C186 1.391 . S
C190 C189 1.371 . S
C190 H197 0.930 1_655 S
H191 C188 0.928 . S
H192 C189 0.931 . S
H193 C169 0.930 . S
H194 C166 0.930 . S
H195 C175 0.930 . S
H196 C187 0.929 . S
H197 C190 0.930 1_455 S
C198 C199 1.351 . S
C198 N201 1.368 . S
C198 H203 0.931 . S
C199 C198 1.351 . S
C199 N200 1.373 . S
C199 H227 0.930 1_545 S
N200 C199 1.373 . S
N200 C202 1.340 . S
N201 C198 1.368 . S
N201 C202 1.321 . S
N201 Co204 2.135 . S
C202 N200 1.340 . S
C202 N201 1.321 . S
C202 H226 0.930 . S
H203 C198 0.931 . S
Co204 N201 2.135 . S
Co204 N207 2.121 . S
Co204 O212 2.055 . S
Co204 O215 2.039 . S
Co204 N218 2.140 . S
C205 O206 1.227 . S
C205 O215 1.265 . S
O206 C205 1.227 . S
N207 Co204 2.121 . S
N207 C209 1.375 . S
N207 C210 1.313 . S
C208 C209 1.338 . S
C208 N211 1.377 . S
C208 H228 0.930 . S
C209 N207 1.375 . S
C209 C208 1.338 . S
C209 H213 0.931 . S
C210 N207 1.313 . S
C210 N211 1.344 . S
C210 H214 0.930 . S
N211 C208 1.377 . S
N211 C210 1.344 . S
O212 Co204 2.055 . S
O212 C216 1.253 . S
H213 C209 0.931 . S
H214 C210 0.930 . S
O215 Co204 2.039 . S
O215 C205 1.265 . S
C216 O212 1.253 . S
C216 O217 1.227 . S
O217 C216 1.227 . S
N218 Co204 2.140 . S
N218 C221 1.346 . S
N218 C222 1.345 . S
C219 C220 1.387 . S
C219 C223 1.391 . S
C220 C219 1.387 . S
C220 C221 1.369 . S
C220 H229 0.929 . S
C221 N218 1.346 . S
C221 C220 1.369 . S
C221 H224 0.928 . S
C222 N218 1.345 . S
C222 C223 1.371 . S
C222 H225 0.931 . S
C223 C219 1.391 . S
C223 C222 1.371 . S
C223 H230 0.930 . S
H224 C221 0.928 . S
H225 C222 0.931 . S
H226 C202 0.930 . S
H227 C199 0.930 1_565 S
H228 C208 0.930 . S
H229 C220 0.929 . S
H230 C223 0.930 . S
C231 C232 1.351 . S
C231 N234 1.368 . S
C231 H236 0.931 . S
C232 C231 1.351 . S
C232 N233 1.373 . S
C232 H260 0.930 1_565 S
N233 C232 1.373 . S
N233 C235 1.340 . S
N234 C231 1.368 . S
N234 C235 1.321 . S
N234 Co237 2.135 . S
C235 N233 1.340 . S
C235 N234 1.321 . S
C235 H259 0.930 . S
H236 C231 0.931 . S
Co237 N234 2.135 . S
Co237 N240 2.121 . S
Co237 O245 2.055 . S
Co237 O248 2.039 . S
Co237 N251 2.140 . S
C238 O239 1.227 . S
C238 O248 1.265 . S
O239 C238 1.227 . S
N240 Co237 2.121 . S
N240 C242 1.375 . S
N240 C243 1.313 . S
C241 C242 1.338 . S
C241 N244 1.377 . S
C241 H261 0.930 . S
C242 N240 1.375 . S
C242 C241 1.338 . S
C242 H246 0.931 . S
C243 N240 1.313 . S
C243 N244 1.344 . S
C243 H247 0.930 . S
N244 C241 1.377 . S
N244 C243 1.344 . S
O245 Co237 2.055 . S
O245 C249 1.253 . S
H246 C242 0.931 . S
H247 C243 0.930 . S
O248 Co237 2.039 . S
O248 C238 1.265 . S
C249 O245 1.253 . S
C249 O250 1.227 . S
O250 C249 1.227 . S
N251 Co237 2.140 . S
N251 C254 1.346 . S
N251 C255 1.345 . S
C252 C253 1.387 . S
C252 C256 1.391 . S
C253 C252 1.387 . S
C253 C254 1.369 . S
C253 H262 0.929 . S
C254 N251 1.346 . S
C254 C253 1.369 . S
C254 H257 0.928 . S
C255 N251 1.345 . S
C255 C256 1.371 . S
C255 H258 0.931 . S
C256 C252 1.391 . S
C256 C255 1.371 . S
C256 H263 0.930 . S
H257 C254 0.928 . S
H258 C255 0.931 . S
H259 C235 0.930 . S
H260 C232 0.930 1_545 S
H261 C241 0.930 . S
H262 C253 0.929 . S
H263 C256 0.930 . S
C264 C265 1.351 . S
C264 N267 1.368 . S
C264 H269 0.931 . S
C265 C264 1.351 . S
C265 N266 1.373 . S
C265 H293 0.930 . S
N266 C265 1.373 . S
N266 C268 1.340 . S
N267 C264 1.368 . S
N267 C268 1.321 . S
N267 Co270 2.135 . S
C268 N266 1.340 . S
C268 N267 1.321 . S
C268 H292 0.930 . S
H269 C264 0.931 . S
Co270 N267 2.135 . S
Co270 N273 2.121 . S
Co270 O278 2.055 . S
Co270 O281 2.039 . S
Co270 N284 2.140 . S
C271 O272 1.227 . S
C271 O281 1.265 . S
O272 C271 1.227 . S
N273 Co270 2.121 . S
N273 C275 1.375 . S
N273 C276 1.313 . S
C274 C275 1.338 . S
C274 N277 1.377 . S
C274 H294 0.930 . S
C275 N273 1.375 . S
C275 C274 1.338 . S
C275 H279 0.931 . S
C276 N273 1.313 . S
C276 N277 1.344 . S
C276 H280 0.930 . S
N277 C274 1.377 . S
N277 C276 1.344 . S
O278 Co270 2.055 . S
O278 C282 1.253 . S
H279 C275 0.931 . S
H280 C276 0.930 . S
O281 Co270 2.039 . S
O281 C271 1.265 . S
C282 O278 1.253 . S
C282 O283 1.227 . S
O283 C282 1.227 . S
N284 Co270 2.140 . S
N284 C287 1.346 . S
N284 C288 1.345 . S
C285 C286 1.387 . S
C285 C289 1.391 . S
C286 C285 1.387 . S
C286 C287 1.369 . S
C286 H295 0.929 . S
C287 N284 1.346 . S
C287 C286 1.369 . S
C287 H290 0.928 . S
C288 N284 1.345 . S
C288 C289 1.371 . S
C288 H291 0.931 . S
C289 C285 1.391 . S
C289 C288 1.371 . S
C289 H296 0.930 . S
H290 C287 0.928 . S
H291 C288 0.931 . S
H292 C268 0.930 . S
H293 C265 0.930 . S
H294 C274 0.930 . S
H295 C286 0.929 . S
H296 C289 0.930 . S
C297 C298 1.351 . S
C297 N300 1.368 . S
C297 H302 0.931 . S
C298 C297 1.351 . S
C298 N299 1.373 . S
C298 H326 0.930 . S
N299 C298 1.373 . S
N299 C301 1.340 . S
N300 C297 1.368 . S
N300 C301 1.321 . S
N300 Co303 2.135 . S
C301 N299 1.340 . S
C301 N300 1.321 . S
C301 H325 0.930 . S
H302 C297 0.931 . S
Co303 N300 2.135 . S
Co303 N306 2.121 . S
Co303 O311 2.055 . S
Co303 O314 2.039 . S
Co303 N317 2.140 . S
C304 O305 1.227 . S
C304 O314 1.265 . S
O305 C304 1.227 . S
N306 Co303 2.121 . S
N306 C308 1.375 . S
N306 C309 1.313 . S
C307 C308 1.338 . S
C307 N310 1.377 . S
C307 H327 0.930 . S
C308 N306 1.375 . S
C308 C307 1.338 . S
C308 H312 0.931 . S
C309 N306 1.313 . S
C309 N310 1.344 . S
C309 H313 0.930 . S
N310 C307 1.377 . S
N310 C309 1.344 . S
O311 Co303 2.055 . S
O311 C315 1.253 . S
H312 C308 0.931 . S
H313 C309 0.930 . S
O314 Co303 2.039 . S
O314 C304 1.265 . S
C315 O311 1.253 . S
C315 O316 1.227 . S
O316 C315 1.227 . S
N317 Co303 2.140 . S
N317 C320 1.346 . S
N317 C321 1.345 . S
C318 C319 1.387 . S
C318 C322 1.391 . S
C319 C318 1.387 . S
C319 C320 1.369 . S
C319 H328 0.929 . S
C320 N317 1.346 . S
C320 C319 1.369 . S
C320 H323 0.928 . S
C321 N317 1.345 . S
C321 C322 1.371 . S
C321 H324 0.931 . S
C322 C318 1.391 . S
C322 C321 1.371 . S
C322 H329 0.930 . S
H323 C320 0.928 . S
H324 C321 0.931 . S
H325 C301 0.930 . S
H326 C298 0.930 . S
H327 C307 0.930 . S
H328 C319 0.929 . S
H329 C322 0.930 . S
C330 C331 1.351 . S
C330 N333 1.368 . S
C330 H335 0.931 . S
C331 C330 1.351 . S
C331 N332 1.373 . S
C331 H359 0.930 . S
N332 C331 1.373 . S
N332 C334 1.340 . S
N333 C330 1.368 . S
N333 C334 1.321 . S
N333 Co336 2.135 . S
C334 N332 1.340 . S
C334 N333 1.321 . S
C334 H358 0.930 . S
H335 C330 0.931 . S
Co336 N333 2.135 . S
Co336 N339 2.121 . S
Co336 O344 2.055 . S
Co336 O347 2.039 . S
Co336 N350 2.140 . S
C337 O338 1.227 . S
C337 O347 1.265 . S
O338 C337 1.227 . S
N339 Co336 2.121 . S
N339 C341 1.375 . S
N339 C342 1.313 . S
C340 C341 1.338 . S
C340 N343 1.377 . S
C340 H360 0.930 . S
C341 N339 1.375 . S
C341 C340 1.338 . S
C341 H345 0.931 . S
C342 N339 1.313 . S
C342 N343 1.344 . S
C342 H346 0.930 . S
N343 C340 1.377 . S
N343 C342 1.344 . S
O344 Co336 2.055 . S
O344 C348 1.253 . S
H345 C341 0.931 . S
H346 C342 0.930 . S
O347 Co336 2.039 . S
O347 C337 1.265 . S
C348 O344 1.253 . S
C348 O349 1.227 . S
O349 C348 1.227 . S
N350 Co336 2.140 . S
N350 C353 1.346 . S
N350 C354 1.345 . S
C351 C352 1.387 . S
C351 C355 1.391 . S
C352 C351 1.387 . S
C352 C353 1.369 . S
C352 H361 0.929 . S
C353 N350 1.346 . S
C353 C352 1.369 . S
C353 H356 0.928 . S
C354 N350 1.345 . S
C354 C355 1.371 . S
C354 H357 0.931 . S
C355 C351 1.391 . S
C355 C354 1.371 . S
C355 H362 0.930 . S
H356 C353 0.928 . S
H357 C354 0.931 . S
H358 C334 0.930 . S
H359 C331 0.930 . S
H360 C340 0.930 . S
H361 C352 0.929 . S
H362 C355 0.930 . S
C363 C364 1.351 . S
C363 N366 1.368 . S
C363 H368 0.931 . S
C364 C363 1.351 . S
C364 N365 1.373 . S
C364 H392 0.930 . S
N365 C364 1.373 . S
N365 C367 1.340 . S
N366 C363 1.368 . S
N366 C367 1.321 . S
N366 Co369 2.135 . S
C367 N365 1.340 . S
C367 N366 1.321 . S
C367 H391 0.930 . S
H368 C363 0.931 . S
Co369 N366 2.135 . S
Co369 N372 2.121 . S
Co369 O377 2.055 . S
Co369 O380 2.039 . S
Co369 N383 2.140 . S
C370 O371 1.227 . S
C370 O380 1.265 . S
O371 C370 1.227 . S
N372 Co369 2.121 . S
N372 C374 1.375 . S
N372 C375 1.313 . S
C373 C374 1.338 . S
C373 N376 1.377 . S
C373 H393 0.930 . S
C374 N372 1.375 . S
C374 C373 1.338 . S
C374 H378 0.931 . S
C375 N372 1.313 . S
C375 N376 1.344 . S
C375 H379 0.930 . S
N376 C373 1.377 . S
N376 C375 1.344 . S
O377 Co369 2.055 . S
O377 C381 1.253 . S
H378 C374 0.931 . S
H379 C375 0.930 . S
O380 Co369 2.039 . S
O380 C370 1.265 . S
C381 O377 1.253 . S
C381 O382 1.227 . S
O382 C381 1.227 . S
N383 Co369 2.140 . S
N383 C386 1.346 . S
N383 C387 1.345 . S
C384 C385 1.387 . S
C384 C388 1.391 . S
C385 C384 1.387 . S
C385 C386 1.369 . S
C385 H394 0.929 . S
C386 N383 1.346 . S
C386 C385 1.369 . S
C386 H389 0.928 . S
C387 N383 1.345 . S
C387 C388 1.371 . S
C387 H390 0.931 . S
C388 C384 1.391 . S
C388 C387 1.371 . S
C388 H395 0.930 . S
H389 C386 0.928 . S
H390 C387 0.931 . S
H391 C367 0.930 . S
H392 C364 0.930 . S
H393 C373 0.930 . S
H394 C385 0.929 . S
H395 C388 0.930 . S
C396 C397 1.351 . S
C396 N399 1.368 . S
C396 H401 0.931 . S
C397 C396 1.351 . S
C397 N398 1.373 . S
C397 H425 0.930 . S
N398 C397 1.373 . S
N398 C400 1.340 . S
N399 C396 1.368 . S
N399 C400 1.321 . S
N399 Co402 2.135 1_556 S
C400 N398 1.340 . S
C400 N399 1.321 . S
C400 H424 0.930 . S
H401 C396 0.931 . S
Co402 N399 2.135 1_554 S
Co402 N405 2.121 . S
Co402 O410 2.055 . S
Co402 O413 2.039 . S
Co402 N416 2.140 1_554 S
C403 O404 1.227 1_554 S
C403 O413 1.265 . S
O404 C403 1.227 1_556 S
N405 Co402 2.121 . S
N405 C407 1.375 . S
N405 C408 1.313 . S
C406 C407 1.338 . S
C406 N409 1.377 . S
C406 H426 0.930 . S
C407 N405 1.375 . S
C407 C406 1.338 . S
C407 H411 0.931 . S
C408 N405 1.313 . S
C408 N409 1.344 . S
C408 H412 0.930 . S
N409 C406 1.377 . S
N409 C408 1.344 . S
O410 Co402 2.055 . S
O410 C414 1.253 . S
H411 C407 0.931 . S
H412 C408 0.930 . S
O413 Co402 2.039 . S
O413 C403 1.265 . S
C414 O410 1.253 . S
C414 O415 1.227 . S
O415 C414 1.227 . S
N416 Co402 2.140 1_556 S
N416 C419 1.346 . S
N416 C420 1.345 . S
C417 C418 1.387 . S
C417 C421 1.391 . S
C418 C417 1.387 . S
C418 C419 1.369 . S
C418 H427 0.929 . S
C419 N416 1.346 . S
C419 C418 1.369 . S
C419 H422 0.928 . S
C420 N416 1.345 . S
C420 C421 1.371 . S
C420 H423 0.931 1_556 S
C421 C417 1.391 . S
C421 C420 1.371 . S
C421 H428 0.930 . S
H422 C419 0.928 . S
H423 C420 0.931 1_554 S
H424 C400 0.930 . S
H425 C397 0.930 . S
H426 C406 0.930 . S
H427 C418 0.929 . S
H428 C421 0.930 . S
C429 C430 1.351 . S
C429 N432 1.368 . S
C429 H434 0.931 . S
C430 C429 1.351 . S
C430 N431 1.373 . S
C430 H458 0.930 . S
N431 C430 1.373 . S
N431 C433 1.340 . S
N432 C429 1.368 . S
N432 C433 1.321 . S
N432 Co435 2.135 1_556 S
C433 N431 1.340 . S
C433 N432 1.321 . S
C433 H457 0.930 . S
H434 C429 0.931 . S
Co435 N432 2.135 1_554 S
Co435 N438 2.121 . S
Co435 O443 2.055 . S
Co435 O446 2.039 . S
Co435 N449 2.140 1_554 S
C436 O437 1.227 1_554 S
C436 O446 1.265 . S
O437 C436 1.227 1_556 S
N438 Co435 2.121 . S
N438 C440 1.375 . S
N438 C441 1.313 . S
C439 C440 1.338 . S
C439 N442 1.377 . S
C439 H459 0.930 . S
C440 N438 1.375 . S
C440 C439 1.338 . S
C440 H444 0.931 . S
C441 N438 1.313 . S
C441 N442 1.344 . S
C441 H445 0.930 . S
N442 C439 1.377 . S
N442 C441 1.344 . S
O443 Co435 2.055 . S
O443 C447 1.253 . S
H444 C440 0.931 . S
H445 C441 0.930 . S
O446 Co435 2.039 . S
O446 C436 1.265 . S
C447 O443 1.253 . S
C447 O448 1.227 . S
O448 C447 1.227 . S
N449 Co435 2.140 1_556 S
N449 C452 1.346 . S
N449 C453 1.345 . S
C450 C451 1.387 . S
C450 C454 1.391 . S
C451 C450 1.387 . S
C451 C452 1.369 . S
C451 H460 0.929 . S
C452 N449 1.346 . S
C452 C451 1.369 . S
C452 H455 0.928 . S
C453 N449 1.345 . S
C453 C454 1.371 . S
C453 H456 0.931 1_556 S
C454 C450 1.391 . S
C454 C453 1.371 . S
C454 H461 0.930 . S
H455 C452 0.928 . S
H456 C453 0.931 1_554 S
H457 C433 0.930 . S
H458 C430 0.930 . S
H459 C439 0.930 . S
H460 C451 0.929 . S
H461 C454 0.930 . S
C462 C463 1.351 . S
C462 N465 1.368 . S
C462 H467 0.931 . S
C463 C462 1.351 . S
C463 N464 1.373 . S
C463 H491 0.930 1_545 S
N464 C463 1.373 . S
N464 C466 1.340 . S
N465 C462 1.368 . S
N465 C466 1.321 . S
N465 Co468 2.135 . S
C466 N464 1.340 . S
C466 N465 1.321 . S
C466 H490 0.930 . S
H467 C462 0.931 . S
Co468 N465 2.135 . S
Co468 N471 2.121 . S
Co468 O476 2.055 . S
Co468 O479 2.039 . S
Co468 N482 2.140 . S
C469 O470 1.227 . S
C469 O479 1.265 . S
O470 C469 1.227 . S
N471 Co468 2.121 . S
N471 C473 1.375 . S
N471 C474 1.313 . S
C472 C473 1.338 . S
C472 N475 1.377 . S
C472 H492 0.930 . S
C473 N471 1.375 . S
C473 C472 1.338 . S
C473 H477 0.931 . S
C474 N471 1.313 . S
C474 N475 1.344 . S
C474 H478 0.930 . S
N475 C472 1.377 . S
N475 C474 1.344 . S
O476 Co468 2.055 . S
O476 C480 1.253 . S
H477 C473 0.931 . S
H478 C474 0.930 . S
O479 Co468 2.039 . S
O479 C469 1.265 . S
C480 O476 1.253 . S
C480 O481 1.227 . S
O481 C480 1.227 . S
N482 Co468 2.140 . S
N482 C485 1.346 . S
N482 C486 1.345 . S
C483 C484 1.387 . S
C483 C487 1.391 . S
C484 C483 1.387 . S
C484 C485 1.369 . S
C484 H493 0.929 . S
C485 N482 1.346 . S
C485 C484 1.369 . S
C485 H488 0.928 . S
C486 N482 1.345 . S
C486 C487 1.371 . S
C486 H489 0.931 . S
C487 C483 1.391 . S
C487 C486 1.371 . S
C487 H494 0.930 . S
H488 C485 0.928 . S
H489 C486 0.931 . S
H490 C466 0.930 . S
H491 C463 0.930 1_565 S
H492 C472 0.930 . S
H493 C484 0.929 . S
H494 C487 0.930 . S
C495 C496 1.351 . S
C495 N498 1.368 . S
C495 H500 0.931 . S
C496 C495 1.351 . S
C496 N497 1.373 . S
C496 H524 0.930 1_565 S
N497 C496 1.373 . S
N497 C499 1.340 . S
N498 C495 1.368 . S
N498 C499 1.321 . S
N498 Co501 2.135 . S
C499 N497 1.340 . S
C499 N498 1.321 . S
C499 H523 0.930 . S
H500 C495 0.931 . S
Co501 N498 2.135 . S
Co501 N504 2.121 . S
Co501 O509 2.055 . S
Co501 O512 2.039 . S
Co501 N515 2.140 . S
C502 O503 1.227 . S
C502 O512 1.265 . S
O503 C502 1.227 . S
N504 Co501 2.121 . S
N504 C506 1.375 . S
N504 C507 1.313 . S
C505 C506 1.338 . S
C505 N508 1.377 . S
C505 H525 0.930 . S
C506 N504 1.375 . S
C506 C505 1.338 . S
C506 H510 0.931 . S
C507 N504 1.313 . S
C507 N508 1.344 . S
C507 H511 0.930 . S
N508 C505 1.377 . S
N508 C507 1.344 . S
O509 Co501 2.055 . S
O509 C513 1.253 . S
H510 C506 0.931 . S
H511 C507 0.930 . S
O512 Co501 2.039 . S
O512 C502 1.265 . S
C513 O509 1.253 . S
C513 O514 1.227 . S
O514 C513 1.227 . S
N515 Co501 2.140 . S
N515 C518 1.346 . S
N515 C519 1.345 . S
C516 C517 1.387 . S
C516 C520 1.391 . S
C517 C516 1.387 . S
C517 C518 1.369 . S
C517 H526 0.929 . S
C518 N515 1.346 . S
C518 C517 1.369 . S
C518 H521 0.928 . S
C519 N515 1.345 . S
C519 C520 1.371 . S
C519 H522 0.931 . S
C520 C516 1.391 . S
C520 C519 1.371 . S
C520 H527 0.930 . S
H521 C518 0.928 . S
H522 C519 0.931 . S
H523 C499 0.930 . S
H524 C496 0.930 1_545 S
H525 C505 0.930 . S
H526 C517 0.929 . S
H527 C520 0.930 . S
H528 C534 0.930 . S
H529 C537 0.930 . S
H530 C538 0.930 . S
H531 C539 0.930 . S
H532 C542 0.930 . S
H533 C543 0.930 . S
C534 H528 0.930 . S
C534 C535 1.355 . S
C534 C536 1.415 . S
C535 C534 1.355 . S
C535 C537 1.419 . S
C536 C534 1.415 . S
C536 C541 1.425 . S
C536 C543 1.409 . S
C537 H529 0.930 . S
C537 C535 1.419 . S
C537 C538 1.362 . S
C538 H530 0.930 . S
C538 C537 1.362 . S
C538 C541 1.409 . S
C539 H531 0.930 . S
C539 C540 1.355 . S
C539 C541 1.415 . S
C540 C539 1.355 . S
C540 C542 1.419 . S
C541 C536 1.425 . S
C541 C538 1.409 . S
C541 C539 1.415 . S
C542 H532 0.930 . S
C542 C540 1.419 . S
C542 C543 1.362 . S
C543 H533 0.930 . S
C543 C536 1.409 . S
C543 C542 1.362 . S
H544 C550 0.930 . S
H545 C553 0.930 . S
H546 C554 0.930 . S
H547 C555 0.930 . S
H548 C558 0.930 . S
H549 C559 0.930 . S
C550 H544 0.930 . S
C550 C551 1.355 . S
C550 C552 1.415 . S
C551 C550 1.355 . S
C551 C553 1.419 . S
C552 C550 1.415 . S
C552 C557 1.425 . S
C552 C559 1.409 . S
C553 H545 0.930 . S
C553 C551 1.419 . S
C553 C554 1.362 . S
C554 H546 0.930 . S
C554 C553 1.362 . S
C554 C557 1.409 . S
C555 H547 0.930 . S
C555 C556 1.355 . S
C555 C557 1.415 . S
C556 C555 1.355 . S
C556 C558 1.419 . S
C557 C552 1.425 . S
C557 C554 1.409 . S
C557 C555 1.415 . S
C558 H548 0.930 . S
C558 C556 1.419 . S
C558 C559 1.362 . S
C559 H549 0.930 . S
C559 C552 1.409 . S
C559 C558 1.362 . S
H560 C566 0.930 . S
H561 C569 0.930 . S
H562 C570 0.930 . S
H563 C571 0.930 . S
H564 C574 0.930 . S
H565 C575 0.930 1_655 S
C566 H560 0.930 . S
C566 C567 1.355 . S
C566 C568 1.415 1_655 S
C567 C566 1.355 . S
C567 C569 1.419 1_655 S
C568 C566 1.415 1_455 S
C568 C573 1.425 . S
C568 C575 1.409 . S
C569 H561 0.930 . S
C569 C567 1.419 1_455 S
C569 C570 1.362 . S
C570 H562 0.930 . S
C570 C569 1.362 . S
C570 C573 1.409 . S
C571 H563 0.930 . S
C571 C572 1.355 . S
C571 C573 1.415 . S
C572 C571 1.355 . S
C572 C574 1.419 . S
C573 C568 1.425 . S
C573 C570 1.409 . S
C573 C571 1.415 . S
C574 H564 0.930 . S
C574 C572 1.419 . S
C574 C575 1.362 . S
C575 H565 0.930 1_455 S
C575 C568 1.409 . S
C575 C574 1.362 . S
H576 C582 0.930 . S
H577 C585 0.930 . S
H578 C586 0.930 . S
H579 C587 0.930 . S
H580 C590 0.930 . S
H581 C591 0.930 . S
C582 H576 0.930 . S
C582 C583 1.355 1_655 S
C582 C584 1.415 . S
C583 C582 1.355 1_455 S
C583 C585 1.419 . S
C584 C582 1.415 . S
C584 C589 1.425 . S
C584 C591 1.409 . S
C585 H577 0.930 . S
C585 C583 1.419 . S
C585 C586 1.362 . S
C586 H578 0.930 . S
C586 C585 1.362 . S
C586 C589 1.409 1_455 S
C587 H579 0.930 . S
C587 C588 1.355 . S
C587 C589 1.415 . S
C588 C587 1.355 . S
C588 C590 1.419 . S
C589 C584 1.425 . S
C589 C586 1.409 1_655 S
C589 C587 1.415 . S
C590 H580 0.930 . S
C590 C588 1.419 . S
C590 C591 1.362 . S
C591 H581 0.930 . S
C591 C584 1.409 . S
C591 C590 1.362 . S
H592 C598 0.930 . S
H593 C601 0.930 . S
H594 C602 0.930 . S
H595 C603 0.930 . S
H596 C606 0.930 . S
H597 C607 0.930 . S
C598 H592 0.930 . S
C598 C599 1.355 . S
C598 C600 1.415 . S
C599 C598 1.355 . S
C599 C601 1.419 . S
C600 C598 1.415 . S
C600 C605 1.425 . S
C600 C607 1.409 . S
C601 H593 0.930 . S
C601 C599 1.419 . S
C601 C602 1.362 . S
C602 H594 0.930 . S
C602 C601 1.362 . S
C602 C605 1.409 . S
C603 H595 0.930 . S
C603 C604 1.355 . S
C603 C605 1.415 . S
C604 C603 1.355 . S
C604 C606 1.419 . S
C605 C600 1.425 . S
C605 C602 1.409 . S
C605 C603 1.415 . S
C606 H596 0.930 . S
C606 C604 1.419 . S
C606 C607 1.362 . S
C607 H597 0.930 . S
C607 C600 1.409 . S
C607 C606 1.362 . S
H608 C614 0.930 . S
H609 C617 0.930 . S
H610 C618 0.930 . S
H611 C619 0.930 . S
H612 C622 0.930 . S
H613 C623 0.930 . S
C614 H608 0.930 . S
C614 C615 1.355 . S
C614 C616 1.415 . S
C615 C614 1.355 . S
C615 C617 1.419 . S
C616 C614 1.415 . S
C616 C621 1.425 . S
C616 C623 1.409 . S
C617 H609 0.930 . S
C617 C615 1.419 . S
C617 C618 1.362 . S
C618 H610 0.930 . S
C618 C617 1.362 . S
C618 C621 1.409 . S
C619 H611 0.930 . S
C619 C620 1.355 . S
C619 C621 1.415 . S
C620 C619 1.355 . S
C620 C622 1.419 . S
C621 C616 1.425 . S
C621 C618 1.409 . S
C621 C619 1.415 . S
C622 H612 0.930 . S
C622 C620 1.419 . S
C622 C623 1.362 . S
C623 H613 0.930 . S
C623 C616 1.409 . S
C623 C622 1.362 . S
H624 C630 0.930 . S
H625 C633 0.930 . S
H626 C634 0.931 . S
H627 C635 0.930 . S
H628 C638 0.930 . S
H629 C639 0.930 . S
C630 H624 0.930 . S
C630 C631 1.355 1_455 S
C630 C632 1.415 . S
C631 C630 1.355 1_655 S
C631 C633 1.419 . S
C632 C630 1.415 . S
C632 C637 1.425 . S
C632 C639 1.409 . S
C633 H625 0.930 . S
C633 C631 1.419 . S
C633 C634 1.364 . S
C634 H626 0.931 . S
C634 C633 1.364 . S
C634 C637 1.406 1_655 S
C635 H627 0.930 . S
C635 C636 1.355 . S
C635 C637 1.415 . S
C636 C635 1.355 . S
C636 C638 1.419 . S
C637 C632 1.425 . S
C637 C634 1.406 1_455 S
C637 C635 1.415 . S
C638 H628 0.930 . S
C638 C636 1.419 . S
C638 C639 1.362 . S
C639 H629 0.930 . S
C639 C632 1.409 . S
C639 C638 1.362 . S
H640 C646 0.930 . S
H641 C649 0.930 . S
H642 C650 0.930 . S
H643 C651 0.930 . S
H644 C654 0.930 . S
H645 C655 0.930 . S
C646 H640 0.930 . S
C646 C647 1.355 . S
C646 C648 1.415 . S
C647 C646 1.355 . S
C647 C649 1.419 . S
C648 C646 1.415 . S
C648 C653 1.425 . S
C648 C655 1.409 1_655 S
C649 H641 0.930 . S
C649 C647 1.419 . S
C649 C650 1.362 . S
C650 H642 0.930 . S
C650 C649 1.362 . S
C650 C653 1.409 . S
C651 H643 0.930 . S
C651 C652 1.355 1_655 S
C651 C653 1.415 . S
C652 C651 1.355 1_455 S
C652 C654 1.419 . S
C653 C648 1.425 . S
C653 C650 1.409 . S
C653 C651 1.415 . S
C654 H644 0.930 . S
C654 C652 1.419 . S
C654 C655 1.362 . S
C655 H645 0.930 . S
C655 C648 1.409 1_455 S
C655 C654 1.362 . S
H656 C662 0.930 . S
H657 C665 0.930 . S
H658 C666 0.930 . S
H659 C667 0.930 . S
H660 C670 0.930 . S
H661 C671 0.930 . S
C662 H656 0.930 . S
C662 C663 1.355 . S
C662 C664 1.415 . S
C663 C662 1.355 . S
C663 C665 1.419 . S
C664 C662 1.415 . S
C664 C669 1.425 . S
C664 C671 1.409 . S
C665 H657 0.930 . S
C665 C663 1.419 . S
C665 C666 1.362 . S
C666 H658 0.930 . S
C666 C665 1.362 . S
C666 C669 1.409 . S
C667 H659 0.930 . S
C667 C668 1.355 . S
C667 C669 1.415 . S
C668 C667 1.355 . S
C668 C670 1.419 . S
C669 C664 1.425 . S
C669 C666 1.409 . S
C669 C667 1.415 . S
C670 H660 0.930 . S
C670 C668 1.419 . S
C670 C671 1.362 . S
C671 H661 0.930 . S
C671 C664 1.409 . S
C671 C670 1.362 . S
H672 C678 0.930 . S
H673 C681 0.930 . S
H674 C682 0.930 . S
H675 C683 0.930 . S
H676 C686 0.930 . S
H677 C687 0.930 . S
C678 H672 0.930 . S
C678 C679 1.355 . S
C678 C680 1.415 . S
C679 C678 1.355 . S
C679 C681 1.419 . S
C680 C678 1.415 . S
C680 C685 1.425 . S
C680 C687 1.409 . S
C681 H673 0.930 . S
C681 C679 1.419 . S
C681 C682 1.362 . S
C682 H674 0.930 . S
C682 C681 1.362 . S
C682 C685 1.409 . S
C683 H675 0.930 . S
C683 C684 1.355 . S
C683 C685 1.415 . S
C684 C683 1.355 . S
C684 C686 1.419 . S
C685 C680 1.425 . S
C685 C682 1.409 . S
C685 C683 1.415 . S
C686 H676 0.930 . S
C686 C684 1.419 . S
C686 C687 1.362 . S
C687 H677 0.930 . S
C687 C680 1.409 . S
C687 C686 1.362 . S
H688 C694 0.930 . S
H689 C697 0.930 . S
H690 C698 0.930 . S
H691 C699 0.930 . S
H692 C702 0.930 . S
H693 C703 0.930 . S
C694 H688 0.930 . S
C694 C695 1.355 . S
C694 C696 1.415 . S
C695 C694 1.355 . S
C695 C697 1.419 . S
C696 C694 1.415 . S
C696 C701 1.425 . S
C696 C703 1.409 . S
C697 H689 0.930 . S
C697 C695 1.419 . S
C697 C698 1.362 . S
C698 H690 0.930 . S
C698 C697 1.362 . S
C698 C701 1.409 . S
C699 H691 0.930 . S
C699 C700 1.355 . S
C699 C701 1.415 . S
C700 C699 1.355 . S
C700 C702 1.419 . S
C701 C696 1.425 . S
C701 C698 1.409 . S
C701 C699 1.415 . S
C702 H692 0.930 . S
C702 C700 1.419 . S
C702 C703 1.362 . S
C703 H693 0.930 . S
C703 C696 1.409 . S
C703 C702 1.362 . S
H704 C710 0.930 . S
H705 C713 0.930 . S
H706 C714 0.930 . S
H707 C715 0.930 . S
H708 C718 0.930 . S
H709 C719 0.930 . S
C710 H704 0.930 . S
C710 C711 1.355 . S
C710 C712 1.415 . S
C711 C710 1.355 . S
C711 C713 1.419 . S
C712 C710 1.415 . S
C712 C717 1.425 . S
C712 C719 1.409 . S
C713 H705 0.930 . S
C713 C711 1.419 . S
C713 C714 1.362 . S
C714 H706 0.930 . S
C714 C713 1.362 . S
C714 C717 1.409 . S
C715 H707 0.930 . S
C715 C716 1.355 . S
C715 C717 1.415 . S
C716 C715 1.355 . S
C716 C718 1.419 . S
C717 C712 1.425 . S
C717 C714 1.409 . S
C717 C715 1.415 . S
C718 H708 0.930 . S
C718 C716 1.419 . S
C718 C719 1.362 . S
C719 H709 0.930 . S
C719 C712 1.409 . S
C719 C718 1.362 . S
H720 C726 0.930 . S
H721 C729 0.930 . S
H722 C730 0.930 . S
H723 C731 0.930 . S
H724 C734 0.930 . S
H725 C735 0.930 . S
C726 H720 0.930 . S
C726 C727 1.355 . S
C726 C728 1.415 . S
C727 C726 1.355 . S
C727 C729 1.419 . S
C728 C726 1.415 . S
C728 C733 1.425 . S
C728 C735 1.409 . S
C729 H721 0.930 . S
C729 C727 1.419 . S
C729 C730 1.362 . S
C730 H722 0.930 . S
C730 C729 1.362 . S
C730 C733 1.409 . S
C731 H723 0.930 . S
C731 C732 1.355 . S
C731 C733 1.415 . S
C732 C731 1.355 . S
C732 C734 1.419 . S
C733 C728 1.425 . S
C733 C730 1.409 . S
C733 C731 1.415 . S
C734 H724 0.930 . S
C734 C732 1.419 . S
C734 C735 1.362 . S
C735 H725 0.930 . S
C735 C728 1.409 . S
C735 C734 1.362 . S
H736 C742 0.930 . S
H737 C745 0.930 . S
H738 C746 0.930 . S
H739 C747 0.930 . S
H740 C750 0.930 . S
H741 C751 0.930 . S
C742 H736 0.930 . S
C742 C743 1.355 . S
C742 C744 1.415 . S
C743 C742 1.355 . S
C743 C745 1.419 . S
C744 C742 1.415 . S
C744 C749 1.425 . S
C744 C751 1.409 . S
C745 H737 0.930 . S
C745 C743 1.419 . S
C745 C746 1.362 . S
C746 H738 0.930 . S
C746 C745 1.362 . S
C746 C749 1.409 . S
C747 H739 0.930 . S
C747 C748 1.355 . S
C747 C749 1.415 . S
C748 C747 1.355 . S
C748 C750 1.419 . S
C749 C744 1.425 . S
C749 C746 1.409 . S
C749 C747 1.415 . S
C750 H740 0.930 . S
C750 C748 1.419 . S
C750 C751 1.362 . S
C751 H741 0.930 . S
C751 C744 1.409 . S
C751 C750 1.362 . S
H752 C758 0.930 . S
H753 C761 0.930 . S
H754 C762 0.930 . S
H755 C763 0.930 . S
H756 C766 0.930 . S
H757 C767 0.930 . S
C758 H752 0.930 . S
C758 C759 1.355 . S
C758 C760 1.415 . S
C759 C758 1.355 . S
C759 C761 1.419 . S
C760 C758 1.415 . S
C760 C765 1.425 . S
C760 C767 1.409 . S
C761 H753 0.930 . S
C761 C759 1.419 . S
C761 C762 1.362 . S
C762 H754 0.930 . S
C762 C761 1.362 . S
C762 C765 1.409 . S
C763 H755 0.930 . S
C763 C764 1.355 . S
C763 C765 1.415 . S
C764 C763 1.355 . S
C764 C766 1.419 . S
C765 C760 1.425 . S
C765 C762 1.409 . S
C765 C763 1.415 . S
C766 H756 0.930 . S
C766 C764 1.419 . S
C766 C767 1.362 . S
C767 H757 0.930 . S
C767 C760 1.409 . S
C767 C766 1.362 . S
H768 C774 0.930 . S
H769 C777 0.930 . S
H770 C778 0.930 . S
H771 C779 0.930 . S
H772 C782 0.930 . S
H773 C783 0.930 . S
C774 H768 0.930 . S
C774 C775 1.355 . S
C774 C776 1.415 . S
C775 C774 1.355 . S
C775 C777 1.419 . S
C776 C774 1.415 . S
C776 C781 1.425 . S
C776 C783 1.409 . S
C777 H769 0.930 . S
C777 C775 1.419 . S
C777 C778 1.362 . S
C778 H770 0.930 . S
C778 C777 1.362 . S
C778 C781 1.409 . S
C779 H771 0.930 . S
C779 C780 1.355 . S
C779 C781 1.415 . S
C780 C779 1.355 . S
C780 C782 1.419 . S
C781 C776 1.425 . S
C781 C778 1.409 . S
C781 C779 1.415 . S
C782 H772 0.930 . S
C782 C780 1.419 . S
C782 C783 1.362 . S
C783 H773 0.930 . S
C783 C776 1.409 . S
C783 C782 1.362 . S
H784 C790 0.930 . S
H785 C793 0.930 . S
H786 C794 0.930 . S
H787 C795 0.930 . S
H788 C798 0.930 . S
H789 C799 0.930 . S
C790 H784 0.930 . S
C790 C791 1.355 . S
C790 C792 1.415 . S
C791 C790 1.355 . S
C791 C793 1.419 1_655 S
C792 C790 1.415 . S
C792 C797 1.425 1_655 S
C792 C799 1.409 . S
C793 H785 0.930 . S
C793 C791 1.419 1_455 S
C793 C794 1.362 . S
C794 H786 0.930 . S
C794 C793 1.362 . S
C794 C797 1.409 . S
C795 H787 0.930 . S
C795 C796 1.355 . S
C795 C797 1.415 . S
C796 C795 1.355 . S
C796 C798 1.419 1_455 S
C797 C792 1.425 1_455 S
C797 C794 1.409 . S
C797 C795 1.415 . S
C798 H788 0.930 . S
C798 C796 1.419 1_655 S
C798 C799 1.362 . S
C799 H789 0.930 . S
C799 C792 1.409 . S
C799 C798 1.362 . S
H800 C806 0.930 . S
H801 C809 0.930 . S
H802 C810 0.930 . S
H803 C811 0.930 . S
H804 C814 0.930 . S
H805 C815 0.930 . S
C806 H800 0.930 . S
C806 C807 1.355 1_655 S
C806 C808 1.415 . S
C807 C806 1.355 1_455 S
C807 C809 1.419 . S
C808 C806 1.415 . S
C808 C813 1.425 1_655 S
C808 C815 1.409 . S
C809 H801 0.930 . S
C809 C807 1.419 . S
C809 C810 1.362 . S
C810 H802 0.930 . S
C810 C809 1.362 . S
C810 C813 1.409 . S
C811 H803 0.930 . S
C811 C812 1.355 1_455 S
C811 C813 1.415 . S
C812 C811 1.355 1_655 S
C812 C814 1.419 . S
C813 C808 1.425 1_455 S
C813 C810 1.409 . S
C813 C811 1.415 . S
C814 H804 0.930 . S
C814 C812 1.419 . S
C814 C815 1.362 . S
C815 H805 0.930 . S
C815 C808 1.409 . S
C815 C814 1.362 . S
H816 C822 0.930 . S
H817 C825 0.930 . S
H818 C826 0.930 . S
H819 C827 0.930 . S
H820 C830 0.930 . S
H821 C831 0.930 . S
C822 H816 0.930 . S
C822 C823 1.355 . S
C822 C824 1.415 . S
C823 C822 1.355 . S
C823 C825 1.419 . S
C824 C822 1.415 . S
C824 C829 1.425 . S
C824 C831 1.409 . S
C825 H817 0.930 . S
C825 C823 1.419 . S
C825 C826 1.362 . S
C826 H818 0.930 . S
C826 C825 1.362 . S
C826 C829 1.409 . S
C827 H819 0.930 . S
C827 C828 1.355 . S
C827 C829 1.415 . S
C828 C827 1.355 . S
C828 C830 1.419 . S
C829 C824 1.425 . S
C829 C826 1.409 . S
C829 C827 1.415 . S
C830 H820 0.930 . S
C830 C828 1.419 . S
C830 C831 1.362 . S
C831 H821 0.930 . S
C831 C824 1.409 . S
C831 C830 1.362 . S
H832 C838 0.930 . S
H833 C841 0.930 . S
H834 C842 0.930 . S
H835 C843 0.930 . S
H836 C846 0.930 . S
H837 C847 0.930 . S
C838 H832 0.930 . S
C838 C839 1.355 . S
C838 C840 1.415 . S
C839 C838 1.355 . S
C839 C841 1.419 . S
C840 C838 1.415 . S
C840 C845 1.425 . S
C840 C847 1.409 . S
C841 H833 0.930 . S
C841 C839 1.419 . S
C841 C842 1.362 . S
C842 H834 0.930 . S
C842 C841 1.362 . S
C842 C845 1.409 . S
C843 H835 0.930 . S
C843 C844 1.355 . S
C843 C845 1.415 . S
C844 C843 1.355 . S
C844 C846 1.419 . S
C845 C840 1.425 . S
C845 C842 1.409 . S
C845 C843 1.415 . S
C846 H836 0.930 . S
C846 C844 1.419 . S
C846 C847 1.362 . S
C847 H837 0.930 . S
C847 C840 1.409 . S
C847 C846 1.362 . S
H848 C854 0.930 . S
H849 C857 0.930 . S
H850 C858 0.930 . S
H851 C859 0.930 . S
H852 C862 0.930 . S
H853 C863 0.930 . S
C854 H848 0.930 . S
C854 C855 1.355 . S
C854 C856 1.415 . S
C855 C854 1.355 . S
C855 C857 1.419 . S
C856 C854 1.415 . S
C856 C861 1.417 1_655 S
C856 C863 1.409 1_655 S
C857 H849 0.930 . S
C857 C855 1.419 . S
C857 C858 1.362 . S
C858 H850 0.930 . S
C858 C857 1.362 . S
C858 C861 1.405 1_655 S
C859 H851 0.930 . S
C859 C860 1.355 . S
C859 C861 1.428 . S
C860 C859 1.355 . S
C860 C862 1.419 . S
C861 C856 1.417 1_455 S
C861 C858 1.405 1_455 S
C861 C859 1.428 . S
C862 H852 0.930 . S
C862 C860 1.419 . S
C862 C863 1.362 . S
C863 H853 0.930 . S
C863 C856 1.409 1_455 S
C863 C862 1.362 . S
H864 C870 0.930 . S
H865 C873 0.930 . S
H866 C874 0.930 . S
H867 C875 0.930 . S
H868 C878 0.930 . S
H869 C879 0.930 . S
C870 H864 0.930 . S
C870 C871 1.355 1_655 S
C870 C872 1.415 . S
C871 C870 1.355 1_455 S
C871 C873 1.419 . S
C872 C870 1.415 . S
C872 C877 1.425 1_655 S
C872 C879 1.409 . S
C873 H865 0.930 . S
C873 C871 1.419 . S
C873 C874 1.362 . S
C874 H866 0.930 . S
C874 C873 1.362 . S
C874 C877 1.409 . S
C875 H867 0.930 . S
C875 C876 1.355 1_455 S
C875 C877 1.415 . S
C876 C875 1.355 1_655 S
C876 C878 1.419 . S
C877 C872 1.425 1_455 S
C877 C874 1.409 . S
C877 C875 1.415 . S
C878 H868 0.930 . S
C878 C876 1.419 . S
C878 C879 1.362 . S
C879 H869 0.930 . S
C879 C872 1.409 . S
C879 C878 1.362 . S
H880 C886 0.930 . S
H881 C889 0.930 . S
H882 C890 0.930 1_565 S
H883 C891 0.929 . S
H884 C894 0.930 . S
H885 C895 0.930 . S
C886 H880 0.930 . S
C886 C887 1.355 . S
C886 C888 1.415 . S
C887 C886 1.355 . S
C887 C889 1.419 . S
C888 C886 1.415 . S
C888 C893 1.447 . S
C888 C895 1.409 1_556 S
C889 H881 0.930 . S
C889 C887 1.419 . S
C889 C890 1.362 . S
C890 H882 0.930 1_545 S
C890 C889 1.362 . S
C890 C893 1.416 . S
C891 H883 0.929 . S
C891 C892 1.355 . S
C891 C893 1.389 1_564 S
C892 C891 1.355 . S
C892 C894 1.419 1_565 S
C893 C888 1.447 . S
C893 C890 1.416 . S
C893 C891 1.389 1_546 S
C894 H884 0.930 . S
C894 C892 1.419 1_545 S
C894 C895 1.362 . S
C895 H885 0.930 . S
C895 C888 1.409 1_554 S
C895 C894 1.362 . S
H896 C902 0.930 1_545 S
H897 C905 0.930 . S
H898 C906 0.930 1_554 S
H899 C907 0.930 . S
H900 C910 0.930 . S
H901 C911 0.930 . S
C902 H896 0.930 1_565 S
C902 C903 1.355 . S
C902 C904 1.417 . S
C903 C902 1.355 . S
C903 C905 1.419 . S
C904 C902 1.417 . S
C904 C909 1.432 . S
C904 C911 1.401 1_565 S
C905 H897 0.930 . S
C905 C903 1.419 . S
C905 C906 1.362 . S
C906 H898 0.930 1_556 S
C906 C905 1.362 . S
C906 C909 1.409 . S
C907 H899 0.930 . S
C907 C908 1.355 1_565 S
C907 C909 1.415 1_554 S
C908 C907 1.355 1_545 S
C908 C910 1.419 . S
C909 C904 1.432 . S
C909 C906 1.409 . S
C909 C907 1.415 1_556 S
C910 H900 0.930 . S
C910 C908 1.419 . S
C910 C911 1.362 1_554 S
C911 H901 0.930 . S
C911 C904 1.401 1_545 S
C911 C910 1.362 1_556 S
H912 C918 0.930 . S
H913 C921 0.930 . S
H914 C922 0.930 . S
H915 C923 0.930 . S
H916 C926 0.930 . S
H917 C927 0.930 . S
C918 H912 0.930 . S
C918 C919 1.355 . S
C918 C920 1.415 . S
C919 C918 1.355 . S
C919 C921 1.419 . S
C920 C918 1.415 . S
C920 C925 1.425 . S
C920 C927 1.409 . S
C921 H913 0.930 . S
C921 C919 1.419 . S
C921 C922 1.362 . S
C922 H914 0.930 . S
C922 C921 1.362 . S
C922 C925 1.409 . S
C923 H915 0.930 . S
C923 C924 1.355 . S
C923 C925 1.415 . S
C924 C923 1.355 . S
C924 C926 1.419 . S
C925 C920 1.425 . S
C925 C922 1.409 . S
C925 C923 1.415 . S
C926 H916 0.930 . S
C926 C924 1.419 . S
C926 C927 1.362 . S
C927 H917 0.930 . S
C927 C920 1.409 . S
C927 C926 1.362 . S
H928 C934 0.930 . S
H929 C937 0.930 . S
H930 C938 0.930 . S
H931 C939 0.930 . S
H932 C942 0.930 . S
H933 C943 0.930 . S
C934 H928 0.930 . S
C934 C935 1.355 . S
C934 C936 1.415 . S
C935 C934 1.355 . S
C935 C937 1.419 . S
C936 C934 1.415 . S
C936 C941 1.425 . S
C936 C943 1.409 . S
C937 H929 0.930 . S
C937 C935 1.419 . S
C937 C938 1.362 . S
C938 H930 0.930 . S
C938 C937 1.362 . S
C938 C941 1.409 . S
C939 H931 0.930 . S
C939 C940 1.355 . S
C939 C941 1.415 . S
C940 C939 1.355 . S
C940 C942 1.419 . S
C941 C936 1.425 . S
C941 C938 1.409 . S
C941 C939 1.415 . S
C942 H932 0.930 . S
C942 C940 1.419 . S
C942 C943 1.362 . S
C943 H933 0.930 . S
C943 C936 1.409 . S
C943 C942 1.362 . S
H944 C950 0.930 . S
H945 C953 0.930 . S
H946 C954 0.930 . S
H947 C955 0.930 . S
H948 C958 0.930 . S
H949 C959 0.930 . S
C950 H944 0.930 . S
C950 C951 1.355 . S
C950 C952 1.415 1_554 S
C951 C950 1.355 . S
C951 C953 1.419 . S
C952 C950 1.415 1_556 S
C952 C957 1.425 . S
C952 C959 1.409 . S
C953 H945 0.930 . S
C953 C951 1.419 . S
C953 C954 1.362 1_554 S
C954 H946 0.930 . S
C954 C953 1.362 1_556 S
C954 C957 1.409 . S
C955 H947 0.930 . S
C955 C956 1.355 . S
C955 C957 1.415 . S
C956 C955 1.355 . S
C956 C958 1.419 . S
C957 C952 1.425 . S
C957 C954 1.409 . S
C957 C955 1.415 . S
C958 H948 0.930 . S
C958 C956 1.419 . S
C958 C959 1.362 . S
C959 H949 0.930 . S
C959 C952 1.409 . S
C959 C958 1.362 . S
H960 C966 0.930 . S
H961 C969 0.930 . S
H962 C970 0.930 . S
H963 C971 0.930 . S
H964 C974 0.930 . S
H965 C975 0.930 . S
C966 H960 0.930 . S
C966 C967 1.355 . S
C966 C968 1.415 1_554 S
C967 C966 1.355 . S
C967 C969 1.419 . S
C968 C966 1.415 1_556 S
C968 C973 1.425 . S
C968 C975 1.409 . S
C969 H961 0.930 . S
C969 C967 1.419 . S
C969 C970 1.362 . S
C970 H962 0.930 . S
C970 C969 1.362 . S
C970 C973 1.409 1_554 S
C971 H963 0.930 . S
C971 C972 1.355 . S
C971 C973 1.415 . S
C972 C971 1.355 . S
C972 C974 1.419 . S
C973 C968 1.425 . S
C973 C970 1.409 1_556 S
C973 C971 1.415 . S
C974 H964 0.930 . S
C974 C972 1.419 . S
C974 C975 1.362 . S
C975 H965 0.930 . S
C975 C968 1.409 . S
C975 C974 1.362 . S
H976 C982 0.930 . S
H977 C985 0.930 . S
H978 C986 0.930 . S
H979 C987 0.930 . S
H980 C990 0.930 . S
H981 C991 0.930 . S
C982 H976 0.930 . S
C982 C983 1.355 . S
C982 C984 1.415 . S
C983 C982 1.355 . S
C983 C985 1.419 . S
C984 C982 1.415 . S
C984 C989 1.425 . S
C984 C991 1.409 . S
C985 H977 0.930 . S
C985 C983 1.419 . S
C985 C986 1.362 . S
C986 H978 0.930 . S
C986 C985 1.362 . S
C986 C989 1.409 . S
C987 H979 0.930 . S
C987 C988 1.355 . S
C987 C989 1.415 . S
C988 C987 1.355 . S
C988 C990 1.419 . S
C989 C984 1.425 . S
C989 C986 1.409 . S
C989 C987 1.415 . S
C990 H980 0.930 . S
C990 C988 1.419 . S
C990 C991 1.362 . S
C991 H981 0.930 . S
C991 C984 1.409 . S
C991 C990 1.362 . S
H992 C998 0.930 . S
H993 C1001 0.930 . S
H994 C1002 0.930 . S
H995 C1003 0.930 . S
H996 C1006 0.930 . S
H997 C1007 0.930 . S
C998 H992 0.930 . S
C998 C999 1.355 . S
C998 C1000 1.415 . S
C999 C998 1.355 . S
C999 C1001 1.419 . S
C1000 C998 1.415 . S
C1000 C1005 1.425 . S
C1000 C1007 1.409 . S
C1001 H993 0.930 . S
C1001 C999 1.419 . S
C1001 C1002 1.362 . S
C1002 H994 0.930 . S
C1002 C1001 1.362 . S
C1002 C1005 1.409 . S
C1003 H995 0.930 . S
C1003 C1004 1.355 . S
C1003 C1005 1.415 . S
C1004 C1003 1.355 . S
C1004 C1006 1.419 . S
C1005 C1000 1.425 . S
C1005 C1002 1.409 . S
C1005 C1003 1.415 . S
C1006 H996 0.930 . S
C1006 C1004 1.419 . S
C1006 C1007 1.362 . S
C1007 H997 0.930 . S
C1007 C1000 1.409 . S
C1007 C1006 1.362 . S
H1008 C1014 0.930 . S
H1009 C1017 0.930 . S
H1010 C1018 0.930 . S
H1011 C1019 0.930 . S
H1012 C1022 0.930 . S
H1013 C1023 0.930 . S
C1014 H1008 0.930 . S
C1014 C1015 1.355 1_545 S
C1014 C1016 1.415 . S
C1015 C1014 1.355 1_565 S
C1015 C1017 1.419 . S
C1016 C1014 1.415 . S
C1016 C1021 1.425 . S
C1016 C1023 1.409 . S
C1017 H1009 0.930 . S
C1017 C1015 1.419 . S
C1017 C1018 1.362 . S
C1018 H1010 0.930 . S
C1018 C1017 1.362 . S
C1018 C1021 1.409 1_565 S
C1019 H1011 0.930 . S
C1019 C1020 1.355 . S
C1019 C1021 1.415 . S
C1020 C1019 1.355 . S
C1020 C1022 1.419 . S
C1021 C1016 1.425 . S
C1021 C1018 1.409 1_545 S
C1021 C1019 1.415 . S
C1022 H1012 0.930 . S
C1022 C1020 1.419 . S
C1022 C1023 1.362 . S
C1023 H1013 0.930 . S
C1023 C1016 1.409 . S
C1023 C1022 1.362 . S
H1024 C1030 0.930 . S
H1025 C1033 0.930 . S
H1026 C1034 0.930 . S
H1027 C1035 0.930 . S
H1028 C1038 0.930 . S
H1029 C1039 0.930 . S
C1030 H1024 0.930 . S
C1030 C1031 1.355 . S
C1030 C1032 1.449 . S
C1031 C1030 1.355 . S
C1031 C1033 1.419 1_545 S
C1032 C1030 1.449 . S
C1032 C1037 1.372 1_545 S
C1032 C1039 1.427 . S
C1033 H1025 0.930 . S
C1033 C1031 1.419 1_565 S
C1033 C1034 1.362 . S
C1034 H1026 0.930 . S
C1034 C1033 1.362 . S
C1034 C1037 1.409 . S
C1035 H1027 0.930 . S
C1035 C1036 1.355 . S
C1035 C1037 1.415 . S
C1036 C1035 1.355 . S
C1036 C1038 1.419 . S
C1037 C1032 1.372 1_565 S
C1037 C1034 1.409 . S
C1037 C1035 1.415 . S
C1038 H1028 0.930 . S
C1038 C1036 1.419 . S
C1038 C1039 1.362 1_565 S
C1039 H1029 0.930 . S
C1039 C1032 1.427 . S
C1039 C1038 1.362 1_545 S
H1040 C1046 0.930 . S
H1041 C1049 0.930 . S
H1042 C1050 0.930 1_556 S
H1043 C1051 0.930 . S
H1044 C1054 0.930 . S
H1045 C1055 0.930 . S
C1046 H1040 0.930 . S
C1046 C1047 1.355 . S
C1046 C1048 1.415 . S
C1047 C1046 1.355 . S
C1047 C1049 1.419 . S
C1048 C1046 1.415 . S
C1048 C1053 1.425 . S
C1048 C1055 1.409 . S
C1049 H1041 0.930 . S
C1049 C1047 1.419 . S
C1049 C1050 1.362 . S
C1050 H1042 0.930 1_554 S
C1050 C1049 1.362 . S
C1050 C1053 1.409 . S
C1051 H1043 0.930 . S
C1051 C1052 1.355 . S
C1051 C1053 1.415 . S
C1052 C1051 1.355 . S
C1052 C1054 1.419 . S
C1053 C1048 1.425 . S
C1053 C1050 1.409 . S
C1053 C1051 1.415 . S
C1054 H1044 0.930 . S
C1054 C1052 1.419 . S
C1054 C1055 1.362 . S
C1055 H1045 0.930 . S
C1055 C1048 1.409 . S
C1055 C1054 1.362 . S
H1056 C1062 0.930 . S
H1057 C1065 0.930 . S
H1058 C1066 0.930 . S
H1059 C1067 0.930 . S
H1060 C1070 0.930 . S
H1061 C1071 0.930 . S
C1062 H1056 0.930 . S
C1062 C1063 1.355 . S
C1062 C1064 1.415 . S
C1063 C1062 1.355 . S
C1063 C1065 1.419 . S
C1064 C1062 1.415 . S
C1064 C1069 1.425 . S
C1064 C1071 1.409 . S
C1065 H1057 0.930 . S
C1065 C1063 1.419 . S
C1065 C1066 1.362 . S
C1066 H1058 0.930 . S
C1066 C1065 1.362 . S
C1066 C1069 1.409 . S
C1067 H1059 0.930 . S
C1067 C1068 1.355 . S
C1067 C1069 1.415 . S
C1068 C1067 1.355 . S
C1068 C1070 1.419 . S
C1069 C1064 1.425 . S
C1069 C1066 1.409 . S
C1069 C1067 1.415 . S
C1070 H1060 0.930 . S
C1070 C1068 1.419 . S
C1070 C1071 1.362 . S
C1071 H1061 0.930 . S
C1071 C1064 1.409 . S
C1071 C1070 1.362 . S
H1072 C1078 0.930 . S
H1073 C1081 0.930 . S
H1074 C1082 0.930 . S
H1075 C1083 0.930 . S
H1076 C1086 0.930 . S
H1077 C1087 0.930 . S
C1078 H1072 0.930 . S
C1078 C1079 1.355 . S
C1078 C1080 1.415 . S
C1079 C1078 1.355 . S
C1079 C1081 1.419 . S
C1080 C1078 1.415 . S
C1080 C1085 1.425 1_455 S
C1080 C1087 1.409 . S
C1081 H1073 0.930 . S
C1081 C1079 1.419 . S
C1081 C1082 1.362 1_455 S
C1082 H1074 0.930 . S
C1082 C1081 1.362 1_655 S
C1082 C1085 1.409 . S
C1083 H1075 0.930 . S
C1083 C1084 1.355 . S
C1083 C1085 1.415 . S
C1084 C1083 1.355 . S
C1084 C1086 1.419 . S
C1085 C1080 1.425 1_655 S
C1085 C1082 1.409 . S
C1085 C1083 1.415 . S
C1086 H1076 0.930 . S
C1086 C1084 1.419 . S
C1086 C1087 1.362 1_655 S
C1087 H1077 0.930 . S
C1087 C1080 1.409 . S
C1087 C1086 1.362 1_455 S
H1088 C1094 0.930 . S
H1089 C1097 0.930 . S
H1090 C1098 0.930 . S
H1091 C1099 0.930 . S
H1092 C1102 0.930 . S
H1093 C1103 0.930 . S
C1094 H1088 0.930 . S
C1094 C1095 1.355 . S
C1094 C1096 1.415 . S
C1095 C1094 1.355 . S
C1095 C1097 1.419 . S
C1096 C1094 1.415 . S
C1096 C1101 1.425 . S
C1096 C1103 1.409 . S
C1097 H1089 0.930 . S
C1097 C1095 1.419 . S
C1097 C1098 1.362 . S
C1098 H1090 0.930 . S
C1098 C1097 1.362 . S
C1098 C1101 1.409 . S
C1099 H1091 0.930 . S
C1099 C1100 1.355 . S
C1099 C1101 1.415 . S
C1100 C1099 1.355 . S
C1100 C1102 1.419 . S
C1101 C1096 1.425 . S
C1101 C1098 1.409 . S
C1101 C1099 1.415 . S
C1102 H1092 0.930 . S
C1102 C1100 1.419 . S
C1102 C1103 1.362 . S
C1103 H1093 0.930 . S
C1103 C1096 1.409 . S
C1103 C1102 1.362 . S
H1104 C1110 0.930 . S
H1105 C1113 0.930 . S
H1106 C1114 0.930 . S
H1107 C1115 0.930 . S
H1108 C1118 0.930 . S
H1109 C1119 0.930 . S
C1110 H1104 0.930 . S
C1110 C1111 1.355 . S
C1110 C1112 1.415 . S
C1111 C1110 1.355 . S
C1111 C1113 1.419 . S
C1112 C1110 1.415 . S
C1112 C1117 1.425 . S
C1112 C1119 1.409 . S
C1113 H1105 0.930 . S
C1113 C1111 1.419 . S
C1113 C1114 1.362 . S
C1114 H1106 0.930 . S
C1114 C1113 1.362 . S
C1114 C1117 1.409 . S
C1115 H1107 0.930 . S
C1115 C1116 1.355 . S
C1115 C1117 1.415 . S
C1116 C1115 1.355 . S
C1116 C1118 1.419 . S
C1117 C1112 1.425 . S
C1117 C1114 1.409 . S
C1117 C1115 1.415 . S
C1118 H1108 0.930 . S
C1118 C1116 1.419 . S
C1118 C1119 1.362 . S
C1119 H1109 0.930 . S
C1119 C1112 1.409 . S
C1119 C1118 1.362 . S
H1120 C1126 0.930 . S
H1121 C1129 0.930 . S
H1122 C1130 0.930 . S
H1123 C1131 0.930 . S
H1124 C1134 0.930 . S
H1125 C1135 0.930 . S
C1126 H1120 0.930 . S
C1126 C1127 1.355 . S
C1126 C1128 1.415 . S
C1127 C1126 1.355 . S
C1127 C1129 1.419 . S
C1128 C1126 1.415 . S
C1128 C1133 1.425 1_445 S
C1128 C1135 1.409 1_455 S
C1129 H1121 0.930 . S
C1129 C1127 1.419 . S
C1129 C1130 1.362 1_545 S
C1130 H1122 0.930 . S
C1130 C1129 1.362 1_565 S
C1130 C1133 1.409 1_455 S
C1131 H1123 0.930 . S
C1131 C1132 1.355 . S
C1131 C1133 1.415 . S
C1132 C1131 1.355 . S
C1132 C1134 1.419 . S
C1133 C1128 1.425 1_665 S
C1133 C1130 1.409 1_655 S
C1133 C1131 1.415 . S
C1134 H1124 0.930 . S
C1134 C1132 1.419 . S
C1134 C1135 1.362 1_565 S
C1135 H1125 0.930 . S
C1135 C1128 1.409 1_655 S
C1135 C1134 1.362 1_545 S
H1136 C1142 0.930 . S
H1137 C1145 0.930 . S
H1138 C1146 0.930 . S
H1139 C1147 0.930 . S
H1140 C1150 0.930 . S
H1141 C1151 0.930 . S
C1142 H1136 0.930 . S
C1142 C1143 1.355 . S
C1142 C1144 1.415 . S
C1143 C1142 1.355 . S
C1143 C1145 1.419 . S
C1144 C1142 1.415 . S
C1144 C1149 1.425 . S
C1144 C1151 1.409 . S
C1145 H1137 0.930 . S
C1145 C1143 1.419 . S
C1145 C1146 1.362 . S
C1146 H1138 0.930 . S
C1146 C1145 1.362 . S
C1146 C1149 1.409 . S
C1147 H1139 0.930 . S
C1147 C1148 1.355 . S
C1147 C1149 1.415 . S
C1148 C1147 1.355 . S
C1148 C1150 1.419 . S
C1149 C1144 1.425 . S
C1149 C1146 1.409 . S
C1149 C1147 1.415 . S
C1150 H1140 0.930 . S
C1150 C1148 1.419 . S
C1150 C1151 1.362 . S
C1151 H1141 0.930 . S
C1151 C1144 1.409 . S
C1151 C1150 1.362 . S
H1152 C1158 0.930 . S
H1153 C1161 0.930 . S
H1154 C1162 0.930 . S
H1155 C1163 0.930 . S
H1156 C1166 0.930 . S
H1157 C1167 0.930 . S
C1158 H1152 0.930 . S
C1158 C1159 1.355 1_545 S
C1158 C1160 1.415 . S
C1159 C1158 1.355 1_565 S
C1159 C1161 1.419 . S
C1160 C1158 1.415 . S
C1160 C1165 1.425 1_545 S
C1160 C1167 1.409 . S
C1161 H1153 0.930 . S
C1161 C1159 1.419 . S
C1161 C1162 1.362 . S
C1162 H1154 0.930 . S
C1162 C1161 1.362 . S
C1162 C1165 1.409 . S
C1163 H1155 0.930 . S
C1163 C1164 1.355 1_565 S
C1163 C1165 1.415 . S
C1164 C1163 1.355 1_545 S
C1164 C1166 1.419 . S
C1165 C1160 1.425 1_565 S
C1165 C1162 1.409 . S
C1165 C1163 1.415 . S
C1166 H1156 0.930 . S
C1166 C1164 1.419 . S
C1166 C1167 1.362 . S
C1167 H1157 0.930 . S
C1167 C1160 1.409 . S
C1167 C1166 1.362 . S
C535 N2 1.681 . S
C540 N376 1.703 . S
C551 N35 1.737 . S
C556 N343 1.751 . S
C567 C51 1.358 . S
C572 C73 1.353 . S
C583 C18 1.398 . S
C588 C106 1.369 . S
C599 N134 1.686 . S
C604 N508 1.697 . S
C615 N167 1.735 . S
C620 N475 1.751 . S
C631 C183 1.395 . S
C636 C205 1.349 . S
C647 C238 1.371 . S
C652 C150 1.397 . S
C663 N112 1.700 . S
C668 N266 1.681 . S
C679 N79 1.732 . S
C684 N299 1.705 . S
C695 C315 1.369 . S
C700 C337 1.330 . S
C711 C282 1.397 . S
C716 C370 1.371 . S
C727 N398 1.681 . S
C732 N244 1.701 . S
C743 N431 1.682 . S
C748 N211 1.705 . S
C759 C469 1.349 . S
C764 C447 1.358 . S
C775 C414 1.364 . S
C780 C502 1.334 . S
C791 C186 1.412 . S
C796 N13 1.400 . S
C807 C153 1.408 . S
C812 N46 1.355 . S
C823 C84 1.365 . S
C828 C384 1.358 . S
C839 C351 1.360 . S
C844 C117 1.363 . S
C855 C54 1.410 . S
C860 N145 1.385 . S
C871 C21 1.409 . S
C876 N178 1.354 . S
C887 C216 1.337 . S
C892 C516 1.364 . S
C903 C249 1.366 . S
C908 C483 1.357 . S
C919 N277 1.372 . S
C924 C450 1.410 . S
C935 C417 1.412 . S
C940 N310 1.403 . S
C951 C120 1.366 . S
C956 C348 1.343 . S
C967 C87 1.347 . S
C972 C381 1.345 . S
C983 C318 1.409 . S
C988 N409 1.366 . S
C999 C285 1.411 . S
C1004 N442 1.392 . S
C1015 C252 1.366 . S
C1020 C480 1.347 . S
C1031 C219 1.345 . S
C1036 C513 1.355 . S
C1047 C436 1.263 . S
C1052 C7 1.277 . S
C1063 C40 1.282 . S
C1068 C403 1.256 . S
C1079 N68 1.307 . S
C1084 N101 1.302 . S
C1095 C304 1.292 . S
C1100 C139 1.235 . S
C1111 C172 1.291 . S
C1116 C271 1.241 . S
C1127 N200 1.319 . S
C1132 N233 1.260 . S
C1143 N365 1.316 . S
C1148 N332 1.292 . S
C1159 N497 1.332 . S
C1164 N464 1.266 . S
