# Generated by pormake.
# Topology uli, (4)-cn, num edge types: 1
# Building blocks:
#     Node 0, Type 0, BuildingBlock: TATPOV_clean_sbu_0, # of connection points: 4
#     Node 1, Type 0, BuildingBlock: TATPOV_clean_sbu_0, # of connection points: 4
#     Node 2, Type 0, BuildingBlock: TATPOV_clean_sbu_0, # of connection points: 4
#     Node 3, Type 0, BuildingBlock: TATPOV_clean_sbu_0, # of connection points: 4
#     Node 4, Type 0, BuildingBlock: TATPOV_clean_sbu_0, # of connection points: 4
#     Node 5, Type 0, BuildingBlock: TATPOV_clean_sbu_0, # of connection points: 4
#     Node 6, Type 0, BuildingBlock: TATPOV_clean_sbu_0, # of connection points: 4
#     Node 7, Type 0, BuildingBlock: TATPOV_clean_sbu_0, # of connection points: 4
#     Node 8, Type 0, BuildingBlock: TATPOV_clean_sbu_0, # of connection points: 4
#     Node 9, Type 0, BuildingBlock: TATPOV_clean_sbu_0, # of connection points: 4
#     Node 10, Type 0, BuildingBlock: TATPOV_clean_sbu_0, # of connection points: 4
#     Node 11, Type 0, BuildingBlock: TATPOV_clean_sbu_0, # of connection points: 4
#     Node 12, Type 0, BuildingBlock: TATPOV_clean_sbu_0, # of connection points: 4
#     Node 13, Type 0, BuildingBlock: TATPOV_clean_sbu_0, # of connection points: 4
#     Node 14, Type 0, BuildingBlock: TATPOV_clean_sbu_0, # of connection points: 4
#     Node 15, Type 0, BuildingBlock: TATPOV_clean_sbu_0, # of connection points: 4
#     Node 16, Type 0, BuildingBlock: TATPOV_clean_sbu_0, # of connection points: 4
#     Node 17, Type 0, BuildingBlock: TATPOV_clean_sbu_0, # of connection points: 4
#     Node 18, Type 0, BuildingBlock: TATPOV_clean_sbu_0, # of connection points: 4
#     Node 19, Type 0, BuildingBlock: TATPOV_clean_sbu_0, # of connection points: 4
#     Node 20, Type 0, BuildingBlock: TATPOV_clean_sbu_0, # of connection points: 4
#     Node 21, Type 0, BuildingBlock: TATPOV_clean_sbu_0, # of connection points: 4
#     Node 22, Type 0, BuildingBlock: TATPOV_clean_sbu_0, # of connection points: 4
#     Node 23, Type 0, BuildingBlock: TATPOV_clean_sbu_0, # of connection points: 4
#     Node 24, Type 0, BuildingBlock: TATPOV_clean_sbu_0, # of connection points: 4
#     Node 25, Type 0, BuildingBlock: TATPOV_clean_sbu_0, # of connection points: 4
#     Node 26, Type 0, BuildingBlock: TATPOV_clean_sbu_0, # of connection points: 4
#     Node 27, Type 0, BuildingBlock: TATPOV_clean_sbu_0, # of connection points: 4
#     Node 28, Type 0, BuildingBlock: TATPOV_clean_sbu_0, # of connection points: 4
#     Node 29, Type 0, BuildingBlock: TATPOV_clean_sbu_0, # of connection points: 4
#     Node 30, Type 0, BuildingBlock: TATPOV_clean_sbu_0, # of connection points: 4
#     Node 31, Type 0, BuildingBlock: TATPOV_clean_sbu_0, # of connection points: 4
#     Node 32, Type 0, BuildingBlock: TATPOV_clean_sbu_0, # of connection points: 4
#     Node 33, Type 0, BuildingBlock: TATPOV_clean_sbu_0, # of connection points: 4
#     Node 34, Type 0, BuildingBlock: TATPOV_clean_sbu_0, # of connection points: 4
#     Node 35, Type 0, BuildingBlock: TATPOV_clean_sbu_0, # of connection points: 4
#     Node 36, Type 0, BuildingBlock: TATPOV_clean_sbu_0, # of connection points: 4
#     Node 37, Type 0, BuildingBlock: TATPOV_clean_sbu_0, # of connection points: 4
#     Node 38, Type 0, BuildingBlock: TATPOV_clean_sbu_0, # of connection points: 4
#     Node 39, Type 0, BuildingBlock: TATPOV_clean_sbu_0, # of connection points: 4
#     Node 40, Type 0, BuildingBlock: TATPOV_clean_sbu_0, # of connection points: 4
#     Node 41, Type 0, BuildingBlock: TATPOV_clean_sbu_0, # of connection points: 4
#     Node 42, Type 0, BuildingBlock: TATPOV_clean_sbu_0, # of connection points: 4
#     Node 43, Type 0, BuildingBlock: TATPOV_clean_sbu_0, # of connection points: 4
#     Node 44, Type 0, BuildingBlock: TATPOV_clean_sbu_0, # of connection points: 4
#     Node 45, Type 0, BuildingBlock: TATPOV_clean_sbu_0, # of connection points: 4
#     Node 46, Type 0, BuildingBlock: TATPOV_clean_sbu_0, # of connection points: 4
#     Node 47, Type 0, BuildingBlock: TATPOV_clean_sbu_0, # of connection points: 4
#     Edge 48, Type (0, 0), None
#     Edge 49, Type (0, 0), None
#     Edge 50, Type (0, 0), None
#     Edge 51, Type (0, 0), None
#     Edge 52, Type (0, 0), None
#     Edge 53, Type (0, 0), None
#     Edge 54, Type (0, 0), None
#     Edge 55, Type (0, 0), None
#     Edge 56, Type (0, 0), None
#     Edge 57, Type (0, 0), None
#     Edge 58, Type (0, 0), None
#     Edge 59, Type (0, 0), None
#     Edge 60, Type (0, 0), None
#     Edge 61, Type (0, 0), None
#     Edge 62, Type (0, 0), None
#     Edge 63, Type (0, 0), None
#     Edge 64, Type (0, 0), None
#     Edge 65, Type (0, 0), None
#     Edge 66, Type (0, 0), None
#     Edge 67, Type (0, 0), None
#     Edge 68, Type (0, 0), None
#     Edge 69, Type (0, 0), None
#     Edge 70, Type (0, 0), None
#     Edge 71, Type (0, 0), None
#     Edge 72, Type (0, 0), None
#     Edge 73, Type (0, 0), None
#     Edge 74, Type (0, 0), None
#     Edge 75, Type (0, 0), None
#     Edge 76, Type (0, 0), None
#     Edge 77, Type (0, 0), None
#     Edge 78, Type (0, 0), None
#     Edge 79, Type (0, 0), None
#     Edge 80, Type (0, 0), None
#     Edge 81, Type (0, 0), None
#     Edge 82, Type (0, 0), None
#     Edge 83, Type (0, 0), None
#     Edge 84, Type (0, 0), None
#     Edge 85, Type (0, 0), None
#     Edge 86, Type (0, 0), None
#     Edge 87, Type (0, 0), None
#     Edge 88, Type (0, 0), None
#     Edge 89, Type (0, 0), None
#     Edge 90, Type (0, 0), None
#     Edge 91, Type (0, 0), None
#     Edge 92, Type (0, 0), None
#     Edge 93, Type (0, 0), None
#     Edge 94, Type (0, 0), None
#     Edge 95, Type (0, 0), None
#     Edge 96, Type (0, 0), None
#     Edge 97, Type (0, 0), None
#     Edge 98, Type (0, 0), None
#     Edge 99, Type (0, 0), None
#     Edge 100, Type (0, 0), None
#     Edge 101, Type (0, 0), None
#     Edge 102, Type (0, 0), None
#     Edge 103, Type (0, 0), None
#     Edge 104, Type (0, 0), None
#     Edge 105, Type (0, 0), None
#     Edge 106, Type (0, 0), None
#     Edge 107, Type (0, 0), None
#     Edge 108, Type (0, 0), None
#     Edge 109, Type (0, 0), None
#     Edge 110, Type (0, 0), None
#     Edge 111, Type (0, 0), None
#     Edge 112, Type (0, 0), None
#     Edge 113, Type (0, 0), None
#     Edge 114, Type (0, 0), None
#     Edge 115, Type (0, 0), None
#     Edge 116, Type (0, 0), None
#     Edge 117, Type (0, 0), None
#     Edge 118, Type (0, 0), None
#     Edge 119, Type (0, 0), None
#     Edge 120, Type (0, 0), None
#     Edge 121, Type (0, 0), None
#     Edge 122, Type (0, 0), None
#     Edge 123, Type (0, 0), None
#     Edge 124, Type (0, 0), None
#     Edge 125, Type (0, 0), None
#     Edge 126, Type (0, 0), None
#     Edge 127, Type (0, 0), None
#     Edge 128, Type (0, 0), None
#     Edge 129, Type (0, 0), None
#     Edge 130, Type (0, 0), None
#     Edge 131, Type (0, 0), None
#     Edge 132, Type (0, 0), None
#     Edge 133, Type (0, 0), None
#     Edge 134, Type (0, 0), None
#     Edge 135, Type (0, 0), None
#     Edge 136, Type (0, 0), None
#     Edge 137, Type (0, 0), None
#     Edge 138, Type (0, 0), None
#     Edge 139, Type (0, 0), None
#     Edge 140, Type (0, 0), None
#     Edge 141, Type (0, 0), None
#     Edge 142, Type (0, 0), None
#     Edge 143, Type (0, 0), None
# Relax obj value: 0.385
# Max RMSD: 0.204
# Mean RMSD: 0.204
data_MOF--net-uli--node1-TATPOV_clean_sbu_0--edge1-none
_symmetry_space_group_name_H-M    P1
_symmetry_Int_Tables_number       1
_symmetry_cell_setting            triclinic
loop_
_symmetry_equiv_pos_as_xyz
'x, y, z'
_cell_length_a     30.55245
_cell_length_b     31.260401
_cell_length_c     30.815306
_cell_angle_alpha  89.996605
_cell_angle_beta   90.027234
_cell_angle_gamma 89.940046
loop_
_atom_site_label
_atom_site_type_symbol
_atom_site_fract_x
_atom_site_fract_y
_atom_site_fract_z
_atom_type_partial_charge
Zn0 Zn 0.15135 0.23991 0.21828 0.0
Zn1 Zn 0.05466 0.19626 0.23125 0.0
O2 O 0.08618 0.14134 0.245 0.0
O3 O 0.14914 0.17468 0.23569 0.0
O4 O 0.99041 0.18216 0.24108 0.0
O5 O 0.10481 0.28635 0.23361 0.0
O6 O 0.074 0.24157 0.27758 0.0
C7 C 0.12765 0.14077 0.24431 0.0
C8 C 0.09523 0.2393 0.15517 0.0
O9 O 0.07162 0.20759 0.16626 0.0
O10 O 0.10178 0.26703 0.1842 0.0
C11 C 0.97725 0.16576 0.27676 0.0
O12 O 0.0054 0.15866 0.30816 0.0
C13 C 0.09145 0.2782 0.27156 0.0
Zn14 Zn 0.68195 0.23939 0.21457 0.0
Zn15 Zn 0.69896 0.13414 0.17267 0.0
O16 O 0.73269 0.13443 0.22769 0.0
O17 O 0.72174 0.19992 0.2542 0.0
O18 O 0.70862 0.07122 0.15689 0.0
O19 O 0.64118 0.21181 0.16792 0.0
O20 O 0.63416 0.1478 0.19231 0.0
C21 C 0.73912 0.16267 0.25627 0.0
C22 C 0.72348 0.2171 0.14026 0.0
O23 O 0.73482 0.17817 0.13622 0.0
O24 O 0.68424 0.22362 0.15125 0.0
C25 C 0.74534 0.05456 0.16758 0.0
O26 O 0.77761 0.07939 0.18004 0.0
C27 C 0.61751 0.18494 0.18767 0.0
Zn28 Zn 0.85225 0.74098 0.21837 0.0
Zn29 Zn 0.94896 0.7846 0.23134 0.0
O30 O 0.91748 0.83955 0.24502 0.0
O31 O 0.8545 0.80622 0.2357 0.0
O32 O 0.01323 0.79869 0.24115 0.0
O33 O 0.89877 0.69453 0.23377 0.0
O34 O 0.92964 0.73934 0.27771 0.0
C35 C 0.87601 0.84013 0.2443 0.0
C36 C 0.90834 0.7415 0.15528 0.0
O37 O 0.93197 0.77321 0.16636 0.0
O38 O 0.90179 0.7138 0.18434 0.0
C39 C 0.02644 0.81508 0.27683 0.0
O40 O 0.99832 0.82219 0.30824 0.0
C41 C 0.91217 0.70271 0.27172 0.0
Zn42 Zn 0.32178 0.74154 0.21466 0.0
Zn43 Zn 0.30478 0.84682 0.17283 0.0
O44 O 0.27106 0.84649 0.22782 0.0
O45 O 0.28199 0.78097 0.25428 0.0
O46 O 0.29511 0.90975 0.15709 0.0
O47 O 0.36255 0.76915 0.16807 0.0
O48 O 0.36959 0.83314 0.1925 0.0
C49 C 0.26461 0.81822 0.25637 0.0
C50 C 0.28026 0.76389 0.14033 0.0
O51 O 0.26892 0.80283 0.13631 0.0
O52 O 0.3195 0.75736 0.15135 0.0
C53 C 0.25839 0.92639 0.16776 0.0
O54 O 0.22612 0.90154 0.18016 0.0
C55 C 0.38623 0.79601 0.18784 0.0
Zn56 Zn 0.15141 0.74092 0.7768 0.0
Zn57 Zn 0.05467 0.78477 0.76387 0.0
O58 O 0.08616 0.83963 0.75015 0.0
O59 O 0.14914 0.80617 0.75942 0.0
O60 O 0.99041 0.79898 0.75405 0.0
O61 O 0.1048 0.69462 0.76153 0.0
O62 O 0.07398 0.73945 0.71752 0.0
C63 C 0.12763 0.84012 0.75082 0.0
C64 C 0.09534 0.74162 0.83993 0.0
O65 O 0.0717 0.77337 0.82885 0.0
O66 O 0.10187 0.71389 0.81089 0.0
C67 C 0.97721 0.8154 0.71837 0.0
O68 O 0.00534 0.82245 0.68697 0.0
C69 C 0.09145 0.70279 0.72355 0.0
Zn70 Zn 0.32161 0.239 0.78053 0.0
Zn71 Zn 0.30477 0.13373 0.8224 0.0
O72 O 0.27105 0.13408 0.76738 0.0
O73 O 0.28187 0.19959 0.74089 0.0
O74 O 0.29514 0.07081 0.83812 0.0
O75 O 0.36245 0.21137 0.82714 0.0
O76 O 0.36957 0.14735 0.80278 0.0
C77 C 0.26456 0.16234 0.73881 0.0
C78 C 0.28014 0.21668 0.85484 0.0
O79 O 0.26887 0.17776 0.85888 0.0
O80 O 0.31937 0.22318 0.84383 0.0
C81 C 0.25841 0.05424 0.82744 0.0
O82 O 0.22612 0.07917 0.81506 0.0
C83 C 0.38617 0.18448 0.80742 0.0
Zn84 Zn 0.85232 0.24008 0.77687 0.0
Zn85 Zn 0.94906 0.19627 0.76395 0.0
O86 O 0.91757 0.14139 0.75026 0.0
O87 O 0.85458 0.17483 0.75954 0.0
O88 O 0.01332 0.18206 0.7541 0.0
O89 O 0.89889 0.28641 0.76157 0.0
O90 O 0.9297 0.24158 0.71759 0.0
C91 C 0.8761 0.14088 0.75095 0.0
C92 C 0.90845 0.23942 0.83999 0.0
O93 O 0.93211 0.20768 0.82894 0.0
O94 O 0.90188 0.26714 0.81094 0.0
C95 C 0.02646 0.16566 0.7184 0.0
O96 O 0.99828 0.15864 0.68702 0.0
C97 C 0.91223 0.27823 0.7236 0.0
Zn98 Zn 0.68207 0.74203 0.7805 0.0
Zn99 Zn 0.69898 0.84725 0.82243 0.0
O100 O 0.73266 0.84695 0.76741 0.0
O101 O 0.72178 0.78146 0.74089 0.0
O102 O 0.70864 0.91016 0.8382 0.0
O103 O 0.64128 0.76963 0.82713 0.0
O104 O 0.63417 0.83366 0.80277 0.0
C105 C 0.73911 0.81871 0.73882 0.0
C106 C 0.72361 0.76427 0.85482 0.0
O107 O 0.73491 0.80319 0.85887 0.0
O108 O 0.68437 0.75779 0.84382 0.0
C109 C 0.74537 0.92673 0.82755 0.0
O110 O 0.77765 0.90181 0.81517 0.0
C111 C 0.61756 0.79654 0.8074 0.0
Zn112 Zn 0.22234 0.15129 0.24394 0.0
Zn113 Zn 0.2192 0.05215 0.20792 0.0
O114 O 0.22704 0.07925 0.14887 0.0
O115 O 0.2249 0.14488 0.1756 0.0
O116 O 0.22211 0.98824 0.19538 0.0
O117 O 0.23416 0.10587 0.2932 0.0
O118 O 0.2723 0.06754 0.24878 0.0
C119 C 0.2261 0.11943 0.14321 0.0
C120 C 0.1525 0.10184 0.25565 0.0
O121 O 0.1568 0.07399 0.22584 0.0
O122 O 0.18594 0.10841 0.27879 0.0
C123 C 0.25385 0.97297 0.17324 0.0
O124 O 0.28481 -0.00138 0.15929 0.0
C125 C 0.26984 0.08681 0.28525 0.0
Zn126 Zn 0.77675 0.22974 0.31129 0.0
Zn127 Zn 0.85421 0.18784 0.32584 0.0
O128 O 0.87211 0.24173 0.29409 0.0
O129 O 0.81476 0.23256 0.25388 0.0
O130 O 0.91477 0.16097 0.32328 0.0
O131 O 0.7685 0.18904 0.36674 0.0
O132 O 0.83267 0.20791 0.38752 0.0
C133 C 0.85369 0.24576 0.25766 0.0
C134 C 0.76794 0.15309 0.29282 0.0
O135 O 0.80903 0.15461 0.28539 0.0
O136 O 0.75529 0.16977 0.328 0.0
C137 C 0.93004 0.16078 0.28466 0.0
O138 O 0.90307 0.16583 0.25189 0.0
C139 C 0.79246 0.20268 0.39712 0.0
Zn140 Zn 0.78131 0.82966 0.24388 0.0
Zn141 Zn 0.78446 0.92876 0.20776 0.0
O142 O 0.7766 0.90163 0.14873 0.0
O143 O 0.77872 0.83602 0.17552 0.0
O144 O 0.78158 -0.00733 0.1952 0.0
O145 O 0.76953 0.87512 0.29309 0.0
O146 O 0.73137 0.91341 0.2486 0.0
C147 C 0.77752 0.86143 0.1431 0.0
C148 C 0.85117 0.87909 0.25558 0.0
O149 O 0.84687 0.9069 0.22573 0.0
O150 O 0.81774 0.87255 0.27871 0.0
C151 C 0.74985 0.00797 0.17304 0.0
O152 O 0.71888 0.98234 0.15906 0.0
C153 C 0.73384 0.89416 0.28509 0.0
Zn154 Zn 0.227 0.75112 0.31132 0.0
Zn155 Zn 0.14955 0.79298 0.32584 0.0
O156 O 0.13163 0.73913 0.29401 0.0
O157 O 0.18898 0.74833 0.25387 0.0
O158 O 0.08898 0.81985 0.32331 0.0
O159 O 0.23526 0.79178 0.3668 0.0
O160 O 0.17112 0.77285 0.38751 0.0
C161 C 0.15005 0.73513 0.2576 0.0
C162 C 0.23579 0.82777 0.2929 0.0
O163 O 0.1947 0.82625 0.28544 0.0
O164 O 0.24845 0.81108 0.32808 0.0
C165 C 0.07366 0.82006 0.2847 0.0
O166 O 0.10058 0.81502 0.25192 0.0
C167 C 0.21132 0.77809 0.39714 0.0
Zn168 Zn 0.22232 0.82943 0.75115 0.0
Zn169 Zn 0.21919 0.92858 0.7872 0.0
O170 O 0.22711 0.90144 0.84623 0.0
O171 O 0.22493 0.83582 0.8195 0.0
O172 O 0.22211 -0.00752 0.79978 0.0
O173 O 0.23407 0.87484 0.70189 0.0
O174 O 0.27223 0.91315 0.74629 0.0
C175 C 0.22617 0.86126 0.85189 0.0
C176 C 0.15246 0.87901 0.73947 0.0
O177 O 0.15677 0.90686 0.76929 0.0
O178 O 0.18587 0.87239 0.71633 0.0
C179 C 0.25387 0.00768 0.82192 0.0
O180 O 0.28485 0.98196 0.83585 0.0
C181 C 0.26974 0.89388 0.70981 0.0
Zn182 Zn 0.22681 0.22943 0.6838 0.0
Zn183 Zn 0.14943 0.18762 0.66925 0.0
O184 O 0.13145 0.24151 0.70102 0.0
O185 O 0.18882 0.23227 0.74122 0.0
O186 O 0.0889 0.16081 0.67184 0.0
O187 O 0.23513 0.18873 0.62835 0.0
O188 O 0.17095 0.20769 0.60758 0.0
C189 C 0.14987 0.24551 0.73746 0.0
C190 C 0.23574 0.15278 0.70227 0.0
O191 O 0.19465 0.15434 0.7097 0.0
O192 O 0.24836 0.16945 0.66708 0.0
C193 C 0.07366 0.1606 0.71047 0.0
O194 O 0.10066 0.16559 0.74322 0.0
C195 C 0.21116 0.20242 0.59798 0.0
Zn196 Zn 0.78141 0.15152 0.75126 0.0
Zn197 Zn 0.78458 0.05241 0.78738 0.0
O198 O 0.7767 0.07956 0.84639 0.0
O199 O 0.77885 0.14517 0.81961 0.0
O200 O 0.78168 0.9885 0.79996 0.0
O201 O 0.76965 0.10608 0.70203 0.0
O202 O 0.73151 0.06783 0.74645 0.0
C203 C 0.77764 0.11975 0.85203 0.0
C204 C 0.85128 0.10197 0.73963 0.0
O205 O 0.84698 0.07415 0.76947 0.0
O206 O 0.81785 0.10857 0.71646 0.0
C207 C 0.74992 0.9733 0.82207 0.0
O208 O 0.71894 -0.00099 0.83598 0.0
C209 C 0.73398 0.08707 0.70996 0.0
Zn210 Zn 0.7768 0.75161 0.68382 0.0
Zn211 Zn 0.85417 0.79344 0.66928 0.0
O212 O 0.87218 0.73955 0.70105 0.0
O213 O 0.81485 0.74876 0.74124 0.0
O214 O 0.9147 0.82026 0.67184 0.0
O215 O 0.76843 0.79233 0.62837 0.0
O216 O 0.8326 0.77338 0.6076 0.0
C217 C 0.85379 0.73553 0.73748 0.0
C218 C 0.7679 0.82827 0.70228 0.0
O219 O 0.80899 0.82671 0.70973 0.0
O220 O 0.75524 0.8116 0.6671 0.0
C221 C 0.92999 0.82046 0.71046 0.0
O222 O 0.90305 0.81544 0.74323 0.0
C223 C 0.79239 0.77866 0.598 0.0
Zn224 Zn 0.23898 0.21212 0.13812 0.0
Zn225 Zn 0.18269 0.20828 0.05258 0.0
O226 O 0.12965 0.22604 0.08663 0.0
O227 O 0.1709 0.22483 0.14543 0.0
O228 O 0.16315 0.21029 0.98982 0.0
O229 O 0.27674 0.2087 0.08092 0.0
O230 O 0.23099 0.25562 0.05925 0.0
C231 C 0.1335 0.22942 0.12743 0.0
C232 C 0.23054 0.13815 0.09936 0.0
O233 O 0.19505 0.14724 0.07962 0.0
O234 O 0.2606 0.16564 0.0962 0.0
C235 C 0.14669 0.24556 0.9766 0.0
O236 O 0.14221 0.27742 0.00402 0.0
C237 C 0.27035 0.24703 0.06982 0.0
Zn238 Zn 0.2391 0.76856 0.857 0.0
Zn239 Zn 0.1829 0.77244 0.94251 0.0
O240 O 0.12984 0.75477 0.90846 0.0
O241 O 0.17101 0.75597 0.84966 0.0
O242 O 0.1634 0.77042 0.00526 0.0
O243 O 0.27691 0.77193 0.9142 0.0
O244 O 0.23123 0.72503 0.93581 0.0
C245 C 0.13363 0.75142 0.86766 0.0
C246 C 0.23065 0.84253 0.89574 0.0
O247 O 0.19519 0.83347 0.91547 0.0
O248 O 0.26074 0.81501 0.8989 0.0
C249 C 0.14695 0.73517 0.01844 0.0
O250 O 0.14248 0.70334 0.991 0.0
C251 C 0.27057 0.7336 0.92527 0.0
Zn252 Zn 0.21586 0.30437 0.75602 0.0
Zn253 Zn 0.16623 0.29707 0.85481 0.0
O254 O 0.21635 0.25784 0.86419 0.0
O255 O 0.24988 0.26309 0.80073 0.0
O256 O 0.14091 0.29152 0.91528 0.0
O257 O 0.17246 0.35253 0.77508 0.0
O258 O 0.19571 0.35691 0.84059 0.0
C259 C 0.24701 0.2473 0.83897 0.0
C260 C 0.13371 0.27676 0.7689 0.0
O261 O 0.13095 0.26433 0.80798 0.0
O262 O 0.14913 0.31378 0.76341 0.0
C263 C 0.14103 0.25326 0.92992 0.0
O264 O 0.14666 0.22124 0.9029 0.0
C265 C 0.194 0.37355 0.80279 0.0
Zn266 Zn 0.76472 0.21246 0.85705 0.0
Zn267 Zn 0.82098 0.20863 0.94258 0.0
O268 O 0.87403 0.22629 0.90854 0.0
O269 O 0.8328 0.22505 0.84973 0.0
O270 O 0.84048 0.21067 0.00535 0.0
O271 O 0.72694 0.20912 0.91425 0.0
O272 O 0.77265 0.25603 0.93584 0.0
C273 C 0.87019 0.22962 0.86774 0.0
C274 C 0.77319 0.13851 0.89585 0.0
O275 O 0.80868 0.14759 0.91558 0.0
O276 O 0.7431 0.16603 0.89899 0.0
C277 C 0.85688 0.24593 0.01855 0.0
O278 O 0.86131 0.27778 0.99113 0.0
C279 C 0.7333 0.24746 0.92529 0.0
Zn280 Zn 0.7878 0.67665 0.75596 0.0
Zn281 Zn 0.8375 0.68384 0.85479 0.0
O282 O 0.78738 0.72306 0.86416 0.0
O283 O 0.75382 0.7179 0.80068 0.0
O284 O 0.86281 0.68934 0.91529 0.0
O285 O 0.83121 0.62847 0.775 0.0
O286 O 0.80802 0.62401 0.8405 0.0
C287 C 0.75672 0.73364 0.83894 0.0
C288 C 0.86996 0.70424 0.76891 0.0
O289 O 0.87275 0.71663 0.808 0.0
O290 O 0.85453 0.66723 0.76338 0.0
C291 C 0.86267 0.72758 0.92996 0.0
O292 O 0.85705 0.75962 0.90295 0.0
C293 C 0.80971 0.60741 0.80269 0.0
Zn294 Zn 0.7646 0.76874 0.13812 0.0
Zn295 Zn 0.82089 0.77251 0.05259 0.0
O296 O 0.87392 0.75474 0.08671 0.0
O297 O 0.83268 0.75599 0.14548 0.0
O298 O 0.84045 0.77048 0.98985 0.0
O299 O 0.72684 0.7721 0.08088 0.0
O300 O 0.77258 0.72517 0.05925 0.0
C301 C 0.87007 0.75138 0.12751 0.0
C302 C 0.77306 0.84268 0.09928 0.0
O303 O 0.80854 0.83356 0.07957 0.0
O304 O 0.743 0.81518 0.09613 0.0
C305 C 0.85696 0.73524 0.97665 0.0
O306 O 0.86146 0.70336 0.00404 0.0
C307 C 0.73323 0.73377 0.06981 0.0
Zn308 Zn 0.21613 0.67622 0.23907 0.0
Zn309 Zn 0.16647 0.68358 0.14023 0.0
O310 O 0.21654 0.72277 0.13093 0.0
O311 O 0.25008 0.71749 0.19441 0.0
O312 O 0.14117 0.6892 0.07973 0.0
O313 O 0.17277 0.62811 0.21995 0.0
O314 O 0.19603 0.62371 0.15446 0.0
C315 C 0.24718 0.73329 0.15617 0.0
C316 C 0.13393 0.7039 0.22612 0.0
O317 O 0.13115 0.71634 0.18705 0.0
O318 O 0.14941 0.66687 0.23162 0.0
C319 C 0.14126 0.72746 0.06511 0.0
O320 O 0.14685 0.75946 0.09215 0.0
C321 C 0.19433 0.60707 0.19226 0.0
Zn322 Zn 0.7876 0.30468 0.23913 0.0
Zn323 Zn 0.83725 0.29744 0.14034 0.0
O324 O 0.78719 0.25825 0.13094 0.0
O325 O 0.75365 0.26345 0.19441 0.0
O326 O 0.86257 0.2919 0.07987 0.0
O327 O 0.83094 0.35283 0.22011 0.0
O328 O 0.80769 0.3573 0.1546 0.0
C329 C 0.75656 0.2477 0.15615 0.0
C330 C 0.8698 0.27704 0.22624 0.0
O331 O 0.87258 0.26464 0.18715 0.0
O332 O 0.85431 0.31406 0.23176 0.0
C333 C 0.86253 0.25364 0.06524 0.0
O334 O 0.85696 0.22162 0.09227 0.0
C335 C 0.80939 0.3739 0.19242 0.0
Zn336 Zn 0.65138 0.74028 0.71818 0.0
Zn337 Zn 0.55467 0.69657 0.73114 0.0
O338 O 0.58623 0.64168 0.74484 0.0
O339 O 0.64919 0.67503 0.73554 0.0
O340 O 0.49045 0.68232 0.74097 0.0
O341 O 0.6048 0.78668 0.73349 0.0
O342 O 0.57397 0.74188 0.77748 0.0
C343 C 0.6277 0.64112 0.74414 0.0
C344 C 0.59524 0.73966 0.65507 0.0
O345 O 0.57162 0.70795 0.66615 0.0
O346 O 0.60179 0.76738 0.68411 0.0
C347 C 0.47738 0.66579 0.77663 0.0
O348 O 0.50559 0.65868 0.80797 0.0
C349 C 0.59142 0.77851 0.77143 0.0
Zn350 Zn 0.18215 0.73913 0.71453 0.0
Zn351 Zn 0.19902 0.63388 0.67264 0.0
O352 O 0.23279 0.63412 0.72764 0.0
O353 O 0.22194 0.69963 0.75413 0.0
O354 O 0.20861 0.57095 0.65687 0.0
O355 O 0.14127 0.71164 0.66791 0.0
O356 O 0.13424 0.64759 0.69231 0.0
C357 C 0.23929 0.66236 0.7562 0.0
C358 C 0.22359 0.71681 0.6402 0.0
O359 O 0.23489 0.67787 0.63617 0.0
O360 O 0.18437 0.72337 0.65121 0.0
C361 C 0.24532 0.55427 0.66755 0.0
O362 O 0.27763 0.5791 0.67994 0.0
C363 C 0.11761 0.68474 0.68762 0.0
Zn364 Zn 0.3523 0.24074 0.71823 0.0
Zn365 Zn 0.44901 0.28446 0.7312 0.0
O366 O 0.41746 0.33934 0.74493 0.0
O367 O 0.3545 0.30597 0.73563 0.0
O368 O 0.51323 0.2987 0.74101 0.0
O369 O 0.39891 0.19434 0.73352 0.0
O370 O 0.42975 0.23913 0.77754 0.0
C371 C 0.37599 0.33989 0.74424 0.0
C372 C 0.40836 0.2414 0.65512 0.0
O373 O 0.43198 0.27311 0.66621 0.0
O374 O 0.40186 0.21365 0.68415 0.0
C375 C 0.52636 0.31525 0.77664 0.0
O376 O 0.49819 0.32238 0.808 0.0
C377 C 0.41231 0.2025 0.77147 0.0
Zn378 Zn 0.82158 0.2419 0.71456 0.0
Zn379 Zn 0.80463 0.34712 0.67262 0.0
O380 O 0.77091 0.34691 0.72762 0.0
O381 O 0.78181 0.28141 0.75413 0.0
O382 O 0.79501 0.41004 0.6568 0.0
O383 O 0.8624 0.26938 0.66792 0.0
O384 O 0.86943 0.33343 0.69232 0.0
C385 C 0.76445 0.31867 0.75619 0.0
C386 C 0.78006 0.26416 0.64022 0.0
O387 O 0.76874 0.3031 0.63619 0.0
O388 O 0.8193 0.25761 0.65123 0.0
C389 C 0.7583 0.42672 0.66746 0.0
O390 O 0.72601 0.40189 0.67986 0.0
C391 C 0.88606 0.29629 0.68764 0.0
Zn392 Zn 0.65134 0.24124 0.27691 0.0
Zn393 Zn 0.55458 0.28495 0.26396 0.0
O394 O 0.58597 0.33988 0.25026 0.0
O395 O 0.64898 0.30649 0.25958 0.0
O396 O 0.49029 0.29904 0.25414 0.0
O397 O 0.60486 0.19482 0.26158 0.0
O398 O 0.57394 0.23966 0.2176 0.0
C399 C 0.62744 0.34042 0.25099 0.0
C400 C 0.59528 0.24182 0.34001 0.0
O401 O 0.57162 0.27355 0.32893 0.0
O402 O 0.60185 0.2141 0.31097 0.0
C403 C 0.47708 0.31539 0.21843 0.0
O404 O 0.5052 0.32246 0.18704 0.0
C405 C 0.59142 0.20301 0.22365 0.0
Zn406 Zn 0.82165 0.73924 0.28072 0.0
Zn407 Zn 0.80468 0.634 0.32265 0.0
O408 O 0.77105 0.63432 0.26758 0.0
O409 O 0.78196 0.69979 0.24105 0.0
O410 O 0.79496 0.5711 0.3384 0.0
O411 O 0.8624 0.71163 0.32742 0.0
O412 O 0.8695 0.64756 0.30307 0.0
C413 C 0.76464 0.66254 0.23897 0.0
C414 C 0.78004 0.717 0.35497 0.0
O415 O 0.76874 0.67808 0.35902 0.0
O416 O 0.81928 0.72348 0.34403 0.0
C417 C 0.75822 0.55456 0.3277 0.0
O418 O 0.72597 0.57951 0.31528 0.0
C419 C 0.88608 0.68469 0.30771 0.0
Zn420 Zn 0.35246 0.73965 0.277 0.0
Zn421 Zn 0.4492 0.69591 0.26405 0.0
O422 O 0.41778 0.64101 0.25029 0.0
O423 O 0.35478 0.67441 0.25961 0.0
O424 O 0.51347 0.68181 0.25423 0.0
O425 O 0.39895 0.78606 0.26175 0.0
O426 O 0.42983 0.74126 0.21773 0.0
C427 C 0.37631 0.64048 0.25099 0.0
C428 C 0.40854 0.73898 0.34013 0.0
O429 O 0.43219 0.70725 0.32903 0.0
O430 O 0.40197 0.76673 0.31111 0.0
C431 C 0.52664 0.66547 0.21851 0.0
O432 O 0.49847 0.65841 0.18713 0.0
C433 C 0.41236 0.77791 0.22381 0.0
Zn434 Zn 0.18202 0.24169 0.28063 0.0
Zn435 Zn 0.19897 0.34695 0.32249 0.0
O436 O 0.2326 0.3466 0.26745 0.0
O437 O 0.22171 0.28111 0.24097 0.0
O438 O 0.2087 0.40985 0.33821 0.0
O439 O 0.14126 0.26931 0.32727 0.0
O440 O 0.13415 0.33337 0.30288 0.0
C441 C 0.23903 0.31836 0.23888 0.0
C442 C 0.22362 0.26397 0.3549 0.0
O443 O 0.23491 0.30289 0.35893 0.0
O444 O 0.18438 0.25748 0.34393 0.0
C445 C 0.24545 0.42637 0.32754 0.0
O446 O 0.27769 0.40139 0.31518 0.0
C447 C 0.11757 0.29624 0.30754 0.0
Zn448 Zn 0.72237 0.6516 0.7438 0.0
Zn449 Zn 0.71926 0.5525 0.70771 0.0
O450 O 0.72711 0.57961 0.64868 0.0
O451 O 0.72491 0.64523 0.67545 0.0
O452 O 0.72212 0.48859 0.69514 0.0
O453 O 0.73416 0.60616 0.79305 0.0
O454 O 0.77234 0.56783 0.74861 0.0
C455 C 0.72613 0.6198 0.64304 0.0
C456 C 0.65254 0.60218 0.75546 0.0
O457 O 0.65686 0.57436 0.72562 0.0
O458 O 0.68596 0.60872 0.77863 0.0
C459 C 0.75381 0.4733 0.67295 0.0
O460 O 0.78478 0.49893 0.65898 0.0
C461 C 0.76983 0.58708 0.78509 0.0
Zn462 Zn 0.27686 0.72937 0.81125 0.0
Zn463 Zn 0.35436 0.68754 0.82579 0.0
O464 O 0.37223 0.74146 0.79407 0.0
O465 O 0.31489 0.73227 0.75385 0.0
O466 O 0.41496 0.66076 0.82318 0.0
O467 O 0.26864 0.68864 0.86669 0.0
O468 O 0.33282 0.70758 0.88748 0.0
C469 C 0.35382 0.74547 0.75763 0.0
C470 C 0.26812 0.65275 0.79274 0.0
O471 O 0.30921 0.65431 0.78531 0.0
O472 O 0.25545 0.66938 0.82793 0.0
C473 C 0.4302 0.66062 0.78455 0.0
O474 O 0.40319 0.6656 0.7518 0.0
C475 C 0.29262 0.7023 0.89704 0.0
Zn476 Zn 0.28132 0.32936 0.74388 0.0
Zn477 Zn 0.28439 0.42851 0.70785 0.0
O478 O 0.2765 0.40141 0.64881 0.0
O479 O 0.27873 0.33578 0.67553 0.0
O480 O 0.28152 0.49241 0.69527 0.0
O481 O 0.26954 0.37477 0.79316 0.0
O482 O 0.23134 0.41315 0.74874 0.0
C483 C 0.27748 0.36123 0.64314 0.0
C484 C 0.35115 0.37881 0.75558 0.0
O485 O 0.34681 0.40666 0.72576 0.0
O486 O 0.31774 0.37224 0.77874 0.0
C487 C 0.24981 0.5077 0.67307 0.0
O488 O 0.21884 0.48206 0.65909 0.0
C489 C 0.23388 0.39387 0.78521 0.0
Zn490 Zn 0.72693 0.25165 0.81125 0.0
Zn491 Zn 0.64943 0.29348 0.82577 0.0
O492 O 0.63154 0.23957 0.79405 0.0
O493 O 0.68885 0.24875 0.75384 0.0
O494 O 0.58884 0.32028 0.82317 0.0
O495 O 0.7352 0.29238 0.86667 0.0
O496 O 0.67103 0.27345 0.88746 0.0
C497 C 0.64993 0.23555 0.75762 0.0
C498 C 0.73565 0.32828 0.79272 0.0
O499 O 0.69456 0.32672 0.78529 0.0
O500 O 0.74834 0.31165 0.82792 0.0
C501 C 0.57355 0.32041 0.78455 0.0
O502 O 0.60052 0.31541 0.75179 0.0
C503 C 0.71124 0.27874 0.89703 0.0
Zn504 Zn 0.72213 0.32981 0.25131 0.0
Zn505 Zn 0.71899 0.42892 0.28741 0.0
O506 O 0.72692 0.40178 0.34643 0.0
O507 O 0.72474 0.33617 0.31966 0.0
O508 O 0.72189 0.49283 0.30001 0.0
O509 O 0.73384 0.37524 0.20205 0.0
O510 O 0.77203 0.41351 0.24649 0.0
C511 C 0.72597 0.36159 0.35207 0.0
C512 C 0.65224 0.37934 0.23967 0.0
O513 O 0.65657 0.40716 0.26951 0.0
O514 O 0.68564 0.37275 0.21649 0.0
C515 C 0.75364 0.508 0.32219 0.0
O516 O 0.78459 0.48226 0.33614 0.0
C517 C 0.76949 0.39427 0.21001 0.0
Zn518 Zn 0.72687 0.7296 0.1839 0.0
Zn519 Zn 0.64953 0.6877 0.16931 0.0
O520 O 0.63148 0.7416 0.20102 0.0
O521 O 0.68881 0.73245 0.24128 0.0
O522 O 0.58906 0.66078 0.17191 0.0
O523 O 0.73528 0.68889 0.12847 0.0
O524 O 0.67105 0.70774 0.10763 0.0
C525 C 0.64987 0.74567 0.23746 0.0
C526 C 0.73587 0.65298 0.2024 0.0
O527 O 0.69477 0.6545 0.2098 0.0
O528 O 0.74852 0.66965 0.16723 0.0
C529 C 0.57385 0.66053 0.21055 0.0
O530 O 0.60085 0.66561 0.24329 0.0
C531 C 0.71127 0.7025 0.09809 0.0
Zn532 Zn 0.28162 0.65113 0.25126 0.0
Zn533 Zn 0.28476 0.55197 0.28728 0.0
O534 O 0.27686 0.57907 0.34631 0.0
O535 O 0.27905 0.64471 0.31961 0.0
O536 O 0.28182 0.48807 0.29986 0.0
O537 O 0.26988 0.60575 0.20196 0.0
O538 O 0.23171 0.56743 0.24634 0.0
C539 C 0.27782 0.61925 0.352 0.0
C540 C 0.3515 0.60158 0.23962 0.0
O541 O 0.34718 0.57373 0.26943 0.0
O542 O 0.31809 0.6082 0.21643 0.0
C543 C 0.25005 0.47292 0.32201 0.0
O544 O 0.21912 0.49869 0.33591 0.0
C545 C 0.23423 0.5867 0.20987 0.0
Zn546 Zn 0.27677 0.25128 0.18387 0.0
Zn547 Zn 0.35411 0.29315 0.16931 0.0
O548 O 0.37218 0.23928 0.2011 0.0
O549 O 0.31483 0.24845 0.24129 0.0
O550 O 0.41458 0.32007 0.17187 0.0
O551 O 0.26835 0.29197 0.12842 0.0
O552 O 0.33256 0.27305 0.10764 0.0
C553 C 0.35379 0.23524 0.23753 0.0
C554 C 0.26779 0.32791 0.20232 0.0
O555 O 0.30889 0.32638 0.20975 0.0
O556 O 0.25513 0.31123 0.16715 0.0
C557 C 0.42985 0.32033 0.2105 0.0
O558 O 0.4029 0.31527 0.24325 0.0
C559 C 0.29234 0.27832 0.09807 0.0
Zn560 Zn 0.73901 0.71248 0.638 0.0
Zn561 Zn 0.68271 0.70873 0.55248 0.0
O562 O 0.62967 0.72648 0.58652 0.0
O563 O 0.67091 0.72517 0.64532 0.0
O564 O 0.66315 0.71076 0.48973 0.0
O565 O 0.7768 0.70908 0.58081 0.0
O566 O 0.73102 0.75607 0.55918 0.0
C567 C 0.63351 0.72979 0.62733 0.0
C568 C 0.73056 0.63855 0.59921 0.0
O569 O 0.69507 0.64769 0.5795 0.0
O570 O 0.76064 0.66602 0.59607 0.0
C571 C 0.64665 0.74601 0.47652 0.0
O572 O 0.64216 0.77787 0.50393 0.0
C573 C 0.77037 0.7474 0.56972 0.0
Zn574 Zn 0.73901 0.26891 0.35711 0.0
Zn575 Zn 0.68275 0.2727 0.44263 0.0
O576 O 0.62973 0.255 0.40856 0.0
O577 O 0.67093 0.25624 0.34978 0.0
O578 O 0.6632 0.27067 0.50537 0.0
O579 O 0.77682 0.27227 0.41432 0.0
O580 O 0.73112 0.22533 0.43595 0.0
C581 C 0.63355 0.25165 0.36776 0.0
C582 C 0.73047 0.34285 0.3959 0.0
O583 O 0.695 0.33374 0.41562 0.0
O584 O 0.76059 0.31535 0.39906 0.0
C585 C 0.6467 0.23544 0.51852 0.0
O586 O 0.64222 0.20361 0.49108 0.0
C587 C 0.77045 0.23395 0.4254 0.0
Zn588 Zn 0.71589 0.80455 0.25595 0.0
Zn589 Zn 0.66616 0.79744 0.35473 0.0
O590 O 0.71627 0.75821 0.36418 0.0
O591 O 0.74986 0.76334 0.30074 0.0
O592 O 0.64082 0.79195 0.41519 0.0
O593 O 0.67249 0.85278 0.27487 0.0
O594 O 0.69565 0.85726 0.34045 0.0
C595 C 0.74694 0.74761 0.33901 0.0
C596 C 0.6337 0.777 0.26883 0.0
O597 O 0.63089 0.76465 0.30793 0.0
O598 O 0.64916 0.81399 0.26327 0.0
C599 C 0.64093 0.7537 0.42984 0.0
O600 O 0.64652 0.72167 0.40283 0.0
C601 C 0.69395 0.87382 0.30262 0.0
Zn602 Zn 0.2648 0.71192 0.35712 0.0
Zn603 Zn 0.32107 0.70805 0.44265 0.0
O604 O 0.3741 0.72577 0.40865 0.0
O605 O 0.33289 0.72456 0.34983 0.0
O606 O 0.3406 0.71008 0.50541 0.0
O607 O 0.22699 0.70849 0.41429 0.0
O608 O 0.27271 0.75543 0.43595 0.0
C609 C 0.37027 0.72913 0.36785 0.0
C610 C 0.27334 0.63795 0.39584 0.0
O611 O 0.30881 0.64704 0.41559 0.0
O612 O 0.24322 0.66544 0.399 0.0
C613 C 0.35706 0.74534 0.51856 0.0
O614 O 0.36152 0.77715 0.49109 0.0
C615 C 0.23337 0.74681 0.4254 0.0
Zn616 Zn 0.28779 0.17635 0.25602 0.0
Zn617 Zn 0.33753 0.18359 0.35485 0.0
O618 O 0.28741 0.2228 0.3642 0.0
O619 O 0.2538 0.2176 0.30074 0.0
O620 O 0.36284 0.18915 0.41533 0.0
O621 O 0.3312 0.12817 0.27505 0.0
O622 O 0.30805 0.12375 0.34061 0.0
C623 C 0.25673 0.23336 0.339 0.0
C624 C 0.36997 0.20395 0.26894 0.0
O625 O 0.37278 0.21635 0.30803 0.0
O626 O 0.35453 0.16695 0.26342 0.0
C627 C 0.36268 0.22741 0.42997 0.0
O628 O 0.35707 0.25941 0.40292 0.0
C629 C 0.30974 0.10715 0.3028 0.0
Zn630 Zn 0.26459 0.26856 0.63804 0.0
Zn631 Zn 0.32082 0.27236 0.55253 0.0
O632 O 0.37387 0.2546 0.58659 0.0
O633 O 0.33269 0.25587 0.64538 0.0
O634 O 0.34038 0.27035 0.48979 0.0
O635 O 0.22675 0.27201 0.58084 0.0
O636 O 0.2725 0.22502 0.55919 0.0
C637 C 0.37007 0.25126 0.62739 0.0
C638 C 0.27301 0.34252 0.5993 0.0
O639 O 0.30849 0.3334 0.57958 0.0
O640 O 0.24293 0.31505 0.59613 0.0
C641 C 0.35693 0.23511 0.47664 0.0
O642 O 0.36146 0.20326 0.50407 0.0
C643 C 0.23316 0.23369 0.56973 0.0
Zn644 Zn 0.71593 0.1766 0.73908 0.0
Zn645 Zn 0.66625 0.18389 0.64028 0.0
O646 O 0.71633 0.22304 0.63088 0.0
O647 O 0.74987 0.21782 0.69436 0.0
O648 O 0.64089 0.18946 0.57981 0.0
O649 O 0.67255 0.12847 0.72008 0.0
O650 O 0.6958 0.12403 0.65454 0.0
C651 C 0.74697 0.23358 0.6561 0.0
C652 C 0.63377 0.2043 0.72618 0.0
O653 O 0.631 0.21671 0.68709 0.0
O654 O 0.64921 0.16726 0.73171 0.0
C655 C 0.64097 0.22773 0.56519 0.0
O656 O 0.64655 0.25973 0.59224 0.0
C657 C 0.69408 0.10743 0.69236 0.0
Zn658 Zn 0.28782 0.80441 0.73901 0.0
Zn659 Zn 0.33745 0.79702 0.64024 0.0
O660 O 0.28736 0.75787 0.63084 0.0
O661 O 0.25384 0.76318 0.6943 0.0
O662 O 0.3628 0.79138 0.5798 0.0
O663 O 0.3312 0.85252 0.71997 0.0
O664 O 0.3079 0.85689 0.65443 0.0
C665 C 0.25671 0.74738 0.65606 0.0
C666 C 0.36997 0.77668 0.72617 0.0
O667 O 0.37271 0.76423 0.6871 0.0
O668 O 0.35454 0.81373 0.73166 0.0
C669 C 0.36274 0.7531 0.56523 0.0
O670 O 0.35715 0.72113 0.5923 0.0
C671 C 0.30964 0.87352 0.69223 0.0
loop_
_geom_bond_atom_site_label_1
_geom_bond_atom_site_label_2
_geom_bond_distance
_geom_bond_site_symmetry_2
_ccdc_geom_bond_type
Zn0 O3 2.031 . S
Zn0 O5 2.049 . S
Zn0 O10 2.067 . S
Zn1 O2 1.962 . S
Zn1 O4 1.986 . S
Zn1 O6 1.996 . S
Zn1 O9 1.943 . S
O2 Zn1 1.962 . S
O2 C7 1.254 . S
O3 Zn0 2.031 . S
O3 C7 1.269 . S
O4 Zn1 1.986 . S
O4 C11 1.262 . S
O5 Zn0 2.049 . S
O5 C13 1.260 . S
O6 Zn1 1.996 . S
O6 C13 1.257 . S
C7 O2 1.254 . S
C7 O3 1.269 . S
C8 O9 1.249 . S
C8 O10 1.270 . S
O9 Zn1 1.943 . S
O9 C8 1.249 . S
O10 Zn0 2.067 . S
O10 C8 1.270 . S
C11 O4 1.262 . S
C11 O12 1.232 . S
O12 C11 1.232 . S
C13 O5 1.260 . S
C13 O6 1.257 . S
Zn14 O17 2.031 . S
Zn14 O19 2.049 . S
Zn14 O24 2.067 . S
Zn15 O16 1.962 . S
Zn15 O18 1.986 . S
Zn15 O20 1.996 . S
Zn15 O23 1.943 . S
O16 Zn15 1.962 . S
O16 C21 1.254 . S
O17 Zn14 2.031 . S
O17 C21 1.269 . S
O18 Zn15 1.986 . S
O18 C25 1.262 . S
O19 Zn14 2.049 . S
O19 C27 1.260 . S
O20 Zn15 1.996 . S
O20 C27 1.257 . S
C21 O16 1.254 . S
C21 O17 1.269 . S
C22 O23 1.249 . S
C22 O24 1.270 . S
O23 Zn15 1.943 . S
O23 C22 1.249 . S
O24 Zn14 2.067 . S
O24 C22 1.270 . S
C25 O18 1.262 . S
C25 O26 1.232 . S
O26 C25 1.232 . S
C27 O19 1.260 . S
C27 O20 1.257 . S
Zn28 O31 2.031 . S
Zn28 O33 2.049 . S
Zn28 O38 2.067 . S
Zn29 O30 1.962 . S
Zn29 O32 1.986 . S
Zn29 O34 1.996 . S
Zn29 O37 1.943 . S
O30 Zn29 1.962 . S
O30 C35 1.254 . S
O31 Zn28 2.031 . S
O31 C35 1.269 . S
O32 Zn29 1.986 . S
O32 C39 1.262 . S
O33 Zn28 2.049 . S
O33 C41 1.260 . S
O34 Zn29 1.996 . S
O34 C41 1.257 . S
C35 O30 1.254 . S
C35 O31 1.269 . S
C36 O37 1.249 . S
C36 O38 1.270 . S
O37 Zn29 1.943 . S
O37 C36 1.249 . S
O38 Zn28 2.067 . S
O38 C36 1.270 . S
C39 O32 1.262 . S
C39 O40 1.232 . S
O40 C39 1.232 . S
C41 O33 1.260 . S
C41 O34 1.257 . S
Zn42 O45 2.031 . S
Zn42 O47 2.049 . S
Zn42 O52 2.067 . S
Zn43 O44 1.962 . S
Zn43 O46 1.986 . S
Zn43 O48 1.996 . S
Zn43 O51 1.943 . S
O44 Zn43 1.962 . S
O44 C49 1.254 . S
O45 Zn42 2.031 . S
O45 C49 1.269 . S
O46 Zn43 1.986 . S
O46 C53 1.262 . S
O47 Zn42 2.049 . S
O47 C55 1.260 . S
O48 Zn43 1.996 . S
O48 C55 1.257 . S
C49 O44 1.254 . S
C49 O45 1.269 . S
C50 O51 1.249 . S
C50 O52 1.270 . S
O51 Zn43 1.943 . S
O51 C50 1.249 . S
O52 Zn42 2.067 . S
O52 C50 1.270 . S
C53 O46 1.262 . S
C53 O54 1.232 . S
O54 C53 1.232 . S
C55 O47 1.260 . S
C55 O48 1.257 . S
Zn56 O59 2.031 . S
Zn56 O61 2.049 . S
Zn56 O66 2.067 . S
Zn57 O58 1.962 . S
Zn57 O60 1.986 . S
Zn57 O62 1.996 . S
Zn57 O65 1.943 . S
O58 Zn57 1.962 . S
O58 C63 1.254 . S
O59 Zn56 2.031 . S
O59 C63 1.269 . S
O60 Zn57 1.986 . S
O60 C67 1.262 . S
O61 Zn56 2.049 . S
O61 C69 1.260 . S
O62 Zn57 1.996 . S
O62 C69 1.257 . S
C63 O58 1.254 . S
C63 O59 1.269 . S
C64 O65 1.249 . S
C64 O66 1.270 . S
O65 Zn57 1.943 . S
O65 C64 1.249 . S
O66 Zn56 2.067 . S
O66 C64 1.270 . S
C67 O60 1.262 . S
C67 O68 1.232 . S
O68 C67 1.232 . S
C69 O61 1.260 . S
C69 O62 1.257 . S
Zn70 O73 2.031 . S
Zn70 O75 2.049 . S
Zn70 O80 2.067 . S
Zn71 O72 1.962 . S
Zn71 O74 1.986 . S
Zn71 O76 1.996 . S
Zn71 O79 1.943 . S
O72 Zn71 1.962 . S
O72 C77 1.254 . S
O73 Zn70 2.031 . S
O73 C77 1.269 . S
O74 Zn71 1.986 . S
O74 C81 1.262 . S
O75 Zn70 2.049 . S
O75 C83 1.260 . S
O76 Zn71 1.996 . S
O76 C83 1.257 . S
C77 O72 1.254 . S
C77 O73 1.269 . S
C78 O79 1.249 . S
C78 O80 1.270 . S
O79 Zn71 1.943 . S
O79 C78 1.249 . S
O80 Zn70 2.067 . S
O80 C78 1.270 . S
C81 O74 1.262 . S
C81 O82 1.232 . S
O82 C81 1.232 . S
C83 O75 1.260 . S
C83 O76 1.257 . S
Zn84 O87 2.031 . S
Zn84 O89 2.049 . S
Zn84 O94 2.067 . S
Zn85 O86 1.962 . S
Zn85 O88 1.986 . S
Zn85 O90 1.996 . S
Zn85 O93 1.943 . S
O86 Zn85 1.962 . S
O86 C91 1.254 . S
O87 Zn84 2.031 . S
O87 C91 1.269 . S
O88 Zn85 1.986 . S
O88 C95 1.262 . S
O89 Zn84 2.049 . S
O89 C97 1.260 . S
O90 Zn85 1.996 . S
O90 C97 1.257 . S
C91 O86 1.254 . S
C91 O87 1.269 . S
C92 O93 1.249 . S
C92 O94 1.270 . S
O93 Zn85 1.943 . S
O93 C92 1.249 . S
O94 Zn84 2.067 . S
O94 C92 1.270 . S
C95 O88 1.262 . S
C95 O96 1.232 . S
O96 C95 1.232 . S
C97 O89 1.260 . S
C97 O90 1.257 . S
Zn98 O101 2.031 . S
Zn98 O103 2.049 . S
Zn98 O108 2.067 . S
Zn99 O100 1.962 . S
Zn99 O102 1.986 . S
Zn99 O104 1.996 . S
Zn99 O107 1.943 . S
O100 Zn99 1.962 . S
O100 C105 1.254 . S
O101 Zn98 2.031 . S
O101 C105 1.269 . S
O102 Zn99 1.986 . S
O102 C109 1.262 . S
O103 Zn98 2.049 . S
O103 C111 1.260 . S
O104 Zn99 1.996 . S
O104 C111 1.257 . S
C105 O100 1.254 . S
C105 O101 1.269 . S
C106 O107 1.249 . S
C106 O108 1.270 . S
O107 Zn99 1.943 . S
O107 C106 1.249 . S
O108 Zn98 2.067 . S
O108 C106 1.270 . S
C109 O102 1.262 . S
C109 O110 1.232 . S
O110 C109 1.232 . S
C111 O103 1.260 . S
C111 O104 1.257 . S
Zn112 O115 2.031 . S
Zn112 O117 2.049 . S
Zn112 O122 2.067 . S
Zn113 O114 1.962 . S
Zn113 O116 1.986 . S
Zn113 O118 1.996 . S
Zn113 O121 1.943 . S
O114 Zn113 1.962 . S
O114 C119 1.254 . S
O115 Zn112 2.031 . S
O115 C119 1.269 . S
O116 Zn113 1.986 . S
O116 C123 1.262 . S
O117 Zn112 2.049 . S
O117 C125 1.260 . S
O118 Zn113 1.996 . S
O118 C125 1.257 . S
C119 O114 1.254 . S
C119 O115 1.269 . S
C120 O121 1.249 . S
C120 O122 1.270 . S
O121 Zn113 1.943 . S
O121 C120 1.249 . S
O122 Zn112 2.067 . S
O122 C120 1.270 . S
C123 O116 1.262 . S
C123 O124 1.232 . S
O124 C123 1.232 . S
C125 O117 1.260 . S
C125 O118 1.257 . S
Zn126 O129 2.031 . S
Zn126 O131 2.049 . S
Zn126 O136 2.067 . S
Zn127 O128 1.962 . S
Zn127 O130 1.986 . S
Zn127 O132 1.996 . S
Zn127 O135 1.943 . S
O128 Zn127 1.962 . S
O128 C133 1.254 . S
O129 Zn126 2.031 . S
O129 C133 1.269 . S
O130 Zn127 1.986 . S
O130 C137 1.262 . S
O131 Zn126 2.049 . S
O131 C139 1.260 . S
O132 Zn127 1.996 . S
O132 C139 1.257 . S
C133 O128 1.254 . S
C133 O129 1.269 . S
C134 O135 1.249 . S
C134 O136 1.270 . S
O135 Zn127 1.943 . S
O135 C134 1.249 . S
O136 Zn126 2.067 . S
O136 C134 1.270 . S
C137 O130 1.262 . S
C137 O138 1.232 . S
O138 C137 1.232 . S
C139 O131 1.260 . S
C139 O132 1.257 . S
Zn140 O143 2.031 . S
Zn140 O145 2.049 . S
Zn140 O150 2.067 . S
Zn141 O142 1.962 . S
Zn141 O144 1.986 . S
Zn141 O146 1.996 . S
Zn141 O149 1.943 . S
O142 Zn141 1.962 . S
O142 C147 1.254 . S
O143 Zn140 2.031 . S
O143 C147 1.269 . S
O144 Zn141 1.986 . S
O144 C151 1.262 . S
O145 Zn140 2.049 . S
O145 C153 1.260 . S
O146 Zn141 1.996 . S
O146 C153 1.257 . S
C147 O142 1.254 . S
C147 O143 1.269 . S
C148 O149 1.249 . S
C148 O150 1.270 . S
O149 Zn141 1.943 . S
O149 C148 1.249 . S
O150 Zn140 2.067 . S
O150 C148 1.270 . S
C151 O144 1.262 . S
C151 O152 1.232 . S
O152 C151 1.232 . S
C153 O145 1.260 . S
C153 O146 1.257 . S
Zn154 O157 2.031 . S
Zn154 O159 2.049 . S
Zn154 O164 2.067 . S
Zn155 O156 1.962 . S
Zn155 O158 1.986 . S
Zn155 O160 1.996 . S
Zn155 O163 1.943 . S
O156 Zn155 1.962 . S
O156 C161 1.254 . S
O157 Zn154 2.031 . S
O157 C161 1.269 . S
O158 Zn155 1.986 . S
O158 C165 1.262 . S
O159 Zn154 2.049 . S
O159 C167 1.260 . S
O160 Zn155 1.996 . S
O160 C167 1.257 . S
C161 O156 1.254 . S
C161 O157 1.269 . S
C162 O163 1.249 . S
C162 O164 1.270 . S
O163 Zn155 1.943 . S
O163 C162 1.249 . S
O164 Zn154 2.067 . S
O164 C162 1.270 . S
C165 O158 1.262 . S
C165 O166 1.232 . S
O166 C165 1.232 . S
C167 O159 1.260 . S
C167 O160 1.257 . S
Zn168 O171 2.031 . S
Zn168 O173 2.049 . S
Zn168 O178 2.067 . S
Zn169 O170 1.962 . S
Zn169 O172 1.986 . S
Zn169 O174 1.996 . S
Zn169 O177 1.943 . S
O170 Zn169 1.962 . S
O170 C175 1.254 . S
O171 Zn168 2.031 . S
O171 C175 1.269 . S
O172 Zn169 1.986 . S
O172 C179 1.262 . S
O173 Zn168 2.049 . S
O173 C181 1.260 . S
O174 Zn169 1.996 . S
O174 C181 1.257 . S
C175 O170 1.254 . S
C175 O171 1.269 . S
C176 O177 1.249 . S
C176 O178 1.270 . S
O177 Zn169 1.943 . S
O177 C176 1.249 . S
O178 Zn168 2.067 . S
O178 C176 1.270 . S
C179 O172 1.262 . S
C179 O180 1.232 . S
O180 C179 1.232 . S
C181 O173 1.260 . S
C181 O174 1.257 . S
Zn182 O185 2.031 . S
Zn182 O187 2.049 . S
Zn182 O192 2.067 . S
Zn183 O184 1.962 . S
Zn183 O186 1.986 . S
Zn183 O188 1.996 . S
Zn183 O191 1.943 . S
O184 Zn183 1.962 . S
O184 C189 1.254 . S
O185 Zn182 2.031 . S
O185 C189 1.269 . S
O186 Zn183 1.986 . S
O186 C193 1.262 . S
O187 Zn182 2.049 . S
O187 C195 1.260 . S
O188 Zn183 1.996 . S
O188 C195 1.257 . S
C189 O184 1.254 . S
C189 O185 1.269 . S
C190 O191 1.249 . S
C190 O192 1.270 . S
O191 Zn183 1.943 . S
O191 C190 1.249 . S
O192 Zn182 2.067 . S
O192 C190 1.270 . S
C193 O186 1.262 . S
C193 O194 1.232 . S
O194 C193 1.232 . S
C195 O187 1.260 . S
C195 O188 1.257 . S
Zn196 O199 2.031 . S
Zn196 O201 2.049 . S
Zn196 O206 2.067 . S
Zn197 O198 1.962 . S
Zn197 O200 1.986 . S
Zn197 O202 1.996 . S
Zn197 O205 1.943 . S
O198 Zn197 1.962 . S
O198 C203 1.254 . S
O199 Zn196 2.031 . S
O199 C203 1.269 . S
O200 Zn197 1.986 . S
O200 C207 1.262 . S
O201 Zn196 2.049 . S
O201 C209 1.260 . S
O202 Zn197 1.996 . S
O202 C209 1.257 . S
C203 O198 1.254 . S
C203 O199 1.269 . S
C204 O205 1.249 . S
C204 O206 1.270 . S
O205 Zn197 1.943 . S
O205 C204 1.249 . S
O206 Zn196 2.067 . S
O206 C204 1.270 . S
C207 O200 1.262 . S
C207 O208 1.232 . S
O208 C207 1.232 . S
C209 O201 1.260 . S
C209 O202 1.257 . S
Zn210 O213 2.031 . S
Zn210 O215 2.049 . S
Zn210 O220 2.067 . S
Zn211 O212 1.962 . S
Zn211 O214 1.986 . S
Zn211 O216 1.996 . S
Zn211 O219 1.943 . S
O212 Zn211 1.962 . S
O212 C217 1.254 . S
O213 Zn210 2.031 . S
O213 C217 1.269 . S
O214 Zn211 1.986 . S
O214 C221 1.262 . S
O215 Zn210 2.049 . S
O215 C223 1.260 . S
O216 Zn211 1.996 . S
O216 C223 1.257 . S
C217 O212 1.254 . S
C217 O213 1.269 . S
C218 O219 1.249 . S
C218 O220 1.270 . S
O219 Zn211 1.943 . S
O219 C218 1.249 . S
O220 Zn210 2.067 . S
O220 C218 1.270 . S
C221 O214 1.262 . S
C221 O222 1.232 . S
O222 C221 1.232 . S
C223 O215 1.260 . S
C223 O216 1.257 . S
Zn224 O227 2.031 . S
Zn224 O229 2.049 . S
Zn224 O234 2.067 . S
Zn225 O226 1.962 . S
Zn225 O228 1.986 . S
Zn225 O230 1.996 . S
Zn225 O233 1.943 . S
O226 Zn225 1.962 . S
O226 C231 1.254 . S
O227 Zn224 2.031 . S
O227 C231 1.269 . S
O228 Zn225 1.986 . S
O228 C235 1.262 . S
O229 Zn224 2.049 . S
O229 C237 1.260 . S
O230 Zn225 1.996 . S
O230 C237 1.257 . S
C231 O226 1.254 . S
C231 O227 1.269 . S
C232 O233 1.249 . S
C232 O234 1.270 . S
O233 Zn225 1.943 . S
O233 C232 1.249 . S
O234 Zn224 2.067 . S
O234 C232 1.270 . S
C235 O228 1.262 . S
C235 O236 1.232 . S
O236 C235 1.232 . S
C237 O229 1.260 . S
C237 O230 1.257 . S
Zn238 O241 2.031 . S
Zn238 O243 2.049 . S
Zn238 O248 2.067 . S
Zn239 O240 1.962 . S
Zn239 O242 1.986 . S
Zn239 O244 1.996 . S
Zn239 O247 1.943 . S
O240 Zn239 1.962 . S
O240 C245 1.254 . S
O241 Zn238 2.031 . S
O241 C245 1.269 . S
O242 Zn239 1.986 . S
O242 C249 1.262 . S
O243 Zn238 2.049 . S
O243 C251 1.260 . S
O244 Zn239 1.996 . S
O244 C251 1.257 . S
C245 O240 1.254 . S
C245 O241 1.269 . S
C246 O247 1.249 . S
C246 O248 1.270 . S
O247 Zn239 1.943 . S
O247 C246 1.249 . S
O248 Zn238 2.067 . S
O248 C246 1.270 . S
C249 O242 1.262 . S
C249 O250 1.232 . S
O250 C249 1.232 . S
C251 O243 1.260 . S
C251 O244 1.257 . S
Zn252 O255 2.031 . S
Zn252 O257 2.049 . S
Zn252 O262 2.067 . S
Zn253 O254 1.962 . S
Zn253 O256 1.986 . S
Zn253 O258 1.996 . S
Zn253 O261 1.943 . S
O254 Zn253 1.962 . S
O254 C259 1.254 . S
O255 Zn252 2.031 . S
O255 C259 1.269 . S
O256 Zn253 1.986 . S
O256 C263 1.262 . S
O257 Zn252 2.049 . S
O257 C265 1.260 . S
O258 Zn253 1.996 . S
O258 C265 1.257 . S
C259 O254 1.254 . S
C259 O255 1.269 . S
C260 O261 1.249 . S
C260 O262 1.270 . S
O261 Zn253 1.943 . S
O261 C260 1.249 . S
O262 Zn252 2.067 . S
O262 C260 1.270 . S
C263 O256 1.262 . S
C263 O264 1.232 . S
O264 C263 1.232 . S
C265 O257 1.260 . S
C265 O258 1.257 . S
Zn266 O269 2.031 . S
Zn266 O271 2.049 . S
Zn266 O276 2.067 . S
Zn267 O268 1.962 . S
Zn267 O270 1.986 . S
Zn267 O272 1.996 . S
Zn267 O275 1.943 . S
O268 Zn267 1.962 . S
O268 C273 1.254 . S
O269 Zn266 2.031 . S
O269 C273 1.269 . S
O270 Zn267 1.986 . S
O270 C277 1.262 . S
O271 Zn266 2.049 . S
O271 C279 1.260 . S
O272 Zn267 1.996 . S
O272 C279 1.257 . S
C273 O268 1.254 . S
C273 O269 1.269 . S
C274 O275 1.249 . S
C274 O276 1.270 . S
O275 Zn267 1.943 . S
O275 C274 1.249 . S
O276 Zn266 2.067 . S
O276 C274 1.270 . S
C277 O270 1.262 . S
C277 O278 1.232 . S
O278 C277 1.232 . S
C279 O271 1.260 . S
C279 O272 1.257 . S
Zn280 O283 2.031 . S
Zn280 O285 2.049 . S
Zn280 O290 2.067 . S
Zn281 O282 1.962 . S
Zn281 O284 1.986 . S
Zn281 O286 1.996 . S
Zn281 O289 1.943 . S
O282 Zn281 1.962 . S
O282 C287 1.254 . S
O283 Zn280 2.031 . S
O283 C287 1.269 . S
O284 Zn281 1.986 . S
O284 C291 1.262 . S
O285 Zn280 2.049 . S
O285 C293 1.260 . S
O286 Zn281 1.996 . S
O286 C293 1.257 . S
C287 O282 1.254 . S
C287 O283 1.269 . S
C288 O289 1.249 . S
C288 O290 1.270 . S
O289 Zn281 1.943 . S
O289 C288 1.249 . S
O290 Zn280 2.067 . S
O290 C288 1.270 . S
C291 O284 1.262 . S
C291 O292 1.232 . S
O292 C291 1.232 . S
C293 O285 1.260 . S
C293 O286 1.257 . S
Zn294 O297 2.031 . S
Zn294 O299 2.049 . S
Zn294 O304 2.067 . S
Zn295 O296 1.962 . S
Zn295 O298 1.986 . S
Zn295 O300 1.996 . S
Zn295 O303 1.943 . S
O296 Zn295 1.962 . S
O296 C301 1.254 . S
O297 Zn294 2.031 . S
O297 C301 1.269 . S
O298 Zn295 1.986 . S
O298 C305 1.262 . S
O299 Zn294 2.049 . S
O299 C307 1.260 . S
O300 Zn295 1.996 . S
O300 C307 1.257 . S
C301 O296 1.254 . S
C301 O297 1.269 . S
C302 O303 1.249 . S
C302 O304 1.270 . S
O303 Zn295 1.943 . S
O303 C302 1.249 . S
O304 Zn294 2.067 . S
O304 C302 1.270 . S
C305 O298 1.262 . S
C305 O306 1.232 . S
O306 C305 1.232 . S
C307 O299 1.260 . S
C307 O300 1.257 . S
Zn308 O311 2.031 . S
Zn308 O313 2.049 . S
Zn308 O318 2.067 . S
Zn309 O310 1.962 . S
Zn309 O312 1.986 . S
Zn309 O314 1.996 . S
Zn309 O317 1.943 . S
O310 Zn309 1.962 . S
O310 C315 1.254 . S
O311 Zn308 2.031 . S
O311 C315 1.269 . S
O312 Zn309 1.986 . S
O312 C319 1.262 . S
O313 Zn308 2.049 . S
O313 C321 1.260 . S
O314 Zn309 1.996 . S
O314 C321 1.257 . S
C315 O310 1.254 . S
C315 O311 1.269 . S
C316 O317 1.249 . S
C316 O318 1.270 . S
O317 Zn309 1.943 . S
O317 C316 1.249 . S
O318 Zn308 2.067 . S
O318 C316 1.270 . S
C319 O312 1.262 . S
C319 O320 1.232 . S
O320 C319 1.232 . S
C321 O313 1.260 . S
C321 O314 1.257 . S
Zn322 O325 2.031 . S
Zn322 O327 2.049 . S
Zn322 O332 2.067 . S
Zn323 O324 1.962 . S
Zn323 O326 1.986 . S
Zn323 O328 1.996 . S
Zn323 O331 1.943 . S
O324 Zn323 1.962 . S
O324 C329 1.254 . S
O325 Zn322 2.031 . S
O325 C329 1.269 . S
O326 Zn323 1.986 . S
O326 C333 1.262 . S
O327 Zn322 2.049 . S
O327 C335 1.260 . S
O328 Zn323 1.996 . S
O328 C335 1.257 . S
C329 O324 1.254 . S
C329 O325 1.269 . S
C330 O331 1.249 . S
C330 O332 1.270 . S
O331 Zn323 1.943 . S
O331 C330 1.249 . S
O332 Zn322 2.067 . S
O332 C330 1.270 . S
C333 O326 1.262 . S
C333 O334 1.232 . S
O334 C333 1.232 . S
C335 O327 1.260 . S
C335 O328 1.257 . S
Zn336 O339 2.031 . S
Zn336 O341 2.049 . S
Zn336 O346 2.067 . S
Zn337 O338 1.962 . S
Zn337 O340 1.986 . S
Zn337 O342 1.996 . S
Zn337 O345 1.943 . S
O338 Zn337 1.962 . S
O338 C343 1.254 . S
O339 Zn336 2.031 . S
O339 C343 1.269 . S
O340 Zn337 1.986 . S
O340 C347 1.262 . S
O341 Zn336 2.049 . S
O341 C349 1.260 . S
O342 Zn337 1.996 . S
O342 C349 1.257 . S
C343 O338 1.254 . S
C343 O339 1.269 . S
C344 O345 1.249 . S
C344 O346 1.270 . S
O345 Zn337 1.943 . S
O345 C344 1.249 . S
O346 Zn336 2.067 . S
O346 C344 1.270 . S
C347 O340 1.262 . S
C347 O348 1.232 . S
O348 C347 1.232 . S
C349 O341 1.260 . S
C349 O342 1.257 . S
Zn350 O353 2.031 . S
Zn350 O355 2.049 . S
Zn350 O360 2.067 . S
Zn351 O352 1.962 . S
Zn351 O354 1.986 . S
Zn351 O356 1.996 . S
Zn351 O359 1.943 . S
O352 Zn351 1.962 . S
O352 C357 1.254 . S
O353 Zn350 2.031 . S
O353 C357 1.269 . S
O354 Zn351 1.986 . S
O354 C361 1.262 . S
O355 Zn350 2.049 . S
O355 C363 1.260 . S
O356 Zn351 1.996 . S
O356 C363 1.257 . S
C357 O352 1.254 . S
C357 O353 1.269 . S
C358 O359 1.249 . S
C358 O360 1.270 . S
O359 Zn351 1.943 . S
O359 C358 1.249 . S
O360 Zn350 2.067 . S
O360 C358 1.270 . S
C361 O354 1.262 . S
C361 O362 1.232 . S
O362 C361 1.232 . S
C363 O355 1.260 . S
C363 O356 1.257 . S
Zn364 O367 2.031 . S
Zn364 O369 2.049 . S
Zn364 O374 2.067 . S
Zn365 O366 1.962 . S
Zn365 O368 1.986 . S
Zn365 O370 1.996 . S
Zn365 O373 1.943 . S
O366 Zn365 1.962 . S
O366 C371 1.254 . S
O367 Zn364 2.031 . S
O367 C371 1.269 . S
O368 Zn365 1.986 . S
O368 C375 1.262 . S
O369 Zn364 2.049 . S
O369 C377 1.260 . S
O370 Zn365 1.996 . S
O370 C377 1.257 . S
C371 O366 1.254 . S
C371 O367 1.269 . S
C372 O373 1.249 . S
C372 O374 1.270 . S
O373 Zn365 1.943 . S
O373 C372 1.249 . S
O374 Zn364 2.067 . S
O374 C372 1.270 . S
C375 O368 1.262 . S
C375 O376 1.232 . S
O376 C375 1.232 . S
C377 O369 1.260 . S
C377 O370 1.257 . S
Zn378 O381 2.031 . S
Zn378 O383 2.049 . S
Zn378 O388 2.067 . S
Zn379 O380 1.962 . S
Zn379 O382 1.986 . S
Zn379 O384 1.996 . S
Zn379 O387 1.943 . S
O380 Zn379 1.962 . S
O380 C385 1.254 . S
O381 Zn378 2.031 . S
O381 C385 1.269 . S
O382 Zn379 1.986 . S
O382 C389 1.262 . S
O383 Zn378 2.049 . S
O383 C391 1.260 . S
O384 Zn379 1.996 . S
O384 C391 1.257 . S
C385 O380 1.254 . S
C385 O381 1.269 . S
C386 O387 1.249 . S
C386 O388 1.270 . S
O387 Zn379 1.943 . S
O387 C386 1.249 . S
O388 Zn378 2.067 . S
O388 C386 1.270 . S
C389 O382 1.262 . S
C389 O390 1.232 . S
O390 C389 1.232 . S
C391 O383 1.260 . S
C391 O384 1.257 . S
Zn392 O395 2.031 . S
Zn392 O397 2.049 . S
Zn392 O402 2.067 . S
Zn393 O394 1.962 . S
Zn393 O396 1.986 . S
Zn393 O398 1.996 . S
Zn393 O401 1.943 . S
O394 Zn393 1.962 . S
O394 C399 1.254 . S
O395 Zn392 2.031 . S
O395 C399 1.269 . S
O396 Zn393 1.986 . S
O396 C403 1.262 . S
O397 Zn392 2.049 . S
O397 C405 1.260 . S
O398 Zn393 1.996 . S
O398 C405 1.257 . S
C399 O394 1.254 . S
C399 O395 1.269 . S
C400 O401 1.249 . S
C400 O402 1.270 . S
O401 Zn393 1.943 . S
O401 C400 1.249 . S
O402 Zn392 2.067 . S
O402 C400 1.270 . S
C403 O396 1.262 . S
C403 O404 1.232 . S
O404 C403 1.232 . S
C405 O397 1.260 . S
C405 O398 1.257 . S
Zn406 O409 2.031 . S
Zn406 O411 2.049 . S
Zn406 O416 2.067 . S
Zn407 O408 1.962 . S
Zn407 O410 1.986 . S
Zn407 O412 1.996 . S
Zn407 O415 1.943 . S
O408 Zn407 1.962 . S
O408 C413 1.254 . S
O409 Zn406 2.031 . S
O409 C413 1.269 . S
O410 Zn407 1.986 . S
O410 C417 1.262 . S
O411 Zn406 2.049 . S
O411 C419 1.260 . S
O412 Zn407 1.996 . S
O412 C419 1.257 . S
C413 O408 1.254 . S
C413 O409 1.269 . S
C414 O415 1.249 . S
C414 O416 1.270 . S
O415 Zn407 1.943 . S
O415 C414 1.249 . S
O416 Zn406 2.067 . S
O416 C414 1.270 . S
C417 O410 1.262 . S
C417 O418 1.232 . S
O418 C417 1.232 . S
C419 O411 1.260 . S
C419 O412 1.257 . S
Zn420 O423 2.031 . S
Zn420 O425 2.049 . S
Zn420 O430 2.067 . S
Zn421 O422 1.962 . S
Zn421 O424 1.986 . S
Zn421 O426 1.996 . S
Zn421 O429 1.943 . S
O422 Zn421 1.962 . S
O422 C427 1.254 . S
O423 Zn420 2.031 . S
O423 C427 1.269 . S
O424 Zn421 1.986 . S
O424 C431 1.262 . S
O425 Zn420 2.049 . S
O425 C433 1.260 . S
O426 Zn421 1.996 . S
O426 C433 1.257 . S
C427 O422 1.254 . S
C427 O423 1.269 . S
C428 O429 1.249 . S
C428 O430 1.270 . S
O429 Zn421 1.943 . S
O429 C428 1.249 . S
O430 Zn420 2.067 . S
O430 C428 1.270 . S
C431 O424 1.262 . S
C431 O432 1.232 . S
O432 C431 1.232 . S
C433 O425 1.260 . S
C433 O426 1.257 . S
Zn434 O437 2.031 . S
Zn434 O439 2.049 . S
Zn434 O444 2.067 . S
Zn435 O436 1.962 . S
Zn435 O438 1.986 . S
Zn435 O440 1.996 . S
Zn435 O443 1.943 . S
O436 Zn435 1.962 . S
O436 C441 1.254 . S
O437 Zn434 2.031 . S
O437 C441 1.269 . S
O438 Zn435 1.986 . S
O438 C445 1.262 . S
O439 Zn434 2.049 . S
O439 C447 1.260 . S
O440 Zn435 1.996 . S
O440 C447 1.257 . S
C441 O436 1.254 . S
C441 O437 1.269 . S
C442 O443 1.249 . S
C442 O444 1.270 . S
O443 Zn435 1.943 . S
O443 C442 1.249 . S
O444 Zn434 2.067 . S
O444 C442 1.270 . S
C445 O438 1.262 . S
C445 O446 1.232 . S
O446 C445 1.232 . S
C447 O439 1.260 . S
C447 O440 1.257 . S
Zn448 O451 2.031 . S
Zn448 O453 2.049 . S
Zn448 O458 2.067 . S
Zn449 O450 1.962 . S
Zn449 O452 1.986 . S
Zn449 O454 1.996 . S
Zn449 O457 1.943 . S
O450 Zn449 1.962 . S
O450 C455 1.254 . S
O451 Zn448 2.031 . S
O451 C455 1.269 . S
O452 Zn449 1.986 . S
O452 C459 1.262 . S
O453 Zn448 2.049 . S
O453 C461 1.260 . S
O454 Zn449 1.996 . S
O454 C461 1.257 . S
C455 O450 1.254 . S
C455 O451 1.269 . S
C456 O457 1.249 . S
C456 O458 1.270 . S
O457 Zn449 1.943 . S
O457 C456 1.249 . S
O458 Zn448 2.067 . S
O458 C456 1.270 . S
C459 O452 1.262 . S
C459 O460 1.232 . S
O460 C459 1.232 . S
C461 O453 1.260 . S
C461 O454 1.257 . S
Zn462 O465 2.031 . S
Zn462 O467 2.049 . S
Zn462 O472 2.067 . S
Zn463 O464 1.962 . S
Zn463 O466 1.986 . S
Zn463 O468 1.996 . S
Zn463 O471 1.943 . S
O464 Zn463 1.962 . S
O464 C469 1.254 . S
O465 Zn462 2.031 . S
O465 C469 1.269 . S
O466 Zn463 1.986 . S
O466 C473 1.262 . S
O467 Zn462 2.049 . S
O467 C475 1.260 . S
O468 Zn463 1.996 . S
O468 C475 1.257 . S
C469 O464 1.254 . S
C469 O465 1.269 . S
C470 O471 1.249 . S
C470 O472 1.270 . S
O471 Zn463 1.943 . S
O471 C470 1.249 . S
O472 Zn462 2.067 . S
O472 C470 1.270 . S
C473 O466 1.262 . S
C473 O474 1.232 . S
O474 C473 1.232 . S
C475 O467 1.260 . S
C475 O468 1.257 . S
Zn476 O479 2.031 . S
Zn476 O481 2.049 . S
Zn476 O486 2.067 . S
Zn477 O478 1.962 . S
Zn477 O480 1.986 . S
Zn477 O482 1.996 . S
Zn477 O485 1.943 . S
O478 Zn477 1.962 . S
O478 C483 1.254 . S
O479 Zn476 2.031 . S
O479 C483 1.269 . S
O480 Zn477 1.986 . S
O480 C487 1.262 . S
O481 Zn476 2.049 . S
O481 C489 1.260 . S
O482 Zn477 1.996 . S
O482 C489 1.257 . S
C483 O478 1.254 . S
C483 O479 1.269 . S
C484 O485 1.249 . S
C484 O486 1.270 . S
O485 Zn477 1.943 . S
O485 C484 1.249 . S
O486 Zn476 2.067 . S
O486 C484 1.270 . S
C487 O480 1.262 . S
C487 O488 1.232 . S
O488 C487 1.232 . S
C489 O481 1.260 . S
C489 O482 1.257 . S
Zn490 O493 2.031 . S
Zn490 O495 2.049 . S
Zn490 O500 2.067 . S
Zn491 O492 1.962 . S
Zn491 O494 1.986 . S
Zn491 O496 1.996 . S
Zn491 O499 1.943 . S
O492 Zn491 1.962 . S
O492 C497 1.254 . S
O493 Zn490 2.031 . S
O493 C497 1.269 . S
O494 Zn491 1.986 . S
O494 C501 1.262 . S
O495 Zn490 2.049 . S
O495 C503 1.260 . S
O496 Zn491 1.996 . S
O496 C503 1.257 . S
C497 O492 1.254 . S
C497 O493 1.269 . S
C498 O499 1.249 . S
C498 O500 1.270 . S
O499 Zn491 1.943 . S
O499 C498 1.249 . S
O500 Zn490 2.067 . S
O500 C498 1.270 . S
C501 O494 1.262 . S
C501 O502 1.232 . S
O502 C501 1.232 . S
C503 O495 1.260 . S
C503 O496 1.257 . S
Zn504 O507 2.031 . S
Zn504 O509 2.049 . S
Zn504 O514 2.067 . S
Zn505 O506 1.962 . S
Zn505 O508 1.986 . S
Zn505 O510 1.996 . S
Zn505 O513 1.943 . S
O506 Zn505 1.962 . S
O506 C511 1.254 . S
O507 Zn504 2.031 . S
O507 C511 1.269 . S
O508 Zn505 1.986 . S
O508 C515 1.262 . S
O509 Zn504 2.049 . S
O509 C517 1.260 . S
O510 Zn505 1.996 . S
O510 C517 1.257 . S
C511 O506 1.254 . S
C511 O507 1.269 . S
C512 O513 1.249 . S
C512 O514 1.270 . S
O513 Zn505 1.943 . S
O513 C512 1.249 . S
O514 Zn504 2.067 . S
O514 C512 1.270 . S
C515 O508 1.262 . S
C515 O516 1.232 . S
O516 C515 1.232 . S
C517 O509 1.260 . S
C517 O510 1.257 . S
Zn518 O521 2.031 . S
Zn518 O523 2.049 . S
Zn518 O528 2.067 . S
Zn519 O520 1.962 . S
Zn519 O522 1.986 . S
Zn519 O524 1.996 . S
Zn519 O527 1.943 . S
O520 Zn519 1.962 . S
O520 C525 1.254 . S
O521 Zn518 2.031 . S
O521 C525 1.269 . S
O522 Zn519 1.986 . S
O522 C529 1.262 . S
O523 Zn518 2.049 . S
O523 C531 1.260 . S
O524 Zn519 1.996 . S
O524 C531 1.257 . S
C525 O520 1.254 . S
C525 O521 1.269 . S
C526 O527 1.249 . S
C526 O528 1.270 . S
O527 Zn519 1.943 . S
O527 C526 1.249 . S
O528 Zn518 2.067 . S
O528 C526 1.270 . S
C529 O522 1.262 . S
C529 O530 1.232 . S
O530 C529 1.232 . S
C531 O523 1.260 . S
C531 O524 1.257 . S
Zn532 O535 2.031 . S
Zn532 O537 2.049 . S
Zn532 O542 2.067 . S
Zn533 O534 1.962 . S
Zn533 O536 1.986 . S
Zn533 O538 1.996 . S
Zn533 O541 1.943 . S
O534 Zn533 1.962 . S
O534 C539 1.254 . S
O535 Zn532 2.031 . S
O535 C539 1.269 . S
O536 Zn533 1.986 . S
O536 C543 1.262 . S
O537 Zn532 2.049 . S
O537 C545 1.260 . S
O538 Zn533 1.996 . S
O538 C545 1.257 . S
C539 O534 1.254 . S
C539 O535 1.269 . S
C540 O541 1.249 . S
C540 O542 1.270 . S
O541 Zn533 1.943 . S
O541 C540 1.249 . S
O542 Zn532 2.067 . S
O542 C540 1.270 . S
C543 O536 1.262 . S
C543 O544 1.232 . S
O544 C543 1.232 . S
C545 O537 1.260 . S
C545 O538 1.257 . S
Zn546 O549 2.031 . S
Zn546 O551 2.049 . S
Zn546 O556 2.067 . S
Zn547 O548 1.962 . S
Zn547 O550 1.986 . S
Zn547 O552 1.996 . S
Zn547 O555 1.943 . S
O548 Zn547 1.962 . S
O548 C553 1.254 . S
O549 Zn546 2.031 . S
O549 C553 1.269 . S
O550 Zn547 1.986 . S
O550 C557 1.262 . S
O551 Zn546 2.049 . S
O551 C559 1.260 . S
O552 Zn547 1.996 . S
O552 C559 1.257 . S
C553 O548 1.254 . S
C553 O549 1.269 . S
C554 O555 1.249 . S
C554 O556 1.270 . S
O555 Zn547 1.943 . S
O555 C554 1.249 . S
O556 Zn546 2.067 . S
O556 C554 1.270 . S
C557 O550 1.262 . S
C557 O558 1.232 . S
O558 C557 1.232 . S
C559 O551 1.260 . S
C559 O552 1.257 . S
Zn560 O563 2.031 . S
Zn560 O565 2.049 . S
Zn560 O570 2.067 . S
Zn561 O562 1.962 . S
Zn561 O564 1.986 . S
Zn561 O566 1.996 . S
Zn561 O569 1.943 . S
O562 Zn561 1.962 . S
O562 C567 1.254 . S
O563 Zn560 2.031 . S
O563 C567 1.269 . S
O564 Zn561 1.986 . S
O564 C571 1.262 . S
O565 Zn560 2.049 . S
O565 C573 1.260 . S
O566 Zn561 1.996 . S
O566 C573 1.257 . S
C567 O562 1.254 . S
C567 O563 1.269 . S
C568 O569 1.249 . S
C568 O570 1.270 . S
O569 Zn561 1.943 . S
O569 C568 1.249 . S
O570 Zn560 2.067 . S
O570 C568 1.270 . S
C571 O564 1.262 . S
C571 O572 1.232 . S
O572 C571 1.232 . S
C573 O565 1.260 . S
C573 O566 1.257 . S
Zn574 O577 2.031 . S
Zn574 O579 2.049 . S
Zn574 O584 2.067 . S
Zn575 O576 1.962 . S
Zn575 O578 1.986 . S
Zn575 O580 1.996 . S
Zn575 O583 1.943 . S
O576 Zn575 1.962 . S
O576 C581 1.254 . S
O577 Zn574 2.031 . S
O577 C581 1.269 . S
O578 Zn575 1.986 . S
O578 C585 1.262 . S
O579 Zn574 2.049 . S
O579 C587 1.260 . S
O580 Zn575 1.996 . S
O580 C587 1.257 . S
C581 O576 1.254 . S
C581 O577 1.269 . S
C582 O583 1.249 . S
C582 O584 1.270 . S
O583 Zn575 1.943 . S
O583 C582 1.249 . S
O584 Zn574 2.067 . S
O584 C582 1.270 . S
C585 O578 1.262 . S
C585 O586 1.232 . S
O586 C585 1.232 . S
C587 O579 1.260 . S
C587 O580 1.257 . S
Zn588 O591 2.031 . S
Zn588 O593 2.049 . S
Zn588 O598 2.067 . S
Zn589 O590 1.962 . S
Zn589 O592 1.986 . S
Zn589 O594 1.996 . S
Zn589 O597 1.943 . S
O590 Zn589 1.962 . S
O590 C595 1.254 . S
O591 Zn588 2.031 . S
O591 C595 1.269 . S
O592 Zn589 1.986 . S
O592 C599 1.262 . S
O593 Zn588 2.049 . S
O593 C601 1.260 . S
O594 Zn589 1.996 . S
O594 C601 1.257 . S
C595 O590 1.254 . S
C595 O591 1.269 . S
C596 O597 1.249 . S
C596 O598 1.270 . S
O597 Zn589 1.943 . S
O597 C596 1.249 . S
O598 Zn588 2.067 . S
O598 C596 1.270 . S
C599 O592 1.262 . S
C599 O600 1.232 . S
O600 C599 1.232 . S
C601 O593 1.260 . S
C601 O594 1.257 . S
Zn602 O605 2.031 . S
Zn602 O607 2.049 . S
Zn602 O612 2.067 . S
Zn603 O604 1.962 . S
Zn603 O606 1.986 . S
Zn603 O608 1.996 . S
Zn603 O611 1.943 . S
O604 Zn603 1.962 . S
O604 C609 1.254 . S
O605 Zn602 2.031 . S
O605 C609 1.269 . S
O606 Zn603 1.986 . S
O606 C613 1.262 . S
O607 Zn602 2.049 . S
O607 C615 1.260 . S
O608 Zn603 1.996 . S
O608 C615 1.257 . S
C609 O604 1.254 . S
C609 O605 1.269 . S
C610 O611 1.249 . S
C610 O612 1.270 . S
O611 Zn603 1.943 . S
O611 C610 1.249 . S
O612 Zn602 2.067 . S
O612 C610 1.270 . S
C613 O606 1.262 . S
C613 O614 1.232 . S
O614 C613 1.232 . S
C615 O607 1.260 . S
C615 O608 1.257 . S
Zn616 O619 2.031 . S
Zn616 O621 2.049 . S
Zn616 O626 2.067 . S
Zn617 O618 1.962 . S
Zn617 O620 1.986 . S
Zn617 O622 1.996 . S
Zn617 O625 1.943 . S
O618 Zn617 1.962 . S
O618 C623 1.254 . S
O619 Zn616 2.031 . S
O619 C623 1.269 . S
O620 Zn617 1.986 . S
O620 C627 1.262 . S
O621 Zn616 2.049 . S
O621 C629 1.260 . S
O622 Zn617 1.996 . S
O622 C629 1.257 . S
C623 O618 1.254 . S
C623 O619 1.269 . S
C624 O625 1.249 . S
C624 O626 1.270 . S
O625 Zn617 1.943 . S
O625 C624 1.249 . S
O626 Zn616 2.067 . S
O626 C624 1.270 . S
C627 O620 1.262 . S
C627 O628 1.232 . S
O628 C627 1.232 . S
C629 O621 1.260 . S
C629 O622 1.257 . S
Zn630 O633 2.031 . S
Zn630 O635 2.049 . S
Zn630 O640 2.067 . S
Zn631 O632 1.962 . S
Zn631 O634 1.986 . S
Zn631 O636 1.996 . S
Zn631 O639 1.943 . S
O632 Zn631 1.962 . S
O632 C637 1.254 . S
O633 Zn630 2.031 . S
O633 C637 1.269 . S
O634 Zn631 1.986 . S
O634 C641 1.262 . S
O635 Zn630 2.049 . S
O635 C643 1.260 . S
O636 Zn631 1.996 . S
O636 C643 1.257 . S
C637 O632 1.254 . S
C637 O633 1.269 . S
C638 O639 1.249 . S
C638 O640 1.270 . S
O639 Zn631 1.943 . S
O639 C638 1.249 . S
O640 Zn630 2.067 . S
O640 C638 1.270 . S
C641 O634 1.262 . S
C641 O642 1.232 . S
O642 C641 1.232 . S
C643 O635 1.260 . S
C643 O636 1.257 . S
Zn644 O647 2.031 . S
Zn644 O649 2.049 . S
Zn644 O654 2.067 . S
Zn645 O646 1.962 . S
Zn645 O648 1.986 . S
Zn645 O650 1.996 . S
Zn645 O653 1.943 . S
O646 Zn645 1.962 . S
O646 C651 1.254 . S
O647 Zn644 2.031 . S
O647 C651 1.269 . S
O648 Zn645 1.986 . S
O648 C655 1.262 . S
O649 Zn644 2.049 . S
O649 C657 1.260 . S
O650 Zn645 1.996 . S
O650 C657 1.257 . S
C651 O646 1.254 . S
C651 O647 1.269 . S
C652 O653 1.249 . S
C652 O654 1.270 . S
O653 Zn645 1.943 . S
O653 C652 1.249 . S
O654 Zn644 2.067 . S
O654 C652 1.270 . S
C655 O648 1.262 . S
C655 O656 1.232 . S
O656 C655 1.232 . S
C657 O649 1.260 . S
C657 O650 1.257 . S
Zn658 O661 2.031 . S
Zn658 O663 2.049 . S
Zn658 O668 2.067 . S
Zn659 O660 1.962 . S
Zn659 O662 1.986 . S
Zn659 O664 1.996 . S
Zn659 O667 1.943 . S
O660 Zn659 1.962 . S
O660 C665 1.254 . S
O661 Zn658 2.031 . S
O661 C665 1.269 . S
O662 Zn659 1.986 . S
O662 C669 1.262 . S
O663 Zn658 2.049 . S
O663 C671 1.260 . S
O664 Zn659 1.996 . S
O664 C671 1.257 . S
C665 O660 1.254 . S
C665 O661 1.269 . S
C666 O667 1.249 . S
C666 O668 1.270 . S
O667 Zn659 1.943 . S
O667 C666 1.249 . S
O668 Zn658 2.067 . S
O668 C666 1.270 . S
C669 O662 1.262 . S
C669 O670 1.232 . S
O670 C669 1.232 . S
C671 O663 1.260 . S
C671 O664 1.257 . S
C137 C11 2.657 1_655 S
C151 C25 2.657 1_565 S
C165 C39 2.657 1_455 S
C53 C123 2.657 1_565 S
C221 C67 2.657 1_655 S
C81 C179 2.657 1_545 S
C193 C95 2.657 1_455 S
C207 C109 2.657 1_545 S
C235 C263 2.657 1_554 S
C249 C319 2.657 1_556 S
C277 C333 2.657 1_556 S
C291 C305 2.657 1_556 S
C347 C473 2.657 . S
C487 C361 2.657 . S
C375 C501 2.657 . S
C389 C459 2.657 . S
C557 C403 2.657 . S
C515 C417 2.657 . S
C529 C431 2.657 . S
C543 C445 2.657 . S
C571 C599 2.657 . S
C585 C655 2.657 . S
C613 C669 2.657 . S
C641 C627 2.657 . S
C120 C7 1.517 . S
C134 C21 1.517 . S
C35 C148 1.517 . S
C49 C162 1.517 . S
C63 C176 1.517 . S
C77 C190 1.517 . S
C91 C204 1.517 . S
C218 C105 1.517 . S
C119 C232 1.517 . S
C330 C133 1.517 . S
C147 C302 1.517 . S
C161 C316 1.517 . S
C175 C246 1.517 . S
C189 C260 1.517 . S
C203 C274 1.517 . S
C288 C217 1.517 . S
C8 C231 1.517 . S
C245 C64 1.517 . S
C259 C78 1.517 . S
C273 C92 1.517 . S
C106 C287 1.517 . S
C301 C36 1.517 . S
C315 C50 1.517 . S
C22 C329 1.517 . S
C456 C343 1.517 . S
C357 C470 1.517 . S
C371 C484 1.517 . S
C498 C385 1.517 . S
C512 C399 1.517 . S
C413 C526 1.517 . S
C540 C427 1.517 . S
C554 C441 1.517 . S
C455 C568 1.517 . S
C469 C666 1.517 . S
C483 C638 1.517 . S
C652 C497 1.517 . S
C511 C582 1.517 . S
C525 C596 1.517 . S
C610 C539 1.517 . S
C624 C553 1.517 . S
C567 C344 1.517 . S
C581 C400 1.517 . S
C414 C595 1.517 . S
C609 C428 1.517 . S
C623 C442 1.517 . S
C372 C637 1.517 . S
C651 C386 1.517 . S
C358 C665 1.517 . S
C447 C13 0.950 . S
C27 C405 0.950 . S
C419 C41 0.950 . S
C433 C55 0.950 . S
C69 C363 0.950 . S
C377 C83 0.950 . S
C391 C97 0.950 . S
C111 C349 0.950 . S
C629 C125 0.950 . S
C139 C587 0.950 . S
C153 C601 0.950 . S
C615 C167 0.950 . S
C671 C181 0.950 . S
C643 C195 0.950 . S
C209 C657 0.950 . S
C573 C223 0.950 . S
C237 C559 0.950 . S
C475 C251 0.950 . S
C265 C489 0.950 . S
C503 C279 0.950 . S
C461 C293 0.950 . S
C307 C531 0.950 . S
C545 C321 0.950 . S
C517 C335 0.950 . S
