# Generated by pormake.
# Topology ato, (4)-cn, num edge types: 1
# Building blocks:
#     Node 0, Type 0, BuildingBlock: CEKHIL_clean_sbu_0, # of connection points: 4
#     Node 1, Type 0, BuildingBlock: CEKHIL_clean_sbu_0, # of connection points: 4
#     Node 2, Type 0, BuildingBlock: CEKHIL_clean_sbu_0, # of connection points: 4
#     Node 3, Type 0, BuildingBlock: CEKHIL_clean_sbu_0, # of connection points: 4
#     Node 4, Type 0, BuildingBlock: CEKHIL_clean_sbu_0, # of connection points: 4
#     Node 5, Type 0, BuildingBlock: CEKHIL_clean_sbu_0, # of connection points: 4
#     Node 6, Type 0, BuildingBlock: CEKHIL_clean_sbu_0, # of connection points: 4
#     Node 7, Type 0, BuildingBlock: CEKHIL_clean_sbu_0, # of connection points: 4
#     Node 8, Type 0, BuildingBlock: CEKHIL_clean_sbu_0, # of connection points: 4
#     Node 9, Type 0, BuildingBlock: CEKHIL_clean_sbu_0, # of connection points: 4
#     Node 10, Type 0, BuildingBlock: CEKHIL_clean_sbu_0, # of connection points: 4
#     Node 11, Type 0, BuildingBlock: CEKHIL_clean_sbu_0, # of connection points: 4
#     Node 12, Type 0, BuildingBlock: CEKHIL_clean_sbu_0, # of connection points: 4
#     Node 13, Type 0, BuildingBlock: CEKHIL_clean_sbu_0, # of connection points: 4
#     Node 14, Type 0, BuildingBlock: CEKHIL_clean_sbu_0, # of connection points: 4
#     Node 15, Type 0, BuildingBlock: CEKHIL_clean_sbu_0, # of connection points: 4
#     Node 16, Type 0, BuildingBlock: CEKHIL_clean_sbu_0, # of connection points: 4
#     Node 17, Type 0, BuildingBlock: CEKHIL_clean_sbu_0, # of connection points: 4
#     Node 18, Type 0, BuildingBlock: CEKHIL_clean_sbu_0, # of connection points: 4
#     Node 19, Type 0, BuildingBlock: CEKHIL_clean_sbu_0, # of connection points: 4
#     Node 20, Type 0, BuildingBlock: CEKHIL_clean_sbu_0, # of connection points: 4
#     Node 21, Type 0, BuildingBlock: CEKHIL_clean_sbu_0, # of connection points: 4
#     Node 22, Type 0, BuildingBlock: CEKHIL_clean_sbu_0, # of connection points: 4
#     Node 23, Type 0, BuildingBlock: CEKHIL_clean_sbu_0, # of connection points: 4
#     Node 24, Type 0, BuildingBlock: CEKHIL_clean_sbu_0, # of connection points: 4
#     Node 25, Type 0, BuildingBlock: CEKHIL_clean_sbu_0, # of connection points: 4
#     Node 26, Type 0, BuildingBlock: CEKHIL_clean_sbu_0, # of connection points: 4
#     Node 27, Type 0, BuildingBlock: CEKHIL_clean_sbu_0, # of connection points: 4
#     Node 28, Type 0, BuildingBlock: CEKHIL_clean_sbu_0, # of connection points: 4
#     Node 29, Type 0, BuildingBlock: CEKHIL_clean_sbu_0, # of connection points: 4
#     Node 30, Type 0, BuildingBlock: CEKHIL_clean_sbu_0, # of connection points: 4
#     Node 31, Type 0, BuildingBlock: CEKHIL_clean_sbu_0, # of connection points: 4
#     Node 32, Type 0, BuildingBlock: CEKHIL_clean_sbu_0, # of connection points: 4
#     Node 33, Type 0, BuildingBlock: CEKHIL_clean_sbu_0, # of connection points: 4
#     Node 34, Type 0, BuildingBlock: CEKHIL_clean_sbu_0, # of connection points: 4
#     Node 35, Type 0, BuildingBlock: CEKHIL_clean_sbu_0, # of connection points: 4
#     Edge 36, Type (0, 0), BuildingBlock: XUDNAN_clean_linker_2, # of connection points: 2
#     Edge 37, Type (0, 0), BuildingBlock: XUDNAN_clean_linker_2, # of connection points: 2
#     Edge 38, Type (0, 0), BuildingBlock: XUDNAN_clean_linker_2, # of connection points: 2
#     Edge 39, Type (0, 0), BuildingBlock: XUDNAN_clean_linker_2, # of connection points: 2
#     Edge 40, Type (0, 0), BuildingBlock: XUDNAN_clean_linker_2, # of connection points: 2
#     Edge 41, Type (0, 0), BuildingBlock: XUDNAN_clean_linker_2, # of connection points: 2
#     Edge 42, Type (0, 0), BuildingBlock: XUDNAN_clean_linker_2, # of connection points: 2
#     Edge 43, Type (0, 0), BuildingBlock: XUDNAN_clean_linker_2, # of connection points: 2
#     Edge 44, Type (0, 0), BuildingBlock: XUDNAN_clean_linker_2, # of connection points: 2
#     Edge 45, Type (0, 0), BuildingBlock: XUDNAN_clean_linker_2, # of connection points: 2
#     Edge 46, Type (0, 0), BuildingBlock: XUDNAN_clean_linker_2, # of connection points: 2
#     Edge 47, Type (0, 0), BuildingBlock: XUDNAN_clean_linker_2, # of connection points: 2
#     Edge 48, Type (0, 0), BuildingBlock: XUDNAN_clean_linker_2, # of connection points: 2
#     Edge 49, Type (0, 0), BuildingBlock: XUDNAN_clean_linker_2, # of connection points: 2
#     Edge 50, Type (0, 0), BuildingBlock: XUDNAN_clean_linker_2, # of connection points: 2
#     Edge 51, Type (0, 0), BuildingBlock: XUDNAN_clean_linker_2, # of connection points: 2
#     Edge 52, Type (0, 0), BuildingBlock: XUDNAN_clean_linker_2, # of connection points: 2
#     Edge 53, Type (0, 0), BuildingBlock: XUDNAN_clean_linker_2, # of connection points: 2
#     Edge 54, Type (0, 0), BuildingBlock: XUDNAN_clean_linker_2, # of connection points: 2
#     Edge 55, Type (0, 0), BuildingBlock: XUDNAN_clean_linker_2, # of connection points: 2
#     Edge 56, Type (0, 0), BuildingBlock: XUDNAN_clean_linker_2, # of connection points: 2
#     Edge 57, Type (0, 0), BuildingBlock: XUDNAN_clean_linker_2, # of connection points: 2
#     Edge 58, Type (0, 0), BuildingBlock: XUDNAN_clean_linker_2, # of connection points: 2
#     Edge 59, Type (0, 0), BuildingBlock: XUDNAN_clean_linker_2, # of connection points: 2
#     Edge 60, Type (0, 0), BuildingBlock: XUDNAN_clean_linker_2, # of connection points: 2
#     Edge 61, Type (0, 0), BuildingBlock: XUDNAN_clean_linker_2, # of connection points: 2
#     Edge 62, Type (0, 0), BuildingBlock: XUDNAN_clean_linker_2, # of connection points: 2
#     Edge 63, Type (0, 0), BuildingBlock: XUDNAN_clean_linker_2, # of connection points: 2
#     Edge 64, Type (0, 0), BuildingBlock: XUDNAN_clean_linker_2, # of connection points: 2
#     Edge 65, Type (0, 0), BuildingBlock: XUDNAN_clean_linker_2, # of connection points: 2
#     Edge 66, Type (0, 0), BuildingBlock: XUDNAN_clean_linker_2, # of connection points: 2
#     Edge 67, Type (0, 0), BuildingBlock: XUDNAN_clean_linker_2, # of connection points: 2
#     Edge 68, Type (0, 0), BuildingBlock: XUDNAN_clean_linker_2, # of connection points: 2
#     Edge 69, Type (0, 0), BuildingBlock: XUDNAN_clean_linker_2, # of connection points: 2
#     Edge 70, Type (0, 0), BuildingBlock: XUDNAN_clean_linker_2, # of connection points: 2
#     Edge 71, Type (0, 0), BuildingBlock: XUDNAN_clean_linker_2, # of connection points: 2
#     Edge 72, Type (0, 0), BuildingBlock: XUDNAN_clean_linker_2, # of connection points: 2
#     Edge 73, Type (0, 0), BuildingBlock: XUDNAN_clean_linker_2, # of connection points: 2
#     Edge 74, Type (0, 0), BuildingBlock: XUDNAN_clean_linker_2, # of connection points: 2
#     Edge 75, Type (0, 0), BuildingBlock: XUDNAN_clean_linker_2, # of connection points: 2
#     Edge 76, Type (0, 0), BuildingBlock: XUDNAN_clean_linker_2, # of connection points: 2
#     Edge 77, Type (0, 0), BuildingBlock: XUDNAN_clean_linker_2, # of connection points: 2
#     Edge 78, Type (0, 0), BuildingBlock: XUDNAN_clean_linker_2, # of connection points: 2
#     Edge 79, Type (0, 0), BuildingBlock: XUDNAN_clean_linker_2, # of connection points: 2
#     Edge 80, Type (0, 0), BuildingBlock: XUDNAN_clean_linker_2, # of connection points: 2
#     Edge 81, Type (0, 0), BuildingBlock: XUDNAN_clean_linker_2, # of connection points: 2
#     Edge 82, Type (0, 0), BuildingBlock: XUDNAN_clean_linker_2, # of connection points: 2
#     Edge 83, Type (0, 0), BuildingBlock: XUDNAN_clean_linker_2, # of connection points: 2
#     Edge 84, Type (0, 0), BuildingBlock: XUDNAN_clean_linker_2, # of connection points: 2
#     Edge 85, Type (0, 0), BuildingBlock: XUDNAN_clean_linker_2, # of connection points: 2
#     Edge 86, Type (0, 0), BuildingBlock: XUDNAN_clean_linker_2, # of connection points: 2
#     Edge 87, Type (0, 0), BuildingBlock: XUDNAN_clean_linker_2, # of connection points: 2
#     Edge 88, Type (0, 0), BuildingBlock: XUDNAN_clean_linker_2, # of connection points: 2
#     Edge 89, Type (0, 0), BuildingBlock: XUDNAN_clean_linker_2, # of connection points: 2
#     Edge 90, Type (0, 0), BuildingBlock: XUDNAN_clean_linker_2, # of connection points: 2
#     Edge 91, Type (0, 0), BuildingBlock: XUDNAN_clean_linker_2, # of connection points: 2
#     Edge 92, Type (0, 0), BuildingBlock: XUDNAN_clean_linker_2, # of connection points: 2
#     Edge 93, Type (0, 0), BuildingBlock: XUDNAN_clean_linker_2, # of connection points: 2
#     Edge 94, Type (0, 0), BuildingBlock: XUDNAN_clean_linker_2, # of connection points: 2
#     Edge 95, Type (0, 0), BuildingBlock: XUDNAN_clean_linker_2, # of connection points: 2
#     Edge 96, Type (0, 0), BuildingBlock: XUDNAN_clean_linker_2, # of connection points: 2
#     Edge 97, Type (0, 0), BuildingBlock: XUDNAN_clean_linker_2, # of connection points: 2
#     Edge 98, Type (0, 0), BuildingBlock: XUDNAN_clean_linker_2, # of connection points: 2
#     Edge 99, Type (0, 0), BuildingBlock: XUDNAN_clean_linker_2, # of connection points: 2
#     Edge 100, Type (0, 0), BuildingBlock: XUDNAN_clean_linker_2, # of connection points: 2
#     Edge 101, Type (0, 0), BuildingBlock: XUDNAN_clean_linker_2, # of connection points: 2
#     Edge 102, Type (0, 0), BuildingBlock: XUDNAN_clean_linker_2, # of connection points: 2
#     Edge 103, Type (0, 0), BuildingBlock: XUDNAN_clean_linker_2, # of connection points: 2
#     Edge 104, Type (0, 0), BuildingBlock: XUDNAN_clean_linker_2, # of connection points: 2
#     Edge 105, Type (0, 0), BuildingBlock: XUDNAN_clean_linker_2, # of connection points: 2
#     Edge 106, Type (0, 0), BuildingBlock: XUDNAN_clean_linker_2, # of connection points: 2
#     Edge 107, Type (0, 0), BuildingBlock: XUDNAN_clean_linker_2, # of connection points: 2
# Relax obj value: 0.085
# Max RMSD: 0.096
# Mean RMSD: 0.096
data_MOF--net-ato--node1-CEKHIL_clean_sbu_0--edge1-XUDNAN_clean_linker_2
_symmetry_space_group_name_H-M    P1
_symmetry_Int_Tables_number       1
_symmetry_cell_setting            triclinic
loop_
_symmetry_equiv_pos_as_xyz
'x, y, z'
_cell_length_a     101.13338
_cell_length_b     101.1608
_cell_length_c     23.113191
_cell_angle_alpha  89.890016
_cell_angle_beta   90.070097
_cell_angle_gamma 119.98691
loop_
_atom_site_label
_atom_site_type_symbol
_atom_site_fract_x
_atom_site_fract_y
_atom_site_fract_z
_atom_type_partial_charge
Co0 Co 0.26316 0.06107 0.26396 0.0
O1 O 0.24664 0.04652 0.31339 0.0
O2 O 0.26906 0.04803 0.30434 0.0
C3 C 0.26234 0.08235 0.29003 0.0
O4 O 0.28328 0.07452 0.22194 0.0
Co5 Co 0.25792 0.0786 0.16459 0.0
O6 O 0.28035 0.08857 0.15289 0.0
C7 C 0.24895 0.04641 0.14708 0.0
C8 C 0.25574 0.04157 0.32906 0.0
C9 C 0.28859 0.08458 0.18132 0.0
O10 O 0.25539 0.04645 0.19544 0.0
O11 O 0.24732 0.05757 0.13022 0.0
O12 O 0.26909 0.07699 0.3225 0.0
O13 O 0.25493 0.07383 0.2465 0.0
Co14 Co 0.95532 0.20061 0.27922 0.0
O15 O 0.968 0.19401 0.31814 0.0
O16 O 0.96968 0.21638 0.33146 0.0
C17 C 0.93268 0.17895 0.29482 0.0
O18 O 0.94373 0.21123 0.25173 0.0
Co19 Co 0.93691 0.18489 0.1694 0.0
O20 O 0.92738 0.19772 0.18053 0.0
C21 C 0.96998 0.20575 0.1583 0.0
C22 C 0.97428 0.2069 0.34585 0.0
C23 C 0.93281 0.2087 0.21653 0.0
O24 O 0.97038 0.20933 0.2122 0.0
O25 O 0.95785 0.19536 0.1339 0.0
O26 O 0.93904 0.1893 0.33461 0.0
O27 O 0.94083 0.18122 0.24868 0.0
Co28 Co 0.81125 0.75602 0.27613 0.0
O29 O 0.81251 0.77287 0.32214 0.0
O30 O 0.79431 0.74878 0.32863 0.0
C31 C 0.83599 0.76193 0.2857 0.0
O32 O 0.80575 0.73519 0.24379 0.0
Co33 Co 0.82879 0.75871 0.16348 0.0
O34 O 0.81994 0.73617 0.16773 0.0
C35 C 0.80322 0.76482 0.16032 0.0
C36 C 0.80005 0.76264 0.34747 0.0
C37 C 0.80974 0.72866 0.20552 0.0
O38 O 0.79934 0.75959 0.21239 0.0
O39 O 0.81531 0.76666 0.13551 0.0
O40 O 0.82624 0.75483 0.32704 0.0
O41 O 0.83083 0.76615 0.24254 0.0
Co42 Co 0.06412 0.25433 0.74438 0.0
O43 O 0.05008 0.2347 0.71082 0.0
O44 O 0.04898 0.25568 0.69638 0.0
C45 C 0.0858 0.25387 0.72168 0.0
O46 O 0.07697 0.27688 0.76696 0.0
Co47 Co 0.0859 0.2581 0.84589 0.0
O48 O 0.09508 0.28027 0.83157 0.0
C49 C 0.05341 0.2478 0.87078 0.0
C50 C 0.04367 0.24136 0.68414 0.0
C51 C 0.08877 0.28552 0.79816 0.0
O52 O 0.05087 0.24945 0.81707 0.0
O53 O 0.06622 0.24977 0.88914 0.0
O54 O 0.079 0.25783 0.68351 0.0
O55 O 0.0787 0.24912 0.77039 0.0
Co56 Co 0.75492 0.80988 0.73976 0.0
O57 O 0.77264 0.81209 0.69682 0.0
O58 O 0.74958 0.79181 0.69561 0.0
C59 C 0.75728 0.83287 0.71777 0.0
O60 O 0.73357 0.80288 0.77024 0.0
Co61 Co 0.75577 0.82926 0.84374 0.0
O62 O 0.73305 0.81812 0.83942 0.0
C63 C 0.76463 0.80593 0.86156 0.0
C64 C 0.76348 0.79849 0.67652 0.0
C65 C 0.72629 0.8068 0.8053 0.0
O66 O 0.76006 0.80097 0.80974 0.0
O67 O 0.76519 0.818 0.88138 0.0
O68 O 0.75156 0.8217 0.68086 0.0
O69 O 0.76287 0.83041 0.76437 0.0
Co70 Co 0.2025 0.95107 0.72751 0.0
O71 O 0.20233 0.96581 0.6736 0.0
O72 O 0.22068 0.9601 0.67983 0.0
C73 C 0.17795 0.93211 0.7135 0.0
O74 O 0.20677 0.93637 0.77359 0.0
Co75 Co 0.18127 0.93944 0.83544 0.0
O76 O 0.19005 0.9259 0.84694 0.0
C77 C 0.20797 0.9704 0.83617 0.0
C78 C 0.21534 0.96795 0.65448 0.0
C79 C 0.2012 0.92717 0.81686 0.0
O80 O 0.21308 0.96752 0.78936 0.0
O81 O 0.19473 0.96138 0.85704 0.0
O82 O 0.18854 0.9339 0.67716 0.0
O83 O 0.18226 0.9425 0.75268 0.0
Co84 Co 0.75591 0.95176 0.74629 0.0
O85 O 0.77228 0.96655 0.6965 0.0
O86 O 0.74956 0.96433 0.70529 0.0
C87 C 0.75746 0.93082 0.72054 0.0
O88 O 0.73569 0.938 0.78773 0.0
Co89 Co 0.76069 0.93379 0.84553 0.0
O90 O 0.73821 0.92335 0.85517 0.0
C91 C 0.76778 0.96555 0.86643 0.0
C92 C 0.76282 0.97102 0.68019 0.0
C93 C 0.73014 0.9276 0.82712 0.0
O94 O 0.76331 0.96646 0.81489 0.0
O95 O 0.76829 0.9539 0.88515 0.0
O96 O 0.7505 0.93588 0.68786 0.0
O97 O 0.76452 0.93932 0.76451 0.0
Co98 Co 0.06307 0.80827 0.74345 0.0
O99 O 0.04822 0.80932 0.69267 0.0
O100 O 0.05282 0.7902 0.69532 0.0
C101 C 0.08234 0.83269 0.72801 0.0
O102 O 0.07748 0.80289 0.7863 0.0
Co103 Co 0.07697 0.82934 0.851 0.0
O104 O 0.08861 0.81851 0.86218 0.0
C105 C 0.0453 0.80372 0.85519 0.0
C106 C 0.04521 0.79613 0.67243 0.0
C107 C 0.08652 0.80736 0.83027 0.0
O108 O 0.04714 0.79819 0.80738 0.0
O109 O 0.05513 0.8168 0.87505 0.0
O110 O 0.07998 0.82201 0.69119 0.0
O111 O 0.07257 0.82849 0.76939 0.0
Co112 Co 0.2047 0.25394 0.75234 0.0
O113 O 0.20279 0.23652 0.7082 0.0
O114 O 0.22361 0.25908 0.71455 0.0
C115 C 0.18259 0.25239 0.7216 0.0
O116 O 0.21184 0.27502 0.78667 0.0
Co117 Co 0.18254 0.25381 0.84501 0.0
O118 O 0.19319 0.27632 0.83392 0.0
C119 C 0.20555 0.24482 0.87766 0.0
C120 C 0.21687 0.24552 0.69219 0.0
C121 C 0.2065 0.2827 0.81191 0.0
O122 O 0.21108 0.24732 0.82578 0.0
O123 O 0.19404 0.24616 0.89205 0.0
O124 O 0.19469 0.25858 0.68908 0.0
O125 O 0.18386 0.24643 0.7692 0.0
Co126 Co 0.95244 0.75618 0.28065 0.0
O127 O 0.96762 0.77142 0.33233 0.0
O128 O 0.96167 0.74728 0.32898 0.0
C129 C 0.93388 0.76241 0.2947 0.0
O130 O 0.93736 0.73691 0.23687 0.0
Co131 Co 0.94 0.76506 0.17248 0.0
O132 O 0.92663 0.74269 0.16288 0.0
C133 C 0.97087 0.76889 0.16959 0.0
C134 C 0.96983 0.76066 0.35237 0.0
C135 C 0.92807 0.73302 0.19376 0.0
O136 O 0.96843 0.76137 0.21748 0.0
O137 O 0.9617 0.77299 0.14914 0.0
O138 O 0.93562 0.75373 0.33193 0.0
O139 O 0.94399 0.76785 0.25442 0.0
Co140 Co 0.26095 0.20148 0.2844 0.0
O141 O 0.24449 0.19795 0.33813 0.0
O142 O 0.26634 0.21948 0.32932 0.0
C143 C 0.26133 0.17958 0.3031 0.0
O144 O 0.28108 0.2102 0.24045 0.0
Co145 Co 0.25863 0.18185 0.17902 0.0
O146 O 0.28134 0.19298 0.18044 0.0
C147 C 0.24757 0.20395 0.16844 0.0
C148 C 0.2534 0.21186 0.35604 0.0
C149 C 0.28813 0.20578 0.20628 0.0
O150 O 0.25193 0.20846 0.22086 0.0
O151 O 0.24862 0.19304 0.14499 0.0
O152 O 0.26792 0.19124 0.33768 0.0
O153 O 0.25373 0.181 0.26082 0.0
Co154 Co 0.81169 0.06147 0.28029 0.0
O155 O 0.81247 0.04615 0.32936 0.0
O156 O 0.79276 0.04975 0.3224 0.0
C157 C 0.83475 0.08153 0.30483 0.0
O158 O 0.80655 0.07642 0.23973 0.0
Co159 Co 0.8342 0.07792 0.17943 0.0
O160 O 0.82736 0.09307 0.18992 0.0
C161 C 0.80876 0.0465 0.16144 0.0
C162 C 0.79883 0.04246 0.34676 0.0
C163 C 0.81444 0.08917 0.2126 0.0
O164 O 0.80356 0.04671 0.21233 0.0
O165 O 0.82127 0.05751 0.14176 0.0
O166 O 0.82298 0.07709 0.33841 0.0
O167 O 0.83265 0.07275 0.26098 0.0
Co168 Co 0.92967 0.39692 0.61537 0.0
O169 O 0.91297 0.38085 0.66043 0.0
O170 O 0.93712 0.38685 0.6657 0.0
C171 C 0.92337 0.41542 0.62757 0.0
O172 O 0.95031 0.41264 0.5827 0.0
Co173 Co 0.92616 0.41239 0.50498 0.0
O174 O 0.94874 0.42571 0.50691 0.0
C175 C 0.91991 0.3807 0.49944 0.0
C176 C 0.92324 0.37836 0.68398 0.0
C177 C 0.9565 0.42308 0.54384 0.0
O178 O 0.92614 0.38202 0.5496 0.0
O179 O 0.91729 0.39083 0.47803 0.0
O180 O 0.93066 0.41275 0.66822 0.0
O181 O 0.91927 0.40627 0.58405 0.0
Co182 Co 0.62449 0.53748 0.61681 0.0
O183 O 0.63958 0.53563 0.66414 0.0
O184 O 0.63666 0.55581 0.66047 0.0
C185 C 0.60376 0.51466 0.63842 0.0
O186 O 0.61028 0.54411 0.58154 0.0
Co187 Co 0.60695 0.5174 0.51244 0.0
O188 O 0.59439 0.52747 0.51563 0.0
C189 C 0.63918 0.54107 0.49702 0.0
C190 C 0.64366 0.54926 0.68314 0.0
C191 C 0.59878 0.53923 0.54717 0.0
O192 O 0.63924 0.5459 0.54881 0.0
O193 O 0.62769 0.5292 0.47588 0.0
O194 O 0.60883 0.52604 0.67431 0.0
O195 O 0.61224 0.51683 0.59338 0.0
Co196 Co 0.487 0.09178 0.61014 0.0
O197 O 0.49292 0.11141 0.64476 0.0
O198 O 0.47053 0.09068 0.65725 0.0
C199 C 0.50873 0.09142 0.63359 0.0
O200 O 0.47678 0.06931 0.58647 0.0
Co201 Co 0.50491 0.08755 0.50942 0.0
O202 O 0.49109 0.06541 0.52179 0.0
C203 C 0.48323 0.09849 0.48354 0.0
C204 C 0.47973 0.10488 0.6705 0.0
C205 C 0.47949 0.06047 0.55474 0.0
O206 O 0.47907 0.09712 0.5372 0.0
O207 O 0.49387 0.09617 0.46568 0.0
O208 O 0.49792 0.08767 0.67128 0.0
O209 O 0.50673 0.09649 0.58497 0.0
Co210 Co 0.73368 0.59127 0.08234 0.0
O211 O 0.71836 0.57479 0.03489 0.0
O212 O 0.72096 0.5977 0.04311 0.0
C213 C 0.75406 0.58923 0.05329 0.0
O214 O 0.74818 0.61159 0.12187 0.0
Co215 Co 0.7523 0.58628 0.17842 0.0
O216 O 0.76396 0.60885 0.18317 0.0
C217 C 0.72101 0.58006 0.20441 0.0
C218 C 0.714 0.58434 0.01881 0.0
C219 C 0.75951 0.61708 0.15743 0.0
O220 O 0.71964 0.5843 0.15299 0.0
O221 O 0.73273 0.57942 0.22129 0.0
O222 O 0.74888 0.59624 0.02149 0.0
O223 O 0.74593 0.5824 0.09836 0.0
Co224 Co 0.43078 0.14431 0.07467 0.0
O225 O 0.45016 0.1512 0.03617 0.0
O226 O 0.42961 0.12879 0.02166 0.0
C227 C 0.42956 0.16588 0.06049 0.0
O228 O 0.40852 0.13345 0.10152 0.0
Co229 Co 0.42778 0.15968 0.18537 0.0
O230 O 0.40547 0.1468 0.17282 0.0
C231 C 0.44039 0.13911 0.19534 0.0
C232 C 0.44368 0.1384 1.00785 0.0
C233 C 0.40004 0.13589 0.13649 0.0
O234 O 0.43717 0.13551 0.14144 0.0
O235 O 0.43854 0.1494 0.21993 0.0
O236 O 0.42576 0.15577 0.01984 0.0
O237 O 0.43542 0.16345 0.10635 0.0
Co238 Co 0.87474 0.28632 0.07932 0.0
O239 O 0.87362 0.30096 0.02759 0.0
O240 O 0.8926 0.29612 0.03003 0.0
C241 C 0.85029 0.267 0.06603 0.0
O242 O 0.88006 0.27198 0.12288 0.0
Co243 Co 0.85414 0.27337 0.18859 0.0
O244 O 0.86459 0.26135 0.19963 0.0
C245 C 0.88024 0.30477 0.19011 0.0
C246 C 0.88667 0.30368 1.00671 0.0
C247 C 0.87556 0.2631 0.16732 0.0
O248 O 0.88528 0.30256 0.14179 0.0
O249 O 0.86723 0.29524 0.21151 0.0
O250 O 0.86081 0.2692 0.02863 0.0
O251 O 0.85461 0.27706 0.10642 0.0
Co252 Co 0.42935 0.28541 0.08012 0.0
O253 O 0.44847 0.29804 0.04077 0.0
O254 O 0.42784 0.29995 0.02899 0.0
C255 C 0.42836 0.26282 0.06329 0.0
O256 O 0.40743 0.27407 0.11022 0.0
Co257 Co 0.4272 0.26632 0.18831 0.0
O258 O 0.40484 0.25584 0.17261 0.0
C259 C 0.43985 0.29955 0.20016 0.0
C260 C 0.44189 0.30452 0.0142 0.0
C261 C 0.39915 0.26218 0.14151 0.0
O262 O 0.43588 0.30019 0.14761 0.0
O263 O 0.43863 0.28742 0.22284 0.0
O264 O 0.42409 0.26912 0.02406 0.0
O265 O 0.43435 0.27096 0.10918 0.0
Co266 Co 0.7346 0.14444 0.0772 0.0
O267 O 0.7194 0.14456 0.02571 0.0
O268 O 0.72546 0.12642 0.0289 0.0
C269 C 0.75304 0.16915 0.06251 0.0
O270 O 0.74977 0.1402 0.12017 0.0
Co271 Co 0.74748 0.16542 0.18513 0.0
O272 O 0.76313 0.15897 0.18401 0.0
C273 C 0.71636 0.13866 0.18849 0.0
C274 C 0.71737 0.13171 1.00528 0.0
C275 C 0.76081 0.14709 0.15645 0.0
O276 O 0.71865 0.13366 0.14027 0.0
O277 O 0.72579 0.1517 0.2099 0.0
O278 O 0.75126 0.1587 0.02555 0.0
O279 O 0.74308 0.16454 0.10344 0.0
Co280 Co 0.87557 0.59409 0.07172 0.0
O281 O 0.87423 0.5767 0.02981 0.0
O282 O 0.89409 0.60005 0.02922 0.0
C283 C 0.85242 0.59082 0.04707 0.0
O284 O 0.88143 0.61519 0.10246 0.0
Co285 Co 0.85461 0.59167 0.17333 0.0
O286 O 0.86486 0.61432 0.1691 0.0
C287 C 0.87861 0.58385 0.19337 0.0
C288 C 0.88783 0.58614 1.01026 0.0
C289 C 0.87646 0.62175 0.13669 0.0
O290 O 0.88427 0.58925 0.143 0.0
O291 O 0.86594 0.58236 0.21103 0.0
O292 O 0.86382 0.59699 0.01112 0.0
O293 O 0.85487 0.58536 0.09398 0.0
Co294 Co 0.62494 0.08517 0.61298 0.0
O295 O 0.63954 0.10185 0.66175 0.0
O296 O 0.63777 0.07927 0.65444 0.0
C297 C 0.60389 0.08656 0.63758 0.0
O298 O 0.61166 0.06492 0.57214 0.0
Co299 Co 0.60657 0.08875 0.51261 0.0
O300 O 0.59466 0.06602 0.51267 0.0
C301 C 0.63903 0.09795 0.4947 0.0
C302 C 0.64433 0.09266 0.67836 0.0
C303 C 0.6001 0.05856 0.53793 0.0
O304 O 0.6395 0.09248 0.54467 0.0
O305 O 0.62749 0.09877 0.47653 0.0
O306 O 0.60897 0.07977 0.67121 0.0
O307 O 0.61235 0.09338 0.59319 0.0
Co308 Co 0.92928 0.53806 0.60839 0.0
O309 O 0.91321 0.53618 0.66055 0.0
O310 O 0.93691 0.5554 0.65927 0.0
C311 C 0.92457 0.51367 0.6188 0.0
O312 O 0.94927 0.54464 0.56626 0.0
Co313 Co 0.92465 0.51926 0.49697 0.0
O314 O 0.9473 0.52866 0.49539 0.0
C315 C 0.91765 0.54445 0.49633 0.0
C316 C 0.92346 0.54914 0.68262 0.0
C317 C 0.95523 0.54032 0.5269 0.0
O318 O 0.92346 0.54878 0.54733 0.0
O319 O 0.9159 0.53235 0.4717 0.0
O320 O 0.9326 0.52394 0.65738 0.0
O321 O 0.91912 0.5182 0.57782 0.0
Co322 Co 0.48448 0.39445 0.61433 0.0
O323 O 0.49087 0.38174 0.65395 0.0
O324 O 0.46828 0.37978 0.66448 0.0
C325 C 0.50607 0.417 0.63268 0.0
O326 O 0.47388 0.40576 0.58383 0.0
Co327 Co 0.50168 0.41405 0.50762 0.0
O328 O 0.48947 0.4242 0.52218 0.0
C329 C 0.48092 0.38087 0.49335 0.0
C330 C 0.47771 0.3752 0.6798 0.0
C331 C 0.47734 0.4176 0.55252 0.0
O332 O 0.47644 0.37984 0.54623 0.0
O333 O 0.49164 0.39318 0.47108 0.0
O334 O 0.49533 0.4106 0.67115 0.0
O335 O 0.50406 0.40903 0.58642 0.0
Co336 Co 0.59178 0.72404 0.94737 0.0
O337 O 0.57661 0.70981 1.00162 0.0
O338 O 0.60065 0.71534 0.99837 0.0
C339 C 0.58637 0.74328 0.95564 0.0
O340 O 0.61099 0.73834 0.9014 0.0
Co341 Co 0.58258 0.73462 0.83519 0.0
O342 O 0.60492 0.74806 0.8248 0.0
C343 C 0.57758 0.70352 0.84198 0.0
C344 C 0.58734 0.70773 0.02288 0.0
C345 C 0.61472 0.74714 0.85679 0.0
O346 O 0.58596 0.70699 0.88803 0.0
O347 O 0.57333 0.71233 0.81938 0.0
O348 O 0.5948 0.74171 0.99455 0.0
O349 O 0.58042 0.73245 0.91816 0.0
Co350 Co 0.28609 0.87342 0.94123 0.0
O351 O 0.30192 0.87223 0.98568 0.0
O352 O 0.29824 0.89198 0.9839 0.0
C353 C 0.26609 0.85028 0.96486 0.0
O354 O 0.27101 0.87919 0.90813 0.0
Co355 Co 0.26817 0.85244 0.83878 0.0
O356 O 0.25555 0.86251 0.8413 0.0
C357 C 0.30027 0.87597 0.8223 0.0
C358 C 0.3058 0.8858 1.00478 0.0
C359 C 0.25957 0.87414 0.87338 0.0
O360 O 0.30006 0.88203 0.87115 0.0
O361 O 0.28926 0.86321 0.80463 0.0
O362 O 0.27107 0.86168 1.00065 0.0
O363 O 0.2743 0.85271 0.91891 0.0
Co364 Co 0.14517 0.42022 0.93954 0.0
O365 O 0.14592 0.43545 0.99278 0.0
O366 O 0.12685 0.41175 0.98653 0.0
C367 C 0.16939 0.42505 0.95585 0.0
O368 O 0.14014 0.40101 0.89385 0.0
Co369 Co 0.16655 0.42874 0.83289 0.0
O370 O 0.15609 0.40641 0.81841 0.0
C371 C 0.14098 0.4348 0.83042 0.0
C372 C 0.13267 0.42498 0.01168 0.0
C373 C 0.1449 0.39695 0.84935 0.0
O374 O 0.13536 0.42679 0.87693 0.0
O375 O 0.15416 0.43839 0.81048 0.0
O376 O 0.15845 0.41632 0.99111 0.0
O377 O 0.1656 0.4313 0.91543 0.0
Co378 Co 0.39552 0.92635 0.40505 0.0
O379 O 0.3811 0.91083 0.35247 0.0
O380 O 0.38392 0.93377 0.36341 0.0
C381 C 0.41631 0.92449 0.38161 0.0
O382 O 0.40936 0.94564 0.45098 0.0
Co383 Co 0.41029 0.91811 0.50612 0.0
O384 O 0.42155 0.94043 0.52123 0.0
C385 C 0.37864 0.9114 0.51817 0.0
C386 C 0.37719 0.92073 0.33665 0.0
C387 C 0.41885 0.94973 0.49343 0.0
O388 O 0.37999 0.91863 0.4705 0.0
O389 O 0.38886 0.90852 0.53676 0.0
O390 O 0.41195 0.93209 0.34918 0.0
O391 O 0.40702 0.91678 0.42309 0.0
Co392 Co 0.09093 0.47584 0.40098 0.0
O393 O 0.10652 0.47591 0.35177 0.0
O394 O 0.08314 0.45643 0.36161 0.0
C395 C 0.09412 0.49884 0.37358 0.0
O396 O 0.07155 0.47162 0.44403 0.0
Co397 Co 0.09964 0.50009 0.4983 0.0
O398 O 0.07719 0.49063 0.50739 0.0
C399 C 0.10485 0.4743 0.51733 0.0
C400 C 0.0964 0.46213 0.33666 0.0
C401 C 0.06763 0.4783 0.48219 0.0
O402 O 0.09767 0.46804 0.46992 0.0
O403 O 0.1082 0.48775 0.53294 0.0
O404 O 0.08634 0.48682 0.34162 0.0
O405 O 0.10116 0.49695 0.41668 0.0
Co406 Co 0.53799 0.61429 0.41098 0.0
O407 O 0.53713 0.62966 0.36285 0.0
O408 O 0.5573 0.62683 0.37218 0.0
C409 C 0.51549 0.59389 0.38281 0.0
O410 O 0.54333 0.59972 0.4523 0.0
Co411 Co 0.51415 0.59709 0.50809 0.0
O412 O 0.52513 0.58553 0.51748 0.0
C413 C 0.53896 0.62849 0.52952 0.0
C414 C 0.55111 0.63403 0.34788 0.0
C415 C 0.53751 0.58912 0.49084 0.0
O416 O 0.54522 0.62845 0.48089 0.0
O417 O 0.52582 0.61771 0.54528 0.0
O418 O 0.52763 0.5989 0.35086 0.0
O419 O 0.51687 0.60237 0.42675 0.0
Co420 Co 0.09768 0.61966 0.41527 0.0
O421 O 0.11723 0.63353 0.38052 0.0
O422 O 0.09654 0.6354 0.37054 0.0
C423 C 0.09752 0.59794 0.38811 0.0
O424 O 0.07528 0.60734 0.44035 0.0
Co425 Co 0.09299 0.59621 0.51123 0.0
O426 O 0.07115 0.58637 0.48892 0.0
C427 C 0.10425 0.62874 0.54269 0.0
C428 C 0.11069 0.64039 0.35632 0.0
C429 C 0.06624 0.59422 0.46326 0.0
O430 O 0.10327 0.63227 0.48961 0.0
O431 O 0.10142 0.6154 0.55819 0.0
O432 O 0.09344 0.60514 0.3522 0.0
O433 O 0.10248 0.60453 0.4375 0.0
Co434 Co 0.39609 0.4741 0.401 0.0
O435 O 0.38257 0.47723 0.34909 0.0
O436 O 0.38332 0.45589 0.35729 0.0
C437 C 0.41795 0.4961 0.37996 0.0
O438 O 0.40818 0.46591 0.44377 0.0
Co439 Co 0.41376 0.49435 0.50473 0.0
O440 O 0.42567 0.48356 0.50275 0.0
C441 C 0.38092 0.47165 0.51842 0.0
C442 C 0.37758 0.4633 0.33158 0.0
C443 C 0.41983 0.4707 0.47737 0.0
O444 O 0.38059 0.46703 0.46611 0.0
O445 O 0.39283 0.48288 0.54078 0.0
O446 O 0.41279 0.48435 0.34587 0.0
O447 O 0.40919 0.4947 0.42314 0.0
Co448 Co 0.53225 0.91749 0.4013 0.0
O449 O 0.52519 0.89833 0.36092 0.0
O450 O 0.54837 0.91819 0.35299 0.0
C451 C 0.51143 0.91969 0.38079 0.0
O452 O 0.54374 0.93939 0.43216 0.0
Co453 Co 0.51524 0.9217 0.50501 0.0
O454 O 0.52794 0.94372 0.4867 0.0
C455 C 0.53421 0.90729 0.52396 0.0
C456 C 0.53854 0.90441 0.33659 0.0
C457 C 0.54042 0.94848 0.45931 0.0
O458 O 0.53875 0.90969 0.47077 0.0
O459 O 0.52436 0.91043 0.54451 0.0
O460 O 0.52234 0.92376 0.34321 0.0
O461 O 0.51292 0.91356 0.42757 0.0
Co462 Co 0.28687 0.42271 0.93323 0.0
O463 O 0.30258 0.43972 0.97848 0.0
O464 O 0.29877 0.41628 0.97744 0.0
C465 C 0.2675 0.42712 0.95538 0.0
O466 O 0.27248 0.4018 0.89912 0.0
Co467 Co 0.26691 0.4234 0.83357 0.0
O468 O 0.25425 0.40084 0.84151 0.0
C469 C 0.2989 0.43056 0.81018 0.0
C470 C 0.30634 0.42998 0.99826 0.0
C471 C 0.2603 0.39427 0.86881 0.0
O472 O 0.30096 0.42798 0.86336 0.0
O473 O 0.28664 0.42996 0.79198 0.0
O474 O 0.27136 0.41975 0.9915 0.0
O475 O 0.27551 0.43183 0.90875 0.0
Co476 Co 0.58738 0.86411 0.93362 0.0
O477 O 0.56808 0.85692 0.97353 0.0
O478 O 0.58899 0.87876 0.99166 0.0
C479 C 0.58708 0.84144 0.9375 0.0
O480 O 0.60971 0.87532 0.90654 0.0
Co481 Co 0.59127 0.85059 0.81815 0.0
O482 O 0.61346 0.86383 0.83018 0.0
C483 C 0.57517 0.86824 0.81995 0.0
C484 C 0.57481 0.86931 1.00434 0.0
C485 C 0.61852 0.87398 0.8695 0.0
O486 O 0.58057 0.87374 0.87068 0.0
O487 O 0.57697 0.85789 0.79571 0.0
O488 O 0.59172 0.85048 0.98214 0.0
O489 O 0.58232 0.84607 0.89474 0.0
Co490 Co 0.14905 0.72782 0.94836 0.0
O491 O 0.15621 0.71577 0.98847 0.0
O492 O 0.13352 0.71338 1.00134 0.0
C493 C 0.1703 0.75085 0.96282 0.0
O494 O 0.13786 0.73877 0.9195 0.0
Co495 Co 0.16444 0.74599 0.83756 0.0
O496 O 0.15122 0.7551 0.8479 0.0
C497 C 0.1444 0.71275 0.82856 0.0
C498 C 0.14333 0.70926 0.0163 0.0
C499 C 0.14018 0.74953 0.88374 0.0
O500 O 0.14075 0.71245 0.88233 0.0
O501 O 0.1545 0.72493 0.80347 0.0
O502 O 0.15999 0.74443 1.00279 0.0
O503 O 0.16825 0.74257 0.91729 0.0
H504 H 0.20676 0.98562 0.59032 0.0
H505 H 0.24265 0.97423 0.60739 0.0
H506 H 0.25639 0.99127 0.52553 0.0
H507 H 0.20714 0.98753 0.43399 0.0
H508 H 0.20386 1.00347 0.43109 0.0
H509 H 0.19673 0.99038 0.49125 0.0
H510 H 0.21116 0.01285 0.56257 0.0
H511 H 0.21828 0.02601 0.50266 0.0
H512 H 0.23142 0.02541 0.55394 0.0
H513 H 0.26641 0.0096 0.44197 0.0
H514 H 0.27224 0.02829 0.36359 0.0
H515 H 0.22998 0.02807 0.39884 0.0
C516 C 0.21752 0.98673 0.57688 0.0
C517 C 0.2236 0.97853 0.60555 0.0
C518 C 0.23772 0.98034 0.58639 0.0
C519 C 0.24563 0.99 0.53977 0.0
C520 C 0.23931 0.99785 0.51237 0.0
C521 C 0.22559 0.99637 0.53019 0.0
C522 C 0.22141 1.00621 0.49323 0.0
C523 C 0.20639 0.9963 0.46045 0.0
C524 C 0.22052 0.01834 0.53032 0.0
C525 C 0.23493 0.01345 0.45198 0.0
C526 C 0.24509 0.00843 0.46387 0.0
C527 C 0.25851 0.01359 0.43225 0.0
C528 C 0.26173 0.02422 0.38766 0.0
C529 C 0.25158 0.02967 0.37467 0.0
C530 C 0.23794 0.02409 0.40729 0.0
H531 H 0.02937 0.25272 0.61367 0.0
H532 H 0.03216 0.21197 0.64797 0.0
H533 H 0.01523 0.19918 0.56502 0.0
H534 H 0.98915 0.23266 0.56917 0.0
H535 H 0.99198 0.2464 0.51376 0.0
H536 H 1.00399 0.25229 0.57706 0.0
H537 H 0.02792 0.26302 0.51153 0.0
H538 H 0.01598 0.25702 0.44806 0.0
H539 H 0.02956 0.25067 0.45945 0.0
H540 H 0.99913 0.19111 0.47557 0.0
H541 H 0.98303 0.18745 0.39023 0.0
H542 H 0.98972 0.23298 0.41326 0.0
C543 C 0.02625 0.24103 0.60419 0.0
C544 C 0.03213 0.23336 0.6377 0.0
C545 C 0.02782 0.21811 0.62336 0.0
C546 C 0.01823 0.21074 0.57606 0.0
C547 C 0.01289 0.21869 0.54331 0.0
C548 C 0.01656 0.23343 0.55704 0.0
C549 C 1.0092 0.23931 0.5144 0.0
C550 C 0.99791 0.24287 0.54546 0.0
C551 C 0.0214 0.25334 0.48142 0.0
C552 C 1.00093 0.22562 0.47447 0.0
C553 C 1.00332 0.2139 0.49192 0.0
C554 C 0.99711 0.20017 0.46172 0.0
C555 C 0.98801 0.19823 0.41301 0.0
C556 C 0.98506 0.20989 0.39474 0.0
C557 C 0.99175 0.22383 0.42591 0.0
H558 H 0.80977 0.79016 0.40649 0.0
H559 H 0.77378 0.74264 0.40159 0.0
H560 H 0.76166 0.7468 0.48598 0.0
H561 H 0.81218 0.79358 0.56303 0.0
H562 H 0.8151 0.81268 0.56455 0.0
H563 H 0.82134 0.80633 0.50297 0.0
H564 H 0.80534 0.81324 0.43499 0.0
H565 H 0.79914 0.81971 0.4963 0.0
H566 H 0.78524 0.80535 0.44886 0.0
H567 H 0.75321 0.75541 0.57007 0.0
H568 H 0.748 0.76855 0.64822 0.0
H569 H 0.78889 0.81099 0.60307 0.0
C570 C 0.7993 0.78068 0.4231 0.0
C571 C 0.79277 0.76603 0.39705 0.0
C572 C 0.77908 0.75394 0.42038 0.0
C573 C 0.77208 0.75617 0.4686 0.0
C574 C 0.77882 0.77059 0.49356 0.0
C575 C 0.79205 0.78271 0.47173 0.0
C576 C 0.79662 0.79706 0.50728 0.0
C577 C 0.81224 0.80275 0.53617 0.0
C578 C 0.79658 0.80958 0.46961 0.0
C579 C 0.78385 0.79103 0.5521 0.0
C580 C 0.77381 0.77569 0.54308 0.0
C581 C 0.76098 0.76743 0.57763 0.0
C582 C 0.75813 0.77504 0.62207 0.0
C583 C 0.76801 0.79082 0.63213 0.0
C584 C 0.78119 0.79889 0.59694 0.0
H585 H 0.78871 0.98559 0.61051 0.0
H586 H 0.74469 0.982 0.64149 0.0
H587 H 0.74906 0.9993 0.5596 0.0
H588 H 0.80866 0.0259 0.5693 0.0
H589 H 0.81997 0.02364 0.51416 0.0
H590 H 0.81361 0.01113 0.5761 0.0
H591 H 0.80097 0.98772 0.50805 0.0
H592 H 0.80719 1.00016 0.44591 0.0
H593 H 0.78724 0.98637 0.45511 0.0
H594 H 0.75761 0.01639 0.47298 0.0
H595 H 0.77045 0.03332 0.39001 0.0
H596 H 0.80929 0.02658 0.41317 0.0
C597 C 0.78006 0.98856 0.60036 0.0
C598 C 0.76633 0.98238 0.63283 0.0
C599 C 0.75529 0.98653 0.61766 0.0
C600 C 0.75766 0.99636 0.57097 0.0
C601 C 0.77115 1.00207 0.53946 0.0
C602 C 0.78225 0.99845 0.5536 0.0
C603 C 0.79573 0.00626 0.5122 0.0
C604 C 0.81036 0.01739 0.5449 0.0
C605 C 0.7979 0.99442 0.47831 0.0
C606 C 0.79041 0.01475 0.47264 0.0
C607 C 0.77617 0.0121 0.48925 0.0
C608 C 0.76879 0.01858 0.45967 0.0
C609 C 0.77619 0.02818 0.41235 0.0
C610 C 0.7909 0.03133 0.39467 0.0
C611 C 0.79803 0.02438 0.42526 0.0
H612 H 0.02989 0.80714 0.6065 0.0
H613 H 0.03477 0.76725 0.63113 0.0
H614 H 0.01617 0.75402 0.55279 0.0
H615 H 0.98941 0.78686 0.57492 0.0
H616 H 0.99068 0.80024 0.52057 0.0
H617 H 1.00425 0.80658 0.57911 0.0
H618 H 0.02647 0.81715 0.50529 0.0
H619 H 0.01297 0.81083 0.44652 0.0
H620 H 0.02685 0.80465 0.45064 0.0
H621 H 0.99681 0.74492 0.47198 0.0
H622 H 0.97855 0.74081 0.3936 0.0
H623 H 0.98639 0.78669 0.41866 0.0
C624 C 0.027 0.7956 0.59555 0.0
C625 C 0.03381 0.78824 0.62534 0.0
C626 C 0.02976 0.77317 0.6092 0.0
C627 C 0.01917 0.76553 0.56466 0.0
C628 C 0.01271 0.7731 0.53613 0.0
C629 C 0.01649 0.78782 0.55076 0.0
C630 C 1.008 0.7934 0.51256 0.0
C631 C 0.99746 0.79698 0.54897 0.0
C632 C 0.01925 0.80733 0.47662 0.0
C633 C 0.99885 0.77952 0.47433 0.0
C634 C 1.00172 0.76793 0.48886 0.0
C635 C 0.99452 0.75394 0.4602 0.0
C636 C 0.98413 0.7517 0.41565 0.0
C637 C 0.981 0.7634 0.39962 0.0
C638 C 0.98854 0.77751 0.42955 0.0
H639 H 0.22629 0.20058 0.4198 0.0
H640 H 0.27273 0.23866 0.40831 0.0
H641 H 0.26846 0.25014 0.49447 0.0
H642 H 0.20949 0.22345 0.46524 0.0
H643 H 0.19594 0.20922 0.51406 0.0
H644 H 0.2025 0.20349 0.45169 0.0
H645 H 0.21114 0.18858 0.51816 0.0
H646 H 0.2047 0.19438 0.58079 0.0
H647 H 0.22416 0.19838 0.57683 0.0
H648 H 0.25992 0.25764 0.58166 0.0
H649 H 0.24669 0.26203 0.66175 0.0
H650 H 0.20504 0.22001 0.61944 0.0
C651 C 0.23552 0.21134 0.43545 0.0
C652 C 0.2499 0.21866 0.40694 0.0
C653 C 0.26163 0.23278 0.42887 0.0
C654 C 0.25935 0.23941 0.47816 0.0
C655 C 0.24521 0.23192 0.50543 0.0
C656 C 0.23339 0.2183 0.48481 0.0
C657 C 0.21918 0.21308 0.52211 0.0
C658 C 0.206 0.21226 0.48612 0.0
C659 C 0.21452 0.19769 0.55119 0.0
C660 C 0.22495 0.22591 0.56659 0.0
C661 C 0.24006 0.23652 0.55604 0.0
C662 C 0.24807 0.24944 0.59032 0.0
C663 C 0.24041 0.25181 0.63596 0.0
C664 C 0.22479 0.24141 0.64728 0.0
C665 C 0.21701 0.22814 0.61235 0.0
H666 H 0.89679 0.36232 0.74995 0.0
H667 H 0.94183 0.36802 0.72279 0.0
H668 H 0.93716 0.34959 0.80073 0.0
H669 H 0.89716 0.3596 0.90534 0.0
H670 H 0.87726 0.34536 0.91155 0.0
H671 H 0.88371 0.3586 0.85185 0.0
H672 H 0.87203 0.33607 0.77955 0.0
H673 H 0.8655 0.32276 0.83905 0.0
H674 H 0.87743 0.32159 0.78376 0.0
H675 H 0.92804 0.33083 0.88205 0.0
H676 H 0.91499 0.31295 0.96249 0.0
H677 H 0.87587 0.31929 0.94086 0.0
C678 C 0.9056 0.35957 0.76014 0.0
C679 C 0.91969 0.36665 0.72986 0.0
C680 C 0.93096 0.36283 0.74511 0.0
C681 C 0.92842 0.35233 0.78942 0.0
C682 C 0.91454 0.34569 0.81874 0.0
C683 C 0.90329 0.34913 0.80492 0.0
C684 C 0.88955 0.34053 0.84457 0.0
C685 C 0.88676 0.35169 0.88045 0.0
C686 C 0.87528 0.32959 0.80964 0.0
C687 C 0.89489 0.3318 0.88267 0.0
C688 C 0.90933 0.33494 0.86667 0.0
C689 C 0.91673 0.32828 0.89497 0.0
C690 C 0.9092 0.31812 0.94075 0.0
C691 C 0.8944 0.31468 0.95833 0.0
C692 C 0.88719 0.32169 0.92872 0.0
H693 H 0.65865 0.53798 0.75141 0.0
H694 H 0.6538 0.57785 0.72436 0.0
H695 H 0.67044 0.5904 0.80775 0.0
H696 H 0.65869 0.53895 0.90711 0.0
H697 H 0.67298 0.53343 0.91608 0.0
H698 H 0.66084 0.52732 0.85312 0.0
H699 H 0.68459 0.53937 0.78653 0.0
H700 H 0.6968 0.54539 0.84928 0.0
H701 H 0.69881 0.5592 0.79547 0.0
H702 H 0.68675 0.5986 0.89525 0.0
H703 H 0.70361 0.6028 0.97842 0.0
H704 H 0.69898 0.55821 0.95109 0.0
C705 C 0.66123 0.5494 0.76275 0.0
C706 C 0.65484 0.55688 0.731 0.0
C707 C 0.65847 0.57181 0.74766 0.0
C708 C 0.66792 0.57907 0.79523 0.0
C709 C 0.6738 0.57135 0.82612 0.0
C710 C 0.67078 0.55693 0.81046 0.0
C711 C 0.67878 0.55137 0.85151 0.0
C712 C 0.66712 0.53691 0.88386 0.0
C713 C 0.69044 0.54867 0.81873 0.0
C714 C 0.68668 0.56492 0.89247 0.0
C715 C 0.68352 0.57624 0.87693 0.0
C716 C 0.68936 0.58984 0.90777 0.0
C717 C 0.69892 0.5921 0.95519 0.0
C718 C 0.70266 0.58086 0.97162 0.0
C719 C 0.6963 0.567 0.93994 0.0
H720 H 0.45377 0.09357 0.73881 0.0
H721 H 0.49779 0.13407 0.709 0.0
H722 H 0.49339 0.14666 0.79204 0.0
H723 H 0.4338 0.11383 0.78255 0.0
H724 H 0.42248 0.09988 0.83669 0.0
H725 H 0.42883 0.09417 0.77362 0.0
H726 H 0.44142 0.08286 0.83964 0.0
H727 H 0.43525 0.08867 0.90289 0.0
H728 H 0.45519 0.09484 0.89313 0.0
H729 H 0.48495 0.15452 0.88116 0.0
H730 H 0.47216 0.15792 0.96582 0.0
H731 H 0.4332 0.11268 0.93853 0.0
C732 C 0.46239 0.10516 0.74927 0.0
C733 C 0.47614 0.11283 0.71699 0.0
C734 C 0.48716 0.12795 0.73263 0.0
C735 C 0.48478 0.1352 0.77999 0.0
C736 C 0.47129 0.12725 0.81149 0.0
C737 C 0.46018 0.11263 0.7965 0.0
C738 C 0.44672 0.10668 0.83799 0.0
C739 C 0.43209 0.10345 0.80578 0.0
C740 C 0.44452 0.09242 0.87032 0.0
C741 C 0.45206 0.12019 0.87879 0.0
C742 C 0.4663 0.13189 0.86272 0.0
C743 C 0.47375 0.14546 0.89392 0.0
C744 C 0.46639 0.14726 0.94223 0.0
C745 C 0.45165 0.13559 0.95915 0.0
C746 C 0.44447 0.12182 0.92695 0.0
H747 H 0.45156 0.36013 0.74726 0.0
H748 H 0.49633 0.36509 0.72106 0.0
H749 H 0.49207 0.34813 0.80408 0.0
H750 H 0.45218 0.35974 0.90253 0.0
H751 H 0.43234 0.34548 0.91051 0.0
H752 H 0.43856 0.35779 0.848 0.0
H753 H 0.42696 0.33422 0.78058 0.0
H754 H 0.42058 0.32184 0.84289 0.0
H755 H 0.43249 0.31993 0.78947 0.0
H756 H 0.48361 0.33148 0.89146 0.0
H757 H 0.47071 0.31458 0.97433 0.0
H758 H 0.43096 0.31952 0.94524 0.0
C759 C 0.4604 0.35753 0.7587 0.0
C760 C 0.47431 0.36398 0.72736 0.0
C761 C 0.48559 0.36031 0.74405 0.0
C762 C 0.48329 0.35071 0.79138 0.0
C763 C 0.46961 0.34473 0.8218 0.0
C764 C 0.45826 0.34784 0.80598 0.0
C765 C 0.4446 0.33979 0.8463 0.0
C766 C 0.44176 0.3514 0.87875 0.0
C767 C 0.43031 0.32826 0.8128 0.0
C768 C 0.4501 0.33175 0.88726 0.0
C769 C 0.4646 0.33486 0.87228 0.0
C770 C 0.47222 0.32891 0.90348 0.0
C771 C 0.46479 0.31933 0.95072 0.0
C772 C 0.4498 0.31568 0.96658 0.0
C773 C 0.44242 0.32211 0.93445 0.0
H774 H 0.69969 0.14056 0.94248 0.0
H775 H 0.71104 0.10458 0.95682 0.0
H776 H 0.69414 0.09125 0.87431 0.0
H777 H 0.65989 0.11605 0.90448 0.0
H778 H 0.65944 0.12944 0.85411 0.0
H779 H 0.67243 0.13626 0.91454 0.0
H780 H 0.69509 0.15105 0.84425 0.0
H781 H 0.68218 0.14422 0.78358 0.0
H782 H 0.69813 0.14096 0.78632 0.0
H783 H 0.67612 0.0817 0.79047 0.0
H784 H 0.65765 0.07619 0.71177 0.0
H785 H 0.65764 0.11822 0.74942 0.0
C786 C 0.69858 0.12986 0.92836 0.0
C787 C 0.70673 0.12363 0.9564 0.0
C788 C 0.70495 0.10961 0.93632 0.0
C789 C 0.69537 0.10194 0.88932 0.0
C790 C 0.68759 0.10839 0.86248 0.0
C791 C 0.68902 0.12201 0.88123 0.0
C792 C 0.67928 0.12637 0.84452 0.0
C793 C 0.66703 0.12706 0.88164 0.0
C794 C 0.68927 0.14155 0.81279 0.0
C795 C 0.67216 0.11307 0.80234 0.0
C796 C 0.67716 0.10287 0.81362 0.0
C797 C 0.67214 0.08961 0.78121 0.0
C798 C 0.66162 0.08659 0.73644 0.0
C799 C 0.65617 0.09676 0.72406 0.0
C800 C 0.66164 0.11025 0.75742 0.0
H801 H 0.89647 0.53922 0.74478 0.0
H802 H 0.94369 0.57573 0.73477 0.0
H803 H 0.93971 0.58816 0.81879 0.0
H804 H 0.88084 0.56322 0.78537 0.0
H805 H 0.86685 0.54949 0.83443 0.0
H806 H 0.87328 0.54309 0.77363 0.0
H807 H 0.88099 0.52795 0.84295 0.0
H808 H 0.87466 0.53438 0.90401 0.0
H809 H 0.89391 0.53774 0.90189 0.0
H810 H 0.93102 0.59704 0.90243 0.0
H811 H 0.91774 0.60236 0.98009 0.0
H812 H 0.87584 0.56045 0.93955 0.0
C813 C 0.90595 0.54983 0.76032 0.0
C814 C 0.92042 0.55646 0.73288 0.0
C815 C 0.9325 0.57037 0.7547 0.0
C816 C 0.93037 0.57755 0.80265 0.0
C817 C 0.91608 0.57073 0.82881 0.0
C818 C 0.90401 0.55723 0.80855 0.0
C819 C 0.88976 0.55261 0.84471 0.0
C820 C 0.87692 0.55207 0.8073 0.0
C821 C 0.88452 0.53726 0.8752 0.0
C822 C 0.89575 0.56567 0.88809 0.0
C823 C 0.91099 0.57592 0.87792 0.0
C824 C 0.9191 0.58908 0.91096 0.0
C825 C 0.91142 0.59199 0.95509 0.0
C826 C 0.89575 0.58183 0.96629 0.0
C827 C 0.88786 0.56837 0.93257 0.0
H828 H 0.53986 0.64825 0.27713 0.0
H829 H 0.58109 0.64681 0.31658 0.0
H830 H 0.59475 0.66566 0.23935 0.0
H831 H 0.54472 0.65091 0.12343 0.0
H832 H 0.53742 0.66377 0.11339 0.0
H833 H 0.53095 0.65067 0.17353 0.0
H834 H 0.53918 0.67321 0.24466 0.0
H835 H 0.54562 0.68637 0.1847 0.0
H836 H 0.55854 0.68891 0.24295 0.0
H837 H 0.60387 0.68417 0.15611 0.0
H838 H 0.60788 0.7012 0.0733 0.0
H839 H 0.56078 0.6907 0.08589 0.0
C840 C 0.5518 0.65202 0.26992 0.0
C841 C 0.5594 0.64606 0.3033 0.0
C842 C 0.575 0.6512 0.29188 0.0
C843 C 0.58287 0.66192 0.248 0.0
C844 C 0.57503 0.66744 0.21554 0.0
C845 C 0.55985 0.66271 0.22595 0.0
C846 C 0.55405 0.67021 0.18372 0.0
C847 C 0.54101 0.65817 0.14631 0.0
C848 C 0.54905 0.68027 0.21594 0.0
C849 C 0.56831 0.67982 0.14782 0.0
C850 C 0.58028 0.67806 0.16711 0.0
C851 C 0.59458 0.68566 0.14076 0.0
C852 C 0.59674 0.69531 0.09359 0.0
C853 C 0.58468 0.69734 0.07284 0.0
C854 C 0.57026 0.68943 0.10057 0.0
H855 H 0.36174 0.89474 0.26923 0.0
H856 H 0.3682 0.94014 0.29364 0.0
H857 H 0.35143 0.93622 0.21026 0.0
H858 H 0.36135 0.89508 0.11329 0.0
H859 H 0.3467 0.87535 0.10628 0.0
H860 H 0.35913 0.88148 0.16841 0.0
H861 H 0.33569 0.87061 0.23651 0.0
H862 H 0.32319 0.86434 0.17462 0.0
H863 H 0.32178 0.87664 0.22758 0.0
H864 H 0.3344 0.92781 0.12396 0.0
H865 H 0.31691 0.91489 0.04278 0.0
H866 H 0.32082 0.87457 0.07234 0.0
C867 C 0.35955 0.90382 0.25721 0.0
C868 C 0.36633 0.91778 0.28823 0.0
C869 C 0.36317 0.92936 0.27086 0.0
C870 C 0.35367 0.92726 0.22335 0.0
C871 C 0.34733 0.91348 0.19339 0.0
C872 C 0.35002 0.90189 0.20972 0.0
C873 C 0.34159 0.88815 0.17003 0.0
C874 C 0.35287 0.88482 0.13758 0.0
C875 C 0.32986 0.8741 0.20423 0.0
C876 C 0.33377 0.89386 0.12894 0.0
C877 C 0.33734 0.90854 0.14329 0.0
C878 C 0.33151 0.91631 0.11236 0.0
C879 C 0.32158 0.90885 0.06612 0.0
C880 C 0.31746 0.89369 0.05085 0.0
C881 C 0.32381 0.88618 0.08253 0.0
H882 H 0.12204 0.47249 0.26803 0.0
H883 H 0.07779 0.43264 0.30119 0.0
H884 H 0.0823 0.41886 0.22252 0.0
H885 H 0.12067 0.46908 0.11365 0.0
H886 H 0.14067 0.47529 0.10573 0.0
H887 H 0.13425 0.48188 0.16599 0.0
H888 H 0.14689 0.47173 0.23729 0.0
H889 H 0.15342 0.46517 0.17723 0.0
H890 H 0.14206 0.45201 0.23347 0.0
H891 H 0.09144 0.40951 0.13864 0.0
H892 H 0.10456 0.4052 0.05697 0.0
H893 H 0.14284 0.45117 0.07699 0.0
C894 C 0.11335 0.46082 0.25911 0.0
C895 C 0.09955 0.45364 0.29114 0.0
C896 C 0.08845 0.43839 0.27754 0.0
C897 C 0.09091 0.43047 0.23281 0.0
C898 C 0.10455 0.43791 0.20176 0.0
C899 C 0.1156 0.45274 0.21437 0.0
C900 C 0.12915 0.45819 0.17371 0.0
C901 C 0.1313 0.47192 0.13764 0.0
C902 C 0.14374 0.462 0.20745 0.0
C903 C 0.12397 0.44414 0.13617 0.0
C904 C 0.10975 0.43256 0.15318 0.0
C905 C 0.10258 0.41849 0.12505 0.0
C906 C 0.11013 0.41616 0.07857 0.0
C907 C 0.12473 0.42782 0.06029 0.0
C908 C 0.13168 0.44201 0.08967 0.0
H909 H 0.09899 0.65462 0.28734 0.0
H910 H 0.14003 0.65215 0.31874 0.0
H911 H 0.15245 0.66911 0.23537 0.0
H912 H 0.10043 0.65419 0.13332 0.0
H913 H 0.09387 0.66762 0.12226 0.0
H914 H 0.08822 0.65582 0.18615 0.0
H915 H 0.09905 0.67987 0.25091 0.0
H916 H 0.10458 0.69174 0.1872 0.0
H917 H 0.1186 0.69481 0.24172 0.0
H918 H 0.16009 0.68516 0.14565 0.0
H919 H 0.16322 0.70097 0.0599 0.0
H920 H 0.11758 0.69382 0.08563 0.0
C921 C 0.11067 0.65784 0.27722 0.0
C922 C 0.11853 0.65204 0.31 0.0
C923 C 0.13376 0.65644 0.29472 0.0
C924 C 0.14092 0.66605 0.24717 0.0
C925 C 0.13278 0.6713 0.2151 0.0
C926 C 0.11805 0.66752 0.22974 0.0
C927 C 0.11188 0.67468 0.18745 0.0
C928 C 0.09777 0.66234 0.1554 0.0
C929 C 0.10832 0.68594 0.21869 0.0
C930 C 0.12539 0.68296 0.14662 0.0
C931 C 0.13728 0.68077 0.16341 0.0
C932 C 0.15089 0.68703 0.13233 0.0
C933 C 0.15253 0.69596 0.08339 0.0
C934 C 0.14068 0.69869 0.06571 0.0
C935 C 0.12687 0.69197 0.09779 0.0
H936 H 0.36285 0.4753 0.26536 0.0
H937 H 0.36774 0.43524 0.28565 0.0
H938 H 0.35107 0.42338 0.20178 0.0
H939 H 0.32272 0.45439 0.22278 0.0
H940 H 0.32443 0.46847 0.17082 0.0
H941 H 0.33693 0.47418 0.23272 0.0
H942 H 0.36038 0.48667 0.16473 0.0
H943 H 0.34795 0.4809 0.1026 0.0
H944 H 0.36232 0.4754 0.10863 0.0
H945 H 0.33453 0.41573 0.11584 0.0
H946 H 0.31721 0.41177 0.03501 0.0
H947 H 0.32164 0.45611 0.06726 0.0
C948 C 0.36033 0.46401 0.25224 0.0
C949 C 0.36669 0.45624 0.28243 0.0
C950 C 0.36308 0.44148 0.26368 0.0
C951 C 0.35362 0.43461 0.21577 0.0
C952 C 0.3477 0.44256 0.1867 0.0
C953 C 0.35073 0.45686 0.20423 0.0
C954 C 0.3425 0.4626 0.16514 0.0
C955 C 0.33096 0.46505 0.19995 0.0
C956 C 0.35398 0.47727 0.1334 0.0
C957 C 0.33443 0.44929 0.12316 0.0
C958 C 0.33776 0.43795 0.1366 0.0
C959 C 0.33179 0.4245 0.10495 0.0
C960 C 0.32194 0.42237 0.05888 0.0
C961 C 0.31797 0.43358 0.04445 0.0
C962 C 0.32448 0.44734 0.07685 0.0
H963 H 0.56483 0.91494 0.27064 0.0
H964 H 0.5196 0.87572 0.29509 0.0
H965 H 0.52397 0.86273 0.21336 0.0
H966 H 0.56471 0.91386 0.11558 0.0
H967 H 0.58454 0.91925 0.10898 0.0
H968 H 0.57817 0.92544 0.17061 0.0
H969 H 0.58933 0.91327 0.23957 0.0
H970 H 0.59582 0.90713 0.17813 0.0
H971 H 0.58362 0.8934 0.23136 0.0
H972 H 0.53278 0.8542 0.12671 0.0
H973 H 0.5459 0.85026 0.04422 0.0
H974 H 0.58567 0.89472 0.07516 0.0
C975 C 0.55591 0.90356 0.25917 0.0
C976 C 0.54186 0.89636 0.28968 0.0
C977 C 0.53047 0.8815 0.27277 0.0
C978 C 0.53283 0.87401 0.22619 0.0
C979 C 0.54669 0.88147 0.19663 0.0
C980 C 0.55809 0.89587 0.2126 0.0
C981 C 0.57189 0.90134 0.17311 0.0
C982 C 0.57501 0.91583 0.14012 0.0
C983 C 0.586 0.90393 0.20761 0.0
C984 C 0.56642 0.88779 0.13244 0.0
C985 C 0.55183 0.87649 0.14677 0.0
C986 C 0.54424 0.86296 0.11527 0.0
C987 C 0.55179 0.86084 0.06827 0.0
C988 C 0.56683 0.87214 0.05295 0.0
C989 C 0.57418 0.88583 0.08562 0.0
H990 H 0.20098 0.9902 0.88915 0.0
H991 H 0.23725 0.97958 0.86948 0.0
H992 H 0.25153 0.9974 0.94947 0.0
H993 H 0.22649 0.03129 0.9228 0.0
H994 H 0.21289 0.03151 0.97257 0.0
H995 H 0.20632 0.01872 0.91161 0.0
H996 H 0.19129 0.99599 0.98159 0.0
H997 H 0.19814 0.00864 0.04286 0.0
H998 H 0.2013 0.99263 0.03918 0.0
H999 H 0.26003 0.01388 0.04093 0.0
H1000 H 0.26478 0.03176 0.12193 0.0
H1001 H 0.22393 0.03315 0.07592 0.0
C1002 C 0.21215 0.992 0.90057 0.0
C1003 C 0.21811 0.98366 0.87281 0.0
C1004 C 0.23264 0.9861 0.88942 0.0
C1005 C 0.24072 0.99605 0.93529 0.0
C1006 C 0.23424 1.00368 0.96326 0.0
C1007 C 0.2205 1.00214 0.94522 0.0
C1008 C 0.21603 0.0117 0.98192 0.0
C1009 C 0.2154 0.02404 0.94503 0.0
C1010 C 0.20079 1.00163 0.01322 0.0
C1011 C 0.22922 0.01864 0.0243 0.0
C1012 C 0.23949 0.0137 0.01353 0.0
C1013 C 0.25218 0.018 0.04906 0.0
C1014 C 0.25469 0.028 0.09541 0.0
C1015 C 0.24472 0.03381 0.10522 0.0
C1016 C 0.23176 0.02891 0.06938 0.0
H1017 H 0.97398 0.20139 0.0427 0.0
H1018 H 0.99783 0.22962 0.19122 0.0
H1019 H 0.02082 0.24419 0.1312 0.0
H1020 H 1.00586 0.1994 0.98493 0.0
H1021 H 1.00105 0.2002 0.91038 0.0
H1022 H 0.98623 0.19222 0.96433 0.0
H1023 H 0.97739 0.21123 0.93401 0.0
H1024 H 0.99226 0.21935 0.8802 0.0
H1025 H 0.99091 0.23142 0.93437 0.0
H1026 H 0.04136 0.25526 0.0571 0.0
H1027 H 0.05879 0.26166 0.97432 0.0
H1028 H 0.02213 0.22672 0.87125 0.0
C1029 C 0.98402 0.21065 0.06274 0.0
C1030 C 0.98399 0.21432 0.12208 0.0
C1031 C 0.99745 0.22652 0.14618 0.0
C1032 C 0.01059 0.23492 0.11229 0.0
C1033 C 0.01016 0.23105 0.05415 0.0
C1034 C 0.99727 0.21918 0.02946 0.0
C1035 C 1.00008 0.21717 0.96618 0.0
C1036 C 0.9982 0.20131 0.95587 0.0
C1037 C 0.98953 0.21996 0.92634 0.0
C1038 C 0.01663 0.2297 0.95931 0.0
C1039 C 0.02212 0.23756 0.01076 0.0
C1040 C 0.03717 0.24924 0.01658 0.0
C1041 C 0.04698 0.25278 0.96921 0.0
C1042 C 0.04182 0.24476 0.91618 0.0
C1043 C 0.02633 0.23323 0.91084 0.0
H1044 H 0.78421 0.81635 0.95451 0.0
H1045 H 0.75368 0.77502 0.86089 0.0
H1046 H 0.75828 0.75976 0.93363 0.0
H1047 H 0.81173 0.80488 0.99081 0.0
H1048 H 0.81609 0.81411 0.06046 0.0
H1049 H 0.80981 0.82147 1.00219 0.0
H1050 H 0.78793 0.81927 0.06709 0.0
H1051 H 0.79398 0.81161 0.12521 0.0
H1052 H 0.77464 0.8011 0.0988 0.0
H1053 H 0.76585 0.74894 0.01868 0.0
H1054 H 0.77888 0.74386 0.09935 0.0
H1055 H 0.80559 0.7923 0.13404 0.0
C1056 C 0.7785 0.80409 0.94923 0.0
C1057 C 0.76849 0.79687 0.90205 0.0
C1058 C 0.76142 0.78081 0.89642 0.0
C1059 C 0.76387 0.77204 0.93787 0.0
C1060 C 0.77358 0.77949 0.98442 0.0
C1061 C 0.78103 0.7952 0.98958 0.0
C1062 C 0.79162 0.80052 0.04158 0.0
C1063 C 0.8083 0.81085 0.02262 0.0
C1064 C 0.78674 0.80861 0.08578 0.0
C1065 C 0.789 0.78537 0.06498 0.0
C1066 C 0.77832 0.77335 0.03203 0.0
C1067 C 0.77416 0.75827 0.04483 0.0
C1068 C 0.78148 0.75546 0.09111 0.0
C1069 C 0.79289 0.76765 0.12376 0.0
C1070 C 0.79656 0.78276 0.11083 0.0
H1071 H 0.79108 0.99571 0.87344 0.0
H1072 H 0.75057 0.96105 0.96056 0.0
H1073 H 0.75593 0.9783 0.04368 0.0
H1074 H 0.81438 0.00836 0.99744 0.0
H1075 H 0.82449 0.02831 0.97836 0.0
H1076 H 0.81668 0.01404 0.92246 0.0
H1077 H 0.80145 0.02628 0.88131 0.0
H1078 H 0.80936 0.0407 0.93675 0.0
H1079 H 0.78896 0.02923 0.92834 0.0
H1080 H 0.76661 0.99839 0.12063 0.0
H1081 H 0.78154 0.02038 0.18506 0.0
H1082 H 0.81553 0.04216 0.04973 0.0
C1083 C 0.78315 0.99201 0.90936 0.0
C1084 C 0.77025 0.97718 0.91035 0.0
C1085 C 0.76038 0.97246 0.95884 0.0
C1086 C 0.76335 0.98216 1.00627 0.0
C1087 C 0.77633 0.99659 1.00489 0.0
C1088 C 0.78604 1.00158 0.95763 0.0
C1089 C 0.79966 0.01731 0.96903 0.0
C1090 C 0.81469 0.01697 0.96669 0.0
C1091 C 0.79986 0.02908 0.92632 0.0
C1092 C 0.79618 0.02019 0.03019 0.0
C1093 C 0.78262 0.00813 0.04988 0.0
C1094 C 0.7772 0.00797 0.10552 0.0
C1095 C 0.78581 0.02052 0.14193 0.0
C1096 C 0.79976 0.0331 0.12286 0.0
C1097 C 0.80493 0.03281 0.06599 0.0
H1098 H 0.02892 0.81353 0.91573 0.0
H1099 H 0.03287 0.77344 0.88453 0.0
H1100 H 0.01531 0.76029 0.96686 0.0
H1101 H 0.02899 0.81244 0.0665 0.0
H1102 H 0.01515 0.81852 0.07616 0.0
H1103 H 0.02702 0.82425 0.01259 0.0
H1104 H 1.00313 0.81256 0.94634 0.0
H1105 H 0.9912 0.80726 1.00968 0.0
H1106 H 0.98841 0.79299 0.95694 0.0
H1107 H 0.9989 0.75264 0.06025 0.0
H1108 H 0.98165 0.74953 0.14213 0.0
H1109 H 0.98853 0.79467 0.10808 0.0
C1110 C 0.02577 0.80183 0.92525 0.0
C1111 C 0.03211 0.79443 0.89352 0.0
C1112 C 0.02788 0.77919 0.90762 0.0
C1113 C 0.01809 0.77174 0.95482 0.0
C1114 C 0.01255 0.77965 0.98686 0.0
C1115 C 0.01596 0.79424 0.97148 0.0
C1116 C 1.00859 0.80037 0.01205 0.0
C1117 C 0.02066 0.81475 0.04368 0.0
C1118 C 0.99715 0.80347 0.97931 0.0
C1119 C 1.00057 0.78706 0.05327 0.0
C1120 C 1.00309 0.77524 0.03881 0.0
C1121 C 0.99681 0.76182 0.07158 0.0
C1122 C 0.98722 0.76022 0.11854 0.0
C1123 C 0.98389 0.77192 0.1317 0.0
C1124 C 0.99098 0.78559 0.09931 0.0
H1125 H 0.24147 0.20114 0.05097 0.0
H1126 H 0.23991 0.22513 0.20424 0.0
H1127 H 0.2302 0.23876 0.14497 0.0
H1128 H 0.25379 0.23299 0.9516 0.0
H1129 H 0.24238 0.22131 0.89223 0.0
H1130 H 0.24934 0.21341 0.94622 0.0
H1131 H 0.22173 0.19167 0.96599 0.0
H1132 H 0.2147 0.19945 0.91189 0.0
H1133 H 0.20726 0.19637 0.98454 0.0
H1134 H 0.21993 0.24913 0.07087 0.0
H1135 H 0.2096 0.25577 0.98639 0.0
H1136 H 0.21834 0.22592 0.87843 0.0
C1137 C 0.23907 0.20923 0.07224 0.0
C1138 C 0.24145 0.21199 0.13267 0.0
C1139 C 0.23822 0.22277 0.15831 0.0
C1140 C 0.23271 0.2306 0.12491 0.0
C1141 C 0.23057 0.22765 0.06568 0.0
C1142 C 0.23366 0.21726 0.03941 0.0
C1143 C 0.23023 0.21618 0.97487 0.0
C1144 C 0.24481 0.22128 0.93913 0.0
C1145 C 0.21773 0.19996 0.95837 0.0
C1146 C 0.22455 0.22748 0.96909 0.0
C1147 C 0.22488 0.23393 0.02223 0.0
C1148 C 0.2197 0.24423 0.02905 0.0
C1149 C 0.21382 0.2479 0.9807 0.0
C1150 C 0.21318 0.24141 0.9257 0.0
C1151 C 0.21887 0.23122 0.91966 0.0
H1152 H 0.89372 0.36403 0.43939 0.0
H1153 H 0.93804 0.36858 0.47048 0.0
H1154 H 0.9336 0.35071 0.38929 0.0
H1155 H 0.87404 0.32333 0.40199 0.0
H1156 H 0.86221 0.32558 0.349 0.0
H1157 H 0.86897 0.33794 0.41108 0.0
H1158 H 0.88066 0.36138 0.34244 0.0
H1159 H 0.87436 0.34907 0.28013 0.0
H1160 H 0.89426 0.36314 0.28827 0.0
H1161 H 0.92473 0.3339 0.29712 0.0
H1162 H 0.91049 0.31615 0.21671 0.0
H1163 H 0.87181 0.32232 0.25083 0.0
C1164 C 0.90233 0.36095 0.43003 0.0
C1165 C 0.91616 0.36753 0.46142 0.0
C1166 C 0.92725 0.36341 0.44761 0.0
C1167 C 0.92489 0.35345 0.40108 0.0
C1168 C 0.91131 0.34761 0.36947 0.0
C1169 C 0.90007 0.35094 0.38458 0.0
C1170 C 0.88639 0.34315 0.34482 0.0
C1171 C 0.87206 0.33182 0.37874 0.0
C1172 C 0.88377 0.35489 0.31199 0.0
C1173 C 0.89167 0.33498 0.30438 0.0
C1174 C 0.90615 0.33782 0.31846 0.0
C1175 C 0.91335 0.33156 0.28613 0.0
C1176 C 0.90528 0.32166 0.24002 0.0
C1177 C 0.89013 0.318 0.22729 0.0
C1178 C 0.88344 0.32503 0.25929 0.0
H1179 H 0.6899 0.55907 0.20812 0.0
H1180 H 0.72705 0.59528 0.30482 0.0
H1181 H 0.70993 0.59015 0.38822 0.0
H1182 H 0.65886 0.56442 0.26842 0.0
H1183 H 0.64549 0.54422 0.27154 0.0
H1184 H 0.66018 0.55176 0.21698 0.0
H1185 H 0.66935 0.53328 0.25129 0.0
H1186 H 0.65478 0.52579 0.30622 0.0
H1187 H 0.67452 0.53347 0.32609 0.0
H1188 H 0.68946 0.58019 0.46352 0.0
H1189 H 0.66678 0.56607 0.52569 0.0
H1190 H 0.64275 0.53563 0.38248 0.0
C1191 C 0.69424 0.56612 0.24639 0.0
C1192 C 0.70973 0.57772 0.2499 0.0
C1193 C 0.71518 0.58644 0.30125 0.0
C1194 C 0.70555 0.5836 0.34884 0.0
C1195 C 0.69045 0.57189 0.34482 0.0
C1196 C 0.68476 0.56329 0.29498 0.0
C1197 C 0.66831 0.55075 0.30386 0.0
C1198 C 0.65757 0.55292 0.26276 0.0
C1199 C 0.66665 0.53489 0.29643 0.0
C1200 C 0.66578 0.55358 0.36642 0.0
C1201 C 0.67867 0.56591 0.38902 0.0
C1202 C 0.67924 0.57056 0.44621 0.0
C1203 C 0.66628 0.56243 0.48131 0.0
C1204 C 0.65289 0.54969 0.45939 0.0
C1205 C 0.65274 0.5453 0.40093 0.0
H1206 H 0.44862 0.14348 0.311 0.0
H1207 H 0.44512 0.11572 0.16218 0.0
H1208 H 0.45414 0.10161 0.22218 0.0
H1209 H 0.48289 0.14654 0.36917 0.0
H1210 H 0.47717 0.14547 0.44365 0.0
H1211 H 0.46998 0.15314 0.38971 0.0
H1212 H 0.44229 0.13347 0.41945 0.0
H1213 H 0.4494 0.12567 0.4733 0.0
H1214 H 0.43621 0.1134 0.41887 0.0
H1215 H 0.46412 0.09101 0.29631 0.0
H1216 H 0.47538 0.08493 0.37927 0.0
H1217 H 0.47241 0.11912 0.48265 0.0
C1218 C 0.4497 0.13441 0.29088 0.0
C1219 C 0.4461 0.13075 0.23147 0.0
C1220 C 0.44776 0.1188 0.20727 0.0
C1221 C 0.45285 0.11068 0.24115 0.0
C1222 C 0.45621 0.11456 0.29935 0.0
C1223 C 0.45476 0.12616 0.32413 0.0
C1224 C 0.45955 0.12824 0.38748 0.0
C1225 C 0.47321 0.1443 0.39811 0.0
C1226 C 0.44606 0.125 0.42711 0.0
C1227 C 0.46408 0.11608 0.3943 0.0
C1228 C 0.46196 0.10832 0.34274 0.0
C1229 C 0.46576 0.09696 0.33689 0.0
C1230 C 0.47218 0.09361 0.38438 0.0
C1231 C 0.47476 0.10151 0.43757 0.0
C1232 C 0.47038 0.11273 0.4429 0.0
H1233 H 0.46521 0.31389 0.27002 0.0
H1234 H 0.42444 0.31472 0.21819 0.0
H1235 H 0.42993 0.3347 0.29123 0.0
H1236 H 0.46417 0.3202 0.42076 0.0
H1237 H 0.48442 0.33296 0.42842 0.0
H1238 H 0.47733 0.31864 0.3726 0.0
H1239 H 0.49152 0.33945 0.29465 0.0
H1240 H 0.49884 0.35381 0.35033 0.0
H1241 H 0.48833 0.35543 0.29037 0.0
H1242 H 0.43875 0.35302 0.3752 0.0
H1243 H 0.45272 0.37194 0.45225 0.0
H1244 H 0.48931 0.3615 0.44297 0.0
C1245 C 0.45757 0.31844 0.27378 0.0
C1246 C 0.44439 0.31281 0.23864 0.0
C1247 C 0.43465 0.31901 0.24441 0.0
C1248 C 0.43762 0.33025 0.28608 0.0
C1249 C 0.45057 0.33542 0.32074 0.0
C1250 C 0.46064 0.33004 0.31395 0.0
C1251 C 0.47416 0.33816 0.3547 0.0
C1252 C 0.47506 0.32681 0.3966 0.0
C1253 C 0.4891 0.34725 0.32047 0.0
C1254 C 0.46997 0.3487 0.38629 0.0
C1255 C 0.45617 0.34673 0.36663 0.0
C1256 C 0.44963 0.35477 0.39047 0.0
C1257 C 0.45756 0.36538 0.43446 0.0
C1258 C 0.47197 0.36804 0.45352 0.0
C1259 C 0.47824 0.35956 0.42925 0.0
H1260 H 0.69684 0.14608 0.24091 0.0
H1261 H 0.7067 0.10929 0.22157 0.0
H1262 H 0.68835 0.09497 0.30022 0.0
H1263 H 0.69347 0.14523 0.39093 0.0
H1264 H 0.67766 0.14873 0.39322 0.0
H1265 H 0.69074 0.15564 0.33317 0.0
H1266 H 0.66841 0.14122 0.26107 0.0
H1267 H 0.6552 0.13457 0.32079 0.0
H1268 H 0.6555 0.12106 0.27084 0.0
H1269 H 0.67142 0.08645 0.39019 0.0
H1270 H 0.65324 0.08176 0.47005 0.0
H1271 H 0.6527 0.12304 0.42405 0.0
C1272 C 0.69479 0.13481 0.25221 0.0
C1273 C 0.70305 0.12868 0.22501 0.0
C1274 C 0.70026 0.11402 0.24125 0.0
C1275 C 0.69 0.10591 0.28629 0.0
C1276 C 0.68241 0.11252 0.31367 0.0
C1277 C 0.68433 0.12643 0.29594 0.0
C1278 C 0.6747 0.13098 0.33181 0.0
C1279 C 0.68475 0.14603 0.36419 0.0
C1280 C 0.66274 0.13201 0.29387 0.0
C1281 C 0.66728 0.11763 0.37336 0.0
C1282 C 0.67207 0.10722 0.36293 0.0
C1283 C 0.66742 0.0944 0.39803 0.0
C1284 C 0.65724 0.09192 0.44368 0.0
C1285 C 0.65161 0.10204 0.4531 0.0
C1286 C 0.65681 0.1151 0.41764 0.0
H1287 H 0.88988 0.53909 0.45733 0.0
H1288 H 0.9383 0.57164 0.44976 0.0
H1289 H 0.93378 0.58538 0.37017 0.0
H1290 H 0.88213 0.53628 0.31032 0.0
H1291 H 0.86397 0.53551 0.31565 0.0
H1292 H 0.87076 0.52895 0.37495 0.0
H1293 H 0.86829 0.54762 0.44471 0.0
H1294 H 0.86114 0.55399 0.38589 0.0
H1295 H 0.87749 0.56763 0.42674 0.0
H1296 H 0.92414 0.59333 0.28234 0.0
H1297 H 0.90971 0.59787 0.20563 0.0
H1298 H 0.86735 0.56142 0.27609 0.0
C1299 C 0.89942 0.54943 0.44017 0.0
C1300 C 0.9144 0.55454 0.46019 0.0
C1301 C 0.92671 0.56783 0.43584 0.0
C1302 C 0.92426 0.57558 0.39025 0.0
C1303 C 0.90938 0.57002 0.37025 0.0
C1304 C 0.89711 0.55751 0.39564 0.0
C1305 C 0.88225 0.55385 0.36618 0.0
C1306 C 0.87432 0.53769 0.34025 0.0
C1307 C 0.87167 0.5559 0.40839 0.0
C1308 C 0.88811 0.56594 0.31917 0.0
C1309 C 0.9038 0.57506 0.32174 0.0
C1310 C 0.91182 0.58644 0.28064 0.0
C1311 C 0.90356 0.58884 0.23687 0.0
C1312 C 0.88742 0.58007 0.23506 0.0
C1313 C 0.87967 0.56841 0.27667 0.0
H1314 H 0.52801 0.64097 0.60773 0.0
H1315 H 0.56974 0.6429 0.55041 0.0
H1316 H 0.58372 0.66012 0.63215 0.0
H1317 H 0.54597 0.68082 0.64845 0.0
H1318 H 0.53326 0.67707 0.70868 0.0
H1319 H 0.52685 0.66469 0.64663 0.0
H1320 H 0.51978 0.64157 0.71399 0.0
H1321 H 0.52657 0.65397 0.77605 0.0
H1322 H 0.53421 0.64165 0.76013 0.0
H1323 H 0.59284 0.67641 0.72415 0.0
H1324 H 0.59739 0.69436 0.80477 0.0
H1325 H 0.55004 0.68288 0.79704 0.0
C1326 C 0.54013 0.64514 0.61209 0.0
C1327 C 0.5478 0.6406 0.57273 0.0
C1328 C 0.56367 0.64636 0.5797 0.0
C1329 C 0.57166 0.65598 0.62643 0.0
C1330 C 0.56365 0.65992 0.66538 0.0
C1331 C 0.54832 0.65498 0.65767 0.0
C1332 C 0.54253 0.66161 0.70319 0.0
C1333 C 0.53683 0.67164 0.67506 0.0
C1334 C 0.53003 0.64894 0.74054 0.0
C1335 C 0.55698 0.67106 0.73786 0.0
C1336 C 0.56899 0.6697 0.7163 0.0
C1337 C 0.58351 0.67754 0.74128 0.0
C1338 C 0.58595 0.68755 0.78759 0.0
C1339 C 0.57401 0.68981 0.80763 0.0
C1340 C 0.55929 0.68115 0.78322 0.0
H1341 H 0.31674 0.8654 0.76468 0.0
H1342 H 0.31218 0.90546 0.78668 0.0
H1343 H 0.33078 0.91842 0.70734 0.0
H1344 H 0.35806 0.88689 0.73705 0.0
H1345 H 0.35723 0.87299 0.68629 0.0
H1346 H 0.3436 0.86709 0.74449 0.0
H1347 H 0.32157 0.85496 0.66988 0.0
H1348 H 0.33512 0.86109 0.61139 0.0
H1349 H 0.3207 0.86658 0.61241 0.0
H1350 H 0.34802 0.9259 0.61894 0.0
H1351 H 0.36659 0.92957 0.54208 0.0
H1352 H 0.36206 0.88575 0.58483 0.0
C1353 C 0.31987 0.87699 0.75326 0.0
C1354 C 0.31309 0.88449 0.78165 0.0
C1355 C 0.3174 0.89963 0.76577 0.0
C1356 C 0.32783 0.90699 0.72043 0.0
C1357 C 0.33407 0.89917 0.69235 0.0
C1358 C 0.33059 0.88467 0.70932 0.0
C1359 C 0.33942 0.87904 0.67393 0.0
C1360 C 0.35022 0.87635 0.71276 0.0
C1361 C 0.32855 0.86456 0.63989 0.0
C1362 C 0.34824 0.89252 0.63373 0.0
C1363 C 0.34475 0.90388 0.64426 0.0
C1364 C 0.35097 0.91716 0.61089 0.0
C1365 C 0.36139 0.91908 0.56692 0.0
C1366 C 0.36573 0.90794 0.5575 0.0
C1367 C 0.35895 0.89445 0.59114 0.0
H1368 H 0.14985 0.46192 0.77642 0.0
H1369 H 0.11133 0.41623 0.79708 0.0
H1370 H 0.09795 0.42099 0.71666 0.0
H1371 H 0.12682 0.48018 0.74151 0.0
H1372 H 0.14097 0.49332 0.69149 0.0
H1373 H 0.14672 0.48637 0.75286 0.0
H1374 H 0.16043 0.477 0.68359 0.0
H1375 H 0.15439 0.48352 0.6219 0.0
H1376 H 0.14975 0.46388 0.62632 0.0
H1377 H 0.09042 0.42995 0.6249 0.0
H1378 H 0.087 0.44395 0.5434 0.0
H1379 H 0.12971 0.48433 0.58833 0.0
C1380 C 0.1384 0.45308 0.76508 0.0
C1381 C 0.13153 0.43875 0.79322 0.0
C1382 C 0.11665 0.42738 0.77679 0.0
C1383 C 0.10907 0.42993 0.7307 0.0
C1384 C 0.11643 0.44402 0.70233 0.0
C1385 C 0.13058 0.45556 0.72017 0.0
C1386 C 0.13604 0.46971 0.68303 0.0
C1387 C 0.13773 0.48319 0.71938 0.0
C1388 C 0.15104 0.47376 0.65188 0.0
C1389 C 0.12292 0.46428 0.64063 0.0
C1390 C 0.1118 0.44936 0.6518 0.0
C1391 C 0.09896 0.44171 0.61642 0.0
C1392 C 0.09719 0.44968 0.5698 0.0
C1393 C 0.10808 0.46521 0.55955 0.0
C1394 C 0.12117 0.47247 0.59521 0.0
H1395 H 0.14709 0.70915 0.71115 0.0
H1396 H 0.12357 0.68391 0.86591 0.0
H1397 H 0.11032 0.66032 0.80818 0.0
H1398 H 0.11535 0.68865 0.61213 0.0
H1399 H 0.12718 0.68896 0.55331 0.0
H1400 H 0.13479 0.70404 0.60623 0.0
H1401 H 0.15695 0.69887 0.6275 0.0
H1402 H 0.14944 0.68382 0.57454 0.0
H1403 H 0.15266 0.67992 0.64775 0.0
H1404 H 0.10018 0.63943 0.73549 0.0
H1405 H 0.09363 0.62219 0.65237 0.0
H1406 H 0.12307 0.66052 0.54189 0.0
C1407 C 0.13915 0.69868 0.73306 0.0
C1408 C 0.13643 0.69847 0.79348 0.0
C1409 C 0.12589 0.68446 0.81997 0.0
C1410 C 0.11828 0.67097 0.78744 0.0
C1411 C 0.12122 0.67161 0.72824 0.0
C1412 C 0.13137 0.68508 0.70113 0.0
C1413 C 0.13252 0.6825 0.63685 0.0
C1414 C 0.12714 0.69158 0.59996 0.0
C1415 C 0.14887 0.68651 0.62073 0.0
C1416 C 0.12151 0.66543 0.63218 0.0
C1417 C 0.11516 0.65947 0.68564 0.0
C1418 C 0.10504 0.64398 0.69344 0.0
C1419 C 0.10144 0.63427 0.64577 0.0
C1420 C 0.10783 0.63994 0.59036 0.0
C1421 C 0.11787 0.65583 0.5834 0.0
H1422 H 0.33028 0.45088 0.80909 0.0
H1423 H 0.29289 0.41644 0.70731 0.0
H1424 H 0.30995 0.42259 0.62339 0.0
H1425 H 0.34631 0.47818 0.69775 0.0
H1426 H 0.366 0.48505 0.7164 0.0
H1427 H 0.35149 0.47695 0.77142 0.0
H1428 H 0.35993 0.45737 0.79774 0.0
H1429 H 0.37461 0.46555 0.74323 0.0
H1430 H 0.36084 0.44543 0.7419 0.0
H1431 H 0.3301 0.43358 0.54808 0.0
H1432 H 0.35278 0.44811 0.48663 0.0
H1433 H 0.37759 0.47596 0.63468 0.0
C1434 C 0.32587 0.44438 0.7696 0.0
C1435 C 0.31029 0.43307 0.76482 0.0
C1436 C 0.3048 0.42509 0.71193 0.0
C1437 C 0.3144 0.4285 0.66395 0.0
C1438 C 0.32954 0.44 0.66916 0.0
C1439 C 0.33536 0.44776 0.72062 0.0
C1440 C 0.35193 0.46014 0.71293 0.0
C1441 C 0.35405 0.47602 0.72536 0.0
C1442 C 0.36245 0.45693 0.75123 0.0
C1443 C 0.35432 0.45829 0.64911 0.0
C1444 C 0.34126 0.44652 0.62496 0.0
C1445 C 0.34047 0.44276 0.56656 0.0
C1446 C 0.35343 0.45113 0.53188 0.0
C1447 C 0.36706 0.46323 0.55542 0.0
C1448 C 0.3674 0.46682 0.61501 0.0
H1449 H 0.58128 0.89716 0.78454 0.0
H1450 H 0.54756 0.84897 0.77732 0.0
H1451 H 0.53388 0.85393 0.70006 0.0
H1452 H 0.55288 0.91049 0.75271 0.0
H1453 H 0.56662 0.92651 0.71065 0.0
H1454 H 0.5729 0.9195 0.77029 0.0
H1455 H 0.59125 0.91635 0.70114 0.0
H1456 H 0.58473 0.92294 0.64101 0.0
H1457 H 0.58368 0.90464 0.63748 0.0
H1458 H 0.52585 0.86302 0.61543 0.0
H1459 H 0.52078 0.87691 0.53842 0.0
H1460 H 0.55837 0.91965 0.60041 0.0
C1461 C 0.57067 0.88782 0.76831 0.0
C1462 C 0.56538 0.87268 0.7873 0.0
C1463 C 0.55171 0.86065 0.76374 0.0
C1464 C 0.54391 0.86333 0.7195 0.0
C1465 C 0.54977 0.87818 0.69947 0.0
C1466 C 0.56253 0.89035 0.72403 0.0
C1467 C 0.56636 0.90512 0.69293 0.0
C1468 C 0.56458 0.91605 0.73409 0.0
C1469 C 0.58246 0.9127 0.66659 0.0
C1470 C 0.55414 0.89918 0.64602 0.0
C1471 C 0.54477 0.88357 0.65072 0.0
C1472 C 0.53297 0.87528 0.61165 0.0
C1473 C 0.53027 0.8832 0.56769 0.0
C1474 C 0.53932 0.89922 0.56312 0.0
C1475 C 0.55147 0.90733 0.60256 0.0
H1476 H 0.37917 0.12763 0.22446 0.0
H1477 H 0.38298 0.12244 0.04 0.0
H1478 H 0.35481 0.10843 0.03172 0.0
H1479 H 0.34555 0.08963 0.24588 0.0
H1480 H 0.33742 0.09628 0.29993 0.0
H1481 H 0.35784 0.10559 0.29131 0.0
H1482 H 0.35886 0.13148 0.27671 0.0
H1483 H 0.33845 0.12225 0.28478 0.0
H1484 H 0.34743 0.13329 0.22072 0.0
H1485 H 0.32642 0.09746 0.04214 0.0
H1486 H 0.29954 0.08703 0.07241 0.0
H1487 H 0.31392 0.09701 0.2514 0.0
C1488 C 0.37405 0.1234 0.18245 0.0
C1489 C 0.38323 0.12615 0.13277 0.0
C1490 C 0.37615 0.12037 0.07861 0.0
C1491 C 0.36017 0.11247 0.07348 0.0
C1492 C 0.35145 0.11017 0.12313 0.0
C1493 C 0.35812 0.11517 0.17681 0.0
C1494 C 0.34612 0.11099 0.22349 0.0
C1495 C 0.34677 0.09997 0.26776 0.0
C1496 C 0.34782 0.12536 0.25316 0.0
C1497 C 0.33167 0.10314 0.18753 0.0
C1498 C 0.33502 0.10297 0.12962 0.0
C1499 C 0.32364 0.09727 0.08744 0.0
C1500 C 0.30845 0.09146 0.10494 0.0
C1501 C 0.30473 0.09111 0.16414 0.0
C1502 C 0.31649 0.09695 0.20595 0.0
H1503 H 0.88701 0.24898 0.09818 0.0
H1504 H 0.88374 0.26031 0.27646 0.0
H1505 H 0.89917 0.24884 0.30765 0.0
H1506 H 0.8827 0.21206 0.13164 0.0
H1507 H 0.89557 0.21309 0.0756 0.0
H1508 H 0.88501 0.22297 0.06688 0.0
H1509 H 0.91031 0.24832 0.05013 0.0
H1510 H 0.92095 0.23853 0.0592 0.0
H1511 H 0.92524 0.25481 0.10367 0.0
H1512 H 0.91581 0.23709 0.31913 0.0
H1513 H 0.92952 0.22263 0.31201 0.0
H1514 H 0.92001 0.21666 0.12787 0.0
C1515 C 0.8896 0.24905 0.1437 0.0
C1516 C 0.88428 0.2556 0.18497 0.0
C1517 C 0.88768 0.2553 0.24426 0.0
C1518 C 0.89651 0.2489 0.26232 0.0
C1519 C 0.90163 0.24257 0.22069 0.0
C1520 C 0.89807 0.24231 0.16274 0.0
C1521 C 0.90419 0.23389 0.12749 0.0
C1522 C 0.89108 0.21966 0.09872 0.0
C1523 C 0.91587 0.24453 0.08247 0.0
C1524 C 0.91181 0.22957 0.17461 0.0
C1525 C 0.91042 0.23493 0.22788 0.0
C1526 C 0.91687 0.23273 0.27773 0.0
C1527 C 0.92471 0.22458 0.27324 0.0
C1528 C 0.92577 0.21848 0.21952 0.0
C1529 C 0.91928 0.2211 0.1696 0.0
H1530 H 0.77065 0.64246 0.08649 0.0
H1531 H 0.76502 0.62823 0.26615 0.0
H1532 H 0.77714 0.65513 0.29715 0.0
H1533 H 0.80827 0.67583 0.10711 0.0
H1534 H 0.8053 0.68745 0.05538 0.0
H1535 H 0.79557 0.66702 0.04667 0.0
H1536 H 0.76956 0.66619 0.04444 0.0
H1537 H 0.7792 0.68661 0.05307 0.0
H1538 H 0.76447 0.67444 0.10332 0.0
H1539 H 0.78867 0.68312 0.30921 0.0
H1540 H 0.80113 0.71114 0.3021 0.0
H1541 H 0.80181 0.70816 0.11494 0.0
C1542 C 0.77194 0.64509 0.13225 0.0
C1543 C 0.76682 0.63333 0.17411 0.0
C1544 C 0.76889 0.63711 0.23358 0.0
C1545 C 0.77572 0.65234 0.25156 0.0
C1546 C 0.78072 0.6637 0.20949 0.0
C1547 C 0.77915 0.66035 0.15106 0.0
C1548 C 0.78622 0.6749 0.11516 0.0
C1549 C 0.79964 0.67638 0.07895 0.0
C1550 C 0.77414 0.67557 0.07673 0.0
C1551 C 0.79173 0.68689 0.1626 0.0
C1552 C 0.78828 0.68009 0.21659 0.0
C1553 C 0.79158 0.6886 0.26723 0.0
C1554 C 0.79862 0.7045 0.26273 0.0
C1555 C 0.80253 0.71182 0.20807 0.0
C1556 C 0.79913 0.70287 0.15732 0.0
H1557 H 0.1013 0.30614 0.88639 0.0
H1558 H 0.09181 0.30271 0.70234 0.0
H1559 H 0.10531 0.33093 0.6953 0.0
H1560 H 0.09548 0.33859 0.91057 0.0
H1561 H 0.11026 0.34697 0.96465 0.0
H1562 H 0.09987 0.32658 0.95477 0.0
H1563 H 0.12535 0.32683 0.93893 0.0
H1564 H 0.13582 0.34723 0.94824 0.0
H1565 H 0.13829 0.33886 0.88333 0.0
H1566 H 0.1219 0.35949 0.70736 0.0
H1567 H 0.13709 0.38634 0.73944 0.0
H1568 H 0.13356 0.37122 0.91727 0.0
C1569 C 0.10199 0.31135 0.84469 0.0
C1570 C 0.09561 0.30229 0.79475 0.0
C1571 C 0.09657 0.30947 0.74107 0.0
C1572 C 0.10429 0.32547 0.73667 0.0
C1573 C 0.11066 0.33409 0.78662 0.0
C1574 C 0.10929 0.32728 0.83984 0.0
C1575 C 0.11675 0.33913 0.88718 0.0
C1576 C 0.10488 0.33773 0.93193 0.0
C1577 C 0.12983 0.33794 0.91611 0.0
C1578 C 0.12278 0.35369 0.85216 0.0
C1579 C 0.11933 0.35052 0.79411 0.0
C1580 C 0.12446 0.3621 0.75279 0.0
C1581 C 0.13314 0.3773 0.77134 0.0
C1582 C 0.13637 0.38081 0.83078 0.0
C1583 C 0.13108 0.36883 0.87165 0.0
H1584 H 0.70577 0.79793 0.89595 0.0
H1585 H 0.70882 0.79587 0.7093 0.0
H1586 H 0.68072 0.78099 0.70276 0.0
H1587 H 0.67472 0.75926 0.91161 0.0
H1588 H 0.66556 0.76356 0.96957 0.0
H1589 H 0.68592 0.77492 0.95994 0.0
H1590 H 0.68382 0.79938 0.95386 0.0
H1591 H 0.66345 0.78809 0.96355 0.0
H1592 H 0.67115 0.80043 0.90147 0.0
H1593 H 0.65256 0.76708 0.71543 0.0
H1594 H 0.6257 0.75278 0.74717 0.0
H1595 H 0.64032 0.76147 0.92646 0.0
C1596 C 0.70046 0.79444 0.8538 0.0
C1597 C 0.70942 0.79814 0.803 0.0
C1598 C 0.70214 0.79314 0.74865 0.0
C1599 C 0.6862 0.78473 0.7445 0.0
C1600 C 0.67767 0.78116 0.79521 0.0
C1601 C 0.68448 0.78566 0.84894 0.0
C1602 C 0.67255 0.77952 0.89669 0.0
C1603 C 0.67482 0.76867 0.93682 0.0
C1604 C 0.67276 0.79264 0.93091 0.0
C1605 C 0.65802 0.77094 0.86126 0.0
C1606 C 0.66129 0.77227 0.80279 0.0
C1607 C 0.64985 0.76585 0.7611 0.0
C1608 C 0.63463 0.75779 0.77954 0.0
C1609 C 0.63095 0.75595 0.83919 0.0
C1610 C 0.64283 0.76257 0.88059 0.0
H1611 H 0.21521 0.91536 0.74866 0.0
H1612 H 0.2041 0.91934 0.92674 0.0
H1613 H 0.21762 0.90605 0.95965 0.0
H1614 H 0.20989 0.87699 0.76568 0.0
H1615 H 0.22523 0.8805 0.71706 0.0
H1616 H 0.21475 0.89043 0.7071 0.0
H1617 H 0.24002 0.91632 0.71157 0.0
H1618 H 0.25057 0.90648 0.72174 0.0
H1619 H 0.25239 0.92062 0.7734 0.0
H1620 H 0.23395 0.89431 0.97413 0.0
H1621 H 0.24973 0.882 0.96881 0.0
H1622 H 0.2484 0.8831 0.7814 0.0
C1623 C 0.2156 0.91337 0.79452 0.0
C1624 C 0.20866 0.91843 0.83523 0.0
C1625 C 0.20927 0.91549 0.89482 0.0
C1626 C 0.21697 0.90801 0.91396 0.0
C1627 C 0.22377 0.90324 0.8729 0.0
C1628 C 0.22294 0.90554 0.81436 0.0
C1629 C 0.23091 0.89884 0.77946 0.0
C1630 C 0.21951 0.88592 0.74 0.0
C1631 C 0.24426 0.91131 0.74449 0.0
C1632 C 0.23657 0.89269 0.82764 0.0
C1633 C 0.23245 0.89555 0.88119 0.0
C1634 C 0.23706 0.89181 0.93248 0.0
C1635 C 0.24606 0.88489 0.92905 0.0
C1636 C 0.25013 0.8815 0.87479 0.0
C1637 C 0.24523 0.88537 0.8234 0.0
H1638 H 0.70493 0.91551 0.7562 0.0
H1639 H 0.71894 0.92462 0.93578 0.0
H1640 H 0.69197 0.91368 0.96564 0.0
H1641 H 0.67274 0.92221 0.76358 0.0
H1642 H 0.66085 0.90649 0.71651 0.0
H1643 H 0.68131 0.91626 0.70869 0.0
H1644 H 0.68097 0.89062 0.72069 0.0
H1645 H 0.66052 0.88078 0.72826 0.0
H1646 H 0.67209 0.879 0.7837 0.0
H1647 H 0.66346 0.90191 0.97586 0.0
H1648 H 0.63531 0.88717 0.96706 0.0
H1649 H 0.63963 0.88355 0.78183 0.0
C1650 C 0.70227 0.91532 0.80167 0.0
C1651 C 0.71395 0.92102 0.84378 0.0
C1652 C 0.7101 0.9203 0.903 0.0
C1653 C 0.69484 0.9142 0.92028 0.0
C1654 C 0.68354 0.9086 0.87785 0.0
C1655 C 0.68702 0.90886 0.81984 0.0
C1656 C 0.67262 0.90094 0.78355 0.0
C1657 C 0.67184 0.91215 0.74054 0.0
C1658 C 0.67149 0.88701 0.75222 0.0
C1659 C 0.66052 0.89617 0.83018 0.0
C1660 C 0.66706 0.90097 0.88413 0.0
C1661 C 0.6582 0.89804 0.93384 0.0
C1662 C 0.64223 0.88973 0.92842 0.0
C1663 C 0.63528 0.88417 0.87388 0.0
C1664 C 0.64461 0.88759 0.82417 0.0
H1665 H 0.10038 0.79545 0.76185 0.0
H1666 H 0.08883 0.799 0.93957 0.0
H1667 H 0.09983 0.78321 0.97164 0.0
H1668 H 0.094 0.75692 0.76837 0.0
H1669 H 0.11033 0.76103 0.72444 0.0
H1670 H 0.10073 0.77182 0.71457 0.0
H1671 H 0.12618 0.79699 0.73147 0.0
H1672 H 0.13588 0.78628 0.74095 0.0
H1673 H 0.13694 0.79924 0.79659 0.0
H1674 H 0.11132 0.76636 0.98421 0.0
H1675 H 0.12583 0.75267 0.97835 0.0
H1676 H 0.13218 0.76201 0.79411 0.0
C1677 C 0.10014 0.79282 0.80741 0.0
C1678 C 0.09369 0.79834 0.84828 0.0
C1679 C 0.09378 0.79491 0.90766 0.0
C1680 C 0.0999 0.78587 0.92623 0.0
C1681 C 0.10616 0.78057 0.885 0.0
C1682 C 0.10661 0.78414 0.82697 0.0
C1683 C 0.11499 0.77788 0.79231 0.0
C1684 C 0.10438 0.76622 0.74726 0.0
C1685 C 0.12935 0.79087 0.76366 0.0
C1686 C 0.11911 0.7702 0.83987 0.0
C1687 C 0.11365 0.77164 0.89283 0.0
C1688 C 0.11575 0.76523 0.94304 0.0
C1689 C 0.12392 0.7574 0.93926 0.0
C1690 C 0.13016 0.75632 0.8859 0.0
C1691 C 0.1276 0.76273 0.83558 0.0
H1692 H 0.19879 0.30528 0.82315 0.0
H1693 H 0.23747 0.29779 0.81741 0.0
H1694 H 0.25498 0.32527 0.83213 0.0
H1695 H 0.2175 0.34121 0.74411 0.0
H1696 H 0.20871 0.34981 0.78567 0.0
H1697 H 0.19896 0.32941 0.77614 0.0
H1698 H 0.19666 0.32571 0.88728 0.0
H1699 H 0.20644 0.3461 0.89716 0.0
H1700 H 0.21363 0.33492 0.93131 0.0
H1701 H 0.26826 0.35297 0.852 0.0
H1702 H 0.27705 0.3802 0.86684 0.0
H1703 H 0.23037 0.37096 0.8527 0.0
C1704 C 0.21094 0.30946 0.8251 0.0
C1705 C 0.21676 0.29936 0.81937 0.0
C1706 C 0.23274 0.30529 0.82145 0.0
C1707 C 0.24279 0.32088 0.83004 0.0
C1708 C 0.23674 0.33051 0.83563 0.0
C1709 C 0.22123 0.32514 0.83251 0.0
C1710 C 0.21791 0.33819 0.83795 0.0
C1711 C 0.21032 0.33975 0.78267 0.0
C1712 C 0.20808 0.3361 0.89162 0.0
C1713 C 0.23397 0.35166 0.84511 0.0
C1714 C 0.24458 0.34685 0.8443 0.0
C1715 C 0.26009 0.35692 0.85223 0.0
C1716 C 0.26496 0.37236 0.86091 0.0
C1717 C 0.25442 0.37772 0.86076 0.0
C1718 C 0.2387 0.36721 0.85247 0.0
H1719 H 0.91589 0.70711 0.26217 0.0
H1720 H 0.92154 0.72242 0.08374 0.0
H1721 H 0.90905 0.69571 0.05054 0.0
H1722 H 0.92195 0.67551 0.24115 0.0
H1723 H 0.9073 0.66296 0.29094 0.0
H1724 H 0.91681 0.68331 0.30141 0.0
H1725 H 0.89072 0.68234 0.30079 0.0
H1726 H 0.88113 0.66196 0.29058 0.0
H1727 H 0.87797 0.67376 0.24032 0.0
H1728 H 0.89788 0.66774 0.03606 0.0
H1729 H 0.88559 0.63965 0.04124 0.0
H1730 H 0.88454 0.64172 0.22846 0.0
C1731 C 0.91442 0.70478 0.21618 0.0
C1732 C 0.91972 0.71683 0.17546 0.0
C1733 C 0.91748 0.71337 0.11566 0.0
C1734 C 0.91047 0.69824 0.09636 0.0
C1735 C 0.90546 0.68663 0.1374 0.0
C1736 C 0.90704 0.68965 0.19608 0.0
C1737 C 0.9001 0.67492 0.23081 0.0
C1738 C 0.91227 0.67413 0.26828 0.0
C1739 C 0.88668 0.67314 0.26781 0.0
C1740 C 0.89463 0.66322 0.18242 0.0
C1741 C 0.89805 0.67029 0.12893 0.0
C1742 C 0.89494 0.66205 0.07763 0.0
C1743 C 0.88804 0.64613 0.08098 0.0
C1744 C 0.88403 0.63858 0.13512 0.0
C1745 C 0.88731 0.64724 0.1865 0.0
H1746 H 0.37635 0.23243 0.15596 0.0
H1747 H 0.38437 0.27849 0.1351 0.0
H1748 H 0.35679 0.26897 0.14822 0.0
H1749 H 0.34001 0.21404 0.07674 0.0
H1750 H 0.33166 0.19743 0.12288 0.0
H1751 H 0.352 0.20786 0.11129 0.0
H1752 H 0.35637 0.21119 0.22201 0.0
H1753 H 0.33606 0.20086 0.23394 0.0
H1754 H 0.3475 0.21979 0.26312 0.0
H1755 H 0.32884 0.25482 0.17264 0.0
H1756 H 0.30176 0.23657 0.19444 0.0
H1757 H 0.31124 0.19924 0.1904 0.0
C1758 C 0.37226 0.24047 0.1538 0.0
C1759 C 0.38249 0.25622 0.14482 0.0
C1760 C 0.37672 0.26639 0.14167 0.0
C1761 C 0.36109 0.26109 0.14933 0.0
C1762 C 0.35133 0.24554 0.15881 0.0
C1763 C 0.35662 0.23532 0.15988 0.0
C1764 C 0.34364 0.21913 0.1695 0.0
C1765 C 0.34171 0.20902 0.11697 0.0
C1766 C 0.34604 0.21235 0.22547 0.0
C1767 C 0.33027 0.2219 0.17506 0.0
C1768 C 0.33501 0.23724 0.16933 0.0
C1769 C 0.32495 0.24276 0.17626 0.0
C1770 C 0.30962 0.23232 0.18892 0.0
C1771 C 0.30441 0.21651 0.19352 0.0
C1772 C 0.31488 0.21125 0.18617 0.0
H1773 H 0.75398 0.11711 0.15369 0.0
H1774 H 0.79103 0.16322 0.18408 0.0
H1775 H 0.80856 0.1533 0.20209 0.0
H1776 H 0.765 0.09964 0.26679 0.0
H1777 H 0.75943 0.08238 0.22663 0.0
H1778 H 0.74983 0.09308 0.21424 0.0
H1779 H 0.75629 0.0949 0.10509 0.0
H1780 H 0.7659 0.08419 0.11711 0.0
H1781 H 0.77589 0.10267 0.08296 0.0
H1782 H 0.82233 0.13863 0.21223 0.0
H1783 H 0.83114 0.11994 0.22141 0.0
H1784 H 0.78491 0.08294 0.19278 0.0
C1785 C 0.76581 0.1251 0.16388 0.0
C1786 C 0.77119 0.14096 0.16713 0.0
C1787 C 0.78667 0.15104 0.18147 0.0
C1788 C 0.79672 0.14551 0.19162 0.0
C1789 C 0.79106 0.12983 0.18828 0.0
C1790 C 0.77594 0.11973 0.17545 0.0
C1791 C 0.77273 0.10336 0.17655 0.0
C1792 C 0.76106 0.09407 0.22388 0.0
C1793 C 0.76739 0.09584 0.11687 0.0
C1794 C 0.78846 0.10588 0.19135 0.0
C1795 C 0.79887 0.12126 0.19729 0.0
C1796 C 0.81426 0.12655 0.20826 0.0
C1797 C 0.81916 0.11586 0.21323 0.0
C1798 C 0.80869 0.10002 0.20823 0.0
C1799 C 0.79311 0.09497 0.19764 0.0
H1800 H 0.04156 0.46224 0.41611 0.0
H1801 H 0.05734 0.47809 0.59059 0.0
H1802 H 0.03069 0.46599 0.62434 0.0
H1803 H 1.00938 0.46891 0.42244 0.0
H1804 H 0.99699 0.45237 0.37977 0.0
H1805 H 0.01735 0.46193 0.36896 0.0
H1806 H 0.01709 0.43654 0.3874 0.0
H1807 H 0.99674 0.4269 0.39817 0.0
H1808 H 1.00892 0.42613 0.45348 0.0
H1809 H 1.00267 0.45105 0.64076 0.0
H1810 H 0.97451 0.4358 0.6374 0.0
H1811 H 0.97625 0.43142 0.45136 0.0
C1812 C 0.03935 0.4631 0.46138 0.0
C1813 C 0.0515 0.47102 0.50087 0.0
C1814 C 0.0482 0.47211 0.55962 0.0
C1815 C 0.0331 0.46525 0.57924 0.0
C1816 C 0.02139 0.45757 0.53939 0.0
C1817 C 0.02427 0.4566 0.48155 0.0
C1818 C 1.00946 0.44804 0.44773 0.0
C1819 C 1.00822 0.45844 0.40202 0.0
C1820 C 1.00797 0.43354 0.42008 0.0
C1821 C 0.99786 0.44416 0.49582 0.0
C1822 C 1.00505 0.44966 0.54839 0.0
C1823 C 0.99689 0.44686 0.59978 0.0
C1824 C 0.98093 0.43818 0.5975 0.0
C1825 C 0.97328 0.43265 0.54413 0.0
C1826 C 0.98185 0.43579 0.49254 0.0
H1827 H 0.58613 0.54661 0.45546 0.0
H1828 H 0.59104 0.54934 0.64221 0.0
H1829 H 0.57536 0.56174 0.64761 0.0
H1830 H 0.58958 0.58388 0.43895 0.0
H1831 H 0.57604 0.57814 0.38036 0.0
H1832 H 0.58701 0.56875 0.39093 0.0
H1833 H 0.56203 0.54261 0.3962 0.0
H1834 H 0.55099 0.55193 0.38581 0.0
H1835 H 0.54754 0.53984 0.44796 0.0
H1836 H 0.55822 0.57252 0.63383 0.0
H1837 H 0.5431 0.58415 0.60076 0.0
H1838 H 0.5513 0.57722 0.42221 0.0
C1839 C 0.58383 0.54981 0.49735 0.0
C1840 C 0.58968 0.54697 0.54853 0.0
C1841 C 0.58668 0.55148 0.60257 0.0
C1842 C 0.57774 0.55845 0.60609 0.0
C1843 C 0.57213 0.56112 0.55501 0.0
C1844 C 0.57524 0.55721 0.50153 0.0
C1845 C 0.56844 0.56216 0.45329 0.0
C1846 C 0.58102 0.57393 0.41355 0.0
C1847 C 0.55654 0.54831 0.41879 0.0
C1848 C 0.56096 0.56936 0.48816 0.0
C1849 C 0.56303 0.56835 0.54679 0.0
C1850 C 0.55666 0.57353 0.58804 0.0
C1851 C 0.54805 0.58005 0.5689 0.0
C1852 C 0.54616 0.58164 0.50911 0.0
C1853 C 0.55274 0.57627 0.46819 0.0
H1854 H 0.47104 0.04026 0.46494 0.0
H1855 H 0.46383 0.04317 0.6483 0.0
H1856 H 0.44719 0.01507 0.65234 0.0
H1857 H 0.43196 0.01013 0.43468 0.0
H1858 H 0.43779 1.00113 0.38117 0.0
H1859 H 0.44907 0.02141 0.393 0.0
H1860 H 0.47288 0.01874 0.41214 0.0
H1861 H 0.46167 0.99846 0.40066 0.0
H1862 H 0.47209 1.00573 0.46728 0.0
H1863 H 0.43333 0.98652 0.6377 0.0
H1864 H 0.42055 0.95978 0.60337 0.0
H1865 H 0.4346 0.97561 0.42772 0.0
C1866 C 0.4659 0.03496 0.50587 0.0
C1867 C 0.46878 0.04382 0.55649 0.0
C1868 C 0.46172 0.03656 0.60909 0.0
C1869 C 0.45232 0.02063 0.61178 0.0
C1870 C 0.44983 0.01219 0.56119 0.0
C1871 C 0.45617 0.01913 0.50898 0.0
C1872 C 0.45139 0.0075 0.46066 0.0
C1873 C 0.44199 0.01021 0.41467 0.0
C1874 C 0.46534 0.00762 0.43361 0.0
C1875 C 0.44159 0.99288 0.494 0.0
C1876 C 0.441 0.99583 0.55208 0.0
C1877 C 0.43349 0.9841 0.59221 0.0
C1878 C 0.42634 0.96898 0.57243 0.0
C1879 C 0.42648 0.96574 0.51297 0.0
C1880 C 0.43412 0.97785 0.47325 0.0
H1881 H 0.57012 0.03694 0.51701 0.0
H1882 H 0.61577 0.04333 0.52788 0.0
H1883 H 0.60567 0.01626 0.50234 0.0
H1884 H 0.55168 0.99994 0.58389 0.0
H1885 H 0.53473 0.99255 0.53987 0.0
H1886 H 0.5457 0.01268 0.55489 0.0
H1887 H 0.5483 0.01843 0.44489 0.0
H1888 H 0.53742 0.99829 0.42955 0.0
H1889 H 0.55618 0.00973 0.39877 0.0
H1890 H 0.59071 0.9886 0.47368 0.0
H1891 H 0.5715 0.96151 0.45667 0.0
H1892 H 0.53533 0.97251 0.47226 0.0
C1893 C 0.57796 0.03262 0.51362 0.0
C1894 C 0.59373 0.04222 0.52401 0.0
C1895 C 0.60364 0.03614 0.52022 0.0
C1896 C 0.59803 0.02081 0.50536 0.0
C1897 C 0.58244 0.01163 0.4953 0.0
C1898 C 0.57249 0.01722 0.50018 0.0
C1899 C 0.55611 1.00465 0.4911 0.0
C1900 C 0.54649 1.00232 0.5457 0.0
C1901 C 0.54909 0.00798 0.43791 0.0
C1902 C 0.55842 0.99115 0.48054 0.0
C1903 C 0.57371 0.99548 0.48202 0.0
C1904 C 0.57869 0.98505 0.47268 0.0
C1905 C 0.56771 0.96971 0.46276 0.0
C1906 C 0.55195 0.96491 0.46341 0.0
C1907 C 0.54731 0.97584 0.47187 0.0
H1908 H 0.97753 0.53265 0.50689 0.0
H1909 H 0.96973 0.57101 0.51754 0.0
H1910 H 0.99687 0.58871 0.49521 0.0
H1911 H 0.01379 0.55168 0.57879 0.0
H1912 H 0.02221 0.54293 0.53591 0.0
H1913 H 1.00189 0.53308 0.54754 0.0
H1914 H 0.99745 0.53062 0.43673 0.0
H1915 H 0.01777 0.54054 0.42479 0.0
H1916 H 1.00624 0.54753 0.39224 0.0
H1917 H 0.02468 0.60229 0.47121 0.0
H1918 H 0.05214 0.61125 0.45903 0.0
H1919 H 0.04273 0.56451 0.47201 0.0
C1920 C 0.98157 0.54476 0.5039 0.0
C1921 C 0.97156 0.5505 0.51345 0.0
C1922 C 0.97725 0.56643 0.5104 0.0
C1923 C 0.99261 0.57655 0.4974 0.0
C1924 C 1.00224 0.57061 0.48846 0.0
C1925 C 0.99704 0.55512 0.4924 0.0
C1926 C 0.01011 0.55194 0.48534 0.0
C1927 C 0.01211 0.54447 0.54016 0.0
C1928 C 1.00775 0.54207 0.43157 0.0
C1929 C 0.02341 0.56803 0.4771 0.0
C1930 C 0.01854 0.57858 0.4779 0.0
C1931 C 0.02866 0.59415 0.47067 0.0
C1932 C 0.04423 0.59913 0.46352 0.0
C1933 C 0.0496 0.58861 0.46476 0.0
C1934 C 0.03898 0.57284 0.47114 0.0
H1935 H 0.44968 0.47824 0.49634 0.0
H1936 H 0.40355 0.43977 0.48679 0.0
H1937 H 0.41314 0.42222 0.51041 0.0
H1938 H 0.46719 0.45904 0.42693 0.0
H1939 H 0.48429 0.46814 0.4703 0.0
H1940 H 0.4737 0.47778 0.45646 0.0
H1941 H 0.47152 0.48082 0.56673 0.0
H1942 H 0.48204 0.47111 0.58092 0.0
H1943 H 0.46343 0.46416 0.61257 0.0
H1944 H 0.4276 0.40893 0.53815 0.0
H1945 H 0.44629 0.40036 0.55509 0.0
H1946 H 0.48334 0.44707 0.53777 0.0
C1947 C 0.44162 0.46613 0.4996 0.0
C1948 C 0.42585 0.46035 0.49023 0.0
C1949 C 0.41567 0.44442 0.49376 0.0
C1950 C 0.421 0.43438 0.50748 0.0
C1951 C 0.43659 0.44041 0.51659 0.0
C1952 C 0.4468 0.45588 0.51184 0.0
C1953 C 0.46309 0.45926 0.52001 0.0
C1954 C 0.47263 0.46648 0.46515 0.0
C1955 C 0.47045 0.46944 0.57323 0.0
C1956 C 0.46042 0.44328 0.53 0.0
C1957 C 0.44503 0.43262 0.52901 0.0
C1958 C 0.43969 0.41715 0.53864 0.0
C1959 C 0.45038 0.4124 0.54853 0.0
C1960 C 0.46624 0.42303 0.5475 0.0
C1961 C 0.47128 0.43868 0.53839 0.0
H1962 H 0.25032 0.0971 0.22646 0.0
H1963 H 0.27773 0.10202 0.37821 0.0
H1964 H 0.28047 0.12725 0.39737 0.0
H1965 H 0.27151 0.13666 0.18146 0.0
H1966 H 0.25485 0.1373 0.15775 0.0
H1967 H 0.255 0.11957 0.15562 0.0
H1968 H 0.23049 0.1067 0.21826 0.0
H1969 H 0.23028 0.12439 0.22056 0.0
H1970 H 0.23025 0.115 0.28695 0.0
H1971 H 0.28028 0.15197 0.40061 0.0
H1972 H 0.27709 0.17444 0.38782 0.0
H1973 H 0.24979 0.15387 0.23409 0.0
C1974 C 0.25689 0.10349 0.26372 0.0
C1975 C 0.2638 0.09753 0.30088 0.0
C1976 C 0.27232 0.10629 0.34911 0.0
C1977 C 0.27395 0.12066 0.36038 0.0
C1978 C 0.26701 0.12621 0.32304 0.0
C1979 C 0.25864 0.11792 0.27566 0.0
C1980 C 0.25235 0.12657 0.24249 0.0
C1981 C 0.25882 0.13024 0.18067 0.0
C1982 C 0.2348 0.11763 0.24206 0.0
C1983 C 0.25845 0.14097 0.27874 0.0
C1984 C 0.26689 0.14051 0.32494 0.0
C1985 C 0.27369 0.15245 0.36458 0.0
C1986 C 0.27181 0.16519 0.35693 0.0
C1987 C 0.26319 0.16596 0.31003 0.0
C1988 C 0.25644 0.15364 0.27044 0.0
H1989 H 0.85997 0.09595 0.23292 0.0
H1990 H 0.84117 0.10138 0.39401 0.0
H1991 H 0.86384 0.12681 0.40703 0.0
H1992 H 0.89942 0.11476 0.27922 0.0
H1993 H 0.90693 0.12389 0.21049 0.0
H1994 H 0.88922 0.10601 0.21339 0.0
H1995 H 0.8757 0.11819 0.15794 0.0
H1996 H 0.89335 0.13613 0.15505 0.0
H1997 H 0.87657 0.13522 0.18598 0.0
H1998 H 0.88829 0.15146 0.40358 0.0
H1999 H 0.91345 0.17394 0.3847 0.0
H2000 H 0.917 0.15332 0.22516 0.0
C2001 C 0.86067 0.10247 0.27103 0.0
C2002 C 0.84877 0.09661 0.31258 0.0
C2003 C 0.85011 0.10557 0.36164 0.0
C2004 C 0.86294 0.12006 0.36941 0.0
C2005 C 0.87441 0.12553 0.32767 0.0
C2006 C 0.87345 0.11706 0.27943 0.0
C2007 C 0.88747 0.12576 0.24125 0.0
C2008 C 0.89628 0.11709 0.23579 0.0
C2009 C 0.883 0.12902 0.18151 0.0
C2010 C 0.89646 0.14038 0.27588 0.0
C2011 C 0.88863 0.13995 0.32548 0.0
C2012 C 0.89453 0.15194 0.36487 0.0
C2013 C 0.90887 0.16469 0.3537 0.0
C2014 C 0.91725 0.16544 0.30347 0.0
C2015 C 0.91087 0.15312 0.26383 0.0
H2016 H 0.90594 0.74708 0.35342 0.0
H2017 H 0.93196 0.78385 0.23171 0.0
H2018 H 0.91024 0.78808 0.2206 0.0
H2019 H 0.87018 0.73211 0.27978 0.0
H2020 H 0.85865 0.72759 0.34412 0.0
H2021 H 0.87653 0.72775 0.3463 0.0
H2022 H 0.88571 0.74721 0.43042 0.0
H2023 H 0.86782 0.74707 0.42863 0.0
H2024 H 0.88555 0.76484 0.42164 0.0
H2025 H 0.88579 0.78758 0.21625 0.0
H2026 H 0.85954 0.78294 0.2219 0.0
H2027 H 0.84827 0.74696 0.34792 0.0
C2028 C 0.90709 0.75615 0.3252 0.0
C2029 C 0.92073 0.76515 0.29347 0.0
C2030 C 0.92169 0.77677 0.25639 0.0
C2031 C 0.9094 0.7793 0.24978 0.0
C2032 C 0.89609 0.77016 0.28062 0.0
C2033 C 0.89478 0.75887 0.3179 0.0
C2034 C 0.87882 0.75046 0.34414 0.0
C2035 C 0.87056 0.73347 0.32759 0.0
C2036 C 0.87952 0.75252 0.41014 0.0
C2037 C 0.87145 0.75873 0.31517 0.0
C2038 C 0.88172 0.77004 0.27874 0.0
C2039 C 0.87766 0.77887 0.24508 0.0
C2040 C 0.86268 0.77611 0.24848 0.0
C2041 C 0.85186 0.76468 0.28559 0.0
C2042 C 0.85635 0.75593 0.31977 0.0
H2043 H 0.10183 0.24512 0.79303 0.0
H2044 H 0.10392 0.26559 0.62572 0.0
H2045 H 0.12892 0.26757 0.60703 0.0
H2046 H 0.14197 0.26779 0.82697 0.0
H2047 H 0.14285 0.25225 0.86138 0.0
H2048 H 0.12527 0.2527 0.86169 0.0
H2049 H 0.11124 0.22586 0.8148 0.0
H2050 H 0.12878 0.22534 0.81426 0.0
H2051 H 0.11834 0.22262 0.74793 0.0
H2052 H 0.15397 0.26729 0.60686 0.0
H2053 H 0.17661 0.26452 0.62514 0.0
H2054 H 0.15772 0.24377 0.79154 0.0
C2055 C 0.10756 0.25006 0.75251 0.0
C2056 C 0.10091 0.25521 0.71085 0.0
C2057 C 0.10878 0.26156 0.65831 0.0
C2058 C 0.123 0.26274 0.6473 0.0
C2059 C 0.12922 0.25749 0.68919 0.0
C2060 C 0.12173 0.25126 0.74073 0.0
C2061 C 0.13077 0.24631 0.77837 0.0
C2062 C 0.13549 0.2553 0.83547 0.0
C2063 C 0.12174 0.229 0.78947 0.0
C2064 C 0.14449 0.25067 0.73995 0.0
C2065 C 0.14344 0.25716 0.68877 0.0
C2066 C 0.15488 0.26219 0.64679 0.0
C2067 C 0.1677 0.26057 0.6575 0.0
C2068 C 0.16896 0.2539 0.70964 0.0
C2069 C 0.15712 0.24888 0.75113 0.0
H2070 H 0.76766 0.85827 0.78859 0.0
H2071 H 0.74461 0.83932 0.62558 0.0
H2072 H 0.74238 0.8622 0.60889 0.0
H2073 H 0.74539 0.87567 0.82926 0.0
H2074 H 0.76126 0.89241 0.86047 0.0
H2075 H 0.76122 0.87458 0.85988 0.0
H2076 H 0.78725 0.8876 0.80674 0.0
H2077 H 0.78736 0.90547 0.80721 0.0
H2078 H 0.78922 0.89761 0.73981 0.0
H2079 H 0.7422 0.88688 0.6099 0.0
H2080 H 0.74445 0.91195 0.62801 0.0
H2081 H 0.7679 0.91554 0.78967 0.0
C2082 C 0.76218 0.85897 0.74934 0.0
C2083 C 0.75632 0.84694 0.70835 0.0
C2084 C 0.74921 0.84833 0.65762 0.0
C2085 C 0.74788 0.8613 0.64771 0.0
C2086 C 0.75373 0.87291 0.68884 0.0
C2087 C 0.76078 0.87192 0.73861 0.0
C2088 C 0.76606 0.88609 0.77574 0.0
C2089 C 0.758 0.88193 0.83484 0.0
C2090 C 0.78351 0.8947 0.78277 0.0
C2091 C 0.76085 0.89514 0.73907 0.0
C2092 C 0.75374 0.88728 0.68918 0.0
C2093 C 0.74779 0.89316 0.64875 0.0
C2094 C 0.74911 0.90743 0.65946 0.0
C2095 C 0.75638 0.91578 0.71014 0.0
C2096 C 0.76234 0.9095 0.75037 0.0
H2097 H 0.16682 0.90354 0.66161 0.0
H2098 H 0.1536 0.93022 0.76889 0.0
H2099 H 0.12781 0.90812 0.77857 0.0
H2100 H 0.12961 0.88098 0.58776 0.0
H2101 H 0.13041 0.86358 0.58825 0.0
H2102 H 0.14781 0.88177 0.58568 0.0
H2103 H 0.15762 0.87452 0.67707 0.0
H2104 H 0.14024 0.85633 0.68 0.0
H2105 H 0.14615 0.86884 0.74183 0.0
H2106 H 0.10426 0.88348 0.78263 0.0
H2107 H 0.08336 0.85693 0.7803 0.0
H2108 H 0.11038 0.84475 0.67012 0.0
C2109 C 0.15839 0.90474 0.68628 0.0
C2110 C 0.16225 0.91869 0.7143 0.0
C2111 C 0.15098 0.91972 0.74704 0.0
C2112 C 0.13624 0.90721 0.75274 0.0
C2113 C 0.13283 0.89362 0.72553 0.0
C2114 C 0.14348 0.8922 0.69281 0.0
C2115 C 0.13672 0.8759 0.67054 0.0
C2116 C 0.1361 0.87554 0.6041 0.0
C2117 C 0.14572 0.86846 0.69376 0.0
C2118 C 0.12073 0.86845 0.69651 0.0
C2119 C 0.11887 0.87903 0.72783 0.0
C2120 C 0.1055 0.8751 0.75788 0.0
C2121 C 0.09369 0.85993 0.75638 0.0
C2122 C 0.09514 0.84872 0.72489 0.0
C2123 C 0.10884 0.85309 0.69398 0.0
H2124 H 0.93872 0.44316 0.68721 0.0
H2125 H 0.90204 0.41753 0.56494 0.0
H2126 H 0.89797 0.43937 0.55437 0.0
H2127 H 0.92136 0.46403 0.7555 0.0
H2128 H 0.93927 0.48161 0.76219 0.0
H2129 H 0.93885 0.46359 0.76428 0.0
H2130 H 0.95829 0.47247 0.68002 0.0
H2131 H 0.95872 0.49048 0.67752 0.0
H2132 H 0.95404 0.47888 0.61338 0.0
H2133 H 0.89853 0.46379 0.55098 0.0
H2134 H 0.90337 0.49004 0.55628 0.0
H2135 H 0.93966 0.5013 0.68089 0.0
C2136 C 0.92967 0.44211 0.65913 0.0
C2137 C 0.92063 0.42855 0.62708 0.0
C2138 C 0.9091 0.42774 0.5899 0.0
C2139 C 0.90667 0.4401 0.58363 0.0
C2140 C 0.91586 0.45334 0.61473 0.0
C2141 C 0.92711 0.45453 0.65194 0.0
C2142 C 0.93571 0.47051 0.67789 0.0
C2143 C 0.93367 0.4699 0.7439 0.0
C2144 C 0.9527 0.47856 0.6612 0.0
C2145 C 0.92761 0.47805 0.64882 0.0
C2146 C 0.91618 0.4678 0.61276 0.0
C2147 C 0.90736 0.47191 0.5794 0.0
C2148 C 0.91025 0.48692 0.58263 0.0
C2149 C 0.92185 0.49779 0.6191 0.0
C2150 C 0.9306 0.49323 0.65305 0.0
H2151 H 0.53125 0.4328 0.56176 0.0
H2152 H 0.51161 0.43594 0.72447 0.0
H2153 H 0.53426 0.46112 0.74252 0.0
H2154 H 0.57002 0.45015 0.61156 0.0
H2155 H 0.57828 0.46035 0.54522 0.0
H2156 H 0.56032 0.4427 0.54371 0.0
H2157 H 0.54771 0.45627 0.49153 0.0
H2158 H 0.56564 0.47396 0.49272 0.0
H2159 H 0.54884 0.47305 0.52352 0.0
H2160 H 0.55905 0.48565 0.74439 0.0
H2161 H 0.58444 0.50825 0.7296 0.0
H2162 H 0.58861 0.48968 0.56587 0.0
C2163 C 0.5317 0.43884 0.60102 0.0
C2164 C 0.51962 0.43237 0.64174 0.0
C2165 C 0.52068 0.44062 0.69265 0.0
C2166 C 0.53352 0.45495 0.70331 0.0
C2167 C 0.54526 0.46095 0.66268 0.0
C2168 C 0.5445 0.45321 0.61246 0.0
C2169 C 0.55885 0.46225 0.57638 0.0
C2170 C 0.56737 0.45333 0.56879 0.0
C2171 C 0.55503 0.46664 0.51755 0.0
C2172 C 0.56781 0.4762 0.6144 0.0
C2173 C 0.5597 0.47518 0.66387 0.0
C2174 C 0.56551 0.48658 0.70579 0.0
C2175 C 0.57998 0.49939 0.69697 0.0
C2176 C 0.58858 0.50077 0.64666 0.0
C2177 C 0.58236 0.48896 0.60486 0.0
H2178 H 0.58915 0.09693 0.56636 0.0
H2179 H 0.58478 0.07425 0.73058 0.0
H2180 H 0.56 0.07292 0.74725 0.0
H2181 H 0.5728 0.11962 0.61171 0.0
H2182 H 0.56301 0.11767 0.54429 0.0
H2183 H 0.58036 0.11679 0.54524 0.0
H2184 H 0.56638 0.09041 0.49491 0.0
H2185 H 0.54898 0.09121 0.49378 0.0
H2186 H 0.54925 0.0752 0.52692 0.0
H2187 H 0.53577 0.07446 0.74673 0.0
H2188 H 0.51382 0.07824 0.7282 0.0
H2189 H 0.53365 0.0995 0.56342 0.0
C2190 C 0.58299 0.09169 0.60586 0.0
C2191 C 0.58895 0.08572 0.64728 0.0
C2192 C 0.58047 0.0789 0.69824 0.0
C2193 C 0.56637 0.0781 0.70809 0.0
C2194 C 0.56083 0.0841 0.66646 0.0
C2195 C 0.56885 0.09072 0.61623 0.0
C2196 C 0.56031 0.09623 0.57824 0.0
C2197 C 0.56968 0.11361 0.56937 0.0
C2198 C 0.55597 0.08775 0.52002 0.0
C2199 C 0.54628 0.09178 0.61508 0.0
C2200 C 0.54682 0.08482 0.66583 0.0
C2201 C 0.53523 0.07986 0.70705 0.0
C2202 C 0.5228 0.08208 0.69615 0.0
C2203 C 0.52197 0.08915 0.64437 0.0
C2204 C 0.53391 0.09402 0.60337 0.0
H2205 H 0.76972 0.57917 0.12132 0.0
H2206 H 0.77226 0.60182 0.95862 0.0
H2207 H 0.79734 0.6042 0.93885 0.0
H2208 H 0.80943 0.60216 0.15784 0.0
H2209 H 0.81088 0.58664 0.18947 0.0
H2210 H 0.7929 0.58629 0.19027 0.0
H2211 H 0.77996 0.56003 0.13897 0.0
H2212 H 0.7979 0.56029 0.13802 0.0
H2213 H 0.78764 0.55793 0.07148 0.0
H2214 H 0.82227 0.60443 0.93698 0.0
H2215 H 0.84551 0.60278 0.95361 0.0
H2216 H 0.82718 0.58024 0.11806 0.0
C2217 C 0.77552 0.58456 0.08139 0.0
C2218 C 0.76898 0.59027 0.04139 0.0
C2219 C 0.777 0.59734 0.98988 0.0
C2220 C 0.79127 0.59874 0.97823 0.0
C2221 C 0.79742 0.59305 0.01858 0.0
C2222 C 0.78983 0.58612 0.06918 0.0
C2223 C 0.79916 0.58126 0.10577 0.0
C2224 C 0.80334 0.58959 0.1643 0.0
C2225 C 0.79066 0.56384 0.11402 0.0
C2226 C 0.81316 0.58654 0.06783 0.0
C2227 C 0.81189 0.59328 0.01769 0.0
C2228 C 0.82339 0.59915 0.97604 0.0
C2229 C 0.83656 0.59816 0.9859 0.0
C2230 C 0.83819 0.59136 0.03706 0.0
C2231 C 0.82627 0.58546 0.07843 0.0
H2232 H 0.43844 0.19048 0.13419 0.0
H2233 H 0.41528 0.17132 0.97151 0.0
H2234 H 0.41175 0.19348 0.95701 0.0
H2235 H 0.41495 0.207 0.17731 0.0
H2236 H 0.43075 0.22387 0.20817 0.0
H2237 H 0.43096 0.20616 0.20753 0.0
H2238 H 0.45692 0.21945 0.15393 0.0
H2239 H 0.45678 0.23718 0.15434 0.0
H2240 H 0.45865 0.22934 0.08692 0.0
H2241 H 0.41143 0.21793 0.95761 0.0
H2242 H 0.41437 0.24336 0.97339 0.0
H2243 H 0.43774 0.24724 0.13558 0.0
C2244 C 0.43253 0.19091 0.09578 0.0
C2245 C 0.42713 0.17912 0.05398 0.0
C2246 C 0.41953 0.18017 1.00414 0.0
C2247 C 0.41744 0.19272 0.9955 0.0
C2248 C 0.42299 0.2042 0.0371 0.0
C2249 C 0.43036 0.20344 0.08634 0.0
C2250 C 0.43554 0.2176 0.12335 0.0
C2251 C 0.42757 0.2134 0.18261 0.0
C2252 C 0.45301 0.22641 0.13001 0.0
C2253 C 0.43009 0.22646 0.08682 0.0
C2254 C 0.42282 0.21844 0.03741 0.0
C2255 C 0.41704 0.2243 0.99627 0.0
C2256 C 0.41879 0.23878 1.00561 0.0
C2257 C 0.42627 0.24731 0.05569 0.0
C2258 C 0.43191 0.24098 0.09697 0.0
H2259 H 0.78128 0.18121 1.00703 0.0
H2260 H 0.75426 0.19308 0.11855 0.0
H2261 H 0.77572 0.2193 0.12616 0.0
H2262 H 0.81641 0.20316 0.08326 0.0
H2263 H 0.82842 0.20937 0.01997 0.0
H2264 H 0.81062 0.19157 0.01889 0.0
H2265 H 0.80201 0.20059 0.92889 0.0
H2266 H 0.81982 0.21842 0.92957 0.0
H2267 H 0.80198 0.21839 0.93152 0.0
H2268 H 0.79987 0.24348 0.12765 0.0
H2269 H 0.82605 0.26511 0.12217 0.0
H2270 H 0.83874 0.23898 1.00936 0.0
C2271 C 0.77986 0.18944 0.03219 0.0
C2272 C 0.76602 0.18508 0.06201 0.0
C2273 C 0.7647 0.1961 0.09535 0.0
C2274 C 0.77683 0.21107 0.09988 0.0
C2275 C 0.79034 0.21497 0.07091 0.0
C2276 C 0.79202 0.20458 0.03757 0.0
C2277 C 0.80818 0.21188 0.01331 0.0
C2278 C 0.81639 0.20349 0.03517 0.0
C2279 C 0.80798 0.21234 0.94686 0.0
C2280 C 0.81525 0.22787 0.03882 0.0
C2281 C 0.80462 0.22928 0.0717 0.0
C2282 C 0.80829 0.24259 0.10165 0.0
C2283 C 0.82324 0.25482 0.09835 0.0
C2284 C 0.83447 0.25381 0.06517 0.0
C2285 C 0.83036 0.24016 0.0345 0.0
H2286 H 0.59721 0.76924 0.02637 0.0
H2287 H 0.57288 0.74913 0.86614 0.0
H2288 H 0.57174 0.77217 0.84538 0.0
H2289 H 0.57488 0.78768 0.06115 0.0
H2290 H 0.59072 0.80457 0.09163 0.0
H2291 H 0.59041 0.78661 0.09479 0.0
H2292 H 0.6167 0.79894 0.04383 0.0
H2293 H 0.61705 0.81692 0.04028 0.0
H2294 H 0.61913 0.80836 0.97513 0.0
H2295 H 0.57346 0.79671 0.83806 0.0
H2296 H 0.57574 0.82173 0.8486 0.0
H2297 H 0.59748 0.82732 0.01632 0.0
C2298 C 0.59166 0.76975 0.98704 0.0
C2299 C 0.58537 0.75735 0.94745 0.0
C2300 C 0.57802 0.75842 0.89685 0.0
C2301 C 0.57728 0.77151 0.8845 0.0
C2302 C 0.58367 0.78351 0.92357 0.0
C2303 C 0.59052 0.78282 0.97428 0.0
C2304 C 0.5958 0.79741 1.00926 0.0
C2305 C 0.58745 0.79385 0.06768 0.0
C2306 C 0.61321 0.80591 0.01761 0.0
C2307 C 0.59092 0.80631 0.96968 0.0
C2308 C 0.58408 0.79794 0.92043 0.0
C2309 C 0.5787 0.80338 0.87654 0.0
C2310 C 0.5801 0.81771 0.88308 0.0
C2311 C 0.58675 0.8266 0.9334 0.0
C2312 C 0.59232 0.82082 0.97741 0.0
H2313 H 0.19531 0.76705 0.89077 0.0
H2314 H 0.17538 0.76996 0.05316 0.0
H2315 H 0.1975 0.79547 0.07032 0.0
H2316 H 0.23421 0.78567 0.94036 0.0
H2317 H 0.24222 0.79584 0.87375 0.0
H2318 H 0.22461 0.77786 0.87266 0.0
H2319 H 0.21124 0.79058 0.81975 0.0
H2320 H 0.22884 0.80859 0.8205 0.0
H2321 H 0.21177 0.80715 0.85108 0.0
H2322 H 0.2218 0.82034 0.07181 0.0
H2323 H 0.24679 0.84345 0.05645 0.0
H2324 H 0.2516 0.82506 0.8933 0.0
C2325 C 0.19559 0.77311 0.92972 0.0
C2326 C 0.18357 0.76646 0.97064 0.0
C2327 C 0.1844 0.77476 0.02117 0.0
C2328 C 0.19695 0.78929 0.03138 0.0
C2329 C 0.20864 0.79547 0.99067 0.0
C2330 C 0.20811 0.78772 0.94074 0.0
C2331 C 0.22238 0.79704 0.90452 0.0
C2332 C 0.23139 0.7886 0.89743 0.0
C2333 C 0.21831 0.80108 0.84546 0.0
C2334 C 0.23099 0.81115 0.94214 0.0
C2335 C 0.2228 0.80996 0.99157 0.0
C2336 C 0.22832 0.82143 0.03321 0.0
C2337 C 0.24256 0.83452 0.02411 0.0
C2338 C 0.2512 0.8361 0.97376 0.0
C2339 C 0.2453 0.8242 0.9323 0.0
H2340 H 0.18029 0.40661 0.99993 0.0
H2341 H 0.19457 0.4508 0.92202 0.0
H2342 H 0.22128 0.4567 0.92377 0.0
H2343 H 0.21458 0.4186 0.09198 0.0
H2344 H 0.21524 0.40137 0.07906 0.0
H2345 H 0.1972 0.40093 0.07789 0.0
H2346 H 0.19192 0.38942 0.97482 0.0
H2347 H 0.20992 0.38981 0.97572 0.0
H2348 H 0.20571 0.39923 0.91833 0.0
H2349 H 0.24579 0.45744 0.92608 0.0
H2350 H 0.26734 0.45265 0.92575 0.0
H2351 H 0.23854 0.40793 1.00139 0.0
C2352 C 0.18912 0.41762 0.98437 0.0
C2353 C 0.18537 0.42833 0.96127 0.0
C2354 C 0.19717 0.44245 0.93994 0.0
C2355 C 0.2124 0.44594 0.94099 0.0
C2356 C 0.21576 0.43516 0.96316 0.0
C2357 C 0.20454 0.42124 0.98428 0.0
C2358 C 0.21138 0.41135 1.00128 0.0
C2359 C 0.20949 0.40786 0.06644 0.0
C2360 C 0.20431 0.39658 0.96539 0.0
C2361 C 0.2281 0.42184 0.98557 0.0
C2362 C 0.23025 0.43555 0.96417 0.0
C2363 C 0.24432 0.44685 0.94341 0.0
C2364 C 0.2565 0.44401 0.94335 0.0
C2365 C 0.25468 0.43004 0.96419 0.0
C2366 C 0.24033 0.41887 0.98657 0.0
H2367 H 0.43038 0.91262 0.45005 0.0
H2368 H 0.43609 0.9383 0.29233 0.0
H2369 H 0.461 0.94007 0.27564 0.0
H2370 H 0.47 0.93373 0.49444 0.0
H2371 H 0.4702 0.91722 0.52279 0.0
H2372 H 0.45271 0.91786 0.52254 0.0
H2373 H 0.43931 0.89251 0.46509 0.0
H2374 H 0.45675 0.89178 0.46524 0.0
H2375 H 0.44745 0.89104 0.39773 0.0
H2376 H 0.48518 0.93881 0.27486 0.0
H2377 H 0.50709 0.93481 0.29102 0.0
H2378 H 0.48617 0.91038 0.44996 0.0
C2379 C 0.43686 0.91858 0.41198 0.0
C2380 C 0.43123 0.92529 0.3724 0.0
C2381 C 0.44013 0.93306 0.32327 0.0
C2382 C 0.45431 0.93414 0.31337 0.0
C2383 C 0.45956 0.92744 0.3531 0.0
C2384 C 0.45115 0.91984 0.40153 0.0
C2385 C 0.4595 0.91373 0.43751 0.0
C2386 C 0.46333 0.92108 0.4979 0.0
C2387 C 0.4502 0.89623 0.44161 0.0
C2388 C 0.47383 0.91899 0.40152 0.0
C2389 C 0.47362 0.92688 0.353 0.0
C2390 C 0.48549 0.93269 0.31281 0.0
C2391 C 0.4979 0.93035 0.32232 0.0
C2392 C 0.49838 0.92231 0.37173 0.0
C2393 C 0.48617 0.91663 0.41186 0.0
H2394 H 0.10635 0.58118 0.45481 0.0
H2395 H 0.08451 0.5803 0.29202 0.0
H2396 H 0.0814 0.55497 0.27033 0.0
H2397 H 0.12722 0.56342 0.40223 0.0
H2398 H 0.12478 0.55273 0.4677 0.0
H2399 H 0.12512 0.57068 0.4707 0.0
H2400 H 0.0988 0.5575 0.52186 0.0
H2401 H 0.09839 0.53951 0.51909 0.0
H2402 H 0.08291 0.54121 0.48842 0.0
H2403 H 0.08039 0.52949 0.26705 0.0
H2404 H 0.08191 0.50607 0.2816 0.0
H2405 H 0.10498 0.52381 0.44546 0.0
C2406 C 0.1009 0.57566 0.4146 0.0
C2407 C 0.09565 0.58273 0.37509 0.0
C2408 C 0.08862 0.57513 0.32292 0.0
C2409 C 0.0868 0.56072 0.31024 0.0
C2410 C 0.09212 0.55408 0.35006 0.0
C2411 C 0.09906 0.56132 0.40114 0.0
C2412 C 0.10386 0.55175 0.43643 0.0
C2413 C 0.12128 0.56015 0.44473 0.0
C2414 C 0.09549 0.54722 0.49491 0.0
C2415 C 0.09856 0.538 0.39725 0.0
C2416 C 0.09176 0.53955 0.34775 0.0
C2417 C 0.08574 0.5282 0.30555 0.0
C2418 C 0.08666 0.51493 0.31421 0.0
C2419 C 0.09362 0.51311 0.36451 0.0
C2420 C 0.09968 0.52488 0.40636 0.0
H2421 H 0.48923 0.57922 0.44877 0.0
H2422 H 0.51049 0.57433 0.29348 0.0
H2423 H 0.48796 0.54899 0.27626 0.0
H2424 H 0.47186 0.53995 0.49449 0.0
H2425 H 0.45467 0.53905 0.52099 0.0
H2426 H 0.47238 0.55696 0.52101 0.0
H2427 H 0.45977 0.56933 0.46088 0.0
H2428 H 0.44201 0.55147 0.46075 0.0
H2429 H 0.45058 0.56076 0.3933 0.0
H2430 H 0.46329 0.52407 0.27597 0.0
H2431 H 0.43801 0.50134 0.29213 0.0
H2432 H 0.43241 0.52203 0.44765 0.0
C2433 C 0.48912 0.57284 0.41103 0.0
C2434 C 0.50166 0.57881 0.37238 0.0
C2435 C 0.50105 0.57004 0.32367 0.0
C2436 C 0.48829 0.55561 0.31351 0.0
C2437 C 0.47616 0.55003 0.35246 0.0
C2438 C 0.47643 0.55835 0.40024 0.0
C2439 C 0.46188 0.54961 0.43546 0.0
C2440 C 0.46541 0.54619 0.49661 0.0
C2441 C 0.45304 0.55831 0.43771 0.0
C2442 C 0.4534 0.5351 0.39994 0.0
C2443 C 0.46188 0.5356 0.35229 0.0
C2444 C 0.45654 0.52356 0.31309 0.0
C2445 C 0.44215 0.51067 0.32268 0.0
C2446 C 0.43318 0.50987 0.37107 0.0
C2447 C 0.43896 0.52229 0.41018 0.0
loop_
_geom_bond_atom_site_label_1
_geom_bond_atom_site_label_2
_geom_bond_distance
_geom_bond_site_symmetry_2
_ccdc_geom_bond_type
Co0 O1 2.216 . S
Co0 O2 2.091 . S
Co0 O4 2.004 . S
Co0 O10 2.021 . S
Co0 O12 2.137 . S
Co0 O13 2.244 . S
O1 Co0 2.216 . S
O1 C8 1.247 . S
O2 Co0 2.091 . S
O2 C8 1.261 . S
C3 O12 1.247 . S
C3 O13 1.272 . S
O4 Co0 2.004 . S
O4 C9 1.259 . S
Co5 O6 2.061 . S
Co5 O11 2.052 . S
Co5 O13 2.135 . S
O6 Co5 2.061 . S
O6 C9 1.235 . S
C7 O10 1.238 . S
C7 O11 1.241 . S
C8 O1 1.247 . S
C8 O2 1.261 . S
C9 O4 1.259 . S
C9 O6 1.235 . S
O10 Co0 2.021 . S
O10 C7 1.238 . S
O11 Co5 2.052 . S
O11 C7 1.241 . S
O12 Co0 2.137 . S
O12 C3 1.247 . S
O13 Co0 2.244 . S
O13 C3 1.272 . S
O13 Co5 2.135 . S
Co14 O15 2.216 . S
Co14 O16 2.091 . S
Co14 O18 2.004 . S
Co14 O24 2.021 . S
Co14 O26 2.137 . S
Co14 O27 2.244 . S
O15 Co14 2.216 . S
O15 C22 1.247 . S
O16 Co14 2.091 . S
O16 C22 1.261 . S
C17 O26 1.247 . S
C17 O27 1.272 . S
O18 Co14 2.004 . S
O18 C23 1.259 . S
Co19 O20 2.061 . S
Co19 O25 2.052 . S
Co19 O27 2.135 . S
O20 Co19 2.061 . S
O20 C23 1.235 . S
C21 O24 1.238 . S
C21 O25 1.241 . S
C22 O15 1.247 . S
C22 O16 1.261 . S
C23 O18 1.259 . S
C23 O20 1.235 . S
O24 Co14 2.021 . S
O24 C21 1.238 . S
O25 Co19 2.052 . S
O25 C21 1.241 . S
O26 Co14 2.137 . S
O26 C17 1.247 . S
O27 Co14 2.244 . S
O27 C17 1.272 . S
O27 Co19 2.135 . S
Co28 O29 2.216 . S
Co28 O30 2.091 . S
Co28 O32 2.004 . S
Co28 O38 2.021 . S
Co28 O40 2.137 . S
Co28 O41 2.244 . S
O29 Co28 2.216 . S
O29 C36 1.247 . S
O30 Co28 2.091 . S
O30 C36 1.261 . S
C31 O40 1.247 . S
C31 O41 1.272 . S
O32 Co28 2.004 . S
O32 C37 1.259 . S
Co33 O34 2.061 . S
Co33 O39 2.052 . S
Co33 O41 2.135 . S
O34 Co33 2.061 . S
O34 C37 1.235 . S
C35 O38 1.238 . S
C35 O39 1.241 . S
C36 O29 1.247 . S
C36 O30 1.261 . S
C37 O32 1.259 . S
C37 O34 1.235 . S
O38 Co28 2.021 . S
O38 C35 1.238 . S
O39 Co33 2.052 . S
O39 C35 1.241 . S
O40 Co28 2.137 . S
O40 C31 1.247 . S
O41 Co28 2.244 . S
O41 C31 1.272 . S
O41 Co33 2.135 . S
Co42 O43 2.216 . S
Co42 O44 2.091 . S
Co42 O46 2.004 . S
Co42 O52 2.021 . S
Co42 O54 2.137 . S
Co42 O55 2.244 . S
O43 Co42 2.216 . S
O43 C50 1.247 . S
O44 Co42 2.091 . S
O44 C50 1.261 . S
C45 O54 1.247 . S
C45 O55 1.272 . S
O46 Co42 2.004 . S
O46 C51 1.259 . S
Co47 O48 2.061 . S
Co47 O53 2.052 . S
Co47 O55 2.135 . S
O48 Co47 2.061 . S
O48 C51 1.235 . S
C49 O52 1.238 . S
C49 O53 1.241 . S
C50 O43 1.247 . S
C50 O44 1.261 . S
C51 O46 1.259 . S
C51 O48 1.235 . S
O52 Co42 2.021 . S
O52 C49 1.238 . S
O53 Co47 2.052 . S
O53 C49 1.241 . S
O54 Co42 2.137 . S
O54 C45 1.247 . S
O55 Co42 2.244 . S
O55 C45 1.272 . S
O55 Co47 2.135 . S
Co56 O57 2.216 . S
Co56 O58 2.091 . S
Co56 O60 2.004 . S
Co56 O66 2.021 . S
Co56 O68 2.137 . S
Co56 O69 2.244 . S
O57 Co56 2.216 . S
O57 C64 1.247 . S
O58 Co56 2.091 . S
O58 C64 1.261 . S
C59 O68 1.247 . S
C59 O69 1.272 . S
O60 Co56 2.004 . S
O60 C65 1.259 . S
Co61 O62 2.061 . S
Co61 O67 2.052 . S
Co61 O69 2.135 . S
O62 Co61 2.061 . S
O62 C65 1.235 . S
C63 O66 1.238 . S
C63 O67 1.241 . S
C64 O57 1.247 . S
C64 O58 1.261 . S
C65 O60 1.259 . S
C65 O62 1.235 . S
O66 Co56 2.021 . S
O66 C63 1.238 . S
O67 Co61 2.052 . S
O67 C63 1.241 . S
O68 Co56 2.137 . S
O68 C59 1.247 . S
O69 Co56 2.244 . S
O69 C59 1.272 . S
O69 Co61 2.135 . S
Co70 O71 2.216 . S
Co70 O72 2.091 . S
Co70 O74 2.004 . S
Co70 O80 2.021 . S
Co70 O82 2.137 . S
Co70 O83 2.244 . S
O71 Co70 2.216 . S
O71 C78 1.247 . S
O72 Co70 2.091 . S
O72 C78 1.261 . S
C73 O82 1.247 . S
C73 O83 1.272 . S
O74 Co70 2.004 . S
O74 C79 1.259 . S
Co75 O76 2.061 . S
Co75 O81 2.052 . S
Co75 O83 2.135 . S
O76 Co75 2.061 . S
O76 C79 1.235 . S
C77 O80 1.238 . S
C77 O81 1.241 . S
C78 O71 1.247 . S
C78 O72 1.261 . S
C79 O74 1.259 . S
C79 O76 1.235 . S
O80 Co70 2.021 . S
O80 C77 1.238 . S
O81 Co75 2.052 . S
O81 C77 1.241 . S
O82 Co70 2.137 . S
O82 C73 1.247 . S
O83 Co70 2.244 . S
O83 C73 1.272 . S
O83 Co75 2.135 . S
Co84 O85 2.216 . S
Co84 O86 2.091 . S
Co84 O88 2.004 . S
Co84 O94 2.021 . S
Co84 O96 2.137 . S
Co84 O97 2.244 . S
O85 Co84 2.216 . S
O85 C92 1.247 . S
O86 Co84 2.091 . S
O86 C92 1.261 . S
C87 O96 1.247 . S
C87 O97 1.272 . S
O88 Co84 2.004 . S
O88 C93 1.259 . S
Co89 O90 2.061 . S
Co89 O95 2.052 . S
Co89 O97 2.135 . S
O90 Co89 2.061 . S
O90 C93 1.235 . S
C91 O94 1.238 . S
C91 O95 1.241 . S
C92 O85 1.247 . S
C92 O86 1.261 . S
C93 O88 1.259 . S
C93 O90 1.235 . S
O94 Co84 2.021 . S
O94 C91 1.238 . S
O95 Co89 2.052 . S
O95 C91 1.241 . S
O96 Co84 2.137 . S
O96 C87 1.247 . S
O97 Co84 2.244 . S
O97 C87 1.272 . S
O97 Co89 2.135 . S
Co98 O99 2.216 . S
Co98 O100 2.091 . S
Co98 O102 2.004 . S
Co98 O108 2.021 . S
Co98 O110 2.137 . S
Co98 O111 2.244 . S
O99 Co98 2.216 . S
O99 C106 1.247 . S
O100 Co98 2.091 . S
O100 C106 1.261 . S
C101 O110 1.247 . S
C101 O111 1.272 . S
O102 Co98 2.004 . S
O102 C107 1.259 . S
Co103 O104 2.061 . S
Co103 O109 2.052 . S
Co103 O111 2.135 . S
O104 Co103 2.061 . S
O104 C107 1.235 . S
C105 O108 1.238 . S
C105 O109 1.241 . S
C106 O99 1.247 . S
C106 O100 1.261 . S
C107 O102 1.259 . S
C107 O104 1.235 . S
O108 Co98 2.021 . S
O108 C105 1.238 . S
O109 Co103 2.052 . S
O109 C105 1.241 . S
O110 Co98 2.137 . S
O110 C101 1.247 . S
O111 Co98 2.244 . S
O111 C101 1.272 . S
O111 Co103 2.135 . S
Co112 O113 2.216 . S
Co112 O114 2.091 . S
Co112 O116 2.004 . S
Co112 O122 2.021 . S
Co112 O124 2.137 . S
Co112 O125 2.244 . S
O113 Co112 2.216 . S
O113 C120 1.247 . S
O114 Co112 2.091 . S
O114 C120 1.261 . S
C115 O124 1.247 . S
C115 O125 1.272 . S
O116 Co112 2.004 . S
O116 C121 1.259 . S
Co117 O118 2.061 . S
Co117 O123 2.052 . S
Co117 O125 2.135 . S
O118 Co117 2.061 . S
O118 C121 1.235 . S
C119 O122 1.238 . S
C119 O123 1.241 . S
C120 O113 1.247 . S
C120 O114 1.261 . S
C121 O116 1.259 . S
C121 O118 1.235 . S
O122 Co112 2.021 . S
O122 C119 1.238 . S
O123 Co117 2.052 . S
O123 C119 1.241 . S
O124 Co112 2.137 . S
O124 C115 1.247 . S
O125 Co112 2.244 . S
O125 C115 1.272 . S
O125 Co117 2.135 . S
Co126 O127 2.216 . S
Co126 O128 2.091 . S
Co126 O130 2.004 . S
Co126 O136 2.021 . S
Co126 O138 2.137 . S
Co126 O139 2.244 . S
O127 Co126 2.216 . S
O127 C134 1.247 . S
O128 Co126 2.091 . S
O128 C134 1.261 . S
C129 O138 1.247 . S
C129 O139 1.272 . S
O130 Co126 2.004 . S
O130 C135 1.259 . S
Co131 O132 2.061 . S
Co131 O137 2.052 . S
Co131 O139 2.135 . S
O132 Co131 2.061 . S
O132 C135 1.235 . S
C133 O136 1.238 . S
C133 O137 1.241 . S
C134 O127 1.247 . S
C134 O128 1.261 . S
C135 O130 1.259 . S
C135 O132 1.235 . S
O136 Co126 2.021 . S
O136 C133 1.238 . S
O137 Co131 2.052 . S
O137 C133 1.241 . S
O138 Co126 2.137 . S
O138 C129 1.247 . S
O139 Co126 2.244 . S
O139 C129 1.272 . S
O139 Co131 2.135 . S
Co140 O141 2.216 . S
Co140 O142 2.091 . S
Co140 O144 2.004 . S
Co140 O150 2.021 . S
Co140 O152 2.137 . S
Co140 O153 2.244 . S
O141 Co140 2.216 . S
O141 C148 1.247 . S
O142 Co140 2.091 . S
O142 C148 1.261 . S
C143 O152 1.247 . S
C143 O153 1.272 . S
O144 Co140 2.004 . S
O144 C149 1.259 . S
Co145 O146 2.061 . S
Co145 O151 2.052 . S
Co145 O153 2.135 . S
O146 Co145 2.061 . S
O146 C149 1.235 . S
C147 O150 1.238 . S
C147 O151 1.241 . S
C148 O141 1.247 . S
C148 O142 1.261 . S
C149 O144 1.259 . S
C149 O146 1.235 . S
O150 Co140 2.021 . S
O150 C147 1.238 . S
O151 Co145 2.052 . S
O151 C147 1.241 . S
O152 Co140 2.137 . S
O152 C143 1.247 . S
O153 Co140 2.244 . S
O153 C143 1.272 . S
O153 Co145 2.135 . S
Co154 O155 2.216 . S
Co154 O156 2.091 . S
Co154 O158 2.004 . S
Co154 O164 2.021 . S
Co154 O166 2.137 . S
Co154 O167 2.244 . S
O155 Co154 2.216 . S
O155 C162 1.247 . S
O156 Co154 2.091 . S
O156 C162 1.261 . S
C157 O166 1.247 . S
C157 O167 1.272 . S
O158 Co154 2.004 . S
O158 C163 1.259 . S
Co159 O160 2.061 . S
Co159 O165 2.052 . S
Co159 O167 2.135 . S
O160 Co159 2.061 . S
O160 C163 1.235 . S
C161 O164 1.238 . S
C161 O165 1.241 . S
C162 O155 1.247 . S
C162 O156 1.261 . S
C163 O158 1.259 . S
C163 O160 1.235 . S
O164 Co154 2.021 . S
O164 C161 1.238 . S
O165 Co159 2.052 . S
O165 C161 1.241 . S
O166 Co154 2.137 . S
O166 C157 1.247 . S
O167 Co154 2.244 . S
O167 C157 1.272 . S
O167 Co159 2.135 . S
Co168 O169 2.216 . S
Co168 O170 2.091 . S
Co168 O172 2.004 . S
Co168 O178 2.021 . S
Co168 O180 2.137 . S
Co168 O181 2.244 . S
O169 Co168 2.216 . S
O169 C176 1.247 . S
O170 Co168 2.091 . S
O170 C176 1.261 . S
C171 O180 1.247 . S
C171 O181 1.272 . S
O172 Co168 2.004 . S
O172 C177 1.259 . S
Co173 O174 2.061 . S
Co173 O179 2.052 . S
Co173 O181 2.135 . S
O174 Co173 2.061 . S
O174 C177 1.235 . S
C175 O178 1.238 . S
C175 O179 1.241 . S
C176 O169 1.247 . S
C176 O170 1.261 . S
C177 O172 1.259 . S
C177 O174 1.235 . S
O178 Co168 2.021 . S
O178 C175 1.238 . S
O179 Co173 2.052 . S
O179 C175 1.241 . S
O180 Co168 2.137 . S
O180 C171 1.247 . S
O181 Co168 2.244 . S
O181 C171 1.272 . S
O181 Co173 2.135 . S
Co182 O183 2.216 . S
Co182 O184 2.091 . S
Co182 O186 2.004 . S
Co182 O192 2.021 . S
Co182 O194 2.137 . S
Co182 O195 2.244 . S
O183 Co182 2.216 . S
O183 C190 1.247 . S
O184 Co182 2.091 . S
O184 C190 1.261 . S
C185 O194 1.247 . S
C185 O195 1.272 . S
O186 Co182 2.004 . S
O186 C191 1.259 . S
Co187 O188 2.061 . S
Co187 O193 2.052 . S
Co187 O195 2.135 . S
O188 Co187 2.061 . S
O188 C191 1.235 . S
C189 O192 1.238 . S
C189 O193 1.241 . S
C190 O183 1.247 . S
C190 O184 1.261 . S
C191 O186 1.259 . S
C191 O188 1.235 . S
O192 Co182 2.021 . S
O192 C189 1.238 . S
O193 Co187 2.052 . S
O193 C189 1.241 . S
O194 Co182 2.137 . S
O194 C185 1.247 . S
O195 Co182 2.244 . S
O195 C185 1.272 . S
O195 Co187 2.135 . S
Co196 O197 2.216 . S
Co196 O198 2.091 . S
Co196 O200 2.004 . S
Co196 O206 2.021 . S
Co196 O208 2.137 . S
Co196 O209 2.244 . S
O197 Co196 2.216 . S
O197 C204 1.247 . S
O198 Co196 2.091 . S
O198 C204 1.261 . S
C199 O208 1.247 . S
C199 O209 1.272 . S
O200 Co196 2.004 . S
O200 C205 1.259 . S
Co201 O202 2.061 . S
Co201 O207 2.052 . S
Co201 O209 2.135 . S
O202 Co201 2.061 . S
O202 C205 1.235 . S
C203 O206 1.238 . S
C203 O207 1.241 . S
C204 O197 1.247 . S
C204 O198 1.261 . S
C205 O200 1.259 . S
C205 O202 1.235 . S
O206 Co196 2.021 . S
O206 C203 1.238 . S
O207 Co201 2.052 . S
O207 C203 1.241 . S
O208 Co196 2.137 . S
O208 C199 1.247 . S
O209 Co196 2.244 . S
O209 C199 1.272 . S
O209 Co201 2.135 . S
Co210 O211 2.216 . S
Co210 O212 2.091 1_554 S
Co210 O214 2.004 . S
Co210 O220 2.021 . S
Co210 O222 2.137 . S
Co210 O223 2.244 . S
O211 Co210 2.216 . S
O211 C218 1.247 1_554 S
O212 Co210 2.091 1_556 S
O212 C218 1.261 . S
C213 O222 1.247 . S
C213 O223 1.272 . S
O214 Co210 2.004 . S
O214 C219 1.259 . S
Co215 O216 2.061 . S
Co215 O221 2.052 . S
Co215 O223 2.135 . S
O216 Co215 2.061 . S
O216 C219 1.235 . S
C217 O220 1.238 . S
C217 O221 1.241 . S
C218 O211 1.247 1_556 S
C218 O212 1.261 . S
C219 O214 1.259 . S
C219 O216 1.235 . S
O220 Co210 2.021 . S
O220 C217 1.238 . S
O221 Co215 2.052 . S
O221 C217 1.241 . S
O222 Co210 2.137 . S
O222 C213 1.247 . S
O223 Co210 2.244 . S
O223 C213 1.272 . S
O223 Co215 2.135 . S
Co224 O225 2.216 . S
Co224 O226 2.091 1_554 S
Co224 O228 2.004 . S
Co224 O234 2.021 . S
Co224 O236 2.137 . S
Co224 O237 2.244 . S
O225 Co224 2.216 . S
O225 C232 1.247 1_554 S
O226 Co224 2.091 1_556 S
O226 C232 1.261 . S
C227 O236 1.247 . S
C227 O237 1.272 . S
O228 Co224 2.004 . S
O228 C233 1.259 . S
Co229 O230 2.061 . S
Co229 O235 2.052 . S
Co229 O237 2.135 . S
O230 Co229 2.061 . S
O230 C233 1.235 . S
C231 O234 1.238 . S
C231 O235 1.241 . S
C232 O225 1.247 1_556 S
C232 O226 1.261 . S
C233 O228 1.259 . S
C233 O230 1.235 . S
O234 Co224 2.021 . S
O234 C231 1.238 . S
O235 Co229 2.052 . S
O235 C231 1.241 . S
O236 Co224 2.137 . S
O236 C227 1.247 . S
O237 Co224 2.244 . S
O237 C227 1.272 . S
O237 Co229 2.135 . S
Co238 O239 2.216 . S
Co238 O240 2.091 1_554 S
Co238 O242 2.004 . S
Co238 O248 2.021 . S
Co238 O250 2.137 . S
Co238 O251 2.244 . S
O239 Co238 2.216 . S
O239 C246 1.247 1_554 S
O240 Co238 2.091 1_556 S
O240 C246 1.261 . S
C241 O250 1.247 . S
C241 O251 1.272 . S
O242 Co238 2.004 . S
O242 C247 1.259 . S
Co243 O244 2.061 . S
Co243 O249 2.052 . S
Co243 O251 2.135 . S
O244 Co243 2.061 . S
O244 C247 1.235 . S
C245 O248 1.238 . S
C245 O249 1.241 . S
C246 O239 1.247 1_556 S
C246 O240 1.261 . S
C247 O242 1.259 . S
C247 O244 1.235 . S
O248 Co238 2.021 . S
O248 C245 1.238 . S
O249 Co243 2.052 . S
O249 C245 1.241 . S
O250 Co238 2.137 . S
O250 C241 1.247 . S
O251 Co238 2.244 . S
O251 C241 1.272 . S
O251 Co243 2.135 . S
Co252 O253 2.216 . S
Co252 O254 2.091 1_554 S
Co252 O256 2.004 . S
Co252 O262 2.021 . S
Co252 O264 2.137 . S
Co252 O265 2.244 . S
O253 Co252 2.216 . S
O253 C260 1.247 1_554 S
O254 Co252 2.091 1_556 S
O254 C260 1.261 . S
C255 O264 1.247 . S
C255 O265 1.272 . S
O256 Co252 2.004 . S
O256 C261 1.259 . S
Co257 O258 2.061 . S
Co257 O263 2.052 . S
Co257 O265 2.135 . S
O258 Co257 2.061 . S
O258 C261 1.235 . S
C259 O262 1.238 . S
C259 O263 1.241 . S
C260 O253 1.247 1_556 S
C260 O254 1.261 . S
C261 O256 1.259 . S
C261 O258 1.235 . S
O262 Co252 2.021 . S
O262 C259 1.238 . S
O263 Co257 2.052 . S
O263 C259 1.241 . S
O264 Co252 2.137 . S
O264 C255 1.247 . S
O265 Co252 2.244 . S
O265 C255 1.272 . S
O265 Co257 2.135 . S
Co266 O267 2.216 . S
Co266 O268 2.091 1_554 S
Co266 O270 2.004 . S
Co266 O276 2.021 . S
Co266 O278 2.137 . S
Co266 O279 2.244 . S
O267 Co266 2.216 . S
O267 C274 1.247 1_554 S
O268 Co266 2.091 1_556 S
O268 C274 1.261 . S
C269 O278 1.247 . S
C269 O279 1.272 . S
O270 Co266 2.004 . S
O270 C275 1.259 . S
Co271 O272 2.061 . S
Co271 O277 2.052 . S
Co271 O279 2.135 . S
O272 Co271 2.061 . S
O272 C275 1.235 . S
C273 O276 1.238 . S
C273 O277 1.241 . S
C274 O267 1.247 1_556 S
C274 O268 1.261 . S
C275 O270 1.259 . S
C275 O272 1.235 . S
O276 Co266 2.021 . S
O276 C273 1.238 . S
O277 Co271 2.052 . S
O277 C273 1.241 . S
O278 Co266 2.137 . S
O278 C269 1.247 . S
O279 Co266 2.244 . S
O279 C269 1.272 . S
O279 Co271 2.135 . S
Co280 O281 2.216 . S
Co280 O282 2.091 1_554 S
Co280 O284 2.004 . S
Co280 O290 2.021 . S
Co280 O292 2.137 . S
Co280 O293 2.244 . S
O281 Co280 2.216 . S
O281 C288 1.247 1_554 S
O282 Co280 2.091 1_556 S
O282 C288 1.261 . S
C283 O292 1.247 . S
C283 O293 1.272 . S
O284 Co280 2.004 . S
O284 C289 1.259 . S
Co285 O286 2.061 . S
Co285 O291 2.052 . S
Co285 O293 2.135 . S
O286 Co285 2.061 . S
O286 C289 1.235 . S
C287 O290 1.238 . S
C287 O291 1.241 . S
C288 O281 1.247 1_556 S
C288 O282 1.261 . S
C289 O284 1.259 . S
C289 O286 1.235 . S
O290 Co280 2.021 . S
O290 C287 1.238 . S
O291 Co285 2.052 . S
O291 C287 1.241 . S
O292 Co280 2.137 . S
O292 C283 1.247 . S
O293 Co280 2.244 . S
O293 C283 1.272 . S
O293 Co285 2.135 . S
Co294 O295 2.216 . S
Co294 O296 2.091 . S
Co294 O298 2.004 . S
Co294 O304 2.021 . S
Co294 O306 2.137 . S
Co294 O307 2.244 . S
O295 Co294 2.216 . S
O295 C302 1.247 . S
O296 Co294 2.091 . S
O296 C302 1.261 . S
C297 O306 1.247 . S
C297 O307 1.272 . S
O298 Co294 2.004 . S
O298 C303 1.259 . S
Co299 O300 2.061 . S
Co299 O305 2.052 . S
Co299 O307 2.135 . S
O300 Co299 2.061 . S
O300 C303 1.235 . S
C301 O304 1.238 . S
C301 O305 1.241 . S
C302 O295 1.247 . S
C302 O296 1.261 . S
C303 O298 1.259 . S
C303 O300 1.235 . S
O304 Co294 2.021 . S
O304 C301 1.238 . S
O305 Co299 2.052 . S
O305 C301 1.241 . S
O306 Co294 2.137 . S
O306 C297 1.247 . S
O307 Co294 2.244 . S
O307 C297 1.272 . S
O307 Co299 2.135 . S
Co308 O309 2.216 . S
Co308 O310 2.091 . S
Co308 O312 2.004 . S
Co308 O318 2.021 . S
Co308 O320 2.137 . S
Co308 O321 2.244 . S
O309 Co308 2.216 . S
O309 C316 1.247 . S
O310 Co308 2.091 . S
O310 C316 1.261 . S
C311 O320 1.247 . S
C311 O321 1.272 . S
O312 Co308 2.004 . S
O312 C317 1.259 . S
Co313 O314 2.061 . S
Co313 O319 2.052 . S
Co313 O321 2.135 . S
O314 Co313 2.061 . S
O314 C317 1.235 . S
C315 O318 1.238 . S
C315 O319 1.241 . S
C316 O309 1.247 . S
C316 O310 1.261 . S
C317 O312 1.259 . S
C317 O314 1.235 . S
O318 Co308 2.021 . S
O318 C315 1.238 . S
O319 Co313 2.052 . S
O319 C315 1.241 . S
O320 Co308 2.137 . S
O320 C311 1.247 . S
O321 Co308 2.244 . S
O321 C311 1.272 . S
O321 Co313 2.135 . S
Co322 O323 2.216 . S
Co322 O324 2.091 . S
Co322 O326 2.004 . S
Co322 O332 2.021 . S
Co322 O334 2.137 . S
Co322 O335 2.244 . S
O323 Co322 2.216 . S
O323 C330 1.247 . S
O324 Co322 2.091 . S
O324 C330 1.261 . S
C325 O334 1.247 . S
C325 O335 1.272 . S
O326 Co322 2.004 . S
O326 C331 1.259 . S
Co327 O328 2.061 . S
Co327 O333 2.052 . S
Co327 O335 2.135 . S
O328 Co327 2.061 . S
O328 C331 1.235 . S
C329 O332 1.238 . S
C329 O333 1.241 . S
C330 O323 1.247 . S
C330 O324 1.261 . S
C331 O326 1.259 . S
C331 O328 1.235 . S
O332 Co322 2.021 . S
O332 C329 1.238 . S
O333 Co327 2.052 . S
O333 C329 1.241 . S
O334 Co322 2.137 . S
O334 C325 1.247 . S
O335 Co322 2.244 . S
O335 C325 1.272 . S
O335 Co327 2.135 . S
Co336 O337 2.216 . S
Co336 O338 2.091 1_556 S
Co336 O340 2.004 . S
Co336 O346 2.021 . S
Co336 O348 2.137 . S
Co336 O349 2.244 . S
O337 Co336 2.216 . S
O337 C344 1.247 1_556 S
O338 Co336 2.091 1_554 S
O338 C344 1.261 . S
C339 O348 1.247 . S
C339 O349 1.272 . S
O340 Co336 2.004 . S
O340 C345 1.259 . S
Co341 O342 2.061 . S
Co341 O347 2.052 . S
Co341 O349 2.135 . S
O342 Co341 2.061 . S
O342 C345 1.235 . S
C343 O346 1.238 . S
C343 O347 1.241 . S
C344 O337 1.247 1_554 S
C344 O338 1.261 . S
C345 O340 1.259 . S
C345 O342 1.235 . S
O346 Co336 2.021 . S
O346 C343 1.238 . S
O347 Co341 2.052 . S
O347 C343 1.241 . S
O348 Co336 2.137 . S
O348 C339 1.247 . S
O349 Co336 2.244 . S
O349 C339 1.272 . S
O349 Co341 2.135 . S
Co350 O351 2.216 . S
Co350 O352 2.091 1_556 S
Co350 O354 2.004 . S
Co350 O360 2.021 . S
Co350 O362 2.137 . S
Co350 O363 2.244 . S
O351 Co350 2.216 . S
O351 C358 1.247 1_556 S
O352 Co350 2.091 1_554 S
O352 C358 1.261 . S
C353 O362 1.247 . S
C353 O363 1.272 . S
O354 Co350 2.004 . S
O354 C359 1.259 . S
Co355 O356 2.061 . S
Co355 O361 2.052 . S
Co355 O363 2.135 . S
O356 Co355 2.061 . S
O356 C359 1.235 . S
C357 O360 1.238 . S
C357 O361 1.241 . S
C358 O351 1.247 1_554 S
C358 O352 1.261 . S
C359 O354 1.259 . S
C359 O356 1.235 . S
O360 Co350 2.021 . S
O360 C357 1.238 . S
O361 Co355 2.052 . S
O361 C357 1.241 . S
O362 Co350 2.137 . S
O362 C353 1.247 . S
O363 Co350 2.244 . S
O363 C353 1.272 . S
O363 Co355 2.135 . S
Co364 O365 2.216 . S
Co364 O366 2.091 1_556 S
Co364 O368 2.004 . S
Co364 O374 2.021 . S
Co364 O376 2.137 . S
Co364 O377 2.244 . S
O365 Co364 2.216 . S
O365 C372 1.247 1_556 S
O366 Co364 2.091 1_554 S
O366 C372 1.261 . S
C367 O376 1.247 . S
C367 O377 1.272 . S
O368 Co364 2.004 . S
O368 C373 1.259 . S
Co369 O370 2.061 . S
Co369 O375 2.052 . S
Co369 O377 2.135 . S
O370 Co369 2.061 . S
O370 C373 1.235 . S
C371 O374 1.238 . S
C371 O375 1.241 . S
C372 O365 1.247 1_554 S
C372 O366 1.261 . S
C373 O368 1.259 . S
C373 O370 1.235 . S
O374 Co364 2.021 . S
O374 C371 1.238 . S
O375 Co369 2.052 . S
O375 C371 1.241 . S
O376 Co364 2.137 . S
O376 C367 1.247 . S
O377 Co364 2.244 . S
O377 C367 1.272 . S
O377 Co369 2.135 . S
Co378 O379 2.216 . S
Co378 O380 2.091 . S
Co378 O382 2.004 . S
Co378 O388 2.021 . S
Co378 O390 2.137 . S
Co378 O391 2.244 . S
O379 Co378 2.216 . S
O379 C386 1.247 . S
O380 Co378 2.091 . S
O380 C386 1.261 . S
C381 O390 1.247 . S
C381 O391 1.272 . S
O382 Co378 2.004 . S
O382 C387 1.259 . S
Co383 O384 2.061 . S
Co383 O389 2.052 . S
Co383 O391 2.135 . S
O384 Co383 2.061 . S
O384 C387 1.235 . S
C385 O388 1.238 . S
C385 O389 1.241 . S
C386 O379 1.247 . S
C386 O380 1.261 . S
C387 O382 1.259 . S
C387 O384 1.235 . S
O388 Co378 2.021 . S
O388 C385 1.238 . S
O389 Co383 2.052 . S
O389 C385 1.241 . S
O390 Co378 2.137 . S
O390 C381 1.247 . S
O391 Co378 2.244 . S
O391 C381 1.272 . S
O391 Co383 2.135 . S
Co392 O393 2.216 . S
Co392 O394 2.091 . S
Co392 O396 2.004 . S
Co392 O402 2.021 . S
Co392 O404 2.137 . S
Co392 O405 2.244 . S
O393 Co392 2.216 . S
O393 C400 1.247 . S
O394 Co392 2.091 . S
O394 C400 1.261 . S
C395 O404 1.247 . S
C395 O405 1.272 . S
O396 Co392 2.004 . S
O396 C401 1.259 . S
Co397 O398 2.061 . S
Co397 O403 2.052 . S
Co397 O405 2.135 . S
O398 Co397 2.061 . S
O398 C401 1.235 . S
C399 O402 1.238 . S
C399 O403 1.241 . S
C400 O393 1.247 . S
C400 O394 1.261 . S
C401 O396 1.259 . S
C401 O398 1.235 . S
O402 Co392 2.021 . S
O402 C399 1.238 . S
O403 Co397 2.052 . S
O403 C399 1.241 . S
O404 Co392 2.137 . S
O404 C395 1.247 . S
O405 Co392 2.244 . S
O405 C395 1.272 . S
O405 Co397 2.135 . S
Co406 O407 2.216 . S
Co406 O408 2.091 . S
Co406 O410 2.004 . S
Co406 O416 2.021 . S
Co406 O418 2.137 . S
Co406 O419 2.244 . S
O407 Co406 2.216 . S
O407 C414 1.247 . S
O408 Co406 2.091 . S
O408 C414 1.261 . S
C409 O418 1.247 . S
C409 O419 1.272 . S
O410 Co406 2.004 . S
O410 C415 1.259 . S
Co411 O412 2.061 . S
Co411 O417 2.052 . S
Co411 O419 2.135 . S
O412 Co411 2.061 . S
O412 C415 1.235 . S
C413 O416 1.238 . S
C413 O417 1.241 . S
C414 O407 1.247 . S
C414 O408 1.261 . S
C415 O410 1.259 . S
C415 O412 1.235 . S
O416 Co406 2.021 . S
O416 C413 1.238 . S
O417 Co411 2.052 . S
O417 C413 1.241 . S
O418 Co406 2.137 . S
O418 C409 1.247 . S
O419 Co406 2.244 . S
O419 C409 1.272 . S
O419 Co411 2.135 . S
Co420 O421 2.216 . S
Co420 O422 2.091 . S
Co420 O424 2.004 . S
Co420 O430 2.021 . S
Co420 O432 2.137 . S
Co420 O433 2.244 . S
O421 Co420 2.216 . S
O421 C428 1.247 . S
O422 Co420 2.091 . S
O422 C428 1.261 . S
C423 O432 1.247 . S
C423 O433 1.272 . S
O424 Co420 2.004 . S
O424 C429 1.259 . S
Co425 O426 2.061 . S
Co425 O431 2.052 . S
Co425 O433 2.135 . S
O426 Co425 2.061 . S
O426 C429 1.235 . S
C427 O430 1.238 . S
C427 O431 1.241 . S
C428 O421 1.247 . S
C428 O422 1.261 . S
C429 O424 1.259 . S
C429 O426 1.235 . S
O430 Co420 2.021 . S
O430 C427 1.238 . S
O431 Co425 2.052 . S
O431 C427 1.241 . S
O432 Co420 2.137 . S
O432 C423 1.247 . S
O433 Co420 2.244 . S
O433 C423 1.272 . S
O433 Co425 2.135 . S
Co434 O435 2.216 . S
Co434 O436 2.091 . S
Co434 O438 2.004 . S
Co434 O444 2.021 . S
Co434 O446 2.137 . S
Co434 O447 2.244 . S
O435 Co434 2.216 . S
O435 C442 1.247 . S
O436 Co434 2.091 . S
O436 C442 1.261 . S
C437 O446 1.247 . S
C437 O447 1.272 . S
O438 Co434 2.004 . S
O438 C443 1.259 . S
Co439 O440 2.061 . S
Co439 O445 2.052 . S
Co439 O447 2.135 . S
O440 Co439 2.061 . S
O440 C443 1.235 . S
C441 O444 1.238 . S
C441 O445 1.241 . S
C442 O435 1.247 . S
C442 O436 1.261 . S
C443 O438 1.259 . S
C443 O440 1.235 . S
O444 Co434 2.021 . S
O444 C441 1.238 . S
O445 Co439 2.052 . S
O445 C441 1.241 . S
O446 Co434 2.137 . S
O446 C437 1.247 . S
O447 Co434 2.244 . S
O447 C437 1.272 . S
O447 Co439 2.135 . S
Co448 O449 2.216 . S
Co448 O450 2.091 . S
Co448 O452 2.004 . S
Co448 O458 2.021 . S
Co448 O460 2.137 . S
Co448 O461 2.244 . S
O449 Co448 2.216 . S
O449 C456 1.247 . S
O450 Co448 2.091 . S
O450 C456 1.261 . S
C451 O460 1.247 . S
C451 O461 1.272 . S
O452 Co448 2.004 . S
O452 C457 1.259 . S
Co453 O454 2.061 . S
Co453 O459 2.052 . S
Co453 O461 2.135 . S
O454 Co453 2.061 . S
O454 C457 1.235 . S
C455 O458 1.238 . S
C455 O459 1.241 . S
C456 O449 1.247 . S
C456 O450 1.261 . S
C457 O452 1.259 . S
C457 O454 1.235 . S
O458 Co448 2.021 . S
O458 C455 1.238 . S
O459 Co453 2.052 . S
O459 C455 1.241 . S
O460 Co448 2.137 . S
O460 C451 1.247 . S
O461 Co448 2.244 . S
O461 C451 1.272 . S
O461 Co453 2.135 . S
Co462 O463 2.216 . S
Co462 O464 2.091 1_556 S
Co462 O466 2.004 . S
Co462 O472 2.021 . S
Co462 O474 2.137 . S
Co462 O475 2.244 . S
O463 Co462 2.216 . S
O463 C470 1.247 1_556 S
O464 Co462 2.091 1_554 S
O464 C470 1.261 . S
C465 O474 1.247 . S
C465 O475 1.272 . S
O466 Co462 2.004 . S
O466 C471 1.259 . S
Co467 O468 2.061 . S
Co467 O473 2.052 . S
Co467 O475 2.135 . S
O468 Co467 2.061 . S
O468 C471 1.235 . S
C469 O472 1.238 . S
C469 O473 1.241 . S
C470 O463 1.247 1_554 S
C470 O464 1.261 . S
C471 O466 1.259 . S
C471 O468 1.235 . S
O472 Co462 2.021 . S
O472 C469 1.238 . S
O473 Co467 2.052 . S
O473 C469 1.241 . S
O474 Co462 2.137 . S
O474 C465 1.247 . S
O475 Co462 2.244 . S
O475 C465 1.272 . S
O475 Co467 2.135 . S
Co476 O477 2.216 . S
Co476 O478 2.091 1_556 S
Co476 O480 2.004 . S
Co476 O486 2.021 . S
Co476 O488 2.137 . S
Co476 O489 2.244 . S
O477 Co476 2.216 . S
O477 C484 1.247 1_556 S
O478 Co476 2.091 1_554 S
O478 C484 1.261 . S
C479 O488 1.247 . S
C479 O489 1.272 . S
O480 Co476 2.004 . S
O480 C485 1.259 . S
Co481 O482 2.061 . S
Co481 O487 2.052 . S
Co481 O489 2.135 . S
O482 Co481 2.061 . S
O482 C485 1.235 . S
C483 O486 1.238 . S
C483 O487 1.241 . S
C484 O477 1.247 1_554 S
C484 O478 1.261 . S
C485 O480 1.259 . S
C485 O482 1.235 . S
O486 Co476 2.021 . S
O486 C483 1.238 . S
O487 Co481 2.052 . S
O487 C483 1.241 . S
O488 Co476 2.137 . S
O488 C479 1.247 . S
O489 Co476 2.244 . S
O489 C479 1.272 . S
O489 Co481 2.135 . S
Co490 O491 2.216 . S
Co490 O492 2.091 1_556 S
Co490 O494 2.004 . S
Co490 O500 2.021 . S
Co490 O502 2.137 . S
Co490 O503 2.244 . S
O491 Co490 2.216 . S
O491 C498 1.247 1_556 S
O492 Co490 2.091 1_554 S
O492 C498 1.261 . S
C493 O502 1.247 . S
C493 O503 1.272 . S
O494 Co490 2.004 . S
O494 C499 1.259 . S
Co495 O496 2.061 . S
Co495 O501 2.052 . S
Co495 O503 2.135 . S
O496 Co495 2.061 . S
O496 C499 1.235 . S
C497 O500 1.238 . S
C497 O501 1.241 . S
C498 O491 1.247 1_554 S
C498 O492 1.261 . S
C499 O494 1.259 . S
C499 O496 1.235 . S
O500 Co490 2.021 . S
O500 C497 1.238 . S
O501 Co495 2.052 . S
O501 C497 1.241 . S
O502 Co490 2.137 . S
O502 C493 1.247 . S
O503 Co490 2.244 . S
O503 C493 1.272 . S
O503 Co495 2.135 . S
H504 C516 0.930 . S
H505 C518 0.930 . S
H506 C519 0.930 . S
H507 C523 0.959 1_565 S
H508 C523 0.959 . S
H509 C523 0.961 . S
H510 C524 0.960 . S
H511 C524 0.961 . S
H512 C524 0.959 . S
H513 C527 0.857 1_565 S
H514 C528 0.931 . S
H515 C530 0.930 . S
C516 H504 0.930 . S
C516 C517 1.399 . S
C516 C521 1.399 . S
C517 C516 1.399 . S
C517 C518 1.376 . S
C518 H505 0.930 . S
C518 C517 1.376 . S
C518 C519 1.388 . S
C519 H506 0.930 . S
C519 C518 1.388 . S
C519 C520 1.390 . S
C520 C519 1.390 . S
C520 C521 1.394 . S
C520 C526 1.465 1_565 S
C521 C516 1.399 . S
C521 C520 1.394 . S
C521 C522 1.516 1_565 S
C522 C521 1.516 1_545 S
C522 C523 1.502 . S
C522 C524 1.561 . S
C522 C525 1.526 . S
C523 H507 0.959 1_545 S
C523 H508 0.959 . S
C523 H509 0.961 . S
C523 C522 1.502 . S
C524 H510 0.960 . S
C524 H511 0.961 . S
C524 H512 0.959 . S
C524 C522 1.561 . S
C525 C522 1.526 . S
C525 C526 1.396 . S
C525 C530 1.390 . S
C526 C520 1.465 1_545 S
C526 C525 1.396 . S
C526 C527 1.399 . S
C527 H513 0.857 1_545 S
C527 C526 1.399 . S
C527 C528 1.385 . S
C528 H514 0.931 . S
C528 C527 1.385 . S
C528 C529 1.389 . S
C529 C528 1.389 . S
C529 C530 1.387 . S
C530 H515 0.930 . S
C530 C525 1.390 . S
C530 C529 1.387 . S
H531 C543 0.930 . S
H532 C545 0.930 . S
H533 C546 0.930 . S
H534 C550 0.959 . S
H535 C550 0.959 . S
H536 C550 0.961 . S
H537 C551 0.960 . S
H538 C551 0.961 . S
H539 C551 0.959 . S
H540 C554 0.929 . S
H541 C555 0.931 . S
H542 C557 0.930 . S
C543 H531 0.930 . S
C543 C544 1.399 . S
C543 C548 1.399 . S
C544 C543 1.399 . S
C544 C545 1.376 . S
C545 H532 0.930 . S
C545 C544 1.376 . S
C545 C546 1.388 1_455 S
C546 H533 0.930 . S
C546 C545 1.388 1_655 S
C546 C547 1.395 . S
C547 C546 1.395 . S
C547 C548 1.361 1_655 S
C547 C553 1.490 . S
C548 C543 1.399 . S
C548 C547 1.361 1_455 S
C548 C549 1.516 . S
C549 C548 1.516 . S
C549 C550 1.502 . S
C549 C551 1.561 . S
C549 C552 1.526 1_455 S
C550 H534 0.959 . S
C550 H535 0.959 . S
C550 H536 0.961 . S
C550 C549 1.502 . S
C551 H537 0.960 . S
C551 H538 0.961 . S
C551 H539 0.959 . S
C551 C549 1.561 . S
C552 C549 1.526 1_655 S
C552 C553 1.396 . S
C552 C557 1.390 . S
C553 C547 1.490 . S
C553 C552 1.396 . S
C553 C554 1.399 . S
C554 H540 0.929 . S
C554 C553 1.399 . S
C554 C555 1.385 . S
C555 H541 0.931 . S
C555 C554 1.385 . S
C555 C556 1.389 . S
C556 C555 1.389 . S
C556 C557 1.387 . S
C557 H542 0.930 . S
C557 C552 1.390 . S
C557 C556 1.387 . S
H558 C570 0.930 . S
H559 C572 0.930 . S
H560 C573 0.930 . S
H561 C577 0.959 . S
H562 C577 0.959 . S
H563 C577 0.961 . S
H564 C578 0.960 . S
H565 C578 0.961 . S
H566 C578 0.959 . S
H567 C581 0.929 . S
H568 C582 0.931 . S
H569 C584 0.930 . S
C570 H558 0.930 . S
C570 C571 1.399 . S
C570 C575 1.399 . S
C571 C570 1.399 . S
C571 C572 1.376 . S
C572 H559 0.930 . S
C572 C571 1.376 . S
C572 C573 1.388 . S
C573 H560 0.930 . S
C573 C572 1.388 . S
C573 C574 1.390 . S
C574 C573 1.390 . S
C574 C575 1.394 . S
C574 C580 1.465 . S
C575 C570 1.399 . S
C575 C574 1.394 . S
C575 C576 1.516 . S
C576 C575 1.516 . S
C576 C577 1.502 . S
C576 C578 1.561 . S
C576 C579 1.526 . S
C577 H561 0.959 . S
C577 H562 0.959 . S
C577 H563 0.961 . S
C577 C576 1.502 . S
C578 H564 0.960 . S
C578 H565 0.961 . S
C578 H566 0.959 . S
C578 C576 1.561 . S
C579 C576 1.526 . S
C579 C580 1.396 . S
C579 C584 1.390 . S
C580 C574 1.465 . S
C580 C579 1.396 . S
C580 C581 1.399 . S
C581 H567 0.929 . S
C581 C580 1.399 . S
C581 C582 1.385 . S
C582 H568 0.931 . S
C582 C581 1.385 . S
C582 C583 1.389 . S
C583 C582 1.389 . S
C583 C584 1.387 . S
C584 H569 0.930 . S
C584 C579 1.390 . S
C584 C583 1.387 . S
H585 C597 0.930 . S
H586 C599 0.930 . S
H587 C600 0.930 . S
H588 C604 0.959 . S
H589 C604 0.959 . S
H590 C604 0.961 . S
H591 C605 0.960 . S
H592 C605 0.961 . S
H593 C605 0.959 . S
H594 C608 0.929 . S
H595 C609 0.931 . S
H596 C611 0.930 . S
C597 H585 0.930 . S
C597 C598 1.399 . S
C597 C602 1.399 . S
C598 C597 1.399 . S
C598 C599 1.376 . S
C599 H586 0.930 . S
C599 C598 1.376 . S
C599 C600 1.388 1_565 S
C600 H587 0.930 . S
C600 C599 1.388 1_545 S
C600 C601 1.390 . S
C601 C600 1.390 . S
C601 C602 1.393 1_545 S
C601 C607 1.466 . S
C602 C597 1.399 . S
C602 C601 1.393 1_565 S
C602 C603 1.516 . S
C603 C602 1.516 . S
C603 C604 1.502 . S
C603 C605 1.561 . S
C603 C606 1.526 1_565 S
C604 H588 0.959 . S
C604 H589 0.959 . S
C604 H590 0.961 . S
C604 C603 1.502 . S
C605 H591 0.960 . S
C605 H592 0.961 . S
C605 H593 0.959 . S
C605 C603 1.561 . S
C606 C603 1.526 1_545 S
C606 C607 1.396 . S
C606 C611 1.390 . S
C607 C601 1.466 . S
C607 C606 1.396 . S
C607 C608 1.399 . S
C608 H594 0.929 . S
C608 C607 1.399 . S
C608 C609 1.385 . S
C609 H595 0.931 . S
C609 C608 1.385 . S
C609 C610 1.389 . S
C610 C609 1.389 . S
C610 C611 1.387 . S
C611 H596 0.930 . S
C611 C606 1.390 . S
C611 C610 1.387 . S
H612 C624 0.930 . S
H613 C626 0.930 . S
H614 C627 0.930 . S
H615 C631 0.959 . S
H616 C631 0.959 . S
H617 C631 0.961 1_455 S
H618 C632 0.960 . S
H619 C632 0.961 . S
H620 C632 0.959 . S
H621 C635 0.929 . S
H622 C636 0.931 . S
H623 C638 0.930 . S
C624 H612 0.930 . S
C624 C625 1.399 . S
C624 C629 1.399 . S
C625 C624 1.399 . S
C625 C626 1.376 . S
C626 H613 0.930 . S
C626 C625 1.376 . S
C626 C627 1.388 . S
C627 H614 0.930 . S
C627 C626 1.388 . S
C627 C628 1.390 . S
C628 C627 1.390 . S
C628 C629 1.394 . S
C628 C634 1.465 1_455 S
C629 C624 1.399 . S
C629 C628 1.394 . S
C629 C630 1.516 . S
C630 C629 1.516 . S
C630 C631 1.502 1_455 S
C630 C632 1.561 . S
C630 C633 1.526 1_455 S
C631 H615 0.959 . S
C631 H616 0.959 . S
C631 H617 0.961 1_655 S
C631 C630 1.502 1_655 S
C632 H618 0.960 . S
C632 H619 0.961 . S
C632 H620 0.959 . S
C632 C630 1.561 . S
C633 C630 1.526 1_655 S
C633 C634 1.396 . S
C633 C638 1.390 . S
C634 C628 1.465 1_655 S
C634 C633 1.396 . S
C634 C635 1.399 . S
C635 H621 0.929 . S
C635 C634 1.399 . S
C635 C636 1.385 . S
C636 H622 0.931 . S
C636 C635 1.385 . S
C636 C637 1.389 . S
C637 C636 1.389 . S
C637 C638 1.387 . S
C638 H623 0.930 . S
C638 C633 1.390 . S
C638 C637 1.387 . S
H639 C651 0.930 . S
H640 C653 0.930 . S
H641 C654 0.930 . S
H642 C658 0.959 . S
H643 C658 0.959 . S
H644 C658 0.961 . S
H645 C659 0.960 . S
H646 C659 0.961 . S
H647 C659 0.959 . S
H648 C662 0.929 . S
H649 C663 0.931 . S
H650 C665 0.930 . S
C651 H639 0.930 . S
C651 C652 1.399 . S
C651 C656 1.399 . S
C652 C651 1.399 . S
C652 C653 1.376 . S
C653 H640 0.930 . S
C653 C652 1.376 . S
C653 C654 1.388 . S
C654 H641 0.930 . S
C654 C653 1.388 . S
C654 C655 1.390 . S
C655 C654 1.390 . S
C655 C656 1.394 . S
C655 C661 1.465 . S
C656 C651 1.399 . S
C656 C655 1.394 . S
C656 C657 1.516 . S
C657 C656 1.516 . S
C657 C658 1.502 . S
C657 C659 1.561 . S
C657 C660 1.526 . S
C658 H642 0.959 . S
C658 H643 0.959 . S
C658 H644 0.961 . S
C658 C657 1.502 . S
C659 H645 0.960 . S
C659 H646 0.961 . S
C659 H647 0.959 . S
C659 C657 1.561 . S
C660 C657 1.526 . S
C660 C661 1.396 . S
C660 C665 1.390 . S
C661 C655 1.465 . S
C661 C660 1.396 . S
C661 C662 1.399 . S
C662 H648 0.929 . S
C662 C661 1.399 . S
C662 C663 1.385 . S
C663 H649 0.931 . S
C663 C662 1.385 . S
C663 C664 1.389 . S
C664 C663 1.389 . S
C664 C665 1.387 . S
C665 H650 0.930 . S
C665 C660 1.390 . S
C665 C664 1.387 . S
H666 C678 0.930 . S
H667 C680 0.930 . S
H668 C681 0.930 . S
H669 C685 0.959 . S
H670 C685 0.959 . S
H671 C685 0.961 . S
H672 C686 0.960 . S
H673 C686 0.961 . S
H674 C686 0.959 . S
H675 C689 0.929 . S
H676 C690 0.931 1_554 S
H677 C692 0.930 . S
C678 H666 0.930 . S
C678 C679 1.399 . S
C678 C683 1.399 . S
C679 C678 1.399 . S
C679 C680 1.376 . S
C680 H667 0.930 . S
C680 C679 1.376 . S
C680 C681 1.388 . S
C681 H668 0.930 . S
C681 C680 1.388 . S
C681 C682 1.390 . S
C682 C681 1.390 . S
C682 C683 1.394 . S
C682 C688 1.465 . S
C683 C678 1.399 . S
C683 C682 1.394 . S
C683 C684 1.516 . S
C684 C683 1.516 . S
C684 C685 1.502 . S
C684 C686 1.561 . S
C684 C687 1.526 . S
C685 H669 0.959 . S
C685 H670 0.959 . S
C685 H671 0.961 . S
C685 C684 1.502 . S
C686 H672 0.960 . S
C686 H673 0.961 . S
C686 H674 0.959 . S
C686 C684 1.561 . S
C687 C684 1.526 . S
C687 C688 1.396 . S
C687 C692 1.390 . S
C688 C682 1.465 . S
C688 C687 1.396 . S
C688 C689 1.399 . S
C689 H675 0.929 . S
C689 C688 1.399 . S
C689 C690 1.385 . S
C690 H676 0.931 1_556 S
C690 C689 1.385 . S
C690 C691 1.389 . S
C691 C690 1.389 . S
C691 C692 1.387 . S
C692 H677 0.930 . S
C692 C687 1.390 . S
C692 C691 1.387 . S
H693 C705 0.930 . S
H694 C707 0.930 . S
H695 C708 0.930 . S
H696 C712 0.959 . S
H697 C712 0.959 . S
H698 C712 0.961 . S
H699 C713 0.960 . S
H700 C713 0.961 . S
H701 C713 0.959 . S
H702 C716 0.929 . S
H703 C717 0.931 . S
H704 C719 0.930 . S
C705 H693 0.930 . S
C705 C706 1.399 . S
C705 C710 1.399 . S
C706 C705 1.399 . S
C706 C707 1.376 . S
C707 H694 0.930 . S
C707 C706 1.376 . S
C707 C708 1.388 . S
C708 H695 0.930 . S
C708 C707 1.388 . S
C708 C709 1.390 . S
C709 C708 1.390 . S
C709 C710 1.394 . S
C709 C715 1.465 . S
C710 C705 1.399 . S
C710 C709 1.394 . S
C710 C711 1.516 . S
C711 C710 1.516 . S
C711 C712 1.502 . S
C711 C713 1.561 . S
C711 C714 1.526 . S
C712 H696 0.959 . S
C712 H697 0.959 . S
C712 H698 0.961 . S
C712 C711 1.502 . S
C713 H699 0.960 . S
C713 H700 0.961 . S
C713 H701 0.959 . S
C713 C711 1.561 . S
C714 C711 1.526 . S
C714 C715 1.396 . S
C714 C719 1.390 . S
C715 C709 1.465 . S
C715 C714 1.396 . S
C715 C716 1.399 . S
C716 H702 0.929 . S
C716 C715 1.399 . S
C716 C717 1.385 . S
C717 H703 0.931 . S
C717 C716 1.385 . S
C717 C718 1.389 . S
C718 C717 1.389 . S
C718 C719 1.387 . S
C719 H704 0.930 . S
C719 C714 1.390 . S
C719 C718 1.387 . S
H720 C732 0.930 . S
H721 C734 0.930 . S
H722 C735 0.930 . S
H723 C739 0.959 . S
H724 C739 0.959 . S
H725 C739 0.961 . S
H726 C740 0.960 . S
H727 C740 0.961 . S
H728 C740 0.959 . S
H729 C743 0.929 . S
H730 C744 0.931 . S
H731 C746 0.930 . S
C732 H720 0.930 . S
C732 C733 1.399 . S
C732 C737 1.399 . S
C733 C732 1.399 . S
C733 C734 1.376 . S
C734 H721 0.930 . S
C734 C733 1.376 . S
C734 C735 1.388 . S
C735 H722 0.930 . S
C735 C734 1.388 . S
C735 C736 1.390 . S
C736 C735 1.390 . S
C736 C737 1.394 . S
C736 C742 1.465 . S
C737 C732 1.399 . S
C737 C736 1.394 . S
C737 C738 1.516 . S
C738 C737 1.516 . S
C738 C739 1.502 . S
C738 C740 1.561 . S
C738 C741 1.526 . S
C739 H723 0.959 . S
C739 H724 0.959 . S
C739 H725 0.961 . S
C739 C738 1.502 . S
C740 H726 0.960 . S
C740 H727 0.961 . S
C740 H728 0.959 . S
C740 C738 1.561 . S
C741 C738 1.526 . S
C741 C742 1.396 . S
C741 C746 1.390 . S
C742 C736 1.465 . S
C742 C741 1.396 . S
C742 C743 1.399 . S
C743 H729 0.929 . S
C743 C742 1.399 . S
C743 C744 1.385 . S
C744 H730 0.931 . S
C744 C743 1.385 . S
C744 C745 1.389 . S
C745 C744 1.389 . S
C745 C746 1.387 . S
C746 H731 0.930 . S
C746 C741 1.390 . S
C746 C745 1.387 . S
H747 C759 0.930 . S
H748 C761 0.930 . S
H749 C762 0.930 . S
H750 C766 0.959 . S
H751 C766 0.959 . S
H752 C766 0.961 . S
H753 C767 0.960 . S
H754 C767 0.961 . S
H755 C767 0.959 . S
H756 C770 0.929 . S
H757 C771 0.931 . S
H758 C773 0.930 . S
C759 H747 0.930 . S
C759 C760 1.399 . S
C759 C764 1.399 . S
C760 C759 1.399 . S
C760 C761 1.376 . S
C761 H748 0.930 . S
C761 C760 1.376 . S
C761 C762 1.388 . S
C762 H749 0.930 . S
C762 C761 1.388 . S
C762 C763 1.390 . S
C763 C762 1.390 . S
C763 C764 1.394 . S
C763 C769 1.465 . S
C764 C759 1.399 . S
C764 C763 1.394 . S
C764 C765 1.516 . S
C765 C764 1.516 . S
C765 C766 1.502 . S
C765 C767 1.561 . S
C765 C768 1.526 . S
C766 H750 0.959 . S
C766 H751 0.959 . S
C766 H752 0.961 . S
C766 C765 1.502 . S
C767 H753 0.960 . S
C767 H754 0.961 . S
C767 H755 0.959 . S
C767 C765 1.561 . S
C768 C765 1.526 . S
C768 C769 1.396 . S
C768 C773 1.390 . S
C769 C763 1.465 . S
C769 C768 1.396 . S
C769 C770 1.399 . S
C770 H756 0.929 . S
C770 C769 1.399 . S
C770 C771 1.385 . S
C771 H757 0.931 . S
C771 C770 1.385 . S
C771 C772 1.389 . S
C772 C771 1.389 . S
C772 C773 1.387 . S
C773 H758 0.930 . S
C773 C768 1.390 . S
C773 C772 1.387 . S
H774 C786 0.930 . S
H775 C788 0.930 . S
H776 C789 0.930 . S
H777 C793 0.959 . S
H778 C793 0.959 . S
H779 C793 0.961 . S
H780 C794 0.960 . S
H781 C794 0.961 . S
H782 C794 0.959 . S
H783 C797 0.929 . S
H784 C798 0.931 . S
H785 C800 0.930 . S
C786 H774 0.930 . S
C786 C787 1.399 . S
C786 C791 1.399 . S
C787 C786 1.399 . S
C787 C788 1.376 . S
C788 H775 0.930 . S
C788 C787 1.376 . S
C788 C789 1.388 . S
C789 H776 0.930 . S
C789 C788 1.388 . S
C789 C790 1.390 . S
C790 C789 1.390 . S
C790 C791 1.394 . S
C790 C796 1.465 . S
C791 C786 1.399 . S
C791 C790 1.394 . S
C791 C792 1.516 . S
C792 C791 1.516 . S
C792 C793 1.502 . S
C792 C794 1.561 . S
C792 C795 1.526 . S
C793 H777 0.959 . S
C793 H778 0.959 . S
C793 H779 0.961 . S
C793 C792 1.502 . S
C794 H780 0.960 . S
C794 H781 0.961 . S
C794 H782 0.959 . S
C794 C792 1.561 . S
C795 C792 1.526 . S
C795 C796 1.396 . S
C795 C800 1.390 . S
C796 C790 1.465 . S
C796 C795 1.396 . S
C796 C797 1.399 . S
C797 H783 0.929 . S
C797 C796 1.399 . S
C797 C798 1.385 . S
C798 H784 0.931 . S
C798 C797 1.385 . S
C798 C799 1.389 . S
C799 C798 1.389 . S
C799 C800 1.387 . S
C800 H785 0.930 . S
C800 C795 1.390 . S
C800 C799 1.387 . S
H801 C813 0.930 . S
H802 C815 0.930 . S
H803 C816 0.930 . S
H804 C820 0.959 . S
H805 C820 0.959 . S
H806 C820 0.961 . S
H807 C821 0.960 . S
H808 C821 0.961 . S
H809 C821 0.959 . S
H810 C824 0.929 . S
H811 C825 0.931 . S
H812 C827 0.930 . S
C813 H801 0.930 . S
C813 C814 1.399 . S
C813 C818 1.399 . S
C814 C813 1.399 . S
C814 C815 1.376 . S
C815 H802 0.930 . S
C815 C814 1.376 . S
C815 C816 1.388 . S
C816 H803 0.930 . S
C816 C815 1.388 . S
C816 C817 1.390 . S
C817 C816 1.390 . S
C817 C818 1.394 . S
C817 C823 1.465 . S
C818 C813 1.399 . S
C818 C817 1.394 . S
C818 C819 1.516 . S
C819 C818 1.516 . S
C819 C820 1.502 . S
C819 C821 1.561 . S
C819 C822 1.526 . S
C820 H804 0.959 . S
C820 H805 0.959 . S
C820 H806 0.961 . S
C820 C819 1.502 . S
C821 H807 0.960 . S
C821 H808 0.961 . S
C821 H809 0.959 . S
C821 C819 1.561 . S
C822 C819 1.526 . S
C822 C823 1.396 . S
C822 C827 1.390 . S
C823 C817 1.465 . S
C823 C822 1.396 . S
C823 C824 1.399 . S
C824 H810 0.929 . S
C824 C823 1.399 . S
C824 C825 1.385 . S
C825 H811 0.931 . S
C825 C824 1.385 . S
C825 C826 1.389 . S
C826 C825 1.389 . S
C826 C827 1.387 . S
C827 H812 0.930 . S
C827 C822 1.390 . S
C827 C826 1.387 . S
H828 C840 0.930 . S
H829 C842 0.930 . S
H830 C843 0.930 . S
H831 C847 0.959 . S
H832 C847 0.959 . S
H833 C847 0.961 . S
H834 C848 0.960 . S
H835 C848 0.961 . S
H836 C848 0.959 . S
H837 C851 0.929 . S
H838 C852 0.931 1_556 S
H839 C854 0.930 . S
C840 H828 0.930 . S
C840 C841 1.399 . S
C840 C845 1.399 . S
C841 C840 1.399 . S
C841 C842 1.376 . S
C842 H829 0.930 . S
C842 C841 1.376 . S
C842 C843 1.388 . S
C843 H830 0.930 . S
C843 C842 1.388 . S
C843 C844 1.390 . S
C844 C843 1.390 . S
C844 C845 1.394 . S
C844 C850 1.465 . S
C845 C840 1.399 . S
C845 C844 1.394 . S
C845 C846 1.516 . S
C846 C845 1.516 . S
C846 C847 1.502 . S
C846 C848 1.561 . S
C846 C849 1.526 . S
C847 H831 0.959 . S
C847 H832 0.959 . S
C847 H833 0.961 . S
C847 C846 1.502 . S
C848 H834 0.960 . S
C848 H835 0.961 . S
C848 H836 0.959 . S
C848 C846 1.561 . S
C849 C846 1.526 . S
C849 C850 1.396 . S
C849 C854 1.390 . S
C850 C844 1.465 . S
C850 C849 1.396 . S
C850 C851 1.399 . S
C851 H837 0.929 . S
C851 C850 1.399 . S
C851 C852 1.385 . S
C852 H838 0.931 1_554 S
C852 C851 1.385 . S
C852 C853 1.389 . S
C853 C852 1.389 . S
C853 C854 1.387 . S
C854 H839 0.930 . S
C854 C849 1.390 . S
C854 C853 1.387 . S
H855 C867 0.930 . S
H856 C869 0.930 . S
H857 C870 0.930 . S
H858 C874 0.959 . S
H859 C874 0.959 . S
H860 C874 0.961 . S
H861 C875 0.960 . S
H862 C875 0.961 . S
H863 C875 0.959 . S
H864 C878 0.929 . S
H865 C879 0.931 . S
H866 C881 0.930 . S
C867 H855 0.930 . S
C867 C868 1.399 . S
C867 C872 1.399 . S
C868 C867 1.399 . S
C868 C869 1.376 . S
C869 H856 0.930 . S
C869 C868 1.376 . S
C869 C870 1.388 . S
C870 H857 0.930 . S
C870 C869 1.388 . S
C870 C871 1.390 . S
C871 C870 1.390 . S
C871 C872 1.394 . S
C871 C877 1.465 . S
C872 C867 1.399 . S
C872 C871 1.394 . S
C872 C873 1.516 . S
C873 C872 1.516 . S
C873 C874 1.502 . S
C873 C875 1.561 . S
C873 C876 1.526 . S
C874 H858 0.959 . S
C874 H859 0.959 . S
C874 H860 0.961 . S
C874 C873 1.502 . S
C875 H861 0.960 . S
C875 H862 0.961 . S
C875 H863 0.959 . S
C875 C873 1.561 . S
C876 C873 1.526 . S
C876 C877 1.396 . S
C876 C881 1.390 . S
C877 C871 1.465 . S
C877 C876 1.396 . S
C877 C878 1.399 . S
C878 H864 0.929 . S
C878 C877 1.399 . S
C878 C879 1.385 . S
C879 H865 0.931 . S
C879 C878 1.385 . S
C879 C880 1.389 . S
C880 C879 1.389 . S
C880 C881 1.387 . S
C881 H866 0.930 . S
C881 C876 1.390 . S
C881 C880 1.387 . S
H882 C894 0.930 . S
H883 C896 0.930 . S
H884 C897 0.930 . S
H885 C901 0.959 . S
H886 C901 0.959 . S
H887 C901 0.961 . S
H888 C902 0.960 . S
H889 C902 0.961 . S
H890 C902 0.959 . S
H891 C905 0.929 . S
H892 C906 0.931 . S
H893 C908 0.930 . S
C894 H882 0.930 . S
C894 C895 1.399 . S
C894 C899 1.399 . S
C895 C894 1.399 . S
C895 C896 1.376 . S
C896 H883 0.930 . S
C896 C895 1.376 . S
C896 C897 1.388 . S
C897 H884 0.930 . S
C897 C896 1.388 . S
C897 C898 1.390 . S
C898 C897 1.390 . S
C898 C899 1.394 . S
C898 C904 1.465 . S
C899 C894 1.399 . S
C899 C898 1.394 . S
C899 C900 1.516 . S
C900 C899 1.516 . S
C900 C901 1.502 . S
C900 C902 1.561 . S
C900 C903 1.526 . S
C901 H885 0.959 . S
C901 H886 0.959 . S
C901 H887 0.961 . S
C901 C900 1.502 . S
C902 H888 0.960 . S
C902 H889 0.961 . S
C902 H890 0.959 . S
C902 C900 1.561 . S
C903 C900 1.526 . S
C903 C904 1.396 . S
C903 C908 1.390 . S
C904 C898 1.465 . S
C904 C903 1.396 . S
C904 C905 1.399 . S
C905 H891 0.929 . S
C905 C904 1.399 . S
C905 C906 1.385 . S
C906 H892 0.931 . S
C906 C905 1.385 . S
C906 C907 1.389 . S
C907 C906 1.389 . S
C907 C908 1.387 . S
C908 H893 0.930 . S
C908 C903 1.390 . S
C908 C907 1.387 . S
H909 C921 0.930 . S
H910 C923 0.930 . S
H911 C924 0.930 . S
H912 C928 0.959 . S
H913 C928 0.959 . S
H914 C928 0.961 . S
H915 C929 0.960 . S
H916 C929 0.961 . S
H917 C929 0.959 . S
H918 C932 0.929 . S
H919 C933 0.931 . S
H920 C935 0.930 . S
C921 H909 0.930 . S
C921 C922 1.399 . S
C921 C926 1.399 . S
C922 C921 1.399 . S
C922 C923 1.376 . S
C923 H910 0.930 . S
C923 C922 1.376 . S
C923 C924 1.388 . S
C924 H911 0.930 . S
C924 C923 1.388 . S
C924 C925 1.390 . S
C925 C924 1.390 . S
C925 C926 1.394 . S
C925 C931 1.465 . S
C926 C921 1.399 . S
C926 C925 1.394 . S
C926 C927 1.516 . S
C927 C926 1.516 . S
C927 C928 1.502 . S
C927 C929 1.561 . S
C927 C930 1.526 . S
C928 H912 0.959 . S
C928 H913 0.959 . S
C928 H914 0.961 . S
C928 C927 1.502 . S
C929 H915 0.960 . S
C929 H916 0.961 . S
C929 H917 0.959 . S
C929 C927 1.561 . S
C930 C927 1.526 . S
C930 C931 1.396 . S
C930 C935 1.390 . S
C931 C925 1.465 . S
C931 C930 1.396 . S
C931 C932 1.399 . S
C932 H918 0.929 . S
C932 C931 1.399 . S
C932 C933 1.385 . S
C933 H919 0.931 . S
C933 C932 1.385 . S
C933 C934 1.389 . S
C934 C933 1.389 . S
C934 C935 1.387 . S
C935 H920 0.930 . S
C935 C930 1.390 . S
C935 C934 1.387 . S
H936 C948 0.930 . S
H937 C950 0.930 . S
H938 C951 0.930 . S
H939 C955 0.959 . S
H940 C955 0.959 . S
H941 C955 0.961 . S
H942 C956 0.960 . S
H943 C956 0.961 . S
H944 C956 0.959 . S
H945 C959 0.929 . S
H946 C960 0.931 . S
H947 C962 0.930 . S
C948 H936 0.930 . S
C948 C949 1.399 . S
C948 C953 1.399 . S
C949 C948 1.399 . S
C949 C950 1.376 . S
C950 H937 0.930 . S
C950 C949 1.376 . S
C950 C951 1.388 . S
C951 H938 0.930 . S
C951 C950 1.388 . S
C951 C952 1.390 . S
C952 C951 1.390 . S
C952 C953 1.394 . S
C952 C958 1.465 . S
C953 C948 1.399 . S
C953 C952 1.394 . S
C953 C954 1.516 . S
C954 C953 1.516 . S
C954 C955 1.502 . S
C954 C956 1.561 . S
C954 C957 1.526 . S
C955 H939 0.959 . S
C955 H940 0.959 . S
C955 H941 0.961 . S
C955 C954 1.502 . S
C956 H942 0.960 . S
C956 H943 0.961 . S
C956 H944 0.959 . S
C956 C954 1.561 . S
C957 C954 1.526 . S
C957 C958 1.396 . S
C957 C962 1.390 . S
C958 C952 1.465 . S
C958 C957 1.396 . S
C958 C959 1.399 . S
C959 H945 0.929 . S
C959 C958 1.399 . S
C959 C960 1.385 . S
C960 H946 0.931 . S
C960 C959 1.385 . S
C960 C961 1.389 . S
C961 C960 1.389 . S
C961 C962 1.387 . S
C962 H947 0.930 . S
C962 C957 1.390 . S
C962 C961 1.387 . S
H963 C975 0.930 . S
H964 C977 0.930 . S
H965 C978 0.930 . S
H966 C982 0.959 . S
H967 C982 0.959 . S
H968 C982 0.961 . S
H969 C983 0.960 . S
H970 C983 0.961 . S
H971 C983 0.959 . S
H972 C986 0.929 . S
H973 C987 0.931 . S
H974 C989 0.930 . S
C975 H963 0.930 . S
C975 C976 1.399 . S
C975 C980 1.399 . S
C976 C975 1.399 . S
C976 C977 1.376 . S
C977 H964 0.930 . S
C977 C976 1.376 . S
C977 C978 1.388 . S
C978 H965 0.930 . S
C978 C977 1.388 . S
C978 C979 1.390 . S
C979 C978 1.390 . S
C979 C980 1.394 . S
C979 C985 1.465 . S
C980 C975 1.399 . S
C980 C979 1.394 . S
C980 C981 1.516 . S
C981 C980 1.516 . S
C981 C982 1.502 . S
C981 C983 1.561 . S
C981 C984 1.526 . S
C982 H966 0.959 . S
C982 H967 0.959 . S
C982 H968 0.961 . S
C982 C981 1.502 . S
C983 H969 0.960 . S
C983 H970 0.961 . S
C983 H971 0.959 . S
C983 C981 1.561 . S
C984 C981 1.526 . S
C984 C985 1.396 . S
C984 C989 1.390 . S
C985 C979 1.465 . S
C985 C984 1.396 . S
C985 C986 1.399 . S
C986 H972 0.929 . S
C986 C985 1.399 . S
C986 C987 1.385 . S
C987 H973 0.931 . S
C987 C986 1.385 . S
C987 C988 1.389 . S
C988 C987 1.389 . S
C988 C989 1.387 . S
C989 H974 0.930 . S
C989 C984 1.390 . S
C989 C988 1.387 . S
H990 C1002 0.930 . S
H991 C1004 0.930 . S
H992 C1005 0.930 1_545 S
H993 C1009 0.959 . S
H994 C1009 0.959 . S
H995 C1009 0.961 . S
H996 C1010 0.960 . S
H997 C1010 0.961 . S
H998 C1010 0.959 . S
H999 C1013 0.929 . S
H1000 C1014 0.931 . S
H1001 C1016 0.930 . S
C1002 H990 0.930 . S
C1002 C1003 1.399 . S
C1002 C1007 1.399 . S
C1003 C1002 1.399 . S
C1003 C1004 1.376 . S
C1004 H991 0.930 . S
C1004 C1003 1.376 . S
C1004 C1005 1.388 . S
C1005 H992 0.930 1_565 S
C1005 C1004 1.388 . S
C1005 C1006 1.390 . S
C1006 C1005 1.390 . S
C1006 C1007 1.394 . S
C1006 C1012 1.465 1_566 S
C1007 C1002 1.399 . S
C1007 C1006 1.394 . S
C1007 C1008 1.516 1_556 S
C1008 C1007 1.516 1_554 S
C1008 C1009 1.502 . S
C1008 C1010 1.561 . S
C1008 C1011 1.526 1_565 S
C1009 H993 0.959 . S
C1009 H994 0.959 . S
C1009 H995 0.961 . S
C1009 C1008 1.502 . S
C1010 H996 0.960 . S
C1010 H997 0.961 . S
C1010 H998 0.959 . S
C1010 C1008 1.561 . S
C1011 C1008 1.526 1_545 S
C1011 C1012 1.396 . S
C1011 C1016 1.390 . S
C1012 C1006 1.465 1_544 S
C1012 C1011 1.396 . S
C1012 C1013 1.399 . S
C1013 H999 0.929 . S
C1013 C1012 1.399 . S
C1013 C1014 1.385 . S
C1014 H1000 0.931 . S
C1014 C1013 1.385 . S
C1014 C1015 1.389 . S
C1015 C1014 1.389 . S
C1015 C1016 1.387 . S
C1016 H1001 0.930 . S
C1016 C1011 1.390 . S
C1016 C1015 1.387 . S
H1017 C1029 0.930 . S
H1018 C1031 0.930 . S
H1019 C1032 0.930 . S
H1020 C1036 0.959 . S
H1021 C1036 0.959 . S
H1022 C1036 0.961 . S
H1023 C1037 0.960 . S
H1024 C1037 0.961 . S
H1025 C1037 0.959 . S
H1026 C1040 0.929 1_554 S
H1027 C1041 0.931 . S
H1028 C1043 0.930 . S
C1029 H1017 0.930 . S
C1029 C1030 1.399 . S
C1029 C1034 1.399 . S
C1030 C1029 1.399 . S
C1030 C1031 1.376 . S
C1031 H1018 0.930 . S
C1031 C1030 1.376 . S
C1031 C1032 1.388 1_655 S
C1032 H1019 0.930 . S
C1032 C1031 1.388 1_455 S
C1032 C1033 1.390 . S
C1033 C1032 1.390 . S
C1033 C1034 1.394 1_455 S
C1033 C1039 1.465 1_554 S
C1034 C1029 1.399 . S
C1034 C1033 1.394 1_655 S
C1034 C1035 1.516 1_554 S
C1035 C1034 1.516 1_556 S
C1035 C1036 1.502 . S
C1035 C1037 1.561 . S
C1035 C1038 1.526 1_655 S
C1036 H1020 0.959 . S
C1036 H1021 0.959 . S
C1036 H1022 0.961 . S
C1036 C1035 1.502 . S
C1037 H1023 0.960 . S
C1037 H1024 0.961 . S
C1037 H1025 0.959 . S
C1037 C1035 1.561 . S
C1038 C1035 1.526 1_455 S
C1038 C1039 1.396 . S
C1038 C1043 1.390 . S
C1039 C1033 1.465 1_556 S
C1039 C1038 1.396 . S
C1039 C1040 1.399 . S
C1040 H1026 0.929 1_556 S
C1040 C1039 1.399 . S
C1040 C1041 1.385 . S
C1041 H1027 0.931 . S
C1041 C1040 1.385 . S
C1041 C1042 1.389 . S
C1042 C1041 1.389 . S
C1042 C1043 1.387 . S
C1043 H1028 0.930 . S
C1043 C1038 1.390 . S
C1043 C1042 1.387 . S
H1044 C1056 0.930 . S
H1045 C1058 0.930 . S
H1046 C1059 0.930 . S
H1047 C1063 0.959 1_556 S
H1048 C1063 0.959 . S
H1049 C1063 0.961 1_556 S
H1050 C1064 0.960 . S
H1051 C1064 0.961 . S
H1052 C1064 0.959 . S
H1053 C1067 0.929 . S
H1054 C1068 0.931 . S
H1055 C1070 0.930 . S
C1056 H1044 0.930 . S
C1056 C1057 1.399 . S
C1056 C1061 1.399 . S
C1057 C1056 1.399 . S
C1057 C1058 1.376 . S
C1058 H1045 0.930 . S
C1058 C1057 1.376 . S
C1058 C1059 1.388 . S
C1059 H1046 0.930 . S
C1059 C1058 1.388 . S
C1059 C1060 1.390 . S
C1060 C1059 1.390 . S
C1060 C1061 1.394 . S
C1060 C1066 1.465 1_556 S
C1061 C1056 1.399 . S
C1061 C1060 1.394 . S
C1061 C1062 1.516 1_556 S
C1062 C1061 1.516 1_554 S
C1062 C1063 1.502 . S
C1062 C1064 1.561 . S
C1062 C1065 1.526 . S
C1063 H1047 0.959 1_554 S
C1063 H1048 0.959 . S
C1063 H1049 0.961 1_554 S
C1063 C1062 1.502 . S
C1064 H1050 0.960 . S
C1064 H1051 0.961 . S
C1064 H1052 0.959 . S
C1064 C1062 1.561 . S
C1065 C1062 1.526 . S
C1065 C1066 1.396 . S
C1065 C1070 1.390 . S
C1066 C1060 1.465 1_554 S
C1066 C1065 1.396 . S
C1066 C1067 1.399 . S
C1067 H1053 0.929 . S
C1067 C1066 1.399 . S
C1067 C1068 1.385 . S
C1068 H1054 0.931 . S
C1068 C1067 1.385 . S
C1068 C1069 1.389 . S
C1069 C1068 1.389 . S
C1069 C1070 1.387 . S
C1070 H1055 0.930 . S
C1070 C1065 1.390 . S
C1070 C1069 1.387 . S
H1071 C1083 0.930 . S
H1072 C1085 0.930 . S
H1073 C1086 0.930 . S
H1074 C1090 0.959 . S
H1075 C1090 0.959 . S
H1076 C1090 0.961 . S
H1077 C1091 0.947 1_556 S
H1078 C1091 0.968 1_545 S
H1079 C1091 0.970 . S
H1080 C1094 0.929 1_565 S
H1081 C1095 0.931 . S
H1082 C1097 0.930 . S
C1083 H1071 0.930 . S
C1083 C1084 1.399 . S
C1083 C1088 1.399 . S
C1084 C1083 1.399 . S
C1084 C1085 1.376 . S
C1085 H1072 0.930 . S
C1085 C1084 1.376 . S
C1085 C1086 1.388 . S
C1086 H1073 0.930 . S
C1086 C1085 1.388 . S
C1086 C1087 1.390 . S
C1087 C1086 1.390 . S
C1087 C1088 1.394 . S
C1087 C1093 1.443 1_566 S
C1088 C1083 1.399 . S
C1088 C1087 1.394 . S
C1088 C1089 1.516 1_565 S
C1089 C1088 1.516 1_545 S
C1089 C1090 1.502 . S
C1089 C1091 1.557 1_546 S
C1089 C1092 1.526 1_556 S
C1090 H1074 0.959 . S
C1090 H1075 0.959 . S
C1090 H1076 0.961 . S
C1090 C1089 1.502 . S
C1091 H1077 0.947 1_554 S
C1091 H1078 0.968 1_565 S
C1091 H1079 0.970 . S
C1091 C1089 1.557 1_564 S
C1092 C1089 1.526 1_554 S
C1092 C1093 1.436 . S
C1092 C1097 1.390 . S
C1093 C1087 1.443 1_544 S
C1093 C1092 1.436 . S
C1093 C1094 1.388 . S
C1094 H1080 0.929 1_545 S
C1094 C1093 1.388 . S
C1094 C1095 1.385 . S
C1095 H1081 0.931 . S
C1095 C1094 1.385 . S
C1095 C1096 1.389 . S
C1096 C1095 1.389 . S
C1096 C1097 1.387 . S
C1097 H1082 0.930 . S
C1097 C1092 1.390 . S
C1097 C1096 1.387 . S
H1098 C1110 0.930 . S
H1099 C1112 0.930 . S
H1100 C1113 0.930 . S
H1101 C1117 0.959 . S
H1102 C1117 1.033 . S
H1103 C1117 0.961 1_556 S
H1104 C1118 0.960 . S
H1105 C1118 0.961 . S
H1106 C1118 0.959 . S
H1107 C1121 0.929 . S
H1108 C1122 0.931 . S
H1109 C1124 0.930 . S
C1110 H1098 0.930 . S
C1110 C1111 1.399 . S
C1110 C1115 1.399 . S
C1111 C1110 1.399 . S
C1111 C1112 1.376 . S
C1112 H1099 0.930 . S
C1112 C1111 1.376 . S
C1112 C1113 1.388 . S
C1113 H1100 0.930 . S
C1113 C1112 1.388 . S
C1113 C1114 1.390 . S
C1114 C1113 1.390 . S
C1114 C1115 1.394 . S
C1114 C1120 1.465 1_456 S
C1115 C1110 1.399 . S
C1115 C1114 1.394 . S
C1115 C1116 1.516 1_455 S
C1116 C1115 1.516 1_655 S
C1116 C1117 1.502 1_656 S
C1116 C1118 1.561 . S
C1116 C1119 1.526 1_556 S
C1117 H1101 0.959 . S
C1117 H1102 1.033 . S
C1117 H1103 0.961 1_554 S
C1117 C1116 1.502 1_454 S
C1118 H1104 0.960 . S
C1118 H1105 0.961 . S
C1118 H1106 0.959 . S
C1118 C1116 1.561 . S
C1119 C1116 1.526 1_554 S
C1119 C1120 1.396 . S
C1119 C1124 1.390 . S
C1120 C1114 1.465 1_654 S
C1120 C1119 1.396 . S
C1120 C1121 1.399 . S
C1121 H1107 0.929 . S
C1121 C1120 1.399 . S
C1121 C1122 1.385 . S
C1122 H1108 0.931 . S
C1122 C1121 1.385 . S
C1122 C1123 1.389 . S
C1123 C1122 1.389 . S
C1123 C1124 1.387 . S
C1124 H1109 0.930 . S
C1124 C1119 1.390 . S
C1124 C1123 1.387 . S
H1125 C1137 0.930 . S
H1126 C1139 0.930 . S
H1127 C1140 0.930 . S
H1128 C1144 0.959 1_554 S
H1129 C1144 0.959 . S
H1130 C1144 0.961 1_554 S
H1131 C1145 0.960 . S
H1132 C1145 0.961 . S
H1133 C1145 0.959 . S
H1134 C1148 0.929 . S
H1135 C1149 0.931 . S
H1136 C1151 0.930 . S
C1137 H1125 0.930 . S
C1137 C1138 1.399 . S
C1137 C1142 1.399 . S
C1138 C1137 1.399 . S
C1138 C1139 1.376 . S
C1139 H1126 0.930 . S
C1139 C1138 1.376 . S
C1139 C1140 1.388 . S
C1140 H1127 0.930 . S
C1140 C1139 1.388 . S
C1140 C1141 1.390 . S
C1141 C1140 1.390 . S
C1141 C1142 1.394 . S
C1141 C1147 1.465 1_554 S
C1142 C1137 1.399 . S
C1142 C1141 1.394 . S
C1142 C1143 1.516 1_554 S
C1143 C1142 1.516 1_556 S
C1143 C1144 1.502 . S
C1143 C1145 1.561 . S
C1143 C1146 1.526 . S
C1144 H1128 0.959 1_556 S
C1144 H1129 0.959 . S
C1144 H1130 0.961 1_556 S
C1144 C1143 1.502 . S
C1145 H1131 0.960 . S
C1145 H1132 0.961 . S
C1145 H1133 0.959 . S
C1145 C1143 1.561 . S
C1146 C1143 1.526 . S
C1146 C1147 1.396 . S
C1146 C1151 1.390 . S
C1147 C1141 1.465 1_556 S
C1147 C1146 1.396 . S
C1147 C1148 1.399 . S
C1148 H1134 0.929 . S
C1148 C1147 1.399 . S
C1148 C1149 1.385 . S
C1149 H1135 0.931 . S
C1149 C1148 1.385 . S
C1149 C1150 1.389 . S
C1150 C1149 1.389 . S
C1150 C1151 1.387 . S
C1151 H1136 0.930 . S
C1151 C1146 1.390 . S
C1151 C1150 1.387 . S
H1152 C1164 0.930 . S
H1153 C1166 0.930 . S
H1154 C1167 0.930 . S
H1155 C1171 0.959 . S
H1156 C1171 0.959 . S
H1157 C1171 0.961 . S
H1158 C1172 0.960 . S
H1159 C1172 0.961 . S
H1160 C1172 0.959 . S
H1161 C1175 0.929 . S
H1162 C1176 0.931 . S
H1163 C1178 0.930 . S
C1164 H1152 0.930 . S
C1164 C1165 1.399 . S
C1164 C1169 1.399 . S
C1165 C1164 1.399 . S
C1165 C1166 1.376 . S
C1166 H1153 0.930 . S
C1166 C1165 1.376 . S
C1166 C1167 1.388 . S
C1167 H1154 0.930 . S
C1167 C1166 1.388 . S
C1167 C1168 1.390 . S
C1168 C1167 1.390 . S
C1168 C1169 1.394 . S
C1168 C1174 1.465 . S
C1169 C1164 1.399 . S
C1169 C1168 1.394 . S
C1169 C1170 1.516 . S
C1170 C1169 1.516 . S
C1170 C1171 1.502 . S
C1170 C1172 1.561 . S
C1170 C1173 1.526 . S
C1171 H1155 0.959 . S
C1171 H1156 0.959 . S
C1171 H1157 0.961 . S
C1171 C1170 1.502 . S
C1172 H1158 0.960 . S
C1172 H1159 0.961 . S
C1172 H1160 0.959 . S
C1172 C1170 1.561 . S
C1173 C1170 1.526 . S
C1173 C1174 1.396 . S
C1173 C1178 1.390 . S
C1174 C1168 1.465 . S
C1174 C1173 1.396 . S
C1174 C1175 1.399 . S
C1175 H1161 0.929 . S
C1175 C1174 1.399 . S
C1175 C1176 1.385 . S
C1176 H1162 0.931 . S
C1176 C1175 1.385 . S
C1176 C1177 1.389 . S
C1177 C1176 1.389 . S
C1177 C1178 1.387 . S
C1178 H1163 0.930 . S
C1178 C1173 1.390 . S
C1178 C1177 1.387 . S
H1179 C1191 0.930 . S
H1180 C1193 0.930 . S
H1181 C1194 0.930 . S
H1182 C1198 0.959 . S
H1183 C1198 0.959 . S
H1184 C1198 0.961 . S
H1185 C1199 0.960 . S
H1186 C1199 0.961 . S
H1187 C1199 0.959 . S
H1188 C1202 0.929 . S
H1189 C1203 0.931 . S
H1190 C1205 0.930 . S
C1191 H1179 0.930 . S
C1191 C1192 1.399 . S
C1191 C1196 1.399 . S
C1192 C1191 1.399 . S
C1192 C1193 1.376 . S
C1193 H1180 0.930 . S
C1193 C1192 1.376 . S
C1193 C1194 1.388 . S
C1194 H1181 0.930 . S
C1194 C1193 1.388 . S
C1194 C1195 1.390 . S
C1195 C1194 1.390 . S
C1195 C1196 1.394 . S
C1195 C1201 1.465 . S
C1196 C1191 1.399 . S
C1196 C1195 1.394 . S
C1196 C1197 1.516 . S
C1197 C1196 1.516 . S
C1197 C1198 1.502 . S
C1197 C1199 1.561 . S
C1197 C1200 1.526 . S
C1198 H1182 0.959 . S
C1198 H1183 0.959 . S
C1198 H1184 0.961 . S
C1198 C1197 1.502 . S
C1199 H1185 0.960 . S
C1199 H1186 0.961 . S
C1199 H1187 0.959 . S
C1199 C1197 1.561 . S
C1200 C1197 1.526 . S
C1200 C1201 1.396 . S
C1200 C1205 1.390 . S
C1201 C1195 1.465 . S
C1201 C1200 1.396 . S
C1201 C1202 1.399 . S
C1202 H1188 0.929 . S
C1202 C1201 1.399 . S
C1202 C1203 1.385 . S
C1203 H1189 0.931 . S
C1203 C1202 1.385 . S
C1203 C1204 1.389 . S
C1204 C1203 1.389 . S
C1204 C1205 1.387 . S
C1205 H1190 0.930 . S
C1205 C1200 1.390 . S
C1205 C1204 1.387 . S
H1206 C1218 0.930 . S
H1207 C1220 0.930 . S
H1208 C1221 0.930 . S
H1209 C1225 0.959 . S
H1210 C1225 0.959 . S
H1211 C1225 0.961 . S
H1212 C1226 0.960 . S
H1213 C1226 0.961 . S
H1214 C1226 0.959 . S
H1215 C1229 0.929 . S
H1216 C1230 0.931 . S
H1217 C1232 0.930 . S
C1218 H1206 0.930 . S
C1218 C1219 1.399 . S
C1218 C1223 1.399 . S
C1219 C1218 1.399 . S
C1219 C1220 1.376 . S
C1220 H1207 0.930 . S
C1220 C1219 1.376 . S
C1220 C1221 1.388 . S
C1221 H1208 0.930 . S
C1221 C1220 1.388 . S
C1221 C1222 1.390 . S
C1222 C1221 1.390 . S
C1222 C1223 1.394 . S
C1222 C1228 1.465 . S
C1223 C1218 1.399 . S
C1223 C1222 1.394 . S
C1223 C1224 1.516 . S
C1224 C1223 1.516 . S
C1224 C1225 1.502 . S
C1224 C1226 1.561 . S
C1224 C1227 1.526 . S
C1225 H1209 0.959 . S
C1225 H1210 0.959 . S
C1225 H1211 0.961 . S
C1225 C1224 1.502 . S
C1226 H1212 0.960 . S
C1226 H1213 0.961 . S
C1226 H1214 0.959 . S
C1226 C1224 1.561 . S
C1227 C1224 1.526 . S
C1227 C1228 1.396 . S
C1227 C1232 1.390 . S
C1228 C1222 1.465 . S
C1228 C1227 1.396 . S
C1228 C1229 1.399 . S
C1229 H1215 0.929 . S
C1229 C1228 1.399 . S
C1229 C1230 1.385 . S
C1230 H1216 0.931 . S
C1230 C1229 1.385 . S
C1230 C1231 1.389 . S
C1231 C1230 1.389 . S
C1231 C1232 1.387 . S
C1232 H1217 0.930 . S
C1232 C1227 1.390 . S
C1232 C1231 1.387 . S
H1233 C1245 0.930 . S
H1234 C1247 0.930 . S
H1235 C1248 0.930 . S
H1236 C1252 0.959 . S
H1237 C1252 0.959 . S
H1238 C1252 0.961 . S
H1239 C1253 0.960 . S
H1240 C1253 0.961 . S
H1241 C1253 0.959 . S
H1242 C1256 0.929 . S
H1243 C1257 0.931 . S
H1244 C1259 0.930 . S
C1245 H1233 0.930 . S
C1245 C1246 1.399 . S
C1245 C1250 1.399 . S
C1246 C1245 1.399 . S
C1246 C1247 1.376 . S
C1247 H1234 0.930 . S
C1247 C1246 1.376 . S
C1247 C1248 1.388 . S
C1248 H1235 0.930 . S
C1248 C1247 1.388 . S
C1248 C1249 1.390 . S
C1249 C1248 1.390 . S
C1249 C1250 1.394 . S
C1249 C1255 1.465 . S
C1250 C1245 1.399 . S
C1250 C1249 1.394 . S
C1250 C1251 1.516 . S
C1251 C1250 1.516 . S
C1251 C1252 1.502 . S
C1251 C1253 1.561 . S
C1251 C1254 1.526 . S
C1252 H1236 0.959 . S
C1252 H1237 0.959 . S
C1252 H1238 0.961 . S
C1252 C1251 1.502 . S
C1253 H1239 0.960 . S
C1253 H1240 0.961 . S
C1253 H1241 0.959 . S
C1253 C1251 1.561 . S
C1254 C1251 1.526 . S
C1254 C1255 1.396 . S
C1254 C1259 1.390 . S
C1255 C1249 1.465 . S
C1255 C1254 1.396 . S
C1255 C1256 1.399 . S
C1256 H1242 0.929 . S
C1256 C1255 1.399 . S
C1256 C1257 1.385 . S
C1257 H1243 0.931 . S
C1257 C1256 1.385 . S
C1257 C1258 1.389 . S
C1258 C1257 1.389 . S
C1258 C1259 1.387 . S
C1259 H1244 0.930 . S
C1259 C1254 1.390 . S
C1259 C1258 1.387 . S
H1260 C1272 0.930 . S
H1261 C1274 0.930 . S
H1262 C1275 0.930 . S
H1263 C1279 0.959 . S
H1264 C1279 0.959 . S
H1265 C1279 0.961 . S
H1266 C1280 0.960 . S
H1267 C1280 0.961 . S
H1268 C1280 0.959 . S
H1269 C1283 0.929 . S
H1270 C1284 0.931 . S
H1271 C1286 0.930 . S
C1272 H1260 0.930 . S
C1272 C1273 1.399 . S
C1272 C1277 1.399 . S
C1273 C1272 1.399 . S
C1273 C1274 1.376 . S
C1274 H1261 0.930 . S
C1274 C1273 1.376 . S
C1274 C1275 1.388 . S
C1275 H1262 0.930 . S
C1275 C1274 1.388 . S
C1275 C1276 1.390 . S
C1276 C1275 1.390 . S
C1276 C1277 1.394 . S
C1276 C1282 1.465 . S
C1277 C1272 1.399 . S
C1277 C1276 1.394 . S
C1277 C1278 1.516 . S
C1278 C1277 1.516 . S
C1278 C1279 1.502 . S
C1278 C1280 1.561 . S
C1278 C1281 1.526 . S
C1279 H1263 0.959 . S
C1279 H1264 0.959 . S
C1279 H1265 0.961 . S
C1279 C1278 1.502 . S
C1280 H1266 0.960 . S
C1280 H1267 0.961 . S
C1280 H1268 0.959 . S
C1280 C1278 1.561 . S
C1281 C1278 1.526 . S
C1281 C1282 1.396 . S
C1281 C1286 1.390 . S
C1282 C1276 1.465 . S
C1282 C1281 1.396 . S
C1282 C1283 1.399 . S
C1283 H1269 0.929 . S
C1283 C1282 1.399 . S
C1283 C1284 1.385 . S
C1284 H1270 0.931 . S
C1284 C1283 1.385 . S
C1284 C1285 1.389 . S
C1285 C1284 1.389 . S
C1285 C1286 1.387 . S
C1286 H1271 0.930 . S
C1286 C1281 1.390 . S
C1286 C1285 1.387 . S
H1287 C1299 0.930 . S
H1288 C1301 0.930 . S
H1289 C1302 0.930 . S
H1290 C1306 0.959 . S
H1291 C1306 0.959 . S
H1292 C1306 0.961 . S
H1293 C1307 0.960 . S
H1294 C1307 0.961 . S
H1295 C1307 0.959 . S
H1296 C1310 0.929 . S
H1297 C1311 0.931 . S
H1298 C1313 0.930 . S
C1299 H1287 0.930 . S
C1299 C1300 1.399 . S
C1299 C1304 1.399 . S
C1300 C1299 1.399 . S
C1300 C1301 1.376 . S
C1301 H1288 0.930 . S
C1301 C1300 1.376 . S
C1301 C1302 1.388 . S
C1302 H1289 0.930 . S
C1302 C1301 1.388 . S
C1302 C1303 1.390 . S
C1303 C1302 1.390 . S
C1303 C1304 1.394 . S
C1303 C1309 1.465 . S
C1304 C1299 1.399 . S
C1304 C1303 1.394 . S
C1304 C1305 1.516 . S
C1305 C1304 1.516 . S
C1305 C1306 1.502 . S
C1305 C1307 1.561 . S
C1305 C1308 1.526 . S
C1306 H1290 0.959 . S
C1306 H1291 0.959 . S
C1306 H1292 0.961 . S
C1306 C1305 1.502 . S
C1307 H1293 0.960 . S
C1307 H1294 0.961 . S
C1307 H1295 0.959 . S
C1307 C1305 1.561 . S
C1308 C1305 1.526 . S
C1308 C1309 1.396 . S
C1308 C1313 1.390 . S
C1309 C1303 1.465 . S
C1309 C1308 1.396 . S
C1309 C1310 1.399 . S
C1310 H1296 0.929 . S
C1310 C1309 1.399 . S
C1310 C1311 1.385 . S
C1311 H1297 0.931 . S
C1311 C1310 1.385 . S
C1311 C1312 1.389 . S
C1312 C1311 1.389 . S
C1312 C1313 1.387 . S
C1313 H1298 0.930 . S
C1313 C1308 1.390 . S
C1313 C1312 1.387 . S
H1314 C1326 0.930 . S
H1315 C1328 0.930 . S
H1316 C1329 0.930 . S
H1317 C1333 0.959 . S
H1318 C1333 0.959 . S
H1319 C1333 0.961 . S
H1320 C1334 0.960 . S
H1321 C1334 0.961 . S
H1322 C1334 0.959 . S
H1323 C1337 0.929 . S
H1324 C1338 0.931 . S
H1325 C1340 0.930 . S
C1326 H1314 0.930 . S
C1326 C1327 1.399 . S
C1326 C1331 1.399 . S
C1327 C1326 1.399 . S
C1327 C1328 1.376 . S
C1328 H1315 0.930 . S
C1328 C1327 1.376 . S
C1328 C1329 1.388 . S
C1329 H1316 0.930 . S
C1329 C1328 1.388 . S
C1329 C1330 1.390 . S
C1330 C1329 1.390 . S
C1330 C1331 1.394 . S
C1330 C1336 1.465 . S
C1331 C1326 1.399 . S
C1331 C1330 1.394 . S
C1331 C1332 1.516 . S
C1332 C1331 1.516 . S
C1332 C1333 1.502 . S
C1332 C1334 1.561 . S
C1332 C1335 1.526 . S
C1333 H1317 0.959 . S
C1333 H1318 0.959 . S
C1333 H1319 0.961 . S
C1333 C1332 1.502 . S
C1334 H1320 0.960 . S
C1334 H1321 0.961 . S
C1334 H1322 0.959 . S
C1334 C1332 1.561 . S
C1335 C1332 1.526 . S
C1335 C1336 1.396 . S
C1335 C1340 1.390 . S
C1336 C1330 1.465 . S
C1336 C1335 1.396 . S
C1336 C1337 1.399 . S
C1337 H1323 0.929 . S
C1337 C1336 1.399 . S
C1337 C1338 1.385 . S
C1338 H1324 0.931 . S
C1338 C1337 1.385 . S
C1338 C1339 1.389 . S
C1339 C1338 1.389 . S
C1339 C1340 1.387 . S
C1340 H1325 0.930 . S
C1340 C1335 1.390 . S
C1340 C1339 1.387 . S
H1341 C1353 0.930 . S
H1342 C1355 0.930 . S
H1343 C1356 0.930 . S
H1344 C1360 0.959 . S
H1345 C1360 0.959 . S
H1346 C1360 0.961 . S
H1347 C1361 0.960 . S
H1348 C1361 0.961 . S
H1349 C1361 0.959 . S
H1350 C1364 0.929 . S
H1351 C1365 0.931 . S
H1352 C1367 0.930 . S
C1353 H1341 0.930 . S
C1353 C1354 1.399 . S
C1353 C1358 1.399 . S
C1354 C1353 1.399 . S
C1354 C1355 1.376 . S
C1355 H1342 0.930 . S
C1355 C1354 1.376 . S
C1355 C1356 1.388 . S
C1356 H1343 0.930 . S
C1356 C1355 1.388 . S
C1356 C1357 1.390 . S
C1357 C1356 1.390 . S
C1357 C1358 1.394 . S
C1357 C1363 1.465 . S
C1358 C1353 1.399 . S
C1358 C1357 1.394 . S
C1358 C1359 1.516 . S
C1359 C1358 1.516 . S
C1359 C1360 1.502 . S
C1359 C1361 1.561 . S
C1359 C1362 1.526 . S
C1360 H1344 0.959 . S
C1360 H1345 0.959 . S
C1360 H1346 0.961 . S
C1360 C1359 1.502 . S
C1361 H1347 0.960 . S
C1361 H1348 0.961 . S
C1361 H1349 0.959 . S
C1361 C1359 1.561 . S
C1362 C1359 1.526 . S
C1362 C1363 1.396 . S
C1362 C1367 1.390 . S
C1363 C1357 1.465 . S
C1363 C1362 1.396 . S
C1363 C1364 1.399 . S
C1364 H1350 0.929 . S
C1364 C1363 1.399 . S
C1364 C1365 1.385 . S
C1365 H1351 0.931 . S
C1365 C1364 1.385 . S
C1365 C1366 1.389 . S
C1366 C1365 1.389 . S
C1366 C1367 1.387 . S
C1367 H1352 0.930 . S
C1367 C1362 1.390 . S
C1367 C1366 1.387 . S
H1368 C1380 0.930 . S
H1369 C1382 0.930 . S
H1370 C1383 0.930 . S
H1371 C1387 0.959 . S
H1372 C1387 0.959 . S
H1373 C1387 0.961 . S
H1374 C1388 0.960 . S
H1375 C1388 0.961 . S
H1376 C1388 0.959 . S
H1377 C1391 0.929 . S
H1378 C1392 0.931 . S
H1379 C1394 0.930 . S
C1380 H1368 0.930 . S
C1380 C1381 1.399 . S
C1380 C1385 1.399 . S
C1381 C1380 1.399 . S
C1381 C1382 1.376 . S
C1382 H1369 0.930 . S
C1382 C1381 1.376 . S
C1382 C1383 1.388 . S
C1383 H1370 0.930 . S
C1383 C1382 1.388 . S
C1383 C1384 1.390 . S
C1384 C1383 1.390 . S
C1384 C1385 1.394 . S
C1384 C1390 1.465 . S
C1385 C1380 1.399 . S
C1385 C1384 1.394 . S
C1385 C1386 1.516 . S
C1386 C1385 1.516 . S
C1386 C1387 1.502 . S
C1386 C1388 1.561 . S
C1386 C1389 1.526 . S
C1387 H1371 0.959 . S
C1387 H1372 0.959 . S
C1387 H1373 0.961 . S
C1387 C1386 1.502 . S
C1388 H1374 0.960 . S
C1388 H1375 0.961 . S
C1388 H1376 0.959 . S
C1388 C1386 1.561 . S
C1389 C1386 1.526 . S
C1389 C1390 1.396 . S
C1389 C1394 1.390 . S
C1390 C1384 1.465 . S
C1390 C1389 1.396 . S
C1390 C1391 1.399 . S
C1391 H1377 0.929 . S
C1391 C1390 1.399 . S
C1391 C1392 1.385 . S
C1392 H1378 0.931 . S
C1392 C1391 1.385 . S
C1392 C1393 1.389 . S
C1393 C1392 1.389 . S
C1393 C1394 1.387 . S
C1394 H1379 0.930 . S
C1394 C1389 1.390 . S
C1394 C1393 1.387 . S
H1395 C1407 0.930 . S
H1396 C1409 0.930 . S
H1397 C1410 0.930 . S
H1398 C1414 0.959 . S
H1399 C1414 0.959 . S
H1400 C1414 0.961 . S
H1401 C1415 0.960 . S
H1402 C1415 0.961 . S
H1403 C1415 0.959 . S
H1404 C1418 0.929 . S
H1405 C1419 0.931 . S
H1406 C1421 0.930 . S
C1407 H1395 0.930 . S
C1407 C1408 1.399 . S
C1407 C1412 1.399 . S
C1408 C1407 1.399 . S
C1408 C1409 1.376 . S
C1409 H1396 0.930 . S
C1409 C1408 1.376 . S
C1409 C1410 1.388 . S
C1410 H1397 0.930 . S
C1410 C1409 1.388 . S
C1410 C1411 1.390 . S
C1411 C1410 1.390 . S
C1411 C1412 1.394 . S
C1411 C1417 1.465 . S
C1412 C1407 1.399 . S
C1412 C1411 1.394 . S
C1412 C1413 1.516 . S
C1413 C1412 1.516 . S
C1413 C1414 1.502 . S
C1413 C1415 1.561 . S
C1413 C1416 1.526 . S
C1414 H1398 0.959 . S
C1414 H1399 0.959 . S
C1414 H1400 0.961 . S
C1414 C1413 1.502 . S
C1415 H1401 0.960 . S
C1415 H1402 0.961 . S
C1415 H1403 0.959 . S
C1415 C1413 1.561 . S
C1416 C1413 1.526 . S
C1416 C1417 1.396 . S
C1416 C1421 1.390 . S
C1417 C1411 1.465 . S
C1417 C1416 1.396 . S
C1417 C1418 1.399 . S
C1418 H1404 0.929 . S
C1418 C1417 1.399 . S
C1418 C1419 1.385 . S
C1419 H1405 0.931 . S
C1419 C1418 1.385 . S
C1419 C1420 1.389 . S
C1420 C1419 1.389 . S
C1420 C1421 1.387 . S
C1421 H1406 0.930 . S
C1421 C1416 1.390 . S
C1421 C1420 1.387 . S
H1422 C1434 0.930 . S
H1423 C1436 0.930 . S
H1424 C1437 0.930 . S
H1425 C1441 0.959 . S
H1426 C1441 0.959 . S
H1427 C1441 0.961 . S
H1428 C1442 0.960 . S
H1429 C1442 0.961 . S
H1430 C1442 0.959 . S
H1431 C1445 0.929 . S
H1432 C1446 0.931 . S
H1433 C1448 0.930 . S
C1434 H1422 0.930 . S
C1434 C1435 1.399 . S
C1434 C1439 1.399 . S
C1435 C1434 1.399 . S
C1435 C1436 1.376 . S
C1436 H1423 0.930 . S
C1436 C1435 1.376 . S
C1436 C1437 1.388 . S
C1437 H1424 0.930 . S
C1437 C1436 1.388 . S
C1437 C1438 1.390 . S
C1438 C1437 1.390 . S
C1438 C1439 1.394 . S
C1438 C1444 1.465 . S
C1439 C1434 1.399 . S
C1439 C1438 1.394 . S
C1439 C1440 1.516 . S
C1440 C1439 1.516 . S
C1440 C1441 1.502 . S
C1440 C1442 1.561 . S
C1440 C1443 1.526 . S
C1441 H1425 0.959 . S
C1441 H1426 0.959 . S
C1441 H1427 0.961 . S
C1441 C1440 1.502 . S
C1442 H1428 0.960 . S
C1442 H1429 0.961 . S
C1442 H1430 0.959 . S
C1442 C1440 1.561 . S
C1443 C1440 1.526 . S
C1443 C1444 1.396 . S
C1443 C1448 1.390 . S
C1444 C1438 1.465 . S
C1444 C1443 1.396 . S
C1444 C1445 1.399 . S
C1445 H1431 0.929 . S
C1445 C1444 1.399 . S
C1445 C1446 1.385 . S
C1446 H1432 0.931 . S
C1446 C1445 1.385 . S
C1446 C1447 1.389 . S
C1447 C1446 1.389 . S
C1447 C1448 1.387 . S
C1448 H1433 0.930 . S
C1448 C1443 1.390 . S
C1448 C1447 1.387 . S
H1449 C1461 0.930 . S
H1450 C1463 0.930 . S
H1451 C1464 0.930 . S
H1452 C1468 0.959 . S
H1453 C1468 0.959 . S
H1454 C1468 0.961 . S
H1455 C1469 0.960 . S
H1456 C1469 0.961 . S
H1457 C1469 0.959 . S
H1458 C1472 0.929 . S
H1459 C1473 0.931 . S
H1460 C1475 0.930 . S
C1461 H1449 0.930 . S
C1461 C1462 1.399 . S
C1461 C1466 1.399 . S
C1462 C1461 1.399 . S
C1462 C1463 1.376 . S
C1463 H1450 0.930 . S
C1463 C1462 1.376 . S
C1463 C1464 1.388 . S
C1464 H1451 0.930 . S
C1464 C1463 1.388 . S
C1464 C1465 1.390 . S
C1465 C1464 1.390 . S
C1465 C1466 1.394 . S
C1465 C1471 1.465 . S
C1466 C1461 1.399 . S
C1466 C1465 1.394 . S
C1466 C1467 1.516 . S
C1467 C1466 1.516 . S
C1467 C1468 1.502 . S
C1467 C1469 1.561 . S
C1467 C1470 1.526 . S
C1468 H1452 0.959 . S
C1468 H1453 0.959 . S
C1468 H1454 0.961 . S
C1468 C1467 1.502 . S
C1469 H1455 0.960 . S
C1469 H1456 0.961 . S
C1469 H1457 0.959 . S
C1469 C1467 1.561 . S
C1470 C1467 1.526 . S
C1470 C1471 1.396 . S
C1470 C1475 1.390 . S
C1471 C1465 1.465 . S
C1471 C1470 1.396 . S
C1471 C1472 1.399 . S
C1472 H1458 0.929 . S
C1472 C1471 1.399 . S
C1472 C1473 1.385 . S
C1473 H1459 0.931 . S
C1473 C1472 1.385 . S
C1473 C1474 1.389 . S
C1474 C1473 1.389 . S
C1474 C1475 1.387 . S
C1475 H1460 0.930 . S
C1475 C1470 1.390 . S
C1475 C1474 1.387 . S
H1476 C1488 0.930 . S
H1477 C1490 0.930 . S
H1478 C1491 0.930 . S
H1479 C1495 0.959 . S
H1480 C1495 0.959 . S
H1481 C1495 0.961 . S
H1482 C1496 0.960 . S
H1483 C1496 0.961 . S
H1484 C1496 0.959 . S
H1485 C1499 0.929 . S
H1486 C1500 0.931 . S
H1487 C1502 0.930 . S
C1488 H1476 0.930 . S
C1488 C1489 1.399 . S
C1488 C1493 1.399 . S
C1489 C1488 1.399 . S
C1489 C1490 1.376 . S
C1490 H1477 0.930 . S
C1490 C1489 1.376 . S
C1490 C1491 1.388 . S
C1491 H1478 0.930 . S
C1491 C1490 1.388 . S
C1491 C1492 1.390 . S
C1492 C1491 1.390 . S
C1492 C1493 1.394 . S
C1492 C1498 1.465 . S
C1493 C1488 1.399 . S
C1493 C1492 1.394 . S
C1493 C1494 1.516 . S
C1494 C1493 1.516 . S
C1494 C1495 1.502 . S
C1494 C1496 1.561 . S
C1494 C1497 1.526 . S
C1495 H1479 0.959 . S
C1495 H1480 0.959 . S
C1495 H1481 0.961 . S
C1495 C1494 1.502 . S
C1496 H1482 0.960 . S
C1496 H1483 0.961 . S
C1496 H1484 0.959 . S
C1496 C1494 1.561 . S
C1497 C1494 1.526 . S
C1497 C1498 1.396 . S
C1497 C1502 1.390 . S
C1498 C1492 1.465 . S
C1498 C1497 1.396 . S
C1498 C1499 1.399 . S
C1499 H1485 0.929 . S
C1499 C1498 1.399 . S
C1499 C1500 1.385 . S
C1500 H1486 0.931 . S
C1500 C1499 1.385 . S
C1500 C1501 1.389 . S
C1501 C1500 1.389 . S
C1501 C1502 1.387 . S
C1502 H1487 0.930 . S
C1502 C1497 1.390 . S
C1502 C1501 1.387 . S
H1503 C1515 0.930 . S
H1504 C1517 0.930 . S
H1505 C1518 0.930 . S
H1506 C1522 0.959 . S
H1507 C1522 0.959 . S
H1508 C1522 0.961 . S
H1509 C1523 0.960 . S
H1510 C1523 0.961 . S
H1511 C1523 0.959 . S
H1512 C1526 0.929 . S
H1513 C1527 0.931 . S
H1514 C1529 0.930 . S
C1515 H1503 0.930 . S
C1515 C1516 1.399 . S
C1515 C1520 1.399 . S
C1516 C1515 1.399 . S
C1516 C1517 1.376 . S
C1517 H1504 0.930 . S
C1517 C1516 1.376 . S
C1517 C1518 1.388 . S
C1518 H1505 0.930 . S
C1518 C1517 1.388 . S
C1518 C1519 1.390 . S
C1519 C1518 1.390 . S
C1519 C1520 1.394 . S
C1519 C1525 1.465 . S
C1520 C1515 1.399 . S
C1520 C1519 1.394 . S
C1520 C1521 1.516 . S
C1521 C1520 1.516 . S
C1521 C1522 1.502 . S
C1521 C1523 1.561 . S
C1521 C1524 1.526 . S
C1522 H1506 0.959 . S
C1522 H1507 0.959 . S
C1522 H1508 0.961 . S
C1522 C1521 1.502 . S
C1523 H1509 0.960 . S
C1523 H1510 0.961 . S
C1523 H1511 0.959 . S
C1523 C1521 1.561 . S
C1524 C1521 1.526 . S
C1524 C1525 1.396 . S
C1524 C1529 1.390 . S
C1525 C1519 1.465 . S
C1525 C1524 1.396 . S
C1525 C1526 1.399 . S
C1526 H1512 0.929 . S
C1526 C1525 1.399 . S
C1526 C1527 1.385 . S
C1527 H1513 0.931 . S
C1527 C1526 1.385 . S
C1527 C1528 1.389 . S
C1528 C1527 1.389 . S
C1528 C1529 1.387 . S
C1529 H1514 0.930 . S
C1529 C1524 1.390 . S
C1529 C1528 1.387 . S
H1530 C1542 0.930 . S
H1531 C1544 0.930 . S
H1532 C1545 0.930 . S
H1533 C1549 0.959 . S
H1534 C1549 0.959 . S
H1535 C1549 0.961 . S
H1536 C1550 0.960 . S
H1537 C1550 0.961 . S
H1538 C1550 0.959 . S
H1539 C1553 0.929 . S
H1540 C1554 0.931 . S
H1541 C1556 0.930 . S
C1542 H1530 0.930 . S
C1542 C1543 1.399 . S
C1542 C1547 1.399 . S
C1543 C1542 1.399 . S
C1543 C1544 1.376 . S
C1544 H1531 0.930 . S
C1544 C1543 1.376 . S
C1544 C1545 1.388 . S
C1545 H1532 0.930 . S
C1545 C1544 1.388 . S
C1545 C1546 1.390 . S
C1546 C1545 1.390 . S
C1546 C1547 1.394 . S
C1546 C1552 1.465 . S
C1547 C1542 1.399 . S
C1547 C1546 1.394 . S
C1547 C1548 1.516 . S
C1548 C1547 1.516 . S
C1548 C1549 1.502 . S
C1548 C1550 1.561 . S
C1548 C1551 1.526 . S
C1549 H1533 0.959 . S
C1549 H1534 0.959 . S
C1549 H1535 0.961 . S
C1549 C1548 1.502 . S
C1550 H1536 0.960 . S
C1550 H1537 0.961 . S
C1550 H1538 0.959 . S
C1550 C1548 1.561 . S
C1551 C1548 1.526 . S
C1551 C1552 1.396 . S
C1551 C1556 1.390 . S
C1552 C1546 1.465 . S
C1552 C1551 1.396 . S
C1552 C1553 1.399 . S
C1553 H1539 0.929 . S
C1553 C1552 1.399 . S
C1553 C1554 1.385 . S
C1554 H1540 0.931 . S
C1554 C1553 1.385 . S
C1554 C1555 1.389 . S
C1555 C1554 1.389 . S
C1555 C1556 1.387 . S
C1556 H1541 0.930 . S
C1556 C1551 1.390 . S
C1556 C1555 1.387 . S
H1557 C1569 0.930 . S
H1558 C1571 0.930 . S
H1559 C1572 0.930 . S
H1560 C1576 0.959 . S
H1561 C1576 0.959 . S
H1562 C1576 0.961 . S
H1563 C1577 0.960 . S
H1564 C1577 0.961 . S
H1565 C1577 0.959 . S
H1566 C1580 0.929 . S
H1567 C1581 0.931 . S
H1568 C1583 0.930 . S
C1569 H1557 0.930 . S
C1569 C1570 1.399 . S
C1569 C1574 1.399 . S
C1570 C1569 1.399 . S
C1570 C1571 1.376 . S
C1571 H1558 0.930 . S
C1571 C1570 1.376 . S
C1571 C1572 1.388 . S
C1572 H1559 0.930 . S
C1572 C1571 1.388 . S
C1572 C1573 1.390 . S
C1573 C1572 1.390 . S
C1573 C1574 1.394 . S
C1573 C1579 1.465 . S
C1574 C1569 1.399 . S
C1574 C1573 1.394 . S
C1574 C1575 1.516 . S
C1575 C1574 1.516 . S
C1575 C1576 1.502 . S
C1575 C1577 1.561 . S
C1575 C1578 1.526 . S
C1576 H1560 0.959 . S
C1576 H1561 0.959 . S
C1576 H1562 0.961 . S
C1576 C1575 1.502 . S
C1577 H1563 0.960 . S
C1577 H1564 0.961 . S
C1577 H1565 0.959 . S
C1577 C1575 1.561 . S
C1578 C1575 1.526 . S
C1578 C1579 1.396 . S
C1578 C1583 1.390 . S
C1579 C1573 1.465 . S
C1579 C1578 1.396 . S
C1579 C1580 1.399 . S
C1580 H1566 0.929 . S
C1580 C1579 1.399 . S
C1580 C1581 1.385 . S
C1581 H1567 0.931 . S
C1581 C1580 1.385 . S
C1581 C1582 1.389 . S
C1582 C1581 1.389 . S
C1582 C1583 1.387 . S
C1583 H1568 0.930 . S
C1583 C1578 1.390 . S
C1583 C1582 1.387 . S
H1584 C1596 0.930 . S
H1585 C1598 0.930 . S
H1586 C1599 0.930 . S
H1587 C1603 0.959 . S
H1588 C1603 0.959 . S
H1589 C1603 0.961 . S
H1590 C1604 0.960 . S
H1591 C1604 0.961 . S
H1592 C1604 0.959 . S
H1593 C1607 0.929 . S
H1594 C1608 0.931 . S
H1595 C1610 0.930 . S
C1596 H1584 0.930 . S
C1596 C1597 1.399 . S
C1596 C1601 1.399 . S
C1597 C1596 1.399 . S
C1597 C1598 1.376 . S
C1598 H1585 0.930 . S
C1598 C1597 1.376 . S
C1598 C1599 1.388 . S
C1599 H1586 0.930 . S
C1599 C1598 1.388 . S
C1599 C1600 1.390 . S
C1600 C1599 1.390 . S
C1600 C1601 1.394 . S
C1600 C1606 1.465 . S
C1601 C1596 1.399 . S
C1601 C1600 1.394 . S
C1601 C1602 1.516 . S
C1602 C1601 1.516 . S
C1602 C1603 1.502 . S
C1602 C1604 1.561 . S
C1602 C1605 1.526 . S
C1603 H1587 0.959 . S
C1603 H1588 0.959 . S
C1603 H1589 0.961 . S
C1603 C1602 1.502 . S
C1604 H1590 0.960 . S
C1604 H1591 0.961 . S
C1604 H1592 0.959 . S
C1604 C1602 1.561 . S
C1605 C1602 1.526 . S
C1605 C1606 1.396 . S
C1605 C1610 1.390 . S
C1606 C1600 1.465 . S
C1606 C1605 1.396 . S
C1606 C1607 1.399 . S
C1607 H1593 0.929 . S
C1607 C1606 1.399 . S
C1607 C1608 1.385 . S
C1608 H1594 0.931 . S
C1608 C1607 1.385 . S
C1608 C1609 1.389 . S
C1609 C1608 1.389 . S
C1609 C1610 1.387 . S
C1610 H1595 0.930 . S
C1610 C1605 1.390 . S
C1610 C1609 1.387 . S
H1611 C1623 0.930 . S
H1612 C1625 0.930 . S
H1613 C1626 0.930 . S
H1614 C1630 0.959 . S
H1615 C1630 0.959 . S
H1616 C1630 0.961 . S
H1617 C1631 0.960 . S
H1618 C1631 0.961 . S
H1619 C1631 0.959 . S
H1620 C1634 0.929 . S
H1621 C1635 0.931 . S
H1622 C1637 0.930 . S
C1623 H1611 0.930 . S
C1623 C1624 1.399 . S
C1623 C1628 1.399 . S
C1624 C1623 1.399 . S
C1624 C1625 1.376 . S
C1625 H1612 0.930 . S
C1625 C1624 1.376 . S
C1625 C1626 1.388 . S
C1626 H1613 0.930 . S
C1626 C1625 1.388 . S
C1626 C1627 1.390 . S
C1627 C1626 1.390 . S
C1627 C1628 1.394 . S
C1627 C1633 1.465 . S
C1628 C1623 1.399 . S
C1628 C1627 1.394 . S
C1628 C1629 1.516 . S
C1629 C1628 1.516 . S
C1629 C1630 1.502 . S
C1629 C1631 1.561 . S
C1629 C1632 1.526 . S
C1630 H1614 0.959 . S
C1630 H1615 0.959 . S
C1630 H1616 0.961 . S
C1630 C1629 1.502 . S
C1631 H1617 0.960 . S
C1631 H1618 0.961 . S
C1631 H1619 0.959 . S
C1631 C1629 1.561 . S
C1632 C1629 1.526 . S
C1632 C1633 1.396 . S
C1632 C1637 1.390 . S
C1633 C1627 1.465 . S
C1633 C1632 1.396 . S
C1633 C1634 1.399 . S
C1634 H1620 0.929 . S
C1634 C1633 1.399 . S
C1634 C1635 1.385 . S
C1635 H1621 0.931 . S
C1635 C1634 1.385 . S
C1635 C1636 1.389 . S
C1636 C1635 1.389 . S
C1636 C1637 1.387 . S
C1637 H1622 0.930 . S
C1637 C1632 1.390 . S
C1637 C1636 1.387 . S
H1638 C1650 0.930 . S
H1639 C1652 0.930 . S
H1640 C1653 0.930 . S
H1641 C1657 0.959 . S
H1642 C1657 0.959 . S
H1643 C1657 0.961 . S
H1644 C1658 0.960 . S
H1645 C1658 0.961 . S
H1646 C1658 0.959 . S
H1647 C1661 0.929 . S
H1648 C1662 0.931 . S
H1649 C1664 0.930 . S
C1650 H1638 0.930 . S
C1650 C1651 1.399 . S
C1650 C1655 1.399 . S
C1651 C1650 1.399 . S
C1651 C1652 1.376 . S
C1652 H1639 0.930 . S
C1652 C1651 1.376 . S
C1652 C1653 1.388 . S
C1653 H1640 0.930 . S
C1653 C1652 1.388 . S
C1653 C1654 1.390 . S
C1654 C1653 1.390 . S
C1654 C1655 1.394 . S
C1654 C1660 1.465 . S
C1655 C1650 1.399 . S
C1655 C1654 1.394 . S
C1655 C1656 1.516 . S
C1656 C1655 1.516 . S
C1656 C1657 1.502 . S
C1656 C1658 1.561 . S
C1656 C1659 1.526 . S
C1657 H1641 0.959 . S
C1657 H1642 0.959 . S
C1657 H1643 0.961 . S
C1657 C1656 1.502 . S
C1658 H1644 0.960 . S
C1658 H1645 0.961 . S
C1658 H1646 0.959 . S
C1658 C1656 1.561 . S
C1659 C1656 1.526 . S
C1659 C1660 1.396 . S
C1659 C1664 1.390 . S
C1660 C1654 1.465 . S
C1660 C1659 1.396 . S
C1660 C1661 1.399 . S
C1661 H1647 0.929 . S
C1661 C1660 1.399 . S
C1661 C1662 1.385 . S
C1662 H1648 0.931 . S
C1662 C1661 1.385 . S
C1662 C1663 1.389 . S
C1663 C1662 1.389 . S
C1663 C1664 1.387 . S
C1664 H1649 0.930 . S
C1664 C1659 1.390 . S
C1664 C1663 1.387 . S
H1665 C1677 0.930 . S
H1666 C1679 0.930 . S
H1667 C1680 0.930 . S
H1668 C1684 0.959 . S
H1669 C1684 0.959 . S
H1670 C1684 0.961 . S
H1671 C1685 0.960 . S
H1672 C1685 0.961 . S
H1673 C1685 0.959 . S
H1674 C1688 0.929 . S
H1675 C1689 0.931 . S
H1676 C1691 0.930 . S
C1677 H1665 0.930 . S
C1677 C1678 1.399 . S
C1677 C1682 1.399 . S
C1678 C1677 1.399 . S
C1678 C1679 1.376 . S
C1679 H1666 0.930 . S
C1679 C1678 1.376 . S
C1679 C1680 1.388 . S
C1680 H1667 0.930 . S
C1680 C1679 1.388 . S
C1680 C1681 1.390 . S
C1681 C1680 1.390 . S
C1681 C1682 1.394 . S
C1681 C1687 1.465 . S
C1682 C1677 1.399 . S
C1682 C1681 1.394 . S
C1682 C1683 1.516 . S
C1683 C1682 1.516 . S
C1683 C1684 1.502 . S
C1683 C1685 1.561 . S
C1683 C1686 1.526 . S
C1684 H1668 0.959 . S
C1684 H1669 0.959 . S
C1684 H1670 0.961 . S
C1684 C1683 1.502 . S
C1685 H1671 0.960 . S
C1685 H1672 0.961 . S
C1685 H1673 0.959 . S
C1685 C1683 1.561 . S
C1686 C1683 1.526 . S
C1686 C1687 1.396 . S
C1686 C1691 1.390 . S
C1687 C1681 1.465 . S
C1687 C1686 1.396 . S
C1687 C1688 1.399 . S
C1688 H1674 0.929 . S
C1688 C1687 1.399 . S
C1688 C1689 1.385 . S
C1689 H1675 0.931 . S
C1689 C1688 1.385 . S
C1689 C1690 1.389 . S
C1690 C1689 1.389 . S
C1690 C1691 1.387 . S
C1691 H1676 0.930 . S
C1691 C1686 1.390 . S
C1691 C1690 1.387 . S
H1692 C1704 0.930 . S
H1693 C1706 0.930 . S
H1694 C1707 0.930 . S
H1695 C1711 0.959 . S
H1696 C1711 0.959 . S
H1697 C1711 0.961 . S
H1698 C1712 0.960 . S
H1699 C1712 0.961 . S
H1700 C1712 0.959 . S
H1701 C1715 0.929 . S
H1702 C1716 0.931 . S
H1703 C1718 0.930 . S
C1704 H1692 0.930 . S
C1704 C1705 1.399 . S
C1704 C1709 1.399 . S
C1705 C1704 1.399 . S
C1705 C1706 1.376 . S
C1706 H1693 0.930 . S
C1706 C1705 1.376 . S
C1706 C1707 1.388 . S
C1707 H1694 0.930 . S
C1707 C1706 1.388 . S
C1707 C1708 1.390 . S
C1708 C1707 1.390 . S
C1708 C1709 1.394 . S
C1708 C1714 1.465 . S
C1709 C1704 1.399 . S
C1709 C1708 1.394 . S
C1709 C1710 1.516 . S
C1710 C1709 1.516 . S
C1710 C1711 1.502 . S
C1710 C1712 1.561 . S
C1710 C1713 1.526 . S
C1711 H1695 0.959 . S
C1711 H1696 0.959 . S
C1711 H1697 0.961 . S
C1711 C1710 1.502 . S
C1712 H1698 0.960 . S
C1712 H1699 0.961 . S
C1712 H1700 0.959 . S
C1712 C1710 1.561 . S
C1713 C1710 1.526 . S
C1713 C1714 1.396 . S
C1713 C1718 1.390 . S
C1714 C1708 1.465 . S
C1714 C1713 1.396 . S
C1714 C1715 1.399 . S
C1715 H1701 0.929 . S
C1715 C1714 1.399 . S
C1715 C1716 1.385 . S
C1716 H1702 0.931 . S
C1716 C1715 1.385 . S
C1716 C1717 1.389 . S
C1717 C1716 1.389 . S
C1717 C1718 1.387 . S
C1718 H1703 0.930 . S
C1718 C1713 1.390 . S
C1718 C1717 1.387 . S
H1719 C1731 0.930 . S
H1720 C1733 0.930 . S
H1721 C1734 0.930 . S
H1722 C1738 0.959 . S
H1723 C1738 0.959 . S
H1724 C1738 0.961 . S
H1725 C1739 0.960 . S
H1726 C1739 0.961 . S
H1727 C1739 0.959 . S
H1728 C1742 0.929 . S
H1729 C1743 0.931 . S
H1730 C1745 0.930 . S
C1731 H1719 0.930 . S
C1731 C1732 1.399 . S
C1731 C1736 1.399 . S
C1732 C1731 1.399 . S
C1732 C1733 1.376 . S
C1733 H1720 0.930 . S
C1733 C1732 1.376 . S
C1733 C1734 1.388 . S
C1734 H1721 0.930 . S
C1734 C1733 1.388 . S
C1734 C1735 1.390 . S
C1735 C1734 1.390 . S
C1735 C1736 1.394 . S
C1735 C1741 1.465 . S
C1736 C1731 1.399 . S
C1736 C1735 1.394 . S
C1736 C1737 1.516 . S
C1737 C1736 1.516 . S
C1737 C1738 1.502 . S
C1737 C1739 1.561 . S
C1737 C1740 1.526 . S
C1738 H1722 0.959 . S
C1738 H1723 0.959 . S
C1738 H1724 0.961 . S
C1738 C1737 1.502 . S
C1739 H1725 0.960 . S
C1739 H1726 0.961 . S
C1739 H1727 0.959 . S
C1739 C1737 1.561 . S
C1740 C1737 1.526 . S
C1740 C1741 1.396 . S
C1740 C1745 1.390 . S
C1741 C1735 1.465 . S
C1741 C1740 1.396 . S
C1741 C1742 1.399 . S
C1742 H1728 0.929 . S
C1742 C1741 1.399 . S
C1742 C1743 1.385 . S
C1743 H1729 0.931 . S
C1743 C1742 1.385 . S
C1743 C1744 1.389 . S
C1744 C1743 1.389 . S
C1744 C1745 1.387 . S
C1745 H1730 0.930 . S
C1745 C1740 1.390 . S
C1745 C1744 1.387 . S
H1746 C1758 0.930 . S
H1747 C1760 0.930 . S
H1748 C1761 0.930 . S
H1749 C1765 0.959 . S
H1750 C1765 0.959 . S
H1751 C1765 0.961 . S
H1752 C1766 0.960 . S
H1753 C1766 0.961 . S
H1754 C1766 0.959 . S
H1755 C1769 0.929 . S
H1756 C1770 0.931 . S
H1757 C1772 0.930 . S
C1758 H1746 0.930 . S
C1758 C1759 1.399 . S
C1758 C1763 1.399 . S
C1759 C1758 1.399 . S
C1759 C1760 1.376 . S
C1760 H1747 0.930 . S
C1760 C1759 1.376 . S
C1760 C1761 1.388 . S
C1761 H1748 0.930 . S
C1761 C1760 1.388 . S
C1761 C1762 1.390 . S
C1762 C1761 1.390 . S
C1762 C1763 1.394 . S
C1762 C1768 1.465 . S
C1763 C1758 1.399 . S
C1763 C1762 1.394 . S
C1763 C1764 1.516 . S
C1764 C1763 1.516 . S
C1764 C1765 1.502 . S
C1764 C1766 1.561 . S
C1764 C1767 1.526 . S
C1765 H1749 0.959 . S
C1765 H1750 0.959 . S
C1765 H1751 0.961 . S
C1765 C1764 1.502 . S
C1766 H1752 0.960 . S
C1766 H1753 0.961 . S
C1766 H1754 0.959 . S
C1766 C1764 1.561 . S
C1767 C1764 1.526 . S
C1767 C1768 1.396 . S
C1767 C1772 1.390 . S
C1768 C1762 1.465 . S
C1768 C1767 1.396 . S
C1768 C1769 1.399 . S
C1769 H1755 0.929 . S
C1769 C1768 1.399 . S
C1769 C1770 1.385 . S
C1770 H1756 0.931 . S
C1770 C1769 1.385 . S
C1770 C1771 1.389 . S
C1771 C1770 1.389 . S
C1771 C1772 1.387 . S
C1772 H1757 0.930 . S
C1772 C1767 1.390 . S
C1772 C1771 1.387 . S
H1773 C1785 0.930 . S
H1774 C1787 0.930 . S
H1775 C1788 0.930 . S
H1776 C1792 0.959 . S
H1777 C1792 0.959 . S
H1778 C1792 0.961 . S
H1779 C1793 0.960 . S
H1780 C1793 0.961 . S
H1781 C1793 0.959 . S
H1782 C1796 0.929 . S
H1783 C1797 0.931 . S
H1784 C1799 0.930 . S
C1785 H1773 0.930 . S
C1785 C1786 1.399 . S
C1785 C1790 1.399 . S
C1786 C1785 1.399 . S
C1786 C1787 1.376 . S
C1787 H1774 0.930 . S
C1787 C1786 1.376 . S
C1787 C1788 1.388 . S
C1788 H1775 0.930 . S
C1788 C1787 1.388 . S
C1788 C1789 1.390 . S
C1789 C1788 1.390 . S
C1789 C1790 1.394 . S
C1789 C1795 1.465 . S
C1790 C1785 1.399 . S
C1790 C1789 1.394 . S
C1790 C1791 1.516 . S
C1791 C1790 1.516 . S
C1791 C1792 1.502 . S
C1791 C1793 1.561 . S
C1791 C1794 1.526 . S
C1792 H1776 0.959 . S
C1792 H1777 0.959 . S
C1792 H1778 0.961 . S
C1792 C1791 1.502 . S
C1793 H1779 0.960 . S
C1793 H1780 0.961 . S
C1793 H1781 0.959 . S
C1793 C1791 1.561 . S
C1794 C1791 1.526 . S
C1794 C1795 1.396 . S
C1794 C1799 1.390 . S
C1795 C1789 1.465 . S
C1795 C1794 1.396 . S
C1795 C1796 1.399 . S
C1796 H1782 0.929 . S
C1796 C1795 1.399 . S
C1796 C1797 1.385 . S
C1797 H1783 0.931 . S
C1797 C1796 1.385 . S
C1797 C1798 1.389 . S
C1798 C1797 1.389 . S
C1798 C1799 1.387 . S
C1799 H1784 0.930 . S
C1799 C1794 1.390 . S
C1799 C1798 1.387 . S
H1800 C1812 0.930 . S
H1801 C1814 0.930 . S
H1802 C1815 0.930 . S
H1803 C1819 0.959 . S
H1804 C1819 0.959 . S
H1805 C1819 0.961 1_455 S
H1806 C1820 0.960 1_455 S
H1807 C1820 0.961 . S
H1808 C1820 0.959 . S
H1809 C1823 0.929 . S
H1810 C1824 0.931 . S
H1811 C1826 0.930 . S
C1812 H1800 0.930 . S
C1812 C1813 1.399 . S
C1812 C1817 1.399 . S
C1813 C1812 1.399 . S
C1813 C1814 1.376 . S
C1814 H1801 0.930 . S
C1814 C1813 1.376 . S
C1814 C1815 1.388 . S
C1815 H1802 0.930 . S
C1815 C1814 1.388 . S
C1815 C1816 1.390 . S
C1816 C1815 1.390 . S
C1816 C1817 1.394 . S
C1816 C1822 1.465 1_455 S
C1817 C1812 1.399 . S
C1817 C1816 1.394 . S
C1817 C1818 1.516 1_455 S
C1818 C1817 1.516 1_655 S
C1818 C1819 1.502 . S
C1818 C1820 1.561 . S
C1818 C1821 1.526 . S
C1819 H1803 0.959 . S
C1819 H1804 0.959 . S
C1819 H1805 0.961 1_655 S
C1819 C1818 1.502 . S
C1820 H1806 0.960 1_655 S
C1820 H1807 0.961 . S
C1820 H1808 0.959 . S
C1820 C1818 1.561 . S
C1821 C1818 1.526 . S
C1821 C1822 1.396 . S
C1821 C1826 1.390 . S
C1822 C1816 1.465 1_655 S
C1822 C1821 1.396 . S
C1822 C1823 1.399 . S
C1823 H1809 0.929 . S
C1823 C1822 1.399 . S
C1823 C1824 1.385 . S
C1824 H1810 0.931 . S
C1824 C1823 1.385 . S
C1824 C1825 1.389 . S
C1825 C1824 1.389 . S
C1825 C1826 1.387 . S
C1826 H1811 0.930 . S
C1826 C1821 1.390 . S
C1826 C1825 1.387 . S
H1827 C1839 0.930 . S
H1828 C1841 0.930 . S
H1829 C1842 0.930 . S
H1830 C1846 0.959 . S
H1831 C1846 0.959 . S
H1832 C1846 0.961 . S
H1833 C1847 0.960 . S
H1834 C1847 0.961 . S
H1835 C1847 0.959 . S
H1836 C1850 0.929 . S
H1837 C1851 0.931 . S
H1838 C1853 0.930 . S
C1839 H1827 0.930 . S
C1839 C1840 1.399 . S
C1839 C1844 1.399 . S
C1840 C1839 1.399 . S
C1840 C1841 1.376 . S
C1841 H1828 0.930 . S
C1841 C1840 1.376 . S
C1841 C1842 1.388 . S
C1842 H1829 0.930 . S
C1842 C1841 1.388 . S
C1842 C1843 1.390 . S
C1843 C1842 1.390 . S
C1843 C1844 1.394 . S
C1843 C1849 1.465 . S
C1844 C1839 1.399 . S
C1844 C1843 1.394 . S
C1844 C1845 1.516 . S
C1845 C1844 1.516 . S
C1845 C1846 1.502 . S
C1845 C1847 1.561 . S
C1845 C1848 1.526 . S
C1846 H1830 0.959 . S
C1846 H1831 0.959 . S
C1846 H1832 0.961 . S
C1846 C1845 1.502 . S
C1847 H1833 0.960 . S
C1847 H1834 0.961 . S
C1847 H1835 0.959 . S
C1847 C1845 1.561 . S
C1848 C1845 1.526 . S
C1848 C1849 1.396 . S
C1848 C1853 1.390 . S
C1849 C1843 1.465 . S
C1849 C1848 1.396 . S
C1849 C1850 1.399 . S
C1850 H1836 0.929 . S
C1850 C1849 1.399 . S
C1850 C1851 1.385 . S
C1851 H1837 0.931 . S
C1851 C1850 1.385 . S
C1851 C1852 1.389 . S
C1852 C1851 1.389 . S
C1852 C1853 1.387 . S
C1853 H1838 0.930 . S
C1853 C1848 1.390 . S
C1853 C1852 1.387 . S
H1854 C1866 0.930 . S
H1855 C1868 0.930 . S
H1856 C1869 0.930 . S
H1857 C1873 0.959 . S
H1858 C1873 0.959 1_565 S
H1859 C1873 0.961 . S
H1860 C1874 0.960 . S
H1861 C1874 0.961 1_565 S
H1862 C1874 0.959 . S
H1863 C1877 0.929 . S
H1864 C1878 0.931 . S
H1865 C1880 0.930 . S
C1866 H1854 0.930 . S
C1866 C1867 1.399 . S
C1866 C1871 1.399 . S
C1867 C1866 1.399 . S
C1867 C1868 1.376 . S
C1868 H1855 0.930 . S
C1868 C1867 1.376 . S
C1868 C1869 1.388 . S
C1869 H1856 0.930 . S
C1869 C1868 1.388 . S
C1869 C1870 1.390 . S
C1870 C1869 1.390 . S
C1870 C1871 1.394 . S
C1870 C1876 1.465 1_545 S
C1871 C1866 1.399 . S
C1871 C1870 1.394 . S
C1871 C1872 1.516 . S
C1872 C1871 1.516 . S
C1872 C1873 1.502 . S
C1872 C1874 1.561 . S
C1872 C1875 1.526 1_545 S
C1873 H1857 0.959 . S
C1873 H1858 0.959 1_545 S
C1873 H1859 0.961 . S
C1873 C1872 1.502 . S
C1874 H1860 0.960 . S
C1874 H1861 0.961 1_545 S
C1874 H1862 0.959 . S
C1874 C1872 1.561 . S
C1875 C1872 1.526 1_565 S
C1875 C1876 1.396 . S
C1875 C1880 1.390 . S
C1876 C1870 1.465 1_565 S
C1876 C1875 1.396 . S
C1876 C1877 1.399 . S
C1877 H1863 0.929 . S
C1877 C1876 1.399 . S
C1877 C1878 1.385 . S
C1878 H1864 0.931 . S
C1878 C1877 1.385 . S
C1878 C1879 1.389 . S
C1879 C1878 1.389 . S
C1879 C1880 1.387 . S
C1880 H1865 0.930 . S
C1880 C1875 1.390 . S
C1880 C1879 1.387 . S
H1881 C1893 0.930 . S
H1882 C1895 0.930 . S
H1883 C1896 0.930 . S
H1884 C1900 0.955 1_565 S
H1885 C1900 0.959 1_565 S
H1886 C1900 0.961 . S
H1887 C1901 0.960 . S
H1888 C1901 0.961 1_565 S
H1889 C1901 0.959 . S
H1890 C1904 0.929 . S
H1891 C1905 0.931 . S
H1892 C1907 0.930 . S
C1893 H1881 0.930 . S
C1893 C1894 1.399 . S
C1893 C1898 1.399 . S
C1894 C1893 1.399 . S
C1894 C1895 1.376 . S
C1895 H1882 0.930 . S
C1895 C1894 1.376 . S
C1895 C1896 1.388 . S
C1896 H1883 0.930 . S
C1896 C1895 1.388 . S
C1896 C1897 1.390 . S
C1897 C1896 1.390 . S
C1897 C1898 1.394 . S
C1897 C1903 1.465 1_545 S
C1898 C1893 1.399 . S
C1898 C1897 1.394 . S
C1898 C1899 1.516 . S
C1899 C1898 1.516 . S
C1899 C1900 1.502 . S
C1899 C1901 1.561 . S
C1899 C1902 1.526 1_545 S
C1900 H1884 0.955 1_545 S
C1900 H1885 0.959 1_545 S
C1900 H1886 0.961 . S
C1900 C1899 1.502 . S
C1901 H1887 0.960 . S
C1901 H1888 0.961 1_545 S
C1901 H1889 0.959 . S
C1901 C1899 1.561 . S
C1902 C1899 1.526 1_565 S
C1902 C1903 1.396 . S
C1902 C1907 1.390 . S
C1903 C1897 1.465 1_565 S
C1903 C1902 1.396 . S
C1903 C1904 1.399 . S
C1904 H1890 0.929 . S
C1904 C1903 1.399 . S
C1904 C1905 1.385 . S
C1905 H1891 0.931 . S
C1905 C1904 1.385 . S
C1905 C1906 1.389 . S
C1906 C1905 1.389 . S
C1906 C1907 1.387 . S
C1907 H1892 0.930 . S
C1907 C1902 1.390 . S
C1907 C1906 1.387 . S
H1908 C1920 0.930 . S
H1909 C1922 0.930 . S
H1910 C1923 0.930 . S
H1911 C1927 0.956 1_455 S
H1912 C1927 0.959 1_455 S
H1913 C1927 0.961 . S
H1914 C1928 0.960 . S
H1915 C1928 0.961 1_455 S
H1916 C1928 0.959 . S
H1917 C1931 0.929 . S
H1918 C1932 0.931 . S
H1919 C1934 0.930 . S
C1920 H1908 0.930 . S
C1920 C1921 1.399 . S
C1920 C1925 1.399 . S
C1921 C1920 1.399 . S
C1921 C1922 1.376 . S
C1922 H1909 0.930 . S
C1922 C1921 1.376 . S
C1922 C1923 1.388 . S
C1923 H1910 0.930 . S
C1923 C1922 1.388 . S
C1923 C1924 1.390 . S
C1924 C1923 1.390 . S
C1924 C1925 1.394 . S
C1924 C1930 1.465 1_655 S
C1925 C1920 1.399 . S
C1925 C1924 1.394 . S
C1925 C1926 1.516 . S
C1926 C1925 1.516 . S
C1926 C1927 1.502 . S
C1926 C1928 1.561 . S
C1926 C1929 1.526 1_655 S
C1927 H1911 0.956 1_655 S
C1927 H1912 0.959 1_655 S
C1927 H1913 0.961 . S
C1927 C1926 1.502 . S
C1928 H1914 0.960 . S
C1928 H1915 0.961 1_655 S
C1928 H1916 0.959 . S
C1928 C1926 1.561 . S
C1929 C1926 1.526 1_455 S
C1929 C1930 1.396 . S
C1929 C1934 1.390 . S
C1930 C1924 1.465 1_455 S
C1930 C1929 1.396 . S
C1930 C1931 1.399 . S
C1931 H1917 0.929 . S
C1931 C1930 1.399 . S
C1931 C1932 1.385 . S
C1932 H1918 0.931 . S
C1932 C1931 1.385 . S
C1932 C1933 1.389 . S
C1933 C1932 1.389 . S
C1933 C1934 1.387 . S
C1934 H1919 0.930 . S
C1934 C1929 1.390 . S
C1934 C1933 1.387 . S
H1935 C1947 0.930 . S
H1936 C1949 0.930 . S
H1937 C1950 0.930 . S
H1938 C1954 0.959 . S
H1939 C1954 0.959 . S
H1940 C1954 0.961 . S
H1941 C1955 0.960 . S
H1942 C1955 0.961 . S
H1943 C1955 0.959 . S
H1944 C1958 0.929 . S
H1945 C1959 0.931 . S
H1946 C1961 0.930 . S
C1947 H1935 0.930 . S
C1947 C1948 1.399 . S
C1947 C1952 1.399 . S
C1948 C1947 1.399 . S
C1948 C1949 1.376 . S
C1949 H1936 0.930 . S
C1949 C1948 1.376 . S
C1949 C1950 1.388 . S
C1950 H1937 0.930 . S
C1950 C1949 1.388 . S
C1950 C1951 1.390 . S
C1951 C1950 1.390 . S
C1951 C1952 1.394 . S
C1951 C1957 1.465 . S
C1952 C1947 1.399 . S
C1952 C1951 1.394 . S
C1952 C1953 1.516 . S
C1953 C1952 1.516 . S
C1953 C1954 1.502 . S
C1953 C1955 1.561 . S
C1953 C1956 1.526 . S
C1954 H1938 0.959 . S
C1954 H1939 0.959 . S
C1954 H1940 0.961 . S
C1954 C1953 1.502 . S
C1955 H1941 0.960 . S
C1955 H1942 0.961 . S
C1955 H1943 0.959 . S
C1955 C1953 1.561 . S
C1956 C1953 1.526 . S
C1956 C1957 1.396 . S
C1956 C1961 1.390 . S
C1957 C1951 1.465 . S
C1957 C1956 1.396 . S
C1957 C1958 1.399 . S
C1958 H1944 0.929 . S
C1958 C1957 1.399 . S
C1958 C1959 1.385 . S
C1959 H1945 0.931 . S
C1959 C1958 1.385 . S
C1959 C1960 1.389 . S
C1960 C1959 1.389 . S
C1960 C1961 1.387 . S
C1961 H1946 0.930 . S
C1961 C1956 1.390 . S
C1961 C1960 1.387 . S
H1962 C1974 0.930 . S
H1963 C1976 0.930 . S
H1964 C1977 0.930 . S
H1965 C1981 0.959 . S
H1966 C1981 0.959 . S
H1967 C1981 0.961 . S
H1968 C1982 0.960 . S
H1969 C1982 0.961 . S
H1970 C1982 0.959 . S
H1971 C1985 0.929 . S
H1972 C1986 0.931 . S
H1973 C1988 0.930 . S
C1974 H1962 0.930 . S
C1974 C1975 1.399 . S
C1974 C1979 1.399 . S
C1975 C1974 1.399 . S
C1975 C1976 1.376 . S
C1976 H1963 0.930 . S
C1976 C1975 1.376 . S
C1976 C1977 1.388 . S
C1977 H1964 0.930 . S
C1977 C1976 1.388 . S
C1977 C1978 1.390 . S
C1978 C1977 1.390 . S
C1978 C1979 1.394 . S
C1978 C1984 1.465 . S
C1979 C1974 1.399 . S
C1979 C1978 1.394 . S
C1979 C1980 1.516 . S
C1980 C1979 1.516 . S
C1980 C1981 1.502 . S
C1980 C1982 1.561 . S
C1980 C1983 1.526 . S
C1981 H1965 0.959 . S
C1981 H1966 0.959 . S
C1981 H1967 0.961 . S
C1981 C1980 1.502 . S
C1982 H1968 0.960 . S
C1982 H1969 0.961 . S
C1982 H1970 0.959 . S
C1982 C1980 1.561 . S
C1983 C1980 1.526 . S
C1983 C1984 1.396 . S
C1983 C1988 1.390 . S
C1984 C1978 1.465 . S
C1984 C1983 1.396 . S
C1984 C1985 1.399 . S
C1985 H1971 0.929 . S
C1985 C1984 1.399 . S
C1985 C1986 1.385 . S
C1986 H1972 0.931 . S
C1986 C1985 1.385 . S
C1986 C1987 1.389 . S
C1987 C1986 1.389 . S
C1987 C1988 1.387 . S
C1988 H1973 0.930 . S
C1988 C1983 1.390 . S
C1988 C1987 1.387 . S
H1989 C2001 0.930 . S
H1990 C2003 0.930 . S
H1991 C2004 0.930 . S
H1992 C2008 0.959 . S
H1993 C2008 0.959 . S
H1994 C2008 0.961 . S
H1995 C2009 0.960 . S
H1996 C2009 0.961 . S
H1997 C2009 0.959 . S
H1998 C2012 0.929 . S
H1999 C2013 0.931 . S
H2000 C2015 0.930 . S
C2001 H1989 0.930 . S
C2001 C2002 1.399 . S
C2001 C2006 1.399 . S
C2002 C2001 1.399 . S
C2002 C2003 1.376 . S
C2003 H1990 0.930 . S
C2003 C2002 1.376 . S
C2003 C2004 1.388 . S
C2004 H1991 0.930 . S
C2004 C2003 1.388 . S
C2004 C2005 1.390 . S
C2005 C2004 1.390 . S
C2005 C2006 1.394 . S
C2005 C2011 1.465 . S
C2006 C2001 1.399 . S
C2006 C2005 1.394 . S
C2006 C2007 1.516 . S
C2007 C2006 1.516 . S
C2007 C2008 1.502 . S
C2007 C2009 1.561 . S
C2007 C2010 1.526 . S
C2008 H1992 0.959 . S
C2008 H1993 0.959 . S
C2008 H1994 0.961 . S
C2008 C2007 1.502 . S
C2009 H1995 0.960 . S
C2009 H1996 0.961 . S
C2009 H1997 0.959 . S
C2009 C2007 1.561 . S
C2010 C2007 1.526 . S
C2010 C2011 1.396 . S
C2010 C2015 1.390 . S
C2011 C2005 1.465 . S
C2011 C2010 1.396 . S
C2011 C2012 1.399 . S
C2012 H1998 0.929 . S
C2012 C2011 1.399 . S
C2012 C2013 1.385 . S
C2013 H1999 0.931 . S
C2013 C2012 1.385 . S
C2013 C2014 1.389 . S
C2014 C2013 1.389 . S
C2014 C2015 1.387 . S
C2015 H2000 0.930 . S
C2015 C2010 1.390 . S
C2015 C2014 1.387 . S
H2016 C2028 0.930 . S
H2017 C2030 0.930 . S
H2018 C2031 0.930 . S
H2019 C2035 0.959 . S
H2020 C2035 0.959 . S
H2021 C2035 0.961 . S
H2022 C2036 0.960 . S
H2023 C2036 0.961 . S
H2024 C2036 0.959 . S
H2025 C2039 0.929 . S
H2026 C2040 0.931 . S
H2027 C2042 0.930 . S
C2028 H2016 0.930 . S
C2028 C2029 1.399 . S
C2028 C2033 1.399 . S
C2029 C2028 1.399 . S
C2029 C2030 1.376 . S
C2030 H2017 0.930 . S
C2030 C2029 1.376 . S
C2030 C2031 1.388 . S
C2031 H2018 0.930 . S
C2031 C2030 1.388 . S
C2031 C2032 1.390 . S
C2032 C2031 1.390 . S
C2032 C2033 1.394 . S
C2032 C2038 1.465 . S
C2033 C2028 1.399 . S
C2033 C2032 1.394 . S
C2033 C2034 1.516 . S
C2034 C2033 1.516 . S
C2034 C2035 1.502 . S
C2034 C2036 1.561 . S
C2034 C2037 1.526 . S
C2035 H2019 0.959 . S
C2035 H2020 0.959 . S
C2035 H2021 0.961 . S
C2035 C2034 1.502 . S
C2036 H2022 0.960 . S
C2036 H2023 0.961 . S
C2036 H2024 0.959 . S
C2036 C2034 1.561 . S
C2037 C2034 1.526 . S
C2037 C2038 1.396 . S
C2037 C2042 1.390 . S
C2038 C2032 1.465 . S
C2038 C2037 1.396 . S
C2038 C2039 1.399 . S
C2039 H2025 0.929 . S
C2039 C2038 1.399 . S
C2039 C2040 1.385 . S
C2040 H2026 0.931 . S
C2040 C2039 1.385 . S
C2040 C2041 1.389 . S
C2041 C2040 1.389 . S
C2041 C2042 1.387 . S
C2042 H2027 0.930 . S
C2042 C2037 1.390 . S
C2042 C2041 1.387 . S
H2043 C2055 0.930 . S
H2044 C2057 0.930 . S
H2045 C2058 0.930 . S
H2046 C2062 0.959 . S
H2047 C2062 0.959 . S
H2048 C2062 0.961 . S
H2049 C2063 0.960 . S
H2050 C2063 0.961 . S
H2051 C2063 0.959 . S
H2052 C2066 0.929 . S
H2053 C2067 0.931 . S
H2054 C2069 0.930 . S
C2055 H2043 0.930 . S
C2055 C2056 1.399 . S
C2055 C2060 1.399 . S
C2056 C2055 1.399 . S
C2056 C2057 1.376 . S
C2057 H2044 0.930 . S
C2057 C2056 1.376 . S
C2057 C2058 1.388 . S
C2058 H2045 0.930 . S
C2058 C2057 1.388 . S
C2058 C2059 1.390 . S
C2059 C2058 1.390 . S
C2059 C2060 1.394 . S
C2059 C2065 1.465 . S
C2060 C2055 1.399 . S
C2060 C2059 1.394 . S
C2060 C2061 1.516 . S
C2061 C2060 1.516 . S
C2061 C2062 1.502 . S
C2061 C2063 1.561 . S
C2061 C2064 1.526 . S
C2062 H2046 0.959 . S
C2062 H2047 0.959 . S
C2062 H2048 0.961 . S
C2062 C2061 1.502 . S
C2063 H2049 0.960 . S
C2063 H2050 0.961 . S
C2063 H2051 0.959 . S
C2063 C2061 1.561 . S
C2064 C2061 1.526 . S
C2064 C2065 1.396 . S
C2064 C2069 1.390 . S
C2065 C2059 1.465 . S
C2065 C2064 1.396 . S
C2065 C2066 1.399 . S
C2066 H2052 0.929 . S
C2066 C2065 1.399 . S
C2066 C2067 1.385 . S
C2067 H2053 0.931 . S
C2067 C2066 1.385 . S
C2067 C2068 1.389 . S
C2068 C2067 1.389 . S
C2068 C2069 1.387 . S
C2069 H2054 0.930 . S
C2069 C2064 1.390 . S
C2069 C2068 1.387 . S
H2070 C2082 0.930 . S
H2071 C2084 0.930 . S
H2072 C2085 0.930 . S
H2073 C2089 0.959 . S
H2074 C2089 0.959 . S
H2075 C2089 0.961 . S
H2076 C2090 0.960 . S
H2077 C2090 0.961 . S
H2078 C2090 0.959 . S
H2079 C2093 0.929 . S
H2080 C2094 0.931 . S
H2081 C2096 0.930 . S
C2082 H2070 0.930 . S
C2082 C2083 1.399 . S
C2082 C2087 1.399 . S
C2083 C2082 1.399 . S
C2083 C2084 1.376 . S
C2084 H2071 0.930 . S
C2084 C2083 1.376 . S
C2084 C2085 1.388 . S
C2085 H2072 0.930 . S
C2085 C2084 1.388 . S
C2085 C2086 1.390 . S
C2086 C2085 1.390 . S
C2086 C2087 1.394 . S
C2086 C2092 1.465 . S
C2087 C2082 1.399 . S
C2087 C2086 1.394 . S
C2087 C2088 1.516 . S
C2088 C2087 1.516 . S
C2088 C2089 1.502 . S
C2088 C2090 1.561 . S
C2088 C2091 1.526 . S
C2089 H2073 0.959 . S
C2089 H2074 0.959 . S
C2089 H2075 0.961 . S
C2089 C2088 1.502 . S
C2090 H2076 0.960 . S
C2090 H2077 0.961 . S
C2090 H2078 0.959 . S
C2090 C2088 1.561 . S
C2091 C2088 1.526 . S
C2091 C2092 1.396 . S
C2091 C2096 1.390 . S
C2092 C2086 1.465 . S
C2092 C2091 1.396 . S
C2092 C2093 1.399 . S
C2093 H2079 0.929 . S
C2093 C2092 1.399 . S
C2093 C2094 1.385 . S
C2094 H2080 0.931 . S
C2094 C2093 1.385 . S
C2094 C2095 1.389 . S
C2095 C2094 1.389 . S
C2095 C2096 1.387 . S
C2096 H2081 0.930 . S
C2096 C2091 1.390 . S
C2096 C2095 1.387 . S
H2097 C2109 0.930 . S
H2098 C2111 0.930 . S
H2099 C2112 0.930 . S
H2100 C2116 0.959 . S
H2101 C2116 0.959 . S
H2102 C2116 0.961 . S
H2103 C2117 0.960 . S
H2104 C2117 0.961 . S
H2105 C2117 0.959 . S
H2106 C2120 0.929 . S
H2107 C2121 0.931 . S
H2108 C2123 0.930 . S
C2109 H2097 0.930 . S
C2109 C2110 1.399 . S
C2109 C2114 1.399 . S
C2110 C2109 1.399 . S
C2110 C2111 1.376 . S
C2111 H2098 0.930 . S
C2111 C2110 1.376 . S
C2111 C2112 1.388 . S
C2112 H2099 0.930 . S
C2112 C2111 1.388 . S
C2112 C2113 1.390 . S
C2113 C2112 1.390 . S
C2113 C2114 1.394 . S
C2113 C2119 1.465 . S
C2114 C2109 1.399 . S
C2114 C2113 1.394 . S
C2114 C2115 1.516 . S
C2115 C2114 1.516 . S
C2115 C2116 1.502 . S
C2115 C2117 1.561 . S
C2115 C2118 1.526 . S
C2116 H2100 0.959 . S
C2116 H2101 0.959 . S
C2116 H2102 0.961 . S
C2116 C2115 1.502 . S
C2117 H2103 0.960 . S
C2117 H2104 0.961 . S
C2117 H2105 0.959 . S
C2117 C2115 1.561 . S
C2118 C2115 1.526 . S
C2118 C2119 1.396 . S
C2118 C2123 1.390 . S
C2119 C2113 1.465 . S
C2119 C2118 1.396 . S
C2119 C2120 1.399 . S
C2120 H2106 0.929 . S
C2120 C2119 1.399 . S
C2120 C2121 1.385 . S
C2121 H2107 0.931 . S
C2121 C2120 1.385 . S
C2121 C2122 1.389 . S
C2122 C2121 1.389 . S
C2122 C2123 1.387 . S
C2123 H2108 0.930 . S
C2123 C2118 1.390 . S
C2123 C2122 1.387 . S
H2124 C2136 0.930 . S
H2125 C2138 0.930 . S
H2126 C2139 0.930 . S
H2127 C2143 0.959 . S
H2128 C2143 0.959 . S
H2129 C2143 0.961 . S
H2130 C2144 0.960 . S
H2131 C2144 0.961 . S
H2132 C2144 0.959 . S
H2133 C2147 0.929 . S
H2134 C2148 0.931 . S
H2135 C2150 0.930 . S
C2136 H2124 0.930 . S
C2136 C2137 1.399 . S
C2136 C2141 1.399 . S
C2137 C2136 1.399 . S
C2137 C2138 1.376 . S
C2138 H2125 0.930 . S
C2138 C2137 1.376 . S
C2138 C2139 1.388 . S
C2139 H2126 0.930 . S
C2139 C2138 1.388 . S
C2139 C2140 1.390 . S
C2140 C2139 1.390 . S
C2140 C2141 1.394 . S
C2140 C2146 1.465 . S
C2141 C2136 1.399 . S
C2141 C2140 1.394 . S
C2141 C2142 1.516 . S
C2142 C2141 1.516 . S
C2142 C2143 1.502 . S
C2142 C2144 1.561 . S
C2142 C2145 1.526 . S
C2143 H2127 0.959 . S
C2143 H2128 0.959 . S
C2143 H2129 0.961 . S
C2143 C2142 1.502 . S
C2144 H2130 0.960 . S
C2144 H2131 0.961 . S
C2144 H2132 0.959 . S
C2144 C2142 1.561 . S
C2145 C2142 1.526 . S
C2145 C2146 1.396 . S
C2145 C2150 1.390 . S
C2146 C2140 1.465 . S
C2146 C2145 1.396 . S
C2146 C2147 1.399 . S
C2147 H2133 0.929 . S
C2147 C2146 1.399 . S
C2147 C2148 1.385 . S
C2148 H2134 0.931 . S
C2148 C2147 1.385 . S
C2148 C2149 1.389 . S
C2149 C2148 1.389 . S
C2149 C2150 1.387 . S
C2150 H2135 0.930 . S
C2150 C2145 1.390 . S
C2150 C2149 1.387 . S
H2151 C2163 0.930 . S
H2152 C2165 0.930 . S
H2153 C2166 0.930 . S
H2154 C2170 0.959 . S
H2155 C2170 0.959 . S
H2156 C2170 0.961 . S
H2157 C2171 0.960 . S
H2158 C2171 0.961 . S
H2159 C2171 0.959 . S
H2160 C2174 0.929 . S
H2161 C2175 0.931 . S
H2162 C2177 0.930 . S
C2163 H2151 0.930 . S
C2163 C2164 1.399 . S
C2163 C2168 1.399 . S
C2164 C2163 1.399 . S
C2164 C2165 1.376 . S
C2165 H2152 0.930 . S
C2165 C2164 1.376 . S
C2165 C2166 1.388 . S
C2166 H2153 0.930 . S
C2166 C2165 1.388 . S
C2166 C2167 1.390 . S
C2167 C2166 1.390 . S
C2167 C2168 1.394 . S
C2167 C2173 1.465 . S
C2168 C2163 1.399 . S
C2168 C2167 1.394 . S
C2168 C2169 1.516 . S
C2169 C2168 1.516 . S
C2169 C2170 1.502 . S
C2169 C2171 1.561 . S
C2169 C2172 1.526 . S
C2170 H2154 0.959 . S
C2170 H2155 0.959 . S
C2170 H2156 0.961 . S
C2170 C2169 1.502 . S
C2171 H2157 0.960 . S
C2171 H2158 0.961 . S
C2171 H2159 0.959 . S
C2171 C2169 1.561 . S
C2172 C2169 1.526 . S
C2172 C2173 1.396 . S
C2172 C2177 1.390 . S
C2173 C2167 1.465 . S
C2173 C2172 1.396 . S
C2173 C2174 1.399 . S
C2174 H2160 0.929 . S
C2174 C2173 1.399 . S
C2174 C2175 1.385 . S
C2175 H2161 0.931 . S
C2175 C2174 1.385 . S
C2175 C2176 1.389 . S
C2176 C2175 1.389 . S
C2176 C2177 1.387 . S
C2177 H2162 0.930 . S
C2177 C2172 1.390 . S
C2177 C2176 1.387 . S
H2178 C2190 0.930 . S
H2179 C2192 0.930 . S
H2180 C2193 0.930 . S
H2181 C2197 0.959 . S
H2182 C2197 0.959 . S
H2183 C2197 0.961 . S
H2184 C2198 0.960 . S
H2185 C2198 0.961 . S
H2186 C2198 0.959 . S
H2187 C2201 0.929 . S
H2188 C2202 0.931 . S
H2189 C2204 0.930 . S
C2190 H2178 0.930 . S
C2190 C2191 1.399 . S
C2190 C2195 1.399 . S
C2191 C2190 1.399 . S
C2191 C2192 1.376 . S
C2192 H2179 0.930 . S
C2192 C2191 1.376 . S
C2192 C2193 1.388 . S
C2193 H2180 0.930 . S
C2193 C2192 1.388 . S
C2193 C2194 1.390 . S
C2194 C2193 1.390 . S
C2194 C2195 1.394 . S
C2194 C2200 1.465 . S
C2195 C2190 1.399 . S
C2195 C2194 1.394 . S
C2195 C2196 1.516 . S
C2196 C2195 1.516 . S
C2196 C2197 1.502 . S
C2196 C2198 1.561 . S
C2196 C2199 1.526 . S
C2197 H2181 0.959 . S
C2197 H2182 0.959 . S
C2197 H2183 0.961 . S
C2197 C2196 1.502 . S
C2198 H2184 0.960 . S
C2198 H2185 0.961 . S
C2198 H2186 0.959 . S
C2198 C2196 1.561 . S
C2199 C2196 1.526 . S
C2199 C2200 1.396 . S
C2199 C2204 1.390 . S
C2200 C2194 1.465 . S
C2200 C2199 1.396 . S
C2200 C2201 1.399 . S
C2201 H2187 0.929 . S
C2201 C2200 1.399 . S
C2201 C2202 1.385 . S
C2202 H2188 0.931 . S
C2202 C2201 1.385 . S
C2202 C2203 1.389 . S
C2203 C2202 1.389 . S
C2203 C2204 1.387 . S
C2204 H2189 0.930 . S
C2204 C2199 1.390 . S
C2204 C2203 1.387 . S
H2205 C2217 0.930 . S
H2206 C2219 0.930 . S
H2207 C2220 0.930 . S
H2208 C2224 0.959 . S
H2209 C2224 0.959 . S
H2210 C2224 0.961 . S
H2211 C2225 0.960 . S
H2212 C2225 0.961 . S
H2213 C2225 0.959 . S
H2214 C2228 0.929 . S
H2215 C2229 0.931 . S
H2216 C2231 0.930 . S
C2217 H2205 0.930 . S
C2217 C2218 1.399 . S
C2217 C2222 1.399 . S
C2218 C2217 1.399 . S
C2218 C2219 1.376 . S
C2219 H2206 0.930 . S
C2219 C2218 1.376 . S
C2219 C2220 1.388 . S
C2220 H2207 0.930 . S
C2220 C2219 1.388 . S
C2220 C2221 1.390 . S
C2221 C2220 1.390 . S
C2221 C2222 1.394 . S
C2221 C2227 1.465 . S
C2222 C2217 1.399 . S
C2222 C2221 1.394 . S
C2222 C2223 1.516 . S
C2223 C2222 1.516 . S
C2223 C2224 1.502 . S
C2223 C2225 1.561 . S
C2223 C2226 1.526 . S
C2224 H2208 0.959 . S
C2224 H2209 0.959 . S
C2224 H2210 0.961 . S
C2224 C2223 1.502 . S
C2225 H2211 0.960 . S
C2225 H2212 0.961 . S
C2225 H2213 0.959 . S
C2225 C2223 1.561 . S
C2226 C2223 1.526 . S
C2226 C2227 1.396 . S
C2226 C2231 1.390 . S
C2227 C2221 1.465 . S
C2227 C2226 1.396 . S
C2227 C2228 1.399 . S
C2228 H2214 0.929 . S
C2228 C2227 1.399 . S
C2228 C2229 1.385 . S
C2229 H2215 0.931 . S
C2229 C2228 1.385 . S
C2229 C2230 1.389 . S
C2230 C2229 1.389 . S
C2230 C2231 1.387 . S
C2231 H2216 0.930 . S
C2231 C2226 1.390 . S
C2231 C2230 1.387 . S
H2232 C2244 0.930 . S
H2233 C2246 0.930 . S
H2234 C2247 0.930 . S
H2235 C2251 0.959 . S
H2236 C2251 0.959 . S
H2237 C2251 0.961 . S
H2238 C2252 0.960 . S
H2239 C2252 0.961 . S
H2240 C2252 0.959 . S
H2241 C2255 0.929 . S
H2242 C2256 0.931 . S
H2243 C2258 0.930 . S
C2244 H2232 0.930 . S
C2244 C2245 1.399 . S
C2244 C2249 1.399 . S
C2245 C2244 1.399 . S
C2245 C2246 1.376 . S
C2246 H2233 0.930 . S
C2246 C2245 1.376 . S
C2246 C2247 1.388 . S
C2247 H2234 0.930 . S
C2247 C2246 1.388 . S
C2247 C2248 1.390 . S
C2248 C2247 1.390 . S
C2248 C2249 1.394 . S
C2248 C2254 1.465 . S
C2249 C2244 1.399 . S
C2249 C2248 1.394 . S
C2249 C2250 1.516 . S
C2250 C2249 1.516 . S
C2250 C2251 1.502 . S
C2250 C2252 1.561 . S
C2250 C2253 1.526 . S
C2251 H2235 0.959 . S
C2251 H2236 0.959 . S
C2251 H2237 0.961 . S
C2251 C2250 1.502 . S
C2252 H2238 0.960 . S
C2252 H2239 0.961 . S
C2252 H2240 0.959 . S
C2252 C2250 1.561 . S
C2253 C2250 1.526 . S
C2253 C2254 1.396 . S
C2253 C2258 1.390 . S
C2254 C2248 1.465 . S
C2254 C2253 1.396 . S
C2254 C2255 1.399 . S
C2255 H2241 0.929 . S
C2255 C2254 1.399 . S
C2255 C2256 1.385 . S
C2256 H2242 0.931 . S
C2256 C2255 1.385 . S
C2256 C2257 1.389 . S
C2257 C2256 1.389 . S
C2257 C2258 1.387 . S
C2258 H2243 0.930 . S
C2258 C2253 1.390 . S
C2258 C2257 1.387 . S
H2259 C2271 0.930 . S
H2260 C2273 0.930 . S
H2261 C2274 0.930 . S
H2262 C2278 0.959 . S
H2263 C2278 0.959 1_556 S
H2264 C2278 0.961 1_556 S
H2265 C2279 0.960 . S
H2266 C2279 0.961 . S
H2267 C2279 0.959 . S
H2268 C2282 0.929 . S
H2269 C2283 0.931 . S
H2270 C2285 0.930 . S
C2271 H2259 0.930 . S
C2271 C2272 1.399 . S
C2271 C2276 1.399 . S
C2272 C2271 1.399 . S
C2272 C2273 1.376 . S
C2273 H2260 0.930 . S
C2273 C2272 1.376 . S
C2273 C2274 1.388 . S
C2274 H2261 0.930 . S
C2274 C2273 1.388 . S
C2274 C2275 1.390 . S
C2275 C2274 1.390 . S
C2275 C2276 1.394 . S
C2275 C2281 1.465 . S
C2276 C2271 1.399 . S
C2276 C2275 1.394 . S
C2276 C2277 1.516 . S
C2277 C2276 1.516 . S
C2277 C2278 1.502 . S
C2277 C2279 1.561 1_554 S
C2277 C2280 1.526 . S
C2278 H2262 0.959 . S
C2278 H2263 0.959 1_554 S
C2278 H2264 0.961 1_554 S
C2278 C2277 1.502 . S
C2279 H2265 0.960 . S
C2279 H2266 0.961 . S
C2279 H2267 0.959 . S
C2279 C2277 1.561 1_556 S
C2280 C2277 1.526 . S
C2280 C2281 1.396 . S
C2280 C2285 1.390 . S
C2281 C2275 1.465 . S
C2281 C2280 1.396 . S
C2281 C2282 1.399 . S
C2282 H2268 0.929 . S
C2282 C2281 1.399 . S
C2282 C2283 1.385 . S
C2283 H2269 0.931 . S
C2283 C2282 1.385 . S
C2283 C2284 1.389 . S
C2284 C2283 1.389 . S
C2284 C2285 1.387 . S
C2285 H2270 0.930 . S
C2285 C2280 1.390 . S
C2285 C2284 1.387 . S
H2286 C2298 0.930 1_554 S
H2287 C2300 0.930 . S
H2288 C2301 0.930 . S
H2289 C2305 0.959 1_556 S
H2290 C2305 0.959 . S
H2291 C2305 0.961 . S
H2292 C2306 0.960 . S
H2293 C2306 0.961 . S
H2294 C2306 0.959 . S
H2295 C2309 0.929 . S
H2296 C2310 0.931 . S
H2297 C2312 0.930 1_554 S
C2298 H2286 0.930 1_556 S
C2298 C2299 1.399 . S
C2298 C2303 1.399 . S
C2299 C2298 1.399 . S
C2299 C2300 1.376 . S
C2300 H2287 0.930 . S
C2300 C2299 1.376 . S
C2300 C2301 1.388 . S
C2301 H2288 0.930 . S
C2301 C2300 1.388 . S
C2301 C2302 1.390 . S
C2302 C2301 1.390 . S
C2302 C2303 1.394 . S
C2302 C2308 1.465 . S
C2303 C2298 1.399 . S
C2303 C2302 1.394 . S
C2303 C2304 1.516 . S
C2304 C2303 1.516 . S
C2304 C2305 1.502 1_556 S
C2304 C2306 1.561 1_556 S
C2304 C2307 1.526 . S
C2305 H2289 0.959 1_554 S
C2305 H2290 0.959 . S
C2305 H2291 0.961 . S
C2305 C2304 1.502 1_554 S
C2306 H2292 0.960 . S
C2306 H2293 0.961 . S
C2306 H2294 0.959 . S
C2306 C2304 1.561 1_554 S
C2307 C2304 1.526 . S
C2307 C2308 1.396 . S
C2307 C2312 1.390 . S
C2308 C2302 1.465 . S
C2308 C2307 1.396 . S
C2308 C2309 1.399 . S
C2309 H2295 0.929 . S
C2309 C2308 1.399 . S
C2309 C2310 1.385 . S
C2310 H2296 0.931 . S
C2310 C2309 1.385 . S
C2310 C2311 1.389 . S
C2311 C2310 1.389 . S
C2311 C2312 1.387 . S
C2312 H2297 0.930 1_556 S
C2312 C2307 1.390 . S
C2312 C2311 1.387 . S
H2313 C2325 0.930 . S
H2314 C2327 0.930 . S
H2315 C2328 0.930 . S
H2316 C2332 0.959 . S
H2317 C2332 0.959 . S
H2318 C2332 0.961 . S
H2319 C2333 0.960 . S
H2320 C2333 0.961 . S
H2321 C2333 0.959 . S
H2322 C2336 0.941 . S
H2323 C2337 0.931 . S
H2324 C2339 0.930 . S
C2325 H2313 0.930 . S
C2325 C2326 1.399 . S
C2325 C2330 1.399 . S
C2326 C2325 1.399 . S
C2326 C2327 1.376 . S
C2327 H2314 0.930 . S
C2327 C2326 1.376 . S
C2327 C2328 1.388 . S
C2328 H2315 0.930 . S
C2328 C2327 1.388 . S
C2328 C2329 1.390 . S
C2329 C2328 1.390 . S
C2329 C2330 1.394 . S
C2329 C2335 1.465 . S
C2330 C2325 1.399 . S
C2330 C2329 1.394 . S
C2330 C2331 1.516 . S
C2331 C2330 1.516 . S
C2331 C2332 1.502 . S
C2331 C2333 1.561 . S
C2331 C2334 1.526 . S
C2332 H2316 0.959 . S
C2332 H2317 0.959 . S
C2332 H2318 0.961 . S
C2332 C2331 1.502 . S
C2333 H2319 0.960 . S
C2333 H2320 0.961 . S
C2333 H2321 0.959 . S
C2333 C2331 1.561 . S
C2334 C2331 1.526 . S
C2334 C2335 1.396 . S
C2334 C2339 1.390 . S
C2335 C2329 1.465 . S
C2335 C2334 1.396 . S
C2335 C2336 1.399 . S
C2336 H2322 0.941 . S
C2336 C2335 1.399 . S
C2336 C2337 1.385 . S
C2337 H2323 0.931 . S
C2337 C2336 1.385 . S
C2337 C2338 1.389 . S
C2338 C2337 1.389 . S
C2338 C2339 1.387 . S
C2339 H2324 0.930 . S
C2339 C2334 1.390 . S
C2339 C2338 1.387 . S
H2340 C2352 0.930 . S
H2341 C2354 0.930 . S
H2342 C2355 0.930 . S
H2343 C2359 0.959 1_554 S
H2344 C2359 0.959 . S
H2345 C2359 0.961 . S
H2346 C2360 0.960 . S
H2347 C2360 0.961 . S
H2348 C2360 0.959 . S
H2349 C2363 0.929 . S
H2350 C2364 0.931 . S
H2351 C2366 0.930 . S
C2352 H2340 0.930 . S
C2352 C2353 1.399 . S
C2352 C2357 1.399 . S
C2353 C2352 1.399 . S
C2353 C2354 1.376 . S
C2354 H2341 0.930 . S
C2354 C2353 1.376 . S
C2354 C2355 1.388 . S
C2355 H2342 0.930 . S
C2355 C2354 1.388 . S
C2355 C2356 1.390 . S
C2356 C2355 1.390 . S
C2356 C2357 1.394 . S
C2356 C2362 1.465 . S
C2357 C2352 1.399 . S
C2357 C2356 1.394 . S
C2357 C2358 1.516 . S
C2358 C2357 1.516 . S
C2358 C2359 1.502 . S
C2358 C2360 1.561 . S
C2358 C2361 1.526 . S
C2359 H2343 0.959 1_556 S
C2359 H2344 0.959 . S
C2359 H2345 0.961 . S
C2359 C2358 1.502 . S
C2360 H2346 0.960 . S
C2360 H2347 0.961 . S
C2360 H2348 0.959 . S
C2360 C2358 1.561 . S
C2361 C2358 1.526 . S
C2361 C2362 1.396 . S
C2361 C2366 1.390 . S
C2362 C2356 1.465 . S
C2362 C2361 1.396 . S
C2362 C2363 1.399 . S
C2363 H2349 0.929 . S
C2363 C2362 1.399 . S
C2363 C2364 1.385 . S
C2364 H2350 0.931 . S
C2364 C2363 1.385 . S
C2364 C2365 1.389 . S
C2365 C2364 1.389 . S
C2365 C2366 1.387 . S
C2366 H2351 0.930 . S
C2366 C2361 1.390 . S
C2366 C2365 1.387 . S
H2367 C2379 0.930 . S
H2368 C2381 0.930 . S
H2369 C2382 0.930 . S
H2370 C2386 0.959 . S
H2371 C2386 0.959 . S
H2372 C2386 0.961 . S
H2373 C2387 0.960 . S
H2374 C2387 0.961 . S
H2375 C2387 0.959 . S
H2376 C2390 0.929 . S
H2377 C2391 0.931 . S
H2378 C2393 0.930 . S
C2379 H2367 0.930 . S
C2379 C2380 1.399 . S
C2379 C2384 1.399 . S
C2380 C2379 1.399 . S
C2380 C2381 1.376 . S
C2381 H2368 0.930 . S
C2381 C2380 1.376 . S
C2381 C2382 1.388 . S
C2382 H2369 0.930 . S
C2382 C2381 1.388 . S
C2382 C2383 1.390 . S
C2383 C2382 1.390 . S
C2383 C2384 1.394 . S
C2383 C2389 1.465 . S
C2384 C2379 1.399 . S
C2384 C2383 1.394 . S
C2384 C2385 1.516 . S
C2385 C2384 1.516 . S
C2385 C2386 1.502 . S
C2385 C2387 1.561 . S
C2385 C2388 1.526 . S
C2386 H2370 0.959 . S
C2386 H2371 0.959 . S
C2386 H2372 0.961 . S
C2386 C2385 1.502 . S
C2387 H2373 0.960 . S
C2387 H2374 0.961 . S
C2387 H2375 0.959 . S
C2387 C2385 1.561 . S
C2388 C2385 1.526 . S
C2388 C2389 1.396 . S
C2388 C2393 1.390 . S
C2389 C2383 1.465 . S
C2389 C2388 1.396 . S
C2389 C2390 1.399 . S
C2390 H2376 0.929 . S
C2390 C2389 1.399 . S
C2390 C2391 1.385 . S
C2391 H2377 0.931 . S
C2391 C2390 1.385 . S
C2391 C2392 1.389 . S
C2392 C2391 1.389 . S
C2392 C2393 1.387 . S
C2393 H2378 0.930 . S
C2393 C2388 1.390 . S
C2393 C2392 1.387 . S
H2394 C2406 0.930 . S
H2395 C2408 0.930 . S
H2396 C2409 0.930 . S
H2397 C2413 0.959 . S
H2398 C2413 0.959 . S
H2399 C2413 0.961 . S
H2400 C2414 0.960 . S
H2401 C2414 0.961 . S
H2402 C2414 0.959 . S
H2403 C2417 0.929 . S
H2404 C2418 0.931 . S
H2405 C2420 0.930 . S
C2406 H2394 0.930 . S
C2406 C2407 1.399 . S
C2406 C2411 1.399 . S
C2407 C2406 1.399 . S
C2407 C2408 1.376 . S
C2408 H2395 0.930 . S
C2408 C2407 1.376 . S
C2408 C2409 1.388 . S
C2409 H2396 0.930 . S
C2409 C2408 1.388 . S
C2409 C2410 1.390 . S
C2410 C2409 1.390 . S
C2410 C2411 1.394 . S
C2410 C2416 1.465 . S
C2411 C2406 1.399 . S
C2411 C2410 1.394 . S
C2411 C2412 1.516 . S
C2412 C2411 1.516 . S
C2412 C2413 1.502 . S
C2412 C2414 1.561 . S
C2412 C2415 1.526 . S
C2413 H2397 0.959 . S
C2413 H2398 0.959 . S
C2413 H2399 0.961 . S
C2413 C2412 1.502 . S
C2414 H2400 0.960 . S
C2414 H2401 0.961 . S
C2414 H2402 0.959 . S
C2414 C2412 1.561 . S
C2415 C2412 1.526 . S
C2415 C2416 1.396 . S
C2415 C2420 1.390 . S
C2416 C2410 1.465 . S
C2416 C2415 1.396 . S
C2416 C2417 1.399 . S
C2417 H2403 0.929 . S
C2417 C2416 1.399 . S
C2417 C2418 1.385 . S
C2418 H2404 0.931 . S
C2418 C2417 1.385 . S
C2418 C2419 1.389 . S
C2419 C2418 1.389 . S
C2419 C2420 1.387 . S
C2420 H2405 0.930 . S
C2420 C2415 1.390 . S
C2420 C2419 1.387 . S
H2421 C2433 0.930 . S
H2422 C2435 0.930 . S
H2423 C2436 0.930 . S
H2424 C2440 0.959 . S
H2425 C2440 0.959 . S
H2426 C2440 0.961 . S
H2427 C2441 0.960 . S
H2428 C2441 0.961 . S
H2429 C2441 0.959 . S
H2430 C2444 0.929 . S
H2431 C2445 0.931 . S
H2432 C2447 0.930 . S
C2433 H2421 0.930 . S
C2433 C2434 1.399 . S
C2433 C2438 1.399 . S
C2434 C2433 1.399 . S
C2434 C2435 1.376 . S
C2435 H2422 0.930 . S
C2435 C2434 1.376 . S
C2435 C2436 1.388 . S
C2436 H2423 0.930 . S
C2436 C2435 1.388 . S
C2436 C2437 1.390 . S
C2437 C2436 1.390 . S
C2437 C2438 1.394 . S
C2437 C2443 1.465 . S
C2438 C2433 1.399 . S
C2438 C2437 1.394 . S
C2438 C2439 1.516 . S
C2439 C2438 1.516 . S
C2439 C2440 1.502 . S
C2439 C2441 1.561 . S
C2439 C2442 1.526 . S
C2440 H2424 0.959 . S
C2440 H2425 0.959 . S
C2440 H2426 0.961 . S
C2440 C2439 1.502 . S
C2441 H2427 0.960 . S
C2441 H2428 0.961 . S
C2441 H2429 0.959 . S
C2441 C2439 1.561 . S
C2442 C2439 1.526 . S
C2442 C2443 1.396 . S
C2442 C2447 1.390 . S
C2443 C2437 1.465 . S
C2443 C2442 1.396 . S
C2443 C2444 1.399 . S
C2444 H2430 0.929 . S
C2444 C2443 1.399 . S
C2444 C2445 1.385 . S
C2445 H2431 0.931 . S
C2445 C2444 1.385 . S
C2445 C2446 1.389 . S
C2446 C2445 1.389 . S
C2446 C2447 1.387 . S
C2447 H2432 0.930 . S
C2447 C2442 1.390 . S
C2447 C2446 1.387 . S
C517 C78 1.487 . S
C529 C8 1.489 . S
C544 C50 1.512 . S
C556 C22 1.506 . S
C571 C36 1.501 . S
C583 C64 1.495 . S
C598 C92 1.494 . S
C610 C162 1.497 . S
C625 C106 1.487 . S
C637 C134 1.487 . S
C652 C148 1.493 . S
C664 C120 1.496 . S
C679 C176 1.490 . S
C691 C246 1.496 . S
C706 C190 1.495 . S
C718 C218 1.490 . S
C733 C204 1.513 . S
C745 C232 1.518 . S
C760 C330 1.520 . S
C772 C260 1.519 . S
C787 C274 1.488 . S
C799 C302 1.490 . S
C814 C316 1.487 . S
C826 C288 1.488 . S
C841 C414 1.491 . S
C853 C344 1.498 . S
C868 C386 1.487 . S
C880 C358 1.488 . S
C895 C400 1.495 . S
C907 C372 1.490 . S
C922 C428 1.518 . S
C934 C498 1.516 . S
C949 C442 1.488 . S
C961 C470 1.488 . S
C976 C456 1.503 . S
C988 C484 1.506 . S
C1003 C77 1.533 . S
C1015 C7 1.502 . S
C1030 C21 1.553 . S
C1042 C49 1.490 . S
C1057 C63 1.519 . S
C1069 C35 1.515 . S
C1084 C91 1.494 . S
C1096 C161 1.547 . S
C1111 C105 1.536 . S
C1123 C133 1.519 . S
C1138 C147 1.521 . S
C1150 C119 1.518 . S
C1165 C175 1.547 . S
C1177 C245 1.492 . S
C1192 C217 1.488 . S
C1204 C189 1.556 . S
C1219 C231 1.541 . S
C1231 C203 1.496 . S
C1246 C259 1.543 . S
C1258 C329 1.511 . S
C1273 C273 1.556 . S
C1285 C301 1.494 . S
C1300 C315 1.490 . S
C1312 C287 1.557 . S
C1327 C413 1.506 . S
C1339 C343 1.528 . S
C1354 C357 1.510 . S
C1366 C385 1.524 . S
C1381 C371 1.489 . S
C1393 C399 1.553 . S
C1408 C497 1.551 . S
C1420 C427 1.493 . S
C1435 C469 1.497 . S
C1447 C441 1.543 . S
C1462 C483 1.489 . S
C1474 C455 1.555 . S
C1489 C233 1.637 . S
C1501 C9 1.628 . S
C1516 C247 1.643 . S
C1528 C23 1.651 . S
C1543 C219 1.643 . S
C1555 C37 1.652 . S
C1570 C51 1.638 . S
C1582 C373 1.629 . S
C1597 C65 1.643 . S
C1609 C345 1.632 . S
C1624 C79 1.637 . S
C1636 C359 1.649 . S
C1651 C93 1.626 . S
C1663 C485 1.639 . S
C1678 C107 1.626 . S
C1690 C499 1.638 . S
C1705 C121 1.652 . S
C1717 C471 1.642 . S
C1732 C135 1.627 . S
C1744 C289 1.643 . S
C1759 C261 1.627 . S
C1771 C149 1.643 . S
C1786 C275 1.629 . S
C1798 C163 1.632 . S
C1813 C401 1.638 . S
C1825 C177 1.650 . S
C1840 C191 1.644 . S
C1852 C415 1.632 . S
C1867 C205 1.636 . S
C1879 C387 1.628 . S
C1894 C303 1.651 . S
C1906 C457 1.643 . S
C1921 C317 1.652 . S
C1933 C429 1.642 . S
C1948 C443 1.648 . S
C1960 C331 1.630 . S
C1975 C3 1.316 . S
C1987 C143 1.313 . S
C2002 C157 1.295 . S
C2014 C17 1.299 . S
C2029 C129 1.317 . S
C2041 C31 1.319 . S
C2056 C45 1.299 . S
C2068 C115 1.295 . S
C2083 C59 1.317 . S
C2095 C87 1.314 . S
C2110 C73 1.302 . S
C2122 C101 1.307 . S
C2137 C171 1.291 . S
C2149 C311 1.294 . S
C2164 C325 1.295 . S
C2176 C185 1.299 . S
C2191 C297 1.291 . S
C2203 C199 1.290 . S
C2218 C213 1.299 . S
C2230 C283 1.296 . S
C2245 C227 1.318 . S
C2257 C255 1.319 . S
C2272 C269 1.316 . S
C2284 C241 1.312 . S
C2299 C339 1.292 . S
C2311 C479 1.295 . S
C2326 C493 1.315 . S
C2338 C353 1.318 . S
C2353 C367 1.316 . S
C2365 C465 1.318 . S
C2380 C381 1.304 . S
C2392 C451 1.300 . S
C2407 C423 1.298 . S
C2419 C395 1.303 . S
C2434 C409 1.310 . S
C2446 C437 1.306 . S
