# Generated by pormake.
# Topology son, (6)-cn, num edge types: 1
# Building blocks:
#     Node 0, Type 0, BuildingBlock: CUWYAW_clean_sbu_0, # of connection points: 6
#     Node 1, Type 0, BuildingBlock: CUWYAW_clean_sbu_0, # of connection points: 6
#     Node 2, Type 0, BuildingBlock: CUWYAW_clean_sbu_0, # of connection points: 6
#     Node 3, Type 0, BuildingBlock: CUWYAW_clean_sbu_0, # of connection points: 6
#     Node 4, Type 0, BuildingBlock: CUWYAW_clean_sbu_0, # of connection points: 6
#     Node 5, Type 0, BuildingBlock: CUWYAW_clean_sbu_0, # of connection points: 6
#     Node 6, Type 0, BuildingBlock: CUWYAW_clean_sbu_0, # of connection points: 6
#     Node 7, Type 0, BuildingBlock: CUWYAW_clean_sbu_0, # of connection points: 6
#     Node 8, Type 0, BuildingBlock: CUWYAW_clean_sbu_0, # of connection points: 6
#     Node 9, Type 0, BuildingBlock: CUWYAW_clean_sbu_0, # of connection points: 6
#     Node 10, Type 0, BuildingBlock: CUWYAW_clean_sbu_0, # of connection points: 6
#     Node 11, Type 0, BuildingBlock: CUWYAW_clean_sbu_0, # of connection points: 6
#     Node 12, Type 0, BuildingBlock: CUWYAW_clean_sbu_0, # of connection points: 6
#     Node 13, Type 0, BuildingBlock: CUWYAW_clean_sbu_0, # of connection points: 6
#     Node 14, Type 0, BuildingBlock: CUWYAW_clean_sbu_0, # of connection points: 6
#     Node 15, Type 0, BuildingBlock: CUWYAW_clean_sbu_0, # of connection points: 6
#     Node 16, Type 0, BuildingBlock: CUWYAW_clean_sbu_0, # of connection points: 6
#     Node 17, Type 0, BuildingBlock: CUWYAW_clean_sbu_0, # of connection points: 6
#     Node 18, Type 0, BuildingBlock: CUWYAW_clean_sbu_0, # of connection points: 6
#     Node 19, Type 0, BuildingBlock: CUWYAW_clean_sbu_0, # of connection points: 6
#     Node 20, Type 0, BuildingBlock: CUWYAW_clean_sbu_0, # of connection points: 6
#     Node 21, Type 0, BuildingBlock: CUWYAW_clean_sbu_0, # of connection points: 6
#     Node 22, Type 0, BuildingBlock: CUWYAW_clean_sbu_0, # of connection points: 6
#     Node 23, Type 0, BuildingBlock: CUWYAW_clean_sbu_0, # of connection points: 6
#     Node 24, Type 0, BuildingBlock: CUWYAW_clean_sbu_0, # of connection points: 6
#     Node 25, Type 0, BuildingBlock: CUWYAW_clean_sbu_0, # of connection points: 6
#     Node 26, Type 0, BuildingBlock: CUWYAW_clean_sbu_0, # of connection points: 6
#     Node 27, Type 0, BuildingBlock: CUWYAW_clean_sbu_0, # of connection points: 6
#     Node 28, Type 0, BuildingBlock: CUWYAW_clean_sbu_0, # of connection points: 6
#     Node 29, Type 0, BuildingBlock: CUWYAW_clean_sbu_0, # of connection points: 6
#     Node 30, Type 0, BuildingBlock: CUWYAW_clean_sbu_0, # of connection points: 6
#     Node 31, Type 0, BuildingBlock: CUWYAW_clean_sbu_0, # of connection points: 6
#     Edge 32, Type (0, 0), BuildingBlock: KIFKEQ_clean_linker_1, # of connection points: 2
#     Edge 33, Type (0, 0), BuildingBlock: KIFKEQ_clean_linker_1, # of connection points: 2
#     Edge 34, Type (0, 0), BuildingBlock: KIFKEQ_clean_linker_1, # of connection points: 2
#     Edge 35, Type (0, 0), BuildingBlock: KIFKEQ_clean_linker_1, # of connection points: 2
#     Edge 36, Type (0, 0), BuildingBlock: KIFKEQ_clean_linker_1, # of connection points: 2
#     Edge 37, Type (0, 0), BuildingBlock: KIFKEQ_clean_linker_1, # of connection points: 2
#     Edge 38, Type (0, 0), BuildingBlock: KIFKEQ_clean_linker_1, # of connection points: 2
#     Edge 39, Type (0, 0), BuildingBlock: KIFKEQ_clean_linker_1, # of connection points: 2
#     Edge 40, Type (0, 0), BuildingBlock: KIFKEQ_clean_linker_1, # of connection points: 2
#     Edge 41, Type (0, 0), BuildingBlock: KIFKEQ_clean_linker_1, # of connection points: 2
#     Edge 42, Type (0, 0), BuildingBlock: KIFKEQ_clean_linker_1, # of connection points: 2
#     Edge 43, Type (0, 0), BuildingBlock: KIFKEQ_clean_linker_1, # of connection points: 2
#     Edge 44, Type (0, 0), BuildingBlock: KIFKEQ_clean_linker_1, # of connection points: 2
#     Edge 45, Type (0, 0), BuildingBlock: KIFKEQ_clean_linker_1, # of connection points: 2
#     Edge 46, Type (0, 0), BuildingBlock: KIFKEQ_clean_linker_1, # of connection points: 2
#     Edge 47, Type (0, 0), BuildingBlock: KIFKEQ_clean_linker_1, # of connection points: 2
#     Edge 48, Type (0, 0), BuildingBlock: KIFKEQ_clean_linker_1, # of connection points: 2
#     Edge 49, Type (0, 0), BuildingBlock: KIFKEQ_clean_linker_1, # of connection points: 2
#     Edge 50, Type (0, 0), BuildingBlock: KIFKEQ_clean_linker_1, # of connection points: 2
#     Edge 51, Type (0, 0), BuildingBlock: KIFKEQ_clean_linker_1, # of connection points: 2
#     Edge 52, Type (0, 0), BuildingBlock: KIFKEQ_clean_linker_1, # of connection points: 2
#     Edge 53, Type (0, 0), BuildingBlock: KIFKEQ_clean_linker_1, # of connection points: 2
#     Edge 54, Type (0, 0), BuildingBlock: KIFKEQ_clean_linker_1, # of connection points: 2
#     Edge 55, Type (0, 0), BuildingBlock: KIFKEQ_clean_linker_1, # of connection points: 2
#     Edge 56, Type (0, 0), BuildingBlock: KIFKEQ_clean_linker_1, # of connection points: 2
#     Edge 57, Type (0, 0), BuildingBlock: KIFKEQ_clean_linker_1, # of connection points: 2
#     Edge 58, Type (0, 0), BuildingBlock: KIFKEQ_clean_linker_1, # of connection points: 2
#     Edge 59, Type (0, 0), BuildingBlock: KIFKEQ_clean_linker_1, # of connection points: 2
#     Edge 60, Type (0, 0), BuildingBlock: KIFKEQ_clean_linker_1, # of connection points: 2
#     Edge 61, Type (0, 0), BuildingBlock: KIFKEQ_clean_linker_1, # of connection points: 2
#     Edge 62, Type (0, 0), BuildingBlock: KIFKEQ_clean_linker_1, # of connection points: 2
#     Edge 63, Type (0, 0), BuildingBlock: KIFKEQ_clean_linker_1, # of connection points: 2
#     Edge 64, Type (0, 0), BuildingBlock: KIFKEQ_clean_linker_1, # of connection points: 2
#     Edge 65, Type (0, 0), BuildingBlock: KIFKEQ_clean_linker_1, # of connection points: 2
#     Edge 66, Type (0, 0), BuildingBlock: KIFKEQ_clean_linker_1, # of connection points: 2
#     Edge 67, Type (0, 0), BuildingBlock: KIFKEQ_clean_linker_1, # of connection points: 2
#     Edge 68, Type (0, 0), BuildingBlock: KIFKEQ_clean_linker_1, # of connection points: 2
#     Edge 69, Type (0, 0), BuildingBlock: KIFKEQ_clean_linker_1, # of connection points: 2
#     Edge 70, Type (0, 0), BuildingBlock: KIFKEQ_clean_linker_1, # of connection points: 2
#     Edge 71, Type (0, 0), BuildingBlock: KIFKEQ_clean_linker_1, # of connection points: 2
#     Edge 72, Type (0, 0), BuildingBlock: KIFKEQ_clean_linker_1, # of connection points: 2
#     Edge 73, Type (0, 0), BuildingBlock: KIFKEQ_clean_linker_1, # of connection points: 2
#     Edge 74, Type (0, 0), BuildingBlock: KIFKEQ_clean_linker_1, # of connection points: 2
#     Edge 75, Type (0, 0), BuildingBlock: KIFKEQ_clean_linker_1, # of connection points: 2
#     Edge 76, Type (0, 0), BuildingBlock: KIFKEQ_clean_linker_1, # of connection points: 2
#     Edge 77, Type (0, 0), BuildingBlock: KIFKEQ_clean_linker_1, # of connection points: 2
#     Edge 78, Type (0, 0), BuildingBlock: KIFKEQ_clean_linker_1, # of connection points: 2
#     Edge 79, Type (0, 0), BuildingBlock: KIFKEQ_clean_linker_1, # of connection points: 2
#     Edge 80, Type (0, 0), BuildingBlock: KIFKEQ_clean_linker_1, # of connection points: 2
#     Edge 81, Type (0, 0), BuildingBlock: KIFKEQ_clean_linker_1, # of connection points: 2
#     Edge 82, Type (0, 0), BuildingBlock: KIFKEQ_clean_linker_1, # of connection points: 2
#     Edge 83, Type (0, 0), BuildingBlock: KIFKEQ_clean_linker_1, # of connection points: 2
#     Edge 84, Type (0, 0), BuildingBlock: KIFKEQ_clean_linker_1, # of connection points: 2
#     Edge 85, Type (0, 0), BuildingBlock: KIFKEQ_clean_linker_1, # of connection points: 2
#     Edge 86, Type (0, 0), BuildingBlock: KIFKEQ_clean_linker_1, # of connection points: 2
#     Edge 87, Type (0, 0), BuildingBlock: KIFKEQ_clean_linker_1, # of connection points: 2
#     Edge 88, Type (0, 0), BuildingBlock: KIFKEQ_clean_linker_1, # of connection points: 2
#     Edge 89, Type (0, 0), BuildingBlock: KIFKEQ_clean_linker_1, # of connection points: 2
#     Edge 90, Type (0, 0), BuildingBlock: KIFKEQ_clean_linker_1, # of connection points: 2
#     Edge 91, Type (0, 0), BuildingBlock: KIFKEQ_clean_linker_1, # of connection points: 2
#     Edge 92, Type (0, 0), BuildingBlock: KIFKEQ_clean_linker_1, # of connection points: 2
#     Edge 93, Type (0, 0), BuildingBlock: KIFKEQ_clean_linker_1, # of connection points: 2
#     Edge 94, Type (0, 0), BuildingBlock: KIFKEQ_clean_linker_1, # of connection points: 2
#     Edge 95, Type (0, 0), BuildingBlock: KIFKEQ_clean_linker_1, # of connection points: 2
#     Edge 96, Type (0, 0), BuildingBlock: KIFKEQ_clean_linker_1, # of connection points: 2
#     Edge 97, Type (0, 0), BuildingBlock: KIFKEQ_clean_linker_1, # of connection points: 2
#     Edge 98, Type (0, 0), BuildingBlock: KIFKEQ_clean_linker_1, # of connection points: 2
#     Edge 99, Type (0, 0), BuildingBlock: KIFKEQ_clean_linker_1, # of connection points: 2
#     Edge 100, Type (0, 0), BuildingBlock: KIFKEQ_clean_linker_1, # of connection points: 2
#     Edge 101, Type (0, 0), BuildingBlock: KIFKEQ_clean_linker_1, # of connection points: 2
#     Edge 102, Type (0, 0), BuildingBlock: KIFKEQ_clean_linker_1, # of connection points: 2
#     Edge 103, Type (0, 0), BuildingBlock: KIFKEQ_clean_linker_1, # of connection points: 2
#     Edge 104, Type (0, 0), BuildingBlock: KIFKEQ_clean_linker_1, # of connection points: 2
#     Edge 105, Type (0, 0), BuildingBlock: KIFKEQ_clean_linker_1, # of connection points: 2
#     Edge 106, Type (0, 0), BuildingBlock: KIFKEQ_clean_linker_1, # of connection points: 2
#     Edge 107, Type (0, 0), BuildingBlock: KIFKEQ_clean_linker_1, # of connection points: 2
#     Edge 108, Type (0, 0), BuildingBlock: KIFKEQ_clean_linker_1, # of connection points: 2
#     Edge 109, Type (0, 0), BuildingBlock: KIFKEQ_clean_linker_1, # of connection points: 2
#     Edge 110, Type (0, 0), BuildingBlock: KIFKEQ_clean_linker_1, # of connection points: 2
#     Edge 111, Type (0, 0), BuildingBlock: KIFKEQ_clean_linker_1, # of connection points: 2
#     Edge 112, Type (0, 0), BuildingBlock: KIFKEQ_clean_linker_1, # of connection points: 2
#     Edge 113, Type (0, 0), BuildingBlock: KIFKEQ_clean_linker_1, # of connection points: 2
#     Edge 114, Type (0, 0), BuildingBlock: KIFKEQ_clean_linker_1, # of connection points: 2
#     Edge 115, Type (0, 0), BuildingBlock: KIFKEQ_clean_linker_1, # of connection points: 2
#     Edge 116, Type (0, 0), BuildingBlock: KIFKEQ_clean_linker_1, # of connection points: 2
#     Edge 117, Type (0, 0), BuildingBlock: KIFKEQ_clean_linker_1, # of connection points: 2
#     Edge 118, Type (0, 0), BuildingBlock: KIFKEQ_clean_linker_1, # of connection points: 2
#     Edge 119, Type (0, 0), BuildingBlock: KIFKEQ_clean_linker_1, # of connection points: 2
#     Edge 120, Type (0, 0), BuildingBlock: KIFKEQ_clean_linker_1, # of connection points: 2
#     Edge 121, Type (0, 0), BuildingBlock: KIFKEQ_clean_linker_1, # of connection points: 2
#     Edge 122, Type (0, 0), BuildingBlock: KIFKEQ_clean_linker_1, # of connection points: 2
#     Edge 123, Type (0, 0), BuildingBlock: KIFKEQ_clean_linker_1, # of connection points: 2
#     Edge 124, Type (0, 0), BuildingBlock: KIFKEQ_clean_linker_1, # of connection points: 2
#     Edge 125, Type (0, 0), BuildingBlock: KIFKEQ_clean_linker_1, # of connection points: 2
#     Edge 126, Type (0, 0), BuildingBlock: KIFKEQ_clean_linker_1, # of connection points: 2
#     Edge 127, Type (0, 0), BuildingBlock: KIFKEQ_clean_linker_1, # of connection points: 2
# Relax obj value: 0.142
# Max RMSD: 0.181
# Mean RMSD: 0.178
data_MOF--net-son--node1-CUWYAW_clean_sbu_0--edge1-KIFKEQ_clean_linker_1
_symmetry_space_group_name_H-M    P1
_symmetry_Int_Tables_number       1
_symmetry_cell_setting            triclinic
loop_
_symmetry_equiv_pos_as_xyz
'x, y, z'
_cell_length_a     96.663518
_cell_length_b     52.834277
_cell_length_c     25.40344
_cell_angle_alpha  90.013117
_cell_angle_beta   89.941073
_cell_angle_gamma 90.011506
loop_
_atom_site_label
_atom_site_type_symbol
_atom_site_fract_x
_atom_site_fract_y
_atom_site_fract_z
_atom_type_partial_charge
C0 C 0.27955 0.26367 0.3652 0.0
Eu1 Eu 0.29145 0.26584 0.27238 0.0
C2 C 0.283 0.26639 0.42175 0.0
C3 C 0.27232 0.26631 0.45916 0.0
C4 C 0.27528 0.26797 0.51307 0.0
C5 C 0.28905 0.26967 0.53106 0.0
C6 C 0.29974 0.27004 0.49315 0.0
C7 C 0.29674 0.26845 0.43913 0.0
C8 C 0.29415 0.22617 0.20483 0.0
C9 C 0.32524 0.25948 0.28376 0.0
C10 C 0.32191 0.28164 0.08879 0.0
Eu11 Eu 0.3104 0.27707 0.18173 0.0
C12 C 0.31781 0.28036 0.0326 0.0
C13 C 0.32573 0.2932 0.99481 0.0
C14 C 0.32216 0.29228 0.94137 0.0
C15 C 0.31054 0.27844 0.92428 0.0
C16 C 0.30256 0.26565 0.96243 0.0
C17 C 0.30614 0.26664 0.01601 0.0
C18 C 0.30835 0.31541 0.25392 0.0
C19 C 0.27721 0.27837 0.16279 0.0
O20 O 0.27998 0.28412 0.3363 0.0
O21 O 0.28471 0.24405 0.3408 0.0
O22 O 0.2827 0.23255 0.22807 0.0
O23 O 0.3039 0.24065 0.21935 0.0
O24 O 0.31324 0.264 0.3073 0.0
O25 O 0.32656 0.26012 0.23229 0.0
O26 O 0.32167 0.2605 0.11561 0.0
O27 O 0.31713 0.30077 0.1159 0.0
O28 O 0.31961 0.30934 0.22911 0.0
O29 O 0.29841 0.30194 0.23735 0.0
O30 O 0.28969 0.27524 0.14357 0.0
O31 O 0.27482 0.27788 0.21411 0.0
H32 H 0.26163 0.26484 0.44668 0.0
H33 H 0.26673 0.26811 0.54064 0.0
H34 H 0.31046 0.27106 0.50518 0.0
H35 H 0.30515 0.26858 0.411 0.0
H36 H 0.33478 0.3039 1.00663 0.0
H37 H 0.32867 0.3021 0.91331 0.0
H38 H 0.29345 0.25508 0.95097 0.0
H39 H 0.29979 0.2567 0.04444 0.0
C40 C 0.96053 1.00871 0.36839 0.0
Eu41 Eu 0.94859 1.00737 0.27572 0.0
C42 C 0.95701 1.00607 0.42485 0.0
C43 C 0.96758 1.00715 0.46257 0.0
C44 C 0.96451 1.00547 0.5164 0.0
C45 C 0.95076 1.00277 0.53388 0.0
C46 C 0.94018 1.00153 0.49576 0.0
C47 C 0.94328 1.00308 0.44182 0.0
C48 C 0.94616 0.04731 0.20894 0.0
C49 C 0.91484 0.01419 0.28725 0.0
C50 C 0.91794 0.99287 0.09191 0.0
Eu51 Eu 0.92957 0.99691 0.1846 0.0
C52 C 0.92198 0.9939 0.03565 0.0
C53 C 0.91418 0.98045 0.99851 0.0
C54 C 0.91759 0.98131 0.94493 0.0
C55 C 0.92891 0.99575 0.92693 0.0
C56 C 0.93686 1.00896 0.96457 0.0
C57 C 0.93344 1.00802 0.01832 0.0
C58 C 0.9316 0.9582 0.25574 0.0
C59 C 0.96272 0.99476 0.16586 0.0
O60 O 0.95973 0.98833 0.33933 0.0
O61 O 0.9557 0.02866 0.34423 0.0
O62 O 0.95754 0.04079 0.23243 0.0
O63 O 0.93632 0.03294 0.22301 0.0
O64 O 0.92678 1.00921 0.31071 0.0
O65 O 0.9136 0.01409 0.23575 0.0
O66 O 0.91851 0.01402 0.11868 0.0
O67 O 0.92246 0.97352 0.11893 0.0
O68 O 0.9203 0.96453 0.23158 0.0
O69 O 0.94153 0.9717 0.23928 0.0
O70 O 0.9503 0.99847 0.14655 0.0
O71 O 0.96508 0.99493 0.21719 0.0
H72 H 0.97825 1.00953 0.45038 0.0
H73 H 0.97292 1.00682 0.5444 0.0
H74 H 0.92949 0.99913 0.50758 0.0
H75 H 0.93496 1.00204 0.41342 0.0
H76 H 0.90537 0.96925 1.01098 0.0
H77 H 0.91138 0.97042 0.91764 0.0
H78 H 0.94558 0.02043 0.95249 0.0
H79 H 0.93969 0.01847 0.04625 0.0
C80 C 0.28122 1.0072 0.91431 0.0
Eu81 Eu 0.29266 1.00523 1.00751 0.0
C82 C 0.28489 1.00472 0.85793 0.0
C83 C 0.27831 0.02037 0.8211 0.0
C84 C 0.28132 0.01831 0.76736 0.0
C85 C 0.29099 1.00042 0.74896 0.0
C86 C 0.29768 0.98484 0.78619 0.0
C87 C 0.29467 0.98698 0.84011 0.0
C88 C 0.29513 0.04448 0.07607 0.0
C89 C 0.32643 0.01103 0.99889 0.0
C90 C 0.32232 0.98635 0.19121 0.0
Eu91 Eu 0.31072 0.99265 0.09896 0.0
C92 C 0.31866 0.98805 0.24765 0.0
C93 C 0.32894 0.98417 0.28566 0.0
C94 C 0.32578 0.98555 0.3394 0.0
C95 C 0.31221 0.99083 0.35646 0.0
C96 C 0.30189 0.99466 0.31808 0.0
C97 C 0.3051 0.99334 0.26424 0.0
C98 C 0.30861 0.95521 0.02487 0.0
C99 C 0.27742 0.99424 0.11558 0.0
O100 O 0.28162 0.98671 0.94327 0.0
O101 O 0.28603 0.02706 0.93896 0.0
O102 O 0.28389 0.03868 0.05092 0.0
O103 O 0.30492 0.02982 0.06256 0.0
O104 O 0.31457 1.00728 0.974 0.0
O105 O 0.32736 1.00962 0.05038 0.0
O106 O 0.32271 1.00761 0.16489 0.0
O107 O 0.31656 0.96806 0.16434 0.0
O108 O 0.31995 0.96116 0.0491 0.0
O109 O 0.29874 0.96858 0.04216 0.0
O110 O 0.28982 0.99532 0.13643 0.0
O111 O 0.27543 0.99532 0.06418 0.0
H112 H 0.27079 0.03427 0.83395 0.0
H113 H 0.27615 0.03098 0.74028 0.0
H114 H 0.30508 0.97069 0.77364 0.0
H115 H 0.29992 0.97469 0.86777 0.0
H116 H 0.33946 0.97997 0.27375 0.0
H117 H 0.33395 0.98211 0.36762 0.0
H118 H 0.29137 0.99904 0.32959 0.0
H119 H 0.29699 0.9965 0.2357 0.0
C120 C 0.96093 0.27947 0.90874 0.0
Eu121 Eu 0.94968 0.26854 0.99946 0.0
C122 C 0.9593 0.2723 0.85293 0.0
C123 C 0.96888 0.28097 0.81558 0.0
C124 C 0.96644 0.27751 0.76167 0.0
C125 C 0.9543 0.26544 0.74405 0.0
C126 C 0.945 0.25589 0.78189 0.0
C127 C 0.94748 0.25927 0.83576 0.0
C128 C 0.94521 0.22209 0.04372 0.0
C129 C 0.91615 0.25663 0.99272 0.0
C130 C 0.91856 0.27563 0.19167 0.0
Eu131 Eu 0.92998 0.27492 0.09844 0.0
C132 C 0.92264 0.27229 0.24722 0.0
C133 C 0.91299 0.27733 0.287 0.0
C134 C 0.91676 0.27563 0.34004 0.0
C135 C 0.93035 0.26898 0.35459 0.0
C136 C 0.93997 0.26354 0.3144 0.0
C137 C 0.93614 0.26513 0.26123 0.0
C138 C 0.93209 0.31531 0.03164 0.0
C139 C 0.96345 0.27696 0.11345 0.0
O140 O 0.95043 0.29165 0.92909 0.0
O141 O 0.96611 0.2626 0.94106 0.0
O142 O 0.9528 0.22598 1.00226 0.0
O143 O 0.94036 0.24311 0.05888 0.0
O144 O 0.92779 0.26271 0.96779 0.0
O145 O 0.91498 0.25669 0.04443 0.0
O146 O 0.91884 0.25551 0.16149 0.0
O147 O 0.92343 0.29578 0.1681 0.0
O148 O 0.92074 0.30864 0.05534 0.0
O149 O 0.94186 0.30094 0.04597 0.0
O150 O 0.95104 0.27345 0.13353 0.0
O151 O 0.96583 0.27787 0.06196 0.0
H152 H 0.978 0.29126 0.82801 0.0
H153 H 0.97377 0.28532 0.7338 0.0
H154 H 0.93566 0.24616 0.76985 0.0
H155 H 0.93994 0.25246 0.86397 0.0
H156 H 0.90251 0.28282 0.27702 0.0
H157 H 0.90899 0.27948 0.36969 0.0
H158 H 0.95054 0.25858 0.32391 0.0
H159 H 0.94375 0.26106 0.23116 0.0
C160 C 0.66937 0.74015 0.93721 0.0
Eu161 Eu 0.68078 0.74635 0.84451 0.0
C162 C 0.67305 0.74218 0.99354 0.0
C163 C 0.66259 0.74045 0.03161 0.0
C164 C 0.66577 0.74203 0.08529 0.0
C165 C 0.67952 0.74539 0.1022 0.0
C166 C 0.69001 0.74713 0.06374 0.0
C167 C 0.6868 0.74557 1.00997 0.0
C168 C 0.6829 0.7089 0.77047 0.0
C169 C 0.71406 0.74797 0.85966 0.0
C170 C 0.70998 0.76391 0.65954 0.0
Eu171 Eu 0.69854 0.75992 0.75261 0.0
C172 C 0.70651 0.7609 0.60321 0.0
C173 C 0.71371 0.77531 0.56581 0.0
C174 C 0.71078 0.77286 0.51211 0.0
C175 C 0.70058 0.75585 0.49438 0.0
C176 C 0.69331 0.74149 0.53219 0.0
C177 C 0.69624 0.744 0.58608 0.0
C178 C 0.69593 0.79851 0.82294 0.0
C179 C 0.66475 0.76398 0.74464 0.0
O180 O 0.66876 0.76129 0.91052 0.0
O181 O 0.67525 0.72193 0.91053 0.0
O182 O 0.67176 0.71406 0.79685 0.0
O183 O 0.69274 0.72284 0.78614 0.0
O184 O 0.70173 0.74889 0.88113 0.0
O185 O 0.71592 0.74959 0.80824 0.0
O186 O 0.71048 0.74338 0.68828 0.0
O187 O 0.70416 0.78283 0.68422 0.0
O188 O 0.70718 0.79306 0.79757 0.0
O189 O 0.68623 0.78384 0.80871 0.0
O190 O 0.67661 0.76053 0.71946 0.0
O191 O 0.66393 0.7627 0.79618 0.0
H192 H 0.65192 0.73773 0.01982 0.0
H193 H 0.65744 0.74022 0.11358 0.0
H194 H 0.70069 0.75 0.07512 0.0
H195 H 0.69505 0.74702 0.98135 0.0
H196 H 0.72162 0.78855 0.57819 0.0
H197 H 0.71643 0.78459 0.48451 0.0
H198 H 0.68548 0.72803 0.52015 0.0
H199 H 0.69052 0.7327 0.61428 0.0
C200 C 0.07238 0.03208 0.94478 0.0
Eu201 Eu 0.06132 0.02751 0.85173 0.0
C202 C 0.0683 0.02796 1.00006 0.0
C203 C 0.07658 0.0378 0.04039 0.0
C204 C 0.07281 0.03458 0.09314 0.0
C205 C 0.06065 0.02142 0.10676 0.0
C206 C 0.05233 0.01163 0.06602 0.0
C207 C 0.05614 0.01484 1.01315 0.0
C208 C 0.05793 0.06509 0.77945 0.0
C209 C 0.02791 0.021 0.86504 0.0
C210 C 0.03036 0.02246 0.66205 0.0
Eu211 Eu 0.04269 0.01478 0.75202 0.0
C212 C 0.03272 0.01739 0.60564 0.0
C213 C 0.02171 0.01967 0.57009 0.0
C214 C 0.02401 0.01742 0.51585 0.0
C215 C 0.03739 0.01289 0.49603 0.0
C216 C 0.04834 1.00992 0.53209 0.0
C217 C 0.04603 0.01215 0.58634 0.0
C218 C 0.04975 0.97095 0.80242 0.0
C219 C 0.0765 1.0089 0.74786 0.0
O220 O 0.07378 0.01184 0.91534 0.0
O221 O 0.06611 0.05064 0.92035 0.0
O222 O 0.06935 0.06093 0.8049 0.0
O223 O 0.04863 0.04982 0.79482 0.0
O224 O 0.04024 0.02311 0.8865 0.0
O225 O 0.02582 0.01919 0.81357 0.0
O226 O 0.0389 0.03857 0.68389 0.0
O227 O 0.0276 1.00308 0.69248 0.0
O228 O 0.04275 0.97164 0.75874 0.0
O229 O 0.05296 0.99333 0.81497 0.0
O230 O 0.06478 0.01232 0.72146 0.0
O231 O 0.07738 0.01057 0.79963 0.0
H232 H 0.08594 0.04815 0.03106 0.0
H233 H 0.07934 0.04279 0.12327 0.0
H234 H 0.04297 1.00122 0.07496 0.0
H235 H 0.04959 1.00708 0.98256 0.0
H236 H 0.01137 0.02373 0.58422 0.0
H237 H 0.01529 0.01941 0.48941 0.0
H238 H 0.05881 1.0067 0.51837 0.0
H239 H 0.05469 0.01045 0.61312 0.0
C240 C 0.66847 0.03377 0.8393 0.0
Eu241 Eu 0.68013 0.02999 0.9319 0.0
C242 C 0.67262 0.0325 0.78285 0.0
C243 C 0.68173 0.05028 0.76045 0.0
C244 C 0.68508 0.04927 0.70671 0.0
C245 C 0.67939 0.03048 0.6738 0.0
C246 C 0.6704 0.01255 0.69658 0.0
C247 C 0.66704 0.01361 0.75025 0.0
C248 C 0.6823 0.06845 1.00345 0.0
C249 C 0.71333 0.03192 0.91165 0.0
C250 C 0.71108 0.01904 0.11457 0.0
Eu251 Eu 0.69936 0.01966 0.02171 0.0
C252 C 0.70722 0.02082 0.17108 0.0
C253 C 0.71246 1.00288 0.20658 0.0
C254 C 0.70933 1.00431 0.26037 0.0
C255 C 0.70091 0.02386 0.28032 0.0
C256 C 0.69556 0.04175 0.24446 0.0
C257 C 0.69865 0.04023 0.1905 0.0
C258 C 0.6967 0.97958 0.95517 0.0
C259 C 0.66566 0.01212 0.03454 0.0
O260 O 0.66896 0.01266 0.8662 0.0
O261 O 0.67269 0.05323 0.86682 0.0
O262 O 0.67084 0.06176 0.98078 0.0
O263 O 0.69222 0.0553 0.98582 0.0
O264 O 0.70081 0.0287 0.89286 0.0
O265 O 0.71582 0.03165 0.96287 0.0
O266 O 0.70987 0.03944 0.08568 0.0
O267 O 0.70723 0.99861 0.08951 0.0
O268 O 0.70818 0.98624 0.97782 0.0
O269 O 0.68692 0.99391 0.97005 0.0
O270 O 0.67766 0.017 0.05764 0.0
O271 O 0.66427 0.01255 0.98312 0.0
H272 H 0.6862 0.06519 0.78426 0.0
H273 H 0.6919 0.06362 0.6908 0.0
H274 H 0.66598 0.99751 0.67301 0.0
H275 H 0.65998 0.99966 0.76628 0.0
H276 H 0.71905 0.98769 0.19266 0.0
H277 H 0.71344 0.98988 0.28622 0.0
H278 H 0.68917 0.05724 0.25813 0.0
H279 H 0.69443 0.05435 0.16412 0.0
C280 C 0.07345 0.73994 0.83957 0.0
Eu281 Eu 0.06239 0.74463 0.93278 0.0
C282 C 0.06927 0.7433 0.78397 0.0
C283 C 0.07545 0.72822 0.74512 0.0
C284 C 0.07142 0.7303 0.69239 0.0
C285 C 0.06108 0.74757 0.67716 0.0
C286 C 0.05493 0.76282 0.71625 0.0
C287 C 0.05895 0.76064 0.76919 0.0
C288 C 0.05917 0.70653 1.00425 0.0
C289 C 0.02894 0.74871 0.91568 0.0
C290 C 0.03049 0.7466 0.12079 0.0
Eu291 Eu 0.04251 0.75538 0.03042 0.0
C292 C 0.03278 0.75174 0.17738 0.0
C293 C 0.02187 0.74848 0.21314 0.0
C294 C 0.02418 0.7504 0.26747 0.0
C295 C 0.03749 0.75559 0.28731 0.0
C296 C 0.04832 0.75965 0.25109 0.0
C297 C 0.04599 0.75771 0.19673 0.0
C298 C 0.0491 0.79995 0.98158 0.0
C299 C 0.0763 0.76422 0.03732 0.0
O300 O 0.07468 0.76039 0.86854 0.0
O301 O 0.06751 0.72124 0.86477 0.0
O302 O 0.07073 0.71176 0.98054 0.0
O303 O 0.04969 0.72111 0.98775 0.0
O304 O 0.04161 0.7496 0.89678 0.0
O305 O 0.02622 0.74856 0.967 0.0
O306 O 0.0394 0.73129 0.09861 0.0
O307 O 0.02715 0.7657 0.09038 0.0
O308 O 0.04154 0.79854 0.02387 0.0
O309 O 0.05288 0.77786 0.96924 0.0
O310 O 0.06448 0.75946 0.06234 0.0
O311 O 0.07762 0.7631 0.98563 0.0
H312 H 0.0834 0.71468 0.75563 0.0
H313 H 0.07651 0.71848 0.6634 0.0
H314 H 0.04683 0.7761 0.70609 0.0
H315 H 0.05391 0.77231 0.79857 0.0
H316 H 0.0116 0.74381 0.19911 0.0
H317 H 0.01553 0.74757 0.29398 0.0
H318 H 0.05873 0.76343 0.26473 0.0
H319 H 0.0546 0.76014 0.16988 0.0
C320 C 0.28189 0.77494 0.866 0.0
Eu321 Eu 0.29374 0.76595 0.77548 0.0
C322 C 0.2844 0.76958 0.92233 0.0
C323 C 0.27351 0.77163 0.95856 0.0
C324 C 0.27598 0.76915 1.01269 0.0
C325 C 0.28943 0.76465 0.03183 0.0
C326 C 0.30027 0.76194 0.99507 0.0
C327 C 0.29778 0.76437 0.94096 0.0
C328 C 0.30032 0.72128 0.72717 0.0
C329 C 0.32751 0.75711 0.78168 0.0
C330 C 0.32476 0.78027 0.58395 0.0
Eu331 Eu 0.31349 0.77632 0.67693 0.0
C332 C 0.32086 0.77608 0.52843 0.0
C333 C 0.32883 0.78709 0.48844 0.0
C334 C 0.32512 0.78414 0.43554 0.0
C335 C 0.31329 0.77015 0.42138 0.0
C336 C 0.3053 0.75911 0.46174 0.0
C337 C 0.30908 0.76197 0.51475 0.0
C338 C 0.31028 0.81463 0.74798 0.0
C339 C 0.27997 0.77229 0.66097 0.0
O340 O 0.29077 0.79021 0.84352 0.0
O341 O 0.27838 0.75593 0.83562 0.0
O342 O 0.29283 0.72276 0.76962 0.0
O343 O 0.30401 0.74335 0.71439 0.0
O344 O 0.31575 0.76192 0.807 0.0
O345 O 0.32875 0.75812 0.72997 0.0
O346 O 0.32602 0.76015 0.61385 0.0
O347 O 0.31851 0.79902 0.60789 0.0
O348 O 0.32183 0.8095 0.72407 0.0
O349 O 0.30086 0.79991 0.73172 0.0
O350 O 0.2926 0.7713 0.64159 0.0
O351 O 0.27736 0.7726 0.71237 0.0
H352 H 0.26311 0.77568 0.94506 0.0
H353 H 0.26733 0.77093 0.03956 0.0
H354 H 0.31079 0.75878 1.00812 0.0
H355 H 0.30637 0.76286 0.91376 0.0
H356 H 0.3379 0.7982 0.49817 0.0
H357 H 0.3314 0.79326 0.40575 0.0
H358 H 0.29619 0.74804 0.45237 0.0
H359 H 0.30278 0.75324 0.54502 0.0
C360 C 0.96165 0.50901 0.86631 0.0
Eu361 Eu 0.94704 0.50905 0.7794 0.0
C362 C 0.95881 0.51118 0.92347 0.0
C363 C 0.96983 0.51214 0.95933 0.0
C364 C 0.96731 0.51234 1.01376 0.0
C365 C 0.9537 0.51154 0.03367 0.0
C366 C 0.94267 0.51102 0.99734 0.0
C367 C 0.94521 0.51082 0.94291 0.0
C368 C 0.93579 0.54966 0.72931 0.0
C369 C 0.91382 0.50989 0.78571 0.0
C370 C 0.92001 0.48893 0.58905 0.0
Eu371 Eu 0.93025 0.49484 0.68346 0.0
C372 C 0.92424 0.49257 0.53328 0.0
C373 C 0.92139 0.47344 0.49651 0.0
C374 C 0.92523 0.47616 0.4436 0.0
C375 C 0.93204 0.49814 0.42589 0.0
C376 C 0.93491 0.51734 0.46291 0.0
C377 C 0.93106 0.51459 0.51599 0.0
C378 C 0.93249 0.4572 0.75699 0.0
C379 C 0.96309 0.5037 0.66788 0.0
O380 O 0.95692 0.48861 0.84356 0.0
O381 O 0.95973 0.5292 0.83744 0.0
O382 O 0.93659 0.54731 0.78015 0.0
O383 O 0.94106 0.53046 0.70708 0.0
O384 O 0.92534 0.50482 0.81176 0.0
O385 O 0.91354 0.51132 0.73391 0.0
O386 O 0.91791 0.50917 0.6179 0.0
O387 O 0.92635 0.47093 0.61492 0.0
O388 O 0.92146 0.46179 0.72965 0.0
O389 O 0.9421 0.47204 0.74273 0.0
O390 O 0.95132 0.49557 0.64847 0.0
O391 O 0.96447 0.51002 0.71815 0.0
H392 H 0.98041 0.51239 0.94525 0.0
H393 H 0.97607 0.51314 0.04024 0.0
H394 H 0.93206 0.51007 1.0109 0.0
H395 H 0.93654 0.50988 0.91599 0.0
H396 H 0.91612 0.45633 0.50873 0.0
H397 H 0.92264 0.46113 0.41636 0.0
H398 H 0.94028 0.5344 0.45103 0.0
H399 H 0.93344 0.52965 0.54346 0.0
C400 C 0.28267 0.49668 0.4132 0.0
Eu401 Eu 0.29435 0.5048 0.50424 0.0
C402 C 0.28451 0.50364 0.35731 0.0
C403 C 0.27354 0.50022 0.32194 0.0
C404 C 0.27561 0.50334 0.26772 0.0
C405 C 0.28873 0.50984 0.24767 0.0
C406 C 0.29958 0.51417 0.28362 0.0
C407 C 0.29748 0.51112 0.33784 0.0
C408 C 0.30087 0.54928 0.55335 0.0
C409 C 0.32821 0.51292 0.49968 0.0
C410 C 0.3245 0.49027 0.69726 0.0
Eu411 Eu 0.31356 0.49388 0.60374 0.0
C412 C 0.32047 0.49516 0.75238 0.0
C413 C 0.32875 0.48578 0.79318 0.0
C414 C 0.32492 0.48937 0.84579 0.0
C415 C 0.31266 0.50235 0.85879 0.0
C416 C 0.30437 0.51179 0.81761 0.0
C417 C 0.30828 0.50832 0.7649 0.0
C418 C 0.31037 0.45526 0.53313 0.0
C419 C 0.28008 0.49754 0.61792 0.0
O420 O 0.29245 0.4825 0.43312 0.0
O421 O 0.2784 0.51423 0.44597 0.0
O422 O 0.29357 0.54798 0.51048 0.0
O423 O 0.30443 0.52715 0.56612 0.0
O424 O 0.31648 0.50878 0.47376 0.0
O425 O 0.32929 0.51134 0.55136 0.0
O426 O 0.3261 0.51006 0.66669 0.0
O427 O 0.31805 0.47161 0.67383 0.0
O428 O 0.32171 0.45988 0.5588 0.0
O429 O 0.30102 0.47052 0.54799 0.0
O430 O 0.29258 0.49906 0.63814 0.0
O431 O 0.27776 0.49721 0.56634 0.0
H432 H 0.26346 0.49438 0.33612 0.0
H433 H 0.26695 0.50029 0.24146 0.0
H434 H 0.30986 0.51893 0.26983 0.0
H435 H 0.30613 0.51372 0.3644 0.0
H436 H 0.33815 0.47544 0.78433 0.0
H437 H 0.33144 0.4815 0.87631 0.0
H438 H 0.29494 0.52206 0.82612 0.0
H439 H 0.30176 0.51581 0.73398 0.0
C440 C 0.95789 0.76326 0.41892 0.0
Eu441 Eu 0.94621 0.76612 0.51185 0.0
C442 C 0.95454 0.76641 0.36258 0.0
C443 C 0.96522 0.76529 0.3253 0.0
C444 C 0.96232 0.76718 0.27145 0.0
C445 C 0.94863 0.77018 0.25355 0.0
C446 C 0.93794 0.77162 0.29131 0.0
C447 C 0.94087 0.76976 0.34529 0.0
C448 C 0.94315 0.72672 0.57973 0.0
C449 C 0.9124 0.76216 0.50331 0.0
C450 C 0.9169 0.78508 0.6969 0.0
Eu451 Eu 0.92828 0.77928 0.6042 0.0
C452 C 0.9209 0.78346 0.75297 0.0
C453 C 0.91351 0.79751 0.79041 0.0
C454 C 0.91699 0.79624 0.84383 0.0
C455 C 0.92795 0.78081 0.86112 0.0
C456 C 0.93541 0.76681 0.82332 0.0
C457 C 0.93195 0.76818 0.76975 0.0
C458 C 0.93085 0.8171 0.53127 0.0
C459 C 0.96154 0.77681 0.62022 0.0
O460 O 0.958 0.78369 0.44802 0.0
O461 O 0.95219 0.74404 0.44296 0.0
O462 O 0.95441 0.73195 0.55411 0.0
O463 O 0.93364 0.74214 0.567 0.0
O464 O 0.92432 0.76544 0.47851 0.0
O465 O 0.91141 0.76356 0.55483 0.0
O466 O 0.91656 0.76388 0.67027 0.0
O467 O 0.92227 0.80369 0.66983 0.0
O468 O 0.91958 0.81197 0.55686 0.0
O469 O 0.94054 0.80288 0.54719 0.0
O470 O 0.94916 0.77631 0.64141 0.0
O471 O 0.96349 0.7754 0.56879 0.0
H472 H 0.97584 0.76277 0.33783 0.0
H473 H 0.97085 0.76644 0.24386 0.0
H474 H 0.92727 0.77367 0.27918 0.0
H475 H 0.93247 0.77066 0.37343 0.0
H476 H 0.90496 0.80942 0.77832 0.0
H477 H 0.91091 0.80705 0.87175 0.0
H478 H 0.94402 0.75498 0.83508 0.0
H479 H 0.93788 0.7573 0.74149 0.0
C480 C 0.66705 0.24074 0.44491 0.0
Eu481 Eu 0.67843 0.24713 0.35237 0.0
C482 C 0.67056 0.24366 0.50118 0.0
C483 C 0.66269 0.23069 0.5389 0.0
C484 C 0.66601 0.23233 0.59241 0.0
C485 C 0.67731 0.24699 0.60952 0.0
C486 C 0.68513 0.26017 0.5715 0.0
C487 C 0.68181 0.25846 0.5178 0.0
C488 C 0.68157 0.20786 0.28308 0.0
C489 C 0.71128 0.25184 0.36998 0.0
C490 C 0.70857 0.25751 0.16706 0.0
Eu491 Eu 0.69659 0.25804 0.25971 0.0
C492 C 0.70497 0.25621 0.11063 0.0
C493 C 0.71558 0.25661 0.07299 0.0
C494 C 0.71249 0.25584 0.01917 0.0
C495 C 0.69868 0.25471 1.00168 0.0
C496 C 0.68805 0.25416 0.03978 0.0
C497 C 0.69117 0.25489 0.09371 0.0
C498 C 0.69268 0.29949 0.32158 0.0
C499 C 0.66266 0.26216 0.2501 0.0
O500 O 0.6657 0.26142 0.417 0.0
O501 O 0.67363 0.22292 0.41951 0.0
O502 O 0.67001 0.2139 0.30562 0.0
O503 O 0.6911 0.22232 0.29915 0.0
O504 O 0.69889 0.2559 0.38929 0.0
O505 O 0.71328 0.24799 0.31911 0.0
O506 O 0.70632 0.2372 0.19518 0.0
O507 O 0.70511 0.27819 0.19199 0.0
O508 O 0.70414 0.29414 0.29722 0.0
O509 O 0.68348 0.2832 0.31055 0.0
O510 O 0.67466 0.25867 0.2258 0.0
O511 O 0.66159 0.26178 0.30172 0.0
H512 H 0.65398 0.21916 0.52692 0.0
H513 H 0.65962 0.22223 0.62046 0.0
H514 H 0.69398 0.27143 0.58311 0.0
H515 H 0.68809 0.26852 0.4893 0.0
H516 H 0.7263 0.25754 0.08524 0.0
H517 H 0.72097 0.25584 0.99128 0.0
H518 H 0.6773 0.25356 0.02798 0.0
H519 H 0.68282 0.25456 0.12213 0.0
C520 C 0.07254 0.53199 0.44246 0.0
Eu521 Eu 0.06213 0.52582 0.3487 0.0
C522 C 0.06867 0.52718 0.49781 0.0
C523 C 0.0753 0.54088 0.53771 0.0
C524 C 0.07126 0.53809 0.59028 0.0
C525 C 0.06046 0.5215 0.60422 0.0
C526 C 0.05396 0.50742 0.56411 0.0
C527 C 0.058 0.51031 0.51131 0.0
C528 C 0.05883 0.56454 0.27845 0.0
C529 C 0.02908 0.51805 0.36381 0.0
C530 C 0.0309 0.52441 0.15976 0.0
Eu531 Eu 0.04294 0.51545 0.24982 0.0
C532 C 0.03269 0.51837 0.10335 0.0
C533 C 0.02164 0.52215 0.06852 0.0
C534 C 0.02357 0.51958 1.01411 0.0
C535 C 0.03664 0.51322 0.9933 0.0
C536 C 0.04757 0.50853 0.02864 0.0
C537 C 0.04562 0.51111 0.08309 0.0
C538 C 0.04952 0.47051 0.29718 0.0
C539 C 0.07679 0.50729 0.24471 0.0
O540 O 0.07528 0.5123 0.41267 0.0
O541 O 0.06521 0.54924 0.41815 0.0
O542 O 0.07035 0.5592 0.30206 0.0
O543 O 0.04941 0.54962 0.29411 0.0
O544 O 0.04162 0.51554 0.38307 0.0
O545 O 0.02665 0.52222 0.31313 0.0
O546 O 0.04046 0.53891 0.1804 0.0
O547 O 0.02704 0.50611 0.19141 0.0
O548 O 0.04212 0.4722 0.25458 0.0
O549 O 0.05317 0.49251 0.31058 0.0
O550 O 0.06506 0.51196 0.21913 0.0
O551 O 0.07788 0.50823 0.29653 0.0
H552 H 0.08352 0.55404 0.52812 0.0
H553 H 0.07663 0.54894 0.6201 0.0
H554 H 0.04553 0.49465 0.57335 0.0
H555 H 0.05266 0.49968 0.48105 0.0
H556 H 0.01159 0.52779 0.08331 0.0
H557 H 0.01486 0.52291 0.98827 0.0
H558 H 0.0578 0.50385 1.01419 0.0
H559 H 0.05432 0.50822 0.10924 0.0
C560 C 0.66574 0.53613 0.33025 0.0
Eu561 Eu 0.67608 0.52974 0.42417 0.0
C562 C 0.66885 0.52935 0.2752 0.0
C563 C 0.66044 0.5387 0.23478 0.0
C564 C 0.6638 0.53416 0.18201 0.0
C565 C 0.67572 0.52024 0.16857 0.0
C566 C 0.68401 0.51053 0.20942 0.0
C567 C 0.68058 0.51502 0.26222 0.0
C568 C 0.6804 0.56916 0.49191 0.0
C569 C 0.70874 0.51605 0.41111 0.0
C570 C 0.70622 0.52676 0.61466 0.0
Eu571 Eu 0.69436 0.51838 0.52411 0.0
C572 C 0.70406 0.52022 0.67054 0.0
C573 C 0.71495 0.52314 0.70641 0.0
C574 C 0.71267 0.51995 0.76046 0.0
C575 C 0.69941 0.5139 0.7798 0.0
C576 C 0.68862 0.51015 0.74335 0.0
C577 C 0.69093 0.51325 0.68929 0.0
C578 C 0.68663 0.47355 0.47985 0.0
C579 C 0.66037 0.5134 0.52783 0.0
O580 O 0.66193 0.51777 0.36188 0.0
O581 O 0.67439 0.55195 0.35244 0.0
O582 O 0.6689 0.56482 0.46737 0.0
O583 O 0.68937 0.55289 0.47823 0.0
O584 O 0.69616 0.51601 0.39135 0.0
O585 O 0.71121 0.52079 0.46156 0.0
O586 O 0.69679 0.54147 0.59397 0.0
O587 O 0.71014 0.50865 0.58268 0.0
O588 O 0.69386 0.47534 0.52281 0.0
O589 O 0.68355 0.49555 0.4642 0.0
O590 O 0.67213 0.51683 0.55397 0.0
O591 O 0.65948 0.5146 0.47602 0.0
H592 H 0.65139 0.54997 0.244 0.0
H593 H 0.65727 0.54222 0.15172 0.0
H594 H 0.69317 0.4995 0.2006 0.0
H595 H 0.68717 0.50763 0.29288 0.0
H596 H 0.72516 0.52854 0.69274 0.0
H597 H 0.72129 0.52254 0.78715 0.0
H598 H 0.67825 0.50576 0.75662 0.0
H599 H 0.68236 0.51101 0.66228 0.0
C600 C 0.07203 0.23958 0.33931 0.0
Eu601 Eu 0.0607 0.24394 0.43203 0.0
C602 C 0.06801 0.24278 0.28371 0.0
C603 C 0.07687 0.23399 0.24408 0.0
C604 C 0.07312 0.23601 0.19108 0.0
C605 C 0.06037 0.24682 0.17649 0.0
C606 C 0.05154 0.25585 0.21648 0.0
C607 C 0.05533 0.25383 0.26962 0.0
C608 C 0.05742 0.20667 0.50502 0.0
C609 C 0.02722 0.24985 0.41793 0.0
C610 C 0.02916 0.24925 0.62113 0.0
Eu611 Eu 0.0417 0.25674 0.53135 0.0
C612 C 0.03191 0.25352 0.67753 0.0
C613 C 0.02142 0.24912 0.71456 0.0
C614 C 0.02422 0.25068 0.76856 0.0
C615 C 0.03761 0.2566 0.78661 0.0
C616 C 0.048 0.26169 0.74911 0.0
C617 C 0.04518 0.26016 0.69514 0.0
C618 C 0.0488 0.30034 0.48 0.0
C619 C 0.07546 0.26309 0.53649 0.0
O620 O 0.07282 0.26019 0.36795 0.0
O621 O 0.06621 0.2207 0.36434 0.0
O622 O 0.06885 0.21089 0.4795 0.0
O623 O 0.04805 0.22168 0.48926 0.0
O624 O 0.03959 0.24719 0.39691 0.0
O625 O 0.025 0.2524 0.46923 0.0
O626 O 0.0371 0.2325 0.59817 0.0
O627 O 0.02703 0.26924 0.59172 0.0
O628 O 0.04169 0.2999 0.52351 0.0
O629 O 0.05203 0.2779 0.46825 0.0
O630 O 0.0637 0.25939 0.56256 0.0
O631 O 0.07647 0.26142 0.4847 0.0
H632 H 0.08671 0.22544 0.25415 0.0
H633 H 0.08029 0.22924 0.16147 0.0
H634 H 0.0416 0.26406 0.20682 0.0
H635 H 0.04831 0.26072 0.29963 0.0
H636 H 0.01113 0.24382 0.70173 0.0
H637 H 0.016 0.24637 0.79613 0.0
H638 H 0.05837 0.26668 0.76146 0.0
H639 H 0.05342 0.26362 0.66715 0.0
C640 C 0.78264 0.2696 0.8699 0.0
Eu641 Eu 0.7946 0.26168 0.77923 0.0
C642 C 0.78533 0.26425 0.92604 0.0
C643 C 0.77434 0.26426 0.96207 0.0
C644 C 0.77685 0.26166 0.01611 0.0
C645 C 0.79045 0.2591 0.03532 0.0
C646 C 0.80142 0.25842 0.99873 0.0
C647 C 0.79888 0.26093 0.9447 0.0
C648 C 0.80217 0.21744 0.73164 0.0
C649 C 0.82857 0.25583 0.78292 0.0
C650 C 0.8239 0.28116 0.5867 0.0
Eu651 Eu 0.81326 0.27389 0.67986 0.0
C652 C 0.82072 0.27541 0.53121 0.0
C653 C 0.82779 0.28837 0.49128 0.0
C654 C 0.82446 0.28426 0.43836 0.0
C655 C 0.81391 0.26719 0.42424 0.0
C656 C 0.8069 0.25407 0.46453 0.0
C657 C 0.81033 0.25808 0.51752 0.0
C658 C 0.80939 0.31194 0.75126 0.0
C659 C 0.78031 0.26194 0.6657 0.0
O660 O 0.79115 0.28558 0.84746 0.0
O661 O 0.77953 0.25042 0.8394 0.0
O662 O 0.7949 0.21851 0.77466 0.0
O663 O 0.8053 0.23968 0.7179 0.0
O664 O 0.81684 0.25952 0.80924 0.0
O665 O 0.82947 0.25715 0.7311 0.0
O666 O 0.82729 0.26207 0.61712 0.0
O667 O 0.81558 0.29727 0.60988 0.0
O668 O 0.82094 0.30751 0.72703 0.0
O669 O 0.80025 0.29651 0.73546 0.0
O670 O 0.79292 0.26208 0.64587 0.0
O671 O 0.77784 0.26537 0.71665 0.0
H672 H 0.76381 0.2668 0.9485 0.0
H673 H 0.76813 0.26184 0.04287 0.0
H674 H 0.81203 0.25679 1.01186 0.0
H675 H 0.80755 0.26095 0.91763 0.0
H676 H 0.83578 0.30195 0.50106 0.0
H677 H 0.82995 0.29494 0.40853 0.0
H678 H 0.79882 0.24061 0.45509 0.0
H679 H 0.80484 0.24779 0.54783 0.0
C680 C 0.45916 1.00309 0.86609 0.0
Eu681 Eu 0.44721 1.00335 0.77339 0.0
C682 C 0.45553 1.00165 0.92263 0.0
C683 C 0.46596 1.00474 0.96044 0.0
C684 C 0.46284 1.00379 1.01428 0.0
C685 C 0.44918 0.99977 0.03172 0.0
C686 C 0.43872 0.99667 0.99351 0.0
C687 C 0.44188 0.99755 0.93953 0.0
C688 C 0.44412 0.04437 0.71002 0.0
C689 C 0.41336 1.00949 0.78424 0.0
C690 C 0.41727 0.98633 0.58989 0.0
Eu691 Eu 0.42867 0.99281 0.68239 0.0
C692 C 0.42085 0.98907 0.53346 0.0
C693 C 0.41382 0.97435 0.49618 0.0
C694 C 0.41702 0.97623 0.44254 0.0
C695 C 0.42736 0.99297 0.42465 0.0
C696 C 0.43449 1.00762 0.46238 0.0
C697 C 0.43128 1.00567 0.51621 0.0
C698 C 0.43145 0.95376 0.75262 0.0
C699 C 0.46153 0.99631 0.66262 0.0
O700 O 0.45713 0.98275 0.83778 0.0
O701 O 0.45556 0.02368 0.84121 0.0
O702 O 0.45557 0.03811 0.7333 0.0
O703 O 0.43448 0.02913 0.72243 0.0
O704 O 0.42536 1.00533 0.80805 0.0
O705 O 0.41217 1.00889 0.73272 0.0
O706 O 0.41598 1.00706 0.6177 0.0
O707 O 0.4237 0.96843 0.61558 0.0
O708 O 0.41989 0.96034 0.7308 0.0
O709 O 0.44113 0.96757 0.73537 0.0
O710 O 0.44907 1.00033 0.64414 0.0
O711 O 0.46374 0.99278 0.71348 0.0
H712 H 0.47656 1.00804 0.94828 0.0
H713 H 0.47114 1.00664 0.04228 0.0
H714 H 0.42812 0.99325 1.00529 0.0
H715 H 0.43367 0.99503 0.91105 0.0
H716 H 0.40584 0.96124 0.50861 0.0
H717 H 0.41149 0.96423 0.41515 0.0
H718 H 0.44243 0.02086 0.45032 0.0
H719 H 0.43692 0.01714 0.54429 0.0
C720 C 0.78179 0.99624 0.41106 0.0
Eu721 Eu 0.79385 1.00347 0.5016 0.0
C722 C 0.78363 1.00299 0.3552 0.0
C723 C 0.77254 1.00008 0.32025 0.0
C724 C 0.7745 1.00329 0.26607 0.0
C725 C 0.78764 1.00939 0.24571 0.0
C726 C 0.79863 0.01321 0.28125 0.0
C727 C 0.79664 1.01004 0.33546 0.0
C728 C 0.80124 0.04725 0.55142 0.0
C729 C 0.82767 1.009 0.49936 0.0
C730 C 0.8228 0.98695 0.69657 0.0
Eu731 Eu 0.81202 0.99081 0.60296 0.0
C732 C 0.81872 0.99217 0.75138 0.0
C733 C 0.82709 0.98344 0.79249 0.0
C734 C 0.82326 0.98754 0.8449 0.0
C735 C 0.81095 1.00047 0.85732 0.0
C736 C 0.80256 1.00923 0.8158 0.0
C737 C 0.80643 1.00516 0.76328 0.0
C738 C 0.8087 0.95268 0.53161 0.0
C739 C 0.77864 0.99838 0.61413 0.0
O740 O 0.79123 0.98123 0.43069 0.0
O741 O 0.77811 0.01424 0.44372 0.0
O742 O 0.79442 0.04667 0.50732 0.0
O743 O 0.80406 0.02482 0.56453 0.0
O744 O 0.81603 1.00592 0.47237 0.0
O745 O 0.82843 1.00695 0.55112 0.0
O746 O 0.82465 1.00664 0.66592 0.0
O747 O 0.81617 0.96847 0.6732 0.0
O748 O 0.81986 0.95646 0.55897 0.0
O749 O 0.79947 0.96846 0.54537 0.0
O750 O 0.79087 0.99635 0.63641 0.0
O751 O 0.77676 0.99951 0.56245 0.0
H752 H 0.76242 0.99462 0.33474 0.0
H753 H 0.76575 1.00064 0.24004 0.0
H754 H 0.80892 0.01765 0.26709 0.0
H755 H 0.80537 0.01227 0.36179 0.0
H756 H 0.83655 0.97323 0.78405 0.0
H757 H 0.82985 0.98014 0.87573 0.0
H758 H 0.79308 0.01944 0.82387 0.0
H759 H 0.79983 0.01209 0.73206 0.0
C760 C 0.45659 0.26308 0.41801 0.0
Eu761 Eu 0.44519 0.26479 0.51138 0.0
C762 C 0.45279 0.26543 0.36168 0.0
C763 C 0.45829 0.24812 0.32538 0.0
C764 C 0.45516 0.24999 0.27172 0.0
C765 C 0.44645 0.26933 0.25288 0.0
C766 C 0.44092 0.28669 0.28942 0.0
C767 C 0.44402 0.28472 0.34328 0.0
C768 C 0.44264 0.22564 0.58 0.0
C769 C 0.4114 0.25881 0.50224 0.0
C770 C 0.41523 0.28317 0.69521 0.0
Eu771 Eu 0.42687 0.27725 0.60283 0.0
C772 C 0.41907 0.28209 0.75154 0.0
C773 C 0.40928 0.28885 0.78976 0.0
C774 C 0.41261 0.288 0.84339 0.0
C775 C 0.42586 0.28041 0.86017 0.0
C776 C 0.43568 0.27364 0.82152 0.0
C777 C 0.43231 0.27445 0.7678 0.0
C778 C 0.42917 0.31466 0.52885 0.0
C779 C 0.46021 0.27621 0.61969 0.0
O780 O 0.45611 0.28354 0.44707 0.0
O781 O 0.45203 0.24308 0.44286 0.0
O782 O 0.45392 0.23139 0.55495 0.0
O783 O 0.43286 0.24023 0.56622 0.0
O784 O 0.42333 0.26252 0.47768 0.0
O785 O 0.41032 0.26034 0.55372 0.0
O786 O 0.41531 0.26175 0.66935 0.0
O787 O 0.42047 0.30177 0.66772 0.0
O788 O 0.41776 0.30883 0.55291 0.0
O789 O 0.43897 0.30124 0.54637 0.0
O790 O 0.44779 0.27526 0.6404 0.0
O791 O 0.4623 0.27485 0.56834 0.0
H792 H 0.46513 0.23315 0.33854 0.0
H793 H 0.45977 0.2365 0.24483 0.0
H794 H 0.43406 0.30165 0.2765 0.0
H795 H 0.43956 0.29829 0.37043 0.0
H796 H 0.39898 0.29472 0.77812 0.0
H797 H 0.40469 0.29295 0.87176 0.0
H798 H 0.44604 0.26799 0.83268 0.0
H799 H 0.44005 0.26912 0.73907 0.0
C800 C 0.16702 0.73611 0.4439 0.0
Eu801 Eu 0.1785 0.74246 0.35149 0.0
C802 C 0.17105 0.7372 0.50001 0.0
C803 C 0.16277 0.72509 0.53772 0.0
C804 C 0.16624 0.72606 0.5912 0.0
C805 C 0.1781 0.73919 0.60829 0.0
C806 C 0.18644 0.7512 0.57017 0.0
C807 C 0.18296 0.75018 0.51658 0.0
C808 C 0.1808 0.70516 0.27738 0.0
C809 C 0.21181 0.74361 0.36817 0.0
C810 C 0.20791 0.75722 0.16664 0.0
Eu811 Eu 0.19667 0.75528 0.26026 0.0
C812 C 0.20399 0.75487 0.11028 0.0
C813 C 0.20619 0.77543 0.07625 0.0
C814 C 0.20313 0.77353 0.02253 0.0
C815 C 0.19785 0.75091 1.00123 0.0
C816 C 0.19558 0.73032 0.03542 0.0
C817 C 0.19859 0.73227 0.08932 0.0
C818 C 0.19412 0.79427 0.32943 0.0
C819 C 0.16289 0.76144 0.25177 0.0
O820 O 0.16689 0.75755 0.41815 0.0
O821 O 0.17225 0.71762 0.4161 0.0
O822 O 0.16939 0.71099 0.30138 0.0
O823 O 0.1906 0.71863 0.29469 0.0
O824 O 0.19941 0.74458 0.38913 0.0
O825 O 0.21382 0.74505 0.31679 0.0
O826 O 0.20763 0.73676 0.19572 0.0
O827 O 0.20339 0.77716 0.19185 0.0
O828 O 0.20541 0.78856 0.30436 0.0
O829 O 0.18436 0.77968 0.31534 0.0
O830 O 0.17477 0.75775 0.22688 0.0
O831 O 0.16188 0.75959 0.3032 0.0
H832 H 0.15353 0.71499 0.52581 0.0
H833 H 0.15946 0.71688 0.61928 0.0
H834 H 0.19574 0.7612 0.58168 0.0
H835 H 0.18955 0.75958 0.48814 0.0
H836 H 0.21045 0.79299 0.09118 0.0
H837 H 0.20519 0.78967 0.99744 0.0
H838 H 0.19139 0.7127 0.02058 0.0
H839 H 0.19674 0.71604 0.1144 0.0
C840 C 0.5734 0.03564 0.44779 0.0
Eu841 Eu 0.56341 0.02928 0.35367 0.0
C842 C 0.56916 0.02929 0.50214 0.0
C843 C 0.57916 0.02193 0.53906 0.0
C844 C 0.57542 0.01722 0.59143 0.0
C845 C 0.56159 0.01991 0.60795 0.0
C846 C 0.55154 0.02672 0.57052 0.0
C847 C 0.55528 0.03132 0.51817 0.0
C848 C 0.559 0.06749 0.28339 0.0
C849 C 0.53067 0.01544 0.36857 0.0
C850 C 0.5328 0.02207 0.1641 0.0
Eu851 Eu 0.54488 0.01583 0.25489 0.0
C852 C 0.53583 0.01669 0.10813 0.0
C853 C 0.52523 1.00841 0.07464 0.0
C854 C 0.52768 1.00536 0.02063 0.0
C855 C 0.54077 0.01074 0.99885 0.0
C856 C 0.55146 0.01843 0.03297 0.0
C857 C 0.54904 0.02124 0.08694 0.0
C858 C 0.55323 0.97219 0.3028 0.0
C859 C 0.57891 0.0122 0.25021 0.0
O860 O 0.57704 0.01674 0.41725 0.0
O861 O 0.56583 0.05256 0.42343 0.0
O862 O 0.57044 0.06382 0.30886 0.0
O863 O 0.55001 0.05133 0.29794 0.0
O864 O 0.54325 0.01709 0.38798 0.0
O865 O 0.52803 0.0181 0.31757 0.0
O866 O 0.54064 0.03909 0.18661 0.0
O867 O 0.53016 1.0028 0.19497 0.0
O868 O 0.54593 0.9727 0.25991 0.0
O869 O 0.556 0.99466 0.316 0.0
O870 O 0.56706 0.01498 0.2243 0.0
O871 O 0.57992 0.01384 0.30195 0.0
H872 H 0.58992 0.02027 0.52758 0.0
H873 H 0.58342 0.01222 0.61934 0.0
H874 H 0.54077 0.02858 0.58175 0.0
H875 H 0.54733 0.03684 0.49046 0.0
H876 H 0.51498 1.00473 0.09013 0.0
H877 H 0.51925 0.99895 0.99593 0.0
H878 H 0.56162 0.02311 0.01788 0.0
H879 H 0.55744 0.0276 0.11185 0.0
C880 C 0.16747 0.03254 0.34115 0.0
Eu881 Eu 0.17894 0.02725 0.43389 0.0
C882 C 0.17142 0.03099 0.2848 0.0
C883 C 0.16422 0.0456 0.24783 0.0
C884 C 0.16756 0.04436 0.1942 0.0
C885 C 0.1782 0.02836 0.17597 0.0
C886 C 0.18556 0.01395 0.21344 0.0
C887 C 0.18221 0.01527 0.26724 0.0
C888 C 0.18149 0.06578 0.50527 0.0
C889 C 0.21206 0.02665 0.4143 0.0
C890 C 0.20954 0.01336 0.61714 0.0
Eu891 Eu 0.19769 0.01558 0.52437 0.0
C892 C 0.20602 0.01609 0.67362 0.0
C893 C 0.21648 0.0136 0.71148 0.0
C894 C 0.21342 0.01542 0.7653 0.0
C895 C 0.19977 0.01971 0.78266 0.0
C896 C 0.1893 0.02233 0.74438 0.0
C897 C 0.1924 0.0206 0.69044 0.0
C898 C 0.1947 0.97589 0.45712 0.0
C899 C 0.16384 1.01007 0.53566 0.0
O900 O 0.16728 0.01142 0.36804 0.0
O901 O 0.1727 0.05133 0.36805 0.0
O902 O 0.17012 0.05991 0.48112 0.0
O903 O 0.19127 0.05185 0.48893 0.0
O904 O 0.19953 0.02391 0.39543 0.0
O905 O 0.21447 0.02656 0.46561 0.0
O906 O 0.20913 0.03381 0.58824 0.0
O907 O 0.20438 0.99374 0.59274 0.0
O908 O 0.20618 0.98199 0.48039 0.0
O909 O 0.18505 0.99059 0.47169 0.0
O910 O 0.17584 0.0143 0.5593 0.0
O911 O 0.1626 0.01071 0.4842 0.0
H912 H 0.15594 0.05804 0.26047 0.0
H913 H 0.16184 0.05618 0.16708 0.0
H914 H 0.19375 1.00127 0.20118 0.0
H915 H 0.188 1.00388 0.29503 0.0
H916 H 0.22706 1.01001 0.69942 0.0
H917 H 0.22173 0.01295 0.79337 0.0
H918 H 0.1787 0.02595 0.75607 0.0
H919 H 0.18416 0.02271 0.66193 0.0
C920 C 0.57283 0.73908 0.3383 0.0
Eu921 Eu 0.56189 0.74604 0.43099 0.0
C922 C 0.56958 0.74404 0.28256 0.0
C923 C 0.57673 0.73068 0.24347 0.0
C924 C 0.57313 0.7334 0.19048 0.0
C925 C 0.56223 0.74951 0.17539 0.0
C926 C 0.55527 0.76337 0.21473 0.0
C927 C 0.55891 0.76062 0.26788 0.0
C928 C 0.55752 0.70773 0.50107 0.0
C929 C 0.52902 0.75887 0.41578 0.0
C930 C 0.53052 0.74933 0.61953 0.0
Eu931 Eu 0.54289 0.75813 0.53002 0.0
C932 C 0.53324 0.75148 0.67688 0.0
C933 C 0.53329 0.77494 0.70312 0.0
C934 C 0.53568 0.77616 0.75755 0.0
C935 C 0.53803 0.75397 0.78697 0.0
C936 C 0.53799 0.73059 0.76044 0.0
C937 C 0.53558 0.72937 0.70627 0.0
C938 C 0.55102 0.80231 0.48347 0.0
C939 C 0.57687 0.76284 0.53571 0.0
O940 O 0.5757 0.75865 0.3682 0.0
O941 O 0.56489 0.72245 0.36177 0.0
O942 O 0.56919 0.712 0.4775 0.0
O943 O 0.54852 0.7235 0.48546 0.0
O944 O 0.54165 0.75793 0.39627 0.0
O945 O 0.52632 0.75575 0.46663 0.0
O946 O 0.53791 0.73254 0.59419 0.0
O947 O 0.52857 0.77007 0.59212 0.0
O948 O 0.54355 0.80135 0.52606 0.0
O949 O 0.55396 0.77999 0.46971 0.0
O950 O 0.56502 0.75912 0.56132 0.0
O951 O 0.57793 0.7621 0.48387 0.0
H952 H 0.58499 0.71779 0.25402 0.0
H953 H 0.57888 0.72277 0.16127 0.0
H954 H 0.54677 0.77578 0.20463 0.0
H955 H 0.55325 0.77105 0.29756 0.0
H956 H 0.53143 0.79234 0.68174 0.0
H957 H 0.53549 0.79447 0.77671 0.0
H958 H 0.53999 0.71313 0.78143 0.0
H959 H 0.53556 0.711 0.68728 0.0
C960 C 0.78026 0.7604 0.36638 0.0
Eu961 Eu 0.79219 0.76239 0.27359 0.0
C962 C 0.78376 0.76324 0.42286 0.0
C963 C 0.7732 0.76185 0.46068 0.0
C964 C 0.77625 0.76366 0.51451 0.0
C965 C 0.78997 0.76683 0.53193 0.0
C966 C 0.80054 0.76841 0.4937 0.0
C967 C 0.79745 0.76671 0.43976 0.0
C968 C 0.79513 0.7225 0.20683 0.0
C969 C 0.82603 0.75708 0.28557 0.0
C970 C 0.8227 0.77822 0.09013 0.0
Eu971 Eu 0.81116 0.77356 0.18301 0.0
C972 C 0.81867 0.77694 0.03385 0.0
C973 C 0.8263 0.79068 0.99659 0.0
C974 C 0.82289 0.78965 0.94302 0.0
C975 C 0.81175 0.77475 0.92513 0.0
C976 C 0.80396 0.76126 0.96289 0.0
C977 C 0.80738 0.76235 0.01663 0.0
C978 C 0.80858 0.8123 0.25399 0.0
C979 C 0.77806 0.77417 0.16357 0.0
O980 O 0.78071 0.78079 0.33729 0.0
O981 O 0.7854 0.74072 0.34214 0.0
O982 O 0.78364 0.72879 0.22984 0.0
O983 O 0.80482 0.73715 0.22121 0.0
O984 O 0.81398 0.76148 0.30878 0.0
O985 O 0.82738 0.75725 0.23411 0.0
O986 O 0.82251 0.75707 0.11696 0.0
O987 O 0.81785 0.7973 0.1172 0.0
O988 O 0.81997 0.80636 0.22995 0.0
O989 O 0.79882 0.7984 0.23748 0.0
O990 O 0.79055 0.77087 0.14467 0.0
O991 O 0.77559 0.77405 0.21485 0.0
H992 H 0.76256 0.75909 0.44858 0.0
H993 H 0.76785 0.76204 0.54255 0.0
H994 H 0.8112 0.77118 0.50542 0.0
H995 H 0.80577 0.76801 0.41131 0.0
H996 H 0.83497 0.80224 1.00895 0.0
H997 H 0.82897 0.80078 0.91567 0.0
H998 H 0.79538 0.74943 0.95092 0.0
H999 H 0.80127 0.75167 0.04464 0.0
C1000 C 0.45961 0.48784 0.36894 0.0
Eu1001 Eu 0.44837 0.49958 0.27866 0.0
C1002 C 0.45754 0.49368 0.4254 0.0
C1003 C 0.46832 0.48952 0.4613 0.0
C1004 C 0.46611 0.49251 0.51553 0.0
C1005 C 0.45303 0.49968 0.5351 0.0
C1006 C 0.44236 0.5045 0.49867 0.0
C1007 C 0.44459 0.50154 0.44448 0.0
C1008 C 0.44432 0.54605 0.23402 0.0
C1009 C 0.41506 0.51362 0.28656 0.0
C1010 C 0.41678 0.4922 0.08788 0.0
Eu1011 Eu 0.42818 0.49379 0.18099 0.0
C1012 C 0.42101 0.49536 0.03233 0.0
C1013 C 0.41226 0.48669 0.99227 0.0
C1014 C 0.41619 0.48866 0.93937 0.0
C1015 C 0.42902 0.49931 0.92519 0.0
C1016 C 0.43781 0.50798 0.96564 0.0
C1017 C 0.43383 0.50608 0.01867 0.0
C1018 C 0.42988 0.45405 0.24937 0.0
C1019 C 0.46166 0.49186 0.1638 0.0
O1020 O 0.44973 0.47477 0.34656 0.0
O1021 O 0.46436 0.50592 0.33853 0.0
O1022 O 0.45203 0.542 0.27508 0.0
O1023 O 0.43915 0.52519 0.21947 0.0
O1024 O 0.42662 0.50675 0.31107 0.0
O1025 O 0.41376 0.51359 0.23489 0.0
O1026 O 0.41683 0.51248 0.11766 0.0
O1027 O 0.42171 0.47227 0.11205 0.0
O1028 O 0.41847 0.46146 0.22724 0.0
O1029 O 0.43985 0.4675 0.23316 0.0
O1030 O 0.44914 0.49537 0.14487 0.0
O1031 O 0.46431 0.49064 0.21506 0.0
H1032 H 0.47839 0.48342 0.44748 0.0
H1033 H 0.47464 0.48903 0.54214 0.0
H1034 H 0.43212 0.50977 0.51205 0.0
H1035 H 0.43609 0.50474 0.41758 0.0
H1036 H 0.40238 0.47816 1.00195 0.0
H1037 H 0.40924 0.48137 0.90958 0.0
H1038 H 0.44771 0.51647 0.95635 0.0
H1039 H 0.44076 0.51293 0.04893 0.0
C1040 C 0.78147 0.5008 0.9193 0.0
Eu1041 Eu 0.79293 0.50044 1.01273 0.0
C1042 C 0.78557 0.49908 0.86275 0.0
C1043 C 0.78489 0.52071 0.83059 0.0
C1044 C 0.7881 0.51936 0.77681 0.0
C1045 C 0.79198 0.49626 0.7534 0.0
C1046 C 0.7927 0.47459 0.78566 0.0
C1047 C 0.78955 0.47597 0.83959 0.0
C1048 C 0.79572 0.54075 0.07826 0.0
C1049 C 0.82671 0.50724 0.99997 0.0
C1050 C 0.82378 0.48454 0.19466 0.0
Eu1051 Eu 0.81203 0.48982 0.10242 0.0
C1052 C 0.81988 0.48609 0.25107 0.0
C1053 C 0.82715 0.4716 0.28809 0.0
C1054 C 0.82368 0.47257 0.34165 0.0
C1055 C 0.8128 0.48808 0.35966 0.0
C1056 C 0.80549 0.50258 0.32227 0.0
C1057 C 0.80898 0.50158 0.26859 0.0
C1058 C 0.80942 0.45125 0.03099 0.0
C1059 C 0.77896 0.48998 0.12363 0.0
O1060 O 0.78259 0.48046 0.94844 0.0
O1061 O 0.78505 0.52129 0.94476 0.0
O1062 O 0.78426 0.53423 0.05533 0.0
O1063 O 0.80551 0.52617 0.06426 0.0
O1064 O 0.81466 0.50278 0.97693 0.0
O1065 O 0.82811 0.50671 0.05139 0.0
O1066 O 0.82389 0.50567 0.16776 0.0
O1067 O 0.81854 0.46573 0.16788 0.0
O1068 O 0.82097 0.45782 0.05307 0.0
O1069 O 0.79967 0.46466 0.04904 0.0
O1070 O 0.79151 0.4934 0.14182 0.0
O1071 O 0.77645 0.48918 0.07239 0.0
H1072 H 0.7817 0.53873 0.84694 0.0
H1073 H 0.78721 0.53637 0.75332 0.0
H1074 H 0.79579 0.45653 0.7693 0.0
H1075 H 0.79016 0.45887 0.86297 0.0
H1076 H 0.83559 0.45952 0.27556 0.0
H1077 H 0.82969 0.46141 0.36908 0.0
H1078 H 0.79694 0.51448 0.33436 0.0
H1079 H 0.80314 0.51285 0.24078 0.0
C1080 C 0.46011 0.76153 0.91066 0.0
Eu1081 Eu 0.44825 0.76139 1.00353 0.0
C1082 C 0.45648 0.76295 0.85424 0.0
C1083 C 0.46698 0.76088 0.8164 0.0
C1084 C 0.46386 0.76185 0.76262 0.0
C1085 C 0.45012 0.76488 0.74534 0.0
C1086 C 0.43959 0.76696 0.78357 0.0
C1087 C 0.44274 0.76606 0.8375 0.0
C1088 C 0.44572 0.72063 0.06804 0.0
C1089 C 0.41446 0.75441 0.99441 0.0
C1090 C 0.4185 0.77822 0.18792 0.0
Eu1091 Eu 0.42991 0.77184 0.09539 0.0
C1092 C 0.42207 0.77555 0.24426 0.0
C1093 C 0.41471 0.78967 0.28167 0.0
C1094 C 0.41789 0.7878 0.33527 0.0
C1095 C 0.42852 0.77167 0.35293 0.0
C1096 C 0.43597 0.75762 0.31508 0.0
C1097 C 0.43278 0.75957 0.26128 0.0
C1098 C 0.43217 0.81067 0.02428 0.0
C1099 C 0.46283 0.76996 0.11321 0.0
O1100 O 0.4581 0.78191 0.93887 0.0
O1101 O 0.45648 0.74096 0.93562 0.0
O1102 O 0.45703 0.72704 0.04383 0.0
O1103 O 0.43593 0.73555 0.05593 0.0
O1104 O 0.42633 0.75892 0.96987 0.0
O1105 O 0.41345 0.75503 0.04598 0.0
O1106 O 0.41731 0.75743 0.16024 0.0
O1107 O 0.42487 0.79619 0.16218 0.0
O1108 O 0.42073 0.8039 0.04688 0.0
O1109 O 0.44199 0.79716 0.04124 0.0
O1110 O 0.45053 0.76532 0.13278 0.0
O1111 O 0.46479 0.77313 0.06213 0.0
H1112 H 0.47764 0.75837 0.82849 0.0
H1113 H 0.47223 0.75981 0.73453 0.0
H1114 H 0.42892 0.7696 0.77186 0.0
H1115 H 0.43447 0.76779 0.86605 0.0
H1116 H 0.4065 0.8023 0.26936 0.0
H1117 H 0.41211 0.79932 0.36283 0.0
H1118 H 0.44414 0.74485 0.32701 0.0
H1119 H 0.43866 0.74856 0.23306 0.0
C1120 C 0.16744 0.24334 0.94412 0.0
Eu1121 Eu 0.1784 0.24598 0.85051 0.0
C1122 C 0.17166 0.24806 0.999 0.0
C1123 C 0.1631 0.23984 0.0401 0.0
C1124 C 0.16703 0.24345 0.09254 0.0
C1125 C 0.17965 0.25537 0.10502 0.0
C1126 C 0.18822 0.2636 0.06351 0.0
C1127 C 0.18424 0.26002 1.01097 0.0
C1128 C 0.18155 0.20731 0.78044 0.0
C1129 C 0.21187 0.25156 0.86228 0.0
C1130 C 0.20906 0.24965 0.65895 0.0
Eu1131 Eu 0.19693 0.25753 0.74929 0.0
C1132 C 0.20729 0.25627 0.60297 0.0
C1133 C 0.2183 0.25262 0.56782 0.0
C1134 C 0.21634 0.25578 0.51361 0.0
C1135 C 0.2033 0.26258 0.49342 0.0
C1136 C 0.19241 0.26709 0.52913 0.0
C1137 C 0.19439 0.26397 0.58336 0.0
C1138 C 0.18985 0.30178 0.79805 0.0
C1139 C 0.16312 0.26354 0.74579 0.0
O1140 O 0.16629 0.26321 0.91348 0.0
O1141 O 0.17341 0.22414 0.92072 0.0
O1142 O 0.17037 0.21155 0.80746 0.0
O1143 O 0.1909 0.22294 0.79376 0.0
O1144 O 0.19958 0.25007 0.88432 0.0
O1145 O 0.21386 0.25285 0.81062 0.0
O1146 O 0.1995 0.23493 0.67877 0.0
O1147 O 0.21283 0.26768 0.69138 0.0
O1148 O 0.19678 0.30077 0.75421 0.0
O1149 O 0.18677 0.27949 0.81145 0.0
O1150 O 0.17482 0.26003 0.71933 0.0
O1151 O 0.16224 0.26207 0.79763 0.0
H1152 H 0.1534 0.2304 0.03163 0.0
H1153 H 0.16028 0.23646 0.12332 0.0
H1154 H 0.19793 0.27304 0.0716 0.0
H1155 H 0.191 0.26654 0.97977 0.0
H1156 H 0.22833 0.24665 0.58219 0.0
H1157 H 0.22502 0.25256 0.48746 0.0
H1158 H 0.18219 0.27208 0.51512 0.0
H1159 H 0.18573 0.26676 0.60982 0.0
C1160 C 0.56972 0.52951 0.93745 0.0
Eu1161 Eu 0.55841 0.52701 0.84434 0.0
C1162 C 0.56557 0.52581 0.99285 0.0
C1163 C 0.57413 0.535 0.033 0.0
C1164 C 0.57027 0.53246 0.08583 0.0
C1165 C 0.55772 0.52064 0.09977 0.0
C1166 C 0.54913 0.51146 0.05921 0.0
C1167 C 0.55303 0.514 1.00625 0.0
C1168 C 0.55583 0.56654 0.77607 0.0
C1169 C 0.52493 0.52369 0.85901 0.0
C1170 C 0.52747 0.52903 0.65546 0.0
Eu1171 Eu 0.53928 0.51855 0.74528 0.0
C1172 C 0.52966 0.52353 0.59904 0.0
C1173 C 0.51871 0.52651 0.56344 0.0
C1174 C 0.52091 0.52364 0.50923 0.0
C1175 C 0.53416 0.51778 0.48947 0.0
C1176 C 0.54503 0.51417 0.52559 0.0
C1177 C 0.5428 0.517 0.57977 0.0
C1178 C 0.54489 0.47256 0.78952 0.0
C1179 C 0.57291 0.5093 0.73896 0.0
O1180 O 0.57023 0.50929 0.90755 0.0
O1181 O 0.56421 0.54898 0.91349 0.0
O1182 O 0.56728 0.56041 0.79953 0.0
O1183 O 0.54617 0.55195 0.79091 0.0
O1184 O 0.53737 0.52369 0.87995 0.0
O1185 O 0.52265 0.52365 0.80754 0.0
O1186 O 0.53685 0.54332 0.67772 0.0
O1187 O 0.52352 0.51027 0.6857 0.0
O1188 O 0.53752 0.47579 0.74728 0.0
O1189 O 0.54914 0.49396 0.80518 0.0
O1190 O 0.56123 0.51445 0.71363 0.0
O1191 O 0.57394 0.50963 0.79076 0.0
H1192 H 0.58378 0.54438 0.02346 0.0
H1193 H 0.57703 0.54019 0.11575 0.0
H1194 H 0.53947 0.50208 0.06836 0.0
H1195 H 0.54625 0.50679 0.97584 0.0
H1196 H 0.50848 0.53154 0.57749 0.0
H1197 H 0.51224 0.52616 0.48278 0.0
H1198 H 0.5554 0.50994 0.51197 0.0
H1199 H 0.55143 0.51472 0.60652 0.0
C1200 C 0.16689 0.53158 0.83313 0.0
Eu1201 Eu 0.17821 0.52815 0.92591 0.0
C1202 C 0.171 0.52791 0.77772 0.0
C1203 C 0.16278 0.53817 0.7377 0.0
C1204 C 0.16656 0.53537 0.68485 0.0
C1205 C 0.17869 0.52221 0.6708 0.0
C1206 C 0.18696 0.51202 0.71124 0.0
C1207 C 0.18315 0.51483 0.76421 0.0
C1208 C 0.18119 0.56599 0.99774 0.0
C1209 C 0.21176 0.52356 0.91189 0.0
C1210 C 0.20957 0.52521 0.11548 0.0
Eu1211 Eu 0.19735 0.51675 0.02562 0.0
C1212 C 0.20711 0.52018 0.17187 0.0
C1213 C 0.21808 0.52207 0.20769 0.0
C1214 C 0.21569 0.51973 0.26187 0.0
C1215 C 0.20224 0.5155 0.28139 0.0
C1216 C 0.19132 0.51295 0.24507 0.0
C1217 C 0.19373 0.51526 0.19089 0.0
C1218 C 0.19052 0.47254 0.97619 0.0
C1219 C 0.16364 0.50916 0.03092 0.0
O1220 O 0.16615 0.51122 0.86257 0.0
O1221 O 0.17261 0.55077 0.85747 0.0
O1222 O 0.16979 0.56131 0.97252 0.0
O1223 O 0.19067 0.55115 0.98228 0.0
O1224 O 0.19936 0.52514 0.8907 0.0
O1225 O 0.21397 0.52178 0.96333 0.0
O1226 O 0.20096 0.54102 0.09318 0.0
O1227 O 0.21256 0.50583 0.08533 0.0
O1228 O 0.19766 0.47355 0.0195 0.0
O1229 O 0.18717 0.49479 0.96349 0.0
O1230 O 0.17536 0.51336 0.0568 0.0
O1231 O 0.16257 0.51059 0.97913 0.0
H1232 H 0.15343 0.54852 0.74736 0.0
H1233 H 0.16007 0.54389 0.65501 0.0
H1234 H 0.1963 0.5016 0.70198 0.0
H1235 H 0.18967 0.50679 0.79456 0.0
H1236 H 0.22848 0.52587 0.19381 0.0
H1237 H 0.22438 0.5214 0.2885 0.0
H1238 H 0.18081 0.50998 0.25852 0.0
H1239 H 0.18508 0.51385 0.16395 0.0
C1240 C 0.57143 0.24098 0.84197 0.0
Eu1241 Eu 0.5601 0.24684 0.9349 0.0
C1242 C 0.56747 0.24285 0.78573 0.0
C1243 C 0.57434 0.22779 0.74852 0.0
C1244 C 0.57088 0.22915 0.69504 0.0
C1245 C 0.56045 0.24567 0.67733 0.0
C1246 C 0.55351 0.26071 0.71488 0.0
C1247 C 0.55695 0.25926 0.76854 0.0
C1248 C 0.55752 0.20849 1.00686 0.0
C1249 C 0.527 0.24793 0.91611 0.0
C1250 C 0.52985 0.26199 0.11857 0.0
Eu1251 Eu 0.5416 0.25911 0.02563 0.0
C1252 C 0.53331 0.25927 0.17504 0.0
C1253 C 0.52289 0.26246 0.21285 0.0
C1254 C 0.52591 0.2608 0.26668 0.0
C1255 C 0.53949 0.25597 0.28416 0.0
C1256 C 0.54992 0.2525 0.24589 0.0
C1257 C 0.54686 0.25412 0.19191 0.0
C1258 C 0.54455 0.29857 0.95777 0.0
C1259 C 0.57549 0.26372 0.03604 0.0
O1260 O 0.57202 0.26204 0.869 0.0
O1261 O 0.56586 0.22249 0.8688 0.0
O1262 O 0.56885 0.21416 0.98214 0.0
O1263 O 0.54777 0.22252 0.99075 0.0
O1264 O 0.5395 0.25068 0.89688 0.0
O1265 O 0.5247 0.24799 0.96752 0.0
O1266 O 0.53 0.24145 0.08985 0.0
O1267 O 0.53524 0.28133 0.09398 0.0
O1268 O 0.53313 0.2927 0.98173 0.0
O1269 O 0.55421 0.28381 0.972 0.0
O1270 O 0.56349 0.25979 0.06 0.0
O1271 O 0.57663 0.2631 0.98455 0.0
H1272 H 0.58248 0.21499 0.76084 0.0
H1273 H 0.57657 0.21751 0.6674 0.0
H1274 H 0.5453 0.2734 0.70289 0.0
H1275 H 0.55139 0.27093 0.79654 0.0
H1276 H 0.51236 0.26636 0.20073 0.0
H1277 H 0.51753 0.26311 0.2946 0.0
H1278 H 0.56051 0.249 0.25757 0.0
H1279 H 0.55508 0.25158 0.16343 0.0
H1280 H 0.21727 0.22125 0.94509 0.0
H1281 H 0.23115 0.28898 0.86673 0.0
H1282 H 0.23203 0.2308 0.02012 0.0
H1283 H 0.2454 0.2996 0.94285 0.0
H1284 H 0.27976 0.2974 0.06512 0.0
H1285 H 0.26479 0.29046 0.99087 0.0
H1286 H 0.23417 0.25698 0.09394 0.0
H1287 H 0.24994 0.26241 0.16877 0.0
C1288 C 0.22379 0.23793 0.94359 0.0
C1289 C 0.22341 0.25403 0.89964 0.0
C1290 C 0.23199 0.24378 0.98716 0.0
C1291 C 0.2398 0.26623 0.9884 0.0
C1292 C 0.23971 0.28196 0.94341 0.0
C1293 C 0.23167 0.27581 0.89935 0.0
C1294 C 0.26974 0.28885 0.07231 0.0
C1295 C 0.26611 0.28014 0.12285 0.0
C1296 C 0.26106 0.285 0.02941 0.0
C1297 C 0.24828 0.27277 0.03573 0.0
C1298 C 0.24412 0.26583 0.08718 0.0
C1299 C 0.253 0.26938 0.13039 0.0
H1300 H 0.00869 0.98351 0.86965 0.0
H1301 H 0.02268 0.05105 0.94845 0.0
H1302 H 0.9945 0.97275 0.94597 0.0
H1303 H 0.00799 0.04136 0.02367 0.0
H1304 H 0.9901 1.00983 0.17201 0.0
H1305 H 0.00593 0.01487 0.09717 0.0
H1306 H 0.9751 0.98218 0.9941 0.0
H1307 H 0.96004 0.97563 0.06839 0.0
C1308 C 0.00822 0.99659 0.90246 0.0
C1309 C 0.01649 0.01835 0.90285 0.0
C1310 C 0.00022 0.99036 0.9466 0.0
C1311 C 0.00018 1.006 0.99171 0.0
C1312 C 0.00801 0.02843 0.99059 0.0
C1313 C 0.01617 0.03436 0.94695 0.0
C1314 C 0.98701 1.00292 0.13364 0.0
C1315 C 0.97381 0.99255 0.12605 0.0
C1316 C -0.00408 1.00625 0.09044 0.0
C1317 C 0.99171 0.99946 0.03901 0.0
C1318 C 0.97886 0.98752 0.03266 0.0
C1319 C 0.97013 0.98389 0.07555 0.0
H1320 H 0.23929 0.01048 0.4216 0.0
H1321 H 0.20952 0.04308 0.31469 0.0
H1322 H 0.25503 1.00316 0.34728 0.0
H1323 H 0.2243 0.03392 0.24119 0.0
H1324 H 0.25732 0.02989 0.11625 0.0
H1325 H 0.24314 0.04172 0.19144 0.0
H1326 H 0.25802 0.97611 0.2764 0.0
H1327 H 0.27293 0.96568 0.20212 0.0
C1328 C 0.23623 0.01647 0.38255 0.0
C1329 C 0.22315 0.02718 0.37407 0.0
C1330 C 0.24508 0.01179 0.33964 0.0
C1331 C 0.2409 0.01744 0.28755 0.0
C1332 C 0.22811 0.02948 0.28015 0.0
C1333 C 0.2195 0.03459 0.3227 0.0
C1334 C 0.25716 0.01761 0.15041 0.0
C1335 C 0.2659 0.99654 0.15301 0.0
C1336 C 0.24912 0.02446 0.19398 0.0
C1337 C 0.24942 1.01003 0.24079 0.0
C1338 C 0.25771 0.98815 0.24196 0.0
C1339 C 0.266 0.98172 0.19886 0.0
H1340 H 0.0215 0.21893 0.33623 0.0
H1341 H 0.00888 0.28857 0.41032 0.0
H1342 H 0.00725 0.22866 0.2599 0.0
H1343 H -0.00476 0.29939 0.33284 0.0
H1344 H 0.9613 0.29848 0.20886 0.0
H1345 H 0.97591 0.29154 0.28416 0.0
H1346 H 0.00585 0.25378 0.18464 0.0
H1347 H 0.99035 0.25914 0.109 0.0
C1348 C 0.01537 0.2361 0.33648 0.0
C1349 C 0.01593 0.25267 0.37964 0.0
C1350 C 0.00747 0.24204 0.29216 0.0
C1351 C 0.0002 0.26506 0.28932 0.0
C1352 C 0.00049 0.28131 0.33348 0.0
C1353 C 0.00819 0.27506 0.37833 0.0
C1354 C 0.97111 0.28899 0.20273 0.0
C1355 C 0.97459 0.27901 0.15308 0.0
C1356 C 0.97959 0.28513 0.24618 0.0
C1357 C 0.99204 0.27167 0.24123 0.0
C1358 C -0.00386 0.26357 0.19043 0.0
C1359 C 0.98743 0.26709 0.14671 0.0
H1360 H 0.71908 0.71685 0.94158 0.0
H1361 H 0.73366 0.78446 0.86472 0.0
H1362 H 0.73362 0.72596 0.01757 0.0
H1363 H 0.74751 0.79482 0.94173 0.0
H1364 H 0.78083 0.7938 0.06677 0.0
H1365 H 0.76642 0.78632 0.99135 0.0
H1366 H 0.73559 0.75153 0.09172 0.0
H1367 H 0.75092 0.75731 0.16775 0.0
C1368 C 0.72575 0.73334 0.94057 0.0
C1369 C 0.72564 0.74955 0.89681 0.0
C1370 C 0.73379 0.73898 0.9847 0.0
C1371 C 0.74165 0.76138 0.98666 0.0
C1372 C 0.74183 0.77717 0.94179 0.0
C1373 C 0.73401 0.77117 0.89717 0.0
C1374 C 0.77087 0.78485 0.0731 0.0
C1375 C 0.76708 0.77587 0.12324 0.0
C1376 C 0.7625 0.78068 0.02951 0.0
C1377 C 0.74983 0.76795 0.03471 0.0
C1378 C 0.74547 0.76076 0.08578 0.0
C1379 C 0.75407 0.76454 0.1297 0.0
H1380 H 0.75972 0.03646 0.61521 0.0
H1381 H 0.77282 0.96981 0.69923 0.0
H1382 H 0.74546 0.04894 0.69019 0.0
H1383 H 0.75805 0.98122 0.77314 0.0
H1384 H 0.74048 0.01587 0.9188 0.0
H1385 H 0.75626 1.00896 0.84452 0.0
H1386 H 0.72592 0.04136 0.73903 0.0
H1387 H 0.71092 0.04972 0.81281 0.0
C1388 C 0.75903 0.02394 0.64888 0.0
C1389 C 0.76709 1.00194 0.65112 0.0
C1390 C 0.75099 0.03116 0.69227 0.0
C1391 C 0.75069 0.01631 0.73848 0.0
C1392 C 0.75827 0.99359 0.73918 0.0
C1393 C 0.76648 0.98667 0.69628 0.0
C1394 C 0.73749 0.02229 0.87996 0.0
C1395 C 0.72443 0.03311 0.87162 0.0
C1396 C 0.74637 0.01789 0.8371 0.0
C1397 C 0.74227 0.024 0.78519 0.0
C1398 C 0.72958 0.03644 0.77796 0.0
C1399 C 0.72089 0.04112 0.82055 0.0
H1400 H 0.98271 0.74307 0.61994 0.0
H1401 H 0.9653 0.80537 0.70721 0.0
H1402 H -0.0023 0.73306 0.69401 0.0
H1403 H 0.98089 0.79671 0.78033 0.0
H1404 H 0.00134 0.76309 0.92415 0.0
H1405 H 0.98518 0.7696 0.8509 0.0
H1406 H 0.01658 0.74403 0.74161 0.0
H1407 H 0.03188 0.73566 0.81358 0.0
C1408 C 0.98258 0.75532 0.65417 0.0
C1409 C 0.97312 0.77531 0.65752 0.0
C1410 C 0.99109 0.74952 0.69705 0.0
C1411 C 0.99053 0.76396 0.74386 0.0
C1412 C 0.98144 0.78472 0.74583 0.0
C1413 C 0.97273 0.79011 0.70343 0.0
C1414 C 0.00455 0.75824 0.88455 0.0
C1415 C 0.01795 0.74914 0.87491 0.0
C1416 C -0.00459 0.76237 0.84233 0.0
C1417 C -0.00042 0.75771 0.78977 0.0
C1418 C 0.01279 0.74759 0.78102 0.0
C1419 C 0.0217 0.74305 0.82279 0.0
H1420 H 0.21541 0.71561 0.45613 0.0
H1421 H 0.23312 0.77696 0.36688 0.0
H1422 H 0.23121 0.72433 0.52861 0.0
H1423 H 0.24824 0.78716 0.44031 0.0
H1424 H 0.28253 0.78538 0.5588 0.0
H1425 H 0.26708 0.77665 0.48756 0.0
H1426 H 0.23602 0.75119 0.59848 0.0
H1427 H 0.25243 0.75782 0.67084 0.0
C1428 C 0.22294 0.73068 0.4518 0.0
C1429 C 0.22338 0.74515 0.40548 0.0
C1430 C 0.23177 0.73611 0.49383 0.0
C1431 C 0.241 0.75666 0.4911 0.0
C1432 C 0.24155 0.77083 0.44396 0.0
C1433 C 0.23296 0.76493 0.40143 0.0
C1434 C 0.27242 0.77785 0.56846 0.0
C1435 C 0.26886 0.77179 0.62074 0.0
C1436 C 0.26339 0.77314 0.52713 0.0
C1437 C 0.25021 0.76298 0.53655 0.0
C1438 C 0.24623 0.75841 0.58933 0.0
C1439 C 0.25551 0.76263 0.63107 0.0
H1440 H 0.99167 0.49736 0.67095 0.0
H1441 H 0.95816 0.52396 0.57345 0.0
H1442 H 0.00762 0.50248 0.59599 0.0
H1443 H 0.97354 0.52784 0.4992 0.0
H1444 H 0.00671 0.54903 0.38012 0.0
H1445 H 0.99179 0.54918 0.45817 0.0
H1446 H 0.01205 0.48143 0.51454 0.0
H1447 H 0.02709 0.48197 0.43783 0.0
C1448 C 0.98777 0.50454 0.6339 0.0
C1449 C 0.97367 0.50982 0.62776 0.0
C1450 C -0.00319 0.5072 0.59074 0.0
C1451 C 0.99183 0.51525 0.54108 0.0
C1452 C 0.97785 0.5218 0.53647 0.0
C1453 C 0.96896 0.51925 0.57915 0.0
C1454 C 0.00765 0.53389 0.40863 0.0
C1455 C 0.01788 0.51533 0.40273 0.0
C1456 C -0.00076 0.53404 0.45368 0.0
C1457 C 0.00084 0.51549 0.49332 0.0
C1458 C 0.01075 0.49641 0.48588 0.0
C1459 C 0.01918 0.49642 0.44134 0.0
H1460 H 0.25262 0.51249 0.60813 0.0
H1461 H 0.28217 0.48182 0.71848 0.0
H1462 H 0.23601 0.51787 0.68046 0.0
H1463 H 0.26648 0.48914 0.78995 0.0
H1464 H 0.23229 0.4884 0.91018 0.0
H1465 H 0.2473 0.47849 0.83592 0.0
H1466 H 0.23157 0.54385 0.75242 0.0
H1467 H 0.21596 0.55244 0.82555 0.0
C1468 C 0.25551 0.50668 0.6475 0.0
C1469 C 0.26878 0.49709 0.65749 0.0
C1470 C 0.24612 0.51017 0.68926 0.0
C1471 C 0.24991 0.50436 0.74171 0.0
C1472 C 0.26297 0.49362 0.75061 0.0
C1473 C 0.27212 0.48971 0.70922 0.0
C1474 C 0.23237 0.50096 0.87646 0.0
C1475 C 0.22322 0.52145 0.87394 0.0
C1476 C 0.2409 0.49525 0.83349 0.0
C1477 C 0.24068 0.51027 0.78745 0.0
C1478 C 0.23186 0.53141 0.78625 0.0
C1479 C 0.22312 0.53673 0.82869 0.0
H1480 H 0.75281 0.27698 0.66799 0.0
H1481 H 0.78258 0.23526 0.57567 0.0
H1482 H 0.73607 0.2731 0.59582 0.0
H1483 H 0.76665 0.23316 0.50311 0.0
H1484 H 0.73164 0.21712 0.38937 0.0
H1485 H 0.74711 0.21658 0.46549 0.0
H1486 H 0.73172 0.29011 0.51263 0.0
H1487 H 0.71585 0.28967 0.43839 0.0
C1488 C 0.75574 0.2669 0.63258 0.0
C1489 C 0.76912 0.25696 0.62718 0.0
C1490 C 0.74626 0.26497 0.59078 0.0
C1491 C 0.75003 0.25321 0.54279 0.0
C1492 C 0.7632 0.24221 0.53904 0.0
C1493 C 0.77249 0.2438 0.5807 0.0
C1494 C 0.73187 0.23333 0.41549 0.0
C1495 C 0.72277 0.25359 0.40774 0.0
C1496 C 0.74065 0.23305 0.45943 0.0
C1497 C 0.74064 0.25324 0.49599 0.0
C1498 C 0.73183 0.27391 0.48656 0.0
C1499 C 0.72292 0.27393 0.44335 0.0
H1500 H 0.73623 0.53096 0.40983 0.0
H1501 H 0.70627 0.48521 0.32709 0.0
H1502 H 0.75301 0.52306 0.33864 0.0
H1503 H 0.72261 0.47828 0.25609 0.0
H1504 H 0.75097 0.5002 0.11287 0.0
H1505 H 0.7342 0.50555 0.18499 0.0
H1506 H 0.76565 0.48524 0.29783 0.0
H1507 H 0.78209 0.47922 0.22694 0.0
C1508 C 0.73327 0.51913 0.37688 0.0
C1509 C 0.71985 0.5092 0.37355 0.0
C1510 C 0.74279 0.51474 0.33602 0.0
C1511 C 0.73896 0.50051 0.29127 0.0
C1512 C 0.72573 0.48986 0.28924 0.0
C1513 C 0.71638 0.4939 0.33006 0.0
C1514 C 0.75417 0.49639 0.15293 0.0
C1515 C 0.76788 0.48952 0.16403 0.0
C1516 C 0.74465 0.49964 0.19423 0.0
C1517 C 0.74875 0.4963 0.2471 0.0
C1518 C 0.76229 0.48853 0.25773 0.0
C1519 C 0.77167 0.48496 0.21682 0.0
H1520 H 0.46389 0.03295 0.59022 0.0
H1521 H 0.484 0.96532 0.64651 0.0
H1522 H 0.47982 0.03513 0.5164 0.0
H1523 H 0.49979 0.96673 0.57097 0.0
H1524 H 0.53458 0.99383 0.46376 0.0
H1525 H 0.51838 0.98887 0.53478 0.0
H1526 H 0.48548 0.01622 0.43457 0.0
H1527 H 0.50222 0.02275 0.363 0.0
C1528 C 0.47187 0.01862 0.58686 0.0
C1529 C 0.47286 0.99911 0.62429 0.0
C1530 C 0.48085 0.01961 0.54397 0.0
C1531 C 0.49099 1.00091 0.5369 0.0
C1532 C 0.49219 0.98163 0.57525 0.0
C1533 C 0.48324 0.98083 0.61879 0.0
C1534 C 0.5239 0.99893 0.45643 0.0
C1535 C 0.51977 1.00932 0.40777 0.0
C1536 C 0.51452 0.99567 0.49737 0.0
C1537 C 0.50059 1.00229 0.49096 0.0
C1538 C 0.49622 0.01142 0.44132 0.0
C1539 C 0.50574 0.01492 0.40004 0.0
H1540 H 0.48093 0.24169 0.62031 0.0
H1541 H 0.46409 0.30473 0.70677 0.0
H1542 H 0.49552 0.23095 0.69501 0.0
H1543 H 0.47936 0.29542 0.78053 0.0
H1544 H 0.49948 0.26251 0.92482 0.0
H1545 H 0.48333 0.26875 0.85145 0.0
H1546 H 0.51436 0.24053 0.74333 0.0
H1547 H 0.5296 0.23243 0.81579 0.0
C1548 C 0.48088 0.25396 0.6545 0.0
C1549 C 0.4717 0.2744 0.65737 0.0
C1550 C 0.48915 0.24774 0.69778 0.0
C1551 C 0.48867 0.2622 0.74455 0.0
C1552 C 0.47986 0.28339 0.74609 0.0
C1553 C 0.47135 0.28918 0.70329 0.0
C1554 C 0.50256 0.25689 0.88552 0.0
C1555 C 0.51584 0.24718 0.87621 0.0
C1556 C 0.49345 0.26092 0.84316 0.0
C1557 C 0.49755 0.2556 0.79079 0.0
C1558 C 0.5106 0.24465 0.78255 0.0
C1559 C 0.51947 0.24019 0.82452 0.0
H1560 H 0.48128 0.80703 0.1396 0.0
H1561 H 0.46909 0.73041 0.17466 0.0
H1562 H 0.49604 0.80739 0.21793 0.0
H1563 H 0.48415 0.7301 0.25139 0.0
H1564 H 0.50189 0.74216 0.41278 0.0
H1565 H 0.4859 0.74641 0.33821 0.0
H1566 H 0.51629 0.79149 0.25548 0.0
H1567 H 0.53159 0.78852 0.33026 0.0
C1568 C 0.48221 0.78998 0.16303 0.0
C1569 C 0.47434 0.76853 0.15075 0.0
C1570 C 0.49053 0.79018 0.20823 0.0
C1571 C 0.49117 0.76885 0.24168 0.0
C1572 C 0.48367 0.74709 0.22764 0.0
C1573 C 0.47528 0.74704 0.18301 0.0
C1574 C 0.50491 0.75348 0.37915 0.0
C1575 C 0.51806 0.76459 0.37696 0.0
C1576 C 0.49588 0.75563 0.33603 0.0
C1577 C 0.4999 0.76889 0.29012 0.0
C1578 C 0.51274 0.78122 0.28982 0.0
C1579 C 0.52162 0.77925 0.33271 0.0
H1580 H 0.52006 0.55297 0.94403 0.0
H1581 H 0.50562 0.4865 0.86266 0.0
H1582 H 0.50581 0.54227 0.01994 0.0
H1583 H 0.49201 0.47458 0.93952 0.0
H1584 H 0.4589 0.47322 0.06598 0.0
H1585 H 0.4732 0.48183 0.99065 0.0
H1586 H 0.50404 0.51558 0.09229 0.0
H1587 H 0.48879 0.50873 0.16827 0.0
C1588 C 0.5135 0.53635 0.9421 0.0
C1589 C 0.51357 0.52095 0.89706 0.0
C1590 C 0.50561 0.5298 0.98614 0.0
C1591 C 0.49785 0.50727 0.98676 0.0
C1592 C 0.49763 0.49227 0.9407 0.0
C1593 C 0.50531 0.49918 0.89619 0.0
C1594 C 0.46882 0.48222 0.07258 0.0
C1595 C 0.47262 0.49066 0.1231 0.0
C1596 C 0.47714 0.48702 0.02903 0.0
C1597 C 0.48977 0.49983 0.03463 0.0
C1598 C 0.49417 0.50637 0.08601 0.0
C1599 C 0.48562 0.50196 0.1299 0.0
H1600 H 0.3849 0.26676 0.53365 0.0
H1601 H 0.40935 0.24169 0.40109 0.0
H1602 H 0.36407 0.26375 0.48101 0.0
H1603 H 0.38835 0.23723 0.34883 0.0
H1604 H 0.35184 0.26692 0.25352 0.0
H1605 H 0.37251 0.26351 0.30674 0.0
H1606 H 0.34775 0.23831 0.43875 0.0
H1607 H 0.32688 0.24308 0.38568 0.0
C1608 C 0.38577 0.26007 0.49347 0.0
C1609 C 0.39875 0.25462 0.47129 0.0
C1610 C 0.37379 0.25815 0.46331 0.0
C1611 C 0.37448 0.25031 0.41049 0.0
C1612 C 0.38745 0.24385 0.38902 0.0
C1613 C 0.39948 0.24625 0.41897 0.0
C1614 C 0.35081 0.26045 0.29379 0.0
C1615 C 0.33775 0.25542 0.31562 0.0
C1616 C 0.3627 0.25828 0.3243 0.0
C1617 C 0.36186 0.2506 0.37717 0.0
C1618 C 0.34878 0.24474 0.39848 0.0
C1619 C 0.33682 0.24736 0.3681 0.0
H1620 H 0.83047 0.0305 0.40234 0.0
H1621 H 0.85391 0.99873 0.53107 0.0
H1622 H 0.85179 0.03674 0.35281 0.0
H1623 H 0.8751 1.00361 0.48078 0.0
H1624 H 0.91295 0.02703 0.3915 0.0
H1625 H 0.8919 0.03045 0.44422 0.0
H1626 H 0.86747 0.01147 0.30711 0.0
H1627 H 0.88829 1.00934 0.25455 0.0
C1628 C 0.84019 0.0248 0.41992 0.0
C1629 C 0.84055 0.014 0.47031 0.0
C1630 C 0.85241 0.02827 0.39154 0.0
C1631 C 0.86519 0.02047 0.41255 0.0
C1632 C 0.86552 1.01024 0.46361 0.0
C1633 C 0.85334 1.00724 0.49234 0.0
C1634 C 0.90304 0.02388 0.37274 0.0
C1635 C 0.90226 0.01787 0.31903 0.0
C1636 C 0.89098 0.02571 0.4029 0.0
C1637 C 0.87795 0.02117 0.38001 0.0
C1638 C 0.87725 0.01565 0.32598 0.0
C1639 C 0.88924 0.01422 0.29581 0.0
H1640 H 0.38686 1.00234 0.75283 0.0
H1641 H 0.41145 0.02531 0.88652 0.0
H1642 H 0.36602 1.00589 0.80512 0.0
H1643 H 0.3904 0.03033 0.93862 0.0
H1644 H 0.35275 1.00256 0.03139 0.0
H1645 H 0.37378 1.00523 0.97978 0.0
H1646 H 0.35014 0.0323 0.84659 0.0
H1647 H 0.32891 0.02813 0.89783 0.0
C1648 C 0.38777 1.00866 0.79325 0.0
C1649 C 0.40077 0.01345 0.81574 0.0
C1650 C 0.37578 0.01092 0.82322 0.0
C1651 C 0.37646 0.01847 0.87619 0.0
C1652 C 0.38949 0.02403 0.89822 0.0
C1653 C 0.40155 0.02129 0.8684 0.0
C1654 C 0.35206 1.0093 0.99121 0.0
C1655 C 0.3392 0.01499 0.96844 0.0
C1656 C 0.36416 0.01103 0.96165 0.0
C1657 C 0.36371 0.01893 0.90886 0.0
C1658 C 0.35086 0.02562 0.88678 0.0
C1659 C 0.3387 0.02339 0.91614 0.0
H1660 H 0.85476 0.26569 0.75032 0.0
H1661 H 0.83144 0.23643 0.88208 0.0
H1662 H 0.87596 0.26204 0.80047 0.0
H1663 H 0.85285 0.23127 0.9317 0.0
H1664 H 0.88962 0.2603 0.02665 0.0
H1665 H 0.86869 0.25654 0.97541 0.0
H1666 H 0.89296 0.23676 0.83818 0.0
H1667 H 0.91411 0.24203 0.88942 0.0
C1668 C 0.85422 0.25794 0.78976 0.0
C1669 C 0.84145 0.25152 0.81251 0.0
C1670 C 0.86643 0.25563 0.81846 0.0
C1671 C 0.86619 0.24639 0.87034 0.0
C1672 C 0.85342 0.23898 0.89228 0.0
C1673 C 0.84115 0.2418 0.86385 0.0
C1674 C 0.89052 0.25487 0.98566 0.0
C1675 C 0.90353 0.25161 0.96194 0.0
C1676 C 0.87845 0.25251 0.95623 0.0
C1677 C 0.87905 0.24636 0.90246 0.0
C1678 C 0.89209 0.24203 0.87924 0.0
C1679 C 0.90422 0.24489 0.90858 0.0
H1680 H 0.60313 0.75397 0.50284 0.0
H1681 H 0.57951 0.77996 0.63684 0.0
H1682 H 0.62426 0.75725 0.55343 0.0
H1683 H 0.60086 0.7846 0.68713 0.0
H1684 H 0.63847 0.75633 0.77889 0.0
H1685 H 0.61729 0.75897 0.72837 0.0
H1686 H 0.64066 0.78371 0.59241 0.0
H1687 H 0.66204 0.77966 0.64264 0.0
C1688 C 0.60249 0.76088 0.54293 0.0
C1689 C 0.58967 0.7666 0.56604 0.0
C1690 C 0.61466 0.76296 0.57189 0.0
C1691 C 0.61432 0.77123 0.62445 0.0
C1692 C 0.60149 0.77772 0.64705 0.0
C1693 C 0.58926 0.77519 0.61826 0.0
C1694 C 0.63909 0.76253 0.73831 0.0
C1695 C 0.65191 0.76765 0.71455 0.0
C1696 C 0.62689 0.76425 0.70938 0.0
C1697 C 0.62721 0.77153 0.6562 0.0
C1698 C 0.64004 0.77754 0.63299 0.0
C1699 C 0.65229 0.77537 0.66176 0.0
H1700 H 0.1027 0.01829 0.78091 0.0
H1701 H 0.07939 0.99019 0.64814 0.0
H1702 H 0.12389 0.01533 0.73025 0.0
H1703 H 0.10078 0.98584 0.59795 0.0
H1704 H 0.1373 0.01622 0.50368 0.0
H1705 H 0.11644 0.01254 0.55571 0.0
H1706 H 0.14083 0.9901 0.69062 0.0
H1707 H 0.16191 0.99514 0.63864 0.0
C1708 C 0.10216 0.01093 0.74116 0.0
C1709 C 0.08939 1.00465 0.71827 0.0
C1710 C 0.11435 1.00905 0.71216 0.0
C1711 C 0.11409 1.00044 0.65983 0.0
C1712 C 0.10134 0.99309 0.63775 0.0
C1713 C 0.08909 0.99544 0.66652 0.0
C1714 C 0.13823 1.01031 0.54436 0.0
C1715 C 0.15124 1.00608 0.56722 0.0
C1716 C 0.12621 1.00797 0.57418 0.0
C1717 C 0.12689 1.00093 0.62744 0.0
C1718 C 0.13993 0.99597 0.64993 0.0
C1719 C 0.15201 0.99874 0.62019 0.0
H1720 H 0.66408 0.99885 0.1386 0.0
H1721 H 0.639 0.01655 1.00278 0.0
H1722 H 0.64315 0.99429 0.19166 0.0
H1723 H 0.6183 0.01345 0.05578 0.0
H1724 H 0.58163 0.99233 0.15154 0.0
H1725 H 0.60289 0.98755 0.10083 0.0
H1726 H 0.62618 0.01994 0.22973 0.0
H1727 H 0.6051 0.02328 0.2811 0.0
C1728 C 0.65411 1.00175 0.12017 0.0
C1729 C 0.65317 1.00803 0.06664 0.0
C1730 C 0.64212 0.99929 0.15053 0.0
C1731 C 0.62899 1.00356 0.1281 0.0
C1732 C 0.62815 1.00946 0.07429 0.0
C1733 C 0.64007 0.01145 0.04387 0.0
C1734 C 0.59134 0.99817 0.16904 0.0
C1735 C 0.59173 1.00825 0.22008 0.0
C1736 C 0.60352 0.99556 0.13998 0.0
C1737 C 0.61628 1.00353 0.16097 0.0
C1738 C 0.61663 0.01315 0.21254 0.0
C1739 C 0.60451 0.01527 0.2419 0.0
H1740 H 0.10287 0.75841 1.00497 0.0
H1741 H 0.07824 0.78031 0.13955 0.0
H1742 H 0.12367 0.7615 0.05728 0.0
H1743 H 0.09928 0.78479 0.19177 0.0
H1744 H 0.1364 0.75346 0.28308 0.0
H1745 H 0.1155 0.7582 0.23147 0.0
H1746 H 0.13976 0.78661 0.10095 0.0
H1747 H 0.16083 0.7804 0.15208 0.0
C1748 C 0.10193 0.76448 0.04555 0.0
C1749 C 0.08891 0.76893 0.06832 0.0
C1750 C 0.11392 0.76645 0.07556 0.0
C1751 C 0.11321 0.77335 0.12892 0.0
C1752 C 0.10019 0.77892 0.15108 0.0
C1753 C 0.08814 0.7765 0.12117 0.0
C1754 C 0.13726 0.76091 0.24349 0.0
C1755 C 0.15023 0.76636 0.22136 0.0
C1756 C 0.12523 0.76386 0.21396 0.0
C1757 C 0.12589 0.77275 0.16188 0.0
C1758 C 0.13888 0.77921 0.14055 0.0
C1759 C 0.15095 0.77577 0.16983 0.0
H1760 H 0.35398 0.76432 0.74978 0.0
H1761 H 0.32959 0.73903 0.88235 0.0
H1762 H 0.37488 0.75997 0.80115 0.0
H1763 H 0.35072 0.73323 0.93347 0.0
H1764 H 0.38805 0.76137 0.02732 0.0
H1765 H 0.36708 0.7583 0.9758 0.0
H1766 H 0.39105 0.73378 0.84113 0.0
H1767 H 0.41223 0.73836 0.89242 0.0
C1768 C 0.35312 0.75727 0.78969 0.0
C1769 C 0.34015 0.75216 0.81223 0.0
C1770 C 0.36516 0.75456 0.81913 0.0
C1771 C 0.36455 0.74624 0.8716 0.0
C1772 C 0.35157 0.74016 0.8935 0.0
C1773 C 0.33946 0.74336 0.86424 0.0
C1774 C 0.38884 0.7551 0.98682 0.0
C1775 C 0.40177 0.75028 0.96369 0.0
C1776 C 0.37677 0.75312 0.9573 0.0
C1777 C 0.37731 0.74582 0.90415 0.0
C1778 C 0.39025 0.73997 0.88165 0.0
C1779 C 0.40239 0.74246 0.911 0.0
H1780 H 0.88772 0.50018 0.75155 0.0
H1781 H 0.91079 0.52685 0.88603 0.0
H1782 H 0.86642 0.50212 0.8025 0.0
H1783 H 0.88943 0.53038 0.93627 0.0
H1784 H 0.85327 0.50035 0.03054 0.0
H1785 H 0.87396 0.50344 0.97754 0.0
H1786 H 0.84933 0.52654 0.84373 0.0
H1787 H 0.82837 0.52197 0.89674 0.0
C1788 C 0.88816 0.50693 0.79179 0.0
C1789 C 0.90087 0.51309 0.81518 0.0
C1790 C 0.87594 0.50824 0.82093 0.0
C1791 C 0.87617 0.51622 0.87375 0.0
C1792 C 0.88888 0.52349 0.89619 0.0
C1793 C 0.90112 0.52162 0.8674 0.0
C1794 C 0.85225 0.5063 0.98992 0.0
C1795 C 0.83921 0.51095 0.96775 0.0
C1796 C 0.86417 0.50827 0.9595 0.0
C1797 C 0.8634 0.51543 0.9063 0.0
C1798 C 0.85032 0.52063 0.88436 0.0
C1799 C 0.83832 0.51818 0.91471 0.0
H1800 H 0.35453 0.50352 0.5307 0.0
H1801 H 0.33067 0.53362 0.40141 0.0
H1802 H 0.37556 0.5082 0.47987 0.0
H1803 H 0.35192 0.53986 0.35111 0.0
H1804 H 0.38844 0.51125 0.25343 0.0
H1805 H 0.36767 0.51524 0.30558 0.0
H1806 H 0.3924 0.53375 0.44223 0.0
H1807 H 0.41339 0.52821 0.39 0.0
C1808 C 0.35383 0.5117 0.49168 0.0
C1809 C 0.34096 0.51801 0.46976 0.0
C1810 C 0.36595 0.51462 0.4626 0.0
C1811 C 0.36552 0.52438 0.41117 0.0
C1812 C 0.35264 0.53176 0.39015 0.0
C1813 C 0.34046 0.52831 0.41895 0.0
C1814 C 0.38947 0.51649 0.29448 0.0
C1815 C 0.40256 0.51921 0.31777 0.0
C1816 C 0.37749 0.51899 0.32444 0.0
C1817 C 0.37827 0.52475 0.37835 0.0
C1818 C 0.39139 0.52874 0.40108 0.0
C1819 C 0.40343 0.52573 0.37119 0.0
H1820 H 0.85255 0.76452 0.25436 0.0
H1821 H 0.82787 0.74308 0.38907 0.0
H1822 H 0.87326 0.76307 0.30766 0.0
H1823 H 0.84881 0.74032 0.44239 0.0
H1824 H 0.88594 0.77135 0.53395 0.0
H1825 H 0.86505 0.76721 0.48179 0.0
H1826 H 0.88926 0.73797 0.35193 0.0
H1827 H 0.91028 0.7435 0.40351 0.0
C1828 C 0.85159 0.75898 0.29526 0.0
C1829 C 0.83859 0.75403 0.31767 0.0
C1830 C 0.86351 0.75797 0.32584 0.0
C1831 C 0.86276 0.75154 0.37944 0.0
C1832 C 0.84976 0.74579 0.40148 0.0
C1833 C 0.83776 0.74724 0.37096 0.0
C1834 C 0.88678 0.76389 0.49434 0.0
C1835 C 0.89973 0.75794 0.47255 0.0
C1836 C 0.87477 0.76131 0.46451 0.0
C1837 C 0.87542 0.7523 0.4125 0.0
C1838 C 0.88838 0.74549 0.39144 0.0
C1839 C 0.90043 0.74854 0.421 0.0
H1840 H 0.63638 0.25246 0.28158 0.0
H1841 H 0.66026 0.27911 0.14888 0.0
H1842 H 0.61536 0.25543 0.23002 0.0
H1843 H 0.63906 0.28347 0.09768 0.0
H1844 H 0.60188 0.25603 1.0034 0.0
H1845 H 0.62283 0.25806 0.05526 0.0
H1846 H 0.59895 0.28175 0.19077 0.0
H1847 H 0.57777 0.27833 0.13903 0.0
C1848 C 0.63709 0.2594 0.24154 0.0
C1849 C 0.64994 0.26544 0.21907 0.0
C1850 C 0.625 0.26132 0.21204 0.0
C1851 C 0.62545 0.26973 0.1596 0.0
C1852 C 0.63833 0.27646 0.13762 0.0
C1853 C 0.65048 0.27408 0.16693 0.0
C1854 C 0.6011 0.26187 0.04418 0.0
C1855 C 0.58819 0.26692 0.06729 0.0
C1856 C 0.61316 0.26322 0.07391 0.0
C1857 C 0.61265 0.27009 0.12731 0.0
C1858 C 0.59973 0.27593 0.15001 0.0
C1859 C 0.58759 0.27412 0.12038 0.0
H1860 H 0.1033 0.5138 0.27722 0.0
H1861 H 0.07893 0.49048 0.14321 0.0
H1862 H 0.12421 0.5104 0.22517 0.0
H1863 H 0.10003 0.4857 0.09141 0.0
H1864 H 0.13713 0.51644 0.99905 0.0
H1865 H 0.11621 0.51205 0.05079 0.0
H1866 H 0.1404 0.48491 0.18244 0.0
H1867 H 0.16149 0.49067 0.13109 0.0
C1868 C 0.10245 0.50737 0.23685 0.0
C1869 C 0.08948 0.5026 0.21411 0.0
C1870 C 0.11448 0.50523 0.20701 0.0
C1871 C 0.11386 0.49784 0.15391 0.0
C1872 C 0.10089 0.49196 0.13186 0.0
C1873 C 0.0888 0.49456 0.16154 0.0
C1874 C 0.13798 0.50929 0.03888 0.0
C1875 C 0.15095 0.50409 0.06122 0.0
C1876 C 0.12594 0.50657 0.06852 0.0
C1877 C 0.12656 0.49818 0.12097 0.0
C1878 C 0.13954 0.49193 0.14254 0.0
C1879 C 0.15163 0.4951 0.11311 0.0
H1880 H 0.6578 0.49369 0.62668 0.0
H1881 H 0.63406 0.52301 0.49627 0.0
H1882 H 0.63654 0.48767 0.67684 0.0
H1883 H 0.61294 0.51838 0.54701 0.0
H1884 H 0.57525 0.49494 0.63579 0.0
H1885 H 0.59647 0.49137 0.58423 0.0
H1886 H 0.62037 0.51233 0.72142 0.0
H1887 H 0.59936 0.51453 0.77303 0.0
C1888 C 0.64803 0.49894 0.6089 0.0
C1889 C 0.64756 0.50891 0.55776 0.0
C1890 C 0.63584 0.4956 0.63763 0.0
C1891 C 0.62298 0.50266 0.61617 0.0
C1892 C 0.62258 0.51224 0.56456 0.0
C1893 C 0.63472 0.51511 0.53555 0.0
C1894 C 0.58508 0.49844 0.6549 0.0
C1895 C 0.58565 0.50507 0.70833 0.0
C1896 C 0.59724 0.49655 0.62536 0.0
C1897 C 0.61017 0.50174 0.64849 0.0
C1898 C 0.61068 0.50772 0.70236 0.0
C1899 C 0.59858 0.50916 0.73199 0.0
H1900 H 0.16044 0.28132 0.64527 0.0
H1901 H 0.13676 0.25566 0.77939 0.0
H1902 H 0.13914 0.28615 0.59501 0.0
H1903 H 0.11562 0.25921 0.72875 0.0
H1904 H 0.07792 0.28032 0.63764 0.0
H1905 H 0.09916 0.28529 0.68833 0.0
H1906 H 0.12295 0.2598 0.55404 0.0
H1907 H 0.10189 0.2561 0.50309 0.0
C1908 C 0.15068 0.2767 0.66395 0.0
C1909 C 0.15026 0.26801 0.71611 0.0
C1910 C 0.13847 0.27935 0.63514 0.0
C1911 C 0.12563 0.2729 0.65763 0.0
C1912 C 0.12525 0.2648 0.71032 0.0
C1913 C 0.13741 0.26258 0.73932 0.0
C1914 C 0.08772 0.27607 0.61895 0.0
C1915 C 0.08824 0.26774 0.56652 0.0
C1916 C 0.0999 0.27879 0.648 0.0
C1917 C 0.1128 0.27281 0.62544 0.0
C1918 C 0.11327 0.26506 0.57254 0.0
C1919 C 0.10115 0.26274 0.54334 0.0
H1920 H 0.30934 0.2971 0.58177 0.0
H1921 H 0.27589 0.24491 0.61237 0.0
H1922 H 0.31446 0.29873 0.67557 0.0
H1923 H 0.28055 0.24755 0.70632 0.0
H1924 H 0.30144 0.23747 0.86703 0.0
H1925 H 0.29635 0.23524 0.77313 0.0
H1926 H 0.30622 0.31462 0.75735 0.0
H1927 H 0.31146 0.31671 0.85104 0.0
C1928 C 0.30306 0.28593 0.60836 0.0
C1929 C 0.29217 0.27087 0.58895 0.0
C1930 C 0.30589 0.28713 0.6625 0.0
C1931 C 0.29791 0.27335 0.69909 0.0
C1932 C 0.28705 0.25825 0.67965 0.0
C1933 C 0.28424 0.25701 0.62553 0.0
C1934 C 0.3024 0.25452 0.84366 0.0
C1935 C 0.30692 0.27725 0.8669 0.0
C1936 C 0.29947 0.25326 0.78959 0.0
C1937 C 0.3009 0.27472 0.75708 0.0
C1938 C 0.30526 0.29753 0.78056 0.0
C1939 C 0.30824 0.29875 0.83454 0.0
H1940 H 0.96492 0.97767 0.61188 0.0
H1941 H 0.92926 0.02532 0.58699 0.0
H1942 H 0.9598 0.97617 0.7058 0.0
H1943 H 0.92422 0.02417 0.68096 0.0
H1944 H 0.91085 0.99711 0.84333 0.0
H1945 H 0.9161 0.99804 0.74982 0.0
H1946 H 0.95979 1.0 0.7852 0.0
H1947 H 0.95454 0.99763 0.87894 0.0
C1948 C 0.95604 0.98803 0.62646 0.0
C1949 C 0.9475 1.00159 0.59155 0.0
C1950 C 0.95311 0.98723 0.68055 0.0
C1951 C 0.94158 1.00006 0.70151 0.0
C1952 C 0.93305 0.01364 0.66651 0.0
C1953 C 0.93595 0.01434 0.61239 0.0
C1954 C 0.9216 0.99739 0.83137 0.0
C1955 C 0.93225 0.99713 0.86923 0.0
C1956 C 0.92463 0.99831 0.77743 0.0
C1957 C 0.9384 0.99915 0.75939 0.0
C1958 C 0.94906 0.99905 0.79723 0.0
C1959 C 0.94603 0.99804 0.85128 0.0
H1960 H 0.32775 0.01199 0.43548 0.0
H1961 H 0.28917 0.97296 0.40813 0.0
H1962 H 0.32263 0.01378 0.52928 0.0
H1963 H 0.28407 0.97457 0.50212 0.0
H1964 H 0.27286 1.00433 0.666 0.0
H1965 H 0.27789 1.00249 0.57221 0.0
H1966 H 0.32095 0.98832 0.60674 0.0
H1967 H 0.31603 0.99142 0.70063 0.0
C1968 C 0.31822 1.00356 0.44949 0.0
C1969 C 0.3089 0.99226 0.41398 0.0
C1970 C 0.31528 1.00455 0.50348 0.0
C1971 C 0.30294 0.99423 0.5237 0.0
C1972 C 0.29358 0.98305 0.48813 0.0
C1973 C 0.29651 0.98211 0.43407 0.0
C1974 C 0.28344 1.00108 0.65372 0.0
C1975 C 0.29404 0.99819 0.69128 0.0
C1976 C 0.2863 0.99969 0.59971 0.0
C1977 C 0.29985 0.99528 0.58149 0.0
C1978 C 0.31042 0.99209 0.61905 0.0
C1979 C 0.30756 0.99353 0.67311 0.0
H1980 H 0.94754 0.23499 0.40455 0.0
H1981 H 0.92248 0.30123 0.43371 0.0
H1982 H 0.95357 0.23329 0.4979 0.0
H1983 H 0.92839 0.29935 0.52666 0.0
H1984 H 0.92922 0.27319 0.6968 0.0
H1985 H 0.92378 0.27311 0.60327 0.0
H1986 H 0.96643 0.25606 0.56697 0.0
H1987 H 0.97181 0.25538 0.66101 0.0
C1988 C 0.9434 0.24932 0.43066 0.0
C1989 C 0.9344 0.26812 0.4114 0.0
C1990 C 0.94685 0.24831 0.48427 0.0
C1991 C 0.94137 0.26604 0.52001 0.0
C1992 C 0.93256 0.28505 0.50057 0.0
C1993 C 0.92915 0.2861 0.44711 0.0
C1994 C 0.93742 0.26902 0.66903 0.0
C1995 C 0.95096 0.26423 0.68666 0.0
C1996 C 0.93433 0.26931 0.61524 0.0
C1997 C 0.94468 0.26477 0.57741 0.0
C1998 C 0.95818 0.2595 0.59496 0.0
C1999 C 0.96129 0.25933 0.64889 0.0
H2000 H 0.70167 0.72477 0.15488 0.0
H2001 H 0.6649 0.7696 0.1801 0.0
H2002 H 0.70673 0.72655 0.24885 0.0
H2003 H 0.66998 0.77148 0.27389 0.0
H2004 H 0.67534 0.74951 0.44606 0.0
H2005 H 0.67044 0.74621 0.3522 0.0
H2006 H 0.71399 0.75442 0.31787 0.0
H2007 H 0.71895 0.75651 0.41169 0.0
C2008 C 0.69473 0.73522 0.18032 0.0
C2009 C 0.68284 0.74696 0.15966 0.0
C2010 C 0.69763 0.73624 0.23437 0.0
C2011 C 0.68874 0.74908 0.26933 0.0
C2012 C 0.67692 0.76098 0.24854 0.0
C2013 C 0.67402 0.75993 0.19457 0.0
C2014 C 0.6839 0.75026 0.4186 0.0
C2015 C 0.69755 0.75335 0.4368 0.0
C2016 C 0.68107 0.74871 0.36456 0.0
C2017 C 0.69179 0.75019 0.32709 0.0
C2018 C 0.70545 0.75298 0.34535 0.0
C2019 C 0.70828 0.75451 0.39934 0.0
H2020 H 0.03476 0.02445 0.15136 0.0
H2021 H 0.07761 0.01096 0.19037 0.0
H2022 H 0.02855 0.0204 0.24417 0.0
H2023 H 0.07151 1.00793 0.2831 0.0
H2024 H 0.05472 0.9813 0.44081 0.0
H2025 H 0.05978 0.98171 0.34672 0.0
H2026 H 0.03116 0.04365 0.32577 0.0
H2027 H 0.02611 0.04325 0.4197 0.0
C2028 C 0.04285 0.02049 0.17962 0.0
C2029 C 0.05671 0.01815 0.16323 0.0
C2030 C 0.03931 0.01844 0.23298 0.0
C2031 C 0.04953 0.01393 0.27133 0.0
C2032 C 0.06333 0.01116 0.25477 0.0
C2033 C 0.06687 0.01323 0.20152 0.0
C2034 C 0.04954 0.99507 0.41618 0.0
C2035 C 0.04002 0.01227 0.43807 0.0
C2036 C 0.05244 0.99531 0.36215 0.0
C2037 C 0.04591 0.01277 0.32849 0.0
C2038 C 0.03623 0.02968 0.35023 0.0
C2039 C 0.03333 0.02944 0.40425 0.0
H2040 H 0.70406 0.04137 0.62405 0.0
H2041 H 0.66208 0.01809 0.59171 0.0
H2042 H 0.70911 0.04104 0.53013 0.0
H2043 H 0.66735 0.01633 0.49818 0.0
H2044 H 0.67668 0.03864 0.3289 0.0
H2045 H 0.67173 0.04125 0.42274 0.0
H2046 H 0.71288 0.01412 0.45729 0.0
H2047 H 0.71809 0.01293 0.36369 0.0
C2048 C 0.69588 0.03618 0.59704 0.0
C2049 C 0.68263 0.02978 0.61598 0.0
C2050 C 0.69884 0.03565 0.54295 0.0
C2051 C 0.68867 0.02861 0.50602 0.0
C2052 C 0.67544 0.02218 0.52501 0.0
C2053 C 0.67246 0.02282 0.57903 0.0
C2054 C 0.68476 0.03356 0.35642 0.0
C2055 C 0.69781 0.02552 0.33817 0.0
C2056 C 0.68185 0.03472 0.4105 0.0
C2057 C 0.69186 0.0278 0.44814 0.0
C2058 C 0.70492 0.0199 0.42987 0.0
C2059 C 0.70786 0.01885 0.37584 0.0
H2060 H 0.02687 0.72356 0.36215 0.0
H2061 H 0.05429 0.78755 0.34438 0.0
H2062 H 0.03168 0.72264 0.45624 0.0
H2063 H 0.05943 0.78611 0.43849 0.0
H2064 H 0.05569 0.7904 0.61907 0.0
H2065 H 0.04932 0.79319 0.52606 0.0
H2066 H 0.05069 0.71169 0.51429 0.0
H2067 H 0.05671 0.7089 0.60722 0.0
C2068 C 0.03385 0.73759 0.37829 0.0
C2069 C 0.04017 0.75565 0.34538 0.0
C2070 C 0.03674 0.73686 0.4323 0.0
C2071 C 0.04601 0.75421 0.45514 0.0
C2072 C 0.05216 0.77256 0.42245 0.0
C2073 C 0.04932 0.77322 0.3683 0.0
C2074 C 0.05449 0.77307 0.59675 0.0
C2075 C 0.05677 0.74943 0.62074 0.0
C2076 C 0.05097 0.77468 0.54324 0.0
C2077 C 0.04951 0.75267 0.51244 0.0
C2078 C 0.05159 0.72904 0.53673 0.0
C2079 C 0.05519 0.72745 0.59001 0.0
H2080 H 0.30738 0.73346 0.08533 0.0
H2081 H 0.27796 0.79385 0.11007 0.0
H2082 H 0.31267 0.73332 0.17918 0.0
H2083 H 0.2832 0.79358 0.20384 0.0
H2084 H 0.28731 0.77222 0.37748 0.0
H2085 H 0.28105 0.76911 0.28454 0.0
H2086 H 0.32414 0.75962 0.24389 0.0
H2087 H 0.33032 0.76187 0.33668 0.0
C2088 C 0.30206 0.74678 0.11065 0.0
C2089 C 0.29225 0.7637 0.08977 0.0
C2090 C 0.3051 0.74669 0.1646 0.0
C2091 C 0.2984 0.76348 0.19929 0.0
C2092 C 0.28842 0.78011 0.17857 0.0
C2093 C 0.28541 0.78024 0.12462 0.0
C2094 C 0.29543 0.76913 0.34878 0.0
C2095 C 0.30934 0.76739 0.36475 0.0
C2096 C 0.29186 0.76763 0.29536 0.0
C2097 C 0.30208 0.76419 0.25647 0.0
C2098 C 0.31595 0.76202 0.2726 0.0
C2099 C 0.31953 0.76361 0.32591 0.0
H2100 H 0.94241 0.46192 0.35891 0.0
H2101 H 0.93061 0.54071 0.36344 0.0
H2102 H 0.94772 0.46575 0.26551 0.0
H2103 H 0.93641 0.54478 0.27023 0.0
H2104 H 0.93297 0.53498 0.09014 0.0
H2105 H 0.92818 0.53215 0.18426 0.0
H2106 H 0.96383 0.48385 0.20404 0.0
H2107 H 0.96831 0.48589 0.10974 0.0
C2108 C 0.94096 0.48011 0.34007 0.0
C2109 C 0.93598 0.50095 0.36902 0.0
C2110 C 0.94417 0.48239 0.28643 0.0
C2111 C 0.9425 0.50559 0.2599 0.0
C2112 C 0.93768 0.52653 0.28897 0.0
C2113 C 0.93451 0.52426 0.34274 0.0
C2114 C 0.93975 0.5236 0.11442 0.0
C2115 C 0.95102 0.51062 0.09188 0.0
C2116 C 0.93709 0.52222 0.16869 0.0
C2117 C 0.94559 0.50775 0.20214 0.0
C2118 C 0.95694 0.49495 0.17967 0.0
C2119 C 0.95961 0.49638 0.12545 0.0
H2120 H 0.28676 0.49791 0.90264 0.0
H2121 H 0.32924 0.51427 0.94268 0.0
H2122 H 0.2803 0.50175 0.9953 0.0
H2123 H 0.32288 0.51731 0.03528 0.0
H2124 H 0.30506 0.54323 0.19227 0.0
H2125 H 0.31026 0.5431 0.09826 0.0
H2126 H 0.28346 0.47849 0.07725 0.0
H2127 H 0.27835 0.47847 0.1711 0.0
C2128 C 0.29471 0.5025 0.93111 0.0
C2129 C 0.30854 0.50568 0.91508 0.0
C2130 C 0.29103 0.50444 0.98436 0.0
C2131 C 0.30106 0.50976 0.02295 0.0
C2132 C 0.31484 0.51343 1.00673 0.0
C2133 C 0.31853 0.51139 0.95359 0.0
C2134 C 0.3003 0.52894 0.16769 0.0
C2135 C 0.29129 0.51084 0.1896 0.0
C2136 C 0.30328 0.52887 0.11368 0.0
C2137 C 0.29732 0.51074 0.08003 0.0
C2138 C 0.28809 0.49297 0.10173 0.0
C2139 C 0.28514 0.493 0.15572 0.0
H2140 H 0.93478 0.73868 0.91885 0.0
H2141 H 0.929 0.8194 0.93335 0.0
H2142 H 0.93965 0.73596 1.01288 0.0
H2143 H 0.93401 0.81678 0.02718 0.0
H2144 H 0.92956 0.80014 0.20269 0.0
H2145 H 0.9246 0.80222 0.10875 0.0
H2146 H 0.95624 0.74627 0.07904 0.0
H2147 H 0.96073 0.7433 0.17309 0.0
C2148 C 0.93471 0.75591 0.94196 0.0
C2149 C 0.93144 0.77924 0.91838 0.0
C2150 C 0.93751 0.75436 0.99602 0.0
C2151 C 0.93719 0.77614 0.02804 0.0
C2152 C 0.93409 0.79951 1.00422 0.0
C2153 C 0.93124 0.80104 0.95025 0.0
C2154 C 0.93536 0.78805 0.17625 0.0
C2155 C 0.94557 0.77157 0.19582 0.0
C2156 C 0.93263 0.78948 0.12212 0.0
C2157 C 0.94004 0.77449 0.08591 0.0
C2158 C 0.95021 0.75794 0.10554 0.0
C2159 C 0.95292 0.75648 0.15963 0.0
H2160 H 0.67724 0.20847 0.68184 0.0
H2161 H 0.68546 0.28848 0.66714 0.0
H2162 H 0.68236 0.21061 0.77555 0.0
H2163 H 0.69048 0.29072 0.76119 0.0
H2164 H 0.71154 0.28059 0.92143 0.0
H2165 H 0.70681 0.2785 0.82739 0.0
H2166 H 0.67332 0.22624 0.85696 0.0
H2167 H 0.67847 0.22741 0.95079 0.0
C2168 C 0.68003 0.2266 0.69867 0.0
C2169 C 0.68086 0.24833 0.66677 0.0
C2170 C 0.68295 0.22784 0.7526 0.0
C2171 C 0.68676 0.25087 0.77636 0.0
C2172 C 0.68775 0.27257 0.74433 0.0
C2173 C 0.68486 0.2713 0.69028 0.0
C2174 C 0.70325 0.26843 0.90793 0.0
C2175 C 0.69544 0.25407 0.94404 0.0
C2176 C 0.70042 0.26748 0.85386 0.0
C2177 C 0.68968 0.25218 0.83421 0.0
C2178 C 0.6818 0.23799 0.87036 0.0
C2179 C 0.68464 0.23892 0.92443 0.0
H2180 H 0.05237 0.47984 0.93529 0.0
H2181 H 0.02644 0.54595 0.91916 0.0
H2182 H 0.05737 0.48114 0.84101 0.0
H2183 H 0.03109 0.54674 0.82495 0.0
H2184 H 0.05686 0.55977 0.67545 0.0
H2185 H 0.05054 0.55665 0.76801 0.0
H2186 H 0.0471 0.47548 0.75296 0.0
H2187 H 0.05379 0.47858 0.66017 0.0
C2188 C 0.04768 0.49457 0.91168 0.0
C2189 C 0.03903 0.51283 0.9351 0.0
C2190 C 0.05044 0.49516 0.85745 0.0
C2191 C 0.04469 0.51411 0.82527 0.0
C2192 C 0.03583 0.53205 0.84854 0.0
C2193 C 0.03304 0.53141 0.90261 0.0
C2194 C 0.05483 0.54122 0.69185 0.0
C2195 C 0.05594 0.51941 0.66032 0.0
C2196 C 0.05105 0.53945 0.7449 0.0
C2197 C 0.0483 0.51581 0.76813 0.0
C2198 C 0.04927 0.49397 0.73653 0.0
C2199 C 0.05297 0.49577 0.6832 0.0
H2200 H 0.70158 0.52311 0.12433 0.0
H2201 H 0.65877 0.50946 0.08493 0.0
H2202 H 0.70784 0.51943 0.03156 0.0
H2203 H 0.66496 0.50658 0.99204 0.0
H2204 H 0.68254 0.48087 0.83379 0.0
H2205 H 0.67725 0.48054 0.92776 0.0
H2206 H 0.70477 0.54394 0.95106 0.0
H2207 H 0.70996 0.54446 0.85731 0.0
C2208 C 0.69351 0.51911 0.09598 0.0
C2209 C 0.67965 0.51667 0.11221 0.0
C2210 C 0.69708 0.51728 0.04266 0.0
C2211 C 0.6869 0.51283 1.00418 0.0
C2212 C 0.6731 0.5098 0.02056 0.0
C2213 C 0.66952 0.51174 0.07383 0.0
C2214 C 0.68743 0.49481 0.85888 0.0
C2215 C 0.69669 0.5127 0.8377 0.0
C2216 C 0.6844 0.49461 0.91283 0.0
C2217 C 0.69057 0.51223 0.94709 0.0
C2218 C 0.69999 0.52983 0.92606 0.0
C2219 C 0.70299 0.53009 0.87215 0.0
H2220 H 0.02171 0.27413 0.86887 0.0
H2221 H 0.06085 0.23819 0.83492 0.0
H2222 H 0.02668 0.27169 0.963 0.0
H2223 H 0.06603 0.23664 0.92857 0.0
H2224 H 0.06425 0.21126 0.09941 0.0
H2225 H 0.0586 0.21423 1.0063 0.0
H2226 H 0.04165 0.2889 0.03144 0.0
H2227 H 0.04733 0.28591 0.12494 0.0
C2228 C 0.03139 0.26577 0.8814 0.0
C2229 C 0.04086 0.25634 0.84411 0.0
C2230 C 0.0343 0.2646 0.93541 0.0
C2231 C 0.04674 0.25387 0.95355 0.0
C2232 C 0.05626 0.24471 0.91619 0.0
C2233 C 0.05337 0.24592 0.8623 0.0
C2234 C 0.05942 0.22842 0.08512 0.0
C2235 C 0.05637 0.24843 0.11979 0.0
C2236 C 0.05617 0.23013 0.03159 0.0
C2237 C 0.04977 0.2519 1.01108 0.0
C2238 C 0.04646 0.27175 0.04588 0.0
C2239 C 0.04972 0.27003 0.09955 0.0
H2240 H 0.77751 0.28563 0.11431 0.0
H2241 H 0.80984 0.23057 0.08794 0.0
H2242 H 0.78274 0.28556 0.20808 0.0
H2243 H 0.81515 0.23078 0.18179 0.0
H2244 H 0.83132 0.26284 0.33953 0.0
H2245 H 0.82524 0.25954 0.24666 0.0
H2246 H 0.78188 0.25948 0.28789 0.0
H2247 H 0.78798 0.26346 0.38087 0.0
C2248 C 0.7856 0.27321 0.12849 0.0
C2249 C 0.79325 0.25813 0.09321 0.0
C2250 C 0.78861 0.27321 0.18241 0.0
C2251 C 0.7994 0.25822 0.2026 0.0
C2252 C 0.80692 0.24286 0.16753 0.0
C2253 C 0.80387 0.24277 0.11361 0.0
C2254 C 0.82049 0.26219 0.32882 0.0
C2255 C 0.81015 0.26355 0.36775 0.0
C2256 C 0.817 0.26002 0.27555 0.0
C2257 C 0.80306 0.25928 0.25966 0.0
C2258 C 0.79272 0.26026 0.29864 0.0
C2259 C 0.79621 0.26228 0.35202 0.0
H2260 H 0.45277 0.99955 0.37691 0.0
H2261 H 0.40935 0.99096 0.34097 0.0
H2262 H 0.45796 1.00214 0.28312 0.0
H2263 H 0.41462 0.99223 0.24742 0.0
H2264 H 0.42668 0.01986 0.08335 0.0
H2265 H 0.42158 0.01913 0.17734 0.0
H2266 H 0.45915 0.97697 0.20521 0.0
H2267 H 0.46428 0.97791 0.11133 0.0
C2268 C 0.44431 0.99828 0.34916 0.0
C2269 C 0.43062 0.99496 0.36699 0.0
C2270 C 0.44731 0.99942 0.29512 0.0
C2271 C 0.43674 0.99729 0.2572 0.0
C2272 C 0.42305 0.99422 0.27511 0.0
C2273 C 0.42005 0.99314 0.32906 0.0
C2274 C 0.4338 1.01024 0.10942 0.0
C2275 C 0.44591 0.99896 0.08942 0.0
C2276 C 0.43088 1.00981 0.16354 0.0
C2277 C 0.43994 0.99801 0.19936 0.0
C2278 C 0.45203 0.98666 0.17926 0.0
C2279 C 0.45497 0.98715 0.12519 0.0
H2280 H 0.78506 0.99658 0.90141 0.0
H2281 H 0.82759 0.01325 0.94044 0.0
H2282 H 0.77867 1.00115 0.99392 0.0
H2283 H 0.8213 0.01686 0.03296 0.0
H2284 H 0.80387 0.04278 0.19009 0.0
H2285 H 0.80882 0.0427 0.09586 0.0
H2286 H 0.78193 0.97812 0.07573 0.0
H2287 H 0.77702 0.97814 0.1697 0.0
C2288 C 0.79304 1.00139 0.92961 0.0
C2289 C 0.80686 1.0044 0.9134 0.0
C2290 C 0.78939 1.00374 0.98278 0.0
C2291 C 0.79947 1.00926 0.02106 0.0
C2292 C 0.81323 0.01284 1.00462 0.0
C2293 C 0.81687 0.01044 0.95155 0.0
C2294 C 0.79902 0.02854 0.16558 0.0
C2295 C 0.79005 0.01045 0.18769 0.0
C2296 C 0.80187 0.02849 0.11151 0.0
C2297 C 0.79581 1.01036 0.0781 0.0
C2298 C 0.78662 0.99261 0.10004 0.0
C2299 C 0.78379 0.99264 0.15407 0.0
H2300 H 0.44161 0.24511 0.91266 0.0
H2301 H 0.41797 0.31336 0.9385 0.0
H2302 H 0.44687 0.24308 1.00636 0.0
H2303 H 0.42268 0.31067 0.03247 0.0
H2304 H 0.44489 0.31222 0.19184 0.0
H2305 H 0.44036 0.31526 0.09758 0.0
H2306 H 0.43621 0.23395 0.08921 0.0
H2307 H 0.44086 0.23094 0.18322 0.0
C2308 C 0.43756 0.25976 0.93819 0.0
C2309 C 0.42932 0.27937 0.91765 0.0
C2310 C 0.44043 0.25841 0.99223 0.0
C2311 C 0.43515 0.27662 0.02742 0.0
C2312 C 0.42705 0.2964 1.00677 0.0
C2313 C 0.42419 0.29776 0.95275 0.0
C2314 C 0.44289 0.295 0.16999 0.0
C2315 C 0.44329 0.27133 0.19534 0.0
C2316 C 0.44029 0.29674 0.11579 0.0
C2317 C 0.43795 0.27485 0.08536 0.0
C2318 C 0.43823 0.25121 0.11089 0.0
C2319 C 0.44087 0.24947 0.165 0.0
H2320 H 0.20311 0.71084 0.93517 0.0
H2321 H 0.18598 0.78631 0.93629 0.0
H2322 H 0.19882 0.70788 0.84074 0.0
H2323 H 0.18162 0.78333 0.84201 0.0
H2324 H 0.18806 0.77985 0.6642 0.0
H2325 H 0.19317 0.78233 0.75806 0.0
H2326 H 0.18058 0.70441 0.77687 0.0
H2327 H 0.176 0.70166 0.68275 0.0
C2328 C 0.19829 0.72672 0.91543 0.0
C2329 C 0.19491 0.74883 0.94356 0.0
C2330 C 0.19583 0.72503 0.86114 0.0
C2331 C 0.1899 0.74539 0.8334 0.0
C2332 C 0.18644 0.76743 0.86165 0.0
C2333 C 0.18893 0.76913 0.91588 0.0
C2334 C 0.18655 0.76313 0.68818 0.0
C2335 C 0.18158 0.74056 0.66565 0.0
C2336 C 0.18932 0.76465 0.74228 0.0
C2337 C 0.18723 0.74362 0.77542 0.0
C2338 C 0.18244 0.72095 0.75272 0.0
C2339 C 0.17964 0.71946 0.69868 0.0
H2340 H 0.54467 0.04991 0.66744 0.0
H2341 H 0.56996 0.98272 0.67619 0.0
H2342 H 0.53924 0.04604 0.76062 0.0
H2343 H 0.56427 0.97837 0.76937 0.0
H2344 H 0.56426 0.99551 0.94628 0.0
H2345 H 0.56881 0.99691 0.85223 0.0
H2346 H 0.52703 0.02281 0.82482 0.0
H2347 H 0.52278 0.02311 0.9191 0.0
C2348 C 0.54889 0.03404 0.68914 0.0
C2349 C 0.55777 0.01664 0.66436 0.0
C2350 C 0.54575 0.03176 0.74268 0.0
C2351 C 0.55129 0.01187 0.7729 0.0
C2352 C 0.55999 0.99419 0.74778 0.0
C2353 C 0.56323 0.99662 0.69427 0.0
C2354 C 0.55606 1.00174 0.92033 0.0
C2355 C 0.54318 1.0094 0.94074 0.0
C2356 C 0.55861 1.00218 0.86609 0.0
C2357 C 0.54832 1.01007 0.83056 0.0
C2358 C 0.5353 0.01703 0.85085 0.0
C2359 C 0.53279 0.01681 0.90512 0.0
H2360 H 0.21487 0.04251 0.86123 0.0
H2361 H 0.17732 1.00007 0.83533 0.0
H2362 H 0.2098 0.04431 0.95514 0.0
H2363 H 0.17231 1.00158 0.92931 0.0
H2364 H 0.16013 0.02989 0.09238 0.0
H2365 H 0.16532 0.02852 0.99881 0.0
H2366 H 0.20878 0.02011 0.03402 0.0
H2367 H 0.20366 0.02287 0.12783 0.0
C2368 C 0.20558 0.03336 0.87556 0.0
C2369 C 0.19652 0.02115 0.84035 0.0
C2370 C 0.20267 0.03433 0.92966 0.0
C2371 C 0.19063 0.02307 0.95037 0.0
C2372 C 0.18157 0.01088 0.91507 0.0
C2373 C 0.18445 1.00999 0.86094 0.0
C2374 C 0.17083 0.02807 0.08037 0.0
C2375 C 0.18146 0.02666 0.11822 0.0
C2376 C 0.1738 0.02691 0.02639 0.0
C2377 C 0.18749 0.02416 1.00829 0.0
C2378 C 0.19812 0.02256 0.04611 0.0
C2379 C 0.19515 0.0238 0.10019 0.0
H2380 H 0.55329 0.78873 0.84304 0.0
H2381 H 0.52839 0.72147 0.86272 0.0
H2382 H 0.55838 0.78867 0.93724 0.0
H2383 H 0.53357 0.72133 0.95646 0.0
H2384 H 0.55987 0.71081 0.10449 0.0
H2385 H 0.55358 0.71312 1.01193 0.0
H2386 H 0.54814 0.79398 0.02577 0.0
H2387 H 0.55486 0.79176 0.11855 0.0
C2388 C 0.54876 0.77411 0.86746 0.0
C2389 C 0.54053 0.75495 0.84498 0.0
C2390 C 0.55169 0.77408 0.92152 0.0
C2391 C 0.5465 0.75486 0.95442 0.0
C2392 C 0.53798 0.73612 0.93216 0.0
C2393 C 0.53502 0.73619 0.87828 0.0
C2394 C 0.55744 0.72915 0.08782 0.0
C2395 C 0.55797 0.75112 0.11902 0.0
C2396 C 0.55367 0.73043 0.03478 0.0
C2397 C 0.55031 0.75373 1.01131 0.0
C2398 C 0.55077 0.77575 0.04247 0.0
C2399 C 0.55449 0.77444 0.09577 0.0
H2400 H 0.81179 0.74529 0.58492 0.0
H2401 H 0.77547 0.79123 0.61021 0.0
H2402 H 0.81681 0.74665 0.67884 0.0
H2403 H 0.78055 0.7929 0.70411 0.0
H2404 H 0.78614 0.77173 0.87729 0.0
H2405 H 0.78091 0.76915 0.78357 0.0
H2406 H 0.82456 0.77303 0.74782 0.0
H2407 H 0.8298 0.77419 0.84128 0.0
C2408 C 0.80495 0.75595 0.61038 0.0
C2409 C 0.79321 0.76815 0.58963 0.0
C2410 C 0.80783 0.75675 0.6645 0.0
C2411 C 0.79911 0.7699 0.69964 0.0
C2412 C 0.7874 0.78219 0.67877 0.0
C2413 C 0.78449 0.78128 0.62468 0.0
C2414 C 0.79465 0.7717 0.84955 0.0
C2415 C 0.80842 0.77322 0.86741 0.0
C2416 C 0.79163 0.77057 0.7955 0.0
C2417 C 0.80228 0.77094 0.75754 0.0
C2418 C 0.81604 0.77238 0.77549 0.0
C2419 C 0.81905 0.77343 0.82943 0.0
H2420 H 0.41276 0.51166 0.8405 0.0
H2421 H 0.45467 0.49111 0.88098 0.0
H2422 H 0.41906 0.5125 0.74774 0.0
H2423 H 0.46111 0.49291 0.78806 0.0
H2424 H 0.46272 0.46835 0.6132 0.0
H2425 H 0.45756 0.46966 0.70705 0.0
H2426 H 0.43205 0.53572 0.6829 0.0
H2427 H 0.43723 0.53446 0.58898 0.0
C2428 C 0.42334 0.50735 0.82969 0.0
C2429 C 0.43316 0.50114 0.86849 0.0
C2430 C 0.42701 0.50815 0.77636 0.0
C2431 C 0.44061 0.50277 0.76009 0.0
C2432 C 0.4505 0.49689 0.79893 0.0
C2433 C 0.44683 0.49614 0.85238 0.0
C2434 C 0.45617 0.48341 0.62789 0.0
C2435 C 0.45038 0.50126 0.59314 0.0
C2436 C 0.4532 0.48415 0.68191 0.0
C2437 C 0.44433 0.50274 0.70283 0.0
C2438 C 0.43873 0.52085 0.66823 0.0
C2439 C 0.4417 0.52012 0.61422 0.0
H2440 H 0.81227 0.44907 0.43137 0.0
H2441 H 0.80525 0.52955 0.41884 0.0
H2442 H 0.80748 0.45103 0.52544 0.0
H2443 H 0.79992 0.53135 0.51265 0.0
H2444 H 0.80605 0.53054 0.69183 0.0
H2445 H 0.81071 0.52857 0.59758 0.0
H2446 H 0.78942 0.45682 0.58897 0.0
H2447 H 0.78483 0.45875 0.6833 0.0
C2448 C 0.8097 0.46722 0.44859 0.0
C2449 C 0.80924 0.48917 0.41716 0.0
C2450 C 0.80678 0.4683 0.50265 0.0
C2451 C 0.80331 0.49136 0.52712 0.0
C2452 C 0.80271 0.51328 0.49559 0.0
C2453 C 0.80561 0.51219 0.44145 0.0
C2454 C 0.80227 0.51441 0.66984 0.0
C2455 C 0.79505 0.49481 0.69554 0.0
C2456 C 0.80492 0.51329 0.61557 0.0
C2457 C 0.80043 0.49256 0.58519 0.0
C2458 C 0.79325 0.47292 0.61094 0.0
C2459 C 0.79061 0.47402 0.66525 0.0
H2460 H 0.46465 0.78858 0.66645 0.0
H2461 H 0.42823 0.74303 0.69333 0.0
H2462 H 0.45957 0.78951 0.57256 0.0
H2463 H 0.4232 0.74376 0.59932 0.0
H2464 H 0.41039 0.77188 0.43635 0.0
H2465 H 0.41559 0.77061 0.52993 0.0
H2466 H 0.45916 0.76431 0.49438 0.0
H2467 H 0.454 0.76688 0.4006 0.0
C2468 C 0.45562 0.77855 0.65232 0.0
C2469 C 0.44687 0.76572 0.68774 0.0
C2470 C 0.45271 0.77904 0.59828 0.0
C2471 C 0.44097 0.76667 0.57792 0.0
C2472 C 0.43221 0.75386 0.6134 0.0
C2473 C 0.4351 0.75343 0.66749 0.0
C2474 C 0.42111 0.7705 0.44833 0.0
C2475 C 0.43176 0.76967 0.4105 0.0
C2476 C 0.42408 0.76941 0.50225 0.0
C2477 C 0.43781 0.76736 0.52015 0.0
C2478 C 0.44847 0.76623 0.48233 0.0
C2479 C 0.44549 0.76737 0.42833 0.0
H2480 H 0.1633 0.26905 0.18853 0.0
H2481 H 0.20544 0.24954 0.14889 0.0
H2482 H 0.16967 0.27207 0.28098 0.0
H2483 H 0.21194 0.25353 0.24136 0.0
H2484 H 0.21333 0.23068 0.41726 0.0
H2485 H 0.20835 0.23089 0.32335 0.0
H2486 H 0.18261 0.29698 0.3438 0.0
H2487 H 0.18762 0.29681 0.43792 0.0
C2488 C 0.17395 0.26548 0.19948 0.0
C2489 C 0.18382 0.25883 0.16115 0.0
C2490 C 0.17765 0.26754 0.25254 0.0
C2491 C 0.19133 0.26302 0.26882 0.0
C2492 C 0.20128 0.25686 0.23037 0.0
C2493 C 0.19758 0.25484 0.17721 0.0
C2494 C 0.20679 0.24554 0.4017 0.0
C2495 C 0.20086 0.26371 0.4354 0.0
C2496 C 0.20393 0.24565 0.3477 0.0
C2497 C 0.19504 0.2639 0.32585 0.0
C2498 C 0.18932 0.28238 0.35935 0.0
C2499 C 0.19219 0.28228 0.41338 0.0
H2500 H 0.52356 0.54819 0.41169 0.0
H2501 H 0.55071 0.4843 0.43556 0.0
H2502 H 0.52862 0.54726 0.31776 0.0
H2503 H 0.55578 0.48338 0.34153 0.0
H2504 H 0.57434 0.50943 0.18407 0.0
H2505 H 0.56812 0.50784 0.27682 0.0
H2506 H 0.52556 0.52363 0.23696 0.0
H2507 H 0.5319 0.52628 0.14408 0.0
C2508 C 0.53045 0.53368 0.39687 0.0
C2509 C 0.53675 0.51636 0.43148 0.0
C2510 C 0.53336 0.53315 0.34284 0.0
C2511 C 0.54266 0.5153 0.32185 0.0
C2512 C 0.54876 0.49769 0.35632 0.0
C2513 C 0.54585 0.49821 0.41035 0.0
C2514 C 0.56366 0.51275 0.19499 0.0
C2515 C 0.55366 0.51819 0.15637 0.0
C2516 C 0.56005 0.5115 0.24829 0.0
C2517 C 0.54632 0.51562 0.26464 0.0
C2518 C 0.53626 0.52065 0.22598 0.0
C2519 C 0.53988 0.52188 0.17256 0.0
H2520 H 0.21371 0.54513 0.35865 0.0
H2521 H 0.18453 0.48421 0.33562 0.0
H2522 H 0.20855 0.54521 0.4525 0.0
H2523 H 0.17936 0.48429 0.4296 0.0
H2524 H 0.1617 0.5128 0.58665 0.0
H2525 H 0.16783 0.51033 0.49389 0.0
H2526 H 0.21085 0.52154 0.53354 0.0
H2527 H 0.20462 0.52509 0.6264 0.0
C2528 C 0.20633 0.53148 0.37365 0.0
C2529 C 0.19952 0.51469 0.33931 0.0
C2530 C 0.20337 0.53153 0.42762 0.0
C2531 C 0.1935 0.51481 0.44883 0.0
C2532 C 0.18685 0.49774 0.41463 0.0
C2533 C 0.18982 0.49769 0.36064 0.0
C2534 C 0.17246 0.51493 0.57567 0.0
C2535 C 0.18263 0.51934 0.6142 0.0
C2536 C 0.17601 0.51318 0.52238 0.0
C2537 C 0.18985 0.51574 0.50599 0.0
C2538 C 0.20007 0.51977 0.54457 0.0
C2539 C 0.19651 0.52151 0.59797 0.0
H2540 H 0.55755 0.22412 0.33571 0.0
H2541 H 0.5287 0.28501 0.36427 0.0
H2542 H 0.56265 0.22215 0.42955 0.0
H2543 H 0.53328 0.28219 0.45824 0.0
H2544 H 0.55485 0.2881 0.61837 0.0
H2545 H 0.55001 0.29078 0.52432 0.0
H2546 H 0.55322 0.20944 0.51198 0.0
H2547 H 0.55822 0.20687 0.60581 0.0
C2548 C 0.5523 0.23714 0.36186 0.0
C2549 C 0.54268 0.25471 0.34194 0.0
C2550 C 0.55509 0.23578 0.41601 0.0
C2551 C 0.54836 0.25193 0.45201 0.0
C2552 C 0.5388 0.26959 0.43201 0.0
C2553 C 0.53603 0.27097 0.3779 0.0
C2554 C 0.5544 0.27076 0.59571 0.0
C2555 C 0.55698 0.24727 0.61992 0.0
C2556 C 0.55161 0.27228 0.54157 0.0
C2557 C 0.55125 0.25034 0.51001 0.0
C2558 C 0.55368 0.22683 0.53446 0.0
C2559 C 0.55652 0.22533 0.5885 0.0
H2560 H 0.2871 0.43867 0.47867 0.0
H2561 H 0.33065 0.42404 0.49805 0.0
H2562 H 0.28597 0.40599 0.41025 0.0
H2563 H 0.32944 0.39043 0.43348 0.0
H2564 H 0.32883 0.34794 0.2816 0.0
H2565 H 0.32853 0.38157 0.34633 0.0
H2566 H 0.28603 0.36359 0.38418 0.0
H2567 H 0.28617 0.33088 0.31577 0.0
C2568 C 0.29644 0.42852 0.46831 0.0
C2569 C 0.30905 0.43456 0.49303 0.0
C2570 C 0.29578 0.40943 0.42942 0.0
C2571 C 0.30766 0.39545 0.41485 0.0
C2572 C 0.3201 0.40105 0.44146 0.0
C2573 C 0.32079 0.42031 0.47935 0.0
C2574 C 0.31937 0.35116 0.30352 0.0
C2575 C 0.30758 0.33632 0.29372 0.0
C2576 C 0.31922 0.37043 0.34148 0.0
C2577 C 0.30735 0.37537 0.37218 0.0
C2578 C 0.29542 0.36071 0.3617 0.0
C2579 C 0.29551 0.34161 0.32275 0.0
H2580 H 0.95334 0.83155 0.47011 0.0
H2581 H 0.91084 0.85045 0.5032 0.0
H2582 H 0.9541 0.86468 0.40258 0.0
H2583 H 0.91174 0.88428 0.43893 0.0
H2584 H 0.91088 0.92685 0.28669 0.0
H2585 H 0.91141 0.89283 0.35066 0.0
H2586 H 0.95465 0.90804 0.38035 0.0
H2587 H 0.9542 0.94131 0.31311 0.0
C2588 C 0.94417 0.84278 0.46307 0.0
C2589 C 0.93196 0.83797 0.49162 0.0
C2590 C 0.94462 0.86207 0.42464 0.0
C2591 C 0.93292 0.8773 0.41412 0.0
C2592 C 0.92088 0.87273 0.44408 0.0
C2593 C 0.92039 0.85334 0.48169 0.0
C2594 C 0.92054 0.92293 0.30667 0.0
C2595 C 0.93245 0.93714 0.29503 0.0
C2596 C 0.92083 0.90344 0.3441 0.0
C2597 C 0.93302 0.89762 0.37213 0.0
C2598 C 0.94504 0.91165 0.35982 0.0
C2599 C 0.94477 0.93103 0.32158 0.0
H2600 H 0.286 0.92734 0.99141 0.0
H2601 H 0.32946 0.93869 0.96234 0.0
H2602 H 0.2857 0.89288 0.92677 0.0
H2603 H 0.32913 0.90595 0.89558 0.0
H2604 H 0.33042 0.83142 0.81336 0.0
H2605 H 0.3293 0.86422 0.8799 0.0
H2606 H 0.28618 0.87671 0.84259 0.0
H2607 H 0.28726 0.84222 0.77815 0.0
C2608 C 0.29545 0.92267 0.97065 0.0
C2609 C 0.3078 0.93553 0.98266 0.0
C2610 C 0.29531 0.90292 0.93315 0.0
C2611 C 0.30747 0.89582 0.90575 0.0
C2612 C 0.31962 0.90971 0.91663 0.0
C2613 C 0.31981 0.92889 0.9548 0.0
C2614 C 0.32067 0.84109 0.81956 0.0
C2615 C 0.30896 0.83423 0.79016 0.0
C2616 C 0.32002 0.86031 0.85758 0.0
C2617 C 0.30771 0.87405 0.86671 0.0
C2618 C 0.29587 0.86678 0.83763 0.0
C2619 C 0.29647 0.847 0.80027 0.0
H2620 H 0.91223 0.4243 0.78496 0.0
H2621 H 0.95483 0.44206 0.81833 0.0
H2622 H 0.9128 0.39047 0.84901 0.0
H2623 H 0.95519 0.40941 0.88659 0.0
H2624 H 0.9551 0.33441 0.97977 0.0
H2625 H 0.95578 0.36766 0.91281 0.0
H2626 H 0.91192 0.37999 0.93475 0.0
H2627 H 0.91119 0.34556 0.9976 0.0
C2628 C 0.92172 0.42125 0.80672 0.0
C2629 C 0.9334 0.4364 0.79696 0.0
C2630 C 0.92202 0.40186 0.84437 0.0
C2631 C 0.93394 0.3971 0.87481 0.0
C2632 C 0.94576 0.41212 0.8644 0.0
C2633 C 0.94552 0.43128 0.82566 0.0
C2634 C 0.94558 0.34399 0.96944 0.0
C2635 C 0.93302 0.33672 0.99311 0.0
C2636 C 0.94597 0.36343 0.93138 0.0
C2637 C 0.93386 0.37668 0.9168 0.0
C2638 C 0.92144 0.36996 0.94264 0.0
C2639 C 0.92102 0.35024 0.97957 0.0
H2640 H 0.66281 0.67525 0.74492 0.0
H2641 H 0.70483 0.69504 0.70562 0.0
H2642 H 0.66318 0.64175 0.67983 0.0
H2643 H 0.70503 0.66207 0.63745 0.0
H2644 H 0.70388 0.58503 0.54652 0.0
H2645 H 0.70528 0.61814 0.61435 0.0
H2646 H 0.66197 0.63485 0.59061 0.0
H2647 H 0.66051 0.60124 0.52615 0.0
C2648 C 0.67214 0.6726 0.72194 0.0
C2649 C 0.68373 0.68814 0.7304 0.0
C2650 C 0.67232 0.6534 0.68389 0.0
C2651 C 0.68405 0.64916 0.65197 0.0
C2652 C 0.6958 0.66448 0.66104 0.0
C2653 C 0.69566 0.68363 0.69989 0.0
C2654 C 0.69465 0.59562 0.55645 0.0
C2655 C 0.68201 0.58997 0.5316 0.0
C2656 C 0.69547 0.61487 0.59502 0.0
C2657 C 0.68368 0.62918 0.60928 0.0
C2658 C 0.67122 0.62395 0.58262 0.0
C2659 C 0.67039 0.60467 0.54489 0.0
H2660 H 0.07826 0.0826 0.71581 0.0
H2661 H 0.03478 0.09193 0.74738 0.0
H2662 H 0.07731 0.11575 0.6501 0.0
H2663 H 0.03384 0.12683 0.68376 0.0
H2664 H 0.03455 0.17876 0.53623 0.0
H2665 H 0.03389 0.14397 0.60014 0.0
H2666 H 0.07698 0.15757 0.63632 0.0
H2667 H 0.07769 0.19061 0.57031 0.0
C2668 C 0.06846 0.09201 0.70896 0.0
C2669 C 0.05663 0.08465 0.73717 0.0
C2670 C 0.06791 0.11145 0.67144 0.0
C2671 C 0.05556 0.12496 0.66167 0.0
C2672 C 0.04358 0.11712 0.68934 0.0
C2673 C 0.04409 0.09709 0.72619 0.0
C2674 C 0.04383 0.1742 0.55808 0.0
C2675 C 0.05621 0.18729 0.5477 0.0
C2676 C 0.04348 0.15422 0.59508 0.0
C2677 C 0.05546 0.1471 0.6235 0.0
C2678 C 0.06762 0.1613 0.61439 0.0
C2679 C 0.06802 0.18068 0.57671 0.0
H2680 H 0.7049 0.09659 0.03566 0.0
H2681 H 0.66163 0.08452 0.06757 0.0
H2682 H 0.7054 0.13065 0.10112 0.0
H2683 H 0.66219 0.11687 0.13515 0.0
H2684 H 0.66112 0.19095 0.21926 0.0
H2685 H 0.66198 0.15848 0.15205 0.0
H2686 H 0.70534 0.14627 0.18571 0.0
H2687 H 0.70451 0.18048 0.25088 0.0
C2688 C 0.69553 0.10103 0.05716 0.0
C2689 C 0.68317 0.08808 0.04573 0.0
C2690 C 0.6958 0.12054 0.09517 0.0
C2691 C 0.68377 0.12731 0.12368 0.0
C2692 C 0.6716 0.11336 0.11329 0.0
C2693 C 0.67127 0.09441 0.07461 0.0
C2694 C 0.67086 0.18139 0.21221 0.0
C2695 C 0.68271 0.18823 0.24086 0.0
C2696 C 0.67136 0.16236 0.17375 0.0
C2697 C 0.68366 0.14882 0.16335 0.0
C2698 C 0.69564 0.15607 0.19167 0.0
C2699 C 0.69519 0.17567 0.22948 0.0
H2700 H 0.07938 0.6898 0.06929 0.0
H2701 H 0.03621 0.67859 0.03468 0.0
H2702 H 0.07848 0.65668 0.13511 0.0
H2703 H 0.03535 0.64378 0.09855 0.0
H2704 H 0.03587 0.59207 0.2465 0.0
H2705 H 0.03517 0.6269 0.18264 0.0
H2706 H 0.07855 0.6148 0.14901 0.0
H2707 H 0.07927 0.58168 0.21479 0.0
C2708 C 0.06967 0.67999 0.07547 0.0
C2709 C 0.05791 0.68682 0.04636 0.0
C2710 C 0.06915 0.66058 0.11309 0.0
C2711 C 0.05692 0.64659 0.12215 0.0
C2712 C 0.045 0.65388 0.09354 0.0
C2713 C 0.04547 0.67385 0.05653 0.0
C2714 C 0.04522 0.59699 0.2253 0.0
C2715 C 0.05767 0.58425 0.2363 0.0
C2716 C 0.04484 0.61698 0.18829 0.0
C2717 C 0.05687 0.6245 0.16052 0.0
C2718 C 0.06912 0.61073 0.17039 0.0
C2719 C 0.06954 0.59131 0.20799 0.0
H2720 H 0.82997 0.43373 0.96808 0.0
H2721 H 0.78644 0.42412 0.99833 0.0
H2722 H 0.82911 0.40107 0.90125 0.0
H2723 H 0.78559 0.38979 0.93339 0.0
H2724 H 0.7865 0.33983 0.78271 0.0
H2725 H 0.78578 0.37389 0.84842 0.0
H2726 H 0.82868 0.35925 0.88596 0.0
H2727 H 0.82947 0.32696 0.81838 0.0
C2728 C 0.82019 0.42432 0.96084 0.0
C2729 C 0.80832 0.43144 0.98908 0.0
C2730 C 0.81969 0.4052 0.92259 0.0
C2731 C 0.80734 0.39184 0.91192 0.0
C2732 C 0.79533 0.3994 0.93968 0.0
C2733 C 0.7958 0.41907 0.97736 0.0
C2734 C 0.79573 0.34401 0.80525 0.0
C2735 C 0.80809 0.33085 0.79482 0.0
C2736 C 0.79535 0.36355 0.84328 0.0
C2737 C 0.80726 0.37015 0.87264 0.0
C2738 C 0.81938 0.35589 0.8634 0.0
C2739 C 0.81982 0.33695 0.82477 0.0
H2740 H 0.45434 0.92566 0.78247 0.0
H2741 H 0.41108 0.93639 0.81648 0.0
H2742 H 0.45517 0.8907 0.84585 0.0
H2743 H 0.41195 0.90311 0.88195 0.0
H2744 H 0.41148 0.82796 0.96194 0.0
H2745 H 0.41202 0.86128 0.89648 0.0
H2746 H 0.45536 0.87397 0.92963 0.0
H2747 H 0.45485 0.83899 0.99298 0.0
C2748 C 0.44504 0.92074 0.80401 0.0
C2749 C 0.43259 0.93361 0.79379 0.0
C2750 C 0.4455 0.90069 0.8408 0.0
C2751 C 0.43357 0.89328 0.86925 0.0
C2752 C 0.4213 0.90712 0.86007 0.0
C2753 C 0.42079 0.92661 0.82262 0.0
C2754 C 0.42115 0.83781 0.95515 0.0
C2755 C 0.43308 0.83087 0.98313 0.0
C2756 C 0.42146 0.85732 0.91771 0.0
C2757 C 0.43367 0.87125 0.9077 0.0
C2758 C 0.44573 0.86391 0.93532 0.0
C2759 C 0.44546 0.84385 0.9721 0.0
H2760 H 0.78593 0.82783 0.31321 0.0
H2761 H 0.82874 0.84525 0.2827 0.0
H2762 H 0.78522 0.86099 0.38073 0.0
H2763 H 0.82789 0.87921 0.34665 0.0
H2764 H 0.82897 0.92096 0.49922 0.0
H2765 H 0.82811 0.88741 0.4346 0.0
H2766 H 0.78503 0.90408 0.40523 0.0
H2767 H 0.78576 0.9369 0.47366 0.0
C2768 C 0.79518 0.83874 0.32081 0.0
C2769 C 0.80747 0.83343 0.29313 0.0
C2770 C 0.79475 0.85807 0.35922 0.0
C2771 C 0.80656 0.87289 0.3705 0.0
C2772 C 0.81866 0.86795 0.34108 0.0
C2773 C 0.81913 0.84849 0.30361 0.0
C2774 C 0.81927 0.91753 0.47916 0.0
C2775 C 0.80752 0.93213 0.49115 0.0
C2776 C 0.81879 0.89829 0.44126 0.0
C2777 C 0.80658 0.89302 0.41298 0.0
C2778 C 0.79467 0.90733 0.42576 0.0
C2779 C 0.79511 0.92647 0.46463 0.0
H2780 H 0.45209 0.34101 0.49359 0.0
H2781 H 0.40836 0.3321 0.46715 0.0
H2782 H 0.45282 0.37485 0.42777 0.0
H2783 H 0.40908 0.3643 0.39923 0.0
H2784 H 0.40927 0.43866 0.3147 0.0
H2785 H 0.40973 0.40595 0.38163 0.0
H2786 H 0.45243 0.38987 0.34291 0.0
H2787 H 0.45206 0.42417 0.27811 0.0
C2788 C 0.44266 0.34609 0.47318 0.0
C2789 C 0.43013 0.33409 0.48623 0.0
C2790 C 0.44306 0.36547 0.43497 0.0
C2791 C 0.43096 0.37307 0.40786 0.0
C2792 C 0.41858 0.36009 0.41991 0.0
C2793 C 0.41815 0.34125 0.45878 0.0
C2794 C 0.41878 0.42817 0.32059 0.0
C2795 C 0.4306 0.43401 0.29082 0.0
C2796 C 0.41904 0.40904 0.35889 0.0
C2797 C 0.43105 0.39444 0.36795 0.0
C2798 C 0.44297 0.40055 0.33815 0.0
C2799 C 0.44277 0.42019 0.30051 0.0
H2800 H 0.16081 0.5811 0.0638 0.0
H2801 H 0.20382 0.59428 0.02904 0.0
H2802 H 0.16141 0.61346 0.13136 0.0
H2803 H 0.20435 0.6284 0.09439 0.0
H2804 H 0.20374 0.67844 0.24357 0.0
H2805 H 0.20454 0.6442 0.1786 0.0
H2806 H 0.1609 0.65502 0.14821 0.0
H2807 H 0.1601 0.68754 0.2154 0.0
C2808 C 0.17041 0.5912 0.07036 0.0
C2809 C 0.18223 0.58516 0.04079 0.0
C2810 C 0.17075 0.61017 0.10895 0.0
C2811 C 0.18285 0.62448 0.11842 0.0
C2812 C 0.19481 0.61799 0.0892 0.0
C2813 C 0.19453 0.59843 0.05133 0.0
C2814 C 0.19434 0.67331 0.22296 0.0
C2815 C 0.18181 0.68548 0.23528 0.0
C2816 C 0.19478 0.65369 0.18524 0.0
C2817 C 0.18273 0.64605 0.1579 0.0
C2818 C 0.17036 0.65922 0.16918 0.0
C2819 C 0.16988 0.67827 0.2076 0.0
H2820 H 0.53551 0.08377 0.22857 0.0
H2821 H 0.57904 0.09886 0.24803 0.0
H2822 H 0.53433 0.11676 0.16041 0.0
H2823 H 0.57777 0.13243 0.18375 0.0
H2824 H 0.57743 0.17443 0.03211 0.0
H2825 H 0.57675 0.1403 0.09562 0.0
H2826 H 0.53471 0.16026 0.13616 0.0
H2827 H 0.53522 0.19374 0.06916 0.0
C2828 C 0.54483 0.094 0.21826 0.0
C2829 C 0.55745 0.08806 0.24304 0.0
C2830 C 0.54414 0.11324 0.17954 0.0
C2831 C 0.55602 0.1273 0.16511 0.0
C2832 C 0.56845 0.12174 0.19166 0.0
C2833 C 0.56916 0.10247 0.2294 0.0
C2834 C 0.56799 0.17157 0.05433 0.0
C2835 C 0.55645 0.18722 0.04576 0.0
C2836 C 0.56762 0.15198 0.09154 0.0
C2837 C 0.55578 0.14749 0.12269 0.0
C2838 C 0.54406 0.16286 0.1133 0.0
C2839 C 0.54437 0.18234 0.07514 0.0
H2840 H 0.16139 0.09907 0.53313 0.0
H2841 H 0.20405 0.08112 0.56499 0.0
H2842 H 0.16225 0.13323 0.59664 0.0
H2843 H 0.20476 0.1145 0.632 0.0
H2844 H 0.20447 0.19077 0.72331 0.0
H2845 H 0.20513 0.15763 0.65559 0.0
H2846 H 0.16189 0.14194 0.68439 0.0
H2847 H 0.16112 0.17582 0.74833 0.0
C2848 C 0.17097 0.10223 0.55424 0.0
C2849 C 0.18259 0.08698 0.54423 0.0
C2850 C 0.17144 0.12181 0.59145 0.0
C2851 C 0.1835 0.12669 0.62106 0.0
C2852 C 0.19526 0.11165 0.61031 0.0
C2853 C 0.19483 0.09219 0.57217 0.0
C2854 C 0.19507 0.18049 0.71432 0.0
C2855 C 0.18265 0.18652 0.74048 0.0
C2856 C 0.19547 0.16116 0.67586 0.0
C2857 C 0.1835 0.14702 0.66313 0.0
C2858 C 0.17126 0.15267 0.69104 0.0
C2859 C 0.17084 0.1721 0.72854 0.0
H2860 H 0.57658 0.58387 0.71403 0.0
H2861 H 0.53313 0.59465 0.74426 0.0
H2862 H 0.57612 0.6172 0.64862 0.0
H2863 H 0.53269 0.62963 0.68071 0.0
H2864 H 0.53435 0.68026 0.53087 0.0
H2865 H 0.53317 0.64591 0.5958 0.0
H2866 H 0.57606 0.65929 0.6355 0.0
H2867 H 0.57729 0.69194 0.56875 0.0
C2868 C 0.5669 0.59365 0.70703 0.0
C2869 C 0.55493 0.58663 0.73472 0.0
C2870 C 0.56663 0.61316 0.66964 0.0
C2871 C 0.55443 0.62701 0.65939 0.0
C2872 C 0.54232 0.61961 0.6867 0.0
C2873 C 0.54255 0.59956 0.72351 0.0
C2874 C 0.54347 0.67575 0.55372 0.0
C2875 C 0.55596 0.68865 0.54414 0.0
C2876 C 0.54282 0.65605 0.59129 0.0
C2877 C 0.5546 0.649 0.62094 0.0
C2878 C 0.56685 0.66302 0.61262 0.0
C2879 C 0.56755 0.68214 0.57449 0.0
H2880 H 0.27462 0.19837 0.1555 0.0
H2881 H 0.31749 0.19595 0.20173 0.0
H2882 H 0.27598 0.1548 0.12544 0.0
H2883 H 0.3188 0.1515 0.17398 0.0
H2884 H 0.31812 0.07566 0.07852 0.0
H2885 H 0.31889 0.12006 0.10698 0.0
H2886 H 0.27641 0.11431 0.15908 0.0
H2887 H 0.27557 0.07083 0.12829 0.0
C2888 C 0.28438 0.18843 0.15917 0.0
C2889 C 0.29591 0.20059 0.1812 0.0
C2890 C 0.28514 0.16322 0.14253 0.0
C2891 C 0.29741 0.14904 0.14838 0.0
C2892 C 0.30916 0.16159 0.16864 0.0
C2893 C 0.30843 0.18712 0.18461 0.0
C2894 C 0.30904 0.08392 0.09669 0.0
C2895 C 0.29674 0.06982 0.10083 0.0
C2896 C 0.30945 0.10943 0.11303 0.0
C2897 C 0.29761 0.1213 0.13439 0.0
C2898 C 0.28561 0.10644 0.14113 0.0
C2899 C 0.28516 0.08127 0.1241 0.0
H2900 H 0.93022 0.20773 0.13272 0.0
H2901 H 0.95649 0.17852 1.00941 0.0
H2902 H 0.92913 0.16501 0.17212 0.0
H2903 H 0.95543 0.13663 0.04813 0.0
H2904 H 0.96665 0.07637 0.16906 0.0
H2905 H 0.96515 0.11853 0.13094 0.0
H2906 H 0.92086 0.11804 0.15246 0.0
H2907 H 0.92238 0.07525 0.19086 0.0
C2908 C 0.93566 0.19226 0.11391 0.0
C2909 C 0.94353 0.19662 0.06815 0.0
C2910 C 0.935 0.1678 0.13626 0.0
C2911 C 0.94231 0.14741 0.11353 0.0
C2912 C 0.94984 0.15188 0.06718 0.0
C2913 C 0.95041 0.176 0.04487 0.0
C2914 C 0.95656 0.08512 0.16547 0.0
C2915 C 0.94464 0.07237 0.18277 0.0
C2916 C 0.95569 0.10934 0.14354 0.0
C2917 C 0.94288 0.12175 0.13857 0.0
C2918 C 0.93089 0.10909 0.15606 0.0
C2919 C 0.93175 0.08452 0.17754 0.0
H2920 H 0.71637 0.95171 0.90666 0.0
H2921 H 0.67334 0.9494 0.95116 0.0
H2922 H 0.71503 0.90823 0.87609 0.0
H2923 H 0.67204 0.90503 0.92283 0.0
H2924 H 0.67294 0.8297 0.82531 0.0
H2925 H 0.67213 0.87393 0.855 0.0
H2926 H 0.71437 0.8676 0.90916 0.0
H2927 H 0.71527 0.82432 0.87718 0.0
C2928 C 0.70658 0.94181 0.90989 0.0
C2929 C 0.695 0.95398 0.93158 0.0
C2930 C 0.70583 0.91665 0.89294 0.0
C2931 C 0.69351 0.90253 0.89807 0.0
C2932 C 0.68172 0.91508 0.91805 0.0
C2933 C 0.68244 0.94057 0.93437 0.0
C2934 C 0.68195 0.8378 0.84423 0.0
C2935 C 0.69421 0.82362 0.84859 0.0
C2936 C 0.68152 0.8632 0.86126 0.0
C2937 C 0.6933 0.87486 0.88353 0.0
C2938 C 0.70523 0.8599 0.89054 0.0
C2939 C 0.70571 0.83484 0.87283 0.0
H2940 H 0.05861 0.92686 0.75987 0.0
H2941 H 0.04778 0.96102 0.90806 0.0
H2942 H 0.06121 0.88598 0.80236 0.0
H2943 H 0.04895 0.91982 0.95067 0.0
H2944 H 0.05551 0.84472 0.02721 0.0
H2945 H 0.05848 0.88577 0.98591 0.0
H2946 H 0.05135 0.85128 0.83354 0.0
H2947 H 0.04979 0.80996 0.87557 0.0
C2948 C 0.05683 0.92552 0.80191 0.0
C2949 C 0.05314 0.94716 0.83075 0.0
C2950 C 0.05807 0.90184 0.82645 0.0
C2951 C 0.05508 0.89874 0.88049 0.0
C2952 C 0.05165 0.92084 0.90943 0.0
C2953 C 0.05091 0.94473 0.88504 0.0
C2954 C 0.0549 0.84598 0.9847 0.0
C2955 C 0.05252 0.82412 0.9546 0.0
C2956 C 0.05637 0.86974 0.96073 0.0
C2957 C 0.05494 0.87269 0.90575 0.0
C2958 C 0.05282 0.8504 0.87566 0.0
C2959 C 0.05185 0.82645 0.8997 0.0
H2960 H 0.30019 0.7106 0.62159 0.0
H2961 H 0.3077 0.67719 0.77337 0.0
H2962 H 0.30176 0.66905 0.58062 0.0
H2963 H 0.31072 0.63594 0.7329 0.0
H2964 H 0.29981 0.55988 0.65889 0.0
H2965 H 0.3011 0.60141 0.7001 0.0
H2966 H 0.31165 0.63448 0.54919 0.0
H2967 H 0.30892 0.59327 0.50828 0.0
C2968 C 0.30266 0.69437 0.64589 0.0
C2969 C 0.30382 0.6971 0.70058 0.0
C2970 C 0.30364 0.67029 0.62246 0.0
C2971 C 0.30627 0.64832 0.65293 0.0
C2972 C 0.30821 0.65171 0.70756 0.0
C2973 C 0.30672 0.67558 0.73101 0.0
C2974 C 0.30257 0.5761 0.63496 0.0
C2975 C 0.30427 0.57337 0.58047 0.0
C2976 C 0.30339 0.60016 0.65854 0.0
C2977 C 0.30637 0.62212 0.62848 0.0
C2978 C 0.30885 0.61873 0.57415 0.0
C2979 C 0.30753 0.59487 0.55048 0.0
H2980 H 0.91965 0.70741 0.6274 0.0
H2981 H 0.96158 0.68807 0.58476 0.0
H2982 H 0.91621 0.66417 0.66122 0.0
H2983 H 0.95811 0.6453 0.61748 0.0
H2984 H 0.9438 0.5638 0.62993 0.0
H2985 H 0.94437 0.60665 0.59331 0.0
H2986 H 0.92529 0.63558 0.73472 0.0
H2987 H 0.92481 0.59274 0.77147 0.0
C2988 C 0.92812 0.69401 0.62533 0.0
C2989 C 0.94086 0.7012 0.60316 0.0
C2990 C 0.92615 0.66926 0.64464 0.0
C2991 C 0.93683 0.65111 0.64137 0.0
C2992 C 0.94958 0.65855 0.61971 0.0
C2993 C 0.95159 0.68322 0.60127 0.0
C2994 C 0.93954 0.57923 0.65288 0.0
C2995 C 0.93435 0.57488 0.70378 0.0
C2996 C 0.93995 0.60384 0.63205 0.0
C2997 C 0.935 0.62465 0.66128 0.0
C2998 C 0.92914 0.62004 0.71106 0.0
C2999 C 0.92891 0.59548 0.73217 0.0
H3000 H 0.68465 0.46335 0.37381 0.0
H3001 H 0.68275 0.42827 0.52691 0.0
H3002 H 0.68438 0.42118 0.33244 0.0
H3003 H 0.68203 0.38645 0.48589 0.0
H3004 H 0.67143 0.31491 0.38634 0.0
H3005 H 0.66739 0.35769 0.42173 0.0
H3006 H 0.70321 0.385 0.33775 0.0
H3007 H 0.70746 0.34247 0.30392 0.0
C3008 C 0.68376 0.4467 0.39847 0.0
C3009 C 0.68371 0.44906 0.45354 0.0
C3010 C 0.6837 0.42258 0.3749 0.0
C3011 C 0.6832 0.40046 0.40596 0.0
C3012 C 0.68231 0.40305 0.46087 0.0
C3013 C 0.68274 0.42702 0.48433 0.0
C3014 C 0.67839 0.3301 0.37544 0.0
C3015 C 0.68979 0.32526 0.34256 0.0
C3016 C 0.67608 0.35456 0.39558 0.0
C3017 C 0.68491 0.3748 0.38208 0.0
C3018 C 0.69611 0.36996 0.34829 0.0
C3019 C 0.6986 0.34549 0.32929 0.0
H3020 H 0.04664 0.30977 0.37434 0.0
H3021 H 0.05809 0.34442 0.52129 0.0
H3022 H 0.04806 0.35069 0.33073 0.0
H3023 H 0.06095 0.38498 0.47774 0.0
H3024 H 0.05032 0.46093 0.40329 0.0
H3025 H 0.05146 0.41981 0.44614 0.0
H3026 H 0.0577 0.38425 0.29419 0.0
H3027 H 0.05509 0.42519 0.25212 0.0
C3028 C 0.04996 0.3261 0.39686 0.0
C3029 C 0.0523 0.32391 0.4511 0.0
C3030 C 0.05085 0.34983 0.37187 0.0
C3031 C 0.05453 0.37198 0.40014 0.0
C3032 C 0.05762 0.36909 0.45415 0.0
C3033 C 0.05623 0.34559 0.4793 0.0
C3034 C 0.05205 0.44424 0.3794 0.0
C3035 C 0.05258 0.44626 0.32442 0.0
C3036 C 0.0528 0.42039 0.40393 0.0
C3037 C 0.05457 0.39788 0.37425 0.0
C3038 C 0.05585 0.40048 0.31913 0.0
C3039 C 0.05459 0.42417 0.29468 0.0
H3040 H 0.79995 0.057 0.65719 0.0
H3041 H 0.81007 0.09119 0.50826 0.0
H3042 H 0.80168 0.09813 0.69997 0.0
H3043 H 0.81319 0.13195 0.55082 0.0
H3044 H 0.80193 0.2077 0.62567 0.0
H3045 H 0.8032 0.16647 0.58317 0.0
H3046 H 0.81205 0.13186 0.73406 0.0
H3047 H 0.80938 0.17284 0.77612 0.0
C3048 C 0.80303 0.07328 0.634 0.0
C3049 C 0.80488 0.07093 0.5795 0.0
C3050 C 0.8041 0.09708 0.65848 0.0
C3051 C 0.80747 0.11912 0.62933 0.0
C3052 C 0.81011 0.11609 0.57503 0.0
C3053 C 0.80855 0.0925 0.55045 0.0
C3054 C 0.80432 0.19122 0.64935 0.0
C3055 C 0.80555 0.19346 0.70411 0.0
C3056 C 0.80512 0.16734 0.62503 0.0
C3057 C 0.80762 0.14508 0.65469 0.0
C3058 C 0.80964 0.14793 0.70938 0.0
C3059 C 0.80835 0.17163 0.73372 0.0
H3060 H 0.46204 0.19992 0.63411 0.0
H3061 H 0.41979 0.19415 0.58153 0.0
H3062 H 0.46126 0.15654 0.66554 0.0
H3063 H 0.4191 0.14983 0.61059 0.0
H3064 H 0.42056 0.07404 0.70587 0.0
H3065 H 0.41906 0.11847 0.67799 0.0
H3066 H 0.4621 0.11608 0.63168 0.0
H3067 H 0.46362 0.0726 0.66186 0.0
C3068 C 0.45253 0.18929 0.62947 0.0
C3069 C 0.44101 0.20042 0.60521 0.0
C3070 C 0.45211 0.16418 0.64686 0.0
C3071 C 0.44024 0.14909 0.63944 0.0
C3072 C 0.42844 0.16066 0.61715 0.0
C3073 C 0.42881 0.18611 0.60047 0.0
C3074 C 0.42962 0.08308 0.68924 0.0
C3075 C 0.44225 0.06991 0.6865 0.0
C3076 C 0.42879 0.10859 0.6732 0.0
C3077 C 0.44054 0.12138 0.65354 0.0
C3078 C 0.45292 0.10748 0.64833 0.0
C3079 C 0.45378 0.08232 0.66505 0.0
H3080 H 0.21401 0.9485 0.40587 0.0
H3081 H 0.17139 0.94549 0.45554 0.0
H3082 H 0.2127 0.9049 0.37609 0.0
H3083 H 0.17014 0.90099 0.42792 0.0
H3084 H 0.17097 0.82502 0.3322 0.0
H3085 H 0.17001 0.86946 0.36037 0.0
H3086 H 0.21257 0.86455 0.41145 0.0
H3087 H 0.2136 0.821 0.38108 0.0
C3088 C 0.20431 0.93843 0.41029 0.0
C3089 C 0.19285 0.95041 0.43327 0.0
C3090 C 0.20358 0.91321 0.39382 0.0
C3091 C 0.19141 0.89885 0.40076 0.0
C3092 C 0.1797 0.91124 0.42181 0.0
C3093 C 0.18039 0.93679 0.43766 0.0
C3094 C 0.18003 0.83348 0.3501 0.0
C3095 C 0.1924 0.81961 0.35406 0.0
C3096 C 0.1795 0.859 0.36625 0.0
C3097 C 0.19131 0.87109 0.38719 0.0
C3098 C 0.20339 0.85647 0.39382 0.0
C3099 C 0.20395 0.83128 0.37702 0.0
H3100 H 0.55194 0.81197 0.37753 0.0
H3101 H 0.55811 0.84678 0.52891 0.0
H3102 H 0.55406 0.85309 0.33513 0.0
H3103 H 0.56167 0.88759 0.48717 0.0
H3104 H 0.55121 0.96274 0.40842 0.0
H3105 H 0.55217 0.92167 0.45155 0.0
H3106 H 0.56458 0.88726 0.304 0.0
H3107 H 0.56218 0.92805 0.26089 0.0
C3108 C 0.55421 0.82841 0.40152 0.0
C3109 C 0.55482 0.82621 0.45644 0.0
C3110 C 0.55552 0.85222 0.37726 0.0
C3111 C 0.55794 0.87444 0.40719 0.0
C3112 C 0.55934 0.87159 0.46218 0.0
C3113 C 0.55753 0.84798 0.48638 0.0
C3114 C 0.55435 0.94636 0.38569 0.0
C3115 C 0.55666 0.94857 0.33143 0.0
C3116 C 0.55496 0.92256 0.41038 0.0
C3117 C 0.55834 0.90037 0.38174 0.0
C3118 C 0.56147 0.90324 0.32778 0.0
C3119 C 0.56035 0.92685 0.30291 0.0
H3120 H 0.77571 0.69515 0.15601 0.0
H3121 H 0.81842 0.69207 0.20418 0.0
H3122 H 0.777 0.65167 0.12547 0.0
H3123 H 0.81965 0.64766 0.17587 0.0
H3124 H 0.81881 0.57177 0.08027 0.0
H3125 H 0.81973 0.61623 0.10839 0.0
H3126 H 0.77716 0.6112 0.15961 0.0
H3127 H 0.77616 0.56767 0.12927 0.0
C3128 C 0.78542 0.68509 0.15999 0.0
C3129 C 0.79692 0.69703 0.18276 0.0
C3130 C 0.78614 0.65992 0.14305 0.0
C3131 C 0.79833 0.64556 0.14934 0.0
C3132 C 0.81007 0.65791 0.17023 0.0
C3133 C 0.80939 0.68341 0.18651 0.0
C3134 C 0.80973 0.58022 0.09808 0.0
C3135 C 0.79737 0.5663 0.10214 0.0
C3136 C 0.81023 0.60575 0.11424 0.0
C3137 C 0.79842 0.61782 0.13532 0.0
C3138 C 0.78635 0.60317 0.14188 0.0
C3139 C 0.7858 0.57797 0.12506 0.0
H3140 H 0.42878 0.56074 0.14685 0.0
H3141 H 0.45647 0.58922 0.26618 0.0
H3142 H 0.4278 0.60342 0.1072 0.0
H3143 H 0.45552 0.63106 0.2272 0.0
H3144 H 0.46625 0.6907 0.10436 0.0
H3145 H 0.46466 0.64861 0.14269 0.0
H3146 H 0.4202 0.65076 0.12801 0.0
H3147 H 0.42182 0.69351 0.0894 0.0
C3148 C 0.43456 0.57604 0.16473 0.0
C3149 C 0.44278 0.5715 0.20944 0.0
C3150 C 0.43396 0.60047 0.14225 0.0
C3151 C 0.44169 0.62064 0.16379 0.0
C3152 C 0.4496 0.61599 0.20909 0.0
C3153 C 0.4501 0.5919 0.23155 0.0
C3154 C 0.4561 0.68233 0.10946 0.0
C3155 C 0.44417 0.69554 0.09403 0.0
C3156 C 0.45518 0.65815 0.13152 0.0
C3157 C 0.4423 0.64623 0.13849 0.0
C3158 C 0.43029 0.65933 0.12282 0.0
C3159 C 0.4312 0.68387 0.10122 0.0
H3160 H 0.18176 0.34598 0.75403 0.0
H3161 H 0.19089 0.31179 0.90378 0.0
H3162 H 0.17903 0.38698 0.79596 0.0
H3163 H 0.18957 0.35309 0.946 0.0
H3164 H 0.18268 0.42836 0.02098 0.0
H3165 H 0.17962 0.38738 0.97933 0.0
H3166 H 0.18927 0.4212 0.82829 0.0
H3167 H 0.19093 0.46251 0.87036 0.0
C3168 C 0.18315 0.34735 0.79626 0.0
C3169 C 0.18642 0.3257 0.82572 0.0
C3170 C 0.18182 0.37107 0.8205 0.0
C3171 C 0.1843 0.37414 0.87487 0.0
C3172 C 0.18728 0.35204 0.90442 0.0
C3173 C 0.18812 0.32812 0.88027 0.0
C3174 C 0.18381 0.42698 0.97862 0.0
C3175 C 0.18694 0.44862 0.94885 0.0
C3176 C 0.18229 0.40327 0.95453 0.0
C3177 C 0.18441 0.40018 0.89992 0.0
C3178 C 0.18725 0.42227 0.87009 0.0
C3179 C 0.18828 0.44618 0.89415 0.0
H3180 H 0.56835 0.3271 0.9428 0.0
H3181 H 0.52443 0.32654 0.91294 0.0
H3182 H 0.56994 0.36977 0.90358 0.0
H3183 H 0.526 0.3685 0.87386 0.0
H3184 H 0.53559 0.42796 0.75244 0.0
H3185 H 0.53701 0.38624 0.79178 0.0
H3186 H 0.56035 0.41689 0.92165 0.0
H3187 H 0.55887 0.45948 0.88169 0.0
C3188 C 0.55909 0.33595 0.92745 0.0
C3189 C 0.54626 0.32339 0.93073 0.0
C3190 C 0.55997 0.36045 0.90553 0.0
C3191 C 0.54809 0.37259 0.88557 0.0
C3192 C 0.53537 0.35972 0.88846 0.0
C3193 C 0.53447 0.33562 0.9109 0.0
C3194 C 0.54112 0.42598 0.78928 0.0
C3195 C 0.54703 0.44721 0.81405 0.0
C3196 C 0.5419 0.40195 0.81191 0.0
C3197 C 0.54868 0.39816 0.86011 0.0
C3198 C 0.55509 0.41916 0.88434 0.0
C3199 C 0.55421 0.44354 0.86163 0.0
loop_
_geom_bond_atom_site_label_1
_geom_bond_atom_site_label_2
_geom_bond_distance
_geom_bond_site_symmetry_2
_ccdc_geom_bond_type
C0 Eu1 2.835 . S
C0 C2 1.500 . S
C0 O20 1.257 . S
C0 O21 1.260 . S
Eu1 C0 2.835 . S
Eu1 O20 2.473 . S
Eu1 O21 2.480 . S
Eu1 O22 2.430 . S
Eu1 O23 2.670 . S
Eu1 O24 2.394 . S
Eu1 O29 2.355 . S
Eu1 O31 2.374 . S
C2 C0 1.500 . S
C2 C3 1.377 . S
C2 C7 1.377 . S
C3 C2 1.377 . S
C3 C4 1.395 . S
C3 H32 0.931 . S
C4 C3 1.395 . S
C4 C5 1.383 . S
C4 H33 0.931 . S
C5 C4 1.383 . S
C5 C6 1.394 . S
C6 C5 1.394 . S
C6 C7 1.378 . S
C6 H34 0.931 . S
C7 C2 1.377 . S
C7 C6 1.378 . S
C7 H35 0.931 . S
C8 O22 1.259 . S
C8 O23 1.270 . S
C9 O24 1.251 . S
C9 O25 1.251 . S
C10 Eu11 2.835 . S
C10 C12 1.500 . S
C10 O26 1.257 . S
C10 O27 1.260 . S
Eu11 C10 2.835 . S
Eu11 O23 2.355 . S
Eu11 O25 2.374 . S
Eu11 O26 2.473 . S
Eu11 O27 2.480 . S
Eu11 O28 2.430 . S
Eu11 O29 2.670 . S
Eu11 O30 2.394 . S
C12 C10 1.500 . S
C12 C13 1.377 1_554 S
C12 C17 1.377 1_554 S
C13 C12 1.377 1_556 S
C13 C14 1.395 . S
C13 H36 0.931 . S
C14 C13 1.395 . S
C14 C15 1.383 . S
C14 H37 0.931 . S
C15 C14 1.383 . S
C15 C16 1.394 . S
C16 C15 1.394 . S
C16 C17 1.378 . S
C16 H38 0.931 . S
C17 C12 1.377 1_556 S
C17 C16 1.378 . S
C17 H39 0.931 . S
C18 O28 1.259 . S
C18 O29 1.270 . S
C19 O30 1.251 . S
C19 O31 1.251 . S
O20 C0 1.257 . S
O20 Eu1 2.473 . S
O21 C0 1.260 . S
O21 Eu1 2.480 . S
O22 Eu1 2.430 . S
O22 C8 1.259 . S
O23 Eu1 2.670 . S
O23 C8 1.270 . S
O23 Eu11 2.355 . S
O24 Eu1 2.394 . S
O24 C9 1.251 . S
O25 C9 1.251 . S
O25 Eu11 2.374 . S
O26 C10 1.257 . S
O26 Eu11 2.473 . S
O27 C10 1.260 . S
O27 Eu11 2.480 . S
O28 Eu11 2.430 . S
O28 C18 1.259 . S
O29 Eu1 2.355 . S
O29 Eu11 2.670 . S
O29 C18 1.270 . S
O30 Eu11 2.394 . S
O30 C19 1.251 . S
O31 Eu1 2.374 . S
O31 C19 1.251 . S
H32 C3 0.931 . S
H33 C4 0.931 . S
H34 C6 0.931 . S
H35 C7 0.931 . S
H36 C13 0.931 . S
H37 C14 0.931 . S
H38 C16 0.931 . S
H39 C17 0.931 . S
C40 Eu41 2.835 . S
C40 C42 1.500 . S
C40 O60 1.257 1_545 S
C40 O61 1.260 . S
Eu41 C40 2.835 . S
Eu41 O60 2.473 1_545 S
Eu41 O61 2.480 . S
Eu41 O62 2.430 . S
Eu41 O63 2.670 . S
Eu41 O64 2.394 . S
Eu41 O69 2.355 1_545 S
Eu41 O71 2.381 . S
C42 C40 1.500 . S
C42 C43 1.377 . S
C42 C47 1.377 1_545 S
C43 C42 1.377 . S
C43 C44 1.395 . S
C43 H72 0.931 . S
C44 C43 1.395 . S
C44 C45 1.383 . S
C44 H73 0.931 . S
C45 C44 1.383 . S
C45 C46 1.394 1_545 S
C46 C45 1.394 1_565 S
C46 C47 1.378 . S
C46 H74 0.931 . S
C47 C42 1.377 1_565 S
C47 C46 1.378 . S
C47 H75 0.931 . S
C48 O62 1.259 . S
C48 O63 1.270 . S
C49 O64 1.251 . S
C49 O65 1.237 1_545 S
C50 Eu51 2.835 . S
C50 C52 1.512 . S
C50 O66 1.257 1_565 S
C50 O67 1.260 . S
Eu51 C50 2.835 . S
Eu51 O63 2.355 1_565 S
Eu51 O65 2.384 . S
Eu51 O66 2.473 1_565 S
Eu51 O67 2.480 . S
Eu51 O68 2.430 . S
Eu51 O69 2.670 . S
Eu51 O70 2.394 . S
C52 C50 1.512 . S
C52 C53 1.371 1_554 S
C52 C57 1.371 1_564 S
C53 C52 1.371 1_556 S
C53 C54 1.395 . S
C53 H76 0.931 . S
C54 C53 1.395 . S
C54 C55 1.383 . S
C54 H77 0.931 . S
C55 C54 1.383 . S
C55 C56 1.394 1_565 S
C56 C55 1.394 1_545 S
C56 C57 1.378 . S
C56 H78 0.931 . S
C57 C52 1.371 1_546 S
C57 C56 1.378 . S
C57 H79 0.931 . S
C58 O68 1.259 . S
C58 O69 1.270 . S
C59 O70 1.251 . S
C59 O71 1.241 1_565 S
O60 C40 1.257 1_565 S
O60 Eu41 2.473 1_565 S
O61 C40 1.260 . S
O61 Eu41 2.480 . S
O62 Eu41 2.430 . S
O62 C48 1.259 . S
O63 Eu41 2.670 . S
O63 C48 1.270 . S
O63 Eu51 2.355 1_545 S
O64 Eu41 2.394 . S
O64 C49 1.251 . S
O65 C49 1.237 1_565 S
O65 Eu51 2.384 . S
O66 C50 1.257 1_545 S
O66 Eu51 2.473 1_545 S
O67 C50 1.260 . S
O67 Eu51 2.480 . S
O68 Eu51 2.430 . S
O68 C58 1.259 . S
O69 Eu41 2.355 1_565 S
O69 Eu51 2.670 . S
O69 C58 1.270 . S
O70 Eu51 2.394 . S
O70 C59 1.251 . S
O71 Eu41 2.381 . S
O71 C59 1.241 1_545 S
H72 C43 0.931 . S
H73 C44 0.931 . S
H74 C46 0.931 . S
H75 C47 0.931 . S
H76 C53 0.931 . S
H77 C54 0.931 . S
H78 C56 0.931 . S
H79 C57 0.931 . S
C80 Eu81 2.835 . S
C80 C82 1.500 . S
C80 O100 1.257 1_545 S
C80 O101 1.260 . S
Eu81 C80 2.835 . S
Eu81 O100 2.473 1_545 S
Eu81 O101 2.480 . S
Eu81 O102 2.430 1_556 S
Eu81 O103 2.670 1_556 S
Eu81 O104 2.394 . S
Eu81 O109 2.355 1_545 S
Eu81 O111 2.381 1_556 S
C82 C80 1.500 . S
C82 C83 1.377 . S
C82 C87 1.377 1_545 S
C83 C82 1.377 . S
C83 C84 1.395 . S
C83 H112 0.931 . S
C84 C83 1.395 . S
C84 C85 1.383 . S
C84 H113 0.931 . S
C85 C84 1.383 . S
C85 C86 1.394 1_545 S
C86 C85 1.394 1_565 S
C86 C87 1.378 . S
C86 H114 0.931 . S
C87 C82 1.377 1_565 S
C87 C86 1.378 . S
C87 H115 0.931 . S
C88 O102 1.259 . S
C88 O103 1.270 . S
C89 O104 1.251 . S
C89 O105 1.237 1_546 S
C90 Eu91 2.835 . S
C90 C92 1.500 . S
C90 O106 1.257 1_565 S
C90 O107 1.260 . S
Eu91 C90 2.835 . S
Eu91 O103 2.355 1_565 S
Eu91 O105 2.384 . S
Eu91 O106 2.473 1_565 S
Eu91 O107 2.480 . S
Eu91 O108 2.430 . S
Eu91 O109 2.670 1_554 S
Eu91 O110 2.394 . S
C92 C90 1.500 . S
C92 C93 1.377 . S
C92 C97 1.377 1_565 S
C93 C92 1.377 . S
C93 C94 1.395 . S
C93 H116 0.931 . S
C94 C93 1.395 . S
C94 C95 1.383 . S
C94 H117 0.931 . S
C95 C94 1.383 . S
C95 C96 1.394 1_565 S
C96 C95 1.394 1_545 S
C96 C97 1.378 . S
C96 H118 0.931 . S
C97 C92 1.377 1_545 S
C97 C96 1.378 . S
C97 H119 0.931 . S
C98 O108 1.259 . S
C98 O109 1.270 1_554 S
C99 O110 1.251 . S
C99 O111 1.241 1_565 S
O100 C80 1.257 1_565 S
O100 Eu81 2.473 1_565 S
O101 C80 1.260 . S
O101 Eu81 2.480 . S
O102 Eu81 2.430 1_554 S
O102 C88 1.259 . S
O103 Eu81 2.670 1_554 S
O103 C88 1.270 . S
O103 Eu91 2.355 1_545 S
O104 Eu81 2.394 . S
O104 C89 1.251 . S
O105 C89 1.237 1_564 S
O105 Eu91 2.384 . S
O106 C90 1.257 1_545 S
O106 Eu91 2.473 1_545 S
O107 C90 1.260 . S
O107 Eu91 2.480 . S
O108 Eu91 2.430 . S
O108 C98 1.259 . S
O109 Eu81 2.355 1_565 S
O109 Eu91 2.670 1_556 S
O109 C98 1.270 1_556 S
O110 Eu91 2.394 . S
O110 C99 1.251 . S
O111 Eu81 2.381 1_554 S
O111 C99 1.241 1_545 S
H112 C83 0.931 . S
H113 C84 0.931 . S
H114 C86 0.931 . S
H115 C87 0.931 . S
H116 C93 0.931 . S
H117 C94 0.931 . S
H118 C96 0.931 . S
H119 C97 0.931 . S
C120 Eu121 2.835 . S
C120 C122 1.500 . S
C120 O140 1.257 . S
C120 O141 1.260 . S
Eu121 C120 2.835 . S
Eu121 O140 2.473 . S
Eu121 O141 2.480 . S
Eu121 O142 2.430 1_556 S
Eu121 O143 2.670 1_556 S
Eu121 O144 2.394 . S
Eu121 O149 2.355 . S
Eu121 O151 2.374 1_556 S
C122 C120 1.500 . S
C122 C123 1.377 . S
C122 C127 1.377 . S
C123 C122 1.377 . S
C123 C124 1.395 . S
C123 H152 0.931 . S
C124 C123 1.395 . S
C124 C125 1.383 . S
C124 H153 0.931 . S
C125 C124 1.383 . S
C125 C126 1.394 . S
C126 C125 1.394 . S
C126 C127 1.378 . S
C126 H154 0.931 . S
C127 C122 1.377 . S
C127 C126 1.378 . S
C127 H155 0.931 . S
C128 O142 1.259 . S
C128 O143 1.270 . S
C129 O144 1.251 . S
C129 O145 1.251 1_556 S
C130 Eu131 2.835 . S
C130 C132 1.500 . S
C130 O146 1.257 . S
C130 O147 1.260 . S
Eu131 C130 2.835 . S
Eu131 O143 2.355 . S
Eu131 O145 2.374 . S
Eu131 O146 2.473 . S
Eu131 O147 2.480 . S
Eu131 O148 2.430 . S
Eu131 O149 2.670 1_554 S
Eu131 O150 2.394 . S
C132 C130 1.500 . S
C132 C133 1.377 . S
C132 C137 1.377 . S
C133 C132 1.377 . S
C133 C134 1.395 . S
C133 H156 0.931 . S
C134 C133 1.395 . S
C134 C135 1.383 . S
C134 H157 0.931 . S
C135 C134 1.383 . S
C135 C136 1.394 . S
C136 C135 1.394 . S
C136 C137 1.378 . S
C136 H158 0.931 . S
C137 C132 1.377 . S
C137 C136 1.378 . S
C137 H159 0.931 . S
C138 O148 1.259 . S
C138 O149 1.270 1_554 S
C139 O150 1.251 . S
C139 O151 1.251 . S
O140 C120 1.257 . S
O140 Eu121 2.473 . S
O141 C120 1.260 . S
O141 Eu121 2.480 . S
O142 Eu121 2.430 1_554 S
O142 C128 1.259 . S
O143 Eu121 2.670 1_554 S
O143 C128 1.270 . S
O143 Eu131 2.355 . S
O144 Eu121 2.394 . S
O144 C129 1.251 . S
O145 C129 1.251 1_554 S
O145 Eu131 2.374 . S
O146 C130 1.257 . S
O146 Eu131 2.473 . S
O147 C130 1.260 . S
O147 Eu131 2.480 . S
O148 Eu131 2.430 . S
O148 C138 1.259 . S
O149 Eu121 2.355 . S
O149 Eu131 2.670 1_556 S
O149 C138 1.270 1_556 S
O150 Eu131 2.394 . S
O150 C139 1.251 . S
O151 Eu121 2.374 1_554 S
O151 C139 1.251 . S
H152 C123 0.931 . S
H153 C124 0.931 . S
H154 C126 0.931 . S
H155 C127 0.931 . S
H156 C133 0.931 . S
H157 C134 0.931 . S
H158 C136 0.931 . S
H159 C137 0.931 . S
C160 Eu161 2.835 . S
C160 C162 1.500 . S
C160 O180 1.257 . S
C160 O181 1.260 . S
Eu161 C160 2.835 . S
Eu161 O180 2.473 . S
Eu161 O181 2.480 . S
Eu161 O182 2.430 . S
Eu161 O183 2.670 . S
Eu161 O184 2.394 . S
Eu161 O189 2.355 . S
Eu161 O191 2.374 . S
C162 C160 1.500 . S
C162 C163 1.377 1_556 S
C162 C167 1.377 1_556 S
C163 C162 1.377 1_554 S
C163 C164 1.395 . S
C163 H192 0.931 . S
C164 C163 1.395 . S
C164 C165 1.383 . S
C164 H193 0.931 . S
C165 C164 1.383 . S
C165 C166 1.394 . S
C166 C165 1.394 . S
C166 C167 1.378 . S
C166 H194 0.931 . S
C167 C162 1.377 1_554 S
C167 C166 1.378 . S
C167 H195 0.931 . S
C168 O182 1.259 . S
C168 O183 1.270 . S
C169 O184 1.251 . S
C169 O185 1.251 . S
C170 Eu171 2.835 . S
C170 C172 1.500 . S
C170 O186 1.257 . S
C170 O187 1.260 . S
Eu171 C170 2.835 . S
Eu171 O183 2.355 . S
Eu171 O185 2.374 . S
Eu171 O186 2.473 . S
Eu171 O187 2.480 . S
Eu171 O188 2.430 . S
Eu171 O189 2.670 . S
Eu171 O190 2.394 . S
C172 C170 1.500 . S
C172 C173 1.377 . S
C172 C177 1.377 . S
C173 C172 1.377 . S
C173 C174 1.395 . S
C173 H196 0.931 . S
C174 C173 1.395 . S
C174 C175 1.383 . S
C174 H197 0.931 . S
C175 C174 1.383 . S
C175 C176 1.394 . S
C176 C175 1.394 . S
C176 C177 1.378 . S
C176 H198 0.931 . S
C177 C172 1.377 . S
C177 C176 1.378 . S
C177 H199 0.931 . S
C178 O188 1.259 . S
C178 O189 1.270 . S
C179 O190 1.251 . S
C179 O191 1.251 . S
O180 C160 1.257 . S
O180 Eu161 2.473 . S
O181 C160 1.260 . S
O181 Eu161 2.480 . S
O182 Eu161 2.430 . S
O182 C168 1.259 . S
O183 Eu161 2.670 . S
O183 C168 1.270 . S
O183 Eu171 2.355 . S
O184 Eu161 2.394 . S
O184 C169 1.251 . S
O185 C169 1.251 . S
O185 Eu171 2.374 . S
O186 C170 1.257 . S
O186 Eu171 2.473 . S
O187 C170 1.260 . S
O187 Eu171 2.480 . S
O188 Eu171 2.430 . S
O188 C178 1.259 . S
O189 Eu161 2.355 . S
O189 Eu171 2.670 . S
O189 C178 1.270 . S
O190 Eu171 2.394 . S
O190 C179 1.251 . S
O191 Eu161 2.374 . S
O191 C179 1.251 . S
H192 C163 0.931 . S
H193 C164 0.931 . S
H194 C166 0.931 . S
H195 C167 0.931 . S
H196 C173 0.931 . S
H197 C174 0.931 . S
H198 C176 0.931 . S
H199 C177 0.931 . S
C200 Eu201 2.835 . S
C200 C202 1.512 . S
C200 O220 1.257 1_545 S
C200 O221 1.260 . S
Eu201 C200 2.835 . S
Eu201 O220 2.473 1_545 S
Eu201 O221 2.480 . S
Eu201 O222 2.430 . S
Eu201 O223 2.670 . S
Eu201 O224 2.394 . S
Eu201 O229 2.355 1_545 S
Eu201 O231 2.384 . S
C202 C200 1.512 . S
C202 C203 1.371 1_556 S
C202 C207 1.371 1_546 S
C203 C202 1.371 1_554 S
C203 C204 1.395 . S
C203 H232 0.931 . S
C204 C203 1.395 . S
C204 C205 1.383 . S
C204 H233 0.931 . S
C205 C204 1.383 . S
C205 C206 1.394 1_545 S
C206 C205 1.394 1_565 S
C206 C207 1.378 . S
C206 H234 0.931 . S
C207 C202 1.371 1_564 S
C207 C206 1.378 . S
C207 H235 0.931 . S
C208 O222 1.259 . S
C208 O223 1.270 . S
C209 O224 1.251 . S
C209 O225 1.241 1_545 S
C210 Eu211 2.835 . S
C210 C212 1.500 . S
C210 O226 1.257 1_565 S
C210 O227 1.260 . S
Eu211 C210 2.835 . S
Eu211 O223 2.355 1_565 S
Eu211 O225 2.381 . S
Eu211 O226 2.473 1_565 S
Eu211 O227 2.480 . S
Eu211 O228 2.430 . S
Eu211 O229 2.670 . S
Eu211 O230 2.394 . S
C212 C210 1.500 . S
C212 C213 1.377 . S
C212 C217 1.377 1_565 S
C213 C212 1.377 . S
C213 C214 1.395 . S
C213 H236 0.931 . S
C214 C213 1.395 . S
C214 C215 1.383 . S
C214 H237 0.931 . S
C215 C214 1.383 . S
C215 C216 1.394 1_565 S
C216 C215 1.394 1_545 S
C216 C217 1.378 . S
C216 H238 0.931 . S
C217 C212 1.377 1_545 S
C217 C216 1.378 . S
C217 H239 0.931 . S
C218 O228 1.259 . S
C218 O229 1.270 . S
C219 O230 1.251 . S
C219 O231 1.237 1_565 S
O220 C200 1.257 1_565 S
O220 Eu201 2.473 1_565 S
O221 C200 1.260 . S
O221 Eu201 2.480 . S
O222 Eu201 2.430 . S
O222 C208 1.259 . S
O223 Eu201 2.670 . S
O223 C208 1.270 . S
O223 Eu211 2.355 1_545 S
O224 Eu201 2.394 . S
O224 C209 1.251 . S
O225 C209 1.241 1_565 S
O225 Eu211 2.381 . S
O226 C210 1.257 1_545 S
O226 Eu211 2.473 1_545 S
O227 C210 1.260 . S
O227 Eu211 2.480 . S
O228 Eu211 2.430 . S
O228 C218 1.259 . S
O229 Eu201 2.355 1_565 S
O229 Eu211 2.670 . S
O229 C218 1.270 . S
O230 Eu211 2.394 . S
O230 C219 1.251 . S
O231 Eu201 2.384 . S
O231 C219 1.237 1_545 S
H232 C203 0.931 . S
H233 C204 0.931 . S
H234 C206 0.931 . S
H235 C207 0.931 . S
H236 C213 0.931 . S
H237 C214 0.931 . S
H238 C216 0.931 . S
H239 C217 0.931 . S
C240 Eu241 2.835 . S
C240 C242 1.500 . S
C240 O260 1.257 1_545 S
C240 O261 1.260 . S
Eu241 C240 2.835 . S
Eu241 O260 2.473 1_545 S
Eu241 O261 2.480 . S
Eu241 O262 2.430 . S
Eu241 O263 2.670 1_556 S
Eu241 O264 2.394 . S
Eu241 O269 2.355 1_545 S
Eu241 O271 2.384 . S
C242 C240 1.500 . S
C242 C243 1.377 . S
C242 C247 1.377 1_545 S
C243 C242 1.377 . S
C243 C244 1.395 . S
C243 H272 0.931 . S
C244 C243 1.395 . S
C244 C245 1.383 . S
C244 H273 0.931 . S
C245 C244 1.383 . S
C245 C246 1.394 1_545 S
C246 C245 1.394 1_565 S
C246 C247 1.378 . S
C246 H274 0.931 . S
C247 C242 1.377 1_565 S
C247 C246 1.378 . S
C247 H275 0.931 . S
C248 O262 1.259 . S
C248 O263 1.270 1_556 S
C249 O264 1.251 . S
C249 O265 1.241 1_545 S
C250 Eu251 2.835 . S
C250 C252 1.500 . S
C250 O266 1.257 1_565 S
C250 O267 1.260 . S
Eu251 C250 2.835 . S
Eu251 O263 2.355 1_565 S
Eu251 O265 2.381 1_554 S
Eu251 O266 2.473 1_565 S
Eu251 O267 2.480 . S
Eu251 O268 2.430 1_554 S
Eu251 O269 2.670 1_554 S
Eu251 O270 2.394 . S
C252 C250 1.500 . S
C252 C253 1.377 . S
C252 C257 1.377 1_565 S
C253 C252 1.377 . S
C253 C254 1.395 . S
C253 H276 0.931 . S
C254 C253 1.395 . S
C254 C255 1.383 . S
C254 H277 0.931 . S
C255 C254 1.383 . S
C255 C256 1.394 1_565 S
C256 C255 1.394 1_545 S
C256 C257 1.378 . S
C256 H278 0.931 . S
C257 C252 1.377 1_545 S
C257 C256 1.378 . S
C257 H279 0.931 . S
C258 O268 1.259 . S
C258 O269 1.270 . S
C259 O270 1.251 . S
C259 O271 1.237 1_564 S
O260 C240 1.257 1_565 S
O260 Eu241 2.473 1_565 S
O261 C240 1.260 . S
O261 Eu241 2.480 . S
O262 Eu241 2.430 . S
O262 C248 1.259 . S
O263 Eu241 2.670 1_554 S
O263 C248 1.270 1_554 S
O263 Eu251 2.355 1_545 S
O264 Eu241 2.394 . S
O264 C249 1.251 . S
O265 C249 1.241 1_565 S
O265 Eu251 2.381 1_556 S
O266 C250 1.257 1_545 S
O266 Eu251 2.473 1_545 S
O267 C250 1.260 . S
O267 Eu251 2.480 . S
O268 Eu251 2.430 1_556 S
O268 C258 1.259 . S
O269 Eu241 2.355 1_565 S
O269 Eu251 2.670 1_556 S
O269 C258 1.270 . S
O270 Eu251 2.394 . S
O270 C259 1.251 . S
O271 Eu241 2.384 . S
O271 C259 1.237 1_546 S
H272 C243 0.931 . S
H273 C244 0.931 . S
H274 C246 0.931 . S
H275 C247 0.931 . S
H276 C253 0.931 . S
H277 C254 0.931 . S
H278 C256 0.931 . S
H279 C257 0.931 . S
C280 Eu281 2.835 . S
C280 C282 1.500 . S
C280 O300 1.257 . S
C280 O301 1.260 . S
Eu281 C280 2.835 . S
Eu281 O300 2.473 . S
Eu281 O301 2.480 . S
Eu281 O302 2.430 . S
Eu281 O303 2.670 1_556 S
Eu281 O304 2.394 . S
Eu281 O309 2.355 . S
Eu281 O311 2.374 . S
C282 C280 1.500 . S
C282 C283 1.377 . S
C282 C287 1.377 . S
C283 C282 1.377 . S
C283 C284 1.395 . S
C283 H312 0.931 . S
C284 C283 1.395 . S
C284 C285 1.383 . S
C284 H313 0.931 . S
C285 C284 1.383 . S
C285 C286 1.394 . S
C286 C285 1.394 . S
C286 C287 1.378 . S
C286 H314 0.931 . S
C287 C282 1.377 . S
C287 C286 1.378 . S
C287 H315 0.931 . S
C288 O302 1.259 . S
C288 O303 1.270 1_556 S
C289 O304 1.251 . S
C289 O305 1.251 . S
C290 Eu291 2.835 . S
C290 C292 1.500 . S
C290 O306 1.257 . S
C290 O307 1.260 . S
Eu291 C290 2.835 . S
Eu291 O303 2.355 . S
Eu291 O305 2.374 1_554 S
Eu291 O306 2.473 . S
Eu291 O307 2.480 . S
Eu291 O308 2.430 1_554 S
Eu291 O309 2.670 1_554 S
Eu291 O310 2.394 . S
C292 C290 1.500 . S
C292 C293 1.377 . S
C292 C297 1.377 . S
C293 C292 1.377 . S
C293 C294 1.395 . S
C293 H316 0.931 . S
C294 C293 1.395 . S
C294 C295 1.383 . S
C294 H317 0.931 . S
C295 C294 1.383 . S
C295 C296 1.394 . S
C296 C295 1.394 . S
C296 C297 1.378 . S
C296 H318 0.931 . S
C297 C292 1.377 . S
C297 C296 1.378 . S
C297 H319 0.931 . S
C298 O308 1.259 . S
C298 O309 1.270 . S
C299 O310 1.251 . S
C299 O311 1.251 1_554 S
O300 C280 1.257 . S
O300 Eu281 2.473 . S
O301 C280 1.260 . S
O301 Eu281 2.480 . S
O302 Eu281 2.430 . S
O302 C288 1.259 . S
O303 Eu281 2.670 1_554 S
O303 C288 1.270 1_554 S
O303 Eu291 2.355 . S
O304 Eu281 2.394 . S
O304 C289 1.251 . S
O305 C289 1.251 . S
O305 Eu291 2.374 1_556 S
O306 C290 1.257 . S
O306 Eu291 2.473 . S
O307 C290 1.260 . S
O307 Eu291 2.480 . S
O308 Eu291 2.430 1_556 S
O308 C298 1.259 . S
O309 Eu281 2.355 . S
O309 Eu291 2.670 1_556 S
O309 C298 1.270 . S
O310 Eu291 2.394 . S
O310 C299 1.251 . S
O311 Eu281 2.374 . S
O311 C299 1.251 1_556 S
H312 C283 0.931 . S
H313 C284 0.931 . S
H314 C286 0.931 . S
H315 C287 0.931 . S
H316 C293 0.931 . S
H317 C294 0.931 . S
H318 C296 0.931 . S
H319 C297 0.931 . S
C320 Eu321 2.835 . S
C320 C322 1.500 . S
C320 O340 1.257 . S
C320 O341 1.260 . S
Eu321 C320 2.835 . S
Eu321 O340 2.473 . S
Eu321 O341 2.480 . S
Eu321 O342 2.430 . S
Eu321 O343 2.670 . S
Eu321 O344 2.394 . S
Eu321 O349 2.355 . S
Eu321 O351 2.374 . S
C322 C320 1.500 . S
C322 C323 1.377 . S
C322 C327 1.377 . S
C323 C322 1.377 . S
C323 C324 1.395 1_556 S
C323 H352 0.931 . S
C324 C323 1.395 1_554 S
C324 C325 1.383 . S
C324 H353 0.931 . S
C325 C324 1.383 . S
C325 C326 1.394 . S
C326 C325 1.394 . S
C326 C327 1.378 1_554 S
C326 H354 0.931 . S
C327 C322 1.377 . S
C327 C326 1.378 1_556 S
C327 H355 0.931 . S
C328 O342 1.259 . S
C328 O343 1.270 . S
C329 O344 1.251 . S
C329 O345 1.251 . S
C330 Eu331 2.835 . S
C330 C332 1.500 . S
C330 O346 1.257 . S
C330 O347 1.260 . S
Eu331 C330 2.835 . S
Eu331 O343 2.355 . S
Eu331 O345 2.374 . S
Eu331 O346 2.473 . S
Eu331 O347 2.480 . S
Eu331 O348 2.430 . S
Eu331 O349 2.670 . S
Eu331 O350 2.394 . S
C332 C330 1.500 . S
C332 C333 1.377 . S
C332 C337 1.377 . S
C333 C332 1.377 . S
C333 C334 1.395 . S
C333 H356 0.931 . S
C334 C333 1.395 . S
C334 C335 1.383 . S
C334 H357 0.931 . S
C335 C334 1.383 . S
C335 C336 1.394 . S
C336 C335 1.394 . S
C336 C337 1.378 . S
C336 H358 0.931 . S
C337 C332 1.377 . S
C337 C336 1.378 . S
C337 H359 0.931 . S
C338 O348 1.259 . S
C338 O349 1.270 . S
C339 O350 1.251 . S
C339 O351 1.251 . S
O340 C320 1.257 . S
O340 Eu321 2.473 . S
O341 C320 1.260 . S
O341 Eu321 2.480 . S
O342 Eu321 2.430 . S
O342 C328 1.259 . S
O343 Eu321 2.670 . S
O343 C328 1.270 . S
O343 Eu331 2.355 . S
O344 Eu321 2.394 . S
O344 C329 1.251 . S
O345 C329 1.251 . S
O345 Eu331 2.374 . S
O346 C330 1.257 . S
O346 Eu331 2.473 . S
O347 C330 1.260 . S
O347 Eu331 2.480 . S
O348 Eu331 2.430 . S
O348 C338 1.259 . S
O349 Eu321 2.355 . S
O349 Eu331 2.670 . S
O349 C338 1.270 . S
O350 Eu331 2.394 . S
O350 C339 1.251 . S
O351 Eu321 2.374 . S
O351 C339 1.251 . S
H352 C323 0.931 . S
H353 C324 0.931 . S
H354 C326 0.931 . S
H355 C327 0.931 . S
H356 C333 0.931 . S
H357 C334 0.931 . S
H358 C336 0.931 . S
H359 C337 0.931 . S
C360 Eu361 2.835 . S
C360 C362 1.500 . S
C360 O380 1.257 . S
C360 O381 1.260 . S
Eu361 C360 2.835 . S
Eu361 O380 2.473 . S
Eu361 O381 2.480 . S
Eu361 O382 2.430 . S
Eu361 O383 2.670 . S
Eu361 O384 2.394 . S
Eu361 O389 2.355 . S
Eu361 O391 2.374 . S
C362 C360 1.500 . S
C362 C363 1.377 . S
C362 C367 1.377 . S
C363 C362 1.377 . S
C363 C364 1.395 1_556 S
C363 H392 0.931 . S
C364 C363 1.395 1_554 S
C364 C365 1.383 . S
C364 H393 0.931 . S
C365 C364 1.383 . S
C365 C366 1.394 . S
C366 C365 1.394 . S
C366 C367 1.378 1_554 S
C366 H394 0.931 . S
C367 C362 1.377 . S
C367 C366 1.378 1_556 S
C367 H395 0.931 . S
C368 O382 1.259 . S
C368 O383 1.270 . S
C369 O384 1.251 . S
C369 O385 1.251 . S
C370 Eu371 2.835 . S
C370 C372 1.500 . S
C370 O386 1.257 . S
C370 O387 1.260 . S
Eu371 C370 2.835 . S
Eu371 O383 2.355 . S
Eu371 O385 2.374 . S
Eu371 O386 2.473 . S
Eu371 O387 2.480 . S
Eu371 O388 2.430 . S
Eu371 O389 2.670 . S
Eu371 O390 2.394 . S
C372 C370 1.500 . S
C372 C373 1.377 . S
C372 C377 1.377 . S
C373 C372 1.377 . S
C373 C374 1.395 . S
C373 H396 0.931 . S
C374 C373 1.395 . S
C374 C375 1.383 . S
C374 H397 0.931 . S
C375 C374 1.383 . S
C375 C376 1.394 . S
C376 C375 1.394 . S
C376 C377 1.378 . S
C376 H398 0.931 . S
C377 C372 1.377 . S
C377 C376 1.378 . S
C377 H399 0.931 . S
C378 O388 1.259 . S
C378 O389 1.270 . S
C379 O390 1.251 . S
C379 O391 1.251 . S
O380 C360 1.257 . S
O380 Eu361 2.473 . S
O381 C360 1.260 . S
O381 Eu361 2.480 . S
O382 Eu361 2.430 . S
O382 C368 1.259 . S
O383 Eu361 2.670 . S
O383 C368 1.270 . S
O383 Eu371 2.355 . S
O384 Eu361 2.394 . S
O384 C369 1.251 . S
O385 C369 1.251 . S
O385 Eu371 2.374 . S
O386 C370 1.257 . S
O386 Eu371 2.473 . S
O387 C370 1.260 . S
O387 Eu371 2.480 . S
O388 Eu371 2.430 . S
O388 C378 1.259 . S
O389 Eu361 2.355 . S
O389 Eu371 2.670 . S
O389 C378 1.270 . S
O390 Eu371 2.394 . S
O390 C379 1.251 . S
O391 Eu361 2.374 . S
O391 C379 1.251 . S
H392 C363 0.931 . S
H393 C364 0.931 . S
H394 C366 0.931 . S
H395 C367 0.931 . S
H396 C373 0.931 . S
H397 C374 0.931 . S
H398 C376 0.931 . S
H399 C377 0.931 . S
C400 Eu401 2.835 . S
C400 C402 1.500 . S
C400 O420 1.257 . S
C400 O421 1.260 . S
Eu401 C400 2.835 . S
Eu401 O420 2.473 . S
Eu401 O421 2.480 . S
Eu401 O422 2.430 . S
Eu401 O423 2.670 . S
Eu401 O424 2.394 . S
Eu401 O429 2.355 . S
Eu401 O431 2.374 . S
C402 C400 1.500 . S
C402 C403 1.377 . S
C402 C407 1.377 . S
C403 C402 1.377 . S
C403 C404 1.395 . S
C403 H432 0.931 . S
C404 C403 1.395 . S
C404 C405 1.383 . S
C404 H433 0.931 . S
C405 C404 1.383 . S
C405 C406 1.394 . S
C406 C405 1.394 . S
C406 C407 1.378 . S
C406 H434 0.931 . S
C407 C402 1.377 . S
C407 C406 1.378 . S
C407 H435 0.931 . S
C408 O422 1.259 . S
C408 O423 1.270 . S
C409 O424 1.251 . S
C409 O425 1.251 . S
C410 Eu411 2.835 . S
C410 C412 1.500 . S
C410 O426 1.257 . S
C410 O427 1.260 . S
Eu411 C410 2.835 . S
Eu411 O423 2.355 . S
Eu411 O425 2.374 . S
Eu411 O426 2.473 . S
Eu411 O427 2.480 . S
Eu411 O428 2.430 . S
Eu411 O429 2.670 . S
Eu411 O430 2.394 . S
C412 C410 1.500 . S
C412 C413 1.377 . S
C412 C417 1.377 . S
C413 C412 1.377 . S
C413 C414 1.395 . S
C413 H436 0.931 . S
C414 C413 1.395 . S
C414 C415 1.383 . S
C414 H437 0.931 . S
C415 C414 1.383 . S
C415 C416 1.394 . S
C416 C415 1.394 . S
C416 C417 1.378 . S
C416 H438 0.931 . S
C417 C412 1.377 . S
C417 C416 1.378 . S
C417 H439 0.931 . S
C418 O428 1.259 . S
C418 O429 1.270 . S
C419 O430 1.251 . S
C419 O431 1.251 . S
O420 C400 1.257 . S
O420 Eu401 2.473 . S
O421 C400 1.260 . S
O421 Eu401 2.480 . S
O422 Eu401 2.430 . S
O422 C408 1.259 . S
O423 Eu401 2.670 . S
O423 C408 1.270 . S
O423 Eu411 2.355 . S
O424 Eu401 2.394 . S
O424 C409 1.251 . S
O425 C409 1.251 . S
O425 Eu411 2.374 . S
O426 C410 1.257 . S
O426 Eu411 2.473 . S
O427 C410 1.260 . S
O427 Eu411 2.480 . S
O428 Eu411 2.430 . S
O428 C418 1.259 . S
O429 Eu401 2.355 . S
O429 Eu411 2.670 . S
O429 C418 1.270 . S
O430 Eu411 2.394 . S
O430 C419 1.251 . S
O431 Eu401 2.374 . S
O431 C419 1.251 . S
H432 C403 0.931 . S
H433 C404 0.931 . S
H434 C406 0.931 . S
H435 C407 0.931 . S
H436 C413 0.931 . S
H437 C414 0.931 . S
H438 C416 0.931 . S
H439 C417 0.931 . S
C440 Eu441 2.835 . S
C440 C442 1.500 . S
C440 O460 1.257 . S
C440 O461 1.260 . S
Eu441 C440 2.835 . S
Eu441 O460 2.473 . S
Eu441 O461 2.480 . S
Eu441 O462 2.430 . S
Eu441 O463 2.670 . S
Eu441 O464 2.394 . S
Eu441 O469 2.355 . S
Eu441 O471 2.374 . S
C442 C440 1.500 . S
C442 C443 1.377 . S
C442 C447 1.377 . S
C443 C442 1.377 . S
C443 C444 1.395 . S
C443 H472 0.931 . S
C444 C443 1.395 . S
C444 C445 1.383 . S
C444 H473 0.931 . S
C445 C444 1.383 . S
C445 C446 1.394 . S
C446 C445 1.394 . S
C446 C447 1.378 . S
C446 H474 0.931 . S
C447 C442 1.377 . S
C447 C446 1.378 . S
C447 H475 0.931 . S
C448 O462 1.259 . S
C448 O463 1.270 . S
C449 O464 1.251 . S
C449 O465 1.251 . S
C450 Eu451 2.835 . S
C450 C452 1.500 . S
C450 O466 1.257 . S
C450 O467 1.260 . S
Eu451 C450 2.835 . S
Eu451 O463 2.355 . S
Eu451 O465 2.374 . S
Eu451 O466 2.473 . S
Eu451 O467 2.480 . S
Eu451 O468 2.430 . S
Eu451 O469 2.670 . S
Eu451 O470 2.394 . S
C452 C450 1.500 . S
C452 C453 1.377 . S
C452 C457 1.377 . S
C453 C452 1.377 . S
C453 C454 1.395 . S
C453 H476 0.931 . S
C454 C453 1.395 . S
C454 C455 1.383 . S
C454 H477 0.931 . S
C455 C454 1.383 . S
C455 C456 1.394 . S
C456 C455 1.394 . S
C456 C457 1.378 . S
C456 H478 0.931 . S
C457 C452 1.377 . S
C457 C456 1.378 . S
C457 H479 0.931 . S
C458 O468 1.259 . S
C458 O469 1.270 . S
C459 O470 1.251 . S
C459 O471 1.251 . S
O460 C440 1.257 . S
O460 Eu441 2.473 . S
O461 C440 1.260 . S
O461 Eu441 2.480 . S
O462 Eu441 2.430 . S
O462 C448 1.259 . S
O463 Eu441 2.670 . S
O463 C448 1.270 . S
O463 Eu451 2.355 . S
O464 Eu441 2.394 . S
O464 C449 1.251 . S
O465 C449 1.251 . S
O465 Eu451 2.374 . S
O466 C450 1.257 . S
O466 Eu451 2.473 . S
O467 C450 1.260 . S
O467 Eu451 2.480 . S
O468 Eu451 2.430 . S
O468 C458 1.259 . S
O469 Eu441 2.355 . S
O469 Eu451 2.670 . S
O469 C458 1.270 . S
O470 Eu451 2.394 . S
O470 C459 1.251 . S
O471 Eu441 2.374 . S
O471 C459 1.251 . S
H472 C443 0.931 . S
H473 C444 0.931 . S
H474 C446 0.931 . S
H475 C447 0.931 . S
H476 C453 0.931 . S
H477 C454 0.931 . S
H478 C456 0.931 . S
H479 C457 0.931 . S
C480 Eu481 2.835 . S
C480 C482 1.500 . S
C480 O500 1.257 . S
C480 O501 1.260 . S
Eu481 C480 2.835 . S
Eu481 O500 2.473 . S
Eu481 O501 2.480 . S
Eu481 O502 2.430 . S
Eu481 O503 2.670 . S
Eu481 O504 2.394 . S
Eu481 O509 2.355 . S
Eu481 O511 2.374 . S
C482 C480 1.500 . S
C482 C483 1.377 . S
C482 C487 1.377 . S
C483 C482 1.377 . S
C483 C484 1.395 . S
C483 H512 0.931 . S
C484 C483 1.395 . S
C484 C485 1.383 . S
C484 H513 0.931 . S
C485 C484 1.383 . S
C485 C486 1.394 . S
C486 C485 1.394 . S
C486 C487 1.378 . S
C486 H514 0.931 . S
C487 C482 1.377 . S
C487 C486 1.378 . S
C487 H515 0.931 . S
C488 O502 1.259 . S
C488 O503 1.270 . S
C489 O504 1.251 . S
C489 O505 1.251 . S
C490 Eu491 2.835 . S
C490 C492 1.500 . S
C490 O506 1.257 . S
C490 O507 1.260 . S
Eu491 C490 2.835 . S
Eu491 O503 2.355 . S
Eu491 O505 2.374 . S
Eu491 O506 2.473 . S
Eu491 O507 2.480 . S
Eu491 O508 2.430 . S
Eu491 O509 2.670 . S
Eu491 O510 2.394 . S
C492 C490 1.500 . S
C492 C493 1.377 . S
C492 C497 1.377 . S
C493 C492 1.377 . S
C493 C494 1.395 1_554 S
C493 H516 0.931 . S
C494 C493 1.395 1_556 S
C494 C495 1.383 . S
C494 H517 0.931 . S
C495 C494 1.383 . S
C495 C496 1.394 . S
C496 C495 1.394 . S
C496 C497 1.378 1_556 S
C496 H518 0.931 . S
C497 C492 1.377 . S
C497 C496 1.378 1_554 S
C497 H519 0.931 . S
C498 O508 1.259 . S
C498 O509 1.270 . S
C499 O510 1.251 . S
C499 O511 1.251 . S
O500 C480 1.257 . S
O500 Eu481 2.473 . S
O501 C480 1.260 . S
O501 Eu481 2.480 . S
O502 Eu481 2.430 . S
O502 C488 1.259 . S
O503 Eu481 2.670 . S
O503 C488 1.270 . S
O503 Eu491 2.355 . S
O504 Eu481 2.394 . S
O504 C489 1.251 . S
O505 C489 1.251 . S
O505 Eu491 2.374 . S
O506 C490 1.257 . S
O506 Eu491 2.473 . S
O507 C490 1.260 . S
O507 Eu491 2.480 . S
O508 Eu491 2.430 . S
O508 C498 1.259 . S
O509 Eu481 2.355 . S
O509 Eu491 2.670 . S
O509 C498 1.270 . S
O510 Eu491 2.394 . S
O510 C499 1.251 . S
O511 Eu481 2.374 . S
O511 C499 1.251 . S
H512 C483 0.931 . S
H513 C484 0.931 . S
H514 C486 0.931 . S
H515 C487 0.931 . S
H516 C493 0.931 . S
H517 C494 0.931 . S
H518 C496 0.931 . S
H519 C497 0.931 . S
C520 Eu521 2.835 . S
C520 C522 1.500 . S
C520 O540 1.257 . S
C520 O541 1.260 . S
Eu521 C520 2.835 . S
Eu521 O540 2.473 . S
Eu521 O541 2.480 . S
Eu521 O542 2.430 . S
Eu521 O543 2.670 . S
Eu521 O544 2.394 . S
Eu521 O549 2.355 . S
Eu521 O551 2.374 . S
C522 C520 1.500 . S
C522 C523 1.377 . S
C522 C527 1.377 . S
C523 C522 1.377 . S
C523 C524 1.395 . S
C523 H552 0.931 . S
C524 C523 1.395 . S
C524 C525 1.383 . S
C524 H553 0.931 . S
C525 C524 1.383 . S
C525 C526 1.394 . S
C526 C525 1.394 . S
C526 C527 1.378 . S
C526 H554 0.931 . S
C527 C522 1.377 . S
C527 C526 1.378 . S
C527 H555 0.931 . S
C528 O542 1.259 . S
C528 O543 1.270 . S
C529 O544 1.251 . S
C529 O545 1.251 . S
C530 Eu531 2.835 . S
C530 C532 1.500 . S
C530 O546 1.257 . S
C530 O547 1.260 . S
Eu531 C530 2.835 . S
Eu531 O543 2.355 . S
Eu531 O545 2.374 . S
Eu531 O546 2.473 . S
Eu531 O547 2.480 . S
Eu531 O548 2.430 . S
Eu531 O549 2.670 . S
Eu531 O550 2.394 . S
C532 C530 1.500 . S
C532 C533 1.377 . S
C532 C537 1.377 . S
C533 C532 1.377 . S
C533 C534 1.395 1_554 S
C533 H556 0.931 . S
C534 C533 1.395 1_556 S
C534 C535 1.383 . S
C534 H557 0.931 . S
C535 C534 1.383 . S
C535 C536 1.394 . S
C536 C535 1.394 . S
C536 C537 1.378 1_556 S
C536 H558 0.931 . S
C537 C532 1.377 . S
C537 C536 1.378 1_554 S
C537 H559 0.931 . S
C538 O548 1.259 . S
C538 O549 1.270 . S
C539 O550 1.251 . S
C539 O551 1.251 . S
O540 C520 1.257 . S
O540 Eu521 2.473 . S
O541 C520 1.260 . S
O541 Eu521 2.480 . S
O542 Eu521 2.430 . S
O542 C528 1.259 . S
O543 Eu521 2.670 . S
O543 C528 1.270 . S
O543 Eu531 2.355 . S
O544 Eu521 2.394 . S
O544 C529 1.251 . S
O545 C529 1.251 . S
O545 Eu531 2.374 . S
O546 C530 1.257 . S
O546 Eu531 2.473 . S
O547 C530 1.260 . S
O547 Eu531 2.480 . S
O548 Eu531 2.430 . S
O548 C538 1.259 . S
O549 Eu521 2.355 . S
O549 Eu531 2.670 . S
O549 C538 1.270 . S
O550 Eu531 2.394 . S
O550 C539 1.251 . S
O551 Eu521 2.374 . S
O551 C539 1.251 . S
H552 C523 0.931 . S
H553 C524 0.931 . S
H554 C526 0.931 . S
H555 C527 0.931 . S
H556 C533 0.931 . S
H557 C534 0.931 . S
H558 C536 0.931 . S
H559 C537 0.931 . S
C560 Eu561 2.835 . S
C560 C562 1.500 . S
C560 O580 1.257 . S
C560 O581 1.260 . S
Eu561 C560 2.835 . S
Eu561 O580 2.473 . S
Eu561 O581 2.480 . S
Eu561 O582 2.430 . S
Eu561 O583 2.670 . S
Eu561 O584 2.394 . S
Eu561 O589 2.355 . S
Eu561 O591 2.374 . S
C562 C560 1.500 . S
C562 C563 1.377 . S
C562 C567 1.377 . S
C563 C562 1.377 . S
C563 C564 1.395 . S
C563 H592 0.931 . S
C564 C563 1.395 . S
C564 C565 1.383 . S
C564 H593 0.931 . S
C565 C564 1.383 . S
C565 C566 1.394 . S
C566 C565 1.394 . S
C566 C567 1.378 . S
C566 H594 0.931 . S
C567 C562 1.377 . S
C567 C566 1.378 . S
C567 H595 0.931 . S
C568 O582 1.259 . S
C568 O583 1.270 . S
C569 O584 1.251 . S
C569 O585 1.251 . S
C570 Eu571 2.835 . S
C570 C572 1.500 . S
C570 O586 1.257 . S
C570 O587 1.260 . S
Eu571 C570 2.835 . S
Eu571 O583 2.355 . S
Eu571 O585 2.374 . S
Eu571 O586 2.473 . S
Eu571 O587 2.480 . S
Eu571 O588 2.430 . S
Eu571 O589 2.670 . S
Eu571 O590 2.394 . S
C572 C570 1.500 . S
C572 C573 1.377 . S
C572 C577 1.377 . S
C573 C572 1.377 . S
C573 C574 1.395 . S
C573 H596 0.931 . S
C574 C573 1.395 . S
C574 C575 1.383 . S
C574 H597 0.931 . S
C575 C574 1.383 . S
C575 C576 1.394 . S
C576 C575 1.394 . S
C576 C577 1.378 . S
C576 H598 0.931 . S
C577 C572 1.377 . S
C577 C576 1.378 . S
C577 H599 0.931 . S
C578 O588 1.259 . S
C578 O589 1.270 . S
C579 O590 1.251 . S
C579 O591 1.251 . S
O580 C560 1.257 . S
O580 Eu561 2.473 . S
O581 C560 1.260 . S
O581 Eu561 2.480 . S
O582 Eu561 2.430 . S
O582 C568 1.259 . S
O583 Eu561 2.670 . S
O583 C568 1.270 . S
O583 Eu571 2.355 . S
O584 Eu561 2.394 . S
O584 C569 1.251 . S
O585 C569 1.251 . S
O585 Eu571 2.374 . S
O586 C570 1.257 . S
O586 Eu571 2.473 . S
O587 C570 1.260 . S
O587 Eu571 2.480 . S
O588 Eu571 2.430 . S
O588 C578 1.259 . S
O589 Eu561 2.355 . S
O589 Eu571 2.670 . S
O589 C578 1.270 . S
O590 Eu571 2.394 . S
O590 C579 1.251 . S
O591 Eu561 2.374 . S
O591 C579 1.251 . S
H592 C563 0.931 . S
H593 C564 0.931 . S
H594 C566 0.931 . S
H595 C567 0.931 . S
H596 C573 0.931 . S
H597 C574 0.931 . S
H598 C576 0.931 . S
H599 C577 0.931 . S
C600 Eu601 2.835 . S
C600 C602 1.500 . S
C600 O620 1.257 . S
C600 O621 1.260 . S
Eu601 C600 2.835 . S
Eu601 O620 2.473 . S
Eu601 O621 2.480 . S
Eu601 O622 2.430 . S
Eu601 O623 2.670 . S
Eu601 O624 2.394 . S
Eu601 O629 2.355 . S
Eu601 O631 2.374 . S
C602 C600 1.500 . S
C602 C603 1.377 . S
C602 C607 1.377 . S
C603 C602 1.377 . S
C603 C604 1.395 . S
C603 H632 0.931 . S
C604 C603 1.395 . S
C604 C605 1.383 . S
C604 H633 0.931 . S
C605 C604 1.383 . S
C605 C606 1.394 . S
C606 C605 1.394 . S
C606 C607 1.378 . S
C606 H634 0.931 . S
C607 C602 1.377 . S
C607 C606 1.378 . S
C607 H635 0.931 . S
C608 O622 1.259 . S
C608 O623 1.270 . S
C609 O624 1.251 . S
C609 O625 1.251 . S
C610 Eu611 2.835 . S
C610 C612 1.500 . S
C610 O626 1.257 . S
C610 O627 1.260 . S
Eu611 C610 2.835 . S
Eu611 O623 2.355 . S
Eu611 O625 2.374 . S
Eu611 O626 2.473 . S
Eu611 O627 2.480 . S
Eu611 O628 2.430 . S
Eu611 O629 2.670 . S
Eu611 O630 2.394 . S
C612 C610 1.500 . S
C612 C613 1.377 . S
C612 C617 1.377 . S
C613 C612 1.377 . S
C613 C614 1.395 . S
C613 H636 0.931 . S
C614 C613 1.395 . S
C614 C615 1.383 . S
C614 H637 0.931 . S
C615 C614 1.383 . S
C615 C616 1.394 . S
C616 C615 1.394 . S
C616 C617 1.378 . S
C616 H638 0.931 . S
C617 C612 1.377 . S
C617 C616 1.378 . S
C617 H639 0.931 . S
C618 O628 1.259 . S
C618 O629 1.270 . S
C619 O630 1.251 . S
C619 O631 1.251 . S
O620 C600 1.257 . S
O620 Eu601 2.473 . S
O621 C600 1.260 . S
O621 Eu601 2.480 . S
O622 Eu601 2.430 . S
O622 C608 1.259 . S
O623 Eu601 2.670 . S
O623 C608 1.270 . S
O623 Eu611 2.355 . S
O624 Eu601 2.394 . S
O624 C609 1.251 . S
O625 C609 1.251 . S
O625 Eu611 2.374 . S
O626 C610 1.257 . S
O626 Eu611 2.473 . S
O627 C610 1.260 . S
O627 Eu611 2.480 . S
O628 Eu611 2.430 . S
O628 C618 1.259 . S
O629 Eu601 2.355 . S
O629 Eu611 2.670 . S
O629 C618 1.270 . S
O630 Eu611 2.394 . S
O630 C619 1.251 . S
O631 Eu601 2.374 . S
O631 C619 1.251 . S
H632 C603 0.931 . S
H633 C604 0.931 . S
H634 C606 0.931 . S
H635 C607 0.931 . S
H636 C613 0.931 . S
H637 C614 0.931 . S
H638 C616 0.931 . S
H639 C617 0.931 . S
C640 Eu641 2.835 . S
C640 C642 1.500 . S
C640 O660 1.257 . S
C640 O661 1.260 . S
Eu641 C640 2.835 . S
Eu641 O660 2.473 . S
Eu641 O661 2.480 . S
Eu641 O662 2.430 . S
Eu641 O663 2.670 . S
Eu641 O664 2.394 . S
Eu641 O669 2.355 . S
Eu641 O671 2.374 . S
C642 C640 1.500 . S
C642 C643 1.377 . S
C642 C647 1.377 . S
C643 C642 1.377 . S
C643 C644 1.395 1_556 S
C643 H672 0.931 . S
C644 C643 1.395 1_554 S
C644 C645 1.383 . S
C644 H673 0.931 . S
C645 C644 1.383 . S
C645 C646 1.394 . S
C646 C645 1.394 . S
C646 C647 1.378 1_554 S
C646 H674 0.931 . S
C647 C642 1.377 . S
C647 C646 1.378 1_556 S
C647 H675 0.931 . S
C648 O662 1.259 . S
C648 O663 1.270 . S
C649 O664 1.251 . S
C649 O665 1.251 . S
C650 Eu651 2.835 . S
C650 C652 1.500 . S
C650 O666 1.257 . S
C650 O667 1.260 . S
Eu651 C650 2.835 . S
Eu651 O663 2.355 . S
Eu651 O665 2.374 . S
Eu651 O666 2.473 . S
Eu651 O667 2.480 . S
Eu651 O668 2.430 . S
Eu651 O669 2.670 . S
Eu651 O670 2.394 . S
C652 C650 1.500 . S
C652 C653 1.377 . S
C652 C657 1.377 . S
C653 C652 1.377 . S
C653 C654 1.395 . S
C653 H676 0.931 . S
C654 C653 1.395 . S
C654 C655 1.383 . S
C654 H677 0.931 . S
C655 C654 1.383 . S
C655 C656 1.394 . S
C656 C655 1.394 . S
C656 C657 1.378 . S
C656 H678 0.931 . S
C657 C652 1.377 . S
C657 C656 1.378 . S
C657 H679 0.931 . S
C658 O668 1.259 . S
C658 O669 1.270 . S
C659 O670 1.251 . S
C659 O671 1.251 . S
O660 C640 1.257 . S
O660 Eu641 2.473 . S
O661 C640 1.260 . S
O661 Eu641 2.480 . S
O662 Eu641 2.430 . S
O662 C648 1.259 . S
O663 Eu641 2.670 . S
O663 C648 1.270 . S
O663 Eu651 2.355 . S
O664 Eu641 2.394 . S
O664 C649 1.251 . S
O665 C649 1.251 . S
O665 Eu651 2.374 . S
O666 C650 1.257 . S
O666 Eu651 2.473 . S
O667 C650 1.260 . S
O667 Eu651 2.480 . S
O668 Eu651 2.430 . S
O668 C658 1.259 . S
O669 Eu641 2.355 . S
O669 Eu651 2.670 . S
O669 C658 1.270 . S
O670 Eu651 2.394 . S
O670 C659 1.251 . S
O671 Eu641 2.374 . S
O671 C659 1.251 . S
H672 C643 0.931 . S
H673 C644 0.931 . S
H674 C646 0.931 . S
H675 C647 0.931 . S
H676 C653 0.931 . S
H677 C654 0.931 . S
H678 C656 0.931 . S
H679 C657 0.931 . S
C680 Eu681 2.835 . S
C680 C682 1.500 . S
C680 O700 1.257 1_545 S
C680 O701 1.260 . S
Eu681 C680 2.835 . S
Eu681 O700 2.473 1_545 S
Eu681 O701 2.480 . S
Eu681 O702 2.430 . S
Eu681 O703 2.670 . S
Eu681 O704 2.394 . S
Eu681 O709 2.355 1_545 S
Eu681 O711 2.381 . S
C682 C680 1.500 . S
C682 C683 1.377 . S
C682 C687 1.377 1_545 S
C683 C682 1.377 . S
C683 C684 1.395 1_556 S
C683 H712 0.931 . S
C684 C683 1.395 1_554 S
C684 C685 1.383 . S
C684 H713 0.931 . S
C685 C684 1.383 . S
C685 C686 1.394 1_545 S
C686 C685 1.394 1_565 S
C686 C687 1.378 1_554 S
C686 H714 0.931 . S
C687 C682 1.377 1_565 S
C687 C686 1.378 1_556 S
C687 H715 0.931 . S
C688 O702 1.259 . S
C688 O703 1.270 . S
C689 O704 1.251 . S
C689 O705 1.237 1_545 S
C690 Eu691 2.835 . S
C690 C692 1.500 . S
C690 O706 1.257 1_565 S
C690 O707 1.260 . S
Eu691 C690 2.835 . S
Eu691 O703 2.355 1_565 S
Eu691 O705 2.384 . S
Eu691 O706 2.473 1_565 S
Eu691 O707 2.480 . S
Eu691 O708 2.430 . S
Eu691 O709 2.670 . S
Eu691 O710 2.394 . S
C692 C690 1.500 . S
C692 C693 1.377 . S
C692 C697 1.377 1_565 S
C693 C692 1.377 . S
C693 C694 1.395 . S
C693 H716 0.931 . S
C694 C693 1.395 . S
C694 C695 1.383 . S
C694 H717 0.931 . S
C695 C694 1.383 . S
C695 C696 1.394 1_565 S
C696 C695 1.394 1_545 S
C696 C697 1.378 . S
C696 H718 0.931 . S
C697 C692 1.377 1_545 S
C697 C696 1.378 . S
C697 H719 0.931 . S
C698 O708 1.259 . S
C698 O709 1.270 . S
C699 O710 1.251 . S
C699 O711 1.241 1_565 S
O700 C680 1.257 1_565 S
O700 Eu681 2.473 1_565 S
O701 C680 1.260 . S
O701 Eu681 2.480 . S
O702 Eu681 2.430 . S
O702 C688 1.259 . S
O703 Eu681 2.670 . S
O703 C688 1.270 . S
O703 Eu691 2.355 1_545 S
O704 Eu681 2.394 . S
O704 C689 1.251 . S
O705 C689 1.237 1_565 S
O705 Eu691 2.384 . S
O706 C690 1.257 1_545 S
O706 Eu691 2.473 1_545 S
O707 C690 1.260 . S
O707 Eu691 2.480 . S
O708 Eu691 2.430 . S
O708 C698 1.259 . S
O709 Eu681 2.355 1_565 S
O709 Eu691 2.670 . S
O709 C698 1.270 . S
O710 Eu691 2.394 . S
O710 C699 1.251 . S
O711 Eu681 2.381 . S
O711 C699 1.241 1_545 S
H712 C683 0.931 . S
H713 C684 0.931 . S
H714 C686 0.931 . S
H715 C687 0.931 . S
H716 C693 0.931 . S
H717 C694 0.931 . S
H718 C696 0.931 . S
H719 C697 0.931 . S
C720 Eu721 2.835 . S
C720 C722 1.500 . S
C720 O740 1.257 1_545 S
C720 O741 1.260 . S
Eu721 C720 2.835 . S
Eu721 O740 2.473 1_545 S
Eu721 O741 2.480 . S
Eu721 O742 2.430 . S
Eu721 O743 2.670 . S
Eu721 O744 2.394 . S
Eu721 O749 2.355 1_545 S
Eu721 O751 2.381 . S
C722 C720 1.500 . S
C722 C723 1.377 . S
C722 C727 1.377 1_545 S
C723 C722 1.377 . S
C723 C724 1.395 . S
C723 H752 0.931 . S
C724 C723 1.395 . S
C724 C725 1.383 . S
C724 H753 0.931 . S
C725 C724 1.383 . S
C725 C726 1.394 1_545 S
C726 C725 1.394 1_565 S
C726 C727 1.378 . S
C726 H754 0.931 . S
C727 C722 1.377 1_565 S
C727 C726 1.378 . S
C727 H755 0.931 . S
C728 O742 1.259 . S
C728 O743 1.270 . S
C729 O744 1.251 . S
C729 O745 1.237 1_545 S
C730 Eu731 2.835 . S
C730 C732 1.500 . S
C730 O746 1.257 1_565 S
C730 O747 1.260 . S
Eu731 C730 2.835 . S
Eu731 O743 2.355 1_565 S
Eu731 O745 2.384 . S
Eu731 O746 2.473 1_565 S
Eu731 O747 2.480 . S
Eu731 O748 2.430 . S
Eu731 O749 2.670 . S
Eu731 O750 2.394 . S
C732 C730 1.500 . S
C732 C733 1.377 . S
C732 C737 1.377 1_565 S
C733 C732 1.377 . S
C733 C734 1.395 . S
C733 H756 0.931 . S
C734 C733 1.395 . S
C734 C735 1.383 . S
C734 H757 0.931 . S
C735 C734 1.383 . S
C735 C736 1.394 1_565 S
C736 C735 1.394 1_545 S
C736 C737 1.378 . S
C736 H758 0.931 . S
C737 C732 1.377 1_545 S
C737 C736 1.378 . S
C737 H759 0.931 . S
C738 O748 1.259 . S
C738 O749 1.270 . S
C739 O750 1.251 . S
C739 O751 1.241 1_565 S
O740 C720 1.257 1_565 S
O740 Eu721 2.473 1_565 S
O741 C720 1.260 . S
O741 Eu721 2.480 . S
O742 Eu721 2.430 . S
O742 C728 1.259 . S
O743 Eu721 2.670 . S
O743 C728 1.270 . S
O743 Eu731 2.355 1_545 S
O744 Eu721 2.394 . S
O744 C729 1.251 . S
O745 C729 1.237 1_565 S
O745 Eu731 2.384 . S
O746 C730 1.257 1_545 S
O746 Eu731 2.473 1_545 S
O747 C730 1.260 . S
O747 Eu731 2.480 . S
O748 Eu731 2.430 . S
O748 C738 1.259 . S
O749 Eu721 2.355 1_565 S
O749 Eu731 2.670 . S
O749 C738 1.270 . S
O750 Eu731 2.394 . S
O750 C739 1.251 . S
O751 Eu721 2.381 . S
O751 C739 1.241 1_545 S
H752 C723 0.931 . S
H753 C724 0.931 . S
H754 C726 0.931 . S
H755 C727 0.931 . S
H756 C733 0.931 . S
H757 C734 0.931 . S
H758 C736 0.931 . S
H759 C737 0.931 . S
C760 Eu761 2.835 . S
C760 C762 1.500 . S
C760 O780 1.257 . S
C760 O781 1.260 . S
Eu761 C760 2.835 . S
Eu761 O780 2.473 . S
Eu761 O781 2.480 . S
Eu761 O782 2.430 . S
Eu761 O783 2.670 . S
Eu761 O784 2.394 . S
Eu761 O789 2.355 . S
Eu761 O791 2.374 . S
C762 C760 1.500 . S
C762 C763 1.377 . S
C762 C767 1.377 . S
C763 C762 1.377 . S
C763 C764 1.395 . S
C763 H792 0.931 . S
C764 C763 1.395 . S
C764 C765 1.383 . S
C764 H793 0.931 . S
C765 C764 1.383 . S
C765 C766 1.394 . S
C766 C765 1.394 . S
C766 C767 1.378 . S
C766 H794 0.931 . S
C767 C762 1.377 . S
C767 C766 1.378 . S
C767 H795 0.931 . S
C768 O782 1.259 . S
C768 O783 1.270 . S
C769 O784 1.251 . S
C769 O785 1.251 . S
C770 Eu771 2.835 . S
C770 C772 1.500 . S
C770 O786 1.257 . S
C770 O787 1.260 . S
Eu771 C770 2.835 . S
Eu771 O783 2.355 . S
Eu771 O785 2.374 . S
Eu771 O786 2.473 . S
Eu771 O787 2.480 . S
Eu771 O788 2.430 . S
Eu771 O789 2.670 . S
Eu771 O790 2.394 . S
C772 C770 1.500 . S
C772 C773 1.377 . S
C772 C777 1.377 . S
C773 C772 1.377 . S
C773 C774 1.395 . S
C773 H796 0.931 . S
C774 C773 1.395 . S
C774 C775 1.383 . S
C774 H797 0.931 . S
C775 C774 1.383 . S
C775 C776 1.394 . S
C776 C775 1.394 . S
C776 C777 1.378 . S
C776 H798 0.931 . S
C777 C772 1.377 . S
C777 C776 1.378 . S
C777 H799 0.931 . S
C778 O788 1.259 . S
C778 O789 1.270 . S
C779 O790 1.251 . S
C779 O791 1.251 . S
O780 C760 1.257 . S
O780 Eu761 2.473 . S
O781 C760 1.260 . S
O781 Eu761 2.480 . S
O782 Eu761 2.430 . S
O782 C768 1.259 . S
O783 Eu761 2.670 . S
O783 C768 1.270 . S
O783 Eu771 2.355 . S
O784 Eu761 2.394 . S
O784 C769 1.251 . S
O785 C769 1.251 . S
O785 Eu771 2.374 . S
O786 C770 1.257 . S
O786 Eu771 2.473 . S
O787 C770 1.260 . S
O787 Eu771 2.480 . S
O788 Eu771 2.430 . S
O788 C778 1.259 . S
O789 Eu761 2.355 . S
O789 Eu771 2.670 . S
O789 C778 1.270 . S
O790 Eu771 2.394 . S
O790 C779 1.251 . S
O791 Eu761 2.374 . S
O791 C779 1.251 . S
H792 C763 0.931 . S
H793 C764 0.931 . S
H794 C766 0.931 . S
H795 C767 0.931 . S
H796 C773 0.931 . S
H797 C774 0.931 . S
H798 C776 0.931 . S
H799 C777 0.931 . S
C800 Eu801 2.835 . S
C800 C802 1.500 . S
C800 O820 1.257 . S
C800 O821 1.260 . S
Eu801 C800 2.835 . S
Eu801 O820 2.473 . S
Eu801 O821 2.480 . S
Eu801 O822 2.430 . S
Eu801 O823 2.670 . S
Eu801 O824 2.394 . S
Eu801 O829 2.355 . S
Eu801 O831 2.374 . S
C802 C800 1.500 . S
C802 C803 1.377 . S
C802 C807 1.377 . S
C803 C802 1.377 . S
C803 C804 1.395 . S
C803 H832 0.931 . S
C804 C803 1.395 . S
C804 C805 1.383 . S
C804 H833 0.931 . S
C805 C804 1.383 . S
C805 C806 1.394 . S
C806 C805 1.394 . S
C806 C807 1.378 . S
C806 H834 0.931 . S
C807 C802 1.377 . S
C807 C806 1.378 . S
C807 H835 0.931 . S
C808 O822 1.259 . S
C808 O823 1.270 . S
C809 O824 1.251 . S
C809 O825 1.251 . S
C810 Eu811 2.835 . S
C810 C812 1.500 . S
C810 O826 1.257 . S
C810 O827 1.260 . S
Eu811 C810 2.835 . S
Eu811 O823 2.355 . S
Eu811 O825 2.374 . S
Eu811 O826 2.473 . S
Eu811 O827 2.480 . S
Eu811 O828 2.430 . S
Eu811 O829 2.670 . S
Eu811 O830 2.394 . S
C812 C810 1.500 . S
C812 C813 1.377 . S
C812 C817 1.377 . S
C813 C812 1.377 . S
C813 C814 1.395 1_554 S
C813 H836 0.931 . S
C814 C813 1.395 1_556 S
C814 C815 1.383 . S
C814 H837 0.931 . S
C815 C814 1.383 . S
C815 C816 1.394 . S
C816 C815 1.394 . S
C816 C817 1.378 1_556 S
C816 H838 0.931 . S
C817 C812 1.377 . S
C817 C816 1.378 1_554 S
C817 H839 0.931 . S
C818 O828 1.259 . S
C818 O829 1.270 . S
C819 O830 1.251 . S
C819 O831 1.251 . S
O820 C800 1.257 . S
O820 Eu801 2.473 . S
O821 C800 1.260 . S
O821 Eu801 2.480 . S
O822 Eu801 2.430 . S
O822 C808 1.259 . S
O823 Eu801 2.670 . S
O823 C808 1.270 . S
O823 Eu811 2.355 . S
O824 Eu801 2.394 . S
O824 C809 1.251 . S
O825 C809 1.251 . S
O825 Eu811 2.374 . S
O826 C810 1.257 . S
O826 Eu811 2.473 . S
O827 C810 1.260 . S
O827 Eu811 2.480 . S
O828 Eu811 2.430 . S
O828 C818 1.259 . S
O829 Eu801 2.355 . S
O829 Eu811 2.670 . S
O829 C818 1.270 . S
O830 Eu811 2.394 . S
O830 C819 1.251 . S
O831 Eu801 2.374 . S
O831 C819 1.251 . S
H832 C803 0.931 . S
H833 C804 0.931 . S
H834 C806 0.931 . S
H835 C807 0.931 . S
H836 C813 0.931 . S
H837 C814 0.931 . S
H838 C816 0.931 . S
H839 C817 0.931 . S
C840 Eu841 2.835 . S
C840 C842 1.500 . S
C840 O860 1.257 1_545 S
C840 O861 1.260 . S
Eu841 C840 2.835 . S
Eu841 O860 2.473 1_545 S
Eu841 O861 2.480 . S
Eu841 O862 2.430 . S
Eu841 O863 2.670 . S
Eu841 O864 2.394 . S
Eu841 O869 2.355 1_545 S
Eu841 O871 2.384 . S
C842 C840 1.500 . S
C842 C843 1.377 . S
C842 C847 1.377 1_545 S
C843 C842 1.377 . S
C843 C844 1.395 . S
C843 H872 0.931 . S
C844 C843 1.395 . S
C844 C845 1.383 . S
C844 H873 0.931 . S
C845 C844 1.383 . S
C845 C846 1.394 1_545 S
C846 C845 1.394 1_565 S
C846 C847 1.378 . S
C846 H874 0.931 . S
C847 C842 1.377 1_565 S
C847 C846 1.378 . S
C847 H875 0.931 . S
C848 O862 1.259 . S
C848 O863 1.270 . S
C849 O864 1.251 . S
C849 O865 1.241 1_545 S
C850 Eu851 2.835 . S
C850 C852 1.500 . S
C850 O866 1.257 1_565 S
C850 O867 1.260 . S
Eu851 C850 2.835 . S
Eu851 O863 2.355 1_565 S
Eu851 O865 2.381 . S
Eu851 O866 2.473 1_565 S
Eu851 O867 2.480 . S
Eu851 O868 2.430 . S
Eu851 O869 2.670 . S
Eu851 O870 2.394 . S
C852 C850 1.500 . S
C852 C853 1.377 . S
C852 C857 1.377 1_565 S
C853 C852 1.377 . S
C853 C854 1.395 1_554 S
C853 H876 0.931 . S
C854 C853 1.395 1_556 S
C854 C855 1.383 . S
C854 H877 0.931 . S
C855 C854 1.383 . S
C855 C856 1.394 1_565 S
C856 C855 1.394 1_545 S
C856 C857 1.378 1_556 S
C856 H878 0.931 . S
C857 C852 1.377 1_545 S
C857 C856 1.378 1_554 S
C857 H879 0.931 . S
C858 O868 1.259 . S
C858 O869 1.270 . S
C859 O870 1.251 . S
C859 O871 1.237 1_565 S
O860 C840 1.257 1_565 S
O860 Eu841 2.473 1_565 S
O861 C840 1.260 . S
O861 Eu841 2.480 . S
O862 Eu841 2.430 . S
O862 C848 1.259 . S
O863 Eu841 2.670 . S
O863 C848 1.270 . S
O863 Eu851 2.355 1_545 S
O864 Eu841 2.394 . S
O864 C849 1.251 . S
O865 C849 1.241 1_565 S
O865 Eu851 2.381 . S
O866 C850 1.257 1_545 S
O866 Eu851 2.473 1_545 S
O867 C850 1.260 . S
O867 Eu851 2.480 . S
O868 Eu851 2.430 . S
O868 C858 1.259 . S
O869 Eu841 2.355 1_565 S
O869 Eu851 2.670 . S
O869 C858 1.270 . S
O870 Eu851 2.394 . S
O870 C859 1.251 . S
O871 Eu841 2.384 . S
O871 C859 1.237 1_545 S
H872 C843 0.931 . S
H873 C844 0.931 . S
H874 C846 0.931 . S
H875 C847 0.931 . S
H876 C853 0.931 . S
H877 C854 0.931 . S
H878 C856 0.931 . S
H879 C857 0.931 . S
C880 Eu881 2.835 . S
C880 C882 1.500 . S
C880 O900 1.257 1_545 S
C880 O901 1.260 . S
Eu881 C880 2.835 . S
Eu881 O900 2.473 1_545 S
Eu881 O901 2.480 . S
Eu881 O902 2.430 . S
Eu881 O903 2.670 . S
Eu881 O904 2.394 . S
Eu881 O909 2.355 1_545 S
Eu881 O911 2.384 . S
C882 C880 1.500 . S
C882 C883 1.377 . S
C882 C887 1.377 1_545 S
C883 C882 1.377 . S
C883 C884 1.395 . S
C883 H912 0.931 . S
C884 C883 1.395 . S
C884 C885 1.383 . S
C884 H913 0.931 . S
C885 C884 1.383 . S
C885 C886 1.394 1_545 S
C886 C885 1.394 1_565 S
C886 C887 1.378 . S
C886 H914 0.931 . S
C887 C882 1.377 1_565 S
C887 C886 1.378 . S
C887 H915 0.931 . S
C888 O902 1.259 . S
C888 O903 1.270 . S
C889 O904 1.251 . S
C889 O905 1.241 1_545 S
C890 Eu891 2.835 . S
C890 C892 1.500 . S
C890 O906 1.257 1_565 S
C890 O907 1.260 . S
Eu891 C890 2.835 . S
Eu891 O903 2.355 1_565 S
Eu891 O905 2.381 . S
Eu891 O906 2.473 1_565 S
Eu891 O907 2.480 . S
Eu891 O908 2.430 . S
Eu891 O909 2.670 . S
Eu891 O910 2.394 . S
C892 C890 1.500 . S
C892 C893 1.377 . S
C892 C897 1.377 1_565 S
C893 C892 1.377 . S
C893 C894 1.395 . S
C893 H916 0.931 . S
C894 C893 1.395 . S
C894 C895 1.383 . S
C894 H917 0.931 . S
C895 C894 1.383 . S
C895 C896 1.394 1_565 S
C896 C895 1.394 1_545 S
C896 C897 1.378 . S
C896 H918 0.931 . S
C897 C892 1.377 1_545 S
C897 C896 1.378 . S
C897 H919 0.931 . S
C898 O908 1.259 . S
C898 O909 1.270 . S
C899 O910 1.251 . S
C899 O911 1.237 1_565 S
O900 C880 1.257 1_565 S
O900 Eu881 2.473 1_565 S
O901 C880 1.260 . S
O901 Eu881 2.480 . S
O902 Eu881 2.430 . S
O902 C888 1.259 . S
O903 Eu881 2.670 . S
O903 C888 1.270 . S
O903 Eu891 2.355 1_545 S
O904 Eu881 2.394 . S
O904 C889 1.251 . S
O905 C889 1.241 1_565 S
O905 Eu891 2.381 . S
O906 C890 1.257 1_545 S
O906 Eu891 2.473 1_545 S
O907 C890 1.260 . S
O907 Eu891 2.480 . S
O908 Eu891 2.430 . S
O908 C898 1.259 . S
O909 Eu881 2.355 1_565 S
O909 Eu891 2.670 . S
O909 C898 1.270 . S
O910 Eu891 2.394 . S
O910 C899 1.251 . S
O911 Eu881 2.384 . S
O911 C899 1.237 1_545 S
H912 C883 0.931 . S
H913 C884 0.931 . S
H914 C886 0.931 . S
H915 C887 0.931 . S
H916 C893 0.931 . S
H917 C894 0.931 . S
H918 C896 0.931 . S
H919 C897 0.931 . S
C920 Eu921 2.835 . S
C920 C922 1.500 . S
C920 O940 1.257 . S
C920 O941 1.260 . S
Eu921 C920 2.835 . S
Eu921 O940 2.473 . S
Eu921 O941 2.480 . S
Eu921 O942 2.430 . S
Eu921 O943 2.670 . S
Eu921 O944 2.394 . S
Eu921 O949 2.355 . S
Eu921 O951 2.374 . S
C922 C920 1.500 . S
C922 C923 1.377 . S
C922 C927 1.377 . S
C923 C922 1.377 . S
C923 C924 1.395 . S
C923 H952 0.931 . S
C924 C923 1.395 . S
C924 C925 1.383 . S
C924 H953 0.931 . S
C925 C924 1.383 . S
C925 C926 1.394 . S
C926 C925 1.394 . S
C926 C927 1.378 . S
C926 H954 0.931 . S
C927 C922 1.377 . S
C927 C926 1.378 . S
C927 H955 0.931 . S
C928 O942 1.259 . S
C928 O943 1.270 . S
C929 O944 1.251 . S
C929 O945 1.251 . S
C930 Eu931 2.835 . S
C930 C932 1.500 . S
C930 O946 1.257 . S
C930 O947 1.260 . S
Eu931 C930 2.835 . S
Eu931 O943 2.355 . S
Eu931 O945 2.374 . S
Eu931 O946 2.473 . S
Eu931 O947 2.480 . S
Eu931 O948 2.430 . S
Eu931 O949 2.670 . S
Eu931 O950 2.394 . S
C932 C930 1.500 . S
C932 C933 1.377 . S
C932 C937 1.377 . S
C933 C932 1.377 . S
C933 C934 1.395 . S
C933 H956 0.931 . S
C934 C933 1.395 . S
C934 C935 1.383 . S
C934 H957 0.931 . S
C935 C934 1.383 . S
C935 C936 1.394 . S
C936 C935 1.394 . S
C936 C937 1.378 . S
C936 H958 0.931 . S
C937 C932 1.377 . S
C937 C936 1.378 . S
C937 H959 0.931 . S
C938 O948 1.259 . S
C938 O949 1.270 . S
C939 O950 1.251 . S
C939 O951 1.251 . S
O940 C920 1.257 . S
O940 Eu921 2.473 . S
O941 C920 1.260 . S
O941 Eu921 2.480 . S
O942 Eu921 2.430 . S
O942 C928 1.259 . S
O943 Eu921 2.670 . S
O943 C928 1.270 . S
O943 Eu931 2.355 . S
O944 Eu921 2.394 . S
O944 C929 1.251 . S
O945 C929 1.251 . S
O945 Eu931 2.374 . S
O946 C930 1.257 . S
O946 Eu931 2.473 . S
O947 C930 1.260 . S
O947 Eu931 2.480 . S
O948 Eu931 2.430 . S
O948 C938 1.259 . S
O949 Eu921 2.355 . S
O949 Eu931 2.670 . S
O949 C938 1.270 . S
O950 Eu931 2.394 . S
O950 C939 1.251 . S
O951 Eu921 2.374 . S
O951 C939 1.251 . S
H952 C923 0.931 . S
H953 C924 0.931 . S
H954 C926 0.931 . S
H955 C927 0.931 . S
H956 C933 0.931 . S
H957 C934 0.931 . S
H958 C936 0.931 . S
H959 C937 0.931 . S
C960 Eu961 2.835 . S
C960 C962 1.500 . S
C960 O980 1.257 . S
C960 O981 1.260 . S
Eu961 C960 2.835 . S
Eu961 O980 2.473 . S
Eu961 O981 2.480 . S
Eu961 O982 2.430 . S
Eu961 O983 2.670 . S
Eu961 O984 2.394 . S
Eu961 O989 2.355 . S
Eu961 O991 2.374 . S
C962 C960 1.500 . S
C962 C963 1.377 . S
C962 C967 1.377 . S
C963 C962 1.377 . S
C963 C964 1.395 . S
C963 H992 0.931 . S
C964 C963 1.395 . S
C964 C965 1.383 . S
C964 H993 0.931 . S
C965 C964 1.383 . S
C965 C966 1.394 . S
C966 C965 1.394 . S
C966 C967 1.378 . S
C966 H994 0.931 . S
C967 C962 1.377 . S
C967 C966 1.378 . S
C967 H995 0.931 . S
C968 O982 1.259 . S
C968 O983 1.270 . S
C969 O984 1.251 . S
C969 O985 1.251 . S
C970 Eu971 2.835 . S
C970 C972 1.500 . S
C970 O986 1.257 . S
C970 O987 1.260 . S
Eu971 C970 2.835 . S
Eu971 O983 2.355 . S
Eu971 O985 2.374 . S
Eu971 O986 2.473 . S
Eu971 O987 2.480 . S
Eu971 O988 2.430 . S
Eu971 O989 2.670 . S
Eu971 O990 2.394 . S
C972 C970 1.500 . S
C972 C973 1.377 1_554 S
C972 C977 1.377 1_554 S
C973 C972 1.377 1_556 S
C973 C974 1.395 . S
C973 H996 0.931 . S
C974 C973 1.395 . S
C974 C975 1.383 . S
C974 H997 0.931 . S
C975 C974 1.383 . S
C975 C976 1.394 . S
C976 C975 1.394 . S
C976 C977 1.378 . S
C976 H998 0.931 . S
C977 C972 1.377 1_556 S
C977 C976 1.378 . S
C977 H999 0.931 . S
C978 O988 1.259 . S
C978 O989 1.270 . S
C979 O990 1.251 . S
C979 O991 1.251 . S
O980 C960 1.257 . S
O980 Eu961 2.473 . S
O981 C960 1.260 . S
O981 Eu961 2.480 . S
O982 Eu961 2.430 . S
O982 C968 1.259 . S
O983 Eu961 2.670 . S
O983 C968 1.270 . S
O983 Eu971 2.355 . S
O984 Eu961 2.394 . S
O984 C969 1.251 . S
O985 C969 1.251 . S
O985 Eu971 2.374 . S
O986 C970 1.257 . S
O986 Eu971 2.473 . S
O987 C970 1.260 . S
O987 Eu971 2.480 . S
O988 Eu971 2.430 . S
O988 C978 1.259 . S
O989 Eu961 2.355 . S
O989 Eu971 2.670 . S
O989 C978 1.270 . S
O990 Eu971 2.394 . S
O990 C979 1.251 . S
O991 Eu961 2.374 . S
O991 C979 1.251 . S
H992 C963 0.931 . S
H993 C964 0.931 . S
H994 C966 0.931 . S
H995 C967 0.931 . S
H996 C973 0.931 . S
H997 C974 0.931 . S
H998 C976 0.931 . S
H999 C977 0.931 . S
C1000 Eu1001 2.835 . S
C1000 C1002 1.500 . S
C1000 O1020 1.257 . S
C1000 O1021 1.260 . S
Eu1001 C1000 2.835 . S
Eu1001 O1020 2.473 . S
Eu1001 O1021 2.480 . S
Eu1001 O1022 2.430 . S
Eu1001 O1023 2.670 . S
Eu1001 O1024 2.394 . S
Eu1001 O1029 2.355 . S
Eu1001 O1031 2.374 . S
C1002 C1000 1.500 . S
C1002 C1003 1.377 . S
C1002 C1007 1.377 . S
C1003 C1002 1.377 . S
C1003 C1004 1.395 . S
C1003 H1032 0.931 . S
C1004 C1003 1.395 . S
C1004 C1005 1.383 . S
C1004 H1033 0.931 . S
C1005 C1004 1.383 . S
C1005 C1006 1.394 . S
C1006 C1005 1.394 . S
C1006 C1007 1.378 . S
C1006 H1034 0.931 . S
C1007 C1002 1.377 . S
C1007 C1006 1.378 . S
C1007 H1035 0.931 . S
C1008 O1022 1.259 . S
C1008 O1023 1.270 . S
C1009 O1024 1.251 . S
C1009 O1025 1.251 . S
C1010 Eu1011 2.835 . S
C1010 C1012 1.500 . S
C1010 O1026 1.257 . S
C1010 O1027 1.260 . S
Eu1011 C1010 2.835 . S
Eu1011 O1023 2.355 . S
Eu1011 O1025 2.374 . S
Eu1011 O1026 2.473 . S
Eu1011 O1027 2.480 . S
Eu1011 O1028 2.430 . S
Eu1011 O1029 2.670 . S
Eu1011 O1030 2.394 . S
C1012 C1010 1.500 . S
C1012 C1013 1.377 1_554 S
C1012 C1017 1.377 1_554 S
C1013 C1012 1.377 1_556 S
C1013 C1014 1.395 . S
C1013 H1036 0.931 . S
C1014 C1013 1.395 . S
C1014 C1015 1.383 . S
C1014 H1037 0.931 . S
C1015 C1014 1.383 . S
C1015 C1016 1.394 . S
C1016 C1015 1.394 . S
C1016 C1017 1.378 . S
C1016 H1038 0.931 . S
C1017 C1012 1.377 1_556 S
C1017 C1016 1.378 . S
C1017 H1039 0.931 . S
C1018 O1028 1.259 . S
C1018 O1029 1.270 . S
C1019 O1030 1.251 . S
C1019 O1031 1.251 . S
O1020 C1000 1.257 . S
O1020 Eu1001 2.473 . S
O1021 C1000 1.260 . S
O1021 Eu1001 2.480 . S
O1022 Eu1001 2.430 . S
O1022 C1008 1.259 . S
O1023 Eu1001 2.670 . S
O1023 C1008 1.270 . S
O1023 Eu1011 2.355 . S
O1024 Eu1001 2.394 . S
O1024 C1009 1.251 . S
O1025 C1009 1.251 . S
O1025 Eu1011 2.374 . S
O1026 C1010 1.257 . S
O1026 Eu1011 2.473 . S
O1027 C1010 1.260 . S
O1027 Eu1011 2.480 . S
O1028 Eu1011 2.430 . S
O1028 C1018 1.259 . S
O1029 Eu1001 2.355 . S
O1029 Eu1011 2.670 . S
O1029 C1018 1.270 . S
O1030 Eu1011 2.394 . S
O1030 C1019 1.251 . S
O1031 Eu1001 2.374 . S
O1031 C1019 1.251 . S
H1032 C1003 0.931 . S
H1033 C1004 0.931 . S
H1034 C1006 0.931 . S
H1035 C1007 0.931 . S
H1036 C1013 0.931 . S
H1037 C1014 0.931 . S
H1038 C1016 0.931 . S
H1039 C1017 0.931 . S
C1040 Eu1041 2.835 . S
C1040 C1042 1.500 . S
C1040 O1060 1.257 . S
C1040 O1061 1.260 . S
Eu1041 C1040 2.835 . S
Eu1041 O1060 2.473 . S
Eu1041 O1061 2.480 . S
Eu1041 O1062 2.430 1_556 S
Eu1041 O1063 2.670 1_556 S
Eu1041 O1064 2.394 . S
Eu1041 O1069 2.355 . S
Eu1041 O1071 2.374 1_556 S
C1042 C1040 1.500 . S
C1042 C1043 1.377 . S
C1042 C1047 1.377 . S
C1043 C1042 1.377 . S
C1043 C1044 1.395 . S
C1043 H1072 0.931 . S
C1044 C1043 1.395 . S
C1044 C1045 1.383 . S
C1044 H1073 0.931 . S
C1045 C1044 1.383 . S
C1045 C1046 1.394 . S
C1046 C1045 1.394 . S
C1046 C1047 1.378 . S
C1046 H1074 0.931 . S
C1047 C1042 1.377 . S
C1047 C1046 1.378 . S
C1047 H1075 0.931 . S
C1048 O1062 1.259 . S
C1048 O1063 1.270 . S
C1049 O1064 1.251 . S
C1049 O1065 1.251 1_556 S
C1050 Eu1051 2.835 . S
C1050 C1052 1.500 . S
C1050 O1066 1.257 . S
C1050 O1067 1.260 . S
Eu1051 C1050 2.835 . S
Eu1051 O1063 2.355 . S
Eu1051 O1065 2.374 . S
Eu1051 O1066 2.473 . S
Eu1051 O1067 2.480 . S
Eu1051 O1068 2.430 . S
Eu1051 O1069 2.670 1_554 S
Eu1051 O1070 2.394 . S
C1052 C1050 1.500 . S
C1052 C1053 1.377 . S
C1052 C1057 1.377 . S
C1053 C1052 1.377 . S
C1053 C1054 1.395 . S
C1053 H1076 0.931 . S
C1054 C1053 1.395 . S
C1054 C1055 1.383 . S
C1054 H1077 0.931 . S
C1055 C1054 1.383 . S
C1055 C1056 1.394 . S
C1056 C1055 1.394 . S
C1056 C1057 1.378 . S
C1056 H1078 0.931 . S
C1057 C1052 1.377 . S
C1057 C1056 1.378 . S
C1057 H1079 0.931 . S
C1058 O1068 1.259 . S
C1058 O1069 1.270 1_554 S
C1059 O1070 1.251 . S
C1059 O1071 1.251 . S
O1060 C1040 1.257 . S
O1060 Eu1041 2.473 . S
O1061 C1040 1.260 . S
O1061 Eu1041 2.480 . S
O1062 Eu1041 2.430 1_554 S
O1062 C1048 1.259 . S
O1063 Eu1041 2.670 1_554 S
O1063 C1048 1.270 . S
O1063 Eu1051 2.355 . S
O1064 Eu1041 2.394 . S
O1064 C1049 1.251 . S
O1065 C1049 1.251 1_554 S
O1065 Eu1051 2.374 . S
O1066 C1050 1.257 . S
O1066 Eu1051 2.473 . S
O1067 C1050 1.260 . S
O1067 Eu1051 2.480 . S
O1068 Eu1051 2.430 . S
O1068 C1058 1.259 . S
O1069 Eu1041 2.355 . S
O1069 Eu1051 2.670 1_556 S
O1069 C1058 1.270 1_556 S
O1070 Eu1051 2.394 . S
O1070 C1059 1.251 . S
O1071 Eu1041 2.374 1_554 S
O1071 C1059 1.251 . S
H1072 C1043 0.931 . S
H1073 C1044 0.931 . S
H1074 C1046 0.931 . S
H1075 C1047 0.931 . S
H1076 C1053 0.931 . S
H1077 C1054 0.931 . S
H1078 C1056 0.931 . S
H1079 C1057 0.931 . S
C1080 Eu1081 2.835 . S
C1080 C1082 1.500 . S
C1080 O1100 1.257 . S
C1080 O1101 1.260 . S
Eu1081 C1080 2.835 . S
Eu1081 O1100 2.473 . S
Eu1081 O1101 2.480 . S
Eu1081 O1102 2.430 1_556 S
Eu1081 O1103 2.670 1_556 S
Eu1081 O1104 2.394 . S
Eu1081 O1109 2.355 . S
Eu1081 O1111 2.374 1_556 S
C1082 C1080 1.500 . S
C1082 C1083 1.377 . S
C1082 C1087 1.377 . S
C1083 C1082 1.377 . S
C1083 C1084 1.395 . S
C1083 H1112 0.931 . S
C1084 C1083 1.395 . S
C1084 C1085 1.383 . S
C1084 H1113 0.931 . S
C1085 C1084 1.383 . S
C1085 C1086 1.394 . S
C1086 C1085 1.394 . S
C1086 C1087 1.378 . S
C1086 H1114 0.931 . S
C1087 C1082 1.377 . S
C1087 C1086 1.378 . S
C1087 H1115 0.931 . S
C1088 O1102 1.259 . S
C1088 O1103 1.270 . S
C1089 O1104 1.251 . S
C1089 O1105 1.251 1_556 S
C1090 Eu1091 2.835 . S
C1090 C1092 1.500 . S
C1090 O1106 1.257 . S
C1090 O1107 1.260 . S
Eu1091 C1090 2.835 . S
Eu1091 O1103 2.355 . S
Eu1091 O1105 2.374 . S
Eu1091 O1106 2.473 . S
Eu1091 O1107 2.480 . S
Eu1091 O1108 2.430 . S
Eu1091 O1109 2.670 1_554 S
Eu1091 O1110 2.394 . S
C1092 C1090 1.500 . S
C1092 C1093 1.377 . S
C1092 C1097 1.377 . S
C1093 C1092 1.377 . S
C1093 C1094 1.395 . S
C1093 H1116 0.931 . S
C1094 C1093 1.395 . S
C1094 C1095 1.383 . S
C1094 H1117 0.931 . S
C1095 C1094 1.383 . S
C1095 C1096 1.394 . S
C1096 C1095 1.394 . S
C1096 C1097 1.378 . S
C1096 H1118 0.931 . S
C1097 C1092 1.377 . S
C1097 C1096 1.378 . S
C1097 H1119 0.931 . S
C1098 O1108 1.259 . S
C1098 O1109 1.270 1_554 S
C1099 O1110 1.251 . S
C1099 O1111 1.251 . S
O1100 C1080 1.257 . S
O1100 Eu1081 2.473 . S
O1101 C1080 1.260 . S
O1101 Eu1081 2.480 . S
O1102 Eu1081 2.430 1_554 S
O1102 C1088 1.259 . S
O1103 Eu1081 2.670 1_554 S
O1103 C1088 1.270 . S
O1103 Eu1091 2.355 . S
O1104 Eu1081 2.394 . S
O1104 C1089 1.251 . S
O1105 C1089 1.251 1_554 S
O1105 Eu1091 2.374 . S
O1106 C1090 1.257 . S
O1106 Eu1091 2.473 . S
O1107 C1090 1.260 . S
O1107 Eu1091 2.480 . S
O1108 Eu1091 2.430 . S
O1108 C1098 1.259 . S
O1109 Eu1081 2.355 . S
O1109 Eu1091 2.670 1_556 S
O1109 C1098 1.270 1_556 S
O1110 Eu1091 2.394 . S
O1110 C1099 1.251 . S
O1111 Eu1081 2.374 1_554 S
O1111 C1099 1.251 . S
H1112 C1083 0.931 . S
H1113 C1084 0.931 . S
H1114 C1086 0.931 . S
H1115 C1087 0.931 . S
H1116 C1093 0.931 . S
H1117 C1094 0.931 . S
H1118 C1096 0.931 . S
H1119 C1097 0.931 . S
C1120 Eu1121 2.835 . S
C1120 C1122 1.500 . S
C1120 O1140 1.257 . S
C1120 O1141 1.260 . S
Eu1121 C1120 2.835 . S
Eu1121 O1140 2.473 . S
Eu1121 O1141 2.480 . S
Eu1121 O1142 2.430 . S
Eu1121 O1143 2.670 . S
Eu1121 O1144 2.394 . S
Eu1121 O1149 2.355 . S
Eu1121 O1151 2.374 . S
C1122 C1120 1.500 . S
C1122 C1123 1.377 1_556 S
C1122 C1127 1.377 1_556 S
C1123 C1122 1.377 1_554 S
C1123 C1124 1.395 . S
C1123 H1152 0.931 . S
C1124 C1123 1.395 . S
C1124 C1125 1.383 . S
C1124 H1153 0.931 . S
C1125 C1124 1.383 . S
C1125 C1126 1.394 . S
C1126 C1125 1.394 . S
C1126 C1127 1.378 . S
C1126 H1154 0.931 . S
C1127 C1122 1.377 1_554 S
C1127 C1126 1.378 . S
C1127 H1155 0.931 . S
C1128 O1142 1.259 . S
C1128 O1143 1.270 . S
C1129 O1144 1.251 . S
C1129 O1145 1.251 . S
C1130 Eu1131 2.835 . S
C1130 C1132 1.500 . S
C1130 O1146 1.257 . S
C1130 O1147 1.260 . S
Eu1131 C1130 2.835 . S
Eu1131 O1143 2.355 . S
Eu1131 O1145 2.374 . S
Eu1131 O1146 2.473 . S
Eu1131 O1147 2.480 . S
Eu1131 O1148 2.430 . S
Eu1131 O1149 2.670 . S
Eu1131 O1150 2.394 . S
C1132 C1130 1.500 . S
C1132 C1133 1.377 . S
C1132 C1137 1.377 . S
C1133 C1132 1.377 . S
C1133 C1134 1.395 . S
C1133 H1156 0.931 . S
C1134 C1133 1.395 . S
C1134 C1135 1.383 . S
C1134 H1157 0.931 . S
C1135 C1134 1.383 . S
C1135 C1136 1.394 . S
C1136 C1135 1.394 . S
C1136 C1137 1.378 . S
C1136 H1158 0.931 . S
C1137 C1132 1.377 . S
C1137 C1136 1.378 . S
C1137 H1159 0.931 . S
C1138 O1148 1.259 . S
C1138 O1149 1.270 . S
C1139 O1150 1.251 . S
C1139 O1151 1.251 . S
O1140 C1120 1.257 . S
O1140 Eu1121 2.473 . S
O1141 C1120 1.260 . S
O1141 Eu1121 2.480 . S
O1142 Eu1121 2.430 . S
O1142 C1128 1.259 . S
O1143 Eu1121 2.670 . S
O1143 C1128 1.270 . S
O1143 Eu1131 2.355 . S
O1144 Eu1121 2.394 . S
O1144 C1129 1.251 . S
O1145 C1129 1.251 . S
O1145 Eu1131 2.374 . S
O1146 C1130 1.257 . S
O1146 Eu1131 2.473 . S
O1147 C1130 1.260 . S
O1147 Eu1131 2.480 . S
O1148 Eu1131 2.430 . S
O1148 C1138 1.259 . S
O1149 Eu1121 2.355 . S
O1149 Eu1131 2.670 . S
O1149 C1138 1.270 . S
O1150 Eu1131 2.394 . S
O1150 C1139 1.251 . S
O1151 Eu1121 2.374 . S
O1151 C1139 1.251 . S
H1152 C1123 0.931 . S
H1153 C1124 0.931 . S
H1154 C1126 0.931 . S
H1155 C1127 0.931 . S
H1156 C1133 0.931 . S
H1157 C1134 0.931 . S
H1158 C1136 0.931 . S
H1159 C1137 0.931 . S
C1160 Eu1161 2.835 . S
C1160 C1162 1.500 . S
C1160 O1180 1.257 . S
C1160 O1181 1.260 . S
Eu1161 C1160 2.835 . S
Eu1161 O1180 2.473 . S
Eu1161 O1181 2.480 . S
Eu1161 O1182 2.430 . S
Eu1161 O1183 2.670 . S
Eu1161 O1184 2.394 . S
Eu1161 O1189 2.355 . S
Eu1161 O1191 2.374 . S
C1162 C1160 1.500 . S
C1162 C1163 1.377 1_556 S
C1162 C1167 1.377 1_556 S
C1163 C1162 1.377 1_554 S
C1163 C1164 1.395 . S
C1163 H1192 0.931 . S
C1164 C1163 1.395 . S
C1164 C1165 1.383 . S
C1164 H1193 0.931 . S
C1165 C1164 1.383 . S
C1165 C1166 1.394 . S
C1166 C1165 1.394 . S
C1166 C1167 1.378 . S
C1166 H1194 0.931 . S
C1167 C1162 1.377 1_554 S
C1167 C1166 1.378 . S
C1167 H1195 0.931 . S
C1168 O1182 1.259 . S
C1168 O1183 1.270 . S
C1169 O1184 1.251 . S
C1169 O1185 1.251 . S
C1170 Eu1171 2.835 . S
C1170 C1172 1.500 . S
C1170 O1186 1.257 . S
C1170 O1187 1.260 . S
Eu1171 C1170 2.835 . S
Eu1171 O1183 2.355 . S
Eu1171 O1185 2.374 . S
Eu1171 O1186 2.473 . S
Eu1171 O1187 2.480 . S
Eu1171 O1188 2.430 . S
Eu1171 O1189 2.670 . S
Eu1171 O1190 2.394 . S
C1172 C1170 1.500 . S
C1172 C1173 1.377 . S
C1172 C1177 1.377 . S
C1173 C1172 1.377 . S
C1173 C1174 1.395 . S
C1173 H1196 0.931 . S
C1174 C1173 1.395 . S
C1174 C1175 1.383 . S
C1174 H1197 0.931 . S
C1175 C1174 1.383 . S
C1175 C1176 1.394 . S
C1176 C1175 1.394 . S
C1176 C1177 1.378 . S
C1176 H1198 0.931 . S
C1177 C1172 1.377 . S
C1177 C1176 1.378 . S
C1177 H1199 0.931 . S
C1178 O1188 1.259 . S
C1178 O1189 1.270 . S
C1179 O1190 1.251 . S
C1179 O1191 1.251 . S
O1180 C1160 1.257 . S
O1180 Eu1161 2.473 . S
O1181 C1160 1.260 . S
O1181 Eu1161 2.480 . S
O1182 Eu1161 2.430 . S
O1182 C1168 1.259 . S
O1183 Eu1161 2.670 . S
O1183 C1168 1.270 . S
O1183 Eu1171 2.355 . S
O1184 Eu1161 2.394 . S
O1184 C1169 1.251 . S
O1185 C1169 1.251 . S
O1185 Eu1171 2.374 . S
O1186 C1170 1.257 . S
O1186 Eu1171 2.473 . S
O1187 C1170 1.260 . S
O1187 Eu1171 2.480 . S
O1188 Eu1171 2.430 . S
O1188 C1178 1.259 . S
O1189 Eu1161 2.355 . S
O1189 Eu1171 2.670 . S
O1189 C1178 1.270 . S
O1190 Eu1171 2.394 . S
O1190 C1179 1.251 . S
O1191 Eu1161 2.374 . S
O1191 C1179 1.251 . S
H1192 C1163 0.931 . S
H1193 C1164 0.931 . S
H1194 C1166 0.931 . S
H1195 C1167 0.931 . S
H1196 C1173 0.931 . S
H1197 C1174 0.931 . S
H1198 C1176 0.931 . S
H1199 C1177 0.931 . S
C1200 Eu1201 2.835 . S
C1200 C1202 1.500 . S
C1200 O1220 1.257 . S
C1200 O1221 1.260 . S
Eu1201 C1200 2.835 . S
Eu1201 O1220 2.473 . S
Eu1201 O1221 2.480 . S
Eu1201 O1222 2.430 . S
Eu1201 O1223 2.670 1_556 S
Eu1201 O1224 2.394 . S
Eu1201 O1229 2.355 . S
Eu1201 O1231 2.374 . S
C1202 C1200 1.500 . S
C1202 C1203 1.377 . S
C1202 C1207 1.377 . S
C1203 C1202 1.377 . S
C1203 C1204 1.395 . S
C1203 H1232 0.931 . S
C1204 C1203 1.395 . S
C1204 C1205 1.383 . S
C1204 H1233 0.931 . S
C1205 C1204 1.383 . S
C1205 C1206 1.394 . S
C1206 C1205 1.394 . S
C1206 C1207 1.378 . S
C1206 H1234 0.931 . S
C1207 C1202 1.377 . S
C1207 C1206 1.378 . S
C1207 H1235 0.931 . S
C1208 O1222 1.259 . S
C1208 O1223 1.270 1_556 S
C1209 O1224 1.251 . S
C1209 O1225 1.251 . S
C1210 Eu1211 2.835 . S
C1210 C1212 1.500 . S
C1210 O1226 1.257 . S
C1210 O1227 1.260 . S
Eu1211 C1210 2.835 . S
Eu1211 O1223 2.355 . S
Eu1211 O1225 2.374 1_554 S
Eu1211 O1226 2.473 . S
Eu1211 O1227 2.480 . S
Eu1211 O1228 2.430 1_554 S
Eu1211 O1229 2.670 1_554 S
Eu1211 O1230 2.394 . S
C1212 C1210 1.500 . S
C1212 C1213 1.377 . S
C1212 C1217 1.377 . S
C1213 C1212 1.377 . S
C1213 C1214 1.395 . S
C1213 H1236 0.931 . S
C1214 C1213 1.395 . S
C1214 C1215 1.383 . S
C1214 H1237 0.931 . S
C1215 C1214 1.383 . S
C1215 C1216 1.394 . S
C1216 C1215 1.394 . S
C1216 C1217 1.378 . S
C1216 H1238 0.931 . S
C1217 C1212 1.377 . S
C1217 C1216 1.378 . S
C1217 H1239 0.931 . S
C1218 O1228 1.259 . S
C1218 O1229 1.270 . S
C1219 O1230 1.251 . S
C1219 O1231 1.251 1_554 S
O1220 C1200 1.257 . S
O1220 Eu1201 2.473 . S
O1221 C1200 1.260 . S
O1221 Eu1201 2.480 . S
O1222 Eu1201 2.430 . S
O1222 C1208 1.259 . S
O1223 Eu1201 2.670 1_554 S
O1223 C1208 1.270 1_554 S
O1223 Eu1211 2.355 . S
O1224 Eu1201 2.394 . S
O1224 C1209 1.251 . S
O1225 C1209 1.251 . S
O1225 Eu1211 2.374 1_556 S
O1226 C1210 1.257 . S
O1226 Eu1211 2.473 . S
O1227 C1210 1.260 . S
O1227 Eu1211 2.480 . S
O1228 Eu1211 2.430 1_556 S
O1228 C1218 1.259 . S
O1229 Eu1201 2.355 . S
O1229 Eu1211 2.670 1_556 S
O1229 C1218 1.270 . S
O1230 Eu1211 2.394 . S
O1230 C1219 1.251 . S
O1231 Eu1201 2.374 . S
O1231 C1219 1.251 1_556 S
H1232 C1203 0.931 . S
H1233 C1204 0.931 . S
H1234 C1206 0.931 . S
H1235 C1207 0.931 . S
H1236 C1213 0.931 . S
H1237 C1214 0.931 . S
H1238 C1216 0.931 . S
H1239 C1217 0.931 . S
C1240 Eu1241 2.835 . S
C1240 C1242 1.500 . S
C1240 O1260 1.257 . S
C1240 O1261 1.260 . S
Eu1241 C1240 2.835 . S
Eu1241 O1260 2.473 . S
Eu1241 O1261 2.480 . S
Eu1241 O1262 2.430 . S
Eu1241 O1263 2.670 1_556 S
Eu1241 O1264 2.394 . S
Eu1241 O1269 2.355 . S
Eu1241 O1271 2.374 . S
C1242 C1240 1.500 . S
C1242 C1243 1.377 . S
C1242 C1247 1.377 . S
C1243 C1242 1.377 . S
C1243 C1244 1.395 . S
C1243 H1272 0.931 . S
C1244 C1243 1.395 . S
C1244 C1245 1.383 . S
C1244 H1273 0.931 . S
C1245 C1244 1.383 . S
C1245 C1246 1.394 . S
C1246 C1245 1.394 . S
C1246 C1247 1.378 . S
C1246 H1274 0.931 . S
C1247 C1242 1.377 . S
C1247 C1246 1.378 . S
C1247 H1275 0.931 . S
C1248 O1262 1.259 . S
C1248 O1263 1.270 1_556 S
C1249 O1264 1.251 . S
C1249 O1265 1.251 . S
C1250 Eu1251 2.835 . S
C1250 C1252 1.500 . S
C1250 O1266 1.257 . S
C1250 O1267 1.260 . S
Eu1251 C1250 2.835 . S
Eu1251 O1263 2.355 . S
Eu1251 O1265 2.374 1_554 S
Eu1251 O1266 2.473 . S
Eu1251 O1267 2.480 . S
Eu1251 O1268 2.430 1_554 S
Eu1251 O1269 2.670 1_554 S
Eu1251 O1270 2.394 . S
C1252 C1250 1.500 . S
C1252 C1253 1.377 . S
C1252 C1257 1.377 . S
C1253 C1252 1.377 . S
C1253 C1254 1.395 . S
C1253 H1276 0.931 . S
C1254 C1253 1.395 . S
C1254 C1255 1.383 . S
C1254 H1277 0.931 . S
C1255 C1254 1.383 . S
C1255 C1256 1.394 . S
C1256 C1255 1.394 . S
C1256 C1257 1.378 . S
C1256 H1278 0.931 . S
C1257 C1252 1.377 . S
C1257 C1256 1.378 . S
C1257 H1279 0.931 . S
C1258 O1268 1.259 . S
C1258 O1269 1.270 . S
C1259 O1270 1.251 . S
C1259 O1271 1.251 1_554 S
O1260 C1240 1.257 . S
O1260 Eu1241 2.473 . S
O1261 C1240 1.260 . S
O1261 Eu1241 2.480 . S
O1262 Eu1241 2.430 . S
O1262 C1248 1.259 . S
O1263 Eu1241 2.670 1_554 S
O1263 C1248 1.270 1_554 S
O1263 Eu1251 2.355 . S
O1264 Eu1241 2.394 . S
O1264 C1249 1.251 . S
O1265 C1249 1.251 . S
O1265 Eu1251 2.374 1_556 S
O1266 C1250 1.257 . S
O1266 Eu1251 2.473 . S
O1267 C1250 1.260 . S
O1267 Eu1251 2.480 . S
O1268 Eu1251 2.430 1_556 S
O1268 C1258 1.259 . S
O1269 Eu1241 2.355 . S
O1269 Eu1251 2.670 1_556 S
O1269 C1258 1.270 . S
O1270 Eu1251 2.394 . S
O1270 C1259 1.251 . S
O1271 Eu1241 2.374 . S
O1271 C1259 1.251 1_556 S
H1272 C1243 0.931 . S
H1273 C1244 0.931 . S
H1274 C1246 0.931 . S
H1275 C1247 0.931 . S
H1276 C1253 0.931 . S
H1277 C1254 0.931 . S
H1278 C1256 0.931 . S
H1279 C1257 0.931 . S
H1280 C1288 0.950 . S
H1281 C1293 0.950 . S
H1282 C1290 0.950 . S
H1283 C1292 0.950 . S
H1284 C1294 0.950 . S
H1285 C1296 0.939 1_556 S
H1286 C1298 0.950 . S
H1287 C1299 0.950 . S
C1288 H1280 0.950 . S
C1288 C1289 1.386 . S
C1288 C1290 1.391 . S
C1289 C1288 1.386 . S
C1289 C1293 1.393 . S
C1290 H1282 0.950 . S
C1290 C1288 1.391 . S
C1290 C1291 1.400 . S
C1291 C1290 1.400 . S
C1291 C1292 1.398 . S
C1291 C1297 1.491 1_556 S
C1292 H1283 0.950 . S
C1292 C1291 1.398 . S
C1292 C1293 1.391 . S
C1293 H1281 0.950 . S
C1293 C1289 1.393 . S
C1293 C1292 1.391 . S
C1294 H1284 0.950 . S
C1294 C1295 1.386 . S
C1294 C1296 1.391 . S
C1295 C1294 1.386 . S
C1295 C1299 1.393 . S
C1296 H1285 0.939 1_554 S
C1296 C1294 1.391 . S
C1296 C1297 1.400 . S
C1297 C1291 1.491 1_554 S
C1297 C1296 1.400 . S
C1297 C1298 1.398 . S
C1298 H1286 0.950 . S
C1298 C1297 1.398 . S
C1298 C1299 1.391 . S
C1299 H1287 0.950 . S
C1299 C1295 1.393 . S
C1299 C1298 1.391 . S
H1300 C1308 0.950 . S
H1301 C1313 0.950 . S
H1302 C1310 0.950 . S
H1303 C1312 0.901 1_655 S
H1304 C1314 0.950 . S
H1305 C1316 0.950 . S
H1306 C1318 0.901 1_455 S
H1307 C1319 0.950 . S
C1308 H1300 0.950 . S
C1308 C1309 1.386 1_565 S
C1308 C1310 1.391 . S
C1309 C1308 1.386 1_545 S
C1309 C1313 1.393 . S
C1310 H1302 0.950 . S
C1310 C1308 1.391 . S
C1310 C1311 1.400 1_565 S
C1311 C1310 1.400 1_545 S
C1311 C1312 1.415 . S
C1311 C1317 1.491 1_446 S
C1312 H1303 0.901 1_455 S
C1312 C1311 1.415 . S
C1312 C1313 1.425 . S
C1313 H1301 0.950 . S
C1313 C1309 1.393 . S
C1313 C1312 1.425 . S
C1314 H1304 0.950 . S
C1314 C1315 1.386 1_545 S
C1314 C1316 1.391 . S
C1315 C1314 1.386 1_565 S
C1315 C1319 1.393 . S
C1316 H1305 0.950 . S
C1316 C1314 1.391 . S
C1316 C1317 1.400 1_545 S
C1317 C1311 1.491 1_664 S
C1317 C1316 1.400 1_565 S
C1317 C1318 1.415 . S
C1318 H1306 0.901 1_655 S
C1318 C1317 1.415 . S
C1318 C1319 1.425 . S
C1319 H1307 0.950 . S
C1319 C1315 1.393 . S
C1319 C1318 1.425 . S
H1320 C1328 0.950 . S
H1321 C1333 0.950 . S
H1322 C1330 0.950 . S
H1323 C1332 0.950 . S
H1324 C1334 0.950 . S
H1325 C1336 0.950 . S
H1326 C1338 0.950 . S
H1327 C1339 0.950 . S
C1328 H1320 0.950 . S
C1328 C1329 1.386 1_565 S
C1328 C1330 1.391 . S
C1329 C1328 1.386 1_545 S
C1329 C1333 1.393 . S
C1330 H1322 0.950 . S
C1330 C1328 1.391 . S
C1330 C1331 1.400 1_565 S
C1331 C1330 1.400 1_545 S
C1331 C1332 1.398 . S
C1331 C1337 1.491 1_545 S
C1332 H1323 0.950 . S
C1332 C1331 1.398 . S
C1332 C1333 1.391 . S
C1333 H1321 0.950 . S
C1333 C1329 1.393 . S
C1333 C1332 1.391 . S
C1334 H1324 0.950 . S
C1334 C1335 1.386 1_545 S
C1334 C1336 1.391 . S
C1335 C1334 1.386 1_565 S
C1335 C1339 1.393 . S
C1336 H1325 0.950 . S
C1336 C1334 1.391 . S
C1336 C1337 1.400 1_545 S
C1337 C1331 1.491 1_565 S
C1337 C1336 1.400 1_565 S
C1337 C1338 1.398 . S
C1338 H1326 0.950 . S
C1338 C1337 1.398 . S
C1338 C1339 1.391 . S
C1339 H1327 0.950 . S
C1339 C1335 1.393 . S
C1339 C1338 1.391 . S
H1340 C1348 0.950 . S
H1341 C1353 0.950 . S
H1342 C1350 0.950 . S
H1343 C1352 0.950 1_655 S
H1344 C1354 0.950 . S
H1345 C1356 0.950 . S
H1346 C1358 0.950 1_455 S
H1347 C1359 0.950 . S
C1348 H1340 0.950 . S
C1348 C1349 1.386 . S
C1348 C1350 1.391 . S
C1349 C1348 1.386 . S
C1349 C1353 1.393 . S
C1350 H1342 0.950 . S
C1350 C1348 1.391 . S
C1350 C1351 1.400 . S
C1351 C1350 1.400 . S
C1351 C1352 1.398 . S
C1351 C1357 1.491 1_455 S
C1352 H1343 0.950 1_455 S
C1352 C1351 1.398 . S
C1352 C1353 1.391 . S
C1353 H1341 0.950 . S
C1353 C1349 1.393 . S
C1353 C1352 1.391 . S
C1354 H1344 0.950 . S
C1354 C1355 1.386 . S
C1354 C1356 1.391 . S
C1355 C1354 1.386 . S
C1355 C1359 1.393 . S
C1356 H1345 0.950 . S
C1356 C1354 1.391 . S
C1356 C1357 1.400 . S
C1357 C1351 1.491 1_655 S
C1357 C1356 1.400 . S
C1357 C1358 1.398 . S
C1358 H1346 0.950 1_655 S
C1358 C1357 1.398 . S
C1358 C1359 1.391 . S
C1359 H1347 0.950 . S
C1359 C1355 1.393 . S
C1359 C1358 1.391 . S
H1360 C1368 0.950 . S
H1361 C1373 0.950 . S
H1362 C1370 0.950 . S
H1363 C1372 0.950 . S
H1364 C1374 0.950 . S
H1365 C1376 0.950 . S
H1366 C1378 0.950 . S
H1367 C1379 0.950 . S
C1368 H1360 0.950 . S
C1368 C1369 1.386 . S
C1368 C1370 1.391 . S
C1369 C1368 1.386 . S
C1369 C1373 1.393 . S
C1370 H1362 0.950 . S
C1370 C1368 1.391 . S
C1370 C1371 1.400 . S
C1371 C1370 1.400 . S
C1371 C1372 1.398 . S
C1371 C1377 1.491 1_556 S
C1372 H1363 0.950 . S
C1372 C1371 1.398 . S
C1372 C1373 1.391 . S
C1373 H1361 0.950 . S
C1373 C1369 1.393 . S
C1373 C1372 1.391 . S
C1374 H1364 0.950 . S
C1374 C1375 1.386 . S
C1374 C1376 1.391 . S
C1375 C1374 1.386 . S
C1375 C1379 1.393 . S
C1376 H1365 0.950 . S
C1376 C1374 1.391 . S
C1376 C1377 1.400 . S
C1377 C1371 1.491 1_554 S
C1377 C1376 1.400 . S
C1377 C1378 1.398 . S
C1378 H1366 0.950 . S
C1378 C1377 1.398 . S
C1378 C1379 1.391 . S
C1379 H1367 0.950 . S
C1379 C1375 1.393 . S
C1379 C1378 1.391 . S
H1380 C1388 0.950 . S
H1381 C1393 0.950 . S
H1382 C1390 0.950 . S
H1383 C1392 0.950 . S
H1384 C1394 0.950 . S
H1385 C1396 0.950 . S
H1386 C1398 0.950 . S
H1387 C1399 0.950 . S
C1388 H1380 0.950 . S
C1388 C1389 1.386 1_545 S
C1388 C1390 1.391 . S
C1389 C1388 1.386 1_565 S
C1389 C1393 1.393 . S
C1390 H1382 0.950 . S
C1390 C1388 1.391 . S
C1390 C1391 1.385 1_545 S
C1391 C1390 1.385 1_565 S
C1391 C1392 1.416 . S
C1391 C1397 1.489 1_565 S
C1392 H1383 0.950 . S
C1392 C1391 1.416 . S
C1392 C1393 1.391 . S
C1393 H1381 0.950 . S
C1393 C1389 1.393 . S
C1393 C1392 1.391 . S
C1394 H1384 0.950 . S
C1394 C1395 1.386 1_565 S
C1394 C1396 1.391 . S
C1395 C1394 1.386 1_545 S
C1395 C1399 1.393 . S
C1396 H1385 0.950 . S
C1396 C1394 1.391 . S
C1396 C1397 1.389 1_565 S
C1397 C1391 1.489 1_545 S
C1397 C1396 1.389 1_545 S
C1397 C1398 1.411 . S
C1398 H1386 0.950 . S
C1398 C1397 1.411 . S
C1398 C1399 1.391 . S
C1399 H1387 0.950 . S
C1399 C1395 1.393 . S
C1399 C1398 1.391 . S
H1400 C1408 0.982 . S
H1401 C1413 0.950 . S
H1402 C1410 0.950 . S
H1403 C1412 0.950 . S
H1404 C1414 0.950 . S
H1405 C1416 0.950 . S
H1406 C1418 0.950 . S
H1407 C1419 0.950 . S
C1408 H1400 0.982 . S
C1408 C1409 1.386 . S
C1408 C1410 1.391 1_655 S
C1409 C1408 1.386 . S
C1409 C1413 1.393 . S
C1410 H1402 0.950 . S
C1410 C1408 1.391 1_455 S
C1410 C1411 1.400 1_455 S
C1411 C1410 1.400 1_655 S
C1411 C1412 1.398 . S
C1411 C1417 1.491 1_655 S
C1412 H1403 0.950 . S
C1412 C1411 1.398 . S
C1412 C1413 1.391 . S
C1413 H1401 0.950 . S
C1413 C1409 1.393 . S
C1413 C1412 1.391 . S
C1414 H1404 0.950 . S
C1414 C1415 1.386 . S
C1414 C1416 1.391 1_455 S
C1415 C1414 1.386 . S
C1415 C1419 1.393 . S
C1416 H1405 0.950 . S
C1416 C1414 1.391 1_655 S
C1416 C1417 1.400 1_655 S
C1417 C1411 1.491 1_455 S
C1417 C1416 1.400 1_455 S
C1417 C1418 1.398 . S
C1418 H1406 0.950 . S
C1418 C1417 1.398 . S
C1418 C1419 1.391 . S
C1419 H1407 0.950 . S
C1419 C1415 1.393 . S
C1419 C1418 1.391 . S
H1420 C1428 0.950 . S
H1421 C1433 0.950 . S
H1422 C1430 0.950 . S
H1423 C1432 0.950 . S
H1424 C1434 0.950 . S
H1425 C1436 0.950 . S
H1426 C1438 0.950 . S
H1427 C1439 0.950 . S
C1428 H1420 0.950 . S
C1428 C1429 1.386 . S
C1428 C1430 1.391 . S
C1429 C1428 1.386 . S
C1429 C1433 1.393 . S
C1430 H1422 0.950 . S
C1430 C1428 1.391 . S
C1430 C1431 1.400 . S
C1431 C1430 1.400 . S
C1431 C1432 1.398 . S
C1431 C1437 1.491 . S
C1432 H1423 0.950 . S
C1432 C1431 1.398 . S
C1432 C1433 1.391 . S
C1433 H1421 0.950 . S
C1433 C1429 1.393 . S
C1433 C1432 1.391 . S
C1434 H1424 0.950 . S
C1434 C1435 1.386 . S
C1434 C1436 1.391 . S
C1435 C1434 1.386 . S
C1435 C1439 1.393 . S
C1436 H1425 0.950 . S
C1436 C1434 1.391 . S
C1436 C1437 1.400 . S
C1437 C1431 1.491 . S
C1437 C1436 1.400 . S
C1437 C1438 1.398 . S
C1438 H1426 0.950 . S
C1438 C1437 1.398 . S
C1438 C1439 1.391 . S
C1439 H1427 0.950 . S
C1439 C1435 1.393 . S
C1439 C1438 1.391 . S
H1440 C1448 0.950 . S
H1441 C1453 0.950 . S
H1442 C1450 0.950 . S
H1443 C1452 0.950 . S
H1444 C1454 0.950 . S
H1445 C1456 0.950 . S
H1446 C1458 0.950 . S
H1447 C1459 0.950 . S
C1448 H1440 0.950 . S
C1448 C1449 1.386 . S
C1448 C1450 1.391 1_655 S
C1449 C1448 1.386 . S
C1449 C1453 1.393 . S
C1450 H1442 0.950 . S
C1450 C1448 1.391 1_455 S
C1450 C1451 1.400 1_455 S
C1451 C1450 1.400 1_655 S
C1451 C1452 1.398 . S
C1451 C1457 1.491 1_655 S
C1452 H1443 0.950 . S
C1452 C1451 1.398 . S
C1452 C1453 1.391 . S
C1453 H1441 0.950 . S
C1453 C1449 1.393 . S
C1453 C1452 1.391 . S
C1454 H1444 0.950 . S
C1454 C1455 1.386 . S
C1454 C1456 1.391 1_455 S
C1455 C1454 1.386 . S
C1455 C1459 1.393 . S
C1456 H1445 0.950 . S
C1456 C1454 1.391 1_655 S
C1456 C1457 1.400 1_655 S
C1457 C1451 1.491 1_455 S
C1457 C1456 1.400 1_455 S
C1457 C1458 1.398 . S
C1458 H1446 0.950 . S
C1458 C1457 1.398 . S
C1458 C1459 1.391 . S
C1459 H1447 0.950 . S
C1459 C1455 1.393 . S
C1459 C1458 1.391 . S
H1460 C1468 0.950 . S
H1461 C1473 0.950 . S
H1462 C1470 0.950 . S
H1463 C1472 0.950 . S
H1464 C1474 0.950 . S
H1465 C1476 0.950 . S
H1466 C1478 0.950 . S
H1467 C1479 0.950 . S
C1468 H1460 0.950 . S
C1468 C1469 1.386 . S
C1468 C1470 1.391 . S
C1469 C1468 1.386 . S
C1469 C1473 1.393 . S
C1470 H1462 0.950 . S
C1470 C1468 1.391 . S
C1470 C1471 1.400 . S
C1471 C1470 1.400 . S
C1471 C1472 1.398 . S
C1471 C1477 1.491 . S
C1472 H1463 0.950 . S
C1472 C1471 1.398 . S
C1472 C1473 1.391 . S
C1473 H1461 0.950 . S
C1473 C1469 1.393 . S
C1473 C1472 1.391 . S
C1474 H1464 0.950 . S
C1474 C1475 1.386 . S
C1474 C1476 1.391 . S
C1475 C1474 1.386 . S
C1475 C1479 1.393 . S
C1476 H1465 0.950 . S
C1476 C1474 1.391 . S
C1476 C1477 1.400 . S
C1477 C1471 1.491 . S
C1477 C1476 1.400 . S
C1477 C1478 1.398 . S
C1478 H1466 0.950 . S
C1478 C1477 1.398 . S
C1478 C1479 1.391 . S
C1479 H1467 0.950 . S
C1479 C1475 1.393 . S
C1479 C1478 1.391 . S
H1480 C1488 0.950 . S
H1481 C1493 0.950 . S
H1482 C1490 0.950 . S
H1483 C1492 0.950 . S
H1484 C1494 0.950 . S
H1485 C1496 0.950 . S
H1486 C1498 0.950 . S
H1487 C1499 0.950 . S
C1488 H1480 0.950 . S
C1488 C1489 1.386 . S
C1488 C1490 1.391 . S
C1489 C1488 1.386 . S
C1489 C1493 1.393 . S
C1490 H1482 0.950 . S
C1490 C1488 1.391 . S
C1490 C1491 1.400 . S
C1491 C1490 1.400 . S
C1491 C1492 1.398 . S
C1491 C1497 1.491 . S
C1492 H1483 0.950 . S
C1492 C1491 1.398 . S
C1492 C1493 1.391 . S
C1493 H1481 0.950 . S
C1493 C1489 1.393 . S
C1493 C1492 1.391 . S
C1494 H1484 0.950 . S
C1494 C1495 1.386 . S
C1494 C1496 1.391 . S
C1495 C1494 1.386 . S
C1495 C1499 1.393 . S
C1496 H1485 0.950 . S
C1496 C1494 1.391 . S
C1496 C1497 1.400 . S
C1497 C1491 1.491 . S
C1497 C1496 1.400 . S
C1497 C1498 1.398 . S
C1498 H1486 0.950 . S
C1498 C1497 1.398 . S
C1498 C1499 1.391 . S
C1499 H1487 0.950 . S
C1499 C1495 1.393 . S
C1499 C1498 1.391 . S
H1500 C1508 0.950 . S
H1501 C1513 0.950 . S
H1502 C1510 0.950 . S
H1503 C1512 0.950 . S
H1504 C1514 0.950 . S
H1505 C1516 0.950 . S
H1506 C1518 0.950 . S
H1507 C1519 0.950 . S
C1508 H1500 0.950 . S
C1508 C1509 1.386 . S
C1508 C1510 1.391 . S
C1509 C1508 1.386 . S
C1509 C1513 1.393 . S
C1510 H1502 0.950 . S
C1510 C1508 1.391 . S
C1510 C1511 1.400 . S
C1511 C1510 1.400 . S
C1511 C1512 1.398 . S
C1511 C1517 1.491 . S
C1512 H1503 0.950 . S
C1512 C1511 1.398 . S
C1512 C1513 1.391 . S
C1513 H1501 0.950 . S
C1513 C1509 1.393 . S
C1513 C1512 1.391 . S
C1514 H1504 0.950 . S
C1514 C1515 1.386 . S
C1514 C1516 1.391 . S
C1515 C1514 1.386 . S
C1515 C1519 1.393 . S
C1516 H1505 0.950 . S
C1516 C1514 1.391 . S
C1516 C1517 1.400 . S
C1517 C1511 1.491 . S
C1517 C1516 1.400 . S
C1517 C1518 1.398 . S
C1518 H1506 0.950 . S
C1518 C1517 1.398 . S
C1518 C1519 1.391 . S
C1519 H1507 0.950 . S
C1519 C1515 1.393 . S
C1519 C1518 1.391 . S
H1520 C1528 0.950 . S
H1521 C1533 0.950 . S
H1522 C1530 0.948 1_545 S
H1523 C1532 0.952 . S
H1524 C1534 0.950 . S
H1525 C1536 0.948 1_565 S
H1526 C1538 0.951 . S
H1527 C1539 0.950 . S
C1528 H1520 0.950 . S
C1528 C1529 1.386 . S
C1528 C1530 1.394 . S
C1529 C1528 1.386 . S
C1529 C1533 1.393 . S
C1530 H1522 0.948 1_565 S
C1530 C1528 1.394 . S
C1530 C1531 1.400 . S
C1531 C1530 1.400 . S
C1531 C1532 1.400 . S
C1531 C1537 1.489 1_565 S
C1532 H1523 0.952 . S
C1532 C1531 1.400 . S
C1532 C1533 1.391 . S
C1533 H1521 0.950 . S
C1533 C1529 1.393 . S
C1533 C1532 1.391 . S
C1534 H1524 0.950 . S
C1534 C1535 1.386 . S
C1534 C1536 1.393 . S
C1535 C1534 1.386 . S
C1535 C1539 1.393 . S
C1536 H1525 0.948 1_545 S
C1536 C1534 1.393 . S
C1536 C1537 1.400 . S
C1537 C1531 1.489 1_545 S
C1537 C1536 1.400 . S
C1537 C1538 1.399 . S
C1538 H1526 0.951 . S
C1538 C1537 1.399 . S
C1538 C1539 1.391 . S
C1539 H1527 0.950 . S
C1539 C1535 1.393 . S
C1539 C1538 1.391 . S
H1540 C1548 0.950 . S
H1541 C1553 0.950 . S
H1542 C1550 0.950 . S
H1543 C1552 0.950 . S
H1544 C1554 0.950 . S
H1545 C1556 0.950 . S
H1546 C1558 0.950 . S
H1547 C1559 0.950 . S
C1548 H1540 0.950 . S
C1548 C1549 1.386 . S
C1548 C1550 1.391 . S
C1549 C1548 1.386 . S
C1549 C1553 1.393 . S
C1550 H1542 0.950 . S
C1550 C1548 1.391 . S
C1550 C1551 1.400 . S
C1551 C1550 1.400 . S
C1551 C1552 1.398 . S
C1551 C1557 1.491 . S
C1552 H1543 0.950 . S
C1552 C1551 1.398 . S
C1552 C1553 1.391 . S
C1553 H1541 0.950 . S
C1553 C1549 1.393 . S
C1553 C1552 1.391 . S
C1554 H1544 0.950 . S
C1554 C1555 1.386 . S
C1554 C1556 1.391 . S
C1555 C1554 1.386 . S
C1555 C1559 1.393 . S
C1556 H1545 0.950 . S
C1556 C1554 1.391 . S
C1556 C1557 1.400 . S
C1557 C1551 1.491 . S
C1557 C1556 1.400 . S
C1557 C1558 1.398 . S
C1558 H1546 0.950 . S
C1558 C1557 1.398 . S
C1558 C1559 1.391 . S
C1559 H1547 0.950 . S
C1559 C1555 1.393 . S
C1559 C1558 1.391 . S
H1560 C1568 0.950 . S
H1561 C1573 0.950 . S
H1562 C1570 0.950 . S
H1563 C1572 0.950 . S
H1564 C1574 0.950 . S
H1565 C1576 0.950 . S
H1566 C1578 0.950 . S
H1567 C1579 0.950 . S
C1568 H1560 0.950 . S
C1568 C1569 1.386 . S
C1568 C1570 1.391 . S
C1569 C1568 1.386 . S
C1569 C1573 1.393 . S
C1570 H1562 0.950 . S
C1570 C1568 1.391 . S
C1570 C1571 1.400 . S
C1571 C1570 1.400 . S
C1571 C1572 1.398 . S
C1571 C1577 1.491 . S
C1572 H1563 0.950 . S
C1572 C1571 1.398 . S
C1572 C1573 1.391 . S
C1573 H1561 0.950 . S
C1573 C1569 1.393 . S
C1573 C1572 1.391 . S
C1574 H1564 0.950 . S
C1574 C1575 1.386 . S
C1574 C1576 1.391 . S
C1575 C1574 1.386 . S
C1575 C1579 1.393 . S
C1576 H1565 0.950 . S
C1576 C1574 1.391 . S
C1576 C1577 1.400 . S
C1577 C1571 1.491 . S
C1577 C1576 1.400 . S
C1577 C1578 1.398 . S
C1578 H1566 0.950 . S
C1578 C1577 1.398 . S
C1578 C1579 1.391 . S
C1579 H1567 0.950 . S
C1579 C1575 1.393 . S
C1579 C1578 1.391 . S
H1580 C1588 0.950 . S
H1581 C1593 0.950 . S
H1582 C1590 0.950 1_554 S
H1583 C1592 0.950 . S
H1584 C1594 0.950 . S
H1585 C1596 0.950 1_556 S
H1586 C1598 0.950 . S
H1587 C1599 0.950 . S
C1588 H1580 0.950 . S
C1588 C1589 1.386 . S
C1588 C1590 1.391 . S
C1589 C1588 1.386 . S
C1589 C1593 1.393 . S
C1590 H1582 0.950 1_556 S
C1590 C1588 1.391 . S
C1590 C1591 1.400 . S
C1591 C1590 1.400 . S
C1591 C1592 1.398 . S
C1591 C1597 1.491 1_556 S
C1592 H1583 0.950 . S
C1592 C1591 1.398 . S
C1592 C1593 1.391 . S
C1593 H1581 0.950 . S
C1593 C1589 1.393 . S
C1593 C1592 1.391 . S
C1594 H1584 0.950 . S
C1594 C1595 1.386 . S
C1594 C1596 1.391 . S
C1595 C1594 1.386 . S
C1595 C1599 1.393 . S
C1596 H1585 0.950 1_554 S
C1596 C1594 1.391 . S
C1596 C1597 1.400 . S
C1597 C1591 1.491 1_554 S
C1597 C1596 1.400 . S
C1597 C1598 1.398 . S
C1598 H1586 0.950 . S
C1598 C1597 1.398 . S
C1598 C1599 1.391 . S
C1599 H1587 0.950 . S
C1599 C1595 1.393 . S
C1599 C1598 1.391 . S
H1600 C1608 0.950 . S
H1601 C1613 0.950 . S
H1602 C1610 0.950 . S
H1603 C1612 0.950 . S
H1604 C1614 0.950 . S
H1605 C1616 0.950 . S
H1606 C1618 0.950 . S
H1607 C1619 0.950 . S
C1608 H1600 0.950 . S
C1608 C1609 1.386 . S
C1608 C1610 1.391 . S
C1609 C1608 1.386 . S
C1609 C1613 1.393 . S
C1610 H1602 0.950 . S
C1610 C1608 1.391 . S
C1610 C1611 1.400 . S
C1611 C1610 1.400 . S
C1611 C1612 1.398 . S
C1611 C1617 1.491 . S
C1612 H1603 0.950 . S
C1612 C1611 1.398 . S
C1612 C1613 1.391 . S
C1613 H1601 0.950 . S
C1613 C1609 1.393 . S
C1613 C1612 1.391 . S
C1614 H1604 0.950 . S
C1614 C1615 1.386 . S
C1614 C1616 1.391 . S
C1615 C1614 1.386 . S
C1615 C1619 1.393 . S
C1616 H1605 0.950 . S
C1616 C1614 1.391 . S
C1616 C1617 1.400 . S
C1617 C1611 1.491 . S
C1617 C1616 1.400 . S
C1617 C1618 1.398 . S
C1618 H1606 0.950 . S
C1618 C1617 1.398 . S
C1618 C1619 1.391 . S
C1619 H1607 0.950 . S
C1619 C1615 1.393 . S
C1619 C1618 1.391 . S
H1620 C1628 0.950 . S
H1621 C1633 0.950 . S
H1622 C1630 0.950 . S
H1623 C1632 0.963 . S
H1624 C1634 0.950 . S
H1625 C1636 0.950 . S
H1626 C1638 0.950 . S
H1627 C1639 0.950 . S
C1628 H1620 0.950 . S
C1628 C1629 1.386 . S
C1628 C1630 1.391 . S
C1629 C1628 1.386 . S
C1629 C1633 1.393 1_545 S
C1630 H1622 0.950 . S
C1630 C1628 1.391 . S
C1630 C1631 1.400 . S
C1631 C1630 1.400 . S
C1631 C1632 1.386 1_545 S
C1631 C1637 1.491 . S
C1632 H1623 0.963 . S
C1632 C1631 1.386 1_565 S
C1632 C1633 1.392 . S
C1633 H1621 0.950 . S
C1633 C1629 1.393 1_565 S
C1633 C1632 1.392 . S
C1634 H1624 0.950 . S
C1634 C1635 1.386 1_565 S
C1634 C1636 1.391 . S
C1635 C1634 1.386 1_545 S
C1635 C1639 1.393 . S
C1636 H1625 0.950 . S
C1636 C1634 1.391 . S
C1636 C1637 1.400 1_565 S
C1637 C1631 1.491 . S
C1637 C1636 1.400 1_545 S
C1637 C1638 1.398 . S
C1638 H1626 0.950 . S
C1638 C1637 1.398 . S
C1638 C1639 1.391 . S
C1639 H1627 0.950 . S
C1639 C1635 1.393 . S
C1639 C1638 1.391 . S
H1640 C1648 0.950 . S
H1641 C1653 0.950 . S
H1642 C1650 0.950 . S
H1643 C1652 0.950 . S
H1644 C1654 0.950 . S
H1645 C1656 0.950 . S
H1646 C1658 0.950 . S
H1647 C1659 0.950 . S
C1648 H1640 0.950 . S
C1648 C1649 1.386 1_565 S
C1648 C1650 1.391 . S
C1649 C1648 1.386 1_545 S
C1649 C1653 1.393 . S
C1650 H1642 0.950 . S
C1650 C1648 1.391 . S
C1650 C1651 1.400 1_565 S
C1651 C1650 1.400 1_545 S
C1651 C1652 1.398 . S
C1651 C1657 1.491 . S
C1652 H1643 0.950 . S
C1652 C1651 1.398 . S
C1652 C1653 1.391 . S
C1653 H1641 0.950 . S
C1653 C1649 1.393 . S
C1653 C1652 1.391 . S
C1654 H1644 0.950 . S
C1654 C1655 1.386 . S
C1654 C1656 1.391 . S
C1655 C1654 1.386 . S
C1655 C1659 1.393 1_545 S
C1656 H1645 0.950 . S
C1656 C1654 1.391 . S
C1656 C1657 1.400 . S
C1657 C1651 1.491 . S
C1657 C1656 1.400 . S
C1657 C1658 1.398 1_545 S
C1658 H1646 0.950 . S
C1658 C1657 1.398 1_565 S
C1658 C1659 1.391 . S
C1659 H1647 0.950 . S
C1659 C1655 1.393 1_565 S
C1659 C1658 1.391 . S
H1660 C1668 0.950 . S
H1661 C1673 0.950 . S
H1662 C1670 0.950 . S
H1663 C1672 0.950 . S
H1664 C1674 0.950 . S
H1665 C1676 0.950 . S
H1666 C1678 0.950 . S
H1667 C1679 0.950 . S
C1668 H1660 0.950 . S
C1668 C1669 1.386 . S
C1668 C1670 1.391 . S
C1669 C1668 1.386 . S
C1669 C1673 1.393 . S
C1670 H1662 0.950 . S
C1670 C1668 1.391 . S
C1670 C1671 1.400 . S
C1671 C1670 1.400 . S
C1671 C1672 1.398 . S
C1671 C1677 1.491 . S
C1672 H1663 0.950 . S
C1672 C1671 1.398 . S
C1672 C1673 1.391 . S
C1673 H1661 0.950 . S
C1673 C1669 1.393 . S
C1673 C1672 1.391 . S
C1674 H1664 0.950 . S
C1674 C1675 1.386 . S
C1674 C1676 1.391 . S
C1675 C1674 1.386 . S
C1675 C1679 1.393 . S
C1676 H1665 0.950 . S
C1676 C1674 1.391 . S
C1676 C1677 1.400 . S
C1677 C1671 1.491 . S
C1677 C1676 1.400 . S
C1677 C1678 1.398 . S
C1678 H1666 0.950 . S
C1678 C1677 1.398 . S
C1678 C1679 1.391 . S
C1679 H1667 0.950 . S
C1679 C1675 1.393 . S
C1679 C1678 1.391 . S
H1680 C1688 0.950 . S
H1681 C1693 0.950 . S
H1682 C1690 0.950 . S
H1683 C1692 0.950 . S
H1684 C1694 0.950 . S
H1685 C1696 0.950 . S
H1686 C1698 0.950 . S
H1687 C1699 0.950 . S
C1688 H1680 0.950 . S
C1688 C1689 1.386 . S
C1688 C1690 1.391 . S
C1689 C1688 1.386 . S
C1689 C1693 1.393 . S
C1690 H1682 0.950 . S
C1690 C1688 1.391 . S
C1690 C1691 1.400 . S
C1691 C1690 1.400 . S
C1691 C1692 1.398 . S
C1691 C1697 1.491 . S
C1692 H1683 0.950 . S
C1692 C1691 1.398 . S
C1692 C1693 1.391 . S
C1693 H1681 0.950 . S
C1693 C1689 1.393 . S
C1693 C1692 1.391 . S
C1694 H1684 0.950 . S
C1694 C1695 1.386 . S
C1694 C1696 1.391 . S
C1695 C1694 1.386 . S
C1695 C1699 1.393 . S
C1696 H1685 0.950 . S
C1696 C1694 1.391 . S
C1696 C1697 1.400 . S
C1697 C1691 1.491 . S
C1697 C1696 1.400 . S
C1697 C1698 1.398 . S
C1698 H1686 0.950 . S
C1698 C1697 1.398 . S
C1698 C1699 1.391 . S
C1699 H1687 0.950 . S
C1699 C1695 1.393 . S
C1699 C1698 1.391 . S
H1700 C1708 0.950 . S
H1701 C1713 0.950 . S
H1702 C1710 0.950 . S
H1703 C1712 0.950 . S
H1704 C1714 0.950 . S
H1705 C1716 0.950 . S
H1706 C1718 0.950 . S
H1707 C1719 0.950 . S
C1708 H1700 0.950 . S
C1708 C1709 1.386 . S
C1708 C1710 1.391 . S
C1709 C1708 1.386 . S
C1709 C1713 1.393 1_565 S
C1710 H1702 0.950 . S
C1710 C1708 1.391 . S
C1710 C1711 1.400 . S
C1711 C1710 1.400 . S
C1711 C1712 1.398 1_565 S
C1711 C1717 1.491 . S
C1712 H1703 0.950 . S
C1712 C1711 1.398 1_545 S
C1712 C1713 1.391 . S
C1713 H1701 0.950 . S
C1713 C1709 1.393 1_545 S
C1713 C1712 1.391 . S
C1714 H1704 0.950 . S
C1714 C1715 1.386 1_545 S
C1714 C1716 1.391 . S
C1715 C1714 1.386 1_565 S
C1715 C1719 1.393 . S
C1716 H1705 0.950 . S
C1716 C1714 1.391 . S
C1716 C1717 1.400 1_545 S
C1717 C1711 1.491 . S
C1717 C1716 1.400 1_565 S
C1717 C1718 1.398 . S
C1718 H1706 0.950 . S
C1718 C1717 1.398 . S
C1718 C1719 1.391 . S
C1719 H1707 0.950 . S
C1719 C1715 1.393 . S
C1719 C1718 1.391 . S
H1720 C1728 0.950 . S
H1721 C1733 0.950 . S
H1722 C1730 0.950 . S
H1723 C1732 0.950 . S
H1724 C1734 0.950 . S
H1725 C1736 0.950 . S
H1726 C1738 0.950 . S
H1727 C1739 0.950 . S
C1728 H1720 0.950 . S
C1728 C1729 1.386 1_545 S
C1728 C1730 1.391 . S
C1729 C1728 1.386 1_565 S
C1729 C1733 1.393 . S
C1730 H1722 0.950 . S
C1730 C1728 1.391 . S
C1730 C1731 1.400 1_545 S
C1731 C1730 1.400 1_565 S
C1731 C1732 1.398 . S
C1731 C1737 1.491 . S
C1732 H1723 0.950 . S
C1732 C1731 1.398 . S
C1732 C1733 1.391 . S
C1733 H1721 0.950 . S
C1733 C1729 1.393 . S
C1733 C1732 1.391 . S
C1734 H1724 0.950 . S
C1734 C1735 1.386 . S
C1734 C1736 1.391 . S
C1735 C1734 1.386 . S
C1735 C1739 1.393 1_565 S
C1736 H1725 0.950 . S
C1736 C1734 1.391 . S
C1736 C1737 1.400 . S
C1737 C1731 1.491 . S
C1737 C1736 1.400 . S
C1737 C1738 1.398 1_565 S
C1738 H1726 0.950 . S
C1738 C1737 1.398 1_545 S
C1738 C1739 1.391 . S
C1739 H1727 0.950 . S
C1739 C1735 1.393 1_545 S
C1739 C1738 1.391 . S
H1740 C1748 0.950 . S
H1741 C1753 0.950 . S
H1742 C1750 0.950 . S
H1743 C1752 0.950 . S
H1744 C1754 0.950 . S
H1745 C1756 0.950 . S
H1746 C1758 0.950 . S
H1747 C1759 0.950 . S
C1748 H1740 0.950 . S
C1748 C1749 1.386 . S
C1748 C1750 1.391 . S
C1749 C1748 1.386 . S
C1749 C1753 1.393 . S
C1750 H1742 0.950 . S
C1750 C1748 1.391 . S
C1750 C1751 1.400 . S
C1751 C1750 1.400 . S
C1751 C1752 1.398 . S
C1751 C1757 1.491 . S
C1752 H1743 0.950 . S
C1752 C1751 1.398 . S
C1752 C1753 1.391 . S
C1753 H1741 0.950 . S
C1753 C1749 1.393 . S
C1753 C1752 1.391 . S
C1754 H1744 0.950 . S
C1754 C1755 1.386 . S
C1754 C1756 1.391 . S
C1755 C1754 1.386 . S
C1755 C1759 1.393 . S
C1756 H1745 0.950 . S
C1756 C1754 1.391 . S
C1756 C1757 1.400 . S
C1757 C1751 1.491 . S
C1757 C1756 1.400 . S
C1757 C1758 1.398 . S
C1758 H1746 0.950 . S
C1758 C1757 1.398 . S
C1758 C1759 1.391 . S
C1759 H1747 0.950 . S
C1759 C1755 1.393 . S
C1759 C1758 1.391 . S
H1760 C1768 0.950 . S
H1761 C1773 0.950 . S
H1762 C1770 0.950 . S
H1763 C1772 0.950 . S
H1764 C1774 0.950 . S
H1765 C1776 0.950 . S
H1766 C1778 0.950 . S
H1767 C1779 0.950 . S
C1768 H1760 0.950 . S
C1768 C1769 1.386 . S
C1768 C1770 1.391 . S
C1769 C1768 1.386 . S
C1769 C1773 1.393 . S
C1770 H1762 0.950 . S
C1770 C1768 1.391 . S
C1770 C1771 1.400 . S
C1771 C1770 1.400 . S
C1771 C1772 1.398 . S
C1771 C1777 1.491 . S
C1772 H1763 0.950 . S
C1772 C1771 1.398 . S
C1772 C1773 1.391 . S
C1773 H1761 0.950 . S
C1773 C1769 1.393 . S
C1773 C1772 1.391 . S
C1774 H1764 0.950 . S
C1774 C1775 1.386 . S
C1774 C1776 1.391 . S
C1775 C1774 1.386 . S
C1775 C1779 1.393 . S
C1776 H1765 0.950 . S
C1776 C1774 1.391 . S
C1776 C1777 1.400 . S
C1777 C1771 1.491 . S
C1777 C1776 1.400 . S
C1777 C1778 1.398 . S
C1778 H1766 0.950 . S
C1778 C1777 1.398 . S
C1778 C1779 1.391 . S
C1779 H1767 0.950 . S
C1779 C1775 1.393 . S
C1779 C1778 1.391 . S
H1780 C1788 0.950 . S
H1781 C1793 0.950 . S
H1782 C1790 0.950 . S
H1783 C1792 0.950 . S
H1784 C1794 0.950 . S
H1785 C1796 0.950 . S
H1786 C1798 0.950 . S
H1787 C1799 0.950 . S
C1788 H1780 0.950 . S
C1788 C1789 1.386 . S
C1788 C1790 1.391 . S
C1789 C1788 1.386 . S
C1789 C1793 1.393 . S
C1790 H1782 0.950 . S
C1790 C1788 1.391 . S
C1790 C1791 1.400 . S
C1791 C1790 1.400 . S
C1791 C1792 1.398 . S
C1791 C1797 1.491 . S
C1792 H1783 0.950 . S
C1792 C1791 1.398 . S
C1792 C1793 1.391 . S
C1793 H1781 0.950 . S
C1793 C1789 1.393 . S
C1793 C1792 1.391 . S
C1794 H1784 0.950 . S
C1794 C1795 1.386 . S
C1794 C1796 1.391 . S
C1795 C1794 1.386 . S
C1795 C1799 1.393 . S
C1796 H1785 0.950 . S
C1796 C1794 1.391 . S
C1796 C1797 1.400 . S
C1797 C1791 1.491 . S
C1797 C1796 1.400 . S
C1797 C1798 1.398 . S
C1798 H1786 0.950 . S
C1798 C1797 1.398 . S
C1798 C1799 1.391 . S
C1799 H1787 0.950 . S
C1799 C1795 1.393 . S
C1799 C1798 1.391 . S
H1800 C1808 0.950 . S
H1801 C1813 0.950 . S
H1802 C1810 0.950 . S
H1803 C1812 0.950 . S
H1804 C1814 0.950 . S
H1805 C1816 0.950 . S
H1806 C1818 0.950 . S
H1807 C1819 0.950 . S
C1808 H1800 0.950 . S
C1808 C1809 1.386 . S
C1808 C1810 1.391 . S
C1809 C1808 1.386 . S
C1809 C1813 1.393 . S
C1810 H1802 0.950 . S
C1810 C1808 1.391 . S
C1810 C1811 1.400 . S
C1811 C1810 1.400 . S
C1811 C1812 1.398 . S
C1811 C1817 1.491 . S
C1812 H1803 0.950 . S
C1812 C1811 1.398 . S
C1812 C1813 1.391 . S
C1813 H1801 0.950 . S
C1813 C1809 1.393 . S
C1813 C1812 1.391 . S
C1814 H1804 0.950 . S
C1814 C1815 1.386 . S
C1814 C1816 1.391 . S
C1815 C1814 1.386 . S
C1815 C1819 1.393 . S
C1816 H1805 0.950 . S
C1816 C1814 1.391 . S
C1816 C1817 1.400 . S
C1817 C1811 1.491 . S
C1817 C1816 1.400 . S
C1817 C1818 1.398 . S
C1818 H1806 0.950 . S
C1818 C1817 1.398 . S
C1818 C1819 1.391 . S
C1819 H1807 0.950 . S
C1819 C1815 1.393 . S
C1819 C1818 1.391 . S
H1820 C1828 0.950 . S
H1821 C1833 0.950 . S
H1822 C1830 0.950 . S
H1823 C1832 0.950 . S
H1824 C1834 0.950 . S
H1825 C1836 0.950 . S
H1826 C1838 0.950 . S
H1827 C1839 0.950 . S
C1828 H1820 0.950 . S
C1828 C1829 1.386 . S
C1828 C1830 1.391 . S
C1829 C1828 1.386 . S
C1829 C1833 1.393 . S
C1830 H1822 0.950 . S
C1830 C1828 1.391 . S
C1830 C1831 1.400 . S
C1831 C1830 1.400 . S
C1831 C1832 1.398 . S
C1831 C1837 1.491 . S
C1832 H1823 0.950 . S
C1832 C1831 1.398 . S
C1832 C1833 1.391 . S
C1833 H1821 0.950 . S
C1833 C1829 1.393 . S
C1833 C1832 1.391 . S
C1834 H1824 0.950 . S
C1834 C1835 1.386 . S
C1834 C1836 1.391 . S
C1835 C1834 1.386 . S
C1835 C1839 1.393 . S
C1836 H1825 0.950 . S
C1836 C1834 1.391 . S
C1836 C1837 1.400 . S
C1837 C1831 1.491 . S
C1837 C1836 1.400 . S
C1837 C1838 1.398 . S
C1838 H1826 0.950 . S
C1838 C1837 1.398 . S
C1838 C1839 1.391 . S
C1839 H1827 0.950 . S
C1839 C1835 1.393 . S
C1839 C1838 1.391 . S
H1840 C1848 0.950 . S
H1841 C1853 0.950 . S
H1842 C1850 0.950 . S
H1843 C1852 0.950 . S
H1844 C1854 0.950 . S
H1845 C1856 0.950 . S
H1846 C1858 0.950 . S
H1847 C1859 0.950 . S
C1848 H1840 0.950 . S
C1848 C1849 1.386 . S
C1848 C1850 1.391 . S
C1849 C1848 1.386 . S
C1849 C1853 1.393 . S
C1850 H1842 0.950 . S
C1850 C1848 1.391 . S
C1850 C1851 1.400 . S
C1851 C1850 1.400 . S
C1851 C1852 1.398 . S
C1851 C1857 1.491 . S
C1852 H1843 0.950 . S
C1852 C1851 1.398 . S
C1852 C1853 1.391 . S
C1853 H1841 0.950 . S
C1853 C1849 1.393 . S
C1853 C1852 1.391 . S
C1854 H1844 0.950 . S
C1854 C1855 1.386 . S
C1854 C1856 1.391 . S
C1855 C1854 1.386 . S
C1855 C1859 1.393 . S
C1856 H1845 0.950 . S
C1856 C1854 1.391 . S
C1856 C1857 1.400 . S
C1857 C1851 1.491 . S
C1857 C1856 1.400 . S
C1857 C1858 1.398 . S
C1858 H1846 0.950 . S
C1858 C1857 1.398 . S
C1858 C1859 1.391 . S
C1859 H1847 0.950 . S
C1859 C1855 1.393 . S
C1859 C1858 1.391 . S
H1860 C1868 0.950 . S
H1861 C1873 0.950 . S
H1862 C1870 0.950 . S
H1863 C1872 0.950 . S
H1864 C1874 0.935 1_556 S
H1865 C1876 0.950 . S
H1866 C1878 0.950 . S
H1867 C1879 0.950 . S
C1868 H1860 0.950 . S
C1868 C1869 1.386 . S
C1868 C1870 1.391 . S
C1869 C1868 1.386 . S
C1869 C1873 1.393 . S
C1870 H1862 0.950 . S
C1870 C1868 1.391 . S
C1870 C1871 1.400 . S
C1871 C1870 1.400 . S
C1871 C1872 1.398 . S
C1871 C1877 1.491 . S
C1872 H1863 0.950 . S
C1872 C1871 1.398 . S
C1872 C1873 1.391 . S
C1873 H1861 0.950 . S
C1873 C1869 1.393 . S
C1873 C1872 1.391 . S
C1874 H1864 0.935 1_554 S
C1874 C1875 1.386 . S
C1874 C1876 1.391 . S
C1875 C1874 1.386 . S
C1875 C1879 1.393 . S
C1876 H1865 0.950 . S
C1876 C1874 1.391 . S
C1876 C1877 1.400 . S
C1877 C1871 1.491 . S
C1877 C1876 1.400 . S
C1877 C1878 1.398 . S
C1878 H1866 0.950 . S
C1878 C1877 1.398 . S
C1878 C1879 1.391 . S
C1879 H1867 0.950 . S
C1879 C1875 1.393 . S
C1879 C1878 1.391 . S
H1880 C1888 0.950 . S
H1881 C1893 0.950 . S
H1882 C1890 0.950 . S
H1883 C1892 0.950 . S
H1884 C1894 0.950 . S
H1885 C1896 0.950 . S
H1886 C1898 0.950 . S
H1887 C1899 0.950 . S
C1888 H1880 0.950 . S
C1888 C1889 1.386 . S
C1888 C1890 1.391 . S
C1889 C1888 1.386 . S
C1889 C1893 1.393 . S
C1890 H1882 0.950 . S
C1890 C1888 1.391 . S
C1890 C1891 1.400 . S
C1891 C1890 1.400 . S
C1891 C1892 1.398 . S
C1891 C1897 1.491 . S
C1892 H1883 0.950 . S
C1892 C1891 1.398 . S
C1892 C1893 1.391 . S
C1893 H1881 0.950 . S
C1893 C1889 1.393 . S
C1893 C1892 1.391 . S
C1894 H1884 0.950 . S
C1894 C1895 1.386 . S
C1894 C1896 1.391 . S
C1895 C1894 1.386 . S
C1895 C1899 1.393 . S
C1896 H1885 0.950 . S
C1896 C1894 1.391 . S
C1896 C1897 1.400 . S
C1897 C1891 1.491 . S
C1897 C1896 1.400 . S
C1897 C1898 1.398 . S
C1898 H1886 0.950 . S
C1898 C1897 1.398 . S
C1898 C1899 1.391 . S
C1899 H1887 0.950 . S
C1899 C1895 1.393 . S
C1899 C1898 1.391 . S
H1900 C1908 0.950 . S
H1901 C1913 0.950 . S
H1902 C1910 0.950 . S
H1903 C1912 0.950 . S
H1904 C1914 0.950 . S
H1905 C1916 0.950 . S
H1906 C1918 0.950 . S
H1907 C1919 0.950 . S
C1908 H1900 0.950 . S
C1908 C1909 1.386 . S
C1908 C1910 1.391 . S
C1909 C1908 1.386 . S
C1909 C1913 1.393 . S
C1910 H1902 0.950 . S
C1910 C1908 1.391 . S
C1910 C1911 1.400 . S
C1911 C1910 1.400 . S
C1911 C1912 1.398 . S
C1911 C1917 1.491 . S
C1912 H1903 0.950 . S
C1912 C1911 1.398 . S
C1912 C1913 1.391 . S
C1913 H1901 0.950 . S
C1913 C1909 1.393 . S
C1913 C1912 1.391 . S
C1914 H1904 0.950 . S
C1914 C1915 1.386 . S
C1914 C1916 1.391 . S
C1915 C1914 1.386 . S
C1915 C1919 1.393 . S
C1916 H1905 0.950 . S
C1916 C1914 1.391 . S
C1916 C1917 1.400 . S
C1917 C1911 1.491 . S
C1917 C1916 1.400 . S
C1917 C1918 1.398 . S
C1918 H1906 0.950 . S
C1918 C1917 1.398 . S
C1918 C1919 1.391 . S
C1919 H1907 0.950 . S
C1919 C1915 1.393 . S
C1919 C1918 1.391 . S
H1920 C1928 0.950 . S
H1921 C1933 0.950 . S
H1922 C1930 0.950 . S
H1923 C1932 0.950 . S
H1924 C1934 0.950 . S
H1925 C1936 0.950 . S
H1926 C1938 0.950 . S
H1927 C1939 0.950 . S
C1928 H1920 0.950 . S
C1928 C1929 1.386 . S
C1928 C1930 1.391 . S
C1929 C1928 1.386 . S
C1929 C1933 1.393 . S
C1930 H1922 0.950 . S
C1930 C1928 1.391 . S
C1930 C1931 1.400 . S
C1931 C1930 1.400 . S
C1931 C1932 1.398 . S
C1931 C1937 1.491 . S
C1932 H1923 0.950 . S
C1932 C1931 1.398 . S
C1932 C1933 1.391 . S
C1933 H1921 0.950 . S
C1933 C1929 1.393 . S
C1933 C1932 1.391 . S
C1934 H1924 0.950 . S
C1934 C1935 1.386 . S
C1934 C1936 1.391 . S
C1935 C1934 1.386 . S
C1935 C1939 1.393 . S
C1936 H1925 0.950 . S
C1936 C1934 1.391 . S
C1936 C1937 1.400 . S
C1937 C1931 1.491 . S
C1937 C1936 1.400 . S
C1937 C1938 1.398 . S
C1938 H1926 0.950 . S
C1938 C1937 1.398 . S
C1938 C1939 1.391 . S
C1939 H1927 0.950 . S
C1939 C1935 1.393 . S
C1939 C1938 1.391 . S
H1940 C1948 0.950 . S
H1941 C1953 0.950 . S
H1942 C1950 0.950 . S
H1943 C1952 0.950 . S
H1944 C1954 0.950 . S
H1945 C1956 0.950 . S
H1946 C1958 0.950 . S
H1947 C1959 0.950 . S
C1948 H1940 0.950 . S
C1948 C1949 1.386 . S
C1948 C1950 1.391 . S
C1949 C1948 1.386 . S
C1949 C1953 1.393 . S
C1950 H1942 0.950 . S
C1950 C1948 1.391 . S
C1950 C1951 1.400 . S
C1951 C1950 1.400 . S
C1951 C1952 1.398 . S
C1951 C1957 1.491 1_545 S
C1952 H1943 0.950 . S
C1952 C1951 1.398 . S
C1952 C1953 1.391 . S
C1953 H1941 0.950 . S
C1953 C1949 1.393 . S
C1953 C1952 1.391 . S
C1954 H1944 0.950 . S
C1954 C1955 1.386 . S
C1954 C1956 1.391 . S
C1955 C1954 1.386 . S
C1955 C1959 1.393 . S
C1956 H1945 0.950 . S
C1956 C1954 1.391 . S
C1956 C1957 1.400 . S
C1957 C1951 1.491 1_565 S
C1957 C1956 1.400 . S
C1957 C1958 1.398 . S
C1958 H1946 0.950 . S
C1958 C1957 1.398 . S
C1958 C1959 1.391 . S
C1959 H1947 0.950 . S
C1959 C1955 1.393 . S
C1959 C1958 1.391 . S
H1960 C1968 0.950 . S
H1961 C1973 0.950 . S
H1962 C1970 0.949 1_545 S
H1963 C1972 0.950 . S
H1964 C1974 0.950 . S
H1965 C1976 0.946 1_565 S
H1966 C1978 0.950 . S
H1967 C1979 0.950 . S
C1968 H1960 0.950 . S
C1968 C1969 1.386 . S
C1968 C1970 1.391 . S
C1969 C1968 1.386 . S
C1969 C1973 1.393 . S
C1970 H1962 0.949 1_565 S
C1970 C1968 1.391 . S
C1970 C1971 1.400 . S
C1971 C1970 1.400 . S
C1971 C1972 1.398 . S
C1971 C1977 1.491 1_565 S
C1972 H1963 0.950 . S
C1972 C1971 1.398 . S
C1972 C1973 1.391 . S
C1973 H1961 0.950 . S
C1973 C1969 1.393 . S
C1973 C1972 1.391 . S
C1974 H1964 0.950 . S
C1974 C1975 1.386 . S
C1974 C1976 1.391 . S
C1975 C1974 1.386 . S
C1975 C1979 1.393 . S
C1976 H1965 0.946 1_545 S
C1976 C1974 1.391 . S
C1976 C1977 1.400 . S
C1977 C1971 1.491 1_545 S
C1977 C1976 1.400 . S
C1977 C1978 1.398 . S
C1978 H1966 0.950 . S
C1978 C1977 1.398 . S
C1978 C1979 1.391 . S
C1979 H1967 0.950 . S
C1979 C1975 1.393 . S
C1979 C1978 1.391 . S
H1980 C1988 0.950 . S
H1981 C1993 0.950 . S
H1982 C1990 0.950 . S
H1983 C1992 0.950 . S
H1984 C1994 0.950 . S
H1985 C1996 0.950 . S
H1986 C1998 0.950 . S
H1987 C1999 0.950 . S
C1988 H1980 0.950 . S
C1988 C1989 1.386 . S
C1988 C1990 1.391 . S
C1989 C1988 1.386 . S
C1989 C1993 1.393 . S
C1990 H1982 0.950 . S
C1990 C1988 1.391 . S
C1990 C1991 1.400 . S
C1991 C1990 1.400 . S
C1991 C1992 1.398 . S
C1991 C1997 1.491 . S
C1992 H1983 0.950 . S
C1992 C1991 1.398 . S
C1992 C1993 1.391 . S
C1993 H1981 0.950 . S
C1993 C1989 1.393 . S
C1993 C1992 1.391 . S
C1994 H1984 0.950 . S
C1994 C1995 1.386 . S
C1994 C1996 1.391 . S
C1995 C1994 1.386 . S
C1995 C1999 1.393 . S
C1996 H1985 0.950 . S
C1996 C1994 1.391 . S
C1996 C1997 1.400 . S
C1997 C1991 1.491 . S
C1997 C1996 1.400 . S
C1997 C1998 1.398 . S
C1998 H1986 0.950 . S
C1998 C1997 1.398 . S
C1998 C1999 1.391 . S
C1999 H1987 0.950 . S
C1999 C1995 1.393 . S
C1999 C1998 1.391 . S
H2000 C2008 0.950 . S
H2001 C2013 0.950 . S
H2002 C2010 0.950 . S
H2003 C2012 0.950 . S
H2004 C2014 0.950 . S
H2005 C2016 0.950 . S
H2006 C2018 0.950 . S
H2007 C2019 0.950 . S
C2008 H2000 0.950 . S
C2008 C2009 1.386 . S
C2008 C2010 1.391 . S
C2009 C2008 1.386 . S
C2009 C2013 1.393 . S
C2010 H2002 0.950 . S
C2010 C2008 1.391 . S
C2010 C2011 1.400 . S
C2011 C2010 1.400 . S
C2011 C2012 1.398 . S
C2011 C2017 1.491 . S
C2012 H2003 0.950 . S
C2012 C2011 1.398 . S
C2012 C2013 1.391 . S
C2013 H2001 0.950 . S
C2013 C2009 1.393 . S
C2013 C2012 1.391 . S
C2014 H2004 0.950 . S
C2014 C2015 1.386 . S
C2014 C2016 1.391 . S
C2015 C2014 1.386 . S
C2015 C2019 1.393 . S
C2016 H2005 0.950 . S
C2016 C2014 1.391 . S
C2016 C2017 1.400 . S
C2017 C2011 1.491 . S
C2017 C2016 1.400 . S
C2017 C2018 1.398 . S
C2018 H2006 0.950 . S
C2018 C2017 1.398 . S
C2018 C2019 1.391 . S
C2019 H2007 0.950 . S
C2019 C2015 1.393 . S
C2019 C2018 1.391 . S
H2020 C2028 0.950 . S
H2021 C2033 0.950 . S
H2022 C2030 0.944 1_565 S
H2023 C2032 0.950 . S
H2024 C2034 0.950 . S
H2025 C2036 0.941 1_545 S
H2026 C2038 0.950 . S
H2027 C2039 0.950 . S
C2028 H2020 0.950 . S
C2028 C2029 1.386 . S
C2028 C2030 1.391 . S
C2029 C2028 1.386 . S
C2029 C2033 1.393 . S
C2030 H2022 0.944 1_545 S
C2030 C2028 1.391 . S
C2030 C2031 1.400 . S
C2031 C2030 1.400 . S
C2031 C2032 1.398 . S
C2031 C2037 1.491 1_545 S
C2032 H2023 0.950 . S
C2032 C2031 1.398 . S
C2032 C2033 1.391 . S
C2033 H2021 0.950 . S
C2033 C2029 1.393 . S
C2033 C2032 1.391 . S
C2034 H2024 0.950 . S
C2034 C2035 1.386 . S
C2034 C2036 1.391 . S
C2035 C2034 1.386 . S
C2035 C2039 1.393 . S
C2036 H2025 0.941 1_565 S
C2036 C2034 1.391 . S
C2036 C2037 1.400 . S
C2037 C2031 1.491 1_565 S
C2037 C2036 1.400 . S
C2037 C2038 1.398 . S
C2038 H2026 0.950 . S
C2038 C2037 1.398 . S
C2038 C2039 1.391 . S
C2039 H2027 0.950 . S
C2039 C2035 1.393 . S
C2039 C2038 1.391 . S
H2040 C2048 0.950 . S
H2041 C2053 0.950 . S
H2042 C2050 0.950 . S
H2043 C2052 0.948 1_565 S
H2044 C2054 0.950 . S
H2045 C2056 0.950 . S
H2046 C2058 0.948 . S
H2047 C2059 0.950 . S
C2048 H2040 0.950 . S
C2048 C2049 1.386 . S
C2048 C2050 1.391 . S
C2049 C2048 1.386 . S
C2049 C2053 1.393 . S
C2050 H2042 0.950 . S
C2050 C2048 1.391 . S
C2050 C2051 1.400 . S
C2051 C2050 1.400 . S
C2051 C2052 1.399 . S
C2051 C2057 1.491 1_545 S
C2052 H2043 0.948 1_545 S
C2052 C2051 1.399 . S
C2052 C2053 1.392 . S
C2053 H2041 0.950 . S
C2053 C2049 1.393 . S
C2053 C2052 1.392 . S
C2054 H2044 0.950 . S
C2054 C2055 1.386 . S
C2054 C2056 1.391 . S
C2055 C2054 1.386 . S
C2055 C2059 1.393 . S
C2056 H2045 0.950 . S
C2056 C2054 1.391 . S
C2056 C2057 1.400 . S
C2057 C2051 1.491 1_565 S
C2057 C2056 1.400 . S
C2057 C2058 1.399 1_565 S
C2058 H2046 0.948 . S
C2058 C2057 1.399 1_545 S
C2058 C2059 1.392 1_545 S
C2059 H2047 0.950 . S
C2059 C2055 1.393 . S
C2059 C2058 1.392 1_565 S
H2060 C2068 0.950 . S
H2061 C2073 0.950 . S
H2062 C2070 0.950 . S
H2063 C2072 0.950 . S
H2064 C2074 0.950 . S
H2065 C2076 0.950 . S
H2066 C2078 0.950 . S
H2067 C2079 0.950 . S
C2068 H2060 0.950 . S
C2068 C2069 1.386 . S
C2068 C2070 1.391 . S
C2069 C2068 1.386 . S
C2069 C2073 1.393 . S
C2070 H2062 0.950 . S
C2070 C2068 1.391 . S
C2070 C2071 1.400 . S
C2071 C2070 1.400 . S
C2071 C2072 1.398 . S
C2071 C2077 1.491 . S
C2072 H2063 0.950 . S
C2072 C2071 1.398 . S
C2072 C2073 1.391 . S
C2073 H2061 0.950 . S
C2073 C2069 1.393 . S
C2073 C2072 1.391 . S
C2074 H2064 0.950 . S
C2074 C2075 1.386 . S
C2074 C2076 1.391 . S
C2075 C2074 1.386 . S
C2075 C2079 1.393 . S
C2076 H2065 0.950 . S
C2076 C2074 1.391 . S
C2076 C2077 1.400 . S
C2077 C2071 1.491 . S
C2077 C2076 1.400 . S
C2077 C2078 1.398 . S
C2078 H2066 0.950 . S
C2078 C2077 1.398 . S
C2078 C2079 1.391 . S
C2079 H2067 0.950 . S
C2079 C2075 1.393 . S
C2079 C2078 1.391 . S
H2080 C2088 0.950 . S
H2081 C2093 0.950 . S
H2082 C2090 0.950 . S
H2083 C2092 0.950 . S
H2084 C2094 0.950 . S
H2085 C2096 0.950 . S
H2086 C2098 0.950 . S
H2087 C2099 0.950 . S
C2088 H2080 0.950 . S
C2088 C2089 1.386 . S
C2088 C2090 1.391 . S
C2089 C2088 1.386 . S
C2089 C2093 1.393 . S
C2090 H2082 0.950 . S
C2090 C2088 1.391 . S
C2090 C2091 1.400 . S
C2091 C2090 1.400 . S
C2091 C2092 1.398 . S
C2091 C2097 1.491 . S
C2092 H2083 0.950 . S
C2092 C2091 1.398 . S
C2092 C2093 1.391 . S
C2093 H2081 0.950 . S
C2093 C2089 1.393 . S
C2093 C2092 1.391 . S
C2094 H2084 0.950 . S
C2094 C2095 1.386 . S
C2094 C2096 1.391 . S
C2095 C2094 1.386 . S
C2095 C2099 1.393 . S
C2096 H2085 0.950 . S
C2096 C2094 1.391 . S
C2096 C2097 1.400 . S
C2097 C2091 1.491 . S
C2097 C2096 1.400 . S
C2097 C2098 1.398 . S
C2098 H2086 0.950 . S
C2098 C2097 1.398 . S
C2098 C2099 1.391 . S
C2099 H2087 0.950 . S
C2099 C2095 1.393 . S
C2099 C2098 1.391 . S
H2100 C2108 0.950 . S
H2101 C2113 0.950 . S
H2102 C2110 0.950 . S
H2103 C2112 0.950 . S
H2104 C2114 0.950 . S
H2105 C2116 0.950 . S
H2106 C2118 0.950 . S
H2107 C2119 0.950 . S
C2108 H2100 0.950 . S
C2108 C2109 1.386 . S
C2108 C2110 1.391 . S
C2109 C2108 1.386 . S
C2109 C2113 1.393 . S
C2110 H2102 0.950 . S
C2110 C2108 1.391 . S
C2110 C2111 1.400 . S
C2111 C2110 1.400 . S
C2111 C2112 1.398 . S
C2111 C2117 1.491 . S
C2112 H2103 0.950 . S
C2112 C2111 1.398 . S
C2112 C2113 1.391 . S
C2113 H2101 0.950 . S
C2113 C2109 1.393 . S
C2113 C2112 1.391 . S
C2114 H2104 0.950 . S
C2114 C2115 1.386 . S
C2114 C2116 1.391 . S
C2115 C2114 1.386 . S
C2115 C2119 1.393 . S
C2116 H2105 0.950 . S
C2116 C2114 1.391 . S
C2116 C2117 1.400 . S
C2117 C2111 1.491 . S
C2117 C2116 1.400 . S
C2117 C2118 1.398 . S
C2118 H2106 0.950 . S
C2118 C2117 1.398 . S
C2118 C2119 1.391 . S
C2119 H2107 0.950 . S
C2119 C2115 1.393 . S
C2119 C2118 1.391 . S
H2120 C2128 0.950 . S
H2121 C2133 0.950 . S
H2122 C2130 0.950 . S
H2123 C2132 0.950 1_554 S
H2124 C2134 0.950 . S
H2125 C2136 0.950 . S
H2126 C2138 0.950 . S
H2127 C2139 0.950 . S
C2128 H2120 0.950 . S
C2128 C2129 1.386 . S
C2128 C2130 1.391 . S
C2129 C2128 1.386 . S
C2129 C2133 1.393 . S
C2130 H2122 0.950 . S
C2130 C2128 1.391 . S
C2130 C2131 1.398 1_556 S
C2131 C2130 1.398 1_554 S
C2131 C2132 1.397 1_554 S
C2131 C2137 1.494 . S
C2132 H2123 0.950 1_556 S
C2132 C2131 1.397 1_556 S
C2132 C2133 1.391 . S
C2133 H2121 0.950 . S
C2133 C2129 1.393 . S
C2133 C2132 1.391 . S
C2134 H2124 0.950 . S
C2134 C2135 1.386 . S
C2134 C2136 1.391 . S
C2135 C2134 1.386 . S
C2135 C2139 1.393 . S
C2136 H2125 0.950 . S
C2136 C2134 1.391 . S
C2136 C2137 1.400 . S
C2137 C2131 1.494 . S
C2137 C2136 1.400 . S
C2137 C2138 1.398 . S
C2138 H2126 0.950 . S
C2138 C2137 1.398 . S
C2138 C2139 1.391 . S
C2139 H2127 0.950 . S
C2139 C2135 1.393 . S
C2139 C2138 1.391 . S
H2140 C2148 0.950 . S
H2141 C2153 0.950 . S
H2142 C2150 0.950 . S
H2143 C2152 0.950 1_554 S
H2144 C2154 0.950 . S
H2145 C2156 0.950 . S
H2146 C2158 0.950 . S
H2147 C2159 0.950 . S
C2148 H2140 0.950 . S
C2148 C2149 1.386 . S
C2148 C2150 1.391 . S
C2149 C2148 1.386 . S
C2149 C2153 1.393 . S
C2150 H2142 0.950 . S
C2150 C2148 1.391 . S
C2150 C2151 1.408 . S
C2151 C2150 1.408 . S
C2151 C2152 1.401 . S
C2151 C2157 1.480 1_556 S
C2152 H2143 0.950 1_556 S
C2152 C2151 1.401 . S
C2152 C2153 1.391 . S
C2153 H2141 0.950 . S
C2153 C2149 1.393 . S
C2153 C2152 1.391 . S
C2154 H2144 0.950 . S
C2154 C2155 1.386 . S
C2154 C2156 1.391 . S
C2155 C2154 1.386 . S
C2155 C2159 1.393 . S
C2156 H2145 0.950 . S
C2156 C2154 1.391 . S
C2156 C2157 1.400 . S
C2157 C2151 1.480 1_554 S
C2157 C2156 1.400 . S
C2157 C2158 1.398 . S
C2158 H2146 0.950 . S
C2158 C2157 1.398 . S
C2158 C2159 1.391 . S
C2159 H2147 0.950 . S
C2159 C2155 1.393 . S
C2159 C2158 1.391 . S
H2160 C2168 0.950 . S
H2161 C2173 0.950 . S
H2162 C2170 0.950 . S
H2163 C2172 0.950 . S
H2164 C2174 0.950 . S
H2165 C2176 0.950 . S
H2166 C2178 0.950 . S
H2167 C2179 0.950 . S
C2168 H2160 0.950 . S
C2168 C2169 1.386 . S
C2168 C2170 1.391 . S
C2169 C2168 1.386 . S
C2169 C2173 1.393 . S
C2170 H2162 0.950 . S
C2170 C2168 1.391 . S
C2170 C2171 1.400 . S
C2171 C2170 1.400 . S
C2171 C2172 1.398 . S
C2171 C2177 1.491 . S
C2172 H2163 0.950 . S
C2172 C2171 1.398 . S
C2172 C2173 1.391 . S
C2173 H2161 0.950 . S
C2173 C2169 1.393 . S
C2173 C2172 1.391 . S
C2174 H2164 0.950 . S
C2174 C2175 1.386 . S
C2174 C2176 1.391 . S
C2175 C2174 1.386 . S
C2175 C2179 1.393 . S
C2176 H2165 0.950 . S
C2176 C2174 1.391 . S
C2176 C2177 1.400 . S
C2177 C2171 1.491 . S
C2177 C2176 1.400 . S
C2177 C2178 1.398 . S
C2178 H2166 0.950 . S
C2178 C2177 1.398 . S
C2178 C2179 1.391 . S
C2179 H2167 0.950 . S
C2179 C2175 1.393 . S
C2179 C2178 1.391 . S
H2180 C2188 0.950 . S
H2181 C2193 0.950 . S
H2182 C2190 0.950 . S
H2183 C2192 0.950 . S
H2184 C2194 0.950 . S
H2185 C2196 0.950 . S
H2186 C2198 0.950 . S
H2187 C2199 0.950 . S
C2188 H2180 0.950 . S
C2188 C2189 1.386 . S
C2188 C2190 1.391 . S
C2189 C2188 1.386 . S
C2189 C2193 1.393 . S
C2190 H2182 0.950 . S
C2190 C2188 1.391 . S
C2190 C2191 1.400 . S
C2191 C2190 1.400 . S
C2191 C2192 1.398 . S
C2191 C2197 1.491 . S
C2192 H2183 0.950 . S
C2192 C2191 1.398 . S
C2192 C2193 1.391 . S
C2193 H2181 0.950 . S
C2193 C2189 1.393 . S
C2193 C2192 1.391 . S
C2194 H2184 0.950 . S
C2194 C2195 1.386 . S
C2194 C2196 1.391 . S
C2195 C2194 1.386 . S
C2195 C2199 1.393 . S
C2196 H2185 0.950 . S
C2196 C2194 1.391 . S
C2196 C2197 1.400 . S
C2197 C2191 1.491 . S
C2197 C2196 1.400 . S
C2197 C2198 1.398 . S
C2198 H2186 0.950 . S
C2198 C2197 1.398 . S
C2198 C2199 1.391 . S
C2199 H2187 0.950 . S
C2199 C2195 1.393 . S
C2199 C2198 1.391 . S
H2200 C2208 0.950 . S
H2201 C2213 0.950 . S
H2202 C2210 0.950 . S
H2203 C2212 0.947 1_556 S
H2204 C2214 0.950 . S
H2205 C2216 0.950 . S
H2206 C2218 0.950 . S
H2207 C2219 0.950 . S
C2208 H2200 0.950 . S
C2208 C2209 1.386 . S
C2208 C2210 1.391 . S
C2209 C2208 1.386 . S
C2209 C2213 1.393 . S
C2210 H2202 0.950 . S
C2210 C2208 1.391 . S
C2210 C2211 1.403 . S
C2211 C2210 1.403 . S
C2211 C2212 1.400 . S
C2211 C2217 1.486 1_554 S
C2212 H2203 0.947 1_554 S
C2212 C2211 1.400 . S
C2212 C2213 1.391 . S
C2213 H2201 0.950 . S
C2213 C2209 1.393 . S
C2213 C2212 1.391 . S
C2214 H2204 0.950 . S
C2214 C2215 1.386 . S
C2214 C2216 1.391 . S
C2215 C2214 1.386 . S
C2215 C2219 1.393 . S
C2216 H2205 0.950 . S
C2216 C2214 1.391 . S
C2216 C2217 1.400 . S
C2217 C2211 1.486 1_556 S
C2217 C2216 1.400 . S
C2217 C2218 1.398 . S
C2218 H2206 0.950 . S
C2218 C2217 1.398 . S
C2218 C2219 1.391 . S
C2219 H2207 0.950 . S
C2219 C2215 1.393 . S
C2219 C2218 1.391 . S
H2220 C2228 0.950 . S
H2221 C2233 0.950 . S
H2222 C2230 0.950 . S
H2223 C2232 0.950 . S
H2224 C2234 0.950 . S
H2225 C2236 0.950 1_556 S
H2226 C2238 0.950 . S
H2227 C2239 0.950 . S
C2228 H2220 0.950 . S
C2228 C2229 1.386 . S
C2228 C2230 1.391 . S
C2229 C2228 1.386 . S
C2229 C2233 1.393 . S
C2230 H2222 0.950 . S
C2230 C2228 1.391 . S
C2230 C2231 1.400 . S
C2231 C2230 1.400 . S
C2231 C2232 1.398 . S
C2231 C2237 1.483 1_556 S
C2232 H2223 0.950 . S
C2232 C2231 1.398 . S
C2232 C2233 1.391 . S
C2233 H2221 0.950 . S
C2233 C2229 1.393 . S
C2233 C2232 1.391 . S
C2234 H2224 0.950 . S
C2234 C2235 1.386 . S
C2234 C2236 1.391 . S
C2235 C2234 1.386 . S
C2235 C2239 1.393 . S
C2236 H2225 0.950 1_554 S
C2236 C2234 1.391 . S
C2236 C2237 1.402 . S
C2237 C2231 1.483 1_554 S
C2237 C2236 1.402 . S
C2237 C2238 1.404 . S
C2238 H2226 0.950 . S
C2238 C2237 1.404 . S
C2238 C2239 1.391 . S
C2239 H2227 0.950 . S
C2239 C2235 1.393 . S
C2239 C2238 1.391 . S
H2240 C2248 0.950 . S
H2241 C2253 0.950 . S
H2242 C2250 0.950 . S
H2243 C2252 0.950 . S
H2244 C2254 0.950 . S
H2245 C2256 0.950 . S
H2246 C2258 0.950 . S
H2247 C2259 0.950 . S
C2248 H2240 0.950 . S
C2248 C2249 1.386 . S
C2248 C2250 1.391 . S
C2249 C2248 1.386 . S
C2249 C2253 1.393 . S
C2250 H2242 0.950 . S
C2250 C2248 1.391 . S
C2250 C2251 1.400 . S
C2251 C2250 1.400 . S
C2251 C2252 1.398 . S
C2251 C2257 1.491 . S
C2252 H2243 0.950 . S
C2252 C2251 1.398 . S
C2252 C2253 1.391 . S
C2253 H2241 0.950 . S
C2253 C2249 1.393 . S
C2253 C2252 1.391 . S
C2254 H2244 0.950 . S
C2254 C2255 1.386 . S
C2254 C2256 1.391 . S
C2255 C2254 1.386 . S
C2255 C2259 1.393 . S
C2256 H2245 0.950 . S
C2256 C2254 1.391 . S
C2256 C2257 1.400 . S
C2257 C2251 1.491 . S
C2257 C2256 1.400 . S
C2257 C2258 1.398 . S
C2258 H2246 0.950 . S
C2258 C2257 1.398 . S
C2258 C2259 1.391 . S
C2259 H2247 0.950 . S
C2259 C2255 1.393 . S
C2259 C2258 1.391 . S
H2260 C2268 0.950 1_545 S
H2261 C2273 0.950 . S
H2262 C2270 0.950 . S
H2263 C2272 0.950 . S
H2264 C2274 0.950 1_565 S
H2265 C2276 0.950 . S
H2266 C2278 0.950 . S
H2267 C2279 0.950 . S
C2268 H2260 0.950 1_565 S
C2268 C2269 1.386 . S
C2268 C2270 1.391 1_565 S
C2269 C2268 1.386 . S
C2269 C2273 1.393 . S
C2270 H2262 0.950 . S
C2270 C2268 1.391 1_545 S
C2270 C2271 1.400 1_545 S
C2271 C2270 1.400 1_565 S
C2271 C2272 1.398 . S
C2271 C2277 1.491 1_565 S
C2272 H2263 0.950 . S
C2272 C2271 1.398 . S
C2272 C2273 1.391 . S
C2273 H2261 0.950 . S
C2273 C2269 1.393 . S
C2273 C2272 1.391 . S
C2274 H2264 0.950 1_545 S
C2274 C2275 1.386 . S
C2274 C2276 1.391 1_545 S
C2275 C2274 1.386 . S
C2275 C2279 1.393 . S
C2276 H2265 0.950 . S
C2276 C2274 1.391 1_565 S
C2276 C2277 1.400 1_565 S
C2277 C2271 1.491 1_545 S
C2277 C2276 1.400 1_545 S
C2277 C2278 1.398 . S
C2278 H2266 0.950 . S
C2278 C2277 1.398 . S
C2278 C2279 1.391 . S
C2279 H2267 0.950 . S
C2279 C2275 1.393 . S
C2279 C2278 1.391 . S
H2280 C2288 0.950 . S
H2281 C2293 0.950 . S
H2282 C2290 0.950 . S
H2283 C2292 0.950 1_554 S
H2284 C2294 0.950 . S
H2285 C2296 0.950 . S
H2286 C2298 0.950 . S
H2287 C2299 0.950 . S
C2288 H2280 0.950 . S
C2288 C2289 1.386 1_545 S
C2288 C2290 1.391 . S
C2289 C2288 1.386 1_565 S
C2289 C2293 1.393 . S
C2290 H2282 0.950 . S
C2290 C2288 1.391 . S
C2290 C2291 1.400 1_546 S
C2291 C2290 1.400 1_564 S
C2291 C2292 1.398 1_554 S
C2291 C2297 1.491 1_565 S
C2292 H2283 0.950 1_556 S
C2292 C2291 1.398 1_556 S
C2292 C2293 1.391 . S
C2293 H2281 0.950 . S
C2293 C2289 1.393 . S
C2293 C2292 1.391 . S
C2294 H2284 0.950 . S
C2294 C2295 1.386 1_565 S
C2294 C2296 1.391 . S
C2295 C2294 1.386 1_545 S
C2295 C2299 1.393 . S
C2296 H2285 0.950 . S
C2296 C2294 1.391 . S
C2296 C2297 1.400 1_565 S
C2297 C2291 1.491 1_545 S
C2297 C2296 1.400 1_545 S
C2297 C2298 1.398 . S
C2298 H2286 0.950 . S
C2298 C2297 1.398 . S
C2298 C2299 1.391 . S
C2299 H2287 0.950 . S
C2299 C2295 1.393 . S
C2299 C2298 1.391 . S
H2300 C2308 0.950 . S
H2301 C2313 0.950 . S
H2302 C2310 0.950 . S
H2303 C2312 0.950 1_554 S
H2304 C2314 0.950 . S
H2305 C2316 0.950 . S
H2306 C2318 0.950 . S
H2307 C2319 0.950 . S
C2308 H2300 0.950 . S
C2308 C2309 1.386 . S
C2308 C2310 1.391 . S
C2309 C2308 1.386 . S
C2309 C2313 1.393 . S
C2310 H2302 0.950 . S
C2310 C2308 1.391 . S
C2310 C2311 1.401 . S
C2311 C2310 1.401 . S
C2311 C2312 1.398 . S
C2311 C2317 1.490 1_556 S
C2312 H2303 0.950 1_556 S
C2312 C2311 1.398 . S
C2312 C2313 1.391 . S
C2313 H2301 0.950 . S
C2313 C2309 1.393 . S
C2313 C2312 1.391 . S
C2314 H2304 0.950 . S
C2314 C2315 1.386 . S
C2314 C2316 1.391 . S
C2315 C2314 1.386 . S
C2315 C2319 1.393 . S
C2316 H2305 0.950 . S
C2316 C2314 1.391 . S
C2316 C2317 1.400 . S
C2317 C2311 1.490 1_554 S
C2317 C2316 1.400 . S
C2317 C2318 1.398 . S
C2318 H2306 0.950 . S
C2318 C2317 1.398 . S
C2318 C2319 1.391 . S
C2319 H2307 0.950 . S
C2319 C2315 1.393 . S
C2319 C2318 1.391 . S
H2320 C2328 0.950 . S
H2321 C2333 0.950 . S
H2322 C2330 0.950 . S
H2323 C2332 0.950 . S
H2324 C2334 0.950 . S
H2325 C2336 0.950 . S
H2326 C2338 0.950 . S
H2327 C2339 0.950 . S
C2328 H2320 0.950 . S
C2328 C2329 1.386 . S
C2328 C2330 1.391 . S
C2329 C2328 1.386 . S
C2329 C2333 1.393 . S
C2330 H2322 0.950 . S
C2330 C2328 1.391 . S
C2330 C2331 1.400 . S
C2331 C2330 1.400 . S
C2331 C2332 1.398 . S
C2331 C2337 1.491 . S
C2332 H2323 0.950 . S
C2332 C2331 1.398 . S
C2332 C2333 1.391 . S
C2333 H2321 0.950 . S
C2333 C2329 1.393 . S
C2333 C2332 1.391 . S
C2334 H2324 0.950 . S
C2334 C2335 1.386 . S
C2334 C2336 1.391 . S
C2335 C2334 1.386 . S
C2335 C2339 1.393 . S
C2336 H2325 0.950 . S
C2336 C2334 1.391 . S
C2336 C2337 1.400 . S
C2337 C2331 1.491 . S
C2337 C2336 1.400 . S
C2337 C2338 1.398 . S
C2338 H2326 0.950 . S
C2338 C2337 1.398 . S
C2338 C2339 1.391 . S
C2339 H2327 0.950 . S
C2339 C2335 1.393 . S
C2339 C2338 1.391 . S
H2340 C2348 0.950 . S
H2341 C2353 0.950 . S
H2342 C2350 0.950 . S
H2343 C2352 0.950 . S
H2344 C2354 0.950 . S
H2345 C2356 0.950 . S
H2346 C2358 0.950 . S
H2347 C2359 0.950 . S
C2348 H2340 0.950 . S
C2348 C2349 1.386 . S
C2348 C2350 1.391 . S
C2349 C2348 1.386 . S
C2349 C2353 1.393 . S
C2350 H2342 0.950 . S
C2350 C2348 1.391 . S
C2350 C2351 1.400 . S
C2351 C2350 1.400 . S
C2351 C2352 1.398 . S
C2351 C2357 1.491 1_545 S
C2352 H2343 0.950 . S
C2352 C2351 1.398 . S
C2352 C2353 1.391 . S
C2353 H2341 0.950 . S
C2353 C2349 1.393 . S
C2353 C2352 1.391 . S
C2354 H2344 0.950 . S
C2354 C2355 1.386 . S
C2354 C2356 1.391 . S
C2355 C2354 1.386 . S
C2355 C2359 1.393 . S
C2356 H2345 0.950 . S
C2356 C2354 1.391 . S
C2356 C2357 1.400 . S
C2357 C2351 1.491 1_565 S
C2357 C2356 1.400 . S
C2357 C2358 1.398 . S
C2358 H2346 0.950 . S
C2358 C2357 1.398 . S
C2358 C2359 1.391 . S
C2359 H2347 0.950 . S
C2359 C2355 1.393 . S
C2359 C2358 1.391 . S
H2360 C2368 0.950 . S
H2361 C2373 0.950 1_545 S
H2362 C2370 0.950 . S
H2363 C2372 0.950 . S
H2364 C2374 0.950 . S
H2365 C2376 0.950 1_556 S
H2366 C2378 0.950 . S
H2367 C2379 0.950 1_565 S
C2368 H2360 0.950 . S
C2368 C2369 1.386 . S
C2368 C2370 1.391 . S
C2369 C2368 1.386 . S
C2369 C2373 1.393 . S
C2370 H2362 0.950 . S
C2370 C2368 1.391 . S
C2370 C2371 1.400 . S
C2371 C2370 1.400 . S
C2371 C2372 1.398 1_565 S
C2371 C2377 1.508 1_565 S
C2372 H2363 0.950 . S
C2372 C2371 1.398 1_545 S
C2372 C2373 1.391 1_545 S
C2373 H2361 0.950 1_565 S
C2373 C2369 1.393 . S
C2373 C2372 1.391 1_565 S
C2374 H2364 0.950 . S
C2374 C2375 1.386 . S
C2374 C2376 1.391 . S
C2375 C2374 1.386 . S
C2375 C2379 1.393 . S
C2376 H2365 0.950 1_554 S
C2376 C2374 1.391 . S
C2376 C2377 1.395 1_554 S
C2377 C2371 1.508 1_545 S
C2377 C2376 1.395 1_556 S
C2377 C2378 1.386 1_546 S
C2378 H2366 0.950 . S
C2378 C2377 1.386 1_564 S
C2378 C2379 1.391 1_565 S
C2379 H2367 0.950 1_545 S
C2379 C2375 1.393 . S
C2379 C2378 1.391 1_545 S
H2380 C2388 0.950 . S
H2381 C2393 0.950 . S
H2382 C2390 0.950 . S
H2383 C2392 0.950 . S
H2384 C2394 0.950 . S
H2385 C2396 0.950 1_556 S
H2386 C2398 0.950 . S
H2387 C2399 0.950 . S
C2388 H2380 0.950 . S
C2388 C2389 1.386 . S
C2388 C2390 1.391 . S
C2389 C2388 1.386 . S
C2389 C2393 1.393 . S
C2390 H2382 0.950 . S
C2390 C2388 1.391 . S
C2390 C2391 1.400 . S
C2391 C2390 1.400 . S
C2391 C2392 1.398 . S
C2391 C2397 1.494 . S
C2392 H2383 0.950 . S
C2392 C2391 1.398 . S
C2392 C2393 1.391 . S
C2393 H2381 0.950 . S
C2393 C2389 1.393 . S
C2393 C2392 1.391 . S
C2394 H2384 0.950 . S
C2394 C2395 1.386 . S
C2394 C2396 1.391 . S
C2395 C2394 1.386 . S
C2395 C2399 1.393 . S
C2396 H2385 0.950 1_554 S
C2396 C2394 1.391 . S
C2396 C2397 1.399 1_554 S
C2397 C2391 1.494 . S
C2397 C2396 1.399 1_556 S
C2397 C2398 1.396 1_556 S
C2398 H2386 0.950 . S
C2398 C2397 1.396 1_554 S
C2398 C2399 1.391 . S
C2399 H2387 0.950 . S
C2399 C2395 1.393 . S
C2399 C2398 1.391 . S
H2400 C2408 0.950 . S
H2401 C2413 0.950 . S
H2402 C2410 0.950 . S
H2403 C2412 0.950 . S
H2404 C2414 0.950 . S
H2405 C2416 0.950 . S
H2406 C2418 0.950 . S
H2407 C2419 0.950 . S
C2408 H2400 0.950 . S
C2408 C2409 1.386 . S
C2408 C2410 1.391 . S
C2409 C2408 1.386 . S
C2409 C2413 1.393 . S
C2410 H2402 0.950 . S
C2410 C2408 1.391 . S
C2410 C2411 1.400 . S
C2411 C2410 1.400 . S
C2411 C2412 1.398 . S
C2411 C2417 1.491 . S
C2412 H2403 0.950 . S
C2412 C2411 1.398 . S
C2412 C2413 1.391 . S
C2413 H2401 0.950 . S
C2413 C2409 1.393 . S
C2413 C2412 1.391 . S
C2414 H2404 0.950 . S
C2414 C2415 1.386 . S
C2414 C2416 1.391 . S
C2415 C2414 1.386 . S
C2415 C2419 1.393 . S
C2416 H2405 0.950 . S
C2416 C2414 1.391 . S
C2416 C2417 1.400 . S
C2417 C2411 1.491 . S
C2417 C2416 1.400 . S
C2417 C2418 1.398 . S
C2418 H2406 0.950 . S
C2418 C2417 1.398 . S
C2418 C2419 1.391 . S
C2419 H2407 0.950 . S
C2419 C2415 1.393 . S
C2419 C2418 1.391 . S
H2420 C2428 0.950 . S
H2421 C2433 0.950 . S
H2422 C2430 0.950 . S
H2423 C2432 0.950 . S
H2424 C2434 0.950 . S
H2425 C2436 0.950 . S
H2426 C2438 0.950 . S
H2427 C2439 0.950 . S
C2428 H2420 0.950 . S
C2428 C2429 1.386 . S
C2428 C2430 1.391 . S
C2429 C2428 1.386 . S
C2429 C2433 1.393 . S
C2430 H2422 0.950 . S
C2430 C2428 1.391 . S
C2430 C2431 1.400 . S
C2431 C2430 1.400 . S
C2431 C2432 1.398 . S
C2431 C2437 1.491 . S
C2432 H2423 0.950 . S
C2432 C2431 1.398 . S
C2432 C2433 1.391 . S
C2433 H2421 0.950 . S
C2433 C2429 1.393 . S
C2433 C2432 1.391 . S
C2434 H2424 0.950 . S
C2434 C2435 1.386 . S
C2434 C2436 1.391 . S
C2435 C2434 1.386 . S
C2435 C2439 1.393 . S
C2436 H2425 0.950 . S
C2436 C2434 1.391 . S
C2436 C2437 1.400 . S
C2437 C2431 1.491 . S
C2437 C2436 1.400 . S
C2437 C2438 1.398 . S
C2438 H2426 0.950 . S
C2438 C2437 1.398 . S
C2438 C2439 1.391 . S
C2439 H2427 0.950 . S
C2439 C2435 1.393 . S
C2439 C2438 1.391 . S
H2440 C2448 0.950 . S
H2441 C2453 0.950 . S
H2442 C2450 0.950 . S
H2443 C2452 0.950 . S
H2444 C2454 0.950 . S
H2445 C2456 0.950 . S
H2446 C2458 0.950 . S
H2447 C2459 0.950 . S
C2448 H2440 0.950 . S
C2448 C2449 1.386 . S
C2448 C2450 1.391 . S
C2449 C2448 1.386 . S
C2449 C2453 1.393 . S
C2450 H2442 0.950 . S
C2450 C2448 1.391 . S
C2450 C2451 1.400 . S
C2451 C2450 1.400 . S
C2451 C2452 1.398 . S
C2451 C2457 1.491 . S
C2452 H2443 0.950 . S
C2452 C2451 1.398 . S
C2452 C2453 1.391 . S
C2453 H2441 0.950 . S
C2453 C2449 1.393 . S
C2453 C2452 1.391 . S
C2454 H2444 0.950 . S
C2454 C2455 1.386 . S
C2454 C2456 1.391 . S
C2455 C2454 1.386 . S
C2455 C2459 1.393 . S
C2456 H2445 0.950 . S
C2456 C2454 1.391 . S
C2456 C2457 1.400 . S
C2457 C2451 1.491 . S
C2457 C2456 1.400 . S
C2457 C2458 1.398 . S
C2458 H2446 0.950 . S
C2458 C2457 1.398 . S
C2458 C2459 1.391 . S
C2459 H2447 0.950 . S
C2459 C2455 1.393 . S
C2459 C2458 1.391 . S
H2460 C2468 0.950 . S
H2461 C2473 0.950 . S
H2462 C2470 0.950 . S
H2463 C2472 0.950 . S
H2464 C2474 0.950 . S
H2465 C2476 0.950 . S
H2466 C2478 0.950 . S
H2467 C2479 0.950 . S
C2468 H2460 0.950 . S
C2468 C2469 1.386 . S
C2468 C2470 1.391 . S
C2469 C2468 1.386 . S
C2469 C2473 1.393 . S
C2470 H2462 0.950 . S
C2470 C2468 1.391 . S
C2470 C2471 1.400 . S
C2471 C2470 1.400 . S
C2471 C2472 1.398 . S
C2471 C2477 1.491 . S
C2472 H2463 0.950 . S
C2472 C2471 1.398 . S
C2472 C2473 1.391 . S
C2473 H2461 0.950 . S
C2473 C2469 1.393 . S
C2473 C2472 1.391 . S
C2474 H2464 0.950 . S
C2474 C2475 1.386 . S
C2474 C2476 1.391 . S
C2475 C2474 1.386 . S
C2475 C2479 1.393 . S
C2476 H2465 0.950 . S
C2476 C2474 1.391 . S
C2476 C2477 1.400 . S
C2477 C2471 1.491 . S
C2477 C2476 1.400 . S
C2477 C2478 1.398 . S
C2478 H2466 0.950 . S
C2478 C2477 1.398 . S
C2478 C2479 1.391 . S
C2479 H2467 0.950 . S
C2479 C2475 1.393 . S
C2479 C2478 1.391 . S
H2480 C2488 0.950 . S
H2481 C2493 0.950 . S
H2482 C2490 0.950 . S
H2483 C2492 0.950 . S
H2484 C2494 0.950 . S
H2485 C2496 0.950 . S
H2486 C2498 0.950 . S
H2487 C2499 0.950 . S
C2488 H2480 0.950 . S
C2488 C2489 1.386 . S
C2488 C2490 1.391 . S
C2489 C2488 1.386 . S
C2489 C2493 1.393 . S
C2490 H2482 0.950 . S
C2490 C2488 1.391 . S
C2490 C2491 1.400 . S
C2491 C2490 1.400 . S
C2491 C2492 1.398 . S
C2491 C2497 1.491 . S
C2492 H2483 0.950 . S
C2492 C2491 1.398 . S
C2492 C2493 1.391 . S
C2493 H2481 0.950 . S
C2493 C2489 1.393 . S
C2493 C2492 1.391 . S
C2494 H2484 0.950 . S
C2494 C2495 1.386 . S
C2494 C2496 1.391 . S
C2495 C2494 1.386 . S
C2495 C2499 1.393 . S
C2496 H2485 0.950 . S
C2496 C2494 1.391 . S
C2496 C2497 1.400 . S
C2497 C2491 1.491 . S
C2497 C2496 1.400 . S
C2497 C2498 1.398 . S
C2498 H2486 0.950 . S
C2498 C2497 1.398 . S
C2498 C2499 1.391 . S
C2499 H2487 0.950 . S
C2499 C2495 1.393 . S
C2499 C2498 1.391 . S
H2500 C2508 0.950 . S
H2501 C2513 0.950 . S
H2502 C2510 0.950 . S
H2503 C2512 0.950 . S
H2504 C2514 0.950 . S
H2505 C2516 0.950 . S
H2506 C2518 0.950 . S
H2507 C2519 0.950 . S
C2508 H2500 0.950 . S
C2508 C2509 1.386 . S
C2508 C2510 1.391 . S
C2509 C2508 1.386 . S
C2509 C2513 1.393 . S
C2510 H2502 0.950 . S
C2510 C2508 1.391 . S
C2510 C2511 1.400 . S
C2511 C2510 1.400 . S
C2511 C2512 1.398 . S
C2511 C2517 1.491 . S
C2512 H2503 0.950 . S
C2512 C2511 1.398 . S
C2512 C2513 1.391 . S
C2513 H2501 0.950 . S
C2513 C2509 1.393 . S
C2513 C2512 1.391 . S
C2514 H2504 0.950 . S
C2514 C2515 1.386 . S
C2514 C2516 1.391 . S
C2515 C2514 1.386 . S
C2515 C2519 1.393 . S
C2516 H2505 0.950 . S
C2516 C2514 1.391 . S
C2516 C2517 1.400 . S
C2517 C2511 1.491 . S
C2517 C2516 1.400 . S
C2517 C2518 1.398 . S
C2518 H2506 0.950 . S
C2518 C2517 1.398 . S
C2518 C2519 1.391 . S
C2519 H2507 0.950 . S
C2519 C2515 1.393 . S
C2519 C2518 1.391 . S
H2520 C2528 0.950 . S
H2521 C2533 0.950 . S
H2522 C2530 0.950 . S
H2523 C2532 0.950 . S
H2524 C2534 0.950 . S
H2525 C2536 0.950 . S
H2526 C2538 0.950 . S
H2527 C2539 0.950 . S
C2528 H2520 0.950 . S
C2528 C2529 1.386 . S
C2528 C2530 1.391 . S
C2529 C2528 1.386 . S
C2529 C2533 1.393 . S
C2530 H2522 0.950 . S
C2530 C2528 1.391 . S
C2530 C2531 1.400 . S
C2531 C2530 1.400 . S
C2531 C2532 1.398 . S
C2531 C2537 1.491 . S
C2532 H2523 0.950 . S
C2532 C2531 1.398 . S
C2532 C2533 1.391 . S
C2533 H2521 0.950 . S
C2533 C2529 1.393 . S
C2533 C2532 1.391 . S
C2534 H2524 0.950 . S
C2534 C2535 1.386 . S
C2534 C2536 1.391 . S
C2535 C2534 1.386 . S
C2535 C2539 1.393 . S
C2536 H2525 0.950 . S
C2536 C2534 1.391 . S
C2536 C2537 1.400 . S
C2537 C2531 1.491 . S
C2537 C2536 1.400 . S
C2537 C2538 1.398 . S
C2538 H2526 0.950 . S
C2538 C2537 1.398 . S
C2538 C2539 1.391 . S
C2539 H2527 0.950 . S
C2539 C2535 1.393 . S
C2539 C2538 1.391 . S
H2540 C2548 0.950 . S
H2541 C2553 0.950 . S
H2542 C2550 0.950 . S
H2543 C2552 0.950 . S
H2544 C2554 0.950 . S
H2545 C2556 0.950 . S
H2546 C2558 0.950 . S
H2547 C2559 0.950 . S
C2548 H2540 0.950 . S
C2548 C2549 1.386 . S
C2548 C2550 1.391 . S
C2549 C2548 1.386 . S
C2549 C2553 1.393 . S
C2550 H2542 0.950 . S
C2550 C2548 1.391 . S
C2550 C2551 1.400 . S
C2551 C2550 1.400 . S
C2551 C2552 1.398 . S
C2551 C2557 1.491 . S
C2552 H2543 0.950 . S
C2552 C2551 1.398 . S
C2552 C2553 1.391 . S
C2553 H2541 0.950 . S
C2553 C2549 1.393 . S
C2553 C2552 1.391 . S
C2554 H2544 0.950 . S
C2554 C2555 1.386 . S
C2554 C2556 1.391 . S
C2555 C2554 1.386 . S
C2555 C2559 1.393 . S
C2556 H2545 0.950 . S
C2556 C2554 1.391 . S
C2556 C2557 1.400 . S
C2557 C2551 1.491 . S
C2557 C2556 1.400 . S
C2557 C2558 1.398 . S
C2558 H2546 0.950 . S
C2558 C2557 1.398 . S
C2558 C2559 1.391 . S
C2559 H2547 0.950 . S
C2559 C2555 1.393 . S
C2559 C2558 1.391 . S
H2560 C2568 0.950 . S
H2561 C2573 0.950 . S
H2562 C2570 0.950 . S
H2563 C2572 0.950 . S
H2564 C2574 0.950 . S
H2565 C2576 0.950 . S
H2566 C2578 0.950 . S
H2567 C2579 0.950 . S
C2568 H2560 0.950 . S
C2568 C2569 1.386 . S
C2568 C2570 1.391 . S
C2569 C2568 1.386 . S
C2569 C2573 1.393 . S
C2570 H2562 0.950 . S
C2570 C2568 1.391 . S
C2570 C2571 1.400 . S
C2571 C2570 1.400 . S
C2571 C2572 1.398 . S
C2571 C2577 1.491 . S
C2572 H2563 0.950 . S
C2572 C2571 1.398 . S
C2572 C2573 1.391 . S
C2573 H2561 0.950 . S
C2573 C2569 1.393 . S
C2573 C2572 1.391 . S
C2574 H2564 0.950 . S
C2574 C2575 1.386 . S
C2574 C2576 1.391 . S
C2575 C2574 1.386 . S
C2575 C2579 1.393 . S
C2576 H2565 0.950 . S
C2576 C2574 1.391 . S
C2576 C2577 1.400 . S
C2577 C2571 1.491 . S
C2577 C2576 1.400 . S
C2577 C2578 1.398 . S
C2578 H2566 0.950 . S
C2578 C2577 1.398 . S
C2578 C2579 1.391 . S
C2579 H2567 0.950 . S
C2579 C2575 1.393 . S
C2579 C2578 1.391 . S
H2580 C2588 0.950 . S
H2581 C2593 0.950 . S
H2582 C2590 0.950 . S
H2583 C2592 0.950 . S
H2584 C2594 0.950 . S
H2585 C2596 0.950 . S
H2586 C2598 0.950 . S
H2587 C2599 0.950 . S
C2588 H2580 0.950 . S
C2588 C2589 1.386 . S
C2588 C2590 1.391 . S
C2589 C2588 1.386 . S
C2589 C2593 1.393 . S
C2590 H2582 0.950 . S
C2590 C2588 1.391 . S
C2590 C2591 1.400 . S
C2591 C2590 1.400 . S
C2591 C2592 1.398 . S
C2591 C2597 1.491 . S
C2592 H2583 0.950 . S
C2592 C2591 1.398 . S
C2592 C2593 1.391 . S
C2593 H2581 0.950 . S
C2593 C2589 1.393 . S
C2593 C2592 1.391 . S
C2594 H2584 0.950 . S
C2594 C2595 1.386 . S
C2594 C2596 1.391 . S
C2595 C2594 1.386 . S
C2595 C2599 1.393 . S
C2596 H2585 0.950 . S
C2596 C2594 1.391 . S
C2596 C2597 1.400 . S
C2597 C2591 1.491 . S
C2597 C2596 1.400 . S
C2597 C2598 1.398 . S
C2598 H2586 0.950 . S
C2598 C2597 1.398 . S
C2598 C2599 1.391 . S
C2599 H2587 0.950 . S
C2599 C2595 1.393 . S
C2599 C2598 1.391 . S
H2600 C2608 0.943 1_554 S
H2601 C2613 0.950 . S
H2602 C2610 0.950 . S
H2603 C2612 0.950 . S
H2604 C2614 0.950 . S
H2605 C2616 0.950 . S
H2606 C2618 0.950 . S
H2607 C2619 0.950 . S
C2608 H2600 0.943 1_556 S
C2608 C2609 1.386 . S
C2608 C2610 1.391 . S
C2609 C2608 1.386 . S
C2609 C2613 1.393 . S
C2610 H2602 0.950 . S
C2610 C2608 1.391 . S
C2610 C2611 1.400 . S
C2611 C2610 1.400 . S
C2611 C2612 1.398 . S
C2611 C2617 1.491 . S
C2612 H2603 0.950 . S
C2612 C2611 1.398 . S
C2612 C2613 1.391 . S
C2613 H2601 0.950 . S
C2613 C2609 1.393 . S
C2613 C2612 1.391 . S
C2614 H2604 0.950 . S
C2614 C2615 1.386 . S
C2614 C2616 1.391 . S
C2615 C2614 1.386 . S
C2615 C2619 1.393 . S
C2616 H2605 0.950 . S
C2616 C2614 1.391 . S
C2616 C2617 1.400 . S
C2617 C2611 1.491 . S
C2617 C2616 1.400 . S
C2617 C2618 1.398 . S
C2618 H2606 0.950 . S
C2618 C2617 1.398 . S
C2618 C2619 1.391 . S
C2619 H2607 0.950 . S
C2619 C2615 1.393 . S
C2619 C2618 1.391 . S
H2620 C2628 0.950 . S
H2621 C2633 0.950 . S
H2622 C2630 0.950 . S
H2623 C2632 0.950 . S
H2624 C2634 0.950 . S
H2625 C2636 0.950 . S
H2626 C2638 0.950 . S
H2627 C2639 0.950 . S
C2628 H2620 0.950 . S
C2628 C2629 1.386 . S
C2628 C2630 1.391 . S
C2629 C2628 1.386 . S
C2629 C2633 1.393 . S
C2630 H2622 0.950 . S
C2630 C2628 1.391 . S
C2630 C2631 1.400 . S
C2631 C2630 1.400 . S
C2631 C2632 1.398 . S
C2631 C2637 1.491 . S
C2632 H2623 0.950 . S
C2632 C2631 1.398 . S
C2632 C2633 1.391 . S
C2633 H2621 0.950 . S
C2633 C2629 1.393 . S
C2633 C2632 1.391 . S
C2634 H2624 0.950 . S
C2634 C2635 1.386 . S
C2634 C2636 1.391 . S
C2635 C2634 1.386 . S
C2635 C2639 1.393 . S
C2636 H2625 0.950 . S
C2636 C2634 1.391 . S
C2636 C2637 1.400 . S
C2637 C2631 1.491 . S
C2637 C2636 1.400 . S
C2637 C2638 1.398 . S
C2638 H2626 0.950 . S
C2638 C2637 1.398 . S
C2638 C2639 1.391 . S
C2639 H2627 0.950 . S
C2639 C2635 1.393 . S
C2639 C2638 1.391 . S
H2640 C2648 0.950 . S
H2641 C2653 0.950 . S
H2642 C2650 0.950 . S
H2643 C2652 0.950 . S
H2644 C2654 0.950 . S
H2645 C2656 0.950 . S
H2646 C2658 0.950 . S
H2647 C2659 0.950 . S
C2648 H2640 0.950 . S
C2648 C2649 1.386 . S
C2648 C2650 1.391 . S
C2649 C2648 1.386 . S
C2649 C2653 1.393 . S
C2650 H2642 0.950 . S
C2650 C2648 1.391 . S
C2650 C2651 1.400 . S
C2651 C2650 1.400 . S
C2651 C2652 1.398 . S
C2651 C2657 1.491 . S
C2652 H2643 0.950 . S
C2652 C2651 1.398 . S
C2652 C2653 1.391 . S
C2653 H2641 0.950 . S
C2653 C2649 1.393 . S
C2653 C2652 1.391 . S
C2654 H2644 0.950 . S
C2654 C2655 1.386 . S
C2654 C2656 1.391 . S
C2655 C2654 1.386 . S
C2655 C2659 1.393 . S
C2656 H2645 0.950 . S
C2656 C2654 1.391 . S
C2656 C2657 1.400 . S
C2657 C2651 1.491 . S
C2657 C2656 1.400 . S
C2657 C2658 1.398 . S
C2658 H2646 0.950 . S
C2658 C2657 1.398 . S
C2658 C2659 1.391 . S
C2659 H2647 0.950 . S
C2659 C2655 1.393 . S
C2659 C2658 1.391 . S
H2660 C2668 0.950 . S
H2661 C2673 0.950 . S
H2662 C2670 0.950 . S
H2663 C2672 0.950 . S
H2664 C2674 0.950 . S
H2665 C2676 0.950 . S
H2666 C2678 0.950 . S
H2667 C2679 0.950 . S
C2668 H2660 0.950 . S
C2668 C2669 1.386 . S
C2668 C2670 1.391 . S
C2669 C2668 1.386 . S
C2669 C2673 1.393 . S
C2670 H2662 0.950 . S
C2670 C2668 1.391 . S
C2670 C2671 1.400 . S
C2671 C2670 1.400 . S
C2671 C2672 1.398 . S
C2671 C2677 1.491 . S
C2672 H2663 0.950 . S
C2672 C2671 1.398 . S
C2672 C2673 1.391 . S
C2673 H2661 0.950 . S
C2673 C2669 1.393 . S
C2673 C2672 1.391 . S
C2674 H2664 0.950 . S
C2674 C2675 1.386 . S
C2674 C2676 1.391 . S
C2675 C2674 1.386 . S
C2675 C2679 1.393 . S
C2676 H2665 0.950 . S
C2676 C2674 1.391 . S
C2676 C2677 1.400 . S
C2677 C2671 1.491 . S
C2677 C2676 1.400 . S
C2677 C2678 1.398 . S
C2678 H2666 0.950 . S
C2678 C2677 1.398 . S
C2678 C2679 1.391 . S
C2679 H2667 0.950 . S
C2679 C2675 1.393 . S
C2679 C2678 1.391 . S
H2680 C2688 0.950 . S
H2681 C2693 0.950 1_556 S
H2682 C2690 0.950 . S
H2683 C2692 0.950 . S
H2684 C2694 0.950 . S
H2685 C2696 0.950 . S
H2686 C2698 0.950 . S
H2687 C2699 0.950 . S
C2688 H2680 0.950 . S
C2688 C2689 1.386 . S
C2688 C2690 1.391 . S
C2689 C2688 1.386 . S
C2689 C2693 1.393 . S
C2690 H2682 0.950 . S
C2690 C2688 1.391 . S
C2690 C2691 1.400 . S
C2691 C2690 1.400 . S
C2691 C2692 1.398 . S
C2691 C2697 1.491 . S
C2692 H2683 0.950 . S
C2692 C2691 1.398 . S
C2692 C2693 1.391 . S
C2693 H2681 0.950 1_554 S
C2693 C2689 1.393 . S
C2693 C2692 1.391 . S
C2694 H2684 0.950 . S
C2694 C2695 1.386 . S
C2694 C2696 1.391 . S
C2695 C2694 1.386 . S
C2695 C2699 1.393 . S
C2696 H2685 0.950 . S
C2696 C2694 1.391 . S
C2696 C2697 1.400 . S
C2697 C2691 1.491 . S
C2697 C2696 1.400 . S
C2697 C2698 1.398 . S
C2698 H2686 0.950 . S
C2698 C2697 1.398 . S
C2698 C2699 1.391 . S
C2699 H2687 0.950 . S
C2699 C2695 1.393 . S
C2699 C2698 1.391 . S
H2700 C2708 0.950 . S
H2701 C2713 0.950 . S
H2702 C2710 0.950 . S
H2703 C2712 0.950 . S
H2704 C2714 0.950 . S
H2705 C2716 0.950 . S
H2706 C2718 0.950 . S
H2707 C2719 0.950 . S
C2708 H2700 0.950 . S
C2708 C2709 1.386 . S
C2708 C2710 1.391 . S
C2709 C2708 1.386 . S
C2709 C2713 1.393 . S
C2710 H2702 0.950 . S
C2710 C2708 1.391 . S
C2710 C2711 1.400 . S
C2711 C2710 1.400 . S
C2711 C2712 1.398 . S
C2711 C2717 1.491 . S
C2712 H2703 0.950 . S
C2712 C2711 1.398 . S
C2712 C2713 1.391 . S
C2713 H2701 0.950 . S
C2713 C2709 1.393 . S
C2713 C2712 1.391 . S
C2714 H2704 0.950 . S
C2714 C2715 1.386 . S
C2714 C2716 1.391 . S
C2715 C2714 1.386 . S
C2715 C2719 1.393 . S
C2716 H2705 0.950 . S
C2716 C2714 1.391 . S
C2716 C2717 1.400 . S
C2717 C2711 1.491 . S
C2717 C2716 1.400 . S
C2717 C2718 1.398 . S
C2718 H2706 0.950 . S
C2718 C2717 1.398 . S
C2718 C2719 1.391 . S
C2719 H2707 0.950 . S
C2719 C2715 1.393 . S
C2719 C2718 1.391 . S
H2720 C2728 0.950 1_554 S
H2721 C2733 0.950 . S
H2722 C2730 0.950 . S
H2723 C2732 0.950 . S
H2724 C2734 0.950 . S
H2725 C2736 0.950 . S
H2726 C2738 0.950 . S
H2727 C2739 0.950 . S
C2728 H2720 0.950 1_556 S
C2728 C2729 1.386 . S
C2728 C2730 1.391 . S
C2729 C2728 1.386 . S
C2729 C2733 1.393 . S
C2730 H2722 0.950 . S
C2730 C2728 1.391 . S
C2730 C2731 1.400 . S
C2731 C2730 1.400 . S
C2731 C2732 1.398 . S
C2731 C2737 1.491 . S
C2732 H2723 0.950 . S
C2732 C2731 1.398 . S
C2732 C2733 1.391 . S
C2733 H2721 0.950 . S
C2733 C2729 1.393 . S
C2733 C2732 1.391 . S
C2734 H2724 0.950 . S
C2734 C2735 1.386 . S
C2734 C2736 1.391 . S
C2735 C2734 1.386 . S
C2735 C2739 1.393 . S
C2736 H2725 0.950 . S
C2736 C2734 1.391 . S
C2736 C2737 1.400 . S
C2737 C2731 1.491 . S
C2737 C2736 1.400 . S
C2737 C2738 1.398 . S
C2738 H2726 0.950 . S
C2738 C2737 1.398 . S
C2738 C2739 1.391 . S
C2739 H2727 0.950 . S
C2739 C2735 1.393 . S
C2739 C2738 1.391 . S
H2740 C2748 0.950 . S
H2741 C2753 0.950 . S
H2742 C2750 0.950 . S
H2743 C2752 0.950 . S
H2744 C2754 0.950 1_554 S
H2745 C2756 0.950 . S
H2746 C2758 0.950 . S
H2747 C2759 0.950 . S
C2748 H2740 0.950 . S
C2748 C2749 1.386 . S
C2748 C2750 1.391 . S
C2749 C2748 1.386 . S
C2749 C2753 1.393 . S
C2750 H2742 0.950 . S
C2750 C2748 1.391 . S
C2750 C2751 1.400 . S
C2751 C2750 1.400 . S
C2751 C2752 1.398 . S
C2751 C2757 1.491 . S
C2752 H2743 0.950 . S
C2752 C2751 1.398 . S
C2752 C2753 1.391 . S
C2753 H2741 0.950 . S
C2753 C2749 1.393 . S
C2753 C2752 1.391 . S
C2754 H2744 0.950 1_556 S
C2754 C2755 1.386 . S
C2754 C2756 1.391 . S
C2755 C2754 1.386 . S
C2755 C2759 1.393 . S
C2756 H2745 0.950 . S
C2756 C2754 1.391 . S
C2756 C2757 1.400 . S
C2757 C2751 1.491 . S
C2757 C2756 1.400 . S
C2757 C2758 1.398 . S
C2758 H2746 0.950 . S
C2758 C2757 1.398 . S
C2758 C2759 1.391 . S
C2759 H2747 0.950 . S
C2759 C2755 1.393 . S
C2759 C2758 1.391 . S
H2760 C2768 0.950 . S
H2761 C2773 0.950 . S
H2762 C2770 0.950 . S
H2763 C2772 0.950 . S
H2764 C2774 0.950 . S
H2765 C2776 0.950 . S
H2766 C2778 0.950 . S
H2767 C2779 0.950 . S
C2768 H2760 0.950 . S
C2768 C2769 1.386 . S
C2768 C2770 1.391 . S
C2769 C2768 1.386 . S
C2769 C2773 1.393 . S
C2770 H2762 0.950 . S
C2770 C2768 1.391 . S
C2770 C2771 1.400 . S
C2771 C2770 1.400 . S
C2771 C2772 1.398 . S
C2771 C2777 1.491 . S
C2772 H2763 0.950 . S
C2772 C2771 1.398 . S
C2772 C2773 1.391 . S
C2773 H2761 0.950 . S
C2773 C2769 1.393 . S
C2773 C2772 1.391 . S
C2774 H2764 0.950 . S
C2774 C2775 1.386 . S
C2774 C2776 1.391 . S
C2775 C2774 1.386 . S
C2775 C2779 1.393 . S
C2776 H2765 0.950 . S
C2776 C2774 1.391 . S
C2776 C2777 1.400 . S
C2777 C2771 1.491 . S
C2777 C2776 1.400 . S
C2777 C2778 1.398 . S
C2778 H2766 0.950 . S
C2778 C2777 1.398 . S
C2778 C2779 1.391 . S
C2779 H2767 0.950 . S
C2779 C2775 1.393 . S
C2779 C2778 1.391 . S
H2780 C2788 0.950 . S
H2781 C2793 0.950 . S
H2782 C2790 0.950 . S
H2783 C2792 0.950 . S
H2784 C2794 0.950 . S
H2785 C2796 0.950 . S
H2786 C2798 0.950 . S
H2787 C2799 0.950 . S
C2788 H2780 0.950 . S
C2788 C2789 1.386 . S
C2788 C2790 1.391 . S
C2789 C2788 1.386 . S
C2789 C2793 1.393 . S
C2790 H2782 0.950 . S
C2790 C2788 1.391 . S
C2790 C2791 1.400 . S
C2791 C2790 1.400 . S
C2791 C2792 1.398 . S
C2791 C2797 1.491 . S
C2792 H2783 0.950 . S
C2792 C2791 1.398 . S
C2792 C2793 1.391 . S
C2793 H2781 0.950 . S
C2793 C2789 1.393 . S
C2793 C2792 1.391 . S
C2794 H2784 0.950 . S
C2794 C2795 1.386 . S
C2794 C2796 1.391 . S
C2795 C2794 1.386 . S
C2795 C2799 1.393 . S
C2796 H2785 0.950 . S
C2796 C2794 1.391 . S
C2796 C2797 1.400 . S
C2797 C2791 1.491 . S
C2797 C2796 1.400 . S
C2797 C2798 1.398 . S
C2798 H2786 0.950 . S
C2798 C2797 1.398 . S
C2798 C2799 1.391 . S
C2799 H2787 0.950 . S
C2799 C2795 1.393 . S
C2799 C2798 1.391 . S
H2800 C2808 0.950 . S
H2801 C2813 0.950 1_556 S
H2802 C2810 0.950 . S
H2803 C2812 0.950 . S
H2804 C2814 0.950 . S
H2805 C2816 0.950 . S
H2806 C2818 0.950 . S
H2807 C2819 0.950 . S
C2808 H2800 0.950 . S
C2808 C2809 1.386 . S
C2808 C2810 1.391 . S
C2809 C2808 1.386 . S
C2809 C2813 1.393 . S
C2810 H2802 0.950 . S
C2810 C2808 1.391 . S
C2810 C2811 1.400 . S
C2811 C2810 1.400 . S
C2811 C2812 1.398 . S
C2811 C2817 1.491 . S
C2812 H2803 0.950 . S
C2812 C2811 1.398 . S
C2812 C2813 1.391 . S
C2813 H2801 0.950 1_554 S
C2813 C2809 1.393 . S
C2813 C2812 1.391 . S
C2814 H2804 0.950 . S
C2814 C2815 1.386 . S
C2814 C2816 1.391 . S
C2815 C2814 1.386 . S
C2815 C2819 1.393 . S
C2816 H2805 0.950 . S
C2816 C2814 1.391 . S
C2816 C2817 1.400 . S
C2817 C2811 1.491 . S
C2817 C2816 1.400 . S
C2817 C2818 1.398 . S
C2818 H2806 0.950 . S
C2818 C2817 1.398 . S
C2818 C2819 1.391 . S
C2819 H2807 0.950 . S
C2819 C2815 1.393 . S
C2819 C2818 1.391 . S
H2820 C2828 0.950 . S
H2821 C2833 0.950 . S
H2822 C2830 0.950 . S
H2823 C2832 0.950 . S
H2824 C2834 0.950 . S
H2825 C2836 0.950 . S
H2826 C2838 0.950 . S
H2827 C2839 0.950 . S
C2828 H2820 0.950 . S
C2828 C2829 1.386 . S
C2828 C2830 1.391 . S
C2829 C2828 1.386 . S
C2829 C2833 1.393 . S
C2830 H2822 0.950 . S
C2830 C2828 1.391 . S
C2830 C2831 1.400 . S
C2831 C2830 1.400 . S
C2831 C2832 1.398 . S
C2831 C2837 1.491 . S
C2832 H2823 0.950 . S
C2832 C2831 1.398 . S
C2832 C2833 1.391 . S
C2833 H2821 0.950 . S
C2833 C2829 1.393 . S
C2833 C2832 1.391 . S
C2834 H2824 0.950 . S
C2834 C2835 1.386 . S
C2834 C2836 1.391 . S
C2835 C2834 1.386 . S
C2835 C2839 1.393 . S
C2836 H2825 0.950 . S
C2836 C2834 1.391 . S
C2836 C2837 1.400 . S
C2837 C2831 1.491 . S
C2837 C2836 1.400 . S
C2837 C2838 1.398 . S
C2838 H2826 0.950 . S
C2838 C2837 1.398 . S
C2838 C2839 1.391 . S
C2839 H2827 0.950 . S
C2839 C2835 1.393 . S
C2839 C2838 1.391 . S
H2840 C2848 0.950 . S
H2841 C2853 0.950 . S
H2842 C2850 0.950 . S
H2843 C2852 0.950 . S
H2844 C2854 0.950 . S
H2845 C2856 0.950 . S
H2846 C2858 0.950 . S
H2847 C2859 0.950 . S
C2848 H2840 0.950 . S
C2848 C2849 1.386 . S
C2848 C2850 1.391 . S
C2849 C2848 1.386 . S
C2849 C2853 1.393 . S
C2850 H2842 0.950 . S
C2850 C2848 1.391 . S
C2850 C2851 1.400 . S
C2851 C2850 1.400 . S
C2851 C2852 1.398 . S
C2851 C2857 1.491 . S
C2852 H2843 0.950 . S
C2852 C2851 1.398 . S
C2852 C2853 1.391 . S
C2853 H2841 0.950 . S
C2853 C2849 1.393 . S
C2853 C2852 1.391 . S
C2854 H2844 0.950 . S
C2854 C2855 1.386 . S
C2854 C2856 1.391 . S
C2855 C2854 1.386 . S
C2855 C2859 1.393 . S
C2856 H2845 0.950 . S
C2856 C2854 1.391 . S
C2856 C2857 1.400 . S
C2857 C2851 1.491 . S
C2857 C2856 1.400 . S
C2857 C2858 1.398 . S
C2858 H2846 0.950 . S
C2858 C2857 1.398 . S
C2858 C2859 1.391 . S
C2859 H2847 0.950 . S
C2859 C2855 1.393 . S
C2859 C2858 1.391 . S
H2860 C2868 0.950 . S
H2861 C2873 0.950 . S
H2862 C2870 0.950 . S
H2863 C2872 0.950 . S
H2864 C2874 0.950 . S
H2865 C2876 0.950 . S
H2866 C2878 0.950 . S
H2867 C2879 0.950 . S
C2868 H2860 0.950 . S
C2868 C2869 1.386 . S
C2868 C2870 1.391 . S
C2869 C2868 1.386 . S
C2869 C2873 1.393 . S
C2870 H2862 0.950 . S
C2870 C2868 1.391 . S
C2870 C2871 1.400 . S
C2871 C2870 1.400 . S
C2871 C2872 1.398 . S
C2871 C2877 1.491 . S
C2872 H2863 0.950 . S
C2872 C2871 1.398 . S
C2872 C2873 1.391 . S
C2873 H2861 0.950 . S
C2873 C2869 1.393 . S
C2873 C2872 1.391 . S
C2874 H2864 0.950 . S
C2874 C2875 1.386 . S
C2874 C2876 1.391 . S
C2875 C2874 1.386 . S
C2875 C2879 1.393 . S
C2876 H2865 0.950 . S
C2876 C2874 1.391 . S
C2876 C2877 1.400 . S
C2877 C2871 1.491 . S
C2877 C2876 1.400 . S
C2877 C2878 1.398 . S
C2878 H2866 0.950 . S
C2878 C2877 1.398 . S
C2878 C2879 1.391 . S
C2879 H2867 0.950 . S
C2879 C2875 1.393 . S
C2879 C2878 1.391 . S
H2880 C2888 0.950 . S
H2881 C2893 0.950 . S
H2882 C2890 0.950 . S
H2883 C2892 0.950 . S
H2884 C2894 0.950 . S
H2885 C2896 0.950 . S
H2886 C2898 0.950 . S
H2887 C2899 0.950 . S
C2888 H2880 0.950 . S
C2888 C2889 1.386 . S
C2888 C2890 1.391 . S
C2889 C2888 1.386 . S
C2889 C2893 1.393 . S
C2890 H2882 0.950 . S
C2890 C2888 1.391 . S
C2890 C2891 1.400 . S
C2891 C2890 1.400 . S
C2891 C2892 1.398 . S
C2891 C2897 1.491 . S
C2892 H2883 0.950 . S
C2892 C2891 1.398 . S
C2892 C2893 1.391 . S
C2893 H2881 0.950 . S
C2893 C2889 1.393 . S
C2893 C2892 1.391 . S
C2894 H2884 0.950 . S
C2894 C2895 1.386 . S
C2894 C2896 1.391 . S
C2895 C2894 1.386 . S
C2895 C2899 1.393 . S
C2896 H2885 0.950 . S
C2896 C2894 1.391 . S
C2896 C2897 1.400 . S
C2897 C2891 1.491 . S
C2897 C2896 1.400 . S
C2897 C2898 1.398 . S
C2898 H2886 0.950 . S
C2898 C2897 1.398 . S
C2898 C2899 1.391 . S
C2899 H2887 0.950 . S
C2899 C2895 1.393 . S
C2899 C2898 1.391 . S
H2900 C2908 0.950 . S
H2901 C2913 0.950 1_556 S
H2902 C2910 0.950 . S
H2903 C2912 0.950 . S
H2904 C2914 0.950 . S
H2905 C2916 0.950 . S
H2906 C2918 0.950 . S
H2907 C2919 0.950 . S
C2908 H2900 0.950 . S
C2908 C2909 1.386 . S
C2908 C2910 1.391 . S
C2909 C2908 1.386 . S
C2909 C2913 1.393 . S
C2910 H2902 0.950 . S
C2910 C2908 1.391 . S
C2910 C2911 1.400 . S
C2911 C2910 1.400 . S
C2911 C2912 1.398 . S
C2911 C2917 1.491 . S
C2912 H2903 0.950 . S
C2912 C2911 1.398 . S
C2912 C2913 1.391 . S
C2913 H2901 0.950 1_554 S
C2913 C2909 1.393 . S
C2913 C2912 1.391 . S
C2914 H2904 0.950 . S
C2914 C2915 1.386 . S
C2914 C2916 1.391 . S
C2915 C2914 1.386 . S
C2915 C2919 1.393 . S
C2916 H2905 0.950 . S
C2916 C2914 1.391 . S
C2916 C2917 1.400 . S
C2917 C2911 1.491 . S
C2917 C2916 1.400 . S
C2917 C2918 1.398 . S
C2918 H2906 0.950 . S
C2918 C2917 1.398 . S
C2918 C2919 1.391 . S
C2919 H2907 0.950 . S
C2919 C2915 1.393 . S
C2919 C2918 1.391 . S
H2920 C2928 0.950 . S
H2921 C2933 0.950 . S
H2922 C2930 0.950 . S
H2923 C2932 0.950 . S
H2924 C2934 0.950 . S
H2925 C2936 0.950 . S
H2926 C2938 0.950 . S
H2927 C2939 0.950 . S
C2928 H2920 0.950 . S
C2928 C2929 1.386 . S
C2928 C2930 1.391 . S
C2929 C2928 1.386 . S
C2929 C2933 1.393 . S
C2930 H2922 0.950 . S
C2930 C2928 1.391 . S
C2930 C2931 1.400 . S
C2931 C2930 1.400 . S
C2931 C2932 1.398 . S
C2931 C2937 1.491 . S
C2932 H2923 0.950 . S
C2932 C2931 1.398 . S
C2932 C2933 1.391 . S
C2933 H2921 0.950 . S
C2933 C2929 1.393 . S
C2933 C2932 1.391 . S
C2934 H2924 0.950 . S
C2934 C2935 1.386 . S
C2934 C2936 1.391 . S
C2935 C2934 1.386 . S
C2935 C2939 1.393 . S
C2936 H2925 0.950 . S
C2936 C2934 1.391 . S
C2936 C2937 1.400 . S
C2937 C2931 1.491 . S
C2937 C2936 1.400 . S
C2937 C2938 1.398 . S
C2938 H2926 0.950 . S
C2938 C2937 1.398 . S
C2938 C2939 1.391 . S
C2939 H2927 0.950 . S
C2939 C2935 1.393 . S
C2939 C2938 1.391 . S
H2940 C2948 0.950 . S
H2941 C2953 0.950 . S
H2942 C2950 0.950 . S
H2943 C2952 0.950 . S
H2944 C2954 0.950 1_554 S
H2945 C2956 0.950 . S
H2946 C2958 0.950 . S
H2947 C2959 0.950 . S
C2948 H2940 0.950 . S
C2948 C2949 1.386 . S
C2948 C2950 1.391 . S
C2949 C2948 1.386 . S
C2949 C2953 1.393 . S
C2950 H2942 0.950 . S
C2950 C2948 1.391 . S
C2950 C2951 1.400 . S
C2951 C2950 1.400 . S
C2951 C2952 1.398 . S
C2951 C2957 1.491 . S
C2952 H2943 0.950 . S
C2952 C2951 1.398 . S
C2952 C2953 1.391 . S
C2953 H2941 0.950 . S
C2953 C2949 1.393 . S
C2953 C2952 1.391 . S
C2954 H2944 0.950 1_556 S
C2954 C2955 1.386 . S
C2954 C2956 1.391 . S
C2955 C2954 1.386 . S
C2955 C2959 1.393 . S
C2956 H2945 0.950 . S
C2956 C2954 1.391 . S
C2956 C2957 1.400 . S
C2957 C2951 1.491 . S
C2957 C2956 1.400 . S
C2957 C2958 1.398 . S
C2958 H2946 0.950 . S
C2958 C2957 1.398 . S
C2958 C2959 1.391 . S
C2959 H2947 0.950 . S
C2959 C2955 1.393 . S
C2959 C2958 1.391 . S
H2960 C2968 0.950 . S
H2961 C2973 0.950 . S
H2962 C2970 0.950 . S
H2963 C2972 0.950 . S
H2964 C2974 0.950 . S
H2965 C2976 0.950 . S
H2966 C2978 0.950 . S
H2967 C2979 0.950 . S
C2968 H2960 0.950 . S
C2968 C2969 1.386 . S
C2968 C2970 1.391 . S
C2969 C2968 1.386 . S
C2969 C2973 1.393 . S
C2970 H2962 0.950 . S
C2970 C2968 1.391 . S
C2970 C2971 1.400 . S
C2971 C2970 1.400 . S
C2971 C2972 1.398 . S
C2971 C2977 1.491 . S
C2972 H2963 0.950 . S
C2972 C2971 1.398 . S
C2972 C2973 1.391 . S
C2973 H2961 0.950 . S
C2973 C2969 1.393 . S
C2973 C2972 1.391 . S
C2974 H2964 0.950 . S
C2974 C2975 1.386 . S
C2974 C2976 1.391 . S
C2975 C2974 1.386 . S
C2975 C2979 1.393 . S
C2976 H2965 0.950 . S
C2976 C2974 1.391 . S
C2976 C2977 1.400 . S
C2977 C2971 1.491 . S
C2977 C2976 1.400 . S
C2977 C2978 1.398 . S
C2978 H2966 0.950 . S
C2978 C2977 1.398 . S
C2978 C2979 1.391 . S
C2979 H2967 0.950 . S
C2979 C2975 1.393 . S
C2979 C2978 1.391 . S
H2980 C2988 0.950 . S
H2981 C2993 0.950 . S
H2982 C2990 0.950 . S
H2983 C2992 0.950 . S
H2984 C2994 0.950 . S
H2985 C2996 0.950 . S
H2986 C2998 0.950 . S
H2987 C2999 0.950 . S
C2988 H2980 0.950 . S
C2988 C2989 1.386 . S
C2988 C2990 1.391 . S
C2989 C2988 1.386 . S
C2989 C2993 1.393 . S
C2990 H2982 0.950 . S
C2990 C2988 1.391 . S
C2990 C2991 1.400 . S
C2991 C2990 1.400 . S
C2991 C2992 1.398 . S
C2991 C2997 1.491 . S
C2992 H2983 0.950 . S
C2992 C2991 1.398 . S
C2992 C2993 1.391 . S
C2993 H2981 0.950 . S
C2993 C2989 1.393 . S
C2993 C2992 1.391 . S
C2994 H2984 0.950 . S
C2994 C2995 1.386 . S
C2994 C2996 1.391 . S
C2995 C2994 1.386 . S
C2995 C2999 1.393 . S
C2996 H2985 0.950 . S
C2996 C2994 1.391 . S
C2996 C2997 1.400 . S
C2997 C2991 1.491 . S
C2997 C2996 1.400 . S
C2997 C2998 1.398 . S
C2998 H2986 0.950 . S
C2998 C2997 1.398 . S
C2998 C2999 1.391 . S
C2999 H2987 0.950 . S
C2999 C2995 1.393 . S
C2999 C2998 1.391 . S
H3000 C3008 0.950 . S
H3001 C3013 0.950 . S
H3002 C3010 0.950 . S
H3003 C3012 0.950 . S
H3004 C3014 0.950 . S
H3005 C3016 0.950 . S
H3006 C3018 0.950 . S
H3007 C3019 0.950 . S
C3008 H3000 0.950 . S
C3008 C3009 1.386 . S
C3008 C3010 1.391 . S
C3009 C3008 1.386 . S
C3009 C3013 1.393 . S
C3010 H3002 0.950 . S
C3010 C3008 1.391 . S
C3010 C3011 1.400 . S
C3011 C3010 1.400 . S
C3011 C3012 1.398 . S
C3011 C3017 1.491 . S
C3012 H3003 0.950 . S
C3012 C3011 1.398 . S
C3012 C3013 1.391 . S
C3013 H3001 0.950 . S
C3013 C3009 1.393 . S
C3013 C3012 1.391 . S
C3014 H3004 0.950 . S
C3014 C3015 1.386 . S
C3014 C3016 1.391 . S
C3015 C3014 1.386 . S
C3015 C3019 1.393 . S
C3016 H3005 0.950 . S
C3016 C3014 1.391 . S
C3016 C3017 1.400 . S
C3017 C3011 1.491 . S
C3017 C3016 1.400 . S
C3017 C3018 1.398 . S
C3018 H3006 0.950 . S
C3018 C3017 1.398 . S
C3018 C3019 1.391 . S
C3019 H3007 0.950 . S
C3019 C3015 1.393 . S
C3019 C3018 1.391 . S
H3020 C3028 0.950 . S
H3021 C3033 0.950 . S
H3022 C3030 0.950 . S
H3023 C3032 0.950 . S
H3024 C3034 0.950 . S
H3025 C3036 0.950 . S
H3026 C3038 0.950 . S
H3027 C3039 0.950 . S
C3028 H3020 0.950 . S
C3028 C3029 1.386 . S
C3028 C3030 1.391 . S
C3029 C3028 1.386 . S
C3029 C3033 1.393 . S
C3030 H3022 0.950 . S
C3030 C3028 1.391 . S
C3030 C3031 1.400 . S
C3031 C3030 1.400 . S
C3031 C3032 1.398 . S
C3031 C3037 1.491 . S
C3032 H3023 0.950 . S
C3032 C3031 1.398 . S
C3032 C3033 1.391 . S
C3033 H3021 0.950 . S
C3033 C3029 1.393 . S
C3033 C3032 1.391 . S
C3034 H3024 0.950 . S
C3034 C3035 1.386 . S
C3034 C3036 1.391 . S
C3035 C3034 1.386 . S
C3035 C3039 1.393 . S
C3036 H3025 0.950 . S
C3036 C3034 1.391 . S
C3036 C3037 1.400 . S
C3037 C3031 1.491 . S
C3037 C3036 1.400 . S
C3037 C3038 1.398 . S
C3038 H3026 0.950 . S
C3038 C3037 1.398 . S
C3038 C3039 1.391 . S
C3039 H3027 0.950 . S
C3039 C3035 1.393 . S
C3039 C3038 1.391 . S
H3040 C3048 0.950 . S
H3041 C3053 0.950 . S
H3042 C3050 0.950 . S
H3043 C3052 0.950 . S
H3044 C3054 0.950 . S
H3045 C3056 0.950 . S
H3046 C3058 0.950 . S
H3047 C3059 0.950 . S
C3048 H3040 0.950 . S
C3048 C3049 1.386 . S
C3048 C3050 1.391 . S
C3049 C3048 1.386 . S
C3049 C3053 1.393 . S
C3050 H3042 0.950 . S
C3050 C3048 1.391 . S
C3050 C3051 1.400 . S
C3051 C3050 1.400 . S
C3051 C3052 1.398 . S
C3051 C3057 1.491 . S
C3052 H3043 0.950 . S
C3052 C3051 1.398 . S
C3052 C3053 1.391 . S
C3053 H3041 0.950 . S
C3053 C3049 1.393 . S
C3053 C3052 1.391 . S
C3054 H3044 0.950 . S
C3054 C3055 1.386 . S
C3054 C3056 1.391 . S
C3055 C3054 1.386 . S
C3055 C3059 1.393 . S
C3056 H3045 0.950 . S
C3056 C3054 1.391 . S
C3056 C3057 1.400 . S
C3057 C3051 1.491 . S
C3057 C3056 1.400 . S
C3057 C3058 1.398 . S
C3058 H3046 0.950 . S
C3058 C3057 1.398 . S
C3058 C3059 1.391 . S
C3059 H3047 0.950 . S
C3059 C3055 1.393 . S
C3059 C3058 1.391 . S
H3060 C3068 0.950 . S
H3061 C3073 0.950 . S
H3062 C3070 0.950 . S
H3063 C3072 0.950 . S
H3064 C3074 0.950 . S
H3065 C3076 0.950 . S
H3066 C3078 0.950 . S
H3067 C3079 0.950 . S
C3068 H3060 0.950 . S
C3068 C3069 1.386 . S
C3068 C3070 1.391 . S
C3069 C3068 1.386 . S
C3069 C3073 1.393 . S
C3070 H3062 0.950 . S
C3070 C3068 1.391 . S
C3070 C3071 1.400 . S
C3071 C3070 1.400 . S
C3071 C3072 1.398 . S
C3071 C3077 1.491 . S
C3072 H3063 0.950 . S
C3072 C3071 1.398 . S
C3072 C3073 1.391 . S
C3073 H3061 0.950 . S
C3073 C3069 1.393 . S
C3073 C3072 1.391 . S
C3074 H3064 0.950 . S
C3074 C3075 1.386 . S
C3074 C3076 1.391 . S
C3075 C3074 1.386 . S
C3075 C3079 1.393 . S
C3076 H3065 0.950 . S
C3076 C3074 1.391 . S
C3076 C3077 1.400 . S
C3077 C3071 1.491 . S
C3077 C3076 1.400 . S
C3077 C3078 1.398 . S
C3078 H3066 0.950 . S
C3078 C3077 1.398 . S
C3078 C3079 1.391 . S
C3079 H3067 0.950 . S
C3079 C3075 1.393 . S
C3079 C3078 1.391 . S
H3080 C3088 0.950 . S
H3081 C3093 0.950 . S
H3082 C3090 0.950 . S
H3083 C3092 0.950 . S
H3084 C3094 0.950 . S
H3085 C3096 0.950 . S
H3086 C3098 0.950 . S
H3087 C3099 0.950 . S
C3088 H3080 0.950 . S
C3088 C3089 1.386 . S
C3088 C3090 1.391 . S
C3089 C3088 1.386 . S
C3089 C3093 1.393 . S
C3090 H3082 0.950 . S
C3090 C3088 1.391 . S
C3090 C3091 1.400 . S
C3091 C3090 1.400 . S
C3091 C3092 1.398 . S
C3091 C3097 1.491 . S
C3092 H3083 0.950 . S
C3092 C3091 1.398 . S
C3092 C3093 1.391 . S
C3093 H3081 0.950 . S
C3093 C3089 1.393 . S
C3093 C3092 1.391 . S
C3094 H3084 0.950 . S
C3094 C3095 1.386 . S
C3094 C3096 1.391 . S
C3095 C3094 1.386 . S
C3095 C3099 1.393 . S
C3096 H3085 0.950 . S
C3096 C3094 1.391 . S
C3096 C3097 1.400 . S
C3097 C3091 1.491 . S
C3097 C3096 1.400 . S
C3097 C3098 1.398 . S
C3098 H3086 0.950 . S
C3098 C3097 1.398 . S
C3098 C3099 1.391 . S
C3099 H3087 0.950 . S
C3099 C3095 1.393 . S
C3099 C3098 1.391 . S
H3100 C3108 0.950 . S
H3101 C3113 0.950 . S
H3102 C3110 0.950 . S
H3103 C3112 0.950 . S
H3104 C3114 0.950 . S
H3105 C3116 0.950 . S
H3106 C3118 0.950 . S
H3107 C3119 0.950 . S
C3108 H3100 0.950 . S
C3108 C3109 1.386 . S
C3108 C3110 1.391 . S
C3109 C3108 1.386 . S
C3109 C3113 1.393 . S
C3110 H3102 0.950 . S
C3110 C3108 1.391 . S
C3110 C3111 1.400 . S
C3111 C3110 1.400 . S
C3111 C3112 1.398 . S
C3111 C3117 1.491 . S
C3112 H3103 0.950 . S
C3112 C3111 1.398 . S
C3112 C3113 1.391 . S
C3113 H3101 0.950 . S
C3113 C3109 1.393 . S
C3113 C3112 1.391 . S
C3114 H3104 0.950 . S
C3114 C3115 1.386 . S
C3114 C3116 1.391 . S
C3115 C3114 1.386 . S
C3115 C3119 1.393 . S
C3116 H3105 0.950 . S
C3116 C3114 1.391 . S
C3116 C3117 1.400 . S
C3117 C3111 1.491 . S
C3117 C3116 1.400 . S
C3117 C3118 1.398 . S
C3118 H3106 0.950 . S
C3118 C3117 1.398 . S
C3118 C3119 1.391 . S
C3119 H3107 0.950 . S
C3119 C3115 1.393 . S
C3119 C3118 1.391 . S
H3120 C3128 0.950 . S
H3121 C3133 0.950 . S
H3122 C3130 0.950 . S
H3123 C3132 0.950 . S
H3124 C3134 0.950 . S
H3125 C3136 0.950 . S
H3126 C3138 0.950 . S
H3127 C3139 0.950 . S
C3128 H3120 0.950 . S
C3128 C3129 1.386 . S
C3128 C3130 1.391 . S
C3129 C3128 1.386 . S
C3129 C3133 1.393 . S
C3130 H3122 0.950 . S
C3130 C3128 1.391 . S
C3130 C3131 1.400 . S
C3131 C3130 1.400 . S
C3131 C3132 1.398 . S
C3131 C3137 1.491 . S
C3132 H3123 0.950 . S
C3132 C3131 1.398 . S
C3132 C3133 1.391 . S
C3133 H3121 0.950 . S
C3133 C3129 1.393 . S
C3133 C3132 1.391 . S
C3134 H3124 0.950 . S
C3134 C3135 1.386 . S
C3134 C3136 1.391 . S
C3135 C3134 1.386 . S
C3135 C3139 1.393 . S
C3136 H3125 0.950 . S
C3136 C3134 1.391 . S
C3136 C3137 1.400 . S
C3137 C3131 1.491 . S
C3137 C3136 1.400 . S
C3137 C3138 1.398 . S
C3138 H3126 0.950 . S
C3138 C3137 1.398 . S
C3138 C3139 1.391 . S
C3139 H3127 0.950 . S
C3139 C3135 1.393 . S
C3139 C3138 1.391 . S
H3140 C3148 0.950 . S
H3141 C3153 0.950 . S
H3142 C3150 0.950 . S
H3143 C3152 0.950 . S
H3144 C3154 0.950 . S
H3145 C3156 0.950 . S
H3146 C3158 0.950 . S
H3147 C3159 0.950 1_556 S
C3148 H3140 0.950 . S
C3148 C3149 1.386 . S
C3148 C3150 1.391 . S
C3149 C3148 1.386 . S
C3149 C3153 1.393 . S
C3150 H3142 0.950 . S
C3150 C3148 1.391 . S
C3150 C3151 1.400 . S
C3151 C3150 1.400 . S
C3151 C3152 1.398 . S
C3151 C3157 1.491 . S
C3152 H3143 0.950 . S
C3152 C3151 1.398 . S
C3152 C3153 1.391 . S
C3153 H3141 0.950 . S
C3153 C3149 1.393 . S
C3153 C3152 1.391 . S
C3154 H3144 0.950 . S
C3154 C3155 1.386 . S
C3154 C3156 1.391 . S
C3155 C3154 1.386 . S
C3155 C3159 1.393 . S
C3156 H3145 0.950 . S
C3156 C3154 1.391 . S
C3156 C3157 1.400 . S
C3157 C3151 1.491 . S
C3157 C3156 1.400 . S
C3157 C3158 1.398 . S
C3158 H3146 0.950 . S
C3158 C3157 1.398 . S
C3158 C3159 1.391 . S
C3159 H3147 0.950 1_554 S
C3159 C3155 1.393 . S
C3159 C3158 1.391 . S
H3160 C3168 0.950 . S
H3161 C3173 0.950 . S
H3162 C3170 0.950 . S
H3163 C3172 0.950 . S
H3164 C3174 0.935 1_554 S
H3165 C3176 0.950 . S
H3166 C3178 0.950 . S
H3167 C3179 0.950 . S
C3168 H3160 0.950 . S
C3168 C3169 1.386 . S
C3168 C3170 1.391 . S
C3169 C3168 1.386 . S
C3169 C3173 1.393 . S
C3170 H3162 0.950 . S
C3170 C3168 1.391 . S
C3170 C3171 1.400 . S
C3171 C3170 1.400 . S
C3171 C3172 1.398 . S
C3171 C3177 1.491 . S
C3172 H3163 0.950 . S
C3172 C3171 1.398 . S
C3172 C3173 1.391 . S
C3173 H3161 0.950 . S
C3173 C3169 1.393 . S
C3173 C3172 1.391 . S
C3174 H3164 0.935 1_556 S
C3174 C3175 1.386 . S
C3174 C3176 1.391 . S
C3175 C3174 1.386 . S
C3175 C3179 1.393 . S
C3176 H3165 0.950 . S
C3176 C3174 1.391 . S
C3176 C3177 1.400 . S
C3177 C3171 1.491 . S
C3177 C3176 1.400 . S
C3177 C3178 1.398 . S
C3178 H3166 0.950 . S
C3178 C3177 1.398 . S
C3178 C3179 1.391 . S
C3179 H3167 0.950 . S
C3179 C3175 1.393 . S
C3179 C3178 1.391 . S
H3180 C3188 0.950 . S
H3181 C3193 0.950 . S
H3182 C3190 0.950 . S
H3183 C3192 0.950 . S
H3184 C3194 0.950 . S
H3185 C3196 0.950 . S
H3186 C3198 0.950 . S
H3187 C3199 0.950 . S
C3188 H3180 0.950 . S
C3188 C3189 1.386 . S
C3188 C3190 1.391 . S
C3189 C3188 1.386 . S
C3189 C3193 1.393 . S
C3190 H3182 0.950 . S
C3190 C3188 1.391 . S
C3190 C3191 1.400 . S
C3191 C3190 1.400 . S
C3191 C3192 1.398 . S
C3191 C3197 1.491 . S
C3192 H3183 0.950 . S
C3192 C3191 1.398 . S
C3192 C3193 1.391 . S
C3193 H3181 0.950 . S
C3193 C3189 1.393 . S
C3193 C3192 1.391 . S
C3194 H3184 0.950 . S
C3194 C3195 1.386 . S
C3194 C3196 1.391 . S
C3195 C3194 1.386 . S
C3195 C3199 1.393 . S
C3196 H3185 0.950 . S
C3196 C3194 1.391 . S
C3196 C3197 1.400 . S
C3197 C3191 1.491 . S
C3197 C3196 1.400 . S
C3197 C3198 1.398 . S
C3198 H3186 0.950 . S
C3198 C3197 1.398 . S
C3198 C3199 1.391 . S
C3199 H3187 0.950 . S
C3199 C3195 1.393 . S
C3199 C3198 1.391 . S
C1289 C1129 1.734 . S
C1295 C19 1.734 . S
C1309 C209 1.719 . S
C1315 C59 1.719 . S
C1329 C889 1.717 . S
C1335 C99 1.718 . S
C1349 C609 1.737 . S
C1355 C139 1.737 . S
C1369 C169 1.738 . S
C1375 C979 1.738 . S
C1389 C739 1.726 . S
C1395 C249 1.728 . S
C1409 C459 1.731 . S
C1415 C289 1.731 . S
C1429 C809 1.734 . S
C1435 C339 1.734 . S
C1449 C379 1.722 . S
C1455 C529 1.722 . S
C1469 C419 1.727 . S
C1475 C1209 1.727 . S
C1489 C659 1.730 . S
C1495 C489 1.730 . S
C1509 C569 1.728 . S
C1515 C1059 1.728 . S
C1529 C699 1.724 . S
C1535 C849 1.725 . S
C1549 C779 1.736 . S
C1555 C1249 1.736 . S
C1569 C1099 1.727 . S
C1575 C929 1.727 . S
C1589 C1169 1.728 . S
C1595 C1019 1.728 . S
C1609 C769 1.571 . S
C1615 C9 1.566 . S
C1629 C729 1.553 . S
C1635 C49 1.558 . S
C1649 C689 1.565 . S
C1655 C89 1.561 . S
C1669 C649 1.574 . S
C1675 C129 1.570 . S
C1689 C939 1.570 . S
C1695 C179 1.574 . S
C1709 C219 1.564 . S
C1715 C899 1.565 . S
C1729 C259 1.557 . S
C1735 C859 1.553 . S
C1749 C299 1.574 . S
C1755 C819 1.575 . S
C1769 C329 1.597 . S
C1775 C1089 1.595 . S
C1789 C369 1.570 . S
C1795 C1049 1.565 . S
C1809 C409 1.570 . S
C1815 C1009 1.565 . S
C1829 C969 1.597 . S
C1835 C449 1.596 . S
C1849 C499 1.587 . S
C1855 C1259 1.591 . S
C1869 C539 1.564 . S
C1875 C1219 1.568 . S
C1889 C579 1.561 . S
C1895 C1179 1.558 . S
C1909 C1139 1.588 . S
C1915 C619 1.585 . S
C1929 C5 1.146 . S
C1935 C15 1.146 . S
C1949 C45 1.140 . S
C1955 C55 1.140 . S
C1969 C95 1.118 . S
C1975 C85 1.118 . S
C1989 C135 1.141 . S
C1995 C125 1.141 . S
C2009 C165 1.131 . S
C2015 C175 1.131 . S
C2029 C205 1.120 . S
C2035 C215 1.120 . S
C2049 C245 1.118 . S
C2055 C255 1.118 . S
C2069 C295 1.131 . S
C2075 C285 1.131 . S
C2089 C325 1.153 . S
C2095 C335 1.153 . S
C2109 C375 1.150 . S
C2115 C365 1.150 . S
C2129 C415 1.150 . S
C2135 C405 1.150 . S
C2149 C455 1.152 . S
C2155 C445 1.152 . S
C2169 C485 1.152 . S
C2175 C495 1.152 . S
C2189 C535 1.150 . S
C2195 C525 1.150 . S
C2209 C565 1.129 . S
C2215 C575 1.129 . S
C2229 C615 1.156 . S
C2235 C605 1.156 . S
C2249 C645 1.144 . S
C2255 C655 1.144 . S
C2269 C695 1.138 . S
C2275 C685 1.138 . S
C2289 C735 1.133 . S
C2295 C725 1.133 . S
C2309 C775 1.136 . S
C2315 C765 1.136 . S
C2329 C815 1.131 . S
C2335 C805 1.131 . S
C2349 C845 1.119 . S
C2355 C855 1.119 . S
C2369 C895 1.121 . S
C2375 C885 1.121 . S
C2389 C935 1.150 . S
C2395 C925 1.150 . S
C2409 C965 1.145 . S
C2415 C975 1.145 . S
C2429 C1015 1.129 . S
C2435 C1005 1.129 . S
C2449 C1055 1.150 . S
C2455 C1045 1.150 . S
C2469 C1085 1.164 . S
C2475 C1095 1.164 . S
C2489 C1125 1.164 . S
C2495 C1135 1.164 . S
C2509 C1175 1.135 . S
C2515 C1165 1.135 . S
C2529 C1215 1.135 . S
C2535 C1205 1.135 . S
C2549 C1255 1.152 . S
C2555 C1245 1.152 . S
C2569 C418 2.253 . S
C2575 C18 2.250 . S
C2589 C458 2.176 . S
C2595 C58 2.165 . S
C2609 C98 2.176 1_556 S
C2615 C338 2.165 . S
C2629 C378 2.254 . S
C2635 C138 2.251 1_556 S
C2649 C168 2.256 . S
C2655 C568 2.247 . S
C2669 C208 2.165 . S
C2675 C608 2.177 . S
C2689 C248 2.178 1_554 S
C2695 C488 2.164 . S
C2709 C288 2.250 1_554 S
C2715 C528 2.254 . S
C2729 C1058 2.258 1_556 S
C2735 C658 2.247 . S
C2749 C698 2.177 . S
C2755 C1098 2.164 1_556 S
C2769 C978 2.174 . S
C2775 C738 2.167 . S
C2789 C778 2.246 . S
C2795 C1018 2.258 . S
C2809 C1208 2.258 1_554 S
C2815 C808 2.246 . S
C2829 C848 2.169 . S
C2835 C1248 2.174 1_554 S
C2849 C888 2.168 . S
C2855 C1128 2.172 . S
C2869 C1168 2.245 . S
C2875 C928 2.258 . S
C2889 C8 1.016 . S
C2895 C88 1.012 . S
C2909 C128 1.021 . S
C2915 C48 0.994 . S
C2929 C258 1.004 . S
C2935 C178 1.003 . S
C2949 C218 1.022 . S
C2955 C298 0.998 . S
C2969 C328 0.919 . S
C2975 C408 0.896 . S
C2989 C448 0.899 . S
C2995 C368 0.915 . S
C3009 C578 0.911 . S
C3015 C498 0.902 . S
C3029 C618 0.896 . S
C3035 C538 0.928 . S
C3049 C728 1.013 . S
C3055 C648 0.998 . S
C3069 C768 1.016 . S
C3075 C688 1.012 . S
C3089 C898 1.003 . S
C3095 C818 1.004 . S
C3109 C938 0.992 . S
C3115 C858 1.024 . S
C3129 C968 0.914 . S
C3135 C1048 0.920 . S
C3149 C1008 0.928 . S
C3155 C1088 0.896 . S
C3169 C1138 0.929 . S
C3175 C1218 0.897 . S
C3189 C1258 0.925 . S
C3195 C1178 0.893 . S
