# Generated by pormake.
# Topology uoq, (4)-cn, num edge types: 1
# Building blocks:
#     Node 0, Type 0, BuildingBlock: QUQFOY_clean_sbu_1, # of connection points: 4
#     Node 1, Type 0, BuildingBlock: QUQFOY_clean_sbu_1, # of connection points: 4
#     Node 2, Type 0, BuildingBlock: QUQFOY_clean_sbu_1, # of connection points: 4
#     Node 3, Type 0, BuildingBlock: QUQFOY_clean_sbu_1, # of connection points: 4
#     Node 4, Type 0, BuildingBlock: QUQFOY_clean_sbu_1, # of connection points: 4
#     Node 5, Type 0, BuildingBlock: QUQFOY_clean_sbu_1, # of connection points: 4
#     Node 6, Type 0, BuildingBlock: QUQFOY_clean_sbu_1, # of connection points: 4
#     Node 7, Type 0, BuildingBlock: QUQFOY_clean_sbu_1, # of connection points: 4
#     Node 8, Type 0, BuildingBlock: QUQFOY_clean_sbu_1, # of connection points: 4
#     Node 9, Type 0, BuildingBlock: QUQFOY_clean_sbu_1, # of connection points: 4
#     Node 10, Type 0, BuildingBlock: QUQFOY_clean_sbu_1, # of connection points: 4
#     Node 11, Type 0, BuildingBlock: QUQFOY_clean_sbu_1, # of connection points: 4
#     Edge 12, Type (0, 0), BuildingBlock: MIFKUJ_clean_linker_0, # of connection points: 2
#     Edge 13, Type (0, 0), BuildingBlock: MIFKUJ_clean_linker_0, # of connection points: 2
#     Edge 14, Type (0, 0), BuildingBlock: MIFKUJ_clean_linker_0, # of connection points: 2
#     Edge 15, Type (0, 0), BuildingBlock: MIFKUJ_clean_linker_0, # of connection points: 2
#     Edge 16, Type (0, 0), BuildingBlock: MIFKUJ_clean_linker_0, # of connection points: 2
#     Edge 17, Type (0, 0), BuildingBlock: MIFKUJ_clean_linker_0, # of connection points: 2
#     Edge 18, Type (0, 0), BuildingBlock: MIFKUJ_clean_linker_0, # of connection points: 2
#     Edge 19, Type (0, 0), BuildingBlock: MIFKUJ_clean_linker_0, # of connection points: 2
#     Edge 20, Type (0, 0), BuildingBlock: MIFKUJ_clean_linker_0, # of connection points: 2
#     Edge 21, Type (0, 0), BuildingBlock: MIFKUJ_clean_linker_0, # of connection points: 2
#     Edge 22, Type (0, 0), BuildingBlock: MIFKUJ_clean_linker_0, # of connection points: 2
#     Edge 23, Type (0, 0), BuildingBlock: MIFKUJ_clean_linker_0, # of connection points: 2
#     Edge 24, Type (0, 0), BuildingBlock: MIFKUJ_clean_linker_0, # of connection points: 2
#     Edge 25, Type (0, 0), BuildingBlock: MIFKUJ_clean_linker_0, # of connection points: 2
#     Edge 26, Type (0, 0), BuildingBlock: MIFKUJ_clean_linker_0, # of connection points: 2
#     Edge 27, Type (0, 0), BuildingBlock: MIFKUJ_clean_linker_0, # of connection points: 2
#     Edge 28, Type (0, 0), BuildingBlock: MIFKUJ_clean_linker_0, # of connection points: 2
#     Edge 29, Type (0, 0), BuildingBlock: MIFKUJ_clean_linker_0, # of connection points: 2
#     Edge 30, Type (0, 0), BuildingBlock: MIFKUJ_clean_linker_0, # of connection points: 2
#     Edge 31, Type (0, 0), BuildingBlock: MIFKUJ_clean_linker_0, # of connection points: 2
#     Edge 32, Type (0, 0), BuildingBlock: MIFKUJ_clean_linker_0, # of connection points: 2
#     Edge 33, Type (0, 0), BuildingBlock: MIFKUJ_clean_linker_0, # of connection points: 2
#     Edge 34, Type (0, 0), BuildingBlock: MIFKUJ_clean_linker_0, # of connection points: 2
#     Edge 35, Type (0, 0), BuildingBlock: MIFKUJ_clean_linker_0, # of connection points: 2
# Relax obj value: 0.150
# Max RMSD: 0.207
# Mean RMSD: 0.207
data_MOF--net-uoq--node1-QUQFOY_clean_sbu_1--edge1-MIFKUJ_clean_linker_0
_symmetry_space_group_name_H-M    P1
_symmetry_Int_Tables_number       1
_symmetry_cell_setting            triclinic
loop_
_symmetry_equiv_pos_as_xyz
'x, y, z'
_cell_length_a     82.164156
_cell_length_b     82.20796
_cell_length_c     29.790626
_cell_angle_alpha  90.037512
_cell_angle_beta   89.958528
_cell_angle_gamma 120.01578
loop_
_atom_site_label
_atom_site_type_symbol
_atom_site_fract_x
_atom_site_fract_y
_atom_site_fract_z
_atom_type_partial_charge
O0 O 0.28031 0.4425 0.29949 0.0
Cd1 Cd 0.29924 0.45561 0.2487 0.0
Cd2 Cd 0.3167 0.43575 0.29924 0.0
O3 O 0.29369 0.42952 0.33844 0.0
O4 O 0.28664 0.4679 0.21863 0.0
O5 O 0.29129 0.44663 0.18496 0.0
C6 C 0.28433 0.45765 0.18394 0.0
C7 C 0.32581 0.41311 0.30681 0.0
C8 C 0.28043 0.43297 0.33277 0.0
C9 C 0.33962 0.47808 0.28123 0.0
O10 O 0.33867 0.463 0.29502 0.0
O11 O 0.32553 0.47801 0.26346 0.0
O12 O 0.32804 0.42463 0.33853 0.0
O13 O 0.31864 0.41458 0.26955 0.0
O14 O 0.82412 0.28397 0.63958 0.0
Cd15 Cd 0.83176 0.30151 0.5853 0.0
Cd16 Cd 0.86827 0.31659 0.63231 0.0
O17 O 0.85133 0.29464 0.67412 0.0
O18 O 0.80776 0.2896 0.5514 0.0
O19 O 0.83383 0.29179 0.52445 0.0
C20 C 0.81611 0.2859 0.51984 0.0
C21 C 0.89976 0.32419 0.63472 0.0
C22 C 0.83382 0.28314 0.67164 0.0
C23 C 0.85155 0.34199 0.614 0.0
O24 O 0.86478 0.33973 0.62886 0.0
O25 O 0.83717 0.32853 0.59555 0.0
O26 O 0.89189 0.32779 0.66748 0.0
O27 O 0.88971 0.31611 0.59966 0.0
O28 O 0.53171 0.82188 0.95653 0.0
Cd29 Cd 0.5276 0.83476 0.90258 0.0
Cd30 Cd 0.55018 0.86766 0.95613 0.0
O31 O 0.55286 0.84752 0.99111 0.0
O32 O 0.5167 0.8143 0.85749 0.0
O33 O 0.54449 0.83983 0.84894 0.0
C34 C 0.53191 0.82349 0.83448 0.0
C35 C 0.57579 0.89792 0.96638 0.0
C36 C 0.54352 0.82975 0.98791 0.0
C37 C 0.50938 0.8562 0.93453 0.0
O38 O 0.5246 0.86685 0.95521 0.0
O39 O 0.50785 0.84291 0.90982 0.0
O40 O 0.56423 0.88887 0.99823 0.0
O41 O 0.57289 0.88981 0.92776 0.0
O42 O 0.70823 0.53907 0.28929 0.0
Cd43 Cd 0.69044 0.53555 0.23674 0.0
Cd44 Cd 0.68091 0.55685 0.29737 0.0
O45 O 0.70321 0.55827 0.33121 0.0
O46 O 0.69858 0.52346 0.19108 0.0
O47 O 0.70243 0.55185 0.18219 0.0
C48 C 0.70513 0.53859 0.1676 0.0
C49 C 0.67743 0.58321 0.30573 0.0
C50 C 0.7119 0.54943 0.32371 0.0
C51 C 0.6509 0.51721 0.27281 0.0
O52 O 0.6562 0.53158 0.29757 0.0
O53 O 0.66202 0.51654 0.24409 0.0
O54 O 0.67487 0.57207 0.3386 0.0
O55 O 0.68203 0.57947 0.26727 0.0
O56 O 0.17248 0.71496 0.62948 0.0
Cd57 Cd 0.16137 0.6974 0.57529 0.0
Cd58 Cd 0.12843 0.68258 0.63161 0.0
O59 O 0.14721 0.70395 0.67224 0.0
O60 O 0.18291 0.70851 0.53293 0.0
O61 O 0.15636 0.70829 0.51957 0.0
C62 C 0.17334 0.71331 0.50759 0.0
C63 C 0.09775 0.67726 0.63458 0.0
C64 C 0.16449 0.71549 0.66545 0.0
C65 C 0.14307 0.65675 0.60401 0.0
O66 O 0.13087 0.65896 0.6251 0.0
O67 O 0.15608 0.67018 0.58185 0.0
O68 O 0.10511 0.67318 0.66766 0.0
O69 O 0.10783 0.68438 0.599 0.0
O70 O 0.46868 0.17379 0.95949 0.0
Cd71 Cd 0.46738 0.15949 0.90152 0.0
Cd72 Cd 0.44369 0.13 0.9525 0.0
O73 O 0.4425 0.15082 0.98766 0.0
O74 O 0.47806 0.17957 0.85547 0.0
O75 O 0.44844 0.15657 0.8546 0.0
C76 C 0.4616 0.17204 0.83749 0.0
C77 C 0.41604 0.10094 0.95067 0.0
C78 C 0.45566 0.16779 0.98855 0.0
C79 C 0.48179 0.13504 0.93034 0.0
O80 O 0.46794 0.12832 0.95728 0.0
O81 O 0.48318 0.14644 0.89982 0.0
O82 O 0.42548 0.10761 0.98706 0.0
O83 O 0.42215 0.11095 0.91466 0.0
O84 O 0.5316 0.70754 0.37149 0.0
Cd85 Cd 0.52731 0.68994 0.42439 0.0
Cd86 Cd 0.54813 0.6788 0.37009 0.0
O87 O 0.55105 0.70142 0.3339 0.0
O88 O 0.51751 0.69943 0.47242 0.0
O89 O 0.54499 0.70065 0.47701 0.0
C90 C 0.53286 0.7045 0.49416 0.0
C91 C 0.57429 0.67474 0.36645 0.0
C92 C 0.54263 0.71071 0.33865 0.0
C93 C 0.5075 0.65018 0.39199 0.0
O94 O 0.52244 0.65417 0.37062 0.0
O95 O 0.50677 0.6623 0.41701 0.0
O96 O 0.56338 0.67146 0.33259 0.0
O97 O 0.57033 0.68035 0.40323 0.0
O98 O 0.82616 0.5414 0.70025 0.0
Cd99 Cd 0.83732 0.53544 0.75517 0.0
Cd100 Cd 0.8711 0.55404 0.6997 0.0
O101 O 0.85178 0.55541 0.65852 0.0
O102 O 0.81595 0.52484 0.79814 0.0
O103 O 0.84232 0.55149 0.81057 0.0
C104 C 0.82555 0.53927 0.82332 0.0
C105 C 0.90161 0.57936 0.69071 0.0
C106 C 0.83442 0.54957 0.66419 0.0
C107 C 0.85683 0.51381 0.72881 0.0
O108 O 0.86922 0.52834 0.70849 0.0
O109 O 0.8433 0.51391 0.74926 0.0
O110 O 0.89339 0.56693 0.65992 0.0
O111 O 0.8926 0.57741 0.72764 0.0
O112 O 0.28681 0.8319 0.04274 0.0
Cd113 Cd 0.3051 0.84477 0.09491 0.0
Cd114 Cd 0.31872 0.87702 0.03366 0.0
O115 O 0.29699 0.85628 0.9973 0.0
O116 O 0.29556 0.82469 0.14114 0.0
O117 O 0.29484 0.85103 0.14985 0.0
C118 C 0.29084 0.83473 0.165 0.0
C119 C 0.32375 0.90706 0.01756 0.0
C120 C 0.28579 0.83909 0.00596 0.0
C121 C 0.34564 0.86394 0.06389 0.0
O122 O 0.34285 0.8756 0.04211 0.0
O123 O 0.33256 0.8509 0.08673 0.0
O124 O 0.32745 0.89764 0.98902 0.0
O125 O 0.31727 0.89952 0.05624 0.0
O126 O 0.47336 0.29094 0.38161 0.0
Cd127 Cd 0.47158 0.30744 0.43147 0.0
Cd128 Cd 0.44841 0.30925 0.37329 0.0
O129 O 0.44603 0.28431 0.35329 0.0
O130 O 0.48064 0.30122 0.48687 0.0
O131 O 0.45107 0.29415 0.47704 0.0
C132 C 0.46358 0.29322 0.50149 0.0
C133 C 0.42154 0.31195 0.36993 0.0
C134 C 0.45953 0.28103 0.35603 0.0
C135 C 0.48621 0.34339 0.3862 0.0
O136 O 0.47297 0.33395 0.35869 0.0
O137 O 0.48693 0.33612 0.42318 0.0
O138 O 0.42993 0.31118 0.33418 0.0
O139 O 0.42814 0.31063 0.40824 0.0
O140 O 0.17145 0.45362 0.69358 0.0
Cd141 Cd 0.16361 0.46565 0.74312 0.0
Cd142 Cd 0.12862 0.44596 0.68717 0.0
O143 O 0.14646 0.44069 0.64956 0.0
O144 O 0.18689 0.47771 0.77976 0.0
O145 O 0.15995 0.45474 0.80555 0.0
C146 C 0.17764 0.46628 0.81175 0.0
C147 C 0.09712 0.4227 0.68144 0.0
C148 C 0.16306 0.44441 0.65865 0.0
C149 C 0.14609 0.48788 0.70802 0.0
O150 O 0.1328 0.47278 0.69176 0.0
O151 O 0.15975 0.48803 0.72836 0.0
O152 O 0.10564 0.43447 0.64956 0.0
O153 O 0.1065 0.42394 0.71727 0.0
O154 O 0.70666 0.16925 0.03601 0.0
Cd155 Cd 0.68787 0.15636 0.08763 0.0
Cd156 Cd 0.68152 0.12487 0.03406 0.0
O157 O 0.70729 0.14454 0.00973 0.0
O158 O 0.69519 0.17857 0.12642 0.0
O159 O 0.69833 0.15452 0.14758 0.0
C160 C 0.7011 0.17117 0.15553 0.0
C161 C 0.67577 0.09405 0.03147 0.0
C162 C 0.71406 0.16216 0.01119 0.0
C163 C 0.65083 0.13508 0.0429 0.0
O164 O 0.65804 0.12714 0.02033 0.0
O165 O 0.6597 0.14587 0.07549 0.0
O166 O 0.6765 0.10312 0.99569 0.0
O167 O 0.67849 0.10258 0.0695 0.0
H168 H 0.33065 0.39151 0.24363 0.0
H169 H 0.34225 0.36959 0.25662 0.0
H170 H 0.34455 0.38027 0.399 0.0
H171 H 0.33355 0.4024 0.38622 0.0
H172 H 0.37631 0.38388 0.37166 0.0
H173 H 0.31113 0.33792 0.3515 0.0
H174 H 0.28066 0.32231 0.31212 0.0
H175 H 0.3059 0.30986 0.20091 0.0
H176 H 0.3366 0.32563 0.23937 0.0
H177 H 0.40407 0.31979 0.43799 0.0
H178 H 0.38234 0.33185 0.43008 0.0
H179 H 0.38252 0.32565 0.28631 0.0
H180 H 0.40392 0.31335 0.2939 0.0
H181 H 0.348 0.31828 0.31668 0.0
H182 H 0.41313 0.36647 0.33304 0.0
H183 H 0.44398 0.38242 0.37075 0.0
H184 H 0.41872 0.39109 0.48781 0.0
H185 H 0.38766 0.37494 0.45097 0.0
C186 C 0.33348 0.38902 0.27767 0.0
C187 C 0.33138 0.39879 0.31383 0.0
C188 C 0.33999 0.37642 0.2851 0.0
C189 C 0.34419 0.37324 0.32886 0.0
C190 C 0.34149 0.38257 0.36498 0.0
C191 C 0.33521 0.39524 0.35757 0.0
C192 C 0.35275 0.36135 0.33711 0.0
C193 C 0.36989 0.36941 0.36034 0.0
C194 C 0.34467 0.34266 0.32129 0.0
C195 C 0.32621 0.33311 0.29816 0.0
C196 C 0.31022 0.33199 0.3185 0.0
C197 C 0.2929 0.32308 0.29637 0.0
C198 C 0.29136 0.31514 0.25399 0.0
C199 C 0.30712 0.31604 0.23371 0.0
C200 C 0.32448 0.32494 0.25568 0.0
C201 C 0.39912 0.32058 0.40481 0.0
C202 C 0.40594 0.31593 0.36652 0.0
C203 C 0.38675 0.32749 0.40033 0.0
C204 C 0.38112 0.32995 0.35753 0.0
C205 C 0.38674 0.32392 0.31961 0.0
C206 C 0.39907 0.317 0.32404 0.0
C207 C 0.37134 0.34079 0.35167 0.0
C208 C 0.35416 0.33264 0.32854 0.0
C209 C 0.37937 0.35947 0.36742 0.0
C210 C 0.39805 0.36932 0.38946 0.0
C211 C 0.41414 0.37166 0.36694 0.0
C212 C 0.43166 0.38075 0.38814 0.0
C213 C 0.4333 0.38772 0.4317 0.0
C214 C 0.41742 0.38566 0.4541 0.0
C215 C 0.39986 0.37654 0.43308 0.0
H216 H 0.44688 0.39475 0.44806 0.0
H217 H 0.27793 0.30826 0.23691 0.0
H218 H 0.92492 0.34727 0.69635 0.0
H219 H 0.95813 0.3575 0.7014 0.0
H220 H 0.95327 0.32314 0.58685 0.0
H221 H 0.91979 0.31333 0.58052 0.0
H222 H 0.97778 0.34188 0.71693 0.0
H223 H 0.99509 0.34473 0.52968 0.0
H224 H 0.98296 0.34742 0.45588 0.0
H225 H 0.95836 0.37749 0.51653 0.0
H226 H 0.97052 0.37514 0.5905 0.0
H227 H 0.07835 0.3865 0.71276 0.0
H228 H 0.04509 0.36315 0.70054 0.0
H229 H 0.03772 0.40481 0.62934 0.0
H230 H 0.07094 0.42745 0.63873 0.0
H231 H 0.01939 0.37472 0.58765 0.0
H232 H 0.02473 0.39065 0.74708 0.0
H233 H 0.03668 0.39277 0.82411 0.0
H234 H 0.01562 0.33328 0.82477 0.0
H235 H 0.0037 0.33087 0.74755 0.0
C236 C 0.93084 0.34181 0.67221 0.0
C237 C 0.91977 0.3296 0.63779 0.0
C238 C 0.94986 0.34758 0.67536 0.0
C239 C 0.95827 0.34116 0.64447 0.0
C240 C 0.94714 0.32848 0.61074 0.0
C241 C 0.92804 0.32288 0.60714 0.0
C242 C 0.97888 0.34884 0.64682 0.0
C243 C 0.98689 0.34891 0.68852 0.0
C244 C 0.99081 0.35799 0.60986 0.0
C245 C 0.98346 0.3595 0.56561 0.0
C246 C 0.98709 0.35191 0.52719 0.0
C247 C 0.98022 0.35338 0.48536 0.0
C248 C 0.96982 0.36254 0.48156 0.0
C249 C 0.96634 0.37032 0.51954 0.0
C250 C 0.9732 0.36891 0.56142 0.0
C251 C 0.06952 0.39054 0.69453 0.0
C252 C 0.07708 0.40871 0.67675 0.0
C253 C 0.05054 0.37724 0.6876 0.0
C254 C 0.03876 0.38221 0.66428 0.0
C255 C 0.04646 0.40048 0.64695 0.0
C256 C 0.06543 0.41349 0.65263 0.0
C257 C 0.01832 0.36889 0.65854 0.0
C258 C 0.01033 0.36741 0.61594 0.0
C259 C 0.00639 0.35916 0.69516 0.0
C260 C 0.01356 0.36062 0.74145 0.0
C261 C 0.02276 0.37806 0.76359 0.0
C262 C 0.02951 0.3793 0.80727 0.0
C263 C 0.02697 0.36318 0.82926 0.0
C264 C 0.01762 0.34577 0.80766 0.0
C265 C 0.01086 0.34445 0.76396 0.0
H266 H 0.0322 0.36418 0.86307 0.0
H267 H 0.96451 0.36366 0.44916 0.0
H268 H 0.59682 0.925 0.90416 0.0
H269 H 0.61929 0.95819 0.91916 0.0
H270 H 0.6122 0.94735 0.06162 0.0
H271 H 0.58955 0.91446 0.04692 0.0
H272 H 0.60647 0.97509 0.04033 0.0
H273 H 0.6539 0.9591 0.00778 0.0
H274 H 0.66981 0.94582 0.9633 0.0
H275 H 0.67831 0.98402 0.85572 0.0
H276 H 0.66221 0.99736 0.8993 0.0
H277 H 0.66891 0.06922 0.10017 0.0
H278 H 0.65734 0.03545 0.09337 0.0
H279 H 0.66 0.04046 0.94904 0.0
H280 H 0.67179 0.07406 0.95549 0.0
H281 H 0.67014 0.01545 0.97659 0.0
H282 H 0.61952 0.02815 0.00301 0.0
H283 H 0.60272 0.04131 0.04441 0.0
H284 H 0.5994 0.00883 0.16047 0.0
H285 H 0.6164 0.99565 0.11988 0.0
C286 C 0.60034 0.92967 0.9386 0.0
C287 C 0.59129 0.91723 0.97435 0.0
C288 C 0.61323 0.9486 0.94717 0.0
C289 C 0.61742 0.95524 0.99157 0.0
C290 C 0.6091 0.94256 0.02715 0.0
C291 C 0.59615 0.92377 0.01865 0.0
C292 C 0.62882 0.97561 0.00118 0.0
C293 C 0.62057 0.98382 0.02718 0.0
C294 C 0.64698 0.98709 0.98296 0.0
C295 C 0.65671 0.97912 0.9567 0.0
C296 C 0.65903 0.96457 0.9745 0.0
C297 C 0.66811 0.95705 0.94947 0.0
C298 C 0.67503 0.96405 0.90667 0.0
C299 C 0.67293 0.97861 0.88886 0.0
C300 C 0.66385 0.98616 0.91374 0.0
C301 C 0.66732 0.06316 0.06706 0.0
C302 C 0.671 0.07423 0.02838 0.0
C303 C 0.6607 0.04389 0.06321 0.0
C304 C 0.65758 0.03545 0.02066 0.0
C305 C 0.6623 0.04669 0.98216 0.0
C306 C 0.66891 0.06589 0.98596 0.0
C307 C 0.64776 0.01477 0.01578 0.0
C308 C 0.6562 0.00657 0.99042 0.0
C309 C 0.62967 0.00323 0.03422 0.0
C310 C 0.61942 0.0111 0.05862 0.0
C311 C 0.61533 0.02393 0.03748 0.0
C312 C 0.60575 0.03137 0.06076 0.0
C313 C 0.60005 0.02595 0.10509 0.0
C314 C 0.60386 0.01304 0.12617 0.0
C315 C 0.61346 0.00558 0.10304 0.0
H316 H 0.59263 0.03172 0.12305 0.0
H317 H 0.68206 0.95821 0.88735 0.0
H318 H 0.66795 0.60122 0.24261 0.0
H319 H 0.65726 0.62371 0.25685 0.0
H320 H 0.66924 0.62374 0.39795 0.0
H321 H 0.67922 0.6008 0.38407 0.0
H322 H 0.63523 0.61646 0.38832 0.0
H323 H 0.69403 0.66359 0.32931 0.0
H324 H 0.72019 0.67817 0.27517 0.0
H325 H 0.68265 0.67772 0.17437 0.0
H326 H 0.65619 0.66289 0.2277 0.0
H327 H 0.59771 0.67578 0.43349 0.0
H328 H 0.62225 0.66719 0.42728 0.0
H329 H 0.61146 0.6577 0.28523 0.0
H330 H 0.58725 0.66643 0.29097 0.0
H331 H 0.64888 0.67377 0.30329 0.0
H332 H 0.59001 0.62174 0.35797 0.0
H333 H 0.56339 0.60641 0.41076 0.0
H334 H 0.60163 0.61591 0.51904 0.0
H335 H 0.6285 0.63152 0.46691 0.0
C336 C 0.66868 0.60637 0.27645 0.0
C337 C 0.67418 0.59914 0.31231 0.0
C338 C 0.66266 0.6193 0.28458 0.0
C339 C 0.66247 0.62547 0.32854 0.0
C340 C 0.66915 0.61912 0.36384 0.0
C341 C 0.67485 0.60601 0.35585 0.0
C342 C 0.65316 0.63655 0.33859 0.0
C343 C 0.63861 0.62928 0.37047 0.0
C344 C 0.6572 0.65303 0.31467 0.0
C345 C 0.67309 0.662 0.28248 0.0
C346 C 0.69132 0.66647 0.29551 0.0
C347 C 0.70621 0.6748 0.26497 0.0
C348 C 0.70308 0.67884 0.22134 0.0
C349 C 0.68505 0.67458 0.20818 0.0
C350 C 0.67011 0.66624 0.23858 0.0
C351 C 0.60079 0.67213 0.40087 0.0
C352 C 0.59038 0.67151 0.36285 0.0
C353 C 0.61479 0.66724 0.39737 0.0
C354 C 0.61851 0.66162 0.35585 0.0
C355 C 0.60883 0.66201 0.31754 0.0
C356 C 0.59488 0.66686 0.321 0.0
C357 C 0.63101 0.65353 0.35258 0.0
C358 C 0.64598 0.66125 0.32184 0.0
C359 C 0.62739 0.63742 0.37744 0.0
C360 C 0.61125 0.62799 0.40871 0.0
C361 C 0.59274 0.62068 0.39311 0.0
C362 C 0.57761 0.61192 0.42289 0.0
C363 C 0.58082 0.61024 0.46826 0.0
C364 C 0.59917 0.61727 0.48391 0.0
C365 C 0.61435 0.62606 0.45428 0.0
H366 H 0.56909 0.60345 0.49126 0.0
H367 H 0.71463 0.68529 0.19775 0.0
H368 H 0.9283 0.59999 0.75388 0.0
H369 H 0.96156 0.62256 0.74013 0.0
H370 H 0.95144 0.61662 0.59725 0.0
H371 H 0.91852 0.59359 0.61086 0.0
H372 H 0.97909 0.61183 0.61493 0.0
H373 H 0.96353 0.65843 0.65633 0.0
H374 H 0.95015 0.67364 0.70305 0.0
H375 H 0.9872 0.67926 0.81105 0.0
H376 H 0.00063 0.66384 0.76521 0.0
H377 H 0.07469 0.67575 0.56623 0.0
H378 H 0.04101 0.66513 0.57147 0.0
H379 H 0.04303 0.65895 0.7148 0.0
H380 H 0.07648 0.66946 0.7099 0.0
H381 H 0.01951 0.67301 0.68992 0.0
H382 H 0.03105 0.62216 0.65129 0.0
H383 H 0.04433 0.60683 0.60464 0.0
H384 H 0.01414 0.60963 0.49008 0.0
H385 H 0.00087 0.62522 0.53599 0.0
C386 C 0.93316 0.60378 0.71963 0.0
C387 C 0.92094 0.59492 0.68344 0.0
C388 C 0.95214 0.61676 0.71175 0.0
C389 C 0.95903 0.62137 0.66758 0.0
C390 C 0.94651 0.61323 0.63158 0.0
C391 C 0.9277 0.60006 0.63941 0.0
C392 C 0.9795 0.63298 0.65866 0.0
C393 C 0.9878 0.62542 0.63055 0.0
C394 C 0.99101 0.65054 0.67971 0.0
C395 C 0.98299 0.65984 0.70741 0.0
C396 C 0.96873 0.66277 0.69017 0.0
C397 C 0.96115 0.67146 0.71647 0.0
C398 C 0.96779 0.67737 0.76002 0.0
C399 C 0.98206 0.67465 0.77732 0.0
C400 C 0.98968 0.66597 0.75116 0.0
C401 C 0.068 0.67243 0.59889 0.0
C402 C 0.07812 0.67317 0.63756 0.0
C403 C 0.0488 0.66639 0.60184 0.0
C404 C 0.03956 0.66113 0.6435 0.0
C405 C 0.04992 0.66297 0.68238 0.0
C406 C 0.069 0.66884 0.67943 0.0
C407 C 0.01883 0.65177 0.6464 0.0
C408 C 0.01059 0.65963 0.6736 0.0
C409 C 0.00727 0.6345 0.62442 0.0
C410 C 0.01517 0.62506 0.5969 0.0
C411 C 0.02737 0.61964 0.61606 0.0
C412 C 0.03487 0.61088 0.58978 0.0
C413 C 0.03013 0.60731 0.54438 0.0
C414 C 0.01783 0.61244 0.52522 0.0
C415 C 0.01032 0.62124 0.55135 0.0
H416 H 0.03595 0.60052 0.52409 0.0
H417 H 0.96191 0.6841 0.78033 0.0
H418 H 0.32448 0.93395 0.07357 0.0
H419 H 0.33371 0.96639 0.05392 0.0
H420 H 0.33997 0.95515 0.91536 0.0
H421 H 0.33121 0.92302 0.93483 0.0
H422 H 0.37026 0.98504 0.94322 0.0
H423 H 0.30458 0.96339 0.94909 0.0
H424 H 0.27268 0.9477 0.98141 0.0
H425 H 0.29217 0.98667 0.09146 0.0
H426 H 0.32427 0.00244 0.06014 0.0
H427 H 0.39977 0.07771 0.8785 0.0
H428 H 0.37699 0.04394 0.88122 0.0
H429 H 0.37291 0.04723 0.02495 0.0
H430 H 0.39555 0.08081 0.02252 0.0
H431 H 0.33867 0.02086 0.98541 0.0
H432 H 0.40461 0.03835 0.98583 0.0
H433 H 0.43677 0.05403 0.95488 0.0
H434 H 0.41621 0.02215 0.83314 0.0
H435 H 0.38386 0.00648 0.86319 0.0
C436 C 0.32757 0.93835 0.03886 0.0
C437 C 0.32733 0.92602 0.00585 0.0
C438 C 0.33273 0.95685 0.0276 0.0
C439 C 0.33746 0.96317 0.98308 0.0
C440 C 0.33643 0.9506 0.9499 0.0
C441 C 0.33145 0.93224 0.96115 0.0
C442 C 0.3453 0.98329 0.97178 0.0
C443 C 0.3631 0.99273 0.95151 0.0
C444 C 0.33617 0.99344 0.98343 0.0
C445 C 0.31688 0.984 0.00242 0.0
C446 C 0.30211 0.96852 0.98038 0.0
C447 C 0.28398 0.95963 0.99848 0.0
C448 C 0.28041 0.96616 0.03851 0.0
C449 C 0.29496 0.98162 0.06047 0.0
C450 C 0.31312 0.99055 0.04252 0.0
C451 C 0.3936 0.07132 0.91046 0.0
C452 C 0.39964 0.08177 0.95038 0.0
C453 C 0.38061 0.05206 0.91197 0.0
C454 C 0.37349 0.04311 0.95339 0.0
C455 C 0.37825 0.05388 0.99271 0.0
C456 C 0.39131 0.07303 0.99126 0.0
C457 C 0.3635 0.0224 0.957 0.0
C458 C 0.34549 0.01294 0.97618 0.0
C459 C 0.37238 0.01214 0.94444 0.0
C460 C 0.39182 0.02144 0.92649 0.0
C461 C 0.40694 0.0348 0.95232 0.0
C462 C 0.4252 0.04367 0.93497 0.0
C463 C 0.42853 0.03914 0.89201 0.0
C464 C 0.41361 0.02568 0.86636 0.0
C465 C 0.39531 0.01681 0.88353 0.0
H466 H 0.44267 0.04601 0.87864 0.0
H467 H 0.26636 0.95926 0.05247 0.0
H468 H 0.21447 0.48931 0.83232 0.0
H469 H 0.23182 0.48716 0.89596 0.0
H470 H 0.18089 0.44038 0.94819 0.0
H471 H 0.16335 0.4422 0.8836 0.0
H472 H 0.23019 0.49102 0.98225 0.0
H473 H 0.19241 0.41012 0.00057 0.0
H474 H 0.17499 0.38177 0.95369 0.0
H475 H 0.20434 0.41324 0.83657 0.0
H476 H 0.22211 0.44169 0.88283 0.0
H477 H 0.25936 0.47005 0.18411 0.0
H478 H 0.24046 0.47059 0.12191 0.0
H479 H 0.26537 0.44716 0.03435 0.0
H480 H 0.2838 0.44576 0.09754 0.0
H481 H 0.22968 0.43169 0.01638 0.0
H482 H 0.27948 0.49528 0.03431 0.0
H483 H 0.29983 0.52466 0.07537 0.0
H484 H 0.25178 0.52982 0.10893 0.0
H485 H 0.2311 0.50034 0.06853 0.0
C486 C 0.20687 0.47861 0.85741 0.0
C487 C 0.18753 0.46586 0.8528 0.0
C488 C 0.21684 0.47743 0.89388 0.0
C489 C 0.20772 0.46349 0.92657 0.0
C490 C 0.18826 0.45108 0.92294 0.0
C491 C 0.17824 0.45221 0.88622 0.0
C492 C 0.2188 0.46197 0.96394 0.0
C493 C 0.23002 0.47802 0.98982 0.0
C494 C 0.21891 0.44513 0.97318 0.0
C495 C 0.20841 0.42807 0.94511 0.0
C496 C 0.19517 0.41097 0.96483 0.0
C497 C 0.18524 0.39489 0.93837 0.0
C498 C 0.1885 0.39572 0.89216 0.0
C499 C 0.20176 0.41263 0.87234 0.0
C500 C 0.21175 0.42874 0.89865 0.0
C501 C 0.26088 0.46506 0.15159 0.0
C502 C 0.27323 0.45807 0.14549 0.0
C503 C 0.25008 0.46542 0.11599 0.0
C504 C 0.25177 0.45931 0.07317 0.0
C505 C 0.26388 0.45202 0.06708 0.0
C506 C 0.27447 0.45131 0.10307 0.0
C507 C 0.24099 0.46073 0.03487 0.0
C508 C 0.2298 0.44467 0.00891 0.0
C509 C 0.24131 0.47772 0.02465 0.0
C510 C 0.25373 0.49553 0.0487 0.0
C511 C 0.27324 0.50263 0.05067 0.0
C512 C 0.28484 0.5193 0.0738 0.0
C513 C 0.2771 0.52908 0.09483 0.0
C514 C 0.25775 0.52223 0.09266 0.0
C515 C 0.24609 0.50555 0.06961 0.0
H516 H 0.2861 0.54198 0.11274 0.0
H517 H 0.18079 0.38326 0.87173 0.0
H518 H 0.82944 0.27944 0.44111 0.0
H519 H 0.81078 0.2602 0.37736 0.0
H520 H 0.75978 0.24661 0.44861 0.0
H521 H 0.77816 0.26616 0.51116 0.0
H522 H 0.78609 0.22436 0.36648 0.0
H523 H 0.72639 0.24282 0.38002 0.0
H524 H 0.72263 0.26971 0.40186 0.0
H525 H 0.78078 0.30772 0.37204 0.0
H526 H 0.78482 0.28109 0.34944 0.0
H527 H 0.70886 0.15878 0.234 0.0
H528 H 0.72895 0.17821 0.29576 0.0
H529 H 0.73983 0.22824 0.22367 0.0
H530 H 0.71906 0.209 0.1638 0.0
H531 H 0.73549 0.23364 0.30322 0.0
H532 H 0.77223 0.21087 0.23096 0.0
H533 H 0.77927 0.18712 0.2008 0.0
H534 H 0.77292 0.16334 0.33236 0.0
H535 H 0.7656 0.18682 0.36321 0.0
C536 C 0.81425 0.27243 0.44291 0.0
C537 C 0.80527 0.27451 0.48086 0.0
C538 C 0.80361 0.26137 0.40664 0.0
C539 C 0.78388 0.25219 0.40792 0.0
C540 C 0.77497 0.25391 0.44633 0.0
C541 C 0.78553 0.26509 0.48216 0.0
C542 C 0.77242 0.24088 0.36924 0.0
C543 C 0.77507 0.22641 0.35246 0.0
C544 C 0.75829 0.2438 0.35029 0.0
C545 C 0.75593 0.25992 0.36346 0.0
C546 C 0.73835 0.25692 0.37796 0.0
C547 C 0.73618 0.27212 0.3905 0.0
C548 C 0.75147 0.2904 0.38848 0.0
C549 C 0.76896 0.29354 0.37376 0.0
C550 C 0.7712 0.2784 0.36114 0.0
C551 C 0.71542 0.17392 0.23174 0.0
C552 C 0.71231 0.18237 0.19427 0.0
C553 C 0.72705 0.18503 0.26678 0.0
C554 C 0.73619 0.20476 0.26418 0.0
C555 C 0.73292 0.21309 0.22676 0.0
C556 C 0.721 0.20204 0.19246 0.0
C557 C 0.74899 0.21692 0.30034 0.0
C558 C 0.74654 0.23155 0.31692 0.0
C559 C 0.76376 0.2146 0.31771 0.0
C560 C 0.76819 0.20049 0.2993 0.0
C561 C 0.77221 0.20049 0.2534 0.0
C562 C 0.77627 0.18709 0.23619 0.0
C563 C 0.77649 0.1737 0.26463 0.0
C564 C 0.77271 0.17371 0.31036 0.0
C565 C 0.76862 0.18707 0.32773 0.0
H566 H 0.77964 0.16333 0.25124 0.0
H567 H 0.74976 0.30215 0.39822 0.0
H568 H 0.5062 0.7923 0.79009 0.0
H569 H 0.51221 0.77412 0.73479 0.0
H570 H 0.57129 0.81543 0.73594 0.0
H571 H 0.56532 0.83398 0.79143 0.0
H572 H 0.55795 0.8012 0.65018 0.0
H573 H 0.55801 0.7773 0.79481 0.0
H574 H 0.54668 0.76624 0.87158 0.0
H575 H 0.49586 0.72021 0.8186 0.0
H576 H 0.50675 0.73116 0.74148 0.0
H577 H 0.56706 0.73006 0.5293 0.0
H578 H 0.57279 0.75207 0.59129 0.0
H579 H 0.51305 0.72605 0.61365 0.0
H580 H 0.50726 0.70437 0.55171 0.0
H581 H 0.53468 0.73484 0.6936 0.0
H582 H 0.53325 0.76321 0.55027 0.0
H583 H 0.54484 0.77462 0.47379 0.0
H584 H 0.59974 0.8125 0.52629 0.0
H585 H 0.58851 0.80109 0.60308 0.0
C586 C 0.52045 0.79771 0.77816 0.0
C587 C 0.53532 0.81448 0.79547 0.0
C588 C 0.52387 0.78725 0.7467 0.0
C589 C 0.54225 0.7932 0.73218 0.0
C590 C 0.55702 0.81053 0.7471 0.0
C591 C 0.55358 0.82112 0.77865 0.0
C592 C 0.54579 0.78067 0.70304 0.0
C593 C 0.5533 0.78682 0.66002 0.0
C594 C 0.53975 0.76192 0.71598 0.0
C595 C 0.53317 0.75512 0.76232 0.0
C596 C 0.54437 0.76488 0.79951 0.0
C597 C 0.53803 0.75863 0.8431 0.0
C598 C 0.52055 0.74255 0.84996 0.0
C599 C 0.5094 0.73267 0.81323 0.0
C600 C 0.51566 0.73888 0.76956 0.0
C601 C 0.55521 0.72882 0.54814 0.0
C602 C 0.53671 0.71559 0.53569 0.0
C603 C 0.55849 0.74143 0.58329 0.0
C604 C 0.54332 0.74073 0.60672 0.0
C605 C 0.52494 0.7268 0.59596 0.0
C606 C 0.52165 0.71446 0.56052 0.0
C607 C 0.54614 0.75517 0.64031 0.0
C608 C 0.53982 0.74936 0.68425 0.0
C609 C 0.55342 0.77423 0.62832 0.0
C610 C 0.56011 0.78113 0.58227 0.0
C611 C 0.54783 0.77385 0.54544 0.0
C612 C 0.55433 0.78034 0.50206 0.0
C613 C 0.57303 0.79423 0.49516 0.0
C614 C 0.58527 0.8017 0.53167 0.0
C615 C 0.57885 0.79524 0.57511 0.0
H616 H 0.57804 0.79924 0.46156 0.0
H617 H 0.51566 0.73773 0.88374 0.0
H618 H 0.72982 0.57136 0.1248 0.0
H619 H 0.75298 0.57539 0.0674 0.0
H620 H 0.73023 0.51538 0.06381 0.0
H621 H 0.70746 0.51132 0.12147 0.0
H622 H 0.76704 0.53282 0.07411 0.0
H623 H 0.72372 0.53982 0.97741 0.0
H624 H 0.705 0.554 0.95223 0.0
H625 H 0.75534 0.60755 0.93852 0.0
H626 H 0.77434 0.59373 0.96418 0.0
H627 H 0.79646 0.51232 0.87111 0.0
H628 H 0.77952 0.51663 0.93302 0.0
H629 H 0.81735 0.5765 0.92844 0.0
H630 H 0.83468 0.57223 0.86645 0.0
H631 H 0.77774 0.56478 0.92691 0.0
H632 H 0.82115 0.55592 0.01457 0.0
H633 H 0.83922 0.54076 0.03743 0.0
H634 H 0.78793 0.4897 0.06658 0.0
H635 H 0.76952 0.50446 0.04325 0.0
C636 C 0.72954 0.55902 0.11106 0.0
C637 C 0.71689 0.54103 0.12777 0.0
C638 C 0.7428 0.56134 0.07832 0.0
C639 C 0.74341 0.54568 0.06146 0.0
C640 C 0.73016 0.52768 0.07664 0.0
C641 C 0.71707 0.52537 0.10946 0.0
C642 C 0.75839 0.54786 0.02995 0.0
C643 C 0.76927 0.53971 0.0418 0.0
C644 C 0.76183 0.55747 0.98853 0.0
C645 C 0.75042 0.5658 0.97326 0.0
C646 C 0.73078 0.55466 0.96943 0.0
C647 C 0.72012 0.56262 0.95498 0.0
C648 C 0.72897 0.58168 0.94393 0.0
C649 C 0.7485 0.5928 0.94719 0.0
C650 C 0.75922 0.58491 0.96165 0.0
C651 C 0.80136 0.52639 0.88366 0.0
C652 C 0.81689 0.54194 0.86403 0.0
C653 C 0.79168 0.52883 0.91905 0.0
C654 C 0.79721 0.54688 0.93527 0.0
C655 C 0.81291 0.56247 0.91634 0.0
C656 C 0.82284 0.56 0.88124 0.0
C657 C 0.78583 0.54918 0.97059 0.0
C658 C 0.77568 0.55818 0.95957 0.0
C659 C 0.78294 0.54024 0.0127 0.0
C660 C 0.79395 0.53128 0.02686 0.0
C661 C 0.81371 0.54142 0.0255 0.0
C662 C 0.82402 0.5329 0.03862 0.0
C663 C 0.81473 0.51427 0.05337 0.0
C664 C 0.79511 0.50413 0.05513 0.0
C665 C 0.78473 0.51258 0.04202 0.0
H666 H 0.82274 0.5077 0.06352 0.0
H667 H 0.7207 0.58782 0.93273 0.0
H668 H 0.20495 0.71907 0.46486 0.0
H669 H 0.22309 0.74291 0.4088 0.0
H670 H 0.18118 0.75987 0.40673 0.0
H671 H 0.1626 0.73558 0.46264 0.0
H672 H 0.19532 0.76099 0.32281 0.0
H673 H 0.22018 0.78525 0.46675 0.0
H674 H 0.23178 0.78516 0.543 0.0
H675 H 0.27749 0.78036 0.48785 0.0
H676 H 0.266 0.78011 0.41125 0.0
H677 H 0.26533 0.84265 0.20351 0.0
H678 H 0.24374 0.82552 0.26561 0.0
H679 H 0.27024 0.79194 0.28155 0.0
H680 H 0.29147 0.80865 0.21936 0.0
H681 H 0.26193 0.80435 0.36406 0.0
H682 H 0.23289 0.77493 0.22106 0.0
H683 H 0.22096 0.77522 0.1453 0.0
H684 H 0.18282 0.79127 0.20098 0.0
H685 H 0.19475 0.79134 0.27707 0.0
C686 C 0.19942 0.72767 0.45205 0.0
C687 C 0.18245 0.72559 0.46847 0.0
C688 C 0.20986 0.74137 0.42018 0.0
C689 C 0.20374 0.75351 0.40456 0.0
C690 C 0.18623 0.75075 0.41873 0.0
C691 C 0.17563 0.73686 0.45052 0.0
C692 C 0.21619 0.76943 0.37491 0.0
C693 C 0.20976 0.77074 0.3322 0.0
C694 C 0.23503 0.78221 0.38719 0.0
C695 C 0.24216 0.78256 0.43322 0.0
C696 C 0.23265 0.78406 0.47087 0.0
C697 C 0.23921 0.78408 0.51417 0.0
C698 C 0.25535 0.78274 0.52027 0.0
C699 C 0.26499 0.78141 0.48307 0.0
C700 C 0.25847 0.78135 0.43969 0.0
C701 C 0.26676 0.83188 0.22096 0.0
C702 C 0.28 0.8269 0.20665 0.0
C703 C 0.25439 0.82207 0.25616 0.0
C704 C 0.25536 0.80741 0.27784 0.0
C705 C 0.26929 0.80321 0.26521 0.0
C706 C 0.28137 0.81274 0.22966 0.0
C707 C 0.24122 0.79543 0.31164 0.0
C708 C 0.24736 0.79488 0.35517 0.0
C709 C 0.2221 0.78354 0.30027 0.0
C710 C 0.21488 0.78338 0.25462 0.0
C711 C 0.22209 0.77869 0.21709 0.0
C712 C 0.2153 0.77875 0.17411 0.0
C713 C 0.20118 0.78332 0.16831 0.0
C714 C 0.19378 0.78778 0.20551 0.0
C715 C 0.20055 0.78777 0.24856 0.0
H716 H 0.19594 0.78336 0.13501 0.0
H717 H 0.2604 0.78275 0.55382 0.0
H718 H 0.48666 0.20492 0.79768 0.0
H719 H 0.4802 0.22342 0.74446 0.0
H720 H 0.4217 0.18053 0.74123 0.0
H721 H 0.42803 0.16173 0.79518 0.0
H722 H 0.43763 0.19614 0.65505 0.0
H723 H 0.43109 0.21674 0.79929 0.0
H724 H 0.43962 0.22688 0.87783 0.0
H725 H 0.49057 0.2754 0.83394 0.0
H726 H 0.48251 0.26539 0.75513 0.0
H727 H 0.42875 0.26517 0.52756 0.0
H728 H 0.4217 0.24288 0.58943 0.0
H729 H 0.4799 0.27317 0.62981 0.0
H730 H 0.48702 0.29531 0.56833 0.0
H731 H 0.45558 0.26092 0.70235 0.0
H732 H 0.46474 0.2364 0.5611 0.0
H733 H 0.45697 0.22613 0.48234 0.0
H734 H 0.40091 0.18485 0.52137 0.0
H735 H 0.4083 0.19508 0.60033 0.0
C736 C 0.47242 0.19925 0.78544 0.0
C737 C 0.45783 0.18189 0.80094 0.0
C738 C 0.46875 0.20991 0.75513 0.0
C739 C 0.45043 0.20349 0.7396 0.0
C740 C 0.43592 0.18576 0.75316 0.0
C741 C 0.43957 0.17506 0.78387 0.0
C742 C 0.44675 0.21577 0.71003 0.0
C743 C 0.44106 0.21013 0.66564 0.0
C744 C 0.45134 0.23405 0.7239 0.0
C745 C 0.45623 0.24025 0.77126 0.0
C746 C 0.44418 0.22951 0.80638 0.0
C747 C 0.44893 0.23524 0.85096 0.0
C748 C 0.46564 0.25176 0.86087 0.0
C749 C 0.47763 0.2626 0.82621 0.0
C750 C 0.47296 0.25692 0.78156 0.0
C751 C 0.43992 0.2673 0.55031 0.0
C752 C 0.45846 0.28189 0.54297 0.0
C753 C 0.4359 0.25452 0.58544 0.0
C754 C 0.45033 0.25627 0.61383 0.0
C755 C 0.46856 0.27155 0.60826 0.0
C756 C 0.47262 0.28417 0.57302 0.0
C757 C 0.44712 0.24153 0.647 0.0
C758 C 0.45158 0.24674 0.6921 0.0
C759 C 0.44137 0.22287 0.63378 0.0
C760 C 0.43699 0.21666 0.58644 0.0
C761 C 0.45071 0.22524 0.5528 0.0
C762 C 0.44639 0.21941 0.50816 0.0
C763 C 0.42844 0.20489 0.49683 0.0
C764 C 0.41479 0.19613 0.53017 0.0
C765 C 0.41904 0.20194 0.57486 0.0
H766 H 0.42512 0.20039 0.46225 0.0
H767 H 0.46929 0.25618 0.89541 0.0
H768 H 0.15495 0.43364 0.5709 0.0
H769 H 0.17272 0.42511 0.51974 0.0
H770 H 0.21061 0.43138 0.62737 0.0
H771 H 0.19334 0.44061 0.67815 0.0
H772 H 0.22973 0.4494 0.55863 0.0
H773 H 0.17862 0.38747 0.58098 0.0
H774 H 0.14554 0.36214 0.58527 0.0
H775 H 0.13809 0.36952 0.44559 0.0
H776 H 0.17106 0.39508 0.44057 0.0
H777 H 0.28093 0.42197 0.41904 0.0
H778 H 0.25825 0.41685 0.4784 0.0
H779 H 0.22364 0.42522 0.38308 0.0
H780 H 0.24626 0.43053 0.3236 0.0
H781 H 0.20313 0.39625 0.45079 0.0
H782 H 0.25303 0.46148 0.4346 0.0
H783 H 0.28627 0.48652 0.43096 0.0
H784 H 0.29572 0.4716 0.56257 0.0
H785 H 0.26256 0.44627 0.56664 0.0
C786 C 0.16696 0.43302 0.58371 0.0
C787 C 0.17288 0.43796 0.62835 0.0
C788 C 0.17701 0.42798 0.55456 0.0
C789 C 0.19289 0.4274 0.56985 0.0
C790 C 0.19842 0.43176 0.61483 0.0
C791 C 0.18857 0.43707 0.64376 0.0
C792 C 0.20474 0.42403 0.53804 0.0
C793 C 0.22393 0.4375 0.53587 0.0
C794 C 0.19716 0.4087 0.50769 0.0
C795 C 0.1773 0.39331 0.5105 0.0
C796 C 0.1699 0.3838 0.55125 0.0
C797 C 0.15117 0.36938 0.5538 0.0
C798 C 0.13971 0.36425 0.51575 0.0
C799 C 0.14698 0.37351 0.47504 0.0
C800 C 0.1657 0.38795 0.47231 0.0
C801 C 0.26829 0.42232 0.4105 0.0
C802 C 0.2655 0.42695 0.36687 0.0
C803 C 0.25536 0.41935 0.4444 0.0
C804 C 0.23942 0.4208 0.43496 0.0
C805 C 0.23588 0.42401 0.39082 0.0
C806 C 0.24889 0.4272 0.35703 0.0
C807 C 0.22786 0.42162 0.47173 0.0
C808 C 0.20883 0.40782 0.47448 0.0
C809 C 0.23554 0.43654 0.50297 0.0
C810 C 0.25541 0.45185 0.50068 0.0
C811 C 0.26225 0.46344 0.46258 0.0
C812 C 0.28106 0.4777 0.46047 0.0
C813 C 0.29312 0.48061 0.49646 0.0
C814 C 0.28637 0.4693 0.53468 0.0
C815 C 0.26758 0.45499 0.53691 0.0
H816 H 0.30768 0.49166 0.49477 0.0
H817 H 0.12521 0.35308 0.5178 0.0
H818 H 0.79639 0.25801 0.6793 0.0
H819 H 0.78037 0.23622 0.74055 0.0
H820 H 0.83359 0.2539 0.80548 0.0
H821 H 0.84983 0.27618 0.74449 0.0
H822 H 0.78102 0.20691 0.774 0.0
H823 H 0.82632 0.25346 0.91963 0.0
H824 H 0.84749 0.28699 0.93712 0.0
H825 H 0.81809 0.3024 0.84262 0.0
H826 H 0.79663 0.26898 0.82503 0.0
H827 H 0.73841 0.1536 0.96922 0.0
H828 H 0.76365 0.17337 0.91709 0.0
H829 H 0.75083 0.21788 0.935 0.0
H830 H 0.72613 0.19852 0.98831 0.0
H831 H 0.78708 0.23243 0.92794 0.0
H832 H 0.73252 0.18574 0.84638 0.0
H833 H 0.70809 0.15348 0.82645 0.0
H834 H 0.75072 0.1405 0.78811 0.0
H835 H 0.7754 0.17265 0.80834 0.0
C836 C 0.80476 0.25723 0.7064 0.0
C837 C 0.82438 0.26897 0.70724 0.0
C838 C 0.79557 0.24468 0.74129 0.0
C839 C 0.80578 0.24356 0.77767 0.0
C840 C 0.82544 0.25473 0.77791 0.0
C841 C 0.83468 0.26742 0.74304 0.0
C842 C 0.79552 0.23137 0.81614 0.0
C843 C 0.7825 0.21242 0.80779 0.0
C844 C 0.79734 0.23864 0.86008 0.0
C845 C 0.81007 0.25876 0.87061 0.0
C846 C 0.82438 0.26402 0.90266 0.0
C847 C 0.83642 0.28299 0.91259 0.0
C848 C 0.83419 0.29682 0.89085 0.0
C849 C 0.81986 0.29169 0.85928 0.0
C850 C 0.80777 0.27274 0.84928 0.0
C851 C 0.74112 0.16768 0.96236 0.0
C852 C 0.73017 0.17446 0.98237 0.0
C853 C 0.75553 0.17894 0.93259 0.0
C854 C 0.7589 0.19697 0.92162 0.0
C855 C 0.74849 0.20402 0.94303 0.0
C856 C 0.7343 0.1929 0.97331 0.0
C857 C 0.77224 0.20807 0.88555 0.0
C858 C 0.78591 0.22679 0.8944 0.0
C859 C 0.77059 0.20077 0.84169 0.0
C860 C 0.75578 0.18149 0.82936 0.0
C861 C 0.73667 0.17596 0.83398 0.0
C862 C 0.72279 0.15771 0.82259 0.0
C863 C 0.72786 0.14493 0.80616 0.0
C864 C 0.74682 0.1504 0.80094 0.0
C865 C 0.76076 0.16863 0.81234 0.0
H866 H 0.71709 0.13081 0.79737 0.0
H867 H 0.84353 0.3115 0.89857 0.0
H868 H 0.52168 0.79196 0.00083 0.0
H869 H 0.5243 0.77318 0.06069 0.0
H870 H 0.57371 0.82226 0.11113 0.0
H871 H 0.57087 0.8413 0.05207 0.0
H872 H 0.5495 0.76425 0.08433 0.0
H873 H 0.57416 0.82 0.22495 0.0
H874 H 0.57225 0.84813 0.24507 0.0
H875 H 0.52075 0.82684 0.17098 0.0
H876 H 0.52223 0.79849 0.15092 0.0
H877 H 0.56984 0.72613 0.27417 0.0
H878 H 0.57305 0.74829 0.21549 0.0
H879 H 0.52433 0.74905 0.26715 0.0
H880 H 0.5214 0.72739 0.32675 0.0
H881 H 0.54976 0.78294 0.2429 0.0
H882 H 0.52153 0.72133 0.17647 0.0
H883 H 0.5195 0.69125 0.15636 0.0
H884 H 0.571 0.72078 0.08188 0.0
H885 H 0.57346 0.75106 0.10205 0.0
C886 C 0.53316 0.79876 0.02451 0.0
C887 C 0.54595 0.81815 0.02204 0.0
C888 C 0.53468 0.78799 0.0586 0.0
C889 C 0.54905 0.79639 0.09066 0.0
C890 C 0.5623 0.81559 0.0872 0.0
C891 C 0.56068 0.82642 0.05338 0.0
C892 C 0.54966 0.78509 0.12853 0.0
C893 C 0.54966 0.76838 0.11901 0.0
C894 C 0.5496 0.79037 0.17373 0.0
C895 C 0.54844 0.80725 0.18604 0.0
C896 C 0.5624 0.82131 0.21308 0.0
C897 C 0.5614 0.83729 0.22446 0.0
C898 C 0.54643 0.8393 0.20917 0.0
C899 C 0.53238 0.8253 0.18264 0.0
C900 C 0.53331 0.80929 0.17122 0.0
C901 C 0.55988 0.73112 0.27319 0.0
C902 C 0.54525 0.72489 0.30479 0.0
C903 C 0.56172 0.74374 0.23961 0.0
C904 C 0.54874 0.75006 0.23655 0.0
C905 C 0.53449 0.74433 0.26891 0.0
C906 C 0.5328 0.73191 0.30285 0.0
C907 C 0.54948 0.76204 0.19871 0.0
C908 C 0.54981 0.77891 0.20823 0.0
C909 C 0.54928 0.75663 0.15349 0.0
C910 C 0.54778 0.73845 0.14116 0.0
C911 C 0.53249 0.72141 0.15606 0.0
C912 C 0.53125 0.70433 0.14462 0.0
C913 C 0.54514 0.70411 0.11797 0.0
C914 C 0.56027 0.72097 0.10259 0.0
C915 C 0.56159 0.73809 0.11399 0.0
H916 H 0.54416 0.69087 0.10915 0.0
H917 H 0.54569 0.85169 0.21798 0.0
H918 H 0.74152 0.54381 0.30867 0.0
H919 H 0.76473 0.54605 0.36345 0.0
H920 H 0.73668 0.55962 0.46713 0.0
H921 H 0.71412 0.55836 0.41213 0.0
H922 H 0.7719 0.58035 0.47818 0.0
H923 H 0.73138 0.51427 0.45277 0.0
H924 H 0.7149 0.48516 0.40815 0.0
H925 H 0.76782 0.49285 0.36199 0.0
H926 H 0.78461 0.52215 0.40592 0.0
H927 H 0.80098 0.54896 0.67059 0.0
H928 H 0.78251 0.55137 0.60911 0.0
H929 H 0.82458 0.5569 0.51404 0.0
H930 H 0.84336 0.55491 0.57529 0.0
H931 H 0.78472 0.52779 0.49595 0.0
H932 H 0.8245 0.59363 0.52995 0.0
H933 H 0.839 0.62115 0.58021 0.0
H934 H 0.78435 0.61155 0.61704 0.0
H935 H 0.76951 0.58379 0.56748 0.0
C936 C 0.74038 0.54731 0.34315 0.0
C937 C 0.72602 0.55085 0.35626 0.0
C938 C 0.75358 0.54851 0.37446 0.0
C939 C 0.75227 0.55269 0.41961 0.0
C940 C 0.73801 0.55641 0.43251 0.0
C941 C 0.7251 0.55563 0.40108 0.0
C942 C 0.76558 0.55309 0.4537 0.0
C943 C 0.77454 0.56875 0.48223 0.0
C944 C 0.7693 0.53811 0.45865 0.0
C945 C 0.75924 0.5205 0.43222 0.0
C946 C 0.73949 0.50982 0.43283 0.0
C947 C 0.7301 0.49328 0.40772 0.0
C948 C 0.7403 0.48719 0.38214 0.0
C949 C 0.75993 0.4976 0.38174 0.0
C950 C 0.7694 0.51417 0.40676 0.0
C951 C 0.80634 0.55081 0.63663 0.0
C952 C 0.82359 0.55175 0.62766 0.0
C953 C 0.79583 0.55223 0.60168 0.0
C954 C 0.80228 0.55434 0.55733 0.0
C955 C 0.81947 0.55531 0.54821 0.0
C956 C 0.83016 0.55424 0.5832 0.0
C957 C 0.7907 0.55487 0.52032 0.0
C958 C 0.78211 0.53938 0.49141 0.0
C959 C 0.78699 0.56978 0.51569 0.0
C960 C 0.79589 0.58653 0.54532 0.0
C961 C 0.81557 0.59728 0.54908 0.0
C962 C 0.82385 0.61295 0.57737 0.0
C963 C 0.8126 0.61807 0.60189 0.0
C964 C 0.79305 0.60756 0.59806 0.0
C965 C 0.78469 0.59187 0.56984 0.0
H966 H 0.81904 0.6302 0.62377 0.0
H967 H 0.733 0.47438 0.36273 0.0
H968 H 0.15594 0.71478 0.75423 0.0
H969 H 0.17535 0.73693 0.81244 0.0
H970 H 0.21719 0.77015 0.71304 0.0
H971 H 0.19817 0.74765 0.65502 0.0
H972 H 0.23351 0.76555 0.78124 0.0
H973 H 0.18755 0.7844 0.76295 0.0
H974 H 0.1558 0.78042 0.75833 0.0
H975 H 0.14461 0.76017 0.89406 0.0
H976 H 0.17622 0.76379 0.89931 0.0
H977 H 0.28601 0.8463 0.91668 0.0
H978 H 0.26381 0.82585 0.85964 0.0
H979 H 0.23167 0.78486 0.96126 0.0
H980 H 0.25401 0.8051 0.01871 0.0
H981 H 0.21034 0.79396 0.89323 0.0
H982 H 0.25727 0.77501 0.90788 0.0
H983 H 0.28977 0.78086 0.91043 0.0
H984 H 0.29965 0.80381 0.77722 0.0
H985 H 0.26727 0.79835 0.77418 0.0
C986 C 0.16921 0.72689 0.74475 0.0
C987 C 0.17559 0.72947 0.70014 0.0
C988 C 0.18024 0.7396 0.778 0.0
C989 C 0.19763 0.75532 0.76702 0.0
C990 C 0.20383 0.75809 0.72229 0.0
C991 C 0.19295 0.74524 0.68918 0.0
C992 C 0.20987 0.7683 0.80246 0.0
C993 C 0.22846 0.77196 0.80523 0.0
C994 C 0.20323 0.77639 0.83438 0.0
C995 C 0.1842 0.77419 0.83136 0.0
C996 C 0.17827 0.77895 0.7917 0.0
C997 C 0.1603 0.77679 0.78899 0.0
C998 C 0.14818 0.77 0.82584 0.0
C999 C 0.15401 0.7654 0.86552 0.0
C1000 C 0.17196 0.76752 0.8684 0.0
C1001 C 0.27414 0.83301 0.927 0.0
C1002 C 0.27178 0.82722 0.97209 0.0
C1003 C 0.26151 0.82138 0.8944 0.0
C1004 C 0.24623 0.80392 0.90647 0.0
C1005 C 0.24342 0.79834 0.95157 0.0
C1006 C 0.25623 0.80985 0.98417 0.0
C1007 C 0.23377 0.79112 0.87147 0.0
C1008 C 0.21523 0.78751 0.86897 0.0
C1009 C 0.2405 0.78328 0.83933 0.0
C1010 C 0.25992 0.78646 0.84101 0.0
C1011 C 0.26643 0.78147 0.87931 0.0
C1012 C 0.28481 0.78468 0.88081 0.0
C1013 C 0.29678 0.79276 0.84406 0.0
C1014 C 0.29037 0.79759 0.80569 0.0
C1015 C 0.272 0.79442 0.80405 0.0
H1016 H 0.31101 0.79523 0.84528 0.0
H1017 H 0.13427 0.76833 0.82367 0.0
H1018 H 0.48602 0.20029 0.01789 0.0
H1019 H 0.48741 0.21926 0.08284 0.0
H1020 H 0.42824 0.18219 0.10655 0.0
H1021 H 0.42674 0.163 0.04219 0.0
H1022 H 0.44098 0.22196 0.10998 0.0
H1023 H 0.45594 0.17604 0.1685 0.0
H1024 H 0.4739 0.15938 0.17067 0.0
H1025 H 0.52481 0.21151 0.19471 0.0
H1026 H 0.50717 0.22853 0.192 0.0
H1027 H 0.42939 0.25008 0.32144 0.0
H1028 H 0.42955 0.22974 0.26194 0.0
H1029 H 0.49022 0.26061 0.26105 0.0
H1030 H 0.49012 0.28053 0.32211 0.0
H1031 H 0.478 0.22485 0.24447 0.0
H1032 H 0.46459 0.27118 0.18709 0.0
H1033 H 0.44804 0.28922 0.18276 0.0
H1034 H 0.39635 0.23868 0.15291 0.0
H1035 H 0.41254 0.22029 0.15772 0.0
C1036 C 0.47328 0.19629 0.03671 0.0
C1037 C 0.45628 0.18014 0.02515 0.0
C1038 C 0.47413 0.20706 0.07382 0.0
C1039 C 0.45796 0.20196 0.09945 0.0
C1040 C 0.44085 0.18625 0.0871 0.0
C1041 C 0.44004 0.17532 0.05045 0.0
C1042 C 0.45887 0.21279 0.13972 0.0
C1043 C 0.44889 0.22246 0.13962 0.0
C1044 C 0.46969 0.21381 0.17761 0.0
C1045 C 0.48027 0.20358 0.17955 0.0
C1046 C 0.47099 0.18398 0.17384 0.0
C1047 C 0.48111 0.17446 0.17525 0.0
C1048 C 0.50049 0.18439 0.18269 0.0
C1049 C 0.5098 0.20384 0.18887 0.0
C1050 C 0.49975 0.21343 0.18743 0.0
C1051 C 0.44275 0.25229 0.30911 0.0
C1052 C 0.45974 0.26699 0.32584 0.0
C1053 C 0.44283 0.24074 0.275 0.0
C1054 C 0.45989 0.24406 0.25616 0.0
C1055 C 0.4769 0.25793 0.27488 0.0
C1056 C 0.47683 0.26928 0.30973 0.0
C1057 C 0.45988 0.23391 0.21512 0.0
C1058 C 0.47009 0.22442 0.2149 0.0
C1059 C 0.4495 0.23329 0.17654 0.0
C1060 C 0.43975 0.24434 0.17316 0.0
C1061 C 0.44967 0.2639 0.17988 0.0
C1062 C 0.44036 0.27419 0.17731 0.0
C1063 C 0.42115 0.26509 0.16767 0.0
C1064 C 0.41122 0.2457 0.16043 0.0
C1065 C 0.42046 0.23534 0.16304 0.0
H1066 H 0.41396 0.27308 0.16571 0.0
H1067 H 0.5083 0.177 0.18377 0.0
H1068 H 0.34378 0.51294 0.29175 0.0
H1069 H 0.37254 0.54208 0.31036 0.0
H1070 H 0.40406 0.513 0.30365 0.0
H1071 H 0.37512 0.48363 0.28755 0.0
H1072 H 0.41476 0.53345 0.37262 0.0
H1073 H 0.40618 0.54557 0.22023 0.0
H1074 H 0.38942 0.54821 0.1545 0.0
H1075 H 0.38253 0.59054 0.22203 0.0
H1076 H 0.39904 0.58798 0.28843 0.0
H1077 H 0.50519 0.61805 0.35882 0.0
H1078 H 0.47659 0.58844 0.34093 0.0
H1079 H 0.44268 0.6113 0.38913 0.0
H1080 H 0.47113 0.6408 0.40795 0.0
H1081 H 0.43393 0.59449 0.29876 0.0
H1082 H 0.44359 0.5813 0.45159 0.0
H1083 H 0.46213 0.57874 0.51342 0.0
H1084 H 0.46923 0.53819 0.43801 0.0
H1085 H 0.45095 0.54071 0.37543 0.0
C1086 C 0.35689 0.51283 0.29378 0.0
C1087 C 0.35724 0.49604 0.28816 0.0
C1088 C 0.37337 0.52952 0.30423 0.0
C1089 C 0.3906 0.52987 0.30786 0.0
C1090 C 0.39097 0.51313 0.30121 0.0
C1091 C 0.37444 0.49637 0.29183 0.0
C1092 C 0.40808 0.54742 0.32054 0.0
C1093 C 0.41905 0.54671 0.35586 0.0
C1094 C 0.41363 0.56487 0.29935 0.0
C1095 C 0.40369 0.56645 0.25947 0.0
C1096 C 0.40097 0.55534 0.2212 0.0
C1097 C 0.39154 0.55684 0.1838 0.0
C1098 C 0.38487 0.5695 0.18413 0.0
C1099 C 0.38768 0.58072 0.22184 0.0
C1100 C 0.39709 0.57927 0.25935 0.0
C1101 C 0.49164 0.6167 0.36607 0.0
C1102 C 0.4904 0.63175 0.38482 0.0
C1103 C 0.47536 0.5998 0.35585 0.0
C1104 C 0.4576 0.59778 0.36365 0.0
C1105 C 0.4563 0.61266 0.38285 0.0
C1106 C 0.47256 0.62944 0.3938 0.0
C1107 C 0.44038 0.58034 0.35047 0.0
C1108 C 0.42954 0.58114 0.31516 0.0
C1109 C 0.43516 0.56293 0.37097 0.0
C1110 C 0.44607 0.56134 0.40865 0.0
C1111 C 0.44925 0.57197 0.44802 0.0
C1112 C 0.45968 0.5705 0.48324 0.0
C1113 C 0.4669 0.55835 0.47959 0.0
C1114 C 0.46365 0.54761 0.44076 0.0
C1115 C 0.45325 0.54904 0.40543 0.0
H1116 H 0.47496 0.55723 0.5069 0.0
H1117 H 0.37758 0.57064 0.15514 0.0
H1118 H 0.82749 0.47802 0.73775 0.0
H1119 H 0.82724 0.44893 0.72011 0.0
H1120 H 0.88687 0.48039 0.69347 0.0
H1121 H 0.88699 0.50964 0.70904 0.0
H1122 H 0.87112 0.45721 0.6296 0.0
H1123 H 0.8668 0.45085 0.78894 0.0
H1124 H 0.85445 0.45017 0.8648 0.0
H1125 H 0.80076 0.40393 0.8265 0.0
H1126 H 0.81271 0.40449 0.75019 0.0
H1127 H 0.88271 0.37607 0.62966 0.0
H1128 H 0.88382 0.40554 0.64918 0.0
H1129 H 0.82354 0.37837 0.63672 0.0
H1130 H 0.8223 0.34888 0.61631 0.0
H1131 H 0.84 0.39898 0.72083 0.0
H1132 H 0.84608 0.4065 0.55981 0.0
H1133 H 0.86028 0.40737 0.48628 0.0
H1134 H 0.91352 0.45204 0.53241 0.0
H1135 H 0.89968 0.45125 0.60649 0.0
C1136 C 0.84061 0.47871 0.7289 0.0
C1137 C 0.85726 0.49611 0.72474 0.0
C1138 C 0.84047 0.46204 0.71894 0.0
C1139 C 0.85708 0.46239 0.70579 0.0
C1140 C 0.87386 0.47974 0.70333 0.0
C1141 C 0.87394 0.49644 0.71244 0.0
C1142 C 0.8567 0.44485 0.69176 0.0
C1143 C 0.86458 0.4446 0.65003 0.0
C1144 C 0.84786 0.42822 0.71784 0.0
C1145 C 0.84061 0.42784 0.7637 0.0
C1146 C 0.85231 0.44063 0.79658 0.0
C1147 C 0.84539 0.44025 0.83969 0.0
C1148 C 0.82682 0.42704 0.85043 0.0
C1149 C 0.81514 0.41416 0.81812 0.0
C1150 C 0.82198 0.4145 0.77494 0.0
C1151 C 0.86971 0.37642 0.63055 0.0
C1152 C 0.85242 0.36017 0.62145 0.0
C1153 C 0.87038 0.39325 0.64168 0.0
C1154 C 0.85375 0.39403 0.64446 0.0
C1155 C 0.8365 0.37796 0.63477 0.0
C1156 C 0.83584 0.36119 0.62285 0.0
C1157 C 0.85437 0.41151 0.65903 0.0
C1158 C 0.84656 0.41169 0.70075 0.0
C1159 C 0.86357 0.42816 0.6334 0.0
C1160 C 0.87189 0.42868 0.58885 0.0
C1161 C 0.86086 0.41638 0.55443 0.0
C1162 C 0.86883 0.41689 0.51261 0.0
C1163 C 0.8878 0.42972 0.50472 0.0
C1164 C 0.89883 0.4421 0.53859 0.0
C1165 C 0.89092 0.44164 0.58049 0.0
H1166 H 0.89395 0.43009 0.47231 0.0
H1167 H 0.82149 0.42677 0.88383 0.0
H1168 H 0.47258 0.82889 0.93166 0.0
H1169 H 0.44543 0.8314 0.95458 0.0
H1170 H 0.48152 0.89083 0.97805 0.0
H1171 H 0.5089 0.88807 0.95774 0.0
H1172 H 0.45923 0.8779 0.0432 0.0
H1173 H 0.44923 0.87133 0.88514 0.0
H1174 H 0.44594 0.85749 0.80991 0.0
H1175 H 0.3983 0.80608 0.85503 0.0
H1176 H 0.40145 0.81953 0.93072 0.0
H1177 H 0.37957 0.894 0.04075 0.0
H1178 H 0.40845 0.89369 0.02168 0.0
H1179 H 0.38123 0.83464 0.05304 0.0
H1180 H 0.35246 0.8349 0.07336 0.0
H1181 H 0.39893 0.84855 0.95974 0.0
H1182 H 0.41077 0.85738 0.12001 0.0
H1183 H 0.41445 0.8737 0.19197 0.0
H1184 H 0.45944 0.92456 0.13623 0.0
H1185 H 0.45584 0.90859 0.06368 0.0
C1186 C 0.47468 0.84255 0.94105 0.0
C1187 C 0.49282 0.85831 0.94275 0.0
C1188 C 0.45912 0.844 0.95402 0.0
C1189 C 0.46131 0.86138 0.96746 0.0
C1190 C 0.47943 0.87726 0.96793 0.0
C1191 C 0.49505 0.8757 0.95608 0.0
C1192 C 0.44486 0.86277 0.98322 0.0
C1193 C 0.44618 0.87172 0.02443 0.0
C1194 C 0.42765 0.85454 0.95924 0.0
C1195 C 0.42569 0.8464 0.91373 0.0
C1196 C 0.43814 0.85703 0.87911 0.0
C1197 C 0.43628 0.84926 0.83637 0.0
C1198 C 0.42195 0.8309 0.82773 0.0
C1199 C 0.40941 0.8203 0.86179 0.0
C1200 C 0.41121 0.82799 0.9046 0.0
C1201 C 0.37986 0.88104 0.0444 0.0
C1202 C 0.36377 0.86447 0.05851 0.0
C1203 C 0.39633 0.8809 0.0335 0.0
C1204 C 0.39684 0.86413 0.03585 0.0
C1205 C 0.38102 0.8477 0.0511 0.0
C1206 C 0.36467 0.84791 0.06291 0.0
C1207 C 0.41345 0.86347 0.0194 0.0
C1208 C 0.41209 0.85473 0.9781 0.0
C1209 C 0.43071 0.87226 0.04267 0.0
C1210 C 0.43288 0.88185 0.08627 0.0
C1211 C 0.42131 0.8721 0.12294 0.0
C1212 C 0.42341 0.88127 0.16388 0.0
C1213 C 0.43713 0.90017 0.16863 0.0
C1214 C 0.4488 0.90993 0.13248 0.0
C1215 C 0.44674 0.90082 0.09146 0.0
H1216 H 0.43874 0.90725 0.20036 0.0
H1217 H 0.42053 0.82491 0.79461 0.0
H1218 H 0.63136 0.48658 0.21798 0.0
H1219 H 0.60149 0.45795 0.23474 0.0
H1220 H 0.59869 0.48137 0.36207 0.0
H1221 H 0.62815 0.51006 0.34542 0.0
H1222 H 0.59582 0.4438 0.36244 0.0
H1223 H 0.57004 0.47931 0.29268 0.0
H1224 H 0.56668 0.4974 0.231 0.0
H1225 H 0.54857 0.4502 0.1425 0.0
H1226 H 0.55209 0.43191 0.20353 0.0
H1227 H 0.50868 0.37241 0.44199 0.0
H1228 H 0.53498 0.40312 0.42081 0.0
H1229 H 0.52509 0.38714 0.28104 0.0
H1230 H 0.49809 0.35696 0.30201 0.0
H1231 H 0.53476 0.42142 0.2853 0.0
H1232 H 0.56075 0.38583 0.34777 0.0
H1233 H 0.56548 0.36663 0.40416 0.0
H1234 H 0.58512 0.4119 0.49909 0.0
H1235 H 0.58028 0.4313 0.44342 0.0
C1236 C 0.62424 0.48571 0.24927 0.0
C1237 C 0.63214 0.50057 0.28039 0.0
C1238 C 0.60721 0.4694 0.25872 0.0
C1239 C 0.598 0.46763 0.29964 0.0
C1240 C 0.60564 0.48253 0.33033 0.0
C1241 C 0.62244 0.49893 0.32062 0.0
C1242 C 0.58096 0.44985 0.3118 0.0
C1243 C 0.58237 0.43895 0.34605 0.0
C1244 C 0.56371 0.44335 0.28915 0.0
C1245 C 0.56153 0.45432 0.25254 0.0
C1246 C 0.56552 0.47285 0.25995 0.0
C1247 C 0.56355 0.48313 0.22513 0.0
C1248 C 0.55747 0.47498 0.18282 0.0
C1249 C 0.55331 0.45651 0.17527 0.0
C1250 C 0.55527 0.44618 0.20998 0.0
C1251 C 0.51206 0.37556 0.40676 0.0
C1252 C 0.50145 0.3623 0.37366 0.0
C1253 C 0.52717 0.39305 0.39465 0.0
C1254 C 0.53238 0.39732 0.34932 0.0
C1255 C 0.52143 0.38423 0.31621 0.0
C1256 C 0.50602 0.36695 0.32824 0.0
C1257 C 0.54946 0.4152 0.33643 0.0
C1258 C 0.54814 0.42615 0.3019 0.0
C1259 C 0.56699 0.42154 0.35805 0.0
C1260 C 0.56998 0.40995 0.39157 0.0
C1261 C 0.56596 0.39165 0.38077 0.0
C1262 C 0.56868 0.38073 0.41259 0.0
C1263 C 0.57555 0.38802 0.45522 0.0
C1264 C 0.57977 0.40627 0.46608 0.0
C1265 C 0.57706 0.41723 0.4344 0.0
H1266 H 0.57763 0.37955 0.47981 0.0
H1267 H 0.55595 0.48296 0.15591 0.0
H1268 H 0.1133 0.6223 0.62434 0.0
H1269 H 0.11395 0.59349 0.64044 0.0
H1270 H 0.17358 0.6223 0.61359 0.0
H1271 H 0.17279 0.65087 0.59524 0.0
H1272 H 0.15935 0.58878 0.58395 0.0
H1273 H 0.15457 0.61469 0.72348 0.0
H1274 H 0.14141 0.62743 0.77849 0.0
H1275 H 0.08922 0.57511 0.7786 0.0
H1276 H 0.10199 0.56213 0.72309 0.0
H1277 H 0.17605 0.52371 0.70811 0.0
H1278 H 0.17577 0.55268 0.69005 0.0
H1279 H 0.11555 0.52099 0.67463 0.0
H1280 H 0.1157 0.49196 0.69169 0.0
H1281 H 0.13107 0.55617 0.72749 0.0
H1282 H 0.13786 0.53132 0.58508 0.0
H1283 H 0.15327 0.51967 0.53361 0.0
H1284 H 0.20504 0.57211 0.54476 0.0
H1285 H 0.18998 0.58397 0.59688 0.0
C1286 C 0.1265 0.6224 0.62132 0.0
C1287 C 0.14302 0.63885 0.60882 0.0
C1288 C 0.12689 0.60598 0.63089 0.0
C1289 C 0.14392 0.60584 0.6295 0.0
C1290 C 0.16029 0.62206 0.61517 0.0
C1291 C 0.15982 0.63838 0.60465 0.0
C1292 C 0.14476 0.58898 0.64401 0.0
C1293 C 0.15337 0.58184 0.61563 0.0
C1294 C 0.13689 0.57978 0.68527 0.0
C1295 C 0.12918 0.5875 0.7188 0.0
C1296 C 0.14025 0.60594 0.735 0.0
C1297 C 0.13286 0.6132 0.7663 0.0
C1298 C 0.11448 0.6021 0.78194 0.0
C1299 C 0.10345 0.5837 0.7664 0.0
C1300 C 0.11076 0.57638 0.73505 0.0
C1301 C 0.16274 0.52295 0.70132 0.0
C1302 C 0.1459 0.50557 0.70114 0.0
C1303 C 0.16262 0.53947 0.69087 0.0
C1304 C 0.14565 0.53887 0.68083 0.0
C1305 C 0.12877 0.52167 0.68228 0.0
C1306 C 0.1289 0.50513 0.69189 0.0
C1307 C 0.1455 0.55608 0.66733 0.0
C1308 C 0.13706 0.56324 0.69594 0.0
C1309 C 0.15386 0.56552 0.62683 0.0
C1310 C 0.16286 0.55845 0.59525 0.0
C1311 C 0.15257 0.5403 0.57688 0.0
C1312 C 0.16123 0.53367 0.54752 0.0
C1313 C 0.18014 0.54512 0.53602 0.0
C1314 C 0.1904 0.56325 0.55376 0.0
C1315 C 0.18181 0.56993 0.58318 0.0
H1316 H 0.18681 0.53996 0.51329 0.0
H1317 H 0.10879 0.60775 0.80618 0.0
H1318 H 0.6257 0.13901 0.09537 0.0
H1319 H 0.59539 0.13542 0.07231 0.0
H1320 H 0.60419 0.12211 0.93772 0.0
H1321 H 0.63419 0.12508 0.96067 0.0
H1322 H 0.59473 0.1548 0.95889 0.0
H1323 H 0.57521 0.08853 0.97514 0.0
H1324 H 0.57262 0.06154 0.01735 0.0
H1325 H 0.5423 0.07095 0.12201 0.0
H1326 H 0.545 0.09821 0.08072 0.0
H1327 H 0.50868 0.13881 0.87025 0.0
H1328 H 0.53599 0.1352 0.88506 0.0
H1329 H 0.51762 0.11974 0.02211 0.0
H1330 H 0.48988 0.12236 0.00681 0.0
H1331 H 0.5323 0.1004 0.99675 0.0
H1332 H 0.55191 0.16586 0.9892 0.0
H1333 H 0.55547 0.19491 0.95577 0.0
H1334 H 0.58655 0.18997 0.8458 0.0
H1335 H 0.58296 0.16074 0.87832 0.0
C1336 C 0.6211 0.13517 0.06096 0.0
C1337 C 0.63228 0.13231 0.02981 0.0
C1338 C 0.60381 0.13309 0.04793 0.0
C1339 C 0.59766 0.12846 0.00344 0.0
C1340 C 0.60875 0.12561 0.97225 0.0
C1341 C 0.62582 0.12727 0.98547 0.0
C1342 C 0.57998 0.1274 0.98909 0.0
C1343 C 0.58104 0.1428 0.96636 0.0
C1344 C 0.56226 0.11201 0.00046 0.0
C1345 C 0.5605 0.09554 0.02509 0.0
C1346 C 0.56817 0.08497 0.00738 0.0
C1347 C 0.56664 0.06959 0.03108 0.0
C1348 C 0.55735 0.06456 0.07241 0.0
C1349 C 0.54952 0.07487 0.09004 0.0
C1350 C 0.55103 0.09028 0.06648 0.0
C1351 C 0.51036 0.13439 0.90333 0.0
C1352 C 0.49723 0.13102 0.93745 0.0
C1353 C 0.52602 0.13244 0.91187 0.0
C1354 C 0.52915 0.12766 0.95506 0.0
C1355 C 0.5156 0.1235 0.98857 0.0
C1356 C 0.49974 0.12504 0.97978 0.0
C1357 C 0.54689 0.12786 0.96609 0.0
C1358 C 0.54592 0.11236 0.98859 0.0
C1359 C 0.56476 0.14343 0.95552 0.0
C1360 C 0.56698 0.16101 0.93592 0.0
C1361 C 0.55938 0.1709 0.95772 0.0
C1362 C 0.56143 0.1874 0.93897 0.0
C1363 C 0.57118 0.19425 0.89862 0.0
C1364 C 0.57897 0.18463 0.87701 0.0
C1365 C 0.57694 0.1681 0.89559 0.0
H1366 H 0.57275 0.20703 0.88415 0.0
H1367 H 0.55618 0.05265 0.09071 0.0
loop_
_geom_bond_atom_site_label_1
_geom_bond_atom_site_label_2
_geom_bond_distance
_geom_bond_site_symmetry_2
_ccdc_geom_bond_type
O0 Cd1 2.223 . S
O0 C8 1.315 . S
Cd1 O0 2.223 . S
Cd1 O4 2.297 . S
Cd1 O5 2.439 . S
Cd1 O11 2.240 . S
Cd2 O3 2.240 . S
Cd2 O10 2.223 . S
Cd2 O12 2.297 . S
Cd2 O13 2.439 . S
O3 Cd2 2.240 . S
O3 C8 1.279 . S
O4 Cd1 2.297 . S
O4 C6 1.247 . S
O5 Cd1 2.439 . S
O5 C6 1.208 . S
C6 O4 1.247 . S
C6 O5 1.208 . S
C7 O12 1.247 . S
C7 O13 1.208 . S
C8 O0 1.315 . S
C8 O3 1.279 . S
C9 O10 1.315 . S
C9 O11 1.279 . S
O10 Cd2 2.223 . S
O10 C9 1.315 . S
O11 Cd1 2.240 . S
O11 C9 1.279 . S
O12 Cd2 2.297 . S
O12 C7 1.247 . S
O13 Cd2 2.439 . S
O13 C7 1.208 . S
O14 Cd15 2.223 . S
O14 C22 1.315 . S
Cd15 O14 2.223 . S
Cd15 O18 2.297 . S
Cd15 O19 2.439 . S
Cd15 O25 2.240 . S
Cd16 O17 2.240 . S
Cd16 O24 2.223 . S
Cd16 O26 2.297 . S
Cd16 O27 2.439 . S
O17 Cd16 2.240 . S
O17 C22 1.279 . S
O18 Cd15 2.297 . S
O18 C20 1.247 . S
O19 Cd15 2.439 . S
O19 C20 1.208 . S
C20 O18 1.247 . S
C20 O19 1.208 . S
C21 O26 1.247 . S
C21 O27 1.208 . S
C22 O14 1.315 . S
C22 O17 1.279 . S
C23 O24 1.315 . S
C23 O25 1.279 . S
O24 Cd16 2.223 . S
O24 C23 1.315 . S
O25 Cd15 2.240 . S
O25 C23 1.279 . S
O26 Cd16 2.297 . S
O26 C21 1.247 . S
O27 Cd16 2.439 . S
O27 C21 1.208 . S
O28 Cd29 2.223 . S
O28 C36 1.315 . S
Cd29 O28 2.223 . S
Cd29 O32 2.297 . S
Cd29 O33 2.439 . S
Cd29 O39 2.240 . S
Cd30 O31 2.240 . S
Cd30 O38 2.223 1_556 S
Cd30 O40 2.297 . S
Cd30 O41 2.439 . S
O31 Cd30 2.240 . S
O31 C36 1.279 . S
O32 Cd29 2.297 . S
O32 C34 1.247 . S
O33 Cd29 2.439 . S
O33 C34 1.208 . S
C34 O32 1.247 . S
C34 O33 1.208 . S
C35 O40 1.247 . S
C35 O41 1.208 . S
C36 O28 1.315 . S
C36 O31 1.279 . S
C37 O38 1.315 1_556 S
C37 O39 1.279 . S
O38 Cd30 2.223 1_554 S
O38 C37 1.315 1_554 S
O39 Cd29 2.240 . S
O39 C37 1.279 . S
O40 Cd30 2.297 . S
O40 C35 1.247 . S
O41 Cd30 2.439 . S
O41 C35 1.208 . S
O42 Cd43 2.223 . S
O42 C50 1.315 . S
Cd43 O42 2.223 . S
Cd43 O46 2.297 . S
Cd43 O47 2.439 . S
Cd43 O53 2.240 . S
Cd44 O45 2.240 . S
Cd44 O52 2.223 . S
Cd44 O54 2.297 . S
Cd44 O55 2.439 . S
O45 Cd44 2.240 . S
O45 C50 1.279 . S
O46 Cd43 2.297 . S
O46 C48 1.247 . S
O47 Cd43 2.439 . S
O47 C48 1.208 . S
C48 O46 1.247 . S
C48 O47 1.208 . S
C49 O54 1.247 . S
C49 O55 1.208 . S
C50 O42 1.315 . S
C50 O45 1.279 . S
C51 O52 1.315 . S
C51 O53 1.279 . S
O52 Cd44 2.223 . S
O52 C51 1.315 . S
O53 Cd43 2.240 . S
O53 C51 1.279 . S
O54 Cd44 2.297 . S
O54 C49 1.247 . S
O55 Cd44 2.439 . S
O55 C49 1.208 . S
O56 Cd57 2.223 . S
O56 C64 1.315 . S
Cd57 O56 2.223 . S
Cd57 O60 2.297 . S
Cd57 O61 2.439 . S
Cd57 O67 2.240 . S
Cd58 O59 2.240 . S
Cd58 O66 2.223 . S
Cd58 O68 2.297 . S
Cd58 O69 2.439 . S
O59 Cd58 2.240 . S
O59 C64 1.279 . S
O60 Cd57 2.297 . S
O60 C62 1.247 . S
O61 Cd57 2.439 . S
O61 C62 1.208 . S
C62 O60 1.247 . S
C62 O61 1.208 . S
C63 O68 1.247 . S
C63 O69 1.208 . S
C64 O56 1.315 . S
C64 O59 1.279 . S
C65 O66 1.315 . S
C65 O67 1.279 . S
O66 Cd58 2.223 . S
O66 C65 1.315 . S
O67 Cd57 2.240 . S
O67 C65 1.279 . S
O68 Cd58 2.297 . S
O68 C63 1.247 . S
O69 Cd58 2.439 . S
O69 C63 1.208 . S
O70 Cd71 2.223 . S
O70 C78 1.315 . S
Cd71 O70 2.223 . S
Cd71 O74 2.297 . S
Cd71 O75 2.439 . S
Cd71 O81 2.240 . S
Cd72 O73 2.240 . S
Cd72 O80 2.223 1_556 S
Cd72 O82 2.297 . S
Cd72 O83 2.439 . S
O73 Cd72 2.240 . S
O73 C78 1.279 . S
O74 Cd71 2.297 . S
O74 C76 1.247 . S
O75 Cd71 2.439 . S
O75 C76 1.208 . S
C76 O74 1.247 . S
C76 O75 1.208 . S
C77 O82 1.247 . S
C77 O83 1.208 . S
C78 O70 1.315 . S
C78 O73 1.279 . S
C79 O80 1.315 1_556 S
C79 O81 1.279 . S
O80 Cd72 2.223 1_554 S
O80 C79 1.315 1_554 S
O81 Cd71 2.240 . S
O81 C79 1.279 . S
O82 Cd72 2.297 . S
O82 C77 1.247 . S
O83 Cd72 2.439 . S
O83 C77 1.208 . S
O84 Cd85 2.223 . S
O84 C92 1.315 . S
Cd85 O84 2.223 . S
Cd85 O88 2.297 . S
Cd85 O89 2.439 . S
Cd85 O95 2.240 . S
Cd86 O87 2.240 . S
Cd86 O94 2.223 . S
Cd86 O96 2.297 . S
Cd86 O97 2.439 . S
O87 Cd86 2.240 . S
O87 C92 1.279 . S
O88 Cd85 2.297 . S
O88 C90 1.247 . S
O89 Cd85 2.439 . S
O89 C90 1.208 . S
C90 O88 1.247 . S
C90 O89 1.208 . S
C91 O96 1.247 . S
C91 O97 1.208 . S
C92 O84 1.315 . S
C92 O87 1.279 . S
C93 O94 1.315 . S
C93 O95 1.279 . S
O94 Cd86 2.223 . S
O94 C93 1.315 . S
O95 Cd85 2.240 . S
O95 C93 1.279 . S
O96 Cd86 2.297 . S
O96 C91 1.247 . S
O97 Cd86 2.439 . S
O97 C91 1.208 . S
O98 Cd99 2.223 . S
O98 C106 1.315 . S
Cd99 O98 2.223 . S
Cd99 O102 2.297 . S
Cd99 O103 2.439 . S
Cd99 O109 2.240 . S
Cd100 O101 2.240 . S
Cd100 O108 2.223 . S
Cd100 O110 2.297 . S
Cd100 O111 2.439 . S
O101 Cd100 2.240 . S
O101 C106 1.279 . S
O102 Cd99 2.297 . S
O102 C104 1.247 . S
O103 Cd99 2.439 . S
O103 C104 1.208 . S
C104 O102 1.247 . S
C104 O103 1.208 . S
C105 O110 1.247 . S
C105 O111 1.208 . S
C106 O98 1.315 . S
C106 O101 1.279 . S
C107 O108 1.315 . S
C107 O109 1.279 . S
O108 Cd100 2.223 . S
O108 C107 1.315 . S
O109 Cd99 2.240 . S
O109 C107 1.279 . S
O110 Cd100 2.297 . S
O110 C105 1.247 . S
O111 Cd100 2.439 . S
O111 C105 1.208 . S
O112 Cd113 2.223 . S
O112 C120 1.315 . S
Cd113 O112 2.223 . S
Cd113 O116 2.297 . S
Cd113 O117 2.439 . S
Cd113 O123 2.240 . S
Cd114 O115 2.240 . S
Cd114 O122 2.223 1_554 S
Cd114 O124 2.297 . S
Cd114 O125 2.439 . S
O115 Cd114 2.240 . S
O115 C120 1.279 . S
O116 Cd113 2.297 . S
O116 C118 1.247 . S
O117 Cd113 2.439 . S
O117 C118 1.208 . S
C118 O116 1.247 . S
C118 O117 1.208 . S
C119 O124 1.247 . S
C119 O125 1.208 . S
C120 O112 1.315 . S
C120 O115 1.279 . S
C121 O122 1.315 1_554 S
C121 O123 1.279 . S
O122 Cd114 2.223 1_556 S
O122 C121 1.315 1_556 S
O123 Cd113 2.240 . S
O123 C121 1.279 . S
O124 Cd114 2.297 . S
O124 C119 1.247 . S
O125 Cd114 2.439 . S
O125 C119 1.208 . S
O126 Cd127 2.223 . S
O126 C134 1.315 . S
Cd127 O126 2.223 . S
Cd127 O130 2.297 . S
Cd127 O131 2.439 . S
Cd127 O137 2.240 . S
Cd128 O129 2.240 . S
Cd128 O136 2.223 . S
Cd128 O138 2.297 . S
Cd128 O139 2.439 . S
O129 Cd128 2.240 . S
O129 C134 1.279 . S
O130 Cd127 2.297 . S
O130 C132 1.247 . S
O131 Cd127 2.439 . S
O131 C132 1.208 . S
C132 O130 1.247 . S
C132 O131 1.208 . S
C133 O138 1.247 . S
C133 O139 1.208 . S
C134 O126 1.315 . S
C134 O129 1.279 . S
C135 O136 1.315 . S
C135 O137 1.279 . S
O136 Cd128 2.223 . S
O136 C135 1.315 . S
O137 Cd127 2.240 . S
O137 C135 1.279 . S
O138 Cd128 2.297 . S
O138 C133 1.247 . S
O139 Cd128 2.439 . S
O139 C133 1.208 . S
O140 Cd141 2.223 . S
O140 C148 1.315 . S
Cd141 O140 2.223 . S
Cd141 O144 2.297 . S
Cd141 O145 2.439 . S
Cd141 O151 2.240 . S
Cd142 O143 2.240 . S
Cd142 O150 2.223 . S
Cd142 O152 2.297 . S
Cd142 O153 2.439 . S
O143 Cd142 2.240 . S
O143 C148 1.279 . S
O144 Cd141 2.297 . S
O144 C146 1.247 . S
O145 Cd141 2.439 . S
O145 C146 1.208 . S
C146 O144 1.247 . S
C146 O145 1.208 . S
C147 O152 1.247 . S
C147 O153 1.208 . S
C148 O140 1.315 . S
C148 O143 1.279 . S
C149 O150 1.315 . S
C149 O151 1.279 . S
O150 Cd142 2.223 . S
O150 C149 1.315 . S
O151 Cd141 2.240 . S
O151 C149 1.279 . S
O152 Cd142 2.297 . S
O152 C147 1.247 . S
O153 Cd142 2.439 . S
O153 C147 1.208 . S
O154 Cd155 2.223 . S
O154 C162 1.315 . S
Cd155 O154 2.223 . S
Cd155 O158 2.297 . S
Cd155 O159 2.439 . S
Cd155 O165 2.240 . S
Cd156 O157 2.240 . S
Cd156 O164 2.223 1_554 S
Cd156 O166 2.297 . S
Cd156 O167 2.439 . S
O157 Cd156 2.240 . S
O157 C162 1.279 . S
O158 Cd155 2.297 . S
O158 C160 1.247 . S
O159 Cd155 2.439 . S
O159 C160 1.208 . S
C160 O158 1.247 . S
C160 O159 1.208 . S
C161 O166 1.247 . S
C161 O167 1.208 . S
C162 O154 1.315 . S
C162 O157 1.279 . S
C163 O164 1.315 1_554 S
C163 O165 1.279 . S
O164 Cd156 2.223 1_556 S
O164 C163 1.315 1_556 S
O165 Cd155 2.240 . S
O165 C163 1.279 . S
O166 Cd156 2.297 . S
O166 C161 1.247 . S
O167 Cd156 2.439 . S
O167 C161 1.208 . S
H168 C186 0.951 . S
H169 C188 0.951 . S
H170 C190 0.950 . S
H171 C191 0.950 . S
H172 C193 0.950 . S
H173 C196 0.950 . S
H174 C197 0.950 . S
H175 C199 0.950 . S
H176 C200 0.950 . S
H177 C201 0.951 . S
H178 C203 0.951 . S
H179 C205 0.950 . S
H180 C206 0.950 . S
H181 C208 0.950 . S
H182 C211 0.950 . S
H183 C212 0.950 . S
H184 C214 0.950 . S
H185 C215 0.950 . S
C186 H168 0.951 . S
C186 C187 1.366 . S
C186 C188 1.388 . S
C187 C186 1.366 . S
C187 C191 1.385 . S
C188 H169 0.951 . S
C188 C186 1.388 . S
C188 C189 1.366 . S
C189 C188 1.366 . S
C189 C190 1.414 . S
C189 C192 1.499 . S
C190 H170 0.950 . S
C190 C189 1.414 . S
C190 C191 1.374 . S
C191 H171 0.950 . S
C191 C187 1.385 . S
C191 C190 1.374 . S
C192 C189 1.499 . S
C192 C193 1.373 . S
C192 C194 1.389 . S
C193 H172 0.950 . S
C193 C192 1.373 . S
C193 C209 1.377 . S
C194 C192 1.389 . S
C194 C195 1.524 . S
C194 C208 1.377 . S
C195 C194 1.524 . S
C195 C196 1.397 . S
C195 C200 1.363 . S
C196 H173 0.950 . S
C196 C195 1.397 . S
C196 C197 1.334 . S
C197 H174 0.950 . S
C197 C196 1.334 . S
C197 C198 1.287 . S
C198 C197 1.287 . S
C198 C199 1.524 . S
C198 H217 0.913 . S
C199 H175 0.950 . S
C199 C198 1.524 . S
C199 C200 1.415 . S
C200 H176 0.950 . S
C200 C195 1.363 . S
C200 C199 1.415 . S
C201 H177 0.951 . S
C201 C202 1.366 . S
C201 C203 1.388 . S
C202 C201 1.366 . S
C202 C206 1.385 . S
C203 H178 0.951 . S
C203 C201 1.388 . S
C203 C204 1.366 . S
C204 C203 1.366 . S
C204 C205 1.414 . S
C204 C207 1.499 . S
C205 H179 0.950 . S
C205 C204 1.414 . S
C205 C206 1.374 . S
C206 H180 0.950 . S
C206 C202 1.385 . S
C206 C205 1.374 . S
C207 C204 1.499 . S
C207 C208 1.373 . S
C207 C209 1.389 . S
C208 H181 0.950 . S
C208 C194 1.377 . S
C208 C207 1.373 . S
C209 C193 1.377 . S
C209 C207 1.389 . S
C209 C210 1.524 . S
C210 C209 1.524 . S
C210 C211 1.397 . S
C210 C215 1.363 . S
C211 H182 0.950 . S
C211 C210 1.397 . S
C211 C212 1.334 . S
C212 H183 0.950 . S
C212 C211 1.334 . S
C212 C213 1.287 . S
C213 C212 1.287 . S
C213 C214 1.524 . S
C213 H216 0.999 . S
C214 H184 0.950 . S
C214 C213 1.524 . S
C214 C215 1.415 . S
C215 H185 0.950 . S
C215 C210 1.363 . S
C215 C214 1.415 . S
H216 C213 0.999 . S
H217 C198 0.913 . S
H218 C236 0.951 . S
H219 C238 0.951 . S
H220 C240 0.950 . S
H221 C241 0.950 . S
H222 C243 0.950 . S
H223 C246 0.950 . S
H224 C247 0.950 . S
H225 C249 0.950 . S
H226 C250 0.956 . S
H227 C251 0.951 . S
H228 C253 0.951 . S
H229 C255 0.950 . S
H230 C256 0.950 . S
H231 C258 0.950 . S
H232 C261 0.950 . S
H233 C262 0.950 . S
H234 C264 0.950 . S
H235 C265 0.956 . S
C236 H218 0.951 . S
C236 C237 1.366 . S
C236 C238 1.388 . S
C237 C236 1.366 . S
C237 C241 1.385 . S
C238 H219 0.951 . S
C238 C236 1.388 . S
C238 C239 1.366 . S
C239 C238 1.366 . S
C239 C240 1.414 . S
C239 C242 1.499 . S
C240 H220 0.950 . S
C240 C239 1.414 . S
C240 C241 1.374 . S
C241 H221 0.950 . S
C241 C237 1.385 . S
C241 C240 1.374 . S
C242 C239 1.499 . S
C242 C243 1.373 . S
C242 C244 1.389 . S
C243 H222 0.950 . S
C243 C242 1.373 . S
C243 C259 1.377 1_655 S
C244 C242 1.389 . S
C244 C245 1.524 . S
C244 C258 1.377 1_655 S
C245 C244 1.524 . S
C245 C246 1.397 . S
C245 C250 1.363 . S
C246 H223 0.950 . S
C246 C245 1.397 . S
C246 C247 1.334 . S
C247 H224 0.950 . S
C247 C246 1.334 . S
C247 C248 1.287 . S
C248 C247 1.287 . S
C248 C249 1.524 . S
C248 H267 0.913 . S
C249 H225 0.950 . S
C249 C248 1.524 . S
C249 C250 1.415 . S
C250 H226 0.956 . S
C250 C245 1.363 . S
C250 C249 1.415 . S
C251 H227 0.951 . S
C251 C252 1.366 . S
C251 C253 1.388 . S
C252 C251 1.366 . S
C252 C256 1.385 . S
C253 H228 0.951 . S
C253 C251 1.388 . S
C253 C254 1.366 . S
C254 C253 1.366 . S
C254 C255 1.414 . S
C254 C257 1.499 . S
C255 H229 0.950 . S
C255 C254 1.414 . S
C255 C256 1.374 . S
C256 H230 0.950 . S
C256 C252 1.385 . S
C256 C255 1.374 . S
C257 C254 1.499 . S
C257 C258 1.373 . S
C257 C259 1.389 . S
C258 H231 0.950 . S
C258 C244 1.377 1_455 S
C258 C257 1.373 . S
C259 C243 1.377 1_455 S
C259 C257 1.389 . S
C259 C260 1.524 . S
C260 C259 1.524 . S
C260 C261 1.397 . S
C260 C265 1.363 . S
C261 H232 0.950 . S
C261 C260 1.397 . S
C261 C262 1.334 . S
C262 H233 0.950 . S
C262 C261 1.334 . S
C262 C263 1.287 . S
C263 C262 1.287 . S
C263 C264 1.524 . S
C263 H266 0.999 . S
C264 H234 0.950 . S
C264 C263 1.524 . S
C264 C265 1.415 . S
C265 H235 0.956 . S
C265 C260 1.363 . S
C265 C264 1.415 . S
H266 C263 0.999 . S
H267 C248 0.913 . S
H268 C286 0.951 . S
H269 C288 0.951 . S
H270 C290 0.974 . S
H271 C291 0.950 1_554 S
H272 C293 0.950 . S
H273 C296 0.950 . S
H274 C297 0.950 . S
H275 C299 0.950 1_545 S
H276 C300 0.950 . S
H277 C301 0.951 . S
H278 C303 0.951 . S
H279 C305 0.950 . S
H280 C306 0.950 1_556 S
H281 C308 0.950 . S
H282 C311 0.950 . S
H283 C312 0.950 . S
H284 C314 0.950 1_565 S
H285 C315 0.950 . S
C286 H268 0.951 . S
C286 C287 1.366 . S
C286 C288 1.388 . S
C287 C286 1.366 . S
C287 C291 1.385 . S
C288 H269 0.951 . S
C288 C286 1.388 . S
C288 C289 1.366 . S
C289 C288 1.366 . S
C289 C290 1.398 1_556 S
C289 C292 1.499 . S
C290 H270 0.974 . S
C290 C289 1.398 1_554 S
C290 C291 1.366 1_554 S
C291 H271 0.950 1_556 S
C291 C287 1.385 . S
C291 C290 1.366 1_556 S
C292 C289 1.499 . S
C292 C293 1.373 1_556 S
C292 C294 1.389 . S
C293 H272 0.950 . S
C293 C292 1.373 1_554 S
C293 C309 1.377 1_565 S
C294 C292 1.389 . S
C294 C295 1.524 . S
C294 C308 1.377 1_565 S
C295 C294 1.524 . S
C295 C296 1.397 . S
C295 C300 1.363 1_565 S
C296 H273 0.950 . S
C296 C295 1.397 . S
C296 C297 1.334 . S
C297 H274 0.950 . S
C297 C296 1.334 . S
C297 C298 1.287 . S
C298 C297 1.287 . S
C298 C299 1.524 . S
C298 H317 0.913 . S
C299 H275 0.950 1_565 S
C299 C298 1.524 . S
C299 C300 1.415 1_565 S
C300 H276 0.950 . S
C300 C295 1.363 1_545 S
C300 C299 1.415 1_545 S
C301 H277 0.951 . S
C301 C302 1.366 . S
C301 C303 1.388 . S
C302 C301 1.366 . S
C302 C306 1.385 . S
C303 H278 0.951 . S
C303 C301 1.388 . S
C303 C304 1.366 . S
C304 C303 1.366 . S
C304 C305 1.414 1_554 S
C304 C307 1.499 . S
C305 H279 0.950 . S
C305 C304 1.414 1_556 S
C305 C306 1.374 1_556 S
C306 H280 0.950 1_554 S
C306 C302 1.385 . S
C306 C305 1.374 1_554 S
C307 C304 1.499 . S
C307 C308 1.373 1_554 S
C307 C309 1.389 . S
C308 H281 0.950 . S
C308 C294 1.377 1_545 S
C308 C307 1.373 1_556 S
C309 C293 1.377 1_545 S
C309 C307 1.389 . S
C309 C310 1.524 . S
C310 C309 1.524 . S
C310 C311 1.397 . S
C310 C315 1.363 1_545 S
C311 H282 0.950 . S
C311 C310 1.397 . S
C311 C312 1.334 . S
C312 H283 0.950 . S
C312 C311 1.334 . S
C312 C313 1.287 . S
C313 C312 1.287 . S
C313 C314 1.524 . S
C313 H316 0.999 . S
C314 H284 0.950 1_545 S
C314 C313 1.524 . S
C314 C315 1.415 1_545 S
C315 H285 0.950 . S
C315 C310 1.363 1_565 S
C315 C314 1.415 1_565 S
H316 C313 0.999 . S
H317 C298 0.913 . S
H318 C336 0.951 . S
H319 C338 0.951 . S
H320 C340 0.950 . S
H321 C341 0.950 . S
H322 C343 0.950 . S
H323 C346 0.950 . S
H324 C347 0.950 . S
H325 C349 0.950 . S
H326 C350 0.950 . S
H327 C351 0.951 . S
H328 C353 0.951 . S
H329 C355 0.950 . S
H330 C356 0.950 . S
H331 C358 0.950 . S
H332 C361 0.950 . S
H333 C362 0.950 . S
H334 C364 0.950 . S
H335 C365 0.950 . S
C336 H318 0.951 . S
C336 C337 1.366 . S
C336 C338 1.388 . S
C337 C336 1.366 . S
C337 C341 1.385 . S
C338 H319 0.951 . S
C338 C336 1.388 . S
C338 C339 1.366 . S
C339 C338 1.366 . S
C339 C340 1.414 . S
C339 C342 1.499 . S
C340 H320 0.950 . S
C340 C339 1.414 . S
C340 C341 1.374 . S
C341 H321 0.950 . S
C341 C337 1.385 . S
C341 C340 1.374 . S
C342 C339 1.499 . S
C342 C343 1.373 . S
C342 C344 1.389 . S
C343 H322 0.950 . S
C343 C342 1.373 . S
C343 C359 1.377 . S
C344 C342 1.389 . S
C344 C345 1.524 . S
C344 C358 1.377 . S
C345 C344 1.524 . S
C345 C346 1.397 . S
C345 C350 1.363 . S
C346 H323 0.950 . S
C346 C345 1.397 . S
C346 C347 1.334 . S
C347 H324 0.950 . S
C347 C346 1.334 . S
C347 C348 1.287 . S
C348 C347 1.287 . S
C348 C349 1.524 . S
C348 H367 0.913 . S
C349 H325 0.950 . S
C349 C348 1.524 . S
C349 C350 1.415 . S
C350 H326 0.950 . S
C350 C345 1.363 . S
C350 C349 1.415 . S
C351 H327 0.951 . S
C351 C352 1.366 . S
C351 C353 1.388 . S
C352 C351 1.366 . S
C352 C356 1.385 . S
C353 H328 0.951 . S
C353 C351 1.388 . S
C353 C354 1.366 . S
C354 C353 1.366 . S
C354 C355 1.414 . S
C354 C357 1.499 . S
C355 H329 0.950 . S
C355 C354 1.414 . S
C355 C356 1.374 . S
C356 H330 0.950 . S
C356 C352 1.385 . S
C356 C355 1.374 . S
C357 C354 1.499 . S
C357 C358 1.373 . S
C357 C359 1.389 . S
C358 H331 0.950 . S
C358 C344 1.377 . S
C358 C357 1.373 . S
C359 C343 1.377 . S
C359 C357 1.389 . S
C359 C360 1.524 . S
C360 C359 1.524 . S
C360 C361 1.397 . S
C360 C365 1.363 . S
C361 H332 0.950 . S
C361 C360 1.397 . S
C361 C362 1.334 . S
C362 H333 0.950 . S
C362 C361 1.334 . S
C362 C363 1.287 . S
C363 C362 1.287 . S
C363 C364 1.524 . S
C363 H366 0.999 . S
C364 H334 0.950 . S
C364 C363 1.524 . S
C364 C365 1.415 . S
C365 H335 0.950 . S
C365 C360 1.363 . S
C365 C364 1.415 . S
H366 C363 0.999 . S
H367 C348 0.913 . S
H368 C386 0.951 . S
H369 C388 0.951 . S
H370 C390 0.950 . S
H371 C391 0.950 . S
H372 C393 0.950 . S
H373 C396 0.950 . S
H374 C397 0.950 . S
H375 C399 0.948 . S
H376 C400 0.950 1_455 S
H377 C401 0.951 . S
H378 C403 0.951 . S
H379 C405 0.950 . S
H380 C406 0.950 . S
H381 C408 0.950 . S
H382 C411 0.950 . S
H383 C412 0.950 . S
H384 C414 0.948 . S
H385 C415 0.950 1_655 S
C386 H368 0.951 . S
C386 C387 1.366 . S
C386 C388 1.388 . S
C387 C386 1.366 . S
C387 C391 1.385 . S
C388 H369 0.951 . S
C388 C386 1.388 . S
C388 C389 1.366 . S
C389 C388 1.366 . S
C389 C390 1.414 . S
C389 C392 1.499 . S
C390 H370 0.950 . S
C390 C389 1.414 . S
C390 C391 1.374 . S
C391 H371 0.950 . S
C391 C387 1.385 . S
C391 C390 1.374 . S
C392 C389 1.499 . S
C392 C393 1.373 . S
C392 C394 1.389 . S
C393 H372 0.950 . S
C393 C392 1.373 . S
C393 C409 1.377 1_655 S
C394 C392 1.389 . S
C394 C395 1.524 . S
C394 C408 1.377 1_655 S
C395 C394 1.524 . S
C395 C396 1.397 . S
C395 C400 1.363 . S
C396 H373 0.950 . S
C396 C395 1.397 . S
C396 C397 1.334 . S
C397 H374 0.950 . S
C397 C396 1.334 . S
C397 C398 1.287 . S
C398 C397 1.287 . S
C398 C399 1.524 . S
C398 H417 0.913 . S
C399 H375 0.948 . S
C399 C398 1.524 . S
C399 C400 1.415 . S
C400 H376 0.950 1_655 S
C400 C395 1.363 . S
C400 C399 1.415 . S
C401 H377 0.951 . S
C401 C402 1.366 . S
C401 C403 1.388 . S
C402 C401 1.366 . S
C402 C406 1.385 . S
C403 H378 0.951 . S
C403 C401 1.388 . S
C403 C404 1.366 . S
C404 C403 1.366 . S
C404 C405 1.414 . S
C404 C407 1.499 . S
C405 H379 0.950 . S
C405 C404 1.414 . S
C405 C406 1.374 . S
C406 H380 0.950 . S
C406 C402 1.385 . S
C406 C405 1.374 . S
C407 C404 1.499 . S
C407 C408 1.373 . S
C407 C409 1.389 . S
C408 H381 0.950 . S
C408 C394 1.377 1_455 S
C408 C407 1.373 . S
C409 C393 1.377 1_455 S
C409 C407 1.389 . S
C409 C410 1.524 . S
C410 C409 1.524 . S
C410 C411 1.397 . S
C410 C415 1.363 . S
C411 H382 0.950 . S
C411 C410 1.397 . S
C411 C412 1.334 . S
C412 H383 0.950 . S
C412 C411 1.334 . S
C412 C413 1.287 . S
C413 C412 1.287 . S
C413 C414 1.524 . S
C413 H416 0.999 . S
C414 H384 0.948 . S
C414 C413 1.524 . S
C414 C415 1.415 . S
C415 H385 0.950 1_455 S
C415 C410 1.363 . S
C415 C414 1.415 . S
H416 C413 0.999 . S
H417 C398 0.913 . S
H418 C436 0.951 . S
H419 C438 0.951 . S
H420 C440 0.950 1_556 S
H421 C441 0.950 . S
H422 C443 0.950 . S
H423 C446 0.950 . S
H424 C447 0.950 . S
H425 C449 0.950 . S
H426 C450 0.950 1_554 S
H427 C451 0.951 . S
H428 C453 0.951 . S
H429 C455 0.937 1_554 S
H430 C456 0.950 . S
H431 C458 0.950 . S
H432 C461 0.950 . S
H433 C462 0.950 . S
H434 C464 0.950 . S
H435 C465 0.950 1_556 S
C436 H418 0.951 . S
C436 C437 1.366 . S
C436 C438 1.388 . S
C437 C436 1.366 . S
C437 C441 1.385 . S
C438 H419 0.951 . S
C438 C436 1.388 . S
C438 C439 1.366 . S
C439 C438 1.366 . S
C439 C440 1.414 . S
C439 C442 1.499 . S
C440 H420 0.950 1_554 S
C440 C439 1.414 . S
C440 C441 1.374 . S
C441 H421 0.950 . S
C441 C437 1.385 . S
C441 C440 1.374 . S
C442 C439 1.499 . S
C442 C443 1.373 . S
C442 C444 1.389 1_554 S
C443 H422 0.950 . S
C443 C442 1.373 . S
C443 C459 1.377 1_565 S
C444 C442 1.389 1_556 S
C444 C445 1.524 . S
C444 C458 1.377 1_565 S
C445 C444 1.524 . S
C445 C446 1.397 . S
C445 C450 1.363 . S
C446 H423 0.950 . S
C446 C445 1.397 . S
C446 C447 1.334 . S
C447 H424 0.950 . S
C447 C446 1.334 . S
C447 C448 1.287 . S
C448 C447 1.287 . S
C448 C449 1.524 . S
C448 H467 0.913 . S
C449 H425 0.950 . S
C449 C448 1.524 . S
C449 C450 1.415 . S
C450 H426 0.950 1_556 S
C450 C445 1.363 . S
C450 C449 1.415 . S
C451 H427 0.951 . S
C451 C452 1.366 . S
C451 C453 1.388 . S
C452 C451 1.366 . S
C452 C456 1.385 . S
C453 H428 0.951 . S
C453 C451 1.388 . S
C453 C454 1.366 . S
C454 C453 1.366 . S
C454 C455 1.414 . S
C454 C457 1.499 . S
C455 H429 0.937 1_556 S
C455 C454 1.414 . S
C455 C456 1.374 . S
C456 H430 0.950 . S
C456 C452 1.385 . S
C456 C455 1.374 . S
C457 C454 1.499 . S
C457 C458 1.373 . S
C457 C459 1.389 1_556 S
C458 H431 0.950 . S
C458 C444 1.377 1_545 S
C458 C457 1.373 . S
C459 C443 1.377 1_545 S
C459 C457 1.389 1_554 S
C459 C460 1.524 . S
C460 C459 1.524 . S
C460 C461 1.397 . S
C460 C465 1.363 . S
C461 H432 0.950 . S
C461 C460 1.397 . S
C461 C462 1.334 . S
C462 H433 0.950 . S
C462 C461 1.334 . S
C462 C463 1.287 . S
C463 C462 1.287 . S
C463 C464 1.524 . S
C463 H466 0.999 . S
C464 H434 0.950 . S
C464 C463 1.524 . S
C464 C465 1.415 . S
C465 H435 0.950 1_554 S
C465 C460 1.363 . S
C465 C464 1.415 . S
H466 C463 0.999 . S
H467 C448 0.913 . S
H468 C486 0.951 . S
H469 C488 0.951 . S
H470 C490 0.950 . S
H471 C491 0.950 . S
H472 C493 0.950 . S
H473 C496 0.950 . S
H474 C497 0.950 . S
H475 C499 0.950 . S
H476 C500 0.950 . S
H477 C501 0.951 . S
H478 C503 0.951 . S
H479 C505 0.950 . S
H480 C506 0.950 . S
H481 C508 0.950 . S
H482 C511 0.950 . S
H483 C512 0.950 . S
H484 C514 0.950 . S
H485 C515 0.950 . S
C486 H468 0.951 . S
C486 C487 1.366 . S
C486 C488 1.388 . S
C487 C486 1.366 . S
C487 C491 1.385 . S
C488 H469 0.951 . S
C488 C486 1.388 . S
C488 C489 1.366 . S
C489 C488 1.366 . S
C489 C490 1.414 . S
C489 C492 1.499 . S
C490 H470 0.950 . S
C490 C489 1.414 . S
C490 C491 1.374 . S
C491 H471 0.950 . S
C491 C487 1.385 . S
C491 C490 1.374 . S
C492 C489 1.499 . S
C492 C493 1.373 . S
C492 C494 1.389 . S
C493 H472 0.950 . S
C493 C492 1.373 . S
C493 C509 1.377 1_556 S
C494 C492 1.389 . S
C494 C495 1.524 . S
C494 C508 1.377 1_556 S
C495 C494 1.524 . S
C495 C496 1.397 . S
C495 C500 1.363 . S
C496 H473 0.950 . S
C496 C495 1.397 . S
C496 C497 1.334 . S
C497 H474 0.950 . S
C497 C496 1.334 . S
C497 C498 1.287 . S
C498 C497 1.287 . S
C498 C499 1.524 . S
C498 H517 0.913 . S
C499 H475 0.950 . S
C499 C498 1.524 . S
C499 C500 1.415 . S
C500 H476 0.950 . S
C500 C495 1.363 . S
C500 C499 1.415 . S
C501 H477 0.951 . S
C501 C502 1.366 . S
C501 C503 1.388 . S
C502 C501 1.366 . S
C502 C506 1.385 . S
C503 H478 0.951 . S
C503 C501 1.388 . S
C503 C504 1.366 . S
C504 C503 1.366 . S
C504 C505 1.414 . S
C504 C507 1.499 . S
C505 H479 0.950 . S
C505 C504 1.414 . S
C505 C506 1.374 . S
C506 H480 0.950 . S
C506 C502 1.385 . S
C506 C505 1.374 . S
C507 C504 1.499 . S
C507 C508 1.373 . S
C507 C509 1.389 . S
C508 H481 0.950 . S
C508 C494 1.377 1_554 S
C508 C507 1.373 . S
C509 C493 1.377 1_554 S
C509 C507 1.389 . S
C509 C510 1.524 . S
C510 C509 1.524 . S
C510 C511 1.397 . S
C510 C515 1.363 . S
C511 H482 0.950 . S
C511 C510 1.397 . S
C511 C512 1.334 . S
C512 H483 0.950 . S
C512 C511 1.334 . S
C512 C513 1.287 . S
C513 C512 1.287 . S
C513 C514 1.524 . S
C513 H516 0.999 . S
C514 H484 0.950 . S
C514 C513 1.524 . S
C514 C515 1.415 . S
C515 H485 0.950 . S
C515 C510 1.363 . S
C515 C514 1.415 . S
H516 C513 0.999 . S
H517 C498 0.913 . S
H518 C536 0.951 . S
H519 C538 0.951 . S
H520 C540 0.950 . S
H521 C541 0.950 . S
H522 C543 0.950 . S
H523 C546 0.950 . S
H524 C547 0.950 . S
H525 C549 0.950 . S
H526 C550 0.950 . S
H527 C551 0.951 . S
H528 C553 0.951 . S
H529 C555 0.950 . S
H530 C556 0.950 . S
H531 C558 0.950 . S
H532 C561 0.950 . S
H533 C562 0.950 . S
H534 C564 0.950 . S
H535 C565 0.950 . S
C536 H518 0.951 . S
C536 C537 1.366 . S
C536 C538 1.388 . S
C537 C536 1.366 . S
C537 C541 1.385 . S
C538 H519 0.951 . S
C538 C536 1.388 . S
C538 C539 1.366 . S
C539 C538 1.366 . S
C539 C540 1.414 . S
C539 C542 1.499 . S
C540 H520 0.950 . S
C540 C539 1.414 . S
C540 C541 1.374 . S
C541 H521 0.950 . S
C541 C537 1.385 . S
C541 C540 1.374 . S
C542 C539 1.499 . S
C542 C543 1.373 . S
C542 C544 1.389 . S
C543 H522 0.950 . S
C543 C542 1.373 . S
C543 C559 1.377 . S
C544 C542 1.389 . S
C544 C545 1.524 . S
C544 C558 1.377 . S
C545 C544 1.524 . S
C545 C546 1.397 . S
C545 C550 1.363 . S
C546 H523 0.950 . S
C546 C545 1.397 . S
C546 C547 1.334 . S
C547 H524 0.950 . S
C547 C546 1.334 . S
C547 C548 1.287 . S
C548 C547 1.287 . S
C548 C549 1.524 . S
C548 H567 0.913 . S
C549 H525 0.950 . S
C549 C548 1.524 . S
C549 C550 1.415 . S
C550 H526 0.950 . S
C550 C545 1.363 . S
C550 C549 1.415 . S
C551 H527 0.951 . S
C551 C552 1.366 . S
C551 C553 1.388 . S
C552 C551 1.366 . S
C552 C556 1.385 . S
C553 H528 0.951 . S
C553 C551 1.388 . S
C553 C554 1.366 . S
C554 C553 1.366 . S
C554 C555 1.414 . S
C554 C557 1.499 . S
C555 H529 0.950 . S
C555 C554 1.414 . S
C555 C556 1.374 . S
C556 H530 0.950 . S
C556 C552 1.385 . S
C556 C555 1.374 . S
C557 C554 1.499 . S
C557 C558 1.373 . S
C557 C559 1.389 . S
C558 H531 0.950 . S
C558 C544 1.377 . S
C558 C557 1.373 . S
C559 C543 1.377 . S
C559 C557 1.389 . S
C559 C560 1.524 . S
C560 C559 1.524 . S
C560 C561 1.397 . S
C560 C565 1.363 . S
C561 H532 0.950 . S
C561 C560 1.397 . S
C561 C562 1.334 . S
C562 H533 0.950 . S
C562 C561 1.334 . S
C562 C563 1.287 . S
C563 C562 1.287 . S
C563 C564 1.524 . S
C563 H566 0.999 . S
C564 H534 0.950 . S
C564 C563 1.524 . S
C564 C565 1.415 . S
C565 H535 0.950 . S
C565 C560 1.363 . S
C565 C564 1.415 . S
H566 C563 0.999 . S
H567 C548 0.913 . S
H568 C586 0.951 . S
H569 C588 0.951 . S
H570 C590 0.950 . S
H571 C591 0.950 . S
H572 C593 0.950 . S
H573 C596 0.950 . S
H574 C597 0.950 . S
H575 C599 0.950 . S
H576 C600 0.950 . S
H577 C601 0.951 . S
H578 C603 0.951 . S
H579 C605 0.950 . S
H580 C606 0.950 . S
H581 C608 0.950 . S
H582 C611 0.950 . S
H583 C612 0.950 . S
H584 C614 0.950 . S
H585 C615 0.950 . S
C586 H568 0.951 . S
C586 C587 1.366 . S
C586 C588 1.388 . S
C587 C586 1.366 . S
C587 C591 1.385 . S
C588 H569 0.951 . S
C588 C586 1.388 . S
C588 C589 1.366 . S
C589 C588 1.366 . S
C589 C590 1.414 . S
C589 C592 1.499 . S
C590 H570 0.950 . S
C590 C589 1.414 . S
C590 C591 1.374 . S
C591 H571 0.950 . S
C591 C587 1.385 . S
C591 C590 1.374 . S
C592 C589 1.499 . S
C592 C593 1.373 . S
C592 C594 1.389 . S
C593 H572 0.950 . S
C593 C592 1.373 . S
C593 C609 1.377 . S
C594 C592 1.389 . S
C594 C595 1.524 . S
C594 C608 1.377 . S
C595 C594 1.524 . S
C595 C596 1.397 . S
C595 C600 1.363 . S
C596 H573 0.950 . S
C596 C595 1.397 . S
C596 C597 1.334 . S
C597 H574 0.950 . S
C597 C596 1.334 . S
C597 C598 1.287 . S
C598 C597 1.287 . S
C598 C599 1.524 . S
C598 H617 0.913 . S
C599 H575 0.950 . S
C599 C598 1.524 . S
C599 C600 1.415 . S
C600 H576 0.950 . S
C600 C595 1.363 . S
C600 C599 1.415 . S
C601 H577 0.951 . S
C601 C602 1.366 . S
C601 C603 1.388 . S
C602 C601 1.366 . S
C602 C606 1.385 . S
C603 H578 0.951 . S
C603 C601 1.388 . S
C603 C604 1.366 . S
C604 C603 1.366 . S
C604 C605 1.414 . S
C604 C607 1.499 . S
C605 H579 0.950 . S
C605 C604 1.414 . S
C605 C606 1.374 . S
C606 H580 0.950 . S
C606 C602 1.385 . S
C606 C605 1.374 . S
C607 C604 1.499 . S
C607 C608 1.373 . S
C607 C609 1.389 . S
C608 H581 0.950 . S
C608 C594 1.377 . S
C608 C607 1.373 . S
C609 C593 1.377 . S
C609 C607 1.389 . S
C609 C610 1.524 . S
C610 C609 1.524 . S
C610 C611 1.397 . S
C610 C615 1.363 . S
C611 H582 0.950 . S
C611 C610 1.397 . S
C611 C612 1.334 . S
C612 H583 0.950 . S
C612 C611 1.334 . S
C612 C613 1.287 . S
C613 C612 1.287 . S
C613 C614 1.524 . S
C613 H616 0.999 . S
C614 H584 0.950 . S
C614 C613 1.524 . S
C614 C615 1.415 . S
C615 H585 0.950 . S
C615 C610 1.363 . S
C615 C614 1.415 . S
H616 C613 0.999 . S
H617 C598 0.913 . S
H618 C636 0.951 . S
H619 C638 0.951 . S
H620 C640 0.950 . S
H621 C641 0.950 . S
H622 C643 0.950 . S
H623 C646 0.950 1_554 S
H624 C647 0.950 . S
H625 C649 0.950 . S
H626 C650 0.950 . S
H627 C651 0.951 . S
H628 C653 0.951 . S
H629 C655 0.950 . S
H630 C656 0.950 . S
H631 C658 0.950 . S
H632 C661 0.950 1_556 S
H633 C662 0.950 . S
H634 C664 0.950 . S
H635 C665 0.950 . S
C636 H618 0.951 . S
C636 C637 1.366 . S
C636 C638 1.388 . S
C637 C636 1.366 . S
C637 C641 1.385 . S
C638 H619 0.951 . S
C638 C636 1.388 . S
C638 C639 1.366 . S
C639 C638 1.366 . S
C639 C640 1.414 . S
C639 C642 1.499 . S
C640 H620 0.950 . S
C640 C639 1.414 . S
C640 C641 1.374 . S
C641 H621 0.950 . S
C641 C637 1.385 . S
C641 C640 1.374 . S
C642 C639 1.499 . S
C642 C643 1.373 . S
C642 C644 1.389 1_554 S
C643 H622 0.950 . S
C643 C642 1.373 . S
C643 C659 1.377 . S
C644 C642 1.389 1_556 S
C644 C645 1.524 . S
C644 C658 1.377 . S
C645 C644 1.524 . S
C645 C646 1.397 . S
C645 C650 1.363 . S
C646 H623 0.950 1_556 S
C646 C645 1.397 . S
C646 C647 1.334 . S
C647 H624 0.950 . S
C647 C646 1.334 . S
C647 C648 1.287 . S
C648 C647 1.287 . S
C648 C649 1.524 . S
C648 H667 0.913 . S
C649 H625 0.950 . S
C649 C648 1.524 . S
C649 C650 1.415 . S
C650 H626 0.950 . S
C650 C645 1.363 . S
C650 C649 1.415 . S
C651 H627 0.951 . S
C651 C652 1.366 . S
C651 C653 1.388 . S
C652 C651 1.366 . S
C652 C656 1.385 . S
C653 H628 0.951 . S
C653 C651 1.388 . S
C653 C654 1.366 . S
C654 C653 1.366 . S
C654 C655 1.414 . S
C654 C657 1.499 . S
C655 H629 0.950 . S
C655 C654 1.414 . S
C655 C656 1.374 . S
C656 H630 0.950 . S
C656 C652 1.385 . S
C656 C655 1.374 . S
C657 C654 1.499 . S
C657 C658 1.373 . S
C657 C659 1.389 1_556 S
C658 H631 0.950 . S
C658 C644 1.377 . S
C658 C657 1.373 . S
C659 C643 1.377 . S
C659 C657 1.389 1_554 S
C659 C660 1.524 . S
C660 C659 1.524 . S
C660 C661 1.397 . S
C660 C665 1.363 . S
C661 H632 0.950 1_554 S
C661 C660 1.397 . S
C661 C662 1.334 . S
C662 H633 0.950 . S
C662 C661 1.334 . S
C662 C663 1.287 . S
C663 C662 1.287 . S
C663 C664 1.524 . S
C663 H666 0.999 . S
C664 H634 0.950 . S
C664 C663 1.524 . S
C664 C665 1.415 . S
C665 H635 0.950 . S
C665 C660 1.363 . S
C665 C664 1.415 . S
H666 C663 0.999 . S
H667 C648 0.913 . S
H668 C686 0.951 . S
H669 C688 0.951 . S
H670 C690 0.950 . S
H671 C691 0.950 . S
H672 C693 0.950 . S
H673 C696 0.950 . S
H674 C697 0.950 . S
H675 C699 0.950 . S
H676 C700 0.950 . S
H677 C701 0.951 . S
H678 C703 0.951 . S
H679 C705 0.950 . S
H680 C706 0.950 . S
H681 C708 0.950 . S
H682 C711 0.950 . S
H683 C712 0.950 . S
H684 C714 0.950 . S
H685 C715 0.950 . S
C686 H668 0.951 . S
C686 C687 1.366 . S
C686 C688 1.388 . S
C687 C686 1.366 . S
C687 C691 1.385 . S
C688 H669 0.951 . S
C688 C686 1.388 . S
C688 C689 1.366 . S
C689 C688 1.366 . S
C689 C690 1.414 . S
C689 C692 1.499 . S
C690 H670 0.950 . S
C690 C689 1.414 . S
C690 C691 1.374 . S
C691 H671 0.950 . S
C691 C687 1.385 . S
C691 C690 1.374 . S
C692 C689 1.499 . S
C692 C693 1.373 . S
C692 C694 1.389 . S
C693 H672 0.950 . S
C693 C692 1.373 . S
C693 C709 1.377 . S
C694 C692 1.389 . S
C694 C695 1.524 . S
C694 C708 1.377 . S
C695 C694 1.524 . S
C695 C696 1.397 . S
C695 C700 1.363 . S
C696 H673 0.950 . S
C696 C695 1.397 . S
C696 C697 1.334 . S
C697 H674 0.950 . S
C697 C696 1.334 . S
C697 C698 1.287 . S
C698 C697 1.287 . S
C698 C699 1.524 . S
C698 H717 0.913 . S
C699 H675 0.950 . S
C699 C698 1.524 . S
C699 C700 1.415 . S
C700 H676 0.950 . S
C700 C695 1.363 . S
C700 C699 1.415 . S
C701 H677 0.951 . S
C701 C702 1.366 . S
C701 C703 1.388 . S
C702 C701 1.366 . S
C702 C706 1.385 . S
C703 H678 0.951 . S
C703 C701 1.388 . S
C703 C704 1.366 . S
C704 C703 1.366 . S
C704 C705 1.414 . S
C704 C707 1.499 . S
C705 H679 0.950 . S
C705 C704 1.414 . S
C705 C706 1.374 . S
C706 H680 0.950 . S
C706 C702 1.385 . S
C706 C705 1.374 . S
C707 C704 1.499 . S
C707 C708 1.373 . S
C707 C709 1.389 . S
C708 H681 0.950 . S
C708 C694 1.377 . S
C708 C707 1.373 . S
C709 C693 1.377 . S
C709 C707 1.389 . S
C709 C710 1.524 . S
C710 C709 1.524 . S
C710 C711 1.397 . S
C710 C715 1.363 . S
C711 H682 0.950 . S
C711 C710 1.397 . S
C711 C712 1.334 . S
C712 H683 0.950 . S
C712 C711 1.334 . S
C712 C713 1.287 . S
C713 C712 1.287 . S
C713 C714 1.524 . S
C713 H716 0.999 . S
C714 H684 0.950 . S
C714 C713 1.524 . S
C714 C715 1.415 . S
C715 H685 0.950 . S
C715 C710 1.363 . S
C715 C714 1.415 . S
H716 C713 0.999 . S
H717 C698 0.913 . S
H718 C736 0.951 . S
H719 C738 0.951 . S
H720 C740 0.950 . S
H721 C741 0.950 . S
H722 C743 0.950 . S
H723 C746 0.950 . S
H724 C747 0.950 . S
H725 C749 0.950 . S
H726 C750 0.950 . S
H727 C751 0.951 . S
H728 C753 0.951 . S
H729 C755 0.950 . S
H730 C756 0.950 . S
H731 C758 0.950 . S
H732 C761 0.950 . S
H733 C762 0.950 . S
H734 C764 0.950 . S
H735 C765 0.950 . S
C736 H718 0.951 . S
C736 C737 1.366 . S
C736 C738 1.388 . S
C737 C736 1.366 . S
C737 C741 1.385 . S
C738 H719 0.951 . S
C738 C736 1.388 . S
C738 C739 1.366 . S
C739 C738 1.366 . S
C739 C740 1.414 . S
C739 C742 1.499 . S
C740 H720 0.950 . S
C740 C739 1.414 . S
C740 C741 1.374 . S
C741 H721 0.950 . S
C741 C737 1.385 . S
C741 C740 1.374 . S
C742 C739 1.499 . S
C742 C743 1.373 . S
C742 C744 1.389 . S
C743 H722 0.950 . S
C743 C742 1.373 . S
C743 C759 1.377 . S
C744 C742 1.389 . S
C744 C745 1.524 . S
C744 C758 1.377 . S
C745 C744 1.524 . S
C745 C746 1.397 . S
C745 C750 1.363 . S
C746 H723 0.950 . S
C746 C745 1.397 . S
C746 C747 1.334 . S
C747 H724 0.950 . S
C747 C746 1.334 . S
C747 C748 1.287 . S
C748 C747 1.287 . S
C748 C749 1.524 . S
C748 H767 0.913 . S
C749 H725 0.950 . S
C749 C748 1.524 . S
C749 C750 1.415 . S
C750 H726 0.950 . S
C750 C745 1.363 . S
C750 C749 1.415 . S
C751 H727 0.951 . S
C751 C752 1.366 . S
C751 C753 1.388 . S
C752 C751 1.366 . S
C752 C756 1.385 . S
C753 H728 0.951 . S
C753 C751 1.388 . S
C753 C754 1.366 . S
C754 C753 1.366 . S
C754 C755 1.414 . S
C754 C757 1.499 . S
C755 H729 0.950 . S
C755 C754 1.414 . S
C755 C756 1.374 . S
C756 H730 0.950 . S
C756 C752 1.385 . S
C756 C755 1.374 . S
C757 C754 1.499 . S
C757 C758 1.373 . S
C757 C759 1.389 . S
C758 H731 0.950 . S
C758 C744 1.377 . S
C758 C757 1.373 . S
C759 C743 1.377 . S
C759 C757 1.389 . S
C759 C760 1.524 . S
C760 C759 1.524 . S
C760 C761 1.397 . S
C760 C765 1.363 . S
C761 H732 0.950 . S
C761 C760 1.397 . S
C761 C762 1.334 . S
C762 H733 0.950 . S
C762 C761 1.334 . S
C762 C763 1.287 . S
C763 C762 1.287 . S
C763 C764 1.524 . S
C763 H766 0.999 . S
C764 H734 0.950 . S
C764 C763 1.524 . S
C764 C765 1.415 . S
C765 H735 0.950 . S
C765 C760 1.363 . S
C765 C764 1.415 . S
H766 C763 0.999 . S
H767 C748 0.913 . S
H768 C786 0.951 . S
H769 C788 0.951 . S
H770 C790 0.950 . S
H771 C791 0.950 . S
H772 C793 0.950 . S
H773 C796 0.950 . S
H774 C797 0.950 . S
H775 C799 0.950 . S
H776 C800 0.950 . S
H777 C801 0.951 . S
H778 C803 0.951 . S
H779 C805 0.950 . S
H780 C806 0.950 . S
H781 C808 0.950 . S
H782 C811 0.950 . S
H783 C812 0.950 . S
H784 C814 0.950 . S
H785 C815 0.950 . S
C786 H768 0.951 . S
C786 C787 1.366 . S
C786 C788 1.388 . S
C787 C786 1.366 . S
C787 C791 1.385 . S
C788 H769 0.951 . S
C788 C786 1.388 . S
C788 C789 1.366 . S
C789 C788 1.366 . S
C789 C790 1.414 . S
C789 C792 1.499 . S
C790 H770 0.950 . S
C790 C789 1.414 . S
C790 C791 1.374 . S
C791 H771 0.950 . S
C791 C787 1.385 . S
C791 C790 1.374 . S
C792 C789 1.499 . S
C792 C793 1.373 . S
C792 C794 1.389 . S
C793 H772 0.950 . S
C793 C792 1.373 . S
C793 C809 1.377 . S
C794 C792 1.389 . S
C794 C795 1.524 . S
C794 C808 1.377 . S
C795 C794 1.524 . S
C795 C796 1.397 . S
C795 C800 1.363 . S
C796 H773 0.950 . S
C796 C795 1.397 . S
C796 C797 1.334 . S
C797 H774 0.950 . S
C797 C796 1.334 . S
C797 C798 1.287 . S
C798 C797 1.287 . S
C798 C799 1.524 . S
C798 H817 0.913 . S
C799 H775 0.950 . S
C799 C798 1.524 . S
C799 C800 1.415 . S
C800 H776 0.950 . S
C800 C795 1.363 . S
C800 C799 1.415 . S
C801 H777 0.951 . S
C801 C802 1.366 . S
C801 C803 1.388 . S
C802 C801 1.366 . S
C802 C806 1.385 . S
C803 H778 0.951 . S
C803 C801 1.388 . S
C803 C804 1.366 . S
C804 C803 1.366 . S
C804 C805 1.414 . S
C804 C807 1.499 . S
C805 H779 0.950 . S
C805 C804 1.414 . S
C805 C806 1.374 . S
C806 H780 0.950 . S
C806 C802 1.385 . S
C806 C805 1.374 . S
C807 C804 1.499 . S
C807 C808 1.373 . S
C807 C809 1.389 . S
C808 H781 0.950 . S
C808 C794 1.377 . S
C808 C807 1.373 . S
C809 C793 1.377 . S
C809 C807 1.389 . S
C809 C810 1.524 . S
C810 C809 1.524 . S
C810 C811 1.397 . S
C810 C815 1.363 . S
C811 H782 0.950 . S
C811 C810 1.397 . S
C811 C812 1.334 . S
C812 H783 0.950 . S
C812 C811 1.334 . S
C812 C813 1.287 . S
C813 C812 1.287 . S
C813 C814 1.524 . S
C813 H816 0.999 . S
C814 H784 0.950 . S
C814 C813 1.524 . S
C814 C815 1.415 . S
C815 H785 0.950 . S
C815 C810 1.363 . S
C815 C814 1.415 . S
H816 C813 0.999 . S
H817 C798 0.913 . S
H818 C836 0.951 . S
H819 C838 0.951 . S
H820 C840 0.950 . S
H821 C841 0.950 . S
H822 C843 0.950 . S
H823 C846 0.950 . S
H824 C847 0.950 . S
H825 C849 0.950 . S
H826 C850 0.950 . S
H827 C851 0.951 . S
H828 C853 0.951 . S
H829 C855 0.950 . S
H830 C856 0.950 . S
H831 C858 0.950 . S
H832 C861 0.950 . S
H833 C862 0.950 . S
H834 C864 0.950 . S
H835 C865 0.950 . S
C836 H818 0.951 . S
C836 C837 1.366 . S
C836 C838 1.388 . S
C837 C836 1.366 . S
C837 C841 1.385 . S
C838 H819 0.951 . S
C838 C836 1.388 . S
C838 C839 1.366 . S
C839 C838 1.366 . S
C839 C840 1.414 . S
C839 C842 1.499 . S
C840 H820 0.950 . S
C840 C839 1.414 . S
C840 C841 1.374 . S
C841 H821 0.950 . S
C841 C837 1.385 . S
C841 C840 1.374 . S
C842 C839 1.499 . S
C842 C843 1.373 . S
C842 C844 1.389 . S
C843 H822 0.950 . S
C843 C842 1.373 . S
C843 C859 1.377 . S
C844 C842 1.389 . S
C844 C845 1.524 . S
C844 C858 1.377 . S
C845 C844 1.524 . S
C845 C846 1.397 . S
C845 C850 1.363 . S
C846 H823 0.950 . S
C846 C845 1.397 . S
C846 C847 1.334 . S
C847 H824 0.950 . S
C847 C846 1.334 . S
C847 C848 1.287 . S
C848 C847 1.287 . S
C848 C849 1.524 . S
C848 H867 0.913 . S
C849 H825 0.950 . S
C849 C848 1.524 . S
C849 C850 1.415 . S
C850 H826 0.950 . S
C850 C845 1.363 . S
C850 C849 1.415 . S
C851 H827 0.951 . S
C851 C852 1.366 . S
C851 C853 1.388 . S
C852 C851 1.366 . S
C852 C856 1.385 . S
C853 H828 0.951 . S
C853 C851 1.388 . S
C853 C854 1.366 . S
C854 C853 1.366 . S
C854 C855 1.414 . S
C854 C857 1.499 . S
C855 H829 0.950 . S
C855 C854 1.414 . S
C855 C856 1.374 . S
C856 H830 0.950 . S
C856 C852 1.385 . S
C856 C855 1.374 . S
C857 C854 1.499 . S
C857 C858 1.373 . S
C857 C859 1.389 . S
C858 H831 0.950 . S
C858 C844 1.377 . S
C858 C857 1.373 . S
C859 C843 1.377 . S
C859 C857 1.389 . S
C859 C860 1.524 . S
C860 C859 1.524 . S
C860 C861 1.397 . S
C860 C865 1.363 . S
C861 H832 0.950 . S
C861 C860 1.397 . S
C861 C862 1.334 . S
C862 H833 0.950 . S
C862 C861 1.334 . S
C862 C863 1.287 . S
C863 C862 1.287 . S
C863 C864 1.524 . S
C863 H866 0.999 . S
C864 H834 0.950 . S
C864 C863 1.524 . S
C864 C865 1.415 . S
C865 H835 0.950 . S
C865 C860 1.363 . S
C865 C864 1.415 . S
H866 C863 0.999 . S
H867 C848 0.913 . S
H868 C886 0.951 . S
H869 C888 0.951 . S
H870 C890 0.950 . S
H871 C891 0.950 . S
H872 C893 0.950 . S
H873 C896 0.950 . S
H874 C897 0.950 . S
H875 C899 0.950 . S
H876 C900 0.950 . S
H877 C901 0.951 . S
H878 C903 0.951 . S
H879 C905 0.950 . S
H880 C906 0.950 . S
H881 C908 0.950 . S
H882 C911 0.950 . S
H883 C912 0.950 . S
H884 C914 0.950 . S
H885 C915 0.950 . S
C886 H868 0.951 . S
C886 C887 1.366 . S
C886 C888 1.388 . S
C887 C886 1.366 . S
C887 C891 1.385 . S
C888 H869 0.951 . S
C888 C886 1.388 . S
C888 C889 1.366 . S
C889 C888 1.366 . S
C889 C890 1.414 . S
C889 C892 1.499 . S
C890 H870 0.950 . S
C890 C889 1.414 . S
C890 C891 1.374 . S
C891 H871 0.950 . S
C891 C887 1.385 . S
C891 C890 1.374 . S
C892 C889 1.499 . S
C892 C893 1.373 . S
C892 C894 1.389 . S
C893 H872 0.950 . S
C893 C892 1.373 . S
C893 C909 1.377 . S
C894 C892 1.389 . S
C894 C895 1.524 . S
C894 C908 1.377 . S
C895 C894 1.524 . S
C895 C896 1.397 . S
C895 C900 1.363 . S
C896 H873 0.950 . S
C896 C895 1.397 . S
C896 C897 1.334 . S
C897 H874 0.950 . S
C897 C896 1.334 . S
C897 C898 1.287 . S
C898 C897 1.287 . S
C898 C899 1.524 . S
C898 H917 0.913 . S
C899 H875 0.950 . S
C899 C898 1.524 . S
C899 C900 1.415 . S
C900 H876 0.950 . S
C900 C895 1.363 . S
C900 C899 1.415 . S
C901 H877 0.951 . S
C901 C902 1.366 . S
C901 C903 1.388 . S
C902 C901 1.366 . S
C902 C906 1.385 . S
C903 H878 0.951 . S
C903 C901 1.388 . S
C903 C904 1.366 . S
C904 C903 1.366 . S
C904 C905 1.414 . S
C904 C907 1.499 . S
C905 H879 0.950 . S
C905 C904 1.414 . S
C905 C906 1.374 . S
C906 H880 0.950 . S
C906 C902 1.385 . S
C906 C905 1.374 . S
C907 C904 1.499 . S
C907 C908 1.373 . S
C907 C909 1.389 . S
C908 H881 0.950 . S
C908 C894 1.377 . S
C908 C907 1.373 . S
C909 C893 1.377 . S
C909 C907 1.389 . S
C909 C910 1.524 . S
C910 C909 1.524 . S
C910 C911 1.397 . S
C910 C915 1.363 . S
C911 H882 0.950 . S
C911 C910 1.397 . S
C911 C912 1.334 . S
C912 H883 0.950 . S
C912 C911 1.334 . S
C912 C913 1.287 . S
C913 C912 1.287 . S
C913 C914 1.524 . S
C913 H916 0.999 . S
C914 H884 0.950 . S
C914 C913 1.524 . S
C914 C915 1.415 . S
C915 H885 0.950 . S
C915 C910 1.363 . S
C915 C914 1.415 . S
H916 C913 0.999 . S
H917 C898 0.913 . S
H918 C936 0.951 . S
H919 C938 0.951 . S
H920 C940 0.950 . S
H921 C941 0.950 . S
H922 C943 0.950 . S
H923 C946 0.950 . S
H924 C947 0.950 . S
H925 C949 0.950 . S
H926 C950 0.950 . S
H927 C951 0.951 . S
H928 C953 0.951 . S
H929 C955 0.950 . S
H930 C956 0.950 . S
H931 C958 0.950 . S
H932 C961 0.950 . S
H933 C962 0.950 . S
H934 C964 0.950 . S
H935 C965 0.950 . S
C936 H918 0.951 . S
C936 C937 1.366 . S
C936 C938 1.388 . S
C937 C936 1.366 . S
C937 C941 1.385 . S
C938 H919 0.951 . S
C938 C936 1.388 . S
C938 C939 1.366 . S
C939 C938 1.366 . S
C939 C940 1.414 . S
C939 C942 1.499 . S
C940 H920 0.950 . S
C940 C939 1.414 . S
C940 C941 1.374 . S
C941 H921 0.950 . S
C941 C937 1.385 . S
C941 C940 1.374 . S
C942 C939 1.499 . S
C942 C943 1.373 . S
C942 C944 1.389 . S
C943 H922 0.950 . S
C943 C942 1.373 . S
C943 C959 1.377 . S
C944 C942 1.389 . S
C944 C945 1.524 . S
C944 C958 1.377 . S
C945 C944 1.524 . S
C945 C946 1.397 . S
C945 C950 1.363 . S
C946 H923 0.950 . S
C946 C945 1.397 . S
C946 C947 1.334 . S
C947 H924 0.950 . S
C947 C946 1.334 . S
C947 C948 1.287 . S
C948 C947 1.287 . S
C948 C949 1.524 . S
C948 H967 0.913 . S
C949 H925 0.950 . S
C949 C948 1.524 . S
C949 C950 1.415 . S
C950 H926 0.950 . S
C950 C945 1.363 . S
C950 C949 1.415 . S
C951 H927 0.951 . S
C951 C952 1.366 . S
C951 C953 1.388 . S
C952 C951 1.366 . S
C952 C956 1.385 . S
C953 H928 0.951 . S
C953 C951 1.388 . S
C953 C954 1.366 . S
C954 C953 1.366 . S
C954 C955 1.414 . S
C954 C957 1.499 . S
C955 H929 0.950 . S
C955 C954 1.414 . S
C955 C956 1.374 . S
C956 H930 0.950 . S
C956 C952 1.385 . S
C956 C955 1.374 . S
C957 C954 1.499 . S
C957 C958 1.373 . S
C957 C959 1.389 . S
C958 H931 0.950 . S
C958 C944 1.377 . S
C958 C957 1.373 . S
C959 C943 1.377 . S
C959 C957 1.389 . S
C959 C960 1.524 . S
C960 C959 1.524 . S
C960 C961 1.397 . S
C960 C965 1.363 . S
C961 H932 0.950 . S
C961 C960 1.397 . S
C961 C962 1.334 . S
C962 H933 0.950 . S
C962 C961 1.334 . S
C962 C963 1.287 . S
C963 C962 1.287 . S
C963 C964 1.524 . S
C963 H966 0.999 . S
C964 H934 0.950 . S
C964 C963 1.524 . S
C964 C965 1.415 . S
C965 H935 0.950 . S
C965 C960 1.363 . S
C965 C964 1.415 . S
H966 C963 0.999 . S
H967 C948 0.913 . S
H968 C986 0.951 . S
H969 C988 0.951 . S
H970 C990 0.950 . S
H971 C991 0.950 . S
H972 C993 0.950 . S
H973 C996 0.950 . S
H974 C997 0.950 . S
H975 C999 0.950 . S
H976 C1000 0.950 . S
H977 C1001 0.951 . S
H978 C1003 0.951 . S
H979 C1005 0.950 . S
H980 C1006 0.950 1_554 S
H981 C1008 0.950 . S
H982 C1011 0.950 . S
H983 C1012 0.950 . S
H984 C1014 0.950 . S
H985 C1015 0.950 . S
C986 H968 0.951 . S
C986 C987 1.366 . S
C986 C988 1.388 . S
C987 C986 1.366 . S
C987 C991 1.385 . S
C988 H969 0.951 . S
C988 C986 1.388 . S
C988 C989 1.366 . S
C989 C988 1.366 . S
C989 C990 1.414 . S
C989 C992 1.499 . S
C990 H970 0.950 . S
C990 C989 1.414 . S
C990 C991 1.374 . S
C991 H971 0.950 . S
C991 C987 1.385 . S
C991 C990 1.374 . S
C992 C989 1.499 . S
C992 C993 1.373 . S
C992 C994 1.389 . S
C993 H972 0.950 . S
C993 C992 1.373 . S
C993 C1009 1.377 . S
C994 C992 1.389 . S
C994 C995 1.524 . S
C994 C1008 1.377 . S
C995 C994 1.524 . S
C995 C996 1.397 . S
C995 C1000 1.363 . S
C996 H973 0.950 . S
C996 C995 1.397 . S
C996 C997 1.334 . S
C997 H974 0.950 . S
C997 C996 1.334 . S
C997 C998 1.287 . S
C998 C997 1.287 . S
C998 C999 1.524 . S
C998 H1017 0.913 . S
C999 H975 0.950 . S
C999 C998 1.524 . S
C999 C1000 1.415 . S
C1000 H976 0.950 . S
C1000 C995 1.363 . S
C1000 C999 1.415 . S
C1001 H977 0.951 . S
C1001 C1002 1.366 . S
C1001 C1003 1.388 . S
C1002 C1001 1.366 . S
C1002 C1006 1.385 . S
C1003 H978 0.951 . S
C1003 C1001 1.388 . S
C1003 C1004 1.366 . S
C1004 C1003 1.366 . S
C1004 C1005 1.414 . S
C1004 C1007 1.499 . S
C1005 H979 0.950 . S
C1005 C1004 1.414 . S
C1005 C1006 1.374 . S
C1006 H980 0.950 1_556 S
C1006 C1002 1.385 . S
C1006 C1005 1.374 . S
C1007 C1004 1.499 . S
C1007 C1008 1.373 . S
C1007 C1009 1.389 . S
C1008 H981 0.950 . S
C1008 C994 1.377 . S
C1008 C1007 1.373 . S
C1009 C993 1.377 . S
C1009 C1007 1.389 . S
C1009 C1010 1.524 . S
C1010 C1009 1.524 . S
C1010 C1011 1.397 . S
C1010 C1015 1.363 . S
C1011 H982 0.950 . S
C1011 C1010 1.397 . S
C1011 C1012 1.334 . S
C1012 H983 0.950 . S
C1012 C1011 1.334 . S
C1012 C1013 1.287 . S
C1013 C1012 1.287 . S
C1013 C1014 1.524 . S
C1013 H1016 0.999 . S
C1014 H984 0.950 . S
C1014 C1013 1.524 . S
C1014 C1015 1.415 . S
C1015 H985 0.950 . S
C1015 C1010 1.363 . S
C1015 C1014 1.415 . S
H1016 C1013 0.999 . S
H1017 C998 0.913 . S
H1018 C1036 0.951 . S
H1019 C1038 0.951 . S
H1020 C1040 0.950 . S
H1021 C1041 0.950 . S
H1022 C1043 0.950 . S
H1023 C1046 0.950 . S
H1024 C1047 0.950 . S
H1025 C1049 0.950 . S
H1026 C1050 0.950 . S
H1027 C1051 0.951 . S
H1028 C1053 0.951 . S
H1029 C1055 0.950 . S
H1030 C1056 0.950 . S
H1031 C1058 0.950 . S
H1032 C1061 0.950 . S
H1033 C1062 0.950 . S
H1034 C1064 0.950 . S
H1035 C1065 0.950 . S
C1036 H1018 0.951 . S
C1036 C1037 1.366 . S
C1036 C1038 1.388 . S
C1037 C1036 1.366 . S
C1037 C1041 1.385 . S
C1038 H1019 0.951 . S
C1038 C1036 1.388 . S
C1038 C1039 1.366 . S
C1039 C1038 1.366 . S
C1039 C1040 1.414 . S
C1039 C1042 1.499 . S
C1040 H1020 0.950 . S
C1040 C1039 1.414 . S
C1040 C1041 1.374 . S
C1041 H1021 0.950 . S
C1041 C1037 1.385 . S
C1041 C1040 1.374 . S
C1042 C1039 1.499 . S
C1042 C1043 1.373 . S
C1042 C1044 1.389 . S
C1043 H1022 0.950 . S
C1043 C1042 1.373 . S
C1043 C1059 1.377 . S
C1044 C1042 1.389 . S
C1044 C1045 1.524 . S
C1044 C1058 1.377 . S
C1045 C1044 1.524 . S
C1045 C1046 1.397 . S
C1045 C1050 1.363 . S
C1046 H1023 0.950 . S
C1046 C1045 1.397 . S
C1046 C1047 1.334 . S
C1047 H1024 0.950 . S
C1047 C1046 1.334 . S
C1047 C1048 1.287 . S
C1048 C1047 1.287 . S
C1048 C1049 1.524 . S
C1048 H1067 0.913 . S
C1049 H1025 0.950 . S
C1049 C1048 1.524 . S
C1049 C1050 1.415 . S
C1050 H1026 0.950 . S
C1050 C1045 1.363 . S
C1050 C1049 1.415 . S
C1051 H1027 0.951 . S
C1051 C1052 1.366 . S
C1051 C1053 1.388 . S
C1052 C1051 1.366 . S
C1052 C1056 1.385 . S
C1053 H1028 0.951 . S
C1053 C1051 1.388 . S
C1053 C1054 1.366 . S
C1054 C1053 1.366 . S
C1054 C1055 1.414 . S
C1054 C1057 1.499 . S
C1055 H1029 0.950 . S
C1055 C1054 1.414 . S
C1055 C1056 1.374 . S
C1056 H1030 0.950 . S
C1056 C1052 1.385 . S
C1056 C1055 1.374 . S
C1057 C1054 1.499 . S
C1057 C1058 1.373 . S
C1057 C1059 1.389 . S
C1058 H1031 0.950 . S
C1058 C1044 1.377 . S
C1058 C1057 1.373 . S
C1059 C1043 1.377 . S
C1059 C1057 1.389 . S
C1059 C1060 1.524 . S
C1060 C1059 1.524 . S
C1060 C1061 1.397 . S
C1060 C1065 1.363 . S
C1061 H1032 0.950 . S
C1061 C1060 1.397 . S
C1061 C1062 1.334 . S
C1062 H1033 0.950 . S
C1062 C1061 1.334 . S
C1062 C1063 1.287 . S
C1063 C1062 1.287 . S
C1063 C1064 1.524 . S
C1063 H1066 0.999 . S
C1064 H1034 0.950 . S
C1064 C1063 1.524 . S
C1064 C1065 1.415 . S
C1065 H1035 0.950 . S
C1065 C1060 1.363 . S
C1065 C1064 1.415 . S
H1066 C1063 0.999 . S
H1067 C1048 0.913 . S
H1068 C1086 0.951 . S
H1069 C1088 0.951 . S
H1070 C1090 0.950 . S
H1071 C1091 0.950 . S
H1072 C1093 0.950 . S
H1073 C1096 0.950 . S
H1074 C1097 0.950 . S
H1075 C1099 0.950 . S
H1076 C1100 0.950 . S
H1077 C1101 0.951 . S
H1078 C1103 0.951 . S
H1079 C1105 0.950 . S
H1080 C1106 0.950 . S
H1081 C1108 0.950 . S
H1082 C1111 0.950 . S
H1083 C1112 0.950 . S
H1084 C1114 0.950 . S
H1085 C1115 0.950 . S
C1086 H1068 0.951 . S
C1086 C1087 1.366 . S
C1086 C1088 1.388 . S
C1087 C1086 1.366 . S
C1087 C1091 1.385 . S
C1088 H1069 0.951 . S
C1088 C1086 1.388 . S
C1088 C1089 1.366 . S
C1089 C1088 1.366 . S
C1089 C1090 1.414 . S
C1089 C1092 1.499 . S
C1090 H1070 0.950 . S
C1090 C1089 1.414 . S
C1090 C1091 1.374 . S
C1091 H1071 0.950 . S
C1091 C1087 1.385 . S
C1091 C1090 1.374 . S
C1092 C1089 1.499 . S
C1092 C1093 1.373 . S
C1092 C1094 1.389 . S
C1093 H1072 0.950 . S
C1093 C1092 1.373 . S
C1093 C1109 1.377 . S
C1094 C1092 1.389 . S
C1094 C1095 1.524 . S
C1094 C1108 1.377 . S
C1095 C1094 1.524 . S
C1095 C1096 1.397 . S
C1095 C1100 1.363 . S
C1096 H1073 0.950 . S
C1096 C1095 1.397 . S
C1096 C1097 1.334 . S
C1097 H1074 0.950 . S
C1097 C1096 1.334 . S
C1097 C1098 1.287 . S
C1098 C1097 1.287 . S
C1098 C1099 1.524 . S
C1098 H1117 0.913 . S
C1099 H1075 0.950 . S
C1099 C1098 1.524 . S
C1099 C1100 1.415 . S
C1100 H1076 0.950 . S
C1100 C1095 1.363 . S
C1100 C1099 1.415 . S
C1101 H1077 0.951 . S
C1101 C1102 1.366 . S
C1101 C1103 1.388 . S
C1102 C1101 1.366 . S
C1102 C1106 1.385 . S
C1103 H1078 0.951 . S
C1103 C1101 1.388 . S
C1103 C1104 1.366 . S
C1104 C1103 1.366 . S
C1104 C1105 1.414 . S
C1104 C1107 1.499 . S
C1105 H1079 0.950 . S
C1105 C1104 1.414 . S
C1105 C1106 1.374 . S
C1106 H1080 0.950 . S
C1106 C1102 1.385 . S
C1106 C1105 1.374 . S
C1107 C1104 1.499 . S
C1107 C1108 1.373 . S
C1107 C1109 1.389 . S
C1108 H1081 0.950 . S
C1108 C1094 1.377 . S
C1108 C1107 1.373 . S
C1109 C1093 1.377 . S
C1109 C1107 1.389 . S
C1109 C1110 1.524 . S
C1110 C1109 1.524 . S
C1110 C1111 1.397 . S
C1110 C1115 1.363 . S
C1111 H1082 0.950 . S
C1111 C1110 1.397 . S
C1111 C1112 1.334 . S
C1112 H1083 0.950 . S
C1112 C1111 1.334 . S
C1112 C1113 1.287 . S
C1113 C1112 1.287 . S
C1113 C1114 1.524 . S
C1113 H1116 0.999 . S
C1114 H1084 0.950 . S
C1114 C1113 1.524 . S
C1114 C1115 1.415 . S
C1115 H1085 0.950 . S
C1115 C1110 1.363 . S
C1115 C1114 1.415 . S
H1116 C1113 0.999 . S
H1117 C1098 0.913 . S
H1118 C1136 0.951 . S
H1119 C1138 0.951 . S
H1120 C1140 0.950 . S
H1121 C1141 0.950 . S
H1122 C1143 0.950 . S
H1123 C1146 0.950 . S
H1124 C1147 0.950 . S
H1125 C1149 0.950 . S
H1126 C1150 0.950 . S
H1127 C1151 0.951 . S
H1128 C1153 0.951 . S
H1129 C1155 0.950 . S
H1130 C1156 0.950 . S
H1131 C1158 0.950 . S
H1132 C1161 0.950 . S
H1133 C1162 0.950 . S
H1134 C1164 0.950 . S
H1135 C1165 0.950 . S
C1136 H1118 0.951 . S
C1136 C1137 1.366 . S
C1136 C1138 1.388 . S
C1137 C1136 1.366 . S
C1137 C1141 1.385 . S
C1138 H1119 0.951 . S
C1138 C1136 1.388 . S
C1138 C1139 1.366 . S
C1139 C1138 1.366 . S
C1139 C1140 1.414 . S
C1139 C1142 1.499 . S
C1140 H1120 0.950 . S
C1140 C1139 1.414 . S
C1140 C1141 1.374 . S
C1141 H1121 0.950 . S
C1141 C1137 1.385 . S
C1141 C1140 1.374 . S
C1142 C1139 1.499 . S
C1142 C1143 1.373 . S
C1142 C1144 1.389 . S
C1143 H1122 0.950 . S
C1143 C1142 1.373 . S
C1143 C1159 1.377 . S
C1144 C1142 1.389 . S
C1144 C1145 1.524 . S
C1144 C1158 1.377 . S
C1145 C1144 1.524 . S
C1145 C1146 1.397 . S
C1145 C1150 1.363 . S
C1146 H1123 0.950 . S
C1146 C1145 1.397 . S
C1146 C1147 1.334 . S
C1147 H1124 0.950 . S
C1147 C1146 1.334 . S
C1147 C1148 1.287 . S
C1148 C1147 1.287 . S
C1148 C1149 1.524 . S
C1148 H1167 0.913 . S
C1149 H1125 0.950 . S
C1149 C1148 1.524 . S
C1149 C1150 1.415 . S
C1150 H1126 0.950 . S
C1150 C1145 1.363 . S
C1150 C1149 1.415 . S
C1151 H1127 0.951 . S
C1151 C1152 1.366 . S
C1151 C1153 1.388 . S
C1152 C1151 1.366 . S
C1152 C1156 1.385 . S
C1153 H1128 0.951 . S
C1153 C1151 1.388 . S
C1153 C1154 1.366 . S
C1154 C1153 1.366 . S
C1154 C1155 1.414 . S
C1154 C1157 1.499 . S
C1155 H1129 0.950 . S
C1155 C1154 1.414 . S
C1155 C1156 1.374 . S
C1156 H1130 0.950 . S
C1156 C1152 1.385 . S
C1156 C1155 1.374 . S
C1157 C1154 1.499 . S
C1157 C1158 1.373 . S
C1157 C1159 1.389 . S
C1158 H1131 0.950 . S
C1158 C1144 1.377 . S
C1158 C1157 1.373 . S
C1159 C1143 1.377 . S
C1159 C1157 1.389 . S
C1159 C1160 1.524 . S
C1160 C1159 1.524 . S
C1160 C1161 1.397 . S
C1160 C1165 1.363 . S
C1161 H1132 0.950 . S
C1161 C1160 1.397 . S
C1161 C1162 1.334 . S
C1162 H1133 0.950 . S
C1162 C1161 1.334 . S
C1162 C1163 1.287 . S
C1163 C1162 1.287 . S
C1163 C1164 1.524 . S
C1163 H1166 0.999 . S
C1164 H1134 0.950 . S
C1164 C1163 1.524 . S
C1164 C1165 1.415 . S
C1165 H1135 0.950 . S
C1165 C1160 1.363 . S
C1165 C1164 1.415 . S
H1166 C1163 0.999 . S
H1167 C1148 0.913 . S
H1168 C1186 0.948 1_554 S
H1169 C1188 0.951 . S
H1170 C1190 0.950 . S
H1171 C1191 0.950 . S
H1172 C1193 0.950 . S
H1173 C1196 0.950 . S
H1174 C1197 0.950 . S
H1175 C1199 0.950 . S
H1176 C1200 0.950 . S
H1177 C1201 0.948 1_556 S
H1178 C1203 0.951 . S
H1179 C1205 0.950 . S
H1180 C1206 0.950 . S
H1181 C1208 0.950 . S
H1182 C1211 0.950 . S
H1183 C1212 0.950 . S
H1184 C1214 0.950 . S
H1185 C1215 0.950 . S
C1186 H1168 0.948 1_556 S
C1186 C1187 1.370 . S
C1186 C1188 1.387 1_556 S
C1187 C1186 1.370 . S
C1187 C1191 1.385 . S
C1188 H1169 0.951 . S
C1188 C1186 1.387 1_554 S
C1188 C1189 1.366 1_554 S
C1189 C1188 1.366 1_556 S
C1189 C1190 1.414 . S
C1189 C1192 1.499 . S
C1190 H1170 0.950 . S
C1190 C1189 1.414 . S
C1190 C1191 1.374 . S
C1191 H1171 0.950 . S
C1191 C1187 1.385 . S
C1191 C1190 1.374 . S
C1192 C1189 1.499 . S
C1192 C1193 1.373 1_556 S
C1192 C1194 1.389 . S
C1193 H1172 0.950 . S
C1193 C1192 1.373 1_554 S
C1193 C1209 1.377 . S
C1194 C1192 1.389 . S
C1194 C1195 1.524 . S
C1194 C1208 1.377 . S
C1195 C1194 1.524 . S
C1195 C1196 1.397 . S
C1195 C1200 1.363 . S
C1196 H1173 0.950 . S
C1196 C1195 1.397 . S
C1196 C1197 1.334 . S
C1197 H1174 0.950 . S
C1197 C1196 1.334 . S
C1197 C1198 1.287 . S
C1198 C1197 1.287 . S
C1198 C1199 1.524 . S
C1198 H1217 0.913 . S
C1199 H1175 0.950 . S
C1199 C1198 1.524 . S
C1199 C1200 1.415 . S
C1200 H1176 0.950 . S
C1200 C1195 1.363 . S
C1200 C1199 1.415 . S
C1201 H1177 0.948 1_554 S
C1201 C1202 1.369 . S
C1201 C1203 1.387 1_554 S
C1202 C1201 1.369 . S
C1202 C1206 1.385 . S
C1203 H1178 0.951 . S
C1203 C1201 1.387 1_556 S
C1203 C1204 1.366 1_556 S
C1204 C1203 1.366 1_554 S
C1204 C1205 1.414 . S
C1204 C1207 1.499 . S
C1205 H1179 0.950 . S
C1205 C1204 1.414 . S
C1205 C1206 1.374 . S
C1206 H1180 0.950 . S
C1206 C1202 1.385 . S
C1206 C1205 1.374 . S
C1207 C1204 1.499 . S
C1207 C1208 1.373 1_554 S
C1207 C1209 1.389 . S
C1208 H1181 0.950 . S
C1208 C1194 1.377 . S
C1208 C1207 1.373 1_556 S
C1209 C1193 1.377 . S
C1209 C1207 1.389 . S
C1209 C1210 1.524 . S
C1210 C1209 1.524 . S
C1210 C1211 1.397 . S
C1210 C1215 1.363 . S
C1211 H1182 0.950 . S
C1211 C1210 1.397 . S
C1211 C1212 1.334 . S
C1212 H1183 0.950 . S
C1212 C1211 1.334 . S
C1212 C1213 1.287 . S
C1213 C1212 1.287 . S
C1213 C1214 1.524 . S
C1213 H1216 0.999 . S
C1214 H1184 0.950 . S
C1214 C1213 1.524 . S
C1214 C1215 1.415 . S
C1215 H1185 0.950 . S
C1215 C1210 1.363 . S
C1215 C1214 1.415 . S
H1216 C1213 0.999 . S
H1217 C1198 0.913 . S
H1218 C1236 0.951 . S
H1219 C1238 0.951 . S
H1220 C1240 0.950 . S
H1221 C1241 0.950 . S
H1222 C1243 0.950 . S
H1223 C1246 0.950 . S
H1224 C1247 0.950 . S
H1225 C1249 0.950 . S
H1226 C1250 0.950 . S
H1227 C1251 0.951 . S
H1228 C1253 0.951 . S
H1229 C1255 0.950 . S
H1230 C1256 0.950 . S
H1231 C1258 0.950 . S
H1232 C1261 0.950 . S
H1233 C1262 0.950 . S
H1234 C1264 0.950 . S
H1235 C1265 0.950 . S
C1236 H1218 0.951 . S
C1236 C1237 1.366 . S
C1236 C1238 1.388 . S
C1237 C1236 1.366 . S
C1237 C1241 1.385 . S
C1238 H1219 0.951 . S
C1238 C1236 1.388 . S
C1238 C1239 1.366 . S
C1239 C1238 1.366 . S
C1239 C1240 1.414 . S
C1239 C1242 1.499 . S
C1240 H1220 0.950 . S
C1240 C1239 1.414 . S
C1240 C1241 1.374 . S
C1241 H1221 0.950 . S
C1241 C1237 1.385 . S
C1241 C1240 1.374 . S
C1242 C1239 1.499 . S
C1242 C1243 1.373 . S
C1242 C1244 1.389 . S
C1243 H1222 0.950 . S
C1243 C1242 1.373 . S
C1243 C1259 1.377 . S
C1244 C1242 1.389 . S
C1244 C1245 1.524 . S
C1244 C1258 1.377 . S
C1245 C1244 1.524 . S
C1245 C1246 1.397 . S
C1245 C1250 1.363 . S
C1246 H1223 0.950 . S
C1246 C1245 1.397 . S
C1246 C1247 1.334 . S
C1247 H1224 0.950 . S
C1247 C1246 1.334 . S
C1247 C1248 1.287 . S
C1248 C1247 1.287 . S
C1248 C1249 1.524 . S
C1248 H1267 0.913 . S
C1249 H1225 0.950 . S
C1249 C1248 1.524 . S
C1249 C1250 1.415 . S
C1250 H1226 0.950 . S
C1250 C1245 1.363 . S
C1250 C1249 1.415 . S
C1251 H1227 0.951 . S
C1251 C1252 1.366 . S
C1251 C1253 1.388 . S
C1252 C1251 1.366 . S
C1252 C1256 1.385 . S
C1253 H1228 0.951 . S
C1253 C1251 1.388 . S
C1253 C1254 1.366 . S
C1254 C1253 1.366 . S
C1254 C1255 1.414 . S
C1254 C1257 1.499 . S
C1255 H1229 0.950 . S
C1255 C1254 1.414 . S
C1255 C1256 1.374 . S
C1256 H1230 0.950 . S
C1256 C1252 1.385 . S
C1256 C1255 1.374 . S
C1257 C1254 1.499 . S
C1257 C1258 1.373 . S
C1257 C1259 1.389 . S
C1258 H1231 0.950 . S
C1258 C1244 1.377 . S
C1258 C1257 1.373 . S
C1259 C1243 1.377 . S
C1259 C1257 1.389 . S
C1259 C1260 1.524 . S
C1260 C1259 1.524 . S
C1260 C1261 1.397 . S
C1260 C1265 1.363 . S
C1261 H1232 0.950 . S
C1261 C1260 1.397 . S
C1261 C1262 1.334 . S
C1262 H1233 0.950 . S
C1262 C1261 1.334 . S
C1262 C1263 1.287 . S
C1263 C1262 1.287 . S
C1263 C1264 1.524 . S
C1263 H1266 0.999 . S
C1264 H1234 0.950 . S
C1264 C1263 1.524 . S
C1264 C1265 1.415 . S
C1265 H1235 0.950 . S
C1265 C1260 1.363 . S
C1265 C1264 1.415 . S
H1266 C1263 0.999 . S
H1267 C1248 0.913 . S
H1268 C1286 0.951 . S
H1269 C1288 0.951 . S
H1270 C1290 0.950 . S
H1271 C1291 0.950 . S
H1272 C1293 0.950 . S
H1273 C1296 0.950 . S
H1274 C1297 0.950 . S
H1275 C1299 0.950 . S
H1276 C1300 0.950 . S
H1277 C1301 0.951 . S
H1278 C1303 0.951 . S
H1279 C1305 0.950 . S
H1280 C1306 0.950 . S
H1281 C1308 0.950 . S
H1282 C1311 0.950 . S
H1283 C1312 0.950 . S
H1284 C1314 0.950 . S
H1285 C1315 0.950 . S
C1286 H1268 0.951 . S
C1286 C1287 1.366 . S
C1286 C1288 1.388 . S
C1287 C1286 1.366 . S
C1287 C1291 1.385 . S
C1288 H1269 0.951 . S
C1288 C1286 1.388 . S
C1288 C1289 1.366 . S
C1289 C1288 1.366 . S
C1289 C1290 1.414 . S
C1289 C1292 1.499 . S
C1290 H1270 0.950 . S
C1290 C1289 1.414 . S
C1290 C1291 1.374 . S
C1291 H1271 0.950 . S
C1291 C1287 1.385 . S
C1291 C1290 1.374 . S
C1292 C1289 1.499 . S
C1292 C1293 1.373 . S
C1292 C1294 1.389 . S
C1293 H1272 0.950 . S
C1293 C1292 1.373 . S
C1293 C1309 1.377 . S
C1294 C1292 1.389 . S
C1294 C1295 1.524 . S
C1294 C1308 1.377 . S
C1295 C1294 1.524 . S
C1295 C1296 1.397 . S
C1295 C1300 1.363 . S
C1296 H1273 0.950 . S
C1296 C1295 1.397 . S
C1296 C1297 1.334 . S
C1297 H1274 0.950 . S
C1297 C1296 1.334 . S
C1297 C1298 1.287 . S
C1298 C1297 1.287 . S
C1298 C1299 1.524 . S
C1298 H1317 0.913 . S
C1299 H1275 0.950 . S
C1299 C1298 1.524 . S
C1299 C1300 1.415 . S
C1300 H1276 0.950 . S
C1300 C1295 1.363 . S
C1300 C1299 1.415 . S
C1301 H1277 0.951 . S
C1301 C1302 1.366 . S
C1301 C1303 1.388 . S
C1302 C1301 1.366 . S
C1302 C1306 1.385 . S
C1303 H1278 0.951 . S
C1303 C1301 1.388 . S
C1303 C1304 1.366 . S
C1304 C1303 1.366 . S
C1304 C1305 1.414 . S
C1304 C1307 1.499 . S
C1305 H1279 0.950 . S
C1305 C1304 1.414 . S
C1305 C1306 1.374 . S
C1306 H1280 0.950 . S
C1306 C1302 1.385 . S
C1306 C1305 1.374 . S
C1307 C1304 1.499 . S
C1307 C1308 1.373 . S
C1307 C1309 1.389 . S
C1308 H1281 0.950 . S
C1308 C1294 1.377 . S
C1308 C1307 1.373 . S
C1309 C1293 1.377 . S
C1309 C1307 1.389 . S
C1309 C1310 1.524 . S
C1310 C1309 1.524 . S
C1310 C1311 1.397 . S
C1310 C1315 1.363 . S
C1311 H1282 0.950 . S
C1311 C1310 1.397 . S
C1311 C1312 1.334 . S
C1312 H1283 0.950 . S
C1312 C1311 1.334 . S
C1312 C1313 1.287 . S
C1313 C1312 1.287 . S
C1313 C1314 1.524 . S
C1313 H1316 0.999 . S
C1314 H1284 0.950 . S
C1314 C1313 1.524 . S
C1314 C1315 1.415 . S
C1315 H1285 0.950 . S
C1315 C1310 1.363 . S
C1315 C1314 1.415 . S
H1316 C1313 0.999 . S
H1317 C1298 0.913 . S
H1318 C1336 0.951 . S
H1319 C1338 0.951 . S
H1320 C1340 0.950 . S
H1321 C1341 0.950 . S
H1322 C1343 0.950 . S
H1323 C1346 0.950 1_556 S
H1324 C1347 0.950 . S
H1325 C1349 0.950 . S
H1326 C1350 0.950 . S
H1327 C1351 0.951 . S
H1328 C1353 0.951 . S
H1329 C1355 0.950 . S
H1330 C1356 0.950 . S
H1331 C1358 0.950 . S
H1332 C1361 0.950 1_554 S
H1333 C1362 0.950 . S
H1334 C1364 0.950 . S
H1335 C1365 0.950 . S
C1336 H1318 0.951 . S
C1336 C1337 1.366 . S
C1336 C1338 1.388 . S
C1337 C1336 1.366 . S
C1337 C1341 1.385 1_554 S
C1338 H1319 0.951 . S
C1338 C1336 1.388 . S
C1338 C1339 1.366 . S
C1339 C1338 1.366 . S
C1339 C1340 1.414 1_554 S
C1339 C1342 1.499 . S
C1340 H1320 0.950 . S
C1340 C1339 1.414 1_556 S
C1340 C1341 1.374 . S
C1341 H1321 0.950 . S
C1341 C1337 1.385 1_556 S
C1341 C1340 1.374 . S
C1342 C1339 1.499 . S
C1342 C1343 1.373 1_554 S
C1342 C1344 1.389 . S
C1343 H1322 0.950 . S
C1343 C1342 1.373 1_556 S
C1343 C1359 1.377 . S
C1344 C1342 1.389 . S
C1344 C1345 1.524 . S
C1344 C1358 1.377 . S
C1345 C1344 1.524 . S
C1345 C1346 1.397 . S
C1345 C1350 1.363 . S
C1346 H1323 0.950 1_554 S
C1346 C1345 1.397 . S
C1346 C1347 1.334 . S
C1347 H1324 0.950 . S
C1347 C1346 1.334 . S
C1347 C1348 1.287 . S
C1348 C1347 1.287 . S
C1348 C1349 1.524 . S
C1348 H1367 0.913 . S
C1349 H1325 0.950 . S
C1349 C1348 1.524 . S
C1349 C1350 1.415 . S
C1350 H1326 0.950 . S
C1350 C1345 1.363 . S
C1350 C1349 1.415 . S
C1351 H1327 0.951 . S
C1351 C1352 1.366 . S
C1351 C1353 1.388 . S
C1352 C1351 1.366 . S
C1352 C1356 1.385 1_556 S
C1353 H1328 0.951 . S
C1353 C1351 1.388 . S
C1353 C1354 1.366 . S
C1354 C1353 1.366 . S
C1354 C1355 1.414 1_556 S
C1354 C1357 1.499 . S
C1355 H1329 0.950 . S
C1355 C1354 1.414 1_554 S
C1355 C1356 1.374 . S
C1356 H1330 0.950 . S
C1356 C1352 1.385 1_554 S
C1356 C1355 1.374 . S
C1357 C1354 1.499 . S
C1357 C1358 1.373 1_556 S
C1357 C1359 1.389 . S
C1358 H1331 0.950 . S
C1358 C1344 1.377 . S
C1358 C1357 1.373 1_554 S
C1359 C1343 1.377 . S
C1359 C1357 1.389 . S
C1359 C1360 1.524 . S
C1360 C1359 1.524 . S
C1360 C1361 1.397 . S
C1360 C1365 1.363 . S
C1361 H1332 0.950 1_556 S
C1361 C1360 1.397 . S
C1361 C1362 1.334 . S
C1362 H1333 0.950 . S
C1362 C1361 1.334 . S
C1362 C1363 1.287 . S
C1363 C1362 1.287 . S
C1363 C1364 1.524 . S
C1363 H1366 0.999 . S
C1364 H1334 0.950 . S
C1364 C1363 1.524 . S
C1364 C1365 1.415 . S
C1365 H1335 0.950 . S
C1365 C1360 1.363 . S
C1365 C1364 1.415 . S
H1366 C1363 0.999 . S
H1367 C1348 0.913 . S
C187 C7 1.453 . S
C202 C133 1.453 . S
C237 C21 1.453 . S
C252 C147 1.453 . S
C287 C35 1.453 . S
C302 C161 1.453 . S
C337 C49 1.453 . S
C352 C91 1.453 . S
C387 C105 1.454 . S
C402 C63 1.454 . S
C437 C119 1.454 . S
C452 C77 1.454 . S
C487 C146 1.541 . S
C502 C6 1.542 . S
C537 C20 1.543 . S
C552 C160 1.541 . S
C587 C34 1.542 . S
C602 C90 1.542 . S
C637 C48 1.542 . S
C652 C104 1.542 . S
C687 C62 1.542 . S
C702 C118 1.542 . S
C737 C76 1.541 . S
C752 C132 1.542 . S
C787 C148 1.388 . S
C802 C8 1.389 . S
C837 C22 1.388 . S
C852 C162 1.388 1_556 S
C887 C36 1.388 1_554 S
C902 C92 1.388 . S
C937 C50 1.389 . S
C952 C106 1.388 . S
C987 C64 1.388 . S
C1002 C120 1.388 1_556 S
C1037 C78 1.388 1_554 S
C1052 C134 1.388 . S
C1087 C9 1.609 . S
C1102 C93 1.609 . S
C1137 C107 1.609 . S
C1152 C23 1.609 . S
C1187 C37 1.609 . S
C1202 C121 1.609 . S
C1237 C51 1.609 . S
C1252 C135 1.609 . S
C1287 C65 1.609 . S
C1302 C149 1.609 . S
C1337 C163 1.609 . S
C1352 C79 1.609 . S
