# Generated by pormake.
# Topology uox, (4)-cn, num edge types: 1
# Building blocks:
#     Node 0, Type 0, BuildingBlock: UXUYUI_clean_sbu_0, # of connection points: 4
#     Node 1, Type 0, BuildingBlock: UXUYUI_clean_sbu_0, # of connection points: 4
#     Node 2, Type 0, BuildingBlock: UXUYUI_clean_sbu_0, # of connection points: 4
#     Node 3, Type 0, BuildingBlock: UXUYUI_clean_sbu_0, # of connection points: 4
#     Node 4, Type 0, BuildingBlock: UXUYUI_clean_sbu_0, # of connection points: 4
#     Node 5, Type 0, BuildingBlock: UXUYUI_clean_sbu_0, # of connection points: 4
#     Node 6, Type 0, BuildingBlock: UXUYUI_clean_sbu_0, # of connection points: 4
#     Node 7, Type 0, BuildingBlock: UXUYUI_clean_sbu_0, # of connection points: 4
#     Node 8, Type 0, BuildingBlock: UXUYUI_clean_sbu_0, # of connection points: 4
#     Node 9, Type 0, BuildingBlock: UXUYUI_clean_sbu_0, # of connection points: 4
#     Node 10, Type 0, BuildingBlock: UXUYUI_clean_sbu_0, # of connection points: 4
#     Node 11, Type 0, BuildingBlock: UXUYUI_clean_sbu_0, # of connection points: 4
#     Node 12, Type 0, BuildingBlock: UXUYUI_clean_sbu_0, # of connection points: 4
#     Node 13, Type 0, BuildingBlock: UXUYUI_clean_sbu_0, # of connection points: 4
#     Node 14, Type 0, BuildingBlock: UXUYUI_clean_sbu_0, # of connection points: 4
#     Node 15, Type 0, BuildingBlock: UXUYUI_clean_sbu_0, # of connection points: 4
#     Node 16, Type 0, BuildingBlock: UXUYUI_clean_sbu_0, # of connection points: 4
#     Node 17, Type 0, BuildingBlock: UXUYUI_clean_sbu_0, # of connection points: 4
#     Node 18, Type 0, BuildingBlock: UXUYUI_clean_sbu_0, # of connection points: 4
#     Node 19, Type 0, BuildingBlock: UXUYUI_clean_sbu_0, # of connection points: 4
#     Node 20, Type 0, BuildingBlock: UXUYUI_clean_sbu_0, # of connection points: 4
#     Node 21, Type 0, BuildingBlock: UXUYUI_clean_sbu_0, # of connection points: 4
#     Node 22, Type 0, BuildingBlock: UXUYUI_clean_sbu_0, # of connection points: 4
#     Node 23, Type 0, BuildingBlock: UXUYUI_clean_sbu_0, # of connection points: 4
#     Node 24, Type 0, BuildingBlock: UXUYUI_clean_sbu_0, # of connection points: 4
#     Node 25, Type 0, BuildingBlock: UXUYUI_clean_sbu_0, # of connection points: 4
#     Node 26, Type 0, BuildingBlock: UXUYUI_clean_sbu_0, # of connection points: 4
#     Node 27, Type 0, BuildingBlock: UXUYUI_clean_sbu_0, # of connection points: 4
#     Node 28, Type 0, BuildingBlock: UXUYUI_clean_sbu_0, # of connection points: 4
#     Node 29, Type 0, BuildingBlock: UXUYUI_clean_sbu_0, # of connection points: 4
#     Node 30, Type 0, BuildingBlock: UXUYUI_clean_sbu_0, # of connection points: 4
#     Node 31, Type 0, BuildingBlock: UXUYUI_clean_sbu_0, # of connection points: 4
#     Edge 32, Type (0, 0), BuildingBlock: EZIPEK_clean_linker_0, # of connection points: 2
#     Edge 33, Type (0, 0), BuildingBlock: EZIPEK_clean_linker_0, # of connection points: 2
#     Edge 34, Type (0, 0), BuildingBlock: EZIPEK_clean_linker_0, # of connection points: 2
#     Edge 35, Type (0, 0), BuildingBlock: EZIPEK_clean_linker_0, # of connection points: 2
#     Edge 36, Type (0, 0), BuildingBlock: EZIPEK_clean_linker_0, # of connection points: 2
#     Edge 37, Type (0, 0), BuildingBlock: EZIPEK_clean_linker_0, # of connection points: 2
#     Edge 38, Type (0, 0), BuildingBlock: EZIPEK_clean_linker_0, # of connection points: 2
#     Edge 39, Type (0, 0), BuildingBlock: EZIPEK_clean_linker_0, # of connection points: 2
#     Edge 40, Type (0, 0), BuildingBlock: EZIPEK_clean_linker_0, # of connection points: 2
#     Edge 41, Type (0, 0), BuildingBlock: EZIPEK_clean_linker_0, # of connection points: 2
#     Edge 42, Type (0, 0), BuildingBlock: EZIPEK_clean_linker_0, # of connection points: 2
#     Edge 43, Type (0, 0), BuildingBlock: EZIPEK_clean_linker_0, # of connection points: 2
#     Edge 44, Type (0, 0), BuildingBlock: EZIPEK_clean_linker_0, # of connection points: 2
#     Edge 45, Type (0, 0), BuildingBlock: EZIPEK_clean_linker_0, # of connection points: 2
#     Edge 46, Type (0, 0), BuildingBlock: EZIPEK_clean_linker_0, # of connection points: 2
#     Edge 47, Type (0, 0), BuildingBlock: EZIPEK_clean_linker_0, # of connection points: 2
#     Edge 48, Type (0, 0), BuildingBlock: EZIPEK_clean_linker_0, # of connection points: 2
#     Edge 49, Type (0, 0), BuildingBlock: EZIPEK_clean_linker_0, # of connection points: 2
#     Edge 50, Type (0, 0), BuildingBlock: EZIPEK_clean_linker_0, # of connection points: 2
#     Edge 51, Type (0, 0), BuildingBlock: EZIPEK_clean_linker_0, # of connection points: 2
#     Edge 52, Type (0, 0), BuildingBlock: EZIPEK_clean_linker_0, # of connection points: 2
#     Edge 53, Type (0, 0), BuildingBlock: EZIPEK_clean_linker_0, # of connection points: 2
#     Edge 54, Type (0, 0), BuildingBlock: EZIPEK_clean_linker_0, # of connection points: 2
#     Edge 55, Type (0, 0), BuildingBlock: EZIPEK_clean_linker_0, # of connection points: 2
#     Edge 56, Type (0, 0), BuildingBlock: EZIPEK_clean_linker_0, # of connection points: 2
#     Edge 57, Type (0, 0), BuildingBlock: EZIPEK_clean_linker_0, # of connection points: 2
#     Edge 58, Type (0, 0), BuildingBlock: EZIPEK_clean_linker_0, # of connection points: 2
#     Edge 59, Type (0, 0), BuildingBlock: EZIPEK_clean_linker_0, # of connection points: 2
#     Edge 60, Type (0, 0), BuildingBlock: EZIPEK_clean_linker_0, # of connection points: 2
#     Edge 61, Type (0, 0), BuildingBlock: EZIPEK_clean_linker_0, # of connection points: 2
#     Edge 62, Type (0, 0), BuildingBlock: EZIPEK_clean_linker_0, # of connection points: 2
#     Edge 63, Type (0, 0), BuildingBlock: EZIPEK_clean_linker_0, # of connection points: 2
#     Edge 64, Type (0, 0), BuildingBlock: EZIPEK_clean_linker_0, # of connection points: 2
#     Edge 65, Type (0, 0), BuildingBlock: EZIPEK_clean_linker_0, # of connection points: 2
#     Edge 66, Type (0, 0), BuildingBlock: EZIPEK_clean_linker_0, # of connection points: 2
#     Edge 67, Type (0, 0), BuildingBlock: EZIPEK_clean_linker_0, # of connection points: 2
#     Edge 68, Type (0, 0), BuildingBlock: EZIPEK_clean_linker_0, # of connection points: 2
#     Edge 69, Type (0, 0), BuildingBlock: EZIPEK_clean_linker_0, # of connection points: 2
#     Edge 70, Type (0, 0), BuildingBlock: EZIPEK_clean_linker_0, # of connection points: 2
#     Edge 71, Type (0, 0), BuildingBlock: EZIPEK_clean_linker_0, # of connection points: 2
#     Edge 72, Type (0, 0), BuildingBlock: EZIPEK_clean_linker_0, # of connection points: 2
#     Edge 73, Type (0, 0), BuildingBlock: EZIPEK_clean_linker_0, # of connection points: 2
#     Edge 74, Type (0, 0), BuildingBlock: EZIPEK_clean_linker_0, # of connection points: 2
#     Edge 75, Type (0, 0), BuildingBlock: EZIPEK_clean_linker_0, # of connection points: 2
#     Edge 76, Type (0, 0), BuildingBlock: EZIPEK_clean_linker_0, # of connection points: 2
#     Edge 77, Type (0, 0), BuildingBlock: EZIPEK_clean_linker_0, # of connection points: 2
#     Edge 78, Type (0, 0), BuildingBlock: EZIPEK_clean_linker_0, # of connection points: 2
#     Edge 79, Type (0, 0), BuildingBlock: EZIPEK_clean_linker_0, # of connection points: 2
#     Edge 80, Type (0, 0), BuildingBlock: EZIPEK_clean_linker_0, # of connection points: 2
#     Edge 81, Type (0, 0), BuildingBlock: EZIPEK_clean_linker_0, # of connection points: 2
#     Edge 82, Type (0, 0), BuildingBlock: EZIPEK_clean_linker_0, # of connection points: 2
#     Edge 83, Type (0, 0), BuildingBlock: EZIPEK_clean_linker_0, # of connection points: 2
#     Edge 84, Type (0, 0), BuildingBlock: EZIPEK_clean_linker_0, # of connection points: 2
#     Edge 85, Type (0, 0), BuildingBlock: EZIPEK_clean_linker_0, # of connection points: 2
#     Edge 86, Type (0, 0), BuildingBlock: EZIPEK_clean_linker_0, # of connection points: 2
#     Edge 87, Type (0, 0), BuildingBlock: EZIPEK_clean_linker_0, # of connection points: 2
#     Edge 88, Type (0, 0), BuildingBlock: EZIPEK_clean_linker_0, # of connection points: 2
#     Edge 89, Type (0, 0), BuildingBlock: EZIPEK_clean_linker_0, # of connection points: 2
#     Edge 90, Type (0, 0), BuildingBlock: EZIPEK_clean_linker_0, # of connection points: 2
#     Edge 91, Type (0, 0), BuildingBlock: EZIPEK_clean_linker_0, # of connection points: 2
#     Edge 92, Type (0, 0), BuildingBlock: EZIPEK_clean_linker_0, # of connection points: 2
#     Edge 93, Type (0, 0), BuildingBlock: EZIPEK_clean_linker_0, # of connection points: 2
#     Edge 94, Type (0, 0), BuildingBlock: EZIPEK_clean_linker_0, # of connection points: 2
#     Edge 95, Type (0, 0), BuildingBlock: EZIPEK_clean_linker_0, # of connection points: 2
# Relax obj value: 0.188
# Max RMSD: 0.179
# Mean RMSD: 0.179
data_MOF--net-uox--node1-UXUYUI_clean_sbu_0--edge1-EZIPEK_clean_linker_0
_symmetry_space_group_name_H-M    P1
_symmetry_Int_Tables_number       1
_symmetry_cell_setting            triclinic
loop_
_symmetry_equiv_pos_as_xyz
'x, y, z'
_cell_length_a     53.741211
_cell_length_b     53.745463
_cell_length_c     95.456483
_cell_angle_alpha  89.993454
_cell_angle_beta   89.996361
_cell_angle_gamma 89.991184
loop_
_atom_site_label
_atom_site_type_symbol
_atom_site_fract_x
_atom_site_fract_y
_atom_site_fract_z
_atom_type_partial_charge
Li0 Li 0.45203 0.04452 0.15216 0.0
Li1 Li 0.42761 0.0369 0.17451 0.0
Li2 Li 0.41446 0.02059 0.15284 0.0
Li3 Li 0.40921 0.06397 0.15609 0.0
C4 C 0.44848 0.98798 0.16209 0.0
N5 N 0.45192 0.93672 0.1609 0.0
C6 C 0.43216 0.97319 0.16988 0.0
C7 C 0.46664 0.9767 0.15375 0.0
C8 C 0.43414 0.94731 0.1691 0.0
C9 C 0.46808 0.95075 0.15329 0.0
C10 C 0.45693 0.08356 0.174 0.0
C11 C 0.46696 0.12183 0.18593 0.0
N12 N 0.49048 0.11334 0.18814 0.0
C13 C 0.4812 0.07524 0.17638 0.0
C14 C 0.44975 0.10709 0.17876 0.0
C15 C 0.49789 0.09056 0.18355 0.0
C16 C 0.48348 0.07275 0.13562 0.0
N17 N 0.48337 0.05229 0.14399 0.0
C18 C 0.52727 0.0472 0.141 0.0
C19 C 0.50461 0.03938 0.14673 0.0
C20 C 0.52788 0.06853 0.13252 0.0
C21 C 0.50567 0.08126 0.12974 0.0
H22 H 0.46631 0.08272 0.13374 0.0
H23 H 0.50407 0.02346 0.15364 0.0
C24 C 0.4115 0.01509 0.19953 0.0
N25 N 0.42958 0.03016 0.19425 0.0
C26 C 0.41189 0.00796 0.21358 0.0
C27 C 0.44945 0.03204 0.21668 0.0
C28 C 0.44836 0.0387 0.20252 0.0
C29 C 0.4311 0.01639 0.22226 0.0
H30 H 0.3969 0.00826 0.19278 0.0
H31 H 0.4627 0.05036 0.19817 0.0
C32 C 0.41693 0.03634 0.1271 0.0
N33 N 0.40354 0.01243 0.10264 0.0
C34 C 0.39233 0.03733 0.12239 0.0
C35 C 0.43479 0.02345 0.11932 0.0
C36 C 0.38591 0.02501 0.11002 0.0
C37 C 0.42763 0.01144 0.10698 0.0
C38 C 0.37761 0.048 0.17668 0.0
C39 C 0.3545 0.03746 0.17985 0.0
C40 C 0.38509 0.06968 0.1836 0.0
C41 C 0.33923 0.04882 0.18982 0.0
C42 C 0.3693 0.08048 0.19351 0.0
N43 N 0.34688 0.06993 0.19638 0.0
C44 C 0.40844 0.97478 0.13673 0.0
C45 C 0.37233 0.99271 0.1468 0.0
C46 C 0.39438 0.95513 0.13129 0.0
N47 N 0.3973 0.99284 0.14454 0.0
C48 C 0.35759 0.97362 0.14149 0.0
C49 C 0.36867 0.95452 0.13374 0.0
H50 H 0.42816 0.97564 0.13464 0.0
H51 H 0.36378 0.00762 0.15263 0.0
C52 C 0.40315 0.11403 0.14883 0.0
N53 N 0.39045 0.0927 0.15153 0.0
C54 C 0.39057 0.13507 0.144 0.0
C55 C 0.35204 0.11184 0.14494 0.0
C56 C 0.36537 0.09122 0.14977 0.0
C57 C 0.3648 0.13393 0.14188 0.0
H58 H 0.42316 0.11444 0.15004 0.0
H59 H 0.35587 0.07383 0.15173 0.0
O60 O 0.44683 0.01334 0.16272 0.0
O61 O 0.4405 0.06914 0.16666 0.0
O62 O 0.42344 0.04761 0.13938 0.0
O63 O 0.39275 0.03688 0.16695 0.0
H64 H 0.41786 0.98159 0.17627 0.0
H65 H 0.47928 0.98783 0.14756 0.0
H66 H 0.4215 0.93565 0.17499 0.0
H67 H 0.48197 0.94177 0.14683 0.0
H68 H 0.46164 0.14006 0.18969 0.0
H69 H 0.48697 0.05696 0.17294 0.0
H70 H 0.43109 0.11392 0.17694 0.0
H71 H 0.5167 0.0843 0.18551 0.0
H72 H 0.54419 0.0371 0.14338 0.0
H73 H 0.5056 0.09781 0.12326 0.0
H74 H 0.3975 0.99581 0.21763 0.0
H75 H 0.46456 0.03877 0.22316 0.0
H76 H 0.37831 0.04721 0.12834 0.0
H77 H 0.4539 0.02247 0.12288 0.0
H78 H 0.3669 0.02539 0.1063 0.0
H79 H 0.4412 0.00124 0.1009 0.0
H80 H 0.34841 0.02057 0.17473 0.0
H81 H 0.40284 0.07812 0.18142 0.0
H82 H 0.32131 0.04083 0.19235 0.0
H83 H 0.37489 0.09726 0.19892 0.0
H84 H 0.40335 0.9407 0.12519 0.0
H85 H 0.33772 0.97371 0.14342 0.0
H86 H 0.40089 0.15185 0.14159 0.0
H87 H 0.33215 0.11042 0.14326 0.0
Li88 Li 0.20123 0.20195 0.4022 0.0
Li89 Li 0.2097 0.17941 0.42418 0.0
Li90 Li 0.22887 0.1661 0.40173 0.0
Li91 Li 0.18442 0.15991 0.40573 0.0
C92 C 0.25153 0.21232 0.40573 0.0
N93 N 0.28773 0.24095 0.393 0.0
C94 C 0.26782 0.22654 0.41385 0.0
C95 C 0.25366 0.21262 0.39114 0.0
C96 C 0.286 0.2409 0.40722 0.0
C97 C 0.27207 0.22723 0.3849 0.0
C98 C 0.15756 0.18902 0.42596 0.0
C99 C 0.1304 0.1645 0.44061 0.0
N100 N 0.11826 0.18557 0.44455 0.0
C101 C 0.14469 0.21041 0.43008 0.0
C102 C 0.15027 0.16587 0.43121 0.0
C103 C 0.12494 0.20829 0.43952 0.0
C104 C 0.19597 0.23694 0.38023 0.0
N105 N 0.19386 0.2336 0.39431 0.0
C106 C 0.17601 0.27406 0.39698 0.0
C107 C 0.18464 0.25177 0.40275 0.0
C108 C 0.17719 0.2776 0.38244 0.0
C109 C 0.18778 0.25902 0.37403 0.0
H110 H 0.20343 0.22221 0.37378 0.0
H111 H 0.18337 0.24864 0.41391 0.0
C112 C 0.24243 0.18084 0.44649 0.0
N113 N 0.21764 0.18185 0.44368 0.0
C114 C 0.25095 0.18117 0.46031 0.0
C115 C 0.20825 0.18345 0.46817 0.0
C116 C 0.20056 0.18344 0.45417 0.0
C117 C 0.23371 0.1822 0.47132 0.0
H118 H 0.2556 0.17948 0.43795 0.0
H119 H 0.18098 0.18429 0.45179 0.0
C120 C 0.19975 0.15699 0.37786 0.0
N121 N 0.19728 0.12298 0.35617 0.0
C122 C 0.20237 0.13158 0.38054 0.0
C123 C 0.19569 0.1651 0.36413 0.0
C124 C 0.2011 0.11467 0.36945 0.0
C125 C 0.19457 0.14763 0.35331 0.0
C126 C 0.21325 0.12307 0.42262 0.0
C127 C 0.22476 0.10284 0.41604 0.0
C128 C 0.20279 0.11994 0.43591 0.0
C129 C 0.22516 0.07975 0.42276 0.0
C130 C 0.20358 0.09655 0.44228 0.0
N131 N 0.21463 0.07711 0.43563 0.0
C132 C 0.27355 0.14047 0.40407 0.0
C133 C 0.26265 0.14915 0.38047 0.0
C134 C 0.29355 0.12585 0.3997 0.0
N135 N 0.25819 0.15111 0.39446 0.0
C136 C 0.28235 0.13455 0.37564 0.0
C137 C 0.2976 0.1223 0.38535 0.0
H138 H 0.26953 0.14244 0.41512 0.0
H139 H 0.25044 0.15813 0.37305 0.0
C140 C 0.13918 0.15092 0.39299 0.0
N141 N 0.15659 0.13946 0.40105 0.0
C142 C 0.11858 0.13773 0.38814 0.0
C143 C 0.134 0.10117 0.40012 0.0
C144 C 0.15443 0.11507 0.4047 0.0
C145 C 0.11596 0.11256 0.39165 0.0
H146 H 0.14155 0.17027 0.39019 0.0
H147 H 0.16861 0.10632 0.41102 0.0
O148 O 0.23369 0.19814 0.41211 0.0
O149 O 0.17666 0.19079 0.41652 0.0
O150 O 0.20083 0.17389 0.38858 0.0
O151 O 0.21288 0.14592 0.41624 0.0
H152 H 0.26641 0.22646 0.42517 0.0
H153 H 0.24127 0.20169 0.38469 0.0
H154 H 0.29874 0.25201 0.41337 0.0
H155 H 0.27393 0.22764 0.37362 0.0
H156 H 0.12464 0.14669 0.44478 0.0
H157 H 0.14985 0.22847 0.42603 0.0
H158 H 0.15987 0.14913 0.42813 0.0
H159 H 0.11487 0.22471 0.44283 0.0
H160 H 0.16795 0.28812 0.40372 0.0
H161 H 0.18893 0.26127 0.36277 0.0
H162 H 0.27073 0.1802 0.46241 0.0
H163 H 0.19451 0.18427 0.47646 0.0
H164 H 0.20521 0.12496 0.39107 0.0
H165 H 0.19342 0.18467 0.36183 0.0
H166 H 0.20311 0.09495 0.37142 0.0
H167 H 0.19151 0.15366 0.34264 0.0
H168 H 0.23337 0.10486 0.40587 0.0
H169 H 0.19422 0.13537 0.44132 0.0
H170 H 0.23392 0.06396 0.41776 0.0
H171 H 0.19547 0.09389 0.45255 0.0
H172 H 0.30504 0.11651 0.4074 0.0
H173 H 0.28514 0.1321 0.36449 0.0
H174 H 0.10491 0.14698 0.38162 0.0
H175 H 0.13238 0.08175 0.403 0.0
Li176 Li 0.04932 0.95177 0.65189 0.0
Li177 Li 0.07365 0.9617 0.67407 0.0
Li178 Li 0.08676 0.9776 0.65142 0.0
Li179 Li 0.09231 0.93347 0.65631 0.0
C180 C 0.05242 0.00913 0.65856 0.0
N181 N 0.05066 0.05931 0.65238 0.0
C182 C 0.05661 0.02672 0.66907 0.0
C183 C 0.04716 0.01703 0.64492 0.0
C184 C 0.05566 0.05202 0.66573 0.0
C185 C 0.04642 0.04249 0.642 0.0
C186 C 0.05885 0.91147 0.6776 0.0
C187 C 0.07747 0.88528 0.69522 0.0
N188 N 0.05448 0.87694 0.69888 0.0
C189 C 0.03541 0.90256 0.68148 0.0
C190 C 0.08007 0.90272 0.68446 0.0
C191 C 0.03358 0.88514 0.69229 0.0
C192 C 0.01264 0.91856 0.64348 0.0
N193 N 0.01796 0.94327 0.64407 0.0
C194 C 0.97936 0.95328 0.63295 0.0
C195 C 0.00188 0.96065 0.63902 0.0
C196 C 0.97345 0.92789 0.63228 0.0
C197 C 0.99027 0.91041 0.63765 0.0
H198 H 0.02588 0.90519 0.64751 0.0
H199 H 0.00654 0.98016 0.63965 0.0
C200 C 0.08892 0.98726 0.69783 0.0
N201 N 0.07231 0.96982 0.69346 0.0
C202 C 0.08923 0.995 0.71177 0.0
C203 C 0.05531 0.96667 0.71654 0.0
C204 C 0.05553 0.95958 0.70244 0.0
C205 C 0.0723 0.98462 0.72128 0.0
H206 H 0.10183 0.9953 0.69041 0.0
H207 H 0.04222 0.94611 0.69868 0.0
C208 C 0.08599 0.95055 0.6258 0.0
N209 N 0.10193 0.95381 0.59837 0.0
C210 C 0.1111 0.94703 0.62256 0.0
C211 C 0.06895 0.95559 0.61511 0.0
C212 C 0.1188 0.94878 0.60862 0.0
C213 C 0.07739 0.95721 0.6013 0.0
C214 C 0.13126 0.96063 0.67021 0.0
C215 C 0.15028 0.96934 0.6615 0.0
C216 C 0.13715 0.95061 0.68331 0.0
C217 C 0.17495 0.9677 0.66602 0.0
C218 C 0.16205 0.94926 0.68743 0.0
N219 N 0.18027 0.95776 0.67878 0.0
C220 C 0.11454 0.02076 0.65347 0.0
C221 C 0.10565 0.0109 0.62977 0.0
C222 C 0.12942 0.04071 0.64936 0.0
N223 N 0.10347 0.00599 0.64371 0.0
C224 C 0.12072 0.03044 0.62518 0.0
C225 C 0.13312 0.04521 0.63506 0.0
H226 H 0.11238 0.01652 0.66448 0.0
H227 H 0.0962 0.99947 0.62219 0.0
C228 C 0.09778 0.88359 0.64904 0.0
N229 N 0.11127 0.90415 0.65242 0.0
C230 C 0.10971 0.86197 0.64448 0.0
C231 C 0.14927 0.8828 0.64727 0.0
C232 C 0.13657 0.90407 0.65172 0.0
C233 C 0.1357 0.86163 0.64341 0.0
H234 H 0.07768 0.88428 0.6495 0.0
H235 H 0.14694 0.92065 0.65414 0.0
O236 O 0.05398 0.98429 0.66153 0.0
O237 O 0.06092 0.92864 0.66711 0.0
O238 O 0.078 0.94885 0.63933 0.0
O239 O 0.10697 0.96239 0.66606 0.0
H240 H 0.06069 0.0209 0.67968 0.0
H241 H 0.04432 0.00364 0.63661 0.0
H242 H 0.05896 0.06585 0.67375 0.0
H243 H 0.04263 0.04888 0.63147 0.0
H244 H 0.09374 0.87836 0.70064 0.0
H245 H 0.01881 0.90918 0.67624 0.0
H246 H 0.09834 0.90927 0.68149 0.0
H247 H 0.01556 0.87816 0.69545 0.0
H248 H 0.96666 0.96716 0.62887 0.0
H249 H 0.98619 0.89069 0.63722 0.0
H250 H 0.10249 0.00896 0.71513 0.0
H251 H 0.04195 0.95842 0.72366 0.0
H252 H 0.12451 0.9432 0.63074 0.0
H253 H 0.04943 0.95831 0.61749 0.0
H254 H 0.13819 0.9462 0.60594 0.0
H255 H 0.06444 0.96118 0.59292 0.0
H256 H 0.14608 0.97702 0.65129 0.0
H257 H 0.12265 0.94404 0.69025 0.0
H258 H 0.18986 0.97429 0.65937 0.0
H259 H 0.16688 0.9415 0.69753 0.0
H260 H 0.13878 0.05186 0.6572 0.0
H261 H 0.12317 0.03366 0.61406 0.0
H262 H 0.09879 0.84589 0.64149 0.0
H263 H 0.16936 0.88308 0.64642 0.0
Li264 Li 0.29005 0.82505 0.92547 0.0
Li265 Li 0.29734 0.80043 0.90324 0.0
Li266 Li 0.3156 0.84373 0.90656 0.0
Li267 Li 0.27217 0.8373 0.90399 0.0
C268 C 0.33567 0.79589 0.925 0.0
N269 N 0.36279 0.76132 0.94002 0.0
C270 C 0.32498 0.77311 0.92866 0.0
C271 C 0.36012 0.80115 0.92902 0.0
C272 C 0.33901 0.75585 0.93623 0.0
C273 C 0.37352 0.78343 0.93661 0.0
C274 C 0.24203 0.79956 0.91174 0.0
C275 C 0.21036 0.77603 0.89968 0.0
N276 N 0.19255 0.78825 0.9071 0.0
C277 C 0.22341 0.81175 0.91931 0.0
C278 C 0.23549 0.78148 0.90187 0.0
C279 C 0.1985 0.80585 0.91678 0.0
C280 C 0.2641 0.83851 0.94926 0.0
N281 N 0.28363 0.82406 0.94524 0.0
C282 C 0.28905 0.80967 0.96878 0.0
C283 C 0.29641 0.81009 0.95472 0.0
C284 C 0.26855 0.82393 0.97303 0.0
C285 C 0.25617 0.83871 0.96318 0.0
H286 H 0.25453 0.84979 0.94159 0.0
H287 H 0.31217 0.79915 0.95147 0.0
C288 C 0.32172 0.77021 0.88409 0.0
N289 N 0.30526 0.76917 0.8949 0.0
C290 C 0.33014 0.74838 0.87776 0.0
C291 C 0.30441 0.72472 0.89372 0.0
C292 C 0.29624 0.74707 0.89966 0.0
C293 C 0.32175 0.72533 0.88273 0.0
H294 H 0.32863 0.78804 0.88057 0.0
H295 H 0.28313 0.74675 0.90825 0.0
C296 C 0.29969 0.87503 0.92732 0.0
N297 N 0.32132 0.9061 0.94695 0.0
C298 C 0.2874 0.89661 0.9317 0.0
C299 C 0.32294 0.8692 0.93304 0.0
C300 C 0.29865 0.91209 0.9416 0.0
C301 C 0.33358 0.88517 0.94291 0.0
C302 C 0.28703 0.83524 0.87806 0.0
C303 C 0.28697 0.85999 0.87356 0.0
C304 C 0.27475 0.81711 0.87018 0.0
C305 C 0.27424 0.86626 0.8613 0.0
C306 C 0.2623 0.82412 0.85795 0.0
N307 N 0.26227 0.84835 0.85381 0.0
C308 C 0.36538 0.85062 0.89901 0.0
C309 C 0.34173 0.88791 0.89894 0.0
C310 C 0.38618 0.86325 0.89392 0.0
N311 N 0.34375 0.86304 0.90136 0.0
C312 C 0.36209 0.90128 0.89377 0.0
C313 C 0.38453 0.8888 0.89112 0.0
H314 H 0.36623 0.83075 0.90074 0.0
H315 H 0.32414 0.8972 0.90069 0.0
C316 C 0.22601 0.84194 0.88804 0.0
N317 N 0.24337 0.85348 0.89617 0.0
C318 C 0.2057 0.85529 0.8828 0.0
C319 C 0.22196 0.89225 0.89395 0.0
C320 C 0.24176 0.8782 0.89904 0.0
C321 C 0.20367 0.88073 0.88579 0.0
H322 H 0.22799 0.82251 0.88546 0.0
H323 H 0.25608 0.88713 0.90515 0.0
O324 O 0.32245 0.81288 0.91737 0.0
O325 O 0.26654 0.80488 0.91415 0.0
O326 O 0.28854 0.85953 0.91779 0.0
O327 O 0.29878 0.82884 0.89023 0.0
H328 H 0.30588 0.76908 0.92597 0.0
H329 H 0.36863 0.81876 0.92633 0.0
H330 H 0.33095 0.73817 0.93918 0.0
H331 H 0.39246 0.78726 0.9398 0.0
H332 H 0.20503 0.76217 0.89203 0.0
H333 H 0.22809 0.82579 0.92697 0.0
H334 H 0.24961 0.77198 0.89584 0.0
H335 H 0.18389 0.81526 0.9225 0.0
H336 H 0.29906 0.79824 0.97623 0.0
H337 H 0.24039 0.85004 0.96621 0.0
H338 H 0.34357 0.74941 0.86931 0.0
H339 H 0.29767 0.70717 0.8978 0.0
H340 H 0.26924 0.9013 0.92758 0.0
H341 H 0.33277 0.8526 0.92995 0.0
H342 H 0.28931 0.92883 0.94506 0.0
H343 H 0.35158 0.88088 0.94737 0.0
H344 H 0.29635 0.87422 0.8796 0.0
H345 H 0.27455 0.79789 0.87357 0.0
H346 H 0.27381 0.88537 0.85775 0.0
H347 H 0.25256 0.81033 0.85178 0.0
H348 H 0.40322 0.85311 0.89187 0.0
H349 H 0.36026 0.92097 0.89159 0.0
H350 H 0.19192 0.84601 0.87639 0.0
H351 H 0.22096 0.91195 0.89629 0.0
Li352 Li 0.41519 0.98213 0.34934 0.0
Li353 Li 0.40928 0.93798 0.34555 0.0
Li354 Li 0.45242 0.9566 0.34856 0.0
Li355 Li 0.42692 0.96484 0.32769 0.0
C356 C 0.42753 0.95947 0.37596 0.0
N357 N 0.43395 0.96877 0.40421 0.0
C358 C 0.4103 0.95046 0.3857 0.0
C359 C 0.4481 0.97306 0.38062 0.0
C360 C 0.41384 0.95542 0.39993 0.0
C361 C 0.45101 0.97759 0.39493 0.0
C362 C 0.36855 0.96689 0.33967 0.0
C363 C 0.32513 0.97406 0.33466 0.0
N364 N 0.31962 0.97038 0.34841 0.0
C365 C 0.36243 0.96323 0.35376 0.0
C366 C 0.34975 0.9724 0.33004 0.0
C367 C 0.33761 0.96505 0.35797 0.0
C368 C 0.38595 0.02455 0.34765 0.0
N369 N 0.39904 0.01087 0.35713 0.0
C370 C 0.38359 0.03594 0.37591 0.0
C371 C 0.39846 0.01647 0.37103 0.0
C372 C 0.36945 0.04974 0.36634 0.0
C373 C 0.37106 0.04429 0.35204 0.0
H374 H 0.38644 0.01955 0.33668 0.0
H375 H 0.40879 0.00549 0.37844 0.0
C376 C 0.39892 0.89709 0.36205 0.0
N377 N 0.39073 0.90922 0.35044 0.0
C378 C 0.38643 0.8761 0.36693 0.0
C379 C 0.35756 0.88001 0.34761 0.0
C380 C 0.37054 0.90116 0.34314 0.0
C381 C 0.36553 0.86738 0.35968 0.0
H382 H 0.41518 0.90381 0.36754 0.0
H383 H 0.36452 0.91115 0.3339 0.0
C384 C 0.44764 0.01389 0.33922 0.0
N385 N 0.44793 0.06527 0.34034 0.0
C386 C 0.43726 0.0278 0.32831 0.0
C387 C 0.45839 0.02612 0.35063 0.0
C388 C 0.43755 0.05375 0.32908 0.0
C389 C 0.45828 0.05211 0.35103 0.0
C390 C 0.44662 0.92198 0.32201 0.0
C391 C 0.47119 0.92394 0.31736 0.0
C392 C 0.42876 0.91063 0.31352 0.0
C393 C 0.47747 0.91461 0.30416 0.0
C394 C 0.43577 0.90157 0.30038 0.0
N395 N 0.45977 0.90375 0.29601 0.0
C396 C 0.4861 0.9255 0.36149 0.0
C397 C 0.50371 0.9646 0.35552 0.0
C398 C 0.50858 0.9176 0.36724 0.0
N399 N 0.48413 0.94858 0.3558 0.0
C400 C 0.52659 0.95748 0.36124 0.0
C401 C 0.52905 0.9337 0.36714 0.0
H402 H 0.47011 0.91327 0.36156 0.0
H403 H 0.50151 0.98286 0.3509 0.0
C404 C 0.40811 0.9689 0.3001 0.0
N405 N 0.42895 0.97088 0.30809 0.0
C406 C 0.40878 0.97545 0.28594 0.0
C407 C 0.45249 0.98529 0.28846 0.0
C408 C 0.45095 0.97866 0.30258 0.0
C409 C 0.43111 0.98398 0.28008 0.0
H410 H 0.39089 0.96268 0.30479 0.0
H411 H 0.46715 0.98023 0.30925 0.0
O412 O 0.42452 0.95448 0.36201 0.0
O413 O 0.3928 0.96579 0.3353 0.0
O414 O 0.44709 0.98846 0.33878 0.0
O415 O 0.43993 0.93177 0.33466 0.0
H416 H 0.39434 0.93975 0.38233 0.0
H417 H 0.46159 0.9802 0.37327 0.0
H418 H 0.40062 0.94863 0.40757 0.0
H419 H 0.46681 0.98815 0.39866 0.0
H420 H 0.31042 0.97833 0.32731 0.0
H421 H 0.37665 0.95918 0.36139 0.0
H422 H 0.35415 0.97551 0.31912 0.0
H423 H 0.33265 0.9623 0.36884 0.0
H424 H 0.38253 0.03974 0.38703 0.0
H425 H 0.36015 0.05456 0.34445 0.0
H426 H 0.39309 0.86662 0.37622 0.0
H427 H 0.34155 0.87356 0.34176 0.0
H428 H 0.42871 0.01868 0.31943 0.0
H429 H 0.46665 0.0157 0.35913 0.0
H430 H 0.42942 0.06474 0.32076 0.0
H431 H 0.46641 0.06181 0.35984 0.0
H432 H 0.48518 0.9328 0.32382 0.0
H433 H 0.40963 0.90914 0.31697 0.0
H434 H 0.49638 0.9161 0.30037 0.0
H435 H 0.42212 0.89289 0.29364 0.0
H436 H 0.51002 0.89914 0.37174 0.0
H437 H 0.54219 0.97024 0.36103 0.0
H438 H 0.39201 0.97428 0.27968 0.0
H439 H 0.46995 0.99188 0.28418 0.0
Li440 Li 0.27281 0.16308 0.59868 0.0
Li441 Li 0.3167 0.15682 0.59466 0.0
Li442 Li 0.29845 0.20028 0.59873 0.0
Li443 Li 0.28963 0.17575 0.57652 0.0
C444 C 0.29487 0.16522 0.62485 0.0
N445 N 0.28283 0.15256 0.65205 0.0
C446 C 0.29473 0.14026 0.62895 0.0
C447 C 0.28911 0.18377 0.63458 0.0
C448 C 0.28851 0.13424 0.64275 0.0
C449 C 0.28303 0.17698 0.64829 0.0
C450 C 0.29616 0.12076 0.57779 0.0
C451 C 0.31911 0.10043 0.55936 0.0
N452 N 0.31208 0.07793 0.56455 0.0
C453 C 0.28904 0.09745 0.58291 0.0
C454 C 0.31123 0.12231 0.5659 0.0
C455 C 0.29735 0.07601 0.57609 0.0
C456 C 0.23332 0.13006 0.59752 0.0
N457 N 0.24407 0.14679 0.60633 0.0
C458 C 0.21572 0.1357 0.62461 0.0
C459 C 0.23513 0.15045 0.61952 0.0
C460 C 0.20519 0.11756 0.61589 0.0
C461 C 0.21368 0.1152 0.60209 0.0
H462 H 0.24037 0.1279 0.58698 0.0
H463 H 0.24326 0.16445 0.62619 0.0
C464 C 0.36767 0.14967 0.59928 0.0
N465 N 0.34546 0.13757 0.59899 0.0
C466 C 0.389 0.13758 0.60413 0.0
C467 C 0.36433 0.10059 0.60805 0.0
C468 C 0.34343 0.11344 0.60318 0.0
C469 C 0.38729 0.11289 0.60874 0.0
H470 H 0.36864 0.16902 0.59622 0.0
H471 H 0.32547 0.10446 0.60326 0.0
C472 C 0.24207 0.19777 0.59217 0.0
N473 N 0.19262 0.20038 0.59991 0.0
C474 C 0.22361 0.18882 0.58318 0.0
C475 C 0.23542 0.20814 0.60507 0.0
C476 C 0.1987 0.19028 0.5873 0.0
C477 C 0.2103 0.20929 0.60878 0.0
C478 C 0.33794 0.19818 0.57442 0.0
C479 C 0.33876 0.22398 0.57263 0.0
C480 C 0.35348 0.18292 0.56643 0.0
C481 C 0.3549 0.23407 0.56266 0.0
C482 C 0.36934 0.19373 0.55656 0.0
N483 N 0.3697 0.21887 0.55489 0.0
C484 C 0.32931 0.23268 0.61307 0.0
C485 C 0.29171 0.25176 0.60566 0.0
C486 C 0.33752 0.25497 0.61895 0.0
N487 N 0.30682 0.23152 0.60659 0.0
C488 C 0.29916 0.27447 0.61148 0.0
C489 C 0.32235 0.27611 0.61816 0.0
H490 H 0.34092 0.21625 0.61356 0.0
H491 H 0.27402 0.25032 0.60032 0.0
C492 C 0.2647 0.16134 0.5523 0.0
N493 N 0.28217 0.1777 0.55694 0.0
C494 C 0.25692 0.16177 0.53835 0.0
C495 C 0.28548 0.19568 0.53408 0.0
C496 C 0.29251 0.19479 0.54818 0.0
C497 C 0.26735 0.17913 0.52909 0.0
H498 H 0.25659 0.14811 0.55952 0.0
H499 H 0.30592 0.20797 0.5521 0.0
O500 O 0.3009 0.17156 0.61143 0.0
O501 O 0.28829 0.14189 0.58443 0.0
O502 O 0.26659 0.19575 0.58856 0.0
O503 O 0.32233 0.188 0.58416 0.0
H504 H 0.29907 0.12572 0.62151 0.0
H505 H 0.2892 0.20319 0.63156 0.0
H506 H 0.28814 0.11499 0.64606 0.0
H507 H 0.27844 0.19111 0.65593 0.0
H508 H 0.3308 0.10134 0.55015 0.0
H509 H 0.27742 0.09595 0.59213 0.0
H510 H 0.31672 0.14018 0.56174 0.0
H511 H 0.2921 0.05785 0.57997 0.0
H512 H 0.20935 0.138 0.6353 0.0
H513 H 0.20581 0.10137 0.59513 0.0
H514 H 0.40648 0.14757 0.60467 0.0
H515 H 0.36247 0.0816 0.6117 0.0
H516 H 0.22849 0.18063 0.5732 0.0
H517 H 0.24953 0.21484 0.61222 0.0
H518 H 0.18421 0.1833 0.58048 0.0
H519 H 0.20487 0.21712 0.61877 0.0
H520 H 0.32693 0.23606 0.57879 0.0
H521 H 0.35341 0.16296 0.56789 0.0
H522 H 0.35565 0.254 0.5611 0.0
H523 H 0.38141 0.18215 0.55026 0.0
H524 H 0.35555 0.25578 0.62401 0.0
H525 H 0.28716 0.29059 0.61067 0.0
H526 H 0.24283 0.14881 0.53481 0.0
H527 H 0.29379 0.20936 0.52719 0.0
Li528 Li 0.0926 0.06386 0.84526 0.0
Li529 Li 0.08645 0.01959 0.84949 0.0
Li530 Li 0.07426 0.03727 0.82682 0.0
Li531 Li 0.05031 0.04601 0.84768 0.0
C532 C 0.12555 0.04346 0.82575 0.0
N533 N 0.1602 0.05892 0.80624 0.0
C534 C 0.14604 0.02845 0.82262 0.0
C535 C 0.12267 0.06633 0.81897 0.0
C536 C 0.16336 0.0366 0.81272 0.0
C537 C 0.1404 0.07382 0.80914 0.0
C538 C 0.08361 0.04048 0.87488 0.0
C539 C 0.0732 0.02118 0.89692 0.0
N540 N 0.09695 0.02481 0.9014 0.0
C541 C 0.10781 0.04433 0.87977 0.0
C542 C 0.06606 0.02908 0.88356 0.0
C543 C 0.11423 0.03614 0.89318 0.0
C544 C 0.10033 0.11385 0.85181 0.0
N545 N 0.11239 0.09187 0.84999 0.0
C546 C 0.15074 0.10986 0.85765 0.0
C547 C 0.13716 0.08952 0.85264 0.0
C548 C 0.1386 0.13264 0.85983 0.0
C549 C 0.1132 0.13466 0.85669 0.0
H550 H 0.08055 0.11499 0.84986 0.0
H551 H 0.14616 0.07168 0.85128 0.0
C552 C 0.0922 0.96903 0.85891 0.0
N553 N 0.10285 0.9919 0.85772 0.0
C554 C 0.10623 0.94881 0.86368 0.0
C555 C 0.14176 0.97615 0.86593 0.0
C556 C 0.12714 0.99573 0.86107 0.0
C557 C 0.13133 0.95238 0.86716 0.0
H558 H 0.07311 0.96626 0.85576 0.0
H559 H 0.13531 0.01393 0.85959 0.0
C560 C 0.0439 0.07994 0.82536 0.0
N561 N 0.00612 0.09913 0.80898 0.0
C562 C 0.02627 0.0641 0.81937 0.0
C563 C 0.04242 0.10554 0.82296 0.0
C564 C 0.00728 0.07415 0.81114 0.0
C565 C 0.02316 0.11489 0.81466 0.0
C566 C 0.03477 0.99943 0.84056 0.0
C567 C 0.01979 0.99297 0.82915 0.0
C568 C 0.02793 0.99193 0.85403 0.0
C569 C 0.99802 0.97936 0.83145 0.0
C570 C 0.00602 0.97836 0.85591 0.0
N571 N 0.99162 0.97243 0.84468 0.0
C572 C 0.07229 0.00545 0.80389 0.0
C573 C 0.07472 0.04797 0.79733 0.0
C574 C 0.07186 0.99815 0.78987 0.0
N575 N 0.07354 0.02996 0.80733 0.0
C576 C 0.07459 0.04147 0.78314 0.0
C577 C 0.07308 0.01629 0.77935 0.0
H578 H 0.07165 0.99156 0.81208 0.0
H579 H 0.07588 0.06731 0.80037 0.0
C580 C 0.01913 0.06999 0.86649 0.0
N581 N 0.0184 0.05455 0.85521 0.0
C582 C 0.99716 0.07888 0.87245 0.0
C583 C 0.97387 0.05571 0.85516 0.0
C584 C 0.99635 0.04736 0.84946 0.0
C585 C 0.97424 0.07184 0.8667 0.0
H586 H 0.03688 0.07578 0.87071 0.0
H587 H 0.9961 0.03558 0.84031 0.0
O588 O 0.1084 0.03558 0.83536 0.0
O589 O 0.07705 0.04814 0.86172 0.0
O590 O 0.06282 0.0705 0.83333 0.0
O591 O 0.05606 0.01293 0.83852 0.0
H592 H 0.1485 0.01068 0.82779 0.0
H593 H 0.10691 0.07818 0.82124 0.0
H594 H 0.17931 0.02518 0.81018 0.0
H595 H 0.13839 0.09146 0.8038 0.0
H596 H 0.05983 0.01224 0.90373 0.0
H597 H 0.12156 0.05331 0.87323 0.0
H598 H 0.04709 0.02651 0.88009 0.0
H599 H 0.13296 0.0388 0.89705 0.0
H600 H 0.17032 0.10775 0.86008 0.0
H601 H 0.10333 0.15199 0.85837 0.0
H602 H 0.09783 0.93053 0.86436 0.0
H603 H 0.16118 0.97934 0.86839 0.0
H604 H 0.02733 0.04425 0.82099 0.0
H605 H 0.05606 0.11805 0.82742 0.0
H606 H 0.99349 0.06207 0.80645 0.0
H607 H 0.02178 0.13467 0.81271 0.0
H608 H 0.0248 0.9985 0.81863 0.0
H609 H 0.03944 0.99653 0.86293 0.0
H610 H 0.98619 0.97435 0.82273 0.0
H611 H 0.00047 0.97253 0.86629 0.0
H612 H 0.07077 0.97858 0.78724 0.0
H613 H 0.07564 0.05586 0.77522 0.0
H614 H 0.998 0.09145 0.88131 0.0
H615 H 0.95642 0.05011 0.85044 0.0
Li616 Li 0.1815 0.8422 0.09504 0.0
Li617 Li 0.22759 0.83766 0.09904 0.0
Li618 Li 0.20926 0.82288 0.0777 0.0
Li619 Li 0.20251 0.80098 0.09894 0.0
C620 C 0.21409 0.87167 0.07353 0.0
N621 N 0.22409 0.89874 0.0496 0.0
C622 C 0.23869 0.87576 0.06939 0.0
C623 C 0.19457 0.88142 0.06557 0.0
C624 C 0.24336 0.88948 0.05724 0.0
C625 C 0.20002 0.89503 0.05348 0.0
C626 C 0.20774 0.84141 0.12383 0.0
C627 C 0.23665 0.84485 0.14307 0.0
N628 N 0.22544 0.86638 0.1471 0.0
C629 C 0.19644 0.86352 0.1282 0.0
C630 C 0.22791 0.83191 0.13137 0.0
C631 C 0.20566 0.87587 0.13998 0.0
C632 C 0.13377 0.8482 0.10556 0.0
N633 N 0.15274 0.861 0.0995 0.0
C634 C 0.13107 0.89947 0.1026 0.0
C635 C 0.1518 0.88614 0.09787 0.0
C636 C 0.11145 0.88666 0.10907 0.0
C637 C 0.11278 0.86075 0.11044 0.0
H638 H 0.13527 0.82826 0.10686 0.0
H639 H 0.16741 0.89586 0.09327 0.0
C640 C 0.27831 0.84486 0.10696 0.0
N641 N 0.25537 0.85546 0.10615 0.0
C642 C 0.29871 0.85894 0.11141 0.0
C643 C 0.2714 0.89444 0.11403 0.0
C644 C 0.2516 0.87975 0.10951 0.0
C645 C 0.29523 0.88401 0.11495 0.0
H646 H 0.28086 0.82567 0.10392 0.0
H647 H 0.23322 0.88774 0.10849 0.0
C648 C 0.16337 0.8058 0.07287 0.0
N649 N 0.1363 0.79679 0.04878 0.0
C650 C 0.16889 0.78519 0.06449 0.0
C651 C 0.14401 0.82178 0.06901 0.0
C652 C 0.15503 0.78098 0.05234 0.0
C653 C 0.13054 0.8169 0.05679 0.0
C654 C 0.24305 0.78238 0.09081 0.0
C655 C 0.23869 0.76483 0.08029 0.0
C656 C 0.25497 0.77509 0.10316 0.0
C657 C 0.24624 0.74022 0.08233 0.0
C658 C 0.26219 0.75029 0.10482 0.0
N659 N 0.2577 0.73351 0.09446 0.0
C660 C 0.24088 0.81462 0.05486 0.0
C661 C 0.20102 0.82858 0.04771 0.0
C662 C 0.24923 0.81458 0.04102 0.0
N663 N 0.21708 0.82133 0.05797 0.0
C664 C 0.20858 0.82873 0.03369 0.0
C665 C 0.23296 0.82171 0.0303 0.0
H666 H 0.25361 0.80978 0.06319 0.0
H667 H 0.18256 0.83487 0.05038 0.0
C668 C 0.19824 0.76763 0.1219 0.0
N669 N 0.19598 0.76958 0.10775 0.0
C670 C 0.19124 0.74575 0.12875 0.0
C671 C 0.18002 0.72812 0.10633 0.0
C672 C 0.18725 0.75033 0.09992 0.0
C673 C 0.18172 0.72582 0.12093 0.0
H674 H 0.20484 0.78329 0.12792 0.0
H675 H 0.18535 0.7524 0.08873 0.0
O676 O 0.20914 0.85794 0.08524 0.0
O677 O 0.19936 0.82936 0.1121 0.0
O678 O 0.17659 0.81017 0.08487 0.0
O679 O 0.23509 0.80639 0.08919 0.0
H680 H 0.25398 0.86823 0.07543 0.0
H681 H 0.17542 0.87819 0.06858 0.0
H682 H 0.2623 0.8927 0.05386 0.0
H683 H 0.18511 0.90256 0.04716 0.0
H684 H 0.2524 0.83783 0.14892 0.0
H685 H 0.18081 0.87117 0.12253 0.0
H686 H 0.23703 0.81495 0.12809 0.0
H687 H 0.19715 0.89304 0.14345 0.0
H688 H 0.13056 0.91952 0.10152 0.0
H689 H 0.09793 0.85045 0.11546 0.0
H690 H 0.317 0.85052 0.11193 0.0
H691 H 0.26827 0.91382 0.11661 0.0
H692 H 0.18395 0.77278 0.06719 0.0
H693 H 0.13948 0.83786 0.07531 0.0
H694 H 0.15922 0.7652 0.04571 0.0
H695 H 0.11556 0.82914 0.05367 0.0
H696 H 0.22932 0.77006 0.0707 0.0
H697 H 0.25832 0.78835 0.11147 0.0
H698 H 0.24287 0.72643 0.0743 0.0
H699 H 0.27127 0.74436 0.11436 0.0
H700 H 0.26825 0.80933 0.0387 0.0
H701 H 0.19574 0.83465 0.02561 0.0
H702 H 0.19267 0.74457 0.14005 0.0
H703 H 0.17257 0.71312 0.10002 0.0
Li704 Li 0.57529 0.96287 0.82717 0.0
Li705 Li 0.58849 0.97918 0.84967 0.0
Li706 Li 0.59248 0.93532 0.84492 0.0
Li707 Li 0.55182 0.95271 0.84897 0.0
C708 C 0.62673 0.95377 0.82606 0.0
N709 N 0.66164 0.93513 0.80758 0.0
C710 C 0.65135 0.96208 0.82662 0.0
C711 C 0.61986 0.93601 0.81609 0.0
C712 C 0.66873 0.95242 0.81719 0.0
C713 C 0.63778 0.9268 0.80685 0.0
C714 C 0.55541 0.00898 0.83377 0.0
C715 C 0.53192 0.04469 0.82609 0.0
N716 N 0.55325 0.05531 0.82128 0.0
C717 C 0.5771 0.02025 0.82878 0.0
C718 C 0.53263 0.02127 0.83243 0.0
C719 C 0.57563 0.04367 0.82249 0.0
C720 C 0.55214 0.96392 0.80025 0.0
N721 N 0.57258 0.97099 0.80766 0.0
C722 C 0.58909 0.9922 0.78768 0.0
C723 C 0.59093 0.98481 0.80165 0.0
C724 C 0.56821 0.98526 0.77984 0.0
C725 C 0.54957 0.97088 0.78619 0.0
H726 H 0.53774 0.95309 0.80531 0.0
H727 H 0.60691 0.9904 0.80775 0.0
C728 C 0.62971 0.00217 0.861 0.0
N729 N 0.60516 0.00619 0.85847 0.0
C730 C 0.64461 0.02127 0.86621 0.0
C731 C 0.60853 0.04821 0.86646 0.0
C732 C 0.59423 0.02847 0.86134 0.0
C733 C 0.63405 0.04464 0.86876 0.0
H734 H 0.63779 0.98421 0.85867 0.0
H735 H 0.57461 0.03113 0.85932 0.0
C736 C 0.55696 0.90571 0.83224 0.0
N737 N 0.54821 0.85525 0.82985 0.0
C738 C 0.55431 0.89107 0.84424 0.0
C739 C 0.5552 0.89471 0.81901 0.0
C740 C 0.54991 0.86558 0.84282 0.0
C741 C 0.55073 0.86916 0.81802 0.0
C742 C 0.57237 0.96078 0.87499 0.0
C743 C 0.57999 0.94974 0.88754 0.0
C744 C 0.55663 0.9815 0.87539 0.0
C745 C 0.57186 0.95969 0.90027 0.0
C746 C 0.54892 0.9909 0.88832 0.0
N747 N 0.55664 0.9799 0.90039 0.0
C748 C 0.62189 0.90515 0.86184 0.0
C749 C 0.61575 0.88772 0.83928 0.0
C750 C 0.63433 0.8838 0.86629 0.0
N751 N 0.61239 0.90652 0.84866 0.0
C752 C 0.62829 0.86604 0.84327 0.0
C753 C 0.63724 0.86385 0.85701 0.0
H754 H 0.61925 0.92047 0.86901 0.0
H755 H 0.60804 0.88914 0.82886 0.0
C756 C 0.4988 0.95485 0.85097 0.0
N757 N 0.51989 0.94536 0.85675 0.0
C758 C 0.47547 0.94822 0.85633 0.0
C759 C 0.49611 0.92246 0.87354 0.0
C760 C 0.51895 0.92967 0.86793 0.0
C761 C 0.47407 0.93157 0.86763 0.0
H762 H 0.50009 0.96724 0.84206 0.0
H763 H 0.53595 0.9224 0.87237 0.0
O764 O 0.60955 0.96314 0.83523 0.0
O765 O 0.55629 0.98594 0.83985 0.0
O766 O 0.56193 0.93057 0.83338 0.0
O767 O 0.58009 0.95102 0.86246 0.0
H768 H 0.65695 0.97589 0.83424 0.0
H769 H 0.60091 0.9294 0.81547 0.0
H770 H 0.68785 0.95869 0.8175 0.0
H771 H 0.63271 0.91304 0.79909 0.0
H772 H 0.51441 0.05441 0.82497 0.0
H773 H 0.59491 0.01107 0.82978 0.0
H774 H 0.51566 0.01278 0.83625 0.0
H775 H 0.59227 0.0526 0.81858 0.0
H776 H 0.60375 0.00332 0.78305 0.0
H777 H 0.53321 0.9653 0.78036 0.0
H778 H 0.66428 0.01805 0.86791 0.0
H779 H 0.59995 0.06613 0.86837 0.0
H780 H 0.55629 0.89918 0.85454 0.0
H781 H 0.55738 0.90579 0.80962 0.0
H782 H 0.54803 0.85399 0.85202 0.0
H783 H 0.54934 0.86038 0.80786 0.0
H784 H 0.59196 0.93356 0.88748 0.0
H785 H 0.55027 0.99024 0.86586 0.0
H786 H 0.57763 0.95131 0.91005 0.0
H787 H 0.53676 0.00692 0.88876 0.0
H788 H 0.64113 0.8826 0.87696 0.0
H789 H 0.63025 0.85085 0.8359 0.0
H790 H 0.45871 0.95555 0.85156 0.0
H791 H 0.4956 0.90959 0.88228 0.0
Li792 Li 0.81266 0.84089 0.59591 0.0
Li793 Li 0.7931 0.80047 0.59963 0.0
Li794 Li 0.78573 0.82404 0.57794 0.0
Li795 Li 0.76771 0.83733 0.60013 0.0
C796 C 0.84229 0.80942 0.58265 0.0
N797 N 0.89335 0.81007 0.57921 0.0
C798 C 0.85733 0.79333 0.59045 0.0
C799 C 0.85322 0.82573 0.57305 0.0
C800 C 0.8831 0.79395 0.58856 0.0
C801 C 0.87906 0.82583 0.57149 0.0
C802 C 0.78765 0.83941 0.62493 0.0
C803 C 0.75961 0.84118 0.64464 0.0
N804 N 0.77028 0.86294 0.64873 0.0
C805 C 0.79837 0.86178 0.62934 0.0
C806 C 0.76818 0.82896 0.63265 0.0
C807 C 0.78932 0.87338 0.64141 0.0
C808 C 0.84525 0.88322 0.59623 0.0
N809 N 0.8419 0.85926 0.60042 0.0
C810 C 0.88003 0.85999 0.61327 0.0
C811 C 0.85861 0.84764 0.60888 0.0
C812 C 0.8839 0.88473 0.60921 0.0
C813 C 0.86628 0.89648 0.60061 0.0
H814 H 0.83139 0.89217 0.58975 0.0
H815 H 0.85506 0.82886 0.6124 0.0
C816 C 0.80658 0.74951 0.59893 0.0
N817 N 0.79937 0.76843 0.60749 0.0
C818 C 0.81476 0.727 0.60464 0.0
C819 C 0.80688 0.7435 0.62779 0.0
C820 C 0.79902 0.76574 0.62165 0.0
C821 C 0.81541 0.7241 0.61923 0.0
H822 H 0.80703 0.75232 0.58772 0.0
H823 H 0.79358 0.78117 0.62821 0.0
C824 C 0.77862 0.8723 0.57503 0.0
N825 N 0.76424 0.89907 0.55168 0.0
C826 C 0.75371 0.87908 0.57324 0.0
C827 C 0.79625 0.87934 0.56503 0.0
C828 C 0.74681 0.8926 0.56135 0.0
C829 C 0.78859 0.89278 0.55326 0.0
C830 C 0.75219 0.78268 0.58974 0.0
C831 C 0.75532 0.76774 0.57789 0.0
C832 C 0.74105 0.77277 0.60174 0.0
C833 C 0.74727 0.74303 0.57826 0.0
C834 C 0.73331 0.74796 0.6017 0.0
N835 N 0.73655 0.73373 0.59006 0.0
C836 C 0.79535 0.81746 0.54845 0.0
C837 C 0.75362 0.82571 0.55509 0.0
C838 C 0.78848 0.81666 0.53432 0.0
N839 N 0.77795 0.82211 0.55846 0.0
C840 C 0.74599 0.82528 0.54113 0.0
C841 C 0.76354 0.82075 0.53059 0.0
H842 H 0.8145 0.81435 0.55142 0.0
H843 H 0.74016 0.82907 0.5633 0.0
C844 C 0.74152 0.87765 0.61215 0.0
N845 N 0.73937 0.85365 0.60777 0.0
C846 C 0.72051 0.89078 0.61657 0.0
C847 C 0.69555 0.85425 0.61191 0.0
C848 C 0.71703 0.84179 0.60762 0.0
C849 C 0.69723 0.87906 0.61632 0.0
H850 H 0.75946 0.88674 0.61186 0.0
H851 H 0.7158 0.8229 0.60382 0.0
O852 O 0.81704 0.80938 0.58451 0.0
O853 O 0.79594 0.82797 0.61301 0.0
O854 O 0.78566 0.85853 0.58641 0.0
O855 O 0.76052 0.80672 0.58972 0.0
H856 H 0.84926 0.78074 0.59802 0.0
H857 H 0.84189 0.83836 0.56697 0.0
H858 H 0.89497 0.7817 0.59458 0.0
H859 H 0.88777 0.83847 0.56416 0.0
H860 H 0.74443 0.8334 0.65065 0.0
H861 H 0.81337 0.87021 0.62348 0.0
H862 H 0.75951 0.81179 0.6293 0.0
H863 H 0.7974 0.89072 0.64493 0.0
H864 H 0.89318 0.85057 0.62005 0.0
H865 H 0.86871 0.91567 0.59743 0.0
H866 H 0.82138 0.71236 0.59778 0.0
H867 H 0.80731 0.7418 0.63909 0.0
H868 H 0.73978 0.87369 0.58083 0.0
H869 H 0.81561 0.87431 0.56627 0.0
H870 H 0.72758 0.89784 0.55979 0.0
H871 H 0.80201 0.89819 0.54538 0.0
H872 H 0.76409 0.77504 0.56855 0.0
H873 H 0.73872 0.78403 0.61104 0.0
H874 H 0.74964 0.73122 0.56918 0.0
H875 H 0.7248 0.74 0.61094 0.0
H876 H 0.8024 0.813 0.52638 0.0
H877 H 0.72661 0.82843 0.53856 0.0
H878 H 0.72227 0.91 0.61983 0.0
H879 H 0.67773 0.84485 0.61152 0.0
Li880 Li 0.91374 0.06605 0.34489 0.0
Li881 Li 0.95315 0.04495 0.34733 0.0
Li882 Li 0.92917 0.03847 0.32604 0.0
Li883 Li 0.9154 0.01964 0.34822 0.0
C884 C 0.94067 0.08949 0.32364 0.0
N885 N 0.93337 0.12819 0.30502 0.0
C886 C 0.9578 0.10902 0.32292 0.0
C887 C 0.91987 0.08964 0.31486 0.0
C888 C 0.95376 0.12843 0.31345 0.0
C889 C 0.9165 0.10935 0.30552 0.0
C890 C 0.93237 0.0586 0.3731 0.0
C891 C 0.9372 0.05968 0.39819 0.0
N892 N 0.9473 0.08282 0.39718 0.0
C893 C 0.94283 0.08236 0.37228 0.0
C894 C 0.92954 0.04712 0.38613 0.0
C895 C 0.95023 0.09432 0.38459 0.0
C896 C 0.87271 0.09043 0.35679 0.0
N897 N 0.89485 0.09456 0.35028 0.0
C898 C 0.89101 0.13839 0.35395 0.0
C899 C 0.90414 0.11796 0.34877 0.0
C900 C 0.86834 0.13457 0.36086 0.0
C901 C 0.85902 0.11034 0.3622 0.0
H902 H 0.866 0.07158 0.35805 0.0
H903 H 0.92209 0.12078 0.34398 0.0
C904 C 0.00123 0.06488 0.34781 0.0
N905 N 0.98548 0.0499 0.3551 0.0
C906 C 0.02355 0.07275 0.35381 0.0
C907 C 0.0137 0.04858 0.37446 0.0
C908 C 0.99147 0.04129 0.36808 0.0
C909 C 0.02964 0.06499 0.3674 0.0
H910 H 0.99598 0.07145 0.33752 0.0
H911 H 0.97854 0.02967 0.37376 0.0
C912 C 0.87307 0.03692 0.32876 0.0
N913 N 0.82645 0.03153 0.3169 0.0
C914 C 0.86291 0.01323 0.32682 0.0
C915 C 0.85935 0.05789 0.32481 0.0
C916 C 0.83936 0.01088 0.32077 0.0
C917 C 0.83587 0.05477 0.31878 0.0
C918 C 0.9606 0.99436 0.34338 0.0
C919 C 0.97682 0.98039 0.33508 0.0
C920 C 0.95879 0.98935 0.35771 0.0
C921 C 0.991 0.96158 0.34127 0.0
C922 C 0.97328 0.9704 0.36351 0.0
N923 N 0.98895 0.95701 0.35524 0.0
C924 C 0.94699 0.0422 0.2978 0.0
C925 C 0.91442 0.01327 0.30176 0.0
C926 C 0.94802 0.03551 0.28364 0.0
N927 N 0.93019 0.03117 0.30648 0.0
C928 C 0.91472 0.00613 0.28772 0.0
C929 C 0.93169 0.01729 0.27853 0.0
H930 H 0.95976 0.05594 0.30188 0.0
H931 H 0.90192 0.00418 0.30896 0.0
C932 C 0.88101 0.99691 0.36614 0.0
N933 N 0.89768 0.99235 0.35576 0.0
C934 C 0.86569 0.97783 0.37104 0.0
C935 C 0.88537 0.94969 0.35463 0.0
C936 C 0.90029 0.96932 0.35003 0.0
C937 C 0.86765 0.95406 0.36511 0.0
H938 H 0.8792 0.01552 0.37034 0.0
H939 H 0.91342 0.96639 0.3416 0.0
O940 O 0.9443 0.07053 0.333 0.0
O941 O 0.92562 0.04623 0.36119 0.0
O942 O 0.8959 0.03963 0.33495 0.0
O943 O 0.94662 0.01281 0.33743 0.0
H944 H 0.97393 0.10932 0.32971 0.0
H945 H 0.90661 0.07459 0.31514 0.0
H946 H 0.96682 0.14371 0.31283 0.0
H947 H 0.9005 0.10964 0.29864 0.0
H948 H 0.93518 0.051 0.40836 0.0
H949 H 0.94557 0.09129 0.36224 0.0
H950 H 0.92167 0.02862 0.38689 0.0
H951 H 0.95844 0.11267 0.38413 0.0
H952 H 0.89874 0.15691 0.35292 0.0
H953 H 0.84163 0.10689 0.3676 0.0
H954 H 0.03555 0.08541 0.34813 0.0
H955 H 0.01794 0.04235 0.38498 0.0
H956 H 0.87314 0.99678 0.32986 0.0
H957 H 0.86666 0.07642 0.32643 0.0
H958 H 0.83135 0.99264 0.31916 0.0
H959 H 0.8251 0.07084 0.31565 0.0
H960 H 0.97841 0.98405 0.32396 0.0
H961 H 0.94637 1.0 0.36431 0.0
H962 H 0.00364 0.9506 0.33497 0.0
H963 H 0.97208 0.96634 0.37459 0.0
H964 H 0.96147 0.04428 0.27678 0.0
H965 H 0.90207 0.99182 0.28408 0.0
H966 H 0.85207 0.98167 0.37913 0.0
H967 H 0.88715 0.9315 0.34985 0.0
Li968 Li 0.68625 0.16028 0.0957 0.0
Li969 Li 0.70454 0.20141 0.09962 0.0
Li970 Li 0.71297 0.17736 0.07737 0.0
Li971 Li 0.73291 0.1648 0.09921 0.0
C972 C 0.65656 0.19211 0.0809 0.0
N973 N 0.60665 0.19331 0.07397 0.0
C974 C 0.64078 0.20957 0.08713 0.0
C975 C 0.64703 0.17551 0.071 0.0
C976 C 0.61558 0.20982 0.08353 0.0
C977 C 0.62173 0.17634 0.06768 0.0
C978 C 0.70631 0.17593 0.12646 0.0
C979 C 0.72987 0.18517 0.14734 0.0
N980 N 0.70875 0.18317 0.15511 0.0
C981 C 0.68493 0.17353 0.13469 0.0
C982 C 0.72905 0.18143 0.13287 0.0
C983 C 0.6865 0.17745 0.14913 0.0
C984 C 0.65714 0.11605 0.09893 0.0
N985 N 0.65758 0.1412 0.10055 0.0
C986 C 0.61743 0.1406 0.11132 0.0
C987 C 0.63831 0.15354 0.10663 0.0
C988 C 0.61658 0.11466 0.10994 0.0
C989 C 0.63665 0.10228 0.10362 0.0
H990 H 0.67292 0.10665 0.0943 0.0
H991 H 0.63945 0.17342 0.10819 0.0
C992 C 0.70714 0.25438 0.1027 0.0
N993 N 0.69694 0.233 0.10774 0.0
C994 C 0.6999 0.27742 0.10818 0.0
C995 C 0.67186 0.25598 0.12389 0.0
C996 C 0.67954 0.23344 0.11808 0.0
C997 C 0.68197 0.27824 0.11884 0.0
H998 H 0.72048 0.25358 0.09423 0.0
H999 H 0.67094 0.21634 0.12148 0.0
C1000 C 0.71878 0.12754 0.07504 0.0
N1001 N 0.7285 0.09606 0.05282 0.0
C1002 C 0.74305 0.11934 0.0725 0.0
C1003 C 0.6994 0.11936 0.06645 0.0
C1004 C 0.7476 0.10352 0.06117 0.0
C1005 C 0.7047 0.10355 0.05522 0.0
C1006 C 0.75706 0.21097 0.09202 0.0
C1007 C 0.77464 0.21569 0.08155 0.0
C1008 C 0.76057 0.22089 0.1054 0.0
C1009 C 0.79572 0.22979 0.08475 0.0
C1010 C 0.78187 0.23495 0.10818 0.0
N1011 N 0.79889 0.23903 0.09789 0.0
C1012 C 0.70399 0.18703 0.04806 0.0
C1013 C 0.74415 0.17254 0.05434 0.0
C1014 C 0.71096 0.18808 0.03394 0.0
N1015 N 0.72058 0.17924 0.05789 0.0
C1016 C 0.75182 0.1731 0.0404 0.0
C1017 C 0.73513 0.18097 0.03004 0.0
H1018 H 0.68546 0.19256 0.05117 0.0
H1019 H 0.75706 0.1668 0.06241 0.0
C1020 C 0.76032 0.13138 0.11622 0.0
N1021 N 0.76221 0.14923 0.10616 0.0
C1022 C 0.78133 0.11781 0.12027 0.0
C1023 C 0.80579 0.1416 0.10374 0.0
C1024 C 0.78434 0.15449 0.09992 0.0
C1025 C 0.80427 0.12278 0.11386 0.0
H1026 H 0.74238 0.12726 0.1208 0.0
H1027 H 0.78521 0.168 0.09159 0.0
O1028 O 0.68124 0.19145 0.08439 0.0
O1029 O 0.70512 0.17194 0.11231 0.0
O1030 O 0.71401 0.1433 0.08597 0.0
O1031 O 0.73638 0.19707 0.08906 0.0
H1032 H 0.64788 0.22273 0.09471 0.0
H1033 H 0.65904 0.16217 0.06592 0.0
H1034 H 0.60313 0.22314 0.08833 0.0
H1035 H 0.61409 0.16351 0.06008 0.0
H1036 H 0.74734 0.18953 0.15241 0.0
H1037 H 0.66725 0.16887 0.12998 0.0
H1038 H 0.74597 0.18249 0.12679 0.0
H1039 H 0.67004 0.17588 0.1556 0.0
H1040 H 0.60232 0.15063 0.11628 0.0
H1041 H 0.63657 0.08222 0.10252 0.0
H1042 H 0.70776 0.29441 0.10398 0.0
H1043 H 0.65767 0.25612 0.13195 0.0
H1044 H 0.75825 0.1253 0.07911 0.0
H1045 H 0.68045 0.12506 0.06845 0.0
H1046 H 0.76632 0.0972 0.05901 0.0
H1047 H 0.68989 0.09719 0.04843 0.0
H1048 H 0.7721 0.20844 0.07108 0.0
H1049 H 0.74682 0.21815 0.11349 0.0
H1050 H 0.80955 0.23343 0.07677 0.0
H1051 H 0.78481 0.24271 0.11851 0.0
H1052 H 0.69772 0.19436 0.02615 0.0
H1053 H 0.77062 0.16761 0.03771 0.0
H1054 H 0.77965 0.10329 0.12808 0.0
H1055 H 0.82324 0.14566 0.09854 0.0
Li1056 Li 0.55281 0.04845 0.65311 0.0
Li1057 Li 0.59499 0.06461 0.65682 0.0
Li1058 Li 0.58769 0.02015 0.65268 0.0
Li1059 Li 0.57585 0.03958 0.67484 0.0
C1060 C 0.57082 0.05534 0.62763 0.0
N1061 N 0.54746 0.07074 0.60334 0.0
C1062 C 0.57375 0.07977 0.62287 0.0
C1063 C 0.55615 0.0387 0.61999 0.0
C1064 C 0.56179 0.08719 0.61057 0.0
C1065 C 0.54442 0.04687 0.60776 0.0
C1066 C 0.55581 0.0839 0.6791 0.0
C1067 C 0.56281 0.1039 0.70136 0.0
N1068 N 0.53781 0.10667 0.70298 0.0
C1069 C 0.5302 0.08689 0.68097 0.0
C1070 C 0.57227 0.09251 0.68934 0.0
C1071 C 0.52147 0.09849 0.69312 0.0
C1072 C 0.5024 0.04057 0.64426 0.0
N1073 N 0.52139 0.05722 0.64527 0.0
C1074 C 0.49664 0.08891 0.63457 0.0
C1075 C 0.51883 0.08106 0.64073 0.0
C1076 C 0.47681 0.07214 0.63337 0.0
C1077 C 0.47968 0.04775 0.63834 0.0
H1078 H 0.50485 0.02181 0.6481 0.0
H1079 H 0.53412 0.09398 0.64188 0.0
C1080 C 0.63336 0.08923 0.64218 0.0
N1081 N 0.61578 0.09213 0.65231 0.0
C1082 C 0.64636 0.10984 0.6371 0.0
C1083 C 0.62323 0.13593 0.65313 0.0
C1084 C 0.61074 0.11481 0.65794 0.0
C1085 C 0.64088 0.13352 0.64241 0.0
H1086 H 0.63646 0.07109 0.63761 0.0
H1087 H 0.59626 0.11669 0.66572 0.0
C1088 C 0.55228 0.99153 0.66272 0.0
N1089 N 0.54741 0.9404 0.66147 0.0
C1090 C 0.55847 0.97691 0.67432 0.0
C1091 C 0.54342 0.98018 0.65053 0.0
C1092 C 0.5559 0.95108 0.67347 0.0
C1093 C 0.54117 0.95429 0.65009 0.0
C1094 C 0.63408 0.04201 0.66694 0.0
C1095 C 0.65013 0.03186 0.65694 0.0
C1096 C 0.64316 0.05933 0.6766 0.0
C1097 C 0.67502 0.03933 0.65671 0.0
C1098 C 0.66817 0.06634 0.67601 0.0
N1099 N 0.68344 0.05629 0.66616 0.0
C1100 C 0.60375 0.98836 0.63063 0.0
C1101 C 0.61055 0.97312 0.65348 0.0
C1102 C 0.61451 0.96703 0.62485 0.0
N1103 N 0.60144 0.99071 0.6447 0.0
C1104 C 0.62123 0.95143 0.64815 0.0
C1105 C 0.62208 0.947 0.63353 0.0
H1106 H 0.59788 0.00339 0.62387 0.0
H1107 H 0.60997 0.97618 0.66467 0.0
C1108 C 0.5497 0.0314 0.70029 0.0
N1109 N 0.57272 0.03336 0.69445 0.0
C1110 C 0.54711 0.02438 0.71433 0.0
C1111 C 0.59194 0.02181 0.71608 0.0
C1112 C 0.59366 0.02886 0.70203 0.0
C1113 C 0.56844 0.01928 0.72229 0.0
H1114 H 0.53336 0.03466 0.69394 0.0
H1115 H 0.61169 0.0301 0.69706 0.0
O1116 O 0.582 0.04782 0.63979 0.0
O1117 O 0.56473 0.0728 0.66723 0.0
O1118 O 0.55515 0.01679 0.66323 0.0
O1119 O 0.60954 0.03528 0.66719 0.0
H1120 H 0.58488 0.09296 0.62868 0.0
H1121 H 0.55362 0.01977 0.62354 0.0
H1122 H 0.5638 0.10606 0.6068 0.0
H1123 H 0.53286 0.03425 0.6018 0.0
H1124 H 0.57533 0.11057 0.7094 0.0
H1125 H 0.51721 0.08036 0.67313 0.0
H1126 H 0.59215 0.0903 0.68804 0.0
H1127 H 0.50169 0.101 0.6947 0.0
H1128 H 0.49484 0.10791 0.63094 0.0
H1129 H 0.46456 0.0345 0.63763 0.0
H1130 H 0.65975 0.10751 0.62872 0.0
H1131 H 0.6185 0.15405 0.65732 0.0
H1132 H 0.56544 0.98536 0.68382 0.0
H1133 H 0.53859 0.99121 0.64145 0.0
H1134 H 0.56075 0.93952 0.68234 0.0
H1135 H 0.5345 0.94525 0.64069 0.0
H1136 H 0.64342 0.01856 0.64933 0.0
H1137 H 0.63099 0.0674 0.68439 0.0
H1138 H 0.68762 0.03171 0.64898 0.0
H1139 H 0.67542 0.07981 0.68337 0.0
H1140 H 0.61749 0.96732 0.61371 0.0
H1141 H 0.62946 0.93888 0.65566 0.0
H1142 H 0.52873 0.02243 0.71884 0.0
H1143 H 0.60871 0.01784 0.72196 0.0
Li1144 Li 0.72951 0.83706 0.40393 0.0
Li1145 Li 0.71099 0.82481 0.42498 0.0
Li1146 Li 0.70337 0.8 0.40364 0.0
Li1147 Li 0.68454 0.84384 0.40708 0.0
C1148 C 0.75858 0.79731 0.41164 0.0
N1149 N 0.80692 0.78159 0.40731 0.0
C1150 C 0.77797 0.80723 0.41964 0.0
C1151 C 0.76372 0.77915 0.40156 0.0
C1152 C 0.8023 0.79913 0.41725 0.0
C1153 C 0.7883 0.7715 0.39951 0.0
C1154 C 0.71945 0.8748 0.42749 0.0
C1155 C 0.71035 0.90784 0.44377 0.0
N1156 N 0.7342 0.90682 0.44852 0.0
C1157 C 0.74392 0.87426 0.43241 0.0
C1158 C 0.70254 0.89184 0.43311 0.0
C1159 C 0.75099 0.89052 0.4431 0.0
C1160 C 0.75553 0.87927 0.39619 0.0
N1161 N 0.75738 0.85403 0.3957 0.0
C1162 C 0.79655 0.85699 0.38389 0.0
C1163 C 0.77716 0.84273 0.38945 0.0
C1164 C 0.79517 0.88299 0.38461 0.0
C1165 C 0.77434 0.89418 0.39071 0.0
H1166 H 0.73929 0.88789 0.40076 0.0
H1167 H 0.77788 0.82275 0.38861 0.0
C1168 C 0.73347 0.80479 0.44911 0.0
N1169 N 0.71671 0.82217 0.4448 0.0
C1170 C 0.74066 0.80354 0.46314 0.0
C1171 C 0.71248 0.83741 0.46823 0.0
C1172 C 0.7058 0.83799 0.45409 0.0
C1173 C 0.73038 0.82026 0.47279 0.0
H1174 H 0.74167 0.79222 0.44158 0.0
H1175 H 0.69232 0.85144 0.4505 0.0
C1176 C 0.71373 0.83423 0.37826 0.0
N1177 N 0.73929 0.84603 0.35405 0.0
C1178 C 0.71194 0.85812 0.37257 0.0
C1179 C 0.72837 0.81629 0.3716 0.0
C1180 C 0.72506 0.86374 0.36034 0.0
C1181 C 0.74116 0.82262 0.35937 0.0
C1182 C 0.66575 0.80832 0.42986 0.0
C1183 C 0.66723 0.78508 0.43637 0.0
C1184 C 0.65194 0.82739 0.43607 0.0
C1185 C 0.65485 0.78133 0.44907 0.0
C1186 C 0.63984 0.8229 0.44877 0.0
N1187 N 0.64154 0.80016 0.45496 0.0
C1188 C 0.70091 0.74696 0.40226 0.0
C1189 C 0.68288 0.76904 0.38327 0.0
C1190 C 0.69314 0.7243 0.39653 0.0
N1191 N 0.69554 0.76868 0.3956 0.0
C1192 C 0.6748 0.74688 0.37718 0.0
C1193 C 0.67971 0.72426 0.38392 0.0
H1194 H 0.71079 0.74731 0.41214 0.0
H1195 H 0.67861 0.78663 0.37832 0.0
C1196 C 0.66047 0.88759 0.39791 0.0
N1197 N 0.65689 0.8637 0.40216 0.0
C1198 C 0.64055 0.90143 0.39263 0.0
C1199 C 0.61361 0.86606 0.39668 0.0
C1200 C 0.63406 0.85284 0.40174 0.0
C1201 C 0.61692 0.89047 0.39187 0.0
H1202 H 0.67894 0.89557 0.39822 0.0
H1203 H 0.63191 0.83368 0.405 0.0
O1204 O 0.73459 0.80469 0.41398 0.0
O1205 O 0.71211 0.85898 0.41707 0.0
O1206 O 0.70185 0.82864 0.39052 0.0
O1207 O 0.67799 0.81249 0.41754 0.0
H1208 H 0.77427 0.82095 0.42766 0.0
H1209 H 0.74893 0.77112 0.39535 0.0
H1210 H 0.81749 0.80672 0.42332 0.0
H1211 H 0.79258 0.75756 0.3917 0.0
H1212 H 0.69744 0.92104 0.44829 0.0
H1213 H 0.75728 0.86142 0.42801 0.0
H1214 H 0.68355 0.89255 0.42934 0.0
H1215 H 0.76984 0.89021 0.44707 0.0
H1216 H 0.81234 0.84792 0.37903 0.0
H1217 H 0.7727 0.91425 0.39124 0.0
H1218 H 0.75444 0.79001 0.4664 0.0
H1219 H 0.70414 0.85046 0.47549 0.0
H1220 H 0.7008 0.87226 0.37765 0.0
H1221 H 0.73008 0.79776 0.37593 0.0
H1222 H 0.72402 0.88221 0.35587 0.0
H1223 H 0.75269 0.80897 0.35415 0.0
H1224 H 0.67792 0.77017 0.43169 0.0
H1225 H 0.65087 0.84557 0.43124 0.0
H1226 H 0.65585 0.76346 0.45426 0.0
H1227 H 0.6292 0.83752 0.45374 0.0
H1228 H 0.69706 0.70706 0.40198 0.0
H1229 H 0.66433 0.74738 0.36748 0.0
H1230 H 0.64359 0.92022 0.38889 0.0
H1231 H 0.59557 0.85713 0.3961 0.0
Li1232 Li 0.91136 0.98079 0.1512 0.0
Li1233 Li 0.92247 0.96239 0.17365 0.0
Li1234 Li 0.94646 0.95295 0.15255 0.0
Li1235 Li 0.90439 0.93656 0.15582 0.0
C1236 C 0.94563 0.01037 0.16138 0.0
N1237 N 0.94922 0.06157 0.15967 0.0
C1238 C 0.93885 0.02517 0.1728 0.0
C1239 C 0.95436 0.0216 0.14912 0.0
C1240 C 0.9408 0.05102 0.17173 0.0
C1241 C 0.95597 0.04752 0.14845 0.0
C1242 C 0.86472 0.95868 0.16519 0.0
C1243 C 0.83124 0.93305 0.17384 0.0
N1244 N 0.81585 0.9429 0.16398 0.0
C1245 C 0.84856 0.96861 0.15517 0.0
C1246 C 0.856 0.94083 0.17464 0.0
C1247 C 0.82392 0.96038 0.15473 0.0
C1248 C 0.89649 0.01144 0.1285 0.0
N1249 N 0.89773 0.00968 0.14263 0.0
C1250 C 0.87792 0.04917 0.1451 0.0
C1251 C 0.88806 0.02767 0.15096 0.0
C1252 C 0.87808 0.0529 0.13041 0.0
C1253 C 0.8863 0.03255 0.12218 0.0
H1254 H 0.90292 0.99616 0.12209 0.0
H1255 H 0.88793 0.02515 0.1622 0.0
C1256 C 0.94795 0.97399 0.19865 0.0
N1257 N 0.92504 0.9694 0.19315 0.0
C1258 C 0.95038 0.98121 0.21263 0.0
C1259 C 0.90563 0.97868 0.21505 0.0
C1260 C 0.90406 0.9715 0.20102 0.0
C1261 C 0.929 0.9838 0.22091 0.0
H1262 H 0.96426 0.9726 0.19205 0.0
H1263 H 0.88608 0.96816 0.19632 0.0
C1264 C 0.93027 0.94426 0.12714 0.0
N1265 N 0.95607 0.92698 0.10407 0.0
C1266 C 0.92879 0.91919 0.12333 0.0
C1267 C 0.94478 0.96056 0.11917 0.0
C1268 C 0.94197 0.91082 0.11163 0.0
C1269 C 0.95773 0.95145 0.10756 0.0
C1270 C 0.94346 0.91993 0.17914 0.0
C1271 C 0.96905 0.92048 0.18173 0.0
C1272 C 0.9273 0.91062 0.18934 0.0
C1273 C 0.97804 0.91182 0.19457 0.0
C1274 C 0.93701 0.90221 0.20206 0.0
N1275 N 0.96197 0.90297 0.20439 0.0
C1276 C 0.99617 0.9616 0.14265 0.0
C1277 C 0.982 0.91978 0.14233 0.0
C1278 C 0.01888 0.95446 0.13672 0.0
N1279 N 0.97827 0.94428 0.14521 0.0
C1280 C 0.0043 0.91187 0.13633 0.0
C1281 C 0.02292 0.92935 0.13345 0.0
H1282 H 0.99277 0.98091 0.14514 0.0
H1283 H 0.96748 0.90643 0.14457 0.0
C1284 C 0.86727 0.91174 0.14051 0.0
N1285 N 0.88382 0.90896 0.15118 0.0
C1286 C 0.85429 0.8912 0.13536 0.0
C1287 C 0.87528 0.8654 0.15245 0.0
C1288 C 0.88782 0.88647 0.1573 0.0
C1289 C 0.85869 0.86767 0.14119 0.0
H1290 H 0.86496 0.92974 0.13562 0.0
H1291 H 0.90148 0.8847 0.16555 0.0
O1292 O 0.94338 0.98504 0.16211 0.0
O1293 O 0.88905 0.96613 0.16563 0.0
O1294 O 0.91801 0.95272 0.13877 0.0
O1295 O 0.93424 0.92882 0.16676 0.0
H1296 H 0.93186 0.01686 0.18233 0.0
H1297 H 0.95945 0.01046 0.14013 0.0
H1298 H 0.93551 0.06271 0.18046 0.0
H1299 H 0.96251 0.05646 0.13899 0.0
H1300 H 0.82428 0.91914 0.18102 0.0
H1301 H 0.85501 0.98233 0.14772 0.0
H1302 H 0.8683 0.93285 0.18241 0.0
H1303 H 0.81123 0.96782 0.14699 0.0
H1304 H 0.86943 0.06233 0.1522 0.0
H1305 H 0.88446 0.03178 0.11099 0.0
H1306 H 0.96863 0.98519 0.21688 0.0
H1307 H 0.88882 0.98066 0.22121 0.0
H1308 H 0.91787 0.90623 0.12943 0.0
H1309 H 0.94632 0.97997 0.12204 0.0
H1310 H 0.94109 0.89144 0.1086 0.0
H1311 H 0.96918 0.96382 0.10137 0.0
H1312 H 0.9818 0.92774 0.17397 0.0
H1313 H 0.90743 0.9102 0.18753 0.0
H1314 H 0.99779 0.91221 0.19675 0.0
H1315 H 0.92471 0.89513 0.2101 0.0
H1316 H 0.03305 0.9683 0.13464 0.0
H1317 H 0.00702 0.89235 0.13396 0.0
H1318 H 0.84173 0.89341 0.12658 0.0
H1319 H 0.87915 0.84739 0.15705 0.0
Li1320 Li 0.77218 0.16569 0.9035 0.0
Li1321 Li 0.79037 0.17836 0.92506 0.0
Li1322 Li 0.79696 0.20342 0.90321 0.0
Li1323 Li 0.81668 0.16119 0.9062 0.0
C1324 C 0.74301 0.20765 0.91222 0.0
N1325 N 0.6965 0.22896 0.90919 0.0
C1326 C 0.72438 0.20307 0.92212 0.0
C1327 C 0.73807 0.22341 0.9009 0.0
C1328 C 0.70096 0.21391 0.92037 0.0
C1329 C 0.71442 0.23393 0.89953 0.0
C1330 C 0.77644 0.12824 0.92468 0.0
C1331 C 0.77161 0.08915 0.93676 0.0
N1332 N 0.74807 0.09579 0.94043 0.0
C1333 C 0.75222 0.13468 0.92856 0.0
C1334 C 0.78625 0.1053 0.92879 0.0
C1335 C 0.73816 0.11802 0.93652 0.0
C1336 C 0.74886 0.12338 0.89329 0.0
N1337 N 0.74442 0.14798 0.89558 0.0
C1338 C 0.70214 0.14316 0.8882 0.0
C1339 C 0.72169 0.15813 0.89289 0.0
C1340 C 0.70626 0.11772 0.88607 0.0
C1341 C 0.72996 0.10783 0.88848 0.0
H1342 H 0.76711 0.11577 0.8954 0.0
H1343 H 0.71848 0.17766 0.89449 0.0
C1344 C 0.77174 0.20056 0.94952 0.0
N1345 N 0.78472 0.18055 0.94475 0.0
C1346 C 0.76414 0.20171 0.96349 0.0
C1347 C 0.78432 0.16213 0.96755 0.0
C1348 C 0.79146 0.1617 0.95348 0.0
C1349 C 0.77015 0.18213 0.97259 0.0
H1350 H 0.76666 0.21529 0.94235 0.0
H1351 H 0.80174 0.14598 0.94944 0.0
C1352 C 0.78804 0.16813 0.87763 0.0
N1353 N 0.76476 0.15285 0.85332 0.0
C1354 C 0.79289 0.14454 0.87212 0.0
C1355 C 0.77163 0.18409 0.87069 0.0
C1356 C 0.78086 0.13713 0.85983 0.0
C1357 C 0.75996 0.17598 0.85844 0.0
C1358 C 0.84046 0.18974 0.92742 0.0
C1359 C 0.85397 0.2105 0.93185 0.0
C1360 C 0.84553 0.16639 0.93322 0.0
C1361 C 0.8724 0.20756 0.94204 0.0
C1362 C 0.86409 0.16422 0.94339 0.0
N1363 N 0.87703 0.18468 0.94755 0.0
C1364 C 0.79574 0.25666 0.90139 0.0
C1365 C 0.81835 0.23521 0.88377 0.0
C1366 C 0.8028 0.2796 0.89571 0.0
N1367 N 0.80369 0.23513 0.89537 0.0
C1368 C 0.82599 0.25765 0.87783 0.0
C1369 C 0.81841 0.28013 0.88392 0.0
H1370 H 0.78429 0.25598 0.9107 0.0
H1371 H 0.82455 0.21778 0.87932 0.0
C1372 C 0.84349 0.11787 0.89846 0.0
N1373 N 0.84535 0.14268 0.90106 0.0
C1374 C 0.86395 0.10473 0.89325 0.0
C1375 C 0.88793 0.14281 0.89388 0.0
C1376 C 0.86699 0.15524 0.89897 0.0
C1377 C 0.88639 0.11735 0.8908 0.0
H1378 H 0.82591 0.10848 0.90006 0.0
H1379 H 0.86778 0.17504 0.90094 0.0
O1380 O 0.76617 0.19747 0.91386 0.0
O1381 O 0.79064 0.14427 0.91694 0.0
O1382 O 0.79897 0.17542 0.88989 0.0
O1383 O 0.82229 0.19237 0.91751 0.0
H1384 H 0.72794 0.19135 0.93112 0.0
H1385 H 0.75227 0.22743 0.89323 0.0
H1386 H 0.68636 0.21041 0.92791 0.0
H1387 H 0.71032 0.24604 0.89078 0.0
H1388 H 0.77897 0.07134 0.94004 0.0
H1389 H 0.74437 0.15228 0.92539 0.0
H1390 H 0.80501 0.10009 0.92588 0.0
H1391 H 0.71937 0.12276 0.93959 0.0
H1392 H 0.68398 0.15126 0.88634 0.0
H1393 H 0.73364 0.08822 0.88688 0.0
H1394 H 0.75324 0.2174 0.96711 0.0
H1395 H 0.78926 0.14678 0.97436 0.0
H1396 H 0.80555 0.13198 0.87737 0.0
H1397 H 0.76785 0.20247 0.87476 0.0
H1398 H 0.78427 0.11884 0.85551 0.0
H1399 H 0.74709 0.18807 0.853 0.0
H1400 H 0.85022 0.2287 0.92746 0.0
H1401 H 0.83523 0.15012 0.92994 0.0
H1402 H 0.88301 0.22347 0.94558 0.0
H1403 H 0.8682 0.14628 0.94797 0.0
H1404 H 0.79672 0.29671 0.90063 0.0
H1405 H 0.83809 0.25751 0.86876 0.0
H1406 H 0.86221 0.0851 0.89088 0.0
H1407 H 0.90499 0.15304 0.89203 0.0
Li1408 Li 0.92696 0.53939 0.67308 0.0
Li1409 Li 0.95184 0.54765 0.65196 0.0
Li1410 Li 0.90869 0.56619 0.65537 0.0
Li1411 Li 0.91463 0.52202 0.65151 0.0
C1412 C 0.94609 0.5825 0.67862 0.0
N1413 N 0.9587 0.60116 0.70461 0.0
C1414 C 0.97071 0.58126 0.68327 0.0
C1415 C 0.9279 0.59335 0.68711 0.0
C1416 C 0.97671 0.5908 0.69646 0.0
C1417 C 0.93465 0.60264 0.70024 0.0
C1418 C 0.94778 0.49039 0.66151 0.0
C1419 C 0.95901 0.45211 0.64993 0.0
N1420 N 0.94918 0.439 0.66079 0.0
C1421 C 0.93796 0.47654 0.67261 0.0
C1422 C 0.95858 0.4781 0.65013 0.0
C1423 C 0.93879 0.45058 0.67203 0.0
C1424 C 0.90871 0.53407 0.70071 0.0
N1425 N 0.92955 0.53316 0.69266 0.0
C1426 C 0.95374 0.51897 0.7121 0.0
C1427 C 0.95188 0.52604 0.69805 0.0
C1428 C 0.93237 0.51909 0.7205 0.0
C1429 C 0.9097 0.527 0.71478 0.0
H1430 H 0.89123 0.53975 0.69611 0.0
H1431 H 0.96807 0.52525 0.69133 0.0
C1432 C 0.98506 0.57713 0.63726 0.0
N1433 N 0.98348 0.55535 0.64444 0.0
C1434 C 0.0077 0.58469 0.63154 0.0
C1435 C 0.02665 0.54714 0.6406 0.0
C1436 C 0.00357 0.54028 0.64619 0.0
C1437 C 0.02876 0.56964 0.63325 0.0
H1438 H 0.96869 0.58866 0.63608 0.0
H1439 H 0.00168 0.52307 0.65197 0.0
C1440 C 0.86829 0.53695 0.66157 0.0
N1441 N 0.81921 0.53285 0.65319 0.0
C1442 C 0.86173 0.54104 0.64759 0.0
C1443 C 0.84986 0.53067 0.67128 0.0
C1444 C 0.83684 0.53892 0.64356 0.0
C1445 C 0.82516 0.52871 0.66685 0.0
C1446 C 0.92621 0.54464 0.6248 0.0
C1447 C 0.90895 0.55384 0.61515 0.0
C1448 C 0.94647 0.53065 0.62007 0.0
C1449 C 0.91212 0.54866 0.60092 0.0
C1450 C 0.94901 0.52591 0.60576 0.0
N1451 N 0.93192 0.53492 0.59656 0.0
C1452 C 0.89762 0.6075 0.6392 0.0
C1453 C 0.86926 0.60225 0.65802 0.0
C1454 C 0.88466 0.62835 0.63449 0.0
N1455 N 0.8897 0.59486 0.6507 0.0
C1456 C 0.85574 0.62315 0.65369 0.0
C1457 C 0.86346 0.63631 0.64176 0.0
H1458 H 0.91403 0.60127 0.63365 0.0
H1459 H 0.86343 0.59187 0.66716 0.0
C1460 C 0.88607 0.47932 0.6537 0.0
N1461 N 0.89816 0.49331 0.64395 0.0
C1462 C 0.87072 0.45974 0.6496 0.0
C1463 C 0.88064 0.46897 0.62545 0.0
C1464 C 0.89607 0.48823 0.63003 0.0
C1465 C 0.86752 0.45484 0.63533 0.0
H1466 H 0.88759 0.48404 0.66468 0.0
H1467 H 0.9055 0.49954 0.6224 0.0
O1468 O 0.93968 0.57252 0.66597 0.0
O1469 O 0.94679 0.51582 0.66178 0.0
O1470 O 0.89265 0.53826 0.66574 0.0
O1471 O 0.92351 0.54975 0.63876 0.0
H1472 H 0.98495 0.57279 0.67682 0.0
H1473 H 0.90874 0.59428 0.68365 0.0
H1474 H 0.99565 0.58986 0.70025 0.0
H1475 H 0.92075 0.61094 0.70697 0.0
H1476 H 0.96719 0.44236 0.64115 0.0
H1477 H 0.92943 0.48568 0.68148 0.0
H1478 H 0.96649 0.48848 0.64152 0.0
H1479 H 0.93109 0.43964 0.6805 0.0
H1480 H 0.97147 0.51288 0.71627 0.0
H1481 H 0.89292 0.52727 0.72107 0.0
H1482 H 0.00886 0.60219 0.62594 0.0
H1483 H 0.0427 0.53524 0.64211 0.0
H1484 H 0.87566 0.54566 0.63989 0.0
H1485 H 0.8546 0.52717 0.68212 0.0
H1486 H 0.83154 0.54201 0.63277 0.0
H1487 H 0.81072 0.52384 0.67425 0.0
H1488 H 0.89323 0.56484 0.61859 0.0
H1489 H 0.96003 0.52345 0.62736 0.0
H1490 H 0.89886 0.55559 0.59334 0.0
H1491 H 0.96457 0.51506 0.60197 0.0
H1492 H 0.89113 0.63825 0.6253 0.0
H1493 H 0.83951 0.62901 0.65955 0.0
H1494 H 0.86059 0.44924 0.65743 0.0
H1495 H 0.87834 0.46561 0.61434 0.0
Li1496 Li 0.70367 0.69967 0.9021 0.0
Li1497 Li 0.71133 0.67814 0.9234 0.0
Li1498 Li 0.72975 0.66357 0.902 0.0
Li1499 Li 0.68397 0.65759 0.90643 0.0
C1500 C 0.74519 0.71882 0.9097 0.0
N1501 N 0.76193 0.76686 0.90544 0.0
C1502 C 0.74323 0.73651 0.92039 0.0
C1503 C 0.75575 0.72557 0.89687 0.0
C1504 C 0.75182 0.76069 0.91803 0.0
C1505 C 0.76404 0.74995 0.89491 0.0
C1506 C 0.66547 0.69573 0.92814 0.0
C1507 C 0.63251 0.68746 0.94464 0.0
N1508 N 0.63937 0.70789 0.95211 0.0
C1509 C 0.67211 0.71671 0.93593 0.0
C1510 C 0.64547 0.681 0.93248 0.0
C1511 C 0.65872 0.72251 0.94805 0.0
C1512 C 0.69238 0.73092 0.87911 0.0
N1513 N 0.69604 0.73076 0.89322 0.0
C1514 C 0.68441 0.77363 0.89475 0.0
C1515 C 0.69228 0.75156 0.90107 0.0
C1516 C 0.67998 0.77406 0.88029 0.0
C1517 C 0.68425 0.75253 0.87238 0.0
H1518 H 0.69498 0.71405 0.87314 0.0
H1519 H 0.69479 0.7509 0.91227 0.0
C1520 C 0.74212 0.68757 0.94655 0.0
N1521 N 0.7187 0.6801 0.94313 0.0
C1522 C 0.74982 0.68794 0.9605 0.0
C1523 C 0.70939 0.67231 0.96726 0.0
C1524 C 0.70245 0.67228 0.95315 0.0
C1525 C 0.73334 0.6802 0.97099 0.0
H1526 H 0.75506 0.69272 0.93839 0.0
H1527 H 0.68434 0.66537 0.9502 0.0
C1528 C 0.70922 0.65918 0.87732 0.0
N1529 N 0.72692 0.63509 0.85376 0.0
C1530 C 0.69976 0.63589 0.87357 0.0
C1531 C 0.7275 0.67033 0.869 0.0
C1532 C 0.70897 0.624 0.86163 0.0
C1533 C 0.73628 0.65781 0.85716 0.0
C1534 C 0.71961 0.62982 0.92764 0.0
C1535 C 0.74484 0.62792 0.93103 0.0
C1536 C 0.70181 0.61851 0.9362 0.0
C1537 C 0.75184 0.61479 0.94302 0.0
C1538 C 0.70958 0.60556 0.94811 0.0
N1539 N 0.73422 0.60398 0.95125 0.0
C1540 C 0.7803 0.65749 0.89321 0.0
C1541 C 0.75427 0.62194 0.89155 0.0
C1542 C 0.80076 0.64369 0.88858 0.0
N1543 N 0.75766 0.64643 0.89455 0.0
C1544 C 0.77413 0.60751 0.88686 0.0
C1545 C 0.79765 0.61841 0.8854 0.0
H1546 H 0.78259 0.67683 0.896 0.0
H1547 H 0.73616 0.61356 0.89303 0.0
C1548 C 0.63628 0.64898 0.89623 0.0
N1549 N 0.65587 0.63749 0.90249 0.0
C1550 C 0.61585 0.63514 0.89172 0.0
C1551 C 0.63594 0.59789 0.90038 0.0
C1552 C 0.65609 0.61248 0.9047 0.0
C1553 C 0.61573 0.60931 0.89368 0.0
H1554 H 0.63685 0.66886 0.89446 0.0
H1555 H 0.67218 0.6038 0.90943 0.0
O1556 O 0.73657 0.69513 0.91173 0.0
O1557 O 0.67826 0.68974 0.91623 0.0
O1558 O 0.70093 0.67083 0.88918 0.0
O1559 O 0.71236 0.64299 0.91609 0.0
H1560 H 0.73484 0.73178 0.93033 0.0
H1561 H 0.75733 0.71219 0.88847 0.0
H1562 H 0.7503 0.77458 0.92618 0.0
H1563 H 0.77212 0.75544 0.885 0.0
H1564 H 0.61704 0.6762 0.94815 0.0
H1565 H 0.68768 0.72815 0.93281 0.0
H1566 H 0.64008 0.66469 0.92657 0.0
H1567 H 0.66378 0.73858 0.95425 0.0
H1568 H 0.681 0.78996 0.90112 0.0
H1569 H 0.68074 0.75231 0.86121 0.0
H1570 H 0.76855 0.69381 0.96308 0.0
H1571 H 0.69641 0.66587 0.97515 0.0
H1572 H 0.68564 0.62695 0.87986 0.0
H1573 H 0.73499 0.68835 0.87172 0.0
H1574 H 0.70191 0.60591 0.85865 0.0
H1575 H 0.75056 0.66614 0.8507 0.0
H1576 H 0.75882 0.63671 0.92454 0.0
H1577 H 0.68219 0.62005 0.93378 0.0
H1578 H 0.77128 0.61326 0.94583 0.0
H1579 H 0.69601 0.59684 0.95489 0.0
H1580 H 0.81883 0.65246 0.88766 0.0
H1581 H 0.7713 0.58797 0.88459 0.0
H1582 H 0.6005 0.64438 0.88651 0.0
H1583 H 0.63636 0.57793 0.90192 0.0
Li1584 Li 0.57365 0.46127 0.17508 0.0
Li1585 Li 0.5509 0.45296 0.15333 0.0
Li1586 Li 0.59267 0.43621 0.15697 0.0
Li1587 Li 0.58582 0.4809 0.15309 0.0
C1588 C 0.5523 0.41824 0.17932 0.0
N1589 N 0.53217 0.39901 0.20364 0.0
C1590 C 0.52659 0.41895 0.18149 0.0
C1591 C 0.56777 0.40764 0.18946 0.0
C1592 C 0.51678 0.40912 0.19386 0.0
C1593 C 0.55723 0.39808 0.20171 0.0
C1594 C 0.5506 0.50984 0.16322 0.0
C1595 C 0.54127 0.5476 0.15062 0.0
N1596 N 0.54578 0.561 0.16244 0.0
C1597 C 0.55505 0.52397 0.17526 0.0
C1598 C 0.54353 0.52171 0.15082 0.0
C1599 C 0.55253 0.54982 0.17464 0.0
C1600 C 0.59205 0.47164 0.20212 0.0
N1601 N 0.57087 0.46748 0.19468 0.0
C1602 C 0.54583 0.47713 0.21467 0.0
C1603 C 0.548 0.47004 0.20064 0.0
C1604 C 0.5674 0.48197 0.22245 0.0
C1605 C 0.59073 0.47895 0.21613 0.0
H1606 H 0.60995 0.47 0.19705 0.0
H1607 H 0.53147 0.4673 0.19437 0.0
C1608 C 0.5158 0.4196 0.14312 0.0
N1609 N 0.51965 0.4443 0.14531 0.0
C1610 C 0.49369 0.41132 0.13709 0.0
C1611 C 0.47975 0.45406 0.13568 0.0
C1612 C 0.50221 0.46155 0.14178 0.0
C1613 C 0.47545 0.42867 0.13331 0.0
H1614 H 0.53003 0.40634 0.14605 0.0
H1615 H 0.50574 0.48105 0.14367 0.0
C1616 C 0.63176 0.45812 0.16786 0.0
N1617 N 0.68101 0.44338 0.16832 0.0
C1618 C 0.649 0.46923 0.15884 0.0
C1619 C 0.6396 0.43963 0.17716 0.0
C1620 C 0.67381 0.46151 0.15924 0.0
C1621 C 0.66456 0.43238 0.1772 0.0
C1622 C 0.56836 0.44591 0.12806 0.0
C1623 C 0.56915 0.42091 0.12405 0.0
C1624 C 0.5551 0.46301 0.11994 0.0
C1625 C 0.55643 0.41339 0.11201 0.0
C1626 C 0.54258 0.45474 0.108 0.0
N1627 N 0.54349 0.43031 0.10431 0.0
C1628 C 0.60746 0.38565 0.15699 0.0
C1629 C 0.63214 0.4123 0.14285 0.0
C1630 C 0.62029 0.36482 0.15204 0.0
N1631 N 0.61341 0.40874 0.15224 0.0
C1632 C 0.64564 0.39202 0.13775 0.0
C1633 C 0.63935 0.36797 0.14218 0.0
H1634 H 0.5921 0.38331 0.16418 0.0
H1635 H 0.63596 0.43079 0.13894 0.0
C1636 C 0.60918 0.52737 0.15478 0.0
N1637 N 0.60101 0.50984 0.14559 0.0
C1638 C 0.62373 0.54718 0.1501 0.0
C1639 C 0.62117 0.53053 0.12659 0.0
C1640 C 0.60636 0.51119 0.13169 0.0
C1641 C 0.63032 0.54845 0.13593 0.0
H1642 H 0.60537 0.52531 0.16584 0.0
H1643 H 0.60016 0.49664 0.12471 0.0
O1644 O 0.56232 0.42814 0.16739 0.0
O1645 O 0.55324 0.48453 0.16356 0.0
O1646 O 0.60731 0.46517 0.16752 0.0
O1647 O 0.58009 0.45352 0.14003 0.0
H1648 H 0.51437 0.42724 0.17379 0.0
H1649 H 0.5877 0.407 0.18794 0.0
H1650 H 0.49692 0.40962 0.19572 0.0
H1651 H 0.56899 0.38995 0.20969 0.0
H1652 H 0.53599 0.55705 0.14107 0.0
H1653 H 0.56061 0.51515 0.18494 0.0
H1654 H 0.54014 0.51107 0.14139 0.0
H1655 H 0.55603 0.561 0.18386 0.0
H1656 H 0.52758 0.47951 0.2193 0.0
H1657 H 0.60767 0.4827 0.2219 0.0
H1658 H 0.49079 0.3916 0.13539 0.0
H1659 H 0.46589 0.46782 0.13289 0.0
H1660 H 0.6433 0.48349 0.15154 0.0
H1661 H 0.62648 0.43083 0.18419 0.0
H1662 H 0.68733 0.46989 0.15229 0.0
H1663 H 0.67085 0.41799 0.18429 0.0
H1664 H 0.5792 0.40738 0.13025 0.0
H1665 H 0.55426 0.48241 0.12293 0.0
H1666 H 0.55677 0.39408 0.10881 0.0
H1667 H 0.53207 0.46773 0.10168 0.0
H1668 H 0.61495 0.3464 0.15553 0.0
H1669 H 0.66012 0.39493 0.13003 0.0
H1670 H 0.63086 0.56061 0.15755 0.0
H1671 H 0.62626 0.53098 0.11561 0.0
Li1672 Li 0.78759 0.3227 0.42407 0.0
Li1673 Li 0.79626 0.29851 0.403 0.0
Li1674 Li 0.81305 0.34041 0.40539 0.0
Li1675 Li 0.76899 0.33499 0.40077 0.0
C1676 C 0.82825 0.29172 0.42584 0.0
N1677 N 0.84326 0.25302 0.44295 0.0
C1678 C 0.81164 0.2727 0.42931 0.0
C1679 C 0.8525 0.29108 0.43111 0.0
C1680 C 0.81956 0.25329 0.43795 0.0
C1681 C 0.85974 0.27136 0.43974 0.0
C1682 C 0.74569 0.28645 0.41017 0.0
C1683 C 0.71499 0.26616 0.39569 0.0
N1684 N 0.70977 0.25026 0.40638 0.0
C1685 C 0.73978 0.27009 0.42107 0.0
C1686 C 0.73299 0.28464 0.39743 0.0
C1687 C 0.72166 0.25186 0.41892 0.0
C1688 C 0.75575 0.31948 0.44695 0.0
N1689 N 0.78019 0.32166 0.44349 0.0
C1690 C 0.79173 0.32324 0.46765 0.0
C1691 C 0.79818 0.32352 0.45346 0.0
C1692 C 0.76662 0.32093 0.47148 0.0
C1693 C 0.74851 0.31893 0.46098 0.0
H1694 H 0.74186 0.31832 0.43878 0.0
H1695 H 0.81745 0.32541 0.45039 0.0
C1696 C 0.82757 0.26622 0.38923 0.0
N1697 N 0.80508 0.26654 0.39576 0.0
C1698 C 0.83688 0.24417 0.3836 0.0
C1699 C 0.79964 0.22305 0.3914 0.0
C1700 C 0.79107 0.24554 0.39696 0.0
C1701 C 0.82282 0.22233 0.38469 0.0
H1702 H 0.83831 0.28319 0.38849 0.0
H1703 H 0.7734 0.24607 0.40229 0.0
C1704 C 0.79376 0.37896 0.41868 0.0
N1705 N 0.81342 0.42511 0.4249 0.0
C1706 C 0.78506 0.40012 0.41173 0.0
C1707 C 0.81231 0.38124 0.42886 0.0
C1708 C 0.79526 0.4233 0.41502 0.0
C1709 C 0.82206 0.40475 0.43182 0.0
C1710 C 0.79167 0.32285 0.37498 0.0
C1711 C 0.79899 0.3411 0.36539 0.0
C1712 C 0.77895 0.30181 0.37023 0.0
C1713 C 0.79293 0.33825 0.35125 0.0
C1714 C 0.77328 0.29961 0.356 0.0
N1715 N 0.78029 0.31774 0.34689 0.0
C1716 C 0.86378 0.35435 0.4046 0.0
C1717 C 0.83658 0.38115 0.39212 0.0
C1718 C 0.88444 0.36762 0.39981 0.0
N1719 N 0.84048 0.36113 0.40057 0.0
C1720 C 0.8567 0.395 0.38713 0.0
C1721 C 0.88093 0.38795 0.39083 0.0
H1722 H 0.86634 0.33816 0.41114 0.0
H1723 H 0.81787 0.38588 0.38892 0.0
C1724 C 0.71803 0.34689 0.39839 0.0
N1725 N 0.74088 0.3506 0.39261 0.0
C1726 C 0.69766 0.3609 0.39388 0.0
C1727 C 0.72472 0.38217 0.37754 0.0
C1728 C 0.74454 0.36773 0.38233 0.0
C1729 C 0.70111 0.37899 0.3835 0.0
H1730 H 0.71585 0.33378 0.40689 0.0
H1731 H 0.76305 0.37102 0.37835 0.0
O1732 O 0.82086 0.31103 0.41745 0.0
O1733 O 0.76332 0.3045 0.41212 0.0
O1734 O 0.7844 0.35605 0.41542 0.0
O1735 O 0.79769 0.32532 0.38885 0.0
H1736 H 0.79286 0.27288 0.42536 0.0
H1737 H 0.8656 0.3057 0.42862 0.0
H1738 H 0.80687 0.23844 0.44068 0.0
H1739 H 0.87845 0.27065 0.44389 0.0
H1740 H 0.70509 0.26453 0.38587 0.0
H1741 H 0.74912 0.2714 0.43108 0.0
H1742 H 0.73677 0.29754 0.38901 0.0
H1743 H 0.71702 0.23899 0.42724 0.0
H1744 H 0.80609 0.32491 0.47556 0.0
H1745 H 0.72899 0.31722 0.46363 0.0
H1746 H 0.85487 0.24409 0.37848 0.0
H1747 H 0.78848 0.20637 0.39242 0.0
H1748 H 0.77069 0.39863 0.40384 0.0
H1749 H 0.81931 0.36498 0.43426 0.0
H1750 H 0.78879 0.43985 0.40969 0.0
H1751 H 0.83655 0.4068 0.43961 0.0
H1752 H 0.80913 0.35736 0.36883 0.0
H1753 H 0.77366 0.28719 0.37739 0.0
H1754 H 0.79833 0.35232 0.34373 0.0
H1755 H 0.76338 0.28344 0.35221 0.0
H1756 H 0.90299 0.36168 0.40274 0.0
H1757 H 0.8535 0.41051 0.38011 0.0
H1758 H 0.67967 0.35838 0.3988 0.0
H1759 H 0.72794 0.39634 0.36967 0.0
Li1760 Li 0.91396 0.48018 0.84716 0.0
Li1761 Li 0.90795 0.43675 0.84416 0.0
Li1762 Li 0.95114 0.45552 0.84781 0.0
Li1763 Li 0.92654 0.46323 0.82558 0.0
C1764 C 0.91661 0.46492 0.87296 0.0
N1765 N 0.90417 0.48977 0.89728 0.0
C1766 C 0.89216 0.46427 0.87793 0.0
C1767 C 0.9348 0.47797 0.8804 0.0
C1768 C 0.88622 0.47705 0.89023 0.0
C1769 C 0.92812 0.49044 0.89268 0.0
C1770 C 0.87611 0.45282 0.8238 0.0
C1771 C 0.86743 0.42093 0.80668 0.0
N1772 N 0.8444 0.43077 0.80465 0.0
C1773 C 0.85236 0.46264 0.8215 0.0
C1774 C 0.8837 0.43181 0.8163 0.0
C1775 C 0.83661 0.45123 0.81179 0.0
C1776 C 0.90954 0.52679 0.86258 0.0
N1777 N 0.89765 0.50839 0.85539 0.0
C1778 C 0.85835 0.52808 0.8591 0.0
C1779 C 0.87253 0.5086 0.85375 0.0
C1780 C 0.87017 0.54748 0.86624 0.0
C1781 C 0.89605 0.54681 0.86804 0.0
H1782 H 0.92942 0.52588 0.86414 0.0
H1783 H 0.86346 0.49344 0.84839 0.0
C1784 C 0.90083 0.38652 0.85095 0.0
N1785 N 0.88875 0.40847 0.849 0.0
C1786 C 0.88802 0.36586 0.85609 0.0
C1787 C 0.85052 0.39075 0.85704 0.0
C1788 C 0.86405 0.41093 0.85181 0.0
C1789 C 0.86267 0.36802 0.85935 0.0
H1790 H 0.9206 0.38533 0.84895 0.0
H1791 H 0.85508 0.42878 0.85041 0.0
C1792 C 0.94799 0.51196 0.83668 0.0
N1793 N 0.95149 0.56322 0.83572 0.0
C1794 C 0.93088 0.52578 0.82887 0.0
C1795 C 0.96695 0.52419 0.84396 0.0
C1796 C 0.93292 0.55168 0.82855 0.0
C1797 C 0.9684 0.55012 0.84334 0.0
C1798 C 0.9548 0.41626 0.82575 0.0
C1799 C 0.97939 0.42368 0.82346 0.0
C1800 C 0.94659 0.39339 0.82051 0.0
C1801 C 0.99532 0.4082 0.81586 0.0
C1802 C 0.96308 0.37845 0.81294 0.0
N1803 N 0.9869 0.38609 0.8108 0.0
C1804 C 0.982 0.42763 0.86481 0.0
C1805 C 0.0038 0.45993 0.85311 0.0
C1806 C 0.00399 0.41907 0.87089 0.0
N1807 N 0.98232 0.44758 0.85605 0.0
C1808 C 0.0263 0.45196 0.85898 0.0
C1809 C 0.02644 0.43116 0.86787 0.0
H1810 H 0.96463 0.41814 0.86687 0.0
H1811 H 0.00355 0.47552 0.84596 0.0
C1812 C 0.91002 0.48365 0.80007 0.0
N1813 N 0.92884 0.47007 0.80581 0.0
C1814 C 0.911 0.49101 0.78607 0.0
C1815 C 0.9508 0.47044 0.78397 0.0
C1816 C 0.94906 0.46348 0.79806 0.0
C1817 C 0.93162 0.48447 0.77792 0.0
H1818 H 0.89444 0.48934 0.80646 0.0
H1819 H 0.96412 0.45334 0.80283 0.0
O1820 O 0.92264 0.45323 0.86071 0.0
O1821 O 0.89167 0.4639 0.83332 0.0
O1822 O 0.94624 0.4866 0.83718 0.0
O1823 O 0.93909 0.43083 0.8335 0.0
H1824 H 0.87788 0.45431 0.87223 0.0
H1825 H 0.95379 0.4787 0.87663 0.0
H1826 H 0.86733 0.47693 0.89414 0.0
H1827 H 0.94195 0.50076 0.89851 0.0
H1828 H 0.87312 0.40467 0.80082 0.0
H1829 H 0.84613 0.47899 0.8271 0.0
H1830 H 0.90196 0.42401 0.81779 0.0
H1831 H 0.81819 0.45865 0.80993 0.0
H1832 H 0.83835 0.52804 0.85768 0.0
H1833 H 0.90559 0.5615 0.87365 0.0
H1834 H 0.8979 0.34859 0.85789 0.0
H1835 H 0.83101 0.39297 0.85959 0.0
H1836 H 0.91592 0.51664 0.82333 0.0
H1837 H 0.98025 0.51379 0.85014 0.0
H1838 H 0.91968 0.56262 0.82263 0.0
H1839 H 0.98293 0.55985 0.84896 0.0
H1840 H 0.98598 0.44141 0.82729 0.0
H1841 H 0.92769 0.3872 0.82229 0.0
H1842 H 0.01436 0.41379 0.81396 0.0
H1843 H 0.95695 0.36074 0.80881 0.0
H1844 H 0.00358 0.40293 0.87768 0.0
H1845 H 0.04343 0.46156 0.85644 0.0
H1846 H 0.896 0.502 0.78168 0.0
H1847 H 0.96706 0.46531 0.77792 0.0
Li1848 Li 0.81537 0.65721 0.0944 0.0
Li1849 Li 0.77161 0.66306 0.09827 0.0
Li1850 Li 0.78849 0.67566 0.07619 0.0
Li1851 Li 0.79679 0.70044 0.0983 0.0
C1852 C 0.79661 0.62082 0.0779 0.0
N1853 N 0.81554 0.57836 0.06556 0.0
C1854 C 0.79078 0.5974 0.08336 0.0
C1855 C 0.81197 0.62265 0.06614 0.0
C1856 C 0.80058 0.57615 0.07698 0.0
C1857 C 0.82137 0.60097 0.06005 0.0
C1858 C 0.79211 0.66596 0.12447 0.0
C1859 C 0.77895 0.67847 0.14756 0.0
N1860 N 0.77757 0.65414 0.1514 0.0
C1861 C 0.79072 0.64108 0.12866 0.0
C1862 C 0.78628 0.68484 0.13398 0.0
C1863 C 0.78325 0.63549 0.14231 0.0
C1864 C 0.86676 0.64912 0.0974 0.0
N1865 N 0.84414 0.63803 0.09875 0.0
C1866 C 0.86273 0.60228 0.10938 0.0
C1867 C 0.84178 0.61496 0.10447 0.0
C1868 C 0.88617 0.61356 0.10839 0.0
C1869 C 0.8882 0.63707 0.10213 0.0
H1870 H 0.86805 0.6677 0.09313 0.0
H1871 H 0.82358 0.60676 0.10568 0.0
C1872 C 0.73316 0.62864 0.09773 0.0
N1873 N 0.74281 0.64694 0.10593 0.0
C1874 C 0.71335 0.61422 0.1025 0.0
C1875 C 0.71297 0.63835 0.12388 0.0
C1876 C 0.73262 0.65256 0.11861 0.0
C1877 C 0.70351 0.61871 0.11583 0.0
H1878 H 0.74113 0.62498 0.08755 0.0
H1879 H 0.73993 0.66774 0.12474 0.0
C1880 C 0.83511 0.69975 0.07373 0.0
N1881 N 0.86386 0.72287 0.05358 0.0
C1882 C 0.83428 0.72561 0.07219 0.0
C1883 C 0.85079 0.68569 0.06515 0.0
C1884 C 0.84891 0.73694 0.06191 0.0
C1885 C 0.8651 0.69771 0.05498 0.0
C1886 C 0.74048 0.69733 0.09114 0.0
C1887 C 0.72279 0.68677 0.08222 0.0
C1888 C 0.73282 0.70922 0.10342 0.0
C1889 C 0.69762 0.68812 0.0858 0.0
C1890 C 0.70746 0.71023 0.10662 0.0
N1891 N 0.69055 0.69972 0.09783 0.0
C1892 C 0.76611 0.65895 0.0516 0.0
C1893 C 0.78848 0.69651 0.0483 0.0
C1894 C 0.75849 0.65906 0.03763 0.0
N1895 N 0.78095 0.6774 0.05664 0.0
C1896 C 0.7814 0.69729 0.03422 0.0
C1897 C 0.76616 0.67842 0.02881 0.0
H1898 H 0.7599 0.64427 0.05852 0.0
H1899 H 0.79959 0.71138 0.05259 0.0
C1900 C 0.82597 0.73305 0.11361 0.0
N1901 N 0.80448 0.73185 0.10613 0.0
C1902 C 0.83371 0.75555 0.11942 0.0
C1903 C 0.79696 0.77519 0.10979 0.0
C1904 C 0.78993 0.75225 0.10412 0.0
C1905 C 0.81915 0.77689 0.11748 0.0
H1906 H 0.83717 0.71648 0.11493 0.0
H1907 H 0.77307 0.75075 0.09799 0.0
O1908 O 0.78736 0.6418 0.08412 0.0
O1909 O 0.79941 0.67187 0.11117 0.0
O1910 O 0.82109 0.68838 0.08382 0.0
O1911 O 0.76523 0.69551 0.08805 0.0
H1912 H 0.77899 0.59567 0.0925 0.0
H1913 H 0.81654 0.64059 0.06174 0.0
H1914 H 0.79631 0.55791 0.08112 0.0
H1915 H 0.8333 0.60211 0.05094 0.0
H1916 H 0.7743 0.69288 0.15503 0.0
H1917 H 0.79496 0.62627 0.12138 0.0
H1918 H 0.78727 0.70419 0.13089 0.0
H1919 H 0.78189 0.61631 0.14568 0.0
H1920 H 0.86062 0.58422 0.11428 0.0
H1921 H 0.90606 0.6463 0.10134 0.0
H1922 H 0.7063 0.5992 0.09605 0.0
H1923 H 0.70555 0.64228 0.13419 0.0
H1924 H 0.82233 0.73679 0.07879 0.0
H1925 H 0.85204 0.66572 0.06638 0.0
H1926 H 0.84836 0.75691 0.06055 0.0
H1927 H 0.87726 0.68705 0.04823 0.0
H1928 H 0.72847 0.67739 0.07271 0.0
H1929 H 0.74633 0.71722 0.11052 0.0
H1930 H 0.68372 0.67989 0.07905 0.0
H1931 H 0.70125 0.71922 0.11614 0.0
H1932 H 0.74657 0.64433 0.03375 0.0
H1933 H 0.78744 0.71258 0.02765 0.0
H1934 H 0.85099 0.75641 0.12525 0.0
H1935 H 0.78548 0.79147 0.10807 0.0
Li1936 Li 0.59302 0.56465 0.34514 0.0
Li1937 Li 0.58672 0.52117 0.34844 0.0
Li1938 Li 0.57431 0.5399 0.32676 0.0
Li1939 Li 0.54969 0.54731 0.3489 0.0
C1940 C 0.63144 0.54693 0.3324 0.0
N1941 N 0.67806 0.56773 0.32887 0.0
C1942 C 0.65123 0.53955 0.34096 0.0
C1943 C 0.63542 0.56482 0.32202 0.0
C1944 C 0.67465 0.55028 0.33901 0.0
C1945 C 0.6591 0.57515 0.32041 0.0
C1946 C 0.5828 0.53866 0.37488 0.0
C1947 C 0.56767 0.52366 0.39713 0.0
N1948 N 0.59151 0.51941 0.40127 0.0
C1949 C 0.60715 0.53422 0.37939 0.0
C1950 C 0.56288 0.53338 0.38382 0.0
C1951 C 0.61117 0.52443 0.39276 0.0
C1952 C 0.60462 0.61606 0.34578 0.0
N1953 N 0.6126 0.59321 0.34995 0.0
C1954 C 0.64525 0.61155 0.3635 0.0
C1955 C 0.63259 0.59064 0.35858 0.0
C1956 C 0.63695 0.63527 0.35966 0.0
C1957 C 0.61661 0.63753 0.35055 0.0
H1958 H 0.5884 0.61766 0.33914 0.0
H1959 H 0.63835 0.57242 0.36199 0.0
C1960 C 0.62037 0.48188 0.34758 0.0
N1961 N 0.60141 0.49105 0.35548 0.0
C1962 C 0.63421 0.4616 0.35225 0.0
C1963 C 0.60754 0.45914 0.3726 0.0
C1964 C 0.59413 0.47949 0.3675 0.0
C1965 C 0.62821 0.45054 0.36507 0.0
H1966 H 0.62518 0.49073 0.33779 0.0
H1967 H 0.57834 0.48638 0.37331 0.0
C1968 C 0.55049 0.58259 0.32331 0.0
N1969 N 0.52758 0.60254 0.29996 0.0
C1970 C 0.52469 0.58089 0.32176 0.0
C1971 C 0.56462 0.59465 0.31306 0.0
C1972 C 0.51346 0.59106 0.30986 0.0
C1973 C 0.5527 0.60453 0.3013 0.0
C1974 C 0.55198 0.49123 0.33947 0.0
C1975 C 0.56316 0.47558 0.32962 0.0
C1976 C 0.53909 0.48101 0.35081 0.0
C1977 C 0.5614 0.44982 0.33135 0.0
C1978 C 0.53773 0.45516 0.35215 0.0
N1979 N 0.54884 0.44024 0.34249 0.0
C1980 C 0.59239 0.52788 0.29987 0.0
C1981 C 0.54846 0.53144 0.30118 0.0
C1982 C 0.59092 0.52034 0.28591 0.0
N1983 N 0.57135 0.53332 0.30718 0.0
C1984 C 0.54614 0.52409 0.28719 0.0
C1985 C 0.56758 0.51824 0.27951 0.0
H1986 H 0.61028 0.52862 0.305 0.0
H1987 H 0.53198 0.53497 0.30736 0.0
C1988 C 0.51756 0.57659 0.36444 0.0
N1989 N 0.51837 0.55518 0.35688 0.0
C1990 C 0.49521 0.58469 0.3703 0.0
C1991 C 0.47489 0.54842 0.36057 0.0
C1992 C 0.4977 0.54101 0.35486 0.0
C1993 C 0.47357 0.5706 0.3683 0.0
H1994 H 0.53432 0.58748 0.36578 0.0
H1995 H 0.49888 0.5242 0.34866 0.0
O1996 O 0.60827 0.53687 0.33425 0.0
O1997 O 0.57842 0.54835 0.36187 0.0
O1998 O 0.56188 0.57239 0.33476 0.0
O1999 O 0.55411 0.51645 0.33818 0.0
H2000 H 0.64849 0.52602 0.34921 0.0
H2001 H 0.62036 0.57073 0.31529 0.0
H2002 H 0.69008 0.54485 0.34562 0.0
H2003 H 0.6624 0.58908 0.31244 0.0
H2004 H 0.55243 0.51945 0.40414 0.0
H2005 H 0.62275 0.53767 0.37253 0.0
H2006 H 0.54391 0.53664 0.38051 0.0
H2007 H 0.6299 0.52066 0.39632 0.0
H2008 H 0.66079 0.60931 0.37062 0.0
H2009 H 0.60971 0.65568 0.34752 0.0
H2010 H 0.64995 0.45513 0.34616 0.0
H2011 H 0.60238 0.45071 0.38249 0.0
H2012 H 0.51346 0.57161 0.32957 0.0
H2013 H 0.58456 0.59633 0.31416 0.0
H2014 H 0.49352 0.58976 0.30848 0.0
H2015 H 0.56341 0.6138 0.29325 0.0
H2016 H 0.5733 0.48325 0.32083 0.0
H2017 H 0.53057 0.49292 0.35859 0.0
H2018 H 0.57008 0.43746 0.32386 0.0
H2019 H 0.52796 0.44697 0.36092 0.0
H2020 H 0.60775 0.51569 0.28024 0.0
H2021 H 0.52785 0.52236 0.28252 0.0
H2022 H 0.49471 0.6019 0.37619 0.0
H2023 H 0.45841 0.53723 0.35884 0.0
Li2024 Li 0.72729 0.33758 0.59912 0.0
Li2025 Li 0.68376 0.34231 0.59407 0.0
Li2026 Li 0.70204 0.30038 0.59862 0.0
Li2027 Li 0.71237 0.32431 0.57669 0.0
C2028 C 0.70053 0.33109 0.62537 0.0
N2029 N 0.70355 0.33527 0.65417 0.0
C2030 C 0.69184 0.35253 0.63207 0.0
C2031 C 0.71033 0.31159 0.63334 0.0
C2032 C 0.69367 0.35434 0.64663 0.0
C2033 C 0.7118 0.31411 0.64788 0.0
C2034 C 0.71241 0.38343 0.58605 0.0
C2035 C 0.71379 0.42489 0.57643 0.0
N2036 N 0.71317 0.43442 0.58962 0.0
C2037 C 0.71176 0.39363 0.5995 0.0
C2038 C 0.71346 0.39914 0.5744 0.0
C2039 C 0.71219 0.41945 0.6011 0.0
C2040 C 0.76954 0.36696 0.59785 0.0
N2041 N 0.7553 0.35428 0.60722 0.0
C2042 C 0.7796 0.3699 0.62626 0.0
C2043 C 0.76025 0.35507 0.6212 0.0
C2044 C 0.79394 0.38372 0.61679 0.0
C2045 C 0.78914 0.38185 0.60243 0.0
H2046 H 0.76522 0.36598 0.58679 0.0
H2047 H 0.74897 0.34471 0.62847 0.0
C2048 C 0.6401 0.35171 0.60822 0.0
N2049 N 0.65452 0.36105 0.59777 0.0
C2050 C 0.6191 0.36463 0.61274 0.0
C2051 C 0.6277 0.39632 0.5954 0.0
C2052 C 0.6486 0.38272 0.59117 0.0
C2053 C 0.61291 0.38729 0.60639 0.0
H2054 H 0.64526 0.33441 0.61323 0.0
H2055 H 0.66023 0.38963 0.5828 0.0
C2056 C 0.75933 0.3034 0.59289 0.0
N2057 N 0.80893 0.30176 0.60043 0.0
C2058 C 0.77765 0.31092 0.5834 0.0
C2059 C 0.76622 0.29475 0.60614 0.0
C2060 C 0.80263 0.31002 0.58743 0.0
C2061 C 0.7914 0.29415 0.60977 0.0
C2062 C 0.66114 0.31476 0.57303 0.0
C2063 C 0.64232 0.29714 0.57118 0.0
C2064 C 0.66141 0.33624 0.56477 0.0
C2065 C 0.62407 0.30126 0.56102 0.0
C2066 C 0.64282 0.33968 0.55472 0.0
N2067 N 0.6247 0.32227 0.55307 0.0
C2068 C 0.67144 0.26738 0.61278 0.0
C2069 C 0.70999 0.24943 0.60604 0.0
C2070 C 0.66378 0.24499 0.61877 0.0
N2071 N 0.69412 0.26913 0.60656 0.0
C2072 C 0.70307 0.22663 0.61194 0.0
C2073 C 0.67968 0.22435 0.61833 0.0
H2074 H 0.65928 0.28343 0.613 0.0
H2075 H 0.72789 0.2514 0.60099 0.0
C2076 C 0.73784 0.33912 0.55278 0.0
N2077 N 0.72077 0.32238 0.55742 0.0
C2078 C 0.74554 0.33886 0.53883 0.0
C2079 C 0.71767 0.3043 0.53462 0.0
C2080 C 0.71066 0.30508 0.54872 0.0
C2081 C 0.73537 0.32131 0.5296 0.0
H2082 H 0.7456 0.35258 0.55999 0.0
H2083 H 0.6972 0.29192 0.55273 0.0
O2084 O 0.69868 0.32887 0.61113 0.0
O2085 O 0.71208 0.3582 0.58419 0.0
O2086 O 0.73473 0.30498 0.58933 0.0
O2087 O 0.67903 0.31102 0.583 0.0
H2088 H 0.68365 0.36758 0.62613 0.0
H2089 H 0.71677 0.29471 0.62838 0.0
H2090 H 0.68713 0.37088 0.65195 0.0
H2091 H 0.71947 0.29923 0.65417 0.0
H2092 H 0.71456 0.43728 0.56751 0.0
H2093 H 0.71113 0.38173 0.6086 0.0
H2094 H 0.71393 0.39151 0.56391 0.0
H2095 H 0.71178 0.42759 0.61146 0.0
H2096 H 0.78298 0.37108 0.63742 0.0
H2097 H 0.79991 0.39242 0.59491 0.0
H2098 H 0.60799 0.35724 0.62125 0.0
H2099 H 0.62329 0.41379 0.59032 0.0
H2100 H 0.77262 0.31764 0.57311 0.0
H2101 H 0.75228 0.28884 0.61358 0.0
H2102 H 0.81701 0.31596 0.58024 0.0
H2103 H 0.79699 0.28769 0.62003 0.0
H2104 H 0.64184 0.28046 0.57753 0.0
H2105 H 0.67578 0.35013 0.56607 0.0
H2106 H 0.60939 0.28777 0.55945 0.0
H2107 H 0.64281 0.3562 0.54825 0.0
H2108 H 0.64558 0.24369 0.6236 0.0
H2109 H 0.71564 0.2109 0.61141 0.0
H2110 H 0.75923 0.3522 0.53524 0.0
H2111 H 0.7095 0.29057 0.5277 0.0
Li2112 Li 0.07082 0.46308 0.32708 0.0
Li2113 Li 0.08356 0.48216 0.34866 0.0
Li2114 Li 0.0872 0.43697 0.34517 0.0
Li2115 Li 0.04612 0.45557 0.34877 0.0
C2116 C 0.11837 0.47071 0.32385 0.0
N2117 N 0.14444 0.48507 0.30024 0.0
C2118 C 0.12535 0.49557 0.32205 0.0
C2119 C 0.1247 0.45316 0.31365 0.0
C2120 C 0.13853 0.50245 0.31004 0.0
C2121 C 0.13784 0.46079 0.30178 0.0
C2122 C 0.03713 0.50631 0.3436 0.0
C2123 C 0.01623 0.52645 0.36286 0.0
N2124 N 0.00723 0.54392 0.35388 0.0
C2125 C 0.02757 0.52437 0.33454 0.0
C2126 C 0.03136 0.50728 0.35785 0.0
C2127 C 0.01253 0.54328 0.33995 0.0
C2128 C 0.06571 0.45315 0.29749 0.0
N2129 N 0.06874 0.47072 0.3076 0.0
C2130 C 0.07082 0.50298 0.29041 0.0
C2131 C 0.07105 0.49525 0.30435 0.0
C2132 C 0.06797 0.48528 0.27977 0.0
C2133 C 0.06527 0.46011 0.28336 0.0
H2134 H 0.06383 0.4338 0.30037 0.0
H2135 H 0.07347 0.50877 0.31263 0.0
C2136 C 0.12469 0.50556 0.36008 0.0
N2137 N 0.10073 0.51025 0.35632 0.0
C2138 C 0.13994 0.52466 0.36492 0.0
C2139 C 0.10596 0.5535 0.3615 0.0
C2140 C 0.09122 0.53372 0.35686 0.0
C2141 C 0.13057 0.54891 0.36558 0.0
H2142 H 0.13224 0.48707 0.35887 0.0
H2143 H 0.07253 0.5374 0.35336 0.0
C2144 C 0.05681 0.40611 0.33323 0.0
N2145 N 0.05971 0.35478 0.33282 0.0
C2146 C 0.04223 0.39195 0.34237 0.0
C2147 C 0.07269 0.39415 0.32379 0.0
C2148 C 0.04399 0.36602 0.34202 0.0
C2149 C 0.07396 0.36818 0.32377 0.0
C2150 C 0.08629 0.45853 0.37432 0.0
C2151 C 0.1113 0.45186 0.37576 0.0
C2152 C 0.07367 0.46893 0.38571 0.0
C2153 C 0.12336 0.45599 0.38851 0.0
C2154 C 0.08638 0.47278 0.39829 0.0
N2155 N 0.11076 0.4663 0.39942 0.0
C2156 C 0.12656 0.40055 0.34359 0.0
C2157 C 0.09639 0.39504 0.36147 0.0
C2158 C 0.13932 0.37929 0.34805 0.0
N2159 N 0.10548 0.40789 0.35031 0.0
C2160 C 0.10866 0.3739 0.36635 0.0
C2161 C 0.13039 0.36591 0.35963 0.0
H2162 H 0.1335 0.41121 0.33483 0.0
H2163 H 0.07962 0.40138 0.36663 0.0
C2164 C 0.99327 0.45286 0.34922 0.0
N2165 N 0.01443 0.44913 0.35675 0.0
C2166 C 0.97029 0.44525 0.3546 0.0
C2167 C 0.99135 0.43079 0.37548 0.0
C2168 C 0.01387 0.43864 0.36971 0.0
C2169 C 0.96937 0.43372 0.36778 0.0
H2170 H 0.99438 0.46101 0.33888 0.0
H2171 H 0.03105 0.4355 0.37533 0.0
O2172 O 0.10509 0.46366 0.33543 0.0
O2173 O 0.05163 0.48755 0.33842 0.0
O2174 O 0.05596 0.43153 0.33374 0.0
O2175 O 0.07411 0.45468 0.36189 0.0
H2176 H 0.12042 0.50949 0.32973 0.0
H2177 H 0.1192 0.43392 0.31477 0.0
H2178 H 0.14396 0.52163 0.30849 0.0
H2179 H 0.14271 0.44744 0.29375 0.0
H2180 H 0.01166 0.52744 0.37388 0.0
H2181 H 0.03171 0.52378 0.32345 0.0
H2182 H 0.03855 0.49342 0.36496 0.0
H2183 H 0.00505 0.55742 0.33308 0.0
H2184 H 0.07297 0.52253 0.28792 0.0
H2185 H 0.06305 0.44607 0.27532 0.0
H2186 H 0.15905 0.5207 0.36777 0.0
H2187 H 0.09842 0.57219 0.36172 0.0
H2188 H 0.02985 0.40086 0.34976 0.0
H2189 H 0.08422 0.40481 0.31671 0.0
H2190 H 0.03292 0.35484 0.34909 0.0
H2191 H 0.08634 0.35869 0.31661 0.0
H2192 H 0.12149 0.44396 0.36707 0.0
H2193 H 0.05423 0.47392 0.38491 0.0
H2194 H 0.14276 0.45108 0.38972 0.0
H2195 H 0.07685 0.48088 0.40717 0.0
H2196 H 0.15604 0.37344 0.34264 0.0
H2197 H 0.10129 0.36385 0.37527 0.0
H2198 H 0.95357 0.44758 0.34841 0.0
H2199 H 0.99116 0.42176 0.38563 0.0
Li2200 Li 0.31804 0.3399 0.09411 0.0
Li2201 Li 0.29928 0.29881 0.09794 0.0
Li2202 Li 0.29132 0.32108 0.07561 0.0
Li2203 Li 0.27238 0.33496 0.09714 0.0
C2204 C 0.34179 0.31153 0.07319 0.0
N2205 N 0.37776 0.31736 0.05277 0.0
C2206 C 0.3564 0.29129 0.0691 0.0
C2207 C 0.34546 0.33474 0.0669 0.0
C2208 C 0.3745 0.29461 0.05875 0.0
C2209 C 0.36373 0.3373 0.0566 0.0
C2210 C 0.30021 0.32228 0.12433 0.0
C2211 C 0.27987 0.30996 0.14575 0.0
N2212 N 0.30216 0.3106 0.15249 0.0
C2213 C 0.32286 0.32319 0.13151 0.0
C2214 C 0.27848 0.31594 0.13153 0.0
C2215 C 0.32348 0.31707 0.14573 0.0
C2216 C 0.34339 0.38321 0.10317 0.0
N2217 N 0.34636 0.35917 0.09905 0.0
C2218 C 0.38974 0.36061 0.10451 0.0
C2219 C 0.36892 0.34774 0.09962 0.0
C2220 C 0.38711 0.38528 0.10899 0.0
C2221 C 0.36372 0.39676 0.10821 0.0
H2222 H 0.32511 0.39158 0.10296 0.0
H2223 H 0.37062 0.3284 0.09665 0.0
C2224 C 0.29288 0.24692 0.10414 0.0
N2225 N 0.3069 0.26763 0.10638 0.0
C2226 C 0.29993 0.22415 0.11002 0.0
C2227 C 0.33577 0.24444 0.12024 0.0
C2228 C 0.32812 0.26672 0.11412 0.0
C2229 C 0.32164 0.22288 0.11814 0.0
H2230 H 0.27653 0.24794 0.09757 0.0
H2231 H 0.33939 0.28323 0.11528 0.0
C2232 C 0.27423 0.37252 0.07781 0.0
N2233 N 0.24019 0.40671 0.0678 0.0
C2234 C 0.25312 0.36448 0.07056 0.0
C2235 C 0.27799 0.39794 0.08001 0.0
C2236 C 0.23614 0.38205 0.06557 0.0
C2237 C 0.26057 0.41494 0.07486 0.0
C2238 C 0.24443 0.293 0.08983 0.0
C2239 C 0.22681 0.29268 0.07905 0.0
C2240 C 0.23823 0.28333 0.10296 0.0
C2241 C 0.20313 0.28302 0.08168 0.0
C2242 C 0.21437 0.27382 0.10517 0.0
N2243 N 0.19745 0.27389 0.09457 0.0
C2244 C 0.27546 0.29648 0.05112 0.0
C2245 C 0.2906 0.33743 0.0474 0.0
C2246 C 0.26803 0.29476 0.03713 0.0
N2247 N 0.28602 0.31777 0.056 0.0
C2248 C 0.28348 0.33652 0.03335 0.0
C2249 C 0.27167 0.31515 0.0282 0.0
H2250 H 0.272 0.28119 0.05823 0.0
H2251 H 0.2989 0.35418 0.05158 0.0
C2252 C 0.24939 0.36866 0.11513 0.0
N2253 N 0.24441 0.35218 0.10469 0.0
C2254 C 0.23083 0.38461 0.12001 0.0
C2255 C 0.20222 0.36612 0.10346 0.0
C2256 C 0.22134 0.35054 0.09889 0.0
C2257 C 0.2071 0.38359 0.11398 0.0
H2258 H 0.26805 0.36999 0.11931 0.0
H2259 H 0.21798 0.33806 0.09027 0.0
O2260 O 0.32396 0.30847 0.08326 0.0
O2261 O 0.29925 0.32844 0.11044 0.0
O2262 O 0.29084 0.35557 0.08303 0.0
O2263 O 0.26773 0.30231 0.08742 0.0
H2264 H 0.35376 0.2732 0.07387 0.0
H2265 H 0.33436 0.35063 0.06995 0.0
H2266 H 0.38595 0.27911 0.05548 0.0
H2267 H 0.36677 0.35515 0.05165 0.0
H2268 H 0.2632 0.30493 0.15144 0.0
H2269 H 0.33979 0.32846 0.12613 0.0
H2270 H 0.26069 0.31593 0.12626 0.0
H2271 H 0.3409 0.3175 0.1514 0.0
H2272 H 0.40754 0.35124 0.10516 0.0
H2273 H 0.36117 0.41573 0.11175 0.0
H2274 H 0.28888 0.20765 0.10809 0.0
H2275 H 0.35281 0.24388 0.1263 0.0
H2276 H 0.24967 0.34487 0.06897 0.0
H2277 H 0.29418 0.40449 0.08565 0.0
H2278 H 0.21969 0.37607 0.05997 0.0
H2279 H 0.26323 0.43467 0.0765 0.0
H2280 H 0.23127 0.30007 0.06882 0.0
H2281 H 0.25179 0.28292 0.11131 0.0
H2282 H 0.18927 0.28282 0.07346 0.0
H2283 H 0.20933 0.26629 0.11529 0.0
H2284 H 0.25893 0.27805 0.0334 0.0
H2285 H 0.28647 0.35252 0.02667 0.0
H2286 H 0.2351 0.3981 0.12809 0.0
H2287 H 0.18409 0.36516 0.09853 0.0
Li2288 Li 0.41071 0.56545 0.84601 0.0
Li2289 Li 0.45108 0.54682 0.84888 0.0
Li2290 Li 0.42897 0.54085 0.82568 0.0
Li2291 Li 0.41555 0.52054 0.84719 0.0
C2292 C 0.43824 0.5965 0.83031 0.0
N2293 N 0.43133 0.64504 0.82151 0.0
C2294 C 0.43904 0.61606 0.83998 0.0
C2295 C 0.43405 0.6017 0.81615 0.0
C2296 C 0.43545 0.64044 0.83533 0.0
C2297 C 0.43059 0.62635 0.81192 0.0
C2298 C 0.43535 0.54714 0.87421 0.0
C2299 C 0.45599 0.52811 0.89393 0.0
N2300 N 0.46325 0.55099 0.89844 0.0
C2301 C 0.44287 0.57049 0.8791 0.0
C2302 C 0.44185 0.52578 0.88172 0.0
C2303 C 0.45702 0.57203 0.89135 0.0
C2304 C 0.38505 0.59561 0.86511 0.0
N2305 N 0.38961 0.59269 0.8512 0.0
C2306 C 0.3675 0.63021 0.84598 0.0
C2307 C 0.3803 0.60892 0.84158 0.0
C2308 C 0.36382 0.63427 0.86035 0.0
C2309 C 0.37214 0.61641 0.86995 0.0
H2310 H 0.39191 0.58206 0.87251 0.0
H2311 H 0.38369 0.60588 0.83055 0.0
C2312 C 0.49804 0.53446 0.86212 0.0
N2313 N 0.48327 0.55293 0.85699 0.0
C2314 C 0.52083 0.54022 0.86845 0.0
C2315 C 0.51278 0.58376 0.86404 0.0
C2316 C 0.49041 0.57717 0.85769 0.0
C2317 C 0.52817 0.56519 0.86954 0.0
H2318 H 0.49212 0.51532 0.8614 0.0
H2319 H 0.47856 0.59146 0.85347 0.0
C2320 C 0.37229 0.52971 0.83349 0.0
N2321 N 0.32544 0.50863 0.83308 0.0
C2322 C 0.36618 0.51209 0.82328 0.0
C2323 C 0.35466 0.53645 0.84356 0.0
C2324 C 0.34238 0.50165 0.82325 0.0
C2325 C 0.33107 0.52558 0.84317 0.0
C2326 C 0.45126 0.49102 0.83723 0.0
C2327 C 0.4494 0.47743 0.82478 0.0
C2328 C 0.45659 0.47864 0.84975 0.0
C2329 C 0.45278 0.45166 0.82509 0.0
C2330 C 0.4598 0.45284 0.84963 0.0
N2331 N 0.45786 0.44 0.83741 0.0
C2332 C 0.45387 0.52996 0.80033 0.0
C2333 C 0.41085 0.53896 0.79796 0.0
C2334 C 0.45542 0.52349 0.78618 0.0
N2335 N 0.43168 0.5369 0.80596 0.0
C2336 C 0.41156 0.53269 0.78377 0.0
C2337 C 0.43394 0.52439 0.77786 0.0
H2338 H 0.47009 0.52842 0.80698 0.0
H2339 H 0.39352 0.54475 0.8027 0.0
C2340 C 0.38739 0.49228 0.86637 0.0
N2341 N 0.39796 0.49152 0.85343 0.0
C2342 C 0.37193 0.47299 0.87086 0.0
C2343 C 0.37867 0.45228 0.8487 0.0
C2344 C 0.39383 0.47207 0.84459 0.0
C2345 C 0.36727 0.45289 0.86189 0.0
H2346 H 0.39023 0.50832 0.87301 0.0
H2347 H 0.40141 0.47237 0.83412 0.0
O2348 O 0.44179 0.57243 0.83461 0.0
O2349 O 0.42205 0.5452 0.86202 0.0
O2350 O 0.39531 0.54055 0.83352 0.0
O2351 O 0.44804 0.5163 0.83713 0.0
H2352 H 0.44172 0.61246 0.85102 0.0
H2353 H 0.43353 0.58691 0.80849 0.0
H2354 H 0.43575 0.65569 0.84272 0.0
H2355 H 0.42731 0.63061 0.801 0.0
H2356 H 0.46124 0.51172 0.89981 0.0
H2357 H 0.43822 0.58722 0.87337 0.0
H2358 H 0.4361 0.50758 0.87817 0.0
H2359 H 0.46317 0.58995 0.89517 0.0
H2360 H 0.36118 0.64368 0.83833 0.0
H2361 H 0.36937 0.61896 0.8811 0.0
H2362 H 0.53249 0.52548 0.87255 0.0
H2363 H 0.51808 0.60318 0.86465 0.0
H2364 H 0.37972 0.5064 0.81553 0.0
H2365 H 0.35915 0.54992 0.85159 0.0
H2366 H 0.33739 0.48798 0.81542 0.0
H2367 H 0.31721 0.53063 0.85088 0.0
H2368 H 0.44505 0.48656 0.815 0.0
H2369 H 0.45791 0.48875 0.85948 0.0
H2370 H 0.45127 0.44092 0.81554 0.0
H2371 H 0.46379 0.44303 0.85927 0.0
H2372 H 0.47294 0.51711 0.78186 0.0
H2373 H 0.39471 0.53361 0.77756 0.0
H2374 H 0.3631 0.47406 0.88104 0.0
H2375 H 0.3751 0.43715 0.84148 0.0
Li2376 Li 0.20388 0.69803 0.59881 0.0
Li2377 Li 0.1872 0.6566 0.59465 0.0
Li2378 Li 0.23202 0.6629 0.59799 0.0
Li2379 Li 0.21134 0.6763 0.57655 0.0
C2380 C 0.19824 0.67865 0.62399 0.0
N2381 N 0.18375 0.70117 0.64869 0.0
C2382 C 0.17323 0.67845 0.62802 0.0
C2383 C 0.21591 0.69004 0.63259 0.0
C2384 C 0.16627 0.68997 0.64054 0.0
C2385 C 0.2082 0.70142 0.64501 0.0
C2386 C 0.16941 0.69874 0.57302 0.0
C2387 C 0.15008 0.69631 0.55027 0.0
N2388 N 0.15217 0.72142 0.54893 0.0
C2389 C 0.17136 0.72452 0.57144 0.0
C2390 C 0.15864 0.68449 0.56238 0.0
C2391 C 0.16251 0.73564 0.55918 0.0
C2392 C 0.21214 0.74716 0.61008 0.0
N2393 N 0.19529 0.72888 0.60741 0.0
C2394 C 0.16231 0.75362 0.61678 0.0
C2395 C 0.17077 0.73177 0.61053 0.0
C2396 C 0.17923 0.77275 0.61965 0.0
C2397 C 0.20442 0.7695 0.61625 0.0
H2398 H 0.23146 0.74454 0.60733 0.0
H2399 H 0.15776 0.71704 0.6081 0.0
C2400 C 0.16328 0.6185 0.6097 0.0
N2401 N 0.1599 0.63575 0.59944 0.0
C2402 C 0.14302 0.60514 0.61492 0.0
C2403 C 0.11632 0.62714 0.59869 0.0
C2404 C 0.1371 0.64007 0.59377 0.0
C2405 C 0.11921 0.60983 0.60955 0.0
H2406 H 0.18156 0.61585 0.61419 0.0
H2407 H 0.13491 0.65422 0.58582 0.0
C2408 C 0.25987 0.70079 0.589 0.0
N2409 N 0.3104 0.70967 0.59088 0.0
C2410 C 0.27487 0.69912 0.57707 0.0
C2411 C 0.27054 0.70715 0.60186 0.0
C2412 C 0.30038 0.70365 0.57824 0.0
C2413 C 0.29613 0.71151 0.6026 0.0
C2414 C 0.20773 0.61798 0.58329 0.0
C2415 C 0.21882 0.60049 0.59215 0.0
C2416 C 0.18836 0.61066 0.57442 0.0
C2417 C 0.21023 0.57596 0.59205 0.0
C2418 C 0.18026 0.58597 0.57466 0.0
N2419 N 0.19127 0.56928 0.5834 0.0
C2420 C 0.26491 0.63908 0.61756 0.0
C2421 C 0.27875 0.64245 0.59403 0.0
C2422 C 0.28568 0.62456 0.62099 0.0
N2423 N 0.26181 0.64744 0.60422 0.0
C2424 C 0.29997 0.62863 0.59706 0.0
C2425 C 0.30329 0.61903 0.61057 0.0
H2426 H 0.25079 0.64279 0.62536 0.0
H2427 H 0.27527 0.64843 0.5834 0.0
C2428 C 0.22241 0.7029 0.55161 0.0
N2429 N 0.21715 0.68002 0.55695 0.0
C2430 C 0.22971 0.70539 0.53762 0.0
C2431 C 0.22546 0.66086 0.53486 0.0
C2432 C 0.21833 0.65921 0.54889 0.0
C2433 C 0.23157 0.68412 0.52919 0.0
H2434 H 0.22178 0.71906 0.55835 0.0
H2435 H 0.21452 0.64123 0.55346 0.0
O2436 O 0.20534 0.66808 0.61158 0.0
O2437 O 0.17853 0.68742 0.58478 0.0
O2438 O 0.2349 0.69611 0.5881 0.0
O2439 O 0.21548 0.64223 0.58345 0.0
H2440 H 0.15926 0.66985 0.62146 0.0
H2441 H 0.23536 0.6902 0.62967 0.0
H2442 H 0.14696 0.69013 0.64374 0.0
H2443 H 0.22166 0.71047 0.65173 0.0
H2444 H 0.14185 0.6855 0.5419 0.0
H2445 H 0.17984 0.73581 0.57951 0.0
H2446 H 0.1572 0.6645 0.56339 0.0
H2447 H 0.16397 0.75556 0.55779 0.0
H2448 H 0.14273 0.75574 0.6192 0.0
H2449 H 0.21783 0.7841 0.61827 0.0
H2450 H 0.1457 0.592 0.62339 0.0
H2451 H 0.09808 0.63123 0.59444 0.0
H2452 H 0.26699 0.69407 0.56704 0.0
H2453 H 0.25922 0.70847 0.61118 0.0
H2454 H 0.31223 0.70228 0.56911 0.0
H2455 H 0.30465 0.7163 0.61251 0.0
H2456 H 0.23377 0.60579 0.59911 0.0
H2457 H 0.17944 0.624 0.56758 0.0
H2458 H 0.21859 0.56225 0.59889 0.0
H2459 H 0.16516 0.5801 0.56794 0.0
H2460 H 0.28768 0.61719 0.63149 0.0
H2461 H 0.31313 0.62447 0.58878 0.0
H2462 H 0.23447 0.72357 0.53352 0.0
H2463 H 0.22687 0.64411 0.52859 0.0
Li2464 Li 0.09278 0.56585 0.15715 0.0
Li2465 Li 0.0512 0.54713 0.15207 0.0
Li2466 Li 0.0753 0.53781 0.17421 0.0
Li2467 Li 0.08915 0.52172 0.1524 0.0
C2468 C 0.06089 0.59532 0.16919 0.0
N2469 N 0.06269 0.64661 0.17103 0.0
C2470 C 0.04631 0.60997 0.16029 0.0
C2471 C 0.07617 0.60678 0.17913 0.0
C2472 C 0.04751 0.63586 0.16137 0.0
C2473 C 0.07689 0.63273 0.17986 0.0
C2474 C 0.08995 0.54179 0.12751 0.0
C2475 C 0.08621 0.51794 0.10623 0.0
N2476 N 0.11042 0.52299 0.10318 0.0
C2477 C 0.11474 0.54686 0.12415 0.0
C2478 C 0.0755 0.5273 0.11848 0.0
C2479 C 0.12476 0.53714 0.1118 0.0
C2480 C 0.13325 0.60107 0.15909 0.0
N2481 N 0.11133 0.59509 0.1528 0.0
C2482 C 0.11404 0.6307 0.13789 0.0
C2483 C 0.10168 0.60932 0.14235 0.0
C2484 C 0.13661 0.63734 0.1442 0.0
C2485 C 0.14625 0.6224 0.15496 0.0
H2486 H 0.14077 0.58919 0.16717 0.0
H2487 H 0.0844 0.6039 0.13741 0.0
C2488 C 0.99848 0.55089 0.15104 0.0
N2489 N 0.01996 0.55478 0.14383 0.0
C2490 C 0.97574 0.55855 0.14539 0.0
C2491 C 0.99772 0.57386 0.12501 0.0
C2492 C 0.01999 0.56581 0.13101 0.0
C2493 C 0.97536 0.57048 0.13231 0.0
H2494 H 0.99912 0.54228 0.16128 0.0
H2495 H 0.0374 0.569 0.12563 0.0
C2496 C 0.12274 0.53209 0.17851 0.0
N2497 N 0.14771 0.51911 0.20276 0.0
C2498 C 0.12989 0.5074 0.1808 0.0
C2499 C 0.12834 0.55016 0.18856 0.0
C2500 C 0.14251 0.50122 0.19312 0.0
C2501 C 0.14093 0.54322 0.20075 0.0
C2502 C 0.04852 0.49186 0.15679 0.0
C2503 C 0.057 0.46981 0.16295 0.0
C2504 C 0.03142 0.49064 0.14576 0.0
C2505 C 0.0482 0.44698 0.158 0.0
C2506 C 0.02305 0.46745 0.14112 0.0
N2507 N 0.03154 0.44628 0.14729 0.0
C2508 C 0.06544 0.54763 0.20335 0.0
C2509 C 0.07679 0.50623 0.19766 0.0
C2510 C 0.06406 0.54144 0.21758 0.0
N2511 N 0.07192 0.53006 0.19374 0.0
C2512 C 0.07574 0.49928 0.21171 0.0
C2513 C 0.06939 0.51702 0.22181 0.0
H2514 H 0.06151 0.56642 0.19998 0.0
H2515 H 0.08206 0.4927 0.18989 0.0
C2516 C 0.13238 0.49707 0.14458 0.0
N2517 N 0.10722 0.49529 0.14336 0.0
C2518 C 0.14777 0.47864 0.1391 0.0
C2519 C 0.11126 0.45731 0.13048 0.0
C2520 C 0.09655 0.47631 0.13606 0.0
C2521 C 0.13712 0.45833 0.13219 0.0
H2522 H 0.14053 0.51278 0.14995 0.0
H2523 H 0.07671 0.47583 0.1345 0.0
O2524 O 0.06065 0.56995 0.16796 0.0
O2525 O 0.08011 0.55032 0.1398 0.0
O2526 O 0.11002 0.53847 0.1666 0.0
O2527 O 0.05648 0.51446 0.16169 0.0
H2528 H 0.03438 0.60148 0.15253 0.0
H2529 H 0.08757 0.59576 0.18609 0.0
H2530 H 0.03645 0.64741 0.15449 0.0
H2531 H 0.0888 0.64183 0.18742 0.0
H2532 H 0.07531 0.50656 0.09918 0.0
H2533 H 0.1262 0.55791 0.1311 0.0
H2534 H 0.05633 0.52307 0.12101 0.0
H2535 H 0.14397 0.54076 0.10911 0.0
H2536 H 0.10619 0.64189 0.12955 0.0
H2537 H 0.1637 0.6271 0.15999 0.0
H2538 H 0.95873 0.55581 0.15127 0.0
H2539 H 0.99797 0.58315 0.11494 0.0
H2540 H 0.12529 0.49301 0.17332 0.0
H2541 H 0.12278 0.56928 0.18705 0.0
H2542 H 0.14801 0.48217 0.19506 0.0
H2543 H 0.14523 0.55701 0.20864 0.0
H2544 H 0.07048 0.47019 0.17131 0.0
H2545 H 0.02479 0.50731 0.1407 0.0
H2546 H 0.05469 0.42981 0.16265 0.0
H2547 H 0.00987 0.46629 0.13258 0.0
H2548 H 0.05909 0.55552 0.2252 0.0
H2549 H 0.08002 0.4803 0.21469 0.0
H2550 H 0.16776 0.48002 0.14038 0.0
H2551 H 0.10263 0.44198 0.12494 0.0
Li2552 Li 0.2285 0.33724 0.90165 0.0
Li2553 Li 0.21348 0.32405 0.92385 0.0
Li2554 Li 0.20467 0.29881 0.90157 0.0
Li2555 Li 0.18451 0.34065 0.90603 0.0
C2556 C 0.26099 0.30081 0.90817 0.0
N2557 N 0.31027 0.29179 0.90169 0.0
C2558 C 0.27982 0.31461 0.91462 0.0
C2559 C 0.26721 0.28229 0.89851 0.0
C2560 C 0.30462 0.30983 0.91116 0.0
C2561 C 0.29224 0.27802 0.89537 0.0
C2562 C 0.20777 0.37421 0.9267 0.0
C2563 C 0.18054 0.39235 0.94401 0.0
N2564 N 0.19986 0.40609 0.94899 0.0
C2565 C 0.22732 0.38863 0.93195 0.0
C2566 C 0.18417 0.37617 0.93274 0.0
C2567 C 0.22296 0.40457 0.94325 0.0
C2568 C 0.25638 0.3796 0.89559 0.0
N2569 N 0.25537 0.35481 0.89279 0.0
C2570 C 0.2916 0.3578 0.8783 0.0
C2571 C 0.27224 0.34384 0.88411 0.0
C2572 C 0.29325 0.38324 0.88137 0.0
C2573 C 0.27531 0.39423 0.88999 0.0
H2574 H 0.24232 0.38809 0.90209 0.0
H2575 H 0.27066 0.32432 0.88163 0.0
C2576 C 0.20857 0.30631 0.95203 0.0
N2577 N 0.2216 0.3214 0.94325 0.0
C2578 C 0.21551 0.3042 0.96611 0.0
C2579 C 0.2493 0.33288 0.96174 0.0
C2580 C 0.24173 0.33442 0.9478 0.0
C2581 C 0.23612 0.31763 0.97102 0.0
H2582 H 0.193 0.29569 0.94808 0.0
H2583 H 0.25206 0.34589 0.94058 0.0
C2584 C 0.20975 0.33545 0.87644 0.0
N2585 N 0.22987 0.35228 0.85158 0.0
C2586 C 0.20718 0.36041 0.87261 0.0
C2587 C 0.22236 0.31899 0.86761 0.0
C2588 C 0.21757 0.36858 0.86 0.0
C2589 C 0.23241 0.32788 0.85508 0.0
C2590 C 0.15819 0.30397 0.92177 0.0
C2591 C 0.14332 0.28701 0.91448 0.0
C2592 C 0.14901 0.31518 0.93394 0.0
C2593 C 0.11929 0.282 0.91929 0.0
C2594 C 0.12488 0.30968 0.93841 0.0
N2595 N 0.11063 0.29337 0.93105 0.0
C2596 C 0.20594 0.24578 0.90001 0.0
C2597 C 0.18326 0.26658 0.88218 0.0
C2598 C 0.19881 0.22264 0.89463 0.0
N2599 N 0.19795 0.26708 0.89377 0.0
C2600 C 0.17555 0.24393 0.87653 0.0
C2601 C 0.18312 0.22168 0.88289 0.0
H2602 H 0.21742 0.24679 0.9093 0.0
H2603 H 0.17695 0.28385 0.87757 0.0
C2604 C 0.15593 0.38434 0.90102 0.0
N2605 N 0.15516 0.35903 0.90145 0.0
C2606 C 0.13546 0.39785 0.89613 0.0
C2607 C 0.11384 0.35903 0.89216 0.0
C2608 C 0.13474 0.34629 0.89705 0.0
C2609 C 0.11421 0.38508 0.89156 0.0
H2610 H 0.17272 0.394 0.90409 0.0
H2611 H 0.13498 0.32623 0.89684 0.0
O2612 O 0.23659 0.30512 0.91143 0.0
O2613 O 0.21183 0.3582 0.91577 0.0
O2614 O 0.20041 0.32729 0.88894 0.0
O2615 O 0.18184 0.30894 0.91725 0.0
H2616 H 0.27534 0.3291 0.92204 0.0
H2617 H 0.25287 0.27147 0.8934 0.0
H2618 H 0.31938 0.32052 0.91597 0.0
H2619 H 0.29734 0.26382 0.88787 0.0
H2620 H 0.16236 0.394 0.94878 0.0
H2621 H 0.24577 0.38729 0.92747 0.0
H2622 H 0.16878 0.3654 0.92876 0.0
H2623 H 0.23797 0.4157 0.94746 0.0
H2624 H 0.30505 0.34895 0.87148 0.0
H2625 H 0.27596 0.41394 0.89234 0.0
H2626 H 0.20511 0.29215 0.97306 0.0
H2627 H 0.26536 0.34336 0.96525 0.0
H2628 H 0.19756 0.37338 0.87939 0.0
H2629 H 0.22465 0.29966 0.87051 0.0
H2630 H 0.21593 0.38789 0.85694 0.0
H2631 H 0.24237 0.3154 0.84817 0.0
H2632 H 0.15017 0.27795 0.90514 0.0
H2633 H 0.16045 0.3278 0.93996 0.0
H2634 H 0.10753 0.26906 0.91368 0.0
H2635 H 0.11753 0.31829 0.94778 0.0
H2636 H 0.20487 0.20571 0.89976 0.0
H2637 H 0.16337 0.24374 0.86749 0.0
H2638 H 0.13637 0.41796 0.89559 0.0
H2639 H 0.09782 0.34869 0.88849 0.0
Li2640 Li 0.42636 0.46555 0.67339 0.0
Li2641 Li 0.41411 0.48081 0.65033 0.0
Li2642 Li 0.40977 0.43502 0.65613 0.0
Li2643 Li 0.45025 0.45432 0.6518 0.0
C2644 C 0.3718 0.46549 0.67254 0.0
N2645 N 0.32872 0.46782 0.68834 0.0
C2646 C 0.35972 0.48824 0.67458 0.0
C2647 C 0.36157 0.44383 0.67826 0.0
C2648 C 0.33809 0.48907 0.68269 0.0
C2649 C 0.33989 0.44541 0.68629 0.0
C2650 C 0.44952 0.51235 0.65854 0.0
C2651 C 0.45857 0.54694 0.64326 0.0
N2652 N 0.45592 0.56281 0.65426 0.0
C2653 C 0.4471 0.52898 0.66972 0.0
C2654 C 0.45553 0.52136 0.64523 0.0
C2655 C 0.45034 0.55443 0.66733 0.0
C2656 C 0.44607 0.46461 0.70113 0.0
N2657 N 0.42837 0.47485 0.69271 0.0
C2658 C 0.41397 0.50059 0.71147 0.0
C2659 C 0.41263 0.4927 0.69756 0.0
C2660 C 0.43178 0.49008 0.72039 0.0
C2661 C 0.44801 0.47191 0.71515 0.0
H2662 H 0.45879 0.45091 0.69694 0.0
H2663 H 0.39943 0.50125 0.69056 0.0
C2664 C 0.39243 0.50424 0.6271 0.0
N2665 N 0.39855 0.50771 0.64072 0.0
C2666 C 0.38109 0.52323 0.61944 0.0
C2667 C 0.38163 0.54879 0.64013 0.0
C2668 C 0.39298 0.52929 0.64739 0.0
C2669 C 0.37638 0.54668 0.62565 0.0
H2670 H 0.39608 0.4865 0.62218 0.0
H2671 H 0.39718 0.53135 0.6584 0.0
C2672 C 0.4401 0.41357 0.67743 0.0
N2673 N 0.43921 0.37555 0.69693 0.0
C2674 C 0.45838 0.39507 0.67721 0.0
C2675 C 0.42158 0.41289 0.68769 0.0
C2676 C 0.45755 0.37595 0.68711 0.0
C2677 C 0.42139 0.3935 0.69743 0.0
C2678 C 0.43282 0.44296 0.62669 0.0
C2679 C 0.43312 0.41754 0.62359 0.0
C2680 C 0.44427 0.45975 0.61756 0.0
C2681 C 0.44516 0.40931 0.61148 0.0
C2682 C 0.45614 0.45079 0.60556 0.0
N2683 N 0.45634 0.42596 0.60279 0.0
C2684 C 0.36828 0.40954 0.64571 0.0
C2685 C 0.39974 0.38287 0.65458 0.0
C2686 C 0.35484 0.38914 0.64069 0.0
N2687 N 0.3904 0.40607 0.65236 0.0
C2688 C 0.38686 0.36197 0.6498 0.0
C2689 C 0.36441 0.36511 0.64256 0.0
H2690 H 0.36157 0.42823 0.64385 0.0
H2691 H 0.4177 0.38056 0.65944 0.0
C2692 C 0.49849 0.46396 0.6399 0.0
N2693 N 0.48181 0.4463 0.64392 0.0
C2694 C 0.5207 0.45699 0.63334 0.0
C2695 C 0.50818 0.4139 0.63538 0.0
C2696 C 0.48627 0.42168 0.64184 0.0
C2697 C 0.5256 0.43168 0.63104 0.0
H2698 H 0.49446 0.4834 0.64165 0.0
H2699 H 0.4725 0.40811 0.64497 0.0
O2700 O 0.39284 0.4643 0.66446 0.0
O2701 O 0.44612 0.4874 0.66065 0.0
O2702 O 0.44061 0.43234 0.66774 0.0
O2703 O 0.42153 0.45133 0.63865 0.0
H2704 H 0.36707 0.50514 0.67007 0.0
H2705 H 0.37009 0.4259 0.67645 0.0
H2706 H 0.32873 0.50661 0.68446 0.0
H2707 H 0.33187 0.4288 0.69082 0.0
H2708 H 0.46299 0.55418 0.63298 0.0
H2709 H 0.44276 0.52235 0.68012 0.0
H2710 H 0.45751 0.50879 0.63648 0.0
H2711 H 0.44842 0.56751 0.67588 0.0
H2712 H 0.40138 0.51485 0.71522 0.0
H2713 H 0.46207 0.46362 0.72181 0.0
H2714 H 0.37601 0.51849 0.60893 0.0
H2715 H 0.37667 0.56524 0.64603 0.0
H2716 H 0.47305 0.39542 0.66945 0.0
H2717 H 0.40776 0.42741 0.68829 0.0
H2718 H 0.4715 0.36144 0.68701 0.0
H2719 H 0.40715 0.39279 0.70543 0.0
H2720 H 0.4244 0.40425 0.63053 0.0
H2721 H 0.44409 0.47948 0.61973 0.0
H2722 H 0.44566 0.38968 0.609 0.0
H2723 H 0.46521 0.46356 0.59844 0.0
H2724 H 0.33762 0.39207 0.63503 0.0
H2725 H 0.3948 0.34361 0.65123 0.0
H2726 H 0.53386 0.47109 0.63005 0.0
H2727 H 0.51145 0.39425 0.63368 0.0
Li2728 Li 0.27062 0.66534 0.40239 0.0
Li2729 Li 0.28768 0.67801 0.42444 0.0
Li2730 Li 0.29576 0.70289 0.40189 0.0
Li2731 Li 0.3149 0.66068 0.40591 0.0
C2732 C 0.24036 0.70448 0.4107 0.0
N2733 N 0.19146 0.71917 0.40742 0.0
C2734 C 0.22154 0.69294 0.41844 0.0
C2735 C 0.23438 0.72363 0.40139 0.0
C2736 C 0.19691 0.70058 0.41659 0.0
C2737 C 0.20952 0.73076 0.39986 0.0
C2738 C 0.29198 0.62721 0.42664 0.0
C2739 C 0.31887 0.6096 0.44427 0.0
N2740 N 0.30033 0.59381 0.44815 0.0
C2741 C 0.27321 0.61076 0.43077 0.0
C2742 C 0.315 0.62662 0.43343 0.0
C2743 C 0.27778 0.59404 0.44168 0.0
C2744 C 0.24438 0.62304 0.39486 0.0
N2745 N 0.24269 0.64827 0.39438 0.0
C2746 C 0.2028 0.64567 0.38336 0.0
C2747 C 0.22266 0.65974 0.38849 0.0
C2748 C 0.20404 0.61966 0.38401 0.0
C2749 C 0.22517 0.60828 0.38969 0.0
H2750 H 0.26077 0.61436 0.39924 0.0
H2751 H 0.22206 0.67973 0.38766 0.0
C2752 C 0.29268 0.69662 0.45246 0.0
N2753 N 0.2804 0.68048 0.44393 0.0
C2754 C 0.28594 0.6987 0.46658 0.0
C2755 C 0.25414 0.66759 0.46279 0.0
C2756 C 0.26137 0.66621 0.44878 0.0
C2757 C 0.26644 0.68402 0.47181 0.0
H2758 H 0.30744 0.70808 0.44826 0.0
H2759 H 0.25156 0.65397 0.44172 0.0
C2760 C 0.28831 0.66353 0.37728 0.0
N2761 N 0.267 0.64116 0.35415 0.0
C2762 C 0.2951 0.63933 0.37351 0.0
C2763 C 0.27074 0.67639 0.36926 0.0
C2764 C 0.2841 0.62834 0.36178 0.0
C2765 C 0.26017 0.66474 0.35761 0.0
C2766 C 0.34347 0.69693 0.42062 0.0
C2767 C 0.35822 0.71168 0.41187 0.0
C2768 C 0.35337 0.6878 0.43315 0.0
C2769 C 0.38286 0.71655 0.41564 0.0
C2770 C 0.37809 0.69309 0.43655 0.0
N2771 N 0.39221 0.70721 0.42779 0.0
C2772 C 0.30731 0.75431 0.4026 0.0
C2773 C 0.30538 0.73631 0.37993 0.0
C2774 C 0.3157 0.77681 0.39695 0.0
N2775 N 0.3027 0.73459 0.39406 0.0
C2776 C 0.31342 0.75849 0.37384 0.0
C2777 C 0.31916 0.77884 0.38243 0.0
H2778 H 0.3054 0.75223 0.41382 0.0
H2779 H 0.30219 0.72019 0.37343 0.0
C2780 C 0.34436 0.61649 0.40252 0.0
N2781 N 0.3438 0.6417 0.40109 0.0
C2782 C 0.36486 0.60289 0.39772 0.0
C2783 C 0.38363 0.64136 0.38993 0.0
C2784 C 0.36275 0.65415 0.39478 0.0
C2785 C 0.38474 0.61544 0.39134 0.0
H2786 H 0.32861 0.60683 0.40698 0.0
H2787 H 0.3613 0.67395 0.39308 0.0
O2788 O 0.2646 0.69748 0.41242 0.0
O2789 O 0.28762 0.64404 0.41616 0.0
O2790 O 0.29822 0.67426 0.389 0.0
O2791 O 0.31921 0.6922 0.41717 0.0
H2792 H 0.22587 0.67809 0.42568 0.0
H2793 H 0.24876 0.73281 0.39537 0.0
H2794 H 0.18212 0.69172 0.42244 0.0
H2795 H 0.20458 0.74549 0.39265 0.0
H2796 H 0.33663 0.60894 0.4496 0.0
H2797 H 0.25519 0.6111 0.42571 0.0
H2798 H 0.32977 0.63902 0.43027 0.0
H2799 H 0.26339 0.58129 0.44502 0.0
H2800 H 0.18676 0.6549 0.37886 0.0
H2801 H 0.22664 0.5882 0.39022 0.0
H2802 H 0.29567 0.71166 0.47332 0.0
H2803 H 0.23893 0.65614 0.46652 0.0
H2804 H 0.30851 0.62905 0.37967 0.0
H2805 H 0.26492 0.69495 0.37218 0.0
H2806 H 0.2891 0.60959 0.35878 0.0
H2807 H 0.24639 0.67438 0.35138 0.0
H2808 H 0.35082 0.71907 0.40219 0.0
H2809 H 0.34207 0.67692 0.44024 0.0
H2810 H 0.39454 0.72776 0.40891 0.0
H2811 H 0.38602 0.68606 0.44619 0.0
H2812 H 0.32017 0.79219 0.40384 0.0
H2813 H 0.31611 0.75948 0.3626 0.0
H2814 H 0.36505 0.58282 0.39872 0.0
H2815 H 0.39852 0.65149 0.38483 0.0
C2816 C 0.43958 0.97584 0.25463 0.0
C2817 C 0.43186 0.99249 0.2653 0.0
C2818 C 0.42294 0.0246 0.24774 0.0
C2819 C 0.43206 0.00848 0.23715 0.0
N2820 N 0.45255 0.97038 0.23046 0.0
N2821 N 0.41984 0.03375 0.27257 0.0
C2822 C 0.44139 0.98453 0.24059 0.0
C2823 C 0.42461 0.01721 0.26201 0.0
N2824 N 0.44453 0.95155 0.25789 0.0
N2825 N 0.41193 0.04662 0.24409 0.0
H2826 H 0.42039 0.02888 0.28314 0.0
H2827 H 0.4172 0.05272 0.27095 0.0
H2828 H 0.41074 0.05285 0.23376 0.0
H2829 H 0.40236 0.05789 0.25113 0.0
H2830 H 0.4475 0.93776 0.25042 0.0
H2831 H 0.44395 0.9447 0.26811 0.0
H2832 H 0.46209 0.95394 0.23253 0.0
H2833 H 0.45398 0.97605 0.22004 0.0
C2834 C 0.26447 0.16003 0.50509 0.0
C2835 C 0.259 0.18011 0.51423 0.0
C2836 C 0.23927 0.20266 0.49485 0.0
C2837 C 0.24236 0.18149 0.48613 0.0
N2838 N 0.25355 0.13818 0.48377 0.0
N2839 N 0.23701 0.21853 0.51856 0.0
C2840 C 0.25376 0.15963 0.49148 0.0
C2841 C 0.24523 0.2009 0.50932 0.0
N2842 N 0.28053 0.14172 0.50923 0.0
N2843 N 0.23146 0.22471 0.48922 0.0
H2844 H 0.24065 0.21775 0.52928 0.0
H2845 H 0.22467 0.23264 0.51579 0.0
H2846 H 0.22722 0.22685 0.47862 0.0
H2847 H 0.23139 0.24139 0.49477 0.0
H2848 H 0.28722 0.12804 0.50247 0.0
H2849 H 0.28904 0.14153 0.51905 0.0
H2850 H 0.25926 0.12105 0.48774 0.0
H2851 H 0.24546 0.13696 0.47386 0.0
C2852 C 0.05185 0.01355 0.75589 0.0
C2853 C 0.07302 0.00872 0.76436 0.0
C2854 C 0.09247 0.98588 0.74501 0.0
C2855 C 0.07238 0.99272 0.73617 0.0
N2856 N 0.03514 0.01689 0.73239 0.0
N2857 N 0.11544 0.99444 0.76631 0.0
C2858 C 0.05265 0.00765 0.74138 0.0
C2859 C 0.09392 0.99605 0.75873 0.0
N2860 N 0.03067 0.02295 0.7618 0.0
N2861 N 0.10975 0.96904 0.74047 0.0
H2862 H 0.11733 0.00192 0.77634 0.0
H2863 H 0.13209 0.98774 0.76219 0.0
H2864 H 0.10922 0.96101 0.73053 0.0
H2865 H 0.12328 0.96133 0.74696 0.0
H2866 H 0.01382 0.0243 0.75647 0.0
H2867 H 0.02928 0.02741 0.77241 0.0
H2868 H 0.02191 0.03006 0.73533 0.0
H2869 H 0.03514 0.0131 0.72168 0.0
C2870 C 0.24433 0.80324 0.99229 0.0
C2871 C 0.25969 0.82317 0.98777 0.0
C2872 C 0.25551 0.84324 0.01073 0.0
C2873 C 0.24179 0.82238 0.01557 0.0
N2874 N 0.22576 0.78104 0.0118 0.0
N2875 N 0.28283 0.86046 0.99295 0.0
C2876 C 0.23691 0.80194 0.00657 0.0
C2877 C 0.26609 0.84274 0.99707 0.0
N2878 N 0.23622 0.78597 0.9828 0.0
N2879 N 0.25785 0.86378 0.01908 0.0
H2880 H 0.29073 0.86082 0.98296 0.0
H2881 H 0.29038 0.87367 0.99969 0.0
H2882 H 0.25065 0.86465 0.02921 0.0
H2883 H 0.26522 0.88063 0.01565 0.0
H2884 H 0.22276 0.77263 0.98505 0.0
H2885 H 0.24156 0.78608 0.9723 0.0
H2886 H 0.22422 0.76444 0.00625 0.0
H2887 H 0.21957 0.77963 0.02214 0.0
C2888 C 0.57246 0.97666 0.75406 0.0
C2889 C 0.56604 0.99335 0.765 0.0
C2890 C 0.56099 0.02719 0.74795 0.0
C2891 C 0.56632 0.01021 0.73696 0.0
N2892 N 0.57217 0.96797 0.72913 0.0
N2893 N 0.54975 0.03302 0.77237 0.0
C2894 C 0.57055 0.98467 0.7399 0.0
C2895 C 0.55891 0.01819 0.76193 0.0
N2896 N 0.58127 0.95347 0.75724 0.0
N2897 N 0.55888 0.05203 0.74509 0.0
H2898 H 0.54815 0.02707 0.78274 0.0
H2899 H 0.54181 0.0504 0.7706 0.0
H2900 H 0.56001 0.05927 0.73497 0.0
H2901 H 0.55781 0.0657 0.75279 0.0
H2902 H 0.58904 0.94151 0.74985 0.0
H2903 H 0.58253 0.94676 0.76747 0.0
H2904 H 0.57262 0.94878 0.73058 0.0
H2905 H 0.57087 0.97316 0.71862 0.0
C2906 C 0.73073 0.80149 0.4969 0.0
C2907 C 0.73899 0.8203 0.48758 0.0
C2908 C 0.76218 0.84028 0.50665 0.0
C2909 C 0.75563 0.82031 0.51566 0.0
N2910 N 0.73729 0.77975 0.51885 0.0
N2911 N 0.76585 0.85524 0.48277 0.0
C2912 C 0.7409 0.80028 0.51064 0.0
C2913 C 0.75568 0.83904 0.49223 0.0
N2914 N 0.7126 0.78523 0.49275 0.0
N2915 N 0.77378 0.86085 0.51198 0.0
H2916 H 0.76143 0.85505 0.47213 0.0
H2917 H 0.78021 0.86749 0.48524 0.0
H2918 H 0.77879 0.86252 0.52249 0.0
H2919 H 0.77656 0.87713 0.50627 0.0
H2920 H 0.70382 0.77286 0.49954 0.0
H2921 H 0.70481 0.78547 0.48274 0.0
H2922 H 0.72894 0.76347 0.51527 0.0
H2923 H 0.74459 0.77812 0.52894 0.0
C2924 C 0.92278 0.02521 0.25305 0.0
C2925 C 0.9325 0.00939 0.26362 0.0
C2926 C 0.93918 0.97639 0.24626 0.0
C2927 C 0.93093 0.99277 0.23558 0.0
N2928 N 0.91956 0.03417 0.22822 0.0
N2929 N 0.95444 0.97193 0.27003 0.0
C2930 C 0.92413 0.01763 0.2388 0.0
C2931 C 0.94205 0.98554 0.26014 0.0
N2932 N 0.91137 0.04702 0.25667 0.0
N2933 N 0.94346 0.95189 0.24323 0.0
H2934 H 0.95704 0.97813 0.28029 0.0
H2935 H 0.96406 0.95559 0.26779 0.0
H2936 H 0.94175 0.94454 0.23316 0.0
H2937 H 0.94678 0.93843 0.25085 0.0
H2938 H 0.90145 0.05796 0.2496 0.0
H2939 H 0.91005 0.05328 0.26698 0.0
H2940 H 0.91716 0.05318 0.22985 0.0
H2941 H 0.92033 0.02929 0.21765 0.0
C2942 C 0.7714 0.19862 0.99723 0.0
C2943 C 0.76083 0.18217 0.98725 0.0
C2944 C 0.73415 0.16409 0.00546 0.0
C2945 C 0.74326 0.18191 0.01516 0.0
N2946 N 0.76708 0.21906 0.01974 0.0
N2947 N 0.72895 0.1525 0.98109 0.0
C2948 C 0.7609 0.20004 0.01088 0.0
C2949 C 0.74126 0.16583 0.99114 0.0
N2950 N 0.79201 0.21225 0.99382 0.0
N2951 N 0.7195 0.14493 0.01001 0.0
H2952 H 0.73356 0.1533 0.97048 0.0
H2953 H 0.71282 0.14237 0.98308 0.0
H2954 H 0.71393 0.14294 0.02042 0.0
H2955 H 0.71458 0.12986 0.00374 0.0
H2956 H 0.80219 0.22247 0.00109 0.0
H2957 H 0.80024 0.21168 0.98392 0.0
H2958 H 0.77782 0.23426 0.01671 0.0
H2959 H 0.75961 0.22084 0.02977 0.0
C2960 C 0.92854 0.48451 0.73801 0.0
C2961 C 0.93344 0.50998 0.73517 0.0
C2962 C 0.94044 0.51778 0.76017 0.0
C2963 C 0.93325 0.49291 0.76313 0.0
N2964 N 0.91782 0.45317 0.75529 0.0
N2965 N 0.94173 0.55159 0.7433 0.0
C2966 C 0.92669 0.47637 0.75215 0.0
C2967 C 0.93881 0.52683 0.74619 0.0
N2968 N 0.92606 0.46807 0.72716 0.0
N2969 N 0.9494 0.53252 0.77071 0.0
H2970 H 0.94144 0.55874 0.73314 0.0
H2971 H 0.94282 0.56531 0.75097 0.0
H2972 H 0.95067 0.52656 0.78109 0.0
H2973 H 0.9574 0.54991 0.76906 0.0
H2974 H 0.92528 0.44886 0.72848 0.0
H2975 H 0.92664 0.47345 0.71667 0.0
H2976 H 0.91001 0.44124 0.74792 0.0
H2977 H 0.9166 0.4464 0.76551 0.0
C2978 C 0.73947 0.69645 0.0097 0.0
C2979 C 0.75786 0.67905 0.01397 0.0
C2980 C 0.75814 0.66081 0.99043 0.0
C2981 C 0.74152 0.67966 0.98585 0.0
N2982 N 0.71923 0.71774 0.99042 0.0
N2983 N 0.78774 0.64727 0.00801 0.0
C2984 C 0.73296 0.69815 0.9953 0.0
C2985 C 0.76805 0.66192 0.00422 0.0
N2986 N 0.7276 0.71073 0.0195 0.0
N2987 N 0.76385 0.64142 0.98172 0.0
H2988 H 0.79555 0.6476 0.01801 0.0
H2989 H 0.7977 0.63637 0.00095 0.0
H2990 H 0.75697 0.63998 0.97154 0.0
H2991 H 0.77364 0.62572 0.98496 0.0
H2992 H 0.71217 0.72176 0.01725 0.0
H2993 H 0.73182 0.71001 0.03015 0.0
H2994 H 0.7148 0.73323 0.99648 0.0
H2995 H 0.71393 0.71953 0.97995 0.0
C2996 C 0.56493 0.48298 0.26237 0.0
C2997 C 0.56571 0.509 0.26489 0.0
C2998 C 0.5642 0.51717 0.23961 0.0
C2999 C 0.5657 0.49118 0.23708 0.0
N3000 N 0.56944 0.44918 0.24566 0.0
N3001 N 0.56812 0.55107 0.25629 0.0
C3002 C 0.56651 0.47401 0.24836 0.0
C3003 C 0.56577 0.52618 0.25361 0.0
N3004 N 0.56224 0.46691 0.27338 0.0
N3005 N 0.56093 0.53318 0.22862 0.0
H3006 H 0.56852 0.55839 0.26642 0.0
H3007 H 0.57121 0.56442 0.24859 0.0
H3008 H 0.56047 0.52733 0.2182 0.0
H3009 H 0.55695 0.55201 0.22978 0.0
H3010 H 0.55888 0.44795 0.27224 0.0
H3011 H 0.56155 0.47279 0.28379 0.0
H3012 H 0.5731 0.43593 0.25334 0.0
H3013 H 0.5697 0.44186 0.23554 0.0
C3014 C 0.73602 0.3407 0.50567 0.0
C3015 C 0.74323 0.32097 0.51468 0.0
C3016 C 0.76425 0.30022 0.49508 0.0
C3017 C 0.75907 0.3211 0.48645 0.0
N3018 N 0.7441 0.36323 0.48417 0.0
N3019 N 0.76785 0.28411 0.51871 0.0
C3020 C 0.7461 0.34194 0.49193 0.0
C3021 C 0.75837 0.30129 0.5096 0.0
N3022 N 0.71891 0.35782 0.51009 0.0
N3023 N 0.77401 0.27907 0.48933 0.0
H3024 H 0.76408 0.28432 0.52943 0.0
H3025 H 0.78116 0.27095 0.51587 0.0
H3026 H 0.77853 0.27754 0.47874 0.0
H3027 H 0.77564 0.26236 0.49478 0.0
H3028 H 0.71095 0.37104 0.50349 0.0
H3029 H 0.71089 0.3574 0.52004 0.0
H3030 H 0.73719 0.37988 0.48816 0.0
H3031 H 0.75145 0.36495 0.4741 0.0
C3032 C 0.0913 0.49772 0.25812 0.0
C3033 C 0.06821 0.49327 0.26488 0.0
C3034 C 0.04581 0.50369 0.24327 0.0
C3035 C 0.0688 0.50983 0.23682 0.0
N3036 N 0.11306 0.5164 0.23848 0.0
N3037 N 0.0234 0.49523 0.26483 0.0
C3038 C 0.09147 0.50791 0.24437 0.0
C3039 C 0.04541 0.49716 0.25771 0.0
N3040 N 0.11303 0.49156 0.26472 0.0
N3041 N 0.02448 0.50335 0.23546 0.0
H3042 H 0.02236 0.48999 0.27533 0.0
H3043 H 0.00631 0.50056 0.26066 0.0
H3044 H 0.02397 0.5085 0.22493 0.0
H3045 H 0.00763 0.49629 0.23908 0.0
H3046 H 0.13034 0.49178 0.25983 0.0
H3047 H 0.11361 0.48428 0.27484 0.0
H3048 H 0.12976 0.518 0.24393 0.0
H3049 H 0.11389 0.52382 0.22839 0.0
C3050 C 0.27531 0.30203 0.00303 0.0
C3051 C 0.26193 0.3147 0.01366 0.0
C3052 C 0.23168 0.32954 0.99633 0.0
C3053 C 0.24424 0.31569 0.98584 0.0
N3054 N 0.27528 0.28541 0.97939 0.0
N3055 N 0.22518 0.33678 0.02114 0.0
C3056 C 0.26527 0.30091 0.98925 0.0
C3057 C 0.23943 0.32736 0.01052 0.0
N3058 N 0.29801 0.2918 0.00599 0.0
N3059 N 0.21293 0.34547 0.99266 0.0
H3060 H 0.23034 0.33572 0.03166 0.0
H3061 H 0.20731 0.34382 0.01969 0.0
H3062 H 0.20647 0.34731 0.9824 0.0
H3063 H 0.20499 0.35822 0.99954 0.0
H3064 H 0.30998 0.28478 0.99839 0.0
H3065 H 0.30579 0.29199 0.01601 0.0
H3066 H 0.28894 0.27224 0.98159 0.0
H3067 H 0.26847 0.28423 0.96918 0.0
C3068 C 0.4249 0.49123 0.76011 0.0
C3069 C 0.43446 0.51524 0.76319 0.0
C3070 C 0.4453 0.52121 0.73846 0.0
C3071 C 0.43345 0.49833 0.7352 0.0
N3072 N 0.40919 0.46286 0.74245 0.0
N3073 N 0.45124 0.55443 0.75536 0.0
C3074 C 0.42253 0.48364 0.74591 0.0
C3075 C 0.44406 0.5306 0.75238 0.0
N3076 N 0.4187 0.47545 0.7708 0.0
N3077 N 0.45824 0.53364 0.7283 0.0
H3078 H 0.45091 0.56179 0.76547 0.0
H3079 H 0.45579 0.5675 0.74773 0.0
H3080 H 0.45935 0.5274 0.71796 0.0
H3081 H 0.4695 0.54899 0.73029 0.0
H3082 H 0.41421 0.45679 0.7693 0.0
H3083 H 0.42005 0.48038 0.78134 0.0
H3084 H 0.39838 0.45297 0.74958 0.0
H3085 H 0.40735 0.45647 0.73218 0.0
C3086 C 0.2257 0.69527 0.5038 0.0
C3087 C 0.24115 0.68586 0.51462 0.0
C3088 C 0.2733 0.67517 0.4974 0.0
C3089 C 0.25847 0.68591 0.48669 0.0
N3090 N 0.22295 0.71057 0.47995 0.0
N3091 N 0.28151 0.6717 0.52229 0.0
C3092 C 0.23537 0.69731 0.48998 0.0
C3093 C 0.26555 0.67728 0.51158 0.0
N3094 N 0.20152 0.70138 0.50663 0.0
N3095 N 0.29424 0.66205 0.49398 0.0
H3096 H 0.27652 0.67311 0.53283 0.0
H3097 H 0.30032 0.66788 0.52079 0.0
H3098 H 0.3006 0.66012 0.48371 0.0
H3099 H 0.30421 0.65141 0.50116 0.0
H3100 H 0.18853 0.70566 0.4989 0.0
H3101 H 0.19382 0.70029 0.51664 0.0
H3102 H 0.20734 0.72143 0.48204 0.0
H3103 H 0.22955 0.71255 0.46973 0.0
C3104 C 0.3445 0.93479 0.11416 0.0
C3105 C 0.35294 0.93406 0.12825 0.0
C3106 C 0.32518 0.89897 0.13324 0.0
C3107 C 0.31652 0.89981 0.11924 0.0
N3108 N 0.32124 0.91452 0.09555 0.0
N3109 N 0.35299 0.9134 0.1509 0.0
C3110 C 0.32724 0.91652 0.10943 0.0
C3111 C 0.34406 0.91551 0.13759 0.0
N3112 N 0.35199 0.95369 0.10554 0.0
N3113 N 0.31522 0.88251 0.1426 0.0
H3114 H 0.3672 0.92445 0.15501 0.0
H3115 H 0.3672 0.92445 0.15501 0.0
H3116 H 0.30107 0.87004 0.14 0.0
H3117 H 0.32106 0.88156 0.15302 0.0
H3118 H 0.3443 0.95709 0.09572 0.0
H3119 H 0.36496 0.9671 0.10853 0.0
H3120 H 0.33021 0.92433 0.08762 0.0
H3121 H 0.30856 0.90143 0.09178 0.0
C3122 C 0.30896 0.07859 0.3791 0.0
C3123 C 0.31621 0.10387 0.38051 0.0
C3124 C 0.35891 0.09339 0.3736 0.0
C3125 C 0.35127 0.06843 0.37137 0.0
N3126 N 0.31893 0.03734 0.37043 0.0
N3127 N 0.34678 0.13629 0.37791 0.0
C3128 C 0.32625 0.06104 0.37369 0.0
C3129 C 0.34086 0.11155 0.37744 0.0
N3130 N 0.28569 0.07129 0.38324 0.0
N3131 N 0.38349 0.09954 0.37226 0.0
H3132 H 0.33417 0.14995 0.38107 0.0
H3133 H 0.36358 0.14359 0.37439 0.0
H3134 H 0.39702 0.08685 0.36903 0.0
H3135 H 0.39087 0.11668 0.37514 0.0
H3136 H 0.28018 0.0528 0.3841 0.0
H3137 H 0.27212 0.0837 0.38674 0.0
H3138 H 0.30045 0.03158 0.3702 0.0
H3139 H 0.33122 0.02358 0.36705 0.0
C3140 C 0.17722 0.05804 0.63069 0.0
C3141 C 0.1515 0.06413 0.63046 0.0
C3142 C 0.16113 0.10618 0.62196 0.0
C3143 C 0.18669 0.0996 0.62144 0.0
N3144 N 0.21951 0.06946 0.62446 0.0
N3145 N 0.11829 0.0928 0.62531 0.0
C3146 C 0.19487 0.07559 0.62563 0.0
C3147 C 0.14325 0.08793 0.62596 0.0
N3148 N 0.18474 0.03553 0.63592 0.0
N3149 N 0.15411 0.13 0.61879 0.0
H3150 H 0.10479 0.08026 0.62874 0.0
H3151 H 0.11068 0.10867 0.62078 0.0
H3152 H 0.16663 0.14352 0.61536 0.0
H3153 H 0.13624 0.13696 0.62024 0.0
H3154 H 0.20316 0.03095 0.63803 0.0
H3155 H 0.1724 0.02152 0.63888 0.0
H3156 H 0.22644 0.05151 0.6256 0.0
H3157 H 0.23326 0.08221 0.62165 0.0
C3158 C 0.16461 0.92127 0.86156 0.0
C3159 C 0.14736 0.93119 0.87134 0.0
C3160 C 0.16356 0.90362 0.88954 0.0
C3161 C 0.18272 0.89578 0.88029 0.0
N3162 N 0.20291 0.89832 0.85776 0.0
N3163 N 0.12944 0.93113 0.89456 0.0
C3164 C 0.18346 0.90467 0.86629 0.0
C3165 C 0.14646 0.92204 0.88524 0.0
N3166 N 0.16257 0.92739 0.8477 0.0
N3167 N 0.16141 0.89413 0.90272 0.0
H3168 H 0.11656 0.94492 0.892 0.0
H3169 H 0.12845 0.92492 0.90491 0.0
H3170 H 0.17286 0.88017 0.90677 0.0
H3171 H 0.17286 0.88017 0.90677 0.0
H3172 H 0.17286 0.91892 0.83978 0.0
H3173 H 0.14897 0.93951 0.84391 0.0
H3174 H 0.20621 0.90651 0.84806 0.0
H3175 H 0.21685 0.8859 0.86074 0.0
C3176 C 0.67266 0.08713 0.89198 0.0
C3177 C 0.6857 0.10107 0.88169 0.0
C3178 C 0.66332 0.07942 0.86293 0.0
C3179 C 0.65022 0.06554 0.87322 0.0
N3180 N 0.63894 0.05853 0.89731 0.0
N3181 N 0.69123 0.11375 0.85768 0.0
C3182 C 0.65379 0.07019 0.8877 0.0
C3183 C 0.68026 0.09826 0.86724 0.0
N3184 N 0.67888 0.08964 0.90581 0.0
N3185 N 0.66009 0.07396 0.84904 0.0
H3186 H 0.70438 0.12716 0.86043 0.0
H3187 H 0.68623 0.11458 0.84716 0.0
H3188 H 0.647 0.06111 0.84546 0.0
H3189 H 0.67111 0.08113 0.84105 0.0
H3190 H 0.67234 0.07803 0.91372 0.0
H3191 H 0.69175 0.1027 0.9094 0.0
H3192 H 0.63872 0.06284 0.90793 0.0
H3193 H 0.62536 0.04558 0.89452 0.0
C3194 C 0.64146 0.9037 0.63665 0.0
C3195 C 0.63397 0.92339 0.6277 0.0
C3196 C 0.66247 0.90799 0.60974 0.0
C3197 C 0.67439 0.89306 0.62001 0.0
N3198 N 0.67421 0.87508 0.64321 0.0
N3199 N 0.62333 0.92665 0.60331 0.0
C3200 C 0.66339 0.89011 0.63342 0.0
C3201 C 0.64037 0.92088 0.61337 0.0
N3202 N 0.62593 0.896 0.64708 0.0
N3203 N 0.67219 0.91003 0.59657 0.0
H3204 H 0.60503 0.93123 0.60595 0.0
H3205 H 0.62616 0.92319 0.59268 0.0
H3206 H 0.68784 0.90014 0.59329 0.0
H3207 H 0.66541 0.92275 0.58925 0.0
H3208 H 0.62926 0.88026 0.65317 0.0
H3209 H 0.60822 0.90372 0.64831 0.0
H3210 H 0.66826 0.87442 0.65359 0.0
H3211 H 0.69016 0.8646 0.64118 0.0
C3212 C 0.81288 0.90913 0.36537 0.0
C3213 C 0.81535 0.89885 0.37897 0.0
C3214 C 0.85439 0.9216 0.38242 0.0
C3215 C 0.85036 0.93406 0.36952 0.0
N3216 N 0.82475 0.94188 0.34923 0.0
N3217 N 0.83694 0.89638 0.40107 0.0
C3218 C 0.82941 0.9283 0.36106 0.0
C3219 C 0.83579 0.90526 0.38765 0.0
N3220 N 0.79485 0.90035 0.35655 0.0
N3221 N 0.87623 0.92509 0.38951 0.0
H3222 H 0.82408 0.88375 0.40512 0.0
H3223 H 0.84967 0.90267 0.40848 0.0
H3224 H 0.89017 0.93708 0.386 0.0
H3225 H 0.88147 0.91468 0.39822 0.0
H3226 H 0.79365 0.90517 0.34601 0.0
H3227 H 0.78222 0.88654 0.35947 0.0
H3228 H 0.80834 0.94054 0.34348 0.0
H3229 H 0.83651 0.95594 0.34564 0.0
C3230 C 0.83569 0.09027 0.1073 0.0
C3231 C 0.82661 0.1077 0.11722 0.0
C3232 C 0.86148 0.09736 0.13271 0.0
C3233 C 0.86674 0.0764 0.12417 0.0
N3234 N 0.87317 0.07034 0.09947 0.0
N3235 N 0.8323 0.12997 0.13896 0.0
C3236 C 0.85802 0.07734 0.1102 0.0
C3237 C 0.84012 0.11213 0.12977 0.0
N3238 N 0.82298 0.08564 0.09519 0.0
N3239 N 0.87844 0.10452 0.14256 0.0
H3240 H 0.81744 0.14188 0.13684 0.0
H3241 H 0.83973 0.13204 0.14897 0.0
H3242 H 0.89545 0.09531 0.14365 0.0
H3243 H 0.87701 0.12086 0.14836 0.0
H3244 H 0.82816 0.07146 0.08832 0.0
H3245 H 0.80633 0.09451 0.09261 0.0
H3246 H 0.8683 0.0725 0.08897 0.0
H3247 H 0.892 0.0666 0.10118 0.0
C3248 C 0.8056 0.42666 0.62441 0.0
C3249 C 0.81278 0.40163 0.62191 0.0
C3250 C 0.85616 0.41169 0.62754 0.0
C3251 C 0.84875 0.4364 0.63071 0.0
N3252 N 0.8165 0.46717 0.63379 0.0
N3253 N 0.84367 0.36918 0.62241 0.0
C3254 C 0.82346 0.44382 0.62961 0.0
C3255 C 0.83776 0.39381 0.62386 0.0
N3256 N 0.78183 0.43413 0.62144 0.0
N3257 N 0.88086 0.40555 0.62782 0.0
H3258 H 0.83075 0.35575 0.61937 0.0
H3259 H 0.86088 0.36166 0.62506 0.0
H3260 H 0.8947 0.41797 0.63096 0.0
H3261 H 0.88794 0.38873 0.6242 0.0
H3262 H 0.7761 0.45262 0.62137 0.0
H3263 H 0.76791 0.42193 0.61814 0.0
H3264 H 0.79808 0.4728 0.63491 0.0
H3265 H 0.82915 0.48073 0.637 0.0
C3266 C 0.84737 0.56813 0.88603 0.0
C3267 C 0.85501 0.5683 0.87178 0.0
C3268 C 0.82701 0.60322 0.86687 0.0
C3269 C 0.81902 0.60283 0.881 0.0
N3270 N 0.82506 0.58907 0.90477 0.0
N3271 N 0.85388 0.58813 0.84892 0.0
C3272 C 0.83033 0.58655 0.89083 0.0
C3273 C 0.84566 0.58653 0.86239 0.0
N3274 N 0.85541 0.5496 0.89475 0.0
N3275 N 0.81656 0.61936 0.85749 0.0
H3276 H 0.86786 0.57691 0.8447 0.0
H3277 H 0.86786 0.57691 0.8447 0.0
H3278 H 0.80255 0.63192 0.86018 0.0
H3279 H 0.82188 0.61995 0.84698 0.0
H3280 H 0.84828 0.54657 0.90474 0.0
H3281 H 0.86829 0.53614 0.8917 0.0
H3282 H 0.83444 0.57957 0.91266 0.0
H3283 H 0.81258 0.60231 0.90859 0.0
C3284 C 0.65898 0.60748 0.1207 0.0
C3285 C 0.68464 0.6015 0.12169 0.0
C3286 C 0.67463 0.56174 0.13299 0.0
C3287 C 0.64893 0.56698 0.13116 0.0
N3288 N 0.61609 0.59344 0.12263 0.0
N3289 N 0.71744 0.57289 0.12786 0.0
C3290 C 0.64093 0.58953 0.12487 0.0
C3291 C 0.69262 0.57864 0.12765 0.0
N3292 N 0.652 0.63046 0.11594 0.0
N3293 N 0.68177 0.54072 0.14003 0.0
H3294 H 0.73131 0.58533 0.12482 0.0
H3295 H 0.72444 0.5554 0.13036 0.0
H3296 H 0.66928 0.52716 0.14344 0.0
H3297 H 0.69992 0.53717 0.14325 0.0
H3298 H 0.63384 0.63714 0.11623 0.0
H3299 H 0.66473 0.6437 0.1124 0.0
H3300 H 0.60895 0.60815 0.1168 0.0
H3301 H 0.60238 0.58109 0.12602 0.0
C3302 C 0.68019 0.42027 0.38602 0.0
C3303 C 0.6807 0.39633 0.37978 0.0
C3304 C 0.64355 0.4065 0.36601 0.0
C3305 C 0.64493 0.43132 0.371 0.0
N3306 N 0.66573 0.4629 0.38464 0.0
N3307 N 0.66433 0.36666 0.36326 0.0
C3308 C 0.66345 0.43847 0.3808 0.0
C3309 C 0.66265 0.38935 0.36968 0.0
N3310 N 0.69547 0.42545 0.39711 0.0
N3311 N 0.62378 0.39936 0.35794 0.0
H3312 H 0.67775 0.35346 0.36593 0.0
H3313 H 0.65349 0.36145 0.35471 0.0
H3314 H 0.60962 0.4116 0.35503 0.0
H3315 H 0.62031 0.38101 0.35507 0.0
H3316 H 0.69411 0.44158 0.4031 0.0
H3317 H 0.70824 0.41268 0.40112 0.0
H3318 H 0.68069 0.46981 0.39037 0.0
H3319 H 0.65355 0.47679 0.38129 0.0
C3320 C 0.14709 0.57758 0.38406 0.0
C3321 C 0.14719 0.56953 0.36991 0.0
C3322 C 0.18163 0.59794 0.36451 0.0
C3323 C 0.18316 0.60407 0.37894 0.0
N3324 N 0.16825 0.60006 0.40265 0.0
N3325 N 0.1641 0.57116 0.34654 0.0
C3326 C 0.16597 0.59415 0.38876 0.0
C3327 C 0.16421 0.57966 0.36006 0.0
N3328 N 0.12883 0.56942 0.39294 0.0
N3329 N 0.19684 0.60971 0.35511 0.0
H3330 H 0.15076 0.55879 0.34273 0.0
H3331 H 0.17774 0.57537 0.33919 0.0
H3332 H 0.21045 0.62249 0.35808 0.0
H3333 H 0.19511 0.60814 0.3443 0.0
H3334 H 0.12603 0.57637 0.40298 0.0
H3335 H 0.11523 0.55664 0.38995 0.0
H3336 H 0.15841 0.59134 0.41065 0.0
H3337 H 0.18098 0.61315 0.40636 0.0
C3338 C 0.17465 0.39832 0.13091 0.0
C3339 C 0.18779 0.40181 0.11818 0.0
C3340 C 0.16444 0.44015 0.11359 0.0
C3341 C 0.15327 0.43802 0.12698 0.0
N3342 N 0.14895 0.41667 0.14907 0.0
N3343 N 0.19756 0.42702 0.09799 0.0
C3344 C 0.15862 0.41746 0.13582 0.0
C3345 C 0.18323 0.42293 0.10961 0.0
N3346 N 0.17712 0.37646 0.13811 0.0
N3347 N 0.15684 0.45851 0.10463 0.0
H3348 H 0.21138 0.41474 0.09467 0.0
H3349 H 0.1971 0.44341 0.09219 0.0
H3350 H 0.14345 0.47173 0.10732 0.0
H3351 H 0.16227 0.45952 0.09418 0.0
H3352 H 0.16614 0.37164 0.14667 0.0
H3353 H 0.18889 0.36214 0.13486 0.0
H3354 H 0.15444 0.40382 0.15662 0.0
H3355 H 0.13647 0.42991 0.15288 0.0
C3356 C 0.35562 0.41577 0.87647 0.0
C3357 C 0.34914 0.43336 0.86601 0.0
C3358 C 0.30793 0.41421 0.8637 0.0
C3359 C 0.31332 0.39881 0.87535 0.0
N3360 N 0.34124 0.38594 0.89375 0.0
N3361 N 0.31824 0.45153 0.85076 0.0
C3362 C 0.33696 0.39973 0.88196 0.0
C3363 C 0.3251 0.43307 0.85982 0.0
N3364 N 0.37974 0.4141 0.88094 0.0
N3365 N 0.2865 0.41058 0.85626 0.0
H3366 H 0.33022 0.46576 0.84771 0.0
H3367 H 0.30012 0.45397 0.84715 0.0
H3368 H 0.27341 0.39702 0.85889 0.0
H3369 H 0.2827 0.41943 0.84679 0.0
H3370 H 0.38622 0.40006 0.8875 0.0
H3371 H 0.39385 0.42559 0.87712 0.0
H3372 H 0.35698 0.38796 0.9 0.0
H3373 H 0.32823 0.37351 0.89786 0.0
C3374 C 0.34674 0.56397 0.60701 0.0
C3375 C 0.36378 0.56815 0.61804 0.0
C3376 C 0.3451 0.60954 0.62147 0.0
C3377 C 0.32435 0.60179 0.61331 0.0
N3378 N 0.30475 0.57 0.59909 0.0
N3379 N 0.38743 0.60051 0.62909 0.0
C3380 C 0.32492 0.57848 0.60635 0.0
C3381 C 0.36545 0.59278 0.62338 0.0
N3382 N 0.35355 0.55028 0.59565 0.0
N3383 N 0.34511 0.63256 0.62754 0.0
H3384 H 0.40308 0.58897 0.62921 0.0
H3385 H 0.39099 0.61863 0.63233 0.0
H3386 H 0.33118 0.64568 0.62572 0.0
H3387 H 0.35829 0.63836 0.63483 0.0
H3388 H 0.34204 0.54799 0.58694 0.0
H3389 H 0.37221 0.54601 0.5938 0.0
H3390 H 0.30426 0.5522 0.59472 0.0
H3391 H 0.28795 0.57967 0.59856 0.0
C3392 C 0.3539 0.16001 0.12103 0.0
C3393 C 0.35159 0.1555 0.13562 0.0
C3394 C 0.32566 0.1928 0.13812 0.0
C3395 C 0.3305 0.19882 0.12391 0.0
N3396 N 0.35103 0.18978 0.10202 0.0
N3397 N 0.33713 0.16816 0.15843 0.0
C3398 C 0.345 0.18279 0.11537 0.0
C3399 C 0.33781 0.17196 0.14427 0.0
N3400 N 0.36414 0.14223 0.11255 0.0
N3401 N 0.30918 0.20686 0.14563 0.0
H3402 H 0.34545 0.15286 0.16326 0.0
H3403 H 0.32981 0.18093 0.16552 0.0
H3404 H 0.30023 0.22242 0.14146 0.0
H3405 H 0.30284 0.20206 0.15557 0.0
H3406 H 0.36399 0.14322 0.10166 0.0
H3407 H 0.37095 0.12534 0.11634 0.0
H3408 H 0.36399 0.18042 0.09586 0.0
H3409 H 0.34438 0.20603 0.09737 0.0
C3410 C 0.09715 0.08119 0.37519 0.0
C3411 C 0.09419 0.09837 0.38637 0.0
C3412 C 0.0489 0.09368 0.38512 0.0
C3413 C 0.05191 0.07543 0.3745 0.0
N3414 N 0.07872 0.04812 0.36135 0.0
N3415 N 0.06805 0.11701 0.404 0.0
C3416 C 0.07603 0.06803 0.37013 0.0
C3417 C 0.07027 0.10336 0.39197 0.0
N3418 N 0.11991 0.07826 0.36901 0.0
N3419 N 0.02572 0.10265 0.38822 0.0
H3420 H 0.08335 0.12433 0.40931 0.0
H3421 H 0.05134 0.11912 0.4094 0.0
H3422 H 0.00955 0.09623 0.3834 0.0
H3423 H 0.02267 0.11793 0.39471 0.0
H3424 H 0.12265 0.06818 0.35982 0.0
H3425 H 0.13587 0.0875 0.37242 0.0
H3426 H 0.09588 0.04022 0.35891 0.0
H3427 H 0.06361 0.03807 0.35747 0.0
C3428 C 0.1568 0.82022 0.64642 0.0
C3429 C 0.14854 0.83959 0.63744 0.0
C3430 C 0.16123 0.8155 0.6168 0.0
C3431 C 0.17014 0.79644 0.62579 0.0
N3432 N 0.18001 0.78165 0.64895 0.0
N3433 N 0.14623 0.85789 0.61441 0.0
C3434 C 0.16905 0.79914 0.64056 0.0
C3435 C 0.1518 0.83789 0.62271 0.0
N3436 N 0.15223 0.82173 0.66049 0.0
N3437 N 0.16108 0.81181 0.60262 0.0
H3438 H 0.13866 0.87437 0.61831 0.0
H3439 H 0.1507 0.85897 0.60382 0.0
H3440 H 0.16875 0.7961 0.59787 0.0
H3441 H 0.1521 0.82352 0.59556 0.0
H3442 H 0.15519 0.80716 0.66747 0.0
H3443 H 0.144 0.83723 0.66516 0.0
H3444 H 0.1822 0.78364 0.65972 0.0
H3445 H 0.18859 0.76571 0.64501 0.0
C3446 C 0.44161 0.93036 0.88657 0.0
C3447 C 0.44968 0.92276 0.87307 0.0
C3448 C 0.41229 0.89702 0.87054 0.0
C3449 C 0.40603 0.90196 0.88471 0.0
N3450 N 0.41591 0.92126 0.90682 0.0
N3451 N 0.44457 0.89624 0.85285 0.0
C3452 C 0.42092 0.91822 0.89289 0.0
C3453 C 0.43544 0.9055 0.86517 0.0
N3454 N 0.45347 0.94951 0.89322 0.0
N3455 N 0.39585 0.88462 0.86213 0.0
H3456 H 0.46151 0.90183 0.84855 0.0
H3457 H 0.43638 0.88151 0.84748 0.0
H3458 H 0.37863 0.87823 0.86569 0.0
H3459 H 0.3982 0.88272 0.85135 0.0
H3460 H 0.447 0.95759 0.90244 0.0
H3461 H 0.46862 0.95885 0.88885 0.0
H3462 H 0.42771 0.9306 0.91369 0.0
H3463 H 0.40082 0.91283 0.9118 0.0
C3464 C 0.35512 0.80042 0.37086 0.0
C3465 C 0.33054 0.80156 0.37627 0.0
C3466 C 0.32891 0.84625 0.37114 0.0
C3467 C 0.35264 0.84456 0.36466 0.0
N3468 N 0.38599 0.81911 0.35568 0.0
N3469 N 0.29226 0.82432 0.37935 0.0
C3470 C 0.36503 0.82133 0.36371 0.0
C3471 C 0.31688 0.82414 0.37576 0.0
N3472 N 0.36941 0.77973 0.37307 0.0
N3473 N 0.31832 0.86903 0.37338 0.0
H3474 H 0.28285 0.80847 0.38278 0.0
H3475 H 0.28066 0.8396 0.3778 0.0
H3476 H 0.32653 0.88565 0.37015 0.0
H3477 H 0.3024 0.87163 0.37943 0.0
H3478 H 0.38831 0.77892 0.37069 0.0
H3479 H 0.36307 0.76414 0.37851 0.0
H3480 H 0.39435 0.80209 0.35343 0.0
H3481 H 0.39365 0.83398 0.35014 0.0
C3482 C 0.4263 0.08733 0.60666 0.0
C3483 C 0.40925 0.10063 0.61519 0.0
C3484 C 0.43596 0.09433 0.63575 0.0
C3485 C 0.45282 0.08063 0.62728 0.0
N3486 N 0.46303 0.06101 0.60532 0.0
N3487 N 0.3954 0.11383 0.63804 0.0
C3488 C 0.44761 0.07613 0.61292 0.0
C3489 C 0.41336 0.10321 0.62981 0.0
N3490 N 0.42242 0.08611 0.59251 0.0
N3491 N 0.44193 0.09936 0.6494 0.0
H3492 H 0.37892 0.12119 0.63402 0.0
H3493 H 0.39587 0.11389 0.64893 0.0
H3494 H 0.4576 0.09202 0.65434 0.0
H3495 H 0.43218 0.11183 0.65567 0.0
H3496 H 0.43535 0.07917 0.58541 0.0
H3497 H 0.40659 0.09336 0.58768 0.0
H3498 H 0.45907 0.05474 0.59526 0.0
H3499 H 0.4793 0.05331 0.60941 0.0
C3500 C 0.14623 0.16131 0.88008 0.0
C3501 C 0.15194 0.15412 0.86614 0.0
C3502 C 0.18177 0.1885 0.86435 0.0
C3503 C 0.17353 0.19755 0.87753 0.0
N3504 N 0.14525 0.19462 0.89713 0.0
N3505 N 0.17303 0.1622 0.84431 0.0
C3506 C 0.15512 0.18444 0.88523 0.0
C3507 C 0.16927 0.16799 0.85809 0.0
N3508 N 0.13273 0.14576 0.88849 0.0
N3509 N 0.20185 0.19924 0.85798 0.0
H3510 H 0.1643 0.14726 0.83936 0.0
H3511 H 0.18328 0.17331 0.83748 0.0
H3512 H 0.21148 0.21423 0.86232 0.0
H3513 H 0.21032 0.19195 0.84907 0.0
H3514 H 0.13017 0.14881 0.89917 0.0
H3515 H 0.12606 0.12854 0.88511 0.0
H3516 H 0.12982 0.18726 0.90227 0.0
H3517 H 0.15106 0.21163 0.90124 0.0
C3518 C 0.08925 0.90528 0.12962 0.0
C3519 C 0.08987 0.90026 0.11503 0.0
C3520 C 0.04841 0.91873 0.11228 0.0
C3521 C 0.04668 0.92106 0.12705 0.0
N3522 N 0.06423 0.91511 0.15005 0.0
N3523 N 0.06989 0.90038 0.09243 0.0
C3524 C 0.06685 0.91409 0.1358 0.0
C3525 C 0.06947 0.90668 0.10631 0.0
N3526 N 0.11026 0.90197 0.13749 0.0
N3527 N 0.03 0.92831 0.10399 0.0
H3528 H 0.08525 0.89211 0.08763 0.0
H3529 H 0.05456 0.90187 0.08582 0.0
H3530 H 0.01414 0.93688 0.10805 0.0
H3531 H 0.03121 0.92956 0.09313 0.0
H3532 H 0.11189 0.90766 0.14787 0.0
H3533 H 0.12692 0.8953 0.13331 0.0
H3534 H 0.077 0.90751 0.15704 0.0
H3535 H 0.04841 0.92222 0.15495 0.0
C3536 C 0.68493 0.81456 0.86741 0.0
C3537 C 0.6691 0.79655 0.87363 0.0
C3538 C 0.63235 0.82123 0.86727 0.0
C3539 C 0.64828 0.84016 0.86206 0.0
N3540 N 0.68944 0.85625 0.85786 0.0
N3541 N 0.62815 0.78301 0.88061 0.0
C3542 C 0.67453 0.83717 0.86227 0.0
C3543 C 0.64289 0.79992 0.87382 0.0
N3544 N 0.70985 0.8098 0.86625 0.0
N3545 N 0.60713 0.82354 0.86578 0.0
H3546 H 0.635 0.76661 0.88499 0.0
H3547 H 0.60934 0.78578 0.88268 0.0
H3548 H 0.59863 0.83929 0.86154 0.0
H3549 H 0.59455 0.80929 0.86784 0.0
H3550 H 0.72214 0.8208 0.86055 0.0
H3551 H 0.71816 0.7938 0.87031 0.0
H3552 H 0.70866 0.85659 0.85918 0.0
H3553 H 0.68243 0.87261 0.8535 0.0
C3554 C 0.92776 0.91875 0.63408 0.0
C3555 C 0.94976 0.91934 0.62586 0.0
C3556 C 0.92734 0.901 0.60594 0.0
C3557 C 0.90597 0.8984 0.61456 0.0
N3558 N 0.88525 0.90405 0.63673 0.0
N3559 N 0.97138 0.91093 0.60427 0.0
C3560 C 0.90597 0.90726 0.62859 0.0
C3561 C 0.94973 0.91062 0.61181 0.0
N3562 N 0.92774 0.92938 0.64711 0.0
N3563 N 0.9261 0.89431 0.59212 0.0
H3564 H 0.98777 0.91897 0.60798 0.0
H3565 H 0.97365 0.90234 0.59459 0.0
H3566 H 0.91039 0.8862 0.58763 0.0
H3567 H 0.93998 0.89801 0.58482 0.0
H3568 H 0.91186 0.932 0.65315 0.0
H3569 H 0.94359 0.9371 0.65167 0.0
H3570 H 0.88475 0.90715 0.64748 0.0
H3571 H 0.86847 0.89719 0.63283 0.0
C3572 C 0.82742 0.19196 0.36487 0.0
C3573 C 0.83276 0.19869 0.37893 0.0
C3574 C 0.86105 0.16311 0.38123 0.0
C3575 C 0.85513 0.15593 0.36731 0.0
N3576 N 0.83014 0.16072 0.34654 0.0
N3577 N 0.85118 0.18908 0.4013 0.0
C3578 C 0.83748 0.16952 0.35933 0.0
C3579 C 0.84853 0.18373 0.38737 0.0
N3580 N 0.81335 0.20745 0.35671 0.0
N3581 N 0.87921 0.15064 0.38842 0.0
H3582 H 0.84271 0.20435 0.40607 0.0
H3583 H 0.86021 0.17748 0.4084 0.0
H3584 H 0.88817 0.1349 0.38448 0.0
H3585 H 0.88657 0.15665 0.39791 0.0
H3586 H 0.81109 0.20523 0.34596 0.0
H3587 H 0.80501 0.2236 0.36055 0.0
H3588 H 0.81548 0.16819 0.34079 0.0
H3589 H 0.83759 0.14467 0.34204 0.0
C3590 C 0.59164 0.09947 0.13045 0.0
C3591 C 0.59503 0.10063 0.11571 0.0
C3592 C 0.55677 0.07648 0.11231 0.0
C3593 C 0.55177 0.07823 0.12688 0.0
N3594 N 0.56265 0.09442 0.14966 0.0
N3595 N 0.57943 0.09296 0.09241 0.0
C3596 C 0.56879 0.09044 0.13594 0.0
C3597 C 0.57729 0.08973 0.10656 0.0
N3598 N 0.61052 0.1065 0.13919 0.0
N3599 N 0.54216 0.06175 0.10403 0.0
H3600 H 0.59416 0.10256 0.08779 0.0
H3601 H 0.56562 0.08788 0.08531 0.0
H3602 H 0.52702 0.05175 0.10792 0.0
H3603 H 0.54632 0.05767 0.09363 0.0
H3604 H 0.61011 0.1037 0.14999 0.0
H3605 H 0.62763 0.11299 0.13554 0.0
H3606 H 0.57302 0.1057 0.15634 0.0
H3607 H 0.54606 0.08819 0.15412 0.0
C3608 C 0.65431 0.18545 0.61636 0.0
C3609 C 0.67125 0.20019 0.62416 0.0
C3610 C 0.67089 0.16937 0.64312 0.0
C3611 C 0.65199 0.15606 0.63595 0.0
N3612 N 0.62294 0.15311 0.61673 0.0
N3613 N 0.69379 0.20806 0.64554 0.0
C3614 C 0.643 0.16449 0.6228 0.0
C3615 C 0.67913 0.19262 0.6377 0.0
N3616 N 0.64944 0.19125 0.60268 0.0
N3617 N 0.68132 0.15948 0.65494 0.0
H3618 H 0.70051 0.22502 0.64181 0.0
H3619 H 0.69786 0.20496 0.65606 0.0
H3620 H 0.6756 0.14256 0.65923 0.0
H3621 H 0.69691 0.16694 0.65986 0.0
H3622 H 0.6394 0.17973 0.59597 0.0
H3623 H 0.65725 0.20659 0.59763 0.0
H3624 H 0.61376 0.16014 0.60798 0.0
H3625 H 0.61406 0.13768 0.62108 0.0
C3626 C 0.56999 0.912 0.36455 0.0
C3627 C 0.55305 0.92525 0.37315 0.0
C3628 C 0.58031 0.91931 0.3935 0.0
C3629 C 0.59584 0.90383 0.38523 0.0
N3630 N 0.60539 0.88405 0.3632 0.0
N3631 N 0.54072 0.94074 0.3958 0.0
C3632 C 0.59076 0.89993 0.3708 0.0
C3633 C 0.55793 0.92888 0.38762 0.0
N3634 N 0.56631 0.91126 0.35037 0.0
N3635 N 0.58714 0.92499 0.40693 0.0
H3636 H 0.52458 0.94878 0.39175 0.0
H3637 H 0.54161 0.9415 0.40668 0.0
H3638 H 0.60307 0.91774 0.41166 0.0
H3639 H 0.57812 0.93817 0.41308 0.0
H3640 H 0.57922 0.90418 0.34329 0.0
H3641 H 0.55101 0.91946 0.34549 0.0
H3642 H 0.60104 0.87794 0.35315 0.0
H3643 H 0.62141 0.87574 0.36723 0.0
C3644 C 0.84634 0.81456 0.11573 0.0
C3645 C 0.82781 0.80111 0.12311 0.0
C3646 C 0.82718 0.83312 0.14143 0.0
C3647 C 0.84751 0.84513 0.13478 0.0
N3648 N 0.87883 0.84578 0.11666 0.0
N3649 N 0.80215 0.79573 0.1436 0.0
C3650 C 0.85769 0.8355 0.12217 0.0
C3651 C 0.81856 0.80993 0.13612 0.0
N3652 N 0.85274 0.80754 0.10243 0.0
N3653 N 0.81581 0.84421 0.15262 0.0
H3654 H 0.79503 0.77892 0.13989 0.0
H3655 H 0.79686 0.79968 0.15385 0.0
H3656 H 0.82181 0.8611 0.15683 0.0
H3657 H 0.79932 0.83778 0.15705 0.0
H3658 H 0.8641 0.81812 0.09591 0.0
H3659 H 0.845 0.79212 0.09743 0.0
H3660 H 0.88876 0.83788 0.10842 0.0
H3661 H 0.8877 0.86121 0.12101 0.0
C3662 C 0.9423 0.07438 0.88588 0.0
C3663 C 0.95077 0.08223 0.87251 0.0
C3664 C 0.91472 0.1099 0.87034 0.0
C3665 C 0.90797 0.10435 0.88437 0.0
N3666 N 0.91698 0.08374 0.90624 0.0
N3667 N 0.9473 0.11021 0.85282 0.0
C3668 C 0.92215 0.08715 0.89235 0.0
C3669 C 0.93755 0.10069 0.86492 0.0
N3670 N 0.95315 0.05433 0.89224 0.0
N3671 N 0.89898 0.12347 0.86207 0.0
H3672 H 0.96405 0.10409 0.8485 0.0
H3673 H 0.93992 0.12564 0.8477 0.0
H3674 H 0.88197 0.13037 0.86563 0.0
H3675 H 0.90165 0.12589 0.85135 0.0
H3676 H 0.94617 0.04611 0.90131 0.0
H3677 H 0.96789 0.04449 0.88778 0.0
H3678 H 0.92834 0.07359 0.91297 0.0
H3679 H 0.90236 0.09274 0.91134 0.0
C3680 C 0.85088 0.70355 0.63183 0.0
C3681 C 0.82699 0.70164 0.62557 0.0
C3682 C 0.82692 0.6566 0.62977 0.0
C3683 C 0.84996 0.65888 0.63694 0.0
N3684 N 0.88138 0.68502 0.64734 0.0
N3685 N 0.79027 0.67744 0.62063 0.0
C3686 C 0.86117 0.68254 0.63875 0.0
C3687 C 0.81439 0.67845 0.62515 0.0
N3688 N 0.86423 0.72511 0.63065 0.0
N3689 N 0.81749 0.63352 0.62691 0.0
H3690 H 0.7806 0.69308 0.61712 0.0
H3691 H 0.77921 0.66161 0.62144 0.0
H3692 H 0.82602 0.61711 0.63021 0.0
H3693 H 0.80227 0.63055 0.62038 0.0
H3694 H 0.8828 0.72668 0.63364 0.0
H3695 H 0.85754 0.7409 0.62553 0.0
H3696 H 0.88877 0.70217 0.65024 0.0
H3697 H 0.88937 0.67004 0.65264 0.0
C3698 C 0.57376 0.58941 0.89667 0.0
C3699 C 0.59475 0.59434 0.88809 0.0
C3700 C 0.57315 0.57709 0.86765 0.0
C3701 C 0.55207 0.57235 0.8762 0.0
N3702 N 0.53343 0.56939 0.89909 0.0
N3703 N 0.61675 0.58876 0.86633 0.0
C3704 C 0.55281 0.57696 0.89083 0.0
C3705 C 0.59517 0.58679 0.87385 0.0
N3706 N 0.57356 0.59754 0.91025 0.0
N3707 N 0.57174 0.5731 0.85352 0.0
H3708 H 0.6331 0.59617 0.87049 0.0
H3709 H 0.61915 0.58137 0.85634 0.0
H3710 H 0.55637 0.56484 0.84873 0.0
H3711 H 0.58515 0.57904 0.84641 0.0
H3712 H 0.5579 0.59722 0.91666 0.0
H3713 H 0.58891 0.60595 0.91498 0.0
H3714 H 0.5337 0.56993 0.90998 0.0
H3715 H 0.51759 0.56075 0.89507 0.0
C3716 C 0.64182 0.3362 0.12301 0.0
C3717 C 0.65144 0.34591 0.13574 0.0
C3718 C 0.68343 0.31329 0.13622 0.0
C3719 C 0.67242 0.30236 0.12419 0.0
N3720 N 0.6402 0.3017 0.10662 0.0
N3721 N 0.68003 0.34341 0.15512 0.0
C3722 C 0.65144 0.31344 0.11766 0.0
C3723 C 0.67195 0.33442 0.14251 0.0
N3724 N 0.62365 0.34892 0.11596 0.0
N3725 N 0.70506 0.30364 0.14145 0.0
H3726 H 0.67269 0.3594 0.15974 0.0
H3727 H 0.69298 0.33438 0.16143 0.0
H3728 H 0.71364 0.28791 0.13724 0.0
H3729 H 0.71551 0.31205 0.14931 0.0
H3730 H 0.61785 0.34453 0.10586 0.0
H3731 H 0.61535 0.36507 0.11982 0.0
H3732 H 0.62313 0.30704 0.10245 0.0
H3733 H 0.64721 0.28551 0.10207 0.0
C3734 C 0.91488 0.38936 0.37289 0.0
C3735 C 0.90273 0.40059 0.38447 0.0
C3736 C 0.93218 0.43545 0.38372 0.0
C3737 C 0.94578 0.4229 0.37312 0.0
N3738 N 0.9523 0.38645 0.35882 0.0
N3739 N 0.9007 0.4329 0.40193 0.0
C3740 C 0.93769 0.39948 0.36798 0.0
C3741 C 0.91156 0.42333 0.39014 0.0
N3742 N 0.9043 0.36931 0.36637 0.0
N3743 N 0.9387 0.45915 0.38741 0.0
H3744 H 0.88529 0.42475 0.40673 0.0
H3745 H 0.90791 0.44789 0.40751 0.0
H3746 H 0.95382 0.46844 0.38297 0.0
H3747 H 0.9281 0.47034 0.39401 0.0
H3748 H 0.91075 0.36201 0.35695 0.0
H3749 H 0.88772 0.36118 0.36975 0.0
H3750 H 0.94888 0.36806 0.35598 0.0
H3751 H 0.96903 0.39328 0.35483 0.0
C3752 C 0.85515 0.34043 0.88008 0.0
C3753 C 0.84943 0.34684 0.86603 0.0
C3754 C 0.8196 0.31238 0.86486 0.0
C3755 C 0.82786 0.30405 0.87819 0.0
N3756 N 0.85611 0.30812 0.89774 0.0
N3757 N 0.82824 0.33764 0.84437 0.0
C3758 C 0.84625 0.31761 0.88566 0.0
C3759 C 0.83207 0.33255 0.85824 0.0
N3760 N 0.86868 0.35643 0.8882 0.0
N3761 N 0.79952 0.30128 0.85869 0.0
H3762 H 0.83692 0.35235 0.83919 0.0
H3763 H 0.81797 0.32619 0.83774 0.0
H3764 H 0.78989 0.28655 0.8633 0.0
H3765 H 0.79103 0.30806 0.84965 0.0
H3766 H 0.87122 0.354 0.89893 0.0
H3767 H 0.87541 0.37342 0.8845 0.0
H3768 H 0.87153 0.31576 0.90274 0.0
H3769 H 0.85028 0.29137 0.90216 0.0
C3770 C 0.94038 0.56912 0.11483 0.0
C3771 C 0.9518 0.58069 0.12655 0.0
C3772 C 0.9182 0.61148 0.12744 0.0
C3773 C 0.90836 0.60165 0.11481 0.0
N3774 N 0.91155 0.57311 0.0954 0.0
N3775 N 0.95398 0.61519 0.14271 0.0
C3776 C 0.91981 0.58094 0.10821 0.0
C3777 C 0.94133 0.60248 0.13254 0.0
N3778 N 0.94883 0.54654 0.11027 0.0
N3779 N 0.90507 0.62893 0.1348 0.0
H3780 H 0.97106 0.60933 0.14671 0.0
H3781 H 0.94863 0.63267 0.14632 0.0
H3782 H 0.88796 0.63592 0.13145 0.0
H3783 H 0.90997 0.6348 0.14482 0.0
H3784 H 0.93972 0.53592 0.10273 0.0
H3785 H 0.96385 0.53737 0.11489 0.0
H3786 H 0.9208 0.55991 0.08935 0.0
H3787 H 0.89644 0.58123 0.09028 0.0
C3788 C 0.6695 0.66885 0.35967 0.0
C3789 C 0.64839 0.65772 0.36602 0.0
C3790 C 0.64752 0.69046 0.38391 0.0
C3791 C 0.66952 0.70077 0.37807 0.0
N3792 N 0.70371 0.69814 0.36182 0.0
N3793 N 0.61951 0.65518 0.38531 0.0
C3794 C 0.68117 0.68948 0.36634 0.0
C3795 C 0.63806 0.66772 0.37849 0.0
N3796 N 0.67799 0.66003 0.34711 0.0
N3797 N 0.63511 0.70293 0.39426 0.0
H3798 H 0.61158 0.63882 0.38148 0.0
H3799 H 0.61322 0.65989 0.39528 0.0
H3800 H 0.64154 0.71951 0.39864 0.0
H3801 H 0.61748 0.69795 0.39781 0.0
H3802 H 0.69152 0.66893 0.34114 0.0
H3803 H 0.67026 0.64457 0.34214 0.0
H3804 H 0.71447 0.68925 0.35426 0.0
H3805 H 0.71268 0.71329 0.36643 0.0
C3806 C 0.59343 0.41412 0.6248 0.0
C3807 C 0.59135 0.40172 0.61173 0.0
C3808 C 0.5476 0.41425 0.61007 0.0
C3809 C 0.54882 0.42345 0.62398 0.0
N3810 N 0.57211 0.43024 0.64525 0.0
N3811 N 0.56625 0.38798 0.59228 0.0
C3812 C 0.57159 0.4231 0.6315 0.0
C3813 C 0.56842 0.40142 0.60438 0.0
N3814 N 0.61636 0.41758 0.63069 0.0
N3815 N 0.52665 0.41815 0.60225 0.0
H3816 H 0.58117 0.37862 0.58768 0.0
H3817 H 0.54934 0.38463 0.5873 0.0
H3818 H 0.51113 0.42758 0.60611 0.0
H3819 H 0.52543 0.41407 0.59161 0.0
H3820 H 0.61941 0.42864 0.63948 0.0
H3821 H 0.63275 0.41122 0.62604 0.0
H3822 H 0.58745 0.42765 0.65175 0.0
H3823 H 0.55657 0.43713 0.65051 0.0
C3824 C 0.16589 0.34519 0.37239 0.0
C3825 C 0.14336 0.34321 0.36468 0.0
C3826 C 0.14284 0.29812 0.36878 0.0
C3827 C 0.16593 0.30008 0.37595 0.0
N3828 N 0.20039 0.32529 0.38387 0.0
N3829 N 0.11293 0.31742 0.35314 0.0
C3830 C 0.17775 0.3235 0.37744 0.0
C3831 C 0.13257 0.31952 0.36218 0.0
N3832 N 0.17651 0.36763 0.37526 0.0
N3833 N 0.1301 0.27609 0.36887 0.0
H3834 H 0.10497 0.33267 0.34807 0.0
H3835 H 0.10593 0.30044 0.34967 0.0
H3836 H 0.13686 0.26 0.37365 0.0
H3837 H 0.11192 0.27421 0.36527 0.0
H3838 H 0.16903 0.38474 0.37226 0.0
H3839 H 0.16903 0.38474 0.37226 0.0
H3840 H 0.20957 0.34225 0.38519 0.0
H3841 H 0.21022 0.30985 0.38752 0.0
C3842 C 0.41212 0.39785 0.13001 0.0
C3843 C 0.40865 0.39847 0.11527 0.0
C3844 C 0.44869 0.41974 0.11232 0.0
C3845 C 0.45172 0.4199 0.12709 0.0
N3846 N 0.43478 0.41345 0.15017 0.0
N3847 N 0.421 0.41341 0.09252 0.0
C3848 C 0.43291 0.41028 0.13599 0.0
C3849 C 0.42615 0.41051 0.10646 0.0
N3850 N 0.39601 0.3846 0.13823 0.0
N3851 N 0.46775 0.42754 0.1039 0.0
H3852 H 0.40484 0.4065 0.08788 0.0
H3853 H 0.43168 0.42423 0.08577 0.0
H3854 H 0.48429 0.43494 0.10782 0.0
H3855 H 0.46794 0.42526 0.09307 0.0
H3856 H 0.39911 0.3809 0.14879 0.0
H3857 H 0.38021 0.37576 0.1343 0.0
H3858 H 0.42053 0.40924 0.15717 0.0
H3859 H 0.44989 0.42226 0.15491 0.0
C3860 C 0.31723 0.68596 0.86858 0.0
C3861 C 0.33224 0.7019 0.87691 0.0
C3862 C 0.36842 0.67526 0.87256 0.0
C3863 C 0.35288 0.65795 0.86554 0.0
N3864 N 0.3118 0.64483 0.85856 0.0
N3865 N 0.37089 0.70925 0.88912 0.0
C3866 C 0.32706 0.66275 0.86399 0.0
C3867 C 0.35752 0.69587 0.87954 0.0
N3868 N 0.2939 0.69336 0.86468 0.0
N3869 N 0.39371 0.67244 0.8722 0.0
H3870 H 0.36347 0.72424 0.89467 0.0
H3871 H 0.38854 0.70405 0.89255 0.0
H3872 H 0.40248 0.65778 0.86701 0.0
H3873 H 0.40605 0.68588 0.87587 0.0
H3874 H 0.28309 0.68377 0.85741 0.0
H3875 H 0.28612 0.71025 0.8678 0.0
H3876 H 0.29247 0.64617 0.85858 0.0
H3877 H 0.31836 0.62766 0.85505 0.0
C3878 C 0.06665 0.59645 0.63522 0.0
C3879 C 0.05312 0.57815 0.62771 0.0
C3880 C 0.08501 0.57797 0.60931 0.0
C3881 C 0.09699 0.5982 0.61606 0.0
N3882 N 0.0979 0.62892 0.6345 0.0
N3883 N 0.04766 0.55287 0.60708 0.0
C3884 C 0.08753 0.60798 0.62881 0.0
C3885 C 0.06188 0.56916 0.61463 0.0
N3886 N 0.05977 0.60245 0.64859 0.0
N3887 N 0.09602 0.56692 0.598 0.0
H3888 H 0.03089 0.54564 0.61078 0.0
H3889 H 0.05157 0.54778 0.59679 0.0
H3890 H 0.11284 0.5731 0.59378 0.0
H3891 H 0.08961 0.55051 0.59347 0.0
H3892 H 0.0704 0.61365 0.65518 0.0
H3893 H 0.04444 0.5945 0.65359 0.0
H3894 H 0.09008 0.63863 0.64284 0.0
H3895 H 0.11336 0.63785 0.63021 0.0
C3896 C 0.14058 0.68377 0.14314 0.0
C3897 C 0.14994 0.65999 0.1394 0.0
C3898 C 0.18326 0.67966 0.12571 0.0
C3899 C 0.17201 0.70314 0.12803 0.0
N3900 N 0.13942 0.728 0.13727 0.0
N3901 N 0.17853 0.63479 0.12601 0.0
C3902 C 0.15053 0.70525 0.13646 0.0
C3903 C 0.17096 0.65776 0.13045 0.0
N3904 N 0.12263 0.68571 0.15324 0.0
N3905 N 0.20597 0.6784 0.11931 0.0
H3906 H 0.17015 0.61831 0.12933 0.0
H3907 H 0.19189 0.6321 0.11826 0.0
H3908 H 0.21553 0.69419 0.11591 0.0
H3909 H 0.21634 0.66209 0.11852 0.0
H3910 H 0.11691 0.70253 0.15757 0.0
H3911 H 0.11497 0.67026 0.15826 0.0
H3912 H 0.12249 0.73149 0.14222 0.0
H3913 H 0.12249 0.73149 0.14222 0.0
C3914 C 0.08875 0.39763 0.8707 0.0
C3915 C 0.0928 0.39874 0.88538 0.0
C3916 C 0.05576 0.425 0.88806 0.0
C3917 C 0.0501 0.42128 0.8737 0.0
N3918 N 0.05931 0.40149 0.8516 0.0
N3919 N 0.07899 0.41107 0.9084 0.0
C3920 C 0.06615 0.40699 0.86505 0.0
C3921 C 0.07606 0.41191 0.89417 0.0
N3922 N 0.1068 0.38815 0.86213 0.0
N3923 N 0.04198 0.44141 0.89578 0.0
H3924 H 0.09371 0.40182 0.91325 0.0
H3925 H 0.06587 0.41791 0.91544 0.0
H3926 H 0.02695 0.45124 0.89162 0.0
H3927 H 0.04668 0.44691 0.9059 0.0
H3928 H 0.10607 0.38921 0.85125 0.0
H3929 H 0.12366 0.38121 0.86589 0.0
H3930 H 0.06878 0.38876 0.84534 0.0
H3931 H 0.04299 0.40812 0.84701 0.0
C3932 C 0.3464 0.31581 0.61574 0.0
C3933 C 0.33125 0.30005 0.62407 0.0
C3934 C 0.33493 0.32893 0.64389 0.0
C3935 C 0.35204 0.34334 0.636 0.0
N3936 N 0.37604 0.34984 0.61496 0.0
N3937 N 0.31234 0.29002 0.64626 0.0
C3938 C 0.35822 0.33668 0.62203 0.0
C3939 C 0.32573 0.30625 0.63819 0.0
N3940 N 0.34913 0.31098 0.60176 0.0
N3941 N 0.32724 0.33721 0.65672 0.0
H3942 H 0.30464 0.27365 0.64231 0.0
H3943 H 0.31005 0.29192 0.65703 0.0
H3944 H 0.33401 0.35349 0.66129 0.0
H3945 H 0.31289 0.32905 0.66242 0.0
H3946 H 0.35765 0.32313 0.59476 0.0
H3947 H 0.34117 0.29556 0.59686 0.0
H3948 H 0.38358 0.34425 0.60543 0.0
H3949 H 0.3846 0.36568 0.61904 0.0
C3950 C 0.43182 0.5909 0.36505 0.0
C3951 C 0.44954 0.57965 0.37407 0.0
C3952 C 0.42456 0.59136 0.39454 0.0
C3953 C 0.40628 0.60156 0.38547 0.0
N3954 N 0.38967 0.60612 0.36215 0.0
N3955 N 0.4606 0.56451 0.397 0.0
C3956 C 0.40905 0.59979 0.37072 0.0
C3957 C 0.4452 0.57842 0.38871 0.0
N3958 N 0.4372 0.5941 0.35116 0.0
N3959 N 0.42277 0.59499 0.40868 0.0
H3960 H 0.47589 0.55481 0.39305 0.0
H3961 H 0.45702 0.56077 0.40751 0.0
H3962 H 0.40789 0.60427 0.41336 0.0
H3963 H 0.4369 0.59049 0.4157 0.0
H3964 H 0.42631 0.60475 0.34442 0.0
H3965 H 0.45361 0.58775 0.34655 0.0
H3966 H 0.38962 0.60285 0.3514 0.0
H3967 H 0.37264 0.61255 0.36595 0.0
loop_
_geom_bond_atom_site_label_1
_geom_bond_atom_site_label_2
_geom_bond_distance
_geom_bond_site_symmetry_2
_ccdc_geom_bond_type
Li0 N17 1.990 . S
Li0 O60 1.956 . S
Li0 O61 1.970 . S
Li0 O62 1.961 . S
Li1 N25 1.990 . S
Li1 O60 1.970 . S
Li1 O61 1.956 . S
Li1 O63 1.961 . S
Li2 N47 1.990 1_545 S
Li2 O60 1.961 . S
Li2 O62 1.956 . S
Li2 O63 1.970 . S
Li3 N53 1.990 . S
Li3 O61 1.961 . S
Li3 O62 1.970 . S
Li3 O63 1.956 . S
C4 C6 1.348 . S
C4 C7 1.356 . S
C4 O60 1.325 1_565 S
N5 C8 1.314 . S
N5 C9 1.279 . S
C6 C4 1.348 . S
C6 C8 1.353 . S
C6 H64 0.929 . S
C7 C4 1.356 . S
C7 C9 1.358 . S
C7 H65 0.930 . S
C8 N5 1.314 . S
C8 C6 1.353 . S
C8 H66 0.930 . S
C9 N5 1.279 . S
C9 C7 1.358 . S
C9 H67 0.930 . S
C10 C13 1.348 . S
C10 C14 1.356 . S
C10 O61 1.325 . S
C11 N12 1.279 . S
C11 C14 1.358 . S
C11 H68 0.930 . S
N12 C11 1.279 . S
N12 C15 1.314 . S
C13 C10 1.348 . S
C13 C15 1.353 . S
C13 H69 0.929 . S
C14 C10 1.356 . S
C14 C11 1.358 . S
C14 H70 0.930 . S
C15 N12 1.314 . S
C15 C13 1.353 . S
C15 H71 0.930 . S
C16 N17 1.314 . S
C16 C21 1.353 . S
C16 H22 0.930 . S
N17 Li0 1.990 . S
N17 C16 1.314 . S
N17 C19 1.279 . S
C18 C19 1.358 . S
C18 C20 1.356 . S
C18 H72 0.930 . S
C19 N17 1.279 . S
C19 C18 1.358 . S
C19 H23 0.930 . S
C20 C18 1.356 . S
C20 C21 1.348 . S
C21 C16 1.353 . S
C21 C20 1.348 . S
C21 H73 0.929 . S
H22 C16 0.930 . S
H23 C19 0.930 . S
C24 N25 1.314 . S
C24 C26 1.353 . S
C24 H30 0.930 . S
N25 Li1 1.990 . S
N25 C24 1.314 . S
N25 C28 1.279 . S
C26 C24 1.353 . S
C26 C29 1.348 . S
C26 H74 0.929 1_545 S
C27 C28 1.358 . S
C27 C29 1.356 . S
C27 H75 0.930 . S
C28 N25 1.279 . S
C28 C27 1.358 . S
C28 H31 0.930 . S
C29 C26 1.348 . S
C29 C27 1.356 . S
H30 C24 0.930 . S
H31 C28 0.930 . S
C32 C34 1.348 . S
C32 C35 1.356 . S
C32 O62 1.325 . S
N33 C36 1.314 . S
N33 C37 1.279 . S
C34 C32 1.348 . S
C34 C36 1.353 . S
C34 H76 0.929 . S
C35 C32 1.356 . S
C35 C37 1.358 . S
C35 H77 0.930 . S
C36 N33 1.314 . S
C36 C34 1.353 . S
C36 H78 0.930 . S
C37 N33 1.279 . S
C37 C35 1.358 . S
C37 H79 0.930 . S
C38 C39 1.348 . S
C38 C40 1.356 . S
C38 O63 1.325 . S
C39 C38 1.348 . S
C39 C41 1.353 . S
C39 H80 0.929 . S
C40 C38 1.356 . S
C40 C42 1.358 . S
C40 H81 0.930 . S
C41 C39 1.353 . S
C41 N43 1.314 . S
C41 H82 0.930 . S
C42 C40 1.358 . S
C42 N43 1.279 . S
C42 H83 0.930 . S
N43 C41 1.314 . S
N43 C42 1.279 . S
C44 C46 1.353 . S
C44 N47 1.314 . S
C44 H50 0.930 . S
C45 N47 1.279 . S
C45 C48 1.358 . S
C45 H51 0.930 . S
C46 C44 1.353 . S
C46 C49 1.348 . S
C46 H84 0.929 . S
N47 Li2 1.990 1_565 S
N47 C44 1.314 . S
N47 C45 1.279 . S
C48 C45 1.358 . S
C48 C49 1.356 . S
C48 H85 0.930 . S
C49 C46 1.348 . S
C49 C48 1.356 . S
H50 C44 0.930 . S
H51 C45 0.930 . S
C52 N53 1.314 . S
C52 C54 1.353 . S
C52 H58 0.930 . S
N53 Li3 1.990 . S
N53 C52 1.314 . S
N53 C56 1.279 . S
C54 C52 1.353 . S
C54 C57 1.348 . S
C54 H86 0.929 . S
C55 C56 1.358 . S
C55 C57 1.356 . S
C55 H87 0.930 . S
C56 N53 1.279 . S
C56 C55 1.358 . S
C56 H59 0.930 . S
C57 C54 1.348 . S
C57 C55 1.356 . S
H58 C52 0.930 . S
H59 C56 0.930 . S
O60 Li0 1.956 . S
O60 Li1 1.970 . S
O60 Li2 1.961 . S
O60 C4 1.325 1_545 S
O61 Li0 1.970 . S
O61 Li1 1.956 . S
O61 Li3 1.961 . S
O61 C10 1.325 . S
O62 Li0 1.961 . S
O62 Li2 1.956 . S
O62 Li3 1.970 . S
O62 C32 1.325 . S
O63 Li1 1.961 . S
O63 Li2 1.970 . S
O63 Li3 1.956 . S
O63 C38 1.325 . S
H64 C6 0.929 . S
H65 C7 0.930 . S
H66 C8 0.930 . S
H67 C9 0.930 . S
H68 C11 0.930 . S
H69 C13 0.929 . S
H70 C14 0.930 . S
H71 C15 0.930 . S
H72 C18 0.930 . S
H73 C21 0.929 . S
H74 C26 0.929 1_565 S
H75 C27 0.930 . S
H76 C34 0.929 . S
H77 C35 0.930 . S
H78 C36 0.930 . S
H79 C37 0.930 . S
H80 C39 0.929 . S
H81 C40 0.930 . S
H82 C41 0.930 . S
H83 C42 0.930 . S
H84 C46 0.929 . S
H85 C48 0.930 . S
H86 C54 0.929 . S
H87 C55 0.930 . S
Li88 N105 1.990 . S
Li88 O148 1.956 . S
Li88 O149 1.970 . S
Li88 O150 1.961 . S
Li89 N113 1.990 . S
Li89 O148 1.970 . S
Li89 O149 1.956 . S
Li89 O151 1.961 . S
Li90 N135 1.990 . S
Li90 O148 1.961 . S
Li90 O150 1.956 . S
Li90 O151 1.970 . S
Li91 N141 1.990 . S
Li91 O149 1.961 . S
Li91 O150 1.970 . S
Li91 O151 1.956 . S
C92 C94 1.348 . S
C92 C95 1.356 . S
C92 O148 1.325 . S
N93 C96 1.314 . S
N93 C97 1.279 . S
C94 C92 1.348 . S
C94 C96 1.353 . S
C94 H152 0.929 . S
C95 C92 1.356 . S
C95 C97 1.358 . S
C95 H153 0.930 . S
C96 N93 1.314 . S
C96 C94 1.353 . S
C96 H154 0.930 . S
C97 N93 1.279 . S
C97 C95 1.358 . S
C97 H155 0.930 . S
C98 C101 1.348 . S
C98 C102 1.356 . S
C98 O149 1.325 . S
C99 N100 1.279 . S
C99 C102 1.358 . S
C99 H156 0.930 . S
N100 C99 1.279 . S
N100 C103 1.314 . S
C101 C98 1.348 . S
C101 C103 1.353 . S
C101 H157 0.929 . S
C102 C98 1.356 . S
C102 C99 1.358 . S
C102 H158 0.930 . S
C103 N100 1.314 . S
C103 C101 1.353 . S
C103 H159 0.930 . S
C104 N105 1.314 . S
C104 C109 1.353 . S
C104 H110 0.930 . S
N105 Li88 1.990 . S
N105 C104 1.314 . S
N105 C107 1.279 . S
C106 C107 1.358 . S
C106 C108 1.356 . S
C106 H160 0.930 . S
C107 N105 1.279 . S
C107 C106 1.358 . S
C107 H111 0.930 . S
C108 C106 1.356 . S
C108 C109 1.348 . S
C109 C104 1.353 . S
C109 C108 1.348 . S
C109 H161 0.929 . S
H110 C104 0.930 . S
H111 C107 0.930 . S
C112 N113 1.314 . S
C112 C114 1.353 . S
C112 H118 0.930 . S
N113 Li89 1.990 . S
N113 C112 1.314 . S
N113 C116 1.279 . S
C114 C112 1.353 . S
C114 C117 1.348 . S
C114 H162 0.929 . S
C115 C116 1.358 . S
C115 C117 1.356 . S
C115 H163 0.930 . S
C116 N113 1.279 . S
C116 C115 1.358 . S
C116 H119 0.930 . S
C117 C114 1.348 . S
C117 C115 1.356 . S
H118 C112 0.930 . S
H119 C116 0.930 . S
C120 C122 1.348 . S
C120 C123 1.356 . S
C120 O150 1.325 . S
N121 C124 1.314 . S
N121 C125 1.279 . S
C122 C120 1.348 . S
C122 C124 1.353 . S
C122 H164 0.929 . S
C123 C120 1.356 . S
C123 C125 1.358 . S
C123 H165 0.930 . S
C124 N121 1.314 . S
C124 C122 1.353 . S
C124 H166 0.930 . S
C125 N121 1.279 . S
C125 C123 1.358 . S
C125 H167 0.930 . S
C126 C127 1.348 . S
C126 C128 1.356 . S
C126 O151 1.325 . S
C127 C126 1.348 . S
C127 C129 1.353 . S
C127 H168 0.929 . S
C128 C126 1.356 . S
C128 C130 1.358 . S
C128 H169 0.930 . S
C129 C127 1.353 . S
C129 N131 1.314 . S
C129 H170 0.930 . S
C130 C128 1.358 . S
C130 N131 1.279 . S
C130 H171 0.930 . S
N131 C129 1.314 . S
N131 C130 1.279 . S
C132 C134 1.353 . S
C132 N135 1.314 . S
C132 H138 0.930 . S
C133 N135 1.279 . S
C133 C136 1.358 . S
C133 H139 0.930 . S
C134 C132 1.353 . S
C134 C137 1.348 . S
C134 H172 0.929 . S
N135 Li90 1.990 . S
N135 C132 1.314 . S
N135 C133 1.279 . S
C136 C133 1.358 . S
C136 C137 1.356 . S
C136 H173 0.930 . S
C137 C134 1.348 . S
C137 C136 1.356 . S
H138 C132 0.930 . S
H139 C133 0.930 . S
C140 N141 1.314 . S
C140 C142 1.353 . S
C140 H146 0.930 . S
N141 Li91 1.990 . S
N141 C140 1.314 . S
N141 C144 1.279 . S
C142 C140 1.353 . S
C142 C145 1.348 . S
C142 H174 0.929 . S
C143 C144 1.358 . S
C143 C145 1.356 . S
C143 H175 0.930 . S
C144 N141 1.279 . S
C144 C143 1.358 . S
C144 H147 0.930 . S
C145 C142 1.348 . S
C145 C143 1.356 . S
H146 C140 0.930 . S
H147 C144 0.930 . S
O148 Li88 1.956 . S
O148 Li89 1.970 . S
O148 Li90 1.961 . S
O148 C92 1.325 . S
O149 Li88 1.970 . S
O149 Li89 1.956 . S
O149 Li91 1.961 . S
O149 C98 1.325 . S
O150 Li88 1.961 . S
O150 Li90 1.956 . S
O150 Li91 1.970 . S
O150 C120 1.325 . S
O151 Li89 1.961 . S
O151 Li90 1.970 . S
O151 Li91 1.956 . S
O151 C126 1.325 . S
H152 C94 0.929 . S
H153 C95 0.930 . S
H154 C96 0.930 . S
H155 C97 0.930 . S
H156 C99 0.930 . S
H157 C101 0.929 . S
H158 C102 0.930 . S
H159 C103 0.930 . S
H160 C106 0.930 . S
H161 C109 0.929 . S
H162 C114 0.929 . S
H163 C115 0.930 . S
H164 C122 0.929 . S
H165 C123 0.930 . S
H166 C124 0.930 . S
H167 C125 0.930 . S
H168 C127 0.929 . S
H169 C128 0.930 . S
H170 C129 0.930 . S
H171 C130 0.930 . S
H172 C134 0.929 . S
H173 C136 0.930 . S
H174 C142 0.929 . S
H175 C143 0.930 . S
Li176 N193 1.990 . S
Li176 O236 1.956 . S
Li176 O237 1.970 . S
Li176 O238 1.961 . S
Li177 N201 1.990 . S
Li177 O236 1.970 . S
Li177 O237 1.956 . S
Li177 O239 1.961 . S
Li178 N223 1.990 1_565 S
Li178 O236 1.961 . S
Li178 O238 1.956 . S
Li178 O239 1.970 . S
Li179 N229 1.990 . S
Li179 O237 1.961 . S
Li179 O238 1.970 . S
Li179 O239 1.956 . S
C180 C182 1.348 . S
C180 C183 1.356 . S
C180 O236 1.325 1_545 S
N181 C184 1.314 . S
N181 C185 1.279 . S
C182 C180 1.348 . S
C182 C184 1.353 . S
C182 H240 0.929 . S
C183 C180 1.356 . S
C183 C185 1.358 . S
C183 H241 0.930 . S
C184 N181 1.314 . S
C184 C182 1.353 . S
C184 H242 0.930 . S
C185 N181 1.279 . S
C185 C183 1.358 . S
C185 H243 0.930 . S
C186 C189 1.348 . S
C186 C190 1.356 . S
C186 O237 1.325 . S
C187 N188 1.279 . S
C187 C190 1.358 . S
C187 H244 0.930 . S
N188 C187 1.279 . S
N188 C191 1.314 . S
C189 C186 1.348 . S
C189 C191 1.353 . S
C189 H245 0.929 . S
C190 C186 1.356 . S
C190 C187 1.358 . S
C190 H246 0.930 . S
C191 N188 1.314 . S
C191 C189 1.353 . S
C191 H247 0.930 . S
C192 N193 1.314 . S
C192 C197 1.353 1_455 S
C192 H198 0.930 . S
N193 Li176 1.990 . S
N193 C192 1.314 . S
N193 C195 1.279 . S
C194 C195 1.358 1_655 S
C194 C196 1.356 . S
C194 H248 0.930 . S
C195 N193 1.279 . S
C195 C194 1.358 1_455 S
C195 H199 0.930 . S
C196 C194 1.356 . S
C196 C197 1.348 . S
C197 C192 1.353 1_655 S
C197 C196 1.348 . S
C197 H249 0.929 . S
H198 C192 0.930 . S
H199 C195 0.930 . S
C200 N201 1.314 . S
C200 C202 1.353 . S
C200 H206 0.930 . S
N201 Li177 1.990 . S
N201 C200 1.314 . S
N201 C204 1.279 . S
C202 C200 1.353 . S
C202 C205 1.348 . S
C202 H250 0.929 1_565 S
C203 C204 1.358 . S
C203 C205 1.356 . S
C203 H251 0.930 . S
C204 N201 1.279 . S
C204 C203 1.358 . S
C204 H207 0.930 . S
C205 C202 1.348 . S
C205 C203 1.356 . S
H206 C200 0.930 . S
H207 C204 0.930 . S
C208 C210 1.348 . S
C208 C211 1.356 . S
C208 O238 1.325 . S
N209 C212 1.314 . S
N209 C213 1.279 . S
C210 C208 1.348 . S
C210 C212 1.353 . S
C210 H252 0.929 . S
C211 C208 1.356 . S
C211 C213 1.358 . S
C211 H253 0.930 . S
C212 N209 1.314 . S
C212 C210 1.353 . S
C212 H254 0.930 . S
C213 N209 1.279 . S
C213 C211 1.358 . S
C213 H255 0.930 . S
C214 C215 1.348 . S
C214 C216 1.356 . S
C214 O239 1.325 . S
C215 C214 1.348 . S
C215 C217 1.353 . S
C215 H256 0.929 . S
C216 C214 1.356 . S
C216 C218 1.358 . S
C216 H257 0.930 . S
C217 C215 1.353 . S
C217 N219 1.314 . S
C217 H258 0.930 . S
C218 C216 1.358 . S
C218 N219 1.279 . S
C218 H259 0.930 . S
N219 C217 1.314 . S
N219 C218 1.279 . S
C220 C222 1.353 . S
C220 N223 1.314 . S
C220 H226 0.930 . S
C221 N223 1.279 . S
C221 C224 1.358 . S
C221 H227 0.930 . S
C222 C220 1.353 . S
C222 C225 1.348 . S
C222 H260 0.929 . S
N223 Li178 1.990 1_545 S
N223 C220 1.314 . S
N223 C221 1.279 . S
C224 C221 1.358 . S
C224 C225 1.356 . S
C224 H261 0.930 . S
C225 C222 1.348 . S
C225 C224 1.356 . S
H226 C220 0.930 . S
H227 C221 0.930 . S
C228 N229 1.314 . S
C228 C230 1.353 . S
C228 H234 0.930 . S
N229 Li179 1.990 . S
N229 C228 1.314 . S
N229 C232 1.279 . S
C230 C228 1.353 . S
C230 C233 1.348 . S
C230 H262 0.929 . S
C231 C232 1.358 . S
C231 C233 1.356 . S
C231 H263 0.930 . S
C232 N229 1.279 . S
C232 C231 1.358 . S
C232 H235 0.930 . S
C233 C230 1.348 . S
C233 C231 1.356 . S
H234 C228 0.930 . S
H235 C232 0.930 . S
O236 Li176 1.956 . S
O236 Li177 1.970 . S
O236 Li178 1.961 . S
O236 C180 1.325 1_565 S
O237 Li176 1.970 . S
O237 Li177 1.956 . S
O237 Li179 1.961 . S
O237 C186 1.325 . S
O238 Li176 1.961 . S
O238 Li178 1.956 . S
O238 Li179 1.970 . S
O238 C208 1.325 . S
O239 Li177 1.961 . S
O239 Li178 1.970 . S
O239 Li179 1.956 . S
O239 C214 1.325 . S
H240 C182 0.929 . S
H241 C183 0.930 . S
H242 C184 0.930 . S
H243 C185 0.930 . S
H244 C187 0.930 . S
H245 C189 0.929 . S
H246 C190 0.930 . S
H247 C191 0.930 . S
H248 C194 0.930 . S
H249 C197 0.929 . S
H250 C202 0.929 1_545 S
H251 C203 0.930 . S
H252 C210 0.929 . S
H253 C211 0.930 . S
H254 C212 0.930 . S
H255 C213 0.930 . S
H256 C215 0.929 . S
H257 C216 0.930 . S
H258 C217 0.930 . S
H259 C218 0.930 . S
H260 C222 0.929 . S
H261 C224 0.930 . S
H262 C230 0.929 . S
H263 C231 0.930 . S
Li264 N281 1.990 . S
Li264 O324 1.956 . S
Li264 O325 1.970 . S
Li264 O326 1.961 . S
Li265 N289 1.990 . S
Li265 O324 1.970 . S
Li265 O325 1.956 . S
Li265 O327 1.961 . S
Li266 N311 1.990 . S
Li266 O324 1.961 . S
Li266 O326 1.956 . S
Li266 O327 1.970 . S
Li267 N317 1.990 . S
Li267 O325 1.961 . S
Li267 O326 1.970 . S
Li267 O327 1.956 . S
C268 C270 1.348 . S
C268 C271 1.356 . S
C268 O324 1.325 . S
N269 C272 1.314 . S
N269 C273 1.279 . S
C270 C268 1.348 . S
C270 C272 1.353 . S
C270 H328 0.929 . S
C271 C268 1.356 . S
C271 C273 1.358 . S
C271 H329 0.930 . S
C272 N269 1.314 . S
C272 C270 1.353 . S
C272 H330 0.930 . S
C273 N269 1.279 . S
C273 C271 1.358 . S
C273 H331 0.930 . S
C274 C277 1.348 . S
C274 C278 1.356 . S
C274 O325 1.325 . S
C275 N276 1.279 . S
C275 C278 1.358 . S
C275 H332 0.930 . S
N276 C275 1.279 . S
N276 C279 1.314 . S
C277 C274 1.348 . S
C277 C279 1.353 . S
C277 H333 0.929 . S
C278 C274 1.356 . S
C278 C275 1.358 . S
C278 H334 0.930 . S
C279 N276 1.314 . S
C279 C277 1.353 . S
C279 H335 0.930 . S
C280 N281 1.314 . S
C280 C285 1.353 . S
C280 H286 0.930 . S
N281 Li264 1.990 . S
N281 C280 1.314 . S
N281 C283 1.279 . S
C282 C283 1.358 . S
C282 C284 1.356 . S
C282 H336 0.930 . S
C283 N281 1.279 . S
C283 C282 1.358 . S
C283 H287 0.930 . S
C284 C282 1.356 . S
C284 C285 1.348 . S
C285 C280 1.353 . S
C285 C284 1.348 . S
C285 H337 0.929 . S
H286 C280 0.930 . S
H287 C283 0.930 . S
C288 N289 1.314 . S
C288 C290 1.353 . S
C288 H294 0.930 . S
N289 Li265 1.990 . S
N289 C288 1.314 . S
N289 C292 1.279 . S
C290 C288 1.353 . S
C290 C293 1.348 . S
C290 H338 0.929 . S
C291 C292 1.358 . S
C291 C293 1.356 . S
C291 H339 0.930 . S
C292 N289 1.279 . S
C292 C291 1.358 . S
C292 H295 0.930 . S
C293 C290 1.348 . S
C293 C291 1.356 . S
H294 C288 0.930 . S
H295 C292 0.930 . S
C296 C298 1.348 . S
C296 C299 1.356 . S
C296 O326 1.325 . S
N297 C300 1.314 . S
N297 C301 1.279 . S
C298 C296 1.348 . S
C298 C300 1.353 . S
C298 H340 0.929 . S
C299 C296 1.356 . S
C299 C301 1.358 . S
C299 H341 0.930 . S
C300 N297 1.314 . S
C300 C298 1.353 . S
C300 H342 0.930 . S
C301 N297 1.279 . S
C301 C299 1.358 . S
C301 H343 0.930 . S
C302 C303 1.348 . S
C302 C304 1.356 . S
C302 O327 1.325 . S
C303 C302 1.348 . S
C303 C305 1.353 . S
C303 H344 0.929 . S
C304 C302 1.356 . S
C304 C306 1.358 . S
C304 H345 0.930 . S
C305 C303 1.353 . S
C305 N307 1.314 . S
C305 H346 0.930 . S
C306 C304 1.358 . S
C306 N307 1.279 . S
C306 H347 0.930 . S
N307 C305 1.314 . S
N307 C306 1.279 . S
C308 C310 1.353 . S
C308 N311 1.314 . S
C308 H314 0.930 . S
C309 N311 1.279 . S
C309 C312 1.358 . S
C309 H315 0.930 . S
C310 C308 1.353 . S
C310 C313 1.348 . S
C310 H348 0.929 . S
N311 Li266 1.990 . S
N311 C308 1.314 . S
N311 C309 1.279 . S
C312 C309 1.358 . S
C312 C313 1.356 . S
C312 H349 0.930 . S
C313 C310 1.348 . S
C313 C312 1.356 . S
H314 C308 0.930 . S
H315 C309 0.930 . S
C316 N317 1.314 . S
C316 C318 1.353 . S
C316 H322 0.930 . S
N317 Li267 1.990 . S
N317 C316 1.314 . S
N317 C320 1.279 . S
C318 C316 1.353 . S
C318 C321 1.348 . S
C318 H350 0.929 . S
C319 C320 1.358 . S
C319 C321 1.356 . S
C319 H351 0.930 . S
C320 N317 1.279 . S
C320 C319 1.358 . S
C320 H323 0.930 . S
C321 C318 1.348 . S
C321 C319 1.356 . S
H322 C316 0.930 . S
H323 C320 0.930 . S
O324 Li264 1.956 . S
O324 Li265 1.970 . S
O324 Li266 1.961 . S
O324 C268 1.325 . S
O325 Li264 1.970 . S
O325 Li265 1.956 . S
O325 Li267 1.961 . S
O325 C274 1.325 . S
O326 Li264 1.961 . S
O326 Li266 1.956 . S
O326 Li267 1.970 . S
O326 C296 1.325 . S
O327 Li265 1.961 . S
O327 Li266 1.970 . S
O327 Li267 1.956 . S
O327 C302 1.325 . S
H328 C270 0.929 . S
H329 C271 0.930 . S
H330 C272 0.930 . S
H331 C273 0.930 . S
H332 C275 0.930 . S
H333 C277 0.929 . S
H334 C278 0.930 . S
H335 C279 0.930 . S
H336 C282 0.930 . S
H337 C285 0.929 . S
H338 C290 0.929 . S
H339 C291 0.930 . S
H340 C298 0.929 . S
H341 C299 0.930 . S
H342 C300 0.930 . S
H343 C301 0.930 . S
H344 C303 0.929 . S
H345 C304 0.930 . S
H346 C305 0.930 . S
H347 C306 0.930 . S
H348 C310 0.929 . S
H349 C312 0.930 . S
H350 C318 0.929 . S
H351 C319 0.930 . S
Li352 N369 1.990 1_565 S
Li352 O412 1.956 . S
Li352 O413 1.970 . S
Li352 O414 1.961 . S
Li353 N377 1.990 . S
Li353 O412 1.970 . S
Li353 O413 1.956 . S
Li353 O415 1.961 . S
Li354 N399 1.990 . S
Li354 O412 1.961 . S
Li354 O414 1.956 . S
Li354 O415 1.970 . S
Li355 N405 1.990 . S
Li355 O413 1.961 . S
Li355 O414 1.970 . S
Li355 O415 1.956 . S
C356 C358 1.348 . S
C356 C359 1.356 . S
C356 O412 1.325 . S
N357 C360 1.314 . S
N357 C361 1.279 . S
C358 C356 1.348 . S
C358 C360 1.353 . S
C358 H416 0.929 . S
C359 C356 1.356 . S
C359 C361 1.358 . S
C359 H417 0.930 . S
C360 N357 1.314 . S
C360 C358 1.353 . S
C360 H418 0.930 . S
C361 N357 1.279 . S
C361 C359 1.358 . S
C361 H419 0.930 . S
C362 C365 1.348 . S
C362 C366 1.356 . S
C362 O413 1.325 . S
C363 N364 1.279 . S
C363 C366 1.358 . S
C363 H420 0.930 . S
N364 C363 1.279 . S
N364 C367 1.314 . S
C365 C362 1.348 . S
C365 C367 1.353 . S
C365 H421 0.929 . S
C366 C362 1.356 . S
C366 C363 1.358 . S
C366 H422 0.930 . S
C367 N364 1.314 . S
C367 C365 1.353 . S
C367 H423 0.930 . S
C368 N369 1.314 . S
C368 C373 1.353 . S
C368 H374 0.930 . S
N369 Li352 1.990 1_545 S
N369 C368 1.314 . S
N369 C371 1.279 . S
C370 C371 1.358 . S
C370 C372 1.356 . S
C370 H424 0.930 . S
C371 N369 1.279 . S
C371 C370 1.358 . S
C371 H375 0.930 . S
C372 C370 1.356 . S
C372 C373 1.348 . S
C373 C368 1.353 . S
C373 C372 1.348 . S
C373 H425 0.929 . S
H374 C368 0.930 . S
H375 C371 0.930 . S
C376 N377 1.314 . S
C376 C378 1.353 . S
C376 H382 0.930 . S
N377 Li353 1.990 . S
N377 C376 1.314 . S
N377 C380 1.279 . S
C378 C376 1.353 . S
C378 C381 1.348 . S
C378 H426 0.929 . S
C379 C380 1.358 . S
C379 C381 1.356 . S
C379 H427 0.930 . S
C380 N377 1.279 . S
C380 C379 1.358 . S
C380 H383 0.930 . S
C381 C378 1.348 . S
C381 C379 1.356 . S
H382 C376 0.930 . S
H383 C380 0.930 . S
C384 C386 1.348 . S
C384 C387 1.356 . S
C384 O414 1.325 1_545 S
N385 C388 1.314 . S
N385 C389 1.279 . S
C386 C384 1.348 . S
C386 C388 1.353 . S
C386 H428 0.929 . S
C387 C384 1.356 . S
C387 C389 1.358 . S
C387 H429 0.930 . S
C388 N385 1.314 . S
C388 C386 1.353 . S
C388 H430 0.930 . S
C389 N385 1.279 . S
C389 C387 1.358 . S
C389 H431 0.930 . S
C390 C391 1.348 . S
C390 C392 1.356 . S
C390 O415 1.325 . S
C391 C390 1.348 . S
C391 C393 1.353 . S
C391 H432 0.929 . S
C392 C390 1.356 . S
C392 C394 1.358 . S
C392 H433 0.930 . S
C393 C391 1.353 . S
C393 N395 1.314 . S
C393 H434 0.930 . S
C394 C392 1.358 . S
C394 N395 1.279 . S
C394 H435 0.930 . S
N395 C393 1.314 . S
N395 C394 1.279 . S
C396 C398 1.353 . S
C396 N399 1.314 . S
C396 H402 0.930 . S
C397 N399 1.279 . S
C397 C400 1.358 . S
C397 H403 0.930 . S
C398 C396 1.353 . S
C398 C401 1.348 . S
C398 H436 0.929 . S
N399 Li354 1.990 . S
N399 C396 1.314 . S
N399 C397 1.279 . S
C400 C397 1.358 . S
C400 C401 1.356 . S
C400 H437 0.930 . S
C401 C398 1.348 . S
C401 C400 1.356 . S
H402 C396 0.930 . S
H403 C397 0.930 . S
C404 N405 1.314 . S
C404 C406 1.353 . S
C404 H410 0.930 . S
N405 Li355 1.990 . S
N405 C404 1.314 . S
N405 C408 1.279 . S
C406 C404 1.353 . S
C406 C409 1.348 . S
C406 H438 0.929 1_565 S
C407 C408 1.358 . S
C407 C409 1.356 . S
C407 H439 0.930 . S
C408 N405 1.279 . S
C408 C407 1.358 . S
C408 H411 0.930 . S
C409 C406 1.348 . S
C409 C407 1.356 . S
H410 C404 0.930 . S
H411 C408 0.930 . S
O412 Li352 1.956 . S
O412 Li353 1.970 . S
O412 Li354 1.961 . S
O412 C356 1.325 . S
O413 Li352 1.970 . S
O413 Li353 1.956 . S
O413 Li355 1.961 . S
O413 C362 1.325 . S
O414 Li352 1.961 . S
O414 Li354 1.956 . S
O414 Li355 1.970 . S
O414 C384 1.325 1_565 S
O415 Li353 1.961 . S
O415 Li354 1.970 . S
O415 Li355 1.956 . S
O415 C390 1.325 . S
H416 C358 0.929 . S
H417 C359 0.930 . S
H418 C360 0.930 . S
H419 C361 0.930 . S
H420 C363 0.930 . S
H421 C365 0.929 . S
H422 C366 0.930 . S
H423 C367 0.930 . S
H424 C370 0.930 . S
H425 C373 0.929 . S
H426 C378 0.929 . S
H427 C379 0.930 . S
H428 C386 0.929 . S
H429 C387 0.930 . S
H430 C388 0.930 . S
H431 C389 0.930 . S
H432 C391 0.929 . S
H433 C392 0.930 . S
H434 C393 0.930 . S
H435 C394 0.930 . S
H436 C398 0.929 . S
H437 C400 0.930 . S
H438 C406 0.929 1_545 S
H439 C407 0.930 . S
Li440 N457 1.990 . S
Li440 O500 1.956 . S
Li440 O501 1.970 . S
Li440 O502 1.961 . S
Li441 N465 1.990 . S
Li441 O500 1.970 . S
Li441 O501 1.956 . S
Li441 O503 1.961 . S
Li442 N487 1.990 . S
Li442 O500 1.961 . S
Li442 O502 1.956 . S
Li442 O503 1.970 . S
Li443 N493 1.990 . S
Li443 O501 1.961 . S
Li443 O502 1.970 . S
Li443 O503 1.956 . S
C444 C446 1.348 . S
C444 C447 1.356 . S
C444 O500 1.325 . S
N445 C448 1.314 . S
N445 C449 1.279 . S
C446 C444 1.348 . S
C446 C448 1.353 . S
C446 H504 0.929 . S
C447 C444 1.356 . S
C447 C449 1.358 . S
C447 H505 0.930 . S
C448 N445 1.314 . S
C448 C446 1.353 . S
C448 H506 0.930 . S
C449 N445 1.279 . S
C449 C447 1.358 . S
C449 H507 0.930 . S
C450 C453 1.348 . S
C450 C454 1.356 . S
C450 O501 1.325 . S
C451 N452 1.279 . S
C451 C454 1.358 . S
C451 H508 0.930 . S
N452 C451 1.279 . S
N452 C455 1.314 . S
C453 C450 1.348 . S
C453 C455 1.353 . S
C453 H509 0.929 . S
C454 C450 1.356 . S
C454 C451 1.358 . S
C454 H510 0.930 . S
C455 N452 1.314 . S
C455 C453 1.353 . S
C455 H511 0.930 . S
C456 N457 1.314 . S
C456 C461 1.353 . S
C456 H462 0.930 . S
N457 Li440 1.990 . S
N457 C456 1.314 . S
N457 C459 1.279 . S
C458 C459 1.358 . S
C458 C460 1.356 . S
C458 H512 0.930 . S
C459 N457 1.279 . S
C459 C458 1.358 . S
C459 H463 0.930 . S
C460 C458 1.356 . S
C460 C461 1.348 . S
C461 C456 1.353 . S
C461 C460 1.348 . S
C461 H513 0.929 . S
H462 C456 0.930 . S
H463 C459 0.930 . S
C464 N465 1.314 . S
C464 C466 1.353 . S
C464 H470 0.930 . S
N465 Li441 1.990 . S
N465 C464 1.314 . S
N465 C468 1.279 . S
C466 C464 1.353 . S
C466 C469 1.348 . S
C466 H514 0.929 . S
C467 C468 1.358 . S
C467 C469 1.356 . S
C467 H515 0.930 . S
C468 N465 1.279 . S
C468 C467 1.358 . S
C468 H471 0.930 . S
C469 C466 1.348 . S
C469 C467 1.356 . S
H470 C464 0.930 . S
H471 C468 0.930 . S
C472 C474 1.348 . S
C472 C475 1.356 . S
C472 O502 1.325 . S
N473 C476 1.314 . S
N473 C477 1.279 . S
C474 C472 1.348 . S
C474 C476 1.353 . S
C474 H516 0.929 . S
C475 C472 1.356 . S
C475 C477 1.358 . S
C475 H517 0.930 . S
C476 N473 1.314 . S
C476 C474 1.353 . S
C476 H518 0.930 . S
C477 N473 1.279 . S
C477 C475 1.358 . S
C477 H519 0.930 . S
C478 C479 1.348 . S
C478 C480 1.356 . S
C478 O503 1.325 . S
C479 C478 1.348 . S
C479 C481 1.353 . S
C479 H520 0.929 . S
C480 C478 1.356 . S
C480 C482 1.358 . S
C480 H521 0.930 . S
C481 C479 1.353 . S
C481 N483 1.314 . S
C481 H522 0.930 . S
C482 C480 1.358 . S
C482 N483 1.279 . S
C482 H523 0.930 . S
N483 C481 1.314 . S
N483 C482 1.279 . S
C484 C486 1.353 . S
C484 N487 1.314 . S
C484 H490 0.930 . S
C485 N487 1.279 . S
C485 C488 1.358 . S
C485 H491 0.930 . S
C486 C484 1.353 . S
C486 C489 1.348 . S
C486 H524 0.929 . S
N487 Li442 1.990 . S
N487 C484 1.314 . S
N487 C485 1.279 . S
C488 C485 1.358 . S
C488 C489 1.356 . S
C488 H525 0.930 . S
C489 C486 1.348 . S
C489 C488 1.356 . S
H490 C484 0.930 . S
H491 C485 0.930 . S
C492 N493 1.314 . S
C492 C494 1.353 . S
C492 H498 0.930 . S
N493 Li443 1.990 . S
N493 C492 1.314 . S
N493 C496 1.279 . S
C494 C492 1.353 . S
C494 C497 1.348 . S
C494 H526 0.929 . S
C495 C496 1.358 . S
C495 C497 1.356 . S
C495 H527 0.930 . S
C496 N493 1.279 . S
C496 C495 1.358 . S
C496 H499 0.930 . S
C497 C494 1.348 . S
C497 C495 1.356 . S
H498 C492 0.930 . S
H499 C496 0.930 . S
O500 Li440 1.956 . S
O500 Li441 1.970 . S
O500 Li442 1.961 . S
O500 C444 1.325 . S
O501 Li440 1.970 . S
O501 Li441 1.956 . S
O501 Li443 1.961 . S
O501 C450 1.325 . S
O502 Li440 1.961 . S
O502 Li442 1.956 . S
O502 Li443 1.970 . S
O502 C472 1.325 . S
O503 Li441 1.961 . S
O503 Li442 1.970 . S
O503 Li443 1.956 . S
O503 C478 1.325 . S
H504 C446 0.929 . S
H505 C447 0.930 . S
H506 C448 0.930 . S
H507 C449 0.930 . S
H508 C451 0.930 . S
H509 C453 0.929 . S
H510 C454 0.930 . S
H511 C455 0.930 . S
H512 C458 0.930 . S
H513 C461 0.929 . S
H514 C466 0.929 . S
H515 C467 0.930 . S
H516 C474 0.929 . S
H517 C475 0.930 . S
H518 C476 0.930 . S
H519 C477 0.930 . S
H520 C479 0.929 . S
H521 C480 0.930 . S
H522 C481 0.930 . S
H523 C482 0.930 . S
H524 C486 0.929 . S
H525 C488 0.930 . S
H526 C494 0.929 . S
H527 C495 0.930 . S
Li528 N545 1.990 . S
Li528 O588 1.956 . S
Li528 O589 1.970 . S
Li528 O590 1.961 . S
Li529 N553 1.990 1_545 S
Li529 O588 1.970 . S
Li529 O589 1.956 . S
Li529 O591 1.961 . S
Li530 N575 1.990 . S
Li530 O588 1.961 . S
Li530 O590 1.956 . S
Li530 O591 1.970 . S
Li531 N581 1.990 . S
Li531 O589 1.961 . S
Li531 O590 1.970 . S
Li531 O591 1.956 . S
C532 C534 1.348 . S
C532 C535 1.356 . S
C532 O588 1.325 . S
N533 C536 1.314 . S
N533 C537 1.279 . S
C534 C532 1.348 . S
C534 C536 1.353 . S
C534 H592 0.929 . S
C535 C532 1.356 . S
C535 C537 1.358 . S
C535 H593 0.930 . S
C536 N533 1.314 . S
C536 C534 1.353 . S
C536 H594 0.930 . S
C537 N533 1.279 . S
C537 C535 1.358 . S
C537 H595 0.930 . S
C538 C541 1.348 . S
C538 C542 1.356 . S
C538 O589 1.325 . S
C539 N540 1.279 . S
C539 C542 1.358 . S
C539 H596 0.930 . S
N540 C539 1.279 . S
N540 C543 1.314 . S
C541 C538 1.348 . S
C541 C543 1.353 . S
C541 H597 0.929 . S
C542 C538 1.356 . S
C542 C539 1.358 . S
C542 H598 0.930 . S
C543 N540 1.314 . S
C543 C541 1.353 . S
C543 H599 0.930 . S
C544 N545 1.314 . S
C544 C549 1.353 . S
C544 H550 0.930 . S
N545 Li528 1.990 . S
N545 C544 1.314 . S
N545 C547 1.279 . S
C546 C547 1.358 . S
C546 C548 1.356 . S
C546 H600 0.930 . S
C547 N545 1.279 . S
C547 C546 1.358 . S
C547 H551 0.930 . S
C548 C546 1.356 . S
C548 C549 1.348 . S
C549 C544 1.353 . S
C549 C548 1.348 . S
C549 H601 0.929 . S
H550 C544 0.930 . S
H551 C547 0.930 . S
C552 N553 1.314 . S
C552 C554 1.353 . S
C552 H558 0.930 . S
N553 Li529 1.990 1_565 S
N553 C552 1.314 . S
N553 C556 1.279 . S
C554 C552 1.353 . S
C554 C557 1.348 . S
C554 H602 0.929 . S
C555 C556 1.358 . S
C555 C557 1.356 . S
C555 H603 0.930 . S
C556 N553 1.279 . S
C556 C555 1.358 . S
C556 H559 0.930 . S
C557 C554 1.348 . S
C557 C555 1.356 . S
H558 C552 0.930 . S
H559 C556 0.930 . S
C560 C562 1.348 . S
C560 C563 1.356 . S
C560 O590 1.325 . S
N561 C564 1.314 . S
N561 C565 1.279 . S
C562 C560 1.348 . S
C562 C564 1.353 . S
C562 H604 0.929 . S
C563 C560 1.356 . S
C563 C565 1.358 . S
C563 H605 0.930 . S
C564 N561 1.314 . S
C564 C562 1.353 . S
C564 H606 0.930 . S
C565 N561 1.279 . S
C565 C563 1.358 . S
C565 H607 0.930 . S
C566 C567 1.348 . S
C566 C568 1.356 . S
C566 O591 1.325 1_565 S
C567 C566 1.348 . S
C567 C569 1.353 . S
C567 H608 0.929 . S
C568 C566 1.356 . S
C568 C570 1.358 . S
C568 H609 0.930 . S
C569 C567 1.353 . S
C569 N571 1.314 . S
C569 H610 0.930 . S
C570 C568 1.358 . S
C570 N571 1.279 . S
C570 H611 0.930 . S
N571 C569 1.314 . S
N571 C570 1.279 . S
C572 C574 1.353 . S
C572 N575 1.314 . S
C572 H578 0.930 . S
C573 N575 1.279 . S
C573 C576 1.358 . S
C573 H579 0.930 . S
C574 C572 1.353 . S
C574 C577 1.348 . S
C574 H612 0.929 1_545 S
N575 Li530 1.990 . S
N575 C572 1.314 . S
N575 C573 1.279 . S
C576 C573 1.358 . S
C576 C577 1.356 . S
C576 H613 0.930 . S
C577 C574 1.348 . S
C577 C576 1.356 . S
H578 C572 0.930 . S
H579 C573 0.930 . S
C580 N581 1.314 . S
C580 C582 1.353 1_455 S
C580 H586 0.930 . S
N581 Li531 1.990 . S
N581 C580 1.314 . S
N581 C584 1.279 . S
C582 C580 1.353 1_655 S
C582 C585 1.348 . S
C582 H614 0.929 . S
C583 C584 1.358 1_655 S
C583 C585 1.356 . S
C583 H615 0.930 . S
C584 N581 1.279 . S
C584 C583 1.358 1_455 S
C584 H587 0.930 . S
C585 C582 1.348 . S
C585 C583 1.356 . S
H586 C580 0.930 . S
H587 C584 0.930 . S
O588 Li528 1.956 . S
O588 Li529 1.970 . S
O588 Li530 1.961 . S
O588 C532 1.325 . S
O589 Li528 1.970 . S
O589 Li529 1.956 . S
O589 Li531 1.961 . S
O589 C538 1.325 . S
O590 Li528 1.961 . S
O590 Li530 1.956 . S
O590 Li531 1.970 . S
O590 C560 1.325 . S
O591 Li529 1.961 . S
O591 Li530 1.970 . S
O591 Li531 1.956 . S
O591 C566 1.325 1_545 S
H592 C534 0.929 . S
H593 C535 0.930 . S
H594 C536 0.930 . S
H595 C537 0.930 . S
H596 C539 0.930 . S
H597 C541 0.929 . S
H598 C542 0.930 . S
H599 C543 0.930 . S
H600 C546 0.930 . S
H601 C549 0.929 . S
H602 C554 0.929 . S
H603 C555 0.930 . S
H604 C562 0.929 . S
H605 C563 0.930 . S
H606 C564 0.930 . S
H607 C565 0.930 . S
H608 C567 0.929 . S
H609 C568 0.930 . S
H610 C569 0.930 . S
H611 C570 0.930 . S
H612 C574 0.929 1_565 S
H613 C576 0.930 . S
H614 C582 0.929 . S
H615 C583 0.930 . S
Li616 N633 1.990 . S
Li616 O676 1.956 . S
Li616 O677 1.970 . S
Li616 O678 1.961 . S
Li617 N641 1.990 . S
Li617 O676 1.970 . S
Li617 O677 1.956 . S
Li617 O679 1.961 . S
Li618 N663 1.990 . S
Li618 O676 1.961 . S
Li618 O678 1.956 . S
Li618 O679 1.970 . S
Li619 N669 1.990 . S
Li619 O677 1.961 . S
Li619 O678 1.970 . S
Li619 O679 1.956 . S
C620 C622 1.348 . S
C620 C623 1.356 . S
C620 O676 1.325 . S
N621 C624 1.314 . S
N621 C625 1.279 . S
C622 C620 1.348 . S
C622 C624 1.353 . S
C622 H680 0.929 . S
C623 C620 1.356 . S
C623 C625 1.358 . S
C623 H681 0.930 . S
C624 N621 1.314 . S
C624 C622 1.353 . S
C624 H682 0.930 . S
C625 N621 1.279 . S
C625 C623 1.358 . S
C625 H683 0.930 . S
C626 C629 1.348 . S
C626 C630 1.356 . S
C626 O677 1.325 . S
C627 N628 1.279 . S
C627 C630 1.358 . S
C627 H684 0.930 . S
N628 C627 1.279 . S
N628 C631 1.314 . S
C629 C626 1.348 . S
C629 C631 1.353 . S
C629 H685 0.929 . S
C630 C626 1.356 . S
C630 C627 1.358 . S
C630 H686 0.930 . S
C631 N628 1.314 . S
C631 C629 1.353 . S
C631 H687 0.930 . S
C632 N633 1.314 . S
C632 C637 1.353 . S
C632 H638 0.930 . S
N633 Li616 1.990 . S
N633 C632 1.314 . S
N633 C635 1.279 . S
C634 C635 1.358 . S
C634 C636 1.356 . S
C634 H688 0.930 . S
C635 N633 1.279 . S
C635 C634 1.358 . S
C635 H639 0.930 . S
C636 C634 1.356 . S
C636 C637 1.348 . S
C637 C632 1.353 . S
C637 C636 1.348 . S
C637 H689 0.929 . S
H638 C632 0.930 . S
H639 C635 0.930 . S
C640 N641 1.314 . S
C640 C642 1.353 . S
C640 H646 0.930 . S
N641 Li617 1.990 . S
N641 C640 1.314 . S
N641 C644 1.279 . S
C642 C640 1.353 . S
C642 C645 1.348 . S
C642 H690 0.929 . S
C643 C644 1.358 . S
C643 C645 1.356 . S
C643 H691 0.930 . S
C644 N641 1.279 . S
C644 C643 1.358 . S
C644 H647 0.930 . S
C645 C642 1.348 . S
C645 C643 1.356 . S
H646 C640 0.930 . S
H647 C644 0.930 . S
C648 C650 1.348 . S
C648 C651 1.356 . S
C648 O678 1.325 . S
N649 C652 1.314 . S
N649 C653 1.279 . S
C650 C648 1.348 . S
C650 C652 1.353 . S
C650 H692 0.929 . S
C651 C648 1.356 . S
C651 C653 1.358 . S
C651 H693 0.930 . S
C652 N649 1.314 . S
C652 C650 1.353 . S
C652 H694 0.930 . S
C653 N649 1.279 . S
C653 C651 1.358 . S
C653 H695 0.930 . S
C654 C655 1.348 . S
C654 C656 1.356 . S
C654 O679 1.325 . S
C655 C654 1.348 . S
C655 C657 1.353 . S
C655 H696 0.929 . S
C656 C654 1.356 . S
C656 C658 1.358 . S
C656 H697 0.930 . S
C657 C655 1.353 . S
C657 N659 1.314 . S
C657 H698 0.930 . S
C658 C656 1.358 . S
C658 N659 1.279 . S
C658 H699 0.930 . S
N659 C657 1.314 . S
N659 C658 1.279 . S
C660 C662 1.353 . S
C660 N663 1.314 . S
C660 H666 0.930 . S
C661 N663 1.279 . S
C661 C664 1.358 . S
C661 H667 0.930 . S
C662 C660 1.353 . S
C662 C665 1.348 . S
C662 H700 0.929 . S
N663 Li618 1.990 . S
N663 C660 1.314 . S
N663 C661 1.279 . S
C664 C661 1.358 . S
C664 C665 1.356 . S
C664 H701 0.930 . S
C665 C662 1.348 . S
C665 C664 1.356 . S
H666 C660 0.930 . S
H667 C661 0.930 . S
C668 N669 1.314 . S
C668 C670 1.353 . S
C668 H674 0.930 . S
N669 Li619 1.990 . S
N669 C668 1.314 . S
N669 C672 1.279 . S
C670 C668 1.353 . S
C670 C673 1.348 . S
C670 H702 0.929 . S
C671 C672 1.358 . S
C671 C673 1.356 . S
C671 H703 0.930 . S
C672 N669 1.279 . S
C672 C671 1.358 . S
C672 H675 0.930 . S
C673 C670 1.348 . S
C673 C671 1.356 . S
H674 C668 0.930 . S
H675 C672 0.930 . S
O676 Li616 1.956 . S
O676 Li617 1.970 . S
O676 Li618 1.961 . S
O676 C620 1.325 . S
O677 Li616 1.970 . S
O677 Li617 1.956 . S
O677 Li619 1.961 . S
O677 C626 1.325 . S
O678 Li616 1.961 . S
O678 Li618 1.956 . S
O678 Li619 1.970 . S
O678 C648 1.325 . S
O679 Li617 1.961 . S
O679 Li618 1.970 . S
O679 Li619 1.956 . S
O679 C654 1.325 . S
H680 C622 0.929 . S
H681 C623 0.930 . S
H682 C624 0.930 . S
H683 C625 0.930 . S
H684 C627 0.930 . S
H685 C629 0.929 . S
H686 C630 0.930 . S
H687 C631 0.930 . S
H688 C634 0.930 . S
H689 C637 0.929 . S
H690 C642 0.929 . S
H691 C643 0.930 . S
H692 C650 0.929 . S
H693 C651 0.930 . S
H694 C652 0.930 . S
H695 C653 0.930 . S
H696 C655 0.929 . S
H697 C656 0.930 . S
H698 C657 0.930 . S
H699 C658 0.930 . S
H700 C662 0.929 . S
H701 C664 0.930 . S
H702 C670 0.929 . S
H703 C671 0.930 . S
Li704 N721 1.990 . S
Li704 O764 1.956 . S
Li704 O765 1.970 . S
Li704 O766 1.961 . S
Li705 N729 1.990 1_565 S
Li705 O764 1.970 . S
Li705 O765 1.956 . S
Li705 O767 1.961 . S
Li706 N751 1.990 . S
Li706 O764 1.961 . S
Li706 O766 1.956 . S
Li706 O767 1.970 . S
Li707 N757 1.990 . S
Li707 O765 1.961 . S
Li707 O766 1.970 . S
Li707 O767 1.956 . S
C708 C710 1.348 . S
C708 C711 1.356 . S
C708 O764 1.325 . S
N709 C712 1.314 . S
N709 C713 1.279 . S
C710 C708 1.348 . S
C710 C712 1.353 . S
C710 H768 0.929 1_565 S
C711 C708 1.356 . S
C711 C713 1.358 . S
C711 H769 0.930 . S
C712 N709 1.314 . S
C712 C710 1.353 . S
C712 H770 0.930 1_565 S
C713 N709 1.279 . S
C713 C711 1.358 . S
C713 H771 0.930 . S
C714 C717 1.348 . S
C714 C718 1.356 . S
C714 O765 1.325 1_545 S
C715 N716 1.279 . S
C715 C718 1.358 . S
C715 H772 0.930 . S
N716 C715 1.279 . S
N716 C719 1.314 . S
C717 C714 1.348 . S
C717 C719 1.353 . S
C717 H773 0.929 . S
C718 C714 1.356 . S
C718 C715 1.358 . S
C718 H774 0.930 . S
C719 N716 1.314 . S
C719 C717 1.353 . S
C719 H775 0.930 . S
C720 N721 1.314 . S
C720 C725 1.353 . S
C720 H726 0.930 . S
N721 Li704 1.990 . S
N721 C720 1.314 . S
N721 C723 1.279 . S
C722 C723 1.358 . S
C722 C724 1.356 . S
C722 H776 0.930 . S
C723 N721 1.279 . S
C723 C722 1.358 . S
C723 H727 0.930 . S
C724 C722 1.356 . S
C724 C725 1.348 . S
C725 C720 1.353 . S
C725 C724 1.348 . S
C725 H777 0.929 . S
H726 C720 0.930 . S
H727 C723 0.930 . S
C728 N729 1.314 . S
C728 C730 1.353 . S
C728 H734 0.930 1_545 S
N729 Li705 1.990 1_545 S
N729 C728 1.314 . S
N729 C732 1.279 . S
C730 C728 1.353 . S
C730 C733 1.348 . S
C730 H778 0.929 . S
C731 C732 1.358 . S
C731 C733 1.356 . S
C731 H779 0.930 . S
C732 N729 1.279 . S
C732 C731 1.358 . S
C732 H735 0.930 . S
C733 C730 1.348 . S
C733 C731 1.356 . S
H734 C728 0.930 1_565 S
H735 C732 0.930 . S
C736 C738 1.348 . S
C736 C739 1.356 . S
C736 O766 1.325 . S
N737 C740 1.314 . S
N737 C741 1.279 . S
C738 C736 1.348 . S
C738 C740 1.353 . S
C738 H780 0.929 . S
C739 C736 1.356 . S
C739 C741 1.358 . S
C739 H781 0.930 . S
C740 N737 1.314 . S
C740 C738 1.353 . S
C740 H782 0.930 . S
C741 N737 1.279 . S
C741 C739 1.358 . S
C741 H783 0.930 . S
C742 C743 1.348 . S
C742 C744 1.356 . S
C742 O767 1.325 . S
C743 C742 1.348 . S
C743 C745 1.353 . S
C743 H784 0.929 . S
C744 C742 1.356 . S
C744 C746 1.358 . S
C744 H785 0.930 . S
C745 C743 1.353 . S
C745 N747 1.314 . S
C745 H786 0.930 . S
C746 C744 1.358 . S
C746 N747 1.279 . S
C746 H787 0.930 . S
N747 C745 1.314 . S
N747 C746 1.279 . S
C748 C750 1.353 . S
C748 N751 1.314 . S
C748 H754 0.930 . S
C749 N751 1.279 . S
C749 C752 1.358 . S
C749 H755 0.930 . S
C750 C748 1.353 . S
C750 C753 1.348 . S
C750 H788 0.929 . S
N751 Li706 1.990 . S
N751 C748 1.314 . S
N751 C749 1.279 . S
C752 C749 1.358 . S
C752 C753 1.356 . S
C752 H789 0.930 . S
C753 C750 1.348 . S
C753 C752 1.356 . S
H754 C748 0.930 . S
H755 C749 0.930 . S
C756 N757 1.314 . S
C756 C758 1.353 . S
C756 H762 0.930 . S
N757 Li707 1.990 . S
N757 C756 1.314 . S
N757 C760 1.279 . S
C758 C756 1.353 . S
C758 C761 1.348 . S
C758 H790 0.929 . S
C759 C760 1.358 . S
C759 C761 1.356 . S
C759 H791 0.930 . S
C760 N757 1.279 . S
C760 C759 1.358 . S
C760 H763 0.930 . S
C761 C758 1.348 . S
C761 C759 1.356 . S
H762 C756 0.930 . S
H763 C760 0.930 . S
O764 Li704 1.956 . S
O764 Li705 1.970 . S
O764 Li706 1.961 . S
O764 C708 1.325 . S
O765 Li704 1.970 . S
O765 Li705 1.956 . S
O765 Li707 1.961 . S
O765 C714 1.325 1_565 S
O766 Li704 1.961 . S
O766 Li706 1.956 . S
O766 Li707 1.970 . S
O766 C736 1.325 . S
O767 Li705 1.961 . S
O767 Li706 1.970 . S
O767 Li707 1.956 . S
O767 C742 1.325 . S
H768 C710 0.929 1_545 S
H769 C711 0.930 . S
H770 C712 0.930 1_545 S
H771 C713 0.930 . S
H772 C715 0.930 . S
H773 C717 0.929 . S
H774 C718 0.930 . S
H775 C719 0.930 . S
H776 C722 0.930 . S
H777 C725 0.929 . S
H778 C730 0.929 . S
H779 C731 0.930 . S
H780 C738 0.929 . S
H781 C739 0.930 . S
H782 C740 0.930 . S
H783 C741 0.930 . S
H784 C743 0.929 . S
H785 C744 0.930 . S
H786 C745 0.930 . S
H787 C746 0.930 . S
H788 C750 0.929 . S
H789 C752 0.930 . S
H790 C758 0.929 . S
H791 C759 0.930 . S
Li792 N809 1.990 . S
Li792 O852 1.956 . S
Li792 O853 1.970 . S
Li792 O854 1.961 . S
Li793 N817 1.990 . S
Li793 O852 1.970 . S
Li793 O853 1.956 . S
Li793 O855 1.961 . S
Li794 N839 1.990 . S
Li794 O852 1.961 . S
Li794 O854 1.956 . S
Li794 O855 1.970 . S
Li795 N845 1.990 . S
Li795 O853 1.961 . S
Li795 O854 1.970 . S
Li795 O855 1.956 . S
C796 C798 1.348 . S
C796 C799 1.356 . S
C796 O852 1.325 . S
N797 C800 1.314 . S
N797 C801 1.279 . S
C798 C796 1.348 . S
C798 C800 1.353 . S
C798 H856 0.929 . S
C799 C796 1.356 . S
C799 C801 1.358 . S
C799 H857 0.930 . S
C800 N797 1.314 . S
C800 C798 1.353 . S
C800 H858 0.930 . S
C801 N797 1.279 . S
C801 C799 1.358 . S
C801 H859 0.930 . S
C802 C805 1.348 . S
C802 C806 1.356 . S
C802 O853 1.325 . S
C803 N804 1.279 . S
C803 C806 1.358 . S
C803 H860 0.930 . S
N804 C803 1.279 . S
N804 C807 1.314 . S
C805 C802 1.348 . S
C805 C807 1.353 . S
C805 H861 0.929 . S
C806 C802 1.356 . S
C806 C803 1.358 . S
C806 H862 0.930 . S
C807 N804 1.314 . S
C807 C805 1.353 . S
C807 H863 0.930 . S
C808 N809 1.314 . S
C808 C813 1.353 . S
C808 H814 0.930 . S
N809 Li792 1.990 . S
N809 C808 1.314 . S
N809 C811 1.279 . S
C810 C811 1.358 . S
C810 C812 1.356 . S
C810 H864 0.930 . S
C811 N809 1.279 . S
C811 C810 1.358 . S
C811 H815 0.930 . S
C812 C810 1.356 . S
C812 C813 1.348 . S
C813 C808 1.353 . S
C813 C812 1.348 . S
C813 H865 0.929 . S
H814 C808 0.930 . S
H815 C811 0.930 . S
C816 N817 1.314 . S
C816 C818 1.353 . S
C816 H822 0.930 . S
N817 Li793 1.990 . S
N817 C816 1.314 . S
N817 C820 1.279 . S
C818 C816 1.353 . S
C818 C821 1.348 . S
C818 H866 0.929 . S
C819 C820 1.358 . S
C819 C821 1.356 . S
C819 H867 0.930 . S
C820 N817 1.279 . S
C820 C819 1.358 . S
C820 H823 0.930 . S
C821 C818 1.348 . S
C821 C819 1.356 . S
H822 C816 0.930 . S
H823 C820 0.930 . S
C824 C826 1.348 . S
C824 C827 1.356 . S
C824 O854 1.325 . S
N825 C828 1.314 . S
N825 C829 1.279 . S
C826 C824 1.348 . S
C826 C828 1.353 . S
C826 H868 0.929 . S
C827 C824 1.356 . S
C827 C829 1.358 . S
C827 H869 0.930 . S
C828 N825 1.314 . S
C828 C826 1.353 . S
C828 H870 0.930 . S
C829 N825 1.279 . S
C829 C827 1.358 . S
C829 H871 0.930 . S
C830 C831 1.348 . S
C830 C832 1.356 . S
C830 O855 1.325 . S
C831 C830 1.348 . S
C831 C833 1.353 . S
C831 H872 0.929 . S
C832 C830 1.356 . S
C832 C834 1.358 . S
C832 H873 0.930 . S
C833 C831 1.353 . S
C833 N835 1.314 . S
C833 H874 0.930 . S
C834 C832 1.358 . S
C834 N835 1.279 . S
C834 H875 0.930 . S
N835 C833 1.314 . S
N835 C834 1.279 . S
C836 C838 1.353 . S
C836 N839 1.314 . S
C836 H842 0.930 . S
C837 N839 1.279 . S
C837 C840 1.358 . S
C837 H843 0.930 . S
C838 C836 1.353 . S
C838 C841 1.348 . S
C838 H876 0.929 . S
N839 Li794 1.990 . S
N839 C836 1.314 . S
N839 C837 1.279 . S
C840 C837 1.358 . S
C840 C841 1.356 . S
C840 H877 0.930 . S
C841 C838 1.348 . S
C841 C840 1.356 . S
H842 C836 0.930 . S
H843 C837 0.930 . S
C844 N845 1.314 . S
C844 C846 1.353 . S
C844 H850 0.930 . S
N845 Li795 1.990 . S
N845 C844 1.314 . S
N845 C848 1.279 . S
C846 C844 1.353 . S
C846 C849 1.348 . S
C846 H878 0.929 . S
C847 C848 1.358 . S
C847 C849 1.356 . S
C847 H879 0.930 . S
C848 N845 1.279 . S
C848 C847 1.358 . S
C848 H851 0.930 . S
C849 C846 1.348 . S
C849 C847 1.356 . S
H850 C844 0.930 . S
H851 C848 0.930 . S
O852 Li792 1.956 . S
O852 Li793 1.970 . S
O852 Li794 1.961 . S
O852 C796 1.325 . S
O853 Li792 1.970 . S
O853 Li793 1.956 . S
O853 Li795 1.961 . S
O853 C802 1.325 . S
O854 Li792 1.961 . S
O854 Li794 1.956 . S
O854 Li795 1.970 . S
O854 C824 1.325 . S
O855 Li793 1.961 . S
O855 Li794 1.970 . S
O855 Li795 1.956 . S
O855 C830 1.325 . S
H856 C798 0.929 . S
H857 C799 0.930 . S
H858 C800 0.930 . S
H859 C801 0.930 . S
H860 C803 0.930 . S
H861 C805 0.929 . S
H862 C806 0.930 . S
H863 C807 0.930 . S
H864 C810 0.930 . S
H865 C813 0.929 . S
H866 C818 0.929 . S
H867 C819 0.930 . S
H868 C826 0.929 . S
H869 C827 0.930 . S
H870 C828 0.930 . S
H871 C829 0.930 . S
H872 C831 0.929 . S
H873 C832 0.930 . S
H874 C833 0.930 . S
H875 C834 0.930 . S
H876 C838 0.929 . S
H877 C840 0.930 . S
H878 C846 0.929 . S
H879 C847 0.930 . S
Li880 N897 1.990 . S
Li880 O940 1.956 . S
Li880 O941 1.970 . S
Li880 O942 1.961 . S
Li881 N905 1.990 . S
Li881 O940 1.970 . S
Li881 O941 1.956 . S
Li881 O943 1.961 . S
Li882 N927 1.990 . S
Li882 O940 1.961 . S
Li882 O942 1.956 . S
Li882 O943 1.970 . S
Li883 N933 1.990 1_545 S
Li883 O941 1.961 . S
Li883 O942 1.970 . S
Li883 O943 1.956 . S
C884 C886 1.348 . S
C884 C887 1.356 . S
C884 O940 1.325 . S
N885 C888 1.314 . S
N885 C889 1.279 . S
C886 C884 1.348 . S
C886 C888 1.353 . S
C886 H944 0.929 . S
C887 C884 1.356 . S
C887 C889 1.358 . S
C887 H945 0.930 . S
C888 N885 1.314 . S
C888 C886 1.353 . S
C888 H946 0.930 . S
C889 N885 1.279 . S
C889 C887 1.358 . S
C889 H947 0.930 . S
C890 C893 1.348 . S
C890 C894 1.356 . S
C890 O941 1.325 . S
C891 N892 1.279 . S
C891 C894 1.358 . S
C891 H948 0.930 . S
N892 C891 1.279 . S
N892 C895 1.314 . S
C893 C890 1.348 . S
C893 C895 1.353 . S
C893 H949 0.929 . S
C894 C890 1.356 . S
C894 C891 1.358 . S
C894 H950 0.930 . S
C895 N892 1.314 . S
C895 C893 1.353 . S
C895 H951 0.930 . S
C896 N897 1.314 . S
C896 C901 1.353 . S
C896 H902 0.930 . S
N897 Li880 1.990 . S
N897 C896 1.314 . S
N897 C899 1.279 . S
C898 C899 1.358 . S
C898 C900 1.356 . S
C898 H952 0.930 . S
C899 N897 1.279 . S
C899 C898 1.358 . S
C899 H903 0.930 . S
C900 C898 1.356 . S
C900 C901 1.348 . S
C901 C896 1.353 . S
C901 C900 1.348 . S
C901 H953 0.929 . S
H902 C896 0.930 . S
H903 C899 0.930 . S
C904 N905 1.336 . S
C904 C906 1.327 1_655 S
C904 H910 0.935 . S
N905 Li881 1.990 . S
N905 C904 1.336 . S
N905 C908 1.279 . S
C906 C904 1.327 1_455 S
C906 C909 1.348 . S
C906 H954 0.929 . S
C907 C908 1.358 1_455 S
C907 C909 1.356 . S
C907 H955 0.930 . S
C908 N905 1.279 . S
C908 C907 1.358 1_655 S
C908 H911 0.930 . S
C909 C906 1.348 . S
C909 C907 1.356 . S
H910 C904 0.935 . S
H911 C908 0.930 . S
C912 C914 1.348 . S
C912 C915 1.356 . S
C912 O942 1.325 . S
N913 C916 1.314 . S
N913 C917 1.279 . S
C914 C912 1.348 . S
C914 C916 1.353 . S
C914 H956 0.929 1_545 S
C915 C912 1.356 . S
C915 C917 1.358 . S
C915 H957 0.930 . S
C916 N913 1.314 . S
C916 C914 1.353 . S
C916 H958 0.930 1_545 S
C917 N913 1.279 . S
C917 C915 1.358 . S
C917 H959 0.930 . S
C918 C919 1.348 . S
C918 C920 1.356 . S
C918 O943 1.325 1_565 S
C919 C918 1.348 . S
C919 C921 1.353 . S
C919 H960 0.929 . S
C920 C918 1.356 . S
C920 C922 1.358 . S
C920 H961 0.930 . S
C921 C919 1.353 . S
C921 N923 1.314 . S
C921 H962 0.930 . S
C922 C920 1.358 . S
C922 N923 1.279 . S
C922 H963 0.930 . S
N923 C921 1.314 . S
N923 C922 1.279 . S
C924 C926 1.353 . S
C924 N927 1.314 . S
C924 H930 0.930 . S
C925 N927 1.279 . S
C925 C928 1.358 . S
C925 H931 0.930 . S
C926 C924 1.353 . S
C926 C929 1.348 . S
C926 H964 0.929 . S
N927 Li882 1.990 . S
N927 C924 1.314 . S
N927 C925 1.279 . S
C928 C925 1.358 . S
C928 C929 1.356 . S
C928 H965 0.930 . S
C929 C926 1.348 . S
C929 C928 1.356 . S
H930 C924 0.930 . S
H931 C925 0.930 . S
C932 N933 1.314 . S
C932 C934 1.353 . S
C932 H938 0.930 1_565 S
N933 Li883 1.990 1_565 S
N933 C932 1.314 . S
N933 C936 1.279 . S
C934 C932 1.353 . S
C934 C937 1.348 . S
C934 H966 0.929 . S
C935 C936 1.358 . S
C935 C937 1.356 . S
C935 H967 0.930 . S
C936 N933 1.279 . S
C936 C935 1.358 . S
C936 H939 0.930 . S
C937 C934 1.348 . S
C937 C935 1.356 . S
H938 C932 0.930 1_545 S
H939 C936 0.930 . S
O940 Li880 1.956 . S
O940 Li881 1.970 . S
O940 Li882 1.961 . S
O940 C884 1.325 . S
O941 Li880 1.970 . S
O941 Li881 1.956 . S
O941 Li883 1.961 . S
O941 C890 1.325 . S
O942 Li880 1.961 . S
O942 Li882 1.956 . S
O942 Li883 1.970 . S
O942 C912 1.325 . S
O943 Li881 1.961 . S
O943 Li882 1.970 . S
O943 Li883 1.956 . S
O943 C918 1.325 1_545 S
H944 C886 0.929 . S
H945 C887 0.930 . S
H946 C888 0.930 . S
H947 C889 0.930 . S
H948 C891 0.930 . S
H949 C893 0.929 . S
H950 C894 0.930 . S
H951 C895 0.930 . S
H952 C898 0.930 . S
H953 C901 0.929 . S
H954 C906 0.929 . S
H955 C907 0.930 . S
H956 C914 0.929 1_565 S
H957 C915 0.930 . S
H958 C916 0.930 1_565 S
H959 C917 0.930 . S
H960 C919 0.929 . S
H961 C920 0.930 . S
H962 C921 0.930 . S
H963 C922 0.930 . S
H964 C926 0.929 . S
H965 C928 0.930 . S
H966 C934 0.929 . S
H967 C935 0.930 . S
Li968 N985 1.990 . S
Li968 O1028 1.956 . S
Li968 O1029 1.970 . S
Li968 O1030 1.961 . S
Li969 N993 1.990 . S
Li969 O1028 1.970 . S
Li969 O1029 1.956 . S
Li969 O1031 1.961 . S
Li970 N1015 1.990 . S
Li970 O1028 1.961 . S
Li970 O1030 1.956 . S
Li970 O1031 1.970 . S
Li971 N1021 1.990 . S
Li971 O1029 1.961 . S
Li971 O1030 1.970 . S
Li971 O1031 1.956 . S
C972 C974 1.348 . S
C972 C975 1.356 . S
C972 O1028 1.325 . S
N973 C976 1.314 . S
N973 C977 1.279 . S
C974 C972 1.348 . S
C974 C976 1.353 . S
C974 H1032 0.929 . S
C975 C972 1.356 . S
C975 C977 1.358 . S
C975 H1033 0.930 . S
C976 N973 1.314 . S
C976 C974 1.353 . S
C976 H1034 0.930 . S
C977 N973 1.279 . S
C977 C975 1.358 . S
C977 H1035 0.930 . S
C978 C981 1.348 . S
C978 C982 1.356 . S
C978 O1029 1.325 . S
C979 N980 1.279 . S
C979 C982 1.358 . S
C979 H1036 0.930 . S
N980 C979 1.279 . S
N980 C983 1.314 . S
C981 C978 1.348 . S
C981 C983 1.353 . S
C981 H1037 0.929 . S
C982 C978 1.356 . S
C982 C979 1.358 . S
C982 H1038 0.930 . S
C983 N980 1.314 . S
C983 C981 1.353 . S
C983 H1039 0.930 . S
C984 N985 1.314 . S
C984 C989 1.353 . S
C984 H990 0.930 . S
N985 Li968 1.990 . S
N985 C984 1.314 . S
N985 C987 1.279 . S
C986 C987 1.358 . S
C986 C988 1.356 . S
C986 H1040 0.930 . S
C987 N985 1.279 . S
C987 C986 1.358 . S
C987 H991 0.930 . S
C988 C986 1.356 . S
C988 C989 1.348 . S
C989 C984 1.353 . S
C989 C988 1.348 . S
C989 H1041 0.929 . S
H990 C984 0.930 . S
H991 C987 0.930 . S
C992 N993 1.314 . S
C992 C994 1.353 . S
C992 H998 0.930 . S
N993 Li969 1.990 . S
N993 C992 1.314 . S
N993 C996 1.279 . S
C994 C992 1.353 . S
C994 C997 1.348 . S
C994 H1042 0.929 . S
C995 C996 1.358 . S
C995 C997 1.356 . S
C995 H1043 0.930 . S
C996 N993 1.279 . S
C996 C995 1.358 . S
C996 H999 0.930 . S
C997 C994 1.348 . S
C997 C995 1.356 . S
H998 C992 0.930 . S
H999 C996 0.930 . S
C1000 C1002 1.348 . S
C1000 C1003 1.356 . S
C1000 O1030 1.325 . S
N1001 C1004 1.314 . S
N1001 C1005 1.279 . S
C1002 C1000 1.348 . S
C1002 C1004 1.353 . S
C1002 H1044 0.929 . S
C1003 C1000 1.356 . S
C1003 C1005 1.358 . S
C1003 H1045 0.930 . S
C1004 N1001 1.314 . S
C1004 C1002 1.353 . S
C1004 H1046 0.930 . S
C1005 N1001 1.279 . S
C1005 C1003 1.358 . S
C1005 H1047 0.930 . S
C1006 C1007 1.348 . S
C1006 C1008 1.356 . S
C1006 O1031 1.325 . S
C1007 C1006 1.348 . S
C1007 C1009 1.353 . S
C1007 H1048 0.929 . S
C1008 C1006 1.356 . S
C1008 C1010 1.358 . S
C1008 H1049 0.930 . S
C1009 C1007 1.353 . S
C1009 N1011 1.314 . S
C1009 H1050 0.930 . S
C1010 C1008 1.358 . S
C1010 N1011 1.279 . S
C1010 H1051 0.930 . S
N1011 C1009 1.314 . S
N1011 C1010 1.279 . S
C1012 C1014 1.353 . S
C1012 N1015 1.314 . S
C1012 H1018 0.930 . S
C1013 N1015 1.279 . S
C1013 C1016 1.358 . S
C1013 H1019 0.930 . S
C1014 C1012 1.353 . S
C1014 C1017 1.348 . S
C1014 H1052 0.929 . S
N1015 Li970 1.990 . S
N1015 C1012 1.314 . S
N1015 C1013 1.279 . S
C1016 C1013 1.358 . S
C1016 C1017 1.356 . S
C1016 H1053 0.930 . S
C1017 C1014 1.348 . S
C1017 C1016 1.356 . S
H1018 C1012 0.930 . S
H1019 C1013 0.930 . S
C1020 N1021 1.314 . S
C1020 C1022 1.353 . S
C1020 H1026 0.930 . S
N1021 Li971 1.990 . S
N1021 C1020 1.314 . S
N1021 C1024 1.279 . S
C1022 C1020 1.353 . S
C1022 C1025 1.348 . S
C1022 H1054 0.929 . S
C1023 C1024 1.358 . S
C1023 C1025 1.356 . S
C1023 H1055 0.930 . S
C1024 N1021 1.279 . S
C1024 C1023 1.358 . S
C1024 H1027 0.930 . S
C1025 C1022 1.348 . S
C1025 C1023 1.356 . S
H1026 C1020 0.930 . S
H1027 C1024 0.930 . S
O1028 Li968 1.956 . S
O1028 Li969 1.970 . S
O1028 Li970 1.961 . S
O1028 C972 1.325 . S
O1029 Li968 1.970 . S
O1029 Li969 1.956 . S
O1029 Li971 1.961 . S
O1029 C978 1.325 . S
O1030 Li968 1.961 . S
O1030 Li970 1.956 . S
O1030 Li971 1.970 . S
O1030 C1000 1.325 . S
O1031 Li969 1.961 . S
O1031 Li970 1.970 . S
O1031 Li971 1.956 . S
O1031 C1006 1.325 . S
H1032 C974 0.929 . S
H1033 C975 0.930 . S
H1034 C976 0.930 . S
H1035 C977 0.930 . S
H1036 C979 0.930 . S
H1037 C981 0.929 . S
H1038 C982 0.930 . S
H1039 C983 0.930 . S
H1040 C986 0.930 . S
H1041 C989 0.929 . S
H1042 C994 0.929 . S
H1043 C995 0.930 . S
H1044 C1002 0.929 . S
H1045 C1003 0.930 . S
H1046 C1004 0.930 . S
H1047 C1005 0.930 . S
H1048 C1007 0.929 . S
H1049 C1008 0.930 . S
H1050 C1009 0.930 . S
H1051 C1010 0.930 . S
H1052 C1014 0.929 . S
H1053 C1016 0.930 . S
H1054 C1022 0.929 . S
H1055 C1023 0.930 . S
Li1056 N1073 1.990 . S
Li1056 O1116 1.956 . S
Li1056 O1117 1.970 . S
Li1056 O1118 1.961 . S
Li1057 N1081 1.990 . S
Li1057 O1116 1.970 . S
Li1057 O1117 1.956 . S
Li1057 O1119 1.961 . S
Li1058 N1103 1.990 1_545 S
Li1058 O1116 1.961 . S
Li1058 O1118 1.956 . S
Li1058 O1119 1.970 . S
Li1059 N1109 1.990 . S
Li1059 O1117 1.961 . S
Li1059 O1118 1.970 . S
Li1059 O1119 1.956 . S
C1060 C1062 1.348 . S
C1060 C1063 1.356 . S
C1060 O1116 1.325 . S
N1061 C1064 1.314 . S
N1061 C1065 1.279 . S
C1062 C1060 1.348 . S
C1062 C1064 1.353 . S
C1062 H1120 0.929 . S
C1063 C1060 1.356 . S
C1063 C1065 1.358 . S
C1063 H1121 0.930 . S
C1064 N1061 1.314 . S
C1064 C1062 1.353 . S
C1064 H1122 0.930 . S
C1065 N1061 1.279 . S
C1065 C1063 1.358 . S
C1065 H1123 0.930 . S
C1066 C1069 1.348 . S
C1066 C1070 1.356 . S
C1066 O1117 1.325 . S
C1067 N1068 1.279 . S
C1067 C1070 1.358 . S
C1067 H1124 0.930 . S
N1068 C1067 1.279 . S
N1068 C1071 1.314 . S
C1069 C1066 1.348 . S
C1069 C1071 1.353 . S
C1069 H1125 0.929 . S
C1070 C1066 1.356 . S
C1070 C1067 1.358 . S
C1070 H1126 0.930 . S
C1071 N1068 1.314 . S
C1071 C1069 1.353 . S
C1071 H1127 0.930 . S
C1072 N1073 1.314 . S
C1072 C1077 1.353 . S
C1072 H1078 0.930 . S
N1073 Li1056 1.990 . S
N1073 C1072 1.314 . S
N1073 C1075 1.279 . S
C1074 C1075 1.358 . S
C1074 C1076 1.356 . S
C1074 H1128 0.930 . S
C1075 N1073 1.279 . S
C1075 C1074 1.358 . S
C1075 H1079 0.930 . S
C1076 C1074 1.356 . S
C1076 C1077 1.348 . S
C1077 C1072 1.353 . S
C1077 C1076 1.348 . S
C1077 H1129 0.929 . S
H1078 C1072 0.930 . S
H1079 C1075 0.930 . S
C1080 N1081 1.314 . S
C1080 C1082 1.353 . S
C1080 H1086 0.930 . S
N1081 Li1057 1.990 . S
N1081 C1080 1.314 . S
N1081 C1084 1.279 . S
C1082 C1080 1.353 . S
C1082 C1085 1.348 . S
C1082 H1130 0.929 . S
C1083 C1084 1.358 . S
C1083 C1085 1.356 . S
C1083 H1131 0.930 . S
C1084 N1081 1.279 . S
C1084 C1083 1.358 . S
C1084 H1087 0.930 . S
C1085 C1082 1.348 . S
C1085 C1083 1.356 . S
H1086 C1080 0.930 . S
H1087 C1084 0.930 . S
C1088 C1090 1.348 . S
C1088 C1091 1.356 . S
C1088 O1118 1.325 1_565 S
N1089 C1092 1.314 . S
N1089 C1093 1.279 . S
C1090 C1088 1.348 . S
C1090 C1092 1.353 . S
C1090 H1132 0.929 . S
C1091 C1088 1.356 . S
C1091 C1093 1.358 . S
C1091 H1133 0.930 . S
C1092 N1089 1.314 . S
C1092 C1090 1.353 . S
C1092 H1134 0.930 . S
C1093 N1089 1.279 . S
C1093 C1091 1.358 . S
C1093 H1135 0.930 . S
C1094 C1095 1.348 . S
C1094 C1096 1.356 . S
C1094 O1119 1.325 . S
C1095 C1094 1.348 . S
C1095 C1097 1.353 . S
C1095 H1136 0.929 1_545 S
C1096 C1094 1.356 . S
C1096 C1098 1.358 . S
C1096 H1137 0.930 . S
C1097 C1095 1.353 . S
C1097 N1099 1.314 . S
C1097 H1138 0.930 1_545 S
C1098 C1096 1.358 . S
C1098 N1099 1.279 . S
C1098 H1139 0.930 . S
N1099 C1097 1.314 . S
N1099 C1098 1.279 . S
C1100 C1102 1.353 . S
C1100 N1103 1.314 . S
C1100 H1106 0.930 1_565 S
C1101 N1103 1.279 . S
C1101 C1104 1.358 . S
C1101 H1107 0.930 . S
C1102 C1100 1.353 . S
C1102 C1105 1.348 . S
C1102 H1140 0.929 . S
N1103 Li1058 1.990 1_565 S
N1103 C1100 1.314 . S
N1103 C1101 1.279 . S
C1104 C1101 1.358 . S
C1104 C1105 1.356 . S
C1104 H1141 0.930 . S
C1105 C1102 1.348 . S
C1105 C1104 1.356 . S
H1106 C1100 0.930 1_545 S
H1107 C1101 0.930 . S
C1108 N1109 1.314 . S
C1108 C1110 1.353 . S
C1108 H1114 0.930 . S
N1109 Li1059 1.990 . S
N1109 C1108 1.314 . S
N1109 C1112 1.279 . S
C1110 C1108 1.353 . S
C1110 C1113 1.348 . S
C1110 H1142 0.929 . S
C1111 C1112 1.358 . S
C1111 C1113 1.356 . S
C1111 H1143 0.930 . S
C1112 N1109 1.279 . S
C1112 C1111 1.358 . S
C1112 H1115 0.930 . S
C1113 C1110 1.348 . S
C1113 C1111 1.356 . S
H1114 C1108 0.930 . S
H1115 C1112 0.930 . S
O1116 Li1056 1.956 . S
O1116 Li1057 1.970 . S
O1116 Li1058 1.961 . S
O1116 C1060 1.325 . S
O1117 Li1056 1.970 . S
O1117 Li1057 1.956 . S
O1117 Li1059 1.961 . S
O1117 C1066 1.325 . S
O1118 Li1056 1.961 . S
O1118 Li1058 1.956 . S
O1118 Li1059 1.970 . S
O1118 C1088 1.325 1_545 S
O1119 Li1057 1.961 . S
O1119 Li1058 1.970 . S
O1119 Li1059 1.956 . S
O1119 C1094 1.325 . S
H1120 C1062 0.929 . S
H1121 C1063 0.930 . S
H1122 C1064 0.930 . S
H1123 C1065 0.930 . S
H1124 C1067 0.930 . S
H1125 C1069 0.929 . S
H1126 C1070 0.930 . S
H1127 C1071 0.930 . S
H1128 C1074 0.930 . S
H1129 C1077 0.929 . S
H1130 C1082 0.929 . S
H1131 C1083 0.930 . S
H1132 C1090 0.929 . S
H1133 C1091 0.930 . S
H1134 C1092 0.930 . S
H1135 C1093 0.930 . S
H1136 C1095 0.929 1_565 S
H1137 C1096 0.930 . S
H1138 C1097 0.930 1_565 S
H1139 C1098 0.930 . S
H1140 C1102 0.929 . S
H1141 C1104 0.930 . S
H1142 C1110 0.929 . S
H1143 C1111 0.930 . S
Li1144 N1161 1.990 . S
Li1144 O1204 1.956 . S
Li1144 O1205 1.970 . S
Li1144 O1206 1.961 . S
Li1145 N1169 1.990 . S
Li1145 O1204 1.970 . S
Li1145 O1205 1.956 . S
Li1145 O1207 1.961 . S
Li1146 N1191 1.990 . S
Li1146 O1204 1.961 . S
Li1146 O1206 1.956 . S
Li1146 O1207 1.970 . S
Li1147 N1197 1.990 . S
Li1147 O1205 1.961 . S
Li1147 O1206 1.970 . S
Li1147 O1207 1.956 . S
C1148 C1150 1.348 . S
C1148 C1151 1.356 . S
C1148 O1204 1.325 . S
N1149 C1152 1.314 . S
N1149 C1153 1.279 . S
C1150 C1148 1.348 . S
C1150 C1152 1.353 . S
C1150 H1208 0.929 . S
C1151 C1148 1.356 . S
C1151 C1153 1.358 . S
C1151 H1209 0.930 . S
C1152 N1149 1.314 . S
C1152 C1150 1.353 . S
C1152 H1210 0.930 . S
C1153 N1149 1.279 . S
C1153 C1151 1.358 . S
C1153 H1211 0.930 . S
C1154 C1157 1.348 . S
C1154 C1158 1.356 . S
C1154 O1205 1.325 . S
C1155 N1156 1.279 . S
C1155 C1158 1.358 . S
C1155 H1212 0.930 . S
N1156 C1155 1.279 . S
N1156 C1159 1.314 . S
C1157 C1154 1.348 . S
C1157 C1159 1.353 . S
C1157 H1213 0.929 . S
C1158 C1154 1.356 . S
C1158 C1155 1.358 . S
C1158 H1214 0.930 . S
C1159 N1156 1.314 . S
C1159 C1157 1.353 . S
C1159 H1215 0.930 . S
C1160 N1161 1.314 . S
C1160 C1165 1.353 . S
C1160 H1166 0.930 . S
N1161 Li1144 1.990 . S
N1161 C1160 1.314 . S
N1161 C1163 1.279 . S
C1162 C1163 1.358 . S
C1162 C1164 1.356 . S
C1162 H1216 0.930 . S
C1163 N1161 1.279 . S
C1163 C1162 1.358 . S
C1163 H1167 0.930 . S
C1164 C1162 1.356 . S
C1164 C1165 1.348 . S
C1165 C1160 1.353 . S
C1165 C1164 1.348 . S
C1165 H1217 0.929 . S
H1166 C1160 0.930 . S
H1167 C1163 0.930 . S
C1168 N1169 1.314 . S
C1168 C1170 1.353 . S
C1168 H1174 0.930 . S
N1169 Li1145 1.990 . S
N1169 C1168 1.314 . S
N1169 C1172 1.279 . S
C1170 C1168 1.353 . S
C1170 C1173 1.348 . S
C1170 H1218 0.929 . S
C1171 C1172 1.358 . S
C1171 C1173 1.356 . S
C1171 H1219 0.930 . S
C1172 N1169 1.279 . S
C1172 C1171 1.358 . S
C1172 H1175 0.930 . S
C1173 C1170 1.348 . S
C1173 C1171 1.356 . S
H1174 C1168 0.930 . S
H1175 C1172 0.930 . S
C1176 C1178 1.348 . S
C1176 C1179 1.356 . S
C1176 O1206 1.325 . S
N1177 C1180 1.314 . S
N1177 C1181 1.279 . S
C1178 C1176 1.348 . S
C1178 C1180 1.353 . S
C1178 H1220 0.929 . S
C1179 C1176 1.356 . S
C1179 C1181 1.358 . S
C1179 H1221 0.930 . S
C1180 N1177 1.314 . S
C1180 C1178 1.353 . S
C1180 H1222 0.930 . S
C1181 N1177 1.279 . S
C1181 C1179 1.358 . S
C1181 H1223 0.930 . S
C1182 C1183 1.348 . S
C1182 C1184 1.356 . S
C1182 O1207 1.325 . S
C1183 C1182 1.348 . S
C1183 C1185 1.353 . S
C1183 H1224 0.929 . S
C1184 C1182 1.356 . S
C1184 C1186 1.358 . S
C1184 H1225 0.930 . S
C1185 C1183 1.353 . S
C1185 N1187 1.314 . S
C1185 H1226 0.930 . S
C1186 C1184 1.358 . S
C1186 N1187 1.279 . S
C1186 H1227 0.930 . S
N1187 C1185 1.314 . S
N1187 C1186 1.279 . S
C1188 C1190 1.353 . S
C1188 N1191 1.314 . S
C1188 H1194 0.930 . S
C1189 N1191 1.279 . S
C1189 C1192 1.358 . S
C1189 H1195 0.930 . S
C1190 C1188 1.353 . S
C1190 C1193 1.348 . S
C1190 H1228 0.929 . S
N1191 Li1146 1.990 . S
N1191 C1188 1.314 . S
N1191 C1189 1.279 . S
C1192 C1189 1.358 . S
C1192 C1193 1.356 . S
C1192 H1229 0.930 . S
C1193 C1190 1.348 . S
C1193 C1192 1.356 . S
H1194 C1188 0.930 . S
H1195 C1189 0.930 . S
C1196 N1197 1.314 . S
C1196 C1198 1.353 . S
C1196 H1202 0.930 . S
N1197 Li1147 1.990 . S
N1197 C1196 1.314 . S
N1197 C1200 1.279 . S
C1198 C1196 1.353 . S
C1198 C1201 1.348 . S
C1198 H1230 0.929 . S
C1199 C1200 1.358 . S
C1199 C1201 1.356 . S
C1199 H1231 0.930 . S
C1200 N1197 1.279 . S
C1200 C1199 1.358 . S
C1200 H1203 0.930 . S
C1201 C1198 1.348 . S
C1201 C1199 1.356 . S
H1202 C1196 0.930 . S
H1203 C1200 0.930 . S
O1204 Li1144 1.956 . S
O1204 Li1145 1.970 . S
O1204 Li1146 1.961 . S
O1204 C1148 1.325 . S
O1205 Li1144 1.970 . S
O1205 Li1145 1.956 . S
O1205 Li1147 1.961 . S
O1205 C1154 1.325 . S
O1206 Li1144 1.961 . S
O1206 Li1146 1.956 . S
O1206 Li1147 1.970 . S
O1206 C1176 1.325 . S
O1207 Li1145 1.961 . S
O1207 Li1146 1.970 . S
O1207 Li1147 1.956 . S
O1207 C1182 1.325 . S
H1208 C1150 0.929 . S
H1209 C1151 0.930 . S
H1210 C1152 0.930 . S
H1211 C1153 0.930 . S
H1212 C1155 0.930 . S
H1213 C1157 0.929 . S
H1214 C1158 0.930 . S
H1215 C1159 0.930 . S
H1216 C1162 0.930 . S
H1217 C1165 0.929 . S
H1218 C1170 0.929 . S
H1219 C1171 0.930 . S
H1220 C1178 0.929 . S
H1221 C1179 0.930 . S
H1222 C1180 0.930 . S
H1223 C1181 0.930 . S
H1224 C1183 0.929 . S
H1225 C1184 0.930 . S
H1226 C1185 0.930 . S
H1227 C1186 0.930 . S
H1228 C1190 0.929 . S
H1229 C1192 0.930 . S
H1230 C1198 0.929 . S
H1231 C1199 0.930 . S
Li1232 N1249 1.990 1_565 S
Li1232 O1292 1.956 . S
Li1232 O1293 1.970 . S
Li1232 O1294 1.961 . S
Li1233 N1257 1.990 . S
Li1233 O1292 1.970 . S
Li1233 O1293 1.956 . S
Li1233 O1295 1.961 . S
Li1234 N1279 1.990 . S
Li1234 O1292 1.961 . S
Li1234 O1294 1.956 . S
Li1234 O1295 1.970 . S
Li1235 N1285 1.990 . S
Li1235 O1293 1.961 . S
Li1235 O1294 1.970 . S
Li1235 O1295 1.956 . S
C1236 C1238 1.348 . S
C1236 C1239 1.356 . S
C1236 O1292 1.325 1_545 S
N1237 C1240 1.314 . S
N1237 C1241 1.279 . S
C1238 C1236 1.348 . S
C1238 C1240 1.353 . S
C1238 H1296 0.929 . S
C1239 C1236 1.356 . S
C1239 C1241 1.358 . S
C1239 H1297 0.930 . S
C1240 N1237 1.314 . S
C1240 C1238 1.353 . S
C1240 H1298 0.930 . S
C1241 N1237 1.279 . S
C1241 C1239 1.358 . S
C1241 H1299 0.930 . S
C1242 C1245 1.348 . S
C1242 C1246 1.356 . S
C1242 O1293 1.325 . S
C1243 N1244 1.279 . S
C1243 C1246 1.358 . S
C1243 H1300 0.930 . S
N1244 C1243 1.279 . S
N1244 C1247 1.314 . S
C1245 C1242 1.348 . S
C1245 C1247 1.353 . S
C1245 H1301 0.929 1_565 S
C1246 C1242 1.356 . S
C1246 C1243 1.358 . S
C1246 H1302 0.930 . S
C1247 N1244 1.314 . S
C1247 C1245 1.353 . S
C1247 H1303 0.930 1_565 S
C1248 N1249 1.314 . S
C1248 C1253 1.353 . S
C1248 H1254 0.930 1_545 S
N1249 Li1232 1.990 1_545 S
N1249 C1248 1.314 . S
N1249 C1251 1.279 . S
C1250 C1251 1.358 . S
C1250 C1252 1.356 . S
C1250 H1304 0.930 . S
C1251 N1249 1.279 . S
C1251 C1250 1.358 . S
C1251 H1255 0.930 . S
C1252 C1250 1.356 . S
C1252 C1253 1.348 . S
C1253 C1248 1.353 . S
C1253 C1252 1.348 . S
C1253 H1305 0.929 . S
H1254 C1248 0.930 1_565 S
H1255 C1251 0.930 . S
C1256 N1257 1.314 . S
C1256 C1258 1.353 . S
C1256 H1262 0.930 . S
N1257 Li1233 1.990 . S
N1257 C1256 1.314 . S
N1257 C1260 1.279 . S
C1258 C1256 1.353 . S
C1258 C1261 1.348 . S
C1258 H1306 0.929 . S
C1259 C1260 1.358 . S
C1259 C1261 1.356 . S
C1259 H1307 0.930 . S
C1260 N1257 1.279 . S
C1260 C1259 1.358 . S
C1260 H1263 0.930 . S
C1261 C1258 1.348 . S
C1261 C1259 1.356 . S
H1262 C1256 0.930 . S
H1263 C1260 0.930 . S
C1264 C1266 1.348 . S
C1264 C1267 1.356 . S
C1264 O1294 1.325 . S
N1265 C1268 1.314 . S
N1265 C1269 1.279 . S
C1266 C1264 1.348 . S
C1266 C1268 1.353 . S
C1266 H1308 0.929 . S
C1267 C1264 1.356 . S
C1267 C1269 1.358 . S
C1267 H1309 0.930 . S
C1268 N1265 1.314 . S
C1268 C1266 1.353 . S
C1268 H1310 0.930 . S
C1269 N1265 1.279 . S
C1269 C1267 1.358 . S
C1269 H1311 0.930 . S
C1270 C1271 1.348 . S
C1270 C1272 1.356 . S
C1270 O1295 1.325 . S
C1271 C1270 1.348 . S
C1271 C1273 1.353 . S
C1271 H1312 0.929 . S
C1272 C1270 1.356 . S
C1272 C1274 1.358 . S
C1272 H1313 0.930 . S
C1273 C1271 1.353 . S
C1273 N1275 1.314 . S
C1273 H1314 0.930 . S
C1274 C1272 1.358 . S
C1274 N1275 1.279 . S
C1274 H1315 0.930 . S
N1275 C1273 1.314 . S
N1275 C1274 1.279 . S
C1276 C1278 1.327 1_655 S
C1276 N1279 1.336 . S
C1276 H1282 0.935 . S
C1277 N1279 1.279 . S
C1277 C1280 1.358 1_655 S
C1277 H1283 0.930 . S
C1278 C1276 1.327 1_455 S
C1278 C1281 1.348 . S
C1278 H1316 0.929 . S
N1279 Li1234 1.990 . S
N1279 C1276 1.336 . S
N1279 C1277 1.279 . S
C1280 C1277 1.358 1_455 S
C1280 C1281 1.356 . S
C1280 H1317 0.930 . S
C1281 C1278 1.348 . S
C1281 C1280 1.356 . S
H1282 C1276 0.935 . S
H1283 C1277 0.930 . S
C1284 N1285 1.314 . S
C1284 C1286 1.353 . S
C1284 H1290 0.930 . S
N1285 Li1235 1.990 . S
N1285 C1284 1.314 . S
N1285 C1288 1.279 . S
C1286 C1284 1.353 . S
C1286 C1289 1.348 . S
C1286 H1318 0.929 . S
C1287 C1288 1.358 . S
C1287 C1289 1.356 . S
C1287 H1319 0.930 . S
C1288 N1285 1.279 . S
C1288 C1287 1.358 . S
C1288 H1291 0.930 . S
C1289 C1286 1.348 . S
C1289 C1287 1.356 . S
H1290 C1284 0.930 . S
H1291 C1288 0.930 . S
O1292 Li1232 1.956 . S
O1292 Li1233 1.970 . S
O1292 Li1234 1.961 . S
O1292 C1236 1.325 1_565 S
O1293 Li1232 1.970 . S
O1293 Li1233 1.956 . S
O1293 Li1235 1.961 . S
O1293 C1242 1.325 . S
O1294 Li1232 1.961 . S
O1294 Li1234 1.956 . S
O1294 Li1235 1.970 . S
O1294 C1264 1.325 . S
O1295 Li1233 1.961 . S
O1295 Li1234 1.970 . S
O1295 Li1235 1.956 . S
O1295 C1270 1.325 . S
H1296 C1238 0.929 . S
H1297 C1239 0.930 . S
H1298 C1240 0.930 . S
H1299 C1241 0.930 . S
H1300 C1243 0.930 . S
H1301 C1245 0.929 1_545 S
H1302 C1246 0.930 . S
H1303 C1247 0.930 1_545 S
H1304 C1250 0.930 . S
H1305 C1253 0.929 . S
H1306 C1258 0.929 . S
H1307 C1259 0.930 . S
H1308 C1266 0.929 . S
H1309 C1267 0.930 . S
H1310 C1268 0.930 . S
H1311 C1269 0.930 . S
H1312 C1271 0.929 . S
H1313 C1272 0.930 . S
H1314 C1273 0.930 . S
H1315 C1274 0.930 . S
H1316 C1278 0.929 . S
H1317 C1280 0.930 . S
H1318 C1286 0.929 . S
H1319 C1287 0.930 . S
Li1320 N1337 1.990 . S
Li1320 O1380 1.956 . S
Li1320 O1381 1.970 . S
Li1320 O1382 1.961 . S
Li1321 N1345 1.990 . S
Li1321 O1380 1.970 . S
Li1321 O1381 1.956 . S
Li1321 O1383 1.961 . S
Li1322 N1367 1.990 . S
Li1322 O1380 1.961 . S
Li1322 O1382 1.956 . S
Li1322 O1383 1.970 . S
Li1323 N1373 1.990 . S
Li1323 O1381 1.961 . S
Li1323 O1382 1.970 . S
Li1323 O1383 1.956 . S
C1324 C1326 1.348 . S
C1324 C1327 1.356 . S
C1324 O1380 1.325 . S
N1325 C1328 1.314 . S
N1325 C1329 1.279 . S
C1326 C1324 1.348 . S
C1326 C1328 1.353 . S
C1326 H1384 0.929 . S
C1327 C1324 1.356 . S
C1327 C1329 1.358 . S
C1327 H1385 0.930 . S
C1328 N1325 1.314 . S
C1328 C1326 1.353 . S
C1328 H1386 0.930 . S
C1329 N1325 1.279 . S
C1329 C1327 1.358 . S
C1329 H1387 0.930 . S
C1330 C1333 1.348 . S
C1330 C1334 1.356 . S
C1330 O1381 1.325 . S
C1331 N1332 1.279 . S
C1331 C1334 1.358 . S
C1331 H1388 0.930 . S
N1332 C1331 1.279 . S
N1332 C1335 1.314 . S
C1333 C1330 1.348 . S
C1333 C1335 1.353 . S
C1333 H1389 0.929 . S
C1334 C1330 1.356 . S
C1334 C1331 1.358 . S
C1334 H1390 0.930 . S
C1335 N1332 1.314 . S
C1335 C1333 1.353 . S
C1335 H1391 0.930 . S
C1336 N1337 1.314 . S
C1336 C1341 1.353 . S
C1336 H1342 0.930 . S
N1337 Li1320 1.990 . S
N1337 C1336 1.314 . S
N1337 C1339 1.279 . S
C1338 C1339 1.358 . S
C1338 C1340 1.356 . S
C1338 H1392 0.930 . S
C1339 N1337 1.279 . S
C1339 C1338 1.358 . S
C1339 H1343 0.930 . S
C1340 C1338 1.356 . S
C1340 C1341 1.348 . S
C1341 C1336 1.353 . S
C1341 C1340 1.348 . S
C1341 H1393 0.929 . S
H1342 C1336 0.930 . S
H1343 C1339 0.930 . S
C1344 N1345 1.314 . S
C1344 C1346 1.353 . S
C1344 H1350 0.930 . S
N1345 Li1321 1.990 . S
N1345 C1344 1.314 . S
N1345 C1348 1.279 . S
C1346 C1344 1.353 . S
C1346 C1349 1.348 . S
C1346 H1394 0.929 . S
C1347 C1348 1.358 . S
C1347 C1349 1.356 . S
C1347 H1395 0.930 . S
C1348 N1345 1.279 . S
C1348 C1347 1.358 . S
C1348 H1351 0.930 . S
C1349 C1346 1.348 . S
C1349 C1347 1.356 . S
H1350 C1344 0.930 . S
H1351 C1348 0.930 . S
C1352 C1354 1.348 . S
C1352 C1355 1.356 . S
C1352 O1382 1.325 . S
N1353 C1356 1.314 . S
N1353 C1357 1.279 . S
C1354 C1352 1.348 . S
C1354 C1356 1.353 . S
C1354 H1396 0.929 . S
C1355 C1352 1.356 . S
C1355 C1357 1.358 . S
C1355 H1397 0.930 . S
C1356 N1353 1.314 . S
C1356 C1354 1.353 . S
C1356 H1398 0.930 . S
C1357 N1353 1.279 . S
C1357 C1355 1.358 . S
C1357 H1399 0.930 . S
C1358 C1359 1.348 . S
C1358 C1360 1.356 . S
C1358 O1383 1.325 . S
C1359 C1358 1.348 . S
C1359 C1361 1.353 . S
C1359 H1400 0.929 . S
C1360 C1358 1.356 . S
C1360 C1362 1.358 . S
C1360 H1401 0.930 . S
C1361 C1359 1.353 . S
C1361 N1363 1.314 . S
C1361 H1402 0.930 . S
C1362 C1360 1.358 . S
C1362 N1363 1.279 . S
C1362 H1403 0.930 . S
N1363 C1361 1.314 . S
N1363 C1362 1.279 . S
C1364 C1366 1.353 . S
C1364 N1367 1.314 . S
C1364 H1370 0.930 . S
C1365 N1367 1.279 . S
C1365 C1368 1.358 . S
C1365 H1371 0.930 . S
C1366 C1364 1.353 . S
C1366 C1369 1.348 . S
C1366 H1404 0.929 . S
N1367 Li1322 1.990 . S
N1367 C1364 1.314 . S
N1367 C1365 1.279 . S
C1368 C1365 1.358 . S
C1368 C1369 1.356 . S
C1368 H1405 0.930 . S
C1369 C1366 1.348 . S
C1369 C1368 1.356 . S
H1370 C1364 0.930 . S
H1371 C1365 0.930 . S
C1372 N1373 1.314 . S
C1372 C1374 1.353 . S
C1372 H1378 0.930 . S
N1373 Li1323 1.990 . S
N1373 C1372 1.314 . S
N1373 C1376 1.279 . S
C1374 C1372 1.353 . S
C1374 C1377 1.348 . S
C1374 H1406 0.929 . S
C1375 C1376 1.358 . S
C1375 C1377 1.356 . S
C1375 H1407 0.930 . S
C1376 N1373 1.279 . S
C1376 C1375 1.358 . S
C1376 H1379 0.930 . S
C1377 C1374 1.348 . S
C1377 C1375 1.356 . S
H1378 C1372 0.930 . S
H1379 C1376 0.930 . S
O1380 Li1320 1.956 . S
O1380 Li1321 1.970 . S
O1380 Li1322 1.961 . S
O1380 C1324 1.325 . S
O1381 Li1320 1.970 . S
O1381 Li1321 1.956 . S
O1381 Li1323 1.961 . S
O1381 C1330 1.325 . S
O1382 Li1320 1.961 . S
O1382 Li1322 1.956 . S
O1382 Li1323 1.970 . S
O1382 C1352 1.325 . S
O1383 Li1321 1.961 . S
O1383 Li1322 1.970 . S
O1383 Li1323 1.956 . S
O1383 C1358 1.325 . S
H1384 C1326 0.929 . S
H1385 C1327 0.930 . S
H1386 C1328 0.930 . S
H1387 C1329 0.930 . S
H1388 C1331 0.930 . S
H1389 C1333 0.929 . S
H1390 C1334 0.930 . S
H1391 C1335 0.930 . S
H1392 C1338 0.930 . S
H1393 C1341 0.929 . S
H1394 C1346 0.929 . S
H1395 C1347 0.930 . S
H1396 C1354 0.929 . S
H1397 C1355 0.930 . S
H1398 C1356 0.930 . S
H1399 C1357 0.930 . S
H1400 C1359 0.929 . S
H1401 C1360 0.930 . S
H1402 C1361 0.930 . S
H1403 C1362 0.930 . S
H1404 C1366 0.929 . S
H1405 C1368 0.930 . S
H1406 C1374 0.929 . S
H1407 C1375 0.930 . S
Li1408 N1425 1.990 . S
Li1408 O1468 1.956 . S
Li1408 O1469 1.970 . S
Li1408 O1470 1.961 . S
Li1409 N1433 1.990 . S
Li1409 O1468 1.970 . S
Li1409 O1469 1.956 . S
Li1409 O1471 1.961 . S
Li1410 N1455 1.990 . S
Li1410 O1468 1.961 . S
Li1410 O1470 1.956 . S
Li1410 O1471 1.970 . S
Li1411 N1461 1.990 . S
Li1411 O1469 1.961 . S
Li1411 O1470 1.970 . S
Li1411 O1471 1.956 . S
C1412 C1414 1.348 . S
C1412 C1415 1.356 . S
C1412 O1468 1.325 . S
N1413 C1416 1.314 . S
N1413 C1417 1.279 . S
C1414 C1412 1.348 . S
C1414 C1416 1.353 . S
C1414 H1472 0.929 . S
C1415 C1412 1.356 . S
C1415 C1417 1.358 . S
C1415 H1473 0.930 . S
C1416 N1413 1.314 . S
C1416 C1414 1.353 . S
C1416 H1474 0.930 . S
C1417 N1413 1.279 . S
C1417 C1415 1.358 . S
C1417 H1475 0.930 . S
C1418 C1421 1.348 . S
C1418 C1422 1.356 . S
C1418 O1469 1.325 . S
C1419 N1420 1.279 . S
C1419 C1422 1.358 . S
C1419 H1476 0.930 . S
N1420 C1419 1.279 . S
N1420 C1423 1.314 . S
C1421 C1418 1.348 . S
C1421 C1423 1.353 . S
C1421 H1477 0.929 . S
C1422 C1418 1.356 . S
C1422 C1419 1.358 . S
C1422 H1478 0.930 . S
C1423 N1420 1.314 . S
C1423 C1421 1.353 . S
C1423 H1479 0.930 . S
C1424 N1425 1.314 . S
C1424 C1429 1.353 . S
C1424 H1430 0.930 . S
N1425 Li1408 1.990 . S
N1425 C1424 1.314 . S
N1425 C1427 1.279 . S
C1426 C1427 1.358 . S
C1426 C1428 1.356 . S
C1426 H1480 0.930 . S
C1427 N1425 1.279 . S
C1427 C1426 1.358 . S
C1427 H1431 0.930 . S
C1428 C1426 1.356 . S
C1428 C1429 1.348 . S
C1429 C1424 1.353 . S
C1429 C1428 1.348 . S
C1429 H1481 0.929 . S
H1430 C1424 0.930 . S
H1431 C1427 0.930 . S
C1432 N1433 1.314 . S
C1432 C1434 1.353 1_655 S
C1432 H1438 0.930 . S
N1433 Li1409 1.990 . S
N1433 C1432 1.314 . S
N1433 C1436 1.279 . S
C1434 C1432 1.353 1_455 S
C1434 C1437 1.348 . S
C1434 H1482 0.929 . S
C1435 C1436 1.358 1_455 S
C1435 C1437 1.356 . S
C1435 H1483 0.930 . S
C1436 N1433 1.279 . S
C1436 C1435 1.358 1_655 S
C1436 H1439 0.930 . S
C1437 C1434 1.348 . S
C1437 C1435 1.356 . S
H1438 C1432 0.930 . S
H1439 C1436 0.930 . S
C1440 C1442 1.348 . S
C1440 C1443 1.356 . S
C1440 O1470 1.325 . S
N1441 C1444 1.314 . S
N1441 C1445 1.279 . S
C1442 C1440 1.348 . S
C1442 C1444 1.353 . S
C1442 H1484 0.929 . S
C1443 C1440 1.356 . S
C1443 C1445 1.358 . S
C1443 H1485 0.930 . S
C1444 N1441 1.314 . S
C1444 C1442 1.353 . S
C1444 H1486 0.930 . S
C1445 N1441 1.279 . S
C1445 C1443 1.358 . S
C1445 H1487 0.930 . S
C1446 C1447 1.348 . S
C1446 C1448 1.356 . S
C1446 O1471 1.325 . S
C1447 C1446 1.348 . S
C1447 C1449 1.353 . S
C1447 H1488 0.929 . S
C1448 C1446 1.356 . S
C1448 C1450 1.358 . S
C1448 H1489 0.930 . S
C1449 C1447 1.353 . S
C1449 N1451 1.314 . S
C1449 H1490 0.930 . S
C1450 C1448 1.358 . S
C1450 N1451 1.279 . S
C1450 H1491 0.930 . S
N1451 C1449 1.314 . S
N1451 C1450 1.279 . S
C1452 C1454 1.353 . S
C1452 N1455 1.314 . S
C1452 H1458 0.930 . S
C1453 N1455 1.279 . S
C1453 C1456 1.358 . S
C1453 H1459 0.930 . S
C1454 C1452 1.353 . S
C1454 C1457 1.348 . S
C1454 H1492 0.929 . S
N1455 Li1410 1.990 . S
N1455 C1452 1.314 . S
N1455 C1453 1.279 . S
C1456 C1453 1.358 . S
C1456 C1457 1.356 . S
C1456 H1493 0.930 . S
C1457 C1454 1.348 . S
C1457 C1456 1.356 . S
H1458 C1452 0.930 . S
H1459 C1453 0.930 . S
C1460 N1461 1.314 . S
C1460 C1462 1.353 . S
C1460 H1466 0.930 . S
N1461 Li1411 1.990 . S
N1461 C1460 1.314 . S
N1461 C1464 1.279 . S
C1462 C1460 1.353 . S
C1462 C1465 1.348 . S
C1462 H1494 0.929 . S
C1463 C1464 1.358 . S
C1463 C1465 1.356 . S
C1463 H1495 0.930 . S
C1464 N1461 1.279 . S
C1464 C1463 1.358 . S
C1464 H1467 0.930 . S
C1465 C1462 1.348 . S
C1465 C1463 1.356 . S
H1466 C1460 0.930 . S
H1467 C1464 0.930 . S
O1468 Li1408 1.956 . S
O1468 Li1409 1.970 . S
O1468 Li1410 1.961 . S
O1468 C1412 1.325 . S
O1469 Li1408 1.970 . S
O1469 Li1409 1.956 . S
O1469 Li1411 1.961 . S
O1469 C1418 1.325 . S
O1470 Li1408 1.961 . S
O1470 Li1410 1.956 . S
O1470 Li1411 1.970 . S
O1470 C1440 1.325 . S
O1471 Li1409 1.961 . S
O1471 Li1410 1.970 . S
O1471 Li1411 1.956 . S
O1471 C1446 1.325 . S
H1472 C1414 0.929 . S
H1473 C1415 0.930 . S
H1474 C1416 0.930 . S
H1475 C1417 0.930 . S
H1476 C1419 0.930 . S
H1477 C1421 0.929 . S
H1478 C1422 0.930 . S
H1479 C1423 0.930 . S
H1480 C1426 0.930 . S
H1481 C1429 0.929 . S
H1482 C1434 0.929 . S
H1483 C1435 0.930 . S
H1484 C1442 0.929 . S
H1485 C1443 0.930 . S
H1486 C1444 0.930 . S
H1487 C1445 0.930 . S
H1488 C1447 0.929 . S
H1489 C1448 0.930 . S
H1490 C1449 0.930 . S
H1491 C1450 0.930 . S
H1492 C1454 0.929 . S
H1493 C1456 0.930 . S
H1494 C1462 0.929 . S
H1495 C1463 0.930 . S
Li1496 N1513 1.990 . S
Li1496 O1556 1.956 . S
Li1496 O1557 1.970 . S
Li1496 O1558 1.961 . S
Li1497 N1521 1.990 . S
Li1497 O1556 1.970 . S
Li1497 O1557 1.956 . S
Li1497 O1559 1.961 . S
Li1498 N1543 1.990 . S
Li1498 O1556 1.961 . S
Li1498 O1558 1.956 . S
Li1498 O1559 1.970 . S
Li1499 N1549 1.990 . S
Li1499 O1557 1.961 . S
Li1499 O1558 1.970 . S
Li1499 O1559 1.956 . S
C1500 C1502 1.348 . S
C1500 C1503 1.356 . S
C1500 O1556 1.325 . S
N1501 C1504 1.314 . S
N1501 C1505 1.279 . S
C1502 C1500 1.348 . S
C1502 C1504 1.353 . S
C1502 H1560 0.929 . S
C1503 C1500 1.356 . S
C1503 C1505 1.358 . S
C1503 H1561 0.930 . S
C1504 N1501 1.314 . S
C1504 C1502 1.353 . S
C1504 H1562 0.930 . S
C1505 N1501 1.279 . S
C1505 C1503 1.358 . S
C1505 H1563 0.930 . S
C1506 C1509 1.348 . S
C1506 C1510 1.356 . S
C1506 O1557 1.325 . S
C1507 N1508 1.279 . S
C1507 C1510 1.358 . S
C1507 H1564 0.930 . S
N1508 C1507 1.279 . S
N1508 C1511 1.314 . S
C1509 C1506 1.348 . S
C1509 C1511 1.353 . S
C1509 H1565 0.929 . S
C1510 C1506 1.356 . S
C1510 C1507 1.358 . S
C1510 H1566 0.930 . S
C1511 N1508 1.314 . S
C1511 C1509 1.353 . S
C1511 H1567 0.930 . S
C1512 N1513 1.314 . S
C1512 C1517 1.353 . S
C1512 H1518 0.930 . S
N1513 Li1496 1.990 . S
N1513 C1512 1.314 . S
N1513 C1515 1.279 . S
C1514 C1515 1.358 . S
C1514 C1516 1.356 . S
C1514 H1568 0.930 . S
C1515 N1513 1.279 . S
C1515 C1514 1.358 . S
C1515 H1519 0.930 . S
C1516 C1514 1.356 . S
C1516 C1517 1.348 . S
C1517 C1512 1.353 . S
C1517 C1516 1.348 . S
C1517 H1569 0.929 . S
H1518 C1512 0.930 . S
H1519 C1515 0.930 . S
C1520 N1521 1.314 . S
C1520 C1522 1.353 . S
C1520 H1526 0.930 . S
N1521 Li1497 1.990 . S
N1521 C1520 1.314 . S
N1521 C1524 1.279 . S
C1522 C1520 1.353 . S
C1522 C1525 1.348 . S
C1522 H1570 0.929 . S
C1523 C1524 1.358 . S
C1523 C1525 1.356 . S
C1523 H1571 0.930 . S
C1524 N1521 1.279 . S
C1524 C1523 1.358 . S
C1524 H1527 0.930 . S
C1525 C1522 1.348 . S
C1525 C1523 1.356 . S
H1526 C1520 0.930 . S
H1527 C1524 0.930 . S
C1528 C1530 1.348 . S
C1528 C1531 1.356 . S
C1528 O1558 1.325 . S
N1529 C1532 1.314 . S
N1529 C1533 1.279 . S
C1530 C1528 1.348 . S
C1530 C1532 1.353 . S
C1530 H1572 0.929 . S
C1531 C1528 1.356 . S
C1531 C1533 1.358 . S
C1531 H1573 0.930 . S
C1532 N1529 1.314 . S
C1532 C1530 1.353 . S
C1532 H1574 0.930 . S
C1533 N1529 1.279 . S
C1533 C1531 1.358 . S
C1533 H1575 0.930 . S
C1534 C1535 1.348 . S
C1534 C1536 1.356 . S
C1534 O1559 1.325 . S
C1535 C1534 1.348 . S
C1535 C1537 1.353 . S
C1535 H1576 0.929 . S
C1536 C1534 1.356 . S
C1536 C1538 1.358 . S
C1536 H1577 0.930 . S
C1537 C1535 1.353 . S
C1537 N1539 1.314 . S
C1537 H1578 0.930 . S
C1538 C1536 1.358 . S
C1538 N1539 1.279 . S
C1538 H1579 0.930 . S
N1539 C1537 1.314 . S
N1539 C1538 1.279 . S
C1540 C1542 1.353 . S
C1540 N1543 1.314 . S
C1540 H1546 0.930 . S
C1541 N1543 1.279 . S
C1541 C1544 1.358 . S
C1541 H1547 0.930 . S
C1542 C1540 1.353 . S
C1542 C1545 1.348 . S
C1542 H1580 0.929 . S
N1543 Li1498 1.990 . S
N1543 C1540 1.314 . S
N1543 C1541 1.279 . S
C1544 C1541 1.358 . S
C1544 C1545 1.356 . S
C1544 H1581 0.930 . S
C1545 C1542 1.348 . S
C1545 C1544 1.356 . S
H1546 C1540 0.930 . S
H1547 C1541 0.930 . S
C1548 N1549 1.314 . S
C1548 C1550 1.353 . S
C1548 H1554 0.930 . S
N1549 Li1499 1.990 . S
N1549 C1548 1.314 . S
N1549 C1552 1.279 . S
C1550 C1548 1.353 . S
C1550 C1553 1.348 . S
C1550 H1582 0.929 . S
C1551 C1552 1.358 . S
C1551 C1553 1.356 . S
C1551 H1583 0.930 . S
C1552 N1549 1.279 . S
C1552 C1551 1.358 . S
C1552 H1555 0.930 . S
C1553 C1550 1.348 . S
C1553 C1551 1.356 . S
H1554 C1548 0.930 . S
H1555 C1552 0.930 . S
O1556 Li1496 1.956 . S
O1556 Li1497 1.970 . S
O1556 Li1498 1.961 . S
O1556 C1500 1.325 . S
O1557 Li1496 1.970 . S
O1557 Li1497 1.956 . S
O1557 Li1499 1.961 . S
O1557 C1506 1.325 . S
O1558 Li1496 1.961 . S
O1558 Li1498 1.956 . S
O1558 Li1499 1.970 . S
O1558 C1528 1.325 . S
O1559 Li1497 1.961 . S
O1559 Li1498 1.970 . S
O1559 Li1499 1.956 . S
O1559 C1534 1.325 . S
H1560 C1502 0.929 . S
H1561 C1503 0.930 . S
H1562 C1504 0.930 . S
H1563 C1505 0.930 . S
H1564 C1507 0.930 . S
H1565 C1509 0.929 . S
H1566 C1510 0.930 . S
H1567 C1511 0.930 . S
H1568 C1514 0.930 . S
H1569 C1517 0.929 . S
H1570 C1522 0.929 . S
H1571 C1523 0.930 . S
H1572 C1530 0.929 . S
H1573 C1531 0.930 . S
H1574 C1532 0.930 . S
H1575 C1533 0.930 . S
H1576 C1535 0.929 . S
H1577 C1536 0.930 . S
H1578 C1537 0.930 . S
H1579 C1538 0.930 . S
H1580 C1542 0.929 . S
H1581 C1544 0.930 . S
H1582 C1550 0.929 . S
H1583 C1551 0.930 . S
Li1584 N1601 1.990 . S
Li1584 O1644 1.956 . S
Li1584 O1645 1.970 . S
Li1584 O1646 1.961 . S
Li1585 N1609 1.990 . S
Li1585 O1644 1.970 . S
Li1585 O1645 1.956 . S
Li1585 O1647 1.961 . S
Li1586 N1631 1.990 . S
Li1586 O1644 1.961 . S
Li1586 O1646 1.956 . S
Li1586 O1647 1.970 . S
Li1587 N1637 1.990 . S
Li1587 O1645 1.961 . S
Li1587 O1646 1.970 . S
Li1587 O1647 1.956 . S
C1588 C1590 1.348 . S
C1588 C1591 1.356 . S
C1588 O1644 1.325 . S
N1589 C1592 1.314 . S
N1589 C1593 1.279 . S
C1590 C1588 1.348 . S
C1590 C1592 1.353 . S
C1590 H1648 0.929 . S
C1591 C1588 1.356 . S
C1591 C1593 1.358 . S
C1591 H1649 0.930 . S
C1592 N1589 1.314 . S
C1592 C1590 1.353 . S
C1592 H1650 0.930 . S
C1593 N1589 1.279 . S
C1593 C1591 1.358 . S
C1593 H1651 0.930 . S
C1594 C1597 1.348 . S
C1594 C1598 1.356 . S
C1594 O1645 1.325 . S
C1595 N1596 1.279 . S
C1595 C1598 1.358 . S
C1595 H1652 0.930 . S
N1596 C1595 1.279 . S
N1596 C1599 1.314 . S
C1597 C1594 1.348 . S
C1597 C1599 1.353 . S
C1597 H1653 0.929 . S
C1598 C1594 1.356 . S
C1598 C1595 1.358 . S
C1598 H1654 0.930 . S
C1599 N1596 1.314 . S
C1599 C1597 1.353 . S
C1599 H1655 0.930 . S
C1600 N1601 1.314 . S
C1600 C1605 1.353 . S
C1600 H1606 0.930 . S
N1601 Li1584 1.990 . S
N1601 C1600 1.314 . S
N1601 C1603 1.279 . S
C1602 C1603 1.358 . S
C1602 C1604 1.356 . S
C1602 H1656 0.930 . S
C1603 N1601 1.279 . S
C1603 C1602 1.358 . S
C1603 H1607 0.930 . S
C1604 C1602 1.356 . S
C1604 C1605 1.348 . S
C1605 C1600 1.353 . S
C1605 C1604 1.348 . S
C1605 H1657 0.929 . S
H1606 C1600 0.930 . S
H1607 C1603 0.930 . S
C1608 N1609 1.314 . S
C1608 C1610 1.353 . S
C1608 H1614 0.930 . S
N1609 Li1585 1.990 . S
N1609 C1608 1.314 . S
N1609 C1612 1.279 . S
C1610 C1608 1.353 . S
C1610 C1613 1.348 . S
C1610 H1658 0.929 . S
C1611 C1612 1.358 . S
C1611 C1613 1.356 . S
C1611 H1659 0.930 . S
C1612 N1609 1.279 . S
C1612 C1611 1.358 . S
C1612 H1615 0.930 . S
C1613 C1610 1.348 . S
C1613 C1611 1.356 . S
H1614 C1608 0.930 . S
H1615 C1612 0.930 . S
C1616 C1618 1.348 . S
C1616 C1619 1.356 . S
C1616 O1646 1.325 . S
N1617 C1620 1.314 . S
N1617 C1621 1.279 . S
C1618 C1616 1.348 . S
C1618 C1620 1.353 . S
C1618 H1660 0.929 . S
C1619 C1616 1.356 . S
C1619 C1621 1.358 . S
C1619 H1661 0.930 . S
C1620 N1617 1.314 . S
C1620 C1618 1.353 . S
C1620 H1662 0.930 . S
C1621 N1617 1.279 . S
C1621 C1619 1.358 . S
C1621 H1663 0.930 . S
C1622 C1623 1.348 . S
C1622 C1624 1.356 . S
C1622 O1647 1.325 . S
C1623 C1622 1.348 . S
C1623 C1625 1.353 . S
C1623 H1664 0.929 . S
C1624 C1622 1.356 . S
C1624 C1626 1.358 . S
C1624 H1665 0.930 . S
C1625 C1623 1.353 . S
C1625 N1627 1.314 . S
C1625 H1666 0.930 . S
C1626 C1624 1.358 . S
C1626 N1627 1.279 . S
C1626 H1667 0.930 . S
N1627 C1625 1.314 . S
N1627 C1626 1.279 . S
C1628 C1630 1.353 . S
C1628 N1631 1.314 . S
C1628 H1634 0.930 . S
C1629 N1631 1.279 . S
C1629 C1632 1.358 . S
C1629 H1635 0.930 . S
C1630 C1628 1.353 . S
C1630 C1633 1.348 . S
C1630 H1668 0.929 . S
N1631 Li1586 1.990 . S
N1631 C1628 1.314 . S
N1631 C1629 1.279 . S
C1632 C1629 1.358 . S
C1632 C1633 1.356 . S
C1632 H1669 0.930 . S
C1633 C1630 1.348 . S
C1633 C1632 1.356 . S
H1634 C1628 0.930 . S
H1635 C1629 0.930 . S
C1636 N1637 1.314 . S
C1636 C1638 1.353 . S
C1636 H1642 0.930 . S
N1637 Li1587 1.990 . S
N1637 C1636 1.314 . S
N1637 C1640 1.279 . S
C1638 C1636 1.353 . S
C1638 C1641 1.348 . S
C1638 H1670 0.929 . S
C1639 C1640 1.358 . S
C1639 C1641 1.356 . S
C1639 H1671 0.930 . S
C1640 N1637 1.279 . S
C1640 C1639 1.358 . S
C1640 H1643 0.930 . S
C1641 C1638 1.348 . S
C1641 C1639 1.356 . S
H1642 C1636 0.930 . S
H1643 C1640 0.930 . S
O1644 Li1584 1.956 . S
O1644 Li1585 1.970 . S
O1644 Li1586 1.961 . S
O1644 C1588 1.325 . S
O1645 Li1584 1.970 . S
O1645 Li1585 1.956 . S
O1645 Li1587 1.961 . S
O1645 C1594 1.325 . S
O1646 Li1584 1.961 . S
O1646 Li1586 1.956 . S
O1646 Li1587 1.970 . S
O1646 C1616 1.325 . S
O1647 Li1585 1.961 . S
O1647 Li1586 1.970 . S
O1647 Li1587 1.956 . S
O1647 C1622 1.325 . S
H1648 C1590 0.929 . S
H1649 C1591 0.930 . S
H1650 C1592 0.930 . S
H1651 C1593 0.930 . S
H1652 C1595 0.930 . S
H1653 C1597 0.929 . S
H1654 C1598 0.930 . S
H1655 C1599 0.930 . S
H1656 C1602 0.930 . S
H1657 C1605 0.929 . S
H1658 C1610 0.929 . S
H1659 C1611 0.930 . S
H1660 C1618 0.929 . S
H1661 C1619 0.930 . S
H1662 C1620 0.930 . S
H1663 C1621 0.930 . S
H1664 C1623 0.929 . S
H1665 C1624 0.930 . S
H1666 C1625 0.930 . S
H1667 C1626 0.930 . S
H1668 C1630 0.929 . S
H1669 C1632 0.930 . S
H1670 C1638 0.929 . S
H1671 C1639 0.930 . S
Li1672 N1689 1.990 . S
Li1672 O1732 1.956 . S
Li1672 O1733 1.970 . S
Li1672 O1734 1.961 . S
Li1673 N1697 1.990 . S
Li1673 O1732 1.970 . S
Li1673 O1733 1.956 . S
Li1673 O1735 1.961 . S
Li1674 N1719 1.990 . S
Li1674 O1732 1.961 . S
Li1674 O1734 1.956 . S
Li1674 O1735 1.970 . S
Li1675 N1725 1.990 . S
Li1675 O1733 1.961 . S
Li1675 O1734 1.970 . S
Li1675 O1735 1.956 . S
C1676 C1678 1.348 . S
C1676 C1679 1.356 . S
C1676 O1732 1.325 . S
N1677 C1680 1.314 . S
N1677 C1681 1.279 . S
C1678 C1676 1.348 . S
C1678 C1680 1.353 . S
C1678 H1736 0.929 . S
C1679 C1676 1.356 . S
C1679 C1681 1.358 . S
C1679 H1737 0.930 . S
C1680 N1677 1.314 . S
C1680 C1678 1.353 . S
C1680 H1738 0.930 . S
C1681 N1677 1.279 . S
C1681 C1679 1.358 . S
C1681 H1739 0.930 . S
C1682 C1685 1.348 . S
C1682 C1686 1.356 . S
C1682 O1733 1.325 . S
C1683 N1684 1.279 . S
C1683 C1686 1.358 . S
C1683 H1740 0.930 . S
N1684 C1683 1.279 . S
N1684 C1687 1.314 . S
C1685 C1682 1.348 . S
C1685 C1687 1.353 . S
C1685 H1741 0.929 . S
C1686 C1682 1.356 . S
C1686 C1683 1.358 . S
C1686 H1742 0.930 . S
C1687 N1684 1.314 . S
C1687 C1685 1.353 . S
C1687 H1743 0.930 . S
C1688 N1689 1.314 . S
C1688 C1693 1.353 . S
C1688 H1694 0.930 . S
N1689 Li1672 1.990 . S
N1689 C1688 1.314 . S
N1689 C1691 1.279 . S
C1690 C1691 1.358 . S
C1690 C1692 1.356 . S
C1690 H1744 0.930 . S
C1691 N1689 1.279 . S
C1691 C1690 1.358 . S
C1691 H1695 0.930 . S
C1692 C1690 1.356 . S
C1692 C1693 1.348 . S
C1693 C1688 1.353 . S
C1693 C1692 1.348 . S
C1693 H1745 0.929 . S
H1694 C1688 0.930 . S
H1695 C1691 0.930 . S
C1696 N1697 1.314 . S
C1696 C1698 1.353 . S
C1696 H1702 0.930 . S
N1697 Li1673 1.990 . S
N1697 C1696 1.314 . S
N1697 C1700 1.279 . S
C1698 C1696 1.353 . S
C1698 C1701 1.348 . S
C1698 H1746 0.929 . S
C1699 C1700 1.358 . S
C1699 C1701 1.356 . S
C1699 H1747 0.930 . S
C1700 N1697 1.279 . S
C1700 C1699 1.358 . S
C1700 H1703 0.930 . S
C1701 C1698 1.348 . S
C1701 C1699 1.356 . S
H1702 C1696 0.930 . S
H1703 C1700 0.930 . S
C1704 C1706 1.348 . S
C1704 C1707 1.356 . S
C1704 O1734 1.325 . S
N1705 C1708 1.314 . S
N1705 C1709 1.279 . S
C1706 C1704 1.348 . S
C1706 C1708 1.353 . S
C1706 H1748 0.929 . S
C1707 C1704 1.356 . S
C1707 C1709 1.358 . S
C1707 H1749 0.930 . S
C1708 N1705 1.314 . S
C1708 C1706 1.353 . S
C1708 H1750 0.930 . S
C1709 N1705 1.279 . S
C1709 C1707 1.358 . S
C1709 H1751 0.930 . S
C1710 C1711 1.348 . S
C1710 C1712 1.356 . S
C1710 O1735 1.325 . S
C1711 C1710 1.348 . S
C1711 C1713 1.353 . S
C1711 H1752 0.929 . S
C1712 C1710 1.356 . S
C1712 C1714 1.358 . S
C1712 H1753 0.930 . S
C1713 C1711 1.353 . S
C1713 N1715 1.314 . S
C1713 H1754 0.930 . S
C1714 C1712 1.358 . S
C1714 N1715 1.279 . S
C1714 H1755 0.930 . S
N1715 C1713 1.314 . S
N1715 C1714 1.279 . S
C1716 C1718 1.353 . S
C1716 N1719 1.314 . S
C1716 H1722 0.930 . S
C1717 N1719 1.279 . S
C1717 C1720 1.358 . S
C1717 H1723 0.930 . S
C1718 C1716 1.353 . S
C1718 C1721 1.348 . S
C1718 H1756 0.929 . S
N1719 Li1674 1.990 . S
N1719 C1716 1.314 . S
N1719 C1717 1.279 . S
C1720 C1717 1.358 . S
C1720 C1721 1.356 . S
C1720 H1757 0.930 . S
C1721 C1718 1.348 . S
C1721 C1720 1.356 . S
H1722 C1716 0.930 . S
H1723 C1717 0.930 . S
C1724 N1725 1.314 . S
C1724 C1726 1.353 . S
C1724 H1730 0.930 . S
N1725 Li1675 1.990 . S
N1725 C1724 1.314 . S
N1725 C1728 1.279 . S
C1726 C1724 1.353 . S
C1726 C1729 1.348 . S
C1726 H1758 0.929 . S
C1727 C1728 1.358 . S
C1727 C1729 1.356 . S
C1727 H1759 0.930 . S
C1728 N1725 1.279 . S
C1728 C1727 1.358 . S
C1728 H1731 0.930 . S
C1729 C1726 1.348 . S
C1729 C1727 1.356 . S
H1730 C1724 0.930 . S
H1731 C1728 0.930 . S
O1732 Li1672 1.956 . S
O1732 Li1673 1.970 . S
O1732 Li1674 1.961 . S
O1732 C1676 1.325 . S
O1733 Li1672 1.970 . S
O1733 Li1673 1.956 . S
O1733 Li1675 1.961 . S
O1733 C1682 1.325 . S
O1734 Li1672 1.961 . S
O1734 Li1674 1.956 . S
O1734 Li1675 1.970 . S
O1734 C1704 1.325 . S
O1735 Li1673 1.961 . S
O1735 Li1674 1.970 . S
O1735 Li1675 1.956 . S
O1735 C1710 1.325 . S
H1736 C1678 0.929 . S
H1737 C1679 0.930 . S
H1738 C1680 0.930 . S
H1739 C1681 0.930 . S
H1740 C1683 0.930 . S
H1741 C1685 0.929 . S
H1742 C1686 0.930 . S
H1743 C1687 0.930 . S
H1744 C1690 0.930 . S
H1745 C1693 0.929 . S
H1746 C1698 0.929 . S
H1747 C1699 0.930 . S
H1748 C1706 0.929 . S
H1749 C1707 0.930 . S
H1750 C1708 0.930 . S
H1751 C1709 0.930 . S
H1752 C1711 0.929 . S
H1753 C1712 0.930 . S
H1754 C1713 0.930 . S
H1755 C1714 0.930 . S
H1756 C1718 0.929 . S
H1757 C1720 0.930 . S
H1758 C1726 0.929 . S
H1759 C1727 0.930 . S
Li1760 N1777 1.990 . S
Li1760 O1820 1.956 . S
Li1760 O1821 1.970 . S
Li1760 O1822 1.961 . S
Li1761 N1785 1.990 . S
Li1761 O1820 1.970 . S
Li1761 O1821 1.956 . S
Li1761 O1823 1.961 . S
Li1762 N1807 1.990 . S
Li1762 O1820 1.961 . S
Li1762 O1822 1.956 . S
Li1762 O1823 1.970 . S
Li1763 N1813 1.990 . S
Li1763 O1821 1.961 . S
Li1763 O1822 1.970 . S
Li1763 O1823 1.956 . S
C1764 C1766 1.348 . S
C1764 C1767 1.356 . S
C1764 O1820 1.325 . S
N1765 C1768 1.314 . S
N1765 C1769 1.279 . S
C1766 C1764 1.348 . S
C1766 C1768 1.353 . S
C1766 H1824 0.929 . S
C1767 C1764 1.356 . S
C1767 C1769 1.358 . S
C1767 H1825 0.930 . S
C1768 N1765 1.314 . S
C1768 C1766 1.353 . S
C1768 H1826 0.930 . S
C1769 N1765 1.279 . S
C1769 C1767 1.358 . S
C1769 H1827 0.930 . S
C1770 C1773 1.348 . S
C1770 C1774 1.356 . S
C1770 O1821 1.325 . S
C1771 N1772 1.279 . S
C1771 C1774 1.358 . S
C1771 H1828 0.930 . S
N1772 C1771 1.279 . S
N1772 C1775 1.314 . S
C1773 C1770 1.348 . S
C1773 C1775 1.353 . S
C1773 H1829 0.929 . S
C1774 C1770 1.356 . S
C1774 C1771 1.358 . S
C1774 H1830 0.930 . S
C1775 N1772 1.314 . S
C1775 C1773 1.353 . S
C1775 H1831 0.930 . S
C1776 N1777 1.314 . S
C1776 C1781 1.353 . S
C1776 H1782 0.930 . S
N1777 Li1760 1.990 . S
N1777 C1776 1.314 . S
N1777 C1779 1.279 . S
C1778 C1779 1.358 . S
C1778 C1780 1.356 . S
C1778 H1832 0.930 . S
C1779 N1777 1.279 . S
C1779 C1778 1.358 . S
C1779 H1783 0.930 . S
C1780 C1778 1.356 . S
C1780 C1781 1.348 . S
C1781 C1776 1.353 . S
C1781 C1780 1.348 . S
C1781 H1833 0.929 . S
H1782 C1776 0.930 . S
H1783 C1779 0.930 . S
C1784 N1785 1.314 . S
C1784 C1786 1.353 . S
C1784 H1790 0.930 . S
N1785 Li1761 1.990 . S
N1785 C1784 1.314 . S
N1785 C1788 1.279 . S
C1786 C1784 1.353 . S
C1786 C1789 1.348 . S
C1786 H1834 0.929 . S
C1787 C1788 1.358 . S
C1787 C1789 1.356 . S
C1787 H1835 0.930 . S
C1788 N1785 1.279 . S
C1788 C1787 1.358 . S
C1788 H1791 0.930 . S
C1789 C1786 1.348 . S
C1789 C1787 1.356 . S
H1790 C1784 0.930 . S
H1791 C1788 0.930 . S
C1792 C1794 1.348 . S
C1792 C1795 1.356 . S
C1792 O1822 1.325 . S
N1793 C1796 1.314 . S
N1793 C1797 1.279 . S
C1794 C1792 1.348 . S
C1794 C1796 1.353 . S
C1794 H1836 0.929 . S
C1795 C1792 1.356 . S
C1795 C1797 1.358 . S
C1795 H1837 0.930 . S
C1796 N1793 1.314 . S
C1796 C1794 1.353 . S
C1796 H1838 0.930 . S
C1797 N1793 1.279 . S
C1797 C1795 1.358 . S
C1797 H1839 0.930 . S
C1798 C1799 1.348 . S
C1798 C1800 1.356 . S
C1798 O1823 1.325 . S
C1799 C1798 1.348 . S
C1799 C1801 1.353 . S
C1799 H1840 0.929 . S
C1800 C1798 1.356 . S
C1800 C1802 1.358 . S
C1800 H1841 0.930 . S
C1801 C1799 1.353 . S
C1801 N1803 1.314 . S
C1801 H1842 0.930 . S
C1802 C1800 1.358 . S
C1802 N1803 1.279 . S
C1802 H1843 0.930 . S
N1803 C1801 1.314 . S
N1803 C1802 1.279 . S
C1804 C1806 1.353 1_655 S
C1804 N1807 1.314 . S
C1804 H1810 0.930 . S
C1805 N1807 1.279 . S
C1805 C1808 1.358 1_655 S
C1805 H1811 0.930 . S
C1806 C1804 1.353 1_455 S
C1806 C1809 1.348 . S
C1806 H1844 0.929 . S
N1807 Li1762 1.990 . S
N1807 C1804 1.314 . S
N1807 C1805 1.279 . S
C1808 C1805 1.358 1_455 S
C1808 C1809 1.356 . S
C1808 H1845 0.930 . S
C1809 C1806 1.348 . S
C1809 C1808 1.356 . S
H1810 C1804 0.930 . S
H1811 C1805 0.930 . S
C1812 N1813 1.314 . S
C1812 C1814 1.353 . S
C1812 H1818 0.930 . S
N1813 Li1763 1.990 . S
N1813 C1812 1.314 . S
N1813 C1816 1.279 . S
C1814 C1812 1.353 . S
C1814 C1817 1.348 . S
C1814 H1846 0.929 . S
C1815 C1816 1.358 . S
C1815 C1817 1.356 . S
C1815 H1847 0.930 . S
C1816 N1813 1.279 . S
C1816 C1815 1.358 . S
C1816 H1819 0.930 . S
C1817 C1814 1.348 . S
C1817 C1815 1.356 . S
H1818 C1812 0.930 . S
H1819 C1816 0.930 . S
O1820 Li1760 1.956 . S
O1820 Li1761 1.970 . S
O1820 Li1762 1.961 . S
O1820 C1764 1.325 . S
O1821 Li1760 1.970 . S
O1821 Li1761 1.956 . S
O1821 Li1763 1.961 . S
O1821 C1770 1.325 . S
O1822 Li1760 1.961 . S
O1822 Li1762 1.956 . S
O1822 Li1763 1.970 . S
O1822 C1792 1.325 . S
O1823 Li1761 1.961 . S
O1823 Li1762 1.970 . S
O1823 Li1763 1.956 . S
O1823 C1798 1.325 . S
H1824 C1766 0.929 . S
H1825 C1767 0.930 . S
H1826 C1768 0.930 . S
H1827 C1769 0.930 . S
H1828 C1771 0.930 . S
H1829 C1773 0.929 . S
H1830 C1774 0.930 . S
H1831 C1775 0.930 . S
H1832 C1778 0.930 . S
H1833 C1781 0.929 . S
H1834 C1786 0.929 . S
H1835 C1787 0.930 . S
H1836 C1794 0.929 . S
H1837 C1795 0.930 . S
H1838 C1796 0.930 . S
H1839 C1797 0.930 . S
H1840 C1799 0.929 . S
H1841 C1800 0.930 . S
H1842 C1801 0.930 . S
H1843 C1802 0.930 . S
H1844 C1806 0.929 . S
H1845 C1808 0.930 . S
H1846 C1814 0.929 . S
H1847 C1815 0.930 . S
Li1848 N1865 1.990 . S
Li1848 O1908 1.956 . S
Li1848 O1909 1.970 . S
Li1848 O1910 1.961 . S
Li1849 N1873 1.990 . S
Li1849 O1908 1.970 . S
Li1849 O1909 1.956 . S
Li1849 O1911 1.961 . S
Li1850 N1895 1.990 . S
Li1850 O1908 1.961 . S
Li1850 O1910 1.956 . S
Li1850 O1911 1.970 . S
Li1851 N1901 1.990 . S
Li1851 O1909 1.961 . S
Li1851 O1910 1.970 . S
Li1851 O1911 1.956 . S
C1852 C1854 1.348 . S
C1852 C1855 1.356 . S
C1852 O1908 1.325 . S
N1853 C1856 1.314 . S
N1853 C1857 1.279 . S
C1854 C1852 1.348 . S
C1854 C1856 1.353 . S
C1854 H1912 0.929 . S
C1855 C1852 1.356 . S
C1855 C1857 1.358 . S
C1855 H1913 0.930 . S
C1856 N1853 1.314 . S
C1856 C1854 1.353 . S
C1856 H1914 0.930 . S
C1857 N1853 1.279 . S
C1857 C1855 1.358 . S
C1857 H1915 0.930 . S
C1858 C1861 1.348 . S
C1858 C1862 1.356 . S
C1858 O1909 1.325 . S
C1859 N1860 1.279 . S
C1859 C1862 1.358 . S
C1859 H1916 0.930 . S
N1860 C1859 1.279 . S
N1860 C1863 1.314 . S
C1861 C1858 1.348 . S
C1861 C1863 1.353 . S
C1861 H1917 0.929 . S
C1862 C1858 1.356 . S
C1862 C1859 1.358 . S
C1862 H1918 0.930 . S
C1863 N1860 1.314 . S
C1863 C1861 1.353 . S
C1863 H1919 0.930 . S
C1864 N1865 1.314 . S
C1864 C1869 1.353 . S
C1864 H1870 0.930 . S
N1865 Li1848 1.990 . S
N1865 C1864 1.314 . S
N1865 C1867 1.279 . S
C1866 C1867 1.358 . S
C1866 C1868 1.356 . S
C1866 H1920 0.930 . S
C1867 N1865 1.279 . S
C1867 C1866 1.358 . S
C1867 H1871 0.930 . S
C1868 C1866 1.356 . S
C1868 C1869 1.348 . S
C1869 C1864 1.353 . S
C1869 C1868 1.348 . S
C1869 H1921 0.929 . S
H1870 C1864 0.930 . S
H1871 C1867 0.930 . S
C1872 N1873 1.314 . S
C1872 C1874 1.353 . S
C1872 H1878 0.930 . S
N1873 Li1849 1.990 . S
N1873 C1872 1.314 . S
N1873 C1876 1.279 . S
C1874 C1872 1.353 . S
C1874 C1877 1.348 . S
C1874 H1922 0.929 . S
C1875 C1876 1.358 . S
C1875 C1877 1.356 . S
C1875 H1923 0.930 . S
C1876 N1873 1.279 . S
C1876 C1875 1.358 . S
C1876 H1879 0.930 . S
C1877 C1874 1.348 . S
C1877 C1875 1.356 . S
H1878 C1872 0.930 . S
H1879 C1876 0.930 . S
C1880 C1882 1.348 . S
C1880 C1883 1.356 . S
C1880 O1910 1.325 . S
N1881 C1884 1.314 . S
N1881 C1885 1.279 . S
C1882 C1880 1.348 . S
C1882 C1884 1.353 . S
C1882 H1924 0.929 . S
C1883 C1880 1.356 . S
C1883 C1885 1.358 . S
C1883 H1925 0.930 . S
C1884 N1881 1.314 . S
C1884 C1882 1.353 . S
C1884 H1926 0.930 . S
C1885 N1881 1.279 . S
C1885 C1883 1.358 . S
C1885 H1927 0.930 . S
C1886 C1887 1.348 . S
C1886 C1888 1.356 . S
C1886 O1911 1.325 . S
C1887 C1886 1.348 . S
C1887 C1889 1.353 . S
C1887 H1928 0.929 . S
C1888 C1886 1.356 . S
C1888 C1890 1.358 . S
C1888 H1929 0.930 . S
C1889 C1887 1.353 . S
C1889 N1891 1.314 . S
C1889 H1930 0.930 . S
C1890 C1888 1.358 . S
C1890 N1891 1.279 . S
C1890 H1931 0.930 . S
N1891 C1889 1.314 . S
N1891 C1890 1.279 . S
C1892 C1894 1.353 . S
C1892 N1895 1.314 . S
C1892 H1898 0.930 . S
C1893 N1895 1.279 . S
C1893 C1896 1.358 . S
C1893 H1899 0.930 . S
C1894 C1892 1.353 . S
C1894 C1897 1.348 . S
C1894 H1932 0.929 . S
N1895 Li1850 1.990 . S
N1895 C1892 1.314 . S
N1895 C1893 1.279 . S
C1896 C1893 1.358 . S
C1896 C1897 1.356 . S
C1896 H1933 0.930 . S
C1897 C1894 1.348 . S
C1897 C1896 1.356 . S
H1898 C1892 0.930 . S
H1899 C1893 0.930 . S
C1900 N1901 1.314 . S
C1900 C1902 1.353 . S
C1900 H1906 0.930 . S
N1901 Li1851 1.990 . S
N1901 C1900 1.314 . S
N1901 C1904 1.279 . S
C1902 C1900 1.353 . S
C1902 C1905 1.348 . S
C1902 H1934 0.929 . S
C1903 C1904 1.358 . S
C1903 C1905 1.356 . S
C1903 H1935 0.930 . S
C1904 N1901 1.279 . S
C1904 C1903 1.358 . S
C1904 H1907 0.930 . S
C1905 C1902 1.348 . S
C1905 C1903 1.356 . S
H1906 C1900 0.930 . S
H1907 C1904 0.930 . S
O1908 Li1848 1.956 . S
O1908 Li1849 1.970 . S
O1908 Li1850 1.961 . S
O1908 C1852 1.325 . S
O1909 Li1848 1.970 . S
O1909 Li1849 1.956 . S
O1909 Li1851 1.961 . S
O1909 C1858 1.325 . S
O1910 Li1848 1.961 . S
O1910 Li1850 1.956 . S
O1910 Li1851 1.970 . S
O1910 C1880 1.325 . S
O1911 Li1849 1.961 . S
O1911 Li1850 1.970 . S
O1911 Li1851 1.956 . S
O1911 C1886 1.325 . S
H1912 C1854 0.929 . S
H1913 C1855 0.930 . S
H1914 C1856 0.930 . S
H1915 C1857 0.930 . S
H1916 C1859 0.930 . S
H1917 C1861 0.929 . S
H1918 C1862 0.930 . S
H1919 C1863 0.930 . S
H1920 C1866 0.930 . S
H1921 C1869 0.929 . S
H1922 C1874 0.929 . S
H1923 C1875 0.930 . S
H1924 C1882 0.929 . S
H1925 C1883 0.930 . S
H1926 C1884 0.930 . S
H1927 C1885 0.930 . S
H1928 C1887 0.929 . S
H1929 C1888 0.930 . S
H1930 C1889 0.930 . S
H1931 C1890 0.930 . S
H1932 C1894 0.929 . S
H1933 C1896 0.930 . S
H1934 C1902 0.929 . S
H1935 C1903 0.930 . S
Li1936 N1953 1.990 . S
Li1936 O1996 1.956 . S
Li1936 O1997 1.970 . S
Li1936 O1998 1.961 . S
Li1937 N1961 1.990 . S
Li1937 O1996 1.970 . S
Li1937 O1997 1.956 . S
Li1937 O1999 1.961 . S
Li1938 N1983 1.990 . S
Li1938 O1996 1.961 . S
Li1938 O1998 1.956 . S
Li1938 O1999 1.970 . S
Li1939 N1989 1.990 . S
Li1939 O1997 1.961 . S
Li1939 O1998 1.970 . S
Li1939 O1999 1.956 . S
C1940 C1942 1.348 . S
C1940 C1943 1.356 . S
C1940 O1996 1.325 . S
N1941 C1944 1.314 . S
N1941 C1945 1.279 . S
C1942 C1940 1.348 . S
C1942 C1944 1.353 . S
C1942 H2000 0.929 . S
C1943 C1940 1.356 . S
C1943 C1945 1.358 . S
C1943 H2001 0.930 . S
C1944 N1941 1.314 . S
C1944 C1942 1.353 . S
C1944 H2002 0.930 . S
C1945 N1941 1.279 . S
C1945 C1943 1.358 . S
C1945 H2003 0.930 . S
C1946 C1949 1.348 . S
C1946 C1950 1.356 . S
C1946 O1997 1.325 . S
C1947 N1948 1.279 . S
C1947 C1950 1.358 . S
C1947 H2004 0.930 . S
N1948 C1947 1.279 . S
N1948 C1951 1.314 . S
C1949 C1946 1.348 . S
C1949 C1951 1.353 . S
C1949 H2005 0.929 . S
C1950 C1946 1.356 . S
C1950 C1947 1.358 . S
C1950 H2006 0.930 . S
C1951 N1948 1.314 . S
C1951 C1949 1.353 . S
C1951 H2007 0.930 . S
C1952 N1953 1.314 . S
C1952 C1957 1.353 . S
C1952 H1958 0.930 . S
N1953 Li1936 1.990 . S
N1953 C1952 1.314 . S
N1953 C1955 1.279 . S
C1954 C1955 1.358 . S
C1954 C1956 1.356 . S
C1954 H2008 0.930 . S
C1955 N1953 1.279 . S
C1955 C1954 1.358 . S
C1955 H1959 0.930 . S
C1956 C1954 1.356 . S
C1956 C1957 1.348 . S
C1957 C1952 1.353 . S
C1957 C1956 1.348 . S
C1957 H2009 0.929 . S
H1958 C1952 0.930 . S
H1959 C1955 0.930 . S
C1960 N1961 1.314 . S
C1960 C1962 1.353 . S
C1960 H1966 0.930 . S
N1961 Li1937 1.990 . S
N1961 C1960 1.314 . S
N1961 C1964 1.279 . S
C1962 C1960 1.353 . S
C1962 C1965 1.348 . S
C1962 H2010 0.929 . S
C1963 C1964 1.358 . S
C1963 C1965 1.356 . S
C1963 H2011 0.930 . S
C1964 N1961 1.279 . S
C1964 C1963 1.358 . S
C1964 H1967 0.930 . S
C1965 C1962 1.348 . S
C1965 C1963 1.356 . S
H1966 C1960 0.930 . S
H1967 C1964 0.930 . S
C1968 C1970 1.348 . S
C1968 C1971 1.356 . S
C1968 O1998 1.325 . S
N1969 C1972 1.314 . S
N1969 C1973 1.279 . S
C1970 C1968 1.348 . S
C1970 C1972 1.353 . S
C1970 H2012 0.929 . S
C1971 C1968 1.356 . S
C1971 C1973 1.358 . S
C1971 H2013 0.930 . S
C1972 N1969 1.314 . S
C1972 C1970 1.353 . S
C1972 H2014 0.930 . S
C1973 N1969 1.279 . S
C1973 C1971 1.358 . S
C1973 H2015 0.930 . S
C1974 C1975 1.348 . S
C1974 C1976 1.356 . S
C1974 O1999 1.325 . S
C1975 C1974 1.348 . S
C1975 C1977 1.353 . S
C1975 H2016 0.929 . S
C1976 C1974 1.356 . S
C1976 C1978 1.358 . S
C1976 H2017 0.930 . S
C1977 C1975 1.353 . S
C1977 N1979 1.314 . S
C1977 H2018 0.930 . S
C1978 C1976 1.358 . S
C1978 N1979 1.279 . S
C1978 H2019 0.930 . S
N1979 C1977 1.314 . S
N1979 C1978 1.279 . S
C1980 C1982 1.353 . S
C1980 N1983 1.314 . S
C1980 H1986 0.930 . S
C1981 N1983 1.279 . S
C1981 C1984 1.358 . S
C1981 H1987 0.930 . S
C1982 C1980 1.353 . S
C1982 C1985 1.348 . S
C1982 H2020 0.929 . S
N1983 Li1938 1.990 . S
N1983 C1980 1.314 . S
N1983 C1981 1.279 . S
C1984 C1981 1.358 . S
C1984 C1985 1.356 . S
C1984 H2021 0.930 . S
C1985 C1982 1.348 . S
C1985 C1984 1.356 . S
H1986 C1980 0.930 . S
H1987 C1981 0.930 . S
C1988 N1989 1.314 . S
C1988 C1990 1.353 . S
C1988 H1994 0.930 . S
N1989 Li1939 1.990 . S
N1989 C1988 1.314 . S
N1989 C1992 1.279 . S
C1990 C1988 1.353 . S
C1990 C1993 1.348 . S
C1990 H2022 0.929 . S
C1991 C1992 1.358 . S
C1991 C1993 1.356 . S
C1991 H2023 0.930 . S
C1992 N1989 1.279 . S
C1992 C1991 1.358 . S
C1992 H1995 0.930 . S
C1993 C1990 1.348 . S
C1993 C1991 1.356 . S
H1994 C1988 0.930 . S
H1995 C1992 0.930 . S
O1996 Li1936 1.956 . S
O1996 Li1937 1.970 . S
O1996 Li1938 1.961 . S
O1996 C1940 1.325 . S
O1997 Li1936 1.970 . S
O1997 Li1937 1.956 . S
O1997 Li1939 1.961 . S
O1997 C1946 1.325 . S
O1998 Li1936 1.961 . S
O1998 Li1938 1.956 . S
O1998 Li1939 1.970 . S
O1998 C1968 1.325 . S
O1999 Li1937 1.961 . S
O1999 Li1938 1.970 . S
O1999 Li1939 1.956 . S
O1999 C1974 1.325 . S
H2000 C1942 0.929 . S
H2001 C1943 0.930 . S
H2002 C1944 0.930 . S
H2003 C1945 0.930 . S
H2004 C1947 0.930 . S
H2005 C1949 0.929 . S
H2006 C1950 0.930 . S
H2007 C1951 0.930 . S
H2008 C1954 0.930 . S
H2009 C1957 0.929 . S
H2010 C1962 0.929 . S
H2011 C1963 0.930 . S
H2012 C1970 0.929 . S
H2013 C1971 0.930 . S
H2014 C1972 0.930 . S
H2015 C1973 0.930 . S
H2016 C1975 0.929 . S
H2017 C1976 0.930 . S
H2018 C1977 0.930 . S
H2019 C1978 0.930 . S
H2020 C1982 0.929 . S
H2021 C1984 0.930 . S
H2022 C1990 0.929 . S
H2023 C1991 0.930 . S
Li2024 N2041 1.990 . S
Li2024 O2084 1.956 . S
Li2024 O2085 1.970 . S
Li2024 O2086 1.961 . S
Li2025 N2049 1.990 . S
Li2025 O2084 1.970 . S
Li2025 O2085 1.956 . S
Li2025 O2087 1.961 . S
Li2026 N2071 1.990 . S
Li2026 O2084 1.961 . S
Li2026 O2086 1.956 . S
Li2026 O2087 1.970 . S
Li2027 N2077 1.990 . S
Li2027 O2085 1.961 . S
Li2027 O2086 1.970 . S
Li2027 O2087 1.956 . S
C2028 C2030 1.348 . S
C2028 C2031 1.356 . S
C2028 O2084 1.325 . S
N2029 C2032 1.314 . S
N2029 C2033 1.279 . S
C2030 C2028 1.348 . S
C2030 C2032 1.353 . S
C2030 H2088 0.929 . S
C2031 C2028 1.356 . S
C2031 C2033 1.358 . S
C2031 H2089 0.930 . S
C2032 N2029 1.314 . S
C2032 C2030 1.353 . S
C2032 H2090 0.930 . S
C2033 N2029 1.279 . S
C2033 C2031 1.358 . S
C2033 H2091 0.930 . S
C2034 C2037 1.348 . S
C2034 C2038 1.356 . S
C2034 O2085 1.325 . S
C2035 N2036 1.279 . S
C2035 C2038 1.358 . S
C2035 H2092 0.930 . S
N2036 C2035 1.279 . S
N2036 C2039 1.314 . S
C2037 C2034 1.348 . S
C2037 C2039 1.353 . S
C2037 H2093 0.929 . S
C2038 C2034 1.356 . S
C2038 C2035 1.358 . S
C2038 H2094 0.930 . S
C2039 N2036 1.314 . S
C2039 C2037 1.353 . S
C2039 H2095 0.930 . S
C2040 N2041 1.314 . S
C2040 C2045 1.353 . S
C2040 H2046 0.930 . S
N2041 Li2024 1.990 . S
N2041 C2040 1.314 . S
N2041 C2043 1.279 . S
C2042 C2043 1.358 . S
C2042 C2044 1.356 . S
C2042 H2096 0.930 . S
C2043 N2041 1.279 . S
C2043 C2042 1.358 . S
C2043 H2047 0.930 . S
C2044 C2042 1.356 . S
C2044 C2045 1.348 . S
C2045 C2040 1.353 . S
C2045 C2044 1.348 . S
C2045 H2097 0.929 . S
H2046 C2040 0.930 . S
H2047 C2043 0.930 . S
C2048 N2049 1.314 . S
C2048 C2050 1.353 . S
C2048 H2054 0.930 . S
N2049 Li2025 1.990 . S
N2049 C2048 1.314 . S
N2049 C2052 1.279 . S
C2050 C2048 1.353 . S
C2050 C2053 1.348 . S
C2050 H2098 0.929 . S
C2051 C2052 1.358 . S
C2051 C2053 1.356 . S
C2051 H2099 0.930 . S
C2052 N2049 1.279 . S
C2052 C2051 1.358 . S
C2052 H2055 0.930 . S
C2053 C2050 1.348 . S
C2053 C2051 1.356 . S
H2054 C2048 0.930 . S
H2055 C2052 0.930 . S
C2056 C2058 1.348 . S
C2056 C2059 1.356 . S
C2056 O2086 1.325 . S
N2057 C2060 1.314 . S
N2057 C2061 1.279 . S
C2058 C2056 1.348 . S
C2058 C2060 1.353 . S
C2058 H2100 0.929 . S
C2059 C2056 1.356 . S
C2059 C2061 1.358 . S
C2059 H2101 0.930 . S
C2060 N2057 1.314 . S
C2060 C2058 1.353 . S
C2060 H2102 0.930 . S
C2061 N2057 1.279 . S
C2061 C2059 1.358 . S
C2061 H2103 0.930 . S
C2062 C2063 1.348 . S
C2062 C2064 1.356 . S
C2062 O2087 1.325 . S
C2063 C2062 1.348 . S
C2063 C2065 1.353 . S
C2063 H2104 0.929 . S
C2064 C2062 1.356 . S
C2064 C2066 1.358 . S
C2064 H2105 0.930 . S
C2065 C2063 1.353 . S
C2065 N2067 1.314 . S
C2065 H2106 0.930 . S
C2066 C2064 1.358 . S
C2066 N2067 1.279 . S
C2066 H2107 0.930 . S
N2067 C2065 1.314 . S
N2067 C2066 1.279 . S
C2068 C2070 1.353 . S
C2068 N2071 1.314 . S
C2068 H2074 0.930 . S
C2069 N2071 1.279 . S
C2069 C2072 1.358 . S
C2069 H2075 0.930 . S
C2070 C2068 1.353 . S
C2070 C2073 1.348 . S
C2070 H2108 0.929 . S
N2071 Li2026 1.990 . S
N2071 C2068 1.314 . S
N2071 C2069 1.279 . S
C2072 C2069 1.358 . S
C2072 C2073 1.356 . S
C2072 H2109 0.930 . S
C2073 C2070 1.348 . S
C2073 C2072 1.356 . S
H2074 C2068 0.930 . S
H2075 C2069 0.930 . S
C2076 N2077 1.314 . S
C2076 C2078 1.353 . S
C2076 H2082 0.930 . S
N2077 Li2027 1.990 . S
N2077 C2076 1.314 . S
N2077 C2080 1.279 . S
C2078 C2076 1.353 . S
C2078 C2081 1.348 . S
C2078 H2110 0.929 . S
C2079 C2080 1.358 . S
C2079 C2081 1.356 . S
C2079 H2111 0.930 . S
C2080 N2077 1.279 . S
C2080 C2079 1.358 . S
C2080 H2083 0.930 . S
C2081 C2078 1.348 . S
C2081 C2079 1.356 . S
H2082 C2076 0.930 . S
H2083 C2080 0.930 . S
O2084 Li2024 1.956 . S
O2084 Li2025 1.970 . S
O2084 Li2026 1.961 . S
O2084 C2028 1.325 . S
O2085 Li2024 1.970 . S
O2085 Li2025 1.956 . S
O2085 Li2027 1.961 . S
O2085 C2034 1.325 . S
O2086 Li2024 1.961 . S
O2086 Li2026 1.956 . S
O2086 Li2027 1.970 . S
O2086 C2056 1.325 . S
O2087 Li2025 1.961 . S
O2087 Li2026 1.970 . S
O2087 Li2027 1.956 . S
O2087 C2062 1.325 . S
H2088 C2030 0.929 . S
H2089 C2031 0.930 . S
H2090 C2032 0.930 . S
H2091 C2033 0.930 . S
H2092 C2035 0.930 . S
H2093 C2037 0.929 . S
H2094 C2038 0.930 . S
H2095 C2039 0.930 . S
H2096 C2042 0.930 . S
H2097 C2045 0.929 . S
H2098 C2050 0.929 . S
H2099 C2051 0.930 . S
H2100 C2058 0.929 . S
H2101 C2059 0.930 . S
H2102 C2060 0.930 . S
H2103 C2061 0.930 . S
H2104 C2063 0.929 . S
H2105 C2064 0.930 . S
H2106 C2065 0.930 . S
H2107 C2066 0.930 . S
H2108 C2070 0.929 . S
H2109 C2072 0.930 . S
H2110 C2078 0.929 . S
H2111 C2079 0.930 . S
Li2112 N2129 1.990 . S
Li2112 O2172 1.956 . S
Li2112 O2173 1.970 . S
Li2112 O2174 1.961 . S
Li2113 N2137 1.990 . S
Li2113 O2172 1.970 . S
Li2113 O2173 1.956 . S
Li2113 O2175 1.961 . S
Li2114 N2159 1.990 . S
Li2114 O2172 1.961 . S
Li2114 O2174 1.956 . S
Li2114 O2175 1.970 . S
Li2115 N2165 1.990 . S
Li2115 O2173 1.961 . S
Li2115 O2174 1.970 . S
Li2115 O2175 1.956 . S
C2116 C2118 1.348 . S
C2116 C2119 1.356 . S
C2116 O2172 1.325 . S
N2117 C2120 1.314 . S
N2117 C2121 1.279 . S
C2118 C2116 1.348 . S
C2118 C2120 1.353 . S
C2118 H2176 0.929 . S
C2119 C2116 1.356 . S
C2119 C2121 1.358 . S
C2119 H2177 0.930 . S
C2120 N2117 1.314 . S
C2120 C2118 1.353 . S
C2120 H2178 0.930 . S
C2121 N2117 1.279 . S
C2121 C2119 1.358 . S
C2121 H2179 0.930 . S
C2122 C2125 1.348 . S
C2122 C2126 1.356 . S
C2122 O2173 1.325 . S
C2123 N2124 1.279 . S
C2123 C2126 1.358 . S
C2123 H2180 0.930 . S
N2124 C2123 1.279 . S
N2124 C2127 1.314 . S
C2125 C2122 1.348 . S
C2125 C2127 1.353 . S
C2125 H2181 0.929 . S
C2126 C2122 1.356 . S
C2126 C2123 1.358 . S
C2126 H2182 0.930 . S
C2127 N2124 1.314 . S
C2127 C2125 1.353 . S
C2127 H2183 0.930 . S
C2128 N2129 1.314 . S
C2128 C2133 1.353 . S
C2128 H2134 0.930 . S
N2129 Li2112 1.990 . S
N2129 C2128 1.314 . S
N2129 C2131 1.279 . S
C2130 C2131 1.358 . S
C2130 C2132 1.356 . S
C2130 H2184 0.930 . S
C2131 N2129 1.279 . S
C2131 C2130 1.358 . S
C2131 H2135 0.930 . S
C2132 C2130 1.356 . S
C2132 C2133 1.348 . S
C2133 C2128 1.353 . S
C2133 C2132 1.348 . S
C2133 H2185 0.929 . S
H2134 C2128 0.930 . S
H2135 C2131 0.930 . S
C2136 N2137 1.314 . S
C2136 C2138 1.353 . S
C2136 H2142 0.930 . S
N2137 Li2113 1.990 . S
N2137 C2136 1.314 . S
N2137 C2140 1.279 . S
C2138 C2136 1.353 . S
C2138 C2141 1.348 . S
C2138 H2186 0.929 . S
C2139 C2140 1.358 . S
C2139 C2141 1.356 . S
C2139 H2187 0.930 . S
C2140 N2137 1.279 . S
C2140 C2139 1.358 . S
C2140 H2143 0.930 . S
C2141 C2138 1.348 . S
C2141 C2139 1.356 . S
H2142 C2136 0.930 . S
H2143 C2140 0.930 . S
C2144 C2146 1.348 . S
C2144 C2147 1.356 . S
C2144 O2174 1.325 . S
N2145 C2148 1.314 . S
N2145 C2149 1.279 . S
C2146 C2144 1.348 . S
C2146 C2148 1.353 . S
C2146 H2188 0.929 . S
C2147 C2144 1.356 . S
C2147 C2149 1.358 . S
C2147 H2189 0.930 . S
C2148 N2145 1.314 . S
C2148 C2146 1.353 . S
C2148 H2190 0.930 . S
C2149 N2145 1.279 . S
C2149 C2147 1.358 . S
C2149 H2191 0.930 . S
C2150 C2151 1.348 . S
C2150 C2152 1.356 . S
C2150 O2175 1.325 . S
C2151 C2150 1.348 . S
C2151 C2153 1.353 . S
C2151 H2192 0.929 . S
C2152 C2150 1.356 . S
C2152 C2154 1.358 . S
C2152 H2193 0.930 . S
C2153 C2151 1.353 . S
C2153 N2155 1.314 . S
C2153 H2194 0.930 . S
C2154 C2152 1.358 . S
C2154 N2155 1.279 . S
C2154 H2195 0.930 . S
N2155 C2153 1.314 . S
N2155 C2154 1.279 . S
C2156 C2158 1.353 . S
C2156 N2159 1.314 . S
C2156 H2162 0.930 . S
C2157 N2159 1.279 . S
C2157 C2160 1.358 . S
C2157 H2163 0.930 . S
C2158 C2156 1.353 . S
C2158 C2161 1.348 . S
C2158 H2196 0.929 . S
N2159 Li2114 1.990 . S
N2159 C2156 1.314 . S
N2159 C2157 1.279 . S
C2160 C2157 1.358 . S
C2160 C2161 1.356 . S
C2160 H2197 0.930 . S
C2161 C2158 1.348 . S
C2161 C2160 1.356 . S
H2162 C2156 0.930 . S
H2163 C2157 0.930 . S
C2164 N2165 1.337 . S
C2164 C2166 1.326 1_455 S
C2164 H2170 0.935 . S
N2165 Li2115 1.990 . S
N2165 C2164 1.337 . S
N2165 C2168 1.279 . S
C2166 C2164 1.326 1_655 S
C2166 C2169 1.348 . S
C2166 H2198 0.929 . S
C2167 C2168 1.358 1_655 S
C2167 C2169 1.356 . S
C2167 H2199 0.930 . S
C2168 N2165 1.279 . S
C2168 C2167 1.358 1_455 S
C2168 H2171 0.930 . S
C2169 C2166 1.348 . S
C2169 C2167 1.356 . S
H2170 C2164 0.935 . S
H2171 C2168 0.930 . S
O2172 Li2112 1.956 . S
O2172 Li2113 1.970 . S
O2172 Li2114 1.961 . S
O2172 C2116 1.325 . S
O2173 Li2112 1.970 . S
O2173 Li2113 1.956 . S
O2173 Li2115 1.961 . S
O2173 C2122 1.325 . S
O2174 Li2112 1.961 . S
O2174 Li2114 1.956 . S
O2174 Li2115 1.970 . S
O2174 C2144 1.325 . S
O2175 Li2113 1.961 . S
O2175 Li2114 1.970 . S
O2175 Li2115 1.956 . S
O2175 C2150 1.325 . S
H2176 C2118 0.929 . S
H2177 C2119 0.930 . S
H2178 C2120 0.930 . S
H2179 C2121 0.930 . S
H2180 C2123 0.930 . S
H2181 C2125 0.929 . S
H2182 C2126 0.930 . S
H2183 C2127 0.930 . S
H2184 C2130 0.930 . S
H2185 C2133 0.929 . S
H2186 C2138 0.929 . S
H2187 C2139 0.930 . S
H2188 C2146 0.929 . S
H2189 C2147 0.930 . S
H2190 C2148 0.930 . S
H2191 C2149 0.930 . S
H2192 C2151 0.929 . S
H2193 C2152 0.930 . S
H2194 C2153 0.930 . S
H2195 C2154 0.930 . S
H2196 C2158 0.929 . S
H2197 C2160 0.930 . S
H2198 C2166 0.929 . S
H2199 C2167 0.930 . S
Li2200 N2217 1.990 . S
Li2200 O2260 1.956 . S
Li2200 O2261 1.970 . S
Li2200 O2262 1.961 . S
Li2201 N2225 1.990 . S
Li2201 O2260 1.970 . S
Li2201 O2261 1.956 . S
Li2201 O2263 1.961 . S
Li2202 N2247 1.990 . S
Li2202 O2260 1.961 . S
Li2202 O2262 1.956 . S
Li2202 O2263 1.970 . S
Li2203 N2253 1.990 . S
Li2203 O2261 1.961 . S
Li2203 O2262 1.970 . S
Li2203 O2263 1.956 . S
C2204 C2206 1.348 . S
C2204 C2207 1.356 . S
C2204 O2260 1.325 . S
N2205 C2208 1.314 . S
N2205 C2209 1.279 . S
C2206 C2204 1.348 . S
C2206 C2208 1.353 . S
C2206 H2264 0.929 . S
C2207 C2204 1.356 . S
C2207 C2209 1.358 . S
C2207 H2265 0.930 . S
C2208 N2205 1.314 . S
C2208 C2206 1.353 . S
C2208 H2266 0.930 . S
C2209 N2205 1.279 . S
C2209 C2207 1.358 . S
C2209 H2267 0.930 . S
C2210 C2213 1.348 . S
C2210 C2214 1.356 . S
C2210 O2261 1.325 . S
C2211 N2212 1.279 . S
C2211 C2214 1.358 . S
C2211 H2268 0.930 . S
N2212 C2211 1.279 . S
N2212 C2215 1.314 . S
C2213 C2210 1.348 . S
C2213 C2215 1.353 . S
C2213 H2269 0.929 . S
C2214 C2210 1.356 . S
C2214 C2211 1.358 . S
C2214 H2270 0.930 . S
C2215 N2212 1.314 . S
C2215 C2213 1.353 . S
C2215 H2271 0.930 . S
C2216 N2217 1.314 . S
C2216 C2221 1.353 . S
C2216 H2222 0.930 . S
N2217 Li2200 1.990 . S
N2217 C2216 1.314 . S
N2217 C2219 1.279 . S
C2218 C2219 1.358 . S
C2218 C2220 1.356 . S
C2218 H2272 0.930 . S
C2219 N2217 1.279 . S
C2219 C2218 1.358 . S
C2219 H2223 0.930 . S
C2220 C2218 1.356 . S
C2220 C2221 1.348 . S
C2221 C2216 1.353 . S
C2221 C2220 1.348 . S
C2221 H2273 0.929 . S
H2222 C2216 0.930 . S
H2223 C2219 0.930 . S
C2224 N2225 1.314 . S
C2224 C2226 1.353 . S
C2224 H2230 0.930 . S
N2225 Li2201 1.990 . S
N2225 C2224 1.314 . S
N2225 C2228 1.279 . S
C2226 C2224 1.353 . S
C2226 C2229 1.348 . S
C2226 H2274 0.929 . S
C2227 C2228 1.358 . S
C2227 C2229 1.356 . S
C2227 H2275 0.930 . S
C2228 N2225 1.279 . S
C2228 C2227 1.358 . S
C2228 H2231 0.930 . S
C2229 C2226 1.348 . S
C2229 C2227 1.356 . S
H2230 C2224 0.930 . S
H2231 C2228 0.930 . S
C2232 C2234 1.348 . S
C2232 C2235 1.356 . S
C2232 O2262 1.325 . S
N2233 C2236 1.314 . S
N2233 C2237 1.279 . S
C2234 C2232 1.348 . S
C2234 C2236 1.353 . S
C2234 H2276 0.929 . S
C2235 C2232 1.356 . S
C2235 C2237 1.358 . S
C2235 H2277 0.930 . S
C2236 N2233 1.314 . S
C2236 C2234 1.353 . S
C2236 H2278 0.930 . S
C2237 N2233 1.279 . S
C2237 C2235 1.358 . S
C2237 H2279 0.930 . S
C2238 C2239 1.348 . S
C2238 C2240 1.356 . S
C2238 O2263 1.325 . S
C2239 C2238 1.348 . S
C2239 C2241 1.353 . S
C2239 H2280 0.929 . S
C2240 C2238 1.356 . S
C2240 C2242 1.358 . S
C2240 H2281 0.930 . S
C2241 C2239 1.353 . S
C2241 N2243 1.314 . S
C2241 H2282 0.930 . S
C2242 C2240 1.358 . S
C2242 N2243 1.279 . S
C2242 H2283 0.930 . S
N2243 C2241 1.314 . S
N2243 C2242 1.279 . S
C2244 C2246 1.353 . S
C2244 N2247 1.314 . S
C2244 H2250 0.930 . S
C2245 N2247 1.279 . S
C2245 C2248 1.358 . S
C2245 H2251 0.930 . S
C2246 C2244 1.353 . S
C2246 C2249 1.348 . S
C2246 H2284 0.929 . S
N2247 Li2202 1.990 . S
N2247 C2244 1.314 . S
N2247 C2245 1.279 . S
C2248 C2245 1.358 . S
C2248 C2249 1.356 . S
C2248 H2285 0.930 . S
C2249 C2246 1.348 . S
C2249 C2248 1.356 . S
H2250 C2244 0.930 . S
H2251 C2245 0.930 . S
C2252 N2253 1.314 . S
C2252 C2254 1.353 . S
C2252 H2258 0.930 . S
N2253 Li2203 1.990 . S
N2253 C2252 1.314 . S
N2253 C2256 1.279 . S
C2254 C2252 1.353 . S
C2254 C2257 1.348 . S
C2254 H2286 0.929 . S
C2255 C2256 1.358 . S
C2255 C2257 1.356 . S
C2255 H2287 0.930 . S
C2256 N2253 1.279 . S
C2256 C2255 1.358 . S
C2256 H2259 0.930 . S
C2257 C2254 1.348 . S
C2257 C2255 1.356 . S
H2258 C2252 0.930 . S
H2259 C2256 0.930 . S
O2260 Li2200 1.956 . S
O2260 Li2201 1.970 . S
O2260 Li2202 1.961 . S
O2260 C2204 1.325 . S
O2261 Li2200 1.970 . S
O2261 Li2201 1.956 . S
O2261 Li2203 1.961 . S
O2261 C2210 1.325 . S
O2262 Li2200 1.961 . S
O2262 Li2202 1.956 . S
O2262 Li2203 1.970 . S
O2262 C2232 1.325 . S
O2263 Li2201 1.961 . S
O2263 Li2202 1.970 . S
O2263 Li2203 1.956 . S
O2263 C2238 1.325 . S
H2264 C2206 0.929 . S
H2265 C2207 0.930 . S
H2266 C2208 0.930 . S
H2267 C2209 0.930 . S
H2268 C2211 0.930 . S
H2269 C2213 0.929 . S
H2270 C2214 0.930 . S
H2271 C2215 0.930 . S
H2272 C2218 0.930 . S
H2273 C2221 0.929 . S
H2274 C2226 0.929 . S
H2275 C2227 0.930 . S
H2276 C2234 0.929 . S
H2277 C2235 0.930 . S
H2278 C2236 0.930 . S
H2279 C2237 0.930 . S
H2280 C2239 0.929 . S
H2281 C2240 0.930 . S
H2282 C2241 0.930 . S
H2283 C2242 0.930 . S
H2284 C2246 0.929 . S
H2285 C2248 0.930 . S
H2286 C2254 0.929 . S
H2287 C2255 0.930 . S
Li2288 N2305 1.990 . S
Li2288 O2348 1.956 . S
Li2288 O2349 1.970 . S
Li2288 O2350 1.961 . S
Li2289 N2313 1.990 . S
Li2289 O2348 1.970 . S
Li2289 O2349 1.956 . S
Li2289 O2351 1.961 . S
Li2290 N2335 1.990 . S
Li2290 O2348 1.961 . S
Li2290 O2350 1.956 . S
Li2290 O2351 1.970 . S
Li2291 N2341 1.990 . S
Li2291 O2349 1.961 . S
Li2291 O2350 1.970 . S
Li2291 O2351 1.956 . S
C2292 C2294 1.348 . S
C2292 C2295 1.356 . S
C2292 O2348 1.325 . S
N2293 C2296 1.314 . S
N2293 C2297 1.279 . S
C2294 C2292 1.348 . S
C2294 C2296 1.353 . S
C2294 H2352 0.929 . S
C2295 C2292 1.356 . S
C2295 C2297 1.358 . S
C2295 H2353 0.930 . S
C2296 N2293 1.314 . S
C2296 C2294 1.353 . S
C2296 H2354 0.930 . S
C2297 N2293 1.279 . S
C2297 C2295 1.358 . S
C2297 H2355 0.930 . S
C2298 C2301 1.348 . S
C2298 C2302 1.356 . S
C2298 O2349 1.325 . S
C2299 N2300 1.279 . S
C2299 C2302 1.358 . S
C2299 H2356 0.930 . S
N2300 C2299 1.279 . S
N2300 C2303 1.314 . S
C2301 C2298 1.348 . S
C2301 C2303 1.353 . S
C2301 H2357 0.929 . S
C2302 C2298 1.356 . S
C2302 C2299 1.358 . S
C2302 H2358 0.930 . S
C2303 N2300 1.314 . S
C2303 C2301 1.353 . S
C2303 H2359 0.930 . S
C2304 N2305 1.314 . S
C2304 C2309 1.353 . S
C2304 H2310 0.930 . S
N2305 Li2288 1.990 . S
N2305 C2304 1.314 . S
N2305 C2307 1.279 . S
C2306 C2307 1.358 . S
C2306 C2308 1.356 . S
C2306 H2360 0.930 . S
C2307 N2305 1.279 . S
C2307 C2306 1.358 . S
C2307 H2311 0.930 . S
C2308 C2306 1.356 . S
C2308 C2309 1.348 . S
C2309 C2304 1.353 . S
C2309 C2308 1.348 . S
C2309 H2361 0.929 . S
H2310 C2304 0.930 . S
H2311 C2307 0.930 . S
C2312 N2313 1.314 . S
C2312 C2314 1.353 . S
C2312 H2318 0.930 . S
N2313 Li2289 1.990 . S
N2313 C2312 1.314 . S
N2313 C2316 1.279 . S
C2314 C2312 1.353 . S
C2314 C2317 1.348 . S
C2314 H2362 0.929 . S
C2315 C2316 1.358 . S
C2315 C2317 1.356 . S
C2315 H2363 0.930 . S
C2316 N2313 1.279 . S
C2316 C2315 1.358 . S
C2316 H2319 0.930 . S
C2317 C2314 1.348 . S
C2317 C2315 1.356 . S
H2318 C2312 0.930 . S
H2319 C2316 0.930 . S
C2320 C2322 1.348 . S
C2320 C2323 1.356 . S
C2320 O2350 1.325 . S
N2321 C2324 1.314 . S
N2321 C2325 1.279 . S
C2322 C2320 1.348 . S
C2322 C2324 1.353 . S
C2322 H2364 0.929 . S
C2323 C2320 1.356 . S
C2323 C2325 1.358 . S
C2323 H2365 0.930 . S
C2324 N2321 1.314 . S
C2324 C2322 1.353 . S
C2324 H2366 0.930 . S
C2325 N2321 1.279 . S
C2325 C2323 1.358 . S
C2325 H2367 0.930 . S
C2326 C2327 1.348 . S
C2326 C2328 1.356 . S
C2326 O2351 1.325 . S
C2327 C2326 1.348 . S
C2327 C2329 1.353 . S
C2327 H2368 0.929 . S
C2328 C2326 1.356 . S
C2328 C2330 1.358 . S
C2328 H2369 0.930 . S
C2329 C2327 1.353 . S
C2329 N2331 1.314 . S
C2329 H2370 0.930 . S
C2330 C2328 1.358 . S
C2330 N2331 1.279 . S
C2330 H2371 0.930 . S
N2331 C2329 1.314 . S
N2331 C2330 1.279 . S
C2332 C2334 1.353 . S
C2332 N2335 1.314 . S
C2332 H2338 0.930 . S
C2333 N2335 1.279 . S
C2333 C2336 1.358 . S
C2333 H2339 0.930 . S
C2334 C2332 1.353 . S
C2334 C2337 1.348 . S
C2334 H2372 0.929 . S
N2335 Li2290 1.990 . S
N2335 C2332 1.314 . S
N2335 C2333 1.279 . S
C2336 C2333 1.358 . S
C2336 C2337 1.356 . S
C2336 H2373 0.930 . S
C2337 C2334 1.348 . S
C2337 C2336 1.356 . S
H2338 C2332 0.930 . S
H2339 C2333 0.930 . S
C2340 N2341 1.314 . S
C2340 C2342 1.353 . S
C2340 H2346 0.930 . S
N2341 Li2291 1.990 . S
N2341 C2340 1.314 . S
N2341 C2344 1.279 . S
C2342 C2340 1.353 . S
C2342 C2345 1.348 . S
C2342 H2374 0.929 . S
C2343 C2344 1.358 . S
C2343 C2345 1.356 . S
C2343 H2375 0.930 . S
C2344 N2341 1.279 . S
C2344 C2343 1.358 . S
C2344 H2347 0.930 . S
C2345 C2342 1.348 . S
C2345 C2343 1.356 . S
H2346 C2340 0.930 . S
H2347 C2344 0.930 . S
O2348 Li2288 1.956 . S
O2348 Li2289 1.970 . S
O2348 Li2290 1.961 . S
O2348 C2292 1.325 . S
O2349 Li2288 1.970 . S
O2349 Li2289 1.956 . S
O2349 Li2291 1.961 . S
O2349 C2298 1.325 . S
O2350 Li2288 1.961 . S
O2350 Li2290 1.956 . S
O2350 Li2291 1.970 . S
O2350 C2320 1.325 . S
O2351 Li2289 1.961 . S
O2351 Li2290 1.970 . S
O2351 Li2291 1.956 . S
O2351 C2326 1.325 . S
H2352 C2294 0.929 . S
H2353 C2295 0.930 . S
H2354 C2296 0.930 . S
H2355 C2297 0.930 . S
H2356 C2299 0.930 . S
H2357 C2301 0.929 . S
H2358 C2302 0.930 . S
H2359 C2303 0.930 . S
H2360 C2306 0.930 . S
H2361 C2309 0.929 . S
H2362 C2314 0.929 . S
H2363 C2315 0.930 . S
H2364 C2322 0.929 . S
H2365 C2323 0.930 . S
H2366 C2324 0.930 . S
H2367 C2325 0.930 . S
H2368 C2327 0.929 . S
H2369 C2328 0.930 . S
H2370 C2329 0.930 . S
H2371 C2330 0.930 . S
H2372 C2334 0.929 . S
H2373 C2336 0.930 . S
H2374 C2342 0.929 . S
H2375 C2343 0.930 . S
Li2376 N2393 1.990 . S
Li2376 O2436 1.956 . S
Li2376 O2437 1.970 . S
Li2376 O2438 1.961 . S
Li2377 N2401 1.990 . S
Li2377 O2436 1.970 . S
Li2377 O2437 1.956 . S
Li2377 O2439 1.961 . S
Li2378 N2423 1.990 . S
Li2378 O2436 1.961 . S
Li2378 O2438 1.956 . S
Li2378 O2439 1.970 . S
Li2379 N2429 1.990 . S
Li2379 O2437 1.961 . S
Li2379 O2438 1.970 . S
Li2379 O2439 1.956 . S
C2380 C2382 1.348 . S
C2380 C2383 1.356 . S
C2380 O2436 1.325 . S
N2381 C2384 1.314 . S
N2381 C2385 1.279 . S
C2382 C2380 1.348 . S
C2382 C2384 1.353 . S
C2382 H2440 0.929 . S
C2383 C2380 1.356 . S
C2383 C2385 1.358 . S
C2383 H2441 0.930 . S
C2384 N2381 1.314 . S
C2384 C2382 1.353 . S
C2384 H2442 0.930 . S
C2385 N2381 1.279 . S
C2385 C2383 1.358 . S
C2385 H2443 0.930 . S
C2386 C2389 1.348 . S
C2386 C2390 1.356 . S
C2386 O2437 1.325 . S
C2387 N2388 1.279 . S
C2387 C2390 1.358 . S
C2387 H2444 0.930 . S
N2388 C2387 1.279 . S
N2388 C2391 1.314 . S
C2389 C2386 1.348 . S
C2389 C2391 1.353 . S
C2389 H2445 0.929 . S
C2390 C2386 1.356 . S
C2390 C2387 1.358 . S
C2390 H2446 0.930 . S
C2391 N2388 1.314 . S
C2391 C2389 1.353 . S
C2391 H2447 0.930 . S
C2392 N2393 1.314 . S
C2392 C2397 1.353 . S
C2392 H2398 0.930 . S
N2393 Li2376 1.990 . S
N2393 C2392 1.314 . S
N2393 C2395 1.279 . S
C2394 C2395 1.358 . S
C2394 C2396 1.356 . S
C2394 H2448 0.930 . S
C2395 N2393 1.279 . S
C2395 C2394 1.358 . S
C2395 H2399 0.930 . S
C2396 C2394 1.356 . S
C2396 C2397 1.348 . S
C2397 C2392 1.353 . S
C2397 C2396 1.348 . S
C2397 H2449 0.929 . S
H2398 C2392 0.930 . S
H2399 C2395 0.930 . S
C2400 N2401 1.314 . S
C2400 C2402 1.353 . S
C2400 H2406 0.930 . S
N2401 Li2377 1.990 . S
N2401 C2400 1.314 . S
N2401 C2404 1.279 . S
C2402 C2400 1.353 . S
C2402 C2405 1.348 . S
C2402 H2450 0.929 . S
C2403 C2404 1.358 . S
C2403 C2405 1.356 . S
C2403 H2451 0.930 . S
C2404 N2401 1.279 . S
C2404 C2403 1.358 . S
C2404 H2407 0.930 . S
C2405 C2402 1.348 . S
C2405 C2403 1.356 . S
H2406 C2400 0.930 . S
H2407 C2404 0.930 . S
C2408 C2410 1.348 . S
C2408 C2411 1.356 . S
C2408 O2438 1.325 . S
N2409 C2412 1.314 . S
N2409 C2413 1.279 . S
C2410 C2408 1.348 . S
C2410 C2412 1.353 . S
C2410 H2452 0.929 . S
C2411 C2408 1.356 . S
C2411 C2413 1.358 . S
C2411 H2453 0.930 . S
C2412 N2409 1.314 . S
C2412 C2410 1.353 . S
C2412 H2454 0.930 . S
C2413 N2409 1.279 . S
C2413 C2411 1.358 . S
C2413 H2455 0.930 . S
C2414 C2415 1.348 . S
C2414 C2416 1.356 . S
C2414 O2439 1.325 . S
C2415 C2414 1.348 . S
C2415 C2417 1.353 . S
C2415 H2456 0.929 . S
C2416 C2414 1.356 . S
C2416 C2418 1.358 . S
C2416 H2457 0.930 . S
C2417 C2415 1.353 . S
C2417 N2419 1.314 . S
C2417 H2458 0.930 . S
C2418 C2416 1.358 . S
C2418 N2419 1.279 . S
C2418 H2459 0.930 . S
N2419 C2417 1.314 . S
N2419 C2418 1.279 . S
C2420 C2422 1.353 . S
C2420 N2423 1.314 . S
C2420 H2426 0.930 . S
C2421 N2423 1.279 . S
C2421 C2424 1.358 . S
C2421 H2427 0.930 . S
C2422 C2420 1.353 . S
C2422 C2425 1.348 . S
C2422 H2460 0.929 . S
N2423 Li2378 1.990 . S
N2423 C2420 1.314 . S
N2423 C2421 1.279 . S
C2424 C2421 1.358 . S
C2424 C2425 1.356 . S
C2424 H2461 0.930 . S
C2425 C2422 1.348 . S
C2425 C2424 1.356 . S
H2426 C2420 0.930 . S
H2427 C2421 0.930 . S
C2428 N2429 1.314 . S
C2428 C2430 1.353 . S
C2428 H2434 0.930 . S
N2429 Li2379 1.990 . S
N2429 C2428 1.314 . S
N2429 C2432 1.279 . S
C2430 C2428 1.353 . S
C2430 C2433 1.348 . S
C2430 H2462 0.929 . S
C2431 C2432 1.358 . S
C2431 C2433 1.356 . S
C2431 H2463 0.930 . S
C2432 N2429 1.279 . S
C2432 C2431 1.358 . S
C2432 H2435 0.930 . S
C2433 C2430 1.348 . S
C2433 C2431 1.356 . S
H2434 C2428 0.930 . S
H2435 C2432 0.930 . S
O2436 Li2376 1.956 . S
O2436 Li2377 1.970 . S
O2436 Li2378 1.961 . S
O2436 C2380 1.325 . S
O2437 Li2376 1.970 . S
O2437 Li2377 1.956 . S
O2437 Li2379 1.961 . S
O2437 C2386 1.325 . S
O2438 Li2376 1.961 . S
O2438 Li2378 1.956 . S
O2438 Li2379 1.970 . S
O2438 C2408 1.325 . S
O2439 Li2377 1.961 . S
O2439 Li2378 1.970 . S
O2439 Li2379 1.956 . S
O2439 C2414 1.325 . S
H2440 C2382 0.929 . S
H2441 C2383 0.930 . S
H2442 C2384 0.930 . S
H2443 C2385 0.930 . S
H2444 C2387 0.930 . S
H2445 C2389 0.929 . S
H2446 C2390 0.930 . S
H2447 C2391 0.930 . S
H2448 C2394 0.930 . S
H2449 C2397 0.929 . S
H2450 C2402 0.929 . S
H2451 C2403 0.930 . S
H2452 C2410 0.929 . S
H2453 C2411 0.930 . S
H2454 C2412 0.930 . S
H2455 C2413 0.930 . S
H2456 C2415 0.929 . S
H2457 C2416 0.930 . S
H2458 C2417 0.930 . S
H2459 C2418 0.930 . S
H2460 C2422 0.929 . S
H2461 C2424 0.930 . S
H2462 C2430 0.929 . S
H2463 C2431 0.930 . S
Li2464 N2481 1.990 . S
Li2464 O2524 1.956 . S
Li2464 O2525 1.970 . S
Li2464 O2526 1.961 . S
Li2465 N2489 1.990 . S
Li2465 O2524 1.970 . S
Li2465 O2525 1.956 . S
Li2465 O2527 1.961 . S
Li2466 N2511 1.990 . S
Li2466 O2524 1.961 . S
Li2466 O2526 1.956 . S
Li2466 O2527 1.970 . S
Li2467 N2517 1.990 . S
Li2467 O2525 1.961 . S
Li2467 O2526 1.970 . S
Li2467 O2527 1.956 . S
C2468 C2470 1.348 . S
C2468 C2471 1.356 . S
C2468 O2524 1.325 . S
N2469 C2472 1.314 . S
N2469 C2473 1.279 . S
C2470 C2468 1.348 . S
C2470 C2472 1.353 . S
C2470 H2528 0.929 . S
C2471 C2468 1.356 . S
C2471 C2473 1.358 . S
C2471 H2529 0.930 . S
C2472 N2469 1.314 . S
C2472 C2470 1.353 . S
C2472 H2530 0.930 . S
C2473 N2469 1.279 . S
C2473 C2471 1.358 . S
C2473 H2531 0.930 . S
C2474 C2477 1.348 . S
C2474 C2478 1.356 . S
C2474 O2525 1.325 . S
C2475 N2476 1.279 . S
C2475 C2478 1.358 . S
C2475 H2532 0.930 . S
N2476 C2475 1.279 . S
N2476 C2479 1.314 . S
C2477 C2474 1.348 . S
C2477 C2479 1.353 . S
C2477 H2533 0.929 . S
C2478 C2474 1.356 . S
C2478 C2475 1.358 . S
C2478 H2534 0.930 . S
C2479 N2476 1.314 . S
C2479 C2477 1.353 . S
C2479 H2535 0.930 . S
C2480 N2481 1.314 . S
C2480 C2485 1.353 . S
C2480 H2486 0.930 . S
N2481 Li2464 1.990 . S
N2481 C2480 1.314 . S
N2481 C2483 1.279 . S
C2482 C2483 1.358 . S
C2482 C2484 1.356 . S
C2482 H2536 0.930 . S
C2483 N2481 1.279 . S
C2483 C2482 1.358 . S
C2483 H2487 0.930 . S
C2484 C2482 1.356 . S
C2484 C2485 1.348 . S
C2485 C2480 1.353 . S
C2485 C2484 1.348 . S
C2485 H2537 0.929 . S
H2486 C2480 0.930 . S
H2487 C2483 0.930 . S
C2488 N2489 1.337 . S
C2488 C2490 1.326 1_455 S
C2488 H2494 0.935 . S
N2489 Li2465 1.990 . S
N2489 C2488 1.337 . S
N2489 C2492 1.279 . S
C2490 C2488 1.326 1_655 S
C2490 C2493 1.348 . S
C2490 H2538 0.929 . S
C2491 C2492 1.358 1_655 S
C2491 C2493 1.356 . S
C2491 H2539 0.930 . S
C2492 N2489 1.279 . S
C2492 C2491 1.358 1_455 S
C2492 H2495 0.930 . S
C2493 C2490 1.348 . S
C2493 C2491 1.356 . S
H2494 C2488 0.935 . S
H2495 C2492 0.930 . S
C2496 C2498 1.348 . S
C2496 C2499 1.356 . S
C2496 O2526 1.325 . S
N2497 C2500 1.314 . S
N2497 C2501 1.279 . S
C2498 C2496 1.348 . S
C2498 C2500 1.353 . S
C2498 H2540 0.929 . S
C2499 C2496 1.356 . S
C2499 C2501 1.358 . S
C2499 H2541 0.930 . S
C2500 N2497 1.314 . S
C2500 C2498 1.353 . S
C2500 H2542 0.930 . S
C2501 N2497 1.279 . S
C2501 C2499 1.358 . S
C2501 H2543 0.930 . S
C2502 C2503 1.348 . S
C2502 C2504 1.356 . S
C2502 O2527 1.325 . S
C2503 C2502 1.348 . S
C2503 C2505 1.353 . S
C2503 H2544 0.929 . S
C2504 C2502 1.356 . S
C2504 C2506 1.358 . S
C2504 H2545 0.930 . S
C2505 C2503 1.353 . S
C2505 N2507 1.314 . S
C2505 H2546 0.930 . S
C2506 C2504 1.358 . S
C2506 N2507 1.279 . S
C2506 H2547 0.930 . S
N2507 C2505 1.314 . S
N2507 C2506 1.279 . S
C2508 C2510 1.353 . S
C2508 N2511 1.314 . S
C2508 H2514 0.930 . S
C2509 N2511 1.279 . S
C2509 C2512 1.358 . S
C2509 H2515 0.930 . S
C2510 C2508 1.353 . S
C2510 C2513 1.348 . S
C2510 H2548 0.929 . S
N2511 Li2466 1.990 . S
N2511 C2508 1.314 . S
N2511 C2509 1.279 . S
C2512 C2509 1.358 . S
C2512 C2513 1.356 . S
C2512 H2549 0.930 . S
C2513 C2510 1.348 . S
C2513 C2512 1.356 . S
H2514 C2508 0.930 . S
H2515 C2509 0.930 . S
C2516 N2517 1.314 . S
C2516 C2518 1.353 . S
C2516 H2522 0.930 . S
N2517 Li2467 1.990 . S
N2517 C2516 1.314 . S
N2517 C2520 1.279 . S
C2518 C2516 1.353 . S
C2518 C2521 1.348 . S
C2518 H2550 0.929 . S
C2519 C2520 1.358 . S
C2519 C2521 1.356 . S
C2519 H2551 0.930 . S
C2520 N2517 1.279 . S
C2520 C2519 1.358 . S
C2520 H2523 0.930 . S
C2521 C2518 1.348 . S
C2521 C2519 1.356 . S
H2522 C2516 0.930 . S
H2523 C2520 0.930 . S
O2524 Li2464 1.956 . S
O2524 Li2465 1.970 . S
O2524 Li2466 1.961 . S
O2524 C2468 1.325 . S
O2525 Li2464 1.970 . S
O2525 Li2465 1.956 . S
O2525 Li2467 1.961 . S
O2525 C2474 1.325 . S
O2526 Li2464 1.961 . S
O2526 Li2466 1.956 . S
O2526 Li2467 1.970 . S
O2526 C2496 1.325 . S
O2527 Li2465 1.961 . S
O2527 Li2466 1.970 . S
O2527 Li2467 1.956 . S
O2527 C2502 1.325 . S
H2528 C2470 0.929 . S
H2529 C2471 0.930 . S
H2530 C2472 0.930 . S
H2531 C2473 0.930 . S
H2532 C2475 0.930 . S
H2533 C2477 0.929 . S
H2534 C2478 0.930 . S
H2535 C2479 0.930 . S
H2536 C2482 0.930 . S
H2537 C2485 0.929 . S
H2538 C2490 0.929 . S
H2539 C2491 0.930 . S
H2540 C2498 0.929 . S
H2541 C2499 0.930 . S
H2542 C2500 0.930 . S
H2543 C2501 0.930 . S
H2544 C2503 0.929 . S
H2545 C2504 0.930 . S
H2546 C2505 0.930 . S
H2547 C2506 0.930 . S
H2548 C2510 0.929 . S
H2549 C2512 0.930 . S
H2550 C2518 0.929 . S
H2551 C2519 0.930 . S
Li2552 N2569 1.990 . S
Li2552 O2612 1.956 . S
Li2552 O2613 1.970 . S
Li2552 O2614 1.961 . S
Li2553 N2577 1.990 . S
Li2553 O2612 1.970 . S
Li2553 O2613 1.956 . S
Li2553 O2615 1.961 . S
Li2554 N2599 1.990 . S
Li2554 O2612 1.961 . S
Li2554 O2614 1.956 . S
Li2554 O2615 1.970 . S
Li2555 N2605 1.990 . S
Li2555 O2613 1.961 . S
Li2555 O2614 1.970 . S
Li2555 O2615 1.956 . S
C2556 C2558 1.348 . S
C2556 C2559 1.356 . S
C2556 O2612 1.325 . S
N2557 C2560 1.314 . S
N2557 C2561 1.279 . S
C2558 C2556 1.348 . S
C2558 C2560 1.353 . S
C2558 H2616 0.929 . S
C2559 C2556 1.356 . S
C2559 C2561 1.358 . S
C2559 H2617 0.930 . S
C2560 N2557 1.314 . S
C2560 C2558 1.353 . S
C2560 H2618 0.930 . S
C2561 N2557 1.279 . S
C2561 C2559 1.358 . S
C2561 H2619 0.930 . S
C2562 C2565 1.348 . S
C2562 C2566 1.356 . S
C2562 O2613 1.325 . S
C2563 N2564 1.279 . S
C2563 C2566 1.358 . S
C2563 H2620 0.930 . S
N2564 C2563 1.279 . S
N2564 C2567 1.314 . S
C2565 C2562 1.348 . S
C2565 C2567 1.353 . S
C2565 H2621 0.929 . S
C2566 C2562 1.356 . S
C2566 C2563 1.358 . S
C2566 H2622 0.930 . S
C2567 N2564 1.314 . S
C2567 C2565 1.353 . S
C2567 H2623 0.930 . S
C2568 N2569 1.314 . S
C2568 C2573 1.353 . S
C2568 H2574 0.930 . S
N2569 Li2552 1.990 . S
N2569 C2568 1.314 . S
N2569 C2571 1.279 . S
C2570 C2571 1.358 . S
C2570 C2572 1.356 . S
C2570 H2624 0.930 . S
C2571 N2569 1.279 . S
C2571 C2570 1.358 . S
C2571 H2575 0.930 . S
C2572 C2570 1.356 . S
C2572 C2573 1.348 . S
C2573 C2568 1.353 . S
C2573 C2572 1.348 . S
C2573 H2625 0.929 . S
H2574 C2568 0.930 . S
H2575 C2571 0.930 . S
C2576 N2577 1.314 . S
C2576 C2578 1.353 . S
C2576 H2582 0.930 . S
N2577 Li2553 1.990 . S
N2577 C2576 1.314 . S
N2577 C2580 1.279 . S
C2578 C2576 1.353 . S
C2578 C2581 1.348 . S
C2578 H2626 0.929 . S
C2579 C2580 1.358 . S
C2579 C2581 1.356 . S
C2579 H2627 0.930 . S
C2580 N2577 1.279 . S
C2580 C2579 1.358 . S
C2580 H2583 0.930 . S
C2581 C2578 1.348 . S
C2581 C2579 1.356 . S
H2582 C2576 0.930 . S
H2583 C2580 0.930 . S
C2584 C2586 1.348 . S
C2584 C2587 1.356 . S
C2584 O2614 1.325 . S
N2585 C2588 1.314 . S
N2585 C2589 1.279 . S
C2586 C2584 1.348 . S
C2586 C2588 1.353 . S
C2586 H2628 0.929 . S
C2587 C2584 1.356 . S
C2587 C2589 1.358 . S
C2587 H2629 0.930 . S
C2588 N2585 1.314 . S
C2588 C2586 1.353 . S
C2588 H2630 0.930 . S
C2589 N2585 1.279 . S
C2589 C2587 1.358 . S
C2589 H2631 0.930 . S
C2590 C2591 1.348 . S
C2590 C2592 1.356 . S
C2590 O2615 1.325 . S
C2591 C2590 1.348 . S
C2591 C2593 1.353 . S
C2591 H2632 0.929 . S
C2592 C2590 1.356 . S
C2592 C2594 1.358 . S
C2592 H2633 0.930 . S
C2593 C2591 1.353 . S
C2593 N2595 1.314 . S
C2593 H2634 0.930 . S
C2594 C2592 1.358 . S
C2594 N2595 1.279 . S
C2594 H2635 0.930 . S
N2595 C2593 1.314 . S
N2595 C2594 1.279 . S
C2596 C2598 1.353 . S
C2596 N2599 1.314 . S
C2596 H2602 0.930 . S
C2597 N2599 1.279 . S
C2597 C2600 1.358 . S
C2597 H2603 0.930 . S
C2598 C2596 1.353 . S
C2598 C2601 1.348 . S
C2598 H2636 0.929 . S
N2599 Li2554 1.990 . S
N2599 C2596 1.314 . S
N2599 C2597 1.279 . S
C2600 C2597 1.358 . S
C2600 C2601 1.356 . S
C2600 H2637 0.930 . S
C2601 C2598 1.348 . S
C2601 C2600 1.356 . S
H2602 C2596 0.930 . S
H2603 C2597 0.930 . S
C2604 N2605 1.314 . S
C2604 C2606 1.353 . S
C2604 H2610 0.930 . S
N2605 Li2555 1.990 . S
N2605 C2604 1.314 . S
N2605 C2608 1.279 . S
C2606 C2604 1.353 . S
C2606 C2609 1.348 . S
C2606 H2638 0.929 . S
C2607 C2608 1.358 . S
C2607 C2609 1.356 . S
C2607 H2639 0.930 . S
C2608 N2605 1.279 . S
C2608 C2607 1.358 . S
C2608 H2611 0.930 . S
C2609 C2606 1.348 . S
C2609 C2607 1.356 . S
H2610 C2604 0.930 . S
H2611 C2608 0.930 . S
O2612 Li2552 1.956 . S
O2612 Li2553 1.970 . S
O2612 Li2554 1.961 . S
O2612 C2556 1.325 . S
O2613 Li2552 1.970 . S
O2613 Li2553 1.956 . S
O2613 Li2555 1.961 . S
O2613 C2562 1.325 . S
O2614 Li2552 1.961 . S
O2614 Li2554 1.956 . S
O2614 Li2555 1.970 . S
O2614 C2584 1.325 . S
O2615 Li2553 1.961 . S
O2615 Li2554 1.970 . S
O2615 Li2555 1.956 . S
O2615 C2590 1.325 . S
H2616 C2558 0.929 . S
H2617 C2559 0.930 . S
H2618 C2560 0.930 . S
H2619 C2561 0.930 . S
H2620 C2563 0.930 . S
H2621 C2565 0.929 . S
H2622 C2566 0.930 . S
H2623 C2567 0.930 . S
H2624 C2570 0.930 . S
H2625 C2573 0.929 . S
H2626 C2578 0.929 . S
H2627 C2579 0.930 . S
H2628 C2586 0.929 . S
H2629 C2587 0.930 . S
H2630 C2588 0.930 . S
H2631 C2589 0.930 . S
H2632 C2591 0.929 . S
H2633 C2592 0.930 . S
H2634 C2593 0.930 . S
H2635 C2594 0.930 . S
H2636 C2598 0.929 . S
H2637 C2600 0.930 . S
H2638 C2606 0.929 . S
H2639 C2607 0.930 . S
Li2640 N2657 1.990 . S
Li2640 O2700 1.956 . S
Li2640 O2701 1.970 . S
Li2640 O2702 1.961 . S
Li2641 N2665 1.990 . S
Li2641 O2700 1.970 . S
Li2641 O2701 1.956 . S
Li2641 O2703 1.961 . S
Li2642 N2687 1.990 . S
Li2642 O2700 1.961 . S
Li2642 O2702 1.956 . S
Li2642 O2703 1.970 . S
Li2643 N2693 1.990 . S
Li2643 O2701 1.961 . S
Li2643 O2702 1.970 . S
Li2643 O2703 1.956 . S
C2644 C2646 1.348 . S
C2644 C2647 1.356 . S
C2644 O2700 1.325 . S
N2645 C2648 1.314 . S
N2645 C2649 1.279 . S
C2646 C2644 1.348 . S
C2646 C2648 1.353 . S
C2646 H2704 0.929 . S
C2647 C2644 1.356 . S
C2647 C2649 1.358 . S
C2647 H2705 0.930 . S
C2648 N2645 1.314 . S
C2648 C2646 1.353 . S
C2648 H2706 0.930 . S
C2649 N2645 1.279 . S
C2649 C2647 1.358 . S
C2649 H2707 0.930 . S
C2650 C2653 1.348 . S
C2650 C2654 1.356 . S
C2650 O2701 1.325 . S
C2651 N2652 1.279 . S
C2651 C2654 1.358 . S
C2651 H2708 0.930 . S
N2652 C2651 1.279 . S
N2652 C2655 1.314 . S
C2653 C2650 1.348 . S
C2653 C2655 1.353 . S
C2653 H2709 0.929 . S
C2654 C2650 1.356 . S
C2654 C2651 1.358 . S
C2654 H2710 0.930 . S
C2655 N2652 1.314 . S
C2655 C2653 1.353 . S
C2655 H2711 0.930 . S
C2656 N2657 1.314 . S
C2656 C2661 1.353 . S
C2656 H2662 0.930 . S
N2657 Li2640 1.990 . S
N2657 C2656 1.314 . S
N2657 C2659 1.279 . S
C2658 C2659 1.358 . S
C2658 C2660 1.356 . S
C2658 H2712 0.930 . S
C2659 N2657 1.279 . S
C2659 C2658 1.358 . S
C2659 H2663 0.930 . S
C2660 C2658 1.356 . S
C2660 C2661 1.348 . S
C2661 C2656 1.353 . S
C2661 C2660 1.348 . S
C2661 H2713 0.929 . S
H2662 C2656 0.930 . S
H2663 C2659 0.930 . S
C2664 N2665 1.314 . S
C2664 C2666 1.353 . S
C2664 H2670 0.930 . S
N2665 Li2641 1.990 . S
N2665 C2664 1.314 . S
N2665 C2668 1.279 . S
C2666 C2664 1.353 . S
C2666 C2669 1.348 . S
C2666 H2714 0.929 . S
C2667 C2668 1.358 . S
C2667 C2669 1.356 . S
C2667 H2715 0.930 . S
C2668 N2665 1.279 . S
C2668 C2667 1.358 . S
C2668 H2671 0.930 . S
C2669 C2666 1.348 . S
C2669 C2667 1.356 . S
H2670 C2664 0.930 . S
H2671 C2668 0.930 . S
C2672 C2674 1.348 . S
C2672 C2675 1.356 . S
C2672 O2702 1.325 . S
N2673 C2676 1.314 . S
N2673 C2677 1.279 . S
C2674 C2672 1.348 . S
C2674 C2676 1.353 . S
C2674 H2716 0.929 . S
C2675 C2672 1.356 . S
C2675 C2677 1.358 . S
C2675 H2717 0.930 . S
C2676 N2673 1.314 . S
C2676 C2674 1.353 . S
C2676 H2718 0.930 . S
C2677 N2673 1.279 . S
C2677 C2675 1.358 . S
C2677 H2719 0.930 . S
C2678 C2679 1.348 . S
C2678 C2680 1.356 . S
C2678 O2703 1.325 . S
C2679 C2678 1.348 . S
C2679 C2681 1.353 . S
C2679 H2720 0.929 . S
C2680 C2678 1.356 . S
C2680 C2682 1.358 . S
C2680 H2721 0.930 . S
C2681 C2679 1.353 . S
C2681 N2683 1.314 . S
C2681 H2722 0.930 . S
C2682 C2680 1.358 . S
C2682 N2683 1.279 . S
C2682 H2723 0.930 . S
N2683 C2681 1.314 . S
N2683 C2682 1.279 . S
C2684 C2686 1.353 . S
C2684 N2687 1.314 . S
C2684 H2690 0.930 . S
C2685 N2687 1.279 . S
C2685 C2688 1.358 . S
C2685 H2691 0.930 . S
C2686 C2684 1.353 . S
C2686 C2689 1.348 . S
C2686 H2724 0.929 . S
N2687 Li2642 1.990 . S
N2687 C2684 1.314 . S
N2687 C2685 1.279 . S
C2688 C2685 1.358 . S
C2688 C2689 1.356 . S
C2688 H2725 0.930 . S
C2689 C2686 1.348 . S
C2689 C2688 1.356 . S
H2690 C2684 0.930 . S
H2691 C2685 0.930 . S
C2692 N2693 1.314 . S
C2692 C2694 1.353 . S
C2692 H2698 0.930 . S
N2693 Li2643 1.990 . S
N2693 C2692 1.314 . S
N2693 C2696 1.279 . S
C2694 C2692 1.353 . S
C2694 C2697 1.348 . S
C2694 H2726 0.929 . S
C2695 C2696 1.358 . S
C2695 C2697 1.356 . S
C2695 H2727 0.930 . S
C2696 N2693 1.279 . S
C2696 C2695 1.358 . S
C2696 H2699 0.930 . S
C2697 C2694 1.348 . S
C2697 C2695 1.356 . S
H2698 C2692 0.930 . S
H2699 C2696 0.930 . S
O2700 Li2640 1.956 . S
O2700 Li2641 1.970 . S
O2700 Li2642 1.961 . S
O2700 C2644 1.325 . S
O2701 Li2640 1.970 . S
O2701 Li2641 1.956 . S
O2701 Li2643 1.961 . S
O2701 C2650 1.325 . S
O2702 Li2640 1.961 . S
O2702 Li2642 1.956 . S
O2702 Li2643 1.970 . S
O2702 C2672 1.325 . S
O2703 Li2641 1.961 . S
O2703 Li2642 1.970 . S
O2703 Li2643 1.956 . S
O2703 C2678 1.325 . S
H2704 C2646 0.929 . S
H2705 C2647 0.930 . S
H2706 C2648 0.930 . S
H2707 C2649 0.930 . S
H2708 C2651 0.930 . S
H2709 C2653 0.929 . S
H2710 C2654 0.930 . S
H2711 C2655 0.930 . S
H2712 C2658 0.930 . S
H2713 C2661 0.929 . S
H2714 C2666 0.929 . S
H2715 C2667 0.930 . S
H2716 C2674 0.929 . S
H2717 C2675 0.930 . S
H2718 C2676 0.930 . S
H2719 C2677 0.930 . S
H2720 C2679 0.929 . S
H2721 C2680 0.930 . S
H2722 C2681 0.930 . S
H2723 C2682 0.930 . S
H2724 C2686 0.929 . S
H2725 C2688 0.930 . S
H2726 C2694 0.929 . S
H2727 C2695 0.930 . S
Li2728 N2745 1.990 . S
Li2728 O2788 1.956 . S
Li2728 O2789 1.970 . S
Li2728 O2790 1.961 . S
Li2729 N2753 1.990 . S
Li2729 O2788 1.970 . S
Li2729 O2789 1.956 . S
Li2729 O2791 1.961 . S
Li2730 N2775 1.990 . S
Li2730 O2788 1.961 . S
Li2730 O2790 1.956 . S
Li2730 O2791 1.970 . S
Li2731 N2781 1.990 . S
Li2731 O2789 1.961 . S
Li2731 O2790 1.970 . S
Li2731 O2791 1.956 . S
C2732 C2734 1.348 . S
C2732 C2735 1.356 . S
C2732 O2788 1.325 . S
N2733 C2736 1.314 . S
N2733 C2737 1.279 . S
C2734 C2732 1.348 . S
C2734 C2736 1.353 . S
C2734 H2792 0.929 . S
C2735 C2732 1.356 . S
C2735 C2737 1.358 . S
C2735 H2793 0.930 . S
C2736 N2733 1.314 . S
C2736 C2734 1.353 . S
C2736 H2794 0.930 . S
C2737 N2733 1.279 . S
C2737 C2735 1.358 . S
C2737 H2795 0.930 . S
C2738 C2741 1.348 . S
C2738 C2742 1.356 . S
C2738 O2789 1.325 . S
C2739 N2740 1.279 . S
C2739 C2742 1.358 . S
C2739 H2796 0.930 . S
N2740 C2739 1.279 . S
N2740 C2743 1.314 . S
C2741 C2738 1.348 . S
C2741 C2743 1.353 . S
C2741 H2797 0.929 . S
C2742 C2738 1.356 . S
C2742 C2739 1.358 . S
C2742 H2798 0.930 . S
C2743 N2740 1.314 . S
C2743 C2741 1.353 . S
C2743 H2799 0.930 . S
C2744 N2745 1.314 . S
C2744 C2749 1.353 . S
C2744 H2750 0.930 . S
N2745 Li2728 1.990 . S
N2745 C2744 1.314 . S
N2745 C2747 1.279 . S
C2746 C2747 1.358 . S
C2746 C2748 1.356 . S
C2746 H2800 0.930 . S
C2747 N2745 1.279 . S
C2747 C2746 1.358 . S
C2747 H2751 0.930 . S
C2748 C2746 1.356 . S
C2748 C2749 1.348 . S
C2749 C2744 1.353 . S
C2749 C2748 1.348 . S
C2749 H2801 0.929 . S
H2750 C2744 0.930 . S
H2751 C2747 0.930 . S
C2752 N2753 1.314 . S
C2752 C2754 1.353 . S
C2752 H2758 0.930 . S
N2753 Li2729 1.990 . S
N2753 C2752 1.314 . S
N2753 C2756 1.279 . S
C2754 C2752 1.353 . S
C2754 C2757 1.348 . S
C2754 H2802 0.929 . S
C2755 C2756 1.358 . S
C2755 C2757 1.356 . S
C2755 H2803 0.930 . S
C2756 N2753 1.279 . S
C2756 C2755 1.358 . S
C2756 H2759 0.930 . S
C2757 C2754 1.348 . S
C2757 C2755 1.356 . S
H2758 C2752 0.930 . S
H2759 C2756 0.930 . S
C2760 C2762 1.348 . S
C2760 C2763 1.356 . S
C2760 O2790 1.325 . S
N2761 C2764 1.314 . S
N2761 C2765 1.279 . S
C2762 C2760 1.348 . S
C2762 C2764 1.353 . S
C2762 H2804 0.929 . S
C2763 C2760 1.356 . S
C2763 C2765 1.358 . S
C2763 H2805 0.930 . S
C2764 N2761 1.314 . S
C2764 C2762 1.353 . S
C2764 H2806 0.930 . S
C2765 N2761 1.279 . S
C2765 C2763 1.358 . S
C2765 H2807 0.930 . S
C2766 C2767 1.348 . S
C2766 C2768 1.356 . S
C2766 O2791 1.325 . S
C2767 C2766 1.348 . S
C2767 C2769 1.353 . S
C2767 H2808 0.929 . S
C2768 C2766 1.356 . S
C2768 C2770 1.358 . S
C2768 H2809 0.930 . S
C2769 C2767 1.353 . S
C2769 N2771 1.314 . S
C2769 H2810 0.930 . S
C2770 C2768 1.358 . S
C2770 N2771 1.279 . S
C2770 H2811 0.930 . S
N2771 C2769 1.314 . S
N2771 C2770 1.279 . S
C2772 C2774 1.353 . S
C2772 N2775 1.314 . S
C2772 H2778 0.930 . S
C2773 N2775 1.279 . S
C2773 C2776 1.358 . S
C2773 H2779 0.930 . S
C2774 C2772 1.353 . S
C2774 C2777 1.348 . S
C2774 H2812 0.929 . S
N2775 Li2730 1.990 . S
N2775 C2772 1.314 . S
N2775 C2773 1.279 . S
C2776 C2773 1.358 . S
C2776 C2777 1.356 . S
C2776 H2813 0.930 . S
C2777 C2774 1.348 . S
C2777 C2776 1.356 . S
H2778 C2772 0.930 . S
H2779 C2773 0.930 . S
C2780 N2781 1.314 . S
C2780 C2782 1.353 . S
C2780 H2786 0.930 . S
N2781 Li2731 1.990 . S
N2781 C2780 1.314 . S
N2781 C2784 1.279 . S
C2782 C2780 1.353 . S
C2782 C2785 1.348 . S
C2782 H2814 0.929 . S
C2783 C2784 1.358 . S
C2783 C2785 1.356 . S
C2783 H2815 0.930 . S
C2784 N2781 1.279 . S
C2784 C2783 1.358 . S
C2784 H2787 0.930 . S
C2785 C2782 1.348 . S
C2785 C2783 1.356 . S
H2786 C2780 0.930 . S
H2787 C2784 0.930 . S
O2788 Li2728 1.956 . S
O2788 Li2729 1.970 . S
O2788 Li2730 1.961 . S
O2788 C2732 1.325 . S
O2789 Li2728 1.970 . S
O2789 Li2729 1.956 . S
O2789 Li2731 1.961 . S
O2789 C2738 1.325 . S
O2790 Li2728 1.961 . S
O2790 Li2730 1.956 . S
O2790 Li2731 1.970 . S
O2790 C2760 1.325 . S
O2791 Li2729 1.961 . S
O2791 Li2730 1.970 . S
O2791 Li2731 1.956 . S
O2791 C2766 1.325 . S
H2792 C2734 0.929 . S
H2793 C2735 0.930 . S
H2794 C2736 0.930 . S
H2795 C2737 0.930 . S
H2796 C2739 0.930 . S
H2797 C2741 0.929 . S
H2798 C2742 0.930 . S
H2799 C2743 0.930 . S
H2800 C2746 0.930 . S
H2801 C2749 0.929 . S
H2802 C2754 0.929 . S
H2803 C2755 0.930 . S
H2804 C2762 0.929 . S
H2805 C2763 0.930 . S
H2806 C2764 0.930 . S
H2807 C2765 0.930 . S
H2808 C2767 0.929 . S
H2809 C2768 0.930 . S
H2810 C2769 0.930 . S
H2811 C2770 0.930 . S
H2812 C2774 0.929 . S
H2813 C2776 0.930 . S
H2814 C2782 0.929 . S
H2815 C2783 0.930 . S
C2816 C2817 1.363 . S
C2816 C2822 1.379 . S
C2816 N2824 1.356 . S
C2817 C2816 1.363 . S
C2817 C2823 1.363 1_565 S
C2818 C2819 1.363 . S
C2818 C2823 1.379 . S
C2818 N2825 1.356 . S
C2819 C2818 1.363 . S
C2819 C2822 1.363 1_545 S
N2820 C2822 1.356 . S
N2820 H2832 0.984 . S
N2820 H2833 0.985 . S
N2821 C2823 1.356 . S
N2821 H2826 0.984 . S
N2821 H2827 0.985 . S
C2822 C2816 1.379 . S
C2822 C2819 1.363 1_565 S
C2822 N2820 1.356 . S
C2823 C2817 1.363 1_545 S
C2823 C2818 1.379 . S
C2823 N2821 1.356 . S
N2824 C2816 1.356 . S
N2824 H2830 0.984 . S
N2824 H2831 0.984 . S
N2825 C2818 1.356 . S
N2825 H2828 0.984 . S
N2825 H2829 0.985 . S
H2826 N2821 0.984 . S
H2827 N2821 0.985 . S
H2828 N2825 0.984 . S
H2829 N2825 0.985 . S
H2830 N2824 0.984 . S
H2831 N2824 0.984 . S
H2832 N2820 0.984 . S
H2833 N2820 0.985 . S
C2834 C2835 1.363 . S
C2834 C2840 1.379 . S
C2834 N2842 1.356 . S
C2835 C2834 1.363 . S
C2835 C2841 1.363 . S
C2836 C2837 1.363 . S
C2836 C2841 1.379 . S
C2836 N2843 1.356 . S
C2837 C2836 1.363 . S
C2837 C2840 1.363 . S
N2838 C2840 1.356 . S
N2838 H2850 0.984 . S
N2838 H2851 0.985 . S
N2839 C2841 1.356 . S
N2839 H2844 0.984 . S
N2839 H2845 0.985 . S
C2840 C2834 1.379 . S
C2840 C2837 1.363 . S
C2840 N2838 1.356 . S
C2841 C2835 1.363 . S
C2841 C2836 1.379 . S
C2841 N2839 1.356 . S
N2842 C2834 1.356 . S
N2842 H2848 0.984 . S
N2842 H2849 0.984 . S
N2843 C2836 1.356 . S
N2843 H2846 0.984 . S
N2843 H2847 0.985 . S
H2844 N2839 0.984 . S
H2845 N2839 0.985 . S
H2846 N2843 0.984 . S
H2847 N2843 0.985 . S
H2848 N2842 0.984 . S
H2849 N2842 0.984 . S
H2850 N2838 0.984 . S
H2851 N2838 0.985 . S
C2852 C2853 1.363 . S
C2852 C2858 1.379 . S
C2852 N2860 1.356 . S
C2853 C2852 1.363 . S
C2853 C2859 1.363 1_545 S
C2854 C2855 1.363 . S
C2854 C2859 1.379 . S
C2854 N2861 1.356 . S
C2855 C2854 1.363 . S
C2855 C2858 1.363 1_565 S
N2856 C2858 1.356 . S
N2856 H2868 0.984 . S
N2856 H2869 0.985 . S
N2857 C2859 1.356 . S
N2857 H2862 0.984 . S
N2857 H2863 0.985 . S
C2858 C2852 1.379 . S
C2858 C2855 1.363 1_545 S
C2858 N2856 1.356 . S
C2859 C2853 1.363 1_565 S
C2859 C2854 1.379 . S
C2859 N2857 1.356 . S
N2860 C2852 1.356 . S
N2860 H2866 0.984 . S
N2860 H2867 0.984 . S
N2861 C2854 1.356 . S
N2861 H2864 0.984 . S
N2861 H2865 0.985 . S
H2862 N2857 0.984 . S
H2863 N2857 0.985 . S
H2864 N2861 0.984 . S
H2865 N2861 0.985 . S
H2866 N2860 0.984 . S
H2867 N2860 0.984 . S
H2868 N2856 0.984 . S
H2869 N2856 0.985 . S
C2870 C2871 1.363 . S
C2870 C2876 1.379 1_556 S
C2870 N2878 1.356 . S
C2871 C2870 1.363 . S
C2871 C2877 1.363 . S
C2872 C2873 1.363 . S
C2872 C2877 1.379 1_554 S
C2872 N2879 1.356 . S
C2873 C2872 1.363 . S
C2873 C2876 1.363 . S
N2874 C2876 1.356 . S
N2874 H2886 0.984 . S
N2874 H2887 0.985 . S
N2875 C2877 1.356 . S
N2875 H2880 0.984 . S
N2875 H2881 0.985 . S
C2876 C2870 1.379 1_554 S
C2876 C2873 1.363 . S
C2876 N2874 1.356 . S
C2877 C2871 1.363 . S
C2877 C2872 1.379 1_556 S
C2877 N2875 1.356 . S
N2878 C2870 1.356 . S
N2878 H2884 0.984 . S
N2878 H2885 0.984 . S
N2879 C2872 1.356 . S
N2879 H2882 0.984 . S
N2879 H2883 0.985 . S
H2880 N2875 0.984 . S
H2881 N2875 0.985 . S
H2882 N2879 0.984 . S
H2883 N2879 0.985 . S
H2884 N2878 0.984 . S
H2885 N2878 0.984 . S
H2886 N2874 0.984 . S
H2887 N2874 0.985 . S
C2888 C2889 1.363 . S
C2888 C2894 1.379 . S
C2888 N2896 1.356 . S
C2889 C2888 1.363 . S
C2889 C2895 1.363 1_565 S
C2890 C2891 1.363 . S
C2890 C2895 1.379 . S
C2890 N2897 1.356 . S
C2891 C2890 1.363 . S
C2891 C2894 1.363 1_545 S
N2892 C2894 1.356 . S
N2892 H2904 0.984 . S
N2892 H2905 0.985 . S
N2893 C2895 1.356 . S
N2893 H2898 0.984 . S
N2893 H2899 0.985 . S
C2894 C2888 1.379 . S
C2894 C2891 1.363 1_565 S
C2894 N2892 1.356 . S
C2895 C2889 1.363 1_545 S
C2895 C2890 1.379 . S
C2895 N2893 1.356 . S
N2896 C2888 1.356 . S
N2896 H2902 0.984 . S
N2896 H2903 0.984 . S
N2897 C2890 1.356 . S
N2897 H2900 0.984 . S
N2897 H2901 0.985 . S
H2898 N2893 0.984 . S
H2899 N2893 0.985 . S
H2900 N2897 0.984 . S
H2901 N2897 0.985 . S
H2902 N2896 0.984 . S
H2903 N2896 0.984 . S
H2904 N2892 0.984 . S
H2905 N2892 0.985 . S
C2906 C2907 1.363 . S
C2906 C2912 1.379 . S
C2906 N2914 1.356 . S
C2907 C2906 1.363 . S
C2907 C2913 1.363 . S
C2908 C2909 1.363 . S
C2908 C2913 1.379 . S
C2908 N2915 1.356 . S
C2909 C2908 1.363 . S
C2909 C2912 1.363 . S
N2910 C2912 1.356 . S
N2910 H2922 0.984 . S
N2910 H2923 0.985 . S
N2911 C2913 1.356 . S
N2911 H2916 0.984 . S
N2911 H2917 0.985 . S
C2912 C2906 1.379 . S
C2912 C2909 1.363 . S
C2912 N2910 1.356 . S
C2913 C2907 1.363 . S
C2913 C2908 1.379 . S
C2913 N2911 1.356 . S
N2914 C2906 1.356 . S
N2914 H2920 0.984 . S
N2914 H2921 0.984 . S
N2915 C2908 1.356 . S
N2915 H2918 0.984 . S
N2915 H2919 0.985 . S
H2916 N2911 0.984 . S
H2917 N2911 0.985 . S
H2918 N2915 0.984 . S
H2919 N2915 0.985 . S
H2920 N2914 0.984 . S
H2921 N2914 0.984 . S
H2922 N2910 0.984 . S
H2923 N2910 0.985 . S
C2924 C2925 1.363 . S
C2924 C2930 1.379 . S
C2924 N2932 1.356 . S
C2925 C2924 1.363 . S
C2925 C2931 1.363 1_545 S
C2926 C2927 1.363 . S
C2926 C2931 1.379 . S
C2926 N2933 1.356 . S
C2927 C2926 1.363 . S
C2927 C2930 1.363 1_565 S
N2928 C2930 1.356 . S
N2928 H2940 0.984 . S
N2928 H2941 0.985 . S
N2929 C2931 1.356 . S
N2929 H2934 0.984 . S
N2929 H2935 0.985 . S
C2930 C2924 1.379 . S
C2930 C2927 1.363 1_545 S
C2930 N2928 1.356 . S
C2931 C2925 1.363 1_565 S
C2931 C2926 1.379 . S
C2931 N2929 1.356 . S
N2932 C2924 1.356 . S
N2932 H2938 0.984 . S
N2932 H2939 0.984 . S
N2933 C2926 1.356 . S
N2933 H2936 0.984 . S
N2933 H2937 0.985 . S
H2934 N2929 0.984 . S
H2935 N2929 0.985 . S
H2936 N2933 0.984 . S
H2937 N2933 0.985 . S
H2938 N2932 0.984 . S
H2939 N2932 0.984 . S
H2940 N2928 0.984 . S
H2941 N2928 0.985 . S
C2942 C2943 1.363 . S
C2942 C2948 1.379 1_556 S
C2942 N2950 1.356 . S
C2943 C2942 1.363 . S
C2943 C2949 1.363 . S
C2944 C2945 1.363 . S
C2944 C2949 1.379 1_554 S
C2944 N2951 1.356 . S
C2945 C2944 1.363 . S
C2945 C2948 1.363 . S
N2946 C2948 1.356 . S
N2946 H2958 0.984 . S
N2946 H2959 0.985 . S
N2947 C2949 1.356 . S
N2947 H2952 0.984 . S
N2947 H2953 0.985 . S
C2948 C2942 1.379 1_554 S
C2948 C2945 1.363 . S
C2948 N2946 1.356 . S
C2949 C2943 1.363 . S
C2949 C2944 1.379 1_556 S
C2949 N2947 1.356 . S
N2950 C2942 1.356 . S
N2950 H2956 0.984 . S
N2950 H2957 0.984 . S
N2951 C2944 1.356 . S
N2951 H2954 0.984 . S
N2951 H2955 0.985 . S
H2952 N2947 0.984 . S
H2953 N2947 0.985 . S
H2954 N2951 0.984 . S
H2955 N2951 0.985 . S
H2956 N2950 0.984 . S
H2957 N2950 0.984 . S
H2958 N2946 0.984 . S
H2959 N2946 0.985 . S
C2960 C2961 1.363 . S
C2960 C2966 1.379 . S
C2960 N2968 1.356 . S
C2961 C2960 1.363 . S
C2961 C2967 1.363 . S
C2962 C2963 1.363 . S
C2962 C2967 1.379 . S
C2962 N2969 1.356 . S
C2963 C2962 1.363 . S
C2963 C2966 1.363 . S
N2964 C2966 1.356 . S
N2964 H2976 0.984 . S
N2964 H2977 0.985 . S
N2965 C2967 1.356 . S
N2965 H2970 0.984 . S
N2965 H2971 0.985 . S
C2966 C2960 1.379 . S
C2966 C2963 1.363 . S
C2966 N2964 1.356 . S
C2967 C2961 1.363 . S
C2967 C2962 1.379 . S
C2967 N2965 1.356 . S
N2968 C2960 1.356 . S
N2968 H2974 0.984 . S
N2968 H2975 0.984 . S
N2969 C2962 1.356 . S
N2969 H2972 0.984 . S
N2969 H2973 0.985 . S
H2970 N2965 0.984 . S
H2971 N2965 0.985 . S
H2972 N2969 0.984 . S
H2973 N2969 0.985 . S
H2974 N2968 0.984 . S
H2975 N2968 0.984 . S
H2976 N2964 0.984 . S
H2977 N2964 0.985 . S
C2978 C2979 1.363 . S
C2978 C2984 1.379 1_554 S
C2978 N2986 1.356 . S
C2979 C2978 1.363 . S
C2979 C2985 1.363 . S
C2980 C2981 1.363 . S
C2980 C2985 1.379 1_556 S
C2980 N2987 1.356 . S
C2981 C2980 1.363 . S
C2981 C2984 1.363 . S
N2982 C2984 1.356 . S
N2982 H2994 0.984 . S
N2982 H2995 0.985 . S
N2983 C2985 1.356 . S
N2983 H2988 0.984 . S
N2983 H2989 0.985 . S
C2984 C2978 1.379 1_556 S
C2984 C2981 1.363 . S
C2984 N2982 1.356 . S
C2985 C2979 1.363 . S
C2985 C2980 1.379 1_554 S
C2985 N2983 1.356 . S
N2986 C2978 1.356 . S
N2986 H2992 0.984 . S
N2986 H2993 0.984 . S
N2987 C2980 1.356 . S
N2987 H2990 0.984 . S
N2987 H2991 0.985 . S
H2988 N2983 0.984 . S
H2989 N2983 0.985 . S
H2990 N2987 0.984 . S
H2991 N2987 0.985 . S
H2992 N2986 0.984 . S
H2993 N2986 0.984 . S
H2994 N2982 0.984 . S
H2995 N2982 0.985 . S
C2996 C2997 1.363 . S
C2996 C3002 1.379 . S
C2996 N3004 1.356 . S
C2997 C2996 1.363 . S
C2997 C3003 1.363 . S
C2998 C2999 1.363 . S
C2998 C3003 1.379 . S
C2998 N3005 1.356 . S
C2999 C2998 1.363 . S
C2999 C3002 1.363 . S
N3000 C3002 1.356 . S
N3000 H3012 0.984 . S
N3000 H3013 0.985 . S
N3001 C3003 1.356 . S
N3001 H3006 0.984 . S
N3001 H3007 0.985 . S
C3002 C2996 1.379 . S
C3002 C2999 1.363 . S
C3002 N3000 1.356 . S
C3003 C2997 1.363 . S
C3003 C2998 1.379 . S
C3003 N3001 1.356 . S
N3004 C2996 1.356 . S
N3004 H3010 0.984 . S
N3004 H3011 0.984 . S
N3005 C2998 1.356 . S
N3005 H3008 0.984 . S
N3005 H3009 0.985 . S
H3006 N3001 0.984 . S
H3007 N3001 0.985 . S
H3008 N3005 0.984 . S
H3009 N3005 0.985 . S
H3010 N3004 0.984 . S
H3011 N3004 0.984 . S
H3012 N3000 0.984 . S
H3013 N3000 0.985 . S
C3014 C3015 1.363 . S
C3014 C3020 1.379 . S
C3014 N3022 1.356 . S
C3015 C3014 1.363 . S
C3015 C3021 1.363 . S
C3016 C3017 1.363 . S
C3016 C3021 1.379 . S
C3016 N3023 1.356 . S
C3017 C3016 1.363 . S
C3017 C3020 1.363 . S
N3018 C3020 1.356 . S
N3018 H3030 0.984 . S
N3018 H3031 0.985 . S
N3019 C3021 1.356 . S
N3019 H3024 0.984 . S
N3019 H3025 0.985 . S
C3020 C3014 1.379 . S
C3020 C3017 1.363 . S
C3020 N3018 1.356 . S
C3021 C3015 1.363 . S
C3021 C3016 1.379 . S
C3021 N3019 1.356 . S
N3022 C3014 1.356 . S
N3022 H3028 0.984 . S
N3022 H3029 0.984 . S
N3023 C3016 1.356 . S
N3023 H3026 0.984 . S
N3023 H3027 0.985 . S
H3024 N3019 0.984 . S
H3025 N3019 0.985 . S
H3026 N3023 0.984 . S
H3027 N3023 0.985 . S
H3028 N3022 0.984 . S
H3029 N3022 0.984 . S
H3030 N3018 0.984 . S
H3031 N3018 0.985 . S
C3032 C3033 1.363 . S
C3032 C3038 1.379 . S
C3032 N3040 1.356 . S
C3033 C3032 1.363 . S
C3033 C3039 1.363 . S
C3034 C3035 1.363 . S
C3034 C3039 1.379 . S
C3034 N3041 1.356 . S
C3035 C3034 1.363 . S
C3035 C3038 1.363 . S
N3036 C3038 1.356 . S
N3036 H3048 0.984 . S
N3036 H3049 0.985 . S
N3037 C3039 1.356 . S
N3037 H3042 0.984 . S
N3037 H3043 0.985 . S
C3038 C3032 1.379 . S
C3038 C3035 1.363 . S
C3038 N3036 1.356 . S
C3039 C3033 1.363 . S
C3039 C3034 1.379 . S
C3039 N3037 1.356 . S
N3040 C3032 1.356 . S
N3040 H3046 0.984 . S
N3040 H3047 0.984 . S
N3041 C3034 1.356 . S
N3041 H3044 0.984 . S
N3041 H3045 0.985 . S
H3042 N3037 0.984 . S
H3043 N3037 0.985 . S
H3044 N3041 0.984 . S
H3045 N3041 0.985 . S
H3046 N3040 0.984 . S
H3047 N3040 0.984 . S
H3048 N3036 0.984 . S
H3049 N3036 0.985 . S
C3050 C3051 1.363 . S
C3050 C3056 1.379 1_554 S
C3050 N3058 1.356 . S
C3051 C3050 1.363 . S
C3051 C3057 1.363 . S
C3052 C3053 1.363 . S
C3052 C3057 1.379 1_556 S
C3052 N3059 1.356 . S
C3053 C3052 1.363 . S
C3053 C3056 1.363 . S
N3054 C3056 1.356 . S
N3054 H3066 0.984 . S
N3054 H3067 0.985 . S
N3055 C3057 1.356 . S
N3055 H3060 0.984 . S
N3055 H3061 0.985 . S
C3056 C3050 1.379 1_556 S
C3056 C3053 1.363 . S
C3056 N3054 1.356 . S
C3057 C3051 1.363 . S
C3057 C3052 1.379 1_554 S
C3057 N3055 1.356 . S
N3058 C3050 1.356 . S
N3058 H3064 0.984 . S
N3058 H3065 0.984 . S
N3059 C3052 1.356 . S
N3059 H3062 0.984 . S
N3059 H3063 0.985 . S
H3060 N3055 0.984 . S
H3061 N3055 0.985 . S
H3062 N3059 0.984 . S
H3063 N3059 0.985 . S
H3064 N3058 0.984 . S
H3065 N3058 0.984 . S
H3066 N3054 0.984 . S
H3067 N3054 0.985 . S
C3068 C3069 1.363 . S
C3068 C3074 1.379 . S
C3068 N3076 1.356 . S
C3069 C3068 1.363 . S
C3069 C3075 1.363 . S
C3070 C3071 1.363 . S
C3070 C3075 1.379 . S
C3070 N3077 1.356 . S
C3071 C3070 1.363 . S
C3071 C3074 1.363 . S
N3072 C3074 1.356 . S
N3072 H3084 0.984 . S
N3072 H3085 0.985 . S
N3073 C3075 1.356 . S
N3073 H3078 0.984 . S
N3073 H3079 0.985 . S
C3074 C3068 1.379 . S
C3074 C3071 1.363 . S
C3074 N3072 1.356 . S
C3075 C3069 1.363 . S
C3075 C3070 1.379 . S
C3075 N3073 1.356 . S
N3076 C3068 1.356 . S
N3076 H3082 0.984 . S
N3076 H3083 0.984 . S
N3077 C3070 1.356 . S
N3077 H3080 0.984 . S
N3077 H3081 0.985 . S
H3078 N3073 0.984 . S
H3079 N3073 0.985 . S
H3080 N3077 0.984 . S
H3081 N3077 0.985 . S
H3082 N3076 0.984 . S
H3083 N3076 0.984 . S
H3084 N3072 0.984 . S
H3085 N3072 0.985 . S
C3086 C3087 1.363 . S
C3086 C3092 1.379 . S
C3086 N3094 1.356 . S
C3087 C3086 1.363 . S
C3087 C3093 1.363 . S
C3088 C3089 1.363 . S
C3088 C3093 1.379 . S
C3088 N3095 1.356 . S
C3089 C3088 1.363 . S
C3089 C3092 1.363 . S
N3090 C3092 1.356 . S
N3090 H3102 0.984 . S
N3090 H3103 0.985 . S
N3091 C3093 1.356 . S
N3091 H3096 0.984 . S
N3091 H3097 0.985 . S
C3092 C3086 1.379 . S
C3092 C3089 1.363 . S
C3092 N3090 1.356 . S
C3093 C3087 1.363 . S
C3093 C3088 1.379 . S
C3093 N3091 1.356 . S
N3094 C3086 1.356 . S
N3094 H3100 0.984 . S
N3094 H3101 0.984 . S
N3095 C3088 1.356 . S
N3095 H3098 0.984 . S
N3095 H3099 0.985 . S
H3096 N3091 0.984 . S
H3097 N3091 0.985 . S
H3098 N3095 0.984 . S
H3099 N3095 0.985 . S
H3100 N3094 0.984 . S
H3101 N3094 0.984 . S
H3102 N3090 0.984 . S
H3103 N3090 0.985 . S
C3104 C3105 1.363 . S
C3104 C3110 1.379 . S
C3104 N3112 1.356 . S
C3105 C3104 1.363 . S
C3105 C3111 1.363 . S
C3106 C3107 1.363 . S
C3106 C3111 1.379 . S
C3106 N3113 1.356 . S
C3107 C3106 1.363 . S
C3107 C3110 1.363 . S
N3108 C3110 1.356 . S
N3108 H3120 0.984 . S
N3108 H3121 0.985 . S
N3109 C3111 1.356 . S
N3109 H3114 0.984 . S
N3109 H3115 0.985 . S
C3110 C3104 1.379 . S
C3110 C3107 1.363 . S
C3110 N3108 1.356 . S
C3111 C3105 1.363 . S
C3111 C3106 1.379 . S
C3111 N3109 1.356 . S
N3112 C3104 1.356 . S
N3112 H3118 0.984 . S
N3112 H3119 0.984 . S
N3113 C3106 1.356 . S
N3113 H3116 0.984 . S
N3113 H3117 0.985 . S
H3114 N3109 0.984 . S
H3115 N3109 0.985 . S
H3116 N3113 0.984 . S
H3117 N3113 0.985 . S
H3118 N3112 0.984 . S
H3119 N3112 0.984 . S
H3120 N3108 0.984 . S
H3121 N3108 0.985 . S
C3122 C3123 1.363 . S
C3122 C3128 1.379 . S
C3122 N3130 1.356 . S
C3123 C3122 1.363 . S
C3123 C3129 1.363 . S
C3124 C3125 1.363 . S
C3124 C3129 1.379 . S
C3124 N3131 1.356 . S
C3125 C3124 1.363 . S
C3125 C3128 1.363 . S
N3126 C3128 1.356 . S
N3126 H3138 0.984 . S
N3126 H3139 0.985 . S
N3127 C3129 1.356 . S
N3127 H3132 0.984 . S
N3127 H3133 0.985 . S
C3128 C3122 1.379 . S
C3128 C3125 1.363 . S
C3128 N3126 1.356 . S
C3129 C3123 1.363 . S
C3129 C3124 1.379 . S
C3129 N3127 1.356 . S
N3130 C3122 1.356 . S
N3130 H3136 0.984 . S
N3130 H3137 0.984 . S
N3131 C3124 1.356 . S
N3131 H3134 0.984 . S
N3131 H3135 0.985 . S
H3132 N3127 0.984 . S
H3133 N3127 0.985 . S
H3134 N3131 0.984 . S
H3135 N3131 0.985 . S
H3136 N3130 0.984 . S
H3137 N3130 0.984 . S
H3138 N3126 0.984 . S
H3139 N3126 0.985 . S
C3140 C3141 1.363 . S
C3140 C3146 1.379 . S
C3140 N3148 1.356 . S
C3141 C3140 1.363 . S
C3141 C3147 1.363 . S
C3142 C3143 1.363 . S
C3142 C3147 1.379 . S
C3142 N3149 1.356 . S
C3143 C3142 1.363 . S
C3143 C3146 1.363 . S
N3144 C3146 1.356 . S
N3144 H3156 0.984 . S
N3144 H3157 0.985 . S
N3145 C3147 1.356 . S
N3145 H3150 0.984 . S
N3145 H3151 0.985 . S
C3146 C3140 1.379 . S
C3146 C3143 1.363 . S
C3146 N3144 1.356 . S
C3147 C3141 1.363 . S
C3147 C3142 1.379 . S
C3147 N3145 1.356 . S
N3148 C3140 1.356 . S
N3148 H3154 0.984 . S
N3148 H3155 0.984 . S
N3149 C3142 1.356 . S
N3149 H3152 0.984 . S
N3149 H3153 0.985 . S
H3150 N3145 0.984 . S
H3151 N3145 0.985 . S
H3152 N3149 0.984 . S
H3153 N3149 0.985 . S
H3154 N3148 0.984 . S
H3155 N3148 0.984 . S
H3156 N3144 0.984 . S
H3157 N3144 0.985 . S
C3158 C3159 1.363 . S
C3158 C3164 1.379 . S
C3158 N3166 1.356 . S
C3159 C3158 1.363 . S
C3159 C3165 1.363 . S
C3160 C3161 1.363 . S
C3160 C3165 1.379 . S
C3160 N3167 1.356 . S
C3161 C3160 1.363 . S
C3161 C3164 1.363 . S
N3162 C3164 1.356 . S
N3162 H3174 0.984 . S
N3162 H3175 0.985 . S
N3163 C3165 1.356 . S
N3163 H3168 0.984 . S
N3163 H3169 0.985 . S
C3164 C3158 1.379 . S
C3164 C3161 1.363 . S
C3164 N3162 1.356 . S
C3165 C3159 1.363 . S
C3165 C3160 1.379 . S
C3165 N3163 1.356 . S
N3166 C3158 1.356 . S
N3166 H3172 0.984 . S
N3166 H3173 0.984 . S
N3167 C3160 1.356 . S
N3167 H3170 0.984 . S
N3167 H3171 0.985 . S
H3168 N3163 0.984 . S
H3169 N3163 0.985 . S
H3170 N3167 0.984 . S
H3171 N3167 0.985 . S
H3172 N3166 0.984 . S
H3173 N3166 0.984 . S
H3174 N3162 0.984 . S
H3175 N3162 0.985 . S
C3176 C3177 1.363 . S
C3176 C3182 1.379 . S
C3176 N3184 1.356 . S
C3177 C3176 1.363 . S
C3177 C3183 1.363 . S
C3178 C3179 1.363 . S
C3178 C3183 1.379 . S
C3178 N3185 1.356 . S
C3179 C3178 1.363 . S
C3179 C3182 1.363 . S
N3180 C3182 1.356 . S
N3180 H3192 0.984 . S
N3180 H3193 0.985 . S
N3181 C3183 1.356 . S
N3181 H3186 0.984 . S
N3181 H3187 0.985 . S
C3182 C3176 1.379 . S
C3182 C3179 1.363 . S
C3182 N3180 1.356 . S
C3183 C3177 1.363 . S
C3183 C3178 1.379 . S
C3183 N3181 1.356 . S
N3184 C3176 1.356 . S
N3184 H3190 0.984 . S
N3184 H3191 0.984 . S
N3185 C3178 1.356 . S
N3185 H3188 0.984 . S
N3185 H3189 0.985 . S
H3186 N3181 0.984 . S
H3187 N3181 0.985 . S
H3188 N3185 0.984 . S
H3189 N3185 0.985 . S
H3190 N3184 0.984 . S
H3191 N3184 0.984 . S
H3192 N3180 0.984 . S
H3193 N3180 0.985 . S
C3194 C3195 1.363 . S
C3194 C3200 1.379 . S
C3194 N3202 1.356 . S
C3195 C3194 1.363 . S
C3195 C3201 1.363 . S
C3196 C3197 1.363 . S
C3196 C3201 1.379 . S
C3196 N3203 1.356 . S
C3197 C3196 1.363 . S
C3197 C3200 1.363 . S
N3198 C3200 1.356 . S
N3198 H3210 0.984 . S
N3198 H3211 0.985 . S
N3199 C3201 1.356 . S
N3199 H3204 0.984 . S
N3199 H3205 0.985 . S
C3200 C3194 1.379 . S
C3200 C3197 1.363 . S
C3200 N3198 1.356 . S
C3201 C3195 1.363 . S
C3201 C3196 1.379 . S
C3201 N3199 1.356 . S
N3202 C3194 1.356 . S
N3202 H3208 0.984 . S
N3202 H3209 0.984 . S
N3203 C3196 1.356 . S
N3203 H3206 0.984 . S
N3203 H3207 0.985 . S
H3204 N3199 0.984 . S
H3205 N3199 0.985 . S
H3206 N3203 0.984 . S
H3207 N3203 0.985 . S
H3208 N3202 0.984 . S
H3209 N3202 0.984 . S
H3210 N3198 0.984 . S
H3211 N3198 0.985 . S
C3212 C3213 1.363 . S
C3212 C3218 1.379 . S
C3212 N3220 1.356 . S
C3213 C3212 1.363 . S
C3213 C3219 1.363 . S
C3214 C3215 1.363 . S
C3214 C3219 1.379 . S
C3214 N3221 1.356 . S
C3215 C3214 1.363 . S
C3215 C3218 1.363 . S
N3216 C3218 1.356 . S
N3216 H3228 0.984 . S
N3216 H3229 0.985 . S
N3217 C3219 1.356 . S
N3217 H3222 0.984 . S
N3217 H3223 0.985 . S
C3218 C3212 1.379 . S
C3218 C3215 1.363 . S
C3218 N3216 1.356 . S
C3219 C3213 1.363 . S
C3219 C3214 1.379 . S
C3219 N3217 1.356 . S
N3220 C3212 1.356 . S
N3220 H3226 0.984 . S
N3220 H3227 0.984 . S
N3221 C3214 1.356 . S
N3221 H3224 0.984 . S
N3221 H3225 0.985 . S
H3222 N3217 0.984 . S
H3223 N3217 0.985 . S
H3224 N3221 0.984 . S
H3225 N3221 0.985 . S
H3226 N3220 0.984 . S
H3227 N3220 0.984 . S
H3228 N3216 0.984 . S
H3229 N3216 0.985 . S
C3230 C3231 1.363 . S
C3230 C3236 1.379 . S
C3230 N3238 1.356 . S
C3231 C3230 1.363 . S
C3231 C3237 1.363 . S
C3232 C3233 1.363 . S
C3232 C3237 1.379 . S
C3232 N3239 1.356 . S
C3233 C3232 1.363 . S
C3233 C3236 1.363 . S
N3234 C3236 1.356 . S
N3234 H3246 0.984 . S
N3234 H3247 0.985 . S
N3235 C3237 1.356 . S
N3235 H3240 0.984 . S
N3235 H3241 0.985 . S
C3236 C3230 1.379 . S
C3236 C3233 1.363 . S
C3236 N3234 1.356 . S
C3237 C3231 1.363 . S
C3237 C3232 1.379 . S
C3237 N3235 1.356 . S
N3238 C3230 1.356 . S
N3238 H3244 0.984 . S
N3238 H3245 0.984 . S
N3239 C3232 1.356 . S
N3239 H3242 0.984 . S
N3239 H3243 0.985 . S
H3240 N3235 0.984 . S
H3241 N3235 0.985 . S
H3242 N3239 0.984 . S
H3243 N3239 0.985 . S
H3244 N3238 0.984 . S
H3245 N3238 0.984 . S
H3246 N3234 0.984 . S
H3247 N3234 0.985 . S
C3248 C3249 1.363 . S
C3248 C3254 1.379 . S
C3248 N3256 1.356 . S
C3249 C3248 1.363 . S
C3249 C3255 1.363 . S
C3250 C3251 1.363 . S
C3250 C3255 1.379 . S
C3250 N3257 1.356 . S
C3251 C3250 1.363 . S
C3251 C3254 1.363 . S
N3252 C3254 1.356 . S
N3252 H3264 0.984 . S
N3252 H3265 0.985 . S
N3253 C3255 1.356 . S
N3253 H3258 0.984 . S
N3253 H3259 0.985 . S
C3254 C3248 1.379 . S
C3254 C3251 1.363 . S
C3254 N3252 1.356 . S
C3255 C3249 1.363 . S
C3255 C3250 1.379 . S
C3255 N3253 1.356 . S
N3256 C3248 1.356 . S
N3256 H3262 0.984 . S
N3256 H3263 0.984 . S
N3257 C3250 1.356 . S
N3257 H3260 0.984 . S
N3257 H3261 0.985 . S
H3258 N3253 0.984 . S
H3259 N3253 0.985 . S
H3260 N3257 0.984 . S
H3261 N3257 0.985 . S
H3262 N3256 0.984 . S
H3263 N3256 0.984 . S
H3264 N3252 0.984 . S
H3265 N3252 0.985 . S
C3266 C3267 1.363 . S
C3266 C3272 1.379 . S
C3266 N3274 1.356 . S
C3267 C3266 1.363 . S
C3267 C3273 1.363 . S
C3268 C3269 1.363 . S
C3268 C3273 1.379 . S
C3268 N3275 1.356 . S
C3269 C3268 1.363 . S
C3269 C3272 1.363 . S
N3270 C3272 1.356 . S
N3270 H3282 0.984 . S
N3270 H3283 0.985 . S
N3271 C3273 1.356 . S
N3271 H3276 0.984 . S
N3271 H3277 0.985 . S
C3272 C3266 1.379 . S
C3272 C3269 1.363 . S
C3272 N3270 1.356 . S
C3273 C3267 1.363 . S
C3273 C3268 1.379 . S
C3273 N3271 1.356 . S
N3274 C3266 1.356 . S
N3274 H3280 0.984 . S
N3274 H3281 0.984 . S
N3275 C3268 1.356 . S
N3275 H3278 0.984 . S
N3275 H3279 0.985 . S
H3276 N3271 0.984 . S
H3277 N3271 0.985 . S
H3278 N3275 0.984 . S
H3279 N3275 0.985 . S
H3280 N3274 0.984 . S
H3281 N3274 0.984 . S
H3282 N3270 0.984 . S
H3283 N3270 0.985 . S
C3284 C3285 1.363 . S
C3284 C3290 1.379 . S
C3284 N3292 1.356 . S
C3285 C3284 1.363 . S
C3285 C3291 1.363 . S
C3286 C3287 1.363 . S
C3286 C3291 1.379 . S
C3286 N3293 1.356 . S
C3287 C3286 1.363 . S
C3287 C3290 1.363 . S
N3288 C3290 1.356 . S
N3288 H3300 0.984 . S
N3288 H3301 0.985 . S
N3289 C3291 1.356 . S
N3289 H3294 0.984 . S
N3289 H3295 0.985 . S
C3290 C3284 1.379 . S
C3290 C3287 1.363 . S
C3290 N3288 1.356 . S
C3291 C3285 1.363 . S
C3291 C3286 1.379 . S
C3291 N3289 1.356 . S
N3292 C3284 1.356 . S
N3292 H3298 0.984 . S
N3292 H3299 0.984 . S
N3293 C3286 1.356 . S
N3293 H3296 0.984 . S
N3293 H3297 0.985 . S
H3294 N3289 0.984 . S
H3295 N3289 0.985 . S
H3296 N3293 0.984 . S
H3297 N3293 0.985 . S
H3298 N3292 0.984 . S
H3299 N3292 0.984 . S
H3300 N3288 0.984 . S
H3301 N3288 0.985 . S
C3302 C3303 1.363 . S
C3302 C3308 1.379 . S
C3302 N3310 1.356 . S
C3303 C3302 1.363 . S
C3303 C3309 1.363 . S
C3304 C3305 1.363 . S
C3304 C3309 1.379 . S
C3304 N3311 1.356 . S
C3305 C3304 1.363 . S
C3305 C3308 1.363 . S
N3306 C3308 1.356 . S
N3306 H3318 0.984 . S
N3306 H3319 0.985 . S
N3307 C3309 1.356 . S
N3307 H3312 0.984 . S
N3307 H3313 0.985 . S
C3308 C3302 1.379 . S
C3308 C3305 1.363 . S
C3308 N3306 1.356 . S
C3309 C3303 1.363 . S
C3309 C3304 1.379 . S
C3309 N3307 1.356 . S
N3310 C3302 1.356 . S
N3310 H3316 0.984 . S
N3310 H3317 0.984 . S
N3311 C3304 1.356 . S
N3311 H3314 0.984 . S
N3311 H3315 0.985 . S
H3312 N3307 0.984 . S
H3313 N3307 0.985 . S
H3314 N3311 0.984 . S
H3315 N3311 0.985 . S
H3316 N3310 0.984 . S
H3317 N3310 0.984 . S
H3318 N3306 0.984 . S
H3319 N3306 0.985 . S
C3320 C3321 1.363 . S
C3320 C3326 1.379 . S
C3320 N3328 1.356 . S
C3321 C3320 1.363 . S
C3321 C3327 1.363 . S
C3322 C3323 1.363 . S
C3322 C3327 1.379 . S
C3322 N3329 1.356 . S
C3323 C3322 1.363 . S
C3323 C3326 1.363 . S
N3324 C3326 1.356 . S
N3324 H3336 0.984 . S
N3324 H3337 0.985 . S
N3325 C3327 1.356 . S
N3325 H3330 0.984 . S
N3325 H3331 0.985 . S
C3326 C3320 1.379 . S
C3326 C3323 1.363 . S
C3326 N3324 1.356 . S
C3327 C3321 1.363 . S
C3327 C3322 1.379 . S
C3327 N3325 1.356 . S
N3328 C3320 1.356 . S
N3328 H3334 0.984 . S
N3328 H3335 0.984 . S
N3329 C3322 1.356 . S
N3329 H3332 0.984 . S
N3329 H3333 0.985 . S
H3330 N3325 0.984 . S
H3331 N3325 0.985 . S
H3332 N3329 0.984 . S
H3333 N3329 0.985 . S
H3334 N3328 0.984 . S
H3335 N3328 0.984 . S
H3336 N3324 0.984 . S
H3337 N3324 0.985 . S
C3338 C3339 1.363 . S
C3338 C3344 1.379 . S
C3338 N3346 1.356 . S
C3339 C3338 1.363 . S
C3339 C3345 1.363 . S
C3340 C3341 1.363 . S
C3340 C3345 1.379 . S
C3340 N3347 1.356 . S
C3341 C3340 1.363 . S
C3341 C3344 1.363 . S
N3342 C3344 1.356 . S
N3342 H3354 0.984 . S
N3342 H3355 0.985 . S
N3343 C3345 1.356 . S
N3343 H3348 0.984 . S
N3343 H3349 0.985 . S
C3344 C3338 1.379 . S
C3344 C3341 1.363 . S
C3344 N3342 1.356 . S
C3345 C3339 1.363 . S
C3345 C3340 1.379 . S
C3345 N3343 1.356 . S
N3346 C3338 1.356 . S
N3346 H3352 0.984 . S
N3346 H3353 0.984 . S
N3347 C3340 1.356 . S
N3347 H3350 0.984 . S
N3347 H3351 0.985 . S
H3348 N3343 0.984 . S
H3349 N3343 0.985 . S
H3350 N3347 0.984 . S
H3351 N3347 0.985 . S
H3352 N3346 0.984 . S
H3353 N3346 0.984 . S
H3354 N3342 0.984 . S
H3355 N3342 0.985 . S
C3356 C3357 1.363 . S
C3356 C3362 1.379 . S
C3356 N3364 1.356 . S
C3357 C3356 1.363 . S
C3357 C3363 1.363 . S
C3358 C3359 1.363 . S
C3358 C3363 1.379 . S
C3358 N3365 1.356 . S
C3359 C3358 1.363 . S
C3359 C3362 1.363 . S
N3360 C3362 1.356 . S
N3360 H3372 0.984 . S
N3360 H3373 0.985 . S
N3361 C3363 1.356 . S
N3361 H3366 0.984 . S
N3361 H3367 0.985 . S
C3362 C3356 1.379 . S
C3362 C3359 1.363 . S
C3362 N3360 1.356 . S
C3363 C3357 1.363 . S
C3363 C3358 1.379 . S
C3363 N3361 1.356 . S
N3364 C3356 1.356 . S
N3364 H3370 0.984 . S
N3364 H3371 0.984 . S
N3365 C3358 1.356 . S
N3365 H3368 0.984 . S
N3365 H3369 0.985 . S
H3366 N3361 0.984 . S
H3367 N3361 0.985 . S
H3368 N3365 0.984 . S
H3369 N3365 0.985 . S
H3370 N3364 0.984 . S
H3371 N3364 0.984 . S
H3372 N3360 0.984 . S
H3373 N3360 0.985 . S
C3374 C3375 1.363 . S
C3374 C3380 1.379 . S
C3374 N3382 1.356 . S
C3375 C3374 1.363 . S
C3375 C3381 1.363 . S
C3376 C3377 1.363 . S
C3376 C3381 1.379 . S
C3376 N3383 1.356 . S
C3377 C3376 1.363 . S
C3377 C3380 1.363 . S
N3378 C3380 1.356 . S
N3378 H3390 0.984 . S
N3378 H3391 0.985 . S
N3379 C3381 1.356 . S
N3379 H3384 0.984 . S
N3379 H3385 0.985 . S
C3380 C3374 1.379 . S
C3380 C3377 1.363 . S
C3380 N3378 1.356 . S
C3381 C3375 1.363 . S
C3381 C3376 1.379 . S
C3381 N3379 1.356 . S
N3382 C3374 1.356 . S
N3382 H3388 0.984 . S
N3382 H3389 0.984 . S
N3383 C3376 1.356 . S
N3383 H3386 0.984 . S
N3383 H3387 0.985 . S
H3384 N3379 0.984 . S
H3385 N3379 0.985 . S
H3386 N3383 0.984 . S
H3387 N3383 0.985 . S
H3388 N3382 0.984 . S
H3389 N3382 0.984 . S
H3390 N3378 0.984 . S
H3391 N3378 0.985 . S
C3392 C3393 1.363 . S
C3392 C3398 1.379 . S
C3392 N3400 1.356 . S
C3393 C3392 1.363 . S
C3393 C3399 1.363 . S
C3394 C3395 1.363 . S
C3394 C3399 1.379 . S
C3394 N3401 1.356 . S
C3395 C3394 1.363 . S
C3395 C3398 1.363 . S
N3396 C3398 1.356 . S
N3396 H3408 0.984 . S
N3396 H3409 0.985 . S
N3397 C3399 1.356 . S
N3397 H3402 0.984 . S
N3397 H3403 0.985 . S
C3398 C3392 1.379 . S
C3398 C3395 1.363 . S
C3398 N3396 1.356 . S
C3399 C3393 1.363 . S
C3399 C3394 1.379 . S
C3399 N3397 1.356 . S
N3400 C3392 1.356 . S
N3400 H3406 0.984 . S
N3400 H3407 0.984 . S
N3401 C3394 1.356 . S
N3401 H3404 0.984 . S
N3401 H3405 0.985 . S
H3402 N3397 0.984 . S
H3403 N3397 0.985 . S
H3404 N3401 0.984 . S
H3405 N3401 0.985 . S
H3406 N3400 0.984 . S
H3407 N3400 0.984 . S
H3408 N3396 0.984 . S
H3409 N3396 0.985 . S
C3410 C3411 1.363 . S
C3410 C3416 1.379 . S
C3410 N3418 1.356 . S
C3411 C3410 1.363 . S
C3411 C3417 1.363 . S
C3412 C3413 1.363 . S
C3412 C3417 1.379 . S
C3412 N3419 1.356 . S
C3413 C3412 1.363 . S
C3413 C3416 1.363 . S
N3414 C3416 1.356 . S
N3414 H3426 0.984 . S
N3414 H3427 0.985 . S
N3415 C3417 1.356 . S
N3415 H3420 0.984 . S
N3415 H3421 0.985 . S
C3416 C3410 1.379 . S
C3416 C3413 1.363 . S
C3416 N3414 1.356 . S
C3417 C3411 1.363 . S
C3417 C3412 1.379 . S
C3417 N3415 1.356 . S
N3418 C3410 1.356 . S
N3418 H3424 0.984 . S
N3418 H3425 0.984 . S
N3419 C3412 1.356 . S
N3419 H3422 0.984 . S
N3419 H3423 0.985 . S
H3420 N3415 0.984 . S
H3421 N3415 0.985 . S
H3422 N3419 0.984 . S
H3423 N3419 0.985 . S
H3424 N3418 0.984 . S
H3425 N3418 0.984 . S
H3426 N3414 0.984 . S
H3427 N3414 0.985 . S
C3428 C3429 1.363 . S
C3428 C3434 1.379 . S
C3428 N3436 1.356 . S
C3429 C3428 1.363 . S
C3429 C3435 1.363 . S
C3430 C3431 1.363 . S
C3430 C3435 1.379 . S
C3430 N3437 1.356 . S
C3431 C3430 1.363 . S
C3431 C3434 1.363 . S
N3432 C3434 1.356 . S
N3432 H3444 0.984 . S
N3432 H3445 0.985 . S
N3433 C3435 1.356 . S
N3433 H3438 0.984 . S
N3433 H3439 0.985 . S
C3434 C3428 1.379 . S
C3434 C3431 1.363 . S
C3434 N3432 1.356 . S
C3435 C3429 1.363 . S
C3435 C3430 1.379 . S
C3435 N3433 1.356 . S
N3436 C3428 1.356 . S
N3436 H3442 0.984 . S
N3436 H3443 0.984 . S
N3437 C3430 1.356 . S
N3437 H3440 0.984 . S
N3437 H3441 0.985 . S
H3438 N3433 0.984 . S
H3439 N3433 0.985 . S
H3440 N3437 0.984 . S
H3441 N3437 0.985 . S
H3442 N3436 0.984 . S
H3443 N3436 0.984 . S
H3444 N3432 0.984 . S
H3445 N3432 0.985 . S
C3446 C3447 1.363 . S
C3446 C3452 1.379 . S
C3446 N3454 1.356 . S
C3447 C3446 1.363 . S
C3447 C3453 1.363 . S
C3448 C3449 1.363 . S
C3448 C3453 1.379 . S
C3448 N3455 1.356 . S
C3449 C3448 1.363 . S
C3449 C3452 1.363 . S
N3450 C3452 1.356 . S
N3450 H3462 0.984 . S
N3450 H3463 0.985 . S
N3451 C3453 1.356 . S
N3451 H3456 0.984 . S
N3451 H3457 0.985 . S
C3452 C3446 1.379 . S
C3452 C3449 1.363 . S
C3452 N3450 1.356 . S
C3453 C3447 1.363 . S
C3453 C3448 1.379 . S
C3453 N3451 1.356 . S
N3454 C3446 1.356 . S
N3454 H3460 0.984 . S
N3454 H3461 0.984 . S
N3455 C3448 1.356 . S
N3455 H3458 0.984 . S
N3455 H3459 0.985 . S
H3456 N3451 0.984 . S
H3457 N3451 0.985 . S
H3458 N3455 0.984 . S
H3459 N3455 0.985 . S
H3460 N3454 0.984 . S
H3461 N3454 0.984 . S
H3462 N3450 0.984 . S
H3463 N3450 0.985 . S
C3464 C3465 1.363 . S
C3464 C3470 1.379 . S
C3464 N3472 1.356 . S
C3465 C3464 1.363 . S
C3465 C3471 1.363 . S
C3466 C3467 1.363 . S
C3466 C3471 1.379 . S
C3466 N3473 1.356 . S
C3467 C3466 1.363 . S
C3467 C3470 1.363 . S
N3468 C3470 1.356 . S
N3468 H3480 0.984 . S
N3468 H3481 0.985 . S
N3469 C3471 1.356 . S
N3469 H3474 0.984 . S
N3469 H3475 0.985 . S
C3470 C3464 1.379 . S
C3470 C3467 1.363 . S
C3470 N3468 1.356 . S
C3471 C3465 1.363 . S
C3471 C3466 1.379 . S
C3471 N3469 1.356 . S
N3472 C3464 1.356 . S
N3472 H3478 0.984 . S
N3472 H3479 0.984 . S
N3473 C3466 1.356 . S
N3473 H3476 0.984 . S
N3473 H3477 0.985 . S
H3474 N3469 0.984 . S
H3475 N3469 0.985 . S
H3476 N3473 0.984 . S
H3477 N3473 0.985 . S
H3478 N3472 0.984 . S
H3479 N3472 0.984 . S
H3480 N3468 0.984 . S
H3481 N3468 0.985 . S
C3482 C3483 1.363 . S
C3482 C3488 1.379 . S
C3482 N3490 1.356 . S
C3483 C3482 1.363 . S
C3483 C3489 1.363 . S
C3484 C3485 1.363 . S
C3484 C3489 1.379 . S
C3484 N3491 1.356 . S
C3485 C3484 1.363 . S
C3485 C3488 1.363 . S
N3486 C3488 1.356 . S
N3486 H3498 0.984 . S
N3486 H3499 0.985 . S
N3487 C3489 1.356 . S
N3487 H3492 0.984 . S
N3487 H3493 0.985 . S
C3488 C3482 1.379 . S
C3488 C3485 1.363 . S
C3488 N3486 1.356 . S
C3489 C3483 1.363 . S
C3489 C3484 1.379 . S
C3489 N3487 1.356 . S
N3490 C3482 1.356 . S
N3490 H3496 0.984 . S
N3490 H3497 0.984 . S
N3491 C3484 1.356 . S
N3491 H3494 0.984 . S
N3491 H3495 0.985 . S
H3492 N3487 0.984 . S
H3493 N3487 0.985 . S
H3494 N3491 0.984 . S
H3495 N3491 0.985 . S
H3496 N3490 0.984 . S
H3497 N3490 0.984 . S
H3498 N3486 0.984 . S
H3499 N3486 0.985 . S
C3500 C3501 1.363 . S
C3500 C3506 1.379 . S
C3500 N3508 1.356 . S
C3501 C3500 1.363 . S
C3501 C3507 1.363 . S
C3502 C3503 1.363 . S
C3502 C3507 1.379 . S
C3502 N3509 1.356 . S
C3503 C3502 1.363 . S
C3503 C3506 1.363 . S
N3504 C3506 1.356 . S
N3504 H3516 0.984 . S
N3504 H3517 0.985 . S
N3505 C3507 1.356 . S
N3505 H3510 0.984 . S
N3505 H3511 0.985 . S
C3506 C3500 1.379 . S
C3506 C3503 1.363 . S
C3506 N3504 1.356 . S
C3507 C3501 1.363 . S
C3507 C3502 1.379 . S
C3507 N3505 1.356 . S
N3508 C3500 1.356 . S
N3508 H3514 0.984 . S
N3508 H3515 0.984 . S
N3509 C3502 1.356 . S
N3509 H3512 0.984 . S
N3509 H3513 0.985 . S
H3510 N3505 0.984 . S
H3511 N3505 0.985 . S
H3512 N3509 0.984 . S
H3513 N3509 0.985 . S
H3514 N3508 0.984 . S
H3515 N3508 0.984 . S
H3516 N3504 0.984 . S
H3517 N3504 0.985 . S
C3518 C3519 1.363 . S
C3518 C3524 1.379 . S
C3518 N3526 1.356 . S
C3519 C3518 1.363 . S
C3519 C3525 1.363 . S
C3520 C3521 1.363 . S
C3520 C3525 1.379 . S
C3520 N3527 1.356 . S
C3521 C3520 1.363 . S
C3521 C3524 1.363 . S
N3522 C3524 1.356 . S
N3522 H3534 0.984 . S
N3522 H3535 0.985 . S
N3523 C3525 1.356 . S
N3523 H3528 0.984 . S
N3523 H3529 0.985 . S
C3524 C3518 1.379 . S
C3524 C3521 1.363 . S
C3524 N3522 1.356 . S
C3525 C3519 1.363 . S
C3525 C3520 1.379 . S
C3525 N3523 1.356 . S
N3526 C3518 1.356 . S
N3526 H3532 0.984 . S
N3526 H3533 0.984 . S
N3527 C3520 1.356 . S
N3527 H3530 0.984 . S
N3527 H3531 0.985 . S
H3528 N3523 0.984 . S
H3529 N3523 0.985 . S
H3530 N3527 0.984 . S
H3531 N3527 0.985 . S
H3532 N3526 0.984 . S
H3533 N3526 0.984 . S
H3534 N3522 0.984 . S
H3535 N3522 0.985 . S
C3536 C3537 1.363 . S
C3536 C3542 1.379 . S
C3536 N3544 1.356 . S
C3537 C3536 1.363 . S
C3537 C3543 1.363 . S
C3538 C3539 1.363 . S
C3538 C3543 1.379 . S
C3538 N3545 1.356 . S
C3539 C3538 1.363 . S
C3539 C3542 1.363 . S
N3540 C3542 1.356 . S
N3540 H3552 0.984 . S
N3540 H3553 0.985 . S
N3541 C3543 1.356 . S
N3541 H3546 0.984 . S
N3541 H3547 0.985 . S
C3542 C3536 1.379 . S
C3542 C3539 1.363 . S
C3542 N3540 1.356 . S
C3543 C3537 1.363 . S
C3543 C3538 1.379 . S
C3543 N3541 1.356 . S
N3544 C3536 1.356 . S
N3544 H3550 0.984 . S
N3544 H3551 0.984 . S
N3545 C3538 1.356 . S
N3545 H3548 0.984 . S
N3545 H3549 0.985 . S
H3546 N3541 0.984 . S
H3547 N3541 0.985 . S
H3548 N3545 0.984 . S
H3549 N3545 0.985 . S
H3550 N3544 0.984 . S
H3551 N3544 0.984 . S
H3552 N3540 0.984 . S
H3553 N3540 0.985 . S
C3554 C3555 1.363 . S
C3554 C3560 1.379 . S
C3554 N3562 1.356 . S
C3555 C3554 1.363 . S
C3555 C3561 1.363 . S
C3556 C3557 1.363 . S
C3556 C3561 1.379 . S
C3556 N3563 1.356 . S
C3557 C3556 1.363 . S
C3557 C3560 1.363 . S
N3558 C3560 1.356 . S
N3558 H3570 0.984 . S
N3558 H3571 0.985 . S
N3559 C3561 1.356 . S
N3559 H3564 0.984 . S
N3559 H3565 0.985 . S
C3560 C3554 1.379 . S
C3560 C3557 1.363 . S
C3560 N3558 1.356 . S
C3561 C3555 1.363 . S
C3561 C3556 1.379 . S
C3561 N3559 1.356 . S
N3562 C3554 1.356 . S
N3562 H3568 0.984 . S
N3562 H3569 0.984 . S
N3563 C3556 1.356 . S
N3563 H3566 0.984 . S
N3563 H3567 0.985 . S
H3564 N3559 0.984 . S
H3565 N3559 0.985 . S
H3566 N3563 0.984 . S
H3567 N3563 0.985 . S
H3568 N3562 0.984 . S
H3569 N3562 0.984 . S
H3570 N3558 0.984 . S
H3571 N3558 0.985 . S
C3572 C3573 1.363 . S
C3572 C3578 1.379 . S
C3572 N3580 1.356 . S
C3573 C3572 1.363 . S
C3573 C3579 1.363 . S
C3574 C3575 1.363 . S
C3574 C3579 1.379 . S
C3574 N3581 1.356 . S
C3575 C3574 1.363 . S
C3575 C3578 1.363 . S
N3576 C3578 1.356 . S
N3576 H3588 0.984 . S
N3576 H3589 0.985 . S
N3577 C3579 1.356 . S
N3577 H3582 0.984 . S
N3577 H3583 0.985 . S
C3578 C3572 1.379 . S
C3578 C3575 1.363 . S
C3578 N3576 1.356 . S
C3579 C3573 1.363 . S
C3579 C3574 1.379 . S
C3579 N3577 1.356 . S
N3580 C3572 1.356 . S
N3580 H3586 0.984 . S
N3580 H3587 0.984 . S
N3581 C3574 1.356 . S
N3581 H3584 0.984 . S
N3581 H3585 0.985 . S
H3582 N3577 0.984 . S
H3583 N3577 0.985 . S
H3584 N3581 0.984 . S
H3585 N3581 0.985 . S
H3586 N3580 0.984 . S
H3587 N3580 0.984 . S
H3588 N3576 0.984 . S
H3589 N3576 0.985 . S
C3590 C3591 1.363 . S
C3590 C3596 1.379 . S
C3590 N3598 1.356 . S
C3591 C3590 1.363 . S
C3591 C3597 1.363 . S
C3592 C3593 1.363 . S
C3592 C3597 1.379 . S
C3592 N3599 1.356 . S
C3593 C3592 1.363 . S
C3593 C3596 1.363 . S
N3594 C3596 1.356 . S
N3594 H3606 0.984 . S
N3594 H3607 0.985 . S
N3595 C3597 1.356 . S
N3595 H3600 0.984 . S
N3595 H3601 0.985 . S
C3596 C3590 1.379 . S
C3596 C3593 1.363 . S
C3596 N3594 1.356 . S
C3597 C3591 1.363 . S
C3597 C3592 1.379 . S
C3597 N3595 1.356 . S
N3598 C3590 1.356 . S
N3598 H3604 0.984 . S
N3598 H3605 0.984 . S
N3599 C3592 1.356 . S
N3599 H3602 0.984 . S
N3599 H3603 0.985 . S
H3600 N3595 0.984 . S
H3601 N3595 0.985 . S
H3602 N3599 0.984 . S
H3603 N3599 0.985 . S
H3604 N3598 0.984 . S
H3605 N3598 0.984 . S
H3606 N3594 0.984 . S
H3607 N3594 0.985 . S
C3608 C3609 1.363 . S
C3608 C3614 1.379 . S
C3608 N3616 1.356 . S
C3609 C3608 1.363 . S
C3609 C3615 1.363 . S
C3610 C3611 1.363 . S
C3610 C3615 1.379 . S
C3610 N3617 1.356 . S
C3611 C3610 1.363 . S
C3611 C3614 1.363 . S
N3612 C3614 1.356 . S
N3612 H3624 0.984 . S
N3612 H3625 0.985 . S
N3613 C3615 1.356 . S
N3613 H3618 0.984 . S
N3613 H3619 0.985 . S
C3614 C3608 1.379 . S
C3614 C3611 1.363 . S
C3614 N3612 1.356 . S
C3615 C3609 1.363 . S
C3615 C3610 1.379 . S
C3615 N3613 1.356 . S
N3616 C3608 1.356 . S
N3616 H3622 0.984 . S
N3616 H3623 0.984 . S
N3617 C3610 1.356 . S
N3617 H3620 0.984 . S
N3617 H3621 0.985 . S
H3618 N3613 0.984 . S
H3619 N3613 0.985 . S
H3620 N3617 0.984 . S
H3621 N3617 0.985 . S
H3622 N3616 0.984 . S
H3623 N3616 0.984 . S
H3624 N3612 0.984 . S
H3625 N3612 0.985 . S
C3626 C3627 1.363 . S
C3626 C3632 1.379 . S
C3626 N3634 1.356 . S
C3627 C3626 1.363 . S
C3627 C3633 1.363 . S
C3628 C3629 1.363 . S
C3628 C3633 1.379 . S
C3628 N3635 1.356 . S
C3629 C3628 1.363 . S
C3629 C3632 1.363 . S
N3630 C3632 1.356 . S
N3630 H3642 0.984 . S
N3630 H3643 0.985 . S
N3631 C3633 1.356 . S
N3631 H3636 0.984 . S
N3631 H3637 0.985 . S
C3632 C3626 1.379 . S
C3632 C3629 1.363 . S
C3632 N3630 1.356 . S
C3633 C3627 1.363 . S
C3633 C3628 1.379 . S
C3633 N3631 1.356 . S
N3634 C3626 1.356 . S
N3634 H3640 0.984 . S
N3634 H3641 0.984 . S
N3635 C3628 1.356 . S
N3635 H3638 0.984 . S
N3635 H3639 0.985 . S
H3636 N3631 0.984 . S
H3637 N3631 0.985 . S
H3638 N3635 0.984 . S
H3639 N3635 0.985 . S
H3640 N3634 0.984 . S
H3641 N3634 0.984 . S
H3642 N3630 0.984 . S
H3643 N3630 0.985 . S
C3644 C3645 1.363 . S
C3644 C3650 1.379 . S
C3644 N3652 1.356 . S
C3645 C3644 1.363 . S
C3645 C3651 1.363 . S
C3646 C3647 1.363 . S
C3646 C3651 1.379 . S
C3646 N3653 1.356 . S
C3647 C3646 1.363 . S
C3647 C3650 1.363 . S
N3648 C3650 1.356 . S
N3648 H3660 0.984 . S
N3648 H3661 0.985 . S
N3649 C3651 1.356 . S
N3649 H3654 0.984 . S
N3649 H3655 0.985 . S
C3650 C3644 1.379 . S
C3650 C3647 1.363 . S
C3650 N3648 1.356 . S
C3651 C3645 1.363 . S
C3651 C3646 1.379 . S
C3651 N3649 1.356 . S
N3652 C3644 1.356 . S
N3652 H3658 0.984 . S
N3652 H3659 0.984 . S
N3653 C3646 1.356 . S
N3653 H3656 0.984 . S
N3653 H3657 0.985 . S
H3654 N3649 0.984 . S
H3655 N3649 0.985 . S
H3656 N3653 0.984 . S
H3657 N3653 0.985 . S
H3658 N3652 0.984 . S
H3659 N3652 0.984 . S
H3660 N3648 0.984 . S
H3661 N3648 0.985 . S
C3662 C3663 1.363 . S
C3662 C3668 1.379 . S
C3662 N3670 1.356 . S
C3663 C3662 1.363 . S
C3663 C3669 1.363 . S
C3664 C3665 1.363 . S
C3664 C3669 1.379 . S
C3664 N3671 1.356 . S
C3665 C3664 1.363 . S
C3665 C3668 1.363 . S
N3666 C3668 1.356 . S
N3666 H3678 0.984 . S
N3666 H3679 0.985 . S
N3667 C3669 1.356 . S
N3667 H3672 0.984 . S
N3667 H3673 0.985 . S
C3668 C3662 1.379 . S
C3668 C3665 1.363 . S
C3668 N3666 1.356 . S
C3669 C3663 1.363 . S
C3669 C3664 1.379 . S
C3669 N3667 1.356 . S
N3670 C3662 1.356 . S
N3670 H3676 0.984 . S
N3670 H3677 0.984 . S
N3671 C3664 1.356 . S
N3671 H3674 0.984 . S
N3671 H3675 0.985 . S
H3672 N3667 0.984 . S
H3673 N3667 0.985 . S
H3674 N3671 0.984 . S
H3675 N3671 0.985 . S
H3676 N3670 0.984 . S
H3677 N3670 0.984 . S
H3678 N3666 0.984 . S
H3679 N3666 0.985 . S
C3680 C3681 1.363 . S
C3680 C3686 1.379 . S
C3680 N3688 1.356 . S
C3681 C3680 1.363 . S
C3681 C3687 1.363 . S
C3682 C3683 1.363 . S
C3682 C3687 1.379 . S
C3682 N3689 1.356 . S
C3683 C3682 1.363 . S
C3683 C3686 1.363 . S
N3684 C3686 1.356 . S
N3684 H3696 0.984 . S
N3684 H3697 0.985 . S
N3685 C3687 1.356 . S
N3685 H3690 0.984 . S
N3685 H3691 0.985 . S
C3686 C3680 1.379 . S
C3686 C3683 1.363 . S
C3686 N3684 1.356 . S
C3687 C3681 1.363 . S
C3687 C3682 1.379 . S
C3687 N3685 1.356 . S
N3688 C3680 1.356 . S
N3688 H3694 0.984 . S
N3688 H3695 0.984 . S
N3689 C3682 1.356 . S
N3689 H3692 0.984 . S
N3689 H3693 0.985 . S
H3690 N3685 0.984 . S
H3691 N3685 0.985 . S
H3692 N3689 0.984 . S
H3693 N3689 0.985 . S
H3694 N3688 0.984 . S
H3695 N3688 0.984 . S
H3696 N3684 0.984 . S
H3697 N3684 0.985 . S
C3698 C3699 1.363 . S
C3698 C3704 1.379 . S
C3698 N3706 1.356 . S
C3699 C3698 1.363 . S
C3699 C3705 1.363 . S
C3700 C3701 1.363 . S
C3700 C3705 1.379 . S
C3700 N3707 1.356 . S
C3701 C3700 1.363 . S
C3701 C3704 1.363 . S
N3702 C3704 1.356 . S
N3702 H3714 0.984 . S
N3702 H3715 0.985 . S
N3703 C3705 1.356 . S
N3703 H3708 0.984 . S
N3703 H3709 0.985 . S
C3704 C3698 1.379 . S
C3704 C3701 1.363 . S
C3704 N3702 1.356 . S
C3705 C3699 1.363 . S
C3705 C3700 1.379 . S
C3705 N3703 1.356 . S
N3706 C3698 1.356 . S
N3706 H3712 0.984 . S
N3706 H3713 0.984 . S
N3707 C3700 1.356 . S
N3707 H3710 0.984 . S
N3707 H3711 0.985 . S
H3708 N3703 0.984 . S
H3709 N3703 0.985 . S
H3710 N3707 0.984 . S
H3711 N3707 0.985 . S
H3712 N3706 0.984 . S
H3713 N3706 0.984 . S
H3714 N3702 0.984 . S
H3715 N3702 0.985 . S
C3716 C3717 1.363 . S
C3716 C3722 1.379 . S
C3716 N3724 1.356 . S
C3717 C3716 1.363 . S
C3717 C3723 1.363 . S
C3718 C3719 1.363 . S
C3718 C3723 1.379 . S
C3718 N3725 1.356 . S
C3719 C3718 1.363 . S
C3719 C3722 1.363 . S
N3720 C3722 1.356 . S
N3720 H3732 0.984 . S
N3720 H3733 0.985 . S
N3721 C3723 1.356 . S
N3721 H3726 0.984 . S
N3721 H3727 0.985 . S
C3722 C3716 1.379 . S
C3722 C3719 1.363 . S
C3722 N3720 1.356 . S
C3723 C3717 1.363 . S
C3723 C3718 1.379 . S
C3723 N3721 1.356 . S
N3724 C3716 1.356 . S
N3724 H3730 0.984 . S
N3724 H3731 0.984 . S
N3725 C3718 1.356 . S
N3725 H3728 0.984 . S
N3725 H3729 0.985 . S
H3726 N3721 0.984 . S
H3727 N3721 0.985 . S
H3728 N3725 0.984 . S
H3729 N3725 0.985 . S
H3730 N3724 0.984 . S
H3731 N3724 0.984 . S
H3732 N3720 0.984 . S
H3733 N3720 0.985 . S
C3734 C3735 1.363 . S
C3734 C3740 1.379 . S
C3734 N3742 1.356 . S
C3735 C3734 1.363 . S
C3735 C3741 1.363 . S
C3736 C3737 1.363 . S
C3736 C3741 1.379 . S
C3736 N3743 1.356 . S
C3737 C3736 1.363 . S
C3737 C3740 1.363 . S
N3738 C3740 1.356 . S
N3738 H3750 0.984 . S
N3738 H3751 0.985 . S
N3739 C3741 1.356 . S
N3739 H3744 0.984 . S
N3739 H3745 0.985 . S
C3740 C3734 1.379 . S
C3740 C3737 1.363 . S
C3740 N3738 1.356 . S
C3741 C3735 1.363 . S
C3741 C3736 1.379 . S
C3741 N3739 1.356 . S
N3742 C3734 1.356 . S
N3742 H3748 0.984 . S
N3742 H3749 0.984 . S
N3743 C3736 1.356 . S
N3743 H3746 0.984 . S
N3743 H3747 0.985 . S
H3744 N3739 0.984 . S
H3745 N3739 0.985 . S
H3746 N3743 0.984 . S
H3747 N3743 0.985 . S
H3748 N3742 0.984 . S
H3749 N3742 0.984 . S
H3750 N3738 0.984 . S
H3751 N3738 0.985 . S
C3752 C3753 1.363 . S
C3752 C3758 1.379 . S
C3752 N3760 1.356 . S
C3753 C3752 1.363 . S
C3753 C3759 1.363 . S
C3754 C3755 1.363 . S
C3754 C3759 1.379 . S
C3754 N3761 1.356 . S
C3755 C3754 1.363 . S
C3755 C3758 1.363 . S
N3756 C3758 1.356 . S
N3756 H3768 0.984 . S
N3756 H3769 0.985 . S
N3757 C3759 1.356 . S
N3757 H3762 0.984 . S
N3757 H3763 0.985 . S
C3758 C3752 1.379 . S
C3758 C3755 1.363 . S
C3758 N3756 1.356 . S
C3759 C3753 1.363 . S
C3759 C3754 1.379 . S
C3759 N3757 1.356 . S
N3760 C3752 1.356 . S
N3760 H3766 0.984 . S
N3760 H3767 0.984 . S
N3761 C3754 1.356 . S
N3761 H3764 0.984 . S
N3761 H3765 0.985 . S
H3762 N3757 0.984 . S
H3763 N3757 0.985 . S
H3764 N3761 0.984 . S
H3765 N3761 0.985 . S
H3766 N3760 0.984 . S
H3767 N3760 0.984 . S
H3768 N3756 0.984 . S
H3769 N3756 0.985 . S
C3770 C3771 1.363 . S
C3770 C3776 1.379 . S
C3770 N3778 1.356 . S
C3771 C3770 1.363 . S
C3771 C3777 1.363 . S
C3772 C3773 1.363 . S
C3772 C3777 1.379 . S
C3772 N3779 1.356 . S
C3773 C3772 1.363 . S
C3773 C3776 1.363 . S
N3774 C3776 1.356 . S
N3774 H3786 0.984 . S
N3774 H3787 0.985 . S
N3775 C3777 1.356 . S
N3775 H3780 0.984 . S
N3775 H3781 0.985 . S
C3776 C3770 1.379 . S
C3776 C3773 1.363 . S
C3776 N3774 1.356 . S
C3777 C3771 1.363 . S
C3777 C3772 1.379 . S
C3777 N3775 1.356 . S
N3778 C3770 1.356 . S
N3778 H3784 0.984 . S
N3778 H3785 0.984 . S
N3779 C3772 1.356 . S
N3779 H3782 0.984 . S
N3779 H3783 0.985 . S
H3780 N3775 0.984 . S
H3781 N3775 0.985 . S
H3782 N3779 0.984 . S
H3783 N3779 0.985 . S
H3784 N3778 0.984 . S
H3785 N3778 0.984 . S
H3786 N3774 0.984 . S
H3787 N3774 0.985 . S
C3788 C3789 1.363 . S
C3788 C3794 1.379 . S
C3788 N3796 1.356 . S
C3789 C3788 1.363 . S
C3789 C3795 1.363 . S
C3790 C3791 1.363 . S
C3790 C3795 1.379 . S
C3790 N3797 1.356 . S
C3791 C3790 1.363 . S
C3791 C3794 1.363 . S
N3792 C3794 1.356 . S
N3792 H3804 0.984 . S
N3792 H3805 0.985 . S
N3793 C3795 1.356 . S
N3793 H3798 0.984 . S
N3793 H3799 0.985 . S
C3794 C3788 1.379 . S
C3794 C3791 1.363 . S
C3794 N3792 1.356 . S
C3795 C3789 1.363 . S
C3795 C3790 1.379 . S
C3795 N3793 1.356 . S
N3796 C3788 1.356 . S
N3796 H3802 0.984 . S
N3796 H3803 0.984 . S
N3797 C3790 1.356 . S
N3797 H3800 0.984 . S
N3797 H3801 0.985 . S
H3798 N3793 0.984 . S
H3799 N3793 0.985 . S
H3800 N3797 0.984 . S
H3801 N3797 0.985 . S
H3802 N3796 0.984 . S
H3803 N3796 0.984 . S
H3804 N3792 0.984 . S
H3805 N3792 0.985 . S
C3806 C3807 1.363 . S
C3806 C3812 1.379 . S
C3806 N3814 1.356 . S
C3807 C3806 1.363 . S
C3807 C3813 1.363 . S
C3808 C3809 1.363 . S
C3808 C3813 1.379 . S
C3808 N3815 1.356 . S
C3809 C3808 1.363 . S
C3809 C3812 1.363 . S
N3810 C3812 1.356 . S
N3810 H3822 0.984 . S
N3810 H3823 0.985 . S
N3811 C3813 1.356 . S
N3811 H3816 0.984 . S
N3811 H3817 0.985 . S
C3812 C3806 1.379 . S
C3812 C3809 1.363 . S
C3812 N3810 1.356 . S
C3813 C3807 1.363 . S
C3813 C3808 1.379 . S
C3813 N3811 1.356 . S
N3814 C3806 1.356 . S
N3814 H3820 0.984 . S
N3814 H3821 0.984 . S
N3815 C3808 1.356 . S
N3815 H3818 0.984 . S
N3815 H3819 0.985 . S
H3816 N3811 0.984 . S
H3817 N3811 0.985 . S
H3818 N3815 0.984 . S
H3819 N3815 0.985 . S
H3820 N3814 0.984 . S
H3821 N3814 0.984 . S
H3822 N3810 0.984 . S
H3823 N3810 0.985 . S
C3824 C3825 1.363 . S
C3824 C3830 1.379 . S
C3824 N3832 1.356 . S
C3825 C3824 1.363 . S
C3825 C3831 1.363 . S
C3826 C3827 1.363 . S
C3826 C3831 1.379 . S
C3826 N3833 1.356 . S
C3827 C3826 1.363 . S
C3827 C3830 1.363 . S
N3828 C3830 1.356 . S
N3828 H3840 0.984 . S
N3828 H3841 0.985 . S
N3829 C3831 1.356 . S
N3829 H3834 0.984 . S
N3829 H3835 0.985 . S
C3830 C3824 1.379 . S
C3830 C3827 1.363 . S
C3830 N3828 1.356 . S
C3831 C3825 1.363 . S
C3831 C3826 1.379 . S
C3831 N3829 1.356 . S
N3832 C3824 1.356 . S
N3832 H3838 0.984 . S
N3832 H3839 0.984 . S
N3833 C3826 1.356 . S
N3833 H3836 0.984 . S
N3833 H3837 0.985 . S
H3834 N3829 0.984 . S
H3835 N3829 0.985 . S
H3836 N3833 0.984 . S
H3837 N3833 0.985 . S
H3838 N3832 0.984 . S
H3839 N3832 0.984 . S
H3840 N3828 0.984 . S
H3841 N3828 0.985 . S
C3842 C3843 1.363 . S
C3842 C3848 1.379 . S
C3842 N3850 1.356 . S
C3843 C3842 1.363 . S
C3843 C3849 1.363 . S
C3844 C3845 1.363 . S
C3844 C3849 1.379 . S
C3844 N3851 1.356 . S
C3845 C3844 1.363 . S
C3845 C3848 1.363 . S
N3846 C3848 1.356 . S
N3846 H3858 0.984 . S
N3846 H3859 0.985 . S
N3847 C3849 1.356 . S
N3847 H3852 0.984 . S
N3847 H3853 0.985 . S
C3848 C3842 1.379 . S
C3848 C3845 1.363 . S
C3848 N3846 1.356 . S
C3849 C3843 1.363 . S
C3849 C3844 1.379 . S
C3849 N3847 1.356 . S
N3850 C3842 1.356 . S
N3850 H3856 0.984 . S
N3850 H3857 0.984 . S
N3851 C3844 1.356 . S
N3851 H3854 0.984 . S
N3851 H3855 0.985 . S
H3852 N3847 0.984 . S
H3853 N3847 0.985 . S
H3854 N3851 0.984 . S
H3855 N3851 0.985 . S
H3856 N3850 0.984 . S
H3857 N3850 0.984 . S
H3858 N3846 0.984 . S
H3859 N3846 0.985 . S
C3860 C3861 1.363 . S
C3860 C3866 1.379 . S
C3860 N3868 1.356 . S
C3861 C3860 1.363 . S
C3861 C3867 1.363 . S
C3862 C3863 1.363 . S
C3862 C3867 1.379 . S
C3862 N3869 1.356 . S
C3863 C3862 1.363 . S
C3863 C3866 1.363 . S
N3864 C3866 1.356 . S
N3864 H3876 0.984 . S
N3864 H3877 0.985 . S
N3865 C3867 1.356 . S
N3865 H3870 0.984 . S
N3865 H3871 0.985 . S
C3866 C3860 1.379 . S
C3866 C3863 1.363 . S
C3866 N3864 1.356 . S
C3867 C3861 1.363 . S
C3867 C3862 1.379 . S
C3867 N3865 1.356 . S
N3868 C3860 1.356 . S
N3868 H3874 0.984 . S
N3868 H3875 0.984 . S
N3869 C3862 1.356 . S
N3869 H3872 0.984 . S
N3869 H3873 0.985 . S
H3870 N3865 0.984 . S
H3871 N3865 0.985 . S
H3872 N3869 0.984 . S
H3873 N3869 0.985 . S
H3874 N3868 0.984 . S
H3875 N3868 0.984 . S
H3876 N3864 0.984 . S
H3877 N3864 0.985 . S
C3878 C3879 1.363 . S
C3878 C3884 1.379 . S
C3878 N3886 1.356 . S
C3879 C3878 1.363 . S
C3879 C3885 1.363 . S
C3880 C3881 1.363 . S
C3880 C3885 1.379 . S
C3880 N3887 1.356 . S
C3881 C3880 1.363 . S
C3881 C3884 1.363 . S
N3882 C3884 1.356 . S
N3882 H3894 0.984 . S
N3882 H3895 0.985 . S
N3883 C3885 1.356 . S
N3883 H3888 0.984 . S
N3883 H3889 0.985 . S
C3884 C3878 1.379 . S
C3884 C3881 1.363 . S
C3884 N3882 1.356 . S
C3885 C3879 1.363 . S
C3885 C3880 1.379 . S
C3885 N3883 1.356 . S
N3886 C3878 1.356 . S
N3886 H3892 0.984 . S
N3886 H3893 0.984 . S
N3887 C3880 1.356 . S
N3887 H3890 0.984 . S
N3887 H3891 0.985 . S
H3888 N3883 0.984 . S
H3889 N3883 0.985 . S
H3890 N3887 0.984 . S
H3891 N3887 0.985 . S
H3892 N3886 0.984 . S
H3893 N3886 0.984 . S
H3894 N3882 0.984 . S
H3895 N3882 0.985 . S
C3896 C3897 1.363 . S
C3896 C3902 1.379 . S
C3896 N3904 1.356 . S
C3897 C3896 1.363 . S
C3897 C3903 1.363 . S
C3898 C3899 1.363 . S
C3898 C3903 1.379 . S
C3898 N3905 1.356 . S
C3899 C3898 1.363 . S
C3899 C3902 1.363 . S
N3900 C3902 1.356 . S
N3900 H3912 0.984 . S
N3900 H3913 0.985 . S
N3901 C3903 1.356 . S
N3901 H3906 0.984 . S
N3901 H3907 0.985 . S
C3902 C3896 1.379 . S
C3902 C3899 1.363 . S
C3902 N3900 1.356 . S
C3903 C3897 1.363 . S
C3903 C3898 1.379 . S
C3903 N3901 1.356 . S
N3904 C3896 1.356 . S
N3904 H3910 0.984 . S
N3904 H3911 0.984 . S
N3905 C3898 1.356 . S
N3905 H3908 0.984 . S
N3905 H3909 0.985 . S
H3906 N3901 0.984 . S
H3907 N3901 0.985 . S
H3908 N3905 0.984 . S
H3909 N3905 0.985 . S
H3910 N3904 0.984 . S
H3911 N3904 0.984 . S
H3912 N3900 0.984 . S
H3913 N3900 0.985 . S
C3914 C3915 1.363 . S
C3914 C3920 1.379 . S
C3914 N3922 1.356 . S
C3915 C3914 1.363 . S
C3915 C3921 1.363 . S
C3916 C3917 1.363 . S
C3916 C3921 1.379 . S
C3916 N3923 1.356 . S
C3917 C3916 1.363 . S
C3917 C3920 1.363 . S
N3918 C3920 1.356 . S
N3918 H3930 0.984 . S
N3918 H3931 0.985 . S
N3919 C3921 1.356 . S
N3919 H3924 0.984 . S
N3919 H3925 0.985 . S
C3920 C3914 1.379 . S
C3920 C3917 1.363 . S
C3920 N3918 1.356 . S
C3921 C3915 1.363 . S
C3921 C3916 1.379 . S
C3921 N3919 1.356 . S
N3922 C3914 1.356 . S
N3922 H3928 0.984 . S
N3922 H3929 0.984 . S
N3923 C3916 1.356 . S
N3923 H3926 0.984 . S
N3923 H3927 0.985 . S
H3924 N3919 0.984 . S
H3925 N3919 0.985 . S
H3926 N3923 0.984 . S
H3927 N3923 0.985 . S
H3928 N3922 0.984 . S
H3929 N3922 0.984 . S
H3930 N3918 0.984 . S
H3931 N3918 0.985 . S
C3932 C3933 1.363 . S
C3932 C3938 1.379 . S
C3932 N3940 1.356 . S
C3933 C3932 1.363 . S
C3933 C3939 1.363 . S
C3934 C3935 1.363 . S
C3934 C3939 1.379 . S
C3934 N3941 1.356 . S
C3935 C3934 1.363 . S
C3935 C3938 1.363 . S
N3936 C3938 1.356 . S
N3936 H3948 0.984 . S
N3936 H3949 0.985 . S
N3937 C3939 1.356 . S
N3937 H3942 0.984 . S
N3937 H3943 0.985 . S
C3938 C3932 1.379 . S
C3938 C3935 1.363 . S
C3938 N3936 1.356 . S
C3939 C3933 1.363 . S
C3939 C3934 1.379 . S
C3939 N3937 1.356 . S
N3940 C3932 1.356 . S
N3940 H3946 0.984 . S
N3940 H3947 0.984 . S
N3941 C3934 1.356 . S
N3941 H3944 0.984 . S
N3941 H3945 0.985 . S
H3942 N3937 0.984 . S
H3943 N3937 0.985 . S
H3944 N3941 0.984 . S
H3945 N3941 0.985 . S
H3946 N3940 0.984 . S
H3947 N3940 0.984 . S
H3948 N3936 0.984 . S
H3949 N3936 0.985 . S
C3950 C3951 1.363 . S
C3950 C3956 1.379 . S
C3950 N3958 1.356 . S
C3951 C3950 1.363 . S
C3951 C3957 1.363 . S
C3952 C3953 1.363 . S
C3952 C3957 1.379 . S
C3952 N3959 1.356 . S
C3953 C3952 1.363 . S
C3953 C3956 1.363 . S
N3954 C3956 1.356 . S
N3954 H3966 0.984 . S
N3954 H3967 0.985 . S
N3955 C3957 1.356 . S
N3955 H3960 0.984 . S
N3955 H3961 0.985 . S
C3956 C3950 1.379 . S
C3956 C3953 1.363 . S
C3956 N3954 1.356 . S
C3957 C3951 1.363 . S
C3957 C3952 1.379 . S
C3957 N3955 1.356 . S
N3958 C3950 1.356 . S
N3958 H3964 0.984 . S
N3958 H3965 0.984 . S
N3959 C3952 1.356 . S
N3959 H3962 0.984 . S
N3959 H3963 0.985 . S
H3960 N3955 0.984 . S
H3961 N3955 0.985 . S
H3962 N3959 0.984 . S
H3963 N3959 0.985 . S
H3964 N3958 0.984 . S
H3965 N3958 0.984 . S
H3966 N3954 0.984 . S
H3967 N3954 0.985 . S
C2817 C409 1.514 . S
C2819 C29 1.514 . S
C2835 C497 1.514 . S
C2837 C117 1.514 . S
C2853 C577 1.514 . S
C2855 C205 1.514 . S
C2871 C284 1.514 . S
C2873 C665 1.514 . S
C2889 C724 1.507 . S
C2891 C1113 1.507 . S
C2907 C1173 1.507 . S
C2909 C841 1.507 . S
C2925 C929 1.507 . S
C2927 C1261 1.507 . S
C2943 C1349 1.507 . S
C2945 C1017 1.507 . S
C2961 C1428 1.514 . S
C2963 C1817 1.514 . S
C2979 C1897 1.514 . S
C2981 C1525 1.514 . S
C2997 C1985 1.514 . S
C2999 C1604 1.514 . S
C3015 C2081 1.514 . S
C3017 C1692 1.514 . S
C3033 C2132 1.507 . S
C3035 C2513 1.507 . S
C3051 C2249 1.507 . S
C3053 C2581 1.507 . S
C3069 C2337 1.507 . S
C3071 C2660 1.507 . S
C3087 C2433 1.507 . S
C3089 C2757 1.507 . S
C3105 C49 0.841 . S
C3107 C645 0.841 . S
C3123 C137 0.841 . S
C3125 C372 0.841 . S
C3141 C225 0.841 . S
C3143 C460 0.841 . S
C3159 C557 0.841 . S
C3161 C321 0.841 . S
C3177 C1340 0.848 . S
C3179 C733 0.848 . S
C3195 C1105 0.848 . S
C3197 C849 0.848 . S
C3213 C1164 0.848 . S
C3215 C937 0.848 . S
C3231 C1025 0.848 . S
C3233 C1252 0.848 . S
C3249 C2044 0.841 . S
C3251 C1465 0.841 . S
C3267 C1780 0.841 . S
C3269 C1545 0.841 . S
C3285 C1877 0.841 . S
C3287 C1641 0.841 . S
C3303 C1729 0.841 . S
C3305 C1965 0.841 . S
C3321 C2141 0.848 . S
C3323 C2748 0.848 . S
C3339 C2257 0.848 . S
C3341 C2521 0.848 . S
C3357 C2345 0.848 . S
C3359 C2572 0.848 . S
C3375 C2669 0.848 . S
C3377 C2425 0.848 . S
C3393 C57 1.682 . S
C3395 C2229 1.619 . S
C3411 C145 1.681 . S
C3413 C909 1.619 . S
C3429 C233 1.681 . S
C3431 C2396 1.619 . S
C3447 C761 1.619 . S
C3449 C313 1.681 . S
C3465 C2777 1.619 . S
C3467 C381 1.681 . S
C3483 C469 1.681 . S
C3485 C1076 1.619 . S
C3501 C548 1.682 . S
C3503 C2601 1.619 . S
C3519 C636 1.681 . S
C3521 C1281 1.619 . S
C3537 C1516 1.621 . S
C3539 C753 1.680 . S
C3555 C196 1.621 . S
C3557 C812 1.680 . S
C3573 C1701 1.621 . S
C3575 C900 1.680 . S
C3591 C988 1.680 . S
C3593 C20 1.621 . S
C3609 C2073 1.621 . S
C3611 C1085 1.680 . S
C3627 C401 1.621 . S
C3629 C1201 1.680 . S
C3645 C1905 1.621 . S
C3647 C1289 1.680 . S
C3663 C585 1.621 . S
C3665 C1377 1.680 . S
C3681 C821 1.619 . S
C3683 C1457 1.682 . S
C3699 C1553 1.682 . S
C3701 C2317 1.619 . S
C3717 C1633 1.682 . S
C3719 C997 1.619 . S
C3735 C1721 1.681 . S
C3737 C2169 1.619 . S
C3753 C1789 1.682 . S
C3755 C1369 1.619 . S
C3771 C2493 1.619 . S
C3773 C1868 1.682 . S
C3789 C1956 1.682 . S
C3791 C1193 1.619 . S
C3807 C2053 1.681 . S
C3809 C2697 1.619 . S
C3825 C2161 1.680 . S
C3827 C108 1.621 . S
C3843 C2220 1.680 . S
C3845 C1613 1.621 . S
C3861 C293 1.621 . S
C3863 C2308 1.680 . S
C3879 C1437 1.621 . S
C3881 C2405 1.680 . S
C3897 C2484 1.680 . S
C3899 C673 1.621 . S
C3915 C2609 1.680 . S
C3917 C1809 1.621 . S
C3933 C489 1.621 . S
C3935 C2689 1.680 . S
C3951 C1993 1.621 . S
C3953 C2785 1.680 . S
