# Generated by pormake.
# Topology unm, (4)-cn, num edge types: 1
# Building blocks:
#     Node 0, Type 0, BuildingBlock: CEKHIL_clean_sbu_0, # of connection points: 4
#     Node 1, Type 0, BuildingBlock: CEKHIL_clean_sbu_0, # of connection points: 4
#     Node 2, Type 0, BuildingBlock: CEKHIL_clean_sbu_0, # of connection points: 4
#     Node 3, Type 0, BuildingBlock: CEKHIL_clean_sbu_0, # of connection points: 4
#     Node 4, Type 0, BuildingBlock: CEKHIL_clean_sbu_0, # of connection points: 4
#     Node 5, Type 0, BuildingBlock: CEKHIL_clean_sbu_0, # of connection points: 4
#     Node 6, Type 0, BuildingBlock: CEKHIL_clean_sbu_0, # of connection points: 4
#     Node 7, Type 0, BuildingBlock: CEKHIL_clean_sbu_0, # of connection points: 4
#     Edge 8, Type (0, 0), BuildingBlock: CIFDUS_clean_linker_0, # of connection points: 2
#     Edge 9, Type (0, 0), BuildingBlock: CIFDUS_clean_linker_0, # of connection points: 2
#     Edge 10, Type (0, 0), BuildingBlock: CIFDUS_clean_linker_0, # of connection points: 2
#     Edge 11, Type (0, 0), BuildingBlock: CIFDUS_clean_linker_0, # of connection points: 2
#     Edge 12, Type (0, 0), BuildingBlock: CIFDUS_clean_linker_0, # of connection points: 2
#     Edge 13, Type (0, 0), BuildingBlock: CIFDUS_clean_linker_0, # of connection points: 2
#     Edge 14, Type (0, 0), BuildingBlock: CIFDUS_clean_linker_0, # of connection points: 2
#     Edge 15, Type (0, 0), BuildingBlock: CIFDUS_clean_linker_0, # of connection points: 2
#     Edge 16, Type (0, 0), BuildingBlock: CIFDUS_clean_linker_0, # of connection points: 2
#     Edge 17, Type (0, 0), BuildingBlock: CIFDUS_clean_linker_0, # of connection points: 2
#     Edge 18, Type (0, 0), BuildingBlock: CIFDUS_clean_linker_0, # of connection points: 2
#     Edge 19, Type (0, 0), BuildingBlock: CIFDUS_clean_linker_0, # of connection points: 2
#     Edge 20, Type (0, 0), BuildingBlock: CIFDUS_clean_linker_0, # of connection points: 2
#     Edge 21, Type (0, 0), BuildingBlock: CIFDUS_clean_linker_0, # of connection points: 2
#     Edge 22, Type (0, 0), BuildingBlock: CIFDUS_clean_linker_0, # of connection points: 2
#     Edge 23, Type (0, 0), BuildingBlock: CIFDUS_clean_linker_0, # of connection points: 2
# Relax obj value: 0.189
# Max RMSD: 0.152
# Mean RMSD: 0.152
data_MOF--net-unm--node1-CEKHIL_clean_sbu_0--edge1-CIFDUS_clean_linker_0
_symmetry_space_group_name_H-M    P1
_symmetry_Int_Tables_number       1
_symmetry_cell_setting            triclinic
loop_
_symmetry_equiv_pos_as_xyz
'x, y, z'
_cell_length_a     21.962507
_cell_length_b     21.973333
_cell_length_c     37.815632
_cell_angle_alpha  90.005668
_cell_angle_beta   89.995081
_cell_angle_gamma 89.929757
loop_
_atom_site_label
_atom_site_type_symbol
_atom_site_fract_x
_atom_site_fract_y
_atom_site_fract_z
_atom_type_partial_charge
Co0 Co 0.17844 0.26439 0.19096 0.0
O1 O 0.24593 0.21183 0.20342 0.0
O2 O 0.25429 0.30993 0.19169 0.0
C3 C 0.11141 0.23783 0.23402 0.0
O4 O 0.11936 0.33321 0.17914 0.0
Co5 Co 0.05582 0.20918 0.16553 0.0
O6 O 0.02566 0.29223 0.17559 0.0
C7 C 0.15567 0.22315 0.11402 0.0
C8 C 0.28072 0.2594 0.20096 0.0
C9 C 0.06088 0.33814 0.17753 0.0
O10 O 0.18992 0.24556 0.13852 0.0
O11 O 0.10168 0.2037 0.11984 0.0
O12 O 0.15622 0.27459 0.24057 0.0
O13 O 0.11469 0.21049 0.20368 0.0
Co14 Co 0.24492 0.69426 0.6869 0.0
O15 O 0.30038 0.75933 0.6998 0.0
O16 O 0.20086 0.76977 0.69367 0.0
C17 C 0.27912 0.62153 0.72485 0.0
O18 O 0.17278 0.64 0.67612 0.0
Co19 Co 0.28915 0.57197 0.65417 0.0
O20 O 0.20542 0.54467 0.66597 0.0
C21 C 0.27698 0.68023 0.60832 0.0
C22 C 0.2528 0.79448 0.70162 0.0
C23 C 0.16283 0.58291 0.67162 0.0
O24 O 0.25585 0.71202 0.63432 0.0
O25 O 0.29613 0.62549 0.61147 0.0
O26 O 0.24277 0.66426 0.73575 0.0
O27 O 0.29942 0.62838 0.69301 0.0
Co28 Co 0.83514 0.75603 0.19114 0.0
O29 O 0.76635 0.80591 0.20522 0.0
O30 O 0.76261 0.70647 0.19705 0.0
C31 C 0.90615 0.79187 0.22949 0.0
O32 O 0.89572 0.68905 0.17869 0.0
Co33 Co 0.95179 0.812 0.15805 0.0
O34 O 0.98745 0.73183 0.16991 0.0
C35 C 0.84547 0.78917 0.11223 0.0
C36 C 0.73425 0.75625 0.20573 0.0
C37 C 0.95393 0.68532 0.17478 0.0
O38 O 0.8151 0.76916 0.13903 0.0
O39 O 0.89986 0.80961 0.11449 0.0
O40 O 0.86555 0.75271 0.23972 0.0
O41 O 0.89708 0.81459 0.19831 0.0
Co42 Co 0.75936 0.30317 0.68396 0.0
O43 O 0.70359 0.23837 0.69676 0.0
O44 O 0.80318 0.22762 0.69115 0.0
C45 C 0.72462 0.37619 0.7216 0.0
O46 O 0.83163 0.3573 0.67338 0.0
Co47 Co 0.71542 0.42527 0.65083 0.0
O48 O 0.7991 0.45257 0.66284 0.0
C49 C 0.72517 0.31584 0.6057 0.0
C50 C 0.75106 0.20314 0.69893 0.0
C51 C 0.84161 0.41438 0.66886 0.0
O52 O 0.74888 0.28505 0.63135 0.0
O53 O 0.70465 0.37006 0.60912 0.0
O54 O 0.7609 0.33361 0.73277 0.0
O55 O 0.70485 0.36908 0.6897 0.0
Co56 Co 0.67307 0.2432 0.32643 0.0
O57 O 0.749 0.28564 0.31638 0.0
O58 O 0.74058 0.18679 0.32561 0.0
C59 C 0.61452 0.28427 0.28275 0.0
O60 O 0.60653 0.18133 0.33469 0.0
Co61 Co 0.55043 0.30574 0.34686 0.0
O62 O 0.51412 0.22488 0.33646 0.0
C63 C 0.64359 0.28044 0.40248 0.0
C64 C 0.77503 0.23238 0.31699 0.0
C65 C 0.54815 0.17795 0.33509 0.0
O66 O 0.68089 0.25605 0.38 0.0
O67 O 0.59335 0.30561 0.39337 0.0
O68 O 0.65301 0.24099 0.27587 0.0
O69 O 0.61804 0.30624 0.31433 0.0
Co70 Co 0.25558 0.19431 0.83258 0.0
O71 O 0.20217 0.25917 0.81651 0.0
O72 O 0.30013 0.27017 0.82802 0.0
C73 C 0.22708 0.12204 0.79291 0.0
O74 O 0.32624 0.14002 0.84726 0.0
Co75 Co 0.2079 0.07109 0.86225 0.0
O76 O 0.29307 0.04408 0.85408 0.0
C77 C 0.20483 0.18073 0.90757 0.0
C78 C 0.24959 0.29453 0.8171 0.0
C79 C 0.33607 0.08264 0.85108 0.0
O80 O 0.23429 0.21199 0.88419 0.0
O81 O 0.18638 0.12622 0.90251 0.0
O82 O 0.2657 0.1641 0.78402 0.0
O83 O 0.20252 0.12869 0.82368 0.0
Co84 Co 0.33687 0.75327 0.32954 0.0
O85 O 0.26628 0.70273 0.32003 0.0
O86 O 0.26383 0.8027 0.32595 0.0
C87 C 0.40142 0.7142 0.28812 0.0
O88 O 0.3978 0.82131 0.3371 0.0
Co89 Co 0.46158 0.70022 0.35475 0.0
O90 O 0.49206 0.7821 0.3416 0.0
C91 C 0.36391 0.72462 0.40738 0.0
C92 C 0.23459 0.75274 0.31902 0.0
C93 C 0.45602 0.82723 0.3382 0.0
O94 O 0.32689 0.74404 0.38321 0.0
O95 O 0.41667 0.70272 0.40058 0.0
O96 O 0.35962 0.75318 0.27929 0.0
O97 O 0.39752 0.69422 0.32013 0.0
Co98 Co 0.74131 0.80328 0.83035 0.0
O99 O 0.796 0.73903 0.81486 0.0
O100 O 0.69748 0.72733 0.82431 0.0
C101 C 0.77182 0.87659 0.79187 0.0
O102 O 0.66927 0.85677 0.84408 0.0
Co103 Co 0.78579 0.92606 0.86203 0.0
O104 O 0.7012 0.95275 0.85232 0.0
C105 C 0.78205 0.81665 0.90757 0.0
C106 C 0.74877 0.70341 0.81429 0.0
C107 C 0.6587 0.91395 0.84835 0.0
O108 O 0.7595 0.78433 0.88217 0.0
O109 O 0.79776 0.87237 0.9042 0.0
O110 O 0.734 0.83453 0.7819 0.0
O111 O 0.79456 0.86949 0.8231 0.0
H112 H 0.08701 0.23161 0.05488 0.0
H113 H 0.27344 0.21479 0.08924 0.0
H114 H 0.30696 0.20851 0.02737 0.0
H115 H 0.28141 0.1987 0.96334 0.0
H116 H 0.09433 0.2154 0.93054 0.0
H117 H 0.06293 0.23223 0.99178 0.0
C118 C 0.13507 0.22662 0.04891 0.0
C119 C 0.17754 0.22242 0.07674 0.0
C120 C 0.15387 0.22378 0.01342 0.0
C121 C 0.23974 0.21755 0.06839 0.0
C122 C 0.25888 0.21403 0.03299 0.0
C123 C 0.23416 0.20815 0.96964 0.0
C124 C 0.19022 0.20708 0.94248 0.0
C125 C 0.21623 0.21619 1.00524 0.0
C126 C 0.12889 0.21733 0.95096 0.0
C127 C 0.1109 0.22618 0.98601 0.0
H128 H 0.37138 0.72992 0.57343 0.0
H129 H 0.18314 0.68047 0.56162 0.0
H130 H 0.18998 0.69551 0.49738 0.0
H131 H 0.25447 0.71016 0.44352 0.0
H132 H 0.4436 0.75757 0.45754 0.0
H133 H 0.43135 0.757 0.52127 0.0
C134 C 0.33144 0.72454 0.55683 0.0
C135 C 0.2767 0.70522 0.57209 0.0
C136 C 0.3362 0.73196 0.51999 0.0
C137 C 0.22549 0.69669 0.55036 0.0
C138 C 0.22962 0.7046 0.51359 0.0
C139 C 0.29248 0.72142 0.46059 0.0
C140 C 0.35017 0.73257 0.44565 0.0
C141 C 0.28541 0.72036 0.49786 0.0
C142 C 0.39898 0.74738 0.46824 0.0
C143 C 0.39212 0.74728 0.50483 0.0
H144 H 0.89522 0.74241 0.05289 0.0
H145 H 0.73419 0.83248 0.09166 0.0
H146 H 0.69585 0.84253 0.03091 0.0
H147 H 0.71467 0.83603 0.9663 0.0
H148 H 0.87382 0.74217 0.92809 0.0
H149 H 0.9061 0.72189 0.98904 0.0
C150 C 0.85129 0.76342 0.04799 0.0
C151 C 0.81783 0.78749 0.07652 0.0
C152 C 0.82932 0.76806 0.01313 0.0
C153 C 0.76067 0.81381 0.07005 0.0
C154 C 0.73895 0.81969 0.03534 0.0
C155 C 0.75529 0.80933 0.97147 0.0
C156 C 0.7916 0.78986 0.94291 0.0
C157 C 0.7736 0.79829 1.00661 0.0
C158 C 0.84474 0.75646 0.94971 0.0
C159 C 0.86349 0.74557 0.98453 0.0
H160 H 0.7517 0.27234 0.44159 0.0
H161 H 0.55565 0.27458 0.45172 0.0
H162 H 0.56382 0.2772 0.51533 0.0
H163 H 0.62484 0.29096 0.56836 0.0
H164 H 0.82021 0.2886 0.56164 0.0
H165 H 0.81433 0.27317 0.49725 0.0
C166 C 0.71098 0.27273 0.45779 0.0
C167 C 0.6532 0.27521 0.44147 0.0
C168 C 0.71571 0.27429 0.49525 0.0
C169 C 0.6009 0.27473 0.46314 0.0
C170 C 0.60528 0.27581 0.49978 0.0
C171 C 0.66607 0.28515 0.55288 0.0
C172 C 0.72269 0.29011 0.5696 0.0
C173 C 0.6622 0.27735 0.5161 0.0
C174 C 0.77597 0.28362 0.54931 0.0
C175 C 0.77255 0.27562 0.51243 0.0
H176 H 0.35537 0.35203 0.22195 0.0
H177 H 0.35362 0.15902 0.20136 0.0
H178 H 0.4596 0.15106 0.22058 0.0
H179 H 0.55068 0.19744 0.24742 0.0
H180 H 0.54902 0.38814 0.27386 0.0
H181 H 0.44741 0.39886 0.24782 0.0
C182 C 0.3785 0.30841 0.22121 0.0
C183 C 0.34657 0.25623 0.21008 0.0
C184 C 0.43911 0.30383 0.23335 0.0
C185 C 0.377 0.19988 0.20983 0.0
C186 C 0.43771 0.19529 0.22081 0.0
C187 C 0.52864 0.24162 0.24664 0.0
C188 C 0.55779 0.29225 0.26193 0.0
C189 C 0.46902 0.24676 0.23311 0.0
C190 C 0.52781 0.34875 0.26183 0.0
C191 C 0.46954 0.35477 0.24715 0.0
H192 H 0.16209 0.86482 0.72869 0.0
H193 H 0.3534 0.86775 0.70319 0.0
H194 H 0.36141 0.97161 0.72625 0.0
H195 H 0.31482 0.06028 0.75642 0.0
H196 H 0.12585 0.05261 0.78675 0.0
H197 H 0.11588 0.95258 0.75892 0.0
C198 C 0.20542 0.8884 0.72784 0.0
C199 C 0.257 0.85861 0.71401 0.0
C200 C 0.21003 0.94749 0.74208 0.0
C201 C 0.31299 0.88957 0.71365 0.0
C202 C 0.31758 0.94903 0.72684 0.0
C203 C 0.27129 0.03702 0.75635 0.0
C204 C 0.22082 0.06413 0.77312 0.0
C205 C 0.26652 0.97832 0.74143 0.0
C206 C 0.16513 0.03282 0.77376 0.0
C207 C 0.15949 0.97556 0.75794 0.0
H208 H 0.46126 0.804 0.25291 0.0
H209 H 0.47435 0.61476 0.28168 0.0
H210 H 0.57702 0.60959 0.25644 0.0
H211 H 0.66589 0.66079 0.22958 0.0
H212 H 0.65608 0.85278 0.20661 0.0
H213 H 0.55003 0.8552 0.22626 0.0
C214 C 0.48614 0.76133 0.2529 0.0
C215 C 0.45976 0.70941 0.26846 0.0
C216 C 0.54629 0.75952 0.23983 0.0
C217 C 0.49336 0.65501 0.26939 0.0
C218 C 0.55222 0.6522 0.25516 0.0
C219 C 0.64033 0.70301 0.22856 0.0
C220 C 0.66897 0.75649 0.21646 0.0
C221 C 0.57961 0.70442 0.24082 0.0
C222 C 0.63534 0.81098 0.21581 0.0
C223 C 0.57455 0.81238 0.227 0.0
H224 H 0.84007 0.13392 0.72872 0.0
H225 H 0.65101 0.12925 0.6982 0.0
H226 H 0.6419 0.02564 0.72146 0.0
H227 H 0.68667 0.93765 0.75309 0.0
H228 H 0.87287 0.94704 0.78858 0.0
H229 H 0.88437 0.04689 0.7607 0.0
C230 C 0.79704 0.10998 0.72684 0.0
C231 C 0.7464 0.13918 0.7115 0.0
C232 C 0.79168 0.05108 0.74125 0.0
C233 C 0.6907 0.10785 0.70983 0.0
C234 C 0.68548 0.04855 0.72313 0.0
C235 C 0.72997 0.96127 0.75418 0.0
C236 C 0.77921 0.93469 0.7724 0.0
C237 C 0.73552 0.01983 0.7392 0.0
C238 C 0.83453 0.96644 0.77449 0.0
C239 C 0.84105 0.02358 0.75862 0.0
H240 H 0.86879 0.31445 0.3131 0.0
H241 H 0.82308 0.12757 0.2908 0.0
H242 H 0.92243 0.11185 0.2633 0.0
H243 H 0.02153 0.15258 0.24278 0.0
H244 H 0.07009 0.337 0.26947 0.0
H245 H 0.97143 0.35212 0.29777 0.0
C246 C 0.88088 0.27016 0.30255 0.0
C247 C 0.83828 0.22241 0.30396 0.0
C248 C 0.93887 0.26095 0.28729 0.0
C249 C 0.85494 0.16515 0.2903 0.0
C250 C 0.91178 0.15612 0.27434 0.0
C251 C 0.01064 0.19575 0.25517 0.0
C252 C 0.05328 0.24345 0.254 0.0
C253 C 0.95398 0.20385 0.27228 0.0
C254 C 0.0385 0.29919 0.27026 0.0
C255 C 0.98181 0.30809 0.28633 0.0
H256 H 0.19206 0.56133 0.76222 0.0
H257 H 0.37888 0.54836 0.72829 0.0
H258 H 0.3878 0.448 0.75614 0.0
H259 H 0.34105 0.3618 0.78809 0.0
H260 H 0.15103 0.37027 0.81623 0.0
H261 H 0.14458 0.47402 0.79286 0.0
C262 C 0.23493 0.53681 0.76143 0.0
C263 C 0.28516 0.56264 0.74379 0.0
C264 C 0.23891 0.47801 0.77628 0.0
C265 C 0.33985 0.52963 0.742 0.0
C266 C 0.34487 0.4722 0.75786 0.0
C267 C 0.29841 0.38663 0.78942 0.0
C268 C 0.24671 0.35849 0.80422 0.0
C269 C 0.29455 0.44563 0.77481 0.0
C270 C 0.1915 0.39087 0.80508 0.0
C271 C 0.1878 0.45025 0.79171 0.0
H272 H 0.17164 0.84509 0.28752 0.0
H273 H 0.15222 0.66029 0.3241 0.0
H274 H 0.04738 0.65791 0.30219 0.0
H275 H 0.9626 0.70659 0.2701 0.0
H276 H 0.98523 0.88761 0.22829 0.0
H277 H 0.08696 0.89349 0.25478 0.0
C278 C 0.14416 0.80458 0.29109 0.0
C279 C 0.16962 0.75309 0.30778 0.0
C280 C 0.08442 0.80287 0.27733 0.0
C281 C 0.13376 0.70056 0.3115 0.0
C282 C 0.07377 0.69917 0.29892 0.0
C283 C 0.98945 0.74769 0.26725 0.0
C284 C 0.96597 0.79705 0.24769 0.0
C285 C 0.04877 0.74983 0.28149 0.0
C286 C 0.00204 0.84927 0.24343 0.0
C287 C 0.06027 0.85254 0.25852 0.0
H288 H 0.81019 0.43704 0.7599 0.0
H289 H 0.6244 0.44872 0.72396 0.0
H290 H 0.61393 0.54907 0.75161 0.0
H291 H 0.65898 0.63558 0.78403 0.0
H292 H 0.84803 0.62846 0.81438 0.0
H293 H 0.85604 0.52477 0.79105 0.0
C294 C 0.76719 0.46128 0.75862 0.0
C295 C 0.7177 0.43507 0.74047 0.0
C296 C 0.76233 0.5201 0.77339 0.0
C297 C 0.66286 0.46773 0.73807 0.0
C298 C 0.65696 0.52516 0.75381 0.0
C299 C 0.70176 0.61107 0.78583 0.0
C300 C 0.75272 0.63959 0.80125 0.0
C301 C 0.70653 0.5521 0.77128 0.0
C302 C 0.80812 0.6076 0.80273 0.0
C303 C 0.8127 0.54824 0.78939 0.0
H304 H 0.899 0.57491 0.18015 0.0
H305 H 0.07572 0.65969 0.17129 0.0
H306 H 0.12452 0.56008 0.1718 0.0
H307 H 0.11713 0.44867 0.17395 0.0
H308 H 0.93995 0.36469 0.18285 0.0
H309 H 0.89167 0.46423 0.18316 0.0
C310 C 0.94819 0.57174 0.17835 0.0
C311 C 0.98343 0.6248 0.17548 0.0
C312 C 0.9761 0.51437 0.1786 0.0
C313 C 0.04724 0.61964 0.1733 0.0
C314 C 0.07533 0.56265 0.17363 0.0
C315 C 0.06799 0.45212 0.176 0.0
C316 C 0.0324 0.39914 0.1781 0.0
C317 C 0.0402 0.50967 0.17613 0.0
C318 C 0.96867 0.40458 0.18085 0.0
C319 C 0.94084 0.46156 0.18112 0.0
H320 H 0.88061 0.53171 0.67069 0.0
H321 H 0.94556 0.34602 0.67057 0.0
H322 H 0.05046 0.38189 0.67204 0.0
H323 H 0.12371 0.46563 0.67227 0.0
H324 H 0.05884 0.65134 0.6727 0.0
H325 H 0.95388 0.61548 0.6723 0.0
C326 C 0.91765 0.49902 0.67088 0.0
C327 C 0.90513 0.43631 0.67024 0.0
C328 C 0.9779 0.51985 0.67179 0.0
C329 C 0.95378 0.39461 0.67096 0.0
C330 C 0.01386 0.41503 0.67177 0.0
C331 C 0.08668 0.49834 0.67221 0.0
C332 C 0.09925 0.56105 0.67225 0.0
C333 C 0.02642 0.47752 0.67199 0.0
C334 C 0.05059 0.60275 0.6726 0.0
C335 C 0.99048 0.58234 0.67232 0.0
H336 H 0.60711 0.06977 0.33251 0.0
H337 H 0.4267 0.14823 0.33596 0.0
H338 H 0.38224 0.04629 0.33639 0.0
H339 H 0.39501 0.93525 0.33729 0.0
H340 H 0.57612 0.85818 0.33381 0.0
H341 H 0.6198 0.95988 0.33184 0.0
C342 C 0.55798 0.06489 0.33334 0.0
C343 C 0.52035 0.11671 0.33449 0.0
C344 C 0.53286 0.00647 0.33364 0.0
C345 C 0.45681 0.10917 0.33529 0.0
C346 C 0.43135 0.05091 0.33551 0.0
C347 C 0.44405 0.94059 0.33602 0.0
C348 C 0.48218 0.88903 0.33601 0.0
C349 C 0.46901 0.99927 0.33495 0.0
C350 C 0.54562 0.89695 0.33419 0.0
C351 C 0.57071 0.95512 0.333 0.0
H352 H 0.37569 0.96514 0.84914 0.0
H353 H 0.44013 0.15064 0.85412 0.0
H354 H 0.54517 0.11467 0.85389 0.0
H355 H 0.61867 0.03105 0.85183 0.0
H356 H 0.5546 0.84548 0.84624 0.0
H357 H 0.44943 0.88131 0.84714 0.0
C358 C 0.41263 0.99779 0.85038 0.0
C359 C 0.39982 0.06054 0.85179 0.0
C360 C 0.47304 0.97687 0.85005 0.0
C361 C 0.44846 0.10208 0.85304 0.0
C362 C 0.50864 0.08158 0.85291 0.0
C363 C 0.58182 0.99828 0.85093 0.0
C364 C 0.59476 0.93559 0.84908 0.0
C365 C 0.52143 0.01912 0.85136 0.0
C366 C 0.54618 0.89399 0.84769 0.0
C367 C 0.48592 0.91442 0.84823 0.0
loop_
_geom_bond_atom_site_label_1
_geom_bond_atom_site_label_2
_geom_bond_distance
_geom_bond_site_symmetry_2
_ccdc_geom_bond_type
Co0 O1 2.216 . S
Co0 O2 2.091 . S
Co0 O4 2.004 . S
Co0 O10 2.021 . S
Co0 O12 2.137 . S
Co0 O13 2.244 . S
O1 Co0 2.216 . S
O1 C8 1.247 . S
O2 Co0 2.091 . S
O2 C8 1.261 . S
C3 O12 1.247 . S
C3 O13 1.272 . S
O4 Co0 2.004 . S
O4 C9 1.259 . S
Co5 O6 2.061 . S
Co5 O11 2.052 . S
Co5 O13 2.135 . S
O6 Co5 2.061 . S
O6 C9 1.235 . S
C7 O10 1.238 . S
C7 O11 1.241 . S
C8 O1 1.247 . S
C8 O2 1.261 . S
C9 O4 1.259 . S
C9 O6 1.235 . S
O10 Co0 2.021 . S
O10 C7 1.238 . S
O11 Co5 2.052 . S
O11 C7 1.241 . S
O12 Co0 2.137 . S
O12 C3 1.247 . S
O13 Co0 2.244 . S
O13 C3 1.272 . S
O13 Co5 2.135 . S
Co14 O15 2.216 . S
Co14 O16 2.091 . S
Co14 O18 2.004 . S
Co14 O24 2.021 . S
Co14 O26 2.137 . S
Co14 O27 2.244 . S
O15 Co14 2.216 . S
O15 C22 1.247 . S
O16 Co14 2.091 . S
O16 C22 1.261 . S
C17 O26 1.247 . S
C17 O27 1.272 . S
O18 Co14 2.004 . S
O18 C23 1.259 . S
Co19 O20 2.061 . S
Co19 O25 2.052 . S
Co19 O27 2.135 . S
O20 Co19 2.061 . S
O20 C23 1.235 . S
C21 O24 1.238 . S
C21 O25 1.241 . S
C22 O15 1.247 . S
C22 O16 1.261 . S
C23 O18 1.259 . S
C23 O20 1.235 . S
O24 Co14 2.021 . S
O24 C21 1.238 . S
O25 Co19 2.052 . S
O25 C21 1.241 . S
O26 Co14 2.137 . S
O26 C17 1.247 . S
O27 Co14 2.244 . S
O27 C17 1.272 . S
O27 Co19 2.135 . S
Co28 O29 2.216 . S
Co28 O30 2.091 . S
Co28 O32 2.004 . S
Co28 O38 2.021 . S
Co28 O40 2.137 . S
Co28 O41 2.244 . S
O29 Co28 2.216 . S
O29 C36 1.247 . S
O30 Co28 2.091 . S
O30 C36 1.261 . S
C31 O40 1.247 . S
C31 O41 1.272 . S
O32 Co28 2.004 . S
O32 C37 1.259 . S
Co33 O34 2.061 . S
Co33 O39 2.052 . S
Co33 O41 2.135 . S
O34 Co33 2.061 . S
O34 C37 1.235 . S
C35 O38 1.238 . S
C35 O39 1.241 . S
C36 O29 1.247 . S
C36 O30 1.261 . S
C37 O32 1.259 . S
C37 O34 1.235 . S
O38 Co28 2.021 . S
O38 C35 1.238 . S
O39 Co33 2.052 . S
O39 C35 1.241 . S
O40 Co28 2.137 . S
O40 C31 1.247 . S
O41 Co28 2.244 . S
O41 C31 1.272 . S
O41 Co33 2.135 . S
Co42 O43 2.216 . S
Co42 O44 2.091 . S
Co42 O46 2.004 . S
Co42 O52 2.021 . S
Co42 O54 2.137 . S
Co42 O55 2.244 . S
O43 Co42 2.216 . S
O43 C50 1.247 . S
O44 Co42 2.091 . S
O44 C50 1.261 . S
C45 O54 1.247 . S
C45 O55 1.272 . S
O46 Co42 2.004 . S
O46 C51 1.259 . S
Co47 O48 2.061 . S
Co47 O53 2.052 . S
Co47 O55 2.135 . S
O48 Co47 2.061 . S
O48 C51 1.235 . S
C49 O52 1.238 . S
C49 O53 1.241 . S
C50 O43 1.247 . S
C50 O44 1.261 . S
C51 O46 1.259 . S
C51 O48 1.235 . S
O52 Co42 2.021 . S
O52 C49 1.238 . S
O53 Co47 2.052 . S
O53 C49 1.241 . S
O54 Co42 2.137 . S
O54 C45 1.247 . S
O55 Co42 2.244 . S
O55 C45 1.272 . S
O55 Co47 2.135 . S
Co56 O57 2.216 . S
Co56 O58 2.091 . S
Co56 O60 2.004 . S
Co56 O66 2.021 . S
Co56 O68 2.137 . S
Co56 O69 2.244 . S
O57 Co56 2.216 . S
O57 C64 1.247 . S
O58 Co56 2.091 . S
O58 C64 1.261 . S
C59 O68 1.247 . S
C59 O69 1.272 . S
O60 Co56 2.004 . S
O60 C65 1.259 . S
Co61 O62 2.061 . S
Co61 O67 2.052 . S
Co61 O69 2.135 . S
O62 Co61 2.061 . S
O62 C65 1.235 . S
C63 O66 1.238 . S
C63 O67 1.241 . S
C64 O57 1.247 . S
C64 O58 1.261 . S
C65 O60 1.259 . S
C65 O62 1.235 . S
O66 Co56 2.021 . S
O66 C63 1.238 . S
O67 Co61 2.052 . S
O67 C63 1.241 . S
O68 Co56 2.137 . S
O68 C59 1.247 . S
O69 Co56 2.244 . S
O69 C59 1.272 . S
O69 Co61 2.135 . S
Co70 O71 2.216 . S
Co70 O72 2.091 . S
Co70 O74 2.004 . S
Co70 O80 2.021 . S
Co70 O82 2.137 . S
Co70 O83 2.244 . S
O71 Co70 2.216 . S
O71 C78 1.247 . S
O72 Co70 2.091 . S
O72 C78 1.261 . S
C73 O82 1.247 . S
C73 O83 1.272 . S
O74 Co70 2.004 . S
O74 C79 1.259 . S
Co75 O76 2.061 . S
Co75 O81 2.052 . S
Co75 O83 2.135 . S
O76 Co75 2.061 . S
O76 C79 1.235 . S
C77 O80 1.238 . S
C77 O81 1.241 . S
C78 O71 1.247 . S
C78 O72 1.261 . S
C79 O74 1.259 . S
C79 O76 1.235 . S
O80 Co70 2.021 . S
O80 C77 1.238 . S
O81 Co75 2.052 . S
O81 C77 1.241 . S
O82 Co70 2.137 . S
O82 C73 1.247 . S
O83 Co70 2.244 . S
O83 C73 1.272 . S
O83 Co75 2.135 . S
Co84 O85 2.216 . S
Co84 O86 2.091 . S
Co84 O88 2.004 . S
Co84 O94 2.021 . S
Co84 O96 2.137 . S
Co84 O97 2.244 . S
O85 Co84 2.216 . S
O85 C92 1.247 . S
O86 Co84 2.091 . S
O86 C92 1.261 . S
C87 O96 1.247 . S
C87 O97 1.272 . S
O88 Co84 2.004 . S
O88 C93 1.259 . S
Co89 O90 2.061 . S
Co89 O95 2.052 . S
Co89 O97 2.135 . S
O90 Co89 2.061 . S
O90 C93 1.235 . S
C91 O94 1.238 . S
C91 O95 1.241 . S
C92 O85 1.247 . S
C92 O86 1.261 . S
C93 O88 1.259 . S
C93 O90 1.235 . S
O94 Co84 2.021 . S
O94 C91 1.238 . S
O95 Co89 2.052 . S
O95 C91 1.241 . S
O96 Co84 2.137 . S
O96 C87 1.247 . S
O97 Co84 2.244 . S
O97 C87 1.272 . S
O97 Co89 2.135 . S
Co98 O99 2.216 . S
Co98 O100 2.091 . S
Co98 O102 2.004 . S
Co98 O108 2.021 . S
Co98 O110 2.137 . S
Co98 O111 2.244 . S
O99 Co98 2.216 . S
O99 C106 1.247 . S
O100 Co98 2.091 . S
O100 C106 1.261 . S
C101 O110 1.247 . S
C101 O111 1.272 . S
O102 Co98 2.004 . S
O102 C107 1.259 . S
Co103 O104 2.061 . S
Co103 O109 2.052 . S
Co103 O111 2.135 . S
O104 Co103 2.061 . S
O104 C107 1.235 . S
C105 O108 1.238 . S
C105 O109 1.241 . S
C106 O99 1.247 . S
C106 O100 1.261 . S
C107 O102 1.259 . S
C107 O104 1.235 . S
O108 Co98 2.021 . S
O108 C105 1.238 . S
O109 Co103 2.052 . S
O109 C105 1.241 . S
O110 Co98 2.137 . S
O110 C101 1.247 . S
O111 Co98 2.244 . S
O111 C101 1.272 . S
O111 Co103 2.135 . S
H112 C118 0.930 . S
H113 C121 0.930 . S
H114 C122 0.930 . S
H115 C123 0.930 . S
H116 C126 0.930 . S
H117 C127 0.930 . S
C118 H112 0.930 . S
C118 C119 1.355 . S
C118 C120 1.415 . S
C119 C118 1.355 . S
C119 C121 1.419 . S
C120 C118 1.415 . S
C120 C125 1.425 1_554 S
C120 C127 1.409 1_554 S
C121 H113 0.930 . S
C121 C119 1.419 . S
C121 C122 1.362 . S
C122 H114 0.930 . S
C122 C121 1.362 . S
C122 C125 1.409 1_554 S
C123 H115 0.930 . S
C123 C124 1.355 . S
C123 C125 1.415 . S
C124 C123 1.355 . S
C124 C126 1.419 . S
C125 C120 1.425 1_556 S
C125 C122 1.409 1_556 S
C125 C123 1.415 . S
C126 H116 0.930 . S
C126 C124 1.419 . S
C126 C127 1.362 . S
C127 H117 0.930 . S
C127 C120 1.409 1_556 S
C127 C126 1.362 . S
H128 C134 0.930 . S
H129 C137 0.930 . S
H130 C138 0.930 . S
H131 C139 0.930 . S
H132 C142 0.930 . S
H133 C143 0.930 . S
C134 H128 0.930 . S
C134 C135 1.355 . S
C134 C136 1.415 . S
C135 C134 1.355 . S
C135 C137 1.419 . S
C136 C134 1.415 . S
C136 C141 1.425 . S
C136 C143 1.409 . S
C137 H129 0.930 . S
C137 C135 1.419 . S
C137 C138 1.362 . S
C138 H130 0.930 . S
C138 C137 1.362 . S
C138 C141 1.409 . S
C139 H131 0.930 . S
C139 C140 1.355 . S
C139 C141 1.415 . S
C140 C139 1.355 . S
C140 C142 1.419 . S
C141 C136 1.425 . S
C141 C138 1.409 . S
C141 C139 1.415 . S
C142 H132 0.930 . S
C142 C140 1.419 . S
C142 C143 1.362 . S
C143 H133 0.930 . S
C143 C136 1.409 . S
C143 C142 1.362 . S
H144 C150 0.930 . S
H145 C153 0.930 . S
H146 C154 0.930 . S
H147 C155 0.930 . S
H148 C158 0.930 . S
H149 C159 0.930 . S
C150 H144 0.930 . S
C150 C151 1.355 . S
C150 C152 1.415 . S
C151 C150 1.355 . S
C151 C153 1.419 . S
C152 C150 1.415 . S
C152 C157 1.425 1_554 S
C152 C159 1.409 1_554 S
C153 H145 0.930 . S
C153 C151 1.419 . S
C153 C154 1.362 . S
C154 H146 0.930 . S
C154 C153 1.362 . S
C154 C157 1.409 1_554 S
C155 H147 0.930 . S
C155 C156 1.355 . S
C155 C157 1.415 . S
C156 C155 1.355 . S
C156 C158 1.419 . S
C157 C152 1.425 1_556 S
C157 C154 1.409 1_556 S
C157 C155 1.415 . S
C158 H148 0.930 . S
C158 C156 1.419 . S
C158 C159 1.362 . S
C159 H149 0.930 . S
C159 C152 1.409 1_556 S
C159 C158 1.362 . S
H160 C166 0.930 . S
H161 C169 0.930 . S
H162 C170 0.930 . S
H163 C171 0.930 . S
H164 C174 0.930 . S
H165 C175 0.930 . S
C166 H160 0.930 . S
C166 C167 1.355 . S
C166 C168 1.415 . S
C167 C166 1.355 . S
C167 C169 1.419 . S
C168 C166 1.415 . S
C168 C173 1.425 . S
C168 C175 1.409 . S
C169 H161 0.930 . S
C169 C167 1.419 . S
C169 C170 1.362 . S
C170 H162 0.930 . S
C170 C169 1.362 . S
C170 C173 1.409 . S
C171 H163 0.930 . S
C171 C172 1.355 . S
C171 C173 1.415 . S
C172 C171 1.355 . S
C172 C174 1.419 . S
C173 C168 1.425 . S
C173 C170 1.409 . S
C173 C171 1.415 . S
C174 H164 0.930 . S
C174 C172 1.419 . S
C174 C175 1.362 . S
C175 H165 0.930 . S
C175 C168 1.409 . S
C175 C174 1.362 . S
H176 C182 0.930 . S
H177 C185 0.930 . S
H178 C186 0.930 . S
H179 C187 0.930 . S
H180 C190 0.930 . S
H181 C191 0.930 . S
C182 H176 0.930 . S
C182 C183 1.355 . S
C182 C184 1.415 . S
C183 C182 1.355 . S
C183 C185 1.419 . S
C184 C182 1.415 . S
C184 C189 1.425 . S
C184 C191 1.409 . S
C185 H177 0.930 . S
C185 C183 1.419 . S
C185 C186 1.362 . S
C186 H178 0.930 . S
C186 C185 1.362 . S
C186 C189 1.409 . S
C187 H179 0.930 . S
C187 C188 1.355 . S
C187 C189 1.415 . S
C188 C187 1.355 . S
C188 C190 1.419 . S
C189 C184 1.425 . S
C189 C186 1.409 . S
C189 C187 1.415 . S
C190 H180 0.930 . S
C190 C188 1.419 . S
C190 C191 1.362 . S
C191 H181 0.930 . S
C191 C184 1.409 . S
C191 C190 1.362 . S
H192 C198 0.930 . S
H193 C201 0.930 . S
H194 C202 0.930 . S
H195 C203 0.930 . S
H196 C206 0.930 1_545 S
H197 C207 0.930 . S
C198 H192 0.930 . S
C198 C199 1.355 . S
C198 C200 1.415 . S
C199 C198 1.355 . S
C199 C201 1.419 . S
C200 C198 1.415 . S
C200 C205 1.425 . S
C200 C207 1.409 . S
C201 H193 0.930 . S
C201 C199 1.419 . S
C201 C202 1.362 . S
C202 H194 0.930 . S
C202 C201 1.362 . S
C202 C205 1.409 . S
C203 H195 0.930 . S
C203 C204 1.355 . S
C203 C205 1.415 1_545 S
C204 C203 1.355 . S
C204 C206 1.419 1_545 S
C205 C200 1.425 . S
C205 C202 1.409 . S
C205 C203 1.415 1_565 S
C206 H196 0.930 1_565 S
C206 C204 1.419 1_565 S
C206 C207 1.362 . S
C207 H197 0.930 . S
C207 C200 1.409 . S
C207 C206 1.362 . S
H208 C214 0.930 . S
H209 C217 0.930 . S
H210 C218 0.930 . S
H211 C219 0.930 . S
H212 C222 0.930 . S
H213 C223 0.930 . S
C214 H208 0.930 . S
C214 C215 1.355 . S
C214 C216 1.415 . S
C215 C214 1.355 . S
C215 C217 1.419 . S
C216 C214 1.415 . S
C216 C221 1.425 . S
C216 C223 1.409 . S
C217 H209 0.930 . S
C217 C215 1.419 . S
C217 C218 1.362 . S
C218 H210 0.930 . S
C218 C217 1.362 . S
C218 C221 1.409 . S
C219 H211 0.930 . S
C219 C220 1.355 . S
C219 C221 1.415 . S
C220 C219 1.355 . S
C220 C222 1.419 . S
C221 C216 1.425 . S
C221 C218 1.409 . S
C221 C219 1.415 . S
C222 H212 0.930 . S
C222 C220 1.419 . S
C222 C223 1.362 . S
C223 H213 0.930 . S
C223 C216 1.409 . S
C223 C222 1.362 . S
H224 C230 0.930 . S
H225 C233 0.930 . S
H226 C234 0.930 . S
H227 C235 0.930 . S
H228 C238 0.930 . S
H229 C239 0.930 . S
C230 H224 0.930 . S
C230 C231 1.355 . S
C230 C232 1.415 . S
C231 C230 1.355 . S
C231 C233 1.419 . S
C232 C230 1.415 . S
C232 C237 1.425 . S
C232 C239 1.410 1_545 S
C233 H225 0.930 . S
C233 C231 1.419 . S
C233 C234 1.362 . S
C234 H226 0.930 . S
C234 C233 1.362 . S
C234 C237 1.409 . S
C235 H227 0.930 . S
C235 C236 1.355 1_545 S
C235 C237 1.415 . S
C236 C235 1.355 1_565 S
C236 C238 1.419 . S
C237 C232 1.425 . S
C237 C234 1.409 . S
C237 C235 1.415 . S
C238 H228 0.930 . S
C238 C236 1.419 . S
C238 C239 1.362 . S
C239 H229 0.930 . S
C239 C232 1.410 1_565 S
C239 C238 1.362 . S
H240 C246 0.930 . S
H241 C249 0.930 . S
H242 C250 0.930 . S
H243 C251 0.930 . S
H244 C254 0.930 . S
H245 C255 0.930 . S
C246 H240 0.930 . S
C246 C247 1.355 . S
C246 C248 1.415 . S
C247 C246 1.355 . S
C247 C249 1.419 . S
C248 C246 1.415 . S
C248 C253 1.425 . S
C248 C255 1.409 1_655 S
C249 H241 0.930 . S
C249 C247 1.419 . S
C249 C250 1.362 . S
C250 H242 0.930 . S
C250 C249 1.362 . S
C250 C253 1.409 . S
C251 H243 0.930 . S
C251 C252 1.355 1_655 S
C251 C253 1.415 . S
C252 C251 1.355 1_455 S
C252 C254 1.419 . S
C253 C248 1.425 . S
C253 C250 1.409 . S
C253 C251 1.415 . S
C254 H244 0.930 . S
C254 C252 1.419 . S
C254 C255 1.362 . S
C255 H245 0.930 . S
C255 C248 1.409 1_455 S
C255 C254 1.362 . S
H256 C262 0.930 . S
H257 C265 0.930 . S
H258 C266 0.930 . S
H259 C267 0.930 . S
H260 C270 0.930 . S
H261 C271 0.930 . S
C262 H256 0.930 . S
C262 C263 1.355 . S
C262 C264 1.415 . S
C263 C262 1.355 . S
C263 C265 1.419 . S
C264 C262 1.415 . S
C264 C269 1.425 . S
C264 C271 1.409 . S
C265 H257 0.930 . S
C265 C263 1.419 . S
C265 C266 1.362 . S
C266 H258 0.930 . S
C266 C265 1.362 . S
C266 C269 1.409 . S
C267 H259 0.930 . S
C267 C268 1.355 . S
C267 C269 1.415 . S
C268 C267 1.355 . S
C268 C270 1.419 . S
C269 C264 1.425 . S
C269 C266 1.409 . S
C269 C267 1.415 . S
C270 H260 0.930 . S
C270 C268 1.419 . S
C270 C271 1.362 . S
C271 H261 0.930 . S
C271 C264 1.409 . S
C271 C270 1.362 . S
H272 C278 0.930 . S
H273 C281 0.930 . S
H274 C282 0.930 . S
H275 C283 0.930 . S
H276 C286 0.930 . S
H277 C287 0.930 . S
C278 H272 0.930 . S
C278 C279 1.355 . S
C278 C280 1.415 . S
C279 C278 1.355 . S
C279 C281 1.419 . S
C280 C278 1.415 . S
C280 C285 1.425 . S
C280 C287 1.409 . S
C281 H273 0.930 . S
C281 C279 1.419 . S
C281 C282 1.362 . S
C282 H274 0.930 . S
C282 C281 1.362 . S
C282 C285 1.409 . S
C283 H275 0.930 . S
C283 C284 1.355 . S
C283 C285 1.415 1_655 S
C284 C283 1.355 . S
C284 C286 1.419 1_655 S
C285 C280 1.425 . S
C285 C282 1.409 . S
C285 C283 1.415 1_455 S
C286 H276 0.930 . S
C286 C284 1.419 1_455 S
C286 C287 1.362 . S
C287 H277 0.930 . S
C287 C280 1.409 . S
C287 C286 1.362 . S
H288 C294 0.930 . S
H289 C297 0.930 . S
H290 C298 0.930 . S
H291 C299 0.930 . S
H292 C302 0.930 . S
H293 C303 0.930 . S
C294 H288 0.930 . S
C294 C295 1.355 . S
C294 C296 1.415 . S
C295 C294 1.355 . S
C295 C297 1.419 . S
C296 C294 1.415 . S
C296 C301 1.425 . S
C296 C303 1.409 . S
C297 H289 0.930 . S
C297 C295 1.419 . S
C297 C298 1.362 . S
C298 H290 0.930 . S
C298 C297 1.362 . S
C298 C301 1.409 . S
C299 H291 0.930 . S
C299 C300 1.355 . S
C299 C301 1.415 . S
C300 C299 1.355 . S
C300 C302 1.419 . S
C301 C296 1.425 . S
C301 C298 1.409 . S
C301 C299 1.415 . S
C302 H292 0.930 . S
C302 C300 1.419 . S
C302 C303 1.362 . S
C303 H293 0.930 . S
C303 C296 1.409 . S
C303 C302 1.362 . S
H304 C310 0.930 . S
H305 C313 0.930 . S
H306 C314 0.930 . S
H307 C315 0.930 . S
H308 C318 0.930 . S
H309 C319 0.930 . S
C310 H304 0.930 . S
C310 C311 1.355 . S
C310 C312 1.415 . S
C311 C310 1.355 . S
C311 C313 1.419 . S
C312 C310 1.415 . S
C312 C317 1.425 1_655 S
C312 C319 1.409 . S
C313 H305 0.930 . S
C313 C311 1.419 . S
C313 C314 1.362 1_655 S
C314 H306 0.930 . S
C314 C313 1.362 1_455 S
C314 C317 1.409 . S
C315 H307 0.930 . S
C315 C316 1.355 . S
C315 C317 1.415 . S
C316 C315 1.355 . S
C316 C318 1.419 . S
C317 C312 1.425 1_455 S
C317 C314 1.409 . S
C317 C315 1.415 . S
C318 H308 0.930 . S
C318 C316 1.419 . S
C318 C319 1.362 1_455 S
C319 H309 0.930 . S
C319 C312 1.409 . S
C319 C318 1.362 1_655 S
H320 C326 0.930 . S
H321 C329 0.930 . S
H322 C330 0.930 1_455 S
H323 C331 0.930 . S
H324 C334 0.930 . S
H325 C335 0.930 1_655 S
C326 H320 0.930 . S
C326 C327 1.355 . S
C326 C328 1.415 . S
C327 C326 1.355 . S
C327 C329 1.419 . S
C328 C326 1.415 . S
C328 C333 1.425 1_655 S
C328 C335 1.409 1_655 S
C329 H321 0.930 . S
C329 C327 1.419 . S
C329 C330 1.362 . S
C330 H322 0.930 1_655 S
C330 C329 1.362 . S
C330 C333 1.409 1_655 S
C331 H323 0.930 . S
C331 C332 1.355 . S
C331 C333 1.415 . S
C332 C331 1.355 . S
C332 C334 1.419 . S
C333 C328 1.425 1_455 S
C333 C330 1.409 1_455 S
C333 C331 1.415 . S
C334 H324 0.930 . S
C334 C332 1.419 . S
C334 C335 1.362 . S
C335 H325 0.930 1_455 S
C335 C328 1.409 1_455 S
C335 C334 1.362 . S
H336 C342 0.930 . S
H337 C345 0.930 . S
H338 C346 0.930 . S
H339 C347 0.930 . S
H340 C350 0.930 . S
H341 C351 0.930 . S
C342 H336 0.930 . S
C342 C343 1.355 . S
C342 C344 1.415 1_545 S
C343 C342 1.355 . S
C343 C345 1.419 . S
C344 C342 1.415 1_565 S
C344 C349 1.425 1_565 S
C344 C351 1.409 . S
C345 H337 0.930 . S
C345 C343 1.419 . S
C345 C346 1.362 . S
C346 H338 0.930 . S
C346 C345 1.362 . S
C346 C349 1.409 . S
C347 H339 0.930 . S
C347 C348 1.355 . S
C347 C349 1.415 1_565 S
C348 C347 1.355 . S
C348 C350 1.419 . S
C349 C344 1.425 1_545 S
C349 C346 1.409 . S
C349 C347 1.415 1_545 S
C350 H340 0.930 . S
C350 C348 1.419 . S
C350 C351 1.362 . S
C351 H341 0.930 . S
C351 C344 1.409 . S
C351 C350 1.362 . S
H352 C358 0.930 . S
H353 C361 0.930 . S
H354 C362 0.930 . S
H355 C363 0.930 . S
H356 C366 0.930 . S
H357 C367 0.930 . S
C358 H352 0.930 . S
C358 C359 1.355 . S
C358 C360 1.415 1_545 S
C359 C358 1.355 . S
C359 C361 1.419 . S
C360 C358 1.415 1_565 S
C360 C365 1.425 1_565 S
C360 C367 1.409 . S
C361 H353 0.930 . S
C361 C359 1.419 . S
C361 C362 1.362 . S
C362 H354 0.930 . S
C362 C361 1.362 . S
C362 C365 1.409 . S
C363 H355 0.930 . S
C363 C364 1.355 . S
C363 C365 1.415 1_565 S
C364 C363 1.355 . S
C364 C366 1.419 . S
C365 C360 1.425 1_545 S
C365 C362 1.409 . S
C365 C363 1.415 1_545 S
C366 H356 0.930 . S
C366 C364 1.419 . S
C366 C367 1.362 . S
C367 H357 0.930 . S
C367 C360 1.409 . S
C367 C366 1.362 . S
C119 C7 1.357 . S
C124 C77 1.336 . S
C135 C21 1.321 . S
C140 C91 1.289 . S
C151 C35 1.354 . S
C156 C105 1.345 . S
C167 C63 1.288 . S
C172 C49 1.315 . S
C183 C8 1.630 . S
C188 C59 1.591 . S
C199 C22 1.648 . S
C204 C73 1.625 . S
C215 C87 1.620 . S
C220 C36 1.635 . S
C231 C50 1.636 . S
C236 C101 1.622 . S
C247 C64 1.634 . S
C252 C3 1.619 . S
C263 C17 1.616 . S
C268 C78 1.644 . S
C279 C92 1.629 . S
C284 C31 1.589 . S
C295 C45 1.609 . S
C300 C106 1.641 . S
C311 C37 0.604 . S
C316 C9 0.609 . S
C327 C51 0.751 . S
C332 C23 0.770 . S
C343 C65 0.674 . S
C348 C93 0.699 . S
C359 C79 0.795 . S
C364 C107 0.784 . S
