# Generated by pormake.
# Topology uoz, (4)-cn, num edge types: 1
# Building blocks:
#     Node 0, Type 0, BuildingBlock: GALJAG_clean_sbu_0, # of connection points: 4
#     Node 1, Type 0, BuildingBlock: GALJAG_clean_sbu_0, # of connection points: 4
#     Node 2, Type 0, BuildingBlock: GALJAG_clean_sbu_0, # of connection points: 4
#     Node 3, Type 0, BuildingBlock: GALJAG_clean_sbu_0, # of connection points: 4
#     Node 4, Type 0, BuildingBlock: GALJAG_clean_sbu_0, # of connection points: 4
#     Node 5, Type 0, BuildingBlock: GALJAG_clean_sbu_0, # of connection points: 4
#     Node 6, Type 0, BuildingBlock: GALJAG_clean_sbu_0, # of connection points: 4
#     Node 7, Type 0, BuildingBlock: GALJAG_clean_sbu_0, # of connection points: 4
#     Node 8, Type 0, BuildingBlock: GALJAG_clean_sbu_0, # of connection points: 4
#     Node 9, Type 0, BuildingBlock: GALJAG_clean_sbu_0, # of connection points: 4
#     Node 10, Type 0, BuildingBlock: GALJAG_clean_sbu_0, # of connection points: 4
#     Node 11, Type 0, BuildingBlock: GALJAG_clean_sbu_0, # of connection points: 4
#     Node 12, Type 0, BuildingBlock: GALJAG_clean_sbu_0, # of connection points: 4
#     Node 13, Type 0, BuildingBlock: GALJAG_clean_sbu_0, # of connection points: 4
#     Node 14, Type 0, BuildingBlock: GALJAG_clean_sbu_0, # of connection points: 4
#     Node 15, Type 0, BuildingBlock: GALJAG_clean_sbu_0, # of connection points: 4
#     Edge 16, Type (0, 0), BuildingBlock: EYOCIG_clean_linker_4, # of connection points: 2
#     Edge 17, Type (0, 0), BuildingBlock: EYOCIG_clean_linker_4, # of connection points: 2
#     Edge 18, Type (0, 0), BuildingBlock: EYOCIG_clean_linker_4, # of connection points: 2
#     Edge 19, Type (0, 0), BuildingBlock: EYOCIG_clean_linker_4, # of connection points: 2
#     Edge 20, Type (0, 0), BuildingBlock: EYOCIG_clean_linker_4, # of connection points: 2
#     Edge 21, Type (0, 0), BuildingBlock: EYOCIG_clean_linker_4, # of connection points: 2
#     Edge 22, Type (0, 0), BuildingBlock: EYOCIG_clean_linker_4, # of connection points: 2
#     Edge 23, Type (0, 0), BuildingBlock: EYOCIG_clean_linker_4, # of connection points: 2
#     Edge 24, Type (0, 0), BuildingBlock: EYOCIG_clean_linker_4, # of connection points: 2
#     Edge 25, Type (0, 0), BuildingBlock: EYOCIG_clean_linker_4, # of connection points: 2
#     Edge 26, Type (0, 0), BuildingBlock: EYOCIG_clean_linker_4, # of connection points: 2
#     Edge 27, Type (0, 0), BuildingBlock: EYOCIG_clean_linker_4, # of connection points: 2
#     Edge 28, Type (0, 0), BuildingBlock: EYOCIG_clean_linker_4, # of connection points: 2
#     Edge 29, Type (0, 0), BuildingBlock: EYOCIG_clean_linker_4, # of connection points: 2
#     Edge 30, Type (0, 0), BuildingBlock: EYOCIG_clean_linker_4, # of connection points: 2
#     Edge 31, Type (0, 0), BuildingBlock: EYOCIG_clean_linker_4, # of connection points: 2
#     Edge 32, Type (0, 0), BuildingBlock: EYOCIG_clean_linker_4, # of connection points: 2
#     Edge 33, Type (0, 0), BuildingBlock: EYOCIG_clean_linker_4, # of connection points: 2
#     Edge 34, Type (0, 0), BuildingBlock: EYOCIG_clean_linker_4, # of connection points: 2
#     Edge 35, Type (0, 0), BuildingBlock: EYOCIG_clean_linker_4, # of connection points: 2
#     Edge 36, Type (0, 0), BuildingBlock: EYOCIG_clean_linker_4, # of connection points: 2
#     Edge 37, Type (0, 0), BuildingBlock: EYOCIG_clean_linker_4, # of connection points: 2
#     Edge 38, Type (0, 0), BuildingBlock: EYOCIG_clean_linker_4, # of connection points: 2
#     Edge 39, Type (0, 0), BuildingBlock: EYOCIG_clean_linker_4, # of connection points: 2
#     Edge 40, Type (0, 0), BuildingBlock: EYOCIG_clean_linker_4, # of connection points: 2
#     Edge 41, Type (0, 0), BuildingBlock: EYOCIG_clean_linker_4, # of connection points: 2
#     Edge 42, Type (0, 0), BuildingBlock: EYOCIG_clean_linker_4, # of connection points: 2
#     Edge 43, Type (0, 0), BuildingBlock: EYOCIG_clean_linker_4, # of connection points: 2
#     Edge 44, Type (0, 0), BuildingBlock: EYOCIG_clean_linker_4, # of connection points: 2
#     Edge 45, Type (0, 0), BuildingBlock: EYOCIG_clean_linker_4, # of connection points: 2
#     Edge 46, Type (0, 0), BuildingBlock: EYOCIG_clean_linker_4, # of connection points: 2
#     Edge 47, Type (0, 0), BuildingBlock: EYOCIG_clean_linker_4, # of connection points: 2
# Relax obj value: 0.135
# Max RMSD: 0.159
# Mean RMSD: 0.159
data_MOF--net-uoz--node1-GALJAG_clean_sbu_0--edge1-EYOCIG_clean_linker_4
_symmetry_space_group_name_H-M    P1
_symmetry_Int_Tables_number       1
_symmetry_cell_setting            triclinic
loop_
_symmetry_equiv_pos_as_xyz
'x, y, z'
_cell_length_a     50.948481
_cell_length_b     50.935712
_cell_length_c     15.157554
_cell_angle_alpha  90.005222
_cell_angle_beta   90.041342
_cell_angle_gamma 89.998592
loop_
_atom_site_label
_atom_site_type_symbol
_atom_site_fract_x
_atom_site_fract_y
_atom_site_fract_z
_atom_type_partial_charge
In0 In 0.99642 0.58734 0.26636 0.0
O1 O 0.98471 0.5624 0.15449 0.0
O2 O 0.02315 0.55713 0.21246 0.0
C3 C 0.95837 0.62275 0.24327 0.0
C4 C 0.9891 0.55131 0.40028 0.0
C5 C 0.03511 0.62018 0.21443 0.0
O6 O 0.96116 0.60301 0.19426 0.0
O7 O 0.97319 0.62361 0.31044 0.0
O8 O 0.03282 0.61225 0.29319 0.0
O9 O 0.01864 0.61092 0.16077 0.0
C10 C 0.00614 0.55011 0.15703 0.0
O11 O 0.00814 0.5673 0.39885 0.0
O12 O 0.97252 0.55512 0.3397 0.0
In13 In 0.65831 0.74647 0.5158 0.0
O14 O 0.68326 0.73469 0.40421 0.0
O15 O 0.68851 0.77318 0.46206 0.0
C16 C 0.6232 0.70793 0.49628 0.0
C17 C 0.69505 0.73947 0.6478 0.0
C18 C 0.62559 0.78484 0.45982 0.0
O19 O 0.64256 0.7109 0.44578 0.0
O20 O 0.6225 0.72298 0.56291 0.0
O21 O 0.63315 0.78298 0.53918 0.0
O22 O 0.63505 0.76804 0.40781 0.0
C23 C 0.69557 0.75613 0.40682 0.0
O24 O 0.67873 0.75827 0.64789 0.0
O25 O 0.69115 0.72296 0.58707 0.0
In26 In 0.49947 0.40853 0.76578 0.0
O27 O 0.51049 0.43413 0.65374 0.0
O28 O 0.47221 0.43841 0.71358 0.0
C29 C 0.53725 0.37261 0.74639 0.0
C30 C 0.50678 0.44453 0.89983 0.0
C31 C 0.46116 0.37541 0.71252 0.0
O32 O 0.53483 0.3921 0.6959 0.0
O33 O 0.52221 0.37233 0.81296 0.0
O34 O 0.46314 0.38342 0.79134 0.0
O35 O 0.47769 0.3848 0.6594 0.0
C36 C 0.48877 0.44596 0.65757 0.0
O37 O 0.48775 0.42853 0.89824 0.0
O38 O 0.52338 0.44075 0.83928 0.0
In39 In 0.83714 0.24953 0.0158 0.0
O40 O 0.81147 0.26047 0.90363 0.0
O41 O 0.80721 0.22229 0.96416 0.0
C42 C 0.8723 0.28793 0.99455 0.0
C43 C 0.80122 0.25682 0.15008 0.0
C44 C 0.86997 0.21067 0.96412 0.0
O45 O 0.85288 0.28486 0.94423 0.0
O46 O 0.87306 0.27305 0.06153 0.0
O47 O 0.86209 0.21313 0.04287 0.0
O48 O 0.86084 0.22721 0.91041 0.0
C49 C 0.79959 0.23879 0.90805 0.0
O50 O 0.81726 0.23783 0.14846 0.0
O51 O 0.80492 0.27342 0.08945 0.0
In52 In 0.99638 0.40839 0.80904 0.0
O53 O 0.00821 0.42873 0.67716 0.0
O54 O 0.97291 0.44128 0.7375 0.0
C55 C 0.03519 0.37573 0.86054 0.0
C56 C 0.00602 0.446 0.9166 0.0
C57 C 0.95786 0.37333 0.82936 0.0
O58 O 0.03277 0.38363 0.78181 0.0
O59 O 0.0187 0.38482 0.91436 0.0
O60 O 0.961 0.39264 0.87999 0.0
O61 O 0.97274 0.37263 0.76238 0.0
C62 C 0.98949 0.4451 0.67701 0.0
O63 O 0.98474 0.43345 0.92097 0.0
O64 O 0.02309 0.43855 0.86214 0.0
In65 In 0.8375 0.74643 0.05897 0.0
O66 O 0.81222 0.73457 0.17026 0.0
O67 O 0.80704 0.77293 0.11145 0.0
C68 C 0.87316 0.70837 0.07757 0.0
C69 C 0.80132 0.73922 0.92509 0.0
C70 C 0.86973 0.78532 0.11378 0.0
O71 O 0.85381 0.71095 0.12841 0.0
O72 O 0.87356 0.72354 0.01131 0.0
O73 O 0.86215 0.78315 0.03456 0.0
O74 O 0.86059 0.76849 0.16633 0.0
C75 C 0.79962 0.75583 0.1659 0.0
O76 O 0.81738 0.7582 0.92652 0.0
O77 O 0.8051 0.72263 0.98569 0.0
In78 In 0.4994 0.58731 0.3096 0.0
O79 O 0.51034 0.56148 0.42105 0.0
O80 O 0.47203 0.55754 0.36088 0.0
C81 C 0.53794 0.62232 0.3301 0.0
C82 C 0.5063 0.55082 0.1768 0.0
C83 C 0.46128 0.62052 0.36404 0.0
O84 O 0.53493 0.60286 0.38027 0.0
O85 O 0.52299 0.62311 0.26323 0.0
O86 O 0.46321 0.61282 0.28486 0.0
O87 O 0.47781 0.61088 0.41672 0.0
C88 C 0.48867 0.5496 0.41612 0.0
O89 O 0.48759 0.56723 0.17698 0.0
O90 O 0.52283 0.55454 0.23761 0.0
In91 In 0.65843 0.24948 0.55951 0.0
O92 O 0.6786 0.23777 0.42694 0.0
O93 O 0.69113 0.27305 0.48772 0.0
C94 C 0.6257 0.21111 0.615 0.0
C95 C 0.69604 0.23873 0.66639 0.0
C96 C 0.62276 0.28738 0.58074 0.0
O97 O 0.63323 0.21303 0.53564 0.0
O98 O 0.63524 0.22782 0.66728 0.0
O99 O 0.64253 0.28494 0.62996 0.0
O100 O 0.6221 0.27239 0.51398 0.0
C101 C 0.69497 0.25652 0.42701 0.0
O102 O 0.68425 0.26047 0.6709 0.0
O103 O 0.68817 0.22211 0.61099 0.0
In104 In 0.33739 0.24662 0.55863 0.0
O105 O 0.31776 0.25898 0.42595 0.0
O106 O 0.30457 0.22368 0.48482 0.0
C107 C 0.37045 0.28474 0.61354 0.0
C108 C 0.3 0.25601 0.66736 0.0
C109 C 0.3726 0.20832 0.58058 0.0
O110 O 0.36272 0.28287 0.53441 0.0
O111 O 0.36078 0.26823 0.66613 0.0
O112 O 0.35283 0.211 0.6294 0.0
O113 O 0.3735 0.22327 0.51379 0.0
C114 C 0.30119 0.24043 0.4245 0.0
O115 O 0.31228 0.23456 0.66949 0.0
O116 O 0.3072 0.27325 0.61303 0.0
In117 In 0.15822 0.74946 0.0593 0.0
O118 O 0.17839 0.73772 0.92672 0.0
O119 O 0.19103 0.77296 0.98744 0.0
C120 C 0.12547 0.71114 0.11501 0.0
C121 C 0.19605 0.73973 0.1659 0.0
C122 C 0.12317 0.78797 0.07848 0.0
O123 O 0.13306 0.71299 0.03571 0.0
O124 O 0.13495 0.72791 0.16714 0.0
O125 O 0.14253 0.78504 0.12912 0.0
O126 O 0.12246 0.77289 0.01195 0.0
C127 C 0.19474 0.75649 0.92648 0.0
O128 O 0.1836 0.76108 0.17053 0.0
O129 O 0.18844 0.72268 0.11152 0.0
In130 In 0.15819 0.24662 0.01538 0.0
O131 O 0.1778 0.25897 0.14818 0.0
O132 O 0.19106 0.22373 0.08908 0.0
C133 C 0.12573 0.28504 0.95943 0.0
C134 C 0.19595 0.25587 0.90829 0.0
C135 C 0.12312 0.20821 0.99379 0.0
O136 O 0.13312 0.28306 0.03888 0.0
O137 O 0.13523 0.26833 0.90725 0.0
O138 O 0.14285 0.21097 0.94484 0.0
O139 O 0.12213 0.22324 0.06039 0.0
C140 C 0.19441 0.24046 0.14949 0.0
O141 O 0.18346 0.23454 0.90481 0.0
O142 O 0.18851 0.27314 0.96211 0.0
In143 In 0.33728 0.74952 0.51634 0.0
O144 O 0.31689 0.73787 0.64831 0.0
O145 O 0.3049 0.7735 0.58871 0.0
C146 C 0.3704 0.71112 0.46343 0.0
C147 C 0.30009 0.73961 0.40678 0.0
C148 C 0.37266 0.7878 0.49677 0.0
O149 O 0.36237 0.71313 0.54217 0.0
O150 O 0.36107 0.72767 0.41025 0.0
O151 O 0.35335 0.7849 0.44589 0.0
O152 O 0.37316 0.77284 0.56357 0.0
C153 C 0.30094 0.75696 0.64929 0.0
O154 O 0.31234 0.76108 0.40408 0.0
O155 O 0.30712 0.72269 0.46252 0.0
In156 In 0.49631 0.08755 0.76516 0.0
O157 O 0.50832 0.06732 0.89707 0.0
O158 O 0.47309 0.05449 0.83675 0.0
C159 C 0.53506 0.12028 0.71353 0.0
C160 C 0.50607 0.04982 0.65792 0.0
C161 C 0.45817 0.12317 0.74683 0.0
O162 O 0.53275 0.11227 0.79217 0.0
O163 O 0.51853 0.11119 0.65972 0.0
O164 O 0.46084 0.10391 0.69558 0.0
O165 O 0.47321 0.12342 0.81347 0.0
C166 C 0.48973 0.05078 0.89721 0.0
O167 O 0.48467 0.06219 0.65343 0.0
O168 O 0.52312 0.05754 0.71208 0.0
In169 In -0.00057 0.90862 0.26557 0.0
O170 O 0.98749 0.92821 0.39848 0.0
O171 O 0.02299 0.94094 0.33987 0.0
C172 C 0.96056 0.87601 0.21288 0.0
C173 C 0.98879 0.94627 0.1582 0.0
C174 C 0.03786 0.8735 0.2441 0.0
O175 O 0.96301 0.88371 0.29184 0.0
O176 O 0.97716 0.88514 0.15951 0.0
O177 O 0.03483 0.893 0.19415 0.0
O178 O 0.02295 0.87264 0.31093 0.0
C179 C 0.00634 0.94442 0.40042 0.0
O180 O 0.01048 0.93441 0.15386 0.0
O181 O 0.97225 0.93858 0.21398 0.0
In182 In 0.49633 0.90855 0.3081 0.0
O183 O 0.50829 0.92835 0.17555 0.0
O184 O 0.4727 0.94083 0.234 0.0
C185 C 0.53505 0.87568 0.36002 0.0
C186 C 0.50631 0.94579 0.41755 0.0
C187 C 0.45798 0.87339 0.33092 0.0
O188 O 0.53268 0.88358 0.28127 0.0
O189 O 0.51859 0.8849 0.41367 0.0
O190 O 0.461 0.89303 0.3802 0.0
O191 O 0.47279 0.87246 0.26379 0.0
C192 C 0.48937 0.94445 0.17362 0.0
O193 O 0.48476 0.93369 0.41995 0.0
O194 O 0.52318 0.93869 0.36191 0.0
In195 In -0.00056 0.08741 0.80945 0.0
O196 O 0.01059 0.06163 0.92098 0.0
O197 O 0.97223 0.0576 0.86116 0.0
C198 C 0.03772 0.12291 0.82735 0.0
C199 C 0.00593 0.0508 0.67696 0.0
C200 C 0.96092 0.12001 0.86506 0.0
O201 O 0.03507 0.1036 0.87843 0.0
O202 O 0.02254 0.12329 0.76105 0.0
O203 O 0.96294 0.1125 0.78571 0.0
O204 O 0.97773 0.11063 0.91731 0.0
C205 C 0.98886 0.04981 0.91663 0.0
O206 O 0.98736 0.06737 0.67722 0.0
O207 O 0.02258 0.05443 0.73748 0.0
C208 C 0.08935 0.67619 0.15907 0.0
C209 C 0.10586 0.69246 0.1422 0.0
C210 C 0.07003 0.65671 0.17412 0.0
C211 C 0.05382 0.64003 0.18959 0.0
C212 C 0.5702 0.83933 0.4003 0.0
C213 C 0.55388 0.85593 0.38488 0.0
C214 C 0.58956 0.81987 0.41536 0.0
C215 C 0.60602 0.80356 0.43238 0.0
C216 C 0.4267 0.33849 0.67128 0.0
C217 C 0.44272 0.35535 0.68708 0.0
C218 C 0.4073 0.31907 0.65629 0.0
C219 C 0.39046 0.30309 0.63999 0.0
C220 C 0.90601 0.17514 0.92386 0.0
C221 C 0.88956 0.19162 0.9393 0.0
C222 C 0.92548 0.15575 0.90892 0.0
C223 C 0.94198 0.13942 0.89219 0.0
C224 C 0.07055 0.33964 0.90048 0.0
C225 C 0.05414 0.35612 0.88521 0.0
C226 C 0.08991 0.32021 0.91528 0.0
C227 C 0.10629 0.30383 0.93208 0.0
C228 C 0.92473 0.8404 0.17167 0.0
C229 C 0.94136 0.85666 0.1874 0.0
C230 C 0.90529 0.821 0.1568 0.0
C231 C 0.88905 0.80441 0.14036 0.0
C232 C 0.40725 0.67654 0.4223 0.0
C233 C 0.39043 0.6926 0.43813 0.0
C234 C 0.42669 0.65716 0.40709 0.0
C235 C 0.44278 0.64042 0.39054 0.0
C236 C 0.58962 0.17609 0.65904 0.0
C237 C 0.60611 0.19239 0.64219 0.0
C238 C 0.57024 0.15665 0.67392 0.0
C239 C 0.55391 0.14005 0.68905 0.0
C240 C 0.92604 0.33672 0.88879 0.0
C241 C 0.94094 0.35213 0.85498 0.0
C242 C 0.90896 0.31968 0.93493 0.0
C243 C 0.89351 0.30481 0.96869 0.0
C244 C 0.42693 0.16059 0.68927 0.0
C245 C 0.44161 0.1448 0.72229 0.0
C246 C 0.40979 0.17763 0.64325 0.0
C247 C 0.39409 0.19204 0.60846 0.0
C248 C 0.56953 0.65904 0.39047 0.0
C249 C 0.55473 0.64358 0.35631 0.0
C250 C 0.58653 0.67612 0.43688 0.0
C251 C 0.60195 0.69103 0.47072 0.0
C252 C 0.0865 0.81977 0.13749 0.0
C253 C 0.10192 0.80486 0.10381 0.0
C254 C 0.06949 0.83684 0.18376 0.0
C255 C 0.05467 0.85228 0.21782 0.0
C256 C 0.92747 0.6598 0.18099 0.0
C257 C 0.94197 0.64415 0.21562 0.0
C258 C 0.91042 0.67695 0.13512 0.0
C259 C 0.8947 0.69172 0.10219 0.0
C260 C 0.06914 0.16015 0.88502 0.0
C261 C 0.05437 0.14446 0.8519 0.0
C262 C 0.08621 0.17719 0.9313 0.0
C263 C 0.10176 0.19175 0.96614 0.0
C264 C 0.58522 0.31784 0.64234 0.0
C265 C 0.60108 0.30351 0.60798 0.0
C266 C 0.56807 0.33493 0.68808 0.0
C267 C 0.55356 0.35086 0.72121 0.0
C268 C 0.40958 0.81951 0.4386 0.0
C269 C 0.39402 0.80464 0.47182 0.0
C270 C 0.42663 0.83663 0.3926 0.0
C271 C 0.44131 0.85215 0.35818 0.0
C272 C 0.01143 0.51022 0.05665 0.0
C273 C 0.01005 0.52837 0.10413 0.0
C274 C 0.01097 0.48847 0.00465 0.0
C275 C 0.00932 0.46906 0.96331 0.0
C276 C 0.7573 0.76093 0.25478 0.0
C277 C 0.77664 0.75919 0.21309 0.0
C278 C 0.73555 0.76143 0.30685 0.0
C279 C 0.71736 0.76003 0.35411 0.0
C280 C 0.48128 0.508 0.50752 0.0
C281 C 0.48407 0.52703 0.46467 0.0
C282 C 0.4811 0.48608 0.55913 0.0
C283 C 0.48386 0.46776 0.60541 0.0
C284 C 0.759 0.23102 0.81194 0.0
C285 C 0.77755 0.23392 0.85704 0.0
C286 C 0.73707 0.23104 0.76039 0.0
C287 C 0.71831 0.23393 0.71629 0.0
C288 C 0.23796 0.26057 0.8179 0.0
C289 C 0.21878 0.25913 0.8604 0.0
C290 C 0.25964 0.2609 0.76568 0.0
C291 C 0.27801 0.25966 0.71923 0.0
C292 C 0.26033 0.73394 0.30578 0.0
C293 C 0.27842 0.73551 0.35353 0.0
C294 C 0.23856 0.73443 0.25374 0.0
C295 C 0.21913 0.73626 0.21253 0.0
C296 C 0.51234 0.98528 0.51951 0.0
C297 C 0.5106 0.96731 0.47133 0.0
C298 C 0.51174 0.00712 0.57127 0.0
C299 C 0.50964 0.02666 0.61179 0.0
C300 C 0.98107 0.00894 0.01131 0.0
C301 C 0.98403 0.02763 0.96694 0.0
C302 C 0.98103 0.98701 0.0628 0.0
C303 C 0.98395 0.96838 0.10754 0.0
C304 C 0.98727 0.48718 0.56883 0.0
C305 C 0.98835 0.46802 0.61789 0.0
C306 C 0.98697 0.5099 0.51134 0.0
C307 C 0.9878 0.52869 0.46061 0.0
C308 C 0.75983 0.73713 0.81401 0.0
C309 C 0.77865 0.73796 0.86471 0.0
C310 C 0.73713 0.73729 0.75627 0.0
C311 C 0.71801 0.73823 0.70687 0.0
C312 C 0.50851 0.50875 0.06835 0.0
C313 C 0.50742 0.5279 0.1175 0.0
C314 C 0.50883 0.48599 0.0109 0.0
C315 C 0.50803 0.46718 0.96018 0.0
C316 C 0.75979 0.2587 0.26114 0.0
C317 C 0.77858 0.25798 0.21042 0.0
C318 C 0.73709 0.2585 0.31881 0.0
C319 C 0.71795 0.25764 0.36805 0.0
C320 C 0.25928 0.23907 0.31528 0.0
C321 C 0.27838 0.23982 0.36473 0.0
C322 C 0.23634 0.23909 0.25866 0.0
C323 C 0.21723 0.23984 0.20925 0.0
C324 C 0.25933 0.75927 0.7596 0.0
C325 C 0.27819 0.75838 0.70918 0.0
C326 C 0.2366 0.75897 0.81719 0.0
C327 C 0.21755 0.75778 0.86676 0.0
C328 C 0.4876 0.98584 0.06238 0.0
C329 C 0.48831 0.96705 0.11312 0.0
C330 C 0.48789 0.0086 0.00508 0.0
C331 C 0.48884 0.02782 0.95623 0.0
C332 C 0.00763 0.0086 0.56904 0.0
C333 C 0.00675 0.02783 0.61792 0.0
C334 C 0.00792 0.98582 0.51174 0.0
C335 C 0.00728 0.96702 0.461 0.0
loop_
_geom_bond_atom_site_label_1
_geom_bond_atom_site_label_2
_geom_bond_distance
_geom_bond_site_symmetry_2
_ccdc_geom_bond_type
In0 O1 2.294 1_455 S
In0 O2 2.326 . S
In0 O6 2.266 1_455 S
In0 O7 2.326 1_455 S
In0 O8 2.266 . S
In0 O9 2.326 . S
In0 O11 2.294 . S
In0 O12 2.326 1_455 S
O1 In0 2.294 1_655 S
O1 C10 1.240 1_655 S
O2 In0 2.326 . S
O2 C10 1.252 . S
C3 O6 1.252 . S
C3 O7 1.260 . S
C4 O11 1.240 1_655 S
C4 O12 1.252 . S
C5 O8 1.252 . S
C5 O9 1.260 . S
O6 In0 2.266 1_655 S
O6 C3 1.252 . S
O7 In0 2.326 1_655 S
O7 C3 1.260 . S
O8 In0 2.266 . S
O8 C5 1.252 . S
O9 In0 2.326 . S
O9 C5 1.260 . S
C10 O1 1.240 1_455 S
C10 O2 1.252 . S
O11 In0 2.294 . S
O11 C4 1.240 1_455 S
O12 In0 2.326 1_655 S
O12 C4 1.252 . S
In13 O14 2.294 . S
In13 O15 2.326 . S
In13 O19 2.266 . S
In13 O20 2.326 . S
In13 O21 2.266 . S
In13 O22 2.326 . S
In13 O24 2.294 . S
In13 O25 2.326 . S
O14 In13 2.294 . S
O14 C23 1.240 . S
O15 In13 2.326 . S
O15 C23 1.252 . S
C16 O19 1.252 . S
C16 O20 1.260 . S
C17 O24 1.240 . S
C17 O25 1.252 . S
C18 O21 1.252 . S
C18 O22 1.260 . S
O19 In13 2.266 . S
O19 C16 1.252 . S
O20 In13 2.326 . S
O20 C16 1.260 . S
O21 In13 2.266 . S
O21 C18 1.252 . S
O22 In13 2.326 . S
O22 C18 1.260 . S
C23 O14 1.240 . S
C23 O15 1.252 . S
O24 In13 2.294 . S
O24 C17 1.240 . S
O25 In13 2.326 . S
O25 C17 1.252 . S
In26 O27 2.294 . S
In26 O28 2.326 . S
In26 O32 2.266 . S
In26 O33 2.326 . S
In26 O34 2.266 . S
In26 O35 2.326 . S
In26 O37 2.294 . S
In26 O38 2.326 . S
O27 In26 2.294 . S
O27 C36 1.240 . S
O28 In26 2.326 . S
O28 C36 1.252 . S
C29 O32 1.252 . S
C29 O33 1.260 . S
C30 O37 1.240 . S
C30 O38 1.252 . S
C31 O34 1.252 . S
C31 O35 1.260 . S
O32 In26 2.266 . S
O32 C29 1.252 . S
O33 In26 2.326 . S
O33 C29 1.260 . S
O34 In26 2.266 . S
O34 C31 1.252 . S
O35 In26 2.326 . S
O35 C31 1.260 . S
C36 O27 1.240 . S
C36 O28 1.252 . S
O37 In26 2.294 . S
O37 C30 1.240 . S
O38 In26 2.326 . S
O38 C30 1.252 . S
In39 O40 2.293 1_554 S
In39 O41 2.326 1_554 S
In39 O45 2.266 1_554 S
In39 O46 2.326 . S
In39 O47 2.266 . S
In39 O48 2.325 1_554 S
In39 O50 2.295 . S
In39 O51 2.327 . S
O40 In39 2.293 1_556 S
O40 C49 1.240 . S
O41 In39 2.326 1_556 S
O41 C49 1.252 . S
C42 O45 1.252 1_554 S
C42 O46 1.260 . S
C43 O50 1.240 . S
C43 O51 1.252 . S
C44 O47 1.252 1_556 S
C44 O48 1.260 . S
O45 In39 2.266 1_556 S
O45 C42 1.252 1_556 S
O46 In39 2.326 . S
O46 C42 1.260 . S
O47 In39 2.266 . S
O47 C44 1.252 1_554 S
O48 In39 2.325 1_556 S
O48 C44 1.260 . S
C49 O40 1.240 . S
C49 O41 1.252 . S
O50 In39 2.295 . S
O50 C43 1.240 . S
O51 In39 2.327 . S
O51 C43 1.252 . S
In52 O53 2.294 . S
In52 O54 2.326 1_455 S
In52 O58 2.266 . S
In52 O59 2.326 . S
In52 O60 2.266 1_455 S
In52 O61 2.326 1_455 S
In52 O63 2.294 1_455 S
In52 O64 2.326 . S
O53 In52 2.294 . S
O53 C62 1.240 1_455 S
O54 In52 2.326 1_655 S
O54 C62 1.252 . S
C55 O58 1.252 . S
C55 O59 1.260 . S
C56 O63 1.240 1_455 S
C56 O64 1.252 . S
C57 O60 1.252 . S
C57 O61 1.260 . S
O58 In52 2.266 . S
O58 C55 1.252 . S
O59 In52 2.326 . S
O59 C55 1.260 . S
O60 In52 2.266 1_655 S
O60 C57 1.252 . S
O61 In52 2.326 1_655 S
O61 C57 1.260 . S
C62 O53 1.240 1_655 S
C62 O54 1.252 . S
O63 In52 2.294 1_655 S
O63 C56 1.240 1_655 S
O64 In52 2.326 . S
O64 C56 1.252 . S
In65 O66 2.294 . S
In65 O67 2.326 . S
In65 O71 2.266 . S
In65 O72 2.326 . S
In65 O73 2.266 . S
In65 O74 2.326 . S
In65 O76 2.294 1_554 S
In65 O77 2.326 . S
O66 In65 2.294 . S
O66 C75 1.240 . S
O67 In65 2.326 . S
O67 C75 1.252 . S
C68 O71 1.252 . S
C68 O72 1.260 . S
C69 O76 1.240 . S
C69 O77 1.252 1_556 S
C70 O73 1.252 . S
C70 O74 1.260 . S
O71 In65 2.266 . S
O71 C68 1.252 . S
O72 In65 2.326 . S
O72 C68 1.260 . S
O73 In65 2.266 . S
O73 C70 1.252 . S
O74 In65 2.326 . S
O74 C70 1.260 . S
C75 O66 1.240 . S
C75 O67 1.252 . S
O76 In65 2.294 1_556 S
O76 C69 1.240 . S
O77 In65 2.326 . S
O77 C69 1.252 1_554 S
In78 O79 2.294 . S
In78 O80 2.326 . S
In78 O84 2.266 . S
In78 O85 2.326 . S
In78 O86 2.266 . S
In78 O87 2.326 . S
In78 O89 2.294 . S
In78 O90 2.326 . S
O79 In78 2.294 . S
O79 C88 1.240 . S
O80 In78 2.326 . S
O80 C88 1.252 . S
C81 O84 1.252 . S
C81 O85 1.260 . S
C82 O89 1.240 . S
C82 O90 1.252 . S
C83 O86 1.252 . S
C83 O87 1.260 . S
O84 In78 2.266 . S
O84 C81 1.252 . S
O85 In78 2.326 . S
O85 C81 1.260 . S
O86 In78 2.266 . S
O86 C83 1.252 . S
O87 In78 2.326 . S
O87 C83 1.260 . S
C88 O79 1.240 . S
C88 O80 1.252 . S
O89 In78 2.294 . S
O89 C82 1.240 . S
O90 In78 2.326 . S
O90 C82 1.252 . S
In91 O92 2.294 . S
In91 O93 2.326 . S
In91 O97 2.266 . S
In91 O98 2.326 . S
In91 O99 2.266 . S
In91 O100 2.326 . S
In91 O102 2.294 . S
In91 O103 2.326 . S
O92 In91 2.294 . S
O92 C101 1.240 . S
O93 In91 2.326 . S
O93 C101 1.252 . S
C94 O97 1.252 . S
C94 O98 1.260 . S
C95 O102 1.240 . S
C95 O103 1.252 . S
C96 O99 1.252 . S
C96 O100 1.260 . S
O97 In91 2.266 . S
O97 C94 1.252 . S
O98 In91 2.326 . S
O98 C94 1.260 . S
O99 In91 2.266 . S
O99 C96 1.252 . S
O100 In91 2.326 . S
O100 C96 1.260 . S
C101 O92 1.240 . S
C101 O93 1.252 . S
O102 In91 2.294 . S
O102 C95 1.240 . S
O103 In91 2.326 . S
O103 C95 1.252 . S
In104 O105 2.294 . S
In104 O106 2.326 . S
In104 O110 2.266 . S
In104 O111 2.326 . S
In104 O112 2.266 . S
In104 O113 2.326 . S
In104 O115 2.294 . S
In104 O116 2.326 . S
O105 In104 2.294 . S
O105 C114 1.240 . S
O106 In104 2.326 . S
O106 C114 1.252 . S
C107 O110 1.252 . S
C107 O111 1.260 . S
C108 O115 1.240 . S
C108 O116 1.252 . S
C109 O112 1.252 . S
C109 O113 1.260 . S
O110 In104 2.266 . S
O110 C107 1.252 . S
O111 In104 2.326 . S
O111 C107 1.260 . S
O112 In104 2.266 . S
O112 C109 1.252 . S
O113 In104 2.326 . S
O113 C109 1.260 . S
C114 O105 1.240 . S
C114 O106 1.252 . S
O115 In104 2.294 . S
O115 C108 1.240 . S
O116 In104 2.326 . S
O116 C108 1.252 . S
In117 O118 2.294 1_554 S
In117 O119 2.326 . S
In117 O123 2.266 . S
In117 O124 2.326 . S
In117 O125 2.266 . S
In117 O126 2.326 . S
In117 O128 2.294 . S
In117 O129 2.326 . S
O118 In117 2.294 1_556 S
O118 C127 1.240 . S
O119 In117 2.326 . S
O119 C127 1.252 1_554 S
C120 O123 1.252 . S
C120 O124 1.260 . S
C121 O128 1.240 . S
C121 O129 1.252 . S
C122 O125 1.252 . S
C122 O126 1.260 . S
O123 In117 2.266 . S
O123 C120 1.252 . S
O124 In117 2.326 . S
O124 C120 1.260 . S
O125 In117 2.266 . S
O125 C122 1.252 . S
O126 In117 2.326 . S
O126 C122 1.260 . S
C127 O118 1.240 . S
C127 O119 1.252 1_556 S
O128 In117 2.294 . S
O128 C121 1.240 . S
O129 In117 2.326 . S
O129 C121 1.252 . S
In130 O131 2.295 . S
In130 O132 2.327 . S
In130 O136 2.266 . S
In130 O137 2.325 1_554 S
In130 O138 2.266 1_554 S
In130 O139 2.326 . S
In130 O141 2.293 1_554 S
In130 O142 2.326 1_554 S
O131 In130 2.295 . S
O131 C140 1.240 . S
O132 In130 2.327 . S
O132 C140 1.252 . S
C133 O136 1.252 1_556 S
C133 O137 1.260 . S
C134 O141 1.240 . S
C134 O142 1.252 . S
C135 O138 1.252 1_554 S
C135 O139 1.260 . S
O136 In130 2.266 . S
O136 C133 1.252 1_554 S
O137 In130 2.325 1_556 S
O137 C133 1.260 . S
O138 In130 2.266 1_556 S
O138 C135 1.252 1_556 S
O139 In130 2.326 . S
O139 C135 1.260 . S
C140 O131 1.240 . S
C140 O132 1.252 . S
O141 In130 2.293 1_556 S
O141 C134 1.240 . S
O142 In130 2.326 1_556 S
O142 C134 1.252 . S
In143 O144 2.294 . S
In143 O145 2.326 . S
In143 O149 2.266 . S
In143 O150 2.326 . S
In143 O151 2.266 . S
In143 O152 2.326 . S
In143 O154 2.294 . S
In143 O155 2.326 . S
O144 In143 2.294 . S
O144 C153 1.240 . S
O145 In143 2.326 . S
O145 C153 1.252 . S
C146 O149 1.252 . S
C146 O150 1.260 . S
C147 O154 1.240 . S
C147 O155 1.252 . S
C148 O151 1.252 . S
C148 O152 1.260 . S
O149 In143 2.266 . S
O149 C146 1.252 . S
O150 In143 2.326 . S
O150 C146 1.260 . S
O151 In143 2.266 . S
O151 C148 1.252 . S
O152 In143 2.326 . S
O152 C148 1.260 . S
C153 O144 1.240 . S
C153 O145 1.252 . S
O154 In143 2.294 . S
O154 C147 1.240 . S
O155 In143 2.326 . S
O155 C147 1.252 . S
In156 O157 2.294 . S
In156 O158 2.326 . S
In156 O162 2.266 . S
In156 O163 2.326 . S
In156 O164 2.266 . S
In156 O165 2.326 . S
In156 O167 2.294 . S
In156 O168 2.326 . S
O157 In156 2.294 . S
O157 C166 1.240 . S
O158 In156 2.326 . S
O158 C166 1.252 . S
C159 O162 1.252 . S
C159 O163 1.260 . S
C160 O167 1.240 . S
C160 O168 1.252 . S
C161 O164 1.252 . S
C161 O165 1.260 . S
O162 In156 2.266 . S
O162 C159 1.252 . S
O163 In156 2.326 . S
O163 C159 1.260 . S
O164 In156 2.266 . S
O164 C161 1.252 . S
O165 In156 2.326 . S
O165 C161 1.260 . S
C166 O157 1.240 . S
C166 O158 1.252 . S
O167 In156 2.294 . S
O167 C160 1.240 . S
O168 In156 2.326 . S
O168 C160 1.252 . S
In169 O170 2.294 1_455 S
In169 O171 2.326 . S
In169 O175 2.266 1_455 S
In169 O176 2.326 1_455 S
In169 O177 2.266 . S
In169 O178 2.326 . S
In169 O180 2.294 . S
In169 O181 2.326 1_455 S
O170 In169 2.294 1_655 S
O170 C179 1.240 1_655 S
O171 In169 2.326 . S
O171 C179 1.252 . S
C172 O175 1.252 . S
C172 O176 1.260 . S
C173 O180 1.240 1_655 S
C173 O181 1.252 . S
C174 O177 1.252 . S
C174 O178 1.260 . S
O175 In169 2.266 1_655 S
O175 C172 1.252 . S
O176 In169 2.326 1_655 S
O176 C172 1.260 . S
O177 In169 2.266 . S
O177 C174 1.252 . S
O178 In169 2.326 . S
O178 C174 1.260 . S
C179 O170 1.240 1_455 S
C179 O171 1.252 . S
O180 In169 2.294 . S
O180 C173 1.240 1_455 S
O181 In169 2.326 1_655 S
O181 C173 1.252 . S
In182 O183 2.294 . S
In182 O184 2.326 . S
In182 O188 2.266 . S
In182 O189 2.326 . S
In182 O190 2.266 . S
In182 O191 2.326 . S
In182 O193 2.294 . S
In182 O194 2.326 . S
O183 In182 2.294 . S
O183 C192 1.240 . S
O184 In182 2.326 . S
O184 C192 1.252 . S
C185 O188 1.252 . S
C185 O189 1.260 . S
C186 O193 1.240 . S
C186 O194 1.252 . S
C187 O190 1.252 . S
C187 O191 1.260 . S
O188 In182 2.266 . S
O188 C185 1.252 . S
O189 In182 2.326 . S
O189 C185 1.260 . S
O190 In182 2.266 . S
O190 C187 1.252 . S
O191 In182 2.326 . S
O191 C187 1.260 . S
C192 O183 1.240 . S
C192 O184 1.252 . S
O193 In182 2.294 . S
O193 C186 1.240 . S
O194 In182 2.326 . S
O194 C186 1.252 . S
In195 O196 2.294 . S
In195 O197 2.326 1_455 S
In195 O201 2.266 . S
In195 O202 2.326 . S
In195 O203 2.266 1_455 S
In195 O204 2.326 1_455 S
In195 O206 2.294 1_455 S
In195 O207 2.326 . S
O196 In195 2.294 . S
O196 C205 1.240 1_455 S
O197 In195 2.326 1_655 S
O197 C205 1.252 . S
C198 O201 1.252 . S
C198 O202 1.260 . S
C199 O206 1.240 1_455 S
C199 O207 1.252 . S
C200 O203 1.252 . S
C200 O204 1.260 . S
O201 In195 2.266 . S
O201 C198 1.252 . S
O202 In195 2.326 . S
O202 C198 1.260 . S
O203 In195 2.266 1_655 S
O203 C200 1.252 . S
O204 In195 2.326 1_655 S
O204 C200 1.260 . S
C205 O196 1.240 1_655 S
C205 O197 1.252 . S
O206 In195 2.294 1_655 S
O206 C199 1.240 1_655 S
O207 In195 2.326 . S
O207 C199 1.252 . S
C208 C209 1.170 . S
C208 C210 1.380 . S
C209 C208 1.170 . S
C210 C208 1.380 . S
C210 C211 1.170 . S
C211 C210 1.170 . S
C212 C213 1.170 . S
C212 C214 1.380 . S
C213 C212 1.170 . S
C214 C212 1.380 . S
C214 C215 1.170 . S
C215 C214 1.170 . S
C216 C217 1.170 . S
C216 C218 1.380 . S
C217 C216 1.170 . S
C218 C216 1.380 . S
C218 C219 1.170 . S
C219 C218 1.170 . S
C220 C221 1.170 . S
C220 C222 1.380 . S
C221 C220 1.170 . S
C222 C220 1.380 . S
C222 C223 1.170 . S
C223 C222 1.170 . S
C224 C225 1.170 . S
C224 C226 1.380 . S
C225 C224 1.170 . S
C226 C224 1.380 . S
C226 C227 1.170 . S
C227 C226 1.170 . S
C228 C229 1.170 . S
C228 C230 1.380 . S
C229 C228 1.170 . S
C230 C228 1.380 . S
C230 C231 1.170 . S
C231 C230 1.170 . S
C232 C233 1.170 . S
C232 C234 1.380 . S
C233 C232 1.170 . S
C234 C232 1.380 . S
C234 C235 1.170 . S
C235 C234 1.170 . S
C236 C237 1.170 . S
C236 C238 1.380 . S
C237 C236 1.170 . S
C238 C236 1.380 . S
C238 C239 1.170 . S
C239 C238 1.170 . S
C240 C241 1.170 . S
C240 C242 1.380 . S
C241 C240 1.170 . S
C242 C240 1.380 . S
C242 C243 1.170 . S
C243 C242 1.170 . S
C244 C245 1.170 . S
C244 C246 1.380 . S
C245 C244 1.170 . S
C246 C244 1.380 . S
C246 C247 1.170 . S
C247 C246 1.170 . S
C248 C249 1.170 . S
C248 C250 1.380 . S
C249 C248 1.170 . S
C250 C248 1.380 . S
C250 C251 1.170 . S
C251 C250 1.170 . S
C252 C253 1.170 . S
C252 C254 1.380 . S
C253 C252 1.170 . S
C254 C252 1.380 . S
C254 C255 1.170 . S
C255 C254 1.170 . S
C256 C257 1.170 . S
C256 C258 1.380 . S
C257 C256 1.170 . S
C258 C256 1.380 . S
C258 C259 1.170 . S
C259 C258 1.170 . S
C260 C261 1.170 . S
C260 C262 1.380 . S
C261 C260 1.170 . S
C262 C260 1.380 . S
C262 C263 1.170 . S
C263 C262 1.170 . S
C264 C265 1.170 . S
C264 C266 1.380 . S
C265 C264 1.170 . S
C266 C264 1.380 . S
C266 C267 1.170 . S
C267 C266 1.170 . S
C268 C269 1.170 . S
C268 C270 1.380 . S
C269 C268 1.170 . S
C270 C268 1.380 . S
C270 C271 1.170 . S
C271 C270 1.170 . S
C272 C273 1.170 . S
C272 C274 1.380 . S
C273 C272 1.170 . S
C274 C272 1.380 . S
C274 C275 1.170 1_554 S
C275 C274 1.170 1_556 S
C276 C277 1.170 . S
C276 C278 1.380 . S
C277 C276 1.170 . S
C278 C276 1.380 . S
C278 C279 1.170 . S
C279 C278 1.170 . S
C280 C281 1.170 . S
C280 C282 1.380 . S
C281 C280 1.170 . S
C282 C280 1.380 . S
C282 C283 1.170 . S
C283 C282 1.170 . S
C284 C285 1.170 . S
C284 C286 1.380 . S
C285 C284 1.170 . S
C286 C284 1.380 . S
C286 C287 1.170 . S
C287 C286 1.170 . S
C288 C289 1.170 . S
C288 C290 1.380 . S
C289 C288 1.170 . S
C290 C288 1.380 . S
C290 C291 1.170 . S
C291 C290 1.170 . S
C292 C293 1.170 . S
C292 C294 1.380 . S
C293 C292 1.170 . S
C294 C292 1.380 . S
C294 C295 1.170 . S
C295 C294 1.170 . S
C296 C297 1.170 . S
C296 C298 1.380 1_565 S
C297 C296 1.170 . S
C298 C296 1.380 1_545 S
C298 C299 1.170 . S
C299 C298 1.170 . S
C300 C301 1.170 1_554 S
C300 C302 1.380 1_545 S
C301 C300 1.170 1_556 S
C302 C300 1.380 1_565 S
C302 C303 1.170 . S
C303 C302 1.170 . S
C304 C305 1.170 . S
C304 C306 1.380 . S
C305 C304 1.170 . S
C306 C304 1.380 . S
C306 C307 1.170 . S
C307 C306 1.170 . S
C308 C309 1.170 . S
C308 C310 1.380 . S
C309 C308 1.170 . S
C310 C308 1.380 . S
C310 C311 1.170 . S
C311 C310 1.170 . S
C312 C313 1.170 . S
C312 C314 1.380 . S
C313 C312 1.170 . S
C314 C312 1.380 . S
C314 C315 1.170 1_554 S
C315 C314 1.170 1_556 S
C316 C317 1.170 . S
C316 C318 1.380 . S
C317 C316 1.170 . S
C318 C316 1.380 . S
C318 C319 1.170 . S
C319 C318 1.170 . S
C320 C321 1.170 . S
C320 C322 1.380 . S
C321 C320 1.170 . S
C322 C320 1.380 . S
C322 C323 1.170 . S
C323 C322 1.170 . S
C324 C325 1.170 . S
C324 C326 1.380 . S
C325 C324 1.170 . S
C326 C324 1.380 . S
C326 C327 1.170 . S
C327 C326 1.170 . S
C328 C329 1.170 . S
C328 C330 1.380 1_565 S
C329 C328 1.170 . S
C330 C328 1.380 1_545 S
C330 C331 1.170 1_554 S
C331 C330 1.170 1_556 S
C332 C333 1.170 . S
C332 C334 1.380 1_545 S
C333 C332 1.170 . S
C334 C332 1.380 1_565 S
C334 C335 1.170 . S
C335 C334 1.170 . S
C209 C120 1.497 . S
C211 C5 1.489 . S
C213 C185 1.492 . S
C215 C18 1.498 . S
C217 C31 1.493 . S
C219 C107 1.494 . S
C221 C44 1.493 . S
C223 C200 1.502 . S
C225 C55 1.493 . S
C227 C133 1.495 . S
C229 C172 1.495 . S
C231 C70 1.501 . S
C233 C146 1.492 . S
C235 C83 1.495 . S
C237 C94 1.498 . S
C239 C159 1.492 . S
C241 C57 1.659 . S
C243 C42 1.661 1_556 S
C245 C161 1.668 . S
C247 C109 1.637 . S
C249 C81 1.653 . S
C251 C16 1.663 . S
C253 C122 1.664 . S
C255 C174 1.649 . S
C257 C3 1.637 . S
C259 C68 1.673 . S
C261 C198 1.670 . S
C263 C135 1.636 1_556 S
C265 C96 1.638 . S
C267 C29 1.662 . S
C269 C148 1.669 . S
C271 C187 1.644 . S
C273 C10 0.911 . S
C275 C56 0.905 . S
C277 C75 0.905 . S
C279 C23 0.911 . S
C281 C88 0.921 . S
C283 C36 0.924 . S
C285 C49 0.924 . S
C287 C95 0.924 . S
C289 C134 0.904 . S
C291 C108 0.908 . S
C293 C147 0.913 . S
C295 C121 0.907 . S
C297 C186 0.916 . S
C299 C160 0.908 . S
C301 C205 0.924 . S
C303 C173 0.924 . S
C305 C62 1.741 . S
C307 C4 1.760 . S
C309 C69 1.760 . S
C311 C17 1.741 . S
C313 C82 1.742 . S
C315 C30 1.760 . S
C317 C43 1.761 . S
C319 C101 1.740 . S
C321 C114 1.748 . S
C323 C140 1.746 . S
C325 C153 1.755 . S
C327 C127 1.748 . S
C329 C192 1.761 . S
C331 C166 1.738 . S
C333 C199 1.737 . S
C335 C179 1.761 . S
