# Generated by pormake.
# Topology ske, (6)-cn, num edge types: 1
# Building blocks:
#     Node 0, Type 0, BuildingBlock: VOLQOD_clean_sbu_1, # of connection points: 6
#     Node 1, Type 0, BuildingBlock: VOLQOD_clean_sbu_1, # of connection points: 6
#     Node 2, Type 0, BuildingBlock: VOLQOD_clean_sbu_1, # of connection points: 6
#     Node 3, Type 0, BuildingBlock: VOLQOD_clean_sbu_1, # of connection points: 6
#     Node 4, Type 0, BuildingBlock: VOLQOD_clean_sbu_1, # of connection points: 6
#     Node 5, Type 0, BuildingBlock: VOLQOD_clean_sbu_1, # of connection points: 6
#     Node 6, Type 0, BuildingBlock: VOLQOD_clean_sbu_1, # of connection points: 6
#     Node 7, Type 0, BuildingBlock: VOLQOD_clean_sbu_1, # of connection points: 6
#     Edge 8, Type (0, 0), BuildingBlock: XIVTED_clean_linker_0, # of connection points: 2
#     Edge 9, Type (0, 0), BuildingBlock: XIVTED_clean_linker_0, # of connection points: 2
#     Edge 10, Type (0, 0), BuildingBlock: XIVTED_clean_linker_0, # of connection points: 2
#     Edge 11, Type (0, 0), BuildingBlock: XIVTED_clean_linker_0, # of connection points: 2
#     Edge 12, Type (0, 0), BuildingBlock: XIVTED_clean_linker_0, # of connection points: 2
#     Edge 13, Type (0, 0), BuildingBlock: XIVTED_clean_linker_0, # of connection points: 2
#     Edge 14, Type (0, 0), BuildingBlock: XIVTED_clean_linker_0, # of connection points: 2
#     Edge 15, Type (0, 0), BuildingBlock: XIVTED_clean_linker_0, # of connection points: 2
#     Edge 16, Type (0, 0), BuildingBlock: XIVTED_clean_linker_0, # of connection points: 2
#     Edge 17, Type (0, 0), BuildingBlock: XIVTED_clean_linker_0, # of connection points: 2
#     Edge 18, Type (0, 0), BuildingBlock: XIVTED_clean_linker_0, # of connection points: 2
#     Edge 19, Type (0, 0), BuildingBlock: XIVTED_clean_linker_0, # of connection points: 2
#     Edge 20, Type (0, 0), BuildingBlock: XIVTED_clean_linker_0, # of connection points: 2
#     Edge 21, Type (0, 0), BuildingBlock: XIVTED_clean_linker_0, # of connection points: 2
#     Edge 22, Type (0, 0), BuildingBlock: XIVTED_clean_linker_0, # of connection points: 2
#     Edge 23, Type (0, 0), BuildingBlock: XIVTED_clean_linker_0, # of connection points: 2
#     Edge 24, Type (0, 0), BuildingBlock: XIVTED_clean_linker_0, # of connection points: 2
#     Edge 25, Type (0, 0), BuildingBlock: XIVTED_clean_linker_0, # of connection points: 2
#     Edge 26, Type (0, 0), BuildingBlock: XIVTED_clean_linker_0, # of connection points: 2
#     Edge 27, Type (0, 0), BuildingBlock: XIVTED_clean_linker_0, # of connection points: 2
#     Edge 28, Type (0, 0), BuildingBlock: XIVTED_clean_linker_0, # of connection points: 2
#     Edge 29, Type (0, 0), BuildingBlock: XIVTED_clean_linker_0, # of connection points: 2
#     Edge 30, Type (0, 0), BuildingBlock: XIVTED_clean_linker_0, # of connection points: 2
#     Edge 31, Type (0, 0), BuildingBlock: XIVTED_clean_linker_0, # of connection points: 2
# Relax obj value: 0.030
# Max RMSD: 0.058
# Mean RMSD: 0.058
data_MOF--net-ske--node1-VOLQOD_clean_sbu_1--edge1-XIVTED_clean_linker_0
_symmetry_space_group_name_H-M    P1
_symmetry_Int_Tables_number       1
_symmetry_cell_setting            triclinic
loop_
_symmetry_equiv_pos_as_xyz
'x, y, z'
_cell_length_a     67.241286
_cell_length_b     33.72441
_cell_length_c     17.340069
_cell_angle_alpha  89.869411
_cell_angle_beta   90.137281
_cell_angle_gamma 89.872362
loop_
_atom_site_label
_atom_site_type_symbol
_atom_site_fract_x
_atom_site_fract_y
_atom_site_fract_z
_atom_type_partial_charge
O0 O 0.10388 0.27841 0.76254 0.0
Zn1 Zn 0.09806 0.28545 0.64836 0.0
O2 O 0.11271 0.24599 0.58857 0.0
Zn3 Zn 0.13311 0.27042 0.52507 0.0
Zn4 Zn 0.12488 0.20876 0.65887 0.0
Zn5 Zn 0.09483 0.21717 0.52279 0.0
O6 O 0.12983 0.25633 0.41236 0.0
O7 O 0.09948 0.2302 0.41178 0.0
O8 O 0.10522 0.34093 0.61287 0.0
O9 O 0.12895 0.32894 0.52669 0.0
O10 O 0.16092 0.25891 0.56669 0.0
O11 O 0.15377 0.22037 0.66698 0.0
O12 O 0.12198 0.15212 0.62335 0.0
O13 O 0.06823 0.27759 0.63477 0.0
O14 O 0.09915 0.15909 0.53171 0.0
O15 O 0.06674 0.22772 0.55126 0.0
C16 C 0.10841 0.247 0.79989 0.0
C17 C 0.11467 0.24327 0.37621 0.0
C18 C 0.16625 0.23964 0.62675 0.0
C19 C 0.11768 0.3529 0.56265 0.0
C20 C 0.1106 0.13742 0.57218 0.0
C21 C 0.05829 0.25253 0.59554 0.0
O22 O 0.11423 0.21566 0.76574 0.0
O23 O 0.86559 0.19911 0.75306 0.0
Zn24 Zn 0.87174 0.1929 0.63962 0.0
O25 O 0.85592 0.2301 0.57972 0.0
Zn26 Zn 0.83494 0.20343 0.52258 0.0
Zn27 Zn 0.84489 0.27029 0.64674 0.0
Zn28 Zn 0.87291 0.25525 0.50587 0.0
O29 O 0.83673 0.21567 0.40727 0.0
O30 O 0.86851 0.23342 0.40022 0.0
O31 O 0.86623 0.13703 0.60376 0.0
O32 O 0.83921 0.1447 0.53067 0.0
O33 O 0.80778 0.21659 0.56691 0.0
O34 O 0.81534 0.26639 0.64543 0.0
O35 O 0.85178 0.32585 0.61139 0.0
O36 O 0.90104 0.20417 0.62746 0.0
O37 O 0.86676 0.31288 0.50018 0.0
O38 O 0.90154 0.2504 0.53609 0.0
C39 C 0.85868 0.22832 0.79133 0.0
C40 C 0.85237 0.22278 0.36793 0.0
C41 C 0.80265 0.24346 0.61456 0.0
C42 C 0.85241 0.1227 0.56178 0.0
C43 C 0.85926 0.33734 0.54766 0.0
C44 C 0.91048 0.2286 0.58513 0.0
O45 O 0.85196 0.25931 0.75787 0.0
O46 O 0.11123 0.7168 0.21324 0.0
Zn47 Zn 0.1051 0.70771 0.3256 0.0
O48 O 0.11926 0.7463 0.38842 0.0
Zn49 Zn 0.13934 0.72059 0.45165 0.0
Zn50 Zn 0.13193 0.78578 0.32406 0.0
Zn51 Zn 0.1007 0.77167 0.45652 0.0
O52 O 0.13752 0.73822 0.56311 0.0
O53 O 0.10559 0.7555 0.56607 0.0
O54 O 0.11187 0.65188 0.35983 0.0
O55 O 0.1337 0.66252 0.45419 0.0
O56 O 0.16695 0.72844 0.407 0.0
O57 O 0.16126 0.77834 0.32601 0.0
O58 O 0.126 0.84153 0.35977 0.0
O59 O 0.07535 0.71441 0.33631 0.0
O60 O 0.10393 0.83017 0.4524 0.0
O61 O 0.07265 0.76057 0.42677 0.0
C62 C 0.11794 0.74694 0.17719 0.0
C63 C 0.12177 0.74678 0.6005 0.0
C64 C 0.17308 0.75388 0.35808 0.0
C65 C 0.12293 0.63921 0.41448 0.0
C66 C 0.11434 0.85388 0.41234 0.0
C67 C 0.0648 0.73713 0.37825 0.0
O68 O 0.12471 0.77714 0.21269 0.0
O69 O 0.87083 0.76528 0.20118 0.0
Zn70 Zn 0.87699 0.77073 0.31523 0.0
O71 O 0.86212 0.73167 0.37407 0.0
Zn72 Zn 0.84156 0.75698 0.43587 0.0
Zn73 Zn 0.85056 0.69403 0.30304 0.0
Zn74 Zn 0.8798 0.70317 0.44141 0.0
O75 O 0.8451 0.74468 0.54997 0.0
O76 O 0.87548 0.71839 0.55087 0.0
O77 O 0.87061 0.82603 0.35214 0.0
O78 O 0.84464 0.81593 0.42885 0.0
O79 O 0.81406 0.7435 0.39525 0.0
O80 O 0.82141 0.70447 0.29599 0.0
O81 O 0.85434 0.6371 0.33773 0.0
O82 O 0.90652 0.76151 0.3281 0.0
O83 O 0.87417 0.64552 0.43868 0.0
O84 O 0.90815 0.71154 0.41179 0.0
C85 C 0.86626 0.7344 0.16269 0.0
C86 C 0.86038 0.73192 0.58625 0.0
C87 C 0.80882 0.7236 0.33611 0.0
C88 C 0.85696 0.8391 0.39627 0.0
C89 C 0.86398 0.62318 0.39507 0.0
C90 C 0.91653 0.73623 0.3669 0.0
O91 O 0.86078 0.70249 0.19582 0.0
O92 O 0.60601 0.78186 0.27517 0.0
Zn93 Zn 0.60088 0.78907 0.16088 0.0
O94 O 0.61574 0.74969 0.10253 0.0
Zn95 Zn 0.63677 0.77269 0.04043 0.0
Zn96 Zn 0.62661 0.71034 0.17179 0.0
Zn97 Zn 0.59816 0.7245 0.03131 0.0
O98 O 0.63424 0.75804 0.92739 0.0
O99 O 0.60192 0.74484 0.92408 0.0
O100 O 0.60883 0.84393 0.12556 0.0
O101 O 0.63322 0.83155 0.04207 0.0
O102 O 0.66406 0.75889 0.08328 0.0
O103 O 0.65603 0.71626 0.17595 0.0
O104 O 0.6205 0.65458 0.13637 0.0
O105 O 0.57114 0.78194 0.14534 0.0
O106 O 0.60365 0.66669 0.02843 0.0
O107 O 0.57001 0.73179 0.06252 0.0
C108 C 0.61188 0.75173 0.3137 0.0
C109 C 0.61814 0.75276 0.8898 0.0
C110 C 0.66895 0.73612 0.13905 0.0
C111 C 0.62179 0.85568 0.07704 0.0
C112 C 0.61202 0.64265 0.07484 0.0
C113 C 0.56138 0.75643 0.10661 0.0
O114 O 0.61824 0.72049 0.28064 0.0
O115 O 0.36727 0.70478 0.24434 0.0
Zn116 Zn 0.37452 0.69905 0.13152 0.0
O117 O 0.35945 0.73667 0.0698 0.0
Zn118 Zn 0.33872 0.70954 0.01192 0.0
Zn119 Zn 0.34845 0.77644 0.13757 0.0
Zn120 Zn 0.37682 0.76318 -0.00102 0.0
O121 O 0.34126 0.72103 0.89664 0.0
O122 O 0.37207 0.74501 0.89159 0.0
O123 O 0.36953 0.64312 0.09499 0.0
O124 O 0.34283 0.65095 0.02051 0.0
O125 O 0.31144 0.72252 0.0559 0.0
O126 O 0.31912 0.76973 0.14034 0.0
O127 O 0.35352 0.83241 0.10115 0.0
O128 O 0.40387 0.71058 0.12253 0.0
O129 O 0.37107 0.82097 -0.00453 0.0
O130 O 0.40529 0.75649 0.03045 0.0
C131 C 0.36241 0.7359 0.28157 0.0
C132 C 0.35647 0.73218 0.8583 0.0
C133 C 0.3064 0.74765 0.10725 0.0
C134 C 0.35588 0.62886 0.0522 0.0
C135 C 0.36208 0.8447 0.04024 0.0
C136 C 0.41374 0.73456 0.08064 0.0
O137 O 0.35743 0.76783 0.247 0.0
O138 O 0.60991 0.21626 0.72797 0.0
Zn139 Zn 0.60297 0.20921 0.84054 0.0
O140 O 0.61653 0.24886 0.90261 0.0
Zn141 Zn 0.63709 0.22424 0.96514 0.0
Zn142 Zn 0.62776 0.28843 0.83471 0.0
Zn143 Zn 0.59809 0.27474 0.97026 0.0
O144 O 0.63459 0.23962 0.07773 0.0
O145 O 0.60306 0.25985 0.0799 0.0
O146 O 0.60993 0.15384 0.87669 0.0
O147 O 0.63294 0.16581 0.96594 0.0
O148 O 0.66433 0.23504 0.91952 0.0
O149 O 0.65721 0.28152 0.83234 0.0
O150 O 0.62193 0.34429 0.86917 0.0
O151 O 0.57317 0.21651 0.84965 0.0
O152 O 0.6019 0.3331 0.96822 0.0
O153 O 0.57009 0.2635 0.93872 0.0
C154 C 0.61429 0.24774 0.69086 0.0
C155 C 0.61901 0.24988 0.11464 0.0
C156 C 0.66967 0.25916 0.8667 0.0
C157 C 0.62196 0.14187 0.92873 0.0
C158 C 0.61157 0.35679 0.92547 0.0
C159 C 0.56246 0.23966 0.89022 0.0
O160 O 0.61891 0.27974 0.72542 0.0
O161 O 0.36912 0.2713 0.68899 0.0
Zn162 Zn 0.37517 0.2767 0.8032 0.0
O163 O 0.35976 0.23827 0.86169 0.0
Zn164 Zn 0.3393 0.26429 0.92296 0.0
Zn165 Zn 0.34794 0.20074 0.7908 0.0
Zn166 Zn 0.37707 0.20955 0.92989 0.0
O167 O 0.34245 0.25204 0.0374 0.0
O168 O 0.37264 0.22492 0.03904 0.0
O169 O 0.3692 0.33225 0.83993 0.0
O170 O 0.34298 0.323 0.91579 0.0
O171 O 0.31175 0.25192 0.88154 0.0
O172 O 0.3188 0.21191 0.78347 0.0
O173 O 0.35147 0.14362 0.82561 0.0
O174 O 0.40467 0.26663 0.81733 0.0
O175 O 0.37105 0.15223 0.92729 0.0
O176 O 0.40556 0.21695 0.90175 0.0
C177 C 0.3641 0.24069 0.65048 0.0
C178 C 0.35758 0.23885 0.07406 0.0
C179 C 0.30636 0.23183 0.82284 0.0
C180 C 0.35557 0.34574 0.88365 0.0
C181 C 0.36091 0.12985 0.88361 0.0
C182 C 0.41432 0.24119 0.85706 0.0
O183 O 0.35819 0.20908 0.68357 0.0
H184 H 0.20014 0.25268 0.54184 0.0
H185 H 0.27296 0.25131 0.90553 0.0
H186 H 0.1797 0.22904 0.77321 0.0
H187 H 0.29244 0.21727 0.67797 0.0
H188 H 0.2387 0.25523 0.85682 0.0
H189 H 0.23458 0.25203 0.59001 0.0
C190 C 0.20289 0.24755 0.60263 0.0
C191 C 0.1871 0.24057 0.65349 0.0
C192 C 0.25053 0.24686 0.8178 0.0
C193 C 0.22615 0.24037 0.70878 0.0
C194 C 0.27003 0.24466 0.84548 0.0
C195 C 0.28551 0.23361 0.79591 0.0
C196 C 0.24662 0.23879 0.73976 0.0
C197 C 0.28091 0.22544 0.71844 0.0
C198 C 0.22248 0.24703 0.62996 0.0
C199 C 0.19146 0.23409 0.73182 0.0
N200 N 0.26189 0.22843 0.69261 0.0
N201 N 0.21056 0.23433 0.75713 0.0
H202 H 0.6901 0.32023 0.80195 0.0
H203 H 0.77545 0.18357 0.62904 0.0
H204 H 0.69548 0.19637 0.86147 0.0
H205 H 0.78323 0.3091 0.66562 0.0
H206 H 0.74317 0.18746 0.69474 0.0
H207 H 0.72213 0.31658 0.73583 0.0
C208 C 0.69817 0.29239 0.8019 0.0
C209 C 0.69023 0.25859 0.83754 0.0
C210 C 0.75194 0.21411 0.68778 0.0
C211 C 0.7265 0.25395 0.76015 0.0
C212 C 0.77018 0.21203 0.6495 0.0
C213 C 0.78196 0.24609 0.64196 0.0
C214 C 0.74538 0.25062 0.71722 0.0
C215 C 0.7746 0.28214 0.67047 0.0
C216 C 0.71638 0.2903 0.76398 0.0
C217 C 0.70122 0.2232 0.83545 0.0
N218 N 0.75676 0.28349 0.70673 0.0
N219 N 0.71874 0.22164 0.79645 0.0
H220 H 0.28692 0.81231 0.16124 0.0
H221 H 0.19825 0.68997 0.34902 0.0
H222 H 0.27954 0.68702 0.12092 0.0
H223 H 0.19457 0.81541 0.30121 0.0
H224 H 0.23056 0.68796 0.28309 0.0
H225 H 0.25484 0.81374 0.2267 0.0
C226 C 0.27838 0.78519 0.16534 0.0
C227 C 0.28578 0.74954 0.13536 0.0
C228 C 0.22267 0.71589 0.28759 0.0
C229 C 0.24936 0.75074 0.21202 0.0
C230 C 0.20442 0.71716 0.32601 0.0
C231 C 0.1938 0.75293 0.33055 0.0
C232 C 0.23038 0.75074 0.25487 0.0
C233 C 0.20229 0.78721 0.2988 0.0
C234 C 0.26012 0.786 0.20291 0.0
C235 C 0.27419 0.71519 0.14251 0.0
N236 N 0.22008 0.78528 0.26241 0.0
N237 N 0.25659 0.71651 0.18105 0.0
H238 H 0.70302 0.75155 0.05708 0.0
H239 H 0.77517 0.73927 0.42027 0.0
H240 H 0.68215 0.71705 0.28272 0.0
H241 H 0.79518 0.71144 0.19022 0.0
H242 H 0.74088 0.74263 0.37146 0.0
H243 H 0.73736 0.74846 0.10577 0.0
C244 C 0.70566 0.74339 0.11669 0.0
C245 C 0.68978 0.73427 0.16579 0.0
C246 C 0.75284 0.73569 0.33197 0.0
C247 C 0.72871 0.73142 0.22181 0.0
C248 C 0.77234 0.73385 0.35968 0.0
C249 C 0.78798 0.72479 0.30933 0.0
C250 C 0.7491 0.72936 0.25321 0.0
C251 C 0.78353 0.71809 0.23121 0.0
C252 C 0.72519 0.74152 0.1443 0.0
C253 C 0.69399 0.72389 0.24266 0.0
N254 N 0.76451 0.72082 0.20539 0.0
N255 N 0.71305 0.72303 0.26848 0.0
H256 H 0.08237 0.89474 0.46511 0.0
H257 H 0.14233 0.08684 0.58447 0.0
H258 H 0.14414 0.9088 0.40404 0.0
H259 H 0.08034 0.09157 0.51994 0.0
H260 H 0.14348 0.01727 0.54243 0.0
H261 H 0.08151 0.96385 0.50743 0.0
C262 C 0.09571 0.91254 0.46022 0.0
C263 C 0.11333 0.89632 0.4308 0.0
C264 C 0.12966 0.03367 0.53791 0.0
C265 C 0.11255 0.97468 0.48073 0.0
C266 C 0.12893 0.07304 0.56253 0.0
C267 C 0.11121 0.09474 0.5555 0.0
C268 C 0.11244 0.01598 0.50793 0.0
C269 C 0.0943 0.07579 0.52595 0.0
C270 C 0.0952 0.95182 0.48434 0.0
C271 C 0.13023 0.92048 0.42572 0.0
N272 N 0.0953 0.03736 0.50357 0.0
N273 N 0.1295 0.95852 0.45137 0.0
H274 H 0.85532 0.40163 0.64305 0.0
H275 H 0.85281 0.561 0.30241 0.0
H276 H 0.86228 0.36929 0.40378 0.0
H277 H 0.87174 0.58901 0.53411 0.0
H278 H 0.85061 0.49086 0.33984 0.0
H279 H 0.85555 0.47171 0.60505 0.0
C280 C 0.85682 0.40927 0.58263 0.0
C281 C 0.85894 0.37971 0.52657 0.0
C282 C 0.85526 0.51252 0.38222 0.0
C283 C 0.85899 0.45936 0.48284 0.0
C284 C 0.85647 0.55242 0.36098 0.0
C285 C 0.86261 0.58075 0.41505 0.0
C286 C 0.85983 0.50121 0.45827 0.0
C287 C 0.86715 0.56809 0.49031 0.0
C288 C 0.85701 0.44915 0.56105 0.0
C289 C 0.86082 0.39119 0.44899 0.0
N290 N 0.86558 0.52928 0.50979 0.0
N291 N 0.86073 0.43015 0.42934 0.0
H292 H 0.88706 0.89349 0.38891 0.0
H293 H 0.82093 0.07719 0.51717 0.0
H294 H 0.82504 0.88134 0.44807 0.0
H295 H 0.88407 0.07163 0.56163 0.0
H296 H 0.82185 0.0081 0.47445 0.0
H297 H 0.88591 0.9626 0.43228 0.0
C298 C 0.87316 0.9055 0.41012 0.0
C299 C 0.85612 0.88171 0.41504 0.0
C300 C 0.83546 0.02199 0.49407 0.0
C301 C 0.85475 0.96036 0.46456 0.0
C302 C 0.83495 0.06132 0.51843 0.0
C303 C 0.85245 0.08006 0.54316 0.0
C304 C 0.85364 0.00155 0.49288 0.0
C305 C 0.87022 0.05817 0.5436 0.0
C306 C 0.87258 0.94473 0.43549 0.0
C307 C 0.83854 0.89864 0.44364 0.0
N308 N 0.87041 0.02011 0.51799 0.0
N309 N 0.83828 0.93701 0.46707 0.0
H310 H 0.12999 0.60738 0.55622 0.0
H311 H 0.12812 0.38398 0.42396 0.0
H312 H 0.1143 0.57527 0.32306 0.0
H313 H 0.10869 0.4177 0.65171 0.0
H314 H 0.12899 0.45395 0.38704 0.0
H315 H 0.12811 0.53747 0.59353 0.0
C316 C 0.1263 0.58556 0.51275 0.0
C317 C 0.12236 0.59699 0.4363 0.0
C318 C 0.12451 0.44595 0.445 0.0
C319 C 0.12035 0.51732 0.47865 0.0
C320 C 0.12415 0.40616 0.46636 0.0
C321 C 0.11839 0.39516 0.54115 0.0
C322 C 0.11953 0.47496 0.49929 0.0
C323 C 0.11318 0.42503 0.59349 0.0
C324 C 0.12508 0.54583 0.5343 0.0
C325 C 0.11741 0.56762 0.38255 0.0
N326 N 0.11407 0.46376 0.57178 0.0
N327 N 0.11674 0.52895 0.4046 0.0
H328 H 0.61718 0.57875 0.171 0.0
H329 H 0.62099 0.41993 0.83268 0.0
H330 H 0.60777 0.61038 0.93219 0.0
H331 H 0.60249 0.38999 0.06391 0.0
H332 H 0.62155 0.49009 0.86963 0.0
H333 H 0.6173 0.50856 0.13401 0.0
C334 C 0.61519 0.57092 0.11092 0.0
C335 C 0.61234 0.60028 0.05463 0.0
C336 C 0.61733 0.46803 0.91199 0.0
C337 C 0.61271 0.52065 0.01211 0.0
C338 C 0.61705 0.42813 0.89105 0.0
C339 C 0.61158 0.39924 0.94518 0.0
C340 C 0.6125 0.47883 -0.01214 0.0
C341 C 0.60661 0.41138 0.02015 0.0
C342 C 0.61519 0.531 0.08995 0.0
C343 C 0.60982 0.58862 0.97753 0.0
N344 N 0.60732 0.45028 0.03945 0.0
N345 N 0.61017 0.54967 0.95843 0.0
H346 H 0.35384 0.90844 0.13278 0.0
H347 H 0.35246 0.0665 0.78946 0.0
H348 H 0.3672 0.87676 0.89732 0.0
H349 H 0.3661 0.0972 0.02532 0.0
H350 H 0.35147 -0.00377 0.82758 0.0
H351 H 0.35196 0.97821 0.09339 0.0
C352 C 0.35634 0.91616 0.07291 0.0
C353 C 0.36087 0.8869 0.0184 0.0
C354 C 0.35464 0.01853 0.87072 0.0
C355 C 0.35845 0.96616 0.97298 0.0
C356 C 0.35514 0.05846 0.84911 0.0
C357 C 0.35956 0.08753 0.90416 0.0
C358 C 0.35817 0.00797 0.94802 0.0
C359 C 0.36289 0.07565 0.9808 0.0
C360 C 0.35529 0.95586 0.05053 0.0
C361 C 0.36391 0.89847 0.94142 0.0
N362 N 0.36207 0.0368 0.00051 0.0
N363 N 0.36258 0.93723 0.92089 0.0
H364 H 0.32369 0.38916 0.93138 0.0
H365 H 0.38724 0.57694 0.05564 0.0
H366 H 0.3864 0.39863 0.88203 0.0
H367 H 0.32447 0.58415 0.00459 0.0
H368 H 0.38724 0.50786 0.01155 0.0
H369 H 0.32371 0.45798 0.97533 0.0
C370 C 0.33743 0.40584 0.92931 0.0
C371 C 0.35506 0.38828 0.90286 0.0
C372 C 0.37349 0.52465 0.01032 0.0
C373 C 0.35524 0.46656 0.95448 0.0
C374 C 0.37343 0.56384 0.03613 0.0
C375 C 0.35583 0.58622 0.03364 0.0
C376 C 0.35576 0.5077 0.98327 0.0
C377 C 0.33838 0.56796 0.00713 0.0
C378 C 0.33742 0.44504 0.95439 0.0
C379 C 0.37245 0.4112 0.9014 0.0
N380 N 0.33877 0.52969 0.9832 0.0
N381 N 0.37216 0.44914 0.92769 0.0
H382 H 0.63064 0.11087 0.06958 0.0
H383 H 0.63312 0.88712 0.93952 0.0
H384 H 0.61424 0.07723 0.83799 0.0
H385 H 0.61225 0.92007 0.16579 0.0
H386 H 0.63317 0.95718 0.90233 0.0
H387 H 0.63076 0.04085 0.10696 0.0
C388 C 0.6272 0.08869 0.02648 0.0
C389 C 0.62245 0.09969 0.95051 0.0
C390 C 0.62862 0.94895 0.96007 0.0
C391 C 0.62279 0.01997 -0.00719 0.0
C392 C 0.62873 0.90915 0.98159 0.0
C393 C 0.6227 0.89793 0.05593 0.0
C394 C 0.6229 0.97768 0.01382 0.0
C395 C 0.61694 0.92757 0.10791 0.0
C396 C 0.62715 0.04891 0.04804 0.0
C397 C 0.61792 0.06987 0.89715 0.0
N398 N 0.61735 0.96629 0.08605 0.0
N399 N 0.61839 0.03117 0.91916 0.0
H400 H 0.13461 0.29337 0.27889 0.0
H401 H 0.10217 0.18401 0.89524 0.0
H402 H 0.09361 0.19507 0.28039 0.0
H403 H 0.11397 0.30973 0.89756 0.0
H404 H 0.10364 0.18335 0.03625 0.0
H405 H 0.13224 0.29555 0.13751 0.0
C406 C 0.12526 0.27209 0.24943 0.0
C407 C 0.11429 0.24398 0.29117 0.0
C408 C 0.1058 0.21109 0.00581 0.0
C409 C 0.11165 0.2462 0.13053 0.0
C410 C 0.10499 0.21149 0.92553 0.0
C411 C 0.1079 0.24701 0.8849 0.0
C412 C 0.11 0.24625 0.04562 0.0
C413 C 0.11149 0.2818 0.92689 0.0
C414 C 0.12379 0.27358 0.16909 0.0
C415 C 0.10225 0.21731 0.25035 0.0
N416 N 0.11267 0.2805 0.00518 0.0
N417 N 0.10136 0.21887 0.1722 0.0
H418 H 0.82082 0.23418 0.26942 0.0
H419 H 0.88147 0.1826 0.88798 0.0
H420 H 0.88327 0.20452 0.27339 0.0
H421 H 0.83322 0.26723 0.88798 0.0
H422 H 0.87909 0.17818 0.02887 0.0
H423 H 0.82178 0.23382 0.12759 0.0
C424 C 0.83464 0.22716 0.24047 0.0
C425 C 0.85202 0.21961 0.28298 0.0
C426 C 0.86904 0.19767 -0.0022 0.0
C427 C 0.85315 0.21875 0.12187 0.0
C428 C 0.87037 0.20018 0.91759 0.0
C429 C 0.85764 0.22558 0.87636 0.0
C430 C 0.8546 0.22003 0.0368 0.0
C431 C 0.84349 0.24764 0.91764 0.0
C432 C 0.8352 0.22721 0.15982 0.0
C433 C 0.86958 0.21085 0.24272 0.0
N434 N 0.84226 0.24419 -0.00438 0.0
N435 N 0.86969 0.21052 0.16443 0.0
H436 H 0.09407 0.70487 0.07948 0.0
H437 H 0.15344 0.75817 0.69793 0.0
H438 H 0.143 0.78751 0.08173 0.0
H439 H 0.09047 0.73361 0.69624 0.0
H440 H 0.15277 0.75806 0.83966 0.0
H441 H 0.09539 0.70407 0.93826 0.0
C442 C 0.1051 0.72277 0.05024 0.0
C443 C 0.11838 0.74646 0.09215 0.0
C444 C 0.13915 0.75272 0.80793 0.0
C445 C 0.12015 0.74513 0.93142 0.0
C446 C 0.13953 0.75258 0.72737 0.0
C447 C 0.12197 0.74606 0.68554 0.0
C448 C 0.12119 0.74535 0.84644 0.0
C449 C 0.10431 0.73908 0.72636 0.0
C450 C 0.1058 0.72238 0.96988 0.0
C451 C 0.13237 0.76913 0.05146 0.0
N452 N 0.10439 0.73863 0.80461 0.0
N453 N 0.13301 0.76769 0.97319 0.0
H454 H 0.88094 0.68195 0.68023 0.0
H455 H 0.86094 0.79893 0.06847 0.0
H456 H 0.84113 0.78248 0.68537 0.0
H457 H 0.87144 0.67266 0.06376 0.0
H458 H 0.85897 0.79896 0.92688 0.0
H459 H 0.8828 0.68345 0.82086 0.0
C460 C 0.87259 0.70437 0.71106 0.0
C461 C 0.86082 0.73211 0.67128 0.0
C462 C 0.86173 0.77136 0.95717 0.0
C463 C 0.86316 0.73429 0.83188 0.0
C464 C 0.86303 0.77135 0.03762 0.0
C465 C 0.86637 0.73572 0.07767 0.0
C466 C 0.86424 0.73567 0.91687 0.0
C467 C 0.86878 0.70073 0.03509 0.0
C468 C 0.87362 0.70511 0.79119 0.0
C469 C 0.85025 0.76042 0.71406 0.0
N470 N 0.8678 0.70162 0.95694 0.0
N471 N 0.85181 0.76104 0.79234 0.0
H472 H 0.5893 0.79784 0.40997 0.0
H473 H 0.64912 0.73982 0.79062 0.0
H474 H 0.63629 0.71041 0.41042 0.0
H475 H 0.58696 0.77188 0.79615 0.0
H476 H 0.64787 0.74129 0.64911 0.0
H477 H 0.59131 0.80054 0.55136 0.0
C478 C 0.60003 0.77929 0.43979 0.0
C479 C 0.61253 0.75362 0.39867 0.0
C480 C 0.63456 0.7481 0.6816 0.0
C481 C 0.61516 0.7572 0.55919 0.0
C482 C 0.63528 0.74747 0.76207 0.0
C483 C 0.61808 0.75546 0.8049 0.0
C484 C 0.61664 0.75765 0.6441 0.0
C485 C 0.60051 0.76513 0.76515 0.0
C486 C 0.60114 0.7808 0.52018 0.0
C487 C 0.62621 0.73026 0.44002 0.0
N488 N 0.60024 0.76613 0.68687 0.0
N489 N 0.62726 0.73279 0.51803 0.0
H490 H 0.33606 0.68224 0.76093 0.0
H491 H 0.36669 0.79804 0.38025 0.0
H492 H 0.37634 0.7817 0.76239 0.0
H493 H 0.35633 0.67181 0.37619 0.0
H494 H 0.36443 0.79671 0.52094 0.0
H495 H 0.33743 0.68201 0.61884 0.0
C496 C 0.34505 0.7041 0.73137 0.0
C497 C 0.35616 0.73193 0.77321 0.0
C498 C 0.3627 0.7693 0.48917 0.0
C499 C 0.35757 0.73211 0.61223 0.0
C500 C 0.36395 0.77004 0.40902 0.0
C501 C 0.36181 0.73494 0.36666 0.0
C502 C 0.35885 0.73339 0.52723 0.0
C503 C 0.35827 0.69945 0.40689 0.0
C504 C 0.34592 0.70379 0.6507 0.0
C505 C 0.36766 0.75954 0.73234 0.0
N506 N 0.35673 0.69959 0.48514 0.0
N507 N 0.36796 0.7591 0.65418 0.0
H508 H 0.59769 0.29843 0.2081 0.0
H509 H 0.6212 0.18425 0.59653 0.0
H510 H 0.64037 0.2027 0.21391 0.0
H511 H 0.60868 0.30982 0.5922 0.0
H512 H 0.62332 0.18489 0.45513 0.0
H513 H 0.5967 0.29776 0.34905 0.0
C514 C 0.60687 0.27728 0.23917 0.0
C515 C 0.61916 0.25059 0.19958 0.0
C516 C 0.62013 0.2122 0.48544 0.0
C517 C 0.61781 0.24929 0.36027 0.0
C518 C 0.61875 0.21183 0.56579 0.0
C519 C 0.61474 0.24704 0.60588 0.0
C520 C 0.61699 0.24782 0.44523 0.0
C521 C 0.61186 0.28206 0.56344 0.0
C522 C 0.60634 0.27703 0.31941 0.0
C523 C 0.63081 0.22392 0.2425 0.0
N524 N 0.61288 0.28151 0.48529 0.0
N525 N 0.6297 0.22362 0.32085 0.0
H526 H 0.37716 0.18738 0.16784 0.0
H527 H 0.35963 0.30557 0.55641 0.0
H528 H 0.33909 0.29052 0.17336 0.0
H529 H 0.36817 0.17873 0.55133 0.0
H530 H 0.35736 0.30574 0.41486 0.0
H531 H 0.37913 0.1887 0.3084 0.0
C532 C 0.3692 0.21033 0.19876 0.0
C533 C 0.35791 0.23887 0.1591 0.0
C534 C 0.35975 0.27798 0.44506 0.0
C535 C 0.36038 0.24084 0.31969 0.0
C536 C 0.36124 0.27788 0.52549 0.0
C537 C 0.36411 0.24207 0.56543 0.0
C538 C 0.36162 0.24216 0.40467 0.0
C539 C 0.36589 0.20696 0.52276 0.0
C540 C 0.3703 0.21096 0.27886 0.0
C541 C 0.34783 0.26783 0.20198 0.0
N542 N 0.36474 0.20792 0.44464 0.0
N543 N 0.34945 0.26834 0.28027 0.0
H544 H 0.03201 0.31327 0.62367 0.0
H545 H 0.9368 0.17333 0.63993 0.0
H546 H 0.03515 0.18711 0.58428 0.0
H547 H 0.93349 0.29288 0.55125 0.0
H548 H 0.973 0.18019 0.65074 0.0
H549 H -0.00452 0.30836 0.62794 0.0
C550 C 0.02501 0.2846 0.61665 0.0
C551 C 0.03649 0.25061 0.60287 0.0
C552 C 0.96427 0.20489 0.62922 0.0
C553 C -0.00484 0.24475 0.60904 0.0
C554 C 0.94368 0.20105 0.62318 0.0
C555 C 0.93221 0.23244 0.59392 0.0
C556 C 0.97334 0.24064 0.60743 0.0
C557 C 0.94185 0.26779 0.57316 0.0
C558 C 0.00427 0.28185 0.61876 0.0
C559 C 0.02678 0.2141 0.59407 0.0
N560 N 0.9619 0.27102 0.58057 0.0
N561 N 0.00667 0.21209 0.59761 0.0
H562 H 0.94128 0.67309 0.38895 0.0
H563 H 0.0395 0.79855 0.40496 0.0
H564 H 0.94134 0.79754 0.33025 0.0
H565 H 0.04065 0.6763 0.33188 0.0
H566 H 0.00323 0.79837 0.39378 0.0
H567 H 0.97768 0.67291 0.38364 0.0
C568 C 0.94897 0.70034 0.37483 0.0
C569 C 0.93836 0.73546 0.36035 0.0
C570 C 0.01146 0.7717 0.37976 0.0
C571 C 0.97978 0.73545 0.35519 0.0
C572 C 0.03209 0.77166 0.38662 0.0
C573 C 0.04301 0.73729 0.36963 0.0
C574 C 0.00168 0.73689 0.35756 0.0
C575 C 0.03273 0.70338 0.3454 0.0
C576 C 0.96967 0.70012 0.37137 0.0
C577 C 0.949 0.76986 0.34168 0.0
N578 N 0.01254 0.70384 0.34103 0.0
N579 N 0.9692 0.76915 0.34067 0.0
H580 H 0.5351 0.81722 0.13291 0.0
H581 H 0.43931 0.67871 0.13845 0.0
H582 H 0.53823 0.69097 0.09462 0.0
H583 H 0.43734 0.79824 0.04908 0.0
H584 H 0.47544 0.68486 0.15385 0.0
H585 H 0.49857 0.81266 0.13368 0.0
C586 C 0.5281 0.78858 0.12554 0.0
C587 C 0.53958 0.75447 0.11299 0.0
C588 C 0.46702 0.70971 0.13115 0.0
C589 C 0.49823 0.74903 0.11501 0.0
C590 C 0.44647 0.70626 0.12247 0.0
C591 C 0.43541 0.73787 0.0917 0.0
C592 C 0.47643 0.74527 0.11051 0.0
C593 C 0.44539 0.77299 0.07206 0.0
C594 C 0.50735 0.78604 0.12561 0.0
C595 C 0.52986 0.71803 0.10356 0.0
N596 N 0.46537 0.77584 0.08207 0.0
N597 N 0.50972 0.71622 0.10501 0.0
H598 H 0.43854 0.17744 0.88111 0.0
H599 H 0.53706 0.30129 0.91443 0.0
H600 H 0.43976 0.30203 0.8239 0.0
H601 H 0.5385 0.1791 0.84105 0.0
H602 H 0.50093 0.30167 0.89763 0.0
H603 H 0.47496 0.17662 0.88173 0.0
C604 C 0.44649 0.20458 0.86844 0.0
C605 C 0.43619 0.23993 0.85273 0.0
C606 C 0.50919 0.27488 0.88485 0.0
C607 C 0.47765 0.23922 0.8545 0.0
C608 C 0.52974 0.27451 0.89495 0.0
C609 C 0.54072 0.24002 0.8794 0.0
C610 C 0.49952 0.24027 0.86079 0.0
C611 C 0.53055 0.20628 0.85356 0.0
C612 C 0.46722 0.204 0.86842 0.0
C613 C 0.44718 0.27418 0.83612 0.0
N614 N 0.51042 0.20707 0.84594 0.0
N615 N 0.46737 0.27313 0.83853 0.0
loop_
_geom_bond_atom_site_label_1
_geom_bond_atom_site_label_2
_geom_bond_distance
_geom_bond_site_symmetry_2
_ccdc_geom_bond_type
O0 Zn1 1.953 . S
O0 C16 1.225 . S
Zn1 O0 1.953 . S
Zn1 O2 1.949 . S
Zn1 O8 1.919 . S
Zn1 O13 1.924 . S
O2 Zn1 1.949 . S
O2 Zn3 1.923 . S
O2 Zn4 1.950 . S
O2 Zn5 1.945 . S
Zn3 O2 1.923 . S
Zn3 O6 1.933 . S
Zn3 O9 1.941 . S
Zn3 O10 1.965 . S
Zn4 O2 1.950 . S
Zn4 O11 1.938 . S
Zn4 O12 1.906 . S
Zn4 O22 1.953 . S
Zn5 O2 1.945 . S
Zn5 O7 1.932 . S
Zn5 O14 1.977 . S
Zn5 O15 1.910 . S
O6 Zn3 1.933 . S
O6 C17 1.226 . S
O7 Zn5 1.932 . S
O7 C17 1.307 . S
O8 Zn1 1.919 . S
O8 C19 1.253 . S
O9 Zn3 1.941 . S
O9 C19 1.283 . S
O10 Zn3 1.965 . S
O10 C18 1.303 . S
O11 Zn4 1.938 . S
O11 C18 1.247 . S
O12 Zn4 1.906 . S
O12 C20 1.304 . S
O13 Zn1 1.924 . S
O13 C21 1.311 . S
O14 Zn5 1.977 . S
O14 C20 1.272 . S
O15 Zn5 1.910 . S
O15 C21 1.231 . S
C16 O0 1.225 . S
C16 O22 1.298 . S
C17 O6 1.226 . S
C17 O7 1.307 . S
C18 O10 1.303 . S
C18 O11 1.247 . S
C19 O8 1.253 . S
C19 O9 1.283 . S
C20 O12 1.304 . S
C20 O14 1.272 . S
C21 O13 1.311 . S
C21 O15 1.231 . S
O22 Zn4 1.953 . S
O22 C16 1.298 . S
O23 Zn24 1.953 . S
O23 C39 1.225 . S
Zn24 O23 1.953 . S
Zn24 O25 1.949 . S
Zn24 O31 1.919 . S
Zn24 O36 1.924 . S
O25 Zn24 1.949 . S
O25 Zn26 1.923 . S
O25 Zn27 1.950 . S
O25 Zn28 1.945 . S
Zn26 O25 1.923 . S
Zn26 O29 1.933 . S
Zn26 O32 1.941 . S
Zn26 O33 1.965 . S
Zn27 O25 1.950 . S
Zn27 O34 1.938 . S
Zn27 O35 1.906 . S
Zn27 O45 1.953 . S
Zn28 O25 1.945 . S
Zn28 O30 1.932 . S
Zn28 O37 1.977 . S
Zn28 O38 1.910 . S
O29 Zn26 1.933 . S
O29 C40 1.226 . S
O30 Zn28 1.932 . S
O30 C40 1.307 . S
O31 Zn24 1.919 . S
O31 C42 1.253 . S
O32 Zn26 1.941 . S
O32 C42 1.283 . S
O33 Zn26 1.965 . S
O33 C41 1.303 . S
O34 Zn27 1.938 . S
O34 C41 1.247 . S
O35 Zn27 1.906 . S
O35 C43 1.304 . S
O36 Zn24 1.924 . S
O36 C44 1.311 . S
O37 Zn28 1.977 . S
O37 C43 1.272 . S
O38 Zn28 1.910 . S
O38 C44 1.231 . S
C39 O23 1.225 . S
C39 O45 1.298 . S
C40 O29 1.226 . S
C40 O30 1.307 . S
C41 O33 1.303 . S
C41 O34 1.247 . S
C42 O31 1.253 . S
C42 O32 1.283 . S
C43 O35 1.304 . S
C43 O37 1.272 . S
C44 O36 1.311 . S
C44 O38 1.231 . S
O45 Zn27 1.953 . S
O45 C39 1.298 . S
O46 Zn47 1.953 . S
O46 C62 1.225 . S
Zn47 O46 1.953 . S
Zn47 O48 1.949 . S
Zn47 O54 1.919 . S
Zn47 O59 1.924 . S
O48 Zn47 1.949 . S
O48 Zn49 1.923 . S
O48 Zn50 1.950 . S
O48 Zn51 1.945 . S
Zn49 O48 1.923 . S
Zn49 O52 1.933 . S
Zn49 O55 1.941 . S
Zn49 O56 1.965 . S
Zn50 O48 1.950 . S
Zn50 O57 1.938 . S
Zn50 O58 1.906 . S
Zn50 O68 1.953 . S
Zn51 O48 1.945 . S
Zn51 O53 1.932 . S
Zn51 O60 1.977 . S
Zn51 O61 1.910 . S
O52 Zn49 1.933 . S
O52 C63 1.226 . S
O53 Zn51 1.932 . S
O53 C63 1.307 . S
O54 Zn47 1.919 . S
O54 C65 1.253 . S
O55 Zn49 1.941 . S
O55 C65 1.283 . S
O56 Zn49 1.965 . S
O56 C64 1.303 . S
O57 Zn50 1.938 . S
O57 C64 1.247 . S
O58 Zn50 1.906 . S
O58 C66 1.304 . S
O59 Zn47 1.924 . S
O59 C67 1.311 . S
O60 Zn51 1.977 . S
O60 C66 1.272 . S
O61 Zn51 1.910 . S
O61 C67 1.231 . S
C62 O46 1.225 . S
C62 O68 1.298 . S
C63 O52 1.226 . S
C63 O53 1.307 . S
C64 O56 1.303 . S
C64 O57 1.247 . S
C65 O54 1.253 . S
C65 O55 1.283 . S
C66 O58 1.304 . S
C66 O60 1.272 . S
C67 O59 1.311 . S
C67 O61 1.231 . S
O68 Zn50 1.953 . S
O68 C62 1.298 . S
O69 Zn70 1.953 . S
O69 C85 1.225 . S
Zn70 O69 1.953 . S
Zn70 O71 1.949 . S
Zn70 O77 1.919 . S
Zn70 O82 1.924 . S
O71 Zn70 1.949 . S
O71 Zn72 1.923 . S
O71 Zn73 1.950 . S
O71 Zn74 1.945 . S
Zn72 O71 1.923 . S
Zn72 O75 1.933 . S
Zn72 O78 1.941 . S
Zn72 O79 1.965 . S
Zn73 O71 1.950 . S
Zn73 O80 1.938 . S
Zn73 O81 1.906 . S
Zn73 O91 1.953 . S
Zn74 O71 1.945 . S
Zn74 O76 1.932 . S
Zn74 O83 1.977 . S
Zn74 O84 1.910 . S
O75 Zn72 1.933 . S
O75 C86 1.226 . S
O76 Zn74 1.932 . S
O76 C86 1.307 . S
O77 Zn70 1.919 . S
O77 C88 1.253 . S
O78 Zn72 1.941 . S
O78 C88 1.283 . S
O79 Zn72 1.965 . S
O79 C87 1.303 . S
O80 Zn73 1.938 . S
O80 C87 1.247 . S
O81 Zn73 1.906 . S
O81 C89 1.304 . S
O82 Zn70 1.924 . S
O82 C90 1.311 . S
O83 Zn74 1.977 . S
O83 C89 1.272 . S
O84 Zn74 1.910 . S
O84 C90 1.231 . S
C85 O69 1.225 . S
C85 O91 1.298 . S
C86 O75 1.226 . S
C86 O76 1.307 . S
C87 O79 1.303 . S
C87 O80 1.247 . S
C88 O77 1.253 . S
C88 O78 1.283 . S
C89 O81 1.304 . S
C89 O83 1.272 . S
C90 O82 1.311 . S
C90 O84 1.231 . S
O91 Zn73 1.953 . S
O91 C85 1.298 . S
O92 Zn93 1.953 . S
O92 C108 1.225 . S
Zn93 O92 1.953 . S
Zn93 O94 1.949 . S
Zn93 O100 1.919 . S
Zn93 O105 1.924 . S
O94 Zn93 1.949 . S
O94 Zn95 1.923 . S
O94 Zn96 1.950 . S
O94 Zn97 1.945 . S
Zn95 O94 1.923 . S
Zn95 O98 1.933 1_554 S
Zn95 O101 1.941 . S
Zn95 O102 1.965 . S
Zn96 O94 1.950 . S
Zn96 O103 1.938 . S
Zn96 O104 1.906 . S
Zn96 O114 1.953 . S
Zn97 O94 1.945 . S
Zn97 O99 1.932 1_554 S
Zn97 O106 1.977 . S
Zn97 O107 1.910 . S
O98 Zn95 1.933 1_556 S
O98 C109 1.226 . S
O99 Zn97 1.932 1_556 S
O99 C109 1.307 . S
O100 Zn93 1.919 . S
O100 C111 1.253 . S
O101 Zn95 1.941 . S
O101 C111 1.283 . S
O102 Zn95 1.965 . S
O102 C110 1.303 . S
O103 Zn96 1.938 . S
O103 C110 1.247 . S
O104 Zn96 1.906 . S
O104 C112 1.304 . S
O105 Zn93 1.924 . S
O105 C113 1.311 . S
O106 Zn97 1.977 . S
O106 C112 1.272 . S
O107 Zn97 1.910 . S
O107 C113 1.231 . S
C108 O92 1.225 . S
C108 O114 1.298 . S
C109 O98 1.226 . S
C109 O99 1.307 . S
C110 O102 1.303 . S
C110 O103 1.247 . S
C111 O100 1.253 . S
C111 O101 1.283 . S
C112 O104 1.304 . S
C112 O106 1.272 . S
C113 O105 1.311 . S
C113 O107 1.231 . S
O114 Zn96 1.953 . S
O114 C108 1.298 . S
O115 Zn116 1.953 . S
O115 C131 1.225 . S
Zn116 O115 1.953 . S
Zn116 O117 1.949 . S
Zn116 O123 1.919 . S
Zn116 O128 1.924 . S
O117 Zn116 1.949 . S
O117 Zn118 1.923 . S
O117 Zn119 1.950 . S
O117 Zn120 1.945 . S
Zn118 O117 1.923 . S
Zn118 O121 1.933 1_554 S
Zn118 O124 1.941 . S
Zn118 O125 1.965 . S
Zn119 O117 1.950 . S
Zn119 O126 1.938 . S
Zn119 O127 1.906 . S
Zn119 O137 1.953 . S
Zn120 O117 1.945 . S
Zn120 O122 1.932 1_554 S
Zn120 O129 1.977 . S
Zn120 O130 1.910 . S
O121 Zn118 1.933 1_556 S
O121 C132 1.226 . S
O122 Zn120 1.932 1_556 S
O122 C132 1.307 . S
O123 Zn116 1.919 . S
O123 C134 1.253 . S
O124 Zn118 1.941 . S
O124 C134 1.283 . S
O125 Zn118 1.965 . S
O125 C133 1.303 . S
O126 Zn119 1.938 . S
O126 C133 1.247 . S
O127 Zn119 1.906 . S
O127 C135 1.304 . S
O128 Zn116 1.924 . S
O128 C136 1.311 . S
O129 Zn120 1.977 . S
O129 C135 1.272 . S
O130 Zn120 1.910 . S
O130 C136 1.231 . S
C131 O115 1.225 . S
C131 O137 1.298 . S
C132 O121 1.226 . S
C132 O122 1.307 . S
C133 O125 1.303 . S
C133 O126 1.247 . S
C134 O123 1.253 . S
C134 O124 1.283 . S
C135 O127 1.304 . S
C135 O129 1.272 . S
C136 O128 1.311 . S
C136 O130 1.231 . S
O137 Zn119 1.953 . S
O137 C131 1.298 . S
O138 Zn139 1.953 . S
O138 C154 1.225 . S
Zn139 O138 1.953 . S
Zn139 O140 1.949 . S
Zn139 O146 1.919 . S
Zn139 O151 1.924 . S
O140 Zn139 1.949 . S
O140 Zn141 1.923 . S
O140 Zn142 1.950 . S
O140 Zn143 1.945 . S
Zn141 O140 1.923 . S
Zn141 O144 1.933 1_556 S
Zn141 O147 1.941 . S
Zn141 O148 1.965 . S
Zn142 O140 1.950 . S
Zn142 O149 1.938 . S
Zn142 O150 1.906 . S
Zn142 O160 1.953 . S
Zn143 O140 1.945 . S
Zn143 O145 1.932 1_556 S
Zn143 O152 1.977 . S
Zn143 O153 1.910 . S
O144 Zn141 1.933 1_554 S
O144 C155 1.226 . S
O145 Zn143 1.932 1_554 S
O145 C155 1.307 . S
O146 Zn139 1.919 . S
O146 C157 1.253 . S
O147 Zn141 1.941 . S
O147 C157 1.283 . S
O148 Zn141 1.965 . S
O148 C156 1.303 . S
O149 Zn142 1.938 . S
O149 C156 1.247 . S
O150 Zn142 1.906 . S
O150 C158 1.304 . S
O151 Zn139 1.924 . S
O151 C159 1.311 . S
O152 Zn143 1.977 . S
O152 C158 1.272 . S
O153 Zn143 1.910 . S
O153 C159 1.231 . S
C154 O138 1.225 . S
C154 O160 1.298 . S
C155 O144 1.226 . S
C155 O145 1.307 . S
C156 O148 1.303 . S
C156 O149 1.247 . S
C157 O146 1.253 . S
C157 O147 1.283 . S
C158 O150 1.304 . S
C158 O152 1.272 . S
C159 O151 1.311 . S
C159 O153 1.231 . S
O160 Zn142 1.953 . S
O160 C154 1.298 . S
O161 Zn162 1.953 . S
O161 C177 1.225 . S
Zn162 O161 1.953 . S
Zn162 O163 1.949 . S
Zn162 O169 1.919 . S
Zn162 O174 1.924 . S
O163 Zn162 1.949 . S
O163 Zn164 1.923 . S
O163 Zn165 1.950 . S
O163 Zn166 1.945 . S
Zn164 O163 1.923 . S
Zn164 O167 1.933 1_556 S
Zn164 O170 1.941 . S
Zn164 O171 1.965 . S
Zn165 O163 1.950 . S
Zn165 O172 1.938 . S
Zn165 O173 1.906 . S
Zn165 O183 1.953 . S
Zn166 O163 1.945 . S
Zn166 O168 1.932 1_556 S
Zn166 O175 1.977 . S
Zn166 O176 1.910 . S
O167 Zn164 1.933 1_554 S
O167 C178 1.226 . S
O168 Zn166 1.932 1_554 S
O168 C178 1.307 . S
O169 Zn162 1.919 . S
O169 C180 1.253 . S
O170 Zn164 1.941 . S
O170 C180 1.283 . S
O171 Zn164 1.965 . S
O171 C179 1.303 . S
O172 Zn165 1.938 . S
O172 C179 1.247 . S
O173 Zn165 1.906 . S
O173 C181 1.304 . S
O174 Zn162 1.924 . S
O174 C182 1.311 . S
O175 Zn166 1.977 . S
O175 C181 1.272 . S
O176 Zn166 1.910 . S
O176 C182 1.231 . S
C177 O161 1.225 . S
C177 O183 1.298 . S
C178 O167 1.226 . S
C178 O168 1.307 . S
C179 O171 1.303 . S
C179 O172 1.247 . S
C180 O169 1.253 . S
C180 O170 1.283 . S
C181 O173 1.304 . S
C181 O175 1.272 . S
C182 O174 1.311 . S
C182 O176 1.231 . S
O183 Zn165 1.953 . S
O183 C177 1.298 . S
H184 C190 0.930 . S
H185 C194 0.930 . S
H186 C199 0.929 . S
H187 C197 0.929 . S
H188 C192 0.929 . S
H189 C198 0.929 . S
C190 H184 0.930 . S
C190 C191 1.367 . S
C190 C198 1.378 . S
C191 C190 1.367 . S
C191 C199 1.433 . S
C192 H188 0.929 . S
C192 C194 1.378 . S
C192 C196 1.350 . S
C193 C196 1.463 . S
C193 C198 1.350 . S
C193 N201 1.427 . S
C194 H185 0.930 . S
C194 C192 1.378 . S
C194 C195 1.367 . S
C195 C194 1.367 . S
C195 C197 1.433 . S
C196 C192 1.350 . S
C196 C193 1.463 . S
C196 N200 1.427 . S
C197 H187 0.929 . S
C197 C195 1.433 . S
C197 N200 1.384 . S
C198 H189 0.929 . S
C198 C190 1.378 . S
C198 C193 1.350 . S
C199 H186 0.929 . S
C199 C191 1.433 . S
C199 N201 1.384 . S
N200 C196 1.427 . S
N200 C197 1.384 . S
N201 C193 1.427 . S
N201 C199 1.384 . S
H202 C208 0.930 . S
H203 C212 0.930 . S
H204 C217 0.929 . S
H205 C215 0.929 . S
H206 C210 0.929 . S
H207 C216 0.929 . S
C208 H202 0.930 . S
C208 C209 1.367 . S
C208 C216 1.378 . S
C209 C208 1.367 . S
C209 C217 1.433 . S
C210 H206 0.929 . S
C210 C212 1.378 . S
C210 C214 1.350 . S
C211 C214 1.463 . S
C211 C216 1.350 . S
C211 N219 1.427 . S
C212 H203 0.930 . S
C212 C210 1.378 . S
C212 C213 1.367 . S
C213 C212 1.367 . S
C213 C215 1.433 . S
C214 C210 1.350 . S
C214 C211 1.463 . S
C214 N218 1.427 . S
C215 H205 0.929 . S
C215 C213 1.433 . S
C215 N218 1.384 . S
C216 H207 0.929 . S
C216 C208 1.378 . S
C216 C211 1.350 . S
C217 H204 0.929 . S
C217 C209 1.433 . S
C217 N219 1.384 . S
N218 C214 1.427 . S
N218 C215 1.384 . S
N219 C211 1.427 . S
N219 C217 1.384 . S
H220 C226 0.930 . S
H221 C230 0.930 . S
H222 C235 0.929 . S
H223 C233 0.929 . S
H224 C228 0.929 . S
H225 C234 0.929 . S
C226 H220 0.930 . S
C226 C227 1.367 . S
C226 C234 1.378 . S
C227 C226 1.367 . S
C227 C235 1.433 . S
C228 H224 0.929 . S
C228 C230 1.378 . S
C228 C232 1.350 . S
C229 C232 1.463 . S
C229 C234 1.350 . S
C229 N237 1.427 . S
C230 H221 0.930 . S
C230 C228 1.378 . S
C230 C231 1.367 . S
C231 C230 1.367 . S
C231 C233 1.433 . S
C232 C228 1.350 . S
C232 C229 1.463 . S
C232 N236 1.427 . S
C233 H223 0.929 . S
C233 C231 1.433 . S
C233 N236 1.384 . S
C234 H225 0.929 . S
C234 C226 1.378 . S
C234 C229 1.350 . S
C235 H222 0.929 . S
C235 C227 1.433 . S
C235 N237 1.384 . S
N236 C232 1.427 . S
N236 C233 1.384 . S
N237 C229 1.427 . S
N237 C235 1.384 . S
H238 C244 0.930 . S
H239 C248 0.930 . S
H240 C253 0.929 . S
H241 C251 0.929 . S
H242 C246 0.929 . S
H243 C252 0.929 . S
C244 H238 0.930 . S
C244 C245 1.367 . S
C244 C252 1.378 . S
C245 C244 1.367 . S
C245 C253 1.433 . S
C246 H242 0.929 . S
C246 C248 1.378 . S
C246 C250 1.350 . S
C247 C250 1.463 . S
C247 C252 1.350 . S
C247 N255 1.427 . S
C248 H239 0.930 . S
C248 C246 1.378 . S
C248 C249 1.367 . S
C249 C248 1.367 . S
C249 C251 1.433 . S
C250 C246 1.350 . S
C250 C247 1.463 . S
C250 N254 1.427 . S
C251 H241 0.929 . S
C251 C249 1.433 . S
C251 N254 1.384 . S
C252 H243 0.929 . S
C252 C244 1.378 . S
C252 C247 1.350 . S
C253 H240 0.929 . S
C253 C245 1.433 . S
C253 N255 1.384 . S
N254 C250 1.427 . S
N254 C251 1.384 . S
N255 C247 1.427 . S
N255 C253 1.384 . S
H256 C262 0.930 . S
H257 C266 0.930 . S
H258 C271 0.929 . S
H259 C269 0.929 . S
H260 C264 0.929 . S
H261 C270 0.929 . S
C262 H256 0.930 . S
C262 C263 1.367 . S
C262 C270 1.378 . S
C263 C262 1.367 . S
C263 C271 1.433 . S
C264 H260 0.929 . S
C264 C266 1.378 . S
C264 C268 1.350 . S
C265 C268 1.463 1_565 S
C265 C270 1.350 . S
C265 N273 1.427 . S
C266 H257 0.930 . S
C266 C264 1.378 . S
C266 C267 1.367 . S
C267 C266 1.367 . S
C267 C269 1.433 . S
C268 C264 1.350 . S
C268 C265 1.463 1_545 S
C268 N272 1.427 . S
C269 H259 0.929 . S
C269 C267 1.433 . S
C269 N272 1.384 . S
C270 H261 0.929 . S
C270 C262 1.378 . S
C270 C265 1.350 . S
C271 H258 0.929 . S
C271 C263 1.433 . S
C271 N273 1.384 . S
N272 C268 1.427 . S
N272 C269 1.384 . S
N273 C265 1.427 . S
N273 C271 1.384 . S
H274 C280 0.930 . S
H275 C284 0.930 . S
H276 C289 0.929 . S
H277 C287 0.929 . S
H278 C282 0.929 . S
H279 C288 0.929 . S
C280 H274 0.930 . S
C280 C281 1.367 . S
C280 C288 1.378 . S
C281 C280 1.367 . S
C281 C289 1.433 . S
C282 H278 0.929 . S
C282 C284 1.378 . S
C282 C286 1.350 . S
C283 C286 1.463 . S
C283 C288 1.350 . S
C283 N291 1.427 . S
C284 H275 0.930 . S
C284 C282 1.378 . S
C284 C285 1.367 . S
C285 C284 1.367 . S
C285 C287 1.433 . S
C286 C282 1.350 . S
C286 C283 1.463 . S
C286 N290 1.427 . S
C287 H277 0.929 . S
C287 C285 1.433 . S
C287 N290 1.384 . S
C288 H279 0.929 . S
C288 C280 1.378 . S
C288 C283 1.350 . S
C289 H276 0.929 . S
C289 C281 1.433 . S
C289 N291 1.384 . S
N290 C286 1.427 . S
N290 C287 1.384 . S
N291 C283 1.427 . S
N291 C289 1.384 . S
H292 C298 0.930 . S
H293 C302 0.930 . S
H294 C307 0.929 . S
H295 C305 0.929 . S
H296 C300 0.929 . S
H297 C306 0.929 . S
C298 H292 0.930 . S
C298 C299 1.367 . S
C298 C306 1.378 . S
C299 C298 1.367 . S
C299 C307 1.433 . S
C300 H296 0.929 . S
C300 C302 1.378 . S
C300 C304 1.350 . S
C301 C304 1.463 1_565 S
C301 C306 1.350 . S
C301 N309 1.427 . S
C302 H293 0.930 . S
C302 C300 1.378 . S
C302 C303 1.367 . S
C303 C302 1.367 . S
C303 C305 1.433 . S
C304 C300 1.350 . S
C304 C301 1.463 1_545 S
C304 N308 1.427 . S
C305 H295 0.929 . S
C305 C303 1.433 . S
C305 N308 1.384 . S
C306 H297 0.929 . S
C306 C298 1.378 . S
C306 C301 1.350 . S
C307 H294 0.929 . S
C307 C299 1.433 . S
C307 N309 1.384 . S
N308 C304 1.427 . S
N308 C305 1.384 . S
N309 C301 1.427 . S
N309 C307 1.384 . S
H310 C316 0.930 . S
H311 C320 0.930 . S
H312 C325 0.929 . S
H313 C323 0.929 . S
H314 C318 0.929 . S
H315 C324 0.929 . S
C316 H310 0.930 . S
C316 C317 1.367 . S
C316 C324 1.378 . S
C317 C316 1.367 . S
C317 C325 1.433 . S
C318 H314 0.929 . S
C318 C320 1.378 . S
C318 C322 1.350 . S
C319 C322 1.463 . S
C319 C324 1.350 . S
C319 N327 1.427 . S
C320 H311 0.930 . S
C320 C318 1.378 . S
C320 C321 1.367 . S
C321 C320 1.367 . S
C321 C323 1.433 . S
C322 C318 1.350 . S
C322 C319 1.463 . S
C322 N326 1.427 . S
C323 H313 0.929 . S
C323 C321 1.433 . S
C323 N326 1.384 . S
C324 H315 0.929 . S
C324 C316 1.378 . S
C324 C319 1.350 . S
C325 H312 0.929 . S
C325 C317 1.433 . S
C325 N327 1.384 . S
N326 C322 1.427 . S
N326 C323 1.384 . S
N327 C319 1.427 . S
N327 C325 1.384 . S
H328 C334 0.930 . S
H329 C338 0.930 . S
H330 C343 0.929 . S
H331 C341 0.929 . S
H332 C336 0.929 . S
H333 C342 0.929 . S
C334 H328 0.930 . S
C334 C335 1.367 . S
C334 C342 1.378 . S
C335 C334 1.367 . S
C335 C343 1.433 1_554 S
C336 H332 0.929 . S
C336 C338 1.378 . S
C336 C340 1.350 . S
C337 C340 1.463 1_554 S
C337 C342 1.350 . S
C337 N345 1.427 1_554 S
C338 H329 0.930 . S
C338 C336 1.378 . S
C338 C339 1.367 . S
C339 C338 1.367 . S
C339 C341 1.433 1_556 S
C340 C336 1.350 . S
C340 C337 1.463 1_556 S
C340 N344 1.427 1_556 S
C341 H331 0.929 . S
C341 C339 1.433 1_554 S
C341 N344 1.384 . S
C342 H333 0.929 . S
C342 C334 1.378 . S
C342 C337 1.350 . S
C343 H330 0.929 . S
C343 C335 1.433 1_556 S
C343 N345 1.384 . S
N344 C340 1.427 1_554 S
N344 C341 1.384 . S
N345 C337 1.427 1_556 S
N345 C343 1.384 . S
H346 C352 0.930 . S
H347 C356 0.930 . S
H348 C361 0.929 . S
H349 C359 0.929 . S
H350 C354 0.929 . S
H351 C360 0.929 . S
C352 H346 0.930 . S
C352 C353 1.367 . S
C352 C360 1.378 . S
C353 C352 1.367 . S
C353 C361 1.433 1_554 S
C354 H350 0.929 . S
C354 C356 1.378 . S
C354 C358 1.350 . S
C355 C358 1.463 1_564 S
C355 C360 1.350 . S
C355 N363 1.427 1_554 S
C356 H347 0.930 . S
C356 C354 1.378 . S
C356 C357 1.367 . S
C357 C356 1.367 . S
C357 C359 1.433 1_556 S
C358 C354 1.350 . S
C358 C355 1.463 1_546 S
C358 N362 1.427 1_556 S
C359 H349 0.929 . S
C359 C357 1.433 1_554 S
C359 N362 1.384 . S
C360 H351 0.929 . S
C360 C352 1.378 . S
C360 C355 1.350 . S
C361 H348 0.929 . S
C361 C353 1.433 1_556 S
C361 N363 1.384 . S
N362 C358 1.427 1_554 S
N362 C359 1.384 . S
N363 C355 1.427 1_556 S
N363 C361 1.384 . S
H364 C370 0.930 . S
H365 C374 0.930 . S
H366 C379 0.929 1_554 S
H367 C377 0.929 1_556 S
H368 C372 0.929 . S
H369 C378 0.929 . S
C370 H364 0.930 . S
C370 C371 1.367 . S
C370 C378 1.378 . S
C371 C370 1.367 . S
C371 C379 1.433 . S
C372 H368 0.929 . S
C372 C374 1.378 . S
C372 C376 1.350 . S
C373 C376 1.463 1_556 S
C373 C378 1.350 . S
C373 N381 1.427 1_556 S
C374 H365 0.930 . S
C374 C372 1.378 . S
C374 C375 1.367 . S
C375 C374 1.367 . S
C375 C377 1.433 . S
C376 C372 1.350 . S
C376 C373 1.463 1_554 S
C376 N380 1.427 1_554 S
C377 H367 0.929 1_554 S
C377 C375 1.433 . S
C377 N380 1.384 1_554 S
C378 H369 0.929 . S
C378 C370 1.378 . S
C378 C373 1.350 . S
C379 H366 0.929 1_556 S
C379 C371 1.433 . S
C379 N381 1.384 1_556 S
N380 C376 1.427 1_556 S
N380 C377 1.384 1_556 S
N381 C373 1.427 1_554 S
N381 C379 1.384 1_554 S
H382 C388 0.930 . S
H383 C392 0.930 . S
H384 C397 0.929 . S
H385 C395 0.929 . S
H386 C390 0.929 . S
H387 C396 0.929 . S
C388 H382 0.930 . S
C388 C389 1.367 1_554 S
C388 C396 1.378 . S
C389 C388 1.367 1_556 S
C389 C397 1.433 . S
C390 H386 0.929 . S
C390 C392 1.378 . S
C390 C394 1.350 1_556 S
C391 C394 1.463 1_546 S
C391 C396 1.350 1_556 S
C391 N399 1.427 . S
C392 H383 0.930 . S
C392 C390 1.378 . S
C392 C393 1.367 1_556 S
C393 C392 1.367 1_554 S
C393 C395 1.433 . S
C394 C390 1.350 1_554 S
C394 C391 1.463 1_564 S
C394 N398 1.427 . S
C395 H385 0.929 . S
C395 C393 1.433 . S
C395 N398 1.384 . S
C396 H387 0.929 . S
C396 C388 1.378 . S
C396 C391 1.350 1_554 S
C397 H384 0.929 . S
C397 C389 1.433 . S
C397 N399 1.384 . S
N398 C394 1.427 . S
N398 C395 1.384 . S
N399 C391 1.427 . S
N399 C397 1.384 . S
H400 C406 0.930 . S
H401 C410 0.930 . S
H402 C415 0.929 . S
H403 C413 0.929 . S
H404 C408 0.929 . S
H405 C414 0.929 . S
C406 H400 0.930 . S
C406 C407 1.367 . S
C406 C414 1.378 . S
C407 C406 1.367 . S
C407 C415 1.433 . S
C408 H404 0.929 . S
C408 C410 1.378 1_554 S
C408 C412 1.350 . S
C409 C412 1.463 . S
C409 C414 1.350 . S
C409 N417 1.427 . S
C410 H401 0.930 . S
C410 C408 1.378 1_556 S
C410 C411 1.367 . S
C411 C410 1.367 . S
C411 C413 1.433 . S
C412 C408 1.350 . S
C412 C409 1.463 . S
C412 N416 1.427 . S
C413 H403 0.929 . S
C413 C411 1.433 . S
C413 N416 1.384 1_556 S
C414 H405 0.929 . S
C414 C406 1.378 . S
C414 C409 1.350 . S
C415 H402 0.929 . S
C415 C407 1.433 . S
C415 N417 1.384 . S
N416 C412 1.427 . S
N416 C413 1.384 1_554 S
N417 C409 1.427 . S
N417 C415 1.384 . S
H418 C424 0.930 . S
H419 C428 0.930 . S
H420 C433 0.929 . S
H421 C431 0.929 . S
H422 C426 0.929 . S
H423 C432 0.929 . S
C424 H418 0.930 . S
C424 C425 1.367 . S
C424 C432 1.378 . S
C425 C424 1.367 . S
C425 C433 1.433 . S
C426 H422 0.929 . S
C426 C428 1.378 1_554 S
C426 C430 1.350 . S
C427 C430 1.463 . S
C427 C432 1.350 . S
C427 N435 1.427 . S
C428 H419 0.930 . S
C428 C426 1.378 1_556 S
C428 C429 1.367 . S
C429 C428 1.367 . S
C429 C431 1.433 . S
C430 C426 1.350 . S
C430 C427 1.463 . S
C430 N434 1.427 . S
C431 H421 0.929 . S
C431 C429 1.433 . S
C431 N434 1.384 1_556 S
C432 H423 0.929 . S
C432 C424 1.378 . S
C432 C427 1.350 . S
C433 H420 0.929 . S
C433 C425 1.433 . S
C433 N435 1.384 . S
N434 C430 1.427 . S
N434 C431 1.384 1_554 S
N435 C427 1.427 . S
N435 C433 1.384 . S
H436 C442 0.930 . S
H437 C446 0.930 . S
H438 C451 0.929 . S
H439 C449 0.929 . S
H440 C444 0.929 . S
H441 C450 0.929 . S
C442 H436 0.930 . S
C442 C443 1.367 . S
C442 C450 1.378 1_554 S
C443 C442 1.367 . S
C443 C451 1.433 . S
C444 H440 0.929 . S
C444 C446 1.378 . S
C444 C448 1.350 . S
C445 C448 1.463 . S
C445 C450 1.350 . S
C445 N453 1.427 . S
C446 H437 0.930 . S
C446 C444 1.378 . S
C446 C447 1.367 . S
C447 C446 1.367 . S
C447 C449 1.433 . S
C448 C444 1.350 . S
C448 C445 1.463 . S
C448 N452 1.427 . S
C449 H439 0.929 . S
C449 C447 1.433 . S
C449 N452 1.384 . S
C450 H441 0.929 . S
C450 C442 1.378 1_556 S
C450 C445 1.350 . S
C451 H438 0.929 . S
C451 C443 1.433 . S
C451 N453 1.384 1_554 S
N452 C448 1.427 . S
N452 C449 1.384 . S
N453 C445 1.427 . S
N453 C451 1.384 1_556 S
H454 C460 0.930 . S
H455 C464 0.930 . S
H456 C469 0.929 . S
H457 C467 0.929 . S
H458 C462 0.929 . S
H459 C468 0.929 . S
C460 H454 0.930 . S
C460 C461 1.367 . S
C460 C468 1.378 . S
C461 C460 1.367 . S
C461 C469 1.433 . S
C462 H458 0.929 . S
C462 C464 1.378 1_556 S
C462 C466 1.350 . S
C463 C466 1.463 . S
C463 C468 1.350 . S
C463 N471 1.427 . S
C464 H455 0.930 . S
C464 C462 1.378 1_554 S
C464 C465 1.367 . S
C465 C464 1.367 . S
C465 C467 1.433 . S
C466 C462 1.350 . S
C466 C463 1.463 . S
C466 N470 1.427 . S
C467 H457 0.929 . S
C467 C465 1.433 . S
C467 N470 1.384 1_554 S
C468 H459 0.929 . S
C468 C460 1.378 . S
C468 C463 1.350 . S
C469 H456 0.929 . S
C469 C461 1.433 . S
C469 N471 1.384 . S
N470 C466 1.427 . S
N470 C467 1.384 1_556 S
N471 C463 1.427 . S
N471 C469 1.384 . S
H472 C478 0.930 . S
H473 C482 0.930 . S
H474 C487 0.929 . S
H475 C485 0.929 . S
H476 C480 0.929 . S
H477 C486 0.929 . S
C478 H472 0.930 . S
C478 C479 1.367 . S
C478 C486 1.378 . S
C479 C478 1.367 . S
C479 C487 1.433 . S
C480 H476 0.929 . S
C480 C482 1.378 . S
C480 C484 1.350 . S
C481 C484 1.463 . S
C481 C486 1.350 . S
C481 N489 1.427 . S
C482 H473 0.930 . S
C482 C480 1.378 . S
C482 C483 1.367 . S
C483 C482 1.367 . S
C483 C485 1.433 . S
C484 C480 1.350 . S
C484 C481 1.463 . S
C484 N488 1.427 . S
C485 H475 0.929 . S
C485 C483 1.433 . S
C485 N488 1.384 . S
C486 H477 0.929 . S
C486 C478 1.378 . S
C486 C481 1.350 . S
C487 H474 0.929 . S
C487 C479 1.433 . S
C487 N489 1.384 . S
N488 C484 1.427 . S
N488 C485 1.384 . S
N489 C481 1.427 . S
N489 C487 1.384 . S
H490 C496 0.930 . S
H491 C500 0.930 . S
H492 C505 0.929 . S
H493 C503 0.929 . S
H494 C498 0.929 . S
H495 C504 0.929 . S
C496 H490 0.930 . S
C496 C497 1.367 . S
C496 C504 1.378 . S
C497 C496 1.367 . S
C497 C505 1.433 . S
C498 H494 0.929 . S
C498 C500 1.378 . S
C498 C502 1.350 . S
C499 C502 1.463 . S
C499 C504 1.350 . S
C499 N507 1.427 . S
C500 H491 0.930 . S
C500 C498 1.378 . S
C500 C501 1.367 . S
C501 C500 1.367 . S
C501 C503 1.433 . S
C502 C498 1.350 . S
C502 C499 1.463 . S
C502 N506 1.427 . S
C503 H493 0.929 . S
C503 C501 1.433 . S
C503 N506 1.384 . S
C504 H495 0.929 . S
C504 C496 1.378 . S
C504 C499 1.350 . S
C505 H492 0.929 . S
C505 C497 1.433 . S
C505 N507 1.384 . S
N506 C502 1.427 . S
N506 C503 1.384 . S
N507 C499 1.427 . S
N507 C505 1.384 . S
H508 C514 0.930 . S
H509 C518 0.930 . S
H510 C523 0.929 . S
H511 C521 0.929 . S
H512 C516 0.929 . S
H513 C522 0.929 . S
C514 H508 0.930 . S
C514 C515 1.367 . S
C514 C522 1.378 . S
C515 C514 1.367 . S
C515 C523 1.433 . S
C516 H512 0.929 . S
C516 C518 1.378 . S
C516 C520 1.350 . S
C517 C520 1.463 . S
C517 C522 1.350 . S
C517 N525 1.427 . S
C518 H509 0.930 . S
C518 C516 1.378 . S
C518 C519 1.367 . S
C519 C518 1.367 . S
C519 C521 1.433 . S
C520 C516 1.350 . S
C520 C517 1.463 . S
C520 N524 1.427 . S
C521 H511 0.929 . S
C521 C519 1.433 . S
C521 N524 1.384 . S
C522 H513 0.929 . S
C522 C514 1.378 . S
C522 C517 1.350 . S
C523 H510 0.929 . S
C523 C515 1.433 . S
C523 N525 1.384 . S
N524 C520 1.427 . S
N524 C521 1.384 . S
N525 C517 1.427 . S
N525 C523 1.384 . S
H526 C532 0.930 . S
H527 C536 0.930 . S
H528 C541 0.929 . S
H529 C539 0.929 . S
H530 C534 0.929 . S
H531 C540 0.929 . S
C532 H526 0.930 . S
C532 C533 1.367 . S
C532 C540 1.378 . S
C533 C532 1.367 . S
C533 C541 1.433 . S
C534 H530 0.929 . S
C534 C536 1.378 . S
C534 C538 1.350 . S
C535 C538 1.463 . S
C535 C540 1.350 . S
C535 N543 1.427 . S
C536 H527 0.930 . S
C536 C534 1.378 . S
C536 C537 1.367 . S
C537 C536 1.367 . S
C537 C539 1.433 . S
C538 C534 1.350 . S
C538 C535 1.463 . S
C538 N542 1.427 . S
C539 H529 0.929 . S
C539 C537 1.433 . S
C539 N542 1.384 . S
C540 H531 0.929 . S
C540 C532 1.378 . S
C540 C535 1.350 . S
C541 H528 0.929 . S
C541 C533 1.433 . S
C541 N543 1.384 . S
N542 C538 1.427 . S
N542 C539 1.384 . S
N543 C535 1.427 . S
N543 C541 1.384 . S
H544 C550 0.930 . S
H545 C554 0.930 . S
H546 C559 0.929 . S
H547 C557 0.929 . S
H548 C552 0.929 . S
H549 C558 0.929 . S
C550 H544 0.930 . S
C550 C551 1.367 . S
C550 C558 1.378 . S
C551 C550 1.367 . S
C551 C559 1.433 . S
C552 H548 0.929 . S
C552 C554 1.378 . S
C552 C556 1.350 . S
C553 C556 1.463 1_455 S
C553 C558 1.350 . S
C553 N561 1.427 . S
C554 H545 0.930 . S
C554 C552 1.378 . S
C554 C555 1.367 . S
C555 C554 1.367 . S
C555 C557 1.433 . S
C556 C552 1.350 . S
C556 C553 1.463 1_655 S
C556 N560 1.427 . S
C557 H547 0.929 . S
C557 C555 1.433 . S
C557 N560 1.384 . S
C558 H549 0.929 . S
C558 C550 1.378 . S
C558 C553 1.350 . S
C559 H546 0.929 . S
C559 C551 1.433 . S
C559 N561 1.384 . S
N560 C556 1.427 . S
N560 C557 1.384 . S
N561 C553 1.427 . S
N561 C559 1.384 . S
H562 C568 0.930 . S
H563 C572 0.930 . S
H564 C577 0.929 . S
H565 C575 0.929 . S
H566 C570 0.929 . S
H567 C576 0.929 . S
C568 H562 0.930 . S
C568 C569 1.367 . S
C568 C576 1.378 . S
C569 C568 1.367 . S
C569 C577 1.433 . S
C570 H566 0.929 . S
C570 C572 1.378 . S
C570 C574 1.350 . S
C571 C574 1.463 1_655 S
C571 C576 1.350 . S
C571 N579 1.427 . S
C572 H563 0.930 . S
C572 C570 1.378 . S
C572 C573 1.367 . S
C573 C572 1.367 . S
C573 C575 1.433 . S
C574 C570 1.350 . S
C574 C571 1.463 1_455 S
C574 N578 1.427 . S
C575 H565 0.929 . S
C575 C573 1.433 . S
C575 N578 1.384 . S
C576 H567 0.929 . S
C576 C568 1.378 . S
C576 C571 1.350 . S
C577 H564 0.929 . S
C577 C569 1.433 . S
C577 N579 1.384 . S
N578 C574 1.427 . S
N578 C575 1.384 . S
N579 C571 1.427 . S
N579 C577 1.384 . S
H580 C586 0.930 . S
H581 C590 0.930 . S
H582 C595 0.929 . S
H583 C593 0.929 . S
H584 C588 0.929 . S
H585 C594 0.929 . S
C586 H580 0.930 . S
C586 C587 1.367 . S
C586 C594 1.378 . S
C587 C586 1.367 . S
C587 C595 1.433 . S
C588 H584 0.929 . S
C588 C590 1.378 . S
C588 C592 1.350 . S
C589 C592 1.463 . S
C589 C594 1.350 . S
C589 N597 1.427 . S
C590 H581 0.930 . S
C590 C588 1.378 . S
C590 C591 1.367 . S
C591 C590 1.367 . S
C591 C593 1.433 . S
C592 C588 1.350 . S
C592 C589 1.463 . S
C592 N596 1.427 . S
C593 H583 0.929 . S
C593 C591 1.433 . S
C593 N596 1.384 . S
C594 H585 0.929 . S
C594 C586 1.378 . S
C594 C589 1.350 . S
C595 H582 0.929 . S
C595 C587 1.433 . S
C595 N597 1.384 . S
N596 C592 1.427 . S
N596 C593 1.384 . S
N597 C589 1.427 . S
N597 C595 1.384 . S
H598 C604 0.930 . S
H599 C608 0.930 . S
H600 C613 0.929 . S
H601 C611 0.929 . S
H602 C606 0.929 . S
H603 C612 0.929 . S
C604 H598 0.930 . S
C604 C605 1.367 . S
C604 C612 1.378 . S
C605 C604 1.367 . S
C605 C613 1.433 . S
C606 H602 0.929 . S
C606 C608 1.378 . S
C606 C610 1.350 . S
C607 C610 1.463 . S
C607 C612 1.350 . S
C607 N615 1.427 . S
C608 H599 0.930 . S
C608 C606 1.378 . S
C608 C609 1.367 . S
C609 C608 1.367 . S
C609 C611 1.433 . S
C610 C606 1.350 . S
C610 C607 1.463 . S
C610 N614 1.427 . S
C611 H601 0.929 . S
C611 C609 1.433 . S
C611 N614 1.384 . S
C612 H603 0.929 . S
C612 C604 1.378 . S
C612 C607 1.350 . S
C613 H600 0.929 . S
C613 C605 1.433 . S
C613 N615 1.384 . S
N614 C610 1.427 . S
N614 C611 1.384 . S
N615 C607 1.427 . S
N615 C613 1.384 . S
C191 C18 1.453 . S
C195 C179 1.451 . S
C209 C156 1.449 . S
C213 C41 1.458 . S
C227 C133 1.450 . S
C231 C64 1.459 . S
C245 C110 1.453 . S
C249 C87 1.451 . S
C263 C66 1.564 . S
C267 C20 1.570 . S
C281 C43 1.564 . S
C285 C89 1.568 . S
C299 C88 1.522 . S
C303 C42 1.519 . S
C317 C65 1.522 . S
C321 C19 1.521 . S
C335 C112 1.566 . S
C339 C158 1.565 . S
C353 C135 1.566 . S
C357 C181 1.565 . S
C371 C180 1.516 . S
C375 C134 1.519 . S
C389 C157 1.522 . S
C393 C111 1.521 . S
C407 C17 1.386 . S
C411 C16 1.385 . S
C425 C40 1.386 . S
C429 C39 1.386 . S
C443 C62 1.384 . S
C447 C63 1.385 . S
C461 C86 1.384 . S
C465 C85 1.382 . S
C479 C108 1.386 . S
C483 C109 1.386 . S
C497 C132 1.386 . S
C501 C131 1.386 . S
C515 C155 1.384 . S
C519 C154 1.382 . S
C533 C178 1.384 . S
C537 C177 1.383 . S
C551 C21 1.465 . S
C555 C44 1.465 . S
C569 C90 1.468 . S
C573 C67 1.470 . S
C587 C113 1.466 . S
C591 C136 1.464 . S
C605 C182 1.466 . S
C609 C159 1.472 . S
