# Generated by pormake.
# Topology ato, (4)-cn, num edge types: 1
# Building blocks:
#     Node 0, Type 0, BuildingBlock: CEKHIL_clean_sbu_0, # of connection points: 4
#     Node 1, Type 0, BuildingBlock: CEKHIL_clean_sbu_0, # of connection points: 4
#     Node 2, Type 0, BuildingBlock: CEKHIL_clean_sbu_0, # of connection points: 4
#     Node 3, Type 0, BuildingBlock: CEKHIL_clean_sbu_0, # of connection points: 4
#     Node 4, Type 0, BuildingBlock: CEKHIL_clean_sbu_0, # of connection points: 4
#     Node 5, Type 0, BuildingBlock: CEKHIL_clean_sbu_0, # of connection points: 4
#     Node 6, Type 0, BuildingBlock: CEKHIL_clean_sbu_0, # of connection points: 4
#     Node 7, Type 0, BuildingBlock: CEKHIL_clean_sbu_0, # of connection points: 4
#     Node 8, Type 0, BuildingBlock: CEKHIL_clean_sbu_0, # of connection points: 4
#     Node 9, Type 0, BuildingBlock: CEKHIL_clean_sbu_0, # of connection points: 4
#     Node 10, Type 0, BuildingBlock: CEKHIL_clean_sbu_0, # of connection points: 4
#     Node 11, Type 0, BuildingBlock: CEKHIL_clean_sbu_0, # of connection points: 4
#     Node 12, Type 0, BuildingBlock: CEKHIL_clean_sbu_0, # of connection points: 4
#     Node 13, Type 0, BuildingBlock: CEKHIL_clean_sbu_0, # of connection points: 4
#     Node 14, Type 0, BuildingBlock: CEKHIL_clean_sbu_0, # of connection points: 4
#     Node 15, Type 0, BuildingBlock: CEKHIL_clean_sbu_0, # of connection points: 4
#     Node 16, Type 0, BuildingBlock: CEKHIL_clean_sbu_0, # of connection points: 4
#     Node 17, Type 0, BuildingBlock: CEKHIL_clean_sbu_0, # of connection points: 4
#     Node 18, Type 0, BuildingBlock: CEKHIL_clean_sbu_0, # of connection points: 4
#     Node 19, Type 0, BuildingBlock: CEKHIL_clean_sbu_0, # of connection points: 4
#     Node 20, Type 0, BuildingBlock: CEKHIL_clean_sbu_0, # of connection points: 4
#     Node 21, Type 0, BuildingBlock: CEKHIL_clean_sbu_0, # of connection points: 4
#     Node 22, Type 0, BuildingBlock: CEKHIL_clean_sbu_0, # of connection points: 4
#     Node 23, Type 0, BuildingBlock: CEKHIL_clean_sbu_0, # of connection points: 4
#     Node 24, Type 0, BuildingBlock: CEKHIL_clean_sbu_0, # of connection points: 4
#     Node 25, Type 0, BuildingBlock: CEKHIL_clean_sbu_0, # of connection points: 4
#     Node 26, Type 0, BuildingBlock: CEKHIL_clean_sbu_0, # of connection points: 4
#     Node 27, Type 0, BuildingBlock: CEKHIL_clean_sbu_0, # of connection points: 4
#     Node 28, Type 0, BuildingBlock: CEKHIL_clean_sbu_0, # of connection points: 4
#     Node 29, Type 0, BuildingBlock: CEKHIL_clean_sbu_0, # of connection points: 4
#     Node 30, Type 0, BuildingBlock: CEKHIL_clean_sbu_0, # of connection points: 4
#     Node 31, Type 0, BuildingBlock: CEKHIL_clean_sbu_0, # of connection points: 4
#     Node 32, Type 0, BuildingBlock: CEKHIL_clean_sbu_0, # of connection points: 4
#     Node 33, Type 0, BuildingBlock: CEKHIL_clean_sbu_0, # of connection points: 4
#     Node 34, Type 0, BuildingBlock: CEKHIL_clean_sbu_0, # of connection points: 4
#     Node 35, Type 0, BuildingBlock: CEKHIL_clean_sbu_0, # of connection points: 4
#     Edge 36, Type (0, 0), BuildingBlock: UVAHIK_clean_linker_0, # of connection points: 2
#     Edge 37, Type (0, 0), BuildingBlock: UVAHIK_clean_linker_0, # of connection points: 2
#     Edge 38, Type (0, 0), BuildingBlock: UVAHIK_clean_linker_0, # of connection points: 2
#     Edge 39, Type (0, 0), BuildingBlock: UVAHIK_clean_linker_0, # of connection points: 2
#     Edge 40, Type (0, 0), BuildingBlock: UVAHIK_clean_linker_0, # of connection points: 2
#     Edge 41, Type (0, 0), BuildingBlock: UVAHIK_clean_linker_0, # of connection points: 2
#     Edge 42, Type (0, 0), BuildingBlock: UVAHIK_clean_linker_0, # of connection points: 2
#     Edge 43, Type (0, 0), BuildingBlock: UVAHIK_clean_linker_0, # of connection points: 2
#     Edge 44, Type (0, 0), BuildingBlock: UVAHIK_clean_linker_0, # of connection points: 2
#     Edge 45, Type (0, 0), BuildingBlock: UVAHIK_clean_linker_0, # of connection points: 2
#     Edge 46, Type (0, 0), BuildingBlock: UVAHIK_clean_linker_0, # of connection points: 2
#     Edge 47, Type (0, 0), BuildingBlock: UVAHIK_clean_linker_0, # of connection points: 2
#     Edge 48, Type (0, 0), BuildingBlock: UVAHIK_clean_linker_0, # of connection points: 2
#     Edge 49, Type (0, 0), BuildingBlock: UVAHIK_clean_linker_0, # of connection points: 2
#     Edge 50, Type (0, 0), BuildingBlock: UVAHIK_clean_linker_0, # of connection points: 2
#     Edge 51, Type (0, 0), BuildingBlock: UVAHIK_clean_linker_0, # of connection points: 2
#     Edge 52, Type (0, 0), BuildingBlock: UVAHIK_clean_linker_0, # of connection points: 2
#     Edge 53, Type (0, 0), BuildingBlock: UVAHIK_clean_linker_0, # of connection points: 2
#     Edge 54, Type (0, 0), BuildingBlock: UVAHIK_clean_linker_0, # of connection points: 2
#     Edge 55, Type (0, 0), BuildingBlock: UVAHIK_clean_linker_0, # of connection points: 2
#     Edge 56, Type (0, 0), BuildingBlock: UVAHIK_clean_linker_0, # of connection points: 2
#     Edge 57, Type (0, 0), BuildingBlock: UVAHIK_clean_linker_0, # of connection points: 2
#     Edge 58, Type (0, 0), BuildingBlock: UVAHIK_clean_linker_0, # of connection points: 2
#     Edge 59, Type (0, 0), BuildingBlock: UVAHIK_clean_linker_0, # of connection points: 2
#     Edge 60, Type (0, 0), BuildingBlock: UVAHIK_clean_linker_0, # of connection points: 2
#     Edge 61, Type (0, 0), BuildingBlock: UVAHIK_clean_linker_0, # of connection points: 2
#     Edge 62, Type (0, 0), BuildingBlock: UVAHIK_clean_linker_0, # of connection points: 2
#     Edge 63, Type (0, 0), BuildingBlock: UVAHIK_clean_linker_0, # of connection points: 2
#     Edge 64, Type (0, 0), BuildingBlock: UVAHIK_clean_linker_0, # of connection points: 2
#     Edge 65, Type (0, 0), BuildingBlock: UVAHIK_clean_linker_0, # of connection points: 2
#     Edge 66, Type (0, 0), BuildingBlock: UVAHIK_clean_linker_0, # of connection points: 2
#     Edge 67, Type (0, 0), BuildingBlock: UVAHIK_clean_linker_0, # of connection points: 2
#     Edge 68, Type (0, 0), BuildingBlock: UVAHIK_clean_linker_0, # of connection points: 2
#     Edge 69, Type (0, 0), BuildingBlock: UVAHIK_clean_linker_0, # of connection points: 2
#     Edge 70, Type (0, 0), BuildingBlock: UVAHIK_clean_linker_0, # of connection points: 2
#     Edge 71, Type (0, 0), BuildingBlock: UVAHIK_clean_linker_0, # of connection points: 2
#     Edge 72, Type (0, 0), BuildingBlock: UVAHIK_clean_linker_0, # of connection points: 2
#     Edge 73, Type (0, 0), BuildingBlock: UVAHIK_clean_linker_0, # of connection points: 2
#     Edge 74, Type (0, 0), BuildingBlock: UVAHIK_clean_linker_0, # of connection points: 2
#     Edge 75, Type (0, 0), BuildingBlock: UVAHIK_clean_linker_0, # of connection points: 2
#     Edge 76, Type (0, 0), BuildingBlock: UVAHIK_clean_linker_0, # of connection points: 2
#     Edge 77, Type (0, 0), BuildingBlock: UVAHIK_clean_linker_0, # of connection points: 2
#     Edge 78, Type (0, 0), BuildingBlock: UVAHIK_clean_linker_0, # of connection points: 2
#     Edge 79, Type (0, 0), BuildingBlock: UVAHIK_clean_linker_0, # of connection points: 2
#     Edge 80, Type (0, 0), BuildingBlock: UVAHIK_clean_linker_0, # of connection points: 2
#     Edge 81, Type (0, 0), BuildingBlock: UVAHIK_clean_linker_0, # of connection points: 2
#     Edge 82, Type (0, 0), BuildingBlock: UVAHIK_clean_linker_0, # of connection points: 2
#     Edge 83, Type (0, 0), BuildingBlock: UVAHIK_clean_linker_0, # of connection points: 2
#     Edge 84, Type (0, 0), BuildingBlock: UVAHIK_clean_linker_0, # of connection points: 2
#     Edge 85, Type (0, 0), BuildingBlock: UVAHIK_clean_linker_0, # of connection points: 2
#     Edge 86, Type (0, 0), BuildingBlock: UVAHIK_clean_linker_0, # of connection points: 2
#     Edge 87, Type (0, 0), BuildingBlock: UVAHIK_clean_linker_0, # of connection points: 2
#     Edge 88, Type (0, 0), BuildingBlock: UVAHIK_clean_linker_0, # of connection points: 2
#     Edge 89, Type (0, 0), BuildingBlock: UVAHIK_clean_linker_0, # of connection points: 2
#     Edge 90, Type (0, 0), BuildingBlock: UVAHIK_clean_linker_0, # of connection points: 2
#     Edge 91, Type (0, 0), BuildingBlock: UVAHIK_clean_linker_0, # of connection points: 2
#     Edge 92, Type (0, 0), BuildingBlock: UVAHIK_clean_linker_0, # of connection points: 2
#     Edge 93, Type (0, 0), BuildingBlock: UVAHIK_clean_linker_0, # of connection points: 2
#     Edge 94, Type (0, 0), BuildingBlock: UVAHIK_clean_linker_0, # of connection points: 2
#     Edge 95, Type (0, 0), BuildingBlock: UVAHIK_clean_linker_0, # of connection points: 2
#     Edge 96, Type (0, 0), BuildingBlock: UVAHIK_clean_linker_0, # of connection points: 2
#     Edge 97, Type (0, 0), BuildingBlock: UVAHIK_clean_linker_0, # of connection points: 2
#     Edge 98, Type (0, 0), BuildingBlock: UVAHIK_clean_linker_0, # of connection points: 2
#     Edge 99, Type (0, 0), BuildingBlock: UVAHIK_clean_linker_0, # of connection points: 2
#     Edge 100, Type (0, 0), BuildingBlock: UVAHIK_clean_linker_0, # of connection points: 2
#     Edge 101, Type (0, 0), BuildingBlock: UVAHIK_clean_linker_0, # of connection points: 2
#     Edge 102, Type (0, 0), BuildingBlock: UVAHIK_clean_linker_0, # of connection points: 2
#     Edge 103, Type (0, 0), BuildingBlock: UVAHIK_clean_linker_0, # of connection points: 2
#     Edge 104, Type (0, 0), BuildingBlock: UVAHIK_clean_linker_0, # of connection points: 2
#     Edge 105, Type (0, 0), BuildingBlock: UVAHIK_clean_linker_0, # of connection points: 2
#     Edge 106, Type (0, 0), BuildingBlock: UVAHIK_clean_linker_0, # of connection points: 2
#     Edge 107, Type (0, 0), BuildingBlock: UVAHIK_clean_linker_0, # of connection points: 2
# Relax obj value: 0.085
# Max RMSD: 0.095
# Mean RMSD: 0.095
data_MOF--net-ato--node1-CEKHIL_clean_sbu_0--edge1-UVAHIK_clean_linker_0
_symmetry_space_group_name_H-M    P1
_symmetry_Int_Tables_number       1
_symmetry_cell_setting            triclinic
loop_
_symmetry_equiv_pos_as_xyz
'x, y, z'
_cell_length_a     131.85708
_cell_length_b     131.87441
_cell_length_c     30.168761
_cell_angle_alpha  89.995069
_cell_angle_beta   90.003778
_cell_angle_gamma 120.01414
loop_
_atom_site_label
_atom_site_type_symbol
_atom_site_fract_x
_atom_site_fract_y
_atom_site_fract_z
_atom_type_partial_charge
Co0 Co 0.25108 0.05444 0.26125 0.0
O1 O 0.23795 0.04323 0.29604 0.0
O2 O 0.25529 0.04444 0.29399 0.0
C3 C 0.24954 0.07021 0.28038 0.0
O4 O 0.26682 0.06504 0.23167 0.0
Co5 Co 0.24812 0.06865 0.18487 0.0
O6 O 0.26547 0.07821 0.18844 0.0
C7 C 0.24064 0.04363 0.172 0.0
C8 C 0.24475 0.03945 0.31036 0.0
C9 C 0.27148 0.07432 0.20741 0.0
O10 O 0.24566 0.04344 0.20843 0.0
O11 O 0.23971 0.05241 0.15951 0.0
O12 O 0.25481 0.0665 0.3066 0.0
O13 O 0.24466 0.06381 0.24599 0.0
Co14 Co 0.94704 0.19767 0.26595 0.0
O15 O 0.95826 0.19564 0.30049 0.0
O16 O 0.95657 0.21152 0.30097 0.0
C17 C 0.93118 0.18011 0.28179 0.0
O18 O 0.93642 0.20292 0.2374 0.0
Co19 Co 0.9337 0.18145 0.18614 0.0
O20 O 0.92517 0.19029 0.18432 0.0
C21 C 0.95876 0.19896 0.17802 0.0
C22 C 0.96169 0.20602 0.3164 0.0
C23 C 0.92826 0.19937 0.20804 0.0
O24 O 0.9584 0.204 0.21418 0.0
O25 O 0.95026 0.1892 0.16446 0.0
O26 O 0.93475 0.18873 0.30972 0.0
O27 O 0.93787 0.18205 0.24791 0.0
Co28 Co 0.80394 0.74957 0.26567 0.0
O29 O 0.80638 0.76321 0.29848 0.0
O30 O 0.79036 0.74582 0.30163 0.0
C31 C 0.82157 0.75133 0.28096 0.0
O32 O 0.79826 0.73329 0.23975 0.0
Co33 Co 0.81958 0.75101 0.18562 0.0
O34 O 0.81091 0.7337 0.1887 0.0
C35 C 0.80057 0.7565 0.17255 0.0
C36 C 0.7961 0.75657 0.31576 0.0
C37 C 0.80173 0.72817 0.21233 0.0
O38 O 0.79724 0.75401 0.2133 0.0
O39 O 0.80949 0.75639 0.15647 0.0
O40 O 0.81311 0.74661 0.30969 0.0
O41 O 0.81945 0.75568 0.24625 0.0
Co42 Co 0.05489 0.25089 0.73966 0.0
O43 O 0.04373 0.23781 0.70434 0.0
O44 O 0.04572 0.2555 0.7038 0.0
C45 C 0.07067 0.24896 0.72521 0.0
O46 O 0.06553 0.26664 0.76898 0.0
Co47 Co 0.06752 0.24751 0.82073 0.0
O48 O 0.07631 0.26488 0.8231 0.0
C49 C 0.04256 0.24048 0.82681 0.0
C50 C 0.04052 0.24489 0.68814 0.0
C51 C 0.07352 0.27106 0.79906 0.0
O52 O 0.04325 0.24593 0.79042 0.0
O53 O 0.05085 0.23901 0.8414 0.0
O54 O 0.06737 0.25417 0.69693 0.0
O55 O 0.06376 0.24418 0.75854 0.0
Co56 Co 0.75146 0.80532 0.74115 0.0
O57 O 0.76478 0.80747 0.70691 0.0
O58 O 0.74759 0.79117 0.70851 0.0
C59 C 0.75268 0.82247 0.72154 0.0
O60 O 0.73554 0.79988 0.76984 0.0
Co61 Co 0.75391 0.8224 0.81719 0.0
O62 O 0.73659 0.81316 0.81932 0.0
C63 C 0.76096 0.80462 0.83274 0.0
C64 C 0.75814 0.79688 0.69237 0.0
C65 C 0.73078 0.80362 0.79785 0.0
O66 O 0.75685 0.79985 0.79461 0.0
O67 O 0.76148 0.81413 0.84534 0.0
O68 O 0.74764 0.81346 0.69534 0.0
O69 O 0.75757 0.8211 0.75624 0.0
Co70 Co 0.19785 0.94638 0.73687 0.0
O71 O 0.19541 0.95698 0.70031 0.0
O72 O 0.21163 0.95593 0.70128 0.0
C73 C 0.18046 0.93017 0.72243 0.0
O74 O 0.20347 0.93631 0.76754 0.0
Co75 Co 0.18187 0.93369 0.81789 0.0
O76 O 0.19093 0.92541 0.82148 0.0
C77 C 0.19915 0.95885 0.82309 0.0
C78 C 0.20584 0.96063 0.6846 0.0
C79 C 0.20004 0.92842 0.79795 0.0
O80 O 0.20405 0.95823 0.78701 0.0
O81 O 0.18951 0.95041 0.83784 0.0
O82 O 0.18909 0.93362 0.6946 0.0
O83 O 0.18229 0.93712 0.75535 0.0
Co84 Co 0.75095 0.94664 0.74013 0.0
O85 O 0.76453 0.95797 0.70739 0.0
O86 O 0.7473 0.957 0.70699 0.0
C87 C 0.75238 0.93082 0.72077 0.0
O88 O 0.73477 0.93602 0.76672 0.0
Co89 Co 0.7526 0.93161 0.81642 0.0
O90 O 0.73526 0.92338 0.81561 0.0
C91 C 0.75951 0.95638 0.83302 0.0
C92 C 0.75797 0.96192 0.69196 0.0
C93 C 0.7297 0.92728 0.79356 0.0
O94 O 0.75589 0.95729 0.7942 0.0
O95 O 0.75978 0.94727 0.84582 0.0
O96 O 0.74754 0.93487 0.69395 0.0
O97 O 0.75694 0.93692 0.7561 0.0
Co98 Co 0.05499 0.80404 0.74198 0.0
O99 O 0.04426 0.80646 0.70614 0.0
O100 O 0.04515 0.79016 0.70731 0.0
C101 C 0.0712 0.82132 0.72597 0.0
O102 O 0.06514 0.79843 0.77216 0.0
Co103 Co 0.06828 0.82038 0.82157 0.0
O104 O 0.07635 0.81112 0.8252 0.0
C105 C 0.0431 0.80327 0.82906 0.0
C106 C 0.04045 0.79596 0.69084 0.0
C107 C 0.07314 0.8019 0.80214 0.0
O108 O 0.04344 0.79813 0.79317 0.0
O109 O 0.05168 0.81296 0.84272 0.0
O110 O 0.06754 0.81257 0.69861 0.0
O111 O 0.06444 0.81966 0.75939 0.0
Co112 Co 0.1978 0.25124 0.74079 0.0
O113 O 0.19578 0.23808 0.70577 0.0
O114 O 0.21152 0.25576 0.70474 0.0
C115 C 0.18009 0.24934 0.72649 0.0
O116 O 0.20299 0.26705 0.76972 0.0
Co117 Co 0.18193 0.24807 0.82207 0.0
O118 O 0.19054 0.26545 0.82392 0.0
C119 C 0.19972 0.24087 0.82795 0.0
C120 C 0.20607 0.24513 0.68934 0.0
C121 C 0.19948 0.27156 0.79965 0.0
O122 O 0.20449 0.24631 0.79157 0.0
O123 O 0.18999 0.23946 0.84262 0.0
O124 O 0.18858 0.25448 0.69806 0.0
O125 O 0.18223 0.2446 0.75993 0.0
Co126 Co 0.94663 0.74966 0.26623 0.0
O127 O 0.95733 0.76289 0.30194 0.0
O128 O 0.95633 0.74563 0.30175 0.0
C129 C 0.9304 0.7508 0.28078 0.0
O130 O 0.93651 0.73384 0.23658 0.0
Co131 Co 0.93363 0.75252 0.18523 0.0
O132 O 0.92538 0.73516 0.18284 0.0
C133 C 0.9588 0.76052 0.1792 0.0
C134 C 0.96107 0.75618 0.3178 0.0
C135 C 0.9285 0.72921 0.20663 0.0
O136 O 0.95832 0.75514 0.21555 0.0
O137 O 0.95028 0.7616 0.16457 0.0
O138 O 0.93399 0.74581 0.30894 0.0
O139 O 0.93726 0.75581 0.24753 0.0
Co140 Co 0.25149 0.19658 0.26519 0.0
O141 O 0.23837 0.19486 0.29966 0.0
O142 O 0.25602 0.21065 0.29912 0.0
C143 C 0.24961 0.17904 0.28276 0.0
O144 O 0.26725 0.20151 0.23627 0.0
Co145 Co 0.24818 0.17981 0.18691 0.0
O146 O 0.26555 0.18853 0.18419 0.0
C147 C 0.24101 0.19757 0.17689 0.0
C148 C 0.24541 0.2053 0.31481 0.0
C149 C 0.27169 0.19773 0.20711 0.0
O150 O 0.24645 0.20271 0.21285 0.0
O151 O 0.2396 0.18769 0.16407 0.0
O152 O 0.25485 0.18784 0.30979 0.0
O153 O 0.24482 0.18082 0.24861 0.0
Co154 Co 0.80483 0.0549 0.26486 0.0
O155 O 0.80709 0.0436 0.29779 0.0
O156 O 0.7911 0.04503 0.30012 0.0
C157 C 0.82244 0.07069 0.28119 0.0
O158 O 0.79934 0.06561 0.23848 0.0
Co159 Co 0.82092 0.06918 0.18577 0.0
O160 O 0.81225 0.07782 0.188 0.0
C161 C 0.80182 0.04475 0.17156 0.0
C162 C 0.79676 0.03997 0.31456 0.0
C163 C 0.80298 0.07422 0.21103 0.0
O164 O 0.79829 0.04387 0.21206 0.0
O165 O 0.81091 0.05376 0.15619 0.0
O166 O 0.81387 0.06693 0.30941 0.0
O167 O 0.82043 0.06427 0.24643 0.0
Co168 Co 0.9187 0.38799 0.59934 0.0
O169 O 0.90542 0.37726 0.63471 0.0
O170 O 0.92273 0.37839 0.63545 0.0
C171 C 0.91734 0.40412 0.61342 0.0
O172 O 0.93458 0.39819 0.57018 0.0
Co173 Co 0.91592 0.40089 0.51786 0.0
O174 O 0.9333 0.40928 0.51615 0.0
C175 C 0.90806 0.37575 0.51229 0.0
C176 C 0.91214 0.37361 0.65114 0.0
C177 C 0.93924 0.40621 0.54029 0.0
O178 O 0.9134 0.37628 0.54878 0.0
O179 O 0.90694 0.38422 0.49739 0.0
O180 O 0.92236 0.40063 0.64183 0.0
O181 O 0.91246 0.39725 0.58007 0.0
Co182 Co 0.613 0.53001 0.59812 0.0
O183 O 0.62353 0.52743 0.63462 0.0
O184 O 0.62274 0.54379 0.63335 0.0
C185 C 0.59663 0.51277 0.61285 0.0
O186 O 0.60306 0.53577 0.56735 0.0
Co187 Co 0.6001 0.51394 0.51742 0.0
O188 O 0.59201 0.52319 0.51376 0.0
C189 C 0.62531 0.53098 0.51177 0.0
C190 C 0.62734 0.53792 0.65006 0.0
C191 C 0.59515 0.53236 0.53704 0.0
O192 O 0.6248 0.53599 0.54775 0.0
O193 O 0.61678 0.52137 0.49728 0.0
O194 O 0.60025 0.52143 0.64063 0.0
O195 O 0.60355 0.51445 0.57995 0.0
Co196 Co 0.47113 0.08354 0.60305 0.0
O197 O 0.47358 0.09674 0.63877 0.0
O198 O 0.45724 0.07958 0.63759 0.0
C199 C 0.48839 0.0846 0.61955 0.0
O200 O 0.46545 0.06771 0.57326 0.0
Co201 Co 0.48752 0.08625 0.52403 0.0
O202 O 0.47831 0.06891 0.52152 0.0
C203 C 0.47035 0.09426 0.51471 0.0
C204 C 0.46308 0.09008 0.65414 0.0
C205 C 0.46899 0.06303 0.54414 0.0
O206 O 0.46534 0.08922 0.55146 0.0
O207 O 0.4799 0.09504 0.50101 0.0
O208 O 0.4796 0.07952 0.64677 0.0
O209 O 0.48676 0.08963 0.58586 0.0
Co210 Co 0.72124 0.58376 0.07403 0.0
O211 O 0.71059 0.57069 0.03767 0.0
O212 O 0.71129 0.58779 0.04008 0.0
C213 C 0.73759 0.58302 0.05751 0.0
O214 O 0.73127 0.59941 0.10505 0.0
Co215 Co 0.73457 0.58048 0.15302 0.0
O216 O 0.74254 0.5978 0.15749 0.0
C217 C 0.70938 0.57227 0.16085 0.0
C218 C 0.70667 0.57735 0.02307 0.0
C219 C 0.73927 0.60385 0.13506 0.0
O220 O 0.70969 0.57783 0.12522 0.0
O221 O 0.71799 0.57117 0.17421 0.0
O222 O 0.73381 0.58808 0.0305 0.0
O223 O 0.73083 0.5777 0.09067 0.0
Co224 Co 0.41725 0.13763 0.07847 0.0
O225 O 0.43088 0.13948 0.0473 0.0
O226 O 0.41354 0.12337 0.04703 0.0
C227 C 0.41921 0.15494 0.05621 0.0
O228 O 0.401 0.13245 0.10374 0.0
Co229 Co 0.41842 0.15498 0.15102 0.0
O230 O 0.4013 0.14737 0.14083 0.0
C231 C 0.42501 0.13701 0.17302 0.0
C232 C 0.42425 0.12892 0.03245 0.0
C233 C 0.39577 0.13723 0.12337 0.0
O234 O 0.42186 0.13224 0.13429 0.0
O235 O 0.42499 0.14639 0.1839 0.0
O236 O 0.41426 0.14586 0.03031 0.0
O237 O 0.42341 0.15346 0.09261 0.0
Co238 Co 0.86358 0.27968 0.075 0.0
O239 O 0.86119 0.29047 0.03942 0.0
O240 O 0.8775 0.28959 0.04071 0.0
C241 C 0.84636 0.26344 0.05875 0.0
O242 O 0.86918 0.26949 0.10483 0.0
Co243 Co 0.84719 0.26624 0.15434 0.0
O244 O 0.85636 0.25805 0.15715 0.0
C245 C 0.86432 0.29139 0.16262 0.0
C246 C 0.87172 0.29433 0.02434 0.0
C247 C 0.86562 0.26134 0.13427 0.0
O248 O 0.86944 0.29114 0.12652 0.0
O249 O 0.85464 0.28276 0.17618 0.0
O250 O 0.85511 0.2672 0.03131 0.0
O251 O 0.84796 0.27015 0.09223 0.0
Co252 Co 0.41668 0.27891 0.07193 0.0
O253 O 0.42991 0.28982 0.03684 0.0
O254 O 0.41267 0.28883 0.03768 0.0
C255 C 0.41788 0.26283 0.05504 0.0
O256 O 0.40084 0.26859 0.10123 0.0
Co257 Co 0.41954 0.26541 0.15099 0.0
O258 O 0.40218 0.25711 0.15344 0.0
C259 C 0.42744 0.29051 0.15996 0.0
C260 C 0.42322 0.29363 0.02158 0.0
C261 C 0.39622 0.26039 0.13044 0.0
O262 O 0.42214 0.29028 0.12369 0.0
O263 O 0.42849 0.2819 0.17358 0.0
O264 O 0.41283 0.26658 0.02788 0.0
O265 O 0.42287 0.26944 0.08896 0.0
Co266 Co 0.72125 0.13707 0.07304 0.0
O267 O 0.71072 0.1396 0.03637 0.0
O268 O 0.71148 0.12323 0.03811 0.0
C269 C 0.73764 0.15426 0.0579 0.0
O270 O 0.73119 0.13134 0.10404 0.0
Co271 Co 0.73424 0.15328 0.15331 0.0
O272 O 0.74229 0.144 0.15734 0.0
C273 C 0.70901 0.1363 0.15928 0.0
C274 C 0.70691 0.1291 0.02112 0.0
C275 C 0.73913 0.13479 0.1343 0.0
O276 O 0.70948 0.13118 0.12354 0.0
O277 O 0.71756 0.14595 0.17341 0.0
O278 O 0.73399 0.14554 0.03035 0.0
O279 O 0.73074 0.15265 0.09079 0.0
Co280 Co 0.86389 0.5844 0.07022 0.0
O281 O 0.86146 0.57123 0.03445 0.0
O282 O 0.87779 0.58842 0.03575 0.0
C283 C 0.84666 0.58342 0.05429 0.0
O284 O 0.86952 0.60016 0.10031 0.0
Co285 Co 0.84754 0.58137 0.14982 0.0
O286 O 0.85675 0.59872 0.15294 0.0
C287 C 0.86458 0.57324 0.15734 0.0
C288 C 0.87199 0.57791 0.01933 0.0
C289 C 0.86599 0.60472 0.12999 0.0
O290 O 0.86976 0.57874 0.12151 0.0
O291 O 0.85489 0.57214 0.17093 0.0
O292 O 0.85539 0.58844 0.02677 0.0
O293 O 0.84829 0.57829 0.08763 0.0
Co294 Co 0.61308 0.08304 0.59744 0.0
O295 O 0.62413 0.09628 0.6322 0.0
O296 O 0.62314 0.07904 0.63084 0.0
C297 C 0.59713 0.08435 0.61561 0.0
O298 O 0.6027 0.06721 0.56816 0.0
Co299 Co 0.5989 0.08558 0.52003 0.0
O300 O 0.58942 0.06824 0.5245 0.0
C301 C 0.62401 0.09337 0.50818 0.0
C302 C 0.628 0.08959 0.64697 0.0
C303 C 0.59341 0.06238 0.54396 0.0
O304 O 0.62419 0.08849 0.545 0.0
O305 O 0.61517 0.0941 0.49494 0.0
O306 O 0.60091 0.07923 0.64231 0.0
O307 O 0.60357 0.08923 0.58129 0.0
Co308 Co 0.91807 0.53034 0.59444 0.0
O309 O 0.90496 0.52785 0.63075 0.0
O310 O 0.92219 0.54413 0.62972 0.0
C311 C 0.91698 0.51301 0.6094 0.0
O312 O 0.93378 0.536 0.5639 0.0
Co313 Co 0.91489 0.51426 0.51385 0.0
O314 O 0.93224 0.52346 0.51014 0.0
C315 C 0.9069 0.53144 0.5079 0.0
C316 C 0.91169 0.53831 0.64631 0.0
C317 C 0.93828 0.5326 0.53354 0.0
O318 O 0.91239 0.53641 0.54399 0.0
O319 O 0.90577 0.52181 0.49343 0.0
O320 O 0.92211 0.52169 0.63707 0.0
O321 O 0.91185 0.51475 0.5763 0.0
Co322 Co 0.47068 0.3872 0.59659 0.0
O323 O 0.4732 0.37653 0.6324 0.0
O324 O 0.45685 0.37735 0.63142 0.0
C325 C 0.48791 0.40351 0.61208 0.0
O326 O 0.46497 0.39729 0.56667 0.0
Co327 Co 0.48684 0.40046 0.51652 0.0
O328 O 0.47765 0.40863 0.51384 0.0
C329 C 0.46985 0.37525 0.50954 0.0
C330 C 0.4627 0.37269 0.64782 0.0
C331 C 0.46846 0.40538 0.53705 0.0
O332 O 0.46474 0.37561 0.5455 0.0
O333 O 0.4795 0.38385 0.49561 0.0
O334 O 0.47922 0.39979 0.63979 0.0
O335 O 0.48625 0.39672 0.57878 0.0
Co336 Co 0.58502 0.72149 0.92706 0.0
O337 O 0.57135 0.70996 0.95887 0.0
O338 O 0.58861 0.711 0.95962 0.0
C339 C 0.58339 0.73716 0.94758 0.0
O340 O 0.60129 0.7323 0.90146 0.0
Co341 Co 0.58371 0.73714 0.85231 0.0
O342 O 0.60103 0.74534 0.85405 0.0
C343 C 0.57682 0.71241 0.83338 0.0
C344 C 0.5779 0.70598 0.97423 0.0
C345 C 0.60649 0.74123 0.87558 0.0
O346 O 0.58028 0.71114 0.87203 0.0
O347 O 0.57661 0.72165 0.82183 0.0
O348 O 0.5882 0.73302 0.97416 0.0
O349 O 0.57904 0.73125 0.91174 0.0
Co350 Co 0.28064 0.86388 0.9322 0.0
O351 O 0.29137 0.86129 0.9673 0.0
O352 O 0.29075 0.87774 0.96638 0.0
C353 C 0.26429 0.8468 0.9488 0.0
O354 O 0.27056 0.8697 0.90296 0.0
Co355 Co 0.26688 0.84763 0.85303 0.0
O356 O 0.25886 0.85696 0.85095 0.0
C357 C 0.2921 0.8644 0.84426 0.0
C358 C 0.29537 0.87183 0.98251 0.0
C359 C 0.26233 0.86623 0.87392 0.0
O360 O 0.29199 0.86959 0.88035 0.0
O361 O 0.28336 0.85478 0.83085 0.0
O362 O 0.26823 0.85556 0.97625 0.0
O363 O 0.27089 0.8483 0.91502 0.0
Co364 Co 0.13761 0.41626 0.93054 0.0
O365 O 0.13996 0.42952 0.96548 0.0
O366 O 0.12372 0.41225 0.965 0.0
C367 C 0.15495 0.41754 0.94701 0.0
O368 O 0.13208 0.40039 0.90148 0.0
Co369 Co 0.15393 0.41902 0.85127 0.0
O370 O 0.14485 0.40166 0.8492 0.0
C371 C 0.13683 0.42708 0.84282 0.0
C372 C 0.12947 0.42283 0.98089 0.0
C373 C 0.13564 0.39573 0.87235 0.0
O374 O 0.13165 0.42166 0.87877 0.0
O375 O 0.14653 0.42816 0.82944 0.0
O376 O 0.14621 0.4125 0.97449 0.0
O377 O 0.15323 0.42245 0.91314 0.0
Co378 Co 0.38889 0.91807 0.40778 0.0
O379 O 0.37832 0.90483 0.37192 0.0
O380 O 0.37908 0.92197 0.37243 0.0
C381 C 0.40527 0.91722 0.39302 0.0
O382 O 0.39885 0.93389 0.43766 0.0
Co383 Co 0.40199 0.91531 0.48862 0.0
O384 O 0.41006 0.93266 0.4913 0.0
C385 C 0.37676 0.90704 0.49474 0.0
C386 C 0.37447 0.91145 0.3562 0.0
C387 C 0.40684 0.93856 0.46765 0.0
O388 O 0.37719 0.91241 0.45844 0.0
O389 O 0.38535 0.90607 0.50934 0.0
O390 O 0.40157 0.92214 0.36502 0.0
O391 O 0.39843 0.91209 0.42623 0.0
Co392 Co 0.08409 0.47094 0.406 0.0
O393 O 0.09719 0.47335 0.36986 0.0
O394 O 0.07992 0.45712 0.37086 0.0
C395 C 0.08522 0.48828 0.39098 0.0
O396 O 0.06836 0.46536 0.4363 0.0
Co397 Co 0.08728 0.48705 0.48654 0.0
O398 O 0.06992 0.47801 0.48962 0.0
C399 C 0.09511 0.46975 0.49286 0.0
C400 C 0.09042 0.46289 0.35434 0.0
C401 C 0.06386 0.46886 0.4663 0.0
O402 O 0.08967 0.46482 0.45664 0.0
O403 O 0.09627 0.4794 0.50732 0.0
O404 O 0.08013 0.47962 0.3632 0.0
O405 O 0.09033 0.48652 0.42411 0.0
Co406 Co 0.53074 0.61317 0.40244 0.0
O407 O 0.52824 0.62401 0.36744 0.0
O408 O 0.54454 0.62312 0.36752 0.0
C409 C 0.5134 0.59702 0.38629 0.0
O410 O 0.53648 0.60295 0.43119 0.0
Co411 Co 0.51459 0.59931 0.4818 0.0
O412 O 0.52379 0.59116 0.48312 0.0
C413 C 0.53175 0.6245 0.49134 0.0
C414 C 0.53869 0.62783 0.35158 0.0
C415 C 0.53304 0.59467 0.46 0.0
O416 O 0.53669 0.62454 0.45432 0.0
O417 O 0.52223 0.61569 0.50509 0.0
O418 O 0.5221 0.60075 0.35863 0.0
O419 O 0.51516 0.60362 0.42026 0.0
Co420 Co 0.08411 0.61342 0.40596 0.0
O421 O 0.09773 0.62475 0.37342 0.0
O422 O 0.08031 0.62331 0.37053 0.0
C423 C 0.08597 0.59766 0.38974 0.0
O424 O 0.06786 0.60266 0.43191 0.0
Co425 Co 0.08581 0.59909 0.48513 0.0
O426 O 0.0685 0.59041 0.48234 0.0
C427 C 0.09107 0.62349 0.49942 0.0
C428 C 0.09106 0.62838 0.35641 0.0
C429 C 0.06286 0.59402 0.4592 0.0
O430 O 0.08849 0.6244 0.45885 0.0
O431 O 0.09114 0.61448 0.51482 0.0
O432 O 0.0812 0.60143 0.36135 0.0
O433 O 0.09032 0.60406 0.42459 0.0
Co434 Co 0.38839 0.47066 0.40805 0.0
O435 O 0.37753 0.47309 0.37301 0.0
O436 O 0.37844 0.45679 0.37366 0.0
C437 C 0.40455 0.48794 0.3915 0.0
O438 O 0.39863 0.46501 0.43706 0.0
Co439 Co 0.40206 0.48688 0.4873 0.0
O440 O 0.41021 0.47768 0.48943 0.0
C441 C 0.37687 0.46991 0.49599 0.0
C442 C 0.37368 0.46259 0.35762 0.0
C443 C 0.40683 0.46846 0.46619 0.0
O444 O 0.37703 0.46477 0.45984 0.0
O445 O 0.38555 0.47956 0.50947 0.0
O446 O 0.40077 0.47918 0.36409 0.0
O447 O 0.39794 0.48628 0.42543 0.0
Co448 Co 0.53101 0.91747 0.40994 0.0
O449 O 0.52876 0.90434 0.37436 0.0
O450 O 0.54503 0.92157 0.37611 0.0
C451 C 0.51375 0.9163 0.3927 0.0
O452 O 0.53646 0.9332 0.44009 0.0
Co453 Co 0.51431 0.91457 0.48809 0.0
O454 O 0.52203 0.9319 0.48381 0.0
C455 C 0.53172 0.90686 0.49851 0.0
C456 C 0.53931 0.91107 0.35951 0.0
C457 C 0.53188 0.93789 0.46447 0.0
O458 O 0.53673 0.91186 0.46175 0.0
O459 O 0.52215 0.90604 0.5122 0.0
O460 O 0.5226 0.92143 0.36577 0.0
O461 O 0.51533 0.91125 0.42644 0.0
Co462 Co 0.28012 0.41653 0.93261 0.0
O463 O 0.29091 0.42969 0.96826 0.0
O464 O 0.28985 0.41241 0.96759 0.0
C465 C 0.264 0.41776 0.9482 0.0
O466 O 0.26987 0.40075 0.90276 0.0
Co467 Co 0.26704 0.41964 0.8525 0.0
O468 O 0.25866 0.40228 0.84981 0.0
C469 C 0.29216 0.42745 0.84541 0.0
C470 C 0.29463 0.42295 0.98381 0.0
C471 C 0.26178 0.39623 0.87306 0.0
O472 O 0.29171 0.42203 0.88159 0.0
O473 O 0.28365 0.42861 0.83123 0.0
O474 O 0.26759 0.41266 0.97581 0.0
O475 O 0.27078 0.4228 0.91478 0.0
Co476 Co 0.58532 0.86356 0.93446 0.0
O477 O 0.57226 0.86121 0.97072 0.0
O478 O 0.58945 0.87752 0.96875 0.0
C479 C 0.58427 0.84631 0.95088 0.0
O480 O 0.60099 0.86911 0.90365 0.0
Co481 Co 0.582 0.84706 0.85523 0.0
O482 O 0.59933 0.85634 0.85066 0.0
C483 C 0.57393 0.86415 0.84774 0.0
C484 C 0.57898 0.87175 0.9856 0.0
C485 C 0.60542 0.86559 0.87343 0.0
O486 O 0.57952 0.86935 0.88338 0.0
O487 O 0.57276 0.85442 0.83421 0.0
O488 O 0.58946 0.85514 0.97786 0.0
O489 O 0.57909 0.84789 0.91756 0.0
Co490 Co 0.13873 0.72168 0.93051 0.0
O491 O 0.14122 0.71056 0.96365 0.0
O492 O 0.12485 0.71131 0.96414 0.0
C493 C 0.15591 0.73778 0.94873 0.0
O494 O 0.13292 0.73207 0.90372 0.0
Co495 Co 0.15512 0.73662 0.85324 0.0
O496 O 0.14585 0.74468 0.85419 0.0
C497 C 0.13747 0.71171 0.838 0.0
C498 C 0.13071 0.70653 0.97925 0.0
C499 C 0.13643 0.74073 0.8766 0.0
O500 O 0.13299 0.71087 0.87688 0.0
O501 O 0.14678 0.72084 0.82478 0.0
O502 O 0.14712 0.73365 0.97611 0.0
O503 O 0.15435 0.73154 0.91379 0.0
C504 C 0.22171 0.9728 0.6298 0.0
C505 C 0.21056 0.96919 0.64766 0.0
C506 C 0.22577 0.98029 0.59299 0.0
C507 C 0.21495 0.98985 0.49777 0.0
H508 H 0.24694 0.01554 0.49012 0.0
C509 C 0.2296 0.02577 0.36412 0.0
C510 C 0.24086 0.03045 0.34577 0.0
C511 C 0.22611 0.01792 0.39963 0.0
C512 C 0.23803 0.0083 0.49138 0.0
H513 H 0.19506 0.97083 0.64141 0.0
H514 H 0.20215 0.9839 0.57762 0.0
H515 H 0.24063 0.00288 0.55535 0.0
H516 H 0.25723 0.03036 0.34988 0.0
H517 H 0.25108 0.01649 0.41153 0.0
H518 H 0.21231 0.99522 0.43395 0.0
C519 C 0.20771 0.98084 0.59161 0.0
C520 C 0.2344 0.00105 0.52887 0.0
C521 C 0.20367 0.97341 0.62843 0.0
C522 C 0.24849 0.02692 0.36326 0.0
C523 C 0.24499 0.01904 0.39885 0.0
C524 C 0.21858 0.99706 0.46029 0.0
C525 C 0.21875 0.98427 0.57308 0.0
C526 C 0.22278 0.99181 0.53272 0.0
C527 C 0.23378 0.01451 0.41774 0.0
C528 C 0.23013 0.00646 0.45674 0.0
H529 H 0.22723 0.9697 0.64378 0.0
H530 H 0.23429 0.9827 0.57941 0.0
H531 H 0.206 0.98267 0.49919 0.0
H532 H 0.22352 0.02835 0.35163 0.0
H533 H 0.21748 0.01477 0.41363 0.0
C534 C 0.03192 0.24962 0.62273 0.0
C535 C 0.03186 0.24124 0.6517 0.0
C536 C 0.02436 0.24613 0.58621 0.0
C537 C 0.99639 0.22377 0.54445 0.0
H538 H 0.00983 0.23218 0.42647 0.0
C539 C 0.97063 0.21944 0.38132 0.0
C540 C 0.97046 0.21098 0.35248 0.0
C541 C 0.97824 0.22344 0.4177 0.0
C542 C 0.006 0.22983 0.45927 0.0
H543 H 0.02362 0.22268 0.66595 0.0
H544 H 0.01005 0.21662 0.60299 0.0
H545 H 0.02273 0.2387 0.49175 0.0
H546 H 0.97836 0.20034 0.3383 0.0
H547 H 0.99203 0.20773 0.40105 0.0
H548 H 0.97965 0.21514 0.51194 0.0
C549 C 0.01609 0.22586 0.60826 0.0
C550 C 0.01334 0.23357 0.49647 0.0
C551 C 0.02386 0.22932 0.64416 0.0
C552 C 0.9783 0.20686 0.35998 0.0
C553 C 0.98611 0.21108 0.39574 0.0
C554 C 0.98904 0.22028 0.50729 0.0
C555 C 0.0164 0.23422 0.57863 0.0
C556 C 0.0086 0.2305 0.53935 0.0
C557 C 0.98602 0.21926 0.42523 0.0
C558 C 0.9938 0.22321 0.46444 0.0
H559 H 0.03804 0.25886 0.62754 0.0
H560 H 0.02471 0.25273 0.56386 0.0
H561 H 0.99254 0.22132 0.5772 0.0
H562 H 0.96464 0.22272 0.37657 0.0
H563 H 0.97805 0.22977 0.44006 0.0
C564 C 0.79848 0.77208 0.36979 0.0
C565 C 0.79156 0.76078 0.35216 0.0
C566 C 0.79466 0.77574 0.40655 0.0
C567 C 0.76831 0.76926 0.47222 0.0
H568 H 0.79098 0.78645 0.5644 0.0
C569 C 0.7547 0.78072 0.63939 0.0
C570 C 0.76216 0.79196 0.65666 0.0
C571 C 0.75822 0.77651 0.60329 0.0
C572 C 0.78455 0.78177 0.53882 0.0
H573 H 0.77504 0.74455 0.35883 0.0
H574 H 0.76836 0.75094 0.42293 0.0
H575 H 0.79706 0.78021 0.4985 0.0
H576 H 0.77925 0.80751 0.64987 0.0
H577 H 0.78532 0.80027 0.58695 0.0
H578 H 0.75581 0.77091 0.51237 0.0
C579 C 0.77673 0.757 0.40819 0.0
C580 C 0.78805 0.7782 0.50094 0.0
C581 C 0.78058 0.75333 0.37149 0.0
C582 C 0.7733 0.79878 0.63759 0.0
C583 C 0.7768 0.7946 0.60152 0.0
C584 C 0.76481 0.77288 0.51007 0.0
C585 C 0.7838 0.7682 0.42658 0.0
C586 C 0.77999 0.77194 0.46702 0.0
C587 C 0.76928 0.78345 0.58355 0.0
C588 C 0.77289 0.77923 0.54385 0.0
H589 H 0.80698 0.77806 0.3557 0.0
H590 H 0.80024 0.78449 0.41936 0.0
H591 H 0.76189 0.76457 0.44657 0.0
H592 H 0.74606 0.77523 0.65331 0.0
H593 H 0.75225 0.76782 0.59085 0.0
C594 C 0.77334 0.9751 0.63764 0.0
C595 C 0.76216 0.97085 0.65619 0.0
C596 C 0.77693 0.98265 0.60109 0.0
C597 C 0.7706 0.00289 0.53733 0.0
H598 H 0.7868 0.99687 0.44275 0.0
C599 C 0.78108 0.02764 0.36972 0.0
C600 C 0.79209 0.03116 0.35079 0.0
C601 C 0.7771 0.02003 0.40618 0.0
C602 C 0.78241 0.99878 0.469 0.0
H603 H 0.74608 0.97149 0.6515 0.0
H604 H 0.75234 0.98469 0.58776 0.0
H605 H 0.78081 0.98461 0.50882 0.0
H606 H 0.8075 0.0293 0.35504 0.0
H607 H 0.80066 0.01619 0.41868 0.0
H608 H 0.77228 0.01713 0.49767 0.0
C609 C 0.75837 0.98222 0.60161 0.0
C610 C 0.77897 0.99173 0.50698 0.0
C611 C 0.75477 0.97462 0.63811 0.0
C612 C 0.79894 0.02672 0.36862 0.0
C613 C 0.79498 0.01914 0.4051 0.0
C614 C 0.77408 0.00998 0.49938 0.0
C615 C 0.76944 0.98618 0.58218 0.0
C616 C 0.77306 0.99372 0.54173 0.0
C617 C 0.78406 0.01577 0.42469 0.0
C618 C 0.78007 0.00804 0.46471 0.0
H619 H 0.77927 0.9724 0.65075 0.0
H620 H 0.78558 0.98568 0.5875 0.0
H621 H 0.76618 0.00476 0.56362 0.0
H622 H 0.77558 0.03089 0.35677 0.0
H623 H 0.76857 0.01749 0.41986 0.0
C624 C 0.02741 0.79807 0.63573 0.0
C625 C 0.03171 0.7912 0.65446 0.0
C626 C 0.01981 0.794 0.59937 0.0
C627 C 0.9994 0.76722 0.53731 0.0
H628 H 0.00473 0.78922 0.44255 0.0
C629 C 0.97355 0.75275 0.37191 0.0
C630 C 0.96986 0.76021 0.35401 0.0
C631 C 0.98136 0.75638 0.40772 0.0
C632 C 0.00302 0.78298 0.46888 0.0
H633 H 0.0312 0.77454 0.65018 0.0
H634 H 0.01792 0.76743 0.58661 0.0
H635 H 0.01747 0.79565 0.50729 0.0
H636 H 0.97158 0.7774 0.3595 0.0
H637 H 0.98506 0.78368 0.42201 0.0
H638 H 0.98488 0.75457 0.499 0.0
C639 C 0.02038 0.77595 0.60023 0.0
C640 C 0.01034 0.78668 0.50606 0.0
C641 C 0.02802 0.78004 0.6366 0.0
C642 C 0.97428 0.77145 0.37233 0.0
C643 C 0.98207 0.77507 0.40811 0.0
C644 C 0.99205 0.76352 0.50011 0.0
C645 C 0.0163 0.78295 0.58081 0.0
C646 C 0.00859 0.77887 0.5409 0.0
C647 C 0.98566 0.76757 0.4265 0.0
C648 C 0.99372 0.77137 0.46549 0.0
H649 H 0.03004 0.80669 0.64873 0.0
H650 H 0.01669 0.79954 0.58578 0.0
H651 H 0.99772 0.76101 0.56371 0.0
H652 H 0.97032 0.74404 0.35853 0.0
H653 H 0.98405 0.75043 0.42058 0.0
C654 C 0.24998 0.21863 0.38006 0.0
C655 C 0.24172 0.21046 0.35049 0.0
C656 C 0.24639 0.22267 0.41635 0.0
C657 C 0.21956 0.21552 0.48297 0.0
H658 H 0.24022 0.24599 0.53411 0.0
C659 C 0.20731 0.22952 0.6465 0.0
C660 C 0.211 0.2414 0.65292 0.0
C661 C 0.21149 0.22594 0.61058 0.0
C662 C 0.23421 0.23751 0.52006 0.0
H663 H 0.22326 0.2005 0.33447 0.0
H664 H 0.21701 0.20808 0.39578 0.0
H665 H 0.2462 0.23999 0.46798 0.0
H666 H 0.22189 0.25888 0.62671 0.0
H667 H 0.22867 0.25267 0.56287 0.0
H668 H 0.20724 0.21336 0.53313 0.0
C669 C 0.22624 0.211 0.39258 0.0
C670 C 0.23777 0.23395 0.48228 0.0
C671 C 0.22982 0.20674 0.35697 0.0
C672 C 0.21899 0.24965 0.62286 0.0
C673 C 0.22294 0.24606 0.58628 0.0
C674 C 0.21589 0.2192 0.52007 0.0
C675 C 0.23444 0.21887 0.42344 0.0
C676 C 0.23054 0.22286 0.46321 0.0
C677 C 0.21922 0.23413 0.57937 0.0
C678 C 0.22318 0.23023 0.5395 0.0
H679 H 0.25921 0.22156 0.37614 0.0
H680 H 0.25302 0.22853 0.43947 0.0
H681 H 0.21377 0.20683 0.47019 0.0
H682 H 0.20122 0.22297 0.66937 0.0
H683 H 0.20862 0.21672 0.60749 0.0
C684 C 0.91558 0.3614 0.70655 0.0
C685 C 0.90809 0.36495 0.68777 0.0
C686 C 0.91196 0.35381 0.74303 0.0
C687 C 0.89079 0.34361 0.8359 0.0
H688 H 0.89782 0.31843 0.84474 0.0
C689 C 0.86977 0.30754 0.96953 0.0
C690 C 0.87659 0.3032 0.98846 0.0
C691 C 0.87402 0.31535 0.93386 0.0
C692 C 0.89592 0.32552 0.84315 0.0
H693 H 0.89081 0.36307 0.69206 0.0
H694 H 0.88448 0.34979 0.75527 0.0
H695 H 0.90432 0.33122 0.77994 0.0
H696 H 0.89334 0.30387 0.98522 0.0
H697 H 0.90085 0.31767 0.92338 0.0
H698 H 0.88242 0.33796 0.89903 0.0
C699 C 0.89322 0.353 0.74226 0.0
C700 C 0.89964 0.33284 0.80589 0.0
C701 C 0.89682 0.36055 0.70576 0.0
C702 C 0.88785 0.30703 0.97135 0.0
C703 C 0.89212 0.31487 0.93565 0.0
C704 C 0.88711 0.33631 0.87316 0.0
C705 C 0.90078 0.34962 0.76168 0.0
C706 C 0.89704 0.34193 0.80165 0.0
C707 C 0.88522 0.31907 0.9162 0.0
C708 C 0.88955 0.32712 0.87719 0.0
H709 H 0.92433 0.36465 0.69355 0.0
H710 H 0.91804 0.35146 0.75734 0.0
H711 H 0.88884 0.35066 0.83417 0.0
H712 H 0.86104 0.30473 0.98173 0.0
H713 H 0.86839 0.31825 0.91943 0.0
C714 C 0.64028 0.53574 0.70551 0.0
C715 C 0.63601 0.54263 0.68668 0.0
C716 C 0.64783 0.5398 0.74197 0.0
C717 C 0.6682 0.56657 0.80425 0.0
H718 H 0.66285 0.54452 0.89879 0.0
C719 C 0.69408 0.58086 0.96974 0.0
C720 C 0.69782 0.57338 0.98711 0.0
C721 C 0.68624 0.57728 0.93402 0.0
C722 C 0.66456 0.55077 0.87253 0.0
H723 H 0.63654 0.5593 0.69091 0.0
H724 H 0.64974 0.56638 0.75468 0.0
H725 H 0.65013 0.53811 0.83402 0.0
H726 H 0.69614 0.55622 0.98083 0.0
H727 H 0.6826 0.55004 0.91859 0.0
H728 H 0.6827 0.57921 0.8427 0.0
C729 C 0.64728 0.55786 0.74105 0.0
C730 C 0.65725 0.54709 0.83532 0.0
C731 C 0.63968 0.55379 0.70458 0.0
C732 C 0.6934 0.56219 0.96842 0.0
C733 C 0.68558 0.55862 0.93279 0.0
C734 C 0.67553 0.57025 0.84149 0.0
C735 C 0.65134 0.55085 0.76055 0.0
C736 C 0.65902 0.55491 0.80053 0.0
C737 C 0.68194 0.56613 0.91489 0.0
C738 C 0.67386 0.56238 0.876 0.0
H739 H 0.63765 0.52712 0.69248 0.0
H740 H 0.65094 0.53425 0.75562 0.0
H741 H 0.66989 0.57279 0.77789 0.0
H742 H 0.69731 0.58954 0.9834 0.0
H743 H 0.68351 0.58324 0.9215 0.0
C744 C 0.44721 0.08657 0.70871 0.0
C745 C 0.45838 0.09403 0.69086 0.0
C746 C 0.44317 0.09007 0.74539 0.0
C747 C 0.44873 0.11641 0.81033 0.0
H748 H 0.4317 0.09383 0.90299 0.0
C749 C 0.43971 0.13071 0.9794 0.0
C750 C 0.4284 0.12398 0.99724 0.0
C751 C 0.44324 0.12669 0.94289 0.0
C752 C 0.43635 0.10022 0.87724 0.0
H753 H 0.474 0.11108 0.69735 0.0
H754 H 0.46705 0.1171 0.76128 0.0
H755 H 0.4378 0.08766 0.8367 0.0
H756 H 0.41206 0.10754 0.99144 0.0
H757 H 0.41823 0.1005 0.92773 0.0
H758 H 0.44736 0.12898 0.85096 0.0
C759 C 0.4613 0.10861 0.74672 0.0
C760 C 0.43983 0.09668 0.83911 0.0
C761 C 0.46532 0.10513 0.71007 0.0
C762 C 0.42084 0.11293 0.97861 0.0
C763 C 0.42439 0.10888 0.94212 0.0
C764 C 0.44529 0.11995 0.84846 0.0
C765 C 0.4502 0.10111 0.76515 0.0
C766 C 0.44613 0.10475 0.80519 0.0
C767 C 0.43557 0.11581 0.92327 0.0
C768 C 0.43912 0.11192 0.88256 0.0
H769 H 0.44163 0.07797 0.6947 0.0
H770 H 0.43451 0.08412 0.75821 0.0
H771 H 0.45335 0.12283 0.78464 0.0
H772 H 0.44577 0.13925 0.99295 0.0
H773 H 0.45198 0.13216 0.9298 0.0
C774 C 0.46481 0.35962 0.70278 0.0
C775 C 0.45794 0.36392 0.68408 0.0
C776 C 0.46068 0.35189 0.73874 0.0
C777 C 0.4391 0.34194 0.83054 0.0
H778 H 0.44606 0.31671 0.83883 0.0
C779 C 0.41973 0.30607 0.96741 0.0
C780 C 0.42724 0.30245 0.9855 0.0
C781 C 0.42329 0.31372 0.93109 0.0
C782 C 0.44414 0.32379 0.8373 0.0
H783 H 0.44124 0.36333 0.68812 0.0
H784 H 0.43393 0.34969 0.7505 0.0
H785 H 0.4523 0.32933 0.77377 0.0
H786 H 0.44449 0.3043 0.98033 0.0
H787 H 0.45071 0.31767 0.91745 0.0
H788 H 0.43091 0.33633 0.89415 0.0
C789 C 0.4426 0.35243 0.73778 0.0
C790 C 0.44772 0.33103 0.79992 0.0
C791 C 0.44676 0.36018 0.70177 0.0
C792 C 0.43847 0.30687 0.96713 0.0
C793 C 0.442 0.31447 0.93082 0.0
C794 C 0.43549 0.33466 0.86792 0.0
C795 C 0.44955 0.34825 0.75694 0.0
C796 C 0.44533 0.34026 0.79613 0.0
C797 C 0.43441 0.31788 0.91196 0.0
C798 C 0.43804 0.32554 0.87192 0.0
H799 H 0.4735 0.36237 0.69013 0.0
H800 H 0.46634 0.349 0.75294 0.0
H801 H 0.43724 0.34905 0.8291 0.0
H802 H 0.41101 0.30281 0.98072 0.0
H803 H 0.41719 0.31611 0.91723 0.0
C804 C 0.69414 0.1313 0.96495 0.0
C805 C 0.6983 0.12438 0.98431 0.0
C806 C 0.68667 0.12725 0.92822 0.0
C807 C 0.66632 0.10048 0.866 0.0
H808 H 0.67207 0.12245 0.77071 0.0
C809 C 0.64059 0.08609 0.7003 0.0
C810 C 0.63696 0.09361 0.68251 0.0
C811 C 0.64845 0.08968 0.73597 0.0
C812 C 0.67026 0.11622 0.79716 0.0
H813 H 0.69767 0.10765 0.98075 0.0
H814 H 0.68461 0.10057 0.91655 0.0
H815 H 0.68466 0.12885 0.83589 0.0
H816 H 0.6389 0.11089 0.68789 0.0
H817 H 0.65246 0.11711 0.75006 0.0
H818 H 0.65185 0.08787 0.82739 0.0
C819 C 0.68709 0.10912 0.92995 0.0
C820 C 0.67748 0.11989 0.83461 0.0
C821 C 0.6946 0.11319 0.96668 0.0
C822 C 0.64154 0.10489 0.70064 0.0
C823 C 0.64938 0.10848 0.73623 0.0
C824 C 0.65907 0.0968 0.82854 0.0
C825 C 0.68315 0.11616 0.90992 0.0
C826 C 0.67556 0.1121 0.86968 0.0
C827 C 0.65287 0.1009 0.75466 0.0
C828 C 0.66089 0.10465 0.79374 0.0
H829 H 0.69679 0.13994 0.97775 0.0
H830 H 0.68365 0.13283 0.91415 0.0
H831 H 0.66452 0.09427 0.89256 0.0
H832 H 0.63723 0.07735 0.68709 0.0
H833 H 0.65106 0.08367 0.74888 0.0
C834 C 0.91528 0.55417 0.70095 0.0
C835 C 0.90777 0.54303 0.68298 0.0
C836 C 0.91177 0.55825 0.73747 0.0
C837 C 0.89103 0.54751 0.83173 0.0
H838 H 0.89774 0.57963 0.83902 0.0
C839 C 0.87006 0.56268 0.96495 0.0
C840 C 0.87684 0.5739 0.98343 0.0
C841 C 0.87429 0.55907 0.92935 0.0
C842 C 0.89593 0.57067 0.83784 0.0
H843 H 0.89058 0.52755 0.68872 0.0
H844 H 0.88445 0.53468 0.75195 0.0
H845 H 0.90412 0.5732 0.77426 0.0
H846 H 0.8935 0.59006 0.9794 0.0
H847 H 0.90097 0.58371 0.91761 0.0
H848 H 0.88286 0.54494 0.89521 0.0
C849 C 0.89312 0.54021 0.73831 0.0
C850 C 0.89958 0.56698 0.80062 0.0
C851 C 0.8966 0.53616 0.7018 0.0
C852 C 0.88805 0.58136 0.9659 0.0
C853 C 0.89229 0.57775 0.93024 0.0
C854 C 0.88741 0.5512 0.86894 0.0
C855 C 0.9007 0.55125 0.75694 0.0
C856 C 0.89709 0.55532 0.79693 0.0
C857 C 0.88543 0.56658 0.91128 0.0
C858 C 0.88973 0.5628 0.87238 0.0
H859 H 0.92395 0.55967 0.6873 0.0
H860 H 0.91786 0.56676 0.75115 0.0
H861 H 0.88916 0.53852 0.83043 0.0
H862 H 0.86137 0.55672 0.9775 0.0
H863 H 0.86868 0.55048 0.9153 0.0
C864 C 0.53639 0.64074 0.29616 0.0
C865 C 0.54335 0.63654 0.31499 0.0
C866 C 0.54038 0.64828 0.25961 0.0
C867 C 0.56177 0.65788 0.16687 0.0
H868 H 0.55442 0.68279 0.15589 0.0
C869 C 0.5811 0.69332 0.0283 0.0
C870 C 0.57366 0.69696 0.0097 0.0
C871 C 0.57745 0.68568 0.06471 0.0
C872 C 0.55643 0.67579 0.15813 0.0
H873 H 0.56008 0.63721 0.31059 0.0
H874 H 0.56714 0.65055 0.24731 0.0
H875 H 0.54833 0.6705 0.22187 0.0
H876 H 0.5564 0.69511 0.01406 0.0
H877 H 0.55002 0.68175 0.07707 0.0
H878 H 0.56994 0.66325 0.1031 0.0
C879 C 0.5585 0.64784 0.26031 0.0
C880 C 0.55294 0.66873 0.19608 0.0
C881 C 0.55449 0.64026 0.29688 0.0
C882 C 0.56238 0.69252 0.02758 0.0
C883 C 0.55874 0.68493 0.06401 0.0
C884 C 0.5653 0.66498 0.12893 0.0
C885 C 0.55145 0.65188 0.2409 0.0
C886 C 0.55551 0.65963 0.20093 0.0
C887 C 0.56629 0.68154 0.0835 0.0
C888 C 0.56262 0.67398 0.12395 0.0
H889 H 0.52774 0.638 0.30909 0.0
H890 H 0.53463 0.65106 0.24533 0.0
H891 H 0.56376 0.65086 0.16903 0.0
H892 H 0.58987 0.6966 0.01546 0.0
H893 H 0.58353 0.68333 0.079 0.0
C894 C 0.36198 0.91479 0.30183 0.0
C895 C 0.36572 0.90737 0.31986 0.0
C896 C 0.35425 0.91113 0.26579 0.0
C897 C 0.33282 0.88455 0.2041 0.0
H898 H 0.3383 0.90657 0.10925 0.0
C899 C 0.30844 0.86959 0.03714 0.0
C900 C 0.3042 0.87653 0.01858 0.0
C901 C 0.31607 0.87361 0.0734 0.0
C902 C 0.33657 0.90034 0.13565 0.0
H903 H 0.36413 0.89024 0.31444 0.0
H904 H 0.35077 0.88392 0.25156 0.0
H905 H 0.35102 0.91298 0.17429 0.0
H906 H 0.30487 0.89327 0.02298 0.0
H907 H 0.31819 0.90028 0.08636 0.0
H908 H 0.31843 0.8719 0.16541 0.0
C909 C 0.35368 0.89251 0.2655 0.0
C910 C 0.34385 0.90402 0.17302 0.0
C911 C 0.3614 0.89616 0.3015 0.0
C912 C 0.308 0.88771 0.03644 0.0
C913 C 0.31566 0.89175 0.07269 0.0
C914 C 0.32557 0.88087 0.16674 0.0
C915 C 0.35006 0.89997 0.24694 0.0
C916 C 0.34211 0.89616 0.20767 0.0
C917 C 0.31967 0.88468 0.09201 0.0
C918 C 0.32738 0.8887 0.13192 0.0
H919 H 0.36513 0.92347 0.31524 0.0
H920 H 0.35152 0.91705 0.25278 0.0
H921 H 0.33107 0.87831 0.23044 0.0
H922 H 0.30571 0.86094 0.02413 0.0
H923 H 0.31914 0.86801 0.08692 0.0
C924 C 0.08676 0.44695 0.30002 0.0
C925 C 0.0943 0.45811 0.31773 0.0
C926 C 0.0902 0.44282 0.26349 0.0
C927 C 0.11071 0.45344 0.16862 0.0
H928 H 0.10406 0.42133 0.16171 0.0
C929 C 0.13141 0.43815 0.0348 0.0
C930 C 0.12463 0.42689 0.0167 0.0
C931 C 0.12724 0.44179 0.07046 0.0
C932 C 0.10584 0.43028 0.16278 0.0
H933 H 0.11148 0.47357 0.31155 0.0
H934 H 0.1175 0.46636 0.24825 0.0
H935 H 0.09782 0.42783 0.22668 0.0
H936 H 0.10803 0.41068 0.02144 0.0
H937 H 0.10065 0.4171 0.08331 0.0
H938 H 0.1187 0.45591 0.10482 0.0
C939 C 0.10886 0.46085 0.26213 0.0
C940 C 0.10229 0.43402 0.20012 0.0
C941 C 0.10544 0.46495 0.29867 0.0
C942 C 0.11348 0.41941 0.03463 0.0
C943 C 0.10929 0.42307 0.07035 0.0
C944 C 0.11424 0.4497 0.13128 0.0
C945 C 0.10124 0.44978 0.24374 0.0
C946 C 0.10477 0.44567 0.20366 0.0
C947 C 0.11616 0.43428 0.08896 0.0
C948 C 0.11194 0.4381 0.12798 0.0
H949 H 0.07811 0.44147 0.31387 0.0
H950 H 0.08408 0.43429 0.25 0.0
H951 H 0.11256 0.46241 0.16982 0.0
H952 H 0.14007 0.44411 0.02195 0.0
H953 H 0.13285 0.45042 0.08423 0.0
C954 C 0.10663 0.64173 0.30296 0.0
C955 C 0.09528 0.63722 0.32026 0.0
C956 C 0.11034 0.64932 0.26652 0.0
C957 C 0.09878 0.65835 0.17134 0.0
H958 H 0.13082 0.68393 0.16305 0.0
C959 C 0.11482 0.6937 0.03285 0.0
C960 C 0.12604 0.69763 0.01516 0.0
C961 C 0.11084 0.6861 0.06932 0.0
C962 C 0.12187 0.67674 0.16457 0.0
H963 H 0.07901 0.6374 0.31338 0.0
H964 H 0.08553 0.65081 0.25035 0.0
H965 H 0.12445 0.67164 0.22906 0.0
H966 H 0.14177 0.69639 0.0213 0.0
H967 H 0.13481 0.68308 0.08455 0.0
H968 H 0.09622 0.66353 0.10684 0.0
C969 C 0.09152 0.64831 0.26442 0.0
C970 C 0.11821 0.66969 0.20251 0.0
C971 C 0.08781 0.64069 0.30085 0.0
C972 C 0.13308 0.69355 0.03411 0.0
C973 C 0.12913 0.68599 0.07065 0.0
C974 C 0.10245 0.66544 0.13343 0.0
C975 C 0.1028 0.65263 0.24643 0.0
C976 C 0.10662 0.66036 0.20641 0.0
C977 C 0.11801 0.68228 0.08911 0.0
C978 C 0.11406 0.6747 0.12945 0.0
H979 H 0.1126 0.63918 0.31693 0.0
H980 H 0.11903 0.65233 0.25336 0.0
H981 H 0.08985 0.65115 0.17274 0.0
H982 H 0.10918 0.6967 0.01915 0.0
H983 H 0.10227 0.6835 0.08283 0.0
C984 C 0.36059 0.46469 0.30272 0.0
C985 C 0.36488 0.45782 0.32146 0.0
C986 C 0.353 0.46062 0.26635 0.0
C987 C 0.33263 0.43386 0.20406 0.0
H988 H 0.33821 0.45585 0.10905 0.0
C989 C 0.30704 0.41944 0.03803 0.0
C990 C 0.30342 0.42694 0.02001 0.0
C991 C 0.31481 0.42304 0.07399 0.0
C992 C 0.33643 0.44961 0.13543 0.0
H993 H 0.36434 0.44114 0.31727 0.0
H994 H 0.35107 0.43402 0.25372 0.0
H995 H 0.35081 0.46228 0.17416 0.0
H996 H 0.30521 0.44416 0.02542 0.0
H997 H 0.3186 0.45038 0.08811 0.0
H998 H 0.31818 0.42121 0.16543 0.0
C999 C 0.35353 0.44255 0.26732 0.0
C1000 C 0.34367 0.45331 0.17284 0.0
C1001 C 0.36117 0.44664 0.30368 0.0
C1002 C 0.30786 0.43818 0.03832 0.0
C1003 C 0.3156 0.44177 0.07422 0.0
C1004 C 0.32536 0.43016 0.16665 0.0
C1005 C 0.34948 0.44956 0.24782 0.0
C1006 C 0.34183 0.4455 0.20777 0.0
C1007 C 0.31913 0.43423 0.09276 0.0
C1008 C 0.32712 0.43801 0.13193 0.0
H1009 H 0.36324 0.47333 0.31566 0.0
H1010 H 0.34989 0.46617 0.25267 0.0
H1011 H 0.33089 0.42764 0.23053 0.0
H1012 H 0.30379 0.41073 0.02468 0.0
H1013 H 0.31746 0.41706 0.08699 0.0
C1014 C 0.53739 0.89601 0.30437 0.0
C1015 C 0.54418 0.90717 0.32326 0.0
C1016 C 0.54151 0.89259 0.26788 0.0
C1017 C 0.5683 0.89926 0.20525 0.0
H1018 H 0.54623 0.88263 0.11065 0.0
C1019 C 0.58256 0.88781 0.03929 0.0
C1020 C 0.57505 0.87663 0.02172 0.0
C1021 C 0.579 0.89205 0.07515 0.0
C1022 C 0.55249 0.88716 0.13691 0.0
H1023 H 0.56077 0.92341 0.3192 0.0
H1024 H 0.56798 0.91743 0.2554 0.0
H1025 H 0.53982 0.88882 0.17573 0.0
H1026 H 0.55786 0.86117 0.02783 0.0
H1027 H 0.55172 0.86847 0.09032 0.0
H1028 H 0.58095 0.89749 0.16651 0.0
C1029 C 0.55948 0.9113 0.26899 0.0
C1030 C 0.54881 0.89071 0.1743 0.0
C1031 C 0.55533 0.91474 0.30549 0.0
C1032 C 0.56385 0.86985 0.04038 0.0
C1033 C 0.5603 0.87408 0.07616 0.0
C1034 C 0.57198 0.89567 0.16783 0.0
C1035 C 0.55254 0.90023 0.24934 0.0
C1036 C 0.55663 0.89672 0.20914 0.0
C1037 C 0.56785 0.8852 0.09425 0.0
C1038 C 0.5641 0.88949 0.1333 0.0
H1039 H 0.52877 0.88994 0.31728 0.0
H1040 H 0.53602 0.88393 0.25412 0.0
H1041 H 0.57453 0.90377 0.23162 0.0
H1042 H 0.59125 0.89326 0.02566 0.0
H1043 H 0.58499 0.90072 0.08782 0.0
C1044 C 0.1983 0.97337 0.8732 0.0
C1045 C 0.20505 0.96941 0.85114 0.0
C1046 C 0.20337 0.98217 0.90517 0.0
C1047 C 0.22539 0.99328 0.99008 0.0
H1048 H 0.22085 0.02013 0.99072 0.0
C1049 C 0.24277 0.02818 0.13149 0.0
C1050 C 0.23623 0.03366 0.14092 0.0
C1051 C 0.23962 0.02032 0.09589 0.0
C1052 C 0.22204 0.01259 0.99157 0.0
H1053 H 0.22239 0.97161 0.84461 0.0
H1054 H 0.23125 0.9869 0.90187 0.0
H1055 H 0.21463 0.00716 0.92675 0.0
H1056 H 0.22084 0.03463 0.12295 0.0
H1057 H 0.21495 0.02051 0.06297 0.0
H1058 H 0.23228 0.99834 0.05575 0.0
C1059 C 0.22208 0.98327 0.89372 0.0
C1060 C 0.21859 0.00525 0.95459 0.0
C1061 C 0.21705 0.97463 0.86079 0.0
C1062 C 0.22611 0.03061 0.11609 0.0
C1063 C 0.22283 0.02262 0.08127 0.0
C1064 C 0.22867 1.00054 0.02754 0.0
C1065 C 0.21522 0.987 0.91652 0.0
C1066 C 0.2201 0.99545 0.95367 0.0
C1067 C 0.22977 0.01768 0.06954 0.0
C1068 C 0.22686 0.01019 0.02909 0.0
H1069 H 0.18902 0.96944 0.8665 0.0
H1070 H 0.19788 0.98485 0.92242 0.0
H1071 H 0.22653 0.9857 0.9903 0.0
H1072 H 0.25069 0.03049 0.14991 0.0
H1073 H 0.24521 0.01674 0.08792 0.0
C1074 C 0.97387 0.21665 0.13693 0.0
C1075 C 0.96898 0.20478 0.14822 0.0
C1076 C 0.98172 0.22134 0.10122 0.0
C1077 C 0.98965 0.21104 0.99909 0.0
H1078 H 0.01601 0.24269 0.99303 0.0
C1079 C 0.02804 0.22556 0.87818 0.0
C1080 C 0.0321 0.23617 0.85528 0.0
C1081 C 0.01938 0.22214 0.91053 0.0
C1082 C 0.00856 0.23389 0.9941 0.0
H1083 H 0.96909 0.18876 0.13372 0.0
H1084 H 0.98314 0.197 0.07347 0.0
H1085 H 0.00366 0.23625 0.05943 0.0
H1086 H 0.0302 0.25146 0.84764 0.0
H1087 H 0.0151 0.24556 0.90547 0.0
H1088 H 0.99484 0.20854 0.93461 0.0
C1089 C 0.98061 0.20262 0.09047 0.0
C1090 C 0.00149 0.23018 0.03212 0.0
C1091 C 0.97267 0.19792 0.12543 0.0
C1092 C 0.0271 0.24317 0.86448 0.0
C1093 C 0.01858 0.23986 0.89775 0.0
C1094 C 0.99677 0.21469 0.96151 0.0
C1095 C 0.98487 0.21425 0.07662 0.0
C1096 C 0.99208 0.21861 0.03547 0.0
C1097 C 0.01476 0.22937 0.92141 0.0
C1098 C 0.00641 0.22608 0.95889 0.0
H1099 H 0.97106 0.22208 0.15373 0.0
H1100 H 0.98482 0.23033 0.09157 0.0
H1101 H 0.98227 0.2022 0.99968 0.0
H1102 H 0.0318 0.22003 0.87184 0.0
H1103 H 0.01666 0.21406 0.92842 0.0
C1104 C 0.76437 0.78809 0.85588 0.0
C1105 C 0.76462 0.79865 0.86561 0.0
C1106 C 0.76718 0.78233 0.88867 0.0
C1107 C 0.76825 0.77976 0.01014 0.0
H1108 H 0.79071 0.76966 0.98685 0.0
C1109 C 0.79023 0.7674 0.15063 0.0
C1110 C 0.79367 0.75916 0.14098 0.0
C1111 C 0.78537 0.7711 0.11729 0.0
C1112 C 0.78424 0.77219 0.9939 0.0
H1113 H 0.76825 0.81147 0.91763 0.0
H1114 H 0.77302 0.80146 0.9739 0.0
H1115 H 0.78472 0.77789 0.92697 0.0
H1116 H 0.79398 0.74766 0.09042 0.0
H1117 H 0.78502 0.75359 0.03329 0.0
H1118 H 0.76768 0.77404 0.07697 0.0
C1119 C 0.77056 0.79756 0.94123 0.0
C1120 C 0.78084 0.77694 0.95944 0.0
C1121 C 0.76789 0.80335 0.90863 0.0
C1122 C 0.79153 0.75416 0.0985 0.0
C1123 C 0.7865 0.75765 0.06561 0.0
C1124 C 0.77154 0.77488 0.04454 0.0
C1125 C 0.77014 0.78695 0.93185 0.0
C1126 C 0.77295 0.78094 0.96733 0.0
C1127 C 0.78371 0.76646 0.07399 0.0
C1128 C 0.77968 0.77114 0.03704 0.0
H1129 H 0.76189 0.78421 0.82321 0.0
H1130 H 0.76681 0.77415 0.88054 0.0
H1131 H 0.76204 0.78265 0.01708 0.0
H1132 H 0.79187 0.77143 0.18309 0.0
H1133 H 0.78341 0.77795 0.12502 0.0
C1134 C 0.76428 0.97684 0.85508 0.0
C1135 C 0.76301 0.96591 0.86622 0.0
C1136 C 0.76735 0.98552 0.88764 0.0
C1137 C 0.76708 0.98944 0.009 0.0
H1138 H 0.79266 0.02084 0.98706 0.0
C1139 C 0.79027 0.02345 0.14996 0.0
C1140 C 0.79496 0.03532 0.13935 0.0
C1141 C 0.78517 0.01488 0.11673 0.0
C1142 C 0.78534 0.01219 0.99367 0.0
H1143 H 0.76393 0.95558 0.92075 0.0
H1144 H 0.76919 0.97056 0.97659 0.0
H1145 H 0.78588 0.00642 0.92775 0.0
H1146 H 0.79723 0.0475 0.08685 0.0
H1147 H 0.78795 0.03267 0.02985 0.0
H1148 H 0.76649 0.99517 0.07488 0.0
C1149 C 0.76776 0.97244 0.94294 0.0
C1150 C 0.78148 0.00391 0.95953 0.0
C1151 C 0.76484 0.96388 0.9106 0.0
C1152 C 0.79386 0.03841 0.09578 0.0
C1153 C 0.78862 0.0299 0.06297 0.0
C1154 C 0.77086 0.99774 0.04307 0.0
C1155 C 0.76903 0.98334 0.93199 0.0
C1156 C 0.77241 0.99241 0.96696 0.0
C1157 C 0.78452 0.01805 0.07254 0.0
C1158 C 0.78012 0.00922 0.03602 0.0
H1159 H 0.76292 0.97871 0.82133 0.0
H1160 H 0.76827 0.99386 0.87829 0.0
H1161 H 0.75998 0.98065 0.01558 0.0
H1162 H 0.79104 0.02086 0.18329 0.0
H1163 H 0.78217 0.00585 0.12539 0.0
C1164 C 0.02774 0.78563 0.8695 0.0
C1165 C 0.03283 0.79755 0.85869 0.0
C1166 C 0.01983 0.78094 0.90496 0.0
C1167 C 0.01173 0.79113 0.00718 0.0
H1168 H 0.98555 0.75936 0.0123 0.0
C1169 C 0.97306 0.77572 0.1279 0.0
C1170 C 0.96929 0.76514 0.15071 0.0
C1171 C 0.98174 0.77938 0.0955 0.0
C1172 C 0.99294 0.76821 0.01147 0.0
H1173 H 0.03301 0.81368 0.8738 0.0
H1174 H 0.01879 0.80544 0.93353 0.0
H1175 H 0.99795 0.76603 0.94612 0.0
H1176 H 0.97173 0.75017 0.15813 0.0
H1177 H 0.98684 0.75648 0.1002 0.0
H1178 H 0.00639 0.79343 0.0717 0.0
C1179 C 0.02124 0.79977 0.91641 0.0
C1180 C 1.00004 0.77204 0.97357 0.0
C1181 C 0.02927 0.80448 0.88172 0.0
C1182 C 0.9746 0.75843 0.14138 0.0
C1183 C 0.98313 0.76197 0.10804 0.0
C1184 C 0.00455 0.78735 0.04462 0.0
C1185 C 0.01676 0.78807 0.92978 0.0
C1186 C 0.00942 0.78364 0.97061 0.0
C1187 C 0.98666 0.77242 0.08447 0.0
C1188 C 0.995 0.77591 0.04692 0.0
H1189 H 0.03046 0.78014 0.85253 0.0
H1190 H 0.01659 0.7719 0.91423 0.0
H1191 H 0.01908 0.8 0.00694 0.0
H1192 H 0.96906 0.78102 0.13435 0.0
H1193 H 0.98425 0.78743 0.07769 0.0
C1194 C 0.22643 0.19656 0.12231 0.0
C1195 C 0.23674 0.20341 0.14649 0.0
C1196 C 0.22331 0.20141 0.08749 0.0
C1197 C 0.2298 0.22933 0.03252 0.0
H1198 H 0.21551 0.20848 0.93236 0.0
C1199 C 0.21777 0.24338 0.86593 0.0
C1200 C 0.20579 0.23642 0.85617 0.0
C1201 C 0.2229 0.23989 0.8989 0.0
C1202 C 0.21954 0.21441 0.96 0.0
H1203 H 0.25167 0.22083 0.1545 0.0
H1204 H 0.24639 0.22933 0.0926 0.0
H1205 H 0.22161 0.20174 0.99668 0.0
H1206 H 0.18992 0.22019 0.87139 0.0
H1207 H 0.19895 0.21389 0.92739 0.0
H1208 H 0.22777 0.24204 0.99488 0.0
C1209 C 0.24058 0.22023 0.10104 0.0
C1210 C 0.22294 0.21053 0.99716 0.0
C1211 C 0.24361 0.21538 0.13659 0.0
C1212 C 0.19918 0.22568 0.87819 0.0
C1213 C 0.20435 0.22208 0.9102 0.0
C1214 C 0.22654 0.23328 0.99491 0.0
C1215 C 0.23056 0.21319 0.07518 0.0
C1216 C 0.22782 0.21781 0.03448 0.0
C1217 C 0.21618 0.22926 0.92164 0.0
C1218 C 0.22114 0.22575 0.95875 0.0
H1219 H 0.22092 0.18732 0.12953 0.0
H1220 H 0.21531 0.1958 0.06953 0.0
H1221 H 0.2335 0.23518 0.06057 0.0
H1222 H 0.223 0.25177 0.84977 0.0
H1223 H 0.23205 0.24555 0.90708 0.0
C1224 C 0.89263 0.36109 0.46281 0.0
C1225 C 0.90347 0.36523 0.48404 0.0
C1226 C 0.88894 0.35239 0.43046 0.0
C1227 C 0.89994 0.34185 0.34356 0.0
H1228 H 0.86863 0.31484 0.34298 0.0
C1229 C 0.88212 0.30704 0.20158 0.0
C1230 C 0.87007 0.30159 0.19259 0.0
C1231 C 0.88695 0.31495 0.23699 0.0
C1232 C 0.87735 0.32243 0.34215 0.0
H1233 H 0.91891 0.36349 0.48871 0.0
H1234 H 0.91253 0.34835 0.4308 0.0
H1235 H 0.87546 0.32758 0.40759 0.0
H1236 H 0.85381 0.3008 0.21098 0.0
H1237 H 0.86226 0.31497 0.27074 0.0
H1238 H 0.90167 0.33702 0.27733 0.0
C1239 C 0.90686 0.35176 0.43988 0.0
C1240 C 0.88128 0.32964 0.37947 0.0
C1241 C 0.91044 0.3603 0.47319 0.0
C1242 C 0.86312 0.30479 0.21748 0.0
C1243 C 0.86795 0.31281 0.25216 0.0
C1244 C 0.89593 0.33471 0.3058 0.0
C1245 C 0.89613 0.34785 0.41789 0.0
C1246 C 0.89255 0.3395 0.38035 0.0
C1247 C 0.87983 0.31764 0.26362 0.0
C1248 C 0.88449 0.32501 0.3043 0.0
H1249 H 0.88714 0.36482 0.47042 0.0
H1250 H 0.88066 0.34958 0.41386 0.0
H1251 H 0.90863 0.34949 0.3433 0.0
H1252 H 0.88764 0.30462 0.18314 0.0
H1253 H 0.89613 0.31848 0.24476 0.0
C1254 C 0.69563 0.5572 0.21363 0.0
C1255 C 0.69915 0.56769 0.19063 0.0
C1256 C 0.68762 0.55384 0.24841 0.0
C1257 C 0.66645 0.56037 0.30593 0.0
H1258 H 0.6728 0.54527 0.40385 0.0
C1259 C 0.64121 0.54879 0.47394 0.0
C1260 C 0.63582 0.53676 0.48338 0.0
C1261 C 0.64973 0.5537 0.44056 0.0
C1262 C 0.67096 0.54951 0.37681 0.0
H1263 H 0.69672 0.58269 0.18466 0.0
H1264 H 0.68291 0.57702 0.24652 0.0
H1265 H 0.68543 0.55134 0.3389 0.0
H1266 H 0.63546 0.52058 0.46724 0.0
H1267 H 0.65064 0.52924 0.41047 0.0
H1268 H 0.65204 0.55864 0.3449 0.0
C1269 C 0.68615 0.57123 0.23715 0.0
C1270 C 0.6781 0.55288 0.33928 0.0
C1271 C 0.69404 0.57448 0.2016 0.0
C1272 C 0.63952 0.52988 0.4607 0.0
C1273 C 0.64819 0.53483 0.42824 0.0
C1274 C 0.6594 0.55714 0.34393 0.0
C1275 C 0.68313 0.56104 0.26191 0.0
C1276 C 0.6758 0.5581 0.3028 0.0
C1277 C 0.65317 0.54671 0.41705 0.0
C1278 C 0.66146 0.55148 0.37932 0.0
H1279 H 0.69939 0.55176 0.2056 0.0
H1280 H 0.68521 0.54572 0.26549 0.0
H1281 H 0.66435 0.5643 0.27855 0.0
H1282 H 0.63839 0.55423 0.4906 0.0
H1283 H 0.65349 0.5629 0.4326 0.0
C1284 C 0.42999 0.12176 0.19989 0.0
C1285 C 0.42867 0.13155 0.20807 0.0
C1286 C 0.43368 0.11704 0.23392 0.0
C1287 C 0.4501 0.12595 0.3391 0.0
H1288 H 0.43629 0.09276 0.36323 0.0
C1289 C 0.47182 0.10792 0.45476 0.0
C1290 C 0.46478 0.09899 0.48482 0.0
C1291 C 0.4668 0.1116 0.42252 0.0
C1292 C 0.44014 0.10205 0.35706 0.0
H1293 H 0.42982 0.14371 0.25929 0.0
H1294 H 0.43612 0.13556 0.31742 0.0
H1295 H 0.42868 0.09934 0.30205 0.0
H1296 H 0.44691 0.08704 0.505 0.0
H1297 H 0.43804 0.09355 0.44811 0.0
H1298 H 0.4615 0.12875 0.39382 0.0
C1299 C 0.43453 0.13163 0.28477 0.0
C1300 C 0.4359 0.10581 0.32174 0.0
C1301 C 0.43088 0.13629 0.25117 0.0
C1302 C 0.45255 0.09401 0.48255 0.0
C1303 C 0.44749 0.09763 0.44971 0.0
C1304 C 0.45435 0.12222 0.37403 0.0
C1305 C 0.43616 0.12207 0.27657 0.0
C1306 C 0.44081 0.11782 0.31254 0.0
C1307 C 0.45459 0.10642 0.41916 0.0
C1308 C 0.44947 0.11024 0.38343 0.0
H1309 H 0.42831 0.11784 0.16723 0.0
H1310 H 0.43488 0.10967 0.22662 0.0
H1311 H 0.45416 0.13526 0.33267 0.0
H1312 H 0.48128 0.11195 0.4556 0.0
H1313 H 0.47252 0.11832 0.39934 0.0
C1314 C 0.42554 0.30643 0.19791 0.0
C1315 C 0.43203 0.30083 0.1894 0.0
C1316 C 0.42906 0.3149 0.23144 0.0
C1317 C 0.45433 0.33588 0.29615 0.0
H1318 H 0.43269 0.32998 0.39289 0.0
C1319 C 0.47112 0.36121 0.45819 0.0
C1320 C 0.46417 0.36491 0.48026 0.0
C1321 C 0.46647 0.35306 0.42385 0.0
C1322 C 0.4388 0.33189 0.36593 0.0
H1323 H 0.44752 0.30005 0.20759 0.0
H1324 H 0.45391 0.31514 0.26464 0.0
H1325 H 0.42609 0.31743 0.32712 0.0
H1326 H 0.4468 0.3627 0.48501 0.0
H1327 H 0.43868 0.34865 0.42384 0.0
H1328 H 0.467 0.3504 0.33378 0.0
C1329 C 0.44603 0.31288 0.24601 0.0
C1330 C 0.435 0.32469 0.32827 0.0
C1331 C 0.44237 0.30425 0.2134 0.0
C1332 C 0.4523 0.35987 0.4688 0.0
C1333 C 0.44768 0.35185 0.43364 0.0
C1334 C 0.45808 0.34316 0.33331 0.0
C1335 C 0.43929 0.31811 0.25606 0.0
C1336 C 0.44281 0.3265 0.29345 0.0
C1337 C 0.45482 0.34861 0.4098 0.0
C1338 C 0.45046 0.34112 0.36926 0.0
H1339 H 0.41746 0.30384 0.1802 0.0
H1340 H 0.42375 0.31886 0.23851 0.0
H1341 H 0.46049 0.33753 0.26955 0.0
H1342 H 0.48029 0.36492 0.46663 0.0
H1343 H 0.47216 0.35049 0.40755 0.0
C1344 C 0.69478 0.13748 0.20987 0.0
C1345 C 0.6986 0.13058 0.18819 0.0
C1346 C 0.68655 0.1328 0.24394 0.0
C1347 C 0.66544 0.10505 0.30175 0.0
H1348 H 0.6706 0.12672 0.39765 0.0
C1349 C 0.6401 0.09178 0.47019 0.0
C1350 C 0.63418 0.09799 0.47799 0.0
C1351 C 0.64855 0.09536 0.43654 0.0
C1352 C 0.66909 0.12058 0.37117 0.0
H1353 H 0.69653 0.11327 0.18383 0.0
H1354 H 0.68237 0.10509 0.24455 0.0
H1355 H 0.68359 0.13335 0.33375 0.0
H1356 H 0.63277 0.11304 0.45834 0.0
H1357 H 0.64783 0.11955 0.40106 0.0
H1358 H 0.65103 0.09223 0.34044 0.0
C1359 C 0.68552 0.11407 0.23464 0.0
C1360 C 0.67644 0.12438 0.3342 0.0
C1361 C 0.69361 0.11873 0.19974 0.0
C1362 C 0.63722 0.10811 0.45304 0.0
C1363 C 0.64582 0.11183 0.42032 0.0
C1364 C 0.65819 0.10119 0.33925 0.0
C1365 C 0.68215 0.12116 0.25811 0.0
C1366 C 0.67457 0.11677 0.29843 0.0
C1367 C 0.6514 0.10537 0.41111 0.0
C1368 C 0.65984 0.10899 0.37388 0.0
H1369 H 0.69846 0.14664 0.20136 0.0
H1370 H 0.68388 0.13844 0.25995 0.0
H1371 H 0.66367 0.09894 0.27492 0.0
H1372 H 0.63782 0.08387 0.48867 0.0
H1373 H 0.65278 0.09027 0.43009 0.0
C1374 C 0.90893 0.54933 0.47039 0.0
C1375 C 0.90226 0.53728 0.47944 0.0
C1376 C 0.9054 0.55433 0.43708 0.0
C1377 C 0.88009 0.5503 0.37296 0.0
H1378 H 0.90164 0.5653 0.27526 0.0
C1379 C 0.8633 0.55811 0.20965 0.0
C1380 C 0.87026 0.56866 0.18698 0.0
C1381 C 0.86794 0.55474 0.24442 0.0
C1382 C 0.89556 0.5613 0.30249 0.0
H1383 H 0.88645 0.52115 0.46265 0.0
H1384 H 0.88006 0.52995 0.40599 0.0
H1385 H 0.9082 0.55951 0.34158 0.0
H1386 H 0.88765 0.58376 0.18156 0.0
H1387 H 0.89578 0.57806 0.24341 0.0
H1388 H 0.8675 0.55217 0.33491 0.0
C1389 C 0.88807 0.5355 0.42402 0.0
C1390 C 0.89934 0.558 0.34047 0.0
C1391 C 0.89172 0.53047 0.45641 0.0
C1392 C 0.88215 0.57551 0.19824 0.0
C1393 C 0.88677 0.57224 0.23379 0.0
C1394 C 0.87638 0.55373 0.33544 0.0
C1395 C 0.89501 0.5474 0.41324 0.0
C1396 C 0.89155 0.55226 0.37563 0.0
C1397 C 0.8796 0.56198 0.25824 0.0
C1398 C 0.88396 0.55902 0.29917 0.0
H1399 H 0.91716 0.55473 0.48734 0.0
H1400 H 0.91087 0.56355 0.42944 0.0
H1401 H 0.87396 0.54599 0.39982 0.0
H1402 H 0.85412 0.55264 0.20138 0.0
H1403 H 0.86225 0.54658 0.26126 0.0
C1404 C 0.54956 0.64177 0.52464 0.0
C1405 C 0.53732 0.63472 0.52148 0.0
C1406 C 0.5546 0.65034 0.55793 0.0
C1407 C 0.54782 0.66822 0.63287 0.0
H1408 H 0.57284 0.67034 0.70711 0.0
C1409 C 0.57146 0.70573 0.75516 0.0
C1410 C 0.57322 0.70317 0.79886 0.0
C1411 C 0.56784 0.69733 0.7219 0.0
C1412 C 0.5658 0.66977 0.68679 0.0
H1413 H 0.52079 0.63141 0.54954 0.0
H1414 H 0.52949 0.64634 0.60653 0.0
H1415 H 0.56531 0.65623 0.6456 0.0
H1416 H 0.5729 0.68971 0.84114 0.0
H1417 H 0.56636 0.67481 0.78223 0.0
H1418 H 0.54814 0.68158 0.67381 0.0
C1419 C 0.53524 0.64527 0.58373 0.0
C1420 C 0.5616 0.66182 0.6513 0.0
C1421 C 0.53025 0.63669 0.55107 0.0
C1422 C 0.57155 0.69196 0.80799 0.0
C1423 C 0.56788 0.68346 0.77426 0.0
C1424 C 0.55203 0.67616 0.66795 0.0
C1425 C 0.54746 0.6521 0.58801 0.0
C1426 C 0.55252 0.66095 0.62408 0.0
C1427 C 0.5658 0.68605 0.73102 0.0
C1428 C 0.56109 0.67708 0.69528 0.0
H1429 H 0.55523 0.64037 0.50257 0.0
H1430 H 0.56404 0.65555 0.56024 0.0
H1431 H 0.54087 0.66781 0.61243 0.0
H1432 H 0.57284 0.71429 0.74626 0.0
H1433 H 0.56658 0.6997 0.68878 0.0
C1434 C 0.30761 0.8819 0.80366 0.0
C1435 C 0.3023 0.86996 0.81427 0.0
C1436 C 0.31554 0.8865 0.76823 0.0
C1437 C 0.32362 0.8762 0.666 0.0
H1438 H 0.34993 0.90791 0.66164 0.0
C1439 C 0.3626 0.8918 0.54623 0.0
C1440 C 0.36627 0.90233 0.52325 0.0
C1441 C 0.35389 0.88808 0.57853 0.0
C1442 C 0.34251 0.89908 0.66228 0.0
H1443 H 0.30173 0.85365 0.7987 0.0
H1444 H 0.316 0.86173 0.73909 0.0
H1445 H 0.33743 0.90123 0.72748 0.0
H1446 H 0.36362 0.91717 0.51542 0.0
H1447 H 0.34847 0.91076 0.57322 0.0
H1448 H 0.32907 0.87393 0.60163 0.0
C1449 C 0.3137 0.8675 0.75631 0.0
C1450 C 0.33534 0.89524 0.69997 0.0
C1451 C 0.30564 0.86289 0.79095 0.0
C1452 C 0.36083 0.90894 0.53232 0.0
C1453 C 0.35227 0.90534 0.56557 0.0
C1454 C 0.33089 0.87998 0.62879 0.0
C1455 C 0.31843 0.87926 0.74324 0.0
C1456 C 0.32589 0.88367 0.70264 0.0
C1457 C 0.34884 0.89494 0.58929 0.0
C1458 C 0.34047 0.89141 0.62674 0.0
H1459 H 0.30507 0.8875 0.82085 0.0
H1460 H 0.31895 0.89558 0.7592 0.0
H1461 H 0.31623 0.86736 0.66598 0.0
H1462 H 0.3667 0.88658 0.53998 0.0
H1463 H 0.35144 0.88006 0.59648 0.0
C1464 C 0.11933 0.42489 0.80161 0.0
C1465 C 0.13121 0.43169 0.81303 0.0
C1466 C 0.11475 0.42824 0.76615 0.0
C1467 C 0.12527 0.44699 0.66506 0.0
H1468 H 0.09349 0.44132 0.65892 0.0
C1469 C 0.11014 0.47061 0.54489 0.0
C1470 C 0.09966 0.46384 0.52146 0.0
C1471 C 0.11372 0.4655 0.57725 0.0
C1472 C 0.10234 0.4428 0.66004 0.0
H1473 H 0.14739 0.44771 0.79902 0.0
H1474 H 0.13935 0.45391 0.73932 0.0
H1475 H 0.09996 0.43533 0.72496 0.0
H1476 H 0.08477 0.44641 0.51291 0.0
H1477 H 0.09093 0.43747 0.57075 0.0
H1478 H 0.12777 0.4549 0.60099 0.0
C1479 C 0.13362 0.44572 0.75593 0.0
C1480 C 0.10606 0.43938 0.69785 0.0
C1481 C 0.13821 0.44226 0.7906 0.0
C1482 C 0.09296 0.45178 0.53015 0.0
C1483 C 0.09641 0.4467 0.56344 0.0
C1484 C 0.12161 0.45054 0.62772 0.0
C1485 C 0.12196 0.43854 0.74196 0.0
C1486 C 0.11766 0.44162 0.70118 0.0
C1487 C 0.10676 0.45357 0.58761 0.0
C1488 C 0.11016 0.44861 0.62505 0.0
H1489 H 0.11379 0.41662 0.81814 0.0
H1490 H 0.10575 0.42247 0.75641 0.0
H1491 H 0.13414 0.44852 0.66558 0.0
H1492 H 0.11544 0.47994 0.53893 0.0
H1493 H 0.1217 0.47101 0.59554 0.0
C1494 C 0.12164 0.69126 0.81631 0.0
C1495 C 0.13143 0.7021 0.8051 0.0
C1496 C 0.11595 0.68257 0.78386 0.0
C1497 C 0.11179 0.67866 0.66259 0.0
H1498 H 0.10547 0.64709 0.68434 0.0
C1499 C 0.10088 0.64476 0.52132 0.0
C1500 C 0.09358 0.63289 0.53166 0.0
C1501 C 0.10434 0.65329 0.55468 0.0
C1502 C 0.10695 0.65579 0.67779 0.0
H1503 H 0.14288 0.71221 0.75062 0.0
H1504 H 0.13302 0.69722 0.69502 0.0
H1505 H 0.11323 0.66147 0.74382 0.0
H1506 H 0.08345 0.62067 0.58375 0.0
H1507 H 0.08898 0.63544 0.64098 0.0
H1508 H 0.1055 0.67304 0.59661 0.0
C1509 C 0.12966 0.69543 0.72861 0.0
C1510 C 0.11142 0.66404 0.71202 0.0
C1511 C 0.13538 0.704 0.76083 0.0
C1512 C 0.08926 0.62976 0.57505 0.0
C1513 C 0.09252 0.63824 0.60798 0.0
C1514 C 0.1072 0.67039 0.62844 0.0
C1515 C 0.11987 0.68464 0.73958 0.0
C1516 C 0.11405 0.6756 0.70463 0.0
C1517 C 0.10039 0.65008 0.59872 0.0
C1518 C 0.10482 0.65886 0.63541 0.0
H1519 H 0.11835 0.6895 0.84998 0.0
H1520 H 0.1084 0.67431 0.79322 0.0
H1521 H 0.11363 0.6875 0.65606 0.0
H1522 H 0.10435 0.64737 0.48813 0.0
H1523 H 0.11046 0.66232 0.54626 0.0
C1524 C 0.30798 0.42538 0.80762 0.0
C1525 C 0.30259 0.43204 0.81662 0.0
C1526 C 0.31652 0.42891 0.77433 0.0
C1527 C 0.33795 0.45424 0.71101 0.0
H1528 H 0.33154 0.43292 0.61267 0.0
C1529 C 0.36319 0.47131 0.54891 0.0
C1530 C 0.36664 0.46429 0.52587 0.0
C1531 C 0.35511 0.46666 0.58347 0.0
C1532 C 0.33359 0.43893 0.64008 0.0
H1533 H 0.30225 0.44783 0.79968 0.0
H1534 H 0.31746 0.45423 0.74308 0.0
H1535 H 0.319 0.42627 0.67843 0.0
H1536 H 0.36405 0.4468 0.51966 0.0
H1537 H 0.35012 0.43867 0.58119 0.0
H1538 H 0.3526 0.46686 0.67379 0.0
C1539 C 0.31499 0.44622 0.76112 0.0
C1540 C 0.3264 0.4351 0.67774 0.0
C1541 C 0.3063 0.44256 0.79347 0.0
C1542 C 0.36143 0.45236 0.53665 0.0
C1543 C 0.35347 0.44773 0.572 0.0
C1544 C 0.34524 0.45801 0.67385 0.0
C1545 C 0.31999 0.4393 0.75048 0.0
C1546 C 0.32839 0.44281 0.71313 0.0
C1547 C 0.35047 0.45493 0.59674 0.0
C1548 C 0.34301 0.45052 0.63733 0.0
H1549 H 0.30516 0.41716 0.82466 0.0
H1550 H 0.32029 0.42346 0.76678 0.0
H1551 H 0.33974 0.46031 0.73806 0.0
H1552 H 0.36703 0.48052 0.54101 0.0
H1553 H 0.35272 0.47239 0.60049 0.0
C1554 C 0.55861 0.86289 0.79642 0.0
C1555 C 0.56928 0.86982 0.81835 0.0
C1556 C 0.55508 0.86754 0.76218 0.0
C1557 C 0.56165 0.89526 0.70437 0.0
H1558 H 0.54527 0.87358 0.60832 0.0
C1559 C 0.54948 0.90855 0.53625 0.0
C1560 C 0.53735 0.90223 0.52823 0.0
C1561 C 0.55439 0.90498 0.56979 0.0
C1562 C 0.54987 0.87974 0.63484 0.0
H1563 H 0.58448 0.88717 0.8229 0.0
H1564 H 0.57853 0.8953 0.76188 0.0
H1565 H 0.55165 0.867 0.67229 0.0
H1566 H 0.52096 0.887 0.54734 0.0
H1567 H 0.52959 0.88052 0.6044 0.0
H1568 H 0.55999 0.90804 0.66568 0.0
C1569 C 0.57271 0.88631 0.77174 0.0
C1570 C 0.55342 0.87595 0.67186 0.0
C1571 C 0.57613 0.88168 0.8068 0.0
C1572 C 0.53034 0.89201 0.55279 0.0
C1573 C 0.53527 0.88831 0.5854 0.0
C1574 C 0.55825 0.8991 0.66684 0.0
C1575 C 0.56229 0.87919 0.74807 0.0
C1576 C 0.55912 0.88357 0.70769 0.0
C1577 C 0.54728 0.89488 0.59489 0.0
C1578 C 0.55213 0.8913 0.63214 0.0
H1579 H 0.55313 0.85373 0.80493 0.0
H1580 H 0.54679 0.86188 0.74604 0.0
H1581 H 0.56594 0.90138 0.73125 0.0
H1582 H 0.55505 0.91653 0.51809 0.0
H1583 H 0.56369 0.91016 0.57645 0.0
C1584 C 0.37678 0.11819 0.12786 0.0
C1585 C 0.38287 0.13049 0.12834 0.0
C1586 C 0.36471 0.11188 0.13606 0.0
C1587 C 0.34077 0.11565 0.18475 0.0
H1588 H 0.32066 0.08568 0.12864 0.0
C1589 C 0.29021 0.09244 0.18733 0.0
C1590 C 0.2843 0.08059 0.2 0.0
C1591 C 0.30227 0.09834 0.17946 0.0
C1592 C 0.32621 0.094 0.14475 0.0
H1593 H 0.38101 0.14583 0.13568 0.0
H1594 H 0.35998 0.13491 0.14791 0.0
H1595 H 0.34153 0.09642 0.11105 0.0
H1596 H 0.28642 0.06562 0.21408 0.0
H1597 H 0.30751 0.07592 0.19928 0.0
H1598 H 0.3253 0.11335 0.21719 0.0
C1599 C 0.36451 0.13006 0.14306 0.0
C1600 C 0.33819 0.10016 0.13486 0.0
C1601 C 0.37659 0.13635 0.13566 0.0
C1602 C 0.29073 0.07476 0.20456 0.0
C1603 C 0.30277 0.08061 0.19584 0.0
C1604 C 0.32878 0.10959 0.19401 0.0
C1605 C 0.35842 0.11774 0.1442 0.0
C1606 C 0.34564 0.11109 0.15466 0.0
C1607 C 0.30864 0.09246 0.18332 0.0
C1608 C 0.32139 0.09872 0.1741 0.0
H1609 H 0.3814 0.11343 0.12261 0.0
H1610 H 0.36041 0.10242 0.13719 0.0
H1611 H 0.34622 0.12387 0.20162 0.0
H1612 H 0.28552 0.09719 0.18369 0.0
H1613 H 0.30659 0.10746 0.16962 0.0
C1614 C 0.87909 0.25434 0.10801 0.0
C1615 C 0.8726 0.25557 0.14232 0.0
C1616 C 0.88538 0.24854 0.11548 0.0
C1617 C 0.88813 0.22859 0.19697 0.0
H1618 H 0.91646 0.23714 0.13046 0.0
C1619 C 0.92105 0.21253 0.23608 0.0
C1620 C 0.92229 0.20621 0.20104 0.0
C1621 C 0.9152 0.2188 0.22949 0.0
C1622 C 0.90856 0.23469 0.14919 0.0
H1623 H 0.86792 0.25209 0.21172 0.0
H1624 H 0.87936 0.2426 0.22555 0.0
H1625 H 0.90613 0.24794 0.11873 0.0
H1626 H 0.91864 0.20172 0.13145 0.0
H1627 H 0.90877 0.21305 0.1197 0.0
H1628 H 0.89097 0.21564 0.22858 0.0
C1629 C 0.87924 0.24559 0.19226 0.0
C1630 C 0.90255 0.24079 0.14227 0.0
C1631 C 0.87273 0.25113 0.18448 0.0
C1632 C 0.91776 0.20645 0.15912 0.0
C1633 C 0.91217 0.21296 0.1523 0.0
C1634 C 0.89431 0.22269 0.20457 0.0
C1635 C 0.88556 0.24408 0.15777 0.0
C1636 C 0.89218 0.23777 0.16581 0.0
C1637 C 0.91076 0.2191 0.1875 0.0
C1638 C 0.9045 0.22564 0.1805 0.0
H1639 H 0.87907 0.2576 0.07507 0.0
H1640 H 0.88991 0.24739 0.08776 0.0
H1641 H 0.88007 0.22576 0.21508 0.0
H1642 H 0.92443 0.21246 0.26875 0.0
H1643 H 0.91421 0.2235 0.25706 0.0
C1644 C 0.74908 0.62081 0.18714 0.0
C1645 C 0.74488 0.61653 0.14446 0.0
C1646 C 0.75445 0.63278 0.19623 0.0
C1647 C 0.75919 0.66113 0.14891 0.0
H1648 H 0.78421 0.67439 0.23585 0.0
C1649 C 0.79427 0.7103 0.1651 0.0
C1650 C 0.79458 0.71534 0.20649 0.0
C1651 C 0.78749 0.69821 0.15899 0.0
C1652 C 0.77717 0.67076 0.21177 0.0
H1653 H 0.74309 0.62142 0.07764 0.0
H1654 H 0.75302 0.64237 0.0926 0.0
H1655 H 0.77406 0.6534 0.22133 0.0
H1656 H 0.78812 0.71171 0.27403 0.0
H1657 H 0.77658 0.69038 0.26365 0.0
H1658 H 0.76292 0.67876 0.13784 0.0
C1659 C 0.7518 0.6365 0.11974 0.0
C1660 C 0.77127 0.65871 0.20354 0.0
C1661 C 0.74617 0.62447 0.11096 0.0
C1662 C 0.78801 0.70804 0.24177 0.0
C1663 C 0.78145 0.69589 0.23592 0.0
C1664 C 0.76529 0.67322 0.15646 0.0
C1665 C 0.75602 0.64084 0.16256 0.0
C1666 C 0.76218 0.6537 0.17192 0.0
C1667 C 0.78111 0.69091 0.19441 0.0
C1668 C 0.77431 0.6781 0.18793 0.0
H1669 H 0.74807 0.61486 0.21379 0.0
H1670 H 0.75728 0.63567 0.22986 0.0
H1671 H 0.7521 0.65766 0.12508 0.0
H1672 H 0.79917 0.71572 0.13722 0.0
H1673 H 0.78737 0.69452 0.12676 0.0
C1674 C 0.08112 0.29157 0.772 0.0
C1675 C 0.0796 0.28385 0.80671 0.0
C1676 C 0.087 0.30367 0.77929 0.0
C1677 C 0.1065 0.32642 0.86158 0.0
H1678 H 0.09821 0.34611 0.79315 0.0
C1679 C 0.12226 0.37536 0.89996 0.0
C1680 C 0.12872 0.38294 0.86514 0.0
C1681 C 0.11603 0.36323 0.89332 0.0
C1682 C 0.10058 0.34068 0.81241 0.0
H1683 H 0.08271 0.28267 0.87652 0.0
H1684 H 0.09236 0.30362 0.88994 0.0
H1685 H 0.08756 0.32498 0.78135 0.0
H1686 H 0.13347 0.38381 0.79584 0.0
H1687 H 0.1222 0.3626 0.78395 0.0
H1688 H 0.11922 0.34223 0.89377 0.0
C1689 C 0.08951 0.30049 0.85655 0.0
C1690 C 0.09457 0.32857 0.80546 0.0
C1691 C 0.08389 0.28843 0.84898 0.0
C1692 C 0.12862 0.37817 0.82334 0.0
C1693 C 0.12215 0.36608 0.81644 0.0
C1694 C 0.1123 0.33849 0.8692 0.0
C1695 C 0.09125 0.30833 0.82175 0.0
C1696 C 0.0975 0.32125 0.8297 0.0
C1697 C 0.11591 0.35852 0.85147 0.0
C1698 C 0.10945 0.34571 0.84445 0.0
H1699 H 0.07798 0.28828 0.73896 0.0
H1700 H 0.08834 0.30935 0.75133 0.0
H1701 H 0.10924 0.3212 0.88028 0.0
H1702 H 0.12222 0.37879 0.93255 0.0
H1703 H 0.11124 0.35753 0.92075 0.0
C1704 C 0.7137 0.7965 0.8491 0.0
C1705 C 0.71809 0.79643 0.80677 0.0
C1706 C 0.70173 0.78978 0.85799 0.0
C1707 C 0.67354 0.76569 0.8113 0.0
H1708 H 0.66003 0.77764 0.89638 0.0
C1709 C 0.62434 0.75218 0.82853 0.0
C1710 C 0.61929 0.74681 0.86919 0.0
C1711 C 0.63642 0.75747 0.82203 0.0
C1712 C 0.66374 0.77419 0.87283 0.0
H1713 H 0.71341 0.78935 0.74042 0.0
H1714 H 0.69242 0.77813 0.75495 0.0
H1715 H 0.68101 0.78864 0.88171 0.0
H1716 H 0.62292 0.74282 0.935 0.0
H1717 H 0.64424 0.75257 0.92403 0.0
H1718 H 0.65596 0.75159 0.80086 0.0
C1719 C 0.69822 0.78299 0.78199 0.0
C1720 C 0.67578 0.78042 0.86452 0.0
C1721 C 0.71026 0.7895 0.77343 0.0
C1722 C 0.62658 0.74687 0.90331 0.0
C1723 C 0.63873 0.75243 0.89713 0.0
C1724 C 0.66145 0.75961 0.81893 0.0
C1725 C 0.69376 0.78304 0.82445 0.0
C1726 C 0.68089 0.77627 0.83362 0.0
C1727 C 0.6437 0.75772 0.85638 0.0
C1728 C 0.65649 0.76382 0.84978 0.0
H1729 H 0.71956 0.80163 0.87566 0.0
H1730 H 0.69877 0.78984 0.8914 0.0
H1731 H 0.67708 0.76203 0.78801 0.0
H1732 H 0.61893 0.75219 0.80153 0.0
H1733 H 0.64011 0.76155 0.79042 0.0
C1734 C 0.21326 0.9211 0.77192 0.0
C1735 C 0.20699 0.92264 0.80633 0.0
C1736 C 0.21958 0.91535 0.77973 0.0
C1737 C 0.22284 0.89608 0.86298 0.0
H1738 H 0.25072 0.90407 0.79435 0.0
C1739 C 0.25568 0.8799 0.90138 0.0
C1740 C 0.25663 0.87332 0.86664 0.0
C1741 C 0.24993 0.88626 0.89472 0.0
C1742 C 0.24294 0.90178 0.81369 0.0
H1743 H 0.20271 0.91972 0.8762 0.0
H1744 H 0.21421 0.91031 0.89054 0.0
H1745 H 0.24034 0.91481 0.78226 0.0
H1746 H 0.25261 0.86849 0.79746 0.0
H1747 H 0.24292 0.87999 0.78554 0.0
H1748 H 0.22584 0.88334 0.89548 0.0
C1749 C 0.21389 0.91304 0.85698 0.0
C1750 C 0.2369 0.90784 0.80657 0.0
C1751 C 0.20735 0.91853 0.84889 0.0
C1752 C 0.25195 0.87343 0.82489 0.0
C1753 C 0.24646 0.88003 0.81798 0.0
C1754 C 0.22904 0.89022 0.87076 0.0
C1755 C 0.22001 0.91124 0.82243 0.0
C1756 C 0.22668 0.90501 0.83083 0.0
C1757 C 0.24531 0.8864 0.85293 0.0
C1758 C 0.23907 0.89296 0.84592 0.0
H1759 H 0.21305 0.9241 0.73867 0.0
H1760 H 0.22393 0.91396 0.75196 0.0
H1761 H 0.21489 0.8934 0.8817 0.0
H1762 H 0.25917 0.87992 0.93393 0.0
H1763 H 0.24913 0.89114 0.9221 0.0
C1764 C 0.70952 0.92131 0.76591 0.0
C1765 C 0.7169 0.92169 0.80028 0.0
C1766 C 0.69739 0.91574 0.77237 0.0
C1767 C 0.6749 0.90869 0.85307 0.0
H1768 H 0.65489 0.8806 0.78584 0.0
C1769 C 0.62607 0.87906 0.89795 0.0
C1770 C 0.61811 0.87264 0.86415 0.0
C1771 C 0.6381 0.88544 0.88923 0.0
C1772 C 0.66025 0.88856 0.80433 0.0
H1773 H 0.71744 0.91686 0.86861 0.0
H1774 H 0.69627 0.90751 0.88021 0.0
H1775 H 0.67587 0.89144 0.77109 0.0
H1776 H 0.61641 0.86819 0.7944 0.0
H1777 H 0.63723 0.87978 0.77848 0.0
H1778 H 0.65941 0.9062 0.88534 0.0
C1779 C 0.69988 0.91134 0.84819 0.0
C1780 C 0.67229 0.89471 0.79597 0.0
C1781 C 0.71196 0.91663 0.84143 0.0
C1782 C 0.62237 0.87293 0.82126 0.0
C1783 C 0.63436 0.87954 0.81226 0.0
C1784 C 0.66282 0.90271 0.86076 0.0
C1785 C 0.69251 0.91076 0.81363 0.0
C1786 C 0.67971 0.90473 0.82059 0.0
C1787 C 0.64244 0.88579 0.8462 0.0
C1788 C 0.65531 0.89246 0.83688 0.0
H1789 H 0.7131 0.92511 0.73384 0.0
H1790 H 0.69181 0.91537 0.7453 0.0
H1791 H 0.6805 0.91645 0.8723 0.0
H1792 H 0.62302 0.87892 0.93141 0.0
H1793 H 0.64397 0.8899 0.91657 0.0
C1794 C 0.08034 0.78854 0.77652 0.0
C1795 C 0.07882 0.79486 0.81075 0.0
C1796 C 0.08606 0.7822 0.78459 0.0
C1797 C 0.10534 0.77908 0.8683 0.0
H1798 H 0.09772 0.75134 0.79938 0.0
C1799 C 0.12222 0.7466 0.90491 0.0
C1800 C 0.12913 0.74622 0.87019 0.0
C1801 C 0.11558 0.7521 0.89883 0.0
C1802 C 0.09988 0.75906 0.81886 0.0
H1803 H 0.08168 0.79917 0.8806 0.0
H1804 H 0.09102 0.78763 0.8954 0.0
H1805 H 0.08676 0.76151 0.78733 0.0
H1806 H 0.13425 0.75097 0.80162 0.0
H1807 H 0.12231 0.76021 0.79069 0.0
H1808 H 0.11819 0.77624 0.9008 0.0
C1809 C 0.08832 0.78793 0.86177 0.0
C1810 C 0.0937 0.76499 0.81175 0.0
C1811 C 0.08287 0.7945 0.85342 0.0
C1812 C 0.12907 0.7512 0.82905 0.0
C1813 C 0.12222 0.75642 0.82268 0.0
C1814 C 0.1113 0.77298 0.87609 0.0
C1815 C 0.09014 0.78179 0.82739 0.0
C1816 C 0.09642 0.77517 0.83602 0.0
C1817 C 0.11551 0.75701 0.85761 0.0
C1818 C 0.1087 0.76301 0.85112 0.0
H1819 H 0.07737 0.78874 0.74321 0.0
H1820 H 0.08746 0.77782 0.75693 0.0
H1821 H 0.10793 0.787 0.88705 0.0
H1822 H 0.12213 0.74286 0.93698 0.0
H1823 H 0.11046 0.75247 0.92618 0.0
C1824 C 0.2065 0.28911 0.84872 0.0
C1825 C 0.20621 0.28437 0.80668 0.0
C1826 C 0.21295 0.30121 0.8556 0.0
C1827 C 0.22267 0.32888 0.80321 0.0
H1828 H 0.2478 0.34221 0.88957 0.0
C1829 C 0.25146 0.37889 0.82299 0.0
C1830 C 0.25588 0.38346 0.86517 0.0
C1831 C 0.24581 0.36683 0.81537 0.0
C1832 C 0.24068 0.33867 0.86588 0.0
H1833 H 0.21229 0.28856 0.73878 0.0
H1834 H 0.22322 0.30981 0.75059 0.0
H1835 H 0.23692 0.32107 0.87786 0.0
H1836 H 0.25773 0.37902 0.93262 0.0
H1837 H 0.24733 0.35795 0.92018 0.0
H1838 H 0.22588 0.34623 0.79247 0.0
C1839 C 0.21861 0.3041 0.77821 0.0
C1840 C 0.23453 0.32656 0.85899 0.0
C1841 C 0.2124 0.29197 0.77156 0.0
C1842 C 0.2545 0.37573 0.89966 0.0
C1843 C 0.24859 0.36363 0.89233 0.0
C1844 C 0.22862 0.34096 0.81078 0.0
C1845 C 0.21897 0.30879 0.82034 0.0
C1846 C 0.22552 0.32159 0.82747 0.0
C1847 C 0.24416 0.35899 0.85002 0.0
C1848 C 0.23777 0.34606 0.8421 0.0
H1849 H 0.20187 0.28346 0.87646 0.0
H1850 H 0.21309 0.30466 0.88832 0.0
H1851 H 0.21565 0.3252 0.77903 0.0
H1852 H 0.25253 0.38466 0.79562 0.0
H1853 H 0.24284 0.36371 0.78206 0.0
C1854 C 0.91833 0.71172 0.15703 0.0
C1855 C 0.92271 0.71643 0.19918 0.0
C1856 C 0.91279 0.69964 0.14991 0.0
C1857 C 0.89481 0.67196 0.20179 0.0
H1858 H 0.90655 0.65863 0.11524 0.0
C1859 C 0.87315 0.62197 0.18058 0.0
C1860 C 0.87299 0.61746 0.13828 0.0
C1861 C 0.87968 0.634 0.18859 0.0
C1862 C 0.903 0.66217 0.13899 0.0
H1863 H 0.92464 0.7122 0.26697 0.0
H1864 H 0.91452 0.69096 0.25472 0.0
H1865 H 0.91694 0.67975 0.12745 0.0
H1866 H 0.87942 0.62199 0.07101 0.0
H1867 H 0.8903 0.64303 0.08412 0.0
H1868 H 0.88056 0.65465 0.21203 0.0
C1869 C 0.91559 0.6967 0.22721 0.0
C1870 C 0.90903 0.67427 0.14617 0.0
C1871 C 0.92139 0.70881 0.23412 0.0
C1872 C 0.87946 0.62523 0.10406 0.0
C1873 C 0.88578 0.63731 0.11177 0.0
C1874 C 0.88862 0.6599 0.19392 0.0
C1875 C 0.91129 0.69204 0.18502 0.0
C1876 C 0.90501 0.67924 0.17775 0.0
C1877 C 0.88599 0.64189 0.1542 0.0
C1878 C 0.89263 0.6548 0.16251 0.0
H1879 H 0.91927 0.71739 0.12945 0.0
H1880 H 0.90949 0.69621 0.11715 0.0
H1881 H 0.89149 0.67565 0.22598 0.0
H1882 H 0.86835 0.61616 0.20775 0.0
H1883 H 0.87982 0.63707 0.22198 0.0
C1884 C 0.37874 0.24994 0.17992 0.0
C1885 C 0.38344 0.25453 0.13796 0.0
C1886 C 0.36666 0.24432 0.18712 0.0
C1887 C 0.33903 0.22635 0.13572 0.0
H1888 H 0.32556 0.23803 0.22193 0.0
C1889 C 0.28899 0.20451 0.15696 0.0
C1890 C 0.28446 0.20448 0.19911 0.0
C1891 C 0.30103 0.21098 0.14901 0.0
C1892 C 0.32914 0.23448 0.1983 0.0
H1893 H 0.37918 0.25676 0.07058 0.0
H1894 H 0.35793 0.2465 0.08291 0.0
H1895 H 0.34668 0.24854 0.20959 0.0
H1896 H 0.28898 0.21103 0.26623 0.0
H1897 H 0.31004 0.2218 0.25328 0.0
H1898 H 0.32176 0.21198 0.12573 0.0
C1899 C 0.36368 0.24747 0.11023 0.0
C1900 C 0.34124 0.2406 0.19102 0.0
C1901 C 0.3758 0.25335 0.10328 0.0
C1902 C 0.29223 0.21097 0.2333 0.0
C1903 C 0.30432 0.21723 0.22567 0.0
C1904 C 0.32697 0.22007 0.14369 0.0
C1905 C 0.35904 0.24295 0.15223 0.0
C1906 C 0.34625 0.23659 0.15956 0.0
C1907 C 0.30891 0.21737 0.18332 0.0
C1908 C 0.32182 0.22406 0.17499 0.0
H1909 H 0.38443 0.25077 0.20731 0.0
H1910 H 0.36324 0.24086 0.21973 0.0
H1911 H 0.34276 0.22305 0.11161 0.0
H1912 H 0.28318 0.19969 0.1298 0.0
H1913 H 0.30411 0.21106 0.11569 0.0
C1914 C 0.74919 0.12766 0.18531 0.0
C1915 C 0.74486 0.1278 0.14285 0.0
C1916 C 0.75481 0.12123 0.19332 0.0
C1917 C 0.77336 0.11212 0.14321 0.0
H1918 H 0.76191 0.08687 0.229 0.0
C1919 C 0.79567 0.08446 0.16232 0.0
C1920 C 0.79589 0.07992 0.20416 0.0
C1921 C 0.78901 0.08985 0.15512 0.0
C1922 C 0.76538 0.09403 0.20549 0.0
H1923 H 0.74306 0.12139 0.07549 0.0
H1924 H 0.75334 0.11051 0.08926 0.0
H1925 H 0.75111 0.09721 0.21652 0.0
H1926 H 0.78938 0.0775 0.27144 0.0
H1927 H 0.77825 0.0875 0.25979 0.0
H1928 H 0.78792 0.10954 0.13346 0.0
C1929 C 0.75216 0.11521 0.11634 0.0
C1930 C 0.75911 0.09986 0.19814 0.0
C1931 C 0.74626 0.12139 0.10856 0.0
C1932 C 0.78932 0.08088 0.23878 0.0
C1933 C 0.78286 0.08655 0.2319 0.0
C1934 C 0.77978 0.10651 0.15125 0.0
C1935 C 0.75646 0.11508 0.15878 0.0
C1936 C 0.76302 0.10888 0.16669 0.0
C1937 C 0.78262 0.09113 0.1899 0.0
C1938 C 0.77585 0.09729 0.18223 0.0
H1939 H 0.74817 0.13246 0.21242 0.0
H1940 H 0.75812 0.12128 0.22625 0.0
H1941 H 0.77661 0.11917 0.1192 0.0
H1942 H 0.80051 0.08367 0.13478 0.0
H1943 H 0.78882 0.0929 0.122 0.0
C1944 C 0.04658 0.46175 0.51676 0.0
C1945 C 0.05111 0.46193 0.47448 0.0
C1946 C 0.03453 0.45524 0.52466 0.0
C1947 C 0.00641 0.43194 0.47472 0.0
H1948 H 0.9928 0.44336 0.56148 0.0
C1949 C 0.95684 0.41649 0.49133 0.0
C1950 C 0.95204 0.41208 0.53334 0.0
C1951 C 0.96894 0.42208 0.48463 0.0
C1952 C 0.99653 0.44006 0.53736 0.0
H1953 H 0.0466 0.45556 0.40711 0.0
H1954 H 0.02555 0.44471 0.42004 0.0
H1955 H 0.01383 0.45432 0.54795 0.0
H1956 H 0.95613 0.41017 0.60134 0.0
H1957 H 0.9774 0.42037 0.58984 0.0
H1958 H 0.98886 0.418 0.46283 0.0
C1959 C 0.03127 0.4492 0.44776 0.0
C1960 C 0.0086 0.44627 0.52972 0.0
C1961 C 0.04335 0.4555 0.44015 0.0
C1962 C 0.95959 0.41343 0.56859 0.0
C1963 C 0.97172 0.41929 0.56211 0.0
C1964 C 0.9943 0.42589 0.48167 0.0
C1965 C 0.02666 0.44895 0.49018 0.0
C1966 C 0.01375 0.44229 0.49836 0.0
C1967 C 0.97647 0.42361 0.52004 0.0
C1968 C 0.98929 0.42989 0.51314 0.0
H1969 H 0.05237 0.46652 0.544 0.0
H1970 H 0.03144 0.45507 0.55802 0.0
H1971 H 0.00999 0.42841 0.45103 0.0
H1972 H 0.95123 0.41553 0.4635 0.0
H1973 H 0.97244 0.4254 0.45196 0.0
C1974 C 0.58535 0.53972 0.48583 0.0
C1975 C 0.58948 0.53941 0.52842 0.0
C1976 C 0.57992 0.5463 0.47751 0.0
C1977 C 0.57486 0.56948 0.52716 0.0
H1978 H 0.55024 0.55825 0.43867 0.0
C1979 C 0.54036 0.58439 0.5089 0.0
C1980 C 0.54016 0.58901 0.46712 0.0
C1981 C 0.547 0.57895 0.51578 0.0
C1982 C 0.55716 0.5615 0.46325 0.0
H1983 H 0.59105 0.54563 0.59588 0.0
H1984 H 0.581 0.55659 0.5822 0.0
H1985 H 0.5603 0.54731 0.45275 0.0
H1986 H 0.54668 0.59149 0.39971 0.0
H1987 H 0.55798 0.58153 0.41148 0.0
H1988 H 0.57112 0.58333 0.539 0.0
C1989 C 0.58234 0.55215 0.55458 0.0
C1990 C 0.56301 0.5553 0.47121 0.0
C1991 C 0.58803 0.54579 0.56262 0.0
C1992 C 0.54672 0.58805 0.43229 0.0
C1993 C 0.55313 0.58234 0.43892 0.0
C1994 C 0.5688 0.57551 0.51987 0.0
C1995 C 0.5782 0.55252 0.51186 0.0
C1996 C 0.57199 0.5592 0.50323 0.0
C1997 C 0.55334 0.57779 0.48076 0.0
C1998 C 0.55994 0.57158 0.48778 0.0
H1999 H 0.58648 0.53499 0.45868 0.0
H2000 H 0.57717 0.54656 0.44394 0.0
H2001 H 0.58185 0.57295 0.55138 0.0
H2002 H 0.53545 0.58506 0.53641 0.0
H2003 H 0.54702 0.57545 0.54827 0.0
C2004 C 0.45539 0.04256 0.57021 0.0
C2005 C 0.46191 0.05029 0.53599 0.0
C2006 C 0.44906 0.03047 0.5626 0.0
C2007 C 0.44636 0.00785 0.48081 0.0
H2008 H 0.41801 0.98794 0.547 0.0
C2009 C 0.41376 0.95894 0.44039 0.0
C2010 C 0.41252 0.95133 0.47525 0.0
C2011 C 0.41948 0.97104 0.44739 0.0
C2012 C 0.42592 0.99344 0.52836 0.0
H2013 H 0.46659 0.05154 0.46657 0.0
H2014 H 0.45509 0.03063 0.4525 0.0
H2015 H 0.42833 0.00907 0.55916 0.0
H2016 H 0.41599 0.95036 0.54494 0.0
H2017 H 0.42562 0.97153 0.5574 0.0
H2018 H 0.44357 0.99212 0.44888 0.0
C2019 C 0.45522 0.03372 0.48584 0.0
C2020 C 0.43192 0.00554 0.53551 0.0
C2021 C 0.46176 0.04575 0.49376 0.0
C2022 C 0.41688 0.95603 0.51742 0.0
C2023 C 0.42232 0.9681 0.52464 0.0
C2024 C 0.44021 0.99579 0.47296 0.0
C2025 C 0.44889 0.02586 0.52026 0.0
C2026 C 0.44229 0.01294 0.51206 0.0
C2027 C 0.42377 0.9757 0.48959 0.0
C2028 C 0.43 0.98849 0.49689 0.0
H2029 H 0.45542 0.04582 0.60319 0.0
H2030 H 0.44451 0.02476 0.59026 0.0
H2031 H 0.45443 0.01312 0.46278 0.0
H2032 H 0.41053 0.95556 0.40752 0.0
H2033 H 0.4205 0.97678 0.41993 0.0
C2034 C 0.59332 0.04332 0.54128 0.0
C2035 C 0.58727 0.04954 0.53733 0.0
C2036 C 0.58757 0.03125 0.53352 0.0
C2037 C 0.55906 0.00488 0.53701 0.0
H2038 H 0.57132 0.99225 0.44962 0.0
C2039 C 0.53242 0.95666 0.48245 0.0
C2040 C 0.53842 0.95072 0.47145 0.0
C2041 C 0.53854 0.96873 0.49003 0.0
C2042 C 0.56785 0.99556 0.47473 0.0
H2043 H 0.5704 0.04794 0.52315 0.0
H2044 H 0.56029 0.02677 0.51091 0.0
H2045 H 0.58186 0.01321 0.46547 0.0
H2046 H 0.55555 0.95274 0.45996 0.0
H2047 H 0.56631 0.9737 0.47508 0.0
H2048 H 0.54529 0.98732 0.54774 0.0
C2049 C 0.56951 0.0313 0.51944 0.0
C2050 C 0.57389 0.00758 0.48357 0.0
C2051 C 0.57531 0.0434 0.52625 0.0
C2052 C 0.55068 0.9571 0.46806 0.0
C2053 C 0.55684 0.96915 0.47652 0.0
C2054 C 0.55314 0.99283 0.52885 0.0
C2055 C 0.57561 0.02513 0.52267 0.0
C2056 C 0.56948 0.01235 0.51447 0.0
C2057 C 0.55085 0.97515 0.48773 0.0
C2058 C 0.55738 0.98799 0.49723 0.0
H2059 H 0.60255 0.04782 0.54958 0.0
H2060 H 0.59243 0.02666 0.53639 0.0
H2061 H 0.55555 0.00835 0.56137 0.0
H2062 H 0.52295 0.952 0.48477 0.0
H2063 H 0.53356 0.97302 0.49737 0.0
C2064 C 0.9588 0.54596 0.55967 0.0
C2065 C 0.95102 0.53959 0.52522 0.0
C2066 C 0.97088 0.5522 0.55204 0.0
C2067 C 0.99321 0.56779 0.47048 0.0
H2068 H 0.01247 0.55833 0.53544 0.0
C2069 C 0.04255 0.58726 0.43095 0.0
C2070 C 0.05005 0.58826 0.46577 0.0
C2071 C 0.0304 0.58149 0.43754 0.0
C2072 C 0.00733 0.5613 0.51757 0.0
H2073 H 0.94974 0.53507 0.45552 0.0
H2074 H 0.97089 0.54636 0.44196 0.0
H2075 H 0.99149 0.54849 0.54929 0.0
H2076 H 0.05084 0.58449 0.53518 0.0
H2077 H 0.02989 0.5751 0.54744 0.0
H2078 H 0.00899 0.58092 0.43996 0.0
C2079 C 0.9676 0.54632 0.4749 0.0
C2080 C 0.99528 0.55557 0.52538 0.0
C2081 C 0.95554 0.53984 0.48275 0.0
C2082 C 0.04524 0.58368 0.5075 0.0
C2083 C 0.03317 0.57819 0.51439 0.0
C2084 C 0.00533 0.57373 0.46336 0.0
C2085 C 0.97536 0.55244 0.50959 0.0
C2086 C 0.98813 0.55874 0.50181 0.0
C2087 C 0.02553 0.57685 0.47941 0.0
C2088 C 0.01258 0.57056 0.48675 0.0
H2089 H 0.95556 0.54589 0.59274 0.0
H2090 H 0.97674 0.55688 0.57923 0.0
H2091 H 0.98783 0.57039 0.45205 0.0
H2092 H 0.04604 0.59069 0.39838 0.0
H2093 H 0.02486 0.58051 0.40951 0.0
C2094 C 0.41723 0.46121 0.51493 0.0
C2095 C 0.41257 0.46141 0.47322 0.0
C2096 C 0.42268 0.45457 0.52162 0.0
C2097 C 0.44004 0.44437 0.46842 0.0
H2098 H 0.4284 0.41937 0.55529 0.0
C2099 C 0.4612 0.41552 0.48718 0.0
C2100 C 0.46149 0.41118 0.52935 0.0
C2101 C 0.45475 0.42114 0.47981 0.0
C2102 C 0.43193 0.42644 0.53144 0.0
H2103 H 0.41006 0.45492 0.40576 0.0
H2104 H 0.42004 0.44365 0.4172 0.0
H2105 H 0.41822 0.43035 0.5442 0.0
H2106 H 0.45538 0.40941 0.59706 0.0
H2107 H 0.44465 0.41977 0.58505 0.0
H2108 H 0.45407 0.44104 0.45693 0.0
C2109 C 0.41925 0.44848 0.44472 0.0
C2110 C 0.42601 0.43265 0.5249 0.0
C2111 C 0.41353 0.45489 0.43828 0.0
C2112 C 0.45522 0.41259 0.56409 0.0
C2113 C 0.44899 0.41847 0.55701 0.0
C2114 C 0.44612 0.43836 0.47563 0.0
C2115 C 0.42382 0.44825 0.48648 0.0
C2116 C 0.43 0.44162 0.49321 0.0
C2117 C 0.44866 0.42284 0.51472 0.0
C2118 C 0.44214 0.42926 0.50713 0.0
H2119 H 0.41656 0.46611 0.54251 0.0
H2120 H 0.4262 0.45454 0.55405 0.0
H2121 H 0.44332 0.45135 0.44411 0.0
H2122 H 0.46584 0.41444 0.45963 0.0
H2123 H 0.4545 0.42406 0.44651 0.0
C2124 C 0.256 0.08904 0.32199 0.0
C2125 C 0.24969 0.0814 0.2871 0.0
C2126 C 0.25605 0.09963 0.32735 0.0
C2127 C 0.23916 0.1141 0.29656 0.0
H2128 H 0.26817 0.14318 0.31675 0.0
C2129 C 0.24347 0.15865 0.25897 0.0
C2130 C 0.24968 0.16794 0.2887 0.0
C2131 C 0.24346 0.14813 0.2639 0.0
C2132 C 0.25997 0.13511 0.31178 0.0
H2133 H 0.23853 0.07889 0.23047 0.0
H2134 H 0.23865 0.09724 0.23963 0.0
H2135 H 0.26818 0.12461 0.31662 0.0
H2136 H 0.26084 0.17351 0.34684 0.0
H2137 H 0.26083 0.15502 0.35549 0.0
H2138 H 0.23097 0.12452 0.29087 0.0
C2139 C 0.24345 0.09505 0.26325 0.0
C2140 C 0.25997 0.12448 0.31172 0.0
C2141 C 0.24345 0.08455 0.25781 0.0
C2142 C 0.25595 0.16649 0.32345 0.0
C2143 C 0.25599 0.15593 0.32828 0.0
C2144 C 0.23915 0.12468 0.29658 0.0
C2145 C 0.2497 0.10271 0.29812 0.0
C2146 C 0.2496 0.11388 0.30309 0.0
C2147 C 0.24969 0.14661 0.29864 0.0
C2148 C 0.2496 0.13534 0.30318 0.0
H2149 H 0.26091 0.08685 0.34504 0.0
H2150 H 0.26092 0.10534 0.35464 0.0
H2151 H 0.23097 0.10607 0.29081 0.0
H2152 H 0.23859 0.15949 0.23173 0.0
H2153 H 0.23868 0.14121 0.24003 0.0
C2154 C 0.84195 0.08585 0.25251 0.0
C2155 C 0.8333 0.08218 0.28549 0.0
C2156 C 0.85205 0.09682 0.25497 0.0
C2157 C 0.8709 0.12066 0.33138 0.0
H2158 H 0.88225 0.13832 0.2221 0.0
C2159 C 0.91215 0.16737 0.3215 0.0
C2160 C 0.91972 0.16921 0.28571 0.0
C2161 C 0.90119 0.15711 0.32393 0.0
C2162 C 0.87925 0.13347 0.25287 0.0
H2163 H 0.82856 0.08706 0.34742 0.0
H2164 H 0.84633 0.10635 0.35175 0.0
H2165 H 0.86387 0.1198 0.22212 0.0
H2166 H 0.92181 0.16167 0.22489 0.0
H2167 H 0.90285 0.14389 0.22921 0.0
H2168 H 0.88643 0.13437 0.36191 0.0
C2169 C 0.84525 0.10067 0.32404 0.0
C2170 C 0.86871 0.12285 0.25288 0.0
C2171 C 0.83507 0.08966 0.32149 0.0
C2172 C 0.91617 0.16057 0.25276 0.0
C2173 C 0.90525 0.15039 0.25509 0.0
C2174 C 0.88149 0.13134 0.33137 0.0
C2175 C 0.8538 0.10442 0.2905 0.0
C2176 C 0.86452 0.11619 0.29189 0.0
C2177 C 0.89759 0.14856 0.29048 0.0
C2178 C 0.88589 0.13774 0.29187 0.0
H2179 H 0.8409 0.08028 0.22449 0.0
H2180 H 0.85856 0.09932 0.22904 0.0
H2181 H 0.86794 0.11572 0.36193 0.0
H2182 H 0.91465 0.17388 0.3474 0.0
H2183 H 0.89546 0.15598 0.35152 0.0
C2184 C 0.91529 0.75509 0.251 0.0
C2185 C 0.91885 0.75007 0.2842 0.0
C2186 C 0.90436 0.75432 0.25316 0.0
C2187 C 0.88068 0.74976 0.32958 0.0
H2188 H 0.86296 0.74363 0.22057 0.0
C2189 C 0.8343 0.74506 0.32081 0.0
C2190 C 0.83242 0.75068 0.28479 0.0
C2191 C 0.84448 0.74422 0.32302 0.0
C2192 C 0.86783 0.74544 0.25126 0.0
H2193 H 0.91379 0.74041 0.34603 0.0
H2194 H 0.89458 0.73906 0.34984 0.0
H2195 H 0.88133 0.74346 0.22034 0.0
H2196 H 0.83984 0.76003 0.22335 0.0
H2197 H 0.85751 0.75866 0.22734 0.0
H2198 H 0.86718 0.75188 0.36029 0.0
C2199 C 0.90031 0.74362 0.32221 0.0
C2200 C 0.87836 0.74533 0.25113 0.0
C2201 C 0.91128 0.74435 0.31994 0.0
C2202 C 0.84097 0.75557 0.25141 0.0
C2203 C 0.85108 0.75471 0.25355 0.0
C2204 C 0.8701 0.74987 0.32971 0.0
C2205 C 0.8967 0.74853 0.28862 0.0
C2206 C 0.88503 0.74771 0.29006 0.0
C2207 C 0.85294 0.74895 0.28914 0.0
C2208 C 0.86367 0.74793 0.29032 0.0
H2209 H 0.92094 0.75961 0.22313 0.0
H2210 H 0.90195 0.75838 0.22715 0.0
H2211 H 0.88564 0.75169 0.36007 0.0
H2212 H 0.82786 0.7412 0.34703 0.0
H2213 H 0.84563 0.73968 0.35078 0.0
C2214 C 0.08535 0.24405 0.75508 0.0
C2215 C 0.08208 0.24939 0.72213 0.0
C2216 C 0.09622 0.24467 0.75343 0.0
C2217 C 0.12041 0.24977 0.67838 0.0
H2218 H 0.13749 0.25505 0.78858 0.0
C2219 C 0.16712 0.25551 0.68805 0.0
C2220 C 0.16909 0.24972 0.72328 0.0
C2221 C 0.15677 0.25603 0.68608 0.0
C2222 C 0.13279 0.25347 0.75756 0.0
H2223 H 0.0876 0.25945 0.66124 0.0
H2224 H 0.1067 0.26056 0.65837 0.0
H2225 H 0.11899 0.25496 0.7883 0.0
H2226 H 0.16168 0.23981 0.78367 0.0
H2227 H 0.14369 0.24064 0.78009 0.0
H2228 H 0.13423 0.24818 0.64778 0.0
C2229 C 0.10079 0.25584 0.68537 0.0
C2230 C 0.12218 0.25342 0.7574 0.0
C2231 C 0.08988 0.25525 0.6871 0.0
C2232 C 0.16047 0.2444 0.75621 0.0
C2233 C 0.15018 0.24494 0.7543 0.0
C2234 C 0.13106 0.24981 0.67854 0.0
C2235 C 0.10412 0.25063 0.71877 0.0
C2236 C 0.11577 0.25139 0.71797 0.0
C2237 C 0.14822 0.25082 0.71942 0.0
C2238 C 0.13728 0.25149 0.7183 0.0
H2239 H 0.07953 0.23941 0.78239 0.0
H2240 H 0.09841 0.24037 0.77924 0.0
H2241 H 0.11564 0.24811 0.6475 0.0
H2242 H 0.17361 0.2597 0.66219 0.0
H2243 H 0.15557 0.26069 0.65892 0.0
C2244 C 0.74599 0.83451 0.67899 0.0
C2245 C 0.75239 0.83341 0.71409 0.0
C2246 C 0.74585 0.84499 0.67281 0.0
C2247 C 0.76273 0.87647 0.70089 0.0
H2248 H 0.73358 0.87642 0.68314 0.0
C2249 C 0.75835 0.91633 0.74238 0.0
C2250 C 0.75219 0.91963 0.71335 0.0
C2251 C 0.75833 0.90585 0.73621 0.0
C2252 C 0.74181 0.87658 0.68736 0.0
H2253 H 0.76359 0.84238 0.77029 0.0
H2254 H 0.76333 0.86049 0.75963 0.0
H2255 H 0.73361 0.85785 0.68338 0.0
H2256 H 0.74105 0.91446 0.65519 0.0
H2257 H 0.74096 0.89595 0.64445 0.0
H2258 H 0.77092 0.8951 0.70593 0.0
C2259 C 0.75852 0.85337 0.73652 0.0
C2260 C 0.74183 0.86595 0.6875 0.0
C2261 C 0.75861 0.84294 0.7428 0.0
C2262 C 0.74591 0.91215 0.67802 0.0
C2263 C 0.74582 0.90155 0.672 0.0
C2264 C 0.76271 0.88704 0.70078 0.0
C2265 C 0.7522 0.85456 0.70139 0.0
C2266 C 0.75226 0.86578 0.6955 0.0
C2267 C 0.75211 0.89834 0.70092 0.0
C2268 C 0.75222 0.8872 0.69523 0.0
H2269 H 0.74109 0.82729 0.65639 0.0
H2270 H 0.74091 0.84565 0.6454 0.0
H2271 H 0.77096 0.87666 0.70611 0.0
H2272 H 0.76324 0.92187 0.77003 0.0
H2273 H 0.76309 0.90354 0.75956 0.0
C2274 C 0.16042 0.91578 0.74933 0.0
C2275 C 0.16943 0.91884 0.71825 0.0
C2276 C 0.14991 0.9052 0.74573 0.0
C2277 C 0.13646 0.8756 0.69768 0.0
H2278 H 0.10761 0.87559 0.72276 0.0
C2279 C 0.09022 0.83383 0.68589 0.0
C2280 C 0.08254 0.83229 0.72091 0.0
C2281 C 0.1009 0.84433 0.68162 0.0
C2282 C 0.11559 0.87542 0.71594 0.0
H2283 H 0.17451 0.91314 0.65917 0.0
H2284 H 0.15603 0.89455 0.65275 0.0
H2285 H 0.1261 0.89401 0.72231 0.0
H2286 H 0.08009 0.8405 0.77908 0.0
H2287 H 0.09862 0.85866 0.77183 0.0
H2288 H 0.12586 0.85692 0.69189 0.0
C2289 C 0.15717 0.90036 0.68005 0.0
C2290 C 0.12619 0.88598 0.71569 0.0
C2291 C 0.16772 0.91102 0.6836 0.0
C2292 C 0.08577 0.84141 0.75159 0.0
C2293 C 0.09638 0.85187 0.74726 0.0
C2294 C 0.1258 0.86499 0.69794 0.0
C2295 C 0.14811 0.89738 0.71094 0.0
C2296 C 0.13678 0.88619 0.70742 0.0
C2297 C 0.10405 0.8535 0.71214 0.0
C2298 C 0.11527 0.86477 0.70794 0.0
H2299 H 0.16147 0.92158 0.77656 0.0
H2300 H 0.14321 0.90309 0.77056 0.0
H2301 H 0.14447 0.87545 0.69143 0.0
H2302 H 0.08797 0.82694 0.66176 0.0
H2303 H 0.1066 0.84534 0.65408 0.0
C2304 C 0.92349 0.4232 0.65238 0.0
C2305 C 0.9176 0.41543 0.61732 0.0
C2306 C 0.92358 0.43385 0.65558 0.0
C2307 C 0.90726 0.44831 0.6176 0.0
H2308 H 0.93587 0.47729 0.64383 0.0
C2309 C 0.91159 0.49303 0.58272 0.0
C2310 C 0.91735 0.50203 0.61396 0.0
C2311 C 0.91172 0.48255 0.58672 0.0
C2312 C 0.92777 0.46925 0.63708 0.0
H2313 H 0.90728 0.41278 0.55795 0.0
H2314 H 0.90749 0.43126 0.56335 0.0
H2315 H 0.93591 0.45876 0.64464 0.0
H2316 H 0.92786 0.50715 0.67377 0.0
H2317 H 0.92805 0.48873 0.68093 0.0
H2318 H 0.89913 0.45873 0.60956 0.0
C2319 C 0.91191 0.42911 0.58875 0.0
C2320 C 0.9278 0.45864 0.63754 0.0
C2321 C 0.91186 0.41853 0.5855 0.0
C2322 C 0.92334 0.50036 0.6492 0.0
C2323 C 0.92349 0.48985 0.65317 0.0
C2324 C 0.90724 0.45888 0.61715 0.0
C2325 C 0.91771 0.43688 0.62391 0.0
C2326 C 0.91758 0.44807 0.62701 0.0
C2327 C 0.9176 0.48079 0.62209 0.0
C2328 C 0.91753 0.46951 0.62608 0.0
H2329 H 0.92801 0.42104 0.67738 0.0
H2330 H 0.92808 0.43962 0.68318 0.0
H2331 H 0.89918 0.4403 0.61032 0.0
H2332 H 0.90694 0.49405 0.55505 0.0
H2333 H 0.90728 0.47586 0.56174 0.0
C2334 C 0.5073 0.41881 0.58304 0.0
C2335 C 0.49859 0.41515 0.61575 0.0
C2336 C 0.51731 0.42986 0.58524 0.0
C2337 C 0.53585 0.4539 0.66125 0.0
H2338 H 0.5475 0.47132 0.55164 0.0
C2339 C 0.57736 0.50038 0.65145 0.0
C2340 C 0.58501 0.50205 0.6162 0.0
C2341 C 0.56631 0.49024 0.65361 0.0
C2342 C 0.54441 0.46654 0.58251 0.0
H2343 H 0.49359 0.42016 0.6768 0.0
H2344 H 0.51119 0.43959 0.68068 0.0
H2345 H 0.5291 0.4528 0.55158 0.0
H2346 H 0.58715 0.49435 0.55591 0.0
H2347 H 0.56803 0.47676 0.55974 0.0
H2348 H 0.55132 0.46764 0.69196 0.0
C2349 C 0.51025 0.43385 0.6534 0.0
C2350 C 0.53386 0.45593 0.58247 0.0
C2351 C 0.50017 0.42275 0.6511 0.0
C2352 C 0.58144 0.49338 0.58339 0.0
C2353 C 0.57043 0.48331 0.58543 0.0
C2354 C 0.54645 0.46456 0.66128 0.0
C2355 C 0.51889 0.43755 0.62023 0.0
C2356 C 0.52957 0.44935 0.62161 0.0
C2357 C 0.5627 0.48163 0.62037 0.0
C2358 C 0.55096 0.47087 0.62168 0.0
H2359 H 0.5064 0.41315 0.55551 0.0
H2360 H 0.52389 0.43234 0.5596 0.0
H2361 H 0.5328 0.44901 0.6919 0.0
H2362 H 0.57987 0.50692 0.67724 0.0
H2363 H 0.56052 0.48922 0.68085 0.0
C2364 C 0.57829 0.07787 0.65712 0.0
C2365 C 0.58586 0.08408 0.62194 0.0
C2366 C 0.56765 0.07775 0.66233 0.0
C2367 C 0.55308 0.09445 0.63077 0.0
H2368 H 0.52404 0.06554 0.65287 0.0
C2369 C 0.50856 0.09024 0.59464 0.0
C2370 C 0.49936 0.08424 0.62492 0.0
C2371 C 0.51902 0.09012 0.59916 0.0
C2372 C 0.5321 0.07371 0.64736 0.0
H2373 H 0.5882 0.09495 0.56454 0.0
H2374 H 0.56978 0.09471 0.57347 0.0
H2375 H 0.5426 0.06551 0.65229 0.0
H2376 H 0.49387 0.07327 0.68355 0.0
H2377 H 0.51229 0.07305 0.69152 0.0
H2378 H 0.54265 0.10264 0.62508 0.0
C2379 C 0.57206 0.09005 0.59741 0.0
C2380 C 0.54273 0.0737 0.64703 0.0
C2381 C 0.5826 0.09012 0.59213 0.0
C2382 C 0.50082 0.078 0.65975 0.0
C2383 C 0.51133 0.07783 0.66418 0.0
C2384 C 0.5425 0.09447 0.6311 0.0
C2385 C 0.56447 0.08392 0.63265 0.0
C2386 C 0.5533 0.08403 0.63771 0.0
C2387 C 0.52058 0.08398 0.63407 0.0
C2388 C 0.53186 0.08405 0.63837 0.0
H2389 H 0.58056 0.07311 0.68057 0.0
H2390 H 0.56201 0.07298 0.6899 0.0
H2391 H 0.56109 0.10261 0.62451 0.0
H2392 H 0.5077 0.09509 0.5673 0.0
H2393 H 0.52587 0.09477 0.57489 0.0
C2394 C 0.75678 0.59019 0.01786 0.0
C2395 C 0.74926 0.58406 0.05327 0.0
C2396 C 0.7679 0.59126 0.01503 0.0
C2397 C 0.79017 0.5898 0.08482 0.0
H2398 H 0.80165 0.58398 0.97493 0.0
C2399 C 0.82724 0.57923 0.08315 0.0
C2400 C 0.83597 0.58436 0.05055 0.0
C2401 C 0.81723 0.58027 0.08106 0.0
C2402 C 0.79864 0.5858 0.0057 0.0
H2403 H 0.7474 0.57413 0.11305 0.0
H2404 H 0.76663 0.57597 0.10807 0.0
H2405 H 0.78304 0.58391 0.97555 0.0
H2406 H 0.84099 0.59447 0.98973 0.0
H2407 H 0.82337 0.59627 0.98601 0.0
H2408 H 0.80559 0.59151 0.11521 0.0
C2409 C 0.76408 0.58009 0.08278 0.0
C2410 C 0.78799 0.58576 0.00606 0.0
C2411 C 0.75301 0.57897 0.08549 0.0
C2412 C 0.8344 0.59043 0.01535 0.0
C2413 C 0.82431 0.59143 0.01315 0.0
C2414 C 0.80076 0.58984 0.08446 0.0
C2415 C 0.77169 0.5863 0.04774 0.0
C2416 C 0.78351 0.58749 0.04588 0.0
C2417 C 0.81567 0.58645 0.04628 0.0
C2418 C 0.805 0.58757 0.04516 0.0
H2419 H 0.75412 0.5942 0.99252 0.0
H2420 H 0.77359 0.59614 0.98771 0.0
H2421 H 0.7871 0.59144 0.11583 0.0
H2422 H 0.82812 0.57443 0.11055 0.0
H2423 H 0.81064 0.57613 0.10664 0.0
C2424 C 0.4254 0.17553 0.07624 0.0
C2425 C 0.41914 0.16596 0.04769 0.0
C2426 C 0.4253 0.18594 0.06995 0.0
C2427 C 0.40828 0.19825 0.0218 0.0
H2428 H 0.43701 0.2276 0.0423 0.0
C2429 C 0.41151 0.24404 0.01356 0.0
C2430 C 0.41774 0.25164 0.04867 0.0
C2431 C 0.41158 0.23353 0.00782 0.0
C2432 C 0.4289 0.21948 0.03663 0.0
H2433 H 0.40786 0.15981 0.98999 0.0
H2434 H 0.40766 0.17818 0.9789 0.0
H2435 H 0.43744 0.20936 0.04106 0.0
H2436 H 0.42884 0.25412 0.10546 0.0
H2437 H 0.42896 0.23589 0.09552 0.0
H2438 H 0.39974 0.20846 0.0182 0.0
C2439 C 0.41263 0.17753 0.00625 0.0
C2440 C 0.42915 0.20903 0.03588 0.0
C2441 C 0.41279 0.16706 0.01244 0.0
C2442 C 0.42399 0.2485 0.07796 0.0
C2443 C 0.42412 0.23807 0.07209 0.0
C2444 C 0.40804 0.20876 0.02246 0.0
C2445 C 0.41893 0.1871 0.03494 0.0
C2446 C 0.4188 0.19825 0.02967 0.0
C2447 C 0.41798 0.23048 0.03685 0.0
C2448 C 0.41831 0.21945 0.03107 0.0
H2449 H 0.43037 0.17498 0.10381 0.0
H2450 H 0.43007 0.19304 0.09316 0.0
H2451 H 0.40015 0.19009 0.01714 0.0
H2452 H 0.4066 0.24623 0.99049 0.0
H2453 H 0.40679 0.22787 0.98029 0.0
C2454 C 0.7569 0.16655 0.01904 0.0
C2455 C 0.74928 0.16494 0.05436 0.0
C2456 C 0.76797 0.17667 0.01674 0.0
C2457 C 0.78998 0.20034 0.08759 0.0
H2458 H 0.80153 0.21791 0.97825 0.0
C2459 C 0.82693 0.24809 0.08733 0.0
C2460 C 0.83569 0.2518 0.05477 0.0
C2461 C 0.81695 0.23703 0.08497 0.0
C2462 C 0.7985 0.21301 0.00888 0.0
H2463 H 0.74723 0.17273 0.11459 0.0
H2464 H 0.76639 0.19026 0.11052 0.0
H2465 H 0.78301 0.19928 0.97823 0.0
H2466 H 0.84077 0.24686 0.99376 0.0
H2467 H 0.8232 0.2274 0.98957 0.0
H2468 H 0.8053 0.21407 0.11847 0.0
C2469 C 0.76394 0.18369 0.08489 0.0
C2470 C 0.7879 0.20234 0.00887 0.0
C2471 C 0.75291 0.17365 0.08708 0.0
C2472 C 0.83417 0.24423 0.01935 0.0
C2473 C 0.8241 0.23312 0.01688 0.0
C2474 C 0.80053 0.21095 0.0876 0.0
C2475 C 0.77164 0.1853 0.04989 0.0
C2476 C 0.7834 0.19603 0.04848 0.0
C2477 C 0.81544 0.22937 0.04995 0.0
C2478 C 0.8048 0.21755 0.0485 0.0
H2479 H 0.75434 0.15999 0.99333 0.0
H2480 H 0.77373 0.17765 0.98945 0.0
H2481 H 0.7869 0.19555 0.11845 0.0
H2482 H 0.82778 0.25372 0.1149 0.0
H2483 H 0.81035 0.23451 0.11052 0.0
C2484 C 0.57754 0.75172 0.9259 0.0
C2485 C 0.58356 0.74833 0.95529 0.0
C2486 C 0.57763 0.76225 0.93188 0.0
C2487 C 0.59424 0.79146 0.98158 0.0
H2488 H 0.56552 0.79195 0.9594 0.0
C2489 C 0.59072 0.83384 0.9916 0.0
C2490 C 0.58451 0.83528 0.95663 0.0
C2491 C 0.59071 0.82326 0.9967 0.0
C2492 C 0.57363 0.79198 0.9655 0.0
H2493 H 0.59446 0.75335 0.01407 0.0
H2494 H 0.59465 0.77192 0.02458 0.0
H2495 H 0.56523 0.77335 0.95975 0.0
H2496 H 0.57353 0.82684 0.8994 0.0
H2497 H 0.57355 0.80854 0.90813 0.0
H2498 H 0.60266 0.81018 0.98648 0.0
C2499 C 0.58987 0.76637 0.99682 0.0
C2500 C 0.57347 0.78132 0.96574 0.0
C2501 C 0.58972 0.75573 0.99094 0.0
C2502 C 0.57836 0.826 0.92682 0.0
C2503 C 0.57831 0.81546 0.932 0.0
C2504 C 0.59441 0.80217 0.98135 0.0
C2505 C 0.58377 0.7697 0.9674 0.0
C2506 C 0.58381 0.78094 0.97267 0.0
C2507 C 0.58441 0.81392 0.96711 0.0
C2508 C 0.58414 0.80256 0.9722 0.0
H2509 H 0.57274 0.74625 0.898 0.0
H2510 H 0.57302 0.76463 0.90813 0.0
H2511 H 0.60237 0.79146 0.98681 0.0
H2512 H 0.59555 0.84085 0.01507 0.0
H2513 H 0.59547 0.82232 0.02416 0.0
C2514 C 0.1752 0.75353 0.92104 0.0
C2515 C 0.16648 0.74945 0.95385 0.0
C2516 C 0.18504 0.76466 0.92405 0.0
C2517 C 0.20352 0.78826 1.00103 0.0
H2518 H 0.21423 0.80638 0.89251 0.0
C2519 C 0.24532 0.83466 0.98975 0.0
C2520 C 0.2526 0.83621 0.95328 0.0
C2521 C 0.23419 0.82464 0.99287 0.0
C2522 C 0.21139 0.80142 0.92308 0.0
H2523 H 0.16135 0.75378 0.01612 0.0
H2524 H 0.17874 0.77338 0.02154 0.0
H2525 H 0.19584 0.78785 0.89281 0.0
H2526 H 0.25399 0.82843 0.89187 0.0
H2527 H 0.23473 0.8111 0.8973 0.0
H2528 H 0.21927 0.80182 0.03096 0.0
C2529 C 0.17788 0.76789 0.99346 0.0
C2530 C 0.20085 0.7908 0.92326 0.0
C2531 C 0.16793 0.7567 0.9903 0.0
C2532 C 0.24858 0.82755 0.92026 0.0
C2533 C 0.2375 0.81763 0.92324 0.0
C2534 C 0.21412 0.79894 1.00085 0.0
C2535 C 0.18646 0.77203 0.96001 0.0
C2536 C 0.19694 0.78394 0.96187 0.0
C2537 C 0.23013 0.81608 0.95937 0.0
C2538 C 0.2183 0.80547 0.96151 0.0
H2539 H 0.17442 0.74815 0.89269 0.0
H2540 H 0.19161 0.76748 0.8982 0.0
H2541 H 0.20075 0.78315 0.03126 0.0
H2542 H 0.24819 0.84119 0.01573 0.0
H2543 H 0.2287 0.82369 0.02105 0.0
C2544 C 0.16754 0.41121 0.9876 0.0
C2545 C 0.16597 0.41728 0.9524 0.0
C2546 C 0.17808 0.41112 0.99206 0.0
C2547 C 0.20917 0.42768 0.95796 0.0
H2548 H 0.20937 0.39888 0.98168 0.0
C2549 C 0.24951 0.42338 0.92241 0.0
C2550 C 0.25269 0.41746 0.95313 0.0
C2551 C 0.23893 0.42328 0.92668 0.0
C2552 C 0.20947 0.40703 0.97567 0.0
H2553 H 0.17416 0.42792 0.89416 0.0
H2554 H 0.19239 0.42771 0.90178 0.0
H2555 H 0.19079 0.39885 0.98166 0.0
H2556 H 0.2472 0.40668 0.01228 0.0
H2557 H 0.22861 0.40652 0.01982 0.0
H2558 H 0.22777 0.43584 0.95132 0.0
C2559 C 0.1856 0.42315 0.92631 0.0
C2560 C 0.19883 0.40701 0.97567 0.0
C2561 C 0.1751 0.4232 0.92177 0.0
C2562 C 0.24499 0.41134 0.98812 0.0
C2563 C 0.23433 0.4112 0.99232 0.0
C2564 C 0.21976 0.4277 0.95796 0.0
C2565 C 0.18726 0.41717 0.96158 0.0
C2566 C 0.19855 0.41729 0.96588 0.0
C2567 C 0.23123 0.41725 0.96176 0.0
C2568 C 0.22003 0.41733 0.96588 0.0
H2569 H 0.16064 0.40655 0.01168 0.0
H2570 H 0.17912 0.40647 0.01969 0.0
H2571 H 0.20929 0.43581 0.9513 0.0
H2572 H 0.25521 0.42814 0.89495 0.0
H2573 H 0.23672 0.42785 0.9021 0.0
C2574 C 0.42052 0.91307 0.42221 0.0
C2575 C 0.41688 0.91811 0.38939 0.0
C2576 C 0.43152 0.91399 0.41983 0.0
C2577 C 0.45534 0.91909 0.34317 0.0
H2578 H 0.47284 0.92468 0.45246 0.0
C2579 C 0.50161 0.92338 0.35326 0.0
C2580 C 0.50306 0.91724 0.38846 0.0
C2581 C 0.49155 0.92445 0.3508 0.0
C2582 C 0.46804 0.92305 0.42167 0.0
H2583 H 0.42187 0.92798 0.328 0.0
H2584 H 0.4412 0.9296 0.32383 0.0
H2585 H 0.4545 0.9249 0.45285 0.0
H2586 H 0.49504 0.90722 0.44815 0.0
H2587 H 0.47764 0.90906 0.44383 0.0
H2588 H 0.4689 0.91711 0.31223 0.0
C2589 C 0.43548 0.92489 0.35132 0.0
C2590 C 0.45752 0.92317 0.4219 0.0
C2591 C 0.42444 0.92401 0.3538 0.0
C2592 C 0.49424 0.91209 0.42075 0.0
C2593 C 0.48428 0.9132 0.41843 0.0
C2594 C 0.46592 0.91899 0.34294 0.0
C2595 C 0.43917 0.91996 0.38455 0.0
C2596 C 0.4509 0.92093 0.3829 0.0
C2597 C 0.48284 0.91946 0.3837 0.0
C2598 C 0.47224 0.92071 0.38244 0.0
H2599 H 0.41489 0.90841 0.44993 0.0
H2600 H 0.43398 0.90989 0.44553 0.0
H2601 H 0.45042 0.91728 0.31261 0.0
H2602 H 0.50826 0.92744 0.32787 0.0
H2603 H 0.4907 0.92935 0.32369 0.0
C2604 C 0.07956 0.57864 0.34977 0.0
C2605 C 0.08531 0.58616 0.38561 0.0
C2606 C 0.07867 0.5676 0.34749 0.0
C2607 C 0.07987 0.54548 0.41923 0.0
H2608 H 0.08595 0.53374 0.31055 0.0
C2609 C 0.08958 0.50775 0.42015 0.0
C2610 C 0.08449 0.49908 0.38729 0.0
C2611 C 0.0888 0.5179 0.41773 0.0
C2612 C 0.08407 0.53683 0.341 0.0
H2613 H 0.09485 0.58812 0.44659 0.0
H2614 H 0.09337 0.56903 0.44247 0.0
H2615 H 0.08619 0.55242 0.31003 0.0
H2616 H 0.07468 0.49432 0.32577 0.0
H2617 H 0.07331 0.51216 0.3215 0.0
H2618 H 0.0779 0.53004 0.45042 0.0
C2619 C 0.08937 0.57152 0.41648 0.0
C2620 C 0.0842 0.54752 0.3407 0.0
C2621 C 0.09028 0.58251 0.41868 0.0
C2622 C 0.07869 0.50085 0.3516 0.0
C2623 C 0.07794 0.51107 0.34906 0.0
C2624 C 0.07974 0.53484 0.41953 0.0
C2625 C 0.08346 0.56387 0.38114 0.0
C2626 C 0.08234 0.55208 0.38006 0.0
C2627 C 0.08292 0.51967 0.38234 0.0
C2628 C 0.08207 0.53049 0.38066 0.0
H2629 H 0.07564 0.58122 0.32379 0.0
H2630 H 0.07402 0.56188 0.31991 0.0
H2631 H 0.07811 0.5486 0.4499 0.0
H2632 H 0.09417 0.5067 0.44795 0.0
H2633 H 0.09291 0.52444 0.44348 0.0
C2634 C 0.49336 0.58246 0.41235 0.0
C2635 C 0.5024 0.58569 0.38129 0.0
C2636 C 0.48288 0.57187 0.40832 0.0
C2637 C 0.46957 0.54241 0.35953 0.0
H2638 H 0.44069 0.54221 0.38589 0.0
C2639 C 0.42338 0.50043 0.35026 0.0
C2640 C 0.41586 0.49892 0.38582 0.0
C2641 C 0.43401 0.51095 0.34533 0.0
C2642 C 0.44868 0.5421 0.37868 0.0
H2643 H 0.50758 0.58025 0.32174 0.0
H2644 H 0.48913 0.56161 0.31458 0.0
H2645 H 0.45911 0.5607 0.38469 0.0
H2646 H 0.41364 0.50719 0.44428 0.0
H2647 H 0.43208 0.52539 0.43585 0.0
H2648 H 0.45906 0.52372 0.35417 0.0
C2649 C 0.49023 0.56733 0.34217 0.0
C2650 C 0.45924 0.5527 0.37798 0.0
C2651 C 0.50076 0.57801 0.34614 0.0
C2652 C 0.4192 0.50808 0.41639 0.0
C2653 C 0.42975 0.51856 0.41139 0.0
C2654 C 0.45896 0.53176 0.36021 0.0
C2655 C 0.48114 0.56419 0.37311 0.0
C2656 C 0.46985 0.55297 0.36936 0.0
C2657 C 0.43727 0.52017 0.37571 0.0
C2658 C 0.44843 0.53147 0.37076 0.0
H2659 H 0.49435 0.58814 0.43995 0.0
H2660 H 0.47617 0.56964 0.4332 0.0
H2661 H 0.47761 0.54232 0.353 0.0
H2662 H 0.42104 0.49351 0.32621 0.0
H2663 H 0.4396 0.51194 0.31739 0.0
loop_
_geom_bond_atom_site_label_1
_geom_bond_atom_site_label_2
_geom_bond_distance
_geom_bond_site_symmetry_2
_ccdc_geom_bond_type
Co0 O1 2.216 . S
Co0 O2 2.091 . S
Co0 O4 2.004 . S
Co0 O10 2.021 . S
Co0 O12 2.137 . S
Co0 O13 2.244 . S
O1 Co0 2.216 . S
O1 C8 1.247 . S
O2 Co0 2.091 . S
O2 C8 1.261 . S
C3 O12 1.247 . S
C3 O13 1.272 . S
O4 Co0 2.004 . S
O4 C9 1.259 . S
Co5 O6 2.061 . S
Co5 O11 2.052 . S
Co5 O13 2.135 . S
O6 Co5 2.061 . S
O6 C9 1.235 . S
C7 O10 1.238 . S
C7 O11 1.241 . S
C8 O1 1.247 . S
C8 O2 1.261 . S
C9 O4 1.259 . S
C9 O6 1.235 . S
O10 Co0 2.021 . S
O10 C7 1.238 . S
O11 Co5 2.052 . S
O11 C7 1.241 . S
O12 Co0 2.137 . S
O12 C3 1.247 . S
O13 Co0 2.244 . S
O13 C3 1.272 . S
O13 Co5 2.135 . S
Co14 O15 2.216 . S
Co14 O16 2.091 . S
Co14 O18 2.004 . S
Co14 O24 2.021 . S
Co14 O26 2.137 . S
Co14 O27 2.244 . S
O15 Co14 2.216 . S
O15 C22 1.247 . S
O16 Co14 2.091 . S
O16 C22 1.261 . S
C17 O26 1.247 . S
C17 O27 1.272 . S
O18 Co14 2.004 . S
O18 C23 1.259 . S
Co19 O20 2.061 . S
Co19 O25 2.052 . S
Co19 O27 2.135 . S
O20 Co19 2.061 . S
O20 C23 1.235 . S
C21 O24 1.238 . S
C21 O25 1.241 . S
C22 O15 1.247 . S
C22 O16 1.261 . S
C23 O18 1.259 . S
C23 O20 1.235 . S
O24 Co14 2.021 . S
O24 C21 1.238 . S
O25 Co19 2.052 . S
O25 C21 1.241 . S
O26 Co14 2.137 . S
O26 C17 1.247 . S
O27 Co14 2.244 . S
O27 C17 1.272 . S
O27 Co19 2.135 . S
Co28 O29 2.216 . S
Co28 O30 2.091 . S
Co28 O32 2.004 . S
Co28 O38 2.021 . S
Co28 O40 2.137 . S
Co28 O41 2.244 . S
O29 Co28 2.216 . S
O29 C36 1.247 . S
O30 Co28 2.091 . S
O30 C36 1.261 . S
C31 O40 1.247 . S
C31 O41 1.272 . S
O32 Co28 2.004 . S
O32 C37 1.259 . S
Co33 O34 2.061 . S
Co33 O39 2.052 . S
Co33 O41 2.135 . S
O34 Co33 2.061 . S
O34 C37 1.235 . S
C35 O38 1.238 . S
C35 O39 1.241 . S
C36 O29 1.247 . S
C36 O30 1.261 . S
C37 O32 1.259 . S
C37 O34 1.235 . S
O38 Co28 2.021 . S
O38 C35 1.238 . S
O39 Co33 2.052 . S
O39 C35 1.241 . S
O40 Co28 2.137 . S
O40 C31 1.247 . S
O41 Co28 2.244 . S
O41 C31 1.272 . S
O41 Co33 2.135 . S
Co42 O43 2.216 . S
Co42 O44 2.091 . S
Co42 O46 2.004 . S
Co42 O52 2.021 . S
Co42 O54 2.137 . S
Co42 O55 2.244 . S
O43 Co42 2.216 . S
O43 C50 1.247 . S
O44 Co42 2.091 . S
O44 C50 1.261 . S
C45 O54 1.247 . S
C45 O55 1.272 . S
O46 Co42 2.004 . S
O46 C51 1.259 . S
Co47 O48 2.061 . S
Co47 O53 2.052 . S
Co47 O55 2.135 . S
O48 Co47 2.061 . S
O48 C51 1.235 . S
C49 O52 1.238 . S
C49 O53 1.241 . S
C50 O43 1.247 . S
C50 O44 1.261 . S
C51 O46 1.259 . S
C51 O48 1.235 . S
O52 Co42 2.021 . S
O52 C49 1.238 . S
O53 Co47 2.052 . S
O53 C49 1.241 . S
O54 Co42 2.137 . S
O54 C45 1.247 . S
O55 Co42 2.244 . S
O55 C45 1.272 . S
O55 Co47 2.135 . S
Co56 O57 2.216 . S
Co56 O58 2.091 . S
Co56 O60 2.004 . S
Co56 O66 2.021 . S
Co56 O68 2.137 . S
Co56 O69 2.244 . S
O57 Co56 2.216 . S
O57 C64 1.247 . S
O58 Co56 2.091 . S
O58 C64 1.261 . S
C59 O68 1.247 . S
C59 O69 1.272 . S
O60 Co56 2.004 . S
O60 C65 1.259 . S
Co61 O62 2.061 . S
Co61 O67 2.052 . S
Co61 O69 2.135 . S
O62 Co61 2.061 . S
O62 C65 1.235 . S
C63 O66 1.238 . S
C63 O67 1.241 . S
C64 O57 1.247 . S
C64 O58 1.261 . S
C65 O60 1.259 . S
C65 O62 1.235 . S
O66 Co56 2.021 . S
O66 C63 1.238 . S
O67 Co61 2.052 . S
O67 C63 1.241 . S
O68 Co56 2.137 . S
O68 C59 1.247 . S
O69 Co56 2.244 . S
O69 C59 1.272 . S
O69 Co61 2.135 . S
Co70 O71 2.216 . S
Co70 O72 2.091 . S
Co70 O74 2.004 . S
Co70 O80 2.021 . S
Co70 O82 2.137 . S
Co70 O83 2.244 . S
O71 Co70 2.216 . S
O71 C78 1.247 . S
O72 Co70 2.091 . S
O72 C78 1.261 . S
C73 O82 1.247 . S
C73 O83 1.272 . S
O74 Co70 2.004 . S
O74 C79 1.259 . S
Co75 O76 2.061 . S
Co75 O81 2.052 . S
Co75 O83 2.135 . S
O76 Co75 2.061 . S
O76 C79 1.235 . S
C77 O80 1.238 . S
C77 O81 1.241 . S
C78 O71 1.247 . S
C78 O72 1.261 . S
C79 O74 1.259 . S
C79 O76 1.235 . S
O80 Co70 2.021 . S
O80 C77 1.238 . S
O81 Co75 2.052 . S
O81 C77 1.241 . S
O82 Co70 2.137 . S
O82 C73 1.247 . S
O83 Co70 2.244 . S
O83 C73 1.272 . S
O83 Co75 2.135 . S
Co84 O85 2.216 . S
Co84 O86 2.091 . S
Co84 O88 2.004 . S
Co84 O94 2.021 . S
Co84 O96 2.137 . S
Co84 O97 2.244 . S
O85 Co84 2.216 . S
O85 C92 1.247 . S
O86 Co84 2.091 . S
O86 C92 1.261 . S
C87 O96 1.247 . S
C87 O97 1.272 . S
O88 Co84 2.004 . S
O88 C93 1.259 . S
Co89 O90 2.061 . S
Co89 O95 2.052 . S
Co89 O97 2.135 . S
O90 Co89 2.061 . S
O90 C93 1.235 . S
C91 O94 1.238 . S
C91 O95 1.241 . S
C92 O85 1.247 . S
C92 O86 1.261 . S
C93 O88 1.259 . S
C93 O90 1.235 . S
O94 Co84 2.021 . S
O94 C91 1.238 . S
O95 Co89 2.052 . S
O95 C91 1.241 . S
O96 Co84 2.137 . S
O96 C87 1.247 . S
O97 Co84 2.244 . S
O97 C87 1.272 . S
O97 Co89 2.135 . S
Co98 O99 2.216 . S
Co98 O100 2.091 . S
Co98 O102 2.004 . S
Co98 O108 2.021 . S
Co98 O110 2.137 . S
Co98 O111 2.244 . S
O99 Co98 2.216 . S
O99 C106 1.247 . S
O100 Co98 2.091 . S
O100 C106 1.261 . S
C101 O110 1.247 . S
C101 O111 1.272 . S
O102 Co98 2.004 . S
O102 C107 1.259 . S
Co103 O104 2.061 . S
Co103 O109 2.052 . S
Co103 O111 2.135 . S
O104 Co103 2.061 . S
O104 C107 1.235 . S
C105 O108 1.238 . S
C105 O109 1.241 . S
C106 O99 1.247 . S
C106 O100 1.261 . S
C107 O102 1.259 . S
C107 O104 1.235 . S
O108 Co98 2.021 . S
O108 C105 1.238 . S
O109 Co103 2.052 . S
O109 C105 1.241 . S
O110 Co98 2.137 . S
O110 C101 1.247 . S
O111 Co98 2.244 . S
O111 C101 1.272 . S
O111 Co103 2.135 . S
Co112 O113 2.216 . S
Co112 O114 2.091 . S
Co112 O116 2.004 . S
Co112 O122 2.021 . S
Co112 O124 2.137 . S
Co112 O125 2.244 . S
O113 Co112 2.216 . S
O113 C120 1.247 . S
O114 Co112 2.091 . S
O114 C120 1.261 . S
C115 O124 1.247 . S
C115 O125 1.272 . S
O116 Co112 2.004 . S
O116 C121 1.259 . S
Co117 O118 2.061 . S
Co117 O123 2.052 . S
Co117 O125 2.135 . S
O118 Co117 2.061 . S
O118 C121 1.235 . S
C119 O122 1.238 . S
C119 O123 1.241 . S
C120 O113 1.247 . S
C120 O114 1.261 . S
C121 O116 1.259 . S
C121 O118 1.235 . S
O122 Co112 2.021 . S
O122 C119 1.238 . S
O123 Co117 2.052 . S
O123 C119 1.241 . S
O124 Co112 2.137 . S
O124 C115 1.247 . S
O125 Co112 2.244 . S
O125 C115 1.272 . S
O125 Co117 2.135 . S
Co126 O127 2.216 . S
Co126 O128 2.091 . S
Co126 O130 2.004 . S
Co126 O136 2.021 . S
Co126 O138 2.137 . S
Co126 O139 2.244 . S
O127 Co126 2.216 . S
O127 C134 1.247 . S
O128 Co126 2.091 . S
O128 C134 1.261 . S
C129 O138 1.247 . S
C129 O139 1.272 . S
O130 Co126 2.004 . S
O130 C135 1.259 . S
Co131 O132 2.061 . S
Co131 O137 2.052 . S
Co131 O139 2.135 . S
O132 Co131 2.061 . S
O132 C135 1.235 . S
C133 O136 1.238 . S
C133 O137 1.241 . S
C134 O127 1.247 . S
C134 O128 1.261 . S
C135 O130 1.259 . S
C135 O132 1.235 . S
O136 Co126 2.021 . S
O136 C133 1.238 . S
O137 Co131 2.052 . S
O137 C133 1.241 . S
O138 Co126 2.137 . S
O138 C129 1.247 . S
O139 Co126 2.244 . S
O139 C129 1.272 . S
O139 Co131 2.135 . S
Co140 O141 2.216 . S
Co140 O142 2.091 . S
Co140 O144 2.004 . S
Co140 O150 2.021 . S
Co140 O152 2.137 . S
Co140 O153 2.244 . S
O141 Co140 2.216 . S
O141 C148 1.247 . S
O142 Co140 2.091 . S
O142 C148 1.261 . S
C143 O152 1.247 . S
C143 O153 1.272 . S
O144 Co140 2.004 . S
O144 C149 1.259 . S
Co145 O146 2.061 . S
Co145 O151 2.052 . S
Co145 O153 2.135 . S
O146 Co145 2.061 . S
O146 C149 1.235 . S
C147 O150 1.238 . S
C147 O151 1.241 . S
C148 O141 1.247 . S
C148 O142 1.261 . S
C149 O144 1.259 . S
C149 O146 1.235 . S
O150 Co140 2.021 . S
O150 C147 1.238 . S
O151 Co145 2.052 . S
O151 C147 1.241 . S
O152 Co140 2.137 . S
O152 C143 1.247 . S
O153 Co140 2.244 . S
O153 C143 1.272 . S
O153 Co145 2.135 . S
Co154 O155 2.216 . S
Co154 O156 2.091 . S
Co154 O158 2.004 . S
Co154 O164 2.021 . S
Co154 O166 2.137 . S
Co154 O167 2.244 . S
O155 Co154 2.216 . S
O155 C162 1.247 . S
O156 Co154 2.091 . S
O156 C162 1.261 . S
C157 O166 1.247 . S
C157 O167 1.272 . S
O158 Co154 2.004 . S
O158 C163 1.259 . S
Co159 O160 2.061 . S
Co159 O165 2.052 . S
Co159 O167 2.135 . S
O160 Co159 2.061 . S
O160 C163 1.235 . S
C161 O164 1.238 . S
C161 O165 1.241 . S
C162 O155 1.247 . S
C162 O156 1.261 . S
C163 O158 1.259 . S
C163 O160 1.235 . S
O164 Co154 2.021 . S
O164 C161 1.238 . S
O165 Co159 2.052 . S
O165 C161 1.241 . S
O166 Co154 2.137 . S
O166 C157 1.247 . S
O167 Co154 2.244 . S
O167 C157 1.272 . S
O167 Co159 2.135 . S
Co168 O169 2.216 . S
Co168 O170 2.091 . S
Co168 O172 2.004 . S
Co168 O178 2.021 . S
Co168 O180 2.137 . S
Co168 O181 2.244 . S
O169 Co168 2.216 . S
O169 C176 1.247 . S
O170 Co168 2.091 . S
O170 C176 1.261 . S
C171 O180 1.247 . S
C171 O181 1.272 . S
O172 Co168 2.004 . S
O172 C177 1.259 . S
Co173 O174 2.061 . S
Co173 O179 2.052 . S
Co173 O181 2.135 . S
O174 Co173 2.061 . S
O174 C177 1.235 . S
C175 O178 1.238 . S
C175 O179 1.241 . S
C176 O169 1.247 . S
C176 O170 1.261 . S
C177 O172 1.259 . S
C177 O174 1.235 . S
O178 Co168 2.021 . S
O178 C175 1.238 . S
O179 Co173 2.052 . S
O179 C175 1.241 . S
O180 Co168 2.137 . S
O180 C171 1.247 . S
O181 Co168 2.244 . S
O181 C171 1.272 . S
O181 Co173 2.135 . S
Co182 O183 2.216 . S
Co182 O184 2.091 . S
Co182 O186 2.004 . S
Co182 O192 2.021 . S
Co182 O194 2.137 . S
Co182 O195 2.244 . S
O183 Co182 2.216 . S
O183 C190 1.247 . S
O184 Co182 2.091 . S
O184 C190 1.261 . S
C185 O194 1.247 . S
C185 O195 1.272 . S
O186 Co182 2.004 . S
O186 C191 1.259 . S
Co187 O188 2.061 . S
Co187 O193 2.052 . S
Co187 O195 2.135 . S
O188 Co187 2.061 . S
O188 C191 1.235 . S
C189 O192 1.238 . S
C189 O193 1.241 . S
C190 O183 1.247 . S
C190 O184 1.261 . S
C191 O186 1.259 . S
C191 O188 1.235 . S
O192 Co182 2.021 . S
O192 C189 1.238 . S
O193 Co187 2.052 . S
O193 C189 1.241 . S
O194 Co182 2.137 . S
O194 C185 1.247 . S
O195 Co182 2.244 . S
O195 C185 1.272 . S
O195 Co187 2.135 . S
Co196 O197 2.216 . S
Co196 O198 2.091 . S
Co196 O200 2.004 . S
Co196 O206 2.021 . S
Co196 O208 2.137 . S
Co196 O209 2.244 . S
O197 Co196 2.216 . S
O197 C204 1.247 . S
O198 Co196 2.091 . S
O198 C204 1.261 . S
C199 O208 1.247 . S
C199 O209 1.272 . S
O200 Co196 2.004 . S
O200 C205 1.259 . S
Co201 O202 2.061 . S
Co201 O207 2.052 . S
Co201 O209 2.135 . S
O202 Co201 2.061 . S
O202 C205 1.235 . S
C203 O206 1.238 . S
C203 O207 1.241 . S
C204 O197 1.247 . S
C204 O198 1.261 . S
C205 O200 1.259 . S
C205 O202 1.235 . S
O206 Co196 2.021 . S
O206 C203 1.238 . S
O207 Co201 2.052 . S
O207 C203 1.241 . S
O208 Co196 2.137 . S
O208 C199 1.247 . S
O209 Co196 2.244 . S
O209 C199 1.272 . S
O209 Co201 2.135 . S
Co210 O211 2.216 . S
Co210 O212 2.091 . S
Co210 O214 2.004 . S
Co210 O220 2.021 . S
Co210 O222 2.137 . S
Co210 O223 2.244 . S
O211 Co210 2.216 . S
O211 C218 1.247 . S
O212 Co210 2.091 . S
O212 C218 1.261 . S
C213 O222 1.247 . S
C213 O223 1.272 . S
O214 Co210 2.004 . S
O214 C219 1.259 . S
Co215 O216 2.061 . S
Co215 O221 2.052 . S
Co215 O223 2.135 . S
O216 Co215 2.061 . S
O216 C219 1.235 . S
C217 O220 1.238 . S
C217 O221 1.241 . S
C218 O211 1.247 . S
C218 O212 1.261 . S
C219 O214 1.259 . S
C219 O216 1.235 . S
O220 Co210 2.021 . S
O220 C217 1.238 . S
O221 Co215 2.052 . S
O221 C217 1.241 . S
O222 Co210 2.137 . S
O222 C213 1.247 . S
O223 Co210 2.244 . S
O223 C213 1.272 . S
O223 Co215 2.135 . S
Co224 O225 2.216 . S
Co224 O226 2.091 . S
Co224 O228 2.004 . S
Co224 O234 2.021 . S
Co224 O236 2.137 . S
Co224 O237 2.244 . S
O225 Co224 2.216 . S
O225 C232 1.247 . S
O226 Co224 2.091 . S
O226 C232 1.261 . S
C227 O236 1.247 . S
C227 O237 1.272 . S
O228 Co224 2.004 . S
O228 C233 1.259 . S
Co229 O230 2.061 . S
Co229 O235 2.052 . S
Co229 O237 2.135 . S
O230 Co229 2.061 . S
O230 C233 1.235 . S
C231 O234 1.238 . S
C231 O235 1.241 . S
C232 O225 1.247 . S
C232 O226 1.261 . S
C233 O228 1.259 . S
C233 O230 1.235 . S
O234 Co224 2.021 . S
O234 C231 1.238 . S
O235 Co229 2.052 . S
O235 C231 1.241 . S
O236 Co224 2.137 . S
O236 C227 1.247 . S
O237 Co224 2.244 . S
O237 C227 1.272 . S
O237 Co229 2.135 . S
Co238 O239 2.216 . S
Co238 O240 2.091 . S
Co238 O242 2.004 . S
Co238 O248 2.021 . S
Co238 O250 2.137 . S
Co238 O251 2.244 . S
O239 Co238 2.216 . S
O239 C246 1.247 . S
O240 Co238 2.091 . S
O240 C246 1.261 . S
C241 O250 1.247 . S
C241 O251 1.272 . S
O242 Co238 2.004 . S
O242 C247 1.259 . S
Co243 O244 2.061 . S
Co243 O249 2.052 . S
Co243 O251 2.135 . S
O244 Co243 2.061 . S
O244 C247 1.235 . S
C245 O248 1.238 . S
C245 O249 1.241 . S
C246 O239 1.247 . S
C246 O240 1.261 . S
C247 O242 1.259 . S
C247 O244 1.235 . S
O248 Co238 2.021 . S
O248 C245 1.238 . S
O249 Co243 2.052 . S
O249 C245 1.241 . S
O250 Co238 2.137 . S
O250 C241 1.247 . S
O251 Co238 2.244 . S
O251 C241 1.272 . S
O251 Co243 2.135 . S
Co252 O253 2.216 . S
Co252 O254 2.091 . S
Co252 O256 2.004 . S
Co252 O262 2.021 . S
Co252 O264 2.137 . S
Co252 O265 2.244 . S
O253 Co252 2.216 . S
O253 C260 1.247 . S
O254 Co252 2.091 . S
O254 C260 1.261 . S
C255 O264 1.247 . S
C255 O265 1.272 . S
O256 Co252 2.004 . S
O256 C261 1.259 . S
Co257 O258 2.061 . S
Co257 O263 2.052 . S
Co257 O265 2.135 . S
O258 Co257 2.061 . S
O258 C261 1.235 . S
C259 O262 1.238 . S
C259 O263 1.241 . S
C260 O253 1.247 . S
C260 O254 1.261 . S
C261 O256 1.259 . S
C261 O258 1.235 . S
O262 Co252 2.021 . S
O262 C259 1.238 . S
O263 Co257 2.052 . S
O263 C259 1.241 . S
O264 Co252 2.137 . S
O264 C255 1.247 . S
O265 Co252 2.244 . S
O265 C255 1.272 . S
O265 Co257 2.135 . S
Co266 O267 2.216 . S
Co266 O268 2.091 . S
Co266 O270 2.004 . S
Co266 O276 2.021 . S
Co266 O278 2.137 . S
Co266 O279 2.244 . S
O267 Co266 2.216 . S
O267 C274 1.247 . S
O268 Co266 2.091 . S
O268 C274 1.261 . S
C269 O278 1.247 . S
C269 O279 1.272 . S
O270 Co266 2.004 . S
O270 C275 1.259 . S
Co271 O272 2.061 . S
Co271 O277 2.052 . S
Co271 O279 2.135 . S
O272 Co271 2.061 . S
O272 C275 1.235 . S
C273 O276 1.238 . S
C273 O277 1.241 . S
C274 O267 1.247 . S
C274 O268 1.261 . S
C275 O270 1.259 . S
C275 O272 1.235 . S
O276 Co266 2.021 . S
O276 C273 1.238 . S
O277 Co271 2.052 . S
O277 C273 1.241 . S
O278 Co266 2.137 . S
O278 C269 1.247 . S
O279 Co266 2.244 . S
O279 C269 1.272 . S
O279 Co271 2.135 . S
Co280 O281 2.216 . S
Co280 O282 2.091 . S
Co280 O284 2.004 . S
Co280 O290 2.021 . S
Co280 O292 2.137 . S
Co280 O293 2.244 . S
O281 Co280 2.216 . S
O281 C288 1.247 . S
O282 Co280 2.091 . S
O282 C288 1.261 . S
C283 O292 1.247 . S
C283 O293 1.272 . S
O284 Co280 2.004 . S
O284 C289 1.259 . S
Co285 O286 2.061 . S
Co285 O291 2.052 . S
Co285 O293 2.135 . S
O286 Co285 2.061 . S
O286 C289 1.235 . S
C287 O290 1.238 . S
C287 O291 1.241 . S
C288 O281 1.247 . S
C288 O282 1.261 . S
C289 O284 1.259 . S
C289 O286 1.235 . S
O290 Co280 2.021 . S
O290 C287 1.238 . S
O291 Co285 2.052 . S
O291 C287 1.241 . S
O292 Co280 2.137 . S
O292 C283 1.247 . S
O293 Co280 2.244 . S
O293 C283 1.272 . S
O293 Co285 2.135 . S
Co294 O295 2.216 . S
Co294 O296 2.091 . S
Co294 O298 2.004 . S
Co294 O304 2.021 . S
Co294 O306 2.137 . S
Co294 O307 2.244 . S
O295 Co294 2.216 . S
O295 C302 1.247 . S
O296 Co294 2.091 . S
O296 C302 1.261 . S
C297 O306 1.247 . S
C297 O307 1.272 . S
O298 Co294 2.004 . S
O298 C303 1.259 . S
Co299 O300 2.061 . S
Co299 O305 2.052 . S
Co299 O307 2.135 . S
O300 Co299 2.061 . S
O300 C303 1.235 . S
C301 O304 1.238 . S
C301 O305 1.241 . S
C302 O295 1.247 . S
C302 O296 1.261 . S
C303 O298 1.259 . S
C303 O300 1.235 . S
O304 Co294 2.021 . S
O304 C301 1.238 . S
O305 Co299 2.052 . S
O305 C301 1.241 . S
O306 Co294 2.137 . S
O306 C297 1.247 . S
O307 Co294 2.244 . S
O307 C297 1.272 . S
O307 Co299 2.135 . S
Co308 O309 2.216 . S
Co308 O310 2.091 . S
Co308 O312 2.004 . S
Co308 O318 2.021 . S
Co308 O320 2.137 . S
Co308 O321 2.244 . S
O309 Co308 2.216 . S
O309 C316 1.247 . S
O310 Co308 2.091 . S
O310 C316 1.261 . S
C311 O320 1.247 . S
C311 O321 1.272 . S
O312 Co308 2.004 . S
O312 C317 1.259 . S
Co313 O314 2.061 . S
Co313 O319 2.052 . S
Co313 O321 2.135 . S
O314 Co313 2.061 . S
O314 C317 1.235 . S
C315 O318 1.238 . S
C315 O319 1.241 . S
C316 O309 1.247 . S
C316 O310 1.261 . S
C317 O312 1.259 . S
C317 O314 1.235 . S
O318 Co308 2.021 . S
O318 C315 1.238 . S
O319 Co313 2.052 . S
O319 C315 1.241 . S
O320 Co308 2.137 . S
O320 C311 1.247 . S
O321 Co308 2.244 . S
O321 C311 1.272 . S
O321 Co313 2.135 . S
Co322 O323 2.216 . S
Co322 O324 2.091 . S
Co322 O326 2.004 . S
Co322 O332 2.021 . S
Co322 O334 2.137 . S
Co322 O335 2.244 . S
O323 Co322 2.216 . S
O323 C330 1.247 . S
O324 Co322 2.091 . S
O324 C330 1.261 . S
C325 O334 1.247 . S
C325 O335 1.272 . S
O326 Co322 2.004 . S
O326 C331 1.259 . S
Co327 O328 2.061 . S
Co327 O333 2.052 . S
Co327 O335 2.135 . S
O328 Co327 2.061 . S
O328 C331 1.235 . S
C329 O332 1.238 . S
C329 O333 1.241 . S
C330 O323 1.247 . S
C330 O324 1.261 . S
C331 O326 1.259 . S
C331 O328 1.235 . S
O332 Co322 2.021 . S
O332 C329 1.238 . S
O333 Co327 2.052 . S
O333 C329 1.241 . S
O334 Co322 2.137 . S
O334 C325 1.247 . S
O335 Co322 2.244 . S
O335 C325 1.272 . S
O335 Co327 2.135 . S
Co336 O337 2.216 . S
Co336 O338 2.091 . S
Co336 O340 2.004 . S
Co336 O346 2.021 . S
Co336 O348 2.137 . S
Co336 O349 2.244 . S
O337 Co336 2.216 . S
O337 C344 1.247 . S
O338 Co336 2.091 . S
O338 C344 1.261 . S
C339 O348 1.247 . S
C339 O349 1.272 . S
O340 Co336 2.004 . S
O340 C345 1.259 . S
Co341 O342 2.061 . S
Co341 O347 2.052 . S
Co341 O349 2.135 . S
O342 Co341 2.061 . S
O342 C345 1.235 . S
C343 O346 1.238 . S
C343 O347 1.241 . S
C344 O337 1.247 . S
C344 O338 1.261 . S
C345 O340 1.259 . S
C345 O342 1.235 . S
O346 Co336 2.021 . S
O346 C343 1.238 . S
O347 Co341 2.052 . S
O347 C343 1.241 . S
O348 Co336 2.137 . S
O348 C339 1.247 . S
O349 Co336 2.244 . S
O349 C339 1.272 . S
O349 Co341 2.135 . S
Co350 O351 2.216 . S
Co350 O352 2.091 . S
Co350 O354 2.004 . S
Co350 O360 2.021 . S
Co350 O362 2.137 . S
Co350 O363 2.244 . S
O351 Co350 2.216 . S
O351 C358 1.247 . S
O352 Co350 2.091 . S
O352 C358 1.261 . S
C353 O362 1.247 . S
C353 O363 1.272 . S
O354 Co350 2.004 . S
O354 C359 1.259 . S
Co355 O356 2.061 . S
Co355 O361 2.052 . S
Co355 O363 2.135 . S
O356 Co355 2.061 . S
O356 C359 1.235 . S
C357 O360 1.238 . S
C357 O361 1.241 . S
C358 O351 1.247 . S
C358 O352 1.261 . S
C359 O354 1.259 . S
C359 O356 1.235 . S
O360 Co350 2.021 . S
O360 C357 1.238 . S
O361 Co355 2.052 . S
O361 C357 1.241 . S
O362 Co350 2.137 . S
O362 C353 1.247 . S
O363 Co350 2.244 . S
O363 C353 1.272 . S
O363 Co355 2.135 . S
Co364 O365 2.216 . S
Co364 O366 2.091 . S
Co364 O368 2.004 . S
Co364 O374 2.021 . S
Co364 O376 2.137 . S
Co364 O377 2.244 . S
O365 Co364 2.216 . S
O365 C372 1.247 . S
O366 Co364 2.091 . S
O366 C372 1.261 . S
C367 O376 1.247 . S
C367 O377 1.272 . S
O368 Co364 2.004 . S
O368 C373 1.259 . S
Co369 O370 2.061 . S
Co369 O375 2.052 . S
Co369 O377 2.135 . S
O370 Co369 2.061 . S
O370 C373 1.235 . S
C371 O374 1.238 . S
C371 O375 1.241 . S
C372 O365 1.247 . S
C372 O366 1.261 . S
C373 O368 1.259 . S
C373 O370 1.235 . S
O374 Co364 2.021 . S
O374 C371 1.238 . S
O375 Co369 2.052 . S
O375 C371 1.241 . S
O376 Co364 2.137 . S
O376 C367 1.247 . S
O377 Co364 2.244 . S
O377 C367 1.272 . S
O377 Co369 2.135 . S
Co378 O379 2.216 . S
Co378 O380 2.091 . S
Co378 O382 2.004 . S
Co378 O388 2.021 . S
Co378 O390 2.137 . S
Co378 O391 2.244 . S
O379 Co378 2.216 . S
O379 C386 1.247 . S
O380 Co378 2.091 . S
O380 C386 1.261 . S
C381 O390 1.247 . S
C381 O391 1.272 . S
O382 Co378 2.004 . S
O382 C387 1.259 . S
Co383 O384 2.061 . S
Co383 O389 2.052 . S
Co383 O391 2.135 . S
O384 Co383 2.061 . S
O384 C387 1.235 . S
C385 O388 1.238 . S
C385 O389 1.241 . S
C386 O379 1.247 . S
C386 O380 1.261 . S
C387 O382 1.259 . S
C387 O384 1.235 . S
O388 Co378 2.021 . S
O388 C385 1.238 . S
O389 Co383 2.052 . S
O389 C385 1.241 . S
O390 Co378 2.137 . S
O390 C381 1.247 . S
O391 Co378 2.244 . S
O391 C381 1.272 . S
O391 Co383 2.135 . S
Co392 O393 2.216 . S
Co392 O394 2.091 . S
Co392 O396 2.004 . S
Co392 O402 2.021 . S
Co392 O404 2.137 . S
Co392 O405 2.244 . S
O393 Co392 2.216 . S
O393 C400 1.247 . S
O394 Co392 2.091 . S
O394 C400 1.261 . S
C395 O404 1.247 . S
C395 O405 1.272 . S
O396 Co392 2.004 . S
O396 C401 1.259 . S
Co397 O398 2.061 . S
Co397 O403 2.052 . S
Co397 O405 2.135 . S
O398 Co397 2.061 . S
O398 C401 1.235 . S
C399 O402 1.238 . S
C399 O403 1.241 . S
C400 O393 1.247 . S
C400 O394 1.261 . S
C401 O396 1.259 . S
C401 O398 1.235 . S
O402 Co392 2.021 . S
O402 C399 1.238 . S
O403 Co397 2.052 . S
O403 C399 1.241 . S
O404 Co392 2.137 . S
O404 C395 1.247 . S
O405 Co392 2.244 . S
O405 C395 1.272 . S
O405 Co397 2.135 . S
Co406 O407 2.216 . S
Co406 O408 2.091 . S
Co406 O410 2.004 . S
Co406 O416 2.021 . S
Co406 O418 2.137 . S
Co406 O419 2.244 . S
O407 Co406 2.216 . S
O407 C414 1.247 . S
O408 Co406 2.091 . S
O408 C414 1.261 . S
C409 O418 1.247 . S
C409 O419 1.272 . S
O410 Co406 2.004 . S
O410 C415 1.259 . S
Co411 O412 2.061 . S
Co411 O417 2.052 . S
Co411 O419 2.135 . S
O412 Co411 2.061 . S
O412 C415 1.235 . S
C413 O416 1.238 . S
C413 O417 1.241 . S
C414 O407 1.247 . S
C414 O408 1.261 . S
C415 O410 1.259 . S
C415 O412 1.235 . S
O416 Co406 2.021 . S
O416 C413 1.238 . S
O417 Co411 2.052 . S
O417 C413 1.241 . S
O418 Co406 2.137 . S
O418 C409 1.247 . S
O419 Co406 2.244 . S
O419 C409 1.272 . S
O419 Co411 2.135 . S
Co420 O421 2.216 . S
Co420 O422 2.091 . S
Co420 O424 2.004 . S
Co420 O430 2.021 . S
Co420 O432 2.137 . S
Co420 O433 2.244 . S
O421 Co420 2.216 . S
O421 C428 1.247 . S
O422 Co420 2.091 . S
O422 C428 1.261 . S
C423 O432 1.247 . S
C423 O433 1.272 . S
O424 Co420 2.004 . S
O424 C429 1.259 . S
Co425 O426 2.061 . S
Co425 O431 2.052 . S
Co425 O433 2.135 . S
O426 Co425 2.061 . S
O426 C429 1.235 . S
C427 O430 1.238 . S
C427 O431 1.241 . S
C428 O421 1.247 . S
C428 O422 1.261 . S
C429 O424 1.259 . S
C429 O426 1.235 . S
O430 Co420 2.021 . S
O430 C427 1.238 . S
O431 Co425 2.052 . S
O431 C427 1.241 . S
O432 Co420 2.137 . S
O432 C423 1.247 . S
O433 Co420 2.244 . S
O433 C423 1.272 . S
O433 Co425 2.135 . S
Co434 O435 2.216 . S
Co434 O436 2.091 . S
Co434 O438 2.004 . S
Co434 O444 2.021 . S
Co434 O446 2.137 . S
Co434 O447 2.244 . S
O435 Co434 2.216 . S
O435 C442 1.247 . S
O436 Co434 2.091 . S
O436 C442 1.261 . S
C437 O446 1.247 . S
C437 O447 1.272 . S
O438 Co434 2.004 . S
O438 C443 1.259 . S
Co439 O440 2.061 . S
Co439 O445 2.052 . S
Co439 O447 2.135 . S
O440 Co439 2.061 . S
O440 C443 1.235 . S
C441 O444 1.238 . S
C441 O445 1.241 . S
C442 O435 1.247 . S
C442 O436 1.261 . S
C443 O438 1.259 . S
C443 O440 1.235 . S
O444 Co434 2.021 . S
O444 C441 1.238 . S
O445 Co439 2.052 . S
O445 C441 1.241 . S
O446 Co434 2.137 . S
O446 C437 1.247 . S
O447 Co434 2.244 . S
O447 C437 1.272 . S
O447 Co439 2.135 . S
Co448 O449 2.216 . S
Co448 O450 2.091 . S
Co448 O452 2.004 . S
Co448 O458 2.021 . S
Co448 O460 2.137 . S
Co448 O461 2.244 . S
O449 Co448 2.216 . S
O449 C456 1.247 . S
O450 Co448 2.091 . S
O450 C456 1.261 . S
C451 O460 1.247 . S
C451 O461 1.272 . S
O452 Co448 2.004 . S
O452 C457 1.259 . S
Co453 O454 2.061 . S
Co453 O459 2.052 . S
Co453 O461 2.135 . S
O454 Co453 2.061 . S
O454 C457 1.235 . S
C455 O458 1.238 . S
C455 O459 1.241 . S
C456 O449 1.247 . S
C456 O450 1.261 . S
C457 O452 1.259 . S
C457 O454 1.235 . S
O458 Co448 2.021 . S
O458 C455 1.238 . S
O459 Co453 2.052 . S
O459 C455 1.241 . S
O460 Co448 2.137 . S
O460 C451 1.247 . S
O461 Co448 2.244 . S
O461 C451 1.272 . S
O461 Co453 2.135 . S
Co462 O463 2.216 . S
Co462 O464 2.091 . S
Co462 O466 2.004 . S
Co462 O472 2.021 . S
Co462 O474 2.137 . S
Co462 O475 2.244 . S
O463 Co462 2.216 . S
O463 C470 1.247 . S
O464 Co462 2.091 . S
O464 C470 1.261 . S
C465 O474 1.247 . S
C465 O475 1.272 . S
O466 Co462 2.004 . S
O466 C471 1.259 . S
Co467 O468 2.061 . S
Co467 O473 2.052 . S
Co467 O475 2.135 . S
O468 Co467 2.061 . S
O468 C471 1.235 . S
C469 O472 1.238 . S
C469 O473 1.241 . S
C470 O463 1.247 . S
C470 O464 1.261 . S
C471 O466 1.259 . S
C471 O468 1.235 . S
O472 Co462 2.021 . S
O472 C469 1.238 . S
O473 Co467 2.052 . S
O473 C469 1.241 . S
O474 Co462 2.137 . S
O474 C465 1.247 . S
O475 Co462 2.244 . S
O475 C465 1.272 . S
O475 Co467 2.135 . S
Co476 O477 2.216 . S
Co476 O478 2.091 . S
Co476 O480 2.004 . S
Co476 O486 2.021 . S
Co476 O488 2.137 . S
Co476 O489 2.244 . S
O477 Co476 2.216 . S
O477 C484 1.247 . S
O478 Co476 2.091 . S
O478 C484 1.261 . S
C479 O488 1.247 . S
C479 O489 1.272 . S
O480 Co476 2.004 . S
O480 C485 1.259 . S
Co481 O482 2.061 . S
Co481 O487 2.052 . S
Co481 O489 2.135 . S
O482 Co481 2.061 . S
O482 C485 1.235 . S
C483 O486 1.238 . S
C483 O487 1.241 . S
C484 O477 1.247 . S
C484 O478 1.261 . S
C485 O480 1.259 . S
C485 O482 1.235 . S
O486 Co476 2.021 . S
O486 C483 1.238 . S
O487 Co481 2.052 . S
O487 C483 1.241 . S
O488 Co476 2.137 . S
O488 C479 1.247 . S
O489 Co476 2.244 . S
O489 C479 1.272 . S
O489 Co481 2.135 . S
Co490 O491 2.216 . S
Co490 O492 2.091 . S
Co490 O494 2.004 . S
Co490 O500 2.021 . S
Co490 O502 2.137 . S
Co490 O503 2.244 . S
O491 Co490 2.216 . S
O491 C498 1.247 . S
O492 Co490 2.091 . S
O492 C498 1.261 . S
C493 O502 1.247 . S
C493 O503 1.272 . S
O494 Co490 2.004 . S
O494 C499 1.259 . S
Co495 O496 2.061 . S
Co495 O501 2.052 . S
Co495 O503 2.135 . S
O496 Co495 2.061 . S
O496 C499 1.235 . S
C497 O500 1.238 . S
C497 O501 1.241 . S
C498 O491 1.247 . S
C498 O492 1.261 . S
C499 O494 1.259 . S
C499 O496 1.235 . S
O500 Co490 2.021 . S
O500 C497 1.238 . S
O501 Co495 2.052 . S
O501 C497 1.241 . S
O502 Co490 2.137 . S
O502 C493 1.247 . S
O503 Co490 2.244 . S
O503 C493 1.272 . S
O503 Co495 2.135 . S
C504 C505 1.349 . S
C504 C506 1.327 . S
C504 H529 0.950 . S
C505 C504 1.349 . S
C505 C521 1.349 . S
C506 C504 1.327 . S
C506 C525 1.429 . S
C506 H530 0.950 . S
C507 C524 1.562 1_565 S
C507 C526 1.368 . S
C507 H531 0.949 . S
H508 C512 0.949 . S
C509 C510 1.349 . S
C509 C511 1.327 . S
C509 H532 0.950 . S
C510 C509 1.349 . S
C510 C522 1.349 . S
C511 C509 1.327 . S
C511 C527 1.429 . S
C511 H533 0.950 . S
C512 H508 0.949 . S
C512 C520 1.562 1_545 S
C512 C528 1.368 . S
H513 C521 0.950 . S
H514 C519 0.950 . S
H515 C520 0.933 . S
H516 C522 0.950 . S
H517 C523 0.950 . S
H518 C524 0.933 . S
C519 H514 0.950 . S
C519 C521 1.327 . S
C519 C525 1.429 . S
C520 C512 1.562 1_565 S
C520 H515 0.933 . S
C520 C526 1.371 . S
C521 C505 1.349 . S
C521 H513 0.950 . S
C521 C519 1.327 . S
C522 C510 1.349 . S
C522 H516 0.950 . S
C522 C523 1.327 . S
C523 H517 0.950 . S
C523 C522 1.327 . S
C523 C527 1.429 . S
C524 C507 1.562 1_545 S
C524 H518 0.933 . S
C524 C528 1.371 . S
C525 C506 1.429 . S
C525 C519 1.429 . S
C525 C526 1.523 . S
C526 C507 1.368 . S
C526 C520 1.371 . S
C526 C525 1.523 . S
C527 C511 1.429 . S
C527 C523 1.429 . S
C527 C528 1.523 . S
C528 C512 1.368 . S
C528 C524 1.371 . S
C528 C527 1.523 . S
H529 C504 0.950 . S
H530 C506 0.950 . S
H531 C507 0.949 . S
H532 C509 0.950 . S
H533 C511 0.950 . S
C534 C535 1.349 . S
C534 C536 1.327 . S
C534 H559 0.950 . S
C535 C534 1.349 . S
C535 C551 1.349 . S
C536 C534 1.327 . S
C536 C555 1.429 . S
C536 H560 0.950 . S
C537 C554 1.574 . S
C537 C556 1.368 1_655 S
C537 H561 0.949 . S
H538 C542 0.949 . S
C539 C540 1.349 . S
C539 C541 1.327 . S
C539 H562 0.950 . S
C540 C539 1.349 . S
C540 C552 1.349 . S
C541 C539 1.327 . S
C541 C557 1.429 . S
C541 H563 0.950 . S
C542 H538 0.949 . S
C542 C550 1.574 . S
C542 C558 1.368 1_455 S
H543 C551 0.950 . S
H544 C549 0.950 . S
H545 C550 0.949 . S
H546 C552 0.950 . S
H547 C553 0.950 . S
H548 C554 0.949 . S
C549 H544 0.950 . S
C549 C551 1.327 . S
C549 C555 1.429 . S
C550 C542 1.574 . S
C550 H545 0.949 . S
C550 C556 1.368 . S
C551 C535 1.349 . S
C551 H543 0.950 . S
C551 C549 1.327 . S
C552 C540 1.349 . S
C552 H546 0.950 . S
C552 C553 1.327 . S
C553 H547 0.950 . S
C553 C552 1.327 . S
C553 C557 1.429 . S
C554 C537 1.574 . S
C554 H548 0.949 . S
C554 C558 1.368 . S
C555 C536 1.429 . S
C555 C549 1.429 . S
C555 C556 1.523 . S
C556 C537 1.368 1_455 S
C556 C550 1.368 . S
C556 C555 1.523 . S
C557 C541 1.429 . S
C557 C553 1.429 . S
C557 C558 1.523 . S
C558 C542 1.368 1_655 S
C558 C554 1.368 . S
C558 C557 1.523 . S
H559 C534 0.950 . S
H560 C536 0.950 . S
H561 C537 0.949 . S
H562 C539 0.950 . S
H563 C541 0.950 . S
C564 C565 1.349 . S
C564 C566 1.327 . S
C564 H589 0.950 . S
C565 C564 1.349 . S
C565 C581 1.349 . S
C566 C564 1.327 . S
C566 C585 1.429 . S
C566 H590 0.950 . S
C567 C584 1.574 . S
C567 C586 1.368 . S
C567 H591 0.949 . S
H568 C572 0.949 . S
C569 C570 1.349 . S
C569 C571 1.327 . S
C569 H592 0.950 . S
C570 C569 1.349 . S
C570 C582 1.349 . S
C571 C569 1.327 . S
C571 C587 1.429 . S
C571 H593 0.950 . S
C572 H568 0.949 . S
C572 C580 1.574 . S
C572 C588 1.368 . S
H573 C581 0.950 . S
H574 C579 0.950 . S
H575 C580 0.949 . S
H576 C582 0.950 . S
H577 C583 0.950 . S
H578 C584 0.949 . S
C579 H574 0.950 . S
C579 C581 1.327 . S
C579 C585 1.429 . S
C580 C572 1.574 . S
C580 H575 0.949 . S
C580 C586 1.368 . S
C581 C565 1.349 . S
C581 H573 0.950 . S
C581 C579 1.327 . S
C582 C570 1.349 . S
C582 H576 0.950 . S
C582 C583 1.327 . S
C583 H577 0.950 . S
C583 C582 1.327 . S
C583 C587 1.429 . S
C584 C567 1.574 . S
C584 H578 0.949 . S
C584 C588 1.368 . S
C585 C566 1.429 . S
C585 C579 1.429 . S
C585 C586 1.523 . S
C586 C567 1.368 . S
C586 C580 1.368 . S
C586 C585 1.523 . S
C587 C571 1.429 . S
C587 C583 1.429 . S
C587 C588 1.523 . S
C588 C572 1.368 . S
C588 C584 1.368 . S
C588 C587 1.523 . S
H589 C564 0.950 . S
H590 C566 0.950 . S
H591 C567 0.949 . S
H592 C569 0.950 . S
H593 C571 0.950 . S
C594 C595 1.349 . S
C594 C596 1.327 . S
C594 H619 0.950 . S
C595 C594 1.349 . S
C595 C611 1.349 . S
C596 C594 1.327 . S
C596 C615 1.429 . S
C596 H620 0.950 . S
C597 C614 1.574 1_565 S
C597 C616 1.368 . S
C597 H621 0.949 . S
H598 C602 0.949 . S
C599 C600 1.349 . S
C599 C601 1.327 . S
C599 H622 0.950 . S
C600 C599 1.349 . S
C600 C612 1.349 . S
C601 C599 1.327 . S
C601 C617 1.429 . S
C601 H623 0.950 . S
C602 H598 0.949 . S
C602 C610 1.574 1_545 S
C602 C618 1.368 . S
H603 C611 0.950 . S
H604 C609 0.950 . S
H605 C610 0.949 . S
H606 C612 0.950 . S
H607 C613 0.950 . S
H608 C614 0.949 . S
C609 H604 0.950 . S
C609 C611 1.327 . S
C609 C615 1.429 . S
C610 C602 1.574 1_565 S
C610 H605 0.949 . S
C610 C616 1.368 . S
C611 C595 1.349 . S
C611 H603 0.950 . S
C611 C609 1.327 . S
C612 C600 1.349 . S
C612 H606 0.950 . S
C612 C613 1.327 . S
C613 H607 0.950 . S
C613 C612 1.327 . S
C613 C617 1.429 . S
C614 C597 1.574 1_545 S
C614 H608 0.949 . S
C614 C618 1.368 . S
C615 C596 1.429 . S
C615 C609 1.429 . S
C615 C616 1.523 . S
C616 C597 1.368 . S
C616 C610 1.368 . S
C616 C615 1.523 . S
C617 C601 1.429 . S
C617 C613 1.429 . S
C617 C618 1.523 . S
C618 C602 1.368 . S
C618 C614 1.368 . S
C618 C617 1.523 . S
H619 C594 0.950 . S
H620 C596 0.950 . S
H621 C597 0.949 . S
H622 C599 0.950 . S
H623 C601 0.950 . S
C624 C625 1.349 . S
C624 C626 1.327 . S
C624 H649 0.950 . S
C625 C624 1.349 . S
C625 C641 1.349 . S
C626 C624 1.327 . S
C626 C645 1.429 . S
C626 H650 0.950 . S
C627 C644 1.574 . S
C627 C646 1.368 1_655 S
C627 H651 0.949 . S
H628 C632 0.949 . S
C629 C630 1.349 . S
C629 C631 1.327 . S
C629 H652 0.950 . S
C630 C629 1.349 . S
C630 C642 1.349 . S
C631 C629 1.327 . S
C631 C647 1.429 . S
C631 H653 0.950 . S
C632 H628 0.949 . S
C632 C640 1.574 . S
C632 C648 1.368 1_455 S
H633 C641 0.950 . S
H634 C639 0.950 . S
H635 C640 0.949 . S
H636 C642 0.950 . S
H637 C643 0.950 . S
H638 C644 0.949 . S
C639 H634 0.950 . S
C639 C641 1.327 . S
C639 C645 1.429 . S
C640 C632 1.574 . S
C640 H635 0.949 . S
C640 C646 1.368 . S
C641 C625 1.349 . S
C641 H633 0.950 . S
C641 C639 1.327 . S
C642 C630 1.349 . S
C642 H636 0.950 . S
C642 C643 1.327 . S
C643 H637 0.950 . S
C643 C642 1.327 . S
C643 C647 1.429 . S
C644 C627 1.574 . S
C644 H638 0.949 . S
C644 C648 1.368 . S
C645 C626 1.429 . S
C645 C639 1.429 . S
C645 C646 1.523 . S
C646 C627 1.368 1_455 S
C646 C640 1.368 . S
C646 C645 1.523 . S
C647 C631 1.429 . S
C647 C643 1.429 . S
C647 C648 1.523 . S
C648 C632 1.368 1_655 S
C648 C644 1.368 . S
C648 C647 1.523 . S
H649 C624 0.950 . S
H650 C626 0.950 . S
H651 C627 0.949 . S
H652 C629 0.950 . S
H653 C631 0.950 . S
C654 C655 1.349 . S
C654 C656 1.327 . S
C654 H679 0.950 . S
C655 C654 1.349 . S
C655 C671 1.349 . S
C656 C654 1.327 . S
C656 C675 1.429 . S
C656 H680 0.950 . S
C657 C674 1.574 . S
C657 C676 1.368 . S
C657 H681 0.949 . S
H658 C662 0.949 . S
C659 C660 1.349 . S
C659 C661 1.327 . S
C659 H682 0.950 . S
C660 C659 1.349 . S
C660 C672 1.349 . S
C661 C659 1.327 . S
C661 C677 1.429 . S
C661 H683 0.950 . S
C662 H658 0.949 . S
C662 C670 1.574 . S
C662 C678 1.368 . S
H663 C671 0.950 . S
H664 C669 0.950 . S
H665 C670 0.949 . S
H666 C672 0.950 . S
H667 C673 0.950 . S
H668 C674 0.949 . S
C669 H664 0.950 . S
C669 C671 1.327 . S
C669 C675 1.429 . S
C670 C662 1.574 . S
C670 H665 0.949 . S
C670 C676 1.368 . S
C671 C655 1.349 . S
C671 H663 0.950 . S
C671 C669 1.327 . S
C672 C660 1.349 . S
C672 H666 0.950 . S
C672 C673 1.327 . S
C673 H667 0.950 . S
C673 C672 1.327 . S
C673 C677 1.429 . S
C674 C657 1.574 . S
C674 H668 0.949 . S
C674 C678 1.368 . S
C675 C656 1.429 . S
C675 C669 1.429 . S
C675 C676 1.523 . S
C676 C657 1.368 . S
C676 C670 1.368 . S
C676 C675 1.523 . S
C677 C661 1.429 . S
C677 C673 1.429 . S
C677 C678 1.523 . S
C678 C662 1.368 . S
C678 C674 1.368 . S
C678 C677 1.523 . S
H679 C654 0.950 . S
H680 C656 0.950 . S
H681 C657 0.949 . S
H682 C659 0.950 . S
H683 C661 0.950 . S
C684 C685 1.349 . S
C684 C686 1.327 . S
C684 H709 0.950 . S
C685 C684 1.349 . S
C685 C701 1.349 . S
C686 C684 1.327 . S
C686 C705 1.429 . S
C686 H710 0.950 . S
C687 C704 1.574 . S
C687 C706 1.368 . S
C687 H711 0.949 . S
H688 C692 0.949 . S
C689 C690 1.349 . S
C689 C691 1.327 . S
C689 H712 0.950 1_556 S
C690 C689 1.349 . S
C690 C702 1.349 . S
C691 C689 1.327 . S
C691 C707 1.429 . S
C691 H713 0.950 . S
C692 H688 0.949 . S
C692 C700 1.574 . S
C692 C708 1.368 . S
H693 C701 0.950 . S
H694 C699 0.950 . S
H695 C700 0.949 . S
H696 C702 0.950 . S
H697 C703 0.950 . S
H698 C704 0.949 . S
C699 H694 0.950 . S
C699 C701 1.327 . S
C699 C705 1.429 . S
C700 C692 1.574 . S
C700 H695 0.949 . S
C700 C706 1.368 . S
C701 C685 1.349 . S
C701 H693 0.950 . S
C701 C699 1.327 . S
C702 C690 1.349 . S
C702 H696 0.950 . S
C702 C703 1.327 . S
C703 H697 0.950 . S
C703 C702 1.327 . S
C703 C707 1.429 . S
C704 C687 1.574 . S
C704 H698 0.949 . S
C704 C708 1.368 . S
C705 C686 1.429 . S
C705 C699 1.429 . S
C705 C706 1.523 . S
C706 C687 1.368 . S
C706 C700 1.368 . S
C706 C705 1.523 . S
C707 C691 1.429 . S
C707 C703 1.429 . S
C707 C708 1.523 . S
C708 C692 1.368 . S
C708 C704 1.368 . S
C708 C707 1.523 . S
H709 C684 0.950 . S
H710 C686 0.950 . S
H711 C687 0.949 . S
H712 C689 0.950 1_554 S
H713 C691 0.950 . S
C714 C715 1.349 . S
C714 C716 1.327 . S
C714 H739 0.950 . S
C715 C714 1.349 . S
C715 C731 1.349 . S
C716 C714 1.327 . S
C716 C735 1.429 . S
C716 H740 0.950 . S
C717 C734 1.574 . S
C717 C736 1.368 . S
C717 H741 0.949 . S
H718 C722 0.949 . S
C719 C720 1.349 . S
C719 C721 1.327 . S
C719 H742 0.950 . S
C720 C719 1.349 . S
C720 C732 1.349 . S
C721 C719 1.327 . S
C721 C737 1.429 . S
C721 H743 0.950 . S
C722 H718 0.949 . S
C722 C730 1.574 . S
C722 C738 1.368 . S
H723 C731 0.950 . S
H724 C729 0.950 . S
H725 C730 0.949 . S
H726 C732 0.950 1_554 S
H727 C733 0.950 . S
H728 C734 0.949 . S
C729 H724 0.950 . S
C729 C731 1.327 . S
C729 C735 1.429 . S
C730 C722 1.574 . S
C730 H725 0.949 . S
C730 C736 1.368 . S
C731 C715 1.349 . S
C731 H723 0.950 . S
C731 C729 1.327 . S
C732 C720 1.349 . S
C732 H726 0.950 1_556 S
C732 C733 1.327 . S
C733 H727 0.950 . S
C733 C732 1.327 . S
C733 C737 1.429 . S
C734 C717 1.574 . S
C734 H728 0.949 . S
C734 C738 1.368 . S
C735 C716 1.429 . S
C735 C729 1.429 . S
C735 C736 1.523 . S
C736 C717 1.368 . S
C736 C730 1.368 . S
C736 C735 1.523 . S
C737 C721 1.429 . S
C737 C733 1.429 . S
C737 C738 1.523 . S
C738 C722 1.368 . S
C738 C734 1.368 . S
C738 C737 1.523 . S
H739 C714 0.950 . S
H740 C716 0.950 . S
H741 C717 0.949 . S
H742 C719 0.950 . S
H743 C721 0.950 . S
C744 C745 1.349 . S
C744 C746 1.327 . S
C744 H769 0.950 . S
C745 C744 1.349 . S
C745 C761 1.349 . S
C746 C744 1.327 . S
C746 C765 1.429 . S
C746 H770 0.950 . S
C747 C764 1.574 . S
C747 C766 1.368 . S
C747 H771 0.949 . S
H748 C752 0.949 . S
C749 C750 1.349 . S
C749 C751 1.327 . S
C749 H772 0.950 . S
C750 C749 1.349 . S
C750 C762 1.349 . S
C751 C749 1.327 . S
C751 C767 1.429 . S
C751 H773 0.950 . S
C752 H748 0.949 . S
C752 C760 1.574 . S
C752 C768 1.368 . S
H753 C761 0.950 . S
H754 C759 0.950 . S
H755 C760 0.949 . S
H756 C762 0.950 . S
H757 C763 0.950 . S
H758 C764 0.949 . S
C759 H754 0.950 . S
C759 C761 1.327 . S
C759 C765 1.429 . S
C760 C752 1.574 . S
C760 H755 0.949 . S
C760 C766 1.368 . S
C761 C745 1.349 . S
C761 H753 0.950 . S
C761 C759 1.327 . S
C762 C750 1.349 . S
C762 H756 0.950 . S
C762 C763 1.327 . S
C763 H757 0.950 . S
C763 C762 1.327 . S
C763 C767 1.429 . S
C764 C747 1.574 . S
C764 H758 0.949 . S
C764 C768 1.368 . S
C765 C746 1.429 . S
C765 C759 1.429 . S
C765 C766 1.523 . S
C766 C747 1.368 . S
C766 C760 1.368 . S
C766 C765 1.523 . S
C767 C751 1.429 . S
C767 C763 1.429 . S
C767 C768 1.523 . S
C768 C752 1.368 . S
C768 C764 1.368 . S
C768 C767 1.523 . S
H769 C744 0.950 . S
H770 C746 0.950 . S
H771 C747 0.949 . S
H772 C749 0.950 . S
H773 C751 0.950 . S
C774 C775 1.349 . S
C774 C776 1.327 . S
C774 H799 0.950 . S
C775 C774 1.349 . S
C775 C791 1.349 . S
C776 C774 1.327 . S
C776 C795 1.429 . S
C776 H800 0.950 . S
C777 C794 1.574 . S
C777 C796 1.368 . S
C777 H801 0.949 . S
H778 C782 0.949 . S
C779 C780 1.349 . S
C779 C781 1.327 . S
C779 H802 0.950 1_556 S
C780 C779 1.349 . S
C780 C792 1.349 . S
C781 C779 1.327 . S
C781 C797 1.429 . S
C781 H803 0.950 . S
C782 H778 0.949 . S
C782 C790 1.574 . S
C782 C798 1.368 . S
H783 C791 0.950 . S
H784 C789 0.950 . S
H785 C790 0.949 . S
H786 C792 0.950 . S
H787 C793 0.950 . S
H788 C794 0.949 . S
C789 H784 0.950 . S
C789 C791 1.327 . S
C789 C795 1.429 . S
C790 C782 1.574 . S
C790 H785 0.949 . S
C790 C796 1.368 . S
C791 C775 1.349 . S
C791 H783 0.950 . S
C791 C789 1.327 . S
C792 C780 1.349 . S
C792 H786 0.950 . S
C792 C793 1.327 . S
C793 H787 0.950 . S
C793 C792 1.327 . S
C793 C797 1.429 . S
C794 C777 1.574 . S
C794 H788 0.949 . S
C794 C798 1.368 . S
C795 C776 1.429 . S
C795 C789 1.429 . S
C795 C796 1.523 . S
C796 C777 1.368 . S
C796 C790 1.368 . S
C796 C795 1.523 . S
C797 C781 1.429 . S
C797 C793 1.429 . S
C797 C798 1.523 . S
C798 C782 1.368 . S
C798 C794 1.368 . S
C798 C797 1.523 . S
H799 C774 0.950 . S
H800 C776 0.950 . S
H801 C777 0.949 . S
H802 C779 0.950 1_554 S
H803 C781 0.950 . S
C804 C805 1.349 . S
C804 C806 1.327 . S
C804 H829 0.950 . S
C805 C804 1.349 . S
C805 C821 1.349 . S
C806 C804 1.327 . S
C806 C825 1.429 . S
C806 H830 0.950 . S
C807 C824 1.574 . S
C807 C826 1.368 . S
C807 H831 0.949 . S
H808 C812 0.949 . S
C809 C810 1.349 . S
C809 C811 1.327 . S
C809 H832 0.950 . S
C810 C809 1.349 . S
C810 C822 1.349 . S
C811 C809 1.327 . S
C811 C827 1.429 . S
C811 H833 0.950 . S
C812 H808 0.949 . S
C812 C820 1.574 . S
C812 C828 1.368 . S
H813 C821 0.950 1_554 S
H814 C819 0.950 . S
H815 C820 0.949 . S
H816 C822 0.950 . S
H817 C823 0.950 . S
H818 C824 0.949 . S
C819 H814 0.950 . S
C819 C821 1.327 . S
C819 C825 1.429 . S
C820 C812 1.574 . S
C820 H815 0.949 . S
C820 C826 1.368 . S
C821 C805 1.349 . S
C821 H813 0.950 1_556 S
C821 C819 1.327 . S
C822 C810 1.349 . S
C822 H816 0.950 . S
C822 C823 1.327 . S
C823 H817 0.950 . S
C823 C822 1.327 . S
C823 C827 1.429 . S
C824 C807 1.574 . S
C824 H818 0.949 . S
C824 C828 1.368 . S
C825 C806 1.429 . S
C825 C819 1.429 . S
C825 C826 1.523 . S
C826 C807 1.368 . S
C826 C820 1.368 . S
C826 C825 1.523 . S
C827 C811 1.429 . S
C827 C823 1.429 . S
C827 C828 1.523 . S
C828 C812 1.368 . S
C828 C824 1.368 . S
C828 C827 1.523 . S
H829 C804 0.950 . S
H830 C806 0.950 . S
H831 C807 0.949 . S
H832 C809 0.950 . S
H833 C811 0.950 . S
C834 C835 1.349 . S
C834 C836 1.327 . S
C834 H859 0.950 . S
C835 C834 1.349 . S
C835 C851 1.349 . S
C836 C834 1.327 . S
C836 C855 1.429 . S
C836 H860 0.950 . S
C837 C854 1.574 . S
C837 C856 1.368 . S
C837 H861 0.949 . S
H838 C842 0.949 . S
C839 C840 1.349 . S
C839 C841 1.327 . S
C839 H862 0.950 1_556 S
C840 C839 1.349 . S
C840 C852 1.349 . S
C841 C839 1.327 . S
C841 C857 1.429 . S
C841 H863 0.950 . S
C842 H838 0.949 . S
C842 C850 1.574 . S
C842 C858 1.368 . S
H843 C851 0.950 . S
H844 C849 0.950 . S
H845 C850 0.949 . S
H846 C852 0.950 . S
H847 C853 0.950 . S
H848 C854 0.949 . S
C849 H844 0.950 . S
C849 C851 1.327 . S
C849 C855 1.429 . S
C850 C842 1.574 . S
C850 H845 0.949 . S
C850 C856 1.368 . S
C851 C835 1.349 . S
C851 H843 0.950 . S
C851 C849 1.327 . S
C852 C840 1.349 . S
C852 H846 0.950 . S
C852 C853 1.327 . S
C853 H847 0.950 . S
C853 C852 1.327 . S
C853 C857 1.429 . S
C854 C837 1.574 . S
C854 H848 0.949 . S
C854 C858 1.368 . S
C855 C836 1.429 . S
C855 C849 1.429 . S
C855 C856 1.523 . S
C856 C837 1.368 . S
C856 C850 1.368 . S
C856 C855 1.523 . S
C857 C841 1.429 . S
C857 C853 1.429 . S
C857 C858 1.523 . S
C858 C842 1.368 . S
C858 C854 1.368 . S
C858 C857 1.523 . S
H859 C834 0.950 . S
H860 C836 0.950 . S
H861 C837 0.949 . S
H862 C839 0.950 1_554 S
H863 C841 0.950 . S
C864 C865 1.349 . S
C864 C866 1.327 . S
C864 H889 0.950 . S
C865 C864 1.349 . S
C865 C881 1.349 . S
C866 C864 1.327 . S
C866 C885 1.429 . S
C866 H890 0.950 . S
C867 C884 1.574 . S
C867 C886 1.368 . S
C867 H891 0.949 . S
H868 C872 0.949 . S
C869 C870 1.349 . S
C869 C871 1.327 . S
C869 H892 0.950 . S
C870 C869 1.349 . S
C870 C882 1.349 . S
C871 C869 1.327 . S
C871 C887 1.429 . S
C871 H893 0.950 . S
C872 H868 0.949 . S
C872 C880 1.574 . S
C872 C888 1.368 . S
H873 C881 0.950 . S
H874 C879 0.950 . S
H875 C880 0.949 . S
H876 C882 0.950 . S
H877 C883 0.950 . S
H878 C884 0.949 . S
C879 H874 0.950 . S
C879 C881 1.327 . S
C879 C885 1.429 . S
C880 C872 1.574 . S
C880 H875 0.949 . S
C880 C886 1.368 . S
C881 C865 1.349 . S
C881 H873 0.950 . S
C881 C879 1.327 . S
C882 C870 1.349 . S
C882 H876 0.950 . S
C882 C883 1.327 . S
C883 H877 0.950 . S
C883 C882 1.327 . S
C883 C887 1.429 . S
C884 C867 1.574 . S
C884 H878 0.949 . S
C884 C888 1.368 . S
C885 C866 1.429 . S
C885 C879 1.429 . S
C885 C886 1.523 . S
C886 C867 1.368 . S
C886 C880 1.368 . S
C886 C885 1.523 . S
C887 C871 1.429 . S
C887 C883 1.429 . S
C887 C888 1.523 . S
C888 C872 1.368 . S
C888 C884 1.368 . S
C888 C887 1.523 . S
H889 C864 0.950 . S
H890 C866 0.950 . S
H891 C867 0.949 . S
H892 C869 0.950 . S
H893 C871 0.950 . S
C894 C895 1.349 . S
C894 C896 1.327 . S
C894 H919 0.950 . S
C895 C894 1.349 . S
C895 C911 1.349 . S
C896 C894 1.327 . S
C896 C915 1.429 . S
C896 H920 0.950 . S
C897 C914 1.574 . S
C897 C916 1.368 . S
C897 H921 0.949 . S
H898 C902 0.949 . S
C899 C900 1.349 . S
C899 C901 1.327 . S
C899 H922 0.950 . S
C900 C899 1.349 . S
C900 C912 1.349 . S
C901 C899 1.327 . S
C901 C917 1.429 . S
C901 H923 0.950 . S
C902 H898 0.949 . S
C902 C910 1.574 . S
C902 C918 1.368 . S
H903 C911 0.950 . S
H904 C909 0.950 . S
H905 C910 0.949 . S
H906 C912 0.950 1_556 S
H907 C913 0.950 . S
H908 C914 0.949 . S
C909 H904 0.950 . S
C909 C911 1.327 . S
C909 C915 1.429 . S
C910 C902 1.574 . S
C910 H905 0.949 . S
C910 C916 1.368 . S
C911 C895 1.349 . S
C911 H903 0.950 . S
C911 C909 1.327 . S
C912 C900 1.349 . S
C912 H906 0.950 1_554 S
C912 C913 1.327 . S
C913 H907 0.950 . S
C913 C912 1.327 . S
C913 C917 1.429 . S
C914 C897 1.574 . S
C914 H908 0.949 . S
C914 C918 1.368 . S
C915 C896 1.429 . S
C915 C909 1.429 . S
C915 C916 1.523 . S
C916 C897 1.368 . S
C916 C910 1.368 . S
C916 C915 1.523 . S
C917 C901 1.429 . S
C917 C913 1.429 . S
C917 C918 1.523 . S
C918 C902 1.368 . S
C918 C914 1.368 . S
C918 C917 1.523 . S
H919 C894 0.950 . S
H920 C896 0.950 . S
H921 C897 0.949 . S
H922 C899 0.950 . S
H923 C901 0.950 . S
C924 C925 1.349 . S
C924 C926 1.327 . S
C924 H949 0.950 . S
C925 C924 1.349 . S
C925 C941 1.349 . S
C926 C924 1.327 . S
C926 C945 1.429 . S
C926 H950 0.950 . S
C927 C944 1.574 . S
C927 C946 1.368 . S
C927 H951 0.949 . S
H928 C932 0.949 . S
C929 C930 1.349 . S
C929 C931 1.327 . S
C929 H952 0.950 . S
C930 C929 1.349 . S
C930 C942 1.349 . S
C931 C929 1.327 . S
C931 C947 1.429 . S
C931 H953 0.950 . S
C932 H928 0.949 . S
C932 C940 1.574 . S
C932 C948 1.368 . S
H933 C941 0.950 . S
H934 C939 0.950 . S
H935 C940 0.949 . S
H936 C942 0.950 . S
H937 C943 0.950 . S
H938 C944 0.949 . S
C939 H934 0.950 . S
C939 C941 1.327 . S
C939 C945 1.429 . S
C940 C932 1.574 . S
C940 H935 0.949 . S
C940 C946 1.368 . S
C941 C925 1.349 . S
C941 H933 0.950 . S
C941 C939 1.327 . S
C942 C930 1.349 . S
C942 H936 0.950 . S
C942 C943 1.327 . S
C943 H937 0.950 . S
C943 C942 1.327 . S
C943 C947 1.429 . S
C944 C927 1.574 . S
C944 H938 0.949 . S
C944 C948 1.368 . S
C945 C926 1.429 . S
C945 C939 1.429 . S
C945 C946 1.523 . S
C946 C927 1.368 . S
C946 C940 1.368 . S
C946 C945 1.523 . S
C947 C931 1.429 . S
C947 C943 1.429 . S
C947 C948 1.523 . S
C948 C932 1.368 . S
C948 C944 1.368 . S
C948 C947 1.523 . S
H949 C924 0.950 . S
H950 C926 0.950 . S
H951 C927 0.949 . S
H952 C929 0.950 . S
H953 C931 0.950 . S
C954 C955 1.349 . S
C954 C956 1.327 . S
C954 H979 0.950 . S
C955 C954 1.349 . S
C955 C971 1.349 . S
C956 C954 1.327 . S
C956 C975 1.429 . S
C956 H980 0.950 . S
C957 C974 1.574 . S
C957 C976 1.368 . S
C957 H981 0.949 . S
H958 C962 0.949 . S
C959 C960 1.349 . S
C959 C961 1.327 . S
C959 H982 0.950 1_554 S
C960 C959 1.349 . S
C960 C972 1.349 . S
C961 C959 1.327 . S
C961 C977 1.429 . S
C961 H983 0.950 . S
C962 H958 0.949 . S
C962 C970 1.574 . S
C962 C978 1.368 . S
H963 C971 0.950 . S
H964 C969 0.950 . S
H965 C970 0.949 . S
H966 C972 0.950 . S
H967 C973 0.950 . S
H968 C974 0.949 . S
C969 H964 0.950 . S
C969 C971 1.327 . S
C969 C975 1.429 . S
C970 C962 1.574 . S
C970 H965 0.949 . S
C970 C976 1.368 . S
C971 C955 1.349 . S
C971 H963 0.950 . S
C971 C969 1.327 . S
C972 C960 1.349 . S
C972 H966 0.950 . S
C972 C973 1.327 . S
C973 H967 0.950 . S
C973 C972 1.327 . S
C973 C977 1.429 . S
C974 C957 1.574 . S
C974 H968 0.949 . S
C974 C978 1.368 . S
C975 C956 1.429 . S
C975 C969 1.429 . S
C975 C976 1.523 . S
C976 C957 1.368 . S
C976 C970 1.368 . S
C976 C975 1.523 . S
C977 C961 1.429 . S
C977 C973 1.429 . S
C977 C978 1.523 . S
C978 C962 1.368 . S
C978 C974 1.368 . S
C978 C977 1.523 . S
H979 C954 0.950 . S
H980 C956 0.950 . S
H981 C957 0.949 . S
H982 C959 0.950 1_556 S
H983 C961 0.950 . S
C984 C985 1.349 . S
C984 C986 1.327 . S
C984 H1009 0.950 . S
C985 C984 1.349 . S
C985 C1001 1.349 . S
C986 C984 1.327 . S
C986 C1005 1.429 . S
C986 H1010 0.950 . S
C987 C1004 1.574 . S
C987 C1006 1.368 . S
C987 H1011 0.949 . S
H988 C992 0.949 . S
C989 C990 1.349 . S
C989 C991 1.327 . S
C989 H1012 0.950 . S
C990 C989 1.349 . S
C990 C1002 1.349 . S
C991 C989 1.327 . S
C991 C1007 1.429 . S
C991 H1013 0.950 . S
C992 H988 0.949 . S
C992 C1000 1.574 . S
C992 C1008 1.368 . S
H993 C1001 0.950 . S
H994 C999 0.950 . S
H995 C1000 0.949 . S
H996 C1002 0.950 1_556 S
H997 C1003 0.950 . S
H998 C1004 0.949 . S
C999 H994 0.950 . S
C999 C1001 1.327 . S
C999 C1005 1.429 . S
C1000 C992 1.574 . S
C1000 H995 0.949 . S
C1000 C1006 1.368 . S
C1001 C985 1.349 . S
C1001 H993 0.950 . S
C1001 C999 1.327 . S
C1002 C990 1.349 . S
C1002 H996 0.950 1_554 S
C1002 C1003 1.327 . S
C1003 H997 0.950 . S
C1003 C1002 1.327 . S
C1003 C1007 1.429 . S
C1004 C987 1.574 . S
C1004 H998 0.949 . S
C1004 C1008 1.368 . S
C1005 C986 1.429 . S
C1005 C999 1.429 . S
C1005 C1006 1.523 . S
C1006 C987 1.368 . S
C1006 C1000 1.368 . S
C1006 C1005 1.523 . S
C1007 C991 1.429 . S
C1007 C1003 1.429 . S
C1007 C1008 1.523 . S
C1008 C992 1.368 . S
C1008 C1004 1.368 . S
C1008 C1007 1.523 . S
H1009 C984 0.950 . S
H1010 C986 0.950 . S
H1011 C987 0.949 . S
H1012 C989 0.950 . S
H1013 C991 0.950 . S
C1014 C1015 1.349 . S
C1014 C1016 1.327 . S
C1014 H1039 0.950 . S
C1015 C1014 1.349 . S
C1015 C1031 1.349 . S
C1016 C1014 1.327 . S
C1016 C1035 1.429 . S
C1016 H1040 0.950 . S
C1017 C1034 1.574 . S
C1017 C1036 1.368 . S
C1017 H1041 0.949 . S
H1018 C1022 0.949 . S
C1019 C1020 1.349 . S
C1019 C1021 1.327 . S
C1019 H1042 0.950 . S
C1020 C1019 1.349 . S
C1020 C1032 1.349 . S
C1021 C1019 1.327 . S
C1021 C1037 1.429 . S
C1021 H1043 0.950 . S
C1022 H1018 0.949 . S
C1022 C1030 1.574 . S
C1022 C1038 1.368 . S
H1023 C1031 0.950 . S
H1024 C1029 0.950 . S
H1025 C1030 0.949 . S
H1026 C1032 0.950 1_556 S
H1027 C1033 0.950 . S
H1028 C1034 0.949 . S
C1029 H1024 0.950 . S
C1029 C1031 1.327 . S
C1029 C1035 1.429 . S
C1030 C1022 1.574 . S
C1030 H1025 0.949 . S
C1030 C1036 1.368 . S
C1031 C1015 1.349 . S
C1031 H1023 0.950 . S
C1031 C1029 1.327 . S
C1032 C1020 1.349 . S
C1032 H1026 0.950 1_554 S
C1032 C1033 1.327 . S
C1033 H1027 0.950 . S
C1033 C1032 1.327 . S
C1033 C1037 1.429 . S
C1034 C1017 1.574 . S
C1034 H1028 0.949 . S
C1034 C1038 1.368 . S
C1035 C1016 1.429 . S
C1035 C1029 1.429 . S
C1035 C1036 1.523 . S
C1036 C1017 1.368 . S
C1036 C1030 1.368 . S
C1036 C1035 1.523 . S
C1037 C1021 1.429 . S
C1037 C1033 1.429 . S
C1037 C1038 1.523 . S
C1038 C1022 1.368 . S
C1038 C1034 1.368 . S
C1038 C1037 1.523 . S
H1039 C1014 0.950 . S
H1040 C1016 0.950 . S
H1041 C1017 0.949 . S
H1042 C1019 0.950 . S
H1043 C1021 0.950 . S
C1044 C1045 1.349 . S
C1044 C1046 1.327 . S
C1044 H1069 0.950 . S
C1045 C1044 1.349 . S
C1045 C1061 1.349 . S
C1046 C1044 1.327 . S
C1046 C1065 1.429 . S
C1046 H1070 0.950 . S
C1047 C1064 1.623 1_556 S
C1047 C1066 1.368 . S
C1047 H1071 0.949 . S
H1048 C1052 0.949 . S
C1049 C1050 1.349 . S
C1049 C1051 1.327 . S
C1049 H1072 0.950 . S
C1050 C1049 1.349 . S
C1050 C1062 1.349 . S
C1051 C1049 1.327 . S
C1051 C1067 1.429 . S
C1051 H1073 0.950 . S
C1052 H1048 0.949 . S
C1052 C1060 1.623 1_554 S
C1052 C1068 1.368 . S
H1053 C1061 0.950 . S
H1054 C1059 0.950 . S
H1055 C1060 0.986 . S
H1056 C1062 0.950 . S
H1057 C1063 0.950 . S
H1058 C1064 0.987 . S
C1059 H1054 0.950 . S
C1059 C1061 1.327 . S
C1059 C1065 1.429 . S
C1060 C1052 1.623 1_556 S
C1060 H1055 0.986 . S
C1060 C1066 1.284 1_545 S
C1061 C1045 1.349 . S
C1061 H1053 0.950 . S
C1061 C1059 1.327 . S
C1062 C1050 1.349 . S
C1062 H1056 0.950 . S
C1062 C1063 1.327 . S
C1063 H1057 0.950 . S
C1063 C1062 1.327 . S
C1063 C1067 1.429 . S
C1064 C1047 1.623 1_554 S
C1064 H1058 0.987 . S
C1064 C1068 1.284 1_565 S
C1065 C1046 1.429 . S
C1065 C1059 1.429 . S
C1065 C1066 1.523 . S
C1066 C1047 1.368 . S
C1066 C1060 1.284 1_565 S
C1066 C1065 1.523 . S
C1067 C1051 1.429 . S
C1067 C1063 1.429 . S
C1067 C1068 1.523 . S
C1068 C1052 1.368 . S
C1068 C1064 1.284 1_545 S
C1068 C1067 1.523 . S
H1069 C1044 0.950 . S
H1070 C1046 0.950 . S
H1071 C1047 0.949 . S
H1072 C1049 0.950 . S
H1073 C1051 0.950 . S
C1074 C1075 1.349 . S
C1074 C1076 1.327 . S
C1074 H1099 0.950 . S
C1075 C1074 1.349 . S
C1075 C1091 1.349 . S
C1076 C1074 1.327 . S
C1076 C1095 1.429 . S
C1076 H1100 0.950 . S
C1077 C1094 1.574 1_654 S
C1077 C1096 1.368 . S
C1077 H1101 0.949 . S
H1078 C1082 0.949 . S
C1079 C1080 1.349 . S
C1079 C1081 1.327 . S
C1079 H1102 0.950 . S
C1080 C1079 1.349 . S
C1080 C1092 1.349 . S
C1081 C1079 1.327 . S
C1081 C1097 1.429 . S
C1081 H1103 0.950 . S
C1082 H1078 0.949 . S
C1082 C1090 1.574 1_456 S
C1082 C1098 1.368 . S
H1083 C1091 0.950 . S
H1084 C1089 0.950 . S
H1085 C1090 0.949 . S
H1086 C1092 0.950 . S
H1087 C1093 0.950 . S
H1088 C1094 0.949 . S
C1089 H1084 0.950 . S
C1089 C1091 1.327 . S
C1089 C1095 1.429 . S
C1090 C1082 1.574 1_654 S
C1090 H1085 0.949 . S
C1090 C1096 1.368 . S
C1091 C1075 1.349 . S
C1091 H1083 0.950 . S
C1091 C1089 1.327 . S
C1092 C1080 1.349 . S
C1092 H1086 0.950 . S
C1092 C1093 1.327 . S
C1093 H1087 0.950 . S
C1093 C1092 1.327 . S
C1093 C1097 1.429 . S
C1094 C1077 1.574 1_456 S
C1094 H1088 0.949 . S
C1094 C1098 1.368 . S
C1095 C1076 1.429 . S
C1095 C1089 1.429 . S
C1095 C1096 1.523 . S
C1096 C1077 1.368 . S
C1096 C1090 1.368 . S
C1096 C1095 1.523 . S
C1097 C1081 1.429 . S
C1097 C1093 1.429 . S
C1097 C1098 1.523 . S
C1098 C1082 1.368 . S
C1098 C1094 1.368 . S
C1098 C1097 1.523 . S
H1099 C1074 0.950 . S
H1100 C1076 0.950 . S
H1101 C1077 0.949 . S
H1102 C1079 0.950 . S
H1103 C1081 0.950 . S
C1104 C1105 1.349 . S
C1104 C1106 1.327 . S
C1104 H1129 0.950 . S
C1105 C1104 1.349 . S
C1105 C1121 1.349 . S
C1106 C1104 1.327 . S
C1106 C1125 1.429 . S
C1106 H1130 0.950 . S
C1107 C1124 1.589 . S
C1107 C1126 1.353 1_554 S
C1107 H1131 0.949 . S
H1108 C1112 0.949 . S
C1109 C1110 1.349 . S
C1109 C1111 1.327 . S
C1109 H1132 0.950 . S
C1110 C1109 1.349 . S
C1110 C1122 1.349 . S
C1111 C1109 1.327 . S
C1111 C1127 1.429 . S
C1111 H1133 0.950 . S
C1112 H1108 0.949 . S
C1112 C1120 1.589 . S
C1112 C1128 1.353 1_556 S
H1113 C1121 0.950 . S
H1114 C1119 0.950 . S
H1115 C1120 0.949 . S
H1116 C1122 0.950 . S
H1117 C1123 0.950 . S
H1118 C1124 0.949 . S
C1119 H1114 0.950 . S
C1119 C1121 1.327 . S
C1119 C1125 1.429 . S
C1120 C1112 1.589 . S
C1120 H1115 0.949 . S
C1120 C1126 1.368 . S
C1121 C1105 1.349 . S
C1121 H1113 0.950 . S
C1121 C1119 1.327 . S
C1122 C1110 1.349 . S
C1122 H1116 0.950 . S
C1122 C1123 1.327 . S
C1123 H1117 0.950 . S
C1123 C1122 1.327 . S
C1123 C1127 1.429 . S
C1124 C1107 1.589 . S
C1124 H1118 0.949 . S
C1124 C1128 1.368 . S
C1125 C1106 1.429 . S
C1125 C1119 1.429 . S
C1125 C1126 1.523 . S
C1126 C1107 1.353 1_556 S
C1126 C1120 1.368 . S
C1126 C1125 1.523 . S
C1127 C1111 1.429 . S
C1127 C1123 1.429 . S
C1127 C1128 1.523 . S
C1128 C1112 1.353 1_554 S
C1128 C1124 1.368 . S
C1128 C1127 1.523 . S
H1129 C1104 0.950 . S
H1130 C1106 0.950 . S
H1131 C1107 0.949 . S
H1132 C1109 0.950 . S
H1133 C1111 0.950 . S
C1134 C1135 1.349 . S
C1134 C1136 1.327 . S
C1134 H1159 0.950 . S
C1135 C1134 1.349 . S
C1135 C1151 1.349 . S
C1136 C1134 1.327 . S
C1136 C1155 1.429 . S
C1136 H1160 0.950 . S
C1137 C1154 1.574 . S
C1137 C1156 1.368 1_554 S
C1137 H1161 0.949 . S
H1138 C1142 0.949 . S
C1139 C1140 1.349 . S
C1139 C1141 1.327 . S
C1139 H1162 0.950 . S
C1140 C1139 1.349 . S
C1140 C1152 1.349 . S
C1141 C1139 1.327 . S
C1141 C1157 1.429 . S
C1141 H1163 0.950 . S
C1142 H1138 0.949 . S
C1142 C1150 1.574 . S
C1142 C1158 1.368 1_556 S
H1143 C1151 0.950 . S
H1144 C1149 0.950 . S
H1145 C1150 0.949 . S
H1146 C1152 0.950 . S
H1147 C1153 0.950 . S
H1148 C1154 0.949 . S
C1149 H1144 0.950 . S
C1149 C1151 1.327 . S
C1149 C1155 1.429 . S
C1150 C1142 1.574 . S
C1150 H1145 0.949 . S
C1150 C1156 1.368 1_545 S
C1151 C1135 1.349 . S
C1151 H1143 0.950 . S
C1151 C1149 1.327 . S
C1152 C1140 1.349 . S
C1152 H1146 0.950 . S
C1152 C1153 1.327 . S
C1153 H1147 0.950 . S
C1153 C1152 1.327 . S
C1153 C1157 1.429 . S
C1154 C1137 1.574 . S
C1154 H1148 0.949 . S
C1154 C1158 1.368 1_565 S
C1155 C1136 1.429 . S
C1155 C1149 1.429 . S
C1155 C1156 1.523 . S
C1156 C1137 1.368 1_556 S
C1156 C1150 1.368 1_565 S
C1156 C1155 1.523 . S
C1157 C1141 1.429 . S
C1157 C1153 1.429 . S
C1157 C1158 1.523 . S
C1158 C1142 1.368 1_554 S
C1158 C1154 1.368 1_545 S
C1158 C1157 1.523 . S
H1159 C1134 0.950 . S
H1160 C1136 0.950 . S
H1161 C1137 0.949 . S
H1162 C1139 0.950 . S
H1163 C1141 0.950 . S
C1164 C1165 1.349 . S
C1164 C1166 1.327 . S
C1164 H1189 0.950 . S
C1165 C1164 1.349 . S
C1165 C1181 1.349 . S
C1166 C1164 1.327 . S
C1166 C1185 1.429 . S
C1166 H1190 0.950 . S
C1167 C1184 1.629 1_556 S
C1167 C1186 1.368 . S
C1167 H1191 0.949 . S
H1168 C1172 0.949 . S
C1169 C1170 1.349 . S
C1169 C1171 1.327 . S
C1169 H1192 0.950 . S
C1170 C1169 1.349 . S
C1170 C1182 1.349 . S
C1171 C1169 1.327 . S
C1171 C1187 1.429 . S
C1171 H1193 0.950 . S
C1172 H1168 0.949 . S
C1172 C1180 1.629 1_554 S
C1172 C1188 1.368 . S
H1173 C1181 0.950 . S
H1174 C1179 0.950 . S
H1175 C1180 0.924 . S
H1176 C1182 0.950 . S
H1177 C1183 0.950 . S
H1178 C1184 0.924 . S
C1179 H1174 0.950 . S
C1179 C1181 1.327 . S
C1179 C1185 1.429 . S
C1180 C1172 1.629 1_556 S
C1180 H1175 0.924 . S
C1180 C1186 1.353 1_655 S
C1181 C1165 1.349 . S
C1181 H1173 0.950 . S
C1181 C1179 1.327 . S
C1182 C1170 1.349 . S
C1182 H1176 0.950 . S
C1182 C1183 1.327 . S
C1183 H1177 0.950 . S
C1183 C1182 1.327 . S
C1183 C1187 1.429 . S
C1184 C1167 1.629 1_554 S
C1184 H1178 0.924 . S
C1184 C1188 1.352 1_455 S
C1185 C1166 1.429 . S
C1185 C1179 1.429 . S
C1185 C1186 1.523 . S
C1186 C1167 1.368 . S
C1186 C1180 1.353 1_455 S
C1186 C1185 1.523 . S
C1187 C1171 1.429 . S
C1187 C1183 1.429 . S
C1187 C1188 1.523 . S
C1188 C1172 1.368 . S
C1188 C1184 1.352 1_655 S
C1188 C1187 1.523 . S
H1189 C1164 0.950 . S
H1190 C1166 0.950 . S
H1191 C1167 0.949 . S
H1192 C1169 0.950 . S
H1193 C1171 0.950 . S
C1194 C1195 1.349 . S
C1194 C1196 1.327 . S
C1194 H1219 0.950 . S
C1195 C1194 1.349 . S
C1195 C1211 1.349 . S
C1196 C1194 1.327 . S
C1196 C1215 1.429 . S
C1196 H1220 0.950 . S
C1197 C1214 1.574 1_554 S
C1197 C1216 1.368 . S
C1197 H1221 0.949 . S
H1198 C1202 0.949 . S
C1199 C1200 1.349 . S
C1199 C1201 1.327 . S
C1199 H1222 0.950 . S
C1200 C1199 1.349 . S
C1200 C1212 1.349 . S
C1201 C1199 1.327 . S
C1201 C1217 1.429 . S
C1201 H1223 0.950 . S
C1202 H1198 0.949 . S
C1202 C1210 1.574 1_556 S
C1202 C1218 1.368 . S
H1203 C1211 0.950 . S
H1204 C1209 0.950 . S
H1205 C1210 0.949 . S
H1206 C1212 0.950 . S
H1207 C1213 0.950 . S
H1208 C1214 0.949 . S
C1209 H1204 0.950 . S
C1209 C1211 1.327 . S
C1209 C1215 1.429 . S
C1210 C1202 1.574 1_554 S
C1210 H1205 0.949 . S
C1210 C1216 1.368 . S
C1211 C1195 1.349 . S
C1211 H1203 0.950 . S
C1211 C1209 1.327 . S
C1212 C1200 1.349 . S
C1212 H1206 0.950 . S
C1212 C1213 1.327 . S
C1213 H1207 0.950 . S
C1213 C1212 1.327 . S
C1213 C1217 1.429 . S
C1214 C1197 1.574 1_556 S
C1214 H1208 0.949 . S
C1214 C1218 1.368 . S
C1215 C1196 1.429 . S
C1215 C1209 1.429 . S
C1215 C1216 1.523 . S
C1216 C1197 1.368 . S
C1216 C1210 1.368 . S
C1216 C1215 1.523 . S
C1217 C1201 1.429 . S
C1217 C1213 1.429 . S
C1217 C1218 1.523 . S
C1218 C1202 1.368 . S
C1218 C1214 1.368 . S
C1218 C1217 1.523 . S
H1219 C1194 0.950 . S
H1220 C1196 0.950 . S
H1221 C1197 0.949 . S
H1222 C1199 0.950 . S
H1223 C1201 0.950 . S
C1224 C1225 1.349 . S
C1224 C1226 1.327 . S
C1224 H1249 0.950 . S
C1225 C1224 1.349 . S
C1225 C1241 1.349 . S
C1226 C1224 1.327 . S
C1226 C1245 1.429 . S
C1226 H1250 0.950 . S
C1227 C1244 1.574 . S
C1227 C1246 1.368 . S
C1227 H1251 0.949 . S
H1228 C1232 0.949 . S
C1229 C1230 1.349 . S
C1229 C1231 1.327 . S
C1229 H1252 0.950 . S
C1230 C1229 1.349 . S
C1230 C1242 1.349 . S
C1231 C1229 1.327 . S
C1231 C1247 1.429 . S
C1231 H1253 0.950 . S
C1232 H1228 0.949 . S
C1232 C1240 1.574 . S
C1232 C1248 1.368 . S
H1233 C1241 0.950 . S
H1234 C1239 0.950 . S
H1235 C1240 0.949 . S
H1236 C1242 0.950 . S
H1237 C1243 0.950 . S
H1238 C1244 0.949 . S
C1239 H1234 0.950 . S
C1239 C1241 1.327 . S
C1239 C1245 1.429 . S
C1240 C1232 1.574 . S
C1240 H1235 0.949 . S
C1240 C1246 1.368 . S
C1241 C1225 1.349 . S
C1241 H1233 0.950 . S
C1241 C1239 1.327 . S
C1242 C1230 1.349 . S
C1242 H1236 0.950 . S
C1242 C1243 1.327 . S
C1243 H1237 0.950 . S
C1243 C1242 1.327 . S
C1243 C1247 1.429 . S
C1244 C1227 1.574 . S
C1244 H1238 0.949 . S
C1244 C1248 1.368 . S
C1245 C1226 1.429 . S
C1245 C1239 1.429 . S
C1245 C1246 1.523 . S
C1246 C1227 1.368 . S
C1246 C1240 1.368 . S
C1246 C1245 1.523 . S
C1247 C1231 1.429 . S
C1247 C1243 1.429 . S
C1247 C1248 1.523 . S
C1248 C1232 1.368 . S
C1248 C1244 1.368 . S
C1248 C1247 1.523 . S
H1249 C1224 0.950 . S
H1250 C1226 0.950 . S
H1251 C1227 0.949 . S
H1252 C1229 0.950 . S
H1253 C1231 0.950 . S
C1254 C1255 1.349 . S
C1254 C1256 1.327 . S
C1254 H1279 0.950 . S
C1255 C1254 1.349 . S
C1255 C1271 1.349 . S
C1256 C1254 1.327 . S
C1256 C1275 1.429 . S
C1256 H1280 0.950 . S
C1257 C1274 1.574 . S
C1257 C1276 1.368 . S
C1257 H1281 0.949 . S
H1258 C1262 0.949 . S
C1259 C1260 1.349 . S
C1259 C1261 1.327 . S
C1259 H1282 0.950 . S
C1260 C1259 1.349 . S
C1260 C1272 1.349 . S
C1261 C1259 1.327 . S
C1261 C1277 1.429 . S
C1261 H1283 0.950 . S
C1262 H1258 0.949 . S
C1262 C1270 1.574 . S
C1262 C1278 1.368 . S
H1263 C1271 0.950 . S
H1264 C1269 0.950 . S
H1265 C1270 0.949 . S
H1266 C1272 0.950 . S
H1267 C1273 0.950 . S
H1268 C1274 0.949 . S
C1269 H1264 0.950 . S
C1269 C1271 1.327 . S
C1269 C1275 1.429 . S
C1270 C1262 1.574 . S
C1270 H1265 0.949 . S
C1270 C1276 1.368 . S
C1271 C1255 1.349 . S
C1271 H1263 0.950 . S
C1271 C1269 1.327 . S
C1272 C1260 1.349 . S
C1272 H1266 0.950 . S
C1272 C1273 1.327 . S
C1273 H1267 0.950 . S
C1273 C1272 1.327 . S
C1273 C1277 1.429 . S
C1274 C1257 1.574 . S
C1274 H1268 0.949 . S
C1274 C1278 1.368 . S
C1275 C1256 1.429 . S
C1275 C1269 1.429 . S
C1275 C1276 1.523 . S
C1276 C1257 1.368 . S
C1276 C1270 1.368 . S
C1276 C1275 1.523 . S
C1277 C1261 1.429 . S
C1277 C1273 1.429 . S
C1277 C1278 1.523 . S
C1278 C1262 1.368 . S
C1278 C1274 1.368 . S
C1278 C1277 1.523 . S
H1279 C1254 0.950 . S
H1280 C1256 0.950 . S
H1281 C1257 0.949 . S
H1282 C1259 0.950 . S
H1283 C1261 0.950 . S
C1284 C1285 1.349 . S
C1284 C1286 1.327 . S
C1284 H1309 0.950 . S
C1285 C1284 1.349 . S
C1285 C1301 1.349 . S
C1286 C1284 1.327 . S
C1286 C1305 1.429 . S
C1286 H1310 0.950 . S
C1287 C1304 1.574 . S
C1287 C1306 1.368 . S
C1287 H1311 0.949 . S
H1288 C1292 0.949 . S
C1289 C1290 1.349 . S
C1289 C1291 1.327 . S
C1289 H1312 0.950 . S
C1290 C1289 1.349 . S
C1290 C1302 1.349 . S
C1291 C1289 1.327 . S
C1291 C1307 1.429 . S
C1291 H1313 0.950 . S
C1292 H1288 0.949 . S
C1292 C1300 1.574 . S
C1292 C1308 1.368 . S
H1293 C1301 0.950 . S
H1294 C1299 0.950 . S
H1295 C1300 0.949 . S
H1296 C1302 0.950 . S
H1297 C1303 0.950 . S
H1298 C1304 0.949 . S
C1299 H1294 0.950 . S
C1299 C1301 1.327 . S
C1299 C1305 1.429 . S
C1300 C1292 1.574 . S
C1300 H1295 0.949 . S
C1300 C1306 1.368 . S
C1301 C1285 1.349 . S
C1301 H1293 0.950 . S
C1301 C1299 1.327 . S
C1302 C1290 1.349 . S
C1302 H1296 0.950 . S
C1302 C1303 1.327 . S
C1303 H1297 0.950 . S
C1303 C1302 1.327 . S
C1303 C1307 1.429 . S
C1304 C1287 1.574 . S
C1304 H1298 0.949 . S
C1304 C1308 1.368 . S
C1305 C1286 1.429 . S
C1305 C1299 1.429 . S
C1305 C1306 1.523 . S
C1306 C1287 1.368 . S
C1306 C1300 1.368 . S
C1306 C1305 1.523 . S
C1307 C1291 1.429 . S
C1307 C1303 1.429 . S
C1307 C1308 1.523 . S
C1308 C1292 1.368 . S
C1308 C1304 1.368 . S
C1308 C1307 1.523 . S
H1309 C1284 0.950 . S
H1310 C1286 0.950 . S
H1311 C1287 0.949 . S
H1312 C1289 0.950 . S
H1313 C1291 0.950 . S
C1314 C1315 1.349 . S
C1314 C1316 1.327 . S
C1314 H1339 0.950 . S
C1315 C1314 1.349 . S
C1315 C1331 1.349 . S
C1316 C1314 1.327 . S
C1316 C1335 1.429 . S
C1316 H1340 0.950 . S
C1317 C1334 1.574 . S
C1317 C1336 1.368 . S
C1317 H1341 0.949 . S
H1318 C1322 0.949 . S
C1319 C1320 1.349 . S
C1319 C1321 1.327 . S
C1319 H1342 0.950 . S
C1320 C1319 1.349 . S
C1320 C1332 1.349 . S
C1321 C1319 1.327 . S
C1321 C1337 1.429 . S
C1321 H1343 0.950 . S
C1322 H1318 0.949 . S
C1322 C1330 1.574 . S
C1322 C1338 1.368 . S
H1323 C1331 0.950 . S
H1324 C1329 0.950 . S
H1325 C1330 0.949 . S
H1326 C1332 0.950 . S
H1327 C1333 0.950 . S
H1328 C1334 0.949 . S
C1329 H1324 0.950 . S
C1329 C1331 1.327 . S
C1329 C1335 1.429 . S
C1330 C1322 1.574 . S
C1330 H1325 0.949 . S
C1330 C1336 1.368 . S
C1331 C1315 1.349 . S
C1331 H1323 0.950 . S
C1331 C1329 1.327 . S
C1332 C1320 1.349 . S
C1332 H1326 0.950 . S
C1332 C1333 1.327 . S
C1333 H1327 0.950 . S
C1333 C1332 1.327 . S
C1333 C1337 1.429 . S
C1334 C1317 1.574 . S
C1334 H1328 0.949 . S
C1334 C1338 1.368 . S
C1335 C1316 1.429 . S
C1335 C1329 1.429 . S
C1335 C1336 1.523 . S
C1336 C1317 1.368 . S
C1336 C1330 1.368 . S
C1336 C1335 1.523 . S
C1337 C1321 1.429 . S
C1337 C1333 1.429 . S
C1337 C1338 1.523 . S
C1338 C1322 1.368 . S
C1338 C1334 1.368 . S
C1338 C1337 1.523 . S
H1339 C1314 0.950 . S
H1340 C1316 0.950 . S
H1341 C1317 0.949 . S
H1342 C1319 0.950 . S
H1343 C1321 0.950 . S
C1344 C1345 1.349 . S
C1344 C1346 1.327 . S
C1344 H1369 0.950 . S
C1345 C1344 1.349 . S
C1345 C1361 1.349 . S
C1346 C1344 1.327 . S
C1346 C1365 1.429 . S
C1346 H1370 0.950 . S
C1347 C1364 1.574 . S
C1347 C1366 1.368 . S
C1347 H1371 0.949 . S
H1348 C1352 0.949 . S
C1349 C1350 1.349 . S
C1349 C1351 1.327 . S
C1349 H1372 0.950 . S
C1350 C1349 1.349 . S
C1350 C1362 1.349 . S
C1351 C1349 1.327 . S
C1351 C1367 1.429 . S
C1351 H1373 0.950 . S
C1352 H1348 0.949 . S
C1352 C1360 1.574 . S
C1352 C1368 1.368 . S
H1353 C1361 0.950 . S
H1354 C1359 0.950 . S
H1355 C1360 0.949 . S
H1356 C1362 0.950 . S
H1357 C1363 0.950 . S
H1358 C1364 0.949 . S
C1359 H1354 0.950 . S
C1359 C1361 1.327 . S
C1359 C1365 1.429 . S
C1360 C1352 1.574 . S
C1360 H1355 0.949 . S
C1360 C1366 1.368 . S
C1361 C1345 1.349 . S
C1361 H1353 0.950 . S
C1361 C1359 1.327 . S
C1362 C1350 1.349 . S
C1362 H1356 0.950 . S
C1362 C1363 1.327 . S
C1363 H1357 0.950 . S
C1363 C1362 1.327 . S
C1363 C1367 1.429 . S
C1364 C1347 1.574 . S
C1364 H1358 0.949 . S
C1364 C1368 1.368 . S
C1365 C1346 1.429 . S
C1365 C1359 1.429 . S
C1365 C1366 1.523 . S
C1366 C1347 1.368 . S
C1366 C1360 1.368 . S
C1366 C1365 1.523 . S
C1367 C1351 1.429 . S
C1367 C1363 1.429 . S
C1367 C1368 1.523 . S
C1368 C1352 1.368 . S
C1368 C1364 1.368 . S
C1368 C1367 1.523 . S
H1369 C1344 0.950 . S
H1370 C1346 0.950 . S
H1371 C1347 0.949 . S
H1372 C1349 0.950 . S
H1373 C1351 0.950 . S
C1374 C1375 1.349 . S
C1374 C1376 1.327 . S
C1374 H1399 0.950 . S
C1375 C1374 1.349 . S
C1375 C1391 1.349 . S
C1376 C1374 1.327 . S
C1376 C1395 1.429 . S
C1376 H1400 0.950 . S
C1377 C1394 1.574 . S
C1377 C1396 1.368 . S
C1377 H1401 0.949 . S
H1378 C1382 0.949 . S
C1379 C1380 1.349 . S
C1379 C1381 1.327 . S
C1379 H1402 0.950 . S
C1380 C1379 1.349 . S
C1380 C1392 1.349 . S
C1381 C1379 1.327 . S
C1381 C1397 1.429 . S
C1381 H1403 0.950 . S
C1382 H1378 0.949 . S
C1382 C1390 1.574 . S
C1382 C1398 1.368 . S
H1383 C1391 0.950 . S
H1384 C1389 0.950 . S
H1385 C1390 0.949 . S
H1386 C1392 0.950 . S
H1387 C1393 0.950 . S
H1388 C1394 0.949 . S
C1389 H1384 0.950 . S
C1389 C1391 1.327 . S
C1389 C1395 1.429 . S
C1390 C1382 1.574 . S
C1390 H1385 0.949 . S
C1390 C1396 1.368 . S
C1391 C1375 1.349 . S
C1391 H1383 0.950 . S
C1391 C1389 1.327 . S
C1392 C1380 1.349 . S
C1392 H1386 0.950 . S
C1392 C1393 1.327 . S
C1393 H1387 0.950 . S
C1393 C1392 1.327 . S
C1393 C1397 1.429 . S
C1394 C1377 1.574 . S
C1394 H1388 0.949 . S
C1394 C1398 1.368 . S
C1395 C1376 1.429 . S
C1395 C1389 1.429 . S
C1395 C1396 1.523 . S
C1396 C1377 1.368 . S
C1396 C1390 1.368 . S
C1396 C1395 1.523 . S
C1397 C1381 1.429 . S
C1397 C1393 1.429 . S
C1397 C1398 1.523 . S
C1398 C1382 1.368 . S
C1398 C1394 1.368 . S
C1398 C1397 1.523 . S
H1399 C1374 0.950 . S
H1400 C1376 0.950 . S
H1401 C1377 0.949 . S
H1402 C1379 0.950 . S
H1403 C1381 0.950 . S
C1404 C1405 1.349 . S
C1404 C1406 1.327 . S
C1404 H1429 0.950 . S
C1405 C1404 1.349 . S
C1405 C1421 1.349 . S
C1406 C1404 1.327 . S
C1406 C1425 1.429 . S
C1406 H1430 0.950 . S
C1407 C1424 1.574 . S
C1407 C1426 1.368 . S
C1407 H1431 0.949 . S
H1408 C1412 0.949 . S
C1409 C1410 1.349 . S
C1409 C1411 1.327 . S
C1409 H1432 0.950 . S
C1410 C1409 1.349 . S
C1410 C1422 1.349 . S
C1411 C1409 1.327 . S
C1411 C1427 1.429 . S
C1411 H1433 0.950 . S
C1412 H1408 0.949 . S
C1412 C1420 1.574 . S
C1412 C1428 1.368 . S
H1413 C1421 0.950 . S
H1414 C1419 0.950 . S
H1415 C1420 0.949 . S
H1416 C1422 0.950 . S
H1417 C1423 0.950 . S
H1418 C1424 0.949 . S
C1419 H1414 0.950 . S
C1419 C1421 1.327 . S
C1419 C1425 1.429 . S
C1420 C1412 1.574 . S
C1420 H1415 0.949 . S
C1420 C1426 1.368 . S
C1421 C1405 1.349 . S
C1421 H1413 0.950 . S
C1421 C1419 1.327 . S
C1422 C1410 1.349 . S
C1422 H1416 0.950 . S
C1422 C1423 1.327 . S
C1423 H1417 0.950 . S
C1423 C1422 1.327 . S
C1423 C1427 1.429 . S
C1424 C1407 1.574 . S
C1424 H1418 0.949 . S
C1424 C1428 1.368 . S
C1425 C1406 1.429 . S
C1425 C1419 1.429 . S
C1425 C1426 1.523 . S
C1426 C1407 1.368 . S
C1426 C1420 1.368 . S
C1426 C1425 1.523 . S
C1427 C1411 1.429 . S
C1427 C1423 1.429 . S
C1427 C1428 1.523 . S
C1428 C1412 1.368 . S
C1428 C1424 1.368 . S
C1428 C1427 1.523 . S
H1429 C1404 0.950 . S
H1430 C1406 0.950 . S
H1431 C1407 0.949 . S
H1432 C1409 0.950 . S
H1433 C1411 0.950 . S
C1434 C1435 1.349 . S
C1434 C1436 1.327 . S
C1434 H1459 0.950 . S
C1435 C1434 1.349 . S
C1435 C1451 1.349 . S
C1436 C1434 1.327 . S
C1436 C1455 1.429 . S
C1436 H1460 0.950 . S
C1437 C1454 1.574 . S
C1437 C1456 1.368 . S
C1437 H1461 0.949 . S
H1438 C1442 0.949 . S
C1439 C1440 1.349 . S
C1439 C1441 1.327 . S
C1439 H1462 0.950 . S
C1440 C1439 1.349 . S
C1440 C1452 1.349 . S
C1441 C1439 1.327 . S
C1441 C1457 1.429 . S
C1441 H1463 0.950 . S
C1442 H1438 0.949 . S
C1442 C1450 1.574 . S
C1442 C1458 1.368 . S
H1443 C1451 0.950 . S
H1444 C1449 0.950 . S
H1445 C1450 0.949 . S
H1446 C1452 0.950 . S
H1447 C1453 0.950 . S
H1448 C1454 0.949 . S
C1449 H1444 0.950 . S
C1449 C1451 1.327 . S
C1449 C1455 1.429 . S
C1450 C1442 1.574 . S
C1450 H1445 0.949 . S
C1450 C1456 1.368 . S
C1451 C1435 1.349 . S
C1451 H1443 0.950 . S
C1451 C1449 1.327 . S
C1452 C1440 1.349 . S
C1452 H1446 0.950 . S
C1452 C1453 1.327 . S
C1453 H1447 0.950 . S
C1453 C1452 1.327 . S
C1453 C1457 1.429 . S
C1454 C1437 1.574 . S
C1454 H1448 0.949 . S
C1454 C1458 1.368 . S
C1455 C1436 1.429 . S
C1455 C1449 1.429 . S
C1455 C1456 1.523 . S
C1456 C1437 1.368 . S
C1456 C1450 1.368 . S
C1456 C1455 1.523 . S
C1457 C1441 1.429 . S
C1457 C1453 1.429 . S
C1457 C1458 1.523 . S
C1458 C1442 1.368 . S
C1458 C1454 1.368 . S
C1458 C1457 1.523 . S
H1459 C1434 0.950 . S
H1460 C1436 0.950 . S
H1461 C1437 0.949 . S
H1462 C1439 0.950 . S
H1463 C1441 0.950 . S
C1464 C1465 1.349 . S
C1464 C1466 1.327 . S
C1464 H1489 0.950 . S
C1465 C1464 1.349 . S
C1465 C1481 1.349 . S
C1466 C1464 1.327 . S
C1466 C1485 1.429 . S
C1466 H1490 0.950 . S
C1467 C1484 1.574 . S
C1467 C1486 1.368 . S
C1467 H1491 0.949 . S
H1468 C1472 0.949 . S
C1469 C1470 1.349 . S
C1469 C1471 1.327 . S
C1469 H1492 0.950 . S
C1470 C1469 1.349 . S
C1470 C1482 1.349 . S
C1471 C1469 1.327 . S
C1471 C1487 1.429 . S
C1471 H1493 0.950 . S
C1472 H1468 0.949 . S
C1472 C1480 1.574 . S
C1472 C1488 1.368 . S
H1473 C1481 0.950 . S
H1474 C1479 0.950 . S
H1475 C1480 0.949 . S
H1476 C1482 0.950 . S
H1477 C1483 0.950 . S
H1478 C1484 0.949 . S
C1479 H1474 0.950 . S
C1479 C1481 1.327 . S
C1479 C1485 1.429 . S
C1480 C1472 1.574 . S
C1480 H1475 0.949 . S
C1480 C1486 1.368 . S
C1481 C1465 1.349 . S
C1481 H1473 0.950 . S
C1481 C1479 1.327 . S
C1482 C1470 1.349 . S
C1482 H1476 0.950 . S
C1482 C1483 1.327 . S
C1483 H1477 0.950 . S
C1483 C1482 1.327 . S
C1483 C1487 1.429 . S
C1484 C1467 1.574 . S
C1484 H1478 0.949 . S
C1484 C1488 1.368 . S
C1485 C1466 1.429 . S
C1485 C1479 1.429 . S
C1485 C1486 1.523 . S
C1486 C1467 1.368 . S
C1486 C1480 1.368 . S
C1486 C1485 1.523 . S
C1487 C1471 1.429 . S
C1487 C1483 1.429 . S
C1487 C1488 1.523 . S
C1488 C1472 1.368 . S
C1488 C1484 1.368 . S
C1488 C1487 1.523 . S
H1489 C1464 0.950 . S
H1490 C1466 0.950 . S
H1491 C1467 0.949 . S
H1492 C1469 0.950 . S
H1493 C1471 0.950 . S
C1494 C1495 1.349 . S
C1494 C1496 1.327 . S
C1494 H1519 0.950 . S
C1495 C1494 1.349 . S
C1495 C1511 1.349 . S
C1496 C1494 1.327 . S
C1496 C1515 1.429 . S
C1496 H1520 0.950 . S
C1497 C1514 1.574 . S
C1497 C1516 1.368 . S
C1497 H1521 0.949 . S
H1498 C1502 0.949 . S
C1499 C1500 1.349 . S
C1499 C1501 1.327 . S
C1499 H1522 0.950 . S
C1500 C1499 1.349 . S
C1500 C1512 1.349 . S
C1501 C1499 1.327 . S
C1501 C1517 1.429 . S
C1501 H1523 0.950 . S
C1502 H1498 0.949 . S
C1502 C1510 1.574 . S
C1502 C1518 1.368 . S
H1503 C1511 0.950 . S
H1504 C1509 0.950 . S
H1505 C1510 0.949 . S
H1506 C1512 0.950 . S
H1507 C1513 0.950 . S
H1508 C1514 0.949 . S
C1509 H1504 0.950 . S
C1509 C1511 1.327 . S
C1509 C1515 1.429 . S
C1510 C1502 1.574 . S
C1510 H1505 0.949 . S
C1510 C1516 1.368 . S
C1511 C1495 1.349 . S
C1511 H1503 0.950 . S
C1511 C1509 1.327 . S
C1512 C1500 1.349 . S
C1512 H1506 0.950 . S
C1512 C1513 1.327 . S
C1513 H1507 0.950 . S
C1513 C1512 1.327 . S
C1513 C1517 1.429 . S
C1514 C1497 1.574 . S
C1514 H1508 0.949 . S
C1514 C1518 1.368 . S
C1515 C1496 1.429 . S
C1515 C1509 1.429 . S
C1515 C1516 1.523 . S
C1516 C1497 1.368 . S
C1516 C1510 1.368 . S
C1516 C1515 1.523 . S
C1517 C1501 1.429 . S
C1517 C1513 1.429 . S
C1517 C1518 1.523 . S
C1518 C1502 1.368 . S
C1518 C1514 1.368 . S
C1518 C1517 1.523 . S
H1519 C1494 0.950 . S
H1520 C1496 0.950 . S
H1521 C1497 0.949 . S
H1522 C1499 0.950 . S
H1523 C1501 0.950 . S
C1524 C1525 1.349 . S
C1524 C1526 1.327 . S
C1524 H1549 0.950 . S
C1525 C1524 1.349 . S
C1525 C1541 1.349 . S
C1526 C1524 1.327 . S
C1526 C1545 1.429 . S
C1526 H1550 0.950 . S
C1527 C1544 1.574 . S
C1527 C1546 1.368 . S
C1527 H1551 0.949 . S
H1528 C1532 0.949 . S
C1529 C1530 1.349 . S
C1529 C1531 1.327 . S
C1529 H1552 0.950 . S
C1530 C1529 1.349 . S
C1530 C1542 1.349 . S
C1531 C1529 1.327 . S
C1531 C1547 1.429 . S
C1531 H1553 0.950 . S
C1532 H1528 0.949 . S
C1532 C1540 1.574 . S
C1532 C1548 1.368 . S
H1533 C1541 0.950 . S
H1534 C1539 0.950 . S
H1535 C1540 0.949 . S
H1536 C1542 0.950 . S
H1537 C1543 0.950 . S
H1538 C1544 0.949 . S
C1539 H1534 0.950 . S
C1539 C1541 1.327 . S
C1539 C1545 1.429 . S
C1540 C1532 1.574 . S
C1540 H1535 0.949 . S
C1540 C1546 1.368 . S
C1541 C1525 1.349 . S
C1541 H1533 0.950 . S
C1541 C1539 1.327 . S
C1542 C1530 1.349 . S
C1542 H1536 0.950 . S
C1542 C1543 1.327 . S
C1543 H1537 0.950 . S
C1543 C1542 1.327 . S
C1543 C1547 1.429 . S
C1544 C1527 1.574 . S
C1544 H1538 0.949 . S
C1544 C1548 1.368 . S
C1545 C1526 1.429 . S
C1545 C1539 1.429 . S
C1545 C1546 1.523 . S
C1546 C1527 1.368 . S
C1546 C1540 1.368 . S
C1546 C1545 1.523 . S
C1547 C1531 1.429 . S
C1547 C1543 1.429 . S
C1547 C1548 1.523 . S
C1548 C1532 1.368 . S
C1548 C1544 1.368 . S
C1548 C1547 1.523 . S
H1549 C1524 0.950 . S
H1550 C1526 0.950 . S
H1551 C1527 0.949 . S
H1552 C1529 0.950 . S
H1553 C1531 0.950 . S
C1554 C1555 1.349 . S
C1554 C1556 1.327 . S
C1554 H1579 0.950 . S
C1555 C1554 1.349 . S
C1555 C1571 1.349 . S
C1556 C1554 1.327 . S
C1556 C1575 1.429 . S
C1556 H1580 0.950 . S
C1557 C1574 1.574 . S
C1557 C1576 1.368 . S
C1557 H1581 0.949 . S
H1558 C1562 0.949 . S
C1559 C1560 1.349 . S
C1559 C1561 1.327 . S
C1559 H1582 0.950 . S
C1560 C1559 1.349 . S
C1560 C1572 1.349 . S
C1561 C1559 1.327 . S
C1561 C1577 1.429 . S
C1561 H1583 0.950 . S
C1562 H1558 0.949 . S
C1562 C1570 1.574 . S
C1562 C1578 1.368 . S
H1563 C1571 0.950 . S
H1564 C1569 0.950 . S
H1565 C1570 0.949 . S
H1566 C1572 0.950 . S
H1567 C1573 0.950 . S
H1568 C1574 0.949 . S
C1569 H1564 0.950 . S
C1569 C1571 1.327 . S
C1569 C1575 1.429 . S
C1570 C1562 1.574 . S
C1570 H1565 0.949 . S
C1570 C1576 1.368 . S
C1571 C1555 1.349 . S
C1571 H1563 0.950 . S
C1571 C1569 1.327 . S
C1572 C1560 1.349 . S
C1572 H1566 0.950 . S
C1572 C1573 1.327 . S
C1573 H1567 0.950 . S
C1573 C1572 1.327 . S
C1573 C1577 1.429 . S
C1574 C1557 1.574 . S
C1574 H1568 0.949 . S
C1574 C1578 1.368 . S
C1575 C1556 1.429 . S
C1575 C1569 1.429 . S
C1575 C1576 1.523 . S
C1576 C1557 1.368 . S
C1576 C1570 1.368 . S
C1576 C1575 1.523 . S
C1577 C1561 1.429 . S
C1577 C1573 1.429 . S
C1577 C1578 1.523 . S
C1578 C1562 1.368 . S
C1578 C1574 1.368 . S
C1578 C1577 1.523 . S
H1579 C1554 0.950 . S
H1580 C1556 0.950 . S
H1581 C1557 0.949 . S
H1582 C1559 0.950 . S
H1583 C1561 0.950 . S
C1584 C1585 1.349 . S
C1584 C1586 1.327 . S
C1584 H1609 0.950 . S
C1585 C1584 1.349 . S
C1585 C1601 1.349 . S
C1586 C1584 1.327 . S
C1586 C1605 1.429 . S
C1586 H1610 0.950 . S
C1587 C1604 1.574 . S
C1587 C1606 1.368 . S
C1587 H1611 0.949 . S
H1588 C1592 0.949 . S
C1589 C1590 1.349 . S
C1589 C1591 1.327 . S
C1589 H1612 0.950 . S
C1590 C1589 1.349 . S
C1590 C1602 1.349 . S
C1591 C1589 1.327 . S
C1591 C1607 1.429 . S
C1591 H1613 0.950 . S
C1592 H1588 0.949 . S
C1592 C1600 1.574 . S
C1592 C1608 1.368 . S
H1593 C1601 0.950 . S
H1594 C1599 0.950 . S
H1595 C1600 0.949 . S
H1596 C1602 0.950 . S
H1597 C1603 0.950 . S
H1598 C1604 0.949 . S
C1599 H1594 0.950 . S
C1599 C1601 1.327 . S
C1599 C1605 1.429 . S
C1600 C1592 1.574 . S
C1600 H1595 0.949 . S
C1600 C1606 1.368 . S
C1601 C1585 1.349 . S
C1601 H1593 0.950 . S
C1601 C1599 1.327 . S
C1602 C1590 1.349 . S
C1602 H1596 0.950 . S
C1602 C1603 1.327 . S
C1603 H1597 0.950 . S
C1603 C1602 1.327 . S
C1603 C1607 1.429 . S
C1604 C1587 1.574 . S
C1604 H1598 0.949 . S
C1604 C1608 1.368 . S
C1605 C1586 1.429 . S
C1605 C1599 1.429 . S
C1605 C1606 1.523 . S
C1606 C1587 1.368 . S
C1606 C1600 1.368 . S
C1606 C1605 1.523 . S
C1607 C1591 1.429 . S
C1607 C1603 1.429 . S
C1607 C1608 1.523 . S
C1608 C1592 1.368 . S
C1608 C1604 1.368 . S
C1608 C1607 1.523 . S
H1609 C1584 0.950 . S
H1610 C1586 0.950 . S
H1611 C1587 0.949 . S
H1612 C1589 0.950 . S
H1613 C1591 0.950 . S
C1614 C1615 1.349 . S
C1614 C1616 1.327 . S
C1614 H1639 0.950 . S
C1615 C1614 1.349 . S
C1615 C1631 1.349 . S
C1616 C1614 1.327 . S
C1616 C1635 1.429 . S
C1616 H1640 0.950 . S
C1617 C1634 1.574 . S
C1617 C1636 1.368 . S
C1617 H1641 0.949 . S
H1618 C1622 0.949 . S
C1619 C1620 1.349 . S
C1619 C1621 1.327 . S
C1619 H1642 0.950 . S
C1620 C1619 1.349 . S
C1620 C1632 1.349 . S
C1621 C1619 1.327 . S
C1621 C1637 1.429 . S
C1621 H1643 0.950 . S
C1622 H1618 0.949 . S
C1622 C1630 1.574 . S
C1622 C1638 1.368 . S
H1623 C1631 0.950 . S
H1624 C1629 0.950 . S
H1625 C1630 0.949 . S
H1626 C1632 0.950 . S
H1627 C1633 0.950 . S
H1628 C1634 0.949 . S
C1629 H1624 0.950 . S
C1629 C1631 1.327 . S
C1629 C1635 1.429 . S
C1630 C1622 1.574 . S
C1630 H1625 0.949 . S
C1630 C1636 1.368 . S
C1631 C1615 1.349 . S
C1631 H1623 0.950 . S
C1631 C1629 1.327 . S
C1632 C1620 1.349 . S
C1632 H1626 0.950 . S
C1632 C1633 1.327 . S
C1633 H1627 0.950 . S
C1633 C1632 1.327 . S
C1633 C1637 1.429 . S
C1634 C1617 1.574 . S
C1634 H1628 0.949 . S
C1634 C1638 1.368 . S
C1635 C1616 1.429 . S
C1635 C1629 1.429 . S
C1635 C1636 1.523 . S
C1636 C1617 1.368 . S
C1636 C1630 1.368 . S
C1636 C1635 1.523 . S
C1637 C1621 1.429 . S
C1637 C1633 1.429 . S
C1637 C1638 1.523 . S
C1638 C1622 1.368 . S
C1638 C1634 1.368 . S
C1638 C1637 1.523 . S
H1639 C1614 0.950 . S
H1640 C1616 0.950 . S
H1641 C1617 0.949 . S
H1642 C1619 0.950 . S
H1643 C1621 0.950 . S
C1644 C1645 1.349 . S
C1644 C1646 1.327 . S
C1644 H1669 0.950 . S
C1645 C1644 1.349 . S
C1645 C1661 1.349 . S
C1646 C1644 1.327 . S
C1646 C1665 1.429 . S
C1646 H1670 0.950 . S
C1647 C1664 1.574 . S
C1647 C1666 1.368 . S
C1647 H1671 0.949 . S
H1648 C1652 0.949 . S
C1649 C1650 1.349 . S
C1649 C1651 1.327 . S
C1649 H1672 0.950 . S
C1650 C1649 1.349 . S
C1650 C1662 1.349 . S
C1651 C1649 1.327 . S
C1651 C1667 1.429 . S
C1651 H1673 0.950 . S
C1652 H1648 0.949 . S
C1652 C1660 1.574 . S
C1652 C1668 1.368 . S
H1653 C1661 0.950 . S
H1654 C1659 0.950 . S
H1655 C1660 0.949 . S
H1656 C1662 0.950 . S
H1657 C1663 0.950 . S
H1658 C1664 0.949 . S
C1659 H1654 0.950 . S
C1659 C1661 1.327 . S
C1659 C1665 1.429 . S
C1660 C1652 1.574 . S
C1660 H1655 0.949 . S
C1660 C1666 1.368 . S
C1661 C1645 1.349 . S
C1661 H1653 0.950 . S
C1661 C1659 1.327 . S
C1662 C1650 1.349 . S
C1662 H1656 0.950 . S
C1662 C1663 1.327 . S
C1663 H1657 0.950 . S
C1663 C1662 1.327 . S
C1663 C1667 1.429 . S
C1664 C1647 1.574 . S
C1664 H1658 0.949 . S
C1664 C1668 1.368 . S
C1665 C1646 1.429 . S
C1665 C1659 1.429 . S
C1665 C1666 1.523 . S
C1666 C1647 1.368 . S
C1666 C1660 1.368 . S
C1666 C1665 1.523 . S
C1667 C1651 1.429 . S
C1667 C1663 1.429 . S
C1667 C1668 1.523 . S
C1668 C1652 1.368 . S
C1668 C1664 1.368 . S
C1668 C1667 1.523 . S
H1669 C1644 0.950 . S
H1670 C1646 0.950 . S
H1671 C1647 0.949 . S
H1672 C1649 0.950 . S
H1673 C1651 0.950 . S
C1674 C1675 1.349 . S
C1674 C1676 1.327 . S
C1674 H1699 0.950 . S
C1675 C1674 1.349 . S
C1675 C1691 1.349 . S
C1676 C1674 1.327 . S
C1676 C1695 1.429 . S
C1676 H1700 0.950 . S
C1677 C1694 1.574 . S
C1677 C1696 1.368 . S
C1677 H1701 0.949 . S
H1678 C1682 0.949 . S
C1679 C1680 1.349 . S
C1679 C1681 1.327 . S
C1679 H1702 0.950 . S
C1680 C1679 1.349 . S
C1680 C1692 1.349 . S
C1681 C1679 1.327 . S
C1681 C1697 1.429 . S
C1681 H1703 0.950 . S
C1682 H1678 0.949 . S
C1682 C1690 1.574 . S
C1682 C1698 1.368 . S
H1683 C1691 0.950 . S
H1684 C1689 0.950 . S
H1685 C1690 0.949 . S
H1686 C1692 0.950 . S
H1687 C1693 0.950 . S
H1688 C1694 0.949 . S
C1689 H1684 0.950 . S
C1689 C1691 1.327 . S
C1689 C1695 1.429 . S
C1690 C1682 1.574 . S
C1690 H1685 0.949 . S
C1690 C1696 1.368 . S
C1691 C1675 1.349 . S
C1691 H1683 0.950 . S
C1691 C1689 1.327 . S
C1692 C1680 1.349 . S
C1692 H1686 0.950 . S
C1692 C1693 1.327 . S
C1693 H1687 0.950 . S
C1693 C1692 1.327 . S
C1693 C1697 1.429 . S
C1694 C1677 1.574 . S
C1694 H1688 0.949 . S
C1694 C1698 1.368 . S
C1695 C1676 1.429 . S
C1695 C1689 1.429 . S
C1695 C1696 1.523 . S
C1696 C1677 1.368 . S
C1696 C1690 1.368 . S
C1696 C1695 1.523 . S
C1697 C1681 1.429 . S
C1697 C1693 1.429 . S
C1697 C1698 1.523 . S
C1698 C1682 1.368 . S
C1698 C1694 1.368 . S
C1698 C1697 1.523 . S
H1699 C1674 0.950 . S
H1700 C1676 0.950 . S
H1701 C1677 0.949 . S
H1702 C1679 0.950 . S
H1703 C1681 0.950 . S
C1704 C1705 1.349 . S
C1704 C1706 1.327 . S
C1704 H1729 0.950 . S
C1705 C1704 1.349 . S
C1705 C1721 1.349 . S
C1706 C1704 1.327 . S
C1706 C1725 1.429 . S
C1706 H1730 0.950 . S
C1707 C1724 1.574 . S
C1707 C1726 1.368 . S
C1707 H1731 0.949 . S
H1708 C1712 0.949 . S
C1709 C1710 1.349 . S
C1709 C1711 1.327 . S
C1709 H1732 0.950 . S
C1710 C1709 1.349 . S
C1710 C1722 1.349 . S
C1711 C1709 1.327 . S
C1711 C1727 1.429 . S
C1711 H1733 0.950 . S
C1712 H1708 0.949 . S
C1712 C1720 1.574 . S
C1712 C1728 1.368 . S
H1713 C1721 0.950 . S
H1714 C1719 0.950 . S
H1715 C1720 0.949 . S
H1716 C1722 0.950 . S
H1717 C1723 0.950 . S
H1718 C1724 0.949 . S
C1719 H1714 0.950 . S
C1719 C1721 1.327 . S
C1719 C1725 1.429 . S
C1720 C1712 1.574 . S
C1720 H1715 0.949 . S
C1720 C1726 1.368 . S
C1721 C1705 1.349 . S
C1721 H1713 0.950 . S
C1721 C1719 1.327 . S
C1722 C1710 1.349 . S
C1722 H1716 0.950 . S
C1722 C1723 1.327 . S
C1723 H1717 0.950 . S
C1723 C1722 1.327 . S
C1723 C1727 1.429 . S
C1724 C1707 1.574 . S
C1724 H1718 0.949 . S
C1724 C1728 1.368 . S
C1725 C1706 1.429 . S
C1725 C1719 1.429 . S
C1725 C1726 1.523 . S
C1726 C1707 1.368 . S
C1726 C1720 1.368 . S
C1726 C1725 1.523 . S
C1727 C1711 1.429 . S
C1727 C1723 1.429 . S
C1727 C1728 1.523 . S
C1728 C1712 1.368 . S
C1728 C1724 1.368 . S
C1728 C1727 1.523 . S
H1729 C1704 0.950 . S
H1730 C1706 0.950 . S
H1731 C1707 0.949 . S
H1732 C1709 0.950 . S
H1733 C1711 0.950 . S
C1734 C1735 1.349 . S
C1734 C1736 1.327 . S
C1734 H1759 0.950 . S
C1735 C1734 1.349 . S
C1735 C1751 1.349 . S
C1736 C1734 1.327 . S
C1736 C1755 1.429 . S
C1736 H1760 0.950 . S
C1737 C1754 1.574 . S
C1737 C1756 1.368 . S
C1737 H1761 0.949 . S
H1738 C1742 0.949 . S
C1739 C1740 1.349 . S
C1739 C1741 1.327 . S
C1739 H1762 0.950 . S
C1740 C1739 1.349 . S
C1740 C1752 1.349 . S
C1741 C1739 1.327 . S
C1741 C1757 1.429 . S
C1741 H1763 0.950 . S
C1742 H1738 0.949 . S
C1742 C1750 1.574 . S
C1742 C1758 1.368 . S
H1743 C1751 0.950 . S
H1744 C1749 0.950 . S
H1745 C1750 0.949 . S
H1746 C1752 0.950 . S
H1747 C1753 0.950 . S
H1748 C1754 0.949 . S
C1749 H1744 0.950 . S
C1749 C1751 1.327 . S
C1749 C1755 1.429 . S
C1750 C1742 1.574 . S
C1750 H1745 0.949 . S
C1750 C1756 1.368 . S
C1751 C1735 1.349 . S
C1751 H1743 0.950 . S
C1751 C1749 1.327 . S
C1752 C1740 1.349 . S
C1752 H1746 0.950 . S
C1752 C1753 1.327 . S
C1753 H1747 0.950 . S
C1753 C1752 1.327 . S
C1753 C1757 1.429 . S
C1754 C1737 1.574 . S
C1754 H1748 0.949 . S
C1754 C1758 1.368 . S
C1755 C1736 1.429 . S
C1755 C1749 1.429 . S
C1755 C1756 1.523 . S
C1756 C1737 1.368 . S
C1756 C1750 1.368 . S
C1756 C1755 1.523 . S
C1757 C1741 1.429 . S
C1757 C1753 1.429 . S
C1757 C1758 1.523 . S
C1758 C1742 1.368 . S
C1758 C1754 1.368 . S
C1758 C1757 1.523 . S
H1759 C1734 0.950 . S
H1760 C1736 0.950 . S
H1761 C1737 0.949 . S
H1762 C1739 0.950 . S
H1763 C1741 0.950 . S
C1764 C1765 1.349 . S
C1764 C1766 1.327 . S
C1764 H1789 0.950 . S
C1765 C1764 1.349 . S
C1765 C1781 1.349 . S
C1766 C1764 1.327 . S
C1766 C1785 1.429 . S
C1766 H1790 0.950 . S
C1767 C1784 1.574 . S
C1767 C1786 1.368 . S
C1767 H1791 0.949 . S
H1768 C1772 0.949 . S
C1769 C1770 1.349 . S
C1769 C1771 1.327 . S
C1769 H1792 0.950 . S
C1770 C1769 1.349 . S
C1770 C1782 1.349 . S
C1771 C1769 1.327 . S
C1771 C1787 1.429 . S
C1771 H1793 0.950 . S
C1772 H1768 0.949 . S
C1772 C1780 1.574 . S
C1772 C1788 1.368 . S
H1773 C1781 0.950 . S
H1774 C1779 0.950 . S
H1775 C1780 0.949 . S
H1776 C1782 0.950 . S
H1777 C1783 0.950 . S
H1778 C1784 0.949 . S
C1779 H1774 0.950 . S
C1779 C1781 1.327 . S
C1779 C1785 1.429 . S
C1780 C1772 1.574 . S
C1780 H1775 0.949 . S
C1780 C1786 1.368 . S
C1781 C1765 1.349 . S
C1781 H1773 0.950 . S
C1781 C1779 1.327 . S
C1782 C1770 1.349 . S
C1782 H1776 0.950 . S
C1782 C1783 1.327 . S
C1783 H1777 0.950 . S
C1783 C1782 1.327 . S
C1783 C1787 1.429 . S
C1784 C1767 1.574 . S
C1784 H1778 0.949 . S
C1784 C1788 1.368 . S
C1785 C1766 1.429 . S
C1785 C1779 1.429 . S
C1785 C1786 1.523 . S
C1786 C1767 1.368 . S
C1786 C1780 1.368 . S
C1786 C1785 1.523 . S
C1787 C1771 1.429 . S
C1787 C1783 1.429 . S
C1787 C1788 1.523 . S
C1788 C1772 1.368 . S
C1788 C1784 1.368 . S
C1788 C1787 1.523 . S
H1789 C1764 0.950 . S
H1790 C1766 0.950 . S
H1791 C1767 0.949 . S
H1792 C1769 0.950 . S
H1793 C1771 0.950 . S
C1794 C1795 1.349 . S
C1794 C1796 1.327 . S
C1794 H1819 0.950 . S
C1795 C1794 1.349 . S
C1795 C1811 1.349 . S
C1796 C1794 1.327 . S
C1796 C1815 1.429 . S
C1796 H1820 0.950 . S
C1797 C1814 1.574 . S
C1797 C1816 1.368 . S
C1797 H1821 0.949 . S
H1798 C1802 0.949 . S
C1799 C1800 1.349 . S
C1799 C1801 1.327 . S
C1799 H1822 0.950 . S
C1800 C1799 1.349 . S
C1800 C1812 1.349 . S
C1801 C1799 1.327 . S
C1801 C1817 1.429 . S
C1801 H1823 0.950 . S
C1802 H1798 0.949 . S
C1802 C1810 1.574 . S
C1802 C1818 1.368 . S
H1803 C1811 0.950 . S
H1804 C1809 0.950 . S
H1805 C1810 0.949 . S
H1806 C1812 0.950 . S
H1807 C1813 0.950 . S
H1808 C1814 0.949 . S
C1809 H1804 0.950 . S
C1809 C1811 1.327 . S
C1809 C1815 1.429 . S
C1810 C1802 1.574 . S
C1810 H1805 0.949 . S
C1810 C1816 1.368 . S
C1811 C1795 1.349 . S
C1811 H1803 0.950 . S
C1811 C1809 1.327 . S
C1812 C1800 1.349 . S
C1812 H1806 0.950 . S
C1812 C1813 1.327 . S
C1813 H1807 0.950 . S
C1813 C1812 1.327 . S
C1813 C1817 1.429 . S
C1814 C1797 1.574 . S
C1814 H1808 0.949 . S
C1814 C1818 1.368 . S
C1815 C1796 1.429 . S
C1815 C1809 1.429 . S
C1815 C1816 1.523 . S
C1816 C1797 1.368 . S
C1816 C1810 1.368 . S
C1816 C1815 1.523 . S
C1817 C1801 1.429 . S
C1817 C1813 1.429 . S
C1817 C1818 1.523 . S
C1818 C1802 1.368 . S
C1818 C1814 1.368 . S
C1818 C1817 1.523 . S
H1819 C1794 0.950 . S
H1820 C1796 0.950 . S
H1821 C1797 0.949 . S
H1822 C1799 0.950 . S
H1823 C1801 0.950 . S
C1824 C1825 1.349 . S
C1824 C1826 1.327 . S
C1824 H1849 0.950 . S
C1825 C1824 1.349 . S
C1825 C1841 1.349 . S
C1826 C1824 1.327 . S
C1826 C1845 1.429 . S
C1826 H1850 0.950 . S
C1827 C1844 1.574 . S
C1827 C1846 1.368 . S
C1827 H1851 0.949 . S
H1828 C1832 0.949 . S
C1829 C1830 1.349 . S
C1829 C1831 1.327 . S
C1829 H1852 0.950 . S
C1830 C1829 1.349 . S
C1830 C1842 1.349 . S
C1831 C1829 1.327 . S
C1831 C1847 1.429 . S
C1831 H1853 0.950 . S
C1832 H1828 0.949 . S
C1832 C1840 1.574 . S
C1832 C1848 1.368 . S
H1833 C1841 0.950 . S
H1834 C1839 0.950 . S
H1835 C1840 0.949 . S
H1836 C1842 0.950 . S
H1837 C1843 0.950 . S
H1838 C1844 0.949 . S
C1839 H1834 0.950 . S
C1839 C1841 1.327 . S
C1839 C1845 1.429 . S
C1840 C1832 1.574 . S
C1840 H1835 0.949 . S
C1840 C1846 1.368 . S
C1841 C1825 1.349 . S
C1841 H1833 0.950 . S
C1841 C1839 1.327 . S
C1842 C1830 1.349 . S
C1842 H1836 0.950 . S
C1842 C1843 1.327 . S
C1843 H1837 0.950 . S
C1843 C1842 1.327 . S
C1843 C1847 1.429 . S
C1844 C1827 1.574 . S
C1844 H1838 0.949 . S
C1844 C1848 1.368 . S
C1845 C1826 1.429 . S
C1845 C1839 1.429 . S
C1845 C1846 1.523 . S
C1846 C1827 1.368 . S
C1846 C1840 1.368 . S
C1846 C1845 1.523 . S
C1847 C1831 1.429 . S
C1847 C1843 1.429 . S
C1847 C1848 1.523 . S
C1848 C1832 1.368 . S
C1848 C1844 1.368 . S
C1848 C1847 1.523 . S
H1849 C1824 0.950 . S
H1850 C1826 0.950 . S
H1851 C1827 0.949 . S
H1852 C1829 0.950 . S
H1853 C1831 0.950 . S
C1854 C1855 1.349 . S
C1854 C1856 1.327 . S
C1854 H1879 0.950 . S
C1855 C1854 1.349 . S
C1855 C1871 1.349 . S
C1856 C1854 1.327 . S
C1856 C1875 1.429 . S
C1856 H1880 0.950 . S
C1857 C1874 1.574 . S
C1857 C1876 1.368 . S
C1857 H1881 0.949 . S
H1858 C1862 0.949 . S
C1859 C1860 1.349 . S
C1859 C1861 1.327 . S
C1859 H1882 0.950 . S
C1860 C1859 1.349 . S
C1860 C1872 1.349 . S
C1861 C1859 1.327 . S
C1861 C1877 1.429 . S
C1861 H1883 0.950 . S
C1862 H1858 0.949 . S
C1862 C1870 1.574 . S
C1862 C1878 1.368 . S
H1863 C1871 0.950 . S
H1864 C1869 0.950 . S
H1865 C1870 0.949 . S
H1866 C1872 0.950 . S
H1867 C1873 0.950 . S
H1868 C1874 0.949 . S
C1869 H1864 0.950 . S
C1869 C1871 1.327 . S
C1869 C1875 1.429 . S
C1870 C1862 1.574 . S
C1870 H1865 0.949 . S
C1870 C1876 1.368 . S
C1871 C1855 1.349 . S
C1871 H1863 0.950 . S
C1871 C1869 1.327 . S
C1872 C1860 1.349 . S
C1872 H1866 0.950 . S
C1872 C1873 1.327 . S
C1873 H1867 0.950 . S
C1873 C1872 1.327 . S
C1873 C1877 1.429 . S
C1874 C1857 1.574 . S
C1874 H1868 0.949 . S
C1874 C1878 1.368 . S
C1875 C1856 1.429 . S
C1875 C1869 1.429 . S
C1875 C1876 1.523 . S
C1876 C1857 1.368 . S
C1876 C1870 1.368 . S
C1876 C1875 1.523 . S
C1877 C1861 1.429 . S
C1877 C1873 1.429 . S
C1877 C1878 1.523 . S
C1878 C1862 1.368 . S
C1878 C1874 1.368 . S
C1878 C1877 1.523 . S
H1879 C1854 0.950 . S
H1880 C1856 0.950 . S
H1881 C1857 0.949 . S
H1882 C1859 0.950 . S
H1883 C1861 0.950 . S
C1884 C1885 1.349 . S
C1884 C1886 1.327 . S
C1884 H1909 0.950 . S
C1885 C1884 1.349 . S
C1885 C1901 1.349 . S
C1886 C1884 1.327 . S
C1886 C1905 1.429 . S
C1886 H1910 0.950 . S
C1887 C1904 1.574 . S
C1887 C1906 1.368 . S
C1887 H1911 0.949 . S
H1888 C1892 0.949 . S
C1889 C1890 1.349 . S
C1889 C1891 1.327 . S
C1889 H1912 0.950 . S
C1890 C1889 1.349 . S
C1890 C1902 1.349 . S
C1891 C1889 1.327 . S
C1891 C1907 1.429 . S
C1891 H1913 0.950 . S
C1892 H1888 0.949 . S
C1892 C1900 1.574 . S
C1892 C1908 1.368 . S
H1893 C1901 0.950 . S
H1894 C1899 0.950 . S
H1895 C1900 0.949 . S
H1896 C1902 0.950 . S
H1897 C1903 0.950 . S
H1898 C1904 0.949 . S
C1899 H1894 0.950 . S
C1899 C1901 1.327 . S
C1899 C1905 1.429 . S
C1900 C1892 1.574 . S
C1900 H1895 0.949 . S
C1900 C1906 1.368 . S
C1901 C1885 1.349 . S
C1901 H1893 0.950 . S
C1901 C1899 1.327 . S
C1902 C1890 1.349 . S
C1902 H1896 0.950 . S
C1902 C1903 1.327 . S
C1903 H1897 0.950 . S
C1903 C1902 1.327 . S
C1903 C1907 1.429 . S
C1904 C1887 1.574 . S
C1904 H1898 0.949 . S
C1904 C1908 1.368 . S
C1905 C1886 1.429 . S
C1905 C1899 1.429 . S
C1905 C1906 1.523 . S
C1906 C1887 1.368 . S
C1906 C1900 1.368 . S
C1906 C1905 1.523 . S
C1907 C1891 1.429 . S
C1907 C1903 1.429 . S
C1907 C1908 1.523 . S
C1908 C1892 1.368 . S
C1908 C1904 1.368 . S
C1908 C1907 1.523 . S
H1909 C1884 0.950 . S
H1910 C1886 0.950 . S
H1911 C1887 0.949 . S
H1912 C1889 0.950 . S
H1913 C1891 0.950 . S
C1914 C1915 1.349 . S
C1914 C1916 1.327 . S
C1914 H1939 0.950 . S
C1915 C1914 1.349 . S
C1915 C1931 1.349 . S
C1916 C1914 1.327 . S
C1916 C1935 1.429 . S
C1916 H1940 0.950 . S
C1917 C1934 1.574 . S
C1917 C1936 1.368 . S
C1917 H1941 0.949 . S
H1918 C1922 0.949 . S
C1919 C1920 1.349 . S
C1919 C1921 1.327 . S
C1919 H1942 0.950 . S
C1920 C1919 1.349 . S
C1920 C1932 1.349 . S
C1921 C1919 1.327 . S
C1921 C1937 1.429 . S
C1921 H1943 0.950 . S
C1922 H1918 0.949 . S
C1922 C1930 1.574 . S
C1922 C1938 1.368 . S
H1923 C1931 0.950 . S
H1924 C1929 0.950 . S
H1925 C1930 0.949 . S
H1926 C1932 0.950 . S
H1927 C1933 0.950 . S
H1928 C1934 0.949 . S
C1929 H1924 0.950 . S
C1929 C1931 1.327 . S
C1929 C1935 1.429 . S
C1930 C1922 1.574 . S
C1930 H1925 0.949 . S
C1930 C1936 1.368 . S
C1931 C1915 1.349 . S
C1931 H1923 0.950 . S
C1931 C1929 1.327 . S
C1932 C1920 1.349 . S
C1932 H1926 0.950 . S
C1932 C1933 1.327 . S
C1933 H1927 0.950 . S
C1933 C1932 1.327 . S
C1933 C1937 1.429 . S
C1934 C1917 1.574 . S
C1934 H1928 0.949 . S
C1934 C1938 1.368 . S
C1935 C1916 1.429 . S
C1935 C1929 1.429 . S
C1935 C1936 1.523 . S
C1936 C1917 1.368 . S
C1936 C1930 1.368 . S
C1936 C1935 1.523 . S
C1937 C1921 1.429 . S
C1937 C1933 1.429 . S
C1937 C1938 1.523 . S
C1938 C1922 1.368 . S
C1938 C1934 1.368 . S
C1938 C1937 1.523 . S
H1939 C1914 0.950 . S
H1940 C1916 0.950 . S
H1941 C1917 0.949 . S
H1942 C1919 0.950 . S
H1943 C1921 0.950 . S
C1944 C1945 1.349 . S
C1944 C1946 1.327 . S
C1944 H1969 0.950 . S
C1945 C1944 1.349 . S
C1945 C1961 1.349 . S
C1946 C1944 1.327 . S
C1946 C1965 1.429 . S
C1946 H1970 0.950 . S
C1947 C1964 1.574 1_455 S
C1947 C1966 1.368 . S
C1947 H1971 0.949 . S
H1948 C1952 0.949 . S
C1949 C1950 1.349 . S
C1949 C1951 1.327 . S
C1949 H1972 0.950 . S
C1950 C1949 1.349 . S
C1950 C1962 1.349 . S
C1951 C1949 1.327 . S
C1951 C1967 1.429 . S
C1951 H1973 0.950 . S
C1952 H1948 0.949 . S
C1952 C1960 1.574 1_655 S
C1952 C1968 1.368 . S
H1953 C1961 0.950 . S
H1954 C1959 0.950 . S
H1955 C1960 0.949 . S
H1956 C1962 0.950 . S
H1957 C1963 0.950 . S
H1958 C1964 0.949 . S
C1959 H1954 0.950 . S
C1959 C1961 1.327 . S
C1959 C1965 1.429 . S
C1960 C1952 1.574 1_455 S
C1960 H1955 0.949 . S
C1960 C1966 1.368 . S
C1961 C1945 1.349 . S
C1961 H1953 0.950 . S
C1961 C1959 1.327 . S
C1962 C1950 1.349 . S
C1962 H1956 0.950 . S
C1962 C1963 1.327 . S
C1963 H1957 0.950 . S
C1963 C1962 1.327 . S
C1963 C1967 1.429 . S
C1964 C1947 1.574 1_655 S
C1964 H1958 0.949 . S
C1964 C1968 1.368 . S
C1965 C1946 1.429 . S
C1965 C1959 1.429 . S
C1965 C1966 1.523 . S
C1966 C1947 1.368 . S
C1966 C1960 1.368 . S
C1966 C1965 1.523 . S
C1967 C1951 1.429 . S
C1967 C1963 1.429 . S
C1967 C1968 1.523 . S
C1968 C1952 1.368 . S
C1968 C1964 1.368 . S
C1968 C1967 1.523 . S
H1969 C1944 0.950 . S
H1970 C1946 0.950 . S
H1971 C1947 0.949 . S
H1972 C1949 0.950 . S
H1973 C1951 0.950 . S
C1974 C1975 1.349 . S
C1974 C1976 1.327 . S
C1974 H1999 0.950 . S
C1975 C1974 1.349 . S
C1975 C1991 1.349 . S
C1976 C1974 1.327 . S
C1976 C1995 1.429 . S
C1976 H2000 0.950 . S
C1977 C1994 1.574 . S
C1977 C1996 1.368 . S
C1977 H2001 0.949 . S
H1978 C1982 0.949 . S
C1979 C1980 1.349 . S
C1979 C1981 1.327 . S
C1979 H2002 0.950 . S
C1980 C1979 1.349 . S
C1980 C1992 1.349 . S
C1981 C1979 1.327 . S
C1981 C1997 1.429 . S
C1981 H2003 0.950 . S
C1982 H1978 0.949 . S
C1982 C1990 1.574 . S
C1982 C1998 1.368 . S
H1983 C1991 0.950 . S
H1984 C1989 0.950 . S
H1985 C1990 0.949 . S
H1986 C1992 0.950 . S
H1987 C1993 0.950 . S
H1988 C1994 0.949 . S
C1989 H1984 0.950 . S
C1989 C1991 1.327 . S
C1989 C1995 1.429 . S
C1990 C1982 1.574 . S
C1990 H1985 0.949 . S
C1990 C1996 1.368 . S
C1991 C1975 1.349 . S
C1991 H1983 0.950 . S
C1991 C1989 1.327 . S
C1992 C1980 1.349 . S
C1992 H1986 0.950 . S
C1992 C1993 1.327 . S
C1993 H1987 0.950 . S
C1993 C1992 1.327 . S
C1993 C1997 1.429 . S
C1994 C1977 1.574 . S
C1994 H1988 0.949 . S
C1994 C1998 1.368 . S
C1995 C1976 1.429 . S
C1995 C1989 1.429 . S
C1995 C1996 1.523 . S
C1996 C1977 1.368 . S
C1996 C1990 1.368 . S
C1996 C1995 1.523 . S
C1997 C1981 1.429 . S
C1997 C1993 1.429 . S
C1997 C1998 1.523 . S
C1998 C1982 1.368 . S
C1998 C1994 1.368 . S
C1998 C1997 1.523 . S
H1999 C1974 0.950 . S
H2000 C1976 0.950 . S
H2001 C1977 0.949 . S
H2002 C1979 0.950 . S
H2003 C1981 0.950 . S
C2004 C2005 1.349 . S
C2004 C2006 1.327 . S
C2004 H2029 0.950 . S
C2005 C2004 1.349 . S
C2005 C2021 1.349 . S
C2006 C2004 1.327 . S
C2006 C2025 1.429 . S
C2006 H2030 0.950 . S
C2007 C2024 1.574 1_545 S
C2007 C2026 1.368 . S
C2007 H2031 0.949 . S
H2008 C2012 0.949 . S
C2009 C2010 1.349 . S
C2009 C2011 1.327 . S
C2009 H2032 0.950 . S
C2010 C2009 1.349 . S
C2010 C2022 1.349 . S
C2011 C2009 1.327 . S
C2011 C2027 1.429 . S
C2011 H2033 0.950 . S
C2012 H2008 0.949 . S
C2012 C2020 1.574 1_565 S
C2012 C2028 1.368 . S
H2013 C2021 0.950 . S
H2014 C2019 0.950 . S
H2015 C2020 0.949 . S
H2016 C2022 0.950 . S
H2017 C2023 0.950 . S
H2018 C2024 0.949 . S
C2019 H2014 0.950 . S
C2019 C2021 1.327 . S
C2019 C2025 1.429 . S
C2020 C2012 1.574 1_545 S
C2020 H2015 0.949 . S
C2020 C2026 1.368 . S
C2021 C2005 1.349 . S
C2021 H2013 0.950 . S
C2021 C2019 1.327 . S
C2022 C2010 1.349 . S
C2022 H2016 0.950 . S
C2022 C2023 1.327 . S
C2023 H2017 0.950 . S
C2023 C2022 1.327 . S
C2023 C2027 1.429 . S
C2024 C2007 1.574 1_565 S
C2024 H2018 0.949 . S
C2024 C2028 1.368 . S
C2025 C2006 1.429 . S
C2025 C2019 1.429 . S
C2025 C2026 1.523 . S
C2026 C2007 1.368 . S
C2026 C2020 1.368 . S
C2026 C2025 1.523 . S
C2027 C2011 1.429 . S
C2027 C2023 1.429 . S
C2027 C2028 1.523 . S
C2028 C2012 1.368 . S
C2028 C2024 1.368 . S
C2028 C2027 1.523 . S
H2029 C2004 0.950 . S
H2030 C2006 0.950 . S
H2031 C2007 0.949 . S
H2032 C2009 0.950 . S
H2033 C2011 0.950 . S
C2034 C2035 1.349 . S
C2034 C2036 1.327 . S
C2034 H2059 0.950 . S
C2035 C2034 1.349 . S
C2035 C2051 1.349 . S
C2036 C2034 1.327 . S
C2036 C2055 1.429 . S
C2036 H2060 0.950 . S
C2037 C2054 1.574 1_545 S
C2037 C2056 1.368 . S
C2037 H2061 0.949 . S
H2038 C2042 0.949 . S
C2039 C2040 1.349 . S
C2039 C2041 1.327 . S
C2039 H2062 0.950 . S
C2040 C2039 1.349 . S
C2040 C2052 1.349 . S
C2041 C2039 1.327 . S
C2041 C2057 1.429 . S
C2041 H2063 0.950 . S
C2042 H2038 0.949 . S
C2042 C2050 1.574 1_565 S
C2042 C2058 1.368 . S
H2043 C2051 0.950 . S
H2044 C2049 0.950 . S
H2045 C2050 0.949 . S
H2046 C2052 0.950 . S
H2047 C2053 0.950 . S
H2048 C2054 0.949 . S
C2049 H2044 0.950 . S
C2049 C2051 1.327 . S
C2049 C2055 1.429 . S
C2050 C2042 1.574 1_545 S
C2050 H2045 0.949 . S
C2050 C2056 1.368 . S
C2051 C2035 1.349 . S
C2051 H2043 0.950 . S
C2051 C2049 1.327 . S
C2052 C2040 1.349 . S
C2052 H2046 0.950 . S
C2052 C2053 1.327 . S
C2053 H2047 0.950 . S
C2053 C2052 1.327 . S
C2053 C2057 1.429 . S
C2054 C2037 1.574 1_565 S
C2054 H2048 0.949 . S
C2054 C2058 1.368 . S
C2055 C2036 1.429 . S
C2055 C2049 1.429 . S
C2055 C2056 1.523 . S
C2056 C2037 1.368 . S
C2056 C2050 1.368 . S
C2056 C2055 1.523 . S
C2057 C2041 1.429 . S
C2057 C2053 1.429 . S
C2057 C2058 1.523 . S
C2058 C2042 1.368 . S
C2058 C2054 1.368 . S
C2058 C2057 1.523 . S
H2059 C2034 0.950 . S
H2060 C2036 0.950 . S
H2061 C2037 0.949 . S
H2062 C2039 0.950 . S
H2063 C2041 0.950 . S
C2064 C2065 1.349 . S
C2064 C2066 1.327 . S
C2064 H2089 0.950 . S
C2065 C2064 1.349 . S
C2065 C2081 1.349 . S
C2066 C2064 1.327 . S
C2066 C2085 1.429 . S
C2066 H2090 0.950 . S
C2067 C2084 1.574 1_655 S
C2067 C2086 1.368 . S
C2067 H2091 0.949 . S
H2068 C2072 0.949 . S
C2069 C2070 1.349 . S
C2069 C2071 1.327 . S
C2069 H2092 0.950 . S
C2070 C2069 1.349 . S
C2070 C2082 1.349 . S
C2071 C2069 1.327 . S
C2071 C2087 1.429 . S
C2071 H2093 0.950 . S
C2072 H2068 0.949 . S
C2072 C2080 1.574 1_455 S
C2072 C2088 1.368 . S
H2073 C2081 0.950 . S
H2074 C2079 0.950 . S
H2075 C2080 0.949 . S
H2076 C2082 0.950 . S
H2077 C2083 0.950 . S
H2078 C2084 0.949 . S
C2079 H2074 0.950 . S
C2079 C2081 1.327 . S
C2079 C2085 1.429 . S
C2080 C2072 1.574 1_655 S
C2080 H2075 0.949 . S
C2080 C2086 1.368 . S
C2081 C2065 1.349 . S
C2081 H2073 0.950 . S
C2081 C2079 1.327 . S
C2082 C2070 1.349 . S
C2082 H2076 0.950 . S
C2082 C2083 1.327 . S
C2083 H2077 0.950 . S
C2083 C2082 1.327 . S
C2083 C2087 1.429 . S
C2084 C2067 1.574 1_455 S
C2084 H2078 0.949 . S
C2084 C2088 1.368 . S
C2085 C2066 1.429 . S
C2085 C2079 1.429 . S
C2085 C2086 1.523 . S
C2086 C2067 1.368 . S
C2086 C2080 1.368 . S
C2086 C2085 1.523 . S
C2087 C2071 1.429 . S
C2087 C2083 1.429 . S
C2087 C2088 1.523 . S
C2088 C2072 1.368 . S
C2088 C2084 1.368 . S
C2088 C2087 1.523 . S
H2089 C2064 0.950 . S
H2090 C2066 0.950 . S
H2091 C2067 0.949 . S
H2092 C2069 0.950 . S
H2093 C2071 0.950 . S
C2094 C2095 1.349 . S
C2094 C2096 1.327 . S
C2094 H2119 0.950 . S
C2095 C2094 1.349 . S
C2095 C2111 1.349 . S
C2096 C2094 1.327 . S
C2096 C2115 1.429 . S
C2096 H2120 0.950 . S
C2097 C2114 1.574 . S
C2097 C2116 1.368 . S
C2097 H2121 0.949 . S
H2098 C2102 0.949 . S
C2099 C2100 1.349 . S
C2099 C2101 1.327 . S
C2099 H2122 0.950 . S
C2100 C2099 1.349 . S
C2100 C2112 1.349 . S
C2101 C2099 1.327 . S
C2101 C2117 1.429 . S
C2101 H2123 0.950 . S
C2102 H2098 0.949 . S
C2102 C2110 1.574 . S
C2102 C2118 1.368 . S
H2103 C2111 0.950 . S
H2104 C2109 0.950 . S
H2105 C2110 0.949 . S
H2106 C2112 0.950 . S
H2107 C2113 0.950 . S
H2108 C2114 0.949 . S
C2109 H2104 0.950 . S
C2109 C2111 1.327 . S
C2109 C2115 1.429 . S
C2110 C2102 1.574 . S
C2110 H2105 0.949 . S
C2110 C2116 1.368 . S
C2111 C2095 1.349 . S
C2111 H2103 0.950 . S
C2111 C2109 1.327 . S
C2112 C2100 1.349 . S
C2112 H2106 0.950 . S
C2112 C2113 1.327 . S
C2113 H2107 0.950 . S
C2113 C2112 1.327 . S
C2113 C2117 1.429 . S
C2114 C2097 1.574 . S
C2114 H2108 0.949 . S
C2114 C2118 1.368 . S
C2115 C2096 1.429 . S
C2115 C2109 1.429 . S
C2115 C2116 1.523 . S
C2116 C2097 1.368 . S
C2116 C2110 1.368 . S
C2116 C2115 1.523 . S
C2117 C2101 1.429 . S
C2117 C2113 1.429 . S
C2117 C2118 1.523 . S
C2118 C2102 1.368 . S
C2118 C2114 1.368 . S
C2118 C2117 1.523 . S
H2119 C2094 0.950 . S
H2120 C2096 0.950 . S
H2121 C2097 0.949 . S
H2122 C2099 0.950 . S
H2123 C2101 0.950 . S
C2124 C2125 1.349 . S
C2124 C2126 1.327 . S
C2124 H2149 0.950 . S
C2125 C2124 1.349 . S
C2125 C2141 1.349 . S
C2126 C2124 1.327 . S
C2126 C2145 1.429 . S
C2126 H2150 0.950 . S
C2127 C2144 1.574 . S
C2127 C2146 1.368 . S
C2127 H2151 0.949 . S
H2128 C2132 0.949 . S
C2129 C2130 1.349 . S
C2129 C2131 1.327 . S
C2129 H2152 0.950 . S
C2130 C2129 1.349 . S
C2130 C2142 1.349 . S
C2131 C2129 1.327 . S
C2131 C2147 1.429 . S
C2131 H2153 0.950 . S
C2132 H2128 0.949 . S
C2132 C2140 1.574 . S
C2132 C2148 1.368 . S
H2133 C2141 0.950 . S
H2134 C2139 0.950 . S
H2135 C2140 0.949 . S
H2136 C2142 0.950 . S
H2137 C2143 0.950 . S
H2138 C2144 0.949 . S
C2139 H2134 0.950 . S
C2139 C2141 1.327 . S
C2139 C2145 1.429 . S
C2140 C2132 1.574 . S
C2140 H2135 0.949 . S
C2140 C2146 1.368 . S
C2141 C2125 1.349 . S
C2141 H2133 0.950 . S
C2141 C2139 1.327 . S
C2142 C2130 1.349 . S
C2142 H2136 0.950 . S
C2142 C2143 1.327 . S
C2143 H2137 0.950 . S
C2143 C2142 1.327 . S
C2143 C2147 1.429 . S
C2144 C2127 1.574 . S
C2144 H2138 0.949 . S
C2144 C2148 1.368 . S
C2145 C2126 1.429 . S
C2145 C2139 1.429 . S
C2145 C2146 1.523 . S
C2146 C2127 1.368 . S
C2146 C2140 1.368 . S
C2146 C2145 1.523 . S
C2147 C2131 1.429 . S
C2147 C2143 1.429 . S
C2147 C2148 1.523 . S
C2148 C2132 1.368 . S
C2148 C2144 1.368 . S
C2148 C2147 1.523 . S
H2149 C2124 0.950 . S
H2150 C2126 0.950 . S
H2151 C2127 0.949 . S
H2152 C2129 0.950 . S
H2153 C2131 0.950 . S
C2154 C2155 1.349 . S
C2154 C2156 1.327 . S
C2154 H2179 0.950 . S
C2155 C2154 1.349 . S
C2155 C2171 1.349 . S
C2156 C2154 1.327 . S
C2156 C2175 1.429 . S
C2156 H2180 0.950 . S
C2157 C2174 1.574 . S
C2157 C2176 1.368 . S
C2157 H2181 0.949 . S
H2158 C2162 0.949 . S
C2159 C2160 1.349 . S
C2159 C2161 1.327 . S
C2159 H2182 0.950 . S
C2160 C2159 1.349 . S
C2160 C2172 1.349 . S
C2161 C2159 1.327 . S
C2161 C2177 1.429 . S
C2161 H2183 0.950 . S
C2162 H2158 0.949 . S
C2162 C2170 1.574 . S
C2162 C2178 1.368 . S
H2163 C2171 0.950 . S
H2164 C2169 0.950 . S
H2165 C2170 0.949 . S
H2166 C2172 0.950 . S
H2167 C2173 0.950 . S
H2168 C2174 0.949 . S
C2169 H2164 0.950 . S
C2169 C2171 1.327 . S
C2169 C2175 1.429 . S
C2170 C2162 1.574 . S
C2170 H2165 0.949 . S
C2170 C2176 1.368 . S
C2171 C2155 1.349 . S
C2171 H2163 0.950 . S
C2171 C2169 1.327 . S
C2172 C2160 1.349 . S
C2172 H2166 0.950 . S
C2172 C2173 1.327 . S
C2173 H2167 0.950 . S
C2173 C2172 1.327 . S
C2173 C2177 1.429 . S
C2174 C2157 1.574 . S
C2174 H2168 0.949 . S
C2174 C2178 1.368 . S
C2175 C2156 1.429 . S
C2175 C2169 1.429 . S
C2175 C2176 1.523 . S
C2176 C2157 1.368 . S
C2176 C2170 1.368 . S
C2176 C2175 1.523 . S
C2177 C2161 1.429 . S
C2177 C2173 1.429 . S
C2177 C2178 1.523 . S
C2178 C2162 1.368 . S
C2178 C2174 1.368 . S
C2178 C2177 1.523 . S
H2179 C2154 0.950 . S
H2180 C2156 0.950 . S
H2181 C2157 0.949 . S
H2182 C2159 0.950 . S
H2183 C2161 0.950 . S
C2184 C2185 1.349 . S
C2184 C2186 1.327 . S
C2184 H2209 0.950 . S
C2185 C2184 1.349 . S
C2185 C2201 1.349 . S
C2186 C2184 1.327 . S
C2186 C2205 1.429 . S
C2186 H2210 0.950 . S
C2187 C2204 1.574 . S
C2187 C2206 1.368 . S
C2187 H2211 0.949 . S
H2188 C2192 0.949 . S
C2189 C2190 1.349 . S
C2189 C2191 1.327 . S
C2189 H2212 0.950 . S
C2190 C2189 1.349 . S
C2190 C2202 1.349 . S
C2191 C2189 1.327 . S
C2191 C2207 1.429 . S
C2191 H2213 0.950 . S
C2192 H2188 0.949 . S
C2192 C2200 1.574 . S
C2192 C2208 1.368 . S
H2193 C2201 0.950 . S
H2194 C2199 0.950 . S
H2195 C2200 0.949 . S
H2196 C2202 0.950 . S
H2197 C2203 0.950 . S
H2198 C2204 0.949 . S
C2199 H2194 0.950 . S
C2199 C2201 1.327 . S
C2199 C2205 1.429 . S
C2200 C2192 1.574 . S
C2200 H2195 0.949 . S
C2200 C2206 1.368 . S
C2201 C2185 1.349 . S
C2201 H2193 0.950 . S
C2201 C2199 1.327 . S
C2202 C2190 1.349 . S
C2202 H2196 0.950 . S
C2202 C2203 1.327 . S
C2203 H2197 0.950 . S
C2203 C2202 1.327 . S
C2203 C2207 1.429 . S
C2204 C2187 1.574 . S
C2204 H2198 0.949 . S
C2204 C2208 1.368 . S
C2205 C2186 1.429 . S
C2205 C2199 1.429 . S
C2205 C2206 1.523 . S
C2206 C2187 1.368 . S
C2206 C2200 1.368 . S
C2206 C2205 1.523 . S
C2207 C2191 1.429 . S
C2207 C2203 1.429 . S
C2207 C2208 1.523 . S
C2208 C2192 1.368 . S
C2208 C2204 1.368 . S
C2208 C2207 1.523 . S
H2209 C2184 0.950 . S
H2210 C2186 0.950 . S
H2211 C2187 0.949 . S
H2212 C2189 0.950 . S
H2213 C2191 0.950 . S
C2214 C2215 1.349 . S
C2214 C2216 1.327 . S
C2214 H2239 0.950 . S
C2215 C2214 1.349 . S
C2215 C2231 1.349 . S
C2216 C2214 1.327 . S
C2216 C2235 1.429 . S
C2216 H2240 0.950 . S
C2217 C2234 1.574 . S
C2217 C2236 1.368 . S
C2217 H2241 0.949 . S
H2218 C2222 0.949 . S
C2219 C2220 1.349 . S
C2219 C2221 1.327 . S
C2219 H2242 0.950 . S
C2220 C2219 1.349 . S
C2220 C2232 1.349 . S
C2221 C2219 1.327 . S
C2221 C2237 1.429 . S
C2221 H2243 0.950 . S
C2222 H2218 0.949 . S
C2222 C2230 1.574 . S
C2222 C2238 1.368 . S
H2223 C2231 0.950 . S
H2224 C2229 0.950 . S
H2225 C2230 0.949 . S
H2226 C2232 0.950 . S
H2227 C2233 0.950 . S
H2228 C2234 0.949 . S
C2229 H2224 0.950 . S
C2229 C2231 1.327 . S
C2229 C2235 1.429 . S
C2230 C2222 1.574 . S
C2230 H2225 0.949 . S
C2230 C2236 1.368 . S
C2231 C2215 1.349 . S
C2231 H2223 0.950 . S
C2231 C2229 1.327 . S
C2232 C2220 1.349 . S
C2232 H2226 0.950 . S
C2232 C2233 1.327 . S
C2233 H2227 0.950 . S
C2233 C2232 1.327 . S
C2233 C2237 1.429 . S
C2234 C2217 1.574 . S
C2234 H2228 0.949 . S
C2234 C2238 1.368 . S
C2235 C2216 1.429 . S
C2235 C2229 1.429 . S
C2235 C2236 1.523 . S
C2236 C2217 1.368 . S
C2236 C2230 1.368 . S
C2236 C2235 1.523 . S
C2237 C2221 1.429 . S
C2237 C2233 1.429 . S
C2237 C2238 1.523 . S
C2238 C2222 1.368 . S
C2238 C2234 1.368 . S
C2238 C2237 1.523 . S
H2239 C2214 0.950 . S
H2240 C2216 0.950 . S
H2241 C2217 0.949 . S
H2242 C2219 0.950 . S
H2243 C2221 0.950 . S
C2244 C2245 1.349 . S
C2244 C2246 1.327 . S
C2244 H2269 0.950 . S
C2245 C2244 1.349 . S
C2245 C2261 1.349 . S
C2246 C2244 1.327 . S
C2246 C2265 1.429 . S
C2246 H2270 0.950 . S
C2247 C2264 1.574 . S
C2247 C2266 1.368 . S
C2247 H2271 0.949 . S
H2248 C2252 0.949 . S
C2249 C2250 1.349 . S
C2249 C2251 1.327 . S
C2249 H2272 0.950 . S
C2250 C2249 1.349 . S
C2250 C2262 1.349 . S
C2251 C2249 1.327 . S
C2251 C2267 1.429 . S
C2251 H2273 0.950 . S
C2252 H2248 0.949 . S
C2252 C2260 1.574 . S
C2252 C2268 1.368 . S
H2253 C2261 0.950 . S
H2254 C2259 0.950 . S
H2255 C2260 0.949 . S
H2256 C2262 0.950 . S
H2257 C2263 0.950 . S
H2258 C2264 0.949 . S
C2259 H2254 0.950 . S
C2259 C2261 1.327 . S
C2259 C2265 1.429 . S
C2260 C2252 1.574 . S
C2260 H2255 0.949 . S
C2260 C2266 1.368 . S
C2261 C2245 1.349 . S
C2261 H2253 0.950 . S
C2261 C2259 1.327 . S
C2262 C2250 1.349 . S
C2262 H2256 0.950 . S
C2262 C2263 1.327 . S
C2263 H2257 0.950 . S
C2263 C2262 1.327 . S
C2263 C2267 1.429 . S
C2264 C2247 1.574 . S
C2264 H2258 0.949 . S
C2264 C2268 1.368 . S
C2265 C2246 1.429 . S
C2265 C2259 1.429 . S
C2265 C2266 1.523 . S
C2266 C2247 1.368 . S
C2266 C2260 1.368 . S
C2266 C2265 1.523 . S
C2267 C2251 1.429 . S
C2267 C2263 1.429 . S
C2267 C2268 1.523 . S
C2268 C2252 1.368 . S
C2268 C2264 1.368 . S
C2268 C2267 1.523 . S
H2269 C2244 0.950 . S
H2270 C2246 0.950 . S
H2271 C2247 0.949 . S
H2272 C2249 0.950 . S
H2273 C2251 0.950 . S
C2274 C2275 1.349 . S
C2274 C2276 1.327 . S
C2274 H2299 0.950 . S
C2275 C2274 1.349 . S
C2275 C2291 1.349 . S
C2276 C2274 1.327 . S
C2276 C2295 1.429 . S
C2276 H2300 0.950 . S
C2277 C2294 1.574 . S
C2277 C2296 1.368 . S
C2277 H2301 0.949 . S
H2278 C2282 0.949 . S
C2279 C2280 1.349 . S
C2279 C2281 1.327 . S
C2279 H2302 0.950 . S
C2280 C2279 1.349 . S
C2280 C2292 1.349 . S
C2281 C2279 1.327 . S
C2281 C2297 1.429 . S
C2281 H2303 0.950 . S
C2282 H2278 0.949 . S
C2282 C2290 1.574 . S
C2282 C2298 1.368 . S
H2283 C2291 0.950 . S
H2284 C2289 0.950 . S
H2285 C2290 0.949 . S
H2286 C2292 0.950 . S
H2287 C2293 0.950 . S
H2288 C2294 0.949 . S
C2289 H2284 0.950 . S
C2289 C2291 1.327 . S
C2289 C2295 1.429 . S
C2290 C2282 1.574 . S
C2290 H2285 0.949 . S
C2290 C2296 1.368 . S
C2291 C2275 1.349 . S
C2291 H2283 0.950 . S
C2291 C2289 1.327 . S
C2292 C2280 1.349 . S
C2292 H2286 0.950 . S
C2292 C2293 1.327 . S
C2293 H2287 0.950 . S
C2293 C2292 1.327 . S
C2293 C2297 1.429 . S
C2294 C2277 1.574 . S
C2294 H2288 0.949 . S
C2294 C2298 1.368 . S
C2295 C2276 1.429 . S
C2295 C2289 1.429 . S
C2295 C2296 1.523 . S
C2296 C2277 1.368 . S
C2296 C2290 1.368 . S
C2296 C2295 1.523 . S
C2297 C2281 1.429 . S
C2297 C2293 1.429 . S
C2297 C2298 1.523 . S
C2298 C2282 1.368 . S
C2298 C2294 1.368 . S
C2298 C2297 1.523 . S
H2299 C2274 0.950 . S
H2300 C2276 0.950 . S
H2301 C2277 0.949 . S
H2302 C2279 0.950 . S
H2303 C2281 0.950 . S
C2304 C2305 1.349 . S
C2304 C2306 1.327 . S
C2304 H2329 0.950 . S
C2305 C2304 1.349 . S
C2305 C2321 1.349 . S
C2306 C2304 1.327 . S
C2306 C2325 1.429 . S
C2306 H2330 0.950 . S
C2307 C2324 1.574 . S
C2307 C2326 1.368 . S
C2307 H2331 0.949 . S
H2308 C2312 0.949 . S
C2309 C2310 1.349 . S
C2309 C2311 1.327 . S
C2309 H2332 0.950 . S
C2310 C2309 1.349 . S
C2310 C2322 1.349 . S
C2311 C2309 1.327 . S
C2311 C2327 1.429 . S
C2311 H2333 0.950 . S
C2312 H2308 0.949 . S
C2312 C2320 1.574 . S
C2312 C2328 1.368 . S
H2313 C2321 0.950 . S
H2314 C2319 0.950 . S
H2315 C2320 0.949 . S
H2316 C2322 0.950 . S
H2317 C2323 0.950 . S
H2318 C2324 0.949 . S
C2319 H2314 0.950 . S
C2319 C2321 1.327 . S
C2319 C2325 1.429 . S
C2320 C2312 1.574 . S
C2320 H2315 0.949 . S
C2320 C2326 1.368 . S
C2321 C2305 1.349 . S
C2321 H2313 0.950 . S
C2321 C2319 1.327 . S
C2322 C2310 1.349 . S
C2322 H2316 0.950 . S
C2322 C2323 1.327 . S
C2323 H2317 0.950 . S
C2323 C2322 1.327 . S
C2323 C2327 1.429 . S
C2324 C2307 1.574 . S
C2324 H2318 0.949 . S
C2324 C2328 1.368 . S
C2325 C2306 1.429 . S
C2325 C2319 1.429 . S
C2325 C2326 1.523 . S
C2326 C2307 1.368 . S
C2326 C2320 1.368 . S
C2326 C2325 1.523 . S
C2327 C2311 1.429 . S
C2327 C2323 1.429 . S
C2327 C2328 1.523 . S
C2328 C2312 1.368 . S
C2328 C2324 1.368 . S
C2328 C2327 1.523 . S
H2329 C2304 0.950 . S
H2330 C2306 0.950 . S
H2331 C2307 0.949 . S
H2332 C2309 0.950 . S
H2333 C2311 0.950 . S
C2334 C2335 1.349 . S
C2334 C2336 1.327 . S
C2334 H2359 0.950 . S
C2335 C2334 1.349 . S
C2335 C2351 1.349 . S
C2336 C2334 1.327 . S
C2336 C2355 1.429 . S
C2336 H2360 0.950 . S
C2337 C2354 1.574 . S
C2337 C2356 1.368 . S
C2337 H2361 0.949 . S
H2338 C2342 0.949 . S
C2339 C2340 1.349 . S
C2339 C2341 1.327 . S
C2339 H2362 0.950 . S
C2340 C2339 1.349 . S
C2340 C2352 1.349 . S
C2341 C2339 1.327 . S
C2341 C2357 1.429 . S
C2341 H2363 0.950 . S
C2342 H2338 0.949 . S
C2342 C2350 1.574 . S
C2342 C2358 1.368 . S
H2343 C2351 0.950 . S
H2344 C2349 0.950 . S
H2345 C2350 0.949 . S
H2346 C2352 0.950 . S
H2347 C2353 0.950 . S
H2348 C2354 0.949 . S
C2349 H2344 0.950 . S
C2349 C2351 1.327 . S
C2349 C2355 1.429 . S
C2350 C2342 1.574 . S
C2350 H2345 0.949 . S
C2350 C2356 1.368 . S
C2351 C2335 1.349 . S
C2351 H2343 0.950 . S
C2351 C2349 1.327 . S
C2352 C2340 1.349 . S
C2352 H2346 0.950 . S
C2352 C2353 1.327 . S
C2353 H2347 0.950 . S
C2353 C2352 1.327 . S
C2353 C2357 1.429 . S
C2354 C2337 1.574 . S
C2354 H2348 0.949 . S
C2354 C2358 1.368 . S
C2355 C2336 1.429 . S
C2355 C2349 1.429 . S
C2355 C2356 1.523 . S
C2356 C2337 1.368 . S
C2356 C2350 1.368 . S
C2356 C2355 1.523 . S
C2357 C2341 1.429 . S
C2357 C2353 1.429 . S
C2357 C2358 1.523 . S
C2358 C2342 1.368 . S
C2358 C2354 1.368 . S
C2358 C2357 1.523 . S
H2359 C2334 0.950 . S
H2360 C2336 0.950 . S
H2361 C2337 0.949 . S
H2362 C2339 0.950 . S
H2363 C2341 0.950 . S
C2364 C2365 1.349 . S
C2364 C2366 1.327 . S
C2364 H2389 0.950 . S
C2365 C2364 1.349 . S
C2365 C2381 1.349 . S
C2366 C2364 1.327 . S
C2366 C2385 1.429 . S
C2366 H2390 0.950 . S
C2367 C2384 1.574 . S
C2367 C2386 1.368 . S
C2367 H2391 0.949 . S
H2368 C2372 0.949 . S
C2369 C2370 1.349 . S
C2369 C2371 1.327 . S
C2369 H2392 0.950 . S
C2370 C2369 1.349 . S
C2370 C2382 1.349 . S
C2371 C2369 1.327 . S
C2371 C2387 1.429 . S
C2371 H2393 0.950 . S
C2372 H2368 0.949 . S
C2372 C2380 1.574 . S
C2372 C2388 1.368 . S
H2373 C2381 0.950 . S
H2374 C2379 0.950 . S
H2375 C2380 0.949 . S
H2376 C2382 0.950 . S
H2377 C2383 0.950 . S
H2378 C2384 0.949 . S
C2379 H2374 0.950 . S
C2379 C2381 1.327 . S
C2379 C2385 1.429 . S
C2380 C2372 1.574 . S
C2380 H2375 0.949 . S
C2380 C2386 1.368 . S
C2381 C2365 1.349 . S
C2381 H2373 0.950 . S
C2381 C2379 1.327 . S
C2382 C2370 1.349 . S
C2382 H2376 0.950 . S
C2382 C2383 1.327 . S
C2383 H2377 0.950 . S
C2383 C2382 1.327 . S
C2383 C2387 1.429 . S
C2384 C2367 1.574 . S
C2384 H2378 0.949 . S
C2384 C2388 1.368 . S
C2385 C2366 1.429 . S
C2385 C2379 1.429 . S
C2385 C2386 1.523 . S
C2386 C2367 1.368 . S
C2386 C2380 1.368 . S
C2386 C2385 1.523 . S
C2387 C2371 1.429 . S
C2387 C2383 1.429 . S
C2387 C2388 1.523 . S
C2388 C2372 1.368 . S
C2388 C2384 1.368 . S
C2388 C2387 1.523 . S
H2389 C2364 0.950 . S
H2390 C2366 0.950 . S
H2391 C2367 0.949 . S
H2392 C2369 0.950 . S
H2393 C2371 0.950 . S
C2394 C2395 1.349 . S
C2394 C2396 1.327 . S
C2394 H2419 0.950 . S
C2395 C2394 1.349 . S
C2395 C2411 1.349 . S
C2396 C2394 1.327 . S
C2396 C2415 1.429 . S
C2396 H2420 0.950 . S
C2397 C2414 1.574 . S
C2397 C2416 1.368 . S
C2397 H2421 0.949 . S
H2398 C2402 0.949 . S
C2399 C2400 1.349 . S
C2399 C2401 1.327 . S
C2399 H2422 0.950 . S
C2400 C2399 1.349 . S
C2400 C2412 1.349 . S
C2401 C2399 1.327 . S
C2401 C2417 1.429 . S
C2401 H2423 0.950 . S
C2402 H2398 0.949 . S
C2402 C2410 1.574 . S
C2402 C2418 1.368 . S
H2403 C2411 0.950 . S
H2404 C2409 0.950 . S
H2405 C2410 0.949 . S
H2406 C2412 0.950 . S
H2407 C2413 0.950 . S
H2408 C2414 0.949 . S
C2409 H2404 0.950 . S
C2409 C2411 1.327 . S
C2409 C2415 1.429 . S
C2410 C2402 1.574 . S
C2410 H2405 0.949 . S
C2410 C2416 1.368 . S
C2411 C2395 1.349 . S
C2411 H2403 0.950 . S
C2411 C2409 1.327 . S
C2412 C2400 1.349 . S
C2412 H2406 0.950 . S
C2412 C2413 1.327 . S
C2413 H2407 0.950 . S
C2413 C2412 1.327 . S
C2413 C2417 1.429 . S
C2414 C2397 1.574 . S
C2414 H2408 0.949 . S
C2414 C2418 1.368 . S
C2415 C2396 1.429 . S
C2415 C2409 1.429 . S
C2415 C2416 1.523 . S
C2416 C2397 1.368 . S
C2416 C2410 1.368 . S
C2416 C2415 1.523 . S
C2417 C2401 1.429 . S
C2417 C2413 1.429 . S
C2417 C2418 1.523 . S
C2418 C2402 1.368 . S
C2418 C2414 1.368 . S
C2418 C2417 1.523 . S
H2419 C2394 0.950 . S
H2420 C2396 0.950 . S
H2421 C2397 0.949 . S
H2422 C2399 0.950 . S
H2423 C2401 0.950 . S
C2424 C2425 1.349 . S
C2424 C2426 1.327 . S
C2424 H2449 0.950 . S
C2425 C2424 1.349 . S
C2425 C2441 1.349 . S
C2426 C2424 1.327 . S
C2426 C2445 1.429 . S
C2426 H2450 0.950 . S
C2427 C2444 1.574 . S
C2427 C2446 1.368 . S
C2427 H2451 0.949 . S
H2428 C2432 0.949 . S
C2429 C2430 1.349 . S
C2429 C2431 1.327 . S
C2429 H2452 0.950 . S
C2430 C2429 1.349 . S
C2430 C2442 1.349 . S
C2431 C2429 1.327 . S
C2431 C2447 1.429 . S
C2431 H2453 0.950 . S
C2432 H2428 0.949 . S
C2432 C2440 1.574 . S
C2432 C2448 1.368 . S
H2433 C2441 0.950 . S
H2434 C2439 0.950 . S
H2435 C2440 0.949 . S
H2436 C2442 0.950 . S
H2437 C2443 0.950 . S
H2438 C2444 0.949 . S
C2439 H2434 0.950 . S
C2439 C2441 1.327 . S
C2439 C2445 1.429 . S
C2440 C2432 1.574 . S
C2440 H2435 0.949 . S
C2440 C2446 1.368 . S
C2441 C2425 1.349 . S
C2441 H2433 0.950 . S
C2441 C2439 1.327 . S
C2442 C2430 1.349 . S
C2442 H2436 0.950 . S
C2442 C2443 1.327 . S
C2443 H2437 0.950 . S
C2443 C2442 1.327 . S
C2443 C2447 1.429 . S
C2444 C2427 1.574 . S
C2444 H2438 0.949 . S
C2444 C2448 1.368 . S
C2445 C2426 1.429 . S
C2445 C2439 1.429 . S
C2445 C2446 1.523 . S
C2446 C2427 1.368 . S
C2446 C2440 1.368 . S
C2446 C2445 1.523 . S
C2447 C2431 1.429 . S
C2447 C2443 1.429 . S
C2447 C2448 1.523 . S
C2448 C2432 1.368 . S
C2448 C2444 1.368 . S
C2448 C2447 1.523 . S
H2449 C2424 0.950 . S
H2450 C2426 0.950 . S
H2451 C2427 0.949 . S
H2452 C2429 0.950 . S
H2453 C2431 0.950 . S
C2454 C2455 1.349 . S
C2454 C2456 1.327 . S
C2454 H2479 0.950 . S
C2455 C2454 1.349 . S
C2455 C2471 1.349 . S
C2456 C2454 1.327 . S
C2456 C2475 1.429 . S
C2456 H2480 0.950 . S
C2457 C2474 1.574 . S
C2457 C2476 1.368 . S
C2457 H2481 0.949 . S
H2458 C2462 0.949 . S
C2459 C2460 1.349 . S
C2459 C2461 1.327 . S
C2459 H2482 0.950 . S
C2460 C2459 1.349 . S
C2460 C2472 1.349 . S
C2461 C2459 1.327 . S
C2461 C2477 1.429 . S
C2461 H2483 0.950 . S
C2462 H2458 0.949 . S
C2462 C2470 1.574 . S
C2462 C2478 1.368 . S
H2463 C2471 0.950 . S
H2464 C2469 0.950 . S
H2465 C2470 0.949 . S
H2466 C2472 0.950 . S
H2467 C2473 0.950 . S
H2468 C2474 0.949 . S
C2469 H2464 0.950 . S
C2469 C2471 1.327 . S
C2469 C2475 1.429 . S
C2470 C2462 1.574 . S
C2470 H2465 0.949 . S
C2470 C2476 1.368 . S
C2471 C2455 1.349 . S
C2471 H2463 0.950 . S
C2471 C2469 1.327 . S
C2472 C2460 1.349 . S
C2472 H2466 0.950 . S
C2472 C2473 1.327 . S
C2473 H2467 0.950 . S
C2473 C2472 1.327 . S
C2473 C2477 1.429 . S
C2474 C2457 1.574 . S
C2474 H2468 0.949 . S
C2474 C2478 1.368 . S
C2475 C2456 1.429 . S
C2475 C2469 1.429 . S
C2475 C2476 1.523 . S
C2476 C2457 1.368 . S
C2476 C2470 1.368 . S
C2476 C2475 1.523 . S
C2477 C2461 1.429 . S
C2477 C2473 1.429 . S
C2477 C2478 1.523 . S
C2478 C2462 1.368 . S
C2478 C2474 1.368 . S
C2478 C2477 1.523 . S
H2479 C2454 0.950 . S
H2480 C2456 0.950 . S
H2481 C2457 0.949 . S
H2482 C2459 0.950 . S
H2483 C2461 0.950 . S
C2484 C2485 1.349 . S
C2484 C2486 1.327 . S
C2484 H2509 0.950 . S
C2485 C2484 1.349 . S
C2485 C2501 1.349 . S
C2486 C2484 1.327 . S
C2486 C2505 1.429 . S
C2486 H2510 0.950 . S
C2487 C2504 1.574 . S
C2487 C2506 1.368 . S
C2487 H2511 0.949 . S
H2488 C2492 0.949 . S
C2489 C2490 1.349 . S
C2489 C2491 1.327 . S
C2489 H2512 0.950 . S
C2490 C2489 1.349 . S
C2490 C2502 1.349 . S
C2491 C2489 1.327 . S
C2491 C2507 1.429 . S
C2491 H2513 0.950 . S
C2492 H2488 0.949 . S
C2492 C2500 1.574 . S
C2492 C2508 1.368 . S
H2493 C2501 0.950 . S
H2494 C2499 0.950 . S
H2495 C2500 0.949 . S
H2496 C2502 0.950 . S
H2497 C2503 0.950 . S
H2498 C2504 0.949 . S
C2499 H2494 0.950 . S
C2499 C2501 1.327 . S
C2499 C2505 1.429 . S
C2500 C2492 1.574 . S
C2500 H2495 0.949 . S
C2500 C2506 1.368 . S
C2501 C2485 1.349 . S
C2501 H2493 0.950 . S
C2501 C2499 1.327 . S
C2502 C2490 1.349 . S
C2502 H2496 0.950 . S
C2502 C2503 1.327 . S
C2503 H2497 0.950 . S
C2503 C2502 1.327 . S
C2503 C2507 1.429 . S
C2504 C2487 1.574 . S
C2504 H2498 0.949 . S
C2504 C2508 1.368 . S
C2505 C2486 1.429 . S
C2505 C2499 1.429 . S
C2505 C2506 1.523 . S
C2506 C2487 1.368 . S
C2506 C2500 1.368 . S
C2506 C2505 1.523 . S
C2507 C2491 1.429 . S
C2507 C2503 1.429 . S
C2507 C2508 1.523 . S
C2508 C2492 1.368 . S
C2508 C2504 1.368 . S
C2508 C2507 1.523 . S
H2509 C2484 0.950 . S
H2510 C2486 0.950 . S
H2511 C2487 0.949 . S
H2512 C2489 0.950 . S
H2513 C2491 0.950 . S
C2514 C2515 1.349 . S
C2514 C2516 1.327 . S
C2514 H2539 0.950 . S
C2515 C2514 1.349 . S
C2515 C2531 1.349 . S
C2516 C2514 1.327 . S
C2516 C2535 1.429 . S
C2516 H2540 0.950 . S
C2517 C2534 1.574 . S
C2517 C2536 1.368 . S
C2517 H2541 0.949 . S
H2518 C2522 0.949 . S
C2519 C2520 1.349 . S
C2519 C2521 1.327 . S
C2519 H2542 0.950 . S
C2520 C2519 1.349 . S
C2520 C2532 1.349 . S
C2521 C2519 1.327 . S
C2521 C2537 1.429 . S
C2521 H2543 0.950 . S
C2522 H2518 0.949 . S
C2522 C2530 1.574 . S
C2522 C2538 1.368 . S
H2523 C2531 0.950 . S
H2524 C2529 0.950 . S
H2525 C2530 0.949 . S
H2526 C2532 0.950 . S
H2527 C2533 0.950 . S
H2528 C2534 0.949 . S
C2529 H2524 0.950 . S
C2529 C2531 1.327 . S
C2529 C2535 1.429 . S
C2530 C2522 1.574 . S
C2530 H2525 0.949 . S
C2530 C2536 1.368 . S
C2531 C2515 1.349 . S
C2531 H2523 0.950 . S
C2531 C2529 1.327 . S
C2532 C2520 1.349 . S
C2532 H2526 0.950 . S
C2532 C2533 1.327 . S
C2533 H2527 0.950 . S
C2533 C2532 1.327 . S
C2533 C2537 1.429 . S
C2534 C2517 1.574 . S
C2534 H2528 0.949 . S
C2534 C2538 1.368 . S
C2535 C2516 1.429 . S
C2535 C2529 1.429 . S
C2535 C2536 1.523 . S
C2536 C2517 1.368 . S
C2536 C2530 1.368 . S
C2536 C2535 1.523 . S
C2537 C2521 1.429 . S
C2537 C2533 1.429 . S
C2537 C2538 1.523 . S
C2538 C2522 1.368 . S
C2538 C2534 1.368 . S
C2538 C2537 1.523 . S
H2539 C2514 0.950 . S
H2540 C2516 0.950 . S
H2541 C2517 0.949 . S
H2542 C2519 0.950 . S
H2543 C2521 0.950 . S
C2544 C2545 1.349 . S
C2544 C2546 1.327 . S
C2544 H2569 0.950 . S
C2545 C2544 1.349 . S
C2545 C2561 1.349 . S
C2546 C2544 1.327 . S
C2546 C2565 1.429 . S
C2546 H2570 0.950 . S
C2547 C2564 1.574 . S
C2547 C2566 1.368 . S
C2547 H2571 0.949 . S
H2548 C2552 0.949 . S
C2549 C2550 1.349 . S
C2549 C2551 1.327 . S
C2549 H2572 0.950 . S
C2550 C2549 1.349 . S
C2550 C2562 1.349 . S
C2551 C2549 1.327 . S
C2551 C2567 1.429 . S
C2551 H2573 0.950 . S
C2552 H2548 0.949 . S
C2552 C2560 1.574 . S
C2552 C2568 1.368 . S
H2553 C2561 0.950 . S
H2554 C2559 0.950 . S
H2555 C2560 0.949 . S
H2556 C2562 0.950 . S
H2557 C2563 0.950 . S
H2558 C2564 0.949 . S
C2559 H2554 0.950 . S
C2559 C2561 1.327 . S
C2559 C2565 1.429 . S
C2560 C2552 1.574 . S
C2560 H2555 0.949 . S
C2560 C2566 1.368 . S
C2561 C2545 1.349 . S
C2561 H2553 0.950 . S
C2561 C2559 1.327 . S
C2562 C2550 1.349 . S
C2562 H2556 0.950 . S
C2562 C2563 1.327 . S
C2563 H2557 0.950 . S
C2563 C2562 1.327 . S
C2563 C2567 1.429 . S
C2564 C2547 1.574 . S
C2564 H2558 0.949 . S
C2564 C2568 1.368 . S
C2565 C2546 1.429 . S
C2565 C2559 1.429 . S
C2565 C2566 1.523 . S
C2566 C2547 1.368 . S
C2566 C2560 1.368 . S
C2566 C2565 1.523 . S
C2567 C2551 1.429 . S
C2567 C2563 1.429 . S
C2567 C2568 1.523 . S
C2568 C2552 1.368 . S
C2568 C2564 1.368 . S
C2568 C2567 1.523 . S
H2569 C2544 0.950 . S
H2570 C2546 0.950 . S
H2571 C2547 0.949 . S
H2572 C2549 0.950 . S
H2573 C2551 0.950 . S
C2574 C2575 1.349 . S
C2574 C2576 1.327 . S
C2574 H2599 0.950 . S
C2575 C2574 1.349 . S
C2575 C2591 1.349 . S
C2576 C2574 1.327 . S
C2576 C2595 1.429 . S
C2576 H2600 0.950 . S
C2577 C2594 1.574 . S
C2577 C2596 1.368 . S
C2577 H2601 0.949 . S
H2578 C2582 0.949 . S
C2579 C2580 1.349 . S
C2579 C2581 1.327 . S
C2579 H2602 0.950 . S
C2580 C2579 1.349 . S
C2580 C2592 1.349 . S
C2581 C2579 1.327 . S
C2581 C2597 1.429 . S
C2581 H2603 0.950 . S
C2582 H2578 0.949 . S
C2582 C2590 1.574 . S
C2582 C2598 1.368 . S
H2583 C2591 0.950 . S
H2584 C2589 0.950 . S
H2585 C2590 0.949 . S
H2586 C2592 0.950 . S
H2587 C2593 0.950 . S
H2588 C2594 0.949 . S
C2589 H2584 0.950 . S
C2589 C2591 1.327 . S
C2589 C2595 1.429 . S
C2590 C2582 1.574 . S
C2590 H2585 0.949 . S
C2590 C2596 1.368 . S
C2591 C2575 1.349 . S
C2591 H2583 0.950 . S
C2591 C2589 1.327 . S
C2592 C2580 1.349 . S
C2592 H2586 0.950 . S
C2592 C2593 1.327 . S
C2593 H2587 0.950 . S
C2593 C2592 1.327 . S
C2593 C2597 1.429 . S
C2594 C2577 1.574 . S
C2594 H2588 0.949 . S
C2594 C2598 1.368 . S
C2595 C2576 1.429 . S
C2595 C2589 1.429 . S
C2595 C2596 1.523 . S
C2596 C2577 1.368 . S
C2596 C2590 1.368 . S
C2596 C2595 1.523 . S
C2597 C2581 1.429 . S
C2597 C2593 1.429 . S
C2597 C2598 1.523 . S
C2598 C2582 1.368 . S
C2598 C2594 1.368 . S
C2598 C2597 1.523 . S
H2599 C2574 0.950 . S
H2600 C2576 0.950 . S
H2601 C2577 0.949 . S
H2602 C2579 0.950 . S
H2603 C2581 0.950 . S
C2604 C2605 1.349 . S
C2604 C2606 1.327 . S
C2604 H2629 0.950 . S
C2605 C2604 1.349 . S
C2605 C2621 1.349 . S
C2606 C2604 1.327 . S
C2606 C2625 1.429 . S
C2606 H2630 0.950 . S
C2607 C2624 1.574 . S
C2607 C2626 1.368 . S
C2607 H2631 0.949 . S
H2608 C2612 0.949 . S
C2609 C2610 1.349 . S
C2609 C2611 1.327 . S
C2609 H2632 0.950 . S
C2610 C2609 1.349 . S
C2610 C2622 1.349 . S
C2611 C2609 1.327 . S
C2611 C2627 1.429 . S
C2611 H2633 0.950 . S
C2612 H2608 0.949 . S
C2612 C2620 1.574 . S
C2612 C2628 1.368 . S
H2613 C2621 0.950 . S
H2614 C2619 0.950 . S
H2615 C2620 0.949 . S
H2616 C2622 0.950 . S
H2617 C2623 0.950 . S
H2618 C2624 0.949 . S
C2619 H2614 0.950 . S
C2619 C2621 1.327 . S
C2619 C2625 1.429 . S
C2620 C2612 1.574 . S
C2620 H2615 0.949 . S
C2620 C2626 1.368 . S
C2621 C2605 1.349 . S
C2621 H2613 0.950 . S
C2621 C2619 1.327 . S
C2622 C2610 1.349 . S
C2622 H2616 0.950 . S
C2622 C2623 1.327 . S
C2623 H2617 0.950 . S
C2623 C2622 1.327 . S
C2623 C2627 1.429 . S
C2624 C2607 1.574 . S
C2624 H2618 0.949 . S
C2624 C2628 1.368 . S
C2625 C2606 1.429 . S
C2625 C2619 1.429 . S
C2625 C2626 1.523 . S
C2626 C2607 1.368 . S
C2626 C2620 1.368 . S
C2626 C2625 1.523 . S
C2627 C2611 1.429 . S
C2627 C2623 1.429 . S
C2627 C2628 1.523 . S
C2628 C2612 1.368 . S
C2628 C2624 1.368 . S
C2628 C2627 1.523 . S
H2629 C2604 0.950 . S
H2630 C2606 0.950 . S
H2631 C2607 0.949 . S
H2632 C2609 0.950 . S
H2633 C2611 0.950 . S
C2634 C2635 1.349 . S
C2634 C2636 1.327 . S
C2634 H2659 0.950 . S
C2635 C2634 1.349 . S
C2635 C2651 1.349 . S
C2636 C2634 1.327 . S
C2636 C2655 1.429 . S
C2636 H2660 0.950 . S
C2637 C2654 1.574 . S
C2637 C2656 1.368 . S
C2637 H2661 0.949 . S
H2638 C2642 0.949 . S
C2639 C2640 1.349 . S
C2639 C2641 1.327 . S
C2639 H2662 0.950 . S
C2640 C2639 1.349 . S
C2640 C2652 1.349 . S
C2641 C2639 1.327 . S
C2641 C2657 1.429 . S
C2641 H2663 0.950 . S
C2642 H2638 0.949 . S
C2642 C2650 1.574 . S
C2642 C2658 1.368 . S
H2643 C2651 0.950 . S
H2644 C2649 0.950 . S
H2645 C2650 0.949 . S
H2646 C2652 0.950 . S
H2647 C2653 0.950 . S
H2648 C2654 0.949 . S
C2649 H2644 0.950 . S
C2649 C2651 1.327 . S
C2649 C2655 1.429 . S
C2650 C2642 1.574 . S
C2650 H2645 0.949 . S
C2650 C2656 1.368 . S
C2651 C2635 1.349 . S
C2651 H2643 0.950 . S
C2651 C2649 1.327 . S
C2652 C2640 1.349 . S
C2652 H2646 0.950 . S
C2652 C2653 1.327 . S
C2653 H2647 0.950 . S
C2653 C2652 1.327 . S
C2653 C2657 1.429 . S
C2654 C2637 1.574 . S
C2654 H2648 0.949 . S
C2654 C2658 1.368 . S
C2655 C2636 1.429 . S
C2655 C2649 1.429 . S
C2655 C2656 1.523 . S
C2656 C2637 1.368 . S
C2656 C2650 1.368 . S
C2656 C2655 1.523 . S
C2657 C2641 1.429 . S
C2657 C2653 1.429 . S
C2657 C2658 1.523 . S
C2658 C2642 1.368 . S
C2658 C2654 1.368 . S
C2658 C2657 1.523 . S
H2659 C2634 0.950 . S
H2660 C2636 0.950 . S
H2661 C2637 0.949 . S
H2662 C2639 0.950 . S
H2663 C2641 0.950 . S
C505 C78 1.504 . S
C510 C8 1.504 . S
C535 C50 1.504 . S
C540 C22 1.504 . S
C565 C36 1.504 . S
C570 C64 1.504 . S
C595 C92 1.504 . S
C600 C162 1.504 . S
C625 C106 1.504 . S
C630 C134 1.504 . S
C655 C148 1.504 . S
C660 C120 1.504 . S
C685 C176 1.504 . S
C690 C246 1.504 1_556 S
C715 C190 1.504 . S
C720 C218 1.504 1_556 S
C745 C204 1.504 . S
C750 C232 1.504 1_556 S
C775 C330 1.504 . S
C780 C260 1.504 1_556 S
C805 C274 1.504 1_556 S
C810 C302 1.504 . S
C835 C316 1.504 . S
C840 C288 1.504 1_556 S
C865 C414 1.504 . S
C870 C344 1.504 1_554 S
C895 C386 1.504 . S
C900 C358 1.504 1_554 S
C925 C400 1.504 . S
C930 C372 1.504 1_554 S
C955 C428 1.504 . S
C960 C498 1.504 1_554 S
C985 C442 1.504 . S
C990 C470 1.504 1_554 S
C1015 C456 1.504 . S
C1020 C484 1.504 1_554 S
C1045 C77 1.527 . S
C1050 C7 1.527 . S
C1075 C21 1.527 . S
C1080 C49 1.527 . S
C1105 C63 1.527 . S
C1110 C35 1.527 . S
C1135 C91 1.527 . S
C1140 C161 1.527 . S
C1165 C105 1.527 . S
C1170 C133 1.527 . S
C1195 C147 1.527 . S
C1200 C119 1.527 . S
C1225 C175 1.527 . S
C1230 C245 1.527 . S
C1255 C217 1.527 . S
C1260 C189 1.527 . S
C1285 C231 1.527 . S
C1290 C203 1.527 . S
C1315 C259 1.527 . S
C1320 C329 1.527 . S
C1345 C273 1.527 . S
C1350 C301 1.527 . S
C1375 C315 1.527 . S
C1380 C287 1.527 . S
C1405 C413 1.527 . S
C1410 C343 1.527 . S
C1435 C357 1.527 . S
C1440 C385 1.527 . S
C1465 C371 1.527 . S
C1470 C399 1.527 . S
C1495 C497 1.527 . S
C1500 C427 1.527 . S
C1525 C469 1.527 . S
C1530 C441 1.527 . S
C1555 C483 1.527 . S
C1560 C455 1.527 . S
C1585 C233 1.685 . S
C1590 C9 1.685 . S
C1615 C247 1.685 . S
C1620 C23 1.685 . S
C1645 C219 1.684 . S
C1650 C37 1.684 . S
C1675 C51 1.685 . S
C1680 C373 1.685 . S
C1705 C65 1.684 . S
C1710 C345 1.684 . S
C1735 C79 1.685 . S
C1740 C359 1.685 . S
C1765 C93 1.685 . S
C1770 C485 1.685 . S
C1795 C107 1.685 . S
C1800 C499 1.685 . S
C1825 C121 1.684 . S
C1830 C471 1.684 . S
C1855 C135 1.685 . S
C1860 C289 1.685 . S
C1885 C261 1.684 . S
C1890 C149 1.684 . S
C1915 C275 1.684 . S
C1920 C163 1.684 . S
C1945 C401 1.685 . S
C1950 C177 1.685 . S
C1975 C191 1.685 . S
C1980 C415 1.685 . S
C2005 C205 1.685 . S
C2010 C387 1.685 . S
C2035 C303 1.685 . S
C2040 C457 1.685 . S
C2065 C317 1.685 . S
C2070 C429 1.685 . S
C2095 C443 1.684 . S
C2100 C331 1.684 . S
C2125 C3 1.243 . S
C2130 C143 1.243 . S
C2155 C157 1.243 . S
C2160 C17 1.243 . S
C2185 C129 1.243 . S
C2190 C31 1.243 . S
C2215 C45 1.243 . S
C2220 C115 1.243 . S
C2245 C59 1.243 . S
C2250 C87 1.243 . S
C2275 C73 1.243 . S
C2280 C101 1.243 . S
C2305 C171 1.243 . S
C2310 C311 1.243 . S
C2335 C325 1.243 . S
C2340 C185 1.243 . S
C2365 C297 1.243 . S
C2370 C199 1.243 . S
C2395 C213 1.243 . S
C2400 C283 1.243 . S
C2425 C227 1.243 . S
C2430 C255 1.243 . S
C2455 C269 1.243 . S
C2460 C241 1.243 . S
C2485 C339 1.243 . S
C2490 C479 1.243 . S
C2515 C493 1.243 . S
C2520 C353 1.243 . S
C2545 C367 1.243 . S
C2550 C465 1.243 . S
C2575 C381 1.243 . S
C2580 C451 1.243 . S
C2605 C423 1.243 . S
C2610 C395 1.243 . S
C2635 C409 1.243 . S
C2640 C437 1.243 . S
