# Generated by pormake.
# Topology bsn, (6)-cn, num edge types: 1
# Building blocks:
#     Node 0, Type 0, BuildingBlock: FUNLAD_clean_sbu_0, # of connection points: 6
#     Node 1, Type 0, BuildingBlock: FUNLAD_clean_sbu_0, # of connection points: 6
#     Node 2, Type 0, BuildingBlock: FUNLAD_clean_sbu_0, # of connection points: 6
#     Node 3, Type 0, BuildingBlock: FUNLAD_clean_sbu_0, # of connection points: 6
#     Edge 4, Type (0, 0), BuildingBlock: TEMPAE_clean_linker_10, # of connection points: 2
#     Edge 5, Type (0, 0), BuildingBlock: TEMPAE_clean_linker_10, # of connection points: 2
#     Edge 6, Type (0, 0), BuildingBlock: TEMPAE_clean_linker_10, # of connection points: 2
#     Edge 7, Type (0, 0), BuildingBlock: TEMPAE_clean_linker_10, # of connection points: 2
#     Edge 8, Type (0, 0), BuildingBlock: TEMPAE_clean_linker_10, # of connection points: 2
#     Edge 9, Type (0, 0), BuildingBlock: TEMPAE_clean_linker_10, # of connection points: 2
#     Edge 10, Type (0, 0), BuildingBlock: TEMPAE_clean_linker_10, # of connection points: 2
#     Edge 11, Type (0, 0), BuildingBlock: TEMPAE_clean_linker_10, # of connection points: 2
#     Edge 12, Type (0, 0), BuildingBlock: TEMPAE_clean_linker_10, # of connection points: 2
#     Edge 13, Type (0, 0), BuildingBlock: TEMPAE_clean_linker_10, # of connection points: 2
#     Edge 14, Type (0, 0), BuildingBlock: TEMPAE_clean_linker_10, # of connection points: 2
#     Edge 15, Type (0, 0), BuildingBlock: TEMPAE_clean_linker_10, # of connection points: 2
# Relax obj value: 0.463
# Max RMSD: 0.273
# Mean RMSD: 0.273
data_MOF--net-bsn--node1-FUNLAD_clean_sbu_0--edge1-TEMPAE_clean_linker_10
_symmetry_space_group_name_H-M    P1
_symmetry_Int_Tables_number       1
_symmetry_cell_setting            triclinic
loop_
_symmetry_equiv_pos_as_xyz
'x, y, z'
_cell_length_a     27.961511
_cell_length_b     27.963893
_cell_length_c     21.102304
_cell_angle_alpha  91.231891
_cell_angle_beta   93.124768
_cell_angle_gamma 93.9034
loop_
_atom_site_label
_atom_site_type_symbol
_atom_site_fract_x
_atom_site_fract_y
_atom_site_fract_z
_atom_type_partial_charge
C0 C 0.1522 0.31692 0.33531 0.0
N1 N 1.02848 0.32197 0.22627 0.0
C2 C 0.05346 0.35865 0.19883 0.0
C3 C 0.05486 0.35988 0.13315 0.0
C4 C 1.03024 0.32304 0.0958 0.0
C5 C 1.00096 0.28826 0.12501 0.0
C6 C 1.00069 0.28833 0.19103 0.0
Zn7 Zn 0.04383 0.31115 0.31904 0.0
C8 C 0.06192 0.20389 0.34295 0.0
N9 N 0.08604 0.27981 0.50469 0.0
C10 C 0.11744 0.3119 0.53719 0.0
C11 C 0.06083 0.24456 0.53463 0.0
C12 C 0.06384 0.24307 0.60067 0.0
C13 C 0.09297 0.2783 0.63556 0.0
C14 C 0.1216 0.3117 0.60312 0.0
Zn15 Zn 0.07034 0.29134 0.41224 0.0
O16 O 0.11513 0.31745 0.29863 0.0
C17 C 0.04906 0.39561 0.40386 0.0
O18 O 0.14688 0.30937 0.39409 0.0
H19 H 0.03624 0.21937 0.50754 0.0
H20 H 0.07537 0.38487 0.22795 0.0
H21 H 0.13702 0.33959 0.51218 0.0
O22 O 0.04422 0.38867 0.34375 0.0
O23 O 0.05926 0.36092 0.43812 0.0
H24 H 0.98105 0.25962 0.21412 0.0
O25 O 0.9911 0.27091 0.42233 0.0
O26 O 0.97375 0.30623 0.33315 0.0
O27 O 0.08179 0.22306 0.39284 0.0
O28 O 0.04103 0.23034 0.30258 0.0
C29 C 0.95982 0.28443 0.38093 0.0
H30 H 0.07725 0.38766 0.112 0.0
H31 H 0.98152 0.25926 0.09759 0.0
H32 H 0.04108 0.21685 0.6241 0.0
H33 H 0.14497 0.33898 0.62857 0.0
C34 C 0.14133 0.81466 0.64556 0.0
N35 N 0.06242 0.77315 0.47429 0.0
C36 C 0.09242 0.80296 0.44222 0.0
C37 C 0.09236 0.7995 0.37636 0.0
C38 C 0.06098 0.76514 0.34342 0.0
C39 C 1.03263 0.73278 0.37792 0.0
C40 C 0.03398 0.73741 0.44393 0.0
Zn41 Zn 0.05432 0.789 0.56677 0.0
C42 C 0.04504 0.70643 0.63357 0.0
N43 N 1.02147 0.82971 0.74723 0.0
C44 C 0.05162 0.85965 0.78502 0.0
C45 C 0.98656 0.80059 0.77185 0.0
C46 C 0.98338 0.79799 0.83718 0.0
C47 C 1.01675 0.82525 0.87748 0.0
C48 C 0.04988 0.85798 0.85095 0.0
Zn49 Zn 0.03431 0.81743 0.65488 0.0
O50 O 0.1318 0.80679 0.58616 0.0
C51 C 0.04083 0.8965 0.57118 0.0
O52 O 0.10681 0.81768 0.68135 0.0
H53 H 0.96311 0.77691 0.74106 0.0
H54 H 0.11433 0.83138 0.4674 0.0
H55 H 0.07916 0.88236 0.76427 0.0
O56 O 0.04276 0.85787 0.53964 0.0
O57 O 0.04159 0.89448 0.63176 0.0
H58 H 1.01063 0.714 0.47062 0.0
O59 O 0.96297 0.81931 0.63349 0.0
O60 O 0.97411 0.76774 0.55767 0.0
O61 O 1.02505 0.73618 0.66912 0.0
O62 O 0.06707 0.72203 0.5873 0.0
C63 C 0.94546 0.7887 0.5928 0.0
H64 H 0.11432 0.82545 0.35134 0.0
H65 H 1.00833 0.70554 0.35395 0.0
H66 H 0.95684 0.7729 0.85602 0.0
H67 H 0.07631 0.87947 0.88067 0.0
C68 C 0.64984 0.74795 0.83482 0.0
N69 N 0.53062 0.74143 0.71791 0.0
C70 C 0.55628 0.77602 0.68736 0.0
C71 C 0.56159 0.77169 0.6227 0.0
C72 C 0.53993 0.73164 0.58911 0.0
C73 C 0.51085 0.69792 0.62034 0.0
C74 C 0.50693 0.70339 0.68584 0.0
Zn75 Zn 0.54058 0.74509 0.81324 0.0
C76 C 0.5418 0.65834 0.8813 0.0
N77 N 0.57768 0.77071 0.00235 0.0
C78 C 0.61933 0.78879 0.03296 0.0
C79 C 0.54125 0.74984 0.03443 0.0
C80 C 0.5467 0.74409 0.09935 0.0
C81 C 0.58977 0.76062 0.13176 0.0
C82 C 0.62604 0.78447 0.09869 0.0
Zn83 Zn 0.56819 0.76543 0.90697 0.0
O84 O 0.61295 0.74745 0.79775 0.0
C85 C 0.56133 0.85464 0.85715 0.0
O86 O 0.64466 0.75237 0.89437 0.0
H87 H 0.50856 0.73552 0.00924 0.0
H88 H 0.57553 0.80547 0.7138 0.0
H89 H 0.64779 0.80508 0.00622 0.0
O90 O 0.53867 0.82673 0.81484 0.0
O91 O 0.58563 0.83633 0.90101 0.0
H92 H 0.48713 0.67618 0.71141 0.0
O93 O 0.48907 0.78108 0.91054 0.0
O94 O 0.46927 0.74074 0.82184 0.0
O95 O 0.55157 0.69345 0.91928 0.0
O96 O 0.53913 0.66615 0.82186 0.0
C97 C 0.45679 0.76466 0.86852 0.0
H98 H 0.58392 0.79845 0.59949 0.0
H99 H 0.49362 0.66669 0.59511 0.0
H100 H 0.51781 0.72616 0.12395 0.0
H101 H 0.65956 0.79789 0.12296 0.0
C102 C 0.64105 0.25184 0.15086 0.0
N103 N 0.55899 0.27578 0.98058 0.0
C104 C 0.59291 0.30448 0.95331 0.0
C105 C 0.58758 0.31435 0.88876 0.0
C106 C 0.54705 0.29429 0.85287 0.0
C107 C 0.51392 0.26335 0.88199 0.0
C108 C 0.52033 0.25498 0.94612 0.0
Zn109 Zn 0.55608 0.26835 0.07499 0.0
C110 C 0.53165 0.16221 0.09644 0.0
N111 N 0.52414 0.25143 0.25937 0.0
C112 C 0.55153 0.2863 0.29285 0.0
C113 C 0.48975 0.22355 0.28696 0.0
C114 C 0.48131 0.23116 0.35094 0.0
C115 C 0.50869 0.26768 0.38597 0.0
C116 C 0.54472 0.29473 0.35642 0.0
Zn117 Zn 0.53339 0.25075 0.1655 0.0
O118 O 0.6324 0.25291 0.09075 0.0
C119 C 0.55365 0.35884 0.12765 0.0
O120 O 0.60646 0.2548 0.18642 0.0
H121 H 0.46803 0.19646 0.259 0.0
H122 H 0.62302 0.32109 0.98199 0.0
H123 H 0.57813 0.30861 0.26985 0.0
O124 O 0.57676 0.3388 0.0866 0.0
O125 O 0.53046 0.33236 0.16602 0.0
H126 H 0.49327 0.23303 0.96878 0.0
O127 O 0.46143 0.24405 0.14999 0.0
O128 O 0.47738 0.28679 0.0677 0.0
O129 O 0.53362 0.17208 0.15602 0.0
O130 O 0.53697 0.19616 0.0584 0.0
C131 C 0.44679 0.26933 0.10557 0.0
H132 H 0.61395 0.33834 0.86768 0.0
H133 H 0.48288 0.24612 0.85561 0.0
H134 H 0.45318 0.20955 0.37231 0.0
H135 H 0.5675 0.32233 0.38214 0.0
C136 C 0.05159 0.48652 0.41499 0.0
C137 C 0.0395 0.4409 0.43787 0.0
C138 C 0.0481 0.528 0.4537 0.0
C139 C 1.03176 0.52357 0.5162 0.0
C140 C 1.01747 0.47768 0.53794 0.0
C141 C 1.02157 0.43724 0.49879 0.0
C142 C 0.06344 0.57646 0.42865 0.0
C143 C 0.99914 0.47105 0.60345 0.0
C144 C 0.07282 0.62492 0.63497 0.0
C145 C 0.03398 0.65412 0.63092 0.0
C146 C 0.07187 0.58137 0.59995 0.0
C147 C 1.031 0.56653 0.55979 0.0
C148 C 0.99004 0.59362 0.56015 0.0
C149 C 0.99217 0.6371 0.59534 0.0
C150 C 0.11619 0.55338 0.60185 0.0
C151 C 0.94538 0.57907 0.51893 0.0
H152 H 0.06559 0.48965 0.36826 0.0
H153 H 1.01144 0.40213 0.51671 0.0
H154 H 0.03407 0.601 0.43202 0.0
H155 H 0.09473 0.59262 0.45815 0.0
H156 H 0.07344 0.57425 0.37849 0.0
H157 H 0.98693 0.43319 0.61188 0.0
H158 H 1.02795 0.48253 0.63992 0.0
H159 H 0.96879 0.49385 0.61035 0.0
H160 H 0.1059 0.63862 0.66026 0.0
H161 H 0.96319 0.66043 0.58831 0.0
H162 H 0.13262 0.55526 0.55518 0.0
H163 H 0.10666 0.51502 0.61058 0.0
H164 H 0.1434 0.56741 0.63919 0.0
H165 H 0.95256 0.58539 0.46849 0.0
H166 H 0.91456 0.5998 0.53142 0.0
H167 H 0.93511 0.5403 0.52322 0.0
C168 C 0.73944 0.76773 0.82595 0.0
C169 C 0.69622 0.74291 0.80422 0.0
C170 C 0.7796 0.77023 0.78761 0.0
C171 C 0.77625 0.74764 0.72621 0.0
C172 C 0.73344 0.72063 0.70586 0.0
C173 C 0.69444 0.71838 0.74501 0.0
C174 C 0.82494 0.79878 0.81155 0.0
C175 C 0.72787 0.69588 0.64124 0.0
C176 C 0.85899 0.80018 0.60273 0.0
C177 C 0.89639 0.76915 0.60503 0.0
C178 C 0.81896 0.79269 0.64013 0.0
C179 C 0.8165 0.75364 0.68198 0.0
C180 C 0.85276 0.72066 0.68168 0.0
C181 C 0.89213 0.72893 0.64351 0.0
C182 C 0.78079 0.82835 0.6378 0.0
C183 C 0.85204 0.6786 0.72535 0.0
H184 H 0.7411 0.78716 0.8711 0.0
H185 H 0.66132 0.69876 0.72773 0.0
H186 H 0.85638 0.77696 0.80756 0.0
H187 H 0.83093 0.83063 0.78178 0.0
H188 H 0.82334 0.81109 0.86174 0.0
H189 H 0.69325 0.67398 0.63394 0.0
H190 H 0.72966 0.72303 0.60371 0.0
H191 H 0.75766 0.67227 0.63487 0.0
H192 H 0.86291 0.83247 0.57539 0.0
H193 H 0.92215 0.70679 0.64953 0.0
H194 H 0.78131 0.84803 0.68408 0.0
H195 H 0.74469 0.80949 0.62966 0.0
H196 H 0.7861 0.85479 0.59983 0.0
H197 H 0.85896 0.69186 0.77516 0.0
H198 H 0.87965 0.65337 0.71434 0.0
H199 H 0.81627 0.65868 0.72208 0.0
C200 C 0.57909 0.44437 0.11238 0.0
C201 C 0.54188 0.40816 0.11248 0.0
C202 C 0.57523 0.48473 0.07396 0.0
C203 C 0.53366 0.48837 0.03312 0.0
C204 C 0.49511 0.453 0.03528 0.0
C205 C 0.49972 0.41352 0.07484 0.0
C206 C 0.61674 0.5222 0.0746 0.0
C207 C 0.45027 0.45495 -0.00755 0.0
C208 C 0.51109 0.61156 0.97034 0.0
C209 C 0.53185 0.61115 0.91104 0.0
C210 C 0.5106 0.57179 0.00955 0.0
C211 C 0.5304 0.52945 0.98883 0.0
C212 C 0.54851 0.52738 0.9271 0.0
C213 C 0.54931 0.56847 0.88887 0.0
C214 C 0.49115 0.57612 0.07472 0.0
C215 C 0.56892 0.48242 0.90265 0.0
H216 H 0.61255 0.4395 0.13914 0.0
H217 H 0.47211 0.3844 0.07117 0.0
H218 H 0.63288 0.52219 0.02773 0.0
H219 H 0.60393 0.5584 0.08285 0.0
H220 H 0.6451 0.51583 0.1118 0.0
H221 H 0.42202 0.427 0.00358 0.0
H222 H 0.43543 0.49061 -0.0035 0.0
H223 H 0.45929 0.44965 0.94233 0.0
H224 H 0.49702 0.64427 0.98771 0.0
H225 H 0.56575 0.56791 0.84355 0.0
H226 H 0.52055 0.57293 0.11157 0.0
H227 H 0.46351 0.54661 0.08164 0.0
H228 H 0.47504 0.61086 0.08257 0.0
H229 H 0.60215 0.47576 0.93134 0.0
H230 H 0.57765 0.48494 0.85205 0.0
H231 H 0.54309 0.45099 0.90772 0.0
C232 C 0.87582 0.30544 0.37379 0.0
C233 C 0.90818 0.26929 0.37782 0.0
C234 C 0.83177 0.29839 0.33812 0.0
C235 C 0.82007 0.25437 0.30442 0.0
C236 C 0.85078 0.21642 0.31268 0.0
C237 C 0.89408 0.22425 0.34996 0.0
C238 C 0.79938 0.33933 0.33292 0.0
C239 C 0.84008 0.16887 0.27786 0.0
C240 C 0.68975 0.22926 0.24614 0.0
C241 C 0.68897 0.24623 0.18366 0.0
C242 C 0.7321 0.23052 0.28494 0.0
C243 C 0.77572 0.24834 0.26087 0.0
C244 C 0.77608 0.26283 0.19658 0.0
C245 C 0.73257 0.26182 0.15864 0.0
C246 C 0.72954 0.21501 0.35292 0.0
C247 C 0.82219 0.28108 0.16873 0.0
H248 H 0.88701 0.34079 0.39365 0.0
H249 H 0.9193 0.19669 0.35148 0.0
H250 H 0.79879 0.35284 0.28385 0.0
H251 H 0.76203 0.32686 0.34264 0.0
H252 H 0.81141 0.36954 0.36634 0.0
H253 H 0.86471 0.14158 0.29436 0.0
H254 H 0.80257 0.15492 0.28389 0.0
H255 H 0.84396 0.17385 0.22631 0.0
H256 H 0.65647 0.21633 0.26602 0.0
H257 H 0.73247 0.27499 0.11072 0.0
H258 H 0.73904 0.24629 0.38553 0.0
H259 H 0.75586 0.18796 0.3636 0.0
H260 H 0.69324 0.19957 0.36338 0.0
H261 H 0.83549 0.31555 0.19261 0.0
H262 H 0.81746 0.28684 0.11691 0.0
H263 H 0.85025 0.25534 0.17716 0.0
C264 C 0.39895 0.33143 0.14971 0.0
C265 C 0.39956 0.2884 0.11433 0.0
C266 C 0.35963 0.34145 0.18551 0.0
C267 C 0.31972 0.30749 0.18638 0.0
C268 C 0.31866 0.2655 0.1472 0.0
C269 C 0.35875 0.25627 0.11227 0.0
C270 C 0.36265 0.38661 0.22645 0.0
C271 C 0.27651 0.22872 0.14545 0.0
C272 C 0.2398 0.2997 0.32861 0.0
C273 C 0.19925 0.32187 0.30509 0.0
C274 C 0.28015 0.29628 0.29143 0.0
C275 C 0.27967 0.31513 0.22928 0.0
C276 C 0.23979 0.33963 0.20698 0.0
C277 C 0.20057 0.34302 0.24515 0.0
C278 C 0.32244 0.27064 0.31749 0.0
C279 C 0.23734 0.36022 0.14135 0.0
H280 H 0.43131 0.35503 0.15513 0.0
H281 H 0.35973 0.22208 0.08728 0.0
H282 H 0.32895 0.40522 0.22084 0.0
H283 H 0.3674 0.37713 0.27709 0.0
H284 H 0.39318 0.41186 0.2149 0.0
H285 H 0.27933 0.20011 0.10876 0.0
H286 H 0.27445 0.21184 0.19242 0.0
H287 H 0.24247 0.24614 0.13577 0.0
H288 H 0.23907 0.28295 0.37442 0.0
H289 H 0.16963 0.36065 0.22648 0.0
H290 H 0.35624 0.29328 0.31331 0.0
H291 H 0.32547 0.23716 0.28927 0.0
H292 H 0.31909 0.26132 0.36804 0.0
H293 H 0.26969 0.38439 0.13458 0.0
H294 H 0.20495 0.38053 0.1324 0.0
H295 H 0.2367 0.33078 0.10513 0.0
C296 C 0.36805 0.75093 0.86228 0.0
C297 C 0.40864 0.78302 0.86026 0.0
C298 C 0.3245 0.75978 0.82911 0.0
C299 C 0.32172 0.80129 0.7919 0.0
C300 C 0.36184 0.83506 0.79262 0.0
C301 C 0.40474 0.82532 0.82628 0.0
C302 C 0.28243 0.72312 0.83061 0.0
C303 C 0.36086 0.87972 0.75376 0.0
C304 C 0.22835 0.79409 0.65126 0.0
C305 C 0.19061 0.81728 0.67678 0.0
C306 C 0.27177 0.78961 0.68761 0.0
C307 C 0.27745 0.80864 0.75085 0.0
C308 C 0.24023 0.8339 0.77548 0.0
C309 C 0.19766 0.83805 0.73826 0.0
C310 C 0.31093 0.763 0.65919 0.0
C311 C 0.24457 0.85504 0.8422 0.0
H312 H 0.37141 0.71719 0.88595 0.0
H313 H 0.43664 0.84858 0.82039 0.0
H314 H 0.24954 0.74078 0.84225 0.0
H315 H 0.27546 0.70564 0.78299 0.0
H316 H 0.28887 0.69496 0.86581 0.0
H317 H 0.39276 0.90495 0.76518 0.0
H318 H 0.36008 0.8696 0.70256 0.0
H319 H 0.32803 0.89864 0.76169 0.0
H320 H 0.22319 0.77763 0.60419 0.0
H321 H 0.16893 0.85642 0.7585 0.0
H322 H 0.31655 0.73002 0.68614 0.0
H323 H 0.3453 0.78545 0.66293 0.0
H324 H 0.30226 0.75271 0.60851 0.0
H325 H 0.24788 0.82595 0.87679 0.0
H326 H 0.21313 0.87528 0.85346 0.0
H327 H 0.2775 0.87946 0.84896 0.0
C328 C 0.50579 0.90674 0.90666 0.0
C329 C 0.547 0.90333 0.87217 0.0
C330 C 0.49901 0.94746 0.94444 0.0
C331 C 0.53452 0.9861 0.94839 0.0
C332 C 0.57522 0.98399 0.91125 0.0
C333 C 0.58134 0.94233 0.87443 0.0
C334 C 0.45537 0.94754 0.98358 0.0
C335 C 0.61348 1.0248 0.9128 0.0
C336 C 0.50176 0.10875 0.00583 0.0
C337 C 0.52452 0.11323 0.06702 0.0
C338 C 0.50403 0.06749 0.96754 0.0
C339 C 0.52896 1.02875 -0.00895 0.0
C340 C 0.5493 0.03151 0.05447 0.0
C341 C 0.54709 0.07393 0.09176 0.0
C342 C 0.48181 0.06649 0.90058 0.0
C343 C 0.57517 0.99042 0.08191 0.0
H344 H 0.48089 0.87564 0.90926 0.0
H345 H 0.6143 0.9391 0.85038 0.0
H346 H 0.46674 0.94598 0.03466 0.0
H347 H 0.43697 0.98112 0.97696 0.0
H348 H 0.42921 0.91661 0.9712 0.0
H349 H 0.64112 1.01915 0.87803 0.0
H350 H 0.59704 0.05901 0.90245 0.0
H351 H 0.63144 1.0287 0.961 0.0
H352 H 0.48395 0.13888 0.98637 0.0
H353 H 0.56519 0.07724 0.13855 0.0
H354 H 0.45648 0.0344 0.89239 0.0
H355 H 0.51029 0.064 0.86626 0.0
H356 H 0.46221 0.09894 0.89021 0.0
H357 H 0.55226 0.95649 0.07543 0.0
H358 H 0.58534 0.9963 0.13325 0.0
H359 H 0.60822 0.98587 0.05627 0.0
C360 C 0.03467 0.93656 0.4668 0.0
C361 C 0.03869 0.94129 0.53369 0.0
C362 C 0.03565 0.97637 0.42763 0.0
C363 C 0.04022 1.02296 0.45522 0.0
C364 C 0.04282 1.02851 0.52261 0.0
C365 C 0.04216 0.98758 0.56117 0.0
C366 C 0.03327 0.96835 0.35639 0.0
C367 C 0.04725 0.07776 0.55384 0.0
C368 C 0.09579 0.12636 0.36286 0.0
C369 C 0.05554 0.15101 0.34383 0.0
C370 C 0.09115 0.08382 0.39703 0.0
C371 C 0.04506 0.06546 0.41323 0.0
C372 C 1.004 0.08768 0.38891 0.0
C373 C 1.00981 0.12981 0.35371 0.0
C374 C 0.13594 0.06058 0.41975 0.0
C375 C 0.9541 0.06927 0.4043 0.0
H376 H 1.03153 0.90123 0.4442 0.0
H377 H 0.04514 0.99185 0.61242 0.0
H378 H 1.00347 0.9874 0.33399 0.0
H379 H 0.06702 0.98331 0.33686 0.0
H380 H 1.02799 0.92976 0.3423 0.0
H381 H 0.04586 0.0763 0.60628 0.0
H382 H 0.08172 0.09677 0.54238 0.0
H383 H 1.01798 0.09931 0.53506 0.0
H384 H 0.13133 0.14297 0.35639 0.0
H385 H 0.97875 0.14878 0.3397 0.0
H386 H 0.13257 1.02164 0.4077 0.0
H387 H 0.14075 0.06447 0.47219 0.0
H388 H 0.16861 0.07682 0.39871 0.0
H389 H 0.94852 0.03021 0.39369 0.0
H390 H 0.92588 0.08789 0.37744 0.0
H391 H 0.94963 0.07479 0.45582 0.0
C392 C 1.00264 0.30629 0.98241 0.0
C393 C 0.04005 0.31745 0.02822 0.0
C394 C 1.01235 0.29874 0.91868 0.0
C395 C 0.06056 0.3021 0.90095 0.0
C396 C 0.09845 0.313 0.94716 0.0
C397 C 0.08771 0.32062 0.01033 0.0
C398 C 0.9711 0.28746 0.87028 0.0
C399 C 0.1503 0.31656 0.92992 0.0
C400 C 0.08708 0.24447 0.74385 0.0
C401 C 0.08858 0.28422 0.70458 0.0
C402 C 0.07865 0.24979 0.8084 0.0
C403 C 0.07128 0.29586 0.83362 0.0
C404 C 0.07352 0.33618 0.79437 0.0
C405 C 0.08215 0.32985 0.73025 0.0
C406 C 0.07685 0.20615 0.84933 0.0
C407 C 0.06568 0.38582 0.81972 0.0
H408 H 0.96584 0.30379 -0.00356 0.0
H409 H 0.11675 0.32814 0.04609 0.0
H410 H 0.97096 0.31545 0.83381 0.0
H411 H 0.97553 0.2528 0.84547 0.0
H412 H 0.93577 0.28538 0.89211 0.0
H413 H 0.17553 0.32422 0.97199 0.0
H414 H 0.15919 0.28257 0.9067 0.0
H415 H 0.15613 0.34543 0.89536 0.0
H416 H 0.09216 0.20924 0.72393 0.0
H417 H 0.08226 0.3605 0.69965 0.0
H418 H 0.04069 0.20043 0.86818 0.0
H419 H 0.10301 0.21176 0.8907 0.0
H420 H 0.08488 0.17317 0.82279 0.0
H421 H 1.02918 0.38638 0.83776 0.0
H422 H 0.06959 0.4135 0.78301 0.0
H423 H 0.09173 0.39569 0.86018 0.0
C424 C 1.02099 0.76744 0.96516 0.0
C425 C 1.02068 0.81512 0.94588 0.0
C426 C 1.02725 0.75658 0.02933 0.0
C427 C 1.03314 0.79435 0.07523 0.0
C428 C 1.03243 0.84259 0.05622 0.0
C429 C 1.02646 0.85244 -0.0085 0.0
C430 C 1.0283 0.70476 0.04789 0.0
C431 C 0.03821 0.88371 0.10421 0.0
C432 C 1.00753 0.76783 0.24559 0.0
C433 C 0.05404 0.76712 0.27371 0.0
C434 C 1.00016 0.77603 0.1807 0.0
C435 C 0.04032 0.78338 0.14324 0.0
C436 C 0.08733 0.78103 0.17092 0.0
C437 C 0.09365 0.77312 0.23607 0.0
C438 C 0.94953 0.77843 0.15269 0.0
C439 C 0.13093 0.78804 0.13205 0.0
H440 H 1.01752 0.73854 0.92977 0.0
H441 H 1.02615 0.88927 0.97651 0.0
H442 H 0.06335 0.69876 0.0726 0.0
H443 H 1.00008 0.69594 0.08155 0.0
H444 H 1.02269 0.67963 0.00624 0.0
H445 H 0.03589 0.91908 0.08166 0.0
H446 H 1.01004 0.87963 0.13914 0.0
H447 H 0.07344 0.88335 0.13098 0.0
H448 H 0.9769 0.764 0.27489 0.0
H449 H 0.1296 0.77234 0.25788 0.0
H450 H 0.94281 0.75278 0.11184 0.0
H451 H 0.94469 0.81483 0.13453 0.0
H452 H 0.9222 0.77022 0.18791 0.0
H453 H 0.12795 0.76246 0.09087 0.0
H454 H 0.16484 0.78293 0.16026 0.0
H455 H 0.13301 0.82472 0.11292 0.0
C456 C 0.60078 0.79063 0.24333 0.0
C457 C 0.59577 0.75199 0.1999 0.0
C458 C 0.59614 0.78304 0.30814 0.0
C459 C 0.58692 0.7357 0.32924 0.0
C460 C 0.58552 0.69635 0.28586 0.0
C461 C 0.58959 0.70505 0.22134 0.0
C462 C 0.59773 0.82585 0.35326 0.0
C463 C 0.57676 0.64538 0.30693 0.0
C464 C 0.59833 0.72205 0.5068 0.0
C465 C 0.55055 0.72474 0.52247 0.0
C466 C 0.61062 0.7232 0.4435 0.0
C467 C 0.57419 0.72796 0.39541 0.0
C468 C 0.52552 0.72845 0.41099 0.0
C469 C 0.51421 0.72648 0.47474 0.0
C470 C 0.66268 0.72159 0.42846 0.0
C471 C 0.48579 0.73369 0.36072 0.0
H472 H 0.60523 0.82684 0.22613 0.0
H473 H 0.58592 0.67531 0.18716 0.0
H474 H 0.5616 0.8293 0.3715 0.0
H475 H 0.62285 0.82094 0.39474 0.0
H476 H 0.60898 0.85979 0.33011 0.0
H477 H 0.58315 0.61884 0.2689 0.0
H478 H 0.60029 0.63874 0.34942 0.0
H479 H 0.53906 0.63935 0.32036 0.0
H480 H 0.62622 0.72055 0.54438 0.0
H481 H 0.47739 0.72888 0.48756 0.0
H482 H 0.67622 0.7571 0.41184 0.0
H483 H 0.66652 0.69501 0.38959 0.0
H484 H 0.68562 0.71229 0.47045 0.0
H485 H 0.49116 0.76896 0.33805 0.0
H486 H 0.44971 0.73114 0.3805 0.0
H487 H 0.48668 0.70561 0.32296 0.0
C488 C 0.50519 0.32453 0.47775 0.0
C489 C 0.50179 0.27715 0.45374 0.0
C490 C 0.50866 0.33423 0.54313 0.0
C491 C 0.50767 0.29554 0.585 0.0
C492 C 0.49996 0.24777 0.56109 0.0
C493 C 0.49739 0.23909 0.49544 0.0
C494 C 0.5168 0.38558 0.56708 0.0
C495 C 0.49754 0.2057 0.60479 0.0
C496 C 0.5763 0.30168 0.74389 0.0
C497 C 0.53888 0.30409 0.78495 0.0
C498 C 0.56693 0.30204 0.67811 0.0
C499 C 0.51903 0.30431 0.65347 0.0
C500 C 0.48172 0.31033 0.69474 0.0
C501 C 0.49224 0.31065 0.76022 0.0
C502 C 0.60778 0.29679 0.63506 0.0
C503 C 0.43026 0.31291 0.67003 0.0
H504 H 0.50737 0.35407 0.44534 0.0
H505 H 0.49479 0.20247 0.477 0.0
H506 H 0.49341 0.39265 0.60653 0.0
H507 H 0.55455 0.39222 0.58596 0.0
H508 H 0.51 0.41149 0.52899 0.0
H509 H 0.48627 0.17144 0.57886 0.0
H510 H 0.53338 0.20225 0.62886 0.0
H511 H 0.472 0.21151 0.64219 0.0
H512 H 0.61236 0.29668 0.76293 0.0
H513 H 0.46347 0.3138 0.79217 0.0
H514 H 0.60684 0.32377 0.5973 0.0
H515 H 0.60392 0.2608 0.6114 0.0
H516 H 0.64335 0.30097 0.66145 0.0
H517 H 0.42781 0.33816 0.63037 0.0
H518 H 0.40686 0.32426 0.70768 0.0
H519 H 0.41613 0.27703 0.65123 0.0
loop_
_geom_bond_atom_site_label_1
_geom_bond_atom_site_label_2
_geom_bond_distance
_geom_bond_site_symmetry_2
_ccdc_geom_bond_type
C0 O16 1.251 . S
C0 O18 1.254 . S
N1 C2 1.333 . S
N1 C6 1.307 1_455 S
N1 Zn7 2.020 . S
C2 N1 1.333 . S
C2 C3 1.379 . S
C2 H20 0.952 . S
C3 C2 1.379 . S
C3 C4 1.390 . S
C3 H30 0.949 . S
C4 C3 1.390 . S
C4 C5 1.357 1_455 S
C5 C4 1.357 1_655 S
C5 C6 1.370 . S
C5 H31 0.950 . S
C6 N1 1.307 1_655 S
C6 C5 1.370 . S
C6 H24 0.948 . S
Zn7 N1 2.020 . S
Zn7 O16 2.039 . S
Zn7 O22 2.034 . S
Zn7 O26 2.025 1_455 S
Zn7 O28 2.024 . S
C8 O27 1.246 . S
C8 O28 1.249 . S
N9 C10 1.307 . S
N9 C11 1.333 1_455 S
N9 Zn15 2.020 . S
C10 N9 1.307 . S
C10 C14 1.370 . S
C10 H21 0.948 . S
C11 N9 1.333 1_655 S
C11 C12 1.379 . S
C11 H19 0.952 . S
C12 C11 1.379 . S
C12 C13 1.390 1_655 S
C12 H32 0.949 . S
C13 C12 1.390 1_455 S
C13 C14 1.357 . S
C14 C10 1.370 . S
C14 C13 1.357 . S
C14 H33 0.950 . S
Zn15 N9 2.020 . S
Zn15 O18 2.025 . S
Zn15 O23 2.024 . S
Zn15 O25 2.039 1_455 S
Zn15 O27 2.034 . S
O16 C0 1.251 . S
O16 Zn7 2.039 . S
C17 O22 1.246 . S
C17 O23 1.249 . S
O18 C0 1.254 . S
O18 Zn15 2.025 . S
H19 C11 0.952 . S
H20 C2 0.952 . S
H21 C10 0.948 . S
O22 Zn7 2.034 . S
O22 C17 1.246 . S
O23 Zn15 2.024 . S
O23 C17 1.249 . S
H24 C6 0.948 . S
O25 Zn15 2.039 1_655 S
O25 C29 1.251 . S
O26 Zn7 2.025 1_655 S
O26 C29 1.254 . S
O27 C8 1.246 . S
O27 Zn15 2.034 . S
O28 Zn7 2.024 . S
O28 C8 1.249 . S
C29 O25 1.251 . S
C29 O26 1.254 . S
H30 C3 0.949 . S
H31 C5 0.950 . S
H32 C12 0.949 . S
H33 C14 0.950 . S
C34 O50 1.251 . S
C34 O52 1.254 . S
N35 C36 1.333 . S
N35 C40 1.307 1_455 S
N35 Zn41 2.020 . S
C36 N35 1.333 . S
C36 C37 1.379 . S
C36 H54 0.952 . S
C37 C36 1.379 . S
C37 C38 1.390 . S
C37 H64 0.949 . S
C38 C37 1.390 . S
C38 C39 1.357 1_455 S
C39 C38 1.357 1_655 S
C39 C40 1.370 . S
C39 H65 0.950 . S
C40 N35 1.307 1_655 S
C40 C39 1.370 . S
C40 H58 0.948 . S
Zn41 N35 2.020 . S
Zn41 O50 2.039 . S
Zn41 O56 2.034 . S
Zn41 O60 2.025 1_455 S
Zn41 O62 2.024 . S
C42 O61 1.246 . S
C42 O62 1.249 . S
N43 C44 1.307 . S
N43 C45 1.333 1_455 S
N43 Zn49 2.020 . S
C44 N43 1.307 . S
C44 C48 1.370 . S
C44 H55 0.948 . S
C45 N43 1.333 1_655 S
C45 C46 1.379 . S
C45 H53 0.952 . S
C46 C45 1.379 . S
C46 C47 1.390 1_655 S
C46 H66 0.949 . S
C47 C46 1.390 1_455 S
C47 C48 1.357 . S
C48 C44 1.370 . S
C48 C47 1.357 . S
C48 H67 0.950 . S
Zn49 N43 2.020 . S
Zn49 O52 2.025 . S
Zn49 O57 2.024 . S
Zn49 O59 2.039 1_455 S
Zn49 O61 2.034 . S
O50 C34 1.251 . S
O50 Zn41 2.039 . S
C51 O56 1.246 . S
C51 O57 1.249 . S
O52 C34 1.254 . S
O52 Zn49 2.025 . S
H53 C45 0.952 . S
H54 C36 0.952 . S
H55 C44 0.948 . S
O56 Zn41 2.034 . S
O56 C51 1.246 . S
O57 Zn49 2.024 . S
O57 C51 1.249 . S
H58 C40 0.948 . S
O59 Zn49 2.039 1_655 S
O59 C63 1.251 . S
O60 Zn41 2.025 1_655 S
O60 C63 1.254 . S
O61 C42 1.246 . S
O61 Zn49 2.034 . S
O62 Zn41 2.024 . S
O62 C42 1.249 . S
C63 O59 1.251 . S
C63 O60 1.254 . S
H64 C37 0.949 . S
H65 C39 0.950 . S
H66 C46 0.949 . S
H67 C48 0.950 . S
C68 O84 1.251 . S
C68 O86 1.254 . S
N69 C70 1.333 . S
N69 C74 1.307 . S
N69 Zn75 2.020 . S
C70 N69 1.333 . S
C70 C71 1.379 . S
C70 H88 0.952 . S
C71 C70 1.379 . S
C71 C72 1.390 . S
C71 H98 0.949 . S
C72 C71 1.390 . S
C72 C73 1.357 . S
C73 C72 1.357 . S
C73 C74 1.370 . S
C73 H99 0.950 . S
C74 N69 1.307 . S
C74 C73 1.370 . S
C74 H92 0.948 . S
Zn75 N69 2.020 . S
Zn75 O84 2.039 . S
Zn75 O90 2.034 . S
Zn75 O94 2.025 . S
Zn75 O96 2.024 . S
C76 O95 1.246 . S
C76 O96 1.249 . S
N77 C78 1.307 . S
N77 C79 1.333 . S
N77 Zn83 2.020 1_554 S
C78 N77 1.307 . S
C78 C82 1.370 . S
C78 H89 0.948 . S
C79 N77 1.333 . S
C79 C80 1.379 . S
C79 H87 0.952 . S
C80 C79 1.379 . S
C80 C81 1.390 . S
C80 H100 0.949 . S
C81 C80 1.390 . S
C81 C82 1.357 . S
C82 C78 1.370 . S
C82 C81 1.357 . S
C82 H101 0.950 . S
Zn83 N77 2.020 1_556 S
Zn83 O86 2.025 . S
Zn83 O91 2.024 . S
Zn83 O93 2.039 . S
Zn83 O95 2.034 . S
O84 C68 1.251 . S
O84 Zn75 2.039 . S
C85 O90 1.246 . S
C85 O91 1.249 . S
O86 C68 1.254 . S
O86 Zn83 2.025 . S
H87 C79 0.952 . S
H88 C70 0.952 . S
H89 C78 0.948 . S
O90 Zn75 2.034 . S
O90 C85 1.246 . S
O91 Zn83 2.024 . S
O91 C85 1.249 . S
H92 C74 0.948 . S
O93 Zn83 2.039 . S
O93 C97 1.251 . S
O94 Zn75 2.025 . S
O94 C97 1.254 . S
O95 C76 1.246 . S
O95 Zn83 2.034 . S
O96 Zn75 2.024 . S
O96 C76 1.249 . S
C97 O93 1.251 . S
C97 O94 1.254 . S
H98 C71 0.949 . S
H99 C73 0.950 . S
H100 C80 0.949 . S
H101 C82 0.950 . S
C102 O118 1.251 . S
C102 O120 1.254 . S
N103 C104 1.333 . S
N103 C108 1.307 . S
N103 Zn109 2.020 1_556 S
C104 N103 1.333 . S
C104 C105 1.379 . S
C104 H122 0.952 . S
C105 C104 1.379 . S
C105 C106 1.390 . S
C105 H132 0.949 . S
C106 C105 1.390 . S
C106 C107 1.357 . S
C107 C106 1.357 . S
C107 C108 1.370 . S
C107 H133 0.950 . S
C108 N103 1.307 . S
C108 C107 1.370 . S
C108 H126 0.948 . S
Zn109 N103 2.020 1_554 S
Zn109 O118 2.039 . S
Zn109 O124 2.034 . S
Zn109 O128 2.025 . S
Zn109 O130 2.024 . S
C110 O129 1.246 . S
C110 O130 1.249 . S
N111 C112 1.307 . S
N111 C113 1.333 . S
N111 Zn117 2.020 . S
C112 N111 1.307 . S
C112 C116 1.370 . S
C112 H123 0.948 . S
C113 N111 1.333 . S
C113 C114 1.379 . S
C113 H121 0.952 . S
C114 C113 1.379 . S
C114 C115 1.390 . S
C114 H134 0.949 . S
C115 C114 1.390 . S
C115 C116 1.357 . S
C116 C112 1.370 . S
C116 C115 1.357 . S
C116 H135 0.950 . S
Zn117 N111 2.020 . S
Zn117 O120 2.025 . S
Zn117 O125 2.024 . S
Zn117 O127 2.039 . S
Zn117 O129 2.034 . S
O118 C102 1.251 . S
O118 Zn109 2.039 . S
C119 O124 1.246 . S
C119 O125 1.249 . S
O120 C102 1.254 . S
O120 Zn117 2.025 . S
H121 C113 0.952 . S
H122 C104 0.952 . S
H123 C112 0.948 . S
O124 Zn109 2.034 . S
O124 C119 1.246 . S
O125 Zn117 2.024 . S
O125 C119 1.249 . S
H126 C108 0.948 . S
O127 Zn117 2.039 . S
O127 C131 1.251 . S
O128 Zn109 2.025 . S
O128 C131 1.254 . S
O129 C110 1.246 . S
O129 Zn117 2.034 . S
O130 Zn109 2.024 . S
O130 C110 1.249 . S
C131 O127 1.251 . S
C131 O128 1.254 . S
H132 C105 0.949 . S
H133 C107 0.950 . S
H134 C114 0.949 . S
H135 C116 0.950 . S
C136 C137 1.391 . S
C136 C138 1.394 . S
C136 H152 0.931 . S
C137 C136 1.391 . S
C137 C141 1.376 1_455 S
C138 C136 1.394 . S
C138 C139 1.369 . S
C138 C142 1.531 . S
C139 C138 1.369 . S
C139 C140 1.410 1_455 S
C139 C147 1.503 . S
C140 C139 1.410 1_655 S
C140 C141 1.392 . S
C140 C143 1.511 . S
C141 C137 1.376 1_655 S
C141 C140 1.392 . S
C141 H153 0.929 . S
C142 C138 1.531 . S
C142 H154 0.960 . S
C142 H155 0.962 . S
C142 H156 0.960 . S
C143 C140 1.511 . S
C143 H157 0.961 . S
C143 H158 0.961 . S
C143 H159 0.961 . S
C144 C145 1.370 . S
C144 C146 1.363 . S
C144 H160 0.931 . S
C145 C144 1.370 . S
C145 C149 1.408 1_455 S
C146 C144 1.363 . S
C146 C147 1.370 . S
C146 C150 1.524 . S
C147 C139 1.503 . S
C147 C146 1.370 . S
C147 C148 1.403 1_455 S
C148 C147 1.403 1_655 S
C148 C149 1.404 . S
C148 C151 1.539 . S
C149 C145 1.408 1_655 S
C149 C148 1.404 . S
C149 H161 0.930 . S
C150 C146 1.524 . S
C150 H162 0.956 . S
C150 H163 0.961 . S
C150 H164 0.961 . S
C151 C148 1.539 . S
C151 H165 0.958 . S
C151 H166 0.961 . S
C151 H167 0.960 . S
H152 C136 0.931 . S
H153 C141 0.929 . S
H154 C142 0.960 . S
H155 C142 0.962 . S
H156 C142 0.960 . S
H157 C143 0.961 . S
H158 C143 0.961 . S
H159 C143 0.961 . S
H160 C144 0.931 . S
H161 C149 0.930 . S
H162 C150 0.956 . S
H163 C150 0.961 . S
H164 C150 0.961 . S
H165 C151 0.958 . S
H166 C151 0.961 . S
H167 C151 0.960 . S
C168 C169 1.391 . S
C168 C170 1.394 . S
C168 H184 0.931 . S
C169 C168 1.391 . S
C169 C173 1.376 . S
C170 C168 1.394 . S
C170 C171 1.369 . S
C170 C174 1.531 . S
C171 C170 1.369 . S
C171 C172 1.410 . S
C171 C179 1.503 . S
C172 C171 1.410 . S
C172 C173 1.392 . S
C172 C175 1.511 . S
C173 C169 1.376 . S
C173 C172 1.392 . S
C173 H185 0.929 . S
C174 C170 1.531 . S
C174 H186 0.960 . S
C174 H187 0.962 . S
C174 H188 0.960 . S
C175 C172 1.511 . S
C175 H189 0.961 . S
C175 H190 0.961 . S
C175 H191 0.961 . S
C176 C177 1.370 . S
C176 C178 1.363 . S
C176 H192 0.931 . S
C177 C176 1.370 . S
C177 C181 1.408 . S
C178 C176 1.363 . S
C178 C179 1.370 . S
C178 C182 1.524 . S
C179 C171 1.503 . S
C179 C178 1.370 . S
C179 C180 1.403 . S
C180 C179 1.403 . S
C180 C181 1.404 . S
C180 C183 1.539 . S
C181 C177 1.408 . S
C181 C180 1.404 . S
C181 H193 0.930 . S
C182 C178 1.524 . S
C182 H194 0.956 . S
C182 H195 0.961 . S
C182 H196 0.961 . S
C183 C180 1.539 . S
C183 H197 0.958 . S
C183 H198 0.961 . S
C183 H199 0.960 . S
H184 C168 0.931 . S
H185 C173 0.929 . S
H186 C174 0.960 . S
H187 C174 0.962 . S
H188 C174 0.960 . S
H189 C175 0.961 . S
H190 C175 0.961 . S
H191 C175 0.961 . S
H192 C176 0.931 . S
H193 C181 0.930 . S
H194 C182 0.956 . S
H195 C182 0.961 . S
H196 C182 0.961 . S
H197 C183 0.958 . S
H198 C183 0.961 . S
H199 C183 0.960 . S
C200 C201 1.391 . S
C200 C202 1.394 . S
C200 H216 0.931 . S
C201 C200 1.391 . S
C201 C205 1.376 . S
C202 C200 1.394 . S
C202 C203 1.369 . S
C202 C206 1.531 . S
C203 C202 1.369 . S
C203 C204 1.410 . S
C203 C211 1.503 1_554 S
C204 C203 1.410 . S
C204 C205 1.392 . S
C204 C207 1.511 1_554 S
C205 C201 1.376 . S
C205 C204 1.392 . S
C205 H217 0.929 . S
C206 C202 1.531 . S
C206 H218 0.960 1_554 S
C206 H219 0.962 . S
C206 H220 0.960 . S
C207 C204 1.511 1_556 S
C207 H221 0.961 1_556 S
C207 H222 0.961 . S
C207 H223 0.961 . S
C208 C209 1.370 . S
C208 C210 1.363 1_556 S
C208 H224 0.931 . S
C209 C208 1.370 . S
C209 C213 1.408 . S
C210 C208 1.363 1_554 S
C210 C211 1.370 1_554 S
C210 C214 1.524 . S
C211 C203 1.503 1_556 S
C211 C210 1.370 1_556 S
C211 C212 1.403 . S
C212 C211 1.403 . S
C212 C213 1.404 . S
C212 C215 1.539 . S
C213 C209 1.408 . S
C213 C212 1.404 . S
C213 H225 0.930 . S
C214 C210 1.524 . S
C214 H226 0.956 . S
C214 H227 0.961 . S
C214 H228 0.961 . S
C215 C212 1.539 . S
C215 H229 0.958 . S
C215 H230 0.961 . S
C215 H231 0.960 . S
H216 C200 0.931 . S
H217 C205 0.929 . S
H218 C206 0.960 1_556 S
H219 C206 0.962 . S
H220 C206 0.960 . S
H221 C207 0.961 1_554 S
H222 C207 0.961 . S
H223 C207 0.961 . S
H224 C208 0.931 . S
H225 C213 0.930 . S
H226 C214 0.956 . S
H227 C214 0.961 . S
H228 C214 0.961 . S
H229 C215 0.958 . S
H230 C215 0.961 . S
H231 C215 0.960 . S
C232 C233 1.391 . S
C232 C234 1.394 . S
C232 H248 0.931 . S
C233 C232 1.391 . S
C233 C237 1.376 . S
C234 C232 1.394 . S
C234 C235 1.369 . S
C234 C238 1.531 . S
C235 C234 1.369 . S
C235 C236 1.410 . S
C235 C243 1.503 . S
C236 C235 1.410 . S
C236 C237 1.392 . S
C236 C239 1.511 . S
C237 C233 1.376 . S
C237 C236 1.392 . S
C237 H249 0.929 . S
C238 C234 1.531 . S
C238 H250 0.960 . S
C238 H251 0.962 . S
C238 H252 0.960 . S
C239 C236 1.511 . S
C239 H253 0.961 . S
C239 H254 0.961 . S
C239 H255 0.961 . S
C240 C241 1.370 . S
C240 C242 1.363 . S
C240 H256 0.931 . S
C241 C240 1.370 . S
C241 C245 1.408 . S
C242 C240 1.363 . S
C242 C243 1.370 . S
C242 C246 1.524 . S
C243 C235 1.503 . S
C243 C242 1.370 . S
C243 C244 1.403 . S
C244 C243 1.403 . S
C244 C245 1.404 . S
C244 C247 1.539 . S
C245 C241 1.408 . S
C245 C244 1.404 . S
C245 H257 0.930 . S
C246 C242 1.524 . S
C246 H258 0.956 . S
C246 H259 0.961 . S
C246 H260 0.961 . S
C247 C244 1.539 . S
C247 H261 0.958 . S
C247 H262 0.961 . S
C247 H263 0.960 . S
H248 C232 0.931 . S
H249 C237 0.929 . S
H250 C238 0.960 . S
H251 C238 0.962 . S
H252 C238 0.960 . S
H253 C239 0.961 . S
H254 C239 0.961 . S
H255 C239 0.961 . S
H256 C240 0.931 . S
H257 C245 0.930 . S
H258 C246 0.956 . S
H259 C246 0.961 . S
H260 C246 0.961 . S
H261 C247 0.958 . S
H262 C247 0.961 . S
H263 C247 0.960 . S
C264 C265 1.391 . S
C264 C266 1.394 . S
C264 H280 0.931 . S
C265 C264 1.391 . S
C265 C269 1.376 . S
C266 C264 1.394 . S
C266 C267 1.369 . S
C266 C270 1.531 . S
C267 C266 1.369 . S
C267 C268 1.410 . S
C267 C275 1.503 . S
C268 C267 1.410 . S
C268 C269 1.392 . S
C268 C271 1.511 . S
C269 C265 1.376 . S
C269 C268 1.392 . S
C269 H281 0.929 . S
C270 C266 1.531 . S
C270 H282 0.960 . S
C270 H283 0.962 . S
C270 H284 0.960 . S
C271 C268 1.511 . S
C271 H285 0.961 . S
C271 H286 0.961 . S
C271 H287 0.961 . S
C272 C273 1.370 . S
C272 C274 1.363 . S
C272 H288 0.931 . S
C273 C272 1.370 . S
C273 C277 1.408 . S
C274 C272 1.363 . S
C274 C275 1.370 . S
C274 C278 1.524 . S
C275 C267 1.503 . S
C275 C274 1.370 . S
C275 C276 1.403 . S
C276 C275 1.403 . S
C276 C277 1.404 . S
C276 C279 1.539 . S
C277 C273 1.408 . S
C277 C276 1.404 . S
C277 H289 0.930 . S
C278 C274 1.524 . S
C278 H290 0.956 . S
C278 H291 0.961 . S
C278 H292 0.961 . S
C279 C276 1.539 . S
C279 H293 0.958 . S
C279 H294 0.961 . S
C279 H295 0.960 . S
H280 C264 0.931 . S
H281 C269 0.929 . S
H282 C270 0.960 . S
H283 C270 0.962 . S
H284 C270 0.960 . S
H285 C271 0.961 . S
H286 C271 0.961 . S
H287 C271 0.961 . S
H288 C272 0.931 . S
H289 C277 0.930 . S
H290 C278 0.956 . S
H291 C278 0.961 . S
H292 C278 0.961 . S
H293 C279 0.958 . S
H294 C279 0.961 . S
H295 C279 0.960 . S
C296 C297 1.391 . S
C296 C298 1.394 . S
C296 H312 0.931 . S
C297 C296 1.391 . S
C297 C301 1.376 . S
C298 C296 1.394 . S
C298 C299 1.369 . S
C298 C302 1.531 . S
C299 C298 1.369 . S
C299 C300 1.410 . S
C299 C307 1.503 . S
C300 C299 1.410 . S
C300 C301 1.392 . S
C300 C303 1.511 . S
C301 C297 1.376 . S
C301 C300 1.392 . S
C301 H313 0.929 . S
C302 C298 1.531 . S
C302 H314 0.960 . S
C302 H315 0.962 . S
C302 H316 0.960 . S
C303 C300 1.511 . S
C303 H317 0.961 . S
C303 H318 0.961 . S
C303 H319 0.961 . S
C304 C305 1.370 . S
C304 C306 1.363 . S
C304 H320 0.931 . S
C305 C304 1.370 . S
C305 C309 1.408 . S
C306 C304 1.363 . S
C306 C307 1.370 . S
C306 C310 1.524 . S
C307 C299 1.503 . S
C307 C306 1.370 . S
C307 C308 1.403 . S
C308 C307 1.403 . S
C308 C309 1.404 . S
C308 C311 1.539 . S
C309 C305 1.408 . S
C309 C308 1.404 . S
C309 H321 0.930 . S
C310 C306 1.524 . S
C310 H322 0.956 . S
C310 H323 0.961 . S
C310 H324 0.961 . S
C311 C308 1.539 . S
C311 H325 0.958 . S
C311 H326 0.961 . S
C311 H327 0.960 . S
H312 C296 0.931 . S
H313 C301 0.929 . S
H314 C302 0.960 . S
H315 C302 0.962 . S
H316 C302 0.960 . S
H317 C303 0.961 . S
H318 C303 0.961 . S
H319 C303 0.961 . S
H320 C304 0.931 . S
H321 C309 0.930 . S
H322 C310 0.956 . S
H323 C310 0.961 . S
H324 C310 0.961 . S
H325 C311 0.958 . S
H326 C311 0.961 . S
H327 C311 0.960 . S
C328 C329 1.391 . S
C328 C330 1.394 1_556 S
C328 H344 0.931 . S
C329 C328 1.391 . S
C329 C333 1.376 . S
C330 C328 1.394 1_554 S
C330 C331 1.369 1_554 S
C330 C334 1.531 . S
C331 C330 1.369 1_556 S
C331 C332 1.410 . S
C331 C339 1.503 1_566 S
C332 C331 1.410 . S
C332 C333 1.392 . S
C332 C335 1.511 1_565 S
C333 C329 1.376 . S
C333 C332 1.392 . S
C333 H345 0.929 . S
C334 C330 1.531 . S
C334 H346 0.960 . S
C334 H347 0.962 . S
C334 H348 0.960 . S
C335 C332 1.511 1_545 S
C335 H349 0.961 . S
C335 H350 0.961 . S
C335 H351 0.961 . S
C336 C337 1.370 . S
C336 C338 1.363 . S
C336 H352 0.931 . S
C337 C336 1.370 . S
C337 C341 1.408 . S
C338 C336 1.363 . S
C338 C339 1.370 . S
C338 C342 1.524 1_554 S
C339 C331 1.503 1_544 S
C339 C338 1.370 . S
C339 C340 1.403 . S
C340 C339 1.403 . S
C340 C341 1.404 . S
C340 C343 1.539 . S
C341 C337 1.408 . S
C341 C340 1.404 . S
C341 H353 0.930 . S
C342 C338 1.524 1_556 S
C342 H354 0.956 . S
C342 H355 0.961 . S
C342 H356 0.961 . S
C343 C340 1.539 . S
C343 H357 0.958 1_545 S
C343 H358 0.961 . S
C343 H359 0.960 1_545 S
H344 C328 0.931 . S
H345 C333 0.929 . S
H346 C334 0.960 . S
H347 C334 0.962 . S
H348 C334 0.960 . S
H349 C335 0.961 . S
H350 C335 0.961 . S
H351 C335 0.961 . S
H352 C336 0.931 . S
H353 C341 0.930 . S
H354 C342 0.956 . S
H355 C342 0.961 . S
H356 C342 0.961 . S
H357 C343 0.958 1_565 S
H358 C343 0.961 . S
H359 C343 0.960 1_565 S
C360 C361 1.391 . S
C360 C362 1.394 . S
C360 H376 0.931 . S
C361 C360 1.391 . S
C361 C365 1.376 1_455 S
C362 C360 1.394 . S
C362 C363 1.369 . S
C362 C366 1.531 . S
C363 C362 1.369 . S
C363 C364 1.410 1_455 S
C363 C371 1.503 1_565 S
C364 C363 1.410 1_655 S
C364 C365 1.392 . S
C364 C367 1.511 1_565 S
C365 C361 1.376 1_655 S
C365 C364 1.392 . S
C365 H377 0.929 . S
C366 C362 1.531 . S
C366 H378 0.960 . S
C366 H379 0.962 . S
C366 H380 0.960 . S
C367 C364 1.511 1_545 S
C367 H381 0.961 . S
C367 H382 0.961 . S
C367 H383 0.961 . S
C368 C369 1.370 . S
C368 C370 1.363 . S
C368 H384 0.931 . S
C369 C368 1.370 . S
C369 C373 1.408 1_455 S
C370 C368 1.363 . S
C370 C371 1.370 . S
C370 C374 1.524 . S
C371 C363 1.503 1_545 S
C371 C370 1.370 . S
C371 C372 1.403 1_455 S
C372 C371 1.403 1_655 S
C372 C373 1.404 . S
C372 C375 1.539 1_545 S
C373 C369 1.408 1_655 S
C373 C372 1.404 . S
C373 H385 0.930 . S
C374 C370 1.524 . S
C374 H386 0.956 . S
C374 H387 0.961 . S
C374 H388 0.961 . S
C375 C372 1.539 1_565 S
C375 H389 0.958 . S
C375 H390 0.961 1_565 S
C375 H391 0.960 . S
H376 C360 0.931 . S
H377 C365 0.929 . S
H378 C366 0.960 . S
H379 C366 0.962 . S
H380 C366 0.960 . S
H381 C367 0.961 . S
H382 C367 0.961 . S
H383 C367 0.961 . S
H384 C368 0.931 . S
H385 C373 0.930 . S
H386 C374 0.956 . S
H387 C374 0.961 . S
H388 C374 0.961 . S
H389 C375 0.958 . S
H390 C375 0.961 1_545 S
H391 C375 0.960 . S
C392 C393 1.391 1_655 S
C392 C394 1.394 1_554 S
C392 H408 0.931 . S
C393 C392 1.391 1_455 S
C393 C397 1.376 . S
C394 C392 1.394 1_556 S
C394 C395 1.369 1_655 S
C394 C398 1.531 . S
C395 C394 1.369 1_455 S
C395 C396 1.410 . S
C395 C403 1.503 . S
C396 C395 1.410 . S
C396 C397 1.392 1_556 S
C396 C399 1.511 . S
C397 C393 1.376 . S
C397 C396 1.392 1_554 S
C397 H409 0.929 . S
C398 C394 1.531 . S
C398 H410 0.960 . S
C398 H411 0.962 . S
C398 H412 0.960 . S
C399 C396 1.511 . S
C399 H413 0.961 . S
C399 H414 0.961 . S
C399 H415 0.961 . S
C400 C401 1.370 1_655 S
C400 C402 1.363 . S
C400 H416 0.931 . S
C401 C400 1.370 1_455 S
C401 C405 1.408 . S
C402 C400 1.363 . S
C402 C403 1.370 1_655 S
C402 C406 1.524 . S
C403 C395 1.503 . S
C403 C402 1.370 1_455 S
C403 C404 1.403 . S
C404 C403 1.403 . S
C404 C405 1.404 . S
C404 C407 1.539 . S
C405 C401 1.408 . S
C405 C404 1.404 . S
C405 H417 0.930 . S
C406 C402 1.524 . S
C406 H418 0.956 . S
C406 H419 0.961 . S
C406 H420 0.961 . S
C407 C404 1.539 . S
C407 H421 0.958 . S
C407 H422 0.961 . S
C407 H423 0.960 . S
H408 C392 0.931 . S
H409 C397 0.929 . S
H410 C398 0.960 . S
H411 C398 0.962 . S
H412 C398 0.960 . S
H413 C399 0.961 . S
H414 C399 0.961 . S
H415 C399 0.961 . S
H416 C400 0.931 . S
H417 C405 0.930 . S
H418 C406 0.956 . S
H419 C406 0.961 . S
H420 C406 0.961 . S
H421 C407 0.958 . S
H422 C407 0.961 . S
H423 C407 0.960 . S
C424 C425 1.391 1_655 S
C424 C426 1.394 1_556 S
C424 H440 0.931 . S
C425 C424 1.391 1_455 S
C425 C429 1.376 . S
C426 C424 1.394 1_554 S
C426 C427 1.369 1_655 S
C426 C430 1.531 . S
C427 C426 1.369 1_455 S
C427 C428 1.410 . S
C427 C435 1.503 . S
C428 C427 1.410 . S
C428 C429 1.392 1_554 S
C428 C431 1.511 . S
C429 C425 1.376 . S
C429 C428 1.392 1_556 S
C429 H441 0.929 . S
C430 C426 1.531 . S
C430 H442 0.960 . S
C430 H443 0.962 . S
C430 H444 0.960 . S
C431 C428 1.511 . S
C431 H445 0.961 . S
C431 H446 0.961 . S
C431 H447 0.961 . S
C432 C433 1.370 1_655 S
C432 C434 1.363 . S
C432 H448 0.931 . S
C433 C432 1.370 1_455 S
C433 C437 1.408 . S
C434 C432 1.363 . S
C434 C435 1.370 1_655 S
C434 C438 1.524 . S
C435 C427 1.503 . S
C435 C434 1.370 1_455 S
C435 C436 1.403 . S
C436 C435 1.403 . S
C436 C437 1.404 . S
C436 C439 1.539 . S
C437 C433 1.408 . S
C437 C436 1.404 . S
C437 H449 0.930 . S
C438 C434 1.524 . S
C438 H450 0.956 . S
C438 H451 0.961 . S
C438 H452 0.961 . S
C439 C436 1.539 . S
C439 H453 0.958 . S
C439 H454 0.961 . S
C439 H455 0.960 . S
H440 C424 0.931 . S
H441 C429 0.929 . S
H442 C430 0.960 . S
H443 C430 0.962 . S
H444 C430 0.960 . S
H445 C431 0.961 . S
H446 C431 0.961 . S
H447 C431 0.961 . S
H448 C432 0.931 . S
H449 C437 0.930 . S
H450 C438 0.956 . S
H451 C438 0.961 . S
H452 C438 0.961 . S
H453 C439 0.958 . S
H454 C439 0.961 . S
H455 C439 0.960 . S
C456 C457 1.391 . S
C456 C458 1.394 . S
C456 H472 0.931 . S
C457 C456 1.391 . S
C457 C461 1.376 . S
C458 C456 1.394 . S
C458 C459 1.369 . S
C458 C462 1.531 . S
C459 C458 1.369 . S
C459 C460 1.410 . S
C459 C467 1.503 . S
C460 C459 1.410 . S
C460 C461 1.392 . S
C460 C463 1.511 . S
C461 C457 1.376 . S
C461 C460 1.392 . S
C461 H473 0.929 . S
C462 C458 1.531 . S
C462 H474 0.960 . S
C462 H475 0.962 . S
C462 H476 0.960 . S
C463 C460 1.511 . S
C463 H477 0.961 . S
C463 H478 0.961 . S
C463 H479 0.961 . S
C464 C465 1.370 . S
C464 C466 1.363 . S
C464 H480 0.931 . S
C465 C464 1.370 . S
C465 C469 1.408 . S
C466 C464 1.363 . S
C466 C467 1.370 . S
C466 C470 1.524 . S
C467 C459 1.503 . S
C467 C466 1.370 . S
C467 C468 1.403 . S
C468 C467 1.403 . S
C468 C469 1.404 . S
C468 C471 1.539 . S
C469 C465 1.408 . S
C469 C468 1.404 . S
C469 H481 0.930 . S
C470 C466 1.524 . S
C470 H482 0.956 . S
C470 H483 0.961 . S
C470 H484 0.961 . S
C471 C468 1.539 . S
C471 H485 0.958 . S
C471 H486 0.961 . S
C471 H487 0.960 . S
H472 C456 0.931 . S
H473 C461 0.929 . S
H474 C462 0.960 . S
H475 C462 0.962 . S
H476 C462 0.960 . S
H477 C463 0.961 . S
H478 C463 0.961 . S
H479 C463 0.961 . S
H480 C464 0.931 . S
H481 C469 0.930 . S
H482 C470 0.956 . S
H483 C470 0.961 . S
H484 C470 0.961 . S
H485 C471 0.958 . S
H486 C471 0.961 . S
H487 C471 0.960 . S
C488 C489 1.391 . S
C488 C490 1.394 . S
C488 H504 0.931 . S
C489 C488 1.391 . S
C489 C493 1.376 . S
C490 C488 1.394 . S
C490 C491 1.369 . S
C490 C494 1.531 . S
C491 C490 1.369 . S
C491 C492 1.410 . S
C491 C499 1.503 . S
C492 C491 1.410 . S
C492 C493 1.392 . S
C492 C495 1.511 . S
C493 C489 1.376 . S
C493 C492 1.392 . S
C493 H505 0.929 . S
C494 C490 1.531 . S
C494 H506 0.960 . S
C494 H507 0.962 . S
C494 H508 0.960 . S
C495 C492 1.511 . S
C495 H509 0.961 . S
C495 H510 0.961 . S
C495 H511 0.961 . S
C496 C497 1.370 . S
C496 C498 1.363 . S
C496 H512 0.931 . S
C497 C496 1.370 . S
C497 C501 1.408 . S
C498 C496 1.363 . S
C498 C499 1.370 . S
C498 C502 1.524 . S
C499 C491 1.503 . S
C499 C498 1.370 . S
C499 C500 1.403 . S
C500 C499 1.403 . S
C500 C501 1.404 . S
C500 C503 1.539 . S
C501 C497 1.408 . S
C501 C500 1.404 . S
C501 H513 0.930 . S
C502 C498 1.524 . S
C502 H514 0.956 . S
C502 H515 0.961 . S
C502 H516 0.961 . S
C503 C500 1.539 . S
C503 H517 0.958 . S
C503 H518 0.961 . S
C503 H519 0.960 . S
H504 C488 0.931 . S
H505 C493 0.929 . S
H506 C494 0.960 . S
H507 C494 0.962 . S
H508 C494 0.960 . S
H509 C495 0.961 . S
H510 C495 0.961 . S
H511 C495 0.961 . S
H512 C496 0.931 . S
H513 C501 0.930 . S
H514 C502 0.956 . S
H515 C502 0.961 . S
H516 C502 0.961 . S
H517 C503 0.958 . S
H518 C503 0.961 . S
H519 C503 0.960 . S
C137 C17 1.995 . S
C145 C42 1.973 . S
C169 C68 2.118 . S
C177 C63 2.121 . S
C201 C119 2.034 . S
C209 C76 2.069 . S
C233 C29 1.895 . S
C241 C102 1.936 . S
C265 C131 2.135 . S
C273 C0 2.112 . S
C297 C97 1.944 . S
C305 C34 1.917 . S
C329 C85 1.955 . S
C337 C110 1.987 . S
C361 C51 2.052 . S
C369 C8 2.060 . S
C393 C4 0.623 . S
C401 C13 0.608 . S
C425 C47 0.603 . S
C433 C38 0.619 . S
C457 C81 0.624 . S
C465 C72 0.608 . S
C489 C115 0.627 . S
C497 C106 0.607 . S
