# Generated by pormake.
# Topology vme, (6)-cn, num edge types: 1
# Building blocks:
#     Node 0, Type 0, BuildingBlock: MIDCAF_clean_sbu_0, # of connection points: 6
#     Node 1, Type 0, BuildingBlock: MIDCAF_clean_sbu_0, # of connection points: 6
#     Node 2, Type 0, BuildingBlock: MIDCAF_clean_sbu_0, # of connection points: 6
#     Node 3, Type 0, BuildingBlock: MIDCAF_clean_sbu_0, # of connection points: 6
#     Edge 4, Type (0, 0), BuildingBlock: KIFKEQ_clean_linker_1, # of connection points: 2
#     Edge 5, Type (0, 0), BuildingBlock: KIFKEQ_clean_linker_1, # of connection points: 2
#     Edge 6, Type (0, 0), BuildingBlock: KIFKEQ_clean_linker_1, # of connection points: 2
#     Edge 7, Type (0, 0), BuildingBlock: KIFKEQ_clean_linker_1, # of connection points: 2
#     Edge 8, Type (0, 0), BuildingBlock: KIFKEQ_clean_linker_1, # of connection points: 2
#     Edge 9, Type (0, 0), BuildingBlock: KIFKEQ_clean_linker_1, # of connection points: 2
#     Edge 10, Type (0, 0), BuildingBlock: KIFKEQ_clean_linker_1, # of connection points: 2
#     Edge 11, Type (0, 0), BuildingBlock: KIFKEQ_clean_linker_1, # of connection points: 2
#     Edge 12, Type (0, 0), BuildingBlock: KIFKEQ_clean_linker_1, # of connection points: 2
#     Edge 13, Type (0, 0), BuildingBlock: KIFKEQ_clean_linker_1, # of connection points: 2
#     Edge 14, Type (0, 0), BuildingBlock: KIFKEQ_clean_linker_1, # of connection points: 2
#     Edge 15, Type (0, 0), BuildingBlock: KIFKEQ_clean_linker_1, # of connection points: 2
# Relax obj value: 0.251
# Max RMSD: 0.207
# Mean RMSD: 0.207
data_MOF--net-vme--node1-MIDCAF_clean_sbu_0--edge1-KIFKEQ_clean_linker_1
_symmetry_space_group_name_H-M    P1
_symmetry_Int_Tables_number       1
_symmetry_cell_setting            triclinic
loop_
_symmetry_equiv_pos_as_xyz
'x, y, z'
_cell_length_a     24.318288
_cell_length_b     25.006334
_cell_length_c     27.847549
_cell_angle_alpha  89.060105
_cell_angle_beta   103.91558
_cell_angle_gamma 89.826251
loop_
_atom_site_label
_atom_site_type_symbol
_atom_site_fract_x
_atom_site_fract_y
_atom_site_fract_z
_atom_type_partial_charge
Zn0 Zn 0.2356 0.45266 0.27681 0.0
Zn1 Zn 0.13792 0.33165 0.37403 0.0
Zn2 Zn 0.18702 0.39511 0.32896 0.0
C3 C 0.23515 0.3576 0.4423 0.0
C4 C 0.13812 0.27329 0.29666 0.0
O5 O 0.13091 0.46602 0.30245 0.0
O6 O 0.17171 0.50157 0.24693 0.0
C7 C 0.30536 0.45597 0.37051 0.0
O8 O 0.24318 0.38573 0.40541 0.0
O9 O 0.19206 0.3286 0.43746 0.0
O10 O 0.12661 0.26577 0.33789 0.0
O11 O 0.16016 0.31809 0.28698 0.0
O12 O 0.29549 0.48179 0.33003 0.0
O13 O 0.27174 0.41797 0.37683 0.0
O14 O 0.19881 0.34657 0.2658 0.0
O15 O 0.25879 0.39604 0.23638 0.0
C16 C 0.23226 0.35279 0.23652 0.0
O17 O 0.11224 0.43826 0.3404 0.0
O18 O 0.07032 0.37496 0.37454 0.0
C19 C 0.13127 0.50121 0.26814 0.0
C20 C 0.07207 0.4229 0.36023 0.0
Zn21 Zn 0.87743 0.80533 0.03247 0.0
Zn22 Zn 0.75083 0.95733 0.19538 0.0
Zn23 Zn 0.78757 0.89988 0.13619 0.0
C24 C 0.76247 0.84984 0.2336 0.0
C25 C 0.668 0.95349 0.10222 0.0
O26 O 0.85803 0.9423 0.11706 0.0
O27 O 0.86908 0.87054 0.07768 0.0
C28 C 0.8479 0.79623 0.1411 0.0
O29 O 0.78569 0.84264 0.19724 0.0
O30 O 0.74361 0.89552 0.24061 0.0
O31 O 0.68081 0.9765 0.14353 0.0
O32 O 0.70256 0.91941 0.09114 0.0
O33 O 0.84772 0.8172 0.09869 0.0
O34 O 0.82044 0.82169 0.16756 0.0
O35 O 0.73251 0.88593 0.06221 0.0
O36 O 0.80967 0.84475 0.05554 0.0
C37 C 0.75884 0.85939 0.03559 0.0
O38 O 0.8452 0.96866 0.15572 0.0
O39 O 0.81368 1.0116 0.21245 0.0
C40 C 0.88222 0.91943 0.08678 0.0
C41 C 0.84979 1.00692 0.18679 0.0
Zn42 Zn 0.76069 0.56172 0.68909 0.0
Zn43 Zn 0.79322 0.71474 0.58402 0.0
Zn44 Zn 0.78841 0.63328 0.63114 0.0
C45 C 0.70555 0.68136 0.52859 0.0
C46 C 0.82946 0.75561 0.67008 0.0
O47 O 0.85829 0.57322 0.64454 0.0
O48 O 0.83419 0.52117 0.70111 0.0
C49 C 0.6763 0.56166 0.60056 0.0
O50 O 0.72879 0.64095 0.55543 0.0
O51 O 0.71418 0.72743 0.54632 0.0
O52 O 0.82677 0.77164 0.62658 0.0
O53 O 0.81331 0.70766 0.67817 0.0
O54 O 0.69376 0.53486 0.64018 0.0
O55 O 0.70527 0.6017 0.59093 0.0
O56 O 0.77851 0.67381 0.69902 0.0
O57 O 0.74337 0.6108 0.73951 0.0
C58 C 0.75717 0.65894 0.73525 0.0
O59 O 0.86087 0.61016 0.60508 0.0
O60 O 0.84558 0.67612 0.54968 0.0
C61 C 0.86862 0.53324 0.67519 0.0
C62 C 0.87143 0.63328 0.56675 0.0
Zn63 Zn 0.09509 0.24421 0.90882 0.0
Zn64 Zn 0.21929 0.06039 0.77196 0.0
Zn65 Zn 0.18549 0.1258 0.82439 0.0
C66 C 0.2209 0.16083 0.72551 0.0
C67 C 0.29793 0.06567 0.86793 0.0
O68 O 0.10825 0.09382 0.84051 0.0
O69 O 0.10159 0.17182 0.87185 0.0
C70 C 0.13306 0.23435 0.80469 0.0
O71 O 0.19693 0.17427 0.7601 0.0
O72 O 0.23537 0.11266 0.72241 0.0
O73 O 0.284 0.03921 0.82853 0.0
O74 O 0.26698 0.10535 0.87463 0.0
O75 O 0.12846 0.21979 0.84789 0.0
O76 O 0.1599 0.20199 0.78312 0.0
O77 O 0.23668 0.14458 0.89897 0.0
O78 O 0.16191 0.19478 0.89419 0.0
C79 C 0.21044 0.17871 0.9193 0.0
O80 O 0.12559 0.05753 0.81039 0.0
O81 O 0.15316 1.01118 0.75338 0.0
C82 C 0.08352 0.12386 0.86571 0.0
C83 C 0.11906 0.01801 0.78051 0.0
H84 H 0.95597 0.98983 0.1726 0.0
H85 H 0.84944 0.11141 0.21253 0.0
H86 H 0.03368 0.05397 0.18237 0.0
H87 H 0.92684 0.17527 0.22234 0.0
H88 H 0.05639 0.29186 0.21354 0.0
H89 H -0.01221 0.22502 0.1741 0.0
H90 H 0.09283 0.10017 0.25863 0.0
H91 H 0.16108 0.16715 0.29798 0.0
C92 C 0.94896 0.03041 0.18288 0.0
C93 C 0.89661 0.04569 0.19177 0.0
C94 C -0.00657 0.06703 0.18847 0.0
C95 C 0.98615 0.11981 0.20249 0.0
C96 C 0.93342 0.1352 0.2105 0.0
C97 C 0.88931 0.09847 0.20555 0.0
C98 C 0.06635 0.24987 0.22141 0.0
C99 C 0.11428 0.23449 0.25829 0.0
C100 C 0.02666 0.21169 0.1995 0.0
C101 C 0.03445 0.15753 0.21405 0.0
C102 C 0.08571 0.14155 0.24655 0.0
C103 C 0.12508 0.17982 0.26881 0.0
H104 H 0.02068 0.49933 0.27803 0.0
H105 H 0.13932 0.59643 0.22277 0.0
H106 H 0.9469 0.56778 0.24913 0.0
H107 H 0.06602 0.66327 0.19305 0.0
H108 H 0.91253 0.7381 0.09317 0.0
H109 H 0.97643 0.66434 0.12566 0.0
H110 H 0.92402 0.66823 0.26305 0.0
H111 H 0.85918 0.74273 0.23016 0.0
C112 C 0.03134 0.53552 0.26068 0.0
C113 C 0.08608 0.54251 0.25319 0.0
C114 C -0.01099 0.57449 0.24377 0.0
C115 C 0.00054 0.62059 0.21832 0.0
C116 C 0.05549 0.62777 0.21171 0.0
C117 C 0.09758 0.58938 0.22889 0.0
C118 C 0.91389 0.72312 0.13007 0.0
C119 C 0.88113 0.74693 0.15924 0.0
C120 C 0.95081 0.68085 0.1488 0.0
C121 C 0.95591 0.66102 0.19718 0.0
C122 C 0.92099 0.68271 0.22562 0.0
C123 C 0.88406 0.72547 0.20685 0.0
H124 H 0.03722 1.00106 0.69817 0.0
H125 H 0.0925 0.95405 0.85198 0.0
H126 H 0.95797 0.93912 0.68782 0.0
H127 H 0.01323 0.89054 0.8415 0.0
H128 H 0.92306 0.73479 0.74387 0.0
H129 H -0.01033 0.80321 0.78402 0.0
H130 H 0.86719 0.92618 0.72182 0.0
H131 H 0.80095 0.85793 0.68193 0.0
C132 C 0.03193 0.9776 0.72979 0.0
C133 C 0.07035 0.98221 0.7758 0.0
C134 C -0.01354 0.94253 0.72409 0.0
C135 C 0.97915 0.91056 0.76407 0.0
C136 C 0.01779 0.91503 0.81027 0.0
C137 C 0.06291 0.9511 0.81621 0.0
C138 C 0.90932 0.77622 0.74126 0.0
C139 C 0.85702 0.79129 0.71 0.0
C140 C 0.9475 0.81539 0.76396 0.0
C141 C 0.93379 0.86991 0.75515 0.0
C142 C 0.87889 0.88442 0.72875 0.0
C143 C 0.84085 0.8454 0.70629 0.0
H144 H 0.97041 0.54808 0.73914 0.0
H145 H 0.87993 0.44105 0.62848 0.0
H146 H 0.04543 0.4808 0.76601 0.0
H147 H 0.95437 0.3733 0.65531 0.0
H148 H 0.10835 0.26411 0.70624 0.0
H149 H 0.05445 0.34317 0.66747 0.0
H150 H 0.0434 0.39681 0.81151 0.0
H151 H 0.09718 0.31877 0.84982 0.0
C152 C 0.96774 0.51081 0.71943 0.0
C153 C 0.92003 0.49988 0.68133 0.0
C154 C 0.01026 0.472 0.73513 0.0
C155 C 0.0057 0.42129 0.71323 0.0
C156 C 0.95965 0.41195 0.67274 0.0
C157 C 0.91701 0.45073 0.65725 0.0
C158 C 0.09517 0.29335 0.72956 0.0
C159 C 0.10664 0.28491 0.78109 0.0
C160 C 0.06404 0.33847 0.70735 0.0
C161 C 0.04444 0.37645 0.7363 0.0
C162 C 0.05828 0.36893 0.788 0.0
C163 C 0.08875 0.32376 0.81002 0.0
H164 H 0.91051 0.67752 0.49136 0.0
H165 H 0.91141 0.53022 0.575 0.0
H166 H 0.95454 0.63139 0.43372 0.0
H167 H 0.95636 0.48441 0.51776 0.0
H168 H 0.96983 0.40357 0.37984 0.0
H169 H 0.92271 0.45876 0.42929 0.0
H170 H 0.04388 0.58444 0.42831 0.0
H171 H 0.09108 0.52916 0.37845 0.0
C172 C 0.92106 0.6355 0.49803 0.0
C173 C 0.90729 0.60742 0.53778 0.0
C174 C 0.94623 0.60918 0.46492 0.0
C175 C 0.95786 0.55421 0.47074 0.0
C176 C 0.94665 0.52666 0.51179 0.0
C177 C 0.92168 0.55304 0.54504 0.0
C178 C 0.9855 0.44355 0.38903 0.0
C179 C 0.03449 0.46185 0.37582 0.0
C180 C 0.95896 0.47484 0.41784 0.0
C181 C 0.9808 0.52509 0.43391 0.0
C182 C 0.02649 0.5456 0.41676 0.0
C183 C 0.05322 0.51414 0.3879 0.0
H184 H 0.89007 0.02801 0.08025 0.0
H185 H 0.94377 0.88208 0.02376 0.0
H186 H 0.93429 0.08026 0.02561 0.0
H187 H -0.01153 0.93448 0.96899 0.0
H188 H 0.01095 0.04058 0.84127 0.0
H189 H 0.963 0.99126 0.89568 0.0
H190 H 0.02417 0.10542 0.01092 0.0
H191 H 0.07199 0.15423 0.95626 0.0
C192 C 0.91246 1.00701 0.05697 0.0
C193 C 0.91408 0.95079 0.05694 0.0
C194 C 0.93761 0.03708 0.02536 0.0
C195 C 0.96476 1.01171 -0.00738 0.0
C196 C 0.96708 0.9554 -0.0069 0.0
C197 C 0.94195 0.9253 0.02484 0.0
C198 C 0.01394 0.05492 0.87821 0.0
C199 C 0.04575 0.1006 0.89477 0.0
C200 C -0.01334 0.02672 0.90948 0.0
C201 C -0.0095 0.04377 0.9581 0.0
C202 C 0.02002 0.09121 0.9737 0.0
C203 C 0.04724 0.11939 0.9423 0.0
H204 H 0.2706 0.12445 0.00305 0.0
H205 H 0.1939 0.27693 0.9499 0.0
H206 H 0.28356 0.15494 0.0892 0.0
H207 H 0.20596 0.30633 0.03456 0.0
H208 H 0.14892 0.29261 0.18033 0.0
H209 H 0.15501 0.23885 0.10912 0.0
H210 H 0.33377 0.2712 0.13676 0.0
H211 H 0.32785 0.32427 0.2087 0.0
C212 C 0.25793 0.16467 0.00975 0.0
C213 C 0.23084 0.19826 0.97006 0.0
C214 C 0.26483 0.18182 0.05873 0.0
C215 C 0.24469 0.23249 0.06794 0.0
C216 C 0.22102 0.26686 0.02816 0.0
C217 C 0.21433 0.25002 -0.02017 0.0
C218 C 0.18993 0.28572 0.17292 0.0
C219 C 0.2379 0.31178 0.20042 0.0
C220 C 0.19343 0.25536 0.13203 0.0
C221 C 0.24507 0.25044 0.11819 0.0
C222 C 0.29385 0.2736 0.14745 0.0
C223 C 0.29025 0.30423 0.18821 0.0
H224 H 0.8365 0.78876 0.30327 0.0
H225 H 0.65941 0.81205 0.23392 0.0
H226 H 0.81136 0.72906 0.36535 0.0
H227 H 0.63391 0.75182 0.29482 0.0
H228 H 0.6282 0.74098 0.46253 0.0
H229 H 0.63778 0.76722 0.38058 0.0
H230 H 0.76802 0.64696 0.38993 0.0
H231 H 0.75797 0.62059 0.47224 0.0
C232 C 0.79236 0.77938 0.30027 0.0
C233 C 0.74986 0.80467 0.26391 0.0
C234 C 0.77777 0.74518 0.33573 0.0
C235 C 0.72042 0.73596 0.33544 0.0
C236 C 0.67835 0.75854 0.29669 0.0
C237 C 0.69292 0.79277 0.26162 0.0
C238 C 0.65665 0.71821 0.44599 0.0
C239 C 0.69232 0.67889 0.47395 0.0
C240 C 0.6626 0.73349 0.399 0.0
C241 C 0.70468 0.71002 0.37895 0.0
C242 C 0.73593 0.66651 0.40461 0.0
C243 C 0.72937 0.6507 0.45148 0.0
H244 H 0.6855 0.78035 -0.00037 0.0
H245 H 0.78559 0.9058 0.95647 0.0
H246 H 0.67723 0.73778 0.92001 0.0
H247 H 0.77563 0.86505 0.87578 0.0
H248 H 0.66183 0.67282 0.76808 0.0
H249 H 0.64768 0.73243 0.83288 0.0
H250 H 0.81956 0.78863 0.85231 0.0
H251 H 0.83255 0.72941 0.78726 0.0
C252 C 0.70296 0.80033 0.97186 0.0
C253 C 0.73519 0.84671 -0.01646 0.0
C254 C 0.69866 0.77583 0.92625 0.0
C255 C 0.72665 0.7974 0.89155 0.0
C256 C 0.75461 0.8466 0.90191 0.0
C257 C 0.75937 0.87063 0.94768 0.0
C258 C 0.69614 0.69864 0.7859 0.0
C259 C 0.74798 0.6976 0.77208 0.0
C260 C 0.68817 0.73266 0.82311 0.0
C261 C 0.73227 0.76579 0.84789 0.0
C262 C 0.78394 0.76502 0.8333 0.0
C263 C 0.79159 0.73128 0.79582 0.0
H264 H 0.22746 0.27078 0.73314 0.0
H265 H 0.24689 0.14072 0.63829 0.0
H266 H 0.25713 0.33401 0.67614 0.0
H267 H 0.27438 0.20282 0.58138 0.0
H268 H 0.33068 0.30012 0.48196 0.0
H269 H 0.34342 0.25982 0.5642 0.0
H270 H 0.22394 0.37363 0.59695 0.0
H271 H 0.21501 0.41565 0.51639 0.0
C272 C 0.23759 0.25577 0.70001 0.0
C273 C 0.23457 0.20072 0.69018 0.0
C274 C 0.255 0.29191 0.66748 0.0
C275 C 0.26953 0.27371 0.62441 0.0
C276 C 0.26585 0.21859 0.61485 0.0
C277 C 0.24898 0.18278 0.64725 0.0
C278 C 0.31071 0.31898 0.50823 0.0
C279 C 0.27113 0.3603 0.49263 0.0
C280 C 0.31658 0.29497 0.55497 0.0
C281 C 0.28198 0.31136 0.58615 0.0
C282 C 0.25061 0.35906 0.5739 0.0
C283 C 0.246 0.3838 0.52768 0.0
H284 H 0.3553 0.55283 0.38162 0.0
H285 H 0.3705 0.39353 0.44579 0.0
H286 H 0.44381 0.57774 0.43747 0.0
H287 H 0.46081 0.41817 0.50162 0.0
H288 H 0.59536 0.49794 0.62327 0.0
H289 H 0.50503 0.47193 0.57059 0.0
H290 H 0.54277 0.56237 0.44901 0.0
H291 H 0.63301 0.5893 0.5023 0.0
C292 C 0.37765 0.52302 0.40787 0.0
C293 C 0.35599 0.47104 0.40915 0.0
C294 C 0.42881 0.53724 0.43965 0.0
C295 C 0.46023 0.49981 0.4735 0.0
C296 C 0.43765 0.44817 0.47611 0.0
C297 C 0.38585 0.43397 0.4443 0.0
C298 C 0.58456 0.51235 0.58524 0.0
C299 C 0.62148 0.54628 0.56717 0.0
C300 C 0.5327 0.49706 0.55492 0.0
C301 C 0.51628 0.51502 0.50552 0.0
C302 C 0.55345 0.54853 0.4872 0.0
C303 C 0.60535 0.56409 0.51772 0.0
H304 H 0.35919 0.12165 0.94766 0.0
H305 H 0.3557 0.97221 0.87125 0.0
H306 H 0.44947 0.09482 0.00347 0.0
H307 H 0.44396 0.94499 0.92727 0.0
H308 H 0.63184 0.9334 0.00249 0.0
H309 H 0.54271 0.96239 0.94653 0.0
H310 H 0.4907 0.03384 0.069 0.0
H311 H 0.57974 1.00653 0.12413 0.0
C312 C 0.3773 0.08299 0.94309 0.0
C313 C 0.3504 0.04937 0.90477 0.0
C314 C 0.42899 0.06746 0.97507 0.0
C315 C 0.45447 0.01783 0.96957 0.0
C316 C 0.42659 0.98396 0.93193 0.0
C317 C 0.3755 0.99953 0.89998 0.0
C318 C 0.60124 0.9551 0.01737 0.0
C319 C 0.61309 0.9677 0.06773 0.0
C320 C 0.55005 0.9717 -0.01462 0.0
C321 C 0.50942 1.0008 0.00318 0.0
C322 C 0.52124 1.01261 0.05368 0.0
C323 C 0.57233 0.99645 0.08542 0.0
loop_
_geom_bond_atom_site_label_1
_geom_bond_atom_site_label_2
_geom_bond_distance
_geom_bond_site_symmetry_2
_ccdc_geom_bond_type
Zn0 O6 1.920 . S
Zn0 O12 1.898 . S
Zn0 O15 1.905 . S
Zn1 O9 1.905 . S
Zn1 O10 1.898 . S
Zn1 O18 1.920 . S
Zn2 O5 2.080 . S
Zn2 O8 2.114 . S
Zn2 O11 2.120 . S
Zn2 O13 2.120 . S
Zn2 O14 2.114 . S
Zn2 O17 2.080 . S
C3 O8 1.166 . S
C3 O9 1.182 . S
C4 O10 1.167 . S
C4 O11 1.299 . S
O5 Zn2 2.080 . S
O5 C19 1.305 . S
O6 Zn0 1.920 . S
O6 C19 1.234 . S
C7 O12 1.167 . S
C7 O13 1.299 . S
O8 Zn2 2.114 . S
O8 C3 1.166 . S
O9 Zn1 1.905 . S
O9 C3 1.182 . S
O10 Zn1 1.898 . S
O10 C4 1.167 . S
O11 Zn2 2.120 . S
O11 C4 1.299 . S
O12 Zn0 1.898 . S
O12 C7 1.167 . S
O13 Zn2 2.120 . S
O13 C7 1.299 . S
O14 Zn2 2.114 . S
O14 C16 1.166 . S
O15 Zn0 1.905 . S
O15 C16 1.182 . S
C16 O14 1.166 . S
C16 O15 1.182 . S
O17 Zn2 2.080 . S
O17 C20 1.305 . S
O18 Zn1 1.920 . S
O18 C20 1.234 . S
C19 O5 1.305 . S
C19 O6 1.234 . S
C20 O17 1.305 . S
C20 O18 1.234 . S
Zn21 O27 1.920 . S
Zn21 O33 1.898 . S
Zn21 O36 1.905 . S
Zn22 O30 1.905 . S
Zn22 O31 1.898 . S
Zn22 O39 1.920 1_565 S
Zn23 O26 2.080 . S
Zn23 O29 2.114 . S
Zn23 O32 2.120 . S
Zn23 O34 2.120 . S
Zn23 O35 2.114 . S
Zn23 O38 2.080 . S
C24 O29 1.166 . S
C24 O30 1.182 . S
C25 O31 1.167 . S
C25 O32 1.299 . S
O26 Zn23 2.080 . S
O26 C40 1.305 . S
O27 Zn21 1.920 . S
O27 C40 1.234 . S
C28 O33 1.167 . S
C28 O34 1.299 . S
O29 Zn23 2.114 . S
O29 C24 1.166 . S
O30 Zn22 1.905 . S
O30 C24 1.182 . S
O31 Zn22 1.898 . S
O31 C25 1.167 . S
O32 Zn23 2.120 . S
O32 C25 1.299 . S
O33 Zn21 1.898 . S
O33 C28 1.167 . S
O34 Zn23 2.120 . S
O34 C28 1.299 . S
O35 Zn23 2.114 . S
O35 C37 1.166 . S
O36 Zn21 1.905 . S
O36 C37 1.182 . S
C37 O35 1.166 . S
C37 O36 1.182 . S
O38 Zn23 2.080 . S
O38 C41 1.305 . S
O39 Zn22 1.920 1_545 S
O39 C41 1.234 1_545 S
C40 O26 1.305 . S
C40 O27 1.234 . S
C41 O38 1.305 . S
C41 O39 1.234 1_565 S
Zn42 O48 1.920 . S
Zn42 O54 1.898 . S
Zn42 O57 1.905 . S
Zn43 O51 1.905 . S
Zn43 O52 1.898 . S
Zn43 O60 1.920 . S
Zn44 O47 2.080 . S
Zn44 O50 2.114 . S
Zn44 O53 2.120 . S
Zn44 O55 2.120 . S
Zn44 O56 2.114 . S
Zn44 O59 2.080 . S
C45 O50 1.166 . S
C45 O51 1.182 . S
C46 O52 1.167 . S
C46 O53 1.299 . S
O47 Zn44 2.080 . S
O47 C61 1.305 . S
O48 Zn42 1.920 . S
O48 C61 1.234 . S
C49 O54 1.167 . S
C49 O55 1.299 . S
O50 Zn44 2.114 . S
O50 C45 1.166 . S
O51 Zn43 1.905 . S
O51 C45 1.182 . S
O52 Zn43 1.898 . S
O52 C46 1.167 . S
O53 Zn44 2.120 . S
O53 C46 1.299 . S
O54 Zn42 1.898 . S
O54 C49 1.167 . S
O55 Zn44 2.120 . S
O55 C49 1.299 . S
O56 Zn44 2.114 . S
O56 C58 1.166 . S
O57 Zn42 1.905 . S
O57 C58 1.182 . S
C58 O56 1.166 . S
C58 O57 1.182 . S
O59 Zn44 2.080 . S
O59 C62 1.305 . S
O60 Zn43 1.920 . S
O60 C62 1.234 . S
C61 O47 1.305 . S
C61 O48 1.234 . S
C62 O59 1.305 . S
C62 O60 1.234 . S
Zn63 O69 1.920 . S
Zn63 O75 1.898 . S
Zn63 O78 1.905 . S
Zn64 O72 1.905 . S
Zn64 O73 1.898 . S
Zn64 O81 1.920 1_545 S
Zn65 O68 2.080 . S
Zn65 O71 2.114 . S
Zn65 O74 2.120 . S
Zn65 O76 2.120 . S
Zn65 O77 2.114 . S
Zn65 O80 2.080 . S
C66 O71 1.166 . S
C66 O72 1.182 . S
C67 O73 1.167 . S
C67 O74 1.299 . S
O68 Zn65 2.080 . S
O68 C82 1.305 . S
O69 Zn63 1.920 . S
O69 C82 1.234 . S
C70 O75 1.167 . S
C70 O76 1.299 . S
O71 Zn65 2.114 . S
O71 C66 1.166 . S
O72 Zn64 1.905 . S
O72 C66 1.182 . S
O73 Zn64 1.898 . S
O73 C67 1.167 . S
O74 Zn65 2.120 . S
O74 C67 1.299 . S
O75 Zn63 1.898 . S
O75 C70 1.167 . S
O76 Zn65 2.120 . S
O76 C70 1.299 . S
O77 Zn65 2.114 . S
O77 C79 1.166 . S
O78 Zn63 1.905 . S
O78 C79 1.182 . S
C79 O77 1.166 . S
C79 O78 1.182 . S
O80 Zn65 2.080 . S
O80 C83 1.305 . S
O81 Zn64 1.920 1_565 S
O81 C83 1.234 1_565 S
C82 O68 1.305 . S
C82 O69 1.234 . S
C83 O80 1.305 . S
C83 O81 1.234 1_545 S
H84 C92 0.950 . S
H85 C97 0.950 . S
H86 C94 0.950 1_455 S
H87 C96 0.950 . S
H88 C98 0.950 . S
H89 C100 0.950 . S
H90 C102 0.950 . S
H91 C103 0.950 . S
C92 H84 0.950 . S
C92 C93 1.386 . S
C92 C94 1.391 . S
C93 C92 1.386 . S
C93 C97 1.393 . S
C94 H86 0.950 1_655 S
C94 C92 1.391 . S
C94 C95 1.400 . S
C95 C94 1.400 . S
C95 C96 1.398 . S
C95 C101 1.491 . S
C96 H87 0.950 . S
C96 C95 1.398 . S
C96 C97 1.391 . S
C97 H85 0.950 . S
C97 C93 1.393 . S
C97 C96 1.391 . S
C98 H88 0.950 . S
C98 C99 1.386 . S
C98 C100 1.391 1_455 S
C99 C98 1.386 . S
C99 C103 1.393 . S
C100 H89 0.950 . S
C100 C98 1.391 1_655 S
C100 C101 1.400 . S
C101 C95 1.491 . S
C101 C100 1.400 . S
C101 C102 1.398 1_655 S
C102 H90 0.950 . S
C102 C101 1.398 1_455 S
C102 C103 1.391 . S
C103 H91 0.950 . S
C103 C99 1.393 . S
C103 C102 1.391 . S
H104 C112 0.950 . S
H105 C117 0.950 . S
H106 C114 0.950 . S
H107 C116 0.950 . S
H108 C118 0.950 . S
H109 C120 0.950 . S
H110 C122 0.950 . S
H111 C123 0.950 . S
C112 H104 0.950 . S
C112 C113 1.386 . S
C112 C114 1.391 . S
C113 C112 1.386 . S
C113 C117 1.393 . S
C114 H106 0.950 . S
C114 C112 1.391 . S
C114 C115 1.400 . S
C115 C114 1.400 . S
C115 C116 1.398 . S
C115 C121 1.491 . S
C116 H107 0.950 . S
C116 C115 1.398 . S
C116 C117 1.391 . S
C117 H105 0.950 . S
C117 C113 1.393 . S
C117 C116 1.391 . S
C118 H108 0.950 . S
C118 C119 1.386 . S
C118 C120 1.391 . S
C119 C118 1.386 . S
C119 C123 1.393 . S
C120 H109 0.950 . S
C120 C118 1.391 . S
C120 C121 1.400 1_655 S
C121 C115 1.491 . S
C121 C120 1.400 1_455 S
C121 C122 1.398 1_455 S
C122 H110 0.950 . S
C122 C121 1.398 1_655 S
C122 C123 1.391 . S
C123 H111 0.950 . S
C123 C119 1.393 . S
C123 C122 1.391 . S
H124 C132 0.950 1_545 S
H125 C137 0.950 . S
H126 C134 0.950 1_655 S
H127 C136 0.950 . S
H128 C138 0.950 1_455 S
H129 C140 0.950 . S
H130 C142 0.950 . S
H131 C143 0.950 . S
C132 H124 0.950 1_565 S
C132 C133 1.386 . S
C132 C134 1.391 . S
C133 C132 1.386 . S
C133 C137 1.393 . S
C134 H126 0.950 1_455 S
C134 C132 1.391 . S
C134 C135 1.400 . S
C135 C134 1.400 . S
C135 C136 1.398 . S
C135 C141 1.491 . S
C136 H127 0.950 . S
C136 C135 1.398 . S
C136 C137 1.391 . S
C137 H125 0.950 . S
C137 C133 1.393 . S
C137 C136 1.391 . S
C138 H128 0.950 1_655 S
C138 C139 1.386 . S
C138 C140 1.391 1_655 S
C139 C138 1.386 . S
C139 C143 1.393 . S
C140 H129 0.950 . S
C140 C138 1.391 1_455 S
C140 C141 1.400 . S
C141 C135 1.491 . S
C141 C140 1.400 . S
C141 C142 1.398 1_455 S
C142 H130 0.950 . S
C142 C141 1.398 1_655 S
C142 C143 1.391 . S
C143 H131 0.950 . S
C143 C139 1.393 . S
C143 C142 1.391 . S
H144 C152 0.950 . S
H145 C157 0.950 . S
H146 C154 0.950 . S
H147 C156 0.950 . S
H148 C158 0.950 . S
H149 C160 0.950 . S
H150 C162 0.950 . S
H151 C163 0.950 . S
C152 H144 0.950 . S
C152 C153 1.386 . S
C152 C154 1.391 . S
C153 C152 1.386 . S
C153 C157 1.393 . S
C154 H146 0.950 . S
C154 C152 1.391 . S
C154 C155 1.400 . S
C155 C154 1.400 . S
C155 C156 1.398 . S
C155 C161 1.491 . S
C156 H147 0.950 . S
C156 C155 1.398 . S
C156 C157 1.391 . S
C157 H145 0.950 . S
C157 C153 1.393 . S
C157 C156 1.391 . S
C158 H148 0.950 . S
C158 C159 1.386 . S
C158 C160 1.391 . S
C159 C158 1.386 . S
C159 C163 1.393 . S
C160 H149 0.950 . S
C160 C158 1.391 . S
C160 C161 1.400 1_455 S
C161 C155 1.491 . S
C161 C160 1.400 1_655 S
C161 C162 1.398 . S
C162 H150 0.950 . S
C162 C161 1.398 . S
C162 C163 1.391 1_655 S
C163 H151 0.950 . S
C163 C159 1.393 . S
C163 C162 1.391 1_455 S
H164 C172 0.950 . S
H165 C177 0.950 . S
H166 C174 0.950 1_455 S
H167 C176 0.950 . S
H168 C178 0.950 . S
H169 C180 0.950 1_655 S
H170 C182 0.950 . S
H171 C183 0.950 . S
C172 H164 0.950 . S
C172 C173 1.386 . S
C172 C174 1.391 . S
C173 C172 1.386 . S
C173 C177 1.393 . S
C174 H166 0.950 1_655 S
C174 C172 1.391 . S
C174 C175 1.400 . S
C175 C174 1.400 . S
C175 C176 1.398 . S
C175 C181 1.491 1_655 S
C176 H167 0.950 . S
C176 C175 1.398 . S
C176 C177 1.391 . S
C177 H165 0.950 . S
C177 C173 1.393 . S
C177 C176 1.391 . S
C178 H168 0.950 . S
C178 C179 1.386 . S
C178 C180 1.391 . S
C179 C178 1.386 . S
C179 C183 1.393 . S
C180 H169 0.950 1_455 S
C180 C178 1.391 . S
C180 C181 1.400 . S
C181 C175 1.491 1_455 S
C181 C180 1.400 . S
C181 C182 1.398 . S
C182 H170 0.950 . S
C182 C181 1.398 . S
C182 C183 1.391 . S
C183 H171 0.950 . S
C183 C179 1.393 . S
C183 C182 1.391 . S
H184 C192 0.944 1_545 S
H185 C197 0.950 . S
H186 C194 0.950 . S
H187 C196 0.950 1_455 S
H188 C198 0.944 1_565 S
H189 C200 0.950 . S
H190 C202 0.950 1_655 S
H191 C203 0.950 . S
C192 H184 0.944 1_565 S
C192 C193 1.395 . S
C192 C194 1.387 1_565 S
C193 C192 1.395 . S
C193 C197 1.393 . S
C194 H186 0.950 . S
C194 C192 1.387 1_545 S
C194 C195 1.400 1_545 S
C195 C194 1.400 1_565 S
C195 C196 1.398 . S
C195 C201 1.491 1_664 S
C196 H187 0.950 1_655 S
C196 C195 1.398 . S
C196 C197 1.391 . S
C197 H185 0.950 . S
C197 C193 1.393 . S
C197 C196 1.391 . S
C198 H188 0.944 1_545 S
C198 C199 1.395 . S
C198 C200 1.387 1_545 S
C199 C198 1.395 . S
C199 C203 1.393 . S
C200 H189 0.950 . S
C200 C198 1.387 1_565 S
C200 C201 1.400 1_565 S
C201 C195 1.491 1_446 S
C201 C200 1.400 1_545 S
C201 C202 1.398 . S
C202 H190 0.950 1_455 S
C202 C201 1.398 . S
C202 C203 1.391 . S
C203 H191 0.950 . S
C203 C199 1.393 . S
C203 C202 1.391 . S
H204 C212 0.950 . S
H205 C217 0.950 1_556 S
H206 C214 0.950 . S
H207 C216 0.950 . S
H208 C218 0.950 . S
H209 C220 0.950 . S
H210 C222 0.950 . S
H211 C223 0.950 . S
C212 H204 0.950 . S
C212 C213 1.386 . S
C212 C214 1.391 . S
C213 C212 1.386 . S
C213 C217 1.393 . S
C214 H206 0.950 . S
C214 C212 1.391 . S
C214 C215 1.400 . S
C215 C214 1.400 . S
C215 C216 1.398 . S
C215 C221 1.491 . S
C216 H207 0.950 . S
C216 C215 1.398 . S
C216 C217 1.391 . S
C217 H205 0.950 1_554 S
C217 C213 1.393 . S
C217 C216 1.391 . S
C218 H208 0.950 . S
C218 C219 1.386 . S
C218 C220 1.391 . S
C219 C218 1.386 . S
C219 C223 1.393 . S
C220 H209 0.950 . S
C220 C218 1.391 . S
C220 C221 1.400 . S
C221 C215 1.491 . S
C221 C220 1.400 . S
C221 C222 1.398 . S
C222 H210 0.950 . S
C222 C221 1.398 . S
C222 C223 1.391 . S
C223 H211 0.950 . S
C223 C219 1.393 . S
C223 C222 1.391 . S
H224 C232 0.950 . S
H225 C237 0.950 . S
H226 C234 0.950 . S
H227 C236 0.950 . S
H228 C238 0.950 . S
H229 C240 0.950 . S
H230 C242 0.950 . S
H231 C243 0.950 . S
C232 H224 0.950 . S
C232 C233 1.386 . S
C232 C234 1.391 . S
C233 C232 1.386 . S
C233 C237 1.393 . S
C234 H226 0.950 . S
C234 C232 1.391 . S
C234 C235 1.400 . S
C235 C234 1.400 . S
C235 C236 1.398 . S
C235 C241 1.491 . S
C236 H227 0.950 . S
C236 C235 1.398 . S
C236 C237 1.391 . S
C237 H225 0.950 . S
C237 C233 1.393 . S
C237 C236 1.391 . S
C238 H228 0.950 . S
C238 C239 1.386 . S
C238 C240 1.391 . S
C239 C238 1.386 . S
C239 C243 1.393 . S
C240 H229 0.950 . S
C240 C238 1.391 . S
C240 C241 1.400 . S
C241 C235 1.491 . S
C241 C240 1.400 . S
C241 C242 1.398 . S
C242 H230 0.950 . S
C242 C241 1.398 . S
C242 C243 1.391 . S
C243 H231 0.950 . S
C243 C239 1.393 . S
C243 C242 1.391 . S
H244 C252 0.950 1_554 S
H245 C257 0.950 . S
H246 C254 0.950 . S
H247 C256 0.950 . S
H248 C258 0.950 . S
H249 C260 0.950 . S
H250 C262 0.950 . S
H251 C263 0.950 . S
C252 H244 0.950 1_556 S
C252 C253 1.386 . S
C252 C254 1.391 . S
C253 C252 1.386 . S
C253 C257 1.393 . S
C254 H246 0.950 . S
C254 C252 1.391 . S
C254 C255 1.400 . S
C255 C254 1.400 . S
C255 C256 1.398 . S
C255 C261 1.491 . S
C256 H247 0.950 . S
C256 C255 1.398 . S
C256 C257 1.391 . S
C257 H245 0.950 . S
C257 C253 1.393 . S
C257 C256 1.391 . S
C258 H248 0.950 . S
C258 C259 1.386 . S
C258 C260 1.391 . S
C259 C258 1.386 . S
C259 C263 1.393 . S
C260 H249 0.950 . S
C260 C258 1.391 . S
C260 C261 1.400 . S
C261 C255 1.491 . S
C261 C260 1.400 . S
C261 C262 1.398 . S
C262 H250 0.950 . S
C262 C261 1.398 . S
C262 C263 1.391 . S
C263 H251 0.950 . S
C263 C259 1.393 . S
C263 C262 1.391 . S
H264 C272 0.950 . S
H265 C277 0.950 . S
H266 C274 0.950 . S
H267 C276 0.950 . S
H268 C278 0.950 . S
H269 C280 0.950 . S
H270 C282 0.950 . S
H271 C283 0.950 . S
C272 H264 0.950 . S
C272 C273 1.386 . S
C272 C274 1.391 . S
C273 C272 1.386 . S
C273 C277 1.393 . S
C274 H266 0.950 . S
C274 C272 1.391 . S
C274 C275 1.400 . S
C275 C274 1.400 . S
C275 C276 1.398 . S
C275 C281 1.491 . S
C276 H267 0.950 . S
C276 C275 1.398 . S
C276 C277 1.391 . S
C277 H265 0.950 . S
C277 C273 1.393 . S
C277 C276 1.391 . S
C278 H268 0.950 . S
C278 C279 1.386 . S
C278 C280 1.391 . S
C279 C278 1.386 . S
C279 C283 1.393 . S
C280 H269 0.950 . S
C280 C278 1.391 . S
C280 C281 1.400 . S
C281 C275 1.491 . S
C281 C280 1.400 . S
C281 C282 1.398 . S
C282 H270 0.950 . S
C282 C281 1.398 . S
C282 C283 1.391 . S
C283 H271 0.950 . S
C283 C279 1.393 . S
C283 C282 1.391 . S
H284 C292 0.950 . S
H285 C297 0.950 . S
H286 C294 0.950 . S
H287 C296 0.950 . S
H288 C298 0.950 . S
H289 C300 0.950 . S
H290 C302 0.950 . S
H291 C303 0.950 . S
C292 H284 0.950 . S
C292 C293 1.386 . S
C292 C294 1.391 . S
C293 C292 1.386 . S
C293 C297 1.393 . S
C294 H286 0.950 . S
C294 C292 1.391 . S
C294 C295 1.400 . S
C295 C294 1.400 . S
C295 C296 1.398 . S
C295 C301 1.491 . S
C296 H287 0.950 . S
C296 C295 1.398 . S
C296 C297 1.391 . S
C297 H285 0.950 . S
C297 C293 1.393 . S
C297 C296 1.391 . S
C298 H288 0.950 . S
C298 C299 1.386 . S
C298 C300 1.391 . S
C299 C298 1.386 . S
C299 C303 1.393 . S
C300 H289 0.950 . S
C300 C298 1.391 . S
C300 C301 1.400 . S
C301 C295 1.491 . S
C301 C300 1.400 . S
C301 C302 1.398 . S
C302 H290 0.950 . S
C302 C301 1.398 . S
C302 C303 1.391 . S
C303 H291 0.950 . S
C303 C299 1.393 . S
C303 C302 1.391 . S
H304 C312 0.950 1_554 S
H305 C317 0.950 . S
H306 C314 0.950 . S
H307 C316 0.950 . S
H308 C318 0.950 1_556 S
H309 C320 0.950 . S
H310 C322 0.950 . S
H311 C323 0.950 . S
C312 H304 0.950 1_556 S
C312 C313 1.386 . S
C312 C314 1.391 1_556 S
C313 C312 1.386 . S
C313 C317 1.393 . S
C314 H306 0.950 . S
C314 C312 1.391 1_554 S
C314 C315 1.400 1_554 S
C315 C314 1.400 1_556 S
C315 C316 1.398 . S
C315 C321 1.491 1_546 S
C316 H307 0.950 . S
C316 C315 1.398 . S
C316 C317 1.391 . S
C317 H305 0.950 . S
C317 C313 1.393 . S
C317 C316 1.391 . S
C318 H308 0.950 1_554 S
C318 C319 1.386 . S
C318 C320 1.391 1_554 S
C319 C318 1.386 . S
C319 C323 1.393 . S
C320 H309 0.950 . S
C320 C318 1.391 1_556 S
C320 C321 1.400 1_556 S
C321 C315 1.491 1_564 S
C321 C320 1.400 1_554 S
C321 C322 1.398 . S
C322 H310 0.950 . S
C322 C321 1.398 . S
C322 C323 1.391 . S
C323 H311 0.950 . S
C323 C319 1.393 . S
C323 C322 1.391 . S
C93 C41 1.694 1_545 S
C99 C4 1.585 . S
C113 C19 1.687 . S
C119 C28 1.601 . S
C133 C83 1.687 1_565 S
C139 C46 1.612 . S
C153 C61 1.693 . S
C159 C70 1.587 . S
C173 C62 0.677 . S
C179 C20 0.677 . S
C193 C40 0.644 . S
C199 C82 0.644 . S
C213 C79 1.200 1_554 S
C219 C16 1.415 . S
C233 C24 1.383 . S
C239 C45 1.199 . S
C253 C37 1.216 1_556 S
C259 C58 1.411 . S
C273 C66 1.383 . S
C279 C3 1.167 . S
C293 C7 1.278 . S
C299 C49 1.278 . S
C313 C67 1.247 . S
C319 C25 1.247 . S
