# Generated by pormake.
# Topology upc, (4)-cn, num edge types: 1
# Building blocks:
#     Node 0, Type 0, BuildingBlock: KOZSID_clean_sbu_0, # of connection points: 4
#     Node 1, Type 0, BuildingBlock: KOZSID_clean_sbu_0, # of connection points: 4
#     Node 2, Type 0, BuildingBlock: KOZSID_clean_sbu_0, # of connection points: 4
#     Node 3, Type 0, BuildingBlock: KOZSID_clean_sbu_0, # of connection points: 4
#     Node 4, Type 0, BuildingBlock: KOZSID_clean_sbu_0, # of connection points: 4
#     Node 5, Type 0, BuildingBlock: KOZSID_clean_sbu_0, # of connection points: 4
#     Node 6, Type 0, BuildingBlock: KOZSID_clean_sbu_0, # of connection points: 4
#     Node 7, Type 0, BuildingBlock: KOZSID_clean_sbu_0, # of connection points: 4
#     Node 8, Type 0, BuildingBlock: KOZSID_clean_sbu_0, # of connection points: 4
#     Node 9, Type 0, BuildingBlock: KOZSID_clean_sbu_0, # of connection points: 4
#     Node 10, Type 0, BuildingBlock: KOZSID_clean_sbu_0, # of connection points: 4
#     Node 11, Type 0, BuildingBlock: KOZSID_clean_sbu_0, # of connection points: 4
#     Node 12, Type 0, BuildingBlock: KOZSID_clean_sbu_0, # of connection points: 4
#     Node 13, Type 0, BuildingBlock: KOZSID_clean_sbu_0, # of connection points: 4
#     Node 14, Type 0, BuildingBlock: KOZSID_clean_sbu_0, # of connection points: 4
#     Node 15, Type 0, BuildingBlock: KOZSID_clean_sbu_0, # of connection points: 4
#     Edge 16, Type (0, 0), BuildingBlock: AJUNOK_clean_linker_0, # of connection points: 2
#     Edge 17, Type (0, 0), BuildingBlock: AJUNOK_clean_linker_0, # of connection points: 2
#     Edge 18, Type (0, 0), BuildingBlock: AJUNOK_clean_linker_0, # of connection points: 2
#     Edge 19, Type (0, 0), BuildingBlock: AJUNOK_clean_linker_0, # of connection points: 2
#     Edge 20, Type (0, 0), BuildingBlock: AJUNOK_clean_linker_0, # of connection points: 2
#     Edge 21, Type (0, 0), BuildingBlock: AJUNOK_clean_linker_0, # of connection points: 2
#     Edge 22, Type (0, 0), BuildingBlock: AJUNOK_clean_linker_0, # of connection points: 2
#     Edge 23, Type (0, 0), BuildingBlock: AJUNOK_clean_linker_0, # of connection points: 2
#     Edge 24, Type (0, 0), BuildingBlock: AJUNOK_clean_linker_0, # of connection points: 2
#     Edge 25, Type (0, 0), BuildingBlock: AJUNOK_clean_linker_0, # of connection points: 2
#     Edge 26, Type (0, 0), BuildingBlock: AJUNOK_clean_linker_0, # of connection points: 2
#     Edge 27, Type (0, 0), BuildingBlock: AJUNOK_clean_linker_0, # of connection points: 2
#     Edge 28, Type (0, 0), BuildingBlock: AJUNOK_clean_linker_0, # of connection points: 2
#     Edge 29, Type (0, 0), BuildingBlock: AJUNOK_clean_linker_0, # of connection points: 2
#     Edge 30, Type (0, 0), BuildingBlock: AJUNOK_clean_linker_0, # of connection points: 2
#     Edge 31, Type (0, 0), BuildingBlock: AJUNOK_clean_linker_0, # of connection points: 2
#     Edge 32, Type (0, 0), BuildingBlock: AJUNOK_clean_linker_0, # of connection points: 2
#     Edge 33, Type (0, 0), BuildingBlock: AJUNOK_clean_linker_0, # of connection points: 2
#     Edge 34, Type (0, 0), BuildingBlock: AJUNOK_clean_linker_0, # of connection points: 2
#     Edge 35, Type (0, 0), BuildingBlock: AJUNOK_clean_linker_0, # of connection points: 2
#     Edge 36, Type (0, 0), BuildingBlock: AJUNOK_clean_linker_0, # of connection points: 2
#     Edge 37, Type (0, 0), BuildingBlock: AJUNOK_clean_linker_0, # of connection points: 2
#     Edge 38, Type (0, 0), BuildingBlock: AJUNOK_clean_linker_0, # of connection points: 2
#     Edge 39, Type (0, 0), BuildingBlock: AJUNOK_clean_linker_0, # of connection points: 2
#     Edge 40, Type (0, 0), BuildingBlock: AJUNOK_clean_linker_0, # of connection points: 2
#     Edge 41, Type (0, 0), BuildingBlock: AJUNOK_clean_linker_0, # of connection points: 2
#     Edge 42, Type (0, 0), BuildingBlock: AJUNOK_clean_linker_0, # of connection points: 2
#     Edge 43, Type (0, 0), BuildingBlock: AJUNOK_clean_linker_0, # of connection points: 2
#     Edge 44, Type (0, 0), BuildingBlock: AJUNOK_clean_linker_0, # of connection points: 2
#     Edge 45, Type (0, 0), BuildingBlock: AJUNOK_clean_linker_0, # of connection points: 2
#     Edge 46, Type (0, 0), BuildingBlock: AJUNOK_clean_linker_0, # of connection points: 2
#     Edge 47, Type (0, 0), BuildingBlock: AJUNOK_clean_linker_0, # of connection points: 2
# Relax obj value: 0.199
# Max RMSD: 0.236
# Mean RMSD: 0.229
data_MOF--net-upc--node1-KOZSID_clean_sbu_0--edge1-AJUNOK_clean_linker_0
_symmetry_space_group_name_H-M    P1
_symmetry_Int_Tables_number       1
_symmetry_cell_setting            triclinic
loop_
_symmetry_equiv_pos_as_xyz
'x, y, z'
_cell_length_a     34.818318
_cell_length_b     34.891481
_cell_length_c     35.904717
_cell_angle_alpha  90.050528
_cell_angle_beta   89.860566
_cell_angle_gamma 89.98502
loop_
_atom_site_label
_atom_site_type_symbol
_atom_site_fract_x
_atom_site_fract_y
_atom_site_fract_z
_atom_type_partial_charge
C0 C 0.21935 0.68039 0.11344 0.0
C1 C 0.25592 0.66813 0.10388 0.0
C2 C 0.25683 0.62917 0.10903 0.0
C3 C 0.22059 0.61905 0.12063 0.0
N4 N 0.19608 0.64899 0.12179 0.0
Co5 Co 0.14152 0.64514 0.14175 0.0
N6 N 0.14695 0.59173 0.16243 0.0
C7 C 0.17867 0.57 0.15791 0.0
C8 C 0.17567 0.53469 0.17455 0.0
C9 C 0.13986 0.53384 0.19064 0.0
C10 C 0.12251 0.56868 0.18292 0.0
N11 N 0.08755 0.64313 0.16253 0.0
C12 C 0.06805 0.61617 0.18324 0.0
C13 C 0.03067 0.62802 0.19016 0.0
C14 C 0.02641 0.66316 0.17372 0.0
C15 C 0.06123 0.671 0.15747 0.0
N16 N 0.13755 0.69972 0.12226 0.0
C17 C 0.10429 0.71959 0.12157 0.0
C18 C 0.10889 0.75708 0.11133 0.0
C19 C 0.14749 0.7621 0.10638 0.0
C20 C 0.16529 0.72736 0.11397 0.0
N21 N 0.12111 0.62164 0.09349 0.0
C22 C 0.0804 0.57281 0.04187 0.0
C23 C 0.06499 0.60768 0.05456 0.0
C24 C 0.0858 0.63163 0.07924 0.0
C25 C 0.11813 0.56485 0.05332 0.0
C26 C 0.13779 0.58949 0.07816 0.0
N27 N 0.16029 0.66624 0.18876 0.0
C28 C 0.16333 0.72653 0.21957 0.0
C29 C 0.20332 0.7231 0.22049 0.0
C30 C 0.21975 0.68709 0.21509 0.0
C31 C 0.19686 0.65815 0.20024 0.0
C32 C 0.14206 0.69722 0.20379 0.0
H33 H 0.21043 0.63147 0.19349 0.0
H34 H 0.11209 0.70232 0.1995 0.0
H35 H 0.0721 0.65771 0.08701 0.0
H36 H 0.16612 0.58101 0.08541 0.0
C37 C 0.21088 0.58421 0.13831 0.0
C38 C 0.20868 0.7225 0.11464 0.0
C39 C 0.08281 0.57837 0.19588 0.0
C40 C 0.07102 0.70483 0.13851 0.0
H41 H 0.28002 0.68577 0.09561 0.0
H42 H 0.28185 0.61085 0.10717 0.0
H43 H 0.1971 0.51222 0.17513 0.0
H44 H 0.12786 0.51022 0.20633 0.0
H45 H 1.00859 0.6127 0.2053 0.0
H46 H 1.00096 0.68097 0.17379 0.0
H47 H 0.08709 0.77918 0.11067 0.0
H48 H 0.16045 0.78933 0.10027 0.0
H49 H 0.03662 0.61649 0.04572 0.0
H50 H 0.13223 0.53872 0.04448 0.0
H51 H 0.14913 0.7531 0.22702 0.0
H52 H 0.25029 0.68245 0.21859 0.0
C53 C 0.8822 0.19202 0.13829 0.0
C54 C 0.89371 0.22944 0.13159 0.0
C55 C 0.9331 0.22994 0.13196 0.0
C56 C 0.94437 0.19306 0.13941 0.0
N57 N 0.9145 0.16864 0.14303 0.0
Co58 Co 0.92032 0.11454 0.16342 0.0
N59 N 0.97585 0.11963 0.178 0.0
C60 C 0.99793 0.14985 0.16861 0.0
C61 C 0.03447 0.14743 0.18276 0.0
C62 C 0.03569 0.11359 0.20226 0.0
C63 C 0.9998 0.09671 0.19897 0.0
N64 N 0.92362 0.06159 0.18579 0.0
C65 C 0.95145 0.04355 0.20651 0.0
C66 C 0.93987 1.00679 0.2161 0.0
C67 C 0.90383 1.00168 0.20171 0.0
C68 C 0.89517 0.03538 0.18398 0.0
N69 N 0.86401 0.1103 0.14944 0.0
C70 C 0.8445 0.07691 0.14938 0.0
C71 C 0.8067 0.081 0.1394 0.0
C72 C 0.80131 0.11944 0.13378 0.0
C73 C 0.83588 0.13741 0.14151 0.0
N74 N 0.93892 0.09264 0.1136 0.0
C75 C 0.98936 0.05161 0.06343 0.0
C76 C 0.9575 0.03403 0.08033 0.0
C77 C 0.93267 0.05486 0.10423 0.0
C78 C 0.99206 0.09149 0.06855 0.0
C79 C 0.96653 0.1112 0.09281 0.0
N80 N 0.90561 0.1346 0.21207 0.0
C81 C 0.86385 0.13285 0.26484 0.0
C82 C 0.8774 0.16881 0.27622 0.0
C83 C 0.90858 0.18491 0.25783 0.0
C84 C 0.92265 0.16694 0.22609 0.0
C85 C 0.87787 0.11663 0.23239 0.0
H86 H 0.9457 0.18096 0.21212 0.0
H87 H 0.86437 0.09093 0.2228 0.0
H88 H 0.90915 0.0392 0.11546 0.0
H89 H 0.9706 0.14138 0.09513 0.0
C90 C 0.98156 0.18221 0.15117 0.0
C91 C 0.84006 0.18045 0.1407 0.0
C92 C 0.98976 0.05917 0.21668 0.0
C93 C 0.86026 0.04413 0.1662 0.0
H94 H 0.87581 0.25452 0.12881 0.0
H95 H 0.95128 0.25504 0.13017 0.0
H96 H 0.05711 0.16855 0.18055 0.0
H97 H 0.06004 0.103 0.2178 0.0
H98 H 0.95589 0.98567 0.23171 0.0
H99 H 0.88593 0.97645 0.2042 0.0
H100 H 0.78491 0.0589 0.13852 0.0
H101 H 0.7745 0.13279 0.12587 0.0
H102 H 0.9517 1.00396 0.07548 0.0
H103 H 1.01477 0.1075 0.05501 0.0
H104 H 0.8392 0.11959 0.27807 0.0
H105 H 0.91951 0.21282 0.26578 0.0
C106 C 0.30831 0.90225 0.13686 0.0
C107 C 0.26949 0.91086 0.138 0.0
C108 C 0.2661 0.94743 0.15154 0.0
C109 C 0.30293 0.95991 0.15769 0.0
N110 N 0.32971 0.93384 0.14818 0.0
Co111 Co 0.38685 0.94353 0.15468 0.0
N112 N 0.38098 0.98906 0.18841 0.0
C113 C 0.34654 1.00264 0.19916 0.0
C114 C 0.34855 0.02549 0.23015 0.0
C115 C 0.38676 0.02707 0.23913 0.0
C116 C 0.4067 1.007 0.21183 0.0
N117 N 0.44339 0.95428 0.15836 0.0
C118 C 0.4644 0.98164 0.17728 0.0
C119 C 0.50225 0.98104 0.16491 0.0
C120 C 0.50536 0.95187 0.13932 0.0
C121 C 0.46922 0.93654 0.13633 0.0
N122 N 0.39145 0.89409 0.12536 0.0
C123 C 0.42524 0.88092 0.11238 0.0
C124 C 0.42262 0.84455 0.09781 0.0
C125 C 0.38494 0.83356 0.10243 0.0
C126 C 0.36599 0.86371 0.11958 0.0
N127 N 0.38924 0.97718 0.10891 0.0
C128 C 0.4313 0.02487 0.05829 0.0
C129 C 0.42432 0.98592 0.05053 0.0
C130 C 0.40263 0.96301 0.07554 0.0
C131 C 0.41204 0.0401 0.0893 0.0
C132 C 0.39069 1.01634 0.11337 0.0
N133 N 0.38812 0.91206 0.19944 0.0
C134 C 0.42284 0.86566 0.23493 0.0
C135 C 0.38823 0.85133 0.24797 0.0
C136 C 0.35458 0.87242 0.24295 0.0
C137 C 0.35545 0.90376 0.21909 0.0
C138 C 0.42207 0.89528 0.2097 0.0
H139 H 0.32899 0.91881 0.21452 0.0
H140 H 0.44893 0.90124 0.19656 0.0
H141 H 0.39908 0.93329 0.06848 0.0
H142 H 0.37757 0.03032 0.13678 0.0
C143 C 0.31276 0.98973 0.18205 0.0
C144 C 0.32307 0.86285 0.1272 0.0
C145 C 0.44976 1.00826 0.2072 0.0
C146 C 0.45899 0.90278 0.11705 0.0
H147 H 0.24577 0.89219 0.13148 0.0
H148 H 0.23968 0.96184 0.15916 0.0
H149 H 0.32489 0.03801 0.24553 0.0
H150 H 0.39837 0.04123 0.2634 0.0
H151 H 0.52547 0.99967 0.17323 0.0
H152 H 0.53117 0.94252 0.12513 0.0
H153 H 0.44565 0.8275 0.08611 0.0
H154 H 0.37273 0.80638 0.09413 0.0
H155 H 0.43723 0.97245 0.02639 0.0
H156 H 0.41436 0.07034 0.09575 0.0
H157 H 0.44951 0.85028 0.23941 0.0
H158 H 0.32732 0.86247 0.25382 0.0
C159 C 0.65689 0.283 0.12467 0.0
C160 C 0.64635 0.24606 0.115 0.0
C161 C 0.60692 0.24472 0.11574 0.0
C162 C 0.59489 0.28098 0.1253 0.0
N163 N 0.62423 0.30584 0.12943 0.0
Co164 Co 0.6167 0.36045 0.14822 0.0
N165 N 0.56087 0.35501 0.16157 0.0
C166 C 0.54091 0.32238 0.15674 0.0
C167 C 0.50415 0.32454 0.17068 0.0
C168 C 0.50076 0.36065 0.18573 0.0
C169 C 0.53563 0.3789 0.18022 0.0
N170 N 0.61063 0.41544 0.16534 0.0
C171 C 0.58053 0.43525 0.18115 0.0
C172 C 0.5907 0.47297 0.18833 0.0
C173 C 0.62828 0.47694 0.17775 0.0
C174 C 0.63907 0.44162 0.16454 0.0
N175 N 0.67427 0.36437 0.13816 0.0
C176 C 0.69443 0.39709 0.1426 0.0
C177 C 0.73345 0.39208 0.14097 0.0
C178 C 0.73905 0.35365 0.13627 0.0
C179 C 0.70308 0.33672 0.13482 0.0
N180 N 0.60136 0.37935 0.09687 0.0
C181 C 0.5574 0.42435 0.0452 0.0
C182 C 0.59318 0.4368 0.05873 0.0
C183 C 0.61497 0.41362 0.08331 0.0
C184 C 0.54693 0.38668 0.05449 0.0
C185 C 0.56918 0.36487 0.07972 0.0
N186 N 0.62872 0.34337 0.19905 0.0
C187 C 0.65829 0.36081 0.25619 0.0
C188 C 0.67495 0.32435 0.258 0.0
C189 C 0.65938 0.29535 0.23605 0.0
C190 C 0.63455 0.30549 0.20755 0.0
C191 C 0.63517 0.36965 0.22652 0.0
H192 H 0.6231 0.28249 0.19133 0.0
H193 H 0.62616 0.3988 0.22528 0.0
H194 H 0.6419 0.42485 0.09256 0.0
H195 H 0.55853 0.33705 0.0865 0.0
C196 C 0.55828 0.29025 0.13973 0.0
C197 C 0.6984 0.29389 0.13168 0.0
C198 C 0.54334 0.41891 0.19331 0.0
C199 C 0.67636 0.43074 0.15462 0.0
H200 H 0.66528 0.22195 0.1102 0.0
H201 H 0.58929 0.21935 0.11287 0.0
H202 H 0.4825 0.30229 0.17046 0.0
H203 H 0.47561 0.37222 0.1995 0.0
H204 H 0.57322 0.49491 0.20131 0.0
H205 H 0.64608 0.50216 0.18083 0.0
H206 H 0.75541 0.41353 0.14547 0.0
H207 H 0.76673 0.33969 0.13591 0.0
H208 H 0.60414 0.4647 0.05091 0.0
H209 H 0.52045 0.37463 0.0439 0.0
H210 H 0.66766 0.38465 0.27313 0.0
H211 H 0.66966 0.26621 0.23765 0.0
C212 C 0.22115 0.85333 0.39617 0.0
C213 C 0.25757 0.86558 0.4061 0.0
C214 C 0.25599 0.90481 0.40992 0.0
C215 C 0.21885 0.9152 0.40172 0.0
N216 N 0.19636 0.88477 0.39408 0.0
Co217 Co 0.14416 0.88957 0.36988 0.0
N218 N 0.14768 0.94566 0.35865 0.0
C219 C 0.17438 0.96873 0.37389 0.0
C220 C 0.17036 1.00625 0.36281 0.0
C221 C 0.13902 1.00692 0.33947 0.0
C222 C 0.12541 0.96968 0.33716 0.0
N223 N 0.094 0.89116 0.3421 0.0
C224 C 0.07664 0.91901 0.32098 0.0
C225 C 0.04221 0.90576 0.30645 0.0
C226 C 0.03746 0.86899 0.31903 0.0
C227 C 0.0693 0.86144 0.34023 0.0
N228 N 0.14081 0.83293 0.38148 0.0
C229 C 0.10806 0.81247 0.37955 0.0
C230 C 0.11367 0.77403 0.38595 0.0
C231 C 0.15243 0.7695 0.39096 0.0
C232 C 0.16887 0.80539 0.38705 0.0
N233 N 0.11684 0.90499 0.41816 0.0
C234 C 0.07734 0.954 0.47083 0.0
C235 C 0.05754 0.93101 0.44517 0.0
C236 C 0.07732 0.90679 0.42005 0.0
C237 C 0.11742 0.94841 0.472 0.0
C238 C 0.13615 0.92345 0.44642 0.0
N239 N 0.17059 0.87811 0.32372 0.0
C240 C 0.18752 0.82936 0.28091 0.0
C241 C 0.22242 0.84811 0.27341 0.0
C242 C 0.2292 0.88399 0.28846 0.0
C243 C 0.20251 0.89876 0.31348 0.0
C244 C 0.16151 0.8455 0.30515 0.0
H245 H 0.20928 0.92578 0.32584 0.0
H246 H 0.13548 0.83008 0.31086 0.0
H247 H 0.05946 0.89085 0.40166 0.0
H248 H 0.16659 0.92075 0.44929 0.0
C249 C 0.20611 0.95275 0.39305 0.0
C250 C 0.21143 0.8115 0.38832 0.0
C251 C 0.09055 0.95879 0.31518 0.0
C252 C 0.07667 0.82736 0.35981 0.0
H253 H 0.28322 0.84832 0.40845 0.0
H254 H 0.28002 0.92378 0.41493 0.0
H255 H 0.18886 0.03012 0.36974 0.0
H256 H 0.12758 0.0319 0.3255 0.0
H257 H 0.02225 0.92124 0.28898 0.0
H258 H 1.01349 0.8501 0.31351 0.0
H259 H 0.09268 0.75131 0.38338 0.0
H260 H 0.16714 0.74253 0.39515 0.0
H261 H 0.02649 0.93212 0.44384 0.0
H262 H 0.13487 0.96443 0.49142 0.0
H263 H 0.18052 0.80194 0.2687 0.0
H264 H 0.25509 0.89981 0.28179 0.0
C265 C 0.65151 0.26101 0.37321 0.0
C266 C 0.64165 0.29933 0.37055 0.0
C267 C 0.60566 0.30091 0.35532 0.0
C268 C 0.59473 0.26353 0.34968 0.0
N269 N 0.62103 0.2381 0.36161 0.0
Co270 Co 0.61508 0.18053 0.35445 0.0
N271 N 0.57298 0.18417 0.3167 0.0
C272 C 0.55884 0.21773 0.30455 0.0
C273 C 0.53866 0.21429 0.27197 0.0
C274 C 0.53916 0.17593 0.26363 0.0
C275 C 0.55767 0.15741 0.29273 0.0
N276 N 0.60812 0.12367 0.34974 0.0
C277 C 0.58252 0.10139 0.32976 0.0
C278 C 0.58386 0.06389 0.34271 0.0
C279 C 0.61136 0.06243 0.37012 0.0
C280 C 0.62508 0.09912 0.37348 0.0
N281 N 0.66147 0.17909 0.38822 0.0
C282 C 0.6743 0.14664 0.40393 0.0
C283 C 0.70893 0.15154 0.42173 0.0
C284 C 0.71924 0.18928 0.41605 0.0
C285 C 0.69061 0.20586 0.3948 0.0
N286 N 0.57655 0.17541 0.39705 0.0
C287 C 0.52805 0.13288 0.44801 0.0
C288 C 0.56488 0.1462 0.45828 0.0
C289 C 0.58816 0.16757 0.43291 0.0
C290 C 0.51502 0.14529 0.41307 0.0
C291 C 0.53881 0.16677 0.38886 0.0
N292 N 0.65205 0.1811 0.31342 0.0
C293 C 0.71298 0.15288 0.29991 0.0
C294 C 0.72843 0.18954 0.29673 0.0
C295 C 0.70359 0.22059 0.29291 0.0
C296 C 0.66457 0.2152 0.29941 0.0
C297 C 0.67423 0.14918 0.30783 0.0
H298 H 0.64591 0.23973 0.29801 0.0
H299 H 0.6642 0.12074 0.3135 0.0
H300 H 0.61639 0.17573 0.44214 0.0
H301 H 0.52631 0.17395 0.36252 0.0
C302 C 0.56815 0.25209 0.32263 0.0
C303 C 0.69137 0.24797 0.38365 0.0
C304 C 0.55619 0.11478 0.29899 0.0
C305 C 0.65526 0.11164 0.39684 0.0
H306 H 0.65935 0.3238 0.37687 0.0
H307 H 0.59109 0.32645 0.34567 0.0
H308 H 0.52611 0.23707 0.25556 0.0
H309 H 0.52661 0.16312 0.23907 0.0
H310 H 0.56634 0.03995 0.33411 0.0
H311 H 0.62009 0.03749 0.38588 0.0
H312 H 0.72577 0.1298 0.43565 0.0
H313 H 0.74526 0.20293 0.42579 0.0
H314 H 0.57669 0.13861 0.48514 0.0
H315 H 0.48643 0.1377 0.40382 0.0
H316 H 0.73114 0.12764 0.2996 0.0
H317 H 0.71454 0.24899 0.28841 0.0
C318 C 0.30742 0.62927 0.3704 0.0
C319 C 0.26911 0.61972 0.37496 0.0
C320 C 0.2655 0.58188 0.36515 0.0
C321 C 0.30175 0.56987 0.3553 0.0
N322 N 0.32848 0.59744 0.359 0.0
Co323 Co 0.38431 0.58993 0.34416 0.0
N324 N 0.37581 0.54089 0.31577 0.0
C325 C 0.34175 0.52274 0.31439 0.0
C326 C 0.34273 0.48983 0.2934 0.0
C327 C 0.37979 0.48684 0.28062 0.0
C328 C 0.39976 0.51815 0.29443 0.0
N329 N 0.44031 0.5818 0.33219 0.0
C330 C 0.45968 0.55431 0.31181 0.0
C331 C 0.4989 0.56136 0.31248 0.0
C332 C 0.50438 0.59346 0.33389 0.0
C333 C 0.46839 0.60466 0.34514 0.0
N334 N 0.39102 0.64189 0.36874 0.0
C335 C 0.42562 0.6581 0.37426 0.0
C336 C 0.42344 0.69504 0.38717 0.0
C337 C 0.38503 0.70333 0.38937 0.0
C338 C 0.36518 0.671 0.37779 0.0
N339 N 0.39597 0.56088 0.39166 0.0
C340 C 0.44237 0.51968 0.44386 0.0
C341 C 0.43524 0.55912 0.44805 0.0
C342 C 0.41178 0.57893 0.42213 0.0
C343 C 0.42206 0.50091 0.41568 0.0
C344 C 0.3987 0.52149 0.39084 0.0
N345 N 0.37593 0.61777 0.29732 0.0
C346 C 0.40693 0.66756 0.26323 0.0
C347 C 0.37335 0.6891 0.26572 0.0
C348 C 0.33909 0.67081 0.27534 0.0
C349 C 0.34096 0.63376 0.2896 0.0
C350 C 0.40721 0.6311 0.27819 0.0
H351 H 0.31448 0.62003 0.29734 0.0
H352 H 0.43403 0.61613 0.27706 0.0
H353 H 0.40828 0.6092 0.42636 0.0
H354 H 0.38476 0.50455 0.37009 0.0
C355 C 0.31004 0.537 0.33423 0.0
C356 C 0.32176 0.66956 0.37561 0.0
C357 C 0.44216 0.52269 0.28949 0.0
C358 C 0.45927 0.6389 0.36359 0.0
H359 H 0.24587 0.63864 0.38295 0.0
H360 H 0.23898 0.5659 0.36267 0.0
H361 H 0.31944 0.46993 0.28851 0.0
H362 H 0.39112 0.4635 0.26405 0.0
H363 H 0.52128 0.54578 0.29805 0.0
H364 H 0.53134 0.60785 0.33927 0.0
H365 H 0.44704 0.71435 0.3928 0.0
H366 H 0.37332 0.73069 0.39757 0.0
H367 H 0.44919 0.57508 0.47007 0.0
H368 H 0.42494 0.47021 0.41209 0.0
H369 H 0.4336 0.67985 0.25324 0.0
H370 H 0.31184 0.68569 0.27415 0.0
C371 C 0.87395 0.35096 0.3833 0.0
C372 C 0.88528 0.31438 0.39346 0.0
C373 C 0.92463 0.31283 0.38965 0.0
C374 C 0.93592 0.34857 0.37766 0.0
N375 N 0.90616 0.37281 0.37423 0.0
Co376 Co 0.91182 0.42591 0.35268 0.0
N377 N 0.96225 0.4163 0.32719 0.0
C378 C 0.98453 0.38603 0.33546 0.0
C379 C 1.01864 0.38615 0.31611 0.0
C380 C 1.01813 0.4189 0.29475 0.0
C381 C 0.98356 0.43733 0.30185 0.0
N382 N 0.91586 0.47896 0.3315 0.0
C383 C 0.94068 0.49573 0.30642 0.0
C384 C 0.93146 0.53418 0.30194 0.0
C385 C 0.90162 0.54202 0.32581 0.0
C386 C 0.89363 0.50803 0.34338 0.0
N387 N 0.86008 0.43341 0.37689 0.0
C388 C 0.84536 0.4684 0.38334 0.0
C389 C 0.80857 0.46703 0.39666 0.0
C390 C 0.79915 0.42893 0.39838 0.0
C391 C 0.8307 0.40787 0.38623 0.0
N392 N 0.94022 0.44594 0.3978 0.0
C393 C 0.98007 0.4858 0.45623 0.0
C394 C 0.94762 0.46245 0.46372 0.0
C395 C 0.92799 0.44298 0.43413 0.0
C396 C 0.99248 0.4869 0.41933 0.0
C397 C 0.97266 0.46743 0.39131 0.0
N398 N 0.88568 0.40832 0.30826 0.0
C399 C 0.82702 0.41279 0.27462 0.0
C400 C 0.82645 0.37283 0.27229 0.0
C401 C 0.86003 0.35231 0.2794 0.0
C402 C 0.89037 0.37135 0.29646 0.0
C403 C 0.85683 0.4301 0.29376 0.0
H404 H 0.91496 0.35479 0.30485 0.0
H405 H 0.85365 0.45985 0.30093 0.0
H406 H 0.90261 0.42636 0.44053 0.0
H407 H 0.98368 0.47163 0.36393 0.0
C408 C 0.97099 0.35705 0.35961 0.0
C409 C 0.8323 0.36388 0.38464 0.0
C410 C 0.97533 0.47756 0.28894 0.0
C411 C 0.86278 0.50098 0.36771 0.0
H412 H 0.8669 0.29096 0.40199 0.0
H413 H 0.94248 0.28761 0.39254 0.0
H414 H 0.04137 0.36505 0.31747 0.0
H415 H 0.04135 0.42889 0.2772 0.0
H416 H 0.94512 0.55476 0.28374 0.0
H417 H 0.88701 0.56917 0.32935 0.0
H418 H 0.78946 0.49101 0.40154 0.0
H419 H 0.77109 0.41915 0.40587 0.0
H420 H 0.93681 0.46011 0.49192 0.0
H421 H 1.0176 0.50349 0.41168 0.0
H422 H 0.8019 0.4296 0.26752 0.0
H423 H 0.86099 0.32141 0.27644 0.0
C424 C 0.92531 0.34459 0.8316 0.0
C425 C 0.89234 0.34852 0.81023 0.0
C426 C 0.87165 0.3783 0.82525 0.0
C427 C 0.89275 0.39083 0.85511 0.0
N428 N 0.92563 0.371 0.85958 0.0
Co429 Co 0.96088 0.37722 0.90256 0.0
N430 N 0.93955 0.4284 0.91665 0.0
C431 C 0.90621 0.44308 0.90433 0.0
C432 C 0.90017 0.47995 0.9166 0.0
C433 C 0.93181 0.48905 0.9378 0.0
C434 C 0.95549 0.45712 0.93752 0.0
N435 N 0.99538 0.38305 0.94638 0.0
C436 C 1.00572 0.4149 0.96583 0.0
C437 C 0.03084 0.40575 0.9944 0.0
C438 C 0.03707 0.36705 0.99224 0.0
C439 C 1.01532 0.35465 0.96272 0.0
N440 N 0.98492 0.32758 0.88788 0.0
C441 C 1.00967 0.30714 0.90874 0.0
C442 C 0.02609 0.27727 0.88969 0.0
C443 C 1.01012 0.27843 0.85492 0.0
C444 C 0.9836 0.30823 0.85501 0.0
N445 N 0.99813 0.40367 0.87025 0.0
C446 C 0.04567 0.43268 0.81347 0.0
C447 C 0.06044 0.40778 0.84064 0.0
C448 C 0.03617 0.3937 0.86894 0.0
C449 C 1.00747 0.44447 0.81691 0.0
C450 C 0.98445 0.42987 0.84527 0.0
N451 N 0.92074 0.3498 0.93318 0.0
C452 C 0.87715 0.29533 0.93601 0.0
C453 C 0.84822 0.31674 0.95379 0.0
C454 C 0.85883 0.35413 0.96489 0.0
C455 C 0.89544 0.36929 0.95575 0.0
C456 C 0.91204 0.31223 0.92531 0.0
H457 H 0.90187 0.39783 0.96532 0.0
H458 H 0.93041 0.29451 0.90865 0.0
H459 H 0.04779 0.37368 0.8888 0.0
H460 H 0.95494 0.43878 0.84582 0.0
C461 C 0.88507 0.42358 0.87687 0.0
C462 C 0.95441 0.31418 0.8257 0.0
C463 C 0.99214 0.45408 0.95838 0.0
C464 C 0.02087 0.32002 0.94395 0.0
H465 H 0.88376 0.33137 0.78656 0.0
H466 H 0.84473 0.38977 0.81518 0.0
H467 H 0.87649 0.49869 0.9096 0.0
H468 H 0.93693 0.51614 0.95158 0.0
H469 H 0.04405 0.42517 0.01409 0.0
H470 H 0.05728 0.3505 0.0085 0.0
H471 H 0.04808 0.2578 0.89943 0.0
H472 H 1.01691 0.25895 0.83242 0.0
H473 H 0.08996 0.39812 0.83924 0.0
H474 H 0.99505 0.4644 0.7972 0.0
H475 H 0.87254 0.26565 0.92851 0.0
H476 H 0.83878 0.37281 0.97893 0.0
C477 C 0.20542 0.9123 0.83748 0.0
C478 C 0.20013 0.8806 0.81461 0.0
C479 C 0.17437 0.85688 0.83235 0.0
C480 C 0.16556 0.87492 0.86529 0.0
N481 N 0.18402 0.90858 0.86909 0.0
Co482 Co 0.18266 0.94029 0.91476 0.0
N483 N 0.13474 0.91609 0.93371 0.0
C484 C 0.121 0.88197 0.92266 0.0
C485 C 0.08583 0.874 0.93846 0.0
C486 C 0.07708 0.90514 0.96063 0.0
C487 C 0.10746 0.93057 0.9573 0.0
N488 N 0.18078 0.97208 0.96063 0.0
C489 C 0.15022 0.98191 0.98238 0.0
C490 C 0.16146 1.00612 0.01097 0.0
C491 C 0.20018 1.01209 0.00649 0.0
C492 C 0.21052 0.99114 0.97558 0.0
N493 N 0.23016 0.9659 0.89665 0.0
C494 C 0.25359 0.98772 0.91764 0.0
C495 C 0.28154 1.00557 0.89708 0.0
C496 C 0.27575 0.99374 0.86113 0.0
C497 C 0.2451 0.96815 0.86168 0.0
N498 N 0.15157 0.97821 0.88779 0.0
C499 C 0.12004 0.02175 0.8298 0.0
C500 C 0.14949 0.03679 0.85215 0.0
C501 C 0.16435 1.01478 0.8816 0.0
C502 C 0.10358 0.98689 0.84046 0.0
C503 C 0.12015 0.96535 0.86871 0.0
N504 N 0.21465 0.89972 0.93918 0.0
C505 C 0.26406 0.85189 0.92789 0.0
C506 C 0.2498 0.82809 0.95588 0.0
C507 C 0.21939 0.84252 0.97783 0.0
C508 C 0.20235 0.87851 0.96916 0.0
C509 C 0.2466 0.8871 0.92024 0.0
H510 H 0.17779 0.88788 0.98521 0.0
H511 H 0.2575 0.90216 0.89645 0.0
H512 H 0.18793 0.02626 0.89752 0.0
H513 H 0.10901 0.93698 0.87287 0.0
C514 C 0.13734 0.86362 0.89138 0.0
C515 C 0.23337 0.94359 0.82988 0.0
C516 C 0.11069 0.96763 0.97752 0.0
C517 C 0.24387 0.9969 0.9545 0.0
H518 H 0.21398 0.87475 0.78821 0.0
H519 H 0.16313 0.82993 0.82217 0.0
H520 H 0.06748 0.84969 0.9327 0.0
H521 H 0.05109 0.90896 0.97678 0.0
H522 H 0.14342 1.01869 0.03232 0.0
H523 H 0.21799 0.03164 0.02226 0.0
H524 H 0.3023 0.02643 0.90666 0.0
H525 H 0.29233 1.00339 0.83748 0.0
H526 H 0.1623 0.06429 0.84578 0.0
H527 H 0.07922 0.9751 0.82566 0.0
H528 H 0.28755 0.84233 0.91032 0.0
H529 H 0.2074 0.82525 1.00004 0.0
C530 C 0.61899 0.20228 0.83616 0.0
C531 C 0.65332 0.19236 0.81876 0.0
C532 C 0.67134 0.16628 0.84136 0.0
C533 C 0.64748 0.1619 0.87151 0.0
N534 N 0.61536 0.1833 0.869 0.0
Co535 Co 0.57769 0.18994 0.90987 0.0
N536 N 0.59474 0.14268 0.93586 0.0
C537 C 0.62828 0.1245 0.93046 0.0
C538 C 0.63052 0.09084 0.95033 0.0
C539 C 0.59607 0.08771 0.96908 0.0
C540 C 0.57462 0.11965 0.95956 0.0
N541 N 0.54065 0.19642 0.9516 0.0
C542 C 0.52574 0.16966 0.97508 0.0
C543 C 0.49895 0.18599 0.99891 0.0
C544 C 0.49678 0.22408 0.98965 0.0
C545 C 0.5222 0.22899 0.9607 0.0
N546 N 0.55825 0.23622 0.88387 0.0
C547 C 0.53451 0.26277 0.89853 0.0
C548 C 0.52029 0.28744 0.87223 0.0
C549 C 0.53687 0.27626 0.8393 0.0
C550 C 0.56167 0.24621 0.84751 0.0
N551 N 0.54023 0.15917 0.88198 0.0
C552 C 0.49586 0.12618 0.8254 0.0
C553 C 0.48181 0.15727 0.84606 0.0
C554 C 0.50414 0.17285 0.87482 0.0
C555 C 0.53088 0.10987 0.83586 0.0
C556 C 0.55263 0.12683 0.86403 0.0
N557 N 0.61776 0.22167 0.93547 0.0
C558 C 0.66829 0.26859 0.92537 0.0
C559 C 0.68925 0.25513 0.95562 0.0
C560 C 0.67214 0.22648 0.9778 0.0
C561 C 0.63615 0.21039 0.96746 0.0
C562 C 0.63319 0.25192 0.91596 0.0
H563 H 0.62454 0.18737 0.98412 0.0
H564 H 0.62077 0.26206 0.89058 0.0
H565 H 0.49317 0.19741 0.88962 0.0
H566 H 0.58067 0.11514 0.86949 0.0
C567 C 0.65237 0.13565 0.90092 0.0
C568 C 0.59219 0.23193 0.82225 0.0
C569 C 0.53623 0.12874 0.97495 0.0
C570 C 0.52061 0.25907 0.935 0.0
H571 H 0.66481 0.20343 0.79292 0.0
H572 H 0.69853 0.15214 0.83629 0.0
H573 H 0.65345 0.0699 0.94961 0.0
H574 H 0.58753 0.06454 0.98733 0.0
H575 H 0.48171 0.17172 0.01981 0.0
H576 H 0.47648 0.24481 1.00049 0.0
H577 H 0.49905 0.30974 0.87615 0.0
H578 H 0.53182 0.2895 0.81253 0.0
H579 H 0.45436 0.17009 0.83934 0.0
H580 H 0.5425 0.08554 0.82082 0.0
H581 H 0.68014 0.29064 0.90746 0.0
H582 H 0.68725 0.21522 1.00173 0.0
C583 C 0.35145 0.60365 0.83023 0.0
C584 C 0.35871 0.63836 0.81261 0.0
C585 C 0.3885 0.65535 0.83123 0.0
C586 C 0.39762 0.63051 0.85943 0.0
N587 N 0.37568 0.59867 0.85953 0.0
Co588 Co 0.37597 0.55951 0.89972 0.0
N589 N 0.42659 0.57687 0.91993 0.0
C590 C 0.44449 0.60978 0.91096 0.0
C591 C 0.48056 0.61253 0.92616 0.0
C592 C 0.48587 0.57913 0.94575 0.0
C593 C 0.45249 0.55784 0.94183 0.0
N594 N 0.37596 0.52125 0.94101 0.0
C595 C 0.40529 0.50791 0.96253 0.0
C596 C 0.39221 0.48083 0.98778 0.0
C597 C 0.35371 0.47639 0.98132 0.0
C598 C 0.34526 0.50109 0.9527 0.0
N599 N 0.3271 0.53921 0.87855 0.0
C600 C 0.3039 0.51334 0.89504 0.0
C601 C 0.27489 0.50089 0.8723 0.0
C602 C 0.27957 0.52072 0.83972 0.0
C603 C 0.31055 0.54531 0.84478 0.0
N604 N 0.40373 0.52361 0.86701 0.0
C605 C 0.43134 0.47953 0.80719 0.0
C606 C 0.40546 0.46385 0.83297 0.0
C607 C 0.39206 0.48637 0.86278 0.0
C608 C 0.44564 0.51633 0.81399 0.0
C609 C 0.43171 0.53768 0.84398 0.0
N610 N 0.3468 0.59826 0.93071 0.0
C611 C 0.29232 0.64211 0.93125 0.0
C612 C 0.31266 0.67001 0.95107 0.0
C613 C 0.34912 0.65903 0.9644 0.0
C614 C 0.36501 0.62284 0.9549 0.0
C615 C 0.30954 0.60727 0.92131 0.0
H616 H 0.393 0.61614 0.96577 0.0
H617 H 0.29226 0.58938 0.90395 0.0
H618 H 0.37087 0.47422 0.8812 0.0
H619 H 0.4423 0.56641 0.84722 0.0
C620 C 0.42879 0.63415 0.88393 0.0
C621 C 0.32014 0.5773 0.81943 0.0
C622 C 0.44567 0.52032 0.96015 0.0
C623 C 0.31269 0.49852 0.93018 0.0
H624 H 0.34373 0.65058 0.78909 0.0
H625 H 0.4021 0.68243 0.82473 0.0
H626 H 0.50132 0.63522 0.92203 0.0
H627 H 0.51157 0.57123 0.96074 0.0
H628 H 0.40897 0.46516 0.00805 0.0
H629 H 0.33482 0.45552 0.99407 0.0
H630 H 0.25342 0.47932 0.87832 0.0
H631 H 0.26149 0.51791 0.81543 0.0
H632 H 0.39432 0.43514 0.82917 0.0
H633 H 0.46674 0.52905 0.79554 0.0
H634 H 0.26338 0.64771 0.92169 0.0
H635 H 0.36639 0.67876 0.98045 0.0
C636 C 0.92878 0.17933 0.68858 0.0
C637 C 0.89515 0.17501 0.70911 0.0
C638 C 0.87438 0.14628 0.69251 0.0
C639 C 0.89592 0.13487 0.66245 0.0
N640 N 0.92916 0.15439 0.65935 0.0
Co641 Co 0.9641 0.1508 0.61575 0.0
N642 N 0.94297 0.10047 0.59943 0.0
C643 C 0.90893 0.08594 0.60998 0.0
C644 C 0.90262 0.04993 0.59557 0.0
C645 C 0.93481 0.04138 0.57474 0.0
C646 C 0.95911 0.07267 0.57758 0.0
N647 N 0.99855 0.14705 0.57153 0.0
C648 C 1.00976 0.11583 0.5514 0.0
C649 C 0.03538 0.12616 0.52356 0.0
C650 C 0.04066 0.16499 0.52664 0.0
C651 C 1.01802 0.1763 0.55608 0.0
N652 N 0.98709 0.20032 0.632 0.0
C653 C 1.01021 0.22259 0.61107 0.0
C654 C 0.02546 0.2527 0.6306 0.0
C655 C 1.01042 0.24968 0.66576 0.0
C656 C 0.98573 0.21835 0.66562 0.0
N657 N 1.00174 0.1236 0.64634 0.0
C658 C 0.0502 0.09195 0.70015 0.0
C659 C 0.06379 0.1203 0.6759 0.0
C660 C 0.03917 0.1354 0.6487 0.0
C661 C 1.01264 0.07873 0.69597 0.0
C662 C 0.98894 0.09495 0.66916 0.0
N663 N 0.92405 0.17893 0.58692 0.0
C664 C 0.87586 0.2291 0.58945 0.0
C665 C 0.85392 0.21119 0.56213 0.0
C666 C 0.86901 0.17795 0.5454 0.0
C667 C 0.90451 0.16267 0.55773 0.0
C668 C 0.91022 0.21269 0.60145 0.0
H669 H 0.91504 0.13673 0.54484 0.0
H670 H 0.92378 0.22657 0.62457 0.0
H671 H 0.05 0.15743 0.63046 0.0
H672 H 0.95967 0.08521 0.66796 0.0
C673 C 0.88774 0.10396 0.63844 0.0
C674 C 0.95787 0.20955 0.69578 0.0
C675 C 0.99615 0.07632 0.55747 0.0
C676 C 0.02199 0.21079 0.57556 0.0
H677 H 0.88596 0.1915 0.73304 0.0
H678 H 0.84687 0.13506 0.7014 0.0
H679 H 0.87837 0.03131 0.60092 0.0
H680 H 0.93988 1.0152 0.55931 0.0
H681 H 0.04945 0.10748 0.50369 0.0
H682 H 0.06077 0.18236 0.51101 0.0
H683 H 0.04632 0.27346 0.62095 0.0
H684 H 1.01687 0.26879 0.6886 0.0
H685 H 0.09298 0.13077 0.67811 0.0
H686 H 1.00124 0.05672 0.71419 0.0
H687 H 0.86552 0.25495 0.60292 0.0
H688 H 0.85324 0.16352 0.52354 0.0
C689 C 0.34772 0.94208 0.67362 0.0
C690 C 0.35754 0.90709 0.68944 0.0
C691 C 0.38387 0.89019 0.66611 0.0
C692 C 0.38859 0.9154 0.63716 0.0
N693 N 0.36725 0.94739 0.64111 0.0
Co694 Co 0.36175 0.98723 0.60206 0.0
N695 N 0.40864 0.9704 0.57446 0.0
C696 C 0.42647 0.93656 0.57876 0.0
C697 C 0.45991 0.93423 0.55836 0.0
C698 C 0.46347 0.96897 0.54045 0.0
C699 C 0.43197 0.99076 0.55089 0.0
N700 N 0.35638 0.02657 0.56213 0.0
C701 C 0.38342 0.04189 0.53891 0.0
C702 C 0.36764 0.07029 0.51677 0.0
C703 C 0.32977 0.0734 0.52699 0.0
C704 C 0.32438 0.04674 0.5547 0.0
N705 N 0.31633 1.00697 0.62986 0.0
C706 C 0.29056 0.03233 0.61667 0.0
C707 C 0.2649 0.04434 0.64326 0.0
C708 C 0.27451 0.0246 0.67487 0.0
C709 C 0.30491 1.00056 0.66557 0.0
N710 N 0.3941 0.02223 0.63131 0.0
C711 C 0.4295 0.06304 0.6893 0.0
C712 C 0.39927 0.07936 0.66893 0.0
C713 C 0.38227 0.05865 0.63973 0.0
C714 C 0.44377 0.02749 0.6776 0.0
C715 C 0.42585 1.00773 0.64868 0.0
N716 N 0.32814 0.94895 0.57503 0.0
C717 C 0.27711 0.90171 0.5835 0.0
C718 C 0.29181 0.87813 0.55564 0.0
C719 C 0.32341 0.89228 0.53521 0.0
C720 C 0.34064 0.92798 0.54486 0.0
C721 C 0.2952 0.93633 0.59259 0.0
H722 H 0.36537 0.93721 0.5291 0.0
H723 H 0.28323 0.95057 0.61625 0.0
H724 H 0.35805 0.07116 0.62562 0.0
H725 H 0.43636 0.97954 0.64208 0.0
C726 C 0.41495 0.91171 0.60752 0.0
C727 C 0.31767 0.96787 0.68874 0.0
C728 C 0.42409 0.0301 0.53702 0.0
C729 C 0.29467 0.04803 0.58099 0.0
H730 H 0.34626 0.89453 0.71472 0.0
H731 H 0.39793 0.86281 0.66992 0.0
H732 H 0.48047 0.91096 0.55817 0.0
H733 H 0.48676 0.97754 0.52226 0.0
H734 H 0.38229 0.08779 0.49632 0.0
H735 H 0.30957 0.09488 0.51759 0.0
H736 H 0.24248 0.06561 0.64034 0.0
H737 H 0.25979 0.02678 0.70135 0.0
H738 H 0.38734 0.10687 0.67677 0.0
H739 H 0.46773 1.01418 0.6918 0.0
H740 H 0.25279 0.89229 0.60003 0.0
H741 H 0.33574 0.87521 0.513 0.0
C742 C 0.63056 0.33535 0.66438 0.0
C743 C 0.66287 0.34561 0.68468 0.0
C744 C 0.67846 0.37707 0.66747 0.0
C745 C 0.65541 0.38389 0.63724 0.0
N746 N 0.62641 0.35844 0.63422 0.0
Co747 Co 0.58991 0.35507 0.59188 0.0
N748 N 0.60402 0.40721 0.57265 0.0
C749 C 0.63275 0.42958 0.58546 0.0
C750 C 0.63243 0.4658 0.57048 0.0
C751 C 0.60095 0.46682 0.54755 0.0
C752 C 0.58382 0.43104 0.54972 0.0
N753 N 0.55403 0.35155 0.54861 0.0
C754 C 0.53987 0.3795 0.52603 0.0
C755 C 0.51411 0.3645 0.50044 0.0
C756 C 0.51167 0.32609 0.50745 0.0
C757 C 0.53579 0.31968 0.53694 0.0
N758 N 0.5728 0.30447 0.61215 0.0
C759 C 0.54786 0.28019 0.59562 0.0
C760 C 0.53548 0.25135 0.61842 0.0
C761 C 0.55341 0.25775 0.65158 0.0
C762 C 0.57708 0.28959 0.64681 0.0
N763 N 0.54982 0.37989 0.62268 0.0
C764 C 0.49909 0.40844 0.67699 0.0
C765 C 0.48769 0.37885 0.65306 0.0
C766 C 0.51337 0.36533 0.62567 0.0
C767 C 0.53527 0.42462 0.67204 0.0
C768 C 0.56002 0.41001 0.64506 0.0
N769 N 0.63282 0.32905 0.56271 0.0
C770 C 0.6687 0.26985 0.55161 0.0
C771 C 0.70401 0.28931 0.54933 0.0
C772 C 0.70168 0.32952 0.54984 0.0
C773 C 0.66615 0.34835 0.55435 0.0
C774 C 0.63407 0.28987 0.55827 0.0
H775 H 0.66697 0.37876 0.55223 0.0
H776 H 0.60893 0.27259 0.56069 0.0
H777 H 0.50403 0.34237 0.60785 0.0
H778 H 0.58801 0.42249 0.64367 0.0
C779 C 0.65671 0.41659 0.61435 0.0
C780 C 0.60392 0.30435 0.67513 0.0
C781 C 0.54857 0.42061 0.52934 0.0
C782 C 0.53351 0.28776 0.56012 0.0
H783 H 0.67357 0.33232 0.70982 0.0
H784 H 0.70284 0.39376 0.67671 0.0
H785 H 0.65169 0.48926 0.57677 0.0
H786 H 0.59121 0.49126 0.53161 0.0
H787 H 0.49726 0.37979 0.48002 0.0
H788 H 0.49194 0.30598 0.49479 0.0
H789 H 0.51435 0.22948 0.61232 0.0
H790 H 0.54836 0.24108 0.67641 0.0
H791 H 0.45951 0.36601 0.6558 0.0
H792 H 0.54493 0.44778 0.68985 0.0
H793 H 0.66763 0.23894 0.54934 0.0
H794 H 0.7271 0.34714 0.54819 0.0
C795 C 0.19861 0.63142 0.67929 0.0
C796 C 0.19499 0.66255 0.7032 0.0
C797 C 0.16548 0.68479 0.68979 0.0
C798 C 0.153 0.66655 0.65814 0.0
N799 N 0.17285 0.63424 0.65105 0.0
Co800 Co 0.16696 0.60291 0.60559 0.0
N801 N 0.11482 0.62337 0.59458 0.0
C802 C 0.09953 0.65522 0.60962 0.0
C803 C 0.06176 0.66029 0.59953 0.0
C804 C 0.05285 0.62957 0.57697 0.0
C805 C 0.08577 0.60738 0.57418 0.0
N806 N 0.16119 0.57217 0.55933 0.0
C807 C 0.12896 0.56132 0.54074 0.0
C808 C 0.13824 0.53922 0.50987 0.0
C809 C 0.17746 0.53555 0.50965 0.0
C810 C 0.19005 0.55569 0.54018 0.0
N811 N 0.21765 0.57961 0.617 0.0
C812 C 0.23921 0.55906 0.593 0.0
C813 C 0.27009 0.542 0.60977 0.0
C814 C 0.26815 0.5529 0.64639 0.0
C815 C 0.23667 0.57725 0.64994 0.0
N816 N 0.14261 0.56222 0.63529 0.0
C817 C 0.11718 0.50912 0.68847 0.0
C818 C 0.14194 0.4977 0.65969 0.0
C819 C 0.15424 0.52477 0.63316 0.0
C820 C 0.10392 0.54681 0.68895 0.0
C821 C 0.11673 0.57271 0.66219 0.0
N822 N 0.19262 0.64654 0.57786 0.0
C823 C 0.24676 0.69092 0.57579 0.0
C824 C 0.22496 0.72045 0.55955 0.0
C825 C 0.18708 0.70996 0.54939 0.0
C826 C 0.17225 0.67286 0.55737 0.0
C827 C 0.2302 0.65561 0.58563 0.0
H828 H 0.14337 0.6667 0.54847 0.0
H829 H 0.24837 0.63701 0.60147 0.0
H830 H 0.17418 0.51577 0.61184 0.0
H831 H 0.10677 0.60178 0.66439 0.0
C832 C 0.1194 0.67509 0.63785 0.0
C833 C 0.22746 0.60044 0.68346 0.0
C834 C 0.08941 0.57215 0.55098 0.0
C835 C 0.22585 0.55078 0.55712 0.0
H836 H 0.21181 0.66857 0.72782 0.0
H837 H 0.15381 0.71051 0.70233 0.0
H838 H 0.04234 0.68249 0.60902 0.0
H839 H 0.02519 0.62394 0.56445 0.0
H840 H 0.11866 0.52635 0.49011 0.0
H841 H 0.19442 0.51783 0.49109 0.0
H842 H 0.29041 0.52223 0.59737 0.0
H843 H 0.28771 0.54332 0.66773 0.0
H844 H 0.15229 0.46846 0.6582 0.0
H845 H 0.08432 0.55647 0.7105 0.0
H846 H 0.2767 0.69501 0.58253 0.0
H847 H 0.16774 0.73021 0.53672 0.0
C848 C 0.23725 0.79194 0.09381 0.0
C849 C 0.23988 0.75731 0.11527 0.0
C850 C 0.26314 0.82456 0.09751 0.0
C851 C 0.29547 0.8258 0.1221 0.0
H852 H 0.21541 0.79401 0.07264 0.0
H853 H 0.25794 0.84913 0.07985 0.0
S854 S 0.32097 0.74174 0.18106 0.0
N855 N 0.28179 0.72688 0.15998 0.0
N856 N 0.32942 0.78564 0.16598 0.0
C857 C 0.29994 0.79058 0.14189 0.0
C858 C 0.2732 0.75758 0.13852 0.0
C859 C 0.80044 0.24067 0.11283 0.0
C860 C 0.80349 0.20939 0.1385 0.0
C861 C 0.76782 0.26667 0.1108 0.0
C862 C 0.73399 0.26391 0.13345 0.0
H863 H 0.82334 0.24498 0.09289 0.0
H864 H 0.76923 0.28918 0.09033 0.0
S865 S 0.72247 0.18543 0.20305 0.0
N866 N 0.76608 0.17752 0.18659 0.0
N867 N 0.70601 0.22358 0.18113 0.0
C868 C 0.73582 0.2319 0.15816 0.0
C869 C 0.7695 0.20589 0.16098 0.0
C870 C 0.24061 0.74935 0.35546 0.0
C871 C 0.24097 0.77601 0.3858 0.0
C872 C 0.26549 0.71602 0.35281 0.0
C873 C 0.29349 0.70584 0.38018 0.0
H874 H 0.22062 0.75436 0.33293 0.0
H875 H 0.26301 0.69809 0.32833 0.0
S876 S 0.30343 0.76075 0.46898 0.0
N877 N 0.27064 0.78557 0.4462 0.0
N878 N 0.3154 0.72456 0.44166 0.0
C879 C 0.29298 0.7312 0.41148 0.0
C880 C 0.26776 0.76532 0.4141 0.0
C881 C 0.79321 0.30121 0.36299 0.0
C882 C 0.79633 0.33375 0.38722 0.0
C883 C 0.76105 0.27445 0.36275 0.0
C884 C 0.72809 0.27669 0.38647 0.0
H885 H 0.81584 0.29662 0.34273 0.0
H886 H 0.76171 0.25203 0.34255 0.0
S887 S 0.7195 0.35344 0.45833 0.0
N888 N 0.76184 0.36248 0.43949 0.0
N889 N 0.7026 0.31538 0.43663 0.0
C890 C 0.73097 0.30834 0.41156 0.0
C891 C 0.76413 0.33536 0.41257 0.0
C892 C 0.79441 0.273 0.93122 0.0
C893 C 0.80757 0.30024 0.95762 0.0
C894 C 0.75715 0.25736 0.93237 0.0
C895 C 0.73026 0.26814 0.95967 0.0
H896 H 0.81245 0.2643 0.90816 0.0
H897 H 0.74882 0.23739 0.91071 0.0
S898 S 0.74639 0.34031 0.03376 0.0
N899 N 0.78823 0.3377 0.01208 0.0
N900 N 0.71791 0.30942 0.01256 0.0
C901 C 0.74208 0.29548 0.98608 0.0
C902 C 0.78051 0.31128 0.98537 0.0
C903 C 0.27535 0.72629 0.92474 0.0
C904 C 0.29623 0.7103 0.95472 0.0
C905 C 0.25972 0.76351 0.92624 0.0
C906 C 0.26398 0.78721 0.95772 0.0
H907 H 0.27164 0.71026 0.89918 0.0
H908 H 0.24452 0.77414 0.90206 0.0
S909 S 0.31722 0.76105 0.04338 0.0
N910 N 0.32029 0.72226 0.0172 0.0
N911 N 0.2921 0.79259 0.01922 0.0
C912 C 0.28486 0.77208 0.98791 0.0
C913 C 0.30075 0.7338 0.98653 0.0
C914 C 0.74615 0.23207 0.56677 0.0
C915 C 0.74227 0.26776 0.54827 0.0
C916 C 0.7817 0.21257 0.56903 0.0
C917 C 0.8153 0.22763 0.55289 0.0
H918 H 0.7219 0.2196 0.58124 0.0
H919 H 0.78323 0.18632 0.58504 0.0
S920 S 0.82258 0.31783 0.49925 0.0
N921 N 0.77692 0.31549 0.51153 0.0
N922 N 0.84282 0.27913 0.51673 0.0
C923 C 0.81211 0.26234 0.53352 0.0
C924 C 0.77602 0.28225 0.531 0.0
C925 C 0.27277 0.77279 0.57908 0.0
C926 C 0.24196 0.76118 0.55569 0.0
C927 C 0.28965 0.80953 0.57718 0.0
C928 C 0.27663 0.83766 0.55229 0.0
H929 H 0.28368 0.75396 0.60044 0.0
H930 H 0.31251 0.81644 0.59649 0.0
S931 S 0.19529 0.8263 0.48672 0.0
N932 N 0.19889 0.78384 0.50671 0.0
N933 N 0.22941 0.85302 0.50526 0.0
C934 C 0.24549 0.82766 0.52929 0.0
C935 C 0.22848 0.78972 0.53057 0.0
C936 C 0.02104 0.53639 0.27878 0.0
C937 C 1.00466 0.50171 0.26526 0.0
C938 C 0.04606 0.56013 0.25689 0.0
C939 C 0.05734 0.55074 0.21995 0.0
H940 H 1.01416 0.54568 0.3068 0.0
H941 H 0.05663 0.58644 0.26914 0.0
S942 S 0.02393 0.46327 0.17027 0.0
N943 N 1.00275 0.45977 0.21138 0.0
N944 N 0.04949 0.50317 0.1713 0.0
C945 C 0.04188 0.51582 0.2063 0.0
C946 C 1.01604 0.49182 0.22848 0.0
C947 C 1.00748 0.02594 0.2794 0.0
C948 C 1.01771 0.03599 0.24233 0.0
C949 C 0.03125 1.00255 0.30273 0.0
C950 C 0.06713 0.98751 0.2908 0.0
H951 H 0.98029 0.03588 0.29047 0.0
H952 H 0.02099 0.99557 0.3304 0.0
S953 S 0.10755 1.00277 0.19599 0.0
N954 N 0.0667 0.02688 0.19492 0.0
N955 N 0.1108 0.98428 0.23824 0.0
C956 C 0.07781 0.9974 0.25393 0.0
C957 C 0.05351 0.02106 0.23007 0.0
C958 C 0.53885 0.04999 0.26417 0.0
C959 C 0.52805 0.08732 0.27654 0.0
C960 C 0.51374 0.02499 0.24356 0.0
C961 C 0.47687 0.03624 0.23022 0.0
H962 H 0.56738 0.03955 0.27029 0.0
H963 H 0.52385 0.99625 0.23795 0.0
S964 S 0.43395 0.13177 0.25186 0.0
N965 N 0.47386 0.13144 0.27647 0.0
N966 N 0.43395 0.09127 0.22818 0.0
C967 C 0.46674 0.07445 0.24042 0.0
C968 C 0.49019 0.09795 0.2654 0.0
C969 C 0.52125 0.44829 0.25669 0.0
C970 C 0.51512 0.44298 0.21794 0.0
C971 C 0.49779 0.47301 0.27925 0.0
C972 C 0.46676 0.49482 0.26467 0.0
H973 H 0.54487 0.43335 0.26983 0.0
H974 H 0.5043 0.4752 0.30864 0.0
S975 S 0.4388 0.49322 0.16461 0.0
N976 N 0.47531 0.46298 0.16624 0.0
N977 N 0.43236 0.509 0.20759 0.0
C978 C 0.46039 0.48969 0.22591 0.0
C979 C 0.48412 0.46429 0.20302 0.0
C980 C 0.06973 0.46269 0.7143 0.0
C981 C 0.10439 0.48273 0.71837 0.0
C982 C 0.05223 0.44463 0.74488 0.0
C983 C 0.06859 0.44613 0.78078 0.0
H984 H 0.05505 0.46265 0.68773 0.0
H985 H 0.02479 0.43066 0.74067 0.0
S986 S 0.16078 0.4929 0.80524 0.0
N987 N 0.15577 0.50131 0.76021 0.0
N988 N 0.12289 0.46746 0.81782 0.0
C989 C 0.10439 0.46434 0.7847 0.0
C990 C 0.12219 0.48278 0.75348 0.0
C991 C 0.09995 0.0805 0.79349 0.0
C992 C 0.10719 0.04076 0.79468 0.0
C993 C 0.08367 0.09768 0.76173 0.0
C994 C 0.0742 0.07568 0.73021 0.0
H995 H 0.10518 0.0981 0.81781 0.0
H996 H 0.07666 0.12792 0.76254 0.0
S997 S 0.09145 0.97194 0.71699 0.0
N998 N 0.10735 0.98098 0.75939 0.0
N999 N 0.07572 1.01326 0.70076 0.0
C1000 C 0.08311 0.03657 0.73025 0.0
C1001 C 0.09991 1.01913 0.76218 0.0
C1002 C 0.46529 0.07306 0.78909 0.0
C1003 C 0.4757 0.11186 0.79168 0.0
C1004 C 0.44975 0.05797 0.75617 0.0
C1005 C 0.44444 0.08091 0.72424 0.0
H1006 H 0.46956 0.05414 0.81263 0.0
H1007 H 0.44202 0.0279 0.75568 0.0
S1008 S 0.46901 0.18407 0.71623 0.0
N1009 N 0.48037 0.1729 0.75954 0.0
N1010 N 0.45178 0.14444 0.69737 0.0
C1011 C 0.4545 0.11991 0.72661 0.0
C1012 C 0.47004 0.13536 0.76034 0.0
C1013 C 0.47528 0.40426 0.74274 0.0
C1014 C 0.47466 0.42271 0.70789 0.0
C1015 C 0.45945 0.42184 0.77462 0.0
C1016 C 0.44296 0.45865 0.77269 0.0
H1017 H 0.48985 0.37699 0.74572 0.0
H1018 H 0.46193 0.40745 0.80123 0.0
S1019 S 0.43074 0.51691 0.68706 0.0
N1020 N 0.45379 0.47818 0.67276 0.0
N1021 N 0.42376 0.51112 0.73223 0.0
C1022 C 0.44043 0.47633 0.73752 0.0
C1023 C 0.45642 0.45842 0.70525 0.0
C1024 C 0.25487 0.76102 0.25126 0.0
C1025 C 0.22695 0.75778 0.22334 0.0
C1026 C 0.26703 0.79744 0.26253 0.0
C1027 C 0.24922 0.83001 0.24745 0.0
H1028 H 0.26325 0.73631 0.26751 0.0
H1029 H 0.28186 0.79978 0.28876 0.0
S1030 S 0.18875 0.83671 0.16489 0.0
N1031 N 0.19136 0.79054 0.1744 0.0
N1032 N 0.21854 0.85771 0.19407 0.0
C1033 C 0.23281 0.82673 0.21232 0.0
C1034 C 0.21793 0.79047 0.20198 0.0
C1035 C 0.82963 0.21848 0.27321 0.0
C1036 C 0.85035 0.19333 0.2963 0.0
C1037 C 0.7896 0.21852 0.27422 0.0
C1038 C 0.77004 0.19511 0.29969 0.0
H1039 H 0.84356 0.23236 0.24979 0.0
H1040 H 0.77415 0.23408 0.25296 0.0
S1041 S 0.81322 0.14073 0.37781 0.0
N1042 N 0.85023 0.15657 0.35344 0.0
N1043 N 0.77463 0.15726 0.35653 0.0
C1044 C 0.79106 0.17722 0.32823 0.0
C1045 C 0.83169 0.17738 0.32704 0.0
C1046 C 0.39562 0.74593 0.23117 0.0
C1047 C 0.3756 0.7307 0.26158 0.0
C1048 C 0.40004 0.78523 0.2275 0.0
C1049 C 0.3859 0.81038 0.25491 0.0
H1050 H 0.40685 0.72742 0.20947 0.0
H1051 H 0.41386 0.79604 0.20254 0.0
S1052 S 0.33919 0.78474 0.34345 0.0
N1053 N 0.34576 0.74342 0.32174 0.0
N1054 N 0.3558 0.818 0.31513 0.0
C1055 C 0.36779 0.7957 0.28634 0.0
C1056 C 0.36237 0.75558 0.28972 0.0
C1057 C 0.74322 0.30948 0.24609 0.0
C1058 C 0.71471 0.32199 0.27138 0.0
C1059 C 0.78048 0.32427 0.24763 0.0
C1060 C 0.78932 0.35313 0.27332 0.0
H1061 H 0.73589 0.2913 0.22271 0.0
H1062 H 0.80131 0.31557 0.22681 0.0
S1063 S 0.72571 0.39127 0.34779 0.0
N1064 N 0.70024 0.35775 0.32728 0.0
N1065 N 0.7676 0.39121 0.32623 0.0
C1066 C 0.76201 0.36315 0.30058 0.0
C1067 C 0.72554 0.34547 0.301 0.0
C1068 C 0.95164 0.27595 0.72526 0.0
C1069 C 0.9542 0.23573 0.72943 0.0
C1070 C 0.95158 0.30088 0.75623 0.0
C1071 C 0.95144 0.28681 0.79297 0.0
H1072 H 0.95052 0.28847 0.69771 0.0
H1073 H 0.95194 0.33151 0.75133 0.0
S1074 S 0.94818 0.1839 0.81945 0.0
N1075 N 0.95295 0.18317 0.77369 0.0
N1076 N 0.94604 0.22958 0.83133 0.0
C1077 C 0.94965 0.24662 0.79748 0.0
C1078 C 0.95252 0.22129 0.76602 0.0
C1079 C 0.31526 0.95289 0.75792 0.0
C1080 C 0.29588 0.95734 0.72385 0.0
C1081 C 0.29515 0.94588 0.79138 0.0
C1082 C 0.25455 0.94581 0.79292 0.0
H1083 H 0.34627 0.95519 0.7588 0.0
H1084 H 0.31169 0.94156 0.81652 0.0
S1085 S 0.19061 0.94833 0.71048 0.0
N1086 N 0.23416 0.95257 0.69275 0.0
N1087 N 0.19615 0.94599 0.75609 0.0
C1088 C 0.235 0.94812 0.75871 0.0
C1089 C 0.25564 0.95251 0.72428 0.0
C1090 C 0.60337 0.22923 0.75284 0.0
C1091 C 0.59978 0.25129 0.78546 0.0
C1092 C 0.60803 0.24658 0.71782 0.0
C1093 C 0.60547 0.28667 0.71339 0.0
H1094 H 0.60233 0.19824 0.75433 0.0
H1095 H 0.61203 0.22824 0.69378 0.0
S1096 S 0.60362 0.35759 0.79042 0.0
N1097 N 0.60373 0.31561 0.81161 0.0
N1098 N 0.60316 0.34805 0.74538 0.0
C1099 C 0.60367 0.30911 0.74593 0.0
C1100 C 0.60279 0.29147 0.78191 0.0
C1101 C 0.31318 0.58989 0.75031 0.0
C1102 C 0.29582 0.58572 0.78552 0.0
C1103 C 0.29125 0.59683 0.7181 0.0
C1104 C 0.25069 0.59676 0.71893 0.0
H1105 H 0.34413 0.58802 0.74764 0.0
H1106 H 0.30639 0.60179 0.6922 0.0
S1107 S 0.19124 0.59397 0.80482 0.0
N1108 N 0.23577 0.59014 0.82008 0.0
N1109 N 0.19434 0.59593 0.75896 0.0
C1110 C 0.23302 0.59402 0.75417 0.0
C1111 C 0.25553 0.58997 0.7874 0.0
C1112 C 1.01822 0.5366 0.02639 0.0
C1113 C 0.05717 0.54482 0.018 0.0
C1114 C 0.99678 0.50873 0.00633 0.0
C1115 C 1.01291 0.4879 0.97639 0.0
H1116 H 1.00445 0.55086 0.04965 0.0
H1117 H 0.96771 0.50253 0.01522 0.0
S1118 S 0.11222 0.4999 0.94042 0.0
N1119 N 0.10972 0.53062 0.9754 0.0
N1120 N 0.06984 0.47877 0.93848 0.0
C1121 C 0.05131 0.49651 0.96704 0.0
C1122 C 0.0732 0.52469 0.98746 0.0
C1123 C 0.06358 0.02305 0.98691 0.0
C1124 C 0.07747 0.98686 0.99829 0.0
C1125 C 0.03518 0.04338 0.00751 0.0
C1126 C 1.01911 0.02879 0.0409 0.0
H1127 H 0.07511 0.03603 0.96188 0.0
H1128 H 0.02574 0.07089 0.99704 0.0
S1129 S 0.04869 0.93699 0.08524 0.0
N1130 N 0.07469 0.93865 0.04674 0.0
N1131 N 0.02205 0.97617 0.08524 0.0
C1132 C 0.03332 0.99273 0.05278 0.0
C1133 C 0.06221 0.97211 0.03174 0.0
C1134 C 0.48515 0.07423 0.05435 0.0
C1135 C 0.45922 0.04943 0.03586 0.0
C1136 C 0.51076 0.09849 0.03473 0.0
C1137 C 0.51178 0.0995 0.9955 0.0
H1138 H 0.48569 0.07499 0.0845 0.0
H1139 H 0.52946 0.11726 0.05046 0.0
S1140 S 0.45053 0.04115 0.93294 0.0
N1141 N 0.43695 0.02794 0.97517 0.0
N1142 N 0.48475 0.07339 0.93879 0.0
C1143 C 0.48667 0.07461 0.97655 0.0
C1144 C 0.46062 0.0497 0.99649 0.0
C1145 C 0.48632 0.46006 0.96953 0.0
C1146 C 0.47679 0.49775 0.98071 0.0
C1147 C 0.51253 0.43695 0.98986 0.0
C1148 C 0.5309 0.45026 0.02252 0.0
H1149 H 0.47289 0.44806 0.94497 0.0
H1150 H 0.51838 0.40823 0.97988 0.0
S1151 S 0.51307 0.54526 0.06629 0.0
N1152 N 0.48592 0.54593 0.02863 0.0
N1153 N 0.53535 0.50345 0.066 0.0
C1154 C 0.52135 0.48784 0.03413 0.0
C1155 C 0.49435 0.51119 0.01362 0.0
C1156 C 0.02522 1.00532 0.47935 0.0
C1157 C 0.05611 0.98395 0.49457 0.0
C1158 C 1.00541 0.03398 0.49991 0.0
C1159 C 1.01515 0.04295 0.537 0.0
H1160 H 1.01668 1.00058 0.45074 0.0
H1161 H 0.98268 0.04986 0.48634 0.0
S1162 S 0.09183 0.99539 0.59167 0.0
N1163 N 0.0938 0.97372 0.55075 0.0
N1164 N 0.05722 0.02761 0.58847 0.0
C1165 C 0.04543 0.02177 0.55289 0.0
C1166 C 0.06567 0.99249 0.53203 0.0
C1167 C 0.48341 0.07456 0.45582 0.0
C1168 C 0.50346 0.10577 0.47214 0.0
C1169 C 0.45929 0.04964 0.47684 0.0
C1170 C 0.45348 0.05441 0.51551 0.0
H1171 H 0.48633 0.06924 0.42623 0.0
H1172 H 0.44438 0.02679 0.46245 0.0
S1173 S 0.4974 0.13157 0.57259 0.0
N1174 N 0.51463 0.13955 0.53037 0.0
N1175 N 0.4695 0.09343 0.56911 0.0
C1176 C 0.47323 0.08525 0.5323 0.0
C1177 C 0.4981 0.11049 0.511 0.0
C1178 C 0.52517 0.45136 0.46928 0.0
C1179 C 0.52455 0.44991 0.50851 0.0
C1180 C 0.49919 0.47444 0.44904 0.0
C1181 C 0.4716 0.49787 0.46692 0.0
H1182 H 0.54513 0.4334 0.45401 0.0
H1183 H 0.50046 0.47358 0.4189 0.0
S1184 S 0.45925 0.50609 0.56942 0.0
N1185 N 0.49474 0.47501 0.56455 0.0
N1186 N 0.44666 0.51889 0.52683 0.0
C1187 C 0.4718 0.49792 0.50625 0.0
C1188 C 0.49803 0.47395 0.52687 0.0
C1189 C 1.02012 0.49296 0.51592 0.0
C1190 C 1.00176 0.50977 0.48491 0.0
C1191 C 0.0467 0.51381 0.53823 0.0
C1192 C 0.05587 0.55268 0.5311 0.0
H1193 H 1.01558 0.46287 0.5218 0.0
H1194 H 0.06134 0.49891 0.56052 0.0
S1195 S 1.01502 0.61078 0.45429 0.0
N1196 N 0.99402 0.56863 0.44955 0.0
N1197 N 0.04368 0.60687 0.49067 0.0
C1198 C 0.03677 0.57007 0.50101 0.0
C1199 C 1.0099 0.54897 0.47831 0.0
loop_
_geom_bond_atom_site_label_1
_geom_bond_atom_site_label_2
_geom_bond_distance
_geom_bond_site_symmetry_2
_ccdc_geom_bond_type
C0 C1 1.443 . S
C0 N4 1.376 . S
C0 C38 1.389 . S
C1 C0 1.443 . S
C1 C2 1.340 . S
C1 H41 0.951 . S
C2 C1 1.340 . S
C2 C3 1.439 . S
C2 H42 0.950 . S
C3 C2 1.439 . S
C3 N4 1.374 . S
C3 C37 1.395 . S
N4 C0 1.376 . S
N4 C3 1.374 . S
N4 Co5 2.008 . S
Co5 N4 2.008 . S
Co5 N6 1.995 . S
Co5 N11 2.008 . S
Co5 N16 1.995 . S
Co5 N21 2.282 . S
Co5 N27 2.282 . S
N6 Co5 1.995 . S
N6 C7 1.376 . S
N6 C10 1.383 . S
C7 N6 1.376 . S
C7 C8 1.446 . S
C7 C37 1.391 . S
C8 C7 1.446 . S
C8 C9 1.339 . S
C8 H43 0.949 . S
C9 C8 1.339 . S
C9 C10 1.439 . S
C9 H44 0.950 . S
C10 N6 1.383 . S
C10 C9 1.439 . S
C10 C39 1.392 . S
N11 Co5 2.008 . S
N11 C12 1.376 . S
N11 C15 1.374 . S
C12 N11 1.376 . S
C12 C13 1.443 . S
C12 C39 1.389 . S
C13 C12 1.443 . S
C13 C14 1.340 . S
C13 H45 0.951 1_455 S
C14 C13 1.340 . S
C14 C15 1.439 . S
C14 H46 0.950 1_455 S
C15 N11 1.374 . S
C15 C14 1.439 . S
C15 C40 1.395 . S
N16 Co5 1.995 . S
N16 C17 1.376 . S
N16 C20 1.383 . S
C17 N16 1.376 . S
C17 C18 1.446 . S
C17 C40 1.391 . S
C18 C17 1.446 . S
C18 C19 1.339 . S
C18 H47 0.949 . S
C19 C18 1.339 . S
C19 C20 1.439 . S
C19 H48 0.950 . S
C20 N16 1.383 . S
C20 C19 1.439 . S
C20 C38 1.392 . S
N21 Co5 2.282 . S
N21 C24 1.332 . S
N21 C26 1.332 . S
C22 C23 1.386 . S
C22 C25 1.388 . S
C23 C22 1.386 . S
C23 C24 1.382 . S
C23 H49 0.950 . S
C24 N21 1.332 . S
C24 C23 1.382 . S
C24 H35 0.952 . S
C25 C22 1.388 . S
C25 C26 1.382 . S
C25 H50 0.950 . S
C26 N21 1.332 . S
C26 C25 1.382 . S
C26 H36 0.948 . S
N27 Co5 2.282 . S
N27 C31 1.332 . S
N27 C32 1.332 . S
C28 C29 1.388 . S
C28 C32 1.382 . S
C28 H51 0.950 . S
C29 C28 1.388 . S
C29 C30 1.386 . S
C30 C29 1.386 . S
C30 C31 1.382 . S
C30 H52 0.950 . S
C31 N27 1.332 . S
C31 C30 1.382 . S
C31 H33 0.952 . S
C32 N27 1.332 . S
C32 C28 1.382 . S
C32 H34 0.948 . S
H33 C31 0.952 . S
H34 C32 0.948 . S
H35 C24 0.952 . S
H36 C26 0.948 . S
C37 C3 1.395 . S
C37 C7 1.391 . S
C38 C0 1.389 . S
C38 C20 1.392 . S
C39 C10 1.392 . S
C39 C12 1.389 . S
C40 C15 1.395 . S
C40 C17 1.391 . S
H41 C1 0.951 . S
H42 C2 0.950 . S
H43 C8 0.949 . S
H44 C9 0.950 . S
H45 C13 0.951 1_655 S
H46 C14 0.950 1_655 S
H47 C18 0.949 . S
H48 C19 0.950 . S
H49 C23 0.950 . S
H50 C25 0.950 . S
H51 C28 0.950 . S
H52 C30 0.950 . S
C53 C54 1.443 . S
C53 N57 1.376 . S
C53 C91 1.389 . S
C54 C53 1.443 . S
C54 C55 1.340 . S
C54 H94 0.951 . S
C55 C54 1.340 . S
C55 C56 1.439 . S
C55 H95 0.950 . S
C56 C55 1.439 . S
C56 N57 1.374 . S
C56 C90 1.395 . S
N57 C53 1.376 . S
N57 C56 1.374 . S
N57 Co58 2.008 . S
Co58 N57 2.008 . S
Co58 N59 1.995 . S
Co58 N64 2.008 . S
Co58 N69 1.995 . S
Co58 N74 2.282 . S
Co58 N80 2.282 . S
N59 Co58 1.995 . S
N59 C60 1.376 . S
N59 C63 1.383 . S
C60 N59 1.376 . S
C60 C61 1.446 . S
C60 C90 1.391 . S
C61 C60 1.446 . S
C61 C62 1.339 1_655 S
C61 H96 0.949 1_655 S
C62 C61 1.339 1_455 S
C62 C63 1.439 1_455 S
C62 H97 0.950 . S
C63 N59 1.383 . S
C63 C62 1.439 1_655 S
C63 C92 1.392 . S
N64 Co58 2.008 . S
N64 C65 1.376 . S
N64 C68 1.374 . S
C65 N64 1.376 . S
C65 C66 1.443 . S
C65 C92 1.389 . S
C66 C65 1.443 . S
C66 C67 1.340 . S
C66 H98 0.951 1_545 S
C67 C66 1.340 . S
C67 C68 1.439 . S
C67 H99 0.950 1_545 S
C68 N64 1.374 . S
C68 C67 1.439 . S
C68 C93 1.395 . S
N69 Co58 1.995 . S
N69 C70 1.376 . S
N69 C73 1.383 . S
C70 N69 1.376 . S
C70 C71 1.446 . S
C70 C93 1.391 . S
C71 C70 1.446 . S
C71 C72 1.339 . S
C71 H100 0.949 . S
C72 C71 1.339 . S
C72 C73 1.439 . S
C72 H101 0.950 . S
C73 N69 1.383 . S
C73 C72 1.439 . S
C73 C91 1.392 . S
N74 Co58 2.282 . S
N74 C77 1.332 . S
N74 C79 1.332 . S
C75 C76 1.386 . S
C75 C78 1.388 1_655 S
C76 C75 1.386 . S
C76 C77 1.382 . S
C76 H102 0.950 . S
C77 N74 1.332 . S
C77 C76 1.382 . S
C77 H88 0.952 . S
C78 C75 1.388 1_455 S
C78 C79 1.382 1_455 S
C78 H103 0.950 . S
C79 N74 1.332 . S
C79 C78 1.382 1_655 S
C79 H89 0.948 . S
N80 Co58 2.282 . S
N80 C84 1.332 . S
N80 C85 1.332 . S
C81 C82 1.388 . S
C81 C85 1.382 . S
C81 H104 0.950 . S
C82 C81 1.388 . S
C82 C83 1.386 . S
C83 C82 1.386 . S
C83 C84 1.382 . S
C83 H105 0.950 . S
C84 N80 1.332 . S
C84 C83 1.382 . S
C84 H86 0.952 . S
C85 N80 1.332 . S
C85 C81 1.382 . S
C85 H87 0.948 . S
H86 C84 0.952 . S
H87 C85 0.948 . S
H88 C77 0.952 . S
H89 C79 0.948 . S
C90 C56 1.395 . S
C90 C60 1.391 . S
C91 C53 1.389 . S
C91 C73 1.392 . S
C92 C63 1.392 . S
C92 C65 1.389 . S
C93 C68 1.395 . S
C93 C70 1.391 . S
H94 C54 0.951 . S
H95 C55 0.950 . S
H96 C61 0.949 1_455 S
H97 C62 0.950 . S
H98 C66 0.951 1_565 S
H99 C67 0.950 1_565 S
H100 C71 0.949 . S
H101 C72 0.950 . S
H102 C76 0.950 . S
H103 C78 0.950 . S
H104 C81 0.950 . S
H105 C83 0.950 . S
C106 C107 1.443 . S
C106 N110 1.376 . S
C106 C144 1.389 . S
C107 C106 1.443 . S
C107 C108 1.340 . S
C107 H147 0.951 . S
C108 C107 1.340 . S
C108 C109 1.439 . S
C108 H148 0.950 . S
C109 C108 1.439 . S
C109 N110 1.374 . S
C109 C143 1.395 . S
N110 C106 1.376 . S
N110 C109 1.374 . S
N110 Co111 2.008 . S
Co111 N110 2.008 . S
Co111 N112 1.995 . S
Co111 N117 2.008 . S
Co111 N122 1.995 . S
Co111 N127 2.282 . S
Co111 N133 2.282 . S
N112 Co111 1.995 . S
N112 C113 1.376 . S
N112 C116 1.383 . S
C113 N112 1.376 . S
C113 C114 1.446 . S
C113 C143 1.391 . S
C114 C113 1.446 . S
C114 C115 1.339 1_565 S
C114 H149 0.949 1_565 S
C115 C114 1.339 1_545 S
C115 C116 1.439 1_545 S
C115 H150 0.950 . S
C116 N112 1.383 . S
C116 C115 1.439 1_565 S
C116 C145 1.392 . S
N117 Co111 2.008 . S
N117 C118 1.376 . S
N117 C121 1.374 . S
C118 N117 1.376 . S
C118 C119 1.443 . S
C118 C145 1.389 . S
C119 C118 1.443 . S
C119 C120 1.340 . S
C119 H151 0.951 . S
C120 C119 1.340 . S
C120 C121 1.439 . S
C120 H152 0.950 . S
C121 N117 1.374 . S
C121 C120 1.439 . S
C121 C146 1.395 . S
N122 Co111 1.995 . S
N122 C123 1.376 . S
N122 C126 1.383 . S
C123 N122 1.376 . S
C123 C124 1.446 . S
C123 C146 1.391 . S
C124 C123 1.446 . S
C124 C125 1.339 . S
C124 H153 0.949 . S
C125 C124 1.339 . S
C125 C126 1.439 . S
C125 H154 0.950 . S
C126 N122 1.383 . S
C126 C125 1.439 . S
C126 C144 1.392 . S
N127 Co111 2.282 . S
N127 C130 1.332 . S
N127 C132 1.332 . S
C128 C129 1.386 . S
C128 C131 1.388 1_565 S
C129 C128 1.386 . S
C129 C130 1.382 . S
C129 H155 0.950 . S
C130 N127 1.332 . S
C130 C129 1.382 . S
C130 H141 0.952 . S
C131 C128 1.388 1_545 S
C131 C132 1.382 1_545 S
C131 H156 0.950 . S
C132 N127 1.332 . S
C132 C131 1.382 1_565 S
C132 H142 0.948 . S
N133 Co111 2.282 . S
N133 C137 1.332 . S
N133 C138 1.332 . S
C134 C135 1.388 . S
C134 C138 1.382 . S
C134 H157 0.950 . S
C135 C134 1.388 . S
C135 C136 1.386 . S
C136 C135 1.386 . S
C136 C137 1.382 . S
C136 H158 0.950 . S
C137 N133 1.332 . S
C137 C136 1.382 . S
C137 H139 0.952 . S
C138 N133 1.332 . S
C138 C134 1.382 . S
C138 H140 0.948 . S
H139 C137 0.952 . S
H140 C138 0.948 . S
H141 C130 0.952 . S
H142 C132 0.948 . S
C143 C109 1.395 . S
C143 C113 1.391 . S
C144 C106 1.389 . S
C144 C126 1.392 . S
C145 C116 1.392 . S
C145 C118 1.389 . S
C146 C121 1.395 . S
C146 C123 1.391 . S
H147 C107 0.951 . S
H148 C108 0.950 . S
H149 C114 0.949 1_545 S
H150 C115 0.950 . S
H151 C119 0.951 . S
H152 C120 0.950 . S
H153 C124 0.949 . S
H154 C125 0.950 . S
H155 C129 0.950 . S
H156 C131 0.950 . S
H157 C134 0.950 . S
H158 C136 0.950 . S
C159 C160 1.443 . S
C159 N163 1.376 . S
C159 C197 1.389 . S
C160 C159 1.443 . S
C160 C161 1.340 . S
C160 H200 0.951 . S
C161 C160 1.340 . S
C161 C162 1.439 . S
C161 H201 0.950 . S
C162 C161 1.439 . S
C162 N163 1.374 . S
C162 C196 1.395 . S
N163 C159 1.376 . S
N163 C162 1.374 . S
N163 Co164 2.008 . S
Co164 N163 2.008 . S
Co164 N165 1.995 . S
Co164 N170 2.008 . S
Co164 N175 1.995 . S
Co164 N180 2.282 . S
Co164 N186 2.282 . S
N165 Co164 1.995 . S
N165 C166 1.376 . S
N165 C169 1.383 . S
C166 N165 1.376 . S
C166 C167 1.446 . S
C166 C196 1.391 . S
C167 C166 1.446 . S
C167 C168 1.339 . S
C167 H202 0.949 . S
C168 C167 1.339 . S
C168 C169 1.439 . S
C168 H203 0.950 . S
C169 N165 1.383 . S
C169 C168 1.439 . S
C169 C198 1.392 . S
N170 Co164 2.008 . S
N170 C171 1.376 . S
N170 C174 1.374 . S
C171 N170 1.376 . S
C171 C172 1.443 . S
C171 C198 1.389 . S
C172 C171 1.443 . S
C172 C173 1.340 . S
C172 H204 0.951 . S
C173 C172 1.340 . S
C173 C174 1.439 . S
C173 H205 0.950 . S
C174 N170 1.374 . S
C174 C173 1.439 . S
C174 C199 1.395 . S
N175 Co164 1.995 . S
N175 C176 1.376 . S
N175 C179 1.383 . S
C176 N175 1.376 . S
C176 C177 1.446 . S
C176 C199 1.391 . S
C177 C176 1.446 . S
C177 C178 1.339 . S
C177 H206 0.949 . S
C178 C177 1.339 . S
C178 C179 1.439 . S
C178 H207 0.950 . S
C179 N175 1.383 . S
C179 C178 1.439 . S
C179 C197 1.392 . S
N180 Co164 2.282 . S
N180 C183 1.332 . S
N180 C185 1.332 . S
C181 C182 1.386 . S
C181 C184 1.388 . S
C182 C181 1.386 . S
C182 C183 1.382 . S
C182 H208 0.950 . S
C183 N180 1.332 . S
C183 C182 1.382 . S
C183 H194 0.952 . S
C184 C181 1.388 . S
C184 C185 1.382 . S
C184 H209 0.950 . S
C185 N180 1.332 . S
C185 C184 1.382 . S
C185 H195 0.948 . S
N186 Co164 2.282 . S
N186 C190 1.332 . S
N186 C191 1.332 . S
C187 C188 1.388 . S
C187 C191 1.382 . S
C187 H210 0.950 . S
C188 C187 1.388 . S
C188 C189 1.386 . S
C189 C188 1.386 . S
C189 C190 1.382 . S
C189 H211 0.950 . S
C190 N186 1.332 . S
C190 C189 1.382 . S
C190 H192 0.952 . S
C191 N186 1.332 . S
C191 C187 1.382 . S
C191 H193 0.948 . S
H192 C190 0.952 . S
H193 C191 0.948 . S
H194 C183 0.952 . S
H195 C185 0.948 . S
C196 C162 1.395 . S
C196 C166 1.391 . S
C197 C159 1.389 . S
C197 C179 1.392 . S
C198 C169 1.392 . S
C198 C171 1.389 . S
C199 C174 1.395 . S
C199 C176 1.391 . S
H200 C160 0.951 . S
H201 C161 0.950 . S
H202 C167 0.949 . S
H203 C168 0.950 . S
H204 C172 0.951 . S
H205 C173 0.950 . S
H206 C177 0.949 . S
H207 C178 0.950 . S
H208 C182 0.950 . S
H209 C184 0.950 . S
H210 C187 0.950 . S
H211 C189 0.950 . S
C212 C213 1.443 . S
C212 N216 1.376 . S
C212 C250 1.389 . S
C213 C212 1.443 . S
C213 C214 1.340 . S
C213 H253 0.951 . S
C214 C213 1.340 . S
C214 C215 1.439 . S
C214 H254 0.950 . S
C215 C214 1.439 . S
C215 N216 1.374 . S
C215 C249 1.395 . S
N216 C212 1.376 . S
N216 C215 1.374 . S
N216 Co217 2.008 . S
Co217 N216 2.008 . S
Co217 N218 1.995 . S
Co217 N223 2.008 . S
Co217 N228 1.995 . S
Co217 N233 2.282 . S
Co217 N239 2.282 . S
N218 Co217 1.995 . S
N218 C219 1.376 . S
N218 C222 1.383 . S
C219 N218 1.376 . S
C219 C220 1.446 . S
C219 C249 1.391 . S
C220 C219 1.446 . S
C220 C221 1.339 1_565 S
C220 H255 0.949 1_565 S
C221 C220 1.339 1_545 S
C221 C222 1.439 1_545 S
C221 H256 0.950 . S
C222 N218 1.383 . S
C222 C221 1.439 1_565 S
C222 C251 1.392 . S
N223 Co217 2.008 . S
N223 C224 1.376 . S
N223 C227 1.374 . S
C224 N223 1.376 . S
C224 C225 1.443 . S
C224 C251 1.389 . S
C225 C224 1.443 . S
C225 C226 1.340 . S
C225 H257 0.951 1_455 S
C226 C225 1.340 . S
C226 C227 1.439 . S
C226 H258 0.950 1_455 S
C227 N223 1.374 . S
C227 C226 1.439 . S
C227 C252 1.395 . S
N228 Co217 1.995 . S
N228 C229 1.376 . S
N228 C232 1.383 . S
C229 N228 1.376 . S
C229 C230 1.446 . S
C229 C252 1.391 . S
C230 C229 1.446 . S
C230 C231 1.339 . S
C230 H259 0.949 . S
C231 C230 1.339 . S
C231 C232 1.439 . S
C231 H260 0.950 . S
C232 N228 1.383 . S
C232 C231 1.439 . S
C232 C250 1.392 . S
N233 Co217 2.282 . S
N233 C236 1.332 . S
N233 C238 1.332 . S
C234 C235 1.386 . S
C234 C237 1.388 1_565 S
C235 C234 1.386 . S
C235 C236 1.382 . S
C235 H261 0.950 . S
C236 N233 1.332 . S
C236 C235 1.382 . S
C236 H247 0.952 . S
C237 C234 1.388 1_545 S
C237 C238 1.382 1_545 S
C237 H262 0.950 . S
C238 N233 1.332 . S
C238 C237 1.382 1_565 S
C238 H248 0.948 . S
N239 Co217 2.282 . S
N239 C243 1.332 . S
N239 C244 1.332 . S
C240 C241 1.388 . S
C240 C244 1.382 . S
C240 H263 0.950 . S
C241 C240 1.388 . S
C241 C242 1.386 . S
C242 C241 1.386 . S
C242 C243 1.382 . S
C242 H264 0.950 . S
C243 N239 1.332 . S
C243 C242 1.382 . S
C243 H245 0.952 . S
C244 N239 1.332 . S
C244 C240 1.382 . S
C244 H246 0.948 . S
H245 C243 0.952 . S
H246 C244 0.948 . S
H247 C236 0.952 . S
H248 C238 0.948 . S
C249 C215 1.395 . S
C249 C219 1.391 . S
C250 C212 1.389 . S
C250 C232 1.392 . S
C251 C222 1.392 . S
C251 C224 1.389 . S
C252 C227 1.395 . S
C252 C229 1.391 . S
H253 C213 0.951 . S
H254 C214 0.950 . S
H255 C220 0.949 1_545 S
H256 C221 0.950 . S
H257 C225 0.951 1_655 S
H258 C226 0.950 1_655 S
H259 C230 0.949 . S
H260 C231 0.950 . S
H261 C235 0.950 . S
H262 C237 0.950 . S
H263 C240 0.950 . S
H264 C242 0.950 . S
C265 C266 1.443 . S
C265 N269 1.376 . S
C265 C303 1.389 . S
C266 C265 1.443 . S
C266 C267 1.340 . S
C266 H306 0.951 . S
C267 C266 1.340 . S
C267 C268 1.439 . S
C267 H307 0.950 . S
C268 C267 1.439 . S
C268 N269 1.374 . S
C268 C302 1.395 . S
N269 C265 1.376 . S
N269 C268 1.374 . S
N269 Co270 2.008 . S
Co270 N269 2.008 . S
Co270 N271 1.995 . S
Co270 N276 2.008 . S
Co270 N281 1.995 . S
Co270 N286 2.282 . S
Co270 N292 2.282 . S
N271 Co270 1.995 . S
N271 C272 1.376 . S
N271 C275 1.383 . S
C272 N271 1.376 . S
C272 C273 1.446 . S
C272 C302 1.391 . S
C273 C272 1.446 . S
C273 C274 1.339 . S
C273 H308 0.949 . S
C274 C273 1.339 . S
C274 C275 1.439 . S
C274 H309 0.950 . S
C275 N271 1.383 . S
C275 C274 1.439 . S
C275 C304 1.392 . S
N276 Co270 2.008 . S
N276 C277 1.376 . S
N276 C280 1.374 . S
C277 N276 1.376 . S
C277 C278 1.443 . S
C277 C304 1.389 . S
C278 C277 1.443 . S
C278 C279 1.340 . S
C278 H310 0.951 1_545 S
C279 C278 1.340 . S
C279 C280 1.439 . S
C279 H311 0.950 1_545 S
C280 N276 1.374 . S
C280 C279 1.439 . S
C280 C305 1.395 . S
N281 Co270 1.995 . S
N281 C282 1.376 . S
N281 C285 1.383 . S
C282 N281 1.376 . S
C282 C283 1.446 . S
C282 C305 1.391 . S
C283 C282 1.446 . S
C283 C284 1.339 . S
C283 H312 0.949 . S
C284 C283 1.339 . S
C284 C285 1.439 . S
C284 H313 0.950 . S
C285 N281 1.383 . S
C285 C284 1.439 . S
C285 C303 1.392 . S
N286 Co270 2.282 . S
N286 C289 1.332 . S
N286 C291 1.332 . S
C287 C288 1.386 . S
C287 C290 1.388 . S
C288 C287 1.386 . S
C288 C289 1.382 . S
C288 H314 0.950 . S
C289 N286 1.332 . S
C289 C288 1.382 . S
C289 H300 0.952 . S
C290 C287 1.388 . S
C290 C291 1.382 . S
C290 H315 0.950 . S
C291 N286 1.332 . S
C291 C290 1.382 . S
C291 H301 0.948 . S
N292 Co270 2.282 . S
N292 C296 1.332 . S
N292 C297 1.332 . S
C293 C294 1.388 . S
C293 C297 1.382 . S
C293 H316 0.950 . S
C294 C293 1.388 . S
C294 C295 1.386 . S
C295 C294 1.386 . S
C295 C296 1.382 . S
C295 H317 0.950 . S
C296 N292 1.332 . S
C296 C295 1.382 . S
C296 H298 0.952 . S
C297 N292 1.332 . S
C297 C293 1.382 . S
C297 H299 0.948 . S
H298 C296 0.952 . S
H299 C297 0.948 . S
H300 C289 0.952 . S
H301 C291 0.948 . S
C302 C268 1.395 . S
C302 C272 1.391 . S
C303 C265 1.389 . S
C303 C285 1.392 . S
C304 C275 1.392 . S
C304 C277 1.389 . S
C305 C280 1.395 . S
C305 C282 1.391 . S
H306 C266 0.951 . S
H307 C267 0.950 . S
H308 C273 0.949 . S
H309 C274 0.950 . S
H310 C278 0.951 1_565 S
H311 C279 0.950 1_565 S
H312 C283 0.949 . S
H313 C284 0.950 . S
H314 C288 0.950 . S
H315 C290 0.950 . S
H316 C293 0.950 . S
H317 C295 0.950 . S
C318 C319 1.443 . S
C318 N322 1.376 . S
C318 C356 1.389 . S
C319 C318 1.443 . S
C319 C320 1.340 . S
C319 H359 0.951 . S
C320 C319 1.340 . S
C320 C321 1.439 . S
C320 H360 0.950 . S
C321 C320 1.439 . S
C321 N322 1.374 . S
C321 C355 1.395 . S
N322 C318 1.376 . S
N322 C321 1.374 . S
N322 Co323 2.008 . S
Co323 N322 2.008 . S
Co323 N324 1.995 . S
Co323 N329 2.008 . S
Co323 N334 1.995 . S
Co323 N339 2.282 . S
Co323 N345 2.282 . S
N324 Co323 1.995 . S
N324 C325 1.376 . S
N324 C328 1.383 . S
C325 N324 1.376 . S
C325 C326 1.446 . S
C325 C355 1.391 . S
C326 C325 1.446 . S
C326 C327 1.339 . S
C326 H361 0.949 . S
C327 C326 1.339 . S
C327 C328 1.439 . S
C327 H362 0.950 . S
C328 N324 1.383 . S
C328 C327 1.439 . S
C328 C357 1.392 . S
N329 Co323 2.008 . S
N329 C330 1.376 . S
N329 C333 1.374 . S
C330 N329 1.376 . S
C330 C331 1.443 . S
C330 C357 1.389 . S
C331 C330 1.443 . S
C331 C332 1.340 . S
C331 H363 0.951 . S
C332 C331 1.340 . S
C332 C333 1.439 . S
C332 H364 0.950 . S
C333 N329 1.374 . S
C333 C332 1.439 . S
C333 C358 1.395 . S
N334 Co323 1.995 . S
N334 C335 1.376 . S
N334 C338 1.383 . S
C335 N334 1.376 . S
C335 C336 1.446 . S
C335 C358 1.391 . S
C336 C335 1.446 . S
C336 C337 1.339 . S
C336 H365 0.949 . S
C337 C336 1.339 . S
C337 C338 1.439 . S
C337 H366 0.950 . S
C338 N334 1.383 . S
C338 C337 1.439 . S
C338 C356 1.392 . S
N339 Co323 2.282 . S
N339 C342 1.332 . S
N339 C344 1.332 . S
C340 C341 1.386 . S
C340 C343 1.388 . S
C341 C340 1.386 . S
C341 C342 1.382 . S
C341 H367 0.950 . S
C342 N339 1.332 . S
C342 C341 1.382 . S
C342 H353 0.952 . S
C343 C340 1.388 . S
C343 C344 1.382 . S
C343 H368 0.950 . S
C344 N339 1.332 . S
C344 C343 1.382 . S
C344 H354 0.948 . S
N345 Co323 2.282 . S
N345 C349 1.332 . S
N345 C350 1.332 . S
C346 C347 1.388 . S
C346 C350 1.382 . S
C346 H369 0.950 . S
C347 C346 1.388 . S
C347 C348 1.386 . S
C348 C347 1.386 . S
C348 C349 1.382 . S
C348 H370 0.950 . S
C349 N345 1.332 . S
C349 C348 1.382 . S
C349 H351 0.952 . S
C350 N345 1.332 . S
C350 C346 1.382 . S
C350 H352 0.948 . S
H351 C349 0.952 . S
H352 C350 0.948 . S
H353 C342 0.952 . S
H354 C344 0.948 . S
C355 C321 1.395 . S
C355 C325 1.391 . S
C356 C318 1.389 . S
C356 C338 1.392 . S
C357 C328 1.392 . S
C357 C330 1.389 . S
C358 C333 1.395 . S
C358 C335 1.391 . S
H359 C319 0.951 . S
H360 C320 0.950 . S
H361 C326 0.949 . S
H362 C327 0.950 . S
H363 C331 0.951 . S
H364 C332 0.950 . S
H365 C336 0.949 . S
H366 C337 0.950 . S
H367 C341 0.950 . S
H368 C343 0.950 . S
H369 C346 0.950 . S
H370 C348 0.950 . S
C371 C372 1.443 . S
C371 N375 1.376 . S
C371 C409 1.389 . S
C372 C371 1.443 . S
C372 C373 1.340 . S
C372 H412 0.951 . S
C373 C372 1.340 . S
C373 C374 1.439 . S
C373 H413 0.950 . S
C374 C373 1.439 . S
C374 N375 1.374 . S
C374 C408 1.395 . S
N375 C371 1.376 . S
N375 C374 1.374 . S
N375 Co376 2.008 . S
Co376 N375 2.008 . S
Co376 N377 1.995 . S
Co376 N382 2.008 . S
Co376 N387 1.995 . S
Co376 N392 2.282 . S
Co376 N398 2.282 . S
N377 Co376 1.995 . S
N377 C378 1.376 . S
N377 C381 1.383 . S
C378 N377 1.376 . S
C378 C379 1.446 . S
C378 C408 1.391 . S
C379 C378 1.446 . S
C379 C380 1.339 1_655 S
C379 H414 0.949 1_655 S
C380 C379 1.339 1_455 S
C380 C381 1.439 1_455 S
C380 H415 0.950 . S
C381 N377 1.383 . S
C381 C380 1.439 1_655 S
C381 C410 1.392 . S
N382 Co376 2.008 . S
N382 C383 1.376 . S
N382 C386 1.374 . S
C383 N382 1.376 . S
C383 C384 1.443 . S
C383 C410 1.389 . S
C384 C383 1.443 . S
C384 C385 1.340 . S
C384 H416 0.951 . S
C385 C384 1.340 . S
C385 C386 1.439 . S
C385 H417 0.950 . S
C386 N382 1.374 . S
C386 C385 1.439 . S
C386 C411 1.395 . S
N387 Co376 1.995 . S
N387 C388 1.376 . S
N387 C391 1.383 . S
C388 N387 1.376 . S
C388 C389 1.446 . S
C388 C411 1.391 . S
C389 C388 1.446 . S
C389 C390 1.339 . S
C389 H418 0.949 . S
C390 C389 1.339 . S
C390 C391 1.439 . S
C390 H419 0.950 . S
C391 N387 1.383 . S
C391 C390 1.439 . S
C391 C409 1.392 . S
N392 Co376 2.282 . S
N392 C395 1.332 . S
N392 C397 1.332 . S
C393 C394 1.386 . S
C393 C396 1.388 1_655 S
C394 C393 1.386 . S
C394 C395 1.382 . S
C394 H420 0.950 . S
C395 N392 1.332 . S
C395 C394 1.382 . S
C395 H406 0.952 . S
C396 C393 1.388 1_455 S
C396 C397 1.382 1_455 S
C396 H421 0.950 . S
C397 N392 1.332 . S
C397 C396 1.382 1_655 S
C397 H407 0.948 . S
N398 Co376 2.282 . S
N398 C402 1.332 . S
N398 C403 1.332 . S
C399 C400 1.388 . S
C399 C403 1.382 . S
C399 H422 0.950 . S
C400 C399 1.388 . S
C400 C401 1.386 . S
C401 C400 1.386 . S
C401 C402 1.382 . S
C401 H423 0.950 . S
C402 N398 1.332 . S
C402 C401 1.382 . S
C402 H404 0.952 . S
C403 N398 1.332 . S
C403 C399 1.382 . S
C403 H405 0.948 . S
H404 C402 0.952 . S
H405 C403 0.948 . S
H406 C395 0.952 . S
H407 C397 0.948 . S
C408 C374 1.395 . S
C408 C378 1.391 . S
C409 C371 1.389 . S
C409 C391 1.392 . S
C410 C381 1.392 . S
C410 C383 1.389 . S
C411 C386 1.395 . S
C411 C388 1.391 . S
H412 C372 0.951 . S
H413 C373 0.950 . S
H414 C379 0.949 1_455 S
H415 C380 0.950 . S
H416 C384 0.951 . S
H417 C385 0.950 . S
H418 C389 0.949 . S
H419 C390 0.950 . S
H420 C394 0.950 . S
H421 C396 0.950 . S
H422 C399 0.950 . S
H423 C401 0.950 . S
C424 C425 1.443 . S
C424 N428 1.376 . S
C424 C462 1.389 . S
C425 C424 1.443 . S
C425 C426 1.340 . S
C425 H465 0.951 . S
C426 C425 1.340 . S
C426 C427 1.439 . S
C426 H466 0.950 . S
C427 C426 1.439 . S
C427 N428 1.374 . S
C427 C461 1.395 . S
N428 C424 1.376 . S
N428 C427 1.374 . S
N428 Co429 2.008 . S
Co429 N428 2.008 . S
Co429 N430 1.995 . S
Co429 N435 2.008 . S
Co429 N440 1.995 . S
Co429 N445 2.282 . S
Co429 N451 2.282 . S
N430 Co429 1.995 . S
N430 C431 1.376 . S
N430 C434 1.383 . S
C431 N430 1.376 . S
C431 C432 1.446 . S
C431 C461 1.391 . S
C432 C431 1.446 . S
C432 C433 1.339 . S
C432 H467 0.949 . S
C433 C432 1.339 . S
C433 C434 1.439 . S
C433 H468 0.950 . S
C434 N430 1.383 . S
C434 C433 1.439 . S
C434 C463 1.392 . S
N435 Co429 2.008 . S
N435 C436 1.376 . S
N435 C439 1.374 . S
C436 N435 1.376 . S
C436 C437 1.443 . S
C436 C463 1.389 . S
C437 C436 1.443 . S
C437 C438 1.340 1_655 S
C437 H469 0.951 . S
C438 C437 1.340 1_455 S
C438 C439 1.439 1_455 S
C438 H470 0.950 . S
C439 N435 1.374 . S
C439 C438 1.439 1_655 S
C439 C464 1.395 . S
N440 Co429 1.995 . S
N440 C441 1.376 . S
N440 C444 1.383 . S
C441 N440 1.376 . S
C441 C442 1.446 . S
C441 C464 1.391 . S
C442 C441 1.446 . S
C442 C443 1.339 . S
C442 H471 0.949 . S
C443 C442 1.339 . S
C443 C444 1.439 . S
C443 H472 0.950 . S
C444 N440 1.383 . S
C444 C443 1.439 . S
C444 C462 1.392 . S
N445 Co429 2.282 . S
N445 C448 1.332 . S
N445 C450 1.332 . S
C446 C447 1.386 . S
C446 C449 1.388 1_455 S
C447 C446 1.386 . S
C447 C448 1.382 1_455 S
C447 H473 0.950 . S
C448 N445 1.332 . S
C448 C447 1.382 1_655 S
C448 H459 0.952 . S
C449 C446 1.388 1_655 S
C449 C450 1.382 . S
C449 H474 0.950 . S
C450 N445 1.332 . S
C450 C449 1.382 . S
C450 H460 0.948 . S
N451 Co429 2.282 . S
N451 C455 1.332 . S
N451 C456 1.332 . S
C452 C453 1.388 . S
C452 C456 1.382 . S
C452 H475 0.950 . S
C453 C452 1.388 . S
C453 C454 1.386 . S
C454 C453 1.386 . S
C454 C455 1.382 . S
C454 H476 0.950 . S
C455 N451 1.332 . S
C455 C454 1.382 . S
C455 H457 0.952 . S
C456 N451 1.332 . S
C456 C452 1.382 . S
C456 H458 0.948 . S
H457 C455 0.952 . S
H458 C456 0.948 . S
H459 C448 0.952 . S
H460 C450 0.948 . S
C461 C427 1.395 . S
C461 C431 1.391 . S
C462 C424 1.389 . S
C462 C444 1.392 . S
C463 C434 1.392 . S
C463 C436 1.389 . S
C464 C439 1.395 . S
C464 C441 1.391 . S
H465 C425 0.951 . S
H466 C426 0.950 . S
H467 C432 0.949 . S
H468 C433 0.950 . S
H469 C437 0.951 . S
H470 C438 0.950 . S
H471 C442 0.949 . S
H472 C443 0.950 . S
H473 C447 0.950 . S
H474 C449 0.950 . S
H475 C452 0.950 . S
H476 C454 0.950 . S
C477 C478 1.443 . S
C477 N481 1.376 . S
C477 C515 1.389 . S
C478 C477 1.443 . S
C478 C479 1.340 . S
C478 H518 0.951 . S
C479 C478 1.340 . S
C479 C480 1.439 . S
C479 H519 0.950 . S
C480 C479 1.439 . S
C480 N481 1.374 . S
C480 C514 1.395 . S
N481 C477 1.376 . S
N481 C480 1.374 . S
N481 Co482 2.008 . S
Co482 N481 2.008 . S
Co482 N483 1.995 . S
Co482 N488 2.008 . S
Co482 N493 1.995 . S
Co482 N498 2.282 . S
Co482 N504 2.282 . S
N483 Co482 1.995 . S
N483 C484 1.376 . S
N483 C487 1.383 . S
C484 N483 1.376 . S
C484 C485 1.446 . S
C484 C514 1.391 . S
C485 C484 1.446 . S
C485 C486 1.339 . S
C485 H520 0.949 . S
C486 C485 1.339 . S
C486 C487 1.439 . S
C486 H521 0.950 . S
C487 N483 1.383 . S
C487 C486 1.439 . S
C487 C516 1.392 . S
N488 Co482 2.008 . S
N488 C489 1.376 . S
N488 C492 1.374 . S
C489 N488 1.376 . S
C489 C490 1.443 . S
C489 C516 1.389 . S
C490 C489 1.443 . S
C490 C491 1.340 1_565 S
C490 H522 0.951 . S
C491 C490 1.340 1_545 S
C491 C492 1.439 1_545 S
C491 H523 0.950 . S
C492 N488 1.374 . S
C492 C491 1.439 1_565 S
C492 C517 1.395 . S
N493 Co482 1.995 . S
N493 C494 1.376 . S
N493 C497 1.383 . S
C494 N493 1.376 . S
C494 C495 1.446 . S
C494 C517 1.391 . S
C495 C494 1.446 . S
C495 C496 1.339 . S
C495 H524 0.949 . S
C496 C495 1.339 . S
C496 C497 1.439 . S
C496 H525 0.950 . S
C497 N493 1.383 . S
C497 C496 1.439 . S
C497 C515 1.392 . S
N498 Co482 2.282 . S
N498 C501 1.332 . S
N498 C503 1.332 . S
C499 C500 1.386 . S
C499 C502 1.388 1_545 S
C500 C499 1.386 . S
C500 C501 1.382 1_545 S
C500 H526 0.950 . S
C501 N498 1.332 . S
C501 C500 1.382 1_565 S
C501 H512 0.952 . S
C502 C499 1.388 1_565 S
C502 C503 1.382 . S
C502 H527 0.950 . S
C503 N498 1.332 . S
C503 C502 1.382 . S
C503 H513 0.948 . S
N504 Co482 2.282 . S
N504 C508 1.332 . S
N504 C509 1.332 . S
C505 C506 1.388 . S
C505 C509 1.382 . S
C505 H528 0.950 . S
C506 C505 1.388 . S
C506 C507 1.386 . S
C507 C506 1.386 . S
C507 C508 1.382 . S
C507 H529 0.950 . S
C508 N504 1.332 . S
C508 C507 1.382 . S
C508 H510 0.952 . S
C509 N504 1.332 . S
C509 C505 1.382 . S
C509 H511 0.948 . S
H510 C508 0.952 . S
H511 C509 0.948 . S
H512 C501 0.952 . S
H513 C503 0.948 . S
C514 C480 1.395 . S
C514 C484 1.391 . S
C515 C477 1.389 . S
C515 C497 1.392 . S
C516 C487 1.392 . S
C516 C489 1.389 . S
C517 C492 1.395 . S
C517 C494 1.391 . S
H518 C478 0.951 . S
H519 C479 0.950 . S
H520 C485 0.949 . S
H521 C486 0.950 . S
H522 C490 0.951 . S
H523 C491 0.950 . S
H524 C495 0.949 . S
H525 C496 0.950 . S
H526 C500 0.950 . S
H527 C502 0.950 . S
H528 C505 0.950 . S
H529 C507 0.950 . S
C530 C531 1.443 . S
C530 N534 1.376 . S
C530 C568 1.389 . S
C531 C530 1.443 . S
C531 C532 1.340 . S
C531 H571 0.951 . S
C532 C531 1.340 . S
C532 C533 1.439 . S
C532 H572 0.950 . S
C533 C532 1.439 . S
C533 N534 1.374 . S
C533 C567 1.395 . S
N534 C530 1.376 . S
N534 C533 1.374 . S
N534 Co535 2.008 . S
Co535 N534 2.008 . S
Co535 N536 1.995 . S
Co535 N541 2.008 . S
Co535 N546 1.995 . S
Co535 N551 2.282 . S
Co535 N557 2.282 . S
N536 Co535 1.995 . S
N536 C537 1.376 . S
N536 C540 1.383 . S
C537 N536 1.376 . S
C537 C538 1.446 . S
C537 C567 1.391 . S
C538 C537 1.446 . S
C538 C539 1.339 . S
C538 H573 0.949 . S
C539 C538 1.339 . S
C539 C540 1.439 . S
C539 H574 0.950 . S
C540 N536 1.383 . S
C540 C539 1.439 . S
C540 C569 1.392 . S
N541 Co535 2.008 . S
N541 C542 1.376 . S
N541 C545 1.374 . S
C542 N541 1.376 . S
C542 C543 1.443 . S
C542 C569 1.389 . S
C543 C542 1.443 . S
C543 C544 1.340 . S
C543 H575 0.951 . S
C544 C543 1.340 . S
C544 C545 1.439 . S
C544 H576 0.950 . S
C545 N541 1.374 . S
C545 C544 1.439 . S
C545 C570 1.395 . S
N546 Co535 1.995 . S
N546 C547 1.376 . S
N546 C550 1.383 . S
C547 N546 1.376 . S
C547 C548 1.446 . S
C547 C570 1.391 . S
C548 C547 1.446 . S
C548 C549 1.339 . S
C548 H577 0.949 . S
C549 C548 1.339 . S
C549 C550 1.439 . S
C549 H578 0.950 . S
C550 N546 1.383 . S
C550 C549 1.439 . S
C550 C568 1.392 . S
N551 Co535 2.282 . S
N551 C554 1.332 . S
N551 C556 1.332 . S
C552 C553 1.386 . S
C552 C555 1.388 . S
C553 C552 1.386 . S
C553 C554 1.382 . S
C553 H579 0.950 . S
C554 N551 1.332 . S
C554 C553 1.382 . S
C554 H565 0.952 . S
C555 C552 1.388 . S
C555 C556 1.382 . S
C555 H580 0.950 . S
C556 N551 1.332 . S
C556 C555 1.382 . S
C556 H566 0.948 . S
N557 Co535 2.282 . S
N557 C561 1.332 . S
N557 C562 1.332 . S
C558 C559 1.388 . S
C558 C562 1.382 . S
C558 H581 0.950 . S
C559 C558 1.388 . S
C559 C560 1.386 . S
C560 C559 1.386 . S
C560 C561 1.382 . S
C560 H582 0.950 . S
C561 N557 1.332 . S
C561 C560 1.382 . S
C561 H563 0.952 . S
C562 N557 1.332 . S
C562 C558 1.382 . S
C562 H564 0.948 . S
H563 C561 0.952 . S
H564 C562 0.948 . S
H565 C554 0.952 . S
H566 C556 0.948 . S
C567 C533 1.395 . S
C567 C537 1.391 . S
C568 C530 1.389 . S
C568 C550 1.392 . S
C569 C540 1.392 . S
C569 C542 1.389 . S
C570 C545 1.395 . S
C570 C547 1.391 . S
H571 C531 0.951 . S
H572 C532 0.950 . S
H573 C538 0.949 . S
H574 C539 0.950 . S
H575 C543 0.951 . S
H576 C544 0.950 . S
H577 C548 0.949 . S
H578 C549 0.950 . S
H579 C553 0.950 . S
H580 C555 0.950 . S
H581 C558 0.950 . S
H582 C560 0.950 . S
C583 C584 1.443 . S
C583 N587 1.376 . S
C583 C621 1.389 . S
C584 C583 1.443 . S
C584 C585 1.340 . S
C584 H624 0.951 . S
C585 C584 1.340 . S
C585 C586 1.439 . S
C585 H625 0.950 . S
C586 C585 1.439 . S
C586 N587 1.374 . S
C586 C620 1.395 . S
N587 C583 1.376 . S
N587 C586 1.374 . S
N587 Co588 2.008 . S
Co588 N587 2.008 . S
Co588 N589 1.995 . S
Co588 N594 2.008 . S
Co588 N599 1.995 . S
Co588 N604 2.282 . S
Co588 N610 2.282 . S
N589 Co588 1.995 . S
N589 C590 1.376 . S
N589 C593 1.383 . S
C590 N589 1.376 . S
C590 C591 1.446 . S
C590 C620 1.391 . S
C591 C590 1.446 . S
C591 C592 1.339 . S
C591 H626 0.949 . S
C592 C591 1.339 . S
C592 C593 1.439 . S
C592 H627 0.950 . S
C593 N589 1.383 . S
C593 C592 1.439 . S
C593 C622 1.392 . S
N594 Co588 2.008 . S
N594 C595 1.376 . S
N594 C598 1.374 . S
C595 N594 1.376 . S
C595 C596 1.443 . S
C595 C622 1.389 . S
C596 C595 1.443 . S
C596 C597 1.340 . S
C596 H628 0.951 . S
C597 C596 1.340 . S
C597 C598 1.439 . S
C597 H629 0.950 . S
C598 N594 1.374 . S
C598 C597 1.439 . S
C598 C623 1.395 . S
N599 Co588 1.995 . S
N599 C600 1.376 . S
N599 C603 1.383 . S
C600 N599 1.376 . S
C600 C601 1.446 . S
C600 C623 1.391 . S
C601 C600 1.446 . S
C601 C602 1.339 . S
C601 H630 0.949 . S
C602 C601 1.339 . S
C602 C603 1.439 . S
C602 H631 0.950 . S
C603 N599 1.383 . S
C603 C602 1.439 . S
C603 C621 1.392 . S
N604 Co588 2.282 . S
N604 C607 1.332 . S
N604 C609 1.332 . S
C605 C606 1.386 . S
C605 C608 1.388 . S
C606 C605 1.386 . S
C606 C607 1.382 . S
C606 H632 0.950 . S
C607 N604 1.332 . S
C607 C606 1.382 . S
C607 H618 0.952 . S
C608 C605 1.388 . S
C608 C609 1.382 . S
C608 H633 0.950 . S
C609 N604 1.332 . S
C609 C608 1.382 . S
C609 H619 0.948 . S
N610 Co588 2.282 . S
N610 C614 1.332 . S
N610 C615 1.332 . S
C611 C612 1.388 . S
C611 C615 1.382 . S
C611 H634 0.950 . S
C612 C611 1.388 . S
C612 C613 1.386 . S
C613 C612 1.386 . S
C613 C614 1.382 . S
C613 H635 0.950 . S
C614 N610 1.332 . S
C614 C613 1.382 . S
C614 H616 0.952 . S
C615 N610 1.332 . S
C615 C611 1.382 . S
C615 H617 0.948 . S
H616 C614 0.952 . S
H617 C615 0.948 . S
H618 C607 0.952 . S
H619 C609 0.948 . S
C620 C586 1.395 . S
C620 C590 1.391 . S
C621 C583 1.389 . S
C621 C603 1.392 . S
C622 C593 1.392 . S
C622 C595 1.389 . S
C623 C598 1.395 . S
C623 C600 1.391 . S
H624 C584 0.951 . S
H625 C585 0.950 . S
H626 C591 0.949 . S
H627 C592 0.950 . S
H628 C596 0.951 . S
H629 C597 0.950 . S
H630 C601 0.949 . S
H631 C602 0.950 . S
H632 C606 0.950 . S
H633 C608 0.950 . S
H634 C611 0.950 . S
H635 C613 0.950 . S
C636 C637 1.443 . S
C636 N640 1.376 . S
C636 C674 1.389 . S
C637 C636 1.443 . S
C637 C638 1.340 . S
C637 H677 0.951 . S
C638 C637 1.340 . S
C638 C639 1.439 . S
C638 H678 0.950 . S
C639 C638 1.439 . S
C639 N640 1.374 . S
C639 C673 1.395 . S
N640 C636 1.376 . S
N640 C639 1.374 . S
N640 Co641 2.008 . S
Co641 N640 2.008 . S
Co641 N642 1.995 . S
Co641 N647 2.008 . S
Co641 N652 1.995 . S
Co641 N657 2.282 . S
Co641 N663 2.282 . S
N642 Co641 1.995 . S
N642 C643 1.376 . S
N642 C646 1.383 . S
C643 N642 1.376 . S
C643 C644 1.446 . S
C643 C673 1.391 . S
C644 C643 1.446 . S
C644 C645 1.339 . S
C644 H679 0.949 . S
C645 C644 1.339 . S
C645 C646 1.439 . S
C645 H680 0.950 . S
C646 N642 1.383 . S
C646 C645 1.439 . S
C646 C675 1.392 . S
N647 Co641 2.008 . S
N647 C648 1.376 . S
N647 C651 1.374 . S
C648 N647 1.376 . S
C648 C649 1.443 . S
C648 C675 1.389 . S
C649 C648 1.443 . S
C649 C650 1.340 1_655 S
C649 H681 0.951 . S
C650 C649 1.340 1_455 S
C650 C651 1.439 1_455 S
C650 H682 0.950 . S
C651 N647 1.374 . S
C651 C650 1.439 1_655 S
C651 C676 1.395 . S
N652 Co641 1.995 . S
N652 C653 1.376 . S
N652 C656 1.383 . S
C653 N652 1.376 . S
C653 C654 1.446 . S
C653 C676 1.391 . S
C654 C653 1.446 . S
C654 C655 1.339 . S
C654 H683 0.949 . S
C655 C654 1.339 . S
C655 C656 1.439 . S
C655 H684 0.950 . S
C656 N652 1.383 . S
C656 C655 1.439 . S
C656 C674 1.392 . S
N657 Co641 2.282 . S
N657 C660 1.332 . S
N657 C662 1.332 . S
C658 C659 1.386 . S
C658 C661 1.388 1_455 S
C659 C658 1.386 . S
C659 C660 1.382 1_455 S
C659 H685 0.950 . S
C660 N657 1.332 . S
C660 C659 1.382 1_655 S
C660 H671 0.952 . S
C661 C658 1.388 1_655 S
C661 C662 1.382 . S
C661 H686 0.950 . S
C662 N657 1.332 . S
C662 C661 1.382 . S
C662 H672 0.948 . S
N663 Co641 2.282 . S
N663 C667 1.332 . S
N663 C668 1.332 . S
C664 C665 1.388 . S
C664 C668 1.382 . S
C664 H687 0.950 . S
C665 C664 1.388 . S
C665 C666 1.386 . S
C666 C665 1.386 . S
C666 C667 1.382 . S
C666 H688 0.950 . S
C667 N663 1.332 . S
C667 C666 1.382 . S
C667 H669 0.952 . S
C668 N663 1.332 . S
C668 C664 1.382 . S
C668 H670 0.948 . S
H669 C667 0.952 . S
H670 C668 0.948 . S
H671 C660 0.952 . S
H672 C662 0.948 . S
C673 C639 1.395 . S
C673 C643 1.391 . S
C674 C636 1.389 . S
C674 C656 1.392 . S
C675 C646 1.392 . S
C675 C648 1.389 . S
C676 C651 1.395 . S
C676 C653 1.391 . S
H677 C637 0.951 . S
H678 C638 0.950 . S
H679 C644 0.949 . S
H680 C645 0.950 . S
H681 C649 0.951 . S
H682 C650 0.950 . S
H683 C654 0.949 . S
H684 C655 0.950 . S
H685 C659 0.950 . S
H686 C661 0.950 . S
H687 C664 0.950 . S
H688 C666 0.950 . S
C689 C690 1.443 . S
C689 N693 1.376 . S
C689 C727 1.389 . S
C690 C689 1.443 . S
C690 C691 1.340 . S
C690 H730 0.951 . S
C691 C690 1.340 . S
C691 C692 1.439 . S
C691 H731 0.950 . S
C692 C691 1.439 . S
C692 N693 1.374 . S
C692 C726 1.395 . S
N693 C689 1.376 . S
N693 C692 1.374 . S
N693 Co694 2.008 . S
Co694 N693 2.008 . S
Co694 N695 1.995 . S
Co694 N700 2.008 . S
Co694 N705 1.995 . S
Co694 N710 2.282 . S
Co694 N716 2.282 . S
N695 Co694 1.995 . S
N695 C696 1.376 . S
N695 C699 1.383 . S
C696 N695 1.376 . S
C696 C697 1.446 . S
C696 C726 1.391 . S
C697 C696 1.446 . S
C697 C698 1.339 . S
C697 H732 0.949 . S
C698 C697 1.339 . S
C698 C699 1.439 . S
C698 H733 0.950 . S
C699 N695 1.383 . S
C699 C698 1.439 . S
C699 C728 1.392 . S
N700 Co694 2.008 . S
N700 C701 1.376 . S
N700 C704 1.374 . S
C701 N700 1.376 . S
C701 C702 1.443 . S
C701 C728 1.389 . S
C702 C701 1.443 . S
C702 C703 1.340 1_565 S
C702 H734 0.951 . S
C703 C702 1.340 1_545 S
C703 C704 1.439 1_545 S
C703 H735 0.950 . S
C704 N700 1.374 . S
C704 C703 1.439 1_565 S
C704 C729 1.395 . S
N705 Co694 1.995 . S
N705 C706 1.376 . S
N705 C709 1.383 . S
C706 N705 1.376 . S
C706 C707 1.446 . S
C706 C729 1.391 . S
C707 C706 1.446 . S
C707 C708 1.339 . S
C707 H736 0.949 . S
C708 C707 1.339 . S
C708 C709 1.439 . S
C708 H737 0.950 . S
C709 N705 1.383 . S
C709 C708 1.439 . S
C709 C727 1.392 . S
N710 Co694 2.282 . S
N710 C713 1.332 . S
N710 C715 1.332 . S
C711 C712 1.386 . S
C711 C714 1.388 1_545 S
C712 C711 1.386 . S
C712 C713 1.382 1_545 S
C712 H738 0.950 . S
C713 N710 1.332 . S
C713 C712 1.382 1_565 S
C713 H724 0.952 . S
C714 C711 1.388 1_565 S
C714 C715 1.382 . S
C714 H739 0.950 . S
C715 N710 1.332 . S
C715 C714 1.382 . S
C715 H725 0.948 . S
N716 Co694 2.282 . S
N716 C720 1.332 . S
N716 C721 1.332 . S
C717 C718 1.388 . S
C717 C721 1.382 . S
C717 H740 0.950 . S
C718 C717 1.388 . S
C718 C719 1.386 . S
C719 C718 1.386 . S
C719 C720 1.382 . S
C719 H741 0.950 . S
C720 N716 1.332 . S
C720 C719 1.382 . S
C720 H722 0.952 . S
C721 N716 1.332 . S
C721 C717 1.382 . S
C721 H723 0.948 . S
H722 C720 0.952 . S
H723 C721 0.948 . S
H724 C713 0.952 . S
H725 C715 0.948 . S
C726 C692 1.395 . S
C726 C696 1.391 . S
C727 C689 1.389 . S
C727 C709 1.392 . S
C728 C699 1.392 . S
C728 C701 1.389 . S
C729 C704 1.395 . S
C729 C706 1.391 . S
H730 C690 0.951 . S
H731 C691 0.950 . S
H732 C697 0.949 . S
H733 C698 0.950 . S
H734 C702 0.951 . S
H735 C703 0.950 . S
H736 C707 0.949 . S
H737 C708 0.950 . S
H738 C712 0.950 . S
H739 C714 0.950 . S
H740 C717 0.950 . S
H741 C719 0.950 . S
C742 C743 1.443 . S
C742 N746 1.376 . S
C742 C780 1.389 . S
C743 C742 1.443 . S
C743 C744 1.340 . S
C743 H783 0.951 . S
C744 C743 1.340 . S
C744 C745 1.439 . S
C744 H784 0.950 . S
C745 C744 1.439 . S
C745 N746 1.374 . S
C745 C779 1.395 . S
N746 C742 1.376 . S
N746 C745 1.374 . S
N746 Co747 2.008 . S
Co747 N746 2.008 . S
Co747 N748 1.995 . S
Co747 N753 2.008 . S
Co747 N758 1.995 . S
Co747 N763 2.282 . S
Co747 N769 2.282 . S
N748 Co747 1.995 . S
N748 C749 1.376 . S
N748 C752 1.383 . S
C749 N748 1.376 . S
C749 C750 1.446 . S
C749 C779 1.391 . S
C750 C749 1.446 . S
C750 C751 1.339 . S
C750 H785 0.949 . S
C751 C750 1.339 . S
C751 C752 1.439 . S
C751 H786 0.950 . S
C752 N748 1.383 . S
C752 C751 1.439 . S
C752 C781 1.392 . S
N753 Co747 2.008 . S
N753 C754 1.376 . S
N753 C757 1.374 . S
C754 N753 1.376 . S
C754 C755 1.443 . S
C754 C781 1.389 . S
C755 C754 1.443 . S
C755 C756 1.340 . S
C755 H787 0.951 . S
C756 C755 1.340 . S
C756 C757 1.439 . S
C756 H788 0.950 . S
C757 N753 1.374 . S
C757 C756 1.439 . S
C757 C782 1.395 . S
N758 Co747 1.995 . S
N758 C759 1.376 . S
N758 C762 1.383 . S
C759 N758 1.376 . S
C759 C760 1.446 . S
C759 C782 1.391 . S
C760 C759 1.446 . S
C760 C761 1.339 . S
C760 H789 0.949 . S
C761 C760 1.339 . S
C761 C762 1.439 . S
C761 H790 0.950 . S
C762 N758 1.383 . S
C762 C761 1.439 . S
C762 C780 1.392 . S
N763 Co747 2.282 . S
N763 C766 1.332 . S
N763 C768 1.332 . S
C764 C765 1.386 . S
C764 C767 1.388 . S
C765 C764 1.386 . S
C765 C766 1.382 . S
C765 H791 0.950 . S
C766 N763 1.332 . S
C766 C765 1.382 . S
C766 H777 0.952 . S
C767 C764 1.388 . S
C767 C768 1.382 . S
C767 H792 0.950 . S
C768 N763 1.332 . S
C768 C767 1.382 . S
C768 H778 0.948 . S
N769 Co747 2.282 . S
N769 C773 1.332 . S
N769 C774 1.332 . S
C770 C771 1.388 . S
C770 C774 1.382 . S
C770 H793 0.950 . S
C771 C770 1.388 . S
C771 C772 1.386 . S
C772 C771 1.386 . S
C772 C773 1.382 . S
C772 H794 0.950 . S
C773 N769 1.332 . S
C773 C772 1.382 . S
C773 H775 0.952 . S
C774 N769 1.332 . S
C774 C770 1.382 . S
C774 H776 0.948 . S
H775 C773 0.952 . S
H776 C774 0.948 . S
H777 C766 0.952 . S
H778 C768 0.948 . S
C779 C745 1.395 . S
C779 C749 1.391 . S
C780 C742 1.389 . S
C780 C762 1.392 . S
C781 C752 1.392 . S
C781 C754 1.389 . S
C782 C757 1.395 . S
C782 C759 1.391 . S
H783 C743 0.951 . S
H784 C744 0.950 . S
H785 C750 0.949 . S
H786 C751 0.950 . S
H787 C755 0.951 . S
H788 C756 0.950 . S
H789 C760 0.949 . S
H790 C761 0.950 . S
H791 C765 0.950 . S
H792 C767 0.950 . S
H793 C770 0.950 . S
H794 C772 0.950 . S
C795 C796 1.443 . S
C795 N799 1.376 . S
C795 C833 1.389 . S
C796 C795 1.443 . S
C796 C797 1.340 . S
C796 H836 0.951 . S
C797 C796 1.340 . S
C797 C798 1.439 . S
C797 H837 0.950 . S
C798 C797 1.439 . S
C798 N799 1.374 . S
C798 C832 1.395 . S
N799 C795 1.376 . S
N799 C798 1.374 . S
N799 Co800 2.008 . S
Co800 N799 2.008 . S
Co800 N801 1.995 . S
Co800 N806 2.008 . S
Co800 N811 1.995 . S
Co800 N816 2.282 . S
Co800 N822 2.282 . S
N801 Co800 1.995 . S
N801 C802 1.376 . S
N801 C805 1.383 . S
C802 N801 1.376 . S
C802 C803 1.446 . S
C802 C832 1.391 . S
C803 C802 1.446 . S
C803 C804 1.339 . S
C803 H838 0.949 . S
C804 C803 1.339 . S
C804 C805 1.439 . S
C804 H839 0.950 . S
C805 N801 1.383 . S
C805 C804 1.439 . S
C805 C834 1.392 . S
N806 Co800 2.008 . S
N806 C807 1.376 . S
N806 C810 1.374 . S
C807 N806 1.376 . S
C807 C808 1.443 . S
C807 C834 1.389 . S
C808 C807 1.443 . S
C808 C809 1.340 . S
C808 H840 0.951 . S
C809 C808 1.340 . S
C809 C810 1.439 . S
C809 H841 0.950 . S
C810 N806 1.374 . S
C810 C809 1.439 . S
C810 C835 1.395 . S
N811 Co800 1.995 . S
N811 C812 1.376 . S
N811 C815 1.383 . S
C812 N811 1.376 . S
C812 C813 1.446 . S
C812 C835 1.391 . S
C813 C812 1.446 . S
C813 C814 1.339 . S
C813 H842 0.949 . S
C814 C813 1.339 . S
C814 C815 1.439 . S
C814 H843 0.950 . S
C815 N811 1.383 . S
C815 C814 1.439 . S
C815 C833 1.392 . S
N816 Co800 2.282 . S
N816 C819 1.332 . S
N816 C821 1.332 . S
C817 C818 1.386 . S
C817 C820 1.388 . S
C818 C817 1.386 . S
C818 C819 1.382 . S
C818 H844 0.950 . S
C819 N816 1.332 . S
C819 C818 1.382 . S
C819 H830 0.952 . S
C820 C817 1.388 . S
C820 C821 1.382 . S
C820 H845 0.950 . S
C821 N816 1.332 . S
C821 C820 1.382 . S
C821 H831 0.948 . S
N822 Co800 2.282 . S
N822 C826 1.332 . S
N822 C827 1.332 . S
C823 C824 1.388 . S
C823 C827 1.382 . S
C823 H846 0.950 . S
C824 C823 1.388 . S
C824 C825 1.386 . S
C825 C824 1.386 . S
C825 C826 1.382 . S
C825 H847 0.950 . S
C826 N822 1.332 . S
C826 C825 1.382 . S
C826 H828 0.952 . S
C827 N822 1.332 . S
C827 C823 1.382 . S
C827 H829 0.948 . S
H828 C826 0.952 . S
H829 C827 0.948 . S
H830 C819 0.952 . S
H831 C821 0.948 . S
C832 C798 1.395 . S
C832 C802 1.391 . S
C833 C795 1.389 . S
C833 C815 1.392 . S
C834 C805 1.392 . S
C834 C807 1.389 . S
C835 C810 1.395 . S
C835 C812 1.391 . S
H836 C796 0.951 . S
H837 C797 0.950 . S
H838 C803 0.949 . S
H839 C804 0.950 . S
H840 C808 0.951 . S
H841 C809 0.950 . S
H842 C813 0.949 . S
H843 C814 0.950 . S
H844 C818 0.950 . S
H845 C820 0.950 . S
H846 C823 0.950 . S
H847 C825 0.950 . S
C848 C849 1.369 . S
C848 C850 1.419 . S
C848 H852 0.930 . S
C849 C848 1.369 . S
C849 C858 1.429 . S
C850 C848 1.419 . S
C850 C851 1.363 . S
C850 H853 0.929 . S
C851 C850 1.363 . S
C851 C857 1.428 . S
H852 C848 0.930 . S
H853 C850 0.929 . S
S854 N855 1.613 . S
S854 N856 1.610 . S
N855 S854 1.613 . S
N855 C858 1.350 . S
N856 S854 1.610 . S
N856 C857 1.351 . S
C857 C851 1.428 . S
C857 N856 1.351 . S
C857 C858 1.434 . S
C858 C849 1.429 . S
C858 N855 1.350 . S
C858 C857 1.434 . S
C859 C860 1.369 . S
C859 C861 1.419 . S
C859 H863 0.930 . S
C860 C859 1.369 . S
C860 C869 1.429 . S
C861 C859 1.419 . S
C861 C862 1.363 . S
C861 H864 0.929 . S
C862 C861 1.363 . S
C862 C868 1.428 . S
H863 C859 0.930 . S
H864 C861 0.929 . S
S865 N866 1.613 . S
S865 N867 1.610 . S
N866 S865 1.613 . S
N866 C869 1.350 . S
N867 S865 1.610 . S
N867 C868 1.351 . S
C868 C862 1.428 . S
C868 N867 1.351 . S
C868 C869 1.434 . S
C869 C860 1.429 . S
C869 N866 1.350 . S
C869 C868 1.434 . S
C870 C871 1.369 . S
C870 C872 1.419 . S
C870 H874 0.930 . S
C871 C870 1.369 . S
C871 C880 1.429 . S
C872 C870 1.419 . S
C872 C873 1.363 . S
C872 H875 0.929 . S
C873 C872 1.363 . S
C873 C879 1.428 . S
H874 C870 0.930 . S
H875 C872 0.929 . S
S876 N877 1.613 . S
S876 N878 1.610 . S
N877 S876 1.613 . S
N877 C880 1.350 . S
N878 S876 1.610 . S
N878 C879 1.351 . S
C879 C873 1.428 . S
C879 N878 1.351 . S
C879 C880 1.434 . S
C880 C871 1.429 . S
C880 N877 1.350 . S
C880 C879 1.434 . S
C881 C882 1.369 . S
C881 C883 1.419 . S
C881 H885 0.930 . S
C882 C881 1.369 . S
C882 C891 1.429 . S
C883 C881 1.419 . S
C883 C884 1.363 . S
C883 H886 0.929 . S
C884 C883 1.363 . S
C884 C890 1.428 . S
H885 C881 0.930 . S
H886 C883 0.929 . S
S887 N888 1.613 . S
S887 N889 1.610 . S
N888 S887 1.613 . S
N888 C891 1.350 . S
N889 S887 1.610 . S
N889 C890 1.351 . S
C890 C884 1.428 . S
C890 N889 1.351 . S
C890 C891 1.434 . S
C891 C882 1.429 . S
C891 N888 1.350 . S
C891 C890 1.434 . S
C892 C893 1.369 . S
C892 C894 1.419 . S
C892 H896 0.930 . S
C893 C892 1.369 . S
C893 C902 1.429 . S
C894 C892 1.419 . S
C894 C895 1.363 . S
C894 H897 0.929 . S
C895 C894 1.363 . S
C895 C901 1.428 . S
H896 C892 0.930 . S
H897 C894 0.929 . S
S898 N899 1.613 . S
S898 N900 1.610 . S
N899 S898 1.613 . S
N899 C902 1.350 . S
N900 S898 1.610 . S
N900 C901 1.351 . S
C901 C895 1.428 . S
C901 N900 1.351 . S
C901 C902 1.434 . S
C902 C893 1.429 . S
C902 N899 1.350 . S
C902 C901 1.434 . S
C903 C904 1.369 . S
C903 C905 1.419 . S
C903 H907 0.930 . S
C904 C903 1.369 . S
C904 C913 1.429 . S
C905 C903 1.419 . S
C905 C906 1.363 . S
C905 H908 0.929 . S
C906 C905 1.363 . S
C906 C912 1.428 . S
H907 C903 0.930 . S
H908 C905 0.929 . S
S909 N910 1.613 1_554 S
S909 N911 1.610 1_554 S
N910 S909 1.613 1_556 S
N910 C913 1.350 . S
N911 S909 1.610 1_556 S
N911 C912 1.351 . S
C912 C906 1.428 . S
C912 N911 1.351 . S
C912 C913 1.434 . S
C913 C904 1.429 . S
C913 N910 1.350 . S
C913 C912 1.434 . S
C914 C915 1.369 . S
C914 C916 1.419 . S
C914 H918 0.930 . S
C915 C914 1.369 . S
C915 C924 1.429 . S
C916 C914 1.419 . S
C916 C917 1.363 . S
C916 H919 0.929 . S
C917 C916 1.363 . S
C917 C923 1.428 . S
H918 C914 0.930 . S
H919 C916 0.929 . S
S920 N921 1.613 . S
S920 N922 1.610 . S
N921 S920 1.613 . S
N921 C924 1.350 . S
N922 S920 1.610 . S
N922 C923 1.351 . S
C923 C917 1.428 . S
C923 N922 1.351 . S
C923 C924 1.434 . S
C924 C915 1.429 . S
C924 N921 1.350 . S
C924 C923 1.434 . S
C925 C926 1.369 . S
C925 C927 1.419 . S
C925 H929 0.930 . S
C926 C925 1.369 . S
C926 C935 1.429 . S
C927 C925 1.419 . S
C927 C928 1.363 . S
C927 H930 0.929 . S
C928 C927 1.363 . S
C928 C934 1.428 . S
H929 C925 0.930 . S
H930 C927 0.929 . S
S931 N932 1.613 . S
S931 N933 1.610 . S
N932 S931 1.613 . S
N932 C935 1.350 . S
N933 S931 1.610 . S
N933 C934 1.351 . S
C934 C928 1.428 . S
C934 N933 1.351 . S
C934 C935 1.434 . S
C935 C926 1.429 . S
C935 N932 1.350 . S
C935 C934 1.434 . S
C936 C937 1.369 . S
C936 C938 1.419 . S
C936 H940 0.930 . S
C937 C936 1.369 . S
C937 C946 1.429 . S
C938 C936 1.419 . S
C938 C939 1.363 . S
C938 H941 0.929 . S
C939 C938 1.363 . S
C939 C945 1.428 . S
H940 C936 0.930 . S
H941 C938 0.929 . S
S942 N943 1.613 . S
S942 N944 1.610 1_655 S
N943 S942 1.613 . S
N943 C946 1.346 1_655 S
N944 S942 1.610 1_455 S
N944 C945 1.351 . S
C945 C939 1.428 . S
C945 N944 1.351 . S
C945 C946 1.438 . S
C946 C937 1.429 . S
C946 N943 1.346 1_455 S
C946 C945 1.438 . S
C947 C948 1.369 1_655 S
C947 C949 1.415 1_655 S
C947 H951 0.930 . S
C948 C947 1.369 1_455 S
C948 C957 1.429 . S
C949 C947 1.415 1_455 S
C949 C950 1.371 . S
C949 H952 0.925 1_455 S
C950 C949 1.371 . S
C950 C956 1.428 . S
H951 C947 0.930 . S
H952 C949 0.925 1_655 S
S953 N954 1.613 . S
S953 N955 1.610 1_545 S
N954 S953 1.613 . S
N954 C957 1.350 . S
N955 S953 1.610 1_565 S
N955 C956 1.351 1_565 S
C956 C950 1.428 . S
C956 N955 1.351 1_545 S
C956 C957 1.434 . S
C957 C948 1.429 . S
C957 N954 1.350 . S
C957 C956 1.434 . S
C958 C959 1.369 . S
C958 C960 1.419 1_545 S
C958 H962 0.930 1_545 S
C959 C958 1.369 . S
C959 C968 1.429 . S
C960 C958 1.419 1_565 S
C960 C961 1.363 1_565 S
C960 H963 0.929 . S
C961 C960 1.363 1_545 S
C961 C967 1.428 . S
H962 C958 0.930 1_565 S
H963 C960 0.929 . S
S964 N965 1.613 . S
S964 N966 1.610 . S
N965 S964 1.613 . S
N965 C968 1.350 . S
N966 S964 1.610 . S
N966 C967 1.351 . S
C967 C961 1.428 . S
C967 N966 1.351 . S
C967 C968 1.434 . S
C968 C959 1.429 . S
C968 N965 1.350 . S
C968 C967 1.434 . S
C969 C970 1.369 . S
C969 C971 1.419 . S
C969 H973 0.930 . S
C970 C969 1.369 . S
C970 C979 1.429 . S
C971 C969 1.419 . S
C971 C972 1.363 . S
C971 H974 0.929 . S
C972 C971 1.363 . S
C972 C978 1.428 . S
H973 C969 0.930 . S
H974 C971 0.929 . S
S975 N976 1.613 . S
S975 N977 1.610 . S
N976 S975 1.613 . S
N976 C979 1.350 . S
N977 S975 1.610 . S
N977 C978 1.351 . S
C978 C972 1.428 . S
C978 N977 1.351 . S
C978 C979 1.434 . S
C979 C970 1.429 . S
C979 N976 1.350 . S
C979 C978 1.434 . S
C980 C981 1.369 . S
C980 C982 1.419 . S
C980 H984 0.930 . S
C981 C980 1.369 . S
C981 C990 1.429 . S
C982 C980 1.419 . S
C982 C983 1.363 . S
C982 H985 0.929 . S
C983 C982 1.363 . S
C983 C989 1.428 . S
H984 C980 0.930 . S
H985 C982 0.929 . S
S986 N987 1.613 1_655 S
S986 N988 1.610 . S
N987 S986 1.613 1_455 S
N987 C990 1.350 . S
N988 S986 1.610 . S
N988 C989 1.351 1_655 S
C989 C983 1.428 . S
C989 N988 1.351 1_455 S
C989 C990 1.434 . S
C990 C981 1.429 . S
C990 N987 1.350 . S
C990 C989 1.434 . S
C991 C992 1.369 . S
C991 C993 1.419 . S
C991 H995 0.930 . S
C992 C991 1.369 . S
C992 C1001 1.443 . S
C993 C991 1.419 . S
C993 C994 1.363 . S
C993 H996 0.929 . S
C994 C993 1.363 . S
C994 C1000 1.428 . S
H995 C991 0.930 . S
H996 C993 0.929 . S
S997 N998 1.610 1_655 S
S997 N999 1.610 . S
N998 S997 1.610 1_455 S
N998 C1001 1.336 1_565 S
N999 S997 1.610 . S
N999 C1000 1.351 1_665 S
C1000 C994 1.428 . S
C1000 N999 1.351 1_445 S
C1000 C1001 1.436 . S
C1001 C992 1.443 . S
C1001 N998 1.336 1_545 S
C1001 C1000 1.436 . S
C1002 C1003 1.369 . S
C1002 C1004 1.419 1_545 S
C1002 H1006 0.930 1_545 S
C1003 C1002 1.369 . S
C1003 C1012 1.429 . S
C1004 C1002 1.419 1_565 S
C1004 C1005 1.363 1_565 S
C1004 H1007 0.929 . S
C1005 C1004 1.363 1_545 S
C1005 C1011 1.428 . S
H1006 C1002 0.930 1_565 S
H1007 C1004 0.929 . S
S1008 N1009 1.613 . S
S1008 N1010 1.610 . S
N1009 S1008 1.613 . S
N1009 C1012 1.350 . S
N1010 S1008 1.610 . S
N1010 C1011 1.351 . S
C1011 C1005 1.428 . S
C1011 N1010 1.351 . S
C1011 C1012 1.434 . S
C1012 C1003 1.429 . S
C1012 N1009 1.350 . S
C1012 C1011 1.434 . S
C1013 C1014 1.369 . S
C1013 C1015 1.419 . S
C1013 H1017 0.930 . S
C1014 C1013 1.369 . S
C1014 C1023 1.429 . S
C1015 C1013 1.419 . S
C1015 C1016 1.363 . S
C1015 H1018 0.929 . S
C1016 C1015 1.363 . S
C1016 C1022 1.428 . S
H1017 C1013 0.930 . S
H1018 C1015 0.929 . S
S1019 N1020 1.613 . S
S1019 N1021 1.610 . S
N1020 S1019 1.613 . S
N1020 C1023 1.350 . S
N1021 S1019 1.610 . S
N1021 C1022 1.351 . S
C1022 C1016 1.428 . S
C1022 N1021 1.351 . S
C1022 C1023 1.434 . S
C1023 C1014 1.429 . S
C1023 N1020 1.350 . S
C1023 C1022 1.434 . S
C1024 C1025 1.369 . S
C1024 C1026 1.419 . S
C1024 H1028 0.930 . S
C1025 C1024 1.369 . S
C1025 C1034 1.429 . S
C1026 C1024 1.419 . S
C1026 C1027 1.363 . S
C1026 H1029 0.929 . S
C1027 C1026 1.363 . S
C1027 C1033 1.428 . S
H1028 C1024 0.930 . S
H1029 C1026 0.929 . S
S1030 N1031 1.613 . S
S1030 N1032 1.610 . S
N1031 S1030 1.613 . S
N1031 C1034 1.350 . S
N1032 S1030 1.610 . S
N1032 C1033 1.351 . S
C1033 C1027 1.428 . S
C1033 N1032 1.351 . S
C1033 C1034 1.434 . S
C1034 C1025 1.429 . S
C1034 N1031 1.350 . S
C1034 C1033 1.434 . S
C1035 C1036 1.369 . S
C1035 C1037 1.419 . S
C1035 H1039 0.930 . S
C1036 C1035 1.369 . S
C1036 C1045 1.429 . S
C1037 C1035 1.419 . S
C1037 C1038 1.363 . S
C1037 H1040 0.929 . S
C1038 C1037 1.363 . S
C1038 C1044 1.428 . S
H1039 C1035 0.930 . S
H1040 C1037 0.929 . S
S1041 N1042 1.613 . S
S1041 N1043 1.610 . S
N1042 S1041 1.613 . S
N1042 C1045 1.350 . S
N1043 S1041 1.610 . S
N1043 C1044 1.351 . S
C1044 C1038 1.428 . S
C1044 N1043 1.351 . S
C1044 C1045 1.434 . S
C1045 C1036 1.429 . S
C1045 N1042 1.350 . S
C1045 C1044 1.434 . S
C1046 C1047 1.369 . S
C1046 C1048 1.419 . S
C1046 H1050 0.930 . S
C1047 C1046 1.369 . S
C1047 C1056 1.429 . S
C1048 C1046 1.419 . S
C1048 C1049 1.363 . S
C1048 H1051 0.929 . S
C1049 C1048 1.363 . S
C1049 C1055 1.428 . S
H1050 C1046 0.930 . S
H1051 C1048 0.929 . S
S1052 N1053 1.613 . S
S1052 N1054 1.610 . S
N1053 S1052 1.613 . S
N1053 C1056 1.350 . S
N1054 S1052 1.610 . S
N1054 C1055 1.351 . S
C1055 C1049 1.428 . S
C1055 N1054 1.351 . S
C1055 C1056 1.434 . S
C1056 C1047 1.429 . S
C1056 N1053 1.350 . S
C1056 C1055 1.434 . S
C1057 C1058 1.369 . S
C1057 C1059 1.419 . S
C1057 H1061 0.930 . S
C1058 C1057 1.369 . S
C1058 C1067 1.429 . S
C1059 C1057 1.419 . S
C1059 C1060 1.363 . S
C1059 H1062 0.929 . S
C1060 C1059 1.363 . S
C1060 C1066 1.428 . S
H1061 C1057 0.930 . S
H1062 C1059 0.929 . S
S1063 N1064 1.613 . S
S1063 N1065 1.610 . S
N1064 S1063 1.613 . S
N1064 C1067 1.350 . S
N1065 S1063 1.610 . S
N1065 C1066 1.351 . S
C1066 C1060 1.428 . S
C1066 N1065 1.351 . S
C1066 C1067 1.434 . S
C1067 C1058 1.429 . S
C1067 N1064 1.350 . S
C1067 C1066 1.434 . S
C1068 C1069 1.369 . S
C1068 C1070 1.419 . S
C1068 H1072 0.930 . S
C1069 C1068 1.369 . S
C1069 C1078 1.429 . S
C1070 C1068 1.419 . S
C1070 C1071 1.363 . S
C1070 H1073 0.929 . S
C1071 C1070 1.363 . S
C1071 C1077 1.428 . S
H1072 C1068 0.930 . S
H1073 C1070 0.929 . S
S1074 N1075 1.613 . S
S1074 N1076 1.610 . S
N1075 S1074 1.613 . S
N1075 C1078 1.350 . S
N1076 S1074 1.610 . S
N1076 C1077 1.351 . S
C1077 C1071 1.428 . S
C1077 N1076 1.351 . S
C1077 C1078 1.434 . S
C1078 C1069 1.429 . S
C1078 N1075 1.350 . S
C1078 C1077 1.434 . S
C1079 C1080 1.369 . S
C1079 C1081 1.419 . S
C1079 H1083 0.930 . S
C1080 C1079 1.369 . S
C1080 C1089 1.429 . S
C1081 C1079 1.419 . S
C1081 C1082 1.363 . S
C1081 H1084 0.929 . S
C1082 C1081 1.363 . S
C1082 C1088 1.428 . S
H1083 C1079 0.930 . S
H1084 C1081 0.929 . S
S1085 N1086 1.613 . S
S1085 N1087 1.610 . S
N1086 S1085 1.613 . S
N1086 C1089 1.350 . S
N1087 S1085 1.610 . S
N1087 C1088 1.351 . S
C1088 C1082 1.428 . S
C1088 N1087 1.351 . S
C1088 C1089 1.434 . S
C1089 C1080 1.429 . S
C1089 N1086 1.350 . S
C1089 C1088 1.434 . S
C1090 C1091 1.369 . S
C1090 C1092 1.419 . S
C1090 H1094 0.930 . S
C1091 C1090 1.369 . S
C1091 C1100 1.429 . S
C1092 C1090 1.419 . S
C1092 C1093 1.363 . S
C1092 H1095 0.929 . S
C1093 C1092 1.363 . S
C1093 C1099 1.428 . S
H1094 C1090 0.930 . S
H1095 C1092 0.929 . S
S1096 N1097 1.613 . S
S1096 N1098 1.610 . S
N1097 S1096 1.613 . S
N1097 C1100 1.350 . S
N1098 S1096 1.610 . S
N1098 C1099 1.351 . S
C1099 C1093 1.428 . S
C1099 N1098 1.351 . S
C1099 C1100 1.434 . S
C1100 C1091 1.429 . S
C1100 N1097 1.350 . S
C1100 C1099 1.434 . S
C1101 C1102 1.369 . S
C1101 C1103 1.419 . S
C1101 H1105 0.930 . S
C1102 C1101 1.369 . S
C1102 C1111 1.429 . S
C1103 C1101 1.419 . S
C1103 C1104 1.363 . S
C1103 H1106 0.929 . S
C1104 C1103 1.363 . S
C1104 C1110 1.428 . S
H1105 C1101 0.930 . S
H1106 C1103 0.929 . S
S1107 N1108 1.613 . S
S1107 N1109 1.610 . S
N1108 S1107 1.613 . S
N1108 C1111 1.350 . S
N1109 S1107 1.610 . S
N1109 C1110 1.351 . S
C1110 C1104 1.428 . S
C1110 N1109 1.351 . S
C1110 C1111 1.434 . S
C1111 C1102 1.429 . S
C1111 N1108 1.350 . S
C1111 C1110 1.434 . S
C1112 C1113 1.371 . S
C1112 C1114 1.419 1_454 S
C1112 H1116 0.930 . S
C1113 C1112 1.371 . S
C1113 C1122 1.420 1_554 S
C1114 C1112 1.419 1_656 S
C1114 C1115 1.363 . S
C1114 H1117 0.929 . S
C1115 C1114 1.363 . S
C1115 C1121 1.428 1_655 S
H1116 C1112 0.930 . S
H1117 C1114 0.929 . S
S1118 N1119 1.613 . S
S1118 N1120 1.610 . S
N1119 S1118 1.613 . S
N1119 C1122 1.350 . S
N1120 S1118 1.610 . S
N1120 C1121 1.351 . S
C1121 C1115 1.428 1_455 S
C1121 N1120 1.351 . S
C1121 C1122 1.434 . S
C1122 C1113 1.420 1_556 S
C1122 N1119 1.350 . S
C1122 C1121 1.434 . S
C1123 C1124 1.369 1_545 S
C1123 C1125 1.419 . S
C1123 H1127 0.930 1_545 S
C1124 C1123 1.369 1_565 S
C1124 C1133 1.411 1_556 S
C1125 C1123 1.419 . S
C1125 C1126 1.363 1_556 S
C1125 H1128 0.929 1_455 S
C1126 C1125 1.363 1_554 S
C1126 C1132 1.428 . S
H1127 C1123 0.930 1_565 S
H1128 C1125 0.929 1_655 S
S1129 N1130 1.613 1_545 S
S1129 N1131 1.610 . S
N1130 S1129 1.613 1_565 S
N1130 C1133 1.361 . S
N1131 S1129 1.610 . S
N1131 C1132 1.351 . S
C1132 C1126 1.428 . S
C1132 N1131 1.351 . S
C1132 C1133 1.443 1_545 S
C1133 C1124 1.411 1_554 S
C1133 N1130 1.361 . S
C1133 C1132 1.443 1_565 S
C1134 C1135 1.376 . S
C1134 C1136 1.419 . S
C1134 H1138 0.930 . S
C1135 C1134 1.376 . S
C1135 C1144 1.417 1_554 S
C1136 C1134 1.419 . S
C1136 C1137 1.363 1_554 S
C1136 H1139 0.929 . S
C1137 C1136 1.363 1_556 S
C1137 C1143 1.428 . S
H1138 C1134 0.930 . S
H1139 C1136 0.929 . S
S1140 N1141 1.613 . S
S1140 N1142 1.610 . S
N1141 S1140 1.613 . S
N1141 C1144 1.350 . S
N1142 S1140 1.610 . S
N1142 C1143 1.351 . S
C1143 C1137 1.428 . S
C1143 N1142 1.351 . S
C1143 C1144 1.434 . S
C1144 C1135 1.417 1_556 S
C1144 N1141 1.350 . S
C1144 C1143 1.434 . S
C1145 C1146 1.369 . S
C1145 C1147 1.419 . S
C1145 H1149 0.930 . S
C1146 C1145 1.369 . S
C1146 C1155 1.429 1_556 S
C1147 C1145 1.419 . S
C1147 C1148 1.363 1_556 S
C1147 H1150 0.929 . S
C1148 C1147 1.363 1_554 S
C1148 C1154 1.428 . S
H1149 C1145 0.930 . S
H1150 C1147 0.929 . S
S1151 N1152 1.613 . S
S1151 N1153 1.610 . S
N1152 S1151 1.613 . S
N1152 C1155 1.350 . S
N1153 S1151 1.610 . S
N1153 C1154 1.351 . S
C1154 C1148 1.428 . S
C1154 N1153 1.351 . S
C1154 C1155 1.434 . S
C1155 C1146 1.429 1_554 S
C1155 N1152 1.350 . S
C1155 C1154 1.434 . S
C1156 C1157 1.382 . S
C1156 C1158 1.424 1_455 S
C1156 H1160 0.911 1_545 S
C1157 C1156 1.382 . S
C1157 C1166 1.429 . S
C1158 C1156 1.424 1_655 S
C1158 C1159 1.363 . S
C1158 H1161 0.929 1_545 S
C1159 C1158 1.363 . S
C1159 C1165 1.428 1_655 S
H1160 C1156 0.911 1_565 S
H1161 C1158 0.929 1_565 S
S1162 N1163 1.613 . S
S1162 N1164 1.610 . S
N1163 S1162 1.613 . S
N1163 C1166 1.350 . S
N1164 S1162 1.610 . S
N1164 C1165 1.351 . S
C1165 C1159 1.428 1_455 S
C1165 N1164 1.351 . S
C1165 C1166 1.434 . S
C1166 C1157 1.429 . S
C1166 N1163 1.350 . S
C1166 C1165 1.434 . S
C1167 C1168 1.369 . S
C1167 C1169 1.419 1_545 S
C1167 H1171 0.930 . S
C1168 C1167 1.369 . S
C1168 C1177 1.429 . S
C1169 C1167 1.419 1_565 S
C1169 C1170 1.363 . S
C1169 H1172 0.929 . S
C1170 C1169 1.363 . S
C1170 C1176 1.428 1_565 S
H1171 C1167 0.930 . S
H1172 C1169 0.929 . S
S1173 N1174 1.613 . S
S1173 N1175 1.610 . S
N1174 S1173 1.613 . S
N1174 C1177 1.350 . S
N1175 S1173 1.610 . S
N1175 C1176 1.351 . S
C1176 C1170 1.428 1_545 S
C1176 N1175 1.351 . S
C1176 C1177 1.434 . S
C1177 C1168 1.429 . S
C1177 N1174 1.350 . S
C1177 C1176 1.434 . S
C1178 C1179 1.369 . S
C1178 C1180 1.419 . S
C1178 H1182 0.930 . S
C1179 C1178 1.369 . S
C1179 C1188 1.429 . S
C1180 C1178 1.419 . S
C1180 C1181 1.363 . S
C1180 H1183 0.929 . S
C1181 C1180 1.363 . S
C1181 C1187 1.428 . S
H1182 C1178 0.930 . S
H1183 C1180 0.929 . S
S1184 N1185 1.613 . S
S1184 N1186 1.610 . S
N1185 S1184 1.613 . S
N1185 C1188 1.350 . S
N1186 S1184 1.610 . S
N1186 C1187 1.351 . S
C1187 C1181 1.428 . S
C1187 N1186 1.351 . S
C1187 C1188 1.434 . S
C1188 C1179 1.429 . S
C1188 N1185 1.350 . S
C1188 C1187 1.434 . S
C1189 C1190 1.369 . S
C1189 C1191 1.419 . S
C1189 H1193 0.930 1_455 S
C1190 C1189 1.369 . S
C1190 C1199 1.429 . S
C1191 C1189 1.419 . S
C1191 C1192 1.363 . S
C1191 H1194 0.929 1_455 S
C1192 C1191 1.363 . S
C1192 C1198 1.428 . S
H1193 C1189 0.930 1_655 S
H1194 C1191 0.929 1_655 S
S1195 N1196 1.613 . S
S1195 N1197 1.610 . S
N1196 S1195 1.613 . S
N1196 C1199 1.350 . S
N1197 S1195 1.610 . S
N1197 C1198 1.351 . S
C1198 C1192 1.428 . S
C1198 N1197 1.351 . S
C1198 C1199 1.434 . S
C1199 C1190 1.429 . S
C1199 N1196 1.350 . S
C1199 C1198 1.434 . S
C849 C38 2.611 . S
C851 C144 2.612 . S
C860 C91 2.611 . S
C862 C197 2.611 . S
C871 C250 2.613 . S
C873 C356 2.612 . S
C882 C409 2.614 . S
C884 C303 2.614 . S
C893 C453 1.174 . S
C895 C559 1.175 . S
C904 C612 1.175 . S
C906 C506 1.175 . S
C915 C771 1.173 . S
C917 C665 1.175 . S
C926 C824 1.171 . S
C928 C718 1.175 . S
C937 C410 2.466 1_455 S
C939 C39 2.469 . S
C948 C92 2.470 1_455 S
C950 C251 2.465 1_545 S
C959 C304 2.468 . S
C961 C145 2.467 1_545 S
C970 C198 2.470 . S
C972 C357 2.465 . S
C981 C817 1.286 . S
C983 C446 1.295 . S
C992 C499 1.286 . S
C994 C658 1.295 . S
C1003 C552 1.287 . S
C1005 C711 1.297 . S
C1014 C764 1.297 . S
C1016 C605 1.287 . S
C1025 C29 0.909 . S
C1027 C241 0.923 . S
C1036 C82 0.909 . S
C1038 C294 0.917 . S
C1047 C347 0.913 . S
C1049 C135 0.923 . S
C1058 C188 0.922 . S
C1060 C400 0.909 . S
C1069 C674 1.368 . S
C1071 C462 1.367 . S
C1080 C727 1.364 . S
C1082 C515 1.364 . S
C1091 C568 1.366 . S
C1093 C780 1.366 . S
C1102 C621 1.365 . S
C1104 C833 1.366 . S
C1113 C22 2.276 . S
C1115 C463 2.268 . S
C1124 C516 2.272 . S
C1126 C75 2.264 1_455 S
C1135 C128 2.273 1_545 S
C1137 C569 2.269 . S
C1146 C622 2.274 . S
C1148 C181 2.262 . S
C1157 C234 2.269 1_545 S
C1159 C675 2.268 . S
C1168 C287 2.264 . S
C1170 C728 2.271 . S
C1179 C781 2.272 . S
C1181 C340 2.264 . S
C1190 C393 2.268 1_455 S
C1192 C834 2.268 . S
