# Generated by pormake.
# Topology fna, (5)-cn, num edge types: 1
# Building blocks:
#     Node 0, Type 0, BuildingBlock: XOMCOT_clean_sbu_0, # of connection points: 5
#     Node 1, Type 0, BuildingBlock: XOMCOT_clean_sbu_0, # of connection points: 5
#     Node 2, Type 0, BuildingBlock: XOMCOT_clean_sbu_0, # of connection points: 5
#     Node 3, Type 0, BuildingBlock: XOMCOT_clean_sbu_0, # of connection points: 5
#     Node 4, Type 0, BuildingBlock: XOMCOT_clean_sbu_0, # of connection points: 5
#     Node 5, Type 0, BuildingBlock: XOMCOT_clean_sbu_0, # of connection points: 5
#     Node 6, Type 0, BuildingBlock: XOMCOT_clean_sbu_0, # of connection points: 5
#     Node 7, Type 0, BuildingBlock: XOMCOT_clean_sbu_0, # of connection points: 5
#     Node 8, Type 0, BuildingBlock: XOMCOT_clean_sbu_0, # of connection points: 5
#     Node 9, Type 0, BuildingBlock: XOMCOT_clean_sbu_0, # of connection points: 5
#     Node 10, Type 0, BuildingBlock: XOMCOT_clean_sbu_0, # of connection points: 5
#     Node 11, Type 0, BuildingBlock: XOMCOT_clean_sbu_0, # of connection points: 5
#     Edge 12, Type (0, 0), BuildingBlock: XIVTED_clean_linker_0, # of connection points: 2
#     Edge 13, Type (0, 0), BuildingBlock: XIVTED_clean_linker_0, # of connection points: 2
#     Edge 14, Type (0, 0), BuildingBlock: XIVTED_clean_linker_0, # of connection points: 2
#     Edge 15, Type (0, 0), BuildingBlock: XIVTED_clean_linker_0, # of connection points: 2
#     Edge 16, Type (0, 0), BuildingBlock: XIVTED_clean_linker_0, # of connection points: 2
#     Edge 17, Type (0, 0), BuildingBlock: XIVTED_clean_linker_0, # of connection points: 2
#     Edge 18, Type (0, 0), BuildingBlock: XIVTED_clean_linker_0, # of connection points: 2
#     Edge 19, Type (0, 0), BuildingBlock: XIVTED_clean_linker_0, # of connection points: 2
#     Edge 20, Type (0, 0), BuildingBlock: XIVTED_clean_linker_0, # of connection points: 2
#     Edge 21, Type (0, 0), BuildingBlock: XIVTED_clean_linker_0, # of connection points: 2
#     Edge 22, Type (0, 0), BuildingBlock: XIVTED_clean_linker_0, # of connection points: 2
#     Edge 23, Type (0, 0), BuildingBlock: XIVTED_clean_linker_0, # of connection points: 2
#     Edge 24, Type (0, 0), BuildingBlock: XIVTED_clean_linker_0, # of connection points: 2
#     Edge 25, Type (0, 0), BuildingBlock: XIVTED_clean_linker_0, # of connection points: 2
#     Edge 26, Type (0, 0), BuildingBlock: XIVTED_clean_linker_0, # of connection points: 2
#     Edge 27, Type (0, 0), BuildingBlock: XIVTED_clean_linker_0, # of connection points: 2
#     Edge 28, Type (0, 0), BuildingBlock: XIVTED_clean_linker_0, # of connection points: 2
#     Edge 29, Type (0, 0), BuildingBlock: XIVTED_clean_linker_0, # of connection points: 2
#     Edge 30, Type (0, 0), BuildingBlock: XIVTED_clean_linker_0, # of connection points: 2
#     Edge 31, Type (0, 0), BuildingBlock: XIVTED_clean_linker_0, # of connection points: 2
#     Edge 32, Type (0, 0), BuildingBlock: XIVTED_clean_linker_0, # of connection points: 2
#     Edge 33, Type (0, 0), BuildingBlock: XIVTED_clean_linker_0, # of connection points: 2
#     Edge 34, Type (0, 0), BuildingBlock: XIVTED_clean_linker_0, # of connection points: 2
#     Edge 35, Type (0, 0), BuildingBlock: XIVTED_clean_linker_0, # of connection points: 2
#     Edge 36, Type (0, 0), BuildingBlock: XIVTED_clean_linker_0, # of connection points: 2
#     Edge 37, Type (0, 0), BuildingBlock: XIVTED_clean_linker_0, # of connection points: 2
#     Edge 38, Type (0, 0), BuildingBlock: XIVTED_clean_linker_0, # of connection points: 2
#     Edge 39, Type (0, 0), BuildingBlock: XIVTED_clean_linker_0, # of connection points: 2
#     Edge 40, Type (0, 0), BuildingBlock: XIVTED_clean_linker_0, # of connection points: 2
#     Edge 41, Type (0, 0), BuildingBlock: XIVTED_clean_linker_0, # of connection points: 2
# Relax obj value: 0.321
# Max RMSD: 0.211
# Mean RMSD: 0.211
data_MOF--net-fna--node1-XOMCOT_clean_sbu_0--edge1-XIVTED_clean_linker_0
_symmetry_space_group_name_H-M    P1
_symmetry_Int_Tables_number       1
_symmetry_cell_setting            triclinic
loop_
_symmetry_equiv_pos_as_xyz
'x, y, z'
_cell_length_a     45.785171
_cell_length_b     45.814647
_cell_length_c     46.306142
_cell_angle_alpha  89.90887
_cell_angle_beta   90.134096
_cell_angle_gamma 120.02034
loop_
_atom_site_label
_atom_site_type_symbol
_atom_site_fract_x
_atom_site_fract_y
_atom_site_fract_z
_atom_type_partial_charge
Co0 Co 0.33005 0.28136 0.47802 0.0
C1 C 0.31947 0.23898 0.42619 0.0
C2 C 0.27575 0.24285 0.43552 0.0
C3 C 0.2681 0.22028 0.41329 0.0
N4 N 0.30818 0.25509 0.44348 0.0
N5 N 0.29554 0.21765 0.40752 0.0
H6 H 0.34372 0.24062 0.42872 0.0
H7 H 0.25778 0.24771 0.44631 0.0
C8 C 0.2797 0.30751 0.46979 0.0
O9 O 0.28955 0.31989 0.44373 0.0
N10 N 0.35183 0.3066 0.51233 0.0
C11 C 0.38535 0.32494 0.51683 0.0
C12 C 0.39091 0.33658 0.54475 0.0
C13 C 0.33737 0.30683 0.53752 0.0
N14 N 0.36074 0.32509 0.55773 0.0
C15 C 0.383 0.32011 0.43802 0.0
C16 C 0.3889 0.38166 0.45141 0.0
C17 C 0.4142 0.38104 0.43495 0.0
C18 C 0.41061 0.34974 0.42767 0.0
C19 C 0.36205 0.3515 0.46179 0.0
N20 N 0.35946 0.32117 0.45532 0.0
H21 H 0.38213 0.29654 0.434 0.0
H22 H 0.34513 0.35293 0.47715 0.0
H23 H 0.4044 0.3288 0.50111 0.0
H24 H 0.31038 0.29348 0.54102 0.0
O25 O 0.35826 0.26073 0.48132 0.0
O26 O 0.30747 0.24115 0.50053 0.0
O27 O 0.29388 0.29368 0.48338 0.0
C28 C 0.33417 0.23844 0.49764 0.0
H29 H 0.24365 0.20574 0.40311 0.0
H30 H 0.41529 0.35126 0.55501 0.0
H31 H 0.39117 0.40537 0.45805 0.0
H32 H 0.42976 0.34825 0.41511 0.0
Co33 Co 0.05433 0.33073 0.64721 0.0
C34 C 0.08678 0.32101 0.59553 0.0
C35 C 0.03979 0.27657 0.60497 0.0
C36 C 0.05547 0.26932 0.5831 0.0
N37 N 0.05917 0.30918 0.61267 0.0
N38 N 0.08513 0.29725 0.57725 0.0
H39 H 0.10901 0.34557 0.59799 0.0
H40 H 0.01715 0.25825 0.61584 0.0
C41 C 0.97815 0.27862 0.64014 0.0
O42 O 0.97505 0.28766 0.6139 0.0
N43 N 0.05066 0.35229 0.68155 0.0
C44 C 0.06511 0.38577 0.68578 0.0
C45 C 0.05931 0.39132 0.71377 0.0
C46 C 0.03669 0.33786 0.70698 0.0
N47 N 0.04154 0.36121 0.72708 0.0
C48 C 0.06394 0.3809 0.6051 0.0
C49 C 0.00884 0.3862 0.62191 0.0
C50 C 0.03229 0.41029 0.60289 0.0
C51 C 0.05953 0.40676 0.59372 0.0
C52 C 0.01399 0.3606 0.63253 0.0
N53 N 0.04162 0.3585 0.62458 0.0
H54 H 0.08663 0.3805 0.59983 0.0
H55 H 0.99718 0.34421 0.64906 0.0
H56 H 0.0796 0.4048 0.66979 0.0
H57 H 0.02378 0.31094 0.71073 0.0
O58 O 0.10312 0.36042 0.64983 0.0
O59 O 0.07364 0.30962 0.66951 0.0
O60 O 1.00641 0.29355 0.65335 0.0
C61 C 0.10252 0.3369 0.66626 0.0
H62 H 0.0465 0.24483 0.57335 0.0
H63 H 0.06859 0.41571 0.72383 0.0
H64 H 0.98746 0.38801 0.62957 0.0
H65 H 0.07855 0.42517 0.57944 0.0
Co66 Co 0.72747 0.04472 0.81395 0.0
C67 C 0.77228 0.07834 0.76363 0.0
C68 C 0.77852 0.03846 0.78105 0.0
C69 C 0.80344 0.05569 0.76106 0.0
N70 N 0.75839 0.05208 0.78239 0.0
N71 N 0.79984 0.08107 0.75029 0.0
H72 H 0.76478 0.09718 0.76197 0.0
H73 H 0.77706 0.01915 0.79542 0.0
C74 C 0.70929 0.97226 0.7989 0.0
O75 O 0.71485 0.9783 0.77113 0.0
N76 N 0.69782 0.03822 0.84588 0.0
C77 C 0.67535 0.04891 0.84807 0.0
C78 C 0.66374 0.04412 0.876 0.0
C79 C 0.69977 0.02734 0.87246 0.0
N80 N 0.67943 0.03092 0.89146 0.0
C81 C 0.69284 0.0663 0.77548 0.0
C82 C 0.6332 0.00537 0.77344 0.0
C83 C 0.63329 0.03424 0.76318 0.0
C84 C 0.66408 0.06482 0.76338 0.0
C85 C 0.66225 0.00805 0.78589 0.0
N86 N 0.69154 0.03839 0.78742 0.0
H87 H 0.71525 0.09064 0.77767 0.0
H88 H 0.65985 0.986 0.79638 0.0
H89 H 0.66891 0.06088 0.83108 0.0
H90 H 0.71742 0.01905 0.87804 0.0
O91 O 0.74952 0.09321 0.82086 0.0
O92 O 0.76416 0.05818 0.84036 0.0
O93 O 0.71203 0.99512 0.81623 0.0
C94 C 0.76893 0.08849 0.83863 0.0
H95 H 0.824 0.05121 0.75627 0.0
H96 H 0.64593 0.05097 0.88432 0.0
H97 H 0.61039 0.98098 0.77329 0.0
H98 H 0.66562 0.08804 0.75621 0.0
Co99 Co 0.68419 0.72562 0.98197 0.0
C100 C 0.69221 0.76705 0.93006 0.0
C101 C 0.73932 0.77206 0.94315 0.0
C102 C 0.7452 0.79426 0.92082 0.0
N103 N 0.70588 0.75413 0.94846 0.0
N104 N 0.71552 0.79122 0.91274 0.0
H105 H 0.66619 0.76083 0.93061 0.0
H106 H 0.75856 0.77105 0.95596 0.0
C107 C 0.73652 0.705 0.96737 0.0
O108 O 0.73158 0.7049 0.93941 0.0
N109 N 0.66251 0.69834 0.01542 0.0
C110 C 0.62902 0.67886 0.01941 0.0
C111 C 0.6234 0.66627 0.04703 0.0
C112 C 0.67688 0.69778 0.04066 0.0
N113 N 0.65347 0.67828 0.0604 0.0
C114 C 0.62954 0.68722 0.94241 0.0
C115 C 0.62864 0.627 0.95071 0.0
C116 C 0.6022 0.62683 0.93538 0.0
C117 C 0.60334 0.65756 0.9305 0.0
C118 C 0.65457 0.65719 0.96186 0.0
N119 N 0.65477 0.6869 0.95796 0.0
H120 H 0.62778 0.70971 0.94114 0.0
H121 H 0.6727 0.65583 0.97585 0.0
H122 H 0.60995 0.67504 0.00366 0.0
H123 H 0.70377 0.71199 0.0446 0.0
O124 O 0.65629 0.74634 0.98707 0.0
O125 O 0.70703 0.76445 0.00608 0.0
O126 O 0.71966 0.71199 0.98516 0.0
C127 C 0.68059 0.76774 0.00378 0.0
H128 H 0.76968 0.81301 0.91274 0.0
H129 H 0.59896 0.65078 0.0569 0.0
H130 H 0.62846 0.6037 0.95522 0.0
H131 H 0.58288 0.65833 0.91941 0.0
Co132 Co 0.95945 0.67763 0.14526 0.0
C133 C 0.92713 0.68417 0.09229 0.0
C134 C 0.9687 0.73178 0.10508 0.0
C135 C 0.95204 0.73702 0.08261 0.0
N136 N 0.95357 0.69846 0.11077 0.0
N137 N 0.92567 0.70705 0.0748 0.0
H138 H 0.9077 0.65801 0.09307 0.0
H139 H 0.98862 0.7513 0.11791 0.0
C140 C 0.03352 0.72979 0.13153 0.0
O141 O 0.02992 0.72646 0.10337 0.0
N142 N 0.96414 0.65675 0.17964 0.0
C143 C 0.94685 0.62358 0.18593 0.0
C144 C 0.95265 0.61937 0.21437 0.0
C145 C 0.98022 0.67232 0.20412 0.0
N146 N 0.97359 0.65002 0.22563 0.0
C147 C 0.93958 0.61914 0.1103 0.0
C148 C 1.00023 0.61985 0.11347 0.0
C149 C 0.97209 0.59152 0.10189 0.0
C150 C 0.94164 0.59164 0.09983 0.0
C151 C 0.99696 0.64656 0.12419 0.0
N152 N 0.96687 0.64609 0.12261 0.0
H153 H 0.91522 0.61734 0.11056 0.0
H154 H 0.01808 0.66612 0.13576 0.0
H155 H 0.92986 0.604 0.17131 0.0
H156 H 0.99459 0.69942 0.20668 0.0
O157 O 0.91072 0.65154 0.15059 0.0
O158 O 0.9448 0.70256 0.16821 0.0
O159 O 0.00889 0.71197 0.14836 0.0
C160 C 0.91462 0.67668 0.16655 0.0
H161 H 0.95708 0.76128 0.07448 0.0
H162 H 0.94164 0.59578 0.22611 0.0
H163 H 0.02398 0.62032 0.11613 0.0
H164 H 0.91921 0.57003 0.09128 0.0
Co165 Co 0.28596 0.96268 0.30954 0.0
C166 C 0.23558 0.91945 0.26525 0.0
C167 C 0.26132 0.97127 0.25237 0.0
C168 C 0.23921 0.95236 0.23074 0.0
N169 N 0.25907 0.9507 0.27417 0.0
N170 N 0.22301 0.91971 0.23883 0.0
H171 H 0.22847 0.89674 0.27741 0.0
H172 H 0.27806 0.99809 0.25167 0.0
C173 C 0.31068 0.03873 0.29655 0.0
O174 O 0.3314 0.04328 0.27524 0.0
N175 N 0.3123 0.97367 0.34451 0.0
C176 C 0.33406 0.963 0.35136 0.0
C177 C 0.34629 0.97404 0.37865 0.0
C178 C 0.31072 0.99019 0.36796 0.0
N179 N 0.33152 0.99094 0.38901 0.0
C180 C 0.32481 0.94817 0.27033 0.0
C181 C 0.38641 1.00465 0.28247 0.0
C182 C 0.38564 0.97868 0.26602 0.0
C183 C 0.35435 0.95043 0.25948 0.0
C184 C 0.3564 1.00102 0.29346 0.0
N185 N 0.32608 0.97296 0.2875 0.0
H186 H 0.30103 0.92541 0.26654 0.0
H187 H 0.35787 0.0196 0.30863 0.0
H188 H 0.34008 0.94766 0.33763 0.0
H189 H 0.29438 1.00085 0.36977 0.0
O190 O 0.26967 0.91539 0.31861 0.0
O191 O 0.2459 0.9451 0.33222 0.0
O192 O 0.29347 0.01005 0.30879 0.0
C193 C 0.2464 0.91707 0.3336 0.0
H194 H 0.23535 0.96209 0.21067 0.0
H195 H 0.36365 0.96888 0.39046 0.0
H196 H 0.4102 0.02646 0.28853 0.0
H197 H 0.35286 0.92975 0.24701 0.0
Co198 Co 0.72643 0.68134 0.34756 0.0
C199 C 0.77125 0.69293 0.39795 0.0
C200 C 0.77504 0.73869 0.38228 0.0
C201 C 0.80009 0.74674 0.40232 0.0
N202 N 0.75636 0.70489 0.3798 0.0
N203 N 0.79806 0.71799 0.41196 0.0
H204 H 0.76512 0.66691 0.3986 0.0
H205 H 0.77279 0.75655 0.36853 0.0
C206 C 0.70582 0.73422 0.36149 0.0
O207 O 0.70902 0.73267 0.38956 0.0
N208 N 0.69778 0.65806 0.31516 0.0
C209 C 0.67838 0.62447 0.31177 0.0
C210 C 0.66591 0.61807 0.28405 0.0
C211 C 0.69719 0.67165 0.28953 0.0
N212 N 0.67794 0.64775 0.27005 0.0
C213 C 0.69108 0.62539 0.38611 0.0
C214 C 0.63066 0.62519 0.38464 0.0
C215 C 0.6309 0.5969 0.39598 0.0
C216 C 0.66203 0.59786 0.39753 0.0
C217 C 0.65997 0.65172 0.37283 0.0
N218 N 0.68971 0.65148 0.37317 0.0
H219 H 0.71392 0.62409 0.38534 0.0
H220 H 0.65755 0.67079 0.3613 0.0
H221 H 0.67485 0.60582 0.3278 0.0
H222 H 0.71152 0.69841 0.28506 0.0
O223 O 0.74881 0.6551 0.34165 0.0
O224 O 0.76375 0.70478 0.32195 0.0
O225 O 0.71082 0.7153 0.34445 0.0
C226 C 0.76863 0.67934 0.32419 0.0
H227 H 0.81974 0.77199 0.40781 0.0
H228 H 0.65072 0.59338 0.2745 0.0
H229 H 0.60759 0.62624 0.38341 0.0
H230 H 0.66372 0.57657 0.4056 0.0
Co231 Co 0.05816 0.72915 0.51151 0.0
C232 C 0.08897 0.76844 0.56487 0.0
C233 C 0.0412 0.76454 0.55622 0.0
C234 C 0.05632 0.78659 0.57883 0.0
N235 N 0.06147 0.75275 0.5475 0.0
N236 N 0.08648 0.78919 0.58416 0.0
H237 H 0.11171 0.76716 0.56188 0.0
H238 H 0.01834 0.76003 0.54557 0.0
C239 C 0.98158 0.70254 0.51761 0.0
O240 O 0.97849 0.68807 0.54281 0.0
N241 N 0.05614 0.70681 0.47575 0.0
C242 C 0.07415 0.69166 0.46957 0.0
C243 C 0.06973 0.68288 0.44088 0.0
C244 C 0.0409 0.70702 0.45093 0.0
N245 N 0.04886 0.69255 0.42933 0.0
C246 C 0.06632 0.68615 0.55212 0.0
C247 C 0.01352 0.62654 0.53095 0.0
C248 C 0.03546 0.62504 0.55124 0.0
C249 C 0.06159 0.65535 0.56248 0.0
C250 C 0.0189 0.65776 0.52144 0.0
N251 N 0.0453 0.68714 0.53169 0.0
H252 H 0.08816 0.70907 0.55924 0.0
H253 H 1.0031 0.65822 0.5043 0.0
H254 H 0.0902 0.68822 0.48472 0.0
H255 H 0.02564 0.71882 0.44838 0.0
O256 O 0.10705 0.74894 0.51006 0.0
O257 O 0.07783 0.77121 0.49155 0.0
O258 O 0.01012 0.71806 0.50495 0.0
C259 C 0.10674 0.77286 0.49492 0.0
H260 H 0.04666 0.8011 0.58938 0.0
H261 H 0.0812 0.67069 0.42928 0.0
H262 H 0.99302 0.60374 0.52171 0.0
H263 H 0.07947 0.65531 0.57781 0.0
Co264 Co 0.3337 0.05128 0.67882 0.0
C265 C 0.32463 0.08475 0.73013 0.0
C266 C 0.28039 0.03721 0.72167 0.0
C267 C 0.2732 0.05322 0.74325 0.0
N268 N 0.31284 0.05671 0.71353 0.0
N269 N 0.30096 0.08325 0.74845 0.0
H270 H 0.34894 0.10715 0.72713 0.0
H271 H 0.26202 0.01428 0.71119 0.0
C272 C 0.28297 0.97535 0.68846 0.0
O273 O 0.2934 0.97367 0.71454 0.0
N274 N 0.3545 0.04695 0.64418 0.0
C275 C 0.38776 0.05922 0.64017 0.0
C276 C 0.39336 0.0567 0.61144 0.0
C277 C 0.34034 0.03763 0.61781 0.0
N278 N 0.36361 0.04349 0.59728 0.0
C279 C 0.38709 0.06544 0.71854 0.0
C280 C 0.39183 0.00895 0.70592 0.0
C281 C 0.41752 0.03494 0.72213 0.0
C282 C 0.41449 0.06307 0.72904 0.0
C283 C 0.36516 0.01258 0.69542 0.0
N284 N 0.3632 0.04076 0.70144 0.0
H285 H 0.38662 0.08839 0.7223 0.0
H286 H 0.3479 0.99407 0.68028 0.0
H287 H 0.40688 0.07069 0.65674 0.0
H288 H 0.31397 0.02884 0.61362 0.0
O289 O 0.36231 0.10001 0.6748 0.0
O290 O 0.31093 0.0689 0.65653 0.0
O291 O 0.29703 1.00284 0.67415 0.0
C292 C 0.33792 0.0982 0.65882 0.0
H293 H 0.24878 0.04425 0.75315 0.0
H294 H 0.41773 0.06491 0.60174 0.0
H295 H 0.39362 0.98716 0.69956 0.0
H296 H 0.43389 0.08375 0.74145 0.0
Co297 Co 0.28765 0.33074 0.84482 0.0
C298 C 0.24594 0.32094 0.89689 0.0
C299 C 0.24972 0.2771 0.88804 0.0
C300 C 0.22715 0.26977 0.91024 0.0
N301 N 0.26198 0.30942 0.87977 0.0
N302 N 0.22467 0.29732 0.91572 0.0
H303 H 0.24753 0.34513 0.89412 0.0
H304 H 0.25445 0.25895 0.87743 0.0
C305 C 0.31364 0.28067 0.85262 0.0
O306 O 0.32723 0.29201 0.87812 0.0
N307 N 0.31212 0.35204 0.81008 0.0
C308 C 0.33031 0.38551 0.8054 0.0
C309 C 0.34182 0.39089 0.77746 0.0
C310 C 0.31226 0.3374 0.78495 0.0
N311 N 0.33041 0.36065 0.76464 0.0
C312 C 0.3284 0.38089 0.88693 0.0
C313 C 0.38912 0.38844 0.86815 0.0
C314 C 0.38948 0.41167 0.88793 0.0
C315 C 0.35864 0.40706 0.89808 0.0
C316 C 0.35842 0.3624 0.85789 0.0
N317 N 0.32849 0.35919 0.86682 0.0
H318 H 0.30513 0.37967 0.89299 0.0
H319 H 0.35888 0.34646 0.84096 0.0
H320 H 0.33433 0.40464 0.8211 0.0
H321 H 0.29909 0.31041 0.78159 0.0
O322 O 0.26817 0.36004 0.84236 0.0
O323 O 0.24677 0.30903 0.8231 0.0
O324 O 0.29878 0.2938 0.83901 0.0
C325 C 0.24503 0.33622 0.82632 0.0
H326 H 0.21238 0.24543 0.92049 0.0
H327 H 0.35647 0.41518 0.76711 0.0
H328 H 0.41243 0.39121 0.85971 0.0
H329 H 0.35789 0.42485 0.91301 0.0
Co330 Co 0.96401 0.2813 0.01432 0.0
C331 C 0.93169 0.23985 0.06644 0.0
C332 C 0.97812 0.24139 0.05663 0.0
C333 C 0.96264 0.21904 0.07895 0.0
N334 N 0.95901 0.25495 0.04894 0.0
N335 N 0.93331 0.2179 0.08502 0.0
H336 H 0.90964 0.24249 0.06404 0.0
H337 H 1.00043 0.24516 0.04553 0.0
C338 C 0.03988 0.3058 0.02343 0.0
O339 O 0.04183 0.31734 0.04973 0.0
N340 N 0.968 0.30669 0.97996 0.0
C341 C 0.95334 0.3255 0.9755 0.0
C342 C 0.95982 0.33743 0.94768 0.0
C343 C 0.98281 0.30694 0.95481 0.0
N344 N 0.97827 0.3257 0.93469 0.0
C345 C 0.95074 0.32095 0.05411 0.0
C346 C 1.00794 0.38163 0.04162 0.0
C347 C 0.9824 0.38197 0.05807 0.0
C348 C 0.95387 0.35086 0.06489 0.0
C349 C 1.00349 0.35123 0.0308 0.0
N350 N 0.97507 0.32132 0.03692 0.0
H351 H 0.92742 0.29781 0.05768 0.0
H352 H 0.0218 0.35223 0.01563 0.0
H353 H 0.93827 0.32954 0.99121 0.0
H354 H 0.99616 0.29334 0.95129 0.0
O355 O 0.91518 0.26121 0.01096 0.0
O356 O 0.94592 0.24102 0.99194 0.0
O357 O 0.01231 0.29291 0.0092 0.0
C358 C 0.91663 0.23857 0.99492 0.0
H359 H 0.97156 0.20355 0.0889 0.0
H360 H 0.95057 0.35252 0.9375 0.0
H361 H 0.03063 0.40477 0.03592 0.0
H362 H 0.93296 0.34956 0.07683 0.0
Co363 Co 0.68435 0.96217 0.1816 0.0
C364 C 0.6887 0.92254 0.2305 0.0
C365 C 0.73079 0.97283 0.231 0.0
C366 C 0.73441 0.95502 0.25339 0.0
N367 N 0.70183 0.95261 0.21672 0.0
N368 N 0.70797 0.92333 0.25297 0.0
H369 H 0.66568 0.90023 0.224 0.0
H370 H 0.74911 0.99829 0.22515 0.0
C371 C 0.73672 0.03787 0.19323 0.0
O372 O 0.72401 0.04118 0.21758 0.0
N373 N 0.66645 0.97057 0.14685 0.0
C374 C 0.63357 0.95952 0.14162 0.0
C375 C 0.63032 0.96851 0.11405 0.0
C376 C 0.68275 0.98537 0.1222 0.0
N377 N 0.66117 0.98461 0.10189 0.0
C378 C 0.63096 0.94869 0.22076 0.0
C379 C 0.6285 0.00663 0.20918 0.0
C380 C 0.60211 0.98081 0.22509 0.0
C381 C 0.60418 0.95189 0.23145 0.0
C382 C 0.65439 1.00208 0.19838 0.0
N383 N 0.65533 0.97328 0.20401 0.0
H384 H 0.63062 0.92523 0.22411 0.0
H385 H 0.67216 0.02066 0.18357 0.0
H386 H 0.61326 0.94523 0.15664 0.0
H387 H 0.7096 0.99592 0.11906 0.0
O388 O 0.65375 0.91417 0.17491 0.0
O389 O 0.70636 0.94406 0.15905 0.0
O390 O 0.72331 0.00985 0.17972 0.0
C391 C 0.67835 0.91547 0.15969 0.0
H392 H 0.75574 0.96427 0.26796 0.0
H393 H 0.60692 0.96246 0.10332 0.0
H394 H 0.62853 0.02966 0.2039 0.0
H395 H 0.58425 0.93081 0.24301 0.0
H396 H 0.39579 0.14855 0.63374 0.0
H397 H 0.28473 0.17859 0.51727 0.0
H398 H 0.28824 0.10791 0.63848 0.0
H399 H 0.39221 0.24585 0.52232 0.0
H400 H 0.28814 0.14708 0.55814 0.0
H401 H 0.39771 0.18254 0.59165 0.0
C402 C 0.37283 0.14762 0.6265 0.0
C403 C 0.34179 0.12548 0.63953 0.0
C404 C 0.31114 0.16852 0.55025 0.0
C405 C 0.3436 0.16291 0.59117 0.0
C406 C 0.30923 0.18624 0.52665 0.0
C407 C 0.33821 0.2148 0.51648 0.0
C408 C 0.34226 0.17951 0.56407 0.0
C409 C 0.36934 0.2237 0.52943 0.0
C410 C 0.37386 0.16658 0.60229 0.0
C411 C 0.31266 0.12458 0.629 0.0
N412 N 0.37056 0.20628 0.55289 0.0
N413 N 0.31424 0.14268 0.60532 0.0
H414 H 0.15226 0.39582 0.69065 0.0
H415 H 0.18329 0.28808 0.80912 0.0
H416 H 0.11492 0.28888 0.6861 0.0
H417 H 0.25431 0.39429 0.80026 0.0
H418 H 0.15151 0.29133 0.76831 0.0
H419 H 0.18721 0.39918 0.73261 0.0
C420 C 0.15229 0.37333 0.69786 0.0
C421 C 0.13073 0.342 0.68498 0.0
C422 C 0.17384 0.3141 0.77539 0.0
C423 C 0.16912 0.34542 0.73322 0.0
C424 C 0.19169 0.31233 0.79896 0.0
C425 C 0.2214 0.34093 0.80799 0.0
C426 C 0.1858 0.34469 0.76048 0.0
C427 C 0.23127 0.37174 0.79404 0.0
C428 C 0.17178 0.37518 0.72199 0.0
C429 C 0.13108 0.3135 0.69548 0.0
N430 N 0.21366 0.3728 0.77062 0.0
N431 N 0.14955 0.31583 0.71914 0.0
H432 H 0.82225 0.08999 0.86488 0.0
H433 H 0.86562 0.24502 0.96982 0.0
H434 H 0.76808 0.1444 0.8597 0.0
H435 H 0.90527 0.17758 0.97785 0.0
H436 H 0.82883 0.20974 0.93024 0.0
H437 H 0.85464 0.1251 0.90514 0.0
C438 C 0.81752 0.10976 0.87203 0.0
C439 C 0.79247 0.11431 0.85897 0.0
C440 C 0.84521 0.20245 0.94104 0.0
C441 C 0.82912 0.15443 0.90581 0.0
C442 C 0.86579 0.22226 0.96384 0.0
C443 C 0.8884 0.21406 0.97703 0.0
C444 C 0.84756 0.17454 0.93157 0.0
C445 C 0.88826 0.1848 0.96817 0.0
C446 C 0.83584 0.12967 0.89526 0.0
C447 C 0.78744 0.14035 0.86909 0.0
N448 N 0.86844 0.16633 0.9459 0.0
N449 N 0.80551 0.1594 0.89214 0.0
H450 H 0.73156 0.82547 0.02531 0.0
H451 H 0.62055 0.86521 0.13403 0.0
H452 H 0.62311 0.76398 0.02636 0.0
H453 H 0.7279 0.90505 0.14052 0.0
H454 H 0.61863 0.82916 0.09367 0.0
H455 H 0.7287 0.85902 0.06451 0.0
C456 C 0.70702 0.8194 0.03355 0.0
C457 C 0.67755 0.79191 0.02268 0.0
C458 C 0.64245 0.8455 0.10427 0.0
C459 C 0.67402 0.82975 0.06835 0.0
C460 C 0.64348 0.8657 0.12747 0.0
C461 C 0.67446 0.88812 0.14051 0.0
C462 C 0.67264 0.84813 0.09421 0.0
C463 C 0.70353 0.88828 0.13095 0.0
C464 C 0.70538 0.83836 0.05619 0.0
C465 C 0.6464 0.7852 0.03409 0.0
N466 N 0.70193 0.86889 0.10831 0.0
N467 N 0.6454 0.80386 0.05662 0.0
H468 H 0.85976 0.62014 0.1887 0.0
H469 H 0.82467 0.73138 0.30144 0.0
H470 H 0.91099 0.72879 0.18984 0.0
H471 H 0.76625 0.62278 0.30128 0.0
H472 H 0.85802 0.72946 0.26159 0.0
H473 H 0.82439 0.61898 0.22916 0.0
C474 C 0.86295 0.64366 0.19697 0.0
C475 C 0.88824 0.67463 0.18596 0.0
C476 C 0.83813 0.70591 0.27028 0.0
C477 C 0.84885 0.67353 0.23243 0.0
C478 C 0.81927 0.70703 0.29324 0.0
C479 C 0.79276 0.6772 0.30462 0.0
C480 C 0.83033 0.6747 0.25826 0.0
C481 C 0.78677 0.64632 0.29322 0.0
C482 C 0.84313 0.643 0.22027 0.0
C483 C 0.89184 0.70438 0.19774 0.0
N484 N 0.80527 0.64583 0.27037 0.0
N485 N 0.87256 0.70307 0.22039 0.0
H486 H 0.18903 0.9093 0.35705 0.0
H487 H 0.15629 0.7646 0.46938 0.0
H488 H 0.25495 0.86737 0.35931 0.0
H489 H 0.12034 0.83493 0.4786 0.0
H490 H 0.19177 0.79833 0.42863 0.0
H491 H 0.15946 0.87582 0.39899 0.0
C492 C 0.19697 0.89258 0.36616 0.0
C493 C 0.22456 0.89121 0.35474 0.0
C494 C 0.17664 0.80666 0.44004 0.0
C495 C 0.19111 0.8531 0.40347 0.0
C496 C 0.15681 0.78775 0.46351 0.0
C497 C 0.13542 0.7971 0.47728 0.0
C498 C 0.17458 0.8347 0.4304 0.0
C499 C 0.13639 0.82681 0.46848 0.0
C500 C 0.18029 0.87371 0.39036 0.0
C501 C 0.23362 0.86895 0.36739 0.0
N502 N 0.15523 0.84425 0.44543 0.0
N503 N 0.21701 0.8508 0.39131 0.0
H504 H 0.24392 0.15634 0.39159 0.0
H505 H 0.35681 0.10687 0.29371 0.0
H506 H 0.35086 0.22305 0.38044 0.0
H507 H 0.25862 0.03561 0.32728 0.0
H508 H 0.35328 0.15245 0.31866 0.0
H509 H 0.24717 0.11475 0.36126 0.0
C510 C 0.26808 0.16248 0.38251 0.0
C511 C 0.29718 0.19338 0.38865 0.0
C512 C 0.33247 0.12683 0.32033 0.0
C513 C 0.30113 0.14534 0.35387 0.0
C514 C 0.33436 0.10088 0.30594 0.0
C515 C 0.30801 0.06736 0.30847 0.0
C516 C 0.30384 0.11918 0.33696 0.0
C517 C 0.27964 0.06101 0.32483 0.0
C518 C 0.26996 0.13852 0.36531 0.0
C519 C 0.32787 0.19946 0.37653 0.0
N520 N 0.27834 0.08659 0.33839 0.0
N521 N 0.32907 0.17567 0.3597 0.0
H522 H 0.23923 0.26343 0.51064 0.0
H523 H 0.13279 0.35203 0.54795 0.0
H524 H 0.25201 0.34861 0.46064 0.0
H525 H 0.09907 0.24751 0.56575 0.0
H526 H 0.17968 0.35528 0.51931 0.0
H527 H 0.19121 0.26131 0.53482 0.0
C528 C 0.23196 0.28179 0.50471 0.0
C529 C 0.24982 0.3063 0.48353 0.0
C530 C 0.16176 0.33162 0.52931 0.0
C531 C 0.19447 0.30405 0.51157 0.0
C532 C 0.13517 0.32979 0.54576 0.0
C533 C 0.11189 0.29943 0.55923 0.0
C534 C 0.16542 0.30305 0.52687 0.0
C535 C 0.11605 0.27131 0.55554 0.0
C536 C 0.20433 0.28043 0.51849 0.0
C537 C 0.23888 0.32923 0.47674 0.0
N538 N 0.14238 0.27391 0.54 0.0
N539 N 0.21204 0.32777 0.49094 0.0
H540 H 0.86748 0.10688 0.75022 0.0
H541 H 0.90996 0.24357 0.62581 0.0
H542 H 0.78875 0.11961 0.71162 0.0
H543 H 0.98147 0.24651 0.68837 0.0
H544 H 0.86465 0.19486 0.65183 0.0
H545 H 0.90908 0.15405 0.72203 0.0
C546 C 0.85883 0.11937 0.73554 0.0
C547 C 0.82443 0.109 0.73318 0.0
C548 C 0.89032 0.20639 0.65974 0.0
C549 C 0.87247 0.16389 0.70078 0.0
C550 C 0.91617 0.23406 0.64488 0.0
C551 C 0.94967 0.24928 0.65483 0.0
C552 C 0.89825 0.19366 0.68438 0.0
C553 C 0.95617 0.23589 0.67976 0.0
C554 C 0.88273 0.14663 0.71958 0.0
C555 C 0.81502 0.12688 0.71416 0.0
N556 N 0.93088 0.20895 0.69345 0.0
N557 N 0.83891 0.15342 0.69854 0.0
H558 H 0.67487 0.94226 0.84806 0.0
H559 H 0.75103 0.82087 0.86407 0.0
H560 H 0.73128 0.92979 0.7795 0.0
H561 H 0.66941 0.81191 0.91674 0.0
H562 H 0.74508 0.86098 0.83287 0.0
H563 H 0.67265 0.89441 0.87336 0.0
C564 C 0.68637 0.92907 0.83812 0.0
C565 C 0.70328 0.94001 0.81162 0.0
C566 C 0.72823 0.84992 0.85107 0.0
C567 C 0.70152 0.88553 0.84087 0.0
C568 C 0.73176 0.82721 0.86896 0.0
C569 C 0.71074 0.81302 0.89309 0.0
C570 C 0.70386 0.85898 0.8576 0.0
C571 C 0.68596 0.82189 0.89827 0.0
C572 C 0.68512 0.90175 0.8526 0.0
C573 C 0.71778 0.92202 0.79978 0.0
N574 N 0.68347 0.84453 0.8809 0.0
N575 N 0.71703 0.89596 0.8147 0.0
H576 H 0.79754 0.72085 0.94311 0.0
H577 H 0.85914 0.66196 0.08219 0.0
H578 H 0.73668 0.67703 0.01909 0.0
H579 H 0.92892 0.74062 0.02544 0.0
H580 H 0.8123 0.65676 0.0529 0.0
H581 H 0.84419 0.71789 0.96693 0.0
C582 C 0.7938 0.71002 0.96452 0.0
C583 C 0.7633 0.69926 0.97921 0.0
C584 C 0.83788 0.67494 0.04668 0.0
C585 C 0.8162 0.69572 0.00639 0.0
C586 C 0.86467 0.67774 0.06327 0.0
C587 C 0.89805 0.7018 0.05626 0.0
C588 C 0.84439 0.69607 0.02266 0.0
C589 C 0.90356 0.72197 0.0317 0.0
C590 C 0.82044 0.7086 0.97816 0.0
C591 C 0.75986 0.68579 0.00707 0.0
N592 N 0.87701 0.71869 0.01577 0.0
N593 N 0.78593 0.6844 0.01972 0.0
H594 H 0.17598 0.85843 0.25983 0.0
H595 H 0.0857 0.7872 0.10683 0.0
H596 H 0.21179 0.91515 0.18058 0.0
H597 H 0.05398 0.73222 0.18714 0.0
H598 H 0.13429 0.83304 0.13213 0.0
H599 H 0.13313 0.81092 0.23246 0.0
C600 C 0.17513 0.86092 0.23666 0.0
C601 C 0.19774 0.89111 0.22265 0.0
C602 C 0.11678 0.81079 0.14411 0.0
C603 C 0.14799 0.83645 0.19093 0.0
C604 C 0.08917 0.78454 0.12963 0.0
C605 C 0.0655 0.75594 0.14491 0.0
C606 C 0.12071 0.8083 0.17402 0.0
C607 C 0.07122 0.75395 0.1745 0.0
C608 C 0.15042 0.83371 0.22098 0.0
C609 C 0.19473 0.89269 0.19248 0.0
N610 N 0.09801 0.77975 0.18803 0.0
N611 N 0.1703 0.86584 0.17767 0.0
H612 H 0.91322 0.66482 0.53034 0.0
H613 H 0.8651 0.763 0.41371 0.0
H614 H 0.98381 0.74186 0.47263 0.0
H615 H 0.78956 0.66691 0.44783 0.0
H616 H 0.90807 0.75846 0.44082 0.0
H617 H 0.86681 0.66745 0.50549 0.0
C618 C 0.919 0.68227 0.51258 0.0
C619 C 0.95256 0.70313 0.50362 0.0
C620 C 0.88212 0.7383 0.44252 0.0
C621 C 0.89982 0.70642 0.4754 0.0
C622 C 0.8574 0.74104 0.42718 0.0
C623 C 0.82348 0.7154 0.42858 0.0
C624 C 0.87318 0.70978 0.45971 0.0
C625 C 0.81542 0.68718 0.44604 0.0
C626 C 0.89253 0.68366 0.49837 0.0
C627 C 0.95849 0.72517 0.48038 0.0
N628 N 0.84008 0.68514 0.46104 0.0
N629 N 0.93254 0.7263 0.46729 0.0
H630 H 0.24014 0.9781 0.64952 0.0
H631 H 0.13577 0.78324 0.61189 0.0
H632 H 0.25637 0.90683 0.69786 0.0
H633 H 0.09849 0.85185 0.59754 0.0
H634 H 0.1829 0.82731 0.64014 0.0
H635 H 0.19124 0.93158 0.62655 0.0
C636 C 0.23341 0.95257 0.65533 0.0
C637 C 0.2525 0.94639 0.67565 0.0
C638 C 0.16413 0.83246 0.63102 0.0
C639 C 0.19624 0.89265 0.64902 0.0
C640 C 0.1374 0.80746 0.61481 0.0
C641 C 0.11309 0.81382 0.60235 0.0
C642 C 0.16691 0.86424 0.63424 0.0
C643 C 0.1163 0.84559 0.60695 0.0
C644 C 0.2053 0.92597 0.64227 0.0
C645 C 0.24228 0.9127 0.6824 0.0
N646 N 0.14282 0.86961 0.6222 0.0
N647 N 0.21498 0.88698 0.66886 0.0
H648 H 0.35578 0.25453 0.8628 0.0
H649 H 0.25051 0.09642 0.75897 0.0
H650 H 0.26945 0.23837 0.81252 0.0
H651 H 0.35556 0.13244 0.77698 0.0
H652 H 0.25408 0.14337 0.78645 0.0
H653 H 0.3535 0.20532 0.83879 0.0
C654 C 0.33631 0.2406 0.84691 0.0
C655 C 0.31286 0.25068 0.83961 0.0
C656 C 0.27638 0.141 0.78453 0.0
C657 C 0.30989 0.19448 0.8125 0.0
C658 C 0.27428 0.11398 0.76901 0.0
C659 C 0.30278 0.11039 0.76569 0.0
C660 C 0.30711 0.16466 0.79721 0.0
C661 C 0.33308 0.13444 0.77886 0.0
C662 C 0.33514 0.2127 0.83315 0.0
C663 C 0.28823 0.23178 0.81875 0.0
N664 N 0.33447 0.16056 0.79415 0.0
N665 N 0.28732 0.20464 0.80613 0.0
H666 H 0.03652 0.2613 0.98328 0.0
H667 H 0.23113 0.3521 0.9444 0.0
H668 H 0.10857 0.3473 0.03266 0.0
H669 H 0.16174 0.24676 0.92844 0.0
H670 H 0.1874 0.35473 0.97341 0.0
H671 H 0.08268 0.25949 0.95923 0.0
C672 C 0.06215 0.27989 0.98911 0.0
C673 C 0.06865 0.30456 0.01004 0.0
C674 C 0.18201 0.33104 0.96375 0.0
C675 C 0.12198 0.3027 0.98216 0.0
C676 C 0.2068 0.32956 0.94709 0.0
C677 C 0.20011 0.29915 0.93401 0.0
C678 C 0.15014 0.30206 0.96678 0.0
C679 C 0.16823 0.27062 0.93834 0.0
C680 C 0.08854 0.2787 0.97541 0.0
C681 C 0.10246 0.32778 0.01675 0.0
N682 N 0.14444 0.27288 0.95405 0.0
N683 N 0.12798 0.32653 0.0026 0.0
H684 H 0.78276 0.03306 0.16004 0.0
H685 H 0.88515 0.22578 0.11257 0.0
H686 H 0.7619 0.10666 0.19795 0.0
H687 H 0.92041 0.15527 0.10007 0.0
H688 H 0.83853 0.1834 0.14214 0.0
H689 H 0.83194 0.07815 0.13624 0.0
C690 C 0.78865 0.05884 0.16348 0.0
C691 C 0.7681 0.06608 0.181 0.0
C692 C 0.85673 0.17744 0.13312 0.0
C693 C 0.82461 0.11819 0.15333 0.0
C694 C 0.88318 0.2015 0.11611 0.0
C695 C 0.9068 0.19414 0.10377 0.0
C696 C 0.85361 0.14564 0.13742 0.0
C697 C 0.90319 0.16236 0.10932 0.0
C698 C 0.81688 0.08464 0.1499 0.0
C699 C 0.77718 0.10002 0.18474 0.0
N700 N 0.87703 0.13931 0.12546 0.0
N701 N 0.80462 0.12488 0.17072 0.0
H702 H 0.72966 0.92597 0.30817 0.0
H703 H 0.67931 0.73216 0.30839 0.0
H704 H 0.67563 0.85679 0.23891 0.0
H705 H 0.71814 0.79509 0.38401 0.0
H706 H 0.67582 0.77727 0.28366 0.0
H707 H 0.72447 0.8787 0.33706 0.0
C708 C 0.71664 0.90086 0.29905 0.0
C709 C 0.7032 0.89545 0.27097 0.0
C710 C 0.68478 0.78123 0.30576 0.0
C711 C 0.6971 0.84117 0.30396 0.0
C712 C 0.68677 0.75541 0.31994 0.0
C713 C 0.69921 0.75989 0.34832 0.0
C714 C 0.69571 0.81214 0.3198 0.0
C715 C 0.70831 0.79052 0.36219 0.0
C716 C 0.7135 0.87385 0.31563 0.0
C717 C 0.68613 0.86224 0.26047 0.0
N718 N 0.7068 0.81567 0.34767 0.0
N719 N 0.68385 0.83651 0.27684 0.0
H720 H 0.42095 0.43862 0.41045 0.0
H721 H 0.61915 0.54887 0.43774 0.0
H722 H 0.47899 0.39597 0.44491 0.0
H723 H 0.56842 0.57253 0.37066 0.0
H724 H 0.56656 0.49617 0.44681 0.0
H725 H 0.47361 0.49182 0.4018 0.0
C726 C 0.4448 0.44047 0.41608 0.0
C727 C 0.44572 0.41284 0.42812 0.0
C728 C 0.56708 0.5131 0.43021 0.0
C729 C 0.50579 0.47359 0.4189 0.0
C730 C 0.59714 0.54321 0.42491 0.0
C731 C 0.59858 0.56561 0.40341 0.0
C732 C 0.53802 0.50545 0.41421 0.0
C733 C 0.56874 0.55679 0.38794 0.0
C734 C 0.47477 0.47074 0.41113 0.0
C735 C 0.47726 0.41655 0.43517 0.0
N736 N 0.53978 0.52756 0.39371 0.0
N737 N 0.50604 0.44644 0.43065 0.0
H738 H 0.01991 0.45019 0.63867 0.0
H739 H 0.02648 0.57459 0.51448 0.0
H740 H 0.04067 0.43999 0.54959 0.0
H741 H 0.03899 0.60108 0.60481 0.0
H742 H 0.024 0.5214 0.52667 0.0
H743 H 0.01907 0.50166 0.62625 0.0
C744 C 0.0239 0.45858 0.61641 0.0
C745 C 0.0302 0.44066 0.59508 0.0
C746 C 0.02721 0.53881 0.54383 0.0
C747 C 0.02951 0.49975 0.58078 0.0
C748 C 0.02836 0.56904 0.53693 0.0
C749 C 0.0328 0.59224 0.5587 0.0
C750 C 0.03013 0.53146 0.57276 0.0
C751 C 0.03569 0.58398 0.58736 0.0
C752 C 0.02371 0.48812 0.6094 0.0
C753 C 0.03584 0.45309 0.56669 0.0
N754 N 0.03416 0.5542 0.59358 0.0
N755 N 0.03523 0.4818 0.56034 0.0
H756 H 0.62261 0.07226 0.72243 0.0
H757 H 0.42356 0.9834 0.74615 0.0
H758 H 0.56987 0.99403 0.78602 0.0
H759 H 0.48265 0.08455 0.71306 0.0
H760 H 0.47586 0.98221 0.75509 0.0
H761 H 0.5702 0.07252 0.71277 0.0
C762 C 0.60018 0.0551 0.73437 0.0
C763 C 0.60102 0.03307 0.75512 0.0
C764 C 0.47734 1.0047 0.74599 0.0
C765 C 0.54065 0.03291 0.74365 0.0
C766 C 0.44755 0.00536 0.74087 0.0
C767 C 0.44884 0.03422 0.72912 0.0
C768 C 0.50856 0.03284 0.73873 0.0
C769 C 0.48059 0.06199 0.72257 0.0
C770 C 0.57022 0.05523 0.72874 0.0
C771 C 0.57067 0.011 0.76939 0.0
N772 N 0.50917 0.06054 0.72728 0.0
N773 N 0.54183 0.01146 0.76335 0.0
H774 H 0.56921 0.60861 0.88328 0.0
H775 H 0.41285 0.43844 0.94169 0.0
H776 H 0.56591 0.57196 0.96973 0.0
H777 H 0.43878 0.45501 0.85134 0.0
H778 H 0.46552 0.49059 0.95315 0.0
H779 H 0.51773 0.55541 0.8716 0.0
C780 C 0.55767 0.58931 0.89972 0.0
C781 C 0.5719 0.59449 0.9274 0.0
C782 C 0.45972 0.48265 0.93084 0.0
C783 C 0.513 0.53405 0.91444 0.0
C784 C 0.4297 0.45304 0.92432 0.0
C785 C 0.42166 0.44235 0.89558 0.0
C786 C 0.48144 0.50202 0.90839 0.0
C787 C 0.4443 0.46216 0.87383 0.0
C788 C 0.52844 0.55899 0.89307 0.0
C789 C 0.55597 0.56874 0.948 0.0
N790 N 0.47303 0.49117 0.88065 0.0
N791 N 0.52723 0.53973 0.94118 0.0
H792 H 0.01123 0.44144 0.02714 0.0
H793 H 0.92933 0.52724 0.11985 0.0
H794 H 0.95637 0.39693 0.10599 0.0
H795 H 0.01881 0.58605 0.06886 0.0
H796 H 0.93352 0.47688 0.1103 0.0
H797 H 0.0102 0.49285 0.03825 0.0
C798 C 0.99941 0.44245 0.04703 0.0
C799 C 0.98392 0.41443 0.06566 0.0
C800 C 0.95222 0.5008 0.10119 0.0
C801 C 0.98164 0.47325 0.07781 0.0
C802 C 0.94966 0.52943 0.10638 0.0
C803 C 0.97364 0.56075 0.09493 0.0
C804 C 0.97864 0.50336 0.08405 0.0
C805 C 0.99982 0.56234 0.07805 0.0
C806 C 0.99861 0.47186 0.05317 0.0
C807 C 0.96815 0.41741 0.09064 0.0
N808 N 1.0015 0.53397 0.07292 0.0
N809 N 0.96715 0.44611 0.09582 0.0
H810 H 0.44017 0.02791 0.23698 0.0
H811 H 0.56 0.95343 0.27226 0.0
H812 H 0.40362 0.93189 0.27913 0.0
H813 H 0.57305 0.01195 0.19505 0.0
H814 H 0.50715 0.95273 0.28159 0.0
H815 H 0.49399 0.02984 0.22754 0.0
C816 C 0.4435 0.00722 0.24409 0.0
C817 C 0.41746 0.97954 0.25854 0.0
C818 C 0.52181 0.96581 0.26269 0.0
C819 C 0.47884 0.982 0.24863 0.0
C820 C 0.55197 0.96615 0.25723 0.0
C821 C 0.57132 0.98265 0.23269 0.0
C822 C 0.5111 0.9826 0.24385 0.0
C823 C 0.55966 0.99941 0.21454 0.0
C824 C 0.47408 0.00832 0.23873 0.0
C825 C 0.42298 0.95343 0.26754 0.0
N826 N 0.53042 0.99902 0.22054 0.0
N827 N 0.45319 0.95542 0.26267 0.0
H828 H 0.38327 0.40113 0.73049 0.0
H829 H 0.30723 0.28342 0.59129 0.0
H830 H 0.28881 0.30711 0.73105 0.0
H831 H 0.40152 0.37764 0.59214 0.0
H832 H 0.29943 0.2915 0.64227 0.0
H833 H 0.3902 0.39253 0.67966 0.0
C834 C 0.36392 0.37871 0.71988 0.0
C835 C 0.33535 0.35489 0.735 0.0
C836 C 0.32181 0.3104 0.63127 0.0
C837 C 0.34318 0.3447 0.67676 0.0
C838 C 0.32616 0.30593 0.60212 0.0
C839 C 0.35512 0.32988 0.58745 0.0
C840 C 0.34658 0.33907 0.64579 0.0
C841 C 0.37907 0.35832 0.60269 0.0
C842 C 0.36795 0.37372 0.69086 0.0
C843 C 0.31137 0.32595 0.72029 0.0
N844 N 0.37426 0.3621 0.631 0.0
N845 N 0.31577 0.32171 0.69191 0.0
H846 H 0.02926 0.40147 0.76159 0.0
H847 H 0.98984 0.28408 0.90084 0.0
H848 H 0.03143 0.30838 0.7609 0.0
H849 H 0.99088 0.3788 0.90063 0.0
H850 H 1.00554 0.29235 0.8498 0.0
H851 H 0.01492 0.39312 0.81268 0.0
C852 C 0.02684 0.37931 0.77222 0.0
C853 C 0.03169 0.35567 0.75695 0.0
C854 C 1.00237 0.31133 0.86096 0.0
C855 C 0.015 0.34575 0.81552 0.0
C856 C 0.99365 0.30674 0.89015 0.0
C857 C 0.98891 0.33074 0.90501 0.0
C858 C 1.00642 0.34014 0.84659 0.0
C859 C 0.99373 0.3594 0.88994 0.0
C860 C 0.01851 0.37447 0.80139 0.0
C861 C 0.02758 0.32707 0.77174 0.0
N862 N 1.00217 0.36327 0.86158 0.0
N863 N 0.01955 0.32294 0.80025 0.0
H864 H 0.65559 0.05667 0.93215 0.0
H865 H 0.70577 0.98069 0.06604 0.0
H866 H 0.70049 0.99377 0.92196 0.0
H867 H 0.63215 0.01292 0.07067 0.0
H868 H 0.71259 0.99405 0.01421 0.0
H869 H 0.65424 0.04838 0.98401 0.0
C870 C 0.66496 0.0409 0.9406 0.0
C871 C 0.678 0.02575 0.9223 0.0
C872 C 0.69512 0.99837 0.02666 0.0
C873 C 0.67716 0.01684 0.98214 0.0
C874 C 0.69149 0.99107 0.05618 0.0
C875 C 0.66826 0.99561 0.07242 0.0
C876 C 0.67569 0.01068 0.01358 0.0
C877 C 0.65002 0.00875 0.05871 0.0
C878 C 0.66438 0.03641 0.97037 0.0
C879 C 0.69048 0.00625 0.93502 0.0
N880 N 0.65409 0.01582 0.03006 0.0
N881 N 0.68978 1.00238 0.96416 0.0
H882 H 0.70591 0.72071 0.09479 0.0
H883 H 0.62584 0.60632 0.23531 0.0
H884 H 0.61301 0.62514 0.09448 0.0
H885 H 0.7211 0.69957 0.23556 0.0
H886 H 0.62071 0.6131 0.18363 0.0
H887 H 0.71243 0.71338 0.14621 0.0
C888 C 0.68706 0.69803 0.10543 0.0
C889 C 0.65878 0.67355 0.09029 0.0
C890 C 0.64273 0.63212 0.19499 0.0
C891 C 0.66582 0.66524 0.14924 0.0
C892 C 0.64571 0.6282 0.2245 0.0
C893 C 0.67394 0.65238 0.23984 0.0
C894 C 0.66819 0.66044 0.18062 0.0
C895 C 0.69869 0.68051 0.22475 0.0
C896 C 0.69066 0.69397 0.13486 0.0
C897 C 0.63491 0.64489 0.10536 0.0
N898 N 0.69526 0.68373 0.19596 0.0
N899 N 0.63894 0.64157 0.13399 0.0
H900 H 0.93566 0.62087 0.27291 0.0
H901 H 0.08778 0.70314 0.38252 0.0
H902 H 0.03492 0.69672 0.24532 0.0
H903 H 0.98684 0.67472 0.40904 0.0
H904 H 0.0693 0.69495 0.33194 0.0
H905 H 0.9541 0.63392 0.32337 0.0
C906 C 0.96137 0.64016 0.27759 0.0
C907 C 0.98397 0.65767 0.25517 0.0
C908 C 0.05128 0.69073 0.34884 0.0
C909 C 1.00514 0.67251 0.31237 0.0
C910 C 0.06173 0.69517 0.37756 0.0
C911 C 0.03866 0.6894 0.39971 0.0
C912 C 0.01738 0.67969 0.3424 0.0
C913 C 1.00526 0.67949 0.39239 0.0
C914 C 0.97175 0.64778 0.30624 0.0
C915 C 0.01687 0.6828 0.26216 0.0
N916 N 0.99543 0.67448 0.36427 0.0
N917 N 0.02666 0.68925 0.29024 0.0
H918 H 0.41066 0.07466 0.55522 0.0
H919 H 0.28242 0.9865 0.42435 0.0
H920 H 0.30474 1.00392 0.56842 0.0
H921 H 0.38939 0.02443 0.41892 0.0
H922 H 0.2893 1.00298 0.47558 0.0
H923 H 0.40214 0.06606 0.50349 0.0
C924 C 0.38561 0.05715 0.5474 0.0
C925 C 0.35849 0.03954 0.56648 0.0
C926 C 0.31125 0.00796 0.46303 0.0
C927 C 0.34852 0.03027 0.50687 0.0
C928 C 0.30738 0.99887 0.43388 0.0
C929 C 0.33542 1.00408 0.4177 0.0
C930 C 0.34345 0.02277 0.47568 0.0
C931 C 0.36721 0.01979 0.4309 0.0
C932 C 0.38076 0.05248 0.51774 0.0
C933 C 0.3264 0.01807 0.55466 0.0
N934 N 0.37038 0.02856 0.45916 0.0
N935 N 0.32231 0.01391 0.52558 0.0
loop_
_geom_bond_atom_site_label_1
_geom_bond_atom_site_label_2
_geom_bond_distance
_geom_bond_site_symmetry_2
_ccdc_geom_bond_type
Co0 N4 2.148 . S
Co0 N10 2.128 . S
Co0 N20 2.194 . S
Co0 O25 2.351 . S
Co0 O26 2.155 . S
Co0 O27 2.096 . S
C1 N4 1.301 . S
C1 N5 1.328 . S
C1 H6 0.930 . S
C2 C3 1.333 . S
C2 N4 1.317 . S
C2 H7 0.930 . S
C3 C2 1.333 . S
C3 N5 1.350 . S
C3 H29 0.931 . S
N4 Co0 2.148 . S
N4 C1 1.301 . S
N4 C2 1.317 . S
N5 C1 1.328 . S
N5 C3 1.350 . S
H6 C1 0.930 . S
H7 C2 0.930 . S
C8 O9 1.224 . S
C8 O27 1.247 . S
O9 C8 1.224 . S
N10 Co0 2.128 . S
N10 C11 1.355 . S
N10 C13 1.311 . S
C11 N10 1.355 . S
C11 C12 1.363 . S
C11 H23 0.929 . S
C12 C11 1.363 . S
C12 N14 1.375 . S
C12 H30 0.931 . S
C13 N10 1.311 . S
C13 N14 1.347 . S
C13 H24 0.929 . S
N14 C12 1.375 . S
N14 C13 1.347 . S
C15 C18 1.365 . S
C15 N20 1.328 . S
C15 H21 0.929 . S
C16 C17 1.362 . S
C16 C19 1.378 . S
C16 H31 0.929 . S
C17 C16 1.362 . S
C17 C18 1.366 . S
C18 C15 1.365 . S
C18 C17 1.366 . S
C18 H32 0.930 . S
C19 C16 1.378 . S
C19 N20 1.315 . S
C19 H22 0.930 . S
N20 Co0 2.194 . S
N20 C15 1.328 . S
N20 C19 1.315 . S
H21 C15 0.929 . S
H22 C19 0.930 . S
H23 C11 0.929 . S
H24 C13 0.929 . S
O25 Co0 2.351 . S
O25 C28 1.244 . S
O26 Co0 2.155 . S
O26 C28 1.240 . S
O27 Co0 2.096 . S
O27 C8 1.247 . S
C28 O25 1.244 . S
C28 O26 1.240 . S
H29 C3 0.931 . S
H30 C12 0.931 . S
H31 C16 0.929 . S
H32 C18 0.930 . S
Co33 N37 2.148 . S
Co33 N43 2.128 . S
Co33 N53 2.194 . S
Co33 O58 2.351 . S
Co33 O59 2.155 . S
Co33 O60 2.096 . S
C34 N37 1.301 . S
C34 N38 1.328 . S
C34 H39 0.930 . S
C35 C36 1.333 . S
C35 N37 1.317 . S
C35 H40 0.930 . S
C36 C35 1.333 . S
C36 N38 1.350 . S
C36 H62 0.931 . S
N37 Co33 2.148 . S
N37 C34 1.301 . S
N37 C35 1.317 . S
N38 C34 1.328 . S
N38 C36 1.350 . S
H39 C34 0.930 . S
H40 C35 0.930 . S
C41 O42 1.224 . S
C41 O60 1.247 1_655 S
O42 C41 1.224 . S
N43 Co33 2.128 . S
N43 C44 1.355 . S
N43 C46 1.311 . S
C44 N43 1.355 . S
C44 C45 1.363 . S
C44 H56 0.929 . S
C45 C44 1.363 . S
C45 N47 1.375 . S
C45 H63 0.931 . S
C46 N43 1.311 . S
C46 N47 1.347 . S
C46 H57 0.933 . S
N47 C45 1.375 . S
N47 C46 1.347 . S
C48 C51 1.365 . S
C48 N53 1.328 . S
C48 H54 0.929 . S
C49 C50 1.362 . S
C49 C52 1.378 . S
C49 H64 0.929 . S
C50 C49 1.362 . S
C50 C51 1.366 . S
C51 C48 1.365 . S
C51 C50 1.366 . S
C51 H65 0.930 . S
C52 C49 1.378 . S
C52 N53 1.315 . S
C52 H55 0.930 . S
N53 Co33 2.194 . S
N53 C48 1.328 . S
N53 C52 1.315 . S
H54 C48 0.929 . S
H55 C52 0.930 . S
H56 C44 0.929 . S
H57 C46 0.933 . S
O58 Co33 2.351 . S
O58 C61 1.244 . S
O59 Co33 2.155 . S
O59 C61 1.240 . S
O60 Co33 2.096 . S
O60 C41 1.247 1_455 S
C61 O58 1.244 . S
C61 O59 1.240 . S
H62 C36 0.931 . S
H63 C45 0.931 . S
H64 C49 0.929 . S
H65 C51 0.930 . S
Co66 N70 2.148 . S
Co66 N76 2.128 . S
Co66 N86 2.194 . S
Co66 O91 2.351 . S
Co66 O92 2.155 . S
Co66 O93 2.096 . S
C67 N70 1.301 . S
C67 N71 1.328 . S
C67 H72 0.930 . S
C68 C69 1.333 . S
C68 N70 1.317 . S
C68 H73 0.930 . S
C69 C68 1.333 . S
C69 N71 1.350 . S
C69 H95 0.931 . S
N70 Co66 2.148 . S
N70 C67 1.301 . S
N70 C68 1.317 . S
N71 C67 1.328 . S
N71 C69 1.350 . S
H72 C67 0.930 . S
H73 C68 0.930 . S
C74 O75 1.224 . S
C74 O93 1.247 1_565 S
O75 C74 1.224 . S
N76 Co66 2.128 . S
N76 C77 1.355 . S
N76 C79 1.311 . S
C77 N76 1.355 . S
C77 C78 1.363 . S
C77 H89 0.929 . S
C78 C77 1.363 . S
C78 N80 1.375 . S
C78 H96 0.931 . S
C79 N76 1.311 . S
C79 N80 1.347 . S
C79 H90 0.955 . S
N80 C78 1.375 . S
N80 C79 1.347 . S
C81 C84 1.365 . S
C81 N86 1.328 . S
C81 H87 0.929 . S
C82 C83 1.362 . S
C82 C85 1.378 . S
C82 H97 0.929 . S
C83 C82 1.362 . S
C83 C84 1.366 . S
C84 C81 1.365 . S
C84 C83 1.366 . S
C84 H98 0.930 . S
C85 C82 1.378 . S
C85 N86 1.315 . S
C85 H88 0.930 . S
N86 Co66 2.194 . S
N86 C81 1.328 . S
N86 C85 1.315 . S
H87 C81 0.929 . S
H88 C85 0.930 . S
H89 C77 0.929 . S
H90 C79 0.955 . S
O91 Co66 2.351 . S
O91 C94 1.244 . S
O92 Co66 2.155 . S
O92 C94 1.240 . S
O93 Co66 2.096 . S
O93 C74 1.247 1_545 S
C94 O91 1.244 . S
C94 O92 1.240 . S
H95 C69 0.931 . S
H96 C78 0.931 . S
H97 C82 0.929 . S
H98 C84 0.930 . S
Co99 N103 2.157 . S
Co99 N109 2.120 1_556 S
Co99 N119 2.199 . S
Co99 O124 2.349 1_556 S
Co99 O125 2.149 1_556 S
Co99 O126 2.093 1_556 S
C100 N103 1.301 . S
C100 N104 1.328 . S
C100 H105 0.930 . S
C101 C102 1.333 . S
C101 N103 1.317 . S
C101 H106 0.930 . S
C102 C101 1.333 . S
C102 N104 1.350 . S
C102 H128 0.931 . S
N103 Co99 2.157 . S
N103 C100 1.301 . S
N103 C101 1.317 . S
N104 C100 1.328 . S
N104 C102 1.350 . S
H105 C100 0.930 . S
H106 C101 0.930 . S
C107 O108 1.224 . S
C107 O126 1.247 1_556 S
O108 C107 1.224 . S
N109 Co99 2.120 1_554 S
N109 C110 1.355 . S
N109 C112 1.311 . S
C110 N109 1.355 . S
C110 C111 1.363 . S
C110 H122 0.929 . S
C111 C110 1.363 . S
C111 N113 1.375 . S
C111 H129 0.931 . S
C112 N109 1.311 . S
C112 N113 1.347 . S
C112 H123 0.929 . S
N113 C111 1.375 . S
N113 C112 1.347 . S
C114 C117 1.365 . S
C114 N119 1.328 . S
C114 H120 0.929 . S
C115 C116 1.362 . S
C115 C118 1.378 . S
C115 H130 0.929 . S
C116 C115 1.362 . S
C116 C117 1.366 . S
C117 C114 1.365 . S
C117 C116 1.366 . S
C117 H131 0.930 . S
C118 C115 1.378 . S
C118 N119 1.315 . S
C118 H121 0.930 . S
N119 Co99 2.199 . S
N119 C114 1.328 . S
N119 C118 1.315 . S
H120 C114 0.929 . S
H121 C118 0.930 . S
H122 C110 0.929 . S
H123 C112 0.929 . S
O124 Co99 2.349 1_554 S
O124 C127 1.244 . S
O125 Co99 2.149 1_554 S
O125 C127 1.240 . S
O126 Co99 2.093 1_554 S
O126 C107 1.247 1_554 S
C127 O124 1.244 . S
C127 O125 1.240 . S
H128 C102 0.931 . S
H129 C111 0.931 . S
H130 C115 0.929 . S
H131 C117 0.930 . S
Co132 N136 2.148 . S
Co132 N142 2.128 . S
Co132 N152 2.194 . S
Co132 O157 2.351 . S
Co132 O158 2.155 . S
Co132 O159 2.096 . S
C133 N136 1.301 . S
C133 N137 1.328 . S
C133 H138 0.930 . S
C134 C135 1.333 . S
C134 N136 1.317 . S
C134 H139 0.930 . S
C135 C134 1.333 . S
C135 N137 1.350 . S
C135 H161 0.931 . S
N136 Co132 2.148 . S
N136 C133 1.301 . S
N136 C134 1.317 . S
N137 C133 1.328 . S
N137 C135 1.350 . S
H138 C133 0.930 . S
H139 C134 0.930 . S
C140 O141 1.224 . S
C140 O159 1.247 1_455 S
O141 C140 1.224 . S
N142 Co132 2.128 . S
N142 C143 1.355 . S
N142 C145 1.311 . S
C143 N142 1.355 . S
C143 C144 1.363 . S
C143 H155 0.929 . S
C144 C143 1.363 . S
C144 N146 1.375 . S
C144 H162 0.931 . S
C145 N142 1.311 . S
C145 N146 1.347 . S
C145 H156 0.933 . S
N146 C144 1.375 . S
N146 C145 1.347 . S
C147 C150 1.365 . S
C147 N152 1.328 . S
C147 H153 0.929 . S
C148 C149 1.362 . S
C148 C151 1.378 . S
C148 H163 0.929 . S
C149 C148 1.362 . S
C149 C150 1.366 . S
C150 C147 1.365 . S
C150 C149 1.366 . S
C150 H164 0.930 . S
C151 C148 1.378 . S
C151 N152 1.315 . S
C151 H154 0.930 . S
N152 Co132 2.194 . S
N152 C147 1.328 . S
N152 C151 1.315 . S
H153 C147 0.929 . S
H154 C151 0.930 . S
H155 C143 0.929 . S
H156 C145 0.933 . S
O157 Co132 2.351 . S
O157 C160 1.244 . S
O158 Co132 2.155 . S
O158 C160 1.240 . S
O159 Co132 2.096 . S
O159 C140 1.247 1_655 S
C160 O157 1.244 . S
C160 O158 1.240 . S
H161 C135 0.931 . S
H162 C144 0.931 . S
H163 C148 0.929 . S
H164 C150 0.930 . S
Co165 N169 2.148 . S
Co165 N175 2.128 . S
Co165 N185 2.194 . S
Co165 O190 2.351 . S
Co165 O191 2.155 . S
Co165 O192 2.096 . S
C166 N169 1.301 . S
C166 N170 1.328 . S
C166 H171 0.930 . S
C167 C168 1.333 . S
C167 N169 1.317 . S
C167 H172 0.930 . S
C168 C167 1.333 . S
C168 N170 1.350 . S
C168 H194 0.931 . S
N169 Co165 2.148 . S
N169 C166 1.301 . S
N169 C167 1.317 . S
N170 C166 1.328 . S
N170 C168 1.350 . S
H171 C166 0.930 . S
H172 C167 0.930 . S
C173 O174 1.224 . S
C173 O192 1.247 1_545 S
O174 C173 1.224 . S
N175 Co165 2.128 . S
N175 C176 1.355 . S
N175 C178 1.311 . S
C176 N175 1.355 . S
C176 C177 1.363 . S
C176 H188 0.929 . S
C177 C176 1.363 . S
C177 N179 1.375 . S
C177 H195 0.931 . S
C178 N175 1.311 . S
C178 N179 1.347 . S
C178 H189 0.955 . S
N179 C177 1.375 . S
N179 C178 1.347 . S
C180 C183 1.365 . S
C180 N185 1.328 . S
C180 H186 0.929 . S
C181 C182 1.362 . S
C181 C184 1.378 . S
C181 H196 0.929 . S
C182 C181 1.362 . S
C182 C183 1.366 . S
C183 C180 1.365 . S
C183 C182 1.366 . S
C183 H197 0.930 . S
C184 C181 1.378 . S
C184 N185 1.315 . S
C184 H187 0.930 . S
N185 Co165 2.194 . S
N185 C180 1.328 . S
N185 C184 1.315 . S
H186 C180 0.929 . S
H187 C184 0.930 . S
H188 C176 0.929 . S
H189 C178 0.955 . S
O190 Co165 2.351 . S
O190 C193 1.244 . S
O191 Co165 2.155 . S
O191 C193 1.240 . S
O192 Co165 2.096 . S
O192 C173 1.247 1_565 S
C193 O190 1.244 . S
C193 O191 1.240 . S
H194 C168 0.931 . S
H195 C177 0.931 . S
H196 C181 0.929 . S
H197 C183 0.930 . S
Co198 N202 2.148 . S
Co198 N208 2.128 . S
Co198 N218 2.194 . S
Co198 O223 2.351 . S
Co198 O224 2.155 . S
Co198 O225 2.096 . S
C199 N202 1.301 . S
C199 N203 1.328 . S
C199 H204 0.930 . S
C200 C201 1.333 . S
C200 N202 1.317 . S
C200 H205 0.930 . S
C201 C200 1.333 . S
C201 N203 1.350 . S
C201 H227 0.931 . S
N202 Co198 2.148 . S
N202 C199 1.301 . S
N202 C200 1.317 . S
N203 C199 1.328 . S
N203 C201 1.350 . S
H204 C199 0.930 . S
H205 C200 0.930 . S
C206 O207 1.224 . S
C206 O225 1.247 . S
O207 C206 1.224 . S
N208 Co198 2.128 . S
N208 C209 1.355 . S
N208 C211 1.311 . S
C209 N208 1.355 . S
C209 C210 1.363 . S
C209 H221 0.929 . S
C210 C209 1.363 . S
C210 N212 1.375 . S
C210 H228 0.931 . S
C211 N208 1.311 . S
C211 N212 1.347 . S
C211 H222 0.929 . S
N212 C210 1.375 . S
N212 C211 1.347 . S
C213 C216 1.365 . S
C213 N218 1.328 . S
C213 H219 0.929 . S
C214 C215 1.362 . S
C214 C217 1.378 . S
C214 H229 0.929 . S
C215 C214 1.362 . S
C215 C216 1.366 . S
C216 C213 1.365 . S
C216 C215 1.366 . S
C216 H230 0.930 . S
C217 C214 1.378 . S
C217 N218 1.315 . S
C217 H220 0.930 . S
N218 Co198 2.194 . S
N218 C213 1.328 . S
N218 C217 1.315 . S
H219 C213 0.929 . S
H220 C217 0.930 . S
H221 C209 0.929 . S
H222 C211 0.929 . S
O223 Co198 2.351 . S
O223 C226 1.244 . S
O224 Co198 2.155 . S
O224 C226 1.240 . S
O225 Co198 2.096 . S
O225 C206 1.247 . S
C226 O223 1.244 . S
C226 O224 1.240 . S
H227 C201 0.931 . S
H228 C210 0.931 . S
H229 C214 0.929 . S
H230 C216 0.930 . S
Co231 N235 2.148 . S
Co231 N241 2.128 . S
Co231 N251 2.194 . S
Co231 O256 2.351 . S
Co231 O257 2.155 . S
Co231 O258 2.096 . S
C232 N235 1.301 . S
C232 N236 1.328 . S
C232 H237 0.930 . S
C233 C234 1.333 . S
C233 N235 1.317 . S
C233 H238 0.930 . S
C234 C233 1.333 . S
C234 N236 1.350 . S
C234 H260 0.931 . S
N235 Co231 2.148 . S
N235 C232 1.301 . S
N235 C233 1.317 . S
N236 C232 1.328 . S
N236 C234 1.350 . S
H237 C232 0.930 . S
H238 C233 0.930 . S
C239 O240 1.224 . S
C239 O258 1.247 1_655 S
O240 C239 1.224 . S
N241 Co231 2.128 . S
N241 C242 1.355 . S
N241 C244 1.311 . S
C242 N241 1.355 . S
C242 C243 1.363 . S
C242 H254 0.929 . S
C243 C242 1.363 . S
C243 N245 1.375 . S
C243 H261 0.931 . S
C244 N241 1.311 . S
C244 N245 1.347 . S
C244 H255 0.954 . S
N245 C243 1.375 . S
N245 C244 1.347 . S
C246 C249 1.365 . S
C246 N251 1.328 . S
C246 H252 0.929 . S
C247 C248 1.362 . S
C247 C250 1.378 . S
C247 H262 0.929 . S
C248 C247 1.362 . S
C248 C249 1.366 . S
C249 C246 1.365 . S
C249 C248 1.366 . S
C249 H263 0.930 . S
C250 C247 1.378 . S
C250 N251 1.315 . S
C250 H253 0.930 . S
N251 Co231 2.194 . S
N251 C246 1.328 . S
N251 C250 1.315 . S
H252 C246 0.929 . S
H253 C250 0.930 . S
H254 C242 0.929 . S
H255 C244 0.954 . S
O256 Co231 2.351 . S
O256 C259 1.244 . S
O257 Co231 2.155 . S
O257 C259 1.240 . S
O258 Co231 2.096 . S
O258 C239 1.247 1_455 S
C259 O256 1.244 . S
C259 O257 1.240 . S
H260 C234 0.931 . S
H261 C243 0.931 . S
H262 C247 0.929 . S
H263 C249 0.930 . S
Co264 N268 2.148 . S
Co264 N274 2.128 . S
Co264 N284 2.194 . S
Co264 O289 2.351 . S
Co264 O290 2.155 . S
Co264 O291 2.096 . S
C265 N268 1.301 . S
C265 N269 1.328 . S
C265 H270 0.930 . S
C266 C267 1.333 . S
C266 N268 1.317 . S
C266 H271 0.930 . S
C267 C266 1.333 . S
C267 N269 1.350 . S
C267 H293 0.931 . S
N268 Co264 2.148 . S
N268 C265 1.301 . S
N268 C266 1.317 . S
N269 C265 1.328 . S
N269 C267 1.350 . S
H270 C265 0.930 . S
H271 C266 0.930 . S
C272 O273 1.224 . S
C272 O291 1.247 1_565 S
O273 C272 1.224 . S
N274 Co264 2.128 . S
N274 C275 1.355 . S
N274 C277 1.311 . S
C275 N274 1.355 . S
C275 C276 1.363 . S
C275 H287 0.929 . S
C276 C275 1.363 . S
C276 N278 1.375 . S
C276 H294 0.931 . S
C277 N274 1.311 . S
C277 N278 1.347 . S
C277 H288 0.933 . S
N278 C276 1.375 . S
N278 C277 1.347 . S
C279 C282 1.365 . S
C279 N284 1.328 . S
C279 H285 0.929 . S
C280 C281 1.362 . S
C280 C283 1.378 . S
C280 H295 0.929 . S
C281 C280 1.362 . S
C281 C282 1.366 . S
C282 C279 1.365 . S
C282 C281 1.366 . S
C282 H296 0.930 . S
C283 C280 1.378 . S
C283 N284 1.315 . S
C283 H286 0.930 . S
N284 Co264 2.194 . S
N284 C279 1.328 . S
N284 C283 1.315 . S
H285 C279 0.929 . S
H286 C283 0.930 . S
H287 C275 0.929 . S
H288 C277 0.933 . S
O289 Co264 2.351 . S
O289 C292 1.244 . S
O290 Co264 2.155 . S
O290 C292 1.240 . S
O291 Co264 2.096 . S
O291 C272 1.247 1_545 S
C292 O289 1.244 . S
C292 O290 1.240 . S
H293 C267 0.931 . S
H294 C276 0.931 . S
H295 C280 0.929 . S
H296 C282 0.930 . S
Co297 N301 2.148 . S
Co297 N307 2.128 . S
Co297 N317 2.194 . S
Co297 O322 2.351 . S
Co297 O323 2.155 . S
Co297 O324 2.096 . S
C298 N301 1.301 . S
C298 N302 1.328 . S
C298 H303 0.930 . S
C299 C300 1.333 . S
C299 N301 1.317 . S
C299 H304 0.930 . S
C300 C299 1.333 . S
C300 N302 1.350 . S
C300 H326 0.931 . S
N301 Co297 2.148 . S
N301 C298 1.301 . S
N301 C299 1.317 . S
N302 C298 1.328 . S
N302 C300 1.350 . S
H303 C298 0.930 . S
H304 C299 0.930 . S
C305 O306 1.224 . S
C305 O324 1.247 . S
O306 C305 1.224 . S
N307 Co297 2.128 . S
N307 C308 1.355 . S
N307 C310 1.311 . S
C308 N307 1.355 . S
C308 C309 1.363 . S
C308 H320 0.929 . S
C309 C308 1.363 . S
C309 N311 1.375 . S
C309 H327 0.931 . S
C310 N307 1.311 . S
C310 N311 1.347 . S
C310 H321 0.929 . S
N311 C309 1.375 . S
N311 C310 1.347 . S
C312 C315 1.365 . S
C312 N317 1.328 . S
C312 H318 0.929 . S
C313 C314 1.362 . S
C313 C316 1.378 . S
C313 H328 0.929 . S
C314 C313 1.362 . S
C314 C315 1.366 . S
C315 C312 1.365 . S
C315 C314 1.366 . S
C315 H329 0.930 . S
C316 C313 1.378 . S
C316 N317 1.315 . S
C316 H319 0.930 . S
N317 Co297 2.194 . S
N317 C312 1.328 . S
N317 C316 1.315 . S
H318 C312 0.929 . S
H319 C316 0.930 . S
H320 C308 0.929 . S
H321 C310 0.929 . S
O322 Co297 2.351 . S
O322 C325 1.244 . S
O323 Co297 2.155 . S
O323 C325 1.240 . S
O324 Co297 2.096 . S
O324 C305 1.247 . S
C325 O322 1.244 . S
C325 O323 1.240 . S
H326 C300 0.931 . S
H327 C309 0.931 . S
H328 C313 0.929 . S
H329 C315 0.930 . S
Co330 N334 2.148 1_556 S
Co330 N340 2.128 . S
Co330 N350 2.194 1_556 S
Co330 O355 2.351 . S
Co330 O356 2.155 . S
Co330 O357 2.096 . S
C331 N334 1.301 . S
C331 N335 1.328 . S
C331 H336 0.930 . S
C332 C333 1.333 . S
C332 N334 1.317 . S
C332 H337 0.930 . S
C333 C332 1.333 . S
C333 N335 1.350 . S
C333 H359 0.931 . S
N334 Co330 2.148 1_554 S
N334 C331 1.301 . S
N334 C332 1.317 . S
N335 C331 1.328 . S
N335 C333 1.350 . S
H336 C331 0.930 . S
H337 C332 0.930 . S
C338 O339 1.224 1_556 S
C338 O357 1.247 1_455 S
O339 C338 1.224 1_554 S
N340 Co330 2.128 . S
N340 C341 1.355 . S
N340 C343 1.311 . S
C341 N340 1.355 . S
C341 C342 1.363 . S
C341 H353 0.929 . S
C342 C341 1.363 . S
C342 N344 1.375 . S
C342 H360 0.931 . S
C343 N340 1.311 . S
C343 N344 1.347 . S
C343 H354 0.954 . S
N344 C342 1.375 . S
N344 C343 1.347 . S
C345 C348 1.365 . S
C345 N350 1.328 . S
C345 H351 0.929 . S
C346 C347 1.362 . S
C346 C349 1.378 . S
C346 H361 0.929 . S
C347 C346 1.362 . S
C347 C348 1.366 . S
C348 C345 1.365 . S
C348 C347 1.366 . S
C348 H362 0.930 . S
C349 C346 1.378 . S
C349 N350 1.315 . S
C349 H352 0.930 . S
N350 Co330 2.194 1_554 S
N350 C345 1.328 . S
N350 C349 1.315 . S
H351 C345 0.929 . S
H352 C349 0.930 . S
H353 C341 0.929 . S
H354 C343 0.954 . S
O355 Co330 2.351 . S
O355 C358 1.244 . S
O356 Co330 2.155 . S
O356 C358 1.240 . S
O357 Co330 2.096 . S
O357 C338 1.247 1_655 S
C358 O355 1.244 . S
C358 O356 1.240 . S
H359 C333 0.931 . S
H360 C342 0.931 . S
H361 C346 0.929 . S
H362 C348 0.930 . S
Co363 N367 2.148 . S
Co363 N373 2.128 . S
Co363 N383 2.194 . S
Co363 O388 2.351 . S
Co363 O389 2.155 . S
Co363 O390 2.096 . S
C364 N367 1.301 . S
C364 N368 1.328 . S
C364 H369 0.930 . S
C365 C366 1.333 . S
C365 N367 1.317 . S
C365 H370 0.930 . S
C366 C365 1.333 . S
C366 N368 1.350 . S
C366 H392 0.931 . S
N367 Co363 2.148 . S
N367 C364 1.301 . S
N367 C365 1.317 . S
N368 C364 1.328 . S
N368 C366 1.350 . S
H369 C364 0.930 . S
H370 C365 0.930 . S
C371 O372 1.224 . S
C371 O390 1.247 1_545 S
O372 C371 1.224 . S
N373 Co363 2.128 . S
N373 C374 1.355 . S
N373 C376 1.311 . S
C374 N373 1.355 . S
C374 C375 1.363 . S
C374 H386 0.929 . S
C375 C374 1.363 . S
C375 N377 1.375 . S
C375 H393 0.931 . S
C376 N373 1.311 . S
C376 N377 1.347 . S
C376 H387 0.933 . S
N377 C375 1.375 . S
N377 C376 1.347 . S
C378 C381 1.365 . S
C378 N383 1.328 . S
C378 H384 0.929 . S
C379 C380 1.362 . S
C379 C382 1.378 . S
C379 H394 0.929 . S
C380 C379 1.362 . S
C380 C381 1.366 . S
C381 C378 1.365 . S
C381 C380 1.366 . S
C381 H395 0.930 . S
C382 C379 1.378 . S
C382 N383 1.315 . S
C382 H385 0.930 . S
N383 Co363 2.194 . S
N383 C378 1.328 . S
N383 C382 1.315 . S
H384 C378 0.929 . S
H385 C382 0.930 . S
H386 C374 0.929 . S
H387 C376 0.933 . S
O388 Co363 2.351 . S
O388 C391 1.244 . S
O389 Co363 2.155 . S
O389 C391 1.240 . S
O390 Co363 2.096 . S
O390 C371 1.247 1_565 S
C391 O388 1.244 . S
C391 O389 1.240 . S
H392 C366 0.931 . S
H393 C375 0.931 . S
H394 C379 0.929 . S
H395 C381 0.930 . S
H396 C402 0.930 . S
H397 C406 0.930 . S
H398 C411 0.929 . S
H399 C409 0.929 . S
H400 C404 0.929 . S
H401 C410 0.929 . S
C402 H396 0.930 . S
C402 C403 1.367 . S
C402 C410 1.378 . S
C403 C402 1.367 . S
C403 C411 1.433 . S
C404 H400 0.929 . S
C404 C406 1.378 . S
C404 C408 1.350 . S
C405 C408 1.463 . S
C405 C410 1.350 . S
C405 N413 1.427 . S
C406 H397 0.930 . S
C406 C404 1.378 . S
C406 C407 1.367 . S
C407 C406 1.367 . S
C407 C409 1.433 . S
C408 C404 1.350 . S
C408 C405 1.463 . S
C408 N412 1.427 . S
C409 H399 0.929 . S
C409 C407 1.433 . S
C409 N412 1.384 . S
C410 H401 0.929 . S
C410 C402 1.378 . S
C410 C405 1.350 . S
C411 H398 0.929 . S
C411 C403 1.433 . S
C411 N413 1.384 . S
N412 C408 1.427 . S
N412 C409 1.384 . S
N413 C405 1.427 . S
N413 C411 1.384 . S
H414 C420 0.930 . S
H415 C424 0.930 . S
H416 C429 0.929 . S
H417 C427 0.929 . S
H418 C422 0.929 . S
H419 C428 0.929 . S
C420 H414 0.930 . S
C420 C421 1.367 . S
C420 C428 1.378 . S
C421 C420 1.367 . S
C421 C429 1.433 . S
C422 H418 0.929 . S
C422 C424 1.378 . S
C422 C426 1.350 . S
C423 C426 1.463 . S
C423 C428 1.350 . S
C423 N431 1.427 . S
C424 H415 0.930 . S
C424 C422 1.378 . S
C424 C425 1.367 . S
C425 C424 1.367 . S
C425 C427 1.433 . S
C426 C422 1.350 . S
C426 C423 1.463 . S
C426 N430 1.427 . S
C427 H417 0.929 . S
C427 C425 1.433 . S
C427 N430 1.384 . S
C428 H419 0.929 . S
C428 C420 1.378 . S
C428 C423 1.350 . S
C429 H416 0.929 . S
C429 C421 1.433 . S
C429 N431 1.384 . S
N430 C426 1.427 . S
N430 C427 1.384 . S
N431 C423 1.427 . S
N431 C429 1.384 . S
H432 C438 0.930 . S
H433 C442 0.930 . S
H434 C447 0.929 . S
H435 C445 0.929 . S
H436 C440 0.929 . S
H437 C446 0.929 . S
C438 H432 0.930 . S
C438 C439 1.367 . S
C438 C446 1.378 . S
C439 C438 1.367 . S
C439 C447 1.433 . S
C440 H436 0.929 . S
C440 C442 1.378 . S
C440 C444 1.350 . S
C441 C444 1.463 . S
C441 C446 1.350 . S
C441 N449 1.427 . S
C442 H433 0.930 . S
C442 C440 1.378 . S
C442 C443 1.367 . S
C443 C442 1.367 . S
C443 C445 1.433 . S
C444 C440 1.350 . S
C444 C441 1.463 . S
C444 N448 1.427 . S
C445 H435 0.929 . S
C445 C443 1.433 . S
C445 N448 1.384 . S
C446 H437 0.929 . S
C446 C438 1.378 . S
C446 C441 1.350 . S
C447 H434 0.929 . S
C447 C439 1.433 . S
C447 N449 1.384 . S
N448 C444 1.427 . S
N448 C445 1.384 . S
N449 C441 1.427 . S
N449 C447 1.384 . S
H450 C456 0.930 . S
H451 C460 0.930 . S
H452 C465 0.929 . S
H453 C463 0.929 . S
H454 C458 0.929 . S
H455 C464 0.929 . S
C456 H450 0.930 . S
C456 C457 1.367 . S
C456 C464 1.378 . S
C457 C456 1.367 . S
C457 C465 1.433 . S
C458 H454 0.929 . S
C458 C460 1.378 . S
C458 C462 1.350 . S
C459 C462 1.463 . S
C459 C464 1.350 . S
C459 N467 1.427 . S
C460 H451 0.930 . S
C460 C458 1.378 . S
C460 C461 1.367 . S
C461 C460 1.367 . S
C461 C463 1.433 . S
C462 C458 1.350 . S
C462 C459 1.463 . S
C462 N466 1.427 . S
C463 H453 0.929 . S
C463 C461 1.433 . S
C463 N466 1.384 . S
C464 H455 0.929 . S
C464 C456 1.378 . S
C464 C459 1.350 . S
C465 H452 0.929 . S
C465 C457 1.433 . S
C465 N467 1.384 . S
N466 C462 1.427 . S
N466 C463 1.384 . S
N467 C459 1.427 . S
N467 C465 1.384 . S
H468 C474 0.930 . S
H469 C478 0.930 . S
H470 C483 0.929 . S
H471 C481 0.929 . S
H472 C476 0.929 . S
H473 C482 0.929 . S
C474 H468 0.930 . S
C474 C475 1.367 . S
C474 C482 1.378 . S
C475 C474 1.367 . S
C475 C483 1.433 . S
C476 H472 0.929 . S
C476 C478 1.378 . S
C476 C480 1.350 . S
C477 C480 1.463 . S
C477 C482 1.350 . S
C477 N485 1.427 . S
C478 H469 0.930 . S
C478 C476 1.378 . S
C478 C479 1.367 . S
C479 C478 1.367 . S
C479 C481 1.433 . S
C480 C476 1.350 . S
C480 C477 1.463 . S
C480 N484 1.427 . S
C481 H471 0.929 . S
C481 C479 1.433 . S
C481 N484 1.384 . S
C482 H473 0.929 . S
C482 C474 1.378 . S
C482 C477 1.350 . S
C483 H470 0.929 . S
C483 C475 1.433 . S
C483 N485 1.384 . S
N484 C480 1.427 . S
N484 C481 1.384 . S
N485 C477 1.427 . S
N485 C483 1.384 . S
H486 C492 0.930 . S
H487 C496 0.930 . S
H488 C501 0.929 . S
H489 C499 0.929 . S
H490 C494 0.929 . S
H491 C500 0.929 . S
C492 H486 0.930 . S
C492 C493 1.367 . S
C492 C500 1.378 . S
C493 C492 1.367 . S
C493 C501 1.433 . S
C494 H490 0.929 . S
C494 C496 1.378 . S
C494 C498 1.350 . S
C495 C498 1.463 . S
C495 C500 1.350 . S
C495 N503 1.427 . S
C496 H487 0.930 . S
C496 C494 1.378 . S
C496 C497 1.367 . S
C497 C496 1.367 . S
C497 C499 1.433 . S
C498 C494 1.350 . S
C498 C495 1.463 . S
C498 N502 1.427 . S
C499 H489 0.929 . S
C499 C497 1.433 . S
C499 N502 1.384 . S
C500 H491 0.929 . S
C500 C492 1.378 . S
C500 C495 1.350 . S
C501 H488 0.929 . S
C501 C493 1.433 . S
C501 N503 1.384 . S
N502 C498 1.427 . S
N502 C499 1.384 . S
N503 C495 1.427 . S
N503 C501 1.384 . S
H504 C510 0.930 . S
H505 C514 0.930 . S
H506 C519 0.929 . S
H507 C517 0.929 . S
H508 C512 0.929 . S
H509 C518 0.929 . S
C510 H504 0.930 . S
C510 C511 1.367 . S
C510 C518 1.378 . S
C511 C510 1.367 . S
C511 C519 1.433 . S
C512 H508 0.929 . S
C512 C514 1.378 . S
C512 C516 1.350 . S
C513 C516 1.463 . S
C513 C518 1.350 . S
C513 N521 1.427 . S
C514 H505 0.930 . S
C514 C512 1.378 . S
C514 C515 1.367 . S
C515 C514 1.367 . S
C515 C517 1.433 . S
C516 C512 1.350 . S
C516 C513 1.463 . S
C516 N520 1.427 . S
C517 H507 0.929 . S
C517 C515 1.433 . S
C517 N520 1.384 . S
C518 H509 0.929 . S
C518 C510 1.378 . S
C518 C513 1.350 . S
C519 H506 0.929 . S
C519 C511 1.433 . S
C519 N521 1.384 . S
N520 C516 1.427 . S
N520 C517 1.384 . S
N521 C513 1.427 . S
N521 C519 1.384 . S
H522 C528 0.930 . S
H523 C532 0.930 . S
H524 C537 0.929 . S
H525 C535 0.929 . S
H526 C530 0.929 . S
H527 C536 0.929 . S
C528 H522 0.930 . S
C528 C529 1.367 . S
C528 C536 1.378 . S
C529 C528 1.367 . S
C529 C537 1.433 . S
C530 H526 0.929 . S
C530 C532 1.378 . S
C530 C534 1.350 . S
C531 C534 1.463 . S
C531 C536 1.350 . S
C531 N539 1.427 . S
C532 H523 0.930 . S
C532 C530 1.378 . S
C532 C533 1.367 . S
C533 C532 1.367 . S
C533 C535 1.433 . S
C534 C530 1.350 . S
C534 C531 1.463 . S
C534 N538 1.427 . S
C535 H525 0.929 . S
C535 C533 1.433 . S
C535 N538 1.384 . S
C536 H527 0.929 . S
C536 C528 1.378 . S
C536 C531 1.350 . S
C537 H524 0.929 . S
C537 C529 1.433 . S
C537 N539 1.384 . S
N538 C534 1.427 . S
N538 C535 1.384 . S
N539 C531 1.427 . S
N539 C537 1.384 . S
H540 C546 0.930 . S
H541 C550 0.930 . S
H542 C555 0.929 . S
H543 C553 0.929 . S
H544 C548 0.929 . S
H545 C554 0.929 . S
C546 H540 0.930 . S
C546 C547 1.367 . S
C546 C554 1.378 . S
C547 C546 1.367 . S
C547 C555 1.433 . S
C548 H544 0.929 . S
C548 C550 1.378 . S
C548 C552 1.350 . S
C549 C552 1.463 . S
C549 C554 1.350 . S
C549 N557 1.427 . S
C550 H541 0.930 . S
C550 C548 1.378 . S
C550 C551 1.367 . S
C551 C550 1.367 . S
C551 C553 1.433 . S
C552 C548 1.350 . S
C552 C549 1.463 . S
C552 N556 1.427 . S
C553 H543 0.929 . S
C553 C551 1.433 . S
C553 N556 1.384 . S
C554 H545 0.929 . S
C554 C546 1.378 . S
C554 C549 1.350 . S
C555 H542 0.929 . S
C555 C547 1.433 . S
C555 N557 1.384 . S
N556 C552 1.427 . S
N556 C553 1.384 . S
N557 C549 1.427 . S
N557 C555 1.384 . S
H558 C564 0.930 . S
H559 C568 0.930 . S
H560 C573 0.929 . S
H561 C571 0.929 . S
H562 C566 0.929 . S
H563 C572 0.929 . S
C564 H558 0.930 . S
C564 C565 1.367 . S
C564 C572 1.378 . S
C565 C564 1.367 . S
C565 C573 1.433 . S
C566 H562 0.929 . S
C566 C568 1.378 . S
C566 C570 1.350 . S
C567 C570 1.463 . S
C567 C572 1.350 . S
C567 N575 1.427 . S
C568 H559 0.930 . S
C568 C566 1.378 . S
C568 C569 1.367 . S
C569 C568 1.367 . S
C569 C571 1.433 . S
C570 C566 1.350 . S
C570 C567 1.463 . S
C570 N574 1.427 . S
C571 H561 0.929 . S
C571 C569 1.433 . S
C571 N574 1.384 . S
C572 H563 0.929 . S
C572 C564 1.378 . S
C572 C567 1.350 . S
C573 H560 0.929 . S
C573 C565 1.433 . S
C573 N575 1.384 . S
N574 C570 1.427 . S
N574 C571 1.384 . S
N575 C567 1.427 . S
N575 C573 1.384 . S
H576 C582 0.906 1_556 S
H577 C586 0.930 . S
H578 C591 0.929 . S
H579 C589 0.929 . S
H580 C584 0.929 . S
H581 C590 0.929 . S
C582 H576 0.906 1_554 S
C582 C583 1.377 . S
C582 C590 1.394 . S
C583 C582 1.377 . S
C583 C591 1.433 . S
C584 H580 0.929 . S
C584 C586 1.378 . S
C584 C588 1.350 . S
C585 C588 1.463 . S
C585 C590 1.350 . S
C585 N593 1.427 . S
C586 H577 0.930 . S
C586 C584 1.378 . S
C586 C587 1.367 . S
C587 C586 1.367 . S
C587 C589 1.433 . S
C588 C584 1.350 . S
C588 C585 1.463 . S
C588 N592 1.427 . S
C589 H579 0.929 . S
C589 C587 1.433 . S
C589 N592 1.384 . S
C590 H581 0.929 . S
C590 C582 1.394 . S
C590 C585 1.350 . S
C591 H578 0.929 . S
C591 C583 1.433 . S
C591 N593 1.384 . S
N592 C588 1.427 . S
N592 C589 1.384 . S
N593 C585 1.427 . S
N593 C591 1.384 . S
H594 C600 0.930 . S
H595 C604 0.930 . S
H596 C609 0.929 . S
H597 C607 0.929 . S
H598 C602 0.929 . S
H599 C608 0.929 . S
C600 H594 0.930 . S
C600 C601 1.367 . S
C600 C608 1.378 . S
C601 C600 1.367 . S
C601 C609 1.433 . S
C602 H598 0.929 . S
C602 C604 1.378 . S
C602 C606 1.350 . S
C603 C606 1.463 . S
C603 C608 1.350 . S
C603 N611 1.427 . S
C604 H595 0.930 . S
C604 C602 1.378 . S
C604 C605 1.367 . S
C605 C604 1.367 . S
C605 C607 1.433 . S
C606 C602 1.350 . S
C606 C603 1.463 . S
C606 N610 1.427 . S
C607 H597 0.929 . S
C607 C605 1.433 . S
C607 N610 1.384 . S
C608 H599 0.929 . S
C608 C600 1.378 . S
C608 C603 1.350 . S
C609 H596 0.929 . S
C609 C601 1.433 . S
C609 N611 1.384 . S
N610 C606 1.427 . S
N610 C607 1.384 . S
N611 C603 1.427 . S
N611 C609 1.384 . S
H612 C618 0.930 . S
H613 C622 0.930 . S
H614 C627 0.929 . S
H615 C625 0.929 . S
H616 C620 0.929 . S
H617 C626 0.929 . S
C618 H612 0.930 . S
C618 C619 1.367 . S
C618 C626 1.378 . S
C619 C618 1.367 . S
C619 C627 1.433 . S
C620 H616 0.929 . S
C620 C622 1.378 . S
C620 C624 1.350 . S
C621 C624 1.463 . S
C621 C626 1.350 . S
C621 N629 1.427 . S
C622 H613 0.930 . S
C622 C620 1.378 . S
C622 C623 1.367 . S
C623 C622 1.367 . S
C623 C625 1.433 . S
C624 C620 1.350 . S
C624 C621 1.463 . S
C624 N628 1.427 . S
C625 H615 0.929 . S
C625 C623 1.433 . S
C625 N628 1.384 . S
C626 H617 0.929 . S
C626 C618 1.378 . S
C626 C621 1.350 . S
C627 H614 0.929 . S
C627 C619 1.433 . S
C627 N629 1.384 . S
N628 C624 1.427 . S
N628 C625 1.384 . S
N629 C621 1.427 . S
N629 C627 1.384 . S
H630 C636 0.930 . S
H631 C640 0.930 . S
H632 C645 0.929 . S
H633 C643 0.929 . S
H634 C638 0.929 . S
H635 C644 0.929 . S
C636 H630 0.930 . S
C636 C637 1.367 . S
C636 C644 1.378 . S
C637 C636 1.367 . S
C637 C645 1.433 . S
C638 H634 0.929 . S
C638 C640 1.378 . S
C638 C642 1.350 . S
C639 C642 1.463 . S
C639 C644 1.350 . S
C639 N647 1.427 . S
C640 H631 0.930 . S
C640 C638 1.378 . S
C640 C641 1.367 . S
C641 C640 1.367 . S
C641 C643 1.433 . S
C642 C638 1.350 . S
C642 C639 1.463 . S
C642 N646 1.427 . S
C643 H633 0.929 . S
C643 C641 1.433 . S
C643 N646 1.384 . S
C644 H635 0.929 . S
C644 C636 1.378 . S
C644 C639 1.350 . S
C645 H632 0.929 . S
C645 C637 1.433 . S
C645 N647 1.384 . S
N646 C642 1.427 . S
N646 C643 1.384 . S
N647 C639 1.427 . S
N647 C645 1.384 . S
H648 C654 0.930 . S
H649 C658 0.930 . S
H650 C663 0.929 . S
H651 C661 0.929 . S
H652 C656 0.929 . S
H653 C662 0.929 . S
C654 H648 0.930 . S
C654 C655 1.367 . S
C654 C662 1.378 . S
C655 C654 1.367 . S
C655 C663 1.433 . S
C656 H652 0.929 . S
C656 C658 1.378 . S
C656 C660 1.350 . S
C657 C660 1.463 . S
C657 C662 1.350 . S
C657 N665 1.427 . S
C658 H649 0.930 . S
C658 C656 1.378 . S
C658 C659 1.367 . S
C659 C658 1.367 . S
C659 C661 1.433 . S
C660 C656 1.350 . S
C660 C657 1.463 . S
C660 N664 1.427 . S
C661 H651 0.929 . S
C661 C659 1.433 . S
C661 N664 1.384 . S
C662 H653 0.929 . S
C662 C654 1.378 . S
C662 C657 1.350 . S
C663 H650 0.929 . S
C663 C655 1.433 . S
C663 N665 1.384 . S
N664 C660 1.427 . S
N664 C661 1.384 . S
N665 C657 1.427 . S
N665 C663 1.384 . S
H666 C672 0.930 . S
H667 C676 0.930 . S
H668 C681 0.924 1_554 S
H669 C679 0.929 . S
H670 C674 0.929 . S
H671 C680 0.929 . S
C672 H666 0.930 . S
C672 C673 1.367 . S
C672 C680 1.378 . S
C673 C672 1.367 . S
C673 C681 1.436 . S
C674 H670 0.929 . S
C674 C676 1.378 . S
C674 C678 1.350 . S
C675 C678 1.463 . S
C675 C680 1.350 . S
C675 N683 1.427 . S
C676 H667 0.930 . S
C676 C674 1.378 . S
C676 C677 1.367 . S
C677 C676 1.367 . S
C677 C679 1.433 . S
C678 C674 1.350 . S
C678 C675 1.463 . S
C678 N682 1.427 . S
C679 H669 0.929 . S
C679 C677 1.433 . S
C679 N682 1.384 . S
C680 H671 0.929 . S
C680 C672 1.378 . S
C680 C675 1.350 . S
C681 H668 0.924 1_556 S
C681 C673 1.436 . S
C681 N683 1.386 . S
N682 C678 1.427 . S
N682 C679 1.384 . S
N683 C675 1.427 . S
N683 C681 1.386 . S
H684 C690 0.930 . S
H685 C694 0.930 . S
H686 C699 0.929 . S
H687 C697 0.929 . S
H688 C692 0.929 . S
H689 C698 0.929 . S
C690 H684 0.930 . S
C690 C691 1.367 . S
C690 C698 1.378 . S
C691 C690 1.367 . S
C691 C699 1.433 . S
C692 H688 0.929 . S
C692 C694 1.378 . S
C692 C696 1.350 . S
C693 C696 1.463 . S
C693 C698 1.350 . S
C693 N701 1.427 . S
C694 H685 0.930 . S
C694 C692 1.378 . S
C694 C695 1.367 . S
C695 C694 1.367 . S
C695 C697 1.433 . S
C696 C692 1.350 . S
C696 C693 1.463 . S
C696 N700 1.427 . S
C697 H687 0.929 . S
C697 C695 1.433 . S
C697 N700 1.384 . S
C698 H689 0.929 . S
C698 C690 1.378 . S
C698 C693 1.350 . S
C699 H686 0.929 . S
C699 C691 1.433 . S
C699 N701 1.384 . S
N700 C696 1.427 . S
N700 C697 1.384 . S
N701 C693 1.427 . S
N701 C699 1.384 . S
H702 C708 0.930 . S
H703 C712 0.930 . S
H704 C717 0.929 . S
H705 C715 0.929 . S
H706 C710 0.929 . S
H707 C716 0.929 . S
C708 H702 0.930 . S
C708 C709 1.367 . S
C708 C716 1.378 . S
C709 C708 1.367 . S
C709 C717 1.433 . S
C710 H706 0.929 . S
C710 C712 1.378 . S
C710 C714 1.350 . S
C711 C714 1.463 . S
C711 C716 1.350 . S
C711 N719 1.427 . S
C712 H703 0.930 . S
C712 C710 1.378 . S
C712 C713 1.367 . S
C713 C712 1.367 . S
C713 C715 1.433 . S
C714 C710 1.350 . S
C714 C711 1.463 . S
C714 N718 1.427 . S
C715 H705 0.929 . S
C715 C713 1.433 . S
C715 N718 1.384 . S
C716 H707 0.929 . S
C716 C708 1.378 . S
C716 C711 1.350 . S
C717 H704 0.929 . S
C717 C709 1.433 . S
C717 N719 1.384 . S
N718 C714 1.427 . S
N718 C715 1.384 . S
N719 C711 1.427 . S
N719 C717 1.384 . S
H720 C726 0.930 . S
H721 C730 0.930 . S
H722 C735 0.929 . S
H723 C733 0.929 . S
H724 C728 0.929 . S
H725 C734 0.929 . S
C726 H720 0.930 . S
C726 C727 1.367 . S
C726 C734 1.378 . S
C727 C726 1.367 . S
C727 C735 1.433 . S
C728 H724 0.929 . S
C728 C730 1.378 . S
C728 C732 1.350 . S
C729 C732 1.463 . S
C729 C734 1.350 . S
C729 N737 1.427 . S
C730 H721 0.930 . S
C730 C728 1.378 . S
C730 C731 1.367 . S
C731 C730 1.367 . S
C731 C733 1.433 . S
C732 C728 1.350 . S
C732 C729 1.463 . S
C732 N736 1.427 . S
C733 H723 0.929 . S
C733 C731 1.433 . S
C733 N736 1.384 . S
C734 H725 0.929 . S
C734 C726 1.378 . S
C734 C729 1.350 . S
C735 H722 0.929 . S
C735 C727 1.433 . S
C735 N737 1.384 . S
N736 C732 1.427 . S
N736 C733 1.384 . S
N737 C729 1.427 . S
N737 C735 1.384 . S
H738 C744 0.930 . S
H739 C748 0.930 . S
H740 C753 0.929 . S
H741 C751 0.929 . S
H742 C746 0.929 . S
H743 C752 0.929 . S
C744 H738 0.930 . S
C744 C745 1.367 . S
C744 C752 1.378 . S
C745 C744 1.367 . S
C745 C753 1.433 . S
C746 H742 0.929 . S
C746 C748 1.378 . S
C746 C750 1.350 . S
C747 C750 1.463 . S
C747 C752 1.350 . S
C747 N755 1.427 . S
C748 H739 0.930 . S
C748 C746 1.378 . S
C748 C749 1.367 . S
C749 C748 1.367 . S
C749 C751 1.433 . S
C750 C746 1.350 . S
C750 C747 1.463 . S
C750 N754 1.427 . S
C751 H741 0.929 . S
C751 C749 1.433 . S
C751 N754 1.384 . S
C752 H743 0.929 . S
C752 C744 1.378 . S
C752 C747 1.350 . S
C753 H740 0.929 . S
C753 C745 1.433 . S
C753 N755 1.384 . S
N754 C750 1.427 . S
N754 C751 1.384 . S
N755 C747 1.427 . S
N755 C753 1.384 . S
H756 C762 0.930 . S
H757 C766 0.930 . S
H758 C771 0.929 . S
H759 C769 0.929 . S
H760 C764 0.929 . S
H761 C770 0.929 . S
C762 H756 0.930 . S
C762 C763 1.367 . S
C762 C770 1.378 . S
C763 C762 1.367 . S
C763 C771 1.433 . S
C764 H760 0.929 . S
C764 C766 1.378 . S
C764 C768 1.350 . S
C765 C768 1.463 . S
C765 C770 1.350 . S
C765 N773 1.427 . S
C766 H757 0.930 . S
C766 C764 1.378 . S
C766 C767 1.367 . S
C767 C766 1.367 . S
C767 C769 1.433 . S
C768 C764 1.350 . S
C768 C765 1.463 . S
C768 N772 1.427 . S
C769 H759 0.929 . S
C769 C767 1.433 . S
C769 N772 1.384 . S
C770 H761 0.929 . S
C770 C762 1.378 . S
C770 C765 1.350 . S
C771 H758 0.929 . S
C771 C763 1.433 . S
C771 N773 1.384 . S
N772 C768 1.427 . S
N772 C769 1.384 . S
N773 C765 1.427 . S
N773 C771 1.384 . S
H774 C780 0.930 . S
H775 C784 0.930 . S
H776 C789 0.929 . S
H777 C787 0.929 . S
H778 C782 0.929 . S
H779 C788 0.929 . S
C780 H774 0.930 . S
C780 C781 1.367 . S
C780 C788 1.378 . S
C781 C780 1.367 . S
C781 C789 1.433 . S
C782 H778 0.929 . S
C782 C784 1.378 . S
C782 C786 1.350 . S
C783 C786 1.463 . S
C783 C788 1.350 . S
C783 N791 1.427 . S
C784 H775 0.930 . S
C784 C782 1.378 . S
C784 C785 1.367 . S
C785 C784 1.367 . S
C785 C787 1.433 . S
C786 C782 1.350 . S
C786 C783 1.463 . S
C786 N790 1.427 . S
C787 H777 0.929 . S
C787 C785 1.433 . S
C787 N790 1.384 . S
C788 H779 0.929 . S
C788 C780 1.378 . S
C788 C783 1.350 . S
C789 H776 0.929 . S
C789 C781 1.433 . S
C789 N791 1.384 . S
N790 C786 1.427 . S
N790 C787 1.384 . S
N791 C783 1.427 . S
N791 C789 1.384 . S
H792 C798 0.930 . S
H793 C802 0.930 . S
H794 C807 0.929 . S
H795 C805 0.929 . S
H796 C800 0.929 . S
H797 C806 0.929 . S
C798 H792 0.930 . S
C798 C799 1.367 . S
C798 C806 1.378 . S
C799 C798 1.367 . S
C799 C807 1.433 . S
C800 H796 0.929 . S
C800 C802 1.378 . S
C800 C804 1.350 . S
C801 C804 1.463 . S
C801 C806 1.350 . S
C801 N809 1.427 . S
C802 H793 0.930 . S
C802 C800 1.378 . S
C802 C803 1.367 . S
C803 C802 1.367 . S
C803 C805 1.433 . S
C804 C800 1.350 . S
C804 C801 1.463 . S
C804 N808 1.427 . S
C805 H795 0.929 . S
C805 C803 1.433 . S
C805 N808 1.384 . S
C806 H797 0.929 . S
C806 C798 1.378 . S
C806 C801 1.350 . S
C807 H794 0.929 . S
C807 C799 1.433 . S
C807 N809 1.384 . S
N808 C804 1.427 . S
N808 C805 1.384 . S
N809 C801 1.427 . S
N809 C807 1.384 . S
H810 C816 0.930 . S
H811 C820 0.930 . S
H812 C825 0.929 . S
H813 C823 0.929 . S
H814 C818 0.929 . S
H815 C824 0.929 . S
C816 H810 0.930 . S
C816 C817 1.367 . S
C816 C824 1.378 . S
C817 C816 1.367 . S
C817 C825 1.433 . S
C818 H814 0.929 . S
C818 C820 1.378 . S
C818 C822 1.350 . S
C819 C822 1.463 . S
C819 C824 1.350 . S
C819 N827 1.427 . S
C820 H811 0.930 . S
C820 C818 1.378 . S
C820 C821 1.367 . S
C821 C820 1.367 . S
C821 C823 1.433 . S
C822 C818 1.350 . S
C822 C819 1.463 . S
C822 N826 1.427 . S
C823 H813 0.929 . S
C823 C821 1.433 . S
C823 N826 1.384 . S
C824 H815 0.929 . S
C824 C816 1.378 . S
C824 C819 1.350 . S
C825 H812 0.929 . S
C825 C817 1.433 . S
C825 N827 1.384 . S
N826 C822 1.427 . S
N826 C823 1.384 . S
N827 C819 1.427 . S
N827 C825 1.384 . S
H828 C834 0.930 . S
H829 C838 0.930 . S
H830 C843 0.929 . S
H831 C841 0.929 . S
H832 C836 0.929 . S
H833 C842 0.929 . S
C834 H828 0.930 . S
C834 C835 1.367 . S
C834 C842 1.378 . S
C835 C834 1.367 . S
C835 C843 1.433 . S
C836 H832 0.929 . S
C836 C838 1.378 . S
C836 C840 1.350 . S
C837 C840 1.463 . S
C837 C842 1.350 . S
C837 N845 1.427 . S
C838 H829 0.930 . S
C838 C836 1.378 . S
C838 C839 1.367 . S
C839 C838 1.367 . S
C839 C841 1.433 . S
C840 C836 1.350 . S
C840 C837 1.463 . S
C840 N844 1.427 . S
C841 H831 0.929 . S
C841 C839 1.433 . S
C841 N844 1.384 . S
C842 H833 0.929 . S
C842 C834 1.378 . S
C842 C837 1.350 . S
C843 H830 0.929 . S
C843 C835 1.433 . S
C843 N845 1.384 . S
N844 C840 1.427 . S
N844 C841 1.384 . S
N845 C837 1.427 . S
N845 C843 1.384 . S
H846 C852 0.930 . S
H847 C856 0.930 . S
H848 C861 0.929 . S
H849 C859 0.929 . S
H850 C854 0.929 . S
H851 C860 0.929 . S
C852 H846 0.930 . S
C852 C853 1.367 . S
C852 C860 1.378 . S
C853 C852 1.367 . S
C853 C861 1.433 1_655 S
C854 H850 0.929 . S
C854 C856 1.378 . S
C854 C858 1.381 . S
C855 C858 1.460 1_655 S
C855 C860 1.381 . S
C855 N863 1.397 1_655 S
C856 H847 0.930 . S
C856 C854 1.378 . S
C856 C857 1.367 . S
C857 C856 1.367 . S
C857 C859 1.433 1_455 S
C858 C854 1.381 . S
C858 C855 1.460 1_455 S
C858 N862 1.396 1_455 S
C859 H849 0.929 . S
C859 C857 1.433 1_655 S
C859 N862 1.384 . S
C860 H851 0.929 . S
C860 C852 1.378 . S
C860 C855 1.381 . S
C861 H848 0.929 . S
C861 C853 1.433 1_455 S
C861 N863 1.384 . S
N862 C858 1.396 1_655 S
N862 C859 1.384 . S
N863 C855 1.397 1_455 S
N863 C861 1.384 . S
H864 C870 0.930 . S
H865 C874 0.930 . S
H866 C879 0.929 . S
H867 C877 0.929 . S
H868 C872 0.929 . S
H869 C878 0.929 . S
C870 H864 0.930 . S
C870 C871 1.360 1_545 S
C870 C878 1.378 . S
C871 C870 1.360 1_565 S
C871 C879 1.440 . S
C872 H868 0.929 . S
C872 C874 1.378 . S
C872 C876 1.374 . S
C873 C876 1.461 1_546 S
C873 C878 1.375 . S
C873 N881 1.402 1_545 S
C874 H865 0.930 . S
C874 C872 1.378 . S
C874 C875 1.360 1_565 S
C875 C874 1.360 1_545 S
C875 C877 1.440 . S
C876 C872 1.374 . S
C876 C873 1.461 1_564 S
C876 N880 1.402 1_565 S
C877 H867 0.929 . S
C877 C875 1.440 . S
C877 N880 1.384 . S
C878 H869 0.929 . S
C878 C870 1.378 . S
C878 C873 1.375 . S
C879 H866 0.929 . S
C879 C871 1.440 . S
C879 N881 1.384 . S
N880 C876 1.402 1_545 S
N880 C877 1.384 . S
N881 C873 1.402 1_565 S
N881 C879 1.384 . S
H882 C888 0.930 . S
H883 C892 0.930 . S
H884 C897 0.929 . S
H885 C895 0.929 . S
H886 C890 0.929 . S
H887 C896 0.929 . S
C888 H882 0.930 . S
C888 C889 1.367 . S
C888 C896 1.378 . S
C889 C888 1.367 . S
C889 C897 1.433 . S
C890 H886 0.929 . S
C890 C892 1.378 . S
C890 C894 1.350 . S
C891 C894 1.463 . S
C891 C896 1.350 . S
C891 N899 1.427 . S
C892 H883 0.930 . S
C892 C890 1.378 . S
C892 C893 1.367 . S
C893 C892 1.367 . S
C893 C895 1.433 . S
C894 C890 1.350 . S
C894 C891 1.463 . S
C894 N898 1.427 . S
C895 H885 0.929 . S
C895 C893 1.433 . S
C895 N898 1.384 . S
C896 H887 0.929 . S
C896 C888 1.378 . S
C896 C891 1.350 . S
C897 H884 0.929 . S
C897 C889 1.433 . S
C897 N899 1.384 . S
N898 C894 1.427 . S
N898 C895 1.384 . S
N899 C891 1.427 . S
N899 C897 1.384 . S
H900 C906 0.930 . S
H901 C910 0.930 . S
H902 C915 0.929 . S
H903 C913 0.929 . S
H904 C908 0.929 . S
H905 C914 0.929 . S
C906 H900 0.930 . S
C906 C907 1.364 1_655 S
C906 C914 1.378 . S
C907 C906 1.364 1_455 S
C907 C915 1.436 . S
C908 H904 0.929 . S
C908 C910 1.378 . S
C908 C912 1.373 . S
C909 C912 1.462 1_655 S
C909 C914 1.374 . S
C909 N917 1.403 1_655 S
C910 H901 0.930 . S
C910 C908 1.378 . S
C910 C911 1.363 1_455 S
C911 C910 1.363 1_655 S
C911 C913 1.437 . S
C912 C908 1.373 . S
C912 C909 1.462 1_455 S
C912 N916 1.403 1_455 S
C913 H903 0.929 . S
C913 C911 1.437 . S
C913 N916 1.384 . S
C914 H905 0.929 . S
C914 C906 1.378 . S
C914 C909 1.374 . S
C915 H902 0.929 . S
C915 C907 1.436 . S
C915 N917 1.384 . S
N916 C912 1.403 1_655 S
N916 C913 1.384 . S
N917 C909 1.403 1_455 S
N917 C915 1.384 . S
H918 C924 0.930 . S
H919 C928 0.930 . S
H920 C933 0.929 . S
H921 C931 0.929 . S
H922 C926 0.929 . S
H923 C932 0.929 . S
C924 H918 0.930 . S
C924 C925 1.363 1_545 S
C924 C932 1.378 . S
C925 C924 1.363 1_565 S
C925 C933 1.437 . S
C926 H922 0.929 . S
C926 C928 1.378 . S
C926 C930 1.356 . S
C927 C930 1.463 1_545 S
C927 C932 1.356 . S
C927 N935 1.422 1_545 S
C928 H919 0.930 . S
C928 C926 1.378 . S
C928 C929 1.364 1_565 S
C929 C928 1.364 1_545 S
C929 C931 1.436 . S
C930 C926 1.356 . S
C930 C927 1.463 1_565 S
C930 N934 1.421 1_565 S
C931 H921 0.929 . S
C931 C929 1.436 . S
C931 N934 1.384 . S
C932 H923 0.929 . S
C932 C924 1.378 . S
C932 C927 1.356 . S
C933 H920 0.929 . S
C933 C925 1.437 . S
C933 N935 1.384 . S
N934 C930 1.421 1_545 S
N934 C931 1.384 . S
N935 C927 1.422 1_565 S
N935 C933 1.384 . S
C403 C292 0.728 . S
C407 C28 0.720 . S
C421 C61 0.712 . S
C425 C325 0.706 . S
C439 C94 0.705 . S
C443 C358 0.709 . S
C457 C127 0.706 . S
C461 C391 0.712 . S
C475 C160 0.713 . S
C479 C226 0.707 . S
C493 C193 0.719 . S
C497 C259 0.727 . S
C511 N5 1.726 . S
C515 C173 1.752 . S
C529 C8 1.754 . S
C533 N38 1.736 . S
C547 N71 1.725 . S
C551 C41 1.755 . S
C565 C74 1.750 . S
C569 N104 1.735 . S
C583 C107 1.758 1_554 S
C587 N137 1.731 . S
C601 N170 1.725 . S
C605 C140 1.758 . S
C619 C239 1.754 . S
C623 N203 1.725 . S
C637 C272 1.752 . S
C641 N236 1.736 . S
C655 C305 1.755 . S
C659 N269 1.724 . S
C673 C338 1.752 . S
C677 N302 1.736 . S
C691 C371 1.757 . S
C695 N335 1.733 . S
C709 N368 1.736 . S
C713 C206 1.751 . S
C727 C17 1.305 . S
C731 C215 1.304 . S
C745 C50 1.303 . S
C749 C248 1.303 . S
C763 C83 1.304 . S
C767 C281 1.305 . S
C781 C116 1.305 . S
C785 C314 1.305 . S
C799 C347 1.305 . S
C803 C149 1.303 . S
C817 C182 1.306 . S
C821 C380 1.305 . S
C835 N311 0.911 . S
C839 N14 0.906 . S
C853 N47 0.918 1_655 S
C857 N344 0.914 1_455 S
C871 N80 0.888 1_565 S
C875 N377 0.885 1_545 S
C889 N113 0.889 . S
C893 N212 0.892 . S
C907 N146 0.887 1_455 S
C911 N245 0.886 1_655 S
C925 N278 0.888 1_565 S
C929 N179 0.885 1_545 S
