# Generated by pormake.
# Topology wse, (4)-cn, num edge types: 1
# Building blocks:
#     Node 0, Type 0, BuildingBlock: GALJAG_clean_sbu_0, # of connection points: 4
#     Node 1, Type 0, BuildingBlock: GALJAG_clean_sbu_0, # of connection points: 4
#     Node 2, Type 0, BuildingBlock: GALJAG_clean_sbu_0, # of connection points: 4
#     Node 3, Type 0, BuildingBlock: GALJAG_clean_sbu_0, # of connection points: 4
#     Node 4, Type 0, BuildingBlock: GALJAG_clean_sbu_0, # of connection points: 4
#     Node 5, Type 0, BuildingBlock: GALJAG_clean_sbu_0, # of connection points: 4
#     Node 6, Type 0, BuildingBlock: GALJAG_clean_sbu_0, # of connection points: 4
#     Node 7, Type 0, BuildingBlock: GALJAG_clean_sbu_0, # of connection points: 4
#     Node 8, Type 0, BuildingBlock: GALJAG_clean_sbu_0, # of connection points: 4
#     Node 9, Type 0, BuildingBlock: GALJAG_clean_sbu_0, # of connection points: 4
#     Node 10, Type 0, BuildingBlock: GALJAG_clean_sbu_0, # of connection points: 4
#     Node 11, Type 0, BuildingBlock: GALJAG_clean_sbu_0, # of connection points: 4
#     Node 12, Type 0, BuildingBlock: GALJAG_clean_sbu_0, # of connection points: 4
#     Node 13, Type 0, BuildingBlock: GALJAG_clean_sbu_0, # of connection points: 4
#     Node 14, Type 0, BuildingBlock: GALJAG_clean_sbu_0, # of connection points: 4
#     Node 15, Type 0, BuildingBlock: GALJAG_clean_sbu_0, # of connection points: 4
#     Node 16, Type 0, BuildingBlock: GALJAG_clean_sbu_0, # of connection points: 4
#     Node 17, Type 0, BuildingBlock: GALJAG_clean_sbu_0, # of connection points: 4
#     Node 18, Type 0, BuildingBlock: GALJAG_clean_sbu_0, # of connection points: 4
#     Node 19, Type 0, BuildingBlock: GALJAG_clean_sbu_0, # of connection points: 4
#     Node 20, Type 0, BuildingBlock: GALJAG_clean_sbu_0, # of connection points: 4
#     Node 21, Type 0, BuildingBlock: GALJAG_clean_sbu_0, # of connection points: 4
#     Node 22, Type 0, BuildingBlock: GALJAG_clean_sbu_0, # of connection points: 4
#     Node 23, Type 0, BuildingBlock: GALJAG_clean_sbu_0, # of connection points: 4
#     Node 24, Type 0, BuildingBlock: GALJAG_clean_sbu_0, # of connection points: 4
#     Node 25, Type 0, BuildingBlock: GALJAG_clean_sbu_0, # of connection points: 4
#     Node 26, Type 0, BuildingBlock: GALJAG_clean_sbu_0, # of connection points: 4
#     Node 27, Type 0, BuildingBlock: GALJAG_clean_sbu_0, # of connection points: 4
#     Node 28, Type 0, BuildingBlock: GALJAG_clean_sbu_0, # of connection points: 4
#     Node 29, Type 0, BuildingBlock: GALJAG_clean_sbu_0, # of connection points: 4
#     Node 30, Type 0, BuildingBlock: GALJAG_clean_sbu_0, # of connection points: 4
#     Node 31, Type 0, BuildingBlock: GALJAG_clean_sbu_0, # of connection points: 4
#     Node 32, Type 0, BuildingBlock: GALJAG_clean_sbu_0, # of connection points: 4
#     Node 33, Type 0, BuildingBlock: GALJAG_clean_sbu_0, # of connection points: 4
#     Node 34, Type 0, BuildingBlock: GALJAG_clean_sbu_0, # of connection points: 4
#     Node 35, Type 0, BuildingBlock: GALJAG_clean_sbu_0, # of connection points: 4
#     Node 36, Type 0, BuildingBlock: GALJAG_clean_sbu_0, # of connection points: 4
#     Node 37, Type 0, BuildingBlock: GALJAG_clean_sbu_0, # of connection points: 4
#     Node 38, Type 0, BuildingBlock: GALJAG_clean_sbu_0, # of connection points: 4
#     Node 39, Type 0, BuildingBlock: GALJAG_clean_sbu_0, # of connection points: 4
#     Node 40, Type 0, BuildingBlock: GALJAG_clean_sbu_0, # of connection points: 4
#     Node 41, Type 0, BuildingBlock: GALJAG_clean_sbu_0, # of connection points: 4
#     Node 42, Type 0, BuildingBlock: GALJAG_clean_sbu_0, # of connection points: 4
#     Node 43, Type 0, BuildingBlock: GALJAG_clean_sbu_0, # of connection points: 4
#     Node 44, Type 0, BuildingBlock: GALJAG_clean_sbu_0, # of connection points: 4
#     Node 45, Type 0, BuildingBlock: GALJAG_clean_sbu_0, # of connection points: 4
#     Node 46, Type 0, BuildingBlock: GALJAG_clean_sbu_0, # of connection points: 4
#     Node 47, Type 0, BuildingBlock: GALJAG_clean_sbu_0, # of connection points: 4
#     Node 48, Type 0, BuildingBlock: GALJAG_clean_sbu_0, # of connection points: 4
#     Node 49, Type 0, BuildingBlock: GALJAG_clean_sbu_0, # of connection points: 4
#     Node 50, Type 0, BuildingBlock: GALJAG_clean_sbu_0, # of connection points: 4
#     Node 51, Type 0, BuildingBlock: GALJAG_clean_sbu_0, # of connection points: 4
#     Node 52, Type 0, BuildingBlock: GALJAG_clean_sbu_0, # of connection points: 4
#     Node 53, Type 0, BuildingBlock: GALJAG_clean_sbu_0, # of connection points: 4
#     Node 54, Type 0, BuildingBlock: GALJAG_clean_sbu_0, # of connection points: 4
#     Node 55, Type 0, BuildingBlock: GALJAG_clean_sbu_0, # of connection points: 4
#     Node 56, Type 0, BuildingBlock: GALJAG_clean_sbu_0, # of connection points: 4
#     Node 57, Type 0, BuildingBlock: GALJAG_clean_sbu_0, # of connection points: 4
#     Node 58, Type 0, BuildingBlock: GALJAG_clean_sbu_0, # of connection points: 4
#     Node 59, Type 0, BuildingBlock: GALJAG_clean_sbu_0, # of connection points: 4
#     Node 60, Type 0, BuildingBlock: GALJAG_clean_sbu_0, # of connection points: 4
#     Node 61, Type 0, BuildingBlock: GALJAG_clean_sbu_0, # of connection points: 4
#     Node 62, Type 0, BuildingBlock: GALJAG_clean_sbu_0, # of connection points: 4
#     Node 63, Type 0, BuildingBlock: GALJAG_clean_sbu_0, # of connection points: 4
#     Node 64, Type 0, BuildingBlock: GALJAG_clean_sbu_0, # of connection points: 4
#     Node 65, Type 0, BuildingBlock: GALJAG_clean_sbu_0, # of connection points: 4
#     Node 66, Type 0, BuildingBlock: GALJAG_clean_sbu_0, # of connection points: 4
#     Node 67, Type 0, BuildingBlock: GALJAG_clean_sbu_0, # of connection points: 4
#     Node 68, Type 0, BuildingBlock: GALJAG_clean_sbu_0, # of connection points: 4
#     Node 69, Type 0, BuildingBlock: GALJAG_clean_sbu_0, # of connection points: 4
#     Node 70, Type 0, BuildingBlock: GALJAG_clean_sbu_0, # of connection points: 4
#     Node 71, Type 0, BuildingBlock: GALJAG_clean_sbu_0, # of connection points: 4
#     Node 72, Type 0, BuildingBlock: GALJAG_clean_sbu_0, # of connection points: 4
#     Node 73, Type 0, BuildingBlock: GALJAG_clean_sbu_0, # of connection points: 4
#     Node 74, Type 0, BuildingBlock: GALJAG_clean_sbu_0, # of connection points: 4
#     Node 75, Type 0, BuildingBlock: GALJAG_clean_sbu_0, # of connection points: 4
#     Node 76, Type 0, BuildingBlock: GALJAG_clean_sbu_0, # of connection points: 4
#     Node 77, Type 0, BuildingBlock: GALJAG_clean_sbu_0, # of connection points: 4
#     Node 78, Type 0, BuildingBlock: GALJAG_clean_sbu_0, # of connection points: 4
#     Node 79, Type 0, BuildingBlock: GALJAG_clean_sbu_0, # of connection points: 4
#     Node 80, Type 0, BuildingBlock: GALJAG_clean_sbu_0, # of connection points: 4
#     Node 81, Type 0, BuildingBlock: GALJAG_clean_sbu_0, # of connection points: 4
#     Node 82, Type 0, BuildingBlock: GALJAG_clean_sbu_0, # of connection points: 4
#     Node 83, Type 0, BuildingBlock: GALJAG_clean_sbu_0, # of connection points: 4
#     Node 84, Type 0, BuildingBlock: GALJAG_clean_sbu_0, # of connection points: 4
#     Node 85, Type 0, BuildingBlock: GALJAG_clean_sbu_0, # of connection points: 4
#     Node 86, Type 0, BuildingBlock: GALJAG_clean_sbu_0, # of connection points: 4
#     Node 87, Type 0, BuildingBlock: GALJAG_clean_sbu_0, # of connection points: 4
#     Node 88, Type 0, BuildingBlock: GALJAG_clean_sbu_0, # of connection points: 4
#     Node 89, Type 0, BuildingBlock: GALJAG_clean_sbu_0, # of connection points: 4
#     Node 90, Type 0, BuildingBlock: GALJAG_clean_sbu_0, # of connection points: 4
#     Node 91, Type 0, BuildingBlock: GALJAG_clean_sbu_0, # of connection points: 4
#     Node 92, Type 0, BuildingBlock: GALJAG_clean_sbu_0, # of connection points: 4
#     Node 93, Type 0, BuildingBlock: GALJAG_clean_sbu_0, # of connection points: 4
#     Node 94, Type 0, BuildingBlock: GALJAG_clean_sbu_0, # of connection points: 4
#     Node 95, Type 0, BuildingBlock: GALJAG_clean_sbu_0, # of connection points: 4
#     Edge 96, Type (0, 0), BuildingBlock: OJICUG_clean_linker_0, # of connection points: 2
#     Edge 97, Type (0, 0), BuildingBlock: OJICUG_clean_linker_0, # of connection points: 2
#     Edge 98, Type (0, 0), BuildingBlock: OJICUG_clean_linker_0, # of connection points: 2
#     Edge 99, Type (0, 0), BuildingBlock: OJICUG_clean_linker_0, # of connection points: 2
#     Edge 100, Type (0, 0), BuildingBlock: OJICUG_clean_linker_0, # of connection points: 2
#     Edge 101, Type (0, 0), BuildingBlock: OJICUG_clean_linker_0, # of connection points: 2
#     Edge 102, Type (0, 0), BuildingBlock: OJICUG_clean_linker_0, # of connection points: 2
#     Edge 103, Type (0, 0), BuildingBlock: OJICUG_clean_linker_0, # of connection points: 2
#     Edge 104, Type (0, 0), BuildingBlock: OJICUG_clean_linker_0, # of connection points: 2
#     Edge 105, Type (0, 0), BuildingBlock: OJICUG_clean_linker_0, # of connection points: 2
#     Edge 106, Type (0, 0), BuildingBlock: OJICUG_clean_linker_0, # of connection points: 2
#     Edge 107, Type (0, 0), BuildingBlock: OJICUG_clean_linker_0, # of connection points: 2
#     Edge 108, Type (0, 0), BuildingBlock: OJICUG_clean_linker_0, # of connection points: 2
#     Edge 109, Type (0, 0), BuildingBlock: OJICUG_clean_linker_0, # of connection points: 2
#     Edge 110, Type (0, 0), BuildingBlock: OJICUG_clean_linker_0, # of connection points: 2
#     Edge 111, Type (0, 0), BuildingBlock: OJICUG_clean_linker_0, # of connection points: 2
#     Edge 112, Type (0, 0), BuildingBlock: OJICUG_clean_linker_0, # of connection points: 2
#     Edge 113, Type (0, 0), BuildingBlock: OJICUG_clean_linker_0, # of connection points: 2
#     Edge 114, Type (0, 0), BuildingBlock: OJICUG_clean_linker_0, # of connection points: 2
#     Edge 115, Type (0, 0), BuildingBlock: OJICUG_clean_linker_0, # of connection points: 2
#     Edge 116, Type (0, 0), BuildingBlock: OJICUG_clean_linker_0, # of connection points: 2
#     Edge 117, Type (0, 0), BuildingBlock: OJICUG_clean_linker_0, # of connection points: 2
#     Edge 118, Type (0, 0), BuildingBlock: OJICUG_clean_linker_0, # of connection points: 2
#     Edge 119, Type (0, 0), BuildingBlock: OJICUG_clean_linker_0, # of connection points: 2
#     Edge 120, Type (0, 0), BuildingBlock: OJICUG_clean_linker_0, # of connection points: 2
#     Edge 121, Type (0, 0), BuildingBlock: OJICUG_clean_linker_0, # of connection points: 2
#     Edge 122, Type (0, 0), BuildingBlock: OJICUG_clean_linker_0, # of connection points: 2
#     Edge 123, Type (0, 0), BuildingBlock: OJICUG_clean_linker_0, # of connection points: 2
#     Edge 124, Type (0, 0), BuildingBlock: OJICUG_clean_linker_0, # of connection points: 2
#     Edge 125, Type (0, 0), BuildingBlock: OJICUG_clean_linker_0, # of connection points: 2
#     Edge 126, Type (0, 0), BuildingBlock: OJICUG_clean_linker_0, # of connection points: 2
#     Edge 127, Type (0, 0), BuildingBlock: OJICUG_clean_linker_0, # of connection points: 2
#     Edge 128, Type (0, 0), BuildingBlock: OJICUG_clean_linker_0, # of connection points: 2
#     Edge 129, Type (0, 0), BuildingBlock: OJICUG_clean_linker_0, # of connection points: 2
#     Edge 130, Type (0, 0), BuildingBlock: OJICUG_clean_linker_0, # of connection points: 2
#     Edge 131, Type (0, 0), BuildingBlock: OJICUG_clean_linker_0, # of connection points: 2
#     Edge 132, Type (0, 0), BuildingBlock: OJICUG_clean_linker_0, # of connection points: 2
#     Edge 133, Type (0, 0), BuildingBlock: OJICUG_clean_linker_0, # of connection points: 2
#     Edge 134, Type (0, 0), BuildingBlock: OJICUG_clean_linker_0, # of connection points: 2
#     Edge 135, Type (0, 0), BuildingBlock: OJICUG_clean_linker_0, # of connection points: 2
#     Edge 136, Type (0, 0), BuildingBlock: OJICUG_clean_linker_0, # of connection points: 2
#     Edge 137, Type (0, 0), BuildingBlock: OJICUG_clean_linker_0, # of connection points: 2
#     Edge 138, Type (0, 0), BuildingBlock: OJICUG_clean_linker_0, # of connection points: 2
#     Edge 139, Type (0, 0), BuildingBlock: OJICUG_clean_linker_0, # of connection points: 2
#     Edge 140, Type (0, 0), BuildingBlock: OJICUG_clean_linker_0, # of connection points: 2
#     Edge 141, Type (0, 0), BuildingBlock: OJICUG_clean_linker_0, # of connection points: 2
#     Edge 142, Type (0, 0), BuildingBlock: OJICUG_clean_linker_0, # of connection points: 2
#     Edge 143, Type (0, 0), BuildingBlock: OJICUG_clean_linker_0, # of connection points: 2
#     Edge 144, Type (0, 0), BuildingBlock: OJICUG_clean_linker_0, # of connection points: 2
#     Edge 145, Type (0, 0), BuildingBlock: OJICUG_clean_linker_0, # of connection points: 2
#     Edge 146, Type (0, 0), BuildingBlock: OJICUG_clean_linker_0, # of connection points: 2
#     Edge 147, Type (0, 0), BuildingBlock: OJICUG_clean_linker_0, # of connection points: 2
#     Edge 148, Type (0, 0), BuildingBlock: OJICUG_clean_linker_0, # of connection points: 2
#     Edge 149, Type (0, 0), BuildingBlock: OJICUG_clean_linker_0, # of connection points: 2
#     Edge 150, Type (0, 0), BuildingBlock: OJICUG_clean_linker_0, # of connection points: 2
#     Edge 151, Type (0, 0), BuildingBlock: OJICUG_clean_linker_0, # of connection points: 2
#     Edge 152, Type (0, 0), BuildingBlock: OJICUG_clean_linker_0, # of connection points: 2
#     Edge 153, Type (0, 0), BuildingBlock: OJICUG_clean_linker_0, # of connection points: 2
#     Edge 154, Type (0, 0), BuildingBlock: OJICUG_clean_linker_0, # of connection points: 2
#     Edge 155, Type (0, 0), BuildingBlock: OJICUG_clean_linker_0, # of connection points: 2
#     Edge 156, Type (0, 0), BuildingBlock: OJICUG_clean_linker_0, # of connection points: 2
#     Edge 157, Type (0, 0), BuildingBlock: OJICUG_clean_linker_0, # of connection points: 2
#     Edge 158, Type (0, 0), BuildingBlock: OJICUG_clean_linker_0, # of connection points: 2
#     Edge 159, Type (0, 0), BuildingBlock: OJICUG_clean_linker_0, # of connection points: 2
#     Edge 160, Type (0, 0), BuildingBlock: OJICUG_clean_linker_0, # of connection points: 2
#     Edge 161, Type (0, 0), BuildingBlock: OJICUG_clean_linker_0, # of connection points: 2
#     Edge 162, Type (0, 0), BuildingBlock: OJICUG_clean_linker_0, # of connection points: 2
#     Edge 163, Type (0, 0), BuildingBlock: OJICUG_clean_linker_0, # of connection points: 2
#     Edge 164, Type (0, 0), BuildingBlock: OJICUG_clean_linker_0, # of connection points: 2
#     Edge 165, Type (0, 0), BuildingBlock: OJICUG_clean_linker_0, # of connection points: 2
#     Edge 166, Type (0, 0), BuildingBlock: OJICUG_clean_linker_0, # of connection points: 2
#     Edge 167, Type (0, 0), BuildingBlock: OJICUG_clean_linker_0, # of connection points: 2
#     Edge 168, Type (0, 0), BuildingBlock: OJICUG_clean_linker_0, # of connection points: 2
#     Edge 169, Type (0, 0), BuildingBlock: OJICUG_clean_linker_0, # of connection points: 2
#     Edge 170, Type (0, 0), BuildingBlock: OJICUG_clean_linker_0, # of connection points: 2
#     Edge 171, Type (0, 0), BuildingBlock: OJICUG_clean_linker_0, # of connection points: 2
#     Edge 172, Type (0, 0), BuildingBlock: OJICUG_clean_linker_0, # of connection points: 2
#     Edge 173, Type (0, 0), BuildingBlock: OJICUG_clean_linker_0, # of connection points: 2
#     Edge 174, Type (0, 0), BuildingBlock: OJICUG_clean_linker_0, # of connection points: 2
#     Edge 175, Type (0, 0), BuildingBlock: OJICUG_clean_linker_0, # of connection points: 2
#     Edge 176, Type (0, 0), BuildingBlock: OJICUG_clean_linker_0, # of connection points: 2
#     Edge 177, Type (0, 0), BuildingBlock: OJICUG_clean_linker_0, # of connection points: 2
#     Edge 178, Type (0, 0), BuildingBlock: OJICUG_clean_linker_0, # of connection points: 2
#     Edge 179, Type (0, 0), BuildingBlock: OJICUG_clean_linker_0, # of connection points: 2
#     Edge 180, Type (0, 0), BuildingBlock: OJICUG_clean_linker_0, # of connection points: 2
#     Edge 181, Type (0, 0), BuildingBlock: OJICUG_clean_linker_0, # of connection points: 2
#     Edge 182, Type (0, 0), BuildingBlock: OJICUG_clean_linker_0, # of connection points: 2
#     Edge 183, Type (0, 0), BuildingBlock: OJICUG_clean_linker_0, # of connection points: 2
#     Edge 184, Type (0, 0), BuildingBlock: OJICUG_clean_linker_0, # of connection points: 2
#     Edge 185, Type (0, 0), BuildingBlock: OJICUG_clean_linker_0, # of connection points: 2
#     Edge 186, Type (0, 0), BuildingBlock: OJICUG_clean_linker_0, # of connection points: 2
#     Edge 187, Type (0, 0), BuildingBlock: OJICUG_clean_linker_0, # of connection points: 2
#     Edge 188, Type (0, 0), BuildingBlock: OJICUG_clean_linker_0, # of connection points: 2
#     Edge 189, Type (0, 0), BuildingBlock: OJICUG_clean_linker_0, # of connection points: 2
#     Edge 190, Type (0, 0), BuildingBlock: OJICUG_clean_linker_0, # of connection points: 2
#     Edge 191, Type (0, 0), BuildingBlock: OJICUG_clean_linker_0, # of connection points: 2
#     Edge 192, Type (0, 0), BuildingBlock: OJICUG_clean_linker_0, # of connection points: 2
#     Edge 193, Type (0, 0), BuildingBlock: OJICUG_clean_linker_0, # of connection points: 2
#     Edge 194, Type (0, 0), BuildingBlock: OJICUG_clean_linker_0, # of connection points: 2
#     Edge 195, Type (0, 0), BuildingBlock: OJICUG_clean_linker_0, # of connection points: 2
#     Edge 196, Type (0, 0), BuildingBlock: OJICUG_clean_linker_0, # of connection points: 2
#     Edge 197, Type (0, 0), BuildingBlock: OJICUG_clean_linker_0, # of connection points: 2
#     Edge 198, Type (0, 0), BuildingBlock: OJICUG_clean_linker_0, # of connection points: 2
#     Edge 199, Type (0, 0), BuildingBlock: OJICUG_clean_linker_0, # of connection points: 2
#     Edge 200, Type (0, 0), BuildingBlock: OJICUG_clean_linker_0, # of connection points: 2
#     Edge 201, Type (0, 0), BuildingBlock: OJICUG_clean_linker_0, # of connection points: 2
#     Edge 202, Type (0, 0), BuildingBlock: OJICUG_clean_linker_0, # of connection points: 2
#     Edge 203, Type (0, 0), BuildingBlock: OJICUG_clean_linker_0, # of connection points: 2
#     Edge 204, Type (0, 0), BuildingBlock: OJICUG_clean_linker_0, # of connection points: 2
#     Edge 205, Type (0, 0), BuildingBlock: OJICUG_clean_linker_0, # of connection points: 2
#     Edge 206, Type (0, 0), BuildingBlock: OJICUG_clean_linker_0, # of connection points: 2
#     Edge 207, Type (0, 0), BuildingBlock: OJICUG_clean_linker_0, # of connection points: 2
#     Edge 208, Type (0, 0), BuildingBlock: OJICUG_clean_linker_0, # of connection points: 2
#     Edge 209, Type (0, 0), BuildingBlock: OJICUG_clean_linker_0, # of connection points: 2
#     Edge 210, Type (0, 0), BuildingBlock: OJICUG_clean_linker_0, # of connection points: 2
#     Edge 211, Type (0, 0), BuildingBlock: OJICUG_clean_linker_0, # of connection points: 2
#     Edge 212, Type (0, 0), BuildingBlock: OJICUG_clean_linker_0, # of connection points: 2
#     Edge 213, Type (0, 0), BuildingBlock: OJICUG_clean_linker_0, # of connection points: 2
#     Edge 214, Type (0, 0), BuildingBlock: OJICUG_clean_linker_0, # of connection points: 2
#     Edge 215, Type (0, 0), BuildingBlock: OJICUG_clean_linker_0, # of connection points: 2
#     Edge 216, Type (0, 0), BuildingBlock: OJICUG_clean_linker_0, # of connection points: 2
#     Edge 217, Type (0, 0), BuildingBlock: OJICUG_clean_linker_0, # of connection points: 2
#     Edge 218, Type (0, 0), BuildingBlock: OJICUG_clean_linker_0, # of connection points: 2
#     Edge 219, Type (0, 0), BuildingBlock: OJICUG_clean_linker_0, # of connection points: 2
#     Edge 220, Type (0, 0), BuildingBlock: OJICUG_clean_linker_0, # of connection points: 2
#     Edge 221, Type (0, 0), BuildingBlock: OJICUG_clean_linker_0, # of connection points: 2
#     Edge 222, Type (0, 0), BuildingBlock: OJICUG_clean_linker_0, # of connection points: 2
#     Edge 223, Type (0, 0), BuildingBlock: OJICUG_clean_linker_0, # of connection points: 2
#     Edge 224, Type (0, 0), BuildingBlock: OJICUG_clean_linker_0, # of connection points: 2
#     Edge 225, Type (0, 0), BuildingBlock: OJICUG_clean_linker_0, # of connection points: 2
#     Edge 226, Type (0, 0), BuildingBlock: OJICUG_clean_linker_0, # of connection points: 2
#     Edge 227, Type (0, 0), BuildingBlock: OJICUG_clean_linker_0, # of connection points: 2
#     Edge 228, Type (0, 0), BuildingBlock: OJICUG_clean_linker_0, # of connection points: 2
#     Edge 229, Type (0, 0), BuildingBlock: OJICUG_clean_linker_0, # of connection points: 2
#     Edge 230, Type (0, 0), BuildingBlock: OJICUG_clean_linker_0, # of connection points: 2
#     Edge 231, Type (0, 0), BuildingBlock: OJICUG_clean_linker_0, # of connection points: 2
#     Edge 232, Type (0, 0), BuildingBlock: OJICUG_clean_linker_0, # of connection points: 2
#     Edge 233, Type (0, 0), BuildingBlock: OJICUG_clean_linker_0, # of connection points: 2
#     Edge 234, Type (0, 0), BuildingBlock: OJICUG_clean_linker_0, # of connection points: 2
#     Edge 235, Type (0, 0), BuildingBlock: OJICUG_clean_linker_0, # of connection points: 2
#     Edge 236, Type (0, 0), BuildingBlock: OJICUG_clean_linker_0, # of connection points: 2
#     Edge 237, Type (0, 0), BuildingBlock: OJICUG_clean_linker_0, # of connection points: 2
#     Edge 238, Type (0, 0), BuildingBlock: OJICUG_clean_linker_0, # of connection points: 2
#     Edge 239, Type (0, 0), BuildingBlock: OJICUG_clean_linker_0, # of connection points: 2
#     Edge 240, Type (0, 0), BuildingBlock: OJICUG_clean_linker_0, # of connection points: 2
#     Edge 241, Type (0, 0), BuildingBlock: OJICUG_clean_linker_0, # of connection points: 2
#     Edge 242, Type (0, 0), BuildingBlock: OJICUG_clean_linker_0, # of connection points: 2
#     Edge 243, Type (0, 0), BuildingBlock: OJICUG_clean_linker_0, # of connection points: 2
#     Edge 244, Type (0, 0), BuildingBlock: OJICUG_clean_linker_0, # of connection points: 2
#     Edge 245, Type (0, 0), BuildingBlock: OJICUG_clean_linker_0, # of connection points: 2
#     Edge 246, Type (0, 0), BuildingBlock: OJICUG_clean_linker_0, # of connection points: 2
#     Edge 247, Type (0, 0), BuildingBlock: OJICUG_clean_linker_0, # of connection points: 2
#     Edge 248, Type (0, 0), BuildingBlock: OJICUG_clean_linker_0, # of connection points: 2
#     Edge 249, Type (0, 0), BuildingBlock: OJICUG_clean_linker_0, # of connection points: 2
#     Edge 250, Type (0, 0), BuildingBlock: OJICUG_clean_linker_0, # of connection points: 2
#     Edge 251, Type (0, 0), BuildingBlock: OJICUG_clean_linker_0, # of connection points: 2
#     Edge 252, Type (0, 0), BuildingBlock: OJICUG_clean_linker_0, # of connection points: 2
#     Edge 253, Type (0, 0), BuildingBlock: OJICUG_clean_linker_0, # of connection points: 2
#     Edge 254, Type (0, 0), BuildingBlock: OJICUG_clean_linker_0, # of connection points: 2
#     Edge 255, Type (0, 0), BuildingBlock: OJICUG_clean_linker_0, # of connection points: 2
#     Edge 256, Type (0, 0), BuildingBlock: OJICUG_clean_linker_0, # of connection points: 2
#     Edge 257, Type (0, 0), BuildingBlock: OJICUG_clean_linker_0, # of connection points: 2
#     Edge 258, Type (0, 0), BuildingBlock: OJICUG_clean_linker_0, # of connection points: 2
#     Edge 259, Type (0, 0), BuildingBlock: OJICUG_clean_linker_0, # of connection points: 2
#     Edge 260, Type (0, 0), BuildingBlock: OJICUG_clean_linker_0, # of connection points: 2
#     Edge 261, Type (0, 0), BuildingBlock: OJICUG_clean_linker_0, # of connection points: 2
#     Edge 262, Type (0, 0), BuildingBlock: OJICUG_clean_linker_0, # of connection points: 2
#     Edge 263, Type (0, 0), BuildingBlock: OJICUG_clean_linker_0, # of connection points: 2
#     Edge 264, Type (0, 0), BuildingBlock: OJICUG_clean_linker_0, # of connection points: 2
#     Edge 265, Type (0, 0), BuildingBlock: OJICUG_clean_linker_0, # of connection points: 2
#     Edge 266, Type (0, 0), BuildingBlock: OJICUG_clean_linker_0, # of connection points: 2
#     Edge 267, Type (0, 0), BuildingBlock: OJICUG_clean_linker_0, # of connection points: 2
#     Edge 268, Type (0, 0), BuildingBlock: OJICUG_clean_linker_0, # of connection points: 2
#     Edge 269, Type (0, 0), BuildingBlock: OJICUG_clean_linker_0, # of connection points: 2
#     Edge 270, Type (0, 0), BuildingBlock: OJICUG_clean_linker_0, # of connection points: 2
#     Edge 271, Type (0, 0), BuildingBlock: OJICUG_clean_linker_0, # of connection points: 2
#     Edge 272, Type (0, 0), BuildingBlock: OJICUG_clean_linker_0, # of connection points: 2
#     Edge 273, Type (0, 0), BuildingBlock: OJICUG_clean_linker_0, # of connection points: 2
#     Edge 274, Type (0, 0), BuildingBlock: OJICUG_clean_linker_0, # of connection points: 2
#     Edge 275, Type (0, 0), BuildingBlock: OJICUG_clean_linker_0, # of connection points: 2
#     Edge 276, Type (0, 0), BuildingBlock: OJICUG_clean_linker_0, # of connection points: 2
#     Edge 277, Type (0, 0), BuildingBlock: OJICUG_clean_linker_0, # of connection points: 2
#     Edge 278, Type (0, 0), BuildingBlock: OJICUG_clean_linker_0, # of connection points: 2
#     Edge 279, Type (0, 0), BuildingBlock: OJICUG_clean_linker_0, # of connection points: 2
#     Edge 280, Type (0, 0), BuildingBlock: OJICUG_clean_linker_0, # of connection points: 2
#     Edge 281, Type (0, 0), BuildingBlock: OJICUG_clean_linker_0, # of connection points: 2
#     Edge 282, Type (0, 0), BuildingBlock: OJICUG_clean_linker_0, # of connection points: 2
#     Edge 283, Type (0, 0), BuildingBlock: OJICUG_clean_linker_0, # of connection points: 2
#     Edge 284, Type (0, 0), BuildingBlock: OJICUG_clean_linker_0, # of connection points: 2
#     Edge 285, Type (0, 0), BuildingBlock: OJICUG_clean_linker_0, # of connection points: 2
#     Edge 286, Type (0, 0), BuildingBlock: OJICUG_clean_linker_0, # of connection points: 2
#     Edge 287, Type (0, 0), BuildingBlock: OJICUG_clean_linker_0, # of connection points: 2
# Relax obj value: 0.339
# Max RMSD: 0.171
# Mean RMSD: 0.167
data_MOF--net-wse--node1-GALJAG_clean_sbu_0--edge1-OJICUG_clean_linker_0
_symmetry_space_group_name_H-M    P1
_symmetry_Int_Tables_number       1
_symmetry_cell_setting            triclinic
loop_
_symmetry_equiv_pos_as_xyz
'x, y, z'
_cell_length_a     73.515935
_cell_length_b     73.571045
_cell_length_c     73.587094
_cell_angle_alpha  89.998451
_cell_angle_beta   89.997079
_cell_angle_gamma 90.000784
loop_
_atom_site_label
_atom_site_type_symbol
_atom_site_fract_x
_atom_site_fract_y
_atom_site_fract_z
_atom_type_partial_charge
In0 In 0.07339 0.17366 0.42591 0.0
O1 O 0.04613 0.15995 0.43073 0.0
O2 O 0.04818 0.17729 0.40777 0.0
C3 C 0.09586 0.14835 0.41098 0.0
C4 C 0.0828 0.20825 0.41773 0.0
C5 C 0.07391 0.1737 0.46267 0.0
O6 O 0.07976 0.14494 0.41568 0.0
O7 O 0.1004 0.16472 0.41299 0.0
O8 O 0.08455 0.16398 0.45337 0.0
O9 O 0.06313 0.1833 0.45345 0.0
C10 C 0.03819 0.16715 0.41736 0.0
O11 O 0.08879 0.19994 0.43146 0.0
O12 O 0.07253 0.19888 0.40763 0.0
In13 In 0.82484 0.07266 0.42376 0.0
O14 O 0.81898 0.04904 0.4041 0.0
O15 O 0.84151 0.04684 0.42204 0.0
C16 C 0.84689 0.09757 0.40785 0.0
C17 C 0.7882 0.07446 0.42261 0.0
C18 C 0.8314 0.07668 0.45975 0.0
O19 O 0.85151 0.0813 0.41036 0.0
O20 O 0.83077 0.10109 0.41247 0.0
O21 O 0.82627 0.08966 0.44982 0.0
O22 O 0.83345 0.06184 0.45149 0.0
C23 C 0.83192 0.03936 0.40996 0.0
O24 O 0.79694 0.06669 0.43514 0.0
O25 O 0.79796 0.08125 0.41018 0.0
In26 In 0.92295 0.82217 0.42336 0.0
O27 O 0.9491 0.8187 0.40648 0.0
O28 O 0.94954 0.83674 0.429 0.0
C29 C 0.89964 0.84601 0.40745 0.0
C30 C 0.91386 0.78755 0.41538 0.0
C31 C 0.92238 0.82312 0.46005 0.0
O32 O 0.91635 0.84922 0.40932 0.0
O33 O 0.89487 0.83049 0.41281 0.0
O34 O 0.93144 0.81166 0.4511 0.0
O35 O 0.91352 0.83428 0.4505 0.0
C36 C 0.95832 0.82942 0.41624 0.0
O37 O 0.9076 0.796 0.42889 0.0
O38 O 0.92433 0.79679 0.40535 0.0
In39 In 0.17755 0.91897 0.42371 0.0
O40 O 0.20421 0.90409 0.42793 0.0
O41 O 0.20308 0.92276 0.40597 0.0
C42 C 0.17147 0.91277 0.45939 0.0
C43 C 0.17549 0.95572 0.42171 0.0
C44 C 0.1531 0.89687 0.40688 0.0
O45 O 0.1864 0.90937 0.4517 0.0
O46 O 0.15937 0.91916 0.44903 0.0
O47 O 0.14984 0.91327 0.41047 0.0
O48 O 0.16901 0.89196 0.41076 0.0
C49 C 0.21257 0.91169 0.41508 0.0
O50 O 0.1753 0.94595 0.40757 0.0
O51 O 0.1771 0.94698 0.43634 0.0
In52 In 0.0801 0.82672 0.57685 0.0
O53 O 0.09611 0.80042 0.57443 0.0
O54 O 0.07514 0.80132 0.59426 0.0
C55 C 0.08542 0.83073 0.54069 0.0
C56 C 0.04351 0.82929 0.58006 0.0
C57 C 0.10227 0.85153 0.59304 0.0
O58 O 0.08798 0.81595 0.54894 0.0
O59 O 0.08036 0.84371 0.5507 0.0
O60 O 0.08603 0.8549 0.58886 0.0
O61 O 0.10702 0.83541 0.58996 0.0
C62 C 0.08727 0.79199 0.58644 0.0
O63 O 0.05373 0.82883 0.59388 0.0
O64 O 0.05174 0.82824 0.56509 0.0
In65 In 0.17799 0.08065 0.57748 0.0
O66 O 0.17597 0.05382 0.59376 0.0
O67 O 0.17936 0.05263 0.56511 0.0
C68 C 0.15403 0.10234 0.59535 0.0
C69 C 0.21354 0.08741 0.58403 0.0
C70 C 0.1687 0.08691 0.54252 0.0
O71 O 0.15058 0.08611 0.59124 0.0
O72 O 0.16993 0.10729 0.59145 0.0
O73 O 0.18252 0.09391 0.54987 0.0
O74 O 0.15928 0.07707 0.55294 0.0
C75 C 0.17727 0.04398 0.57973 0.0
O76 O 0.20523 0.09312 0.5702 0.0
O77 O 0.20381 0.07848 0.59503 0.0
In78 In 0.9256 0.17613 0.57651 0.0
O79 O 0.91015 0.20222 0.57041 0.0
O80 O 0.92673 0.20181 0.59406 0.0
C81 C 0.92508 0.17536 0.53979 0.0
C82 C 0.96065 0.16941 0.58542 0.0
C83 C 0.90296 0.15129 0.59183 0.0
O84 O 0.91441 0.1659 0.54932 0.0
O85 O 0.93588 0.18517 0.54877 0.0
O86 O 0.91883 0.14755 0.58666 0.0
O87 O 0.89876 0.16779 0.59013 0.0
C88 C 0.91631 0.21089 0.58385 0.0
O89 O 0.95277 0.1622 0.57202 0.0
O90 O 0.95068 0.17973 0.59485 0.0
In91 In 0.8253 0.92611 0.57397 0.0
O92 O 0.79914 0.9109 0.56779 0.0
O93 O 0.8008 0.92466 0.59315 0.0
C94 C 0.83245 0.92334 0.53801 0.0
C95 C 0.8217 0.96201 0.58067 0.0
C96 C 0.8523 0.90628 0.58947 0.0
O97 O 0.82453 0.91095 0.5468 0.0
O98 O 0.83706 0.93689 0.5474 0.0
O99 O 0.85511 0.92097 0.58115 0.0
O100 O 0.83575 0.90205 0.59084 0.0
C101 C 0.79121 0.91538 0.58232 0.0
O102 O 0.83202 0.9521 0.59022 0.0
O103 O 0.81333 0.95373 0.56823 0.0
In104 In 0.42234 0.07753 0.17623 0.0
O105 O 0.45029 0.08867 0.18367 0.0
O106 O 0.44767 0.07521 0.1583 0.0
C107 C 0.41437 0.08364 0.21156 0.0
C108 C 0.40533 0.10015 0.15244 0.0
C109 C 0.41934 0.04098 0.17401 0.0
O110 O 0.42734 0.09126 0.20339 0.0
O111 O 0.40493 0.07313 0.20178 0.0
O112 O 0.40546 0.05114 0.17361 0.0
O113 O 0.43422 0.04924 0.17591 0.0
C114 C 0.458 0.08327 0.16936 0.0
O115 O 0.40967 0.08409 0.14851 0.0
O116 O 0.40859 0.10445 0.16864 0.0
In117 In 0.92601 0.42345 0.17564 0.0
O118 O 0.91053 0.42879 0.20184 0.0
O119 O 0.92769 0.40557 0.20107 0.0
C120 C 0.92518 0.46019 0.17517 0.0
C121 C 0.9612 0.41538 0.16862 0.0
C122 C 0.903 0.40801 0.15121 0.0
O123 O 0.93547 0.4512 0.18551 0.0
O124 O 0.91519 0.45066 0.16499 0.0
O125 O 0.91915 0.41223 0.14742 0.0
O126 O 0.89872 0.41076 0.16754 0.0
C127 C 0.91703 0.41538 0.2103 0.0
O128 O 0.95143 0.4055 0.17871 0.0
O129 O 0.95304 0.42878 0.16173 0.0
In130 In 0.57815 0.924 0.17529 0.0
O131 O 0.55044 0.93316 0.18537 0.0
O132 O 0.5509 0.9137 0.16408 0.0
C133 C 0.58572 0.91432 0.20982 0.0
C134 C 0.59405 0.90095 0.1512 0.0
C135 C 0.58571 0.95933 0.16832 0.0
O136 O 0.57198 0.90867 0.20127 0.0
O137 O 0.59616 0.92454 0.20073 0.0
O138 O 0.59485 0.95016 0.17962 0.0
O139 O 0.57339 0.9505 0.16033 0.0
C140 C 0.54141 0.9233 0.17466 0.0
O141 O 0.5905 0.91726 0.14748 0.0
O142 O 0.59042 0.89652 0.1673 0.0
In143 In 0.07386 0.57557 0.17783 0.0
O144 O 0.0889 0.56999 0.20425 0.0
O145 O 0.07173 0.5932 0.20342 0.0
C146 C 0.07462 0.53885 0.17697 0.0
C147 C 0.03879 0.58365 0.17024 0.0
C148 C 0.09721 0.59122 0.15385 0.0
O149 O 0.06421 0.54775 0.18727 0.0
O150 O 0.08476 0.54847 0.16702 0.0
O151 O 0.08101 0.58738 0.14992 0.0
O152 O 0.10139 0.58801 0.17012 0.0
C153 C 0.08223 0.5833 0.21274 0.0
O154 O 0.04836 0.59348 0.18058 0.0
O155 O 0.04709 0.5703 0.16343 0.0
In156 In 0.42504 0.92586 0.82332 0.0
O157 O 0.41274 0.91829 0.85092 0.0
O158 O 0.41323 0.898 0.83063 0.0
C159 C 0.41507 0.96062 0.83004 0.0
C160 C 0.46176 0.92664 0.82542 0.0
C161 C 0.41867 0.91618 0.78853 0.0
O162 O 0.40791 0.95134 0.8175 0.0
O163 O 0.42664 0.95216 0.83943 0.0
O164 O 0.43317 0.91234 0.79684 0.0
O165 O 0.40702 0.92466 0.79792 0.0
C166 C 0.40942 0.90202 0.8468 0.0
O167 O 0.4527 0.93762 0.81589 0.0
O168 O 0.45232 0.91517 0.83398 0.0
In169 In 0.07424 0.42416 0.82307 0.0
O170 O 0.08952 0.42984 0.79681 0.0
O171 O 0.07235 0.40662 0.79741 0.0
C172 C 0.0748 0.46089 0.82398 0.0
C173 C 0.0391 0.41599 0.83027 0.0
C174 C 0.09748 0.40854 0.84718 0.0
O175 O 0.06457 0.45195 0.81355 0.0
O176 O 0.08488 0.45132 0.83404 0.0
O177 O 0.08125 0.41238 0.85104 0.0
O178 O 0.10173 0.41173 0.83093 0.0
C179 C 0.08292 0.41657 0.78822 0.0
O180 O 0.04881 0.40621 0.82 0.0
O181 O 0.04732 0.4293 0.83725 0.0
In182 In 0.57737 0.07434 0.82423 0.0
O183 O 0.58894 0.08121 0.85232 0.0
O184 O 0.58952 0.10184 0.83237 0.0
C185 C 0.58746 0.03938 0.8298 0.0
C186 C 0.54064 0.07376 0.82644 0.0
C187 C 0.58399 0.08479 0.7897 0.0
O188 O 0.57616 0.04761 0.83971 0.0
O189 O 0.59432 0.049 0.81735 0.0
O190 O 0.56918 0.08791 0.79776 0.0
O191 O 0.5958 0.07666 0.7992 0.0
C192 C 0.59267 0.09749 0.8486 0.0
O193 O 0.55016 0.08542 0.83464 0.0
O194 O 0.54962 0.06252 0.81713 0.0
In195 In 0.92548 0.57662 0.82168 0.0
O196 O 0.95103 0.59449 0.81916 0.0
O197 O 0.95213 0.57125 0.83624 0.0
C198 C 0.90205 0.59217 0.84566 0.0
C199 C 0.91724 0.58453 0.78677 0.0
C200 C 0.92488 0.53989 0.82242 0.0
O201 O 0.91832 0.58857 0.84953 0.0
O202 O 0.89782 0.58877 0.82944 0.0
O203 O 0.93521 0.54887 0.81211 0.0
O204 O 0.91472 0.54942 0.83243 0.0
C205 C 0.96051 0.58461 0.82954 0.0
O206 O 0.91047 0.57124 0.79521 0.0
O207 O 0.92778 0.59433 0.79615 0.0
In208 In 0.17598 0.42398 0.07401 0.0
O209 O 0.17972 0.40607 0.04867 0.0
O210 O 0.16129 0.42823 0.04721 0.0
C211 C 0.15209 0.40829 0.09744 0.0
C212 C 0.21089 0.41694 0.08297 0.0
C213 C 0.17478 0.46071 0.07439 0.0
O214 O 0.14799 0.4124 0.08136 0.0
O215 O 0.16847 0.41125 0.10144 0.0
O216 O 0.18489 0.45179 0.06381 0.0
O217 O 0.16516 0.45111 0.08486 0.0
C218 C 0.16886 0.41523 0.03901 0.0
O219 O 0.20224 0.43047 0.08893 0.0
O220 O 0.20175 0.4065 0.07284 0.0
In221 In 0.17545 0.57586 0.92707 0.0
O222 O 0.20175 0.56968 0.91206 0.0
O223 O 0.20104 0.59361 0.92822 0.0
C224 C 0.17456 0.53913 0.92657 0.0
C225 C 0.16838 0.58448 0.96211 0.0
C226 C 0.15129 0.59144 0.90385 0.0
O227 O 0.18457 0.5481 0.93721 0.0
O228 O 0.16491 0.54868 0.91609 0.0
O229 O 0.14728 0.5871 0.9199 0.0
O230 O 0.16769 0.58873 0.89977 0.0
C231 C 0.21027 0.58329 0.91804 0.0
O232 O 0.17911 0.59376 0.95243 0.0
O233 O 0.16091 0.57141 0.95392 0.0
In234 In 0.42404 0.17716 0.92654 0.0
O235 O 0.41308 0.14878 0.92008 0.0
O236 O 0.41104 0.16869 0.8995 0.0
C237 C 0.41572 0.17036 0.96165 0.0
C238 C 0.46079 0.17652 0.92576 0.0
C239 C 0.41622 0.21185 0.91744 0.0
O240 O 0.4059 0.1804 0.95177 0.0
O241 O 0.42921 0.16345 0.95365 0.0
O242 O 0.42957 0.20328 0.91095 0.0
O243 O 0.40632 0.20271 0.9281 0.0
C244 C 0.40858 0.15236 0.90398 0.0
O245 O 0.45183 0.18665 0.93628 0.0
O246 O 0.45123 0.16665 0.9155 0.0
In247 In 0.82395 0.42444 0.92477 0.0
O248 O 0.79758 0.43018 0.9097 0.0
O249 O 0.79838 0.40674 0.92655 0.0
C250 C 0.82473 0.46117 0.92426 0.0
C251 C 0.83137 0.41604 0.95977 0.0
C252 C 0.84798 0.40889 0.90141 0.0
O253 O 0.83465 0.45165 0.91401 0.0
O254 O 0.8145 0.45217 0.93466 0.0
O255 O 0.85198 0.4129 0.91755 0.0
O256 O 0.83165 0.41191 0.8973 0.0
C257 C 0.78909 0.41676 0.91613 0.0
O258 O 0.83842 0.42932 0.95156 0.0
O259 O 0.82088 0.40643 0.95013 0.0
In260 In 0.57675 0.82367 0.92461 0.0
O261 O 0.54946 0.83419 0.9138 0.0
O262 O 0.54904 0.81466 0.93503 0.0
C263 C 0.58402 0.78887 0.91552 0.0
C264 C 0.59236 0.84788 0.90151 0.0
C265 C 0.58564 0.83062 0.95958 0.0
O266 O 0.57044 0.79746 0.90954 0.0
O267 O 0.59439 0.79804 0.9257 0.0
O268 O 0.57257 0.83821 0.95149 0.0
O269 O 0.59477 0.81982 0.94984 0.0
C270 C 0.53999 0.8246 0.92441 0.0
O271 O 0.58816 0.85178 0.91762 0.0
O272 O 0.58947 0.83156 0.89729 0.0
In273 In 0.82432 0.57623 0.07262 0.0
O274 O 0.79799 0.57037 0.0877 0.0
O275 O 0.79871 0.59389 0.07096 0.0
C276 C 0.82508 0.53949 0.07316 0.0
C277 C 0.83161 0.58472 0.03758 0.0
C278 C 0.84838 0.59165 0.09606 0.0
O279 O 0.81488 0.54848 0.06273 0.0
O280 O 0.83499 0.54902 0.08341 0.0
O281 O 0.85247 0.58743 0.08 0.0
O282 O 0.83195 0.58895 0.10002 0.0
C283 C 0.78946 0.58381 0.08136 0.0
O284 O 0.83867 0.5714 0.04573 0.0
O285 O 0.82122 0.59433 0.04731 0.0
In286 In 0.42546 0.825 0.07271 0.0
O287 O 0.41569 0.85378 0.07936 0.0
O288 O 0.4118 0.83361 0.0994 0.0
C289 C 0.41674 0.83166 0.03763 0.0
C290 C 0.46223 0.8252 0.07322 0.0
C291 C 0.41766 0.79038 0.08214 0.0
O292 O 0.40729 0.82129 0.04754 0.0
O293 O 0.43003 0.83897 0.0456 0.0
O294 O 0.4313 0.79885 0.08815 0.0
O295 O 0.40749 0.79959 0.07179 0.0
C296 C 0.41034 0.85013 0.09518 0.0
O297 O 0.45308 0.81573 0.06226 0.0
O298 O 0.45285 0.83461 0.08406 0.0
In299 In 0.5752 0.1768 0.07502 0.0
O300 O 0.58727 0.1489 0.0818 0.0
O301 O 0.58689 0.16856 0.10269 0.0
C302 C 0.58338 0.16952 0.03994 0.0
C303 C 0.53842 0.17636 0.07549 0.0
C304 C 0.58343 0.21148 0.08382 0.0
O305 O 0.59315 0.17982 0.04962 0.0
O306 O 0.57001 0.16259 0.04814 0.0
O307 O 0.56988 0.20316 0.09023 0.0
O308 O 0.59331 0.20209 0.07337 0.0
C309 C 0.59055 0.15247 0.09819 0.0
O310 O 0.54754 0.18674 0.06536 0.0
O311 O 0.54784 0.16606 0.08546 0.0
In312 In 0.9288 0.82581 0.57486 0.0
O313 O 0.91097 0.80073 0.5722 0.0
O314 O 0.93116 0.8005 0.59285 0.0
C315 C 0.90782 0.85222 0.58989 0.0
C316 C 0.96496 0.83109 0.57968 0.0
C317 C 0.92488 0.82469 0.53839 0.0
O318 O 0.90363 0.83564 0.59038 0.0
O319 O 0.92301 0.8554 0.58264 0.0
O320 O 0.91739 0.83679 0.54799 0.0
O321 O 0.93411 0.81325 0.5472 0.0
C322 C 0.91871 0.79191 0.58468 0.0
O323 O 0.9567 0.83412 0.56501 0.0
O324 O 0.95484 0.82589 0.59257 0.0
In325 In 0.1779 0.92953 0.57105 0.0
O326 O 0.17063 0.95785 0.56201 0.0
O327 O 0.17875 0.95494 0.58956 0.0
C328 C 0.17056 0.91796 0.53698 0.0
C329 C 0.21447 0.92806 0.57303 0.0
C330 C 0.15537 0.90743 0.59005 0.0
O331 O 0.16129 0.93008 0.54478 0.0
O332 O 0.18307 0.91127 0.54659 0.0
O333 O 0.17161 0.9033 0.58646 0.0
O334 O 0.15083 0.92315 0.58499 0.0
C335 C 0.17397 0.96557 0.57692 0.0
O336 O 0.20458 0.92217 0.58582 0.0
O337 O 0.20589 0.93475 0.55982 0.0
In338 In 0.07361 0.17754 0.57784 0.0
O339 O 0.07161 0.20358 0.59473 0.0
O340 O 0.08837 0.20383 0.57118 0.0
C341 C 0.09738 0.1547 0.59451 0.0
C342 C 0.03866 0.16999 0.58644 0.0
C343 C 0.0741 0.17573 0.54112 0.0
O344 O 0.10101 0.17106 0.59114 0.0
O345 O 0.08149 0.15003 0.59018 0.0
O346 O 0.06347 0.18594 0.54986 0.0
O347 O 0.08463 0.16635 0.55089 0.0
C348 C 0.08195 0.21263 0.5844 0.0
O349 O 0.04715 0.16219 0.57376 0.0
O350 O 0.04802 0.18126 0.59539 0.0
In351 In 0.82222 0.0762 0.57363 0.0
O352 O 0.79719 0.07725 0.59214 0.0
O353 O 0.79579 0.09037 0.56642 0.0
C354 C 0.84784 0.09703 0.59003 0.0
C355 C 0.81983 0.04027 0.58067 0.0
C356 C 0.83027 0.07895 0.53784 0.0
O357 O 0.83116 0.10091 0.59038 0.0
O358 O 0.85146 0.08224 0.58221 0.0
O359 O 0.83469 0.06543 0.54736 0.0
O360 O 0.82217 0.09134 0.54644 0.0
C361 C 0.78764 0.08602 0.58086 0.0
O362 O 0.81108 0.04815 0.56823 0.0
O363 O 0.82982 0.05062 0.5901 0.0
In364 In 0.92504 0.17611 0.42462 0.0
O365 O 0.95081 0.17963 0.4073 0.0
O366 O 0.95143 0.16072 0.4291 0.0
C367 C 0.92496 0.17506 0.46135 0.0
C368 C 0.91645 0.21092 0.41694 0.0
C369 C 0.90096 0.15296 0.40881 0.0
O370 O 0.93499 0.1856 0.4523 0.0
O371 O 0.9149 0.16489 0.45188 0.0
O372 O 0.89685 0.16885 0.41359 0.0
O373 O 0.91742 0.14896 0.41126 0.0
C374 C 0.96007 0.16841 0.41644 0.0
O375 O 0.92653 0.20152 0.40667 0.0
O376 O 0.91042 0.20258 0.43064 0.0
In377 In 0.82648 0.92877 0.42391 0.0
O378 O 0.79954 0.91979 0.41091 0.0
O379 O 0.79871 0.93462 0.43573 0.0
C380 C 0.8479 0.9035 0.40772 0.0
C381 C 0.83296 0.96202 0.40967 0.0
C382 C 0.83334 0.92498 0.45988 0.0
O383 O 0.83157 0.9005 0.41195 0.0
O384 O 0.85314 0.91948 0.41085 0.0
O385 O 0.83536 0.93976 0.4515 0.0
O386 O 0.82816 0.91193 0.45008 0.0
C387 C 0.7899 0.92657 0.42343 0.0
O388 O 0.84305 0.95461 0.42137 0.0
O389 O 0.81989 0.95224 0.40432 0.0
In390 In 0.07142 0.82413 0.4277 0.0
O391 O 0.07912 0.7972 0.41387 0.0
O392 O 0.06273 0.79644 0.43772 0.0
C393 C 0.09573 0.84523 0.40958 0.0
C394 C 0.03642 0.83072 0.41863 0.0
C395 C 0.08075 0.83012 0.46281 0.0
O396 O 0.09924 0.82927 0.41467 0.0
O397 O 0.07967 0.85021 0.41276 0.0
O398 O 0.06944 0.83992 0.45449 0.0
O399 O 0.08763 0.81764 0.45334 0.0
C400 C 0.07088 0.78757 0.42551 0.0
O401 O 0.04378 0.83661 0.43294 0.0
O402 O 0.04692 0.82184 0.40832 0.0
In403 In 0.17279 0.07039 0.43087 0.0
O404 O 0.16691 0.04167 0.43988 0.0
O405 O 0.1743 0.045 0.41222 0.0
C406 C 0.1653 0.08135 0.46508 0.0
C407 C 0.20927 0.07373 0.42896 0.0
C408 C 0.14932 0.09236 0.4128 0.0
O409 O 0.15717 0.06822 0.45761 0.0
O410 O 0.17673 0.08929 0.45507 0.0
O411 O 0.16577 0.09639 0.41533 0.0
O412 O 0.14499 0.07673 0.41832 0.0
C413 C 0.1702 0.03413 0.42489 0.0
O414 O 0.19925 0.07732 0.41544 0.0
O415 O 0.20087 0.0683 0.44285 0.0
In416 In 0.57699 0.92651 0.82333 0.0
O417 O 0.58928 0.89893 0.8309 0.0
O418 O 0.58872 0.91919 0.85124 0.0
C419 C 0.58334 0.91626 0.78873 0.0
C420 C 0.54026 0.92706 0.82548 0.0
C421 C 0.58717 0.96139 0.82926 0.0
O422 O 0.56865 0.91297 0.79693 0.0
O423 O 0.59517 0.92448 0.79813 0.0
O424 O 0.59398 0.95189 0.81669 0.0
O425 O 0.57586 0.95308 0.83909 0.0
C426 C 0.59253 0.90301 0.84719 0.0
O427 O 0.54979 0.91556 0.8339 0.0
O428 O 0.54925 0.93821 0.81607 0.0
In429 In 0.07375 0.57608 0.82438 0.0
O430 O 0.08932 0.57056 0.79827 0.0
O431 O 0.07218 0.59381 0.79887 0.0
C432 C 0.09674 0.59152 0.84883 0.0
C433 C 0.03858 0.58442 0.83118 0.0
C434 C 0.07443 0.53935 0.82479 0.0
O435 O 0.10096 0.58897 0.83246 0.0
O436 O 0.08066 0.58708 0.85268 0.0
O437 O 0.0845 0.54881 0.83495 0.0
O438 O 0.06411 0.5484 0.81454 0.0
C439 C 0.08284 0.58392 0.78971 0.0
O440 O 0.04661 0.57098 0.83816 0.0
O441 O 0.04849 0.59422 0.82114 0.0
In442 In 0.42539 0.07348 0.82621 0.0
O443 O 0.41189 0.10051 0.8338 0.0
O444 O 0.41463 0.08081 0.8545 0.0
C445 C 0.41937 0.08401 0.79164 0.0
C446 C 0.46214 0.07302 0.82794 0.0
C447 C 0.41512 0.03857 0.83174 0.0
O448 O 0.40765 0.07527 0.8007 0.0
O449 O 0.43377 0.08771 0.80018 0.0
O450 O 0.42668 0.04664 0.84149 0.0
O451 O 0.40809 0.04834 0.81951 0.0
C452 C 0.40966 0.09663 0.8503 0.0
O453 O 0.45305 0.06168 0.81886 0.0
O454 O 0.4527 0.08466 0.83628 0.0
In455 In 0.92596 0.4247 0.82249 0.0
O456 O 0.91058 0.43032 0.7963 0.0
O457 O 0.92786 0.40717 0.79684 0.0
C458 C 0.90273 0.40909 0.84661 0.0
C459 C 0.96102 0.41637 0.82985 0.0
C460 C 0.92531 0.46143 0.82304 0.0
O461 O 0.89862 0.41185 0.83024 0.0
O462 O 0.9188 0.4134 0.85061 0.0
O463 O 0.91512 0.45194 0.83306 0.0
O464 O 0.93574 0.45241 0.81288 0.0
C465 C 0.9172 0.41707 0.78769 0.0
O466 O 0.95284 0.42974 0.83676 0.0
O467 O 0.95132 0.40664 0.81953 0.0
In468 In 0.57135 0.07191 0.17285 0.0
O469 O 0.54381 0.06669 0.15935 0.0
O470 O 0.546 0.08942 0.17687 0.0
C471 C 0.58203 0.03724 0.16691 0.0
C472 C 0.58875 0.09597 0.15092 0.0
C473 C 0.57256 0.07258 0.20942 0.0
O474 O 0.5682 0.0443 0.15965 0.0
O475 O 0.59108 0.04789 0.17691 0.0
O476 O 0.58498 0.07968 0.19985 0.0
O477 O 0.5601 0.06487 0.20052 0.0
C478 C 0.53593 0.07996 0.16677 0.0
O479 O 0.58461 0.09951 0.16713 0.0
O480 O 0.585 0.08001 0.14608 0.0
In481 In 0.9255 0.57539 0.17586 0.0
O482 O 0.95259 0.57034 0.16198 0.0
O483 O 0.95085 0.59341 0.17924 0.0
C484 C 0.92492 0.53865 0.17523 0.0
C485 C 0.91632 0.58298 0.21057 0.0
C486 C 0.9026 0.59102 0.15142 0.0
O487 O 0.91484 0.54815 0.16511 0.0
O488 O 0.93518 0.54767 0.18556 0.0
O489 O 0.89828 0.58828 0.16774 0.0
O490 O 0.91872 0.58669 0.14764 0.0
C491 C 0.96069 0.58367 0.16907 0.0
O492 O 0.92706 0.59291 0.20155 0.0
O493 O 0.90981 0.56973 0.20186 0.0
In494 In 0.42631 0.92661 0.17545 0.0
O495 O 0.41212 0.90043 0.16651 0.0
O496 O 0.41649 0.92058 0.1465 0.0
C497 C 0.41763 0.91663 0.20965 0.0
C498 C 0.46294 0.92389 0.17523 0.0
C499 C 0.42056 0.9626 0.17037 0.0
O500 O 0.43031 0.90936 0.20071 0.0
O501 O 0.40876 0.92858 0.20107 0.0
O502 O 0.43514 0.95458 0.16636 0.0
O503 O 0.40816 0.95229 0.17635 0.0
C504 C 0.41079 0.90482 0.15004 0.0
O505 O 0.45316 0.91618 0.16341 0.0
O506 O 0.45423 0.93272 0.18705 0.0
In507 In 0.07436 0.42366 0.17675 0.0
O508 O 0.08958 0.42908 0.20308 0.0
O509 O 0.07239 0.40588 0.20222 0.0
C510 C 0.09764 0.40822 0.15255 0.0
C511 C 0.0393 0.41548 0.16924 0.0
C512 C 0.07488 0.4604 0.17636 0.0
O513 O 0.10184 0.4112 0.16886 0.0
O514 O 0.08146 0.41223 0.14867 0.0
O515 O 0.08508 0.45099 0.16628 0.0
O516 O 0.06452 0.45129 0.18652 0.0
C517 C 0.08295 0.41573 0.21153 0.0
O518 O 0.04755 0.42885 0.1624 0.0
O519 O 0.04892 0.40568 0.17955 0.0
In520 In 0.82397 0.57637 0.92457 0.0
O521 O 0.79831 0.59395 0.92633 0.0
O522 O 0.79762 0.57042 0.90959 0.0
C523 C 0.84771 0.59195 0.90092 0.0
C524 C 0.83143 0.58484 0.95957 0.0
C525 C 0.82482 0.53963 0.92422 0.0
O526 O 0.83137 0.58878 0.89698 0.0
O527 O 0.85188 0.58809 0.91705 0.0
O528 O 0.81453 0.54865 0.93453 0.0
O529 O 0.83479 0.54913 0.91399 0.0
C530 C 0.78906 0.58383 0.91597 0.0
O531 O 0.83861 0.57165 0.95132 0.0
O532 O 0.82084 0.59435 0.94995 0.0
In533 In 0.82455 0.42429 0.0728 0.0
O534 O 0.79893 0.40668 0.0711 0.0
O535 O 0.79831 0.43005 0.08806 0.0
C536 C 0.84862 0.40864 0.09606 0.0
C537 C 0.83177 0.41587 0.03776 0.0
C538 C 0.82521 0.46103 0.07329 0.0
O539 O 0.83222 0.4114 0.1001 0.0
O540 O 0.85269 0.41298 0.08003 0.0
O541 O 0.81504 0.45199 0.06288 0.0
O542 O 0.83515 0.45155 0.08357 0.0
C543 C 0.78974 0.41668 0.08162 0.0
O544 O 0.83896 0.42909 0.04595 0.0
O545 O 0.82128 0.40632 0.04744 0.0
In546 In 0.5775 0.82324 0.07251 0.0
O547 O 0.54964 0.81453 0.06225 0.0
O548 O 0.55038 0.8339 0.0836 0.0
C549 C 0.58614 0.83046 0.03754 0.0
C550 C 0.59355 0.84695 0.09584 0.0
C551 C 0.58448 0.78833 0.08131 0.0
O552 O 0.57326 0.83813 0.04584 0.0
O553 O 0.59525 0.81946 0.04708 0.0
O554 O 0.59483 0.79742 0.07103 0.0
O555 O 0.57107 0.79703 0.0875 0.0
C556 C 0.54075 0.82447 0.07299 0.0
O557 O 0.59062 0.83057 0.09979 0.0
O558 O 0.58917 0.85117 0.07987 0.0
In559 In 0.17558 0.57591 0.07507 0.0
O560 O 0.16071 0.57169 0.04836 0.0
O561 O 0.17923 0.59379 0.04971 0.0
C562 C 0.17469 0.53917 0.07507 0.0
C563 C 0.2104 0.58353 0.08389 0.0
C564 C 0.15173 0.59126 0.09876 0.0
O565 O 0.16491 0.54857 0.08556 0.0
O566 O 0.18485 0.54828 0.06471 0.0
O567 O 0.16802 0.5879 0.1028 0.0
O568 O 0.14767 0.58767 0.08254 0.0
C569 C 0.16831 0.58464 0.04011 0.0
O570 O 0.20209 0.56971 0.0897 0.0
O571 O 0.20096 0.59393 0.07399 0.0
In572 In 0.42313 0.17835 0.0747 0.0
O573 O 0.45103 0.18766 0.06516 0.0
O574 O 0.45021 0.16733 0.0856 0.0
C575 C 0.41512 0.17098 0.03963 0.0
C576 C 0.40669 0.1546 0.09772 0.0
C577 C 0.41573 0.21325 0.08325 0.0
O578 O 0.42821 0.16379 0.04803 0.0
O579 O 0.4055 0.1816 0.04911 0.0
O580 O 0.4059 0.20417 0.07247 0.0
O581 O 0.42881 0.20452 0.09009 0.0
C582 C 0.45989 0.17727 0.07551 0.0
O583 O 0.40996 0.17086 0.10192 0.0
O584 O 0.41101 0.15053 0.08169 0.0
In585 In 0.17573 0.42393 0.92604 0.0
O586 O 0.16093 0.42803 0.95281 0.0
O587 O 0.1795 0.40599 0.95135 0.0
C588 C 0.17472 0.46067 0.92601 0.0
C589 C 0.2106 0.41662 0.91712 0.0
C590 C 0.15186 0.40849 0.90241 0.0
O591 O 0.18483 0.4516 0.93645 0.0
O592 O 0.16503 0.45122 0.91547 0.0
O593 O 0.1682 0.41163 0.89842 0.0
O594 O 0.14776 0.41231 0.91857 0.0
C595 C 0.16859 0.41508 0.96101 0.0
O596 O 0.2013 0.40616 0.92709 0.0
O597 O 0.20212 0.43033 0.91129 0.0
In598 In 0.57606 0.17615 0.92676 0.0
O599 O 0.54836 0.18596 0.93639 0.0
O600 O 0.54877 0.1658 0.91577 0.0
C601 C 0.58406 0.16896 0.96191 0.0
C602 C 0.59176 0.1519 0.90371 0.0
C603 C 0.58394 0.21086 0.91787 0.0
O604 O 0.57081 0.16193 0.95362 0.0
O605 O 0.59387 0.17925 0.95227 0.0
O606 O 0.59375 0.2017 0.92861 0.0
O607 O 0.57065 0.20229 0.91125 0.0
C608 C 0.5393 0.17586 0.92593 0.0
O609 O 0.58929 0.16833 0.89966 0.0
O610 O 0.58709 0.14788 0.91966 0.0
In611 In 0.42471 0.82319 0.92471 0.0
O612 O 0.45249 0.8141 0.93487 0.0
O613 O 0.45192 0.83394 0.91394 0.0
C614 C 0.41628 0.83066 0.95967 0.0
C615 C 0.40907 0.84698 0.9012 0.0
C616 C 0.41709 0.78835 0.91608 0.0
O617 O 0.42921 0.83816 0.95128 0.0
O618 O 0.40703 0.8197 0.95023 0.0
O619 O 0.40679 0.79776 0.92611 0.0
O620 O 0.4308 0.7967 0.91006 0.0
C621 C 0.46147 0.82425 0.92438 0.0
O622 O 0.41267 0.83079 0.89703 0.0
O623 O 0.41255 0.85094 0.91747 0.0
In624 In 0.5743 0.67629 0.92288 0.0
O625 O 0.58995 0.70248 0.92772 0.0
O626 O 0.57179 0.70184 0.90527 0.0
C627 C 0.57528 0.67591 0.9596 0.0
C628 C 0.53913 0.66873 0.91527 0.0
C629 C 0.59748 0.65216 0.90722 0.0
O630 O 0.56524 0.68649 0.95062 0.0
O631 O 0.58497 0.66544 0.95007 0.0
O632 O 0.58133 0.64824 0.91131 0.0
O633 O 0.60169 0.66846 0.91022 0.0
C634 C 0.58285 0.71102 0.91467 0.0
O635 O 0.54746 0.66229 0.92878 0.0
O636 O 0.54872 0.67865 0.90504 0.0
In637 In 0.323 0.57432 0.92459 0.0
O638 O 0.29684 0.59011 0.9294 0.0
O639 O 0.29733 0.5717 0.90716 0.0
C640 C 0.32334 0.57564 0.9613 0.0
C641 C 0.33038 0.53915 0.91691 0.0
C642 C 0.34747 0.59712 0.90889 0.0
O643 O 0.31292 0.56535 0.9524 0.0
O644 O 0.33369 0.58537 0.95169 0.0
O645 O 0.35131 0.58111 0.91352 0.0
O646 O 0.33108 0.60138 0.91136 0.0
C647 C 0.2882 0.58284 0.91651 0.0
O648 O 0.32075 0.54889 0.90654 0.0
O649 O 0.33659 0.54732 0.93063 0.0
In650 In 0.42615 0.32448 0.9242 0.0
O651 O 0.41089 0.29823 0.92992 0.0
O652 O 0.42786 0.2989 0.90655 0.0
C653 C 0.42551 0.32531 0.96093 0.0
C654 C 0.46129 0.33158 0.91591 0.0
C655 C 0.40285 0.34856 0.90863 0.0
O656 O 0.43581 0.31493 0.95199 0.0
O657 O 0.41542 0.33534 0.95136 0.0
O658 O 0.41895 0.35258 0.91282 0.0
O659 O 0.39878 0.33219 0.91147 0.0
C660 C 0.41733 0.2897 0.91653 0.0
O661 O 0.45153 0.32131 0.9062 0.0
O662 O 0.45313 0.33863 0.92922 0.0
In663 In 0.67632 0.426 0.92323 0.0
O664 O 0.67913 0.45131 0.90511 0.0
O665 O 0.66204 0.45286 0.92833 0.0
C666 C 0.65225 0.40258 0.90782 0.0
C667 C 0.71116 0.41741 0.9154 0.0
C668 C 0.67579 0.42544 0.95996 0.0
O669 O 0.64822 0.4187 0.91191 0.0
O670 O 0.66863 0.39854 0.91068 0.0
O671 O 0.68606 0.43575 0.95091 0.0
O672 O 0.66569 0.41532 0.9505 0.0
C673 C 0.66888 0.46102 0.9149 0.0
O674 O 0.70267 0.4108 0.92873 0.0
O675 O 0.70187 0.42797 0.90553 0.0
In676 In 0.57473 0.32409 0.07605 0.0
O677 O 0.58985 0.29768 0.07075 0.0
O678 O 0.57267 0.2987 0.09395 0.0
C679 C 0.57536 0.3245 0.03932 0.0
C680 C 0.5397 0.33177 0.08419 0.0
C681 C 0.59816 0.34814 0.09146 0.0
O682 O 0.56503 0.31427 0.04839 0.0
O683 O 0.58548 0.33462 0.04878 0.0
O684 O 0.582 0.35212 0.08752 0.0
O685 O 0.60227 0.33181 0.08845 0.0
C686 C 0.58322 0.28932 0.08416 0.0
O687 O 0.54927 0.32143 0.09402 0.0
O688 O 0.54798 0.33854 0.07081 0.0
In689 In 0.6767 0.57425 0.07477 0.0
O690 O 0.70292 0.58971 0.06928 0.0
O691 O 0.70234 0.57234 0.09234 0.0
C692 C 0.67607 0.57496 0.03805 0.0
C693 C 0.66951 0.53917 0.08302 0.0
C694 C 0.65227 0.59718 0.09035 0.0
O695 O 0.68625 0.56451 0.04703 0.0
O696 O 0.66612 0.58518 0.04758 0.0
O697 O 0.64845 0.5811 0.08595 0.0
O698 O 0.66863 0.60145 0.08771 0.0
C699 C 0.71152 0.58304 0.08251 0.0
O700 O 0.67968 0.54893 0.09284 0.0
O701 O 0.66265 0.5473 0.06959 0.0
In702 In 0.42558 0.67754 0.07572 0.0
O703 O 0.45115 0.67969 0.09361 0.0
O704 O 0.45231 0.66331 0.06987 0.0
C705 C 0.40214 0.65367 0.09145 0.0
C706 C 0.41752 0.71248 0.08367 0.0
C707 C 0.42462 0.67686 0.03899 0.0
O708 O 0.41832 0.64965 0.08757 0.0
O709 O 0.39804 0.66996 0.08823 0.0
O710 O 0.43477 0.6874 0.04789 0.0
O711 O 0.41481 0.66658 0.04861 0.0
C712 C 0.46068 0.66968 0.0834 0.0
O713 O 0.41031 0.70395 0.07068 0.0
O714 O 0.4284 0.70318 0.09318 0.0
In715 In 0.32355 0.42713 0.07623 0.0
O716 O 0.29753 0.41111 0.07147 0.0
O717 O 0.29785 0.42957 0.09366 0.0
C718 C 0.32374 0.42577 0.03953 0.0
C719 C 0.33077 0.46234 0.08391 0.0
C720 C 0.3482 0.40446 0.09184 0.0
O721 O 0.31335 0.43606 0.04845 0.0
O722 O 0.33415 0.41606 0.04911 0.0
O723 O 0.35199 0.42042 0.08701 0.0
O724 O 0.33177 0.4002 0.08963 0.0
C725 C 0.28882 0.41831 0.08434 0.0
O726 O 0.32122 0.45255 0.0943 0.0
O727 O 0.33698 0.45421 0.07017 0.0
In728 In 0.92501 0.5749 0.67411 0.0
O729 O 0.91541 0.58228 0.64543 0.0
O730 O 0.9114 0.60181 0.66608 0.0
C731 C 0.91637 0.5399 0.66684 0.0
C732 C 0.96178 0.57551 0.67415 0.0
C733 C 0.91711 0.58375 0.70886 0.0
O734 O 0.92995 0.54786 0.6601 0.0
O735 O 0.90657 0.54978 0.67691 0.0
O736 O 0.93054 0.59023 0.7004 0.0
O737 O 0.90718 0.57323 0.69958 0.0
C738 C 0.91005 0.59801 0.64945 0.0
O739 O 0.95244 0.58611 0.66444 0.0
O740 O 0.95259 0.56471 0.68378 0.0
In741 In 0.42624 0.92585 0.67669 0.0
O742 O 0.40881 0.92592 0.70223 0.0
O743 O 0.43168 0.9083 0.70179 0.0
C744 C 0.42149 0.96229 0.67726 0.0
C745 C 0.46236 0.92195 0.67071 0.0
C746 C 0.40424 0.91027 0.65145 0.0
O747 O 0.42743 0.95336 0.69061 0.0
O748 O 0.41787 0.95285 0.6634 0.0
O749 O 0.42048 0.91464 0.6482 0.0
O750 O 0.39939 0.91295 0.66763 0.0
C751 C 0.41851 0.91468 0.71079 0.0
O752 O 0.45239 0.9086 0.67492 0.0
O753 O 0.45403 0.93684 0.6692 0.0
In754 In 0.07601 0.42711 0.67558 0.0
O755 O 0.0869 0.42021 0.64726 0.0
O756 O 0.08899 0.39995 0.66747 0.0
C757 C 0.08459 0.46218 0.66863 0.0
C758 C 0.03925 0.42648 0.67484 0.0
C759 C 0.08362 0.41806 0.71034 0.0
O760 O 0.07114 0.4542 0.66164 0.0
O761 O 0.09426 0.4523 0.67882 0.0
O762 O 0.0702 0.41173 0.70177 0.0
O763 O 0.09367 0.42856 0.70119 0.0
C764 C 0.09141 0.40416 0.65107 0.0
O765 O 0.04881 0.41616 0.66504 0.0
O766 O 0.04822 0.43702 0.68495 0.0
In767 In 0.57756 0.07616 0.67788 0.0
O768 O 0.59503 0.07615 0.70345 0.0
O769 O 0.57208 0.09366 0.70297 0.0
C770 C 0.58259 0.03975 0.6778 0.0
C771 C 0.54138 0.0799 0.67246 0.0
C772 C 0.59898 0.09178 0.65221 0.0
O773 O 0.57688 0.04841 0.69143 0.0
O774 O 0.58591 0.04946 0.66406 0.0
O775 O 0.58276 0.08716 0.64925 0.0
O776 O 0.60411 0.0894 0.66836 0.0
C777 C 0.58523 0.08732 0.71201 0.0
O778 O 0.55143 0.09338 0.67603 0.0
O779 O 0.54965 0.06496 0.67131 0.0
In780 In 0.92315 0.42447 0.32293 0.0
O781 O 0.95033 0.41366 0.33371 0.0
O782 O 0.95095 0.43435 0.31361 0.0
C783 C 0.91557 0.41567 0.28812 0.0
C784 C 0.90753 0.40152 0.34727 0.0
C785 C 0.91465 0.45948 0.33006 0.0
O786 O 0.9289 0.40916 0.29671 0.0
O787 O 0.90557 0.42621 0.29731 0.0
O788 O 0.92807 0.45142 0.33704 0.0
O789 O 0.90499 0.4497 0.31977 0.0
C790 C 0.9599 0.42393 0.32386 0.0
O791 O 0.91168 0.41767 0.35104 0.0
O792 O 0.91045 0.39717 0.33099 0.0
In793 In 0.57847 0.92024 0.32261 0.0
O794 O 0.59487 0.92307 0.2966 0.0
O795 O 0.57316 0.90401 0.29656 0.0
C796 C 0.58276 0.95655 0.32623 0.0
C797 C 0.54219 0.91589 0.32708 0.0
C798 C 0.60153 0.90346 0.34611 0.0
O799 O 0.58194 0.94866 0.31105 0.0
O800 O 0.58143 0.94614 0.33979 0.0
O801 O 0.58499 0.90603 0.34965 0.0
O802 O 0.60616 0.90848 0.33046 0.0
C803 C 0.5857 0.9117 0.28765 0.0
O804 O 0.55239 0.90272 0.32285 0.0
O805 O 0.55029 0.93085 0.32899 0.0
In806 In 0.07402 0.57314 0.32527 0.0
O807 O 0.0464 0.56337 0.31528 0.0
O808 O 0.04659 0.58363 0.33581 0.0
C809 C 0.08216 0.58212 0.29061 0.0
C810 C 0.08912 0.59641 0.34971 0.0
C811 C 0.08239 0.53802 0.33236 0.0
O812 O 0.06858 0.5884 0.29896 0.0
O813 O 0.09212 0.57169 0.29995 0.0
O814 O 0.06894 0.54609 0.33927 0.0
O815 O 0.09217 0.54785 0.32222 0.0
C816 C 0.03723 0.57357 0.32554 0.0
O817 O 0.08545 0.58013 0.35342 0.0
O818 O 0.08601 0.60073 0.33345 0.0
In819 In 0.42277 0.07344 0.32417 0.0
O820 O 0.44865 0.09086 0.32165 0.0
O821 O 0.44931 0.06768 0.33883 0.0
C822 C 0.39867 0.0886 0.34777 0.0
C823 C 0.41436 0.08205 0.2895 0.0
C824 C 0.42264 0.03671 0.32422 0.0
O825 O 0.41528 0.08665 0.35147 0.0
O826 O 0.39443 0.08367 0.33197 0.0
O827 O 0.43171 0.04606 0.3131 0.0
O828 O 0.41353 0.04587 0.33551 0.0
C829 C 0.45796 0.08082 0.33204 0.0
O830 O 0.40791 0.06839 0.29759 0.0
O831 O 0.42465 0.09189 0.29913 0.0
In832 In 0.67861 0.92378 0.57426 0.0
O833 O 0.70513 0.92845 0.58956 0.0
O834 O 0.70389 0.9058 0.5717 0.0
C835 C 0.67827 0.96058 0.57484 0.0
C836 C 0.6707 0.91534 0.53939 0.0
C837 C 0.65413 0.90853 0.59737 0.0
O838 O 0.68829 0.95151 0.5643 0.0
O839 O 0.66846 0.95111 0.58524 0.0
O840 O 0.6503 0.91286 0.58128 0.0
O841 O 0.67053 0.91109 0.60157 0.0
C842 C 0.71338 0.91517 0.58252 0.0
O843 O 0.68102 0.90554 0.549 0.0
O844 O 0.66414 0.92892 0.54754 0.0
In845 In 0.6731 0.07275 0.42387 0.0
O846 O 0.6595 0.06816 0.45103 0.0
O847 O 0.67535 0.09218 0.44834 0.0
C848 C 0.65175 0.08914 0.39858 0.0
C849 C 0.70965 0.07604 0.42422 0.0
C850 C 0.66711 0.03708 0.41717 0.0
O851 O 0.648 0.08925 0.41528 0.0
O852 O 0.66672 0.08175 0.39484 0.0
O853 O 0.67932 0.04607 0.40921 0.0
O854 O 0.65768 0.04615 0.42821 0.0
C855 C 0.66575 0.08223 0.45857 0.0
O856 O 0.70114 0.06371 0.43254 0.0
O857 O 0.69967 0.08727 0.41582 0.0
In858 In 0.92145 0.67477 0.42334 0.0
O859 O 0.94928 0.68245 0.41213 0.0
O860 O 0.94694 0.65703 0.42554 0.0
C861 C 0.91309 0.7097 0.41582 0.0
C862 C 0.90441 0.65021 0.4016 0.0
C863 C 0.91883 0.67412 0.46 0.0
O864 O 0.92585 0.70122 0.40816 0.0
O865 O 0.90402 0.70038 0.42706 0.0
O866 O 0.90489 0.67272 0.45001 0.0
O867 O 0.93356 0.67609 0.4515 0.0
C868 C 0.95715 0.66821 0.41749 0.0
O869 O 0.90948 0.64656 0.41751 0.0
O870 O 0.90696 0.66649 0.39706 0.0
In871 In 0.32542 0.92086 0.42172 0.0
O872 O 0.32557 0.90443 0.44851 0.0
O873 O 0.33417 0.93196 0.44902 0.0
C874 C 0.34965 0.90413 0.39938 0.0
C875 C 0.29066 0.91147 0.41434 0.0
C876 C 0.32703 0.95719 0.41674 0.0
O877 O 0.35297 0.90746 0.41581 0.0
O878 O 0.3338 0.90833 0.39449 0.0
O879 O 0.31257 0.94889 0.42069 0.0
O880 O 0.34089 0.94718 0.41527 0.0
C881 C 0.33143 0.91759 0.45788 0.0
O882 O 0.29935 0.92314 0.40528 0.0
O883 O 0.29978 0.90383 0.42675 0.0
In884 In 0.07561 0.32114 0.42503 0.0
O885 O 0.04776 0.31138 0.43437 0.0
O886 O 0.04846 0.33203 0.41425 0.0
C887 C 0.08379 0.28619 0.4171 0.0
C888 C 0.09111 0.34526 0.4017 0.0
C889 C 0.08323 0.32926 0.46005 0.0
O890 O 0.07068 0.29458 0.40995 0.0
O891 O 0.09332 0.29563 0.42783 0.0
O892 O 0.09353 0.31925 0.4506 0.0
O893 O 0.06962 0.33543 0.45166 0.0
C894 C 0.03885 0.32186 0.42417 0.0
O895 O 0.08766 0.349 0.41802 0.0
O896 O 0.08761 0.32909 0.39736 0.0
In897 In 0.32682 0.07815 0.57809 0.0
O898 O 0.30028 0.07559 0.59377 0.0
O899 O 0.30104 0.09463 0.57208 0.0
C900 C 0.33145 0.04225 0.58434 0.0
C901 C 0.33088 0.08074 0.54164 0.0
C902 C 0.35052 0.0955 0.60052 0.0
O903 O 0.31613 0.04991 0.5848 0.0
O904 O 0.34459 0.05271 0.58083 0.0
O905 O 0.35434 0.09142 0.58437 0.0
O906 O 0.33444 0.09181 0.605 0.0
C907 C 0.2917 0.08705 0.58436 0.0
O908 O 0.32862 0.09468 0.55144 0.0
O909 O 0.33088 0.06592 0.5502 0.0
In910 In 0.92315 0.32356 0.57411 0.0
O911 O 0.95096 0.31362 0.56489 0.0
O912 O 0.95033 0.33457 0.58469 0.0
C913 C 0.91514 0.28878 0.58275 0.0
C914 C 0.9076 0.34786 0.59719 0.0
C915 C 0.91531 0.33092 0.53898 0.0
O916 O 0.92826 0.29735 0.58968 0.0
O917 O 0.90554 0.29796 0.57185 0.0
O918 O 0.90515 0.32101 0.54867 0.0
O919 O 0.92887 0.33743 0.5472 0.0
C920 C 0.95991 0.32423 0.57492 0.0
O921 O 0.91145 0.35161 0.58096 0.0
O922 O 0.91073 0.33162 0.60154 0.0
In923 In 0.07766 0.67948 0.57736 0.0
O924 O 0.09059 0.65191 0.58405 0.0
O925 O 0.08909 0.67129 0.60515 0.0
C926 C 0.08426 0.67149 0.54207 0.0
C927 C 0.04092 0.67939 0.57851 0.0
C928 C 0.08621 0.71409 0.58612 0.0
O929 O 0.07163 0.66439 0.55121 0.0
O930 O 0.09415 0.68246 0.55087 0.0
O931 O 0.07254 0.7059 0.5924 0.0
O932 O 0.09613 0.70459 0.57576 0.0
C933 C 0.09339 0.65539 0.60055 0.0
O934 O 0.04999 0.69019 0.56878 0.0
O935 O 0.05037 0.66846 0.58776 0.0
In936 In 0.42646 0.32578 0.0761 0.0
O937 O 0.41085 0.29969 0.07064 0.0
O938 O 0.42819 0.30021 0.09375 0.0
C939 C 0.4034 0.35011 0.09164 0.0
C940 C 0.46162 0.33281 0.08434 0.0
C941 C 0.42574 0.32608 0.03937 0.0
O942 O 0.39934 0.33366 0.08931 0.0
O943 O 0.41936 0.3541 0.08693 0.0
O944 O 0.41561 0.33621 0.04882 0.0
O945 O 0.43612 0.31591 0.04844 0.0
C946 C 0.41742 0.2911 0.08393 0.0
O947 O 0.45348 0.33979 0.07098 0.0
O948 O 0.45182 0.32264 0.09413 0.0
In949 In 0.67696 0.4261 0.07513 0.0
O950 O 0.6626 0.4529 0.07001 0.0
O951 O 0.67998 0.45154 0.09302 0.0
C952 C 0.67616 0.42544 0.0384 0.0
C953 C 0.71182 0.41749 0.08278 0.0
C954 C 0.65299 0.40285 0.09091 0.0
O955 O 0.6661 0.41536 0.04797 0.0
O956 O 0.68652 0.43574 0.04735 0.0
O957 O 0.66929 0.3987 0.0878 0.0
O958 O 0.64899 0.41897 0.08686 0.0
C959 C 0.66959 0.46116 0.08329 0.0
O960 O 0.70324 0.41082 0.06954 0.0
O961 O 0.70262 0.42812 0.09265 0.0
In962 In 0.57395 0.67577 0.07476 0.0
O963 O 0.5898 0.70178 0.06959 0.0
O964 O 0.57177 0.70147 0.09216 0.0
C965 C 0.59706 0.65151 0.09033 0.0
C966 C 0.53878 0.66866 0.08291 0.0
C967 C 0.57489 0.67545 0.03804 0.0
O968 O 0.60108 0.66797 0.08798 0.0
O969 O 0.5811 0.64748 0.08563 0.0
O970 O 0.58466 0.66503 0.04754 0.0
O971 O 0.56474 0.6859 0.04705 0.0
C972 C 0.58284 0.71049 0.0826 0.0
O973 O 0.54681 0.66214 0.06925 0.0
O974 O 0.54868 0.67841 0.09301 0.0
In975 In 0.32314 0.57552 0.07646 0.0
O976 O 0.33711 0.54867 0.07059 0.0
O977 O 0.32098 0.55007 0.09449 0.0
C978 C 0.32336 0.57633 0.03973 0.0
C979 C 0.28833 0.58376 0.08477 0.0
C980 C 0.34725 0.59894 0.09183 0.0
O981 O 0.33388 0.58606 0.04916 0.0
O982 O 0.31283 0.56632 0.04881 0.0
O983 O 0.33092 0.60306 0.08878 0.0
O984 O 0.35121 0.58275 0.08795 0.0
C985 C 0.33078 0.54041 0.0842 0.0
O986 O 0.2977 0.57291 0.09423 0.0
O987 O 0.29674 0.59087 0.07164 0.0
In988 In 0.4259 0.67579 0.92383 0.0
O989 O 0.45294 0.66205 0.92953 0.0
O990 O 0.4512 0.67806 0.90559 0.0
C991 C 0.42494 0.6758 0.96056 0.0
C992 C 0.41738 0.7105 0.91552 0.0
C993 C 0.40268 0.65149 0.90852 0.0
O994 O 0.41509 0.66538 0.95114 0.0
O995 O 0.43518 0.6861 0.95146 0.0
O996 O 0.39866 0.66794 0.91087 0.0
O997 O 0.41868 0.64748 0.91308 0.0
C998 C 0.46102 0.66836 0.91581 0.0
O999 O 0.41034 0.70206 0.92866 0.0
O1000 O 0.42832 0.70122 0.90607 0.0
In1001 In 0.32326 0.42593 0.92437 0.0
O1002 O 0.33703 0.45287 0.93028 0.0
O1003 O 0.32087 0.45139 0.90639 0.0
C1004 C 0.32349 0.425 0.9611 0.0
C1005 C 0.28852 0.41733 0.91613 0.0
C1006 C 0.34766 0.40294 0.90882 0.0
O1007 O 0.33396 0.41525 0.95163 0.0
O1008 O 0.31299 0.43507 0.95205 0.0
O1009 O 0.33132 0.39867 0.91161 0.0
O1010 O 0.35149 0.41906 0.91308 0.0
C1011 C 0.33064 0.4611 0.91667 0.0
O1012 O 0.29707 0.41021 0.92916 0.0
O1013 O 0.29772 0.42839 0.90674 0.0
In1014 In 0.57448 0.32354 0.92416 0.0
O1015 O 0.58984 0.29732 0.92976 0.0
O1016 O 0.57254 0.29788 0.90664 0.0
C1017 C 0.59766 0.34762 0.9084 0.0
C1018 C 0.53938 0.33091 0.91599 0.0
C1019 C 0.57521 0.32426 0.96088 0.0
O1020 O 0.60184 0.33131 0.91137 0.0
O1021 O 0.58154 0.35157 0.91258 0.0
O1022 O 0.58533 0.33428 0.95132 0.0
O1023 O 0.56482 0.31399 0.95193 0.0
C1024 C 0.5832 0.28871 0.91652 0.0
O1025 O 0.54765 0.33786 0.92929 0.0
O1026 O 0.54901 0.32053 0.90626 0.0
In1027 In 0.67631 0.5741 0.92288 0.0
O1028 O 0.66202 0.54726 0.92807 0.0
O1029 O 0.6792 0.54869 0.90492 0.0
C1030 C 0.67579 0.57482 0.95961 0.0
C1031 C 0.71113 0.58279 0.9151 0.0
C1032 C 0.65217 0.59731 0.90726 0.0
O1033 O 0.66574 0.58497 0.95011 0.0
O1034 O 0.68599 0.56442 0.95059 0.0
O1035 O 0.66855 0.6014 0.91002 0.0
O1036 O 0.64816 0.58125 0.91158 0.0
C1037 C 0.66891 0.53903 0.91472 0.0
O1038 O 0.70256 0.58947 0.92834 0.0
O1039 O 0.70193 0.57209 0.90529 0.0
In1040 In 0.07518 0.42485 0.32422 0.0
O1041 O 0.04749 0.43448 0.31437 0.0
O1042 O 0.04787 0.41419 0.33486 0.0
C1043 C 0.08319 0.45992 0.33194 0.0
C1044 C 0.0907 0.40101 0.34785 0.0
C1045 C 0.08312 0.41646 0.2894 0.0
O1046 O 0.06999 0.4515 0.33891 0.0
O1047 O 0.09296 0.45045 0.32146 0.0
O1048 O 0.09306 0.42687 0.29879 0.0
O1049 O 0.06965 0.40995 0.29776 0.0
C1050 C 0.03841 0.42422 0.32466 0.0
O1051 O 0.08754 0.39719 0.33149 0.0
O1052 O 0.08685 0.41713 0.35211 0.0
In1053 In 0.57087 0.07018 0.32412 0.0
O1054 O 0.54368 0.06438 0.33742 0.0
O1055 O 0.54623 0.08943 0.32323 0.0
C1056 C 0.57935 0.03457 0.32805 0.0
C1057 C 0.56983 0.07458 0.2878 0.0
C1058 C 0.5962 0.08725 0.34489 0.0
O1059 O 0.57024 0.04312 0.33978 0.0
O1060 O 0.58447 0.04405 0.31479 0.0
O1061 O 0.59972 0.08036 0.32964 0.0
O1062 O 0.57968 0.08636 0.34932 0.0
C1063 C 0.53606 0.07881 0.33214 0.0
O1064 O 0.5792 0.08494 0.29785 0.0
O1065 O 0.56074 0.06271 0.29618 0.0
In1066 In 0.92194 0.57261 0.32324 0.0
O1067 O 0.90811 0.59944 0.33103 0.0
O1068 O 0.91052 0.57937 0.3514 0.0
C1069 C 0.9146 0.58151 0.28841 0.0
C1070 C 0.9587 0.57358 0.32425 0.0
C1071 C 0.91391 0.53746 0.33027 0.0
O1072 O 0.9048 0.5706 0.29736 0.0
O1073 O 0.92763 0.58832 0.29724 0.0
O1074 O 0.90426 0.54707 0.3198 0.0
O1075 O 0.92704 0.54577 0.33749 0.0
C1076 C 0.90554 0.59523 0.3474 0.0
O1077 O 0.94988 0.56304 0.31403 0.0
O1078 O 0.94899 0.58381 0.33403 0.0
In1079 In 0.42802 0.92173 0.32196 0.0
O1080 O 0.43077 0.90483 0.29598 0.0
O1081 O 0.41155 0.92641 0.29631 0.0
C1082 C 0.40549 0.9051 0.34602 0.0
C1083 C 0.46379 0.91574 0.3283 0.0
C1084 C 0.42516 0.95832 0.32292 0.0
O1085 O 0.4015 0.9074 0.32955 0.0
O1086 O 0.42122 0.91042 0.35022 0.0
O1087 O 0.41708 0.94825 0.33422 0.0
O1088 O 0.43452 0.94993 0.31128 0.0
C1089 C 0.41904 0.91392 0.28729 0.0
O1090 O 0.45542 0.92975 0.33347 0.0
O1091 O 0.45395 0.9041 0.32038 0.0
In1092 In 0.07704 0.57515 0.67684 0.0
O1093 O 0.04915 0.56523 0.68587 0.0
O1094 O 0.04996 0.58592 0.66578 0.0
C1095 C 0.08541 0.5402 0.66909 0.0
C1096 C 0.09299 0.59914 0.65373 0.0
C1097 C 0.08423 0.58332 0.71187 0.0
O1098 O 0.07237 0.54861 0.66183 0.0
O1099 O 0.09486 0.54964 0.6799 0.0
O1100 O 0.0944 0.57303 0.7026 0.0
O1101 O 0.07087 0.5898 0.7033 0.0
C1102 C 0.04029 0.57565 0.67554 0.0
O1103 O 0.08956 0.60282 0.67007 0.0
O1104 O 0.08919 0.58308 0.64924 0.0
In1105 In 0.42683 0.07693 0.67948 0.0
O1106 O 0.40956 0.07639 0.70509 0.0
O1107 O 0.43291 0.0934 0.70513 0.0
C1108 C 0.40487 0.09394 0.6552 0.0
C1109 C 0.46293 0.08041 0.67331 0.0
C1110 C 0.42147 0.04058 0.67879 0.0
O1111 O 0.40036 0.09112 0.67145 0.0
O1112 O 0.42078 0.08889 0.65136 0.0
O1113 O 0.41799 0.05055 0.66527 0.0
O1114 O 0.42748 0.04895 0.69246 0.0
C1115 C 0.41958 0.08709 0.71395 0.0
O1116 O 0.45439 0.06566 0.67172 0.0
O1117 O 0.45318 0.09387 0.67773 0.0
In1118 In 0.92396 0.42687 0.675 0.0
O1119 O 0.95165 0.43676 0.6846 0.0
O1120 O 0.95127 0.4161 0.66447 0.0
C1121 C 0.91572 0.46188 0.66737 0.0
C1122 C 0.90825 0.40335 0.65121 0.0
C1123 C 0.9163 0.41827 0.70983 0.0
O1124 O 0.9289 0.45352 0.6603 0.0
O1125 O 0.90609 0.45237 0.67796 0.0
O1126 O 0.90638 0.42887 0.70063 0.0
O1127 O 0.92961 0.41167 0.70127 0.0
C1128 C 0.96073 0.42636 0.67445 0.0
O1129 O 0.91115 0.39944 0.6676 0.0
O1130 O 0.91249 0.41938 0.64701 0.0
In1131 In 0.57697 0.9251 0.67681 0.0
O1132 O 0.57097 0.90781 0.70195 0.0
O1133 O 0.59405 0.92518 0.70255 0.0
C1134 C 0.59937 0.90917 0.65216 0.0
C1135 C 0.54085 0.9215 0.67057 0.0
C1136 C 0.58213 0.96147 0.67715 0.0
O1137 O 0.60372 0.91154 0.66853 0.0
O1138 O 0.58338 0.91401 0.64839 0.0
O1139 O 0.58555 0.95191 0.66333 0.0
O1140 O 0.5762 0.95269 0.6906 0.0
C1141 C 0.58412 0.91409 0.71105 0.0
O1142 O 0.54932 0.93633 0.66921 0.0
O1143 O 0.5507 0.90804 0.67471 0.0
In1144 In 0.32375 0.07072 0.4284 0.0
O1145 O 0.33521 0.0628 0.45573 0.0
O1146 O 0.32528 0.08984 0.45314 0.0
C1147 C 0.32706 0.03518 0.41941 0.0
C1148 C 0.28762 0.07677 0.42961 0.0
C1149 C 0.34506 0.08772 0.40361 0.0
O1150 O 0.33994 0.04406 0.42638 0.0
O1151 O 0.31286 0.04429 0.41663 0.0
O1152 O 0.32962 0.08134 0.39985 0.0
O1153 O 0.34935 0.08648 0.42015 0.0
C1154 C 0.332 0.07778 0.46342 0.0
O1155 O 0.29771 0.08513 0.41847 0.0
O1156 O 0.29588 0.06613 0.44018 0.0
In1157 In 0.32934 0.92932 0.57126 0.0
O1158 O 0.33971 0.93608 0.54319 0.0
O1159 O 0.32831 0.90977 0.54677 0.0
C1160 C 0.33405 0.96443 0.58122 0.0
C1161 C 0.2929 0.92586 0.57118 0.0
C1162 C 0.35174 0.91178 0.59472 0.0
O1163 O 0.34466 0.95644 0.57041 0.0
O1164 O 0.32148 0.95458 0.58738 0.0
O1165 O 0.33547 0.91559 0.59849 0.0
O1166 O 0.35639 0.91587 0.57877 0.0
C1167 C 0.33526 0.9212 0.53596 0.0
O1168 O 0.30292 0.91494 0.57994 0.0
O1169 O 0.30134 0.9379 0.56238 0.0
In1170 In 0.07517 0.3251 0.57328 0.0
O1171 O 0.08858 0.33312 0.60024 0.0
O1172 O 0.0859 0.35351 0.58022 0.0
C1173 C 0.08306 0.29047 0.58242 0.0
C1174 C 0.03841 0.32529 0.57427 0.0
C1175 C 0.08325 0.33176 0.53805 0.0
O1176 O 0.06998 0.29919 0.58927 0.0
O1177 O 0.09267 0.29945 0.57137 0.0
O1178 O 0.06967 0.33849 0.54605 0.0
O1179 O 0.09334 0.32208 0.54802 0.0
C1180 C 0.09078 0.34957 0.59613 0.0
O1181 O 0.04789 0.33575 0.58402 0.0
O1182 O 0.04746 0.31487 0.56412 0.0
In1183 In 0.67524 0.07583 0.57154 0.0
O1184 O 0.70163 0.07196 0.58718 0.0
O1185 O 0.70041 0.09384 0.56835 0.0
C1186 C 0.65115 0.09127 0.59494 0.0
C1187 C 0.66702 0.08351 0.53651 0.0
C1188 C 0.67614 0.03907 0.57311 0.0
O1189 O 0.66786 0.08987 0.59835 0.0
O1190 O 0.64671 0.08566 0.57941 0.0
O1191 O 0.66587 0.04846 0.58313 0.0
O1192 O 0.68588 0.0482 0.56236 0.0
C1193 C 0.70984 0.085 0.57967 0.0
O1194 O 0.66071 0.06999 0.54494 0.0
O1195 O 0.67714 0.09369 0.54593 0.0
In1196 In 0.92587 0.68006 0.57451 0.0
O1197 O 0.95267 0.6681 0.58515 0.0
O1198 O 0.95378 0.69195 0.56894 0.0
C1199 C 0.92064 0.67452 0.5385 0.0
C1200 C 0.91064 0.6542 0.596 0.0
C1201 C 0.91659 0.71427 0.58411 0.0
O1202 O 0.93549 0.67179 0.54657 0.0
O1203 O 0.90779 0.67959 0.54873 0.0
O1204 O 0.90811 0.70556 0.57197 0.0
O1205 O 0.92908 0.70543 0.59181 0.0
C1206 C 0.96246 0.68009 0.57774 0.0
O1207 O 0.91184 0.67063 0.60065 0.0
O1208 O 0.91632 0.65096 0.58019 0.0
In1209 In 0.67497 0.92397 0.4266 0.0
O1210 O 0.6616 0.92858 0.45383 0.0
O1211 O 0.6783 0.90513 0.45139 0.0
C1212 C 0.66785 0.95914 0.41843 0.0
C1213 C 0.71157 0.92231 0.4267 0.0
C1214 C 0.65418 0.90559 0.40229 0.0
O1215 O 0.65906 0.95038 0.43022 0.0
O1216 O 0.67992 0.95004 0.41039 0.0
O1217 O 0.66956 0.91204 0.39845 0.0
O1218 O 0.64965 0.90756 0.41866 0.0
C1219 C 0.66845 0.91491 0.46154 0.0
O1220 O 0.702 0.91037 0.41885 0.0
O1221 O 0.70265 0.93456 0.43471 0.0
In1222 In 0.07047 0.67256 0.42929 0.0
O1223 O 0.08342 0.66619 0.40168 0.0
O1224 O 0.08408 0.64559 0.42167 0.0
C1225 C 0.07242 0.70913 0.42835 0.0
C1226 C 0.03509 0.66656 0.42106 0.0
C1227 C 0.08065 0.6673 0.4642 0.0
O1228 O 0.0844 0.69925 0.42093 0.0
O1229 O 0.05996 0.70052 0.4364 0.0
O1230 O 0.06638 0.66071 0.45736 0.0
O1231 O 0.09041 0.6762 0.4532 0.0
C1232 C 0.08759 0.65005 0.40553 0.0
O1233 O 0.04313 0.6584 0.43379 0.0
O1234 O 0.04497 0.6774 0.41224 0.0
In1235 In 0.92359 0.32343 0.4259 0.0
O1236 O 0.95093 0.33378 0.41503 0.0
O1237 O 0.95125 0.31323 0.43527 0.0
C1238 C 0.91553 0.33093 0.46096 0.0
C1239 C 0.90796 0.34748 0.40265 0.0
C1240 C 0.91549 0.28871 0.41733 0.0
O1241 O 0.92907 0.33752 0.45277 0.0
O1242 O 0.90551 0.3209 0.45127 0.0
O1243 O 0.92861 0.29724 0.41032 0.0
O1244 O 0.90597 0.29791 0.42828 0.0
C1245 C 0.96035 0.32343 0.42494 0.0
O1246 O 0.91038 0.33101 0.39874 0.0
O1247 O 0.91266 0.35164 0.41856 0.0
C1248 C 0.12765 0.13806 0.40455 0.0
C1249 C 0.10914 0.13384 0.40673 0.0
H1250 H 0.155 0.12807 0.40442 0.0
C1251 C 0.10388 0.11549 0.40754 0.0
H1252 H 0.13212 0.15207 0.40378 0.0
C1253 C 0.11699 0.10173 0.40791 0.0
C1254 C 0.1356 0.10607 0.40747 0.0
H1255 H 0.0897 0.11181 0.4091 0.0
H1256 H 0.11257 0.08781 0.40979 0.0
C1257 C 0.14077 0.12429 0.40489 0.0
C1258 C 0.87873 0.10742 0.40124 0.0
C1259 C 0.86026 0.11189 0.40337 0.0
H1260 H 0.90621 0.11706 0.40107 0.0
C1261 C 0.85522 0.13029 0.40405 0.0
H1262 H 0.88303 0.09335 0.40057 0.0
C1263 C 0.86851 0.14388 0.40432 0.0
C1264 C 0.88707 0.13928 0.40394 0.0
H1265 H 0.84108 0.13416 0.40559 0.0
H1266 H 0.86427 0.15787 0.40604 0.0
C1267 C 0.89202 0.121 0.40153 0.0
C1268 C 0.8793 0.89253 0.40076 0.0
C1269 C 0.86069 0.88877 0.40289 0.0
H1270 H 0.90636 0.88178 0.40024 0.0
C1271 C 0.85489 0.87058 0.40318 0.0
H1272 H 0.88417 0.90643 0.40037 0.0
C1273 C 0.8676 0.85646 0.40314 0.0
C1274 C 0.88632 0.8603 0.40276 0.0
H1275 H 0.84061 0.86726 0.4047 0.0
H1276 H 0.8628 0.84262 0.40461 0.0
C1277 C 0.89202 0.87841 0.40067 0.0
C1278 C 0.12829 0.85228 0.40285 0.0
C1279 C 0.11011 0.85807 0.40383 0.0
H1280 H 0.15632 0.86017 0.40268 0.0
C1281 C 0.10623 0.8767 0.4022 0.0
H1282 H 0.1317 0.838 0.40393 0.0
C1283 C 0.12035 0.88942 0.4015 0.0
C1284 C 0.13857 0.88371 0.4024 0.0
H1285 H 0.09234 0.88157 0.40279 0.0
H1286 H 0.11697 0.90375 0.4016 0.0
C1287 C 0.14241 0.865 0.40211 0.0
C1288 C 0.12329 0.8981 0.59634 0.0
C1289 C 0.1419 0.89375 0.59602 0.0
H1290 H 0.09598 0.888 0.59594 0.0
C1291 C 0.14718 0.87554 0.59836 0.0
H1292 H 0.11881 0.91202 0.59468 0.0
C1293 C 0.1341 0.86177 0.59907 0.0
C1294 C 0.11553 0.86598 0.59746 0.0
H1295 H 0.16143 0.87177 0.5983 0.0
H1296 H 0.13862 0.84776 0.59955 0.0
C1297 C 0.11021 0.88432 0.59706 0.0
C1298 C 0.10738 0.12278 0.60038 0.0
C1299 C 0.1115 0.14141 0.59976 0.0
H1300 H 0.11779 0.09561 0.59983 0.0
C1301 C 0.12973 0.14693 0.60137 0.0
H1302 H 0.09344 0.11812 0.59932 0.0
C1303 C 0.14368 0.13404 0.60167 0.0
C1304 C 0.13963 0.11542 0.60038 0.0
H1305 H 0.13331 0.16121 0.60109 0.0
H1306 H 0.15766 0.13872 0.60157 0.0
C1307 C 0.12134 0.10988 0.6007 0.0
C1308 C 0.87118 0.14169 0.5993 0.0
C1309 C 0.88944 0.13704 0.59609 0.0
H1310 H 0.84357 0.13247 0.60023 0.0
C1311 C 0.8941 0.11862 0.59416 0.0
H1312 H 0.8672 0.15577 0.60094 0.0
C1313 C 0.88057 0.1053 0.59366 0.0
C1314 C 0.86216 0.11015 0.59519 0.0
H1315 H 0.90807 0.1146 0.59178 0.0
H1316 H 0.88447 0.09136 0.59092 0.0
C1317 C 0.85765 0.12833 0.59891 0.0
C1318 C 0.89894 0.88501 0.59035 0.0
C1319 C 0.89467 0.8668 0.59422 0.0
H1320 H 0.88881 0.91194 0.58605 0.0
C1321 C 0.87686 0.86243 0.59964 0.0
H1322 H 0.91257 0.88882 0.58623 0.0
C1323 C 0.86324 0.87571 0.59957 0.0
C1324 C 0.86719 0.89356 0.59404 0.0
H1325 H 0.87318 0.84853 0.60281 0.0
H1326 H 0.8494 0.87169 0.60266 0.0
C1327 C 0.88532 0.89827 0.59024 0.0
C1328 C 0.39924 0.13222 0.14316 0.0
C1329 C 0.40063 0.11377 0.13845 0.0
H1330 H 0.39984 0.15977 0.1338 0.0
C1331 C 0.4006 0.1089 0.11998 0.0
H1332 H 0.39913 0.13638 0.15728 0.0
C1333 C 0.40102 0.1223 0.10653 0.0
C1334 C 0.40148 0.14078 0.11133 0.0
H1335 H 0.40156 0.09477 0.11594 0.0
H1336 H 0.40226 0.11816 0.09246 0.0
C1337 C 0.39967 0.14562 0.12971 0.0
C1338 C 0.89437 0.40367 0.11865 0.0
C1339 C 0.88941 0.40359 0.13709 0.0
H1340 H 0.88523 0.40508 0.09107 0.0
C1341 C 0.87093 0.40199 0.14171 0.0
H1342 H 0.90851 0.40479 0.11468 0.0
C1343 C 0.85758 0.40216 0.12817 0.0
C1344 C 0.8625 0.40393 0.1098 0.0
H1345 H 0.86669 0.40179 0.1558 0.0
H1346 H 0.84341 0.40208 0.13219 0.0
C1347 C 0.88103 0.40384 0.10512 0.0
C1348 C 0.59998 0.86892 0.14164 0.0
C1349 C 0.59866 0.88742 0.1371 0.0
H1350 H 0.59968 0.84147 0.132 0.0
C1351 C 0.59896 0.89247 0.11868 0.0
H1352 H 0.5999 0.86461 0.15572 0.0
C1353 C 0.59881 0.87921 0.10509 0.0
C1354 C 0.59838 0.86067 0.10968 0.0
H1355 H 0.59807 0.90664 0.11476 0.0
H1356 H 0.59781 0.88349 0.09104 0.0
C1357 C 0.59986 0.85565 0.12804 0.0
C1358 C 0.106 0.59631 0.12143 0.0
C1359 C 0.11092 0.59577 0.13987 0.0
H1360 H 0.11518 0.59555 0.09382 0.0
C1361 C 0.12942 0.59691 0.14456 0.0
H1362 H 0.09185 0.59555 0.1174 0.0
C1363 C 0.14279 0.5969 0.13104 0.0
C1364 C 0.13789 0.59577 0.11262 0.0
H1365 H 0.13363 0.59662 0.15866 0.0
H1366 H 0.15695 0.59662 0.13509 0.0
C1367 C 0.11937 0.59631 0.10791 0.0
C1368 C 0.40379 0.89285 0.87902 0.0
C1369 C 0.40473 0.88814 0.86054 0.0
H1370 H 0.40416 0.88337 0.90652 0.0
C1371 C 0.40384 0.8697 0.85562 0.0
H1372 H 0.40433 0.90695 0.88321 0.0
C1373 C 0.40374 0.8562 0.86897 0.0
C1374 C 0.40452 0.8609 0.88746 0.0
H1375 H 0.40442 0.86566 0.84147 0.0
H1376 H 0.40424 0.84209 0.86477 0.0
C1377 C 0.40369 0.87933 0.89237 0.0
C1378 C 0.12963 0.40273 0.85659 0.0
C1379 C 0.11113 0.40399 0.86122 0.0
H1380 H 0.15715 0.40291 0.86612 0.0
C1381 C 0.10616 0.40356 0.87965 0.0
H1382 H 0.13388 0.40293 0.84249 0.0
C1383 C 0.1195 0.40356 0.8932 0.0
C1384 C 0.13803 0.40398 0.88854 0.0
H1385 H 0.092 0.40441 0.88364 0.0
H1386 H 0.11527 0.4044 0.90728 0.0
C1387 C 0.14297 0.40272 0.87013 0.0
C1388 C 0.59867 0.12954 0.85814 0.0
C1389 C 0.597 0.11108 0.86275 0.0
H1390 H 0.59859 0.15704 0.86763 0.0
C1391 C 0.59676 0.10613 0.88119 0.0
H1392 H 0.59899 0.13375 0.84404 0.0
C1393 C 0.5965 0.11948 0.89471 0.0
C1394 C 0.59651 0.13799 0.89002 0.0
H1395 H 0.59557 0.09201 0.88517 0.0
H1396 H 0.59513 0.1153 0.90876 0.0
C1397 C 0.59844 0.14288 0.87166 0.0
C1398 C 0.88001 0.59718 0.89166 0.0
C1399 C 0.86148 0.59655 0.88701 0.0
H1400 H 0.9075 0.59656 0.88208 0.0
C1401 C 0.85651 0.59766 0.86861 0.0
H1402 H 0.88425 0.59645 0.90573 0.0
C1403 C 0.86984 0.59772 0.85505 0.0
C1404 C 0.88835 0.59667 0.85967 0.0
H1405 H 0.84234 0.59731 0.86461 0.0
H1406 H 0.86558 0.5974 0.84096 0.0
C1407 C 0.89333 0.59725 0.8781 0.0
C1408 C 0.11972 0.40337 0.10657 0.0
C1409 C 0.13824 0.4037 0.11126 0.0
H1410 H 0.09222 0.40429 0.11608 0.0
C1411 C 0.14315 0.40233 0.12967 0.0
H1412 H 0.11552 0.40431 0.09249 0.0
C1413 C 0.12979 0.40232 0.14319 0.0
C1414 C 0.1113 0.40369 0.13853 0.0
H1415 H 0.15732 0.40244 0.1337 0.0
H1416 H 0.13401 0.40244 0.1573 0.0
C1417 C 0.10636 0.40337 0.12009 0.0
C1418 C 0.10544 0.59596 0.88136 0.0
C1419 C 0.11035 0.59604 0.86291 0.0
H1420 H 0.11466 0.59471 0.90893 0.0
C1421 C 0.12881 0.59778 0.85824 0.0
H1422 H 0.09132 0.59474 0.88538 0.0
C1423 C 0.14219 0.59776 0.87174 0.0
C1424 C 0.13734 0.59601 0.89013 0.0
H1425 H 0.133 0.59798 0.84413 0.0
H1426 H 0.15635 0.59794 0.86768 0.0
C1427 C 0.11882 0.59595 0.89486 0.0
C1428 C 0.40257 0.12871 0.85895 0.0
C1429 C 0.40482 0.11044 0.86406 0.0
H1430 H 0.40174 0.15644 0.86774 0.0
C1431 C 0.40504 0.10596 0.88261 0.0
H1432 H 0.40223 0.13255 0.84475 0.0
C1433 C 0.40473 0.11965 0.89578 0.0
C1434 C 0.40421 0.13803 0.89061 0.0
H1435 H 0.40664 0.09199 0.88696 0.0
H1436 H 0.40611 0.11586 0.90994 0.0
C1437 C 0.40228 0.14239 0.87213 0.0
C1438 C 0.85713 0.40294 0.86924 0.0
C1439 C 0.86193 0.40436 0.88767 0.0
H1440 H 0.86642 0.40306 0.84167 0.0
C1441 C 0.88043 0.40413 0.89247 0.0
H1442 H 0.84298 0.40298 0.86513 0.0
C1443 C 0.89386 0.40419 0.87903 0.0
C1444 C 0.88902 0.40447 0.86056 0.0
H1445 H 0.88454 0.40511 0.90657 0.0
H1446 H 0.90798 0.40521 0.88311 0.0
C1447 C 0.87057 0.40299 0.85579 0.0
C1448 C 0.59735 0.89389 0.87953 0.0
C1449 C 0.59709 0.88919 0.86103 0.0
H1450 H 0.5963 0.88435 0.907 0.0
C1451 C 0.5985 0.87079 0.85612 0.0
H1452 H 0.59638 0.90797 0.88373 0.0
C1453 C 0.59846 0.85726 0.86945 0.0
C1454 C 0.597 0.86191 0.88791 0.0
H1455 H 0.59845 0.86677 0.84196 0.0
H1456 H 0.59838 0.84316 0.86522 0.0
C1457 C 0.5973 0.88035 0.89287 0.0
C1458 C 0.8706 0.59743 0.14188 0.0
C1459 C 0.88908 0.5957 0.13731 0.0
H1460 H 0.84311 0.59778 0.13227 0.0
C1461 C 0.8941 0.59581 0.11888 0.0
H1462 H 0.86632 0.59749 0.15596 0.0
C1463 C 0.8808 0.59598 0.1053 0.0
C1464 C 0.86226 0.59604 0.10992 0.0
H1465 H 0.90825 0.5946 0.11494 0.0
H1466 H 0.88505 0.59489 0.09125 0.0
C1467 C 0.8573 0.59761 0.1283 0.0
C1468 C 0.40756 0.88285 0.10386 0.0
C1469 C 0.40597 0.86442 0.10861 0.0
H1470 H 0.4101 0.91025 0.11334 0.0
C1471 C 0.40284 0.85981 0.12687 0.0
H1472 H 0.40988 0.88683 0.08987 0.0
C1473 C 0.40293 0.87324 0.14031 0.0
C1474 C 0.40619 0.8915 0.13572 0.0
H1475 H 0.40146 0.84572 0.13093 0.0
H1476 H 0.40162 0.86915 0.15439 0.0
C1477 C 0.40768 0.89628 0.1173 0.0
C1478 C 0.59596 0.11993 0.10626 0.0
C1479 C 0.5949 0.13822 0.11166 0.0
H1480 H 0.59514 0.09207 0.1146 0.0
C1481 C 0.59522 0.14239 0.13029 0.0
H1482 H 0.59587 0.11629 0.09199 0.0
C1483 C 0.59481 0.12851 0.14325 0.0
C1484 C 0.59407 0.11022 0.13779 0.0
H1485 H 0.59453 0.15637 0.13487 0.0
H1486 H 0.5938 0.13214 0.15748 0.0
C1487 C 0.59555 0.10605 0.11922 0.0
C1488 C 0.64303 0.62944 0.90109 0.0
C1489 C 0.63822 0.61102 0.90265 0.0
H1490 H 0.63377 0.65703 0.90106 0.0
C1491 C 0.61972 0.60624 0.9025 0.0
H1492 H 0.65719 0.63354 0.90107 0.0
C1493 C 0.6063 0.6197 0.90248 0.0
C1494 C 0.61116 0.63817 0.90263 0.0
H1495 H 0.61559 0.59214 0.90358 0.0
H1496 H 0.59218 0.61563 0.90355 0.0
C1497 C 0.62961 0.6429 0.90108 0.0
C1498 C 0.37052 0.64241 0.90219 0.0
C1499 C 0.38891 0.63754 0.90406 0.0
H1500 H 0.34286 0.6333 0.902 0.0
C1501 C 0.3936 0.61903 0.90434 0.0
H1502 H 0.36651 0.65657 0.90184 0.0
C1503 C 0.38005 0.60569 0.90442 0.0
C1504 C 0.36159 0.61065 0.90424 0.0
H1505 H 0.40766 0.61485 0.90566 0.0
H1506 H 0.38404 0.59158 0.90581 0.0
C1507 C 0.35698 0.62908 0.90228 0.0
C1508 C 0.37066 0.35758 0.90246 0.0
C1509 C 0.38907 0.36247 0.90411 0.0
H1510 H 0.343 0.3667 0.90241 0.0
C1511 C 0.39376 0.38098 0.90413 0.0
H1512 H 0.36663 0.34342 0.90231 0.0
C1513 C 0.38022 0.39432 0.90418 0.0
C1514 C 0.36176 0.38937 0.90423 0.0
H1515 H 0.40784 0.38517 0.90529 0.0
H1516 H 0.38421 0.40845 0.90538 0.0
C1517 C 0.35712 0.37092 0.90252 0.0
C1518 C 0.60642 0.38005 0.90335 0.0
C1519 C 0.61132 0.36159 0.90369 0.0
H1520 H 0.61566 0.40763 0.90414 0.0
C1521 C 0.62978 0.35687 0.90217 0.0
H1522 H 0.59229 0.3841 0.9044 0.0
C1523 C 0.64317 0.37036 0.90201 0.0
C1524 C 0.63833 0.38879 0.90338 0.0
H1525 H 0.63396 0.34276 0.90228 0.0
H1526 H 0.65733 0.36629 0.90202 0.0
C1527 C 0.61982 0.39354 0.9032 0.0
C1528 C 0.60712 0.38056 0.0962 0.0
C1529 C 0.61194 0.36208 0.09592 0.0
H1530 H 0.61647 0.40809 0.09508 0.0
C1531 C 0.63039 0.35729 0.09721 0.0
H1532 H 0.593 0.38467 0.09532 0.0
C1533 C 0.64385 0.37071 0.09707 0.0
C1534 C 0.63906 0.38915 0.09564 0.0
H1535 H 0.63451 0.34315 0.09713 0.0
H1536 H 0.65799 0.36658 0.09689 0.0
C1537 C 0.62058 0.39399 0.09606 0.0
C1538 C 0.64275 0.62916 0.09678 0.0
C1539 C 0.63814 0.61072 0.09492 0.0
H1540 H 0.63321 0.65665 0.09706 0.0
C1541 C 0.61968 0.60575 0.09475 0.0
H1542 H 0.65686 0.63339 0.09706 0.0
C1543 C 0.60613 0.61908 0.09474 0.0
C1544 C 0.61081 0.6376 0.09491 0.0
H1545 H 0.6157 0.59164 0.09344 0.0
H1546 H 0.59207 0.61489 0.09341 0.0
C1547 C 0.62919 0.64249 0.09679 0.0
C1548 C 0.35646 0.63115 0.0975 0.0
C1549 C 0.36122 0.6127 0.09627 0.0
H1550 H 0.36581 0.65872 0.09719 0.0
C1551 C 0.37971 0.60787 0.09662 0.0
H1552 H 0.34232 0.63529 0.09736 0.0
C1553 C 0.39318 0.62129 0.09653 0.0
C1554 C 0.38837 0.63978 0.09608 0.0
H1555 H 0.38381 0.59375 0.09579 0.0
H1556 H 0.40729 0.61717 0.09563 0.0
C1557 C 0.36992 0.64458 0.0974 0.0
C1558 C 0.39437 0.38257 0.09589 0.0
C1559 C 0.38969 0.36406 0.09625 0.0
H1560 H 0.3848 0.41001 0.09448 0.0
C1561 C 0.37133 0.35919 0.09837 0.0
H1562 H 0.40842 0.38675 0.09438 0.0
C1563 C 0.35778 0.37253 0.09843 0.0
C1564 C 0.36237 0.39095 0.09637 0.0
H1565 H 0.36731 0.34503 0.09879 0.0
H1566 H 0.34367 0.3683 0.09889 0.0
C1567 C 0.38083 0.39591 0.09595 0.0
C1568 C 0.90753 0.62128 0.60385 0.0
C1569 C 0.90611 0.6396 0.60906 0.0
H1570 H 0.90961 0.59362 0.61263 0.0
C1571 C 0.90293 0.64377 0.62742 0.0
H1572 H 0.90989 0.61764 0.58978 0.0
C1573 C 0.90279 0.63 0.64053 0.0
C1574 C 0.90581 0.61183 0.63549 0.0
H1575 H 0.90169 0.65776 0.63184 0.0
H1576 H 0.90145 0.63374 0.6547 0.0
C1577 C 0.90737 0.60752 0.61695 0.0
C1578 C 0.35958 0.90464 0.62698 0.0
C1579 C 0.36508 0.90648 0.60879 0.0
H1580 H 0.36781 0.9041 0.65488 0.0
C1581 C 0.38375 0.90617 0.60468 0.0
H1582 H 0.34529 0.90472 0.63056 0.0
C1583 C 0.39666 0.90586 0.61863 0.0
C1584 C 0.39112 0.90581 0.6369 0.0
H1585 H 0.38841 0.90747 0.59078 0.0
H1586 H 0.41093 0.90691 0.61511 0.0
C1587 C 0.37249 0.90429 0.64092 0.0
C1588 C 0.09535 0.39545 0.61849 0.0
C1589 C 0.09581 0.39057 0.63695 0.0
H1590 H 0.09364 0.38619 0.59096 0.0
C1591 C 0.09777 0.37215 0.6416 0.0
H1592 H 0.09395 0.40955 0.61448 0.0
C1593 C 0.09761 0.35876 0.62812 0.0
C1594 C 0.09547 0.36357 0.60976 0.0
H1595 H 0.09825 0.36798 0.65571 0.0
H1596 H 0.09798 0.34461 0.63218 0.0
C1597 C 0.09518 0.38206 0.60501 0.0
C1598 C 0.60612 0.09512 0.61918 0.0
C1599 C 0.6118 0.09623 0.63738 0.0
H1600 H 0.61423 0.09287 0.59132 0.0
C1601 C 0.63034 0.09886 0.64115 0.0
H1602 H 0.59191 0.09317 0.61584 0.0
C1603 C 0.64314 0.09873 0.6271 0.0
C1604 C 0.6376 0.09591 0.60903 0.0
H1605 H 0.63511 0.09987 0.65505 0.0
H1606 H 0.65744 0.09964 0.63052 0.0
C1607 C 0.61892 0.09494 0.60512 0.0
C1608 C 0.90147 0.35626 0.3705 0.0
C1609 C 0.90325 0.36127 0.38884 0.0
H1610 H 0.9012 0.36522 0.34281 0.0
C1611 C 0.90318 0.3798 0.39343 0.0
H1612 H 0.90138 0.34208 0.36655 0.0
C1613 C 0.90304 0.39306 0.37983 0.0
C1614 C 0.903 0.38801 0.36142 0.0
H1615 H 0.90441 0.38407 0.40747 0.0
H1616 H 0.90418 0.40721 0.38374 0.0
C1617 C 0.90136 0.36953 0.35689 0.0
C1618 C 0.64666 0.89951 0.3698 0.0
C1619 C 0.64122 0.89976 0.3881 0.0
H1620 H 0.63821 0.9001 0.342 0.0
C1621 C 0.62272 0.8975 0.39231 0.0
H1622 H 0.66085 0.90106 0.36615 0.0
C1623 C 0.60971 0.89699 0.37845 0.0
C1624 C 0.61504 0.8987 0.36019 0.0
H1625 H 0.61813 0.89753 0.4063 0.0
H1626 H 0.59544 0.89665 0.38211 0.0
C1627 C 0.63368 0.89895 0.35596 0.0
C1628 C 0.09369 0.64177 0.37314 0.0
C1629 C 0.0927 0.63659 0.3915 0.0
H1630 H 0.0936 0.633 0.3454 0.0
C1631 C 0.09379 0.61804 0.39594 0.0
H1632 H 0.09298 0.65597 0.3693 0.0
C1633 C 0.09411 0.60488 0.38224 0.0
C1634 C 0.09339 0.61003 0.36387 0.0
H1635 H 0.09316 0.61363 0.40997 0.0
H1636 H 0.09374 0.59066 0.38607 0.0
C1637 C 0.09404 0.6286 0.35944 0.0
C1638 C 0.38994 0.09528 0.37997 0.0
C1639 C 0.38486 0.09304 0.36169 0.0
H1640 H 0.38115 0.09566 0.40772 0.0
C1641 C 0.36628 0.0924 0.35726 0.0
H1642 H 0.40415 0.09592 0.38379 0.0
C1643 C 0.35311 0.09223 0.37096 0.0
C1644 C 0.35829 0.09274 0.38933 0.0
H1645 H 0.36193 0.09082 0.34329 0.0
H1646 H 0.33898 0.0905 0.36718 0.0
C1647 C 0.37675 0.09516 0.39368 0.0
C1648 C 0.63127 0.90212 0.64278 0.0
C1649 C 0.61289 0.90444 0.63806 0.0
H1650 H 0.65885 0.90137 0.63346 0.0
C1651 C 0.60806 0.9049 0.61959 0.0
H1652 H 0.6354 0.90161 0.6569 0.0
C1653 C 0.62151 0.90474 0.60616 0.0
C1654 C 0.64001 0.90413 0.61097 0.0
H1655 H 0.594 0.90658 0.61554 0.0
H1656 H 0.61745 0.90629 0.59209 0.0
C1657 C 0.64472 0.90199 0.62934 0.0
C1658 C 0.6427 0.09139 0.36597 0.0
C1659 C 0.63824 0.09366 0.3844 0.0
H1660 H 0.63278 0.08789 0.33886 0.0
C1661 C 0.62007 0.09723 0.38915 0.0
H1662 H 0.6566 0.08875 0.36187 0.0
C1663 C 0.60638 0.09669 0.37594 0.0
C1664 C 0.61067 0.09261 0.35778 0.0
H1665 H 0.61623 0.0991 0.40324 0.0
H1666 H 0.59236 0.09819 0.38019 0.0
C1667 C 0.62904 0.09089 0.35278 0.0
C1668 C 0.89776 0.62702 0.3565 0.0
C1669 C 0.90039 0.60874 0.36135 0.0
H1670 H 0.89663 0.65462 0.36562 0.0
C1671 C 0.90081 0.60404 0.37985 0.0
H1672 H 0.89725 0.63104 0.34234 0.0
C1673 C 0.90045 0.61755 0.3932 0.0
C1674 C 0.89966 0.63598 0.38825 0.0
H1675 H 0.90268 0.59004 0.38401 0.0
H1676 H 0.9021 0.61362 0.40729 0.0
C1677 C 0.89739 0.64053 0.36984 0.0
C1678 C 0.3735 0.89765 0.35459 0.0
C1679 C 0.39175 0.89997 0.35975 0.0
H1680 H 0.34571 0.89691 0.36325 0.0
C1681 C 0.39617 0.90016 0.37832 0.0
H1682 H 0.36969 0.89732 0.34037 0.0
C1683 C 0.38242 0.89983 0.39145 0.0
C1684 C 0.36404 0.89939 0.38619 0.0
H1685 H 0.41014 0.90181 0.38271 0.0
H1686 H 0.38614 0.90127 0.40562 0.0
C1687 C 0.35975 0.89741 0.3677 0.0
C1688 C 0.0964 0.36862 0.35638 0.0
C1689 C 0.09529 0.38699 0.3615 0.0
H1690 H 0.0962 0.34088 0.36521 0.0
C1691 C 0.09595 0.39148 0.38004 0.0
H1692 H 0.09602 0.36474 0.34218 0.0
C1693 C 0.09608 0.3778 0.39324 0.0
C1694 C 0.09553 0.3594 0.38811 0.0
H1695 H 0.09521 0.40552 0.3844 0.0
H1696 H 0.09543 0.38166 0.40743 0.0
C1697 C 0.09651 0.35494 0.36958 0.0
C1698 C 0.38307 0.09979 0.60925 0.0
C1699 C 0.36457 0.10032 0.61403 0.0
H1700 H 0.41053 0.09754 0.61869 0.0
C1701 C 0.35981 0.10231 0.63242 0.0
H1702 H 0.38715 0.09836 0.59518 0.0
C1703 C 0.3732 0.10186 0.64588 0.0
C1704 C 0.39156 0.09938 0.64118 0.0
H1705 H 0.34567 0.10289 0.6365 0.0
H1706 H 0.36902 0.10213 0.66 0.0
C1707 C 0.39646 0.09929 0.62273 0.0
C1708 C 0.90297 0.38043 0.60569 0.0
C1709 C 0.90316 0.36201 0.61075 0.0
H1710 H 0.9042 0.40809 0.61464 0.0
C1711 C 0.90185 0.35749 0.62926 0.0
H1712 H 0.90388 0.38433 0.59152 0.0
C1713 C 0.90202 0.37111 0.64251 0.0
C1714 C 0.90353 0.38947 0.63747 0.0
H1715 H 0.90186 0.34341 0.63357 0.0
H1716 H 0.90216 0.36717 0.65669 0.0
C1717 C 0.90316 0.39404 0.61894 0.0
C1718 C 0.09866 0.63163 0.64561 0.0
C1719 C 0.09774 0.61331 0.64029 0.0
H1720 H 0.09824 0.65944 0.63709 0.0
C1721 C 0.09865 0.60902 0.6217 0.0
H1722 H 0.09809 0.63535 0.65984 0.0
C1723 C 0.09878 0.62283 0.60865 0.0
C1724 C 0.09795 0.64116 0.61398 0.0
H1725 H 0.09807 0.59501 0.61719 0.0
H1726 H 0.09829 0.61912 0.59442 0.0
C1727 C 0.09874 0.64544 0.63257 0.0
C1728 C 0.09734 0.23761 0.42683 0.0
C1729 C 0.08562 0.22798 0.41518 0.0
H1730 H 0.10617 0.26367 0.43637 0.0
C1731 C 0.07511 0.23769 0.40255 0.0
H1732 H 0.10566 0.23049 0.43666 0.0
C1733 C 0.07531 0.2567 0.40247 0.0
C1734 C 0.08615 0.26634 0.41491 0.0
H1735 H 0.06597 0.23065 0.39339 0.0
H1736 H 0.06637 0.26384 0.3932 0.0
C1737 C 0.09766 0.25662 0.42664 0.0
C1738 C 0.75843 0.06507 0.43566 0.0
C1739 C 0.76811 0.07535 0.42282 0.0
H1740 H 0.73249 0.0573 0.44613 0.0
C1741 C 0.75842 0.08644 0.41063 0.0
H1742 H 0.76549 0.05642 0.44527 0.0
C1743 C 0.73935 0.08712 0.41128 0.0
C1744 C 0.72974 0.07656 0.42399 0.0
H1745 H 0.76556 0.09458 0.40065 0.0
H1746 H 0.73215 0.09563 0.40167 0.0
C1747 C 0.7395 0.06559 0.43617 0.0
C1748 C 0.89945 0.75832 0.42496 0.0
C1749 C 0.91105 0.7678 0.41308 0.0
H1750 H 0.89081 0.73238 0.435 0.0
C1751 C 0.92148 0.75796 0.40049 0.0
H1752 H 0.89118 0.76556 0.43476 0.0
C1753 C 0.92132 0.73896 0.4007 0.0
C1754 C 0.91064 0.72948 0.41341 0.0
H1755 H 0.93051 0.76489 0.39115 0.0
H1756 H 0.93019 0.73172 0.39144 0.0
C1757 C 0.89921 0.73932 0.4251 0.0
C1758 C 0.242 0.92 0.39999 0.0
C1759 C 0.2324 0.90933 0.41256 0.0
H1760 H 0.26808 0.92885 0.39055 0.0
C1761 C 0.24216 0.89764 0.42413 0.0
H1762 H 0.23486 0.92909 0.39088 0.0
C1763 C 0.26117 0.89751 0.42398 0.0
C1764 C 0.2708 0.90904 0.41223 0.0
H1765 H 0.23513 0.88917 0.43392 0.0
H1766 H 0.2683 0.889 0.43366 0.0
C1767 C 0.26103 0.91984 0.39981 0.0
C1768 C 0.10197 0.74336 0.5788 0.0
C1769 C 0.08884 0.73382 0.58885 0.0
H1770 H 0.11187 0.76938 0.57033 0.0
C1771 C 0.07679 0.74361 0.60001 0.0
H1772 H 0.11146 0.73619 0.57012 0.0
C1773 C 0.07702 0.76261 0.60016 0.0
C1774 C 0.0893 0.77217 0.58911 0.0
H1775 H 0.06657 0.73663 0.608 0.0
H1776 H 0.06697 0.76978 0.60819 0.0
C1777 C 0.10218 0.76237 0.57892 0.0
C1778 C 0.24302 0.07997 0.59944 0.0
C1779 C 0.23344 0.08957 0.58602 0.0
H1780 H 0.26908 0.07177 0.60952 0.0
C1781 C 0.24323 0.10001 0.57334 0.0
H1782 H 0.23584 0.07184 0.6094 0.0
C1783 C 0.26223 0.10004 0.57343 0.0
C1784 C 0.27183 0.08956 0.58615 0.0
H1785 H 0.23621 0.10765 0.56288 0.0
H1786 H 0.26938 0.10761 0.56302 0.0
C1787 C 0.26205 0.07994 0.59949 0.0
C1788 C 0.90129 0.259 0.57393 0.0
C1789 C 0.91283 0.269 0.58538 0.0
H1790 H 0.8933 0.23263 0.56453 0.0
C1791 C 0.92375 0.25966 0.59799 0.0
H1792 H 0.89271 0.26582 0.56409 0.0
C1793 C 0.92401 0.24067 0.59832 0.0
C1794 C 0.91346 0.23066 0.58596 0.0
H1795 H 0.93272 0.26702 0.60706 0.0
H1796 H 0.9332 0.23385 0.6076 0.0
C1797 C 0.90166 0.23999 0.57416 0.0
C1798 C 0.76185 0.92265 0.59784 0.0
C1799 C 0.77151 0.91241 0.58495 0.0
H1800 H 0.73573 0.93154 0.60719 0.0
C1801 C 0.76182 0.90115 0.57293 0.0
H1802 H 0.76895 0.93147 0.60726 0.0
C1803 C 0.7428 0.90107 0.57299 0.0
C1804 C 0.73314 0.91242 0.58492 0.0
H1805 H 0.76892 0.89305 0.56288 0.0
H1806 H 0.73571 0.89294 0.56297 0.0
C1807 C 0.74283 0.92274 0.59776 0.0
C1808 C 0.4003 0.07324 0.25984 0.0
C1809 C 0.41192 0.08475 0.26975 0.0
H1810 H 0.39178 0.064 0.23357 0.0
C1811 C 0.42265 0.0974 0.26034 0.0
H1812 H 0.3918 0.06338 0.26675 0.0
C1813 C 0.4227 0.09768 0.24134 0.0
C1814 C 0.41193 0.08539 0.23142 0.0
H1815 H 0.43172 0.10646 0.26759 0.0
H1816 H 0.43177 0.10701 0.23443 0.0
C1817 C 0.40026 0.07359 0.24084 0.0
C1818 C 0.92524 0.40091 0.23993 0.0
C1819 C 0.9142 0.41292 0.23002 0.0
H1820 H 0.93425 0.39231 0.26623 0.0
C1821 C 0.90187 0.4241 0.23942 0.0
H1822 H 0.93485 0.39211 0.23306 0.0
C1823 C 0.90143 0.42413 0.25841 0.0
C1824 C 0.91343 0.41309 0.26833 0.0
H1825 H 0.89312 0.43344 0.23212 0.0
H1826 H 0.89241 0.43353 0.26528 0.0
C1827 C 0.92491 0.40105 0.25892 0.0
C1828 C 0.57539 0.89923 0.25777 0.0
C1829 C 0.58788 0.9096 0.2678 0.0
H1830 H 0.56506 0.89249 0.23145 0.0
C1831 C 0.60121 0.91967 0.25848 0.0
H1832 H 0.56501 0.8913 0.26457 0.0
C1833 C 0.60126 0.92035 0.23949 0.0
C1834 C 0.58795 0.911 0.2295 0.0
H1835 H 0.61107 0.92774 0.26586 0.0
H1836 H 0.61111 0.92893 0.23269 0.0
C1837 C 0.57542 0.89994 0.23879 0.0
C1838 C 0.09681 0.57423 0.24206 0.0
C1839 C 0.08465 0.58552 0.23255 0.0
H1840 H 0.10577 0.56452 0.26801 0.0
C1841 C 0.0734 0.59738 0.24239 0.0
H1842 H 0.10571 0.565 0.23483 0.0
C1843 C 0.07335 0.59702 0.26138 0.0
C1844 C 0.08467 0.58489 0.27088 0.0
H1845 H 0.06391 0.60625 0.23543 0.0
H1846 H 0.06385 0.60566 0.2686 0.0
C1847 C 0.09687 0.57398 0.26106 0.0
C1848 C 0.43006 0.90312 0.75935 0.0
C1849 C 0.41659 0.9128 0.76885 0.0
H1850 H 0.44105 0.89583 0.73341 0.0
C1851 C 0.40227 0.92079 0.75908 0.0
H1852 H 0.4412 0.89669 0.76653 0.0
C1853 C 0.40221 0.92032 0.74008 0.0
C1854 C 0.41642 0.91177 0.73055 0.0
H1855 H 0.39166 0.92827 0.76604 0.0
H1856 H 0.39155 0.92747 0.73286 0.0
C1857 C 0.42995 0.90256 0.74037 0.0
C1858 C 0.09779 0.42571 0.75907 0.0
C1859 C 0.08551 0.41443 0.76842 0.0
H1860 H 0.10703 0.4355 0.73326 0.0
C1861 C 0.0743 0.40265 0.75843 0.0
H1862 H 0.10666 0.43488 0.76642 0.0
C1863 C 0.07443 0.4031 0.73943 0.0
C1864 C 0.08588 0.41522 0.7301 0.0
H1865 H 0.06472 0.39379 0.76526 0.0
H1866 H 0.06498 0.39452 0.73209 0.0
C1867 C 0.09803 0.42605 0.74008 0.0
C1868 C 0.57325 0.09893 0.74157 0.0
C1869 C 0.58708 0.09008 0.73182 0.0
H1870 H 0.56149 0.10422 0.76763 0.0
C1871 C 0.60129 0.08165 0.74144 0.0
H1872 H 0.56213 0.10556 0.73454 0.0
C1873 C 0.60095 0.08093 0.76044 0.0
C1874 C 0.58634 0.08852 0.7701 0.0
H1875 H 0.61217 0.07477 0.73429 0.0
H1876 H 0.61158 0.07353 0.76746 0.0
C1877 C 0.57285 0.09809 0.76053 0.0
C1878 C 0.90248 0.57553 0.73843 0.0
C1879 C 0.91473 0.58641 0.72863 0.0
H1880 H 0.89362 0.56648 0.76463 0.0
C1881 C 0.92616 0.5984 0.73816 0.0
H1882 H 0.89349 0.56617 0.73146 0.0
C1883 C 0.92616 0.59867 0.75717 0.0
C1884 C 0.91483 0.58684 0.76697 0.0
H1885 H 0.93569 0.60702 0.73096 0.0
H1886 H 0.93572 0.60743 0.76415 0.0
C1887 C 0.90258 0.57569 0.75742 0.0
C1888 C 0.23995 0.42684 0.09756 0.0
C1889 C 0.23068 0.41491 0.08584 0.0
H1890 H 0.26571 0.43707 0.1065 0.0
C1891 C 0.24076 0.40248 0.07544 0.0
H1892 H 0.23253 0.43652 0.10581 0.0
C1893 C 0.25977 0.40286 0.07577 0.0
C1894 C 0.26903 0.4156 0.0866 0.0
H1895 H 0.23399 0.3931 0.06632 0.0
H1896 H 0.26719 0.39374 0.06692 0.0
C1897 C 0.25895 0.42714 0.09799 0.0
C1898 C 0.2394 0.57376 0.90337 0.0
C1899 C 0.23002 0.58555 0.91513 0.0
H1900 H 0.26527 0.56385 0.89436 0.0
C1901 C 0.23997 0.5981 0.92552 0.0
H1902 H 0.23208 0.564 0.89512 0.0
C1903 C 0.25898 0.59794 0.92515 0.0
C1904 C 0.26838 0.58533 0.91428 0.0
H1905 H 0.23311 0.60738 0.93467 0.0
H1906 H 0.26632 0.60714 0.93401 0.0
C1907 C 0.25841 0.57369 0.9029 0.0
C1908 C 0.40201 0.24158 0.92576 0.0
C1909 C 0.41397 0.23162 0.91471 0.0
H1910 H 0.39365 0.2679 0.93492 0.0
C1911 C 0.42533 0.24098 0.90252 0.0
H1912 H 0.39308 0.23473 0.93526 0.0
C1913 C 0.42558 0.25998 0.90224 0.0
C1914 C 0.41459 0.26994 0.91425 0.0
H1915 H 0.43464 0.23365 0.89378 0.0
H1916 H 0.43511 0.26683 0.89333 0.0
C1917 C 0.40237 0.26057 0.92558 0.0
C1918 C 0.75943 0.40236 0.92447 0.0
C1919 C 0.76931 0.41447 0.9135 0.0
H1920 H 0.73315 0.39376 0.9336 0.0
C1921 C 0.75984 0.42586 0.90143 0.0
H1922 H 0.76636 0.39341 0.93389 0.0
C1923 C 0.74083 0.42599 0.90117 0.0
C1924 C 0.73095 0.41482 0.91309 0.0
H1925 H 0.7671 0.43528 0.89274 0.0
H1926 H 0.7339 0.43552 0.89234 0.0
C1927 C 0.74042 0.4026 0.92432 0.0
C1928 C 0.5986 0.75914 0.92318 0.0
C1929 C 0.58612 0.7691 0.91272 0.0
H1930 H 0.6074 0.73281 0.93191 0.0
C1931 C 0.57419 0.75974 0.90108 0.0
H1932 H 0.60797 0.76598 0.93224 0.0
C1933 C 0.57393 0.74074 0.9008 0.0
C1934 C 0.5855 0.73078 0.91226 0.0
H1935 H 0.56448 0.76707 0.89279 0.0
H1936 H 0.564 0.7339 0.89235 0.0
C1937 C 0.59824 0.74014 0.923 0.0
C1938 C 0.74071 0.59792 0.07345 0.0
C1939 C 0.73132 0.58567 0.08472 0.0
H1940 H 0.76659 0.60716 0.06375 0.0
C1941 C 0.74128 0.57449 0.09656 0.0
H1942 H 0.73338 0.60676 0.06423 0.0
C1943 C 0.76029 0.57464 0.09619 0.0
C1944 C 0.76968 0.58607 0.08408 0.0
H1945 H 0.73442 0.56493 0.10541 0.0
H1946 H 0.76761 0.56522 0.10482 0.0
C1947 C 0.75973 0.59818 0.07319 0.0
C1948 C 0.42695 0.74218 0.09727 0.0
C1949 C 0.41522 0.73231 0.0859 0.0
H1950 H 0.43686 0.76843 0.10505 0.0
C1951 C 0.40266 0.7418 0.07505 0.0
H1952 H 0.43676 0.73525 0.10579 0.0
C1953 C 0.40263 0.7608 0.07471 0.0
C1954 C 0.41526 0.77065 0.08509 0.0
H1955 H 0.39338 0.73455 0.06621 0.0
H1956 H 0.39338 0.76772 0.06557 0.0
C1957 C 0.42702 0.76119 0.09681 0.0
C1958 C 0.59807 0.24097 0.0754 0.0
C1959 C 0.58592 0.23123 0.08643 0.0
H1960 H 0.6068 0.26713 0.0661 0.0
C1961 C 0.5746 0.24081 0.09849 0.0
H1962 H 0.60698 0.23395 0.06599 0.0
C1963 C 0.57457 0.25981 0.09864 0.0
C1964 C 0.58576 0.26955 0.08662 0.0
H1965 H 0.56515 0.23365 0.10722 0.0
H1966 H 0.56508 0.26683 0.10744 0.0
C1967 C 0.59794 0.25997 0.07544 0.0
C1968 C 0.90286 0.76306 0.57629 0.0
C1969 C 0.91535 0.7723 0.58744 0.0
H1970 H 0.89329 0.73732 0.56662 0.0
C1971 C 0.92621 0.76224 0.59947 0.0
H1972 H 0.89422 0.77046 0.56693 0.0
C1973 C 0.92564 0.74325 0.59931 0.0
C1974 C 0.91421 0.73399 0.58709 0.0
H1975 H 0.9359 0.76898 0.60828 0.0
H1976 H 0.93491 0.73584 0.60803 0.0
C1977 C 0.9023 0.74407 0.57611 0.0
C1978 C 0.24421 0.93662 0.55955 0.0
C1979 C 0.23453 0.92711 0.57297 0.0
H1980 H 0.27011 0.94356 0.54849 0.0
C1981 C 0.24418 0.9166 0.58568 0.0
H1982 H 0.23718 0.94481 0.54953 0.0
C1983 C 0.26324 0.91568 0.58492 0.0
C1984 C 0.27284 0.92545 0.57159 0.0
H1985 H 0.23703 0.90904 0.5961 0.0
H1986 H 0.27045 0.90763 0.59492 0.0
C1987 C 0.26311 0.93587 0.55892 0.0
C1988 C 0.07392 0.24255 0.59837 0.0
C1989 C 0.08463 0.23244 0.58625 0.0
H1990 H 0.06511 0.269 0.60673 0.0
C1991 C 0.09658 0.24163 0.5745 0.0
H1992 H 0.06461 0.23583 0.6076 0.0
C1993 C 0.09696 0.26062 0.57408 0.0
C1994 C 0.08529 0.27073 0.58529 0.0
H1995 H 0.10508 0.23417 0.56507 0.0
H1996 H 0.10568 0.26733 0.56429 0.0
C1997 C 0.07419 0.26154 0.59785 0.0
C1998 C 0.75822 0.09941 0.57045 0.0
C1999 C 0.76784 0.08868 0.58299 0.0
H2000 H 0.73218 0.1069 0.55976 0.0
C2001 C 0.75812 0.07869 0.59603 0.0
H2002 H 0.76538 0.10731 0.56029 0.0
C2003 C 0.73911 0.07832 0.59561 0.0
C2004 C 0.72952 0.08809 0.58227 0.0
H2005 H 0.76517 0.0703 0.60586 0.0
H2006 H 0.73197 0.06972 0.6052 0.0
C2007 C 0.73921 0.09919 0.57015 0.0
C2008 C 0.90178 0.2401 0.42613 0.0
C2009 C 0.9137 0.23065 0.41456 0.0
H2010 H 0.89277 0.26601 0.43587 0.0
C2011 C 0.9244 0.24049 0.4022 0.0
H2012 H 0.89329 0.23286 0.43573 0.0
C2013 C 0.92417 0.25949 0.40235 0.0
C2014 C 0.91314 0.26895 0.41477 0.0
H2015 H 0.93368 0.23356 0.3931 0.0
H2016 H 0.93326 0.26675 0.39332 0.0
C2017 C 0.90145 0.25909 0.42618 0.0
C2018 C 0.74121 0.93441 0.43763 0.0
C2019 C 0.73164 0.92263 0.42607 0.0
H2020 H 0.76705 0.94481 0.44585 0.0
C2021 C 0.74137 0.91199 0.41353 0.0
H2022 H 0.73408 0.94279 0.44743 0.0
C2023 C 0.76036 0.91334 0.41244 0.0
C2024 C 0.76987 0.92517 0.42404 0.0
H2025 H 0.73429 0.90287 0.40438 0.0
H2026 H 0.76758 0.90508 0.40262 0.0
C2027 C 0.7601 0.93559 0.4367 0.0
C2028 C 0.05958 0.75797 0.43735 0.0
C2029 C 0.0712 0.76749 0.42557 0.0
H2030 H 0.05091 0.73217 0.44741 0.0
C2031 C 0.08343 0.75768 0.41465 0.0
H2032 H 0.05002 0.76514 0.44596 0.0
C2033 C 0.08411 0.73865 0.41565 0.0
C2034 C 0.07242 0.72919 0.42745 0.0
H2035 H 0.09262 0.7647 0.40552 0.0
H2036 H 0.09365 0.73137 0.40713 0.0
C2037 C 0.06012 0.73906 0.43821 0.0
C2038 C 0.23911 0.06961 0.4442 0.0
C2039 C 0.22928 0.0756 0.42898 0.0
H2040 H 0.26514 0.06551 0.45632 0.0
C2041 C 0.23876 0.08322 0.41423 0.0
H2042 H 0.23224 0.06377 0.45584 0.0
C2043 C 0.25781 0.08442 0.41461 0.0
C2044 C 0.26758 0.07786 0.42967 0.0
H2045 H 0.23149 0.08806 0.40238 0.0
H2046 H 0.2649 0.08993 0.40294 0.0
C2047 C 0.258 0.07066 0.44451 0.0
C2048 C 0.60034 0.91947 0.74041 0.0
C2049 C 0.58597 0.91125 0.73083 0.0
H2050 H 0.61089 0.92733 0.76639 0.0
C2051 C 0.5721 0.90251 0.74061 0.0
H2052 H 0.61127 0.92625 0.73323 0.0
C2053 C 0.57184 0.90324 0.75958 0.0
C2054 C 0.5855 0.91262 0.76911 0.0
H2055 H 0.56087 0.89604 0.73361 0.0
H2056 H 0.56046 0.8972 0.76672 0.0
C2057 C 0.60013 0.9201 0.7594 0.0
C2058 C 0.07491 0.59799 0.74104 0.0
C2059 C 0.08632 0.58585 0.73167 0.0
H2060 H 0.06508 0.60712 0.76687 0.0
C2061 C 0.09827 0.57478 0.74162 0.0
H2062 H 0.06562 0.60676 0.73371 0.0
C2063 C 0.09787 0.57491 0.76061 0.0
C2064 C 0.08563 0.58623 0.76997 0.0
H2065 H 0.10723 0.56532 0.73476 0.0
H2066 H 0.10658 0.56557 0.76794 0.0
C2067 C 0.07463 0.59823 0.76002 0.0
C2068 C 0.40311 0.08109 0.74305 0.0
C2069 C 0.41751 0.08957 0.73376 0.0
H2070 H 0.39229 0.07283 0.7688 0.0
C2071 C 0.43117 0.09831 0.74382 0.0
H2072 H 0.39234 0.07429 0.73565 0.0
C2073 C 0.43117 0.0974 0.76278 0.0
C2074 C 0.41747 0.08779 0.77202 0.0
H2075 H 0.44242 0.10499 0.73704 0.0
H2076 H 0.44239 0.10348 0.77014 0.0
C2077 C 0.40307 0.08024 0.76203 0.0
C2078 C 0.92538 0.40332 0.73894 0.0
C2079 C 0.91405 0.41556 0.7296 0.0
H2080 H 0.93506 0.39399 0.76477 0.0
C2081 C 0.90207 0.42657 0.73956 0.0
H2082 H 0.9347 0.39459 0.7316 0.0
C2083 C 0.90236 0.42629 0.75856 0.0
C2084 C 0.91453 0.4149 0.76791 0.0
H2085 H 0.89316 0.4361 0.73273 0.0
H2086 H 0.89362 0.4356 0.7659 0.0
C2087 C 0.92557 0.40294 0.75793 0.0
C2088 C 0.58444 0.08431 0.23928 0.0
C2089 C 0.57208 0.0735 0.22947 0.0
H2090 H 0.59326 0.0934 0.2656 0.0
C2091 C 0.55871 0.06375 0.23897 0.0
H2092 H 0.59481 0.09207 0.23228 0.0
C2093 C 0.55783 0.06451 0.25787 0.0
C2094 C 0.57022 0.07515 0.26774 0.0
H2095 H 0.54894 0.05536 0.23182 0.0
H2096 H 0.54748 0.0566 0.26475 0.0
C2097 C 0.58346 0.08518 0.2583 0.0
C2098 C 0.90119 0.57366 0.23951 0.0
C2099 C 0.91343 0.5851 0.23033 0.0
H2100 H 0.89175 0.56374 0.2652 0.0
C2101 C 0.92434 0.59705 0.24046 0.0
H2102 H 0.89254 0.56436 0.23205 0.0
C2103 C 0.92396 0.59661 0.25945 0.0
C2104 C 0.91256 0.58432 0.26863 0.0
H2105 H 0.93389 0.60604 0.23375 0.0
H2106 H 0.93319 0.60533 0.26691 0.0
C2107 C 0.90071 0.57331 0.2585 0.0
C2108 C 0.4033 0.92401 0.23955 0.0
C2109 C 0.41529 0.91328 0.22929 0.0
H2110 H 0.39498 0.93247 0.26609 0.0
C2111 C 0.42668 0.90086 0.23831 0.0
H2112 H 0.39432 0.93365 0.23297 0.0
C2113 C 0.42707 0.90017 0.25728 0.0
C2114 C 0.41608 0.91191 0.26755 0.0
H2115 H 0.43601 0.89233 0.23074 0.0
H2116 H 0.43668 0.89116 0.26387 0.0
C2117 C 0.4037 0.92334 0.25852 0.0
C2118 C 0.07432 0.40169 0.26011 0.0
C2119 C 0.08557 0.41386 0.26964 0.0
H2120 H 0.06488 0.39252 0.23415 0.0
C2121 C 0.09767 0.42491 0.25985 0.0
H2122 H 0.06491 0.39294 0.26731 0.0
C2123 C 0.09756 0.42475 0.24085 0.0
C2124 C 0.08546 0.41342 0.23132 0.0
H2125 H 0.10651 0.4344 0.26683 0.0
H2126 H 0.10638 0.43409 0.23365 0.0
C2127 C 0.07432 0.40142 0.24112 0.0
C2128 C 0.74087 0.5743 0.90097 0.0
C2129 C 0.73091 0.58546 0.91283 0.0
H2130 H 0.7672 0.56512 0.89262 0.0
C2131 C 0.7403 0.59777 0.92403 0.0
H2132 H 0.73401 0.5647 0.89216 0.0
C2133 C 0.75931 0.5981 0.92422 0.0
C2134 C 0.76927 0.58601 0.91331 0.0
H2135 H 0.73297 0.6066 0.93326 0.0
H2136 H 0.76618 0.60712 0.93362 0.0
C2137 C 0.75988 0.57452 0.90126 0.0
C2138 C 0.76059 0.42585 0.09648 0.0
C2139 C 0.76996 0.41443 0.08437 0.0
H2140 H 0.73472 0.43558 0.1057 0.0
C2141 C 0.76001 0.40234 0.07346 0.0
H2142 H 0.76792 0.43526 0.10512 0.0
C2143 C 0.741 0.4026 0.07372 0.0
C2144 C 0.73162 0.41486 0.08499 0.0
H2145 H 0.76686 0.39335 0.06402 0.0
H2146 H 0.73366 0.39377 0.0645 0.0
C2147 C 0.74158 0.42602 0.09685 0.0
C2148 C 0.59824 0.73946 0.07381 0.0
C2149 C 0.58563 0.73024 0.08482 0.0
H2150 H 0.60797 0.76519 0.06426 0.0
C2151 C 0.5743 0.74034 0.0964 0.0
H2152 H 0.60721 0.73202 0.06481 0.0
C2153 C 0.57466 0.75932 0.09599 0.0
C2154 C 0.58646 0.76855 0.08411 0.0
H2155 H 0.56446 0.7336 0.10505 0.0
H2156 H 0.56513 0.76676 0.1044 0.0
C2157 C 0.59871 0.75846 0.07351 0.0
C2158 C 0.25875 0.57432 0.09861 0.0
C2159 C 0.26851 0.58607 0.08718 0.0
H2160 H 0.23257 0.56436 0.10657 0.0
C2161 C 0.25892 0.59862 0.07641 0.0
H2162 H 0.26577 0.56452 0.10707 0.0
C2163 C 0.2399 0.59862 0.07621 0.0
C2164 C 0.23016 0.58595 0.08665 0.0
H2165 H 0.2661 0.6079 0.06752 0.0
H2166 H 0.23289 0.60785 0.06714 0.0
C2167 C 0.23974 0.57421 0.09829 0.0
C2168 C 0.42508 0.24236 0.09805 0.0
C2169 C 0.41367 0.23305 0.08586 0.0
H2170 H 0.43502 0.26816 0.1072 0.0
C2171 C 0.40181 0.24307 0.07476 0.0
H2172 H 0.43431 0.23498 0.10683 0.0
C2173 C 0.40229 0.26206 0.07491 0.0
C2174 C 0.41455 0.27136 0.08624 0.0
H2175 H 0.39284 0.23626 0.06527 0.0
H2176 H 0.39364 0.26943 0.06554 0.0
C2177 C 0.42547 0.26136 0.09828 0.0
C2178 C 0.2398 0.42628 0.90267 0.0
C2179 C 0.23038 0.41442 0.91433 0.0
H2180 H 0.26569 0.43629 0.89386 0.0
C2181 C 0.24029 0.40189 0.92476 0.0
H2182 H 0.2325 0.43604 0.8944 0.0
C2183 C 0.2593 0.40212 0.92454 0.0
C2184 C 0.26873 0.41478 0.91376 0.0
H2185 H 0.2334 0.39257 0.93384 0.0
H2186 H 0.26661 0.39292 0.93343 0.0
C2187 C 0.25881 0.42641 0.90233 0.0
C2188 C 0.5748 0.25895 0.90241 0.0
C2189 C 0.58585 0.26893 0.91435 0.0
H2190 H 0.56562 0.23262 0.89411 0.0
C2191 C 0.59802 0.25957 0.92575 0.0
H2192 H 0.56532 0.26579 0.89346 0.0
C2193 C 0.59827 0.24057 0.92606 0.0
C2194 C 0.58626 0.23061 0.91507 0.0
H2195 H 0.60678 0.26691 0.93504 0.0
H2196 H 0.60716 0.23374 0.9356 0.0
C2197 C 0.57496 0.23996 0.90282 0.0
C2198 C 0.42641 0.75905 0.90167 0.0
C2199 C 0.41474 0.76859 0.91342 0.0
H2200 H 0.43619 0.73308 0.89289 0.0
C2201 C 0.40227 0.75882 0.92406 0.0
H2202 H 0.43611 0.76625 0.89323 0.0
C2203 C 0.4024 0.73981 0.92394 0.0
C2204 C 0.41489 0.73027 0.91306 0.0
H2205 H 0.39309 0.7658 0.93321 0.0
H2206 H 0.39327 0.73261 0.93298 0.0
C2207 C 0.42643 0.74006 0.90143 0.0
C2208 C 0.00899 0.17686 0.40253 0.0
C2209 C 0.01833 0.1654 0.41465 0.0
H2210 H 0.98305 0.18675 0.39349 0.0
C2211 C 0.00829 0.15347 0.42566 0.0
H2212 H 0.01638 0.1862 0.39388 0.0
C2213 C 0.98931 0.15375 0.42542 0.0
C2214 C 0.97992 0.16601 0.41418 0.0
H2215 H 0.01509 0.14439 0.43506 0.0
H2216 H 0.982 0.1449 0.43464 0.0
C2217 C 0.98992 0.17718 0.40231 0.0
C2218 C 0.8199 0.0101 0.39722 0.0
C2219 C 0.83407 0.01989 0.40551 0.0
H2220 H 0.80849 0.9838 0.39184 0.0
C2221 C 0.84926 0.01039 0.41212 0.0
H2222 H 0.80803 0.01708 0.39199 0.0
C2223 C 0.84954 0.99143 0.41202 0.0
C2224 C 0.83461 0.98157 0.40532 0.0
H2225 H 0.86048 0.01757 0.41843 0.0
H2226 H 0.86095 0.98452 0.41826 0.0
C2227 C 0.82017 0.99105 0.39713 0.0
C2228 C 0.9874 0.84364 0.42627 0.0
C2229 C 0.97823 0.8318 0.41442 0.0
H2230 H 0.01296 0.85269 0.4367 0.0
C2231 C 0.98845 0.82112 0.4023 0.0
H2232 H 0.97992 0.85213 0.4357 0.0
C2233 C 0.00753 0.8215 0.40283 0.0
C2234 C 0.01662 0.8325 0.41554 0.0
H2235 H 0.98175 0.81188 0.393 0.0
H2236 H 0.0151 0.81251 0.39396 0.0
C2237 C 0.00635 0.84396 0.42685 0.0
C2238 C 0.17555 0.98621 0.40583 0.0
C2239 C 0.17347 0.97574 0.4217 0.0
H2240 H 0.17627 0.01311 0.39431 0.0
C2241 C 0.16954 0.9846 0.43813 0.0
H2242 H 0.17856 0.97972 0.39297 0.0
C2243 C 0.16799 0.00344 0.43884 0.0
C2244 C 0.17053 0.01405 0.42318 0.0
H2245 H 0.16769 0.97695 0.45058 0.0
H2246 H 0.16514 0.00971 0.45186 0.0
C2247 C 0.17421 0.00527 0.40659 0.0
C2248 C 0.99455 0.82817 0.59689 0.0
C2249 C 0.98505 0.83207 0.58076 0.0
H2250 H 0.02072 0.82436 0.60945 0.0
C2251 C 0.99498 0.83588 0.56491 0.0
H2252 H 0.98724 0.82515 0.60931 0.0
C2253 C 0.0139 0.83521 0.56494 0.0
C2254 C 0.02347 0.8309 0.58087 0.0
H2255 H 0.98812 0.83895 0.55224 0.0
H2256 H 0.02105 0.8379 0.55235 0.0
C2257 C 0.01367 0.8277 0.59697 0.0
C2258 C 0.17775 0.01364 0.59579 0.0
C2259 C 0.17578 0.02394 0.57981 0.0
H2260 H 0.17887 0.98684 0.60749 0.0
C2261 C 0.17241 0.01493 0.56335 0.0
H2262 H 0.18032 0.02028 0.60867 0.0
C2263 C 0.17129 0.99606 0.56273 0.0
C2264 C 0.17375 0.98562 0.57851 0.0
H2265 H 0.17065 0.02247 0.55082 0.0
H2266 H 0.16887 0.98965 0.54969 0.0
C2267 C 0.17689 0.99456 0.59512 0.0
C2268 C 0.00892 0.1792 0.60048 0.0
C2269 C 0.01882 0.16771 0.58885 0.0
H2270 H 0.98254 0.18866 0.60866 0.0
C2271 C 0.00936 0.15528 0.57788 0.0
H2272 H 0.01587 0.18891 0.6091 0.0
C2273 C 0.99038 0.15517 0.5776 0.0
C2274 C 0.98045 0.16745 0.58832 0.0
H2275 H 0.01659 0.14617 0.56885 0.0
H2276 H 0.98352 0.14597 0.56838 0.0
C2277 C 0.98986 0.17906 0.60023 0.0
C2278 C 0.83165 0.01095 0.59389 0.0
C2279 C 0.81918 0.0203 0.58281 0.0
H2280 H 0.84227 0.98494 0.602 0.0
C2281 C 0.80667 0.01027 0.57245 0.0
H2282 H 0.84145 0.01835 0.60201 0.0
C2283 C 0.80714 0.99135 0.57244 0.0
C2284 C 0.82013 0.98194 0.58278 0.0
H2285 H 0.79678 0.01705 0.56389 0.0
H2286 H 0.7976 0.98411 0.56387 0.0
C2287 C 0.83213 0.99187 0.59387 0.0
C2288 C 0.43471 0.01173 0.16727 0.0
C2289 C 0.41872 0.021 0.17202 0.0
H2290 H 0.44764 0.98622 0.16267 0.0
C2291 C 0.40274 0.01096 0.17514 0.0
H2292 H 0.4472 0.01908 0.16461 0.0
C2293 C 0.40302 0.99188 0.1742 0.0
C2294 C 0.41922 0.98267 0.16983 0.0
H2295 H 0.39022 0.0178 0.17879 0.0
H2296 H 0.39072 0.98436 0.1772 0.0
C2297 C 0.43493 0.99285 0.16607 0.0
C2298 C 0.00973 0.4006 0.17773 0.0
C2299 C 0.01947 0.41301 0.16694 0.0
H2300 H 0.98347 0.39149 0.18666 0.0
C2301 C 0.00984 0.42455 0.15516 0.0
H2302 H 0.01681 0.39153 0.18693 0.0
C2303 C 0.99086 0.42453 0.15501 0.0
C2304 C 0.98107 0.41296 0.16663 0.0
H2305 H 0.01694 0.43419 0.14659 0.0
H2306 H 0.98387 0.43415 0.14633 0.0
C2307 C 0.99066 0.40057 0.17757 0.0
C2308 C 0.59843 0.98962 0.17783 0.0
C2309 C 0.58755 0.97923 0.16604 0.0
H2310 H 0.60537 0.01637 0.18729 0.0
C2311 C 0.57674 0.98821 0.15311 0.0
H2312 H 0.6069 0.98306 0.18793 0.0
C2313 C 0.57585 0.00713 0.15277 0.0
C2314 C 0.58577 0.01755 0.16531 0.0
H2315 H 0.56831 0.9806 0.14374 0.0
H2316 H 0.56675 0.01358 0.14315 0.0
C2317 C 0.59757 0.00867 0.17746 0.0
C2318 C 0.00914 0.59844 0.17863 0.0
C2319 C 0.01897 0.58611 0.16783 0.0
H2320 H 0.98281 0.60747 0.18743 0.0
C2321 C 0.00943 0.57464 0.15591 0.0
H2322 H 0.01614 0.60745 0.18794 0.0
C2323 C 0.99046 0.57466 0.15561 0.0
C2324 C 0.98057 0.58614 0.16723 0.0
H2325 H 0.01661 0.56507 0.14732 0.0
H2326 H 0.98354 0.56509 0.14681 0.0
C2327 C 0.99007 0.59846 0.17833 0.0
C2328 C 0.4208 0.98977 0.84638 0.0
C2329 C 0.41208 0.98038 0.83222 0.0
H2330 H 0.42837 0.01555 0.85744 0.0
C2331 C 0.40228 0.99034 0.81918 0.0
H2332 H 0.42836 0.98248 0.8567 0.0
C2333 C 0.40229 0.00938 0.8196 0.0
C2334 C 0.41208 0.01874 0.83308 0.0
H2335 H 0.39541 0.98347 0.80812 0.0
H2336 H 0.39542 0.01674 0.80886 0.0
C2337 C 0.4208 0.00874 0.8468 0.0
C2338 C 0.00957 0.40132 0.8213 0.0
C2339 C 0.01924 0.41358 0.83232 0.0
H2340 H 0.98337 0.39247 0.81193 0.0
C2341 C 0.00952 0.42509 0.84406 0.0
H2342 H 0.01671 0.39229 0.81212 0.0
C2343 C 0.99054 0.42519 0.84395 0.0
C2344 C 0.98084 0.41379 0.8321 0.0
H2345 H 0.01657 0.43461 0.85281 0.0
H2346 H 0.98349 0.43478 0.85262 0.0
C2347 C 0.9905 0.40142 0.82119 0.0
C2348 C 0.59973 0.00995 0.81766 0.0
C2349 C 0.59041 0.01955 0.8313 0.0
H2350 H 0.60615 0.98384 0.80635 0.0
C2351 C 0.58208 0.00978 0.84543 0.0
H2352 H 0.60628 0.01712 0.80659 0.0
C2353 C 0.582 0.99081 0.8453 0.0
C2354 C 0.59025 0.98118 0.83103 0.0
H2355 H 0.57489 0.01679 0.85621 0.0
H2356 H 0.57475 0.98371 0.85597 0.0
C2357 C 0.59965 0.9909 0.81752 0.0
C2358 C 0.0093 0.59937 0.82188 0.0
C2359 C 0.0187 0.58693 0.83295 0.0
H2360 H 0.98332 0.6085 0.81218 0.0
C2361 C 0.00871 0.57539 0.84442 0.0
H2362 H 0.01665 0.60843 0.8129 0.0
C2363 C 0.98974 0.57543 0.84401 0.0
C2364 C 0.98031 0.58701 0.83211 0.0
H2365 H 0.01556 0.56574 0.85319 0.0
H2366 H 0.98249 0.56581 0.85247 0.0
C2367 C 0.99023 0.5994 0.82147 0.0
C2368 C 0.1783 0.40082 0.00953 0.0
C2369 C 0.16672 0.41256 0.0192 0.0
H2370 H 0.18791 0.39228 0.98334 0.0
C2371 C 0.15427 0.42333 0.00952 0.0
H2372 H 0.18803 0.39236 0.01664 0.0
C2373 C 0.15419 0.42328 0.99056 0.0
C2374 C 0.16657 0.41247 0.98084 0.0
H2375 H 0.14509 0.43243 0.01658 0.0
H2376 H 0.14496 0.43235 0.98353 0.0
C2377 C 0.17822 0.40078 0.99048 0.0
C2378 C 0.17777 0.59896 0.99156 0.0
C2379 C 0.16628 0.58711 0.98192 0.0
H2380 H 0.18736 0.6076 0.01772 0.0
C2381 C 0.15395 0.57623 0.99163 0.0
H2382 H 0.1874 0.60752 0.98443 0.0
C2383 C 0.15392 0.57628 0.0106 0.0
C2384 C 0.16622 0.58722 0.02028 0.0
H2385 H 0.14484 0.56704 0.9846 0.0
H2386 H 0.14479 0.56713 0.01765 0.0
C2387 C 0.17774 0.59901 0.01061 0.0
C2388 C 0.40061 0.17967 0.00998 0.0
C2389 C 0.4128 0.1687 0.01981 0.0
H2390 H 0.39185 0.18871 0.98366 0.0
C2391 C 0.42427 0.15677 0.01029 0.0
H2392 H 0.3916 0.18899 0.01696 0.0
C2393 C 0.42443 0.15663 0.99134 0.0
C2394 C 0.4131 0.1684 0.98147 0.0
H2395 H 0.43373 0.14806 0.01748 0.0
H2396 H 0.434 0.14782 0.98444 0.0
C2397 C 0.40075 0.17951 0.99093 0.0
C2398 C 0.82253 0.40127 0.98926 0.0
C2399 C 0.83362 0.41347 0.97957 0.0
H2400 H 0.81332 0.39234 0.01546 0.0
C2401 C 0.84563 0.42473 0.98923 0.0
H2402 H 0.81314 0.39242 0.98216 0.0
C2403 C 0.84574 0.42468 0.00819 0.0
C2404 C 0.83383 0.41337 0.01793 0.0
H2405 H 0.85443 0.43419 0.98216 0.0
H2406 H 0.85462 0.43411 0.01521 0.0
C2407 C 0.82264 0.40123 0.00831 0.0
C2408 C 0.57783 0.84504 0.00812 0.0
C2409 C 0.58867 0.83259 0.01772 0.0
H2410 H 0.56857 0.8543 0.98219 0.0
C2411 C 0.60031 0.82099 0.00797 0.0
H2412 H 0.5688 0.85424 0.01524 0.0
C2413 C 0.60019 0.82102 0.98892 0.0
C2414 C 0.58841 0.83266 0.97937 0.0
H2415 H 0.60883 0.81126 0.01501 0.0
H2416 H 0.60861 0.81133 0.98172 0.0
C2417 C 0.5777 0.84507 0.98916 0.0
C2418 C 0.82256 0.59947 0.00815 0.0
C2419 C 0.83372 0.58729 0.01776 0.0
H2420 H 0.81314 0.60837 0.982 0.0
C2421 C 0.84567 0.57602 0.00801 0.0
H2422 H 0.81322 0.60832 0.01531 0.0
C2423 C 0.84563 0.57606 0.98905 0.0
C2424 C 0.83364 0.58735 0.97939 0.0
H2425 H 0.85453 0.56657 0.01502 0.0
H2426 H 0.85446 0.56663 0.98197 0.0
C2427 C 0.82251 0.5995 0.98909 0.0
C2428 C 0.40197 0.82168 0.98934 0.0
C2429 C 0.4138 0.833 0.97947 0.0
H2430 H 0.3935 0.81244 0.01568 0.0
C2431 C 0.42482 0.84539 0.98895 0.0
H2432 H 0.39331 0.81201 0.98239 0.0
C2433 C 0.42493 0.84562 0.0079 0.0
C2434 C 0.41402 0.8335 0.01781 0.0
H2435 H 0.43399 0.85438 0.98173 0.0
H2436 H 0.43419 0.85479 0.01477 0.0
C2437 C 0.40208 0.82193 0.00838 0.0
C2438 C 0.59862 0.17793 0.99146 0.0
C2439 C 0.58633 0.16695 0.98178 0.0
H2440 H 0.60744 0.18729 0.01765 0.0
C2441 C 0.57469 0.15531 0.99146 0.0
H2442 H 0.60775 0.18704 0.98435 0.0
C2443 C 0.57451 0.15547 0.01042 0.0
C2444 C 0.58596 0.16726 0.02014 0.0
H2445 H 0.56514 0.14661 0.9844 0.0
H2446 H 0.56482 0.14688 0.01744 0.0
C2447 C 0.59844 0.17808 0.01051 0.0
C2448 C 0.50947 0.67675 0.90031 0.0
C2449 C 0.51926 0.66642 0.91306 0.0
H2450 H 0.48315 0.68538 0.89105 0.0
C2451 C 0.50969 0.65515 0.92514 0.0
H2452 H 0.51649 0.68555 0.89083 0.0
C2453 C 0.49071 0.65506 0.92527 0.0
C2454 C 0.48087 0.66623 0.91332 0.0
H2455 H 0.51684 0.64695 0.93506 0.0
H2456 H 0.48377 0.64679 0.93529 0.0
C2457 C 0.49039 0.67665 0.90044 0.0
C2458 C 0.32237 0.50967 0.90163 0.0
C2459 C 0.33263 0.51932 0.91455 0.0
H2460 H 0.31375 0.48349 0.89206 0.0
C2461 C 0.34382 0.50961 0.9266 0.0
H2462 H 0.31363 0.51681 0.89217 0.0
C2463 C 0.34389 0.49066 0.92653 0.0
C2464 C 0.33278 0.48095 0.91441 0.0
H2465 H 0.35198 0.51665 0.93664 0.0
H2466 H 0.35211 0.48361 0.93652 0.0
C2467 C 0.32244 0.49062 0.90157 0.0
C2468 C 0.49074 0.32247 0.90117 0.0
C2469 C 0.48116 0.33356 0.91345 0.0
H2470 H 0.51687 0.313 0.89223 0.0
C2471 C 0.49096 0.34527 0.9249 0.0
H2472 H 0.48354 0.3133 0.89218 0.0
C2473 C 0.50993 0.3451 0.92493 0.0
C2474 C 0.51955 0.3332 0.91351 0.0
H2475 H 0.48397 0.35406 0.93443 0.0
H2476 H 0.51705 0.35376 0.93448 0.0
C2477 C 0.50981 0.32229 0.9012 0.0
C2478 C 0.6776 0.50951 0.89991 0.0
C2479 C 0.66671 0.5192 0.91228 0.0
H2480 H 0.68676 0.48331 0.89092 0.0
C2481 C 0.65497 0.50953 0.92382 0.0
H2482 H 0.68678 0.51662 0.89085 0.0
C2483 C 0.65496 0.49057 0.92386 0.0
C2484 C 0.66669 0.48084 0.91236 0.0
H2485 H 0.64632 0.5166 0.93342 0.0
H2486 H 0.6463 0.48355 0.9335 0.0
C2487 C 0.67759 0.49046 0.89996 0.0
C2488 C 0.5101 0.32345 0.0991 0.0
C2489 C 0.51988 0.33419 0.08668 0.0
H2490 H 0.48379 0.31466 0.10823 0.0
C2491 C 0.51031 0.34604 0.07517 0.0
H2492 H 0.51713 0.3142 0.10815 0.0
C2493 C 0.49134 0.3463 0.07522 0.0
C2494 C 0.48149 0.33473 0.08678 0.0
H2495 H 0.51746 0.35457 0.06553 0.0
H2496 H 0.48438 0.35503 0.06561 0.0
C2497 C 0.49103 0.32372 0.09915 0.0
C2498 C 0.67833 0.50976 0.09794 0.0
C2499 C 0.66737 0.51935 0.08557 0.0
H2500 H 0.68757 0.48362 0.10705 0.0
C2501 C 0.6556 0.5096 0.07413 0.0
H2502 H 0.68753 0.51693 0.10693 0.0
C2503 C 0.65562 0.49064 0.0742 0.0
C2504 C 0.66741 0.481 0.08571 0.0
H2505 H 0.64691 0.51661 0.06452 0.0
H2506 H 0.64693 0.48356 0.06465 0.0
C2507 C 0.67835 0.4907 0.09801 0.0
C2508 C 0.4904 0.67755 0.09833 0.0
C2509 C 0.48052 0.66721 0.08565 0.0
H2510 H 0.51678 0.68604 0.10753 0.0
C2511 C 0.49001 0.65577 0.07367 0.0
H2512 H 0.48344 0.68648 0.10774 0.0
C2513 C 0.50898 0.65552 0.07355 0.0
C2514 C 0.51891 0.6667 0.08541 0.0
H2515 H 0.48279 0.64755 0.06381 0.0
H2516 H 0.51586 0.64711 0.0636 0.0
C2517 C 0.50947 0.67729 0.09821 0.0
C2518 C 0.3441 0.49193 0.07422 0.0
C2519 C 0.33296 0.48218 0.08628 0.0
H2520 H 0.3523 0.51797 0.06431 0.0
C2521 C 0.32269 0.49179 0.09923 0.0
H2522 H 0.35227 0.48493 0.06417 0.0
C2523 C 0.32271 0.51085 0.09931 0.0
C2524 C 0.33301 0.52056 0.08646 0.0
H2525 H 0.31399 0.48462 0.1087 0.0
H2526 H 0.31401 0.51795 0.10884 0.0
C2527 C 0.34413 0.51089 0.07431 0.0
C2528 C 0.92499 0.5102 0.65301 0.0
C2529 C 0.91366 0.52008 0.66479 0.0
H2530 H 0.9343 0.48406 0.64445 0.0
C2531 C 0.90128 0.5106 0.67586 0.0
H2532 H 0.93458 0.51711 0.64423 0.0
C2533 C 0.90113 0.49155 0.676 0.0
C2534 C 0.91334 0.48171 0.66505 0.0
H2535 H 0.89238 0.51787 0.68506 0.0
H2536 H 0.89211 0.48456 0.68531 0.0
C2537 C 0.92482 0.49124 0.65314 0.0
C2538 C 0.51116 0.93642 0.66409 0.0
C2539 C 0.52082 0.92063 0.66878 0.0
H2540 H 0.48525 0.94911 0.6609 0.0
C2541 C 0.51106 0.9047 0.67287 0.0
H2542 H 0.51825 0.94891 0.66082 0.0
C2543 C 0.49197 0.90482 0.67292 0.0
C2544 C 0.48238 0.92087 0.66889 0.0
H2545 H 0.51816 0.89234 0.67655 0.0
H2546 H 0.48474 0.89254 0.67663 0.0
C2547 C 0.4922 0.93653 0.66414 0.0
C2548 C 0.09982 0.51051 0.67789 0.0
C2549 C 0.08777 0.52036 0.66679 0.0
H2550 H 0.10839 0.48418 0.6871 0.0
C2551 C 0.07639 0.51085 0.65477 0.0
H2552 H 0.10876 0.51749 0.68729 0.0
C2553 C 0.07616 0.49189 0.65469 0.0
C2554 C 0.08733 0.482 0.6666 0.0
H2555 H 0.06702 0.51804 0.64597 0.0
H2556 H 0.06664 0.48499 0.64581 0.0
C2557 C 0.09961 0.49145 0.67779 0.0
C2558 C 0.49252 0.06538 0.66671 0.0
C2559 C 0.48294 0.08123 0.67137 0.0
H2560 H 0.51837 0.05264 0.6633 0.0
C2561 C 0.49275 0.09719 0.67517 0.0
H2562 H 0.48538 0.05286 0.66366 0.0
C2563 C 0.51184 0.09706 0.67494 0.0
C2564 C 0.52135 0.08097 0.67093 0.0
H2565 H 0.48571 0.1096 0.6788 0.0
H2566 H 0.51912 0.10938 0.67841 0.0
C2567 C 0.51146 0.06525 0.66651 0.0
C2568 C 0.92318 0.48905 0.34419 0.0
C2569 C 0.91196 0.47927 0.33223 0.0
H2570 H 0.93237 0.51511 0.35309 0.0
C2571 C 0.89967 0.48883 0.32114 0.0
H2572 H 0.9327 0.48207 0.35299 0.0
C2573 C 0.89948 0.50788 0.32119 0.0
C2574 C 0.91158 0.51762 0.33234 0.0
H2575 H 0.89085 0.48164 0.3118 0.0
H2576 H 0.89052 0.51495 0.31188 0.0
C2577 C 0.92298 0.508 0.34425 0.0
C2578 C 0.49364 0.92889 0.33725 0.0
C2579 C 0.48381 0.91432 0.32981 0.0
H2580 H 0.51968 0.94073 0.34219 0.0
C2581 C 0.4934 0.89941 0.32263 0.0
H2582 H 0.4867 0.94058 0.34293 0.0
C2583 C 0.5125 0.89945 0.32231 0.0
C2584 C 0.52222 0.91449 0.32901 0.0
H2585 H 0.48616 0.88799 0.31679 0.0
H2586 H 0.5196 0.88807 0.31625 0.0
C2587 C 0.51259 0.92901 0.33679 0.0
C2588 C 0.09751 0.5087 0.32347 0.0
C2589 C 0.085 0.51818 0.33439 0.0
H2590 H 0.10687 0.48266 0.31419 0.0
C2591 C 0.07355 0.50828 0.34603 0.0
H2592 H 0.10652 0.51597 0.31436 0.0
C2593 C 0.07376 0.48932 0.34595 0.0
C2594 C 0.08543 0.47979 0.33421 0.0
H2595 H 0.06384 0.51518 0.3547 0.0
H2596 H 0.0642 0.48213 0.35454 0.0
C2597 C 0.09772 0.48964 0.32337 0.0
C2598 C 0.50623 0.06984 0.34552 0.0
C2599 C 0.51628 0.08172 0.33446 0.0
H2600 H 0.47995 0.06048 0.35363 0.0
C2601 C 0.50697 0.09491 0.32422 0.0
H2602 H 0.51301 0.0596 0.35365 0.0
C2603 C 0.4879 0.09538 0.32416 0.0
C2604 C 0.47787 0.0827 0.33437 0.0
H2605 H 0.51437 0.10424 0.31556 0.0
H2606 H 0.48103 0.10507 0.31545 0.0
C2607 C 0.48726 0.07035 0.34551 0.0
C2608 C 0.6783 0.90021 0.49076 0.0
C2609 C 0.66679 0.91224 0.48138 0.0
H2610 H 0.68853 0.89165 0.51672 0.0
C2611 C 0.655 0.92347 0.49136 0.0
H2612 H 0.68754 0.89141 0.48341 0.0
C2613 C 0.6556 0.92364 0.51029 0.0
C2614 C 0.66797 0.91257 0.51969 0.0
H2615 H 0.64587 0.93279 0.48452 0.0
H2616 H 0.64689 0.93307 0.51752 0.0
C2617 C 0.67888 0.90037 0.50981 0.0
C2618 C 0.6526 0.07402 0.50738 0.0
C2619 C 0.66441 0.08577 0.51671 0.0
H2620 H 0.64359 0.06393 0.48169 0.0
C2621 C 0.67498 0.09815 0.50668 0.0
H2622 H 0.64418 0.06441 0.51471 0.0
C2623 C 0.67465 0.09788 0.48762 0.0
C2624 C 0.66373 0.08522 0.47835 0.0
H2625 H 0.6842 0.10738 0.51351 0.0
H2626 H 0.68363 0.10688 0.48019 0.0
C2627 C 0.65226 0.07375 0.48843 0.0
C2628 C 0.93482 0.67034 0.48945 0.0
C2629 C 0.91846 0.67328 0.48008 0.0
H2630 H 0.94818 0.66812 0.51504 0.0
C2631 C 0.90234 0.67577 0.49008 0.0
H2632 H 0.94745 0.66823 0.48216 0.0
C2633 C 0.90278 0.67588 0.50918 0.0
C2634 C 0.9193 0.67323 0.51847 0.0
H2635 H 0.88954 0.67806 0.48316 0.0
H2636 H 0.89031 0.67826 0.51664 0.0
C2637 C 0.93522 0.6702 0.50836 0.0
C2638 C 0.34307 0.93144 0.48641 0.0
C2639 C 0.33419 0.91691 0.47778 0.0
H2640 H 0.35063 0.94394 0.51145 0.0
C2641 C 0.32717 0.90269 0.48844 0.0
H2642 H 0.34878 0.94253 0.47858 0.0
C2643 C 0.3282 0.90352 0.50748 0.0
C2644 C 0.33635 0.91855 0.51606 0.0
H2645 H 0.32028 0.89131 0.48212 0.0
H2646 H 0.32203 0.8928 0.51545 0.0
C2647 C 0.34417 0.93222 0.50529 0.0
C2648 C 0.07367 0.34432 0.50809 0.0
C2649 C 0.08563 0.33335 0.51815 0.0
H2650 H 0.06372 0.35175 0.48185 0.0
C2651 C 0.09837 0.32256 0.50884 0.0
H2652 H 0.06376 0.35285 0.51487 0.0
C2653 C 0.09835 0.32192 0.48979 0.0
C2654 C 0.08557 0.33205 0.47981 0.0
H2655 H 0.10776 0.31397 0.51624 0.0
H2656 H 0.10772 0.31286 0.48295 0.0
C2657 C 0.07364 0.34367 0.48915 0.0
C2658 C 0.32783 0.0965 0.51138 0.0
C2659 C 0.33299 0.08125 0.52167 0.0
H2660 H 0.32346 0.10745 0.48464 0.0
C2661 C 0.3394 0.06572 0.51263 0.0
H2662 H 0.32286 0.10866 0.51803 0.0
C2663 C 0.33995 0.0651 0.49372 0.0
C2664 C 0.33393 0.07993 0.48332 0.0
H2665 H 0.34365 0.05381 0.52018 0.0
H2666 H 0.3445 0.05267 0.48725 0.0
C2667 C 0.32821 0.09581 0.49231 0.0
C2668 C 0.90038 0.32257 0.4904 0.0
C2669 C 0.91308 0.33313 0.48078 0.0
H2670 H 0.891 0.31365 0.51655 0.0
C2671 C 0.92491 0.34453 0.49052 0.0
H2672 H 0.89109 0.31366 0.48325 0.0
C2673 C 0.92485 0.34453 0.50947 0.0
C2674 C 0.91297 0.33312 0.51914 0.0
H2675 H 0.93478 0.35292 0.48351 0.0
H2676 H 0.93468 0.35291 0.51655 0.0
C2677 C 0.90032 0.32256 0.50945 0.0
C2678 C 0.09668 0.67805 0.49243 0.0
C2679 C 0.08418 0.66632 0.48397 0.0
H2680 H 0.10661 0.68891 0.51766 0.0
C2681 C 0.0734 0.65489 0.49482 0.0
H2682 H 0.10514 0.68703 0.48439 0.0
C2683 C 0.07425 0.65594 0.51372 0.0
C2684 C 0.08586 0.66848 0.52225 0.0
H2685 H 0.06372 0.64562 0.48872 0.0
H2686 H 0.06521 0.64743 0.52164 0.0
C2687 C 0.0975 0.67914 0.51145 0.0
C2688 C 0.08632 0.16367 0.51167 0.0
C2689 C 0.07414 0.175 0.52107 0.0
H2690 H 0.09582 0.15436 0.48573 0.0
C2691 C 0.0619 0.18577 0.51112 0.0
H2692 H 0.0959 0.15522 0.51899 0.0
C2693 C 0.06185 0.18527 0.49217 0.0
C2694 C 0.07404 0.174 0.48274 0.0
H2695 H 0.05234 0.19463 0.51798 0.0
H2696 H 0.05225 0.19377 0.48491 0.0
C2697 C 0.08627 0.16318 0.49265 0.0
C2698 C 0.82745 0.09398 0.48876 0.0
C2699 C 0.83325 0.07823 0.47965 0.0
H2700 H 0.82199 0.10658 0.51444 0.0
C2701 C 0.83961 0.06339 0.48985 0.0
H2702 H 0.82251 0.10563 0.48124 0.0
C2703 C 0.83941 0.06397 0.50881 0.0
C2704 C 0.83275 0.07936 0.51794 0.0
H2705 H 0.84424 0.0511 0.48319 0.0
H2706 H 0.84386 0.0521 0.5163 0.0
C2707 C 0.82715 0.09452 0.50776 0.0
C2708 C 0.93274 0.8105 0.50868 0.0
C2709 C 0.92357 0.82414 0.51839 0.0
H2710 H 0.93952 0.79953 0.48267 0.0
C2711 C 0.91363 0.83733 0.50879 0.0
H2712 H 0.9405 0.80014 0.5157 0.0
C2713 C 0.91306 0.83697 0.48978 0.0
C2714 C 0.92244 0.82343 0.4801 0.0
H2715 H 0.90644 0.848 0.51594 0.0
H2716 H 0.90542 0.84736 0.48267 0.0
C2717 C 0.93219 0.81016 0.48974 0.0
C2718 C 0.15507 0.92063 0.48811 0.0
C2719 C 0.16926 0.91141 0.47926 0.0
H2720 H 0.14432 0.92994 0.51354 0.0
C2721 C 0.18247 0.90241 0.48969 0.0
H2722 H 0.14469 0.92767 0.48038 0.0
C2723 C 0.18215 0.90354 0.50861 0.0
C2724 C 0.16874 0.91387 0.51744 0.0
H2725 H 0.19349 0.89509 0.48321 0.0
H2726 H 0.19299 0.89713 0.51625 0.0
C2727 C 0.15487 0.92194 0.50707 0.0
C2728 C 0.07673 0.84625 0.49251 0.0
C2729 C 0.08414 0.83176 0.48251 0.0
H2730 H 0.0716 0.85745 0.51892 0.0
C2731 C 0.09353 0.81793 0.49173 0.0
H2732 H 0.06947 0.85712 0.48573 0.0
C2733 C 0.09457 0.81802 0.51067 0.0
C2734 C 0.08646 0.83206 0.52073 0.0
H2735 H 0.09941 0.8066 0.48438 0.0
H2736 H 0.10127 0.8068 0.51746 0.0
C2737 C 0.07799 0.84646 0.51148 0.0
C2738 C 0.15163 0.07527 0.49559 0.0
C2739 C 0.16361 0.08535 0.48465 0.0
H2740 H 0.14368 0.06806 0.52264 0.0
C2741 C 0.17555 0.09777 0.49292 0.0
H2742 H 0.14224 0.06565 0.48957 0.0
C2743 C 0.17644 0.09907 0.51183 0.0
C2744 C 0.16535 0.08806 0.52279 0.0
H2745 H 0.1849 0.10577 0.48483 0.0
H2746 H 0.18643 0.10807 0.51785 0.0
C2747 C 0.15245 0.07666 0.51451 0.0
C2748 C 0.93694 0.18635 0.50999 0.0
C2749 C 0.925 0.17508 0.51973 0.0
H2750 H 0.94627 0.19514 0.48391 0.0
C2751 C 0.91306 0.16366 0.51014 0.0
H2752 H 0.9463 0.19529 0.51701 0.0
C2753 C 0.91307 0.16354 0.49112 0.0
C2754 C 0.92498 0.17488 0.48141 0.0
H2755 H 0.90372 0.15482 0.51731 0.0
H2756 H 0.90371 0.15464 0.48405 0.0
C2757 C 0.93692 0.18626 0.49103 0.0
C2758 C 0.84158 0.93853 0.48985 0.0
C2759 C 0.83521 0.9236 0.4798 0.0
H2760 H 0.84588 0.95004 0.5162 0.0
C2761 C 0.82937 0.90795 0.48905 0.0
H2762 H 0.84623 0.95075 0.48308 0.0
C2763 C 0.82908 0.90758 0.50805 0.0
C2764 C 0.83473 0.92281 0.51809 0.0
H2765 H 0.82441 0.89624 0.48163 0.0
H2766 H 0.82393 0.89557 0.51485 0.0
C2767 C 0.84139 0.93811 0.50882 0.0
C2768 C 0.48661 0.07359 0.15379 0.0
C2769 C 0.47786 0.08448 0.1668 0.0
H2770 H 0.51202 0.06357 0.14361 0.0
C2771 C 0.48839 0.09531 0.17847 0.0
H2772 H 0.47882 0.06509 0.14463 0.0
C2773 C 0.50736 0.0946 0.17774 0.0
C2774 C 0.51612 0.08286 0.16549 0.0
H2775 H 0.48198 0.1039 0.18857 0.0
H2776 H 0.51513 0.10261 0.18735 0.0
C2777 C 0.5056 0.07268 0.15323 0.0
C2778 C 0.91333 0.48988 0.16338 0.0
C2779 C 0.92496 0.48025 0.17508 0.0
H2780 H 0.90418 0.516 0.15423 0.0
C2781 C 0.93649 0.48997 0.18679 0.0
H2782 H 0.90429 0.48273 0.15421 0.0
C2783 C 0.93643 0.50893 0.18679 0.0
C2784 C 0.92483 0.51859 0.1751 0.0
H2785 H 0.94561 0.48292 0.19596 0.0
H2786 H 0.9455 0.51602 0.19598 0.0
C2787 C 0.91326 0.5089 0.16339 0.0
C2788 C 0.49286 0.93325 0.18802 0.0
C2789 C 0.483 0.92324 0.1751 0.0
H2790 H 0.51901 0.94113 0.19793 0.0
C2791 C 0.49248 0.91302 0.16204 0.0
H2792 H 0.48594 0.94127 0.19825 0.0
C2793 C 0.51152 0.9129 0.16189 0.0
C2794 C 0.52134 0.92307 0.17474 0.0
H2795 H 0.4852 0.90519 0.15192 0.0
H2796 H 0.51854 0.90497 0.15166 0.0
C2797 C 0.51182 0.93319 0.18782 0.0
C2798 C 0.0866 0.50927 0.16504 0.0
C2799 C 0.07482 0.51879 0.17669 0.0
H2800 H 0.09586 0.48322 0.15578 0.0
C2801 C 0.06314 0.50898 0.18816 0.0
H2802 H 0.09575 0.51649 0.15605 0.0
C2803 C 0.0632 0.49002 0.188 0.0
C2804 C 0.07495 0.48046 0.17638 0.0
H2805 H 0.05391 0.51594 0.19728 0.0
H2806 H 0.05401 0.48285 0.19702 0.0
C2807 C 0.08666 0.49025 0.16489 0.0
C2808 C 0.49146 0.94016 0.81611 0.0
C2809 C 0.48183 0.92699 0.82602 0.0
H2810 H 0.51747 0.95052 0.80823 0.0
C2811 C 0.49156 0.91404 0.83615 0.0
H2812 H 0.48433 0.95033 0.80819 0.0
C2813 C 0.51059 0.91415 0.83616 0.0
C2814 C 0.52019 0.9272 0.82606 0.0
H2815 H 0.48448 0.90373 0.84392 0.0
H2816 H 0.51776 0.90391 0.84395 0.0
C2817 C 0.51044 0.94027 0.81613 0.0
C2818 C 0.06309 0.50966 0.81296 0.0
C2819 C 0.07464 0.51928 0.82474 0.0
H2820 H 0.05412 0.48369 0.80352 0.0
C2821 C 0.08631 0.50956 0.83632 0.0
H2822 H 0.05395 0.51678 0.80387 0.0
C2823 C 0.08641 0.49054 0.83611 0.0
C2824 C 0.07485 0.48095 0.82432 0.0
H2825 H 0.09536 0.51664 0.84553 0.0
H2826 H 0.09553 0.48337 0.84518 0.0
C2827 C 0.0632 0.4907 0.81276 0.0
C2828 C 0.49185 0.05969 0.81839 0.0
C2829 C 0.48222 0.07297 0.82815 0.0
H2830 H 0.51786 0.04953 0.81023 0.0
C2831 C 0.49195 0.08636 0.83769 0.0
H2832 H 0.48473 0.04918 0.81093 0.0
C2833 C 0.51097 0.08657 0.83728 0.0
C2834 C 0.52058 0.07339 0.82733 0.0
H2835 H 0.48487 0.09678 0.84532 0.0
H2836 H 0.51814 0.09712 0.84463 0.0
C2837 C 0.51083 0.05989 0.81798 0.0
C2838 C 0.91329 0.49118 0.83453 0.0
C2839 C 0.92509 0.4815 0.82304 0.0
H2840 H 0.90395 0.51735 0.84335 0.0
C2841 C 0.93675 0.49115 0.81141 0.0
H2842 H 0.90415 0.48408 0.84363 0.0
C2843 C 0.93662 0.51012 0.81124 0.0
C2844 C 0.92484 0.51983 0.8227 0.0
H2845 H 0.94599 0.48407 0.8024 0.0
H2846 H 0.94578 0.51716 0.80211 0.0
C2847 C 0.91317 0.5102 0.83436 0.0
C2848 C 0.18568 0.49057 0.06259 0.0
C2849 C 0.17448 0.48077 0.07455 0.0
H2850 H 0.1945 0.5167 0.05341 0.0
C2851 C 0.1632 0.49031 0.08666 0.0
H2852 H 0.19452 0.4836 0.0531 0.0
C2853 C 0.16319 0.50933 0.08683 0.0
C2854 C 0.17446 0.5191 0.07491 0.0
H2855 H 0.15442 0.48309 0.09603 0.0
H2856 H 0.1544 0.51636 0.09633 0.0
C2857 C 0.18567 0.50954 0.06277 0.0
C2858 C 0.18558 0.49035 0.93828 0.0
C2859 C 0.17444 0.48073 0.92612 0.0
H2860 H 0.19432 0.51633 0.94794 0.0
C2861 C 0.1632 0.49045 0.91413 0.0
H2862 H 0.19439 0.48323 0.9477 0.0
C2863 C 0.16316 0.50947 0.91427 0.0
C2864 C 0.17437 0.51907 0.92641 0.0
H2865 H 0.15447 0.48338 0.90461 0.0
H2866 H 0.15441 0.51665 0.90485 0.0
C2867 C 0.18555 0.50931 0.93842 0.0
C2868 C 0.49046 0.16475 0.91379 0.0
C2869 C 0.48087 0.17628 0.92561 0.0
H2870 H 0.51657 0.15554 0.9046 0.0
C2871 C 0.49063 0.18765 0.93744 0.0
H2872 H 0.48327 0.15584 0.90452 0.0
C2873 C 0.50961 0.18748 0.93749 0.0
C2874 C 0.51923 0.17594 0.92571 0.0
H2875 H 0.48361 0.19669 0.94671 0.0
H2876 H 0.51673 0.19639 0.94679 0.0
C2877 C 0.50949 0.16457 0.91384 0.0
C2878 C 0.81349 0.5099 0.93595 0.0
C2879 C 0.82499 0.51957 0.92416 0.0
H2880 H 0.80442 0.48389 0.9452 0.0
C2881 C 0.8365 0.50989 0.91238 0.0
H2882 H 0.80447 0.51699 0.94518 0.0
C2883 C 0.83647 0.49087 0.91238 0.0
C2884 C 0.82493 0.48123 0.92417 0.0
H2885 H 0.84551 0.517 0.90315 0.0
H2886 H 0.84546 0.48373 0.90316 0.0
C2887 C 0.81347 0.49094 0.93595 0.0
C2888 C 0.49116 0.83579 0.91225 0.0
C2889 C 0.48154 0.82458 0.92436 0.0
H2890 H 0.51729 0.84461 0.90275 0.0
C2891 C 0.49128 0.81353 0.93651 0.0
H2892 H 0.484 0.84445 0.90274 0.0
C2893 C 0.51026 0.81363 0.93653 0.0
C2894 C 0.51991 0.82477 0.92439 0.0
H2895 H 0.48424 0.80476 0.94602 0.0
H2896 H 0.51737 0.80493 0.94604 0.0
C2897 C 0.5102 0.83588 0.91226 0.0
C2898 C 0.81388 0.49074 0.06152 0.0
C2899 C 0.82534 0.48109 0.07336 0.0
H2900 H 0.80484 0.51674 0.0522 0.0
C2901 C 0.8368 0.49079 0.08517 0.0
H2902 H 0.80489 0.48364 0.05226 0.0
C2903 C 0.83676 0.50981 0.08514 0.0
C2904 C 0.82527 0.51943 0.07329 0.0
H2905 H 0.84577 0.4837 0.09444 0.0
H2906 H 0.84572 0.51697 0.09438 0.0
C2907 C 0.81384 0.50971 0.06149 0.0
C2908 C 0.49211 0.83597 0.0856 0.0
C2909 C 0.48231 0.82517 0.07326 0.0
H2910 H 0.51838 0.84424 0.09519 0.0
C2911 C 0.49187 0.81425 0.06086 0.0
H2912 H 0.48509 0.84452 0.09531 0.0
C2913 C 0.51084 0.81408 0.0608 0.0
C2914 C 0.52067 0.82484 0.07313 0.0
H2915 H 0.48468 0.80578 0.05118 0.0
H2916 H 0.51781 0.80549 0.05107 0.0
C2917 C 0.51114 0.83581 0.08553 0.0
C2918 C 0.50877 0.18822 0.06405 0.0
C2919 C 0.51834 0.17641 0.07561 0.0
H2920 H 0.48284 0.19772 0.05499 0.0
C2921 C 0.50854 0.16482 0.08721 0.0
H2922 H 0.51595 0.19732 0.05496 0.0
C2923 C 0.4895 0.16505 0.08723 0.0
C2924 C 0.47997 0.17689 0.07566 0.0
H2925 H 0.51557 0.15558 0.09626 0.0
H2926 H 0.48226 0.15599 0.0963 0.0
C2927 C 0.4898 0.18845 0.06407 0.0
C2928 C 0.58666 0.66367 0.9893 0.0
C2929 C 0.57545 0.67577 0.97966 0.0
H2930 H 0.59529 0.65407 0.01543 0.0
C2931 C 0.56419 0.68775 0.98936 0.0
H2932 H 0.59547 0.65428 0.98216 0.0
C2933 C 0.56407 0.68762 0.00832 0.0
C2934 C 0.57522 0.67551 0.01798 0.0
H2935 H 0.5554 0.69724 0.98231 0.0
H2936 H 0.55521 0.69702 0.01539 0.0
C2937 C 0.58655 0.66354 0.00832 0.0
C2938 C 0.33538 0.58763 0.00991 0.0
C2939 C 0.32337 0.57643 0.01967 0.0
H2940 H 0.3448 0.59619 0.98369 0.0
C2941 C 0.31133 0.56512 0.01009 0.0
H2942 H 0.34481 0.59648 0.01696 0.0
C2943 C 0.31133 0.56495 0.99114 0.0
C2944 C 0.32337 0.57608 0.98135 0.0
H2945 H 0.30191 0.55634 0.01724 0.0
H2946 H 0.30191 0.55604 0.98415 0.0
C2947 C 0.33538 0.58746 0.9909 0.0
C2948 C 0.43715 0.31428 0.00971 0.0
C2949 C 0.42554 0.32601 0.01931 0.0
H2950 H 0.44622 0.30489 0.98375 0.0
C2951 C 0.41383 0.33754 0.00958 0.0
H2952 H 0.44632 0.30523 0.01684 0.0
C2953 C 0.41377 0.33735 0.99056 0.0
C2954 C 0.42541 0.32561 0.98099 0.0
H2955 H 0.40473 0.34672 0.01664 0.0
H2956 H 0.40463 0.34638 0.98337 0.0
C2957 C 0.43709 0.31409 0.99075 0.0
C2958 C 0.6875 0.43696 0.00861 0.0
C2959 C 0.67592 0.42532 0.01835 0.0
H2960 H 0.69651 0.44611 0.98254 0.0
C2961 C 0.66422 0.41366 0.00875 0.0
H2962 H 0.69667 0.4461 0.01563 0.0
C2963 C 0.66413 0.41366 0.98973 0.0
C2964 C 0.67573 0.42533 0.98002 0.0
H2965 H 0.65514 0.40454 0.01592 0.0
H2966 H 0.65499 0.40454 0.98265 0.0
C2967 C 0.68741 0.43697 0.98965 0.0
C2968 C 0.5638 0.31291 0.00964 0.0
C2969 C 0.57548 0.32455 0.01927 0.0
H2970 H 0.55458 0.30372 0.98366 0.0
C2971 C 0.58715 0.33614 0.00955 0.0
H2972 H 0.55465 0.30382 0.01675 0.0
C2973 C 0.58711 0.33609 0.99053 0.0
C2974 C 0.5754 0.32444 0.98094 0.0
H2975 H 0.5963 0.34526 0.01663 0.0
H2976 H 0.59623 0.34516 0.98336 0.0
C2977 C 0.56376 0.31286 0.99068 0.0
C2978 C 0.66424 0.58679 0.98934 0.0
C2979 C 0.67574 0.575 0.97966 0.0
H2980 H 0.65531 0.59605 0.0155 0.0
C2981 C 0.68731 0.56329 0.98933 0.0
H2982 H 0.65518 0.59598 0.98223 0.0
C2983 C 0.68738 0.56333 0.00829 0.0
C2984 C 0.67589 0.57509 0.01799 0.0
H2985 H 0.69633 0.55405 0.98225 0.0
H2986 H 0.69646 0.55411 0.01534 0.0
C2987 C 0.66431 0.58684 0.00836 0.0
C2988 C 0.43581 0.68837 0.00914 0.0
C2989 C 0.42445 0.67656 0.01894 0.0
H2990 H 0.44484 0.69737 0.98303 0.0
C2991 C 0.41312 0.66449 0.0094 0.0
H2992 H 0.44468 0.69783 0.01611 0.0
C2993 C 0.41321 0.66422 0.99038 0.0
C2994 C 0.42464 0.67602 0.98061 0.0
H2995 H 0.40423 0.65523 0.01661 0.0
H2996 H 0.40438 0.65477 0.98335 0.0
C2997 C 0.4359 0.6881 0.99018 0.0
C2998 C 0.31154 0.43621 0.99077 0.0
C2999 C 0.32354 0.42489 0.98115 0.0
H3000 H 0.30221 0.44533 0.01673 0.0
C3001 C 0.33558 0.41369 0.99088 0.0
H3002 H 0.30209 0.44498 0.98365 0.0
C3003 C 0.33565 0.41389 0.0099 0.0
C3004 C 0.32368 0.42529 0.01948 0.0
H3005 H 0.34498 0.40483 0.98381 0.0
H3006 H 0.3451 0.40517 0.01708 0.0
C3007 C 0.31161 0.43641 0.00972 0.0
C3008 C 0.99137 0.56364 0.68576 0.0
C3009 C 0.98186 0.57565 0.67437 0.0
H3010 H 0.01728 0.55426 0.69504 0.0
C3011 C 0.9917 0.58771 0.66329 0.0
H3012 H 0.98416 0.55419 0.69445 0.0
C3013 C 0.01073 0.58773 0.66362 0.0
C3014 C 0.02022 0.57572 0.67504 0.0
H3015 H 0.98471 0.59712 0.65438 0.0
H3016 H 0.018 0.59716 0.65495 0.0
C3017 C 0.01035 0.56368 0.6861 0.0
C3018 C 0.4157 0.01126 0.66233 0.0
C3019 C 0.41984 0.02059 0.67848 0.0
H3020 H 0.41295 0.98533 0.64925 0.0
C3021 C 0.42339 0.01059 0.69434 0.0
H3022 H 0.4129 0.01865 0.64991 0.0
C3023 C 0.42343 0.99165 0.69396 0.0
C3024 C 0.41991 0.98228 0.67772 0.0
H3025 H 0.4265 0.0174 0.70702 0.0
H3026 H 0.42656 0.98436 0.70636 0.0
C3027 C 0.41573 0.99223 0.66195 0.0
C3028 C 0.0094 0.43817 0.68596 0.0
C3029 C 0.01917 0.42633 0.67461 0.0
H3030 H 0.98329 0.44744 0.69478 0.0
C3031 C 0.00958 0.41445 0.66313 0.0
H3032 H 0.01642 0.44749 0.69495 0.0
C3033 C 0.99055 0.41442 0.66303 0.0
C3034 C 0.98081 0.42627 0.67441 0.0
H3035 H 0.01677 0.40517 0.65424 0.0
H3036 H 0.98348 0.40512 0.65407 0.0
C3037 C 0.99042 0.43814 0.68586 0.0
C3038 C 0.58802 0.9912 0.66154 0.0
C3039 C 0.58383 0.98145 0.67742 0.0
H3040 H 0.59095 0.01745 0.64919 0.0
C3041 C 0.58039 0.99102 0.69357 0.0
H3042 H 0.59074 0.98415 0.6489 0.0
C3043 C 0.58052 0.00996 0.69374 0.0
C3044 C 0.58409 0.01976 0.67775 0.0
H3045 H 0.57725 0.98387 0.70605 0.0
H3046 H 0.57746 0.01693 0.70634 0.0
C3047 C 0.58814 0.01023 0.66171 0.0
C3048 C 0.00872 0.4357 0.31296 0.0
C3049 C 0.01834 0.42404 0.32462 0.0
H3050 H 0.98273 0.44478 0.30359 0.0
C3051 C 0.0086 0.41229 0.3361 0.0
H3052 H 0.01585 0.44491 0.30395 0.0
C3053 C 0.98956 0.41221 0.33589 0.0
C3054 C 0.97998 0.42388 0.3242 0.0
H3055 H 0.01567 0.40315 0.34523 0.0
H3056 H 0.98237 0.40301 0.34487 0.0
C3057 C 0.98975 0.43562 0.31275 0.0
C3058 C 0.58882 0.0057 0.31319 0.0
C3059 C 0.58223 0.01473 0.32866 0.0
H3060 H 0.59407 0.98016 0.30033 0.0
C3061 C 0.57721 0.00449 0.34399 0.0
H3062 H 0.59282 0.01322 0.30118 0.0
C3063 C 0.57817 0.98549 0.34357 0.0
C3064 C 0.58387 0.97649 0.32772 0.0
H3065 H 0.57212 0.01113 0.3561 0.0
H3066 H 0.57374 0.97784 0.35534 0.0
C3067 C 0.5895 0.98677 0.31268 0.0
C3068 C 0.98826 0.58547 0.33644 0.0
C3069 C 0.97878 0.57376 0.32469 0.0
H3070 H 0.01428 0.59459 0.34595 0.0
C3071 C 0.98866 0.56205 0.31331 0.0
H3072 H 0.98098 0.59464 0.34537 0.0
C3073 C 0.00764 0.56202 0.31364 0.0
C3074 C 0.01715 0.5737 0.32537 0.0
H3075 H 0.98174 0.55286 0.30411 0.0
H3076 H 0.01485 0.55283 0.30468 0.0
C3077 C 0.00729 0.58543 0.33678 0.0
C3078 C 0.43367 0.98857 0.31031 0.0
C3079 C 0.4241 0.97835 0.32328 0.0
H3080 H 0.44068 0.01497 0.30047 0.0
C3081 C 0.41381 0.98746 0.33656 0.0
H3082 H 0.44171 0.98194 0.2999 0.0
C3083 C 0.41321 0.00648 0.33688 0.0
C3084 C 0.42291 0.01665 0.32395 0.0
H3085 H 0.4063 0.9799 0.34672 0.0
H3086 H 0.40524 0.01319 0.34728 0.0
C3087 C 0.43309 0.0075 0.31064 0.0
C3088 C 0.68902 0.9904 0.56263 0.0
C3089 C 0.67788 0.98066 0.5747 0.0
H3090 H 0.69719 0.01648 0.55267 0.0
C3091 C 0.66624 0.99028 0.5864 0.0
H3092 H 0.69813 0.98336 0.55344 0.0
C3093 C 0.66568 0.00929 0.58595 0.0
C3094 C 0.67677 0.019 0.57379 0.0
H3095 H 0.65749 0.98314 0.59585 0.0
H3096 H 0.65654 0.01636 0.59508 0.0
C3097 C 0.68847 0.00937 0.56218 0.0
C3098 C 0.65296 0.98861 0.42629 0.0
C3099 C 0.66569 0.97891 0.41587 0.0
H3100 H 0.64334 0.01473 0.43474 0.0
C3101 C 0.67751 0.98848 0.40433 0.0
H3102 H 0.64363 0.98158 0.43526 0.0
C3103 C 0.67736 0.00747 0.40405 0.0
C3104 C 0.66536 0.01719 0.41529 0.0
H3105 H 0.68742 0.98135 0.39609 0.0
H3106 H 0.68714 0.01452 0.3956 0.0
C3107 C 0.6528 0.00759 0.426 0.0
C3108 C 0.00642 0.67753 0.40661 0.0
C3109 C 0.0153 0.6651 0.41807 0.0
H3110 H 0.98095 0.68823 0.39745 0.0
C3111 C 0.00491 0.65241 0.42784 0.0
H3112 H 0.01409 0.68746 0.39889 0.0
C3113 C 0.98592 0.65273 0.42687 0.0
C3114 C 0.97703 0.6659 0.41627 0.0
H3115 H 0.01142 0.64263 0.43672 0.0
H3116 H 0.97821 0.64324 0.43508 0.0
C3117 C 0.98745 0.67799 0.4058 0.0
C3118 C 0.34404 0.00565 0.41857 0.0
C3119 C 0.32771 0.01537 0.41652 0.0
H3120 H 0.35668 0.97939 0.41993 0.0
C3121 C 0.31154 0.00582 0.41302 0.0
H3122 H 0.35669 0.01269 0.42124 0.0
C3123 C 0.31149 0.98689 0.41255 0.0
C3124 C 0.32766 0.97713 0.41525 0.0
H3125 H 0.29875 0.01295 0.41136 0.0
H3126 H 0.29871 0.97987 0.41045 0.0
C3127 C 0.34403 0.98664 0.41778 0.0
C3128 C 0.98999 0.31108 0.43587 0.0
C3129 C 0.98042 0.32311 0.42456 0.0
H3130 H 0.01593 0.30125 0.44457 0.0
C3131 C 0.99021 0.33471 0.41296 0.0
H3132 H 0.98282 0.30196 0.44495 0.0
C3133 C 0.00924 0.3343 0.41274 0.0
C3134 C 0.01877 0.32228 0.42411 0.0
H3135 H 0.98317 0.34412 0.40408 0.0
H3136 H 0.01646 0.34341 0.40371 0.0
C3137 C 0.00896 0.31066 0.43565 0.0
C3138 C 0.34892 0.01357 0.57913 0.0
C3139 C 0.33343 0.0224 0.58599 0.0
H3140 H 0.36125 0.98809 0.57216 0.0
C3141 C 0.31909 0.01196 0.59303 0.0
H3142 H 0.36017 0.02131 0.57361 0.0
C3143 C 0.31982 0.99302 0.59245 0.0
C3144 C 0.33478 0.98418 0.58454 0.0
H3145 H 0.30704 0.01845 0.5985 0.0
H3146 H 0.30825 0.98535 0.5974 0.0
C3147 C 0.34953 0.99458 0.57828 0.0
C3148 C 0.98974 0.31267 0.56367 0.0
C3149 C 0.97998 0.32454 0.575 0.0
H3150 H 0.01584 0.30364 0.55458 0.0
C3151 C 0.98958 0.33668 0.5862 0.0
H3152 H 0.98273 0.30316 0.55489 0.0
C3153 C 0.00861 0.33696 0.58602 0.0
C3154 C 0.01834 0.3251 0.57464 0.0
H3155 H 0.98239 0.34599 0.59506 0.0
H3156 H 0.01569 0.34646 0.59476 0.0
C3157 C 0.00872 0.31295 0.56349 0.0
C3158 C 0.99242 0.69322 0.56897 0.0
C3159 C 0.98251 0.68004 0.57859 0.0
H3160 H 0.01861 0.70329 0.56141 0.0
C3161 C 0.99195 0.66673 0.58852 0.0
H3162 H 0.98553 0.70365 0.56118 0.0
C3163 C 0.011 0.66655 0.58869 0.0
C3164 C 0.02086 0.67963 0.57885 0.0
H3165 H 0.98464 0.65641 0.59606 0.0
H3166 H 0.01797 0.6561 0.59636 0.0
C3167 C 0.01138 0.693 0.56907 0.0
loop_
_geom_bond_atom_site_label_1
_geom_bond_atom_site_label_2
_geom_bond_distance
_geom_bond_site_symmetry_2
_ccdc_geom_bond_type
In0 O1 2.294 . S
In0 O2 2.326 . S
In0 O6 2.266 . S
In0 O7 2.326 . S
In0 O8 2.266 . S
In0 O9 2.326 . S
In0 O11 2.294 . S
In0 O12 2.326 . S
O1 In0 2.294 . S
O1 C10 1.240 . S
O2 In0 2.326 . S
O2 C10 1.252 . S
C3 O6 1.252 . S
C3 O7 1.260 . S
C4 O11 1.240 . S
C4 O12 1.252 . S
C5 O8 1.252 . S
C5 O9 1.260 . S
O6 In0 2.266 . S
O6 C3 1.252 . S
O7 In0 2.326 . S
O7 C3 1.260 . S
O8 In0 2.266 . S
O8 C5 1.252 . S
O9 In0 2.326 . S
O9 C5 1.260 . S
C10 O1 1.240 . S
C10 O2 1.252 . S
O11 In0 2.294 . S
O11 C4 1.240 . S
O12 In0 2.326 . S
O12 C4 1.252 . S
In13 O14 2.294 . S
In13 O15 2.326 . S
In13 O19 2.266 . S
In13 O20 2.326 . S
In13 O21 2.266 . S
In13 O22 2.326 . S
In13 O24 2.294 . S
In13 O25 2.326 . S
O14 In13 2.294 . S
O14 C23 1.240 . S
O15 In13 2.326 . S
O15 C23 1.252 . S
C16 O19 1.252 . S
C16 O20 1.260 . S
C17 O24 1.240 . S
C17 O25 1.252 . S
C18 O21 1.252 . S
C18 O22 1.260 . S
O19 In13 2.266 . S
O19 C16 1.252 . S
O20 In13 2.326 . S
O20 C16 1.260 . S
O21 In13 2.266 . S
O21 C18 1.252 . S
O22 In13 2.326 . S
O22 C18 1.260 . S
C23 O14 1.240 . S
C23 O15 1.252 . S
O24 In13 2.294 . S
O24 C17 1.240 . S
O25 In13 2.326 . S
O25 C17 1.252 . S
In26 O27 2.294 . S
In26 O28 2.326 . S
In26 O32 2.266 . S
In26 O33 2.326 . S
In26 O34 2.266 . S
In26 O35 2.326 . S
In26 O37 2.294 . S
In26 O38 2.326 . S
O27 In26 2.294 . S
O27 C36 1.240 . S
O28 In26 2.326 . S
O28 C36 1.252 . S
C29 O32 1.252 . S
C29 O33 1.260 . S
C30 O37 1.240 . S
C30 O38 1.252 . S
C31 O34 1.252 . S
C31 O35 1.260 . S
O32 In26 2.266 . S
O32 C29 1.252 . S
O33 In26 2.326 . S
O33 C29 1.260 . S
O34 In26 2.266 . S
O34 C31 1.252 . S
O35 In26 2.326 . S
O35 C31 1.260 . S
C36 O27 1.240 . S
C36 O28 1.252 . S
O37 In26 2.294 . S
O37 C30 1.240 . S
O38 In26 2.326 . S
O38 C30 1.252 . S
In39 O40 2.294 . S
In39 O41 2.326 . S
In39 O45 2.266 . S
In39 O46 2.326 . S
In39 O47 2.266 . S
In39 O48 2.326 . S
In39 O50 2.294 . S
In39 O51 2.326 . S
O40 In39 2.294 . S
O40 C49 1.240 . S
O41 In39 2.326 . S
O41 C49 1.252 . S
C42 O45 1.252 . S
C42 O46 1.260 . S
C43 O50 1.240 . S
C43 O51 1.252 . S
C44 O47 1.252 . S
C44 O48 1.260 . S
O45 In39 2.266 . S
O45 C42 1.252 . S
O46 In39 2.326 . S
O46 C42 1.260 . S
O47 In39 2.266 . S
O47 C44 1.252 . S
O48 In39 2.326 . S
O48 C44 1.260 . S
C49 O40 1.240 . S
C49 O41 1.252 . S
O50 In39 2.294 . S
O50 C43 1.240 . S
O51 In39 2.326 . S
O51 C43 1.252 . S
In52 O53 2.294 . S
In52 O54 2.326 . S
In52 O58 2.266 . S
In52 O59 2.326 . S
In52 O60 2.266 . S
In52 O61 2.326 . S
In52 O63 2.294 . S
In52 O64 2.326 . S
O53 In52 2.294 . S
O53 C62 1.240 . S
O54 In52 2.326 . S
O54 C62 1.252 . S
C55 O58 1.252 . S
C55 O59 1.260 . S
C56 O63 1.240 . S
C56 O64 1.252 . S
C57 O60 1.252 . S
C57 O61 1.260 . S
O58 In52 2.266 . S
O58 C55 1.252 . S
O59 In52 2.326 . S
O59 C55 1.260 . S
O60 In52 2.266 . S
O60 C57 1.252 . S
O61 In52 2.326 . S
O61 C57 1.260 . S
C62 O53 1.240 . S
C62 O54 1.252 . S
O63 In52 2.294 . S
O63 C56 1.240 . S
O64 In52 2.326 . S
O64 C56 1.252 . S
In65 O66 2.294 . S
In65 O67 2.326 . S
In65 O71 2.266 . S
In65 O72 2.326 . S
In65 O73 2.266 . S
In65 O74 2.326 . S
In65 O76 2.294 . S
In65 O77 2.326 . S
O66 In65 2.294 . S
O66 C75 1.240 . S
O67 In65 2.326 . S
O67 C75 1.252 . S
C68 O71 1.252 . S
C68 O72 1.260 . S
C69 O76 1.240 . S
C69 O77 1.252 . S
C70 O73 1.252 . S
C70 O74 1.260 . S
O71 In65 2.266 . S
O71 C68 1.252 . S
O72 In65 2.326 . S
O72 C68 1.260 . S
O73 In65 2.266 . S
O73 C70 1.252 . S
O74 In65 2.326 . S
O74 C70 1.260 . S
C75 O66 1.240 . S
C75 O67 1.252 . S
O76 In65 2.294 . S
O76 C69 1.240 . S
O77 In65 2.326 . S
O77 C69 1.252 . S
In78 O79 2.294 . S
In78 O80 2.326 . S
In78 O84 2.266 . S
In78 O85 2.326 . S
In78 O86 2.266 . S
In78 O87 2.326 . S
In78 O89 2.294 . S
In78 O90 2.326 . S
O79 In78 2.294 . S
O79 C88 1.240 . S
O80 In78 2.326 . S
O80 C88 1.252 . S
C81 O84 1.252 . S
C81 O85 1.260 . S
C82 O89 1.240 . S
C82 O90 1.252 . S
C83 O86 1.252 . S
C83 O87 1.260 . S
O84 In78 2.266 . S
O84 C81 1.252 . S
O85 In78 2.326 . S
O85 C81 1.260 . S
O86 In78 2.266 . S
O86 C83 1.252 . S
O87 In78 2.326 . S
O87 C83 1.260 . S
C88 O79 1.240 . S
C88 O80 1.252 . S
O89 In78 2.294 . S
O89 C82 1.240 . S
O90 In78 2.326 . S
O90 C82 1.252 . S
In91 O92 2.294 . S
In91 O93 2.326 . S
In91 O97 2.266 . S
In91 O98 2.326 . S
In91 O99 2.266 . S
In91 O100 2.326 . S
In91 O102 2.294 . S
In91 O103 2.326 . S
O92 In91 2.294 . S
O92 C101 1.240 . S
O93 In91 2.326 . S
O93 C101 1.252 . S
C94 O97 1.252 . S
C94 O98 1.260 . S
C95 O102 1.240 . S
C95 O103 1.252 . S
C96 O99 1.252 . S
C96 O100 1.260 . S
O97 In91 2.266 . S
O97 C94 1.252 . S
O98 In91 2.326 . S
O98 C94 1.260 . S
O99 In91 2.266 . S
O99 C96 1.252 . S
O100 In91 2.326 . S
O100 C96 1.260 . S
C101 O92 1.240 . S
C101 O93 1.252 . S
O102 In91 2.294 . S
O102 C95 1.240 . S
O103 In91 2.326 . S
O103 C95 1.252 . S
In104 O105 2.294 . S
In104 O106 2.326 . S
In104 O110 2.266 . S
In104 O111 2.326 . S
In104 O112 2.266 . S
In104 O113 2.326 . S
In104 O115 2.294 . S
In104 O116 2.326 . S
O105 In104 2.294 . S
O105 C114 1.240 . S
O106 In104 2.326 . S
O106 C114 1.252 . S
C107 O110 1.252 . S
C107 O111 1.260 . S
C108 O115 1.240 . S
C108 O116 1.252 . S
C109 O112 1.252 . S
C109 O113 1.260 . S
O110 In104 2.266 . S
O110 C107 1.252 . S
O111 In104 2.326 . S
O111 C107 1.260 . S
O112 In104 2.266 . S
O112 C109 1.252 . S
O113 In104 2.326 . S
O113 C109 1.260 . S
C114 O105 1.240 . S
C114 O106 1.252 . S
O115 In104 2.294 . S
O115 C108 1.240 . S
O116 In104 2.326 . S
O116 C108 1.252 . S
In117 O118 2.294 . S
In117 O119 2.326 . S
In117 O123 2.266 . S
In117 O124 2.326 . S
In117 O125 2.266 . S
In117 O126 2.326 . S
In117 O128 2.294 . S
In117 O129 2.326 . S
O118 In117 2.294 . S
O118 C127 1.240 . S
O119 In117 2.326 . S
O119 C127 1.252 . S
C120 O123 1.252 . S
C120 O124 1.260 . S
C121 O128 1.240 . S
C121 O129 1.252 . S
C122 O125 1.252 . S
C122 O126 1.260 . S
O123 In117 2.266 . S
O123 C120 1.252 . S
O124 In117 2.326 . S
O124 C120 1.260 . S
O125 In117 2.266 . S
O125 C122 1.252 . S
O126 In117 2.326 . S
O126 C122 1.260 . S
C127 O118 1.240 . S
C127 O119 1.252 . S
O128 In117 2.294 . S
O128 C121 1.240 . S
O129 In117 2.326 . S
O129 C121 1.252 . S
In130 O131 2.294 . S
In130 O132 2.326 . S
In130 O136 2.266 . S
In130 O137 2.326 . S
In130 O138 2.266 . S
In130 O139 2.326 . S
In130 O141 2.294 . S
In130 O142 2.326 . S
O131 In130 2.294 . S
O131 C140 1.240 . S
O132 In130 2.326 . S
O132 C140 1.252 . S
C133 O136 1.252 . S
C133 O137 1.260 . S
C134 O141 1.240 . S
C134 O142 1.252 . S
C135 O138 1.252 . S
C135 O139 1.260 . S
O136 In130 2.266 . S
O136 C133 1.252 . S
O137 In130 2.326 . S
O137 C133 1.260 . S
O138 In130 2.266 . S
O138 C135 1.252 . S
O139 In130 2.326 . S
O139 C135 1.260 . S
C140 O131 1.240 . S
C140 O132 1.252 . S
O141 In130 2.294 . S
O141 C134 1.240 . S
O142 In130 2.326 . S
O142 C134 1.252 . S
In143 O144 2.294 . S
In143 O145 2.326 . S
In143 O149 2.266 . S
In143 O150 2.326 . S
In143 O151 2.266 . S
In143 O152 2.326 . S
In143 O154 2.294 . S
In143 O155 2.326 . S
O144 In143 2.294 . S
O144 C153 1.240 . S
O145 In143 2.326 . S
O145 C153 1.252 . S
C146 O149 1.252 . S
C146 O150 1.260 . S
C147 O154 1.240 . S
C147 O155 1.252 . S
C148 O151 1.252 . S
C148 O152 1.260 . S
O149 In143 2.266 . S
O149 C146 1.252 . S
O150 In143 2.326 . S
O150 C146 1.260 . S
O151 In143 2.266 . S
O151 C148 1.252 . S
O152 In143 2.326 . S
O152 C148 1.260 . S
C153 O144 1.240 . S
C153 O145 1.252 . S
O154 In143 2.294 . S
O154 C147 1.240 . S
O155 In143 2.326 . S
O155 C147 1.252 . S
In156 O157 2.294 . S
In156 O158 2.326 . S
In156 O162 2.266 . S
In156 O163 2.326 . S
In156 O164 2.266 . S
In156 O165 2.326 . S
In156 O167 2.294 . S
In156 O168 2.326 . S
O157 In156 2.294 . S
O157 C166 1.240 . S
O158 In156 2.326 . S
O158 C166 1.252 . S
C159 O162 1.252 . S
C159 O163 1.260 . S
C160 O167 1.240 . S
C160 O168 1.252 . S
C161 O164 1.252 . S
C161 O165 1.260 . S
O162 In156 2.266 . S
O162 C159 1.252 . S
O163 In156 2.326 . S
O163 C159 1.260 . S
O164 In156 2.266 . S
O164 C161 1.252 . S
O165 In156 2.326 . S
O165 C161 1.260 . S
C166 O157 1.240 . S
C166 O158 1.252 . S
O167 In156 2.294 . S
O167 C160 1.240 . S
O168 In156 2.326 . S
O168 C160 1.252 . S
In169 O170 2.294 . S
In169 O171 2.326 . S
In169 O175 2.266 . S
In169 O176 2.326 . S
In169 O177 2.266 . S
In169 O178 2.326 . S
In169 O180 2.294 . S
In169 O181 2.326 . S
O170 In169 2.294 . S
O170 C179 1.240 . S
O171 In169 2.326 . S
O171 C179 1.252 . S
C172 O175 1.252 . S
C172 O176 1.260 . S
C173 O180 1.240 . S
C173 O181 1.252 . S
C174 O177 1.252 . S
C174 O178 1.260 . S
O175 In169 2.266 . S
O175 C172 1.252 . S
O176 In169 2.326 . S
O176 C172 1.260 . S
O177 In169 2.266 . S
O177 C174 1.252 . S
O178 In169 2.326 . S
O178 C174 1.260 . S
C179 O170 1.240 . S
C179 O171 1.252 . S
O180 In169 2.294 . S
O180 C173 1.240 . S
O181 In169 2.326 . S
O181 C173 1.252 . S
In182 O183 2.294 . S
In182 O184 2.326 . S
In182 O188 2.266 . S
In182 O189 2.326 . S
In182 O190 2.266 . S
In182 O191 2.326 . S
In182 O193 2.294 . S
In182 O194 2.326 . S
O183 In182 2.294 . S
O183 C192 1.240 . S
O184 In182 2.326 . S
O184 C192 1.252 . S
C185 O188 1.252 . S
C185 O189 1.260 . S
C186 O193 1.240 . S
C186 O194 1.252 . S
C187 O190 1.252 . S
C187 O191 1.260 . S
O188 In182 2.266 . S
O188 C185 1.252 . S
O189 In182 2.326 . S
O189 C185 1.260 . S
O190 In182 2.266 . S
O190 C187 1.252 . S
O191 In182 2.326 . S
O191 C187 1.260 . S
C192 O183 1.240 . S
C192 O184 1.252 . S
O193 In182 2.294 . S
O193 C186 1.240 . S
O194 In182 2.326 . S
O194 C186 1.252 . S
In195 O196 2.294 . S
In195 O197 2.326 . S
In195 O201 2.266 . S
In195 O202 2.326 . S
In195 O203 2.266 . S
In195 O204 2.326 . S
In195 O206 2.294 . S
In195 O207 2.326 . S
O196 In195 2.294 . S
O196 C205 1.240 . S
O197 In195 2.326 . S
O197 C205 1.252 . S
C198 O201 1.252 . S
C198 O202 1.260 . S
C199 O206 1.240 . S
C199 O207 1.252 . S
C200 O203 1.252 . S
C200 O204 1.260 . S
O201 In195 2.266 . S
O201 C198 1.252 . S
O202 In195 2.326 . S
O202 C198 1.260 . S
O203 In195 2.266 . S
O203 C200 1.252 . S
O204 In195 2.326 . S
O204 C200 1.260 . S
C205 O196 1.240 . S
C205 O197 1.252 . S
O206 In195 2.294 . S
O206 C199 1.240 . S
O207 In195 2.326 . S
O207 C199 1.252 . S
In208 O209 2.294 . S
In208 O210 2.326 . S
In208 O214 2.266 . S
In208 O215 2.326 . S
In208 O216 2.266 . S
In208 O217 2.326 . S
In208 O219 2.294 . S
In208 O220 2.326 . S
O209 In208 2.294 . S
O209 C218 1.240 . S
O210 In208 2.326 . S
O210 C218 1.252 . S
C211 O214 1.252 . S
C211 O215 1.260 . S
C212 O219 1.240 . S
C212 O220 1.252 . S
C213 O216 1.252 . S
C213 O217 1.260 . S
O214 In208 2.266 . S
O214 C211 1.252 . S
O215 In208 2.326 . S
O215 C211 1.260 . S
O216 In208 2.266 . S
O216 C213 1.252 . S
O217 In208 2.326 . S
O217 C213 1.260 . S
C218 O209 1.240 . S
C218 O210 1.252 . S
O219 In208 2.294 . S
O219 C212 1.240 . S
O220 In208 2.326 . S
O220 C212 1.252 . S
In221 O222 2.294 . S
In221 O223 2.326 . S
In221 O227 2.266 . S
In221 O228 2.326 . S
In221 O229 2.266 . S
In221 O230 2.326 . S
In221 O232 2.294 . S
In221 O233 2.326 . S
O222 In221 2.294 . S
O222 C231 1.240 . S
O223 In221 2.326 . S
O223 C231 1.252 . S
C224 O227 1.252 . S
C224 O228 1.260 . S
C225 O232 1.240 . S
C225 O233 1.252 . S
C226 O229 1.252 . S
C226 O230 1.260 . S
O227 In221 2.266 . S
O227 C224 1.252 . S
O228 In221 2.326 . S
O228 C224 1.260 . S
O229 In221 2.266 . S
O229 C226 1.252 . S
O230 In221 2.326 . S
O230 C226 1.260 . S
C231 O222 1.240 . S
C231 O223 1.252 . S
O232 In221 2.294 . S
O232 C225 1.240 . S
O233 In221 2.326 . S
O233 C225 1.252 . S
In234 O235 2.294 . S
In234 O236 2.326 . S
In234 O240 2.266 . S
In234 O241 2.326 . S
In234 O242 2.266 . S
In234 O243 2.326 . S
In234 O245 2.294 . S
In234 O246 2.326 . S
O235 In234 2.294 . S
O235 C244 1.240 . S
O236 In234 2.326 . S
O236 C244 1.252 . S
C237 O240 1.252 . S
C237 O241 1.260 . S
C238 O245 1.240 . S
C238 O246 1.252 . S
C239 O242 1.252 . S
C239 O243 1.260 . S
O240 In234 2.266 . S
O240 C237 1.252 . S
O241 In234 2.326 . S
O241 C237 1.260 . S
O242 In234 2.266 . S
O242 C239 1.252 . S
O243 In234 2.326 . S
O243 C239 1.260 . S
C244 O235 1.240 . S
C244 O236 1.252 . S
O245 In234 2.294 . S
O245 C238 1.240 . S
O246 In234 2.326 . S
O246 C238 1.252 . S
In247 O248 2.294 . S
In247 O249 2.326 . S
In247 O253 2.266 . S
In247 O254 2.326 . S
In247 O255 2.266 . S
In247 O256 2.326 . S
In247 O258 2.294 . S
In247 O259 2.326 . S
O248 In247 2.294 . S
O248 C257 1.240 . S
O249 In247 2.326 . S
O249 C257 1.252 . S
C250 O253 1.252 . S
C250 O254 1.260 . S
C251 O258 1.240 . S
C251 O259 1.252 . S
C252 O255 1.252 . S
C252 O256 1.260 . S
O253 In247 2.266 . S
O253 C250 1.252 . S
O254 In247 2.326 . S
O254 C250 1.260 . S
O255 In247 2.266 . S
O255 C252 1.252 . S
O256 In247 2.326 . S
O256 C252 1.260 . S
C257 O248 1.240 . S
C257 O249 1.252 . S
O258 In247 2.294 . S
O258 C251 1.240 . S
O259 In247 2.326 . S
O259 C251 1.252 . S
In260 O261 2.294 . S
In260 O262 2.326 . S
In260 O266 2.266 . S
In260 O267 2.326 . S
In260 O268 2.266 . S
In260 O269 2.326 . S
In260 O271 2.294 . S
In260 O272 2.326 . S
O261 In260 2.294 . S
O261 C270 1.240 . S
O262 In260 2.326 . S
O262 C270 1.252 . S
C263 O266 1.252 . S
C263 O267 1.260 . S
C264 O271 1.240 . S
C264 O272 1.252 . S
C265 O268 1.252 . S
C265 O269 1.260 . S
O266 In260 2.266 . S
O266 C263 1.252 . S
O267 In260 2.326 . S
O267 C263 1.260 . S
O268 In260 2.266 . S
O268 C265 1.252 . S
O269 In260 2.326 . S
O269 C265 1.260 . S
C270 O261 1.240 . S
C270 O262 1.252 . S
O271 In260 2.294 . S
O271 C264 1.240 . S
O272 In260 2.326 . S
O272 C264 1.252 . S
In273 O274 2.294 . S
In273 O275 2.326 . S
In273 O279 2.266 . S
In273 O280 2.326 . S
In273 O281 2.266 . S
In273 O282 2.326 . S
In273 O284 2.294 . S
In273 O285 2.326 . S
O274 In273 2.294 . S
O274 C283 1.240 . S
O275 In273 2.326 . S
O275 C283 1.252 . S
C276 O279 1.252 . S
C276 O280 1.260 . S
C277 O284 1.240 . S
C277 O285 1.252 . S
C278 O281 1.252 . S
C278 O282 1.260 . S
O279 In273 2.266 . S
O279 C276 1.252 . S
O280 In273 2.326 . S
O280 C276 1.260 . S
O281 In273 2.266 . S
O281 C278 1.252 . S
O282 In273 2.326 . S
O282 C278 1.260 . S
C283 O274 1.240 . S
C283 O275 1.252 . S
O284 In273 2.294 . S
O284 C277 1.240 . S
O285 In273 2.326 . S
O285 C277 1.252 . S
In286 O287 2.294 . S
In286 O288 2.326 . S
In286 O292 2.266 . S
In286 O293 2.326 . S
In286 O294 2.266 . S
In286 O295 2.326 . S
In286 O297 2.294 . S
In286 O298 2.326 . S
O287 In286 2.294 . S
O287 C296 1.240 . S
O288 In286 2.326 . S
O288 C296 1.252 . S
C289 O292 1.252 . S
C289 O293 1.260 . S
C290 O297 1.240 . S
C290 O298 1.252 . S
C291 O294 1.252 . S
C291 O295 1.260 . S
O292 In286 2.266 . S
O292 C289 1.252 . S
O293 In286 2.326 . S
O293 C289 1.260 . S
O294 In286 2.266 . S
O294 C291 1.252 . S
O295 In286 2.326 . S
O295 C291 1.260 . S
C296 O287 1.240 . S
C296 O288 1.252 . S
O297 In286 2.294 . S
O297 C290 1.240 . S
O298 In286 2.326 . S
O298 C290 1.252 . S
In299 O300 2.294 . S
In299 O301 2.326 . S
In299 O305 2.266 . S
In299 O306 2.326 . S
In299 O307 2.266 . S
In299 O308 2.326 . S
In299 O310 2.294 . S
In299 O311 2.326 . S
O300 In299 2.294 . S
O300 C309 1.240 . S
O301 In299 2.326 . S
O301 C309 1.252 . S
C302 O305 1.252 . S
C302 O306 1.260 . S
C303 O310 1.240 . S
C303 O311 1.252 . S
C304 O307 1.252 . S
C304 O308 1.260 . S
O305 In299 2.266 . S
O305 C302 1.252 . S
O306 In299 2.326 . S
O306 C302 1.260 . S
O307 In299 2.266 . S
O307 C304 1.252 . S
O308 In299 2.326 . S
O308 C304 1.260 . S
C309 O300 1.240 . S
C309 O301 1.252 . S
O310 In299 2.294 . S
O310 C303 1.240 . S
O311 In299 2.326 . S
O311 C303 1.252 . S
In312 O313 2.294 . S
In312 O314 2.326 . S
In312 O318 2.266 . S
In312 O319 2.326 . S
In312 O320 2.266 . S
In312 O321 2.326 . S
In312 O323 2.294 . S
In312 O324 2.326 . S
O313 In312 2.294 . S
O313 C322 1.240 . S
O314 In312 2.326 . S
O314 C322 1.252 . S
C315 O318 1.252 . S
C315 O319 1.260 . S
C316 O323 1.240 . S
C316 O324 1.252 . S
C317 O320 1.252 . S
C317 O321 1.260 . S
O318 In312 2.266 . S
O318 C315 1.252 . S
O319 In312 2.326 . S
O319 C315 1.260 . S
O320 In312 2.266 . S
O320 C317 1.252 . S
O321 In312 2.326 . S
O321 C317 1.260 . S
C322 O313 1.240 . S
C322 O314 1.252 . S
O323 In312 2.294 . S
O323 C316 1.240 . S
O324 In312 2.326 . S
O324 C316 1.252 . S
In325 O326 2.294 . S
In325 O327 2.326 . S
In325 O331 2.266 . S
In325 O332 2.326 . S
In325 O333 2.266 . S
In325 O334 2.326 . S
In325 O336 2.294 . S
In325 O337 2.326 . S
O326 In325 2.294 . S
O326 C335 1.240 . S
O327 In325 2.326 . S
O327 C335 1.252 . S
C328 O331 1.252 . S
C328 O332 1.260 . S
C329 O336 1.240 . S
C329 O337 1.252 . S
C330 O333 1.252 . S
C330 O334 1.260 . S
O331 In325 2.266 . S
O331 C328 1.252 . S
O332 In325 2.326 . S
O332 C328 1.260 . S
O333 In325 2.266 . S
O333 C330 1.252 . S
O334 In325 2.326 . S
O334 C330 1.260 . S
C335 O326 1.240 . S
C335 O327 1.252 . S
O336 In325 2.294 . S
O336 C329 1.240 . S
O337 In325 2.326 . S
O337 C329 1.252 . S
In338 O339 2.294 . S
In338 O340 2.326 . S
In338 O344 2.266 . S
In338 O345 2.326 . S
In338 O346 2.266 . S
In338 O347 2.326 . S
In338 O349 2.294 . S
In338 O350 2.326 . S
O339 In338 2.294 . S
O339 C348 1.240 . S
O340 In338 2.326 . S
O340 C348 1.252 . S
C341 O344 1.252 . S
C341 O345 1.260 . S
C342 O349 1.240 . S
C342 O350 1.252 . S
C343 O346 1.252 . S
C343 O347 1.260 . S
O344 In338 2.266 . S
O344 C341 1.252 . S
O345 In338 2.326 . S
O345 C341 1.260 . S
O346 In338 2.266 . S
O346 C343 1.252 . S
O347 In338 2.326 . S
O347 C343 1.260 . S
C348 O339 1.240 . S
C348 O340 1.252 . S
O349 In338 2.294 . S
O349 C342 1.240 . S
O350 In338 2.326 . S
O350 C342 1.252 . S
In351 O352 2.294 . S
In351 O353 2.326 . S
In351 O357 2.266 . S
In351 O358 2.326 . S
In351 O359 2.266 . S
In351 O360 2.326 . S
In351 O362 2.294 . S
In351 O363 2.326 . S
O352 In351 2.294 . S
O352 C361 1.240 . S
O353 In351 2.326 . S
O353 C361 1.252 . S
C354 O357 1.252 . S
C354 O358 1.260 . S
C355 O362 1.240 . S
C355 O363 1.252 . S
C356 O359 1.252 . S
C356 O360 1.260 . S
O357 In351 2.266 . S
O357 C354 1.252 . S
O358 In351 2.326 . S
O358 C354 1.260 . S
O359 In351 2.266 . S
O359 C356 1.252 . S
O360 In351 2.326 . S
O360 C356 1.260 . S
C361 O352 1.240 . S
C361 O353 1.252 . S
O362 In351 2.294 . S
O362 C355 1.240 . S
O363 In351 2.326 . S
O363 C355 1.252 . S
In364 O365 2.294 . S
In364 O366 2.326 . S
In364 O370 2.266 . S
In364 O371 2.326 . S
In364 O372 2.266 . S
In364 O373 2.326 . S
In364 O375 2.294 . S
In364 O376 2.326 . S
O365 In364 2.294 . S
O365 C374 1.240 . S
O366 In364 2.326 . S
O366 C374 1.252 . S
C367 O370 1.252 . S
C367 O371 1.260 . S
C368 O375 1.240 . S
C368 O376 1.252 . S
C369 O372 1.252 . S
C369 O373 1.260 . S
O370 In364 2.266 . S
O370 C367 1.252 . S
O371 In364 2.326 . S
O371 C367 1.260 . S
O372 In364 2.266 . S
O372 C369 1.252 . S
O373 In364 2.326 . S
O373 C369 1.260 . S
C374 O365 1.240 . S
C374 O366 1.252 . S
O375 In364 2.294 . S
O375 C368 1.240 . S
O376 In364 2.326 . S
O376 C368 1.252 . S
In377 O378 2.294 . S
In377 O379 2.326 . S
In377 O383 2.266 . S
In377 O384 2.326 . S
In377 O385 2.266 . S
In377 O386 2.326 . S
In377 O388 2.294 . S
In377 O389 2.326 . S
O378 In377 2.294 . S
O378 C387 1.240 . S
O379 In377 2.326 . S
O379 C387 1.252 . S
C380 O383 1.252 . S
C380 O384 1.260 . S
C381 O388 1.240 . S
C381 O389 1.252 . S
C382 O385 1.252 . S
C382 O386 1.260 . S
O383 In377 2.266 . S
O383 C380 1.252 . S
O384 In377 2.326 . S
O384 C380 1.260 . S
O385 In377 2.266 . S
O385 C382 1.252 . S
O386 In377 2.326 . S
O386 C382 1.260 . S
C387 O378 1.240 . S
C387 O379 1.252 . S
O388 In377 2.294 . S
O388 C381 1.240 . S
O389 In377 2.326 . S
O389 C381 1.252 . S
In390 O391 2.294 . S
In390 O392 2.326 . S
In390 O396 2.266 . S
In390 O397 2.326 . S
In390 O398 2.266 . S
In390 O399 2.326 . S
In390 O401 2.294 . S
In390 O402 2.326 . S
O391 In390 2.294 . S
O391 C400 1.240 . S
O392 In390 2.326 . S
O392 C400 1.252 . S
C393 O396 1.252 . S
C393 O397 1.260 . S
C394 O401 1.240 . S
C394 O402 1.252 . S
C395 O398 1.252 . S
C395 O399 1.260 . S
O396 In390 2.266 . S
O396 C393 1.252 . S
O397 In390 2.326 . S
O397 C393 1.260 . S
O398 In390 2.266 . S
O398 C395 1.252 . S
O399 In390 2.326 . S
O399 C395 1.260 . S
C400 O391 1.240 . S
C400 O392 1.252 . S
O401 In390 2.294 . S
O401 C394 1.240 . S
O402 In390 2.326 . S
O402 C394 1.252 . S
In403 O404 2.294 . S
In403 O405 2.326 . S
In403 O409 2.266 . S
In403 O410 2.326 . S
In403 O411 2.266 . S
In403 O412 2.326 . S
In403 O414 2.294 . S
In403 O415 2.326 . S
O404 In403 2.294 . S
O404 C413 1.240 . S
O405 In403 2.326 . S
O405 C413 1.252 . S
C406 O409 1.252 . S
C406 O410 1.260 . S
C407 O414 1.240 . S
C407 O415 1.252 . S
C408 O411 1.252 . S
C408 O412 1.260 . S
O409 In403 2.266 . S
O409 C406 1.252 . S
O410 In403 2.326 . S
O410 C406 1.260 . S
O411 In403 2.266 . S
O411 C408 1.252 . S
O412 In403 2.326 . S
O412 C408 1.260 . S
C413 O404 1.240 . S
C413 O405 1.252 . S
O414 In403 2.294 . S
O414 C407 1.240 . S
O415 In403 2.326 . S
O415 C407 1.252 . S
In416 O417 2.294 . S
In416 O418 2.326 . S
In416 O422 2.266 . S
In416 O423 2.326 . S
In416 O424 2.266 . S
In416 O425 2.326 . S
In416 O427 2.294 . S
In416 O428 2.326 . S
O417 In416 2.294 . S
O417 C426 1.240 . S
O418 In416 2.326 . S
O418 C426 1.252 . S
C419 O422 1.252 . S
C419 O423 1.260 . S
C420 O427 1.240 . S
C420 O428 1.252 . S
C421 O424 1.252 . S
C421 O425 1.260 . S
O422 In416 2.266 . S
O422 C419 1.252 . S
O423 In416 2.326 . S
O423 C419 1.260 . S
O424 In416 2.266 . S
O424 C421 1.252 . S
O425 In416 2.326 . S
O425 C421 1.260 . S
C426 O417 1.240 . S
C426 O418 1.252 . S
O427 In416 2.294 . S
O427 C420 1.240 . S
O428 In416 2.326 . S
O428 C420 1.252 . S
In429 O430 2.294 . S
In429 O431 2.326 . S
In429 O435 2.266 . S
In429 O436 2.326 . S
In429 O437 2.266 . S
In429 O438 2.326 . S
In429 O440 2.294 . S
In429 O441 2.326 . S
O430 In429 2.294 . S
O430 C439 1.240 . S
O431 In429 2.326 . S
O431 C439 1.252 . S
C432 O435 1.252 . S
C432 O436 1.260 . S
C433 O440 1.240 . S
C433 O441 1.252 . S
C434 O437 1.252 . S
C434 O438 1.260 . S
O435 In429 2.266 . S
O435 C432 1.252 . S
O436 In429 2.326 . S
O436 C432 1.260 . S
O437 In429 2.266 . S
O437 C434 1.252 . S
O438 In429 2.326 . S
O438 C434 1.260 . S
C439 O430 1.240 . S
C439 O431 1.252 . S
O440 In429 2.294 . S
O440 C433 1.240 . S
O441 In429 2.326 . S
O441 C433 1.252 . S
In442 O443 2.294 . S
In442 O444 2.326 . S
In442 O448 2.266 . S
In442 O449 2.326 . S
In442 O450 2.266 . S
In442 O451 2.326 . S
In442 O453 2.294 . S
In442 O454 2.326 . S
O443 In442 2.294 . S
O443 C452 1.240 . S
O444 In442 2.326 . S
O444 C452 1.252 . S
C445 O448 1.252 . S
C445 O449 1.260 . S
C446 O453 1.240 . S
C446 O454 1.252 . S
C447 O450 1.252 . S
C447 O451 1.260 . S
O448 In442 2.266 . S
O448 C445 1.252 . S
O449 In442 2.326 . S
O449 C445 1.260 . S
O450 In442 2.266 . S
O450 C447 1.252 . S
O451 In442 2.326 . S
O451 C447 1.260 . S
C452 O443 1.240 . S
C452 O444 1.252 . S
O453 In442 2.294 . S
O453 C446 1.240 . S
O454 In442 2.326 . S
O454 C446 1.252 . S
In455 O456 2.294 . S
In455 O457 2.326 . S
In455 O461 2.266 . S
In455 O462 2.326 . S
In455 O463 2.266 . S
In455 O464 2.326 . S
In455 O466 2.294 . S
In455 O467 2.326 . S
O456 In455 2.294 . S
O456 C465 1.240 . S
O457 In455 2.326 . S
O457 C465 1.252 . S
C458 O461 1.252 . S
C458 O462 1.260 . S
C459 O466 1.240 . S
C459 O467 1.252 . S
C460 O463 1.252 . S
C460 O464 1.260 . S
O461 In455 2.266 . S
O461 C458 1.252 . S
O462 In455 2.326 . S
O462 C458 1.260 . S
O463 In455 2.266 . S
O463 C460 1.252 . S
O464 In455 2.326 . S
O464 C460 1.260 . S
C465 O456 1.240 . S
C465 O457 1.252 . S
O466 In455 2.294 . S
O466 C459 1.240 . S
O467 In455 2.326 . S
O467 C459 1.252 . S
In468 O469 2.294 . S
In468 O470 2.326 . S
In468 O474 2.266 . S
In468 O475 2.326 . S
In468 O476 2.266 . S
In468 O477 2.326 . S
In468 O479 2.294 . S
In468 O480 2.326 . S
O469 In468 2.294 . S
O469 C478 1.240 . S
O470 In468 2.326 . S
O470 C478 1.252 . S
C471 O474 1.252 . S
C471 O475 1.260 . S
C472 O479 1.240 . S
C472 O480 1.252 . S
C473 O476 1.252 . S
C473 O477 1.260 . S
O474 In468 2.266 . S
O474 C471 1.252 . S
O475 In468 2.326 . S
O475 C471 1.260 . S
O476 In468 2.266 . S
O476 C473 1.252 . S
O477 In468 2.326 . S
O477 C473 1.260 . S
C478 O469 1.240 . S
C478 O470 1.252 . S
O479 In468 2.294 . S
O479 C472 1.240 . S
O480 In468 2.326 . S
O480 C472 1.252 . S
In481 O482 2.294 . S
In481 O483 2.326 . S
In481 O487 2.266 . S
In481 O488 2.326 . S
In481 O489 2.266 . S
In481 O490 2.326 . S
In481 O492 2.294 . S
In481 O493 2.326 . S
O482 In481 2.294 . S
O482 C491 1.240 . S
O483 In481 2.326 . S
O483 C491 1.252 . S
C484 O487 1.252 . S
C484 O488 1.260 . S
C485 O492 1.240 . S
C485 O493 1.252 . S
C486 O489 1.252 . S
C486 O490 1.260 . S
O487 In481 2.266 . S
O487 C484 1.252 . S
O488 In481 2.326 . S
O488 C484 1.260 . S
O489 In481 2.266 . S
O489 C486 1.252 . S
O490 In481 2.326 . S
O490 C486 1.260 . S
C491 O482 1.240 . S
C491 O483 1.252 . S
O492 In481 2.294 . S
O492 C485 1.240 . S
O493 In481 2.326 . S
O493 C485 1.252 . S
In494 O495 2.294 . S
In494 O496 2.326 . S
In494 O500 2.266 . S
In494 O501 2.326 . S
In494 O502 2.266 . S
In494 O503 2.326 . S
In494 O505 2.294 . S
In494 O506 2.326 . S
O495 In494 2.294 . S
O495 C504 1.240 . S
O496 In494 2.326 . S
O496 C504 1.252 . S
C497 O500 1.252 . S
C497 O501 1.260 . S
C498 O505 1.240 . S
C498 O506 1.252 . S
C499 O502 1.252 . S
C499 O503 1.260 . S
O500 In494 2.266 . S
O500 C497 1.252 . S
O501 In494 2.326 . S
O501 C497 1.260 . S
O502 In494 2.266 . S
O502 C499 1.252 . S
O503 In494 2.326 . S
O503 C499 1.260 . S
C504 O495 1.240 . S
C504 O496 1.252 . S
O505 In494 2.294 . S
O505 C498 1.240 . S
O506 In494 2.326 . S
O506 C498 1.252 . S
In507 O508 2.294 . S
In507 O509 2.326 . S
In507 O513 2.266 . S
In507 O514 2.326 . S
In507 O515 2.266 . S
In507 O516 2.326 . S
In507 O518 2.294 . S
In507 O519 2.326 . S
O508 In507 2.294 . S
O508 C517 1.240 . S
O509 In507 2.326 . S
O509 C517 1.252 . S
C510 O513 1.252 . S
C510 O514 1.260 . S
C511 O518 1.240 . S
C511 O519 1.252 . S
C512 O515 1.252 . S
C512 O516 1.260 . S
O513 In507 2.266 . S
O513 C510 1.252 . S
O514 In507 2.326 . S
O514 C510 1.260 . S
O515 In507 2.266 . S
O515 C512 1.252 . S
O516 In507 2.326 . S
O516 C512 1.260 . S
C517 O508 1.240 . S
C517 O509 1.252 . S
O518 In507 2.294 . S
O518 C511 1.240 . S
O519 In507 2.326 . S
O519 C511 1.252 . S
In520 O521 2.294 . S
In520 O522 2.326 . S
In520 O526 2.266 . S
In520 O527 2.326 . S
In520 O528 2.266 . S
In520 O529 2.326 . S
In520 O531 2.294 . S
In520 O532 2.326 . S
O521 In520 2.294 . S
O521 C530 1.240 . S
O522 In520 2.326 . S
O522 C530 1.252 . S
C523 O526 1.252 . S
C523 O527 1.260 . S
C524 O531 1.240 . S
C524 O532 1.252 . S
C525 O528 1.252 . S
C525 O529 1.260 . S
O526 In520 2.266 . S
O526 C523 1.252 . S
O527 In520 2.326 . S
O527 C523 1.260 . S
O528 In520 2.266 . S
O528 C525 1.252 . S
O529 In520 2.326 . S
O529 C525 1.260 . S
C530 O521 1.240 . S
C530 O522 1.252 . S
O531 In520 2.294 . S
O531 C524 1.240 . S
O532 In520 2.326 . S
O532 C524 1.252 . S
In533 O534 2.294 . S
In533 O535 2.326 . S
In533 O539 2.266 . S
In533 O540 2.326 . S
In533 O541 2.266 . S
In533 O542 2.326 . S
In533 O544 2.294 . S
In533 O545 2.326 . S
O534 In533 2.294 . S
O534 C543 1.240 . S
O535 In533 2.326 . S
O535 C543 1.252 . S
C536 O539 1.252 . S
C536 O540 1.260 . S
C537 O544 1.240 . S
C537 O545 1.252 . S
C538 O541 1.252 . S
C538 O542 1.260 . S
O539 In533 2.266 . S
O539 C536 1.252 . S
O540 In533 2.326 . S
O540 C536 1.260 . S
O541 In533 2.266 . S
O541 C538 1.252 . S
O542 In533 2.326 . S
O542 C538 1.260 . S
C543 O534 1.240 . S
C543 O535 1.252 . S
O544 In533 2.294 . S
O544 C537 1.240 . S
O545 In533 2.326 . S
O545 C537 1.252 . S
In546 O547 2.294 . S
In546 O548 2.326 . S
In546 O552 2.266 . S
In546 O553 2.326 . S
In546 O554 2.266 . S
In546 O555 2.326 . S
In546 O557 2.294 . S
In546 O558 2.326 . S
O547 In546 2.294 . S
O547 C556 1.240 . S
O548 In546 2.326 . S
O548 C556 1.252 . S
C549 O552 1.252 . S
C549 O553 1.260 . S
C550 O557 1.240 . S
C550 O558 1.252 . S
C551 O554 1.252 . S
C551 O555 1.260 . S
O552 In546 2.266 . S
O552 C549 1.252 . S
O553 In546 2.326 . S
O553 C549 1.260 . S
O554 In546 2.266 . S
O554 C551 1.252 . S
O555 In546 2.326 . S
O555 C551 1.260 . S
C556 O547 1.240 . S
C556 O548 1.252 . S
O557 In546 2.294 . S
O557 C550 1.240 . S
O558 In546 2.326 . S
O558 C550 1.252 . S
In559 O560 2.294 . S
In559 O561 2.326 . S
In559 O565 2.266 . S
In559 O566 2.326 . S
In559 O567 2.266 . S
In559 O568 2.326 . S
In559 O570 2.294 . S
In559 O571 2.326 . S
O560 In559 2.294 . S
O560 C569 1.240 . S
O561 In559 2.326 . S
O561 C569 1.252 . S
C562 O565 1.252 . S
C562 O566 1.260 . S
C563 O570 1.240 . S
C563 O571 1.252 . S
C564 O567 1.252 . S
C564 O568 1.260 . S
O565 In559 2.266 . S
O565 C562 1.252 . S
O566 In559 2.326 . S
O566 C562 1.260 . S
O567 In559 2.266 . S
O567 C564 1.252 . S
O568 In559 2.326 . S
O568 C564 1.260 . S
C569 O560 1.240 . S
C569 O561 1.252 . S
O570 In559 2.294 . S
O570 C563 1.240 . S
O571 In559 2.326 . S
O571 C563 1.252 . S
In572 O573 2.294 . S
In572 O574 2.326 . S
In572 O578 2.266 . S
In572 O579 2.326 . S
In572 O580 2.266 . S
In572 O581 2.326 . S
In572 O583 2.294 . S
In572 O584 2.326 . S
O573 In572 2.294 . S
O573 C582 1.240 . S
O574 In572 2.326 . S
O574 C582 1.252 . S
C575 O578 1.252 . S
C575 O579 1.260 . S
C576 O583 1.240 . S
C576 O584 1.252 . S
C577 O580 1.252 . S
C577 O581 1.260 . S
O578 In572 2.266 . S
O578 C575 1.252 . S
O579 In572 2.326 . S
O579 C575 1.260 . S
O580 In572 2.266 . S
O580 C577 1.252 . S
O581 In572 2.326 . S
O581 C577 1.260 . S
C582 O573 1.240 . S
C582 O574 1.252 . S
O583 In572 2.294 . S
O583 C576 1.240 . S
O584 In572 2.326 . S
O584 C576 1.252 . S
In585 O586 2.294 . S
In585 O587 2.326 . S
In585 O591 2.266 . S
In585 O592 2.326 . S
In585 O593 2.266 . S
In585 O594 2.326 . S
In585 O596 2.294 . S
In585 O597 2.326 . S
O586 In585 2.294 . S
O586 C595 1.240 . S
O587 In585 2.326 . S
O587 C595 1.252 . S
C588 O591 1.252 . S
C588 O592 1.260 . S
C589 O596 1.240 . S
C589 O597 1.252 . S
C590 O593 1.252 . S
C590 O594 1.260 . S
O591 In585 2.266 . S
O591 C588 1.252 . S
O592 In585 2.326 . S
O592 C588 1.260 . S
O593 In585 2.266 . S
O593 C590 1.252 . S
O594 In585 2.326 . S
O594 C590 1.260 . S
C595 O586 1.240 . S
C595 O587 1.252 . S
O596 In585 2.294 . S
O596 C589 1.240 . S
O597 In585 2.326 . S
O597 C589 1.252 . S
In598 O599 2.294 . S
In598 O600 2.326 . S
In598 O604 2.266 . S
In598 O605 2.326 . S
In598 O606 2.266 . S
In598 O607 2.326 . S
In598 O609 2.294 . S
In598 O610 2.326 . S
O599 In598 2.294 . S
O599 C608 1.240 . S
O600 In598 2.326 . S
O600 C608 1.252 . S
C601 O604 1.252 . S
C601 O605 1.260 . S
C602 O609 1.240 . S
C602 O610 1.252 . S
C603 O606 1.252 . S
C603 O607 1.260 . S
O604 In598 2.266 . S
O604 C601 1.252 . S
O605 In598 2.326 . S
O605 C601 1.260 . S
O606 In598 2.266 . S
O606 C603 1.252 . S
O607 In598 2.326 . S
O607 C603 1.260 . S
C608 O599 1.240 . S
C608 O600 1.252 . S
O609 In598 2.294 . S
O609 C602 1.240 . S
O610 In598 2.326 . S
O610 C602 1.252 . S
In611 O612 2.294 . S
In611 O613 2.326 . S
In611 O617 2.266 . S
In611 O618 2.326 . S
In611 O619 2.266 . S
In611 O620 2.326 . S
In611 O622 2.294 . S
In611 O623 2.326 . S
O612 In611 2.294 . S
O612 C621 1.240 . S
O613 In611 2.326 . S
O613 C621 1.252 . S
C614 O617 1.252 . S
C614 O618 1.260 . S
C615 O622 1.240 . S
C615 O623 1.252 . S
C616 O619 1.252 . S
C616 O620 1.260 . S
O617 In611 2.266 . S
O617 C614 1.252 . S
O618 In611 2.326 . S
O618 C614 1.260 . S
O619 In611 2.266 . S
O619 C616 1.252 . S
O620 In611 2.326 . S
O620 C616 1.260 . S
C621 O612 1.240 . S
C621 O613 1.252 . S
O622 In611 2.294 . S
O622 C615 1.240 . S
O623 In611 2.326 . S
O623 C615 1.252 . S
In624 O625 2.294 . S
In624 O626 2.326 . S
In624 O630 2.266 . S
In624 O631 2.326 . S
In624 O632 2.266 . S
In624 O633 2.326 . S
In624 O635 2.294 . S
In624 O636 2.326 . S
O625 In624 2.294 . S
O625 C634 1.240 . S
O626 In624 2.326 . S
O626 C634 1.252 . S
C627 O630 1.252 . S
C627 O631 1.260 . S
C628 O635 1.240 . S
C628 O636 1.252 . S
C629 O632 1.252 . S
C629 O633 1.260 . S
O630 In624 2.266 . S
O630 C627 1.252 . S
O631 In624 2.326 . S
O631 C627 1.260 . S
O632 In624 2.266 . S
O632 C629 1.252 . S
O633 In624 2.326 . S
O633 C629 1.260 . S
C634 O625 1.240 . S
C634 O626 1.252 . S
O635 In624 2.294 . S
O635 C628 1.240 . S
O636 In624 2.326 . S
O636 C628 1.252 . S
In637 O638 2.294 . S
In637 O639 2.326 . S
In637 O643 2.266 . S
In637 O644 2.326 . S
In637 O645 2.266 . S
In637 O646 2.326 . S
In637 O648 2.294 . S
In637 O649 2.326 . S
O638 In637 2.294 . S
O638 C647 1.240 . S
O639 In637 2.326 . S
O639 C647 1.252 . S
C640 O643 1.252 . S
C640 O644 1.260 . S
C641 O648 1.240 . S
C641 O649 1.252 . S
C642 O645 1.252 . S
C642 O646 1.260 . S
O643 In637 2.266 . S
O643 C640 1.252 . S
O644 In637 2.326 . S
O644 C640 1.260 . S
O645 In637 2.266 . S
O645 C642 1.252 . S
O646 In637 2.326 . S
O646 C642 1.260 . S
C647 O638 1.240 . S
C647 O639 1.252 . S
O648 In637 2.294 . S
O648 C641 1.240 . S
O649 In637 2.326 . S
O649 C641 1.252 . S
In650 O651 2.294 . S
In650 O652 2.326 . S
In650 O656 2.266 . S
In650 O657 2.326 . S
In650 O658 2.266 . S
In650 O659 2.326 . S
In650 O661 2.294 . S
In650 O662 2.326 . S
O651 In650 2.294 . S
O651 C660 1.240 . S
O652 In650 2.326 . S
O652 C660 1.252 . S
C653 O656 1.252 . S
C653 O657 1.260 . S
C654 O661 1.240 . S
C654 O662 1.252 . S
C655 O658 1.252 . S
C655 O659 1.260 . S
O656 In650 2.266 . S
O656 C653 1.252 . S
O657 In650 2.326 . S
O657 C653 1.260 . S
O658 In650 2.266 . S
O658 C655 1.252 . S
O659 In650 2.326 . S
O659 C655 1.260 . S
C660 O651 1.240 . S
C660 O652 1.252 . S
O661 In650 2.294 . S
O661 C654 1.240 . S
O662 In650 2.326 . S
O662 C654 1.252 . S
In663 O664 2.294 . S
In663 O665 2.326 . S
In663 O669 2.266 . S
In663 O670 2.326 . S
In663 O671 2.266 . S
In663 O672 2.326 . S
In663 O674 2.294 . S
In663 O675 2.326 . S
O664 In663 2.294 . S
O664 C673 1.240 . S
O665 In663 2.326 . S
O665 C673 1.252 . S
C666 O669 1.252 . S
C666 O670 1.260 . S
C667 O674 1.240 . S
C667 O675 1.252 . S
C668 O671 1.252 . S
C668 O672 1.260 . S
O669 In663 2.266 . S
O669 C666 1.252 . S
O670 In663 2.326 . S
O670 C666 1.260 . S
O671 In663 2.266 . S
O671 C668 1.252 . S
O672 In663 2.326 . S
O672 C668 1.260 . S
C673 O664 1.240 . S
C673 O665 1.252 . S
O674 In663 2.294 . S
O674 C667 1.240 . S
O675 In663 2.326 . S
O675 C667 1.252 . S
In676 O677 2.294 . S
In676 O678 2.326 . S
In676 O682 2.266 . S
In676 O683 2.326 . S
In676 O684 2.266 . S
In676 O685 2.326 . S
In676 O687 2.294 . S
In676 O688 2.326 . S
O677 In676 2.294 . S
O677 C686 1.240 . S
O678 In676 2.326 . S
O678 C686 1.252 . S
C679 O682 1.252 . S
C679 O683 1.260 . S
C680 O687 1.240 . S
C680 O688 1.252 . S
C681 O684 1.252 . S
C681 O685 1.260 . S
O682 In676 2.266 . S
O682 C679 1.252 . S
O683 In676 2.326 . S
O683 C679 1.260 . S
O684 In676 2.266 . S
O684 C681 1.252 . S
O685 In676 2.326 . S
O685 C681 1.260 . S
C686 O677 1.240 . S
C686 O678 1.252 . S
O687 In676 2.294 . S
O687 C680 1.240 . S
O688 In676 2.326 . S
O688 C680 1.252 . S
In689 O690 2.294 . S
In689 O691 2.326 . S
In689 O695 2.266 . S
In689 O696 2.326 . S
In689 O697 2.266 . S
In689 O698 2.326 . S
In689 O700 2.294 . S
In689 O701 2.326 . S
O690 In689 2.294 . S
O690 C699 1.240 . S
O691 In689 2.326 . S
O691 C699 1.252 . S
C692 O695 1.252 . S
C692 O696 1.260 . S
C693 O700 1.240 . S
C693 O701 1.252 . S
C694 O697 1.252 . S
C694 O698 1.260 . S
O695 In689 2.266 . S
O695 C692 1.252 . S
O696 In689 2.326 . S
O696 C692 1.260 . S
O697 In689 2.266 . S
O697 C694 1.252 . S
O698 In689 2.326 . S
O698 C694 1.260 . S
C699 O690 1.240 . S
C699 O691 1.252 . S
O700 In689 2.294 . S
O700 C693 1.240 . S
O701 In689 2.326 . S
O701 C693 1.252 . S
In702 O703 2.294 . S
In702 O704 2.326 . S
In702 O708 2.266 . S
In702 O709 2.326 . S
In702 O710 2.266 . S
In702 O711 2.326 . S
In702 O713 2.294 . S
In702 O714 2.326 . S
O703 In702 2.294 . S
O703 C712 1.240 . S
O704 In702 2.326 . S
O704 C712 1.252 . S
C705 O708 1.252 . S
C705 O709 1.260 . S
C706 O713 1.240 . S
C706 O714 1.252 . S
C707 O710 1.252 . S
C707 O711 1.260 . S
O708 In702 2.266 . S
O708 C705 1.252 . S
O709 In702 2.326 . S
O709 C705 1.260 . S
O710 In702 2.266 . S
O710 C707 1.252 . S
O711 In702 2.326 . S
O711 C707 1.260 . S
C712 O703 1.240 . S
C712 O704 1.252 . S
O713 In702 2.294 . S
O713 C706 1.240 . S
O714 In702 2.326 . S
O714 C706 1.252 . S
In715 O716 2.294 . S
In715 O717 2.326 . S
In715 O721 2.266 . S
In715 O722 2.326 . S
In715 O723 2.266 . S
In715 O724 2.326 . S
In715 O726 2.294 . S
In715 O727 2.326 . S
O716 In715 2.294 . S
O716 C725 1.240 . S
O717 In715 2.326 . S
O717 C725 1.252 . S
C718 O721 1.252 . S
C718 O722 1.260 . S
C719 O726 1.240 . S
C719 O727 1.252 . S
C720 O723 1.252 . S
C720 O724 1.260 . S
O721 In715 2.266 . S
O721 C718 1.252 . S
O722 In715 2.326 . S
O722 C718 1.260 . S
O723 In715 2.266 . S
O723 C720 1.252 . S
O724 In715 2.326 . S
O724 C720 1.260 . S
C725 O716 1.240 . S
C725 O717 1.252 . S
O726 In715 2.294 . S
O726 C719 1.240 . S
O727 In715 2.326 . S
O727 C719 1.252 . S
In728 O729 2.294 . S
In728 O730 2.326 . S
In728 O734 2.266 . S
In728 O735 2.326 . S
In728 O736 2.266 . S
In728 O737 2.326 . S
In728 O739 2.294 . S
In728 O740 2.326 . S
O729 In728 2.294 . S
O729 C738 1.240 . S
O730 In728 2.326 . S
O730 C738 1.252 . S
C731 O734 1.252 . S
C731 O735 1.260 . S
C732 O739 1.240 . S
C732 O740 1.252 . S
C733 O736 1.252 . S
C733 O737 1.260 . S
O734 In728 2.266 . S
O734 C731 1.252 . S
O735 In728 2.326 . S
O735 C731 1.260 . S
O736 In728 2.266 . S
O736 C733 1.252 . S
O737 In728 2.326 . S
O737 C733 1.260 . S
C738 O729 1.240 . S
C738 O730 1.252 . S
O739 In728 2.294 . S
O739 C732 1.240 . S
O740 In728 2.326 . S
O740 C732 1.252 . S
In741 O742 2.294 . S
In741 O743 2.326 . S
In741 O747 2.266 . S
In741 O748 2.326 . S
In741 O749 2.266 . S
In741 O750 2.326 . S
In741 O752 2.294 . S
In741 O753 2.326 . S
O742 In741 2.294 . S
O742 C751 1.240 . S
O743 In741 2.326 . S
O743 C751 1.252 . S
C744 O747 1.252 . S
C744 O748 1.260 . S
C745 O752 1.240 . S
C745 O753 1.252 . S
C746 O749 1.252 . S
C746 O750 1.260 . S
O747 In741 2.266 . S
O747 C744 1.252 . S
O748 In741 2.326 . S
O748 C744 1.260 . S
O749 In741 2.266 . S
O749 C746 1.252 . S
O750 In741 2.326 . S
O750 C746 1.260 . S
C751 O742 1.240 . S
C751 O743 1.252 . S
O752 In741 2.294 . S
O752 C745 1.240 . S
O753 In741 2.326 . S
O753 C745 1.252 . S
In754 O755 2.294 . S
In754 O756 2.326 . S
In754 O760 2.266 . S
In754 O761 2.326 . S
In754 O762 2.266 . S
In754 O763 2.326 . S
In754 O765 2.294 . S
In754 O766 2.326 . S
O755 In754 2.294 . S
O755 C764 1.240 . S
O756 In754 2.326 . S
O756 C764 1.252 . S
C757 O760 1.252 . S
C757 O761 1.260 . S
C758 O765 1.240 . S
C758 O766 1.252 . S
C759 O762 1.252 . S
C759 O763 1.260 . S
O760 In754 2.266 . S
O760 C757 1.252 . S
O761 In754 2.326 . S
O761 C757 1.260 . S
O762 In754 2.266 . S
O762 C759 1.252 . S
O763 In754 2.326 . S
O763 C759 1.260 . S
C764 O755 1.240 . S
C764 O756 1.252 . S
O765 In754 2.294 . S
O765 C758 1.240 . S
O766 In754 2.326 . S
O766 C758 1.252 . S
In767 O768 2.294 . S
In767 O769 2.326 . S
In767 O773 2.266 . S
In767 O774 2.326 . S
In767 O775 2.266 . S
In767 O776 2.326 . S
In767 O778 2.294 . S
In767 O779 2.326 . S
O768 In767 2.294 . S
O768 C777 1.240 . S
O769 In767 2.326 . S
O769 C777 1.252 . S
C770 O773 1.252 . S
C770 O774 1.260 . S
C771 O778 1.240 . S
C771 O779 1.252 . S
C772 O775 1.252 . S
C772 O776 1.260 . S
O773 In767 2.266 . S
O773 C770 1.252 . S
O774 In767 2.326 . S
O774 C770 1.260 . S
O775 In767 2.266 . S
O775 C772 1.252 . S
O776 In767 2.326 . S
O776 C772 1.260 . S
C777 O768 1.240 . S
C777 O769 1.252 . S
O778 In767 2.294 . S
O778 C771 1.240 . S
O779 In767 2.326 . S
O779 C771 1.252 . S
In780 O781 2.294 . S
In780 O782 2.326 . S
In780 O786 2.266 . S
In780 O787 2.326 . S
In780 O788 2.266 . S
In780 O789 2.326 . S
In780 O791 2.294 . S
In780 O792 2.326 . S
O781 In780 2.294 . S
O781 C790 1.240 . S
O782 In780 2.326 . S
O782 C790 1.252 . S
C783 O786 1.252 . S
C783 O787 1.260 . S
C784 O791 1.240 . S
C784 O792 1.252 . S
C785 O788 1.252 . S
C785 O789 1.260 . S
O786 In780 2.266 . S
O786 C783 1.252 . S
O787 In780 2.326 . S
O787 C783 1.260 . S
O788 In780 2.266 . S
O788 C785 1.252 . S
O789 In780 2.326 . S
O789 C785 1.260 . S
C790 O781 1.240 . S
C790 O782 1.252 . S
O791 In780 2.294 . S
O791 C784 1.240 . S
O792 In780 2.326 . S
O792 C784 1.252 . S
In793 O794 2.294 . S
In793 O795 2.326 . S
In793 O799 2.266 . S
In793 O800 2.326 . S
In793 O801 2.266 . S
In793 O802 2.326 . S
In793 O804 2.294 . S
In793 O805 2.326 . S
O794 In793 2.294 . S
O794 C803 1.240 . S
O795 In793 2.326 . S
O795 C803 1.252 . S
C796 O799 1.252 . S
C796 O800 1.260 . S
C797 O804 1.240 . S
C797 O805 1.252 . S
C798 O801 1.252 . S
C798 O802 1.260 . S
O799 In793 2.266 . S
O799 C796 1.252 . S
O800 In793 2.326 . S
O800 C796 1.260 . S
O801 In793 2.266 . S
O801 C798 1.252 . S
O802 In793 2.326 . S
O802 C798 1.260 . S
C803 O794 1.240 . S
C803 O795 1.252 . S
O804 In793 2.294 . S
O804 C797 1.240 . S
O805 In793 2.326 . S
O805 C797 1.252 . S
In806 O807 2.294 . S
In806 O808 2.326 . S
In806 O812 2.266 . S
In806 O813 2.326 . S
In806 O814 2.266 . S
In806 O815 2.326 . S
In806 O817 2.294 . S
In806 O818 2.326 . S
O807 In806 2.294 . S
O807 C816 1.240 . S
O808 In806 2.326 . S
O808 C816 1.252 . S
C809 O812 1.252 . S
C809 O813 1.260 . S
C810 O817 1.240 . S
C810 O818 1.252 . S
C811 O814 1.252 . S
C811 O815 1.260 . S
O812 In806 2.266 . S
O812 C809 1.252 . S
O813 In806 2.326 . S
O813 C809 1.260 . S
O814 In806 2.266 . S
O814 C811 1.252 . S
O815 In806 2.326 . S
O815 C811 1.260 . S
C816 O807 1.240 . S
C816 O808 1.252 . S
O817 In806 2.294 . S
O817 C810 1.240 . S
O818 In806 2.326 . S
O818 C810 1.252 . S
In819 O820 2.294 . S
In819 O821 2.326 . S
In819 O825 2.266 . S
In819 O826 2.326 . S
In819 O827 2.266 . S
In819 O828 2.326 . S
In819 O830 2.294 . S
In819 O831 2.326 . S
O820 In819 2.294 . S
O820 C829 1.240 . S
O821 In819 2.326 . S
O821 C829 1.252 . S
C822 O825 1.252 . S
C822 O826 1.260 . S
C823 O830 1.240 . S
C823 O831 1.252 . S
C824 O827 1.252 . S
C824 O828 1.260 . S
O825 In819 2.266 . S
O825 C822 1.252 . S
O826 In819 2.326 . S
O826 C822 1.260 . S
O827 In819 2.266 . S
O827 C824 1.252 . S
O828 In819 2.326 . S
O828 C824 1.260 . S
C829 O820 1.240 . S
C829 O821 1.252 . S
O830 In819 2.294 . S
O830 C823 1.240 . S
O831 In819 2.326 . S
O831 C823 1.252 . S
In832 O833 2.294 . S
In832 O834 2.326 . S
In832 O838 2.266 . S
In832 O839 2.326 . S
In832 O840 2.266 . S
In832 O841 2.326 . S
In832 O843 2.294 . S
In832 O844 2.326 . S
O833 In832 2.294 . S
O833 C842 1.240 . S
O834 In832 2.326 . S
O834 C842 1.252 . S
C835 O838 1.252 . S
C835 O839 1.260 . S
C836 O843 1.240 . S
C836 O844 1.252 . S
C837 O840 1.252 . S
C837 O841 1.260 . S
O838 In832 2.266 . S
O838 C835 1.252 . S
O839 In832 2.326 . S
O839 C835 1.260 . S
O840 In832 2.266 . S
O840 C837 1.252 . S
O841 In832 2.326 . S
O841 C837 1.260 . S
C842 O833 1.240 . S
C842 O834 1.252 . S
O843 In832 2.294 . S
O843 C836 1.240 . S
O844 In832 2.326 . S
O844 C836 1.252 . S
In845 O846 2.294 . S
In845 O847 2.326 . S
In845 O851 2.266 . S
In845 O852 2.326 . S
In845 O853 2.266 . S
In845 O854 2.326 . S
In845 O856 2.294 . S
In845 O857 2.326 . S
O846 In845 2.294 . S
O846 C855 1.240 . S
O847 In845 2.326 . S
O847 C855 1.252 . S
C848 O851 1.252 . S
C848 O852 1.260 . S
C849 O856 1.240 . S
C849 O857 1.252 . S
C850 O853 1.252 . S
C850 O854 1.260 . S
O851 In845 2.266 . S
O851 C848 1.252 . S
O852 In845 2.326 . S
O852 C848 1.260 . S
O853 In845 2.266 . S
O853 C850 1.252 . S
O854 In845 2.326 . S
O854 C850 1.260 . S
C855 O846 1.240 . S
C855 O847 1.252 . S
O856 In845 2.294 . S
O856 C849 1.240 . S
O857 In845 2.326 . S
O857 C849 1.252 . S
In858 O859 2.294 . S
In858 O860 2.326 . S
In858 O864 2.266 . S
In858 O865 2.326 . S
In858 O866 2.266 . S
In858 O867 2.326 . S
In858 O869 2.294 . S
In858 O870 2.326 . S
O859 In858 2.294 . S
O859 C868 1.240 . S
O860 In858 2.326 . S
O860 C868 1.252 . S
C861 O864 1.252 . S
C861 O865 1.260 . S
C862 O869 1.240 . S
C862 O870 1.252 . S
C863 O866 1.252 . S
C863 O867 1.260 . S
O864 In858 2.266 . S
O864 C861 1.252 . S
O865 In858 2.326 . S
O865 C861 1.260 . S
O866 In858 2.266 . S
O866 C863 1.252 . S
O867 In858 2.326 . S
O867 C863 1.260 . S
C868 O859 1.240 . S
C868 O860 1.252 . S
O869 In858 2.294 . S
O869 C862 1.240 . S
O870 In858 2.326 . S
O870 C862 1.252 . S
In871 O872 2.294 . S
In871 O873 2.326 . S
In871 O877 2.266 . S
In871 O878 2.326 . S
In871 O879 2.266 . S
In871 O880 2.326 . S
In871 O882 2.294 . S
In871 O883 2.326 . S
O872 In871 2.294 . S
O872 C881 1.240 . S
O873 In871 2.326 . S
O873 C881 1.252 . S
C874 O877 1.252 . S
C874 O878 1.260 . S
C875 O882 1.240 . S
C875 O883 1.252 . S
C876 O879 1.252 . S
C876 O880 1.260 . S
O877 In871 2.266 . S
O877 C874 1.252 . S
O878 In871 2.326 . S
O878 C874 1.260 . S
O879 In871 2.266 . S
O879 C876 1.252 . S
O880 In871 2.326 . S
O880 C876 1.260 . S
C881 O872 1.240 . S
C881 O873 1.252 . S
O882 In871 2.294 . S
O882 C875 1.240 . S
O883 In871 2.326 . S
O883 C875 1.252 . S
In884 O885 2.294 . S
In884 O886 2.326 . S
In884 O890 2.266 . S
In884 O891 2.326 . S
In884 O892 2.266 . S
In884 O893 2.326 . S
In884 O895 2.294 . S
In884 O896 2.326 . S
O885 In884 2.294 . S
O885 C894 1.240 . S
O886 In884 2.326 . S
O886 C894 1.252 . S
C887 O890 1.252 . S
C887 O891 1.260 . S
C888 O895 1.240 . S
C888 O896 1.252 . S
C889 O892 1.252 . S
C889 O893 1.260 . S
O890 In884 2.266 . S
O890 C887 1.252 . S
O891 In884 2.326 . S
O891 C887 1.260 . S
O892 In884 2.266 . S
O892 C889 1.252 . S
O893 In884 2.326 . S
O893 C889 1.260 . S
C894 O885 1.240 . S
C894 O886 1.252 . S
O895 In884 2.294 . S
O895 C888 1.240 . S
O896 In884 2.326 . S
O896 C888 1.252 . S
In897 O898 2.294 . S
In897 O899 2.326 . S
In897 O903 2.266 . S
In897 O904 2.326 . S
In897 O905 2.266 . S
In897 O906 2.326 . S
In897 O908 2.294 . S
In897 O909 2.326 . S
O898 In897 2.294 . S
O898 C907 1.240 . S
O899 In897 2.326 . S
O899 C907 1.252 . S
C900 O903 1.252 . S
C900 O904 1.260 . S
C901 O908 1.240 . S
C901 O909 1.252 . S
C902 O905 1.252 . S
C902 O906 1.260 . S
O903 In897 2.266 . S
O903 C900 1.252 . S
O904 In897 2.326 . S
O904 C900 1.260 . S
O905 In897 2.266 . S
O905 C902 1.252 . S
O906 In897 2.326 . S
O906 C902 1.260 . S
C907 O898 1.240 . S
C907 O899 1.252 . S
O908 In897 2.294 . S
O908 C901 1.240 . S
O909 In897 2.326 . S
O909 C901 1.252 . S
In910 O911 2.294 . S
In910 O912 2.326 . S
In910 O916 2.266 . S
In910 O917 2.326 . S
In910 O918 2.266 . S
In910 O919 2.326 . S
In910 O921 2.294 . S
In910 O922 2.326 . S
O911 In910 2.294 . S
O911 C920 1.240 . S
O912 In910 2.326 . S
O912 C920 1.252 . S
C913 O916 1.252 . S
C913 O917 1.260 . S
C914 O921 1.240 . S
C914 O922 1.252 . S
C915 O918 1.252 . S
C915 O919 1.260 . S
O916 In910 2.266 . S
O916 C913 1.252 . S
O917 In910 2.326 . S
O917 C913 1.260 . S
O918 In910 2.266 . S
O918 C915 1.252 . S
O919 In910 2.326 . S
O919 C915 1.260 . S
C920 O911 1.240 . S
C920 O912 1.252 . S
O921 In910 2.294 . S
O921 C914 1.240 . S
O922 In910 2.326 . S
O922 C914 1.252 . S
In923 O924 2.294 . S
In923 O925 2.326 . S
In923 O929 2.266 . S
In923 O930 2.326 . S
In923 O931 2.266 . S
In923 O932 2.326 . S
In923 O934 2.294 . S
In923 O935 2.326 . S
O924 In923 2.294 . S
O924 C933 1.240 . S
O925 In923 2.326 . S
O925 C933 1.252 . S
C926 O929 1.252 . S
C926 O930 1.260 . S
C927 O934 1.240 . S
C927 O935 1.252 . S
C928 O931 1.252 . S
C928 O932 1.260 . S
O929 In923 2.266 . S
O929 C926 1.252 . S
O930 In923 2.326 . S
O930 C926 1.260 . S
O931 In923 2.266 . S
O931 C928 1.252 . S
O932 In923 2.326 . S
O932 C928 1.260 . S
C933 O924 1.240 . S
C933 O925 1.252 . S
O934 In923 2.294 . S
O934 C927 1.240 . S
O935 In923 2.326 . S
O935 C927 1.252 . S
In936 O937 2.294 . S
In936 O938 2.326 . S
In936 O942 2.266 . S
In936 O943 2.326 . S
In936 O944 2.266 . S
In936 O945 2.326 . S
In936 O947 2.294 . S
In936 O948 2.326 . S
O937 In936 2.294 . S
O937 C946 1.240 . S
O938 In936 2.326 . S
O938 C946 1.252 . S
C939 O942 1.252 . S
C939 O943 1.260 . S
C940 O947 1.240 . S
C940 O948 1.252 . S
C941 O944 1.252 . S
C941 O945 1.260 . S
O942 In936 2.266 . S
O942 C939 1.252 . S
O943 In936 2.326 . S
O943 C939 1.260 . S
O944 In936 2.266 . S
O944 C941 1.252 . S
O945 In936 2.326 . S
O945 C941 1.260 . S
C946 O937 1.240 . S
C946 O938 1.252 . S
O947 In936 2.294 . S
O947 C940 1.240 . S
O948 In936 2.326 . S
O948 C940 1.252 . S
In949 O950 2.294 . S
In949 O951 2.326 . S
In949 O955 2.266 . S
In949 O956 2.326 . S
In949 O957 2.266 . S
In949 O958 2.326 . S
In949 O960 2.294 . S
In949 O961 2.326 . S
O950 In949 2.294 . S
O950 C959 1.240 . S
O951 In949 2.326 . S
O951 C959 1.252 . S
C952 O955 1.252 . S
C952 O956 1.260 . S
C953 O960 1.240 . S
C953 O961 1.252 . S
C954 O957 1.252 . S
C954 O958 1.260 . S
O955 In949 2.266 . S
O955 C952 1.252 . S
O956 In949 2.326 . S
O956 C952 1.260 . S
O957 In949 2.266 . S
O957 C954 1.252 . S
O958 In949 2.326 . S
O958 C954 1.260 . S
C959 O950 1.240 . S
C959 O951 1.252 . S
O960 In949 2.294 . S
O960 C953 1.240 . S
O961 In949 2.326 . S
O961 C953 1.252 . S
In962 O963 2.294 . S
In962 O964 2.326 . S
In962 O968 2.266 . S
In962 O969 2.326 . S
In962 O970 2.266 . S
In962 O971 2.326 . S
In962 O973 2.294 . S
In962 O974 2.326 . S
O963 In962 2.294 . S
O963 C972 1.240 . S
O964 In962 2.326 . S
O964 C972 1.252 . S
C965 O968 1.252 . S
C965 O969 1.260 . S
C966 O973 1.240 . S
C966 O974 1.252 . S
C967 O970 1.252 . S
C967 O971 1.260 . S
O968 In962 2.266 . S
O968 C965 1.252 . S
O969 In962 2.326 . S
O969 C965 1.260 . S
O970 In962 2.266 . S
O970 C967 1.252 . S
O971 In962 2.326 . S
O971 C967 1.260 . S
C972 O963 1.240 . S
C972 O964 1.252 . S
O973 In962 2.294 . S
O973 C966 1.240 . S
O974 In962 2.326 . S
O974 C966 1.252 . S
In975 O976 2.294 . S
In975 O977 2.326 . S
In975 O981 2.266 . S
In975 O982 2.326 . S
In975 O983 2.266 . S
In975 O984 2.326 . S
In975 O986 2.294 . S
In975 O987 2.326 . S
O976 In975 2.294 . S
O976 C985 1.240 . S
O977 In975 2.326 . S
O977 C985 1.252 . S
C978 O981 1.252 . S
C978 O982 1.260 . S
C979 O986 1.240 . S
C979 O987 1.252 . S
C980 O983 1.252 . S
C980 O984 1.260 . S
O981 In975 2.266 . S
O981 C978 1.252 . S
O982 In975 2.326 . S
O982 C978 1.260 . S
O983 In975 2.266 . S
O983 C980 1.252 . S
O984 In975 2.326 . S
O984 C980 1.260 . S
C985 O976 1.240 . S
C985 O977 1.252 . S
O986 In975 2.294 . S
O986 C979 1.240 . S
O987 In975 2.326 . S
O987 C979 1.252 . S
In988 O989 2.294 . S
In988 O990 2.326 . S
In988 O994 2.266 . S
In988 O995 2.326 . S
In988 O996 2.266 . S
In988 O997 2.326 . S
In988 O999 2.294 . S
In988 O1000 2.326 . S
O989 In988 2.294 . S
O989 C998 1.240 . S
O990 In988 2.326 . S
O990 C998 1.252 . S
C991 O994 1.252 . S
C991 O995 1.260 . S
C992 O999 1.240 . S
C992 O1000 1.252 . S
C993 O996 1.252 . S
C993 O997 1.260 . S
O994 In988 2.266 . S
O994 C991 1.252 . S
O995 In988 2.326 . S
O995 C991 1.260 . S
O996 In988 2.266 . S
O996 C993 1.252 . S
O997 In988 2.326 . S
O997 C993 1.260 . S
C998 O989 1.240 . S
C998 O990 1.252 . S
O999 In988 2.294 . S
O999 C992 1.240 . S
O1000 In988 2.326 . S
O1000 C992 1.252 . S
In1001 O1002 2.294 . S
In1001 O1003 2.326 . S
In1001 O1007 2.266 . S
In1001 O1008 2.326 . S
In1001 O1009 2.266 . S
In1001 O1010 2.326 . S
In1001 O1012 2.294 . S
In1001 O1013 2.326 . S
O1002 In1001 2.294 . S
O1002 C1011 1.240 . S
O1003 In1001 2.326 . S
O1003 C1011 1.252 . S
C1004 O1007 1.252 . S
C1004 O1008 1.260 . S
C1005 O1012 1.240 . S
C1005 O1013 1.252 . S
C1006 O1009 1.252 . S
C1006 O1010 1.260 . S
O1007 In1001 2.266 . S
O1007 C1004 1.252 . S
O1008 In1001 2.326 . S
O1008 C1004 1.260 . S
O1009 In1001 2.266 . S
O1009 C1006 1.252 . S
O1010 In1001 2.326 . S
O1010 C1006 1.260 . S
C1011 O1002 1.240 . S
C1011 O1003 1.252 . S
O1012 In1001 2.294 . S
O1012 C1005 1.240 . S
O1013 In1001 2.326 . S
O1013 C1005 1.252 . S
In1014 O1015 2.294 . S
In1014 O1016 2.326 . S
In1014 O1020 2.266 . S
In1014 O1021 2.326 . S
In1014 O1022 2.266 . S
In1014 O1023 2.326 . S
In1014 O1025 2.294 . S
In1014 O1026 2.326 . S
O1015 In1014 2.294 . S
O1015 C1024 1.240 . S
O1016 In1014 2.326 . S
O1016 C1024 1.252 . S
C1017 O1020 1.252 . S
C1017 O1021 1.260 . S
C1018 O1025 1.240 . S
C1018 O1026 1.252 . S
C1019 O1022 1.252 . S
C1019 O1023 1.260 . S
O1020 In1014 2.266 . S
O1020 C1017 1.252 . S
O1021 In1014 2.326 . S
O1021 C1017 1.260 . S
O1022 In1014 2.266 . S
O1022 C1019 1.252 . S
O1023 In1014 2.326 . S
O1023 C1019 1.260 . S
C1024 O1015 1.240 . S
C1024 O1016 1.252 . S
O1025 In1014 2.294 . S
O1025 C1018 1.240 . S
O1026 In1014 2.326 . S
O1026 C1018 1.252 . S
In1027 O1028 2.294 . S
In1027 O1029 2.326 . S
In1027 O1033 2.266 . S
In1027 O1034 2.326 . S
In1027 O1035 2.266 . S
In1027 O1036 2.326 . S
In1027 O1038 2.294 . S
In1027 O1039 2.326 . S
O1028 In1027 2.294 . S
O1028 C1037 1.240 . S
O1029 In1027 2.326 . S
O1029 C1037 1.252 . S
C1030 O1033 1.252 . S
C1030 O1034 1.260 . S
C1031 O1038 1.240 . S
C1031 O1039 1.252 . S
C1032 O1035 1.252 . S
C1032 O1036 1.260 . S
O1033 In1027 2.266 . S
O1033 C1030 1.252 . S
O1034 In1027 2.326 . S
O1034 C1030 1.260 . S
O1035 In1027 2.266 . S
O1035 C1032 1.252 . S
O1036 In1027 2.326 . S
O1036 C1032 1.260 . S
C1037 O1028 1.240 . S
C1037 O1029 1.252 . S
O1038 In1027 2.294 . S
O1038 C1031 1.240 . S
O1039 In1027 2.326 . S
O1039 C1031 1.252 . S
In1040 O1041 2.294 . S
In1040 O1042 2.326 . S
In1040 O1046 2.266 . S
In1040 O1047 2.326 . S
In1040 O1048 2.266 . S
In1040 O1049 2.326 . S
In1040 O1051 2.294 . S
In1040 O1052 2.326 . S
O1041 In1040 2.294 . S
O1041 C1050 1.240 . S
O1042 In1040 2.326 . S
O1042 C1050 1.252 . S
C1043 O1046 1.252 . S
C1043 O1047 1.260 . S
C1044 O1051 1.240 . S
C1044 O1052 1.252 . S
C1045 O1048 1.252 . S
C1045 O1049 1.260 . S
O1046 In1040 2.266 . S
O1046 C1043 1.252 . S
O1047 In1040 2.326 . S
O1047 C1043 1.260 . S
O1048 In1040 2.266 . S
O1048 C1045 1.252 . S
O1049 In1040 2.326 . S
O1049 C1045 1.260 . S
C1050 O1041 1.240 . S
C1050 O1042 1.252 . S
O1051 In1040 2.294 . S
O1051 C1044 1.240 . S
O1052 In1040 2.326 . S
O1052 C1044 1.252 . S
In1053 O1054 2.294 . S
In1053 O1055 2.326 . S
In1053 O1059 2.266 . S
In1053 O1060 2.326 . S
In1053 O1061 2.266 . S
In1053 O1062 2.326 . S
In1053 O1064 2.294 . S
In1053 O1065 2.326 . S
O1054 In1053 2.294 . S
O1054 C1063 1.240 . S
O1055 In1053 2.326 . S
O1055 C1063 1.252 . S
C1056 O1059 1.252 . S
C1056 O1060 1.260 . S
C1057 O1064 1.240 . S
C1057 O1065 1.252 . S
C1058 O1061 1.252 . S
C1058 O1062 1.260 . S
O1059 In1053 2.266 . S
O1059 C1056 1.252 . S
O1060 In1053 2.326 . S
O1060 C1056 1.260 . S
O1061 In1053 2.266 . S
O1061 C1058 1.252 . S
O1062 In1053 2.326 . S
O1062 C1058 1.260 . S
C1063 O1054 1.240 . S
C1063 O1055 1.252 . S
O1064 In1053 2.294 . S
O1064 C1057 1.240 . S
O1065 In1053 2.326 . S
O1065 C1057 1.252 . S
In1066 O1067 2.294 . S
In1066 O1068 2.326 . S
In1066 O1072 2.266 . S
In1066 O1073 2.326 . S
In1066 O1074 2.266 . S
In1066 O1075 2.326 . S
In1066 O1077 2.294 . S
In1066 O1078 2.326 . S
O1067 In1066 2.294 . S
O1067 C1076 1.240 . S
O1068 In1066 2.326 . S
O1068 C1076 1.252 . S
C1069 O1072 1.252 . S
C1069 O1073 1.260 . S
C1070 O1077 1.240 . S
C1070 O1078 1.252 . S
C1071 O1074 1.252 . S
C1071 O1075 1.260 . S
O1072 In1066 2.266 . S
O1072 C1069 1.252 . S
O1073 In1066 2.326 . S
O1073 C1069 1.260 . S
O1074 In1066 2.266 . S
O1074 C1071 1.252 . S
O1075 In1066 2.326 . S
O1075 C1071 1.260 . S
C1076 O1067 1.240 . S
C1076 O1068 1.252 . S
O1077 In1066 2.294 . S
O1077 C1070 1.240 . S
O1078 In1066 2.326 . S
O1078 C1070 1.252 . S
In1079 O1080 2.294 . S
In1079 O1081 2.326 . S
In1079 O1085 2.266 . S
In1079 O1086 2.326 . S
In1079 O1087 2.266 . S
In1079 O1088 2.326 . S
In1079 O1090 2.294 . S
In1079 O1091 2.326 . S
O1080 In1079 2.294 . S
O1080 C1089 1.240 . S
O1081 In1079 2.326 . S
O1081 C1089 1.252 . S
C1082 O1085 1.252 . S
C1082 O1086 1.260 . S
C1083 O1090 1.240 . S
C1083 O1091 1.252 . S
C1084 O1087 1.252 . S
C1084 O1088 1.260 . S
O1085 In1079 2.266 . S
O1085 C1082 1.252 . S
O1086 In1079 2.326 . S
O1086 C1082 1.260 . S
O1087 In1079 2.266 . S
O1087 C1084 1.252 . S
O1088 In1079 2.326 . S
O1088 C1084 1.260 . S
C1089 O1080 1.240 . S
C1089 O1081 1.252 . S
O1090 In1079 2.294 . S
O1090 C1083 1.240 . S
O1091 In1079 2.326 . S
O1091 C1083 1.252 . S
In1092 O1093 2.294 . S
In1092 O1094 2.326 . S
In1092 O1098 2.266 . S
In1092 O1099 2.326 . S
In1092 O1100 2.266 . S
In1092 O1101 2.326 . S
In1092 O1103 2.294 . S
In1092 O1104 2.326 . S
O1093 In1092 2.294 . S
O1093 C1102 1.240 . S
O1094 In1092 2.326 . S
O1094 C1102 1.252 . S
C1095 O1098 1.252 . S
C1095 O1099 1.260 . S
C1096 O1103 1.240 . S
C1096 O1104 1.252 . S
C1097 O1100 1.252 . S
C1097 O1101 1.260 . S
O1098 In1092 2.266 . S
O1098 C1095 1.252 . S
O1099 In1092 2.326 . S
O1099 C1095 1.260 . S
O1100 In1092 2.266 . S
O1100 C1097 1.252 . S
O1101 In1092 2.326 . S
O1101 C1097 1.260 . S
C1102 O1093 1.240 . S
C1102 O1094 1.252 . S
O1103 In1092 2.294 . S
O1103 C1096 1.240 . S
O1104 In1092 2.326 . S
O1104 C1096 1.252 . S
In1105 O1106 2.294 . S
In1105 O1107 2.326 . S
In1105 O1111 2.266 . S
In1105 O1112 2.326 . S
In1105 O1113 2.266 . S
In1105 O1114 2.326 . S
In1105 O1116 2.294 . S
In1105 O1117 2.326 . S
O1106 In1105 2.294 . S
O1106 C1115 1.240 . S
O1107 In1105 2.326 . S
O1107 C1115 1.252 . S
C1108 O1111 1.252 . S
C1108 O1112 1.260 . S
C1109 O1116 1.240 . S
C1109 O1117 1.252 . S
C1110 O1113 1.252 . S
C1110 O1114 1.260 . S
O1111 In1105 2.266 . S
O1111 C1108 1.252 . S
O1112 In1105 2.326 . S
O1112 C1108 1.260 . S
O1113 In1105 2.266 . S
O1113 C1110 1.252 . S
O1114 In1105 2.326 . S
O1114 C1110 1.260 . S
C1115 O1106 1.240 . S
C1115 O1107 1.252 . S
O1116 In1105 2.294 . S
O1116 C1109 1.240 . S
O1117 In1105 2.326 . S
O1117 C1109 1.252 . S
In1118 O1119 2.294 . S
In1118 O1120 2.326 . S
In1118 O1124 2.266 . S
In1118 O1125 2.326 . S
In1118 O1126 2.266 . S
In1118 O1127 2.326 . S
In1118 O1129 2.294 . S
In1118 O1130 2.326 . S
O1119 In1118 2.294 . S
O1119 C1128 1.240 . S
O1120 In1118 2.326 . S
O1120 C1128 1.252 . S
C1121 O1124 1.252 . S
C1121 O1125 1.260 . S
C1122 O1129 1.240 . S
C1122 O1130 1.252 . S
C1123 O1126 1.252 . S
C1123 O1127 1.260 . S
O1124 In1118 2.266 . S
O1124 C1121 1.252 . S
O1125 In1118 2.326 . S
O1125 C1121 1.260 . S
O1126 In1118 2.266 . S
O1126 C1123 1.252 . S
O1127 In1118 2.326 . S
O1127 C1123 1.260 . S
C1128 O1119 1.240 . S
C1128 O1120 1.252 . S
O1129 In1118 2.294 . S
O1129 C1122 1.240 . S
O1130 In1118 2.326 . S
O1130 C1122 1.252 . S
In1131 O1132 2.294 . S
In1131 O1133 2.326 . S
In1131 O1137 2.266 . S
In1131 O1138 2.326 . S
In1131 O1139 2.266 . S
In1131 O1140 2.326 . S
In1131 O1142 2.294 . S
In1131 O1143 2.326 . S
O1132 In1131 2.294 . S
O1132 C1141 1.240 . S
O1133 In1131 2.326 . S
O1133 C1141 1.252 . S
C1134 O1137 1.252 . S
C1134 O1138 1.260 . S
C1135 O1142 1.240 . S
C1135 O1143 1.252 . S
C1136 O1139 1.252 . S
C1136 O1140 1.260 . S
O1137 In1131 2.266 . S
O1137 C1134 1.252 . S
O1138 In1131 2.326 . S
O1138 C1134 1.260 . S
O1139 In1131 2.266 . S
O1139 C1136 1.252 . S
O1140 In1131 2.326 . S
O1140 C1136 1.260 . S
C1141 O1132 1.240 . S
C1141 O1133 1.252 . S
O1142 In1131 2.294 . S
O1142 C1135 1.240 . S
O1143 In1131 2.326 . S
O1143 C1135 1.252 . S
In1144 O1145 2.294 . S
In1144 O1146 2.326 . S
In1144 O1150 2.266 . S
In1144 O1151 2.326 . S
In1144 O1152 2.266 . S
In1144 O1153 2.326 . S
In1144 O1155 2.294 . S
In1144 O1156 2.326 . S
O1145 In1144 2.294 . S
O1145 C1154 1.240 . S
O1146 In1144 2.326 . S
O1146 C1154 1.252 . S
C1147 O1150 1.252 . S
C1147 O1151 1.260 . S
C1148 O1155 1.240 . S
C1148 O1156 1.252 . S
C1149 O1152 1.252 . S
C1149 O1153 1.260 . S
O1150 In1144 2.266 . S
O1150 C1147 1.252 . S
O1151 In1144 2.326 . S
O1151 C1147 1.260 . S
O1152 In1144 2.266 . S
O1152 C1149 1.252 . S
O1153 In1144 2.326 . S
O1153 C1149 1.260 . S
C1154 O1145 1.240 . S
C1154 O1146 1.252 . S
O1155 In1144 2.294 . S
O1155 C1148 1.240 . S
O1156 In1144 2.326 . S
O1156 C1148 1.252 . S
In1157 O1158 2.294 . S
In1157 O1159 2.326 . S
In1157 O1163 2.266 . S
In1157 O1164 2.326 . S
In1157 O1165 2.266 . S
In1157 O1166 2.326 . S
In1157 O1168 2.294 . S
In1157 O1169 2.326 . S
O1158 In1157 2.294 . S
O1158 C1167 1.240 . S
O1159 In1157 2.326 . S
O1159 C1167 1.252 . S
C1160 O1163 1.252 . S
C1160 O1164 1.260 . S
C1161 O1168 1.240 . S
C1161 O1169 1.252 . S
C1162 O1165 1.252 . S
C1162 O1166 1.260 . S
O1163 In1157 2.266 . S
O1163 C1160 1.252 . S
O1164 In1157 2.326 . S
O1164 C1160 1.260 . S
O1165 In1157 2.266 . S
O1165 C1162 1.252 . S
O1166 In1157 2.326 . S
O1166 C1162 1.260 . S
C1167 O1158 1.240 . S
C1167 O1159 1.252 . S
O1168 In1157 2.294 . S
O1168 C1161 1.240 . S
O1169 In1157 2.326 . S
O1169 C1161 1.252 . S
In1170 O1171 2.294 . S
In1170 O1172 2.326 . S
In1170 O1176 2.266 . S
In1170 O1177 2.326 . S
In1170 O1178 2.266 . S
In1170 O1179 2.326 . S
In1170 O1181 2.294 . S
In1170 O1182 2.326 . S
O1171 In1170 2.294 . S
O1171 C1180 1.240 . S
O1172 In1170 2.326 . S
O1172 C1180 1.252 . S
C1173 O1176 1.252 . S
C1173 O1177 1.260 . S
C1174 O1181 1.240 . S
C1174 O1182 1.252 . S
C1175 O1178 1.252 . S
C1175 O1179 1.260 . S
O1176 In1170 2.266 . S
O1176 C1173 1.252 . S
O1177 In1170 2.326 . S
O1177 C1173 1.260 . S
O1178 In1170 2.266 . S
O1178 C1175 1.252 . S
O1179 In1170 2.326 . S
O1179 C1175 1.260 . S
C1180 O1171 1.240 . S
C1180 O1172 1.252 . S
O1181 In1170 2.294 . S
O1181 C1174 1.240 . S
O1182 In1170 2.326 . S
O1182 C1174 1.252 . S
In1183 O1184 2.294 . S
In1183 O1185 2.326 . S
In1183 O1189 2.266 . S
In1183 O1190 2.326 . S
In1183 O1191 2.266 . S
In1183 O1192 2.326 . S
In1183 O1194 2.294 . S
In1183 O1195 2.326 . S
O1184 In1183 2.294 . S
O1184 C1193 1.240 . S
O1185 In1183 2.326 . S
O1185 C1193 1.252 . S
C1186 O1189 1.252 . S
C1186 O1190 1.260 . S
C1187 O1194 1.240 . S
C1187 O1195 1.252 . S
C1188 O1191 1.252 . S
C1188 O1192 1.260 . S
O1189 In1183 2.266 . S
O1189 C1186 1.252 . S
O1190 In1183 2.326 . S
O1190 C1186 1.260 . S
O1191 In1183 2.266 . S
O1191 C1188 1.252 . S
O1192 In1183 2.326 . S
O1192 C1188 1.260 . S
C1193 O1184 1.240 . S
C1193 O1185 1.252 . S
O1194 In1183 2.294 . S
O1194 C1187 1.240 . S
O1195 In1183 2.326 . S
O1195 C1187 1.252 . S
In1196 O1197 2.294 . S
In1196 O1198 2.326 . S
In1196 O1202 2.266 . S
In1196 O1203 2.326 . S
In1196 O1204 2.266 . S
In1196 O1205 2.326 . S
In1196 O1207 2.294 . S
In1196 O1208 2.326 . S
O1197 In1196 2.294 . S
O1197 C1206 1.240 . S
O1198 In1196 2.326 . S
O1198 C1206 1.252 . S
C1199 O1202 1.252 . S
C1199 O1203 1.260 . S
C1200 O1207 1.240 . S
C1200 O1208 1.252 . S
C1201 O1204 1.252 . S
C1201 O1205 1.260 . S
O1202 In1196 2.266 . S
O1202 C1199 1.252 . S
O1203 In1196 2.326 . S
O1203 C1199 1.260 . S
O1204 In1196 2.266 . S
O1204 C1201 1.252 . S
O1205 In1196 2.326 . S
O1205 C1201 1.260 . S
C1206 O1197 1.240 . S
C1206 O1198 1.252 . S
O1207 In1196 2.294 . S
O1207 C1200 1.240 . S
O1208 In1196 2.326 . S
O1208 C1200 1.252 . S
In1209 O1210 2.294 . S
In1209 O1211 2.326 . S
In1209 O1215 2.266 . S
In1209 O1216 2.326 . S
In1209 O1217 2.266 . S
In1209 O1218 2.326 . S
In1209 O1220 2.294 . S
In1209 O1221 2.326 . S
O1210 In1209 2.294 . S
O1210 C1219 1.240 . S
O1211 In1209 2.326 . S
O1211 C1219 1.252 . S
C1212 O1215 1.252 . S
C1212 O1216 1.260 . S
C1213 O1220 1.240 . S
C1213 O1221 1.252 . S
C1214 O1217 1.252 . S
C1214 O1218 1.260 . S
O1215 In1209 2.266 . S
O1215 C1212 1.252 . S
O1216 In1209 2.326 . S
O1216 C1212 1.260 . S
O1217 In1209 2.266 . S
O1217 C1214 1.252 . S
O1218 In1209 2.326 . S
O1218 C1214 1.260 . S
C1219 O1210 1.240 . S
C1219 O1211 1.252 . S
O1220 In1209 2.294 . S
O1220 C1213 1.240 . S
O1221 In1209 2.326 . S
O1221 C1213 1.252 . S
In1222 O1223 2.294 . S
In1222 O1224 2.326 . S
In1222 O1228 2.266 . S
In1222 O1229 2.326 . S
In1222 O1230 2.266 . S
In1222 O1231 2.326 . S
In1222 O1233 2.294 . S
In1222 O1234 2.326 . S
O1223 In1222 2.294 . S
O1223 C1232 1.240 . S
O1224 In1222 2.326 . S
O1224 C1232 1.252 . S
C1225 O1228 1.252 . S
C1225 O1229 1.260 . S
C1226 O1233 1.240 . S
C1226 O1234 1.252 . S
C1227 O1230 1.252 . S
C1227 O1231 1.260 . S
O1228 In1222 2.266 . S
O1228 C1225 1.252 . S
O1229 In1222 2.326 . S
O1229 C1225 1.260 . S
O1230 In1222 2.266 . S
O1230 C1227 1.252 . S
O1231 In1222 2.326 . S
O1231 C1227 1.260 . S
C1232 O1223 1.240 . S
C1232 O1224 1.252 . S
O1233 In1222 2.294 . S
O1233 C1226 1.240 . S
O1234 In1222 2.326 . S
O1234 C1226 1.252 . S
In1235 O1236 2.294 . S
In1235 O1237 2.326 . S
In1235 O1241 2.266 . S
In1235 O1242 2.326 . S
In1235 O1243 2.266 . S
In1235 O1244 2.326 . S
In1235 O1246 2.294 . S
In1235 O1247 2.326 . S
O1236 In1235 2.294 . S
O1236 C1245 1.240 . S
O1237 In1235 2.326 . S
O1237 C1245 1.252 . S
C1238 O1241 1.252 . S
C1238 O1242 1.260 . S
C1239 O1246 1.240 . S
C1239 O1247 1.252 . S
C1240 O1243 1.252 . S
C1240 O1244 1.260 . S
O1241 In1235 2.266 . S
O1241 C1238 1.252 . S
O1242 In1235 2.326 . S
O1242 C1238 1.260 . S
O1243 In1235 2.266 . S
O1243 C1240 1.252 . S
O1244 In1235 2.326 . S
O1244 C1240 1.260 . S
C1245 O1236 1.240 . S
C1245 O1237 1.252 . S
O1246 In1235 2.294 . S
O1246 C1239 1.240 . S
O1247 In1235 2.326 . S
O1247 C1239 1.252 . S
C1248 C1249 1.387 . S
C1248 H1252 0.950 . S
C1248 C1257 1.390 . S
C1249 C1248 1.387 . S
C1249 C1251 1.387 . S
H1250 C1257 0.950 . S
C1251 C1249 1.387 . S
C1251 C1253 1.390 . S
C1251 H1255 0.950 . S
H1252 C1248 0.950 . S
C1253 C1251 1.390 . S
C1253 C1254 1.387 . S
C1253 H1256 0.950 . S
C1254 C1253 1.387 . S
C1254 C1257 1.387 . S
H1255 C1251 0.950 . S
H1256 C1253 0.950 . S
C1257 C1248 1.390 . S
C1257 H1250 0.950 . S
C1257 C1254 1.387 . S
C1258 C1259 1.387 . S
C1258 H1262 0.950 . S
C1258 C1267 1.390 . S
C1259 C1258 1.387 . S
C1259 C1261 1.387 . S
H1260 C1267 0.950 . S
C1261 C1259 1.387 . S
C1261 C1263 1.390 . S
C1261 H1265 0.950 . S
H1262 C1258 0.950 . S
C1263 C1261 1.390 . S
C1263 C1264 1.387 . S
C1263 H1266 0.950 . S
C1264 C1263 1.387 . S
C1264 C1267 1.387 . S
H1265 C1261 0.950 . S
H1266 C1263 0.950 . S
C1267 C1258 1.390 . S
C1267 H1260 0.950 . S
C1267 C1264 1.387 . S
C1268 C1269 1.387 . S
C1268 H1272 0.950 . S
C1268 C1277 1.390 . S
C1269 C1268 1.387 . S
C1269 C1271 1.387 . S
H1270 C1277 0.950 . S
C1271 C1269 1.387 . S
C1271 C1273 1.390 . S
C1271 H1275 0.950 . S
H1272 C1268 0.950 . S
C1273 C1271 1.390 . S
C1273 C1274 1.387 . S
C1273 H1276 0.950 . S
C1274 C1273 1.387 . S
C1274 C1277 1.387 . S
H1275 C1271 0.950 . S
H1276 C1273 0.950 . S
C1277 C1268 1.390 . S
C1277 H1270 0.950 . S
C1277 C1274 1.387 . S
C1278 C1279 1.387 . S
C1278 H1282 0.950 . S
C1278 C1287 1.390 . S
C1279 C1278 1.387 . S
C1279 C1281 1.387 . S
H1280 C1287 0.950 . S
C1281 C1279 1.387 . S
C1281 C1283 1.390 . S
C1281 H1285 0.950 . S
H1282 C1278 0.950 . S
C1283 C1281 1.390 . S
C1283 C1284 1.387 . S
C1283 H1286 0.950 . S
C1284 C1283 1.387 . S
C1284 C1287 1.387 . S
H1285 C1281 0.950 . S
H1286 C1283 0.950 . S
C1287 C1278 1.390 . S
C1287 H1280 0.950 . S
C1287 C1284 1.387 . S
C1288 C1289 1.387 . S
C1288 H1292 0.950 . S
C1288 C1297 1.390 . S
C1289 C1288 1.387 . S
C1289 C1291 1.387 . S
H1290 C1297 0.950 . S
C1291 C1289 1.387 . S
C1291 C1293 1.390 . S
C1291 H1295 0.950 . S
H1292 C1288 0.950 . S
C1293 C1291 1.390 . S
C1293 C1294 1.387 . S
C1293 H1296 0.950 . S
C1294 C1293 1.387 . S
C1294 C1297 1.387 . S
H1295 C1291 0.950 . S
H1296 C1293 0.950 . S
C1297 C1288 1.390 . S
C1297 H1290 0.950 . S
C1297 C1294 1.387 . S
C1298 C1299 1.387 . S
C1298 H1302 0.950 . S
C1298 C1307 1.390 . S
C1299 C1298 1.387 . S
C1299 C1301 1.387 . S
H1300 C1307 0.950 . S
C1301 C1299 1.387 . S
C1301 C1303 1.390 . S
C1301 H1305 0.950 . S
H1302 C1298 0.950 . S
C1303 C1301 1.390 . S
C1303 C1304 1.387 . S
C1303 H1306 0.950 . S
C1304 C1303 1.387 . S
C1304 C1307 1.387 . S
H1305 C1301 0.950 . S
H1306 C1303 0.950 . S
C1307 C1298 1.390 . S
C1307 H1300 0.950 . S
C1307 C1304 1.387 . S
C1308 C1309 1.387 . S
C1308 H1312 0.950 . S
C1308 C1317 1.390 . S
C1309 C1308 1.387 . S
C1309 C1311 1.387 . S
H1310 C1317 0.950 . S
C1311 C1309 1.387 . S
C1311 C1313 1.390 . S
C1311 H1315 0.950 . S
H1312 C1308 0.950 . S
C1313 C1311 1.390 . S
C1313 C1314 1.387 . S
C1313 H1316 0.950 . S
C1314 C1313 1.387 . S
C1314 C1317 1.387 . S
H1315 C1311 0.950 . S
H1316 C1313 0.950 . S
C1317 C1308 1.390 . S
C1317 H1310 0.950 . S
C1317 C1314 1.387 . S
C1318 C1319 1.387 . S
C1318 H1322 0.950 . S
C1318 C1327 1.390 . S
C1319 C1318 1.387 . S
C1319 C1321 1.387 . S
H1320 C1327 0.950 . S
C1321 C1319 1.387 . S
C1321 C1323 1.390 . S
C1321 H1325 0.950 . S
H1322 C1318 0.950 . S
C1323 C1321 1.390 . S
C1323 C1324 1.387 . S
C1323 H1326 0.950 . S
C1324 C1323 1.387 . S
C1324 C1327 1.387 . S
H1325 C1321 0.950 . S
H1326 C1323 0.950 . S
C1327 C1318 1.390 . S
C1327 H1320 0.950 . S
C1327 C1324 1.387 . S
C1328 C1329 1.387 . S
C1328 H1332 0.950 . S
C1328 C1337 1.390 . S
C1329 C1328 1.387 . S
C1329 C1331 1.387 . S
H1330 C1337 0.950 . S
C1331 C1329 1.387 . S
C1331 C1333 1.390 . S
C1331 H1335 0.950 . S
H1332 C1328 0.950 . S
C1333 C1331 1.390 . S
C1333 C1334 1.387 . S
C1333 H1336 0.950 . S
C1334 C1333 1.387 . S
C1334 C1337 1.387 . S
H1335 C1331 0.950 . S
H1336 C1333 0.950 . S
C1337 C1328 1.390 . S
C1337 H1330 0.950 . S
C1337 C1334 1.387 . S
C1338 C1339 1.387 . S
C1338 H1342 0.950 . S
C1338 C1347 1.390 . S
C1339 C1338 1.387 . S
C1339 C1341 1.387 . S
H1340 C1347 0.950 . S
C1341 C1339 1.387 . S
C1341 C1343 1.390 . S
C1341 H1345 0.950 . S
H1342 C1338 0.950 . S
C1343 C1341 1.390 . S
C1343 C1344 1.387 . S
C1343 H1346 0.950 . S
C1344 C1343 1.387 . S
C1344 C1347 1.387 . S
H1345 C1341 0.950 . S
H1346 C1343 0.950 . S
C1347 C1338 1.390 . S
C1347 H1340 0.950 . S
C1347 C1344 1.387 . S
C1348 C1349 1.387 . S
C1348 H1352 0.950 . S
C1348 C1357 1.390 . S
C1349 C1348 1.387 . S
C1349 C1351 1.387 . S
H1350 C1357 0.950 . S
C1351 C1349 1.387 . S
C1351 C1353 1.390 . S
C1351 H1355 0.950 . S
H1352 C1348 0.950 . S
C1353 C1351 1.390 . S
C1353 C1354 1.387 . S
C1353 H1356 0.950 . S
C1354 C1353 1.387 . S
C1354 C1357 1.387 . S
H1355 C1351 0.950 . S
H1356 C1353 0.950 . S
C1357 C1348 1.390 . S
C1357 H1350 0.950 . S
C1357 C1354 1.387 . S
C1358 C1359 1.387 . S
C1358 H1362 0.950 . S
C1358 C1367 1.390 . S
C1359 C1358 1.387 . S
C1359 C1361 1.387 . S
H1360 C1367 0.950 . S
C1361 C1359 1.387 . S
C1361 C1363 1.390 . S
C1361 H1365 0.950 . S
H1362 C1358 0.950 . S
C1363 C1361 1.390 . S
C1363 C1364 1.387 . S
C1363 H1366 0.950 . S
C1364 C1363 1.387 . S
C1364 C1367 1.387 . S
H1365 C1361 0.950 . S
H1366 C1363 0.950 . S
C1367 C1358 1.390 . S
C1367 H1360 0.950 . S
C1367 C1364 1.387 . S
C1368 C1369 1.387 . S
C1368 H1372 0.950 . S
C1368 C1377 1.390 . S
C1369 C1368 1.387 . S
C1369 C1371 1.387 . S
H1370 C1377 0.950 . S
C1371 C1369 1.387 . S
C1371 C1373 1.390 . S
C1371 H1375 0.950 . S
H1372 C1368 0.950 . S
C1373 C1371 1.390 . S
C1373 C1374 1.387 . S
C1373 H1376 0.950 . S
C1374 C1373 1.387 . S
C1374 C1377 1.387 . S
H1375 C1371 0.950 . S
H1376 C1373 0.950 . S
C1377 C1368 1.390 . S
C1377 H1370 0.950 . S
C1377 C1374 1.387 . S
C1378 C1379 1.387 . S
C1378 H1382 0.950 . S
C1378 C1387 1.390 . S
C1379 C1378 1.387 . S
C1379 C1381 1.387 . S
H1380 C1387 0.950 . S
C1381 C1379 1.387 . S
C1381 C1383 1.390 . S
C1381 H1385 0.950 . S
H1382 C1378 0.950 . S
C1383 C1381 1.390 . S
C1383 C1384 1.387 . S
C1383 H1386 0.950 . S
C1384 C1383 1.387 . S
C1384 C1387 1.387 . S
H1385 C1381 0.950 . S
H1386 C1383 0.950 . S
C1387 C1378 1.390 . S
C1387 H1380 0.950 . S
C1387 C1384 1.387 . S
C1388 C1389 1.387 . S
C1388 H1392 0.950 . S
C1388 C1397 1.390 . S
C1389 C1388 1.387 . S
C1389 C1391 1.387 . S
H1390 C1397 0.950 . S
C1391 C1389 1.387 . S
C1391 C1393 1.390 . S
C1391 H1395 0.950 . S
H1392 C1388 0.950 . S
C1393 C1391 1.390 . S
C1393 C1394 1.387 . S
C1393 H1396 0.950 . S
C1394 C1393 1.387 . S
C1394 C1397 1.387 . S
H1395 C1391 0.950 . S
H1396 C1393 0.950 . S
C1397 C1388 1.390 . S
C1397 H1390 0.950 . S
C1397 C1394 1.387 . S
C1398 C1399 1.387 . S
C1398 H1402 0.950 . S
C1398 C1407 1.390 . S
C1399 C1398 1.387 . S
C1399 C1401 1.387 . S
H1400 C1407 0.950 . S
C1401 C1399 1.387 . S
C1401 C1403 1.390 . S
C1401 H1405 0.950 . S
H1402 C1398 0.950 . S
C1403 C1401 1.390 . S
C1403 C1404 1.387 . S
C1403 H1406 0.950 . S
C1404 C1403 1.387 . S
C1404 C1407 1.387 . S
H1405 C1401 0.950 . S
H1406 C1403 0.950 . S
C1407 C1398 1.390 . S
C1407 H1400 0.950 . S
C1407 C1404 1.387 . S
C1408 C1409 1.387 . S
C1408 H1412 0.950 . S
C1408 C1417 1.390 . S
C1409 C1408 1.387 . S
C1409 C1411 1.387 . S
H1410 C1417 0.950 . S
C1411 C1409 1.387 . S
C1411 C1413 1.390 . S
C1411 H1415 0.950 . S
H1412 C1408 0.950 . S
C1413 C1411 1.390 . S
C1413 C1414 1.387 . S
C1413 H1416 0.950 . S
C1414 C1413 1.387 . S
C1414 C1417 1.387 . S
H1415 C1411 0.950 . S
H1416 C1413 0.950 . S
C1417 C1408 1.390 . S
C1417 H1410 0.950 . S
C1417 C1414 1.387 . S
C1418 C1419 1.387 . S
C1418 H1422 0.950 . S
C1418 C1427 1.390 . S
C1419 C1418 1.387 . S
C1419 C1421 1.387 . S
H1420 C1427 0.950 . S
C1421 C1419 1.387 . S
C1421 C1423 1.390 . S
C1421 H1425 0.950 . S
H1422 C1418 0.950 . S
C1423 C1421 1.390 . S
C1423 C1424 1.387 . S
C1423 H1426 0.950 . S
C1424 C1423 1.387 . S
C1424 C1427 1.387 . S
H1425 C1421 0.950 . S
H1426 C1423 0.950 . S
C1427 C1418 1.390 . S
C1427 H1420 0.950 . S
C1427 C1424 1.387 . S
C1428 C1429 1.387 . S
C1428 H1432 0.950 . S
C1428 C1437 1.390 . S
C1429 C1428 1.387 . S
C1429 C1431 1.387 . S
H1430 C1437 0.950 . S
C1431 C1429 1.387 . S
C1431 C1433 1.390 . S
C1431 H1435 0.950 . S
H1432 C1428 0.950 . S
C1433 C1431 1.390 . S
C1433 C1434 1.387 . S
C1433 H1436 0.950 . S
C1434 C1433 1.387 . S
C1434 C1437 1.387 . S
H1435 C1431 0.950 . S
H1436 C1433 0.950 . S
C1437 C1428 1.390 . S
C1437 H1430 0.950 . S
C1437 C1434 1.387 . S
C1438 C1439 1.387 . S
C1438 H1442 0.950 . S
C1438 C1447 1.390 . S
C1439 C1438 1.387 . S
C1439 C1441 1.387 . S
H1440 C1447 0.950 . S
C1441 C1439 1.387 . S
C1441 C1443 1.390 . S
C1441 H1445 0.950 . S
H1442 C1438 0.950 . S
C1443 C1441 1.390 . S
C1443 C1444 1.387 . S
C1443 H1446 0.950 . S
C1444 C1443 1.387 . S
C1444 C1447 1.387 . S
H1445 C1441 0.950 . S
H1446 C1443 0.950 . S
C1447 C1438 1.390 . S
C1447 H1440 0.950 . S
C1447 C1444 1.387 . S
C1448 C1449 1.387 . S
C1448 H1452 0.950 . S
C1448 C1457 1.390 . S
C1449 C1448 1.387 . S
C1449 C1451 1.387 . S
H1450 C1457 0.950 . S
C1451 C1449 1.387 . S
C1451 C1453 1.390 . S
C1451 H1455 0.950 . S
H1452 C1448 0.950 . S
C1453 C1451 1.390 . S
C1453 C1454 1.387 . S
C1453 H1456 0.950 . S
C1454 C1453 1.387 . S
C1454 C1457 1.387 . S
H1455 C1451 0.950 . S
H1456 C1453 0.950 . S
C1457 C1448 1.390 . S
C1457 H1450 0.950 . S
C1457 C1454 1.387 . S
C1458 C1459 1.387 . S
C1458 H1462 0.950 . S
C1458 C1467 1.390 . S
C1459 C1458 1.387 . S
C1459 C1461 1.387 . S
H1460 C1467 0.950 . S
C1461 C1459 1.387 . S
C1461 C1463 1.390 . S
C1461 H1465 0.950 . S
H1462 C1458 0.950 . S
C1463 C1461 1.390 . S
C1463 C1464 1.387 . S
C1463 H1466 0.950 . S
C1464 C1463 1.387 . S
C1464 C1467 1.387 . S
H1465 C1461 0.950 . S
H1466 C1463 0.950 . S
C1467 C1458 1.390 . S
C1467 H1460 0.950 . S
C1467 C1464 1.387 . S
C1468 C1469 1.387 . S
C1468 H1472 0.950 . S
C1468 C1477 1.390 . S
C1469 C1468 1.387 . S
C1469 C1471 1.387 . S
H1470 C1477 0.950 . S
C1471 C1469 1.387 . S
C1471 C1473 1.390 . S
C1471 H1475 0.950 . S
H1472 C1468 0.950 . S
C1473 C1471 1.390 . S
C1473 C1474 1.387 . S
C1473 H1476 0.950 . S
C1474 C1473 1.387 . S
C1474 C1477 1.387 . S
H1475 C1471 0.950 . S
H1476 C1473 0.950 . S
C1477 C1468 1.390 . S
C1477 H1470 0.950 . S
C1477 C1474 1.387 . S
C1478 C1479 1.387 . S
C1478 H1482 0.950 . S
C1478 C1487 1.390 . S
C1479 C1478 1.387 . S
C1479 C1481 1.387 . S
H1480 C1487 0.950 . S
C1481 C1479 1.387 . S
C1481 C1483 1.390 . S
C1481 H1485 0.950 . S
H1482 C1478 0.950 . S
C1483 C1481 1.390 . S
C1483 C1484 1.387 . S
C1483 H1486 0.950 . S
C1484 C1483 1.387 . S
C1484 C1487 1.387 . S
H1485 C1481 0.950 . S
H1486 C1483 0.950 . S
C1487 C1478 1.390 . S
C1487 H1480 0.950 . S
C1487 C1484 1.387 . S
C1488 C1489 1.387 . S
C1488 H1492 0.950 . S
C1488 C1497 1.390 . S
C1489 C1488 1.387 . S
C1489 C1491 1.387 . S
H1490 C1497 0.950 . S
C1491 C1489 1.387 . S
C1491 C1493 1.390 . S
C1491 H1495 0.950 . S
H1492 C1488 0.950 . S
C1493 C1491 1.390 . S
C1493 C1494 1.387 . S
C1493 H1496 0.950 . S
C1494 C1493 1.387 . S
C1494 C1497 1.387 . S
H1495 C1491 0.950 . S
H1496 C1493 0.950 . S
C1497 C1488 1.390 . S
C1497 H1490 0.950 . S
C1497 C1494 1.387 . S
C1498 C1499 1.387 . S
C1498 H1502 0.950 . S
C1498 C1507 1.390 . S
C1499 C1498 1.387 . S
C1499 C1501 1.387 . S
H1500 C1507 0.950 . S
C1501 C1499 1.387 . S
C1501 C1503 1.390 . S
C1501 H1505 0.950 . S
H1502 C1498 0.950 . S
C1503 C1501 1.390 . S
C1503 C1504 1.387 . S
C1503 H1506 0.950 . S
C1504 C1503 1.387 . S
C1504 C1507 1.387 . S
H1505 C1501 0.950 . S
H1506 C1503 0.950 . S
C1507 C1498 1.390 . S
C1507 H1500 0.950 . S
C1507 C1504 1.387 . S
C1508 C1509 1.387 . S
C1508 H1512 0.950 . S
C1508 C1517 1.390 . S
C1509 C1508 1.387 . S
C1509 C1511 1.387 . S
H1510 C1517 0.950 . S
C1511 C1509 1.387 . S
C1511 C1513 1.390 . S
C1511 H1515 0.950 . S
H1512 C1508 0.950 . S
C1513 C1511 1.390 . S
C1513 C1514 1.387 . S
C1513 H1516 0.950 . S
C1514 C1513 1.387 . S
C1514 C1517 1.387 . S
H1515 C1511 0.950 . S
H1516 C1513 0.950 . S
C1517 C1508 1.390 . S
C1517 H1510 0.950 . S
C1517 C1514 1.387 . S
C1518 C1519 1.387 . S
C1518 H1522 0.950 . S
C1518 C1527 1.390 . S
C1519 C1518 1.387 . S
C1519 C1521 1.387 . S
H1520 C1527 0.950 . S
C1521 C1519 1.387 . S
C1521 C1523 1.390 . S
C1521 H1525 0.950 . S
H1522 C1518 0.950 . S
C1523 C1521 1.390 . S
C1523 C1524 1.387 . S
C1523 H1526 0.950 . S
C1524 C1523 1.387 . S
C1524 C1527 1.387 . S
H1525 C1521 0.950 . S
H1526 C1523 0.950 . S
C1527 C1518 1.390 . S
C1527 H1520 0.950 . S
C1527 C1524 1.387 . S
C1528 C1529 1.387 . S
C1528 H1532 0.950 . S
C1528 C1537 1.390 . S
C1529 C1528 1.387 . S
C1529 C1531 1.387 . S
H1530 C1537 0.950 . S
C1531 C1529 1.387 . S
C1531 C1533 1.390 . S
C1531 H1535 0.950 . S
H1532 C1528 0.950 . S
C1533 C1531 1.390 . S
C1533 C1534 1.387 . S
C1533 H1536 0.950 . S
C1534 C1533 1.387 . S
C1534 C1537 1.387 . S
H1535 C1531 0.950 . S
H1536 C1533 0.950 . S
C1537 C1528 1.390 . S
C1537 H1530 0.950 . S
C1537 C1534 1.387 . S
C1538 C1539 1.387 . S
C1538 H1542 0.950 . S
C1538 C1547 1.390 . S
C1539 C1538 1.387 . S
C1539 C1541 1.387 . S
H1540 C1547 0.950 . S
C1541 C1539 1.387 . S
C1541 C1543 1.390 . S
C1541 H1545 0.950 . S
H1542 C1538 0.950 . S
C1543 C1541 1.390 . S
C1543 C1544 1.387 . S
C1543 H1546 0.950 . S
C1544 C1543 1.387 . S
C1544 C1547 1.387 . S
H1545 C1541 0.950 . S
H1546 C1543 0.950 . S
C1547 C1538 1.390 . S
C1547 H1540 0.950 . S
C1547 C1544 1.387 . S
C1548 C1549 1.387 . S
C1548 H1552 0.950 . S
C1548 C1557 1.390 . S
C1549 C1548 1.387 . S
C1549 C1551 1.387 . S
H1550 C1557 0.950 . S
C1551 C1549 1.387 . S
C1551 C1553 1.390 . S
C1551 H1555 0.950 . S
H1552 C1548 0.950 . S
C1553 C1551 1.390 . S
C1553 C1554 1.387 . S
C1553 H1556 0.950 . S
C1554 C1553 1.387 . S
C1554 C1557 1.387 . S
H1555 C1551 0.950 . S
H1556 C1553 0.950 . S
C1557 C1548 1.390 . S
C1557 H1550 0.950 . S
C1557 C1554 1.387 . S
C1558 C1559 1.387 . S
C1558 H1562 0.950 . S
C1558 C1567 1.390 . S
C1559 C1558 1.387 . S
C1559 C1561 1.387 . S
H1560 C1567 0.950 . S
C1561 C1559 1.387 . S
C1561 C1563 1.390 . S
C1561 H1565 0.950 . S
H1562 C1558 0.950 . S
C1563 C1561 1.390 . S
C1563 C1564 1.387 . S
C1563 H1566 0.950 . S
C1564 C1563 1.387 . S
C1564 C1567 1.387 . S
H1565 C1561 0.950 . S
H1566 C1563 0.950 . S
C1567 C1558 1.390 . S
C1567 H1560 0.950 . S
C1567 C1564 1.387 . S
C1568 C1569 1.387 . S
C1568 H1572 0.950 . S
C1568 C1577 1.390 . S
C1569 C1568 1.387 . S
C1569 C1571 1.387 . S
H1570 C1577 0.950 . S
C1571 C1569 1.387 . S
C1571 C1573 1.390 . S
C1571 H1575 0.950 . S
H1572 C1568 0.950 . S
C1573 C1571 1.390 . S
C1573 C1574 1.387 . S
C1573 H1576 0.950 . S
C1574 C1573 1.387 . S
C1574 C1577 1.387 . S
H1575 C1571 0.950 . S
H1576 C1573 0.950 . S
C1577 C1568 1.390 . S
C1577 H1570 0.950 . S
C1577 C1574 1.387 . S
C1578 C1579 1.387 . S
C1578 H1582 0.950 . S
C1578 C1587 1.390 . S
C1579 C1578 1.387 . S
C1579 C1581 1.387 . S
H1580 C1587 0.950 . S
C1581 C1579 1.387 . S
C1581 C1583 1.390 . S
C1581 H1585 0.950 . S
H1582 C1578 0.950 . S
C1583 C1581 1.390 . S
C1583 C1584 1.387 . S
C1583 H1586 0.950 . S
C1584 C1583 1.387 . S
C1584 C1587 1.387 . S
H1585 C1581 0.950 . S
H1586 C1583 0.950 . S
C1587 C1578 1.390 . S
C1587 H1580 0.950 . S
C1587 C1584 1.387 . S
C1588 C1589 1.387 . S
C1588 H1592 0.950 . S
C1588 C1597 1.390 . S
C1589 C1588 1.387 . S
C1589 C1591 1.387 . S
H1590 C1597 0.950 . S
C1591 C1589 1.387 . S
C1591 C1593 1.390 . S
C1591 H1595 0.950 . S
H1592 C1588 0.950 . S
C1593 C1591 1.390 . S
C1593 C1594 1.387 . S
C1593 H1596 0.950 . S
C1594 C1593 1.387 . S
C1594 C1597 1.387 . S
H1595 C1591 0.950 . S
H1596 C1593 0.950 . S
C1597 C1588 1.390 . S
C1597 H1590 0.950 . S
C1597 C1594 1.387 . S
C1598 C1599 1.387 . S
C1598 H1602 0.950 . S
C1598 C1607 1.390 . S
C1599 C1598 1.387 . S
C1599 C1601 1.387 . S
H1600 C1607 0.950 . S
C1601 C1599 1.387 . S
C1601 C1603 1.390 . S
C1601 H1605 0.950 . S
H1602 C1598 0.950 . S
C1603 C1601 1.390 . S
C1603 C1604 1.387 . S
C1603 H1606 0.950 . S
C1604 C1603 1.387 . S
C1604 C1607 1.387 . S
H1605 C1601 0.950 . S
H1606 C1603 0.950 . S
C1607 C1598 1.390 . S
C1607 H1600 0.950 . S
C1607 C1604 1.387 . S
C1608 C1609 1.387 . S
C1608 H1612 0.950 . S
C1608 C1617 1.390 . S
C1609 C1608 1.387 . S
C1609 C1611 1.387 . S
H1610 C1617 0.950 . S
C1611 C1609 1.387 . S
C1611 C1613 1.390 . S
C1611 H1615 0.950 . S
H1612 C1608 0.950 . S
C1613 C1611 1.390 . S
C1613 C1614 1.387 . S
C1613 H1616 0.950 . S
C1614 C1613 1.387 . S
C1614 C1617 1.387 . S
H1615 C1611 0.950 . S
H1616 C1613 0.950 . S
C1617 C1608 1.390 . S
C1617 H1610 0.950 . S
C1617 C1614 1.387 . S
C1618 C1619 1.387 . S
C1618 H1622 0.950 . S
C1618 C1627 1.390 . S
C1619 C1618 1.387 . S
C1619 C1621 1.387 . S
H1620 C1627 0.950 . S
C1621 C1619 1.387 . S
C1621 C1623 1.390 . S
C1621 H1625 0.950 . S
H1622 C1618 0.950 . S
C1623 C1621 1.390 . S
C1623 C1624 1.387 . S
C1623 H1626 0.950 . S
C1624 C1623 1.387 . S
C1624 C1627 1.387 . S
H1625 C1621 0.950 . S
H1626 C1623 0.950 . S
C1627 C1618 1.390 . S
C1627 H1620 0.950 . S
C1627 C1624 1.387 . S
C1628 C1629 1.387 . S
C1628 H1632 0.950 . S
C1628 C1637 1.390 . S
C1629 C1628 1.387 . S
C1629 C1631 1.387 . S
H1630 C1637 0.950 . S
C1631 C1629 1.387 . S
C1631 C1633 1.390 . S
C1631 H1635 0.950 . S
H1632 C1628 0.950 . S
C1633 C1631 1.390 . S
C1633 C1634 1.387 . S
C1633 H1636 0.950 . S
C1634 C1633 1.387 . S
C1634 C1637 1.387 . S
H1635 C1631 0.950 . S
H1636 C1633 0.950 . S
C1637 C1628 1.390 . S
C1637 H1630 0.950 . S
C1637 C1634 1.387 . S
C1638 C1639 1.387 . S
C1638 H1642 0.950 . S
C1638 C1647 1.390 . S
C1639 C1638 1.387 . S
C1639 C1641 1.387 . S
H1640 C1647 0.950 . S
C1641 C1639 1.387 . S
C1641 C1643 1.390 . S
C1641 H1645 0.950 . S
H1642 C1638 0.950 . S
C1643 C1641 1.390 . S
C1643 C1644 1.387 . S
C1643 H1646 0.950 . S
C1644 C1643 1.387 . S
C1644 C1647 1.387 . S
H1645 C1641 0.950 . S
H1646 C1643 0.950 . S
C1647 C1638 1.390 . S
C1647 H1640 0.950 . S
C1647 C1644 1.387 . S
C1648 C1649 1.387 . S
C1648 H1652 0.950 . S
C1648 C1657 1.390 . S
C1649 C1648 1.387 . S
C1649 C1651 1.387 . S
H1650 C1657 0.950 . S
C1651 C1649 1.387 . S
C1651 C1653 1.390 . S
C1651 H1655 0.950 . S
H1652 C1648 0.950 . S
C1653 C1651 1.390 . S
C1653 C1654 1.387 . S
C1653 H1656 0.950 . S
C1654 C1653 1.387 . S
C1654 C1657 1.387 . S
H1655 C1651 0.950 . S
H1656 C1653 0.950 . S
C1657 C1648 1.390 . S
C1657 H1650 0.950 . S
C1657 C1654 1.387 . S
C1658 C1659 1.387 . S
C1658 H1662 0.950 . S
C1658 C1667 1.390 . S
C1659 C1658 1.387 . S
C1659 C1661 1.387 . S
H1660 C1667 0.950 . S
C1661 C1659 1.387 . S
C1661 C1663 1.390 . S
C1661 H1665 0.950 . S
H1662 C1658 0.950 . S
C1663 C1661 1.390 . S
C1663 C1664 1.387 . S
C1663 H1666 0.950 . S
C1664 C1663 1.387 . S
C1664 C1667 1.387 . S
H1665 C1661 0.950 . S
H1666 C1663 0.950 . S
C1667 C1658 1.390 . S
C1667 H1660 0.950 . S
C1667 C1664 1.387 . S
C1668 C1669 1.387 . S
C1668 H1672 0.950 . S
C1668 C1677 1.390 . S
C1669 C1668 1.387 . S
C1669 C1671 1.387 . S
H1670 C1677 0.950 . S
C1671 C1669 1.387 . S
C1671 C1673 1.390 . S
C1671 H1675 0.950 . S
H1672 C1668 0.950 . S
C1673 C1671 1.390 . S
C1673 C1674 1.387 . S
C1673 H1676 0.950 . S
C1674 C1673 1.387 . S
C1674 C1677 1.387 . S
H1675 C1671 0.950 . S
H1676 C1673 0.950 . S
C1677 C1668 1.390 . S
C1677 H1670 0.950 . S
C1677 C1674 1.387 . S
C1678 C1679 1.387 . S
C1678 H1682 0.950 . S
C1678 C1687 1.390 . S
C1679 C1678 1.387 . S
C1679 C1681 1.387 . S
H1680 C1687 0.950 . S
C1681 C1679 1.387 . S
C1681 C1683 1.390 . S
C1681 H1685 0.950 . S
H1682 C1678 0.950 . S
C1683 C1681 1.390 . S
C1683 C1684 1.387 . S
C1683 H1686 0.950 . S
C1684 C1683 1.387 . S
C1684 C1687 1.387 . S
H1685 C1681 0.950 . S
H1686 C1683 0.950 . S
C1687 C1678 1.390 . S
C1687 H1680 0.950 . S
C1687 C1684 1.387 . S
C1688 C1689 1.387 . S
C1688 H1692 0.950 . S
C1688 C1697 1.390 . S
C1689 C1688 1.387 . S
C1689 C1691 1.387 . S
H1690 C1697 0.950 . S
C1691 C1689 1.387 . S
C1691 C1693 1.390 . S
C1691 H1695 0.950 . S
H1692 C1688 0.950 . S
C1693 C1691 1.390 . S
C1693 C1694 1.387 . S
C1693 H1696 0.950 . S
C1694 C1693 1.387 . S
C1694 C1697 1.387 . S
H1695 C1691 0.950 . S
H1696 C1693 0.950 . S
C1697 C1688 1.390 . S
C1697 H1690 0.950 . S
C1697 C1694 1.387 . S
C1698 C1699 1.387 . S
C1698 H1702 0.950 . S
C1698 C1707 1.390 . S
C1699 C1698 1.387 . S
C1699 C1701 1.387 . S
H1700 C1707 0.950 . S
C1701 C1699 1.387 . S
C1701 C1703 1.390 . S
C1701 H1705 0.950 . S
H1702 C1698 0.950 . S
C1703 C1701 1.390 . S
C1703 C1704 1.387 . S
C1703 H1706 0.950 . S
C1704 C1703 1.387 . S
C1704 C1707 1.387 . S
H1705 C1701 0.950 . S
H1706 C1703 0.950 . S
C1707 C1698 1.390 . S
C1707 H1700 0.950 . S
C1707 C1704 1.387 . S
C1708 C1709 1.387 . S
C1708 H1712 0.950 . S
C1708 C1717 1.390 . S
C1709 C1708 1.387 . S
C1709 C1711 1.387 . S
H1710 C1717 0.950 . S
C1711 C1709 1.387 . S
C1711 C1713 1.390 . S
C1711 H1715 0.950 . S
H1712 C1708 0.950 . S
C1713 C1711 1.390 . S
C1713 C1714 1.387 . S
C1713 H1716 0.950 . S
C1714 C1713 1.387 . S
C1714 C1717 1.387 . S
H1715 C1711 0.950 . S
H1716 C1713 0.950 . S
C1717 C1708 1.390 . S
C1717 H1710 0.950 . S
C1717 C1714 1.387 . S
C1718 C1719 1.387 . S
C1718 H1722 0.950 . S
C1718 C1727 1.390 . S
C1719 C1718 1.387 . S
C1719 C1721 1.387 . S
H1720 C1727 0.950 . S
C1721 C1719 1.387 . S
C1721 C1723 1.390 . S
C1721 H1725 0.950 . S
H1722 C1718 0.950 . S
C1723 C1721 1.390 . S
C1723 C1724 1.387 . S
C1723 H1726 0.950 . S
C1724 C1723 1.387 . S
C1724 C1727 1.387 . S
H1725 C1721 0.950 . S
H1726 C1723 0.950 . S
C1727 C1718 1.390 . S
C1727 H1720 0.950 . S
C1727 C1724 1.387 . S
C1728 C1729 1.387 . S
C1728 H1732 0.950 . S
C1728 C1737 1.390 . S
C1729 C1728 1.387 . S
C1729 C1731 1.387 . S
H1730 C1737 0.950 . S
C1731 C1729 1.387 . S
C1731 C1733 1.390 . S
C1731 H1735 0.950 . S
H1732 C1728 0.950 . S
C1733 C1731 1.390 . S
C1733 C1734 1.387 . S
C1733 H1736 0.950 . S
C1734 C1733 1.387 . S
C1734 C1737 1.387 . S
H1735 C1731 0.950 . S
H1736 C1733 0.950 . S
C1737 C1728 1.390 . S
C1737 H1730 0.950 . S
C1737 C1734 1.387 . S
C1738 C1739 1.387 . S
C1738 H1742 0.950 . S
C1738 C1747 1.390 . S
C1739 C1738 1.387 . S
C1739 C1741 1.387 . S
H1740 C1747 0.950 . S
C1741 C1739 1.387 . S
C1741 C1743 1.390 . S
C1741 H1745 0.950 . S
H1742 C1738 0.950 . S
C1743 C1741 1.390 . S
C1743 C1744 1.387 . S
C1743 H1746 0.950 . S
C1744 C1743 1.387 . S
C1744 C1747 1.387 . S
H1745 C1741 0.950 . S
H1746 C1743 0.950 . S
C1747 C1738 1.390 . S
C1747 H1740 0.950 . S
C1747 C1744 1.387 . S
C1748 C1749 1.387 . S
C1748 H1752 0.950 . S
C1748 C1757 1.390 . S
C1749 C1748 1.387 . S
C1749 C1751 1.387 . S
H1750 C1757 0.950 . S
C1751 C1749 1.387 . S
C1751 C1753 1.390 . S
C1751 H1755 0.950 . S
H1752 C1748 0.950 . S
C1753 C1751 1.390 . S
C1753 C1754 1.387 . S
C1753 H1756 0.950 . S
C1754 C1753 1.387 . S
C1754 C1757 1.387 . S
H1755 C1751 0.950 . S
H1756 C1753 0.950 . S
C1757 C1748 1.390 . S
C1757 H1750 0.950 . S
C1757 C1754 1.387 . S
C1758 C1759 1.387 . S
C1758 H1762 0.950 . S
C1758 C1767 1.390 . S
C1759 C1758 1.387 . S
C1759 C1761 1.387 . S
H1760 C1767 0.950 . S
C1761 C1759 1.387 . S
C1761 C1763 1.390 . S
C1761 H1765 0.950 . S
H1762 C1758 0.950 . S
C1763 C1761 1.390 . S
C1763 C1764 1.387 . S
C1763 H1766 0.950 . S
C1764 C1763 1.387 . S
C1764 C1767 1.387 . S
H1765 C1761 0.950 . S
H1766 C1763 0.950 . S
C1767 C1758 1.390 . S
C1767 H1760 0.950 . S
C1767 C1764 1.387 . S
C1768 C1769 1.387 . S
C1768 H1772 0.950 . S
C1768 C1777 1.390 . S
C1769 C1768 1.387 . S
C1769 C1771 1.387 . S
H1770 C1777 0.950 . S
C1771 C1769 1.387 . S
C1771 C1773 1.390 . S
C1771 H1775 0.950 . S
H1772 C1768 0.950 . S
C1773 C1771 1.390 . S
C1773 C1774 1.387 . S
C1773 H1776 0.950 . S
C1774 C1773 1.387 . S
C1774 C1777 1.387 . S
H1775 C1771 0.950 . S
H1776 C1773 0.950 . S
C1777 C1768 1.390 . S
C1777 H1770 0.950 . S
C1777 C1774 1.387 . S
C1778 C1779 1.387 . S
C1778 H1782 0.950 . S
C1778 C1787 1.390 . S
C1779 C1778 1.387 . S
C1779 C1781 1.387 . S
H1780 C1787 0.950 . S
C1781 C1779 1.387 . S
C1781 C1783 1.390 . S
C1781 H1785 0.950 . S
H1782 C1778 0.950 . S
C1783 C1781 1.390 . S
C1783 C1784 1.387 . S
C1783 H1786 0.950 . S
C1784 C1783 1.387 . S
C1784 C1787 1.387 . S
H1785 C1781 0.950 . S
H1786 C1783 0.950 . S
C1787 C1778 1.390 . S
C1787 H1780 0.950 . S
C1787 C1784 1.387 . S
C1788 C1789 1.387 . S
C1788 H1792 0.950 . S
C1788 C1797 1.390 . S
C1789 C1788 1.387 . S
C1789 C1791 1.387 . S
H1790 C1797 0.950 . S
C1791 C1789 1.387 . S
C1791 C1793 1.390 . S
C1791 H1795 0.950 . S
H1792 C1788 0.950 . S
C1793 C1791 1.390 . S
C1793 C1794 1.387 . S
C1793 H1796 0.950 . S
C1794 C1793 1.387 . S
C1794 C1797 1.387 . S
H1795 C1791 0.950 . S
H1796 C1793 0.950 . S
C1797 C1788 1.390 . S
C1797 H1790 0.950 . S
C1797 C1794 1.387 . S
C1798 C1799 1.387 . S
C1798 H1802 0.950 . S
C1798 C1807 1.390 . S
C1799 C1798 1.387 . S
C1799 C1801 1.387 . S
H1800 C1807 0.950 . S
C1801 C1799 1.387 . S
C1801 C1803 1.390 . S
C1801 H1805 0.950 . S
H1802 C1798 0.950 . S
C1803 C1801 1.390 . S
C1803 C1804 1.387 . S
C1803 H1806 0.950 . S
C1804 C1803 1.387 . S
C1804 C1807 1.387 . S
H1805 C1801 0.950 . S
H1806 C1803 0.950 . S
C1807 C1798 1.390 . S
C1807 H1800 0.950 . S
C1807 C1804 1.387 . S
C1808 C1809 1.387 . S
C1808 H1812 0.950 . S
C1808 C1817 1.390 . S
C1809 C1808 1.387 . S
C1809 C1811 1.387 . S
H1810 C1817 0.950 . S
C1811 C1809 1.387 . S
C1811 C1813 1.390 . S
C1811 H1815 0.950 . S
H1812 C1808 0.950 . S
C1813 C1811 1.390 . S
C1813 C1814 1.387 . S
C1813 H1816 0.950 . S
C1814 C1813 1.387 . S
C1814 C1817 1.387 . S
H1815 C1811 0.950 . S
H1816 C1813 0.950 . S
C1817 C1808 1.390 . S
C1817 H1810 0.950 . S
C1817 C1814 1.387 . S
C1818 C1819 1.387 . S
C1818 H1822 0.950 . S
C1818 C1827 1.390 . S
C1819 C1818 1.387 . S
C1819 C1821 1.387 . S
H1820 C1827 0.950 . S
C1821 C1819 1.387 . S
C1821 C1823 1.390 . S
C1821 H1825 0.950 . S
H1822 C1818 0.950 . S
C1823 C1821 1.390 . S
C1823 C1824 1.387 . S
C1823 H1826 0.950 . S
C1824 C1823 1.387 . S
C1824 C1827 1.387 . S
H1825 C1821 0.950 . S
H1826 C1823 0.950 . S
C1827 C1818 1.390 . S
C1827 H1820 0.950 . S
C1827 C1824 1.387 . S
C1828 C1829 1.387 . S
C1828 H1832 0.950 . S
C1828 C1837 1.390 . S
C1829 C1828 1.387 . S
C1829 C1831 1.387 . S
H1830 C1837 0.950 . S
C1831 C1829 1.387 . S
C1831 C1833 1.390 . S
C1831 H1835 0.950 . S
H1832 C1828 0.950 . S
C1833 C1831 1.390 . S
C1833 C1834 1.387 . S
C1833 H1836 0.950 . S
C1834 C1833 1.387 . S
C1834 C1837 1.387 . S
H1835 C1831 0.950 . S
H1836 C1833 0.950 . S
C1837 C1828 1.390 . S
C1837 H1830 0.950 . S
C1837 C1834 1.387 . S
C1838 C1839 1.387 . S
C1838 H1842 0.950 . S
C1838 C1847 1.390 . S
C1839 C1838 1.387 . S
C1839 C1841 1.387 . S
H1840 C1847 0.950 . S
C1841 C1839 1.387 . S
C1841 C1843 1.390 . S
C1841 H1845 0.950 . S
H1842 C1838 0.950 . S
C1843 C1841 1.390 . S
C1843 C1844 1.387 . S
C1843 H1846 0.950 . S
C1844 C1843 1.387 . S
C1844 C1847 1.387 . S
H1845 C1841 0.950 . S
H1846 C1843 0.950 . S
C1847 C1838 1.390 . S
C1847 H1840 0.950 . S
C1847 C1844 1.387 . S
C1848 C1849 1.387 . S
C1848 H1852 0.950 . S
C1848 C1857 1.390 . S
C1849 C1848 1.387 . S
C1849 C1851 1.387 . S
H1850 C1857 0.950 . S
C1851 C1849 1.387 . S
C1851 C1853 1.390 . S
C1851 H1855 0.950 . S
H1852 C1848 0.950 . S
C1853 C1851 1.390 . S
C1853 C1854 1.387 . S
C1853 H1856 0.950 . S
C1854 C1853 1.387 . S
C1854 C1857 1.387 . S
H1855 C1851 0.950 . S
H1856 C1853 0.950 . S
C1857 C1848 1.390 . S
C1857 H1850 0.950 . S
C1857 C1854 1.387 . S
C1858 C1859 1.387 . S
C1858 H1862 0.950 . S
C1858 C1867 1.390 . S
C1859 C1858 1.387 . S
C1859 C1861 1.387 . S
H1860 C1867 0.950 . S
C1861 C1859 1.387 . S
C1861 C1863 1.390 . S
C1861 H1865 0.950 . S
H1862 C1858 0.950 . S
C1863 C1861 1.390 . S
C1863 C1864 1.387 . S
C1863 H1866 0.950 . S
C1864 C1863 1.387 . S
C1864 C1867 1.387 . S
H1865 C1861 0.950 . S
H1866 C1863 0.950 . S
C1867 C1858 1.390 . S
C1867 H1860 0.950 . S
C1867 C1864 1.387 . S
C1868 C1869 1.387 . S
C1868 H1872 0.950 . S
C1868 C1877 1.390 . S
C1869 C1868 1.387 . S
C1869 C1871 1.387 . S
H1870 C1877 0.950 . S
C1871 C1869 1.387 . S
C1871 C1873 1.390 . S
C1871 H1875 0.950 . S
H1872 C1868 0.950 . S
C1873 C1871 1.390 . S
C1873 C1874 1.387 . S
C1873 H1876 0.950 . S
C1874 C1873 1.387 . S
C1874 C1877 1.387 . S
H1875 C1871 0.950 . S
H1876 C1873 0.950 . S
C1877 C1868 1.390 . S
C1877 H1870 0.950 . S
C1877 C1874 1.387 . S
C1878 C1879 1.387 . S
C1878 H1882 0.950 . S
C1878 C1887 1.390 . S
C1879 C1878 1.387 . S
C1879 C1881 1.387 . S
H1880 C1887 0.950 . S
C1881 C1879 1.387 . S
C1881 C1883 1.390 . S
C1881 H1885 0.950 . S
H1882 C1878 0.950 . S
C1883 C1881 1.390 . S
C1883 C1884 1.387 . S
C1883 H1886 0.950 . S
C1884 C1883 1.387 . S
C1884 C1887 1.387 . S
H1885 C1881 0.950 . S
H1886 C1883 0.950 . S
C1887 C1878 1.390 . S
C1887 H1880 0.950 . S
C1887 C1884 1.387 . S
C1888 C1889 1.387 . S
C1888 H1892 0.950 . S
C1888 C1897 1.390 . S
C1889 C1888 1.387 . S
C1889 C1891 1.387 . S
H1890 C1897 0.950 . S
C1891 C1889 1.387 . S
C1891 C1893 1.390 . S
C1891 H1895 0.950 . S
H1892 C1888 0.950 . S
C1893 C1891 1.390 . S
C1893 C1894 1.387 . S
C1893 H1896 0.950 . S
C1894 C1893 1.387 . S
C1894 C1897 1.387 . S
H1895 C1891 0.950 . S
H1896 C1893 0.950 . S
C1897 C1888 1.390 . S
C1897 H1890 0.950 . S
C1897 C1894 1.387 . S
C1898 C1899 1.387 . S
C1898 H1902 0.950 . S
C1898 C1907 1.390 . S
C1899 C1898 1.387 . S
C1899 C1901 1.387 . S
H1900 C1907 0.950 . S
C1901 C1899 1.387 . S
C1901 C1903 1.390 . S
C1901 H1905 0.950 . S
H1902 C1898 0.950 . S
C1903 C1901 1.390 . S
C1903 C1904 1.387 . S
C1903 H1906 0.950 . S
C1904 C1903 1.387 . S
C1904 C1907 1.387 . S
H1905 C1901 0.950 . S
H1906 C1903 0.950 . S
C1907 C1898 1.390 . S
C1907 H1900 0.950 . S
C1907 C1904 1.387 . S
C1908 C1909 1.387 . S
C1908 H1912 0.950 . S
C1908 C1917 1.390 . S
C1909 C1908 1.387 . S
C1909 C1911 1.387 . S
H1910 C1917 0.950 . S
C1911 C1909 1.387 . S
C1911 C1913 1.390 . S
C1911 H1915 0.950 . S
H1912 C1908 0.950 . S
C1913 C1911 1.390 . S
C1913 C1914 1.387 . S
C1913 H1916 0.950 . S
C1914 C1913 1.387 . S
C1914 C1917 1.387 . S
H1915 C1911 0.950 . S
H1916 C1913 0.950 . S
C1917 C1908 1.390 . S
C1917 H1910 0.950 . S
C1917 C1914 1.387 . S
C1918 C1919 1.387 . S
C1918 H1922 0.950 . S
C1918 C1927 1.390 . S
C1919 C1918 1.387 . S
C1919 C1921 1.387 . S
H1920 C1927 0.950 . S
C1921 C1919 1.387 . S
C1921 C1923 1.390 . S
C1921 H1925 0.950 . S
H1922 C1918 0.950 . S
C1923 C1921 1.390 . S
C1923 C1924 1.387 . S
C1923 H1926 0.950 . S
C1924 C1923 1.387 . S
C1924 C1927 1.387 . S
H1925 C1921 0.950 . S
H1926 C1923 0.950 . S
C1927 C1918 1.390 . S
C1927 H1920 0.950 . S
C1927 C1924 1.387 . S
C1928 C1929 1.387 . S
C1928 H1932 0.950 . S
C1928 C1937 1.390 . S
C1929 C1928 1.387 . S
C1929 C1931 1.387 . S
H1930 C1937 0.950 . S
C1931 C1929 1.387 . S
C1931 C1933 1.390 . S
C1931 H1935 0.950 . S
H1932 C1928 0.950 . S
C1933 C1931 1.390 . S
C1933 C1934 1.387 . S
C1933 H1936 0.950 . S
C1934 C1933 1.387 . S
C1934 C1937 1.387 . S
H1935 C1931 0.950 . S
H1936 C1933 0.950 . S
C1937 C1928 1.390 . S
C1937 H1930 0.950 . S
C1937 C1934 1.387 . S
C1938 C1939 1.387 . S
C1938 H1942 0.950 . S
C1938 C1947 1.390 . S
C1939 C1938 1.387 . S
C1939 C1941 1.387 . S
H1940 C1947 0.950 . S
C1941 C1939 1.387 . S
C1941 C1943 1.390 . S
C1941 H1945 0.950 . S
H1942 C1938 0.950 . S
C1943 C1941 1.390 . S
C1943 C1944 1.387 . S
C1943 H1946 0.950 . S
C1944 C1943 1.387 . S
C1944 C1947 1.387 . S
H1945 C1941 0.950 . S
H1946 C1943 0.950 . S
C1947 C1938 1.390 . S
C1947 H1940 0.950 . S
C1947 C1944 1.387 . S
C1948 C1949 1.387 . S
C1948 H1952 0.950 . S
C1948 C1957 1.390 . S
C1949 C1948 1.387 . S
C1949 C1951 1.387 . S
H1950 C1957 0.950 . S
C1951 C1949 1.387 . S
C1951 C1953 1.390 . S
C1951 H1955 0.950 . S
H1952 C1948 0.950 . S
C1953 C1951 1.390 . S
C1953 C1954 1.387 . S
C1953 H1956 0.950 . S
C1954 C1953 1.387 . S
C1954 C1957 1.387 . S
H1955 C1951 0.950 . S
H1956 C1953 0.950 . S
C1957 C1948 1.390 . S
C1957 H1950 0.950 . S
C1957 C1954 1.387 . S
C1958 C1959 1.387 . S
C1958 H1962 0.950 . S
C1958 C1967 1.390 . S
C1959 C1958 1.387 . S
C1959 C1961 1.387 . S
H1960 C1967 0.950 . S
C1961 C1959 1.387 . S
C1961 C1963 1.390 . S
C1961 H1965 0.950 . S
H1962 C1958 0.950 . S
C1963 C1961 1.390 . S
C1963 C1964 1.387 . S
C1963 H1966 0.950 . S
C1964 C1963 1.387 . S
C1964 C1967 1.387 . S
H1965 C1961 0.950 . S
H1966 C1963 0.950 . S
C1967 C1958 1.390 . S
C1967 H1960 0.950 . S
C1967 C1964 1.387 . S
C1968 C1969 1.387 . S
C1968 H1972 0.950 . S
C1968 C1977 1.390 . S
C1969 C1968 1.387 . S
C1969 C1971 1.387 . S
H1970 C1977 0.950 . S
C1971 C1969 1.387 . S
C1971 C1973 1.390 . S
C1971 H1975 0.950 . S
H1972 C1968 0.950 . S
C1973 C1971 1.390 . S
C1973 C1974 1.387 . S
C1973 H1976 0.950 . S
C1974 C1973 1.387 . S
C1974 C1977 1.387 . S
H1975 C1971 0.950 . S
H1976 C1973 0.950 . S
C1977 C1968 1.390 . S
C1977 H1970 0.950 . S
C1977 C1974 1.387 . S
C1978 C1979 1.387 . S
C1978 H1982 0.950 . S
C1978 C1987 1.390 . S
C1979 C1978 1.387 . S
C1979 C1981 1.387 . S
H1980 C1987 0.950 . S
C1981 C1979 1.387 . S
C1981 C1983 1.390 . S
C1981 H1985 0.950 . S
H1982 C1978 0.950 . S
C1983 C1981 1.390 . S
C1983 C1984 1.387 . S
C1983 H1986 0.950 . S
C1984 C1983 1.387 . S
C1984 C1987 1.387 . S
H1985 C1981 0.950 . S
H1986 C1983 0.950 . S
C1987 C1978 1.390 . S
C1987 H1980 0.950 . S
C1987 C1984 1.387 . S
C1988 C1989 1.387 . S
C1988 H1992 0.950 . S
C1988 C1997 1.390 . S
C1989 C1988 1.387 . S
C1989 C1991 1.387 . S
H1990 C1997 0.950 . S
C1991 C1989 1.387 . S
C1991 C1993 1.390 . S
C1991 H1995 0.950 . S
H1992 C1988 0.950 . S
C1993 C1991 1.390 . S
C1993 C1994 1.387 . S
C1993 H1996 0.950 . S
C1994 C1993 1.387 . S
C1994 C1997 1.387 . S
H1995 C1991 0.950 . S
H1996 C1993 0.950 . S
C1997 C1988 1.390 . S
C1997 H1990 0.950 . S
C1997 C1994 1.387 . S
C1998 C1999 1.387 . S
C1998 H2002 0.950 . S
C1998 C2007 1.390 . S
C1999 C1998 1.387 . S
C1999 C2001 1.387 . S
H2000 C2007 0.950 . S
C2001 C1999 1.387 . S
C2001 C2003 1.390 . S
C2001 H2005 0.950 . S
H2002 C1998 0.950 . S
C2003 C2001 1.390 . S
C2003 C2004 1.387 . S
C2003 H2006 0.950 . S
C2004 C2003 1.387 . S
C2004 C2007 1.387 . S
H2005 C2001 0.950 . S
H2006 C2003 0.950 . S
C2007 C1998 1.390 . S
C2007 H2000 0.950 . S
C2007 C2004 1.387 . S
C2008 C2009 1.387 . S
C2008 H2012 0.950 . S
C2008 C2017 1.390 . S
C2009 C2008 1.387 . S
C2009 C2011 1.387 . S
H2010 C2017 0.950 . S
C2011 C2009 1.387 . S
C2011 C2013 1.390 . S
C2011 H2015 0.950 . S
H2012 C2008 0.950 . S
C2013 C2011 1.390 . S
C2013 C2014 1.387 . S
C2013 H2016 0.950 . S
C2014 C2013 1.387 . S
C2014 C2017 1.387 . S
H2015 C2011 0.950 . S
H2016 C2013 0.950 . S
C2017 C2008 1.390 . S
C2017 H2010 0.950 . S
C2017 C2014 1.387 . S
C2018 C2019 1.387 . S
C2018 H2022 0.950 . S
C2018 C2027 1.390 . S
C2019 C2018 1.387 . S
C2019 C2021 1.387 . S
H2020 C2027 0.950 . S
C2021 C2019 1.387 . S
C2021 C2023 1.390 . S
C2021 H2025 0.950 . S
H2022 C2018 0.950 . S
C2023 C2021 1.390 . S
C2023 C2024 1.387 . S
C2023 H2026 0.950 . S
C2024 C2023 1.387 . S
C2024 C2027 1.387 . S
H2025 C2021 0.950 . S
H2026 C2023 0.950 . S
C2027 C2018 1.390 . S
C2027 H2020 0.950 . S
C2027 C2024 1.387 . S
C2028 C2029 1.387 . S
C2028 H2032 0.950 . S
C2028 C2037 1.390 . S
C2029 C2028 1.387 . S
C2029 C2031 1.387 . S
H2030 C2037 0.950 . S
C2031 C2029 1.387 . S
C2031 C2033 1.390 . S
C2031 H2035 0.950 . S
H2032 C2028 0.950 . S
C2033 C2031 1.390 . S
C2033 C2034 1.387 . S
C2033 H2036 0.950 . S
C2034 C2033 1.387 . S
C2034 C2037 1.387 . S
H2035 C2031 0.950 . S
H2036 C2033 0.950 . S
C2037 C2028 1.390 . S
C2037 H2030 0.950 . S
C2037 C2034 1.387 . S
C2038 C2039 1.387 . S
C2038 H2042 0.950 . S
C2038 C2047 1.390 . S
C2039 C2038 1.387 . S
C2039 C2041 1.387 . S
H2040 C2047 0.950 . S
C2041 C2039 1.387 . S
C2041 C2043 1.390 . S
C2041 H2045 0.950 . S
H2042 C2038 0.950 . S
C2043 C2041 1.390 . S
C2043 C2044 1.387 . S
C2043 H2046 0.950 . S
C2044 C2043 1.387 . S
C2044 C2047 1.387 . S
H2045 C2041 0.950 . S
H2046 C2043 0.950 . S
C2047 C2038 1.390 . S
C2047 H2040 0.950 . S
C2047 C2044 1.387 . S
C2048 C2049 1.387 . S
C2048 H2052 0.950 . S
C2048 C2057 1.390 . S
C2049 C2048 1.387 . S
C2049 C2051 1.387 . S
H2050 C2057 0.950 . S
C2051 C2049 1.387 . S
C2051 C2053 1.390 . S
C2051 H2055 0.950 . S
H2052 C2048 0.950 . S
C2053 C2051 1.390 . S
C2053 C2054 1.387 . S
C2053 H2056 0.950 . S
C2054 C2053 1.387 . S
C2054 C2057 1.387 . S
H2055 C2051 0.950 . S
H2056 C2053 0.950 . S
C2057 C2048 1.390 . S
C2057 H2050 0.950 . S
C2057 C2054 1.387 . S
C2058 C2059 1.387 . S
C2058 H2062 0.950 . S
C2058 C2067 1.390 . S
C2059 C2058 1.387 . S
C2059 C2061 1.387 . S
H2060 C2067 0.950 . S
C2061 C2059 1.387 . S
C2061 C2063 1.390 . S
C2061 H2065 0.950 . S
H2062 C2058 0.950 . S
C2063 C2061 1.390 . S
C2063 C2064 1.387 . S
C2063 H2066 0.950 . S
C2064 C2063 1.387 . S
C2064 C2067 1.387 . S
H2065 C2061 0.950 . S
H2066 C2063 0.950 . S
C2067 C2058 1.390 . S
C2067 H2060 0.950 . S
C2067 C2064 1.387 . S
C2068 C2069 1.387 . S
C2068 H2072 0.950 . S
C2068 C2077 1.390 . S
C2069 C2068 1.387 . S
C2069 C2071 1.387 . S
H2070 C2077 0.950 . S
C2071 C2069 1.387 . S
C2071 C2073 1.390 . S
C2071 H2075 0.950 . S
H2072 C2068 0.950 . S
C2073 C2071 1.390 . S
C2073 C2074 1.387 . S
C2073 H2076 0.950 . S
C2074 C2073 1.387 . S
C2074 C2077 1.387 . S
H2075 C2071 0.950 . S
H2076 C2073 0.950 . S
C2077 C2068 1.390 . S
C2077 H2070 0.950 . S
C2077 C2074 1.387 . S
C2078 C2079 1.387 . S
C2078 H2082 0.950 . S
C2078 C2087 1.390 . S
C2079 C2078 1.387 . S
C2079 C2081 1.387 . S
H2080 C2087 0.950 . S
C2081 C2079 1.387 . S
C2081 C2083 1.390 . S
C2081 H2085 0.950 . S
H2082 C2078 0.950 . S
C2083 C2081 1.390 . S
C2083 C2084 1.387 . S
C2083 H2086 0.950 . S
C2084 C2083 1.387 . S
C2084 C2087 1.387 . S
H2085 C2081 0.950 . S
H2086 C2083 0.950 . S
C2087 C2078 1.390 . S
C2087 H2080 0.950 . S
C2087 C2084 1.387 . S
C2088 C2089 1.387 . S
C2088 H2092 0.950 . S
C2088 C2097 1.390 . S
C2089 C2088 1.387 . S
C2089 C2091 1.387 . S
H2090 C2097 0.950 . S
C2091 C2089 1.387 . S
C2091 C2093 1.390 . S
C2091 H2095 0.950 . S
H2092 C2088 0.950 . S
C2093 C2091 1.390 . S
C2093 C2094 1.387 . S
C2093 H2096 0.950 . S
C2094 C2093 1.387 . S
C2094 C2097 1.387 . S
H2095 C2091 0.950 . S
H2096 C2093 0.950 . S
C2097 C2088 1.390 . S
C2097 H2090 0.950 . S
C2097 C2094 1.387 . S
C2098 C2099 1.387 . S
C2098 H2102 0.950 . S
C2098 C2107 1.390 . S
C2099 C2098 1.387 . S
C2099 C2101 1.387 . S
H2100 C2107 0.950 . S
C2101 C2099 1.387 . S
C2101 C2103 1.390 . S
C2101 H2105 0.950 . S
H2102 C2098 0.950 . S
C2103 C2101 1.390 . S
C2103 C2104 1.387 . S
C2103 H2106 0.950 . S
C2104 C2103 1.387 . S
C2104 C2107 1.387 . S
H2105 C2101 0.950 . S
H2106 C2103 0.950 . S
C2107 C2098 1.390 . S
C2107 H2100 0.950 . S
C2107 C2104 1.387 . S
C2108 C2109 1.387 . S
C2108 H2112 0.950 . S
C2108 C2117 1.390 . S
C2109 C2108 1.387 . S
C2109 C2111 1.387 . S
H2110 C2117 0.950 . S
C2111 C2109 1.387 . S
C2111 C2113 1.390 . S
C2111 H2115 0.950 . S
H2112 C2108 0.950 . S
C2113 C2111 1.390 . S
C2113 C2114 1.387 . S
C2113 H2116 0.950 . S
C2114 C2113 1.387 . S
C2114 C2117 1.387 . S
H2115 C2111 0.950 . S
H2116 C2113 0.950 . S
C2117 C2108 1.390 . S
C2117 H2110 0.950 . S
C2117 C2114 1.387 . S
C2118 C2119 1.387 . S
C2118 H2122 0.950 . S
C2118 C2127 1.390 . S
C2119 C2118 1.387 . S
C2119 C2121 1.387 . S
H2120 C2127 0.950 . S
C2121 C2119 1.387 . S
C2121 C2123 1.390 . S
C2121 H2125 0.950 . S
H2122 C2118 0.950 . S
C2123 C2121 1.390 . S
C2123 C2124 1.387 . S
C2123 H2126 0.950 . S
C2124 C2123 1.387 . S
C2124 C2127 1.387 . S
H2125 C2121 0.950 . S
H2126 C2123 0.950 . S
C2127 C2118 1.390 . S
C2127 H2120 0.950 . S
C2127 C2124 1.387 . S
C2128 C2129 1.387 . S
C2128 H2132 0.950 . S
C2128 C2137 1.390 . S
C2129 C2128 1.387 . S
C2129 C2131 1.387 . S
H2130 C2137 0.950 . S
C2131 C2129 1.387 . S
C2131 C2133 1.390 . S
C2131 H2135 0.950 . S
H2132 C2128 0.950 . S
C2133 C2131 1.390 . S
C2133 C2134 1.387 . S
C2133 H2136 0.950 . S
C2134 C2133 1.387 . S
C2134 C2137 1.387 . S
H2135 C2131 0.950 . S
H2136 C2133 0.950 . S
C2137 C2128 1.390 . S
C2137 H2130 0.950 . S
C2137 C2134 1.387 . S
C2138 C2139 1.387 . S
C2138 H2142 0.950 . S
C2138 C2147 1.390 . S
C2139 C2138 1.387 . S
C2139 C2141 1.387 . S
H2140 C2147 0.950 . S
C2141 C2139 1.387 . S
C2141 C2143 1.390 . S
C2141 H2145 0.950 . S
H2142 C2138 0.950 . S
C2143 C2141 1.390 . S
C2143 C2144 1.387 . S
C2143 H2146 0.950 . S
C2144 C2143 1.387 . S
C2144 C2147 1.387 . S
H2145 C2141 0.950 . S
H2146 C2143 0.950 . S
C2147 C2138 1.390 . S
C2147 H2140 0.950 . S
C2147 C2144 1.387 . S
C2148 C2149 1.387 . S
C2148 H2152 0.950 . S
C2148 C2157 1.390 . S
C2149 C2148 1.387 . S
C2149 C2151 1.387 . S
H2150 C2157 0.950 . S
C2151 C2149 1.387 . S
C2151 C2153 1.390 . S
C2151 H2155 0.950 . S
H2152 C2148 0.950 . S
C2153 C2151 1.390 . S
C2153 C2154 1.387 . S
C2153 H2156 0.950 . S
C2154 C2153 1.387 . S
C2154 C2157 1.387 . S
H2155 C2151 0.950 . S
H2156 C2153 0.950 . S
C2157 C2148 1.390 . S
C2157 H2150 0.950 . S
C2157 C2154 1.387 . S
C2158 C2159 1.387 . S
C2158 H2162 0.950 . S
C2158 C2167 1.390 . S
C2159 C2158 1.387 . S
C2159 C2161 1.387 . S
H2160 C2167 0.950 . S
C2161 C2159 1.387 . S
C2161 C2163 1.390 . S
C2161 H2165 0.950 . S
H2162 C2158 0.950 . S
C2163 C2161 1.390 . S
C2163 C2164 1.387 . S
C2163 H2166 0.950 . S
C2164 C2163 1.387 . S
C2164 C2167 1.387 . S
H2165 C2161 0.950 . S
H2166 C2163 0.950 . S
C2167 C2158 1.390 . S
C2167 H2160 0.950 . S
C2167 C2164 1.387 . S
C2168 C2169 1.387 . S
C2168 H2172 0.950 . S
C2168 C2177 1.390 . S
C2169 C2168 1.387 . S
C2169 C2171 1.387 . S
H2170 C2177 0.950 . S
C2171 C2169 1.387 . S
C2171 C2173 1.390 . S
C2171 H2175 0.950 . S
H2172 C2168 0.950 . S
C2173 C2171 1.390 . S
C2173 C2174 1.387 . S
C2173 H2176 0.950 . S
C2174 C2173 1.387 . S
C2174 C2177 1.387 . S
H2175 C2171 0.950 . S
H2176 C2173 0.950 . S
C2177 C2168 1.390 . S
C2177 H2170 0.950 . S
C2177 C2174 1.387 . S
C2178 C2179 1.387 . S
C2178 H2182 0.950 . S
C2178 C2187 1.390 . S
C2179 C2178 1.387 . S
C2179 C2181 1.387 . S
H2180 C2187 0.950 . S
C2181 C2179 1.387 . S
C2181 C2183 1.390 . S
C2181 H2185 0.950 . S
H2182 C2178 0.950 . S
C2183 C2181 1.390 . S
C2183 C2184 1.387 . S
C2183 H2186 0.950 . S
C2184 C2183 1.387 . S
C2184 C2187 1.387 . S
H2185 C2181 0.950 . S
H2186 C2183 0.950 . S
C2187 C2178 1.390 . S
C2187 H2180 0.950 . S
C2187 C2184 1.387 . S
C2188 C2189 1.387 . S
C2188 H2192 0.950 . S
C2188 C2197 1.390 . S
C2189 C2188 1.387 . S
C2189 C2191 1.387 . S
H2190 C2197 0.950 . S
C2191 C2189 1.387 . S
C2191 C2193 1.390 . S
C2191 H2195 0.950 . S
H2192 C2188 0.950 . S
C2193 C2191 1.390 . S
C2193 C2194 1.387 . S
C2193 H2196 0.950 . S
C2194 C2193 1.387 . S
C2194 C2197 1.387 . S
H2195 C2191 0.950 . S
H2196 C2193 0.950 . S
C2197 C2188 1.390 . S
C2197 H2190 0.950 . S
C2197 C2194 1.387 . S
C2198 C2199 1.387 . S
C2198 H2202 0.950 . S
C2198 C2207 1.390 . S
C2199 C2198 1.387 . S
C2199 C2201 1.387 . S
H2200 C2207 0.950 . S
C2201 C2199 1.387 . S
C2201 C2203 1.390 . S
C2201 H2205 0.950 . S
H2202 C2198 0.950 . S
C2203 C2201 1.390 . S
C2203 C2204 1.387 . S
C2203 H2206 0.950 . S
C2204 C2203 1.387 . S
C2204 C2207 1.387 . S
H2205 C2201 0.950 . S
H2206 C2203 0.950 . S
C2207 C2198 1.390 . S
C2207 H2200 0.950 . S
C2207 C2204 1.387 . S
C2208 C2209 1.387 . S
C2208 H2212 0.950 . S
C2208 C2217 1.390 1_455 S
C2209 C2208 1.387 . S
C2209 C2211 1.387 . S
H2210 C2217 0.950 . S
C2211 C2209 1.387 . S
C2211 C2213 1.390 1_455 S
C2211 H2215 0.950 . S
H2212 C2208 0.950 . S
C2213 C2211 1.390 1_655 S
C2213 C2214 1.387 . S
C2213 H2216 0.950 . S
C2214 C2213 1.387 . S
C2214 C2217 1.387 . S
H2215 C2211 0.950 . S
H2216 C2213 0.950 . S
C2217 C2208 1.390 1_655 S
C2217 H2210 0.950 . S
C2217 C2214 1.387 . S
C2218 C2219 1.387 . S
C2218 H2222 0.950 . S
C2218 C2227 1.390 1_545 S
C2219 C2218 1.387 . S
C2219 C2221 1.387 . S
H2220 C2227 0.950 . S
C2221 C2219 1.387 . S
C2221 C2223 1.390 1_545 S
C2221 H2225 0.950 . S
H2222 C2218 0.950 . S
C2223 C2221 1.390 1_565 S
C2223 C2224 1.387 . S
C2223 H2226 0.950 . S
C2224 C2223 1.387 . S
C2224 C2227 1.387 . S
H2225 C2221 0.950 . S
H2226 C2223 0.950 . S
C2227 C2218 1.390 1_565 S
C2227 H2220 0.950 . S
C2227 C2224 1.387 . S
C2228 C2229 1.387 . S
C2228 H2232 0.950 . S
C2228 C2237 1.390 1_655 S
C2229 C2228 1.387 . S
C2229 C2231 1.387 . S
H2230 C2237 0.950 . S
C2231 C2229 1.387 . S
C2231 C2233 1.390 1_655 S
C2231 H2235 0.950 . S
H2232 C2228 0.950 . S
C2233 C2231 1.390 1_455 S
C2233 C2234 1.387 . S
C2233 H2236 0.950 . S
C2234 C2233 1.387 . S
C2234 C2237 1.387 . S
H2235 C2231 0.950 . S
H2236 C2233 0.950 . S
C2237 C2228 1.390 1_455 S
C2237 H2230 0.950 . S
C2237 C2234 1.387 . S
C2238 C2239 1.387 . S
C2238 H2242 0.950 . S
C2238 C2247 1.390 1_565 S
C2239 C2238 1.387 . S
C2239 C2241 1.387 . S
H2240 C2247 0.950 . S
C2241 C2239 1.387 . S
C2241 C2243 1.390 1_565 S
C2241 H2245 0.950 . S
H2242 C2238 0.950 . S
C2243 C2241 1.390 1_545 S
C2243 C2244 1.387 . S
C2243 H2246 0.950 . S
C2244 C2243 1.387 . S
C2244 C2247 1.387 . S
H2245 C2241 0.950 . S
H2246 C2243 0.950 . S
C2247 C2238 1.390 1_545 S
C2247 H2240 0.950 . S
C2247 C2244 1.387 . S
C2248 C2249 1.387 . S
C2248 H2252 0.950 . S
C2248 C2257 1.390 1_655 S
C2249 C2248 1.387 . S
C2249 C2251 1.387 . S
H2250 C2257 0.950 . S
C2251 C2249 1.387 . S
C2251 C2253 1.390 1_655 S
C2251 H2255 0.950 . S
H2252 C2248 0.950 . S
C2253 C2251 1.390 1_455 S
C2253 C2254 1.387 . S
C2253 H2256 0.950 . S
C2254 C2253 1.387 . S
C2254 C2257 1.387 . S
H2255 C2251 0.950 . S
H2256 C2253 0.950 . S
C2257 C2248 1.390 1_455 S
C2257 H2250 0.950 . S
C2257 C2254 1.387 . S
C2258 C2259 1.387 . S
C2258 H2262 0.950 . S
C2258 C2267 1.390 1_545 S
C2259 C2258 1.387 . S
C2259 C2261 1.387 . S
H2260 C2267 0.950 . S
C2261 C2259 1.387 . S
C2261 C2263 1.390 1_545 S
C2261 H2265 0.950 . S
H2262 C2258 0.950 . S
C2263 C2261 1.390 1_565 S
C2263 C2264 1.387 . S
C2263 H2266 0.950 . S
C2264 C2263 1.387 . S
C2264 C2267 1.387 . S
H2265 C2261 0.950 . S
H2266 C2263 0.950 . S
C2267 C2258 1.390 1_565 S
C2267 H2260 0.950 . S
C2267 C2264 1.387 . S
C2268 C2269 1.387 . S
C2268 H2272 0.950 . S
C2268 C2277 1.390 1_455 S
C2269 C2268 1.387 . S
C2269 C2271 1.387 . S
H2270 C2277 0.950 . S
C2271 C2269 1.387 . S
C2271 C2273 1.390 1_455 S
C2271 H2275 0.950 . S
H2272 C2268 0.950 . S
C2273 C2271 1.390 1_655 S
C2273 C2274 1.387 . S
C2273 H2276 0.950 . S
C2274 C2273 1.387 . S
C2274 C2277 1.387 . S
H2275 C2271 0.950 . S
H2276 C2273 0.950 . S
C2277 C2268 1.390 1_655 S
C2277 H2270 0.950 . S
C2277 C2274 1.387 . S
C2278 C2279 1.387 . S
C2278 H2282 0.950 . S
C2278 C2287 1.390 1_545 S
C2279 C2278 1.387 . S
C2279 C2281 1.387 . S
H2280 C2287 0.950 . S
C2281 C2279 1.387 . S
C2281 C2283 1.390 1_545 S
C2281 H2285 0.950 . S
H2282 C2278 0.950 . S
C2283 C2281 1.390 1_565 S
C2283 C2284 1.387 . S
C2283 H2286 0.950 . S
C2284 C2283 1.387 . S
C2284 C2287 1.387 . S
H2285 C2281 0.950 . S
H2286 C2283 0.950 . S
C2287 C2278 1.390 1_565 S
C2287 H2280 0.950 . S
C2287 C2284 1.387 . S
C2288 C2289 1.387 . S
C2288 H2292 0.950 . S
C2288 C2297 1.390 1_545 S
C2289 C2288 1.387 . S
C2289 C2291 1.387 . S
H2290 C2297 0.950 . S
C2291 C2289 1.387 . S
C2291 C2293 1.390 1_545 S
C2291 H2295 0.950 . S
H2292 C2288 0.950 . S
C2293 C2291 1.390 1_565 S
C2293 C2294 1.387 . S
C2293 H2296 0.950 . S
C2294 C2293 1.387 . S
C2294 C2297 1.387 . S
H2295 C2291 0.950 . S
H2296 C2293 0.950 . S
C2297 C2288 1.390 1_565 S
C2297 H2290 0.950 . S
C2297 C2294 1.387 . S
C2298 C2299 1.387 . S
C2298 H2302 0.950 . S
C2298 C2307 1.390 1_455 S
C2299 C2298 1.387 . S
C2299 C2301 1.387 . S
H2300 C2307 0.950 . S
C2301 C2299 1.387 . S
C2301 C2303 1.390 1_455 S
C2301 H2305 0.950 . S
H2302 C2298 0.950 . S
C2303 C2301 1.390 1_655 S
C2303 C2304 1.387 . S
C2303 H2306 0.950 . S
C2304 C2303 1.387 . S
C2304 C2307 1.387 . S
H2305 C2301 0.950 . S
H2306 C2303 0.950 . S
C2307 C2298 1.390 1_655 S
C2307 H2300 0.950 . S
C2307 C2304 1.387 . S
C2308 C2309 1.387 . S
C2308 H2312 0.950 . S
C2308 C2317 1.390 1_565 S
C2309 C2308 1.387 . S
C2309 C2311 1.387 . S
H2310 C2317 0.950 . S
C2311 C2309 1.387 . S
C2311 C2313 1.390 1_565 S
C2311 H2315 0.950 . S
H2312 C2308 0.950 . S
C2313 C2311 1.390 1_545 S
C2313 C2314 1.387 . S
C2313 H2316 0.950 . S
C2314 C2313 1.387 . S
C2314 C2317 1.387 . S
H2315 C2311 0.950 . S
H2316 C2313 0.950 . S
C2317 C2308 1.390 1_545 S
C2317 H2310 0.950 . S
C2317 C2314 1.387 . S
C2318 C2319 1.387 . S
C2318 H2322 0.950 . S
C2318 C2327 1.390 1_455 S
C2319 C2318 1.387 . S
C2319 C2321 1.387 . S
H2320 C2327 0.950 . S
C2321 C2319 1.387 . S
C2321 C2323 1.390 1_455 S
C2321 H2325 0.950 . S
H2322 C2318 0.950 . S
C2323 C2321 1.390 1_655 S
C2323 C2324 1.387 . S
C2323 H2326 0.950 . S
C2324 C2323 1.387 . S
C2324 C2327 1.387 . S
H2325 C2321 0.950 . S
H2326 C2323 0.950 . S
C2327 C2318 1.390 1_655 S
C2327 H2320 0.950 . S
C2327 C2324 1.387 . S
C2328 C2329 1.387 . S
C2328 H2332 0.950 . S
C2328 C2337 1.390 1_565 S
C2329 C2328 1.387 . S
C2329 C2331 1.387 . S
H2330 C2337 0.950 . S
C2331 C2329 1.387 . S
C2331 C2333 1.390 1_565 S
C2331 H2335 0.950 . S
H2332 C2328 0.950 . S
C2333 C2331 1.390 1_545 S
C2333 C2334 1.387 . S
C2333 H2336 0.950 . S
C2334 C2333 1.387 . S
C2334 C2337 1.387 . S
H2335 C2331 0.950 . S
H2336 C2333 0.950 . S
C2337 C2328 1.390 1_545 S
C2337 H2330 0.950 . S
C2337 C2334 1.387 . S
C2338 C2339 1.387 . S
C2338 H2342 0.950 . S
C2338 C2347 1.390 1_455 S
C2339 C2338 1.387 . S
C2339 C2341 1.387 . S
H2340 C2347 0.950 . S
C2341 C2339 1.387 . S
C2341 C2343 1.390 1_455 S
C2341 H2345 0.950 . S
H2342 C2338 0.950 . S
C2343 C2341 1.390 1_655 S
C2343 C2344 1.387 . S
C2343 H2346 0.950 . S
C2344 C2343 1.387 . S
C2344 C2347 1.387 . S
H2345 C2341 0.950 . S
H2346 C2343 0.950 . S
C2347 C2338 1.390 1_655 S
C2347 H2340 0.950 . S
C2347 C2344 1.387 . S
C2348 C2349 1.387 . S
C2348 H2352 0.950 . S
C2348 C2357 1.390 1_545 S
C2349 C2348 1.387 . S
C2349 C2351 1.387 . S
H2350 C2357 0.950 . S
C2351 C2349 1.387 . S
C2351 C2353 1.390 1_545 S
C2351 H2355 0.950 . S
H2352 C2348 0.950 . S
C2353 C2351 1.390 1_565 S
C2353 C2354 1.387 . S
C2353 H2356 0.950 . S
C2354 C2353 1.387 . S
C2354 C2357 1.387 . S
H2355 C2351 0.950 . S
H2356 C2353 0.950 . S
C2357 C2348 1.390 1_565 S
C2357 H2350 0.950 . S
C2357 C2354 1.387 . S
C2358 C2359 1.387 . S
C2358 H2362 0.950 . S
C2358 C2367 1.390 1_455 S
C2359 C2358 1.387 . S
C2359 C2361 1.387 . S
H2360 C2367 0.950 . S
C2361 C2359 1.387 . S
C2361 C2363 1.390 1_455 S
C2361 H2365 0.950 . S
H2362 C2358 0.950 . S
C2363 C2361 1.390 1_655 S
C2363 C2364 1.387 . S
C2363 H2366 0.950 . S
C2364 C2363 1.387 . S
C2364 C2367 1.387 . S
H2365 C2361 0.950 . S
H2366 C2363 0.950 . S
C2367 C2358 1.390 1_655 S
C2367 H2360 0.950 . S
C2367 C2364 1.387 . S
C2368 C2369 1.387 . S
C2368 H2372 0.950 . S
C2368 C2377 1.390 1_554 S
C2369 C2368 1.387 . S
C2369 C2371 1.387 . S
H2370 C2377 0.950 . S
C2371 C2369 1.387 . S
C2371 C2373 1.390 1_554 S
C2371 H2375 0.950 . S
H2372 C2368 0.950 . S
C2373 C2371 1.390 1_556 S
C2373 C2374 1.387 . S
C2373 H2376 0.950 . S
C2374 C2373 1.387 . S
C2374 C2377 1.387 . S
H2375 C2371 0.950 . S
H2376 C2373 0.950 . S
C2377 C2368 1.390 1_556 S
C2377 H2370 0.950 . S
C2377 C2374 1.387 . S
C2378 C2379 1.387 . S
C2378 H2382 0.950 . S
C2378 C2387 1.390 1_556 S
C2379 C2378 1.387 . S
C2379 C2381 1.387 . S
H2380 C2387 0.950 . S
C2381 C2379 1.387 . S
C2381 C2383 1.390 1_556 S
C2381 H2385 0.950 . S
H2382 C2378 0.950 . S
C2383 C2381 1.390 1_554 S
C2383 C2384 1.387 . S
C2383 H2386 0.950 . S
C2384 C2383 1.387 . S
C2384 C2387 1.387 . S
H2385 C2381 0.950 . S
H2386 C2383 0.950 . S
C2387 C2378 1.390 1_554 S
C2387 H2380 0.950 . S
C2387 C2384 1.387 . S
C2388 C2389 1.387 . S
C2388 H2392 0.950 . S
C2388 C2397 1.390 1_554 S
C2389 C2388 1.387 . S
C2389 C2391 1.387 . S
H2390 C2397 0.950 . S
C2391 C2389 1.387 . S
C2391 C2393 1.390 1_554 S
C2391 H2395 0.950 . S
H2392 C2388 0.950 . S
C2393 C2391 1.390 1_556 S
C2393 C2394 1.387 . S
C2393 H2396 0.950 . S
C2394 C2393 1.387 . S
C2394 C2397 1.387 . S
H2395 C2391 0.950 . S
H2396 C2393 0.950 . S
C2397 C2388 1.390 1_556 S
C2397 H2390 0.950 . S
C2397 C2394 1.387 . S
C2398 C2399 1.387 . S
C2398 H2402 0.950 . S
C2398 C2407 1.390 1_556 S
C2399 C2398 1.387 . S
C2399 C2401 1.387 . S
H2400 C2407 0.950 . S
C2401 C2399 1.387 . S
C2401 C2403 1.390 1_556 S
C2401 H2405 0.950 . S
H2402 C2398 0.950 . S
C2403 C2401 1.390 1_554 S
C2403 C2404 1.387 . S
C2403 H2406 0.950 . S
C2404 C2403 1.387 . S
C2404 C2407 1.387 . S
H2405 C2401 0.950 . S
H2406 C2403 0.950 . S
C2407 C2398 1.390 1_554 S
C2407 H2400 0.950 . S
C2407 C2404 1.387 . S
C2408 C2409 1.387 . S
C2408 H2412 0.950 . S
C2408 C2417 1.390 1_554 S
C2409 C2408 1.387 . S
C2409 C2411 1.387 . S
H2410 C2417 0.950 . S
C2411 C2409 1.387 . S
C2411 C2413 1.390 1_554 S
C2411 H2415 0.950 . S
H2412 C2408 0.950 . S
C2413 C2411 1.390 1_556 S
C2413 C2414 1.387 . S
C2413 H2416 0.950 . S
C2414 C2413 1.387 . S
C2414 C2417 1.387 . S
H2415 C2411 0.950 . S
H2416 C2413 0.950 . S
C2417 C2408 1.390 1_556 S
C2417 H2410 0.950 . S
C2417 C2414 1.387 . S
C2418 C2419 1.387 . S
C2418 H2422 0.950 . S
C2418 C2427 1.390 1_554 S
C2419 C2418 1.387 . S
C2419 C2421 1.387 . S
H2420 C2427 0.950 . S
C2421 C2419 1.387 . S
C2421 C2423 1.390 1_554 S
C2421 H2425 0.950 . S
H2422 C2418 0.950 . S
C2423 C2421 1.390 1_556 S
C2423 C2424 1.387 . S
C2423 H2426 0.950 . S
C2424 C2423 1.387 . S
C2424 C2427 1.387 . S
H2425 C2421 0.950 . S
H2426 C2423 0.950 . S
C2427 C2418 1.390 1_556 S
C2427 H2420 0.950 . S
C2427 C2424 1.387 . S
C2428 C2429 1.387 . S
C2428 H2432 0.950 . S
C2428 C2437 1.390 1_556 S
C2429 C2428 1.387 . S
C2429 C2431 1.387 . S
H2430 C2437 0.950 . S
C2431 C2429 1.387 . S
C2431 C2433 1.390 1_556 S
C2431 H2435 0.950 . S
H2432 C2428 0.950 . S
C2433 C2431 1.390 1_554 S
C2433 C2434 1.387 . S
C2433 H2436 0.950 . S
C2434 C2433 1.387 . S
C2434 C2437 1.387 . S
H2435 C2431 0.950 . S
H2436 C2433 0.950 . S
C2437 C2428 1.390 1_554 S
C2437 H2430 0.950 . S
C2437 C2434 1.387 . S
C2438 C2439 1.387 . S
C2438 H2442 0.950 . S
C2438 C2447 1.390 1_556 S
C2439 C2438 1.387 . S
C2439 C2441 1.387 . S
H2440 C2447 0.950 . S
C2441 C2439 1.387 . S
C2441 C2443 1.390 1_556 S
C2441 H2445 0.950 . S
H2442 C2438 0.950 . S
C2443 C2441 1.390 1_554 S
C2443 C2444 1.387 . S
C2443 H2446 0.950 . S
C2444 C2443 1.387 . S
C2444 C2447 1.387 . S
H2445 C2441 0.950 . S
H2446 C2443 0.950 . S
C2447 C2438 1.390 1_554 S
C2447 H2440 0.950 . S
C2447 C2444 1.387 . S
C2448 C2449 1.387 . S
C2448 H2452 0.950 . S
C2448 C2457 1.390 . S
C2449 C2448 1.387 . S
C2449 C2451 1.387 . S
H2450 C2457 0.950 . S
C2451 C2449 1.387 . S
C2451 C2453 1.390 . S
C2451 H2455 0.950 . S
H2452 C2448 0.950 . S
C2453 C2451 1.390 . S
C2453 C2454 1.387 . S
C2453 H2456 0.950 . S
C2454 C2453 1.387 . S
C2454 C2457 1.387 . S
H2455 C2451 0.950 . S
H2456 C2453 0.950 . S
C2457 C2448 1.390 . S
C2457 H2450 0.950 . S
C2457 C2454 1.387 . S
C2458 C2459 1.387 . S
C2458 H2462 0.950 . S
C2458 C2467 1.390 . S
C2459 C2458 1.387 . S
C2459 C2461 1.387 . S
H2460 C2467 0.950 . S
C2461 C2459 1.387 . S
C2461 C2463 1.390 . S
C2461 H2465 0.950 . S
H2462 C2458 0.950 . S
C2463 C2461 1.390 . S
C2463 C2464 1.387 . S
C2463 H2466 0.950 . S
C2464 C2463 1.387 . S
C2464 C2467 1.387 . S
H2465 C2461 0.950 . S
H2466 C2463 0.950 . S
C2467 C2458 1.390 . S
C2467 H2460 0.950 . S
C2467 C2464 1.387 . S
C2468 C2469 1.387 . S
C2468 H2472 0.950 . S
C2468 C2477 1.390 . S
C2469 C2468 1.387 . S
C2469 C2471 1.387 . S
H2470 C2477 0.950 . S
C2471 C2469 1.387 . S
C2471 C2473 1.390 . S
C2471 H2475 0.950 . S
H2472 C2468 0.950 . S
C2473 C2471 1.390 . S
C2473 C2474 1.387 . S
C2473 H2476 0.950 . S
C2474 C2473 1.387 . S
C2474 C2477 1.387 . S
H2475 C2471 0.950 . S
H2476 C2473 0.950 . S
C2477 C2468 1.390 . S
C2477 H2470 0.950 . S
C2477 C2474 1.387 . S
C2478 C2479 1.387 . S
C2478 H2482 0.950 . S
C2478 C2487 1.390 . S
C2479 C2478 1.387 . S
C2479 C2481 1.387 . S
H2480 C2487 0.950 . S
C2481 C2479 1.387 . S
C2481 C2483 1.390 . S
C2481 H2485 0.950 . S
H2482 C2478 0.950 . S
C2483 C2481 1.390 . S
C2483 C2484 1.387 . S
C2483 H2486 0.950 . S
C2484 C2483 1.387 . S
C2484 C2487 1.387 . S
H2485 C2481 0.950 . S
H2486 C2483 0.950 . S
C2487 C2478 1.390 . S
C2487 H2480 0.950 . S
C2487 C2484 1.387 . S
C2488 C2489 1.387 . S
C2488 H2492 0.950 . S
C2488 C2497 1.390 . S
C2489 C2488 1.387 . S
C2489 C2491 1.387 . S
H2490 C2497 0.950 . S
C2491 C2489 1.387 . S
C2491 C2493 1.390 . S
C2491 H2495 0.950 . S
H2492 C2488 0.950 . S
C2493 C2491 1.390 . S
C2493 C2494 1.387 . S
C2493 H2496 0.950 . S
C2494 C2493 1.387 . S
C2494 C2497 1.387 . S
H2495 C2491 0.950 . S
H2496 C2493 0.950 . S
C2497 C2488 1.390 . S
C2497 H2490 0.950 . S
C2497 C2494 1.387 . S
C2498 C2499 1.387 . S
C2498 H2502 0.950 . S
C2498 C2507 1.390 . S
C2499 C2498 1.387 . S
C2499 C2501 1.387 . S
H2500 C2507 0.950 . S
C2501 C2499 1.387 . S
C2501 C2503 1.390 . S
C2501 H2505 0.950 . S
H2502 C2498 0.950 . S
C2503 C2501 1.390 . S
C2503 C2504 1.387 . S
C2503 H2506 0.950 . S
C2504 C2503 1.387 . S
C2504 C2507 1.387 . S
H2505 C2501 0.950 . S
H2506 C2503 0.950 . S
C2507 C2498 1.390 . S
C2507 H2500 0.950 . S
C2507 C2504 1.387 . S
C2508 C2509 1.387 . S
C2508 H2512 0.950 . S
C2508 C2517 1.390 . S
C2509 C2508 1.387 . S
C2509 C2511 1.387 . S
H2510 C2517 0.950 . S
C2511 C2509 1.387 . S
C2511 C2513 1.390 . S
C2511 H2515 0.950 . S
H2512 C2508 0.950 . S
C2513 C2511 1.390 . S
C2513 C2514 1.387 . S
C2513 H2516 0.950 . S
C2514 C2513 1.387 . S
C2514 C2517 1.387 . S
H2515 C2511 0.950 . S
H2516 C2513 0.950 . S
C2517 C2508 1.390 . S
C2517 H2510 0.950 . S
C2517 C2514 1.387 . S
C2518 C2519 1.387 . S
C2518 H2522 0.950 . S
C2518 C2527 1.390 . S
C2519 C2518 1.387 . S
C2519 C2521 1.387 . S
H2520 C2527 0.950 . S
C2521 C2519 1.387 . S
C2521 C2523 1.390 . S
C2521 H2525 0.950 . S
H2522 C2518 0.950 . S
C2523 C2521 1.390 . S
C2523 C2524 1.387 . S
C2523 H2526 0.950 . S
C2524 C2523 1.387 . S
C2524 C2527 1.387 . S
H2525 C2521 0.950 . S
H2526 C2523 0.950 . S
C2527 C2518 1.390 . S
C2527 H2520 0.950 . S
C2527 C2524 1.387 . S
C2528 C2529 1.387 . S
C2528 H2532 0.950 . S
C2528 C2537 1.390 . S
C2529 C2528 1.387 . S
C2529 C2531 1.387 . S
H2530 C2537 0.950 . S
C2531 C2529 1.387 . S
C2531 C2533 1.390 . S
C2531 H2535 0.950 . S
H2532 C2528 0.950 . S
C2533 C2531 1.390 . S
C2533 C2534 1.387 . S
C2533 H2536 0.950 . S
C2534 C2533 1.387 . S
C2534 C2537 1.387 . S
H2535 C2531 0.950 . S
H2536 C2533 0.950 . S
C2537 C2528 1.390 . S
C2537 H2530 0.950 . S
C2537 C2534 1.387 . S
C2538 C2539 1.387 . S
C2538 H2542 0.950 . S
C2538 C2547 1.390 . S
C2539 C2538 1.387 . S
C2539 C2541 1.387 . S
H2540 C2547 0.950 . S
C2541 C2539 1.387 . S
C2541 C2543 1.390 . S
C2541 H2545 0.950 . S
H2542 C2538 0.950 . S
C2543 C2541 1.390 . S
C2543 C2544 1.387 . S
C2543 H2546 0.950 . S
C2544 C2543 1.387 . S
C2544 C2547 1.387 . S
H2545 C2541 0.950 . S
H2546 C2543 0.950 . S
C2547 C2538 1.390 . S
C2547 H2540 0.950 . S
C2547 C2544 1.387 . S
C2548 C2549 1.387 . S
C2548 H2552 0.950 . S
C2548 C2557 1.390 . S
C2549 C2548 1.387 . S
C2549 C2551 1.387 . S
H2550 C2557 0.950 . S
C2551 C2549 1.387 . S
C2551 C2553 1.390 . S
C2551 H2555 0.950 . S
H2552 C2548 0.950 . S
C2553 C2551 1.390 . S
C2553 C2554 1.387 . S
C2553 H2556 0.950 . S
C2554 C2553 1.387 . S
C2554 C2557 1.387 . S
H2555 C2551 0.950 . S
H2556 C2553 0.950 . S
C2557 C2548 1.390 . S
C2557 H2550 0.950 . S
C2557 C2554 1.387 . S
C2558 C2559 1.387 . S
C2558 H2562 0.950 . S
C2558 C2567 1.390 . S
C2559 C2558 1.387 . S
C2559 C2561 1.387 . S
H2560 C2567 0.950 . S
C2561 C2559 1.387 . S
C2561 C2563 1.390 . S
C2561 H2565 0.950 . S
H2562 C2558 0.950 . S
C2563 C2561 1.390 . S
C2563 C2564 1.387 . S
C2563 H2566 0.950 . S
C2564 C2563 1.387 . S
C2564 C2567 1.387 . S
H2565 C2561 0.950 . S
H2566 C2563 0.950 . S
C2567 C2558 1.390 . S
C2567 H2560 0.950 . S
C2567 C2564 1.387 . S
C2568 C2569 1.387 . S
C2568 H2572 0.950 . S
C2568 C2577 1.390 . S
C2569 C2568 1.387 . S
C2569 C2571 1.387 . S
H2570 C2577 0.950 . S
C2571 C2569 1.387 . S
C2571 C2573 1.390 . S
C2571 H2575 0.950 . S
H2572 C2568 0.950 . S
C2573 C2571 1.390 . S
C2573 C2574 1.387 . S
C2573 H2576 0.950 . S
C2574 C2573 1.387 . S
C2574 C2577 1.387 . S
H2575 C2571 0.950 . S
H2576 C2573 0.950 . S
C2577 C2568 1.390 . S
C2577 H2570 0.950 . S
C2577 C2574 1.387 . S
C2578 C2579 1.387 . S
C2578 H2582 0.950 . S
C2578 C2587 1.390 . S
C2579 C2578 1.387 . S
C2579 C2581 1.387 . S
H2580 C2587 0.950 . S
C2581 C2579 1.387 . S
C2581 C2583 1.390 . S
C2581 H2585 0.950 . S
H2582 C2578 0.950 . S
C2583 C2581 1.390 . S
C2583 C2584 1.387 . S
C2583 H2586 0.950 . S
C2584 C2583 1.387 . S
C2584 C2587 1.387 . S
H2585 C2581 0.950 . S
H2586 C2583 0.950 . S
C2587 C2578 1.390 . S
C2587 H2580 0.950 . S
C2587 C2584 1.387 . S
C2588 C2589 1.387 . S
C2588 H2592 0.950 . S
C2588 C2597 1.390 . S
C2589 C2588 1.387 . S
C2589 C2591 1.387 . S
H2590 C2597 0.950 . S
C2591 C2589 1.387 . S
C2591 C2593 1.390 . S
C2591 H2595 0.950 . S
H2592 C2588 0.950 . S
C2593 C2591 1.390 . S
C2593 C2594 1.387 . S
C2593 H2596 0.950 . S
C2594 C2593 1.387 . S
C2594 C2597 1.387 . S
H2595 C2591 0.950 . S
H2596 C2593 0.950 . S
C2597 C2588 1.390 . S
C2597 H2590 0.950 . S
C2597 C2594 1.387 . S
C2598 C2599 1.387 . S
C2598 H2602 0.950 . S
C2598 C2607 1.390 . S
C2599 C2598 1.387 . S
C2599 C2601 1.387 . S
H2600 C2607 0.950 . S
C2601 C2599 1.387 . S
C2601 C2603 1.390 . S
C2601 H2605 0.950 . S
H2602 C2598 0.950 . S
C2603 C2601 1.390 . S
C2603 C2604 1.387 . S
C2603 H2606 0.950 . S
C2604 C2603 1.387 . S
C2604 C2607 1.387 . S
H2605 C2601 0.950 . S
H2606 C2603 0.950 . S
C2607 C2598 1.390 . S
C2607 H2600 0.950 . S
C2607 C2604 1.387 . S
C2608 C2609 1.387 . S
C2608 H2612 0.950 . S
C2608 C2617 1.390 . S
C2609 C2608 1.387 . S
C2609 C2611 1.387 . S
H2610 C2617 0.950 . S
C2611 C2609 1.387 . S
C2611 C2613 1.390 . S
C2611 H2615 0.950 . S
H2612 C2608 0.950 . S
C2613 C2611 1.390 . S
C2613 C2614 1.387 . S
C2613 H2616 0.950 . S
C2614 C2613 1.387 . S
C2614 C2617 1.387 . S
H2615 C2611 0.950 . S
H2616 C2613 0.950 . S
C2617 C2608 1.390 . S
C2617 H2610 0.950 . S
C2617 C2614 1.387 . S
C2618 C2619 1.387 . S
C2618 H2622 0.950 . S
C2618 C2627 1.390 . S
C2619 C2618 1.387 . S
C2619 C2621 1.387 . S
H2620 C2627 0.950 . S
C2621 C2619 1.387 . S
C2621 C2623 1.390 . S
C2621 H2625 0.950 . S
H2622 C2618 0.950 . S
C2623 C2621 1.390 . S
C2623 C2624 1.387 . S
C2623 H2626 0.950 . S
C2624 C2623 1.387 . S
C2624 C2627 1.387 . S
H2625 C2621 0.950 . S
H2626 C2623 0.950 . S
C2627 C2618 1.390 . S
C2627 H2620 0.950 . S
C2627 C2624 1.387 . S
C2628 C2629 1.387 . S
C2628 H2632 0.950 . S
C2628 C2637 1.390 . S
C2629 C2628 1.387 . S
C2629 C2631 1.387 . S
H2630 C2637 0.950 . S
C2631 C2629 1.387 . S
C2631 C2633 1.390 . S
C2631 H2635 0.950 . S
H2632 C2628 0.950 . S
C2633 C2631 1.390 . S
C2633 C2634 1.387 . S
C2633 H2636 0.950 . S
C2634 C2633 1.387 . S
C2634 C2637 1.387 . S
H2635 C2631 0.950 . S
H2636 C2633 0.950 . S
C2637 C2628 1.390 . S
C2637 H2630 0.950 . S
C2637 C2634 1.387 . S
C2638 C2639 1.387 . S
C2638 H2642 0.950 . S
C2638 C2647 1.390 . S
C2639 C2638 1.387 . S
C2639 C2641 1.387 . S
H2640 C2647 0.950 . S
C2641 C2639 1.387 . S
C2641 C2643 1.390 . S
C2641 H2645 0.950 . S
H2642 C2638 0.950 . S
C2643 C2641 1.390 . S
C2643 C2644 1.387 . S
C2643 H2646 0.950 . S
C2644 C2643 1.387 . S
C2644 C2647 1.387 . S
H2645 C2641 0.950 . S
H2646 C2643 0.950 . S
C2647 C2638 1.390 . S
C2647 H2640 0.950 . S
C2647 C2644 1.387 . S
C2648 C2649 1.387 . S
C2648 H2652 0.950 . S
C2648 C2657 1.390 . S
C2649 C2648 1.387 . S
C2649 C2651 1.387 . S
H2650 C2657 0.950 . S
C2651 C2649 1.387 . S
C2651 C2653 1.390 . S
C2651 H2655 0.950 . S
H2652 C2648 0.950 . S
C2653 C2651 1.390 . S
C2653 C2654 1.387 . S
C2653 H2656 0.950 . S
C2654 C2653 1.387 . S
C2654 C2657 1.387 . S
H2655 C2651 0.950 . S
H2656 C2653 0.950 . S
C2657 C2648 1.390 . S
C2657 H2650 0.950 . S
C2657 C2654 1.387 . S
C2658 C2659 1.387 . S
C2658 H2662 0.950 . S
C2658 C2667 1.390 . S
C2659 C2658 1.387 . S
C2659 C2661 1.387 . S
H2660 C2667 0.950 . S
C2661 C2659 1.387 . S
C2661 C2663 1.390 . S
C2661 H2665 0.950 . S
H2662 C2658 0.950 . S
C2663 C2661 1.390 . S
C2663 C2664 1.387 . S
C2663 H2666 0.950 . S
C2664 C2663 1.387 . S
C2664 C2667 1.387 . S
H2665 C2661 0.950 . S
H2666 C2663 0.950 . S
C2667 C2658 1.390 . S
C2667 H2660 0.950 . S
C2667 C2664 1.387 . S
C2668 C2669 1.387 . S
C2668 H2672 0.950 . S
C2668 C2677 1.390 . S
C2669 C2668 1.387 . S
C2669 C2671 1.387 . S
H2670 C2677 0.950 . S
C2671 C2669 1.387 . S
C2671 C2673 1.390 . S
C2671 H2675 0.950 . S
H2672 C2668 0.950 . S
C2673 C2671 1.390 . S
C2673 C2674 1.387 . S
C2673 H2676 0.950 . S
C2674 C2673 1.387 . S
C2674 C2677 1.387 . S
H2675 C2671 0.950 . S
H2676 C2673 0.950 . S
C2677 C2668 1.390 . S
C2677 H2670 0.950 . S
C2677 C2674 1.387 . S
C2678 C2679 1.387 . S
C2678 H2682 0.950 . S
C2678 C2687 1.390 . S
C2679 C2678 1.387 . S
C2679 C2681 1.387 . S
H2680 C2687 0.950 . S
C2681 C2679 1.387 . S
C2681 C2683 1.390 . S
C2681 H2685 0.950 . S
H2682 C2678 0.950 . S
C2683 C2681 1.390 . S
C2683 C2684 1.387 . S
C2683 H2686 0.950 . S
C2684 C2683 1.387 . S
C2684 C2687 1.387 . S
H2685 C2681 0.950 . S
H2686 C2683 0.950 . S
C2687 C2678 1.390 . S
C2687 H2680 0.950 . S
C2687 C2684 1.387 . S
C2688 C2689 1.387 . S
C2688 H2692 0.950 . S
C2688 C2697 1.390 . S
C2689 C2688 1.387 . S
C2689 C2691 1.387 . S
H2690 C2697 0.950 . S
C2691 C2689 1.387 . S
C2691 C2693 1.390 . S
C2691 H2695 0.950 . S
H2692 C2688 0.950 . S
C2693 C2691 1.390 . S
C2693 C2694 1.387 . S
C2693 H2696 0.950 . S
C2694 C2693 1.387 . S
C2694 C2697 1.387 . S
H2695 C2691 0.950 . S
H2696 C2693 0.950 . S
C2697 C2688 1.390 . S
C2697 H2690 0.950 . S
C2697 C2694 1.387 . S
C2698 C2699 1.387 . S
C2698 H2702 0.950 . S
C2698 C2707 1.390 . S
C2699 C2698 1.387 . S
C2699 C2701 1.387 . S
H2700 C2707 0.950 . S
C2701 C2699 1.387 . S
C2701 C2703 1.390 . S
C2701 H2705 0.950 . S
H2702 C2698 0.950 . S
C2703 C2701 1.390 . S
C2703 C2704 1.387 . S
C2703 H2706 0.950 . S
C2704 C2703 1.387 . S
C2704 C2707 1.387 . S
H2705 C2701 0.950 . S
H2706 C2703 0.950 . S
C2707 C2698 1.390 . S
C2707 H2700 0.950 . S
C2707 C2704 1.387 . S
C2708 C2709 1.387 . S
C2708 H2712 0.950 . S
C2708 C2717 1.390 . S
C2709 C2708 1.387 . S
C2709 C2711 1.387 . S
H2710 C2717 0.950 . S
C2711 C2709 1.387 . S
C2711 C2713 1.390 . S
C2711 H2715 0.950 . S
H2712 C2708 0.950 . S
C2713 C2711 1.390 . S
C2713 C2714 1.387 . S
C2713 H2716 0.950 . S
C2714 C2713 1.387 . S
C2714 C2717 1.387 . S
H2715 C2711 0.950 . S
H2716 C2713 0.950 . S
C2717 C2708 1.390 . S
C2717 H2710 0.950 . S
C2717 C2714 1.387 . S
C2718 C2719 1.387 . S
C2718 H2722 0.950 . S
C2718 C2727 1.390 . S
C2719 C2718 1.387 . S
C2719 C2721 1.387 . S
H2720 C2727 0.950 . S
C2721 C2719 1.387 . S
C2721 C2723 1.390 . S
C2721 H2725 0.950 . S
H2722 C2718 0.950 . S
C2723 C2721 1.390 . S
C2723 C2724 1.387 . S
C2723 H2726 0.950 . S
C2724 C2723 1.387 . S
C2724 C2727 1.387 . S
H2725 C2721 0.950 . S
H2726 C2723 0.950 . S
C2727 C2718 1.390 . S
C2727 H2720 0.950 . S
C2727 C2724 1.387 . S
C2728 C2729 1.387 . S
C2728 H2732 0.950 . S
C2728 C2737 1.390 . S
C2729 C2728 1.387 . S
C2729 C2731 1.387 . S
H2730 C2737 0.950 . S
C2731 C2729 1.387 . S
C2731 C2733 1.390 . S
C2731 H2735 0.950 . S
H2732 C2728 0.950 . S
C2733 C2731 1.390 . S
C2733 C2734 1.387 . S
C2733 H2736 0.950 . S
C2734 C2733 1.387 . S
C2734 C2737 1.387 . S
H2735 C2731 0.950 . S
H2736 C2733 0.950 . S
C2737 C2728 1.390 . S
C2737 H2730 0.950 . S
C2737 C2734 1.387 . S
C2738 C2739 1.387 . S
C2738 H2742 0.950 . S
C2738 C2747 1.390 . S
C2739 C2738 1.387 . S
C2739 C2741 1.387 . S
H2740 C2747 0.950 . S
C2741 C2739 1.387 . S
C2741 C2743 1.390 . S
C2741 H2745 0.950 . S
H2742 C2738 0.950 . S
C2743 C2741 1.390 . S
C2743 C2744 1.387 . S
C2743 H2746 0.950 . S
C2744 C2743 1.387 . S
C2744 C2747 1.387 . S
H2745 C2741 0.950 . S
H2746 C2743 0.950 . S
C2747 C2738 1.390 . S
C2747 H2740 0.950 . S
C2747 C2744 1.387 . S
C2748 C2749 1.387 . S
C2748 H2752 0.950 . S
C2748 C2757 1.390 . S
C2749 C2748 1.387 . S
C2749 C2751 1.387 . S
H2750 C2757 0.950 . S
C2751 C2749 1.387 . S
C2751 C2753 1.390 . S
C2751 H2755 0.950 . S
H2752 C2748 0.950 . S
C2753 C2751 1.390 . S
C2753 C2754 1.387 . S
C2753 H2756 0.950 . S
C2754 C2753 1.387 . S
C2754 C2757 1.387 . S
H2755 C2751 0.950 . S
H2756 C2753 0.950 . S
C2757 C2748 1.390 . S
C2757 H2750 0.950 . S
C2757 C2754 1.387 . S
C2758 C2759 1.387 . S
C2758 H2762 0.950 . S
C2758 C2767 1.390 . S
C2759 C2758 1.387 . S
C2759 C2761 1.387 . S
H2760 C2767 0.950 . S
C2761 C2759 1.387 . S
C2761 C2763 1.390 . S
C2761 H2765 0.950 . S
H2762 C2758 0.950 . S
C2763 C2761 1.390 . S
C2763 C2764 1.387 . S
C2763 H2766 0.950 . S
C2764 C2763 1.387 . S
C2764 C2767 1.387 . S
H2765 C2761 0.950 . S
H2766 C2763 0.950 . S
C2767 C2758 1.390 . S
C2767 H2760 0.950 . S
C2767 C2764 1.387 . S
C2768 C2769 1.387 . S
C2768 H2772 0.950 . S
C2768 C2777 1.390 . S
C2769 C2768 1.387 . S
C2769 C2771 1.387 . S
H2770 C2777 0.950 . S
C2771 C2769 1.387 . S
C2771 C2773 1.390 . S
C2771 H2775 0.950 . S
H2772 C2768 0.950 . S
C2773 C2771 1.390 . S
C2773 C2774 1.387 . S
C2773 H2776 0.950 . S
C2774 C2773 1.387 . S
C2774 C2777 1.387 . S
H2775 C2771 0.950 . S
H2776 C2773 0.950 . S
C2777 C2768 1.390 . S
C2777 H2770 0.950 . S
C2777 C2774 1.387 . S
C2778 C2779 1.387 . S
C2778 H2782 0.950 . S
C2778 C2787 1.390 . S
C2779 C2778 1.387 . S
C2779 C2781 1.387 . S
H2780 C2787 0.950 . S
C2781 C2779 1.387 . S
C2781 C2783 1.390 . S
C2781 H2785 0.950 . S
H2782 C2778 0.950 . S
C2783 C2781 1.390 . S
C2783 C2784 1.387 . S
C2783 H2786 0.950 . S
C2784 C2783 1.387 . S
C2784 C2787 1.387 . S
H2785 C2781 0.950 . S
H2786 C2783 0.950 . S
C2787 C2778 1.390 . S
C2787 H2780 0.950 . S
C2787 C2784 1.387 . S
C2788 C2789 1.387 . S
C2788 H2792 0.950 . S
C2788 C2797 1.390 . S
C2789 C2788 1.387 . S
C2789 C2791 1.387 . S
H2790 C2797 0.950 . S
C2791 C2789 1.387 . S
C2791 C2793 1.390 . S
C2791 H2795 0.950 . S
H2792 C2788 0.950 . S
C2793 C2791 1.390 . S
C2793 C2794 1.387 . S
C2793 H2796 0.950 . S
C2794 C2793 1.387 . S
C2794 C2797 1.387 . S
H2795 C2791 0.950 . S
H2796 C2793 0.950 . S
C2797 C2788 1.390 . S
C2797 H2790 0.950 . S
C2797 C2794 1.387 . S
C2798 C2799 1.387 . S
C2798 H2802 0.950 . S
C2798 C2807 1.390 . S
C2799 C2798 1.387 . S
C2799 C2801 1.387 . S
H2800 C2807 0.950 . S
C2801 C2799 1.387 . S
C2801 C2803 1.390 . S
C2801 H2805 0.950 . S
H2802 C2798 0.950 . S
C2803 C2801 1.390 . S
C2803 C2804 1.387 . S
C2803 H2806 0.950 . S
C2804 C2803 1.387 . S
C2804 C2807 1.387 . S
H2805 C2801 0.950 . S
H2806 C2803 0.950 . S
C2807 C2798 1.390 . S
C2807 H2800 0.950 . S
C2807 C2804 1.387 . S
C2808 C2809 1.387 . S
C2808 H2812 0.950 . S
C2808 C2817 1.390 . S
C2809 C2808 1.387 . S
C2809 C2811 1.387 . S
H2810 C2817 0.950 . S
C2811 C2809 1.387 . S
C2811 C2813 1.390 . S
C2811 H2815 0.950 . S
H2812 C2808 0.950 . S
C2813 C2811 1.390 . S
C2813 C2814 1.387 . S
C2813 H2816 0.950 . S
C2814 C2813 1.387 . S
C2814 C2817 1.387 . S
H2815 C2811 0.950 . S
H2816 C2813 0.950 . S
C2817 C2808 1.390 . S
C2817 H2810 0.950 . S
C2817 C2814 1.387 . S
C2818 C2819 1.387 . S
C2818 H2822 0.950 . S
C2818 C2827 1.390 . S
C2819 C2818 1.387 . S
C2819 C2821 1.387 . S
H2820 C2827 0.950 . S
C2821 C2819 1.387 . S
C2821 C2823 1.390 . S
C2821 H2825 0.950 . S
H2822 C2818 0.950 . S
C2823 C2821 1.390 . S
C2823 C2824 1.387 . S
C2823 H2826 0.950 . S
C2824 C2823 1.387 . S
C2824 C2827 1.387 . S
H2825 C2821 0.950 . S
H2826 C2823 0.950 . S
C2827 C2818 1.390 . S
C2827 H2820 0.950 . S
C2827 C2824 1.387 . S
C2828 C2829 1.387 . S
C2828 H2832 0.950 . S
C2828 C2837 1.390 . S
C2829 C2828 1.387 . S
C2829 C2831 1.387 . S
H2830 C2837 0.950 . S
C2831 C2829 1.387 . S
C2831 C2833 1.390 . S
C2831 H2835 0.950 . S
H2832 C2828 0.950 . S
C2833 C2831 1.390 . S
C2833 C2834 1.387 . S
C2833 H2836 0.950 . S
C2834 C2833 1.387 . S
C2834 C2837 1.387 . S
H2835 C2831 0.950 . S
H2836 C2833 0.950 . S
C2837 C2828 1.390 . S
C2837 H2830 0.950 . S
C2837 C2834 1.387 . S
C2838 C2839 1.387 . S
C2838 H2842 0.950 . S
C2838 C2847 1.390 . S
C2839 C2838 1.387 . S
C2839 C2841 1.387 . S
H2840 C2847 0.950 . S
C2841 C2839 1.387 . S
C2841 C2843 1.390 . S
C2841 H2845 0.950 . S
H2842 C2838 0.950 . S
C2843 C2841 1.390 . S
C2843 C2844 1.387 . S
C2843 H2846 0.950 . S
C2844 C2843 1.387 . S
C2844 C2847 1.387 . S
H2845 C2841 0.950 . S
H2846 C2843 0.950 . S
C2847 C2838 1.390 . S
C2847 H2840 0.950 . S
C2847 C2844 1.387 . S
C2848 C2849 1.387 . S
C2848 H2852 0.950 . S
C2848 C2857 1.390 . S
C2849 C2848 1.387 . S
C2849 C2851 1.387 . S
H2850 C2857 0.950 . S
C2851 C2849 1.387 . S
C2851 C2853 1.390 . S
C2851 H2855 0.950 . S
H2852 C2848 0.950 . S
C2853 C2851 1.390 . S
C2853 C2854 1.387 . S
C2853 H2856 0.950 . S
C2854 C2853 1.387 . S
C2854 C2857 1.387 . S
H2855 C2851 0.950 . S
H2856 C2853 0.950 . S
C2857 C2848 1.390 . S
C2857 H2850 0.950 . S
C2857 C2854 1.387 . S
C2858 C2859 1.387 . S
C2858 H2862 0.950 . S
C2858 C2867 1.390 . S
C2859 C2858 1.387 . S
C2859 C2861 1.387 . S
H2860 C2867 0.950 . S
C2861 C2859 1.387 . S
C2861 C2863 1.390 . S
C2861 H2865 0.950 . S
H2862 C2858 0.950 . S
C2863 C2861 1.390 . S
C2863 C2864 1.387 . S
C2863 H2866 0.950 . S
C2864 C2863 1.387 . S
C2864 C2867 1.387 . S
H2865 C2861 0.950 . S
H2866 C2863 0.950 . S
C2867 C2858 1.390 . S
C2867 H2860 0.950 . S
C2867 C2864 1.387 . S
C2868 C2869 1.387 . S
C2868 H2872 0.950 . S
C2868 C2877 1.390 . S
C2869 C2868 1.387 . S
C2869 C2871 1.387 . S
H2870 C2877 0.950 . S
C2871 C2869 1.387 . S
C2871 C2873 1.390 . S
C2871 H2875 0.950 . S
H2872 C2868 0.950 . S
C2873 C2871 1.390 . S
C2873 C2874 1.387 . S
C2873 H2876 0.950 . S
C2874 C2873 1.387 . S
C2874 C2877 1.387 . S
H2875 C2871 0.950 . S
H2876 C2873 0.950 . S
C2877 C2868 1.390 . S
C2877 H2870 0.950 . S
C2877 C2874 1.387 . S
C2878 C2879 1.387 . S
C2878 H2882 0.950 . S
C2878 C2887 1.390 . S
C2879 C2878 1.387 . S
C2879 C2881 1.387 . S
H2880 C2887 0.950 . S
C2881 C2879 1.387 . S
C2881 C2883 1.390 . S
C2881 H2885 0.950 . S
H2882 C2878 0.950 . S
C2883 C2881 1.390 . S
C2883 C2884 1.387 . S
C2883 H2886 0.950 . S
C2884 C2883 1.387 . S
C2884 C2887 1.387 . S
H2885 C2881 0.950 . S
H2886 C2883 0.950 . S
C2887 C2878 1.390 . S
C2887 H2880 0.950 . S
C2887 C2884 1.387 . S
C2888 C2889 1.387 . S
C2888 H2892 0.950 . S
C2888 C2897 1.390 . S
C2889 C2888 1.387 . S
C2889 C2891 1.387 . S
H2890 C2897 0.950 . S
C2891 C2889 1.387 . S
C2891 C2893 1.390 . S
C2891 H2895 0.950 . S
H2892 C2888 0.950 . S
C2893 C2891 1.390 . S
C2893 C2894 1.387 . S
C2893 H2896 0.950 . S
C2894 C2893 1.387 . S
C2894 C2897 1.387 . S
H2895 C2891 0.950 . S
H2896 C2893 0.950 . S
C2897 C2888 1.390 . S
C2897 H2890 0.950 . S
C2897 C2894 1.387 . S
C2898 C2899 1.387 . S
C2898 H2902 0.950 . S
C2898 C2907 1.390 . S
C2899 C2898 1.387 . S
C2899 C2901 1.387 . S
H2900 C2907 0.950 . S
C2901 C2899 1.387 . S
C2901 C2903 1.390 . S
C2901 H2905 0.950 . S
H2902 C2898 0.950 . S
C2903 C2901 1.390 . S
C2903 C2904 1.387 . S
C2903 H2906 0.950 . S
C2904 C2903 1.387 . S
C2904 C2907 1.387 . S
H2905 C2901 0.950 . S
H2906 C2903 0.950 . S
C2907 C2898 1.390 . S
C2907 H2900 0.950 . S
C2907 C2904 1.387 . S
C2908 C2909 1.387 . S
C2908 H2912 0.950 . S
C2908 C2917 1.390 . S
C2909 C2908 1.387 . S
C2909 C2911 1.387 . S
H2910 C2917 0.950 . S
C2911 C2909 1.387 . S
C2911 C2913 1.390 . S
C2911 H2915 0.950 . S
H2912 C2908 0.950 . S
C2913 C2911 1.390 . S
C2913 C2914 1.387 . S
C2913 H2916 0.950 . S
C2914 C2913 1.387 . S
C2914 C2917 1.387 . S
H2915 C2911 0.950 . S
H2916 C2913 0.950 . S
C2917 C2908 1.390 . S
C2917 H2910 0.950 . S
C2917 C2914 1.387 . S
C2918 C2919 1.387 . S
C2918 H2922 0.950 . S
C2918 C2927 1.390 . S
C2919 C2918 1.387 . S
C2919 C2921 1.387 . S
H2920 C2927 0.950 . S
C2921 C2919 1.387 . S
C2921 C2923 1.390 . S
C2921 H2925 0.950 . S
H2922 C2918 0.950 . S
C2923 C2921 1.390 . S
C2923 C2924 1.387 . S
C2923 H2926 0.950 . S
C2924 C2923 1.387 . S
C2924 C2927 1.387 . S
H2925 C2921 0.950 . S
H2926 C2923 0.950 . S
C2927 C2918 1.390 . S
C2927 H2920 0.950 . S
C2927 C2924 1.387 . S
C2928 C2929 1.387 . S
C2928 H2932 0.950 . S
C2928 C2937 1.390 1_556 S
C2929 C2928 1.387 . S
C2929 C2931 1.387 . S
H2930 C2937 0.950 . S
C2931 C2929 1.387 . S
C2931 C2933 1.390 . S
C2931 H2935 0.950 . S
H2932 C2928 0.950 . S
C2933 C2931 1.390 . S
C2933 C2934 1.387 1_556 S
C2933 H2936 0.950 1_556 S
C2934 C2933 1.387 1_554 S
C2934 C2937 1.387 . S
H2935 C2931 0.950 . S
H2936 C2933 0.950 1_554 S
C2937 C2928 1.390 1_554 S
C2937 H2930 0.950 . S
C2937 C2934 1.387 . S
C2938 C2939 1.387 . S
C2938 H2942 0.950 . S
C2938 C2947 1.390 1_554 S
C2939 C2938 1.387 . S
C2939 C2941 1.346 1_554 S
H2940 C2947 0.950 . S
C2941 C2939 1.346 1_556 S
C2941 C2943 1.453 . S
C2941 H2945 0.931 1_556 S
H2942 C2938 0.950 . S
C2943 C2941 1.453 . S
C2943 C2944 1.387 . S
C2943 H2946 0.950 . S
C2944 C2943 1.387 . S
C2944 C2947 1.387 . S
H2945 C2941 0.931 1_554 S
H2946 C2943 0.950 . S
C2947 C2938 1.390 1_556 S
C2947 H2940 0.950 . S
C2947 C2944 1.387 . S
C2948 C2949 1.387 1_556 S
C2948 H2952 0.950 1_556 S
C2948 C2957 1.390 . S
C2949 C2948 1.387 1_554 S
C2949 C2951 1.387 . S
H2950 C2957 0.950 . S
C2951 C2949 1.387 . S
C2951 C2953 1.390 1_554 S
C2951 H2955 0.950 . S
H2952 C2948 0.950 1_554 S
C2953 C2951 1.390 1_556 S
C2953 C2954 1.387 . S
C2953 H2956 0.950 . S
C2954 C2953 1.387 . S
C2954 C2957 1.387 . S
H2955 C2951 0.950 . S
H2956 C2953 0.950 . S
C2957 C2948 1.390 . S
C2957 H2950 0.950 . S
C2957 C2954 1.387 . S
C2958 C2959 1.369 1_556 S
C2958 H2962 0.940 1_556 S
C2958 C2967 1.420 . S
C2959 C2958 1.369 1_554 S
C2959 C2961 1.387 . S
H2960 C2967 0.950 . S
C2961 C2959 1.387 . S
C2961 C2963 1.390 1_554 S
C2961 H2965 0.950 . S
H2962 C2958 0.940 1_554 S
C2963 C2961 1.390 1_556 S
C2963 C2964 1.387 . S
C2963 H2966 0.950 . S
C2964 C2963 1.387 . S
C2964 C2967 1.387 . S
H2965 C2961 0.950 . S
H2966 C2963 0.950 . S
C2967 C2958 1.420 . S
C2967 H2960 0.950 . S
C2967 C2964 1.387 . S
C2968 C2969 1.387 . S
C2968 H2972 0.950 . S
C2968 C2977 1.390 . S
C2969 C2968 1.387 . S
C2969 C2971 1.387 . S
H2970 C2977 0.950 1_556 S
C2971 C2969 1.387 . S
C2971 C2973 1.390 1_554 S
C2971 H2975 0.950 . S
H2972 C2968 0.950 . S
C2973 C2971 1.390 1_556 S
C2973 C2974 1.387 . S
C2973 H2976 0.950 . S
C2974 C2973 1.387 . S
C2974 C2977 1.387 1_556 S
H2975 C2971 0.950 . S
H2976 C2973 0.950 . S
C2977 C2968 1.390 . S
C2977 H2970 0.950 1_554 S
C2977 C2974 1.387 1_554 S
C2978 C2979 1.387 . S
C2978 H2982 0.950 . S
C2978 C2987 1.390 1_556 S
C2979 C2978 1.387 . S
C2979 C2981 1.382 1_556 S
H2980 C2987 0.950 . S
C2981 C2979 1.382 1_554 S
C2981 C2983 1.398 . S
C2981 H2985 0.947 1_554 S
H2982 C2978 0.950 . S
C2983 C2981 1.398 . S
C2983 C2984 1.387 . S
C2983 H2986 0.950 . S
C2984 C2983 1.387 . S
C2984 C2987 1.387 . S
H2985 C2981 0.947 1_556 S
H2986 C2983 0.950 . S
C2987 C2978 1.390 1_554 S
C2987 H2980 0.950 . S
C2987 C2984 1.387 . S
C2988 C2989 1.387 . S
C2988 H2992 0.950 . S
C2988 C2997 1.447 . S
C2989 C2988 1.387 . S
C2989 C2991 1.387 . S
H2990 C2997 0.932 1_556 S
C2991 C2989 1.387 . S
C2991 C2993 1.390 1_554 S
C2991 H2995 0.950 . S
H2992 C2988 0.950 . S
C2993 C2991 1.390 1_556 S
C2993 C2994 1.387 . S
C2993 H2996 0.950 . S
C2994 C2993 1.387 . S
C2994 C2997 1.351 1_556 S
H2995 C2991 0.950 . S
H2996 C2993 0.950 . S
C2997 C2988 1.447 . S
C2997 H2990 0.932 1_554 S
C2997 C2994 1.351 1_554 S
C2998 C2999 1.411 . S
C2998 H3002 0.967 . S
C2998 C3007 1.350 1_556 S
C2999 C2998 1.411 . S
C2999 C3001 1.387 . S
H3000 C3007 0.950 . S
C3001 C2999 1.387 . S
C3001 C3003 1.390 1_556 S
C3001 H3005 0.950 . S
H3002 C2998 0.967 . S
C3003 C3001 1.390 1_554 S
C3003 C3004 1.387 . S
C3003 H3006 0.950 . S
C3004 C3003 1.387 . S
C3004 C3007 1.387 . S
H3005 C3001 0.950 . S
H3006 C3003 0.950 . S
C3007 C2998 1.350 1_554 S
C3007 H3000 0.950 . S
C3007 C3004 1.387 . S
C3008 C3009 1.387 . S
C3008 H3012 0.950 . S
C3008 C3017 1.390 1_655 S
C3009 C3008 1.387 . S
C3009 C3011 1.387 . S
H3010 C3017 0.950 . S
C3011 C3009 1.387 . S
C3011 C3013 1.449 . S
C3011 H3015 0.950 . S
H3012 C3008 0.950 . S
C3013 C3011 1.449 . S
C3013 C3014 1.349 1_655 S
C3013 H3016 0.932 1_655 S
C3014 C3013 1.349 1_455 S
C3014 C3017 1.387 . S
H3015 C3011 0.950 . S
H3016 C3013 0.932 1_455 S
C3017 C3008 1.390 1_455 S
C3017 H3010 0.950 . S
C3017 C3014 1.387 . S
C3018 C3019 1.387 . S
C3018 H3022 0.950 . S
C3018 C3027 1.390 1_545 S
C3019 C3018 1.387 . S
C3019 C3021 1.359 1_545 S
H3020 C3027 0.950 . S
C3021 C3019 1.359 1_565 S
C3021 C3023 1.435 . S
C3021 H3025 0.935 1_565 S
H3022 C3018 0.950 . S
C3023 C3021 1.435 . S
C3023 C3024 1.387 . S
C3023 H3026 0.950 . S
C3024 C3023 1.387 . S
C3024 C3027 1.387 . S
H3025 C3021 0.935 1_545 S
H3026 C3023 0.950 . S
C3027 C3018 1.390 1_565 S
C3027 H3020 0.950 . S
C3027 C3024 1.387 . S
C3028 C3029 1.387 . S
C3028 H3032 0.950 . S
C3028 C3037 1.390 1_455 S
C3029 C3028 1.387 . S
C3029 C3031 1.387 . S
H3030 C3037 0.950 . S
C3031 C3029 1.387 . S
C3031 C3033 1.407 . S
C3031 H3035 0.950 . S
H3032 C3028 0.950 . S
C3033 C3031 1.407 . S
C3033 C3034 1.377 1_455 S
C3033 H3036 0.944 1_455 S
C3034 C3033 1.377 1_655 S
C3034 C3037 1.387 . S
H3035 C3031 0.950 . S
H3036 C3033 0.944 1_655 S
C3037 C3028 1.390 1_655 S
C3037 H3030 0.950 . S
C3037 C3034 1.387 . S
C3038 C3039 1.387 . S
C3038 H3042 0.950 . S
C3038 C3047 1.390 1_565 S
C3039 C3038 1.387 . S
C3039 C3041 1.348 1_565 S
H3040 C3047 0.950 . S
C3041 C3039 1.348 1_545 S
C3041 C3043 1.450 . S
C3041 H3045 0.931 1_545 S
H3042 C3038 0.950 . S
C3043 C3041 1.450 . S
C3043 C3044 1.387 . S
C3043 H3046 0.950 . S
C3044 C3043 1.387 . S
C3044 C3047 1.387 . S
H3045 C3041 0.931 1_565 S
H3046 C3043 0.950 . S
C3047 C3038 1.390 1_545 S
C3047 H3040 0.950 . S
C3047 C3044 1.387 . S
C3048 C3049 1.387 . S
C3048 H3052 0.950 . S
C3048 C3057 1.390 1_455 S
C3049 C3048 1.387 . S
C3049 C3051 1.387 . S
H3050 C3057 0.950 . S
C3051 C3049 1.387 . S
C3051 C3053 1.390 1_455 S
C3051 H3055 0.950 . S
H3052 C3048 0.950 . S
C3053 C3051 1.390 1_655 S
C3053 C3054 1.387 . S
C3053 H3056 0.950 . S
C3054 C3053 1.387 . S
C3054 C3057 1.387 . S
H3055 C3051 0.950 . S
H3056 C3053 0.950 . S
C3057 C3048 1.390 1_655 S
C3057 H3050 0.950 . S
C3057 C3054 1.387 . S
C3058 C3059 1.410 . S
C3058 H3062 0.966 . S
C3058 C3067 1.352 1_545 S
C3059 C3058 1.410 . S
C3059 C3061 1.387 . S
H3060 C3067 0.950 . S
C3061 C3059 1.387 . S
C3061 C3063 1.390 1_545 S
C3061 H3065 0.950 . S
H3062 C3058 0.966 . S
C3063 C3061 1.390 1_565 S
C3063 C3064 1.387 . S
C3063 H3066 0.950 . S
C3064 C3063 1.387 . S
C3064 C3067 1.387 . S
H3065 C3061 0.950 . S
H3066 C3063 0.950 . S
C3067 C3058 1.352 1_565 S
C3067 H3060 0.950 . S
C3067 C3064 1.387 . S
C3068 C3069 1.387 . S
C3068 H3072 0.950 . S
C3068 C3077 1.390 1_655 S
C3069 C3068 1.387 . S
C3069 C3071 1.387 . S
H3070 C3077 0.950 . S
C3071 C3069 1.387 . S
C3071 C3073 1.390 1_655 S
C3071 H3075 0.950 . S
H3072 C3068 0.950 . S
C3073 C3071 1.390 1_455 S
C3073 C3074 1.387 . S
C3073 H3076 0.950 . S
C3074 C3073 1.387 . S
C3074 C3077 1.387 . S
H3075 C3071 0.950 . S
H3076 C3073 0.950 . S
C3077 C3068 1.390 1_455 S
C3077 H3070 0.950 . S
C3077 C3074 1.387 . S
C3078 C3079 1.387 1_545 S
C3078 H3082 0.950 1_545 S
C3078 C3087 1.390 . S
C3079 C3078 1.387 1_565 S
C3079 C3081 1.387 . S
H3080 C3087 0.950 . S
C3081 C3079 1.387 . S
C3081 C3083 1.390 1_565 S
C3081 H3085 0.950 . S
H3082 C3078 0.950 1_565 S
C3083 C3081 1.390 1_545 S
C3083 C3084 1.387 . S
C3083 H3086 0.950 . S
C3084 C3083 1.387 . S
C3084 C3087 1.387 . S
H3085 C3081 0.950 . S
H3086 C3083 0.950 . S
C3087 C3078 1.390 . S
C3087 H3080 0.950 . S
C3087 C3084 1.387 . S
C3088 C3089 1.387 . S
C3088 H3092 0.950 . S
C3088 C3097 1.403 . S
C3089 C3088 1.387 . S
C3089 C3091 1.387 . S
H3090 C3097 0.945 1_545 S
C3091 C3089 1.387 . S
C3091 C3093 1.390 1_565 S
C3091 H3095 0.950 . S
H3092 C3088 0.950 . S
C3093 C3091 1.390 1_545 S
C3093 C3094 1.387 . S
C3093 H3096 0.950 . S
C3094 C3093 1.387 . S
C3094 C3097 1.380 1_545 S
H3095 C3091 0.950 . S
H3096 C3093 0.950 . S
C3097 C3088 1.403 . S
C3097 H3090 0.945 1_565 S
C3097 C3094 1.380 1_565 S
C3098 C3099 1.387 . S
C3098 H3102 0.950 . S
C3098 C3107 1.390 1_565 S
C3099 C3098 1.387 . S
C3099 C3101 1.405 . S
H3100 C3107 0.950 . S
C3101 C3099 1.405 . S
C3101 C3103 1.361 1_565 S
C3101 H3105 0.962 . S
H3102 C3098 0.950 . S
C3103 C3101 1.361 1_545 S
C3103 C3104 1.387 . S
C3103 H3106 0.950 . S
C3104 C3103 1.387 . S
C3104 C3107 1.387 . S
H3105 C3101 0.962 . S
H3106 C3103 0.950 . S
C3107 C3098 1.390 1_545 S
C3107 H3100 0.950 . S
C3107 C3104 1.387 . S
C3108 C3109 1.387 1_655 S
C3108 H3112 0.950 1_655 S
C3108 C3117 1.390 . S
C3109 C3108 1.387 1_455 S
C3109 C3111 1.387 . S
H3110 C3117 0.950 . S
C3111 C3109 1.387 . S
C3111 C3113 1.390 1_455 S
C3111 H3115 0.950 . S
H3112 C3108 0.950 1_455 S
C3113 C3111 1.390 1_655 S
C3113 C3114 1.387 . S
C3113 H3116 0.950 . S
C3114 C3113 1.387 . S
C3114 C3117 1.387 . S
H3115 C3111 0.950 . S
H3116 C3113 0.950 . S
C3117 C3108 1.390 . S
C3117 H3110 0.950 . S
C3117 C3114 1.387 . S
C3118 C3119 1.387 . S
C3118 H3122 0.950 . S
C3118 C3127 1.390 1_545 S
C3119 C3118 1.387 . S
C3119 C3121 1.364 1_545 S
H3120 C3127 0.950 . S
C3121 C3119 1.364 1_565 S
C3121 C3123 1.426 . S
C3121 H3125 0.938 1_565 S
H3122 C3118 0.950 . S
C3123 C3121 1.426 . S
C3123 C3124 1.387 . S
C3123 H3126 0.950 . S
C3124 C3123 1.387 . S
C3124 C3127 1.387 . S
H3125 C3121 0.938 1_545 S
H3126 C3123 0.950 . S
C3127 C3118 1.390 1_565 S
C3127 H3120 0.950 . S
C3127 C3124 1.387 . S
C3128 C3129 1.400 . S
C3128 H3132 0.959 . S
C3128 C3137 1.369 1_655 S
C3129 C3128 1.400 . S
C3129 C3131 1.387 . S
H3130 C3137 0.950 . S
C3131 C3129 1.387 . S
C3131 C3133 1.390 1_655 S
C3131 H3135 0.950 . S
H3132 C3128 0.959 . S
C3133 C3131 1.390 1_455 S
C3133 C3134 1.387 . S
C3133 H3136 0.950 . S
C3134 C3133 1.387 . S
C3134 C3137 1.387 . S
H3135 C3131 0.950 . S
H3136 C3133 0.950 . S
C3137 C3128 1.369 1_455 S
C3137 H3130 0.950 . S
C3137 C3134 1.387 . S
C3138 C3139 1.387 . S
C3138 H3142 0.950 . S
C3138 C3147 1.390 1_545 S
C3139 C3138 1.387 . S
C3139 C3141 1.387 . S
H3140 C3147 0.950 . S
C3141 C3139 1.387 . S
C3141 C3143 1.390 . S
C3141 H3145 0.950 . S
H3142 C3138 0.950 . S
C3143 C3141 1.390 . S
C3143 C3144 1.388 1_545 S
C3143 H3146 0.950 1_545 S
C3144 C3143 1.388 1_565 S
C3144 C3147 1.387 . S
H3145 C3141 0.950 . S
H3146 C3143 0.950 1_565 S
C3147 C3138 1.390 1_565 S
C3147 H3140 0.950 . S
C3147 C3144 1.387 . S
C3148 C3149 1.387 . S
C3148 H3152 0.950 . S
C3148 C3157 1.390 1_655 S
C3149 C3148 1.387 . S
C3149 C3151 1.387 . S
H3150 C3157 0.950 . S
C3151 C3149 1.387 . S
C3151 C3153 1.390 1_655 S
C3151 H3155 0.950 . S
H3152 C3148 0.950 . S
C3153 C3151 1.390 1_455 S
C3153 C3154 1.387 . S
C3153 H3156 0.950 . S
C3154 C3153 1.387 . S
C3154 C3157 1.387 . S
H3155 C3151 0.950 . S
H3156 C3153 0.950 . S
C3157 C3148 1.390 1_455 S
C3157 H3150 0.950 . S
C3157 C3154 1.387 . S
C3158 C3159 1.406 . S
C3158 H3162 0.963 . S
C3158 C3167 1.359 1_655 S
C3159 C3158 1.406 . S
C3159 C3161 1.387 . S
H3160 C3167 0.950 . S
C3161 C3159 1.387 . S
C3161 C3163 1.390 1_655 S
C3161 H3165 0.950 . S
H3162 C3158 0.963 . S
C3163 C3161 1.390 1_455 S
C3163 C3164 1.387 . S
C3163 H3166 0.950 . S
C3164 C3163 1.387 . S
C3164 C3167 1.387 . S
H3165 C3161 0.950 . S
H3166 C3163 0.950 . S
C3167 C3158 1.359 1_455 S
C3167 H3160 0.950 . S
C3167 C3164 1.387 . S
C1249 C3 1.335 . S
C1254 C408 1.379 . S
C1259 C16 1.337 . S
C1264 C369 1.381 . S
C1269 C380 1.379 . S
C1274 C29 1.335 . S
C1279 C393 1.379 . S
C1284 C44 1.335 . S
C1289 C330 1.379 . S
C1294 C57 1.335 . S
C1299 C341 1.381 . S
C1304 C68 1.336 . S
C1309 C83 1.338 . S
C1314 C354 1.381 . S
C1319 C315 1.381 . S
C1324 C96 1.336 . S
C1329 C108 1.332 . S
C1334 C576 1.379 . S
C1339 C122 1.338 . S
C1344 C536 1.381 . S
C1349 C134 1.332 . S
C1354 C550 1.379 . S
C1359 C148 1.337 . S
C1364 C564 1.381 . S
C1369 C166 1.333 . S
C1374 C615 1.382 . S
C1379 C174 1.335 . S
C1384 C590 1.379 . S
C1389 C192 1.334 . S
C1394 C602 1.381 . S
C1399 C523 1.381 . S
C1404 C198 1.338 . S
C1409 C211 1.337 . S
C1414 C510 1.381 . S
C1419 C432 1.381 . S
C1424 C226 1.336 . S
C1429 C452 1.379 . S
C1434 C244 1.331 . S
C1439 C252 1.338 . S
C1444 C458 1.381 . S
C1449 C426 1.381 . S
C1454 C264 1.331 . S
C1459 C486 1.379 . S
C1464 C278 1.335 . S
C1469 C296 1.332 . S
C1474 C504 1.381 . S
C1479 C309 1.330 . S
C1484 C472 1.380 . S
C1489 C1032 1.381 . S
C1494 C629 1.338 . S
C1499 C993 1.381 . S
C1504 C642 1.338 . S
C1509 C655 1.338 . S
C1514 C1006 1.381 . S
C1519 C1017 1.381 . S
C1524 C666 1.336 . S
C1529 C681 1.335 . S
C1534 C954 1.380 . S
C1539 C694 1.335 . S
C1544 C965 1.379 . S
C1549 C980 1.379 . S
C1554 C705 1.335 . S
C1559 C939 1.381 . S
C1564 C720 1.336 . S
C1569 C1200 1.380 . S
C1574 C738 1.330 . S
C1579 C1162 1.379 . S
C1584 C746 1.335 . S
C1589 C764 1.330 . S
C1594 C1180 1.380 . S
C1599 C772 1.338 . S
C1604 C1186 1.381 . S
C1609 C1239 1.381 . S
C1614 C784 1.334 . S
C1619 C1214 1.381 . S
C1624 C798 1.338 . S
C1629 C1232 1.381 . S
C1634 C810 1.334 . S
C1639 C822 1.338 . S
C1644 C1149 1.381 . S
C1649 C1134 1.379 . S
C1654 C837 1.335 . S
C1659 C848 1.337 . S
C1664 C1058 1.381 . S
C1669 C1076 1.381 . S
C1674 C862 1.334 . S
C1679 C1082 1.380 . S
C1684 C874 1.337 . S
C1689 C1044 1.380 . S
C1694 C888 1.334 . S
C1699 C902 1.334 . S
C1704 C1108 1.380 . S
C1709 C914 1.330 . S
C1714 C1122 1.380 . S
C1719 C1096 1.379 . S
C1724 C933 1.332 . S
C1729 C4 1.954 . S
C1734 C887 1.962 . S
C1739 C17 1.952 . S
C1744 C849 1.953 . S
C1749 C30 1.953 . S
C1754 C861 1.962 . S
C1759 C49 1.953 . S
C1764 C875 1.952 . S
C1769 C928 1.962 . S
C1774 C62 1.953 . S
C1779 C69 1.953 . S
C1784 C907 1.951 . S
C1789 C913 1.962 . S
C1794 C88 1.952 . S
C1799 C101 1.951 . S
C1804 C842 1.950 . S
C1809 C823 1.954 . S
C1814 C107 1.962 . S
C1819 C127 1.955 . S
C1824 C783 1.962 . S
C1829 C803 1.953 . S
C1834 C133 1.959 . S
C1839 C153 1.953 . S
C1844 C809 1.962 . S
C1849 C161 1.960 . S
C1854 C751 1.954 . S
C1859 C179 1.952 . S
C1864 C759 1.961 . S
C1869 C777 1.954 . S
C1874 C187 1.960 . S
C1879 C733 1.962 . S
C1884 C199 1.953 . S
C1889 C212 1.950 . S
C1894 C725 1.950 . S
C1899 C231 1.950 . S
C1904 C647 1.951 . S
C1909 C239 1.962 . S
C1914 C660 1.954 . S
C1919 C257 1.953 . S
C1924 C667 1.951 . S
C1929 C263 1.962 . S
C1934 C634 1.954 . S
C1939 C699 1.953 . S
C1944 C283 1.953 . S
C1949 C706 1.953 . S
C1954 C291 1.959 . S
C1959 C304 1.962 . S
C1964 C686 1.954 . S
C1969 C322 1.382 . S
C1974 C1201 1.377 . S
C1979 C329 1.381 . S
C1984 C1161 1.381 . S
C1989 C348 1.382 . S
C1994 C1173 1.378 . S
C1999 C361 1.381 . S
C2004 C1193 1.381 . S
C2009 C368 1.381 . S
C2014 C1240 1.376 . S
C2019 C1213 1.381 . S
C2024 C387 1.381 . S
C2029 C400 1.381 . S
C2034 C1225 1.376 . S
C2039 C407 1.381 . S
C2044 C1148 1.380 . S
C2049 C1141 1.381 . S
C2054 C419 1.376 . S
C2059 C1097 1.376 . S
C2064 C439 1.381 . S
C2069 C1115 1.382 . S
C2074 C445 1.377 . S
C2079 C1123 1.377 . S
C2084 C465 1.381 . S
C2089 C473 1.378 . S
C2094 C1057 1.382 . S
C2099 C485 1.382 . S
C2104 C1069 1.376 . S
C2109 C497 1.376 . S
C2114 C1089 1.381 . S
C2119 C1045 1.377 . S
C2124 C517 1.381 . S
C2129 C1031 1.381 . S
C2134 C530 1.380 . S
C2139 C543 1.381 . S
C2144 C953 1.381 . S
C2149 C972 1.382 . S
C2154 C551 1.378 . S
C2159 C979 1.382 . S
C2164 C563 1.382 . S
C2169 C577 1.376 . S
C2174 C946 1.381 . S
C2179 C589 1.381 . S
C2184 C1005 1.380 . S
C2189 C1024 1.381 . S
C2194 C603 1.377 . S
C2199 C616 1.376 . S
C2204 C992 1.381 . S
C2209 C10 1.841 . S
C2214 C374 1.797 . S
C2219 C23 1.839 . S
C2224 C381 1.793 . S
C2229 C36 1.841 . S
C2234 C394 1.796 . S
C2239 C43 1.839 . S
C2244 C413 1.794 . S
C2249 C316 1.797 . S
C2254 C56 1.842 . S
C2259 C75 1.839 . S
C2264 C335 1.794 . S
C2269 C342 1.798 . S
C2274 C82 1.841 . S
C2279 C355 1.793 . S
C2284 C95 1.839 . S
C2289 C109 1.841 . S
C2294 C499 1.810 . S
C2299 C511 1.797 . S
C2304 C121 1.842 . S
C2309 C135 1.842 . S
C2314 C471 1.810 . S
C2319 C147 1.842 . S
C2324 C491 1.797 . S
C2329 C159 1.841 . S
C2334 C447 1.810 . S
C2339 C173 1.842 . S
C2344 C459 1.796 . S
C2349 C185 1.840 . S
C2354 C421 1.811 . S
C2359 C433 1.797 . S
C2364 C205 1.842 . S
C2369 C218 1.838 . S
C2374 C595 1.794 . S
C2379 C225 1.838 . S
C2384 C569 1.794 . S
C2389 C575 1.810 . S
C2394 C237 1.841 . S
C2399 C251 1.838 . S
C2404 C537 1.794 . S
C2409 C549 1.810 . S
C2414 C265 1.842 . S
C2419 C277 1.838 . S
C2424 C524 1.793 . S
C2429 C614 1.810 . S
C2434 C289 1.842 . S
C2439 C601 1.811 . S
C2444 C302 1.841 . S
C2449 C628 1.841 . S
C2454 C998 1.797 . S
C2459 C641 1.839 . S
C2464 C1011 1.793 . S
C2469 C654 1.842 . S
C2474 C1018 1.797 . S
C2479 C1037 1.794 . S
C2484 C673 1.838 . S
C2489 C680 1.842 . S
C2494 C940 1.797 . S
C2499 C693 1.839 . S
C2504 C959 1.794 . S
C2509 C712 1.842 . S
C2514 C966 1.797 . S
C2519 C719 1.838 . S
C2524 C985 1.793 . S
C2529 C731 1.842 . S
C2534 C1121 1.810 . S
C2539 C1135 1.797 . S
C2544 C745 1.841 . S
C2549 C1095 1.812 . S
C2554 C757 1.840 . S
C2559 C1109 1.796 . S
C2564 C771 1.841 . S
C2569 C785 1.842 . S
C2574 C1071 1.810 . S
C2579 C1083 1.797 . S
C2584 C797 1.841 . S
C2589 C811 1.840 . S
C2594 C1043 1.811 . S
C2599 C1063 1.796 . S
C2604 C829 1.841 . S
C2609 C1219 1.794 . S
C2614 C836 1.839 . S
C2619 C1187 1.792 . S
C2624 C855 1.839 . S
C2629 C863 1.840 . S
C2634 C1199 1.811 . S
C2639 C881 1.838 . S
C2644 C1167 1.792 . S
C2649 C1175 1.811 . S
C2654 C889 1.840 . S
C2659 C901 1.838 . S
C2664 C1154 1.794 . S
C2669 C1238 1.810 . S
C2674 C915 1.842 . S
C2679 C1227 1.812 . S
C2684 C926 1.840 . S
C2689 C343 1.434 . S
C2694 C5 1.435 . S
C2699 C18 1.443 . S
C2704 C356 1.443 . S
C2709 C317 1.436 . S
C2714 C31 1.436 . S
C2719 C42 1.440 . S
C2724 C328 1.442 . S
C2729 C395 1.435 . S
C2734 C55 1.433 . S
C2739 C406 1.442 . S
C2744 C70 1.440 . S
C2749 C81 1.434 . S
C2754 C367 1.436 . S
C2759 C382 1.443 . S
C2764 C94 1.442 . S
C2769 C114 1.432 . S
C2774 C478 1.432 . S
C2779 C120 1.435 . S
C2784 C484 1.436 . S
C2789 C498 1.432 . S
C2794 C140 1.433 . S
C2799 C146 1.435 . S
C2804 C512 1.436 . S
C2809 C160 1.432 . S
C2814 C420 1.432 . S
C2819 C434 1.434 . S
C2824 C172 1.434 . S
C2829 C446 1.432 . S
C2834 C186 1.432 . S
C2839 C460 1.436 . S
C2844 C200 1.435 . S
C2849 C213 1.442 . S
C2854 C562 1.441 . S
C2859 C588 1.441 . S
C2864 C224 1.440 . S
C2869 C238 1.434 . S
C2874 C608 1.434 . S
C2879 C525 1.442 . S
C2884 C250 1.440 . S
C2889 C621 1.432 . S
C2894 C270 1.433 . S
C2899 C538 1.441 . S
C2904 C276 1.440 . S
C2909 C290 1.434 . S
C2914 C556 1.434 . S
C2919 C303 1.432 . S
C2924 C582 1.432 . S
C2929 C627 1.434 . S
C2934 C967 1.436 . S
C2939 C978 1.443 . S
C2944 C640 1.441 . S
C2949 C941 1.434 . S
C2954 C653 1.435 . S
C2959 C952 1.442 . S
C2964 C668 1.443 . S
C2969 C679 1.435 . S
C2974 C1019 1.434 . S
C2979 C1030 1.442 . S
C2984 C692 1.440 . S
C2989 C707 1.435 . S
C2994 C991 1.434 . S
C2999 C1004 1.443 . S
C3004 C718 1.443 . S
C3009 C732 1.433 . S
C3014 C1102 1.434 . S
C3019 C1110 1.436 . S
C3024 C744 1.435 . S
C3029 C758 1.432 . S
C3034 C1128 1.433 . S
C3039 C1136 1.435 . S
C3044 C770 1.433 . S
C3049 C1050 1.432 . S
C3054 C790 1.432 . S
C3059 C1056 1.434 . S
C3064 C796 1.434 . S
C3069 C1070 1.434 . S
C3074 C816 1.434 . S
C3079 C1084 1.434 . S
C3084 C824 1.435 . S
C3089 C835 1.441 . S
C3094 C1188 1.441 . S
C3099 C1212 1.442 . S
C3104 C850 1.440 . S
C3109 C1226 1.432 . S
C3114 C868 1.434 . S
C3119 C1147 1.442 . S
C3124 C876 1.440 . S
C3129 C1245 1.432 . S
C3134 C894 1.432 . S
C3139 C900 1.440 . S
C3144 C1160 1.442 . S
C3149 C920 1.432 . S
C3154 C1174 1.432 . S
C3159 C1206 1.432 . S
C3164 C927 1.432 . S
