# Generated by pormake.
# Topology wkf, (6)-cn, num edge types: 1
# Building blocks:
#     Node 0, Type 0, BuildingBlock: KUMJIN_clean_sbu_1, # of connection points: 6
#     Node 1, Type 0, BuildingBlock: KUMJIN_clean_sbu_1, # of connection points: 6
#     Node 2, Type 0, BuildingBlock: KUMJIN_clean_sbu_1, # of connection points: 6
#     Node 3, Type 0, BuildingBlock: KUMJIN_clean_sbu_1, # of connection points: 6
#     Node 4, Type 0, BuildingBlock: KUMJIN_clean_sbu_1, # of connection points: 6
#     Node 5, Type 0, BuildingBlock: KUMJIN_clean_sbu_1, # of connection points: 6
#     Node 6, Type 0, BuildingBlock: KUMJIN_clean_sbu_1, # of connection points: 6
#     Node 7, Type 0, BuildingBlock: KUMJIN_clean_sbu_1, # of connection points: 6
#     Node 8, Type 0, BuildingBlock: KUMJIN_clean_sbu_1, # of connection points: 6
#     Node 9, Type 0, BuildingBlock: KUMJIN_clean_sbu_1, # of connection points: 6
#     Node 10, Type 0, BuildingBlock: KUMJIN_clean_sbu_1, # of connection points: 6
#     Node 11, Type 0, BuildingBlock: KUMJIN_clean_sbu_1, # of connection points: 6
#     Edge 12, Type (0, 0), BuildingBlock: XUDNAN_clean_linker_2, # of connection points: 2
#     Edge 13, Type (0, 0), BuildingBlock: XUDNAN_clean_linker_2, # of connection points: 2
#     Edge 14, Type (0, 0), BuildingBlock: XUDNAN_clean_linker_2, # of connection points: 2
#     Edge 15, Type (0, 0), BuildingBlock: XUDNAN_clean_linker_2, # of connection points: 2
#     Edge 16, Type (0, 0), BuildingBlock: XUDNAN_clean_linker_2, # of connection points: 2
#     Edge 17, Type (0, 0), BuildingBlock: XUDNAN_clean_linker_2, # of connection points: 2
#     Edge 18, Type (0, 0), BuildingBlock: XUDNAN_clean_linker_2, # of connection points: 2
#     Edge 19, Type (0, 0), BuildingBlock: XUDNAN_clean_linker_2, # of connection points: 2
#     Edge 20, Type (0, 0), BuildingBlock: XUDNAN_clean_linker_2, # of connection points: 2
#     Edge 21, Type (0, 0), BuildingBlock: XUDNAN_clean_linker_2, # of connection points: 2
#     Edge 22, Type (0, 0), BuildingBlock: XUDNAN_clean_linker_2, # of connection points: 2
#     Edge 23, Type (0, 0), BuildingBlock: XUDNAN_clean_linker_2, # of connection points: 2
#     Edge 24, Type (0, 0), BuildingBlock: XUDNAN_clean_linker_2, # of connection points: 2
#     Edge 25, Type (0, 0), BuildingBlock: XUDNAN_clean_linker_2, # of connection points: 2
#     Edge 26, Type (0, 0), BuildingBlock: XUDNAN_clean_linker_2, # of connection points: 2
#     Edge 27, Type (0, 0), BuildingBlock: XUDNAN_clean_linker_2, # of connection points: 2
#     Edge 28, Type (0, 0), BuildingBlock: XUDNAN_clean_linker_2, # of connection points: 2
#     Edge 29, Type (0, 0), BuildingBlock: XUDNAN_clean_linker_2, # of connection points: 2
#     Edge 30, Type (0, 0), BuildingBlock: XUDNAN_clean_linker_2, # of connection points: 2
#     Edge 31, Type (0, 0), BuildingBlock: XUDNAN_clean_linker_2, # of connection points: 2
#     Edge 32, Type (0, 0), BuildingBlock: XUDNAN_clean_linker_2, # of connection points: 2
#     Edge 33, Type (0, 0), BuildingBlock: XUDNAN_clean_linker_2, # of connection points: 2
#     Edge 34, Type (0, 0), BuildingBlock: XUDNAN_clean_linker_2, # of connection points: 2
#     Edge 35, Type (0, 0), BuildingBlock: XUDNAN_clean_linker_2, # of connection points: 2
#     Edge 36, Type (0, 0), BuildingBlock: XUDNAN_clean_linker_2, # of connection points: 2
#     Edge 37, Type (0, 0), BuildingBlock: XUDNAN_clean_linker_2, # of connection points: 2
#     Edge 38, Type (0, 0), BuildingBlock: XUDNAN_clean_linker_2, # of connection points: 2
#     Edge 39, Type (0, 0), BuildingBlock: XUDNAN_clean_linker_2, # of connection points: 2
#     Edge 40, Type (0, 0), BuildingBlock: XUDNAN_clean_linker_2, # of connection points: 2
#     Edge 41, Type (0, 0), BuildingBlock: XUDNAN_clean_linker_2, # of connection points: 2
#     Edge 42, Type (0, 0), BuildingBlock: XUDNAN_clean_linker_2, # of connection points: 2
#     Edge 43, Type (0, 0), BuildingBlock: XUDNAN_clean_linker_2, # of connection points: 2
#     Edge 44, Type (0, 0), BuildingBlock: XUDNAN_clean_linker_2, # of connection points: 2
#     Edge 45, Type (0, 0), BuildingBlock: XUDNAN_clean_linker_2, # of connection points: 2
#     Edge 46, Type (0, 0), BuildingBlock: XUDNAN_clean_linker_2, # of connection points: 2
#     Edge 47, Type (0, 0), BuildingBlock: XUDNAN_clean_linker_2, # of connection points: 2
# Relax obj value: 0.238
# Max RMSD: 0.285
# Mean RMSD: 0.278
data_MOF--net-wkf--node1-KUMJIN_clean_sbu_1--edge1-XUDNAN_clean_linker_2
_symmetry_space_group_name_H-M    P1
_symmetry_Int_Tables_number       1
_symmetry_cell_setting            triclinic
loop_
_symmetry_equiv_pos_as_xyz
'x, y, z'
_cell_length_a     29.999788
_cell_length_b     30.031066
_cell_length_c     88.175073
_cell_angle_alpha  89.885797
_cell_angle_beta   90.043577
_cell_angle_gamma 119.42347
loop_
_atom_site_label
_atom_site_type_symbol
_atom_site_fract_x
_atom_site_fract_y
_atom_site_fract_z
_atom_type_partial_charge
Eu0 Eu 0.42487 0.95191 0.34871 0.0
C1 C 0.64527 0.98279 0.35578 0.0
N2 N 0.61935 0.97086 0.36907 0.0
C3 C 0.67641 0.94362 0.3793 0.0
C4 C 0.68895 0.97706 0.35386 0.0
C5 C 0.6333 0.94976 0.38062 0.0
C6 C 0.7049 0.95811 0.36595 0.0
C7 C 0.64882 1.00499 0.32928 0.0
C8 C 0.62545 0.99646 0.34371 0.0
C9 C 0.69404 1.00248 0.32751 0.0
C10 C 0.71403 0.98841 0.33979 0.0
Eu11 Eu 0.54932 0.98685 0.37122 0.0
N12 N 0.58069 0.99667 0.34573 0.0
C13 C 0.6247 1.01324 0.31691 0.0
C14 C 0.5552 1.00027 0.33341 0.0
C15 C 0.57707 1.00973 0.31893 0.0
H16 H 0.6113 0.937 0.39093 0.0
H17 H 0.55686 1.01334 0.30927 0.0
H18 H 0.47735 1.00736 0.3149 0.0
H19 H 0.26096 0.94587 0.37773 0.0
H20 H 0.51731 0.99427 0.33466 0.0
H21 H 0.64127 1.01981 0.30566 0.0
H22 H 0.32316 0.91689 0.37178 0.0
H23 H 0.68741 0.92735 0.38857 0.0
H24 H 0.7127 1.00941 0.31656 0.0
H25 H 0.74788 0.98474 0.33815 0.0
H26 H 0.47617 0.07125 0.29749 0.0
H27 H 0.73803 0.95289 0.3649 0.0
H28 H 0.2627 1.01742 0.36333 0.0
N29 N 0.42986 1.01489 0.33143 0.0
C30 C 0.39673 0.03282 0.33434 0.0
C31 C 0.45452 0.06155 0.30794 0.0
C32 C 0.39407 0.06864 0.32451 0.0
C33 C 0.45597 1.02615 0.31796 0.0
C34 C 0.42408 0.08348 0.31134 0.0
N35 N 0.36068 0.97281 0.35456 0.0
C36 C 0.32432 0.94841 0.3655 0.0
C37 C 0.32639 1.0287 0.34916 0.0
C38 C 0.36198 1.01179 0.34632 0.0
C39 C 0.29043 1.00527 0.36078 0.0
C40 C 0.28916 0.96472 0.3689 0.0
H41 H 0.42265 0.11051 0.30347 0.0
H42 H 0.35814 0.11491 0.32041 0.0
H43 H 0.29979 0.08087 0.34217 0.0
O44 O 0.34576 0.89758 0.34149 0.0
O45 O 0.42417 0.98327 0.37288 0.0
O46 O 0.51027 1.03068 0.37773 0.0
O47 O 0.40829 0.90928 0.32719 0.0
O48 O 0.40074 0.89929 0.36962 0.0
O49 O 0.47671 0.92316 0.38252 0.0
O50 O 0.61235 0.04586 0.38483 0.0
O51 O 0.51632 0.90458 0.36411 0.0
O52 O 0.46911 0.90485 0.34349 0.0
O53 O 0.55862 0.97373 0.39486 0.0
O54 O 0.56008 0.06186 0.3598 0.0
O55 O 0.48527 0.04136 0.34664 0.0
C56 C 0.46331 1.02037 0.38022 0.0
C57 C 0.32761 0.88324 0.31468 0.0
C58 C 0.2669 0.83631 0.29377 0.0
C59 C 0.27583 0.88331 0.28782 0.0
C60 C 0.33329 0.92862 0.3084 0.0
C61 C 0.3083 0.92883 0.29513 0.0
C62 C 0.29303 0.83623 0.30735 0.0
C63 C 0.42624 0.8951 0.38128 0.0
C64 C 0.35844 0.88592 0.32857 0.0
C65 C 0.35997 0.08675 0.3277 0.0
C66 C 0.32661 0.06722 0.34007 0.0
C67 C 0.49437 0.88496 0.35111 0.0
C68 C 0.57885 0.04649 0.40937 0.0
C69 C 0.59944 0.11971 0.42559 0.0
C70 C 0.55072 0.09338 0.43218 0.0
C71 C 0.52973 1.02096 0.41602 0.0
C72 C 0.61343 0.09635 0.41413 0.0
C73 C 0.51606 0.04421 0.42733 0.0
C74 C 0.53218 0.0761 0.35134 0.0
C75 C 0.59289 1.02091 0.39742 0.0
H76 H 0.25639 0.88471 0.27761 0.0
H77 H 0.35698 0.9644 0.31369 0.0
H78 H 0.31392 0.9647 0.29054 0.0
H79 H 0.28674 0.80028 0.31207 0.0
H80 H 0.53972 0.11077 0.44112 0.0
H81 H 0.50154 0.98279 0.41255 0.0
H82 H 0.65145 0.11643 0.40922 0.0
H83 H 0.4786 1.02354 0.43244 0.0
Eu84 Eu 0.51163 0.4028 0.51561 0.0
C85 C 0.68128 0.62832 0.53384 0.0
N86 N 0.66245 0.59271 0.54496 0.0
C87 C 0.73601 0.6439 0.56039 0.0
C88 C 0.72782 0.67432 0.53573 0.0
C89 C 0.68998 0.59875 0.55788 0.0
C90 C 0.75459 0.68231 0.54937 0.0
C91 C 0.67844 0.64957 0.50755 0.0
C92 C 0.65688 0.61596 0.51999 0.0
C93 C 0.72259 0.6972 0.50964 0.0
C94 C 0.74733 0.70953 0.52372 0.0
Eu95 Eu 0.58068 0.52078 0.54127 0.0
N96 N 0.6156 0.56865 0.5183 0.0
C97 C 0.65686 0.63311 0.4932 0.0
C98 C 0.59822 0.55096 0.50402 0.0
C99 C 0.61739 0.58305 0.49138 0.0
H100 H 0.67605 0.5689 0.56636 0.0
H101 H 0.60238 0.56873 0.48019 0.0
H102 H 0.47143 0.42697 0.48173 0.0
H103 H 0.39185 0.23871 0.55216 0.0
H104 H 0.5708 0.5118 0.5021 0.0
H105 H 0.67228 0.65764 0.48335 0.0
H106 H 0.47214 0.30106 0.53947 0.0
H107 H 0.75719 0.64894 0.57078 0.0
H108 H 0.73924 0.7237 0.50026 0.0
H109 H 0.78265 0.74538 0.52501 0.0
H110 H 0.39094 0.41572 0.47057 0.0
H111 H 0.79052 0.71707 0.55126 0.0
H112 H 0.31082 0.23775 0.5462 0.0
N113 N 0.43701 0.39219 0.50281 0.0
C114 C 0.39221 0.36286 0.51031 0.0
C115 C 0.39087 0.40126 0.48183 0.0
C116 C 0.34542 0.35558 0.50433 0.0
C117 C 0.43624 0.4072 0.48813 0.0
C118 C 0.34558 0.37695 0.49019 0.0
N119 N 0.43677 0.33595 0.52691 0.0
C120 C 0.4367 0.3004 0.5367 0.0
C121 C 0.34544 0.29856 0.52957 0.0
C122 C 0.39208 0.3338 0.52268 0.0
C123 C 0.34587 0.26526 0.54064 0.0
C124 C 0.39149 0.26543 0.54397 0.0
H125 H 0.31043 0.37214 0.48523 0.0
H126 H 0.26341 0.3189 0.50778 0.0
H127 H 0.2635 0.26944 0.52999 0.0
O128 O 0.49996 0.32726 0.50916 0.0
O129 O 0.48047 0.39936 0.54038 0.0
O130 O 0.49571 0.48007 0.54253 0.0
O131 O 0.52194 0.38436 0.49198 0.0
O132 O 0.55869 0.38788 0.53306 0.0
O133 O 0.57676 0.44812 0.55189 0.0
O134 O 0.58352 0.58034 0.55612 0.0
O135 O 0.63815 0.49726 0.53294 0.0
O136 O 0.60222 0.45434 0.51064 0.0
O137 O 0.576 0.50932 0.56588 0.0
O138 O 0.51765 0.53018 0.52812 0.0
O139 O 0.48808 0.46606 0.51002 0.0
C140 C 0.4702 0.43299 0.54682 0.0
C141 C 0.46792 0.29666 0.48442 0.0
C142 C 0.44256 0.23515 0.46301 0.0
C143 C 0.3911 0.22026 0.46618 0.0
C144 C 0.41593 0.27827 0.48742 0.0
C145 C 0.3781 0.24126 0.4783 0.0
C146 C 0.48121 0.27448 0.47218 0.0
C147 C 0.57181 0.40407 0.54711 0.0
C148 C 0.50719 0.33641 0.49471 0.0
C149 C 0.29952 0.32397 0.51202 0.0
C150 C 0.29956 0.29564 0.52464 0.0
C151 C 0.64372 0.4813 0.51948 0.0
C152 C 0.57549 0.57106 0.58341 0.0
C153 C 0.53711 0.60543 0.60085 0.0
C154 C 0.56814 0.60339 0.61255 0.0
C155 C 0.60534 0.56832 0.59519 0.0
C156 C 0.5408 0.58835 0.58631 0.0
C157 C 0.60163 0.58451 0.60972 0.0
C158 C 0.48834 0.50705 0.51608 0.0
C159 C 0.57761 0.55286 0.56824 0.0
H160 H 0.36032 0.19237 0.45923 0.0
H161 H 0.40418 0.29188 0.497 0.0
H162 H 0.33823 0.22846 0.48071 0.0
H163 H 0.52121 0.287 0.4701 0.0
H164 H 0.56769 0.61748 0.6238 0.0
H165 H 0.6316 0.55395 0.59314 0.0
H166 H 0.51635 0.5878 0.57718 0.0
H167 H 0.62523 0.58304 0.61879 0.0
Eu168 Eu 0.13082 0.49197 0.68174 0.0
C169 C 0.07642 0.66485 0.69838 0.0
N170 N 0.09197 0.64733 0.71025 0.0
C171 C 0.11279 0.7238 0.72419 0.0
C172 C 0.07694 0.71206 0.69906 0.0
C173 C 0.11196 0.67699 0.72287 0.0
C174 C 0.09441 0.74107 0.71232 0.0
C175 C 0.05281 0.6567 0.67194 0.0
C176 C 0.06476 0.63776 0.6851 0.0
C177 C 0.05004 0.70199 0.67273 0.0
C178 C 0.0622 0.72973 0.6863 0.0
Eu179 Eu 0.0846 0.56497 0.70821 0.0
N180 N 0.06983 0.59536 0.6847 0.0
C181 C 1.04636 0.63084 0.65826 0.0
C182 C 0.06751 0.57271 0.67118 0.0
C183 C 0.05469 0.58912 0.65783 0.0
H184 H 0.12756 0.66484 0.73199 0.0
H185 H 0.05194 0.57017 0.64717 0.0
H186 H 0.08313 0.51154 0.64906 0.0
H187 H 0.11987 0.31509 0.70261 0.0
H188 H 0.07665 0.54271 0.67078 0.0
H189 H 1.03719 0.64405 0.6479 0.0
H190 H 0.15295 0.40831 0.70149 0.0
H191 H 0.128 0.74671 0.73432 0.0
H192 H 1.04046 0.71685 0.66279 0.0
H193 H 0.06182 0.76561 0.68663 0.0
H194 H 1.02028 0.46045 0.62936 0.0
H195 H 0.09558 0.7776 0.7133 0.0
H196 H 0.05341 0.25796 0.68451 0.0
N197 N 0.0706 0.44693 0.66221 0.0
C198 C 0.05175 0.39515 0.66205 0.0
C199 C 1.02781 0.44161 0.63869 0.0
C200 C 1.0174 0.36453 0.65063 0.0
C201 C 0.06208 0.47055 0.65014 0.0
C202 C 1.00465 0.38837 0.63909 0.0
N203 N 0.10391 0.40365 0.68337 0.0
C204 C 0.12321 0.38352 0.6937 0.0
C205 C 0.04894 0.3197 0.67317 0.0
C206 C 0.06808 0.37305 0.67309 0.0
C207 C 0.06729 0.29875 0.68407 0.0
C208 C 0.10483 0.33086 0.69431 0.0
H209 H 0.97843 0.36614 0.63013 0.0
H210 H 0.97038 0.28719 0.64241 0.0
H211 H 0.99757 0.24793 0.66221 0.0
O212 O 0.18556 0.46648 0.67451 0.0
O213 O 0.10616 0.45754 0.70615 0.0
O214 O 1.04548 0.48019 0.71175 0.0
O215 O 0.18166 0.52488 0.66186 0.0
O216 O 0.18088 0.51492 0.70347 0.0
O217 O 0.15686 0.56611 0.71695 0.0
O218 O 1.0288 0.56719 0.72399 0.0
O219 O 0.16638 0.61755 0.70075 0.0
O220 O 0.16964 0.58379 0.67771 0.0
O221 O 0.0985 0.57126 0.73235 0.0
O222 O 1.01221 0.50144 0.69602 0.0
O223 O 1.03955 0.45826 0.68004 0.0
C224 C 0.06588 0.45124 0.71409 0.0
C225 C 0.20535 0.47057 0.64777 0.0
C226 C 0.25188 0.45168 0.62754 0.0
C227 C 0.20535 0.42438 0.61975 0.0
C228 C 0.16081 0.44347 0.63913 0.0
C229 C 0.16051 0.42033 0.62549 0.0
C230 C 0.25179 0.47446 0.64186 0.0
C231 C 0.1859 0.54465 0.71522 0.0
C232 C 0.20201 0.49515 0.66247 0.0
C233 C 0.99739 0.31134 0.65096 0.0
C234 C 1.0129 0.28898 0.66223 0.0
C235 C 0.18612 0.62452 0.68707 0.0
C236 C 1.02672 0.53054 0.74831 0.0
C237 C 0.96125 0.50277 0.76775 0.0
C238 C 0.9781 0.47087 0.77407 0.0
C239 C 1.04422 0.49905 0.75483 0.0
C240 C 0.98517 0.53191 0.75482 0.0
C241 C 1.01985 0.46936 0.76763 0.0
C242 C 1.00161 0.46446 0.68589 0.0
C243 C 0.05439 0.56644 0.73589 0.0
H244 H 0.20366 0.40603 0.60902 0.0
H245 H 0.12573 0.44041 0.64272 0.0
H246 H 0.12513 0.39949 0.61921 0.0
H247 H 0.28723 0.49561 0.64808 0.0
H248 H 0.9598 0.44824 0.78408 0.0
H249 H 0.0773 0.4982 0.75029 0.0
H250 H 0.97217 0.55693 0.75006 0.0
H251 H 1.03395 0.44591 0.77275 0.0
Eu252 Eu 0.67524 0.113 0.8496 0.0
C253 C 0.46543 0.09914 0.85938 0.0
N254 N 0.49475 0.10993 0.87195 0.0
C255 C 0.45035 0.14939 0.88338 0.0
C256 C 0.42633 0.11219 0.85839 0.0
C257 C 0.48896 0.13611 0.88373 0.0
C258 C 0.41828 0.13659 0.87075 0.0
C259 C 0.45046 0.07067 0.83333 0.0
C260 C 0.47714 0.07831 0.84714 0.0
C261 C 0.40992 0.08141 0.83243 0.0
C262 C 0.39782 0.10209 0.84496 0.0
Eu263 Eu 0.55398 0.07976 0.87307 0.0
N264 N 0.51743 0.06966 0.84834 0.0
C265 C 0.46678 0.05461 0.82067 0.0
C266 C 0.53574 0.05826 0.83572 0.0
C267 C 0.51034 0.0494 0.8218 0.0
H268 H 0.51384 0.14619 0.8935 0.0
H269 H 0.5249 0.03951 0.8119 0.0
H270 H 0.6157 0.06137 0.8163 0.0
H271 H 0.83603 0.1046 0.8759 0.0
H272 H 0.57088 0.05798 0.83627 0.0
H273 H 0.44749 0.04841 0.80985 0.0
H274 H 0.77674 0.13851 0.8717 0.0
H275 H 0.44541 0.16954 0.89282 0.0
H276 H 0.38876 0.07536 0.82196 0.0
H277 H 0.36746 0.11161 0.84399 0.0
H278 H 0.60982 0.99671 0.79797 0.0
H279 H 0.38862 0.14724 0.87044 0.0
H280 H 0.82954 0.034 0.85997 0.0
N281 N 0.66366 0.04938 0.83164 0.0
C282 C 0.69563 1.02932 0.83337 0.0
C283 C 0.63314 1.00467 0.80804 0.0
C284 C 0.69478 0.99346 0.82288 0.0
C285 C 0.6353 0.04017 0.81867 0.0
C286 C 0.66236 0.98061 0.81027 0.0
N287 N 0.73584 0.08595 0.85404 0.0
C288 C 0.77323 0.10712 0.86484 0.0
C289 C 0.7658 1.02792 0.8468 0.0
C290 C 0.73184 0.04746 0.84501 0.0
C291 C 0.80297 0.04819 0.85822 0.0
C292 C 0.80688 0.08815 0.86721 0.0
H293 H 0.66087 0.95343 0.80194 0.0
H294 H 0.7271 0.94514 0.81706 0.0
H295 H 0.78831 0.97435 0.83818 0.0
O296 O 0.75531 0.16426 0.84222 0.0
O297 O 0.67821 0.08695 0.87433 0.0
O298 O 0.59296 0.03549 0.88006 0.0
O299 O 0.69417 0.15979 0.82875 0.0
O300 O 0.70077 0.1665 0.87062 0.0
O301 O 0.62586 0.14531 0.88391 0.0
O302 O 0.48051 1.0322 0.88417 0.0
O303 O 0.58961 0.16255 0.86541 0.0
O304 O 0.62835 0.15672 0.84366 0.0
O305 O 0.54689 0.08132 0.89768 0.0
O306 O 0.54219 1.00285 0.86267 0.0
O307 O 0.615 1.0228 0.84852 0.0
C308 C 0.64114 0.04912 0.88215 0.0
C309 C 0.77232 0.18072 0.8153 0.0
C310 C 0.83418 0.22507 0.79421 0.0
C311 C 0.8186 0.17728 0.78759 0.0
C312 C 0.75974 0.13446 0.80812 0.0
C313 C 0.78213 0.13261 0.79452 0.0
C314 C 0.81087 0.22689 0.80826 0.0
C315 C 0.67627 0.17284 0.88228 0.0
C316 C 0.74381 0.17941 0.82969 0.0
C317 C 0.72767 0.97312 0.82491 0.0
C318 C 0.76268 0.9899 0.83692 0.0
C319 C 0.60767 0.17997 0.85183 0.0
C320 C 0.48414 1.00569 0.90934 0.0
C321 C 0.43938 0.91536 0.91643 0.0
C322 C 0.44452 0.93014 0.93181 0.0
C323 C 0.48922 1.01934 0.92468 0.0
C324 C 0.46146 0.95395 0.90531 0.0
C325 C 0.47018 0.98167 0.93585 0.0
C326 C 0.56916 0.98793 0.85403 0.0
C327 C 0.49912 0.04583 0.89779 0.0
H328 H 0.83558 0.1744 0.77705 0.0
H329 H 0.73227 0.09914 0.81292 0.0
H330 H 0.77111 0.09603 0.7893 0.0
H331 H 0.82225 0.26346 0.81354 0.0
H332 H 0.42726 0.90238 0.94082 0.0
H333 H 0.50693 0.05916 0.92799 0.0
H334 H 0.45982 0.94409 0.89345 0.0
H335 H 0.47357 0.99243 0.94768 0.0
Eu336 Eu 0.58577 0.66795 0.01706 0.0
C337 C 0.41522 0.4576 0.02678 0.0
N338 N 0.43377 0.48292 0.04005 0.0
C339 C 0.35143 0.43286 0.05177 0.0
C340 C 0.36406 0.41749 0.0257 0.0
C341 C 0.40215 0.47232 0.05233 0.0
C342 C 0.33254 0.40469 0.03849 0.0
C343 C 0.42561 0.45173 0.99972 0.0
C344 C 0.44587 0.47473 0.01392 0.0
C345 C 0.37597 0.40975 0.99884 0.0
C346 C 0.34524 0.39272 0.01179 0.0
Eu347 Eu 0.52231 0.54431 0.04039 0.0
N348 N 0.49339 0.51658 0.01501 0.0
C349 C 0.4548 0.47308 0.98667 0.0
C350 C 0.51954 0.53964 1.00207 0.0
C351 C 0.50145 0.51797 0.98783 0.0
H352 H 0.41562 0.49479 0.06257 0.0
H353 H 0.52319 0.53653 0.97772 0.0
H354 H 0.63078 0.63886 0.98588 0.0
H355 H 0.66761 0.85196 0.04748 0.0
H356 H 0.55336 0.57556 1.00241 0.0
H357 H 0.44055 0.45668 0.97559 0.0
H358 H 0.59829 0.7698 0.039 0.0
H359 H 0.32684 0.42445 0.06157 0.0
H360 H 0.36025 0.39143 0.98806 0.0
H361 H 0.30632 0.36149 0.01082 0.0
H362 H 0.71114 0.67536 0.97112 0.0
H363 H 0.29306 0.37434 0.03806 0.0
H364 H 0.75444 0.88566 0.03689 0.0
N365 N 0.66008 0.69864 1.00217 0.0
C366 C 0.69973 0.74442 1.0065 0.0
C367 C 0.70857 0.695 0.98107 0.0
C368 C 0.74666 0.766 0.99857 0.0
C369 C 0.6631 0.67469 0.98936 0.0
C370 C 0.75085 0.74037 0.98586 0.0
N371 N 0.64542 0.75241 0.02486 0.0
C372 C 0.636 0.78172 0.03479 0.0
C373 C 0.7331 0.82012 0.0224 0.0
C374 C 0.69256 0.77156 0.01825 0.0
C375 C 0.72425 0.84834 0.0334 0.0
C376 C 0.67532 0.82942 0.03942 0.0
H377 H 0.78618 0.75593 0.97945 0.0
H378 H 0.82383 0.82993 0.99734 0.0
H379 H 0.81221 0.87698 0.01827 0.0
O380 O 0.59045 0.73092 1.0028 0.0
O381 O 0.64272 0.66087 0.03349 0.0
O382 O 0.58961 0.60879 0.05219 0.0
O383 O 0.54968 0.65228 0.99476 0.0
O384 O 0.54998 0.68238 0.03837 0.0
O385 O 0.53252 0.6138 0.05428 0.0
O386 O 0.54155 0.48528 0.0472 0.0
O387 O 0.46223 0.56825 0.03671 0.0
O388 O 0.4938 0.619 0.01547 0.0
O389 O 0.50012 0.50693 0.06243 0.0
O390 O 0.58656 0.54028 0.02681 0.0
O391 O 0.62816 0.6187 0.01476 0.0
C392 C 0.63546 0.63923 0.04704 0.0
C393 C 0.5842 0.71806 0.97541 0.0
C394 C 0.60758 0.78012 0.95411 0.0
C395 C 0.60826 0.74331 0.94445 0.0
C396 C 0.58421 0.68251 0.96503 0.0
C397 C 0.5969 0.69533 0.94986 0.0
C398 C 0.5963 0.76757 0.96981 0.0
C399 C 0.53841 0.66021 0.0519 0.0
C400 C 0.56611 0.70064 0.99142 0.0
C401 C 0.78737 0.81318 1.00318 0.0
C402 C 0.78071 0.83999 0.01511 0.0
C403 C 0.4545 0.58993 0.02475 0.0
C404 C 0.56461 0.49407 0.07308 0.0
C405 C 0.62129 0.47111 0.08652 0.0
C406 C 0.63828 0.51439 0.0957 0.0
C407 C 0.58246 0.53784 0.08229 0.0
C408 C 0.58449 0.46096 0.07522 0.0
C409 C 0.61884 0.54764 0.09355 0.0
C410 C 0.62533 0.57405 0.01855 0.0
C411 C 0.52631 0.48351 0.06108 0.0
H412 H 0.61737 0.75162 0.93253 0.0
H413 H 0.57357 0.64398 0.96852 0.0
H414 H 0.597 0.66739 0.94214 0.0
H415 H 0.59509 0.7952 0.97742 0.0
H416 H 0.66602 0.52205 0.10461 0.0
H417 H 0.56826 0.56448 0.08086 0.0
H418 H 0.57088 0.42697 0.06828 0.0
H419 H 0.63167 0.58086 0.1007 0.0
Eu420 Eu 0.96564 0.58437 0.18276 0.0
C421 C 0.99457 0.3986 0.18405 0.0
N422 N 0.98401 0.41086 0.19782 0.0
C423 C 0.95295 0.32478 0.20645 0.0
C424 C 0.98587 0.34885 0.18099 0.0
C425 C 0.962 0.37454 0.20887 0.0
C426 C 0.96571 0.31206 0.19251 0.0
C427 C 1.01779 0.42223 0.15784 0.0
C428 C 1.01043 0.43488 0.17271 0.0
C429 C 1.01198 0.37371 0.15489 0.0
C430 C 0.99596 0.33702 0.16645 0.0
Eu431 Eu 1.00631 0.49696 0.20213 0.0
N432 N 1.01399 0.48079 0.17591 0.0
C433 C 1.02828 0.45778 0.14624 0.0
C434 C 1.01931 0.51309 0.16432 0.0
C435 C 1.02783 0.50295 0.14945 0.0
H436 H 0.95167 0.38403 0.21964 0.0
H437 H 1.03285 0.52937 0.14039 0.0
H438 H 1.01679 0.59854 0.1476 0.0
H439 H 0.95771 0.73122 0.21759 0.0
H440 H 1.01442 0.54528 0.16636 0.0
H441 H 1.03408 0.44957 0.13468 0.0
H442 H 0.92887 0.64332 0.20862 0.0
H443 H 0.93603 0.29627 0.2153 0.0
H444 H 1.01798 0.36358 0.14358 0.0
H445 H 0.98999 0.29918 0.16392 0.0
H446 H 0.0782 0.66833 0.13113 0.0
H447 H 0.95836 0.2734 0.19061 0.0
H448 H 1.02984 0.80459 0.20484 0.0
N449 N 1.02507 0.6477 0.16602 0.0
C450 C 1.04347 0.69707 0.17059 0.0
C451 C 0.06939 0.67683 0.14229 0.0
C452 C 0.07851 0.7381 0.16149 0.0
C453 C 1.03512 0.63732 0.15171 0.0
C454 C 0.09193 0.72735 0.14731 0.0
N455 N 0.98585 0.66675 0.19143 0.0
C456 C 0.96068 0.67519 0.20304 0.0
C457 C 1.04128 0.75749 0.18846 0.0
C458 C 1.0245 0.70665 0.1839 0.0
C459 C 1.01785 0.7661 0.20098 0.0
C460 C 0.97693 0.72482 0.20816 0.0
H461 H 0.11847 0.75787 0.13997 0.0
H462 H 0.12493 0.82047 0.15978 0.0
H463 H 0.09275 0.83741 0.18344 0.0
O464 O 0.90502 0.60368 0.17857 0.0
O465 O 0.99457 0.60868 0.20744 0.0
O466 O 0.05003 0.57754 0.21092 0.0
O467 O 0.9263 0.56989 0.16056 0.0
O468 O 0.91285 0.54971 0.20347 0.0
O469 O 0.94314 0.50111 0.21557 0.0
O470 O 0.05982 0.47482 0.21169 0.0
O471 O 0.9224 0.44812 0.19604 0.0
O472 O 0.92151 0.49523 0.17568 0.0
O473 O 1.00346 0.47866 0.22608 0.0
O474 O 0.0809 0.56515 0.1921 0.0
O475 O 0.05643 0.61858 0.18015 0.0
C476 C 1.03348 0.60894 0.21458 0.0
C477 C 0.89728 0.62904 0.15334 0.0
C478 C 0.86224 0.65172 0.13084 0.0
C479 C 0.89685 0.70355 0.13384 0.0
C480 C 0.92828 0.68142 0.15617 0.0
C481 C 0.92893 0.71805 0.1464 0.0
C482 C 0.86364 0.61415 0.14057 0.0
C483 C 0.91219 0.52078 0.21493 0.0
C484 C 0.89894 0.5912 0.16425 0.0
C485 C 0.09737 0.78854 0.16651 0.0
C486 C 0.07904 0.79819 0.18 0.0
C487 C 0.90143 0.45028 0.18321 0.0
C488 C 0.08483 0.5055 0.23666 0.0
C489 C 0.1689 0.5299 0.24695 0.0
C490 C 0.16396 0.56295 0.2572 0.0
C491 C 0.08015 0.53882 0.24693 0.0
C492 C 0.12917 0.50161 0.23673 0.0
C493 C 0.11968 0.56738 0.25715 0.0
C494 C 0.0932 0.60816 0.18445 0.0
C495 C 1.04481 0.475 0.22556 0.0
H496 H 0.89935 0.73353 0.12645 0.0
H497 H 0.9517 0.6945 0.16613 0.0
H498 H 0.9542 0.75822 0.14869 0.0
H499 H 0.83801 0.57392 0.13851 0.0
H500 H 0.19407 0.58515 0.26525 0.0
H501 H 1.04631 0.54304 0.24706 0.0
H502 H 0.13305 0.47699 0.22847 0.0
H503 H 0.11606 0.59309 0.265 0.0
Eu504 Eu 0.14874 0.66883 0.49937 0.0
C505 C 0.13935 0.47853 0.48656 0.0
N506 N 0.14163 0.50422 0.47366 0.0
C507 C 0.19476 0.47515 0.46186 0.0
C508 C 0.16655 0.45134 0.48773 0.0
C509 C 0.16754 0.50179 0.46122 0.0
C510 C 0.19483 0.45037 0.47524 0.0
C511 C 0.10417 0.44941 0.51163 0.0
C512 C 0.1092 0.47877 0.4985 0.0
C513 C 0.13275 0.42406 0.51306 0.0
C514 C 0.1641 0.42528 0.50118 0.0
Eu515 Eu 0.09709 0.55063 0.47334 0.0
N516 N 0.08271 0.5049 0.497 0.0
C517 C 0.06903 0.44449 0.52275 0.0
C518 C 1.04659 0.4977 0.50771 0.0
C519 C 1.03928 0.46767 0.52059 0.0
H520 H 0.16888 0.5222 0.45097 0.0
H521 H 1.01105 0.46313 0.52899 0.0
H522 H 0.15662 0.56993 0.51829 0.0
H523 H 1.04811 0.77003 0.51528 0.0
H524 H 1.02245 0.51419 0.50689 0.0
H525 H 0.06368 0.42188 0.53288 0.0
H526 H 0.09557 0.74291 0.49803 0.0
H527 H 0.21619 0.47432 0.4521 0.0
H528 H 0.12984 0.40224 0.52318 0.0
H529 H 0.1852 0.40475 0.50234 0.0
H530 H 0.1363 0.53178 0.54335 0.0
H531 H 0.21628 0.43004 0.47575 0.0
H532 H 1.02232 0.73088 0.54075 0.0
N533 N 0.12135 0.61634 0.52154 0.0
C534 C 0.09512 0.62971 0.53159 0.0
C535 C 0.12429 0.5591 0.54015 0.0
C536 C 0.08132 0.60674 0.54609 0.0
C537 C 0.13628 0.58175 0.52579 0.0
C538 C 0.0962 0.57109 0.55026 0.0
N539 N 0.09618 0.68955 0.51371 0.0
C540 C 0.08408 0.72569 0.50914 0.0
C541 C 0.0553 0.68144 0.53775 0.0
C542 C 0.08256 0.66731 0.52761 0.0
C543 C 1.04308 0.71897 0.53324 0.0
C544 C 0.05746 0.74112 0.51886 0.0
H545 H 0.08666 0.55298 0.56132 0.0
H546 H 1.04323 0.6033 0.5673 0.0
H547 H 1.02011 0.66822 0.55994 0.0
O548 O 0.19202 0.75272 0.49856 0.0
O549 O 0.11073 0.68268 0.47806 0.0
O550 O 0.07035 0.6044 0.46542 0.0
O551 O 0.20247 0.715 0.51763 0.0
O552 O 0.19674 0.68666 0.47763 0.0
O553 O 0.15641 0.62137 0.4599 0.0
O554 O 1.03807 0.4759 0.46514 0.0
O555 O 0.18275 0.58287 0.47901 0.0
O556 O 0.20153 0.63118 0.5007 0.0
O557 O 0.09028 0.53135 0.44931 0.0
O558 O 1.02503 0.55108 0.48366 0.0
O559 O 0.05817 0.62361 0.49879 0.0
C560 C 0.08007 0.65166 0.46726 0.0
C561 C 0.21649 0.8004 0.52202 0.0
C562 C 0.25134 0.85781 0.54443 0.0
C563 C 0.22445 0.88266 0.53958 0.0
C564 C 0.19254 0.82841 0.51748 0.0
C565 C 0.19569 0.86822 0.5263 0.0
C566 C 0.24623 0.81553 0.53565 0.0
C567 C 0.19231 0.66817 0.46373 0.0
C568 C 0.21369 0.75892 0.51177 0.0
C569 C 0.05409 0.62075 0.55617 0.0
C570 C 1.04105 0.65785 0.552 0.0
C571 C 0.21162 0.60299 0.49115 0.0
C572 C 1.008 0.47454 0.43996 0.0
C573 C 0.9167 0.42811 0.43353 0.0
C574 C 0.93037 0.43928 0.41808 0.0
C575 C 1.02012 0.4852 0.42455 0.0
C576 C 0.95637 0.44817 0.44442 0.0
C577 C 0.98145 0.46846 0.41374 0.0
C578 C 1.0179 0.58231 0.49287 0.0
C579 C 0.04971 0.4872 0.45093 0.0
H580 H 0.2255 0.91367 0.54611 0.0
H581 H 0.17155 0.82011 0.50693 0.0
H582 H 0.17611 0.88859 0.52269 0.0
H583 H 0.26642 0.7956 0.5391 0.0
H584 H 0.90236 0.42408 0.4091 0.0
H585 H 0.05963 0.50552 0.42083 0.0
H586 H 0.94766 0.44221 0.45638 0.0
H587 H 0.9912 0.47629 0.40185 0.0
Eu588 Eu 0.49894 0.13092 0.66318 0.0
C589 C 0.67685 0.09156 0.65973 0.0
N590 N 0.66007 0.09742 0.64595 0.0
C591 C 0.74397 0.12835 0.63542 0.0
C592 C 0.72814 0.10309 0.66176 0.0
C593 C 0.69307 0.11699 0.63396 0.0
C594 C 0.76139 0.12063 0.64931 0.0
C595 C 0.66198 0.07599 0.68674 0.0
C596 C 0.64388 0.07814 0.67209 0.0
C597 C 0.71226 0.08513 0.68864 0.0
C598 C 0.74524 0.09865 0.67619 0.0
Eu599 Eu 0.57177 0.07058 0.64415 0.0
N600 N 0.5956 0.07074 0.67001 0.0
C601 C 0.62964 0.06641 0.69917 0.0
C602 C 0.56525 0.06392 0.68226 0.0
C603 C 0.58134 0.0611 0.69693 0.0
H604 H 0.68038 0.12436 0.62325 0.0
H605 H 0.55651 0.05519 0.70651 0.0
H606 H 0.37403 0.04277 0.66699 0.0
H607 H 0.57641 0.336 0.65427 0.0
H608 H 0.52894 0.06126 0.68097 0.0
H609 H 0.64215 0.06458 0.71057 0.0
H610 H 0.5774 0.25756 0.66252 0.0
H611 H 0.76982 0.14344 0.62586 0.0
H612 H 0.72647 0.08324 0.69979 0.0
H613 H 0.78438 0.10706 0.67792 0.0
H614 H 0.28993 1.03021 0.65895 0.0
H615 H 0.80102 0.12995 0.65045 0.0
H616 H 0.49833 0.32939 0.6426 0.0
N617 N 0.41587 0.11697 0.65719 0.0
C618 C 0.41316 0.15639 0.65052 0.0
C619 C 0.32432 0.06572 0.65637 0.0
C620 C 0.36569 0.15138 0.64611 0.0
C621 C 0.37213 0.07292 0.66085 0.0
C622 C 0.32113 0.10481 0.64872 0.0
N623 N 0.50152 0.2075 0.65503 0.0
C624 C 0.54336 0.2546 0.65736 0.0
C625 C 0.45494 0.24694 0.64472 0.0
C626 C 0.45731 0.20338 0.64958 0.0
C627 C 0.49871 0.295 0.64614 0.0
C628 C 0.54282 0.29892 0.65276 0.0
H629 H 0.28396 0.09941 0.64547 0.0
H630 H 0.32787 0.19042 0.63636 0.0
H631 H 0.40604 0.27435 0.63532 0.0
O632 O 0.47843 0.1732 0.67918 0.0
O633 O 0.44893 0.0669 0.64612 0.0
O634 O 0.50821 0.06751 0.62955 0.0
O635 O 0.50296 0.12238 0.68816 0.0
O636 O 0.54232 0.17733 0.64202 0.0
O637 O 0.57145 0.131 0.62822 0.0
O638 O 0.56176 0.99418 0.64011 0.0
O639 O 0.63275 0.15285 0.65025 0.0
O640 O 0.58878 0.1741 0.66771 0.0
O641 O 0.59505 0.05162 0.62281 0.0
O642 O 0.49996 1.00421 0.656 0.0
O643 O 0.45513 0.04072 0.66695 0.0
C644 C 0.4609 0.05386 0.63305 0.0
C645 C 0.45351 0.14786 0.70446 0.0
C646 C 0.42905 0.18473 0.72603 0.0
C647 C 0.3837 0.13755 0.72749 0.0
C648 C 0.40787 0.10171 0.70634 0.0
C649 C 0.37343 0.09667 0.71779 0.0
C650 C 0.46386 0.18927 0.71434 0.0
C651 C 0.56238 0.16982 0.62961 0.0
C652 C 0.48818 0.15567 0.69138 0.0
C653 C 0.36389 0.1937 0.63998 0.0
C654 C 0.40841 0.24149 0.63938 0.0
C655 C 0.63286 0.18308 0.66114 0.0
C656 C 0.53504 0.96853 0.61495 0.0
C657 C 0.4759 0.88172 0.60664 0.0
C658 C 0.458 0.90124 0.59512 0.0
C659 C 0.51635 0.98746 0.60339 0.0
C660 C 0.51443 0.91562 0.61652 0.0
C661 C 0.47825 0.95388 0.59354 0.0
C662 C 0.45942 0.99924 0.66357 0.0
C663 C 0.57395 1.00328 0.62585 0.0
H664 H 0.35639 0.13173 0.73635 0.0
H665 H 0.39852 0.06984 0.6988 0.0
H666 H 0.33829 0.06075 0.71915 0.0
H667 H 0.4986 0.22539 0.71266 0.0
H668 H 0.42854 0.87579 0.58734 0.0
H669 H 0.53085 1.02811 0.60197 0.0
H670 H 0.5292 0.90092 0.62527 0.0
H671 H 0.4643 0.96866 0.58465 0.0
Eu672 Eu 0.40968 0.47943 0.83119 0.0
C673 C 0.61695 0.67209 0.82518 0.0
N674 N 0.5903 0.657 0.81205 0.0
C675 C 0.64064 0.74118 0.80166 0.0
C676 C 0.65758 0.72249 0.82699 0.0
C677 C 0.60023 0.69104 0.80051 0.0
C678 C 0.67015 0.75671 0.81486 0.0
C679 C 0.62538 0.6537 0.85139 0.0
C680 C 0.60136 0.63788 0.8371 0.0
C681 C 0.66726 0.70313 0.85312 0.0
C682 C 0.68342 0.73745 0.84092 0.0
Eu683 Eu 0.53023 0.56935 0.8094 0.0
N684 N 0.56008 0.59069 0.83507 0.0
C685 C 0.60524 0.62019 0.86368 0.0
C686 C 0.53802 0.56008 0.84738 0.0
C687 C 0.5606 0.57362 0.86172 0.0
H688 H 0.57753 0.67922 0.79028 0.0
H689 H 0.54295 0.54855 0.87133 0.0
H690 H 0.45523 0.47009 0.86571 0.0
H691 H 0.25616 0.32849 0.79762 0.0
H692 H 0.50178 0.52643 0.8464 0.0
H693 H 0.62237 0.6309 0.87484 0.0
H694 H 0.31382 0.41758 0.80572 0.0
H695 H 0.64899 0.76781 0.79239 0.0
H696 H 0.68643 0.71567 0.86396 0.0
H697 H 0.71493 0.7759 0.8425 0.0
H698 H 0.44987 0.4018 0.88257 0.0
H699 H 0.70126 0.79568 0.81577 0.0
H700 H 0.25812 0.25704 0.81096 0.0
N701 N 0.41021 0.41874 0.84825 0.0
C702 C 0.37961 0.36893 0.84411 0.0
C703 C 0.4304 0.39215 0.87174 0.0
C704 C 0.37545 0.32887 0.85348 0.0
C705 C 0.43368 0.43072 0.86213 0.0
C706 C 0.4017 0.34108 0.86732 0.0
N707 N 0.34978 0.39646 0.82292 0.0
C708 C 0.31497 0.38645 0.81155 0.0
C709 C 0.31677 0.30628 0.82685 0.0
C710 C 0.35004 0.35768 0.83091 0.0
C711 C 0.28392 0.296 0.81445 0.0
C712 C 0.28247 0.3362 0.80693 0.0
H713 H 0.39926 0.31131 0.87481 0.0
H714 H 0.34116 0.24675 0.85597 0.0
H715 H 0.29032 0.22704 0.83263 0.0
O716 O 0.33017 0.46086 0.83501 0.0
O717 O 0.41427 0.44482 0.80773 0.0
O718 O 0.49972 0.48923 0.80179 0.0
O719 O 0.38171 0.48595 0.85394 0.0
O720 O 0.38776 0.51425 0.81166 0.0
O721 O 0.45858 0.55542 0.79595 0.0
O722 O 0.60474 0.59444 0.79899 0.0
O723 O 0.4915 0.61479 0.81624 0.0
O724 O 0.45266 0.56957 0.83777 0.0
O725 O 0.54095 0.5842 0.78512 0.0
O726 O 0.54418 0.50545 0.82021 0.0
O727 O 0.47082 0.45092 0.83368 0.0
C728 C 0.45445 0.44942 0.80011 0.0
C729 C 0.29228 0.42705 0.85927 0.0
C730 C 0.23236 0.39938 0.88128 0.0
C731 C 0.21201 0.34863 0.87623 0.0
C732 C 0.26782 0.37606 0.85438 0.0
C733 C 0.22916 0.33736 0.8629 0.0
C734 C 0.27375 0.4387 0.87275 0.0
C735 C 0.40926 0.5366 0.79875 0.0
C736 C 0.33421 0.46763 0.84965 0.0
C737 C 0.34419 0.27789 0.849 0.0
C738 C 0.31529 0.26666 0.83568 0.0
C739 C 0.47348 0.61395 0.82983 0.0
C740 C 0.59733 0.55871 0.77468 0.0
C741 C 0.65611 0.52985 0.76625 0.0
C742 C 0.61911 0.4963 0.75595 0.0
C743 C 0.56058 0.52525 0.76427 0.0
C744 C 0.64453 0.56053 0.77557 0.0
C745 C 0.57157 0.49417 0.75498 0.0
C746 C 0.51761 0.46335 0.82869 0.0
C747 C 0.587 0.59042 0.78525 0.0
H748 H 0.18255 0.31697 0.88256 0.0
H749 H 0.2776 0.36574 0.84377 0.0
H750 H 0.21187 0.29818 0.85902 0.0
H751 H 0.29062 0.47821 0.87625 0.0
H752 H 0.62697 0.47215 0.7486 0.0
H753 H 0.52332 0.52256 0.76343 0.0
H754 H 0.67199 0.58521 0.78395 0.0
H755 H 0.54307 0.4682 0.74707 0.0
Eu756 Eu 0.95471 0.39407 0.99722 0.0
C757 C 1.01854 0.62301 0.98795 0.0
N758 N 1.00304 0.59503 0.97507 0.0
C759 C 0.99026 0.65997 0.96318 0.0
C760 C 1.02229 0.6717 0.98879 0.0
C761 C 0.98689 0.61186 0.96294 0.0
C762 C 1.00905 0.69052 0.97606 0.0
C763 C 1.03561 0.62611 0.01483 0.0
C764 C 1.02493 0.60037 1.00075 0.0
C765 C 1.04339 0.67615 0.0155 0.0
C766 C 1.03663 0.6989 1.00249 0.0
Eu767 Eu 1.00788 0.51848 0.97434 0.0
N768 N 1.01508 0.5512 0.99974 0.0
C769 C 1.03528 0.59986 0.02794 0.0
C770 C 1.00977 0.52438 0.0128 0.0
C771 C 1.02097 0.54832 0.02696 0.0
H772 H 0.97142 0.58851 0.95297 0.0
H773 H 1.01767 0.52666 0.03713 0.0
H774 H 1.01752 0.41208 0.0309 0.0
H775 H 0.89974 0.23355 0.95805 0.0
H776 H 0.99575 0.48416 0.01264 0.0
H777 H 1.04319 0.61817 0.03895 0.0
H778 H 0.88958 0.30072 0.97107 0.0
H779 H 0.97819 0.67337 0.95344 0.0
H780 H 0.05229 0.69664 0.02616 0.0
H781 H 1.04045 0.73662 1.00329 0.0
H782 H 0.07649 0.38691 0.04272 0.0
H783 H 1.01123 0.72762 0.97627 0.0
H784 H 0.96964 0.21684 0.96549 0.0
N785 N 1.0106 0.37226 0.01028 0.0
C786 C 1.02015 0.3378 1.00303 0.0
C787 C 0.06136 0.37327 0.0315 0.0
C788 C 0.05397 0.32278 0.00938 0.0
C789 C 1.02773 0.38715 0.0248 0.0
C790 C 0.07569 0.34213 0.02358 0.0
N791 N 0.95491 0.32365 0.98519 0.0
C792 C 0.92035 0.29388 0.97437 0.0
C793 C 0.99823 0.27433 0.98314 0.0
C794 C 0.99183 0.31306 0.99012 0.0
C795 C 0.9657 0.2467 0.97117 0.0
C796 C 0.92603 0.25585 0.96697 0.0
H797 H 0.10169 0.33136 0.02883 0.0
H798 H 0.08935 0.27548 1.00643 0.0
H799 H 1.04107 0.23358 0.98337 0.0
O800 O 0.8869 0.32174 1.0032 0.0
O801 O 0.99188 0.39216 0.97391 0.0
O802 O 0.05035 0.47633 0.97059 0.0
O803 O 0.92695 0.37486 0.02102 0.0
O804 O 0.8986 0.38627 0.97865 0.0
O805 O 0.94801 0.4473 0.9609 0.0
O806 O 0.07151 0.58092 0.96191 0.0
O807 O 0.92542 0.49401 0.98053 0.0
O808 O 0.9131 0.44449 1.00183 0.0
O809 O 1.00195 0.5286 0.95023 0.0
O810 O 0.0784 0.52376 0.98733 0.0
O811 O 1.04291 0.45188 1.00283 0.0
C812 C 1.03406 0.42847 0.96752 0.0
C813 C 0.8848 0.28433 0.0273 0.0
C814 C 0.84765 0.22297 0.04878 0.0
C815 C 0.86915 0.19478 0.04254 0.0
C816 C 0.90412 0.25364 0.02153 0.0
C817 C 0.89709 0.21006 0.02913 0.0
C818 C 0.85645 0.26881 0.04119 0.0
C819 C 0.90716 0.40338 0.96458 0.0
C820 C 0.8905 0.32876 0.01782 0.0
C821 C 0.0628 0.28671 1.00184 0.0
C822 C 1.03519 0.26274 0.98872 0.0
C823 C 0.90077 0.47435 0.99334 0.0
C824 C 0.07911 0.55212 0.93745 0.0
C825 C 0.15493 0.57982 0.92173 0.0
C826 C 0.13306 0.53132 0.91509 0.0
C827 C 0.05802 0.5033 0.93082 0.0
C828 C 0.12801 0.59014 0.93297 0.0
C829 C 0.08482 0.49334 0.91969 0.0
C830 C 0.08371 0.49531 0.99805 0.0
C831 C 0.04982 0.56332 0.94881 0.0
H832 H 0.86428 0.16044 0.04808 0.0
H833 H 0.92355 0.26228 0.01081 0.0
H834 H 0.91268 0.18733 0.02443 0.0
H835 H 0.84005 0.29103 0.04574 0.0
H836 H 0.15312 0.52305 0.90629 0.0
H837 H 1.02059 0.47274 0.93409 0.0
H838 H 0.14448 0.62806 0.93787 0.0
H839 H 0.0677 0.45624 0.9145 0.0
Eu840 Eu 0.59403 0.95711 0.16795 0.0
C841 C 0.40153 0.96606 0.14773 0.0
N842 N 0.42558 0.95346 0.137 0.0
C843 C 0.34679 0.90631 0.12335 0.0
C844 C 0.3488 0.94977 0.14658 0.0
C845 C 0.39897 0.92295 0.12509 0.0
C846 C 0.32172 0.9204 0.13403 0.0
C847 C 0.40449 1.00379 0.17216 0.0
C848 C 0.42923 0.99302 0.16023 0.0
C849 C 0.35234 0.98894 0.17092 0.0
C850 C 0.32457 0.9621 0.15812 0.0
Eu851 Eu 0.51505 0.98881 0.13904 0.0
N852 N 0.47953 1.00623 0.16112 0.0
C853 C 0.43253 1.028 0.18515 0.0
C854 C 0.50588 1.02767 0.1741 0.0
C855 C 0.48335 0.03941 0.18619 0.0
H856 H 0.41806 0.91158 0.11684 0.0
H857 H 0.50515 0.05683 0.19637 0.0
H858 H 0.55354 1.00102 0.19687 0.0
H859 H 0.78658 0.99085 0.15484 0.0
H860 H 0.54383 0.03486 0.1754 0.0
H861 H 0.41499 0.0368 0.19457 0.0
H862 H 0.69281 0.95002 0.15191 0.0
H863 H 0.32595 0.88255 0.11381 0.0
H864 H 0.33291 0.99719 0.17992 0.0
H865 H 0.28413 0.95002 0.15743 0.0
H866 H 0.59107 0.0639 0.21771 0.0
H867 H 0.28121 0.90724 0.13272 0.0
H868 H 0.83019 0.05504 0.17497 0.0
N869 N 0.62561 1.01713 0.18794 0.0
C870 C 0.67701 0.03909 0.19059 0.0
C871 C 0.6157 0.05806 0.20997 0.0
C872 C 0.69992 0.07375 0.20266 0.0
C873 C 0.59458 1.02374 0.19792 0.0
C874 C 0.66863 0.08371 0.21223 0.0
N875 N 0.68376 0.99247 0.1698 0.0
C876 C 0.71166 0.97895 0.16052 0.0
C877 C 0.76024 0.0507 0.1833 0.0
C878 C 0.70684 1.02723 0.18108 0.0
C879 C 0.7891 0.03775 0.17363 0.0
C880 C 0.76466 1.00159 0.16223 0.0
H881 H 0.68483 0.11016 0.22161 0.0
H882 H 0.77139 0.12442 0.21393 0.0
H883 H 0.82413 0.10451 0.19695 0.0
O884 O 0.62588 0.90918 0.17679 0.0
O885 O 0.63309 0.98119 0.14429 0.0
O886 O 0.59874 1.02812 0.13352 0.0
O887 O 0.55814 0.90249 0.18673 0.0
O888 O 0.5711 0.90306 0.14739 0.0
O889 O 0.52568 0.92322 0.12976 0.0
O890 O 0.49676 0.03924 0.12562 0.0
O891 O 0.46683 0.9081 0.14879 0.0
O892 O 0.50419 0.92129 0.1722 0.0
O893 O 0.50834 0.98173 0.1145 0.0
O894 O 0.58058 0.06632 0.14915 0.0
O895 O 0.62586 0.0469 0.16696 0.0
C896 C 0.63452 1.01536 0.13442 0.0
C897 C 0.61301 0.88785 0.20348 0.0
C898 C 0.63532 0.8471 0.22464 0.0
C899 C 0.64615 0.88968 0.23367 0.0
C900 C 0.62326 0.92837 0.21333 0.0
C901 C 0.64028 0.92972 0.22807 0.0
C902 C 0.61946 0.84665 0.20925 0.0
C903 C 0.5468 0.89572 0.13423 0.0
C904 C 0.59303 0.8886 0.18776 0.0
C905 C 0.7531 0.09734 0.2048 0.0
C906 C 0.78316 0.086 0.19513 0.0
C907 C 0.46337 0.89489 0.16315 0.0
C908 C 0.53135 0.0562 0.10053 0.0
C909 C 0.58979 0.14204 0.09119 0.0
C910 C 0.5851 0.12205 0.0765 0.0
C911 C 0.52732 0.03707 0.08578 0.0
C912 C 0.56337 0.10857 0.10324 0.0
C913 C 0.55428 0.06982 0.07386 0.0
C914 C 0.61924 0.08148 0.15913 0.0
C915 C 0.50109 1.02061 0.11271 0.0
H916 H 0.65914 0.89194 0.24527 0.0
H917 H 0.61711 0.95895 0.20982 0.0
H918 H 0.64821 0.96185 0.23532 0.0
H919 H 0.61096 0.81425 0.20206 0.0
H920 H 0.60396 0.14689 0.06692 0.0
H921 H 0.50295 0.99672 0.08347 0.0
H922 H 0.56691 0.12346 0.11463 0.0
H923 H 0.55072 0.05481 0.06251 0.0
Eu924 Eu 0.68923 0.58188 0.33306 0.0
C925 C 0.47795 0.40133 0.32104 0.0
N926 N 0.50686 0.41649 0.30831 0.0
C927 C 0.45437 0.33376 0.29721 0.0
C928 C 0.43485 0.35199 0.32219 0.0
C929 C 0.49677 0.38292 0.29665 0.0
C930 C 0.42273 0.31847 0.30995 0.0
C931 C 0.46793 0.41716 0.34733 0.0
C932 C 0.49439 0.43348 0.33339 0.0
C933 C 0.42305 0.36955 0.34828 0.0
C934 C 0.4066 0.33692 0.33573 0.0
Eu935 Eu 0.57539 0.50188 0.30723 0.0
N936 N 0.53909 0.47829 0.3322 0.0
C937 C 0.4889 0.44779 0.36012 0.0
C938 C 0.56165 0.50543 0.34501 0.0
C939 C 0.53666 0.49148 0.35903 0.0
H940 H 0.52143 0.3937 0.28685 0.0
H941 H 0.55477 0.5137 0.36908 0.0
H942 H 0.62861 0.5948 0.36414 0.0
H943 H 0.87101 0.72131 0.30752 0.0
H944 H 0.59984 0.53645 0.34464 0.0
H945 H 0.46996 0.43657 0.37104 0.0
H946 H 0.7986 0.635 0.31248 0.0
H947 H 0.44633 0.30761 0.28786 0.0
H948 H 0.40205 0.35672 0.35884 0.0
H949 H 0.37309 0.29942 0.33677 0.0
H950 H 0.63615 0.66423 0.38071 0.0
H951 H 0.39016 0.28019 0.31043 0.0
H952 H 0.8763 0.79599 0.3209 0.0
N953 N 0.68872 0.64428 0.34936 0.0
C954 C 0.72791 0.69271 0.34694 0.0
C955 C 0.6618 0.67281 0.37117 0.0
C956 C 0.73302 0.73363 0.35604 0.0
C957 C 0.65761 0.63355 0.36177 0.0
C958 C 0.69899 0.72318 0.36812 0.0
N959 N 0.76263 0.66095 0.32822 0.0
C960 C 0.80045 0.66741 0.31834 0.0
C961 C 0.80628 0.75114 0.33357 0.0
C962 C 0.76505 0.70132 0.33595 0.0
C963 C 0.84419 0.75827 0.32305 0.0
C964 C 0.84146 0.71619 0.3155 0.0
H965 H 0.70194 0.75357 0.37538 0.0
H966 H 0.77687 0.81525 0.35997 0.0
H967 H 0.84046 0.83066 0.3402 0.0
O968 O 0.76149 0.60402 0.34556 0.0
O969 O 0.69944 0.61653 0.30878 0.0
O970 O 0.61576 0.58542 0.30153 0.0
O971 O 0.68972 0.54278 0.35388 0.0
O972 O 0.71759 0.55066 0.31401 0.0
O973 O 0.65008 0.51181 0.29695 0.0
O974 O 0.51148 0.4921 0.29277 0.0
O975 O 0.60291 0.44782 0.31521 0.0
O976 O 0.6461 0.49078 0.33672 0.0
O977 O 0.57478 0.48596 0.28329 0.0
O978 O 0.56096 0.56508 0.31785 0.0
O979 O 0.63088 0.61441 0.33326 0.0
C980 C 0.66428 0.61869 0.30017 0.0
C981 C 0.75377 0.58909 0.37278 0.0
C982 C 0.81422 0.61497 0.39453 0.0
C983 C 0.77531 0.61293 0.40386 0.0
C984 C 0.71596 0.58561 0.3829 0.0
C985 C 0.72695 0.59846 0.39811 0.0
C986 C 0.80357 0.60407 0.37874 0.0
C987 C 0.69815 0.52816 0.30089 0.0
C988 C 0.73873 0.57177 0.35663 0.0
C989 C 0.77296 0.78338 0.35323 0.0
C990 C 0.80927 0.79214 0.34199 0.0
C991 C 0.62241 0.4475 0.32849 0.0
C992 C 0.53983 0.52473 0.26793 0.0
C993 C 0.4992 0.55045 0.24868 0.0
C994 C 0.54716 0.5879 0.2434 0.0
C995 C 0.58809 0.56208 0.2625 0.0
C996 C 0.49581 0.51919 0.26095 0.0
C997 C 0.59155 0.59333 0.25025 0.0
C998 C 0.58624 0.60494 0.32716 0.0
C999 C 0.53443 0.48998 0.28044 0.0
H1000 H 0.78215 0.62192 0.41583 0.0
H1001 H 0.67701 0.57147 0.37922 0.0
H1002 H 0.69725 0.59597 0.40562 0.0
H1003 H 0.8329 0.60519 0.37134 0.0
H1004 H 0.55018 0.61253 0.234 0.0
H1005 H 0.62301 0.56688 0.2676 0.0
H1006 H 0.45861 0.49056 0.26515 0.0
H1007 H 0.62863 0.62162 0.24603 0.0
H1008 H 0.13603 0.67453 0.21853 0.0
H1009 H 0.98962 0.61785 0.24091 0.0
H1010 H 1.03425 0.66221 0.26458 0.0
H1011 H 0.2098 0.66936 0.24991 0.0
H1012 H 0.26592 0.72845 0.24501 0.0
H1013 H 0.22145 0.69027 0.23043 0.0
H1014 H 0.21302 0.76914 0.22242 0.0
H1015 H 0.25693 0.80649 0.2372 0.0
H1016 H 0.19426 0.8007 0.23634 0.0
H1017 H 0.09699 0.71033 0.2865 0.0
H1018 H 0.169 0.77027 0.3028 0.0
H1019 H 0.27412 0.80102 0.26555 0.0
C1020 C 0.11337 0.67217 0.22837 0.0
C1021 C 0.05918 0.64307 0.22782 0.0
C1022 C 1.03097 0.64065 0.24095 0.0
C1023 C 0.05618 0.66522 0.25452 0.0
C1024 C 0.10977 0.69287 0.25476 0.0
C1025 C 0.13792 0.69756 0.24186 0.0
C1026 C 0.19485 0.73219 0.24475 0.0
C1027 C 0.22473 0.70331 0.24237 0.0
C1028 C 0.216 0.77997 0.23458 0.0
C1029 C 0.19468 0.7457 0.26138 0.0
C1030 C 0.1453 0.72195 0.26704 0.0
C1031 C 0.13568 0.72896 0.28213 0.0
C1032 C 0.17698 0.76254 0.29142 0.0
C1033 C 0.22756 0.78935 0.28567 0.0
C1034 C 0.23624 0.77995 0.27046 0.0
H1035 H 0.38504 0.13494 0.45223 0.0
H1036 H 0.52633 0.27671 0.44376 0.0
H1037 H 0.54229 0.2371 0.42147 0.0
H1038 H 0.42625 0.05112 0.44245 0.0
H1039 H 0.37215 1.00421 0.43175 0.0
H1040 H 0.36319 0.04016 0.44661 0.0
H1041 H 0.32143 0.07764 0.4299 0.0
H1042 H 0.32215 0.03816 0.41462 0.0
H1043 H 0.3497 0.10615 0.41192 0.0
H1044 H 0.54144 0.18493 0.39956 0.0
H1045 H 0.53115 0.12064 0.38103 0.0
H1046 H 0.38995 1.00917 0.40268 0.0
C1047 C 0.41909 0.15832 0.44562 0.0
C1048 C 0.45422 0.20979 0.44994 0.0
C1049 C 0.49894 0.23747 0.44104 0.0
C1050 C 0.50802 0.21537 0.42816 0.0
C1051 C 0.47192 0.16545 0.4241 0.0
C1052 C 0.4284 0.13708 0.43257 0.0
C1053 C 0.39625 0.08373 0.42575 0.0
C1054 C 0.38907 0.04227 0.43728 0.0
C1055 C 0.3443 0.07597 0.42022 0.0
C1056 C 0.42943 0.08597 0.41232 0.0
C1057 C 0.47216 0.13418 0.41153 0.0
C1058 C 0.50822 0.14716 0.40012 0.0
C1059 C 0.50162 0.10996 0.38949 0.0
C1060 C 0.45958 0.05924 0.39012 0.0
C1061 C 0.42217 0.04742 0.40163 0.0
H1062 H 0.29117 0.49411 0.59992 0.0
H1063 H 0.31195 0.40964 0.63642 0.0
H1064 H 0.36883 0.39238 0.61983 0.0
H1065 H 0.2789 0.40963 0.57226 0.0
H1066 H 0.31159 0.45314 0.55701 0.0
H1067 H 0.28043 0.47037 0.57149 0.0
H1068 H 0.36147 0.552 0.57935 0.0
H1069 H 0.39455 0.54184 0.56386 0.0
H1070 H 0.41966 0.55007 0.58284 0.0
H1071 H 0.41768 0.37672 0.59701 0.0
H1072 H 0.46019 0.37575 0.57282 0.0
H1073 H 0.40559 0.47049 0.55194 0.0
C1074 C 0.30951 0.47391 0.60468 0.0
C1075 C 0.29807 0.45463 0.61974 0.0
C1076 C 0.32124 0.42636 0.62519 0.0
C1077 C 0.3531 0.41572 0.61569 0.0
C1078 C 0.36168 0.43351 0.60067 0.0
C1079 C 0.34111 0.46297 0.59538 0.0
C1080 C 0.35275 0.47512 0.57864 0.0
C1081 C 0.30299 0.45075 0.56931 0.0
C1082 C 0.38395 0.5332 0.57601 0.0
C1083 C 0.3842 0.44923 0.57528 0.0
C1084 C 0.38847 0.42449 0.58797 0.0
C1085 C 0.41462 0.3965 0.58713 0.0
C1086 C 0.4382 0.39549 0.57325 0.0
C1087 C 0.43605 0.42266 0.56036 0.0
C1088 C 0.40787 0.44906 0.56152 0.0
H1089 H 0.96342 0.39173 0.71944 0.0
H1090 H 0.111 0.42403 0.73711 0.0
H1091 H 0.06834 0.37479 0.76046 0.0
H1092 H 0.90822 0.4028 0.7523 0.0
H1093 H 0.84493 0.34969 0.74936 0.0
H1094 H 0.88517 0.38233 0.73335 0.0
H1095 H 0.87821 0.29901 0.72309 0.0
H1096 H 0.83539 0.26476 0.73847 0.0
H1097 H 0.89193 0.25932 0.73543 0.0
H1098 H 1.00794 0.32887 0.78351 0.0
H1099 H 0.9364 0.27596 0.80103 0.0
H1100 H 0.82813 0.27043 0.76762 0.0
C1101 C 0.98675 0.38731 0.72805 0.0
C1102 C 1.04082 0.41161 0.72632 0.0
C1103 C 0.06968 0.40505 0.73795 0.0
C1104 C 1.04561 0.37757 0.75136 0.0
C1105 C 0.99239 0.35602 0.75295 0.0
C1106 C 0.96326 0.35928 0.74132 0.0
C1107 C 0.90671 0.332 0.74554 0.0
C1108 C 0.88497 0.36889 0.74511 0.0
C1109 C 0.87626 0.28604 0.73501 0.0
C1110 C 0.90839 0.31461 0.76167 0.0
C1111 C 0.95818 0.32911 0.76582 0.0
C1112 C 0.96896 0.31725 0.78024 0.0
C1113 C 0.92804 0.28787 0.79029 0.0
C1114 C 0.87645 0.27022 0.78603 0.0
C1115 C 0.86704 0.28471 0.77152 0.0
H1116 H 0.58299 0.94698 0.88716 0.0
H1117 H 0.71941 0.07988 0.90356 0.0
H1118 H 0.7241 1.0276 0.92488 0.0
H1119 H 0.52611 0.89442 0.92231 0.0
H1120 H 0.50213 0.82896 0.91661 0.0
H1121 H 0.51147 0.87661 0.90264 0.0
H1122 H 0.57035 0.85367 0.88705 0.0
H1123 H 0.56015 0.80513 0.90079 0.0
H1124 H 0.62431 0.85398 0.89615 0.0
H1125 H 0.70835 0.9578 0.9459 0.0
H1126 H 0.68231 0.87904 0.96122 0.0
H1127 H 0.55782 0.79353 0.92995 0.0
C1128 C 0.61442 0.96514 0.89509 0.0
C1129 C 0.65095 1.01776 0.89359 0.0
C1130 C 0.69133 0.03966 0.9043 0.0
C1131 C 0.69387 1.01019 0.91655 0.0
C1132 C 0.65614 0.95856 0.91788 0.0
C1133 C 0.61785 0.93625 0.90714 0.0
C1134 C 0.58229 0.88014 0.91063 0.0
C1135 C 0.52724 0.86944 0.9132 0.0
C1136 C 0.58443 0.84623 0.89791 0.0
C1137 C 0.60561 0.87394 0.92521 0.0
C1138 C 0.64803 0.91945 0.92938 0.0
C1139 C 0.67528 0.92219 0.9426 0.0
C1140 C 0.65987 0.87732 0.95139 0.0
C1141 C 0.61768 0.82994 0.94696 0.0
C1142 C 0.59 0.82906 0.93379 0.0
H1143 H 0.81581 0.70609 0.12013 0.0
H1144 H 0.82597 0.56934 0.11095 0.0
H1145 H 0.77389 0.55487 0.08776 0.0
H1146 H 0.69022 0.66368 0.10755 0.0
H1147 H 0.70269 0.72242 0.09843 0.0
H1148 H 0.74119 0.72361 0.11426 0.0
H1149 H 0.82367 0.77201 0.09878 0.0
H1150 H 0.7868 0.77325 0.0828 0.0
H1151 H 0.82933 0.74728 0.08071 0.0
H1152 H 0.72186 0.55685 0.06497 0.0
H1153 H 0.66738 0.56924 0.0465 0.0
H1154 H 0.69355 0.70671 0.06979 0.0
C1155 C 0.80779 0.6732 0.11324 0.0
C1156 C 0.82613 0.6392 0.11749 0.0
C1157 C 0.81264 0.59595 0.10818 0.0
C1158 C 0.78345 0.58776 0.09483 0.0
C1159 C 0.76795 0.62322 0.09078 0.0
C1160 C 0.77938 0.6649 0.09981 0.0
C1161 C 0.75831 0.69751 0.09299 0.0
C1162 C 0.72084 0.702 0.10394 0.0
C1163 C 0.80214 0.75066 0.08856 0.0
C1164 C 0.73138 0.66668 0.07893 0.0
C1165 C 0.73847 0.6246 0.0777 0.0
C1166 C 0.71699 0.59016 0.06575 0.0
C1167 C 0.68662 0.59805 0.05509 0.0
C1168 C 0.67806 0.64038 0.05613 0.0
C1169 C 0.70101 0.67519 0.06827 0.0
H1170 H 0.42782 0.07282 0.60571 0.0
H1171 H 0.40787 0.95037 0.63572 0.0
H1172 H 0.35469 0.88662 0.61645 0.0
H1173 H 0.29572 1.00314 0.58985 0.0
H1174 H 0.31635 1.0306 0.57125 0.0
H1175 H 0.35062 0.06595 0.58781 0.0
H1176 H 0.43487 0.07529 0.57672 0.0
H1177 H 0.40024 0.04032 0.56017 0.0
H1178 H 0.43708 1.01888 0.57095 0.0
H1179 H 0.30774 0.83551 0.59249 0.0
H1180 H 0.26322 0.80262 0.56791 0.0
H1181 H 0.31275 0.95828 0.55355 0.0
C1182 C 0.41092 1.03253 0.60836 0.0
C1183 C 0.42074 1.01661 0.62253 0.0
C1184 C 0.39939 0.96352 0.62529 0.0
C1185 C 0.3695 0.92695 0.61427 0.0
C1186 C 0.36089 0.94376 0.60035 0.0
C1187 C 0.38027 0.99538 0.59749 0.0
C1188 C 0.36489 1.00338 0.58169 0.0
C1189 C 0.32981 1.02717 0.58272 0.0
C1190 C 0.4121 0.0364 0.57182 0.0
C1191 C 0.33562 0.94855 0.57591 0.0
C1192 C 0.33365 0.9146 0.58682 0.0
C1193 C 0.30874 0.86193 0.58395 0.0
C1194 C 0.28389 0.84348 0.56984 0.0
C1195 C 0.28369 0.87738 0.55865 0.0
C1196 C 0.31111 0.9308 0.56181 0.0
H1197 H 0.3621 0.21407 0.73944 0.0
H1198 H 0.52205 0.2531 0.73822 0.0
H1199 H 0.54209 0.32061 0.75705 0.0
H1200 H 0.38525 0.34466 0.74372 0.0
H1201 H 0.33253 0.32792 0.75652 0.0
H1202 H 0.32943 0.28209 0.74279 0.0
H1203 H 0.31227 0.21709 0.76436 0.0
H1204 H 0.31573 0.26293 0.77817 0.0
H1205 H 0.35663 0.23495 0.77997 0.0
H1206 H 0.54598 0.38143 0.7763 0.0
H1207 H 0.53653 0.43856 0.79369 0.0
H1208 H 0.37366 0.36599 0.78368 0.0
C1209 C 0.40138 0.23668 0.74315 0.0
C1210 C 0.44056 0.22773 0.73709 0.0
C1211 C 0.49135 0.25907 0.74228 0.0
C1212 C 0.50309 0.29743 0.75316 0.0
C1213 C 0.46381 0.30475 0.75892 0.0
C1214 C 0.41398 0.27575 0.75407 0.0
C1215 C 0.37967 0.29303 0.76212 0.0
C1216 C 0.35527 0.31311 0.7506 0.0
C1217 C 0.33863 0.24939 0.77172 0.0
C1218 C 0.41817 0.33623 0.77224 0.0
C1219 C 0.46624 0.34146 0.77013 0.0
C1220 C 0.50857 0.37776 0.77796 0.0
C1221 C 0.50242 0.41037 0.78794 0.0
C1222 C 0.45422 0.40795 0.79026 0.0
C1223 C 0.41103 0.36931 0.78237 0.0
H1224 H 1.01435 0.35437 0.94427 0.0
H1225 H 0.13591 0.48402 0.96772 0.0
H1226 H 0.19764 0.4904 0.94872 0.0
H1227 H 0.10733 0.30541 0.93428 0.0
H1228 H 0.07655 0.27807 0.9165 0.0
H1229 H 1.03937 0.28043 0.93224 0.0
H1230 H 1.00693 0.33484 0.9162 0.0
H1231 H 1.03749 0.3197 0.90108 0.0
H1232 H 0.05387 0.38454 0.90418 0.0
H1233 H 0.24574 0.49139 0.9259 0.0
H1234 H 0.28076 0.47686 0.90237 0.0
H1235 H 0.13223 0.34463 0.89292 0.0
C1236 C 0.05416 0.38308 0.94558 0.0
C1237 C 0.06973 0.41934 0.95761 0.0
C1238 C 0.12247 0.4562 0.95872 0.0
C1239 C 0.15818 0.46037 0.94787 0.0
C1240 C 0.1417 0.4263 0.93585 0.0
C1241 C 0.09144 0.3872 0.93477 0.0
C1242 C 0.08622 0.35409 0.92096 0.0
C1243 C 0.07681 0.30138 0.92631 0.0
C1244 C 1.04361 0.34814 0.91004 0.0
C1245 C 0.13943 0.38461 0.91376 0.0
C1246 C 0.17096 0.4253 0.92282 0.0
C1247 C 0.22158 0.45927 0.91873 0.0
C1248 C 0.24107 0.45109 0.90513 0.0
C1249 C 0.21011 0.4095 0.89549 0.0
C1250 C 0.15811 0.37626 0.89998 0.0
H1251 H 0.65165 0.99972 0.10469 0.0
H1252 H 0.71615 0.10675 0.14181 0.0
H1253 H 0.77461 0.1737 0.12394 0.0
H1254 H 0.7759 0.04744 0.08364 0.0
H1255 H 0.74463 0.03604 0.06547 0.0
H1256 H 0.71095 0.99631 0.08147 0.0
H1257 H 0.63808 1.01821 0.07755 0.0
H1258 H 0.67209 0.05832 0.06163 0.0
H1259 H 0.65401 0.08442 0.0773 0.0
H1260 H 0.81999 0.23266 0.10094 0.0
H1261 H 0.85896 0.27225 0.07616 0.0
H1262 H 0.76849 0.12565 0.05426 0.0
C1263 C 0.67986 0.0365 0.10915 0.0
C1264 C 0.6803 0.04735 0.12481 0.0
C1265 C 0.71607 0.09693 0.13 0.0
C1266 C 0.74905 0.1355 0.11985 0.0
C1267 C 0.74659 0.12409 0.10441 0.0
C1268 C 0.71399 0.0752 0.09917 0.0
C1269 C 0.71883 0.07277 0.08204 0.0
C1270 C 0.73878 0.03597 0.07791 0.0
C1271 C 0.66764 0.05741 0.07416 0.0
C1272 C 0.75822 0.12797 0.07841 0.0
C1273 C 0.77347 0.15726 0.09142 0.0
C1274 C 0.8086 0.20973 0.09073 0.0
C1275 C 0.83014 0.23222 0.07655 0.0
C1276 C 0.81692 0.20243 0.06316 0.0
C1277 C 0.77956 0.14973 0.06423 0.0
H1278 H 0.61464 0.67291 0.29605 0.0
H1279 H 0.73718 0.65348 0.27723 0.0
H1280 H 0.74045 0.70561 0.2548 0.0
H1281 H 0.54831 0.66249 0.26282 0.0
H1282 H 0.53176 0.71101 0.26728 0.0
H1283 H 0.54224 0.67643 0.2823 0.0
H1284 H 0.61156 0.76046 0.29422 0.0
H1285 H 0.60037 0.79586 0.27963 0.0
H1286 H 0.66402 0.80579 0.28272 0.0
H1287 H 0.72356 0.75579 0.23292 0.0
H1288 H 0.69916 0.80846 0.21675 0.0
H1289 H 0.58837 0.79426 0.25055 0.0
C1290 C 0.64322 0.68077 0.28741 0.0
C1291 C 0.67632 0.65969 0.28858 0.0
C1292 C 0.71245 0.67027 0.27685 0.0
C1293 C 0.71398 0.69935 0.26395 0.0
C1294 C 0.67939 0.71804 0.26294 0.0
C1295 C 0.64552 0.70997 0.27463 0.0
C1296 C 0.61241 0.73404 0.27112 0.0
C1297 C 0.55531 0.69358 0.27086 0.0
C1298 C 0.62273 0.77657 0.2826 0.0
C1299 C 0.63159 0.75586 0.25539 0.0
C1300 C 0.6701 0.74625 0.25075 0.0
C1301 C 0.69357 0.76347 0.23657 0.0
C1302 C 0.67897 0.79284 0.2273 0.0
C1303 C 0.64123 0.80505 0.23216 0.0
C1304 C 0.61676 0.78506 0.24631 0.0
H1305 H 0.97768 0.5988 0.46368 0.0
H1306 H 0.1127 0.73075 0.44615 0.0
H1307 H 0.06097 0.73527 0.42465 0.0
H1308 H 0.92981 0.53961 0.42899 0.0
H1309 H 0.86337 0.51458 0.43383 0.0
H1310 H 0.90946 0.52589 0.44849 0.0
H1311 H 0.88426 0.58556 0.46285 0.0
H1312 H 0.83611 0.57212 0.44861 0.0
H1313 H 0.88316 0.63731 0.4528 0.0
H1314 H 0.99132 0.719 0.4035 0.0
H1315 H 0.91331 0.69071 0.38761 0.0
H1316 H 0.8272 0.56793 0.41941 0.0
C1317 C 0.99614 0.62996 0.45565 0.0
C1318 C 0.04909 0.66551 0.45695 0.0
C1319 C 0.07194 0.70431 0.44579 0.0
C1320 C 1.04283 0.70648 0.43338 0.0
C1321 C 0.99089 0.6694 0.43221 0.0
C1322 C 0.96791 0.63233 0.44328 0.0
C1323 C 0.91239 0.5955 0.43949 0.0
C1324 C 0.90325 0.54068 0.43759 0.0
C1325 C 0.87685 0.59776 0.45166 0.0
C1326 C 0.90701 0.61725 0.4245 0.0
C1327 C 0.95251 0.65974 0.42032 0.0
C1328 C 0.95574 0.68582 0.40679 0.0
C1329 C 0.91131 0.66916 0.39769 0.0
C1330 C 0.86395 0.62684 0.40212 0.0
C1331 C 0.86269 0.60028 0.41559 0.0
H1332 H 0.62166 0.69567 0.34547 0.0
H1333 H 0.50367 0.60453 0.31294 0.0
H1334 H 0.47012 0.66463 0.31463 0.0
H1335 H 0.54032 0.72693 0.3694 0.0
H1336 H 0.59044 0.79093 0.37354 0.0
H1337 H 0.6062 0.7415 0.36948 0.0
H1338 H 0.66669 0.79735 0.34809 0.0
H1339 H 0.65054 0.84663 0.352 0.0
H1340 H 0.64212 0.82045 0.33317 0.0
H1341 H 0.44836 0.73894 0.31969 0.0
H1342 H 0.43927 0.81248 0.32863 0.0
H1343 H 0.56688 0.85454 0.35923 0.0
C1344 C 0.58831 0.68758 0.33887 0.0
C1345 C 0.56556 0.64327 0.3292 0.0
C1346 C 0.5224 0.63665 0.3206 0.0
C1347 C 0.50282 0.67126 0.32145 0.0
C1348 C 0.52572 0.71377 0.33111 0.0
C1349 C 0.56747 0.72178 0.3398 0.0
C1350 C 0.58433 0.77003 0.34955 0.0
C1351 C 0.58008 0.75654 0.3665 0.0
C1352 C 0.63919 0.81104 0.34546 0.0
C1353 C 0.54564 0.78766 0.34512 0.0
C1354 C 0.51247 0.75498 0.33429 0.0
C1355 C 0.47424 0.7642 0.32825 0.0
C1356 C 0.46929 0.80668 0.33341 0.0
C1357 C 0.50166 0.84051 0.34483 0.0
C1358 C 0.54064 0.83006 0.3506 0.0
H1359 H 0.69564 0.44048 0.49958 0.0
H1360 H 0.72642 0.56875 0.52874 0.0
H1361 H 0.81774 0.60464 0.5246 0.0
H1362 H 0.80848 0.43059 0.51206 0.0
H1363 H 0.82411 0.41604 0.49365 0.0
H1364 H 0.7589 0.39882 0.49808 0.0
H1365 H 0.75689 0.44777 0.47458 0.0
H1366 H 0.82292 0.46828 0.47017 0.0
H1367 H 0.80207 0.5148 0.47271 0.0
H1368 H 0.90839 0.62884 0.51864 0.0
H1369 H 0.99097 0.63968 0.51078 0.0
H1370 H 0.91505 0.49957 0.48483 0.0
C1371 C 0.72141 0.4765 0.50494 0.0
C1372 C 0.70089 0.50129 0.51458 0.0
C1373 C 0.73827 0.54799 0.52133 0.0
C1374 C 0.79149 0.56919 0.51905 0.0
C1375 C 0.81011 0.54414 0.50989 0.0
C1376 C 0.77657 0.49874 0.50284 0.0
C1377 C 0.80928 0.48047 0.49381 0.0
C1378 C 0.7996 0.42836 0.49975 0.0
C1379 C 0.7971 0.47763 0.4768 0.0
C1380 C 0.86555 0.52252 0.49699 0.0
C1381 C 0.86407 0.55854 0.50636 0.0
C1382 C 0.90955 0.60066 0.51127 0.0
C1383 C 0.9574 0.60664 0.50668 0.0
C1384 C 0.96246 0.57139 0.4971 0.0
C1385 C 0.91449 0.52814 0.49216 0.0
H1386 H 0.43498 0.89723 0.6538 0.0
H1387 H 0.38107 0.97442 0.68406 0.0
H1388 H 0.30937 0.891 0.69179 0.0
H1389 H 0.3017 0.79354 0.64258 0.0
H1390 H 0.32253 0.74678 0.64085 0.0
H1391 H 0.36699 0.81375 0.63777 0.0
H1392 H 0.42565 0.8046 0.65866 0.0
H1393 H 0.37755 0.73874 0.66151 0.0
H1394 H 0.39915 0.78256 0.67726 0.0
H1395 H 0.24199 0.79845 0.69694 0.0
H1396 H 0.1858 0.70696 0.69942 0.0
H1397 H 0.27434 0.67878 0.66573 0.0
C1398 C 0.40835 0.8968 0.66215 0.0
C1399 C 0.41557 0.94473 0.66828 0.0
C1400 C 0.37816 0.94026 0.679 0.0
C1401 C 0.33662 0.89223 0.68353 0.0
C1402 C 0.33065 0.84661 0.67729 0.0
C1403 C 0.36527 0.84819 0.66673 0.0
C1404 C 0.34799 0.79243 0.66163 0.0
C1405 C 0.33405 0.78618 0.6447 0.0
C1406 C 0.39009 0.77876 0.66495 0.0
C1407 C 0.29959 0.75928 0.67137 0.0
C1408 C 0.29069 0.79233 0.68014 0.0
C1409 C 0.24913 0.7728 0.69005 0.0
C1410 C 0.21657 0.71936 0.69135 0.0
C1411 C 0.22316 0.68244 0.68289 0.0
C1412 C 0.26615 0.70396 0.67246 0.0
H1413 H 0.48234 0.37178 0.84668 0.0
H1414 H 0.60334 0.46676 0.81544 0.0
H1415 H 0.63698 0.40654 0.81694 0.0
H1416 H 0.55953 0.33604 0.87095 0.0
H1417 H 0.50848 0.27158 0.87401 0.0
H1418 H 0.49385 0.32201 0.87022 0.0
H1419 H 0.43696 0.26998 0.84781 0.0
H1420 H 0.45226 0.21997 0.85125 0.0
H1421 H 0.46376 0.24958 0.83286 0.0
H1422 H 0.65694 0.3294 0.82129 0.0
H1423 H 0.66405 0.25409 0.82972 0.0
H1424 H 0.5354 0.21133 0.85985 0.0
C1425 C 0.51615 0.38051 0.84024 0.0
C1426 C 0.53943 0.42577 0.83091 0.0
C1427 C 0.58385 0.43369 0.82275 0.0
C1428 C 0.60351 0.39898 0.8235 0.0
C1429 C 0.57961 0.35511 0.8327 0.0
C1430 C 0.53709 0.3463 0.84111 0.0
C1431 C 0.51881 0.29658 0.85031 0.0
C1432 C 0.52024 0.30719 0.86739 0.0
C1433 C 0.46472 0.25666 0.84526 0.0
C1434 C 0.55792 0.27928 0.84609 0.0
C1435 C 0.59215 0.31301 0.83562 0.0
C1436 C 0.63027 0.30352 0.82962 0.0
C1437 C 0.63404 0.25991 0.83447 0.0
C1438 C 0.60082 0.22517 0.84564 0.0
C1439 C 0.5621 0.23605 0.85138 0.0
H1440 H 0.18382 0.54805 0.98405 0.0
H1441 H 0.11079 0.48182 0.02692 0.0
H1442 H 0.19397 0.4989 0.03732 0.0
H1443 H 0.27383 0.49705 0.9849 0.0
H1444 H 0.32636 0.55287 0.97646 0.0
H1445 H 0.26134 0.53663 0.97215 0.0
H1446 H 0.28018 0.62614 0.98077 0.0
H1447 H 0.34522 0.6427 0.98518 0.0
H1448 H 0.30537 0.64817 0.99951 0.0
H1449 H 0.28651 0.52396 0.04372 0.0
H1450 H 0.37753 0.55142 0.04563 0.0
H1451 H 0.39889 0.59992 0.9985 0.0
C1452 C 0.18484 0.53626 0.99557 0.0
C1453 C 0.13809 0.51076 1.00433 0.0
C1454 C 0.14373 0.4986 0.01953 0.0
C1455 C 0.19173 0.50903 0.02567 0.0
C1456 C 0.23603 0.53227 0.01667 0.0
C1457 C 0.23324 0.54576 1.00188 0.0
C1458 C 0.28741 0.56959 0.99472 0.0
C1459 C 0.28723 0.53711 0.98125 0.0
C1460 C 0.30562 0.62494 0.98975 0.0
C1461 C 0.32107 0.56789 1.00781 0.0
C1462 C 0.2899 0.54622 0.02033 0.0
C1463 C 0.3107 0.5405 0.03388 0.0
C1464 C 0.36353 0.55635 0.0348 0.0
C1465 C 0.3979 0.57794 0.0223 0.0
C1466 C 0.37534 0.58397 1.00849 0.0
H1467 H 0.86661 0.34738 0.19241 0.0
H1468 H 0.83123 0.43335 0.15973 0.0
H1469 H 0.75774 0.35218 0.1506 0.0
H1470 H 0.83467 0.23776 0.16744 0.0
H1471 H 0.80816 0.19055 0.1823 0.0
H1472 H 0.85729 0.25471 0.18663 0.0
H1473 H 0.7999 0.26297 0.2067 0.0
H1474 H 0.7502 0.19867 0.20273 0.0
H1475 H 0.73674 0.2508 0.20152 0.0
H1476 H 0.68255 0.25636 0.14522 0.0
H1477 H 0.62216 0.16362 0.14357 0.0
H1478 H 0.70678 0.1366 0.17877 0.0
C1479 C 0.84372 0.34962 0.18328 0.0
C1480 C 0.8563 0.39894 0.17698 0.0
C1481 C 0.82404 0.39778 0.16496 0.0
C1482 C 0.78151 0.35108 0.15967 0.0
C1483 C 0.77033 0.30376 0.16618 0.0
C1484 C 0.80122 0.30287 0.17768 0.0
C1485 C 0.78181 0.24683 0.18258 0.0
C1486 C 0.82293 0.23156 0.17956 0.0
C1487 C 0.76626 0.23939 0.19938 0.0
C1488 C 0.73476 0.21614 0.17232 0.0
C1489 C 0.72875 0.24983 0.16294 0.0
C1490 C 0.68777 0.23046 0.1526 0.0
C1491 C 0.65291 0.17673 0.15177 0.0
C1492 C 0.65754 0.14027 0.16109 0.0
C1493 C 0.70015 0.16163 0.1715 0.0
H1494 H 0.2658 0.59664 0.51777 0.0
H1495 H 0.26563 0.58804 0.4687 0.0
H1496 H 0.33259 0.56353 0.46982 0.0
H1497 H 0.40717 0.65053 0.52189 0.0
H1498 H 0.40246 0.61526 0.53894 0.0
H1499 H 0.35409 0.63246 0.53466 0.0
H1500 H 0.28385 0.53751 0.5365 0.0
H1501 H 0.33282 0.5215 0.54103 0.0
H1502 H 0.28995 0.49043 0.52537 0.0
H1503 H 0.39964 0.53566 0.47593 0.0
H1504 H 0.46223 0.51281 0.4864 0.0
H1505 H 0.42703 0.54147 0.53176 0.0
C1506 C 0.28031 0.59042 0.50722 0.0
C1507 C 0.25843 0.5942 0.49302 0.0
C1508 C 0.27963 0.58492 0.47974 0.0
C1509 C 0.31846 0.57098 0.48026 0.0
C1510 C 0.33818 0.56657 0.49422 0.0
C1511 C 0.32036 0.57672 0.50752 0.0
C1512 C 0.34929 0.56945 0.52098 0.0
C1513 C 0.38007 0.61993 0.52963 0.0
C1514 C 0.31163 0.52714 0.5316 0.0
C1515 C 0.38547 0.55337 0.51321 0.0
C1516 C 0.37793 0.5518 0.49772 0.0
C1517 C 0.40558 0.53705 0.48806 0.0
C1518 C 0.44129 0.5236 0.49418 0.0
C1519 C 0.45068 0.52454 0.51 0.0
C1520 C 0.42199 0.54036 0.51959 0.0
H1521 H 0.73668 0.20665 0.65539 0.0
H1522 H 0.65082 0.26676 0.67887 0.0
H1523 H 0.73206 0.34188 0.68672 0.0
H1524 H 0.83965 0.24957 0.68445 0.0
H1525 H 0.88986 0.26408 0.67086 0.0
H1526 H 0.82526 0.21508 0.66681 0.0
H1527 H 0.82709 0.26093 0.64186 0.0
H1528 H 0.89165 0.31003 0.6459 0.0
H1529 H 0.84277 0.32709 0.64235 0.0
H1530 H 0.82572 0.41471 0.69183 0.0
H1531 H 0.91804 0.47271 0.69488 0.0
H1532 H 0.94905 0.36667 0.66998 0.0
C1533 C 0.73458 0.23533 0.66224 0.0
C1534 C 0.68516 0.22921 0.66628 0.0
C1535 C 0.68641 0.26893 0.67537 0.0
C1536 C 0.73313 0.31242 0.67994 0.0
C1537 C 0.78048 0.31713 0.67573 0.0
C1538 C 0.78159 0.27911 0.66723 0.0
C1539 C 0.83813 0.29318 0.6647 0.0
C1540 C 0.84886 0.25308 0.67214 0.0
C1541 C 0.85064 0.29809 0.64768 0.0
C1542 C 0.86863 0.34541 0.67275 0.0
C1543 C 0.83418 0.35823 0.67901 0.0
C1544 C 0.85243 0.40435 0.68694 0.0
C1545 C 0.906 0.43767 0.68861 0.0
C1546 C 0.94356 0.42648 0.68258 0.0
C1547 C 0.9233 0.37859 0.67452 0.0
H1548 H 0.59313 0.92926 0.83263 0.0
H1549 H 0.49652 0.90803 0.87141 0.0
H1550 H 0.46394 0.815 0.87029 0.0
H1551 H 0.50024 0.81364 0.81243 0.0
H1552 H 0.54778 0.79943 0.80495 0.0
H1553 H 0.5646 0.86459 0.8091 0.0
H1554 H 0.63746 0.87363 0.82678 0.0
H1555 H 0.62099 0.80922 0.82207 0.0
H1556 H 0.62341 0.82727 0.84165 0.0
H1557 H 0.44204 0.71762 0.8651 0.0
H1558 H 0.43065 0.6348 0.85555 0.0
H1559 H 0.53619 0.71568 0.81898 0.0
C1560 C 0.56524 0.90547 0.84092 0.0
C1561 C 0.54848 0.92874 0.85219 0.0
C1562 C 0.51093 0.8936 0.86254 0.0
C1563 C 0.49193 0.83962 0.86203 0.0
C1564 C 0.50929 0.81837 0.85086 0.0
C1565 C 0.54482 0.85059 0.84034 0.0
C1566 C 0.55619 0.81793 0.82916 0.0
C1567 C 0.54133 0.82429 0.81294 0.0
C1568 C 0.61293 0.83292 0.82999 0.0
C1569 C 0.52195 0.7626 0.83492 0.0
C1570 C 0.49552 0.76366 0.84761 0.0
C1571 C 0.46266 0.71724 0.85508 0.0
C1572 C 0.45631 0.66954 0.84953 0.0
C1573 C 0.48181 0.66633 0.8363 0.0
C1574 C 0.51532 0.71482 0.82906 0.0
H1575 H 0.63892 0.48506 0.02216 0.0
H1576 H 0.71861 0.64177 1.00613 0.0
H1577 H 0.79203 0.63172 0.99891 0.0
H1578 H 0.75558 0.48905 0.0381 0.0
H1579 H 0.73765 0.42419 0.03313 0.0
H1580 H 0.68894 0.44149 0.03675 0.0
H1581 H 0.64928 0.40698 0.01046 0.0
H1582 H 0.69775 0.38943 1.00677 0.0
H1583 H 0.68874 0.43067 0.99374 0.0
H1584 H 0.8587 0.60619 0.99268 0.0
H1585 H 0.91343 0.56876 0.9883 0.0
H1586 H 0.80057 0.42689 1.00913 0.0
C1587 C 0.67155 0.51722 0.01696 0.0
C1588 C 0.67035 0.56421 0.01421 0.0
C1589 C 0.71563 0.60481 1.0078 0.0
C1590 C 0.75863 0.59959 1.00381 0.0
C1591 C 0.75824 0.55337 1.00643 0.0
C1592 C 0.7161 0.51274 0.01299 0.0
C1593 C 0.72761 0.46786 0.01483 0.0
C1594 C 0.72741 0.45484 0.0317 0.0
C1595 C 0.6885 0.42093 1.00593 0.0
C1596 C 0.78207 0.48932 1.00799 0.0
C1597 C 0.79833 0.53899 1.00333 0.0
C1598 C 0.84602 0.56744 0.99642 0.0
C1599 C 0.87755 0.54534 0.99397 0.0
C1600 C 0.86366 0.49444 0.99836 0.0
C1601 C 0.8143 0.46612 1.00572 0.0
H1602 H 0.36163 0.85573 0.15155 0.0
H1603 H 0.44239 0.83102 0.18842 0.0
H1604 H 0.36047 0.75777 0.19717 0.0
H1605 H 0.24506 0.82437 0.17495 0.0
H1606 H 0.20183 0.79624 0.1592 0.0
H1607 H 0.26641 0.84627 0.15594 0.0
H1608 H 0.27955 0.78775 0.13719 0.0
H1609 H 0.21505 0.73736 0.14065 0.0
H1610 H 0.26806 0.72583 0.1435 0.0
H1611 H 0.26577 0.68075 0.20141 0.0
H1612 H 0.17373 0.61764 0.20193 0.0
H1613 H 0.14894 0.69361 0.16374 0.0
C1614 C 0.36249 0.83551 0.16157 0.0
C1615 C 0.41072 0.85088 0.16913 0.0
C1616 C 0.40773 0.82174 0.18223 0.0
C1617 C 0.36061 0.77933 0.18731 0.0
C1618 C 0.31445 0.76541 0.17957 0.0
C1619 C 0.31498 0.79361 0.16711 0.0
C1620 C 0.2595 0.77201 0.16122 0.0
C1621 C 0.24217 0.81211 0.16293 0.0
C1622 C 0.2553 0.75472 0.14465 0.0
C1623 C 0.22783 0.72606 0.17181 0.0
C1624 C 0.26053 0.72312 0.18234 0.0
C1625 C 0.24059 0.68363 0.19315 0.0
C1626 C 0.18728 0.64713 0.19331 0.0
C1627 C 0.15156 0.64879 0.18292 0.0
C1628 C 0.17339 0.68996 0.17201 0.0
H1629 H 0.5481 0.34589 0.32061 0.0
H1630 H 0.68019 0.42807 0.34968 0.0
H1631 H 0.67263 0.34546 0.35783 0.0
H1632 H 0.4772 0.23814 0.34713 0.0
H1633 H 0.44968 0.19101 0.33233 0.0
H1634 H 0.46579 0.25628 0.32864 0.0
H1635 H 0.52154 0.25924 0.30606 0.0
H1636 H 0.5064 0.19424 0.30972 0.0
H1637 H 0.57221 0.24424 0.30899 0.0
H1638 H 0.65272 0.25004 0.36194 0.0
H1639 H 0.6191 0.15708 0.36361 0.0
H1640 H 0.4944 0.13241 0.3338 0.0
C1641 C 0.57559 0.34685 0.32874 0.0
C1642 C 0.61541 0.39538 0.33431 0.0
C1643 C 0.64945 0.39295 0.34509 0.0
C1644 C 0.64543 0.34552 0.34977 0.0
C1645 C 0.60633 0.29894 0.34396 0.0
C1646 C 0.57134 0.29932 0.33384 0.0
C1647 C 0.53174 0.24368 0.32971 0.0
C1648 C 0.47789 0.23157 0.33475 0.0
C1649 C 0.53304 0.23484 0.3126 0.0
C1650 C 0.55007 0.21175 0.33884 0.0
C1651 C 0.59358 0.24468 0.34686 0.0
C1652 C 0.61844 0.22459 0.35571 0.0
C1653 C 0.59878 0.17074 0.35654 0.0
C1654 C 0.5533 0.13484 0.34885 0.0
C1655 C 0.52899 0.15698 0.33985 0.0
H1656 H 0.18402 0.68854 0.43279 0.0
H1657 H 0.29424 0.72468 0.46905 0.0
H1658 H 0.36366 0.78245 0.45189 0.0
H1659 H 0.26714 0.69422 0.4013 0.0
H1660 H 0.24453 0.72511 0.3883 0.0
H1661 H 0.2029 0.68401 0.40302 0.0
H1662 H 0.1888 0.7574 0.41266 0.0
H1663 H 0.23033 0.79868 0.39795 0.0
H1664 H 0.2434 0.81796 0.41753 0.0
H1665 H 0.4224 0.83631 0.43098 0.0
H1666 H 0.46601 0.88698 0.40846 0.0
H1667 H 0.3203 0.82384 0.3849 0.0
C1668 C 0.2229 0.70815 0.43703 0.0
C1669 C 0.23338 0.70121 0.4524 0.0
C1670 C 0.28482 0.72884 0.45745 0.0
C1671 C 0.32475 0.76186 0.44772 0.0
C1672 C 0.31335 0.76821 0.43278 0.0
C1673 C 0.26366 0.74259 0.42742 0.0
C1674 C 0.26239 0.75889 0.41098 0.0
C1675 C 0.24308 0.7128 0.40027 0.0
C1676 C 0.22925 0.78476 0.40971 0.0
C1677 C 0.31897 0.79726 0.40798 0.0
C1678 C 0.34742 0.80137 0.42076 0.0
C1679 C 0.40033 0.83344 0.42095 0.0
C1680 C 0.42495 0.86232 0.40793 0.0
C1681 C 0.39736 0.86029 0.39459 0.0
C1682 C 0.34315 0.82678 0.39474 0.0
H1683 H 0.55068 0.38946 0.57815 0.0
H1684 H 0.60755 0.33806 0.54074 0.0
H1685 H 0.61439 0.27613 0.55773 0.0
H1686 H 0.6261 0.37538 0.60836 0.0
H1687 H 0.57486 0.35083 0.622 0.0
H1688 H 0.57715 0.39358 0.60728 0.0
H1689 H 0.48617 0.3276 0.59866 0.0
H1690 H 0.48267 0.28389 0.61322 0.0
H1691 H 0.47226 0.26382 0.59372 0.0
H1692 H 0.61419 0.21798 0.57896 0.0
H1693 H 0.60311 0.16651 0.60191 0.0
H1694 H 0.54081 0.25017 0.62553 0.0
C1695 C 0.56543 0.3658 0.5736 0.0
C1696 C 0.57941 0.36959 0.55803 0.0
C1697 C 0.59703 0.33656 0.55255 0.0
C1698 C 0.60105 0.30109 0.56217 0.0
C1699 C 0.58654 0.29792 0.57736 0.0
C1700 C 0.56866 0.32913 0.58303 0.0
C1701 C 0.55256 0.3156 0.59957 0.0
C1702 C 0.58456 0.36158 0.60992 0.0
C1703 C 0.49501 0.29662 0.6014 0.0
C1704 C 0.56478 0.27247 0.60238 0.0
C1705 C 0.58463 0.26315 0.58941 0.0
C1706 C 0.5987 0.22517 0.58916 0.0
C1707 C 0.59227 0.19596 0.60237 0.0
C1708 C 0.57152 0.20402 0.6159 0.0
C1709 C 0.55761 0.24312 0.6157 0.0
H1710 H 0.39847 0.51733 0.76732 0.0
H1711 H 0.34288 0.571 0.80452 0.0
H1712 H 0.28433 0.58121 0.78703 0.0
H1713 H 0.38937 0.59795 0.73734 0.0
H1714 H 0.36603 0.54873 0.72306 0.0
H1715 H 0.40654 0.54826 0.73811 0.0
H1716 H 0.33791 0.45627 0.74533 0.0
H1717 H 0.29721 0.45644 0.73031 0.0
H1718 H 0.27368 0.44289 0.74951 0.0
H1719 H 0.2329 0.58742 0.76599 0.0
H1720 H 0.18496 0.58263 0.7432 0.0
H1721 H 0.26455 0.51766 0.71834 0.0
C1722 C 0.37439 0.53188 0.77169 0.0
C1723 C 0.37605 0.54419 0.78739 0.0
C1724 C 0.34281 0.5617 0.79265 0.0
C1725 C 0.30935 0.56769 0.78275 0.0
C1726 C 0.30832 0.55513 0.76747 0.0
C1727 C 0.33936 0.53696 0.7619 0.0
C1728 C 0.32771 0.52367 0.74504 0.0
C1729 C 0.37525 0.55661 0.73531 0.0
C1730 C 0.30796 0.46641 0.74239 0.0
C1731 C 0.28557 0.53747 0.74206 0.0
C1732 C 0.27592 0.55613 0.75524 0.0
C1733 C 0.24 0.57261 0.75564 0.0
C1734 C 0.21277 0.56974 0.74241 0.0
C1735 C 0.22012 0.54969 0.7286 0.0
C1736 C 0.25751 0.53326 0.72854 0.0
H1737 H 0.78376 0.23784 0.88689 0.0
H1738 H 0.63595 0.19205 0.90758 0.0
H1739 H 0.67869 0.24611 0.9295 0.0
H1740 H 0.85038 0.2432 0.92193 0.0
H1741 H 0.90952 0.29941 0.91695 0.0
H1742 H 0.86855 0.25758 0.90228 0.0
H1743 H 0.86559 0.33357 0.88949 0.0
H1744 H 0.90683 0.37568 0.90408 0.0
H1745 H 0.84582 0.37161 0.90038 0.0
H1746 H 0.73573 0.30115 0.95032 0.0
H1747 H 0.80411 0.35757 0.96793 0.0
H1748 H 0.91848 0.37567 0.93476 0.0
C1749 C 0.76034 0.2395 0.89596 0.0
C1750 C 0.70566 0.20976 0.89515 0.0
C1751 C 0.67735 0.21361 0.90754 0.0
C1752 C 0.70146 0.24454 0.92022 0.0
C1753 C 0.75471 0.27273 0.92072 0.0
C1754 C 0.78412 0.27108 0.9089 0.0
C1755 C 0.84105 0.30588 0.91264 0.0
C1756 C 0.86903 0.27464 0.91349 0.0
C1757 C 0.86633 0.34926 0.90095 0.0
C1758 C 0.83865 0.32688 0.92831 0.0
C1759 C 0.78816 0.3066 0.9327 0.0
C1760 C 0.77535 0.31771 0.94688 0.0
C1761 C 0.81466 0.35001 0.95688 0.0
C1762 C 0.86699 0.37231 0.9528 0.0
C1763 C 0.87897 0.36055 0.93817 0.0
H1764 H 0.53435 0.88669 0.10254 0.0
H1765 H 0.5557 0.81195 0.14183 0.0
H1766 H 0.55407 0.74511 0.12527 0.0
H1767 H 0.44982 0.77213 0.08131 0.0
H1768 H 0.47814 0.79798 0.06311 0.0
H1769 H 0.47995 0.84004 0.07794 0.0
H1770 H 0.57851 0.89271 0.07558 0.0
H1771 H 0.57699 0.85076 0.06074 0.0
H1772 H 0.6159 0.86086 0.07733 0.0
H1773 H 0.54973 0.6852 0.10462 0.0
H1774 H 0.54655 0.63844 0.08151 0.0
H1775 H 0.52863 0.74964 0.05443 0.0
C1776 C 0.5383 0.85604 0.10768 0.0
C1777 C 0.54478 0.85489 0.12371 0.0
C1778 C 0.55068 0.81426 0.12975 0.0
C1779 C 0.54972 0.77583 0.12037 0.0
C1780 C 0.54343 0.77812 0.10473 0.0
C1781 C 0.53821 0.81736 0.09836 0.0
C1782 C 0.53363 0.81112 0.08108 0.0
C1783 C 0.48232 0.80495 0.07554 0.0
C1784 C 0.57894 0.85657 0.07322 0.0
C1785 C 0.53606 0.7618 0.0788 0.0
C1786 C 0.54185 0.74374 0.09268 0.0
C1787 C 0.54522 0.69916 0.09372 0.0
C1788 C 0.54308 0.6725 0.08037 0.0
C1789 C 0.53769 0.68979 0.06582 0.0
C1790 C 0.53373 0.73529 0.06518 0.0
H1791 H 0.70356 0.54182 0.26951 0.0
H1792 H 0.7731 0.5041 0.30689 0.0
H1793 H 0.83168 0.49544 0.28894 0.0
H1794 H 0.7127 0.4596 0.24093 0.0
H1795 H 0.73 0.50536 0.22572 0.0
H1796 H 0.69164 0.50643 0.24129 0.0
H1797 H 0.7574 0.60125 0.24636 0.0
H1798 H 0.79589 0.60057 0.23077 0.0
H1799 H 0.82363 0.6195 0.24939 0.0
H1800 H 0.88129 0.48824 0.26697 0.0
H1801 H 0.92488 0.49127 0.24317 0.0
H1802 H 0.83018 0.54078 0.2192 0.0
C1803 C 0.73084 0.53124 0.27387 0.0
C1804 C 0.73305 0.52281 0.2897 0.0
C1805 C 0.77029 0.51043 0.29492 0.0
C1806 C 0.80372 0.50532 0.28475 0.0
C1807 C 0.80061 0.51375 0.26929 0.0
C1808 C 0.7657 0.52727 0.26385 0.0
C1809 C 0.77273 0.53703 0.24674 0.0
C1810 C 0.72385 0.49988 0.23816 0.0
C1811 C 0.78833 0.59291 0.2431 0.0
C1812 C 0.81645 0.52607 0.24339 0.0
C1813 C 0.83134 0.51222 0.25661 0.0
C1814 C 0.86999 0.49924 0.25659 0.0
C1815 C 0.89447 0.50082 0.24284 0.0
C1816 C 0.88127 0.51593 0.22902 0.0
C1817 C 0.84142 0.52883 0.22943 0.0
H1818 H 0.82647 0.40055 0.41755 0.0
H1819 H 0.88187 0.36804 0.45957 0.0
H1820 H 0.79703 0.29732 0.46451 0.0
H1821 H 0.68658 0.34431 0.42829 0.0
H1822 H 0.66669 0.31588 0.40979 0.0
H1823 H 0.72531 0.37577 0.4119 0.0
H1824 H 0.77511 0.3368 0.39854 0.0
H1825 H 0.71698 0.27704 0.39648 0.0
H1826 H 0.77112 0.27899 0.406 0.0
H1827 H 0.7136 0.21958 0.46285 0.0
H1828 H 0.6409 0.13886 0.45362 0.0
H1829 H 0.64375 0.21164 0.41091 0.0
C1830 C 0.82135 0.37927 0.4279 0.0
C1831 C 0.86251 0.39116 0.43802 0.0
C1832 C 0.85209 0.36209 0.45161 0.0
C1833 C 0.80339 0.32096 0.45458 0.0
C1834 C 0.7652 0.30824 0.44381 0.0
C1835 C 0.7736 0.33643 0.43068 0.0
C1836 C 0.73009 0.30882 0.41949 0.0
C1837 C 0.70041 0.33794 0.41724 0.0
C1838 C 0.74951 0.29987 0.40424 0.0
C1839 C 0.69808 0.25918 0.42795 0.0
C1840 C 0.71777 0.26071 0.44226 0.0
C1841 C 0.69721 0.21822 0.45181 0.0
C1842 C 0.6562 0.1726 0.44649 0.0
C1843 C 0.63731 0.1697 0.43164 0.0
C1844 C 0.65768 0.21358 0.42236 0.0
H1845 H 0.47085 0.82002 0.58365 0.0
H1846 H 0.44707 0.82154 0.63194 0.0
H1847 H 0.43556 0.73465 0.63419 0.0
H1848 H 0.39162 0.67241 0.57764 0.0
H1849 H 0.43951 0.67603 0.5646 0.0
H1850 H 0.42519 0.72769 0.56559 0.0
H1851 H 0.52111 0.79153 0.57057 0.0
H1852 H 0.53547 0.74041 0.56963 0.0
H1853 H 0.55286 0.78025 0.58628 0.0
H1854 H 0.44664 0.65853 0.63227 0.0
H1855 H 0.48612 0.60508 0.62704 0.0
H1856 H 0.51418 0.66052 0.58057 0.0
C1857 C 0.46031 0.80067 0.59451 0.0
C1858 C 0.45829 0.82649 0.60757 0.0
C1859 C 0.44728 0.80152 0.62179 0.0
C1860 C 0.44055 0.75214 0.62312 0.0
C1861 C 0.44559 0.72856 0.61013 0.0
C1862 C 0.4551 0.75205 0.59604 0.0
C1863 C 0.47076 0.72485 0.58459 0.0
C1864 C 0.42929 0.6987 0.57239 0.0
C1865 C 0.52314 0.76143 0.57738 0.0
C1866 C 0.47337 0.68568 0.59477 0.0
C1867 C 0.4561 0.68649 0.60922 0.0
C1868 C 0.45956 0.65704 0.62092 0.0
C1869 C 0.4829 0.62743 0.61789 0.0
C1870 C 0.50411 0.62891 0.60342 0.0
C1871 C 0.49753 0.65723 0.59166 0.0
H1872 H 0.67897 0.45134 0.76479 0.0
H1873 H 0.74803 0.61563 0.77108 0.0
H1874 H 0.82922 0.62017 0.77803 0.0
H1875 H 0.75041 0.42521 0.79357 0.0
H1876 H 0.75961 0.3813 0.78184 0.0
H1877 H 0.70363 0.38819 0.77935 0.0
H1878 H 0.72553 0.41024 0.7509 0.0
H1879 H 0.78046 0.40177 0.75324 0.0
H1880 H 0.78819 0.46101 0.7457 0.0
H1881 H 0.90225 0.60918 0.78374 0.0
H1882 H 0.97116 0.58775 0.78083 0.0
H1883 H 0.85966 0.43269 0.76848 0.0
C1884 C 0.71121 0.48828 0.76756 0.0
C1885 C 0.70649 0.5328 0.76799 0.0
C1886 C 0.74999 0.58057 0.77136 0.0
C1887 C 0.7963 0.58362 0.77537 0.0
C1888 C 0.799 0.53879 0.77557 0.0
C1889 C 0.75843 0.49235 0.7712 0.0
C1890 C 0.77425 0.45169 0.77024 0.0
C1891 C 0.74524 0.40908 0.78195 0.0
C1892 C 0.76669 0.42993 0.75406 0.0
C1893 C 0.83042 0.4832 0.77432 0.0
C1894 C 0.84309 0.53284 0.77793 0.0
C1895 C 0.89299 0.57041 0.78109 0.0
C1896 C 0.93172 0.5579 0.77952 0.0
C1897 C 0.92012 0.50865 0.7746 0.0
C1898 C 0.86888 0.47014 0.77264 0.0
H1899 H 0.41805 0.82854 0.933 0.0
H1900 H 0.38433 0.87661 0.88991 0.0
H1901 H 0.32157 0.78827 0.88432 0.0
H1902 H 0.38237 0.6928 0.92184 0.0
H1903 H 0.3522 0.66889 0.93998 0.0
H1904 H 0.40714 0.73201 0.93853 0.0
H1905 H 0.35518 0.77009 0.9511 0.0
H1906 H 0.30039 0.70743 0.95248 0.0
H1907 H 0.2952 0.75762 0.94278 0.0
H1908 H 0.25069 0.70006 0.88523 0.0
H1909 H 0.17388 0.62109 0.89362 0.0
H1910 H 0.24413 0.6322 0.93739 0.0
C1911 C 0.39813 0.82084 0.92228 0.0
C1912 C 0.40708 0.86058 0.91197 0.0
C1913 C 0.38022 0.84765 0.89796 0.0
C1914 C 0.34391 0.7971 0.89463 0.0
C1915 C 0.3341 0.75961 0.90543 0.0
C1916 C 0.36037 0.77084 0.91902 0.0
C1917 C 0.33597 0.72608 0.92992 0.0
C1918 C 0.37154 0.70361 0.93273 0.0
C1919 C 0.32077 0.74124 0.94494 0.0
C1920 C 0.28955 0.68969 0.92078 0.0
C1921 C 0.29057 0.70878 0.90642 0.0
C1922 C 0.24993 0.68414 0.89631 0.0
C1923 C 0.20652 0.63955 0.90115 0.0
C1924 C 0.20382 0.62113 0.91606 0.0
C1925 C 0.24608 0.64568 0.92587 0.0
H1926 H 0.55781 0.19594 0.1084 0.0
H1927 H 0.68062 0.21473 0.07851 0.0
H1928 H 0.71309 0.30793 0.07789 0.0
H1929 H 0.52733 0.27307 0.09052 0.0
H1930 H 0.51326 0.3003 0.10679 0.0
H1931 H 0.50769 0.2382 0.10816 0.0
H1932 H 0.57081 0.26798 0.13082 0.0
H1933 H 0.57608 0.33037 0.12972 0.0
H1934 H 0.63281 0.32413 0.12892 0.0
H1935 H 0.71917 0.39389 0.0757 0.0
H1936 H 0.70087 0.46573 0.07345 0.0
H1937 H 0.57638 0.391 0.10545 0.0
C1938 C 0.59307 0.21981 0.10235 0.0
C1939 C 0.61666 0.19813 0.09351 0.0
C1940 C 0.66168 0.2306 0.08527 0.0
C1941 C 0.68065 0.2836 0.08496 0.0
C1942 C 0.65469 0.30346 0.09317 0.0
C1943 C 0.61242 0.27256 0.10198 0.0
C1944 C 0.58702 0.30158 0.10806 0.0
C1945 C 0.53055 0.27682 0.10307 0.0
C1946 C 0.59201 0.30631 0.12541 0.0
C1947 C 0.61933 0.35267 0.10046 0.0
C1948 C 0.65892 0.35355 0.09216 0.0
C1949 C 0.68954 0.39437 0.08258 0.0
C1950 C 0.67889 0.4348 0.0813 0.0
C1951 C 0.63801 0.43363 0.08954 0.0
C1952 C 0.60874 0.39287 0.09944 0.0
H1953 H 0.46683 0.6206 0.24754 0.0
H1954 H 0.42365 0.46401 0.23642 0.0
H1955 H 0.33399 0.44364 0.23329 0.0
H1956 H 0.36741 0.59495 0.27002 0.0
H1957 H 0.35607 0.64622 0.26433 0.0
H1958 H 0.41889 0.65328 0.26233 0.0
H1959 H 0.4198 0.67218 0.23364 0.0
H1960 H 0.35767 0.66716 0.23561 0.0
H1961 H 0.36743 0.62849 0.22183 0.0
H1962 H 0.25008 0.435 0.23767 0.0
H1963 H 0.17374 0.44239 0.24304 0.0
H1964 H 0.26932 0.60618 0.24951 0.0
C1965 C 0.43881 0.5829 0.24365 0.0
C1966 C 0.45152 0.54378 0.2421 0.0
C1967 C 0.4141 0.4943 0.23749 0.0
C1968 C 0.36326 0.48241 0.23577 0.0
C1969 C 0.35106 0.52077 0.23847 0.0
C1970 C 0.38774 0.57048 0.2418 0.0
C1971 C 0.36334 0.60306 0.24539 0.0
C1972 C 0.37727 0.62568 0.26147 0.0
C1973 C 0.37792 0.64521 0.2334 0.0
C1974 C 0.30734 0.56313 0.24429 0.0
C1975 C 0.30141 0.51603 0.24034 0.0
C1976 C 0.25391 0.47202 0.24011 0.0
C1977 C 0.21086 0.47664 0.24323 0.0
C1978 C 0.2155 0.5251 0.24622 0.0
C1979 C 0.26454 0.56874 0.24711 0.0
loop_
_geom_bond_atom_site_label_1
_geom_bond_atom_site_label_2
_geom_bond_distance
_geom_bond_site_symmetry_2
_ccdc_geom_bond_type
Eu0 N29 2.600 1_565 S
Eu0 N35 2.562 . S
Eu0 O44 2.462 . S
Eu0 O45 2.373 1_565 S
Eu0 O47 2.432 . S
Eu0 O48 2.291 . S
Eu0 O52 2.335 . S
Eu0 O55 2.372 1_565 S
Eu0 C64 2.787 . S
C1 N2 1.365 . S
C1 C4 1.405 . S
C1 C8 1.448 . S
N2 C1 1.365 . S
N2 C5 1.319 . S
N2 Eu11 2.600 1_565 S
C3 C5 1.397 . S
C3 C6 1.367 . S
C3 H23 0.931 . S
C4 C1 1.405 . S
C4 C6 1.403 . S
C4 C10 1.439 . S
C5 N2 1.319 . S
C5 C3 1.397 . S
C5 H16 0.930 . S
C6 C3 1.367 . S
C6 C4 1.403 . S
C6 H27 0.929 . S
C7 C8 1.430 . S
C7 C9 1.387 . S
C7 C13 1.404 1_565 S
C8 C1 1.448 . S
C8 C7 1.430 . S
C8 N12 1.351 1_565 S
C9 C7 1.387 . S
C9 C10 1.374 . S
C9 H24 0.931 . S
C10 C4 1.439 . S
C10 C9 1.374 . S
C10 H25 0.931 . S
Eu11 N2 2.600 1_545 S
Eu11 N12 2.562 . S
Eu11 O46 2.335 . S
Eu11 O49 2.372 1_545 S
Eu11 O50 2.462 . S
Eu11 O51 2.373 1_545 S
Eu11 O53 2.432 . S
Eu11 O54 2.291 . S
Eu11 C75 2.787 . S
N12 C8 1.351 1_545 S
N12 Eu11 2.562 . S
N12 C14 1.325 . S
C13 C7 1.404 1_545 S
C13 C15 1.366 . S
C13 H21 0.930 . S
C14 N12 1.325 . S
C14 C15 1.416 . S
C14 H20 0.929 . S
C15 C13 1.366 . S
C15 C14 1.416 . S
C15 H17 0.930 . S
H16 C5 0.930 . S
H17 C15 0.930 . S
H18 C33 0.930 . S
H19 C40 0.930 . S
H20 C14 0.929 . S
H21 C13 0.930 . S
H22 C36 0.929 . S
H23 C3 0.931 . S
H24 C9 0.931 . S
H25 C10 0.931 . S
H26 C31 0.931 . S
H27 C6 0.929 . S
H28 C39 0.930 . S
N29 Eu0 2.600 1_545 S
N29 C30 1.365 . S
N29 C33 1.319 . S
C30 N29 1.365 . S
C30 C32 1.405 . S
C30 C38 1.448 . S
C31 H26 0.931 . S
C31 C33 1.397 . S
C31 C34 1.367 . S
C32 C30 1.405 . S
C32 C34 1.403 . S
C32 C65 1.439 . S
C33 H18 0.930 . S
C33 N29 1.319 . S
C33 C31 1.397 . S
C34 C31 1.367 . S
C34 C32 1.403 . S
C34 H41 0.929 . S
N35 Eu0 2.562 . S
N35 C36 1.325 . S
N35 C38 1.351 1_565 S
C36 H22 0.929 . S
C36 N35 1.325 . S
C36 C40 1.416 . S
C37 C38 1.430 . S
C37 C39 1.404 1_545 S
C37 C66 1.387 . S
C38 C30 1.448 . S
C38 N35 1.351 1_545 S
C38 C37 1.430 . S
C39 H28 0.930 . S
C39 C37 1.404 1_565 S
C39 C40 1.366 . S
C40 H19 0.930 . S
C40 C36 1.416 . S
C40 C39 1.366 . S
H41 C34 0.929 . S
H42 C65 0.931 . S
H43 C66 0.931 . S
O44 Eu0 2.462 . S
O44 C64 1.252 . S
O45 Eu0 2.373 1_545 S
O45 C56 1.249 . S
O46 Eu11 2.335 . S
O46 C56 1.264 . S
O47 Eu0 2.432 . S
O47 C64 1.268 . S
O48 Eu0 2.291 . S
O48 C63 1.255 . S
O49 Eu11 2.372 1_565 S
O49 C63 1.257 . S
O50 Eu11 2.462 . S
O50 C75 1.252 . S
O51 Eu11 2.373 1_565 S
O51 C67 1.249 . S
O52 Eu0 2.335 . S
O52 C67 1.264 . S
O53 Eu11 2.432 . S
O53 C75 1.268 . S
O54 Eu11 2.291 . S
O54 C74 1.255 . S
O55 Eu0 2.372 1_545 S
O55 C74 1.257 . S
C56 O45 1.249 . S
C56 O46 1.264 . S
C57 C60 1.382 . S
C57 C62 1.390 . S
C57 C64 1.506 . S
C58 C59 1.398 . S
C58 C62 1.392 . S
C59 C58 1.398 . S
C59 C61 1.372 . S
C59 H76 0.931 . S
C60 C57 1.382 . S
C60 C61 1.390 . S
C60 H77 0.931 . S
C61 C59 1.372 . S
C61 C60 1.390 . S
C61 H78 0.929 . S
C62 C57 1.390 . S
C62 C58 1.392 . S
C62 H79 0.930 . S
C63 O48 1.255 . S
C63 O49 1.257 . S
C64 Eu0 2.787 . S
C64 O44 1.252 . S
C64 O47 1.268 . S
C64 C57 1.506 . S
C65 C32 1.439 . S
C65 H42 0.931 . S
C65 C66 1.374 . S
C66 C37 1.387 . S
C66 H43 0.931 . S
C66 C65 1.374 . S
C67 O51 1.249 . S
C67 O52 1.264 . S
C68 C71 1.382 . S
C68 C72 1.390 . S
C68 C75 1.506 . S
C69 C70 1.398 . S
C69 C72 1.392 . S
C70 C69 1.398 . S
C70 C73 1.372 . S
C70 H80 0.931 . S
C71 C68 1.382 . S
C71 C73 1.390 . S
C71 H81 0.931 . S
C72 C68 1.390 . S
C72 C69 1.392 . S
C72 H82 0.930 . S
C73 C70 1.372 . S
C73 C71 1.390 . S
C73 H83 0.929 . S
C74 O54 1.255 . S
C74 O55 1.257 . S
C75 Eu11 2.787 . S
C75 O50 1.252 . S
C75 O53 1.268 . S
C75 C68 1.506 . S
H76 C59 0.931 . S
H77 C60 0.931 . S
H78 C61 0.929 . S
H79 C62 0.930 . S
H80 C70 0.931 . S
H81 C71 0.931 . S
H82 C72 0.930 . S
H83 C73 0.929 . S
Eu84 N113 2.600 . S
Eu84 N119 2.562 . S
Eu84 O128 2.462 . S
Eu84 O129 2.373 . S
Eu84 O131 2.432 . S
Eu84 O132 2.291 . S
Eu84 O136 2.335 . S
Eu84 O139 2.372 . S
Eu84 C148 2.787 . S
C85 N86 1.365 . S
C85 C88 1.405 . S
C85 C92 1.448 . S
N86 C85 1.365 . S
N86 C89 1.319 . S
N86 Eu95 2.600 . S
C87 C89 1.397 . S
C87 C90 1.367 . S
C87 H107 0.931 . S
C88 C85 1.405 . S
C88 C90 1.403 . S
C88 C94 1.439 . S
C89 N86 1.319 . S
C89 C87 1.397 . S
C89 H100 0.930 . S
C90 C87 1.367 . S
C90 C88 1.403 . S
C90 H111 0.929 . S
C91 C92 1.430 . S
C91 C93 1.387 . S
C91 C97 1.404 . S
C92 C85 1.448 . S
C92 C91 1.430 . S
C92 N96 1.351 . S
C93 C91 1.387 . S
C93 C94 1.374 . S
C93 H108 0.931 . S
C94 C88 1.439 . S
C94 C93 1.374 . S
C94 H109 0.931 . S
Eu95 N86 2.600 . S
Eu95 N96 2.562 . S
Eu95 O130 2.335 . S
Eu95 O133 2.372 . S
Eu95 O134 2.462 . S
Eu95 O135 2.373 . S
Eu95 O137 2.432 . S
Eu95 O138 2.291 . S
Eu95 C159 2.787 . S
N96 C92 1.351 . S
N96 Eu95 2.562 . S
N96 C98 1.325 . S
C97 C91 1.404 . S
C97 C99 1.366 . S
C97 H105 0.930 . S
C98 N96 1.325 . S
C98 C99 1.416 . S
C98 H104 0.929 . S
C99 C97 1.366 . S
C99 C98 1.416 . S
C99 H101 0.930 . S
H100 C89 0.930 . S
H101 C99 0.930 . S
H102 C117 0.930 . S
H103 C124 0.930 . S
H104 C98 0.929 . S
H105 C97 0.930 . S
H106 C120 0.929 . S
H107 C87 0.931 . S
H108 C93 0.931 . S
H109 C94 0.931 . S
H110 C115 0.931 . S
H111 C90 0.929 . S
H112 C123 0.930 . S
N113 Eu84 2.600 . S
N113 C114 1.365 . S
N113 C117 1.319 . S
C114 N113 1.365 . S
C114 C116 1.405 . S
C114 C122 1.448 . S
C115 H110 0.931 . S
C115 C117 1.397 . S
C115 C118 1.367 . S
C116 C114 1.405 . S
C116 C118 1.403 . S
C116 C149 1.439 . S
C117 H102 0.930 . S
C117 N113 1.319 . S
C117 C115 1.397 . S
C118 C115 1.367 . S
C118 C116 1.403 . S
C118 H125 0.929 . S
N119 Eu84 2.562 . S
N119 C120 1.325 . S
N119 C122 1.351 . S
C120 H106 0.929 . S
C120 N119 1.325 . S
C120 C124 1.416 . S
C121 C122 1.430 . S
C121 C123 1.404 . S
C121 C150 1.387 . S
C122 C114 1.448 . S
C122 N119 1.351 . S
C122 C121 1.430 . S
C123 H112 0.930 . S
C123 C121 1.404 . S
C123 C124 1.366 . S
C124 H103 0.930 . S
C124 C120 1.416 . S
C124 C123 1.366 . S
H125 C118 0.929 . S
H126 C149 0.931 . S
H127 C150 0.931 . S
O128 Eu84 2.462 . S
O128 C148 1.252 . S
O129 Eu84 2.373 . S
O129 C140 1.249 . S
O130 Eu95 2.335 . S
O130 C140 1.264 . S
O131 Eu84 2.432 . S
O131 C148 1.268 . S
O132 Eu84 2.291 . S
O132 C147 1.255 . S
O133 Eu95 2.372 . S
O133 C147 1.257 . S
O134 Eu95 2.462 . S
O134 C159 1.252 . S
O135 Eu95 2.373 . S
O135 C151 1.249 . S
O136 Eu84 2.335 . S
O136 C151 1.264 . S
O137 Eu95 2.432 . S
O137 C159 1.268 . S
O138 Eu95 2.291 . S
O138 C158 1.255 . S
O139 Eu84 2.372 . S
O139 C158 1.257 . S
C140 O129 1.249 . S
C140 O130 1.264 . S
C141 C144 1.382 . S
C141 C146 1.390 . S
C141 C148 1.506 . S
C142 C143 1.398 . S
C142 C146 1.392 . S
C143 C142 1.398 . S
C143 C145 1.372 . S
C143 H160 0.931 . S
C144 C141 1.382 . S
C144 C145 1.390 . S
C144 H161 0.931 . S
C145 C143 1.372 . S
C145 C144 1.390 . S
C145 H162 0.929 . S
C146 C141 1.390 . S
C146 C142 1.392 . S
C146 H163 0.930 . S
C147 O132 1.255 . S
C147 O133 1.257 . S
C148 Eu84 2.787 . S
C148 O128 1.252 . S
C148 O131 1.268 . S
C148 C141 1.506 . S
C149 C116 1.439 . S
C149 H126 0.931 . S
C149 C150 1.374 . S
C150 C121 1.387 . S
C150 H127 0.931 . S
C150 C149 1.374 . S
C151 O135 1.249 . S
C151 O136 1.264 . S
C152 C155 1.382 . S
C152 C156 1.390 . S
C152 C159 1.506 . S
C153 C154 1.398 . S
C153 C156 1.392 . S
C154 C153 1.398 . S
C154 C157 1.372 . S
C154 H164 0.931 . S
C155 C152 1.382 . S
C155 C157 1.390 . S
C155 H165 0.931 . S
C156 C152 1.390 . S
C156 C153 1.392 . S
C156 H166 0.930 . S
C157 C154 1.372 . S
C157 C155 1.390 . S
C157 H167 0.929 . S
C158 O138 1.255 . S
C158 O139 1.257 . S
C159 Eu95 2.787 . S
C159 O134 1.252 . S
C159 O137 1.268 . S
C159 C152 1.506 . S
H160 C143 0.931 . S
H161 C144 0.931 . S
H162 C145 0.929 . S
H163 C146 0.930 . S
H164 C154 0.931 . S
H165 C155 0.931 . S
H166 C156 0.930 . S
H167 C157 0.929 . S
Eu168 N197 2.600 1_455 S
Eu168 N203 2.562 . S
Eu168 O212 2.462 . S
Eu168 O213 2.373 1_455 S
Eu168 O215 2.432 . S
Eu168 O216 2.291 . S
Eu168 O220 2.335 . S
Eu168 O223 2.372 1_455 S
Eu168 C232 2.787 . S
C169 N170 1.365 . S
C169 C172 1.405 . S
C169 C176 1.448 . S
N170 C169 1.365 . S
N170 C173 1.319 . S
N170 Eu179 2.600 1_455 S
C171 C173 1.397 . S
C171 C174 1.367 . S
C171 H191 0.931 . S
C172 C169 1.405 . S
C172 C174 1.403 . S
C172 C178 1.439 . S
C173 N170 1.319 . S
C173 C171 1.397 . S
C173 H184 0.930 . S
C174 C171 1.367 . S
C174 C172 1.403 . S
C174 H195 0.929 . S
C175 C176 1.430 . S
C175 C177 1.387 . S
C175 C181 1.404 1_455 S
C176 C169 1.448 . S
C176 C175 1.430 . S
C176 N180 1.351 1_455 S
C177 C175 1.387 . S
C177 C178 1.374 . S
C177 H192 0.931 . S
C178 C172 1.439 . S
C178 C177 1.374 . S
C178 H193 0.931 . S
Eu179 N170 2.600 1_655 S
Eu179 N180 2.562 . S
Eu179 O214 2.335 . S
Eu179 O217 2.372 1_655 S
Eu179 O218 2.462 . S
Eu179 O219 2.373 1_655 S
Eu179 O221 2.432 . S
Eu179 O222 2.291 . S
Eu179 C243 2.787 . S
N180 C176 1.351 1_655 S
N180 Eu179 2.562 . S
N180 C182 1.325 . S
C181 C175 1.404 1_655 S
C181 C183 1.366 . S
C181 H189 0.930 . S
C182 N180 1.325 . S
C182 C183 1.416 . S
C182 H188 0.929 . S
C183 C181 1.366 . S
C183 C182 1.416 . S
C183 H185 0.930 . S
H184 C173 0.930 . S
H185 C183 0.930 . S
H186 C201 0.930 . S
H187 C208 0.930 . S
H188 C182 0.929 . S
H189 C181 0.930 . S
H190 C204 0.929 . S
H191 C171 0.931 . S
H192 C177 0.931 . S
H193 C178 0.931 . S
H194 C199 0.931 . S
H195 C174 0.929 . S
H196 C207 0.930 . S
N197 Eu168 2.600 1_655 S
N197 C198 1.365 . S
N197 C201 1.319 . S
C198 N197 1.365 . S
C198 C200 1.405 . S
C198 C206 1.448 . S
C199 H194 0.931 . S
C199 C201 1.397 . S
C199 C202 1.367 . S
C200 C198 1.405 . S
C200 C202 1.403 . S
C200 C233 1.439 . S
C201 H186 0.930 . S
C201 N197 1.319 . S
C201 C199 1.397 . S
C202 C199 1.367 . S
C202 C200 1.403 . S
C202 H209 0.929 . S
N203 Eu168 2.562 . S
N203 C204 1.325 . S
N203 C206 1.351 1_455 S
C204 H190 0.929 . S
C204 N203 1.325 . S
C204 C208 1.416 . S
C205 C206 1.430 . S
C205 C207 1.404 1_655 S
C205 C234 1.387 . S
C206 C198 1.448 . S
C206 N203 1.351 1_655 S
C206 C205 1.430 . S
C207 H196 0.930 . S
C207 C205 1.404 1_455 S
C207 C208 1.366 . S
C208 H187 0.930 . S
C208 C204 1.416 . S
C208 C207 1.366 . S
H209 C202 0.929 . S
H210 C233 0.931 . S
H211 C234 0.931 . S
O212 Eu168 2.462 . S
O212 C232 1.252 . S
O213 Eu168 2.373 1_655 S
O213 C224 1.249 . S
O214 Eu179 2.335 . S
O214 C224 1.264 . S
O215 Eu168 2.432 . S
O215 C232 1.268 . S
O216 Eu168 2.291 . S
O216 C231 1.255 . S
O217 Eu179 2.372 1_455 S
O217 C231 1.257 . S
O218 Eu179 2.462 . S
O218 C243 1.252 . S
O219 Eu179 2.373 1_455 S
O219 C235 1.249 . S
O220 Eu168 2.335 . S
O220 C235 1.264 . S
O221 Eu179 2.432 . S
O221 C243 1.268 . S
O222 Eu179 2.291 . S
O222 C242 1.255 . S
O223 Eu168 2.372 1_655 S
O223 C242 1.257 . S
C224 O213 1.249 . S
C224 O214 1.264 . S
C225 C228 1.382 . S
C225 C230 1.390 . S
C225 C232 1.506 . S
C226 C227 1.398 . S
C226 C230 1.392 . S
C227 C226 1.398 . S
C227 C229 1.372 . S
C227 H244 0.931 . S
C228 C225 1.382 . S
C228 C229 1.390 . S
C228 H245 0.931 . S
C229 C227 1.372 . S
C229 C228 1.390 . S
C229 H246 0.929 . S
C230 C225 1.390 . S
C230 C226 1.392 . S
C230 H247 0.930 . S
C231 O216 1.255 . S
C231 O217 1.257 . S
C232 Eu168 2.787 . S
C232 O212 1.252 . S
C232 O215 1.268 . S
C232 C225 1.506 . S
C233 C200 1.439 . S
C233 H210 0.931 . S
C233 C234 1.374 . S
C234 C205 1.387 . S
C234 H211 0.931 . S
C234 C233 1.374 . S
C235 O219 1.249 . S
C235 O220 1.264 . S
C236 C239 1.382 . S
C236 C240 1.390 . S
C236 C243 1.506 . S
C237 C238 1.398 . S
C237 C240 1.392 . S
C238 C237 1.398 . S
C238 C241 1.372 . S
C238 H248 0.931 . S
C239 C236 1.382 . S
C239 C241 1.390 . S
C239 H249 0.931 . S
C240 C236 1.390 . S
C240 C237 1.392 . S
C240 H250 0.930 . S
C241 C238 1.372 . S
C241 C239 1.390 . S
C241 H251 0.929 . S
C242 O222 1.255 . S
C242 O223 1.257 . S
C243 Eu179 2.787 . S
C243 O218 1.252 . S
C243 O221 1.268 . S
C243 C236 1.506 . S
H244 C227 0.931 . S
H245 C228 0.931 . S
H246 C229 0.929 . S
H247 C230 0.930 . S
H248 C238 0.931 . S
H249 C239 0.931 . S
H250 C240 0.930 . S
H251 C241 0.929 . S
Eu252 N281 2.600 1_545 S
Eu252 N287 2.562 . S
Eu252 O296 2.462 . S
Eu252 O297 2.373 1_545 S
Eu252 O299 2.432 . S
Eu252 O300 2.291 . S
Eu252 O304 2.335 . S
Eu252 O307 2.372 1_545 S
Eu252 C316 2.787 . S
C253 N254 1.365 . S
C253 C256 1.405 . S
C253 C260 1.448 . S
N254 C253 1.365 . S
N254 C257 1.319 . S
N254 Eu263 2.600 1_545 S
C255 C257 1.397 . S
C255 C258 1.367 . S
C255 H275 0.931 . S
C256 C253 1.405 . S
C256 C258 1.403 . S
C256 C262 1.439 . S
C257 N254 1.319 . S
C257 C255 1.397 . S
C257 H268 0.930 . S
C258 C255 1.367 . S
C258 C256 1.403 . S
C258 H279 0.929 . S
C259 C260 1.430 . S
C259 C261 1.387 . S
C259 C265 1.404 1_545 S
C260 C253 1.448 . S
C260 C259 1.430 . S
C260 N264 1.351 1_545 S
C261 C259 1.387 . S
C261 C262 1.374 . S
C261 H276 0.931 . S
C262 C256 1.439 . S
C262 C261 1.374 . S
C262 H277 0.931 . S
Eu263 N254 2.600 1_565 S
Eu263 N264 2.562 . S
Eu263 O298 2.335 . S
Eu263 O301 2.372 1_565 S
Eu263 O302 2.462 . S
Eu263 O303 2.373 1_565 S
Eu263 O305 2.432 . S
Eu263 O306 2.291 . S
Eu263 C327 2.787 . S
N264 C260 1.351 1_565 S
N264 Eu263 2.562 . S
N264 C266 1.325 . S
C265 C259 1.404 1_565 S
C265 C267 1.366 . S
C265 H273 0.930 . S
C266 N264 1.325 . S
C266 C267 1.416 . S
C266 H272 0.929 . S
C267 C265 1.366 . S
C267 C266 1.416 . S
C267 H269 0.930 . S
H268 C257 0.930 . S
H269 C267 0.930 . S
H270 C285 0.930 . S
H271 C292 0.930 . S
H272 C266 0.929 . S
H273 C265 0.930 . S
H274 C288 0.929 . S
H275 C255 0.931 . S
H276 C261 0.931 . S
H277 C262 0.931 . S
H278 C283 0.931 . S
H279 C258 0.929 . S
H280 C291 0.930 . S
N281 Eu252 2.600 1_565 S
N281 C282 1.365 . S
N281 C285 1.319 . S
C282 N281 1.365 . S
C282 C284 1.405 . S
C282 C290 1.448 . S
C283 H278 0.931 . S
C283 C285 1.397 . S
C283 C286 1.367 . S
C284 C282 1.405 . S
C284 C286 1.403 . S
C284 C317 1.439 . S
C285 H270 0.930 . S
C285 N281 1.319 . S
C285 C283 1.397 . S
C286 C283 1.367 . S
C286 C284 1.403 . S
C286 H293 0.929 . S
N287 Eu252 2.562 . S
N287 C288 1.325 . S
N287 C290 1.351 1_545 S
C288 H274 0.929 . S
C288 N287 1.325 . S
C288 C292 1.416 . S
C289 C290 1.430 . S
C289 C291 1.404 1_565 S
C289 C318 1.387 . S
C290 C282 1.448 . S
C290 N287 1.351 1_565 S
C290 C289 1.430 . S
C291 H280 0.930 . S
C291 C289 1.404 1_545 S
C291 C292 1.366 . S
C292 H271 0.930 . S
C292 C288 1.416 . S
C292 C291 1.366 . S
H293 C286 0.929 . S
H294 C317 0.931 . S
H295 C318 0.931 . S
O296 Eu252 2.462 . S
O296 C316 1.252 . S
O297 Eu252 2.373 1_565 S
O297 C308 1.249 . S
O298 Eu263 2.335 . S
O298 C308 1.264 . S
O299 Eu252 2.432 . S
O299 C316 1.268 . S
O300 Eu252 2.291 . S
O300 C315 1.255 . S
O301 Eu263 2.372 1_545 S
O301 C315 1.257 . S
O302 Eu263 2.462 . S
O302 C327 1.252 . S
O303 Eu263 2.373 1_545 S
O303 C319 1.249 . S
O304 Eu252 2.335 . S
O304 C319 1.264 . S
O305 Eu263 2.432 . S
O305 C327 1.268 . S
O306 Eu263 2.291 . S
O306 C326 1.255 . S
O307 Eu252 2.372 1_565 S
O307 C326 1.257 . S
C308 O297 1.249 . S
C308 O298 1.264 . S
C309 C312 1.382 . S
C309 C314 1.390 . S
C309 C316 1.506 . S
C310 C311 1.398 . S
C310 C314 1.392 . S
C311 C310 1.398 . S
C311 C313 1.372 . S
C311 H328 0.931 . S
C312 C309 1.382 . S
C312 C313 1.390 . S
C312 H329 0.931 . S
C313 C311 1.372 . S
C313 C312 1.390 . S
C313 H330 0.929 . S
C314 C309 1.390 . S
C314 C310 1.392 . S
C314 H331 0.930 . S
C315 O300 1.255 . S
C315 O301 1.257 . S
C316 Eu252 2.787 . S
C316 O296 1.252 . S
C316 O299 1.268 . S
C316 C309 1.506 . S
C317 C284 1.439 . S
C317 H294 0.931 . S
C317 C318 1.374 . S
C318 C289 1.387 . S
C318 H295 0.931 . S
C318 C317 1.374 . S
C319 O303 1.249 . S
C319 O304 1.264 . S
C320 C323 1.382 . S
C320 C324 1.390 . S
C320 C327 1.506 . S
C321 C322 1.398 . S
C321 C324 1.392 . S
C322 C321 1.398 . S
C322 C325 1.372 . S
C322 H332 0.931 . S
C323 C320 1.382 . S
C323 C325 1.390 . S
C323 H333 0.931 . S
C324 C320 1.390 . S
C324 C321 1.392 . S
C324 H334 0.930 . S
C325 C322 1.372 . S
C325 C323 1.390 . S
C325 H335 0.929 . S
C326 O306 1.255 . S
C326 O307 1.257 . S
C327 Eu263 2.787 . S
C327 O302 1.252 . S
C327 O305 1.268 . S
C327 C320 1.506 . S
H328 C311 0.931 . S
H329 C312 0.931 . S
H330 C313 0.929 . S
H331 C314 0.930 . S
H332 C322 0.931 . S
H333 C323 0.931 . S
H334 C324 0.930 . S
H335 C325 0.929 . S
Eu336 N365 2.600 . S
Eu336 N371 2.562 . S
Eu336 O380 2.462 . S
Eu336 O381 2.373 . S
Eu336 O383 2.432 1_554 S
Eu336 O384 2.291 . S
Eu336 O388 2.335 . S
Eu336 O391 2.372 . S
Eu336 C400 2.787 1_554 S
C337 N338 1.365 . S
C337 C340 1.405 . S
C337 C344 1.448 . S
N338 C337 1.365 . S
N338 C341 1.319 . S
N338 Eu347 2.600 . S
C339 C341 1.397 . S
C339 C342 1.367 . S
C339 H359 0.931 . S
C340 C337 1.405 . S
C340 C342 1.403 . S
C340 C346 1.439 . S
C341 N338 1.319 . S
C341 C339 1.397 . S
C341 H352 0.930 . S
C342 C339 1.367 . S
C342 C340 1.403 . S
C342 H363 0.929 . S
C343 C344 1.430 . S
C343 C345 1.387 . S
C343 C349 1.404 . S
C344 C337 1.448 . S
C344 C343 1.430 . S
C344 N348 1.351 . S
C345 C343 1.387 . S
C345 C346 1.374 . S
C345 H360 0.931 . S
C346 C340 1.439 . S
C346 C345 1.374 . S
C346 H361 0.931 . S
Eu347 N338 2.600 . S
Eu347 N348 2.562 . S
Eu347 O382 2.335 . S
Eu347 O385 2.372 . S
Eu347 O386 2.462 . S
Eu347 O387 2.373 . S
Eu347 O389 2.432 . S
Eu347 O390 2.291 . S
Eu347 C411 2.787 . S
N348 C344 1.351 . S
N348 Eu347 2.562 . S
N348 C350 1.325 . S
C349 C343 1.404 . S
C349 C351 1.366 . S
C349 H357 0.930 . S
C350 N348 1.325 . S
C350 C351 1.416 . S
C350 H356 0.929 . S
C351 C349 1.366 . S
C351 C350 1.416 . S
C351 H353 0.930 . S
H352 C341 0.930 . S
H353 C351 0.930 . S
H354 C369 0.930 . S
H355 C376 0.930 . S
H356 C350 0.929 . S
H357 C349 0.930 . S
H358 C372 0.929 . S
H359 C339 0.931 . S
H360 C345 0.931 . S
H361 C346 0.931 . S
H362 C367 0.931 . S
H363 C342 0.929 . S
H364 C375 0.930 . S
N365 Eu336 2.600 . S
N365 C366 1.365 . S
N365 C369 1.319 1_554 S
C366 N365 1.365 . S
C366 C368 1.405 . S
C366 C374 1.448 . S
C367 H362 0.931 . S
C367 C369 1.397 . S
C367 C370 1.340 1_556 S
C368 C366 1.405 . S
C368 C370 1.452 . S
C368 C401 1.439 . S
C369 H354 0.930 . S
C369 N365 1.319 1_556 S
C369 C367 1.397 . S
C370 C367 1.340 1_554 S
C370 C368 1.452 . S
C370 H377 0.913 1_554 S
N371 Eu336 2.562 . S
N371 C372 1.325 . S
N371 C374 1.351 . S
C372 H358 0.929 . S
C372 N371 1.325 . S
C372 C376 1.416 . S
C373 C374 1.430 . S
C373 C375 1.404 . S
C373 C402 1.387 . S
C374 C366 1.448 . S
C374 N371 1.351 . S
C374 C373 1.430 . S
C375 H364 0.930 . S
C375 C373 1.404 . S
C375 C376 1.366 . S
C376 H355 0.930 . S
C376 C372 1.416 . S
C376 C375 1.366 . S
H377 C370 0.913 1_556 S
H378 C401 0.931 . S
H379 C402 0.931 . S
O380 Eu336 2.462 . S
O380 C400 1.252 1_554 S
O381 Eu336 2.373 . S
O381 C392 1.249 . S
O382 Eu347 2.335 . S
O382 C392 1.264 . S
O383 Eu336 2.432 1_556 S
O383 C400 1.268 . S
O384 Eu336 2.291 . S
O384 C399 1.255 . S
O385 Eu347 2.372 . S
O385 C399 1.257 . S
O386 Eu347 2.462 . S
O386 C411 1.252 . S
O387 Eu347 2.373 . S
O387 C403 1.249 . S
O388 Eu336 2.335 . S
O388 C403 1.264 . S
O389 Eu347 2.432 . S
O389 C411 1.268 . S
O390 Eu347 2.291 . S
O390 C410 1.255 . S
O391 Eu336 2.372 . S
O391 C410 1.257 . S
C392 O381 1.249 . S
C392 O382 1.264 . S
C393 C396 1.382 . S
C393 C398 1.390 . S
C393 C400 1.506 . S
C394 C395 1.398 . S
C394 C398 1.392 . S
C395 C394 1.398 . S
C395 C397 1.372 . S
C395 H412 0.931 . S
C396 C393 1.382 . S
C396 C397 1.390 . S
C396 H413 0.931 . S
C397 C395 1.372 . S
C397 C396 1.390 . S
C397 H414 0.929 . S
C398 C393 1.390 . S
C398 C394 1.392 . S
C398 H415 0.947 . S
C399 O384 1.255 . S
C399 O385 1.257 . S
C400 Eu336 2.787 1_556 S
C400 O380 1.252 1_556 S
C400 O383 1.268 . S
C400 C393 1.506 . S
C401 C368 1.439 . S
C401 H378 0.931 . S
C401 C402 1.374 . S
C402 C373 1.387 . S
C402 H379 0.931 . S
C402 C401 1.374 . S
C403 O387 1.249 . S
C403 O388 1.264 . S
C404 C407 1.382 . S
C404 C408 1.390 . S
C404 C411 1.506 . S
C405 C406 1.398 . S
C405 C408 1.392 . S
C406 C405 1.398 . S
C406 C409 1.372 . S
C406 H416 0.931 . S
C407 C404 1.382 . S
C407 C409 1.390 . S
C407 H417 0.931 . S
C408 C404 1.390 . S
C408 C405 1.392 . S
C408 H418 0.930 . S
C409 C406 1.372 . S
C409 C407 1.390 . S
C409 H419 0.929 . S
C410 O390 1.255 . S
C410 O391 1.257 . S
C411 Eu347 2.787 . S
C411 O386 1.252 . S
C411 O389 1.268 . S
C411 C404 1.506 . S
H412 C395 0.931 . S
H413 C396 0.931 . S
H414 C397 0.929 . S
H415 C398 0.947 . S
H416 C406 0.931 . S
H417 C407 0.931 . S
H418 C408 0.930 . S
H419 C409 0.929 . S
Eu420 N449 2.600 1_655 S
Eu420 N455 2.562 . S
Eu420 O464 2.462 . S
Eu420 O465 2.373 1_655 S
Eu420 O467 2.432 . S
Eu420 O468 2.291 . S
Eu420 O472 2.335 . S
Eu420 O475 2.372 1_655 S
Eu420 C484 2.787 . S
C421 N422 1.365 . S
C421 C424 1.405 . S
C421 C428 1.448 . S
N422 C421 1.365 . S
N422 C425 1.319 . S
N422 Eu431 2.600 1_655 S
C423 C425 1.397 . S
C423 C426 1.367 . S
C423 H443 0.931 . S
C424 C421 1.405 . S
C424 C426 1.403 . S
C424 C430 1.439 . S
C425 N422 1.319 . S
C425 C423 1.397 . S
C425 H436 0.930 . S
C426 C423 1.367 . S
C426 C424 1.403 . S
C426 H447 0.929 . S
C427 C428 1.430 . S
C427 C429 1.387 . S
C427 C433 1.404 1_655 S
C428 C421 1.448 . S
C428 C427 1.430 . S
C428 N432 1.351 1_655 S
C429 C427 1.387 . S
C429 C430 1.374 . S
C429 H444 0.931 . S
C430 C424 1.439 . S
C430 C429 1.374 . S
C430 H445 0.931 . S
Eu431 N422 2.600 1_455 S
Eu431 N432 2.562 . S
Eu431 O466 2.335 . S
Eu431 O469 2.372 1_455 S
Eu431 O470 2.462 . S
Eu431 O471 2.373 1_455 S
Eu431 O473 2.432 . S
Eu431 O474 2.291 . S
Eu431 C495 2.787 . S
N432 C428 1.351 1_455 S
N432 Eu431 2.562 . S
N432 C434 1.325 . S
C433 C427 1.404 1_455 S
C433 C435 1.366 . S
C433 H441 0.930 . S
C434 N432 1.325 . S
C434 C435 1.416 . S
C434 H440 0.929 . S
C435 C433 1.366 . S
C435 C434 1.416 . S
C435 H437 0.930 . S
H436 C425 0.930 . S
H437 C435 0.930 . S
H438 C453 0.930 . S
H439 C460 0.930 . S
H440 C434 0.929 . S
H441 C433 0.930 . S
H442 C456 0.929 . S
H443 C423 0.931 . S
H444 C429 0.931 . S
H445 C430 0.931 . S
H446 C451 0.931 . S
H447 C426 0.929 . S
H448 C459 0.930 . S
N449 Eu420 2.600 1_455 S
N449 C450 1.365 . S
N449 C453 1.319 . S
C450 N449 1.365 . S
C450 C452 1.405 . S
C450 C458 1.448 . S
C451 H446 0.931 . S
C451 C453 1.397 . S
C451 C454 1.367 . S
C452 C450 1.405 . S
C452 C454 1.403 . S
C452 C485 1.439 . S
C453 H438 0.930 . S
C453 N449 1.319 . S
C453 C451 1.397 . S
C454 C451 1.367 . S
C454 C452 1.403 . S
C454 H461 0.929 . S
N455 Eu420 2.562 . S
N455 C456 1.325 . S
N455 C458 1.351 1_655 S
C456 H442 0.929 . S
C456 N455 1.325 . S
C456 C460 1.416 . S
C457 C458 1.430 . S
C457 C459 1.404 1_455 S
C457 C486 1.387 . S
C458 C450 1.448 . S
C458 N455 1.351 1_455 S
C458 C457 1.430 . S
C459 H448 0.930 . S
C459 C457 1.404 1_655 S
C459 C460 1.366 . S
C460 H439 0.930 . S
C460 C456 1.416 . S
C460 C459 1.366 . S
H461 C454 0.929 . S
H462 C485 0.931 . S
H463 C486 0.931 . S
O464 Eu420 2.462 . S
O464 C484 1.252 . S
O465 Eu420 2.373 1_455 S
O465 C476 1.249 . S
O466 Eu431 2.335 . S
O466 C476 1.264 . S
O467 Eu420 2.432 . S
O467 C484 1.268 . S
O468 Eu420 2.291 . S
O468 C483 1.255 . S
O469 Eu431 2.372 1_655 S
O469 C483 1.257 . S
O470 Eu431 2.462 . S
O470 C495 1.252 . S
O471 Eu431 2.373 1_655 S
O471 C487 1.249 . S
O472 Eu420 2.335 . S
O472 C487 1.264 . S
O473 Eu431 2.432 . S
O473 C495 1.268 . S
O474 Eu431 2.291 . S
O474 C494 1.255 . S
O475 Eu420 2.372 1_455 S
O475 C494 1.257 . S
C476 O465 1.249 . S
C476 O466 1.264 . S
C477 C480 1.382 . S
C477 C482 1.390 . S
C477 C484 1.506 . S
C478 C479 1.398 . S
C478 C482 1.392 . S
C479 C478 1.398 . S
C479 C481 1.372 . S
C479 H496 0.931 . S
C480 C477 1.382 . S
C480 C481 1.390 . S
C480 H497 0.931 . S
C481 C479 1.372 . S
C481 C480 1.390 . S
C481 H498 0.929 . S
C482 C477 1.390 . S
C482 C478 1.392 . S
C482 H499 0.930 . S
C483 O468 1.255 . S
C483 O469 1.257 . S
C484 Eu420 2.787 . S
C484 O464 1.252 . S
C484 O467 1.268 . S
C484 C477 1.506 . S
C485 C452 1.439 . S
C485 H462 0.931 . S
C485 C486 1.374 . S
C486 C457 1.387 . S
C486 H463 0.931 . S
C486 C485 1.374 . S
C487 O471 1.249 . S
C487 O472 1.264 . S
C488 C491 1.382 . S
C488 C492 1.390 . S
C488 C495 1.506 . S
C489 C490 1.398 . S
C489 C492 1.392 . S
C490 C489 1.398 . S
C490 C493 1.372 . S
C490 H500 0.931 . S
C491 C488 1.382 . S
C491 C493 1.390 . S
C491 H501 0.931 . S
C492 C488 1.390 . S
C492 C489 1.392 . S
C492 H502 0.930 . S
C493 C490 1.372 . S
C493 C491 1.390 . S
C493 H503 0.929 . S
C494 O474 1.255 . S
C494 O475 1.257 . S
C495 Eu431 2.787 . S
C495 O470 1.252 . S
C495 O473 1.268 . S
C495 C488 1.506 . S
H496 C479 0.931 . S
H497 C480 0.931 . S
H498 C481 0.929 . S
H499 C482 0.930 . S
H500 C490 0.931 . S
H501 C491 0.931 . S
H502 C492 0.930 . S
H503 C493 0.929 . S
Eu504 N533 2.600 1_455 S
Eu504 N539 2.562 . S
Eu504 O548 2.462 . S
Eu504 O549 2.373 1_455 S
Eu504 O551 2.432 . S
Eu504 O552 2.291 . S
Eu504 O556 2.335 . S
Eu504 O559 2.372 1_455 S
Eu504 C568 2.787 . S
C505 N506 1.365 . S
C505 C508 1.405 . S
C505 C512 1.448 . S
N506 C505 1.365 . S
N506 C509 1.319 . S
N506 Eu515 2.600 1_455 S
C507 C509 1.397 . S
C507 C510 1.367 . S
C507 H527 0.931 . S
C508 C505 1.405 . S
C508 C510 1.403 . S
C508 C514 1.439 . S
C509 N506 1.319 . S
C509 C507 1.397 . S
C509 H520 0.930 . S
C510 C507 1.367 . S
C510 C508 1.403 . S
C510 H531 0.929 . S
C511 C512 1.430 . S
C511 C513 1.387 . S
C511 C517 1.404 1_455 S
C512 C505 1.448 . S
C512 C511 1.430 . S
C512 N516 1.351 1_455 S
C513 C511 1.387 . S
C513 C514 1.374 . S
C513 H528 0.931 . S
C514 C508 1.439 . S
C514 C513 1.374 . S
C514 H529 0.931 . S
Eu515 N506 2.600 1_655 S
Eu515 N516 2.562 . S
Eu515 O550 2.335 . S
Eu515 O553 2.372 1_655 S
Eu515 O554 2.462 . S
Eu515 O555 2.373 1_655 S
Eu515 O557 2.432 . S
Eu515 O558 2.291 . S
Eu515 C579 2.787 . S
N516 C512 1.351 1_655 S
N516 Eu515 2.562 . S
N516 C518 1.325 . S
C517 C511 1.404 1_655 S
C517 C519 1.366 . S
C517 H525 0.930 . S
C518 N516 1.325 . S
C518 C519 1.416 . S
C518 H524 0.929 . S
C519 C517 1.366 . S
C519 C518 1.416 . S
C519 H521 0.930 . S
H520 C509 0.930 . S
H521 C519 0.930 . S
H522 C537 0.930 . S
H523 C544 0.930 . S
H524 C518 0.929 . S
H525 C517 0.930 . S
H526 C540 0.929 . S
H527 C507 0.931 . S
H528 C513 0.931 . S
H529 C514 0.931 . S
H530 C535 0.931 . S
H531 C510 0.929 . S
H532 C543 0.930 . S
N533 Eu504 2.600 1_655 S
N533 C534 1.365 . S
N533 C537 1.319 . S
C534 N533 1.365 . S
C534 C536 1.405 . S
C534 C542 1.448 . S
C535 H530 0.931 . S
C535 C537 1.397 . S
C535 C538 1.367 . S
C536 C534 1.405 . S
C536 C538 1.403 . S
C536 C569 1.439 . S
C537 H522 0.930 . S
C537 N533 1.319 . S
C537 C535 1.397 . S
C538 C535 1.367 . S
C538 C536 1.403 . S
C538 H545 0.929 . S
N539 Eu504 2.562 . S
N539 C540 1.325 . S
N539 C542 1.351 1_455 S
C540 H526 0.929 . S
C540 N539 1.325 . S
C540 C544 1.416 . S
C541 C542 1.430 . S
C541 C543 1.404 1_655 S
C541 C570 1.387 . S
C542 C534 1.448 . S
C542 N539 1.351 1_655 S
C542 C541 1.430 . S
C543 H532 0.930 . S
C543 C541 1.404 1_455 S
C543 C544 1.366 . S
C544 H523 0.930 . S
C544 C540 1.416 . S
C544 C543 1.366 . S
H545 C538 0.929 . S
H546 C569 0.931 . S
H547 C570 0.931 . S
O548 Eu504 2.462 . S
O548 C568 1.252 . S
O549 Eu504 2.373 1_655 S
O549 C560 1.249 . S
O550 Eu515 2.335 . S
O550 C560 1.264 . S
O551 Eu504 2.432 . S
O551 C568 1.268 . S
O552 Eu504 2.291 . S
O552 C567 1.255 . S
O553 Eu515 2.372 1_455 S
O553 C567 1.257 . S
O554 Eu515 2.462 . S
O554 C579 1.252 . S
O555 Eu515 2.373 1_455 S
O555 C571 1.249 . S
O556 Eu504 2.335 . S
O556 C571 1.264 . S
O557 Eu515 2.432 . S
O557 C579 1.268 . S
O558 Eu515 2.291 . S
O558 C578 1.255 . S
O559 Eu504 2.372 1_655 S
O559 C578 1.257 . S
C560 O549 1.249 . S
C560 O550 1.264 . S
C561 C564 1.382 . S
C561 C566 1.390 . S
C561 C568 1.506 . S
C562 C563 1.398 . S
C562 C566 1.392 . S
C563 C562 1.398 . S
C563 C565 1.372 . S
C563 H580 0.931 . S
C564 C561 1.382 . S
C564 C565 1.390 . S
C564 H581 0.931 . S
C565 C563 1.372 . S
C565 C564 1.390 . S
C565 H582 0.929 . S
C566 C561 1.390 . S
C566 C562 1.392 . S
C566 H583 0.930 . S
C567 O552 1.255 . S
C567 O553 1.257 . S
C568 Eu504 2.787 . S
C568 O548 1.252 . S
C568 O551 1.268 . S
C568 C561 1.506 . S
C569 C536 1.439 . S
C569 H546 0.931 . S
C569 C570 1.374 . S
C570 C541 1.387 . S
C570 H547 0.931 . S
C570 C569 1.374 . S
C571 O555 1.249 . S
C571 O556 1.264 . S
C572 C575 1.382 . S
C572 C576 1.390 . S
C572 C579 1.506 . S
C573 C574 1.398 . S
C573 C576 1.392 . S
C574 C573 1.398 . S
C574 C577 1.372 . S
C574 H584 0.931 . S
C575 C572 1.382 . S
C575 C577 1.390 . S
C575 H585 0.931 . S
C576 C572 1.390 . S
C576 C573 1.392 . S
C576 H586 0.930 . S
C577 C574 1.372 . S
C577 C575 1.390 . S
C577 H587 0.929 . S
C578 O558 1.255 . S
C578 O559 1.257 . S
C579 Eu515 2.787 . S
C579 O554 1.252 . S
C579 O557 1.268 . S
C579 C572 1.506 . S
H580 C563 0.931 . S
H581 C564 0.931 . S
H582 C565 0.929 . S
H583 C566 0.930 . S
H584 C574 0.931 . S
H585 C575 0.931 . S
H586 C576 0.930 . S
H587 C577 0.929 . S
Eu588 N617 2.600 1_545 S
Eu588 N623 2.562 . S
Eu588 O632 2.462 . S
Eu588 O633 2.373 1_545 S
Eu588 O635 2.432 . S
Eu588 O636 2.291 . S
Eu588 O640 2.335 . S
Eu588 O643 2.372 1_545 S
Eu588 C652 2.787 . S
C589 N590 1.365 . S
C589 C592 1.405 . S
C589 C596 1.448 . S
N590 C589 1.365 . S
N590 C593 1.319 . S
N590 Eu599 2.600 1_545 S
C591 C593 1.397 . S
C591 C594 1.367 . S
C591 H611 0.931 . S
C592 C589 1.405 . S
C592 C594 1.403 . S
C592 C598 1.439 . S
C593 N590 1.319 . S
C593 C591 1.397 . S
C593 H604 0.930 . S
C594 C591 1.367 . S
C594 C592 1.403 . S
C594 H615 0.929 . S
C595 C596 1.430 . S
C595 C597 1.387 . S
C595 C601 1.404 1_545 S
C596 C589 1.448 . S
C596 C595 1.430 . S
C596 N600 1.351 1_545 S
C597 C595 1.387 . S
C597 C598 1.374 . S
C597 H612 0.931 . S
C598 C592 1.439 . S
C598 C597 1.374 . S
C598 H613 0.931 . S
Eu599 N590 2.600 1_565 S
Eu599 N600 2.562 . S
Eu599 O634 2.335 . S
Eu599 O637 2.372 1_565 S
Eu599 O638 2.462 . S
Eu599 O639 2.373 1_565 S
Eu599 O641 2.432 . S
Eu599 O642 2.291 . S
Eu599 C663 2.787 . S
N600 C596 1.351 1_565 S
N600 Eu599 2.562 . S
N600 C602 1.325 . S
C601 C595 1.404 1_565 S
C601 C603 1.366 . S
C601 H609 0.930 . S
C602 N600 1.325 . S
C602 C603 1.416 . S
C602 H608 0.929 . S
C603 C601 1.366 . S
C603 C602 1.416 . S
C603 H605 0.930 . S
H604 C593 0.930 . S
H605 C603 0.930 . S
H606 C621 0.930 . S
H607 C628 0.930 . S
H608 C602 0.929 . S
H609 C601 0.930 . S
H610 C624 0.929 . S
H611 C591 0.931 . S
H612 C597 0.931 . S
H613 C598 0.931 . S
H614 C619 0.931 . S
H615 C594 0.929 . S
H616 C627 0.930 . S
N617 Eu588 2.600 1_565 S
N617 C618 1.365 . S
N617 C621 1.319 . S
C618 N617 1.365 . S
C618 C620 1.405 . S
C618 C626 1.448 . S
C619 H614 0.931 . S
C619 C621 1.397 . S
C619 C622 1.367 . S
C620 C618 1.405 . S
C620 C622 1.403 . S
C620 C653 1.439 . S
C621 H606 0.930 . S
C621 N617 1.319 . S
C621 C619 1.397 . S
C622 C619 1.367 . S
C622 C620 1.403 . S
C622 H629 0.929 . S
N623 Eu588 2.562 . S
N623 C624 1.325 . S
N623 C626 1.351 1_545 S
C624 H610 0.929 . S
C624 N623 1.325 . S
C624 C628 1.416 . S
C625 C626 1.430 . S
C625 C627 1.404 1_565 S
C625 C654 1.387 . S
C626 C618 1.448 . S
C626 N623 1.351 1_565 S
C626 C625 1.430 . S
C627 H616 0.930 . S
C627 C625 1.404 1_545 S
C627 C628 1.366 . S
C628 H607 0.930 . S
C628 C624 1.416 . S
C628 C627 1.366 . S
H629 C622 0.929 . S
H630 C653 0.931 . S
H631 C654 0.931 . S
O632 Eu588 2.462 . S
O632 C652 1.252 . S
O633 Eu588 2.373 1_565 S
O633 C644 1.249 . S
O634 Eu599 2.335 . S
O634 C644 1.264 . S
O635 Eu588 2.432 . S
O635 C652 1.268 . S
O636 Eu588 2.291 . S
O636 C651 1.255 . S
O637 Eu599 2.372 1_545 S
O637 C651 1.257 . S
O638 Eu599 2.462 . S
O638 C663 1.252 . S
O639 Eu599 2.373 1_545 S
O639 C655 1.249 . S
O640 Eu588 2.335 . S
O640 C655 1.264 . S
O641 Eu599 2.432 . S
O641 C663 1.268 . S
O642 Eu599 2.291 . S
O642 C662 1.255 . S
O643 Eu588 2.372 1_565 S
O643 C662 1.257 . S
C644 O633 1.249 . S
C644 O634 1.264 . S
C645 C648 1.382 . S
C645 C650 1.390 . S
C645 C652 1.506 . S
C646 C647 1.398 . S
C646 C650 1.392 . S
C647 C646 1.398 . S
C647 C649 1.372 . S
C647 H664 0.931 . S
C648 C645 1.382 . S
C648 C649 1.390 . S
C648 H665 0.931 . S
C649 C647 1.372 . S
C649 C648 1.390 . S
C649 H666 0.929 . S
C650 C645 1.390 . S
C650 C646 1.392 . S
C650 H667 0.930 . S
C651 O636 1.255 . S
C651 O637 1.257 . S
C652 Eu588 2.787 . S
C652 O632 1.252 . S
C652 O635 1.268 . S
C652 C645 1.506 . S
C653 C620 1.439 . S
C653 H630 0.931 . S
C653 C654 1.374 . S
C654 C625 1.387 . S
C654 H631 0.931 . S
C654 C653 1.374 . S
C655 O639 1.249 . S
C655 O640 1.264 . S
C656 C659 1.382 . S
C656 C660 1.390 . S
C656 C663 1.506 . S
C657 C658 1.398 . S
C657 C660 1.392 . S
C658 C657 1.398 . S
C658 C661 1.372 . S
C658 H668 0.931 . S
C659 C656 1.382 . S
C659 C661 1.390 . S
C659 H669 0.931 . S
C660 C656 1.390 . S
C660 C657 1.392 . S
C660 H670 0.930 . S
C661 C658 1.372 . S
C661 C659 1.390 . S
C661 H671 0.929 . S
C662 O642 1.255 . S
C662 O643 1.257 . S
C663 Eu599 2.787 . S
C663 O638 1.252 . S
C663 O641 1.268 . S
C663 C656 1.506 . S
H664 C647 0.931 . S
H665 C648 0.931 . S
H666 C649 0.929 . S
H667 C650 0.930 . S
H668 C658 0.931 . S
H669 C659 0.931 . S
H670 C660 0.930 . S
H671 C661 0.929 . S
Eu672 N701 2.600 . S
Eu672 N707 2.562 . S
Eu672 O716 2.462 . S
Eu672 O717 2.373 . S
Eu672 O719 2.432 . S
Eu672 O720 2.291 . S
Eu672 O724 2.335 . S
Eu672 O727 2.372 . S
Eu672 C736 2.787 . S
C673 N674 1.365 . S
C673 C676 1.405 . S
C673 C680 1.448 . S
N674 C673 1.365 . S
N674 C677 1.319 . S
N674 Eu683 2.600 . S
C675 C677 1.397 . S
C675 C678 1.367 . S
C675 H695 0.931 . S
C676 C673 1.405 . S
C676 C678 1.403 . S
C676 C682 1.439 . S
C677 N674 1.319 . S
C677 C675 1.397 . S
C677 H688 0.930 . S
C678 C675 1.367 . S
C678 C676 1.403 . S
C678 H699 0.929 . S
C679 C680 1.430 . S
C679 C681 1.387 . S
C679 C685 1.404 . S
C680 C673 1.448 . S
C680 C679 1.430 . S
C680 N684 1.351 . S
C681 C679 1.387 . S
C681 C682 1.374 . S
C681 H696 0.931 . S
C682 C676 1.439 . S
C682 C681 1.374 . S
C682 H697 0.931 . S
Eu683 N674 2.600 . S
Eu683 N684 2.562 . S
Eu683 O718 2.335 . S
Eu683 O721 2.372 . S
Eu683 O722 2.462 . S
Eu683 O723 2.373 . S
Eu683 O725 2.432 . S
Eu683 O726 2.291 . S
Eu683 C747 2.787 . S
N684 C680 1.351 . S
N684 Eu683 2.562 . S
N684 C686 1.325 . S
C685 C679 1.404 . S
C685 C687 1.366 . S
C685 H693 0.930 . S
C686 N684 1.325 . S
C686 C687 1.416 . S
C686 H692 0.929 . S
C687 C685 1.366 . S
C687 C686 1.416 . S
C687 H689 0.930 . S
H688 C677 0.930 . S
H689 C687 0.930 . S
H690 C705 0.930 . S
H691 C712 0.930 . S
H692 C686 0.929 . S
H693 C685 0.930 . S
H694 C708 0.929 . S
H695 C675 0.931 . S
H696 C681 0.931 . S
H697 C682 0.931 . S
H698 C703 0.931 . S
H699 C678 0.929 . S
H700 C711 0.930 . S
N701 Eu672 2.600 . S
N701 C702 1.365 . S
N701 C705 1.319 . S
C702 N701 1.365 . S
C702 C704 1.405 . S
C702 C710 1.448 . S
C703 H698 0.931 . S
C703 C705 1.397 . S
C703 C706 1.367 . S
C704 C702 1.405 . S
C704 C706 1.403 . S
C704 C737 1.439 . S
C705 H690 0.930 . S
C705 N701 1.319 . S
C705 C703 1.397 . S
C706 C703 1.367 . S
C706 C704 1.403 . S
C706 H713 0.929 . S
N707 Eu672 2.562 . S
N707 C708 1.325 . S
N707 C710 1.351 . S
C708 H694 0.929 . S
C708 N707 1.325 . S
C708 C712 1.416 . S
C709 C710 1.430 . S
C709 C711 1.404 . S
C709 C738 1.387 . S
C710 C702 1.448 . S
C710 N707 1.351 . S
C710 C709 1.430 . S
C711 H700 0.930 . S
C711 C709 1.404 . S
C711 C712 1.366 . S
C712 H691 0.930 . S
C712 C708 1.416 . S
C712 C711 1.366 . S
H713 C706 0.929 . S
H714 C737 0.931 . S
H715 C738 0.931 . S
O716 Eu672 2.462 . S
O716 C736 1.252 . S
O717 Eu672 2.373 . S
O717 C728 1.249 . S
O718 Eu683 2.335 . S
O718 C728 1.264 . S
O719 Eu672 2.432 . S
O719 C736 1.268 . S
O720 Eu672 2.291 . S
O720 C735 1.255 . S
O721 Eu683 2.372 . S
O721 C735 1.257 . S
O722 Eu683 2.462 . S
O722 C747 1.252 . S
O723 Eu683 2.373 . S
O723 C739 1.249 . S
O724 Eu672 2.335 . S
O724 C739 1.264 . S
O725 Eu683 2.432 . S
O725 C747 1.268 . S
O726 Eu683 2.291 . S
O726 C746 1.255 . S
O727 Eu672 2.372 . S
O727 C746 1.257 . S
C728 O717 1.249 . S
C728 O718 1.264 . S
C729 C732 1.382 . S
C729 C734 1.390 . S
C729 C736 1.506 . S
C730 C731 1.398 . S
C730 C734 1.392 . S
C731 C730 1.398 . S
C731 C733 1.372 . S
C731 H748 0.931 . S
C732 C729 1.382 . S
C732 C733 1.390 . S
C732 H749 0.931 . S
C733 C731 1.372 . S
C733 C732 1.390 . S
C733 H750 0.929 . S
C734 C729 1.390 . S
C734 C730 1.392 . S
C734 H751 0.930 . S
C735 O720 1.255 . S
C735 O721 1.257 . S
C736 Eu672 2.787 . S
C736 O716 1.252 . S
C736 O719 1.268 . S
C736 C729 1.506 . S
C737 C704 1.439 . S
C737 H714 0.931 . S
C737 C738 1.374 . S
C738 C709 1.387 . S
C738 H715 0.931 . S
C738 C737 1.374 . S
C739 O723 1.249 . S
C739 O724 1.264 . S
C740 C743 1.382 . S
C740 C744 1.390 . S
C740 C747 1.506 . S
C741 C742 1.398 . S
C741 C744 1.392 . S
C742 C741 1.398 . S
C742 C745 1.372 . S
C742 H752 0.931 . S
C743 C740 1.382 . S
C743 C745 1.390 . S
C743 H753 0.931 . S
C744 C740 1.390 . S
C744 C741 1.392 . S
C744 H754 0.930 . S
C745 C742 1.372 . S
C745 C743 1.390 . S
C745 H755 0.929 . S
C746 O726 1.255 . S
C746 O727 1.257 . S
C747 Eu683 2.787 . S
C747 O722 1.252 . S
C747 O725 1.268 . S
C747 C740 1.506 . S
H748 C731 0.931 . S
H749 C732 0.931 . S
H750 C733 0.929 . S
H751 C734 0.930 . S
H752 C742 0.931 . S
H753 C743 0.931 . S
H754 C744 0.930 . S
H755 C745 0.929 . S
Eu756 N785 2.600 1_655 S
Eu756 N791 2.562 . S
Eu756 O800 2.462 . S
Eu756 O801 2.373 1_655 S
Eu756 O803 2.432 1_556 S
Eu756 O804 2.291 . S
Eu756 O808 2.335 . S
Eu756 O811 2.372 1_655 S
Eu756 C820 2.787 1_556 S
C757 N758 1.365 . S
C757 C760 1.405 . S
C757 C764 1.448 . S
N758 C757 1.365 . S
N758 C761 1.319 . S
N758 Eu767 2.600 1_655 S
C759 C761 1.397 . S
C759 C762 1.367 . S
C759 H779 0.931 . S
C760 C757 1.405 . S
C760 C762 1.403 . S
C760 C766 1.439 . S
C761 N758 1.319 . S
C761 C759 1.397 . S
C761 H772 0.930 . S
C762 C759 1.367 . S
C762 C760 1.403 . S
C762 H783 0.929 . S
C763 C764 1.430 . S
C763 C765 1.387 . S
C763 C769 1.404 1_655 S
C764 C757 1.448 . S
C764 C763 1.430 . S
C764 N768 1.351 1_655 S
C765 C763 1.387 . S
C765 C766 1.374 . S
C765 H780 0.931 . S
C766 C760 1.439 . S
C766 C765 1.374 . S
C766 H781 0.931 . S
Eu767 N758 2.600 1_455 S
Eu767 N768 2.562 . S
Eu767 O802 2.335 . S
Eu767 O805 2.372 1_455 S
Eu767 O806 2.462 . S
Eu767 O807 2.373 1_455 S
Eu767 O809 2.432 . S
Eu767 O810 2.291 . S
Eu767 C831 2.787 . S
N768 C764 1.351 1_455 S
N768 Eu767 2.562 . S
N768 C770 1.325 . S
C769 C763 1.404 1_455 S
C769 C771 1.366 . S
C769 H777 0.930 . S
C770 N768 1.325 . S
C770 C771 1.416 . S
C770 H776 0.929 . S
C771 C769 1.366 . S
C771 C770 1.416 . S
C771 H773 0.930 . S
H772 C761 0.930 . S
H773 C771 0.930 . S
H774 C789 0.930 . S
H775 C796 0.930 . S
H776 C770 0.929 . S
H777 C769 0.930 . S
H778 C792 0.929 . S
H779 C759 0.931 . S
H780 C765 0.931 . S
H781 C766 0.931 . S
H782 C787 0.931 . S
H783 C762 0.929 . S
H784 C795 0.930 . S
N785 Eu756 2.600 1_455 S
N785 C786 1.365 . S
N785 C789 1.319 1_556 S
C786 N785 1.365 . S
C786 C788 1.405 . S
C786 C794 1.448 . S
C787 H782 0.931 . S
C787 C789 1.397 . S
C787 C790 1.370 . S
C788 C786 1.405 . S
C788 C790 1.398 1_556 S
C788 C821 1.439 . S
C789 H774 0.930 . S
C789 N785 1.319 1_554 S
C789 C787 1.397 . S
C790 C787 1.370 . S
C790 C788 1.398 1_554 S
C790 H797 0.932 . S
N791 Eu756 2.562 . S
N791 C792 1.325 . S
N791 C794 1.351 1_655 S
C792 H778 0.929 . S
C792 N791 1.325 . S
C792 C796 1.416 . S
C793 C794 1.430 . S
C793 C795 1.404 1_455 S
C793 C822 1.387 . S
C794 C786 1.448 . S
C794 N791 1.351 1_455 S
C794 C793 1.430 . S
C795 H784 0.930 . S
C795 C793 1.404 1_655 S
C795 C796 1.366 . S
C796 H775 0.930 . S
C796 C792 1.416 . S
C796 C795 1.366 . S
H797 C790 0.932 . S
H798 C821 0.931 . S
H799 C822 0.931 . S
O800 Eu756 2.462 . S
O800 C820 1.252 1_556 S
O801 Eu756 2.373 1_455 S
O801 C812 1.249 . S
O802 Eu767 2.335 . S
O802 C812 1.264 . S
O803 Eu756 2.432 1_554 S
O803 C820 1.268 . S
O804 Eu756 2.291 . S
O804 C819 1.255 . S
O805 Eu767 2.372 1_655 S
O805 C819 1.257 . S
O806 Eu767 2.462 . S
O806 C831 1.252 . S
O807 Eu767 2.373 1_655 S
O807 C823 1.249 . S
O808 Eu756 2.335 . S
O808 C823 1.264 . S
O809 Eu767 2.432 . S
O809 C831 1.268 . S
O810 Eu767 2.291 . S
O810 C830 1.255 . S
O811 Eu756 2.372 1_455 S
O811 C830 1.257 . S
C812 O801 1.249 . S
C812 O802 1.264 . S
C813 C816 1.382 . S
C813 C818 1.390 . S
C813 C820 1.506 . S
C814 C815 1.398 . S
C814 C818 1.392 . S
C815 C814 1.398 . S
C815 C817 1.372 . S
C815 H832 0.931 . S
C816 C813 1.382 . S
C816 C817 1.390 . S
C816 H833 0.931 . S
C817 C815 1.372 . S
C817 C816 1.390 . S
C817 H834 0.929 . S
C818 C813 1.390 . S
C818 C814 1.392 . S
C818 H835 0.930 . S
C819 O804 1.255 . S
C819 O805 1.257 . S
C820 Eu756 2.787 1_554 S
C820 O800 1.252 1_554 S
C820 O803 1.268 . S
C820 C813 1.506 . S
C821 C788 1.439 . S
C821 H798 0.931 . S
C821 C822 1.374 . S
C822 C793 1.387 . S
C822 H799 0.931 . S
C822 C821 1.374 . S
C823 O807 1.249 . S
C823 O808 1.264 . S
C824 C827 1.382 . S
C824 C828 1.390 . S
C824 C831 1.506 . S
C825 C826 1.398 . S
C825 C828 1.392 . S
C826 C825 1.398 . S
C826 C829 1.372 . S
C826 H836 0.931 . S
C827 C824 1.382 . S
C827 C829 1.390 . S
C827 H837 0.931 . S
C828 C824 1.390 . S
C828 C825 1.392 . S
C828 H838 0.930 . S
C829 C826 1.372 . S
C829 C827 1.390 . S
C829 H839 0.929 . S
C830 O810 1.255 . S
C830 O811 1.257 . S
C831 Eu767 2.787 . S
C831 O806 1.252 . S
C831 O809 1.268 . S
C831 C824 1.506 . S
H832 C815 0.931 . S
H833 C816 0.931 . S
H834 C817 0.929 . S
H835 C818 0.930 . S
H836 C826 0.931 . S
H837 C827 0.931 . S
H838 C828 0.930 . S
H839 C829 0.929 . S
Eu840 N869 2.600 1_565 S
Eu840 N875 2.562 . S
Eu840 O884 2.462 . S
Eu840 O885 2.373 1_565 S
Eu840 O887 2.432 . S
Eu840 O888 2.291 . S
Eu840 O892 2.335 . S
Eu840 O895 2.372 1_565 S
Eu840 C904 2.787 . S
C841 N842 1.365 . S
C841 C844 1.405 . S
C841 C848 1.448 . S
N842 C841 1.365 . S
N842 C845 1.319 . S
N842 Eu851 2.600 1_565 S
C843 C845 1.397 . S
C843 C846 1.367 . S
C843 H863 0.931 . S
C844 C841 1.405 . S
C844 C846 1.403 . S
C844 C850 1.439 . S
C845 N842 1.319 . S
C845 C843 1.397 . S
C845 H856 0.930 . S
C846 C843 1.367 . S
C846 C844 1.403 . S
C846 H867 0.929 . S
C847 C848 1.430 . S
C847 C849 1.387 . S
C847 C853 1.404 1_565 S
C848 C841 1.448 . S
C848 C847 1.430 . S
C848 N852 1.351 1_565 S
C849 C847 1.387 . S
C849 C850 1.374 . S
C849 H864 0.931 . S
C850 C844 1.439 . S
C850 C849 1.374 . S
C850 H865 0.931 . S
Eu851 N842 2.600 1_545 S
Eu851 N852 2.562 . S
Eu851 O886 2.335 . S
Eu851 O889 2.372 1_545 S
Eu851 O890 2.462 . S
Eu851 O891 2.373 1_545 S
Eu851 O893 2.432 . S
Eu851 O894 2.291 . S
Eu851 C915 2.787 . S
N852 C848 1.351 1_545 S
N852 Eu851 2.562 . S
N852 C854 1.325 . S
C853 C847 1.404 1_545 S
C853 C855 1.366 . S
C853 H861 0.930 . S
C854 N852 1.325 . S
C854 C855 1.416 . S
C854 H860 0.929 . S
C855 C853 1.366 . S
C855 C854 1.416 . S
C855 H857 0.930 . S
H856 C845 0.930 . S
H857 C855 0.930 . S
H858 C873 0.930 . S
H859 C880 0.930 . S
H860 C854 0.929 . S
H861 C853 0.930 . S
H862 C876 0.929 . S
H863 C843 0.931 . S
H864 C849 0.931 . S
H865 C850 0.931 . S
H866 C871 0.931 . S
H867 C846 0.929 . S
H868 C879 0.930 . S
N869 Eu840 2.600 1_545 S
N869 C870 1.365 . S
N869 C873 1.319 . S
C870 N869 1.365 . S
C870 C872 1.405 . S
C870 C878 1.448 . S
C871 H866 0.931 . S
C871 C873 1.397 . S
C871 C874 1.367 . S
C872 C870 1.405 . S
C872 C874 1.403 . S
C872 C905 1.439 . S
C873 H858 0.930 . S
C873 N869 1.319 . S
C873 C871 1.397 . S
C874 C871 1.367 . S
C874 C872 1.403 . S
C874 H881 0.929 . S
N875 Eu840 2.562 . S
N875 C876 1.325 . S
N875 C878 1.351 1_565 S
C876 H862 0.929 . S
C876 N875 1.325 . S
C876 C880 1.416 . S
C877 C878 1.430 . S
C877 C879 1.404 1_545 S
C877 C906 1.387 . S
C878 C870 1.448 . S
C878 N875 1.351 1_545 S
C878 C877 1.430 . S
C879 H868 0.930 . S
C879 C877 1.404 1_565 S
C879 C880 1.366 . S
C880 H859 0.930 . S
C880 C876 1.416 . S
C880 C879 1.366 . S
H881 C874 0.929 . S
H882 C905 0.931 . S
H883 C906 0.931 . S
O884 Eu840 2.462 . S
O884 C904 1.252 . S
O885 Eu840 2.373 1_545 S
O885 C896 1.249 . S
O886 Eu851 2.335 . S
O886 C896 1.264 . S
O887 Eu840 2.432 . S
O887 C904 1.268 . S
O888 Eu840 2.291 . S
O888 C903 1.255 . S
O889 Eu851 2.372 1_565 S
O889 C903 1.257 . S
O890 Eu851 2.462 . S
O890 C915 1.252 . S
O891 Eu851 2.373 1_565 S
O891 C907 1.249 . S
O892 Eu840 2.335 . S
O892 C907 1.264 . S
O893 Eu851 2.432 . S
O893 C915 1.268 . S
O894 Eu851 2.291 . S
O894 C914 1.255 . S
O895 Eu840 2.372 1_545 S
O895 C914 1.257 . S
C896 O885 1.249 . S
C896 O886 1.264 . S
C897 C900 1.382 . S
C897 C902 1.390 . S
C897 C904 1.506 . S
C898 C899 1.398 . S
C898 C902 1.392 . S
C899 C898 1.398 . S
C899 C901 1.372 . S
C899 H916 0.931 . S
C900 C897 1.382 . S
C900 C901 1.390 . S
C900 H917 0.931 . S
C901 C899 1.372 . S
C901 C900 1.390 . S
C901 H918 0.929 . S
C902 C897 1.390 . S
C902 C898 1.392 . S
C902 H919 0.930 . S
C903 O888 1.255 . S
C903 O889 1.257 . S
C904 Eu840 2.787 . S
C904 O884 1.252 . S
C904 O887 1.268 . S
C904 C897 1.506 . S
C905 C872 1.439 . S
C905 H882 0.931 . S
C905 C906 1.374 . S
C906 C877 1.387 . S
C906 H883 0.931 . S
C906 C905 1.374 . S
C907 O891 1.249 . S
C907 O892 1.264 . S
C908 C911 1.382 . S
C908 C912 1.390 . S
C908 C915 1.506 . S
C909 C910 1.398 . S
C909 C912 1.392 . S
C910 C909 1.398 . S
C910 C913 1.372 . S
C910 H920 0.931 . S
C911 C908 1.382 . S
C911 C913 1.390 . S
C911 H921 0.931 . S
C912 C908 1.390 . S
C912 C909 1.392 . S
C912 H922 0.930 . S
C913 C910 1.372 . S
C913 C911 1.390 . S
C913 H923 0.929 . S
C914 O894 1.255 . S
C914 O895 1.257 . S
C915 Eu851 2.787 . S
C915 O890 1.252 . S
C915 O893 1.268 . S
C915 C908 1.506 . S
H916 C899 0.931 . S
H917 C900 0.931 . S
H918 C901 0.929 . S
H919 C902 0.930 . S
H920 C910 0.931 . S
H921 C911 0.931 . S
H922 C912 0.930 . S
H923 C913 0.929 . S
Eu924 N953 2.600 . S
Eu924 N959 2.562 . S
Eu924 O968 2.462 . S
Eu924 O969 2.373 . S
Eu924 O971 2.432 . S
Eu924 O972 2.291 . S
Eu924 O976 2.335 . S
Eu924 O979 2.372 . S
Eu924 C988 2.787 . S
C925 N926 1.365 . S
C925 C928 1.405 . S
C925 C932 1.448 . S
N926 C925 1.365 . S
N926 C929 1.319 . S
N926 Eu935 2.600 . S
C927 C929 1.397 . S
C927 C930 1.367 . S
C927 H947 0.931 . S
C928 C925 1.405 . S
C928 C930 1.403 . S
C928 C934 1.439 . S
C929 N926 1.319 . S
C929 C927 1.397 . S
C929 H940 0.930 . S
C930 C927 1.367 . S
C930 C928 1.403 . S
C930 H951 0.929 . S
C931 C932 1.430 . S
C931 C933 1.387 . S
C931 C937 1.404 . S
C932 C925 1.448 . S
C932 C931 1.430 . S
C932 N936 1.351 . S
C933 C931 1.387 . S
C933 C934 1.374 . S
C933 H948 0.931 . S
C934 C928 1.439 . S
C934 C933 1.374 . S
C934 H949 0.931 . S
Eu935 N926 2.600 . S
Eu935 N936 2.562 . S
Eu935 O970 2.335 . S
Eu935 O973 2.372 . S
Eu935 O974 2.462 . S
Eu935 O975 2.373 . S
Eu935 O977 2.432 . S
Eu935 O978 2.291 . S
Eu935 C999 2.787 . S
N936 C932 1.351 . S
N936 Eu935 2.562 . S
N936 C938 1.325 . S
C937 C931 1.404 . S
C937 C939 1.366 . S
C937 H945 0.930 . S
C938 N936 1.325 . S
C938 C939 1.416 . S
C938 H944 0.929 . S
C939 C937 1.366 . S
C939 C938 1.416 . S
C939 H941 0.930 . S
H940 C929 0.930 . S
H941 C939 0.930 . S
H942 C957 0.930 . S
H943 C964 0.930 . S
H944 C938 0.929 . S
H945 C937 0.930 . S
H946 C960 0.929 . S
H947 C927 0.931 . S
H948 C933 0.931 . S
H949 C934 0.931 . S
H950 C955 0.931 . S
H951 C930 0.929 . S
H952 C963 0.930 . S
N953 Eu924 2.600 . S
N953 C954 1.365 . S
N953 C957 1.319 . S
C954 N953 1.365 . S
C954 C956 1.405 . S
C954 C962 1.448 . S
C955 H950 0.931 . S
C955 C957 1.397 . S
C955 C958 1.367 . S
C956 C954 1.405 . S
C956 C958 1.403 . S
C956 C989 1.439 . S
C957 H942 0.930 . S
C957 N953 1.319 . S
C957 C955 1.397 . S
C958 C955 1.367 . S
C958 C956 1.403 . S
C958 H965 0.929 . S
N959 Eu924 2.562 . S
N959 C960 1.325 . S
N959 C962 1.351 . S
C960 H946 0.929 . S
C960 N959 1.325 . S
C960 C964 1.416 . S
C961 C962 1.430 . S
C961 C963 1.404 . S
C961 C990 1.387 . S
C962 C954 1.448 . S
C962 N959 1.351 . S
C962 C961 1.430 . S
C963 H952 0.930 . S
C963 C961 1.404 . S
C963 C964 1.366 . S
C964 H943 0.930 . S
C964 C960 1.416 . S
C964 C963 1.366 . S
H965 C958 0.929 . S
H966 C989 0.931 . S
H967 C990 0.931 . S
O968 Eu924 2.462 . S
O968 C988 1.252 . S
O969 Eu924 2.373 . S
O969 C980 1.249 . S
O970 Eu935 2.335 . S
O970 C980 1.264 . S
O971 Eu924 2.432 . S
O971 C988 1.268 . S
O972 Eu924 2.291 . S
O972 C987 1.255 . S
O973 Eu935 2.372 . S
O973 C987 1.257 . S
O974 Eu935 2.462 . S
O974 C999 1.252 . S
O975 Eu935 2.373 . S
O975 C991 1.249 . S
O976 Eu924 2.335 . S
O976 C991 1.264 . S
O977 Eu935 2.432 . S
O977 C999 1.268 . S
O978 Eu935 2.291 . S
O978 C998 1.255 . S
O979 Eu924 2.372 . S
O979 C998 1.257 . S
C980 O969 1.249 . S
C980 O970 1.264 . S
C981 C984 1.382 . S
C981 C986 1.390 . S
C981 C988 1.506 . S
C982 C983 1.398 . S
C982 C986 1.392 . S
C983 C982 1.398 . S
C983 C985 1.372 . S
C983 H1000 0.931 . S
C984 C981 1.382 . S
C984 C985 1.390 . S
C984 H1001 0.931 . S
C985 C983 1.372 . S
C985 C984 1.390 . S
C985 H1002 0.929 . S
C986 C981 1.390 . S
C986 C982 1.392 . S
C986 H1003 0.930 . S
C987 O972 1.255 . S
C987 O973 1.257 . S
C988 Eu924 2.787 . S
C988 O968 1.252 . S
C988 O971 1.268 . S
C988 C981 1.506 . S
C989 C956 1.439 . S
C989 H966 0.931 . S
C989 C990 1.374 . S
C990 C961 1.387 . S
C990 H967 0.931 . S
C990 C989 1.374 . S
C991 O975 1.249 . S
C991 O976 1.264 . S
C992 C995 1.382 . S
C992 C996 1.390 . S
C992 C999 1.506 . S
C993 C994 1.398 . S
C993 C996 1.392 . S
C994 C993 1.398 . S
C994 C997 1.372 . S
C994 H1004 0.931 . S
C995 C992 1.382 . S
C995 C997 1.390 . S
C995 H1005 0.931 . S
C996 C992 1.390 . S
C996 C993 1.392 . S
C996 H1006 0.930 . S
C997 C994 1.372 . S
C997 C995 1.390 . S
C997 H1007 0.929 . S
C998 O978 1.255 . S
C998 O979 1.257 . S
C999 Eu935 2.787 . S
C999 O974 1.252 . S
C999 O977 1.268 . S
C999 C992 1.506 . S
H1000 C983 0.931 . S
H1001 C984 0.931 . S
H1002 C985 0.929 . S
H1003 C986 0.930 . S
H1004 C994 0.931 . S
H1005 C995 0.931 . S
H1006 C996 0.930 . S
H1007 C997 0.929 . S
H1008 C1020 0.930 . S
H1009 C1022 0.930 . S
H1010 C1023 0.930 . S
H1011 C1027 0.959 . S
H1012 C1027 0.959 . S
H1013 C1027 0.961 . S
H1014 C1028 0.960 . S
H1015 C1028 0.961 . S
H1016 C1028 0.959 . S
H1017 C1031 0.929 . S
H1018 C1032 0.931 . S
H1019 C1034 0.930 . S
C1020 H1008 0.930 . S
C1020 C1021 1.399 . S
C1020 C1025 1.399 . S
C1021 C1020 1.399 . S
C1021 C1022 1.376 . S
C1022 H1009 0.930 . S
C1022 C1021 1.376 . S
C1022 C1023 1.388 . S
C1023 H1010 0.930 . S
C1023 C1022 1.388 . S
C1023 C1024 1.390 . S
C1024 C1023 1.390 . S
C1024 C1025 1.394 . S
C1024 C1030 1.465 . S
C1025 C1020 1.399 . S
C1025 C1024 1.394 . S
C1025 C1026 1.516 . S
C1026 C1025 1.516 . S
C1026 C1027 1.502 . S
C1026 C1028 1.561 . S
C1026 C1029 1.526 . S
C1027 H1011 0.959 . S
C1027 H1012 0.959 . S
C1027 H1013 0.961 . S
C1027 C1026 1.502 . S
C1028 H1014 0.960 . S
C1028 H1015 0.961 . S
C1028 H1016 0.959 . S
C1028 C1026 1.561 . S
C1029 C1026 1.526 . S
C1029 C1030 1.396 . S
C1029 C1034 1.390 . S
C1030 C1024 1.465 . S
C1030 C1029 1.396 . S
C1030 C1031 1.399 . S
C1031 H1017 0.929 . S
C1031 C1030 1.399 . S
C1031 C1032 1.385 . S
C1032 H1018 0.931 . S
C1032 C1031 1.385 . S
C1032 C1033 1.389 . S
C1033 C1032 1.389 . S
C1033 C1034 1.387 . S
C1034 H1019 0.930 . S
C1034 C1029 1.390 . S
C1034 C1033 1.387 . S
H1035 C1047 0.930 . S
H1036 C1049 0.930 . S
H1037 C1050 0.930 . S
H1038 C1054 0.959 . S
H1039 C1054 0.959 1_565 S
H1040 C1054 0.961 . S
H1041 C1055 0.967 . S
H1042 C1055 0.961 1_565 S
H1043 C1055 0.959 . S
H1044 C1058 0.929 . S
H1045 C1059 0.931 . S
H1046 C1061 0.930 . S
C1047 H1035 0.930 . S
C1047 C1048 1.399 . S
C1047 C1052 1.399 . S
C1048 C1047 1.399 . S
C1048 C1049 1.376 . S
C1049 H1036 0.930 . S
C1049 C1048 1.376 . S
C1049 C1050 1.388 . S
C1050 H1037 0.930 . S
C1050 C1049 1.388 . S
C1050 C1051 1.390 . S
C1051 C1050 1.390 . S
C1051 C1052 1.394 . S
C1051 C1057 1.465 . S
C1052 C1047 1.399 . S
C1052 C1051 1.394 . S
C1052 C1053 1.516 . S
C1053 C1052 1.516 . S
C1053 C1054 1.502 . S
C1053 C1055 1.561 . S
C1053 C1056 1.526 . S
C1054 H1038 0.959 . S
C1054 H1039 0.959 1_545 S
C1054 H1040 0.961 . S
C1054 C1053 1.502 . S
C1055 H1041 0.967 . S
C1055 H1042 0.961 1_545 S
C1055 H1043 0.959 . S
C1055 C1053 1.561 . S
C1056 C1053 1.526 . S
C1056 C1057 1.396 . S
C1056 C1061 1.390 . S
C1057 C1051 1.465 . S
C1057 C1056 1.396 . S
C1057 C1058 1.399 . S
C1058 H1044 0.929 . S
C1058 C1057 1.399 . S
C1058 C1059 1.385 . S
C1059 H1045 0.931 . S
C1059 C1058 1.385 . S
C1059 C1060 1.389 . S
C1060 C1059 1.389 . S
C1060 C1061 1.387 . S
C1061 H1046 0.930 . S
C1061 C1056 1.390 . S
C1061 C1060 1.387 . S
H1062 C1074 0.930 . S
H1063 C1076 0.930 . S
H1064 C1077 0.930 . S
H1065 C1081 0.959 . S
H1066 C1081 0.959 . S
H1067 C1081 0.961 . S
H1068 C1082 0.960 . S
H1069 C1082 0.961 . S
H1070 C1082 0.959 . S
H1071 C1085 0.929 . S
H1072 C1086 0.931 . S
H1073 C1088 0.930 . S
C1074 H1062 0.930 . S
C1074 C1075 1.399 . S
C1074 C1079 1.399 . S
C1075 C1074 1.399 . S
C1075 C1076 1.376 . S
C1076 H1063 0.930 . S
C1076 C1075 1.376 . S
C1076 C1077 1.388 . S
C1077 H1064 0.930 . S
C1077 C1076 1.388 . S
C1077 C1078 1.390 . S
C1078 C1077 1.390 . S
C1078 C1079 1.394 . S
C1078 C1084 1.465 . S
C1079 C1074 1.399 . S
C1079 C1078 1.394 . S
C1079 C1080 1.516 . S
C1080 C1079 1.516 . S
C1080 C1081 1.502 . S
C1080 C1082 1.561 . S
C1080 C1083 1.526 . S
C1081 H1065 0.959 . S
C1081 H1066 0.959 . S
C1081 H1067 0.961 . S
C1081 C1080 1.502 . S
C1082 H1068 0.960 . S
C1082 H1069 0.961 . S
C1082 H1070 0.959 . S
C1082 C1080 1.561 . S
C1083 C1080 1.526 . S
C1083 C1084 1.396 . S
C1083 C1088 1.390 . S
C1084 C1078 1.465 . S
C1084 C1083 1.396 . S
C1084 C1085 1.399 . S
C1085 H1071 0.929 . S
C1085 C1084 1.399 . S
C1085 C1086 1.385 . S
C1086 H1072 0.931 . S
C1086 C1085 1.385 . S
C1086 C1087 1.389 . S
C1087 C1086 1.389 . S
C1087 C1088 1.387 . S
C1088 H1073 0.930 . S
C1088 C1083 1.390 . S
C1088 C1087 1.387 . S
H1089 C1101 0.930 . S
H1090 C1103 0.930 . S
H1091 C1104 0.930 . S
H1092 C1108 0.959 . S
H1093 C1108 0.959 . S
H1094 C1108 0.961 . S
H1095 C1109 0.960 . S
H1096 C1109 0.961 . S
H1097 C1109 0.959 . S
H1098 C1112 0.929 . S
H1099 C1113 0.931 . S
H1100 C1115 0.930 . S
C1101 H1089 0.930 . S
C1101 C1102 1.399 . S
C1101 C1106 1.399 . S
C1102 C1101 1.399 . S
C1102 C1103 1.376 . S
C1103 H1090 0.930 . S
C1103 C1102 1.376 . S
C1103 C1104 1.388 . S
C1104 H1091 0.930 . S
C1104 C1103 1.388 . S
C1104 C1105 1.390 . S
C1105 C1104 1.390 . S
C1105 C1106 1.394 . S
C1105 C1111 1.465 . S
C1106 C1101 1.399 . S
C1106 C1105 1.394 . S
C1106 C1107 1.516 . S
C1107 C1106 1.516 . S
C1107 C1108 1.502 . S
C1107 C1109 1.561 . S
C1107 C1110 1.526 . S
C1108 H1092 0.959 . S
C1108 H1093 0.959 . S
C1108 H1094 0.961 . S
C1108 C1107 1.502 . S
C1109 H1095 0.960 . S
C1109 H1096 0.961 . S
C1109 H1097 0.959 . S
C1109 C1107 1.561 . S
C1110 C1107 1.526 . S
C1110 C1111 1.396 . S
C1110 C1115 1.390 . S
C1111 C1105 1.465 . S
C1111 C1110 1.396 . S
C1111 C1112 1.399 . S
C1112 H1098 0.929 . S
C1112 C1111 1.399 . S
C1112 C1113 1.385 . S
C1113 H1099 0.931 . S
C1113 C1112 1.385 . S
C1113 C1114 1.389 . S
C1114 C1113 1.389 . S
C1114 C1115 1.387 . S
C1115 H1100 0.930 . S
C1115 C1110 1.390 . S
C1115 C1114 1.387 . S
H1116 C1128 0.930 . S
H1117 C1130 0.930 . S
H1118 C1131 0.930 . S
H1119 C1135 0.959 . S
H1120 C1135 0.959 . S
H1121 C1135 0.961 . S
H1122 C1136 0.960 . S
H1123 C1136 0.961 . S
H1124 C1136 0.959 . S
H1125 C1139 0.929 . S
H1126 C1140 0.931 . S
H1127 C1142 0.930 . S
C1128 H1116 0.930 . S
C1128 C1129 1.399 . S
C1128 C1133 1.399 . S
C1129 C1128 1.399 . S
C1129 C1130 1.376 . S
C1130 H1117 0.930 . S
C1130 C1129 1.376 . S
C1130 C1131 1.388 . S
C1131 H1118 0.930 . S
C1131 C1130 1.388 . S
C1131 C1132 1.390 . S
C1132 C1131 1.390 . S
C1132 C1133 1.394 . S
C1132 C1138 1.465 . S
C1133 C1128 1.399 . S
C1133 C1132 1.394 . S
C1133 C1134 1.516 . S
C1134 C1133 1.516 . S
C1134 C1135 1.502 . S
C1134 C1136 1.561 . S
C1134 C1137 1.526 . S
C1135 H1119 0.959 . S
C1135 H1120 0.959 . S
C1135 H1121 0.961 . S
C1135 C1134 1.502 . S
C1136 H1122 0.960 . S
C1136 H1123 0.961 . S
C1136 H1124 0.959 . S
C1136 C1134 1.561 . S
C1137 C1134 1.526 . S
C1137 C1138 1.396 . S
C1137 C1142 1.390 . S
C1138 C1132 1.465 . S
C1138 C1137 1.396 . S
C1138 C1139 1.399 . S
C1139 H1125 0.929 . S
C1139 C1138 1.399 . S
C1139 C1140 1.385 . S
C1140 H1126 0.931 . S
C1140 C1139 1.385 . S
C1140 C1141 1.389 . S
C1141 C1140 1.389 . S
C1141 C1142 1.387 . S
C1142 H1127 0.930 . S
C1142 C1137 1.390 . S
C1142 C1141 1.387 . S
H1143 C1155 0.930 . S
H1144 C1157 0.930 . S
H1145 C1158 0.930 . S
H1146 C1162 0.959 . S
H1147 C1162 0.959 . S
H1148 C1162 0.961 . S
H1149 C1163 0.960 . S
H1150 C1163 0.961 . S
H1151 C1163 0.959 . S
H1152 C1166 0.929 . S
H1153 C1167 0.931 . S
H1154 C1169 0.930 . S
C1155 H1143 0.930 . S
C1155 C1156 1.399 . S
C1155 C1160 1.399 . S
C1156 C1155 1.399 . S
C1156 C1157 1.376 . S
C1157 H1144 0.930 . S
C1157 C1156 1.376 . S
C1157 C1158 1.388 . S
C1158 H1145 0.930 . S
C1158 C1157 1.388 . S
C1158 C1159 1.390 . S
C1159 C1158 1.390 . S
C1159 C1160 1.394 . S
C1159 C1165 1.465 . S
C1160 C1155 1.399 . S
C1160 C1159 1.394 . S
C1160 C1161 1.516 . S
C1161 C1160 1.516 . S
C1161 C1162 1.502 . S
C1161 C1163 1.561 . S
C1161 C1164 1.526 . S
C1162 H1146 0.959 . S
C1162 H1147 0.959 . S
C1162 H1148 0.961 . S
C1162 C1161 1.502 . S
C1163 H1149 0.960 . S
C1163 H1150 0.961 . S
C1163 H1151 0.959 . S
C1163 C1161 1.561 . S
C1164 C1161 1.526 . S
C1164 C1165 1.396 . S
C1164 C1169 1.390 . S
C1165 C1159 1.465 . S
C1165 C1164 1.396 . S
C1165 C1166 1.399 . S
C1166 H1152 0.929 . S
C1166 C1165 1.399 . S
C1166 C1167 1.385 . S
C1167 H1153 0.931 . S
C1167 C1166 1.385 . S
C1167 C1168 1.389 . S
C1168 C1167 1.389 . S
C1168 C1169 1.387 . S
C1169 H1154 0.930 . S
C1169 C1164 1.390 . S
C1169 C1168 1.387 . S
H1170 C1182 0.930 . S
H1171 C1184 0.930 . S
H1172 C1185 0.930 . S
H1173 C1189 0.959 . S
H1174 C1189 0.959 . S
H1175 C1189 0.961 . S
H1176 C1190 0.960 . S
H1177 C1190 0.961 . S
H1178 C1190 0.959 . S
H1179 C1193 0.929 . S
H1180 C1194 0.931 . S
H1181 C1196 0.930 . S
C1182 H1170 0.930 . S
C1182 C1183 1.399 . S
C1182 C1187 1.399 . S
C1183 C1182 1.399 . S
C1183 C1184 1.376 . S
C1184 H1171 0.930 . S
C1184 C1183 1.376 . S
C1184 C1185 1.388 . S
C1185 H1172 0.930 . S
C1185 C1184 1.388 . S
C1185 C1186 1.390 . S
C1186 C1185 1.390 . S
C1186 C1187 1.394 . S
C1186 C1192 1.465 . S
C1187 C1182 1.399 . S
C1187 C1186 1.394 . S
C1187 C1188 1.516 . S
C1188 C1187 1.516 . S
C1188 C1189 1.502 . S
C1188 C1190 1.561 . S
C1188 C1191 1.526 . S
C1189 H1173 0.959 . S
C1189 H1174 0.959 . S
C1189 H1175 0.961 . S
C1189 C1188 1.502 . S
C1190 H1176 0.960 . S
C1190 H1177 0.961 . S
C1190 H1178 0.959 . S
C1190 C1188 1.561 . S
C1191 C1188 1.526 . S
C1191 C1192 1.396 . S
C1191 C1196 1.390 . S
C1192 C1186 1.465 . S
C1192 C1191 1.396 . S
C1192 C1193 1.399 . S
C1193 H1179 0.929 . S
C1193 C1192 1.399 . S
C1193 C1194 1.385 . S
C1194 H1180 0.931 . S
C1194 C1193 1.385 . S
C1194 C1195 1.389 . S
C1195 C1194 1.389 . S
C1195 C1196 1.387 . S
C1196 H1181 0.930 . S
C1196 C1191 1.390 . S
C1196 C1195 1.387 . S
H1197 C1209 0.930 . S
H1198 C1211 0.930 . S
H1199 C1212 0.930 . S
H1200 C1216 0.959 . S
H1201 C1216 0.959 . S
H1202 C1216 0.961 . S
H1203 C1217 0.960 . S
H1204 C1217 0.961 . S
H1205 C1217 0.959 . S
H1206 C1220 0.929 . S
H1207 C1221 0.931 . S
H1208 C1223 0.930 . S
C1209 H1197 0.930 . S
C1209 C1210 1.399 . S
C1209 C1214 1.399 . S
C1210 C1209 1.399 . S
C1210 C1211 1.376 . S
C1211 H1198 0.930 . S
C1211 C1210 1.376 . S
C1211 C1212 1.388 . S
C1212 H1199 0.930 . S
C1212 C1211 1.388 . S
C1212 C1213 1.390 . S
C1213 C1212 1.390 . S
C1213 C1214 1.394 . S
C1213 C1219 1.465 . S
C1214 C1209 1.399 . S
C1214 C1213 1.394 . S
C1214 C1215 1.516 . S
C1215 C1214 1.516 . S
C1215 C1216 1.502 . S
C1215 C1217 1.561 . S
C1215 C1218 1.526 . S
C1216 H1200 0.959 . S
C1216 H1201 0.959 . S
C1216 H1202 0.961 . S
C1216 C1215 1.502 . S
C1217 H1203 0.960 . S
C1217 H1204 0.961 . S
C1217 H1205 0.959 . S
C1217 C1215 1.561 . S
C1218 C1215 1.526 . S
C1218 C1219 1.396 . S
C1218 C1223 1.390 . S
C1219 C1213 1.465 . S
C1219 C1218 1.396 . S
C1219 C1220 1.399 . S
C1220 H1206 0.929 . S
C1220 C1219 1.399 . S
C1220 C1221 1.385 . S
C1221 H1207 0.931 . S
C1221 C1220 1.385 . S
C1221 C1222 1.389 . S
C1222 C1221 1.389 . S
C1222 C1223 1.387 . S
C1223 H1208 0.930 . S
C1223 C1218 1.390 . S
C1223 C1222 1.387 . S
H1224 C1236 0.930 . S
H1225 C1238 0.930 . S
H1226 C1239 0.930 . S
H1227 C1243 0.959 . S
H1228 C1243 0.959 . S
H1229 C1243 0.961 . S
H1230 C1244 0.960 . S
H1231 C1244 0.961 . S
H1232 C1244 0.959 . S
H1233 C1247 0.929 . S
H1234 C1248 0.931 . S
H1235 C1250 0.930 . S
C1236 H1224 0.930 . S
C1236 C1237 1.399 . S
C1236 C1241 1.399 . S
C1237 C1236 1.399 . S
C1237 C1238 1.376 . S
C1238 H1225 0.930 . S
C1238 C1237 1.376 . S
C1238 C1239 1.388 . S
C1239 H1226 0.930 . S
C1239 C1238 1.388 . S
C1239 C1240 1.390 . S
C1240 C1239 1.390 . S
C1240 C1241 1.394 . S
C1240 C1246 1.465 . S
C1241 C1236 1.399 . S
C1241 C1240 1.394 . S
C1241 C1242 1.516 . S
C1242 C1241 1.516 . S
C1242 C1243 1.502 . S
C1242 C1244 1.561 . S
C1242 C1245 1.526 . S
C1243 H1227 0.959 . S
C1243 H1228 0.959 . S
C1243 H1229 0.961 . S
C1243 C1242 1.502 . S
C1244 H1230 0.960 . S
C1244 H1231 0.961 . S
C1244 H1232 0.959 . S
C1244 C1242 1.561 . S
C1245 C1242 1.526 . S
C1245 C1246 1.396 . S
C1245 C1250 1.390 . S
C1246 C1240 1.465 . S
C1246 C1245 1.396 . S
C1246 C1247 1.399 . S
C1247 H1233 0.929 . S
C1247 C1246 1.399 . S
C1247 C1248 1.385 . S
C1248 H1234 0.931 . S
C1248 C1247 1.385 . S
C1248 C1249 1.389 . S
C1249 C1248 1.389 . S
C1249 C1250 1.387 . S
C1250 H1235 0.930 . S
C1250 C1245 1.390 . S
C1250 C1249 1.387 . S
H1251 C1263 0.930 . S
H1252 C1265 0.930 . S
H1253 C1266 0.930 . S
H1254 C1270 0.959 . S
H1255 C1270 0.959 . S
H1256 C1270 0.961 . S
H1257 C1271 0.960 . S
H1258 C1271 0.961 . S
H1259 C1271 0.959 . S
H1260 C1274 0.929 . S
H1261 C1275 0.931 . S
H1262 C1277 0.930 . S
C1263 H1251 0.930 . S
C1263 C1264 1.399 . S
C1263 C1268 1.399 . S
C1264 C1263 1.399 . S
C1264 C1265 1.376 . S
C1265 H1252 0.930 . S
C1265 C1264 1.376 . S
C1265 C1266 1.388 . S
C1266 H1253 0.930 . S
C1266 C1265 1.388 . S
C1266 C1267 1.390 . S
C1267 C1266 1.390 . S
C1267 C1268 1.394 . S
C1267 C1273 1.465 . S
C1268 C1263 1.399 . S
C1268 C1267 1.394 . S
C1268 C1269 1.516 . S
C1269 C1268 1.516 . S
C1269 C1270 1.502 . S
C1269 C1271 1.561 . S
C1269 C1272 1.526 . S
C1270 H1254 0.959 . S
C1270 H1255 0.959 . S
C1270 H1256 0.961 . S
C1270 C1269 1.502 . S
C1271 H1257 0.960 . S
C1271 H1258 0.961 . S
C1271 H1259 0.959 . S
C1271 C1269 1.561 . S
C1272 C1269 1.526 . S
C1272 C1273 1.396 . S
C1272 C1277 1.390 . S
C1273 C1267 1.465 . S
C1273 C1272 1.396 . S
C1273 C1274 1.399 . S
C1274 H1260 0.929 . S
C1274 C1273 1.399 . S
C1274 C1275 1.385 . S
C1275 H1261 0.931 . S
C1275 C1274 1.385 . S
C1275 C1276 1.389 . S
C1276 C1275 1.389 . S
C1276 C1277 1.387 . S
C1277 H1262 0.930 . S
C1277 C1272 1.390 . S
C1277 C1276 1.387 . S
H1278 C1290 0.930 . S
H1279 C1292 0.930 . S
H1280 C1293 0.930 . S
H1281 C1297 0.959 . S
H1282 C1297 0.959 . S
H1283 C1297 0.961 . S
H1284 C1298 0.960 . S
H1285 C1298 0.961 . S
H1286 C1298 0.959 . S
H1287 C1301 0.929 . S
H1288 C1302 0.931 . S
H1289 C1304 0.930 . S
C1290 H1278 0.930 . S
C1290 C1291 1.399 . S
C1290 C1295 1.399 . S
C1291 C1290 1.399 . S
C1291 C1292 1.376 . S
C1292 H1279 0.930 . S
C1292 C1291 1.376 . S
C1292 C1293 1.388 . S
C1293 H1280 0.930 . S
C1293 C1292 1.388 . S
C1293 C1294 1.390 . S
C1294 C1293 1.390 . S
C1294 C1295 1.394 . S
C1294 C1300 1.465 . S
C1295 C1290 1.399 . S
C1295 C1294 1.394 . S
C1295 C1296 1.516 . S
C1296 C1295 1.516 . S
C1296 C1297 1.502 . S
C1296 C1298 1.561 . S
C1296 C1299 1.526 . S
C1297 H1281 0.959 . S
C1297 H1282 0.959 . S
C1297 H1283 0.961 . S
C1297 C1296 1.502 . S
C1298 H1284 0.960 . S
C1298 H1285 0.961 . S
C1298 H1286 0.959 . S
C1298 C1296 1.561 . S
C1299 C1296 1.526 . S
C1299 C1300 1.396 . S
C1299 C1304 1.390 . S
C1300 C1294 1.465 . S
C1300 C1299 1.396 . S
C1300 C1301 1.399 . S
C1301 H1287 0.929 . S
C1301 C1300 1.399 . S
C1301 C1302 1.385 . S
C1302 H1288 0.931 . S
C1302 C1301 1.385 . S
C1302 C1303 1.389 . S
C1303 C1302 1.389 . S
C1303 C1304 1.387 . S
C1304 H1289 0.930 . S
C1304 C1299 1.390 . S
C1304 C1303 1.387 . S
H1305 C1317 0.930 . S
H1306 C1319 0.930 . S
H1307 C1320 0.930 . S
H1308 C1324 0.959 . S
H1309 C1324 0.959 . S
H1310 C1324 0.961 . S
H1311 C1325 0.960 . S
H1312 C1325 0.961 . S
H1313 C1325 0.959 . S
H1314 C1328 0.929 . S
H1315 C1329 0.931 . S
H1316 C1331 0.930 . S
C1317 H1305 0.930 . S
C1317 C1318 1.399 . S
C1317 C1322 1.399 . S
C1318 C1317 1.399 . S
C1318 C1319 1.376 . S
C1319 H1306 0.930 . S
C1319 C1318 1.376 . S
C1319 C1320 1.388 . S
C1320 H1307 0.930 . S
C1320 C1319 1.388 . S
C1320 C1321 1.390 . S
C1321 C1320 1.390 . S
C1321 C1322 1.394 . S
C1321 C1327 1.465 . S
C1322 C1317 1.399 . S
C1322 C1321 1.394 . S
C1322 C1323 1.516 . S
C1323 C1322 1.516 . S
C1323 C1324 1.502 . S
C1323 C1325 1.561 . S
C1323 C1326 1.526 . S
C1324 H1308 0.959 . S
C1324 H1309 0.959 . S
C1324 H1310 0.961 . S
C1324 C1323 1.502 . S
C1325 H1311 0.960 . S
C1325 H1312 0.961 . S
C1325 H1313 0.959 . S
C1325 C1323 1.561 . S
C1326 C1323 1.526 . S
C1326 C1327 1.396 . S
C1326 C1331 1.390 . S
C1327 C1321 1.465 . S
C1327 C1326 1.396 . S
C1327 C1328 1.399 . S
C1328 H1314 0.929 . S
C1328 C1327 1.399 . S
C1328 C1329 1.385 . S
C1329 H1315 0.931 . S
C1329 C1328 1.385 . S
C1329 C1330 1.389 . S
C1330 C1329 1.389 . S
C1330 C1331 1.387 . S
C1331 H1316 0.930 . S
C1331 C1326 1.390 . S
C1331 C1330 1.387 . S
H1332 C1344 0.930 . S
H1333 C1346 0.930 . S
H1334 C1347 0.930 . S
H1335 C1351 0.959 . S
H1336 C1351 0.959 . S
H1337 C1351 0.961 . S
H1338 C1352 0.960 . S
H1339 C1352 0.961 . S
H1340 C1352 0.959 . S
H1341 C1355 0.929 . S
H1342 C1356 0.931 . S
H1343 C1358 0.930 . S
C1344 H1332 0.930 . S
C1344 C1345 1.399 . S
C1344 C1349 1.399 . S
C1345 C1344 1.399 . S
C1345 C1346 1.376 . S
C1346 H1333 0.930 . S
C1346 C1345 1.376 . S
C1346 C1347 1.388 . S
C1347 H1334 0.930 . S
C1347 C1346 1.388 . S
C1347 C1348 1.390 . S
C1348 C1347 1.390 . S
C1348 C1349 1.394 . S
C1348 C1354 1.465 . S
C1349 C1344 1.399 . S
C1349 C1348 1.394 . S
C1349 C1350 1.516 . S
C1350 C1349 1.516 . S
C1350 C1351 1.502 . S
C1350 C1352 1.561 . S
C1350 C1353 1.526 . S
C1351 H1335 0.959 . S
C1351 H1336 0.959 . S
C1351 H1337 0.961 . S
C1351 C1350 1.502 . S
C1352 H1338 0.960 . S
C1352 H1339 0.961 . S
C1352 H1340 0.959 . S
C1352 C1350 1.561 . S
C1353 C1350 1.526 . S
C1353 C1354 1.396 . S
C1353 C1358 1.390 . S
C1354 C1348 1.465 . S
C1354 C1353 1.396 . S
C1354 C1355 1.399 . S
C1355 H1341 0.929 . S
C1355 C1354 1.399 . S
C1355 C1356 1.385 . S
C1356 H1342 0.931 . S
C1356 C1355 1.385 . S
C1356 C1357 1.389 . S
C1357 C1356 1.389 . S
C1357 C1358 1.387 . S
C1358 H1343 0.930 . S
C1358 C1353 1.390 . S
C1358 C1357 1.387 . S
H1359 C1371 0.930 . S
H1360 C1373 0.930 . S
H1361 C1374 0.930 . S
H1362 C1378 0.959 . S
H1363 C1378 0.959 . S
H1364 C1378 0.961 . S
H1365 C1379 0.960 . S
H1366 C1379 0.961 . S
H1367 C1379 0.959 . S
H1368 C1382 0.929 . S
H1369 C1383 0.931 . S
H1370 C1385 0.930 . S
C1371 H1359 0.930 . S
C1371 C1372 1.399 . S
C1371 C1376 1.399 . S
C1372 C1371 1.399 . S
C1372 C1373 1.376 . S
C1373 H1360 0.930 . S
C1373 C1372 1.376 . S
C1373 C1374 1.388 . S
C1374 H1361 0.930 . S
C1374 C1373 1.388 . S
C1374 C1375 1.390 . S
C1375 C1374 1.390 . S
C1375 C1376 1.394 . S
C1375 C1381 1.465 . S
C1376 C1371 1.399 . S
C1376 C1375 1.394 . S
C1376 C1377 1.516 . S
C1377 C1376 1.516 . S
C1377 C1378 1.502 . S
C1377 C1379 1.561 . S
C1377 C1380 1.526 . S
C1378 H1362 0.959 . S
C1378 H1363 0.959 . S
C1378 H1364 0.961 . S
C1378 C1377 1.502 . S
C1379 H1365 0.960 . S
C1379 H1366 0.961 . S
C1379 H1367 0.959 . S
C1379 C1377 1.561 . S
C1380 C1377 1.526 . S
C1380 C1381 1.396 . S
C1380 C1385 1.390 . S
C1381 C1375 1.465 . S
C1381 C1380 1.396 . S
C1381 C1382 1.399 . S
C1382 H1368 0.929 . S
C1382 C1381 1.399 . S
C1382 C1383 1.385 . S
C1383 H1369 0.931 . S
C1383 C1382 1.385 . S
C1383 C1384 1.389 . S
C1384 C1383 1.389 . S
C1384 C1385 1.387 . S
C1385 H1370 0.930 . S
C1385 C1380 1.390 . S
C1385 C1384 1.387 . S
H1386 C1398 0.930 . S
H1387 C1400 0.930 . S
H1388 C1401 0.930 . S
H1389 C1405 0.959 . S
H1390 C1405 0.959 . S
H1391 C1405 0.961 . S
H1392 C1406 0.960 . S
H1393 C1406 0.961 . S
H1394 C1406 0.959 . S
H1395 C1409 0.929 . S
H1396 C1410 0.931 . S
H1397 C1412 0.930 . S
C1398 H1386 0.930 . S
C1398 C1399 1.399 . S
C1398 C1403 1.399 . S
C1399 C1398 1.399 . S
C1399 C1400 1.376 . S
C1400 H1387 0.930 . S
C1400 C1399 1.376 . S
C1400 C1401 1.388 . S
C1401 H1388 0.930 . S
C1401 C1400 1.388 . S
C1401 C1402 1.390 . S
C1402 C1401 1.390 . S
C1402 C1403 1.394 . S
C1402 C1408 1.465 . S
C1403 C1398 1.399 . S
C1403 C1402 1.394 . S
C1403 C1404 1.516 . S
C1404 C1403 1.516 . S
C1404 C1405 1.502 . S
C1404 C1406 1.561 . S
C1404 C1407 1.526 . S
C1405 H1389 0.959 . S
C1405 H1390 0.959 . S
C1405 H1391 0.961 . S
C1405 C1404 1.502 . S
C1406 H1392 0.960 . S
C1406 H1393 0.961 . S
C1406 H1394 0.959 . S
C1406 C1404 1.561 . S
C1407 C1404 1.526 . S
C1407 C1408 1.396 . S
C1407 C1412 1.390 . S
C1408 C1402 1.465 . S
C1408 C1407 1.396 . S
C1408 C1409 1.399 . S
C1409 H1395 0.929 . S
C1409 C1408 1.399 . S
C1409 C1410 1.385 . S
C1410 H1396 0.931 . S
C1410 C1409 1.385 . S
C1410 C1411 1.389 . S
C1411 C1410 1.389 . S
C1411 C1412 1.387 . S
C1412 H1397 0.930 . S
C1412 C1407 1.390 . S
C1412 C1411 1.387 . S
H1413 C1425 0.930 . S
H1414 C1427 0.930 . S
H1415 C1428 0.930 . S
H1416 C1432 0.959 . S
H1417 C1432 0.959 . S
H1418 C1432 0.961 . S
H1419 C1433 0.960 . S
H1420 C1433 0.961 . S
H1421 C1433 0.959 . S
H1422 C1436 0.929 . S
H1423 C1437 0.931 . S
H1424 C1439 0.930 . S
C1425 H1413 0.930 . S
C1425 C1426 1.399 . S
C1425 C1430 1.399 . S
C1426 C1425 1.399 . S
C1426 C1427 1.376 . S
C1427 H1414 0.930 . S
C1427 C1426 1.376 . S
C1427 C1428 1.388 . S
C1428 H1415 0.930 . S
C1428 C1427 1.388 . S
C1428 C1429 1.390 . S
C1429 C1428 1.390 . S
C1429 C1430 1.394 . S
C1429 C1435 1.465 . S
C1430 C1425 1.399 . S
C1430 C1429 1.394 . S
C1430 C1431 1.516 . S
C1431 C1430 1.516 . S
C1431 C1432 1.502 . S
C1431 C1433 1.561 . S
C1431 C1434 1.526 . S
C1432 H1416 0.959 . S
C1432 H1417 0.959 . S
C1432 H1418 0.961 . S
C1432 C1431 1.502 . S
C1433 H1419 0.960 . S
C1433 H1420 0.961 . S
C1433 H1421 0.959 . S
C1433 C1431 1.561 . S
C1434 C1431 1.526 . S
C1434 C1435 1.396 . S
C1434 C1439 1.390 . S
C1435 C1429 1.465 . S
C1435 C1434 1.396 . S
C1435 C1436 1.399 . S
C1436 H1422 0.929 . S
C1436 C1435 1.399 . S
C1436 C1437 1.385 . S
C1437 H1423 0.931 . S
C1437 C1436 1.385 . S
C1437 C1438 1.389 . S
C1438 C1437 1.389 . S
C1438 C1439 1.387 . S
C1439 H1424 0.930 . S
C1439 C1434 1.390 . S
C1439 C1438 1.387 . S
H1440 C1452 0.930 . S
H1441 C1454 0.930 . S
H1442 C1455 0.930 . S
H1443 C1459 0.959 . S
H1444 C1459 0.959 . S
H1445 C1459 0.961 . S
H1446 C1460 0.960 . S
H1447 C1460 0.961 . S
H1448 C1460 0.959 . S
H1449 C1463 0.929 . S
H1450 C1464 0.931 . S
H1451 C1466 0.930 . S
C1452 H1440 0.930 . S
C1452 C1453 1.399 . S
C1452 C1457 1.399 . S
C1453 C1452 1.399 . S
C1453 C1454 1.376 1_556 S
C1454 H1441 0.930 . S
C1454 C1453 1.376 1_554 S
C1454 C1455 1.388 . S
C1455 H1442 0.930 . S
C1455 C1454 1.388 . S
C1455 C1456 1.390 . S
C1456 C1455 1.390 . S
C1456 C1457 1.394 1_554 S
C1456 C1462 1.465 . S
C1457 C1452 1.399 . S
C1457 C1456 1.394 1_556 S
C1457 C1458 1.516 . S
C1458 C1457 1.516 . S
C1458 C1459 1.502 . S
C1458 C1460 1.561 . S
C1458 C1461 1.526 . S
C1459 H1443 0.959 . S
C1459 H1444 0.959 . S
C1459 H1445 0.961 . S
C1459 C1458 1.502 . S
C1460 H1446 0.960 . S
C1460 H1447 0.961 . S
C1460 H1448 0.959 . S
C1460 C1458 1.561 . S
C1461 C1458 1.526 . S
C1461 C1462 1.396 1_556 S
C1461 C1466 1.390 . S
C1462 C1456 1.465 . S
C1462 C1461 1.396 1_554 S
C1462 C1463 1.399 . S
C1463 H1449 0.929 . S
C1463 C1462 1.399 . S
C1463 C1464 1.385 . S
C1464 H1450 0.931 . S
C1464 C1463 1.385 . S
C1464 C1465 1.389 . S
C1465 C1464 1.389 . S
C1465 C1466 1.387 1_554 S
C1466 H1451 0.930 . S
C1466 C1461 1.390 . S
C1466 C1465 1.387 1_556 S
H1467 C1479 0.930 . S
H1468 C1481 0.930 . S
H1469 C1482 0.930 . S
H1470 C1486 0.959 . S
H1471 C1486 0.959 . S
H1472 C1486 0.961 . S
H1473 C1487 0.960 . S
H1474 C1487 0.961 . S
H1475 C1487 0.959 . S
H1476 C1490 0.929 . S
H1477 C1491 0.931 . S
H1478 C1493 0.930 . S
C1479 H1467 0.930 . S
C1479 C1480 1.399 . S
C1479 C1484 1.399 . S
C1480 C1479 1.399 . S
C1480 C1481 1.376 . S
C1481 H1468 0.930 . S
C1481 C1480 1.376 . S
C1481 C1482 1.388 . S
C1482 H1469 0.930 . S
C1482 C1481 1.388 . S
C1482 C1483 1.390 . S
C1483 C1482 1.390 . S
C1483 C1484 1.394 . S
C1483 C1489 1.465 . S
C1484 C1479 1.399 . S
C1484 C1483 1.394 . S
C1484 C1485 1.516 . S
C1485 C1484 1.516 . S
C1485 C1486 1.502 . S
C1485 C1487 1.561 . S
C1485 C1488 1.526 . S
C1486 H1470 0.959 . S
C1486 H1471 0.959 . S
C1486 H1472 0.961 . S
C1486 C1485 1.502 . S
C1487 H1473 0.960 . S
C1487 H1474 0.961 . S
C1487 H1475 0.959 . S
C1487 C1485 1.561 . S
C1488 C1485 1.526 . S
C1488 C1489 1.396 . S
C1488 C1493 1.390 . S
C1489 C1483 1.465 . S
C1489 C1488 1.396 . S
C1489 C1490 1.399 . S
C1490 H1476 0.929 . S
C1490 C1489 1.399 . S
C1490 C1491 1.385 . S
C1491 H1477 0.931 . S
C1491 C1490 1.385 . S
C1491 C1492 1.389 . S
C1492 C1491 1.389 . S
C1492 C1493 1.387 . S
C1493 H1478 0.930 . S
C1493 C1488 1.390 . S
C1493 C1492 1.387 . S
H1494 C1506 0.930 . S
H1495 C1508 0.930 . S
H1496 C1509 0.930 . S
H1497 C1513 0.959 . S
H1498 C1513 0.959 . S
H1499 C1513 0.961 . S
H1500 C1514 0.960 . S
H1501 C1514 0.961 . S
H1502 C1514 0.959 . S
H1503 C1517 0.929 . S
H1504 C1518 0.931 . S
H1505 C1520 0.930 . S
C1506 H1494 0.930 . S
C1506 C1507 1.399 . S
C1506 C1511 1.399 . S
C1507 C1506 1.399 . S
C1507 C1508 1.376 . S
C1508 H1495 0.930 . S
C1508 C1507 1.376 . S
C1508 C1509 1.388 . S
C1509 H1496 0.930 . S
C1509 C1508 1.388 . S
C1509 C1510 1.390 . S
C1510 C1509 1.390 . S
C1510 C1511 1.394 . S
C1510 C1516 1.465 . S
C1511 C1506 1.399 . S
C1511 C1510 1.394 . S
C1511 C1512 1.516 . S
C1512 C1511 1.516 . S
C1512 C1513 1.502 . S
C1512 C1514 1.561 . S
C1512 C1515 1.526 . S
C1513 H1497 0.959 . S
C1513 H1498 0.959 . S
C1513 H1499 0.961 . S
C1513 C1512 1.502 . S
C1514 H1500 0.960 . S
C1514 H1501 0.961 . S
C1514 H1502 0.959 . S
C1514 C1512 1.561 . S
C1515 C1512 1.526 . S
C1515 C1516 1.396 . S
C1515 C1520 1.390 . S
C1516 C1510 1.465 . S
C1516 C1515 1.396 . S
C1516 C1517 1.399 . S
C1517 H1503 0.929 . S
C1517 C1516 1.399 . S
C1517 C1518 1.385 . S
C1518 H1504 0.931 . S
C1518 C1517 1.385 . S
C1518 C1519 1.389 . S
C1519 C1518 1.389 . S
C1519 C1520 1.387 . S
C1520 H1505 0.930 . S
C1520 C1515 1.390 . S
C1520 C1519 1.387 . S
H1521 C1533 0.930 . S
H1522 C1535 0.930 . S
H1523 C1536 0.930 . S
H1524 C1540 0.959 . S
H1525 C1540 0.959 . S
H1526 C1540 0.961 . S
H1527 C1541 0.960 . S
H1528 C1541 0.961 . S
H1529 C1541 0.959 . S
H1530 C1544 0.929 . S
H1531 C1545 0.931 . S
H1532 C1547 0.930 . S
C1533 H1521 0.930 . S
C1533 C1534 1.399 . S
C1533 C1538 1.399 . S
C1534 C1533 1.399 . S
C1534 C1535 1.376 . S
C1535 H1522 0.930 . S
C1535 C1534 1.376 . S
C1535 C1536 1.388 . S
C1536 H1523 0.930 . S
C1536 C1535 1.388 . S
C1536 C1537 1.390 . S
C1537 C1536 1.390 . S
C1537 C1538 1.394 . S
C1537 C1543 1.465 . S
C1538 C1533 1.399 . S
C1538 C1537 1.394 . S
C1538 C1539 1.516 . S
C1539 C1538 1.516 . S
C1539 C1540 1.502 . S
C1539 C1541 1.561 . S
C1539 C1542 1.526 . S
C1540 H1524 0.959 . S
C1540 H1525 0.959 . S
C1540 H1526 0.961 . S
C1540 C1539 1.502 . S
C1541 H1527 0.960 . S
C1541 H1528 0.961 . S
C1541 H1529 0.959 . S
C1541 C1539 1.561 . S
C1542 C1539 1.526 . S
C1542 C1543 1.396 . S
C1542 C1547 1.390 . S
C1543 C1537 1.465 . S
C1543 C1542 1.396 . S
C1543 C1544 1.399 . S
C1544 H1530 0.929 . S
C1544 C1543 1.399 . S
C1544 C1545 1.385 . S
C1545 H1531 0.931 . S
C1545 C1544 1.385 . S
C1545 C1546 1.389 . S
C1546 C1545 1.389 . S
C1546 C1547 1.387 . S
C1547 H1532 0.930 . S
C1547 C1542 1.390 . S
C1547 C1546 1.387 . S
H1548 C1560 0.930 . S
H1549 C1562 0.930 . S
H1550 C1563 0.930 . S
H1551 C1567 0.959 . S
H1552 C1567 0.959 . S
H1553 C1567 0.961 . S
H1554 C1568 0.960 . S
H1555 C1568 0.961 . S
H1556 C1568 0.959 . S
H1557 C1571 0.929 . S
H1558 C1572 0.931 . S
H1559 C1574 0.930 . S
C1560 H1548 0.930 . S
C1560 C1561 1.399 . S
C1560 C1565 1.399 . S
C1561 C1560 1.399 . S
C1561 C1562 1.376 . S
C1562 H1549 0.930 . S
C1562 C1561 1.376 . S
C1562 C1563 1.388 . S
C1563 H1550 0.930 . S
C1563 C1562 1.388 . S
C1563 C1564 1.390 . S
C1564 C1563 1.390 . S
C1564 C1565 1.394 . S
C1564 C1570 1.465 . S
C1565 C1560 1.399 . S
C1565 C1564 1.394 . S
C1565 C1566 1.516 . S
C1566 C1565 1.516 . S
C1566 C1567 1.502 . S
C1566 C1568 1.561 . S
C1566 C1569 1.526 . S
C1567 H1551 0.959 . S
C1567 H1552 0.959 . S
C1567 H1553 0.961 . S
C1567 C1566 1.502 . S
C1568 H1554 0.960 . S
C1568 H1555 0.961 . S
C1568 H1556 0.959 . S
C1568 C1566 1.561 . S
C1569 C1566 1.526 . S
C1569 C1570 1.396 . S
C1569 C1574 1.390 . S
C1570 C1564 1.465 . S
C1570 C1569 1.396 . S
C1570 C1571 1.399 . S
C1571 H1557 0.929 . S
C1571 C1570 1.399 . S
C1571 C1572 1.385 . S
C1572 H1558 0.931 . S
C1572 C1571 1.385 . S
C1572 C1573 1.389 . S
C1573 C1572 1.389 . S
C1573 C1574 1.387 . S
C1574 H1559 0.930 . S
C1574 C1569 1.390 . S
C1574 C1573 1.387 . S
H1575 C1587 0.930 . S
H1576 C1589 0.930 . S
H1577 C1590 0.930 . S
H1578 C1594 0.959 . S
H1579 C1594 0.978 . S
H1580 C1594 0.961 . S
H1581 C1595 0.960 . S
H1582 C1595 0.961 . S
H1583 C1595 0.959 . S
H1584 C1598 0.929 . S
H1585 C1599 0.931 . S
H1586 C1601 0.930 . S
C1587 H1575 0.930 . S
C1587 C1588 1.399 . S
C1587 C1592 1.399 . S
C1588 C1587 1.399 . S
C1588 C1589 1.376 . S
C1589 H1576 0.930 . S
C1589 C1588 1.376 . S
C1589 C1590 1.388 . S
C1590 H1577 0.930 . S
C1590 C1589 1.388 . S
C1590 C1591 1.390 . S
C1591 C1590 1.390 . S
C1591 C1592 1.394 . S
C1591 C1597 1.465 . S
C1592 C1587 1.399 . S
C1592 C1591 1.394 . S
C1592 C1593 1.516 1_554 S
C1593 C1592 1.516 1_556 S
C1593 C1594 1.502 1_556 S
C1593 C1595 1.561 . S
C1593 C1596 1.526 . S
C1594 H1578 0.959 . S
C1594 H1579 0.978 . S
C1594 H1580 0.961 . S
C1594 C1593 1.502 1_554 S
C1595 H1581 0.960 . S
C1595 H1582 0.961 . S
C1595 H1583 0.959 . S
C1595 C1593 1.561 . S
C1596 C1593 1.526 . S
C1596 C1597 1.396 1_556 S
C1596 C1601 1.390 . S
C1597 C1591 1.465 . S
C1597 C1596 1.396 1_554 S
C1597 C1598 1.399 . S
C1598 H1584 0.929 . S
C1598 C1597 1.399 . S
C1598 C1599 1.385 . S
C1599 H1585 0.931 . S
C1599 C1598 1.385 . S
C1599 C1600 1.389 1_554 S
C1600 C1599 1.389 1_556 S
C1600 C1601 1.387 . S
C1601 H1586 0.930 . S
C1601 C1596 1.390 . S
C1601 C1600 1.387 . S
H1602 C1614 0.930 . S
H1603 C1616 0.930 . S
H1604 C1617 0.930 . S
H1605 C1621 0.959 . S
H1606 C1621 0.959 . S
H1607 C1621 0.961 . S
H1608 C1622 0.960 . S
H1609 C1622 0.961 . S
H1610 C1622 0.959 . S
H1611 C1625 0.929 . S
H1612 C1626 0.931 . S
H1613 C1628 0.930 . S
C1614 H1602 0.930 . S
C1614 C1615 1.399 . S
C1614 C1619 1.399 . S
C1615 C1614 1.399 . S
C1615 C1616 1.376 . S
C1616 H1603 0.930 . S
C1616 C1615 1.376 . S
C1616 C1617 1.388 . S
C1617 H1604 0.930 . S
C1617 C1616 1.388 . S
C1617 C1618 1.390 . S
C1618 C1617 1.390 . S
C1618 C1619 1.394 . S
C1618 C1624 1.465 . S
C1619 C1614 1.399 . S
C1619 C1618 1.394 . S
C1619 C1620 1.516 . S
C1620 C1619 1.516 . S
C1620 C1621 1.502 . S
C1620 C1622 1.561 . S
C1620 C1623 1.526 . S
C1621 H1605 0.959 . S
C1621 H1606 0.959 . S
C1621 H1607 0.961 . S
C1621 C1620 1.502 . S
C1622 H1608 0.960 . S
C1622 H1609 0.961 . S
C1622 H1610 0.959 . S
C1622 C1620 1.561 . S
C1623 C1620 1.526 . S
C1623 C1624 1.396 . S
C1623 C1628 1.390 . S
C1624 C1618 1.465 . S
C1624 C1623 1.396 . S
C1624 C1625 1.399 . S
C1625 H1611 0.929 . S
C1625 C1624 1.399 . S
C1625 C1626 1.385 . S
C1626 H1612 0.931 . S
C1626 C1625 1.385 . S
C1626 C1627 1.389 . S
C1627 C1626 1.389 . S
C1627 C1628 1.387 . S
C1628 H1613 0.930 . S
C1628 C1623 1.390 . S
C1628 C1627 1.387 . S
H1629 C1641 0.930 . S
H1630 C1643 0.930 . S
H1631 C1644 0.930 . S
H1632 C1648 0.959 . S
H1633 C1648 0.959 . S
H1634 C1648 0.961 . S
H1635 C1649 0.960 . S
H1636 C1649 0.961 . S
H1637 C1649 0.959 . S
H1638 C1652 0.929 . S
H1639 C1653 0.931 . S
H1640 C1655 0.930 . S
C1641 H1629 0.930 . S
C1641 C1642 1.399 . S
C1641 C1646 1.399 . S
C1642 C1641 1.399 . S
C1642 C1643 1.376 . S
C1643 H1630 0.930 . S
C1643 C1642 1.376 . S
C1643 C1644 1.388 . S
C1644 H1631 0.930 . S
C1644 C1643 1.388 . S
C1644 C1645 1.390 . S
C1645 C1644 1.390 . S
C1645 C1646 1.394 . S
C1645 C1651 1.465 . S
C1646 C1641 1.399 . S
C1646 C1645 1.394 . S
C1646 C1647 1.516 . S
C1647 C1646 1.516 . S
C1647 C1648 1.502 . S
C1647 C1649 1.561 . S
C1647 C1650 1.526 . S
C1648 H1632 0.959 . S
C1648 H1633 0.959 . S
C1648 H1634 0.961 . S
C1648 C1647 1.502 . S
C1649 H1635 0.960 . S
C1649 H1636 0.961 . S
C1649 H1637 0.959 . S
C1649 C1647 1.561 . S
C1650 C1647 1.526 . S
C1650 C1651 1.396 . S
C1650 C1655 1.390 . S
C1651 C1645 1.465 . S
C1651 C1650 1.396 . S
C1651 C1652 1.399 . S
C1652 H1638 0.929 . S
C1652 C1651 1.399 . S
C1652 C1653 1.385 . S
C1653 H1639 0.931 . S
C1653 C1652 1.385 . S
C1653 C1654 1.389 . S
C1654 C1653 1.389 . S
C1654 C1655 1.387 . S
C1655 H1640 0.930 . S
C1655 C1650 1.390 . S
C1655 C1654 1.387 . S
H1656 C1668 0.930 . S
H1657 C1670 0.930 . S
H1658 C1671 0.930 . S
H1659 C1675 0.959 . S
H1660 C1675 0.959 . S
H1661 C1675 0.961 . S
H1662 C1676 0.960 . S
H1663 C1676 0.961 . S
H1664 C1676 0.959 . S
H1665 C1679 0.929 . S
H1666 C1680 0.931 . S
H1667 C1682 0.930 . S
C1668 H1656 0.930 . S
C1668 C1669 1.399 . S
C1668 C1673 1.399 . S
C1669 C1668 1.399 . S
C1669 C1670 1.376 . S
C1670 H1657 0.930 . S
C1670 C1669 1.376 . S
C1670 C1671 1.388 . S
C1671 H1658 0.930 . S
C1671 C1670 1.388 . S
C1671 C1672 1.390 . S
C1672 C1671 1.390 . S
C1672 C1673 1.394 . S
C1672 C1678 1.465 . S
C1673 C1668 1.399 . S
C1673 C1672 1.394 . S
C1673 C1674 1.516 . S
C1674 C1673 1.516 . S
C1674 C1675 1.502 . S
C1674 C1676 1.561 . S
C1674 C1677 1.526 . S
C1675 H1659 0.959 . S
C1675 H1660 0.959 . S
C1675 H1661 0.961 . S
C1675 C1674 1.502 . S
C1676 H1662 0.960 . S
C1676 H1663 0.961 . S
C1676 H1664 0.959 . S
C1676 C1674 1.561 . S
C1677 C1674 1.526 . S
C1677 C1678 1.396 . S
C1677 C1682 1.390 . S
C1678 C1672 1.465 . S
C1678 C1677 1.396 . S
C1678 C1679 1.399 . S
C1679 H1665 0.929 . S
C1679 C1678 1.399 . S
C1679 C1680 1.385 . S
C1680 H1666 0.931 . S
C1680 C1679 1.385 . S
C1680 C1681 1.389 . S
C1681 C1680 1.389 . S
C1681 C1682 1.387 . S
C1682 H1667 0.930 . S
C1682 C1677 1.390 . S
C1682 C1681 1.387 . S
H1683 C1695 0.930 . S
H1684 C1697 0.930 . S
H1685 C1698 0.930 . S
H1686 C1702 0.959 . S
H1687 C1702 0.959 . S
H1688 C1702 0.961 . S
H1689 C1703 0.960 . S
H1690 C1703 0.961 . S
H1691 C1703 0.959 . S
H1692 C1706 0.929 . S
H1693 C1707 0.931 . S
H1694 C1709 0.930 . S
C1695 H1683 0.930 . S
C1695 C1696 1.399 . S
C1695 C1700 1.399 . S
C1696 C1695 1.399 . S
C1696 C1697 1.376 . S
C1697 H1684 0.930 . S
C1697 C1696 1.376 . S
C1697 C1698 1.388 . S
C1698 H1685 0.930 . S
C1698 C1697 1.388 . S
C1698 C1699 1.390 . S
C1699 C1698 1.390 . S
C1699 C1700 1.394 . S
C1699 C1705 1.465 . S
C1700 C1695 1.399 . S
C1700 C1699 1.394 . S
C1700 C1701 1.516 . S
C1701 C1700 1.516 . S
C1701 C1702 1.502 . S
C1701 C1703 1.561 . S
C1701 C1704 1.526 . S
C1702 H1686 0.959 . S
C1702 H1687 0.959 . S
C1702 H1688 0.961 . S
C1702 C1701 1.502 . S
C1703 H1689 0.960 . S
C1703 H1690 0.961 . S
C1703 H1691 0.959 . S
C1703 C1701 1.561 . S
C1704 C1701 1.526 . S
C1704 C1705 1.396 . S
C1704 C1709 1.390 . S
C1705 C1699 1.465 . S
C1705 C1704 1.396 . S
C1705 C1706 1.399 . S
C1706 H1692 0.929 . S
C1706 C1705 1.399 . S
C1706 C1707 1.385 . S
C1707 H1693 0.931 . S
C1707 C1706 1.385 . S
C1707 C1708 1.389 . S
C1708 C1707 1.389 . S
C1708 C1709 1.387 . S
C1709 H1694 0.930 . S
C1709 C1704 1.390 . S
C1709 C1708 1.387 . S
H1710 C1722 0.930 . S
H1711 C1724 0.930 . S
H1712 C1725 0.930 . S
H1713 C1729 0.959 . S
H1714 C1729 0.959 . S
H1715 C1729 0.961 . S
H1716 C1730 0.960 . S
H1717 C1730 0.961 . S
H1718 C1730 0.959 . S
H1719 C1733 0.929 . S
H1720 C1734 0.931 . S
H1721 C1736 0.930 . S
C1722 H1710 0.930 . S
C1722 C1723 1.399 . S
C1722 C1727 1.399 . S
C1723 C1722 1.399 . S
C1723 C1724 1.376 . S
C1724 H1711 0.930 . S
C1724 C1723 1.376 . S
C1724 C1725 1.388 . S
C1725 H1712 0.930 . S
C1725 C1724 1.388 . S
C1725 C1726 1.390 . S
C1726 C1725 1.390 . S
C1726 C1727 1.394 . S
C1726 C1732 1.465 . S
C1727 C1722 1.399 . S
C1727 C1726 1.394 . S
C1727 C1728 1.516 . S
C1728 C1727 1.516 . S
C1728 C1729 1.502 . S
C1728 C1730 1.561 . S
C1728 C1731 1.526 . S
C1729 H1713 0.959 . S
C1729 H1714 0.959 . S
C1729 H1715 0.961 . S
C1729 C1728 1.502 . S
C1730 H1716 0.960 . S
C1730 H1717 0.961 . S
C1730 H1718 0.959 . S
C1730 C1728 1.561 . S
C1731 C1728 1.526 . S
C1731 C1732 1.396 . S
C1731 C1736 1.390 . S
C1732 C1726 1.465 . S
C1732 C1731 1.396 . S
C1732 C1733 1.399 . S
C1733 H1719 0.929 . S
C1733 C1732 1.399 . S
C1733 C1734 1.385 . S
C1734 H1720 0.931 . S
C1734 C1733 1.385 . S
C1734 C1735 1.389 . S
C1735 C1734 1.389 . S
C1735 C1736 1.387 . S
C1736 H1721 0.930 . S
C1736 C1731 1.390 . S
C1736 C1735 1.387 . S
H1737 C1749 0.930 . S
H1738 C1751 0.930 . S
H1739 C1752 0.930 . S
H1740 C1756 0.959 . S
H1741 C1756 0.959 . S
H1742 C1756 0.961 . S
H1743 C1757 0.960 . S
H1744 C1757 0.961 . S
H1745 C1757 0.959 . S
H1746 C1760 0.929 . S
H1747 C1761 0.931 . S
H1748 C1763 0.930 . S
C1749 H1737 0.930 . S
C1749 C1750 1.399 . S
C1749 C1754 1.399 . S
C1750 C1749 1.399 . S
C1750 C1751 1.376 . S
C1751 H1738 0.930 . S
C1751 C1750 1.376 . S
C1751 C1752 1.388 . S
C1752 H1739 0.930 . S
C1752 C1751 1.388 . S
C1752 C1753 1.390 . S
C1753 C1752 1.390 . S
C1753 C1754 1.394 . S
C1753 C1759 1.465 . S
C1754 C1749 1.399 . S
C1754 C1753 1.394 . S
C1754 C1755 1.516 . S
C1755 C1754 1.516 . S
C1755 C1756 1.502 . S
C1755 C1757 1.561 . S
C1755 C1758 1.526 . S
C1756 H1740 0.959 . S
C1756 H1741 0.959 . S
C1756 H1742 0.961 . S
C1756 C1755 1.502 . S
C1757 H1743 0.960 . S
C1757 H1744 0.961 . S
C1757 H1745 0.959 . S
C1757 C1755 1.561 . S
C1758 C1755 1.526 . S
C1758 C1759 1.396 . S
C1758 C1763 1.390 . S
C1759 C1753 1.465 . S
C1759 C1758 1.396 . S
C1759 C1760 1.399 . S
C1760 H1746 0.929 . S
C1760 C1759 1.399 . S
C1760 C1761 1.385 . S
C1761 H1747 0.931 . S
C1761 C1760 1.385 . S
C1761 C1762 1.389 . S
C1762 C1761 1.389 . S
C1762 C1763 1.387 . S
C1763 H1748 0.930 . S
C1763 C1758 1.390 . S
C1763 C1762 1.387 . S
H1764 C1776 0.930 . S
H1765 C1778 0.930 . S
H1766 C1779 0.930 . S
H1767 C1783 0.959 . S
H1768 C1783 0.959 . S
H1769 C1783 0.961 . S
H1770 C1784 0.960 . S
H1771 C1784 0.961 . S
H1772 C1784 0.959 . S
H1773 C1787 0.929 . S
H1774 C1788 0.931 . S
H1775 C1790 0.930 . S
C1776 H1764 0.930 . S
C1776 C1777 1.399 . S
C1776 C1781 1.399 . S
C1777 C1776 1.399 . S
C1777 C1778 1.376 . S
C1778 H1765 0.930 . S
C1778 C1777 1.376 . S
C1778 C1779 1.388 . S
C1779 H1766 0.930 . S
C1779 C1778 1.388 . S
C1779 C1780 1.390 . S
C1780 C1779 1.390 . S
C1780 C1781 1.394 . S
C1780 C1786 1.465 . S
C1781 C1776 1.399 . S
C1781 C1780 1.394 . S
C1781 C1782 1.516 . S
C1782 C1781 1.516 . S
C1782 C1783 1.502 . S
C1782 C1784 1.561 . S
C1782 C1785 1.526 . S
C1783 H1767 0.959 . S
C1783 H1768 0.959 . S
C1783 H1769 0.961 . S
C1783 C1782 1.502 . S
C1784 H1770 0.960 . S
C1784 H1771 0.961 . S
C1784 H1772 0.959 . S
C1784 C1782 1.561 . S
C1785 C1782 1.526 . S
C1785 C1786 1.396 . S
C1785 C1790 1.390 . S
C1786 C1780 1.465 . S
C1786 C1785 1.396 . S
C1786 C1787 1.399 . S
C1787 H1773 0.929 . S
C1787 C1786 1.399 . S
C1787 C1788 1.385 . S
C1788 H1774 0.931 . S
C1788 C1787 1.385 . S
C1788 C1789 1.389 . S
C1789 C1788 1.389 . S
C1789 C1790 1.387 . S
C1790 H1775 0.930 . S
C1790 C1785 1.390 . S
C1790 C1789 1.387 . S
H1791 C1803 0.930 . S
H1792 C1805 0.930 . S
H1793 C1806 0.930 . S
H1794 C1810 0.959 . S
H1795 C1810 0.959 . S
H1796 C1810 0.961 . S
H1797 C1811 0.960 . S
H1798 C1811 0.961 . S
H1799 C1811 0.959 . S
H1800 C1814 0.929 . S
H1801 C1815 0.931 . S
H1802 C1817 0.930 . S
C1803 H1791 0.930 . S
C1803 C1804 1.399 . S
C1803 C1808 1.399 . S
C1804 C1803 1.399 . S
C1804 C1805 1.376 . S
C1805 H1792 0.930 . S
C1805 C1804 1.376 . S
C1805 C1806 1.388 . S
C1806 H1793 0.930 . S
C1806 C1805 1.388 . S
C1806 C1807 1.390 . S
C1807 C1806 1.390 . S
C1807 C1808 1.394 . S
C1807 C1813 1.465 . S
C1808 C1803 1.399 . S
C1808 C1807 1.394 . S
C1808 C1809 1.516 . S
C1809 C1808 1.516 . S
C1809 C1810 1.502 . S
C1809 C1811 1.561 . S
C1809 C1812 1.526 . S
C1810 H1794 0.959 . S
C1810 H1795 0.959 . S
C1810 H1796 0.961 . S
C1810 C1809 1.502 . S
C1811 H1797 0.960 . S
C1811 H1798 0.961 . S
C1811 H1799 0.959 . S
C1811 C1809 1.561 . S
C1812 C1809 1.526 . S
C1812 C1813 1.396 . S
C1812 C1817 1.390 . S
C1813 C1807 1.465 . S
C1813 C1812 1.396 . S
C1813 C1814 1.399 . S
C1814 H1800 0.929 . S
C1814 C1813 1.399 . S
C1814 C1815 1.385 . S
C1815 H1801 0.931 . S
C1815 C1814 1.385 . S
C1815 C1816 1.389 . S
C1816 C1815 1.389 . S
C1816 C1817 1.387 . S
C1817 H1802 0.930 . S
C1817 C1812 1.390 . S
C1817 C1816 1.387 . S
H1818 C1830 0.930 . S
H1819 C1832 0.930 . S
H1820 C1833 0.930 . S
H1821 C1837 0.959 . S
H1822 C1837 0.959 . S
H1823 C1837 0.961 . S
H1824 C1838 0.960 . S
H1825 C1838 0.961 . S
H1826 C1838 0.959 . S
H1827 C1841 0.929 . S
H1828 C1842 0.931 . S
H1829 C1844 0.930 . S
C1830 H1818 0.930 . S
C1830 C1831 1.399 . S
C1830 C1835 1.399 . S
C1831 C1830 1.399 . S
C1831 C1832 1.376 . S
C1832 H1819 0.930 . S
C1832 C1831 1.376 . S
C1832 C1833 1.388 . S
C1833 H1820 0.930 . S
C1833 C1832 1.388 . S
C1833 C1834 1.390 . S
C1834 C1833 1.390 . S
C1834 C1835 1.394 . S
C1834 C1840 1.465 . S
C1835 C1830 1.399 . S
C1835 C1834 1.394 . S
C1835 C1836 1.516 . S
C1836 C1835 1.516 . S
C1836 C1837 1.502 . S
C1836 C1838 1.561 . S
C1836 C1839 1.526 . S
C1837 H1821 0.959 . S
C1837 H1822 0.959 . S
C1837 H1823 0.961 . S
C1837 C1836 1.502 . S
C1838 H1824 0.960 . S
C1838 H1825 0.961 . S
C1838 H1826 0.959 . S
C1838 C1836 1.561 . S
C1839 C1836 1.526 . S
C1839 C1840 1.396 . S
C1839 C1844 1.390 . S
C1840 C1834 1.465 . S
C1840 C1839 1.396 . S
C1840 C1841 1.399 . S
C1841 H1827 0.929 . S
C1841 C1840 1.399 . S
C1841 C1842 1.385 . S
C1842 H1828 0.931 . S
C1842 C1841 1.385 . S
C1842 C1843 1.389 . S
C1843 C1842 1.389 . S
C1843 C1844 1.387 . S
C1844 H1829 0.930 . S
C1844 C1839 1.390 . S
C1844 C1843 1.387 . S
H1845 C1857 0.930 . S
H1846 C1859 0.930 . S
H1847 C1860 0.930 . S
H1848 C1864 0.959 . S
H1849 C1864 0.959 . S
H1850 C1864 0.961 . S
H1851 C1865 0.960 . S
H1852 C1865 0.961 . S
H1853 C1865 0.959 . S
H1854 C1868 0.929 . S
H1855 C1869 0.931 . S
H1856 C1871 0.930 . S
C1857 H1845 0.930 . S
C1857 C1858 1.399 . S
C1857 C1862 1.399 . S
C1858 C1857 1.399 . S
C1858 C1859 1.376 . S
C1859 H1846 0.930 . S
C1859 C1858 1.376 . S
C1859 C1860 1.388 . S
C1860 H1847 0.930 . S
C1860 C1859 1.388 . S
C1860 C1861 1.390 . S
C1861 C1860 1.390 . S
C1861 C1862 1.394 . S
C1861 C1867 1.465 . S
C1862 C1857 1.399 . S
C1862 C1861 1.394 . S
C1862 C1863 1.516 . S
C1863 C1862 1.516 . S
C1863 C1864 1.502 . S
C1863 C1865 1.561 . S
C1863 C1866 1.526 . S
C1864 H1848 0.959 . S
C1864 H1849 0.959 . S
C1864 H1850 0.961 . S
C1864 C1863 1.502 . S
C1865 H1851 0.960 . S
C1865 H1852 0.961 . S
C1865 H1853 0.959 . S
C1865 C1863 1.561 . S
C1866 C1863 1.526 . S
C1866 C1867 1.396 . S
C1866 C1871 1.390 . S
C1867 C1861 1.465 . S
C1867 C1866 1.396 . S
C1867 C1868 1.399 . S
C1868 H1854 0.929 . S
C1868 C1867 1.399 . S
C1868 C1869 1.385 . S
C1869 H1855 0.931 . S
C1869 C1868 1.385 . S
C1869 C1870 1.389 . S
C1870 C1869 1.389 . S
C1870 C1871 1.387 . S
C1871 H1856 0.930 . S
C1871 C1866 1.390 . S
C1871 C1870 1.387 . S
H1872 C1884 0.930 . S
H1873 C1886 0.930 . S
H1874 C1887 0.930 . S
H1875 C1891 0.959 . S
H1876 C1891 0.959 . S
H1877 C1891 0.961 . S
H1878 C1892 0.960 . S
H1879 C1892 0.961 . S
H1880 C1892 0.959 . S
H1881 C1895 0.929 . S
H1882 C1896 0.931 . S
H1883 C1898 0.930 . S
C1884 H1872 0.930 . S
C1884 C1885 1.399 . S
C1884 C1889 1.399 . S
C1885 C1884 1.399 . S
C1885 C1886 1.376 . S
C1886 H1873 0.930 . S
C1886 C1885 1.376 . S
C1886 C1887 1.388 . S
C1887 H1874 0.930 . S
C1887 C1886 1.388 . S
C1887 C1888 1.390 . S
C1888 C1887 1.390 . S
C1888 C1889 1.394 . S
C1888 C1894 1.465 . S
C1889 C1884 1.399 . S
C1889 C1888 1.394 . S
C1889 C1890 1.516 . S
C1890 C1889 1.516 . S
C1890 C1891 1.502 . S
C1890 C1892 1.561 . S
C1890 C1893 1.526 . S
C1891 H1875 0.959 . S
C1891 H1876 0.959 . S
C1891 H1877 0.961 . S
C1891 C1890 1.502 . S
C1892 H1878 0.960 . S
C1892 H1879 0.961 . S
C1892 H1880 0.959 . S
C1892 C1890 1.561 . S
C1893 C1890 1.526 . S
C1893 C1894 1.396 . S
C1893 C1898 1.390 . S
C1894 C1888 1.465 . S
C1894 C1893 1.396 . S
C1894 C1895 1.399 . S
C1895 H1881 0.929 . S
C1895 C1894 1.399 . S
C1895 C1896 1.385 . S
C1896 H1882 0.931 . S
C1896 C1895 1.385 . S
C1896 C1897 1.389 . S
C1897 C1896 1.389 . S
C1897 C1898 1.387 . S
C1898 H1883 0.930 . S
C1898 C1893 1.390 . S
C1898 C1897 1.387 . S
H1899 C1911 0.930 . S
H1900 C1913 0.930 . S
H1901 C1914 0.930 . S
H1902 C1918 0.959 . S
H1903 C1918 0.959 . S
H1904 C1918 0.961 . S
H1905 C1919 0.960 . S
H1906 C1919 0.961 . S
H1907 C1919 0.959 . S
H1908 C1922 0.929 . S
H1909 C1923 0.931 . S
H1910 C1925 0.930 . S
C1911 H1899 0.930 . S
C1911 C1912 1.399 . S
C1911 C1916 1.399 . S
C1912 C1911 1.399 . S
C1912 C1913 1.376 . S
C1913 H1900 0.930 . S
C1913 C1912 1.376 . S
C1913 C1914 1.388 . S
C1914 H1901 0.930 . S
C1914 C1913 1.388 . S
C1914 C1915 1.390 . S
C1915 C1914 1.390 . S
C1915 C1916 1.394 . S
C1915 C1921 1.465 . S
C1916 C1911 1.399 . S
C1916 C1915 1.394 . S
C1916 C1917 1.516 . S
C1917 C1916 1.516 . S
C1917 C1918 1.502 . S
C1917 C1919 1.561 . S
C1917 C1920 1.526 . S
C1918 H1902 0.959 . S
C1918 H1903 0.959 . S
C1918 H1904 0.961 . S
C1918 C1917 1.502 . S
C1919 H1905 0.960 . S
C1919 H1906 0.961 . S
C1919 H1907 0.959 . S
C1919 C1917 1.561 . S
C1920 C1917 1.526 . S
C1920 C1921 1.396 . S
C1920 C1925 1.390 . S
C1921 C1915 1.465 . S
C1921 C1920 1.396 . S
C1921 C1922 1.399 . S
C1922 H1908 0.929 . S
C1922 C1921 1.399 . S
C1922 C1923 1.385 . S
C1923 H1909 0.931 . S
C1923 C1922 1.385 . S
C1923 C1924 1.389 . S
C1924 C1923 1.389 . S
C1924 C1925 1.387 . S
C1925 H1910 0.930 . S
C1925 C1920 1.390 . S
C1925 C1924 1.387 . S
H1926 C1938 0.930 . S
H1927 C1940 0.930 . S
H1928 C1941 0.930 . S
H1929 C1945 0.959 . S
H1930 C1945 0.959 . S
H1931 C1945 0.961 . S
H1932 C1946 0.960 . S
H1933 C1946 0.961 . S
H1934 C1946 0.959 . S
H1935 C1949 0.929 . S
H1936 C1950 0.931 . S
H1937 C1952 0.930 . S
C1938 H1926 0.930 . S
C1938 C1939 1.399 . S
C1938 C1943 1.399 . S
C1939 C1938 1.399 . S
C1939 C1940 1.376 . S
C1940 H1927 0.930 . S
C1940 C1939 1.376 . S
C1940 C1941 1.388 . S
C1941 H1928 0.930 . S
C1941 C1940 1.388 . S
C1941 C1942 1.390 . S
C1942 C1941 1.390 . S
C1942 C1943 1.394 . S
C1942 C1948 1.465 . S
C1943 C1938 1.399 . S
C1943 C1942 1.394 . S
C1943 C1944 1.516 . S
C1944 C1943 1.516 . S
C1944 C1945 1.502 . S
C1944 C1946 1.561 . S
C1944 C1947 1.526 . S
C1945 H1929 0.959 . S
C1945 H1930 0.959 . S
C1945 H1931 0.961 . S
C1945 C1944 1.502 . S
C1946 H1932 0.960 . S
C1946 H1933 0.961 . S
C1946 H1934 0.959 . S
C1946 C1944 1.561 . S
C1947 C1944 1.526 . S
C1947 C1948 1.396 . S
C1947 C1952 1.390 . S
C1948 C1942 1.465 . S
C1948 C1947 1.396 . S
C1948 C1949 1.399 . S
C1949 H1935 0.929 . S
C1949 C1948 1.399 . S
C1949 C1950 1.385 . S
C1950 H1936 0.931 . S
C1950 C1949 1.385 . S
C1950 C1951 1.389 . S
C1951 C1950 1.389 . S
C1951 C1952 1.387 . S
C1952 H1937 0.930 . S
C1952 C1947 1.390 . S
C1952 C1951 1.387 . S
H1953 C1965 0.930 . S
H1954 C1967 0.930 . S
H1955 C1968 0.930 . S
H1956 C1972 0.959 . S
H1957 C1972 0.959 . S
H1958 C1972 0.961 . S
H1959 C1973 0.960 . S
H1960 C1973 0.961 . S
H1961 C1973 0.959 . S
H1962 C1976 0.929 . S
H1963 C1977 0.931 . S
H1964 C1979 0.930 . S
C1965 H1953 0.930 . S
C1965 C1966 1.399 . S
C1965 C1970 1.399 . S
C1966 C1965 1.399 . S
C1966 C1967 1.376 . S
C1967 H1954 0.930 . S
C1967 C1966 1.376 . S
C1967 C1968 1.388 . S
C1968 H1955 0.930 . S
C1968 C1967 1.388 . S
C1968 C1969 1.390 . S
C1969 C1968 1.390 . S
C1969 C1970 1.394 . S
C1969 C1975 1.465 . S
C1970 C1965 1.399 . S
C1970 C1969 1.394 . S
C1970 C1971 1.516 . S
C1971 C1970 1.516 . S
C1971 C1972 1.502 . S
C1971 C1973 1.561 . S
C1971 C1974 1.526 . S
C1972 H1956 0.959 . S
C1972 H1957 0.959 . S
C1972 H1958 0.961 . S
C1972 C1971 1.502 . S
C1973 H1959 0.960 . S
C1973 H1960 0.961 . S
C1973 H1961 0.959 . S
C1973 C1971 1.561 . S
C1974 C1971 1.526 . S
C1974 C1975 1.396 . S
C1974 C1979 1.390 . S
C1975 C1969 1.465 . S
C1975 C1974 1.396 . S
C1975 C1976 1.399 . S
C1976 H1962 0.929 . S
C1976 C1975 1.399 . S
C1976 C1977 1.385 . S
C1977 H1963 0.931 . S
C1977 C1976 1.385 . S
C1977 C1978 1.389 . S
C1978 C1977 1.389 . S
C1978 C1979 1.387 . S
C1979 H1964 0.930 . S
C1979 C1974 1.390 . S
C1979 C1978 1.387 . S
C1021 C476 1.573 . S
C1033 C58 1.321 . S
C1048 C142 1.181 . S
C1060 C56 1.725 . S
C1075 C226 1.357 . S
C1087 C140 1.708 . S
C1102 C224 1.594 . S
C1114 C310 1.295 . S
C1129 C308 1.721 . S
C1141 C394 1.283 . S
C1156 C478 1.293 . S
C1168 C392 1.673 . S
C1183 C644 1.560 . S
C1195 C562 1.244 . S
C1210 C646 1.361 . S
C1222 C728 1.658 . S
C1237 C812 1.664 . S
C1249 C730 1.318 . S
C1264 C896 1.599 . S
C1276 C814 1.156 . S
C1291 C980 1.702 . S
C1303 C898 1.369 . S
C1318 C560 1.740 . S
C1330 C982 1.198 . S
C1345 C998 3.451 . S
C1357 C67 3.422 . S
C1372 C151 2.957 . S
C1384 C578 2.991 . S
C1399 C662 3.261 . S
C1411 C235 3.161 . S
C1426 C746 3.452 . S
C1438 C319 3.424 . S
C1453 C830 3.018 . S
C1465 C403 2.928 . S
C1480 C487 3.198 . S
C1492 C914 3.248 . S
C1507 C571 3.399 . S
C1519 C158 3.458 . S
C1534 C655 3.163 . S
C1546 C242 3.261 . S
C1561 C326 3.000 . S
C1573 C739 2.970 . S
C1588 C410 3.450 . S
C1600 C823 3.413 . S
C1615 C907 3.181 . S
C1627 C494 3.259 . S
C1642 C991 2.953 . S
C1654 C74 3.016 . S
C1669 C567 2.198 . S
C1681 C63 2.190 . S
C1696 C147 1.473 . S
C1708 C651 1.465 . S
C1723 C735 1.513 . S
C1735 C231 1.468 . S
C1750 C315 2.184 . S
C1762 C819 2.225 . S
C1777 C903 1.532 . S
C1789 C399 1.463 . S
C1804 C987 1.528 . S
C1816 C483 1.495 . S
C1831 C573 0.505 . S
C1843 C69 0.436 . S
C1858 C657 0.322 . S
C1870 C153 0.185 . S
C1885 C741 0.181 . S
C1897 C237 0.194 . S
C1912 C321 0.490 . S
C1924 C825 0.433 . S
C1939 C909 0.434 . S
C1951 C405 0.436 . S
C1966 C993 0.192 . S
C1978 C489 0.187 . S
