# Generated by pormake.
# Topology ull, (4)-cn, num edge types: 1
# Building blocks:
#     Node 0, Type 0, BuildingBlock: AZAVOO_clean_sbu_0, # of connection points: 4
#     Node 1, Type 0, BuildingBlock: AZAVOO_clean_sbu_0, # of connection points: 4
#     Node 2, Type 0, BuildingBlock: AZAVOO_clean_sbu_0, # of connection points: 4
#     Node 3, Type 0, BuildingBlock: AZAVOO_clean_sbu_0, # of connection points: 4
#     Node 4, Type 0, BuildingBlock: AZAVOO_clean_sbu_0, # of connection points: 4
#     Node 5, Type 0, BuildingBlock: AZAVOO_clean_sbu_0, # of connection points: 4
#     Node 6, Type 0, BuildingBlock: AZAVOO_clean_sbu_0, # of connection points: 4
#     Node 7, Type 0, BuildingBlock: AZAVOO_clean_sbu_0, # of connection points: 4
#     Node 8, Type 0, BuildingBlock: AZAVOO_clean_sbu_0, # of connection points: 4
#     Node 9, Type 0, BuildingBlock: AZAVOO_clean_sbu_0, # of connection points: 4
#     Node 10, Type 0, BuildingBlock: AZAVOO_clean_sbu_0, # of connection points: 4
#     Node 11, Type 0, BuildingBlock: AZAVOO_clean_sbu_0, # of connection points: 4
#     Node 12, Type 0, BuildingBlock: AZAVOO_clean_sbu_0, # of connection points: 4
#     Node 13, Type 0, BuildingBlock: AZAVOO_clean_sbu_0, # of connection points: 4
#     Node 14, Type 0, BuildingBlock: AZAVOO_clean_sbu_0, # of connection points: 4
#     Node 15, Type 0, BuildingBlock: AZAVOO_clean_sbu_0, # of connection points: 4
#     Node 16, Type 0, BuildingBlock: AZAVOO_clean_sbu_0, # of connection points: 4
#     Node 17, Type 0, BuildingBlock: AZAVOO_clean_sbu_0, # of connection points: 4
#     Node 18, Type 0, BuildingBlock: AZAVOO_clean_sbu_0, # of connection points: 4
#     Node 19, Type 0, BuildingBlock: AZAVOO_clean_sbu_0, # of connection points: 4
#     Node 20, Type 0, BuildingBlock: AZAVOO_clean_sbu_0, # of connection points: 4
#     Node 21, Type 0, BuildingBlock: AZAVOO_clean_sbu_0, # of connection points: 4
#     Node 22, Type 0, BuildingBlock: AZAVOO_clean_sbu_0, # of connection points: 4
#     Node 23, Type 0, BuildingBlock: AZAVOO_clean_sbu_0, # of connection points: 4
#     Node 24, Type 0, BuildingBlock: AZAVOO_clean_sbu_0, # of connection points: 4
#     Node 25, Type 0, BuildingBlock: AZAVOO_clean_sbu_0, # of connection points: 4
#     Node 26, Type 0, BuildingBlock: AZAVOO_clean_sbu_0, # of connection points: 4
#     Node 27, Type 0, BuildingBlock: AZAVOO_clean_sbu_0, # of connection points: 4
#     Node 28, Type 0, BuildingBlock: AZAVOO_clean_sbu_0, # of connection points: 4
#     Node 29, Type 0, BuildingBlock: AZAVOO_clean_sbu_0, # of connection points: 4
#     Node 30, Type 0, BuildingBlock: AZAVOO_clean_sbu_0, # of connection points: 4
#     Node 31, Type 0, BuildingBlock: AZAVOO_clean_sbu_0, # of connection points: 4
#     Node 32, Type 0, BuildingBlock: AZAVOO_clean_sbu_0, # of connection points: 4
#     Node 33, Type 0, BuildingBlock: AZAVOO_clean_sbu_0, # of connection points: 4
#     Node 34, Type 0, BuildingBlock: AZAVOO_clean_sbu_0, # of connection points: 4
#     Node 35, Type 0, BuildingBlock: AZAVOO_clean_sbu_0, # of connection points: 4
#     Node 36, Type 0, BuildingBlock: AZAVOO_clean_sbu_0, # of connection points: 4
#     Node 37, Type 0, BuildingBlock: AZAVOO_clean_sbu_0, # of connection points: 4
#     Node 38, Type 0, BuildingBlock: AZAVOO_clean_sbu_0, # of connection points: 4
#     Node 39, Type 0, BuildingBlock: AZAVOO_clean_sbu_0, # of connection points: 4
#     Node 40, Type 0, BuildingBlock: AZAVOO_clean_sbu_0, # of connection points: 4
#     Node 41, Type 0, BuildingBlock: AZAVOO_clean_sbu_0, # of connection points: 4
#     Node 42, Type 0, BuildingBlock: AZAVOO_clean_sbu_0, # of connection points: 4
#     Node 43, Type 0, BuildingBlock: AZAVOO_clean_sbu_0, # of connection points: 4
#     Node 44, Type 0, BuildingBlock: AZAVOO_clean_sbu_0, # of connection points: 4
#     Node 45, Type 0, BuildingBlock: AZAVOO_clean_sbu_0, # of connection points: 4
#     Node 46, Type 0, BuildingBlock: AZAVOO_clean_sbu_0, # of connection points: 4
#     Node 47, Type 0, BuildingBlock: AZAVOO_clean_sbu_0, # of connection points: 4
#     Edge 48, Type (0, 0), BuildingBlock: KIFKEQ_clean_linker_1, # of connection points: 2
#     Edge 49, Type (0, 0), BuildingBlock: KIFKEQ_clean_linker_1, # of connection points: 2
#     Edge 50, Type (0, 0), BuildingBlock: KIFKEQ_clean_linker_1, # of connection points: 2
#     Edge 51, Type (0, 0), BuildingBlock: KIFKEQ_clean_linker_1, # of connection points: 2
#     Edge 52, Type (0, 0), BuildingBlock: KIFKEQ_clean_linker_1, # of connection points: 2
#     Edge 53, Type (0, 0), BuildingBlock: KIFKEQ_clean_linker_1, # of connection points: 2
#     Edge 54, Type (0, 0), BuildingBlock: KIFKEQ_clean_linker_1, # of connection points: 2
#     Edge 55, Type (0, 0), BuildingBlock: KIFKEQ_clean_linker_1, # of connection points: 2
#     Edge 56, Type (0, 0), BuildingBlock: KIFKEQ_clean_linker_1, # of connection points: 2
#     Edge 57, Type (0, 0), BuildingBlock: KIFKEQ_clean_linker_1, # of connection points: 2
#     Edge 58, Type (0, 0), BuildingBlock: KIFKEQ_clean_linker_1, # of connection points: 2
#     Edge 59, Type (0, 0), BuildingBlock: KIFKEQ_clean_linker_1, # of connection points: 2
#     Edge 60, Type (0, 0), BuildingBlock: KIFKEQ_clean_linker_1, # of connection points: 2
#     Edge 61, Type (0, 0), BuildingBlock: KIFKEQ_clean_linker_1, # of connection points: 2
#     Edge 62, Type (0, 0), BuildingBlock: KIFKEQ_clean_linker_1, # of connection points: 2
#     Edge 63, Type (0, 0), BuildingBlock: KIFKEQ_clean_linker_1, # of connection points: 2
#     Edge 64, Type (0, 0), BuildingBlock: KIFKEQ_clean_linker_1, # of connection points: 2
#     Edge 65, Type (0, 0), BuildingBlock: KIFKEQ_clean_linker_1, # of connection points: 2
#     Edge 66, Type (0, 0), BuildingBlock: KIFKEQ_clean_linker_1, # of connection points: 2
#     Edge 67, Type (0, 0), BuildingBlock: KIFKEQ_clean_linker_1, # of connection points: 2
#     Edge 68, Type (0, 0), BuildingBlock: KIFKEQ_clean_linker_1, # of connection points: 2
#     Edge 69, Type (0, 0), BuildingBlock: KIFKEQ_clean_linker_1, # of connection points: 2
#     Edge 70, Type (0, 0), BuildingBlock: KIFKEQ_clean_linker_1, # of connection points: 2
#     Edge 71, Type (0, 0), BuildingBlock: KIFKEQ_clean_linker_1, # of connection points: 2
#     Edge 72, Type (0, 0), BuildingBlock: KIFKEQ_clean_linker_1, # of connection points: 2
#     Edge 73, Type (0, 0), BuildingBlock: KIFKEQ_clean_linker_1, # of connection points: 2
#     Edge 74, Type (0, 0), BuildingBlock: KIFKEQ_clean_linker_1, # of connection points: 2
#     Edge 75, Type (0, 0), BuildingBlock: KIFKEQ_clean_linker_1, # of connection points: 2
#     Edge 76, Type (0, 0), BuildingBlock: KIFKEQ_clean_linker_1, # of connection points: 2
#     Edge 77, Type (0, 0), BuildingBlock: KIFKEQ_clean_linker_1, # of connection points: 2
#     Edge 78, Type (0, 0), BuildingBlock: KIFKEQ_clean_linker_1, # of connection points: 2
#     Edge 79, Type (0, 0), BuildingBlock: KIFKEQ_clean_linker_1, # of connection points: 2
#     Edge 80, Type (0, 0), BuildingBlock: KIFKEQ_clean_linker_1, # of connection points: 2
#     Edge 81, Type (0, 0), BuildingBlock: KIFKEQ_clean_linker_1, # of connection points: 2
#     Edge 82, Type (0, 0), BuildingBlock: KIFKEQ_clean_linker_1, # of connection points: 2
#     Edge 83, Type (0, 0), BuildingBlock: KIFKEQ_clean_linker_1, # of connection points: 2
#     Edge 84, Type (0, 0), BuildingBlock: KIFKEQ_clean_linker_1, # of connection points: 2
#     Edge 85, Type (0, 0), BuildingBlock: KIFKEQ_clean_linker_1, # of connection points: 2
#     Edge 86, Type (0, 0), BuildingBlock: KIFKEQ_clean_linker_1, # of connection points: 2
#     Edge 87, Type (0, 0), BuildingBlock: KIFKEQ_clean_linker_1, # of connection points: 2
#     Edge 88, Type (0, 0), BuildingBlock: KIFKEQ_clean_linker_1, # of connection points: 2
#     Edge 89, Type (0, 0), BuildingBlock: KIFKEQ_clean_linker_1, # of connection points: 2
#     Edge 90, Type (0, 0), BuildingBlock: KIFKEQ_clean_linker_1, # of connection points: 2
#     Edge 91, Type (0, 0), BuildingBlock: KIFKEQ_clean_linker_1, # of connection points: 2
#     Edge 92, Type (0, 0), BuildingBlock: KIFKEQ_clean_linker_1, # of connection points: 2
#     Edge 93, Type (0, 0), BuildingBlock: KIFKEQ_clean_linker_1, # of connection points: 2
#     Edge 94, Type (0, 0), BuildingBlock: KIFKEQ_clean_linker_1, # of connection points: 2
#     Edge 95, Type (0, 0), BuildingBlock: KIFKEQ_clean_linker_1, # of connection points: 2
#     Edge 96, Type (0, 0), BuildingBlock: KIFKEQ_clean_linker_1, # of connection points: 2
#     Edge 97, Type (0, 0), BuildingBlock: KIFKEQ_clean_linker_1, # of connection points: 2
#     Edge 98, Type (0, 0), BuildingBlock: KIFKEQ_clean_linker_1, # of connection points: 2
#     Edge 99, Type (0, 0), BuildingBlock: KIFKEQ_clean_linker_1, # of connection points: 2
#     Edge 100, Type (0, 0), BuildingBlock: KIFKEQ_clean_linker_1, # of connection points: 2
#     Edge 101, Type (0, 0), BuildingBlock: KIFKEQ_clean_linker_1, # of connection points: 2
#     Edge 102, Type (0, 0), BuildingBlock: KIFKEQ_clean_linker_1, # of connection points: 2
#     Edge 103, Type (0, 0), BuildingBlock: KIFKEQ_clean_linker_1, # of connection points: 2
#     Edge 104, Type (0, 0), BuildingBlock: KIFKEQ_clean_linker_1, # of connection points: 2
#     Edge 105, Type (0, 0), BuildingBlock: KIFKEQ_clean_linker_1, # of connection points: 2
#     Edge 106, Type (0, 0), BuildingBlock: KIFKEQ_clean_linker_1, # of connection points: 2
#     Edge 107, Type (0, 0), BuildingBlock: KIFKEQ_clean_linker_1, # of connection points: 2
#     Edge 108, Type (0, 0), BuildingBlock: KIFKEQ_clean_linker_1, # of connection points: 2
#     Edge 109, Type (0, 0), BuildingBlock: KIFKEQ_clean_linker_1, # of connection points: 2
#     Edge 110, Type (0, 0), BuildingBlock: KIFKEQ_clean_linker_1, # of connection points: 2
#     Edge 111, Type (0, 0), BuildingBlock: KIFKEQ_clean_linker_1, # of connection points: 2
#     Edge 112, Type (0, 0), BuildingBlock: KIFKEQ_clean_linker_1, # of connection points: 2
#     Edge 113, Type (0, 0), BuildingBlock: KIFKEQ_clean_linker_1, # of connection points: 2
#     Edge 114, Type (0, 0), BuildingBlock: KIFKEQ_clean_linker_1, # of connection points: 2
#     Edge 115, Type (0, 0), BuildingBlock: KIFKEQ_clean_linker_1, # of connection points: 2
#     Edge 116, Type (0, 0), BuildingBlock: KIFKEQ_clean_linker_1, # of connection points: 2
#     Edge 117, Type (0, 0), BuildingBlock: KIFKEQ_clean_linker_1, # of connection points: 2
#     Edge 118, Type (0, 0), BuildingBlock: KIFKEQ_clean_linker_1, # of connection points: 2
#     Edge 119, Type (0, 0), BuildingBlock: KIFKEQ_clean_linker_1, # of connection points: 2
#     Edge 120, Type (0, 0), BuildingBlock: KIFKEQ_clean_linker_1, # of connection points: 2
#     Edge 121, Type (0, 0), BuildingBlock: KIFKEQ_clean_linker_1, # of connection points: 2
#     Edge 122, Type (0, 0), BuildingBlock: KIFKEQ_clean_linker_1, # of connection points: 2
#     Edge 123, Type (0, 0), BuildingBlock: KIFKEQ_clean_linker_1, # of connection points: 2
#     Edge 124, Type (0, 0), BuildingBlock: KIFKEQ_clean_linker_1, # of connection points: 2
#     Edge 125, Type (0, 0), BuildingBlock: KIFKEQ_clean_linker_1, # of connection points: 2
#     Edge 126, Type (0, 0), BuildingBlock: KIFKEQ_clean_linker_1, # of connection points: 2
#     Edge 127, Type (0, 0), BuildingBlock: KIFKEQ_clean_linker_1, # of connection points: 2
#     Edge 128, Type (0, 0), BuildingBlock: KIFKEQ_clean_linker_1, # of connection points: 2
#     Edge 129, Type (0, 0), BuildingBlock: KIFKEQ_clean_linker_1, # of connection points: 2
#     Edge 130, Type (0, 0), BuildingBlock: KIFKEQ_clean_linker_1, # of connection points: 2
#     Edge 131, Type (0, 0), BuildingBlock: KIFKEQ_clean_linker_1, # of connection points: 2
#     Edge 132, Type (0, 0), BuildingBlock: KIFKEQ_clean_linker_1, # of connection points: 2
#     Edge 133, Type (0, 0), BuildingBlock: KIFKEQ_clean_linker_1, # of connection points: 2
#     Edge 134, Type (0, 0), BuildingBlock: KIFKEQ_clean_linker_1, # of connection points: 2
#     Edge 135, Type (0, 0), BuildingBlock: KIFKEQ_clean_linker_1, # of connection points: 2
#     Edge 136, Type (0, 0), BuildingBlock: KIFKEQ_clean_linker_1, # of connection points: 2
#     Edge 137, Type (0, 0), BuildingBlock: KIFKEQ_clean_linker_1, # of connection points: 2
#     Edge 138, Type (0, 0), BuildingBlock: KIFKEQ_clean_linker_1, # of connection points: 2
#     Edge 139, Type (0, 0), BuildingBlock: KIFKEQ_clean_linker_1, # of connection points: 2
#     Edge 140, Type (0, 0), BuildingBlock: KIFKEQ_clean_linker_1, # of connection points: 2
#     Edge 141, Type (0, 0), BuildingBlock: KIFKEQ_clean_linker_1, # of connection points: 2
#     Edge 142, Type (0, 0), BuildingBlock: KIFKEQ_clean_linker_1, # of connection points: 2
#     Edge 143, Type (0, 0), BuildingBlock: KIFKEQ_clean_linker_1, # of connection points: 2
# Relax obj value: 0.231
# Max RMSD: 0.269
# Mean RMSD: 0.256
data_MOF--net-ull--node1-AZAVOO_clean_sbu_0--edge1-KIFKEQ_clean_linker_1
_symmetry_space_group_name_H-M    P1
_symmetry_Int_Tables_number       1
_symmetry_cell_setting            triclinic
loop_
_symmetry_equiv_pos_as_xyz
'x, y, z'
_cell_length_a     58.895084
_cell_length_b     60.973367
_cell_length_c     60.953987
_cell_angle_alpha  90.043353
_cell_angle_beta   90.005055
_cell_angle_gamma 89.993164
loop_
_atom_site_label
_atom_site_type_symbol
_atom_site_fract_x
_atom_site_fract_y
_atom_site_fract_z
_atom_type_partial_charge
Mg0 Mg 0.02977 0.33988 0.17072 0.0
O1 O 0.99712 0.34307 0.15003 0.0
O2 O 0.96895 0.34867 0.17397 0.0
Mg3 Mg 0.9825 0.3476 0.20894 0.0
C4 C 0.97617 0.34651 0.15434 0.0
C5 C 0.05291 0.33048 0.12547 0.0
O6 O 0.03905 0.31362 0.12626 0.0
O7 O 0.02991 0.37666 0.17801 0.0
O8 O 0.00241 0.37936 0.2031 0.0
O9 O 0.02496 0.30349 0.17371 0.0
O10 O 0.01107 0.32779 0.19692 0.0
C11 C 0.01834 0.3879 0.19173 0.0
C12 C 0.01293 0.3076 0.19101 0.0
O13 O 0.05232 0.34461 0.14078 0.0
Mg14 Mg 0.61331 0.97481 0.17523 0.0
O15 O 0.65032 0.97568 0.18677 0.0
O16 O 0.67317 0.96619 0.15895 0.0
Mg17 Mg 0.65046 0.96055 0.12901 0.0
C18 C 0.67006 0.97208 0.17883 0.0
C19 C 0.58326 0.98838 0.21538 0.0
O20 O 0.57024 0.97291 0.20717 0.0
O21 O 0.61925 0.00748 0.15783 0.0
O22 O 0.64098 0.99703 0.12967 0.0
O23 O 0.61029 0.93864 0.18255 0.0
O24 O 0.62231 0.9526 0.15118 0.0
C25 C 0.63034 0.01184 0.14037 0.0
C26 C 0.61863 0.93561 0.16314 0.0
O27 O 0.60211 0.9926 0.20615 0.0
Mg28 Mg 0.95036 0.66373 0.16938 0.0
O29 O 0.98516 0.66155 0.15252 0.0
O30 O 0.01119 0.6564 0.17875 0.0
Mg31 Mg 0.99346 0.65629 0.21202 0.0
C32 C 0.0057 0.65867 0.15863 0.0
C33 C 0.91341 0.66995 0.13582 0.0
O34 O 0.90667 0.68105 0.15313 0.0
O35 O 0.95004 0.62671 0.17581 0.0
O36 O 0.97582 0.6242 0.20267 0.0
O37 O 0.95519 0.70003 0.17346 0.0
O38 O 0.96527 0.67502 0.19783 0.0
C39 C 0.96123 0.61548 0.18984 0.0
C40 C 0.9647 0.69527 0.19201 0.0
O41 O 0.93228 0.65989 0.13671 0.0
Mg42 Mg 0.38728 0.01555 0.16481 0.0
O43 O 0.35183 0.01772 0.18007 0.0
O44 O 0.32679 0.02867 0.15471 0.0
Mg45 Mg 0.34624 0.03194 0.12251 0.0
C46 C 0.33167 0.02279 0.17424 0.0
C47 C 0.41742 0.00485 0.20575 0.0
O48 O 0.42817 0.02242 0.19887 0.0
O49 O 0.37715 0.98312 0.14877 0.0
O50 O 0.35258 0.99478 0.12329 0.0
O51 O 0.39379 0.05154 0.1706 0.0
O52 O 0.37761 0.03752 0.14098 0.0
C53 C 0.36339 0.9794 0.13299 0.0
C54 C 0.38386 0.05448 0.15189 0.0
O55 O 0.40014 -0.00191 0.19524 0.0
Mg56 Mg 0.04233 0.65039 0.82441 0.0
O57 O 0.00718 0.65116 0.84074 0.0
O58 O 0.98134 0.65009 0.81394 0.0
Mg59 Mg 0.99962 0.64845 0.78092 0.0
C60 C 0.98656 0.65106 0.83425 0.0
C61 C 0.05727 0.65745 0.87288 0.0
O62 O 0.04345 0.67421 0.87057 0.0
O63 O 0.03887 0.61373 0.81695 0.0
O64 O 0.01381 0.61445 0.7894 0.0
O65 O 0.04138 0.6871 0.82129 0.0
O66 O 0.02944 0.66385 0.79593 0.0
C67 C 0.02712 0.60398 0.80223 0.0
C68 C 0.03203 0.68376 0.80236 0.0
O69 O 0.05947 0.64395 0.85714 0.0
Mg70 Mg 0.39419 0.98356 0.81177 0.0
O71 O 0.3562 0.98175 0.80465 0.0
O72 O 0.33742 0.96898 0.83385 0.0
Mg73 Mg 0.36405 0.96543 0.86106 0.0
C74 C 0.33784 0.97592 0.81411 0.0
C75 C 0.4125 0.99468 0.76507 0.0
O76 O 0.42274 0.97579 0.76814 0.0
O77 O 0.3882 0.01544 0.83063 0.0
O78 O 0.37001 0.00274 0.8602 0.0
O79 O 0.39795 0.94791 0.80306 0.0
O80 O 0.3908 0.96059 0.83642 0.0
C81 C 0.37841 0.01857 0.84908 0.0
C82 C 0.39346 0.94416 0.82349 0.0
O83 O 0.39947 0.00212 0.77994 0.0
Mg84 Mg 0.96273 0.33507 0.82729 0.0
O85 O 0.99642 0.33675 0.84648 0.0
O86 O 0.02374 0.34129 0.82143 0.0
Mg87 Mg 0.0084 0.34185 0.7872 0.0
C88 C 0.01731 0.33921 0.84132 0.0
C89 C 0.9234 0.32855 0.85758 0.0
O90 O 0.91886 0.31694 0.83995 0.0
O91 O 0.96363 0.37194 0.8211 0.0
O92 O 0.99054 0.37425 0.79535 0.0
O93 O 0.9662 0.29878 0.82357 0.0
O94 O 0.97952 0.32306 0.79999 0.0
C95 C 0.97546 0.38309 0.80755 0.0
C96 C 0.97742 0.30286 0.80577 0.0
O97 O 0.94193 0.33921 0.85831 0.0
Mg98 Mg 0.60329 0.01749 0.82885 0.0
O99 O 0.64008 0.01844 0.8169 0.0
O100 O 0.66308 0.02932 0.84401 0.0
Mg101 Mg 0.64066 0.03348 0.87432 0.0
C102 C 0.65979 0.02314 0.82426 0.0
C103 C 0.57762 0.00666 0.78498 0.0
O104 O 0.5667 0.02474 0.7901 0.0
O105 O 0.61084 0.98507 0.84611 0.0
O106 O 0.63343 0.99644 0.87337 0.0
O107 O 0.5988 0.05355 0.82195 0.0
O108 O 0.61112 0.03957 0.85328 0.0
C109 C 0.62305 0.98121 0.863 0.0
C110 C 0.60671 0.0565 0.84154 0.0
O111 O 0.59327 -0.00024 0.79757 0.0
Mg112 Mg 0.1925 0.03895 0.32686 0.0
O113 O 0.17338 0.00653 0.3275 0.0
O114 O 0.19874 0.97949 0.33034 0.0
Mg115 Mg 0.23435 0.99463 0.32891 0.0
C116 C 0.17825 0.98624 0.32927 0.0
C117 C 0.15592 0.07407 0.32219 0.0
O118 O 0.17124 0.07982 0.30761 0.0
O119 O 0.20111 0.03556 0.36314 0.0
O120 O 0.22908 0.01071 0.36263 0.0
O121 O 0.19525 0.03782 0.29023 0.0
O122 O 0.2207 0.02421 0.31305 0.0
C123 C 0.21659 0.02449 0.37285 0.0
C124 C 0.21434 0.02769 0.29319 0.0
O125 O 0.15951 0.05715 0.33382 0.0
Mg126 Mg 0.96114 0.17663 0.34057 0.0
O127 O 0.99734 0.16221 0.33937 0.0
O128 O 0.02113 0.19078 0.33988 0.0
Mg129 Mg 0.0011 0.22267 0.3412 0.0
C130 C 0.01744 0.17016 0.33927 0.0
C131 C 0.9469 0.12776 0.33399 0.0
O132 O 0.95914 0.13059 0.31619 0.0
O133 O 0.96518 0.18461 0.37703 0.0
O134 O 0.98833 0.21363 0.37553 0.0
O135 O 0.96042 0.17956 0.3038 0.0
O136 O 0.97236 0.20545 0.32629 0.0
C137 C 0.97622 0.20005 0.38639 0.0
C138 C 0.96919 0.19884 0.3065 0.0
O139 O 0.94561 0.14326 0.34788 0.0
Mg140 Mg 0.8142 0.95687 0.32512 0.0
O141 O 0.83315 0.98932 0.32831 0.0
O142 O 0.80736 0.0158 0.33261 0.0
Mg143 Mg 0.77185 0.00072 0.32871 0.0
C144 C 0.82798 0.00938 0.3315 0.0
C145 C 0.84967 0.92051 0.32104 0.0
O146 O 0.83372 0.91439 0.30726 0.0
O147 O 0.80439 0.95779 0.36142 0.0
O148 O 0.7754 0.98161 0.3609 0.0
O149 O 0.81205 0.96003 0.28834 0.0
O150 O 0.78635 0.97238 0.31151 0.0
C151 C 0.78774 0.96749 0.37079 0.0
C152 C 0.79286 0.96989 0.29157 0.0
O153 O 0.84694 0.93815 0.33184 0.0
Mg154 Mg 0.04533 0.82003 0.33362 0.0
O155 O 0.00869 0.83311 0.33477 0.0
O156 O 0.98569 0.80397 0.33471 0.0
Mg157 Mg 0.00713 0.77278 0.33423 0.0
C158 C 0.98882 0.82469 0.33492 0.0
C159 C 0.05801 0.8694 0.32816 0.0
O160 O 0.04588 0.86675 0.31027 0.0
O161 O 0.04364 0.81056 0.36983 0.0
O162 O 0.02093 0.78119 0.36842 0.0
O163 O 0.04343 0.81881 0.29683 0.0
O164 O 0.03476 0.79131 0.31894 0.0
C165 C 0.03329 0.79468 0.37915 0.0
C166 C 0.03598 0.79901 0.29937 0.0
O167 O 0.05968 0.85361 0.34165 0.0
Mg168 Mg 0.1906 0.94629 0.67213 0.0
O169 O 0.17178 0.97901 0.66963 0.0
O170 O 0.19784 0.0053 0.66564 0.0
Mg171 Mg 0.23317 0.98992 0.66787 0.0
C172 C 0.17717 -0.00092 0.66682 0.0
C173 C 0.13997 0.93058 0.67696 0.0
O174 O 0.14043 0.94479 0.69316 0.0
O175 O 0.19928 0.9479 0.63568 0.0
O176 O 0.22723 0.97274 0.63488 0.0
O177 O 0.19365 0.94915 0.7089 0.0
O178 O 0.21883 0.96156 0.68522 0.0
C179 C 0.21457 0.95862 0.62534 0.0
C180 C 0.2127 0.95914 0.70529 0.0
O181 O 0.15768 0.92785 0.66535 0.0
Mg182 Mg 0.04305 0.16734 0.6649 0.0
O183 O 0.00769 0.15107 0.66146 0.0
O184 O 0.98342 0.17876 0.65599 0.0
Mg185 Mg 0.00178 0.21144 0.65628 0.0
C186 C 0.98759 0.15832 0.65807 0.0
C187 C 0.05683 0.11637 0.65454 0.0
O188 O 0.03684 0.11333 0.64549 0.0
O189 O 0.04451 0.1734 0.62791 0.0
O190 O 0.01997 0.20123 0.62472 0.0
O191 O 0.03818 0.17159 0.70105 0.0
O192 O 0.02821 0.19597 0.67611 0.0
C193 C 0.03418 0.18778 0.61638 0.0
C194 C 0.02885 0.19023 0.69641 0.0
O195 O 0.06205 0.13505 0.66229 0.0
Mg196 Mg 0.80805 0.0364 0.67957 0.0
O197 O 0.82452 0.00271 0.67858 0.0
O198 O 0.79758 0.97744 0.67386 0.0
Mg199 Mg 0.76316 0.99515 0.67457 0.0
C200 C 0.81842 0.98283 0.67597 0.0
C201 C 0.84625 0.06589 0.65918 0.0
O202 O 0.82926 0.07166 0.64647 0.0
O203 O 0.80046 0.03457 0.64292 0.0
O204 O 0.77067 0.01186 0.64155 0.0
O205 O 0.80368 0.03448 0.71606 0.0
O206 O 0.77825 0.02337 0.69189 0.0
C207 C 0.78454 0.02507 0.63229 0.0
C208 C 0.78402 0.0258 0.71208 0.0
O209 O 0.84289 0.05181 0.67419 0.0
Mg210 Mg 0.95295 0.81518 0.66444 0.0
O211 O 0.98798 0.83184 0.66333 0.0
O212 O 0.01387 0.80525 0.66005 0.0
Mg213 Mg 0.99584 0.77212 0.65889 0.0
C214 C 0.00859 0.8255 0.66173 0.0
C215 C 0.93604 0.86272 0.67403 0.0
O216 O 0.94911 0.85983 0.69126 0.0
O217 O 0.95417 0.80863 0.6275 0.0
O218 O 0.97955 0.78139 0.626 0.0
O219 O 0.95628 0.81116 0.70099 0.0
O220 O 0.96706 0.78661 0.67642 0.0
C221 C 0.96549 0.79437 0.61668 0.0
C222 C 0.96565 0.79245 0.69662 0.0
O223 O 0.93502 0.84777 0.65954 0.0
Mg224 Mg 0.39305 0.16671 0.97987 0.0
O225 O 0.35758 0.18187 0.9779 0.0
O226 O 0.33181 0.15563 0.97157 0.0
Mg227 Mg 0.35114 0.1231 0.97047 0.0
C228 C 0.3371 0.17566 0.97489 0.0
C229 C 0.42659 0.20576 0.99071 0.0
O230 O 0.44011 0.19499 0.97736 0.0
O231 O 0.3843 0.15465 0.01419 0.0
O232 O 0.35964 0.12772 0.00702 0.0
O233 O 0.39801 0.16824 0.94315 0.0
O234 O 0.38209 0.14071 0.96098 0.0
C235 C 0.37113 0.13929 0.02055 0.0
C236 C 0.38779 0.14944 0.94264 0.0
O237 O 0.40669 0.19852 0.99418 0.0
Mg238 Mg 0.37959 0.83484 0.99313 0.0
O239 O 0.3435 0.82127 0.99508 0.0
O240 O 0.31843 0.84877 0.99693 0.0
Mg241 Mg 0.33896 0.88039 0.99406 0.0
C242 C 0.32317 0.82836 0.9965 0.0
C243 C 0.4093 0.79164 0.99377 0.0
O244 O 0.41977 0.80195 0.00977 0.0
O245 O 0.37394 0.84266 0.957 0.0
O246 O 0.34959 0.87072 0.95906 0.0
O247 O 0.38166 0.8378 0.02985 0.0
O248 O 0.36908 0.86381 0.0078 0.0
C249 C 0.36167 0.85733 0.9479 0.0
C250 C 0.37299 0.85719 0.02747 0.0
O251 O 0.3925 0.80078 0.9844 0.0
Mg252 Mg 0.19675 0.32781 0.96377 0.0
O253 O 0.17751 0.32835 0.99607 0.0
O254 O 0.20226 0.33145 0.02355 0.0
Mg255 Mg 0.23804 0.33015 0.00843 0.0
C256 C 0.18191 0.33015 0.01644 0.0
C257 C 0.1463 0.32356 0.94818 0.0
O258 O 0.14712 0.30668 0.96154 0.0
O259 O 0.20531 0.364 0.96716 0.0
O260 O 0.2332 0.3639 0.99208 0.0
O261 O 0.19963 0.29119 0.96468 0.0
O262 O 0.22493 0.31404 0.97856 0.0
C263 C 0.22075 0.37389 0.97809 0.0
C264 C 0.21873 0.29417 0.97481 0.0
O265 O 0.16389 0.33539 0.94574 0.0
Mg266 Mg 0.60593 0.16377 0.01525 0.0
O267 O 0.64017 0.18167 0.01795 0.0
O268 O 0.66755 0.15631 0.02023 0.0
Mg269 Mg 0.65096 0.12249 0.02056 0.0
C270 C 0.66112 0.17629 0.01931 0.0
C271 C 0.59202 0.21433 0.00809 0.0
O272 O 0.60813 0.2189 0.02228 0.0
O273 O 0.6146 0.15436 0.97999 0.0
O274 O 0.64056 0.12804 0.98468 0.0
O275 O 0.60151 0.16284 0.05195 0.0
O276 O 0.61961 0.13787 0.03232 0.0
C277 C 0.62806 0.13986 0.97227 0.0
C278 C 0.61345 0.14503 0.05123 0.0
O279 O 0.58794 0.19448 0.0031 0.0
Mg280 Mg 0.8031 0.67566 0.95009 0.0
O281 O 0.81822 0.67176 0.98454 0.0
O282 O 0.78892 0.66809 0.00758 0.0
Mg283 Mg 0.75562 0.67169 0.98871 0.0
C284 C 0.81025 0.66884 0.00381 0.0
C285 C 0.85537 0.67763 0.93713 0.0
O286 O 0.85562 0.69434 0.95075 0.0
O287 O 0.79277 0.63976 0.94969 0.0
O288 O 0.7619 0.63905 0.97096 0.0
O289 O 0.80197 0.71233 0.95342 0.0
O290 O 0.77439 0.68996 0.96342 0.0
C291 C 0.77589 0.62961 0.95803 0.0
C292 C 0.78215 0.70963 0.96224 0.0
O293 O 0.83696 0.66719 0.93411 0.0
Mg294 Mg 0.60444 0.82637 0.99376 0.0
O295 O 0.64088 0.81442 0.98844 0.0
O296 O 0.66494 0.84271 0.9891 0.0
Mg297 Mg 0.64353 0.87309 0.99598 0.0
C298 C 0.66094 0.82224 0.98711 0.0
C299 C 0.57592 0.78204 0.99183 0.0
O300 O 0.56317 0.79301 0.97796 0.0
O301 O 0.61145 0.83077 0.03035 0.0
O302 O 0.63558 0.85916 0.0301 0.0
O303 O 0.60062 0.83308 0.95764 0.0
O304 O 0.61321 0.85703 0.98195 0.0
C305 C 0.6243 0.84442 0.04024 0.0
C306 C 0.60875 0.85238 0.96183 0.0
O307 O 0.59343 0.79117 -0.00011 0.0
Mg308 Mg 0.19045 0.67644 0.0424 0.0
O309 O 0.17192 0.6707 0.00993 0.0
O310 O 0.19775 0.66623 0.98349 0.0
Mg311 Mg 0.23298 0.67036 -0.0011 0.0
C312 C 0.17713 0.66701 0.98994 0.0
C313 C 0.13834 0.67604 0.05561 0.0
O314 O 0.13594 0.68629 0.03681 0.0
O315 O 0.20041 0.6404 0.04348 0.0
O316 O 0.22805 0.63845 0.01837 0.0
O317 O 0.19166 0.71276 0.03654 0.0
O318 O 0.21802 0.68927 0.02599 0.0
C319 C 0.21583 0.62969 0.03332 0.0
C320 C 0.21081 0.70914 0.02673 0.0
O321 O 0.15802 0.67014 0.06183 0.0
Mg322 Mg 0.79733 0.33342 0.03294 0.0
O323 O 0.81393 0.3324 -0.00082 0.0
O324 O 0.78639 0.33387 0.97405 0.0
Mg325 Mg 0.75212 0.33346 0.99174 0.0
C326 C 0.80738 0.33308 0.97924 0.0
C327 C 0.84874 0.33013 0.04639 0.0
O328 O 0.84737 0.31228 0.03438 0.0
O329 O 0.78845 0.36929 0.02816 0.0
O330 O 0.75856 0.36807 0.00558 0.0
O331 O 0.79495 0.29688 0.03426 0.0
O332 O 0.76833 0.31846 0.02069 0.0
C333 C 0.77229 0.37872 0.01785 0.0
C334 C 0.77533 0.29891 0.02486 0.0
O335 O 0.83128 0.34221 0.04855 0.0
Mg336 Mg 0.53611 0.83749 0.67385 0.0
O337 O 0.50301 0.83953 0.65391 0.0
O338 O 0.47475 0.84382 0.67799 0.0
Mg339 Mg 0.48915 0.84368 0.71267 0.0
C340 C 0.48195 0.84197 0.65832 0.0
C341 C 0.5554 0.83042 0.62661 0.0
O342 O 0.54001 0.81481 0.62679 0.0
O343 O 0.53502 0.87419 0.68096 0.0
O344 O 0.50751 0.87619 0.70612 0.0
O345 O 0.53254 0.80105 0.67692 0.0
O346 O 0.5185 0.82498 0.70048 0.0
C347 C 0.52303 0.88515 0.69455 0.0
C348 C 0.52082 0.80486 0.69449 0.0
O349 O 0.55732 0.84288 0.64322 0.0
Mg350 Mg 0.11345 0.48601 0.668 0.0
O351 O 0.14933 0.4819 0.6818 0.0
O352 O 0.17482 0.48316 0.65475 0.0
Mg353 Mg 0.1548 0.48819 0.62309 0.0
C354 C 0.16983 0.48135 0.67503 0.0
C355 C 0.08163 0.48673 0.7103 0.0
O356 O 0.06818 0.47447 0.69824 0.0
O357 O 0.11975 0.52261 0.66303 0.0
O358 O 0.14494 0.52245 0.6355 0.0
O359 O 0.11052 0.44971 0.66151 0.0
O360 O 0.12395 0.47389 0.63795 0.0
C361 C 0.13273 0.53258 0.64956 0.0
C362 C 0.11929 0.4538 0.64245 0.0
O363 O 0.10066 0.49278 0.70256 0.0
Mg364 Mg 0.46103 0.16908 0.66624 0.0
O365 O 0.4954 0.16647 0.64843 0.0
O366 O 0.52117 0.15731 0.67381 0.0
Mg367 Mg 0.50428 0.15632 0.70741 0.0
C368 C 0.51569 0.16155 0.65401 0.0
C369 C 0.42484 0.18096 0.63311 0.0
O370 O 0.42043 0.19353 0.65011 0.0
O371 O 0.45898 0.13191 0.66994 0.0
O372 O 0.48432 0.12594 0.6966 0.0
O373 O 0.46683 0.20467 0.67284 0.0
O374 O 0.47727 0.17791 0.69504 0.0
C375 C 0.46922 0.11907 0.68321 0.0
C376 C 0.47674 0.19857 0.69079 0.0
O377 O 0.44181 0.16814 0.63399 0.0
Mg378 Mg 0.90774 0.52323 0.67648 0.0
O379 O 0.86962 0.52442 0.68318 0.0
O380 O 0.85108 0.53619 0.65347 0.0
Mg381 Mg 0.87816 0.54201 0.6271 0.0
C382 C 0.85123 0.52941 0.67328 0.0
C383 C 0.92809 0.50999 0.72166 0.0
O384 O 0.94028 0.52757 0.71755 0.0
O385 O 0.90232 0.49159 0.65676 0.0
O386 O 0.88493 0.505 0.62705 0.0
O387 O 0.91064 0.55873 0.68614 0.0
O388 O 0.90421 0.54666 0.65241 0.0
C389 C 0.89312 0.48893 0.63794 0.0
C390 C 0.90625 0.56284 0.66576 0.0
O391 O 0.91304 0.50406 0.70795 0.0
Mg392 Mg 0.54303 0.15946 0.32678 0.0
O393 O 0.50885 0.15797 0.34535 0.0
O394 O 0.48189 0.15634 0.31953 0.0
Mg395 Mg 0.49781 0.15832 0.28549 0.0
C396 C 0.48798 0.15669 0.33964 0.0
C397 C 0.56179 0.16374 0.37425 0.0
O398 O 0.54722 0.18005 0.37406 0.0
O399 O 0.54013 0.12338 0.31727 0.0
O400 O 0.51427 0.12452 0.29046 0.0
O401 O 0.54202 0.19613 0.32609 0.0
O402 O 0.52691 0.17467 0.30075 0.0
C403 C 0.52855 0.114 0.30224 0.0
C404 C 0.53022 0.19412 0.3083 0.0
O405 O 0.56318 0.15134 0.35754 0.0
Mg406 Mg 0.89446 0.47789 0.32469 0.0
O407 O 0.85792 0.47502 0.31268 0.0
O408 O 0.83518 0.46222 0.3391 0.0
Mg409 Mg 0.85769 0.45898 0.3695 0.0
C410 C 0.83842 0.46908 0.31958 0.0
C411 C 0.9163 0.49 0.27875 0.0
O412 O 0.92658 0.47103 0.28117 0.0
O413 O 0.88469 0.50951 0.34242 0.0
O414 O 0.86235 0.4964 0.36909 0.0
O415 O 0.9012 0.44215 0.31738 0.0
O416 O 0.88794 0.45507 0.34881 0.0
C417 C 0.87189 0.51237 0.35911 0.0
C418 C 0.89346 0.43855 0.33692 0.0
O419 O 0.90291 0.49678 0.29363 0.0
Mg420 Mg 0.46544 0.83818 0.31614 0.0
O421 O 0.49901 0.83967 0.33532 0.0
O422 O 0.52685 0.84314 0.31068 0.0
Mg423 Mg 0.51159 0.84291 0.27626 0.0
C424 C 0.52002 0.84163 0.3305 0.0
C425 C 0.44671 0.83114 0.36342 0.0
O426 O 0.46147 0.815 0.3626 0.0
O427 O 0.46723 0.87473 0.30874 0.0
O428 O 0.49398 0.87591 0.28276 0.0
O429 O 0.46808 0.80168 0.3132 0.0
O430 O 0.48197 0.82517 0.28915 0.0
C431 C 0.47898 0.8853 0.29466 0.0
C432 C 0.47928 0.80514 0.29525 0.0
O433 O 0.44507 0.84409 0.34718 0.0
Mg434 Mg 0.11067 0.501 0.33019 0.0
O435 O 0.14719 0.50387 0.31786 0.0
O436 O 0.17127 0.50374 0.34615 0.0
Mg437 Mg 0.14962 0.50107 0.37708 0.0
C438 C 0.16733 0.50446 0.32558 0.0
C439 C 0.08199 0.50039 0.28603 0.0
O440 O 0.06997 0.51557 0.296 0.0
O441 O 0.11652 0.46471 0.33744 0.0
O442 O 0.13957 0.46631 0.36653 0.0
O443 O 0.10789 0.53765 0.33407 0.0
O444 O 0.11999 0.51501 0.35977 0.0
C445 C 0.12821 0.45538 0.35241 0.0
C446 C 0.11594 0.53481 0.35365 0.0
O447 O 0.09924 0.49236 0.29562 0.0
Mg448 Mg 0.69459 0.53535 0.80431 0.0
O449 O 0.68011 0.50074 0.80806 0.0
O450 O 0.70966 0.47793 0.81118 0.0
Mg451 Mg 0.74262 0.49716 0.8064 0.0
C452 C 0.68829 0.48157 0.81101 0.0
C453 C 0.65815 0.57066 0.80826 0.0
O454 O 0.67508 0.58077 0.79853 0.0
O455 O 0.70555 0.53497 0.84008 0.0
O456 O 0.73684 0.51418 0.83955 0.0
O457 O 0.69552 0.53324 0.76746 0.0
O458 O 0.72325 0.52281 0.78945 0.0
C459 C 0.72283 0.52663 0.84963 0.0
C460 C 0.71556 0.52483 0.76984 0.0
O461 O 0.66041 0.55052 0.81308 0.0
Mg462 Mg 0.4647 0.67136 0.84051 0.0
O463 O 0.50024 0.6554 0.84105 0.0
O464 O 0.52496 0.68303 0.84433 0.0
Mg465 Mg 0.50633 0.71574 0.84469 0.0
C466 C 0.52057 0.66259 0.84267 0.0
C467 C 0.44793 0.62334 0.83252 0.0
O468 O 0.46062 0.62573 0.81495 0.0
O469 O 0.46616 0.67898 0.87721 0.0
O470 O 0.48997 0.70751 0.87778 0.0
O471 O 0.46648 0.6747 0.80387 0.0
O472 O 0.47812 0.69983 0.82737 0.0
C473 C 0.47649 0.69429 0.8875 0.0
C474 C 0.4759 0.69357 0.80734 0.0
O475 O 0.44726 0.63869 0.8466 0.0
Mg476 Mg 0.30813 0.45772 0.82811 0.0
O477 O 0.32791 0.48982 0.82887 0.0
O478 O 0.30314 0.51741 0.83124 0.0
Mg479 Mg 0.26728 0.50289 0.82899 0.0
C480 C 0.32349 0.51022 0.83051 0.0
C481 C 0.35844 0.44149 0.82551 0.0
O482 O 0.35826 0.45491 0.80866 0.0
O483 O 0.29863 0.46172 0.86406 0.0
O484 O 0.27107 0.48693 0.86302 0.0
O485 O 0.30642 0.45804 0.79143 0.0
O486 O 0.28077 0.47303 0.81316 0.0
C487 C 0.28314 0.47299 0.87348 0.0
C488 C 0.28766 0.46893 0.79355 0.0
O489 O 0.34046 0.43917 0.83682 0.0
Mg490 Mg 0.54363 0.32355 0.84119 0.0
O491 O 0.50947 0.34202 0.84291 0.0
O492 O 0.48265 0.31643 0.84706 0.0
Mg493 Mg 0.49884 0.28255 0.84771 0.0
C494 C 0.48867 0.33644 0.84514 0.0
C495 C 0.58243 0.35361 0.8344 0.0
O496 O 0.58739 0.33495 0.82469 0.0
O497 O 0.54311 0.31719 0.87807 0.0
O498 O 0.51654 0.29106 0.88021 0.0
O499 O 0.54018 0.32006 0.805 0.0
O500 O 0.52752 0.29583 0.82898 0.0
C501 C 0.53144 0.30343 0.88913 0.0
C502 C 0.52945 0.30194 0.80885 0.0
O503 O 0.56373 0.3551 0.84469 0.0
Mg504 Mg 0.69526 0.45813 0.17016 0.0
O505 O 0.67609 0.4905 0.17149 0.0
O506 O 0.70125 0.5178 0.16965 0.0
Mg507 Mg 0.73689 0.50264 0.16982 0.0
C508 C 0.68081 0.51089 0.17065 0.0
C509 C 0.64475 0.44217 0.17361 0.0
O510 O 0.64513 0.4553 0.19071 0.0
O511 O 0.7031 0.46389 0.13417 0.0
O512 O 0.73091 0.48887 0.13509 0.0
O513 O 0.69852 0.45699 0.20675 0.0
O514 O 0.72345 0.47225 0.18443 0.0
C515 C 0.71803 0.47567 0.12455 0.0
C516 C 0.71744 0.46751 0.20414 0.0
O517 O 0.6625 0.44018 0.16193 0.0
Mg518 Mg 0.53467 0.66821 0.15212 0.0
O519 O 0.50156 0.64821 0.1528 0.0
O520 O 0.47309 0.67211 0.14899 0.0
Mg521 Mg 0.4874 0.70682 0.14708 0.0
C522 C 0.4804 0.65253 0.15127 0.0
C523 C 0.55478 0.62234 0.16206 0.0
O524 O 0.54036 0.62433 0.17839 0.0
O525 O 0.53145 0.67365 0.11515 0.0
O526 O 0.50409 0.69902 0.11395 0.0
O527 O 0.53324 0.67301 0.18851 0.0
O528 O 0.51796 0.69551 0.16432 0.0
C529 C 0.51896 0.68705 0.10446 0.0
C530 C 0.52149 0.6905 0.18453 0.0
O531 O 0.55566 0.63732 0.14761 0.0
Mg532 Mg 0.30618 0.5259 0.17544 0.0
O533 O 0.32176 0.49199 0.16982 0.0
O534 O 0.29297 0.4683 0.16689 0.0
Mg535 Mg 0.25957 0.48622 0.17371 0.0
C536 C 0.31418 0.47265 0.16652 0.0
C537 C 0.35747 0.54089 0.17645 0.0
O538 O 0.35782 0.52847 0.19404 0.0
O539 O 0.29333 0.5268 0.1403 0.0
O540 O 0.26267 0.50522 0.14135 0.0
O541 O 0.30743 0.52212 0.21205 0.0
O542 O 0.27872 0.51185 0.19117 0.0
C543 C 0.27569 0.51861 0.13127 0.0
C544 C 0.28753 0.51321 0.21042 0.0
O545 O 0.33919 0.54255 0.16549 0.0
Mg546 Mg 0.46452 0.3171 0.16122 0.0
O547 O 0.49787 0.33673 0.15982 0.0
O548 O 0.5259 0.31197 0.15886 0.0
Mg549 Mg 0.51118 0.27744 0.16114 0.0
C550 C 0.51897 0.33182 0.15883 0.0
C551 C 0.42317 0.34559 0.15964 0.0
O552 O 0.41686 0.32735 0.16936 0.0
O553 O 0.46823 0.3074 0.12528 0.0
O554 O 0.49498 0.28148 0.12704 0.0
O555 O 0.4651 0.31717 0.1978 0.0
O556 O 0.48133 0.29183 0.17711 0.0
C557 C 0.48047 0.29268 0.1162 0.0
C558 C 0.47751 0.29972 0.19636 0.0
O559 O 0.44351 0.34717 0.15287 0.0
Mg560 Mg 0.88178 0.66324 0.49416 0.0
O561 O 0.845 0.67448 0.49144 0.0
O562 O 0.82148 0.6458 0.49241 0.0
Mg563 Mg 0.84407 0.61552 0.49596 0.0
C564 C 0.82502 0.6664 0.49113 0.0
C565 C 0.91045 0.70738 0.49575 0.0
O566 O 0.92418 0.69668 0.48254 0.0
O567 O 0.87667 0.65681 0.53059 0.0
O568 O 0.85439 0.62715 0.53045 0.0
O569 O 0.88405 0.65858 0.45764 0.0
O570 O 0.87309 0.63309 0.48107 0.0
C571 C 0.86563 0.6419 0.54068 0.0
C572 C 0.87659 0.63888 0.46107 0.0
O573 O 0.89218 0.69826 0.50201 0.0
Mg574 Mg 0.89657 0.33306 0.51217 0.0
O575 O 0.86065 0.31946 0.51607 0.0
O576 O 0.83583 0.34712 0.51799 0.0
Mg577 Mg 0.8565 0.37888 0.51682 0.0
C578 C 0.84034 0.32664 0.51758 0.0
C579 C 0.92659 0.28994 0.50755 0.0
O580 O 0.93964 0.29966 0.52209 0.0
O581 O 0.88844 0.34216 0.47667 0.0
O582 O 0.86531 0.37091 0.48098 0.0
O583 O 0.90176 0.33487 0.54874 0.0
O584 O 0.8868 0.36121 0.52847 0.0
C585 C 0.87628 0.35758 0.46874 0.0
C586 C 0.89237 0.35403 0.54755 0.0
O587 O 0.90855 0.2994 0.50116 0.0
Mg588 Mg 0.69307 0.81886 0.46 0.0
O589 O 0.67368 0.82316 0.49205 0.0
O590 O 0.699 0.82362 0.51933 0.0
Mg591 Mg 0.73425 0.81627 0.50498 0.0
C592 C 0.6786 0.82501 0.51235 0.0
C593 C 0.64336 0.82068 0.44275 0.0
O594 O 0.64177 0.80431 0.45667 0.0
O595 O 0.70718 0.85362 0.46278 0.0
O596 O 0.73549 0.84926 0.48695 0.0
O597 O 0.68982 0.78218 0.46157 0.0
O598 O 0.71787 0.80116 0.4763 0.0
C599 C 0.72453 0.86085 0.47308 0.0
C600 C 0.70834 0.78248 0.47301 0.0
O601 O 0.66228 0.83048 0.44062 0.0
Mg602 Mg 0.11197 0.66823 0.51805 0.0
O603 O 0.14873 0.6804 0.51793 0.0
O604 O 0.17234 0.65263 0.52524 0.0
Mg605 Mg 0.15024 0.62223 0.52986 0.0
C606 C 0.16873 0.67277 0.52071 0.0
C607 C 0.08286 0.71019 0.50661 0.0
O608 O 0.06981 0.70267 0.52239 0.0
O609 O 0.11788 0.65237 0.48447 0.0
O610 O 0.14111 0.6248 0.4935 0.0
O611 O 0.10916 0.67403 0.55445 0.0
O612 O 0.12151 0.64337 0.53913 0.0
C613 C 0.13001 0.6358 0.47927 0.0
C614 C 0.11793 0.65469 0.55661 0.0
O615 O 0.10086 0.69985 0.50163 0.0
Mg616 Mg 0.30374 0.17266 0.45417 0.0
O617 O 0.31974 0.17503 0.48822 0.0
O618 O 0.29178 0.17472 0.51294 0.0
Mg619 Mg 0.25781 0.17381 0.4948 0.0
C620 C 0.31284 0.17533 0.50806 0.0
C621 C 0.35579 0.17546 0.4421 0.0
O622 O 0.35459 0.19307 0.45449 0.0
O623 O 0.29496 0.13669 0.45993 0.0
O624 O 0.26506 0.13896 0.48245 0.0
O625 O 0.30028 0.20945 0.45191 0.0
O626 O 0.27431 0.18719 0.46539 0.0
C627 C 0.27875 0.12775 0.47064 0.0
C628 C 0.28052 0.20685 0.46088 0.0
O629 O 0.33809 0.16386 0.43929 0.0
Mg630 Mg 0.10056 0.31982 0.4776 0.0
O631 O 0.13803 0.31086 0.47447 0.0
O632 O 0.15808 0.33853 0.46023 0.0
Mg633 Mg 0.13288 0.36695 0.45731 0.0
C634 C 0.1567 0.31906 0.46775 0.0
C635 C 0.08149 0.27358 0.49022 0.0
O636 O 0.07072 0.27621 0.47153 0.0
O637 O 0.109 0.3389 0.50879 0.0
O638 O 0.12922 0.36672 0.49493 0.0
O639 O 0.09467 0.31069 0.44234 0.0
O640 O 0.10442 0.34381 0.45405 0.0
C641 C 0.12066 0.3564 0.51121 0.0
C642 C 0.10023 0.33075 0.43801 0.0
O643 O 0.09476 0.28856 0.49698 0.0
Mg644 Mg 0.70135 0.17589 0.53906 0.0
O645 O 0.68236 0.17158 0.50671 0.0
O646 O 0.70755 0.16807 0.47962 0.0
Mg647 Mg 0.74303 0.17237 0.49466 0.0
C648 C 0.68709 0.16857 0.48653 0.0
C649 C 0.64979 0.17579 0.55252 0.0
O650 O 0.64823 0.18795 0.53482 0.0
O651 O 0.71188 0.14003 0.53829 0.0
O652 O 0.73973 0.13966 0.51334 0.0
O653 O 0.7019 0.21234 0.53572 0.0
O654 O 0.72848 0.19027 0.52286 0.0
C655 C 0.72774 0.13011 0.52798 0.0
C656 C 0.72094 0.20993 0.52536 0.0
O657 O 0.66906 0.16834 0.5583 0.0
Mg658 Mg 0.30847 0.82116 0.52968 0.0
O659 O 0.32782 0.82405 0.4975 0.0
O660 O 0.30256 0.82556 0.47025 0.0
Mg661 Mg 0.26709 0.82037 0.48494 0.0
C662 C 0.32301 0.82596 0.4772 0.0
C663 C 0.3586 0.82121 0.54637 0.0
O664 O 0.35953 0.80445 0.53283 0.0
O665 O 0.29626 0.85634 0.52676 0.0
O666 O 0.26813 0.85393 0.50223 0.0
O667 O 0.30954 0.78451 0.5286 0.0
O668 O 0.28233 0.80472 0.51404 0.0
C669 C 0.27966 0.86482 0.51627 0.0
C670 C 0.29066 0.78558 0.51774 0.0
O671 O 0.34002 0.83161 0.54847 0.0
H672 H 0.04228 0.50855 0.26391 0.0
H673 H 0.10317 0.46906 0.26154 0.0
H674 H 0.02618 0.48701 0.2339 0.0
H675 H 0.08697 0.44731 0.23218 0.0
H676 H 0.05718 0.40941 0.17907 0.0
H677 H 0.07277 0.44263 0.19556 0.0
H678 H 0.01158 0.4503 0.23392 0.0
H679 H 0.99582 0.4177 0.21709 0.0
C680 C 0.05239 0.49555 0.25675 0.0
C681 C 0.07381 0.49023 0.26541 0.0
C682 C 0.04314 0.48316 0.23959 0.0
C683 C 0.05513 0.46523 0.23079 0.0
C684 C 0.07727 0.46109 0.23836 0.0
C685 C 0.08651 0.47345 0.25542 0.0
C686 C 0.04678 0.41857 0.19051 0.0
C687 C 0.02547 0.41058 0.19716 0.0
C688 C 0.05579 0.43755 0.20007 0.0
C689 C 0.04366 0.44888 0.21644 0.0
C690 C 0.02143 0.44208 0.22137 0.0
C691 C 0.01244 0.42319 0.21182 0.0
H692 H 0.54147 0.98793 0.23515 0.0
H693 H 0.60663 0.02051 0.23685 0.0
H694 H 0.52673 0.01421 0.26185 0.0
H695 H 0.59185 0.04683 0.26316 0.0
H696 H 0.5047 0.08737 0.27453 0.0
H697 H 0.51739 0.0531 0.25837 0.0
H698 H 0.57682 0.05393 0.2999 0.0
H699 H 0.56431 0.08859 0.31591 0.0
C700 C 0.55275 0.00048 0.24144 0.0
C701 C 0.57513 0.00233 0.23364 0.0
C702 C 0.54428 0.01556 0.25669 0.0
C703 C 0.55807 0.03268 0.26454 0.0
C704 C 0.58083 0.0337 0.25767 0.0
C705 C 0.58926 0.01871 0.2424 0.0
C706 C 0.52024 0.08006 0.28059 0.0
C707 C 0.5337 0.09098 0.29622 0.0
C708 C 0.52745 0.06027 0.27141 0.0
C709 C 0.54829 0.05095 0.27763 0.0
C710 C 0.56086 0.06093 0.29452 0.0
C711 C 0.55361 0.08072 0.30378 0.0
H712 H 0.92082 0.59472 0.18186 0.0
H713 H 0.98835 0.58396 0.20732 0.0
H714 H 0.90863 0.55972 0.19754 0.0
H715 H 0.9762 0.5493 0.22306 0.0
H716 H 0.95049 0.4857 0.24851 0.0
H717 H 0.96083 0.51173 0.21967 0.0
H718 H 0.90337 0.55218 0.23715 0.0
H719 H 0.893 0.52627 0.26569 0.0
C720 C 0.93323 0.58457 0.19015 0.0
C721 C 0.95542 0.59223 0.19372 0.0
C722 C 0.92622 0.56462 0.19926 0.0
C723 C 0.94136 0.55195 0.21184 0.0
C724 C 0.96413 0.55861 0.21342 0.0
C725 C 0.97106 0.57857 0.20452 0.0
C726 C 0.93986 0.49996 0.24591 0.0
C727 C 0.92114 0.50412 0.2596 0.0
C728 C 0.94578 0.51484 0.22941 0.0
C729 C 0.93294 0.53403 0.22616 0.0
C730 C 0.91346 0.53744 0.23901 0.0
C731 C 0.90767 0.5227 0.25557 0.0
H732 H 0.44135 0.9082 0.30798 0.0
H733 H 0.50237 0.91426 0.26901 0.0
H734 H 0.42679 0.94196 0.29179 0.0
H735 H 0.48765 0.94768 0.25268 0.0
H736 H 0.45791 0.00992 0.22734 0.0
H737 H 0.47408 0.98576 0.25526 0.0
H738 H 0.41302 0.9465 0.25402 0.0
H739 H 0.39685 0.97062 0.22646 0.0
C740 C 0.45194 0.917 0.29643 0.0
C741 C 0.4728 0.90825 0.28941 0.0
C742 C 0.44351 0.93628 0.28706 0.0
C743 C 0.45586 0.94723 0.27064 0.0
C744 C 0.47771 0.93967 0.2653 0.0
C745 C 0.48609 0.92038 0.27458 0.0
C746 C 0.44781 0.99635 0.23332 0.0
C747 C 0.42623 0.99199 0.22446 0.0
C748 C 0.45709 0.98251 0.24928 0.0
C749 C 0.44487 0.96419 0.25681 0.0
C750 C 0.42278 0.96062 0.24881 0.0
C751 C 0.41359 0.97433 0.23281 0.0
H752 H 0.03955 0.48271 0.72932 0.0
H753 H 0.10506 0.51339 0.73818 0.0
H754 H 0.02419 0.50493 0.75918 0.0
H755 H 0.08968 0.53595 0.76726 0.0
H756 H 0.06133 0.57753 0.81777 0.0
H757 H 0.07326 0.54244 0.80231 0.0
H758 H 0.01463 0.54279 0.75964 0.0
H759 H 0.00241 0.57718 0.77551 0.0
C760 C 0.05078 0.49388 0.73788 0.0
C761 C 0.07339 0.49665 0.73102 0.0
C762 C 0.04196 0.50668 0.75495 0.0
C763 C 0.05555 0.52254 0.76543 0.0
C764 C 0.07867 0.52385 0.75977 0.0
C765 C 0.08748 0.51102 0.74284 0.0
C766 C 0.05062 0.56974 0.80561 0.0
C767 C 0.03125 0.58047 0.79746 0.0
C768 C 0.05754 0.54969 0.79662 0.0
C769 C 0.04525 0.54002 0.77931 0.0
C770 C 0.02458 0.54963 0.77292 0.0
C771 C 0.01765 0.56958 0.78192 0.0
H772 H 0.3914 0.03221 0.75187 0.0
H773 H 0.44628 0.98831 0.73488 0.0
H774 H 0.40438 0.05806 0.72426 0.0
H775 H 0.4592 0.01424 0.70701 0.0
H776 H 0.49293 0.08474 0.70012 0.0
H777 H 0.47733 0.05029 0.71322 0.0
H778 H 0.41219 0.06703 0.68526 0.0
H779 H 0.42784 0.10179 0.67222 0.0
C780 C 0.40596 0.02787 0.74191 0.0
C781 C 0.41808 0.00842 0.74585 0.0
C782 C 0.41326 0.04259 0.7259 0.0
C783 C 0.43291 0.03824 0.71355 0.0
C784 C 0.44411 0.01809 0.71643 0.0
C785 C 0.4367 0.00326 0.73238 0.0
C786 C 0.47545 0.08081 0.6962 0.0
C787 C 0.46149 0.09615 0.68554 0.0
C788 C 0.46653 0.06096 0.70357 0.0
C789 C 0.44343 0.05611 0.70056 0.0
C790 C 0.42999 0.0705 0.68806 0.0
C791 C 0.43899 0.09033 0.68048 0.0
H792 H 0.90392 0.47497 0.73669 0.0
H793 H 0.96431 0.51312 0.74968 0.0
H794 H 0.91544 0.44852 0.76433 0.0
H795 H 0.97574 0.48664 0.77762 0.0
H796 H 0.9361 0.40478 0.8178 0.0
H797 H 0.92373 0.44008 0.80308 0.0
H798 H 0.98945 0.44885 0.77286 0.0
H799 H 0.00185 0.41391 0.7877 0.0
C800 C 0.91944 0.47794 0.74575 0.0
C801 C 0.93339 0.49593 0.74073 0.0
C802 C 0.92593 0.46288 0.76179 0.0
C803 C 0.94656 0.46543 0.7731 0.0
C804 C 0.95984 0.48416 0.76903 0.0
C805 C 0.95327 0.49932 0.75305 0.0
C806 C 0.94812 0.41457 0.8086 0.0
C807 C 0.9698 0.40638 0.80354 0.0
C808 C 0.94098 0.43472 0.80006 0.0
C809 C 0.95548 0.44707 0.78653 0.0
C810 C 0.97787 0.43981 0.78328 0.0
C811 C 0.98493 0.41966 0.79166 0.0
H812 H 0.59962 0.97142 0.76753 0.0
H813 H 0.53995 0.01181 0.7591 0.0
H814 H 0.58598 0.94661 0.73926 0.0
H815 H 0.52635 0.98694 0.73048 0.0
H816 H 0.56238 0.90673 0.68408 0.0
H817 H 0.57608 0.94083 0.7004 0.0
H818 H 0.51174 0.94918 0.73337 0.0
H819 H 0.49796 0.91541 0.71693 0.0
C820 C 0.58376 0.97521 0.75937 0.0
C821 C 0.57069 0.99338 0.7658 0.0
C822 C 0.57605 0.9611 0.74296 0.0
C823 C 0.55505 0.96478 0.73266 0.0
C824 C 0.54253 0.98361 0.73826 0.0
C825 C 0.55033 -0.00216 0.75462 0.0
C826 C 0.55092 0.91619 0.69426 0.0
C827 C 0.52924 0.90813 0.69959 0.0
C828 C 0.55883 0.93565 0.70371 0.0
C829 C 0.54514 0.94746 0.71848 0.0
C830 C 0.5227 0.94051 0.72204 0.0
C831 C 0.51485 0.92103 0.71272 0.0
H832 H 0.19476 0.05292 0.40052 0.0
H833 H 0.2532 0.01015 0.39657 0.0
H834 H 0.21114 0.07076 0.43241 0.0
H835 H 0.26952 0.02806 0.42863 0.0
H836 H 0.24273 0.10421 0.48657 0.0
H837 H 0.22675 0.07119 0.47025 0.0
H838 H 0.28512 0.06591 0.4277 0.0
H839 H 0.30119 0.09877 0.44397 0.0
C840 C 0.21073 0.04681 0.40686 0.0
C841 C 0.22295 0.03055 0.39557 0.0
C842 C 0.22008 0.05695 0.4253 0.0
C843 C 0.24185 0.05107 0.43277 0.0
C844 C 0.25288 0.03314 0.423 0.0
C845 C 0.24346 0.02289 0.40464 0.0
C846 C 0.25255 0.09563 0.47423 0.0
C847 C 0.27292 0.10455 0.46606 0.0
C848 C 0.24333 0.07671 0.46489 0.0
C849 C 0.25441 0.06626 0.44738 0.0
C850 C 0.27613 0.07358 0.44117 0.0
C851 C 0.28531 0.09256 0.45043 0.0
H852 H 0.90217 0.26464 0.47928 0.0
H853 H 0.96795 0.26935 0.51036 0.0
H854 H 0.91628 0.23586 0.4555 0.0
H855 H 0.98205 0.23997 0.48671 0.0
H856 H 0.00192 0.22602 0.41297 0.0
H857 H 0.99082 0.24135 0.44803 0.0
H858 H 0.9315 0.19965 0.44885 0.0
H859 H 0.9424 0.18458 0.41324 0.0
C860 C 0.91953 0.25916 0.4814 0.0
C861 C 0.93409 0.26964 0.49636 0.0
C862 C 0.92758 0.24241 0.46789 0.0
C863 C 0.95039 0.23572 0.46902 0.0
C864 C 0.96447 0.24498 0.48523 0.0
C865 C 0.95638 0.26177 0.49881 0.0
C866 C 0.98679 0.21969 0.42084 0.0
C867 C 0.97272 0.20451 0.41003 0.0
C868 C 0.98051 0.22836 0.44113 0.0
C869 C 0.96001 0.22206 0.45107 0.0
C870 C 0.94717 0.20516 0.44137 0.0
C871 C 0.95349 0.19643 0.42102 0.0
H872 H 0.76869 0.86814 0.46448 0.0
H873 H 0.70332 0.89991 0.4648 0.0
H874 H 0.78492 0.89869 0.44493 0.0
H875 H 0.71991 0.93205 0.4473 0.0
H876 H 0.74419 0.96413 0.38405 0.0
H877 H 0.72967 0.94279 0.41401 0.0
H878 H 0.79839 0.93169 0.43701 0.0
H879 H 0.81284 0.95138 0.40517 0.0
C880 C 0.75801 0.88221 0.46108 0.0
C881 C 0.73473 0.88162 0.4658 0.0
C882 C 0.76737 0.9 0.44994 0.0
C883 C 0.7538 0.91805 0.44386 0.0
C884 C 0.73086 0.91823 0.45069 0.0
C885 C 0.7213 0.89994 0.46102 0.0
C886 C 0.7562 0.95745 0.39575 0.0
C887 C 0.77966 0.9591 0.39209 0.0
C888 C 0.74783 0.94521 0.41325 0.0
C889 C 0.7627 0.93481 0.42807 0.0
C890 C 0.78626 0.9385 0.42558 0.0
C891 C 0.79465 0.95007 0.40748 0.0
H892 H 0.00831 0.7686 0.4062 0.0
H893 H 0.06815 0.8096 0.40503 0.0
H894 H 0.01972 0.75394 0.44151 0.0
H895 H 0.07945 0.79507 0.44076 0.0
H896 H 0.1075 0.73154 0.4754 0.0
H897 H 0.0939 0.75826 0.44898 0.0
H898 H 0.02822 0.75851 0.48054 0.0
H899 H 0.04178 0.73136 0.50695 0.0
C900 C 0.02363 0.77491 0.41376 0.0
C901 C 0.03757 0.78992 0.4026 0.0
C902 C 0.03008 0.76663 0.43414 0.0
C903 C 0.05066 0.77312 0.44381 0.0
C904 C 0.06365 0.78953 0.43354 0.0
C905 C 0.05712 0.79793 0.41314 0.0
C906 C 0.09026 0.73754 0.47697 0.0
C907 C 0.07559 0.72902 0.49302 0.0
C908 C 0.08253 0.75308 0.46194 0.0
C909 C 0.05992 0.76041 0.46256 0.0
C910 C 0.04566 0.75298 0.47951 0.0
C911 C 0.05345 0.73746 0.49465 0.0
H912 H 0.24764 0.97586 0.59891 0.0
H913 H 0.19429 0.92713 0.59992 0.0
H914 H 0.26267 0.95976 0.56535 0.0
H915 H 0.20946 0.91104 0.56651 0.0
H916 H 0.30077 0.89465 0.54285 0.0
H917 H 0.28252 0.92402 0.56319 0.0
H918 H 0.22038 0.91321 0.52715 0.0
H919 H 0.23859 0.88363 0.50677 0.0
C920 C 0.23875 0.96206 0.59172 0.0
C921 C 0.22007 0.95243 0.60244 0.0
C922 C 0.24741 0.95286 0.57248 0.0
C923 C 0.23749 0.93395 0.5635 0.0
C924 C 0.21746 0.92568 0.57296 0.0
C925 C 0.20883 0.93483 0.59225 0.0
C926 C 0.28344 0.89895 0.53874 0.0
C927 C 0.271 0.88642 0.52358 0.0
C928 C 0.27299 0.91592 0.55032 0.0
C929 C 0.24987 0.92064 0.54702 0.0
C930 C 0.23811 0.90967 0.53024 0.0
C931 C 0.24863 0.89279 0.51852 0.0
H932 H 0.07472 0.17847 0.59645 0.0
H933 H 0.00801 0.2052 0.58415 0.0
H934 H 0.0878 0.19298 0.56121 0.0
H935 H 0.021 0.21971 0.54924 0.0
H936 H 0.04754 0.24321 0.48572 0.0
H937 H 0.0368 0.21477 0.51198 0.0
H938 H 0.09397 0.2324 0.55276 0.0
H939 H 0.10478 0.26057 0.52657 0.0
C940 C 0.06267 0.18679 0.58592 0.0
C941 C 0.04047 0.19107 0.59318 0.0
C942 C 0.07018 0.1952 0.56583 0.0
C943 C 0.05552 0.20775 0.55263 0.0
C944 C 0.03271 0.21005 0.55895 0.0
C945 C 0.0253 0.20186 0.57906 0.0
C946 C 0.05807 0.24069 0.50007 0.0
C947 C 0.07678 0.25437 0.50429 0.0
C948 C 0.05191 0.22442 0.51509 0.0
C949 C 0.06448 0.22141 0.53447 0.0
C950 C 0.08408 0.23411 0.53787 0.0
C951 C 0.09012 0.25045 0.52298 0.0
H952 H 0.80861 0.05411 0.60706 0.0
H953 H 0.74861 0.01322 0.6063 0.0
H954 H 0.79454 0.07381 0.57521 0.0
H955 H 0.73471 0.03289 0.57425 0.0
H956 H 0.76645 0.10746 0.51752 0.0
H957 H 0.78166 0.07546 0.53647 0.0
H958 H 0.72014 0.07099 0.57476 0.0
H959 H 0.70485 0.10278 0.55583 0.0
C960 C 0.79277 0.04885 0.59972 0.0
C961 C 0.77947 0.03248 0.60965 0.0
C962 C 0.78475 0.06008 0.58133 0.0
C963 C 0.76328 0.05517 0.57249 0.0
C964 C 0.75112 0.03728 0.58097 0.0
C965 C 0.75917 0.02597 0.59932 0.0
C966 C 0.75588 0.0993 0.52954 0.0
C967 C 0.73459 0.10796 0.53548 0.0
C968 C 0.76467 0.081 0.54044 0.0
C969 C 0.75224 0.07089 0.55729 0.0
C970 C 0.73011 0.07832 0.56177 0.0
C971 C 0.72139 0.09668 0.55101 0.0
H972 H 0.95119 0.72881 0.49144 0.0
H973 H 0.88654 0.73238 0.52478 0.0
H974 H 0.96588 0.75781 0.51514 0.0
H975 H 0.90133 0.76063 0.54877 0.0
H976 H 0.9294 0.80984 0.59263 0.0
H977 H 0.91655 0.79601 0.55713 0.0
H978 H 0.97665 0.75554 0.55277 0.0
H979 H 0.98972 0.76978 0.58759 0.0
C980 C 0.93997 0.73606 0.50351 0.0
C981 C 0.91788 0.72791 0.50658 0.0
C982 C 0.94842 0.75263 0.51716 0.0
C983 C 0.93495 0.7613 0.53417 0.0
C984 C 0.9122 0.75451 0.53582 0.0
C985 C 0.90376 0.73806 0.52216 0.0
C986 C 0.94019 0.79852 0.58374 0.0
C987 C 0.96031 0.7905 0.5932 0.0
C988 C 0.93275 0.79048 0.56345 0.0
C989 C 0.9453 0.7743 0.55228 0.0
C990 C 0.96652 0.76802 0.56077 0.0
C991 C 0.97394 0.77605 0.58096 0.0
H992 H 0.44689 0.30787 0.08887 0.0
H993 H 0.50377 0.26308 0.09114 0.0
H994 H 0.43532 0.29219 0.05378 0.0
H995 H 0.49189 0.24714 0.05655 0.0
H996 H 0.46976 0.22265 0.99166 0.0
H997 H 0.48491 0.24948 0.01759 0.0
H998 H 0.4181 0.25717 0.04589 0.0
H999 H 0.40294 0.23094 0.0198 0.0
C1000 C 0.45718 0.29499 0.08173 0.0
C1001 C 0.476 0.28645 0.09307 0.0
C1002 C 0.45047 0.28592 0.06166 0.0
C1003 C 0.46244 0.26816 0.05252 0.0
C1004 C 0.48231 0.26087 0.063 0.0
C1005 C 0.48903 0.26992 0.08301 0.0
C1006 C 0.45824 0.23042 0.00313 0.0
C1007 C 0.43522 0.22438 0.0039 0.0
C1008 C 0.46694 0.24573 0.01804 0.0
C1009 C 0.45278 0.25532 0.03398 0.0
C1010 C 0.42948 0.25032 0.03373 0.0
C1011 C 0.42081 0.23507 0.01886 0.0
H1012 H 0.39 0.76515 0.96296 0.0
H1013 H 0.44934 0.77114 0.00425 0.0
H1014 H 0.40755 0.73479 0.94365 0.0
H1015 H 0.46687 0.74027 0.98506 0.0
H1016 H 0.49875 0.72086 0.91639 0.0
H1017 H 0.4824 0.73863 0.94828 0.0
H1018 H 0.42271 0.69783 0.94255 0.0
H1019 H 0.43894 0.68029 0.91015 0.0
C1020 C 0.40662 0.75967 0.96825 0.0
C1021 C 0.41846 0.77086 0.98484 0.0
C1022 C 0.41662 0.74203 0.95732 0.0
C1023 C 0.43872 0.73515 0.96269 0.0
C1024 C 0.44992 0.74534 0.98036 0.0
C1025 C 0.43986 0.763 0.99137 0.0
C1026 C 0.48242 0.71519 0.92227 0.0
C1027 C 0.46988 0.69959 0.91035 0.0
C1028 C 0.47308 0.72531 0.94072 0.0
C1029 C 0.45099 0.72003 0.94766 0.0
C1030 C 0.43957 0.7026 0.93729 0.0
C1031 C 0.44895 0.69242 0.91881 0.0
H1032 H 0.24593 0.48712 0.89651 0.0
H1033 H 0.30494 0.44525 0.90179 0.0
H1034 H 0.2299 0.47011 0.92919 0.0
H1035 H 0.28881 0.42822 0.93422 0.0
H1036 H 0.19837 0.40116 0.94973 0.0
H1037 H 0.21448 0.43252 0.93081 0.0
H1038 H 0.27398 0.42921 0.97209 0.0
H1039 H 0.25798 0.3976 0.991 0.0
C1040 C 0.25582 0.47475 0.90496 0.0
C1041 C 0.27649 0.46715 0.89619 0.0
C1042 C 0.24656 0.46497 0.92366 0.0
C1043 C 0.25788 0.44758 0.93406 0.0
C1044 C 0.27965 0.44164 0.92666 0.0
C1045 C 0.28886 0.45131 0.90791 0.0
C1046 C 0.21457 0.40749 0.95528 0.0
C1047 C 0.22714 0.39645 0.97147 0.0
C1048 C 0.22377 0.42562 0.9445 0.0
C1049 C 0.24573 0.43307 0.94968 0.0
C1050 C 0.2572 0.42357 0.9675 0.0
C1051 C 0.24794 0.40549 0.97838 0.0
H1052 H 0.60258 0.25821 0.00629 0.0
H1053 H 0.55419 0.21032 0.98294 0.0
H1054 H 0.58515 0.28598 0.98265 0.0
H1055 H 0.53725 0.2376 0.95926 0.0
H1056 H 0.50392 0.28721 0.92112 0.0
H1057 H 0.51596 0.2707 0.9556 0.0
H1058 H 0.58481 0.29184 0.9432 0.0
H1059 H 0.57254 0.30908 0.90916 0.0
C1060 C 0.58802 0.2537 0.9964 0.0
C1061 C 0.57993 0.23201 0.99628 0.0
C1062 C 0.57811 0.26957 0.98281 0.0
C1063 C 0.55983 0.26405 0.96901 0.0
C1064 C 0.55105 0.24262 0.96988 0.0
C1065 C 0.56096 0.22683 0.98332 0.0
C1066 C 0.52149 0.28892 0.92613 0.0
C1067 C 0.53738 0.29905 0.91227 0.0
C1068 C 0.52842 0.27936 0.94581 0.0
C1069 C 0.55146 0.27939 0.95185 0.0
C1070 C 0.56693 0.29149 0.93908 0.0
C1071 C 0.5599 0.30136 0.9195 0.0
H1072 H 0.76031 0.51591 0.87399 0.0
H1073 H 0.69852 0.5542 0.87619 0.0
H1074 H 0.77386 0.5345 0.90687 0.0
H1075 H 0.71223 0.57287 0.90879 0.0
H1076 H 0.80054 0.60426 0.92963 0.0
H1077 H 0.78688 0.57273 0.9092 0.0
H1078 H 0.72499 0.57285 0.94723 0.0
H1079 H 0.7385 0.60466 0.9676 0.0
C1080 C 0.74936 0.52789 0.88174 0.0
C1081 C 0.72854 0.53394 0.87213 0.0
C1082 C 0.75718 0.53856 0.90056 0.0
C1083 C 0.74429 0.55537 0.9102 0.0
C1084 C 0.72254 0.55991 0.90183 0.0
C1085 C 0.71474 0.5493 0.88299 0.0
C1086 C 0.78428 0.59724 0.93409 0.0
C1087 C 0.77038 0.60736 0.94987 0.0
C1088 C 0.7765 0.57902 0.92245 0.0
C1089 C 0.75467 0.57054 0.92636 0.0
C1090 C 0.74172 0.57929 0.94362 0.0
C1091 C 0.74953 0.59749 0.95532 0.0
H1092 H 0.49435 0.71203 0.07594 0.0
H1093 H 0.55543 0.67295 0.08009 0.0
H1094 H 0.50797 0.7285 0.04233 0.0
H1095 H 0.56881 0.689 0.0458 0.0
H1096 H 0.59881 0.75535 0.02001 0.0
H1097 H 0.58353 0.72512 0.04104 0.0
H1098 H 0.52041 0.72967 0.00511 0.0
H1099 H 0.53562 0.76062 0.98436 0.0
C1100 C 0.51039 0.7064 0.0693 0.0
C1101 C 0.52412 0.69167 0.0811 0.0
C1102 C 0.51815 0.71574 0.04981 0.0
C1103 C 0.53978 0.7105 0.04159 0.0
C1104 C 0.55232 0.69382 0.05201 0.0
C1105 C 0.54457 0.6845 0.0716 0.0
C1106 C 0.58182 0.74967 0.01624 0.0
C1107 C 0.56823 0.76077 0.0009 0.0
C1108 C 0.5731 0.73208 0.02818 0.0
C1109 C 0.55058 0.72509 0.02502 0.0
C1110 C 0.53768 0.73491 0.00824 0.0
C1111 C 0.54642 0.75261 0.9963 0.0
H1112 H 0.25106 0.60379 0.01956 0.0
H1113 H 0.19423 0.60501 0.0645 0.0
H1114 H 0.26536 0.5708 0.03737 0.0
H1115 H 0.20867 0.57219 0.08229 0.0
H1116 H 0.29861 0.54666 0.10413 0.0
H1117 H 0.28247 0.56827 0.0745 0.0
H1118 H 0.21932 0.53276 0.08036 0.0
H1119 H 0.23536 0.51115 0.11018 0.0
C1120 C 0.24131 0.59679 0.0329 0.0
C1121 C 0.22172 0.60733 0.04091 0.0
C1122 C 0.24957 0.5779 0.0431 0.0
C1123 C 0.23831 0.56909 0.06137 0.0
C1124 C 0.21768 0.57851 0.06815 0.0
C1125 C 0.20947 0.59746 0.05804 0.0
C1126 C 0.2815 0.54301 0.09875 0.0
C1127 C 0.26813 0.52752 0.10989 0.0
C1128 C 0.27227 0.55533 0.08163 0.0
C1129 C 0.2495 0.55243 0.07536 0.0
C1130 C 0.23681 0.53556 0.08511 0.0
C1131 C 0.24608 0.52313 0.10214 0.0
H1132 H 0.75344 0.49133 0.09989 0.0
H1133 H 0.69395 0.44994 0.09612 0.0
H1134 H 0.76708 0.47606 0.06537 0.0
H1135 H 0.70774 0.43453 0.062 0.0
H1136 H 0.735 0.40268 0.0055 0.0
H1137 H 0.7206 0.43524 0.02401 0.0
H1138 H 0.78248 0.43913 0.06188 0.0
H1139 H 0.79702 0.40698 0.04323 0.0
C1140 C 0.74292 0.47946 0.09142 0.0
C1141 C 0.72293 0.47134 0.10112 0.0
C1142 C 0.7508 0.4707 0.07164 0.0
C1143 C 0.73878 0.45375 0.06119 0.0
C1144 C 0.71746 0.44759 0.06955 0.0
C1145 C 0.70961 0.4563 0.08932 0.0
C1146 C 0.74589 0.41093 0.01721 0.0
C1147 C 0.76686 0.40178 0.02345 0.0
C1148 C 0.73757 0.42958 0.02785 0.0
C1149 C 0.75011 0.43942 0.04482 0.0
C1150 C 0.77231 0.43197 0.04892 0.0
C1151 C 0.78061 0.41334 0.03832 0.0
H1152 H 0.9836 0.24104 0.30832 0.0
H1153 H 0.96837 0.18902 0.26241 0.0
H1154 H 0.99224 0.26544 0.27821 0.0
H1155 H 0.97665 0.214 0.23183 0.0
H1156 H 0.02122 0.26341 0.18851 0.0
H1157 H 0.00945 0.23533 0.21491 0.0
H1158 H 0.96989 0.28377 0.24971 0.0
H1159 H 0.98198 0.31164 0.22401 0.0
C1160 C 0.98223 0.23472 0.29178 0.0
C1161 C 0.97537 0.21304 0.28779 0.0
C1162 C 0.98692 0.24884 0.27446 0.0
C1163 C 0.98477 0.24174 0.25265 0.0
C1164 C 0.97842 0.2199 0.24851 0.0
C1165 C 0.97364 0.20566 0.26598 0.0
C1166 C 0.00969 0.26793 0.20159 0.0
C1167 C 0.00281 0.28986 0.20434 0.0
C1168 C 0.00292 0.25185 0.21665 0.0
C1169 C 0.98914 0.25749 0.23461 0.0
C1170 C 0.98098 0.27906 0.23634 0.0
C1171 C 0.98784 0.29506 0.22148 0.0
H1172 H 0.80098 0.96788 0.24718 0.0
H1173 H 0.74957 0.98462 0.29488 0.0
H1174 H 0.77308 0.97228 0.21778 0.0
H1175 H 0.72174 0.98782 0.26613 0.0
H1176 H 0.6748 0.00161 0.21186 0.0
H1177 H 0.7069 0.00612 0.23653 0.0
H1178 H 0.7419 0.95317 0.20343 0.0
H1179 H 0.71027 0.94984 0.17783 0.0
C1180 C 0.78384 0.97277 0.25135 0.0
C1181 C 0.7775 0.97586 0.27335 0.0
C1182 C 0.76777 0.97507 0.23455 0.0
C1183 C 0.745 0.98022 0.23948 0.0
C1184 C 0.73909 0.98424 0.26147 0.0
C1185 C 0.75514 0.98227 0.27812 0.0
C1186 C 0.68946 0.99107 0.2098 0.0
C1187 C 0.68997 0.97518 0.19316 0.0
C1188 C 0.70787 0.99357 0.22399 0.0
C1189 C 0.72698 0.97978 0.2223 0.0
C1190 C 0.72769 0.96431 0.20514 0.0
C1191 C 0.70947 0.96221 0.19058 0.0
H1192 H 0.98086 0.73602 0.18048 0.0
H1193 H 0.97184 0.69233 0.23551 0.0
H1194 H 0.00011 0.76244 0.20457 0.0
H1195 H 0.98973 0.71873 0.25952 0.0
H1196 H 0.01275 0.81199 0.26255 0.0
H1197 H 0.99566 0.78783 0.23483 0.0
H1198 H 0.0262 0.73177 0.26677 0.0
H1199 H 0.04179 0.75563 0.29482 0.0
C1200 C 0.98282 0.7322 0.19773 0.0
C1201 C 0.97521 0.71204 0.20611 0.0
C1202 C 0.99374 0.74731 0.21152 0.0
C1203 C 0.9969 0.74253 0.23392 0.0
C1204 C 0.98838 0.72268 0.24225 0.0
C1205 C 0.97794 0.70756 0.2285 0.0
C1206 C 0.01586 0.7945 0.26337 0.0
C1207 C 0.0282 0.78552 0.28089 0.0
C1208 C 0.00618 0.78068 0.24752 0.0
C1209 C 0.0091 0.75778 0.24886 0.0
C1210 C 0.02286 0.7492 0.26564 0.0
C1211 C 0.03197 0.76286 0.28163 0.0
H1212 H 0.20504 0.02897 0.2491 0.0
H1213 H 0.25832 0.01475 0.29568 0.0
H1214 H 0.23212 0.02471 0.21904 0.0
H1215 H 0.28543 0.01171 0.26612 0.0
H1216 H 0.32959 0.9955 0.20943 0.0
H1217 H 0.29936 0.99252 0.23642 0.0
H1218 H 0.26233 0.04407 0.20325 0.0
H1219 H 0.29205 0.04597 0.17552 0.0
C1220 C 0.22247 0.02474 0.25289 0.0
C1221 C 0.22955 0.02222 0.27473 0.0
C1222 C 0.23806 0.02252 0.2357 0.0
C1223 C 0.2611 0.01807 0.24007 0.0
C1224 C 0.26784 0.01476 0.26195 0.0
C1225 C 0.25224 0.01662 0.27902 0.0
C1226 C 0.31493 0.00614 0.20792 0.0
C1227 C 0.31324 0.02112 0.19053 0.0
C1228 C 0.29759 0.0045 0.22342 0.0
C1229 C 0.27839 0.01819 0.22223 0.0
C1230 C 0.27661 0.03298 0.20457 0.0
C1231 C 0.29376 0.03426 0.18877 0.0
H1232 H 0.01253 0.72282 0.81466 0.0
H1233 H 0.03405 0.68516 0.75844 0.0
H1234 H 0.99604 0.75052 0.79013 0.0
H1235 H 0.01925 0.7131 0.73411 0.0
H1236 H 0.96786 0.74849 0.6952 0.0
H1237 H 0.98377 0.72375 0.72209 0.0
H1238 H 0.00124 0.77891 0.76347 0.0
H1239 H 0.98371 0.80379 0.7367 0.0
C1240 C 0.01406 0.72074 0.79707 0.0
C1241 C 0.02415 0.7018 0.78833 0.0
C1242 C 0.00474 0.73659 0.78302 0.0
C1243 C 0.00582 0.73384 0.76009 0.0
C1244 C 0.01725 0.71542 0.75161 0.0
C1245 C 0.02594 0.69946 0.76554 0.0
C1246 C 0.97504 0.75535 0.71007 0.0
C1247 C 0.97482 0.77802 0.7138 0.0
C1248 C 0.98438 0.74118 0.72546 0.0
C1249 C 0.9944 0.74931 0.74477 0.0
C1250 C 0.99366 0.77206 0.74881 0.0
C1251 C 0.98374 0.78631 0.73349 0.0
H1252 H 0.25484 0.97656 0.70124 0.0
H1253 H 0.20557 0.95684 0.74989 0.0
H1254 H 0.28237 0.98332 0.72965 0.0
H1255 H 0.2333 0.96442 0.7789 0.0
H1256 H 0.30054 0.94938 0.81739 0.0
H1257 H 0.2676 0.9487 0.793 0.0
H1258 H 0.29379 0.00545 0.75882 0.0
H1259 H 0.32712 0.00524 0.78235 0.0
C1260 C 0.24963 0.97423 0.71811 0.0
C1261 C 0.22794 0.96618 0.72326 0.0
C1262 C 0.2655 0.97824 0.73453 0.0
C1263 C 0.26013 0.97451 0.75669 0.0
C1264 C 0.2381 0.96724 0.76199 0.0
C1265 C 0.22215 0.96307 0.74541 0.0
C1266 C 0.29904 0.96181 0.80478 0.0
C1267 C 0.31653 0.97709 0.80144 0.0
C1268 C 0.2801 0.96154 0.79089 0.0
C1269 C 0.27817 0.9768 0.77366 0.0
C1270 C 0.295 0.99303 0.77146 0.0
C1271 C 0.31408 0.99299 0.78499 0.0
H1272 H 0.02923 0.18393 0.74098 0.0
H1273 H 0.00826 0.22978 0.69087 0.0
H1274 H 0.01767 0.21021 0.76928 0.0
H1275 H 0.99606 0.25532 0.7188 0.0
H1276 H 0.00351 0.30703 0.76914 0.0
H1277 H 0.01605 0.27843 0.74449 0.0
H1278 H 0.98444 0.22959 0.78572 0.0
H1279 H 0.97248 0.25847 0.81117 0.0
C1280 C 0.02183 0.1994 0.736 0.0
C1281 C 0.01971 0.20478 0.71365 0.0
C1282 C 0.01517 0.21439 0.75219 0.0
C1283 C 0.00632 0.23495 0.74624 0.0
C1284 C 0.00334 0.23983 0.72392 0.0
C1285 C 0.01009 0.22501 0.70785 0.0
C1286 C 0.99952 0.29024 0.77328 0.0
C1287 C 0.98693 0.28508 0.79212 0.0
C1288 C 0.00652 0.27381 0.75896 0.0
C1289 C 0.00083 0.25181 0.76293 0.0
C1290 C 0.98907 0.24643 0.78225 0.0
C1291 C 0.98219 0.26296 0.79676 0.0
H1292 H 0.79111 0.02649 0.75661 0.0
H1293 H 0.73981 0.01427 0.70744 0.0
H1294 H 0.76242 0.02266 0.78535 0.0
H1295 H 0.71122 0.01154 0.73567 0.0
H1296 H 0.66389 0.99543 0.78956 0.0
H1297 H 0.69572 0.99186 0.76445 0.0
H1298 H 0.7316 0.04268 0.79988 0.0
H1299 H 0.70014 0.04523 0.82577 0.0
C1300 C 0.77378 0.02277 0.75196 0.0
C1301 C 0.76774 0.02068 0.72977 0.0
C1302 C 0.75728 0.02079 0.76839 0.0
C1303 C 0.73439 0.01694 0.7629 0.0
C1304 C 0.72865 0.0141 0.74069 0.0
C1305 C 0.74512 0.01579 0.72438 0.0
C1306 C 0.67864 0.00576 0.79202 0.0
C1307 C 0.67945 0.02079 0.80944 0.0
C1308 C 0.6969 0.00378 0.77758 0.0
C1309 C 0.71621 0.01717 0.77989 0.0
C1310 C 0.7172 0.03187 0.79771 0.0
C1311 C 0.69908 0.0335 0.81245 0.0
H1312 H 0.26322 0.29699 0.98581 0.0
H1313 H 0.20986 0.24998 0.9735 0.0
H1314 H 0.29081 0.26776 0.98709 0.0
H1315 H 0.23744 0.22018 0.9762 0.0
H1316 H 0.29636 0.17632 0.95345 0.0
H1317 H 0.26665 0.20406 0.95617 0.0
H1318 H 0.30634 0.23853 0.00503 0.0
H1319 H 0.33649 0.21167 0.00099 0.0
C1320 C 0.25726 0.28028 0.98402 0.0
C1321 C 0.23436 0.27581 0.97945 0.0
C1322 C 0.27315 0.26338 0.98487 0.0
C1323 C 0.26652 0.24144 0.98166 0.0
C1324 C 0.24333 0.23687 0.97825 0.0
C1325 C 0.22743 0.25391 0.97696 0.0
C1326 C 0.29866 0.18993 0.96467 0.0
C1327 C 0.31883 0.19209 0.97672 0.0
C1328 C 0.28153 0.20573 0.96646 0.0
C1329 C 0.28401 0.22375 0.98076 0.0
C1330 C 0.30398 0.22533 0.99337 0.0
C1331 C 0.32129 0.20988 0.99114 0.0
H1332 H 0.19911 0.75229 0.02016 0.0
H1333 H 0.25478 0.70656 0.0141 0.0
H1334 H 0.22433 0.7822 0.00913 0.0
H1335 H 0.28001 0.73612 0.00441 0.0
H1336 H 0.32116 0.78897 0.97599 0.0
H1337 H 0.29156 0.76135 0.97879 0.0
H1338 H 0.25418 0.80344 0.02316 0.0
H1339 H 0.28323 0.83166 0.01897 0.0
C1340 C 0.21666 0.74863 0.01633 0.0
C1341 C 0.22494 0.72709 0.01794 0.0
C1342 C 0.23118 0.76576 0.01019 0.0
C1343 C 0.25431 0.76169 0.00589 0.0
C1344 C 0.26228 0.73998 0.00704 0.0
C1345 C 0.24776 0.72293 0.01278 0.0
C1346 C 0.30649 0.79233 0.98618 0.0
C1347 C 0.30457 0.81226 -0.0025 0.0
C1348 C 0.28954 0.77647 0.9879 0.0
C1349 C 0.27057 0.77989 0.00155 0.0
C1350 C 0.26835 0.80023 0.01231 0.0
C1351 C 0.28508 0.81636 0.01009 0.0
H1352 H 0.73542 0.29787 0.00208 0.0
H1353 H 0.78165 0.25667 0.03851 0.0
H1354 H 0.70882 0.26763 -0.00088 0.0
H1355 H 0.75455 0.22652 0.03631 0.0
H1356 H 0.70706 0.1716 0.01444 0.0
H1357 H 0.73571 0.20037 0.01326 0.0
H1358 H 0.68348 0.24916 0.02335 0.0
H1359 H 0.65482 0.22052 0.02385 0.0
C1360 C 0.74003 0.2823 0.00929 0.0
C1361 C 0.76065 0.27972 0.02058 0.0
C1362 C 0.72463 0.26499 0.0078 0.0
C1363 C 0.72935 0.24473 0.01779 0.0
C1364 C 0.75041 0.24185 0.0283 0.0
C1365 C 0.76594 0.25915 0.02961 0.0
C1366 C 0.70168 0.18848 0.01642 0.0
C1367 C 0.6786 0.19375 0.01921 0.0
C1368 C 0.71814 0.20497 0.0158 0.0
C1369 C 0.71192 0.2271 0.01809 0.0
C1370 C 0.68885 0.23233 0.02106 0.0
C1371 C 0.67239 0.21587 0.02152 0.0
H1372 H 0.74922 0.70972 0.99359 0.0
H1373 H 0.78329 0.75179 0.94716 0.0
H1374 H 0.72144 0.73824 0.0007 0.0
H1375 H 0.7551 0.78051 0.95408 0.0
H1376 H 0.70642 0.83199 0.98468 0.0
H1377 H 0.73803 0.80627 0.98096 0.0
H1378 H 0.69053 0.75236 0.97825 0.0
H1379 H 0.65911 0.77778 0.98231 0.0
C1380 C 0.75085 0.7251 0.98496 0.0
C1381 C 0.76814 0.72834 0.96948 0.0
C1382 C 0.73488 0.74146 0.98901 0.0
C1383 C 0.73575 0.76141 0.97754 0.0
C1384 C 0.75398 0.76528 0.96315 0.0
C1385 C 0.77011 0.74887 0.9592 0.0
C1386 C 0.70273 0.81463 0.98326 0.0
C1387 C 0.6802 0.80694 0.9839 0.0
C1388 C 0.72085 0.79995 0.98108 0.0
C1389 C 0.71679 0.77729 0.97959 0.0
C1390 C 0.69426 0.76969 0.97986 0.0
C1391 C 0.6762 0.7843 0.98201 0.0
H1392 H 0.49427 0.73428 0.81063 0.0
H1393 H 0.47418 0.68547 0.76296 0.0
H1394 H 0.50403 0.75929 0.78138 0.0
H1395 H 0.48353 0.71115 0.7333 0.0
H1396 H 0.52777 0.76055 0.68998 0.0
H1397 H 0.51663 0.73177 0.71591 0.0
H1398 H 0.4812 0.77999 0.75495 0.0
H1399 H 0.49273 0.8085 0.72978 0.0
C1400 C 0.49212 0.72876 0.7939 0.0
C1401 C 0.48345 0.70784 0.78917 0.0
C1402 C 0.49748 0.74325 0.77709 0.0
C1403 C 0.49414 0.73732 0.75506 0.0
C1404 C 0.48623 0.71613 0.75015 0.0
C1405 C 0.48085 0.7015 0.76711 0.0
C1406 C 0.51732 0.7649 0.70394 0.0
C1407 C 0.51134 0.78689 0.70792 0.0
C1408 C 0.51092 0.74842 0.71873 0.0
C1409 C 0.49844 0.75374 0.73765 0.0
C1410 C 0.49129 0.77548 0.74078 0.0
C1411 C 0.49777 0.79185 0.72619 0.0
H1412 H 0.24974 0.49459 0.79294 0.0
H1413 H 0.29274 0.45532 0.75101 0.0
H1414 H 0.22266 0.49878 0.76324 0.0
H1415 H 0.26515 0.459 0.72131 0.0
H1416 H 0.16588 0.47494 0.71919 0.0
H1417 H 0.19597 0.47391 0.74638 0.0
H1418 H 0.24598 0.48351 0.69544 0.0
H1419 H 0.2158 0.48407 0.66798 0.0
C1420 C 0.25359 0.48708 0.7773 0.0
C1421 C 0.27334 0.47449 0.77442 0.0
C1422 C 0.23792 0.4893 0.76031 0.0
C1423 C 0.2415 0.47883 0.74006 0.0
C1424 C 0.26189 0.46729 0.73671 0.0
C1425 C 0.27769 0.46518 0.75374 0.0
C1426 C 0.18327 0.47677 0.7137 0.0
C1427 C 0.18838 0.47965 0.69137 0.0
C1428 C 0.20054 0.47637 0.72935 0.0
C1429 C 0.22337 0.47895 0.72312 0.0
C1430 C 0.22857 0.48141 0.70076 0.0
C1431 C 0.21126 0.48177 0.68504 0.0
H1432 H 0.50597 0.26355 0.8121 0.0
H1433 H 0.53253 0.30959 0.76473 0.0
H1434 H 0.49346 0.23979 0.78255 0.0
H1435 H 0.52063 0.28529 0.73499 0.0
H1436 H 0.47548 0.2434 0.6882 0.0
H1437 H 0.48753 0.26964 0.71623 0.0
H1438 H 0.51182 0.21616 0.75636 0.0
H1439 H 0.49917 0.19012 0.72895 0.0
C1440 C 0.50901 0.2687 0.79538 0.0
C1441 C 0.52025 0.28846 0.79079 0.0
C1442 C 0.50206 0.25494 0.77841 0.0
C1443 C 0.50637 0.2605 0.75643 0.0
C1444 C 0.51698 0.2806 0.75176 0.0
C1445 C 0.52385 0.29447 0.76879 0.0
C1446 C 0.48359 0.23731 0.70294 0.0
C1447 C 0.48632 0.21466 0.70636 0.0
C1448 C 0.49053 0.25233 0.71896 0.0
C1449 C 0.50032 0.24495 0.73865 0.0
C1450 C 0.50384 0.22236 0.7416 0.0
C1451 C 0.49682 0.2074 0.72572 0.0
H1452 H 0.80781 0.53369 0.65719 0.0
H1453 H 0.84531 0.519 0.71638 0.0
H1454 H 0.77218 0.52858 0.6771 0.0
H1455 H 0.81002 0.51451 0.7362 0.0
H1456 H 0.71815 0.54723 0.73134 0.0
H1457 H 0.74969 0.54619 0.70534 0.0
H1458 H 0.77811 0.49077 0.73998 0.0
H1459 H 0.74704 0.49241 0.76626 0.0
C1460 C 0.80848 0.52944 0.67442 0.0
C1461 C 0.82945 0.52675 0.68517 0.0
C1462 C 0.78805 0.52653 0.68582 0.0
C1463 C 0.7882 0.52088 0.70819 0.0
C1464 C 0.8092 0.51828 0.71886 0.0
C1465 C 0.82952 0.5211 0.7075 0.0
C1466 C 0.73081 0.53445 0.73295 0.0
C1467 C 0.73047 0.52018 0.75101 0.0
C1468 C 0.74892 0.53385 0.71808 0.0
C1469 C 0.76678 0.51878 0.72094 0.0
C1470 C 0.76505 0.50307 0.73775 0.0
C1471 C 0.74718 0.5039 0.75274 0.0
H1472 H 0.48911 0.19826 0.28844 0.0
H1473 H 0.55144 0.23306 0.30171 0.0
H1474 H 0.47663 0.22813 0.26453 0.0
H1475 H 0.53915 0.26278 0.27725 0.0
H1476 H 0.51825 0.2791 0.20114 0.0
H1477 H 0.53084 0.25712 0.23241 0.0
H1478 H 0.46918 0.27329 0.26706 0.0
H1479 H 0.45677 0.2958 0.23591 0.0
C1480 C 0.5 0.21241 0.28638 0.0
C1481 C 0.52129 0.21336 0.29665 0.0
C1482 C 0.4928 0.22953 0.2729 0.0
C1483 C 0.507 0.2476 0.26912 0.0
C1484 C 0.52795 0.24896 0.28002 0.0
C1485 C 0.5349 0.23207 0.29399 0.0
C1486 C 0.50755 0.2782 0.21553 0.0
C1487 C 0.48646 0.28888 0.21609 0.0
C1488 C 0.51483 0.26583 0.23346 0.0
C1489 C 0.50091 0.2636 0.252 0.0
C1490 C 0.48017 0.27488 0.25289 0.0
C1491 C 0.47314 0.28772 0.23516 0.0
H1492 H 0.83294 0.49911 0.28727 0.0
H1493 H 0.79978 0.44419 0.31839 0.0
H1494 H 0.8015 0.50256 0.26175 0.0
H1495 H 0.76877 0.44666 0.29191 0.0
H1496 H 0.70928 0.46237 0.2482 0.0
H1497 H 0.73688 0.46552 0.27802 0.0
H1498 H 0.78837 0.48438 0.23105 0.0
H1499 H 0.76078 0.48233 0.20186 0.0
C1500 C 0.81896 0.48762 0.28849 0.0
C1501 C 0.81891 0.47119 0.30459 0.0
C1502 C 0.80093 0.48954 0.2738 0.0
C1503 C 0.78266 0.47469 0.27447 0.0
C1504 C 0.78237 0.45856 0.29101 0.0
C1505 C 0.80022 0.45698 0.30608 0.0
C1506 C 0.72641 0.46764 0.24443 0.0
C1507 C 0.73284 0.47212 0.2227 0.0
C1508 C 0.74229 0.46923 0.26146 0.0
C1509 C 0.76496 0.47509 0.25702 0.0
C1510 C 0.77104 0.48024 0.23531 0.0
C1511 C 0.75517 0.47895 0.21844 0.0
H1512 H 0.49783 0.72857 0.18034 0.0
H1513 H 0.52712 0.68542 0.22895 0.0
H1514 H 0.48814 0.75466 0.20883 0.0
H1515 H 0.51769 0.71207 0.25768 0.0
H1516 H 0.47488 0.76088 0.30234 0.0
H1517 H 0.48449 0.73127 0.27673 0.0
H1518 H 0.51217 0.77887 0.23164 0.0
H1519 H 0.50228 0.8082 0.25669 0.0
C1520 C 0.50196 0.72448 0.19714 0.0
C1521 C 0.51333 0.70493 0.20234 0.0
C1522 C 0.4966 0.73958 0.21346 0.0
C1523 C 0.50255 0.73557 0.2354 0.0
C1524 C 0.51295 0.71557 0.24087 0.0
C1525 C 0.51836 0.70037 0.22444 0.0
C1526 C 0.48328 0.76494 0.28707 0.0
C1527 C 0.48769 0.78691 0.2815 0.0
C1528 C 0.4888 0.748 0.27247 0.0
C1529 C 0.4987 0.75284 0.25207 0.0
C1530 C 0.50409 0.7747 0.24706 0.0
C1531 C 0.49861 0.79152 0.26155 0.0
H1532 H 0.25278 0.48384 0.21266 0.0
H1533 H 0.29168 0.5291 0.25212 0.0
H1534 H 0.22535 0.47996 0.24214 0.0
H1535 H 0.26384 0.52556 0.28167 0.0
H1536 H 0.16555 0.50654 0.28091 0.0
H1537 H 0.19694 0.50578 0.25519 0.0
H1538 H 0.24451 0.50214 0.30902 0.0
H1539 H 0.21295 0.5033 0.33503 0.0
C1540 C 0.25563 0.49277 0.22773 0.0
C1541 C 0.27413 0.50708 0.22992 0.0
C1542 C 0.23984 0.49062 0.24462 0.0
C1543 C 0.2421 0.50291 0.26399 0.0
C1544 C 0.26161 0.51591 0.26691 0.0
C1545 C 0.27756 0.51791 0.25 0.0
C1546 C 0.18266 0.50562 0.28736 0.0
C1547 C 0.18667 0.50493 0.31007 0.0
C1548 C 0.20068 0.50497 0.27258 0.0
C1549 C 0.22321 0.50355 0.28007 0.0
C1550 C 0.22734 0.50324 0.30277 0.0
C1551 C 0.20924 0.50389 0.31763 0.0
H1552 H 0.7797 0.65636 0.48665 0.0
H1553 H 0.82608 0.71099 0.49317 0.0
H1554 H 0.74771 0.68203 0.48557 0.0
H1555 H 0.7944 0.73629 0.49192 0.0
H1556 H 0.70648 0.74208 0.45381 0.0
H1557 H 0.73265 0.71157 0.46032 0.0
H1558 H 0.76173 0.74672 0.51507 0.0
H1559 H 0.73591 0.77709 0.50842 0.0
C1560 C 0.78309 0.67378 0.48786 0.0
C1561 C 0.80547 0.68161 0.49001 0.0
C1562 C 0.76478 0.68843 0.48722 0.0
C1563 C 0.76854 0.71111 0.48896 0.0
C1564 C 0.7909 0.71886 0.49102 0.0
C1565 C 0.80911 0.70433 0.49152 0.0
C1566 C 0.71804 0.74296 0.4676 0.0
C1567 C 0.7196 0.76216 0.48028 0.0
C1568 C 0.73302 0.72552 0.47132 0.0
C1569 C 0.7496 0.72706 0.48784 0.0
C1570 C 0.74954 0.74537 0.50182 0.0
C1571 C 0.73475 0.76278 0.49802 0.0
H1572 H 0.75847 0.21031 0.4991 0.0
H1573 H 0.71584 0.25252 0.53841 0.0
H1574 H 0.78591 0.23978 0.49511 0.0
H1575 H 0.74374 0.28187 0.53507 0.0
H1576 H 0.79462 0.33474 0.51404 0.0
H1577 H 0.7639 0.30792 0.51234 0.0
H1578 H 0.81267 0.25554 0.52015 0.0
H1579 H 0.84327 0.28213 0.52126 0.0
C1580 C 0.75478 0.22598 0.50663 0.0
C1581 C 0.73509 0.22899 0.51926 0.0
C1582 C 0.77064 0.24284 0.50453 0.0
C1583 C 0.7673 0.26302 0.51522 0.0
C1584 C 0.74685 0.26654 0.5266 0.0
C1585 C 0.73085 0.2497 0.52853 0.0
C1586 C 0.79876 0.3175 0.51544 0.0
C1587 C 0.82144 0.3106 0.51774 0.0
C1588 C 0.78114 0.30213 0.51448 0.0
C1589 C 0.78582 0.27956 0.51585 0.0
C1590 C 0.80847 0.27275 0.51848 0.0
C1591 C 0.82604 0.28805 0.51934 0.0
H1592 H 0.29379 0.74533 0.53694 0.0
H1593 H 0.25702 0.78126 0.48732 0.0
H1594 H 0.26559 0.71611 0.53521 0.0
H1595 H 0.22929 0.75183 0.48502 0.0
H1596 H 0.16782 0.71707 0.51449 0.0
H1597 H 0.19974 0.74175 0.51007 0.0
H1598 H 0.24617 0.68713 0.5156 0.0
H1599 H 0.21407 0.66232 0.52064 0.0
C1600 C 0.28011 0.74665 0.52513 0.0
C1601 C 0.27735 0.76576 0.51256 0.0
C1602 C 0.26393 0.72989 0.52413 0.0
C1603 C 0.24487 0.7319 0.51036 0.0
C1604 C 0.24339 0.7501 0.4963 0.0
C1605 C 0.25938 0.76692 0.49749 0.0
C1606 C 0.1848 0.71024 0.51473 0.0
C1607 C 0.18834 0.6877 0.518 0.0
C1608 C 0.20315 0.7244 0.51195 0.0
C1609 C 0.22554 0.71639 0.51223 0.0
C1610 C 0.22914 0.69383 0.51542 0.0
C1611 C 0.21073 0.67963 0.51829 0.0
H1612 H 0.16569 0.28753 0.49777 0.0
H1613 H 0.19436 0.32015 0.44136 0.0
H1614 H 0.19823 0.26313 0.49925 0.0
H1615 H 0.22663 0.29484 0.44206 0.0
H1616 H 0.28822 0.25117 0.45586 0.0
H1617 H 0.26036 0.28082 0.46 0.0
H1618 H 0.20932 0.23307 0.47778 0.0
H1619 H 0.23684 0.2041 0.47435 0.0
C1620 C 0.17897 0.2894 0.48561 0.0
C1621 C 0.17735 0.30546 0.46922 0.0
C1622 C 0.19762 0.27539 0.48641 0.0
C1623 C 0.21486 0.2767 0.4705 0.0
C1624 C 0.21374 0.29344 0.45465 0.0
C1625 C 0.1952 0.30783 0.45412 0.0
C1626 C 0.27112 0.24718 0.46101 0.0
C1627 C 0.26482 0.22531 0.46499 0.0
C1628 C 0.25513 0.26411 0.46323 0.0
C1629 C 0.2326 0.25938 0.46939 0.0
C1630 C 0.22659 0.23749 0.47359 0.0
C1631 C 0.24246 0.22076 0.47153 0.0
H1632 H 0.08729 0.36044 0.12201 0.0
H1633 H 0.05882 0.30334 0.09019 0.0
H1634 H 0.11812 0.36093 0.09532 0.0
H1635 H 0.08981 0.30374 0.06365 0.0
H1636 H 0.13674 0.32474 0.00754 0.0
H1637 H 0.10505 0.32587 0.03314 0.0
H1638 H 0.15161 0.33794 0.08654 0.0
H1639 H 0.18343 0.33706 0.06092 0.0
C1640 C 0.08751 0.34807 0.10925 0.0
C1641 C 0.07061 0.3318 0.10826 0.0
C1642 C 0.10529 0.34826 0.09406 0.0
C1643 C 0.10648 0.33229 0.07748 0.0
C1644 C 0.08927 0.31637 0.07614 0.0
C1645 C 0.07155 0.3161 0.0914 0.0
C1646 C 0.14029 0.32766 0.02473 0.0
C1647 C 0.16269 0.33079 0.03216 0.0
C1648 C 0.12209 0.3282 0.03941 0.0
C1649 C 0.12582 0.33199 0.06185 0.0
C1650 C 0.14817 0.33523 0.0693 0.0
C1651 C 0.16642 0.33458 0.05462 0.0
H1652 H 0.65135 0.0263 0.10336 0.0
H1653 H 0.60978 0.04878 0.15736 0.0
H1654 H 0.64962 0.06223 0.08698 0.0
H1655 H 0.60864 0.08545 0.14108 0.0
H1656 H 0.5848 0.13283 0.0839 0.0
H1657 H 0.59121 0.10304 0.10998 0.0
H1658 H 0.66126 0.09911 0.08905 0.0
H1659 H 0.65433 0.12804 0.06232 0.0
C1660 C 0.6421 0.03902 0.11197 0.0
C1661 C 0.63055 0.03452 0.13163 0.0
C1662 C 0.64133 0.05983 0.10265 0.0
C1663 C 0.62914 0.07689 0.11277 0.0
C1664 C 0.61807 0.07264 0.13278 0.0
C1665 C 0.61877 0.05165 0.14213 0.0
C1666 C 0.6017 0.12598 0.08544 0.0
C1667 C 0.61899 0.13232 0.07096 0.0
C1668 C 0.60543 0.10892 0.10038 0.0
C1669 C 0.62661 0.09824 0.10119 0.0
C1670 C 0.64453 0.10645 0.08833 0.0
C1671 C 0.64066 0.12311 0.07313 0.0
H1672 H 0.87211 0.68904 0.12989 0.0
H1673 H 0.92216 0.64908 0.0968 0.0
H1674 H 0.84799 0.68767 0.09759 0.0
H1675 H 0.89768 0.64747 0.06439 0.0
H1676 H 0.85677 0.67222 0.00355 0.0
H1677 H 0.8823 0.67169 0.03512 0.0
H1678 H 0.82513 0.66054 0.07806 0.0
H1679 H 0.79962 0.66139 0.04677 0.0
C1680 C 0.87796 0.67989 0.11574 0.0
C1681 C 0.89903 0.66911 0.11595 0.0
C1682 C 0.86405 0.67901 0.09725 0.0
C1683 C 0.87085 0.66732 0.0785 0.0
C1684 C 0.89205 0.65671 0.07856 0.0
C1685 C 0.906 0.65755 0.09714 0.0
C1686 C 0.84966 0.66953 0.01971 0.0
C1687 C 0.82609 0.66705 0.02262 0.0
C1688 C 0.86431 0.66913 0.03778 0.0
C1689 C 0.85569 0.66628 0.05909 0.0
C1690 C 0.83224 0.66318 0.06189 0.0
C1691 C 0.81763 0.66356 0.0439 0.0
H1692 H 0.35391 0.89773 0.02639 0.0
H1693 H 0.38154 0.84984 0.07129 0.0
H1694 H 0.34834 0.92306 0.05625 0.0
H1695 H 0.37607 0.8758 0.10169 0.0
H1696 H 0.3944 0.94587 0.13428 0.0
H1697 H 0.39358 0.91239 0.11211 0.0
H1698 H 0.3261 0.92884 0.08977 0.0
H1699 H 0.32715 0.96241 0.11135 0.0
C1700 C 0.35833 0.89234 0.04272 0.0
C1701 C 0.36795 0.8716 0.0464 0.0
C1702 C 0.35507 0.90694 0.05995 0.0
C1703 C 0.36152 0.90136 0.0814 0.0
C1704 C 0.3709 0.88051 0.08531 0.0
C1705 C 0.37395 0.86567 0.06795 0.0
C1706 C 0.37918 0.942 0.12508 0.0
C1707 C 0.36106 0.95697 0.1241 0.0
C1708 C 0.37867 0.92279 0.11246 0.0
C1709 C 0.35996 0.91826 0.09886 0.0
C1710 C 0.34096 0.93217 0.09971 0.0
C1711 C 0.34156 0.95138 0.11207 0.0
H1712 H 0.05794 0.6841 0.90898 0.0
H1713 H 0.09135 0.62789 0.88017 0.0
H1714 H 0.08617 0.68473 0.93824 0.0
H1715 H 0.11941 0.62845 0.90957 0.0
H1716 H 0.18115 0.65801 0.94609 0.0
H1717 H 0.15081 0.65368 0.9193 0.0
H1718 H 0.1009 0.66393 0.97018 0.0
H1719 H 0.13118 0.66839 0.99703 0.0
C1720 C 0.07109 0.67168 0.90906 0.0
C1721 C 0.07251 0.65608 0.89213 0.0
C1722 C 0.08721 0.672 0.92588 0.0
C1723 C 0.10513 0.65677 0.92606 0.0
C1724 C 0.106 0.64061 0.90965 0.0
C1725 C 0.08983 0.64022 0.8929 0.0
C1726 C 0.16373 0.65927 0.95164 0.0
C1727 C 0.15867 0.66371 0.97374 0.0
C1728 C 0.14633 0.65663 0.93629 0.0
C1729 C 0.12347 0.65846 0.94265 0.0
C1730 C 0.11837 0.66265 0.96476 0.0
C1731 C 0.13576 0.66517 0.98014 0.0
H1732 H 0.35635 0.03123 0.88622 0.0
H1733 H 0.3976 0.05675 0.8334 0.0
H1734 H 0.35637 0.06679 0.90363 0.0
H1735 H 0.39713 0.09296 0.85082 0.0
H1736 H 0.41802 0.13928 0.91053 0.0
H1737 H 0.41351 0.11006 0.88334 0.0
H1738 H 0.34294 0.10348 0.90169 0.0
H1739 H 0.34789 0.13195 0.92937 0.0
C1740 C 0.3652 0.04452 0.87811 0.0
C1741 C 0.37712 0.041 0.85845 0.0
C1742 C 0.36499 0.06509 0.88802 0.0
C1743 C 0.3766 0.08287 0.87856 0.0
C1744 C 0.3881 0.07959 0.85859 0.0
C1745 C 0.3883 0.05886 0.84859 0.0
C1746 C 0.4014 0.13204 0.90814 0.0
C1747 C 0.38337 0.13751 0.92214 0.0
C1748 C 0.39878 0.11529 0.89259 0.0
C1749 C 0.378 0.104 0.89074 0.0
C1750 C 0.35936 0.11135 0.90317 0.0
C1751 C 0.3621 0.12774 0.91891 0.0
H1752 H 0.80036 0.33495 0.93492 0.0
H1753 H 0.85364 0.33098 0.98361 0.0
H1754 H 0.82875 0.33445 0.90594 0.0
H1755 H 0.88199 0.33008 0.9545 0.0
H1756 H 0.92655 0.35167 0.89608 0.0
H1757 H 0.89862 0.35331 0.9257 0.0
H1758 H 0.85544 0.30844 0.89005 0.0
H1759 H 0.883 0.3071 0.86041 0.0
C1760 C 0.81811 0.33391 0.93947 0.0
C1761 C 0.82468 0.33294 0.96162 0.0
C1762 C 0.83438 0.33352 0.92283 0.0
C1763 C 0.85761 0.33213 0.92793 0.0
C1764 C 0.86424 0.33138 0.95006 0.0
C1765 C 0.84795 0.33176 0.96673 0.0
C1766 C 0.91109 0.34216 0.89461 0.0
C1767 C 0.90695 0.32933 0.87587 0.0
C1768 C 0.89516 0.34302 0.9116 0.0
C1769 C 0.87478 0.33109 0.91015 0.0
C1770 C 0.87079 0.31811 0.8915 0.0
C1771 C 0.88668 0.31725 0.87456 0.0
H1772 H 0.62376 0.89406 0.96731 0.0
H1773 H 0.60295 0.84816 0.91711 0.0
H1774 H 0.62984 0.92186 0.93983 0.0
H1775 H 0.60901 0.87661 0.88914 0.0
H1776 H 0.59246 0.94758 0.85802 0.0
H1777 H 0.59128 0.91341 0.87911 0.0
H1778 H 0.65546 0.93001 0.9091 0.0
H1779 H 0.65639 0.96417 0.88858 0.0
C1780 C 0.62088 0.88971 0.95033 0.0
C1781 C 0.61319 0.86873 0.94442 0.0
C1782 C 0.62442 0.90574 0.9345 0.0
C1783 C 0.62024 0.90135 0.91226 0.0
C1784 C 0.61244 0.8804 0.90618 0.0
C1785 C 0.60904 0.86415 0.92215 0.0
C1786 C 0.60653 0.94365 0.86876 0.0
C1787 C 0.62426 0.95876 0.87205 0.0
C1788 C 0.6059 0.92406 0.88076 0.0
C1789 C 0.62306 0.91928 0.89607 0.0
C1790 C 0.64173 0.93351 0.8978 0.0
C1791 C 0.64226 0.95307 0.88603 0.0
H1792 H 0.11967 0.06607 0.34937 0.0
H1793 H 0.14481 0.11192 0.30107 0.0
H1794 H 0.08562 0.08861 0.35409 0.0
H1795 H 0.11085 0.13413 0.30562 0.0
H1796 H 0.06222 0.1815 0.33806 0.0
H1797 H 0.09494 0.1576 0.33453 0.0
H1798 H 0.05087 0.10101 0.3336 0.0
H1799 H 0.01779 0.12503 0.3374 0.0
C1800 C 0.11792 0.08089 0.33973 0.0
C1801 C 0.13502 0.08728 0.32494 0.0
C1802 C 0.09837 0.09371 0.34235 0.0
C1803 C 0.09564 0.1132 0.33033 0.0
C1804 C 0.11262 0.11938 0.31537 0.0
C1805 C 0.13205 0.10657 0.3127 0.0
C1806 C 0.05937 0.16398 0.33717 0.0
C1807 C 0.03729 0.15523 0.33789 0.0
C1808 C 0.07819 0.15028 0.33503 0.0
C1809 C 0.07547 0.12745 0.33358 0.0
C1810 C 0.05348 0.11856 0.33478 0.0
C1811 C 0.03454 0.13232 0.33686 0.0
H1812 H 0.91558 0.11939 0.36605 0.0
H1813 H 0.94447 0.09212 0.30682 0.0
H1814 H 0.88795 0.08964 0.36713 0.0
H1815 H 0.91666 0.0625 0.30784 0.0
H1816 H 0.87368 0.00287 0.32608 0.0
H1817 H 0.904 0.02997 0.32882 0.0
H1818 H 0.85463 0.07997 0.34442 0.0
H1819 H 0.8243 0.05294 0.34192 0.0
C1820 C 0.91623 0.10693 0.3534 0.0
C1821 C 0.93213 0.10824 0.33624 0.0
C1822 C 0.90028 0.08997 0.35395 0.0
C1823 C 0.89997 0.07387 0.33745 0.0
C1824 C 0.91654 0.0746 0.32086 0.0
C1825 C 0.93243 0.09162 0.32024 0.0
C1826 C 0.86926 0.01962 0.3302 0.0
C1827 C 0.8465 0.02572 0.33371 0.0
C1828 C 0.88666 0.03515 0.33168 0.0
C1829 C 0.88171 0.05709 0.33685 0.0
C1830 C 0.85902 0.06313 0.34068 0.0
C1831 C 0.84161 0.04764 0.33909 0.0
H1832 H 0.85948 0.88163 0.30112 0.0
H1833 H 0.88672 0.92876 0.34711 0.0
H1834 H 0.89329 0.85916 0.30538 0.0
H1835 H 0.92057 0.90597 0.35161 0.0
H1836 H 0.98769 0.86974 0.3334 0.0
H1837 H 0.95425 0.8933 0.33076 0.0
H1838 H 0.91093 0.83622 0.33334 0.0
H1839 H 0.94413 0.81269 0.33565 0.0
C1840 C 0.87265 0.88718 0.31221 0.0
C1841 C 0.87035 0.90697 0.32382 0.0
C1842 C 0.89199 0.87421 0.31475 0.0
C1843 C 0.90956 0.8807 0.32894 0.0
C1844 C 0.9074 0.9006 0.34044 0.0
C1845 C 0.88796 0.91359 0.33794 0.0
C1846 C 0.97103 0.86221 0.33352 0.0
C1847 C 0.96865 0.83928 0.3346 0.0
C1848 C 0.95187 0.87574 0.3321 0.0
C1849 C 0.92995 0.86661 0.33166 0.0
C1850 C 0.92759 0.84374 0.33325 0.0
C1851 C 0.94667 0.83025 0.33469 0.0
H1852 H 0.18109 0.94231 0.338 0.0
H1853 H 0.13285 0.9936 0.32283 0.0
H1854 H 0.15022 0.91577 0.33946 0.0
H1855 H 0.10199 0.96697 0.32448 0.0
H1856 H 0.08858 0.87763 0.36086 0.0
H1857 H 0.1165 0.90706 0.36239 0.0
H1858 H 0.08898 0.93459 0.30279 0.0
H1859 H 0.06087 0.90523 0.30128 0.0
C1860 C 0.16392 0.94796 0.33503 0.0
C1861 C 0.15948 0.97009 0.33026 0.0
C1862 C 0.14622 0.93277 0.33605 0.0
C1863 C 0.12369 0.93933 0.33219 0.0
C1864 C 0.11921 0.96143 0.3274 0.0
C1865 C 0.1369 0.97668 0.32654 0.0
C1866 C 0.08824 0.89012 0.34824 0.0
C1867 C 0.07263 0.88896 0.33081 0.0
C1868 C 0.10435 0.90689 0.34905 0.0
C1869 C 0.10511 0.92293 0.33255 0.0
C1870 C 0.08875 0.92247 0.31577 0.0
C1871 C 0.07269 0.90562 0.31489 0.0
H1872 H 0.05411 0.81833 0.65689 0.0
H1873 H 0.00518 0.86999 0.66821 0.0
H1874 H 0.08477 0.84482 0.65944 0.0
H1875 H 0.03606 0.89665 0.67039 0.0
H1876 H 0.10007 0.93044 0.70003 0.0
H1877 H 0.06763 0.90603 0.69508 0.0
H1878 H 0.10115 0.87566 0.63982 0.0
H1879 H 0.1337 0.89973 0.64498 0.0
C1880 C 0.04984 0.83537 0.65976 0.0
C1881 C 0.02712 0.84198 0.66238 0.0
C1882 C 0.06746 0.85061 0.66107 0.0
C1883 C 0.06287 0.87287 0.66505 0.0
C1884 C 0.04017 0.87958 0.6675 0.0
C1885 C 0.02247 0.86431 0.66613 0.0
C1886 C 0.10045 0.91865 0.68674 0.0
C1887 C 0.11957 0.91691 0.67303 0.0
C1888 C 0.0818 0.90475 0.68382 0.0
C1889 C 0.08187 0.8888 0.66715 0.0
C1890 C 0.10072 0.88752 0.65305 0.0
C1891 C 0.11934 0.9014 0.65596 0.0
H1892 H 0.18183 0.04246 0.6567 0.0
H1893 H 0.13116 0.99326 0.67132 0.0
H1894 H 0.15216 0.06981 0.6528 0.0
H1895 H 0.10139 0.02095 0.66788 0.0
H1896 H 0.05344 0.07414 0.63877 0.0
H1897 H 0.08211 0.0451 0.64113 0.0
H1898 H 0.12637 0.08896 0.6768 0.0
H1899 H 0.09829 0.11782 0.67409 0.0
C1900 C 0.16437 0.03747 0.65921 0.0
C1901 C 0.15893 0.01566 0.66449 0.0
C1902 C 0.14734 0.0532 0.65704 0.0
C1903 C 0.12442 0.0476 0.6602 0.0
C1904 C 0.11888 0.02574 0.66516 0.0
C1905 C 0.13596 0.00992 0.66728 0.0
C1906 C 0.06932 0.07753 0.64708 0.0
C1907 C 0.07362 0.09835 0.65608 0.0
C1908 C 0.08567 0.06088 0.64853 0.0
C1909 C 0.1066 0.0648 0.65898 0.0
C1910 C 0.11065 0.08552 0.66824 0.0
C1911 C 0.09443 0.10206 0.66677 0.0
H1912 H 0.98725 0.11358 0.66478 0.0
H1913 H 0.94376 0.16822 0.64798 0.0
H1914 H 0.95439 0.08897 0.66305 0.0
H1915 H 0.91135 0.14395 0.64668 0.0
H1916 H 0.85972 0.09444 0.62731 0.0
H1917 H 0.89537 0.11449 0.62507 0.0
H1918 H 0.91902 0.08215 0.68383 0.0
H1919 H 0.88348 0.06165 0.68581 0.0
C1920 C 0.97078 0.12033 0.66067 0.0
C1921 C 0.96819 0.1429 0.65656 0.0
C1922 C 0.95197 0.10627 0.65977 0.0
C1923 C 0.93028 0.11449 0.6546 0.0
C1924 C 0.92784 0.13698 0.65031 0.0
C1925 C 0.9465 0.15096 0.65125 0.0
C1926 C 0.87258 0.09144 0.63966 0.0
C1927 C 0.86864 0.07667 0.6569 0.0
C1928 C 0.893 0.10299 0.63841 0.0
C1929 C 0.90992 0.10012 0.65443 0.0
C1930 C 0.90639 0.08463 0.67115 0.0
C1931 C 0.88596 0.073 0.67236 0.0
H1932 H 0.9332 0.89738 0.70241 0.0
H1933 H 0.90362 0.87108 0.64305 0.0
H1934 H 0.90514 0.92681 0.70236 0.0
H1935 H 0.87575 0.90063 0.64294 0.0
H1936 H 0.81316 0.93904 0.66711 0.0
H1937 H 0.84259 0.91093 0.66575 0.0
H1938 H 0.89336 0.9596 0.68137 0.0
H1939 H 0.86402 0.98769 0.68298 0.0
C1940 C 0.9209 0.89801 0.68922 0.0
C1941 C 0.92058 0.88182 0.67281 0.0
C1942 C 0.90486 0.91491 0.68916 0.0
C1943 C 0.88813 0.91591 0.67275 0.0
C1944 C 0.88822 0.90008 0.656 0.0
C1945 C 0.9043 0.88325 0.65599 0.0
C1946 C 0.83058 0.94377 0.67028 0.0
C1947 C 0.83618 0.96564 0.67518 0.0
C1948 C 0.84747 0.92768 0.66934 0.0
C1949 C 0.87029 0.93308 0.6734 0.0
C1950 C 0.8759 0.95491 0.67836 0.0
C1951 C 0.85906 0.97101 0.67918 0.0
H1952 H 0.41593 0.08306 0.13834 0.0
H1953 H 0.34359 0.0735 0.1426 0.0
H1954 H 0.41034 0.11069 0.10995 0.0
H1955 H 0.33765 0.10203 0.11514 0.0
H1956 H 0.34295 0.10977 0.04003 0.0
H1957 H 0.34399 0.09676 0.07736 0.0
H1958 H 0.39684 0.14354 0.0927 0.0
H1959 H 0.39627 0.15627 0.05467 0.0
C1960 C 0.39878 0.08784 0.13404 0.0
C1961 C 0.38018 0.07621 0.14238 0.0
C1962 C 0.39551 0.10366 0.11775 0.0
C1963 C 0.37354 0.10814 0.10978 0.0
C1964 C 0.35482 0.09849 0.12041 0.0
C1965 C 0.35815 0.08236 0.13632 0.0
C1966 C 0.35463 0.11756 0.05134 0.0
C1967 C 0.36982 0.1338 0.04419 0.0
C1968 C 0.35502 0.11027 0.07297 0.0
C1969 C 0.37052 0.11908 0.08816 0.0
C1970 C 0.38485 0.13624 0.08137 0.0
C1971 C 0.38449 0.14356 0.05959 0.0
H1972 H 0.35503 0.91984 0.8212 0.0
H1973 H 0.42325 0.9203 0.84672 0.0
H1974 H 0.34526 0.88967 0.846 0.0
H1975 H 0.41369 0.8906 0.8717 0.0
H1976 H 0.39373 0.84137 0.91934 0.0
H1977 H 0.40072 0.85406 0.88193 0.0
H1978 H 0.34029 0.89413 0.88521 0.0
H1979 H 0.33313 0.88125 0.92214 0.0
C1980 C 0.36817 0.91273 0.83142 0.0
C1981 C 0.38989 0.92206 0.83208 0.0
C1982 C 0.36257 0.89565 0.84575 0.0
C1983 C 0.3786 0.88791 0.86105 0.0
C1984 C 0.40098 0.89593 0.86002 0.0
C1985 C 0.4065 0.91298 0.84575 0.0
C1986 C 0.38158 0.85237 0.9118 0.0
C1987 C 0.36318 0.86074 0.9239 0.0
C1988 C 0.38562 0.85967 0.89039 0.0
C1989 C 0.37126 0.87535 0.88068 0.0
C1990 C 0.35165 0.88196 0.89205 0.0
C1991 C 0.34767 0.87475 0.9134 0.0
H1992 H 0.01221 0.33048 0.88534 0.0
H1993 H 0.06251 0.34754 0.83656 0.0
H1994 H 0.04207 0.32869 0.9132 0.0
H1995 H 0.09206 0.34536 0.86411 0.0
H1996 H 0.13867 0.35794 0.92048 0.0
H1997 H 0.10606 0.3638 0.89667 0.0
H1998 H 0.07477 0.30494 0.92197 0.0
H1999 H 0.10724 0.29929 0.9462 0.0
C2000 C 0.02956 0.33395 0.88056 0.0
C2001 C 0.03494 0.3391 0.85868 0.0
C2002 C 0.04666 0.33281 0.89649 0.0
C2003 C 0.06942 0.33693 0.89087 0.0
C2004 C 0.07467 0.34243 0.86909 0.0
C2005 C 0.05768 0.34351 0.85322 0.0
C2006 C 0.12477 0.34634 0.92113 0.0
C2007 C 0.12568 0.328 0.93505 0.0
C2008 C 0.1061 0.34966 0.90742 0.0
C2009 C 0.08794 0.33471 0.90725 0.0
C2010 C 0.08842 0.31685 0.92182 0.0
C2011 C 0.1071 0.31354 0.93559 0.0
H2012 H 0.65631 0.11233 0.95003 0.0
H2013 H 0.60018 0.15697 0.94031 0.0
H2014 H 0.65282 0.09986 0.91262 0.0
H2015 H 0.59712 0.14487 0.90219 0.0
H2016 H 0.57551 0.0841 0.85833 0.0
H2017 H 0.58313 0.11175 0.88622 0.0
H2018 H 0.6552 0.10485 0.87442 0.0
H2019 H 0.6473 0.07629 0.84734 0.0
C2020 C 0.64351 0.11988 0.93975 0.0
C2021 C 0.62821 0.13532 0.94837 0.0
C2022 C 0.64168 0.1129 0.91806 0.0
C2023 C 0.62458 0.12125 0.90428 0.0
C2024 C 0.61028 0.13787 0.91243 0.0
C2025 C 0.61208 0.14485 0.93426 0.0
C2026 C 0.59288 0.0893 0.86105 0.0
C2027 C 0.61084 0.07826 0.85082 0.0
C2028 C 0.59732 0.10515 0.87706 0.0
C2029 C 0.61984 0.11018 0.88299 0.0
C2030 C 0.63768 0.10095 0.87067 0.0
C2031 C 0.63322 0.08484 0.85496 0.0
H2032 H 0.94087 0.64841 0.82696 0.0
H2033 H 0.99015 0.65829 0.87862 0.0
H2034 H 0.91029 0.65355 0.85319 0.0
H2035 H 0.95932 0.66312 0.90502 0.0
H2036 H 0.89681 0.69816 0.93688 0.0
H2037 H 0.92924 0.69021 0.91319 0.0
H2038 H 0.89264 0.63583 0.88466 0.0
H2039 H 0.86018 0.64393 0.90799 0.0
C2040 C 0.94522 0.65149 0.84396 0.0
C2041 C 0.96802 0.65296 0.85064 0.0
C2042 C 0.92764 0.6543 0.85904 0.0
C2043 C 0.93236 0.6587 0.88122 0.0
C2044 C 0.95514 0.65995 0.88801 0.0
C2045 C 0.97279 0.65704 0.8729 0.0
C2046 C 0.89576 0.68441 0.92568 0.0
C2047 C 0.87581 0.67183 0.92419 0.0
C2048 C 0.91439 0.67978 0.91219 0.0
C2049 C 0.91344 0.6625 0.89691 0.0
C2050 C 0.89377 0.64949 0.89598 0.0
C2051 C 0.87519 0.65409 0.90944 0.0
H2052 H 0.59239 0.89875 0.16587 0.0
H2053 H 0.65575 0.92311 0.14028 0.0
H2054 H 0.59553 0.86638 0.14221 0.0
H2055 H 0.65849 0.892 0.11601 0.0
H2056 H 0.66099 0.8435 0.06707 0.0
H2057 H 0.66213 0.85613 0.10503 0.0
H2058 H 0.58896 0.86277 0.10442 0.0
H2059 H 0.588 0.84844 0.06719 0.0
C2060 C 0.60728 0.89685 0.15562 0.0
C2061 C 0.62349 0.91365 0.1543 0.0
C2062 C 0.60899 0.87846 0.14188 0.0
C2063 C 0.62694 0.87671 0.12666 0.0
C2064 C 0.64438 0.8925 0.12737 0.0
C2065 C 0.64266 0.91069 0.14107 0.0
C2066 C 0.64515 0.84676 0.07552 0.0
C2067 C 0.62444 0.8453 0.06431 0.0
C2068 C 0.64575 0.85422 0.09718 0.0
C2069 C 0.62573 0.86134 0.10763 0.0
C2070 C 0.60479 0.85751 0.09708 0.0
C2071 C 0.60417 0.84936 0.07564 0.0
H2072 H 0.04638 0.63763 0.16053 0.0
H2073 H 0.0063 0.68034 0.11946 0.0
H2074 H 0.0776 0.63977 0.13454 0.0
H2075 H 0.038 0.6837 0.09401 0.0
H2076 H 0.09366 0.67429 0.04368 0.0
H2077 H 0.06095 0.66779 0.06732 0.0
H2078 H 0.10568 0.66373 0.1235 0.0
H2079 H 0.13823 0.66889 0.09966 0.0
C2080 C 0.04432 0.64756 0.14594 0.0
C2081 C 0.02397 0.65889 0.14205 0.0
C2082 C 0.0623 0.64897 0.13108 0.0
C2083 C 0.06059 0.66218 0.11222 0.0
C2084 C 0.03994 0.67312 0.10813 0.0
C2085 C 0.02176 0.67131 0.12278 0.0
C2086 C 0.09642 0.67187 0.06109 0.0
C2087 C 0.11847 0.67204 0.06983 0.0
C2088 C 0.07766 0.66828 0.0747 0.0
C2089 C 0.08052 0.66518 0.09743 0.0
C2090 C 0.1027 0.66548 0.10607 0.0
C2091 C 0.12143 0.66863 0.09241 0.0
H2092 H 0.93167 0.35846 0.157 0.0
H2093 H 0.98224 0.33574 0.11086 0.0
H2094 H 0.9029 0.35653 0.12867 0.0
H2095 H 0.95321 0.33419 0.08216 0.0
H2096 H 0.8872 0.30513 0.04998 0.0
H2097 H 0.91969 0.31151 0.07398 0.0
H2098 H 0.89034 0.37305 0.09473 0.0
H2099 H 0.85766 0.36648 0.07116 0.0
C2100 C 0.93675 0.35328 0.14073 0.0
C2101 C 0.95929 0.34712 0.13629 0.0
C2102 C 0.92022 0.35235 0.12438 0.0
C2103 C 0.92574 0.34524 0.10312 0.0
C2104 C 0.94839 0.33957 0.09845 0.0
C2105 C 0.96504 0.34058 0.11485 0.0
C2106 C 0.8878 0.32014 0.05948 0.0
C2107 C 0.86967 0.33514 0.0589 0.0
C2108 C 0.90651 0.32386 0.07313 0.0
C2109 C 0.9075 0.34268 0.08645 0.0
C2110 C 0.8899 0.35819 0.08499 0.0
C2111 C 0.87119 0.35445 0.07142 0.0
H2112 H 0.68195 0.83146 0.5567 0.0
H2113 H 0.63285 0.82545 0.50426 0.0
H2114 H 0.65115 0.83457 0.58317 0.0
H2115 H 0.6021 0.82884 0.5308 0.0
H2116 H 0.55692 0.80585 0.58907 0.0
H2117 H 0.58613 0.80635 0.56072 0.0
H2118 H 0.6202 0.85933 0.59436 0.0
H2119 H 0.59119 0.8587 0.62286 0.0
C2120 C 0.66462 0.83098 0.55077 0.0
C2121 C 0.65991 0.82811 0.52834 0.0
C2122 C 0.64696 0.8329 0.56595 0.0
C2123 C 0.6242 0.83194 0.55906 0.0
C2124 C 0.61947 0.82942 0.53662 0.0
C2125 C 0.63712 0.82758 0.52141 0.0
C2126 C 0.57051 0.81775 0.59032 0.0
C2127 C 0.57181 0.83212 0.60831 0.0
C2128 C 0.5872 0.8181 0.57401 0.0
C2129 C 0.60555 0.83278 0.5754 0.0
C2130 C 0.60644 0.84761 0.59303 0.0
C2131 C 0.58974 0.84732 0.60928 0.0
H2132 H 0.16821 0.56087 0.64787 0.0
H2133 H 0.0951 0.558 0.64652 0.0
H2134 H 0.16704 0.59843 0.63424 0.0
H2135 H 0.09372 0.59481 0.63124 0.0
H2136 H 0.09314 0.65626 0.59451 0.0
H2137 H 0.09859 0.63283 0.62676 0.0
H2138 H 0.16093 0.60823 0.59826 0.0
H2139 H 0.15595 0.63228 0.56728 0.0
C2140 C 0.15187 0.56857 0.64515 0.0
C2141 C 0.13176 0.5566 0.64789 0.0
C2142 C 0.15114 0.59 0.63714 0.0
C2143 C 0.13033 0.59946 0.63078 0.0
C2144 C 0.11009 0.58822 0.63588 0.0
C2145 C 0.11083 0.56701 0.64457 0.0
C2146 C 0.10836 0.64636 0.5957 0.0
C2147 C 0.12378 0.64544 0.57817 0.0
C2148 C 0.11141 0.63278 0.61403 0.0
C2149 C 0.12993 0.61816 0.61502 0.0
C2150 C 0.14646 0.61916 0.59836 0.0
C2151 C 0.14342 0.63269 0.58023 0.0
H2152 H 0.30486 0.17775 0.55219 0.0
H2153 H 0.35927 0.17541 0.50457 0.0
H2154 H 0.33263 0.17948 0.58167 0.0
H2155 H 0.38704 0.17748 0.53419 0.0
H2156 H 0.42791 0.15609 0.59574 0.0
H2157 H 0.40123 0.15504 0.56506 0.0
H2158 H 0.36073 0.20522 0.59628 0.0
H2159 H 0.38709 0.20607 0.62701 0.0
C2160 C 0.32273 0.17767 0.54797 0.0
C2161 C 0.3298 0.17645 0.52597 0.0
C2162 C 0.33865 0.1788 0.56489 0.0
C2163 C 0.36202 0.17871 0.56024 0.0
C2164 C 0.36914 0.17739 0.53828 0.0
C2165 C 0.3532 0.17632 0.52132 0.0
C2166 C 0.41337 0.16696 0.59599 0.0
C2167 C 0.40954 0.18106 0.61387 0.0
C2168 C 0.39815 0.16643 0.57838 0.0
C2169 C 0.37881 0.17994 0.57834 0.0
C2170 C 0.37528 0.19435 0.59601 0.0
C2171 C 0.39047 0.19491 0.61357 0.0
H2172 H 0.85509 0.37788 0.55794 0.0
H2173 H 0.92262 0.36221 0.58031 0.0
H2174 H 0.85314 0.40804 0.58409 0.0
H2175 H 0.92116 0.39303 0.60608 0.0
H2176 H 0.90796 0.44937 0.65481 0.0
H2177 H 0.9051 0.41311 0.63755 0.0
H2178 H 0.8722 0.44254 0.58145 0.0
H2179 H 0.87455 0.47811 0.59856 0.0
C2180 C 0.86938 0.38074 0.56874 0.0
C2181 C 0.88913 0.36807 0.56692 0.0
C2182 C 0.86834 0.39805 0.58366 0.0
C2183 C 0.88727 0.40337 0.5967 0.0
C2184 C 0.9063 0.38941 0.59626 0.0
C2185 C 0.90716 0.37177 0.58153 0.0
C2186 C 0.89999 0.44799 0.63886 0.0
C2187 C 0.8915 0.46671 0.62811 0.0
C2188 C 0.89838 0.42725 0.62897 0.0
C2189 C 0.88814 0.42485 0.60825 0.0
C2190 C 0.87964 0.4436 0.59767 0.0
C2191 C 0.88124 0.46415 0.60745 0.0
H2192 H 0.5976 0.13528 0.37719 0.0
H2193 H 0.56382 0.18767 0.41212 0.0
H2194 H 0.6273 0.13461 0.40508 0.0
H2195 H 0.59365 0.18714 0.43982 0.0
H2196 H 0.64146 0.16802 0.49519 0.0
H2197 H 0.61033 0.16463 0.46917 0.0
H2198 H 0.65846 0.15944 0.41597 0.0
H2199 H 0.68972 0.16265 0.44199 0.0
C2200 C 0.59637 0.14651 0.39091 0.0
C2201 C 0.5784 0.16162 0.39236 0.0
C2202 C 0.61349 0.14622 0.4068 0.0
C2203 C 0.61292 0.16094 0.42454 0.0
C2204 C 0.59449 0.17547 0.42643 0.0
C2205 C 0.57743 0.17583 0.4105 0.0
C2206 C 0.64548 0.16615 0.47796 0.0
C2207 C 0.66817 0.16579 0.4707 0.0
C2208 C 0.62759 0.16424 0.46305 0.0
C2209 C 0.63192 0.16182 0.44052 0.0
C2210 C 0.65457 0.16104 0.43327 0.0
C2211 C 0.67249 0.16303 0.44818 0.0
H2212 H 0.90077 0.54756 0.35622 0.0
H2213 H 0.8362 0.52727 0.38298 0.0
H2214 H 0.89887 0.58138 0.37784 0.0
H2215 H 0.834 0.56114 0.40396 0.0
H2216 H 0.86104 0.59713 0.4646 0.0
H2217 H 0.85683 0.57001 0.43612 0.0
H2218 H 0.87939 0.61693 0.38775 0.0
H2219 H 0.8836 0.64465 0.41675 0.0
C2220 C 0.8859 0.55062 0.36621 0.0
C2221 C 0.86888 0.53459 0.36834 0.0
C2222 C 0.88476 0.57001 0.37851 0.0
C2223 C 0.86649 0.57368 0.39292 0.0
C2224 C 0.84854 0.55852 0.3934 0.0
C2225 C 0.8498 0.53912 0.38137 0.0
C2226 C 0.86464 0.60201 0.44791 0.0
C2227 C 0.87242 0.6232 0.44298 0.0
C2228 C 0.86216 0.58637 0.43148 0.0
C2229 C 0.86752 0.59137 0.40962 0.0
C2230 C 0.87511 0.61263 0.40448 0.0
C2231 C 0.87743 0.62848 0.42104 0.0
H2232 H 0.36871 0.82446 0.48535 0.0
H2233 H 0.32 0.83297 0.43292 0.0
H2234 H 0.39964 0.82763 0.459 0.0
H2235 H 0.35099 0.83587 0.40663 0.0
H2236 H 0.4117 0.8602 0.36812 0.0
H2237 H 0.38256 0.86049 0.3965 0.0
H2238 H 0.41525 0.80569 0.4284 0.0
H2239 H 0.44458 0.80552 0.40016 0.0
C2240 C 0.36456 0.82704 0.46823 0.0
C2241 C 0.34182 0.82841 0.46126 0.0
C2242 C 0.38232 0.82876 0.45314 0.0
C2243 C 0.37775 0.832 0.43076 0.0
C2244 C 0.35505 0.83366 0.42381 0.0
C2245 C 0.33729 0.83184 0.43888 0.0
C2246 C 0.41284 0.84835 0.3813 0.0
C2247 C 0.43039 0.83273 0.3818 0.0
C2248 C 0.39605 0.84844 0.39748 0.0
C2249 C 0.3965 0.83299 0.41455 0.0
C2250 C 0.41452 0.8179 0.41552 0.0
C2251 C 0.43128 0.81775 0.39929 0.0
H2252 H 0.09624 0.42688 0.33615 0.0
H2253 H 0.15754 0.42943 0.37501 0.0
H2254 H 0.09003 0.38903 0.34797 0.0
H2255 H 0.15118 0.39216 0.38706 0.0
H2256 H 0.13811 0.3287 0.41295 0.0
H2257 H 0.14676 0.3533 0.38234 0.0
H2258 H 0.07776 0.37751 0.38414 0.0
H2259 H 0.06927 0.35255 0.41415 0.0
C2260 C 0.1087 0.41919 0.34672 0.0
C2261 C 0.12707 0.4313 0.3551 0.0
C2262 C 0.10511 0.39754 0.35353 0.0
C2263 C 0.1199 0.38764 0.36872 0.0
C2264 C 0.13948 0.3991 0.37525 0.0
C2265 C 0.143 0.42067 0.36854 0.0
C2266 C 0.1246 0.3385 0.40591 0.0
C2267 C 0.10304 0.33879 0.4156 0.0
C2268 C 0.12955 0.35272 0.38858 0.0
C2269 C 0.11307 0.36768 0.38105 0.0
C2270 C 0.09082 0.36614 0.38932 0.0
C2271 C 0.08591 0.35187 0.40657 0.0
H2272 H 0.64909 0.61375 0.80058 0.0
H2273 H 0.61982 0.55523 0.82885 0.0
H2274 H 0.61538 0.63438 0.81059 0.0
H2275 H 0.58597 0.57615 0.8392 0.0
H2276 H 0.52011 0.61927 0.82996 0.0
H2277 H 0.55299 0.59585 0.82258 0.0
H2278 H 0.59765 0.6477 0.84423 0.0
H2279 H 0.56511 0.67109 0.85127 0.0
C2280 C 0.63547 0.60527 0.80898 0.0
C2281 C 0.63721 0.58285 0.814 0.0
C2282 C 0.61618 0.61715 0.81486 0.0
C2283 C 0.5981 0.60696 0.82592 0.0
C2284 C 0.5996 0.58444 0.83063 0.0
C2285 C 0.61901 0.5725 0.82477 0.0
C2286 C 0.53694 0.62554 0.83342 0.0
C2287 C 0.53996 0.64717 0.84093 0.0
C2288 C 0.55576 0.61211 0.82922 0.0
C2289 C 0.57793 0.62007 0.83247 0.0
C2290 C 0.58082 0.64127 0.84105 0.0
C2291 C 0.56212 0.65465 0.8452 0.0
H2292 H 0.44397 0.58807 0.80497 0.0
H2293 H 0.41571 0.61638 0.86401 0.0
H2294 H 0.41463 0.5598 0.80549 0.0
H2295 H 0.38654 0.58805 0.86453 0.0
H2296 H 0.36881 0.50183 0.8248 0.0
H2297 H 0.40027 0.52776 0.82687 0.0
H2298 H 0.35307 0.58011 0.84095 0.0
H2299 H 0.32159 0.55427 0.83905 0.0
C2300 C 0.43172 0.58809 0.81822 0.0
C2301 C 0.43207 0.60459 0.83434 0.0
C2302 C 0.41496 0.57185 0.81854 0.0
C2303 C 0.39815 0.57187 0.83492 0.0
C2304 C 0.39905 0.58785 0.85151 0.0
C2305 C 0.41587 0.60398 0.85127 0.0
C2306 C 0.36511 0.51886 0.82838 0.0
C2307 C 0.34263 0.52596 0.83174 0.0
C2308 C 0.38315 0.53371 0.82948 0.0
C2309 C 0.37914 0.55593 0.83415 0.0
C2310 C 0.35671 0.56301 0.83762 0.0
C2311 C 0.33865 0.54822 0.83636 0.0
H2312 H 0.36474 0.4132 0.85973 0.0
H2313 H 0.39849 0.44003 0.80279 0.0
H2314 H 0.3974 0.38972 0.8667 0.0
H2315 H 0.43098 0.41615 0.80952 0.0
H2316 H 0.49305 0.38063 0.83698 0.0
H2317 H 0.46266 0.40784 0.83432 0.0
H2318 H 0.41321 0.35764 0.84907 0.0
H2319 H 0.44331 0.33072 0.85215 0.0
C2320 C 0.37915 0.41415 0.84873 0.0
C2321 C 0.37891 0.42833 0.83057 0.0
C2322 C 0.39785 0.40062 0.85269 0.0
C2323 C 0.41671 0.40092 0.83856 0.0
C2324 C 0.41681 0.41566 0.82084 0.0
C2325 C 0.3981 0.42923 0.81689 0.0
C2326 C 0.47571 0.37547 0.83986 0.0
C2327 C 0.47066 0.35345 0.84471 0.0
C2328 C 0.45829 0.39103 0.83821 0.0
C2329 C 0.43551 0.38491 0.84149 0.0
C2330 C 0.43058 0.36301 0.84677 0.0
C2331 C 0.4479 0.3475 0.84837 0.0
H2332 H 0.62267 0.35482 0.81261 0.0
H2333 H 0.57725 0.39521 0.85098 0.0
H2334 H 0.64776 0.38593 0.80739 0.0
H2335 H 0.60283 0.42645 0.84612 0.0
H2336 H 0.64171 0.48196 0.81051 0.0
H2337 H 0.61606 0.45126 0.81713 0.0
H2338 H 0.67368 0.40872 0.82784 0.0
H2339 H 0.69929 0.43914 0.82076 0.0
C2340 C 0.61811 0.37031 0.82011 0.0
C2341 C 0.59795 0.37253 0.83223 0.0
C2342 C 0.6326 0.38814 0.8172 0.0
C2343 C 0.62734 0.40865 0.8264 0.0
C2344 C 0.60723 0.4109 0.83864 0.0
C2345 C 0.59266 0.39299 0.84155 0.0
C2346 C 0.64891 0.46605 0.81423 0.0
C2347 C 0.67259 0.46301 0.81495 0.0
C2348 C 0.6342 0.4485 0.8182 0.0
C2349 C 0.64283 0.42755 0.82297 0.0
C2350 C 0.66648 0.42458 0.82388 0.0
C2351 C 0.68117 0.44207 0.81988 0.0
H2352 H 0.51253 0.37607 0.16494 0.0
H2353 H 0.56451 0.32769 0.15188 0.0
H2354 H 0.54163 0.40467 0.16629 0.0
H2355 H 0.59334 0.35607 0.15354 0.0
H2356 H 0.6388 0.41325 0.13986 0.0
H2357 H 0.60703 0.38838 0.13395 0.0
H2358 H 0.57333 0.41492 0.19104 0.0
H2359 H 0.60497 0.44011 0.19679 0.0
C2360 C 0.53009 0.37154 0.16221 0.0
C2361 C 0.53617 0.34956 0.15838 0.0
C2362 C 0.54675 0.3879 0.16311 0.0
C2363 C 0.56977 0.38263 0.16001 0.0
C2364 C 0.57573 0.36074 0.1557 0.0
C2365 C 0.55917 0.34442 0.15491 0.0
C2366 C 0.62453 0.41396 0.15104 0.0
C2367 C 0.62454 0.4285 0.16894 0.0
C2368 C 0.60636 0.39964 0.14769 0.0
C2369 C 0.58778 0.39953 0.16215 0.0
C2370 C 0.58733 0.41471 0.17952 0.0
C2371 C 0.60553 0.42905 0.18289 0.0
H2372 H 0.63538 0.50271 0.17543 0.0
H2373 H 0.6833 0.55524 0.16403 0.0
H2374 H 0.60411 0.52873 0.17249 0.0
H2375 H 0.65197 0.5812 0.16132 0.0
H2376 H 0.59018 0.61647 0.13367 0.0
H2377 H 0.62018 0.58902 0.13576 0.0
H2378 H 0.58806 0.56051 0.19269 0.0
H2379 H 0.55788 0.58784 0.19053 0.0
C2380 C 0.63929 0.51981 0.17241 0.0
C2381 C 0.66189 0.52687 0.16993 0.0
C2382 C 0.62135 0.53471 0.1708 0.0
C2383 C 0.62559 0.55696 0.16655 0.0
C2384 C 0.64817 0.56408 0.16429 0.0
C2385 C 0.66613 0.54922 0.16601 0.0
C2386 C 0.58937 0.60423 0.14651 0.0
C2387 C 0.57169 0.60441 0.16201 0.0
C2388 C 0.60666 0.58861 0.1478 0.0
C2389 C 0.60658 0.57277 0.16453 0.0
C2390 C 0.58851 0.57246 0.17956 0.0
C2391 C 0.57126 0.58816 0.17835 0.0
H2392 H 0.43458 0.65509 0.1451 0.0
H2393 H 0.488 0.60914 0.16113 0.0
H2394 H 0.40654 0.6263 0.14954 0.0
H2395 H 0.45969 0.58009 0.16525 0.0
H2396 H 0.39766 0.54518 0.19871 0.0
H2397 H 0.42861 0.57062 0.19082 0.0
H2398 H 0.3934 0.59246 0.13264 0.0
H2399 H 0.36234 0.5674 0.14068 0.0
C2400 C 0.44041 0.63879 0.14939 0.0
C2401 C 0.46359 0.63449 0.15282 0.0
C2402 C 0.42429 0.62222 0.15178 0.0
C2403 C 0.43088 0.60088 0.15767 0.0
C2404 C 0.45408 0.59642 0.16085 0.0
C2405 C 0.47029 0.61304 0.15837 0.0
C2406 C 0.39664 0.55524 0.18411 0.0
C2407 C 0.3774 0.55445 0.17048 0.0
C2408 C 0.41444 0.56973 0.17953 0.0
C2409 C 0.41334 0.58372 0.16123 0.0
C2410 C 0.39456 0.58219 0.14709 0.0
C2411 C 0.37679 0.56775 0.15166 0.0
H2412 H 0.37944 0.34699 0.17391 0.0
H2413 H 0.43068 0.38633 0.14189 0.0
H2414 H 0.35357 0.37795 0.17354 0.0
H2415 H 0.40439 0.41737 0.14103 0.0
H2416 H 0.36055 0.47361 0.17044 0.0
H2417 H 0.38692 0.44303 0.16659 0.0
H2418 H 0.33114 0.4003 0.14947 0.0
H2419 H 0.30472 0.43063 0.15386 0.0
C2420 C 0.38511 0.3622 0.16655 0.0
C2421 C 0.40715 0.36421 0.15798 0.0
C2422 C 0.37019 0.37994 0.16621 0.0
C2423 C 0.37687 0.40015 0.15721 0.0
C2424 C 0.39881 0.40209 0.14829 0.0
C2425 C 0.41381 0.38429 0.14866 0.0
C2426 C 0.35392 0.45772 0.16572 0.0
C2427 C 0.33047 0.45453 0.1627 0.0
C2428 C 0.36907 0.44022 0.16338 0.0
C2429 C 0.36112 0.41918 0.15788 0.0
C2430 C 0.33777 0.4162 0.15413 0.0
C2431 C 0.32263 0.43363 0.15658 0.0
H2432 H 0.86678 0.58523 0.66975 0.0
H2433 H 0.93395 0.58842 0.64197 0.0
H2434 H 0.85414 0.61415 0.64469 0.0
H2435 H 0.92157 0.61695 0.61682 0.0
H2436 H 0.83967 0.61727 0.56828 0.0
H2437 H 0.84854 0.60716 0.60573 0.0
H2438 H 0.90527 0.6521 0.60558 0.0
H2439 H 0.89655 0.66205 0.56769 0.0
C2440 C 0.87909 0.59299 0.65906 0.0
C2441 C 0.90131 0.58491 0.65775 0.0
C2442 C 0.87184 0.60934 0.64457 0.0
C2443 C 0.88674 0.6176 0.62852 0.0
C2444 C 0.90967 0.61115 0.62905 0.0
C2445 C 0.91683 0.59478 0.64345 0.0
C2446 C 0.85371 0.62543 0.57636 0.0
C2447 C 0.86777 0.64001 0.5648 0.0
C2448 C 0.85865 0.61983 0.59801 0.0
C2449 C 0.87782 0.62862 0.60858 0.0
C2450 C 0.89056 0.64484 0.59776 0.0
C2451 C 0.88554 0.65055 0.57606 0.0
H2452 H 0.85408 0.41654 0.34232 0.0
H2453 H 0.92613 0.41261 0.3538 0.0
H2454 H 0.84759 0.38816 0.36986 0.0
H2455 H 0.91984 0.38503 0.38206 0.0
H2456 H 0.84714 0.38358 0.44591 0.0
H2457 H 0.85003 0.39498 0.40809 0.0
H2458 H 0.90705 0.35132 0.39867 0.0
H2459 H 0.90446 0.34019 0.43716 0.0
C2460 C 0.86858 0.40882 0.35009 0.0
C2461 C 0.89057 0.41652 0.346 0.0
C2462 C 0.8649 0.39281 0.36606 0.0
C2463 C 0.88313 0.38475 0.37864 0.0
C2464 C 0.90538 0.39075 0.3727 0.0
C2465 C 0.90905 0.40654 0.35646 0.0
C2466 C 0.8601 0.37609 0.43576 0.0
C2467 C 0.87585 0.3613 0.44472 0.0
C2468 C 0.86158 0.38243 0.41386 0.0
C2469 C 0.87886 0.37414 0.40024 0.0
C2470 C 0.8937 0.35819 0.40877 0.0
C2471 C 0.89216 0.35177 0.4308 0.0
H2472 H 0.51311 0.83625 0.37475 0.0
H2473 H 0.56599 0.84613 0.32654 0.0
H2474 H 0.54187 0.83372 0.4035 0.0
H2475 H 0.59453 0.84315 0.35508 0.0
H2476 H 0.60187 0.80067 0.44061 0.0
H2477 H 0.57126 0.80795 0.41474 0.0
H2478 H 0.61 0.86132 0.38699 0.0
H2479 H 0.64085 0.85374 0.41253 0.0
C2480 C 0.53082 0.83799 0.37027 0.0
C2481 C 0.53721 0.84131 0.34828 0.0
C2482 C 0.5473 0.83642 0.38674 0.0
C2483 C 0.57051 0.83821 0.3816 0.0
C2484 C 0.57682 0.84201 0.3597 0.0
C2485 C 0.5604 0.84356 0.34327 0.0
C2486 C 0.60379 0.81408 0.42912 0.0
C2487 C 0.62391 0.82647 0.42848 0.0
C2488 C 0.58616 0.81835 0.41437 0.0
C2489 C 0.58824 0.83512 0.39868 0.0
C2490 C 0.60802 0.84804 0.39862 0.0
C2491 C 0.62566 0.84375 0.41334 0.0
H2492 H 0.16508 0.61555 0.45902 0.0
H2493 H 0.09653 0.63817 0.44797 0.0
H2494 H 0.164 0.59536 0.4246 0.0
H2495 H 0.0953 0.61738 0.41347 0.0
H2496 H 0.10722 0.57887 0.34755 0.0
H2497 H 0.11269 0.60856 0.37446 0.0
H2498 H 0.13959 0.56165 0.42067 0.0
H2499 H 0.13381 0.5325 0.39461 0.0
C2500 C 0.14992 0.61654 0.44899 0.0
C2501 C 0.1307 0.62799 0.45636 0.0
C2502 C 0.14933 0.60502 0.42928 0.0
C2503 C 0.12941 0.60446 0.41664 0.0
C2504 C 0.11087 0.61758 0.42291 0.0
C2505 C 0.11155 0.62938 0.44267 0.0
C2506 C 0.11456 0.57504 0.36338 0.0
C2507 C 0.12043 0.55332 0.36876 0.0
C2508 C 0.1176 0.59199 0.37874 0.0
C2509 C 0.12691 0.58743 0.39948 0.0
C2510 C 0.13293 0.56578 0.40462 0.0
C2511 C 0.12961 0.54899 0.38957 0.0
H2512 H 0.44294 0.14823 0.33386 0.0
H2513 H 0.49205 0.16495 0.38387 0.0
H2514 H 0.41264 0.15077 0.36066 0.0
H2515 H 0.46145 0.16718 0.41097 0.0
H2516 H 0.39563 0.19866 0.44129 0.0
H2517 H 0.42889 0.19176 0.41842 0.0
H2518 H 0.39722 0.13307 0.39312 0.0
H2519 H 0.36385 0.14014 0.41561 0.0
C2520 C 0.44734 0.15223 0.35065 0.0
C2521 C 0.46997 0.1565 0.35665 0.0
C2522 C 0.42993 0.15352 0.36608 0.0
C2523 C 0.43461 0.15914 0.38797 0.0
C2524 C 0.45728 0.16297 0.39417 0.0
C2525 C 0.47481 0.16157 0.37869 0.0
C2526 C 0.39586 0.18416 0.43102 0.0
C2527 C 0.37695 0.17012 0.43007 0.0
C2528 C 0.415 0.18013 0.41801 0.0
C2529 C 0.41561 0.16198 0.40379 0.0
C2530 C 0.39711 0.14741 0.40361 0.0
C2531 C 0.37801 0.15144 0.41658 0.0
H2532 H 0.11095 0.40941 0.64556 0.0
H2533 H 0.13554 0.45927 0.60118 0.0
H2534 H 0.11425 0.38206 0.61614 0.0
H2535 H 0.13848 0.43252 0.57223 0.0
H2536 H 0.15586 0.38139 0.52535 0.0
H2537 H 0.15895 0.40131 0.55978 0.0
H2538 H 0.09526 0.37348 0.5813 0.0
H2539 H 0.09268 0.35273 0.54701 0.0
C2540 C 0.11734 0.41447 0.62969 0.0
C2541 C 0.12316 0.4365 0.6258 0.0
C2542 C 0.1191 0.39887 0.61283 0.0
C2543 C 0.1268 0.40504 0.59185 0.0
C2544 C 0.13303 0.42698 0.58827 0.0
C2545 C 0.13126 0.44244 0.60497 0.0
C2546 C 0.14268 0.37926 0.53757 0.0
C2547 C 0.12382 0.36583 0.53335 0.0
C2548 C 0.14441 0.39072 0.55729 0.0
C2549 C 0.1271 0.38939 0.57311 0.0
C2550 C 0.10893 0.37483 0.56951 0.0
C2551 C 0.10738 0.36303 0.54982 0.0
H2552 H 0.64866 0.16417 0.59563 0.0
H2553 H 0.60525 0.17848 0.54038 0.0
H2554 H 0.61554 0.15966 0.61887 0.0
H2555 H 0.57185 0.17272 0.56331 0.0
H2556 H 0.51851 0.1862 0.61669 0.0
H2557 H 0.55045 0.18849 0.59135 0.0
H2558 H 0.58506 0.13757 0.62775 0.0
H2559 H 0.55375 0.13639 0.65369 0.0
C2560 C 0.63197 0.16598 0.58837 0.0
C2561 C 0.62954 0.17175 0.56622 0.0
C2562 C 0.61289 0.16323 0.60167 0.0
C2563 C 0.59085 0.16573 0.59305 0.0
C2564 C 0.58848 0.17104 0.57069 0.0
C2565 C 0.60762 0.17421 0.55748 0.0
C2566 C 0.53291 0.17542 0.61911 0.0
C2567 C 0.53379 0.1613 0.63726 0.0
C2568 C 0.55122 0.17662 0.60452 0.0
C2569 C 0.57059 0.16339 0.60755 0.0
C2570 C 0.57083 0.14851 0.62519 0.0
C2571 C 0.55278 0.14768 0.63999 0.0
H2572 H 0.48926 0.83453 0.61439 0.0
H2573 H 0.43626 0.84877 0.66141 0.0
H2574 H 0.46075 0.832 0.58536 0.0
H2575 H 0.408 0.84579 0.63265 0.0
H2576 H 0.36274 0.85572 0.5747 0.0
H2577 H 0.39392 0.86332 0.59982 0.0
H2578 H 0.43014 0.8069 0.57498 0.0
H2579 H 0.39918 0.79957 0.54946 0.0
C2580 C 0.47159 0.83725 0.61853 0.0
C2581 C 0.46507 0.84177 0.64027 0.0
C2582 C 0.45526 0.83568 0.60192 0.0
C2583 C 0.4321 0.83869 0.60668 0.0
C2584 C 0.4257 0.84371 0.62832 0.0
C2585 C 0.44195 0.84524 0.64488 0.0
C2586 C 0.37745 0.84505 0.57443 0.0
C2587 C 0.37837 0.82689 0.56024 0.0
C2588 C 0.39528 0.84936 0.5889 0.0
C2589 C 0.41442 0.83559 0.58957 0.0
C2590 C 0.41574 0.81795 0.57476 0.0
C2591 C 0.39791 0.81366 0.56022 0.0
loop_
_geom_bond_atom_site_label_1
_geom_bond_atom_site_label_2
_geom_bond_distance
_geom_bond_site_symmetry_2
_ccdc_geom_bond_type
Mg0 O1 2.028 . S
Mg0 O7 1.986 . S
Mg0 O9 2.114 . S
Mg0 O10 2.251 . S
Mg0 O13 2.010 . S
O1 Mg0 2.028 . S
O1 C4 1.250 . S
O2 Mg3 2.028 1_655 S
O2 C4 1.248 1_655 S
Mg3 O2 2.028 1_455 S
Mg3 O8 2.032 . S
Mg3 O10 2.079 . S
C4 O1 1.250 . S
C4 O2 1.248 1_455 S
C5 O6 1.264 . S
C5 O13 1.249 . S
O6 C5 1.264 . S
O7 Mg0 1.986 . S
O7 C11 1.246 . S
O8 Mg3 2.032 . S
O8 C11 1.259 . S
O9 Mg0 2.114 . S
O9 C12 1.252 . S
O10 Mg0 2.251 . S
O10 Mg3 2.079 . S
O10 C12 1.273 . S
C11 O7 1.246 . S
C11 O8 1.259 . S
C12 O9 1.252 . S
C12 O10 1.273 . S
O13 Mg0 2.010 . S
O13 C5 1.249 . S
Mg14 O15 2.028 . S
Mg14 O21 1.986 . S
Mg14 O23 2.114 1_545 S
Mg14 O24 2.251 . S
Mg14 O27 2.010 . S
O15 Mg14 2.028 . S
O15 C18 1.250 . S
O16 Mg17 2.028 . S
O16 C18 1.248 . S
Mg17 O16 2.028 . S
Mg17 O22 2.032 . S
Mg17 O24 2.079 . S
C18 O15 1.250 . S
C18 O16 1.248 . S
C19 O20 1.264 . S
C19 O27 1.249 . S
O20 C19 1.264 . S
O21 Mg14 1.986 . S
O21 C25 1.246 . S
O22 Mg17 2.032 . S
O22 C25 1.259 . S
O23 Mg14 2.114 1_565 S
O23 C26 1.252 . S
O24 Mg14 2.251 . S
O24 Mg17 2.079 . S
O24 C26 1.273 1_545 S
C25 O21 1.246 . S
C25 O22 1.259 . S
C26 O23 1.252 . S
C26 O24 1.273 1_565 S
O27 Mg14 2.010 . S
O27 C19 1.249 . S
Mg28 O29 2.028 . S
Mg28 O35 1.986 . S
Mg28 O37 2.114 . S
Mg28 O38 2.251 . S
Mg28 O41 2.010 . S
O29 Mg28 2.028 . S
O29 C32 1.250 . S
O30 Mg31 2.028 1_455 S
O30 C32 1.248 1_455 S
Mg31 O30 2.028 1_655 S
Mg31 O36 2.032 . S
Mg31 O38 2.079 . S
C32 O29 1.250 . S
C32 O30 1.248 1_655 S
C33 O34 1.264 . S
C33 O41 1.249 . S
O34 C33 1.264 . S
O35 Mg28 1.986 . S
O35 C39 1.246 . S
O36 Mg31 2.032 . S
O36 C39 1.259 . S
O37 Mg28 2.114 . S
O37 C40 1.252 . S
O38 Mg28 2.251 . S
O38 Mg31 2.079 . S
O38 C40 1.273 . S
C39 O35 1.246 . S
C39 O36 1.259 . S
C40 O37 1.252 . S
C40 O38 1.273 . S
O41 Mg28 2.010 . S
O41 C33 1.249 . S
Mg42 O43 2.028 . S
Mg42 O49 1.986 . S
Mg42 O51 2.114 1_565 S
Mg42 O52 2.251 . S
Mg42 O55 2.010 . S
O43 Mg42 2.028 . S
O43 C46 1.250 . S
O44 Mg45 2.028 . S
O44 C46 1.248 . S
Mg45 O44 2.028 . S
Mg45 O50 2.032 . S
Mg45 O52 2.079 . S
C46 O43 1.250 . S
C46 O44 1.248 . S
C47 O48 1.264 . S
C47 O55 1.249 . S
O48 C47 1.264 . S
O49 Mg42 1.986 . S
O49 C53 1.246 . S
O50 Mg45 2.032 . S
O50 C53 1.259 . S
O51 Mg42 2.114 1_545 S
O51 C54 1.252 . S
O52 Mg42 2.251 . S
O52 Mg45 2.079 . S
O52 C54 1.273 1_565 S
C53 O49 1.246 . S
C53 O50 1.259 . S
C54 O51 1.252 . S
C54 O52 1.273 1_545 S
O55 Mg42 2.010 . S
O55 C47 1.249 . S
Mg56 O57 2.028 . S
Mg56 O63 1.986 . S
Mg56 O65 2.114 . S
Mg56 O66 2.251 . S
Mg56 O69 2.010 . S
O57 Mg56 2.028 . S
O57 C60 1.250 . S
O58 Mg59 2.028 1_655 S
O58 C60 1.248 1_655 S
Mg59 O58 2.028 1_455 S
Mg59 O64 2.032 . S
Mg59 O66 2.079 . S
C60 O57 1.250 . S
C60 O58 1.248 1_455 S
C61 O62 1.264 . S
C61 O69 1.249 . S
O62 C61 1.264 . S
O63 Mg56 1.986 . S
O63 C67 1.246 . S
O64 Mg59 2.032 . S
O64 C67 1.259 . S
O65 Mg56 2.114 . S
O65 C68 1.252 . S
O66 Mg56 2.251 . S
O66 Mg59 2.079 . S
O66 C68 1.273 . S
C67 O63 1.246 . S
C67 O64 1.259 . S
C68 O65 1.252 . S
C68 O66 1.273 . S
O69 Mg56 2.010 . S
O69 C61 1.249 . S
Mg70 O71 2.028 . S
Mg70 O77 1.986 . S
Mg70 O79 2.114 1_545 S
Mg70 O80 2.251 . S
Mg70 O83 2.010 . S
O71 Mg70 2.028 . S
O71 C74 1.250 . S
O72 Mg73 2.028 . S
O72 C74 1.248 . S
Mg73 O72 2.028 . S
Mg73 O78 2.032 . S
Mg73 O80 2.079 . S
C74 O71 1.250 . S
C74 O72 1.248 . S
C75 O76 1.264 . S
C75 O83 1.249 . S
O76 C75 1.264 . S
O77 Mg70 1.986 . S
O77 C81 1.246 . S
O78 Mg73 2.032 . S
O78 C81 1.259 . S
O79 Mg70 2.114 1_565 S
O79 C82 1.252 . S
O80 Mg70 2.251 . S
O80 Mg73 2.079 . S
O80 C82 1.273 1_545 S
C81 O77 1.246 . S
C81 O78 1.259 . S
C82 O79 1.252 . S
C82 O80 1.273 1_565 S
O83 Mg70 2.010 . S
O83 C75 1.249 . S
Mg84 O85 2.028 . S
Mg84 O91 1.986 . S
Mg84 O93 2.114 . S
Mg84 O94 2.251 . S
Mg84 O97 2.010 . S
O85 Mg84 2.028 . S
O85 C88 1.250 . S
O86 Mg87 2.028 1_455 S
O86 C88 1.248 1_455 S
Mg87 O86 2.028 1_655 S
Mg87 O92 2.032 . S
Mg87 O94 2.079 . S
C88 O85 1.250 . S
C88 O86 1.248 1_655 S
C89 O90 1.264 . S
C89 O97 1.249 . S
O90 C89 1.264 . S
O91 Mg84 1.986 . S
O91 C95 1.246 . S
O92 Mg87 2.032 . S
O92 C95 1.259 . S
O93 Mg84 2.114 . S
O93 C96 1.252 . S
O94 Mg84 2.251 . S
O94 Mg87 2.079 . S
O94 C96 1.273 . S
C95 O91 1.246 . S
C95 O92 1.259 . S
C96 O93 1.252 . S
C96 O94 1.273 . S
O97 Mg84 2.010 . S
O97 C89 1.249 . S
Mg98 O99 2.028 . S
Mg98 O105 1.986 . S
Mg98 O107 2.114 1_565 S
Mg98 O108 2.251 . S
Mg98 O111 2.010 . S
O99 Mg98 2.028 . S
O99 C102 1.250 . S
O100 Mg101 2.028 . S
O100 C102 1.248 . S
Mg101 O100 2.028 . S
Mg101 O106 2.032 . S
Mg101 O108 2.079 . S
C102 O99 1.250 . S
C102 O100 1.248 . S
C103 O104 1.264 . S
C103 O111 1.249 . S
O104 C103 1.264 . S
O105 Mg98 1.986 . S
O105 C109 1.246 . S
O106 Mg101 2.032 . S
O106 C109 1.259 . S
O107 Mg98 2.114 1_545 S
O107 C110 1.252 . S
O108 Mg98 2.251 . S
O108 Mg101 2.079 . S
O108 C110 1.273 1_565 S
C109 O105 1.246 . S
C109 O106 1.259 . S
C110 O107 1.252 . S
C110 O108 1.273 1_545 S
O111 Mg98 2.010 . S
O111 C103 1.249 . S
Mg112 O113 2.028 . S
Mg112 O119 1.986 . S
Mg112 O121 2.114 . S
Mg112 O122 2.251 . S
Mg112 O125 2.010 . S
O113 Mg112 2.028 . S
O113 C116 1.250 . S
O114 Mg115 2.028 1_565 S
O114 C116 1.248 1_565 S
Mg115 O114 2.028 1_545 S
Mg115 O120 2.032 . S
Mg115 O122 2.079 . S
C116 O113 1.250 . S
C116 O114 1.248 1_545 S
C117 O118 1.264 . S
C117 O125 1.249 . S
O118 C117 1.264 . S
O119 Mg112 1.986 . S
O119 C123 1.246 . S
O120 Mg115 2.032 . S
O120 C123 1.259 . S
O121 Mg112 2.114 . S
O121 C124 1.252 . S
O122 Mg112 2.251 . S
O122 Mg115 2.079 . S
O122 C124 1.273 . S
C123 O119 1.246 . S
C123 O120 1.259 . S
C124 O121 1.252 . S
C124 O122 1.273 . S
O125 Mg112 2.010 . S
O125 C117 1.249 . S
Mg126 O127 2.028 . S
Mg126 O133 1.986 . S
Mg126 O135 2.114 . S
Mg126 O136 2.251 . S
Mg126 O139 2.010 . S
O127 Mg126 2.028 . S
O127 C130 1.250 . S
O128 Mg129 2.028 1_455 S
O128 C130 1.248 1_455 S
Mg129 O128 2.028 1_655 S
Mg129 O134 2.032 . S
Mg129 O136 2.079 . S
C130 O127 1.250 . S
C130 O128 1.248 1_655 S
C131 O132 1.264 . S
C131 O139 1.249 . S
O132 C131 1.264 . S
O133 Mg126 1.986 . S
O133 C137 1.246 . S
O134 Mg129 2.032 . S
O134 C137 1.259 . S
O135 Mg126 2.114 . S
O135 C138 1.252 . S
O136 Mg126 2.251 . S
O136 Mg129 2.079 . S
O136 C138 1.273 . S
C137 O133 1.246 . S
C137 O134 1.259 . S
C138 O135 1.252 . S
C138 O136 1.273 . S
O139 Mg126 2.010 . S
O139 C131 1.249 . S
Mg140 O141 2.028 . S
Mg140 O147 1.986 . S
Mg140 O149 2.114 . S
Mg140 O150 2.251 . S
Mg140 O153 2.010 . S
O141 Mg140 2.028 . S
O141 C144 1.250 . S
O142 Mg143 2.028 1_545 S
O142 C144 1.248 1_545 S
Mg143 O142 2.028 1_565 S
Mg143 O148 2.032 . S
Mg143 O150 2.079 . S
C144 O141 1.250 . S
C144 O142 1.248 1_565 S
C145 O146 1.264 . S
C145 O153 1.249 . S
O146 C145 1.264 . S
O147 Mg140 1.986 . S
O147 C151 1.246 . S
O148 Mg143 2.032 . S
O148 C151 1.259 . S
O149 Mg140 2.114 . S
O149 C152 1.252 . S
O150 Mg140 2.251 . S
O150 Mg143 2.079 . S
O150 C152 1.273 . S
C151 O147 1.246 . S
C151 O148 1.259 . S
C152 O149 1.252 . S
C152 O150 1.273 . S
O153 Mg140 2.010 . S
O153 C145 1.249 . S
Mg154 O155 2.028 . S
Mg154 O161 1.986 . S
Mg154 O163 2.114 . S
Mg154 O164 2.251 . S
Mg154 O167 2.010 . S
O155 Mg154 2.028 . S
O155 C158 1.250 . S
O156 Mg157 2.028 1_655 S
O156 C158 1.248 1_655 S
Mg157 O156 2.028 1_455 S
Mg157 O162 2.032 . S
Mg157 O164 2.079 . S
C158 O155 1.250 . S
C158 O156 1.248 1_455 S
C159 O160 1.264 . S
C159 O167 1.249 . S
O160 C159 1.264 . S
O161 Mg154 1.986 . S
O161 C165 1.246 . S
O162 Mg157 2.032 . S
O162 C165 1.259 . S
O163 Mg154 2.114 . S
O163 C166 1.252 . S
O164 Mg154 2.251 . S
O164 Mg157 2.079 . S
O164 C166 1.273 . S
C165 O161 1.246 . S
C165 O162 1.259 . S
C166 O163 1.252 . S
C166 O164 1.273 . S
O167 Mg154 2.010 . S
O167 C159 1.249 . S
Mg168 O169 2.028 . S
Mg168 O175 1.986 . S
Mg168 O177 2.114 . S
Mg168 O178 2.251 . S
Mg168 O181 2.010 . S
O169 Mg168 2.028 . S
O169 C172 1.250 . S
O170 Mg171 2.028 1_545 S
O170 C172 1.248 1_545 S
Mg171 O170 2.028 1_565 S
Mg171 O176 2.032 . S
Mg171 O178 2.079 . S
C172 O169 1.250 . S
C172 O170 1.248 1_565 S
C173 O174 1.264 . S
C173 O181 1.249 . S
O174 C173 1.264 . S
O175 Mg168 1.986 . S
O175 C179 1.246 . S
O176 Mg171 2.032 . S
O176 C179 1.259 . S
O177 Mg168 2.114 . S
O177 C180 1.252 . S
O178 Mg168 2.251 . S
O178 Mg171 2.079 . S
O178 C180 1.273 . S
C179 O175 1.246 . S
C179 O176 1.259 . S
C180 O177 1.252 . S
C180 O178 1.273 . S
O181 Mg168 2.010 . S
O181 C173 1.249 . S
Mg182 O183 2.028 . S
Mg182 O189 1.986 . S
Mg182 O191 2.114 . S
Mg182 O192 2.251 . S
Mg182 O195 2.010 . S
O183 Mg182 2.028 . S
O183 C186 1.250 . S
O184 Mg185 2.028 1_655 S
O184 C186 1.248 1_655 S
Mg185 O184 2.028 1_455 S
Mg185 O190 2.032 . S
Mg185 O192 2.079 . S
C186 O183 1.250 . S
C186 O184 1.248 1_455 S
C187 O188 1.264 . S
C187 O195 1.249 . S
O188 C187 1.264 . S
O189 Mg182 1.986 . S
O189 C193 1.246 . S
O190 Mg185 2.032 . S
O190 C193 1.259 . S
O191 Mg182 2.114 . S
O191 C194 1.252 . S
O192 Mg182 2.251 . S
O192 Mg185 2.079 . S
O192 C194 1.273 . S
C193 O189 1.246 . S
C193 O190 1.259 . S
C194 O191 1.252 . S
C194 O192 1.273 . S
O195 Mg182 2.010 . S
O195 C187 1.249 . S
Mg196 O197 2.028 . S
Mg196 O203 1.986 . S
Mg196 O205 2.114 . S
Mg196 O206 2.251 . S
Mg196 O209 2.010 . S
O197 Mg196 2.028 . S
O197 C200 1.250 . S
O198 Mg199 2.028 1_565 S
O198 C200 1.248 1_565 S
Mg199 O198 2.028 1_545 S
Mg199 O204 2.032 . S
Mg199 O206 2.079 . S
C200 O197 1.250 . S
C200 O198 1.248 1_545 S
C201 O202 1.264 . S
C201 O209 1.249 . S
O202 C201 1.264 . S
O203 Mg196 1.986 . S
O203 C207 1.246 . S
O204 Mg199 2.032 . S
O204 C207 1.259 . S
O205 Mg196 2.114 . S
O205 C208 1.252 . S
O206 Mg196 2.251 . S
O206 Mg199 2.079 . S
O206 C208 1.273 . S
C207 O203 1.246 . S
C207 O204 1.259 . S
C208 O205 1.252 . S
C208 O206 1.273 . S
O209 Mg196 2.010 . S
O209 C201 1.249 . S
Mg210 O211 2.028 . S
Mg210 O217 1.986 . S
Mg210 O219 2.114 . S
Mg210 O220 2.251 . S
Mg210 O223 2.010 . S
O211 Mg210 2.028 . S
O211 C214 1.250 . S
O212 Mg213 2.028 1_455 S
O212 C214 1.248 1_455 S
Mg213 O212 2.028 1_655 S
Mg213 O218 2.032 . S
Mg213 O220 2.079 . S
C214 O211 1.250 . S
C214 O212 1.248 1_655 S
C215 O216 1.264 . S
C215 O223 1.249 . S
O216 C215 1.264 . S
O217 Mg210 1.986 . S
O217 C221 1.246 . S
O218 Mg213 2.032 . S
O218 C221 1.259 . S
O219 Mg210 2.114 . S
O219 C222 1.252 . S
O220 Mg210 2.251 . S
O220 Mg213 2.079 . S
O220 C222 1.273 . S
C221 O217 1.246 . S
C221 O218 1.259 . S
C222 O219 1.252 . S
C222 O220 1.273 . S
O223 Mg210 2.010 . S
O223 C215 1.249 . S
Mg224 O225 2.028 . S
Mg224 O231 1.986 . S
Mg224 O233 2.114 1_554 S
Mg224 O234 2.251 . S
Mg224 O237 2.010 . S
O225 Mg224 2.028 . S
O225 C228 1.250 . S
O226 Mg227 2.028 . S
O226 C228 1.248 . S
Mg227 O226 2.028 . S
Mg227 O232 2.032 . S
Mg227 O234 2.079 . S
C228 O225 1.250 . S
C228 O226 1.248 . S
C229 O230 1.264 . S
C229 O237 1.249 . S
O230 C229 1.264 . S
O231 Mg224 1.986 . S
O231 C235 1.246 . S
O232 Mg227 2.032 . S
O232 C235 1.259 . S
O233 Mg224 2.114 1_556 S
O233 C236 1.252 . S
O234 Mg224 2.251 . S
O234 Mg227 2.079 . S
O234 C236 1.273 1_554 S
C235 O231 1.246 . S
C235 O232 1.259 . S
C236 O233 1.252 . S
C236 O234 1.273 1_556 S
O237 Mg224 2.010 . S
O237 C229 1.249 . S
Mg238 O239 2.028 . S
Mg238 O245 1.986 . S
Mg238 O247 2.114 1_556 S
Mg238 O248 2.251 . S
Mg238 O251 2.010 . S
O239 Mg238 2.028 . S
O239 C242 1.250 . S
O240 Mg241 2.028 . S
O240 C242 1.248 . S
Mg241 O240 2.028 . S
Mg241 O246 2.032 . S
Mg241 O248 2.079 . S
C242 O239 1.250 . S
C242 O240 1.248 . S
C243 O244 1.264 . S
C243 O251 1.249 . S
O244 C243 1.264 . S
O245 Mg238 1.986 . S
O245 C249 1.246 . S
O246 Mg241 2.032 . S
O246 C249 1.259 . S
O247 Mg238 2.114 1_554 S
O247 C250 1.252 . S
O248 Mg238 2.251 . S
O248 Mg241 2.079 . S
O248 C250 1.273 1_556 S
C249 O245 1.246 . S
C249 O246 1.259 . S
C250 O247 1.252 . S
C250 O248 1.273 1_554 S
O251 Mg238 2.010 . S
O251 C243 1.249 . S
Mg252 O253 2.028 . S
Mg252 O259 1.986 . S
Mg252 O261 2.114 . S
Mg252 O262 2.251 . S
Mg252 O265 2.010 . S
O253 Mg252 2.028 . S
O253 C256 1.250 . S
O254 Mg255 2.028 1_554 S
O254 C256 1.248 1_554 S
Mg255 O254 2.028 1_556 S
Mg255 O260 2.032 . S
Mg255 O262 2.079 . S
C256 O253 1.250 . S
C256 O254 1.248 1_556 S
C257 O258 1.264 . S
C257 O265 1.249 . S
O258 C257 1.264 . S
O259 Mg252 1.986 . S
O259 C263 1.246 . S
O260 Mg255 2.032 . S
O260 C263 1.259 . S
O261 Mg252 2.114 . S
O261 C264 1.252 . S
O262 Mg252 2.251 . S
O262 Mg255 2.079 . S
O262 C264 1.273 . S
C263 O259 1.246 . S
C263 O260 1.259 . S
C264 O261 1.252 . S
C264 O262 1.273 . S
O265 Mg252 2.010 . S
O265 C257 1.249 . S
Mg266 O267 2.028 . S
Mg266 O273 1.986 . S
Mg266 O275 2.114 1_556 S
Mg266 O276 2.251 . S
Mg266 O279 2.010 . S
O267 Mg266 2.028 . S
O267 C270 1.250 . S
O268 Mg269 2.028 . S
O268 C270 1.248 . S
Mg269 O268 2.028 . S
Mg269 O274 2.032 . S
Mg269 O276 2.079 . S
C270 O267 1.250 . S
C270 O268 1.248 . S
C271 O272 1.264 . S
C271 O279 1.249 . S
O272 C271 1.264 . S
O273 Mg266 1.986 . S
O273 C277 1.246 . S
O274 Mg269 2.032 . S
O274 C277 1.259 . S
O275 Mg266 2.114 1_554 S
O275 C278 1.252 . S
O276 Mg266 2.251 . S
O276 Mg269 2.079 . S
O276 C278 1.273 1_556 S
C277 O273 1.246 . S
C277 O274 1.259 . S
C278 O275 1.252 . S
C278 O276 1.273 1_554 S
O279 Mg266 2.010 . S
O279 C271 1.249 . S
Mg280 O281 2.028 . S
Mg280 O287 1.986 . S
Mg280 O289 2.114 . S
Mg280 O290 2.251 . S
Mg280 O293 2.010 . S
O281 Mg280 2.028 . S
O281 C284 1.250 . S
O282 Mg283 2.028 1_554 S
O282 C284 1.248 1_554 S
Mg283 O282 2.028 1_556 S
Mg283 O288 2.032 . S
Mg283 O290 2.079 . S
C284 O281 1.250 . S
C284 O282 1.248 1_556 S
C285 O286 1.264 . S
C285 O293 1.249 . S
O286 C285 1.264 . S
O287 Mg280 1.986 . S
O287 C291 1.246 . S
O288 Mg283 2.032 . S
O288 C291 1.259 . S
O289 Mg280 2.114 . S
O289 C292 1.252 . S
O290 Mg280 2.251 . S
O290 Mg283 2.079 . S
O290 C292 1.273 . S
C291 O287 1.246 . S
C291 O288 1.259 . S
C292 O289 1.252 . S
C292 O290 1.273 . S
O293 Mg280 2.010 . S
O293 C285 1.249 . S
Mg294 O295 2.028 . S
Mg294 O301 1.986 . S
Mg294 O303 2.114 1_554 S
Mg294 O304 2.251 . S
Mg294 O307 2.010 . S
O295 Mg294 2.028 . S
O295 C298 1.250 . S
O296 Mg297 2.028 . S
O296 C298 1.248 . S
Mg297 O296 2.028 . S
Mg297 O302 2.032 . S
Mg297 O304 2.079 . S
C298 O295 1.250 . S
C298 O296 1.248 . S
C299 O300 1.264 . S
C299 O307 1.249 . S
O300 C299 1.264 . S
O301 Mg294 1.986 . S
O301 C305 1.246 . S
O302 Mg297 2.032 . S
O302 C305 1.259 . S
O303 Mg294 2.114 1_556 S
O303 C306 1.252 . S
O304 Mg294 2.251 . S
O304 Mg297 2.079 . S
O304 C306 1.273 1_554 S
C305 O301 1.246 . S
C305 O302 1.259 . S
C306 O303 1.252 . S
C306 O304 1.273 1_556 S
O307 Mg294 2.010 . S
O307 C299 1.249 . S
Mg308 O309 2.028 . S
Mg308 O315 1.986 . S
Mg308 O317 2.114 . S
Mg308 O318 2.251 . S
Mg308 O321 2.010 . S
O309 Mg308 2.028 . S
O309 C312 1.250 . S
O310 Mg311 2.028 1_556 S
O310 C312 1.248 1_556 S
Mg311 O310 2.028 1_554 S
Mg311 O316 2.032 . S
Mg311 O318 2.079 . S
C312 O309 1.250 . S
C312 O310 1.248 1_554 S
C313 O314 1.264 . S
C313 O321 1.249 . S
O314 C313 1.264 . S
O315 Mg308 1.986 . S
O315 C319 1.246 . S
O316 Mg311 2.032 . S
O316 C319 1.259 . S
O317 Mg308 2.114 . S
O317 C320 1.252 . S
O318 Mg308 2.251 . S
O318 Mg311 2.079 . S
O318 C320 1.273 . S
C319 O315 1.246 . S
C319 O316 1.259 . S
C320 O317 1.252 . S
C320 O318 1.273 . S
O321 Mg308 2.010 . S
O321 C313 1.249 . S
Mg322 O323 2.028 . S
Mg322 O329 1.986 . S
Mg322 O331 2.114 . S
Mg322 O332 2.251 . S
Mg322 O335 2.010 . S
O323 Mg322 2.028 . S
O323 C326 1.250 . S
O324 Mg325 2.028 1_556 S
O324 C326 1.248 1_556 S
Mg325 O324 2.028 1_554 S
Mg325 O330 2.032 . S
Mg325 O332 2.079 . S
C326 O323 1.250 . S
C326 O324 1.248 1_554 S
C327 O328 1.264 . S
C327 O335 1.249 . S
O328 C327 1.264 . S
O329 Mg322 1.986 . S
O329 C333 1.246 . S
O330 Mg325 2.032 . S
O330 C333 1.259 . S
O331 Mg322 2.114 . S
O331 C334 1.252 . S
O332 Mg322 2.251 . S
O332 Mg325 2.079 . S
O332 C334 1.273 . S
C333 O329 1.246 . S
C333 O330 1.259 . S
C334 O331 1.252 . S
C334 O332 1.273 . S
O335 Mg322 2.010 . S
O335 C327 1.249 . S
Mg336 O337 2.028 . S
Mg336 O343 1.986 . S
Mg336 O345 2.114 . S
Mg336 O346 2.251 . S
Mg336 O349 2.010 . S
O337 Mg336 2.028 . S
O337 C340 1.250 . S
O338 Mg339 2.028 . S
O338 C340 1.248 . S
Mg339 O338 2.028 . S
Mg339 O344 2.032 . S
Mg339 O346 2.079 . S
C340 O337 1.250 . S
C340 O338 1.248 . S
C341 O342 1.264 . S
C341 O349 1.249 . S
O342 C341 1.264 . S
O343 Mg336 1.986 . S
O343 C347 1.246 . S
O344 Mg339 2.032 . S
O344 C347 1.259 . S
O345 Mg336 2.114 . S
O345 C348 1.252 . S
O346 Mg336 2.251 . S
O346 Mg339 2.079 . S
O346 C348 1.273 . S
C347 O343 1.246 . S
C347 O344 1.259 . S
C348 O345 1.252 . S
C348 O346 1.273 . S
O349 Mg336 2.010 . S
O349 C341 1.249 . S
Mg350 O351 2.028 . S
Mg350 O357 1.986 . S
Mg350 O359 2.114 . S
Mg350 O360 2.251 . S
Mg350 O363 2.010 . S
O351 Mg350 2.028 . S
O351 C354 1.250 . S
O352 Mg353 2.028 . S
O352 C354 1.248 . S
Mg353 O352 2.028 . S
Mg353 O358 2.032 . S
Mg353 O360 2.079 . S
C354 O351 1.250 . S
C354 O352 1.248 . S
C355 O356 1.264 . S
C355 O363 1.249 . S
O356 C355 1.264 . S
O357 Mg350 1.986 . S
O357 C361 1.246 . S
O358 Mg353 2.032 . S
O358 C361 1.259 . S
O359 Mg350 2.114 . S
O359 C362 1.252 . S
O360 Mg350 2.251 . S
O360 Mg353 2.079 . S
O360 C362 1.273 . S
C361 O357 1.246 . S
C361 O358 1.259 . S
C362 O359 1.252 . S
C362 O360 1.273 . S
O363 Mg350 2.010 . S
O363 C355 1.249 . S
Mg364 O365 2.028 . S
Mg364 O371 1.986 . S
Mg364 O373 2.114 . S
Mg364 O374 2.251 . S
Mg364 O377 2.010 . S
O365 Mg364 2.028 . S
O365 C368 1.250 . S
O366 Mg367 2.028 . S
O366 C368 1.248 . S
Mg367 O366 2.028 . S
Mg367 O372 2.032 . S
Mg367 O374 2.079 . S
C368 O365 1.250 . S
C368 O366 1.248 . S
C369 O370 1.264 . S
C369 O377 1.249 . S
O370 C369 1.264 . S
O371 Mg364 1.986 . S
O371 C375 1.246 . S
O372 Mg367 2.032 . S
O372 C375 1.259 . S
O373 Mg364 2.114 . S
O373 C376 1.252 . S
O374 Mg364 2.251 . S
O374 Mg367 2.079 . S
O374 C376 1.273 . S
C375 O371 1.246 . S
C375 O372 1.259 . S
C376 O373 1.252 . S
C376 O374 1.273 . S
O377 Mg364 2.010 . S
O377 C369 1.249 . S
Mg378 O379 2.028 . S
Mg378 O385 1.986 . S
Mg378 O387 2.114 . S
Mg378 O388 2.251 . S
Mg378 O391 2.010 . S
O379 Mg378 2.028 . S
O379 C382 1.250 . S
O380 Mg381 2.028 . S
O380 C382 1.248 . S
Mg381 O380 2.028 . S
Mg381 O386 2.032 . S
Mg381 O388 2.079 . S
C382 O379 1.250 . S
C382 O380 1.248 . S
C383 O384 1.264 . S
C383 O391 1.249 . S
O384 C383 1.264 . S
O385 Mg378 1.986 . S
O385 C389 1.246 . S
O386 Mg381 2.032 . S
O386 C389 1.259 . S
O387 Mg378 2.114 . S
O387 C390 1.252 . S
O388 Mg378 2.251 . S
O388 Mg381 2.079 . S
O388 C390 1.273 . S
C389 O385 1.246 . S
C389 O386 1.259 . S
C390 O387 1.252 . S
C390 O388 1.273 . S
O391 Mg378 2.010 . S
O391 C383 1.249 . S
Mg392 O393 2.028 . S
Mg392 O399 1.986 . S
Mg392 O401 2.114 . S
Mg392 O402 2.251 . S
Mg392 O405 2.010 . S
O393 Mg392 2.028 . S
O393 C396 1.250 . S
O394 Mg395 2.028 . S
O394 C396 1.248 . S
Mg395 O394 2.028 . S
Mg395 O400 2.032 . S
Mg395 O402 2.079 . S
C396 O393 1.250 . S
C396 O394 1.248 . S
C397 O398 1.264 . S
C397 O405 1.249 . S
O398 C397 1.264 . S
O399 Mg392 1.986 . S
O399 C403 1.246 . S
O400 Mg395 2.032 . S
O400 C403 1.259 . S
O401 Mg392 2.114 . S
O401 C404 1.252 . S
O402 Mg392 2.251 . S
O402 Mg395 2.079 . S
O402 C404 1.273 . S
C403 O399 1.246 . S
C403 O400 1.259 . S
C404 O401 1.252 . S
C404 O402 1.273 . S
O405 Mg392 2.010 . S
O405 C397 1.249 . S
Mg406 O407 2.028 . S
Mg406 O413 1.986 . S
Mg406 O415 2.114 . S
Mg406 O416 2.251 . S
Mg406 O419 2.010 . S
O407 Mg406 2.028 . S
O407 C410 1.250 . S
O408 Mg409 2.028 . S
O408 C410 1.248 . S
Mg409 O408 2.028 . S
Mg409 O414 2.032 . S
Mg409 O416 2.079 . S
C410 O407 1.250 . S
C410 O408 1.248 . S
C411 O412 1.264 . S
C411 O419 1.249 . S
O412 C411 1.264 . S
O413 Mg406 1.986 . S
O413 C417 1.246 . S
O414 Mg409 2.032 . S
O414 C417 1.259 . S
O415 Mg406 2.114 . S
O415 C418 1.252 . S
O416 Mg406 2.251 . S
O416 Mg409 2.079 . S
O416 C418 1.273 . S
C417 O413 1.246 . S
C417 O414 1.259 . S
C418 O415 1.252 . S
C418 O416 1.273 . S
O419 Mg406 2.010 . S
O419 C411 1.249 . S
Mg420 O421 2.028 . S
Mg420 O427 1.986 . S
Mg420 O429 2.114 . S
Mg420 O430 2.251 . S
Mg420 O433 2.010 . S
O421 Mg420 2.028 . S
O421 C424 1.250 . S
O422 Mg423 2.028 . S
O422 C424 1.248 . S
Mg423 O422 2.028 . S
Mg423 O428 2.032 . S
Mg423 O430 2.079 . S
C424 O421 1.250 . S
C424 O422 1.248 . S
C425 O426 1.264 . S
C425 O433 1.249 . S
O426 C425 1.264 . S
O427 Mg420 1.986 . S
O427 C431 1.246 . S
O428 Mg423 2.032 . S
O428 C431 1.259 . S
O429 Mg420 2.114 . S
O429 C432 1.252 . S
O430 Mg420 2.251 . S
O430 Mg423 2.079 . S
O430 C432 1.273 . S
C431 O427 1.246 . S
C431 O428 1.259 . S
C432 O429 1.252 . S
C432 O430 1.273 . S
O433 Mg420 2.010 . S
O433 C425 1.249 . S
Mg434 O435 2.028 . S
Mg434 O441 1.986 . S
Mg434 O443 2.114 . S
Mg434 O444 2.251 . S
Mg434 O447 2.010 . S
O435 Mg434 2.028 . S
O435 C438 1.250 . S
O436 Mg437 2.028 . S
O436 C438 1.248 . S
Mg437 O436 2.028 . S
Mg437 O442 2.032 . S
Mg437 O444 2.079 . S
C438 O435 1.250 . S
C438 O436 1.248 . S
C439 O440 1.264 . S
C439 O447 1.249 . S
O440 C439 1.264 . S
O441 Mg434 1.986 . S
O441 C445 1.246 . S
O442 Mg437 2.032 . S
O442 C445 1.259 . S
O443 Mg434 2.114 . S
O443 C446 1.252 . S
O444 Mg434 2.251 . S
O444 Mg437 2.079 . S
O444 C446 1.273 . S
C445 O441 1.246 . S
C445 O442 1.259 . S
C446 O443 1.252 . S
C446 O444 1.273 . S
O447 Mg434 2.010 . S
O447 C439 1.249 . S
Mg448 O449 2.028 . S
Mg448 O455 1.986 . S
Mg448 O457 2.114 . S
Mg448 O458 2.251 . S
Mg448 O461 2.010 . S
O449 Mg448 2.028 . S
O449 C452 1.250 . S
O450 Mg451 2.028 . S
O450 C452 1.248 . S
Mg451 O450 2.028 . S
Mg451 O456 2.032 . S
Mg451 O458 2.079 . S
C452 O449 1.250 . S
C452 O450 1.248 . S
C453 O454 1.264 . S
C453 O461 1.249 . S
O454 C453 1.264 . S
O455 Mg448 1.986 . S
O455 C459 1.246 . S
O456 Mg451 2.032 . S
O456 C459 1.259 . S
O457 Mg448 2.114 . S
O457 C460 1.252 . S
O458 Mg448 2.251 . S
O458 Mg451 2.079 . S
O458 C460 1.273 . S
C459 O455 1.246 . S
C459 O456 1.259 . S
C460 O457 1.252 . S
C460 O458 1.273 . S
O461 Mg448 2.010 . S
O461 C453 1.249 . S
Mg462 O463 2.028 . S
Mg462 O469 1.986 . S
Mg462 O471 2.114 . S
Mg462 O472 2.251 . S
Mg462 O475 2.010 . S
O463 Mg462 2.028 . S
O463 C466 1.250 . S
O464 Mg465 2.028 . S
O464 C466 1.248 . S
Mg465 O464 2.028 . S
Mg465 O470 2.032 . S
Mg465 O472 2.079 . S
C466 O463 1.250 . S
C466 O464 1.248 . S
C467 O468 1.264 . S
C467 O475 1.249 . S
O468 C467 1.264 . S
O469 Mg462 1.986 . S
O469 C473 1.246 . S
O470 Mg465 2.032 . S
O470 C473 1.259 . S
O471 Mg462 2.114 . S
O471 C474 1.252 . S
O472 Mg462 2.251 . S
O472 Mg465 2.079 . S
O472 C474 1.273 . S
C473 O469 1.246 . S
C473 O470 1.259 . S
C474 O471 1.252 . S
C474 O472 1.273 . S
O475 Mg462 2.010 . S
O475 C467 1.249 . S
Mg476 O477 2.028 . S
Mg476 O483 1.986 . S
Mg476 O485 2.114 . S
Mg476 O486 2.251 . S
Mg476 O489 2.010 . S
O477 Mg476 2.028 . S
O477 C480 1.250 . S
O478 Mg479 2.028 . S
O478 C480 1.248 . S
Mg479 O478 2.028 . S
Mg479 O484 2.032 . S
Mg479 O486 2.079 . S
C480 O477 1.250 . S
C480 O478 1.248 . S
C481 O482 1.264 . S
C481 O489 1.249 . S
O482 C481 1.264 . S
O483 Mg476 1.986 . S
O483 C487 1.246 . S
O484 Mg479 2.032 . S
O484 C487 1.259 . S
O485 Mg476 2.114 . S
O485 C488 1.252 . S
O486 Mg476 2.251 . S
O486 Mg479 2.079 . S
O486 C488 1.273 . S
C487 O483 1.246 . S
C487 O484 1.259 . S
C488 O485 1.252 . S
C488 O486 1.273 . S
O489 Mg476 2.010 . S
O489 C481 1.249 . S
Mg490 O491 2.028 . S
Mg490 O497 1.986 . S
Mg490 O499 2.114 . S
Mg490 O500 2.251 . S
Mg490 O503 2.010 . S
O491 Mg490 2.028 . S
O491 C494 1.250 . S
O492 Mg493 2.028 . S
O492 C494 1.248 . S
Mg493 O492 2.028 . S
Mg493 O498 2.032 . S
Mg493 O500 2.079 . S
C494 O491 1.250 . S
C494 O492 1.248 . S
C495 O496 1.264 . S
C495 O503 1.249 . S
O496 C495 1.264 . S
O497 Mg490 1.986 . S
O497 C501 1.246 . S
O498 Mg493 2.032 . S
O498 C501 1.259 . S
O499 Mg490 2.114 . S
O499 C502 1.252 . S
O500 Mg490 2.251 . S
O500 Mg493 2.079 . S
O500 C502 1.273 . S
C501 O497 1.246 . S
C501 O498 1.259 . S
C502 O499 1.252 . S
C502 O500 1.273 . S
O503 Mg490 2.010 . S
O503 C495 1.249 . S
Mg504 O505 2.028 . S
Mg504 O511 1.986 . S
Mg504 O513 2.114 . S
Mg504 O514 2.251 . S
Mg504 O517 2.010 . S
O505 Mg504 2.028 . S
O505 C508 1.250 . S
O506 Mg507 2.028 . S
O506 C508 1.248 . S
Mg507 O506 2.028 . S
Mg507 O512 2.032 . S
Mg507 O514 2.079 . S
C508 O505 1.250 . S
C508 O506 1.248 . S
C509 O510 1.264 . S
C509 O517 1.249 . S
O510 C509 1.264 . S
O511 Mg504 1.986 . S
O511 C515 1.246 . S
O512 Mg507 2.032 . S
O512 C515 1.259 . S
O513 Mg504 2.114 . S
O513 C516 1.252 . S
O514 Mg504 2.251 . S
O514 Mg507 2.079 . S
O514 C516 1.273 . S
C515 O511 1.246 . S
C515 O512 1.259 . S
C516 O513 1.252 . S
C516 O514 1.273 . S
O517 Mg504 2.010 . S
O517 C509 1.249 . S
Mg518 O519 2.028 . S
Mg518 O525 1.986 . S
Mg518 O527 2.114 . S
Mg518 O528 2.251 . S
Mg518 O531 2.010 . S
O519 Mg518 2.028 . S
O519 C522 1.250 . S
O520 Mg521 2.028 . S
O520 C522 1.248 . S
Mg521 O520 2.028 . S
Mg521 O526 2.032 . S
Mg521 O528 2.079 . S
C522 O519 1.250 . S
C522 O520 1.248 . S
C523 O524 1.264 . S
C523 O531 1.249 . S
O524 C523 1.264 . S
O525 Mg518 1.986 . S
O525 C529 1.246 . S
O526 Mg521 2.032 . S
O526 C529 1.259 . S
O527 Mg518 2.114 . S
O527 C530 1.252 . S
O528 Mg518 2.251 . S
O528 Mg521 2.079 . S
O528 C530 1.273 . S
C529 O525 1.246 . S
C529 O526 1.259 . S
C530 O527 1.252 . S
C530 O528 1.273 . S
O531 Mg518 2.010 . S
O531 C523 1.249 . S
Mg532 O533 2.028 . S
Mg532 O539 1.986 . S
Mg532 O541 2.114 . S
Mg532 O542 2.251 . S
Mg532 O545 2.010 . S
O533 Mg532 2.028 . S
O533 C536 1.250 . S
O534 Mg535 2.028 . S
O534 C536 1.248 . S
Mg535 O534 2.028 . S
Mg535 O540 2.032 . S
Mg535 O542 2.079 . S
C536 O533 1.250 . S
C536 O534 1.248 . S
C537 O538 1.264 . S
C537 O545 1.249 . S
O538 C537 1.264 . S
O539 Mg532 1.986 . S
O539 C543 1.246 . S
O540 Mg535 2.032 . S
O540 C543 1.259 . S
O541 Mg532 2.114 . S
O541 C544 1.252 . S
O542 Mg532 2.251 . S
O542 Mg535 2.079 . S
O542 C544 1.273 . S
C543 O539 1.246 . S
C543 O540 1.259 . S
C544 O541 1.252 . S
C544 O542 1.273 . S
O545 Mg532 2.010 . S
O545 C537 1.249 . S
Mg546 O547 2.028 . S
Mg546 O553 1.986 . S
Mg546 O555 2.114 . S
Mg546 O556 2.251 . S
Mg546 O559 2.010 . S
O547 Mg546 2.028 . S
O547 C550 1.250 . S
O548 Mg549 2.028 . S
O548 C550 1.248 . S
Mg549 O548 2.028 . S
Mg549 O554 2.032 . S
Mg549 O556 2.079 . S
C550 O547 1.250 . S
C550 O548 1.248 . S
C551 O552 1.264 . S
C551 O559 1.249 . S
O552 C551 1.264 . S
O553 Mg546 1.986 . S
O553 C557 1.246 . S
O554 Mg549 2.032 . S
O554 C557 1.259 . S
O555 Mg546 2.114 . S
O555 C558 1.252 . S
O556 Mg546 2.251 . S
O556 Mg549 2.079 . S
O556 C558 1.273 . S
C557 O553 1.246 . S
C557 O554 1.259 . S
C558 O555 1.252 . S
C558 O556 1.273 . S
O559 Mg546 2.010 . S
O559 C551 1.249 . S
Mg560 O561 2.028 . S
Mg560 O567 1.986 . S
Mg560 O569 2.114 . S
Mg560 O570 2.251 . S
Mg560 O573 2.010 . S
O561 Mg560 2.028 . S
O561 C564 1.250 . S
O562 Mg563 2.028 . S
O562 C564 1.248 . S
Mg563 O562 2.028 . S
Mg563 O568 2.032 . S
Mg563 O570 2.079 . S
C564 O561 1.250 . S
C564 O562 1.248 . S
C565 O566 1.264 . S
C565 O573 1.249 . S
O566 C565 1.264 . S
O567 Mg560 1.986 . S
O567 C571 1.246 . S
O568 Mg563 2.032 . S
O568 C571 1.259 . S
O569 Mg560 2.114 . S
O569 C572 1.252 . S
O570 Mg560 2.251 . S
O570 Mg563 2.079 . S
O570 C572 1.273 . S
C571 O567 1.246 . S
C571 O568 1.259 . S
C572 O569 1.252 . S
C572 O570 1.273 . S
O573 Mg560 2.010 . S
O573 C565 1.249 . S
Mg574 O575 2.028 . S
Mg574 O581 1.986 . S
Mg574 O583 2.114 . S
Mg574 O584 2.251 . S
Mg574 O587 2.010 . S
O575 Mg574 2.028 . S
O575 C578 1.250 . S
O576 Mg577 2.028 . S
O576 C578 1.248 . S
Mg577 O576 2.028 . S
Mg577 O582 2.032 . S
Mg577 O584 2.079 . S
C578 O575 1.250 . S
C578 O576 1.248 . S
C579 O580 1.264 . S
C579 O587 1.249 . S
O580 C579 1.264 . S
O581 Mg574 1.986 . S
O581 C585 1.246 . S
O582 Mg577 2.032 . S
O582 C585 1.259 . S
O583 Mg574 2.114 . S
O583 C586 1.252 . S
O584 Mg574 2.251 . S
O584 Mg577 2.079 . S
O584 C586 1.273 . S
C585 O581 1.246 . S
C585 O582 1.259 . S
C586 O583 1.252 . S
C586 O584 1.273 . S
O587 Mg574 2.010 . S
O587 C579 1.249 . S
Mg588 O589 2.028 . S
Mg588 O595 1.986 . S
Mg588 O597 2.114 . S
Mg588 O598 2.251 . S
Mg588 O601 2.010 . S
O589 Mg588 2.028 . S
O589 C592 1.250 . S
O590 Mg591 2.028 . S
O590 C592 1.248 . S
Mg591 O590 2.028 . S
Mg591 O596 2.032 . S
Mg591 O598 2.079 . S
C592 O589 1.250 . S
C592 O590 1.248 . S
C593 O594 1.264 . S
C593 O601 1.249 . S
O594 C593 1.264 . S
O595 Mg588 1.986 . S
O595 C599 1.246 . S
O596 Mg591 2.032 . S
O596 C599 1.259 . S
O597 Mg588 2.114 . S
O597 C600 1.252 . S
O598 Mg588 2.251 . S
O598 Mg591 2.079 . S
O598 C600 1.273 . S
C599 O595 1.246 . S
C599 O596 1.259 . S
C600 O597 1.252 . S
C600 O598 1.273 . S
O601 Mg588 2.010 . S
O601 C593 1.249 . S
Mg602 O603 2.028 . S
Mg602 O609 1.986 . S
Mg602 O611 2.114 . S
Mg602 O612 2.251 . S
Mg602 O615 2.010 . S
O603 Mg602 2.028 . S
O603 C606 1.250 . S
O604 Mg605 2.028 . S
O604 C606 1.248 . S
Mg605 O604 2.028 . S
Mg605 O610 2.032 . S
Mg605 O612 2.079 . S
C606 O603 1.250 . S
C606 O604 1.248 . S
C607 O608 1.264 . S
C607 O615 1.249 . S
O608 C607 1.264 . S
O609 Mg602 1.986 . S
O609 C613 1.246 . S
O610 Mg605 2.032 . S
O610 C613 1.259 . S
O611 Mg602 2.114 . S
O611 C614 1.252 . S
O612 Mg602 2.251 . S
O612 Mg605 2.079 . S
O612 C614 1.273 . S
C613 O609 1.246 . S
C613 O610 1.259 . S
C614 O611 1.252 . S
C614 O612 1.273 . S
O615 Mg602 2.010 . S
O615 C607 1.249 . S
Mg616 O617 2.028 . S
Mg616 O623 1.986 . S
Mg616 O625 2.114 . S
Mg616 O626 2.251 . S
Mg616 O629 2.010 . S
O617 Mg616 2.028 . S
O617 C620 1.250 . S
O618 Mg619 2.028 . S
O618 C620 1.248 . S
Mg619 O618 2.028 . S
Mg619 O624 2.032 . S
Mg619 O626 2.079 . S
C620 O617 1.250 . S
C620 O618 1.248 . S
C621 O622 1.264 . S
C621 O629 1.249 . S
O622 C621 1.264 . S
O623 Mg616 1.986 . S
O623 C627 1.246 . S
O624 Mg619 2.032 . S
O624 C627 1.259 . S
O625 Mg616 2.114 . S
O625 C628 1.252 . S
O626 Mg616 2.251 . S
O626 Mg619 2.079 . S
O626 C628 1.273 . S
C627 O623 1.246 . S
C627 O624 1.259 . S
C628 O625 1.252 . S
C628 O626 1.273 . S
O629 Mg616 2.010 . S
O629 C621 1.249 . S
Mg630 O631 2.028 . S
Mg630 O637 1.986 . S
Mg630 O639 2.114 . S
Mg630 O640 2.251 . S
Mg630 O643 2.010 . S
O631 Mg630 2.028 . S
O631 C634 1.250 . S
O632 Mg633 2.028 . S
O632 C634 1.248 . S
Mg633 O632 2.028 . S
Mg633 O638 2.032 . S
Mg633 O640 2.079 . S
C634 O631 1.250 . S
C634 O632 1.248 . S
C635 O636 1.264 . S
C635 O643 1.249 . S
O636 C635 1.264 . S
O637 Mg630 1.986 . S
O637 C641 1.246 . S
O638 Mg633 2.032 . S
O638 C641 1.259 . S
O639 Mg630 2.114 . S
O639 C642 1.252 . S
O640 Mg630 2.251 . S
O640 Mg633 2.079 . S
O640 C642 1.273 . S
C641 O637 1.246 . S
C641 O638 1.259 . S
C642 O639 1.252 . S
C642 O640 1.273 . S
O643 Mg630 2.010 . S
O643 C635 1.249 . S
Mg644 O645 2.028 . S
Mg644 O651 1.986 . S
Mg644 O653 2.114 . S
Mg644 O654 2.251 . S
Mg644 O657 2.010 . S
O645 Mg644 2.028 . S
O645 C648 1.250 . S
O646 Mg647 2.028 . S
O646 C648 1.248 . S
Mg647 O646 2.028 . S
Mg647 O652 2.032 . S
Mg647 O654 2.079 . S
C648 O645 1.250 . S
C648 O646 1.248 . S
C649 O650 1.264 . S
C649 O657 1.249 . S
O650 C649 1.264 . S
O651 Mg644 1.986 . S
O651 C655 1.246 . S
O652 Mg647 2.032 . S
O652 C655 1.259 . S
O653 Mg644 2.114 . S
O653 C656 1.252 . S
O654 Mg644 2.251 . S
O654 Mg647 2.079 . S
O654 C656 1.273 . S
C655 O651 1.246 . S
C655 O652 1.259 . S
C656 O653 1.252 . S
C656 O654 1.273 . S
O657 Mg644 2.010 . S
O657 C649 1.249 . S
Mg658 O659 2.028 . S
Mg658 O665 1.986 . S
Mg658 O667 2.114 . S
Mg658 O668 2.251 . S
Mg658 O671 2.010 . S
O659 Mg658 2.028 . S
O659 C662 1.250 . S
O660 Mg661 2.028 . S
O660 C662 1.248 . S
Mg661 O660 2.028 . S
Mg661 O666 2.032 . S
Mg661 O668 2.079 . S
C662 O659 1.250 . S
C662 O660 1.248 . S
C663 O664 1.264 . S
C663 O671 1.249 . S
O664 C663 1.264 . S
O665 Mg658 1.986 . S
O665 C669 1.246 . S
O666 Mg661 2.032 . S
O666 C669 1.259 . S
O667 Mg658 2.114 . S
O667 C670 1.252 . S
O668 Mg658 2.251 . S
O668 Mg661 2.079 . S
O668 C670 1.273 . S
C669 O665 1.246 . S
C669 O666 1.259 . S
C670 O667 1.252 . S
C670 O668 1.273 . S
O671 Mg658 2.010 . S
O671 C663 1.249 . S
H672 C680 0.950 . S
H673 C685 0.950 . S
H674 C682 0.950 . S
H675 C684 0.950 . S
H676 C686 0.950 . S
H677 C688 0.950 . S
H678 C690 0.950 . S
H679 C691 0.950 . S
C680 H672 0.950 . S
C680 C681 1.386 . S
C680 C682 1.391 . S
C681 C680 1.386 . S
C681 C685 1.393 . S
C682 H674 0.950 . S
C682 C680 1.391 . S
C682 C683 1.400 . S
C683 C682 1.400 . S
C683 C684 1.398 . S
C683 C689 1.491 . S
C684 H675 0.950 . S
C684 C683 1.398 . S
C684 C685 1.391 . S
C685 H673 0.950 . S
C685 C681 1.393 . S
C685 C684 1.391 . S
C686 H676 0.950 . S
C686 C687 1.386 . S
C686 C688 1.391 . S
C687 C686 1.386 . S
C687 C691 1.393 . S
C688 H677 0.950 . S
C688 C686 1.391 . S
C688 C689 1.400 . S
C689 C683 1.491 . S
C689 C688 1.400 . S
C689 C690 1.398 . S
C690 H678 0.950 . S
C690 C689 1.398 . S
C690 C691 1.391 . S
C691 H679 0.950 . S
C691 C687 1.393 . S
C691 C690 1.391 . S
H692 C700 0.950 . S
H693 C705 0.950 . S
H694 C702 0.950 . S
H695 C704 0.950 . S
H696 C706 0.950 . S
H697 C708 0.950 . S
H698 C710 0.950 . S
H699 C711 0.950 . S
C700 H692 0.950 . S
C700 C701 1.386 . S
C700 C702 1.391 . S
C701 C700 1.386 . S
C701 C705 1.393 . S
C702 H694 0.950 . S
C702 C700 1.391 . S
C702 C703 1.400 . S
C703 C702 1.400 . S
C703 C704 1.398 . S
C703 C709 1.491 . S
C704 H695 0.950 . S
C704 C703 1.398 . S
C704 C705 1.391 . S
C705 H693 0.950 . S
C705 C701 1.393 . S
C705 C704 1.391 . S
C706 H696 0.950 . S
C706 C707 1.386 . S
C706 C708 1.391 . S
C707 C706 1.386 . S
C707 C711 1.393 . S
C708 H697 0.950 . S
C708 C706 1.391 . S
C708 C709 1.400 . S
C709 C703 1.491 . S
C709 C708 1.400 . S
C709 C710 1.398 . S
C710 H698 0.950 . S
C710 C709 1.398 . S
C710 C711 1.391 . S
C711 H699 0.950 . S
C711 C707 1.393 . S
C711 C710 1.391 . S
H712 C720 0.950 . S
H713 C725 0.950 . S
H714 C722 0.950 . S
H715 C724 0.950 . S
H716 C726 0.950 . S
H717 C728 0.950 . S
H718 C730 0.950 . S
H719 C731 0.950 . S
C720 H712 0.950 . S
C720 C721 1.386 . S
C720 C722 1.391 . S
C721 C720 1.386 . S
C721 C725 1.393 . S
C722 H714 0.950 . S
C722 C720 1.391 . S
C722 C723 1.400 . S
C723 C722 1.400 . S
C723 C724 1.398 . S
C723 C729 1.491 . S
C724 H715 0.950 . S
C724 C723 1.398 . S
C724 C725 1.391 . S
C725 H713 0.950 . S
C725 C721 1.393 . S
C725 C724 1.391 . S
C726 H716 0.950 . S
C726 C727 1.386 . S
C726 C728 1.391 . S
C727 C726 1.386 . S
C727 C731 1.393 . S
C728 H717 0.950 . S
C728 C726 1.391 . S
C728 C729 1.400 . S
C729 C723 1.491 . S
C729 C728 1.400 . S
C729 C730 1.398 . S
C730 H718 0.950 . S
C730 C729 1.398 . S
C730 C731 1.391 . S
C731 H719 0.950 . S
C731 C727 1.393 . S
C731 C730 1.391 . S
H732 C740 0.950 . S
H733 C745 0.950 . S
H734 C742 0.950 . S
H735 C744 0.950 . S
H736 C746 0.950 . S
H737 C748 0.950 . S
H738 C750 0.950 . S
H739 C751 0.950 . S
C740 H732 0.950 . S
C740 C741 1.386 . S
C740 C742 1.391 . S
C741 C740 1.386 . S
C741 C745 1.393 . S
C742 H734 0.950 . S
C742 C740 1.391 . S
C742 C743 1.400 . S
C743 C742 1.400 . S
C743 C744 1.398 . S
C743 C749 1.491 . S
C744 H735 0.950 . S
C744 C743 1.398 . S
C744 C745 1.391 . S
C745 H733 0.950 . S
C745 C741 1.393 . S
C745 C744 1.391 . S
C746 H736 0.950 . S
C746 C747 1.386 . S
C746 C748 1.391 . S
C747 C746 1.386 . S
C747 C751 1.393 . S
C748 H737 0.950 . S
C748 C746 1.391 . S
C748 C749 1.400 . S
C749 C743 1.491 . S
C749 C748 1.400 . S
C749 C750 1.398 . S
C750 H738 0.950 . S
C750 C749 1.398 . S
C750 C751 1.391 . S
C751 H739 0.950 . S
C751 C747 1.393 . S
C751 C750 1.391 . S
H752 C760 0.950 . S
H753 C765 0.950 . S
H754 C762 0.950 . S
H755 C764 0.950 . S
H756 C766 0.950 . S
H757 C768 0.950 . S
H758 C770 0.950 . S
H759 C771 0.950 . S
C760 H752 0.950 . S
C760 C761 1.386 . S
C760 C762 1.391 . S
C761 C760 1.386 . S
C761 C765 1.393 . S
C762 H754 0.950 . S
C762 C760 1.391 . S
C762 C763 1.400 . S
C763 C762 1.400 . S
C763 C764 1.398 . S
C763 C769 1.491 . S
C764 H755 0.950 . S
C764 C763 1.398 . S
C764 C765 1.391 . S
C765 H753 0.950 . S
C765 C761 1.393 . S
C765 C764 1.391 . S
C766 H756 0.950 . S
C766 C767 1.386 . S
C766 C768 1.391 . S
C767 C766 1.386 . S
C767 C771 1.393 . S
C768 H757 0.950 . S
C768 C766 1.391 . S
C768 C769 1.400 . S
C769 C763 1.491 . S
C769 C768 1.400 . S
C769 C770 1.398 . S
C770 H758 0.950 . S
C770 C769 1.398 . S
C770 C771 1.391 . S
C771 H759 0.950 . S
C771 C767 1.393 . S
C771 C770 1.391 . S
H772 C780 0.950 . S
H773 C785 0.950 . S
H774 C782 0.950 . S
H775 C784 0.950 . S
H776 C786 0.950 . S
H777 C788 0.950 . S
H778 C790 0.950 . S
H779 C791 0.950 . S
C780 H772 0.950 . S
C780 C781 1.386 . S
C780 C782 1.391 . S
C781 C780 1.386 . S
C781 C785 1.393 . S
C782 H774 0.950 . S
C782 C780 1.391 . S
C782 C783 1.400 . S
C783 C782 1.400 . S
C783 C784 1.398 . S
C783 C789 1.491 . S
C784 H775 0.950 . S
C784 C783 1.398 . S
C784 C785 1.391 . S
C785 H773 0.950 . S
C785 C781 1.393 . S
C785 C784 1.391 . S
C786 H776 0.950 . S
C786 C787 1.386 . S
C786 C788 1.391 . S
C787 C786 1.386 . S
C787 C791 1.393 . S
C788 H777 0.950 . S
C788 C786 1.391 . S
C788 C789 1.400 . S
C789 C783 1.491 . S
C789 C788 1.400 . S
C789 C790 1.398 . S
C790 H778 0.950 . S
C790 C789 1.398 . S
C790 C791 1.391 . S
C791 H779 0.950 . S
C791 C787 1.393 . S
C791 C790 1.391 . S
H792 C800 0.950 . S
H793 C805 0.950 . S
H794 C802 0.950 . S
H795 C804 0.950 . S
H796 C806 0.950 . S
H797 C808 0.950 . S
H798 C810 0.950 . S
H799 C811 0.950 . S
C800 H792 0.950 . S
C800 C801 1.386 . S
C800 C802 1.391 . S
C801 C800 1.386 . S
C801 C805 1.393 . S
C802 H794 0.950 . S
C802 C800 1.391 . S
C802 C803 1.400 . S
C803 C802 1.400 . S
C803 C804 1.398 . S
C803 C809 1.491 . S
C804 H795 0.950 . S
C804 C803 1.398 . S
C804 C805 1.391 . S
C805 H793 0.950 . S
C805 C801 1.393 . S
C805 C804 1.391 . S
C806 H796 0.950 . S
C806 C807 1.386 . S
C806 C808 1.391 . S
C807 C806 1.386 . S
C807 C811 1.393 . S
C808 H797 0.950 . S
C808 C806 1.391 . S
C808 C809 1.400 . S
C809 C803 1.491 . S
C809 C808 1.400 . S
C809 C810 1.398 . S
C810 H798 0.950 . S
C810 C809 1.398 . S
C810 C811 1.391 . S
C811 H799 0.950 . S
C811 C807 1.393 . S
C811 C810 1.391 . S
H812 C820 0.950 . S
H813 C825 0.950 . S
H814 C822 0.950 . S
H815 C824 0.950 . S
H816 C826 0.950 . S
H817 C828 0.950 . S
H818 C830 0.950 . S
H819 C831 0.950 . S
C820 H812 0.950 . S
C820 C821 1.386 . S
C820 C822 1.391 . S
C821 C820 1.386 . S
C821 C825 1.393 . S
C822 H814 0.950 . S
C822 C820 1.391 . S
C822 C823 1.400 . S
C823 C822 1.400 . S
C823 C824 1.398 . S
C823 C829 1.491 . S
C824 H815 0.950 . S
C824 C823 1.398 . S
C824 C825 1.391 . S
C825 H813 0.950 . S
C825 C821 1.393 . S
C825 C824 1.391 . S
C826 H816 0.950 . S
C826 C827 1.386 . S
C826 C828 1.391 . S
C827 C826 1.386 . S
C827 C831 1.393 . S
C828 H817 0.950 . S
C828 C826 1.391 . S
C828 C829 1.400 . S
C829 C823 1.491 . S
C829 C828 1.400 . S
C829 C830 1.398 . S
C830 H818 0.950 . S
C830 C829 1.398 . S
C830 C831 1.391 . S
C831 H819 0.950 . S
C831 C827 1.393 . S
C831 C830 1.391 . S
H832 C840 0.950 . S
H833 C845 0.950 . S
H834 C842 0.950 . S
H835 C844 0.950 . S
H836 C846 0.950 . S
H837 C848 0.950 . S
H838 C850 0.950 . S
H839 C851 0.950 . S
C840 H832 0.950 . S
C840 C841 1.386 . S
C840 C842 1.391 . S
C841 C840 1.386 . S
C841 C845 1.393 . S
C842 H834 0.950 . S
C842 C840 1.391 . S
C842 C843 1.400 . S
C843 C842 1.400 . S
C843 C844 1.398 . S
C843 C849 1.491 . S
C844 H835 0.950 . S
C844 C843 1.398 . S
C844 C845 1.391 . S
C845 H833 0.950 . S
C845 C841 1.393 . S
C845 C844 1.391 . S
C846 H836 0.950 . S
C846 C847 1.386 . S
C846 C848 1.391 . S
C847 C846 1.386 . S
C847 C851 1.393 . S
C848 H837 0.950 . S
C848 C846 1.391 . S
C848 C849 1.400 . S
C849 C843 1.491 . S
C849 C848 1.400 . S
C849 C850 1.398 . S
C850 H838 0.950 . S
C850 C849 1.398 . S
C850 C851 1.391 . S
C851 H839 0.950 . S
C851 C847 1.393 . S
C851 C850 1.391 . S
H852 C860 0.950 . S
H853 C865 0.950 . S
H854 C862 0.950 . S
H855 C864 0.950 . S
H856 C866 0.950 . S
H857 C868 0.950 . S
H858 C870 0.950 . S
H859 C871 0.950 . S
C860 H852 0.950 . S
C860 C861 1.386 . S
C860 C862 1.391 . S
C861 C860 1.386 . S
C861 C865 1.393 . S
C862 H854 0.950 . S
C862 C860 1.391 . S
C862 C863 1.400 . S
C863 C862 1.400 . S
C863 C864 1.398 . S
C863 C869 1.491 . S
C864 H855 0.950 . S
C864 C863 1.398 . S
C864 C865 1.391 . S
C865 H853 0.950 . S
C865 C861 1.393 . S
C865 C864 1.391 . S
C866 H856 0.950 . S
C866 C867 1.386 . S
C866 C868 1.391 . S
C867 C866 1.386 . S
C867 C871 1.393 . S
C868 H857 0.950 . S
C868 C866 1.391 . S
C868 C869 1.400 . S
C869 C863 1.491 . S
C869 C868 1.400 . S
C869 C870 1.398 . S
C870 H858 0.950 . S
C870 C869 1.398 . S
C870 C871 1.391 . S
C871 H859 0.950 . S
C871 C867 1.393 . S
C871 C870 1.391 . S
H872 C880 0.950 . S
H873 C885 0.950 . S
H874 C882 0.950 . S
H875 C884 0.950 . S
H876 C886 0.950 . S
H877 C888 0.950 . S
H878 C890 0.950 . S
H879 C891 0.950 . S
C880 H872 0.950 . S
C880 C881 1.386 . S
C880 C882 1.391 . S
C881 C880 1.386 . S
C881 C885 1.393 . S
C882 H874 0.950 . S
C882 C880 1.391 . S
C882 C883 1.400 . S
C883 C882 1.400 . S
C883 C884 1.398 . S
C883 C889 1.491 . S
C884 H875 0.950 . S
C884 C883 1.398 . S
C884 C885 1.391 . S
C885 H873 0.950 . S
C885 C881 1.393 . S
C885 C884 1.391 . S
C886 H876 0.950 . S
C886 C887 1.386 . S
C886 C888 1.391 . S
C887 C886 1.386 . S
C887 C891 1.393 . S
C888 H877 0.950 . S
C888 C886 1.391 . S
C888 C889 1.400 . S
C889 C883 1.491 . S
C889 C888 1.400 . S
C889 C890 1.398 . S
C890 H878 0.950 . S
C890 C889 1.398 . S
C890 C891 1.391 . S
C891 H879 0.950 . S
C891 C887 1.393 . S
C891 C890 1.391 . S
H892 C900 0.950 . S
H893 C905 0.950 . S
H894 C902 0.950 . S
H895 C904 0.950 . S
H896 C906 0.950 . S
H897 C908 0.950 . S
H898 C910 0.950 . S
H899 C911 0.950 . S
C900 H892 0.950 . S
C900 C901 1.386 . S
C900 C902 1.391 . S
C901 C900 1.386 . S
C901 C905 1.393 . S
C902 H894 0.950 . S
C902 C900 1.391 . S
C902 C903 1.400 . S
C903 C902 1.400 . S
C903 C904 1.398 . S
C903 C909 1.491 . S
C904 H895 0.950 . S
C904 C903 1.398 . S
C904 C905 1.391 . S
C905 H893 0.950 . S
C905 C901 1.393 . S
C905 C904 1.391 . S
C906 H896 0.950 . S
C906 C907 1.386 . S
C906 C908 1.391 . S
C907 C906 1.386 . S
C907 C911 1.393 . S
C908 H897 0.950 . S
C908 C906 1.391 . S
C908 C909 1.400 . S
C909 C903 1.491 . S
C909 C908 1.400 . S
C909 C910 1.398 . S
C910 H898 0.950 . S
C910 C909 1.398 . S
C910 C911 1.391 . S
C911 H899 0.950 . S
C911 C907 1.393 . S
C911 C910 1.391 . S
H912 C920 0.950 . S
H913 C925 0.950 . S
H914 C922 0.950 . S
H915 C924 0.950 . S
H916 C926 0.950 . S
H917 C928 0.950 . S
H918 C930 0.950 . S
H919 C931 0.950 . S
C920 H912 0.950 . S
C920 C921 1.386 . S
C920 C922 1.391 . S
C921 C920 1.386 . S
C921 C925 1.393 . S
C922 H914 0.950 . S
C922 C920 1.391 . S
C922 C923 1.400 . S
C923 C922 1.400 . S
C923 C924 1.398 . S
C923 C929 1.491 . S
C924 H915 0.950 . S
C924 C923 1.398 . S
C924 C925 1.391 . S
C925 H913 0.950 . S
C925 C921 1.393 . S
C925 C924 1.391 . S
C926 H916 0.950 . S
C926 C927 1.386 . S
C926 C928 1.391 . S
C927 C926 1.386 . S
C927 C931 1.393 . S
C928 H917 0.950 . S
C928 C926 1.391 . S
C928 C929 1.400 . S
C929 C923 1.491 . S
C929 C928 1.400 . S
C929 C930 1.398 . S
C930 H918 0.950 . S
C930 C929 1.398 . S
C930 C931 1.391 . S
C931 H919 0.950 . S
C931 C927 1.393 . S
C931 C930 1.391 . S
H932 C940 0.950 . S
H933 C945 0.950 . S
H934 C942 0.950 . S
H935 C944 0.950 . S
H936 C946 0.950 . S
H937 C948 0.950 . S
H938 C950 0.950 . S
H939 C951 0.950 . S
C940 H932 0.950 . S
C940 C941 1.386 . S
C940 C942 1.391 . S
C941 C940 1.386 . S
C941 C945 1.393 . S
C942 H934 0.950 . S
C942 C940 1.391 . S
C942 C943 1.400 . S
C943 C942 1.400 . S
C943 C944 1.398 . S
C943 C949 1.491 . S
C944 H935 0.950 . S
C944 C943 1.398 . S
C944 C945 1.391 . S
C945 H933 0.950 . S
C945 C941 1.393 . S
C945 C944 1.391 . S
C946 H936 0.950 . S
C946 C947 1.386 . S
C946 C948 1.391 . S
C947 C946 1.386 . S
C947 C951 1.393 . S
C948 H937 0.950 . S
C948 C946 1.391 . S
C948 C949 1.400 . S
C949 C943 1.491 . S
C949 C948 1.400 . S
C949 C950 1.398 . S
C950 H938 0.950 . S
C950 C949 1.398 . S
C950 C951 1.391 . S
C951 H939 0.950 . S
C951 C947 1.393 . S
C951 C950 1.391 . S
H952 C960 0.950 . S
H953 C965 0.950 . S
H954 C962 0.950 . S
H955 C964 0.950 . S
H956 C966 0.950 . S
H957 C968 0.950 . S
H958 C970 0.950 . S
H959 C971 0.950 . S
C960 H952 0.950 . S
C960 C961 1.386 . S
C960 C962 1.391 . S
C961 C960 1.386 . S
C961 C965 1.393 . S
C962 H954 0.950 . S
C962 C960 1.391 . S
C962 C963 1.400 . S
C963 C962 1.400 . S
C963 C964 1.398 . S
C963 C969 1.491 . S
C964 H955 0.950 . S
C964 C963 1.398 . S
C964 C965 1.391 . S
C965 H953 0.950 . S
C965 C961 1.393 . S
C965 C964 1.391 . S
C966 H956 0.950 . S
C966 C967 1.386 . S
C966 C968 1.391 . S
C967 C966 1.386 . S
C967 C971 1.393 . S
C968 H957 0.950 . S
C968 C966 1.391 . S
C968 C969 1.400 . S
C969 C963 1.491 . S
C969 C968 1.400 . S
C969 C970 1.398 . S
C970 H958 0.950 . S
C970 C969 1.398 . S
C970 C971 1.391 . S
C971 H959 0.950 . S
C971 C967 1.393 . S
C971 C970 1.391 . S
H972 C980 0.950 . S
H973 C985 0.950 . S
H974 C982 0.950 . S
H975 C984 0.950 . S
H976 C986 0.950 . S
H977 C988 0.950 . S
H978 C990 0.950 . S
H979 C991 0.950 . S
C980 H972 0.950 . S
C980 C981 1.386 . S
C980 C982 1.391 . S
C981 C980 1.386 . S
C981 C985 1.393 . S
C982 H974 0.950 . S
C982 C980 1.391 . S
C982 C983 1.400 . S
C983 C982 1.400 . S
C983 C984 1.398 . S
C983 C989 1.491 . S
C984 H975 0.950 . S
C984 C983 1.398 . S
C984 C985 1.391 . S
C985 H973 0.950 . S
C985 C981 1.393 . S
C985 C984 1.391 . S
C986 H976 0.950 . S
C986 C987 1.386 . S
C986 C988 1.391 . S
C987 C986 1.386 . S
C987 C991 1.393 . S
C988 H977 0.950 . S
C988 C986 1.391 . S
C988 C989 1.400 . S
C989 C983 1.491 . S
C989 C988 1.400 . S
C989 C990 1.398 . S
C990 H978 0.950 . S
C990 C989 1.398 . S
C990 C991 1.391 . S
C991 H979 0.950 . S
C991 C987 1.393 . S
C991 C990 1.391 . S
H992 C1000 0.950 . S
H993 C1005 0.950 . S
H994 C1002 0.950 . S
H995 C1004 0.950 . S
H996 C1006 0.950 . S
H997 C1008 0.950 . S
H998 C1010 0.950 . S
H999 C1011 0.950 . S
C1000 H992 0.950 . S
C1000 C1001 1.386 . S
C1000 C1002 1.391 . S
C1001 C1000 1.386 . S
C1001 C1005 1.393 . S
C1002 H994 0.950 . S
C1002 C1000 1.391 . S
C1002 C1003 1.400 . S
C1003 C1002 1.400 . S
C1003 C1004 1.398 . S
C1003 C1009 1.491 . S
C1004 H995 0.950 . S
C1004 C1003 1.398 . S
C1004 C1005 1.391 . S
C1005 H993 0.950 . S
C1005 C1001 1.393 . S
C1005 C1004 1.391 . S
C1006 H996 0.950 . S
C1006 C1007 1.386 . S
C1006 C1008 1.391 . S
C1007 C1006 1.386 . S
C1007 C1011 1.393 . S
C1008 H997 0.950 . S
C1008 C1006 1.391 . S
C1008 C1009 1.400 . S
C1009 C1003 1.491 . S
C1009 C1008 1.400 . S
C1009 C1010 1.398 . S
C1010 H998 0.950 . S
C1010 C1009 1.398 . S
C1010 C1011 1.391 . S
C1011 H999 0.950 . S
C1011 C1007 1.393 . S
C1011 C1010 1.391 . S
H1012 C1020 0.950 . S
H1013 C1025 0.950 . S
H1014 C1022 0.950 . S
H1015 C1024 0.950 . S
H1016 C1026 0.950 . S
H1017 C1028 0.950 . S
H1018 C1030 0.950 . S
H1019 C1031 0.950 . S
C1020 H1012 0.950 . S
C1020 C1021 1.386 . S
C1020 C1022 1.391 . S
C1021 C1020 1.386 . S
C1021 C1025 1.393 . S
C1022 H1014 0.950 . S
C1022 C1020 1.391 . S
C1022 C1023 1.400 . S
C1023 C1022 1.400 . S
C1023 C1024 1.398 . S
C1023 C1029 1.491 . S
C1024 H1015 0.950 . S
C1024 C1023 1.398 . S
C1024 C1025 1.391 . S
C1025 H1013 0.950 . S
C1025 C1021 1.393 . S
C1025 C1024 1.391 . S
C1026 H1016 0.950 . S
C1026 C1027 1.386 . S
C1026 C1028 1.391 . S
C1027 C1026 1.386 . S
C1027 C1031 1.393 . S
C1028 H1017 0.950 . S
C1028 C1026 1.391 . S
C1028 C1029 1.400 . S
C1029 C1023 1.491 . S
C1029 C1028 1.400 . S
C1029 C1030 1.398 . S
C1030 H1018 0.950 . S
C1030 C1029 1.398 . S
C1030 C1031 1.391 . S
C1031 H1019 0.950 . S
C1031 C1027 1.393 . S
C1031 C1030 1.391 . S
H1032 C1040 0.950 . S
H1033 C1045 0.950 . S
H1034 C1042 0.950 . S
H1035 C1044 0.950 . S
H1036 C1046 0.950 . S
H1037 C1048 0.950 . S
H1038 C1050 0.950 . S
H1039 C1051 0.950 . S
C1040 H1032 0.950 . S
C1040 C1041 1.386 . S
C1040 C1042 1.391 . S
C1041 C1040 1.386 . S
C1041 C1045 1.393 . S
C1042 H1034 0.950 . S
C1042 C1040 1.391 . S
C1042 C1043 1.400 . S
C1043 C1042 1.400 . S
C1043 C1044 1.398 . S
C1043 C1049 1.491 . S
C1044 H1035 0.950 . S
C1044 C1043 1.398 . S
C1044 C1045 1.391 . S
C1045 H1033 0.950 . S
C1045 C1041 1.393 . S
C1045 C1044 1.391 . S
C1046 H1036 0.950 . S
C1046 C1047 1.386 . S
C1046 C1048 1.391 . S
C1047 C1046 1.386 . S
C1047 C1051 1.393 . S
C1048 H1037 0.950 . S
C1048 C1046 1.391 . S
C1048 C1049 1.400 . S
C1049 C1043 1.491 . S
C1049 C1048 1.400 . S
C1049 C1050 1.398 . S
C1050 H1038 0.950 . S
C1050 C1049 1.398 . S
C1050 C1051 1.391 . S
C1051 H1039 0.950 . S
C1051 C1047 1.393 . S
C1051 C1050 1.391 . S
H1052 C1060 0.950 . S
H1053 C1065 0.950 . S
H1054 C1062 0.950 . S
H1055 C1064 0.950 . S
H1056 C1066 0.950 . S
H1057 C1068 0.950 . S
H1058 C1070 0.950 . S
H1059 C1071 0.950 . S
C1060 H1052 0.950 . S
C1060 C1061 1.386 . S
C1060 C1062 1.391 . S
C1061 C1060 1.386 . S
C1061 C1065 1.393 . S
C1062 H1054 0.950 . S
C1062 C1060 1.391 . S
C1062 C1063 1.400 . S
C1063 C1062 1.400 . S
C1063 C1064 1.398 . S
C1063 C1069 1.491 . S
C1064 H1055 0.950 . S
C1064 C1063 1.398 . S
C1064 C1065 1.391 . S
C1065 H1053 0.950 . S
C1065 C1061 1.393 . S
C1065 C1064 1.391 . S
C1066 H1056 0.950 . S
C1066 C1067 1.386 . S
C1066 C1068 1.391 . S
C1067 C1066 1.386 . S
C1067 C1071 1.393 . S
C1068 H1057 0.950 . S
C1068 C1066 1.391 . S
C1068 C1069 1.400 . S
C1069 C1063 1.491 . S
C1069 C1068 1.400 . S
C1069 C1070 1.398 . S
C1070 H1058 0.950 . S
C1070 C1069 1.398 . S
C1070 C1071 1.391 . S
C1071 H1059 0.950 . S
C1071 C1067 1.393 . S
C1071 C1070 1.391 . S
H1072 C1080 0.950 . S
H1073 C1085 0.950 . S
H1074 C1082 0.950 . S
H1075 C1084 0.950 . S
H1076 C1086 0.950 . S
H1077 C1088 0.950 . S
H1078 C1090 0.950 . S
H1079 C1091 0.950 . S
C1080 H1072 0.950 . S
C1080 C1081 1.386 . S
C1080 C1082 1.391 . S
C1081 C1080 1.386 . S
C1081 C1085 1.393 . S
C1082 H1074 0.950 . S
C1082 C1080 1.391 . S
C1082 C1083 1.400 . S
C1083 C1082 1.400 . S
C1083 C1084 1.398 . S
C1083 C1089 1.491 . S
C1084 H1075 0.950 . S
C1084 C1083 1.398 . S
C1084 C1085 1.391 . S
C1085 H1073 0.950 . S
C1085 C1081 1.393 . S
C1085 C1084 1.391 . S
C1086 H1076 0.950 . S
C1086 C1087 1.386 . S
C1086 C1088 1.391 . S
C1087 C1086 1.386 . S
C1087 C1091 1.393 . S
C1088 H1077 0.950 . S
C1088 C1086 1.391 . S
C1088 C1089 1.400 . S
C1089 C1083 1.491 . S
C1089 C1088 1.400 . S
C1089 C1090 1.398 . S
C1090 H1078 0.950 . S
C1090 C1089 1.398 . S
C1090 C1091 1.391 . S
C1091 H1079 0.950 . S
C1091 C1087 1.393 . S
C1091 C1090 1.391 . S
H1092 C1100 0.950 . S
H1093 C1105 0.950 . S
H1094 C1102 0.950 . S
H1095 C1104 0.950 . S
H1096 C1106 0.950 . S
H1097 C1108 0.950 . S
H1098 C1110 0.950 . S
H1099 C1111 0.950 . S
C1100 H1092 0.950 . S
C1100 C1101 1.386 . S
C1100 C1102 1.391 . S
C1101 C1100 1.386 . S
C1101 C1105 1.393 . S
C1102 H1094 0.950 . S
C1102 C1100 1.391 . S
C1102 C1103 1.400 . S
C1103 C1102 1.400 . S
C1103 C1104 1.398 . S
C1103 C1109 1.491 . S
C1104 H1095 0.950 . S
C1104 C1103 1.398 . S
C1104 C1105 1.391 . S
C1105 H1093 0.950 . S
C1105 C1101 1.393 . S
C1105 C1104 1.391 . S
C1106 H1096 0.950 . S
C1106 C1107 1.386 . S
C1106 C1108 1.391 . S
C1107 C1106 1.386 . S
C1107 C1111 1.393 . S
C1108 H1097 0.950 . S
C1108 C1106 1.391 . S
C1108 C1109 1.400 . S
C1109 C1103 1.491 . S
C1109 C1108 1.400 . S
C1109 C1110 1.398 . S
C1110 H1098 0.950 . S
C1110 C1109 1.398 . S
C1110 C1111 1.391 . S
C1111 H1099 0.950 . S
C1111 C1107 1.393 . S
C1111 C1110 1.391 . S
H1112 C1120 0.950 . S
H1113 C1125 0.950 . S
H1114 C1122 0.950 . S
H1115 C1124 0.950 . S
H1116 C1126 0.950 . S
H1117 C1128 0.950 . S
H1118 C1130 0.950 . S
H1119 C1131 0.950 . S
C1120 H1112 0.950 . S
C1120 C1121 1.386 . S
C1120 C1122 1.391 . S
C1121 C1120 1.386 . S
C1121 C1125 1.393 . S
C1122 H1114 0.950 . S
C1122 C1120 1.391 . S
C1122 C1123 1.400 . S
C1123 C1122 1.400 . S
C1123 C1124 1.398 . S
C1123 C1129 1.491 . S
C1124 H1115 0.950 . S
C1124 C1123 1.398 . S
C1124 C1125 1.391 . S
C1125 H1113 0.950 . S
C1125 C1121 1.393 . S
C1125 C1124 1.391 . S
C1126 H1116 0.950 . S
C1126 C1127 1.386 . S
C1126 C1128 1.391 . S
C1127 C1126 1.386 . S
C1127 C1131 1.393 . S
C1128 H1117 0.950 . S
C1128 C1126 1.391 . S
C1128 C1129 1.400 . S
C1129 C1123 1.491 . S
C1129 C1128 1.400 . S
C1129 C1130 1.398 . S
C1130 H1118 0.950 . S
C1130 C1129 1.398 . S
C1130 C1131 1.391 . S
C1131 H1119 0.950 . S
C1131 C1127 1.393 . S
C1131 C1130 1.391 . S
H1132 C1140 0.950 . S
H1133 C1145 0.950 . S
H1134 C1142 0.950 . S
H1135 C1144 0.950 . S
H1136 C1146 0.950 . S
H1137 C1148 0.950 . S
H1138 C1150 0.950 . S
H1139 C1151 0.950 . S
C1140 H1132 0.950 . S
C1140 C1141 1.386 . S
C1140 C1142 1.391 . S
C1141 C1140 1.386 . S
C1141 C1145 1.393 . S
C1142 H1134 0.950 . S
C1142 C1140 1.391 . S
C1142 C1143 1.400 . S
C1143 C1142 1.400 . S
C1143 C1144 1.398 . S
C1143 C1149 1.491 . S
C1144 H1135 0.950 . S
C1144 C1143 1.398 . S
C1144 C1145 1.391 . S
C1145 H1133 0.950 . S
C1145 C1141 1.393 . S
C1145 C1144 1.391 . S
C1146 H1136 0.950 . S
C1146 C1147 1.386 . S
C1146 C1148 1.391 . S
C1147 C1146 1.386 . S
C1147 C1151 1.393 . S
C1148 H1137 0.950 . S
C1148 C1146 1.391 . S
C1148 C1149 1.400 . S
C1149 C1143 1.491 . S
C1149 C1148 1.400 . S
C1149 C1150 1.398 . S
C1150 H1138 0.950 . S
C1150 C1149 1.398 . S
C1150 C1151 1.391 . S
C1151 H1139 0.950 . S
C1151 C1147 1.393 . S
C1151 C1150 1.391 . S
H1152 C1160 0.950 . S
H1153 C1165 0.950 1_455 S
H1154 C1162 0.950 . S
H1155 C1164 0.950 . S
H1156 C1166 0.950 . S
H1157 C1168 0.950 . S
H1158 C1170 0.950 . S
H1159 C1171 0.950 1_655 S
C1160 H1152 0.950 . S
C1160 C1161 1.386 . S
C1160 C1162 1.391 . S
C1161 C1160 1.386 . S
C1161 C1165 1.393 . S
C1162 H1154 0.950 . S
C1162 C1160 1.391 . S
C1162 C1163 1.400 . S
C1163 C1162 1.400 . S
C1163 C1164 1.398 1_655 S
C1163 C1169 1.491 1_655 S
C1164 H1155 0.950 . S
C1164 C1163 1.398 1_455 S
C1164 C1165 1.391 1_455 S
C1165 H1153 0.950 1_655 S
C1165 C1161 1.393 . S
C1165 C1164 1.391 1_655 S
C1166 H1156 0.950 . S
C1166 C1167 1.386 . S
C1166 C1168 1.391 . S
C1167 C1166 1.386 . S
C1167 C1171 1.393 . S
C1168 H1157 0.950 . S
C1168 C1166 1.391 . S
C1168 C1169 1.400 . S
C1169 C1163 1.491 1_455 S
C1169 C1168 1.400 . S
C1169 C1170 1.398 1_455 S
C1170 H1158 0.950 . S
C1170 C1169 1.398 1_655 S
C1170 C1171 1.391 1_655 S
C1171 H1159 0.950 1_455 S
C1171 C1167 1.393 . S
C1171 C1170 1.391 1_455 S
H1172 C1180 0.950 . S
H1173 C1185 0.936 1_545 S
H1174 C1182 0.950 . S
H1175 C1184 0.950 . S
H1176 C1186 0.950 . S
H1177 C1188 0.950 . S
H1178 C1190 0.950 . S
H1179 C1191 0.950 . S
C1180 H1172 0.950 . S
C1180 C1181 1.386 . S
C1180 C1182 1.391 . S
C1181 C1180 1.386 . S
C1181 C1185 1.414 . S
C1182 H1174 0.950 . S
C1182 C1180 1.391 . S
C1182 C1183 1.400 . S
C1183 C1182 1.400 . S
C1183 C1184 1.398 1_565 S
C1183 C1189 1.491 1_565 S
C1184 H1175 0.950 . S
C1184 C1183 1.398 1_545 S
C1184 C1185 1.383 1_545 S
C1185 H1173 0.936 1_565 S
C1185 C1181 1.414 . S
C1185 C1184 1.383 1_565 S
C1186 H1176 0.950 . S
C1186 C1187 1.386 . S
C1186 C1188 1.391 . S
C1187 C1186 1.386 . S
C1187 C1191 1.393 1_545 S
C1188 H1177 0.950 . S
C1188 C1186 1.391 . S
C1188 C1189 1.400 . S
C1189 C1183 1.491 1_545 S
C1189 C1188 1.400 . S
C1189 C1190 1.398 1_545 S
C1190 H1178 0.950 . S
C1190 C1189 1.398 1_565 S
C1190 C1191 1.391 . S
C1191 H1179 0.950 . S
C1191 C1187 1.393 1_565 S
C1191 C1190 1.391 . S
H1192 C1200 0.950 1_455 S
H1193 C1205 0.950 . S
H1194 C1202 0.950 . S
H1195 C1204 0.950 . S
H1196 C1206 0.950 1_655 S
H1197 C1208 0.950 . S
H1198 C1210 0.950 . S
H1199 C1211 0.950 . S
C1200 H1192 0.950 1_655 S
C1200 C1201 1.386 . S
C1200 C1202 1.391 1_655 S
C1201 C1200 1.386 . S
C1201 C1205 1.393 . S
C1202 H1194 0.950 . S
C1202 C1200 1.391 1_455 S
C1202 C1203 1.400 1_455 S
C1203 C1202 1.400 1_655 S
C1203 C1204 1.398 . S
C1203 C1209 1.491 1_655 S
C1204 H1195 0.950 . S
C1204 C1203 1.398 . S
C1204 C1205 1.391 . S
C1205 H1193 0.950 . S
C1205 C1201 1.393 . S
C1205 C1204 1.391 . S
C1206 H1196 0.950 1_455 S
C1206 C1207 1.386 . S
C1206 C1208 1.391 1_455 S
C1207 C1206 1.386 . S
C1207 C1211 1.393 . S
C1208 H1197 0.950 . S
C1208 C1206 1.391 1_655 S
C1208 C1209 1.400 1_655 S
C1209 C1203 1.491 1_455 S
C1209 C1208 1.400 1_455 S
C1209 C1210 1.398 . S
C1210 H1198 0.950 . S
C1210 C1209 1.398 . S
C1210 C1211 1.391 . S
C1211 H1199 0.950 . S
C1211 C1207 1.393 . S
C1211 C1210 1.391 . S
H1212 C1220 0.950 . S
H1213 C1225 0.950 1_565 S
H1214 C1222 0.950 . S
H1215 C1224 0.950 . S
H1216 C1226 0.950 . S
H1217 C1228 0.950 . S
H1218 C1230 0.950 . S
H1219 C1231 0.962 . S
C1220 H1212 0.950 . S
C1220 C1221 1.386 . S
C1220 C1222 1.391 . S
C1221 C1220 1.386 . S
C1221 C1225 1.393 . S
C1222 H1214 0.950 . S
C1222 C1220 1.391 . S
C1222 C1223 1.400 . S
C1223 C1222 1.400 . S
C1223 C1224 1.398 1_545 S
C1223 C1229 1.491 1_545 S
C1224 H1215 0.950 . S
C1224 C1223 1.398 1_565 S
C1224 C1225 1.391 1_565 S
C1225 H1213 0.950 1_545 S
C1225 C1221 1.393 . S
C1225 C1224 1.391 1_545 S
C1226 H1216 0.950 . S
C1226 C1227 1.386 . S
C1226 C1228 1.391 . S
C1227 C1226 1.386 . S
C1227 C1231 1.374 1_565 S
C1228 H1217 0.950 . S
C1228 C1226 1.391 . S
C1228 C1229 1.400 . S
C1229 C1223 1.491 1_565 S
C1229 C1228 1.400 . S
C1229 C1230 1.398 1_565 S
C1230 H1218 0.950 . S
C1230 C1229 1.398 1_545 S
C1230 C1231 1.398 . S
C1231 H1219 0.962 . S
C1231 C1227 1.374 1_545 S
C1231 C1230 1.398 . S
H1232 C1240 0.950 . S
H1233 C1245 0.950 . S
H1234 C1242 0.950 . S
H1235 C1244 0.950 . S
H1236 C1246 0.950 . S
H1237 C1248 0.950 . S
H1238 C1250 0.950 . S
H1239 C1251 0.950 . S
C1240 H1232 0.950 . S
C1240 C1241 1.386 . S
C1240 C1242 1.391 . S
C1241 C1240 1.386 . S
C1241 C1245 1.393 . S
C1242 H1234 0.950 . S
C1242 C1240 1.391 . S
C1242 C1243 1.400 . S
C1243 C1242 1.400 . S
C1243 C1244 1.398 . S
C1243 C1249 1.491 1_455 S
C1244 H1235 0.950 . S
C1244 C1243 1.398 . S
C1244 C1245 1.391 . S
C1245 H1233 0.950 . S
C1245 C1241 1.393 . S
C1245 C1244 1.391 . S
C1246 H1236 0.950 . S
C1246 C1247 1.386 . S
C1246 C1248 1.391 . S
C1247 C1246 1.386 . S
C1247 C1251 1.393 . S
C1248 H1237 0.950 . S
C1248 C1246 1.391 . S
C1248 C1249 1.400 . S
C1249 C1243 1.491 1_655 S
C1249 C1248 1.400 . S
C1249 C1250 1.398 . S
C1250 H1238 0.950 . S
C1250 C1249 1.398 . S
C1250 C1251 1.391 . S
C1251 H1239 0.950 . S
C1251 C1247 1.393 . S
C1251 C1250 1.391 . S
H1252 C1260 0.950 . S
H1253 C1265 0.950 . S
H1254 C1262 0.950 . S
H1255 C1264 0.933 1_545 S
H1256 C1266 0.950 . S
H1257 C1268 0.950 . S
H1258 C1270 0.950 . S
H1259 C1271 0.950 . S
C1260 H1252 0.950 . S
C1260 C1261 1.386 . S
C1260 C1262 1.391 . S
C1261 C1260 1.386 . S
C1261 C1265 1.393 . S
C1262 H1254 0.950 . S
C1262 C1260 1.391 . S
C1262 C1263 1.400 . S
C1263 C1262 1.400 . S
C1263 C1264 1.405 . S
C1263 C1269 1.491 1_565 S
C1264 H1255 0.933 1_565 S
C1264 C1263 1.405 . S
C1264 C1265 1.402 . S
C1265 H1253 0.950 . S
C1265 C1261 1.393 . S
C1265 C1264 1.402 . S
C1266 H1256 0.950 . S
C1266 C1267 1.386 . S
C1266 C1268 1.391 . S
C1267 C1266 1.386 . S
C1267 C1271 1.393 . S
C1268 H1257 0.950 . S
C1268 C1266 1.391 . S
C1268 C1269 1.400 . S
C1269 C1263 1.491 1_545 S
C1269 C1268 1.400 . S
C1269 C1270 1.398 1_545 S
C1270 H1258 0.950 . S
C1270 C1269 1.398 1_565 S
C1270 C1271 1.391 1_565 S
C1271 H1259 0.950 . S
C1271 C1267 1.393 . S
C1271 C1270 1.391 1_545 S
H1272 C1280 0.950 . S
H1273 C1285 0.950 . S
H1274 C1282 0.950 . S
H1275 C1284 0.937 1_655 S
H1276 C1286 0.950 . S
H1277 C1288 0.950 . S
H1278 C1290 0.937 1_455 S
H1279 C1291 0.950 . S
C1280 H1272 0.950 . S
C1280 C1281 1.386 . S
C1280 C1282 1.391 . S
C1281 C1280 1.386 . S
C1281 C1285 1.393 . S
C1282 H1274 0.950 . S
C1282 C1280 1.391 . S
C1282 C1283 1.400 . S
C1283 C1282 1.400 . S
C1283 C1284 1.403 . S
C1283 C1289 1.491 1_455 S
C1284 H1275 0.937 1_455 S
C1284 C1283 1.403 . S
C1284 C1285 1.399 . S
C1285 H1273 0.950 . S
C1285 C1281 1.393 . S
C1285 C1284 1.399 . S
C1286 H1276 0.950 . S
C1286 C1287 1.386 . S
C1286 C1288 1.391 . S
C1287 C1286 1.386 . S
C1287 C1291 1.393 . S
C1288 H1277 0.950 . S
C1288 C1286 1.391 . S
C1288 C1289 1.400 . S
C1289 C1283 1.491 1_655 S
C1289 C1288 1.400 . S
C1289 C1290 1.403 . S
C1290 H1278 0.937 1_655 S
C1290 C1289 1.403 . S
C1290 C1291 1.399 . S
C1291 H1279 0.950 . S
C1291 C1287 1.393 . S
C1291 C1290 1.399 . S
H1292 C1300 0.950 . S
H1293 C1305 0.950 1_565 S
H1294 C1302 0.950 . S
H1295 C1304 0.950 . S
H1296 C1306 0.950 . S
H1297 C1308 0.950 . S
H1298 C1310 0.950 . S
H1299 C1311 0.950 . S
C1300 H1292 0.950 . S
C1300 C1301 1.386 . S
C1300 C1302 1.391 . S
C1301 C1300 1.386 . S
C1301 C1305 1.393 . S
C1302 H1294 0.950 . S
C1302 C1300 1.391 . S
C1302 C1303 1.400 . S
C1303 C1302 1.400 . S
C1303 C1304 1.398 1_545 S
C1303 C1309 1.491 1_545 S
C1304 H1295 0.950 . S
C1304 C1303 1.398 1_565 S
C1304 C1305 1.391 1_565 S
C1305 H1293 0.950 1_545 S
C1305 C1301 1.393 . S
C1305 C1304 1.391 1_545 S
C1306 H1296 0.950 . S
C1306 C1307 1.386 . S
C1306 C1308 1.391 . S
C1307 C1306 1.386 . S
C1307 C1311 1.393 1_565 S
C1308 H1297 0.950 . S
C1308 C1306 1.391 . S
C1308 C1309 1.400 . S
C1309 C1303 1.491 1_565 S
C1309 C1308 1.400 . S
C1309 C1310 1.398 1_565 S
C1310 H1298 0.950 . S
C1310 C1309 1.398 1_545 S
C1310 C1311 1.391 . S
C1311 H1299 0.950 . S
C1311 C1307 1.393 1_545 S
C1311 C1310 1.391 . S
H1312 C1320 0.943 1_554 S
H1313 C1325 0.950 . S
H1314 C1322 0.950 . S
H1315 C1324 0.950 . S
H1316 C1326 0.950 1_556 S
H1317 C1328 0.950 . S
H1318 C1330 0.950 . S
H1319 C1331 0.950 . S
C1320 H1312 0.943 1_556 S
C1320 C1321 1.386 . S
C1320 C1322 1.391 1_556 S
C1321 C1320 1.386 . S
C1321 C1325 1.393 . S
C1322 H1314 0.950 . S
C1322 C1320 1.391 1_554 S
C1322 C1323 1.400 1_554 S
C1323 C1322 1.400 1_556 S
C1323 C1324 1.398 . S
C1323 C1329 1.491 1_556 S
C1324 H1315 0.950 . S
C1324 C1323 1.398 . S
C1324 C1325 1.391 . S
C1325 H1313 0.950 . S
C1325 C1321 1.393 . S
C1325 C1324 1.391 . S
C1326 H1316 0.950 1_554 S
C1326 C1327 1.386 . S
C1326 C1328 1.391 1_554 S
C1327 C1326 1.386 . S
C1327 C1331 1.393 . S
C1328 H1317 0.950 . S
C1328 C1326 1.391 1_556 S
C1328 C1329 1.400 1_556 S
C1329 C1323 1.491 1_554 S
C1329 C1328 1.400 1_554 S
C1329 C1330 1.398 . S
C1330 H1318 0.950 . S
C1330 C1329 1.398 . S
C1330 C1331 1.391 . S
C1331 H1319 0.950 . S
C1331 C1327 1.393 . S
C1331 C1330 1.391 . S
H1332 C1340 0.950 . S
H1333 C1345 0.950 . S
H1334 C1342 0.950 1_556 S
H1335 C1344 0.950 . S
H1336 C1346 0.950 . S
H1337 C1348 0.950 . S
H1338 C1350 0.950 . S
H1339 C1351 0.950 . S
C1340 H1332 0.950 . S
C1340 C1341 1.386 . S
C1340 C1342 1.391 . S
C1341 C1340 1.386 . S
C1341 C1345 1.393 . S
C1342 H1334 0.950 1_554 S
C1342 C1340 1.391 . S
C1342 C1343 1.400 . S
C1343 C1342 1.400 . S
C1343 C1344 1.398 . S
C1343 C1349 1.491 1_554 S
C1344 H1335 0.950 . S
C1344 C1343 1.398 . S
C1344 C1345 1.391 . S
C1345 H1333 0.950 . S
C1345 C1341 1.393 . S
C1345 C1344 1.391 . S
C1346 H1336 0.950 . S
C1346 C1347 1.386 . S
C1346 C1348 1.391 1_556 S
C1347 C1346 1.386 . S
C1347 C1351 1.393 . S
C1348 H1337 0.950 . S
C1348 C1346 1.391 1_554 S
C1348 C1349 1.400 1_554 S
C1349 C1343 1.491 1_556 S
C1349 C1348 1.400 1_556 S
C1349 C1350 1.398 . S
C1350 H1338 0.950 . S
C1350 C1349 1.398 . S
C1350 C1351 1.391 . S
C1351 H1339 0.950 . S
C1351 C1347 1.393 . S
C1351 C1350 1.391 . S
H1352 C1360 0.950 . S
H1353 C1365 0.950 . S
H1354 C1362 0.950 1_556 S
H1355 C1364 0.950 . S
H1356 C1366 0.950 . S
H1357 C1368 0.950 1_554 S
H1358 C1370 0.950 . S
H1359 C1371 0.950 . S
C1360 H1352 0.950 . S
C1360 C1361 1.386 . S
C1360 C1362 1.391 . S
C1361 C1360 1.386 . S
C1361 C1365 1.393 . S
C1362 H1354 0.950 1_554 S
C1362 C1360 1.391 . S
C1362 C1363 1.400 . S
C1363 C1362 1.400 . S
C1363 C1364 1.398 . S
C1363 C1369 1.491 1_554 S
C1364 H1355 0.950 . S
C1364 C1363 1.398 . S
C1364 C1365 1.391 . S
C1365 H1353 0.950 . S
C1365 C1361 1.393 . S
C1365 C1364 1.391 . S
C1366 H1356 0.950 . S
C1366 C1367 1.386 . S
C1366 C1368 1.391 . S
C1367 C1366 1.386 . S
C1367 C1371 1.393 . S
C1368 H1357 0.950 1_556 S
C1368 C1366 1.391 . S
C1368 C1369 1.400 . S
C1369 C1363 1.491 1_556 S
C1369 C1368 1.400 . S
C1369 C1370 1.398 . S
C1370 H1358 0.950 . S
C1370 C1369 1.398 . S
C1370 C1371 1.391 . S
C1371 H1359 0.950 . S
C1371 C1367 1.393 . S
C1371 C1370 1.391 . S
H1372 C1380 0.950 . S
H1373 C1385 0.950 . S
H1374 C1382 0.950 1_554 S
H1375 C1384 0.950 . S
H1376 C1386 0.950 . S
H1377 C1388 0.950 . S
H1378 C1390 0.950 . S
H1379 C1391 0.950 . S
C1380 H1372 0.950 . S
C1380 C1381 1.386 . S
C1380 C1382 1.391 . S
C1381 C1380 1.386 . S
C1381 C1385 1.393 . S
C1382 H1374 0.950 1_556 S
C1382 C1380 1.391 . S
C1382 C1383 1.400 . S
C1383 C1382 1.400 . S
C1383 C1384 1.398 . S
C1383 C1389 1.491 1_556 S
C1384 H1375 0.950 . S
C1384 C1383 1.398 . S
C1384 C1385 1.391 . S
C1385 H1373 0.950 . S
C1385 C1381 1.393 . S
C1385 C1384 1.391 . S
C1386 H1376 0.950 . S
C1386 C1387 1.386 . S
C1386 C1388 1.391 1_554 S
C1387 C1386 1.386 . S
C1387 C1391 1.393 . S
C1388 H1377 0.950 . S
C1388 C1386 1.391 1_556 S
C1388 C1389 1.400 1_556 S
C1389 C1383 1.491 1_554 S
C1389 C1388 1.400 1_554 S
C1389 C1390 1.398 . S
C1390 H1378 0.950 . S
C1390 C1389 1.398 . S
C1390 C1391 1.391 . S
C1391 H1379 0.950 . S
C1391 C1387 1.393 . S
C1391 C1390 1.391 . S
H1392 C1400 0.950 . S
H1393 C1405 0.950 . S
H1394 C1402 0.950 . S
H1395 C1404 0.950 . S
H1396 C1406 0.950 . S
H1397 C1408 0.950 . S
H1398 C1410 0.950 . S
H1399 C1411 0.950 . S
C1400 H1392 0.950 . S
C1400 C1401 1.386 . S
C1400 C1402 1.391 . S
C1401 C1400 1.386 . S
C1401 C1405 1.393 . S
C1402 H1394 0.950 . S
C1402 C1400 1.391 . S
C1402 C1403 1.400 . S
C1403 C1402 1.400 . S
C1403 C1404 1.398 . S
C1403 C1409 1.491 . S
C1404 H1395 0.950 . S
C1404 C1403 1.398 . S
C1404 C1405 1.391 . S
C1405 H1393 0.950 . S
C1405 C1401 1.393 . S
C1405 C1404 1.391 . S
C1406 H1396 0.950 . S
C1406 C1407 1.386 . S
C1406 C1408 1.391 . S
C1407 C1406 1.386 . S
C1407 C1411 1.393 . S
C1408 H1397 0.950 . S
C1408 C1406 1.391 . S
C1408 C1409 1.400 . S
C1409 C1403 1.491 . S
C1409 C1408 1.400 . S
C1409 C1410 1.398 . S
C1410 H1398 0.950 . S
C1410 C1409 1.398 . S
C1410 C1411 1.391 . S
C1411 H1399 0.950 . S
C1411 C1407 1.393 . S
C1411 C1410 1.391 . S
H1412 C1420 0.950 . S
H1413 C1425 0.950 . S
H1414 C1422 0.950 . S
H1415 C1424 0.950 . S
H1416 C1426 0.950 . S
H1417 C1428 0.950 . S
H1418 C1430 0.950 . S
H1419 C1431 0.950 . S
C1420 H1412 0.950 . S
C1420 C1421 1.386 . S
C1420 C1422 1.391 . S
C1421 C1420 1.386 . S
C1421 C1425 1.393 . S
C1422 H1414 0.950 . S
C1422 C1420 1.391 . S
C1422 C1423 1.400 . S
C1423 C1422 1.400 . S
C1423 C1424 1.398 . S
C1423 C1429 1.491 . S
C1424 H1415 0.950 . S
C1424 C1423 1.398 . S
C1424 C1425 1.391 . S
C1425 H1413 0.950 . S
C1425 C1421 1.393 . S
C1425 C1424 1.391 . S
C1426 H1416 0.950 . S
C1426 C1427 1.386 . S
C1426 C1428 1.391 . S
C1427 C1426 1.386 . S
C1427 C1431 1.393 . S
C1428 H1417 0.950 . S
C1428 C1426 1.391 . S
C1428 C1429 1.400 . S
C1429 C1423 1.491 . S
C1429 C1428 1.400 . S
C1429 C1430 1.398 . S
C1430 H1418 0.950 . S
C1430 C1429 1.398 . S
C1430 C1431 1.391 . S
C1431 H1419 0.950 . S
C1431 C1427 1.393 . S
C1431 C1430 1.391 . S
H1432 C1440 0.950 . S
H1433 C1445 0.950 . S
H1434 C1442 0.950 . S
H1435 C1444 0.950 . S
H1436 C1446 0.950 . S
H1437 C1448 0.950 . S
H1438 C1450 0.950 . S
H1439 C1451 0.950 . S
C1440 H1432 0.950 . S
C1440 C1441 1.386 . S
C1440 C1442 1.391 . S
C1441 C1440 1.386 . S
C1441 C1445 1.393 . S
C1442 H1434 0.950 . S
C1442 C1440 1.391 . S
C1442 C1443 1.400 . S
C1443 C1442 1.400 . S
C1443 C1444 1.398 . S
C1443 C1449 1.491 . S
C1444 H1435 0.950 . S
C1444 C1443 1.398 . S
C1444 C1445 1.391 . S
C1445 H1433 0.950 . S
C1445 C1441 1.393 . S
C1445 C1444 1.391 . S
C1446 H1436 0.950 . S
C1446 C1447 1.386 . S
C1446 C1448 1.391 . S
C1447 C1446 1.386 . S
C1447 C1451 1.393 . S
C1448 H1437 0.950 . S
C1448 C1446 1.391 . S
C1448 C1449 1.400 . S
C1449 C1443 1.491 . S
C1449 C1448 1.400 . S
C1449 C1450 1.398 . S
C1450 H1438 0.950 . S
C1450 C1449 1.398 . S
C1450 C1451 1.391 . S
C1451 H1439 0.950 . S
C1451 C1447 1.393 . S
C1451 C1450 1.391 . S
H1452 C1460 0.950 . S
H1453 C1465 0.950 . S
H1454 C1462 0.950 . S
H1455 C1464 0.950 . S
H1456 C1466 0.950 . S
H1457 C1468 0.950 . S
H1458 C1470 0.950 . S
H1459 C1471 0.950 . S
C1460 H1452 0.950 . S
C1460 C1461 1.386 . S
C1460 C1462 1.391 . S
C1461 C1460 1.386 . S
C1461 C1465 1.393 . S
C1462 H1454 0.950 . S
C1462 C1460 1.391 . S
C1462 C1463 1.400 . S
C1463 C1462 1.400 . S
C1463 C1464 1.398 . S
C1463 C1469 1.491 . S
C1464 H1455 0.950 . S
C1464 C1463 1.398 . S
C1464 C1465 1.391 . S
C1465 H1453 0.950 . S
C1465 C1461 1.393 . S
C1465 C1464 1.391 . S
C1466 H1456 0.950 . S
C1466 C1467 1.386 . S
C1466 C1468 1.391 . S
C1467 C1466 1.386 . S
C1467 C1471 1.393 . S
C1468 H1457 0.950 . S
C1468 C1466 1.391 . S
C1468 C1469 1.400 . S
C1469 C1463 1.491 . S
C1469 C1468 1.400 . S
C1469 C1470 1.398 . S
C1470 H1458 0.950 . S
C1470 C1469 1.398 . S
C1470 C1471 1.391 . S
C1471 H1459 0.950 . S
C1471 C1467 1.393 . S
C1471 C1470 1.391 . S
H1472 C1480 0.950 . S
H1473 C1485 0.950 . S
H1474 C1482 0.950 . S
H1475 C1484 0.950 . S
H1476 C1486 0.950 . S
H1477 C1488 0.950 . S
H1478 C1490 0.950 . S
H1479 C1491 0.950 . S
C1480 H1472 0.950 . S
C1480 C1481 1.386 . S
C1480 C1482 1.391 . S
C1481 C1480 1.386 . S
C1481 C1485 1.393 . S
C1482 H1474 0.950 . S
C1482 C1480 1.391 . S
C1482 C1483 1.400 . S
C1483 C1482 1.400 . S
C1483 C1484 1.398 . S
C1483 C1489 1.491 . S
C1484 H1475 0.950 . S
C1484 C1483 1.398 . S
C1484 C1485 1.391 . S
C1485 H1473 0.950 . S
C1485 C1481 1.393 . S
C1485 C1484 1.391 . S
C1486 H1476 0.950 . S
C1486 C1487 1.386 . S
C1486 C1488 1.391 . S
C1487 C1486 1.386 . S
C1487 C1491 1.393 . S
C1488 H1477 0.950 . S
C1488 C1486 1.391 . S
C1488 C1489 1.400 . S
C1489 C1483 1.491 . S
C1489 C1488 1.400 . S
C1489 C1490 1.398 . S
C1490 H1478 0.950 . S
C1490 C1489 1.398 . S
C1490 C1491 1.391 . S
C1491 H1479 0.950 . S
C1491 C1487 1.393 . S
C1491 C1490 1.391 . S
H1492 C1500 0.950 . S
H1493 C1505 0.950 . S
H1494 C1502 0.950 . S
H1495 C1504 0.950 . S
H1496 C1506 0.950 . S
H1497 C1508 0.950 . S
H1498 C1510 0.950 . S
H1499 C1511 0.950 . S
C1500 H1492 0.950 . S
C1500 C1501 1.386 . S
C1500 C1502 1.391 . S
C1501 C1500 1.386 . S
C1501 C1505 1.393 . S
C1502 H1494 0.950 . S
C1502 C1500 1.391 . S
C1502 C1503 1.400 . S
C1503 C1502 1.400 . S
C1503 C1504 1.398 . S
C1503 C1509 1.491 . S
C1504 H1495 0.950 . S
C1504 C1503 1.398 . S
C1504 C1505 1.391 . S
C1505 H1493 0.950 . S
C1505 C1501 1.393 . S
C1505 C1504 1.391 . S
C1506 H1496 0.950 . S
C1506 C1507 1.386 . S
C1506 C1508 1.391 . S
C1507 C1506 1.386 . S
C1507 C1511 1.393 . S
C1508 H1497 0.950 . S
C1508 C1506 1.391 . S
C1508 C1509 1.400 . S
C1509 C1503 1.491 . S
C1509 C1508 1.400 . S
C1509 C1510 1.398 . S
C1510 H1498 0.950 . S
C1510 C1509 1.398 . S
C1510 C1511 1.391 . S
C1511 H1499 0.950 . S
C1511 C1507 1.393 . S
C1511 C1510 1.391 . S
H1512 C1520 0.950 . S
H1513 C1525 0.950 . S
H1514 C1522 0.950 . S
H1515 C1524 0.950 . S
H1516 C1526 0.950 . S
H1517 C1528 0.950 . S
H1518 C1530 0.950 . S
H1519 C1531 0.950 . S
C1520 H1512 0.950 . S
C1520 C1521 1.386 . S
C1520 C1522 1.391 . S
C1521 C1520 1.386 . S
C1521 C1525 1.393 . S
C1522 H1514 0.950 . S
C1522 C1520 1.391 . S
C1522 C1523 1.400 . S
C1523 C1522 1.400 . S
C1523 C1524 1.398 . S
C1523 C1529 1.491 . S
C1524 H1515 0.950 . S
C1524 C1523 1.398 . S
C1524 C1525 1.391 . S
C1525 H1513 0.950 . S
C1525 C1521 1.393 . S
C1525 C1524 1.391 . S
C1526 H1516 0.950 . S
C1526 C1527 1.386 . S
C1526 C1528 1.391 . S
C1527 C1526 1.386 . S
C1527 C1531 1.393 . S
C1528 H1517 0.950 . S
C1528 C1526 1.391 . S
C1528 C1529 1.400 . S
C1529 C1523 1.491 . S
C1529 C1528 1.400 . S
C1529 C1530 1.398 . S
C1530 H1518 0.950 . S
C1530 C1529 1.398 . S
C1530 C1531 1.391 . S
C1531 H1519 0.950 . S
C1531 C1527 1.393 . S
C1531 C1530 1.391 . S
H1532 C1540 0.950 . S
H1533 C1545 0.950 . S
H1534 C1542 0.950 . S
H1535 C1544 0.950 . S
H1536 C1546 0.950 . S
H1537 C1548 0.950 . S
H1538 C1550 0.950 . S
H1539 C1551 0.950 . S
C1540 H1532 0.950 . S
C1540 C1541 1.386 . S
C1540 C1542 1.391 . S
C1541 C1540 1.386 . S
C1541 C1545 1.393 . S
C1542 H1534 0.950 . S
C1542 C1540 1.391 . S
C1542 C1543 1.400 . S
C1543 C1542 1.400 . S
C1543 C1544 1.398 . S
C1543 C1549 1.491 . S
C1544 H1535 0.950 . S
C1544 C1543 1.398 . S
C1544 C1545 1.391 . S
C1545 H1533 0.950 . S
C1545 C1541 1.393 . S
C1545 C1544 1.391 . S
C1546 H1536 0.950 . S
C1546 C1547 1.386 . S
C1546 C1548 1.391 . S
C1547 C1546 1.386 . S
C1547 C1551 1.393 . S
C1548 H1537 0.950 . S
C1548 C1546 1.391 . S
C1548 C1549 1.400 . S
C1549 C1543 1.491 . S
C1549 C1548 1.400 . S
C1549 C1550 1.398 . S
C1550 H1538 0.950 . S
C1550 C1549 1.398 . S
C1550 C1551 1.391 . S
C1551 H1539 0.950 . S
C1551 C1547 1.393 . S
C1551 C1550 1.391 . S
H1552 C1560 0.950 . S
H1553 C1565 0.950 . S
H1554 C1562 0.950 . S
H1555 C1564 0.950 . S
H1556 C1566 0.950 . S
H1557 C1568 0.950 . S
H1558 C1570 0.950 . S
H1559 C1571 0.950 . S
C1560 H1552 0.950 . S
C1560 C1561 1.386 . S
C1560 C1562 1.391 . S
C1561 C1560 1.386 . S
C1561 C1565 1.393 . S
C1562 H1554 0.950 . S
C1562 C1560 1.391 . S
C1562 C1563 1.400 . S
C1563 C1562 1.400 . S
C1563 C1564 1.398 . S
C1563 C1569 1.491 . S
C1564 H1555 0.950 . S
C1564 C1563 1.398 . S
C1564 C1565 1.391 . S
C1565 H1553 0.950 . S
C1565 C1561 1.393 . S
C1565 C1564 1.391 . S
C1566 H1556 0.950 . S
C1566 C1567 1.386 . S
C1566 C1568 1.391 . S
C1567 C1566 1.386 . S
C1567 C1571 1.393 . S
C1568 H1557 0.950 . S
C1568 C1566 1.391 . S
C1568 C1569 1.400 . S
C1569 C1563 1.491 . S
C1569 C1568 1.400 . S
C1569 C1570 1.398 . S
C1570 H1558 0.950 . S
C1570 C1569 1.398 . S
C1570 C1571 1.391 . S
C1571 H1559 0.950 . S
C1571 C1567 1.393 . S
C1571 C1570 1.391 . S
H1572 C1580 0.950 . S
H1573 C1585 0.950 . S
H1574 C1582 0.950 . S
H1575 C1584 0.950 . S
H1576 C1586 0.950 . S
H1577 C1588 0.950 . S
H1578 C1590 0.950 . S
H1579 C1591 0.950 . S
C1580 H1572 0.950 . S
C1580 C1581 1.386 . S
C1580 C1582 1.391 . S
C1581 C1580 1.386 . S
C1581 C1585 1.393 . S
C1582 H1574 0.950 . S
C1582 C1580 1.391 . S
C1582 C1583 1.400 . S
C1583 C1582 1.400 . S
C1583 C1584 1.398 . S
C1583 C1589 1.491 . S
C1584 H1575 0.950 . S
C1584 C1583 1.398 . S
C1584 C1585 1.391 . S
C1585 H1573 0.950 . S
C1585 C1581 1.393 . S
C1585 C1584 1.391 . S
C1586 H1576 0.950 . S
C1586 C1587 1.386 . S
C1586 C1588 1.391 . S
C1587 C1586 1.386 . S
C1587 C1591 1.393 . S
C1588 H1577 0.950 . S
C1588 C1586 1.391 . S
C1588 C1589 1.400 . S
C1589 C1583 1.491 . S
C1589 C1588 1.400 . S
C1589 C1590 1.398 . S
C1590 H1578 0.950 . S
C1590 C1589 1.398 . S
C1590 C1591 1.391 . S
C1591 H1579 0.950 . S
C1591 C1587 1.393 . S
C1591 C1590 1.391 . S
H1592 C1600 0.950 . S
H1593 C1605 0.950 . S
H1594 C1602 0.950 . S
H1595 C1604 0.950 . S
H1596 C1606 0.950 . S
H1597 C1608 0.950 . S
H1598 C1610 0.950 . S
H1599 C1611 0.950 . S
C1600 H1592 0.950 . S
C1600 C1601 1.386 . S
C1600 C1602 1.391 . S
C1601 C1600 1.386 . S
C1601 C1605 1.393 . S
C1602 H1594 0.950 . S
C1602 C1600 1.391 . S
C1602 C1603 1.400 . S
C1603 C1602 1.400 . S
C1603 C1604 1.398 . S
C1603 C1609 1.491 . S
C1604 H1595 0.950 . S
C1604 C1603 1.398 . S
C1604 C1605 1.391 . S
C1605 H1593 0.950 . S
C1605 C1601 1.393 . S
C1605 C1604 1.391 . S
C1606 H1596 0.950 . S
C1606 C1607 1.386 . S
C1606 C1608 1.391 . S
C1607 C1606 1.386 . S
C1607 C1611 1.393 . S
C1608 H1597 0.950 . S
C1608 C1606 1.391 . S
C1608 C1609 1.400 . S
C1609 C1603 1.491 . S
C1609 C1608 1.400 . S
C1609 C1610 1.398 . S
C1610 H1598 0.950 . S
C1610 C1609 1.398 . S
C1610 C1611 1.391 . S
C1611 H1599 0.950 . S
C1611 C1607 1.393 . S
C1611 C1610 1.391 . S
H1612 C1620 0.950 . S
H1613 C1625 0.950 . S
H1614 C1622 0.950 . S
H1615 C1624 0.950 . S
H1616 C1626 0.950 . S
H1617 C1628 0.950 . S
H1618 C1630 0.950 . S
H1619 C1631 0.950 . S
C1620 H1612 0.950 . S
C1620 C1621 1.386 . S
C1620 C1622 1.391 . S
C1621 C1620 1.386 . S
C1621 C1625 1.393 . S
C1622 H1614 0.950 . S
C1622 C1620 1.391 . S
C1622 C1623 1.400 . S
C1623 C1622 1.400 . S
C1623 C1624 1.398 . S
C1623 C1629 1.491 . S
C1624 H1615 0.950 . S
C1624 C1623 1.398 . S
C1624 C1625 1.391 . S
C1625 H1613 0.950 . S
C1625 C1621 1.393 . S
C1625 C1624 1.391 . S
C1626 H1616 0.950 . S
C1626 C1627 1.386 . S
C1626 C1628 1.391 . S
C1627 C1626 1.386 . S
C1627 C1631 1.393 . S
C1628 H1617 0.950 . S
C1628 C1626 1.391 . S
C1628 C1629 1.400 . S
C1629 C1623 1.491 . S
C1629 C1628 1.400 . S
C1629 C1630 1.398 . S
C1630 H1618 0.950 . S
C1630 C1629 1.398 . S
C1630 C1631 1.391 . S
C1631 H1619 0.950 . S
C1631 C1627 1.393 . S
C1631 C1630 1.391 . S
H1632 C1640 0.950 . S
H1633 C1645 0.950 . S
H1634 C1642 0.950 . S
H1635 C1644 0.950 . S
H1636 C1646 0.950 . S
H1637 C1648 0.950 . S
H1638 C1650 0.950 . S
H1639 C1651 0.950 . S
C1640 H1632 0.950 . S
C1640 C1641 1.386 . S
C1640 C1642 1.391 . S
C1641 C1640 1.386 . S
C1641 C1645 1.393 . S
C1642 H1634 0.950 . S
C1642 C1640 1.391 . S
C1642 C1643 1.400 . S
C1643 C1642 1.400 . S
C1643 C1644 1.398 . S
C1643 C1649 1.491 . S
C1644 H1635 0.950 . S
C1644 C1643 1.398 . S
C1644 C1645 1.391 . S
C1645 H1633 0.950 . S
C1645 C1641 1.393 . S
C1645 C1644 1.391 . S
C1646 H1636 0.950 . S
C1646 C1647 1.386 . S
C1646 C1648 1.391 . S
C1647 C1646 1.386 . S
C1647 C1651 1.393 . S
C1648 H1637 0.950 . S
C1648 C1646 1.391 . S
C1648 C1649 1.400 . S
C1649 C1643 1.491 . S
C1649 C1648 1.400 . S
C1649 C1650 1.398 . S
C1650 H1638 0.950 . S
C1650 C1649 1.398 . S
C1650 C1651 1.391 . S
C1651 H1639 0.950 . S
C1651 C1647 1.393 . S
C1651 C1650 1.391 . S
H1652 C1660 0.950 . S
H1653 C1665 0.950 . S
H1654 C1662 0.950 . S
H1655 C1664 0.950 . S
H1656 C1666 0.950 . S
H1657 C1668 0.950 . S
H1658 C1670 0.950 . S
H1659 C1671 0.950 . S
C1660 H1652 0.950 . S
C1660 C1661 1.386 . S
C1660 C1662 1.391 . S
C1661 C1660 1.386 . S
C1661 C1665 1.393 . S
C1662 H1654 0.950 . S
C1662 C1660 1.391 . S
C1662 C1663 1.400 . S
C1663 C1662 1.400 . S
C1663 C1664 1.398 . S
C1663 C1669 1.491 . S
C1664 H1655 0.950 . S
C1664 C1663 1.398 . S
C1664 C1665 1.391 . S
C1665 H1653 0.950 . S
C1665 C1661 1.393 . S
C1665 C1664 1.391 . S
C1666 H1656 0.950 . S
C1666 C1667 1.386 . S
C1666 C1668 1.391 . S
C1667 C1666 1.386 . S
C1667 C1671 1.393 . S
C1668 H1657 0.950 . S
C1668 C1666 1.391 . S
C1668 C1669 1.400 . S
C1669 C1663 1.491 . S
C1669 C1668 1.400 . S
C1669 C1670 1.398 . S
C1670 H1658 0.950 . S
C1670 C1669 1.398 . S
C1670 C1671 1.391 . S
C1671 H1659 0.950 . S
C1671 C1667 1.393 . S
C1671 C1670 1.391 . S
H1672 C1680 0.950 . S
H1673 C1685 0.950 . S
H1674 C1682 0.950 . S
H1675 C1684 0.950 . S
H1676 C1686 0.950 1_556 S
H1677 C1688 0.950 . S
H1678 C1690 0.950 . S
H1679 C1691 0.950 . S
C1680 H1672 0.950 . S
C1680 C1681 1.386 . S
C1680 C1682 1.391 . S
C1681 C1680 1.386 . S
C1681 C1685 1.393 . S
C1682 H1674 0.950 . S
C1682 C1680 1.391 . S
C1682 C1683 1.400 . S
C1683 C1682 1.400 . S
C1683 C1684 1.398 . S
C1683 C1689 1.491 . S
C1684 H1675 0.950 . S
C1684 C1683 1.398 . S
C1684 C1685 1.391 . S
C1685 H1673 0.950 . S
C1685 C1681 1.393 . S
C1685 C1684 1.391 . S
C1686 H1676 0.950 1_554 S
C1686 C1687 1.386 . S
C1686 C1688 1.391 . S
C1687 C1686 1.386 . S
C1687 C1691 1.393 . S
C1688 H1677 0.950 . S
C1688 C1686 1.391 . S
C1688 C1689 1.400 . S
C1689 C1683 1.491 . S
C1689 C1688 1.400 . S
C1689 C1690 1.398 . S
C1690 H1678 0.950 . S
C1690 C1689 1.398 . S
C1690 C1691 1.391 . S
C1691 H1679 0.950 . S
C1691 C1687 1.393 . S
C1691 C1690 1.391 . S
H1692 C1700 0.950 . S
H1693 C1705 0.950 . S
H1694 C1702 0.950 . S
H1695 C1704 0.950 . S
H1696 C1706 0.950 . S
H1697 C1708 0.950 . S
H1698 C1710 0.950 . S
H1699 C1711 0.950 . S
C1700 H1692 0.950 . S
C1700 C1701 1.386 . S
C1700 C1702 1.391 . S
C1701 C1700 1.386 . S
C1701 C1705 1.393 . S
C1702 H1694 0.950 . S
C1702 C1700 1.391 . S
C1702 C1703 1.400 . S
C1703 C1702 1.400 . S
C1703 C1704 1.398 . S
C1703 C1709 1.491 . S
C1704 H1695 0.950 . S
C1704 C1703 1.398 . S
C1704 C1705 1.391 . S
C1705 H1693 0.950 . S
C1705 C1701 1.393 . S
C1705 C1704 1.391 . S
C1706 H1696 0.950 . S
C1706 C1707 1.386 . S
C1706 C1708 1.391 . S
C1707 C1706 1.386 . S
C1707 C1711 1.393 . S
C1708 H1697 0.950 . S
C1708 C1706 1.391 . S
C1708 C1709 1.400 . S
C1709 C1703 1.491 . S
C1709 C1708 1.400 . S
C1709 C1710 1.398 . S
C1710 H1698 0.950 . S
C1710 C1709 1.398 . S
C1710 C1711 1.391 . S
C1711 H1699 0.950 . S
C1711 C1707 1.393 . S
C1711 C1710 1.391 . S
H1712 C1720 0.950 . S
H1713 C1725 0.950 . S
H1714 C1722 0.950 . S
H1715 C1724 0.950 . S
H1716 C1726 0.950 . S
H1717 C1728 0.950 . S
H1718 C1730 0.950 . S
H1719 C1731 0.950 1_554 S
C1720 H1712 0.950 . S
C1720 C1721 1.386 . S
C1720 C1722 1.391 . S
C1721 C1720 1.386 . S
C1721 C1725 1.393 . S
C1722 H1714 0.950 . S
C1722 C1720 1.391 . S
C1722 C1723 1.400 . S
C1723 C1722 1.400 . S
C1723 C1724 1.398 . S
C1723 C1729 1.491 . S
C1724 H1715 0.950 . S
C1724 C1723 1.398 . S
C1724 C1725 1.391 . S
C1725 H1713 0.950 . S
C1725 C1721 1.393 . S
C1725 C1724 1.391 . S
C1726 H1716 0.950 . S
C1726 C1727 1.386 . S
C1726 C1728 1.391 . S
C1727 C1726 1.386 . S
C1727 C1731 1.393 . S
C1728 H1717 0.950 . S
C1728 C1726 1.391 . S
C1728 C1729 1.400 . S
C1729 C1723 1.491 . S
C1729 C1728 1.400 . S
C1729 C1730 1.398 . S
C1730 H1718 0.950 . S
C1730 C1729 1.398 . S
C1730 C1731 1.391 . S
C1731 H1719 0.950 1_556 S
C1731 C1727 1.393 . S
C1731 C1730 1.391 . S
H1732 C1740 0.950 . S
H1733 C1745 0.950 . S
H1734 C1742 0.950 . S
H1735 C1744 0.950 . S
H1736 C1746 0.950 . S
H1737 C1748 0.950 . S
H1738 C1750 0.950 . S
H1739 C1751 0.950 . S
C1740 H1732 0.950 . S
C1740 C1741 1.386 . S
C1740 C1742 1.391 . S
C1741 C1740 1.386 . S
C1741 C1745 1.393 . S
C1742 H1734 0.950 . S
C1742 C1740 1.391 . S
C1742 C1743 1.400 . S
C1743 C1742 1.400 . S
C1743 C1744 1.398 . S
C1743 C1749 1.491 . S
C1744 H1735 0.950 . S
C1744 C1743 1.398 . S
C1744 C1745 1.391 . S
C1745 H1733 0.950 . S
C1745 C1741 1.393 . S
C1745 C1744 1.391 . S
C1746 H1736 0.950 . S
C1746 C1747 1.386 . S
C1746 C1748 1.391 . S
C1747 C1746 1.386 . S
C1747 C1751 1.393 . S
C1748 H1737 0.950 . S
C1748 C1746 1.391 . S
C1748 C1749 1.400 . S
C1749 C1743 1.491 . S
C1749 C1748 1.400 . S
C1749 C1750 1.398 . S
C1750 H1738 0.950 . S
C1750 C1749 1.398 . S
C1750 C1751 1.391 . S
C1751 H1739 0.950 . S
C1751 C1747 1.393 . S
C1751 C1750 1.391 . S
H1752 C1760 0.950 . S
H1753 C1765 0.950 1_554 S
H1754 C1762 0.950 . S
H1755 C1764 0.950 . S
H1756 C1766 0.950 . S
H1757 C1768 0.950 . S
H1758 C1770 0.950 . S
H1759 C1771 0.950 . S
C1760 H1752 0.950 . S
C1760 C1761 1.386 . S
C1760 C1762 1.391 . S
C1761 C1760 1.386 . S
C1761 C1765 1.393 . S
C1762 H1754 0.950 . S
C1762 C1760 1.391 . S
C1762 C1763 1.400 . S
C1763 C1762 1.400 . S
C1763 C1764 1.398 . S
C1763 C1769 1.491 . S
C1764 H1755 0.950 . S
C1764 C1763 1.398 . S
C1764 C1765 1.391 . S
C1765 H1753 0.950 1_556 S
C1765 C1761 1.393 . S
C1765 C1764 1.391 . S
C1766 H1756 0.950 . S
C1766 C1767 1.386 . S
C1766 C1768 1.391 . S
C1767 C1766 1.386 . S
C1767 C1771 1.393 . S
C1768 H1757 0.950 . S
C1768 C1766 1.391 . S
C1768 C1769 1.400 . S
C1769 C1763 1.491 . S
C1769 C1768 1.400 . S
C1769 C1770 1.398 . S
C1770 H1758 0.950 . S
C1770 C1769 1.398 . S
C1770 C1771 1.391 . S
C1771 H1759 0.950 . S
C1771 C1767 1.393 . S
C1771 C1770 1.391 . S
H1772 C1780 0.950 . S
H1773 C1785 0.950 . S
H1774 C1782 0.950 . S
H1775 C1784 0.950 . S
H1776 C1786 0.950 . S
H1777 C1788 0.950 . S
H1778 C1790 0.950 . S
H1779 C1791 0.950 . S
C1780 H1772 0.950 . S
C1780 C1781 1.386 . S
C1780 C1782 1.391 . S
C1781 C1780 1.386 . S
C1781 C1785 1.393 . S
C1782 H1774 0.950 . S
C1782 C1780 1.391 . S
C1782 C1783 1.400 . S
C1783 C1782 1.400 . S
C1783 C1784 1.398 . S
C1783 C1789 1.491 . S
C1784 H1775 0.950 . S
C1784 C1783 1.398 . S
C1784 C1785 1.391 . S
C1785 H1773 0.950 . S
C1785 C1781 1.393 . S
C1785 C1784 1.391 . S
C1786 H1776 0.950 . S
C1786 C1787 1.386 . S
C1786 C1788 1.391 . S
C1787 C1786 1.386 . S
C1787 C1791 1.393 . S
C1788 H1777 0.950 . S
C1788 C1786 1.391 . S
C1788 C1789 1.400 . S
C1789 C1783 1.491 . S
C1789 C1788 1.400 . S
C1789 C1790 1.398 . S
C1790 H1778 0.950 . S
C1790 C1789 1.398 . S
C1790 C1791 1.391 . S
C1791 H1779 0.950 . S
C1791 C1787 1.393 . S
C1791 C1790 1.391 . S
H1792 C1800 0.950 . S
H1793 C1805 0.950 . S
H1794 C1802 0.950 . S
H1795 C1804 0.950 . S
H1796 C1806 0.950 . S
H1797 C1808 0.950 . S
H1798 C1810 0.950 . S
H1799 C1811 0.950 . S
C1800 H1792 0.950 . S
C1800 C1801 1.386 . S
C1800 C1802 1.391 . S
C1801 C1800 1.386 . S
C1801 C1805 1.393 . S
C1802 H1794 0.950 . S
C1802 C1800 1.391 . S
C1802 C1803 1.400 . S
C1803 C1802 1.400 . S
C1803 C1804 1.398 . S
C1803 C1809 1.491 . S
C1804 H1795 0.950 . S
C1804 C1803 1.398 . S
C1804 C1805 1.391 . S
C1805 H1793 0.950 . S
C1805 C1801 1.393 . S
C1805 C1804 1.391 . S
C1806 H1796 0.950 . S
C1806 C1807 1.386 . S
C1806 C1808 1.391 . S
C1807 C1806 1.386 . S
C1807 C1811 1.393 . S
C1808 H1797 0.950 . S
C1808 C1806 1.391 . S
C1808 C1809 1.400 . S
C1809 C1803 1.491 . S
C1809 C1808 1.400 . S
C1809 C1810 1.398 . S
C1810 H1798 0.950 . S
C1810 C1809 1.398 . S
C1810 C1811 1.391 . S
C1811 H1799 0.950 . S
C1811 C1807 1.393 . S
C1811 C1810 1.391 . S
H1812 C1820 0.950 . S
H1813 C1825 0.950 . S
H1814 C1822 0.950 . S
H1815 C1824 0.950 . S
H1816 C1826 0.950 . S
H1817 C1828 0.950 . S
H1818 C1830 0.950 . S
H1819 C1831 0.950 . S
C1820 H1812 0.950 . S
C1820 C1821 1.386 . S
C1820 C1822 1.391 . S
C1821 C1820 1.386 . S
C1821 C1825 1.393 . S
C1822 H1814 0.950 . S
C1822 C1820 1.391 . S
C1822 C1823 1.400 . S
C1823 C1822 1.400 . S
C1823 C1824 1.398 . S
C1823 C1829 1.491 . S
C1824 H1815 0.950 . S
C1824 C1823 1.398 . S
C1824 C1825 1.391 . S
C1825 H1813 0.950 . S
C1825 C1821 1.393 . S
C1825 C1824 1.391 . S
C1826 H1816 0.950 . S
C1826 C1827 1.386 . S
C1826 C1828 1.391 . S
C1827 C1826 1.386 . S
C1827 C1831 1.393 . S
C1828 H1817 0.950 . S
C1828 C1826 1.391 . S
C1828 C1829 1.400 . S
C1829 C1823 1.491 . S
C1829 C1828 1.400 . S
C1829 C1830 1.398 . S
C1830 H1818 0.950 . S
C1830 C1829 1.398 . S
C1830 C1831 1.391 . S
C1831 H1819 0.950 . S
C1831 C1827 1.393 . S
C1831 C1830 1.391 . S
H1832 C1840 0.950 . S
H1833 C1845 0.950 . S
H1834 C1842 0.950 . S
H1835 C1844 0.950 . S
H1836 C1846 0.950 . S
H1837 C1848 0.950 . S
H1838 C1850 0.950 . S
H1839 C1851 0.950 . S
C1840 H1832 0.950 . S
C1840 C1841 1.386 . S
C1840 C1842 1.391 . S
C1841 C1840 1.386 . S
C1841 C1845 1.393 . S
C1842 H1834 0.950 . S
C1842 C1840 1.391 . S
C1842 C1843 1.400 . S
C1843 C1842 1.400 . S
C1843 C1844 1.398 . S
C1843 C1849 1.491 . S
C1844 H1835 0.950 . S
C1844 C1843 1.398 . S
C1844 C1845 1.391 . S
C1845 H1833 0.950 . S
C1845 C1841 1.393 . S
C1845 C1844 1.391 . S
C1846 H1836 0.950 . S
C1846 C1847 1.386 . S
C1846 C1848 1.391 . S
C1847 C1846 1.386 . S
C1847 C1851 1.393 . S
C1848 H1837 0.950 . S
C1848 C1846 1.391 . S
C1848 C1849 1.400 . S
C1849 C1843 1.491 . S
C1849 C1848 1.400 . S
C1849 C1850 1.398 . S
C1850 H1838 0.950 . S
C1850 C1849 1.398 . S
C1850 C1851 1.391 . S
C1851 H1839 0.950 . S
C1851 C1847 1.393 . S
C1851 C1850 1.391 . S
H1852 C1860 0.950 . S
H1853 C1865 0.950 . S
H1854 C1862 0.950 . S
H1855 C1864 0.950 . S
H1856 C1866 0.950 . S
H1857 C1868 0.950 . S
H1858 C1870 0.950 . S
H1859 C1871 0.950 . S
C1860 H1852 0.950 . S
C1860 C1861 1.386 . S
C1860 C1862 1.391 . S
C1861 C1860 1.386 . S
C1861 C1865 1.393 . S
C1862 H1854 0.950 . S
C1862 C1860 1.391 . S
C1862 C1863 1.400 . S
C1863 C1862 1.400 . S
C1863 C1864 1.398 . S
C1863 C1869 1.491 . S
C1864 H1855 0.950 . S
C1864 C1863 1.398 . S
C1864 C1865 1.391 . S
C1865 H1853 0.950 . S
C1865 C1861 1.393 . S
C1865 C1864 1.391 . S
C1866 H1856 0.950 . S
C1866 C1867 1.386 . S
C1866 C1868 1.391 . S
C1867 C1866 1.386 . S
C1867 C1871 1.393 . S
C1868 H1857 0.950 . S
C1868 C1866 1.391 . S
C1868 C1869 1.400 . S
C1869 C1863 1.491 . S
C1869 C1868 1.400 . S
C1869 C1870 1.398 . S
C1870 H1858 0.950 . S
C1870 C1869 1.398 . S
C1870 C1871 1.391 . S
C1871 H1859 0.950 . S
C1871 C1867 1.393 . S
C1871 C1870 1.391 . S
H1872 C1880 0.950 . S
H1873 C1885 0.950 . S
H1874 C1882 0.950 . S
H1875 C1884 0.950 . S
H1876 C1886 0.950 . S
H1877 C1888 0.950 . S
H1878 C1890 0.950 . S
H1879 C1891 0.950 . S
C1880 H1872 0.950 . S
C1880 C1881 1.386 . S
C1880 C1882 1.391 . S
C1881 C1880 1.386 . S
C1881 C1885 1.393 . S
C1882 H1874 0.950 . S
C1882 C1880 1.391 . S
C1882 C1883 1.400 . S
C1883 C1882 1.400 . S
C1883 C1884 1.398 . S
C1883 C1889 1.491 . S
C1884 H1875 0.950 . S
C1884 C1883 1.398 . S
C1884 C1885 1.391 . S
C1885 H1873 0.950 . S
C1885 C1881 1.393 . S
C1885 C1884 1.391 . S
C1886 H1876 0.950 . S
C1886 C1887 1.386 . S
C1886 C1888 1.391 . S
C1887 C1886 1.386 . S
C1887 C1891 1.393 . S
C1888 H1877 0.950 . S
C1888 C1886 1.391 . S
C1888 C1889 1.400 . S
C1889 C1883 1.491 . S
C1889 C1888 1.400 . S
C1889 C1890 1.398 . S
C1890 H1878 0.950 . S
C1890 C1889 1.398 . S
C1890 C1891 1.391 . S
C1891 H1879 0.950 . S
C1891 C1887 1.393 . S
C1891 C1890 1.391 . S
H1892 C1900 0.950 . S
H1893 C1905 0.950 1_565 S
H1894 C1902 0.950 . S
H1895 C1904 0.950 . S
H1896 C1906 0.950 . S
H1897 C1908 0.950 . S
H1898 C1910 0.950 . S
H1899 C1911 0.950 . S
C1900 H1892 0.950 . S
C1900 C1901 1.386 . S
C1900 C1902 1.391 . S
C1901 C1900 1.386 . S
C1901 C1905 1.393 . S
C1902 H1894 0.950 . S
C1902 C1900 1.391 . S
C1902 C1903 1.400 . S
C1903 C1902 1.400 . S
C1903 C1904 1.398 . S
C1903 C1909 1.491 . S
C1904 H1895 0.950 . S
C1904 C1903 1.398 . S
C1904 C1905 1.391 . S
C1905 H1893 0.950 1_545 S
C1905 C1901 1.393 . S
C1905 C1904 1.391 . S
C1906 H1896 0.950 . S
C1906 C1907 1.386 . S
C1906 C1908 1.391 . S
C1907 C1906 1.386 . S
C1907 C1911 1.393 . S
C1908 H1897 0.950 . S
C1908 C1906 1.391 . S
C1908 C1909 1.400 . S
C1909 C1903 1.491 . S
C1909 C1908 1.400 . S
C1909 C1910 1.398 . S
C1910 H1898 0.950 . S
C1910 C1909 1.398 . S
C1910 C1911 1.391 . S
C1911 H1899 0.950 . S
C1911 C1907 1.393 . S
C1911 C1910 1.391 . S
H1912 C1920 0.950 . S
H1913 C1925 0.950 . S
H1914 C1922 0.950 . S
H1915 C1924 0.950 . S
H1916 C1926 0.950 . S
H1917 C1928 0.950 . S
H1918 C1930 0.950 . S
H1919 C1931 0.950 . S
C1920 H1912 0.950 . S
C1920 C1921 1.386 . S
C1920 C1922 1.391 . S
C1921 C1920 1.386 . S
C1921 C1925 1.393 . S
C1922 H1914 0.950 . S
C1922 C1920 1.391 . S
C1922 C1923 1.400 . S
C1923 C1922 1.400 . S
C1923 C1924 1.398 . S
C1923 C1929 1.491 . S
C1924 H1915 0.950 . S
C1924 C1923 1.398 . S
C1924 C1925 1.391 . S
C1925 H1913 0.950 . S
C1925 C1921 1.393 . S
C1925 C1924 1.391 . S
C1926 H1916 0.950 . S
C1926 C1927 1.386 . S
C1926 C1928 1.391 . S
C1927 C1926 1.386 . S
C1927 C1931 1.393 . S
C1928 H1917 0.950 . S
C1928 C1926 1.391 . S
C1928 C1929 1.400 . S
C1929 C1923 1.491 . S
C1929 C1928 1.400 . S
C1929 C1930 1.398 . S
C1930 H1918 0.950 . S
C1930 C1929 1.398 . S
C1930 C1931 1.391 . S
C1931 H1919 0.950 . S
C1931 C1927 1.393 . S
C1931 C1930 1.391 . S
H1932 C1940 0.950 . S
H1933 C1945 0.950 . S
H1934 C1942 0.950 . S
H1935 C1944 0.950 . S
H1936 C1946 0.950 . S
H1937 C1948 0.950 . S
H1938 C1950 0.950 . S
H1939 C1951 0.950 1_545 S
C1940 H1932 0.950 . S
C1940 C1941 1.386 . S
C1940 C1942 1.391 . S
C1941 C1940 1.386 . S
C1941 C1945 1.393 . S
C1942 H1934 0.950 . S
C1942 C1940 1.391 . S
C1942 C1943 1.400 . S
C1943 C1942 1.400 . S
C1943 C1944 1.398 . S
C1943 C1949 1.491 . S
C1944 H1935 0.950 . S
C1944 C1943 1.398 . S
C1944 C1945 1.391 . S
C1945 H1933 0.950 . S
C1945 C1941 1.393 . S
C1945 C1944 1.391 . S
C1946 H1936 0.950 . S
C1946 C1947 1.386 . S
C1946 C1948 1.391 . S
C1947 C1946 1.386 . S
C1947 C1951 1.393 . S
C1948 H1937 0.950 . S
C1948 C1946 1.391 . S
C1948 C1949 1.400 . S
C1949 C1943 1.491 . S
C1949 C1948 1.400 . S
C1949 C1950 1.398 . S
C1950 H1938 0.950 . S
C1950 C1949 1.398 . S
C1950 C1951 1.391 . S
C1951 H1939 0.950 1_565 S
C1951 C1947 1.393 . S
C1951 C1950 1.391 . S
H1952 C1960 0.950 . S
H1953 C1965 0.950 . S
H1954 C1962 0.950 . S
H1955 C1964 0.950 . S
H1956 C1966 0.950 . S
H1957 C1968 0.950 . S
H1958 C1970 0.950 . S
H1959 C1971 0.950 . S
C1960 H1952 0.950 . S
C1960 C1961 1.386 . S
C1960 C1962 1.391 . S
C1961 C1960 1.386 . S
C1961 C1965 1.393 . S
C1962 H1954 0.950 . S
C1962 C1960 1.391 . S
C1962 C1963 1.400 . S
C1963 C1962 1.400 . S
C1963 C1964 1.398 . S
C1963 C1969 1.491 . S
C1964 H1955 0.950 . S
C1964 C1963 1.398 . S
C1964 C1965 1.391 . S
C1965 H1953 0.950 . S
C1965 C1961 1.393 . S
C1965 C1964 1.391 . S
C1966 H1956 0.950 . S
C1966 C1967 1.386 . S
C1966 C1968 1.391 . S
C1967 C1966 1.386 . S
C1967 C1971 1.393 . S
C1968 H1957 0.950 . S
C1968 C1966 1.391 . S
C1968 C1969 1.400 . S
C1969 C1963 1.491 . S
C1969 C1968 1.400 . S
C1969 C1970 1.398 . S
C1970 H1958 0.950 . S
C1970 C1969 1.398 . S
C1970 C1971 1.391 . S
C1971 H1959 0.950 . S
C1971 C1967 1.393 . S
C1971 C1970 1.391 . S
H1972 C1980 0.950 . S
H1973 C1985 0.950 . S
H1974 C1982 0.950 . S
H1975 C1984 0.950 . S
H1976 C1986 0.950 . S
H1977 C1988 0.950 . S
H1978 C1990 0.950 . S
H1979 C1991 0.950 . S
C1980 H1972 0.950 . S
C1980 C1981 1.386 . S
C1980 C1982 1.391 . S
C1981 C1980 1.386 . S
C1981 C1985 1.393 . S
C1982 H1974 0.950 . S
C1982 C1980 1.391 . S
C1982 C1983 1.400 . S
C1983 C1982 1.400 . S
C1983 C1984 1.398 . S
C1983 C1989 1.491 . S
C1984 H1975 0.950 . S
C1984 C1983 1.398 . S
C1984 C1985 1.391 . S
C1985 H1973 0.950 . S
C1985 C1981 1.393 . S
C1985 C1984 1.391 . S
C1986 H1976 0.950 . S
C1986 C1987 1.386 . S
C1986 C1988 1.391 . S
C1987 C1986 1.386 . S
C1987 C1991 1.393 . S
C1988 H1977 0.950 . S
C1988 C1986 1.391 . S
C1988 C1989 1.400 . S
C1989 C1983 1.491 . S
C1989 C1988 1.400 . S
C1989 C1990 1.398 . S
C1990 H1978 0.950 . S
C1990 C1989 1.398 . S
C1990 C1991 1.391 . S
C1991 H1979 0.950 . S
C1991 C1987 1.393 . S
C1991 C1990 1.391 . S
H1992 C2000 0.950 . S
H1993 C2005 0.950 . S
H1994 C2002 0.950 . S
H1995 C2004 0.950 . S
H1996 C2006 0.950 . S
H1997 C2008 0.950 . S
H1998 C2010 0.950 . S
H1999 C2011 0.950 . S
C2000 H1992 0.950 . S
C2000 C2001 1.386 . S
C2000 C2002 1.391 . S
C2001 C2000 1.386 . S
C2001 C2005 1.393 . S
C2002 H1994 0.950 . S
C2002 C2000 1.391 . S
C2002 C2003 1.400 . S
C2003 C2002 1.400 . S
C2003 C2004 1.398 . S
C2003 C2009 1.491 . S
C2004 H1995 0.950 . S
C2004 C2003 1.398 . S
C2004 C2005 1.391 . S
C2005 H1993 0.950 . S
C2005 C2001 1.393 . S
C2005 C2004 1.391 . S
C2006 H1996 0.950 . S
C2006 C2007 1.386 . S
C2006 C2008 1.391 . S
C2007 C2006 1.386 . S
C2007 C2011 1.393 . S
C2008 H1997 0.950 . S
C2008 C2006 1.391 . S
C2008 C2009 1.400 . S
C2009 C2003 1.491 . S
C2009 C2008 1.400 . S
C2009 C2010 1.398 . S
C2010 H1998 0.950 . S
C2010 C2009 1.398 . S
C2010 C2011 1.391 . S
C2011 H1999 0.950 . S
C2011 C2007 1.393 . S
C2011 C2010 1.391 . S
H2012 C2020 0.950 . S
H2013 C2025 0.950 . S
H2014 C2022 0.950 . S
H2015 C2024 0.950 . S
H2016 C2026 0.950 . S
H2017 C2028 0.950 . S
H2018 C2030 0.950 . S
H2019 C2031 0.950 . S
C2020 H2012 0.950 . S
C2020 C2021 1.386 . S
C2020 C2022 1.391 . S
C2021 C2020 1.386 . S
C2021 C2025 1.393 . S
C2022 H2014 0.950 . S
C2022 C2020 1.391 . S
C2022 C2023 1.400 . S
C2023 C2022 1.400 . S
C2023 C2024 1.398 . S
C2023 C2029 1.491 . S
C2024 H2015 0.950 . S
C2024 C2023 1.398 . S
C2024 C2025 1.391 . S
C2025 H2013 0.950 . S
C2025 C2021 1.393 . S
C2025 C2024 1.391 . S
C2026 H2016 0.950 . S
C2026 C2027 1.386 . S
C2026 C2028 1.391 . S
C2027 C2026 1.386 . S
C2027 C2031 1.393 . S
C2028 H2017 0.950 . S
C2028 C2026 1.391 . S
C2028 C2029 1.400 . S
C2029 C2023 1.491 . S
C2029 C2028 1.400 . S
C2029 C2030 1.398 . S
C2030 H2018 0.950 . S
C2030 C2029 1.398 . S
C2030 C2031 1.391 . S
C2031 H2019 0.950 . S
C2031 C2027 1.393 . S
C2031 C2030 1.391 . S
H2032 C2040 0.950 . S
H2033 C2045 0.950 . S
H2034 C2042 0.950 . S
H2035 C2044 0.950 . S
H2036 C2046 0.950 . S
H2037 C2048 0.950 . S
H2038 C2050 0.950 . S
H2039 C2051 0.950 . S
C2040 H2032 0.950 . S
C2040 C2041 1.386 . S
C2040 C2042 1.391 . S
C2041 C2040 1.386 . S
C2041 C2045 1.393 . S
C2042 H2034 0.950 . S
C2042 C2040 1.391 . S
C2042 C2043 1.400 . S
C2043 C2042 1.400 . S
C2043 C2044 1.398 . S
C2043 C2049 1.491 . S
C2044 H2035 0.950 . S
C2044 C2043 1.398 . S
C2044 C2045 1.391 . S
C2045 H2033 0.950 . S
C2045 C2041 1.393 . S
C2045 C2044 1.391 . S
C2046 H2036 0.950 . S
C2046 C2047 1.386 . S
C2046 C2048 1.391 . S
C2047 C2046 1.386 . S
C2047 C2051 1.393 . S
C2048 H2037 0.950 . S
C2048 C2046 1.391 . S
C2048 C2049 1.400 . S
C2049 C2043 1.491 . S
C2049 C2048 1.400 . S
C2049 C2050 1.398 . S
C2050 H2038 0.950 . S
C2050 C2049 1.398 . S
C2050 C2051 1.391 . S
C2051 H2039 0.950 . S
C2051 C2047 1.393 . S
C2051 C2050 1.391 . S
H2052 C2060 0.950 . S
H2053 C2065 0.950 . S
H2054 C2062 0.950 . S
H2055 C2064 0.950 . S
H2056 C2066 0.950 . S
H2057 C2068 0.950 . S
H2058 C2070 0.950 . S
H2059 C2071 0.950 . S
C2060 H2052 0.950 . S
C2060 C2061 1.386 . S
C2060 C2062 1.391 . S
C2061 C2060 1.386 . S
C2061 C2065 1.393 . S
C2062 H2054 0.950 . S
C2062 C2060 1.391 . S
C2062 C2063 1.400 . S
C2063 C2062 1.400 . S
C2063 C2064 1.398 . S
C2063 C2069 1.491 . S
C2064 H2055 0.950 . S
C2064 C2063 1.398 . S
C2064 C2065 1.391 . S
C2065 H2053 0.950 . S
C2065 C2061 1.393 . S
C2065 C2064 1.391 . S
C2066 H2056 0.950 . S
C2066 C2067 1.386 . S
C2066 C2068 1.391 . S
C2067 C2066 1.386 . S
C2067 C2071 1.393 . S
C2068 H2057 0.950 . S
C2068 C2066 1.391 . S
C2068 C2069 1.400 . S
C2069 C2063 1.491 . S
C2069 C2068 1.400 . S
C2069 C2070 1.398 . S
C2070 H2058 0.950 . S
C2070 C2069 1.398 . S
C2070 C2071 1.391 . S
C2071 H2059 0.950 . S
C2071 C2067 1.393 . S
C2071 C2070 1.391 . S
H2072 C2080 0.950 . S
H2073 C2085 0.950 1_655 S
H2074 C2082 0.950 . S
H2075 C2084 0.950 . S
H2076 C2086 0.950 . S
H2077 C2088 0.950 . S
H2078 C2090 0.950 . S
H2079 C2091 0.950 . S
C2080 H2072 0.950 . S
C2080 C2081 1.386 . S
C2080 C2082 1.391 . S
C2081 C2080 1.386 . S
C2081 C2085 1.393 . S
C2082 H2074 0.950 . S
C2082 C2080 1.391 . S
C2082 C2083 1.400 . S
C2083 C2082 1.400 . S
C2083 C2084 1.398 . S
C2083 C2089 1.491 . S
C2084 H2075 0.950 . S
C2084 C2083 1.398 . S
C2084 C2085 1.391 . S
C2085 H2073 0.950 1_455 S
C2085 C2081 1.393 . S
C2085 C2084 1.391 . S
C2086 H2076 0.950 . S
C2086 C2087 1.386 . S
C2086 C2088 1.391 . S
C2087 C2086 1.386 . S
C2087 C2091 1.393 . S
C2088 H2077 0.950 . S
C2088 C2086 1.391 . S
C2088 C2089 1.400 . S
C2089 C2083 1.491 . S
C2089 C2088 1.400 . S
C2089 C2090 1.398 . S
C2090 H2078 0.950 . S
C2090 C2089 1.398 . S
C2090 C2091 1.391 . S
C2091 H2079 0.950 . S
C2091 C2087 1.393 . S
C2091 C2090 1.391 . S
H2092 C2100 0.950 . S
H2093 C2105 0.950 . S
H2094 C2102 0.950 . S
H2095 C2104 0.950 . S
H2096 C2106 0.950 . S
H2097 C2108 0.950 . S
H2098 C2110 0.950 . S
H2099 C2111 0.950 . S
C2100 H2092 0.950 . S
C2100 C2101 1.386 . S
C2100 C2102 1.391 . S
C2101 C2100 1.386 . S
C2101 C2105 1.393 . S
C2102 H2094 0.950 . S
C2102 C2100 1.391 . S
C2102 C2103 1.400 . S
C2103 C2102 1.400 . S
C2103 C2104 1.398 . S
C2103 C2109 1.491 . S
C2104 H2095 0.950 . S
C2104 C2103 1.398 . S
C2104 C2105 1.391 . S
C2105 H2093 0.950 . S
C2105 C2101 1.393 . S
C2105 C2104 1.391 . S
C2106 H2096 0.950 . S
C2106 C2107 1.386 . S
C2106 C2108 1.391 . S
C2107 C2106 1.386 . S
C2107 C2111 1.393 . S
C2108 H2097 0.950 . S
C2108 C2106 1.391 . S
C2108 C2109 1.400 . S
C2109 C2103 1.491 . S
C2109 C2108 1.400 . S
C2109 C2110 1.398 . S
C2110 H2098 0.950 . S
C2110 C2109 1.398 . S
C2110 C2111 1.391 . S
C2111 H2099 0.950 . S
C2111 C2107 1.393 . S
C2111 C2110 1.391 . S
H2112 C2120 0.950 . S
H2113 C2125 0.950 . S
H2114 C2122 0.950 . S
H2115 C2124 0.950 . S
H2116 C2126 0.950 . S
H2117 C2128 0.950 . S
H2118 C2130 0.950 . S
H2119 C2131 0.950 . S
C2120 H2112 0.950 . S
C2120 C2121 1.386 . S
C2120 C2122 1.391 . S
C2121 C2120 1.386 . S
C2121 C2125 1.393 . S
C2122 H2114 0.950 . S
C2122 C2120 1.391 . S
C2122 C2123 1.400 . S
C2123 C2122 1.400 . S
C2123 C2124 1.398 . S
C2123 C2129 1.491 . S
C2124 H2115 0.950 . S
C2124 C2123 1.398 . S
C2124 C2125 1.391 . S
C2125 H2113 0.950 . S
C2125 C2121 1.393 . S
C2125 C2124 1.391 . S
C2126 H2116 0.950 . S
C2126 C2127 1.386 . S
C2126 C2128 1.391 . S
C2127 C2126 1.386 . S
C2127 C2131 1.393 . S
C2128 H2117 0.950 . S
C2128 C2126 1.391 . S
C2128 C2129 1.400 . S
C2129 C2123 1.491 . S
C2129 C2128 1.400 . S
C2129 C2130 1.398 . S
C2130 H2118 0.950 . S
C2130 C2129 1.398 . S
C2130 C2131 1.391 . S
C2131 H2119 0.950 . S
C2131 C2127 1.393 . S
C2131 C2130 1.391 . S
H2132 C2140 0.950 . S
H2133 C2145 0.950 . S
H2134 C2142 0.950 . S
H2135 C2144 0.950 . S
H2136 C2146 0.950 . S
H2137 C2148 0.950 . S
H2138 C2150 0.950 . S
H2139 C2151 0.950 . S
C2140 H2132 0.950 . S
C2140 C2141 1.386 . S
C2140 C2142 1.391 . S
C2141 C2140 1.386 . S
C2141 C2145 1.393 . S
C2142 H2134 0.950 . S
C2142 C2140 1.391 . S
C2142 C2143 1.400 . S
C2143 C2142 1.400 . S
C2143 C2144 1.398 . S
C2143 C2149 1.491 . S
C2144 H2135 0.950 . S
C2144 C2143 1.398 . S
C2144 C2145 1.391 . S
C2145 H2133 0.950 . S
C2145 C2141 1.393 . S
C2145 C2144 1.391 . S
C2146 H2136 0.950 . S
C2146 C2147 1.386 . S
C2146 C2148 1.391 . S
C2147 C2146 1.386 . S
C2147 C2151 1.393 . S
C2148 H2137 0.950 . S
C2148 C2146 1.391 . S
C2148 C2149 1.400 . S
C2149 C2143 1.491 . S
C2149 C2148 1.400 . S
C2149 C2150 1.398 . S
C2150 H2138 0.950 . S
C2150 C2149 1.398 . S
C2150 C2151 1.391 . S
C2151 H2139 0.950 . S
C2151 C2147 1.393 . S
C2151 C2150 1.391 . S
H2152 C2160 0.950 . S
H2153 C2165 0.950 . S
H2154 C2162 0.950 . S
H2155 C2164 0.950 . S
H2156 C2166 0.950 . S
H2157 C2168 0.950 . S
H2158 C2170 0.950 . S
H2159 C2171 0.950 . S
C2160 H2152 0.950 . S
C2160 C2161 1.386 . S
C2160 C2162 1.391 . S
C2161 C2160 1.386 . S
C2161 C2165 1.393 . S
C2162 H2154 0.950 . S
C2162 C2160 1.391 . S
C2162 C2163 1.400 . S
C2163 C2162 1.400 . S
C2163 C2164 1.398 . S
C2163 C2169 1.491 . S
C2164 H2155 0.950 . S
C2164 C2163 1.398 . S
C2164 C2165 1.391 . S
C2165 H2153 0.950 . S
C2165 C2161 1.393 . S
C2165 C2164 1.391 . S
C2166 H2156 0.950 . S
C2166 C2167 1.386 . S
C2166 C2168 1.391 . S
C2167 C2166 1.386 . S
C2167 C2171 1.393 . S
C2168 H2157 0.950 . S
C2168 C2166 1.391 . S
C2168 C2169 1.400 . S
C2169 C2163 1.491 . S
C2169 C2168 1.400 . S
C2169 C2170 1.398 . S
C2170 H2158 0.950 . S
C2170 C2169 1.398 . S
C2170 C2171 1.391 . S
C2171 H2159 0.950 . S
C2171 C2167 1.393 . S
C2171 C2170 1.391 . S
H2172 C2180 0.950 . S
H2173 C2185 0.950 . S
H2174 C2182 0.950 . S
H2175 C2184 0.950 . S
H2176 C2186 0.950 . S
H2177 C2188 0.950 . S
H2178 C2190 0.950 . S
H2179 C2191 0.950 . S
C2180 H2172 0.950 . S
C2180 C2181 1.386 . S
C2180 C2182 1.391 . S
C2181 C2180 1.386 . S
C2181 C2185 1.393 . S
C2182 H2174 0.950 . S
C2182 C2180 1.391 . S
C2182 C2183 1.400 . S
C2183 C2182 1.400 . S
C2183 C2184 1.398 . S
C2183 C2189 1.491 . S
C2184 H2175 0.950 . S
C2184 C2183 1.398 . S
C2184 C2185 1.391 . S
C2185 H2173 0.950 . S
C2185 C2181 1.393 . S
C2185 C2184 1.391 . S
C2186 H2176 0.950 . S
C2186 C2187 1.386 . S
C2186 C2188 1.391 . S
C2187 C2186 1.386 . S
C2187 C2191 1.393 . S
C2188 H2177 0.950 . S
C2188 C2186 1.391 . S
C2188 C2189 1.400 . S
C2189 C2183 1.491 . S
C2189 C2188 1.400 . S
C2189 C2190 1.398 . S
C2190 H2178 0.950 . S
C2190 C2189 1.398 . S
C2190 C2191 1.391 . S
C2191 H2179 0.950 . S
C2191 C2187 1.393 . S
C2191 C2190 1.391 . S
H2192 C2200 0.950 . S
H2193 C2205 0.950 . S
H2194 C2202 0.950 . S
H2195 C2204 0.950 . S
H2196 C2206 0.950 . S
H2197 C2208 0.950 . S
H2198 C2210 0.950 . S
H2199 C2211 0.950 . S
C2200 H2192 0.950 . S
C2200 C2201 1.386 . S
C2200 C2202 1.391 . S
C2201 C2200 1.386 . S
C2201 C2205 1.393 . S
C2202 H2194 0.950 . S
C2202 C2200 1.391 . S
C2202 C2203 1.400 . S
C2203 C2202 1.400 . S
C2203 C2204 1.398 . S
C2203 C2209 1.491 . S
C2204 H2195 0.950 . S
C2204 C2203 1.398 . S
C2204 C2205 1.391 . S
C2205 H2193 0.950 . S
C2205 C2201 1.393 . S
C2205 C2204 1.391 . S
C2206 H2196 0.950 . S
C2206 C2207 1.386 . S
C2206 C2208 1.391 . S
C2207 C2206 1.386 . S
C2207 C2211 1.393 . S
C2208 H2197 0.950 . S
C2208 C2206 1.391 . S
C2208 C2209 1.400 . S
C2209 C2203 1.491 . S
C2209 C2208 1.400 . S
C2209 C2210 1.398 . S
C2210 H2198 0.950 . S
C2210 C2209 1.398 . S
C2210 C2211 1.391 . S
C2211 H2199 0.950 . S
C2211 C2207 1.393 . S
C2211 C2210 1.391 . S
H2212 C2220 0.950 . S
H2213 C2225 0.950 . S
H2214 C2222 0.950 . S
H2215 C2224 0.950 . S
H2216 C2226 0.950 . S
H2217 C2228 0.950 . S
H2218 C2230 0.950 . S
H2219 C2231 0.950 . S
C2220 H2212 0.950 . S
C2220 C2221 1.386 . S
C2220 C2222 1.391 . S
C2221 C2220 1.386 . S
C2221 C2225 1.393 . S
C2222 H2214 0.950 . S
C2222 C2220 1.391 . S
C2222 C2223 1.400 . S
C2223 C2222 1.400 . S
C2223 C2224 1.398 . S
C2223 C2229 1.491 . S
C2224 H2215 0.950 . S
C2224 C2223 1.398 . S
C2224 C2225 1.391 . S
C2225 H2213 0.950 . S
C2225 C2221 1.393 . S
C2225 C2224 1.391 . S
C2226 H2216 0.950 . S
C2226 C2227 1.386 . S
C2226 C2228 1.391 . S
C2227 C2226 1.386 . S
C2227 C2231 1.393 . S
C2228 H2217 0.950 . S
C2228 C2226 1.391 . S
C2228 C2229 1.400 . S
C2229 C2223 1.491 . S
C2229 C2228 1.400 . S
C2229 C2230 1.398 . S
C2230 H2218 0.950 . S
C2230 C2229 1.398 . S
C2230 C2231 1.391 . S
C2231 H2219 0.950 . S
C2231 C2227 1.393 . S
C2231 C2230 1.391 . S
H2232 C2240 0.950 . S
H2233 C2245 0.950 . S
H2234 C2242 0.950 . S
H2235 C2244 0.950 . S
H2236 C2246 0.950 . S
H2237 C2248 0.950 . S
H2238 C2250 0.950 . S
H2239 C2251 0.950 . S
C2240 H2232 0.950 . S
C2240 C2241 1.386 . S
C2240 C2242 1.391 . S
C2241 C2240 1.386 . S
C2241 C2245 1.393 . S
C2242 H2234 0.950 . S
C2242 C2240 1.391 . S
C2242 C2243 1.400 . S
C2243 C2242 1.400 . S
C2243 C2244 1.398 . S
C2243 C2249 1.491 . S
C2244 H2235 0.950 . S
C2244 C2243 1.398 . S
C2244 C2245 1.391 . S
C2245 H2233 0.950 . S
C2245 C2241 1.393 . S
C2245 C2244 1.391 . S
C2246 H2236 0.950 . S
C2246 C2247 1.386 . S
C2246 C2248 1.391 . S
C2247 C2246 1.386 . S
C2247 C2251 1.393 . S
C2248 H2237 0.950 . S
C2248 C2246 1.391 . S
C2248 C2249 1.400 . S
C2249 C2243 1.491 . S
C2249 C2248 1.400 . S
C2249 C2250 1.398 . S
C2250 H2238 0.950 . S
C2250 C2249 1.398 . S
C2250 C2251 1.391 . S
C2251 H2239 0.950 . S
C2251 C2247 1.393 . S
C2251 C2250 1.391 . S
H2252 C2260 0.950 . S
H2253 C2265 0.950 . S
H2254 C2262 0.950 . S
H2255 C2264 0.950 . S
H2256 C2266 0.950 . S
H2257 C2268 0.950 . S
H2258 C2270 0.950 . S
H2259 C2271 0.950 . S
C2260 H2252 0.950 . S
C2260 C2261 1.386 . S
C2260 C2262 1.391 . S
C2261 C2260 1.386 . S
C2261 C2265 1.393 . S
C2262 H2254 0.950 . S
C2262 C2260 1.391 . S
C2262 C2263 1.400 . S
C2263 C2262 1.400 . S
C2263 C2264 1.398 . S
C2263 C2269 1.491 . S
C2264 H2255 0.950 . S
C2264 C2263 1.398 . S
C2264 C2265 1.391 . S
C2265 H2253 0.950 . S
C2265 C2261 1.393 . S
C2265 C2264 1.391 . S
C2266 H2256 0.950 . S
C2266 C2267 1.386 . S
C2266 C2268 1.391 . S
C2267 C2266 1.386 . S
C2267 C2271 1.393 . S
C2268 H2257 0.950 . S
C2268 C2266 1.391 . S
C2268 C2269 1.400 . S
C2269 C2263 1.491 . S
C2269 C2268 1.400 . S
C2269 C2270 1.398 . S
C2270 H2258 0.950 . S
C2270 C2269 1.398 . S
C2270 C2271 1.391 . S
C2271 H2259 0.950 . S
C2271 C2267 1.393 . S
C2271 C2270 1.391 . S
H2272 C2280 0.950 . S
H2273 C2285 0.950 . S
H2274 C2282 0.950 . S
H2275 C2284 0.950 . S
H2276 C2286 0.950 . S
H2277 C2288 0.950 . S
H2278 C2290 0.950 . S
H2279 C2291 0.950 . S
C2280 H2272 0.950 . S
C2280 C2281 1.386 . S
C2280 C2282 1.391 . S
C2281 C2280 1.386 . S
C2281 C2285 1.393 . S
C2282 H2274 0.950 . S
C2282 C2280 1.391 . S
C2282 C2283 1.400 . S
C2283 C2282 1.400 . S
C2283 C2284 1.398 . S
C2283 C2289 1.491 . S
C2284 H2275 0.950 . S
C2284 C2283 1.398 . S
C2284 C2285 1.391 . S
C2285 H2273 0.950 . S
C2285 C2281 1.393 . S
C2285 C2284 1.391 . S
C2286 H2276 0.950 . S
C2286 C2287 1.386 . S
C2286 C2288 1.391 . S
C2287 C2286 1.386 . S
C2287 C2291 1.393 . S
C2288 H2277 0.950 . S
C2288 C2286 1.391 . S
C2288 C2289 1.400 . S
C2289 C2283 1.491 . S
C2289 C2288 1.400 . S
C2289 C2290 1.398 . S
C2290 H2278 0.950 . S
C2290 C2289 1.398 . S
C2290 C2291 1.391 . S
C2291 H2279 0.950 . S
C2291 C2287 1.393 . S
C2291 C2290 1.391 . S
H2292 C2300 0.950 . S
H2293 C2305 0.950 . S
H2294 C2302 0.950 . S
H2295 C2304 0.950 . S
H2296 C2306 0.950 . S
H2297 C2308 0.950 . S
H2298 C2310 0.950 . S
H2299 C2311 0.950 . S
C2300 H2292 0.950 . S
C2300 C2301 1.386 . S
C2300 C2302 1.391 . S
C2301 C2300 1.386 . S
C2301 C2305 1.393 . S
C2302 H2294 0.950 . S
C2302 C2300 1.391 . S
C2302 C2303 1.400 . S
C2303 C2302 1.400 . S
C2303 C2304 1.398 . S
C2303 C2309 1.491 . S
C2304 H2295 0.950 . S
C2304 C2303 1.398 . S
C2304 C2305 1.391 . S
C2305 H2293 0.950 . S
C2305 C2301 1.393 . S
C2305 C2304 1.391 . S
C2306 H2296 0.950 . S
C2306 C2307 1.386 . S
C2306 C2308 1.391 . S
C2307 C2306 1.386 . S
C2307 C2311 1.393 . S
C2308 H2297 0.950 . S
C2308 C2306 1.391 . S
C2308 C2309 1.400 . S
C2309 C2303 1.491 . S
C2309 C2308 1.400 . S
C2309 C2310 1.398 . S
C2310 H2298 0.950 . S
C2310 C2309 1.398 . S
C2310 C2311 1.391 . S
C2311 H2299 0.950 . S
C2311 C2307 1.393 . S
C2311 C2310 1.391 . S
H2312 C2320 0.950 . S
H2313 C2325 0.950 . S
H2314 C2322 0.950 . S
H2315 C2324 0.950 . S
H2316 C2326 0.950 . S
H2317 C2328 0.950 . S
H2318 C2330 0.950 . S
H2319 C2331 0.950 . S
C2320 H2312 0.950 . S
C2320 C2321 1.386 . S
C2320 C2322 1.391 . S
C2321 C2320 1.386 . S
C2321 C2325 1.393 . S
C2322 H2314 0.950 . S
C2322 C2320 1.391 . S
C2322 C2323 1.400 . S
C2323 C2322 1.400 . S
C2323 C2324 1.398 . S
C2323 C2329 1.491 . S
C2324 H2315 0.950 . S
C2324 C2323 1.398 . S
C2324 C2325 1.391 . S
C2325 H2313 0.950 . S
C2325 C2321 1.393 . S
C2325 C2324 1.391 . S
C2326 H2316 0.950 . S
C2326 C2327 1.386 . S
C2326 C2328 1.391 . S
C2327 C2326 1.386 . S
C2327 C2331 1.393 . S
C2328 H2317 0.950 . S
C2328 C2326 1.391 . S
C2328 C2329 1.400 . S
C2329 C2323 1.491 . S
C2329 C2328 1.400 . S
C2329 C2330 1.398 . S
C2330 H2318 0.950 . S
C2330 C2329 1.398 . S
C2330 C2331 1.391 . S
C2331 H2319 0.950 . S
C2331 C2327 1.393 . S
C2331 C2330 1.391 . S
H2332 C2340 0.950 . S
H2333 C2345 0.950 . S
H2334 C2342 0.950 . S
H2335 C2344 0.950 . S
H2336 C2346 0.950 . S
H2337 C2348 0.950 . S
H2338 C2350 0.950 . S
H2339 C2351 0.950 . S
C2340 H2332 0.950 . S
C2340 C2341 1.386 . S
C2340 C2342 1.391 . S
C2341 C2340 1.386 . S
C2341 C2345 1.393 . S
C2342 H2334 0.950 . S
C2342 C2340 1.391 . S
C2342 C2343 1.400 . S
C2343 C2342 1.400 . S
C2343 C2344 1.398 . S
C2343 C2349 1.491 . S
C2344 H2335 0.950 . S
C2344 C2343 1.398 . S
C2344 C2345 1.391 . S
C2345 H2333 0.950 . S
C2345 C2341 1.393 . S
C2345 C2344 1.391 . S
C2346 H2336 0.950 . S
C2346 C2347 1.386 . S
C2346 C2348 1.391 . S
C2347 C2346 1.386 . S
C2347 C2351 1.393 . S
C2348 H2337 0.950 . S
C2348 C2346 1.391 . S
C2348 C2349 1.400 . S
C2349 C2343 1.491 . S
C2349 C2348 1.400 . S
C2349 C2350 1.398 . S
C2350 H2338 0.950 . S
C2350 C2349 1.398 . S
C2350 C2351 1.391 . S
C2351 H2339 0.950 . S
C2351 C2347 1.393 . S
C2351 C2350 1.391 . S
H2352 C2360 0.950 . S
H2353 C2365 0.950 . S
H2354 C2362 0.950 . S
H2355 C2364 0.950 . S
H2356 C2366 0.950 . S
H2357 C2368 0.950 . S
H2358 C2370 0.950 . S
H2359 C2371 0.950 . S
C2360 H2352 0.950 . S
C2360 C2361 1.386 . S
C2360 C2362 1.391 . S
C2361 C2360 1.386 . S
C2361 C2365 1.393 . S
C2362 H2354 0.950 . S
C2362 C2360 1.391 . S
C2362 C2363 1.400 . S
C2363 C2362 1.400 . S
C2363 C2364 1.398 . S
C2363 C2369 1.491 . S
C2364 H2355 0.950 . S
C2364 C2363 1.398 . S
C2364 C2365 1.391 . S
C2365 H2353 0.950 . S
C2365 C2361 1.393 . S
C2365 C2364 1.391 . S
C2366 H2356 0.950 . S
C2366 C2367 1.386 . S
C2366 C2368 1.391 . S
C2367 C2366 1.386 . S
C2367 C2371 1.393 . S
C2368 H2357 0.950 . S
C2368 C2366 1.391 . S
C2368 C2369 1.400 . S
C2369 C2363 1.491 . S
C2369 C2368 1.400 . S
C2369 C2370 1.398 . S
C2370 H2358 0.950 . S
C2370 C2369 1.398 . S
C2370 C2371 1.391 . S
C2371 H2359 0.950 . S
C2371 C2367 1.393 . S
C2371 C2370 1.391 . S
H2372 C2380 0.950 . S
H2373 C2385 0.950 . S
H2374 C2382 0.950 . S
H2375 C2384 0.950 . S
H2376 C2386 0.950 . S
H2377 C2388 0.950 . S
H2378 C2390 0.950 . S
H2379 C2391 0.950 . S
C2380 H2372 0.950 . S
C2380 C2381 1.386 . S
C2380 C2382 1.391 . S
C2381 C2380 1.386 . S
C2381 C2385 1.393 . S
C2382 H2374 0.950 . S
C2382 C2380 1.391 . S
C2382 C2383 1.400 . S
C2383 C2382 1.400 . S
C2383 C2384 1.398 . S
C2383 C2389 1.491 . S
C2384 H2375 0.950 . S
C2384 C2383 1.398 . S
C2384 C2385 1.391 . S
C2385 H2373 0.950 . S
C2385 C2381 1.393 . S
C2385 C2384 1.391 . S
C2386 H2376 0.950 . S
C2386 C2387 1.386 . S
C2386 C2388 1.391 . S
C2387 C2386 1.386 . S
C2387 C2391 1.393 . S
C2388 H2377 0.950 . S
C2388 C2386 1.391 . S
C2388 C2389 1.400 . S
C2389 C2383 1.491 . S
C2389 C2388 1.400 . S
C2389 C2390 1.398 . S
C2390 H2378 0.950 . S
C2390 C2389 1.398 . S
C2390 C2391 1.391 . S
C2391 H2379 0.950 . S
C2391 C2387 1.393 . S
C2391 C2390 1.391 . S
H2392 C2400 0.950 . S
H2393 C2405 0.950 . S
H2394 C2402 0.950 . S
H2395 C2404 0.950 . S
H2396 C2406 0.950 . S
H2397 C2408 0.950 . S
H2398 C2410 0.950 . S
H2399 C2411 0.950 . S
C2400 H2392 0.950 . S
C2400 C2401 1.386 . S
C2400 C2402 1.391 . S
C2401 C2400 1.386 . S
C2401 C2405 1.393 . S
C2402 H2394 0.950 . S
C2402 C2400 1.391 . S
C2402 C2403 1.400 . S
C2403 C2402 1.400 . S
C2403 C2404 1.398 . S
C2403 C2409 1.491 . S
C2404 H2395 0.950 . S
C2404 C2403 1.398 . S
C2404 C2405 1.391 . S
C2405 H2393 0.950 . S
C2405 C2401 1.393 . S
C2405 C2404 1.391 . S
C2406 H2396 0.950 . S
C2406 C2407 1.386 . S
C2406 C2408 1.391 . S
C2407 C2406 1.386 . S
C2407 C2411 1.393 . S
C2408 H2397 0.950 . S
C2408 C2406 1.391 . S
C2408 C2409 1.400 . S
C2409 C2403 1.491 . S
C2409 C2408 1.400 . S
C2409 C2410 1.398 . S
C2410 H2398 0.950 . S
C2410 C2409 1.398 . S
C2410 C2411 1.391 . S
C2411 H2399 0.950 . S
C2411 C2407 1.393 . S
C2411 C2410 1.391 . S
H2412 C2420 0.950 . S
H2413 C2425 0.950 . S
H2414 C2422 0.950 . S
H2415 C2424 0.950 . S
H2416 C2426 0.950 . S
H2417 C2428 0.950 . S
H2418 C2430 0.950 . S
H2419 C2431 0.950 . S
C2420 H2412 0.950 . S
C2420 C2421 1.386 . S
C2420 C2422 1.391 . S
C2421 C2420 1.386 . S
C2421 C2425 1.393 . S
C2422 H2414 0.950 . S
C2422 C2420 1.391 . S
C2422 C2423 1.400 . S
C2423 C2422 1.400 . S
C2423 C2424 1.398 . S
C2423 C2429 1.491 . S
C2424 H2415 0.950 . S
C2424 C2423 1.398 . S
C2424 C2425 1.391 . S
C2425 H2413 0.950 . S
C2425 C2421 1.393 . S
C2425 C2424 1.391 . S
C2426 H2416 0.950 . S
C2426 C2427 1.386 . S
C2426 C2428 1.391 . S
C2427 C2426 1.386 . S
C2427 C2431 1.393 . S
C2428 H2417 0.950 . S
C2428 C2426 1.391 . S
C2428 C2429 1.400 . S
C2429 C2423 1.491 . S
C2429 C2428 1.400 . S
C2429 C2430 1.398 . S
C2430 H2418 0.950 . S
C2430 C2429 1.398 . S
C2430 C2431 1.391 . S
C2431 H2419 0.950 . S
C2431 C2427 1.393 . S
C2431 C2430 1.391 . S
H2432 C2440 0.950 . S
H2433 C2445 0.950 . S
H2434 C2442 0.950 . S
H2435 C2444 0.950 . S
H2436 C2446 0.950 . S
H2437 C2448 0.950 . S
H2438 C2450 0.950 . S
H2439 C2451 0.950 . S
C2440 H2432 0.950 . S
C2440 C2441 1.386 . S
C2440 C2442 1.391 . S
C2441 C2440 1.386 . S
C2441 C2445 1.393 . S
C2442 H2434 0.950 . S
C2442 C2440 1.391 . S
C2442 C2443 1.400 . S
C2443 C2442 1.400 . S
C2443 C2444 1.398 . S
C2443 C2449 1.491 . S
C2444 H2435 0.950 . S
C2444 C2443 1.398 . S
C2444 C2445 1.391 . S
C2445 H2433 0.950 . S
C2445 C2441 1.393 . S
C2445 C2444 1.391 . S
C2446 H2436 0.950 . S
C2446 C2447 1.386 . S
C2446 C2448 1.391 . S
C2447 C2446 1.386 . S
C2447 C2451 1.393 . S
C2448 H2437 0.950 . S
C2448 C2446 1.391 . S
C2448 C2449 1.400 . S
C2449 C2443 1.491 . S
C2449 C2448 1.400 . S
C2449 C2450 1.398 . S
C2450 H2438 0.950 . S
C2450 C2449 1.398 . S
C2450 C2451 1.391 . S
C2451 H2439 0.950 . S
C2451 C2447 1.393 . S
C2451 C2450 1.391 . S
H2452 C2460 0.950 . S
H2453 C2465 0.950 . S
H2454 C2462 0.950 . S
H2455 C2464 0.950 . S
H2456 C2466 0.950 . S
H2457 C2468 0.950 . S
H2458 C2470 0.950 . S
H2459 C2471 0.950 . S
C2460 H2452 0.950 . S
C2460 C2461 1.386 . S
C2460 C2462 1.391 . S
C2461 C2460 1.386 . S
C2461 C2465 1.393 . S
C2462 H2454 0.950 . S
C2462 C2460 1.391 . S
C2462 C2463 1.400 . S
C2463 C2462 1.400 . S
C2463 C2464 1.398 . S
C2463 C2469 1.491 . S
C2464 H2455 0.950 . S
C2464 C2463 1.398 . S
C2464 C2465 1.391 . S
C2465 H2453 0.950 . S
C2465 C2461 1.393 . S
C2465 C2464 1.391 . S
C2466 H2456 0.950 . S
C2466 C2467 1.386 . S
C2466 C2468 1.391 . S
C2467 C2466 1.386 . S
C2467 C2471 1.393 . S
C2468 H2457 0.950 . S
C2468 C2466 1.391 . S
C2468 C2469 1.400 . S
C2469 C2463 1.491 . S
C2469 C2468 1.400 . S
C2469 C2470 1.398 . S
C2470 H2458 0.950 . S
C2470 C2469 1.398 . S
C2470 C2471 1.391 . S
C2471 H2459 0.950 . S
C2471 C2467 1.393 . S
C2471 C2470 1.391 . S
H2472 C2480 0.950 . S
H2473 C2485 0.950 . S
H2474 C2482 0.950 . S
H2475 C2484 0.950 . S
H2476 C2486 0.950 . S
H2477 C2488 0.950 . S
H2478 C2490 0.950 . S
H2479 C2491 0.950 . S
C2480 H2472 0.950 . S
C2480 C2481 1.386 . S
C2480 C2482 1.391 . S
C2481 C2480 1.386 . S
C2481 C2485 1.393 . S
C2482 H2474 0.950 . S
C2482 C2480 1.391 . S
C2482 C2483 1.400 . S
C2483 C2482 1.400 . S
C2483 C2484 1.398 . S
C2483 C2489 1.491 . S
C2484 H2475 0.950 . S
C2484 C2483 1.398 . S
C2484 C2485 1.391 . S
C2485 H2473 0.950 . S
C2485 C2481 1.393 . S
C2485 C2484 1.391 . S
C2486 H2476 0.950 . S
C2486 C2487 1.386 . S
C2486 C2488 1.391 . S
C2487 C2486 1.386 . S
C2487 C2491 1.393 . S
C2488 H2477 0.950 . S
C2488 C2486 1.391 . S
C2488 C2489 1.400 . S
C2489 C2483 1.491 . S
C2489 C2488 1.400 . S
C2489 C2490 1.398 . S
C2490 H2478 0.950 . S
C2490 C2489 1.398 . S
C2490 C2491 1.391 . S
C2491 H2479 0.950 . S
C2491 C2487 1.393 . S
C2491 C2490 1.391 . S
H2492 C2500 0.950 . S
H2493 C2505 0.950 . S
H2494 C2502 0.950 . S
H2495 C2504 0.950 . S
H2496 C2506 0.950 . S
H2497 C2508 0.950 . S
H2498 C2510 0.950 . S
H2499 C2511 0.950 . S
C2500 H2492 0.950 . S
C2500 C2501 1.386 . S
C2500 C2502 1.391 . S
C2501 C2500 1.386 . S
C2501 C2505 1.393 . S
C2502 H2494 0.950 . S
C2502 C2500 1.391 . S
C2502 C2503 1.400 . S
C2503 C2502 1.400 . S
C2503 C2504 1.398 . S
C2503 C2509 1.491 . S
C2504 H2495 0.950 . S
C2504 C2503 1.398 . S
C2504 C2505 1.391 . S
C2505 H2493 0.950 . S
C2505 C2501 1.393 . S
C2505 C2504 1.391 . S
C2506 H2496 0.950 . S
C2506 C2507 1.386 . S
C2506 C2508 1.391 . S
C2507 C2506 1.386 . S
C2507 C2511 1.393 . S
C2508 H2497 0.950 . S
C2508 C2506 1.391 . S
C2508 C2509 1.400 . S
C2509 C2503 1.491 . S
C2509 C2508 1.400 . S
C2509 C2510 1.398 . S
C2510 H2498 0.950 . S
C2510 C2509 1.398 . S
C2510 C2511 1.391 . S
C2511 H2499 0.950 . S
C2511 C2507 1.393 . S
C2511 C2510 1.391 . S
H2512 C2520 0.950 . S
H2513 C2525 0.950 . S
H2514 C2522 0.950 . S
H2515 C2524 0.950 . S
H2516 C2526 0.950 . S
H2517 C2528 0.950 . S
H2518 C2530 0.950 . S
H2519 C2531 0.950 . S
C2520 H2512 0.950 . S
C2520 C2521 1.386 . S
C2520 C2522 1.391 . S
C2521 C2520 1.386 . S
C2521 C2525 1.393 . S
C2522 H2514 0.950 . S
C2522 C2520 1.391 . S
C2522 C2523 1.400 . S
C2523 C2522 1.400 . S
C2523 C2524 1.398 . S
C2523 C2529 1.491 . S
C2524 H2515 0.950 . S
C2524 C2523 1.398 . S
C2524 C2525 1.391 . S
C2525 H2513 0.950 . S
C2525 C2521 1.393 . S
C2525 C2524 1.391 . S
C2526 H2516 0.950 . S
C2526 C2527 1.386 . S
C2526 C2528 1.391 . S
C2527 C2526 1.386 . S
C2527 C2531 1.393 . S
C2528 H2517 0.950 . S
C2528 C2526 1.391 . S
C2528 C2529 1.400 . S
C2529 C2523 1.491 . S
C2529 C2528 1.400 . S
C2529 C2530 1.398 . S
C2530 H2518 0.950 . S
C2530 C2529 1.398 . S
C2530 C2531 1.391 . S
C2531 H2519 0.950 . S
C2531 C2527 1.393 . S
C2531 C2530 1.391 . S
H2532 C2540 0.950 . S
H2533 C2545 0.950 . S
H2534 C2542 0.950 . S
H2535 C2544 0.950 . S
H2536 C2546 0.950 . S
H2537 C2548 0.950 . S
H2538 C2550 0.950 . S
H2539 C2551 0.950 . S
C2540 H2532 0.950 . S
C2540 C2541 1.386 . S
C2540 C2542 1.391 . S
C2541 C2540 1.386 . S
C2541 C2545 1.393 . S
C2542 H2534 0.950 . S
C2542 C2540 1.391 . S
C2542 C2543 1.400 . S
C2543 C2542 1.400 . S
C2543 C2544 1.398 . S
C2543 C2549 1.491 . S
C2544 H2535 0.950 . S
C2544 C2543 1.398 . S
C2544 C2545 1.391 . S
C2545 H2533 0.950 . S
C2545 C2541 1.393 . S
C2545 C2544 1.391 . S
C2546 H2536 0.950 . S
C2546 C2547 1.386 . S
C2546 C2548 1.391 . S
C2547 C2546 1.386 . S
C2547 C2551 1.393 . S
C2548 H2537 0.950 . S
C2548 C2546 1.391 . S
C2548 C2549 1.400 . S
C2549 C2543 1.491 . S
C2549 C2548 1.400 . S
C2549 C2550 1.398 . S
C2550 H2538 0.950 . S
C2550 C2549 1.398 . S
C2550 C2551 1.391 . S
C2551 H2539 0.950 . S
C2551 C2547 1.393 . S
C2551 C2550 1.391 . S
H2552 C2560 0.950 . S
H2553 C2565 0.950 . S
H2554 C2562 0.950 . S
H2555 C2564 0.950 . S
H2556 C2566 0.950 . S
H2557 C2568 0.950 . S
H2558 C2570 0.950 . S
H2559 C2571 0.950 . S
C2560 H2552 0.950 . S
C2560 C2561 1.386 . S
C2560 C2562 1.391 . S
C2561 C2560 1.386 . S
C2561 C2565 1.393 . S
C2562 H2554 0.950 . S
C2562 C2560 1.391 . S
C2562 C2563 1.400 . S
C2563 C2562 1.400 . S
C2563 C2564 1.398 . S
C2563 C2569 1.491 . S
C2564 H2555 0.950 . S
C2564 C2563 1.398 . S
C2564 C2565 1.391 . S
C2565 H2553 0.950 . S
C2565 C2561 1.393 . S
C2565 C2564 1.391 . S
C2566 H2556 0.950 . S
C2566 C2567 1.386 . S
C2566 C2568 1.391 . S
C2567 C2566 1.386 . S
C2567 C2571 1.393 . S
C2568 H2557 0.950 . S
C2568 C2566 1.391 . S
C2568 C2569 1.400 . S
C2569 C2563 1.491 . S
C2569 C2568 1.400 . S
C2569 C2570 1.398 . S
C2570 H2558 0.950 . S
C2570 C2569 1.398 . S
C2570 C2571 1.391 . S
C2571 H2559 0.950 . S
C2571 C2567 1.393 . S
C2571 C2570 1.391 . S
H2572 C2580 0.950 . S
H2573 C2585 0.950 . S
H2574 C2582 0.950 . S
H2575 C2584 0.950 . S
H2576 C2586 0.950 . S
H2577 C2588 0.950 . S
H2578 C2590 0.950 . S
H2579 C2591 0.950 . S
C2580 H2572 0.950 . S
C2580 C2581 1.386 . S
C2580 C2582 1.391 . S
C2581 C2580 1.386 . S
C2581 C2585 1.393 . S
C2582 H2574 0.950 . S
C2582 C2580 1.391 . S
C2582 C2583 1.400 . S
C2583 C2582 1.400 . S
C2583 C2584 1.398 . S
C2583 C2589 1.491 . S
C2584 H2575 0.950 . S
C2584 C2583 1.398 . S
C2584 C2585 1.391 . S
C2585 H2573 0.950 . S
C2585 C2581 1.393 . S
C2585 C2584 1.391 . S
C2586 H2576 0.950 . S
C2586 C2587 1.386 . S
C2586 C2588 1.391 . S
C2587 C2586 1.386 . S
C2587 C2591 1.393 . S
C2588 H2577 0.950 . S
C2588 C2586 1.391 . S
C2588 C2589 1.400 . S
C2589 C2583 1.491 . S
C2589 C2588 1.400 . S
C2589 C2590 1.398 . S
C2590 H2578 0.950 . S
C2590 C2589 1.398 . S
C2590 C2591 1.391 . S
C2591 H2579 0.950 . S
C2591 C2587 1.393 . S
C2591 C2590 1.391 . S
C681 C439 1.105 . S
C687 C11 1.185 . S
C701 C19 1.103 . S
C707 C403 1.191 . S
C721 C39 1.203 . S
C727 C411 1.055 . S
C741 C431 1.207 . S
C747 C47 1.063 . S
C761 C355 1.107 . S
C767 C67 1.188 . S
C781 C75 1.059 . S
C787 C375 1.208 . S
C801 C383 1.068 . S
C807 C95 1.196 . S
C821 C103 1.071 . S
C827 C347 1.195 . S
C841 C123 1.194 . S
C847 C627 1.199 . S
C861 C579 1.058 . S
C867 C137 1.208 . S
C881 C599 1.193 . S
C887 C151 1.198 . S
C901 C165 1.189 . S
C907 C607 1.089 . S
C921 C179 1.185 . S
C927 C669 1.181 . S
C941 C193 1.208 . S
C947 C635 1.059 . S
C961 C207 1.199 . S
C967 C655 1.201 . S
C981 C565 1.108 . S
C987 C221 1.187 . S
C1001 C557 1.208 . S
C1007 C229 1.056 . S
C1021 C243 1.052 . S
C1027 C473 1.208 . S
C1041 C487 1.186 . S
C1047 C263 1.182 . S
C1061 C271 1.087 . S
C1067 C501 1.199 . S
C1081 C459 1.184 . S
C1087 C291 1.181 . S
C1101 C529 1.190 . S
C1107 C299 1.084 . S
C1121 C319 1.181 . S
C1127 C543 1.184 . S
C1141 C515 1.192 . S
C1147 C333 1.197 . S
C1161 C138 1.202 . S
C1167 C12 1.210 . S
C1181 C152 1.233 . S
C1187 C18 1.211 . S
C1201 C40 1.216 . S
C1207 C166 1.209 . S
C1221 C124 1.234 . S
C1227 C46 1.214 . S
C1241 C68 1.214 . S
C1247 C222 1.214 . S
C1261 C180 1.232 . S
C1267 C74 1.204 . S
C1281 C194 1.210 . S
C1287 C96 1.216 . S
C1301 C208 1.233 . S
C1307 C102 1.212 . S
C1321 C264 1.238 . S
C1327 C228 1.214 . S
C1341 C320 1.243 . S
C1347 C242 1.228 . S
C1361 C334 1.235 . S
C1367 C270 1.209 . S
C1381 C292 1.236 . S
C1387 C298 1.211 . S
C1401 C474 1.202 . S
C1407 C348 1.208 . S
C1421 C488 1.242 . S
C1427 C354 1.224 . S
C1441 C502 1.207 . S
C1447 C376 1.202 . S
C1461 C382 1.222 . S
C1467 C460 1.241 . S
C1481 C404 1.213 . S
C1487 C558 1.204 . S
C1501 C410 1.203 . S
C1507 C516 1.231 . S
C1521 C530 1.202 . S
C1527 C432 1.209 . S
C1541 C544 1.243 . S
C1547 C438 1.225 . S
C1561 C564 1.227 . S
C1567 C600 1.243 . S
C1581 C656 1.233 . S
C1587 C578 1.205 . S
C1601 C670 1.238 . S
C1607 C606 1.222 . S
C1621 C634 1.205 . S
C1627 C628 1.231 . S
C1641 C5 1.029 . S
C1647 C256 1.182 1_554 S
C1661 C25 1.288 . S
C1667 C278 1.278 . S
C1681 C33 1.063 . S
C1687 C284 1.183 1_554 S
C1701 C250 1.271 . S
C1707 C53 1.291 . S
C1721 C61 1.056 . S
C1727 C312 1.164 1_556 S
C1741 C81 1.288 . S
C1747 C236 1.283 . S
C1761 C326 1.185 1_556 S
C1767 C89 1.058 . S
C1781 C306 1.271 . S
C1787 C109 1.290 . S
C1801 C117 1.073 . S
C1807 C130 1.204 1_455 S
C1821 C131 1.029 . S
C1827 C144 1.182 1_545 S
C1841 C145 1.122 . S
C1847 C158 1.195 1_655 S
C1861 C116 1.175 1_565 S
C1867 C159 1.079 . S
C1881 C214 1.213 1_455 S
C1887 C173 1.066 . S
C1901 C172 1.187 1_545 S
C1907 C187 1.041 . S
C1921 C186 1.195 1_655 S
C1927 C201 1.088 . S
C1941 C215 1.058 . S
C1947 C200 1.164 1_565 S
C1961 C54 1.271 . S
C1967 C235 1.305 . S
C1981 C82 1.289 . S
C1987 C249 1.290 . S
C2001 C88 1.188 1_455 S
C2007 C257 1.119 . S
C2021 C277 1.293 . S
C2027 C110 1.292 . S
C2041 C60 1.213 1_655 S
C2047 C285 1.066 . S
C2061 C26 1.267 . S
C2067 C305 1.299 . S
C2081 C32 1.217 1_455 S
C2087 C313 1.078 . S
C2101 C4 1.215 1_655 S
C2107 C327 1.067 . S
C2121 C592 1.187 . S
C2127 C341 1.039 . S
C2141 C361 1.295 . S
C2147 C614 1.267 . S
C2161 C620 1.184 . S
C2167 C369 1.061 . S
C2181 C586 1.289 . S
C2187 C389 1.290 . S
C2201 C397 1.035 . S
C2207 C648 1.187 . S
C2221 C417 1.303 . S
C2227 C572 1.269 . S
C2241 C662 1.160 . S
C2247 C425 1.077 . S
C2261 C445 1.307 . S
C2267 C642 1.278 . S
C2281 C453 1.115 . S
C2287 C466 1.202 . S
C2301 C467 1.083 . S
C2307 C480 1.173 . S
C2321 C481 1.067 . S
C2327 C494 1.211 . S
C2341 C495 1.072 . S
C2347 C452 1.180 . S
C2361 C550 1.188 . S
C2367 C509 1.115 . S
C2381 C508 1.161 . S
C2387 C523 1.067 . S
C2401 C522 1.216 . S
C2407 C537 1.069 . S
C2421 C551 1.061 . S
C2427 C536 1.184 . S
C2441 C390 1.288 . S
C2447 C571 1.305 . S
C2461 C418 1.293 . S
C2467 C585 1.301 . S
C2481 C424 1.203 . S
C2487 C593 1.075 . S
C2501 C613 1.290 . S
C2507 C446 1.272 . S
C2521 C396 1.205 . S
C2527 C621 1.071 . S
C2541 C362 1.280 . S
C2547 C641 1.307 . S
C2561 C649 1.092 . S
C2567 C368 1.213 . S
C2581 C340 1.193 . S
C2587 C663 1.093 . S
