# Generated by pormake.
# Topology uov, (4)-cn, num edge types: 1
# Building blocks:
#     Node 0, Type 0, BuildingBlock: ICAMEG_clean_sbu_1, # of connection points: 4
#     Node 1, Type 0, BuildingBlock: ICAMEG_clean_sbu_1, # of connection points: 4
#     Node 2, Type 0, BuildingBlock: ICAMEG_clean_sbu_1, # of connection points: 4
#     Node 3, Type 0, BuildingBlock: ICAMEG_clean_sbu_1, # of connection points: 4
#     Node 4, Type 0, BuildingBlock: ICAMEG_clean_sbu_1, # of connection points: 4
#     Node 5, Type 0, BuildingBlock: ICAMEG_clean_sbu_1, # of connection points: 4
#     Node 6, Type 0, BuildingBlock: ICAMEG_clean_sbu_1, # of connection points: 4
#     Node 7, Type 0, BuildingBlock: ICAMEG_clean_sbu_1, # of connection points: 4
#     Edge 8, Type (0, 0), BuildingBlock: TEMPAE_clean_linker_10, # of connection points: 2
#     Edge 9, Type (0, 0), BuildingBlock: TEMPAE_clean_linker_10, # of connection points: 2
#     Edge 10, Type (0, 0), BuildingBlock: TEMPAE_clean_linker_10, # of connection points: 2
#     Edge 11, Type (0, 0), BuildingBlock: TEMPAE_clean_linker_10, # of connection points: 2
#     Edge 12, Type (0, 0), BuildingBlock: TEMPAE_clean_linker_10, # of connection points: 2
#     Edge 13, Type (0, 0), BuildingBlock: TEMPAE_clean_linker_10, # of connection points: 2
#     Edge 14, Type (0, 0), BuildingBlock: TEMPAE_clean_linker_10, # of connection points: 2
#     Edge 15, Type (0, 0), BuildingBlock: TEMPAE_clean_linker_10, # of connection points: 2
#     Edge 16, Type (0, 0), BuildingBlock: TEMPAE_clean_linker_10, # of connection points: 2
#     Edge 17, Type (0, 0), BuildingBlock: TEMPAE_clean_linker_10, # of connection points: 2
#     Edge 18, Type (0, 0), BuildingBlock: TEMPAE_clean_linker_10, # of connection points: 2
#     Edge 19, Type (0, 0), BuildingBlock: TEMPAE_clean_linker_10, # of connection points: 2
#     Edge 20, Type (0, 0), BuildingBlock: TEMPAE_clean_linker_10, # of connection points: 2
#     Edge 21, Type (0, 0), BuildingBlock: TEMPAE_clean_linker_10, # of connection points: 2
#     Edge 22, Type (0, 0), BuildingBlock: TEMPAE_clean_linker_10, # of connection points: 2
#     Edge 23, Type (0, 0), BuildingBlock: TEMPAE_clean_linker_10, # of connection points: 2
# Relax obj value: 0.050
# Max RMSD: 0.045
# Mean RMSD: 0.045
data_MOF--net-uov--node1-ICAMEG_clean_sbu_1--edge1-TEMPAE_clean_linker_10
_symmetry_space_group_name_H-M    P1
_symmetry_Int_Tables_number       1
_symmetry_cell_setting            triclinic
loop_
_symmetry_equiv_pos_as_xyz
'x, y, z'
_cell_length_a     32.169722
_cell_length_b     32.189641
_cell_length_c     47.727734
_cell_angle_alpha  89.989758
_cell_angle_beta   90.016035
_cell_angle_gamma 90.011734
loop_
_atom_site_label
_atom_site_type_symbol
_atom_site_fract_x
_atom_site_fract_y
_atom_site_fract_z
_atom_type_partial_charge
Co0 Co 0.08078 0.21579 0.61199 0.0
Co1 Co 0.11867 0.28784 0.56435 0.0
O2 O 0.10322 0.27072 0.60246 0.0
C3 C 0.14419 0.23574 0.65687 0.0
O4 O 0.15486 0.27032 0.64433 0.0
C5 C 0.05875 0.35173 0.58279 0.0
O6 O 0.03585 0.32136 0.59273 0.0
O7 O 0.06474 0.26794 0.54896 0.0
O8 O 0.04544 0.21613 0.57757 0.0
H9 H 0.13468 0.269 0.46041 0.0
H10 H 0.07602 0.28514 0.65348 0.0
O11 O 0.11581 0.21237 0.64691 0.0
H12 H 0.93128 0.24062 0.63813 0.0
H13 H 0.02471 0.10552 0.67671 0.0
H14 H 0.06324 0.13939 0.57935 0.0
H15 H 0.98884 0.20568 0.61357 0.0
H16 H 0.05168 0.17502 0.66468 0.0
O17 O 0.09322 0.34384 0.57081 0.0
H18 H 0.11598 0.24777 0.50844 0.0
H19 H 0.15337 0.36557 0.53963 0.0
H20 H 0.03609 0.06965 0.5904 0.0
H21 H 0.01956 0.32053 0.67868 0.0
H22 H 0.01663 0.05232 0.6394 0.0
H23 H 0.94646 0.29844 0.67104 0.0
O24 O 0.12614 0.18782 0.59107 0.0
H25 H 0.20976 0.36977 0.62974 0.0
H26 H 0.20752 0.27493 0.54865 0.0
H27 H 0.27472 0.29964 0.56702 0.0
H28 H 0.27614 0.34755 0.60781 0.0
H29 H 0.14326 0.34366 0.61102 0.0
H30 H 0.17212 0.38822 0.4919 0.0
H31 H 0.16295 0.3397 0.4519 0.0
O32 O 0.14407 0.23224 0.55683 0.0
C33 C 0.04081 0.2379 0.55547 0.0
C34 C 0.13895 0.29037 0.47768 0.0
C35 C 0.15991 0.3573 0.49535 0.0
N36 N 0.1339 0.30527 0.52684 0.0
C37 C 0.12853 0.27848 0.50493 0.0
C38 C 0.14917 0.34434 0.52232 0.0
C39 C 0.15477 0.33006 0.47292 0.0
C40 C 0.04454 0.27472 0.65037 0.0
N41 N 0.03601 0.2428 0.63239 0.0
C42 C 0.01256 0.29516 0.66456 0.0
C43 C 0.97156 0.28283 0.66021 0.0
C44 C 0.96302 0.25041 0.64175 0.0
C45 C 0.99579 0.23075 0.62789 0.0
C46 C 0.03299 0.11272 0.65527 0.0
C47 C 0.05455 0.1322 0.60068 0.0
C48 C 0.04836 0.152 0.64835 0.0
N49 N 0.05871 0.16137 0.62129 0.0
C50 C 0.03932 0.09261 0.60683 0.0
C51 C 0.02845 0.08289 0.63433 0.0
C52 C 0.14614 0.19687 0.56883 0.0
C53 C 0.20955 0.3489 0.61196 0.0
C54 C 0.20785 0.29529 0.56664 0.0
C55 C 0.24602 0.30942 0.57683 0.0
C56 C 0.24679 0.33637 0.59968 0.0
N57 N 0.17146 0.30758 0.57888 0.0
C58 C 0.17197 0.33416 0.60118 0.0
Co59 Co 0.21913 0.93335 0.38578 0.0
Co60 Co 0.29107 0.88936 0.43054 0.0
O61 O 0.27328 0.90834 0.39351 0.0
C62 C 0.2226 0.86383 0.34505 0.0
O63 O 0.23307 0.8391 0.36576 0.0
C64 C 0.35654 0.94843 0.41352 0.0
O65 O 0.32661 0.97317 0.40509 0.0
O66 O 0.27389 0.94281 0.44821 0.0
O67 O 0.22091 0.96516 0.42155 0.0
H68 H 0.27574 0.86555 0.53407 0.0
H69 H 0.28567 0.93823 0.3429 0.0
O70 O 0.21607 0.90226 0.34958 0.0
H71 H 0.25138 0.08358 0.36594 0.0
H72 H 0.11062 0.9987 0.32376 0.0
H73 H 0.14345 0.95055 0.41932 0.0
H74 H 0.21397 0.02581 0.38866 0.0
H75 H 0.17919 0.96829 0.33449 0.0
O76 O 0.34787 0.91302 0.42392 0.0
H77 H 0.25336 0.889 0.48723 0.0
H78 H 0.36831 0.84971 0.45241 0.0
H79 H 0.07464 0.98103 0.40956 0.0
H80 H 0.32359 0.99509 0.31949 0.0
H81 H 0.05783 0.00534 0.36148 0.0
H82 H 0.30662 0.06837 0.33106 0.0
O83 O 0.18969 0.88724 0.40532 0.0
H84 H 0.36073 0.80133 0.35746 0.0
H85 H 0.2773 0.79991 0.4441 0.0
H86 H 0.29672 0.73357 0.42182 0.0
H87 H 0.33879 0.73403 0.37819 0.0
H88 H 0.3403 0.86696 0.38033 0.0
H89 H 0.39212 0.82623 0.49893 0.0
H90 H 0.3456 0.83393 0.54014 0.0
O91 O 0.2348 0.8656 0.43819 0.0
C92 C 0.24393 0.96769 0.44322 0.0
C93 C 0.29624 0.86191 0.51626 0.0
C94 C 0.36158 0.83989 0.49654 0.0
N95 N 0.30937 0.87043 0.46709 0.0
C96 C 0.28369 0.87501 0.48968 0.0
C97 C 0.34797 0.85333 0.47027 0.0
C98 C 0.33546 0.84421 0.51965 0.0
C99 C 0.27779 0.97005 0.34782 0.0
N100 N 0.24752 0.97868 0.36703 0.0
C101 C 0.2995 0.00211 0.33459 0.0
C102 C 0.29001 0.04322 0.34112 0.0
C103 C 0.25904 0.05177 0.36071 0.0
C104 C 0.23803 0.01892 0.37355 0.0
C105 C 0.1176 0.9883 0.34481 0.0
C106 C 0.13649 0.96132 0.39839 0.0
C107 C 0.15634 0.97099 0.351 0.0
N108 N 0.16543 0.95795 0.37756 0.0
C109 C 0.09742 0.97844 0.39297 0.0
C110 C 0.088 0.99203 0.36598 0.0
C111 C 0.19887 0.86553 0.42683 0.0
C112 C 0.34247 0.80073 0.37649 0.0
C113 C 0.29547 0.80036 0.42508 0.0
C114 C 0.30648 0.7627 0.41259 0.0
C115 C 0.33011 0.76297 0.38812 0.0
N116 N 0.30776 0.83725 0.41356 0.0
C117 C 0.33094 0.83777 0.38959 0.0
Co118 Co 0.94375 0.78494 0.61491 0.0
Co119 Co 0.89885 0.71392 0.56985 0.0
O120 O 0.91876 0.73095 0.60681 0.0
C121 C 0.87436 0.78044 0.65556 0.0
O122 O 0.85003 0.76976 0.63467 0.0
C123 C 0.95896 0.64879 0.58566 0.0
O124 O 0.98372 0.67879 0.59394 0.0
O125 O 0.95153 0.73229 0.55158 0.0
O126 O 0.97515 0.78394 0.5789 0.0
H127 H 0.87165 0.7316 0.46686 0.0
H128 H 0.94916 0.71763 0.65717 0.0
O129 O 0.91283 0.78728 0.65126 0.0
H130 H 0.09431 0.75247 0.63366 0.0
H131 H 0.00962 0.89225 0.67756 0.0
H132 H 0.96057 0.86123 0.58193 0.0
H133 H 0.03621 0.79028 0.61159 0.0
H134 H 0.97911 0.8239 0.66637 0.0
O135 O 0.92331 0.6573 0.57557 0.0
H136 H 0.89626 0.75307 0.51363 0.0
H137 H 0.85944 0.6368 0.54764 0.0
H138 H 0.99114 0.92984 0.59214 0.0
H139 H 0.00634 0.67927 0.67991 0.0
H140 H 0.01591 0.94573 0.64026 0.0
H141 H 0.07952 0.69652 0.6681 0.0
O142 O 0.89737 0.81466 0.59589 0.0
H143 H 0.8138 0.64137 0.64332 0.0
H144 H 0.8088 0.72693 0.55768 0.0
H145 H 0.74334 0.70615 0.58063 0.0
H146 H 0.74559 0.663 0.62376 0.0
H147 H 0.87852 0.66317 0.61981 0.0
H148 H 0.83481 0.61391 0.50118 0.0
H149 H 0.84069 0.66155 0.46042 0.0
O150 O 0.87421 0.77 0.56322 0.0
C151 C 0.97673 0.76195 0.5567 0.0
C152 C 0.8688 0.71061 0.48448 0.0
C153 C 0.84818 0.64453 0.50373 0.0
N154 N 0.87899 0.69634 0.53336 0.0
C155 C 0.88256 0.72264 0.51102 0.0
C156 C 0.86226 0.65763 0.52997 0.0
C157 C 0.85147 0.67129 0.48087 0.0
C158 C 0.98094 0.72562 0.65216 0.0
N159 N 0.98934 0.75628 0.63318 0.0
C160 C 0.01318 0.70367 0.66501 0.0
C161 C 0.05423 0.71332 0.65833 0.0
C162 C 0.06255 0.74469 0.63899 0.0
C163 C 0.02952 0.76593 0.62652 0.0
C164 C 0.99902 0.88567 0.6565 0.0
C165 C 0.97153 0.8678 0.60287 0.0
C166 C 0.98166 0.84705 0.65005 0.0
N167 N 0.96838 0.83847 0.62347 0.0
C168 C 0.98871 0.90675 0.60855 0.0
C169 C 0.00255 0.91566 0.63556 0.0
C170 C 0.87464 0.80572 0.57482 0.0
C171 C 0.81241 0.66009 0.62451 0.0
C172 C 0.81004 0.70828 0.57648 0.0
C173 C 0.77287 0.69651 0.58935 0.0
C174 C 0.77415 0.67228 0.61354 0.0
N175 N 0.84743 0.69616 0.58735 0.0
C176 C 0.84894 0.67239 0.61105 0.0
Co177 Co 0.79029 0.06475 0.39124 0.0
Co178 Co 0.71852 0.1075 0.43656 0.0
O179 O 0.73598 0.08896 0.39937 0.0
C180 C 0.78367 0.13372 0.3503 0.0
O181 O 0.77222 0.15804 0.371 0.0
C182 C 0.65375 0.04809 0.41916 0.0
O183 O 0.68411 0.02369 0.411 0.0
O184 O 0.73646 0.05414 0.45398 0.0
O185 O 0.78973 0.03314 0.42714 0.0
H186 H 0.73462 0.13052 0.54012 0.0
H187 H 0.72301 0.05852 0.34894 0.0
O188 O 0.79213 0.0957 0.35494 0.0
H189 H 0.76012 0.9139 0.37208 0.0
H190 H 0.89874 0.0009 0.32852 0.0
H191 H 0.86679 0.0488 0.42425 0.0
H192 H 0.79703 0.9724 0.39432 0.0
H193 H 0.82988 0.03022 0.33972 0.0
O194 O 0.66187 0.08338 0.42994 0.0
H195 H 0.75679 0.10774 0.4931 0.0
H196 H 0.64113 0.14618 0.45888 0.0
H197 H 0.93591 0.01942 0.41402 0.0
H198 H 0.68554 0.00093 0.32603 0.0
H199 H 0.95228 0.99524 0.36585 0.0
H200 H 0.70393 0.928 0.33766 0.0
O201 O 0.81924 0.11143 0.41039 0.0
H202 H 0.64716 0.19573 0.36425 0.0
H203 H 0.73198 0.19689 0.45032 0.0
H204 H 0.7118 0.2633 0.42843 0.0
H205 H 0.66904 0.26298 0.38508 0.0
H206 H 0.66834 0.13003 0.38673 0.0
H207 H 0.61753 0.16902 0.50558 0.0
H208 H 0.66451 0.1614 0.54658 0.0
O209 O 0.77476 0.13161 0.44407 0.0
C210 C 0.76705 0.03007 0.44894 0.0
C211 C 0.71392 0.13413 0.5224 0.0
C212 C 0.64818 0.15569 0.50302 0.0
N213 N 0.70041 0.12594 0.47325 0.0
C214 C 0.72635 0.12141 0.49572 0.0
C215 C 0.66168 0.14262 0.47664 0.0
C216 C 0.67456 0.15142 0.52601 0.0
C217 C 0.73151 0.02687 0.35387 0.0
N218 N 0.76229 0.01885 0.37285 0.0
C219 C 0.71006 0.99439 0.34093 0.0
C220 C 0.72034 0.95348 0.3475 0.0
C221 C 0.75184 0.94554 0.36683 0.0
C222 C 0.77257 0.97881 0.3794 0.0
C223 C 0.89196 0.01126 0.3496 0.0
C224 C 0.87357 0.03811 0.40327 0.0
C225 C 0.85305 0.02797 0.35605 0.0
N226 N 0.84422 0.04097 0.38266 0.0
C227 C 0.91281 0.0216 0.39759 0.0
C228 C 0.92199 0.00808 0.37056 0.0
C229 C 0.81038 0.13244 0.43227 0.0
C230 C 0.6657 0.19627 0.38317 0.0
C231 C 0.71347 0.19649 0.43143 0.0
C232 C 0.70206 0.2342 0.41916 0.0
C233 C 0.67804 0.23399 0.39485 0.0
N234 N 0.70122 0.15963 0.41986 0.0
C235 C 0.67765 0.15918 0.39605 0.0
Co236 Co 0.92894 0.21755 0.11487 0.0
Co237 Co 0.88504 0.2874 0.06862 0.0
O238 O 0.90377 0.27117 0.10602 0.0
C239 C 0.85912 0.22185 0.1555 0.0
O240 O 0.83382 0.22985 0.13459 0.0
C241 C 0.94428 0.35303 0.0847 0.0
O242 O 0.96882 0.32318 0.09349 0.0
O243 O 0.93853 0.26931 0.05136 0.0
O244 O 0.96102 0.2178 0.07918 0.0
H245 H 0.86148 0.26758 0.96541 0.0
H246 H 0.93335 0.28602 0.15635 0.0
O247 O 0.89771 0.21616 0.15105 0.0
H248 H 0.07904 0.25116 0.13451 0.0
H249 H 0.99412 0.11216 0.17932 0.0
H250 H 0.94682 0.14057 0.08292 0.0
H251 H 0.02151 0.21253 0.11241 0.0
H252 H 0.96352 0.18005 0.16709 0.0
O253 O 0.90889 0.34432 0.07426 0.0
H254 H 0.88464 0.24719 0.01273 0.0
H255 H 0.84592 0.36382 0.04512 0.0
H256 H 0.97751 0.07239 0.09418 0.0
H257 H 0.98995 0.32519 0.17911 0.0
H258 H 0.0014 0.05781 0.1427 0.0
H259 H 0.0634 0.30794 0.16813 0.0
O260 O 0.883 0.18716 0.09575 0.0
H261 H 0.7968 0.36035 0.14014 0.0
H262 H 0.79557 0.2736 0.05501 0.0
H263 H 0.72913 0.29429 0.07667 0.0
H264 H 0.72949 0.33805 0.11953 0.0
H265 H 0.86253 0.33862 0.1179 0.0
H266 H 0.82274 0.38565 0.99809 0.0
H267 H 0.8303 0.33728 0.95786 0.0
O268 O 0.86113 0.23093 0.0621 0.0
C269 C 0.96354 0.23974 0.05702 0.0
C270 C 0.8579 0.28888 0.98279 0.0
C271 C 0.83621 0.35517 0.00112 0.0
N272 N 0.86633 0.30416 0.03168 0.0
C273 C 0.87083 0.27746 0.00964 0.0
C274 C 0.84948 0.34268 0.02768 0.0
C275 C 0.84045 0.32801 0.97856 0.0
C276 C 0.96524 0.27801 0.15171 0.0
N277 N 0.9741 0.2469 0.13317 0.0
C278 C 0.99715 0.30043 0.16456 0.0
C279 C 0.03836 0.29078 0.15836 0.0
C280 C 0.04715 0.25895 0.13947 0.0
C281 C 0.01444 0.23725 0.12698 0.0
C282 C 0.9839 0.11816 0.15809 0.0
C283 C 0.95738 0.13457 0.10403 0.0
C284 C 0.96648 0.15652 0.15105 0.0
N285 N 0.95367 0.16437 0.12426 0.0
C286 C 0.97464 0.09585 0.1103 0.0
C287 C 0.98799 0.08769 0.13753 0.0
C288 C 0.86115 0.19549 0.07412 0.0
C289 C 0.79624 0.34135 0.12144 0.0
C290 C 0.79598 0.29248 0.07372 0.0
C291 C 0.75826 0.3042 0.08584 0.0
C292 C 0.75848 0.32878 0.10988 0.0
N293 N 0.83287 0.30498 0.08515 0.0
C294 C 0.83335 0.32907 0.10871 0.0
Co295 Co 0.21087 0.06987 0.8899 0.0
Co296 Co 0.28345 0.11159 0.93556 0.0
O297 O 0.26551 0.09387 0.89815 0.0
C298 C 0.21921 0.14029 0.85011 0.0
O299 O 0.23906 0.16123 0.86952 0.0
C300 C 0.34769 0.05143 0.91783 0.0
O301 O 0.31739 0.02782 0.90857 0.0
O302 O 0.26446 0.05838 0.9527 0.0
O303 O 0.21308 0.03586 0.92474 0.0
H304 H 0.26743 0.13358 0.03922 0.0
H305 H 0.27671 0.0674 0.84654 0.0
O306 O 0.20651 0.10347 0.85471 0.0
H307 H 0.2419 0.92088 0.86553 0.0
H308 H 0.10062 0.00905 0.82716 0.0
H309 H 0.13573 0.05125 0.92362 0.0
H310 H 0.2051 0.97733 0.89013 0.0
H311 H 0.16968 0.03823 0.83807 0.0
O312 O 0.33962 0.08641 0.92907 0.0
H313 H 0.24499 0.11186 0.99202 0.0
H314 H 0.36154 0.14851 0.95828 0.0
H315 H 0.06646 0.02193 0.91368 0.0
H316 H 0.31408 0.01193 0.8213 0.0
H317 H 0.0485 0.00063 0.86514 0.0
H318 H 0.29682 0.93805 0.83083 0.0
O319 O 0.18219 0.115 0.91064 0.0
H320 H 0.35894 0.19898 0.86471 0.0
H321 H 0.27143 0.20115 0.94951 0.0
H322 H 0.29393 0.26731 0.92831 0.0
H323 H 0.33808 0.26648 0.88563 0.0
H324 H 0.33533 0.13355 0.88642 0.0
H325 H 0.38539 0.17026 0.00516 0.0
H326 H 0.33812 0.163 0.04601 0.0
O327 O 0.22777 0.1369 0.94311 0.0
C328 C 0.2351 0.0332 0.94687 0.0
C329 C 0.28827 0.13703 0.02157 0.0
C330 C 0.3545 0.15756 0.00246 0.0
N331 N 0.3018 0.12922 0.97239 0.0
C332 C 0.27569 0.1249 0.99478 0.0
C333 C 0.34085 0.14511 0.97597 0.0
C334 C 0.32795 0.15349 0.02537 0.0
C335 C 0.26873 0.03534 0.85056 0.0
N336 N 0.23863 0.02563 0.86965 0.0
C337 C 0.29012 0.00406 0.83631 0.0
C338 C 0.28046 0.96261 0.8417 0.0
C339 C 0.24967 0.95296 0.86118 0.0
C340 C 0.22899 0.98505 0.87508 0.0
C341 C 0.10811 0.01813 0.8484 0.0
C342 C 0.12828 0.04177 0.90248 0.0
C343 C 0.14713 0.03472 0.8547 0.0
N344 N 0.15685 0.04611 0.8815 0.0
C345 C 0.08895 0.0253 0.89696 0.0
C346 C 0.07888 0.0134 0.86972 0.0
C347 C 0.19173 0.13695 0.93192 0.0
C348 C 0.33979 0.19975 0.88335 0.0
C349 C 0.29043 0.20053 0.93085 0.0
C350 C 0.3032 0.23809 0.919 0.0
C351 C 0.32802 0.23761 0.89507 0.0
N352 N 0.30211 0.16353 0.91923 0.0
C353 C 0.3265 0.1628 0.8958 0.0
Co354 Co 0.06201 0.78461 0.11201 0.0
Co355 Co 0.10575 0.71419 0.06608 0.0
O356 O 0.08657 0.73069 0.1033 0.0
C357 C 0.13167 0.77863 0.15246 0.0
O358 O 0.15601 0.76854 0.13145 0.0
C359 C 0.04505 0.64976 0.08185 0.0
O360 O 0.02088 0.68015 0.09024 0.0
O361 O 0.05303 0.73334 0.04827 0.0
O362 O 0.03017 0.78456 0.0762 0.0
H363 H 0.13182 0.73345 0.9631 0.0
H364 H 0.05664 0.7164 0.15364 0.0
O365 O 0.09328 0.78592 0.14822 0.0
H366 H 0.91146 0.75265 0.13122 0.0
H367 H 0.99766 0.89101 0.17603 0.0
H368 H 0.04515 0.86163 0.07982 0.0
H369 H 0.96954 0.79063 0.10927 0.0
H370 H 0.0276 0.82274 0.16404 0.0
O371 O 0.08072 0.65773 0.07157 0.0
H372 H 0.10805 0.75433 0.01017 0.0
H373 H 0.14393 0.63705 0.04302 0.0
H374 H 0.01513 0.93018 0.09084 0.0
H375 H 0.99949 0.67785 0.17625 0.0
H376 H 0.99115 0.94525 0.13925 0.0
H377 H 0.92629 0.69581 0.16498 0.0
O378 O 0.10835 0.81439 0.093 0.0
H379 H 0.1912 0.63947 0.13837 0.0
H380 H 0.19571 0.72668 0.05347 0.0
H381 H 0.26131 0.70486 0.0758 0.0
H382 H 0.25931 0.66088 0.11855 0.0
H383 H 0.12634 0.6623 0.11548 0.0
H384 H 0.16771 0.61473 0.99625 0.0
H385 H 0.16188 0.66317 0.95591 0.0
O386 O 0.13078 0.77023 0.05976 0.0
C387 C 0.02812 0.76305 0.05382 0.0
C388 C 0.13465 0.71211 0.98052 0.0
C389 C 0.15474 0.64546 0.99912 0.0
N390 N 0.12491 0.69706 0.02934 0.0
C391 C 0.12136 0.7238 0.00724 0.0
C392 C 0.14114 0.65823 0.02554 0.0
C393 C 0.15147 0.67266 0.9765 0.0
C394 C 0.02487 0.72471 0.14887 0.0
N395 N 0.01645 0.75585 0.13026 0.0
C396 C 0.99264 0.70264 0.16164 0.0
C397 C 0.95157 0.71269 0.15527 0.0
C398 C 0.94323 0.74456 0.13632 0.0
C399 C 0.97625 0.7659 0.12391 0.0
C400 C 0.00793 0.8848 0.15484 0.0
C401 C 0.03454 0.86785 0.1009 0.0
C402 C 0.02498 0.84623 0.14795 0.0
N403 N 0.03783 0.83811 0.12121 0.0
C404 C 0.01767 0.90677 0.10703 0.0
C405 C 0.00427 0.91521 0.1342 0.0
C406 C 0.13068 0.80575 0.07167 0.0
C407 C 0.19249 0.65855 0.11971 0.0
C408 C 0.19458 0.70767 0.07211 0.0
C409 C 0.23183 0.69532 0.08463 0.0
C410 C 0.23069 0.67062 0.1086 0.0
N411 N 0.15725 0.69565 0.08311 0.0
C412 C 0.15587 0.67144 0.10661 0.0
Co413 Co 0.78205 0.93923 0.88749 0.0
Co414 Co 0.71126 0.89346 0.93235 0.0
O415 O 0.7283 0.91356 0.89542 0.0
C416 C 0.77921 0.86991 0.84667 0.0
O417 O 0.76909 0.84513 0.86744 0.0
C418 C 0.64555 0.95293 0.91639 0.0
O419 O 0.6754 0.97789 0.90815 0.0
O420 O 0.72902 0.94625 0.95073 0.0
O421 O 0.78044 0.97053 0.92349 0.0
H422 H 0.72875 0.86614 0.03533 0.0
H423 H 0.7149 0.9438 0.84503 0.0
O424 O 0.78503 0.90848 0.85111 0.0
H425 H 0.74768 0.08928 0.86871 0.0
H426 H 0.88895 0.00648 0.82517 0.0
H427 H 0.85796 0.95703 0.9207 0.0
H428 H 0.78615 0.0317 0.89086 0.0
H429 H 0.82089 0.97514 0.83615 0.0
O430 O 0.65434 0.91738 0.92652 0.0
H431 H 0.75019 0.8911 0.98865 0.0
H432 H 0.63437 0.85328 0.95434 0.0
H433 H 0.92628 0.98845 0.91069 0.0
H434 H 0.67589 0.00044 0.82221 0.0
H435 H 0.94216 0.01341 0.86261 0.0
H436 H 0.6921 0.07379 0.83411 0.0
O437 O 0.81226 0.89326 0.9066 0.0
H438 H 0.63991 0.80788 0.85862 0.0
H439 H 0.72511 0.80359 0.94446 0.0
H440 H 0.70509 0.738 0.92141 0.0
H441 H 0.66212 0.7399 0.87818 0.0
H442 H 0.66095 0.87273 0.88223 0.0
H443 H 0.6115 0.82829 1.00071 0.0
H444 H 0.65893 0.83449 0.04158 0.0
O445 O 0.76763 0.8694 0.93908 0.0
C446 C 0.75841 0.97179 0.94567 0.0
C447 C 0.70785 0.86314 0.01767 0.0
C448 C 0.64203 0.84195 0.99824 0.0
N449 N 0.69368 0.87335 0.96877 0.0
C450 C 0.71987 0.87711 0.99117 0.0
C451 C 0.6551 0.85625 0.97206 0.0
C452 C 0.66866 0.84543 0.02116 0.0
C453 C 0.72244 0.97565 0.85008 0.0
N454 N 0.75288 0.98443 0.86915 0.0
C455 C 0.70012 0.00759 0.83719 0.0
C456 C 0.70919 0.04873 0.84391 0.0
C457 C 0.74035 0.05744 0.86334 0.0
C458 C 0.76197 0.02471 0.87586 0.0
C459 C 0.88238 0.9958 0.84621 0.0
C460 C 0.86452 0.96808 0.89977 0.0
C461 C 0.84392 0.97796 0.85254 0.0
N462 N 0.83534 0.96456 0.87909 0.0
C463 C 0.90331 0.98573 0.89421 0.0
C464 C 0.91221 0.99969 0.86723 0.0
C465 C 0.80346 0.87036 0.92761 0.0
C466 C 0.65856 0.80664 0.87748 0.0
C467 C 0.70654 0.80467 0.92561 0.0
C468 C 0.69521 0.76743 0.91269 0.0
C469 C 0.67108 0.76851 0.88844 0.0
N470 N 0.6941 0.84193 0.91475 0.0
C471 C 0.67044 0.84325 0.89099 0.0
C472 C 0.95268 0.5745 0.57114 0.0
C473 C 0.97278 0.60499 0.58718 0.0
C474 C 0.96628 0.53309 0.57143 0.0
C475 C 1.00037 0.52172 0.58855 0.0
C476 C 0.02015 0.55216 0.60534 0.0
C477 C 0.00635 0.59355 0.60426 0.0
C478 C 0.94478 0.50173 0.55288 0.0
C479 C 0.05614 0.54108 0.62423 0.0
C480 C 0.01318 0.40644 0.604 0.0
C481 C 0.04436 0.39528 0.58491 0.0
C482 C 0.9992 0.44771 0.60591 0.0
C483 C 0.01629 0.4783 0.58795 0.0
C484 C 0.04784 0.46717 0.56869 0.0
C485 C 0.06174 0.4259 0.56758 0.0
C486 C 0.96602 0.45855 0.62704 0.0
C487 C 0.06641 0.49869 0.54886 0.0
H488 H 0.92681 0.58315 0.5578 0.0
H489 H 0.02178 0.61693 0.61689 0.0
H490 H 0.96731 0.48873 0.53761 0.0
H491 H 0.93299 0.47546 0.56565 0.0
H492 H 0.91833 0.51547 0.54112 0.0
H493 H 0.06655 0.56784 0.63715 0.0
H494 H 0.04724 0.51522 0.63839 0.0
H495 H 0.08277 0.53016 0.61145 0.0
H496 H 0.99988 0.38297 0.61761 0.0
H497 H 0.08573 0.41746 0.55269 0.0
H498 H 0.93775 0.46973 0.61608 0.0
H499 H 0.97693 0.48416 0.64075 0.0
H500 H 0.95738 0.43161 0.64039 0.0
H501 H 0.04167 0.51188 0.53531 0.0
H502 H 0.09087 0.48504 0.53525 0.0
H503 H 0.08017 0.5248 0.56085 0.0
C504 C 0.57893 0.05272 0.43285 0.0
C505 C 0.61006 0.03429 0.41647 0.0
C506 C 0.53759 0.03896 0.43136 0.0
C507 C 0.52694 0.00655 0.41262 0.0
C508 C 0.55806 0.98855 0.3955 0.0
C509 C 0.59935 0.00234 0.39784 0.0
C510 C 0.50549 0.05848 0.45033 0.0
C511 C 0.54778 0.95449 0.37488 0.0
C512 C 0.43044 0.94313 0.42917 0.0
C513 C 0.40036 0.96232 0.41229 0.0
C514 C 0.47176 0.95708 0.42933 0.0
C515 C 0.48352 0.99053 0.41177 0.0
C516 C 0.45352 0.00937 0.39414 0.0
C517 C 0.41216 0.9953 0.39481 0.0
C518 C 0.50262 0.93661 0.44879 0.0
C519 C 0.46504 0.04457 0.37474 0.0
H520 H 0.58706 0.07731 0.44738 0.0
H521 H 0.62324 0.98826 0.38494 0.0
H522 H 0.47968 0.07154 0.43769 0.0
H523 H 0.49196 0.03444 0.46428 0.0
H524 H 0.51876 0.08364 0.46351 0.0
H525 H 0.57506 0.94543 0.36199 0.0
H526 H 0.53646 0.92666 0.38626 0.0
H527 H 0.52242 0.96472 0.36071 0.0
H528 H 0.42149 0.91777 0.44285 0.0
H529 H 0.38909 0.01004 0.38156 0.0
H530 H 0.51518 0.95991 0.46369 0.0
H531 H 0.52927 0.92421 0.43665 0.0
H532 H 0.48856 0.91077 0.46097 0.0
H533 H 0.47554 0.07175 0.38714 0.0
H534 H 0.43861 0.05434 0.36127 0.0
H535 H 0.49134 0.03518 0.36109 0.0
C536 C 0.99064 0.4086 0.10391 0.0
C537 C 0.9582 0.39678 0.08597 0.0
C538 C 0.00462 0.44993 0.10481 0.0
C539 C 0.98626 0.4799 0.08693 0.0
C540 C 0.95338 0.46812 0.06887 0.0
C541 C 0.93948 0.4268 0.06881 0.0
C542 C 0.0392 0.46147 0.12473 0.0
C543 C 0.93347 0.49897 0.04915 0.0
C544 C 0.9979 0.59541 0.10174 0.0
C545 C 0.03065 0.60621 0.08378 0.0
C546 C 0.98372 0.55421 0.10348 0.0
C547 C 0.00221 0.52331 0.08643 0.0
C548 C 0.03533 0.53407 0.06829 0.0
C549 C 0.04941 0.57531 0.06738 0.0
C550 C 0.94886 0.54379 0.12345 0.0
C551 C 0.05539 0.50219 0.04943 0.0
H552 H 0.00498 0.38557 0.11738 0.0
H553 H 0.91453 0.4178 0.05479 0.0
H554 H 0.06673 0.47216 0.11274 0.0
H555 H 0.02927 0.48761 0.13832 0.0
H556 H 0.04868 0.43502 0.13825 0.0
H557 H 0.90805 0.48488 0.03658 0.0
H558 H 0.92062 0.52554 0.06114 0.0
H559 H 0.95724 0.51161 0.03462 0.0
H560 H 0.98353 0.61913 0.11464 0.0
H561 H 0.0746 0.58351 0.05335 0.0
H562 H 0.95864 0.51847 0.13779 0.0
H563 H 0.92152 0.53235 0.11157 0.0
H564 H 0.93916 0.57099 0.1362 0.0
H565 H 0.06821 0.47633 0.06213 0.0
H566 H 0.08087 0.5156 0.03658 0.0
H567 H 0.03173 0.48869 0.03516 0.0
C568 C 0.40269 0.00537 0.89741 0.0
C569 C 0.39136 0.03717 0.91598 0.0
C570 C 0.44404 0.99146 0.89579 0.0
C571 C 0.47455 0.00923 0.91354 0.0
C572 C 0.46322 0.04136 0.93229 0.0
C573 C 0.42189 0.0552 0.93309 0.0
C574 C 0.45507 0.95766 0.87516 0.0
C575 C 0.49463 0.06064 0.95191 0.0
C576 C 0.57125 0.94662 0.93108 0.0
C577 C 0.60162 0.96643 0.91476 0.0
C578 C 0.52974 0.96002 0.93069 0.0
C579 C 0.51812 0.99355 0.91315 0.0
C580 C 0.54845 0.013 0.89608 0.0
C581 C 0.58995 0.99947 0.8973 0.0
C582 C 0.49852 0.93891 0.94955 0.0
C583 C 0.53714 0.04835 0.87674 0.0
H584 H 0.37929 0.99155 0.88398 0.0
H585 H 0.41331 0.07965 0.9476 0.0
H586 H 0.48062 0.96827 0.86128 0.0
H587 H 0.46644 0.92985 0.88654 0.0
H588 H 0.42816 0.94843 0.86196 0.0
H589 H 0.4808 0.08538 0.9652 0.0
H590 H 0.50797 0.03638 0.96577 0.0
H591 H 0.52068 0.07423 0.93976 0.0
H592 H 0.58009 0.92118 0.94473 0.0
H593 H 0.61323 0.01466 0.88446 0.0
H594 H 0.47229 0.92658 0.93697 0.0
H595 H 0.4854 0.96181 0.96451 0.0
H596 H 0.51245 0.91293 0.96166 0.0
H597 H 0.5113 0.03889 0.86271 0.0
H598 H 0.56384 0.05853 0.86367 0.0
H599 H 0.52606 0.07527 0.88917 0.0
C600 C 0.19677 0.02285 0.46166 0.0
C601 C 0.23449 0.00113 0.46364 0.0
C602 C 0.1866 0.05429 0.48071 0.0
C603 C 0.21505 0.06485 0.50217 0.0
C604 C 0.25332 0.04333 0.5043 0.0
C605 C 0.2625 0.01147 0.48509 0.0
C606 C 0.14521 0.07614 0.47787 0.0
C607 C 0.28458 0.05415 0.52672 0.0
C608 C 0.19471 0.17239 0.53124 0.0
C609 C 0.16986 0.16339 0.55465 0.0
C610 C 0.21215 0.14048 0.51503 0.0
C611 C 0.20417 0.09856 0.52218 0.0
C612 C 0.1812 0.08925 0.54669 0.0
C613 C 0.16456 0.12177 0.56273 0.0
C614 C 0.23693 0.15171 0.48925 0.0
C615 C 0.1717 0.04495 0.55491 0.0
H616 H 0.17475 0.01508 0.4453 0.0
H617 H 0.29177 0.99497 0.48674 0.0
H618 H 0.12717 0.0729 0.49757 0.0
H619 H 0.1502 0.10982 0.47427 0.0
H620 H 0.12627 0.06362 0.46033 0.0
H621 H 0.31299 0.03462 0.52547 0.0
H622 H 0.29374 0.08726 0.52479 0.0
H623 H 0.27045 0.05015 0.54775 0.0
H624 H 0.19935 0.20438 0.5249 0.0
H625 H 0.14557 0.11435 0.58081 0.0
H626 H 0.21846 0.14442 0.47024 0.0
H627 H 0.26592 0.13312 0.48822 0.0
H628 H 0.24517 0.18522 0.48874 0.0
H629 H 0.14963 0.0313 0.53959 0.0
H630 H 0.15764 0.04283 0.57613 0.0
H631 H 0.20034 0.02579 0.55447 0.0
C632 C 0.17513 0.8138 0.46262 0.0
C633 C 0.16536 0.84186 0.44107 0.0
C634 C 0.14392 0.79604 0.47929 0.0
C635 C 0.10188 0.80692 0.47456 0.0
C636 C 0.09157 0.83331 0.45185 0.0
C637 C 0.12341 0.85024 0.43525 0.0
C638 C 0.15623 0.7676 0.50306 0.0
C639 C 0.04714 0.84593 0.44622 0.0
C640 C 0.01608 0.7472 0.51217 0.0
C641 C 0.00904 0.77255 0.53564 0.0
C642 C 0.04625 0.75781 0.49205 0.0
C643 C 0.06954 0.79483 0.49534 0.0
C644 C 0.06242 0.82058 0.51889 0.0
C645 C 0.03254 0.80903 0.53876 0.0
C646 C 0.05336 0.72938 0.46738 0.0
C647 C 0.08631 0.86053 0.5231 0.0
H648 H 0.20737 0.80677 0.4672 0.0
H649 H 0.11543 0.87177 0.41864 0.0
H650 H 0.15147 0.7838 0.52332 0.0
H651 H 0.13642 0.73939 0.50321 0.0
H652 H 0.18932 0.75795 0.50169 0.0
H653 H 0.0438 0.86282 0.42604 0.0
H654 H 0.02658 0.81827 0.44586 0.0
H655 H 0.0361 0.86645 0.46335 0.0
H656 H 0.99815 0.71895 0.50954 0.0
H657 H 0.02738 0.82903 0.55668 0.0
H658 H 0.08615 0.71869 0.46717 0.0
H659 H 0.04794 0.74648 0.44753 0.0
H660 H 0.03269 0.70173 0.46784 0.0
H661 H 0.12003 0.85379 0.52487 0.0
H662 H 0.07632 0.87754 0.5422 0.0
H663 H 0.08205 0.8812 0.50471 0.0
C664 C 0.81453 0.97414 0.46604 0.0
C665 C 0.77795 0.99734 0.46958 0.0
C666 C 0.82639 0.94383 0.48549 0.0
C667 C 0.80089 0.93601 0.50905 0.0
C668 C 0.76377 0.95899 0.51278 0.0
C669 C 0.7528 0.98956 0.49305 0.0
C670 C 0.86641 0.92022 0.48079 0.0
C671 C 0.73566 0.95117 0.53754 0.0
C672 C 0.8214 0.82988 0.5402 0.0
C673 C 0.8501 0.83932 0.56144 0.0
C674 C 0.80279 0.86136 0.52423 0.0
C675 C 0.81342 0.90332 0.5294 0.0
C676 C 0.84033 0.91326 0.55191 0.0
C677 C 0.85817 0.88114 0.56778 0.0
C678 C 0.77387 0.84948 0.50062 0.0
C679 C 0.85262 0.95762 0.558 0.0
H680 H 0.83436 0.97983 0.44809 0.0
H681 H 0.72448 0.00728 0.49601 0.0
H682 H 0.88734 0.9242 0.49908 0.0
H683 H 0.85978 0.88653 0.47877 0.0
H684 H 0.88311 0.93066 0.46168 0.0
H685 H 0.70788 0.97166 0.53743 0.0
H686 H 0.72515 0.91833 0.53749 0.0
H687 H 0.75298 0.95624 0.55734 0.0
H688 H 0.81458 0.79774 0.53526 0.0
H689 H 0.88016 0.88886 0.58418 0.0
H690 H 0.78967 0.85469 0.48026 0.0
H691 H 0.74558 0.86917 0.5009 0.0
H692 H 0.76434 0.81634 0.50178 0.0
H693 H 0.87296 0.96925 0.54094 0.0
H694 H 0.86965 0.96057 0.57816 0.0
H695 H 0.8248 0.97793 0.55868 0.0
C696 C 0.835 0.18242 0.46897 0.0
C697 C 0.84413 0.15594 0.44641 0.0
C698 C 0.8668 0.20005 0.48523 0.0
C699 C 0.90877 0.19066 0.47901 0.0
C700 C 0.9183 0.16568 0.45545 0.0
C701 C 0.88589 0.14886 0.43932 0.0
C702 C 0.85534 0.22698 0.50995 0.0
C703 C 0.96265 0.15466 0.44824 0.0
C704 C 0.99592 0.25245 0.51343 0.0
C705 C 0.00639 0.22674 0.53614 0.0
C706 C 0.96396 0.24139 0.49475 0.0
C707 C 0.94233 0.20352 0.49868 0.0
C708 C 0.95274 0.1775 0.52154 0.0
C709 C 0.98437 0.18952 0.54004 0.0
C710 C 0.95334 0.27017 0.47082 0.0
C711 C 0.9307 0.13665 0.52635 0.0
H712 H 0.80291 0.18839 0.47456 0.0
H713 H 0.89339 0.12854 0.42195 0.0
H714 H 0.8626 0.21029 0.5297 0.0
H715 H 0.87388 0.25604 0.50985 0.0
H716 H 0.82179 0.23518 0.51005 0.0
H717 H 0.96505 0.13796 0.42794 0.0
H718 H 0.9821 0.18307 0.44722 0.0
H719 H 0.9758 0.13455 0.46492 0.0
H720 H 0.01262 0.28132 0.51025 0.0
H721 H 0.99219 0.16929 0.55741 0.0
H722 H 0.92008 0.27913 0.47196 0.0
H723 H 0.958 0.25397 0.45056 0.0
H724 H 0.97258 0.29883 0.47095 0.0
H725 H 0.89695 0.1421 0.5294 0.0
H726 H 0.94289 0.11976 0.54492 0.0
H727 H 0.93419 0.11643 0.50767 0.0
C728 C 0.74374 0.01036 0.99054 0.0
C729 C 0.76872 0.00411 0.96678 0.0
C730 C 0.75416 0.04055 0.01068 0.0
C731 C 0.79061 0.06468 0.0071 0.0
C732 C 0.81598 0.05833 0.98327 0.0
C733 C 0.80463 0.02841 0.9634 0.0
C734 C 0.72614 0.04681 0.03568 0.0
C735 C 0.85531 0.08315 0.97873 0.0
C736 C 0.80837 0.1706 0.03941 0.0
C737 C 0.83738 0.16149 0.06053 0.0
C738 C 0.79055 0.13898 0.02315 0.0
C739 C 0.80239 0.09722 0.02781 0.0
C740 C 0.8297 0.08753 0.05016 0.0
C741 C 0.84663 0.11977 0.0664 0.0
C742 C 0.7611 0.15062 0.99978 0.0
C743 C 0.84338 0.04342 0.05568 0.0
H744 H 0.71595 0.99179 0.99338 0.0
H745 H 0.82435 0.02389 0.94525 0.0
H746 H 0.74387 0.04183 0.05533 0.0
H747 H 0.71457 0.07928 0.03605 0.0
H748 H 0.69904 0.02542 0.03548 0.0
H749 H 0.87218 0.07361 0.95946 0.0
H750 H 0.84773 0.11668 0.97705 0.0
H751 H 0.87645 0.07935 0.99692 0.0
H752 H 0.80065 0.20265 0.03483 0.0
H753 H 0.8689 0.11231 0.08268 0.0
H754 H 0.7334 0.13009 0.99992 0.0
H755 H 0.77687 0.14641 0.9793 0.0
H756 H 0.75061 0.18342 0.00136 0.0
H757 H 0.81618 0.02225 0.05622 0.0
H758 H 0.86066 0.04046 0.07574 0.0
H759 H 0.86391 0.03287 0.03841 0.0
C760 C 0.11639 0.15356 0.93912 0.0
C761 C 0.15822 0.16078 0.94601 0.0
C762 C 0.08414 0.17069 0.95518 0.0
C763 C 0.09388 0.19612 0.97847 0.0
C764 C 0.1359 0.20583 0.98438 0.0
C765 C 0.16757 0.18787 0.96819 0.0
C766 C 0.03975 0.15926 0.94832 0.0
C767 C 0.14755 0.23325 0.00881 0.0
C768 C 0.00627 0.25565 0.01414 0.0
C769 C 0.99712 0.22947 0.03686 0.0
C770 C 0.038 0.24555 0.99504 0.0
C771 C 0.06066 0.20819 0.99857 0.0
C772 C 0.05147 0.18167 0.02138 0.0
C773 C 0.02009 0.19273 0.04028 0.0
C774 C 0.04732 0.27478 0.97113 0.0
C775 C 0.0746 0.14131 0.02578 0.0
H776 H 0.1087 0.13281 0.92201 0.0
H777 H 0.19972 0.19398 0.97359 0.0
H778 H 0.02727 0.13867 0.96497 0.0
H779 H 0.0199 0.18741 0.94771 0.0
H780 H 0.0371 0.14285 0.92792 0.0
H781 H 0.18089 0.24227 0.00833 0.0
H782 H 0.12831 0.26184 0.00894 0.0
H783 H 0.14145 0.21651 0.02871 0.0
H784 H 0.98882 0.28416 0.01136 0.0
H785 H 0.01332 0.17213 0.05764 0.0
H786 H 0.04258 0.25865 0.95084 0.0
H787 H 0.08037 0.28456 0.97196 0.0
H788 H 0.02738 0.30295 0.97158 0.0
H789 H 0.0711 0.12117 0.00706 0.0
H790 H 0.0633 0.12396 0.04441 0.0
H791 H 0.10828 0.14754 0.02849 0.0
C792 C 0.14644 0.88132 0.06469 0.0
C793 C 0.15489 0.83961 0.05828 0.0
C794 C 0.16375 0.91367 0.04877 0.0
C795 C 0.1906 0.90411 0.02617 0.0
C796 C 0.20163 0.86227 0.02091 0.0
C797 C 0.18347 0.83053 0.03691 0.0
C798 C 0.15097 0.95787 0.05493 0.0
C799 C 0.23058 0.85079 0.99726 0.0
C800 C 0.18869 0.97582 0.96321 0.0
C801 C 0.22482 0.99964 0.96706 0.0
C802 C 0.17729 0.94493 0.98238 0.0
C803 C 0.20284 0.9371 0.00594 0.0
C804 C 0.23961 0.96057 0.00989 0.0
C805 C 0.25008 0.99177 0.99048 0.0
C806 C 0.13761 0.92084 0.97748 0.0
C807 C 0.26784 0.9527 0.03459 0.0
H808 H 0.12453 0.88876 0.08118 0.0
H809 H 0.19056 0.79847 0.03191 0.0
H810 H 0.17859 0.97845 0.05579 0.0
H811 H 0.13068 0.96941 0.03781 0.0
H812 H 0.13373 0.96054 0.07502 0.0
H813 H 0.24046 0.81775 0.99834 0.0
H814 H 0.21467 0.85592 0.97692 0.0
H815 H 0.25867 0.87079 0.99754 0.0
H816 H 0.16881 0.98158 0.9453 0.0
H817 H 0.27807 0.00991 0.99365 0.0
H818 H 0.11655 0.92437 0.99573 0.0
H819 H 0.14466 0.88726 0.97532 0.0
H820 H 0.12086 0.93126 0.95837 0.0
H821 H 0.25056 0.95766 0.05442 0.0
H822 H 0.29556 0.97328 0.03449 0.0
H823 H 0.27842 0.9199 0.03447 0.0
C824 C 0.87912 0.85534 0.93521 0.0
C825 C 0.83733 0.84628 0.9411 0.0
C826 C 0.91133 0.83781 0.95117 0.0
C827 C 0.90156 0.81017 0.9733 0.0
C828 C 0.85969 0.79865 0.97803 0.0
C829 C 0.82809 0.817 0.962 0.0
C830 C 0.95557 0.85112 0.94558 0.0
C831 C 0.84797 0.7689 0.00119 0.0
C832 C 0.98843 0.7498 0.00921 0.0
C833 C 0.99549 0.77421 0.03313 0.0
C834 C 0.9579 0.76094 0.98948 0.0
C835 C 0.93424 0.79752 0.99365 0.0
C836 C 0.94137 0.82231 0.01766 0.0
C837 C 0.97164 0.81027 0.03711 0.0
C838 C 0.95082 0.73357 0.96425 0.0
C839 C 0.91705 0.86175 0.02282 0.0
H840 H 0.88669 0.87781 0.91908 0.0
H841 H 0.79598 0.80945 0.9666 0.0
H842 H 0.96661 0.87101 0.96305 0.0
H843 H 0.9764 0.82371 0.94457 0.0
H844 H 0.95849 0.86893 0.92573 0.0
H845 H 0.81498 0.75892 0.99974 0.0
H846 H 0.86811 0.74094 1.00063 0.0
H847 H 0.85276 0.78415 0.02178 0.0
H848 H 0.00663 0.72189 0.00592 0.0
H849 H 0.9768 0.82953 0.0554 0.0
H850 H 0.9558 0.75163 0.94475 0.0
H851 H 0.91815 0.7225 0.96398 0.0
H852 H 0.97181 0.70617 0.96404 0.0
H853 H 0.92088 0.88331 0.00487 0.0
H854 H 0.92705 0.87799 0.04223 0.0
H855 H 0.88344 0.85452 0.02459 0.0
C856 C 0.16223 0.25544 0.70582 0.0
C857 C 0.16163 0.22557 0.68452 0.0
C858 C 0.17379 0.24462 0.73326 0.0
C859 C 0.18647 0.20336 0.73912 0.0
C860 C 0.18809 0.17375 0.71718 0.0
C861 C 0.17471 0.185 0.69025 0.0
C862 C 0.17011 0.27664 0.75623 0.0
C863 C 0.20275 0.12984 0.72231 0.0
C864 C 0.24207 0.17953 0.80773 0.0
C865 C 0.21061 0.15928 0.82269 0.0
C866 C 0.23476 0.19428 0.78043 0.0
C867 C 0.19463 0.19003 0.76848 0.0
C868 C 0.16236 0.17118 0.78417 0.0
C869 C 0.17102 0.15522 0.81086 0.0
C870 C 0.2703 0.21276 0.76398 0.0
C871 C 0.1188 0.16732 0.77264 0.0
H872 H 0.15154 0.28669 0.70133 0.0
H873 H 0.17427 0.16202 0.67363 0.0
H874 H 0.14548 0.26702 0.77117 0.0
H875 H 0.19955 0.27882 0.76822 0.0
H876 H 0.16224 0.30793 0.74795 0.0
H877 H 0.20718 0.11236 0.70246 0.0
H878 H 0.23254 0.13 0.73404 0.0
H879 H 0.17962 0.11304 0.73528 0.0
H880 H 0.27279 0.1822 0.81692 0.0
H881 H 0.14671 0.13969 0.82262 0.0
H882 H 0.26195 0.24416 0.75626 0.0
H883 H 0.27666 0.19319 0.74532 0.0
H884 H 0.29921 0.21512 0.77662 0.0
H885 H 0.10773 0.19792 0.76494 0.0
H886 H 0.09648 0.15562 0.78856 0.0
H887 H 0.11863 0.14566 0.75458 0.0
C888 C 0.1216 0.79014 0.20372 0.0
C889 C 0.14873 0.784 0.18108 0.0
C890 C 0.13675 0.79898 0.23059 0.0
C891 C 0.18016 0.80195 0.23501 0.0
C892 C 0.20782 0.79407 0.21254 0.0
C893 C 0.19176 0.78506 0.18581 0.0
C894 C 0.10616 0.80691 0.254 0.0
C895 C 0.25429 0.79696 0.21645 0.0
C896 C 0.20927 0.8749 0.29409 0.0
C897 C 0.21599 0.84731 0.31641 0.0
C898 C 0.19939 0.86036 0.26723 0.0
C899 C 0.19599 0.8171 0.26249 0.0
C900 C 0.20437 0.78895 0.2846 0.0
C901 C 0.21438 0.80441 0.31134 0.0
C902 C 0.19093 0.89146 0.24421 0.0
C903 C 0.20107 0.74262 0.28032 0.0
H904 H 0.08829 0.78891 0.20037 0.0
H905 H 0.21294 0.7802 0.16845 0.0
H906 H 0.11396 0.78761 0.27253 0.0
H907 H 0.10804 0.83993 0.26057 0.0
H908 H 0.07362 0.80013 0.24767 0.0
H909 H 0.27158 0.78566 0.19781 0.0
H910 H 0.26315 0.82976 0.22035 0.0
H911 H 0.26416 0.77868 0.235 0.0
H912 H 0.2109 0.90811 0.29769 0.0
H913 H 0.21968 0.78288 0.32844 0.0
H914 H 0.15776 0.88974 0.23795 0.0
H915 H 0.20982 0.88405 0.22542 0.0
H916 H 0.1979 0.92383 0.25078 0.0
H917 H 0.16811 0.73406 0.27662 0.0
H918 H 0.21263 0.72488 0.29871 0.0
H919 H 0.21892 0.73302 0.26152 0.0
C920 C 0.88396 0.79511 0.70655 0.0
C921 C 0.8571 0.78716 0.684 0.0
C922 C 0.86845 0.80493 0.73318 0.0
C923 C 0.82496 0.80705 0.73745 0.0
C924 C 0.79761 0.79757 0.71507 0.0
C925 C 0.81402 0.78762 0.6886 0.0
C926 C 0.89871 0.81456 0.75651 0.0
C927 C 0.75107 0.79954 0.71881 0.0
C928 C 0.78964 0.81019 0.81353 0.0
C929 C 0.78669 0.85313 0.81819 0.0
C930 C 0.80062 0.7945 0.78704 0.0
C931 C 0.80855 0.82241 0.76472 0.0
C932 C 0.80384 0.86566 0.76904 0.0
C933 C 0.79308 0.88046 0.79568 0.0
C934 C 0.80537 0.74819 0.78324 0.0
C935 C 0.81172 0.89649 0.74577 0.0
H936 H 0.9173 0.79444 0.7033 0.0
H937 H 0.79304 0.7814 0.67133 0.0
H938 H 0.89576 0.84768 0.76264 0.0
H939 H 0.89145 0.79557 0.77528 0.0
H940 H 0.93147 0.80863 0.75032 0.0
H941 H 0.73411 0.78766 0.70018 0.0
H942 H 0.74148 0.78127 0.73743 0.0
H943 H 0.7415 0.8322 0.72253 0.0
H944 H 0.78467 0.78885 0.83077 0.0
H945 H 0.79047 0.91368 0.79898 0.0
H946 H 0.83858 0.7406 0.77961 0.0
H947 H 0.78781 0.73761 0.76455 0.0
H948 H 0.79439 0.73051 0.80181 0.0
H949 H 0.84501 0.89556 0.7397 0.0
H950 H 0.8038 0.92879 0.75199 0.0
H951 H 0.79326 0.88816 0.72695 0.0
C952 C 0.783 0.19266 0.3157 0.0
C953 C 0.78838 0.15025 0.32147 0.0
C954 C 0.79014 0.20855 0.28865 0.0
C955 C 0.80293 0.18136 0.26697 0.0
C956 C 0.80693 0.13835 0.27249 0.0
C957 C 0.7996 0.12336 0.29959 0.0
C958 C 0.78544 0.25457 0.28353 0.0
C959 C 0.82044 0.10824 0.24997 0.0
C960 C 0.80091 0.20931 0.18954 0.0
C961 C 0.84318 0.21677 0.1844 0.0
C962 C 0.78679 0.19964 0.21667 0.0
C963 C 0.81561 0.1978 0.2391 0.0
C964 C 0.85787 0.20765 0.23423 0.0
C965 C 0.87113 0.21684 0.20698 0.0
C966 C 0.7415 0.18929 0.22104 0.0
C967 C 0.88958 0.20642 0.25757 0.0
H968 H 0.77409 0.21362 0.33242 0.0
H969 H 0.80348 0.09047 0.30371 0.0
H970 H 0.81638 0.26844 0.27928 0.0
H971 H 0.76583 0.26021 0.26479 0.0
H972 H 0.7714 0.27086 0.30173 0.0
H973 H 0.81943 0.07544 0.2572 0.0
H974 H 0.80025 0.11137 0.23125 0.0
H975 H 0.85269 0.11552 0.24335 0.0
H976 H 0.77914 0.2093 0.1722 0.0
H977 H 0.90378 0.22315 0.20326 0.0
H978 H 0.72901 0.20628 0.23942 0.0
H979 H 0.73825 0.1556 0.22544 0.0
H980 H 0.72232 0.19697 0.20238 0.0
H981 H 0.87862 0.22485 0.27576 0.0
H982 H 0.92031 0.21864 0.25086 0.0
H983 H 0.89373 0.17392 0.2648 0.0
loop_
_geom_bond_atom_site_label_1
_geom_bond_atom_site_label_2
_geom_bond_distance
_geom_bond_site_symmetry_2
_ccdc_geom_bond_type
Co0 O2 2.143 . S
Co0 O8 2.074 . S
Co0 O11 2.093 . S
Co0 O24 2.097 . S
Co0 N41 2.151 . S
Co0 N49 2.214 . S
Co1 O2 2.160 . S
Co1 O7 2.058 . S
Co1 O17 2.057 . S
Co1 O32 2.037 . S
Co1 N36 2.145 . S
Co1 N57 2.257 . S
O2 Co0 2.143 . S
O2 Co1 2.160 . S
C3 O4 1.278 . S
C3 O11 1.224 . S
O4 C3 1.278 . S
C5 O6 1.245 . S
C5 O17 1.232 . S
O6 C5 1.245 . S
O7 Co1 2.058 . S
O7 C33 1.269 . S
O8 Co0 2.074 . S
O8 C33 1.257 . S
H9 C34 0.930 . S
H10 C40 0.930 . S
O11 Co0 2.093 . S
O11 C3 1.224 . S
H12 C44 0.929 . S
H13 C46 0.930 . S
H14 C47 0.930 . S
H15 C45 0.929 . S
H16 C48 0.928 . S
O17 Co1 2.057 . S
O17 C5 1.232 . S
H18 C37 0.929 . S
H19 C38 0.929 . S
H20 C50 0.931 . S
H21 C42 0.929 . S
H22 C51 0.930 . S
H23 C43 0.931 . S
O24 Co0 2.097 . S
O24 C52 1.214 . S
H25 C53 0.929 . S
H26 C54 0.929 . S
H27 C55 0.930 . S
H28 C56 0.929 . S
H29 C58 0.930 . S
H30 C35 0.930 . S
H31 C39 0.930 . S
O32 Co1 2.037 . S
O32 C52 1.234 . S
C33 O7 1.269 . S
C33 O8 1.257 . S
C34 H9 0.930 . S
C34 C37 1.388 . S
C34 C39 1.418 . S
C35 H30 0.930 . S
C35 C38 1.404 . S
C35 C39 1.353 . S
N36 Co1 2.145 . S
N36 C37 1.397 . S
N36 C38 1.334 . S
C37 H18 0.929 . S
C37 C34 1.388 . S
C37 N36 1.397 . S
C38 H19 0.929 . S
C38 C35 1.404 . S
C38 N36 1.334 . S
C39 H31 0.930 . S
C39 C34 1.418 . S
C39 C35 1.353 . S
C40 H10 0.930 . S
C40 N41 1.330 . S
C40 C42 1.446 1_455 S
N41 Co0 2.151 . S
N41 C40 1.330 . S
N41 C45 1.418 1_455 S
C42 H21 0.929 . S
C42 C40 1.446 1_655 S
C42 C43 1.332 . S
C43 H23 0.931 . S
C43 C42 1.332 . S
C43 C44 1.267 . S
C44 H12 0.929 . S
C44 C43 1.267 . S
C44 C45 1.251 . S
C45 H15 0.929 . S
C45 N41 1.418 1_655 S
C45 C44 1.251 . S
C46 H13 0.930 . S
C46 C48 1.406 . S
C46 C51 1.261 . S
C47 H14 0.930 . S
C47 N49 1.325 . S
C47 C50 1.357 . S
C48 H16 0.928 . S
C48 C46 1.406 . S
C48 N49 1.261 . S
N49 Co0 2.214 . S
N49 C47 1.325 . S
N49 C48 1.261 . S
C50 H20 0.931 . S
C50 C47 1.357 . S
C50 C51 1.312 . S
C51 H22 0.930 . S
C51 C46 1.261 . S
C51 C50 1.312 . S
C52 O24 1.214 . S
C52 O32 1.234 . S
C53 H25 0.929 . S
C53 C56 1.391 . S
C53 C58 1.391 . S
C54 H26 0.929 . S
C54 C55 1.390 . S
C54 N57 1.391 . S
C55 H27 0.930 . S
C55 C54 1.390 . S
C55 C56 1.392 . S
C56 H28 0.929 . S
C56 C53 1.391 . S
C56 C55 1.392 . S
N57 Co1 2.257 . S
N57 C54 1.391 . S
N57 C58 1.388 . S
C58 H29 0.930 . S
C58 C53 1.391 . S
C58 N57 1.388 . S
Co59 O61 2.143 . S
Co59 O67 2.074 . S
Co59 O70 2.093 . S
Co59 O83 2.097 . S
Co59 N100 2.151 . S
Co59 N108 2.214 . S
Co60 O61 2.160 . S
Co60 O66 2.058 . S
Co60 O76 2.057 . S
Co60 O91 2.037 . S
Co60 N95 2.145 . S
Co60 N116 2.257 . S
O61 Co59 2.143 . S
O61 Co60 2.160 . S
C62 O63 1.278 . S
C62 O70 1.224 . S
O63 C62 1.278 . S
C64 O65 1.245 . S
C64 O76 1.232 . S
O65 C64 1.245 . S
O66 Co60 2.058 . S
O66 C92 1.269 . S
O67 Co59 2.074 . S
O67 C92 1.257 . S
H68 C93 0.930 . S
H69 C99 0.930 . S
O70 Co59 2.093 . S
O70 C62 1.224 . S
H71 C103 0.929 . S
H72 C105 0.930 . S
H73 C106 0.930 . S
H74 C104 0.929 . S
H75 C107 0.928 . S
O76 Co60 2.057 . S
O76 C64 1.232 . S
H77 C96 0.929 . S
H78 C97 0.929 . S
H79 C109 0.931 . S
H80 C101 0.929 . S
H81 C110 0.930 . S
H82 C102 0.931 . S
O83 Co59 2.097 . S
O83 C111 1.214 . S
H84 C112 0.929 . S
H85 C113 0.929 . S
H86 C114 0.930 . S
H87 C115 0.929 . S
H88 C117 0.930 . S
H89 C94 0.930 . S
H90 C98 0.930 . S
O91 Co60 2.037 . S
O91 C111 1.234 . S
C92 O66 1.269 . S
C92 O67 1.257 . S
C93 H68 0.930 . S
C93 C96 1.388 . S
C93 C98 1.418 . S
C94 H89 0.930 . S
C94 C97 1.404 . S
C94 C98 1.353 . S
N95 Co60 2.145 . S
N95 C96 1.397 . S
N95 C97 1.334 . S
C96 H77 0.929 . S
C96 C93 1.388 . S
C96 N95 1.397 . S
C97 H78 0.929 . S
C97 C94 1.404 . S
C97 N95 1.334 . S
C98 H90 0.930 . S
C98 C93 1.418 . S
C98 C94 1.353 . S
C99 H69 0.930 . S
C99 N100 1.330 . S
C99 C101 1.446 1_565 S
N100 Co59 2.151 . S
N100 C99 1.330 . S
N100 C104 1.418 1_565 S
C101 H80 0.929 . S
C101 C99 1.446 1_545 S
C101 C102 1.332 . S
C102 H82 0.931 . S
C102 C101 1.332 . S
C102 C103 1.267 . S
C103 H71 0.929 . S
C103 C102 1.267 . S
C103 C104 1.251 . S
C104 H74 0.929 . S
C104 N100 1.418 1_545 S
C104 C103 1.251 . S
C105 H72 0.930 . S
C105 C107 1.406 . S
C105 C110 1.261 . S
C106 H73 0.930 . S
C106 N108 1.325 . S
C106 C109 1.357 . S
C107 H75 0.928 . S
C107 C105 1.406 . S
C107 N108 1.261 . S
N108 Co59 2.214 . S
N108 C106 1.325 . S
N108 C107 1.261 . S
C109 H79 0.931 . S
C109 C106 1.357 . S
C109 C110 1.312 . S
C110 H81 0.930 . S
C110 C105 1.261 . S
C110 C109 1.312 . S
C111 O83 1.214 . S
C111 O91 1.234 . S
C112 H84 0.929 . S
C112 C115 1.391 . S
C112 C117 1.391 . S
C113 H85 0.929 . S
C113 C114 1.390 . S
C113 N116 1.391 . S
C114 H86 0.930 . S
C114 C113 1.390 . S
C114 C115 1.392 . S
C115 H87 0.929 . S
C115 C112 1.391 . S
C115 C114 1.392 . S
N116 Co60 2.257 . S
N116 C113 1.391 . S
N116 C117 1.388 . S
C117 H88 0.930 . S
C117 C112 1.391 . S
C117 N116 1.388 . S
Co118 O120 2.143 . S
Co118 O126 2.074 . S
Co118 O129 2.093 . S
Co118 O142 2.097 . S
Co118 N159 2.151 . S
Co118 N167 2.214 . S
Co119 O120 2.160 . S
Co119 O125 2.058 . S
Co119 O135 2.057 . S
Co119 O150 2.037 . S
Co119 N154 2.145 . S
Co119 N175 2.257 . S
O120 Co118 2.143 . S
O120 Co119 2.160 . S
C121 O122 1.278 . S
C121 O129 1.224 . S
O122 C121 1.278 . S
C123 O124 1.245 . S
C123 O135 1.232 . S
O124 C123 1.245 . S
O125 Co119 2.058 . S
O125 C151 1.269 . S
O126 Co118 2.074 . S
O126 C151 1.257 . S
H127 C152 0.930 . S
H128 C158 0.930 . S
O129 Co118 2.093 . S
O129 C121 1.224 . S
H130 C162 0.929 . S
H131 C164 0.930 . S
H132 C165 0.930 . S
H133 C163 0.929 . S
H134 C166 0.928 . S
O135 Co119 2.057 . S
O135 C123 1.232 . S
H136 C155 0.929 . S
H137 C156 0.929 . S
H138 C168 0.931 . S
H139 C160 0.929 . S
H140 C169 0.930 . S
H141 C161 0.931 . S
O142 Co118 2.097 . S
O142 C170 1.214 . S
H143 C171 0.929 . S
H144 C172 0.929 . S
H145 C173 0.930 . S
H146 C174 0.929 . S
H147 C176 0.930 . S
H148 C153 0.930 . S
H149 C157 0.930 . S
O150 Co119 2.037 . S
O150 C170 1.234 . S
C151 O125 1.269 . S
C151 O126 1.257 . S
C152 H127 0.930 . S
C152 C155 1.388 . S
C152 C157 1.418 . S
C153 H148 0.930 . S
C153 C156 1.404 . S
C153 C157 1.353 . S
N154 Co119 2.145 . S
N154 C155 1.397 . S
N154 C156 1.334 . S
C155 H136 0.929 . S
C155 C152 1.388 . S
C155 N154 1.397 . S
C156 H137 0.929 . S
C156 C153 1.404 . S
C156 N154 1.334 . S
C157 H149 0.930 . S
C157 C152 1.418 . S
C157 C153 1.353 . S
C158 H128 0.930 . S
C158 N159 1.330 . S
C158 C160 1.446 1_655 S
N159 Co118 2.151 . S
N159 C158 1.330 . S
N159 C163 1.418 1_655 S
C160 H139 0.929 . S
C160 C158 1.446 1_455 S
C160 C161 1.332 . S
C161 H141 0.931 . S
C161 C160 1.332 . S
C161 C162 1.267 . S
C162 H130 0.929 . S
C162 C161 1.267 . S
C162 C163 1.251 . S
C163 H133 0.929 . S
C163 N159 1.418 1_455 S
C163 C162 1.251 . S
C164 H131 0.930 . S
C164 C166 1.406 . S
C164 C169 1.261 . S
C165 H132 0.930 . S
C165 N167 1.325 . S
C165 C168 1.357 . S
C166 H134 0.928 . S
C166 C164 1.406 . S
C166 N167 1.261 . S
N167 Co118 2.214 . S
N167 C165 1.325 . S
N167 C166 1.261 . S
C168 H138 0.931 . S
C168 C165 1.357 . S
C168 C169 1.312 . S
C169 H140 0.930 . S
C169 C164 1.261 . S
C169 C168 1.312 . S
C170 O142 1.214 . S
C170 O150 1.234 . S
C171 H143 0.929 . S
C171 C174 1.391 . S
C171 C176 1.391 . S
C172 H144 0.929 . S
C172 C173 1.390 . S
C172 N175 1.391 . S
C173 H145 0.930 . S
C173 C172 1.390 . S
C173 C174 1.392 . S
C174 H146 0.929 . S
C174 C171 1.391 . S
C174 C173 1.392 . S
N175 Co119 2.257 . S
N175 C172 1.391 . S
N175 C176 1.388 . S
C176 H147 0.930 . S
C176 C171 1.391 . S
C176 N175 1.388 . S
Co177 O179 2.143 . S
Co177 O185 2.074 . S
Co177 O188 2.093 . S
Co177 O201 2.097 . S
Co177 N218 2.151 . S
Co177 N226 2.214 . S
Co178 O179 2.160 . S
Co178 O184 2.058 . S
Co178 O194 2.057 . S
Co178 O209 2.037 . S
Co178 N213 2.145 . S
Co178 N234 2.257 . S
O179 Co177 2.143 . S
O179 Co178 2.160 . S
C180 O181 1.278 . S
C180 O188 1.224 . S
O181 C180 1.278 . S
C182 O183 1.245 . S
C182 O194 1.232 . S
O183 C182 1.245 . S
O184 Co178 2.058 . S
O184 C210 1.269 . S
O185 Co177 2.074 . S
O185 C210 1.257 . S
H186 C211 0.930 . S
H187 C217 0.930 . S
O188 Co177 2.093 . S
O188 C180 1.224 . S
H189 C221 0.929 . S
H190 C223 0.930 . S
H191 C224 0.930 . S
H192 C222 0.929 . S
H193 C225 0.928 . S
O194 Co178 2.057 . S
O194 C182 1.232 . S
H195 C214 0.929 . S
H196 C215 0.929 . S
H197 C227 0.931 . S
H198 C219 0.929 . S
H199 C228 0.930 . S
H200 C220 0.931 . S
O201 Co177 2.097 . S
O201 C229 1.214 . S
H202 C230 0.929 . S
H203 C231 0.929 . S
H204 C232 0.930 . S
H205 C233 0.929 . S
H206 C235 0.930 . S
H207 C212 0.930 . S
H208 C216 0.930 . S
O209 Co178 2.037 . S
O209 C229 1.234 . S
C210 O184 1.269 . S
C210 O185 1.257 . S
C211 H186 0.930 . S
C211 C214 1.388 . S
C211 C216 1.418 . S
C212 H207 0.930 . S
C212 C215 1.404 . S
C212 C216 1.353 . S
N213 Co178 2.145 . S
N213 C214 1.397 . S
N213 C215 1.334 . S
C214 H195 0.929 . S
C214 C211 1.388 . S
C214 N213 1.397 . S
C215 H196 0.929 . S
C215 C212 1.404 . S
C215 N213 1.334 . S
C216 H208 0.930 . S
C216 C211 1.418 . S
C216 C212 1.353 . S
C217 H187 0.930 . S
C217 N218 1.330 . S
C217 C219 1.446 1_545 S
N218 Co177 2.151 . S
N218 C217 1.330 . S
N218 C222 1.418 1_545 S
C219 H198 0.929 . S
C219 C217 1.446 1_565 S
C219 C220 1.332 . S
C220 H200 0.931 . S
C220 C219 1.332 . S
C220 C221 1.267 . S
C221 H189 0.929 . S
C221 C220 1.267 . S
C221 C222 1.251 . S
C222 H192 0.929 . S
C222 N218 1.418 1_565 S
C222 C221 1.251 . S
C223 H190 0.930 . S
C223 C225 1.406 . S
C223 C228 1.261 . S
C224 H191 0.930 . S
C224 N226 1.325 . S
C224 C227 1.357 . S
C225 H193 0.928 . S
C225 C223 1.406 . S
C225 N226 1.261 . S
N226 Co177 2.214 . S
N226 C224 1.325 . S
N226 C225 1.261 . S
C227 H197 0.931 . S
C227 C224 1.357 . S
C227 C228 1.312 . S
C228 H199 0.930 . S
C228 C223 1.261 . S
C228 C227 1.312 . S
C229 O201 1.214 . S
C229 O209 1.234 . S
C230 H202 0.929 . S
C230 C233 1.391 . S
C230 C235 1.391 . S
C231 H203 0.929 . S
C231 C232 1.390 . S
C231 N234 1.391 . S
C232 H204 0.930 . S
C232 C231 1.390 . S
C232 C233 1.392 . S
C233 H205 0.929 . S
C233 C230 1.391 . S
C233 C232 1.392 . S
N234 Co178 2.257 . S
N234 C231 1.391 . S
N234 C235 1.388 . S
C235 H206 0.930 . S
C235 C230 1.391 . S
C235 N234 1.388 . S
Co236 O238 2.143 . S
Co236 O244 2.074 . S
Co236 O247 2.093 . S
Co236 O260 2.097 . S
Co236 N277 2.151 . S
Co236 N285 2.214 . S
Co237 O238 2.160 . S
Co237 O243 2.058 . S
Co237 O253 2.057 . S
Co237 O268 2.037 . S
Co237 N272 2.145 . S
Co237 N293 2.257 . S
O238 Co236 2.143 . S
O238 Co237 2.160 . S
C239 O240 1.278 . S
C239 O247 1.224 . S
O240 C239 1.278 . S
C241 O242 1.245 . S
C241 O253 1.232 . S
O242 C241 1.245 . S
O243 Co237 2.058 . S
O243 C269 1.269 . S
O244 Co236 2.074 . S
O244 C269 1.257 . S
H245 C270 0.930 . S
H246 C276 0.930 . S
O247 Co236 2.093 . S
O247 C239 1.224 . S
H248 C280 0.929 . S
H249 C282 0.930 . S
H250 C283 0.930 . S
H251 C281 0.929 . S
H252 C284 0.928 . S
O253 Co237 2.057 . S
O253 C241 1.232 . S
H254 C273 0.937 . S
H255 C274 0.929 . S
H256 C286 0.931 . S
H257 C278 0.929 . S
H258 C287 0.930 . S
H259 C279 0.931 . S
O260 Co236 2.097 . S
O260 C288 1.214 . S
H261 C289 0.929 . S
H262 C290 0.929 . S
H263 C291 0.930 . S
H264 C292 0.929 . S
H265 C294 0.930 . S
H266 C271 0.930 . S
H267 C275 0.930 . S
O268 Co237 2.037 . S
O268 C288 1.234 . S
C269 O243 1.269 . S
C269 O244 1.257 . S
C270 H245 0.930 . S
C270 C273 1.388 . S
C270 C275 1.418 . S
C271 H266 0.930 . S
C271 C274 1.404 1_556 S
C271 C275 1.353 . S
N272 Co237 2.145 . S
N272 C273 1.397 1_554 S
N272 C274 1.334 . S
C273 H254 0.937 . S
C273 C270 1.388 . S
C273 N272 1.397 1_556 S
C274 H255 0.929 . S
C274 C271 1.404 1_554 S
C274 N272 1.334 . S
C275 H267 0.930 . S
C275 C270 1.418 . S
C275 C271 1.353 . S
C276 H246 0.930 . S
C276 N277 1.330 . S
C276 C278 1.446 1_655 S
N277 Co236 2.151 . S
N277 C276 1.330 . S
N277 C281 1.418 1_655 S
C278 H257 0.929 . S
C278 C276 1.446 1_455 S
C278 C279 1.332 . S
C279 H259 0.931 . S
C279 C278 1.332 . S
C279 C280 1.267 . S
C280 H248 0.929 . S
C280 C279 1.267 . S
C280 C281 1.251 . S
C281 H251 0.929 . S
C281 N277 1.418 1_455 S
C281 C280 1.251 . S
C282 H249 0.930 . S
C282 C284 1.406 . S
C282 C287 1.261 . S
C283 H250 0.930 . S
C283 N285 1.325 . S
C283 C286 1.357 . S
C284 H252 0.928 . S
C284 C282 1.406 . S
C284 N285 1.261 . S
N285 Co236 2.214 . S
N285 C283 1.325 . S
N285 C284 1.261 . S
C286 H256 0.931 . S
C286 C283 1.357 . S
C286 C287 1.312 . S
C287 H258 0.930 . S
C287 C282 1.261 . S
C287 C286 1.312 . S
C288 O260 1.214 . S
C288 O268 1.234 . S
C289 H261 0.929 . S
C289 C292 1.391 . S
C289 C294 1.391 . S
C290 H262 0.929 . S
C290 C291 1.390 . S
C290 N293 1.391 . S
C291 H263 0.930 . S
C291 C290 1.390 . S
C291 C292 1.392 . S
C292 H264 0.929 . S
C292 C289 1.391 . S
C292 C291 1.392 . S
N293 Co237 2.257 . S
N293 C290 1.391 . S
N293 C294 1.388 . S
C294 H265 0.930 . S
C294 C289 1.391 . S
C294 N293 1.388 . S
Co295 O297 2.143 . S
Co295 O303 2.074 . S
Co295 O306 2.093 . S
Co295 O319 2.097 . S
Co295 N336 2.151 . S
Co295 N344 2.214 . S
Co296 O297 2.160 . S
Co296 O302 2.058 . S
Co296 O312 2.057 . S
Co296 O327 2.037 . S
Co296 N331 2.145 . S
Co296 N352 2.257 . S
O297 Co295 2.143 . S
O297 Co296 2.160 . S
C298 O299 1.278 . S
C298 O306 1.224 . S
O299 C298 1.278 . S
C300 O301 1.245 . S
C300 O312 1.232 . S
O301 C300 1.245 . S
O302 Co296 2.058 . S
O302 C328 1.269 . S
O303 Co295 2.074 . S
O303 C328 1.257 . S
H304 C329 0.930 . S
H305 C335 0.930 . S
O306 Co295 2.093 . S
O306 C298 1.224 . S
H307 C339 0.929 . S
H308 C341 0.930 . S
H309 C342 0.930 . S
H310 C340 0.929 . S
H311 C343 0.928 . S
O312 Co296 2.057 . S
O312 C300 1.232 . S
H313 C332 0.937 . S
H314 C333 0.929 . S
H315 C345 0.931 . S
H316 C337 0.929 . S
H317 C346 0.930 . S
H318 C338 0.931 . S
O319 Co295 2.097 . S
O319 C347 1.214 . S
H320 C348 0.929 . S
H321 C349 0.929 . S
H322 C350 0.930 . S
H323 C351 0.929 . S
H324 C353 0.930 . S
H325 C330 0.930 . S
H326 C334 0.930 . S
O327 Co296 2.037 . S
O327 C347 1.234 . S
C328 O302 1.269 . S
C328 O303 1.257 . S
C329 H304 0.930 . S
C329 C332 1.388 . S
C329 C334 1.418 . S
C330 H325 0.930 . S
C330 C333 1.404 1_554 S
C330 C334 1.353 . S
N331 Co296 2.145 . S
N331 C332 1.397 1_556 S
N331 C333 1.334 . S
C332 H313 0.937 . S
C332 C329 1.388 . S
C332 N331 1.397 1_554 S
C333 H314 0.929 . S
C333 C330 1.404 1_556 S
C333 N331 1.334 . S
C334 H326 0.930 . S
C334 C329 1.418 . S
C334 C330 1.353 . S
C335 H305 0.930 . S
C335 N336 1.330 . S
C335 C337 1.446 1_545 S
N336 Co295 2.151 . S
N336 C335 1.330 . S
N336 C340 1.418 1_545 S
C337 H316 0.929 . S
C337 C335 1.446 1_565 S
C337 C338 1.332 . S
C338 H318 0.931 . S
C338 C337 1.332 . S
C338 C339 1.267 . S
C339 H307 0.929 . S
C339 C338 1.267 . S
C339 C340 1.251 . S
C340 H310 0.929 . S
C340 N336 1.418 1_565 S
C340 C339 1.251 . S
C341 H308 0.930 . S
C341 C343 1.406 . S
C341 C346 1.261 . S
C342 H309 0.930 . S
C342 N344 1.325 . S
C342 C345 1.357 . S
C343 H311 0.928 . S
C343 C341 1.406 . S
C343 N344 1.261 . S
N344 Co295 2.214 . S
N344 C342 1.325 . S
N344 C343 1.261 . S
C345 H315 0.931 . S
C345 C342 1.357 . S
C345 C346 1.312 . S
C346 H317 0.930 . S
C346 C341 1.261 . S
C346 C345 1.312 . S
C347 O319 1.214 . S
C347 O327 1.234 . S
C348 H320 0.929 . S
C348 C351 1.391 . S
C348 C353 1.391 . S
C349 H321 0.929 . S
C349 C350 1.390 . S
C349 N352 1.391 . S
C350 H322 0.930 . S
C350 C349 1.390 . S
C350 C351 1.392 . S
C351 H323 0.929 . S
C351 C348 1.391 . S
C351 C350 1.392 . S
N352 Co296 2.257 . S
N352 C349 1.391 . S
N352 C353 1.388 . S
C353 H324 0.930 . S
C353 C348 1.391 . S
C353 N352 1.388 . S
Co354 O356 2.143 . S
Co354 O362 2.074 . S
Co354 O365 2.093 . S
Co354 O378 2.097 . S
Co354 N395 2.151 . S
Co354 N403 2.214 . S
Co355 O356 2.160 . S
Co355 O361 2.058 . S
Co355 O371 2.057 . S
Co355 O386 2.037 . S
Co355 N390 2.145 . S
Co355 N411 2.257 . S
O356 Co354 2.143 . S
O356 Co355 2.160 . S
C357 O358 1.278 . S
C357 O365 1.224 . S
O358 C357 1.278 . S
C359 O360 1.245 . S
C359 O371 1.232 . S
O360 C359 1.245 . S
O361 Co355 2.058 . S
O361 C387 1.269 . S
O362 Co354 2.074 . S
O362 C387 1.257 . S
H363 C388 0.930 . S
H364 C394 0.930 . S
O365 Co354 2.093 . S
O365 C357 1.224 . S
H366 C398 0.929 . S
H367 C400 0.930 . S
H368 C401 0.930 . S
H369 C399 0.929 . S
H370 C402 0.928 . S
O371 Co355 2.057 . S
O371 C359 1.232 . S
H372 C391 0.937 . S
H373 C392 0.929 . S
H374 C404 0.931 . S
H375 C396 0.929 . S
H376 C405 0.930 . S
H377 C397 0.931 . S
O378 Co354 2.097 . S
O378 C406 1.214 . S
H379 C407 0.929 . S
H380 C408 0.929 . S
H381 C409 0.930 . S
H382 C410 0.929 . S
H383 C412 0.930 . S
H384 C389 0.930 . S
H385 C393 0.930 . S
O386 Co355 2.037 . S
O386 C406 1.234 . S
C387 O361 1.269 . S
C387 O362 1.257 . S
C388 H363 0.930 . S
C388 C391 1.388 . S
C388 C393 1.418 . S
C389 H384 0.930 . S
C389 C392 1.404 1_556 S
C389 C393 1.353 . S
N390 Co355 2.145 . S
N390 C391 1.397 1_554 S
N390 C392 1.334 . S
C391 H372 0.937 . S
C391 C388 1.388 . S
C391 N390 1.397 1_556 S
C392 H373 0.929 . S
C392 C389 1.404 1_554 S
C392 N390 1.334 . S
C393 H385 0.930 . S
C393 C388 1.418 . S
C393 C389 1.353 . S
C394 H364 0.930 . S
C394 N395 1.330 . S
C394 C396 1.446 1_455 S
N395 Co354 2.151 . S
N395 C394 1.330 . S
N395 C399 1.418 1_455 S
C396 H375 0.929 . S
C396 C394 1.446 1_655 S
C396 C397 1.332 . S
C397 H377 0.931 . S
C397 C396 1.332 . S
C397 C398 1.267 . S
C398 H366 0.929 . S
C398 C397 1.267 . S
C398 C399 1.251 . S
C399 H369 0.929 . S
C399 N395 1.418 1_655 S
C399 C398 1.251 . S
C400 H367 0.930 . S
C400 C402 1.406 . S
C400 C405 1.261 . S
C401 H368 0.930 . S
C401 N403 1.325 . S
C401 C404 1.357 . S
C402 H370 0.928 . S
C402 C400 1.406 . S
C402 N403 1.261 . S
N403 Co354 2.214 . S
N403 C401 1.325 . S
N403 C402 1.261 . S
C404 H374 0.931 . S
C404 C401 1.357 . S
C404 C405 1.312 . S
C405 H376 0.930 . S
C405 C400 1.261 . S
C405 C404 1.312 . S
C406 O378 1.214 . S
C406 O386 1.234 . S
C407 H379 0.929 . S
C407 C410 1.391 . S
C407 C412 1.391 . S
C408 H380 0.929 . S
C408 C409 1.390 . S
C408 N411 1.391 . S
C409 H381 0.930 . S
C409 C408 1.390 . S
C409 C410 1.392 . S
C410 H382 0.929 . S
C410 C407 1.391 . S
C410 C409 1.392 . S
N411 Co355 2.257 . S
N411 C408 1.391 . S
N411 C412 1.388 . S
C412 H383 0.930 . S
C412 C407 1.391 . S
C412 N411 1.388 . S
Co413 O415 2.143 . S
Co413 O421 2.074 . S
Co413 O424 2.093 . S
Co413 O437 2.097 . S
Co413 N454 2.151 . S
Co413 N462 2.214 . S
Co414 O415 2.160 . S
Co414 O420 2.058 . S
Co414 O430 2.057 . S
Co414 O445 2.037 . S
Co414 N449 2.145 . S
Co414 N470 2.257 . S
O415 Co413 2.143 . S
O415 Co414 2.160 . S
C416 O417 1.278 . S
C416 O424 1.224 . S
O417 C416 1.278 . S
C418 O419 1.245 . S
C418 O430 1.232 . S
O419 C418 1.245 . S
O420 Co414 2.058 . S
O420 C446 1.269 . S
O421 Co413 2.074 . S
O421 C446 1.257 . S
H422 C447 0.930 . S
H423 C453 0.930 . S
O424 Co413 2.093 . S
O424 C416 1.224 . S
H425 C457 0.929 . S
H426 C459 0.930 . S
H427 C460 0.930 . S
H428 C458 0.929 . S
H429 C461 0.928 . S
O430 Co414 2.057 . S
O430 C418 1.232 . S
H431 C450 0.937 . S
H432 C451 0.929 . S
H433 C463 0.931 . S
H434 C455 0.929 . S
H435 C464 0.930 . S
H436 C456 0.931 . S
O437 Co413 2.097 . S
O437 C465 1.214 . S
H438 C466 0.929 . S
H439 C467 0.929 . S
H440 C468 0.930 . S
H441 C469 0.929 . S
H442 C471 0.930 . S
H443 C448 0.930 . S
H444 C452 0.930 . S
O445 Co414 2.037 . S
O445 C465 1.234 . S
C446 O420 1.269 . S
C446 O421 1.257 . S
C447 H422 0.930 . S
C447 C450 1.388 . S
C447 C452 1.418 . S
C448 H443 0.930 . S
C448 C451 1.404 1_554 S
C448 C452 1.353 . S
N449 Co414 2.145 . S
N449 C450 1.397 1_556 S
N449 C451 1.334 . S
C450 H431 0.937 . S
C450 C447 1.388 . S
C450 N449 1.397 1_554 S
C451 H432 0.929 . S
C451 C448 1.404 1_556 S
C451 N449 1.334 . S
C452 H444 0.930 . S
C452 C447 1.418 . S
C452 C448 1.353 . S
C453 H423 0.930 . S
C453 N454 1.330 . S
C453 C455 1.446 1_565 S
N454 Co413 2.151 . S
N454 C453 1.330 . S
N454 C458 1.418 1_565 S
C455 H434 0.929 . S
C455 C453 1.446 1_545 S
C455 C456 1.332 . S
C456 H436 0.931 . S
C456 C455 1.332 . S
C456 C457 1.267 . S
C457 H425 0.929 . S
C457 C456 1.267 . S
C457 C458 1.251 . S
C458 H428 0.929 . S
C458 N454 1.418 1_545 S
C458 C457 1.251 . S
C459 H426 0.930 . S
C459 C461 1.406 . S
C459 C464 1.261 . S
C460 H427 0.930 . S
C460 N462 1.325 . S
C460 C463 1.357 . S
C461 H429 0.928 . S
C461 C459 1.406 . S
C461 N462 1.261 . S
N462 Co413 2.214 . S
N462 C460 1.325 . S
N462 C461 1.261 . S
C463 H433 0.931 . S
C463 C460 1.357 . S
C463 C464 1.312 . S
C464 H435 0.930 . S
C464 C459 1.261 . S
C464 C463 1.312 . S
C465 O437 1.214 . S
C465 O445 1.234 . S
C466 H438 0.929 . S
C466 C469 1.391 . S
C466 C471 1.391 . S
C467 H439 0.929 . S
C467 C468 1.390 . S
C467 N470 1.391 . S
C468 H440 0.930 . S
C468 C467 1.390 . S
C468 C469 1.392 . S
C469 H441 0.929 . S
C469 C466 1.391 . S
C469 C468 1.392 . S
N470 Co414 2.257 . S
N470 C467 1.391 . S
N470 C471 1.388 . S
C471 H442 0.930 . S
C471 C466 1.391 . S
C471 N470 1.388 . S
C472 C473 1.391 . S
C472 C474 1.394 . S
C472 H488 0.931 . S
C473 C472 1.391 . S
C473 C477 1.376 . S
C474 C472 1.394 . S
C474 C475 1.369 . S
C474 C478 1.531 . S
C475 C474 1.369 . S
C475 C476 1.410 1_655 S
C475 C483 1.503 1_655 S
C476 C475 1.410 1_455 S
C476 C477 1.392 1_455 S
C476 C479 1.511 . S
C477 C473 1.376 . S
C477 C476 1.392 1_655 S
C477 H489 0.929 . S
C478 C474 1.531 . S
C478 H490 0.960 . S
C478 H491 0.962 . S
C478 H492 0.960 . S
C479 C476 1.511 . S
C479 H493 0.961 . S
C479 H494 0.961 . S
C479 H495 0.961 . S
C480 C481 1.370 . S
C480 C482 1.363 . S
C480 H496 0.931 . S
C481 C480 1.370 . S
C481 C485 1.408 . S
C482 C480 1.363 . S
C482 C483 1.370 . S
C482 C486 1.524 1_455 S
C483 C475 1.503 1_455 S
C483 C482 1.370 . S
C483 C484 1.403 . S
C484 C483 1.403 . S
C484 C485 1.404 . S
C484 C487 1.539 . S
C485 C481 1.408 . S
C485 C484 1.404 . S
C485 H497 0.930 . S
C486 C482 1.524 1_655 S
C486 H498 0.956 . S
C486 H499 0.961 . S
C486 H500 0.961 . S
C487 C484 1.539 . S
C487 H501 0.958 . S
C487 H502 0.961 . S
C487 H503 0.960 . S
H488 C472 0.931 . S
H489 C477 0.929 . S
H490 C478 0.960 . S
H491 C478 0.962 . S
H492 C478 0.960 . S
H493 C479 0.961 . S
H494 C479 0.961 . S
H495 C479 0.961 . S
H496 C480 0.931 . S
H497 C485 0.930 . S
H498 C486 0.956 . S
H499 C486 0.961 . S
H500 C486 0.961 . S
H501 C487 0.958 . S
H502 C487 0.961 . S
H503 C487 0.960 . S
C504 C505 1.391 . S
C504 C506 1.394 . S
C504 H520 0.931 . S
C505 C504 1.391 . S
C505 C509 1.376 . S
C506 C504 1.394 . S
C506 C507 1.369 . S
C506 C510 1.531 1_545 S
C507 C506 1.369 . S
C507 C508 1.410 . S
C507 C515 1.503 1_545 S
C508 C507 1.410 . S
C508 C509 1.392 . S
C508 C511 1.511 . S
C509 C505 1.376 . S
C509 C508 1.392 . S
C509 H521 0.929 . S
C510 C506 1.531 1_565 S
C510 H522 0.960 . S
C510 H523 0.962 . S
C510 H524 0.960 . S
C511 C508 1.511 . S
C511 H525 0.961 . S
C511 H526 0.961 . S
C511 H527 0.961 . S
C512 C513 1.370 . S
C512 C514 1.363 . S
C512 H528 0.931 . S
C513 C512 1.370 . S
C513 C517 1.408 . S
C514 C512 1.363 . S
C514 C515 1.370 . S
C514 C518 1.524 . S
C515 C507 1.503 1_565 S
C515 C514 1.370 . S
C515 C516 1.403 1_565 S
C516 C515 1.403 1_545 S
C516 C517 1.404 1_545 S
C516 C519 1.539 . S
C517 C513 1.408 . S
C517 C516 1.404 1_565 S
C517 H529 0.930 . S
C518 C514 1.524 . S
C518 H530 0.956 . S
C518 H531 0.961 . S
C518 H532 0.961 . S
C519 C516 1.539 . S
C519 H533 0.958 . S
C519 H534 0.961 . S
C519 H535 0.960 . S
H520 C504 0.931 . S
H521 C509 0.929 . S
H522 C510 0.960 . S
H523 C510 0.962 . S
H524 C510 0.960 . S
H525 C511 0.961 . S
H526 C511 0.961 . S
H527 C511 0.961 . S
H528 C512 0.931 . S
H529 C517 0.930 . S
H530 C518 0.956 . S
H531 C518 0.961 . S
H532 C518 0.961 . S
H533 C519 0.958 . S
H534 C519 0.961 . S
H535 C519 0.960 . S
C536 C537 1.391 . S
C536 C538 1.394 . S
C536 H552 0.931 . S
C537 C536 1.391 . S
C537 C541 1.376 . S
C538 C536 1.394 . S
C538 C539 1.369 . S
C538 C542 1.531 . S
C539 C538 1.369 . S
C539 C540 1.410 . S
C539 C547 1.503 1_655 S
C540 C539 1.410 . S
C540 C541 1.392 . S
C540 C543 1.511 1_655 S
C541 C537 1.376 . S
C541 C540 1.392 . S
C541 H553 0.929 . S
C542 C538 1.531 . S
C542 H554 0.960 1_655 S
C542 H555 0.962 . S
C542 H556 0.960 . S
C543 C540 1.511 1_455 S
C543 H557 0.961 1_455 S
C543 H558 0.961 . S
C543 H559 0.961 . S
C544 C545 1.370 . S
C544 C546 1.363 1_455 S
C544 H560 0.931 1_455 S
C545 C544 1.370 . S
C545 C549 1.408 . S
C546 C544 1.363 1_655 S
C546 C547 1.370 1_655 S
C546 C550 1.524 . S
C547 C539 1.503 1_455 S
C547 C546 1.370 1_455 S
C547 C548 1.403 . S
C548 C547 1.403 . S
C548 C549 1.404 . S
C548 C551 1.539 . S
C549 C545 1.408 . S
C549 C548 1.404 . S
C549 H561 0.930 . S
C550 C546 1.524 . S
C550 H562 0.956 . S
C550 H563 0.961 . S
C550 H564 0.961 . S
C551 C548 1.539 . S
C551 H565 0.958 . S
C551 H566 0.961 . S
C551 H567 0.960 . S
H552 C536 0.931 . S
H553 C541 0.929 . S
H554 C542 0.960 1_455 S
H555 C542 0.962 . S
H556 C542 0.960 . S
H557 C543 0.961 1_655 S
H558 C543 0.961 . S
H559 C543 0.961 . S
H560 C544 0.931 1_655 S
H561 C549 0.930 . S
H562 C550 0.956 . S
H563 C550 0.961 . S
H564 C550 0.961 . S
H565 C551 0.958 . S
H566 C551 0.961 . S
H567 C551 0.960 . S
C568 C569 1.391 . S
C568 C570 1.394 . S
C568 H584 0.931 . S
C569 C568 1.391 . S
C569 C573 1.376 . S
C570 C568 1.394 . S
C570 C571 1.369 . S
C570 C574 1.531 . S
C571 C570 1.369 . S
C571 C572 1.410 . S
C571 C579 1.503 1_545 S
C572 C571 1.410 . S
C572 C573 1.392 . S
C572 C575 1.511 . S
C573 C569 1.376 . S
C573 C572 1.392 . S
C573 H585 0.929 . S
C574 C570 1.531 . S
C574 H586 0.960 . S
C574 H587 0.962 1_545 S
C574 H588 0.960 . S
C575 C572 1.511 . S
C575 H589 0.961 . S
C575 H590 0.961 . S
C575 H591 0.961 . S
C576 C577 1.370 . S
C576 C578 1.363 . S
C576 H592 0.931 . S
C577 C576 1.370 . S
C577 C581 1.408 . S
C578 C576 1.363 . S
C578 C579 1.370 . S
C578 C582 1.524 . S
C579 C571 1.503 1_565 S
C579 C578 1.370 . S
C579 C580 1.403 1_565 S
C580 C579 1.403 1_545 S
C580 C581 1.404 1_545 S
C580 C583 1.539 . S
C581 C577 1.408 . S
C581 C580 1.404 1_565 S
C581 H593 0.930 1_565 S
C582 C578 1.524 . S
C582 H594 0.956 . S
C582 H595 0.961 . S
C582 H596 0.961 . S
C583 C580 1.539 . S
C583 H597 0.958 . S
C583 H598 0.961 . S
C583 H599 0.960 . S
H584 C568 0.931 . S
H585 C573 0.929 . S
H586 C574 0.960 . S
H587 C574 0.962 1_565 S
H588 C574 0.960 . S
H589 C575 0.961 . S
H590 C575 0.961 . S
H591 C575 0.961 . S
H592 C576 0.931 . S
H593 C581 0.930 1_545 S
H594 C582 0.956 . S
H595 C582 0.961 . S
H596 C582 0.961 . S
H597 C583 0.958 . S
H598 C583 0.961 . S
H599 C583 0.960 . S
C600 C601 1.391 1_565 S
C600 C602 1.394 1_565 S
C600 H616 0.931 . S
C601 C600 1.391 1_545 S
C601 C605 1.376 . S
C602 C600 1.394 1_545 S
C602 C603 1.369 . S
C602 C606 1.531 . S
C603 C602 1.369 . S
C603 C604 1.410 . S
C603 C611 1.503 . S
C604 C603 1.410 . S
C604 C605 1.392 . S
C604 C607 1.511 . S
C605 C601 1.376 . S
C605 C604 1.392 . S
C605 H617 0.929 . S
C606 C602 1.531 . S
C606 H618 0.960 . S
C606 H619 0.962 . S
C606 H620 0.960 1_545 S
C607 C604 1.511 . S
C607 H621 0.961 . S
C607 H622 0.961 . S
C607 H623 0.961 . S
C608 C609 1.370 . S
C608 C610 1.363 . S
C608 H624 0.931 . S
C609 C608 1.370 . S
C609 C613 1.408 . S
C610 C608 1.363 . S
C610 C611 1.370 . S
C610 C614 1.524 . S
C611 C603 1.503 . S
C611 C610 1.370 . S
C611 C612 1.403 . S
C612 C611 1.403 . S
C612 C613 1.404 . S
C612 C615 1.539 . S
C613 C609 1.408 . S
C613 C612 1.404 . S
C613 H625 0.930 . S
C614 C610 1.524 . S
C614 H626 0.956 . S
C614 H627 0.961 . S
C614 H628 0.961 . S
C615 C612 1.539 . S
C615 H629 0.958 . S
C615 H630 0.961 . S
C615 H631 0.960 . S
H616 C600 0.931 . S
H617 C605 0.929 . S
H618 C606 0.960 . S
H619 C606 0.962 . S
H620 C606 0.960 1_565 S
H621 C607 0.961 . S
H622 C607 0.961 . S
H623 C607 0.961 . S
H624 C608 0.931 . S
H625 C613 0.930 . S
H626 C614 0.956 . S
H627 C614 0.961 . S
H628 C614 0.961 . S
H629 C615 0.958 . S
H630 C615 0.961 . S
H631 C615 0.960 . S
C632 C633 1.391 . S
C632 C634 1.394 . S
C632 H648 0.931 . S
C633 C632 1.391 . S
C633 C637 1.376 . S
C634 C632 1.394 . S
C634 C635 1.369 . S
C634 C638 1.531 . S
C635 C634 1.369 . S
C635 C636 1.410 . S
C635 C643 1.503 . S
C636 C635 1.410 . S
C636 C637 1.392 . S
C636 C639 1.511 . S
C637 C633 1.376 . S
C637 C636 1.392 . S
C637 H649 0.929 . S
C638 C634 1.531 . S
C638 H650 0.960 . S
C638 H651 0.962 . S
C638 H652 0.960 . S
C639 C636 1.511 . S
C639 H653 0.961 . S
C639 H654 0.961 . S
C639 H655 0.961 . S
C640 C641 1.370 . S
C640 C642 1.363 . S
C640 H656 0.931 . S
C641 C640 1.370 . S
C641 C645 1.408 . S
C642 C640 1.363 . S
C642 C643 1.370 . S
C642 C646 1.524 . S
C643 C635 1.503 . S
C643 C642 1.370 . S
C643 C644 1.403 . S
C644 C643 1.403 . S
C644 C645 1.404 . S
C644 C647 1.539 . S
C645 C641 1.408 . S
C645 C644 1.404 . S
C645 H657 0.930 . S
C646 C642 1.524 . S
C646 H658 0.956 . S
C646 H659 0.961 . S
C646 H660 0.961 . S
C647 C644 1.539 . S
C647 H661 0.958 . S
C647 H662 0.961 . S
C647 H663 0.960 . S
H648 C632 0.931 . S
H649 C637 0.929 . S
H650 C638 0.960 . S
H651 C638 0.962 . S
H652 C638 0.960 . S
H653 C639 0.961 . S
H654 C639 0.961 . S
H655 C639 0.961 . S
H656 C640 0.931 . S
H657 C645 0.930 . S
H658 C646 0.956 . S
H659 C646 0.961 . S
H660 C646 0.961 . S
H661 C647 0.958 . S
H662 C647 0.961 . S
H663 C647 0.960 . S
C664 C665 1.391 . S
C664 C666 1.394 . S
C664 H680 0.931 1_565 S
C665 C664 1.391 . S
C665 C669 1.376 . S
C666 C664 1.394 . S
C666 C667 1.369 . S
C666 C670 1.531 . S
C667 C666 1.369 . S
C667 C668 1.410 . S
C667 C675 1.503 . S
C668 C667 1.410 . S
C668 C669 1.392 . S
C668 C671 1.511 . S
C669 C665 1.376 . S
C669 C668 1.392 . S
C669 H681 0.929 . S
C670 C666 1.531 . S
C670 H682 0.960 . S
C670 H683 0.962 . S
C670 H684 0.960 . S
C671 C668 1.511 . S
C671 H685 0.961 . S
C671 H686 0.961 . S
C671 H687 0.961 . S
C672 C673 1.370 . S
C672 C674 1.363 . S
C672 H688 0.931 . S
C673 C672 1.370 . S
C673 C677 1.408 . S
C674 C672 1.363 . S
C674 C675 1.370 . S
C674 C678 1.524 . S
C675 C667 1.503 . S
C675 C674 1.370 . S
C675 C676 1.403 . S
C676 C675 1.403 . S
C676 C677 1.404 . S
C676 C679 1.539 . S
C677 C673 1.408 . S
C677 C676 1.404 . S
C677 H689 0.930 . S
C678 C674 1.524 . S
C678 H690 0.956 . S
C678 H691 0.961 . S
C678 H692 0.961 . S
C679 C676 1.539 . S
C679 H693 0.958 . S
C679 H694 0.961 . S
C679 H695 0.960 . S
H680 C664 0.931 1_545 S
H681 C669 0.929 . S
H682 C670 0.960 . S
H683 C670 0.962 . S
H684 C670 0.960 . S
H685 C671 0.961 . S
H686 C671 0.961 . S
H687 C671 0.961 . S
H688 C672 0.931 . S
H689 C677 0.930 . S
H690 C678 0.956 . S
H691 C678 0.961 . S
H692 C678 0.961 . S
H693 C679 0.958 . S
H694 C679 0.961 . S
H695 C679 0.960 . S
C696 C697 1.391 . S
C696 C698 1.394 . S
C696 H712 0.931 . S
C697 C696 1.391 . S
C697 C701 1.376 . S
C698 C696 1.394 . S
C698 C699 1.369 . S
C698 C702 1.531 . S
C699 C698 1.369 . S
C699 C700 1.410 . S
C699 C707 1.503 . S
C700 C699 1.410 . S
C700 C701 1.392 . S
C700 C703 1.511 . S
C701 C697 1.376 . S
C701 C700 1.392 . S
C701 H713 0.929 . S
C702 C698 1.531 . S
C702 H714 0.960 . S
C702 H715 0.962 . S
C702 H716 0.960 . S
C703 C700 1.511 . S
C703 H717 0.961 . S
C703 H718 0.961 . S
C703 H719 0.961 . S
C704 C705 1.370 . S
C704 C706 1.363 . S
C704 H720 0.931 . S
C705 C704 1.370 . S
C705 C709 1.408 1_655 S
C706 C704 1.363 . S
C706 C707 1.370 . S
C706 C710 1.524 . S
C707 C699 1.503 . S
C707 C706 1.370 . S
C707 C708 1.403 . S
C708 C707 1.403 . S
C708 C709 1.404 1_655 S
C708 C711 1.539 . S
C709 C705 1.408 1_455 S
C709 C708 1.404 1_455 S
C709 H721 0.930 . S
C710 C706 1.524 . S
C710 H722 0.956 . S
C710 H723 0.961 . S
C710 H724 0.961 . S
C711 C708 1.539 . S
C711 H725 0.958 . S
C711 H726 0.961 1_655 S
C711 H727 0.960 . S
H712 C696 0.931 . S
H713 C701 0.929 . S
H714 C702 0.960 . S
H715 C702 0.962 . S
H716 C702 0.960 . S
H717 C703 0.961 . S
H718 C703 0.961 . S
H719 C703 0.961 . S
H720 C704 0.931 . S
H721 C709 0.930 . S
H722 C710 0.956 . S
H723 C710 0.961 . S
H724 C710 0.961 . S
H725 C711 0.958 . S
H726 C711 0.961 1_455 S
H727 C711 0.960 . S
C728 C729 1.391 1_565 S
C728 C730 1.394 1_566 S
C728 H744 0.931 . S
C729 C728 1.391 1_545 S
C729 C733 1.376 . S
C730 C728 1.394 1_544 S
C730 C731 1.369 1_554 S
C730 C734 1.531 . S
C731 C730 1.369 1_556 S
C731 C732 1.410 . S
C731 C739 1.503 1_556 S
C732 C731 1.410 . S
C732 C733 1.392 . S
C732 C735 1.511 . S
C733 C729 1.376 . S
C733 C732 1.392 . S
C733 H745 0.929 . S
C734 C730 1.531 . S
C734 H746 0.960 . S
C734 H747 0.962 . S
C734 H748 0.960 1_545 S
C735 C732 1.511 . S
C735 H749 0.961 . S
C735 H750 0.961 . S
C735 H751 0.961 . S
C736 C737 1.370 . S
C736 C738 1.363 . S
C736 H752 0.931 . S
C737 C736 1.370 . S
C737 C741 1.408 . S
C738 C736 1.363 . S
C738 C739 1.370 . S
C738 C742 1.524 . S
C739 C731 1.503 1_554 S
C739 C738 1.370 . S
C739 C740 1.403 . S
C740 C739 1.403 . S
C740 C741 1.404 . S
C740 C743 1.539 1_554 S
C741 C737 1.408 . S
C741 C740 1.404 . S
C741 H753 0.930 . S
C742 C738 1.524 . S
C742 H754 0.956 . S
C742 H755 0.961 1_554 S
C742 H756 0.961 . S
C743 C740 1.539 1_556 S
C743 H757 0.958 1_556 S
C743 H758 0.961 . S
C743 H759 0.960 . S
H744 C728 0.931 . S
H745 C733 0.929 . S
H746 C734 0.960 . S
H747 C734 0.962 . S
H748 C734 0.960 1_565 S
H749 C735 0.961 . S
H750 C735 0.961 . S
H751 C735 0.961 . S
H752 C736 0.931 . S
H753 C741 0.930 . S
H754 C742 0.956 . S
H755 C742 0.961 1_556 S
H756 C742 0.961 . S
H757 C743 0.958 1_554 S
H758 C743 0.961 . S
H759 C743 0.960 . S
C760 C761 1.391 . S
C760 C762 1.394 . S
C760 H776 0.931 . S
C761 C760 1.391 . S
C761 C765 1.376 . S
C762 C760 1.394 . S
C762 C763 1.369 . S
C762 C766 1.531 . S
C763 C762 1.369 . S
C763 C764 1.410 . S
C763 C771 1.503 1_556 S
C764 C763 1.410 . S
C764 C765 1.392 . S
C764 C767 1.511 1_556 S
C765 C761 1.376 . S
C765 C764 1.392 . S
C765 H777 0.929 . S
C766 C762 1.531 . S
C766 H778 0.960 . S
C766 H779 0.962 . S
C766 H780 0.960 . S
C767 C764 1.511 1_554 S
C767 H781 0.961 . S
C767 H782 0.961 . S
C767 H783 0.961 . S
C768 C769 1.370 . S
C768 C770 1.363 . S
C768 H784 0.931 . S
C769 C768 1.370 . S
C769 C773 1.408 1_455 S
C770 C768 1.363 . S
C770 C771 1.370 . S
C770 C774 1.524 . S
C771 C763 1.503 1_554 S
C771 C770 1.370 . S
C771 C772 1.403 1_554 S
C772 C771 1.403 1_556 S
C772 C773 1.404 1_456 S
C772 C775 1.539 . S
C773 C769 1.408 1_655 S
C773 C772 1.404 1_654 S
C773 H785 0.930 . S
C774 C770 1.524 . S
C774 H786 0.956 . S
C774 H787 0.961 . S
C774 H788 0.961 . S
C775 C772 1.539 . S
C775 H789 0.958 . S
C775 H790 0.961 1_455 S
C775 H791 0.960 . S
H776 C760 0.931 . S
H777 C765 0.929 . S
H778 C766 0.960 . S
H779 C766 0.962 . S
H780 C766 0.960 . S
H781 C767 0.961 . S
H782 C767 0.961 . S
H783 C767 0.961 . S
H784 C768 0.931 . S
H785 C773 0.930 . S
H786 C774 0.956 . S
H787 C774 0.961 . S
H788 C774 0.961 . S
H789 C775 0.958 . S
H790 C775 0.961 1_655 S
H791 C775 0.960 . S
C792 C793 1.391 . S
C792 C794 1.394 . S
C792 H808 0.931 . S
C793 C792 1.391 . S
C793 C797 1.376 . S
C794 C792 1.394 . S
C794 C795 1.369 . S
C794 C798 1.531 . S
C795 C794 1.369 . S
C795 C796 1.410 1_554 S
C795 C803 1.503 1_554 S
C796 C795 1.410 1_556 S
C796 C797 1.392 1_556 S
C796 C799 1.511 . S
C797 C793 1.376 . S
C797 C796 1.392 1_554 S
C797 H809 0.929 . S
C798 C794 1.531 . S
C798 H810 0.960 . S
C798 H811 0.962 . S
C798 H812 0.960 . S
C799 C796 1.511 . S
C799 H813 0.961 . S
C799 H814 0.961 . S
C799 H815 0.961 . S
C800 C801 1.370 . S
C800 C802 1.363 . S
C800 H816 0.931 1_565 S
C801 C800 1.370 . S
C801 C805 1.408 . S
C802 C800 1.363 . S
C802 C803 1.370 . S
C802 C806 1.524 1_556 S
C803 C795 1.503 1_556 S
C803 C802 1.370 . S
C803 C804 1.403 . S
C804 C803 1.403 . S
C804 C805 1.404 . S
C804 C807 1.539 . S
C805 C801 1.408 . S
C805 C804 1.404 . S
C805 H817 0.930 . S
C806 C802 1.524 1_554 S
C806 H818 0.956 . S
C806 H819 0.961 . S
C806 H820 0.961 . S
C807 C804 1.539 . S
C807 H821 0.958 . S
C807 H822 0.961 . S
C807 H823 0.960 . S
H808 C792 0.931 . S
H809 C797 0.929 . S
H810 C798 0.960 . S
H811 C798 0.962 . S
H812 C798 0.960 . S
H813 C799 0.961 . S
H814 C799 0.961 . S
H815 C799 0.961 . S
H816 C800 0.931 1_545 S
H817 C805 0.930 . S
H818 C806 0.956 . S
H819 C806 0.961 . S
H820 C806 0.961 . S
H821 C807 0.958 . S
H822 C807 0.961 . S
H823 C807 0.960 . S
C824 C825 1.391 . S
C824 C826 1.394 . S
C824 H840 0.931 . S
C825 C824 1.391 . S
C825 C829 1.376 . S
C826 C824 1.394 . S
C826 C827 1.369 . S
C826 C830 1.531 . S
C827 C826 1.369 . S
C827 C828 1.410 1_556 S
C827 C835 1.503 1_556 S
C828 C827 1.410 1_554 S
C828 C829 1.392 1_554 S
C828 C831 1.511 . S
C829 C825 1.376 . S
C829 C828 1.392 1_556 S
C829 H841 0.929 . S
C830 C826 1.531 . S
C830 H842 0.960 . S
C830 H843 0.962 . S
C830 H844 0.960 . S
C831 C828 1.511 . S
C831 H845 0.961 . S
C831 H846 0.961 . S
C831 H847 0.961 . S
C832 C833 1.370 . S
C832 C834 1.363 . S
C832 H848 0.931 . S
C833 C832 1.370 . S
C833 C837 1.408 . S
C834 C832 1.363 . S
C834 C835 1.370 . S
C834 C838 1.524 1_554 S
C835 C827 1.503 1_554 S
C835 C834 1.370 . S
C835 C836 1.403 . S
C836 C835 1.403 . S
C836 C837 1.404 . S
C836 C839 1.539 . S
C837 C833 1.408 . S
C837 C836 1.404 . S
C837 H849 0.930 1_655 S
C838 C834 1.524 1_556 S
C838 H850 0.956 . S
C838 H851 0.961 . S
C838 H852 0.961 . S
C839 C836 1.539 . S
C839 H853 0.958 . S
C839 H854 0.961 . S
C839 H855 0.960 . S
H840 C824 0.931 . S
H841 C829 0.929 . S
H842 C830 0.960 . S
H843 C830 0.962 . S
H844 C830 0.960 . S
H845 C831 0.961 . S
H846 C831 0.961 . S
H847 C831 0.961 . S
H848 C832 0.931 . S
H849 C837 0.930 1_455 S
H850 C838 0.956 . S
H851 C838 0.961 . S
H852 C838 0.961 . S
H853 C839 0.958 . S
H854 C839 0.961 . S
H855 C839 0.960 . S
C856 C857 1.391 . S
C856 C858 1.394 . S
C856 H872 0.931 . S
C857 C856 1.391 . S
C857 C861 1.376 . S
C858 C856 1.394 . S
C858 C859 1.369 . S
C858 C862 1.531 . S
C859 C858 1.369 . S
C859 C860 1.410 . S
C859 C867 1.503 . S
C860 C859 1.410 . S
C860 C861 1.392 . S
C860 C863 1.511 . S
C861 C857 1.376 . S
C861 C860 1.392 . S
C861 H873 0.929 . S
C862 C858 1.531 . S
C862 H874 0.960 . S
C862 H875 0.962 . S
C862 H876 0.960 . S
C863 C860 1.511 . S
C863 H877 0.961 . S
C863 H878 0.961 . S
C863 H879 0.961 . S
C864 C865 1.370 . S
C864 C866 1.363 . S
C864 H880 0.931 . S
C865 C864 1.370 . S
C865 C869 1.408 . S
C866 C864 1.363 . S
C866 C867 1.370 . S
C866 C870 1.524 . S
C867 C859 1.503 . S
C867 C866 1.370 . S
C867 C868 1.403 . S
C868 C867 1.403 . S
C868 C869 1.404 . S
C868 C871 1.539 . S
C869 C865 1.408 . S
C869 C868 1.404 . S
C869 H881 0.930 . S
C870 C866 1.524 . S
C870 H882 0.956 . S
C870 H883 0.961 . S
C870 H884 0.961 . S
C871 C868 1.539 . S
C871 H885 0.958 . S
C871 H886 0.961 . S
C871 H887 0.960 . S
H872 C856 0.931 . S
H873 C861 0.929 . S
H874 C862 0.960 . S
H875 C862 0.962 . S
H876 C862 0.960 . S
H877 C863 0.961 . S
H878 C863 0.961 . S
H879 C863 0.961 . S
H880 C864 0.931 . S
H881 C869 0.930 . S
H882 C870 0.956 . S
H883 C870 0.961 . S
H884 C870 0.961 . S
H885 C871 0.958 . S
H886 C871 0.961 . S
H887 C871 0.960 . S
C888 C889 1.391 . S
C888 C890 1.394 . S
C888 H904 0.931 . S
C889 C888 1.391 . S
C889 C893 1.376 . S
C890 C888 1.394 . S
C890 C891 1.369 . S
C890 C894 1.531 . S
C891 C890 1.369 . S
C891 C892 1.410 . S
C891 C899 1.503 . S
C892 C891 1.410 . S
C892 C893 1.392 . S
C892 C895 1.511 . S
C893 C889 1.376 . S
C893 C892 1.392 . S
C893 H905 0.929 . S
C894 C890 1.531 . S
C894 H906 0.960 . S
C894 H907 0.962 . S
C894 H908 0.960 . S
C895 C892 1.511 . S
C895 H909 0.961 . S
C895 H910 0.961 . S
C895 H911 0.961 . S
C896 C897 1.370 . S
C896 C898 1.363 . S
C896 H912 0.931 . S
C897 C896 1.370 . S
C897 C901 1.408 . S
C898 C896 1.363 . S
C898 C899 1.370 . S
C898 C902 1.524 . S
C899 C891 1.503 . S
C899 C898 1.370 . S
C899 C900 1.403 . S
C900 C899 1.403 . S
C900 C901 1.404 . S
C900 C903 1.539 . S
C901 C897 1.408 . S
C901 C900 1.404 . S
C901 H913 0.930 . S
C902 C898 1.524 . S
C902 H914 0.956 . S
C902 H915 0.961 . S
C902 H916 0.961 . S
C903 C900 1.539 . S
C903 H917 0.958 . S
C903 H918 0.961 . S
C903 H919 0.960 . S
H904 C888 0.931 . S
H905 C893 0.929 . S
H906 C894 0.960 . S
H907 C894 0.962 . S
H908 C894 0.960 . S
H909 C895 0.961 . S
H910 C895 0.961 . S
H911 C895 0.961 . S
H912 C896 0.931 . S
H913 C901 0.930 . S
H914 C902 0.956 . S
H915 C902 0.961 . S
H916 C902 0.961 . S
H917 C903 0.958 . S
H918 C903 0.961 . S
H919 C903 0.960 . S
C920 C921 1.391 . S
C920 C922 1.394 . S
C920 H936 0.931 . S
C921 C920 1.391 . S
C921 C925 1.376 . S
C922 C920 1.394 . S
C922 C923 1.369 . S
C922 C926 1.531 . S
C923 C922 1.369 . S
C923 C924 1.410 . S
C923 C931 1.503 . S
C924 C923 1.410 . S
C924 C925 1.392 . S
C924 C927 1.511 . S
C925 C921 1.376 . S
C925 C924 1.392 . S
C925 H937 0.929 . S
C926 C922 1.531 . S
C926 H938 0.960 . S
C926 H939 0.962 . S
C926 H940 0.960 . S
C927 C924 1.511 . S
C927 H941 0.961 . S
C927 H942 0.961 . S
C927 H943 0.961 . S
C928 C929 1.370 . S
C928 C930 1.363 . S
C928 H944 0.931 . S
C929 C928 1.370 . S
C929 C933 1.408 . S
C930 C928 1.363 . S
C930 C931 1.370 . S
C930 C934 1.524 . S
C931 C923 1.503 . S
C931 C930 1.370 . S
C931 C932 1.403 . S
C932 C931 1.403 . S
C932 C933 1.404 . S
C932 C935 1.539 . S
C933 C929 1.408 . S
C933 C932 1.404 . S
C933 H945 0.930 . S
C934 C930 1.524 . S
C934 H946 0.956 . S
C934 H947 0.961 . S
C934 H948 0.961 . S
C935 C932 1.539 . S
C935 H949 0.958 . S
C935 H950 0.961 . S
C935 H951 0.960 . S
H936 C920 0.931 . S
H937 C925 0.929 . S
H938 C926 0.960 . S
H939 C926 0.962 . S
H940 C926 0.960 . S
H941 C927 0.961 . S
H942 C927 0.961 . S
H943 C927 0.961 . S
H944 C928 0.931 . S
H945 C933 0.930 . S
H946 C934 0.956 . S
H947 C934 0.961 . S
H948 C934 0.961 . S
H949 C935 0.958 . S
H950 C935 0.961 . S
H951 C935 0.960 . S
C952 C953 1.391 . S
C952 C954 1.394 . S
C952 H968 0.931 . S
C953 C952 1.391 . S
C953 C957 1.376 . S
C954 C952 1.394 . S
C954 C955 1.369 . S
C954 C958 1.531 . S
C955 C954 1.369 . S
C955 C956 1.410 . S
C955 C963 1.503 . S
C956 C955 1.410 . S
C956 C957 1.392 . S
C956 C959 1.511 . S
C957 C953 1.376 . S
C957 C956 1.392 . S
C957 H969 0.929 . S
C958 C954 1.531 . S
C958 H970 0.960 . S
C958 H971 0.962 . S
C958 H972 0.960 . S
C959 C956 1.511 . S
C959 H973 0.961 . S
C959 H974 0.961 . S
C959 H975 0.961 . S
C960 C961 1.370 . S
C960 C962 1.363 . S
C960 H976 0.931 . S
C961 C960 1.370 . S
C961 C965 1.408 . S
C962 C960 1.363 . S
C962 C963 1.370 . S
C962 C966 1.524 . S
C963 C955 1.503 . S
C963 C962 1.370 . S
C963 C964 1.403 . S
C964 C963 1.403 . S
C964 C965 1.404 . S
C964 C967 1.539 . S
C965 C961 1.408 . S
C965 C964 1.404 . S
C965 H977 0.930 . S
C966 C962 1.524 . S
C966 H978 0.956 . S
C966 H979 0.961 . S
C966 H980 0.961 . S
C967 C964 1.539 . S
C967 H981 0.958 . S
C967 H982 0.961 . S
C967 H983 0.960 . S
H968 C952 0.931 . S
H969 C957 0.929 . S
H970 C958 0.960 . S
H971 C958 0.962 . S
H972 C958 0.960 . S
H973 C959 0.961 . S
H974 C959 0.961 . S
H975 C959 0.961 . S
H976 C960 0.931 . S
H977 C965 0.930 . S
H978 C966 0.956 . S
H979 C966 0.961 . S
H980 C966 0.961 . S
H981 C967 0.958 . S
H982 C967 0.961 . S
H983 C967 0.960 . S
C473 C123 1.465 . S
C481 C5 1.491 . S
C505 C182 1.497 . S
C513 C64 1.476 . S
C537 C241 1.459 . S
C545 C359 1.496 . S
C569 C300 1.506 . S
C577 C418 1.476 . S
C601 C92 1.364 1_545 S
C609 C52 1.363 . S
C633 C111 1.342 . S
C641 C151 1.367 1_455 S
C665 C210 1.362 1_565 S
C673 C170 1.357 . S
C697 C229 1.340 . S
C705 C33 1.366 1_655 S
C729 C446 1.363 1_545 S
C737 C288 1.351 . S
C761 C347 1.340 . S
C769 C269 1.366 1_455 S
C793 C406 1.370 . S
C801 C328 1.369 1_565 S
C825 C465 1.339 . S
C833 C387 1.367 1_655 S
C857 C3 1.643 . S
C865 C298 1.641 . S
C889 C357 1.653 . S
C897 C62 1.652 . S
C921 C121 1.626 . S
C929 C416 1.653 . S
C953 C180 1.631 . S
C961 C239 1.654 . S
