# Generated by pormake.
# Topology ttw, (5)-cn, num edge types: 1
# Building blocks:
#     Node 0, Type 0, BuildingBlock: XOMCOT_clean_sbu_1, # of connection points: 5
#     Node 1, Type 0, BuildingBlock: XOMCOT_clean_sbu_1, # of connection points: 5
#     Node 2, Type 0, BuildingBlock: XOMCOT_clean_sbu_1, # of connection points: 5
#     Node 3, Type 0, BuildingBlock: XOMCOT_clean_sbu_1, # of connection points: 5
#     Node 4, Type 0, BuildingBlock: XOMCOT_clean_sbu_1, # of connection points: 5
#     Node 5, Type 0, BuildingBlock: XOMCOT_clean_sbu_1, # of connection points: 5
#     Edge 6, Type (0, 0), BuildingBlock: CIFDUS_clean_linker_0, # of connection points: 2
#     Edge 7, Type (0, 0), BuildingBlock: CIFDUS_clean_linker_0, # of connection points: 2
#     Edge 8, Type (0, 0), BuildingBlock: CIFDUS_clean_linker_0, # of connection points: 2
#     Edge 9, Type (0, 0), BuildingBlock: CIFDUS_clean_linker_0, # of connection points: 2
#     Edge 10, Type (0, 0), BuildingBlock: CIFDUS_clean_linker_0, # of connection points: 2
#     Edge 11, Type (0, 0), BuildingBlock: CIFDUS_clean_linker_0, # of connection points: 2
#     Edge 12, Type (0, 0), BuildingBlock: CIFDUS_clean_linker_0, # of connection points: 2
#     Edge 13, Type (0, 0), BuildingBlock: CIFDUS_clean_linker_0, # of connection points: 2
#     Edge 14, Type (0, 0), BuildingBlock: CIFDUS_clean_linker_0, # of connection points: 2
#     Edge 15, Type (0, 0), BuildingBlock: CIFDUS_clean_linker_0, # of connection points: 2
#     Edge 16, Type (0, 0), BuildingBlock: CIFDUS_clean_linker_0, # of connection points: 2
#     Edge 17, Type (0, 0), BuildingBlock: CIFDUS_clean_linker_0, # of connection points: 2
#     Edge 18, Type (0, 0), BuildingBlock: CIFDUS_clean_linker_0, # of connection points: 2
#     Edge 19, Type (0, 0), BuildingBlock: CIFDUS_clean_linker_0, # of connection points: 2
#     Edge 20, Type (0, 0), BuildingBlock: CIFDUS_clean_linker_0, # of connection points: 2
# Relax obj value: 0.321
# Max RMSD: 0.302
# Mean RMSD: 0.264
data_MOF--net-ttw--node1-XOMCOT_clean_sbu_1--edge1-CIFDUS_clean_linker_0
_symmetry_space_group_name_H-M    P1
_symmetry_Int_Tables_number       1
_symmetry_cell_setting            triclinic
loop_
_symmetry_equiv_pos_as_xyz
'x, y, z'
_cell_length_a     48.662443
_cell_length_b     49.559413
_cell_length_c     15.757706
_cell_angle_alpha  94.548922
_cell_angle_beta   94.373163
_cell_angle_gamma 120.79056
loop_
_atom_site_label
_atom_site_type_symbol
_atom_site_fract_x
_atom_site_fract_y
_atom_site_fract_z
_atom_type_partial_charge
C0 C 0.13856 0.53121 0.98515 0.0
C1 C 0.13861 0.52977 0.89756 0.0
N2 N 0.16316 0.55762 0.88111 0.0
N3 N 0.16273 0.55996 0.02341 0.0
C4 C 0.17737 0.57541 0.95844 0.0
H5 H 0.12233 0.51226 1.01859 0.0
Co6 Co 0.17478 0.5742 0.13999 0.0
C7 C 0.18579 0.63824 0.14981 0.0
O8 O 0.16722 0.6319 0.21071 0.0
N9 N 0.1873 0.58828 0.25803 0.0
C10 C 0.21372 0.6163 0.38546 0.0
C11 C 0.21343 0.61558 0.29804 0.0
C12 C 0.17259 0.57256 0.32261 0.0
N13 N 0.18789 0.58917 0.40076 0.0
O14 O 0.13316 0.56931 0.14743 0.0
H15 H 0.23112 0.63408 0.26604 0.0
H16 H 0.15147 0.54903 0.31298 0.0
O17 O 0.19122 0.6174 0.11638 0.0
C18 C 0.11014 0.5434 0.16552 0.0
O19 O 0.11524 0.52044 0.17944 0.0
N20 N 0.21437 0.57699 0.1318 0.0
C21 C 0.26959 0.57325 0.12267 0.0
C22 C 0.27096 0.60225 0.12055 0.0
C23 C 0.24305 0.6036 0.12448 0.0
C24 C 0.21241 0.54864 0.13347 0.0
C25 C 0.23959 0.54616 0.12842 0.0
H26 H 0.24483 0.62617 0.12281 0.0
H27 H 0.18942 0.52775 0.13853 0.0
H28 H 0.19823 0.59926 0.96772 0.0
H29 H 0.12243 0.50951 0.84999 0.0
H30 H 0.23131 0.63554 0.43373 0.0
H31 H 0.29351 0.62397 0.11761 0.0
H32 H 0.23695 0.52311 0.12856 0.0
C33 C 0.51526 0.06071 0.8049 0.0
C34 C 0.5101 0.05481 0.71669 0.0
N35 N 0.48577 0.05882 0.6883 0.0
N36 N 0.49485 0.0692 0.83258 0.0
C37 C 0.47624 0.06643 0.76025 0.0
H38 H 0.53362 0.06004 0.84627 0.0
Co39 Co 0.49439 0.08071 0.94835 0.0
C40 C 0.49071 0.13499 0.8725 0.0
O41 O 0.49364 0.12958 0.79184 0.0
N42 N 0.49357 0.09061 0.06486 0.0
C43 C 0.49969 0.116 0.194 0.0
C44 C 0.50385 0.11929 0.10935 0.0
C45 C 0.48374 0.07036 0.12394 0.0
N46 N 0.48709 0.08522 0.20317 0.0
O47 O 0.4482 0.05316 0.93228 0.0
H48 H 0.51476 0.14138 0.0828 0.0
H49 H 0.47466 0.04527 0.10911 0.0
O50 O 0.49075 0.11704 0.92625 0.0
C51 C 0.42635 0.05736 0.95879 0.0
O52 O 0.43416 0.08486 1.00057 0.0
N53 N 0.54 0.10737 0.96554 0.0
C54 C 0.60534 0.15338 1.01026 0.0
C55 C 0.58781 0.15341 0.93551 0.0
C56 C 0.55536 0.13005 0.9139 0.0
C57 C 0.55736 0.10505 0.03381 0.0
C58 C 0.59004 0.12813 0.05815 0.0
H59 H 0.5425 0.13076 0.85641 0.0
H60 H 0.54553 0.08613 0.07229 0.0
H61 H 0.45653 0.07068 0.76026 0.0
H62 H 0.52451 0.04983 0.67661 0.0
H63 H 0.5068 0.13503 0.24559 0.0
H64 H 0.5985 0.1722 0.89593 0.0
H65 H 0.60292 0.12668 0.11505 0.0
C66 C 0.54152 0.63888 0.14423 0.0
C67 C 0.54679 0.63941 0.05979 0.0
N68 N 0.5188 0.61848 1.00932 0.0
N69 N 0.51032 0.61771 0.14884 0.0
C70 C 0.49696 0.60551 0.06538 0.0
H71 H 0.55917 0.65388 0.19912 0.0
Co72 Co 0.49405 0.61329 0.25606 0.0
C73 C 0.42623 0.56117 0.2133 0.0
O74 O 0.43134 0.54485 0.26743 0.0
N75 N 0.47823 0.60936 0.36515 0.0
C76 C 0.44774 0.60887 0.46422 0.0
C77 C 0.45249 0.61165 0.37993 0.0
C78 C 0.48896 0.60549 0.4431 0.0
N79 N 0.47054 0.60485 0.50481 0.0
O80 O 0.49734 0.5769 0.2631 0.0
H81 H 0.43824 0.61574 0.33245 0.0
H82 H 0.50985 0.60321 0.45431 0.0
O83 O 0.44989 0.58748 0.19906 0.0
C84 C 0.52507 0.58134 0.28757 0.0
O85 O 0.5495 0.61046 0.3113 0.0
N86 N 0.49215 0.64988 0.24872 0.0
C87 C 0.48711 0.70309 0.24225 0.0
C88 C 0.47291 0.6784 0.17357 0.0
C89 C 0.47565 0.65201 0.17808 0.0
C90 C 0.50758 0.6744 0.31451 0.0
C91 C 0.50481 0.70113 0.3134 0.0
H92 H 0.46414 0.63315 0.12471 0.0
H93 H 0.52128 0.6728 0.36918 0.0
H94 H 0.47161 0.58809 0.0461 0.0
H95 H 0.56944 0.65519 0.03744 0.0
H96 H 0.42927 0.61064 0.49374 0.0
H97 H 0.45886 0.67901 0.1178 0.0
H98 H 0.51618 0.71993 0.36741 0.0
C99 C 0.87446 0.39335 0.27546 0.0
C100 C 0.87729 0.39525 0.36362 0.0
N101 N 0.87328 0.41893 0.39514 0.0
N102 N 0.86859 0.41564 0.25174 0.0
C103 C 0.86842 0.43108 0.32587 0.0
H104 H 0.87564 0.37625 0.23122 0.0
Co105 Co 0.8607 0.42166 0.14019 0.0
C106 C 0.83724 0.46607 0.16222 0.0
O107 O 0.85659 0.48417 0.11045 0.0
N108 N 0.85253 0.42712 0.02735 0.0
C109 C 0.82655 0.42516 0.90283 0.0
C110 C 0.82454 0.42265 0.98844 0.0
C111 C 0.87097 0.43176 0.96385 0.0
N112 N 0.85574 0.43078 0.88727 0.0
O113 O 0.90083 0.46149 0.15867 0.0
H114 H 0.80342 0.4165 1.01955 0.0
H115 H 0.89464 0.43471 0.97299 0.0
O116 O 0.83715 0.44127 0.1788 0.0
C117 C 0.92322 0.45576 0.14955 0.0
O118 O 0.91523 0.42634 0.12607 0.0
N119 N 0.82332 0.38166 0.12172 0.0
C120 C 0.77145 0.31943 0.08303 0.0
C121 C 0.76971 0.34159 0.14029 0.0
C122 C 0.7961 0.37268 0.15934 0.0
C123 C 0.82581 0.3603 0.06816 0.0
C124 C 0.80013 0.3291 0.04763 0.0
H125 H 0.79458 0.38935 0.20427 0.0
H126 H 0.84797 0.36771 0.04102 0.0
H127 H 0.86445 0.45067 0.32901 0.0
H128 H 0.88057 0.37949 0.4011 0.0
H129 H 0.80727 0.42126 0.8549 0.0
H130 H 0.748 0.33514 0.16897 0.0
H131 H 0.80282 0.31267 1.00469 0.0
C132 C 0.37968 0.89827 0.16325 0.0
C133 C 0.37862 0.89994 0.25056 0.0
N134 N 0.3609 0.87019 0.27005 0.0
N135 N 0.36256 0.86765 0.12751 0.0
C136 C 0.35133 0.85117 0.19391 0.0
H137 H 0.39264 0.91803 0.12814 0.0
Co138 Co 0.35979 0.8527 1.01301 0.0
C139 C 0.29177 0.80081 0.9687 0.0
O140 O 0.28902 0.81054 0.89512 0.0
N141 N 0.35799 0.83847 0.89823 0.0
C142 C 0.3498 0.80934 0.77366 0.0
C143 C 0.34888 0.80914 0.86079 0.0
C144 C 0.36504 0.85619 0.83325 0.0
N145 N 0.35994 0.83899 0.75651 0.0
O146 O 0.34016 0.8753 0.97599 0.0
H147 H 0.34136 0.78876 0.89434 0.0
H148 H 0.37294 0.88111 0.84188 0.0
O149 O 0.31821 0.816 1.01961 0.0
C150 C 0.32145 0.88422 1.00082 0.0
O151 O 0.30868 0.8759 0.07185 0.0
N152 N 0.38123 0.83252 0.04791 0.0
C153 C 0.42054 0.8096 0.09826 0.0
C154 C 0.38746 0.79233 0.10499 0.0
C155 C 0.36806 0.80408 0.07877 0.0
C156 C 0.41335 0.84974 0.04161 0.0
C157 C 0.4335 0.83857 0.06579 0.0
H158 H 0.34262 0.79021 0.08379 0.0
H159 H 0.42328 0.87225 1.01725 0.0
H160 H 0.33749 0.82558 0.18689 0.0
H161 H 0.39041 0.92149 0.29594 0.0
H162 H 0.34355 0.78925 0.72666 0.0
H163 H 0.37658 0.7696 0.12864 0.0
H164 H 0.45896 0.8525 0.05967 0.0
C165 C 0.56656 0.42471 0.02304 0.0
C166 C 0.56662 0.42491 0.93588 0.0
N167 N 0.59233 0.42377 0.91499 0.0
N168 N 0.5924 0.42389 0.05709 0.0
C169 C 0.60757 0.42331 0.98936 0.0
H170 H 0.54789 0.42372 0.05784 0.0
Co171 Co 0.60227 0.41901 0.16917 0.0
C172 C 0.67308 0.4609 0.20368 0.0
O173 O 0.67069 0.47334 0.27748 0.0
N174 N 0.61199 0.41345 0.28131 0.0
C175 C 0.63414 0.40488 0.39682 0.0
C176 C 0.63245 0.40421 0.30909 0.0
C177 C 0.60099 0.41877 0.35292 0.0
N178 N 0.6144 0.41425 0.42432 0.0
O179 O 0.60711 0.45897 0.20963 0.0
H180 H 0.64614 0.39834 0.26863 0.0
H181 H 0.5834 0.42577 0.3532 0.0
O182 O 0.64769 0.43963 0.15463 0.0
C183 C 0.58018 0.45565 0.22416 0.0
O184 O 0.55477 0.42676 0.21618 0.0
N185 N 0.59443 0.37915 0.1287 0.0
C186 C 0.57087 0.31762 0.05067 0.0
C187 C 0.60381 0.34084 0.05644 0.0
C188 C 0.61521 0.37164 0.09587 0.0
C189 C 0.56269 0.35675 0.12623 0.0
C190 C 0.55034 0.32582 0.08746 0.0
H191 H 0.64041 0.3894 0.09759 0.0
H192 H 0.54664 0.3634 0.15179 0.0
H193 H 0.62889 0.42157 0.99387 0.0
H194 H 0.54825 0.42419 0.8908 0.0
H195 H 0.6495 0.39981 0.43714 0.0
H196 H 0.62055 0.33536 0.0299 0.0
H197 H 0.52472 0.30884 0.08359 0.0
H198 H 0.06822 0.51238 0.27446 0.0
H199 H 0.07854 0.56124 0.05395 0.0
H200 H 0.02066 0.5424 0.03657 0.0
H201 H 0.96581 0.50488 0.07181 0.0
H202 H 0.95676 0.45654 0.29293 0.0
H203 H 0.01542 0.48283 0.32407 0.0
C204 C 0.05783 0.51938 0.22369 0.0
C205 C 0.07726 0.53768 0.1648 0.0
C206 C 0.02476 0.50853 0.21442 0.0
C207 C 0.06386 0.54708 0.09993 0.0
C208 C 0.03078 0.53617 0.08977 0.0
C209 C 0.97691 0.50123 0.12858 0.0
C210 C 0.95731 0.47914 0.18062 0.0
C211 C 0.01077 0.51596 0.14493 0.0
C212 C 0.97163 0.47381 0.25288 0.0
C213 C 0.00509 0.48855 0.27011 0.0
H214 H 0.32415 0.93555 0.08603 0.0
H215 H 0.32704 0.89564 0.83597 0.0
H216 H 0.35586 0.94834 0.79252 0.0
H217 H 0.39217 0.00543 0.83981 0.0
H218 H 0.39078 0.04565 0.09098 0.0
H219 H 0.34911 0.99339 0.11949 0.0
C220 C 0.32966 0.93827 1.02071 0.0
C221 C 0.32429 0.91196 0.96495 0.0
C222 C 0.34734 0.96884 0.99723 0.0
C223 C 0.33145 0.91573 0.88035 0.0
C224 C 0.34825 0.9459 0.85578 0.0
C225 C 0.38182 0.00282 0.89944 0.0
C226 C 0.3948 0.02901 0.96381 0.0
C227 C 0.35829 0.97267 0.91582 0.0
C228 C 0.38114 0.02568 0.04055 0.0
C229 C 0.3575 -0.00426 0.05718 0.0
H230 H 0.52424 0.45375 0.23658 0.0
H231 H 0.62709 0.519 0.25669 0.0
H232 H 0.61912 0.56378 0.28325 0.0
H233 H 0.58252 0.58415 0.29446 0.0
H234 H 0.47958 0.51824 0.26766 0.0
H235 H 0.48808 0.47377 0.25029 0.0
C236 C 0.54504 0.47774 0.24732 0.0
C237 C 0.57626 0.48304 0.24461 0.0
C238 C 0.54021 0.50319 0.26111 0.0
C239 C 0.60283 0.5143 0.25833 0.0
C240 C 0.59825 0.53987 0.27344 0.0
C241 C 0.56196 0.56005 0.2856 0.0
C242 C 0.53043 0.5545 0.28236 0.0
C243 C 0.567 0.53457 0.27411 0.0
C244 C 0.50405 0.52315 0.27015 0.0
C245 C 0.5089 0.49772 0.26019 0.0
H246 H 0.22651 0.60887 0.55253 0.0
H247 H 0.12737 0.5487 0.43491 0.0
H248 H 0.111 0.53298 0.57389 0.0
H249 H 0.12466 0.53707 0.72948 0.0
H250 H 0.2236 0.59793 0.84724 0.0
H251 H 0.24009 0.61326 0.7079 0.0
C252 C 0.20129 0.59255 0.55727 0.0
C253 C 0.17829 0.57995 0.48309 0.0
C254 C 0.19195 0.58388 0.63759 0.0
C255 C 0.14573 0.55841 0.4905 0.0
C256 C 0.13627 0.54955 0.57015 0.0
C257 C 0.14985 0.55346 0.72445 0.0
C258 C 0.17282 0.56636 0.79863 0.0
C259 C 0.15918 0.56214 0.6441 0.0
C260 C 0.20534 0.58798 0.79136 0.0
C261 C 0.21484 0.59661 0.7116 0.0
H262 H 0.46727 0.1032 0.3392 0.0
H263 H 0.49566 0.03805 0.24721 0.0
H264 H 0.49408 0.02107 0.38935 0.0
H265 H 0.49011 0.02896 0.54337 0.0
H266 H 0.46255 0.09499 0.63478 0.0
H267 H 0.45775 0.10694 0.4895 0.0
C268 C 0.47289 0.08514 0.35029 0.0
C269 C 0.482 0.07223 0.28318 0.0
C270 C 0.47216 0.0757 0.43224 0.0
C271 C 0.48852 0.04831 0.29773 0.0
C272 C 0.48782 0.03876 0.37917 0.0
C273 C 0.48281 0.04577 0.53141 0.0
C274 C 0.4773 0.06143 0.60065 0.0
C275 C 0.48051 0.05292 0.44748 0.0
C276 C 0.46703 0.08256 0.58337 0.0
C277 C 0.46451 0.08963 0.50011 0.0
H278 H 0.46274 0.59587 0.90101 0.0
H279 H 0.56413 0.63013 0.90334 0.0
H280 H 0.5583 0.62805 0.74789 0.0
H281 H 0.52509 0.61941 0.60973 0.0
H282 H 0.42322 0.5827 0.6072 0.0
H283 H 0.42866 0.58266 0.76176 0.0
C284 C 0.48351 0.60247 0.86772 0.0
C285 C 0.51398 0.61373 0.91552 0.0
C286 C 0.48002 0.60103 0.77701 0.0
C287 C 0.54047 0.62215 0.86977 0.0
C288 C 0.53716 0.6208 0.7801 0.0
C289 C 0.50399 0.611 0.64262 0.0
C290 C 0.4739 0.60174 0.59573 0.0
C291 C 0.50716 0.61078 0.73282 0.0
C292 C 0.44693 0.59088 0.64074 0.0
C293 C 0.44994 0.59063 0.72975 0.0
H294 H 0.8381 0.44961 0.74921 0.0
H295 H 0.89688 0.41276 0.83765 0.0
H296 H 0.90973 0.40816 0.69244 0.0
H297 H 0.90076 0.41073 0.53823 0.0
H298 H 0.83933 0.44485 0.45006 0.0
H299 H 0.83117 0.45449 0.59703 0.0
C300 C 0.85371 0.44056 0.73671 0.0
C301 C 0.86619 0.43124 0.80404 0.0
C302 C 0.86045 0.43737 0.65291 0.0
C303 C 0.88706 0.4203 0.78724 0.0
C304 C 0.89422 0.41741 0.704 0.0
C305 C 0.88559 0.42025 0.55119 0.0
C306 C 0.87061 0.42688 0.48287 0.0
C307 C 0.88047 0.42523 0.63602 0.0
C308 C 0.85151 0.43983 0.50109 0.0
C309 C 0.84658 0.44514 0.58525 0.0
H310 H 0.39513 0.90473 0.42377 0.0
H311 H 0.31429 0.81325 0.30862 0.0
H312 H 0.30733 0.7954 0.44909 0.0
H313 H 0.32437 0.80535 0.60504 0.0
H314 H 0.40363 0.89722 0.72107 0.0
H315 H 0.41051 0.9155 0.58019 0.0
C316 C 0.37569 0.88102 0.42899 0.0
C317 C 0.35555 0.86039 0.35452 0.0
C318 C 0.37147 0.87092 0.51053 0.0
C319 C 0.33069 0.8296 0.36376 0.0
C320 C 0.32652 0.81935 0.44448 0.0
C321 C 0.34328 0.82929 0.59934 0.0
C322 C 0.36362 0.84981 0.67341 0.0
C323 C 0.34693 0.83969 0.51819 0.0
C324 C 0.38756 0.88101 0.66519 0.0
C325 C 0.39158 0.89143 0.58457 0.0
H326 H 0.62537 0.38976 0.56108 0.0
H327 H 0.59292 0.45192 0.48572 0.0
H328 H 0.58313 0.46017 0.63155 0.0
H329 H 0.58347 0.4497 0.78093 0.0
H330 H 0.61766 0.38933 0.85831 0.0
H331 H 0.628 0.38119 0.71194 0.0
C332 C 0.61649 0.40538 0.5765 0.0
C333 C 0.60953 0.41977 0.51163 0.0
C334 C 0.61145 0.41057 0.66121 0.0
C335 C 0.59777 0.43978 0.53326 0.0
C336 C 0.59241 0.44481 0.61709 0.0
C337 C 0.59312 0.43474 0.76544 0.0
C338 C 0.59977 0.42014 0.82993 0.0
C339 C 0.59898 0.43019 0.68139 0.0
C340 C 0.61272 0.40114 0.80978 0.0
C341 C 0.61841 0.3963 0.72604 0.0
H342 H 0.28549 0.53555 0.20583 0.0
H343 H 0.32106 0.60688 0.03525 0.0
H344 H 0.37148 0.60731 0.04209 0.0
H345 H 0.40681 0.58993 0.10342 0.0
H346 H 0.37074 0.51776 0.27112 0.0
H347 H 0.31866 0.51416 0.25476 0.0
C348 C 0.30387 0.55074 0.16847 0.0
C349 C 0.29936 0.57149 0.12107 0.0
C350 C 0.33275 0.55057 0.17153 0.0
C351 C 0.32395 0.59124 0.07426 0.0
C352 C 0.35278 0.59131 0.0774 0.0
C353 C 0.38746 0.57308 0.13553 0.0
C354 C 0.39296 0.55442 0.18925 0.0
C355 C 0.35766 0.57147 0.127 0.0
C356 C 0.36735 0.53247 0.22941 0.0
C357 C 0.33756 0.53056 0.22067 0.0
H358 H 0.65316 0.18631 0.91417 0.0
H359 H 0.63141 0.18295 0.17496 0.0
H360 H 0.68204 0.23315 0.22179 0.0
H361 H 0.73012 0.28035 0.18631 0.0
H362 H 0.74947 0.28495 0.92329 0.0
H363 H 0.70208 0.23214 0.87981 0.0
C364 C 0.65951 0.1965 0.98134 0.0
C365 C 0.63832 0.18099 0.04069 0.0
C366 C 0.6881 0.22584 1.00734 0.0
C367 C 0.64734 0.19418 0.12788 0.0
C368 C 0.67614 0.22311 0.15461 0.0
C369 C 0.7239 0.26982 0.11946 0.0
C370 C 0.74327 0.28669 0.05818 0.0
C371 C 0.69627 0.23955 0.09449 0.0
C372 C 0.73521 0.27242 0.97203 0.0
C373 C 0.70799 0.24226 0.94694 0.0
H374 H 0.49756 0.73995 0.11682 0.0
H375 H 0.46218 0.72388 0.36157 0.0
H376 H 0.4406 0.75842 0.34214 0.0
H377 H 0.42571 0.78723 0.24631 0.0
H378 H 0.4607 0.80259 1.00078 0.0
H379 H 0.48878 0.77443 0.02961 0.0
C380 C 0.48572 0.74464 0.16655 0.0
C381 C 0.48113 0.72936 0.24006 0.0
C382 C 0.47297 0.76397 0.15415 0.0
C383 C 0.46605 0.73562 0.30468 0.0
C384 C 0.45345 0.75506 0.29314 0.0
C385 C 0.43983 0.78466 0.19979 0.0
C386 C 0.4409 0.79649 0.1212 0.0
C387 C 0.45577 0.76839 0.21672 0.0
C388 C 0.45961 0.79361 0.0617 0.0
C389 C 0.47552 0.77743 0.07799 0.0
H390 H 0.79589 0.47381 0.05783 0.0
H391 H 0.81858 0.46548 0.32042 0.0
H392 H 0.77132 0.46676 0.35866 0.0
H393 H 0.72141 0.46642 0.3148 0.0
H394 H 0.69486 0.46731 0.04829 0.0
H395 H 0.74565 0.47292 1.01366 0.0
C396 C 0.79072 0.47291 0.12367 0.0
C397 C 0.81086 0.4702 0.18679 0.0
C398 C 0.76267 0.47209 0.14403 0.0
C399 C 0.80351 0.46797 0.27128 0.0
C400 C 0.77647 0.46858 0.29294 0.0
C401 C 0.7271 0.46842 0.24949 0.0
C402 C 0.70482 0.467 0.18429 0.0
C403 C 0.75561 0.47015 0.22959 0.0
C404 C 0.71188 0.46863 0.09946 0.0
C405 C 0.74083 0.47176 0.07972 0.0
H406 H 0.19699 0.65617 0.99192 0.0
H407 H 0.21495 0.69283 0.2606 0.0
H408 H 0.24848 0.74698 0.22801 0.0
H409 H 0.27494 0.78349 0.12365 0.0
H410 H 0.25371 0.74757 0.85366 0.0
H411 H 0.2187 0.69355 0.8856 0.0
C412 C 0.2081 0.67613 0.04294 0.0
C413 C 0.20386 0.67075 0.12843 0.0
C414 C 0.22655 0.70721 0.02341 0.0
C415 C 0.21792 0.6966 0.19428 0.0
C416 C 0.23711 0.72748 0.17573 0.0
C417 C 0.26222 0.76384 0.07187 0.0
C418 C 0.26685 0.76932 0.98659 0.0
C419 C 0.24186 0.73302 0.09065 0.0
C420 C 0.25021 0.74384 0.91977 0.0
C421 C 0.23044 0.71296 0.93806 0.0
H422 H 0.52876 0.19037 0.81304 0.0
H423 H 0.46986 0.15064 1.01299 0.0
H424 H 0.48934 0.20392 0.08574 0.0
H425 H 0.526 0.26151 0.09752 0.0
H426 H 0.58567 0.30121 0.89872 0.0
H427 H 0.5635 0.2481 0.82132 0.0
C428 C 0.5196 0.19339 0.87145 0.0
C429 C 0.49777 0.16668 0.90749 0.0
C430 C 0.53162 0.22403 0.91406 0.0
C431 C 0.48662 0.17091 0.98408 0.0
C432 C 0.4979 0.20133 0.0259 0.0
C433 C 0.53389 0.25858 0.03677 0.0
C434 C 0.55759 0.28529 1.00424 0.0
C435 C 0.52091 0.22803 0.99237 0.0
C436 C 0.5679 0.28102 0.92602 0.0
C437 C 0.555 0.25069 0.88127 0.0
loop_
_geom_bond_atom_site_label_1
_geom_bond_atom_site_label_2
_geom_bond_distance
_geom_bond_site_symmetry_2
_ccdc_geom_bond_type
C0 C1 1.351 . S
C0 N3 1.368 . S
C0 H5 0.931 . S
C1 C0 1.351 . S
C1 N2 1.373 . S
C1 H29 0.930 . S
N2 C1 1.373 . S
N2 C4 1.340 . S
N3 C0 1.368 . S
N3 C4 1.321 . S
N3 Co6 2.135 1_556 S
C4 N2 1.340 . S
C4 N3 1.321 . S
C4 H28 0.930 . S
H5 C0 0.931 . S
Co6 N3 2.135 1_554 S
Co6 N9 2.121 . S
Co6 O14 2.055 . S
Co6 O17 2.039 . S
Co6 N20 2.140 . S
C7 O8 1.227 . S
C7 O17 1.265 . S
O8 C7 1.227 . S
N9 Co6 2.121 . S
N9 C11 1.375 . S
N9 C12 1.313 . S
C10 C11 1.338 . S
C10 N13 1.377 . S
C10 H30 0.930 . S
C11 N9 1.375 . S
C11 C10 1.338 . S
C11 H15 0.931 . S
C12 N9 1.313 . S
C12 N13 1.344 . S
C12 H16 0.930 . S
N13 C10 1.377 . S
N13 C12 1.344 . S
O14 Co6 2.055 . S
O14 C18 1.253 . S
H15 C11 0.931 . S
H16 C12 0.930 . S
O17 Co6 2.039 . S
O17 C7 1.265 . S
C18 O14 1.253 . S
C18 O19 1.227 . S
O19 C18 1.227 . S
N20 Co6 2.140 . S
N20 C23 1.346 1_554 S
N20 C24 1.345 . S
C21 C22 1.387 1_554 S
C21 C25 1.391 . S
C22 C21 1.387 1_556 S
C22 C23 1.369 . S
C22 H31 0.929 . S
C23 N20 1.346 1_556 S
C23 C22 1.369 . S
C23 H26 0.928 . S
C24 N20 1.345 . S
C24 C25 1.371 . S
C24 H27 0.931 . S
C25 C21 1.391 . S
C25 C24 1.371 . S
C25 H32 0.930 . S
H26 C23 0.928 . S
H27 C24 0.931 . S
H28 C4 0.930 . S
H29 C1 0.930 . S
H30 C10 0.930 . S
H31 C22 0.929 . S
H32 C25 0.930 . S
C33 C34 1.351 . S
C33 N36 1.368 . S
C33 H38 0.931 . S
C34 C33 1.351 . S
C34 N35 1.373 . S
C34 H62 0.930 . S
N35 C34 1.373 . S
N35 C37 1.340 . S
N36 C33 1.368 . S
N36 C37 1.321 . S
N36 Co39 2.135 1_556 S
C37 N35 1.340 . S
C37 N36 1.321 . S
C37 H61 0.930 . S
H38 C33 0.931 . S
Co39 N36 2.135 1_554 S
Co39 N42 2.121 . S
Co39 O47 2.055 . S
Co39 O50 2.039 . S
Co39 N53 2.140 . S
C40 O41 1.227 . S
C40 O50 1.265 . S
O41 C40 1.227 . S
N42 Co39 2.121 . S
N42 C44 1.375 . S
N42 C45 1.313 . S
C43 C44 1.338 . S
C43 N46 1.377 . S
C43 H63 0.930 . S
C44 N42 1.375 . S
C44 C43 1.338 . S
C44 H48 0.931 . S
C45 N42 1.313 . S
C45 N46 1.344 . S
C45 H49 0.930 . S
N46 C43 1.377 . S
N46 C45 1.344 . S
O47 Co39 2.055 . S
O47 C51 1.253 . S
H48 C44 0.931 . S
H49 C45 0.930 . S
O50 Co39 2.039 . S
O50 C40 1.265 . S
C51 O47 1.253 . S
C51 O52 1.227 . S
O52 C51 1.227 . S
N53 Co39 2.140 . S
N53 C56 1.347 . S
N53 C57 1.345 . S
C54 C55 1.387 . S
C54 C58 1.391 . S
C55 C54 1.387 . S
C55 C56 1.369 . S
C55 H64 0.929 1_554 S
C56 N53 1.347 . S
C56 C55 1.369 . S
C56 H59 0.928 1_554 S
C57 N53 1.345 . S
C57 C58 1.371 . S
C57 H60 0.931 . S
C58 C54 1.391 . S
C58 C57 1.371 . S
C58 H65 0.930 . S
H59 C56 0.928 1_556 S
H60 C57 0.931 . S
H61 C37 0.930 . S
H62 C34 0.930 . S
H63 C43 0.930 . S
H64 C55 0.929 1_556 S
H65 C58 0.930 . S
C66 C67 1.351 . S
C66 N69 1.368 . S
C66 H71 0.931 . S
C67 C66 1.351 . S
C67 N68 1.373 . S
C67 H95 0.930 . S
N68 C67 1.373 . S
N68 C70 1.340 . S
N69 C66 1.368 . S
N69 C70 1.321 . S
N69 Co72 2.135 1_556 S
C70 N68 1.340 . S
C70 N69 1.321 . S
C70 H94 0.930 . S
H71 C66 0.931 . S
Co72 N69 2.135 1_554 S
Co72 N75 2.121 . S
Co72 O80 2.055 . S
Co72 O83 2.039 . S
Co72 N86 2.140 . S
C73 O74 1.227 . S
C73 O83 1.265 . S
O74 C73 1.227 . S
N75 Co72 2.121 . S
N75 C77 1.375 . S
N75 C78 1.313 . S
C76 C77 1.338 . S
C76 N79 1.377 . S
C76 H96 0.930 . S
C77 N75 1.375 . S
C77 C76 1.338 . S
C77 H81 0.931 . S
C78 N75 1.313 . S
C78 N79 1.344 . S
C78 H82 0.930 . S
N79 C76 1.377 . S
N79 C78 1.344 . S
O80 Co72 2.055 . S
O80 C84 1.253 . S
H81 C77 0.931 . S
H82 C78 0.930 . S
O83 Co72 2.039 . S
O83 C73 1.265 . S
C84 O80 1.253 . S
C84 O85 1.227 . S
O85 C84 1.227 . S
N86 Co72 2.140 . S
N86 C89 1.346 . S
N86 C90 1.345 . S
C87 C88 1.387 . S
C87 C91 1.391 . S
C88 C87 1.387 . S
C88 C89 1.369 . S
C88 H97 0.929 . S
C89 N86 1.346 . S
C89 C88 1.369 . S
C89 H92 0.928 . S
C90 N86 1.345 . S
C90 C91 1.371 . S
C90 H93 0.931 . S
C91 C87 1.391 . S
C91 C90 1.371 . S
C91 H98 0.930 . S
H92 C89 0.928 . S
H93 C90 0.931 . S
H94 C70 0.930 . S
H95 C67 0.930 . S
H96 C76 0.930 . S
H97 C88 0.929 . S
H98 C91 0.930 . S
C99 C100 1.351 . S
C99 N102 1.368 . S
C99 H104 0.931 . S
C100 C99 1.351 . S
C100 N101 1.373 . S
C100 H128 0.930 . S
N101 C100 1.373 . S
N101 C103 1.340 . S
N102 C99 1.368 . S
N102 C103 1.321 . S
N102 Co105 2.135 . S
C103 N101 1.340 . S
C103 N102 1.321 . S
C103 H127 0.930 . S
H104 C99 0.931 . S
Co105 N102 2.135 . S
Co105 N108 2.121 1_554 S
Co105 O113 2.055 . S
Co105 O116 2.039 . S
Co105 N119 2.140 . S
C106 O107 1.227 . S
C106 O116 1.265 . S
O107 C106 1.227 . S
N108 Co105 2.121 1_556 S
N108 C110 1.375 . S
N108 C111 1.313 . S
C109 C110 1.338 . S
C109 N112 1.377 . S
C109 H129 0.930 . S
C110 N108 1.375 . S
C110 C109 1.338 . S
C110 H114 0.931 . S
C111 N108 1.313 . S
C111 N112 1.344 . S
C111 H115 0.930 . S
N112 C109 1.377 . S
N112 C111 1.344 . S
O113 Co105 2.055 . S
O113 C117 1.253 . S
H114 C110 0.931 . S
H115 C111 0.930 . S
O116 Co105 2.039 . S
O116 C106 1.265 . S
C117 O113 1.253 . S
C117 O118 1.227 . S
O118 C117 1.227 . S
N119 Co105 2.140 . S
N119 C122 1.346 . S
N119 C123 1.345 . S
C120 C121 1.387 . S
C120 C124 1.391 . S
C121 C120 1.387 . S
C121 C122 1.369 . S
C121 H130 0.929 . S
C122 N119 1.346 . S
C122 C121 1.369 . S
C122 H125 0.928 . S
C123 N119 1.345 . S
C123 C124 1.371 . S
C123 H126 0.931 . S
C124 C120 1.391 . S
C124 C123 1.371 . S
C124 H131 0.930 1_554 S
H125 C122 0.928 . S
H126 C123 0.931 . S
H127 C103 0.930 . S
H128 C100 0.930 . S
H129 C109 0.930 . S
H130 C121 0.929 . S
H131 C124 0.930 1_556 S
C132 C133 1.351 . S
C132 N135 1.368 . S
C132 H137 0.931 . S
C133 C132 1.351 . S
C133 N134 1.373 . S
C133 H161 0.930 . S
N134 C133 1.373 . S
N134 C136 1.340 . S
N135 C132 1.368 . S
N135 C136 1.321 . S
N135 Co138 2.135 . S
C136 N134 1.340 . S
C136 N135 1.321 . S
C136 H160 0.930 . S
H137 C132 0.931 . S
Co138 N135 2.135 . S
Co138 N141 2.121 1_554 S
Co138 O146 2.055 . S
Co138 O149 2.039 . S
Co138 N152 2.140 . S
C139 O140 1.227 . S
C139 O149 1.265 . S
O140 C139 1.227 . S
N141 Co138 2.121 1_556 S
N141 C143 1.375 . S
N141 C144 1.313 . S
C142 C143 1.338 . S
C142 N145 1.377 . S
C142 H162 0.930 . S
C143 N141 1.375 . S
C143 C142 1.338 . S
C143 H147 0.931 . S
C144 N141 1.313 . S
C144 N145 1.344 . S
C144 H148 0.930 . S
N145 C142 1.377 . S
N145 C144 1.344 . S
O146 Co138 2.055 . S
O146 C150 1.253 . S
H147 C143 0.931 . S
H148 C144 0.930 . S
O149 Co138 2.039 . S
O149 C139 1.265 . S
C150 O146 1.253 . S
C150 O151 1.227 . S
O151 C150 1.227 . S
N152 Co138 2.140 . S
N152 C155 1.346 . S
N152 C156 1.345 . S
C153 C154 1.387 . S
C153 C157 1.391 . S
C154 C153 1.387 . S
C154 C155 1.369 . S
C154 H163 0.929 . S
C155 N152 1.346 . S
C155 C154 1.369 . S
C155 H158 0.928 . S
C156 N152 1.345 . S
C156 C157 1.371 . S
C156 H159 0.931 . S
C157 C153 1.391 . S
C157 C156 1.371 . S
C157 H164 0.930 . S
H158 C155 0.928 . S
H159 C156 0.931 . S
H160 C136 0.930 . S
H161 C133 0.930 . S
H162 C142 0.930 . S
H163 C154 0.929 . S
H164 C157 0.930 . S
C165 C166 1.351 . S
C165 N168 1.368 . S
C165 H170 0.931 . S
C166 C165 1.351 . S
C166 N167 1.373 . S
C166 H194 0.930 . S
N167 C166 1.373 . S
N167 C169 1.340 . S
N168 C165 1.368 . S
N168 C169 1.321 . S
N168 Co171 2.135 1_556 S
C169 N167 1.340 . S
C169 N168 1.321 . S
C169 H193 0.930 . S
H170 C165 0.931 . S
Co171 N168 2.135 1_554 S
Co171 N174 2.121 . S
Co171 O179 2.055 . S
Co171 O182 2.039 . S
Co171 N185 2.140 . S
C172 O173 1.227 . S
C172 O182 1.265 . S
O173 C172 1.227 . S
N174 Co171 2.121 . S
N174 C176 1.375 . S
N174 C177 1.313 . S
C175 C176 1.338 . S
C175 N178 1.377 . S
C175 H195 0.930 . S
C176 N174 1.375 . S
C176 C175 1.338 . S
C176 H180 0.931 . S
C177 N174 1.313 . S
C177 N178 1.344 . S
C177 H181 0.930 . S
N178 C175 1.377 . S
N178 C177 1.344 . S
O179 Co171 2.055 . S
O179 C183 1.253 . S
H180 C176 0.931 . S
H181 C177 0.930 . S
O182 Co171 2.039 . S
O182 C172 1.265 . S
C183 O179 1.253 . S
C183 O184 1.227 . S
O184 C183 1.227 . S
N185 Co171 2.140 . S
N185 C188 1.346 . S
N185 C189 1.345 . S
C186 C187 1.387 . S
C186 C190 1.391 . S
C187 C186 1.387 . S
C187 C188 1.369 . S
C187 H196 0.929 1_554 S
C188 N185 1.346 . S
C188 C187 1.369 . S
C188 H191 0.928 . S
C189 N185 1.345 . S
C189 C190 1.371 . S
C189 H192 0.931 . S
C190 C186 1.391 . S
C190 C189 1.371 . S
C190 H197 0.930 . S
H191 C188 0.928 . S
H192 C189 0.931 . S
H193 C169 0.930 . S
H194 C166 0.930 . S
H195 C175 0.930 . S
H196 C187 0.929 1_556 S
H197 C190 0.930 . S
H198 C204 0.930 . S
H199 C207 0.930 . S
H200 C208 0.930 . S
H201 C209 0.930 . S
H202 C212 0.930 . S
H203 C213 0.930 . S
C204 H198 0.930 . S
C204 C205 1.355 . S
C204 C206 1.415 . S
C205 C204 1.355 . S
C205 C207 1.419 . S
C206 C204 1.415 . S
C206 C211 1.425 . S
C206 C213 1.409 1_455 S
C207 H199 0.930 . S
C207 C205 1.419 . S
C207 C208 1.362 . S
C208 H200 0.930 . S
C208 C207 1.362 . S
C208 C211 1.409 . S
C209 H201 0.930 . S
C209 C210 1.355 . S
C209 C211 1.415 1_655 S
C210 C209 1.355 . S
C210 C212 1.419 . S
C211 C206 1.425 . S
C211 C208 1.409 . S
C211 C209 1.415 1_455 S
C212 H202 0.930 . S
C212 C210 1.419 . S
C212 C213 1.362 . S
C213 H203 0.930 . S
C213 C206 1.409 1_655 S
C213 C212 1.362 . S
H214 C220 0.930 . S
H215 C223 0.930 . S
H216 C224 0.930 1_556 S
H217 C225 0.927 1_556 S
H218 C228 0.930 . S
H219 C229 0.930 . S
C220 H214 0.930 . S
C220 C221 1.355 . S
C220 C222 1.415 . S
C221 C220 1.355 . S
C221 C223 1.419 . S
C222 C220 1.415 . S
C222 C227 1.425 . S
C222 C229 1.409 1_565 S
C223 H215 0.930 . S
C223 C221 1.419 . S
C223 C224 1.362 . S
C224 H216 0.930 1_554 S
C224 C223 1.362 . S
C224 C227 1.409 . S
C225 H217 0.927 1_554 S
C225 C226 1.355 . S
C225 C227 1.415 1_545 S
C226 C225 1.355 . S
C226 C228 1.419 . S
C227 C222 1.425 . S
C227 C224 1.409 . S
C227 C225 1.415 1_565 S
C228 H218 0.930 . S
C228 C226 1.419 . S
C228 C229 1.362 . S
C229 H219 0.930 . S
C229 C222 1.409 1_545 S
C229 C228 1.362 . S
H230 C236 0.930 . S
H231 C239 0.930 . S
H232 C240 0.930 . S
H233 C241 0.930 . S
H234 C244 0.930 . S
H235 C245 0.930 1_556 S
C236 H230 0.930 . S
C236 C237 1.355 . S
C236 C238 1.415 . S
C237 C236 1.355 . S
C237 C239 1.419 . S
C238 C236 1.415 . S
C238 C243 1.425 . S
C238 C245 1.409 . S
C239 H231 0.930 . S
C239 C237 1.419 . S
C239 C240 1.362 . S
C240 H232 0.930 . S
C240 C239 1.362 . S
C240 C243 1.409 . S
C241 H233 0.930 . S
C241 C242 1.355 . S
C241 C243 1.415 . S
C242 C241 1.355 . S
C242 C244 1.419 . S
C243 C238 1.425 . S
C243 C240 1.409 . S
C243 C241 1.415 . S
C244 H234 0.930 . S
C244 C242 1.419 . S
C244 C245 1.362 . S
C245 H235 0.930 1_554 S
C245 C238 1.409 . S
C245 C244 1.362 . S
H246 C252 0.930 . S
H247 C255 0.930 . S
H248 C256 0.930 . S
H249 C257 0.930 . S
H250 C260 0.930 . S
H251 C261 0.930 . S
C252 H246 0.930 . S
C252 C253 1.355 . S
C252 C254 1.415 . S
C253 C252 1.355 . S
C253 C255 1.419 . S
C254 C252 1.415 . S
C254 C259 1.425 . S
C254 C261 1.409 . S
C255 H247 0.930 . S
C255 C253 1.419 . S
C255 C256 1.362 . S
C256 H248 0.930 . S
C256 C255 1.362 . S
C256 C259 1.409 . S
C257 H249 0.930 . S
C257 C258 1.355 . S
C257 C259 1.415 . S
C258 C257 1.355 . S
C258 C260 1.419 . S
C259 C254 1.425 . S
C259 C256 1.409 . S
C259 C257 1.415 . S
C260 H250 0.930 . S
C260 C258 1.419 . S
C260 C261 1.362 . S
C261 H251 0.930 . S
C261 C254 1.409 . S
C261 C260 1.362 . S
H262 C268 0.930 . S
H263 C271 0.930 . S
H264 C272 0.930 . S
H265 C273 0.930 . S
H266 C276 0.930 . S
H267 C277 0.930 . S
C268 H262 0.930 . S
C268 C269 1.355 . S
C268 C270 1.415 . S
C269 C268 1.355 . S
C269 C271 1.419 . S
C270 C268 1.415 . S
C270 C275 1.425 . S
C270 C277 1.409 . S
C271 H263 0.930 . S
C271 C269 1.419 . S
C271 C272 1.362 . S
C272 H264 0.930 . S
C272 C271 1.362 . S
C272 C275 1.409 . S
C273 H265 0.930 . S
C273 C274 1.355 . S
C273 C275 1.415 . S
C274 C273 1.355 . S
C274 C276 1.419 . S
C275 C270 1.425 . S
C275 C272 1.409 . S
C275 C273 1.415 . S
C276 H266 0.930 . S
C276 C274 1.419 . S
C276 C277 1.362 . S
C277 H267 0.930 . S
C277 C270 1.409 . S
C277 C276 1.362 . S
H278 C284 0.930 . S
H279 C287 0.930 . S
H280 C288 0.930 . S
H281 C289 0.930 . S
H282 C292 0.930 . S
H283 C293 0.930 . S
C284 H278 0.930 . S
C284 C285 1.355 . S
C284 C286 1.415 . S
C285 C284 1.355 . S
C285 C287 1.419 . S
C286 C284 1.415 . S
C286 C291 1.425 . S
C286 C293 1.409 . S
C287 H279 0.930 . S
C287 C285 1.419 . S
C287 C288 1.362 . S
C288 H280 0.930 . S
C288 C287 1.362 . S
C288 C291 1.409 . S
C289 H281 0.930 . S
C289 C290 1.355 . S
C289 C291 1.415 . S
C290 C289 1.355 . S
C290 C292 1.419 . S
C291 C286 1.425 . S
C291 C288 1.409 . S
C291 C289 1.415 . S
C292 H282 0.930 . S
C292 C290 1.419 . S
C292 C293 1.362 . S
C293 H283 0.930 . S
C293 C286 1.409 . S
C293 C292 1.362 . S
H294 C300 0.930 . S
H295 C303 0.930 . S
H296 C304 0.930 . S
H297 C305 0.930 . S
H298 C308 0.930 . S
H299 C309 0.930 . S
C300 H294 0.930 . S
C300 C301 1.355 . S
C300 C302 1.415 . S
C301 C300 1.355 . S
C301 C303 1.419 . S
C302 C300 1.415 . S
C302 C307 1.425 . S
C302 C309 1.409 . S
C303 H295 0.930 . S
C303 C301 1.419 . S
C303 C304 1.362 . S
C304 H296 0.930 . S
C304 C303 1.362 . S
C304 C307 1.409 . S
C305 H297 0.930 . S
C305 C306 1.355 . S
C305 C307 1.415 . S
C306 C305 1.355 . S
C306 C308 1.419 . S
C307 C302 1.425 . S
C307 C304 1.409 . S
C307 C305 1.415 . S
C308 H298 0.930 . S
C308 C306 1.419 . S
C308 C309 1.362 . S
C309 H299 0.930 . S
C309 C302 1.409 . S
C309 C308 1.362 . S
H310 C316 0.930 . S
H311 C319 0.930 . S
H312 C320 0.930 . S
H313 C321 0.930 . S
H314 C324 0.930 . S
H315 C325 0.930 . S
C316 H310 0.930 . S
C316 C317 1.355 . S
C316 C318 1.415 . S
C317 C316 1.355 . S
C317 C319 1.419 . S
C318 C316 1.415 . S
C318 C323 1.425 . S
C318 C325 1.409 . S
C319 H311 0.930 . S
C319 C317 1.419 . S
C319 C320 1.362 . S
C320 H312 0.930 . S
C320 C319 1.362 . S
C320 C323 1.409 . S
C321 H313 0.930 . S
C321 C322 1.355 . S
C321 C323 1.415 . S
C322 C321 1.355 . S
C322 C324 1.419 . S
C323 C318 1.425 . S
C323 C320 1.409 . S
C323 C321 1.415 . S
C324 H314 0.930 . S
C324 C322 1.419 . S
C324 C325 1.362 . S
C325 H315 0.930 . S
C325 C318 1.409 . S
C325 C324 1.362 . S
H326 C332 0.930 . S
H327 C335 0.930 . S
H328 C336 0.930 . S
H329 C337 0.930 . S
H330 C340 0.930 . S
H331 C341 0.930 . S
C332 H326 0.930 . S
C332 C333 1.355 . S
C332 C334 1.415 . S
C333 C332 1.355 . S
C333 C335 1.419 . S
C334 C332 1.415 . S
C334 C339 1.425 . S
C334 C341 1.409 . S
C335 H327 0.930 . S
C335 C333 1.419 . S
C335 C336 1.362 . S
C336 H328 0.930 . S
C336 C335 1.362 . S
C336 C339 1.409 . S
C337 H329 0.930 . S
C337 C338 1.355 . S
C337 C339 1.415 . S
C338 C337 1.355 . S
C338 C340 1.419 . S
C339 C334 1.425 . S
C339 C336 1.409 . S
C339 C337 1.415 . S
C340 H330 0.930 . S
C340 C338 1.419 . S
C340 C341 1.362 . S
C341 H331 0.930 . S
C341 C334 1.409 . S
C341 C340 1.362 . S
H342 C348 0.930 . S
H343 C351 0.930 . S
H344 C352 0.930 . S
H345 C353 0.930 1_556 S
H346 C356 0.930 . S
H347 C357 0.930 . S
C348 H342 0.930 . S
C348 C349 1.355 . S
C348 C350 1.415 . S
C349 C348 1.355 . S
C349 C351 1.419 1_554 S
C350 C348 1.415 . S
C350 C355 1.425 . S
C350 C357 1.409 . S
C351 H343 0.930 . S
C351 C349 1.419 1_556 S
C351 C352 1.362 . S
C352 H344 0.930 . S
C352 C351 1.362 . S
C352 C355 1.409 1_556 S
C353 H345 0.930 1_554 S
C353 C354 1.355 . S
C353 C355 1.415 . S
C354 C353 1.355 . S
C354 C356 1.419 . S
C355 C350 1.425 . S
C355 C352 1.409 1_554 S
C355 C353 1.415 . S
C356 H346 0.930 . S
C356 C354 1.419 . S
C356 C357 1.362 . S
C357 H347 0.930 . S
C357 C350 1.409 . S
C357 C356 1.362 . S
H358 C364 0.930 1_556 S
H359 C367 0.930 . S
H360 C368 0.930 . S
H361 C369 0.930 . S
H362 C372 0.930 . S
H363 C373 0.930 . S
C364 H358 0.930 1_554 S
C364 C365 1.355 . S
C364 C366 1.415 . S
C365 C364 1.355 . S
C365 C367 1.419 . S
C366 C364 1.415 . S
C366 C371 1.425 . S
C366 C373 1.409 1_554 S
C367 H359 0.930 . S
C367 C365 1.419 . S
C367 C368 1.362 . S
C368 H360 0.930 . S
C368 C367 1.362 . S
C368 C371 1.409 . S
C369 H361 0.930 . S
C369 C370 1.355 . S
C369 C371 1.415 . S
C370 C369 1.355 . S
C370 C372 1.419 1_554 S
C371 C366 1.425 . S
C371 C368 1.409 . S
C371 C369 1.415 . S
C372 H362 0.930 . S
C372 C370 1.419 1_556 S
C372 C373 1.362 . S
C373 H363 0.930 . S
C373 C366 1.409 1_556 S
C373 C372 1.362 . S
H374 C380 0.930 . S
H375 C383 0.930 . S
H376 C384 0.930 . S
H377 C385 0.930 . S
H378 C388 0.930 1_556 S
H379 C389 0.930 1_556 S
C380 H374 0.930 . S
C380 C381 1.355 . S
C380 C382 1.415 . S
C381 C380 1.355 . S
C381 C383 1.419 . S
C382 C380 1.415 . S
C382 C387 1.425 . S
C382 C389 1.409 . S
C383 H375 0.930 . S
C383 C381 1.419 . S
C383 C384 1.362 . S
C384 H376 0.930 . S
C384 C383 1.362 . S
C384 C387 1.409 . S
C385 H377 0.930 . S
C385 C386 1.355 . S
C385 C387 1.415 . S
C386 C385 1.355 . S
C386 C388 1.419 . S
C387 C382 1.425 . S
C387 C384 1.409 . S
C387 C385 1.415 . S
C388 H378 0.930 1_554 S
C388 C386 1.419 . S
C388 C389 1.362 . S
C389 H379 0.930 1_554 S
C389 C382 1.409 . S
C389 C388 1.362 . S
H390 C396 0.930 . S
H391 C399 0.930 . S
H392 C400 0.930 . S
H393 C401 0.930 . S
H394 C404 0.930 . S
H395 C405 0.930 . S
C396 H390 0.930 . S
C396 C397 1.355 . S
C396 C398 1.415 . S
C397 C396 1.355 . S
C397 C399 1.419 . S
C398 C396 1.415 . S
C398 C403 1.425 . S
C398 C405 1.409 . S
C399 H391 0.930 . S
C399 C397 1.419 . S
C399 C400 1.362 . S
C400 H392 0.930 . S
C400 C399 1.362 . S
C400 C403 1.409 . S
C401 H393 0.930 . S
C401 C402 1.355 . S
C401 C403 1.415 . S
C402 C401 1.355 . S
C402 C404 1.419 . S
C403 C398 1.425 . S
C403 C400 1.409 . S
C403 C401 1.415 . S
C404 H394 0.930 . S
C404 C402 1.419 . S
C404 C405 1.362 . S
C405 H395 0.930 . S
C405 C398 1.409 . S
C405 C404 1.362 . S
H406 C412 0.930 1_556 S
H407 C415 0.930 . S
H408 C416 0.930 . S
H409 C417 0.930 . S
H410 C420 0.930 1_556 S
H411 C421 0.930 . S
C412 H406 0.930 1_554 S
C412 C413 1.355 . S
C412 C414 1.415 . S
C413 C412 1.355 . S
C413 C415 1.419 . S
C414 C412 1.415 . S
C414 C419 1.425 . S
C414 C421 1.409 1_554 S
C415 H407 0.930 . S
C415 C413 1.419 . S
C415 C416 1.362 . S
C416 H408 0.930 . S
C416 C415 1.362 . S
C416 C419 1.409 . S
C417 H409 0.930 . S
C417 C418 1.355 . S
C417 C419 1.415 . S
C418 C417 1.355 . S
C418 C420 1.419 . S
C419 C414 1.425 . S
C419 C416 1.409 . S
C419 C417 1.415 . S
C420 H410 0.930 1_554 S
C420 C418 1.419 . S
C420 C421 1.362 1_554 S
C421 H411 0.930 . S
C421 C414 1.409 1_556 S
C421 C420 1.362 1_556 S
H422 C428 0.930 . S
H423 C431 0.930 . S
H424 C432 0.930 . S
H425 C433 0.930 . S
H426 C436 0.930 . S
H427 C437 0.930 . S
C428 H422 0.930 . S
C428 C429 1.355 . S
C428 C430 1.415 . S
C429 C428 1.355 . S
C429 C431 1.419 . S
C430 C428 1.415 . S
C430 C435 1.425 . S
C430 C437 1.409 . S
C431 H423 0.930 . S
C431 C429 1.419 . S
C431 C432 1.362 . S
C432 H424 0.930 . S
C432 C431 1.362 . S
C432 C435 1.409 . S
C433 H425 0.930 . S
C433 C434 1.355 . S
C433 C435 1.415 . S
C434 C433 1.355 . S
C434 C436 1.419 . S
C435 C430 1.425 . S
C435 C432 1.409 . S
C435 C433 1.415 . S
C436 H426 0.930 . S
C436 C434 1.419 . S
C436 C437 1.362 . S
C437 H427 0.930 . S
C437 C430 1.409 . S
C437 C436 1.362 . S
C205 C18 1.043 . S
C210 C117 1.040 . S
C221 C150 0.904 . S
C226 C51 0.902 . S
C237 C183 1.038 . S
C242 C84 1.026 . S
C253 N13 1.463 . S
C258 N2 1.461 . S
C269 N46 1.448 . S
C274 N35 1.446 . S
C285 N68 1.412 . S
C290 N79 1.417 . S
C301 N112 1.480 . S
C306 N101 1.479 . S
C317 N134 1.440 . S
C322 N145 1.442 . S
C333 N178 1.448 . S
C338 N167 1.444 . S
C349 C21 0.906 . S
C354 C73 0.960 . S
C365 C54 0.872 . S
C370 C120 0.841 . S
C381 C87 0.882 . S
C386 C153 0.805 . S
C397 C106 0.949 . S
C402 C172 1.077 . S
C413 C7 1.062 . S
C418 C139 1.006 . S
C429 C40 0.847 . S
C434 C186 0.970 . S
