# Generated by pormake.
# Topology tfs, (6)-cn, num edge types: 1
# Building blocks:
#     Node 0, Type 0, BuildingBlock: BETDEL_clean_sbu_0, # of connection points: 6
#     Node 1, Type 0, BuildingBlock: BETDEL_clean_sbu_0, # of connection points: 6
#     Node 2, Type 0, BuildingBlock: BETDEL_clean_sbu_0, # of connection points: 6
#     Node 3, Type 0, BuildingBlock: BETDEL_clean_sbu_0, # of connection points: 6
#     Node 4, Type 0, BuildingBlock: BETDEL_clean_sbu_0, # of connection points: 6
#     Node 5, Type 0, BuildingBlock: BETDEL_clean_sbu_0, # of connection points: 6
#     Edge 6, Type (0, 0), BuildingBlock: CIFDUS_clean_linker_0, # of connection points: 2
#     Edge 7, Type (0, 0), BuildingBlock: CIFDUS_clean_linker_0, # of connection points: 2
#     Edge 8, Type (0, 0), BuildingBlock: CIFDUS_clean_linker_0, # of connection points: 2
#     Edge 9, Type (0, 0), BuildingBlock: CIFDUS_clean_linker_0, # of connection points: 2
#     Edge 10, Type (0, 0), BuildingBlock: CIFDUS_clean_linker_0, # of connection points: 2
#     Edge 11, Type (0, 0), BuildingBlock: CIFDUS_clean_linker_0, # of connection points: 2
#     Edge 12, Type (0, 0), BuildingBlock: CIFDUS_clean_linker_0, # of connection points: 2
#     Edge 13, Type (0, 0), BuildingBlock: CIFDUS_clean_linker_0, # of connection points: 2
#     Edge 14, Type (0, 0), BuildingBlock: CIFDUS_clean_linker_0, # of connection points: 2
#     Edge 15, Type (0, 0), BuildingBlock: CIFDUS_clean_linker_0, # of connection points: 2
#     Edge 16, Type (0, 0), BuildingBlock: CIFDUS_clean_linker_0, # of connection points: 2
#     Edge 17, Type (0, 0), BuildingBlock: CIFDUS_clean_linker_0, # of connection points: 2
#     Edge 18, Type (0, 0), BuildingBlock: CIFDUS_clean_linker_0, # of connection points: 2
#     Edge 19, Type (0, 0), BuildingBlock: CIFDUS_clean_linker_0, # of connection points: 2
#     Edge 20, Type (0, 0), BuildingBlock: CIFDUS_clean_linker_0, # of connection points: 2
#     Edge 21, Type (0, 0), BuildingBlock: CIFDUS_clean_linker_0, # of connection points: 2
#     Edge 22, Type (0, 0), BuildingBlock: CIFDUS_clean_linker_0, # of connection points: 2
#     Edge 23, Type (0, 0), BuildingBlock: CIFDUS_clean_linker_0, # of connection points: 2
# Relax obj value: 0.439
# Max RMSD: 0.283
# Mean RMSD: 0.256
data_MOF--net-tfs--node1-BETDEL_clean_sbu_0--edge1-CIFDUS_clean_linker_0
_symmetry_space_group_name_H-M    P1
_symmetry_Int_Tables_number       1
_symmetry_cell_setting            triclinic
loop_
_symmetry_equiv_pos_as_xyz
'x, y, z'
_cell_length_a     40.028386
_cell_length_b     39.303808
_cell_length_c     12.70785
_cell_angle_alpha  90.590008
_cell_angle_beta   91.347088
_cell_angle_gamma 122.06268
loop_
_atom_site_label
_atom_site_type_symbol
_atom_site_fract_x
_atom_site_fract_y
_atom_site_fract_z
_atom_type_partial_charge
Dy0 Dy 0.15864 0.45868 0.27172 0.0
C1 C 0.2009 0.34393 0.22698 0.0
C2 C 0.14864 0.52193 0.30413 0.0
Dy3 Dy 0.18445 0.40246 0.25677 0.0
O4 O 0.13294 0.49567 0.22748 0.0
O5 O 0.16864 0.51265 0.36641 0.0
O6 O 0.12979 0.44033 0.11232 0.0
O7 O 0.18277 0.44221 0.1387 0.0
C8 C 0.15499 0.43338 0.07212 0.0
C9 C 0.1895 0.4303 0.45446 0.0
O10 O 0.24229 0.45671 0.22646 0.0
O11 O 0.22432 0.49981 0.28867 0.0
O12 O 0.18864 0.35079 0.31326 0.0
O13 O 0.20327 0.36846 0.15566 0.0
O14 O 0.21598 0.42581 0.41184 0.0
O15 O 0.16064 0.41947 0.39002 0.0
O16 O 0.10183 0.40255 0.30254 0.0
O17 O 0.12034 0.36399 0.21527 0.0
C18 C 0.25147 0.49267 0.2589 0.0
C19 C 0.09255 0.36948 0.24902 0.0
Dy20 Dy 0.74282 0.18067 0.8878 0.0
C21 C 0.9117 0.25078 0.84859 0.0
C22 C 0.66756 0.16003 0.91156 0.0
Dy23 Dy 0.83359 0.21628 0.88589 0.0
O24 O 0.69061 0.18348 0.83996 0.0
O25 O 0.68568 0.14781 0.97171 0.0
O26 O 0.73662 0.15568 0.72453 0.0
O27 O 0.78889 0.20927 0.77113 0.0
C28 C 0.77198 0.18295 0.69849 0.0
C29 C 0.80945 0.20248 0.0852 0.0
O30 O 0.83334 0.2731 0.90694 0.0
O31 O 0.76679 0.24393 0.94097 0.0
O32 O 0.88755 0.21328 0.8695 0.0
O33 O 0.89158 0.26777 0.83653 0.0
O34 O 0.84588 0.21775 0.06107 0.0
O35 O 0.78948 0.1964 1.00184 0.0
O36 O 0.74591 0.128 0.92666 0.0
O37 O 0.80635 0.14988 0.85111 0.0
C38 C 0.80311 0.27569 0.93618 0.0
C39 C 0.77283 0.12137 0.89161 0.0
Dy40 Dy 0.53295 0.72994 0.12531 0.0
C41 C 0.64749 0.90029 0.06453 0.0
C42 C 0.47519 0.65702 0.18923 0.0
Dy43 Dy 0.5945 0.82325 0.11494 0.0
O44 O 0.49526 0.66295 0.10522 0.0
O45 O 0.48704 0.69086 0.23842 0.0
O46 O 0.54328 0.72122 0.95756 0.0
O47 O 0.55057 0.77614 0.00648 0.0
C48 C 0.55515 0.75775 0.93136 0.0
C49 C 0.58631 0.79807 0.31598 0.0
O50 O 0.5368 0.82198 0.10616 0.0
O51 O 0.49242 0.75317 0.12663 0.0
O52 O 0.62245 0.88918 0.13911 0.0
O53 O 0.64288 0.86909 0.01354 0.0
O54 O 0.60915 0.83529 0.29119 0.0
O55 O 0.57087 0.77838 0.23187 0.0
O56 O 0.58921 0.73308 0.16175 0.0
O57 O 0.63068 0.79504 0.0861 0.0
C58 C 0.50027 0.79037 0.11728 0.0
C59 C 0.62344 0.76012 0.12246 0.0
Dy60 Dy 0.78556 0.53359 0.05433 0.0
C61 C 0.73891 0.64941 0.02809 0.0
C62 C 0.78878 0.46595 0.0663 0.0
Dy63 Dy 0.7592 0.59286 0.05191 0.0
O64 O 0.7598 0.46799 0.02755 0.0
O65 O 0.81693 0.50136 0.10067 0.0
O66 O 0.80648 0.54901 0.89106 0.0
O67 O 0.75751 0.55116 0.93473 0.0
C68 C 0.78137 0.55863 0.8627 0.0
C69 C 0.76292 0.5673 0.24326 0.0
O70 O 0.6998 0.53357 0.03246 0.0
O71 O 0.72341 0.49687 0.10718 0.0
O72 O 0.75415 0.64406 0.11259 0.0
O73 O 0.73579 0.6245 0.95446 0.0
O74 O 0.73657 0.5751 0.21318 0.0
O75 O 0.78723 0.57534 0.17191 0.0
O76 O 0.84515 0.58867 0.07695 0.0
O77 O 0.82591 0.6325 0.02374 0.0
C78 C 0.69353 0.49935 0.07105 0.0
C79 C 0.85394 0.62463 0.04703 0.0
Dy80 Dy 0.24991 0.82382 0.1362 0.0
C81 C 0.0887 0.78016 0.06596 0.0
C82 C 0.31979 0.82544 0.15757 0.0
Dy83 Dy 0.16625 0.80277 0.11074 0.0
O84 O 0.31144 0.84846 0.21077 0.0
O85 O 0.28992 0.80178 0.09533 0.0
O86 O 0.26382 0.85281 0.98075 0.0
O87 O 0.2072 0.80211 0.999 0.0
C88 C 0.22934 0.82959 0.93663 0.0
C89 C 0.18651 0.79784 0.31188 0.0
O90 O 0.15811 0.74173 0.09529 0.0
O91 O 0.21609 0.75998 0.18497 0.0
O92 O 0.11187 0.80564 0.13961 0.0
O93 O 0.10892 0.7692 0.01259 0.0
O94 O 0.15192 0.77495 0.26805 0.0
O95 O 0.20891 0.82474 0.24856 0.0
O96 O 0.26108 0.88535 0.15941 0.0
O97 O 0.2012 0.87029 0.08287 0.0
C98 C 0.1809 0.7321 0.14694 0.0
C99 C 0.23804 0.89684 0.11753 0.0
Dy100 Dy 0.43431 0.20266 0.03772 0.0
C101 C 0.32459 0.24624 0.09108 0.0
C102 C 0.48714 0.18486 0.97 0.0
Dy103 Dy 0.38275 0.23075 0.06122 0.0
O104 O 0.47029 0.17479 0.0598 0.0
O105 O 0.47576 0.20529 0.91787 0.0
O106 O 0.41823 0.17258 0.19246 0.0
O107 O 0.42207 0.22781 0.17872 0.0
C108 C 0.4137 0.19916 0.23973 0.0
C109 C 0.40546 0.23484 0.86142 0.0
O110 O 0.43956 0.29127 0.09125 0.0
O111 O 0.47928 0.26875 0.0383 0.0
O112 O 0.3311 0.23385 1.00394 0.0
O113 O 0.34976 0.24995 0.16383 0.0
O114 O 0.40371 0.26291 0.91005 0.0
O115 O 0.3949 0.20552 0.92152 0.0
O116 O 0.37923 0.1454 0.99435 0.0
O117 O 0.34219 0.16307 0.08659 0.0
C118 C 0.47491 0.29851 0.06742 0.0
C119 C 0.34639 0.13489 0.04175 0.0
H120 H 0.29619 0.25893 0.26988 0.0
H121 H 0.28983 0.26235 0.93123 0.0
H122 H 0.2483 0.29039 0.94242 0.0
H123 H 0.21827 0.31906 0.04893 0.0
H124 H 0.22145 0.31269 0.38716 0.0
H125 H 0.25909 0.28015 0.37597 0.0
C126 C 0.2853 0.26548 0.19883 0.0
C127 C 0.29633 0.25914 0.10011 0.0
C128 C 0.2609 0.28107 0.20574 0.0
C129 C 0.28176 0.26718 0.00824 0.0
C130 C 0.2581 0.28328 0.01448 0.0
C131 C 0.2267 0.30992 0.11989 0.0
C132 C 0.21754 0.31849 0.21856 0.0
C133 C 0.24811 0.29106 0.11282 0.0
C134 C 0.22825 0.30632 0.31018 0.0
C135 C 0.24997 0.28796 0.30392 0.0
H136 H 0.06682 0.30619 0.11245 0.0
H137 H 0.03095 0.38065 0.26162 0.0
H138 H 0.97465 0.35408 0.13805 0.0
H139 H 0.93765 0.31243 0.98424 0.0
H140 H 0.97002 0.23454 0.8407 0.0
H141 H 0.02758 0.26169 0.96279 0.0
C142 C 0.04636 0.31618 0.11937 0.0
C143 C 0.05332 0.34564 0.19596 0.0
C144 C 0.01464 0.30155 0.0465 0.0
C145 C 0.0263 0.35794 0.20389 0.0
C146 C 0.99445 0.34326 0.13218 0.0
C147 C 0.95792 0.30217 0.97767 0.0
C148 C 0.95068 0.27263 0.90155 0.0
C149 C 0.98905 0.31595 0.05169 0.0
C150 C 0.97599 0.25822 0.89681 0.0
C151 C 0.0083 0.27318 0.96766 0.0
H152 H 0.7593 0.08653 0.07475 0.0
H153 H 0.7657 0.06587 0.74479 0.0
H154 H 0.73036 0.99297 0.77163 0.0
H155 H 0.68776 0.93524 0.88586 0.0
H156 H 0.677 0.9593 0.21144 0.0
H157 H 0.72373 0.03061 0.19011 0.0
C158 C 0.75405 0.066 0.00948 0.0
C159 C 0.76494 0.081 0.9084 0.0
C160 C 0.73201 0.02471 0.02465 0.0
C161 C 0.75793 0.05465 0.82364 0.0
C162 C 0.73719 0.01306 0.83885 0.0
C163 C 0.69625 0.95622 0.95196 0.0
C164 C 0.67864 0.94238 0.04955 0.0
C165 C 0.72245 0.99769 0.93829 0.0
C166 C 0.6897 0.96951 0.13512 0.0
C167 C 0.71656 0.01024 0.12326 0.0
H168 H 0.73259 0.69128 0.18926 0.0
H169 H 0.70647 0.66466 0.85678 0.0
H170 H 0.67236 0.70125 0.85387 0.0
H171 H 0.64468 0.73569 0.9499 0.0
H172 H 0.667 0.75753 0.28439 0.0
H173 H 0.70812 0.72849 0.28285 0.0
C174 C 0.71993 0.69397 0.1158 0.0
C175 C 0.72208 0.67524 0.02327 0.0
C176 C 0.69958 0.71425 0.1154 0.0
C177 C 0.70525 0.67879 0.929 0.0
C178 C 0.68565 0.69965 0.92743 0.0
C179 C 0.65947 0.73495 0.02168 0.0
C180 C 0.65364 0.74943 0.11689 0.0
C181 C 0.68196 0.71686 0.02055 0.0
C182 C 0.67178 0.74723 0.21011 0.0
C183 C 0.69501 0.73035 0.20925 0.0
H184 H 0.0353 0.71379 0.94799 0.0
H185 H 0.04268 0.80018 0.17386 0.0
H186 H 0.97054 0.76243 0.18156 0.0
H187 H 0.90467 0.70106 0.13444 0.0
H188 H 0.89918 0.6134 0.91648 0.0
H189 H 0.97031 0.65509 0.89476 0.0
C190 C 0.02114 0.72477 0.99759 0.0
C191 C 0.04465 0.76003 0.05983 0.0
C192 C 0.97953 0.70229 1.00353 0.0
C193 C 0.02552 0.77333 0.12462 0.0
C194 C 0.98412 0.75157 0.1294 0.0
C195 C 0.91904 0.6916 0.08071 0.0
C196 C 0.89641 0.65418 0.02634 0.0
C197 C 0.96067 0.7155 0.07066 0.0
C198 C 0.91575 0.64205 0.95879 0.0
C199 C 0.95656 0.66587 0.94656 0.0
H200 H 0.21983 0.95443 0.16717 0.0
H201 H 0.30175 0.93567 1.00115 0.0
H202 H 0.33963 0.00601 0.95531 0.0
H203 H 0.3524 0.07334 0.96979 0.0
H204 H 0.2754 0.09673 0.14512 0.0
H205 H 0.23277 0.02459 0.17894 0.0
C206 C 0.24576 0.96586 0.1202 0.0
C207 C 0.25793 0.93969 0.08752 0.0
C208 C 0.26847 0.0073 0.09609 0.0
C209 C 0.2918 0.95504 0.02757 0.0
C210 C 0.31355 0.99536 1.00122 0.0
C211 C 0.32613 0.06297 0.01477 0.0
C212 C 0.31733 0.09087 0.05459 0.0
C213 C 0.30257 0.02186 0.03621 0.0
C214 C 0.28302 0.0762 0.11291 0.0
C215 C 0.25869 0.03484 0.1327 0.0
H216 H 0.20446 0.70433 0.3079 0.0
H217 H 0.12422 0.66456 0.03748 0.0
H218 H 0.10385 0.59482 0.06947 0.0
H219 H 0.11302 0.54608 0.16631 0.0
H220 H 0.19326 0.5864 0.4368 0.0
H221 H 0.20899 0.65506 0.41398 0.0
C222 C 0.18247 0.6804 0.25592 0.0
C223 C 0.16638 0.68963 0.16919 0.0
C224 C 0.17079 0.64053 0.27527 0.0
C225 C 0.13723 0.65823 0.10422 0.0
C226 C 0.12562 0.6184 0.1225 0.0
C227 C 0.13338 0.56979 0.22141 0.0
C228 C 0.15212 0.56129 0.30291 0.0
C229 C 0.1427 0.60929 0.20676 0.0
C230 C 0.17842 0.59221 0.3737 0.0
C231 C 0.18764 0.63151 0.36014 0.0
H232 H 0.51488 0.14551 0.07664 0.0
H233 H 0.52499 0.20553 0.78576 0.0
H234 H 0.57935 0.19805 0.73579 0.0
H235 H 0.62795 0.18109 0.78374 0.0
H236 H 0.62034 0.12382 0.07763 0.0
H237 H 0.56021 0.12281 0.11729 0.0
C238 C 0.52878 0.15651 1.00187 0.0
C239 C 0.51666 0.17652 0.9354 0.0
C240 C 0.56026 0.15265 0.97465 0.0
C241 C 0.53435 0.19039 0.83834 0.0
C242 C 0.56532 0.18613 0.80984 0.0
C243 C 0.61278 0.16789 0.8558 0.0
C244 C 0.62846 0.15304 0.92853 0.0
C245 C 0.57913 0.16832 0.87873 0.0
C246 C 0.6086 0.13557 0.021 0.0
C247 C 0.57447 0.1352 0.04379 0.0
H248 H 0.41929 0.64884 0.31681 0.0
H249 H 0.44817 0.58255 0.10453 0.0
H250 H 0.38099 0.52384 0.11348 0.0
H251 H 0.31275 0.49455 0.16698 0.0
H252 H 0.28331 0.56378 0.36719 0.0
H253 H 0.35221 0.61867 0.37654 0.0
C254 C 0.41107 0.62125 0.27424 0.0
C255 C 0.43823 0.6197 0.21007 0.0
C256 C 0.37222 0.58864 0.27583 0.0
C257 C 0.42743 0.5841 0.15448 0.0
C258 C 0.38907 0.55078 0.15896 0.0
C259 C 0.32148 0.52156 0.21313 0.0
C260 C 0.29306 0.52538 0.26534 0.0
C261 C 0.36095 0.55322 0.21676 0.0
C262 C 0.30465 0.56045 0.32497 0.0
C263 C 0.34402 0.59172 0.33096 0.0
H264 H 0.8503 0.45518 0.03456 0.0
H265 H 0.72563 0.39232 0.0896 0.0
H266 H 0.71969 0.32808 0.05896 0.0
H267 H 0.74811 0.29009 1.00385 0.0
H268 H 0.87198 0.35062 0.9388 0.0
H269 H 0.88006 0.41538 0.98561 0.0
C270 C 0.82216 0.42728 0.04203 0.0
C271 C 0.78846 0.4283 0.065 0.0
C272 C 0.81865 0.39015 0.0207 0.0
C273 C 0.75194 0.39215 0.07241 0.0
C274 C 0.74847 0.35542 0.05435 0.0
C275 C 0.77706 0.31728 0.99991 0.0
C276 C 0.8093 0.31533 0.96666 0.0
C277 C 0.78136 0.35412 0.02604 0.0
C278 C 0.84652 0.35114 0.96322 0.0
C279 C 0.85117 0.38821 0.99025 0.0
H280 H 0.33379 0.77216 0.0648 0.0
H281 H 0.39078 0.88011 0.25911 0.0
H282 H 0.45271 0.88098 0.25904 0.0
H283 H 0.49076 0.84982 0.20449 0.0
H284 H 0.43047 0.73982 0.01735 0.0
H285 H 0.37041 0.74125 0.01307 0.0
C286 C 0.35973 0.79594 0.10734 0.0
C287 C 0.3575 0.82603 0.1619 0.0
C288 C 0.39499 0.79597 0.10764 0.0
C289 C 0.3915 0.85647 0.21676 0.0
C290 C 0.42701 0.85702 0.21636 0.0
C291 C 0.46457 0.8265 0.1619 0.0
C292 C 0.4654 0.79483 0.11068 0.0
C293 C 0.42923 0.82687 0.16193 0.0
C294 C 0.43086 0.7645 0.05746 0.0
C295 C 0.39634 0.76523 0.05504 0.0
H296 H 0.6167 0.48393 0.09272 0.0
H297 H 0.68134 0.42649 0.03123 0.0
H298 H 0.62091 0.36133 0.02519 0.0
H299 H 0.55032 0.31939 0.03983 0.0
H300 H 0.48196 0.37218 0.10504 0.0
H301 H 0.54257 0.43953 0.1078 0.0
C302 C 0.61739 0.45713 0.07739 0.0
C303 C 0.6541 0.46062 0.06312 0.0
C304 C 0.58169 0.41854 0.07538 0.0
C305 C 0.65408 0.42525 0.04392 0.0
C306 C 0.61929 0.38762 0.04014 0.0
C307 C 0.54825 0.34542 0.05471 0.0
C308 C 0.51118 0.34023 0.07219 0.0
C309 C 0.58304 0.38378 0.05654 0.0
C310 C 0.50987 0.37489 0.09155 0.0
C311 C 0.54467 0.41355 0.09285 0.0
H312 H 0.21805 0.45279 0.94939 0.0
H313 H 0.09241 0.40173 0.93604 0.0
H314 H 0.09148 0.39777 0.7441 0.0
H315 H 0.12652 0.40988 0.57805 0.0
H316 H 0.25213 0.46082 0.5911 0.0
H317 H 0.25302 0.46434 0.78312 0.0
C318 C 0.1905 0.44041 0.90428 0.0
C319 C 0.15539 0.42759 0.95683 0.0
C320 C 0.1902 0.43874 0.79317 0.0
C321 C 0.1199 0.41193 0.89731 0.0
C322 C 0.11932 0.40977 0.7874 0.0
C323 C 0.15407 0.42208 0.62306 0.0
C324 C 0.18919 0.4352 0.57029 0.0
C325 C 0.15433 0.42351 0.73414 0.0
C326 C 0.22464 0.45055 0.62983 0.0
C327 C 0.2252 0.45243 0.73983 0.0
H328 H 0.72666 0.15059 0.5207 0.0
H329 H 0.84706 0.22907 0.63384 0.0
H330 H 0.86918 0.24146 0.45249 0.0
H331 H 0.854 0.23093 0.26285 0.0
H332 H 0.73344 0.15585 0.14811 0.0
H333 H 0.71128 0.14125 0.3297 0.0
C334 C 0.75776 0.17016 0.5054 0.0
C335 C 0.78536 0.18879 0.58982 0.0
C336 C 0.77 0.17793 0.4012 0.0
C337 C 0.82545 0.21447 0.56961 0.0
C338 C 0.83802 0.22157 0.46623 0.0
C339 C 0.82285 0.21138 0.27775 0.0
C340 C 0.79526 0.1944 0.19303 0.0
C341 C 0.81052 0.20368 0.38162 0.0
C342 C 0.75504 0.16936 0.21265 0.0
C343 C 0.74248 0.16093 0.31618 0.0
H344 H 0.54316 0.71286 0.75458 0.0
H345 H 0.58527 0.8339 0.86252 0.0
H346 H 0.5997 0.85704 0.6816 0.0
H347 H 0.5999 0.84269 0.49271 0.0
H348 H 0.55319 0.721 0.38248 0.0
H349 H 0.54055 0.69799 0.56431 0.0
C350 C 0.55558 0.74433 0.73846 0.0
C351 C 0.56368 0.77181 0.82198 0.0
C352 C 0.56269 0.75713 0.63388 0.0
C353 C 0.57924 0.81233 0.7998 0.0
C354 C 0.58734 0.8255 0.69634 0.0
C355 C 0.58694 0.81112 0.50862 0.0
C356 C 0.57757 0.78351 0.42467 0.0
C357 C 0.57916 0.79817 0.61284 0.0
C358 C 0.56047 0.74269 0.44594 0.0
C359 C 0.55339 0.72963 0.54982 0.0
H360 H 0.82248 0.55929 0.69781 0.0
H361 H 0.72264 0.56692 0.78032 0.0
H362 H 0.70728 0.5688 0.59362 0.0
H363 H 0.72185 0.56713 0.40815 0.0
H364 H 0.82157 0.5592 0.32604 0.0
H365 H 0.83704 0.55763 0.51272 0.0
C366 C 0.79745 0.56153 0.67488 0.0
C367 C 0.77362 0.56292 0.75194 0.0
C368 C 0.78858 0.56198 0.56812 0.0
C369 C 0.74135 0.56589 0.7218 0.0
C370 C 0.73249 0.56674 0.61539 0.0
C371 C 0.74685 0.56485 0.43121 0.0
C372 C 0.77063 0.56329 0.35425 0.0
C373 C 0.75573 0.56447 0.53806 0.0
C374 C 0.80292 0.56039 0.38452 0.0
C375 C 0.81183 0.55968 0.4909 0.0
H376 H 0.23802 0.8604 0.44667 0.0
H377 H 0.14772 0.73438 0.43682 0.0
H378 H 0.15052 0.73261 0.6286 0.0
H379 H 0.17807 0.76705 0.8016 0.0
H380 H 0.26846 0.89305 0.8115 0.0
H381 H 0.26572 0.89481 0.61973 0.0
C382 C 0.2194 0.83253 0.48667 0.0
C383 C 0.19281 0.79758 0.42746 0.0
C384 C 0.22066 0.83181 0.59791 0.0
C385 C 0.16846 0.76176 0.48062 0.0
C386 C 0.16988 0.76071 0.59051 0.0
C387 C 0.19675 0.79491 0.76163 0.0
C388 C 0.22327 0.82987 0.82091 0.0
C389 C 0.19554 0.79562 0.6504 0.0
C390 C 0.2477 0.86567 0.76774 0.0
C391 C 0.24634 0.86671 0.65782 0.0
H392 H 0.39533 0.1731 0.73258 0.0
H393 H 0.42445 0.29559 0.72822 0.0
H394 H 0.42863 0.29567 0.53696 0.0
H395 H 0.42374 0.26091 0.3685 0.0
H396 H 0.395 0.13855 0.37291 0.0
H397 H 0.39071 0.13842 0.56419 0.0
C398 C 0.40272 0.19981 0.68971 0.0
C399 C 0.40947 0.23423 0.74512 0.0
C400 C 0.40495 0.19967 0.57876 0.0
C401 C 0.419 0.26859 0.68795 0.0
C402 C 0.42135 0.26869 0.57818 0.0
C403 C 0.41639 0.23421 0.41139 0.0
C404 C 0.40975 0.19982 0.35602 0.0
C405 C 0.41423 0.23437 0.52236 0.0
C406 C 0.40038 0.16552 0.41321 0.0
C407 C 0.39794 0.16539 0.52296 0.0
loop_
_geom_bond_atom_site_label_1
_geom_bond_atom_site_label_2
_geom_bond_distance
_geom_bond_site_symmetry_2
_ccdc_geom_bond_type
Dy0 O4 2.398 . S
Dy0 O5 2.491 . S
Dy0 O6 2.403 1_554 S
Dy0 O7 2.664 . S
Dy0 O11 2.326 . S
Dy0 O15 2.310 . S
Dy0 O16 2.351 . S
C1 O12 1.185 . S
C1 O13 1.355 . S
C2 O4 1.185 . S
C2 O5 1.355 . S
Dy3 O7 2.310 . S
Dy3 O10 2.351 . S
Dy3 O12 2.398 . S
Dy3 O13 2.491 . S
Dy3 O14 2.403 . S
Dy3 O15 2.664 . S
Dy3 O17 2.326 . S
O4 Dy0 2.398 . S
O4 C2 1.185 . S
O5 Dy0 2.491 . S
O5 C2 1.355 . S
O6 Dy0 2.403 1_556 S
O6 C8 1.254 . S
O7 Dy0 2.664 . S
O7 Dy3 2.310 . S
O7 C8 1.268 1_554 S
C8 O6 1.254 . S
C8 O7 1.268 1_556 S
C9 O14 1.254 . S
C9 O15 1.268 . S
O10 Dy3 2.351 . S
O10 C18 1.249 . S
O11 Dy0 2.326 . S
O11 C18 1.267 . S
O12 C1 1.185 . S
O12 Dy3 2.398 . S
O13 C1 1.355 . S
O13 Dy3 2.491 . S
O14 Dy3 2.403 . S
O14 C9 1.254 . S
O15 Dy0 2.310 . S
O15 Dy3 2.664 . S
O15 C9 1.268 . S
O16 Dy0 2.351 . S
O16 C19 1.249 . S
O17 Dy3 2.326 . S
O17 C19 1.267 . S
C18 O10 1.249 . S
C18 O11 1.267 . S
C19 O16 1.249 . S
C19 O17 1.267 . S
Dy20 O24 2.398 . S
Dy20 O25 2.491 1_556 S
Dy20 O26 2.403 . S
Dy20 O27 2.664 . S
Dy20 O31 2.326 . S
Dy20 O35 2.310 1_556 S
Dy20 O36 2.351 . S
C21 O32 1.185 . S
C21 O33 1.355 1_554 S
C22 O24 1.185 . S
C22 O25 1.355 1_556 S
Dy23 O27 2.310 1_554 S
Dy23 O30 2.351 . S
Dy23 O32 2.398 . S
Dy23 O33 2.491 1_554 S
Dy23 O34 2.403 . S
Dy23 O35 2.664 . S
Dy23 O37 2.326 . S
O24 Dy20 2.398 . S
O24 C22 1.185 . S
O25 Dy20 2.491 1_554 S
O25 C22 1.355 1_554 S
O26 Dy20 2.403 . S
O26 C28 1.254 . S
O27 Dy20 2.664 . S
O27 Dy23 2.310 1_556 S
O27 C28 1.268 . S
C28 O26 1.254 . S
C28 O27 1.268 . S
C29 O34 1.254 . S
C29 O35 1.268 . S
O30 Dy23 2.351 . S
O30 C38 1.249 1_554 S
O31 Dy20 2.326 . S
O31 C38 1.267 . S
O32 C21 1.185 . S
O32 Dy23 2.398 . S
O33 C21 1.355 1_556 S
O33 Dy23 2.491 1_556 S
O34 Dy23 2.403 . S
O34 C29 1.254 . S
O35 Dy20 2.310 1_554 S
O35 Dy23 2.664 . S
O35 C29 1.268 . S
O36 Dy20 2.351 . S
O36 C39 1.249 1_556 S
O37 Dy23 2.326 . S
O37 C39 1.267 . S
C38 O30 1.249 1_556 S
C38 O31 1.267 . S
C39 O36 1.249 1_554 S
C39 O37 1.267 . S
Dy40 O44 2.398 . S
Dy40 O45 2.491 . S
Dy40 O46 2.403 1_554 S
Dy40 O47 2.664 . S
Dy40 O51 2.326 . S
Dy40 O55 2.310 . S
Dy40 O56 2.351 . S
C41 O52 1.185 . S
C41 O53 1.355 . S
C42 O44 1.185 . S
C42 O45 1.355 . S
Dy43 O47 2.310 . S
Dy43 O50 2.351 . S
Dy43 O52 2.398 . S
Dy43 O53 2.491 . S
Dy43 O54 2.403 . S
Dy43 O55 2.664 . S
Dy43 O57 2.326 . S
O44 Dy40 2.398 . S
O44 C42 1.185 . S
O45 Dy40 2.491 . S
O45 C42 1.355 . S
O46 Dy40 2.403 1_556 S
O46 C48 1.254 . S
O47 Dy40 2.664 . S
O47 Dy43 2.310 . S
O47 C48 1.268 1_554 S
C48 O46 1.254 . S
C48 O47 1.268 1_556 S
C49 O54 1.254 . S
C49 O55 1.268 . S
O50 Dy43 2.351 . S
O50 C58 1.249 . S
O51 Dy40 2.326 . S
O51 C58 1.267 . S
O52 C41 1.185 . S
O52 Dy43 2.398 . S
O53 C41 1.355 . S
O53 Dy43 2.491 . S
O54 Dy43 2.403 . S
O54 C49 1.254 . S
O55 Dy40 2.310 . S
O55 Dy43 2.664 . S
O55 C49 1.268 . S
O56 Dy40 2.351 . S
O56 C59 1.249 . S
O57 Dy43 2.326 . S
O57 C59 1.267 . S
C58 O50 1.249 . S
C58 O51 1.267 . S
C59 O56 1.249 . S
C59 O57 1.267 . S
Dy60 O64 2.398 . S
Dy60 O65 2.491 1_556 S
Dy60 O66 2.403 . S
Dy60 O67 2.664 . S
Dy60 O71 2.326 . S
Dy60 O75 2.310 1_556 S
Dy60 O76 2.351 1_556 S
C61 O72 1.185 . S
C61 O73 1.355 1_554 S
C62 O64 1.185 1_554 S
C62 O65 1.355 . S
Dy63 O67 2.310 1_554 S
Dy63 O70 2.351 . S
Dy63 O72 2.398 . S
Dy63 O73 2.491 1_554 S
Dy63 O74 2.403 . S
Dy63 O75 2.664 . S
Dy63 O77 2.326 . S
O64 Dy60 2.398 . S
O64 C62 1.185 1_556 S
O65 Dy60 2.491 1_554 S
O65 C62 1.355 . S
O66 Dy60 2.403 . S
O66 C68 1.254 . S
O67 Dy60 2.664 . S
O67 Dy63 2.310 1_556 S
O67 C68 1.268 . S
C68 O66 1.254 . S
C68 O67 1.268 . S
C69 O74 1.254 . S
C69 O75 1.268 . S
O70 Dy63 2.351 . S
O70 C78 1.249 1_554 S
O71 Dy60 2.326 . S
O71 C78 1.267 . S
O72 C61 1.185 . S
O72 Dy63 2.398 . S
O73 C61 1.355 1_556 S
O73 Dy63 2.491 1_556 S
O74 Dy63 2.403 . S
O74 C69 1.254 . S
O75 Dy60 2.310 1_554 S
O75 Dy63 2.664 . S
O75 C69 1.268 . S
O76 Dy60 2.351 1_554 S
O76 C79 1.249 . S
O77 Dy63 2.326 . S
O77 C79 1.267 . S
C78 O70 1.249 1_556 S
C78 O71 1.267 . S
C79 O76 1.249 . S
C79 O77 1.267 . S
Dy80 O84 2.398 . S
Dy80 O85 2.491 . S
Dy80 O86 2.403 1_554 S
Dy80 O87 2.664 . S
Dy80 O91 2.326 . S
Dy80 O95 2.310 . S
Dy80 O96 2.351 . S
C81 O92 1.185 . S
C81 O93 1.355 . S
C82 O84 1.185 . S
C82 O85 1.355 . S
Dy83 O87 2.310 . S
Dy83 O90 2.351 . S
Dy83 O92 2.398 . S
Dy83 O93 2.491 . S
Dy83 O94 2.403 . S
Dy83 O95 2.664 . S
Dy83 O97 2.326 . S
O84 Dy80 2.398 . S
O84 C82 1.185 . S
O85 Dy80 2.491 . S
O85 C82 1.355 . S
O86 Dy80 2.403 1_556 S
O86 C88 1.254 . S
O87 Dy80 2.664 . S
O87 Dy83 2.310 . S
O87 C88 1.268 1_554 S
C88 O86 1.254 . S
C88 O87 1.268 1_556 S
C89 O94 1.254 . S
C89 O95 1.268 . S
O90 Dy83 2.351 . S
O90 C98 1.249 . S
O91 Dy80 2.326 . S
O91 C98 1.267 . S
O92 C81 1.185 . S
O92 Dy83 2.398 . S
O93 C81 1.355 . S
O93 Dy83 2.491 . S
O94 Dy83 2.403 . S
O94 C89 1.254 . S
O95 Dy80 2.310 . S
O95 Dy83 2.664 . S
O95 C89 1.268 . S
O96 Dy80 2.351 . S
O96 C99 1.249 . S
O97 Dy83 2.326 . S
O97 C99 1.267 . S
C98 O90 1.249 . S
C98 O91 1.267 . S
C99 O96 1.249 . S
C99 O97 1.267 . S
Dy100 O104 2.398 . S
Dy100 O105 2.491 1_554 S
Dy100 O106 2.403 . S
Dy100 O107 2.664 . S
Dy100 O111 2.326 . S
Dy100 O115 2.310 1_554 S
Dy100 O116 2.351 . S
C101 O112 1.185 1_554 S
C101 O113 1.355 . S
C102 O104 1.185 1_556 S
C102 O105 1.355 . S
Dy103 O107 2.310 1_556 S
Dy103 O110 2.351 . S
Dy103 O112 2.398 . S
Dy103 O113 2.491 1_556 S
Dy103 O114 2.403 . S
Dy103 O115 2.664 . S
Dy103 O117 2.326 . S
O104 Dy100 2.398 . S
O104 C102 1.185 1_554 S
O105 Dy100 2.491 1_556 S
O105 C102 1.355 . S
O106 Dy100 2.403 . S
O106 C108 1.254 . S
O107 Dy100 2.664 . S
O107 Dy103 2.310 1_554 S
O107 C108 1.268 . S
C108 O106 1.254 . S
C108 O107 1.268 . S
C109 O114 1.254 . S
C109 O115 1.268 . S
O110 Dy103 2.351 . S
O110 C118 1.249 1_556 S
O111 Dy100 2.326 . S
O111 C118 1.267 . S
O112 C101 1.185 1_556 S
O112 Dy103 2.398 . S
O113 C101 1.355 . S
O113 Dy103 2.491 1_554 S
O114 Dy103 2.403 . S
O114 C109 1.254 . S
O115 Dy100 2.310 1_556 S
O115 Dy103 2.664 . S
O115 C109 1.268 . S
O116 Dy100 2.351 . S
O116 C119 1.249 . S
O117 Dy103 2.326 . S
O117 C119 1.267 1_556 S
C118 O110 1.249 1_554 S
C118 O111 1.267 . S
C119 O116 1.249 . S
C119 O117 1.267 1_554 S
H120 C126 0.930 . S
H121 C129 0.930 . S
H122 C130 0.930 . S
H123 C131 0.930 . S
H124 C134 0.930 . S
H125 C135 0.930 . S
C126 H120 0.930 . S
C126 C127 1.355 . S
C126 C128 1.415 . S
C127 C126 1.355 . S
C127 C129 1.419 . S
C128 C126 1.415 . S
C128 C133 1.425 . S
C128 C135 1.409 . S
C129 H121 0.930 . S
C129 C127 1.419 . S
C129 C130 1.362 . S
C130 H122 0.930 . S
C130 C129 1.362 . S
C130 C133 1.409 . S
C131 H123 0.930 . S
C131 C132 1.355 . S
C131 C133 1.415 . S
C132 C131 1.355 . S
C132 C134 1.419 . S
C133 C128 1.425 . S
C133 C130 1.409 . S
C133 C131 1.415 . S
C134 H124 0.930 . S
C134 C132 1.419 . S
C134 C135 1.362 . S
C135 H125 0.930 . S
C135 C128 1.409 . S
C135 C134 1.362 . S
H136 C142 0.930 . S
H137 C145 0.930 1_556 S
H138 C146 0.930 . S
H139 C147 0.930 . S
H140 C150 0.930 . S
H141 C151 0.930 . S
C142 H136 0.930 . S
C142 C143 1.355 . S
C142 C144 1.415 . S
C143 C142 1.355 . S
C143 C145 1.419 . S
C144 C142 1.415 . S
C144 C149 1.425 . S
C144 C151 1.409 1_455 S
C145 H137 0.930 1_554 S
C145 C143 1.419 . S
C145 C146 1.362 1_554 S
C146 H138 0.930 . S
C146 C145 1.362 1_556 S
C146 C149 1.409 1_556 S
C147 H139 0.930 . S
C147 C148 1.355 1_556 S
C147 C149 1.415 1_656 S
C148 C147 1.355 1_554 S
C148 C150 1.419 . S
C149 C144 1.425 . S
C149 C146 1.409 1_554 S
C149 C147 1.415 1_454 S
C150 H140 0.930 . S
C150 C148 1.419 . S
C150 C151 1.362 . S
C151 H141 0.930 . S
C151 C144 1.409 1_655 S
C151 C150 1.362 . S
H152 C158 0.930 . S
H153 C161 0.930 . S
H154 C162 0.930 . S
H155 C163 0.930 . S
H156 C166 0.930 . S
H157 C167 0.930 . S
C158 H152 0.930 . S
C158 C159 1.355 . S
C158 C160 1.415 . S
C159 C158 1.355 . S
C159 C161 1.419 1_554 S
C160 C158 1.415 . S
C160 C165 1.425 . S
C160 C167 1.409 . S
C161 H153 0.930 . S
C161 C159 1.419 1_556 S
C161 C162 1.362 . S
C162 H154 0.930 . S
C162 C161 1.362 . S
C162 C165 1.409 1_556 S
C163 H155 0.930 . S
C163 C164 1.355 . S
C163 C165 1.415 1_565 S
C164 C163 1.355 . S
C164 C166 1.419 . S
C165 C160 1.425 . S
C165 C162 1.409 1_554 S
C165 C163 1.415 1_545 S
C166 H156 0.930 . S
C166 C164 1.419 . S
C166 C167 1.362 1_565 S
C167 H157 0.930 . S
C167 C160 1.409 . S
C167 C166 1.362 1_545 S
H168 C174 0.930 . S
H169 C177 0.930 . S
H170 C178 0.930 . S
H171 C179 0.930 1_556 S
H172 C182 0.930 . S
H173 C183 0.930 . S
C174 H168 0.930 . S
C174 C175 1.355 . S
C174 C176 1.415 . S
C175 C174 1.355 . S
C175 C177 1.419 1_554 S
C176 C174 1.415 . S
C176 C181 1.425 . S
C176 C183 1.409 . S
C177 H169 0.930 . S
C177 C175 1.419 1_556 S
C177 C178 1.362 . S
C178 H170 0.930 . S
C178 C177 1.362 . S
C178 C181 1.409 1_556 S
C179 H171 0.930 1_554 S
C179 C180 1.355 . S
C179 C181 1.415 . S
C180 C179 1.355 . S
C180 C182 1.419 . S
C181 C176 1.425 . S
C181 C178 1.409 1_554 S
C181 C179 1.415 . S
C182 H172 0.930 . S
C182 C180 1.419 . S
C182 C183 1.362 . S
C183 H173 0.930 . S
C183 C176 1.409 . S
C183 C182 1.362 . S
H184 C190 0.930 1_556 S
H185 C193 0.930 1_455 S
H186 C194 0.930 . S
H187 C195 0.930 . S
H188 C198 0.930 . S
H189 C199 0.930 . S
C190 H184 0.930 1_554 S
C190 C191 1.355 . S
C190 C192 1.415 1_455 S
C191 C190 1.355 . S
C191 C193 1.419 1_455 S
C192 C190 1.415 1_655 S
C192 C197 1.425 . S
C192 C199 1.409 1_554 S
C193 H185 0.930 1_655 S
C193 C191 1.419 1_655 S
C193 C194 1.362 . S
C194 H186 0.930 . S
C194 C193 1.362 . S
C194 C197 1.409 . S
C195 H187 0.930 . S
C195 C196 1.355 . S
C195 C197 1.415 . S
C196 C195 1.355 . S
C196 C198 1.419 1_554 S
C197 C192 1.425 . S
C197 C194 1.409 . S
C197 C195 1.415 . S
C198 H188 0.930 . S
C198 C196 1.419 1_556 S
C198 C199 1.362 . S
C199 H189 0.930 . S
C199 C192 1.409 1_556 S
C199 C198 1.362 . S
H200 C206 0.930 . S
H201 C209 0.930 . S
H202 C210 0.930 . S
H203 C211 0.930 . S
H204 C214 0.930 . S
H205 C215 0.930 . S
C206 H200 0.930 . S
C206 C207 1.355 . S
C206 C208 1.415 . S
C207 C206 1.355 . S
C207 C209 1.419 . S
C208 C206 1.415 . S
C208 C213 1.425 1_565 S
C208 C215 1.409 1_565 S
C209 H201 0.930 . S
C209 C207 1.419 . S
C209 C210 1.362 . S
C210 H202 0.930 . S
C210 C209 1.362 . S
C210 C213 1.409 1_565 S
C211 H203 0.930 . S
C211 C212 1.355 . S
C211 C213 1.415 . S
C212 C211 1.355 . S
C212 C214 1.419 . S
C213 C208 1.425 1_545 S
C213 C210 1.409 1_545 S
C213 C211 1.415 . S
C214 H204 0.930 . S
C214 C212 1.419 . S
C214 C215 1.362 . S
C215 H205 0.930 . S
C215 C208 1.409 1_545 S
C215 C214 1.362 . S
H216 C222 0.930 . S
H217 C225 0.922 1_556 S
H218 C226 0.930 1_556 S
H219 C227 0.930 . S
H220 C230 0.930 . S
H221 C231 0.930 . S
C222 H216 0.930 . S
C222 C223 1.355 . S
C222 C224 1.415 . S
C223 C222 1.355 . S
C223 C225 1.419 . S
C224 C222 1.415 . S
C224 C229 1.425 . S
C224 C231 1.409 . S
C225 H217 0.922 1_554 S
C225 C223 1.419 . S
C225 C226 1.362 . S
C226 H218 0.930 1_554 S
C226 C225 1.362 . S
C226 C229 1.409 . S
C227 H219 0.930 . S
C227 C228 1.355 . S
C227 C229 1.415 . S
C228 C227 1.355 . S
C228 C230 1.419 . S
C229 C224 1.425 . S
C229 C226 1.409 . S
C229 C227 1.415 . S
C230 H220 0.930 . S
C230 C228 1.419 . S
C230 C231 1.362 . S
C231 H221 0.930 . S
C231 C224 1.409 . S
C231 C230 1.362 . S
H232 C238 0.930 . S
H233 C241 0.930 . S
H234 C242 0.930 . S
H235 C243 0.930 . S
H236 C246 0.930 . S
H237 C247 0.930 . S
C238 H232 0.930 . S
C238 C239 1.355 1_554 S
C238 C240 1.415 . S
C239 C238 1.355 1_556 S
C239 C241 1.419 . S
C240 C238 1.415 . S
C240 C245 1.425 1_554 S
C240 C247 1.409 . S
C241 H233 0.930 . S
C241 C239 1.419 . S
C241 C242 1.362 . S
C242 H234 0.930 . S
C242 C241 1.362 . S
C242 C245 1.409 . S
C243 H235 0.930 . S
C243 C244 1.355 . S
C243 C245 1.415 . S
C244 C243 1.355 . S
C244 C246 1.419 1_556 S
C245 C240 1.425 1_556 S
C245 C242 1.409 . S
C245 C243 1.415 . S
C246 H236 0.930 . S
C246 C244 1.419 1_554 S
C246 C247 1.362 . S
C247 H237 0.930 . S
C247 C240 1.409 . S
C247 C246 1.362 . S
H248 C254 0.930 . S
H249 C257 0.930 . S
H250 C258 0.930 1_556 S
H251 C259 0.930 . S
H252 C262 0.930 . S
H253 C263 0.930 . S
C254 H248 0.930 . S
C254 C255 1.355 . S
C254 C256 1.415 . S
C255 C254 1.355 . S
C255 C257 1.419 . S
C256 C254 1.415 . S
C256 C261 1.425 . S
C256 C263 1.409 . S
C257 H249 0.930 . S
C257 C255 1.419 . S
C257 C258 1.362 . S
C258 H250 0.930 1_554 S
C258 C257 1.362 . S
C258 C261 1.409 . S
C259 H251 0.930 . S
C259 C260 1.355 . S
C259 C261 1.415 . S
C260 C259 1.355 . S
C260 C262 1.419 . S
C261 C256 1.425 . S
C261 C258 1.409 . S
C261 C259 1.415 . S
C262 H252 0.930 . S
C262 C260 1.419 . S
C262 C263 1.362 . S
C263 H253 0.930 . S
C263 C256 1.409 . S
C263 C262 1.362 . S
H264 C270 0.930 . S
H265 C273 0.930 . S
H266 C274 0.930 . S
H267 C275 0.930 . S
H268 C278 0.930 . S
H269 C279 0.930 . S
C270 H264 0.930 . S
C270 C271 1.355 1_554 S
C270 C272 1.415 . S
C271 C270 1.355 1_556 S
C271 C273 1.419 . S
C272 C270 1.415 . S
C272 C277 1.425 1_554 S
C272 C279 1.409 . S
C273 H265 0.930 . S
C273 C271 1.419 . S
C273 C274 1.362 . S
C274 H266 0.930 . S
C274 C273 1.362 . S
C274 C277 1.409 . S
C275 H267 0.930 . S
C275 C276 1.355 1_556 S
C275 C277 1.415 . S
C276 C275 1.355 1_554 S
C276 C278 1.419 . S
C277 C272 1.425 1_556 S
C277 C274 1.409 . S
C277 C275 1.415 . S
C278 H268 0.930 . S
C278 C276 1.419 . S
C278 C279 1.362 . S
C279 H269 0.930 . S
C279 C272 1.409 . S
C279 C278 1.362 . S
H280 C286 0.930 . S
H281 C289 0.930 . S
H282 C290 0.930 . S
H283 C291 0.930 . S
H284 C294 0.930 . S
H285 C295 0.930 . S
C286 H280 0.930 . S
C286 C287 1.355 . S
C286 C288 1.415 . S
C287 C286 1.355 . S
C287 C289 1.419 . S
C288 C286 1.415 . S
C288 C293 1.425 . S
C288 C295 1.409 . S
C289 H281 0.930 . S
C289 C287 1.419 . S
C289 C290 1.362 . S
C290 H282 0.930 . S
C290 C289 1.362 . S
C290 C293 1.409 . S
C291 H283 0.930 . S
C291 C292 1.355 . S
C291 C293 1.415 . S
C292 C291 1.355 . S
C292 C294 1.419 . S
C293 C288 1.425 . S
C293 C290 1.409 . S
C293 C291 1.415 . S
C294 H284 0.930 . S
C294 C292 1.419 . S
C294 C295 1.362 . S
C295 H285 0.930 . S
C295 C288 1.409 . S
C295 C294 1.362 . S
H296 C302 0.930 . S
H297 C305 0.930 . S
H298 C306 0.930 . S
H299 C307 0.930 . S
H300 C310 0.930 . S
H301 C311 0.930 . S
C302 H296 0.930 . S
C302 C303 1.355 1_554 S
C302 C304 1.415 . S
C303 C302 1.355 1_556 S
C303 C305 1.419 . S
C304 C302 1.415 . S
C304 C309 1.425 1_554 S
C304 C311 1.409 . S
C305 H297 0.930 . S
C305 C303 1.419 . S
C305 C306 1.362 . S
C306 H298 0.930 . S
C306 C305 1.362 . S
C306 C309 1.409 . S
C307 H299 0.930 . S
C307 C308 1.355 1_556 S
C307 C309 1.415 . S
C308 C307 1.355 1_554 S
C308 C310 1.419 . S
C309 C304 1.425 1_556 S
C309 C306 1.409 . S
C309 C307 1.415 . S
C310 H300 0.930 . S
C310 C308 1.419 . S
C310 C311 1.362 . S
C311 H301 0.930 . S
C311 C304 1.409 . S
C311 C310 1.362 . S
H312 C318 0.930 . S
H313 C321 0.930 . S
H314 C322 0.930 . S
H315 C323 0.930 . S
H316 C326 0.930 . S
H317 C327 0.930 . S
C318 H312 0.930 . S
C318 C319 1.355 . S
C318 C320 1.415 . S
C319 C318 1.355 . S
C319 C321 1.419 . S
C320 C318 1.415 . S
C320 C325 1.425 . S
C320 C327 1.409 . S
C321 H313 0.930 . S
C321 C319 1.419 . S
C321 C322 1.362 . S
C322 H314 0.930 . S
C322 C321 1.362 . S
C322 C325 1.409 . S
C323 H315 0.930 . S
C323 C324 1.355 . S
C323 C325 1.415 . S
C324 C323 1.355 . S
C324 C326 1.419 . S
C325 C320 1.425 . S
C325 C322 1.409 . S
C325 C323 1.415 . S
C326 H316 0.930 . S
C326 C324 1.419 . S
C326 C327 1.362 . S
C327 H317 0.930 . S
C327 C320 1.409 . S
C327 C326 1.362 . S
H328 C334 0.930 . S
H329 C337 0.930 . S
H330 C338 0.930 . S
H331 C339 0.930 . S
H332 C342 0.930 . S
H333 C343 0.930 . S
C334 H328 0.930 . S
C334 C335 1.355 . S
C334 C336 1.415 . S
C335 C334 1.355 . S
C335 C337 1.419 . S
C336 C334 1.415 . S
C336 C341 1.425 . S
C336 C343 1.409 . S
C337 H329 0.930 . S
C337 C335 1.419 . S
C337 C338 1.362 . S
C338 H330 0.930 . S
C338 C337 1.362 . S
C338 C341 1.409 . S
C339 H331 0.930 . S
C339 C340 1.355 . S
C339 C341 1.415 . S
C340 C339 1.355 . S
C340 C342 1.419 . S
C341 C336 1.425 . S
C341 C338 1.409 . S
C341 C339 1.415 . S
C342 H332 0.930 . S
C342 C340 1.419 . S
C342 C343 1.362 . S
C343 H333 0.930 . S
C343 C336 1.409 . S
C343 C342 1.362 . S
H344 C350 0.930 . S
H345 C353 0.930 . S
H346 C354 0.930 . S
H347 C355 0.930 . S
H348 C358 0.930 . S
H349 C359 0.930 . S
C350 H344 0.930 . S
C350 C351 1.355 . S
C350 C352 1.415 . S
C351 C350 1.355 . S
C351 C353 1.419 . S
C352 C350 1.415 . S
C352 C357 1.425 . S
C352 C359 1.409 . S
C353 H345 0.930 . S
C353 C351 1.419 . S
C353 C354 1.362 . S
C354 H346 0.930 . S
C354 C353 1.362 . S
C354 C357 1.409 . S
C355 H347 0.930 . S
C355 C356 1.355 . S
C355 C357 1.415 . S
C356 C355 1.355 . S
C356 C358 1.419 . S
C357 C352 1.425 . S
C357 C354 1.409 . S
C357 C355 1.415 . S
C358 H348 0.930 . S
C358 C356 1.419 . S
C358 C359 1.362 . S
C359 H349 0.930 . S
C359 C352 1.409 . S
C359 C358 1.362 . S
H360 C366 0.930 . S
H361 C369 0.930 . S
H362 C370 0.930 . S
H363 C371 0.930 . S
H364 C374 0.930 . S
H365 C375 0.930 . S
C366 H360 0.930 . S
C366 C367 1.355 . S
C366 C368 1.415 . S
C367 C366 1.355 . S
C367 C369 1.419 . S
C368 C366 1.415 . S
C368 C373 1.425 . S
C368 C375 1.409 . S
C369 H361 0.930 . S
C369 C367 1.419 . S
C369 C370 1.362 . S
C370 H362 0.930 . S
C370 C369 1.362 . S
C370 C373 1.409 . S
C371 H363 0.930 . S
C371 C372 1.355 . S
C371 C373 1.415 . S
C372 C371 1.355 . S
C372 C374 1.419 . S
C373 C368 1.425 . S
C373 C370 1.409 . S
C373 C371 1.415 . S
C374 H364 0.930 . S
C374 C372 1.419 . S
C374 C375 1.362 . S
C375 H365 0.930 . S
C375 C368 1.409 . S
C375 C374 1.362 . S
H376 C382 0.930 . S
H377 C385 0.930 . S
H378 C386 0.930 . S
H379 C387 0.930 . S
H380 C390 0.930 . S
H381 C391 0.930 . S
C382 H376 0.930 . S
C382 C383 1.355 . S
C382 C384 1.415 . S
C383 C382 1.355 . S
C383 C385 1.419 . S
C384 C382 1.415 . S
C384 C389 1.425 . S
C384 C391 1.409 . S
C385 H377 0.930 . S
C385 C383 1.419 . S
C385 C386 1.362 . S
C386 H378 0.930 . S
C386 C385 1.362 . S
C386 C389 1.409 . S
C387 H379 0.930 . S
C387 C388 1.355 . S
C387 C389 1.415 . S
C388 C387 1.355 . S
C388 C390 1.419 . S
C389 C384 1.425 . S
C389 C386 1.409 . S
C389 C387 1.415 . S
C390 H380 0.930 . S
C390 C388 1.419 . S
C390 C391 1.362 . S
C391 H381 0.930 . S
C391 C384 1.409 . S
C391 C390 1.362 . S
H392 C398 0.930 . S
H393 C401 0.930 . S
H394 C402 0.930 . S
H395 C403 0.930 . S
H396 C406 0.930 . S
H397 C407 0.930 . S
C398 H392 0.930 . S
C398 C399 1.355 . S
C398 C400 1.415 . S
C399 C398 1.355 . S
C399 C401 1.419 . S
C400 C398 1.415 . S
C400 C405 1.425 . S
C400 C407 1.409 . S
C401 H393 0.930 . S
C401 C399 1.419 . S
C401 C402 1.362 . S
C402 H394 0.930 . S
C402 C401 1.362 . S
C402 C405 1.409 . S
C403 H395 0.930 . S
C403 C404 1.355 . S
C403 C405 1.415 . S
C404 C403 1.355 . S
C404 C406 1.419 . S
C405 C400 1.425 . S
C405 C402 1.409 . S
C405 C403 1.415 . S
C406 H396 0.930 . S
C406 C404 1.419 . S
C406 C407 1.362 . S
C407 H397 0.930 . S
C407 C400 1.409 . S
C407 C406 1.362 . S
C127 C101 1.357 . S
C132 C1 1.490 . S
C143 C19 1.429 . S
C148 C21 1.121 . S
C159 C39 1.089 . S
C164 C41 1.077 . S
C175 C61 1.793 . S
C180 C59 1.871 . S
C191 C81 1.745 . S
C196 C79 1.901 . S
C207 C99 1.376 . S
C212 C119 1.457 . S
C223 C98 1.662 . S
C228 C2 1.667 . S
C239 C102 1.301 . S
C244 C22 1.266 . S
C255 C42 1.427 . S
C260 C18 1.457 . S
C271 C62 1.737 1_556 S
C276 C38 1.776 1_554 S
C287 C82 2.009 . S
C292 C58 2.021 . S
C303 C78 2.207 . S
C308 C118 2.189 . S
C319 C8 1.393 . S
C324 C9 1.393 . S
C335 C28 1.450 . S
C340 C29 1.450 . S
C351 C48 1.414 . S
C356 C49 1.414 . S
C367 C68 1.435 . S
C372 C69 1.435 . S
C383 C89 1.374 . S
C388 C88 1.374 . S
C399 C109 1.413 . S
C404 C108 1.413 . S
