# Generated by pormake.
# Topology uog, (4)-cn, num edge types: 1
# Building blocks:
#     Node 0, Type 0, BuildingBlock: NAWXER_clean_sbu_0, # of connection points: 4
#     Node 1, Type 0, BuildingBlock: NAWXER_clean_sbu_0, # of connection points: 4
#     Node 2, Type 0, BuildingBlock: NAWXER_clean_sbu_0, # of connection points: 4
#     Node 3, Type 0, BuildingBlock: NAWXER_clean_sbu_0, # of connection points: 4
#     Node 4, Type 0, BuildingBlock: NAWXER_clean_sbu_0, # of connection points: 4
#     Node 5, Type 0, BuildingBlock: NAWXER_clean_sbu_0, # of connection points: 4
#     Edge 6, Type (0, 0), BuildingBlock: MIFKUJ_clean_linker_0, # of connection points: 2
#     Edge 7, Type (0, 0), BuildingBlock: MIFKUJ_clean_linker_0, # of connection points: 2
#     Edge 8, Type (0, 0), BuildingBlock: MIFKUJ_clean_linker_0, # of connection points: 2
#     Edge 9, Type (0, 0), BuildingBlock: MIFKUJ_clean_linker_0, # of connection points: 2
#     Edge 10, Type (0, 0), BuildingBlock: MIFKUJ_clean_linker_0, # of connection points: 2
#     Edge 11, Type (0, 0), BuildingBlock: MIFKUJ_clean_linker_0, # of connection points: 2
#     Edge 12, Type (0, 0), BuildingBlock: MIFKUJ_clean_linker_0, # of connection points: 2
#     Edge 13, Type (0, 0), BuildingBlock: MIFKUJ_clean_linker_0, # of connection points: 2
#     Edge 14, Type (0, 0), BuildingBlock: MIFKUJ_clean_linker_0, # of connection points: 2
#     Edge 15, Type (0, 0), BuildingBlock: MIFKUJ_clean_linker_0, # of connection points: 2
#     Edge 16, Type (0, 0), BuildingBlock: MIFKUJ_clean_linker_0, # of connection points: 2
#     Edge 17, Type (0, 0), BuildingBlock: MIFKUJ_clean_linker_0, # of connection points: 2
# Relax obj value: 0.013
# Max RMSD: 0.240
# Mean RMSD: 0.240
data_MOF--net-uog--node1-NAWXER_clean_sbu_0--edge1-MIFKUJ_clean_linker_0
_symmetry_space_group_name_H-M    P1
_symmetry_Int_Tables_number       1
_symmetry_cell_setting            triclinic
loop_
_symmetry_equiv_pos_as_xyz
'x, y, z'
_cell_length_a     37.961602
_cell_length_b     37.983589
_cell_length_c     56.551424
_cell_angle_alpha  90.015448
_cell_angle_beta   90.167809
_cell_angle_gamma 120.02838
loop_
_atom_site_label
_atom_site_type_symbol
_atom_site_fract_x
_atom_site_fract_y
_atom_site_fract_z
_atom_type_partial_charge
C0 C 0.54493 0.33791 0.16629 0.0
C1 C 0.54619 0.21114 0.17393 0.0
O2 O 0.51546 0.30165 0.16708 0.0
Zn3 Zn 0.54682 0.27511 0.16989 0.0
O4 O 0.58155 0.34445 0.16723 0.0
Zn5 Zn 0.61011 0.3073 0.17036 0.0
O6 O 0.64163 0.31888 0.14225 0.0
O7 O 0.57554 0.28481 0.13542 0.0
O8 O 0.58257 0.24169 0.17334 0.0
O9 O 0.51626 0.21715 0.17253 0.0
O10 O 0.5744 0.29382 0.20475 0.0
O11 O 0.6407 0.32711 0.19893 0.0
C12 C 0.61226 0.30195 0.12773 0.0
C13 C 0.61081 0.31377 0.213 0.0
C14 C 0.30389 0.60828 0.55016 0.0
C15 C 0.31817 0.60758 0.46493 0.0
O16 O 0.32138 0.63775 0.53586 0.0
Zn17 Zn 0.31051 0.60649 0.50753 0.0
O18 O 0.28692 0.57169 0.5422 0.0
Zn19 Zn 0.27862 0.54329 0.50767 0.0
O20 O 0.30548 0.51227 0.51078 0.0
O21 O 0.34786 0.57838 0.51139 0.0
O22 O 0.29787 0.5711 0.47292 0.0
O23 O 0.33128 0.63731 0.4792 0.0
O24 O 0.24474 0.57841 0.50358 0.0
O25 O 0.22085 0.51225 0.50477 0.0
C26 C 0.34159 0.54189 0.51224 0.0
C27 C 0.21444 0.54186 0.503 0.0
C28 C 0.70011 0.30466 0.88024 0.0
C29 C 0.71166 0.3175 0.79499 0.0
O30 O 0.68691 0.32112 0.86596 0.0
Zn31 Zn 0.70673 0.31016 0.83762 0.0
O32 O 0.72017 0.28821 0.87226 0.0
Zn33 Zn 0.7387 0.27911 0.83739 0.0
O34 O 0.79648 0.3059 0.83994 0.0
O35 O 0.77273 0.34828 0.84052 0.0
O36 O 0.7293 0.29841 0.80277 0.0
O37 O 0.69437 0.32942 0.80948 0.0
O38 O 0.66937 0.24449 0.83452 0.0
O39 O 0.71212 0.22123 0.83461 0.0
C40 C 0.80302 0.34202 0.84111 0.0
C41 C 0.67586 0.21442 0.83367 0.0
C42 C 0.40038 0.6951 0.21705 0.0
C43 C 0.40099 0.70986 0.13179 0.0
O44 O 0.37087 0.68263 0.20263 0.0
Zn45 Zn 0.40213 0.70336 0.17443 0.0
O46 O 0.43701 0.71517 0.20926 0.0
Zn47 Zn 0.46534 0.73475 0.17472 0.0
O48 O 0.49656 0.79253 0.1776 0.0
O49 O 0.43046 0.76911 0.1781 0.0
O50 O 0.43747 0.72631 0.13994 0.0
O51 O 0.37124 0.69292 0.14594 0.0
O52 O 0.43007 0.66565 0.1708 0.0
O53 O 0.49626 0.70781 0.17191 0.0
C54 C 0.46709 0.79924 0.17886 0.0
C55 C 0.46656 0.67178 0.17025 0.0
C56 C 0.67559 0.46412 0.50725 0.0
C57 C 0.80187 0.46245 0.49866 0.0
O58 O 0.71177 0.49347 0.50548 0.0
Zn59 Zn 0.73807 0.46188 0.50281 0.0
O60 O 0.66896 0.42749 0.50688 0.0
Zn61 Zn 0.70575 0.39867 0.50378 0.0
O62 O 0.69481 0.36893 0.53259 0.0
O63 O 0.73036 0.43532 0.53784 0.0
O64 O 0.77149 0.42607 0.50019 0.0
O65 O 0.79567 0.4923 0.49923 0.0
O66 O 0.71755 0.43225 0.46864 0.0
O67 O 0.68427 0.36638 0.47587 0.0
C68 C 0.71296 0.39916 0.54641 0.0
C69 C 0.69699 0.3954 0.4612 0.0
C70 C 0.34299 0.80168 0.83575 0.0
C71 C 0.21649 0.67381 0.84406 0.0
O72 O 0.30672 0.79475 0.8369 0.0
Zn73 Zn 0.28039 0.73688 0.84008 0.0
O74 O 0.34968 0.77175 0.83678 0.0
Zn75 Zn 0.31291 0.7063 0.84047 0.0
O76 O 0.32476 0.68647 0.81239 0.0
O77 O 0.28894 0.71656 0.80561 0.0
O78 O 0.24697 0.66784 0.84357 0.0
O79 O 0.22271 0.70981 0.84271 0.0
O80 O 0.29943 0.72853 0.875 0.0
O81 O 0.33375 0.69663 0.86896 0.0
C82 C 0.30667 0.69756 0.7979 0.0
C83 C 0.32013 0.71283 0.88311 0.0
H84 H 0.4745 0.14171 0.18322 0.0
H85 H 0.46236 0.07229 0.1858 0.0
H86 H 0.58916 0.11589 0.17165 0.0
H87 H 0.60168 0.18562 0.16911 0.0
H88 H 0.5375 0.04883 0.14448 0.0
H89 H 0.55601 0.08815 0.22578 0.0
H90 H 0.54443 0.11579 0.26251 0.0
H91 H 0.41915 0.02104 0.26253 0.0
H92 H 0.42984 0.99315 0.22557 0.0
H93 H 0.54016 0.86926 0.17439 0.0
H94 H 0.55335 0.9391 0.17488 0.0
H95 H 0.42599 0.89549 0.187 0.0
H96 H 0.41235 0.8252 0.18646 0.0
H97 H 0.4783 0.96265 0.2156 0.0
H98 H 0.46094 0.92364 0.13379 0.0
H99 H 0.47402 0.89648 0.09735 0.0
H100 H 0.59901 0.99177 0.09856 0.0
H101 H 0.58691 0.01908 0.13531 0.0
C102 C 0.49987 0.13661 0.18072 0.0
C103 C 0.53908 0.16921 0.17598 0.0
C104 C 0.49289 0.09692 0.1823 0.0
C105 C 0.52491 0.089 0.17907 0.0
C106 C 0.56406 0.1214 0.17423 0.0
C107 C 0.57117 0.16121 0.17287 0.0
C108 C 0.51722 0.04672 0.18024 0.0
C109 C 0.52512 0.03017 0.16015 0.0
C110 C 0.50022 0.02217 0.20052 0.0
C111 C 0.49363 0.03881 0.22276 0.0
C112 C 0.52589 0.07341 0.23349 0.0
C113 C 0.51951 0.08909 0.25438 0.0
C114 C 0.48105 0.07025 0.26481 0.0
C115 C 0.44891 0.03563 0.25441 0.0
C116 C 0.45513 0.01986 0.2335 0.0
C117 C 0.5149 0.87441 0.17729 0.0
C118 C 0.47513 0.8416 0.18029 0.0
C119 C 0.52252 0.91439 0.17749 0.0
C120 C 0.4906 0.92242 0.18077 0.0
C121 C 0.45103 0.88988 0.18441 0.0
C122 C 0.44329 0.84977 0.18402 0.0
C123 C 0.49859 0.96481 0.17984 0.0
C124 C 0.4907 0.98136 0.19996 0.0
C125 C 0.51578 0.98945 0.15961 0.0
C126 C 0.52311 0.97315 0.13747 0.0
C127 C 0.49132 0.93859 0.12643 0.0
C128 C 0.49853 0.92321 0.10569 0.0
C129 C 0.53732 0.94234 0.09567 0.0
C130 C 0.56898 0.97695 0.10636 0.0
C131 C 0.56197 0.9924 0.12715 0.0
H132 H 0.54282 0.93039 0.0796 0.0
H133 H 0.47617 0.08241 0.28099 0.0
H134 H 0.42233 0.59774 0.5185 0.0
H135 H 0.47941 0.58506 0.51998 0.0
H136 H 0.39637 0.45647 0.51131 0.0
H137 H 0.33911 0.46876 0.51034 0.0
H138 H 0.45329 0.46933 0.54338 0.0
H139 H 0.45156 0.51659 0.46457 0.0
H140 H 0.45176 0.56422 0.43486 0.0
H141 H 0.56722 0.65824 0.46097 0.0
H142 H 0.56744 0.61131 0.49105 0.0
H143 H 0.59395 0.40901 0.50612 0.0
H144 H 0.53775 0.42285 0.50884 0.0
H145 H 0.62354 0.55102 0.5165 0.0
H146 H 0.67986 0.53756 0.51324 0.0
H147 H 0.56599 0.53946 0.48599 0.0
H148 H 0.56892 0.49118 0.564 0.0
H149 H 0.56898 0.44297 0.5932 0.0
H150 H 0.45159 0.35056 0.5685 0.0
H151 H 0.45109 0.39803 0.53891 0.0
C152 C 0.41618 0.56674 0.51702 0.0
C153 C 0.37616 0.5343 0.51415 0.0
C154 C 0.44887 0.55955 0.51779 0.0
C155 C 0.44223 0.51985 0.51541 0.0
C156 C 0.40224 0.48734 0.51316 0.0
C157 C 0.36953 0.49447 0.51253 0.0
C158 C 0.47695 0.5122 0.51467 0.0
C159 C 0.47774 0.48435 0.53068 0.0
C160 C 0.50927 0.53239 0.4984 0.0
C161 C 0.50932 0.56055 0.48021 0.0
C162 C 0.47685 0.54751 0.46408 0.0
C163 C 0.47691 0.57436 0.44716 0.0
C164 C 0.50943 0.61426 0.44607 0.0
C165 C 0.54203 0.62735 0.46185 0.0
C166 C 0.54209 0.60063 0.47883 0.0
C167 C 0.60086 0.44013 0.50848 0.0
C168 C 0.6414 0.47217 0.50949 0.0
C169 C 0.56869 0.44799 0.51013 0.0
C170 C 0.57641 0.48795 0.51317 0.0
C171 C 0.61684 0.51996 0.51418 0.0
C172 C 0.64901 0.51217 0.51236 0.0
C173 C 0.5424 0.49659 0.51471 0.0
C174 C 0.54169 0.52458 0.49879 0.0
C175 C 0.51018 0.4765 0.53106 0.0
C176 C 0.51013 0.44808 0.54909 0.0
C177 C 0.54322 0.4605 0.5647 0.0
C178 C 0.54333 0.43332 0.58133 0.0
C179 C 0.51036 0.3937 0.58267 0.0
C180 C 0.47713 0.38124 0.56743 0.0
C181 C 0.4769 0.40829 0.55074 0.0
H182 H 0.51053 0.37269 0.59553 0.0
H183 H 0.50941 0.63501 0.43296 0.0
H184 H 0.87287 0.33824 0.84409 0.0
H185 H 0.94277 0.3946 0.8457 0.0
H186 H 0.89952 0.48012 0.84331 0.0
H187 H 0.82919 0.42371 0.84143 0.0
H188 H 0.96246 0.50098 0.81308 0.0
H189 H 0.93427 0.46256 0.89466 0.0
H190 H 0.91179 0.41528 0.92844 0.0
H191 H 1.00564 0.38669 0.9139 0.0
H192 H 0.02834 0.4334 0.87981 0.0
H193 H 0.14618 0.67689 0.84475 0.0
H194 H 0.07646 0.62012 0.84519 0.0
H195 H 0.12085 0.53549 0.8466 0.0
H196 H 0.19107 0.59234 0.84636 0.0
H197 H 0.0576 0.51387 0.87732 0.0
H198 H 0.0867 0.55308 0.79622 0.0
H199 H 0.10978 0.60081 0.76268 0.0
H200 H 0.01407 0.62724 0.77582 0.0
H201 H 0.99103 0.58048 0.80987 0.0
C202 C 0.8781 0.36901 0.84399 0.0
C203 C 0.84536 0.37645 0.8427 0.0
C204 C 0.91815 0.40121 0.845 0.0
C205 C 0.92637 0.44157 0.84488 0.0
C206 C 0.89383 0.44918 0.84348 0.0
C207 C 0.85367 0.41692 0.84249 0.0
C208 C 0.96901 0.47574 0.84577 0.0
C209 C 0.9831 0.50418 0.82731 0.0
C210 C 0.99624 0.47918 0.864 0.0
C211 C 0.98275 0.45119 0.88455 0.0
C212 C 0.94991 0.44595 0.89855 0.0
C213 C 0.93717 0.4193 0.91777 0.0
C214 C 0.95721 0.39792 0.92328 0.0
C215 C 0.99011 0.40323 0.9096 0.0
C216 C 1.00296 0.42982 0.89034 0.0
C217 C 0.14125 0.64625 0.84524 0.0
C218 C 0.17427 0.63917 0.84539 0.0
C219 C 0.10131 0.61381 0.84542 0.0
C220 C 0.09346 0.57358 0.84561 0.0
C221 C 0.12627 0.56633 0.84638 0.0
C222 C 0.16635 0.59884 0.84619 0.0
C223 C 0.05095 0.53922 0.8447 0.0
C224 C 0.03693 0.51071 0.86311 0.0
C225 C 0.0238 0.53565 0.8264 0.0
C226 C 0.03738 0.56354 0.80577 0.0
C227 C 0.07077 0.56932 0.7921 0.0
C228 C 0.08382 0.59616 0.77296 0.0
C229 C 0.0634 0.61702 0.76711 0.0
C230 C 0.02988 0.61108 0.78038 0.0
C231 C 0.01683 0.58443 0.79962 0.0
H232 H 0.07353 0.63775 0.75227 0.0
H233 H 0.9473 0.3773 0.93817 0.0
H234 H 0.14393 0.46963 0.50859 0.0
H235 H 0.07436 0.45677 0.50606 0.0
H236 H 0.11942 0.58309 0.48951 0.0
H237 H 0.18941 0.59648 0.49271 0.0
H238 H 0.06096 0.55804 0.52104 0.0
H239 H 0.07614 0.50639 0.44664 0.0
H240 H 0.09285 0.46506 0.42034 0.0
H241 H 1.00069 0.35594 0.45338 0.0
H242 H 0.98378 0.39666 0.4801 0.0
H243 H 0.8706 0.53381 0.48801 0.0
H244 H 0.94045 0.54716 0.48674 0.0
H245 H 0.89876 0.42195 0.50454 0.0
H246 H 0.82844 0.40805 0.50522 0.0
H247 H 0.95582 0.44739 0.47138 0.0
H248 H 0.94208 0.49908 0.54642 0.0
H249 H 0.92544 0.54031 0.57287 0.0
H250 H 0.01517 0.64936 0.5386 0.0
H251 H 0.03198 0.60873 0.51173 0.0
C252 C 0.13911 0.49469 0.50429 0.0
C253 C 0.17225 0.53408 0.50078 0.0
C254 C 0.09924 0.48722 0.50273 0.0
C255 C 0.09156 0.5188 0.49721 0.0
C256 C 0.12459 0.55821 0.49372 0.0
C257 C 0.16457 0.56581 0.49552 0.0
C258 C 0.04909 0.51087 0.49578 0.0
C259 C 0.03815 0.53428 0.50987 0.0
C260 C 0.01901 0.47918 0.48168 0.0
C261 C 0.02892 0.45461 0.4655 0.0
C262 C 0.05961 0.4736 0.4484 0.0
C263 C 0.06909 0.45027 0.4334 0.0
C264 C 0.0479 0.40791 0.43522 0.0
C265 C 0.0171 0.38876 0.452 0.0
C266 C 1.00752 0.41194 0.46706 0.0
C267 C 0.87621 0.50903 0.49159 0.0
C268 C 0.84396 0.46991 0.49689 0.0
C269 C 0.91623 0.51677 0.49095 0.0
C270 C 0.92497 0.48576 0.49599 0.0
C271 C 0.89275 0.4464 0.50068 0.0
C272 C 0.85259 0.43851 0.5011 0.0
C273 C 0.96775 0.49453 0.49665 0.0
C274 C 0.97871 0.47125 0.48245 0.0
C275 C 0.99788 0.52634 0.51066 0.0
C276 C 0.98802 0.55083 0.52693 0.0
C277 C 0.95808 0.53183 0.54443 0.0
C278 C 0.94864 0.5551 0.55951 0.0
C279 C 0.96917 0.59742 0.55738 0.0
C280 C 0.99926 0.61657 0.54021 0.0
C281 C 0.00878 0.59345 0.52506 0.0
H282 H 0.96181 0.61537 0.56907 0.0
H283 H 0.0553 0.3899 0.4236 0.0
H284 H 0.42442 0.82759 0.83318 0.0
H285 H 0.48084 0.89766 0.83136 0.0
H286 H 0.39575 0.94155 0.83246 0.0
H287 H 0.33914 0.87163 0.83393 0.0
H288 H 0.45499 0.98264 0.80072 0.0
H289 H 0.44734 0.94369 0.88213 0.0
H290 H 0.44526 0.90046 0.91524 0.0
H291 H 0.56317 0.92032 0.89601 0.0
H292 H 0.56569 0.96322 0.86255 0.0
H293 H 0.59424 0.18838 0.83252 0.0
H294 H 0.53778 0.11819 0.83142 0.0
H295 H 0.6231 0.07459 0.8303 0.0
H296 H 0.67964 0.1445 0.8317 0.0
H297 H 0.56376 0.0333 0.86173 0.0
H298 H 0.57159 0.07323 0.78048 0.0
H299 H 0.57335 0.11661 0.74755 0.0
H300 H 0.45491 0.09533 0.76674 0.0
H301 H 0.45268 0.05225 0.80001 0.0
C302 C 0.41767 0.85212 0.83295 0.0
C303 C 0.37725 0.84399 0.83383 0.0
C304 C 0.44998 0.89218 0.83199 0.0
C305 C 0.44252 0.92486 0.83208 0.0
C306 C 0.4022 0.9168 0.83242 0.0
C307 C 0.36989 0.87679 0.83333 0.0
C308 C 0.47674 0.96749 0.83215 0.0
C309 C 0.47853 0.99387 0.81422 0.0
C310 C 0.50785 0.98192 0.84951 0.0
C311 C 0.50652 0.95633 0.8697 0.0
C312 C 0.47269 0.93858 0.88485 0.0
C313 C 0.47145 0.91418 0.9037 0.0
C314 C 0.50402 0.90756 0.90769 0.0
C315 C 0.53794 0.92542 0.89287 0.0
C316 C 0.5393 0.94981 0.87398 0.0
C317 C 0.60101 0.16387 0.83193 0.0
C318 C 0.64148 0.17208 0.83217 0.0
C319 C 0.56869 0.12376 0.83122 0.0
C320 C 0.57623 0.09114 0.83058 0.0
C321 C 0.61658 0.09928 0.83079 0.0
C322 C 0.64887 0.13931 0.83152 0.0
C323 C 0.54212 0.04846 0.83025 0.0
C324 C 0.5403 0.02207 0.84819 0.0
C325 C 0.51096 0.03408 0.81293 0.0
C326 C 0.51215 0.05984 0.79288 0.0
C327 C 0.54606 0.07806 0.77779 0.0
C328 C 0.54711 0.10255 0.75905 0.0
C329 C 0.51431 0.10881 0.75509 0.0
C330 C 0.48032 0.0905 0.76984 0.0
C331 C 0.47913 0.06601 0.78864 0.0
H332 H 0.51518 0.12777 0.74057 0.0
H333 H 0.503 0.88865 0.92229 0.0
H334 H 0.4105 0.59089 0.16478 0.0
H335 H 0.42339 0.53399 0.16253 0.0
H336 H 0.55234 0.61738 0.16932 0.0
H337 H 0.53983 0.67441 0.17113 0.0
H338 H 0.53811 0.56166 0.13643 0.0
H339 H 0.49532 0.56078 0.21637 0.0
H340 H 0.44959 0.55959 0.24761 0.0
H341 H 0.35428 0.44444 0.22209 0.0
H342 H 0.39928 0.44522 0.19044 0.0
H343 H 0.60029 0.4195 0.1681 0.0
H344 H 0.58647 0.47583 0.16735 0.0
H345 H 0.45796 0.39061 0.16049 0.0
H346 H 0.47141 0.33414 0.16167 0.0
H347 H 0.47123 0.44679 0.1928 0.0
H348 H 0.51537 0.44744 0.11315 0.0
H349 H 0.56191 0.44914 0.08226 0.0
H350 H 0.65568 0.56517 0.10775 0.0
H351 H 0.60985 0.56391 0.13901 0.0
C352 C 0.44162 0.59714 0.16573 0.0
C353 C 0.47411 0.63721 0.16824 0.0
C354 C 0.44893 0.56456 0.16453 0.0
C355 C 0.48882 0.57136 0.16606 0.0
C356 C 0.52132 0.61138 0.16812 0.0
C357 C 0.51407 0.64395 0.16922 0.0
C358 C 0.49678 0.53683 0.16577 0.0
C359 C 0.52383 0.53676 0.14892 0.0
C360 C 0.47757 0.50394 0.18178 0.0
C361 C 0.45054 0.50326 0.20089 0.0
C362 C 0.46451 0.53534 0.21731 0.0
C363 C 0.43874 0.53473 0.23511 0.0
C364 C 0.39902 0.50202 0.23681 0.0
C365 C 0.38503 0.46979 0.22073 0.0
C366 C 0.41066 0.47029 0.20287 0.0
C367 C 0.5691 0.41273 0.1663 0.0
C368 C 0.53697 0.37229 0.16491 0.0
C369 C 0.56125 0.445 0.16579 0.0
C370 C 0.52119 0.43749 0.16362 0.0
C371 C 0.4891 0.39715 0.16217 0.0
C372 C 0.49689 0.36489 0.16278 0.0
C373 C 0.51254 0.47157 0.16343 0.0
C374 C 0.48539 0.4716 0.18023 0.0
C375 C 0.53177 0.50447 0.14743 0.0
C376 C 0.55929 0.5054 0.12855 0.0
C377 C 0.54601 0.47318 0.11227 0.0
C378 C 0.57225 0.47409 0.09468 0.0
C379 C 0.61176 0.50719 0.09308 0.0
C380 C 0.62508 0.53952 0.10903 0.0
C381 C 0.59897 0.53875 0.12667 0.0
H382 H 0.63203 0.50783 0.07945 0.0
H383 H 0.37912 0.50162 0.2506 0.0
H384 H 0.63942 0.31208 0.90071 0.0
H385 H 0.62439 0.31048 0.94269 0.0
H386 H 0.72691 0.2952 0.95963 0.0
H387 H 0.74084 0.29475 0.91737 0.0
H388 H 0.66802 0.24905 0.98689 0.0
H389 H 0.72826 0.38907 0.96619 0.0
H390 H 0.73818 0.44868 0.9434 0.0
H391 H 0.61753 0.42225 0.96132 0.0
H392 H 0.60668 0.36214 0.98397 0.0
H393 H 0.68233 0.31363 0.10743 0.0
H394 H 0.69624 0.31251 0.06531 0.0
H395 H 0.57557 0.28892 0.04822 0.0
H396 H 0.561 0.28915 0.09047 0.0
H397 H 0.64439 0.35529 0.02186 0.0
H398 H 0.58741 0.214 0.04354 0.0
H399 H 0.58293 0.15798 0.0678 0.0
H400 H 0.70573 0.19247 0.04947 0.0
H401 H 0.71115 0.24912 0.02539 0.0
C402 C 0.65884 0.30846 0.91338 0.0
C403 C 0.69151 0.30385 0.90577 0.0
C404 C 0.65034 0.30777 0.93741 0.0
C405 C 0.67505 0.30367 0.95445 0.0
C406 C 0.70747 0.29857 0.94687 0.0
C407 C 0.71549 0.29841 0.92273 0.0
C408 C 0.66663 0.30422 0.9801 0.0
C409 C 0.66345 0.27266 0.99453 0.0
C410 C 0.66011 0.3347 0.99017 0.0
C411 C 0.66653 0.37087 0.97659 0.0
C412 C 0.70373 0.39579 0.96513 0.0
C413 C 0.70954 0.4297 0.95226 0.0
C414 C 0.67846 0.43919 0.95086 0.0
C415 C 0.64155 0.41483 0.96239 0.0
C416 C 0.63557 0.38086 0.97527 0.0
C417 C 0.65872 0.3082 0.09473 0.0
C418 C 0.62054 0.30147 0.10224 0.0
C419 C 0.6667 0.30745 0.0707 0.0
C420 C 0.63688 0.30051 0.05376 0.0
C421 C 0.59891 0.29427 0.06112 0.0
C422 C 0.59062 0.29429 0.08521 0.0
C423 C 0.64564 0.30014 0.02832 0.0
C424 C 0.64899 0.3318 0.01404 0.0
C425 C 0.65314 0.2703 0.01852 0.0
C426 C 0.64981 0.23606 0.03286 0.0
C427 C 0.61358 0.20988 0.04486 0.0
C428 C 0.61085 0.17796 0.05854 0.0
C429 C 0.64406 0.17173 0.06023 0.0
C430 C 0.68004 0.19735 0.04818 0.0
C431 C 0.68295 0.22935 0.03449 0.0
H432 H 0.64188 0.147 0.07083 0.0
H433 H 0.68302 0.46545 0.94089 0.0
H434 H 0.45154 0.73338 0.25437 0.0
H435 H 0.43763 0.71754 0.29641 0.0
H436 H 0.31797 0.61827 0.27908 0.0
H437 H 0.33104 0.6353 0.23722 0.0
H438 H 0.3109 0.65429 0.31477 0.0
H439 H 0.40135 0.60517 0.29629 0.0
H440 H 0.46349 0.60798 0.28104 0.0
H441 H 0.53599 0.70194 0.33105 0.0
H442 H 0.47432 0.70009 0.34642 0.0
H443 H 0.2779 0.55624 0.42801 0.0
H444 H 0.29194 0.57002 0.38564 0.0
H445 H 0.3924 0.68923 0.40191 0.0
H446 H 0.37812 0.67612 0.44416 0.0
H447 H 0.40844 0.64086 0.36728 0.0
H448 H 0.31349 0.68763 0.38468 0.0
H449 H 0.24896 0.67918 0.40002 0.0
H450 H 0.18187 0.58102 0.35126 0.0
H451 H 0.24605 0.58852 0.33587 0.0
C452 C 0.42229 0.70819 0.25956 0.0
C453 C 0.3924 0.68558 0.2425 0.0
C454 C 0.41443 0.69895 0.2836 0.0
C455 C 0.37695 0.66619 0.291 0.0
C456 C 0.3471 0.64369 0.27391 0.0
C457 C 0.35464 0.65342 0.24995 0.0
C458 C 0.36843 0.65577 0.31652 0.0
C459 C 0.33207 0.65079 0.32609 0.0
C460 C 0.39609 0.65157 0.33154 0.0
C461 C 0.43325 0.65277 0.32235 0.0
C462 C 0.43057 0.62665 0.30392 0.0
C463 C 0.4657 0.62803 0.29527 0.0
C464 C 0.50366 0.65519 0.30502 0.0
C465 C 0.50656 0.68096 0.32349 0.0
C466 C 0.47153 0.67974 0.33219 0.0
C467 C 0.30301 0.58534 0.42254 0.0
C468 C 0.3268 0.61517 0.43938 0.0
C469 C 0.31094 0.59316 0.39838 0.0
C470 C 0.34316 0.63065 0.39074 0.0
C471 C 0.36744 0.66012 0.40751 0.0
C472 C 0.35909 0.65263 0.4316 0.0
C473 C 0.35121 0.63954 0.36521 0.0
C474 C 0.38741 0.64423 0.35576 0.0
C475 C 0.32309 0.64265 0.3502 0.0
C476 C 0.28454 0.63834 0.35932 0.0
C477 C 0.28497 0.664 0.37738 0.0
C478 C 0.24846 0.65944 0.38605 0.0
C479 C 0.21133 0.6295 0.37667 0.0
C480 C 0.21065 0.60415 0.35854 0.0
C481 C 0.24708 0.60857 0.34983 0.0
H482 H 0.1831 0.626 0.3834 0.0
H483 H 0.53082 0.6562 0.29829 0.0
H484 H 0.7469 0.29813 0.75876 0.0
H485 H 0.74777 0.31403 0.71673 0.0
H486 H 0.6783 0.37305 0.73155 0.0
H487 H 0.67678 0.35684 0.77339 0.0
H488 H 0.64925 0.3269 0.69343 0.0
H489 H 0.78002 0.42856 0.72152 0.0
H490 H 0.84644 0.45491 0.7414 0.0
H491 H 0.88017 0.39187 0.69145 0.0
H492 H 0.81367 0.36465 0.67146 0.0
H493 H 0.75214 0.45636 0.58106 0.0
H494 H 0.75253 0.44482 0.62366 0.0
H495 H 0.67674 0.31568 0.61249 0.0
H496 H 0.67591 0.32684 0.57006 0.0
H497 H 0.77903 0.40199 0.64935 0.0
H498 H 0.60964 0.27603 0.6579 0.0
H499 H 0.54365 0.25607 0.63889 0.0
H500 H 0.58796 0.37955 0.61729 0.0
H501 H 0.65398 0.40035 0.63646 0.0
C502 C 0.73174 0.31441 0.75306 0.0
C503 C 0.71186 0.32629 0.76946 0.0
C504 C 0.73241 0.32363 0.72905 0.0
C505 C 0.71343 0.34508 0.72103 0.0
C506 C 0.69314 0.35647 0.73733 0.0
C507 C 0.69241 0.34726 0.76127 0.0
C508 C 0.71457 0.35569 0.69567 0.0
C509 C 0.67763 0.34325 0.6838 0.0
C510 C 0.75163 0.37784 0.68322 0.0
C511 C 0.7917 0.39425 0.69514 0.0
C512 C 0.80147 0.42005 0.71489 0.0
C513 C 0.83915 0.43519 0.72615 0.0
C514 C 0.86746 0.42498 0.71773 0.0
C515 C 0.85818 0.3997 0.69798 0.0
C516 C 0.82051 0.38443 0.68666 0.0
C517 C 0.73554 0.42551 0.58768 0.0
C518 C 0.71383 0.39255 0.57216 0.0
C519 C 0.73593 0.41897 0.612 0.0
C520 C 0.71437 0.37944 0.62124 0.0
C521 C 0.69315 0.34648 0.60577 0.0
C522 C 0.69281 0.35295 0.58149 0.0
C523 C 0.71371 0.37246 0.64707 0.0
C524 C 0.75069 0.38557 0.65901 0.0
C525 C 0.67673 0.35176 0.65974 0.0
C526 C 0.6369 0.33964 0.64843 0.0
C527 C 0.60524 0.29894 0.64918 0.0
C528 C 0.56784 0.28748 0.63836 0.0
C529 C 0.56167 0.3165 0.62682 0.0
C530 C 0.59284 0.35707 0.62615 0.0
C531 C 0.63027 0.3687 0.63697 0.0
H532 H 0.53271 0.30756 0.61844 0.0
H533 H 0.89663 0.43674 0.72647 0.0
H534 H 0.38599 0.71522 0.90378 0.0
H535 H 0.40074 0.71687 0.9459 0.0
H536 H 0.28771 0.71276 0.96232 0.0
H537 H 0.27419 0.71373 0.91999 0.0
H538 H 0.34067 0.76103 0.99131 0.0
H539 H 0.30312 0.62643 0.96627 0.0
H540 H 0.30543 0.57384 0.94183 0.0
H541 H 0.42988 0.61911 0.9622 0.0
H542 H 0.42847 0.67231 0.98653 0.0
H543 H 0.32969 0.69263 0.11017 0.0
H544 H 0.31723 0.69505 0.06792 0.0
H545 H 0.4423 0.73174 0.0531 0.0
H546 H 0.45525 0.72983 0.09545 0.0
H547 H 0.38337 0.66689 0.024 0.0
H548 H 0.41668 0.80101 0.05062 0.0
H549 H 0.40913 0.84937 0.07622 0.0
H550 H 0.28475 0.79837 0.05403 0.0
H551 H 0.29136 0.74927 0.02854 0.0
C552 C 0.3643 0.71468 0.91639 0.0
C553 C 0.32878 0.71402 0.90866 0.0
C554 C 0.37261 0.71534 0.9405 0.0
C555 C 0.34486 0.71383 0.95743 0.0
C556 C 0.30957 0.71376 0.94968 0.0
C557 C 0.30178 0.71422 0.9255 0.0
C558 C 0.35283 0.71264 0.98316 0.0
C559 C 0.34942 0.73998 0.99843 0.0
C560 C 0.36488 0.68565 0.99259 0.0
C561 C 0.36578 0.65358 0.97805 0.0
C562 C 0.33105 0.62533 0.96541 0.0
C563 C 0.3322 0.59539 0.9516 0.0
C564 C 0.36781 0.5932 0.95042 0.0
C565 C 0.40233 0.62087 0.96311 0.0
C566 C 0.40136 0.6509 0.97693 0.0
C567 C 0.35459 0.70122 0.09795 0.0
C568 C 0.3935 0.71107 0.10617 0.0
C569 C 0.34742 0.70272 0.07383 0.0
C570 C 0.37891 0.71381 0.05745 0.0
C571 C 0.41765 0.72319 0.06551 0.0
C572 C 0.425 0.72218 0.08969 0.0
C573 C 0.37116 0.71514 0.03187 0.0
C574 C 0.37459 0.68782 0.01672 0.0
C575 C 0.35829 0.74148 0.02265 0.0
C576 C 0.35442 0.77122 0.03784 0.0
C577 C 0.38762 0.79989 0.05134 0.0
C578 C 0.38354 0.82747 0.06581 0.0
C579 C 0.34647 0.82688 0.0668 0.0
C580 C 0.31344 0.79877 0.05327 0.0
C581 C 0.31735 0.77108 0.03879 0.0
H582 H 0.34338 0.84827 0.07802 0.0
H583 H 0.36864 0.57001 0.9397 0.0
H584 H 0.73806 0.44369 0.42367 0.0
H585 H 0.72204 0.42887 0.38167 0.0
H586 H 0.61704 0.31354 0.39952 0.0
H587 H 0.63432 0.32733 0.44142 0.0
H588 H 0.64995 0.30181 0.36408 0.0
H589 H 0.61152 0.4008 0.38118 0.0
H590 H 0.61945 0.46541 0.39607 0.0
H591 H 0.71613 0.53189 0.34667 0.0
H592 H 0.70915 0.46768 0.33169 0.0
H593 H 0.55753 0.27513 0.24922 0.0
H594 H 0.57045 0.28829 0.29174 0.0
H595 H 0.6929 0.38374 0.27714 0.0
H596 H 0.68055 0.37047 0.23473 0.0
H597 H 0.64759 0.40412 0.31058 0.0
H598 H 0.68272 0.29957 0.29467 0.0
H599 H 0.66761 0.23255 0.27947 0.0
H600 H 0.56676 0.17358 0.32719 0.0
H601 H 0.58097 0.24034 0.34246 0.0
C602 C 0.71158 0.41519 0.41859 0.0
C603 C 0.68738 0.38672 0.43579 0.0
C604 C 0.70225 0.40682 0.39458 0.0
C605 C 0.66779 0.37039 0.38734 0.0
C606 C 0.64376 0.34185 0.40458 0.0
C607 C 0.65362 0.3498 0.42854 0.0
C608 C 0.65704 0.36177 0.36183 0.0
C609 C 0.64888 0.32407 0.35254 0.0
C610 C 0.6558 0.39073 0.34655 0.0
C611 C 0.66006 0.42943 0.35547 0.0
C612 C 0.63467 0.42922 0.3736 0.0
C613 C 0.63896 0.46576 0.38204 0.0
C614 C 0.66834 0.50274 0.37236 0.0
C615 C 0.69342 0.50323 0.35417 0.0
C616 C 0.68929 0.46676 0.34569 0.0
C617 C 0.58718 0.29894 0.25508 0.0
C618 C 0.61807 0.32168 0.23865 0.0
C619 C 0.5945 0.30635 0.27933 0.0
C620 C 0.63264 0.33691 0.28748 0.0
C621 C 0.66328 0.36005 0.27113 0.0
C622 C 0.6562 0.35228 0.24695 0.0
C623 C 0.64093 0.34459 0.3131 0.0
C624 C 0.64856 0.38203 0.32231 0.0
C625 C 0.64069 0.31508 0.32839 0.0
C626 C 0.63267 0.27495 0.31954 0.0
C627 C 0.65716 0.27233 0.30181 0.0
C628 C 0.64879 0.23439 0.2932 0.0
C629 C 0.61617 0.19883 0.30231 0.0
C630 C 0.59198 0.20115 0.32013 0.0
C631 C 0.60021 0.23902 0.32879 0.0
H632 H 0.60968 0.16949 0.29559 0.0
H633 H 0.67161 0.531 0.37892 0.0
H634 H 0.26601 0.71123 0.76211 0.0
H635 H 0.26417 0.69435 0.72014 0.0
H636 H 0.34282 0.64517 0.7342 0.0
H637 H 0.34512 0.66216 0.77598 0.0
H638 H 0.36732 0.69221 0.69586 0.0
H639 H 0.24225 0.58262 0.72531 0.0
H640 H 0.1758 0.55042 0.74541 0.0
H641 H 0.13158 0.60439 0.69542 0.0
H642 H 0.198 0.63741 0.67519 0.0
H643 H 0.26936 0.55269 0.58594 0.0
H644 H 0.26888 0.56644 0.62821 0.0
H645 H 0.33494 0.69537 0.61441 0.0
H646 H 0.33606 0.682 0.5723 0.0
H647 H 0.23775 0.60513 0.6531 0.0
H648 H 0.40095 0.74351 0.65952 0.0
H649 H 0.46754 0.76979 0.64005 0.0
H650 H 0.43611 0.6484 0.62012 0.0
H651 H 0.36961 0.62136 0.63973 0.0
C652 C 0.28296 0.69688 0.75625 0.0
C653 C 0.30569 0.68802 0.77241 0.0
C654 C 0.28172 0.68708 0.73229 0.0
C655 C 0.30311 0.66821 0.72408 0.0
C656 C 0.3261 0.65973 0.74014 0.0
C657 C 0.32728 0.66939 0.76405 0.0
C658 C 0.30202 0.6576 0.69872 0.0
C659 C 0.33897 0.67326 0.68651 0.0
C660 C 0.26508 0.63227 0.68662 0.0
C661 C 0.22523 0.61279 0.69887 0.0
C662 C 0.21849 0.58794 0.71873 0.0
C663 C 0.1808 0.56948 0.73012 0.0
C664 C 0.14951 0.57539 0.72171 0.0
C665 C 0.15586 0.59985 0.70192 0.0
C666 C 0.19351 0.61843 0.69047 0.0
C667 C 0.28382 0.58397 0.5919 0.0
C668 C 0.30298 0.61624 0.57574 0.0
C669 C 0.28336 0.59176 0.61605 0.0
C670 C 0.3022 0.63192 0.62449 0.0
C671 C 0.32073 0.66415 0.60835 0.0
C672 C 0.32125 0.65641 0.58425 0.0
C673 C 0.30302 0.64024 0.6502 0.0
C674 C 0.26606 0.62421 0.66245 0.0
C675 C 0.34 0.6646 0.66249 0.0
C676 C 0.38014 0.68049 0.65089 0.0
C677 C 0.40833 0.72242 0.65106 0.0
C678 C 0.44604 0.73745 0.63999 0.0
C679 C 0.456 0.71079 0.62879 0.0
C680 C 0.42831 0.66903 0.62872 0.0
C681 C 0.39058 0.65384 0.63978 0.0
H682 H 0.48519 0.72249 0.62021 0.0
H683 H 0.12028 0.56086 0.73046 0.0
loop_
_geom_bond_atom_site_label_1
_geom_bond_atom_site_label_2
_geom_bond_distance
_geom_bond_site_symmetry_2
_ccdc_geom_bond_type
C0 O2 1.247 . S
C0 O4 1.258 . S
C1 O8 1.247 . S
C1 O9 1.258 . S
O2 C0 1.247 . S
O2 Zn3 2.028 . S
Zn3 O2 2.028 . S
Zn3 O7 2.035 . S
Zn3 O9 2.035 . S
Zn3 O10 2.028 . S
O4 C0 1.258 . S
O4 Zn5 2.035 . S
Zn5 O4 2.035 . S
Zn5 O6 2.028 . S
Zn5 O8 2.028 . S
Zn5 O11 2.035 . S
O6 Zn5 2.028 . S
O6 C12 1.247 . S
O7 Zn3 2.035 . S
O7 C12 1.258 . S
O8 C1 1.247 . S
O8 Zn5 2.028 . S
O9 C1 1.258 . S
O9 Zn3 2.035 . S
O10 Zn3 2.028 . S
O10 C13 1.247 . S
O11 Zn5 2.035 . S
O11 C13 1.258 . S
C12 O6 1.247 . S
C12 O7 1.258 . S
C13 O10 1.247 . S
C13 O11 1.258 . S
C14 O16 1.247 . S
C14 O18 1.258 . S
C15 O22 1.247 . S
C15 O23 1.258 . S
O16 C14 1.247 . S
O16 Zn17 2.028 . S
Zn17 O16 2.028 . S
Zn17 O21 2.035 . S
Zn17 O23 2.035 . S
Zn17 O24 2.028 . S
O18 C14 1.258 . S
O18 Zn19 2.035 . S
Zn19 O18 2.035 . S
Zn19 O20 2.028 . S
Zn19 O22 2.028 . S
Zn19 O25 2.035 . S
O20 Zn19 2.028 . S
O20 C26 1.247 . S
O21 Zn17 2.035 . S
O21 C26 1.258 . S
O22 C15 1.247 . S
O22 Zn19 2.028 . S
O23 C15 1.258 . S
O23 Zn17 2.035 . S
O24 Zn17 2.028 . S
O24 C27 1.247 . S
O25 Zn19 2.035 . S
O25 C27 1.258 . S
C26 O20 1.247 . S
C26 O21 1.258 . S
C27 O24 1.247 . S
C27 O25 1.258 . S
C28 O30 1.247 . S
C28 O32 1.258 . S
C29 O36 1.247 . S
C29 O37 1.258 . S
O30 C28 1.247 . S
O30 Zn31 2.028 . S
Zn31 O30 2.028 . S
Zn31 O35 2.035 . S
Zn31 O37 2.035 . S
Zn31 O38 2.028 . S
O32 C28 1.258 . S
O32 Zn33 2.035 . S
Zn33 O32 2.035 . S
Zn33 O34 2.028 . S
Zn33 O36 2.028 . S
Zn33 O39 2.035 . S
O34 Zn33 2.028 . S
O34 C40 1.247 . S
O35 Zn31 2.035 . S
O35 C40 1.258 . S
O36 C29 1.247 . S
O36 Zn33 2.028 . S
O37 C29 1.258 . S
O37 Zn31 2.035 . S
O38 Zn31 2.028 . S
O38 C41 1.247 . S
O39 Zn33 2.035 . S
O39 C41 1.258 . S
C40 O34 1.247 . S
C40 O35 1.258 . S
C41 O38 1.247 . S
C41 O39 1.258 . S
C42 O44 1.247 . S
C42 O46 1.258 . S
C43 O50 1.247 . S
C43 O51 1.258 . S
O44 C42 1.247 . S
O44 Zn45 2.028 . S
Zn45 O44 2.028 . S
Zn45 O49 2.035 . S
Zn45 O51 2.035 . S
Zn45 O52 2.028 . S
O46 C42 1.258 . S
O46 Zn47 2.035 . S
Zn47 O46 2.035 . S
Zn47 O48 2.028 . S
Zn47 O50 2.028 . S
Zn47 O53 2.035 . S
O48 Zn47 2.028 . S
O48 C54 1.247 . S
O49 Zn45 2.035 . S
O49 C54 1.258 . S
O50 C43 1.247 . S
O50 Zn47 2.028 . S
O51 C43 1.258 . S
O51 Zn45 2.035 . S
O52 Zn45 2.028 . S
O52 C55 1.247 . S
O53 Zn47 2.035 . S
O53 C55 1.258 . S
C54 O48 1.247 . S
C54 O49 1.258 . S
C55 O52 1.247 . S
C55 O53 1.258 . S
C56 O58 1.247 . S
C56 O60 1.258 . S
C57 O64 1.247 . S
C57 O65 1.258 . S
O58 C56 1.247 . S
O58 Zn59 2.028 . S
Zn59 O58 2.028 . S
Zn59 O63 2.035 . S
Zn59 O65 2.035 . S
Zn59 O66 2.028 . S
O60 C56 1.258 . S
O60 Zn61 2.035 . S
Zn61 O60 2.035 . S
Zn61 O62 2.028 . S
Zn61 O64 2.028 . S
Zn61 O67 2.035 . S
O62 Zn61 2.028 . S
O62 C68 1.247 . S
O63 Zn59 2.035 . S
O63 C68 1.258 . S
O64 C57 1.247 . S
O64 Zn61 2.028 . S
O65 C57 1.258 . S
O65 Zn59 2.035 . S
O66 Zn59 2.028 . S
O66 C69 1.247 . S
O67 Zn61 2.035 . S
O67 C69 1.258 . S
C68 O62 1.247 . S
C68 O63 1.258 . S
C69 O66 1.247 . S
C69 O67 1.258 . S
C70 O72 1.247 . S
C70 O74 1.258 . S
C71 O78 1.247 . S
C71 O79 1.258 . S
O72 C70 1.247 . S
O72 Zn73 2.028 . S
Zn73 O72 2.028 . S
Zn73 O77 2.035 . S
Zn73 O79 2.035 . S
Zn73 O80 2.028 . S
O74 C70 1.258 . S
O74 Zn75 2.035 . S
Zn75 O74 2.035 . S
Zn75 O76 2.028 . S
Zn75 O78 2.028 . S
Zn75 O81 2.035 . S
O76 Zn75 2.028 . S
O76 C82 1.247 . S
O77 Zn73 2.035 . S
O77 C82 1.258 . S
O78 C71 1.247 . S
O78 Zn75 2.028 . S
O79 C71 1.258 . S
O79 Zn73 2.035 . S
O80 Zn73 2.028 . S
O80 C83 1.247 . S
O81 Zn75 2.035 . S
O81 C83 1.258 . S
C82 O76 1.247 . S
C82 O77 1.258 . S
C83 O80 1.247 . S
C83 O81 1.258 . S
H84 C102 0.951 . S
H85 C104 0.951 . S
H86 C106 0.950 . S
H87 C107 0.950 . S
H88 C109 0.950 . S
H89 C112 0.950 . S
H90 C113 0.950 . S
H91 C115 0.950 . S
H92 C116 0.950 . S
H93 C117 0.951 . S
H94 C119 0.951 . S
H95 C121 0.950 . S
H96 C122 0.950 . S
H97 C124 0.950 . S
H98 C127 0.950 . S
H99 C128 0.950 . S
H100 C130 0.950 . S
H101 C131 0.950 . S
C102 H84 0.951 . S
C102 C103 1.366 . S
C102 C104 1.388 . S
C103 C102 1.366 . S
C103 C107 1.385 . S
C104 H85 0.951 . S
C104 C102 1.388 . S
C104 C105 1.366 . S
C105 C104 1.366 . S
C105 C106 1.414 . S
C105 C108 1.499 . S
C106 H86 0.950 . S
C106 C105 1.414 . S
C106 C107 1.374 . S
C107 H87 0.950 . S
C107 C103 1.385 . S
C107 C106 1.374 . S
C108 C105 1.499 . S
C108 C109 1.373 . S
C108 C110 1.389 . S
C109 H88 0.950 . S
C109 C108 1.373 . S
C109 C125 1.377 1_545 S
C110 C108 1.389 . S
C110 C111 1.524 . S
C110 C124 1.377 1_545 S
C111 C110 1.524 . S
C111 C112 1.397 . S
C111 C116 1.363 . S
C112 H89 0.950 . S
C112 C111 1.397 . S
C112 C113 1.334 . S
C113 H90 0.950 . S
C113 C112 1.334 . S
C113 C114 1.287 . S
C114 C113 1.287 . S
C114 C115 1.524 . S
C114 H133 0.913 . S
C115 H91 0.950 . S
C115 C114 1.524 . S
C115 C116 1.415 . S
C116 H92 0.950 . S
C116 C111 1.363 . S
C116 C115 1.415 . S
C117 H93 0.951 . S
C117 C118 1.366 . S
C117 C119 1.388 . S
C118 C117 1.366 . S
C118 C122 1.385 . S
C119 H94 0.951 . S
C119 C117 1.388 . S
C119 C120 1.366 . S
C120 C119 1.366 . S
C120 C121 1.414 . S
C120 C123 1.499 . S
C121 H95 0.950 . S
C121 C120 1.414 . S
C121 C122 1.374 . S
C122 H96 0.950 . S
C122 C118 1.385 . S
C122 C121 1.374 . S
C123 C120 1.499 . S
C123 C124 1.373 . S
C123 C125 1.389 . S
C124 H97 0.950 . S
C124 C110 1.377 1_565 S
C124 C123 1.373 . S
C125 C109 1.377 1_565 S
C125 C123 1.389 . S
C125 C126 1.524 . S
C126 C125 1.524 . S
C126 C127 1.397 . S
C126 C131 1.363 . S
C127 H98 0.950 . S
C127 C126 1.397 . S
C127 C128 1.334 . S
C128 H99 0.950 . S
C128 C127 1.334 . S
C128 C129 1.287 . S
C129 C128 1.287 . S
C129 C130 1.524 . S
C129 H132 0.999 . S
C130 H100 0.950 . S
C130 C129 1.524 . S
C130 C131 1.415 . S
C131 H101 0.950 . S
C131 C126 1.363 . S
C131 C130 1.415 . S
H132 C129 0.999 . S
H133 C114 0.913 . S
H134 C152 0.951 . S
H135 C154 0.951 . S
H136 C156 0.950 . S
H137 C157 0.950 . S
H138 C159 0.950 . S
H139 C162 0.950 . S
H140 C163 0.950 . S
H141 C165 0.950 . S
H142 C166 0.950 . S
H143 C167 0.951 . S
H144 C169 0.951 . S
H145 C171 0.950 . S
H146 C172 0.950 . S
H147 C174 0.950 . S
H148 C177 0.950 . S
H149 C178 0.950 . S
H150 C180 0.950 . S
H151 C181 0.950 . S
C152 H134 0.951 . S
C152 C153 1.366 . S
C152 C154 1.388 . S
C153 C152 1.366 . S
C153 C157 1.385 . S
C154 H135 0.951 . S
C154 C152 1.388 . S
C154 C155 1.366 . S
C155 C154 1.366 . S
C155 C156 1.414 . S
C155 C158 1.499 . S
C156 H136 0.950 . S
C156 C155 1.414 . S
C156 C157 1.374 . S
C157 H137 0.950 . S
C157 C153 1.385 . S
C157 C156 1.374 . S
C158 C155 1.499 . S
C158 C159 1.373 . S
C158 C160 1.389 . S
C159 H138 0.950 . S
C159 C158 1.373 . S
C159 C175 1.377 . S
C160 C158 1.389 . S
C160 C161 1.524 . S
C160 C174 1.377 . S
C161 C160 1.524 . S
C161 C162 1.397 . S
C161 C166 1.363 . S
C162 H139 0.950 . S
C162 C161 1.397 . S
C162 C163 1.334 . S
C163 H140 0.950 . S
C163 C162 1.334 . S
C163 C164 1.287 . S
C164 C163 1.287 . S
C164 C165 1.524 . S
C164 H183 0.913 . S
C165 H141 0.950 . S
C165 C164 1.524 . S
C165 C166 1.415 . S
C166 H142 0.950 . S
C166 C161 1.363 . S
C166 C165 1.415 . S
C167 H143 0.951 . S
C167 C168 1.366 . S
C167 C169 1.388 . S
C168 C167 1.366 . S
C168 C172 1.385 . S
C169 H144 0.951 . S
C169 C167 1.388 . S
C169 C170 1.366 . S
C170 C169 1.366 . S
C170 C171 1.414 . S
C170 C173 1.499 . S
C171 H145 0.950 . S
C171 C170 1.414 . S
C171 C172 1.374 . S
C172 H146 0.950 . S
C172 C168 1.385 . S
C172 C171 1.374 . S
C173 C170 1.499 . S
C173 C174 1.373 . S
C173 C175 1.389 . S
C174 H147 0.950 . S
C174 C160 1.377 . S
C174 C173 1.373 . S
C175 C159 1.377 . S
C175 C173 1.389 . S
C175 C176 1.524 . S
C176 C175 1.524 . S
C176 C177 1.397 . S
C176 C181 1.363 . S
C177 H148 0.950 . S
C177 C176 1.397 . S
C177 C178 1.334 . S
C178 H149 0.950 . S
C178 C177 1.334 . S
C178 C179 1.287 . S
C179 C178 1.287 . S
C179 C180 1.524 . S
C179 H182 0.999 . S
C180 H150 0.950 . S
C180 C179 1.524 . S
C180 C181 1.415 . S
C181 H151 0.950 . S
C181 C176 1.363 . S
C181 C180 1.415 . S
H182 C179 0.999 . S
H183 C164 0.913 . S
H184 C202 0.951 . S
H185 C204 0.951 . S
H186 C206 0.950 . S
H187 C207 0.950 . S
H188 C209 0.950 . S
H189 C212 0.950 . S
H190 C213 0.950 . S
H191 C215 0.950 . S
H192 C216 0.950 1_455 S
H193 C217 0.951 . S
H194 C219 0.951 . S
H195 C221 0.950 . S
H196 C222 0.950 . S
H197 C224 0.950 . S
H198 C227 0.950 . S
H199 C228 0.950 . S
H200 C230 0.950 . S
H201 C231 0.950 1_655 S
C202 H184 0.951 . S
C202 C203 1.366 . S
C202 C204 1.388 . S
C203 C202 1.366 . S
C203 C207 1.385 . S
C204 H185 0.951 . S
C204 C202 1.388 . S
C204 C205 1.366 . S
C205 C204 1.366 . S
C205 C206 1.414 . S
C205 C208 1.499 . S
C206 H186 0.950 . S
C206 C205 1.414 . S
C206 C207 1.374 . S
C207 H187 0.950 . S
C207 C203 1.385 . S
C207 C206 1.374 . S
C208 C205 1.499 . S
C208 C209 1.373 . S
C208 C210 1.389 . S
C209 H188 0.950 . S
C209 C208 1.373 . S
C209 C225 1.377 1_655 S
C210 C208 1.389 . S
C210 C211 1.524 . S
C210 C224 1.377 1_655 S
C211 C210 1.524 . S
C211 C212 1.397 . S
C211 C216 1.363 . S
C212 H189 0.950 . S
C212 C211 1.397 . S
C212 C213 1.334 . S
C213 H190 0.950 . S
C213 C212 1.334 . S
C213 C214 1.287 . S
C214 C213 1.287 . S
C214 C215 1.524 . S
C214 H233 0.913 . S
C215 H191 0.950 . S
C215 C214 1.524 . S
C215 C216 1.415 . S
C216 H192 0.950 1_655 S
C216 C211 1.363 . S
C216 C215 1.415 . S
C217 H193 0.951 . S
C217 C218 1.366 . S
C217 C219 1.388 . S
C218 C217 1.366 . S
C218 C222 1.385 . S
C219 H194 0.951 . S
C219 C217 1.388 . S
C219 C220 1.366 . S
C220 C219 1.366 . S
C220 C221 1.414 . S
C220 C223 1.499 . S
C221 H195 0.950 . S
C221 C220 1.414 . S
C221 C222 1.374 . S
C222 H196 0.950 . S
C222 C218 1.385 . S
C222 C221 1.374 . S
C223 C220 1.499 . S
C223 C224 1.373 . S
C223 C225 1.389 . S
C224 H197 0.950 . S
C224 C210 1.377 1_455 S
C224 C223 1.373 . S
C225 C209 1.377 1_455 S
C225 C223 1.389 . S
C225 C226 1.524 . S
C226 C225 1.524 . S
C226 C227 1.397 . S
C226 C231 1.363 . S
C227 H198 0.950 . S
C227 C226 1.397 . S
C227 C228 1.334 . S
C228 H199 0.950 . S
C228 C227 1.334 . S
C228 C229 1.287 . S
C229 C228 1.287 . S
C229 C230 1.524 . S
C229 H232 0.999 . S
C230 H200 0.950 . S
C230 C229 1.524 . S
C230 C231 1.415 . S
C231 H201 0.950 1_455 S
C231 C226 1.363 . S
C231 C230 1.415 . S
H232 C229 0.999 . S
H233 C214 0.913 . S
H234 C252 0.951 . S
H235 C254 0.951 . S
H236 C256 0.950 . S
H237 C257 0.950 . S
H238 C259 0.950 . S
H239 C262 0.950 . S
H240 C263 0.950 . S
H241 C265 0.950 . S
H242 C266 0.950 1_655 S
H243 C267 0.951 . S
H244 C269 0.951 . S
H245 C271 0.950 . S
H246 C272 0.950 . S
H247 C274 0.950 . S
H248 C277 0.950 . S
H249 C278 0.950 . S
H250 C280 0.950 . S
H251 C281 0.950 1_455 S
C252 H234 0.951 . S
C252 C253 1.366 . S
C252 C254 1.388 . S
C253 C252 1.366 . S
C253 C257 1.385 . S
C254 H235 0.951 . S
C254 C252 1.388 . S
C254 C255 1.366 . S
C255 C254 1.366 . S
C255 C256 1.414 . S
C255 C258 1.499 . S
C256 H236 0.950 . S
C256 C255 1.414 . S
C256 C257 1.374 . S
C257 H237 0.950 . S
C257 C253 1.385 . S
C257 C256 1.374 . S
C258 C255 1.499 . S
C258 C259 1.373 . S
C258 C260 1.389 . S
C259 H238 0.950 . S
C259 C258 1.373 . S
C259 C275 1.377 1_455 S
C260 C258 1.389 . S
C260 C261 1.524 . S
C260 C274 1.377 1_455 S
C261 C260 1.524 . S
C261 C262 1.397 . S
C261 C266 1.363 . S
C262 H239 0.950 . S
C262 C261 1.397 . S
C262 C263 1.334 . S
C263 H240 0.950 . S
C263 C262 1.334 . S
C263 C264 1.287 . S
C264 C263 1.287 . S
C264 C265 1.524 . S
C264 H283 0.913 . S
C265 H241 0.950 . S
C265 C264 1.524 . S
C265 C266 1.415 . S
C266 H242 0.950 1_455 S
C266 C261 1.363 . S
C266 C265 1.415 . S
C267 H243 0.951 . S
C267 C268 1.366 . S
C267 C269 1.388 . S
C268 C267 1.366 . S
C268 C272 1.385 . S
C269 H244 0.951 . S
C269 C267 1.388 . S
C269 C270 1.366 . S
C270 C269 1.366 . S
C270 C271 1.414 . S
C270 C273 1.499 . S
C271 H245 0.950 . S
C271 C270 1.414 . S
C271 C272 1.374 . S
C272 H246 0.950 . S
C272 C268 1.385 . S
C272 C271 1.374 . S
C273 C270 1.499 . S
C273 C274 1.373 . S
C273 C275 1.389 . S
C274 H247 0.950 . S
C274 C260 1.377 1_655 S
C274 C273 1.373 . S
C275 C259 1.377 1_655 S
C275 C273 1.389 . S
C275 C276 1.524 . S
C276 C275 1.524 . S
C276 C277 1.397 . S
C276 C281 1.363 . S
C277 H248 0.950 . S
C277 C276 1.397 . S
C277 C278 1.334 . S
C278 H249 0.950 . S
C278 C277 1.334 . S
C278 C279 1.287 . S
C279 C278 1.287 . S
C279 C280 1.524 . S
C279 H282 0.999 . S
C280 H250 0.950 . S
C280 C279 1.524 . S
C280 C281 1.415 . S
C281 H251 0.950 1_655 S
C281 C276 1.363 . S
C281 C280 1.415 . S
H282 C279 0.999 . S
H283 C264 0.913 . S
H284 C302 0.951 . S
H285 C304 0.951 . S
H286 C306 0.950 . S
H287 C307 0.950 . S
H288 C309 0.950 . S
H289 C312 0.950 . S
H290 C313 0.950 . S
H291 C315 0.950 . S
H292 C316 0.950 . S
H293 C317 0.951 . S
H294 C319 0.951 . S
H295 C321 0.950 . S
H296 C322 0.950 . S
H297 C324 0.950 . S
H298 C327 0.950 . S
H299 C328 0.950 . S
H300 C330 0.950 . S
H301 C331 0.950 . S
C302 H284 0.951 . S
C302 C303 1.366 . S
C302 C304 1.388 . S
C303 C302 1.366 . S
C303 C307 1.385 . S
C304 H285 0.951 . S
C304 C302 1.388 . S
C304 C305 1.366 . S
C305 C304 1.366 . S
C305 C306 1.414 . S
C305 C308 1.499 . S
C306 H286 0.950 . S
C306 C305 1.414 . S
C306 C307 1.374 . S
C307 H287 0.950 . S
C307 C303 1.385 . S
C307 C306 1.374 . S
C308 C305 1.499 . S
C308 C309 1.373 . S
C308 C310 1.389 . S
C309 H288 0.950 . S
C309 C308 1.373 . S
C309 C325 1.377 1_565 S
C310 C308 1.389 . S
C310 C311 1.524 . S
C310 C324 1.377 1_565 S
C311 C310 1.524 . S
C311 C312 1.397 . S
C311 C316 1.363 . S
C312 H289 0.950 . S
C312 C311 1.397 . S
C312 C313 1.334 . S
C313 H290 0.950 . S
C313 C312 1.334 . S
C313 C314 1.287 . S
C314 C313 1.287 . S
C314 C315 1.524 . S
C314 H333 0.913 . S
C315 H291 0.950 . S
C315 C314 1.524 . S
C315 C316 1.415 . S
C316 H292 0.950 . S
C316 C311 1.363 . S
C316 C315 1.415 . S
C317 H293 0.951 . S
C317 C318 1.366 . S
C317 C319 1.388 . S
C318 C317 1.366 . S
C318 C322 1.385 . S
C319 H294 0.951 . S
C319 C317 1.388 . S
C319 C320 1.366 . S
C320 C319 1.366 . S
C320 C321 1.414 . S
C320 C323 1.499 . S
C321 H295 0.950 . S
C321 C320 1.414 . S
C321 C322 1.374 . S
C322 H296 0.950 . S
C322 C318 1.385 . S
C322 C321 1.374 . S
C323 C320 1.499 . S
C323 C324 1.373 . S
C323 C325 1.389 . S
C324 H297 0.950 . S
C324 C310 1.377 1_545 S
C324 C323 1.373 . S
C325 C309 1.377 1_545 S
C325 C323 1.389 . S
C325 C326 1.524 . S
C326 C325 1.524 . S
C326 C327 1.397 . S
C326 C331 1.363 . S
C327 H298 0.950 . S
C327 C326 1.397 . S
C327 C328 1.334 . S
C328 H299 0.950 . S
C328 C327 1.334 . S
C328 C329 1.287 . S
C329 C328 1.287 . S
C329 C330 1.524 . S
C329 H332 0.999 . S
C330 H300 0.950 . S
C330 C329 1.524 . S
C330 C331 1.415 . S
C331 H301 0.950 . S
C331 C326 1.363 . S
C331 C330 1.415 . S
H332 C329 0.999 . S
H333 C314 0.913 . S
H334 C352 0.951 . S
H335 C354 0.951 . S
H336 C356 0.950 . S
H337 C357 0.950 . S
H338 C359 0.950 . S
H339 C362 0.950 . S
H340 C363 0.950 . S
H341 C365 0.950 . S
H342 C366 0.950 . S
H343 C367 0.951 . S
H344 C369 0.951 . S
H345 C371 0.950 . S
H346 C372 0.950 . S
H347 C374 0.950 . S
H348 C377 0.950 . S
H349 C378 0.950 . S
H350 C380 0.950 . S
H351 C381 0.950 . S
C352 H334 0.951 . S
C352 C353 1.366 . S
C352 C354 1.388 . S
C353 C352 1.366 . S
C353 C357 1.385 . S
C354 H335 0.951 . S
C354 C352 1.388 . S
C354 C355 1.366 . S
C355 C354 1.366 . S
C355 C356 1.414 . S
C355 C358 1.499 . S
C356 H336 0.950 . S
C356 C355 1.414 . S
C356 C357 1.374 . S
C357 H337 0.950 . S
C357 C353 1.385 . S
C357 C356 1.374 . S
C358 C355 1.499 . S
C358 C359 1.373 . S
C358 C360 1.389 . S
C359 H338 0.950 . S
C359 C358 1.373 . S
C359 C375 1.377 . S
C360 C358 1.389 . S
C360 C361 1.524 . S
C360 C374 1.377 . S
C361 C360 1.524 . S
C361 C362 1.397 . S
C361 C366 1.363 . S
C362 H339 0.950 . S
C362 C361 1.397 . S
C362 C363 1.334 . S
C363 H340 0.950 . S
C363 C362 1.334 . S
C363 C364 1.287 . S
C364 C363 1.287 . S
C364 C365 1.524 . S
C364 H383 0.913 . S
C365 H341 0.950 . S
C365 C364 1.524 . S
C365 C366 1.415 . S
C366 H342 0.950 . S
C366 C361 1.363 . S
C366 C365 1.415 . S
C367 H343 0.951 . S
C367 C368 1.366 . S
C367 C369 1.388 . S
C368 C367 1.366 . S
C368 C372 1.385 . S
C369 H344 0.951 . S
C369 C367 1.388 . S
C369 C370 1.366 . S
C370 C369 1.366 . S
C370 C371 1.414 . S
C370 C373 1.499 . S
C371 H345 0.950 . S
C371 C370 1.414 . S
C371 C372 1.374 . S
C372 H346 0.950 . S
C372 C368 1.385 . S
C372 C371 1.374 . S
C373 C370 1.499 . S
C373 C374 1.373 . S
C373 C375 1.389 . S
C374 H347 0.950 . S
C374 C360 1.377 . S
C374 C373 1.373 . S
C375 C359 1.377 . S
C375 C373 1.389 . S
C375 C376 1.524 . S
C376 C375 1.524 . S
C376 C377 1.397 . S
C376 C381 1.363 . S
C377 H348 0.950 . S
C377 C376 1.397 . S
C377 C378 1.334 . S
C378 H349 0.950 . S
C378 C377 1.334 . S
C378 C379 1.287 . S
C379 C378 1.287 . S
C379 C380 1.524 . S
C379 H382 0.999 . S
C380 H350 0.950 . S
C380 C379 1.524 . S
C380 C381 1.415 . S
C381 H351 0.950 . S
C381 C376 1.363 . S
C381 C380 1.415 . S
H382 C379 0.999 . S
H383 C364 0.913 . S
H384 C402 0.951 . S
H385 C404 0.951 . S
H386 C406 0.950 . S
H387 C407 0.950 . S
H388 C409 0.950 . S
H389 C412 0.950 . S
H390 C413 0.950 . S
H391 C415 0.950 . S
H392 C416 0.950 . S
H393 C417 0.951 . S
H394 C419 0.951 . S
H395 C421 0.950 . S
H396 C422 0.950 . S
H397 C424 0.950 . S
H398 C427 0.950 . S
H399 C428 0.950 . S
H400 C430 0.950 . S
H401 C431 0.950 . S
C402 H384 0.951 . S
C402 C403 1.366 . S
C402 C404 1.388 . S
C403 C402 1.366 . S
C403 C407 1.385 . S
C404 H385 0.951 . S
C404 C402 1.388 . S
C404 C405 1.366 . S
C405 C404 1.366 . S
C405 C406 1.414 . S
C405 C408 1.499 . S
C406 H386 0.950 . S
C406 C405 1.414 . S
C406 C407 1.374 . S
C407 H387 0.950 . S
C407 C403 1.385 . S
C407 C406 1.374 . S
C408 C405 1.499 . S
C408 C409 1.373 . S
C408 C410 1.389 . S
C409 H388 0.950 . S
C409 C408 1.373 . S
C409 C425 1.377 1_556 S
C410 C408 1.389 . S
C410 C411 1.524 . S
C410 C424 1.377 1_556 S
C411 C410 1.524 . S
C411 C412 1.397 . S
C411 C416 1.363 . S
C412 H389 0.950 . S
C412 C411 1.397 . S
C412 C413 1.334 . S
C413 H390 0.950 . S
C413 C412 1.334 . S
C413 C414 1.287 . S
C414 C413 1.287 . S
C414 C415 1.524 . S
C414 H433 0.913 . S
C415 H391 0.950 . S
C415 C414 1.524 . S
C415 C416 1.415 . S
C416 H392 0.950 . S
C416 C411 1.363 . S
C416 C415 1.415 . S
C417 H393 0.951 . S
C417 C418 1.366 . S
C417 C419 1.388 . S
C418 C417 1.366 . S
C418 C422 1.385 . S
C419 H394 0.951 . S
C419 C417 1.388 . S
C419 C420 1.366 . S
C420 C419 1.366 . S
C420 C421 1.414 . S
C420 C423 1.499 . S
C421 H395 0.950 . S
C421 C420 1.414 . S
C421 C422 1.374 . S
C422 H396 0.950 . S
C422 C418 1.385 . S
C422 C421 1.374 . S
C423 C420 1.499 . S
C423 C424 1.373 . S
C423 C425 1.389 . S
C424 H397 0.950 . S
C424 C410 1.377 1_554 S
C424 C423 1.373 . S
C425 C409 1.377 1_554 S
C425 C423 1.389 . S
C425 C426 1.524 . S
C426 C425 1.524 . S
C426 C427 1.397 . S
C426 C431 1.363 . S
C427 H398 0.950 . S
C427 C426 1.397 . S
C427 C428 1.334 . S
C428 H399 0.950 . S
C428 C427 1.334 . S
C428 C429 1.287 . S
C429 C428 1.287 . S
C429 C430 1.524 . S
C429 H432 0.999 . S
C430 H400 0.950 . S
C430 C429 1.524 . S
C430 C431 1.415 . S
C431 H401 0.950 . S
C431 C426 1.363 . S
C431 C430 1.415 . S
H432 C429 0.999 . S
H433 C414 0.913 . S
H434 C452 0.951 . S
H435 C454 0.951 . S
H436 C456 0.950 . S
H437 C457 0.950 . S
H438 C459 0.950 . S
H439 C462 0.950 . S
H440 C463 0.950 . S
H441 C465 0.950 . S
H442 C466 0.950 . S
H443 C467 0.951 . S
H444 C469 0.951 . S
H445 C471 0.950 . S
H446 C472 0.950 . S
H447 C474 0.950 . S
H448 C477 0.950 . S
H449 C478 0.950 . S
H450 C480 0.950 . S
H451 C481 0.950 . S
C452 H434 0.951 . S
C452 C453 1.366 . S
C452 C454 1.388 . S
C453 C452 1.366 . S
C453 C457 1.385 . S
C454 H435 0.951 . S
C454 C452 1.388 . S
C454 C455 1.366 . S
C455 C454 1.366 . S
C455 C456 1.414 . S
C455 C458 1.499 . S
C456 H436 0.950 . S
C456 C455 1.414 . S
C456 C457 1.374 . S
C457 H437 0.950 . S
C457 C453 1.385 . S
C457 C456 1.374 . S
C458 C455 1.499 . S
C458 C459 1.373 . S
C458 C460 1.389 . S
C459 H438 0.950 . S
C459 C458 1.373 . S
C459 C475 1.377 . S
C460 C458 1.389 . S
C460 C461 1.524 . S
C460 C474 1.377 . S
C461 C460 1.524 . S
C461 C462 1.397 . S
C461 C466 1.363 . S
C462 H439 0.950 . S
C462 C461 1.397 . S
C462 C463 1.334 . S
C463 H440 0.950 . S
C463 C462 1.334 . S
C463 C464 1.287 . S
C464 C463 1.287 . S
C464 C465 1.524 . S
C464 H483 0.913 . S
C465 H441 0.950 . S
C465 C464 1.524 . S
C465 C466 1.415 . S
C466 H442 0.950 . S
C466 C461 1.363 . S
C466 C465 1.415 . S
C467 H443 0.951 . S
C467 C468 1.366 . S
C467 C469 1.388 . S
C468 C467 1.366 . S
C468 C472 1.385 . S
C469 H444 0.951 . S
C469 C467 1.388 . S
C469 C470 1.366 . S
C470 C469 1.366 . S
C470 C471 1.414 . S
C470 C473 1.499 . S
C471 H445 0.950 . S
C471 C470 1.414 . S
C471 C472 1.374 . S
C472 H446 0.950 . S
C472 C468 1.385 . S
C472 C471 1.374 . S
C473 C470 1.499 . S
C473 C474 1.373 . S
C473 C475 1.389 . S
C474 H447 0.950 . S
C474 C460 1.377 . S
C474 C473 1.373 . S
C475 C459 1.377 . S
C475 C473 1.389 . S
C475 C476 1.524 . S
C476 C475 1.524 . S
C476 C477 1.397 . S
C476 C481 1.363 . S
C477 H448 0.950 . S
C477 C476 1.397 . S
C477 C478 1.334 . S
C478 H449 0.950 . S
C478 C477 1.334 . S
C478 C479 1.287 . S
C479 C478 1.287 . S
C479 C480 1.524 . S
C479 H482 0.999 . S
C480 H450 0.950 . S
C480 C479 1.524 . S
C480 C481 1.415 . S
C481 H451 0.950 . S
C481 C476 1.363 . S
C481 C480 1.415 . S
H482 C479 0.999 . S
H483 C464 0.913 . S
H484 C502 0.951 . S
H485 C504 0.951 . S
H486 C506 0.950 . S
H487 C507 0.950 . S
H488 C509 0.950 . S
H489 C512 0.950 . S
H490 C513 0.950 . S
H491 C515 0.950 . S
H492 C516 0.950 . S
H493 C517 0.951 . S
H494 C519 0.951 . S
H495 C521 0.950 . S
H496 C522 0.950 . S
H497 C524 0.950 . S
H498 C527 0.950 . S
H499 C528 0.950 . S
H500 C530 0.950 . S
H501 C531 0.950 . S
C502 H484 0.951 . S
C502 C503 1.366 . S
C502 C504 1.388 . S
C503 C502 1.366 . S
C503 C507 1.385 . S
C504 H485 0.951 . S
C504 C502 1.388 . S
C504 C505 1.366 . S
C505 C504 1.366 . S
C505 C506 1.414 . S
C505 C508 1.499 . S
C506 H486 0.950 . S
C506 C505 1.414 . S
C506 C507 1.374 . S
C507 H487 0.950 . S
C507 C503 1.385 . S
C507 C506 1.374 . S
C508 C505 1.499 . S
C508 C509 1.373 . S
C508 C510 1.389 . S
C509 H488 0.950 . S
C509 C508 1.373 . S
C509 C525 1.377 . S
C510 C508 1.389 . S
C510 C511 1.524 . S
C510 C524 1.377 . S
C511 C510 1.524 . S
C511 C512 1.397 . S
C511 C516 1.363 . S
C512 H489 0.950 . S
C512 C511 1.397 . S
C512 C513 1.334 . S
C513 H490 0.950 . S
C513 C512 1.334 . S
C513 C514 1.287 . S
C514 C513 1.287 . S
C514 C515 1.524 . S
C514 H533 0.913 . S
C515 H491 0.950 . S
C515 C514 1.524 . S
C515 C516 1.415 . S
C516 H492 0.950 . S
C516 C511 1.363 . S
C516 C515 1.415 . S
C517 H493 0.951 . S
C517 C518 1.366 . S
C517 C519 1.388 . S
C518 C517 1.366 . S
C518 C522 1.385 . S
C519 H494 0.951 . S
C519 C517 1.388 . S
C519 C520 1.366 . S
C520 C519 1.366 . S
C520 C521 1.414 . S
C520 C523 1.499 . S
C521 H495 0.950 . S
C521 C520 1.414 . S
C521 C522 1.374 . S
C522 H496 0.950 . S
C522 C518 1.385 . S
C522 C521 1.374 . S
C523 C520 1.499 . S
C523 C524 1.373 . S
C523 C525 1.389 . S
C524 H497 0.950 . S
C524 C510 1.377 . S
C524 C523 1.373 . S
C525 C509 1.377 . S
C525 C523 1.389 . S
C525 C526 1.524 . S
C526 C525 1.524 . S
C526 C527 1.397 . S
C526 C531 1.363 . S
C527 H498 0.950 . S
C527 C526 1.397 . S
C527 C528 1.334 . S
C528 H499 0.950 . S
C528 C527 1.334 . S
C528 C529 1.287 . S
C529 C528 1.287 . S
C529 C530 1.524 . S
C529 H532 0.999 . S
C530 H500 0.950 . S
C530 C529 1.524 . S
C530 C531 1.415 . S
C531 H501 0.950 . S
C531 C526 1.363 . S
C531 C530 1.415 . S
H532 C529 0.999 . S
H533 C514 0.913 . S
H534 C552 0.951 . S
H535 C554 0.951 . S
H536 C556 0.950 . S
H537 C557 0.950 . S
H538 C559 0.950 . S
H539 C562 0.950 . S
H540 C563 0.950 . S
H541 C565 0.950 . S
H542 C566 0.950 . S
H543 C567 0.951 . S
H544 C569 0.951 . S
H545 C571 0.950 . S
H546 C572 0.950 . S
H547 C574 0.950 . S
H548 C577 0.950 . S
H549 C578 0.950 . S
H550 C580 0.950 . S
H551 C581 0.950 . S
C552 H534 0.951 . S
C552 C553 1.366 . S
C552 C554 1.388 . S
C553 C552 1.366 . S
C553 C557 1.385 . S
C554 H535 0.951 . S
C554 C552 1.388 . S
C554 C555 1.366 . S
C555 C554 1.366 . S
C555 C556 1.414 . S
C555 C558 1.499 . S
C556 H536 0.950 . S
C556 C555 1.414 . S
C556 C557 1.374 . S
C557 H537 0.950 . S
C557 C553 1.385 . S
C557 C556 1.374 . S
C558 C555 1.499 . S
C558 C559 1.373 . S
C558 C560 1.389 . S
C559 H538 0.950 . S
C559 C558 1.373 . S
C559 C575 1.377 1_556 S
C560 C558 1.389 . S
C560 C561 1.524 . S
C560 C574 1.377 1_556 S
C561 C560 1.524 . S
C561 C562 1.397 . S
C561 C566 1.363 . S
C562 H539 0.950 . S
C562 C561 1.397 . S
C562 C563 1.334 . S
C563 H540 0.950 . S
C563 C562 1.334 . S
C563 C564 1.287 . S
C564 C563 1.287 . S
C564 C565 1.524 . S
C564 H583 0.913 . S
C565 H541 0.950 . S
C565 C564 1.524 . S
C565 C566 1.415 . S
C566 H542 0.950 . S
C566 C561 1.363 . S
C566 C565 1.415 . S
C567 H543 0.951 . S
C567 C568 1.366 . S
C567 C569 1.388 . S
C568 C567 1.366 . S
C568 C572 1.385 . S
C569 H544 0.951 . S
C569 C567 1.388 . S
C569 C570 1.366 . S
C570 C569 1.366 . S
C570 C571 1.414 . S
C570 C573 1.499 . S
C571 H545 0.950 . S
C571 C570 1.414 . S
C571 C572 1.374 . S
C572 H546 0.950 . S
C572 C568 1.385 . S
C572 C571 1.374 . S
C573 C570 1.499 . S
C573 C574 1.373 . S
C573 C575 1.389 . S
C574 H547 0.950 . S
C574 C560 1.377 1_554 S
C574 C573 1.373 . S
C575 C559 1.377 1_554 S
C575 C573 1.389 . S
C575 C576 1.524 . S
C576 C575 1.524 . S
C576 C577 1.397 . S
C576 C581 1.363 . S
C577 H548 0.950 . S
C577 C576 1.397 . S
C577 C578 1.334 . S
C578 H549 0.950 . S
C578 C577 1.334 . S
C578 C579 1.287 . S
C579 C578 1.287 . S
C579 C580 1.524 . S
C579 H582 0.999 . S
C580 H550 0.950 . S
C580 C579 1.524 . S
C580 C581 1.415 . S
C581 H551 0.950 . S
C581 C576 1.363 . S
C581 C580 1.415 . S
H582 C579 0.999 . S
H583 C564 0.913 . S
H584 C602 0.951 . S
H585 C604 0.951 . S
H586 C606 0.950 . S
H587 C607 0.950 . S
H588 C609 0.950 . S
H589 C612 0.950 . S
H590 C613 0.950 . S
H591 C615 0.950 . S
H592 C616 0.950 . S
H593 C617 0.951 . S
H594 C619 0.951 . S
H595 C621 0.950 . S
H596 C622 0.950 . S
H597 C624 0.950 . S
H598 C627 0.950 . S
H599 C628 0.950 . S
H600 C630 0.950 . S
H601 C631 0.950 . S
C602 H584 0.951 . S
C602 C603 1.366 . S
C602 C604 1.388 . S
C603 C602 1.366 . S
C603 C607 1.385 . S
C604 H585 0.951 . S
C604 C602 1.388 . S
C604 C605 1.366 . S
C605 C604 1.366 . S
C605 C606 1.414 . S
C605 C608 1.499 . S
C606 H586 0.950 . S
C606 C605 1.414 . S
C606 C607 1.374 . S
C607 H587 0.950 . S
C607 C603 1.385 . S
C607 C606 1.374 . S
C608 C605 1.499 . S
C608 C609 1.373 . S
C608 C610 1.389 . S
C609 H588 0.950 . S
C609 C608 1.373 . S
C609 C625 1.377 . S
C610 C608 1.389 . S
C610 C611 1.524 . S
C610 C624 1.377 . S
C611 C610 1.524 . S
C611 C612 1.397 . S
C611 C616 1.363 . S
C612 H589 0.950 . S
C612 C611 1.397 . S
C612 C613 1.334 . S
C613 H590 0.950 . S
C613 C612 1.334 . S
C613 C614 1.287 . S
C614 C613 1.287 . S
C614 C615 1.524 . S
C614 H633 0.913 . S
C615 H591 0.950 . S
C615 C614 1.524 . S
C615 C616 1.415 . S
C616 H592 0.950 . S
C616 C611 1.363 . S
C616 C615 1.415 . S
C617 H593 0.951 . S
C617 C618 1.366 . S
C617 C619 1.388 . S
C618 C617 1.366 . S
C618 C622 1.385 . S
C619 H594 0.951 . S
C619 C617 1.388 . S
C619 C620 1.366 . S
C620 C619 1.366 . S
C620 C621 1.414 . S
C620 C623 1.499 . S
C621 H595 0.950 . S
C621 C620 1.414 . S
C621 C622 1.374 . S
C622 H596 0.950 . S
C622 C618 1.385 . S
C622 C621 1.374 . S
C623 C620 1.499 . S
C623 C624 1.373 . S
C623 C625 1.389 . S
C624 H597 0.950 . S
C624 C610 1.377 . S
C624 C623 1.373 . S
C625 C609 1.377 . S
C625 C623 1.389 . S
C625 C626 1.524 . S
C626 C625 1.524 . S
C626 C627 1.397 . S
C626 C631 1.363 . S
C627 H598 0.950 . S
C627 C626 1.397 . S
C627 C628 1.334 . S
C628 H599 0.950 . S
C628 C627 1.334 . S
C628 C629 1.287 . S
C629 C628 1.287 . S
C629 C630 1.524 . S
C629 H632 0.999 . S
C630 H600 0.950 . S
C630 C629 1.524 . S
C630 C631 1.415 . S
C631 H601 0.950 . S
C631 C626 1.363 . S
C631 C630 1.415 . S
H632 C629 0.999 . S
H633 C614 0.913 . S
H634 C652 0.951 . S
H635 C654 0.951 . S
H636 C656 0.950 . S
H637 C657 0.950 . S
H638 C659 0.950 . S
H639 C662 0.950 . S
H640 C663 0.950 . S
H641 C665 0.950 . S
H642 C666 0.950 . S
H643 C667 0.951 . S
H644 C669 0.951 . S
H645 C671 0.950 . S
H646 C672 0.950 . S
H647 C674 0.950 . S
H648 C677 0.950 . S
H649 C678 0.950 . S
H650 C680 0.950 . S
H651 C681 0.950 . S
C652 H634 0.951 . S
C652 C653 1.366 . S
C652 C654 1.388 . S
C653 C652 1.366 . S
C653 C657 1.385 . S
C654 H635 0.951 . S
C654 C652 1.388 . S
C654 C655 1.366 . S
C655 C654 1.366 . S
C655 C656 1.414 . S
C655 C658 1.499 . S
C656 H636 0.950 . S
C656 C655 1.414 . S
C656 C657 1.374 . S
C657 H637 0.950 . S
C657 C653 1.385 . S
C657 C656 1.374 . S
C658 C655 1.499 . S
C658 C659 1.373 . S
C658 C660 1.389 . S
C659 H638 0.950 . S
C659 C658 1.373 . S
C659 C675 1.377 . S
C660 C658 1.389 . S
C660 C661 1.524 . S
C660 C674 1.377 . S
C661 C660 1.524 . S
C661 C662 1.397 . S
C661 C666 1.363 . S
C662 H639 0.950 . S
C662 C661 1.397 . S
C662 C663 1.334 . S
C663 H640 0.950 . S
C663 C662 1.334 . S
C663 C664 1.287 . S
C664 C663 1.287 . S
C664 C665 1.524 . S
C664 H683 0.913 . S
C665 H641 0.950 . S
C665 C664 1.524 . S
C665 C666 1.415 . S
C666 H642 0.950 . S
C666 C661 1.363 . S
C666 C665 1.415 . S
C667 H643 0.951 . S
C667 C668 1.366 . S
C667 C669 1.388 . S
C668 C667 1.366 . S
C668 C672 1.385 . S
C669 H644 0.951 . S
C669 C667 1.388 . S
C669 C670 1.366 . S
C670 C669 1.366 . S
C670 C671 1.414 . S
C670 C673 1.499 . S
C671 H645 0.950 . S
C671 C670 1.414 . S
C671 C672 1.374 . S
C672 H646 0.950 . S
C672 C668 1.385 . S
C672 C671 1.374 . S
C673 C670 1.499 . S
C673 C674 1.373 . S
C673 C675 1.389 . S
C674 H647 0.950 . S
C674 C660 1.377 . S
C674 C673 1.373 . S
C675 C659 1.377 . S
C675 C673 1.389 . S
C675 C676 1.524 . S
C676 C675 1.524 . S
C676 C677 1.397 . S
C676 C681 1.363 . S
C677 H648 0.950 . S
C677 C676 1.397 . S
C677 C678 1.334 . S
C678 H649 0.950 . S
C678 C677 1.334 . S
C678 C679 1.287 . S
C679 C678 1.287 . S
C679 C680 1.524 . S
C679 H682 0.999 . S
C680 H650 0.950 . S
C680 C679 1.524 . S
C680 C681 1.415 . S
C681 H651 0.950 . S
C681 C676 1.363 . S
C681 C680 1.415 . S
H682 C679 0.999 . S
H683 C664 0.913 . S
C103 C1 1.721 . S
C118 C54 1.719 . S
C153 C26 1.719 . S
C168 C56 1.719 . S
C203 C40 1.719 . S
C218 C71 1.721 . S
C253 C27 1.721 . S
C268 C57 1.721 . S
C303 C70 1.719 . S
C318 C41 1.721 . S
C353 C55 1.721 . S
C368 C0 1.719 . S
C403 C28 1.816 . S
C418 C12 1.815 . S
C453 C42 1.815 . S
C468 C15 1.817 . S
C503 C29 1.818 . S
C518 C68 1.816 . S
C553 C83 1.817 . S
C568 C43 1.817 . S
C603 C69 1.817 . S
C618 C13 1.817 . S
C653 C82 1.816 . S
C668 C14 1.816 . S
