# Generated by pormake.
# Topology nia-e, (7)-cn, num edge types: 1
# Building blocks:
#     Node 0, Type 0, BuildingBlock: OLANEW_clean_sbu_3, # of connection points: 7
#     Node 1, Type 0, BuildingBlock: OLANEW_clean_sbu_3, # of connection points: 7
#     Node 2, Type 0, BuildingBlock: OLANEW_clean_sbu_3, # of connection points: 7
#     Node 3, Type 0, BuildingBlock: OLANEW_clean_sbu_3, # of connection points: 7
#     Node 4, Type 0, BuildingBlock: OLANEW_clean_sbu_3, # of connection points: 7
#     Node 5, Type 0, BuildingBlock: OLANEW_clean_sbu_3, # of connection points: 7
#     Node 6, Type 0, BuildingBlock: OLANEW_clean_sbu_3, # of connection points: 7
#     Node 7, Type 0, BuildingBlock: OLANEW_clean_sbu_3, # of connection points: 7
#     Node 8, Type 0, BuildingBlock: OLANEW_clean_sbu_3, # of connection points: 7
#     Node 9, Type 0, BuildingBlock: OLANEW_clean_sbu_3, # of connection points: 7
#     Node 10, Type 0, BuildingBlock: OLANEW_clean_sbu_3, # of connection points: 7
#     Node 11, Type 0, BuildingBlock: OLANEW_clean_sbu_3, # of connection points: 7
#     Edge 12, Type (0, 0), BuildingBlock: OJICUG_clean_linker_0, # of connection points: 2
#     Edge 13, Type (0, 0), BuildingBlock: OJICUG_clean_linker_0, # of connection points: 2
#     Edge 14, Type (0, 0), BuildingBlock: OJICUG_clean_linker_0, # of connection points: 2
#     Edge 15, Type (0, 0), BuildingBlock: OJICUG_clean_linker_0, # of connection points: 2
#     Edge 16, Type (0, 0), BuildingBlock: OJICUG_clean_linker_0, # of connection points: 2
#     Edge 17, Type (0, 0), BuildingBlock: OJICUG_clean_linker_0, # of connection points: 2
#     Edge 18, Type (0, 0), BuildingBlock: OJICUG_clean_linker_0, # of connection points: 2
#     Edge 19, Type (0, 0), BuildingBlock: OJICUG_clean_linker_0, # of connection points: 2
#     Edge 20, Type (0, 0), BuildingBlock: OJICUG_clean_linker_0, # of connection points: 2
#     Edge 21, Type (0, 0), BuildingBlock: OJICUG_clean_linker_0, # of connection points: 2
#     Edge 22, Type (0, 0), BuildingBlock: OJICUG_clean_linker_0, # of connection points: 2
#     Edge 23, Type (0, 0), BuildingBlock: OJICUG_clean_linker_0, # of connection points: 2
#     Edge 24, Type (0, 0), BuildingBlock: OJICUG_clean_linker_0, # of connection points: 2
#     Edge 25, Type (0, 0), BuildingBlock: OJICUG_clean_linker_0, # of connection points: 2
#     Edge 26, Type (0, 0), BuildingBlock: OJICUG_clean_linker_0, # of connection points: 2
#     Edge 27, Type (0, 0), BuildingBlock: OJICUG_clean_linker_0, # of connection points: 2
#     Edge 28, Type (0, 0), BuildingBlock: OJICUG_clean_linker_0, # of connection points: 2
#     Edge 29, Type (0, 0), BuildingBlock: OJICUG_clean_linker_0, # of connection points: 2
#     Edge 30, Type (0, 0), BuildingBlock: OJICUG_clean_linker_0, # of connection points: 2
#     Edge 31, Type (0, 0), BuildingBlock: OJICUG_clean_linker_0, # of connection points: 2
#     Edge 32, Type (0, 0), BuildingBlock: OJICUG_clean_linker_0, # of connection points: 2
#     Edge 33, Type (0, 0), BuildingBlock: OJICUG_clean_linker_0, # of connection points: 2
#     Edge 34, Type (0, 0), BuildingBlock: OJICUG_clean_linker_0, # of connection points: 2
#     Edge 35, Type (0, 0), BuildingBlock: OJICUG_clean_linker_0, # of connection points: 2
#     Edge 36, Type (0, 0), BuildingBlock: OJICUG_clean_linker_0, # of connection points: 2
#     Edge 37, Type (0, 0), BuildingBlock: OJICUG_clean_linker_0, # of connection points: 2
#     Edge 38, Type (0, 0), BuildingBlock: OJICUG_clean_linker_0, # of connection points: 2
#     Edge 39, Type (0, 0), BuildingBlock: OJICUG_clean_linker_0, # of connection points: 2
#     Edge 40, Type (0, 0), BuildingBlock: OJICUG_clean_linker_0, # of connection points: 2
#     Edge 41, Type (0, 0), BuildingBlock: OJICUG_clean_linker_0, # of connection points: 2
#     Edge 42, Type (0, 0), BuildingBlock: OJICUG_clean_linker_0, # of connection points: 2
#     Edge 43, Type (0, 0), BuildingBlock: OJICUG_clean_linker_0, # of connection points: 2
#     Edge 44, Type (0, 0), BuildingBlock: OJICUG_clean_linker_0, # of connection points: 2
#     Edge 45, Type (0, 0), BuildingBlock: OJICUG_clean_linker_0, # of connection points: 2
#     Edge 46, Type (0, 0), BuildingBlock: OJICUG_clean_linker_0, # of connection points: 2
#     Edge 47, Type (0, 0), BuildingBlock: OJICUG_clean_linker_0, # of connection points: 2
#     Edge 48, Type (0, 0), BuildingBlock: OJICUG_clean_linker_0, # of connection points: 2
#     Edge 49, Type (0, 0), BuildingBlock: OJICUG_clean_linker_0, # of connection points: 2
#     Edge 50, Type (0, 0), BuildingBlock: OJICUG_clean_linker_0, # of connection points: 2
#     Edge 51, Type (0, 0), BuildingBlock: OJICUG_clean_linker_0, # of connection points: 2
#     Edge 52, Type (0, 0), BuildingBlock: OJICUG_clean_linker_0, # of connection points: 2
#     Edge 53, Type (0, 0), BuildingBlock: OJICUG_clean_linker_0, # of connection points: 2
# Relax obj value: 0.212
# Max RMSD: 0.284
# Mean RMSD: 0.284
data_MOF--net-nia-e--node1-OLANEW_clean_sbu_3--edge1-OJICUG_clean_linker_0
_symmetry_space_group_name_H-M    P1
_symmetry_Int_Tables_number       1
_symmetry_cell_setting            triclinic
loop_
_symmetry_equiv_pos_as_xyz
'x, y, z'
_cell_length_a     37.267672
_cell_length_b     37.327386
_cell_length_c     51.021596
_cell_angle_alpha  90.024688
_cell_angle_beta   90.023414
_cell_angle_gamma 120.04066
loop_
_atom_site_label
_atom_site_type_symbol
_atom_site_fract_x
_atom_site_fract_y
_atom_site_fract_z
_atom_type_partial_charge
C0 C 0.24502 0.38277 0.15429 0.0
C1 C 0.24937 0.35766 0.1729 0.0
C2 C 0.22503 0.31418 0.1698 0.0
C3 C 0.19703 0.29673 0.14855 0.0
C4 C 0.19422 0.32372 0.13076 0.0
N5 N 0.21859 0.36445 0.13451 0.0
C6 C 0.1663 0.31366 0.1079 0.0
C7 C 0.14746 0.34462 0.0716 0.0
C8 C 0.15987 0.33335 0.04856 0.0
C9 C 0.13937 0.32977 0.02494 0.0
C10 C 0.10608 0.33702 0.0242 0.0
C11 C 0.09305 0.3475 0.04714 0.0
C12 C 0.11354 0.35117 0.07079 0.0
Cd13 Cd 0.07485 0.21377 0.09754 0.0
Cd14 Cd 0.06934 0.19004 0.14156 0.0
C15 C 0.27204 0.48777 0.12766 0.0
C16 C 0.26099 0.54573 0.11963 0.0
C17 C 0.30268 0.57008 0.11289 0.0
C18 C 0.33007 0.55486 0.11536 0.0
C19 C 0.31456 0.51313 0.12202 0.0
C20 C 0.24667 0.50566 0.1289 0.0
Co21 Co 0.21097 0.39874 0.11232 0.0
N22 N 0.25122 0.40213 0.08592 0.0
N23 N 0.20238 0.4325 0.09016 0.0
C24 C 0.22441 0.44402 0.06813 0.0
C25 C 0.21739 0.46826 0.05022 0.0
C26 C 0.18682 0.47882 0.05646 0.0
C27 C 0.16395 0.46493 0.08004 0.0
C28 C 0.17273 0.44079 0.09691 0.0
N29 N 0.17021 0.40167 0.13498 0.0
N30 N 0.1681 0.34758 0.09594 0.0
N31 N 0.25473 0.44418 0.13238 0.0
O32 O 0.00289 0.13316 0.14523 0.0
O33 O 0.0071 0.14711 0.10325 0.0
C34 C 0.04387 0.22306 0.04822 0.0
O35 O 0.02613 0.22149 0.06972 0.0
O36 O 0.07801 0.22325 0.04959 0.0
C37 C 0.12278 0.15894 0.11823 0.0
O38 O 0.10554 0.16637 0.09898 0.0
O39 O 0.12071 0.17164 0.14088 0.0
C40 C 0.25258 0.42732 0.06584 0.0
O41 O 0.27822 0.4369 0.04594 0.0
O42 O 0.07541 0.26024 0.13334 0.0
O43 O 0.07553 0.2369 0.17284 0.0
C44 C 0.15379 0.42258 0.12232 0.0
O45 O 0.12296 0.42586 0.13217 0.0
C46 C 0.14904 0.3748 0.1565 0.0
C47 C 0.11231 0.33906 0.15072 0.0
C48 C 0.09466 0.30703 0.1687 0.0
C49 C 0.10784 0.31492 0.19477 0.0
C50 C 0.14504 0.35115 0.20177 0.0
C51 C 0.16584 0.38144 0.18209 0.0
C52 C 0.98699 0.12447 0.12262 0.0
O53 O 0.14728 0.2755 0.09658 0.0
C54 C 0.07681 0.26486 0.15824 0.0
C55 C 0.27637 0.38255 0.08533 0.0
C56 C 0.30552 0.39073 0.10509 0.0
C57 C 0.33425 0.37748 0.10271 0.0
C58 C 0.33534 0.35679 0.08027 0.0
C59 C 0.30777 0.34929 0.05931 0.0
C60 C 0.27747 0.36131 0.06257 0.0
C61 C 0.26585 0.42844 0.1531 0.0
O62 O 0.29362 0.45236 0.17048 0.0
H63 H 0.27043 0.37096 0.18929 0.0
H64 H 0.22761 0.29403 0.18397 0.0
H65 H 0.17791 0.26352 0.14643 0.0
H66 H 0.18509 0.32697 0.04893 0.0
H67 H 0.09016 0.33414 0.00592 0.0
H68 H 0.10254 0.35869 0.08834 0.0
H69 H 0.31444 0.60212 0.10729 0.0
H70 H 0.33519 0.50058 0.12293 0.0
H71 H 0.21603 0.4888 0.13702 0.0
H72 H 0.23448 0.47836 0.03202 0.0
H73 H 0.18074 0.49755 0.043 0.0
H74 H 0.14047 0.47283 0.08483 0.0
H75 H 0.10139 0.33395 0.13066 0.0
H76 H 0.09097 0.29056 0.20889 0.0
H77 H 0.19519 0.40894 0.18623 0.0
H78 H 0.30848 0.40989 0.12156 0.0
H79 H 0.35966 0.34913 0.079 0.0
H80 H 0.25578 0.35598 0.04697 0.0
C81 C 0.8643 0.24644 0.65275 0.0
C82 C 0.89326 0.2516 0.672 0.0
C83 C 0.91445 0.22917 0.66929 0.0
C84 C 0.90645 0.20229 0.64773 0.0
C85 C 0.87726 0.19883 0.62916 0.0
N86 N 0.8589 0.22147 0.63256 0.0
C87 C 0.86155 0.17137 0.606 0.0
C88 C 0.81227 0.15082 0.56903 0.0
C89 C 0.83416 0.16538 0.54547 0.0
C90 C 0.8166 0.1449 0.52193 0.0
C91 C 0.77727 0.1096 0.52186 0.0
C92 C 0.75577 0.09435 0.54539 0.0
C93 C 0.77331 0.11471 0.56895 0.0
Cd94 Cd 0.87192 0.08027 0.60406 0.0
Cd95 Cd 0.89884 0.07067 0.67088 0.0
C96 C 0.78517 0.27075 0.62438 0.0
C97 C 0.71575 0.25879 0.6157 0.0
C98 C 0.73248 0.30097 0.61087 0.0
C99 C 0.77475 0.32881 0.61454 0.0
C100 C 0.80149 0.31364 0.62063 0.0
C101 C 0.7419 0.24433 0.62414 0.0
Co102 Co 0.81773 0.21292 0.60929 0.0
N103 N 0.85486 0.25544 0.58402 0.0
N104 N 0.77596 0.20321 0.58622 0.0
C105 C 0.7864 0.22777 0.56537 0.0
C106 C 0.75531 0.22144 0.54743 0.0
C107 C 0.71442 0.18912 0.55252 0.0
C108 C 0.70545 0.16394 0.57504 0.0
C109 C 0.73817 0.17207 0.59198 0.0
N110 N 0.77388 0.1699 0.63047 0.0
N111 N 0.82971 0.17252 0.59303 0.0
N112 N 0.81231 0.25445 0.62958 0.0
O113 O 0.87749 0.00369 0.65387 0.0
O114 O 0.86135 0.0098 0.61303 0.0
C115 C 0.83891 0.04828 0.55345 0.0
O116 O 0.81439 0.04291 0.57231 0.0
O117 O 0.87746 0.07081 0.55787 0.0
C118 C 0.9713 0.1256 0.6286 0.0
O119 O 0.9469 0.10584 0.60976 0.0
O120 O 0.95686 0.12917 0.65034 0.0
C121 C 0.83103 0.25794 0.56431 0.0
O122 O 0.84697 0.2856 0.54547 0.0
O123 O 0.83727 0.08668 0.64281 0.0
O124 O 0.84362 0.07918 0.68489 0.0
C125 C 0.73712 0.15228 0.61713 0.0
O126 O 0.7031 0.12075 0.62652 0.0
C127 C 0.77957 0.15217 0.65375 0.0
C128 C 0.78763 0.12002 0.65077 0.0
C129 C 0.80148 0.10666 0.6719 0.0
C130 C 0.80089 0.12128 0.69711 0.0
C131 C 0.78995 0.15191 0.70093 0.0
C132 C 0.78039 0.16837 0.67885 0.0
C133 C 0.86465 0.9884 0.6313 0.0
O134 O 0.88084 0.15139 0.59629 0.0
C135 C 0.82592 0.08666 0.66633 0.0
C136 C 0.89977 0.27732 0.58257 0.0
C137 C 0.92379 0.30069 0.60386 0.0
C138 C 0.96689 0.32239 0.60237 0.0
C139 C 0.98688 0.32295 0.57917 0.0
C140 C 0.96393 0.30314 0.5565 0.0
C141 C 0.92025 0.27933 0.55871 0.0
C142 C 0.83831 0.26595 0.65082 0.0
O143 O 0.83972 0.2923 0.66848 0.0
H144 H 0.8993 0.27202 0.68854 0.0
H145 H 0.93681 0.23237 0.68399 0.0
H146 H 0.92202 0.18451 0.64593 0.0
H147 H 0.8647 0.19241 0.54532 0.0
H148 H 0.76367 0.09379 0.50364 0.0
H149 H 0.75649 0.10223 0.58701 0.0
H150 H 0.71184 0.31261 0.60588 0.0
H151 H 0.83446 0.33485 0.62269 0.0
H152 H 0.72836 0.21292 0.63081 0.0
H153 H 0.76224 0.24053 0.53012 0.0
H154 H 0.68973 0.18365 0.53907 0.0
H155 H 0.67415 0.13949 0.57912 0.0
H156 H 0.78731 0.10861 0.6312 0.0
H157 H 0.81206 0.11126 0.71359 0.0
H158 H 0.77407 0.19354 0.68108 0.0
H159 H 0.90964 0.30417 0.62125 0.0
H160 H 0.0204 0.34008 0.57896 0.0
H161 H 0.90196 0.26388 0.54158 0.0
C162 C 0.61551 0.8619 0.15507 0.0
C163 C 0.63932 0.8911 0.1742 0.0
C164 C 0.68301 0.91184 0.17168 0.0
C165 C 0.70192 0.90325 0.1504 0.0
C166 C 0.6762 0.87384 0.13195 0.0
N167 N 0.63518 0.85581 0.13522 0.0
C168 C 0.68786 0.85765 0.10899 0.0
C169 C 0.65936 0.80712 0.07273 0.0
C170 C 0.66725 0.82824 0.04884 0.0
C171 C 0.67117 0.8102 0.02582 0.0
C172 C 0.66771 0.77118 0.0266 0.0
C173 C 0.66086 0.75042 0.05045 0.0
C174 C 0.65685 0.76837 0.07349 0.0
Cd175 Cd 0.78804 0.86663 0.10425 0.0
Cd176 Cd 0.82369 0.90926 0.16756 0.0
C177 C 0.51238 0.78329 0.12621 0.0
C178 C 0.45544 0.71411 0.11687 0.0
C179 C 0.43057 0.73096 0.11032 0.0
C180 C 0.44496 0.77328 0.11354 0.0
C181 C 0.48643 0.79983 0.12081 0.0
C182 C 0.4953 0.74014 0.12655 0.0
Co183 Co 0.6026 0.81443 0.11213 0.0
N184 N 0.59802 0.85133 0.08621 0.0
N185 N 0.57046 0.77236 0.08931 0.0
C186 C 0.55639 0.78248 0.06829 0.0
C187 C 0.53143 0.75114 0.05056 0.0
C188 C 0.52257 0.71033 0.05607 0.0
C189 C 0.53857 0.70166 0.07883 0.0
C190 C 0.56335 0.73462 0.09555 0.0
N191 N 0.60096 0.77079 0.13405 0.0
N192 N 0.6549 0.82544 0.09629 0.0
N193 N 0.55568 0.8101 0.13182 0.0
O194 O 0.87261 0.88886 0.15559 0.0
O195 O 0.85075 0.86358 0.11587 0.0
C196 C 0.78002 0.82193 0.05716 0.0
O197 O 0.78072 0.80715 0.07942 0.0
O198 O 0.78009 0.85599 0.05694 0.0
C199 C 0.83796 0.96797 0.11806 0.0
O200 O 0.83806 0.94107 0.10283 0.0
O201 O 0.816 0.95633 0.13866 0.0
C202 C 0.57114 0.82707 0.0668 0.0
O203 O 0.55933 0.84262 0.04776 0.0
O204 O 0.74647 0.83362 0.14277 0.0
O205 O 0.76235 0.85273 0.18383 0.0
C206 C 0.58168 0.73386 0.12095 0.0
O207 O 0.579 0.69998 0.13067 0.0
C208 C 0.62502 0.77686 0.15714 0.0
C209 C 0.66508 0.78455 0.15374 0.0
C210 C 0.69371 0.80116 0.17409 0.0
C211 C 0.67973 0.80187 0.19945 0.0
C212 C 0.638 0.79 0.20398 0.0
C213 C 0.61079 0.77907 0.18237 0.0
C214 C 0.87598 0.8722 0.13478 0.0
O215 O 0.72685 0.87717 0.09891 0.0
C216 C 0.73741 0.82786 0.167 0.0
C217 C 0.62289 0.89604 0.08348 0.0
C218 C 0.62691 0.92234 0.10428 0.0
C219 C 0.64965 0.96527 0.10132 0.0
C220 C 0.66746 0.98292 0.07725 0.0
C221 C 0.66139 0.95765 0.05542 0.0
C222 C 0.64001 0.9143 0.05887 0.0
C223 C 0.56998 0.83647 0.15285 0.0
O224 O 0.54484 0.83867 0.17001 0.0
H225 H 0.62488 0.89764 0.19048 0.0
H226 H 0.7022 0.93437 0.18629 0.0
H227 H 0.73527 0.91851 0.14876 0.0
H228 H 0.67062 0.85864 0.04805 0.0
H229 H 0.67082 0.75727 0.00879 0.0
H230 H 0.65199 0.75203 0.09178 0.0
H231 H 0.39863 0.71041 0.10448 0.0
H232 H 0.49833 0.83283 0.12244 0.0
H233 H 0.51265 0.72668 0.13438 0.0
H234 H 0.51935 0.75781 0.0331 0.0
H235 H 0.5032 0.68545 0.04278 0.0
H236 H 0.53138 0.67041 0.08328 0.0
H237 H 0.67507 0.78287 0.1341 0.0
H238 H 0.70188 0.81469 0.2154 0.0
H239 H 0.57931 0.77274 0.18503 0.0
H240 H 0.61072 0.91026 0.12239 0.0
H241 H 0.68366 0.01628 0.07538 0.0
H242 H 0.63575 0.89487 0.04207 0.0
C243 C 0.75322 0.61562 0.65494 0.0
C244 C 0.74774 0.63985 0.67367 0.0
C245 C 0.77161 0.68346 0.67117 0.0
C246 C 0.80026 0.70189 0.65036 0.0
C247 C 0.80419 0.67574 0.63241 0.0
N248 N 0.78022 0.63484 0.63559 0.0
C249 C 0.8329 0.68691 0.60992 0.0
C250 C 0.8536 0.65755 0.57356 0.0
C251 C 0.842 0.66987 0.55061 0.0
C252 C 0.86283 0.67376 0.5271 0.0
C253 C 0.89569 0.66587 0.52639 0.0
C254 C 0.90805 0.65452 0.54927 0.0
C255 C 0.8872 0.65051 0.5728 0.0
Cd256 Cd 0.92375 0.7875 0.6013 0.0
Cd257 Cd 0.93326 0.81169 0.64606 0.0
C258 C 0.72823 0.5118 0.62708 0.0
C259 C 0.7398 0.45416 0.61881 0.0
C260 C 0.69829 0.42983 0.6116 0.0
C261 C 0.67067 0.44479 0.61399 0.0
C262 C 0.68585 0.48635 0.621 0.0
C263 C 0.75373 0.49403 0.6284 0.0
Co264 Co 0.78925 0.60165 0.61324 0.0
N265 N 0.74973 0.59845 0.58631 0.0
N266 N 0.79921 0.56894 0.59097 0.0
C267 C 0.77772 0.55749 0.56871 0.0
C268 C 0.78537 0.53354 0.55091 0.0
C269 C 0.81588 0.52308 0.55754 0.0
C270 C 0.83804 0.53673 0.58141 0.0
C271 C 0.82867 0.5606 0.59815 0.0
N272 N 0.8295 0.59867 0.63639 0.0
N273 N 0.8322 0.65363 0.59772 0.0
N274 N 0.74511 0.55521 0.63241 0.0
O275 O 0.0009 0.86691 0.64819 0.0
O276 O 0.99172 0.85433 0.60603 0.0
C277 C 0.9548 0.777 0.55246 0.0
O278 O 0.97181 0.778 0.57418 0.0
O279 O 0.92147 0.77847 0.55336 0.0
C280 C 0.87965 0.84499 0.62409 0.0
O281 O 0.89365 0.83544 0.60401 0.0
O282 O 0.88443 0.83367 0.64659 0.0
C283 C 0.74922 0.57374 0.56616 0.0
O284 O 0.72419 0.56436 0.54593 0.0
O285 O 0.92271 0.74066 0.63663 0.0
O286 O 0.92655 0.76353 0.67677 0.0
C287 C 0.84653 0.57819 0.6239 0.0
O288 O 0.8772 0.57498 0.63412 0.0
C289 C 0.85015 0.62541 0.6581 0.0
C290 C 0.88677 0.66142 0.65261 0.0
C291 C 0.90464 0.69277 0.67106 0.0
C292 C 0.89169 0.68397 0.69709 0.0
C293 C 0.85428 0.64775 0.70373 0.0
C294 C 0.8333 0.61808 0.6837 0.0
C295 C 0.01416 0.8763 0.62501 0.0
O296 O 0.85164 0.72539 0.59906 0.0
C297 C 0.92293 0.73538 0.66136 0.0
C298 C 0.72496 0.61842 0.58522 0.0
C299 C 0.69541 0.61058 0.60462 0.0
C300 C 0.66714 0.62434 0.60172 0.0
C301 C 0.667 0.64526 0.57915 0.0
C302 C 0.69512 0.65256 0.55858 0.0
C303 C 0.72484 0.63991 0.56234 0.0
C304 C 0.73289 0.57003 0.6531 0.0
O305 O 0.70461 0.54534 0.66995 0.0
H306 H 0.72613 0.6258 0.68971 0.0
H307 H 0.76815 0.70295 0.68546 0.0
H308 H 0.81901 0.7352 0.6487 0.0
H309 H 0.81716 0.67679 0.55097 0.0
H310 H 0.91186 0.66898 0.50819 0.0
H311 H 0.89768 0.6423 0.59031 0.0
H312 H 0.68677 0.39791 0.60579 0.0
H313 H 0.66503 0.49868 0.62192 0.0
H314 H 0.78412 0.51078 0.63691 0.0
H315 H 0.76873 0.52351 0.53253 0.0
H316 H 0.82242 0.50455 0.54419 0.0
H317 H 0.86139 0.52879 0.58653 0.0
H318 H 0.89773 0.66716 0.63257 0.0
H319 H 0.90894 0.7077 0.71152 0.0
H320 H 0.80392 0.5905 0.6876 0.0
H321 H 0.69185 0.59136 0.62118 0.0
H322 H 0.64301 0.65333 0.5775 0.0
H323 H 0.74688 0.64499 0.54705 0.0
C324 C 0.13916 0.75476 0.1553 0.0
C325 C 0.11103 0.7501 0.17501 0.0
C326 C 0.09095 0.7737 0.17314 0.0
C327 C 0.09911 0.80113 0.1519 0.0
C328 C 0.1274 0.80403 0.13284 0.0
N329 N 0.14478 0.78037 0.13548 0.0
C330 C 0.14261 0.83139 0.10965 0.0
C331 C 0.18892 0.85014 0.07141 0.0
C332 C 0.16326 0.83718 0.0492 0.0
C333 C 0.17766 0.85809 0.02542 0.0
C334 C 0.21763 0.89225 0.02371 0.0
C335 C 0.24305 0.90581 0.04587 0.0
C336 C 0.22872 0.88494 0.06969 0.0
Cd337 Cd 0.13214 0.92272 0.10359 0.0
Cd338 Cd 0.12462 0.93946 0.14983 0.0
C339 C 0.21616 0.72888 0.1254 0.0
C340 C 0.28536 0.74062 0.11634 0.0
C341 C 0.26834 0.69859 0.11083 0.0
C342 C 0.22604 0.67084 0.11452 0.0
C343 C 0.19954 0.6861 0.12109 0.0
C344 C 0.25946 0.75498 0.1254 0.0
Co345 Co 0.18474 0.788 0.11149 0.0
N346 N 0.14604 0.74628 0.08625 0.0
N347 N 0.22539 0.7968 0.08775 0.0
C348 C 0.21377 0.77218 0.06687 0.0
C349 C 0.24403 0.77753 0.04856 0.0
C350 C 0.28545 0.80897 0.05333 0.0
C351 C 0.29573 0.8342 0.07593 0.0
C352 C 0.26376 0.82703 0.09327 0.0
N353 N 0.23007 0.82992 0.13259 0.0
N354 N 0.17359 0.82958 0.09603 0.0
N355 N 0.18933 0.74538 0.13101 0.0
O356 O 0.14492 0.00946 0.14909 0.0
O357 O 0.14008 0.99441 0.10723 0.0
C358 C 0.16251 0.94485 0.05143 0.0
O359 O 0.18676 0.96008 0.07093 0.0
O360 O 0.12526 0.91751 0.05633 0.0
C361 C 0.03435 0.88568 0.131 0.0
O362 O 0.05548 0.89356 0.10996 0.0
O363 O 0.0528 0.89617 0.15288 0.0
C364 C 0.16893 0.74292 0.06624 0.0
O365 O 0.15196 0.71512 0.04753 0.0
O366 O 0.17555 0.91776 0.13872 0.0
O367 O 0.16371 0.92693 0.17972 0.0
C368 C 0.26625 0.8469 0.11863 0.0
O369 O 0.30097 0.87805 0.1276 0.0
C370 C 0.22567 0.84941 0.15546 0.0
C371 C 0.22211 0.88407 0.15156 0.0
C372 C 0.20672 0.8983 0.17129 0.0
C373 C 0.20316 0.88299 0.19677 0.0
C374 C 0.2115 0.85081 0.20204 0.0
C375 C 0.22117 0.83269 0.18085 0.0
C376 C 0.14572 0.02007 0.12549 0.0
O377 O 0.12247 0.85059 0.1 0.0
C378 C 0.18363 0.91859 0.16311 0.0
C379 C 0.10112 0.72575 0.08494 0.0
C380 C 0.07686 0.70317 0.10634 0.0
C381 C 0.03376 0.68229 0.10486 0.0
C382 C 0.01393 0.68163 0.08157 0.0
C383 C 0.037 0.70056 0.0588 0.0
C384 C 0.08071 0.72386 0.06103 0.0
C385 C 0.16395 0.73409 0.15252 0.0
O386 O 0.16242 0.70728 0.16983 0.0
H387 H 0.10482 0.72919 0.19127 0.0
H388 H 0.06928 0.77091 0.18821 0.0
H389 H 0.08429 0.8197 0.15069 0.0
H390 H 0.13202 0.81132 0.05038 0.0
H391 H 0.22872 0.90849 1.00532 0.0
H392 H 0.24848 0.89643 0.08674 0.0
H393 H 0.28881 0.6869 0.1055 0.0
H394 H 0.16655 0.66501 0.12315 0.0
H395 H 0.27322 0.78605 0.13274 0.0
H396 H 0.23611 0.75833 0.03121 0.0
H397 H 0.30953 0.81367 0.03959 0.0
H398 H 0.32744 0.8579 0.07981 0.0
H399 H 0.2257 0.89601 0.13179 0.0
H400 H 0.19084 0.89386 0.21212 0.0
H401 H 0.2249 0.80604 0.18394 0.0
H402 H 0.0907 0.69949 0.1238 0.0
H403 H 0.9804 0.66501 0.08133 0.0
H404 H 0.09908 0.73891 0.04385 0.0
C405 C 0.38583 0.13563 0.65267 0.0
C406 C 0.3624 0.10504 0.67111 0.0
C407 C 0.31869 0.08367 0.66851 0.0
C408 C 0.29942 0.09296 0.64776 0.0
C409 C 0.3248 0.12364 0.62989 0.0
N410 N 0.36586 0.14221 0.63322 0.0
C411 C 0.31277 0.14049 0.60741 0.0
C412 C 0.34084 0.19263 0.57208 0.0
C413 C 0.3348 0.17327 0.54765 0.0
C414 C 0.33122 0.19237 0.52504 0.0
C415 C 0.33319 0.23066 0.52677 0.0
C416 C 0.33823 0.24965 0.55114 0.0
C417 C 0.3419 0.23065 0.57376 0.0
Cd418 Cd 0.21293 0.13199 0.60195 0.0
Cd419 Cd 0.17417 0.08427 0.66616 0.0
C420 C 0.48856 0.216 0.62426 0.0
C421 C 0.54537 0.28522 0.61476 0.0
C422 C 0.57035 0.26844 0.60834 0.0
C423 C 0.55612 0.22618 0.61171 0.0
C424 C 0.51467 0.19959 0.61898 0.0
C425 C 0.50551 0.25915 0.62442 0.0
Co426 Co 0.39797 0.18468 0.61077 0.0
N427 N 0.40319 0.14917 0.58401 0.0
N428 N 0.42953 0.22779 0.58855 0.0
C429 C 0.44333 0.21874 0.56694 0.0
C430 C 0.46729 0.25082 0.54944 0.0
C431 C 0.47539 0.29115 0.55573 0.0
C432 C 0.4595 0.29861 0.579 0.0
C433 C 0.43571 0.26497 0.59546 0.0
N434 N 0.39868 0.227 0.63365 0.0
N435 N 0.34549 0.17351 0.59518 0.0
N436 N 0.44531 0.1891 0.63006 0.0
O437 O 0.12613 0.1059 0.65328 0.0
O438 O 0.14979 0.13378 0.61429 0.0
C439 C 0.22187 0.17822 0.55538 0.0
O440 O 0.22052 0.19232 0.57778 0.0
O441 O 0.22213 0.14434 0.55488 0.0
C442 C 0.16373 0.03216 0.61433 0.0
O443 O 0.1624 0.05822 0.59899 0.0
O444 O 0.18814 0.04527 0.63379 0.0
C445 C 0.42923 0.17434 0.5646 0.0
O446 O 0.44098 0.15982 0.54493 0.0
O447 O 0.25279 0.16179 0.64178 0.0
O448 O 0.23575 0.14145 0.68259 0.0
C449 C 0.41736 0.26442 0.62113 0.0
O450 O 0.41923 0.29757 0.63148 0.0
C451 C 0.37435 0.2195 0.65683 0.0
C452 C 0.33403 0.21131 0.65366 0.0
C453 C 0.30507 0.19268 0.6737 0.0
C454 C 0.31878 0.1896 0.69875 0.0
C455 C 0.36052 0.20151 0.70309 0.0
C456 C 0.38833 0.21546 0.68176 0.0
C457 C 0.12365 0.1238 0.63279 0.0
O458 O 0.27387 0.12094 0.59718 0.0
C459 C 0.26136 0.1666 0.66613 0.0
C460 C 0.37992 0.10438 0.58119 0.0
C461 C 0.37824 0.07858 0.60167 0.0
C462 C 0.3568 0.03563 0.59876 0.0
C463 C 0.3381 0.0175 0.57497 0.0
C464 C 0.34213 0.04237 0.55331 0.0
C465 C 0.36218 0.08571 0.55675 0.0
C466 C 0.43133 0.16182 0.65061 0.0
O467 O 0.45671 0.15915 0.66736 0.0
H468 H 0.37713 0.09798 0.68698 0.0
H469 H 0.29977 0.06013 0.68265 0.0
H470 H 0.26607 0.07717 0.64608 0.0
H471 H 0.33278 0.1435 0.54611 0.0
H472 H 0.33035 0.24539 0.50927 0.0
H473 H 0.34557 0.2457 0.59245 0.0
H474 H 0.60229 0.28903 0.60256 0.0
H475 H 0.50293 0.16664 0.62074 0.0
H476 H 0.48812 0.2726 0.6322 0.0
H477 H 0.47913 0.24505 0.53153 0.0
H478 H 0.49396 0.31658 0.54261 0.0
H479 H 0.46595 0.32947 0.58397 0.0
H480 H 0.32416 0.21431 0.63424 0.0
H481 H 0.29653 0.17502 0.71448 0.0
H482 H 0.41978 0.22163 0.68426 0.0
H483 H 0.39539 0.09117 0.61943 0.0
H484 H 0.32296 0.98418 0.57306 0.0
H485 H 0.36494 0.1048 0.54007 0.0
C486 C 0.61452 0.75027 0.36133 0.0
C487 C 0.63739 0.74175 0.34319 0.0
C488 C 0.68117 0.76414 0.34525 0.0
C489 C 0.70109 0.79419 0.36515 0.0
C490 C 0.67622 0.80083 0.38273 0.0
N491 N 0.63503 0.77823 0.37997 0.0
C492 C 0.68911 0.83118 0.40437 0.0
C493 C 0.66243 0.85675 0.43964 0.0
C494 C 0.67164 0.84535 0.4638 0.0
C495 C 0.67672 0.86898 0.4862 0.0
C496 C 0.67298 0.90432 0.48454 0.0
C497 C 0.66476 0.91639 0.46041 0.0
C498 C 0.65972 0.89283 0.43798 0.0
Cd499 Cd 0.79057 0.92254 0.40668 0.0
Cd500 Cd 0.82708 0.91828 0.34278 0.0
C501 C 0.51219 0.72895 0.38996 0.0
C502 C 0.45446 0.74007 0.3993 0.0
C503 C 0.42931 0.69784 0.40419 0.0
C504 C 0.44389 0.67028 0.4 0.0
C505 C 0.48586 0.68595 0.39369 0.0
C506 C 0.49492 0.75487 0.39045 0.0
Co507 Co 0.60354 0.78986 0.40226 0.0
N508 N 0.59973 0.75108 0.42979 0.0
N509 N 0.5728 0.80262 0.42452 0.0
C510 C 0.56164 0.7824 0.44721 0.0
C511 C 0.53956 0.79241 0.46512 0.0
C512 C 0.53075 0.82394 0.45818 0.0
C513 C 0.54439 0.84494 0.43396 0.0
C514 C 0.56641 0.83329 0.41715 0.0
N515 N 0.60154 0.82996 0.37866 0.0
N516 N 0.65681 0.83225 0.41672 0.0
N517 N 0.55551 0.74568 0.38392 0.0
O518 O 0.87403 0.98815 0.35631 0.0
O519 O 0.84952 0.99171 0.39512 0.0
C520 C 0.78923 0.95384 0.45745 0.0
O521 O 0.77444 0.96354 0.438 0.0
O522 O 0.80083 0.92763 0.45334 0.0
C523 C 0.84752 0.87652 0.38918 0.0
O524 O 0.84391 0.90225 0.40364 0.0
O525 O 0.826 0.8633 0.36851 0.0
C526 C 0.57636 0.7527 0.45011 0.0
O527 O 0.56702 0.72869 0.47082 0.0
O528 O 0.74654 0.91176 0.36873 0.0
O529 O 0.76291 0.90835 0.32773 0.0
C530 C 0.58331 0.84935 0.39095 0.0
O531 O 0.581 0.88006 0.38006 0.0
C532 C 0.62505 0.84577 0.35516 0.0
C533 C 0.66505 0.87867 0.35762 0.0
C534 C 0.69342 0.88862 0.33729 0.0
C535 C 0.67916 0.87049 0.31256 0.0
C536 C 0.63749 0.8398 0.30896 0.0
C537 C 0.6105 0.82643 0.33067 0.0
C538 C 0.87561 0.00852 0.37664 0.0
O539 O 0.72855 0.8512 0.4139 0.0
C540 C 0.7374 0.9074 0.34444 0.0
C541 C 0.61777 0.72461 0.43097 0.0
C542 C 0.60695 0.69335 0.41233 0.0
C543 C 0.61888 0.66375 0.41548 0.0
C544 C 0.64085 0.66397 0.43764 0.0
C545 C 0.65106 0.69381 0.45752 0.0
C546 C 0.6403 0.72483 0.45342 0.0
C547 C 0.56912 0.73176 0.36345 0.0
O548 O 0.54345 0.7033 0.34701 0.0
H549 H 0.62217 0.71893 0.3279 0.0
H550 H 0.69963 0.75844 0.33132 0.0
H551 H 0.73455 0.8118 0.36647 0.0
H552 H 0.67499 0.81834 0.46528 0.0
H553 H 0.67688 0.92257 0.50189 0.0
H554 H 0.6539 0.90293 0.41944 0.0
H555 H 0.39696 0.68587 0.4092 0.0
H556 H 0.49772 0.66493 0.39124 0.0
H557 H 0.51211 0.78602 0.3833 0.0
H558 H 0.52976 0.77682 0.48383 0.0
H559 H 0.51364 0.83225 0.4716 0.0
H560 H 0.53782 0.86913 0.42863 0.0
H561 H 0.67528 0.89257 0.37679 0.0
H562 H 0.70095 0.87774 0.2966 0.0
H563 H 0.57921 0.80059 0.32878 0.0
H564 H 0.58681 0.68962 0.39624 0.0
H565 H 0.64742 0.639 0.4396 0.0
H566 H 0.64771 0.74827 0.46816 0.0
C567 C 0.86225 0.61562 0.85535 0.0
C568 C 0.89041 0.63979 0.83584 0.0
C569 C 0.90981 0.68339 0.83811 0.0
C570 C 0.90084 0.70191 0.85945 0.0
C571 C 0.8723 0.67585 0.87817 0.0
N572 N 0.85559 0.63493 0.87517 0.0
C573 C 0.85625 0.68712 0.9014 0.0
C574 C 0.80907 0.65781 0.93921 0.0
C575 C 0.83504 0.67214 0.96126 0.0
C576 C 0.81979 0.6767 0.98529 0.0
C577 C 0.77867 0.66746 0.98739 0.0
C578 C 0.75293 0.65415 0.96539 0.0
C579 C 0.76807 0.64948 0.94135 0.0
Cd580 Cd 0.86734 0.78901 0.91088 0.0
Cd581 Cd 0.88513 0.80957 0.86679 0.0
C582 C 0.78429 0.51167 0.88359 0.0
C583 C 0.71431 0.45375 0.89014 0.0
C584 C 0.73097 0.42915 0.89758 0.0
C585 C 0.77367 0.44411 0.89633 0.0
C586 C 0.80065 0.48587 0.88996 0.0
C587 C 0.74099 0.49411 0.88143 0.0
Co588 Co 0.81495 0.60168 0.89843 0.0
N589 N 0.85302 0.59841 0.92407 0.0
N590 N 0.77359 0.56862 0.92141 0.0
C591 C 0.78464 0.55471 0.94209 0.0
C592 C 0.75375 0.52825 0.95958 0.0
C593 C 0.71231 0.51754 0.95413 0.0
C594 C 0.70258 0.533 0.93156 0.0
C595 C 0.73516 0.55929 0.91504 0.0
N596 N 0.77025 0.59848 0.87667 0.0
N597 N 0.82494 0.65374 0.91444 0.0
N598 N 0.81152 0.55518 0.87866 0.0
O599 O 0.87279 0.86459 0.86144 0.0
O600 O 0.86205 0.85309 0.90356 0.0
C601 C 0.82711 0.78021 0.96009 0.0
O602 O 0.81075 0.78057 0.9384 0.0
O603 O 0.86193 0.78171 0.95911 0.0
C604 C 0.97068 0.84769 0.88816 0.0
O605 O 0.94597 0.84039 0.90745 0.0
O606 O 0.95574 0.83156 0.8661 0.0
C607 C 0.82953 0.57082 0.94336 0.0
O608 O 0.84606 0.55959 0.96211 0.0
O609 O 0.81834 0.74108 0.87681 0.0
O610 O 0.84305 0.76045 0.83706 0.0
C611 C 0.73338 0.57742 0.88984 0.0
O612 O 0.69872 0.57354 0.88049 0.0
C613 C 0.77497 0.62493 0.8551 0.0
C614 C 0.77487 0.66105 0.86102 0.0
C615 C 0.78804 0.69238 0.8426 0.0
C616 C 0.7904 0.68325 0.81637 0.0
C617 C 0.79155 0.64721 0.80932 0.0
C618 C 0.78352 0.61758 0.82923 0.0
C619 C 0.86407 0.874 0.88336 0.0
O620 O 0.87642 0.72595 0.91187 0.0
C621 C 0.81499 0.73475 0.85208 0.0
C622 C 0.8976 0.62467 0.92696 0.0
C623 C 0.92451 0.62984 0.90628 0.0
C624 C 0.96741 0.65311 0.90964 0.0
C625 C 0.98441 0.67044 0.93395 0.0
C626 C 0.95855 0.6636 0.95561 0.0
C627 C 0.91522 0.64169 0.95173 0.0
C628 C 0.83788 0.57004 0.85766 0.0
O629 O 0.84051 0.54536 0.84035 0.0
H630 H 0.89705 0.62567 0.81942 0.0
H631 H 0.93156 0.70282 0.82324 0.0
H632 H 0.91516 0.73521 0.86096 0.0
H633 H 0.86713 0.68024 0.95981 0.0
H634 H 0.76692 0.67109 0.00598 0.0
H635 H 0.7479 0.64002 0.92448 0.0
H636 H 0.71013 0.39706 0.90287 0.0
H637 H 0.83385 0.49812 0.8898 0.0
H638 H 0.72793 0.51142 0.87299 0.0
H639 H 0.76122 0.5163 0.97678 0.0
H640 H 0.68776 0.49701 0.96724 0.0
H641 H 0.67083 0.52422 0.92706 0.0
H642 H 0.77096 0.66703 0.88128 0.0
H643 H 0.79615 0.70695 0.80212 0.0
H644 H 0.78525 0.59007 0.82506 0.0
H645 H 0.91296 0.61414 0.88793 0.0
H646 H 0.0178 0.68704 0.93608 0.0
H647 H 0.89518 0.63691 0.9683 0.0
C648 C 0.24854 0.86235 0.35651 0.0
C649 C 0.2565 0.89369 0.3385 0.0
C650 C 0.23453 0.91533 0.34132 0.0
C651 C 0.20555 0.90557 0.36186 0.0
C652 C 0.19965 0.87432 0.3794 0.0
N653 N 0.2218 0.85551 0.37587 0.0
C654 C 0.17094 0.85757 0.40197 0.0
C655 C 0.14786 0.80622 0.43774 0.0
C656 C 0.16215 0.82651 0.46184 0.0
C657 C 0.14056 0.80802 0.48488 0.0
C658 C 0.10438 0.76941 0.48394 0.0
C659 C 0.0895 0.74947 0.45991 0.0
C660 C 0.11108 0.76785 0.43684 0.0
Cd661 Cd 0.07949 0.8653 0.40857 0.0
Cd662 Cd 0.09541 0.91795 0.34941 0.0
C663 C 0.2703 0.78177 0.38484 0.0
C664 C 0.25735 0.71223 0.39344 0.0
C665 C 0.29867 0.72887 0.40108 0.0
C666 C 0.32679 0.77137 0.39893 0.0
C667 C 0.31238 0.79813 0.39141 0.0
C668 C 0.24408 0.73864 0.38374 0.0
Co669 Co 0.21174 0.81333 0.39848 0.0
N670 N 0.25287 0.84928 0.42498 0.0
N671 N 0.20061 0.77058 0.42091 0.0
C672 C 0.22329 0.78015 0.44266 0.0
C673 C 0.21532 0.74838 0.46038 0.0
C674 C 0.18335 0.70782 0.45418 0.0
C675 C 0.16006 0.69983 0.43083 0.0
C676 C 0.16974 0.73318 0.41414 0.0
N677 N 0.16976 0.77057 0.37589 0.0
N678 N 0.17064 0.82459 0.4142 0.0
N679 N 0.25429 0.8088 0.37903 0.0
O680 O 0.02822 0.90648 0.36174 0.0
O681 O 0.01585 0.86576 0.39609 0.0
C682 C 0.04254 0.81875 0.45509 0.0
O683 O 0.02632 0.80533 0.43276 0.0
O684 O 0.07723 0.8521 0.45551 0.0
C685 C 0.13439 0.96711 0.40059 0.0
O686 O 0.10361 0.93944 0.4132 0.0
O687 O 0.14852 0.95609 0.38159 0.0
C688 C 0.2534 0.82467 0.44484 0.0
O689 O 0.27957 0.8397 0.46457 0.0
O690 O 0.0881 0.83286 0.36993 0.0
O691 O 0.09654 0.85999 0.33061 0.0
C692 C 0.15146 0.73327 0.38856 0.0
O693 O 0.12015 0.69984 0.3784 0.0
C694 C 0.15248 0.77763 0.35276 0.0
C695 C 0.11967 0.7847 0.35603 0.0
C696 C 0.11012 0.80497 0.33662 0.0
C697 C 0.12792 0.81003 0.31167 0.0
C698 C 0.15787 0.79836 0.307 0.0
C699 C 0.17119 0.78326 0.32797 0.0
C700 C 0.00426 0.88362 0.37977 0.0
O701 O 0.15197 0.87733 0.41236 0.0
C702 C 0.09347 0.83139 0.34543 0.0
C703 C 0.27702 0.89415 0.42633 0.0
C704 C 0.30281 0.91687 0.4055 0.0
C705 C 0.3263 0.95982 0.40659 0.0
C706 C 0.32661 0.98094 0.42915 0.0
C707 C 0.30508 0.95921 0.45177 0.0
C708 C 0.27903 0.91568 0.44977 0.0
C709 C 0.26747 0.83586 0.35838 0.0
O710 O 0.29563 0.83862 0.34171 0.0
H711 H 0.27863 0.90112 0.32279 0.0
H712 H 0.23973 0.93942 0.32748 0.0
H713 H 0.18828 0.92158 0.36368 0.0
H714 H 0.18991 0.85647 0.46278 0.0
H715 H 0.08766 0.75515 0.50178 0.0
H716 H 0.09905 0.75207 0.41841 0.0
H717 H 0.30971 0.70813 0.40701 0.0
H718 H 0.33358 0.8312 0.39053 0.0
H719 H 0.21356 0.72553 0.37537 0.0
H720 H 0.23287 0.75456 0.47836 0.0
H721 H 0.17662 0.68263 0.46747 0.0
H722 H 0.13573 0.66883 0.42599 0.0
H723 H 0.10629 0.78029 0.37541 0.0
H724 H 0.12109 0.82604 0.29647 0.0
H725 H 0.1969 0.7778 0.32539 0.0
H726 H 0.30687 0.90175 0.38886 0.0
H727 H 0.34516 0.01434 0.42899 0.0
H728 H 0.26185 0.89824 0.46674 0.0
C729 C 0.37911 0.24937 0.86352 0.0
C730 C 0.35405 0.25732 0.84688 0.0
C731 C 0.31099 0.23723 0.85224 0.0
C732 C 0.29388 0.20977 0.87374 0.0
C733 C 0.32083 0.20342 0.88957 0.0
N734 N 0.36123 0.22381 0.88369 0.0
C735 C 0.31081 0.17417 0.91165 0.0
C736 C 0.34137 0.14562 0.94245 0.0
C737 C 0.34621 0.15962 0.9684 0.0
C738 C 0.34645 0.1349 0.98888 0.0
C739 C 0.3416 0.096 0.98354 0.0
C740 C 0.33593 0.08155 0.95776 0.0
C741 C 0.3356 0.10618 0.93726 0.0
Cd742 Cd 0.20896 0.0871 0.91212 0.0
Cd743 Cd 0.15728 0.0796 0.83625 0.0
C744 C 0.48417 0.26823 0.88524 0.0
C745 C 0.54194 0.25636 0.89277 0.0
C746 C 0.56821 0.29882 0.89618 0.0
C747 C 0.55383 0.32664 0.89267 0.0
C748 C 0.51144 0.31134 0.88793 0.0
C749 C 0.50065 0.24155 0.88562 0.0
Co750 Co 0.39474 0.21102 0.90307 0.0
N751 N 0.40607 0.25252 0.9302 0.0
N752 N 0.42744 0.19727 0.92257 0.0
C753 C 0.44323 0.21859 0.94461 0.0
C754 C 0.466 0.20714 0.96093 0.0
C755 C 0.47048 0.17313 0.9532 0.0
C756 C 0.45193 0.1511 0.92983 0.0
C757 C 0.42944 0.16422 0.91462 0.0
N758 N 0.38874 0.16763 0.87928 0.0
N759 N 0.34411 0.17209 0.92131 0.0
N760 N 0.44027 0.25186 0.88143 0.0
O761 O 0.12 0.01014 0.85217 0.0
O762 O 0.14875 0.02259 0.89186 0.0
C763 C 0.20199 0.03674 0.95582 0.0
O764 O 0.23493 0.05247 0.94207 0.0
O765 O 0.17462 0.0459 0.94963 0.0
C766 C 0.15797 0.12296 0.89595 0.0
O767 O 0.17159 0.12564 0.91898 0.0
O768 O 0.17156 0.10816 0.87897 0.0
C769 C 0.43155 0.25048 0.94884 0.0
O770 O 0.4444 0.2751 0.96937 0.0
O771 O 0.2355 0.09375 0.86669 0.0
O772 O 0.2244 0.09097 0.82426 0.0
C773 C 0.40741 0.14728 0.88964 0.0
O774 O 0.40581 0.11501 0.8781 0.0
C775 C 0.36309 0.15371 0.85642 0.0
C776 C 0.3208 0.12656 0.85962 0.0
C777 C 0.29366 0.11608 0.83844 0.0
C778 C 0.30989 0.12948 0.81325 0.0
C779 C 0.35269 0.15538 0.80937 0.0
C780 C 0.37936 0.16841 0.83125 0.0
C781 C 0.12207 0.99803 0.87517 0.0
O782 O 0.27287 0.15414 0.92305 0.0
C783 C 0.24881 0.09705 0.84329 0.0
C784 C 0.39012 0.28057 0.93241 0.0
C785 C 0.4016 0.31221 0.91401 0.0
C786 C 0.39066 0.34246 0.91755 0.0
C787 C 0.36874 0.34218 0.93974 0.0
C788 C 0.35743 0.31153 0.9592 0.0
C789 C 0.36778 0.28023 0.95492 0.0
C790 C 0.42427 0.26552 0.86219 0.0
O791 O 0.44776 0.29229 0.84424 0.0
H792 H 0.36702 0.27792 0.83028 0.0
H793 H 0.29083 0.24256 0.83957 0.0
H794 H 0.26085 0.19361 0.87745 0.0
H795 H 0.35035 0.18975 0.97278 0.0
H796 H 0.34183 0.07691 0.9994 0.0
H797 H 0.33143 0.09466 0.9174 0.0
H798 H 0.60078 0.31052 0.90041 0.0
H799 H 0.49981 0.33265 0.88625 0.0
H800 H 0.48193 0.20965 0.88004 0.0
H801 H 0.47939 0.22339 0.97908 0.0
H802 H 0.48798 0.16364 0.96541 0.0
H803 H 0.45507 0.12493 0.92399 0.0
H804 H 0.30885 0.1155 0.87905 0.0
H805 H 0.28907 0.12153 0.79664 0.0
H806 H 0.41224 0.18966 0.8288 0.0
H807 H 0.42101 0.31513 0.89759 0.0
H808 H 0.36272 0.36748 0.942 0.0
H809 H 0.35953 0.2561 0.96928 0.0
C810 C 0.13793 0.38118 0.35355 0.0
C811 C 0.10944 0.3564 0.33434 0.0
C812 C 0.09014 0.31287 0.33709 0.0
C813 C 0.09953 0.29504 0.35863 0.0
C814 C 0.12836 0.3217 0.37705 0.0
N815 N 0.14495 0.3625 0.37358 0.0
C816 C 0.14499 0.31121 0.40033 0.0
C817 C 0.19309 0.34158 0.43761 0.0
C818 C 0.16798 0.32897 0.46005 0.0
C819 C 0.18379 0.32504 0.48403 0.0
C820 C 0.2246 0.3332 0.4857 0.0
C821 C 0.24947 0.34479 0.46332 0.0
C822 C 0.23375 0.34881 0.43932 0.0
Cd823 Cd 0.13548 0.2107 0.40898 0.0
Cd824 Cd 0.12675 0.18555 0.36408 0.0
C825 C 0.21515 0.48596 0.38125 0.0
C826 C 0.28401 0.54423 0.39016 0.0
C827 C 0.26633 0.56849 0.39611 0.0
C828 C 0.22377 0.55311 0.39293 0.0
C829 C 0.19779 0.51132 0.38621 0.0
C830 C 0.25859 0.504 0.38085 0.0
Co831 Co 0.18603 0.39645 0.39644 0.0
N832 N 0.14841 0.40027 0.42219 0.0
N833 N 0.22779 0.43 0.41907 0.0
C834 C 0.21705 0.44372 0.44 0.0
C835 C 0.24807 0.46927 0.45774 0.0
C836 C 0.28928 0.47913 0.45235 0.0
C837 C 0.29866 0.46371 0.42961 0.0
C838 C 0.26596 0.43834 0.41285 0.0
N839 N 0.23034 0.39919 0.37451 0.0
N840 N 0.1766 0.34495 0.4129 0.0
N841 N 0.18887 0.44231 0.37627 0.0
O842 O 0.14413 0.13393 0.36525 0.0
O843 O 0.13592 0.14302 0.4068 0.0
C844 C 0.17635 0.2212 0.45812 0.0
O845 O 0.19277 0.22067 0.43646 0.0
O846 O 0.1414 0.21947 0.45704 0.0
C847 C 0.03643 0.15075 0.38254 0.0
O848 O 0.0576 0.16319 0.40369 0.0
O849 O 0.05509 0.15916 0.36071 0.0
C850 C 0.17223 0.42784 0.44143 0.0
O851 O 0.15606 0.43941 0.46023 0.0
O852 O 0.18204 0.25772 0.37401 0.0
O853 O 0.16878 0.23421 0.33364 0.0
C854 C 0.26732 0.41997 0.38764 0.0
O855 O 0.30177 0.42343 0.37824 0.0
C856 C 0.22529 0.3727 0.35286 0.0
C857 C 0.2263 0.33703 0.35855 0.0
C858 C 0.2139 0.30589 0.34002 0.0
C859 C 0.2102 0.31461 0.3139 0.0
C860 C 0.20835 0.35036 0.30705 0.0
C861 C 0.21624 0.37986 0.32708 0.0
C862 C 0.14198 0.1229 0.38885 0.0
O863 O 0.12527 0.27273 0.41125 0.0
C864 C 0.19027 0.26314 0.34954 0.0
C865 C 0.10374 0.37472 0.42501 0.0
C866 C 0.07705 0.36996 0.40426 0.0
C867 C 0.03411 0.34734 0.40754 0.0
C868 C 0.01688 0.33036 0.43186 0.0
C869 C 0.04258 0.33698 0.45358 0.0
C870 C 0.0859 0.35811 0.44978 0.0
C871 C 0.16221 0.42682 0.3554 0.0
O872 O 0.15905 0.45095 0.33792 0.0
H873 H 0.10248 0.36999 0.31777 0.0
H874 H 0.06816 0.29298 0.32245 0.0
H875 H 0.08531 0.26179 0.3605 0.0
H876 H 0.13611 0.3217 0.45892 0.0
H877 H 0.23679 0.33006 0.50426 0.0
H878 H 0.25323 0.35699 0.42217 0.0
H879 H 0.28634 0.60055 0.40185 0.0
H880 H 0.16461 0.4987 0.38475 0.0
H881 H 0.27276 0.48716 0.37336 0.0
H882 H 0.24084 0.48098 0.47516 0.0
H883 H 0.31391 0.49888 0.46569 0.0
H884 H 0.33021 0.4717 0.42523 0.0
H885 H 0.23103 0.3313 0.37872 0.0
H886 H 0.20474 0.29114 0.29952 0.0
H887 H 0.21416 0.4072 0.32304 0.0
H888 H 0.08882 0.38555 0.38594 0.0
H889 H 0.9835 0.3143 0.43395 0.0
H890 H 0.10574 0.36271 0.46644 0.0
C891 C 0.74963 0.13632 0.85723 0.0
C892 C 0.74169 0.10557 0.83872 0.0
C893 C 0.76495 0.08507 0.84028 0.0
C894 C 0.79517 0.09532 0.86011 0.0
C895 C 0.80097 0.12591 0.8782 0.0
N896 N 0.77748 0.14356 0.87594 0.0
C897 C 0.83104 0.14315 0.90005 0.0
C898 C 0.85428 0.19331 0.93651 0.0
C899 C 0.84083 0.17259 0.96052 0.0
C900 C 0.86329 0.1906 0.98341 0.0
C901 C 0.89951 0.22916 0.98238 0.0
C902 C 0.91351 0.24957 0.95842 0.0
C903 C 0.89105 0.23168 0.93551 0.0
Cd904 Cd 0.92331 0.13453 0.90154 0.0
Cd905 Cd 0.93006 0.11726 0.85391 0.0
C906 C 0.72668 0.21515 0.88754 0.0
C907 C 0.73858 0.28404 0.89758 0.0
C908 C 0.69672 0.26675 0.90406 0.0
C909 C 0.66886 0.22449 0.90027 0.0
C910 C 0.68406 0.19831 0.89276 0.0
C911 C 0.75261 0.25836 0.88762 0.0
Co912 Co 0.78771 0.18527 0.89906 0.0
N913 N 0.74857 0.14854 0.92621 0.0
N914 N 0.79928 0.2276 0.92202 0.0
C915 C 0.77794 0.21746 0.94431 0.0
C916 C 0.7868 0.24878 0.96261 0.0
C917 C 0.81828 0.28954 0.95642 0.0
C918 C 0.84029 0.29812 0.93251 0.0
C919 C 0.82977 0.26517 0.91527 0.0
N920 N 0.82763 0.22877 0.87598 0.0
N921 N 0.83077 0.17528 0.91313 0.0
N922 N 0.74321 0.18865 0.88107 0.0
O923 O 0.99733 0.12737 0.8512 0.0
O924 O 0.99013 0.13495 0.89315 0.0
C925 C 0.95858 0.17716 0.9496 0.0
O926 O 0.97483 0.19287 0.92764 0.0
O927 O 0.92478 0.14283 0.94911 0.0
C928 C 0.87785 0.03258 0.88152 0.0
O929 O 0.89346 0.05765 0.90072 0.0
O930 O 0.88069 0.04663 0.85854 0.0
C931 C 0.74851 0.17282 0.94649 0.0
O932 O 0.72318 0.15739 0.96657 0.0
O933 O 0.91338 0.17253 0.86527 0.0
O934 O 0.91608 0.15641 0.8242 0.0
C935 C 0.84663 0.26573 0.8891 0.0
O936 O 0.87716 0.29954 0.87875 0.0
C937 C 0.84399 0.22268 0.85211 0.0
C938 C 0.87879 0.21869 0.85408 0.0
C939 C 0.88995 0.2015 0.83362 0.0
C940 C 0.87112 0.19635 0.80904 0.0
C941 C 0.83864 0.20484 0.80574 0.0
C942 C 0.82395 0.2167 0.82771 0.0
C943 C 0.01146 0.13287 0.8743 0.0
O944 O 0.85167 0.12422 0.90922 0.0
C945 C 0.91077 0.1784 0.84088 0.0
C946 C 0.72499 0.10361 0.92756 0.0
C947 C 0.69877 0.08054 0.90695 0.0
C948 C 0.67544 0.03759 0.90823 0.0
C949 C 0.67565 0.0168 0.9308 0.0
C950 C 0.69761 0.03887 0.95324 0.0
C951 C 0.72367 0.08234 0.95098 0.0
C952 C 0.7297 0.16181 0.86024 0.0
O953 O 0.70083 0.1588 0.84408 0.0
H954 H 0.7186 0.09774 0.82357 0.0
H955 H 0.75974 0.06146 0.82603 0.0
H956 H 0.81342 0.08014 0.86105 0.0
H957 H 0.81308 0.14263 0.96151 0.0
H958 H 0.91692 0.24303 1.0001 0.0
H959 H 0.90237 0.24782 0.91713 0.0
H960 H 0.68509 0.28704 0.90991 0.0
H961 H 0.66295 0.16539 0.8906 0.0
H962 H 0.78329 0.27224 0.87956 0.0
H963 H 0.77038 0.2421 0.98107 0.0
H964 H 0.82571 0.31439 0.97016 0.0
H965 H 0.8643 0.32925 0.92769 0.0
H966 H 0.89334 0.22344 0.87312 0.0
H967 H 0.87934 0.18273 0.79303 0.0
H968 H 0.79685 0.22011 0.82604 0.0
H969 H 0.69404 0.09532 0.89041 0.0
H970 H 0.6571 0.9834 0.93083 0.0
H971 H 0.7413 0.09997 0.9678 0.0
C972 C 0.22945 0.57845 0.0931 0.0
C973 C 0.23405 0.56413 0.11761 0.0
H974 H 0.22067 0.6236 0.07275 0.0
C975 C 0.22219 0.57676 0.14031 0.0
H976 H 0.2386 0.56913 0.07537 0.0
C977 C 0.21159 0.60781 0.13877 0.0
C978 C 0.21301 0.62645 0.11455 0.0
H979 H 0.22583 0.56629 0.1594 0.0
H980 H 0.20794 0.62103 0.15679 0.0
C981 C 0.21879 0.60931 0.09156 0.0
C982 C 0.61054 0.22015 0.58766 0.0
C983 C 0.58754 0.21312 0.61078 0.0
H984 H 0.6704 0.23965 0.57124 0.0
C985 C 0.60428 0.20924 0.63459 0.0
H986 H 0.59846 0.22382 0.56915 0.0
C987 C 0.64568 0.21865 0.63583 0.0
C988 C 0.6704 0.23175 0.61323 0.0
H989 H 0.58734 0.2045 0.65272 0.0
H990 H 0.65956 0.22058 0.65482 0.0
C991 C 0.65176 0.22947 0.58889 0.0
C992 C 0.38978 0.60765 0.09029 0.0
C993 C 0.37466 0.58548 0.11376 0.0
H994 H 0.42852 0.66713 0.07303 0.0
C995 C 0.39578 0.60327 0.13728 0.0
H996 H 0.37365 0.59471 0.072 0.0
C997 C 0.42704 0.64492 0.13792 0.0
C998 C 0.43735 0.66881 0.11501 0.0
H999 H 0.38423 0.58692 0.15565 0.0
H1000 H 0.43931 0.65953 0.1567 0.0
C1001 C 0.42086 0.64918 0.09094 0.0
C1002 C 0.78243 0.39045 0.59151 0.0
C1003 C 0.78765 0.3732 0.61463 0.0
H1004 H 0.76327 0.43088 0.57491 0.0
C1005 C 0.78847 0.39175 0.63879 0.0
H1006 H 0.781 0.37622 0.57273 0.0
C1007 C 0.77799 0.42291 0.64007 0.0
C1008 C 0.76678 0.43573 0.61718 0.0
H1009 H 0.79164 0.37842 0.65689 0.0
H1010 H 0.77391 0.43331 0.65908 0.0
C1011 C 0.77191 0.42144 0.59279 0.0
C1012 C 0.35516 0.78073 0.13693 0.0
C1013 C 0.33076 0.76752 0.11417 0.0
H1014 H 0.41329 0.79504 0.15423 0.0
C1015 C 0.34977 0.76996 0.08997 0.0
H1016 H 0.341 0.77876 0.15581 0.0
C1017 C 0.39106 0.77948 0.08903 0.0
C1018 C 0.41372 0.78651 0.11231 0.0
H1019 H 0.33139 0.75981 0.07219 0.0
H1020 H 0.40344 0.7759 0.07062 0.0
C1021 C 0.39661 0.7903 0.13598 0.0
C1022 C 0.60475 0.39602 0.6355 0.0
C1023 C 0.62614 0.41395 0.6121 0.0
H1024 H 0.56102 0.33965 0.65467 0.0
C1025 C 0.61135 0.39186 0.58856 0.0
H1026 H 0.61603 0.41229 0.65394 0.0
C1027 C 0.58027 0.35031 0.58902 0.0
C1028 C 0.56347 0.33055 0.613 0.0
H1029 H 0.62769 0.4049 0.57035 0.0
H1030 H 0.57279 0.33245 0.57107 0.0
C1031 C 0.57351 0.35435 0.63596 0.0
C1032 C 0.42617 0.78099 0.37834 0.0
C1033 C 0.43564 0.76664 0.40126 0.0
H1034 H 0.38346 0.79578 0.35998 0.0
C1035 C 0.41716 0.76765 0.42501 0.0
H1036 H 0.43991 0.78019 0.3598 0.0
C1037 C 0.38509 0.77672 0.42514 0.0
C1038 C 0.37118 0.78479 0.40151 0.0
H1039 H 0.42415 0.75671 0.4429 0.0
H1040 H 0.36764 0.77201 0.44305 0.0
C1041 C 0.39403 0.79015 0.37849 0.0
C1042 C 0.64826 0.42076 0.91497 0.0
C1043 C 0.66871 0.43503 0.89085 0.0
H1044 H 0.59344 0.37512 0.93447 0.0
C1045 C 0.64568 0.42106 0.86758 0.0
H1046 H 0.66559 0.43073 0.93314 0.0
C1047 C 0.60417 0.3892 0.86837 0.0
C1048 C 0.58545 0.37108 0.89241 0.0
H1049 H 0.66097 0.43121 0.84878 0.0
H1050 H 0.58856 0.37523 0.85011 0.0
C1051 C 0.60688 0.38909 0.91575 0.0
C1052 C 0.21476 0.60452 0.41807 0.0
C1053 C 0.20964 0.58356 0.39429 0.0
H1054 H 0.23383 0.66303 0.43632 0.0
C1055 C 0.20827 0.60253 0.37081 0.0
H1056 H 0.21651 0.5907 0.43635 0.0
C1057 C 0.21856 0.64413 0.37075 0.0
C1058 C 0.2301 0.66683 0.3942 0.0
H1059 H 0.20507 0.58717 0.35221 0.0
H1060 H 0.22243 0.65968 0.35216 0.0
C1061 C 0.2251 0.64601 0.41801 0.0
C1062 C 0.6072 0.21819 0.92298 0.0
C1063 C 0.62427 0.21121 0.90036 0.0
H1064 H 0.56585 0.23735 0.93811 0.0
C1065 C 0.60458 0.20699 0.87611 0.0
H1066 H 0.6222 0.22211 0.9418 0.0
C1067 C 0.57253 0.21613 0.87395 0.0
C1068 C 0.55977 0.22913 0.89607 0.0
H1069 H 0.61763 0.20228 0.85835 0.0
H1070 H 0.56141 0.21794 0.85465 0.0
C1071 C 0.57512 0.22713 0.92083 0.0
C1072 C 0.38782 0.60764 0.42117 0.0
C1073 C 0.41236 0.62584 0.39889 0.0
H1074 H 0.32679 0.56657 0.4356 0.0
C1075 C 0.39688 0.60803 0.37418 0.0
H1076 H 0.39884 0.62126 0.44034 0.0
C1077 C 0.35541 0.57664 0.37143 0.0
C1078 C 0.32931 0.56283 0.3934 0.0
H1079 H 0.41498 0.62205 0.35667 0.0
H1080 H 0.34267 0.5668 0.35194 0.0
C1081 C 0.3465 0.57652 0.41842 0.0
C1082 C 0.76782 0.34976 0.9228 0.0
C1083 C 0.76551 0.32952 0.89912 0.0
H1084 H 0.77492 0.40483 0.94067 0.0
C1085 C 0.78021 0.35293 0.87606 0.0
H1086 H 0.75682 0.33226 0.94083 0.0
C1087 C 0.791 0.39468 0.87604 0.0
C1088 C 0.78702 0.41316 0.89903 0.0
H1089 H 0.7786 0.3379 0.85758 0.0
H1090 H 0.79674 0.41063 0.85743 0.0
C1091 C 0.77868 0.39142 0.92277 0.0
C1092 C 0.20332 0.39048 0.2675 0.0
C1093 C 0.19309 0.35281 0.28008 0.0
H1094 H 0.1959 0.42002 0.23321 0.0
C1095 C 0.16741 0.31591 0.26635 0.0
H1096 H 0.22291 0.41973 0.2772 0.0
C1097 C 0.15486 0.31626 0.24086 0.0
C1098 C 0.16342 0.3533 0.22841 0.0
H1099 H 0.15614 0.28579 0.27509 0.0
H1100 H 0.13796 0.28662 0.23113 0.0
C1101 C 0.18832 0.3907 0.24204 0.0
C1102 C 0.7875 0.15362 0.77462 0.0
C1103 C 0.81719 0.19482 0.7801 0.0
H1104 H 0.75457 0.10802 0.74509 0.0
C1105 C 0.83272 0.22351 0.75942 0.0
H1106 H 0.77617 0.13071 0.79001 0.0
C1107 C 0.82059 0.21049 0.73345 0.0
C1108 C 0.79329 0.16848 0.72787 0.0
H1109 H 0.8564 0.25529 0.76315 0.0
H1110 H 0.83511 0.23252 0.71769 0.0
C1111 C 0.77547 0.14062 0.74883 0.0
C1112 C 0.63687 0.78869 0.27765 0.0
C1113 C 0.62544 0.81834 0.28337 0.0
H1114 H 0.64855 0.75554 0.24782 0.0
C1115 C 0.61124 0.83342 0.263 0.0
H1116 H 0.64894 0.7775 0.29289 0.0
C1117 C 0.61115 0.82096 0.23699 0.0
C1118 C 0.62581 0.79374 0.23111 0.0
H1119 H 0.60309 0.85697 0.26694 0.0
H1120 H 0.6029 0.83514 0.22138 0.0
C1121 C 0.63688 0.77637 0.25183 0.0
C1122 C 0.83318 0.68198 0.76906 0.0
C1123 C 0.80675 0.64491 0.78233 0.0
H1124 H 0.86273 0.71191 0.73411 0.0
C1125 C 0.79568 0.60737 0.76927 0.0
H1126 H 0.84516 0.71194 0.77821 0.0
C1127 C 0.81053 0.60748 0.7437 0.0
C1128 C 0.83604 0.64512 0.73048 0.0
H1129 H 0.77556 0.57801 0.77867 0.0
H1130 H 0.80231 0.57825 0.73446 0.0
C1131 C 0.84543 0.68203 0.74347 0.0
C1132 C 0.18056 0.7927 0.23524 0.0
C1133 C 0.20586 0.83502 0.22942 0.0
H1134 H 0.14547 0.74757 0.26496 0.0
C1135 C 0.22053 0.8636 0.25022 0.0
H1136 H 0.16873 0.76996 0.21967 0.0
C1137 C 0.20703 0.8509 0.27578 0.0
C1138 C 0.17942 0.80919 0.28139 0.0
H1139 H 0.24031 0.89637 0.24643 0.0
H1140 H 0.21595 0.87415 0.29087 0.0
C1141 C 0.16728 0.77988 0.26111 0.0
C1142 C 0.3833 0.21172 0.77556 0.0
C1143 C 0.36742 0.16997 0.78235 0.0
H1144 H 0.39415 0.25483 0.74437 0.0
C1145 C 0.35712 0.14061 0.76229 0.0
H1146 H 0.39067 0.23477 0.79068 0.0
C1147 C 0.35922 0.15204 0.73603 0.0
C1148 C 0.37185 0.19308 0.72925 0.0
H1149 H 0.3443 0.10817 0.76705 0.0
H1150 H 0.34754 0.12812 0.7212 0.0
C1151 C 0.3853 0.22318 0.74912 0.0
C1152 C 0.31541 0.33543 0.98557 0.0
C1153 C 0.33844 0.31483 0.98453 0.0
H1154 H 0.28914 0.36363 0.00912 0.0
C1155 C 0.34607 0.30076 0.00836 0.0
H1156 H 0.30715 0.34549 0.96783 0.0
C1157 C 0.33342 0.30922 0.03233 0.0
C1158 C 0.3139 0.33328 0.03352 0.0
H1159 H 0.36354 0.28477 0.00886 0.0
H1160 H 0.34034 0.29785 0.05002 0.0
C1161 C 0.304 0.3451 0.00958 0.0
C1162 C 0.98866 0.28793 0.48576 0.0
C1163 C 0.02437 0.32616 0.48045 0.0
H1164 H 0.94242 0.24987 0.51387 0.0
C1165 C 0.0408 0.35584 0.50053 0.0
H1166 H 0.97528 0.26436 0.4707 0.0
C1167 C 0.02148 0.34807 0.52502 0.0
C1168 C 0.98543 0.30999 0.53049 0.0
H1169 H 0.0677 0.38595 0.49695 0.0
H1170 H 0.03425 0.37278 0.53934 0.0
C1171 C 0.96962 0.2798 0.51052 0.0
C1172 C 0.7119 0.01114 0.02354 0.0
C1173 C 0.67283 0.97641 0.02874 0.0
H1174 H 0.7512 0.05715 0.99567 0.0
C1175 C 0.64287 0.96173 0.00881 0.0
H1176 H 0.73563 0.02322 0.03857 0.0
C1177 C 0.65119 0.98177 0.98457 0.0
C1178 C 0.69021 0.01673 0.9791 0.0
H1179 H 0.61215 0.9357 0.01237 0.0
H1180 H 0.62615 0.97041 0.97048 0.0
C1181 C 0.72064 0.03081 0.99896 0.0
C1182 C 0.65992 0.70296 0.50694 0.0
C1183 C 0.66872 0.68958 0.48321 0.0
H1184 H 0.66347 0.70463 0.54868 0.0
C1185 C 0.69139 0.66864 0.48468 0.0
H1186 H 0.64258 0.71908 0.5072 0.0
C1187 C 0.70131 0.65803 0.50889 0.0
C1188 C 0.69031 0.66927 0.53267 0.0
H1189 H 0.70051 0.65904 0.46711 0.0
H1190 H 0.71596 0.6393 0.50867 0.0
C1191 C 0.67117 0.69364 0.53114 0.0
C1192 C 0.96019 0.64627 1.00295 0.0
C1193 C 0.97672 0.67526 0.98252 0.0
H1194 H 0.96654 0.63061 0.04214 0.0
C1195 C 0.01249 0.71363 0.98756 0.0
H1196 H 0.93326 0.61607 0.99963 0.0
C1197 C 0.03149 0.72252 0.01237 0.0
C1198 C 0.01553 0.69302 0.03271 0.0
H1199 H 0.02596 0.73672 0.97225 0.0
H1200 H 0.05877 0.75249 0.01549 0.0
C1201 C 0.97942 0.65483 0.02752 0.0
C1202 C 0.28246 0.96804 0.49742 0.0
C1203 C 0.31269 0.98184 0.47746 0.0
H1204 H 0.26786 0.97634 0.53698 0.0
C1205 C 0.35163 0.01712 0.48266 0.0
H1206 H 0.25196 0.94149 0.49433 0.0
C1207 C 0.36008 0.03774 0.50672 0.0
C1208 C 0.33034 0.02332 0.52673 0.0
H1209 H 0.37653 0.0283 0.4685 0.0
H1210 H 0.39074 0.064 0.5101 0.0
C1211 C 0.29135 0.98827 0.52183 0.0
C1212 C 0.8203 0.7737 0.00901 0.0
C1213 C 0.80907 0.78376 0.98504 0.0
H1214 H 0.81826 0.77653 0.05091 0.0
C1215 C 0.78376 0.80178 0.98512 0.0
H1216 H 0.83987 0.75992 0.00949 0.0
C1217 C 0.77253 0.81243 0.0087 0.0
C1218 C 0.78507 0.80388 0.03268 0.0
H1219 H 0.77483 0.81015 0.96693 0.0
H1220 H 0.75542 0.82883 0.00814 0.0
C1221 C 0.80777 0.78306 0.03267 0.0
C1222 C 0.04103 0.80861 0.50347 0.0
C1223 C 0.01965 0.80027 0.47958 0.0
H1224 H 0.03697 0.80626 0.54526 0.0
C1225 C 0.97607 0.77949 0.47978 0.0
H1226 H 0.07458 0.82504 0.5039 0.0
C1227 C 0.95449 0.77011 0.50355 0.0
C1228 C 0.97607 0.78006 0.52745 0.0
H1229 H 0.9588 0.77311 0.46164 0.0
H1230 H 0.92111 0.75654 0.50322 0.0
C1231 C 0.01942 0.79791 0.52715 0.0
C1232 C 0.22596 0.01543 0.99583 0.0
C1233 C 0.19445 0.00862 0.97803 0.0
H1234 H 0.2406 0.0003 0.03346 0.0
C1235 C 0.15381 0.97674 0.98292 0.0
H1236 H 0.25743 0.03993 0.99246 0.0
C1237 C 0.14424 0.95366 0.00593 0.0
C1238 C 0.17497 0.96262 0.02486 0.0
H1239 H 0.12901 0.9706 0.96933 0.0
H1240 H 0.11218 0.93057 0.00956 0.0
C1241 C 0.21623 0.99281 0.01925 0.0
C1242 C 0.18255 0.22735 0.50714 0.0
C1243 C 0.19424 0.21767 0.48318 0.0
H1244 H 0.18375 0.22384 0.54906 0.0
C1245 C 0.21955 0.19966 0.48339 0.0
H1246 H 0.16291 0.24105 0.50754 0.0
C1247 C 0.2303 0.18863 0.50702 0.0
C1248 C 0.21732 0.1968 0.53096 0.0
H1249 H 0.22878 0.1915 0.46524 0.0
H1250 H 0.24735 0.17218 0.50649 0.0
C1251 C 0.19462 0.21763 0.53087 0.0
C1252 C 0.04473 0.23027 0.99931 0.0
C1253 C 0.02253 0.21821 0.02296 0.0
H1254 H 0.0416 0.22792 0.95734 0.0
C1255 C 0.97898 0.19647 0.02216 0.0
H1256 H 0.0783 0.24682 0.99938 0.0
C1257 C 0.95806 0.18445 0.99822 0.0
C1258 C 0.98021 0.19526 0.97457 0.0
H1259 H 0.96101 0.18635 0.04008 0.0
H1260 H 0.9246 0.16547 0.99826 0.0
C1261 C 0.0237 0.21949 0.97529 0.0
C1262 C 0.84808 0.00788 0.51846 0.0
C1263 C 0.82453 0.02425 0.5289 0.0
H1264 H 0.85438 0.97175 0.48838 0.0
C1265 C 0.78766 0.01603 0.51623 0.0
H1266 H 0.87628 0.01315 0.52804 0.0
C1267 C 0.7757 0.99325 0.49273 0.0
C1268 C 0.79928 0.97655 0.48256 0.0
H1269 H 0.76866 0.02779 0.52418 0.0
H1270 H 0.74805 0.98845 0.48267 0.0
C1271 C 0.83527 0.98377 0.49587 0.0
C1272 C 0.16623 0.09188 0.13874 0.0
C1273 C 0.14914 0.06044 0.11978 0.0
H1274 H 0.17255 0.14871 0.15253 0.0
C1275 C 0.1306 0.0661 0.09735 0.0
H1276 H 0.1814 0.08872 0.15598 0.0
C1277 C 0.12528 0.10063 0.0954 0.0
C1278 C 0.13865 0.12987 0.11581 0.0
H1279 H 0.11736 0.04239 0.08236 0.0
H1280 H 0.10786 0.10261 0.07902 0.0
C1281 C 0.16123 0.12632 0.13671 0.0
C1282 C 0.06957 0.12847 0.60616 0.0
C1283 C 0.08892 0.13184 0.63041 0.0
H1284 H 0.01654 0.12385 0.5864 0.0
C1285 C 0.07267 0.1396 0.65307 0.0
H1286 H 0.08171 0.12265 0.58838 0.0
C1287 C 0.03631 0.14141 0.65187 0.0
C1288 C 0.01467 0.13434 0.62808 0.0
H1289 H 0.08735 0.14288 0.67194 0.0
H1290 H 0.02383 0.14561 0.67004 0.0
C1291 C 0.03238 0.12926 0.60503 0.0
C1292 C 0.89895 0.02566 0.09489 0.0
C1293 C 0.87156 0.01152 0.11633 0.0
H1294 H 0.95733 0.0734 0.07993 0.0
C1295 C 0.88014 0.03761 0.13816 0.0
H1296 H 0.89304 0.00635 0.07775 0.0
C1297 C 0.91709 0.07514 0.13961 0.0
C1298 C 0.94574 0.08794 0.11903 0.0
H1299 H 0.85964 0.02795 0.15495 0.0
H1300 H 0.92389 0.09356 0.15728 0.0
C1301 C 0.9357 0.0639 0.09614 0.0
C1302 C 0.87027 0.93688 0.60253 0.0
C1303 C 0.85751 0.94641 0.62617 0.0
H1304 H 0.88725 0.89646 0.58311 0.0
C1305 C 0.84417 0.91776 0.64678 0.0
H1306 H 0.88072 0.95854 0.58633 0.0
C1307 C 0.84735 0.88225 0.64486 0.0
C1308 C 0.86462 0.8749 0.62243 0.0
H1309 H 0.83364 0.9241 0.66508 0.0
H1310 H 0.83916 0.86217 0.66181 0.0
C1311 C 0.87398 0.90134 0.6007 0.0
C1312 C 0.92889 0.85917 0.15495 0.0
C1313 C 0.91152 0.86549 0.13228 0.0
H1314 H 0.98091 0.85891 0.17206 0.0
C1315 C 0.93133 0.87029 0.10805 0.0
H1316 H 0.91375 0.85452 0.17378 0.0
C1317 C 0.97028 0.87324 0.10704 0.0
C1318 C 0.98949 0.87104 0.13025 0.0
H1319 H 0.91833 0.87496 0.09026 0.0
H1320 H 0.98653 0.8803 0.08849 0.0
C1321 C 0.96733 0.86157 0.15391 0.0
C1322 C 0.08496 0.92747 0.64012 0.0
C1323 C 0.05491 0.91307 0.62026 0.0
H1324 H 0.14358 0.97573 0.65343 0.0
C1325 C 0.06327 0.93555 0.59681 0.0
H1326 H 0.07952 0.91037 0.65824 0.0
C1327 C 0.09994 0.97354 0.59412 0.0
C1328 C 0.12897 0.98909 0.61468 0.0
H1329 H 0.04059 0.92489 0.58115 0.0
H1330 H 0.10476 0.99143 0.57643 0.0
C1331 C 0.1218 0.96485 0.63726 0.0
C1332 C 0.88987 0.84166 0.3923 0.0
C1333 C 0.88739 0.87771 0.38938 0.0
H1334 H 0.92982 0.81548 0.39217 0.0
C1335 C 0.9233 0.91537 0.38377 0.0
H1336 H 0.86228 0.81227 0.39631 0.0
C1337 C 0.96112 0.91693 0.38042 0.0
C1338 C 0.96389 0.88105 0.3833 0.0
H1339 H 0.92181 0.94341 0.38108 0.0
H1340 H 0.98831 0.9463 0.3757 0.0
C1341 C 0.92822 0.84349 0.38981 0.0
C1342 C 0.06774 0.94785 0.90605 0.0
C1343 C 0.09039 0.95551 0.88266 0.0
H1344 H 0.01132 0.90695 0.9264 0.0
C1345 C 0.07744 0.92376 0.86406 0.0
H1346 H 0.07712 0.97196 0.92068 0.0
C1347 C 0.04047 0.88653 0.86748 0.0
C1348 C 0.01501 0.88054 0.88933 0.0
H1349 H 0.09459 0.92875 0.84599 0.0
H1350 H 0.03025 0.8638 0.85189 0.0
C1351 C 0.03008 0.91062 0.90931 0.0
C1352 C 0.12465 0.06084 0.41645 0.0
C1353 C 0.14572 0.08643 0.39506 0.0
H1354 H 0.10454 0.00242 0.43517 0.0
C1355 C 0.16817 0.07528 0.37815 0.0
H1356 H 0.10733 0.06899 0.42985 0.0
C1357 C 0.16736 0.03789 0.38146 0.0
C1358 C 0.14328 0.01037 0.40141 0.0
H1359 H 0.18528 0.09486 0.36176 0.0
H1360 H 0.18361 0.02955 0.36731 0.0
C1361 C 0.12315 0.02285 0.4195 0.0
C1362 C 0.10237 0.13745 0.91052 0.0
C1363 C 0.12322 0.13008 0.89015 0.0
H1364 H 0.05066 0.1442 0.92149 0.0
C1365 C 0.10886 0.12685 0.86433 0.0
H1366 H 0.11281 0.14023 0.93062 0.0
C1367 C 0.07328 0.12907 0.85908 0.0
C1368 C 0.05131 0.1346 0.87957 0.0
H1369 H 0.12454 0.1217 0.84818 0.0
H1370 H 0.06243 0.12538 0.83903 0.0
C1371 C 0.06671 0.13963 0.90528 0.0
C1372 C 0.97082 0.09965 0.40573 0.0
C1373 C 0.99115 0.12131 0.38284 0.0
H1374 H 0.91726 0.04664 0.42177 0.0
C1375 C 0.96937 0.10975 0.35894 0.0
H1376 H 0.98668 0.10785 0.42444 0.0
C1377 C 0.93016 0.07466 0.35739 0.0
C1378 C 0.91145 0.0507 0.37975 0.0
H1379 H 0.98376 0.12614 0.34099 0.0
H1380 H 0.91546 0.06492 0.33836 0.0
C1381 C 0.93107 0.06463 0.4042 0.0
C1382 C 0.8464 0.92355 0.86301 0.0
C1383 C 0.85858 0.91033 0.88528 0.0
H1384 H 0.84122 0.9721 0.84476 0.0
C1385 C 0.86942 0.93441 0.9082 0.0
H1386 H 0.83702 0.90511 0.84527 0.0
C1387 C 0.87224 0.97325 0.90789 0.0
C1388 C 0.86384 0.98815 0.88472 0.0
H1389 H 0.87861 0.92463 0.92572 0.0
H1390 H 0.88381 0.99267 0.92515 0.0
C1391 C 0.84864 0.9619 0.8628 0.0
loop_
_geom_bond_atom_site_label_1
_geom_bond_atom_site_label_2
_geom_bond_distance
_geom_bond_site_symmetry_2
_ccdc_geom_bond_type
C0 C1 1.359 . S
C0 N5 1.330 . S
C0 C61 1.504 . S
C1 C0 1.359 . S
C1 C2 1.366 . S
C1 H63 0.929 . S
C2 C1 1.366 . S
C2 C3 1.415 . S
C2 H64 0.932 . S
C3 C2 1.415 . S
C3 C4 1.366 . S
C3 H65 0.931 . S
C4 C3 1.366 . S
C4 N5 1.325 . S
C4 C6 1.516 . S
N5 C0 1.330 . S
N5 C4 1.325 . S
N5 Co21 1.869 . S
C6 C4 1.516 . S
C6 N30 1.316 . S
C6 O53 1.263 . S
C7 C8 1.421 . S
C7 C12 1.360 . S
C7 N30 1.436 . S
C8 C7 1.421 . S
C8 C9 1.379 . S
C8 H66 0.929 . S
C9 C8 1.379 . S
C9 C10 1.417 . S
C10 C9 1.417 . S
C10 C11 1.352 . S
C10 H67 0.929 . S
C11 C10 1.352 . S
C11 C12 1.393 . S
C12 C7 1.360 . S
C12 C11 1.393 . S
C12 H68 0.931 . S
Cd13 O33 2.329 . S
Cd13 O35 2.350 . S
Cd13 O36 2.277 . S
Cd13 O38 2.173 . S
Cd13 O42 2.263 . S
Cd13 O53 2.366 . S
Cd14 O32 2.352 1_455 S
Cd14 O39 2.250 . S
Cd14 O43 2.308 . S
C15 C19 1.403 . S
C15 C20 1.370 . S
C15 N31 1.423 . S
C16 C17 1.389 . S
C16 C20 1.389 . S
C17 C16 1.389 . S
C17 C18 1.379 . S
C17 H69 0.929 . S
C18 C17 1.379 . S
C18 C19 1.405 . S
C19 C15 1.403 . S
C19 C18 1.405 . S
C19 H70 0.932 . S
C20 C15 1.370 . S
C20 C16 1.389 . S
C20 H71 0.931 . S
Co21 N5 1.869 . S
Co21 N22 1.955 . S
Co21 N23 1.864 . S
Co21 N29 1.958 . S
Co21 N30 1.953 . S
Co21 N31 1.974 . S
N22 Co21 1.955 . S
N22 C40 1.329 . S
N22 C55 1.432 . S
N23 Co21 1.864 . S
N23 C24 1.327 . S
N23 C28 1.342 . S
C24 N23 1.327 . S
C24 C25 1.407 . S
C24 C40 1.481 . S
C25 C24 1.407 . S
C25 C26 1.364 . S
C25 H72 0.930 . S
C26 C25 1.364 . S
C26 C27 1.390 . S
C26 H73 0.931 . S
C27 C26 1.390 . S
C27 C28 1.346 . S
C27 H74 0.930 . S
C28 N23 1.342 . S
C28 C27 1.346 . S
C28 C44 1.516 . S
N29 Co21 1.958 . S
N29 C44 1.324 . S
N29 C46 1.427 . S
N30 C6 1.316 . S
N30 C7 1.436 . S
N30 Co21 1.953 . S
N31 C15 1.423 . S
N31 Co21 1.974 . S
N31 C61 1.309 . S
O32 Cd14 2.352 1_655 S
O32 C52 1.235 . S
O33 Cd13 2.329 . S
O33 C52 1.270 1_455 S
C34 O35 1.270 . S
C34 O36 1.248 . S
O35 Cd13 2.350 . S
O35 C34 1.270 . S
O36 Cd13 2.277 . S
O36 C34 1.248 . S
C37 O38 1.277 . S
C37 O39 1.230 . S
O38 Cd13 2.173 . S
O38 C37 1.277 . S
O39 Cd14 2.250 . S
O39 C37 1.230 . S
C40 N22 1.329 . S
C40 C24 1.481 . S
C40 O41 1.246 . S
O41 C40 1.246 . S
O42 Cd13 2.263 . S
O42 C54 1.258 . S
O43 Cd14 2.308 . S
O43 C54 1.274 . S
C44 C28 1.516 . S
C44 N29 1.324 . S
C44 O45 1.238 . S
O45 C44 1.238 . S
C46 N29 1.427 . S
C46 C47 1.394 . S
C46 C51 1.395 . S
C47 C46 1.394 . S
C47 C48 1.380 . S
C47 H75 0.929 . S
C48 C47 1.380 . S
C48 C49 1.384 . S
C48 C54 1.495 . S
C49 C48 1.384 . S
C49 C50 1.382 . S
C49 H76 0.930 . S
C50 C49 1.382 . S
C50 C51 1.398 . S
C51 C46 1.395 . S
C51 C50 1.398 . S
C51 H77 0.930 . S
C52 O32 1.235 . S
C52 O33 1.270 1_655 S
O53 C6 1.263 . S
O53 Cd13 2.366 . S
C54 O42 1.258 . S
C54 O43 1.274 . S
C54 C48 1.495 . S
C55 N22 1.432 . S
C55 C56 1.381 . S
C55 C60 1.385 . S
C56 C55 1.381 . S
C56 C57 1.371 . S
C56 H78 0.932 . S
C57 C56 1.371 . S
C57 C58 1.400 . S
C58 C57 1.400 . S
C58 C59 1.351 . S
C58 H79 0.930 . S
C59 C58 1.351 . S
C59 C60 1.388 . S
C60 C55 1.385 . S
C60 C59 1.388 . S
C60 H80 0.929 . S
C61 C0 1.504 . S
C61 N31 1.309 . S
C61 O62 1.258 . S
O62 C61 1.258 . S
H63 C1 0.929 . S
H64 C2 0.932 . S
H65 C3 0.931 . S
H66 C8 0.929 . S
H67 C10 0.929 . S
H68 C12 0.931 . S
H69 C17 0.929 . S
H70 C19 0.932 . S
H71 C20 0.931 . S
H72 C25 0.930 . S
H73 C26 0.931 . S
H74 C27 0.930 . S
H75 C47 0.929 . S
H76 C49 0.930 . S
H77 C51 0.930 . S
H78 C56 0.932 . S
H79 C58 0.930 . S
H80 C60 0.929 . S
C81 C82 1.359 . S
C81 N86 1.330 . S
C81 C142 1.504 . S
C82 C81 1.359 . S
C82 C83 1.366 . S
C82 H144 0.929 . S
C83 C82 1.366 . S
C83 C84 1.415 . S
C83 H145 0.932 . S
C84 C83 1.415 . S
C84 C85 1.366 . S
C84 H146 0.931 . S
C85 C84 1.366 . S
C85 N86 1.325 . S
C85 C87 1.516 . S
N86 C81 1.330 . S
N86 C85 1.325 . S
N86 Co102 1.869 . S
C87 C85 1.516 . S
C87 N111 1.316 . S
C87 O134 1.263 . S
C88 C89 1.421 . S
C88 C93 1.360 . S
C88 N111 1.436 . S
C89 C88 1.421 . S
C89 C90 1.379 . S
C89 H147 0.929 . S
C90 C89 1.379 . S
C90 C91 1.417 . S
C91 C90 1.417 . S
C91 C92 1.352 . S
C91 H148 0.929 . S
C92 C91 1.352 . S
C92 C93 1.393 . S
C93 C88 1.360 . S
C93 C92 1.393 . S
C93 H149 0.931 . S
Cd94 O114 2.329 . S
Cd94 O116 2.350 . S
Cd94 O117 2.277 . S
Cd94 O119 2.173 . S
Cd94 O123 2.263 . S
Cd94 O134 2.366 . S
Cd95 O113 2.352 1_545 S
Cd95 O120 2.250 . S
Cd95 O124 2.308 . S
C96 C100 1.403 . S
C96 C101 1.370 . S
C96 N112 1.423 . S
C97 C98 1.389 . S
C97 C101 1.389 . S
C98 C97 1.389 . S
C98 C99 1.379 . S
C98 H150 0.929 . S
C99 C98 1.379 . S
C99 C100 1.405 . S
C100 C96 1.403 . S
C100 C99 1.405 . S
C100 H151 0.932 . S
C101 C96 1.370 . S
C101 C97 1.389 . S
C101 H152 0.931 . S
Co102 N86 1.869 . S
Co102 N103 1.955 . S
Co102 N104 1.864 . S
Co102 N110 1.958 . S
Co102 N111 1.953 . S
Co102 N112 1.974 . S
N103 Co102 1.955 . S
N103 C121 1.329 . S
N103 C136 1.432 . S
N104 Co102 1.864 . S
N104 C105 1.327 . S
N104 C109 1.342 . S
C105 N104 1.327 . S
C105 C106 1.407 . S
C105 C121 1.481 . S
C106 C105 1.407 . S
C106 C107 1.364 . S
C106 H153 0.930 . S
C107 C106 1.364 . S
C107 C108 1.390 . S
C107 H154 0.931 . S
C108 C107 1.390 . S
C108 C109 1.346 . S
C108 H155 0.930 . S
C109 N104 1.342 . S
C109 C108 1.346 . S
C109 C125 1.516 . S
N110 Co102 1.958 . S
N110 C125 1.324 . S
N110 C127 1.427 . S
N111 C87 1.316 . S
N111 C88 1.436 . S
N111 Co102 1.953 . S
N112 C96 1.423 . S
N112 Co102 1.974 . S
N112 C142 1.309 . S
O113 Cd95 2.352 1_565 S
O113 C133 1.235 . S
O114 Cd94 2.329 . S
O114 C133 1.270 1_545 S
C115 O116 1.270 . S
C115 O117 1.248 . S
O116 Cd94 2.350 . S
O116 C115 1.270 . S
O117 Cd94 2.277 . S
O117 C115 1.248 . S
C118 O119 1.277 . S
C118 O120 1.230 . S
O119 Cd94 2.173 . S
O119 C118 1.277 . S
O120 Cd95 2.250 . S
O120 C118 1.230 . S
C121 N103 1.329 . S
C121 C105 1.481 . S
C121 O122 1.246 . S
O122 C121 1.246 . S
O123 Cd94 2.263 . S
O123 C135 1.258 . S
O124 Cd95 2.308 . S
O124 C135 1.274 . S
C125 C109 1.516 . S
C125 N110 1.324 . S
C125 O126 1.238 . S
O126 C125 1.238 . S
C127 N110 1.427 . S
C127 C128 1.394 . S
C127 C132 1.395 . S
C128 C127 1.394 . S
C128 C129 1.380 . S
C128 H156 0.929 . S
C129 C128 1.380 . S
C129 C130 1.384 . S
C129 C135 1.495 . S
C130 C129 1.384 . S
C130 C131 1.382 . S
C130 H157 0.930 . S
C131 C130 1.382 . S
C131 C132 1.398 . S
C132 C127 1.395 . S
C132 C131 1.398 . S
C132 H158 0.930 . S
C133 O113 1.235 . S
C133 O114 1.270 1_565 S
O134 C87 1.263 . S
O134 Cd94 2.366 . S
C135 O123 1.258 . S
C135 O124 1.274 . S
C135 C129 1.495 . S
C136 N103 1.432 . S
C136 C137 1.381 . S
C136 C141 1.385 . S
C137 C136 1.381 . S
C137 C138 1.371 . S
C137 H159 0.932 . S
C138 C137 1.371 . S
C138 C139 1.400 . S
C139 C138 1.400 . S
C139 C140 1.351 . S
C139 H160 0.930 . S
C140 C139 1.351 . S
C140 C141 1.388 . S
C141 C136 1.385 . S
C141 C140 1.388 . S
C141 H161 0.929 . S
C142 C81 1.504 . S
C142 N112 1.309 . S
C142 O143 1.258 . S
O143 C142 1.258 . S
H144 C82 0.929 . S
H145 C83 0.932 . S
H146 C84 0.931 . S
H147 C89 0.929 . S
H148 C91 0.929 . S
H149 C93 0.931 . S
H150 C98 0.929 . S
H151 C100 0.932 . S
H152 C101 0.931 . S
H153 C106 0.930 . S
H154 C107 0.931 . S
H155 C108 0.930 . S
H156 C128 0.929 . S
H157 C130 0.930 . S
H158 C132 0.930 . S
H159 C137 0.932 . S
H160 C139 0.930 . S
H161 C141 0.929 . S
C162 C163 1.359 . S
C162 N167 1.330 . S
C162 C223 1.504 . S
C163 C162 1.359 . S
C163 C164 1.366 . S
C163 H225 0.929 . S
C164 C163 1.366 . S
C164 C165 1.415 . S
C164 H226 0.932 . S
C165 C164 1.415 . S
C165 C166 1.366 . S
C165 H227 0.931 . S
C166 C165 1.366 . S
C166 N167 1.325 . S
C166 C168 1.516 . S
N167 C162 1.330 . S
N167 C166 1.325 . S
N167 Co183 1.869 . S
C168 C166 1.516 . S
C168 N192 1.316 . S
C168 O215 1.263 . S
C169 C170 1.421 . S
C169 C174 1.360 . S
C169 N192 1.436 . S
C170 C169 1.421 . S
C170 C171 1.379 . S
C170 H228 0.929 . S
C171 C170 1.379 . S
C171 C172 1.417 . S
C172 C171 1.417 . S
C172 C173 1.352 . S
C172 H229 0.929 . S
C173 C172 1.352 . S
C173 C174 1.393 . S
C174 C169 1.360 . S
C174 C173 1.393 . S
C174 H230 0.931 . S
Cd175 O195 2.329 . S
Cd175 O197 2.350 . S
Cd175 O198 2.277 . S
Cd175 O200 2.173 . S
Cd175 O204 2.263 . S
Cd175 O215 2.366 . S
Cd176 O194 2.352 . S
Cd176 O201 2.250 . S
Cd176 O205 2.308 . S
C177 C181 1.403 . S
C177 C182 1.370 . S
C177 N193 1.423 . S
C178 C179 1.389 . S
C178 C182 1.389 . S
C179 C178 1.389 . S
C179 C180 1.379 . S
C179 H231 0.929 . S
C180 C179 1.379 . S
C180 C181 1.405 . S
C181 C177 1.403 . S
C181 C180 1.405 . S
C181 H232 0.932 . S
C182 C177 1.370 . S
C182 C178 1.389 . S
C182 H233 0.931 . S
Co183 N167 1.869 . S
Co183 N184 1.955 . S
Co183 N185 1.864 . S
Co183 N191 1.958 . S
Co183 N192 1.953 . S
Co183 N193 1.974 . S
N184 Co183 1.955 . S
N184 C202 1.329 . S
N184 C217 1.432 . S
N185 Co183 1.864 . S
N185 C186 1.327 . S
N185 C190 1.342 . S
C186 N185 1.327 . S
C186 C187 1.407 . S
C186 C202 1.481 . S
C187 C186 1.407 . S
C187 C188 1.364 . S
C187 H234 0.930 . S
C188 C187 1.364 . S
C188 C189 1.390 . S
C188 H235 0.931 . S
C189 C188 1.390 . S
C189 C190 1.346 . S
C189 H236 0.930 . S
C190 N185 1.342 . S
C190 C189 1.346 . S
C190 C206 1.516 . S
N191 Co183 1.958 . S
N191 C206 1.324 . S
N191 C208 1.427 . S
N192 C168 1.316 . S
N192 C169 1.436 . S
N192 Co183 1.953 . S
N193 C177 1.423 . S
N193 Co183 1.974 . S
N193 C223 1.309 . S
O194 Cd176 2.352 . S
O194 C214 1.235 . S
O195 Cd175 2.329 . S
O195 C214 1.270 . S
C196 O197 1.270 . S
C196 O198 1.248 . S
O197 Cd175 2.350 . S
O197 C196 1.270 . S
O198 Cd175 2.277 . S
O198 C196 1.248 . S
C199 O200 1.277 . S
C199 O201 1.230 . S
O200 Cd175 2.173 . S
O200 C199 1.277 . S
O201 Cd176 2.250 . S
O201 C199 1.230 . S
C202 N184 1.329 . S
C202 C186 1.481 . S
C202 O203 1.246 . S
O203 C202 1.246 . S
O204 Cd175 2.263 . S
O204 C216 1.258 . S
O205 Cd176 2.308 . S
O205 C216 1.274 . S
C206 C190 1.516 . S
C206 N191 1.324 . S
C206 O207 1.238 . S
O207 C206 1.238 . S
C208 N191 1.427 . S
C208 C209 1.394 . S
C208 C213 1.395 . S
C209 C208 1.394 . S
C209 C210 1.380 . S
C209 H237 0.929 . S
C210 C209 1.380 . S
C210 C211 1.384 . S
C210 C216 1.495 . S
C211 C210 1.384 . S
C211 C212 1.382 . S
C211 H238 0.930 . S
C212 C211 1.382 . S
C212 C213 1.398 . S
C213 C208 1.395 . S
C213 C212 1.398 . S
C213 H239 0.930 . S
C214 O194 1.235 . S
C214 O195 1.270 . S
O215 C168 1.263 . S
O215 Cd175 2.366 . S
C216 O204 1.258 . S
C216 O205 1.274 . S
C216 C210 1.495 . S
C217 N184 1.432 . S
C217 C218 1.381 . S
C217 C222 1.385 . S
C218 C217 1.381 . S
C218 C219 1.371 . S
C218 H240 0.932 . S
C219 C218 1.371 . S
C219 C220 1.400 . S
C220 C219 1.400 . S
C220 C221 1.351 . S
C220 H241 0.930 . S
C221 C220 1.351 . S
C221 C222 1.388 . S
C222 C217 1.385 . S
C222 C221 1.388 . S
C222 H242 0.929 . S
C223 C162 1.504 . S
C223 N193 1.309 . S
C223 O224 1.258 . S
O224 C223 1.258 . S
H225 C163 0.929 . S
H226 C164 0.932 . S
H227 C165 0.931 . S
H228 C170 0.929 . S
H229 C172 0.929 . S
H230 C174 0.931 . S
H231 C179 0.929 . S
H232 C181 0.932 . S
H233 C182 0.931 . S
H234 C187 0.930 . S
H235 C188 0.931 . S
H236 C189 0.930 . S
H237 C209 0.929 . S
H238 C211 0.930 . S
H239 C213 0.930 . S
H240 C218 0.932 . S
H241 C220 0.930 . S
H242 C222 0.929 . S
C243 C244 1.359 . S
C243 N248 1.330 . S
C243 C304 1.504 . S
C244 C243 1.359 . S
C244 C245 1.366 . S
C244 H306 0.929 . S
C245 C244 1.366 . S
C245 C246 1.415 . S
C245 H307 0.932 . S
C246 C245 1.415 . S
C246 C247 1.366 . S
C246 H308 0.931 . S
C247 C246 1.366 . S
C247 N248 1.325 . S
C247 C249 1.516 . S
N248 C243 1.330 . S
N248 C247 1.325 . S
N248 Co264 1.869 . S
C249 C247 1.516 . S
C249 N273 1.316 . S
C249 O296 1.263 . S
C250 C251 1.421 . S
C250 C255 1.360 . S
C250 N273 1.436 . S
C251 C250 1.421 . S
C251 C252 1.379 . S
C251 H309 0.929 . S
C252 C251 1.379 . S
C252 C253 1.417 . S
C253 C252 1.417 . S
C253 C254 1.352 . S
C253 H310 0.929 . S
C254 C253 1.352 . S
C254 C255 1.393 . S
C255 C250 1.360 . S
C255 C254 1.393 . S
C255 H311 0.931 . S
Cd256 O276 2.329 . S
Cd256 O278 2.350 . S
Cd256 O279 2.277 . S
Cd256 O281 2.173 . S
Cd256 O285 2.263 . S
Cd256 O296 2.366 . S
Cd257 O275 2.352 1_655 S
Cd257 O282 2.250 . S
Cd257 O286 2.308 . S
C258 C262 1.403 . S
C258 C263 1.370 . S
C258 N274 1.423 . S
C259 C260 1.389 . S
C259 C263 1.389 . S
C260 C259 1.389 . S
C260 C261 1.379 . S
C260 H312 0.929 . S
C261 C260 1.379 . S
C261 C262 1.405 . S
C262 C258 1.403 . S
C262 C261 1.405 . S
C262 H313 0.932 . S
C263 C258 1.370 . S
C263 C259 1.389 . S
C263 H314 0.931 . S
Co264 N248 1.869 . S
Co264 N265 1.955 . S
Co264 N266 1.864 . S
Co264 N272 1.958 . S
Co264 N273 1.953 . S
Co264 N274 1.974 . S
N265 Co264 1.955 . S
N265 C283 1.329 . S
N265 C298 1.432 . S
N266 Co264 1.864 . S
N266 C267 1.327 . S
N266 C271 1.342 . S
C267 N266 1.327 . S
C267 C268 1.407 . S
C267 C283 1.481 . S
C268 C267 1.407 . S
C268 C269 1.364 . S
C268 H315 0.930 . S
C269 C268 1.364 . S
C269 C270 1.390 . S
C269 H316 0.931 . S
C270 C269 1.390 . S
C270 C271 1.346 . S
C270 H317 0.930 . S
C271 N266 1.342 . S
C271 C270 1.346 . S
C271 C287 1.516 . S
N272 Co264 1.958 . S
N272 C287 1.324 . S
N272 C289 1.427 . S
N273 C249 1.316 . S
N273 C250 1.436 . S
N273 Co264 1.953 . S
N274 C258 1.423 . S
N274 Co264 1.974 . S
N274 C304 1.309 . S
O275 Cd257 2.352 1_455 S
O275 C295 1.235 . S
O276 Cd256 2.329 . S
O276 C295 1.270 1_655 S
C277 O278 1.270 . S
C277 O279 1.248 . S
O278 Cd256 2.350 . S
O278 C277 1.270 . S
O279 Cd256 2.277 . S
O279 C277 1.248 . S
C280 O281 1.277 . S
C280 O282 1.230 . S
O281 Cd256 2.173 . S
O281 C280 1.277 . S
O282 Cd257 2.250 . S
O282 C280 1.230 . S
C283 N265 1.329 . S
C283 C267 1.481 . S
C283 O284 1.246 . S
O284 C283 1.246 . S
O285 Cd256 2.263 . S
O285 C297 1.258 . S
O286 Cd257 2.308 . S
O286 C297 1.274 . S
C287 C271 1.516 . S
C287 N272 1.324 . S
C287 O288 1.238 . S
O288 C287 1.238 . S
C289 N272 1.427 . S
C289 C290 1.394 . S
C289 C294 1.395 . S
C290 C289 1.394 . S
C290 C291 1.380 . S
C290 H318 0.929 . S
C291 C290 1.380 . S
C291 C292 1.384 . S
C291 C297 1.495 . S
C292 C291 1.384 . S
C292 C293 1.382 . S
C292 H319 0.930 . S
C293 C292 1.382 . S
C293 C294 1.398 . S
C294 C289 1.395 . S
C294 C293 1.398 . S
C294 H320 0.930 . S
C295 O275 1.235 . S
C295 O276 1.270 1_455 S
O296 C249 1.263 . S
O296 Cd256 2.366 . S
C297 O285 1.258 . S
C297 O286 1.274 . S
C297 C291 1.495 . S
C298 N265 1.432 . S
C298 C299 1.381 . S
C298 C303 1.385 . S
C299 C298 1.381 . S
C299 C300 1.371 . S
C299 H321 0.932 . S
C300 C299 1.371 . S
C300 C301 1.400 . S
C301 C300 1.400 . S
C301 C302 1.351 . S
C301 H322 0.930 . S
C302 C301 1.351 . S
C302 C303 1.388 . S
C303 C298 1.385 . S
C303 C302 1.388 . S
C303 H323 0.929 . S
C304 C243 1.504 . S
C304 N274 1.309 . S
C304 O305 1.258 . S
O305 C304 1.258 . S
H306 C244 0.929 . S
H307 C245 0.932 . S
H308 C246 0.931 . S
H309 C251 0.929 . S
H310 C253 0.929 . S
H311 C255 0.931 . S
H312 C260 0.929 . S
H313 C262 0.932 . S
H314 C263 0.931 . S
H315 C268 0.930 . S
H316 C269 0.931 . S
H317 C270 0.930 . S
H318 C290 0.929 . S
H319 C292 0.930 . S
H320 C294 0.930 . S
H321 C299 0.932 . S
H322 C301 0.930 . S
H323 C303 0.929 . S
C324 C325 1.359 . S
C324 N329 1.330 . S
C324 C385 1.504 . S
C325 C324 1.359 . S
C325 C326 1.366 . S
C325 H387 0.929 . S
C326 C325 1.366 . S
C326 C327 1.415 . S
C326 H388 0.932 . S
C327 C326 1.415 . S
C327 C328 1.366 . S
C327 H389 0.931 . S
C328 C327 1.366 . S
C328 N329 1.325 . S
C328 C330 1.516 . S
N329 C324 1.330 . S
N329 C328 1.325 . S
N329 Co345 1.869 . S
C330 C328 1.516 . S
C330 N354 1.316 . S
C330 O377 1.263 . S
C331 C332 1.421 . S
C331 C336 1.360 . S
C331 N354 1.436 . S
C332 C331 1.421 . S
C332 C333 1.379 . S
C332 H390 0.929 . S
C333 C332 1.379 . S
C333 C334 1.417 . S
C334 C333 1.417 . S
C334 C335 1.352 . S
C334 H391 0.929 . S
C335 C334 1.352 . S
C335 C336 1.393 . S
C336 C331 1.360 . S
C336 C335 1.393 . S
C336 H392 0.931 . S
Cd337 O357 2.329 . S
Cd337 O359 2.350 . S
Cd337 O360 2.277 . S
Cd337 O362 2.173 . S
Cd337 O366 2.263 . S
Cd337 O377 2.366 . S
Cd338 O356 2.352 1_565 S
Cd338 O363 2.250 . S
Cd338 O367 2.308 . S
C339 C343 1.403 . S
C339 C344 1.370 . S
C339 N355 1.423 . S
C340 C341 1.389 . S
C340 C344 1.389 . S
C341 C340 1.389 . S
C341 C342 1.379 . S
C341 H393 0.929 . S
C342 C341 1.379 . S
C342 C343 1.405 . S
C343 C339 1.403 . S
C343 C342 1.405 . S
C343 H394 0.932 . S
C344 C339 1.370 . S
C344 C340 1.389 . S
C344 H395 0.931 . S
Co345 N329 1.869 . S
Co345 N346 1.955 . S
Co345 N347 1.864 . S
Co345 N353 1.958 . S
Co345 N354 1.953 . S
Co345 N355 1.974 . S
N346 Co345 1.955 . S
N346 C364 1.329 . S
N346 C379 1.432 . S
N347 Co345 1.864 . S
N347 C348 1.327 . S
N347 C352 1.342 . S
C348 N347 1.327 . S
C348 C349 1.407 . S
C348 C364 1.481 . S
C349 C348 1.407 . S
C349 C350 1.364 . S
C349 H396 0.930 . S
C350 C349 1.364 . S
C350 C351 1.390 . S
C350 H397 0.931 . S
C351 C350 1.390 . S
C351 C352 1.346 . S
C351 H398 0.930 . S
C352 N347 1.342 . S
C352 C351 1.346 . S
C352 C368 1.516 . S
N353 Co345 1.958 . S
N353 C368 1.324 . S
N353 C370 1.427 . S
N354 C330 1.316 . S
N354 C331 1.436 . S
N354 Co345 1.953 . S
N355 C339 1.423 . S
N355 Co345 1.974 . S
N355 C385 1.309 . S
O356 Cd338 2.352 1_545 S
O356 C376 1.235 . S
O357 Cd337 2.329 . S
O357 C376 1.270 1_565 S
C358 O359 1.270 . S
C358 O360 1.248 . S
O359 Cd337 2.350 . S
O359 C358 1.270 . S
O360 Cd337 2.277 . S
O360 C358 1.248 . S
C361 O362 1.277 . S
C361 O363 1.230 . S
O362 Cd337 2.173 . S
O362 C361 1.277 . S
O363 Cd338 2.250 . S
O363 C361 1.230 . S
C364 N346 1.329 . S
C364 C348 1.481 . S
C364 O365 1.246 . S
O365 C364 1.246 . S
O366 Cd337 2.263 . S
O366 C378 1.258 . S
O367 Cd338 2.308 . S
O367 C378 1.274 . S
C368 C352 1.516 . S
C368 N353 1.324 . S
C368 O369 1.238 . S
O369 C368 1.238 . S
C370 N353 1.427 . S
C370 C371 1.394 . S
C370 C375 1.395 . S
C371 C370 1.394 . S
C371 C372 1.380 . S
C371 H399 0.929 . S
C372 C371 1.380 . S
C372 C373 1.384 . S
C372 C378 1.495 . S
C373 C372 1.384 . S
C373 C374 1.382 . S
C373 H400 0.930 . S
C374 C373 1.382 . S
C374 C375 1.398 . S
C375 C370 1.395 . S
C375 C374 1.398 . S
C375 H401 0.930 . S
C376 O356 1.235 . S
C376 O357 1.270 1_545 S
O377 C330 1.263 . S
O377 Cd337 2.366 . S
C378 O366 1.258 . S
C378 O367 1.274 . S
C378 C372 1.495 . S
C379 N346 1.432 . S
C379 C380 1.381 . S
C379 C384 1.385 . S
C380 C379 1.381 . S
C380 C381 1.371 . S
C380 H402 0.932 . S
C381 C380 1.371 . S
C381 C382 1.400 . S
C382 C381 1.400 . S
C382 C383 1.351 . S
C382 H403 0.930 . S
C383 C382 1.351 . S
C383 C384 1.388 . S
C384 C379 1.385 . S
C384 C383 1.388 . S
C384 H404 0.929 . S
C385 C324 1.504 . S
C385 N355 1.309 . S
C385 O386 1.258 . S
O386 C385 1.258 . S
H387 C325 0.929 . S
H388 C326 0.932 . S
H389 C327 0.931 . S
H390 C332 0.929 . S
H391 C334 0.929 . S
H392 C336 0.931 . S
H393 C341 0.929 . S
H394 C343 0.932 . S
H395 C344 0.931 . S
H396 C349 0.930 . S
H397 C350 0.931 . S
H398 C351 0.930 . S
H399 C371 0.929 . S
H400 C373 0.930 . S
H401 C375 0.930 . S
H402 C380 0.932 . S
H403 C382 0.930 . S
H404 C384 0.929 . S
C405 C406 1.359 . S
C405 N410 1.330 . S
C405 C466 1.504 . S
C406 C405 1.359 . S
C406 C407 1.366 . S
C406 H468 0.929 . S
C407 C406 1.366 . S
C407 C408 1.415 . S
C407 H469 0.932 . S
C408 C407 1.415 . S
C408 C409 1.366 . S
C408 H470 0.931 . S
C409 C408 1.366 . S
C409 N410 1.325 . S
C409 C411 1.516 . S
N410 C405 1.330 . S
N410 C409 1.325 . S
N410 Co426 1.869 . S
C411 C409 1.516 . S
C411 N435 1.316 . S
C411 O458 1.263 . S
C412 C413 1.421 . S
C412 C417 1.360 . S
C412 N435 1.436 . S
C413 C412 1.421 . S
C413 C414 1.379 . S
C413 H471 0.929 . S
C414 C413 1.379 . S
C414 C415 1.417 . S
C415 C414 1.417 . S
C415 C416 1.352 . S
C415 H472 0.929 . S
C416 C415 1.352 . S
C416 C417 1.393 . S
C417 C412 1.360 . S
C417 C416 1.393 . S
C417 H473 0.931 . S
Cd418 O438 2.329 . S
Cd418 O440 2.350 . S
Cd418 O441 2.277 . S
Cd418 O443 2.173 . S
Cd418 O447 2.263 . S
Cd418 O458 2.366 . S
Cd419 O437 2.352 . S
Cd419 O444 2.250 . S
Cd419 O448 2.308 . S
C420 C424 1.403 . S
C420 C425 1.370 . S
C420 N436 1.423 . S
C421 C422 1.389 . S
C421 C425 1.389 . S
C422 C421 1.389 . S
C422 C423 1.379 . S
C422 H474 0.929 . S
C423 C422 1.379 . S
C423 C424 1.405 . S
C424 C420 1.403 . S
C424 C423 1.405 . S
C424 H475 0.932 . S
C425 C420 1.370 . S
C425 C421 1.389 . S
C425 H476 0.931 . S
Co426 N410 1.869 . S
Co426 N427 1.955 . S
Co426 N428 1.864 . S
Co426 N434 1.958 . S
Co426 N435 1.953 . S
Co426 N436 1.974 . S
N427 Co426 1.955 . S
N427 C445 1.329 . S
N427 C460 1.432 . S
N428 Co426 1.864 . S
N428 C429 1.327 . S
N428 C433 1.342 . S
C429 N428 1.327 . S
C429 C430 1.407 . S
C429 C445 1.481 . S
C430 C429 1.407 . S
C430 C431 1.364 . S
C430 H477 0.930 . S
C431 C430 1.364 . S
C431 C432 1.390 . S
C431 H478 0.931 . S
C432 C431 1.390 . S
C432 C433 1.346 . S
C432 H479 0.930 . S
C433 N428 1.342 . S
C433 C432 1.346 . S
C433 C449 1.516 . S
N434 Co426 1.958 . S
N434 C449 1.324 . S
N434 C451 1.427 . S
N435 C411 1.316 . S
N435 C412 1.436 . S
N435 Co426 1.953 . S
N436 C420 1.423 . S
N436 Co426 1.974 . S
N436 C466 1.309 . S
O437 Cd419 2.352 . S
O437 C457 1.235 . S
O438 Cd418 2.329 . S
O438 C457 1.270 . S
C439 O440 1.270 . S
C439 O441 1.248 . S
O440 Cd418 2.350 . S
O440 C439 1.270 . S
O441 Cd418 2.277 . S
O441 C439 1.248 . S
C442 O443 1.277 . S
C442 O444 1.230 . S
O443 Cd418 2.173 . S
O443 C442 1.277 . S
O444 Cd419 2.250 . S
O444 C442 1.230 . S
C445 N427 1.329 . S
C445 C429 1.481 . S
C445 O446 1.246 . S
O446 C445 1.246 . S
O447 Cd418 2.263 . S
O447 C459 1.258 . S
O448 Cd419 2.308 . S
O448 C459 1.274 . S
C449 C433 1.516 . S
C449 N434 1.324 . S
C449 O450 1.238 . S
O450 C449 1.238 . S
C451 N434 1.427 . S
C451 C452 1.394 . S
C451 C456 1.395 . S
C452 C451 1.394 . S
C452 C453 1.380 . S
C452 H480 0.929 . S
C453 C452 1.380 . S
C453 C454 1.384 . S
C453 C459 1.495 . S
C454 C453 1.384 . S
C454 C455 1.382 . S
C454 H481 0.930 . S
C455 C454 1.382 . S
C455 C456 1.398 . S
C456 C451 1.395 . S
C456 C455 1.398 . S
C456 H482 0.930 . S
C457 O437 1.235 . S
C457 O438 1.270 . S
O458 C411 1.263 . S
O458 Cd418 2.366 . S
C459 O447 1.258 . S
C459 O448 1.274 . S
C459 C453 1.495 . S
C460 N427 1.432 . S
C460 C461 1.381 . S
C460 C465 1.385 . S
C461 C460 1.381 . S
C461 C462 1.371 . S
C461 H483 0.932 . S
C462 C461 1.371 . S
C462 C463 1.400 . S
C463 C462 1.400 . S
C463 C464 1.351 . S
C463 H484 0.930 . S
C464 C463 1.351 . S
C464 C465 1.388 . S
C465 C460 1.385 . S
C465 C464 1.388 . S
C465 H485 0.929 . S
C466 C405 1.504 . S
C466 N436 1.309 . S
C466 O467 1.258 . S
O467 C466 1.258 . S
H468 C406 0.929 . S
H469 C407 0.932 . S
H470 C408 0.931 . S
H471 C413 0.929 . S
H472 C415 0.929 . S
H473 C417 0.931 . S
H474 C422 0.929 . S
H475 C424 0.932 . S
H476 C425 0.931 . S
H477 C430 0.930 . S
H478 C431 0.931 . S
H479 C432 0.930 . S
H480 C452 0.929 . S
H481 C454 0.930 . S
H482 C456 0.930 . S
H483 C461 0.932 . S
H484 C463 0.930 . S
H485 C465 0.929 . S
C486 C487 1.359 . S
C486 N491 1.330 . S
C486 C547 1.504 . S
C487 C486 1.359 . S
C487 C488 1.366 . S
C487 H549 0.929 . S
C488 C487 1.366 . S
C488 C489 1.415 . S
C488 H550 0.932 . S
C489 C488 1.415 . S
C489 C490 1.366 . S
C489 H551 0.931 . S
C490 C489 1.366 . S
C490 N491 1.325 . S
C490 C492 1.516 . S
N491 C486 1.330 . S
N491 C490 1.325 . S
N491 Co507 1.869 . S
C492 C490 1.516 . S
C492 N516 1.316 . S
C492 O539 1.263 . S
C493 C494 1.421 . S
C493 C498 1.360 . S
C493 N516 1.436 . S
C494 C493 1.421 . S
C494 C495 1.379 . S
C494 H552 0.929 . S
C495 C494 1.379 . S
C495 C496 1.417 . S
C496 C495 1.417 . S
C496 C497 1.352 . S
C496 H553 0.929 . S
C497 C496 1.352 . S
C497 C498 1.393 . S
C498 C493 1.360 . S
C498 C497 1.393 . S
C498 H554 0.931 . S
Cd499 O519 2.329 . S
Cd499 O521 2.350 . S
Cd499 O522 2.277 . S
Cd499 O524 2.173 . S
Cd499 O528 2.263 . S
Cd499 O539 2.366 . S
Cd500 O518 2.352 1_565 S
Cd500 O525 2.250 . S
Cd500 O529 2.308 . S
C501 C505 1.403 . S
C501 C506 1.370 . S
C501 N517 1.423 . S
C502 C503 1.389 . S
C502 C506 1.389 . S
C503 C502 1.389 . S
C503 C504 1.379 . S
C503 H555 0.929 . S
C504 C503 1.379 . S
C504 C505 1.405 . S
C505 C501 1.403 . S
C505 C504 1.405 . S
C505 H556 0.932 . S
C506 C501 1.370 . S
C506 C502 1.389 . S
C506 H557 0.931 . S
Co507 N491 1.869 . S
Co507 N508 1.955 . S
Co507 N509 1.864 . S
Co507 N515 1.958 . S
Co507 N516 1.953 . S
Co507 N517 1.974 . S
N508 Co507 1.955 . S
N508 C526 1.329 . S
N508 C541 1.432 . S
N509 Co507 1.864 . S
N509 C510 1.327 . S
N509 C514 1.342 . S
C510 N509 1.327 . S
C510 C511 1.407 . S
C510 C526 1.481 . S
C511 C510 1.407 . S
C511 C512 1.364 . S
C511 H558 0.930 . S
C512 C511 1.364 . S
C512 C513 1.390 . S
C512 H559 0.931 . S
C513 C512 1.390 . S
C513 C514 1.346 . S
C513 H560 0.930 . S
C514 N509 1.342 . S
C514 C513 1.346 . S
C514 C530 1.516 . S
N515 Co507 1.958 . S
N515 C530 1.324 . S
N515 C532 1.427 . S
N516 C492 1.316 . S
N516 C493 1.436 . S
N516 Co507 1.953 . S
N517 C501 1.423 . S
N517 Co507 1.974 . S
N517 C547 1.309 . S
O518 Cd500 2.352 1_545 S
O518 C538 1.235 . S
O519 Cd499 2.329 . S
O519 C538 1.270 1_565 S
C520 O521 1.270 . S
C520 O522 1.248 . S
O521 Cd499 2.350 . S
O521 C520 1.270 . S
O522 Cd499 2.277 . S
O522 C520 1.248 . S
C523 O524 1.277 . S
C523 O525 1.230 . S
O524 Cd499 2.173 . S
O524 C523 1.277 . S
O525 Cd500 2.250 . S
O525 C523 1.230 . S
C526 N508 1.329 . S
C526 C510 1.481 . S
C526 O527 1.246 . S
O527 C526 1.246 . S
O528 Cd499 2.263 . S
O528 C540 1.258 . S
O529 Cd500 2.308 . S
O529 C540 1.274 . S
C530 C514 1.516 . S
C530 N515 1.324 . S
C530 O531 1.238 . S
O531 C530 1.238 . S
C532 N515 1.427 . S
C532 C533 1.394 . S
C532 C537 1.395 . S
C533 C532 1.394 . S
C533 C534 1.380 . S
C533 H561 0.929 . S
C534 C533 1.380 . S
C534 C535 1.384 . S
C534 C540 1.495 . S
C535 C534 1.384 . S
C535 C536 1.382 . S
C535 H562 0.930 . S
C536 C535 1.382 . S
C536 C537 1.398 . S
C537 C532 1.395 . S
C537 C536 1.398 . S
C537 H563 0.930 . S
C538 O518 1.235 . S
C538 O519 1.270 1_545 S
O539 C492 1.263 . S
O539 Cd499 2.366 . S
C540 O528 1.258 . S
C540 O529 1.274 . S
C540 C534 1.495 . S
C541 N508 1.432 . S
C541 C542 1.381 . S
C541 C546 1.385 . S
C542 C541 1.381 . S
C542 C543 1.371 . S
C542 H564 0.932 . S
C543 C542 1.371 . S
C543 C544 1.400 . S
C544 C543 1.400 . S
C544 C545 1.351 . S
C544 H565 0.930 . S
C545 C544 1.351 . S
C545 C546 1.388 . S
C546 C541 1.385 . S
C546 C545 1.388 . S
C546 H566 0.929 . S
C547 C486 1.504 . S
C547 N517 1.309 . S
C547 O548 1.258 . S
O548 C547 1.258 . S
H549 C487 0.929 . S
H550 C488 0.932 . S
H551 C489 0.931 . S
H552 C494 0.929 . S
H553 C496 0.929 . S
H554 C498 0.931 . S
H555 C503 0.929 . S
H556 C505 0.932 . S
H557 C506 0.931 . S
H558 C511 0.930 . S
H559 C512 0.931 . S
H560 C513 0.930 . S
H561 C533 0.929 . S
H562 C535 0.930 . S
H563 C537 0.930 . S
H564 C542 0.932 . S
H565 C544 0.930 . S
H566 C546 0.929 . S
C567 C568 1.359 . S
C567 N572 1.330 . S
C567 C628 1.504 . S
C568 C567 1.359 . S
C568 C569 1.366 . S
C568 H630 0.929 . S
C569 C568 1.366 . S
C569 C570 1.415 . S
C569 H631 0.932 . S
C570 C569 1.415 . S
C570 C571 1.366 . S
C570 H632 0.931 . S
C571 C570 1.366 . S
C571 N572 1.325 . S
C571 C573 1.516 . S
N572 C567 1.330 . S
N572 C571 1.325 . S
N572 Co588 1.869 . S
C573 C571 1.516 . S
C573 N597 1.316 . S
C573 O620 1.263 . S
C574 C575 1.421 . S
C574 C579 1.360 . S
C574 N597 1.436 . S
C575 C574 1.421 . S
C575 C576 1.379 . S
C575 H633 0.929 . S
C576 C575 1.379 . S
C576 C577 1.417 . S
C577 C576 1.417 . S
C577 C578 1.352 . S
C577 H634 0.929 . S
C578 C577 1.352 . S
C578 C579 1.393 . S
C579 C574 1.360 . S
C579 C578 1.393 . S
C579 H635 0.931 . S
Cd580 O600 2.329 . S
Cd580 O602 2.350 . S
Cd580 O603 2.277 . S
Cd580 O605 2.173 . S
Cd580 O609 2.263 . S
Cd580 O620 2.366 . S
Cd581 O599 2.352 . S
Cd581 O606 2.250 . S
Cd581 O610 2.308 . S
C582 C586 1.403 . S
C582 C587 1.370 . S
C582 N598 1.423 . S
C583 C584 1.389 . S
C583 C587 1.389 . S
C584 C583 1.389 . S
C584 C585 1.379 . S
C584 H636 0.929 . S
C585 C584 1.379 . S
C585 C586 1.405 . S
C586 C582 1.403 . S
C586 C585 1.405 . S
C586 H637 0.932 . S
C587 C582 1.370 . S
C587 C583 1.389 . S
C587 H638 0.931 . S
Co588 N572 1.869 . S
Co588 N589 1.955 . S
Co588 N590 1.864 . S
Co588 N596 1.958 . S
Co588 N597 1.953 . S
Co588 N598 1.974 . S
N589 Co588 1.955 . S
N589 C607 1.329 . S
N589 C622 1.432 . S
N590 Co588 1.864 . S
N590 C591 1.327 . S
N590 C595 1.342 . S
C591 N590 1.327 . S
C591 C592 1.407 . S
C591 C607 1.481 . S
C592 C591 1.407 . S
C592 C593 1.364 . S
C592 H639 0.930 . S
C593 C592 1.364 . S
C593 C594 1.390 . S
C593 H640 0.931 . S
C594 C593 1.390 . S
C594 C595 1.346 . S
C594 H641 0.930 . S
C595 N590 1.342 . S
C595 C594 1.346 . S
C595 C611 1.516 . S
N596 Co588 1.958 . S
N596 C611 1.324 . S
N596 C613 1.427 . S
N597 C573 1.316 . S
N597 C574 1.436 . S
N597 Co588 1.953 . S
N598 C582 1.423 . S
N598 Co588 1.974 . S
N598 C628 1.309 . S
O599 Cd581 2.352 . S
O599 C619 1.235 . S
O600 Cd580 2.329 . S
O600 C619 1.270 . S
C601 O602 1.270 . S
C601 O603 1.248 . S
O602 Cd580 2.350 . S
O602 C601 1.270 . S
O603 Cd580 2.277 . S
O603 C601 1.248 . S
C604 O605 1.277 . S
C604 O606 1.230 . S
O605 Cd580 2.173 . S
O605 C604 1.277 . S
O606 Cd581 2.250 . S
O606 C604 1.230 . S
C607 N589 1.329 . S
C607 C591 1.481 . S
C607 O608 1.246 . S
O608 C607 1.246 . S
O609 Cd580 2.263 . S
O609 C621 1.258 . S
O610 Cd581 2.308 . S
O610 C621 1.274 . S
C611 C595 1.516 . S
C611 N596 1.324 . S
C611 O612 1.238 . S
O612 C611 1.238 . S
C613 N596 1.427 . S
C613 C614 1.394 . S
C613 C618 1.395 . S
C614 C613 1.394 . S
C614 C615 1.380 . S
C614 H642 0.929 . S
C615 C614 1.380 . S
C615 C616 1.384 . S
C615 C621 1.495 . S
C616 C615 1.384 . S
C616 C617 1.382 . S
C616 H643 0.930 . S
C617 C616 1.382 . S
C617 C618 1.398 . S
C618 C613 1.395 . S
C618 C617 1.398 . S
C618 H644 0.930 . S
C619 O599 1.235 . S
C619 O600 1.270 . S
O620 C573 1.263 . S
O620 Cd580 2.366 . S
C621 O609 1.258 . S
C621 O610 1.274 . S
C621 C615 1.495 . S
C622 N589 1.432 . S
C622 C623 1.381 . S
C622 C627 1.385 . S
C623 C622 1.381 . S
C623 C624 1.371 . S
C623 H645 0.932 . S
C624 C623 1.371 . S
C624 C625 1.400 . S
C625 C624 1.400 . S
C625 C626 1.351 . S
C625 H646 0.930 . S
C626 C625 1.351 . S
C626 C627 1.388 . S
C627 C622 1.385 . S
C627 C626 1.388 . S
C627 H647 0.929 . S
C628 C567 1.504 . S
C628 N598 1.309 . S
C628 O629 1.258 . S
O629 C628 1.258 . S
H630 C568 0.929 . S
H631 C569 0.932 . S
H632 C570 0.931 . S
H633 C575 0.929 . S
H634 C577 0.929 . S
H635 C579 0.931 . S
H636 C584 0.929 . S
H637 C586 0.932 . S
H638 C587 0.931 . S
H639 C592 0.930 . S
H640 C593 0.931 . S
H641 C594 0.930 . S
H642 C614 0.929 . S
H643 C616 0.930 . S
H644 C618 0.930 . S
H645 C623 0.932 . S
H646 C625 0.930 . S
H647 C627 0.929 . S
C648 C649 1.359 . S
C648 N653 1.330 . S
C648 C709 1.504 . S
C649 C648 1.359 . S
C649 C650 1.366 . S
C649 H711 0.929 . S
C650 C649 1.366 . S
C650 C651 1.415 . S
C650 H712 0.932 . S
C651 C650 1.415 . S
C651 C652 1.366 . S
C651 H713 0.931 . S
C652 C651 1.366 . S
C652 N653 1.325 . S
C652 C654 1.516 . S
N653 C648 1.330 . S
N653 C652 1.325 . S
N653 Co669 1.869 . S
C654 C652 1.516 . S
C654 N678 1.316 . S
C654 O701 1.263 . S
C655 C656 1.421 . S
C655 C660 1.360 . S
C655 N678 1.436 . S
C656 C655 1.421 . S
C656 C657 1.379 . S
C656 H714 0.929 . S
C657 C656 1.379 . S
C657 C658 1.417 . S
C658 C657 1.417 . S
C658 C659 1.352 . S
C658 H715 0.929 . S
C659 C658 1.352 . S
C659 C660 1.393 . S
C660 C655 1.360 . S
C660 C659 1.393 . S
C660 H716 0.931 . S
Cd661 O681 2.329 . S
Cd661 O683 2.350 . S
Cd661 O684 2.277 . S
Cd661 O686 2.173 . S
Cd661 O690 2.263 . S
Cd661 O701 2.366 . S
Cd662 O680 2.352 1_455 S
Cd662 O687 2.250 . S
Cd662 O691 2.308 . S
C663 C667 1.403 . S
C663 C668 1.370 . S
C663 N679 1.423 . S
C664 C665 1.389 . S
C664 C668 1.389 . S
C665 C664 1.389 . S
C665 C666 1.379 . S
C665 H717 0.929 . S
C666 C665 1.379 . S
C666 C667 1.405 . S
C667 C663 1.403 . S
C667 C666 1.405 . S
C667 H718 0.932 . S
C668 C663 1.370 . S
C668 C664 1.389 . S
C668 H719 0.931 . S
Co669 N653 1.869 . S
Co669 N670 1.955 . S
Co669 N671 1.864 . S
Co669 N677 1.958 . S
Co669 N678 1.953 . S
Co669 N679 1.974 . S
N670 Co669 1.955 . S
N670 C688 1.329 . S
N670 C703 1.432 . S
N671 Co669 1.864 . S
N671 C672 1.327 . S
N671 C676 1.342 . S
C672 N671 1.327 . S
C672 C673 1.407 . S
C672 C688 1.481 . S
C673 C672 1.407 . S
C673 C674 1.364 . S
C673 H720 0.930 . S
C674 C673 1.364 . S
C674 C675 1.390 . S
C674 H721 0.931 . S
C675 C674 1.390 . S
C675 C676 1.346 . S
C675 H722 0.930 . S
C676 N671 1.342 . S
C676 C675 1.346 . S
C676 C692 1.516 . S
N677 Co669 1.958 . S
N677 C692 1.324 . S
N677 C694 1.427 . S
N678 C654 1.316 . S
N678 C655 1.436 . S
N678 Co669 1.953 . S
N679 C663 1.423 . S
N679 Co669 1.974 . S
N679 C709 1.309 . S
O680 Cd662 2.352 1_655 S
O680 C700 1.235 . S
O681 Cd661 2.329 . S
O681 C700 1.270 1_455 S
C682 O683 1.270 . S
C682 O684 1.248 . S
O683 Cd661 2.350 . S
O683 C682 1.270 . S
O684 Cd661 2.277 . S
O684 C682 1.248 . S
C685 O686 1.277 . S
C685 O687 1.230 . S
O686 Cd661 2.173 . S
O686 C685 1.277 . S
O687 Cd662 2.250 . S
O687 C685 1.230 . S
C688 N670 1.329 . S
C688 C672 1.481 . S
C688 O689 1.246 . S
O689 C688 1.246 . S
O690 Cd661 2.263 . S
O690 C702 1.258 . S
O691 Cd662 2.308 . S
O691 C702 1.274 . S
C692 C676 1.516 . S
C692 N677 1.324 . S
C692 O693 1.238 . S
O693 C692 1.238 . S
C694 N677 1.427 . S
C694 C695 1.394 . S
C694 C699 1.395 . S
C695 C694 1.394 . S
C695 C696 1.380 . S
C695 H723 0.929 . S
C696 C695 1.380 . S
C696 C697 1.384 . S
C696 C702 1.495 . S
C697 C696 1.384 . S
C697 C698 1.382 . S
C697 H724 0.930 . S
C698 C697 1.382 . S
C698 C699 1.398 . S
C699 C694 1.395 . S
C699 C698 1.398 . S
C699 H725 0.930 . S
C700 O680 1.235 . S
C700 O681 1.270 1_655 S
O701 C654 1.263 . S
O701 Cd661 2.366 . S
C702 O690 1.258 . S
C702 O691 1.274 . S
C702 C696 1.495 . S
C703 N670 1.432 . S
C703 C704 1.381 . S
C703 C708 1.385 . S
C704 C703 1.381 . S
C704 C705 1.371 . S
C704 H726 0.932 . S
C705 C704 1.371 . S
C705 C706 1.400 . S
C706 C705 1.400 . S
C706 C707 1.351 . S
C706 H727 0.930 . S
C707 C706 1.351 . S
C707 C708 1.388 . S
C708 C703 1.385 . S
C708 C707 1.388 . S
C708 H728 0.929 . S
C709 C648 1.504 . S
C709 N679 1.309 . S
C709 O710 1.258 . S
O710 C709 1.258 . S
H711 C649 0.929 . S
H712 C650 0.932 . S
H713 C651 0.931 . S
H714 C656 0.929 . S
H715 C658 0.929 . S
H716 C660 0.931 . S
H717 C665 0.929 . S
H718 C667 0.932 . S
H719 C668 0.931 . S
H720 C673 0.930 . S
H721 C674 0.931 . S
H722 C675 0.930 . S
H723 C695 0.929 . S
H724 C697 0.930 . S
H725 C699 0.930 . S
H726 C704 0.932 . S
H727 C706 0.930 . S
H728 C708 0.929 . S
C729 C730 1.359 . S
C729 N734 1.330 . S
C729 C790 1.504 . S
C730 C729 1.359 . S
C730 C731 1.366 . S
C730 H792 0.929 . S
C731 C730 1.366 . S
C731 C732 1.415 . S
C731 H793 0.932 . S
C732 C731 1.415 . S
C732 C733 1.366 . S
C732 H794 0.931 . S
C733 C732 1.366 . S
C733 N734 1.325 . S
C733 C735 1.516 . S
N734 C729 1.330 . S
N734 C733 1.325 . S
N734 Co750 1.869 . S
C735 C733 1.516 . S
C735 N759 1.316 . S
C735 O782 1.263 . S
C736 C737 1.421 . S
C736 C741 1.360 . S
C736 N759 1.436 . S
C737 C736 1.421 . S
C737 C738 1.379 . S
C737 H795 0.929 . S
C738 C737 1.379 . S
C738 C739 1.417 . S
C739 C738 1.417 . S
C739 C740 1.352 . S
C739 H796 0.929 . S
C740 C739 1.352 . S
C740 C741 1.393 . S
C741 C736 1.360 . S
C741 C740 1.393 . S
C741 H797 0.931 . S
Cd742 O762 2.329 . S
Cd742 O764 2.350 . S
Cd742 O765 2.277 . S
Cd742 O767 2.173 . S
Cd742 O771 2.263 . S
Cd742 O782 2.366 . S
Cd743 O761 2.352 1_545 S
Cd743 O768 2.250 . S
Cd743 O772 2.308 . S
C744 C748 1.403 . S
C744 C749 1.370 . S
C744 N760 1.423 . S
C745 C746 1.389 . S
C745 C749 1.389 . S
C746 C745 1.389 . S
C746 C747 1.379 . S
C746 H798 0.929 . S
C747 C746 1.379 . S
C747 C748 1.405 . S
C748 C744 1.403 . S
C748 C747 1.405 . S
C748 H799 0.932 . S
C749 C744 1.370 . S
C749 C745 1.389 . S
C749 H800 0.931 . S
Co750 N734 1.869 . S
Co750 N751 1.955 . S
Co750 N752 1.864 . S
Co750 N758 1.958 . S
Co750 N759 1.953 . S
Co750 N760 1.974 . S
N751 Co750 1.955 . S
N751 C769 1.329 . S
N751 C784 1.432 . S
N752 Co750 1.864 . S
N752 C753 1.327 . S
N752 C757 1.342 . S
C753 N752 1.327 . S
C753 C754 1.407 . S
C753 C769 1.481 . S
C754 C753 1.407 . S
C754 C755 1.364 . S
C754 H801 0.930 . S
C755 C754 1.364 . S
C755 C756 1.390 . S
C755 H802 0.931 . S
C756 C755 1.390 . S
C756 C757 1.346 . S
C756 H803 0.930 . S
C757 N752 1.342 . S
C757 C756 1.346 . S
C757 C773 1.516 . S
N758 Co750 1.958 . S
N758 C773 1.324 . S
N758 C775 1.427 . S
N759 C735 1.316 . S
N759 C736 1.436 . S
N759 Co750 1.953 . S
N760 C744 1.423 . S
N760 Co750 1.974 . S
N760 C790 1.309 . S
O761 Cd743 2.352 1_565 S
O761 C781 1.235 . S
O762 Cd742 2.329 . S
O762 C781 1.270 1_545 S
C763 O764 1.270 . S
C763 O765 1.248 . S
O764 Cd742 2.350 . S
O764 C763 1.270 . S
O765 Cd742 2.277 . S
O765 C763 1.248 . S
C766 O767 1.277 . S
C766 O768 1.230 . S
O767 Cd742 2.173 . S
O767 C766 1.277 . S
O768 Cd743 2.250 . S
O768 C766 1.230 . S
C769 N751 1.329 . S
C769 C753 1.481 . S
C769 O770 1.246 . S
O770 C769 1.246 . S
O771 Cd742 2.263 . S
O771 C783 1.258 . S
O772 Cd743 2.308 . S
O772 C783 1.274 . S
C773 C757 1.516 . S
C773 N758 1.324 . S
C773 O774 1.238 . S
O774 C773 1.238 . S
C775 N758 1.427 . S
C775 C776 1.394 . S
C775 C780 1.395 . S
C776 C775 1.394 . S
C776 C777 1.380 . S
C776 H804 0.929 . S
C777 C776 1.380 . S
C777 C778 1.384 . S
C777 C783 1.495 . S
C778 C777 1.384 . S
C778 C779 1.382 . S
C778 H805 0.930 . S
C779 C778 1.382 . S
C779 C780 1.398 . S
C780 C775 1.395 . S
C780 C779 1.398 . S
C780 H806 0.930 . S
C781 O761 1.235 . S
C781 O762 1.270 1_565 S
O782 C735 1.263 . S
O782 Cd742 2.366 . S
C783 O771 1.258 . S
C783 O772 1.274 . S
C783 C777 1.495 . S
C784 N751 1.432 . S
C784 C785 1.381 . S
C784 C789 1.385 . S
C785 C784 1.381 . S
C785 C786 1.371 . S
C785 H807 0.932 . S
C786 C785 1.371 . S
C786 C787 1.400 . S
C787 C786 1.400 . S
C787 C788 1.351 . S
C787 H808 0.930 . S
C788 C787 1.351 . S
C788 C789 1.388 . S
C789 C784 1.385 . S
C789 C788 1.388 . S
C789 H809 0.929 . S
C790 C729 1.504 . S
C790 N760 1.309 . S
C790 O791 1.258 . S
O791 C790 1.258 . S
H792 C730 0.929 . S
H793 C731 0.932 . S
H794 C732 0.931 . S
H795 C737 0.929 . S
H796 C739 0.929 . S
H797 C741 0.931 . S
H798 C746 0.929 . S
H799 C748 0.932 . S
H800 C749 0.931 . S
H801 C754 0.930 . S
H802 C755 0.931 . S
H803 C756 0.930 . S
H804 C776 0.929 . S
H805 C778 0.930 . S
H806 C780 0.930 . S
H807 C785 0.932 . S
H808 C787 0.930 . S
H809 C789 0.929 . S
C810 C811 1.359 . S
C810 N815 1.330 . S
C810 C871 1.504 . S
C811 C810 1.359 . S
C811 C812 1.366 . S
C811 H873 0.929 . S
C812 C811 1.366 . S
C812 C813 1.415 . S
C812 H874 0.932 . S
C813 C812 1.415 . S
C813 C814 1.366 . S
C813 H875 0.931 . S
C814 C813 1.366 . S
C814 N815 1.325 . S
C814 C816 1.516 . S
N815 C810 1.330 . S
N815 C814 1.325 . S
N815 Co831 1.869 . S
C816 C814 1.516 . S
C816 N840 1.316 . S
C816 O863 1.263 . S
C817 C818 1.421 . S
C817 C822 1.360 . S
C817 N840 1.436 . S
C818 C817 1.421 . S
C818 C819 1.379 . S
C818 H876 0.929 . S
C819 C818 1.379 . S
C819 C820 1.417 . S
C820 C819 1.417 . S
C820 C821 1.352 . S
C820 H877 0.929 . S
C821 C820 1.352 . S
C821 C822 1.393 . S
C822 C817 1.360 . S
C822 C821 1.393 . S
C822 H878 0.931 . S
Cd823 O843 2.329 . S
Cd823 O845 2.350 . S
Cd823 O846 2.277 . S
Cd823 O848 2.173 . S
Cd823 O852 2.263 . S
Cd823 O863 2.366 . S
Cd824 O842 2.352 . S
Cd824 O849 2.250 . S
Cd824 O853 2.308 . S
C825 C829 1.403 . S
C825 C830 1.370 . S
C825 N841 1.423 . S
C826 C827 1.389 . S
C826 C830 1.389 . S
C827 C826 1.389 . S
C827 C828 1.379 . S
C827 H879 0.929 . S
C828 C827 1.379 . S
C828 C829 1.405 . S
C829 C825 1.403 . S
C829 C828 1.405 . S
C829 H880 0.932 . S
C830 C825 1.370 . S
C830 C826 1.389 . S
C830 H881 0.931 . S
Co831 N815 1.869 . S
Co831 N832 1.955 . S
Co831 N833 1.864 . S
Co831 N839 1.958 . S
Co831 N840 1.953 . S
Co831 N841 1.974 . S
N832 Co831 1.955 . S
N832 C850 1.329 . S
N832 C865 1.432 . S
N833 Co831 1.864 . S
N833 C834 1.327 . S
N833 C838 1.342 . S
C834 N833 1.327 . S
C834 C835 1.407 . S
C834 C850 1.481 . S
C835 C834 1.407 . S
C835 C836 1.364 . S
C835 H882 0.930 . S
C836 C835 1.364 . S
C836 C837 1.390 . S
C836 H883 0.931 . S
C837 C836 1.390 . S
C837 C838 1.346 . S
C837 H884 0.930 . S
C838 N833 1.342 . S
C838 C837 1.346 . S
C838 C854 1.516 . S
N839 Co831 1.958 . S
N839 C854 1.324 . S
N839 C856 1.427 . S
N840 C816 1.316 . S
N840 C817 1.436 . S
N840 Co831 1.953 . S
N841 C825 1.423 . S
N841 Co831 1.974 . S
N841 C871 1.309 . S
O842 Cd824 2.352 . S
O842 C862 1.235 . S
O843 Cd823 2.329 . S
O843 C862 1.270 . S
C844 O845 1.270 . S
C844 O846 1.248 . S
O845 Cd823 2.350 . S
O845 C844 1.270 . S
O846 Cd823 2.277 . S
O846 C844 1.248 . S
C847 O848 1.277 . S
C847 O849 1.230 . S
O848 Cd823 2.173 . S
O848 C847 1.277 . S
O849 Cd824 2.250 . S
O849 C847 1.230 . S
C850 N832 1.329 . S
C850 C834 1.481 . S
C850 O851 1.246 . S
O851 C850 1.246 . S
O852 Cd823 2.263 . S
O852 C864 1.258 . S
O853 Cd824 2.308 . S
O853 C864 1.274 . S
C854 C838 1.516 . S
C854 N839 1.324 . S
C854 O855 1.238 . S
O855 C854 1.238 . S
C856 N839 1.427 . S
C856 C857 1.394 . S
C856 C861 1.395 . S
C857 C856 1.394 . S
C857 C858 1.380 . S
C857 H885 0.929 . S
C858 C857 1.380 . S
C858 C859 1.384 . S
C858 C864 1.495 . S
C859 C858 1.384 . S
C859 C860 1.382 . S
C859 H886 0.930 . S
C860 C859 1.382 . S
C860 C861 1.398 . S
C861 C856 1.395 . S
C861 C860 1.398 . S
C861 H887 0.930 . S
C862 O842 1.235 . S
C862 O843 1.270 . S
O863 C816 1.263 . S
O863 Cd823 2.366 . S
C864 O852 1.258 . S
C864 O853 1.274 . S
C864 C858 1.495 . S
C865 N832 1.432 . S
C865 C866 1.381 . S
C865 C870 1.385 . S
C866 C865 1.381 . S
C866 C867 1.371 . S
C866 H888 0.932 . S
C867 C866 1.371 . S
C867 C868 1.400 . S
C868 C867 1.400 . S
C868 C869 1.351 . S
C868 H889 0.930 . S
C869 C868 1.351 . S
C869 C870 1.388 . S
C870 C865 1.385 . S
C870 C869 1.388 . S
C870 H890 0.929 . S
C871 C810 1.504 . S
C871 N841 1.309 . S
C871 O872 1.258 . S
O872 C871 1.258 . S
H873 C811 0.929 . S
H874 C812 0.932 . S
H875 C813 0.931 . S
H876 C818 0.929 . S
H877 C820 0.929 . S
H878 C822 0.931 . S
H879 C827 0.929 . S
H880 C829 0.932 . S
H881 C830 0.931 . S
H882 C835 0.930 . S
H883 C836 0.931 . S
H884 C837 0.930 . S
H885 C857 0.929 . S
H886 C859 0.930 . S
H887 C861 0.930 . S
H888 C866 0.932 . S
H889 C868 0.930 . S
H890 C870 0.929 . S
C891 C892 1.359 . S
C891 N896 1.330 . S
C891 C952 1.504 . S
C892 C891 1.359 . S
C892 C893 1.366 . S
C892 H954 0.929 . S
C893 C892 1.366 . S
C893 C894 1.415 . S
C893 H955 0.932 . S
C894 C893 1.415 . S
C894 C895 1.366 . S
C894 H956 0.931 . S
C895 C894 1.366 . S
C895 N896 1.325 . S
C895 C897 1.516 . S
N896 C891 1.330 . S
N896 C895 1.325 . S
N896 Co912 1.869 . S
C897 C895 1.516 . S
C897 N921 1.316 . S
C897 O944 1.263 . S
C898 C899 1.421 . S
C898 C903 1.360 . S
C898 N921 1.436 . S
C899 C898 1.421 . S
C899 C900 1.379 . S
C899 H957 0.929 . S
C900 C899 1.379 . S
C900 C901 1.417 . S
C901 C900 1.417 . S
C901 C902 1.352 . S
C901 H958 0.929 . S
C902 C901 1.352 . S
C902 C903 1.393 . S
C903 C898 1.360 . S
C903 C902 1.393 . S
C903 H959 0.931 . S
Cd904 O924 2.329 . S
Cd904 O926 2.350 . S
Cd904 O927 2.277 . S
Cd904 O929 2.173 . S
Cd904 O933 2.263 . S
Cd904 O944 2.366 . S
Cd905 O923 2.352 1_655 S
Cd905 O930 2.250 . S
Cd905 O934 2.308 . S
C906 C910 1.403 . S
C906 C911 1.370 . S
C906 N922 1.423 . S
C907 C908 1.389 . S
C907 C911 1.389 . S
C908 C907 1.389 . S
C908 C909 1.379 . S
C908 H960 0.929 . S
C909 C908 1.379 . S
C909 C910 1.405 . S
C910 C906 1.403 . S
C910 C909 1.405 . S
C910 H961 0.932 . S
C911 C906 1.370 . S
C911 C907 1.389 . S
C911 H962 0.931 . S
Co912 N896 1.869 . S
Co912 N913 1.955 . S
Co912 N914 1.864 . S
Co912 N920 1.958 . S
Co912 N921 1.953 . S
Co912 N922 1.974 . S
N913 Co912 1.955 . S
N913 C931 1.329 . S
N913 C946 1.432 . S
N914 Co912 1.864 . S
N914 C915 1.327 . S
N914 C919 1.342 . S
C915 N914 1.327 . S
C915 C916 1.407 . S
C915 C931 1.481 . S
C916 C915 1.407 . S
C916 C917 1.364 . S
C916 H963 0.930 . S
C917 C916 1.364 . S
C917 C918 1.390 . S
C917 H964 0.931 . S
C918 C917 1.390 . S
C918 C919 1.346 . S
C918 H965 0.930 . S
C919 N914 1.342 . S
C919 C918 1.346 . S
C919 C935 1.516 . S
N920 Co912 1.958 . S
N920 C935 1.324 . S
N920 C937 1.427 . S
N921 C897 1.316 . S
N921 C898 1.436 . S
N921 Co912 1.953 . S
N922 C906 1.423 . S
N922 Co912 1.974 . S
N922 C952 1.309 . S
O923 Cd905 2.352 1_455 S
O923 C943 1.235 . S
O924 Cd904 2.329 . S
O924 C943 1.270 1_655 S
C925 O926 1.270 . S
C925 O927 1.248 . S
O926 Cd904 2.350 . S
O926 C925 1.270 . S
O927 Cd904 2.277 . S
O927 C925 1.248 . S
C928 O929 1.277 . S
C928 O930 1.230 . S
O929 Cd904 2.173 . S
O929 C928 1.277 . S
O930 Cd905 2.250 . S
O930 C928 1.230 . S
C931 N913 1.329 . S
C931 C915 1.481 . S
C931 O932 1.246 . S
O932 C931 1.246 . S
O933 Cd904 2.263 . S
O933 C945 1.258 . S
O934 Cd905 2.308 . S
O934 C945 1.274 . S
C935 C919 1.516 . S
C935 N920 1.324 . S
C935 O936 1.238 . S
O936 C935 1.238 . S
C937 N920 1.427 . S
C937 C938 1.394 . S
C937 C942 1.395 . S
C938 C937 1.394 . S
C938 C939 1.380 . S
C938 H966 0.929 . S
C939 C938 1.380 . S
C939 C940 1.384 . S
C939 C945 1.495 . S
C940 C939 1.384 . S
C940 C941 1.382 . S
C940 H967 0.930 . S
C941 C940 1.382 . S
C941 C942 1.398 . S
C942 C937 1.395 . S
C942 C941 1.398 . S
C942 H968 0.930 . S
C943 O923 1.235 . S
C943 O924 1.270 1_455 S
O944 C897 1.263 . S
O944 Cd904 2.366 . S
C945 O933 1.258 . S
C945 O934 1.274 . S
C945 C939 1.495 . S
C946 N913 1.432 . S
C946 C947 1.381 . S
C946 C951 1.385 . S
C947 C946 1.381 . S
C947 C948 1.371 . S
C947 H969 0.932 . S
C948 C947 1.371 . S
C948 C949 1.400 . S
C949 C948 1.400 . S
C949 C950 1.351 . S
C949 H970 0.930 . S
C950 C949 1.351 . S
C950 C951 1.388 . S
C951 C946 1.385 . S
C951 C950 1.388 . S
C951 H971 0.929 . S
C952 C891 1.504 . S
C952 N922 1.309 . S
C952 O953 1.258 . S
O953 C952 1.258 . S
H954 C892 0.929 . S
H955 C893 0.932 . S
H956 C894 0.931 . S
H957 C899 0.929 . S
H958 C901 0.929 . S
H959 C903 0.931 . S
H960 C908 0.929 . S
H961 C910 0.932 . S
H962 C911 0.931 . S
H963 C916 0.930 . S
H964 C917 0.931 . S
H965 C918 0.930 . S
H966 C938 0.929 . S
H967 C940 0.930 . S
H968 C942 0.930 . S
H969 C947 0.932 . S
H970 C949 0.930 . S
H971 C951 0.929 . S
C972 C973 1.387 . S
C972 H976 0.950 . S
C972 C981 1.390 . S
C973 C972 1.387 . S
C973 C975 1.387 . S
H974 C981 0.950 . S
C975 C973 1.387 . S
C975 C977 1.390 . S
C975 H979 0.950 . S
H976 C972 0.950 . S
C977 C975 1.390 . S
C977 C978 1.387 . S
C977 H980 0.950 . S
C978 C977 1.387 . S
C978 C981 1.387 . S
H979 C975 0.950 . S
H980 C977 0.950 . S
C981 C972 1.390 . S
C981 H974 0.950 . S
C981 C978 1.387 . S
C982 C983 1.387 . S
C982 H986 0.950 . S
C982 C991 1.390 . S
C983 C982 1.387 . S
C983 C985 1.387 . S
H984 C991 0.950 . S
C985 C983 1.387 . S
C985 C987 1.390 . S
C985 H989 0.950 . S
H986 C982 0.950 . S
C987 C985 1.390 . S
C987 C988 1.387 . S
C987 H990 0.950 . S
C988 C987 1.387 . S
C988 C991 1.387 . S
H989 C985 0.950 . S
H990 C987 0.950 . S
C991 C982 1.390 . S
C991 H984 0.950 . S
C991 C988 1.387 . S
C992 C993 1.387 . S
C992 H996 0.950 . S
C992 C1001 1.390 . S
C993 C992 1.387 . S
C993 C995 1.387 . S
H994 C1001 0.950 . S
C995 C993 1.387 . S
C995 C997 1.390 . S
C995 H999 0.950 . S
H996 C992 0.950 . S
C997 C995 1.390 . S
C997 C998 1.387 . S
C997 H1000 0.950 . S
C998 C997 1.387 . S
C998 C1001 1.387 . S
H999 C995 0.950 . S
H1000 C997 0.950 . S
C1001 C992 1.390 . S
C1001 H994 0.950 . S
C1001 C998 1.387 . S
C1002 C1003 1.387 . S
C1002 H1006 0.950 . S
C1002 C1011 1.390 . S
C1003 C1002 1.387 . S
C1003 C1005 1.387 . S
H1004 C1011 0.950 . S
C1005 C1003 1.387 . S
C1005 C1007 1.390 . S
C1005 H1009 0.950 . S
H1006 C1002 0.950 . S
C1007 C1005 1.390 . S
C1007 C1008 1.387 . S
C1007 H1010 0.950 . S
C1008 C1007 1.387 . S
C1008 C1011 1.387 . S
H1009 C1005 0.950 . S
H1010 C1007 0.950 . S
C1011 C1002 1.390 . S
C1011 H1004 0.950 . S
C1011 C1008 1.387 . S
C1012 C1013 1.387 . S
C1012 H1016 0.950 . S
C1012 C1021 1.390 . S
C1013 C1012 1.387 . S
C1013 C1015 1.387 . S
H1014 C1021 0.950 . S
C1015 C1013 1.387 . S
C1015 C1017 1.390 . S
C1015 H1019 0.950 . S
H1016 C1012 0.950 . S
C1017 C1015 1.390 . S
C1017 C1018 1.387 . S
C1017 H1020 0.950 . S
C1018 C1017 1.387 . S
C1018 C1021 1.387 . S
H1019 C1015 0.950 . S
H1020 C1017 0.950 . S
C1021 C1012 1.390 . S
C1021 H1014 0.950 . S
C1021 C1018 1.387 . S
C1022 C1023 1.387 . S
C1022 H1026 0.950 . S
C1022 C1031 1.390 . S
C1023 C1022 1.387 . S
C1023 C1025 1.387 . S
H1024 C1031 0.950 . S
C1025 C1023 1.387 . S
C1025 C1027 1.390 . S
C1025 H1029 0.950 . S
H1026 C1022 0.950 . S
C1027 C1025 1.390 . S
C1027 C1028 1.387 . S
C1027 H1030 0.950 . S
C1028 C1027 1.387 . S
C1028 C1031 1.387 . S
H1029 C1025 0.950 . S
H1030 C1027 0.950 . S
C1031 C1022 1.390 . S
C1031 H1024 0.950 . S
C1031 C1028 1.387 . S
C1032 C1033 1.387 . S
C1032 H1036 0.950 . S
C1032 C1041 1.390 . S
C1033 C1032 1.387 . S
C1033 C1035 1.387 . S
H1034 C1041 0.950 . S
C1035 C1033 1.387 . S
C1035 C1037 1.390 . S
C1035 H1039 0.950 . S
H1036 C1032 0.950 . S
C1037 C1035 1.390 . S
C1037 C1038 1.387 . S
C1037 H1040 0.950 . S
C1038 C1037 1.387 . S
C1038 C1041 1.387 . S
H1039 C1035 0.950 . S
H1040 C1037 0.950 . S
C1041 C1032 1.390 . S
C1041 H1034 0.950 . S
C1041 C1038 1.387 . S
C1042 C1043 1.387 . S
C1042 H1046 0.950 . S
C1042 C1051 1.390 . S
C1043 C1042 1.387 . S
C1043 C1045 1.387 . S
H1044 C1051 0.950 . S
C1045 C1043 1.387 . S
C1045 C1047 1.390 . S
C1045 H1049 0.950 . S
H1046 C1042 0.950 . S
C1047 C1045 1.390 . S
C1047 C1048 1.387 . S
C1047 H1050 0.950 . S
C1048 C1047 1.387 . S
C1048 C1051 1.387 . S
H1049 C1045 0.950 . S
H1050 C1047 0.950 . S
C1051 C1042 1.390 . S
C1051 H1044 0.950 . S
C1051 C1048 1.387 . S
C1052 C1053 1.387 . S
C1052 H1056 0.950 . S
C1052 C1061 1.390 . S
C1053 C1052 1.387 . S
C1053 C1055 1.387 . S
H1054 C1061 0.950 . S
C1055 C1053 1.387 . S
C1055 C1057 1.390 . S
C1055 H1059 0.950 . S
H1056 C1052 0.950 . S
C1057 C1055 1.390 . S
C1057 C1058 1.387 . S
C1057 H1060 0.950 . S
C1058 C1057 1.387 . S
C1058 C1061 1.387 . S
H1059 C1055 0.950 . S
H1060 C1057 0.950 . S
C1061 C1052 1.390 . S
C1061 H1054 0.950 . S
C1061 C1058 1.387 . S
C1062 C1063 1.387 . S
C1062 H1066 0.950 . S
C1062 C1071 1.390 . S
C1063 C1062 1.387 . S
C1063 C1065 1.387 . S
H1064 C1071 0.950 . S
C1065 C1063 1.387 . S
C1065 C1067 1.390 . S
C1065 H1069 0.950 . S
H1066 C1062 0.950 . S
C1067 C1065 1.390 . S
C1067 C1068 1.387 . S
C1067 H1070 0.950 . S
C1068 C1067 1.387 . S
C1068 C1071 1.387 . S
H1069 C1065 0.950 . S
H1070 C1067 0.950 . S
C1071 C1062 1.390 . S
C1071 H1064 0.950 . S
C1071 C1068 1.387 . S
C1072 C1073 1.387 . S
C1072 H1076 0.950 . S
C1072 C1081 1.390 . S
C1073 C1072 1.387 . S
C1073 C1075 1.387 . S
H1074 C1081 0.950 . S
C1075 C1073 1.387 . S
C1075 C1077 1.390 . S
C1075 H1079 0.950 . S
H1076 C1072 0.950 . S
C1077 C1075 1.390 . S
C1077 C1078 1.387 . S
C1077 H1080 0.950 . S
C1078 C1077 1.387 . S
C1078 C1081 1.387 . S
H1079 C1075 0.950 . S
H1080 C1077 0.950 . S
C1081 C1072 1.390 . S
C1081 H1074 0.950 . S
C1081 C1078 1.387 . S
C1082 C1083 1.387 . S
C1082 H1086 0.950 . S
C1082 C1091 1.390 . S
C1083 C1082 1.387 . S
C1083 C1085 1.387 . S
H1084 C1091 0.950 . S
C1085 C1083 1.387 . S
C1085 C1087 1.390 . S
C1085 H1089 0.950 . S
H1086 C1082 0.950 . S
C1087 C1085 1.390 . S
C1087 C1088 1.387 . S
C1087 H1090 0.950 . S
C1088 C1087 1.387 . S
C1088 C1091 1.387 . S
H1089 C1085 0.950 . S
H1090 C1087 0.950 . S
C1091 C1082 1.390 . S
C1091 H1084 0.950 . S
C1091 C1088 1.387 . S
C1092 C1093 1.387 . S
C1092 H1096 0.950 . S
C1092 C1101 1.390 . S
C1093 C1092 1.387 . S
C1093 C1095 1.387 . S
H1094 C1101 0.950 . S
C1095 C1093 1.387 . S
C1095 C1097 1.390 . S
C1095 H1099 0.950 . S
H1096 C1092 0.950 . S
C1097 C1095 1.390 . S
C1097 C1098 1.387 . S
C1097 H1100 0.950 . S
C1098 C1097 1.387 . S
C1098 C1101 1.387 . S
H1099 C1095 0.950 . S
H1100 C1097 0.950 . S
C1101 C1092 1.390 . S
C1101 H1094 0.950 . S
C1101 C1098 1.387 . S
C1102 C1103 1.387 . S
C1102 H1106 0.950 . S
C1102 C1111 1.390 . S
C1103 C1102 1.387 . S
C1103 C1105 1.387 . S
H1104 C1111 0.950 . S
C1105 C1103 1.387 . S
C1105 C1107 1.390 . S
C1105 H1109 0.950 . S
H1106 C1102 0.950 . S
C1107 C1105 1.390 . S
C1107 C1108 1.387 . S
C1107 H1110 0.950 . S
C1108 C1107 1.387 . S
C1108 C1111 1.387 . S
H1109 C1105 0.950 . S
H1110 C1107 0.950 . S
C1111 C1102 1.390 . S
C1111 H1104 0.950 . S
C1111 C1108 1.387 . S
C1112 C1113 1.387 . S
C1112 H1116 0.950 . S
C1112 C1121 1.390 . S
C1113 C1112 1.387 . S
C1113 C1115 1.387 . S
H1114 C1121 0.950 . S
C1115 C1113 1.387 . S
C1115 C1117 1.390 . S
C1115 H1119 0.950 . S
H1116 C1112 0.950 . S
C1117 C1115 1.390 . S
C1117 C1118 1.387 . S
C1117 H1120 0.950 . S
C1118 C1117 1.387 . S
C1118 C1121 1.387 . S
H1119 C1115 0.950 . S
H1120 C1117 0.950 . S
C1121 C1112 1.390 . S
C1121 H1114 0.950 . S
C1121 C1118 1.387 . S
C1122 C1123 1.387 . S
C1122 H1126 0.950 . S
C1122 C1131 1.390 . S
C1123 C1122 1.387 . S
C1123 C1125 1.387 . S
H1124 C1131 0.950 . S
C1125 C1123 1.387 . S
C1125 C1127 1.390 . S
C1125 H1129 0.950 . S
H1126 C1122 0.950 . S
C1127 C1125 1.390 . S
C1127 C1128 1.387 . S
C1127 H1130 0.950 . S
C1128 C1127 1.387 . S
C1128 C1131 1.387 . S
H1129 C1125 0.950 . S
H1130 C1127 0.950 . S
C1131 C1122 1.390 . S
C1131 H1124 0.950 . S
C1131 C1128 1.387 . S
C1132 C1133 1.387 . S
C1132 H1136 0.950 . S
C1132 C1141 1.390 . S
C1133 C1132 1.387 . S
C1133 C1135 1.387 . S
H1134 C1141 0.950 . S
C1135 C1133 1.387 . S
C1135 C1137 1.390 . S
C1135 H1139 0.950 . S
H1136 C1132 0.950 . S
C1137 C1135 1.390 . S
C1137 C1138 1.387 . S
C1137 H1140 0.950 . S
C1138 C1137 1.387 . S
C1138 C1141 1.387 . S
H1139 C1135 0.950 . S
H1140 C1137 0.950 . S
C1141 C1132 1.390 . S
C1141 H1134 0.950 . S
C1141 C1138 1.387 . S
C1142 C1143 1.387 . S
C1142 H1146 0.950 . S
C1142 C1151 1.390 . S
C1143 C1142 1.387 . S
C1143 C1145 1.387 . S
H1144 C1151 0.950 . S
C1145 C1143 1.387 . S
C1145 C1147 1.390 . S
C1145 H1149 0.950 . S
H1146 C1142 0.950 . S
C1147 C1145 1.390 . S
C1147 C1148 1.387 . S
C1147 H1150 0.950 . S
C1148 C1147 1.387 . S
C1148 C1151 1.387 . S
H1149 C1145 0.950 . S
H1150 C1147 0.950 . S
C1151 C1142 1.390 . S
C1151 H1144 0.950 . S
C1151 C1148 1.387 . S
C1152 C1153 1.387 . S
C1152 H1156 0.950 . S
C1152 C1161 1.390 . S
C1153 C1152 1.387 . S
C1153 C1155 1.387 1_556 S
H1154 C1161 0.950 . S
C1155 C1153 1.387 1_554 S
C1155 C1157 1.390 . S
C1155 H1159 0.950 . S
H1156 C1152 0.950 . S
C1157 C1155 1.390 . S
C1157 C1158 1.387 . S
C1157 H1160 0.950 . S
C1158 C1157 1.387 . S
C1158 C1161 1.387 1_554 S
H1159 C1155 0.950 . S
H1160 C1157 0.950 . S
C1161 C1152 1.390 . S
C1161 H1154 0.950 . S
C1161 C1158 1.387 1_556 S
C1162 C1163 1.387 . S
C1162 H1166 0.950 . S
C1162 C1171 1.390 1_455 S
C1163 C1162 1.387 . S
C1163 C1165 1.387 . S
H1164 C1171 0.950 . S
C1165 C1163 1.387 . S
C1165 C1167 1.390 1_455 S
C1165 H1169 0.950 . S
H1166 C1162 0.950 . S
C1167 C1165 1.390 1_655 S
C1167 C1168 1.387 . S
C1167 H1170 0.950 . S
C1168 C1167 1.387 . S
C1168 C1171 1.387 . S
H1169 C1165 0.950 . S
H1170 C1167 0.950 . S
C1171 C1162 1.390 1_655 S
C1171 H1164 0.950 . S
C1171 C1168 1.387 . S
C1172 C1173 1.387 . S
C1172 H1176 0.950 . S
C1172 C1181 1.390 1_564 S
C1173 C1172 1.387 . S
C1173 C1175 1.387 . S
H1174 C1181 0.950 . S
C1175 C1173 1.387 . S
C1175 C1177 1.390 1_564 S
C1175 H1179 0.950 . S
H1176 C1172 0.950 . S
C1177 C1175 1.390 1_546 S
C1177 C1178 1.387 . S
C1177 H1180 0.950 . S
C1178 C1177 1.387 . S
C1178 C1181 1.387 . S
H1179 C1175 0.950 . S
H1180 C1177 0.950 . S
C1181 C1172 1.390 1_546 S
C1181 H1174 0.950 . S
C1181 C1178 1.387 . S
C1182 C1183 1.387 . S
C1182 H1186 0.950 . S
C1182 C1191 1.390 . S
C1183 C1182 1.387 . S
C1183 C1185 1.387 . S
H1184 C1191 0.950 . S
C1185 C1183 1.387 . S
C1185 C1187 1.390 . S
C1185 H1189 0.950 . S
H1186 C1182 0.950 . S
C1187 C1185 1.390 . S
C1187 C1188 1.387 . S
C1187 H1190 0.950 . S
C1188 C1187 1.387 . S
C1188 C1191 1.387 . S
H1189 C1185 0.950 . S
H1190 C1187 0.950 . S
C1191 C1182 1.390 . S
C1191 H1184 0.950 . S
C1191 C1188 1.387 . S
C1192 C1193 1.387 1_554 S
C1192 H1196 0.950 . S
C1192 C1201 1.390 1_655 S
C1193 C1192 1.387 1_556 S
C1193 C1195 1.387 . S
H1194 C1201 0.950 . S
C1195 C1193 1.387 . S
C1195 C1197 1.390 1_655 S
C1195 H1199 0.950 . S
H1196 C1192 0.950 . S
C1197 C1195 1.390 1_455 S
C1197 C1198 1.387 1_556 S
C1197 H1200 0.950 . S
C1198 C1197 1.387 1_554 S
C1198 C1201 1.387 . S
H1199 C1195 0.950 . S
H1200 C1197 0.950 . S
C1201 C1192 1.390 1_455 S
C1201 H1194 0.950 . S
C1201 C1198 1.387 . S
C1202 C1203 1.387 . S
C1202 H1206 0.950 . S
C1202 C1211 1.390 1_565 S
C1203 C1202 1.387 . S
C1203 C1205 1.387 . S
H1204 C1211 0.950 . S
C1205 C1203 1.387 . S
C1205 C1207 1.390 1_565 S
C1205 H1209 0.950 . S
H1206 C1202 0.950 . S
C1207 C1205 1.390 1_545 S
C1207 C1208 1.387 . S
C1207 H1210 0.950 . S
C1208 C1207 1.387 . S
C1208 C1211 1.387 . S
H1209 C1205 0.950 . S
H1210 C1207 0.950 . S
C1211 C1202 1.390 1_545 S
C1211 H1204 0.950 . S
C1211 C1208 1.387 . S
C1212 C1213 1.387 . S
C1212 H1216 0.950 . S
C1212 C1221 1.390 1_556 S
C1213 C1212 1.387 . S
C1213 C1215 1.387 . S
H1214 C1221 0.950 . S
C1215 C1213 1.387 . S
C1215 C1217 1.390 1_556 S
C1215 H1219 0.950 . S
H1216 C1212 0.950 . S
C1217 C1215 1.390 1_554 S
C1217 C1218 1.387 . S
C1217 H1220 0.950 . S
C1218 C1217 1.387 . S
C1218 C1221 1.387 . S
H1219 C1215 0.950 . S
H1220 C1217 0.950 . S
C1221 C1212 1.390 1_554 S
C1221 H1214 0.950 . S
C1221 C1218 1.387 . S
C1222 C1223 1.387 . S
C1222 H1226 0.950 . S
C1222 C1231 1.390 . S
C1223 C1222 1.387 . S
C1223 C1225 1.387 1_455 S
H1224 C1231 0.950 . S
C1225 C1223 1.387 1_655 S
C1225 C1227 1.390 . S
C1225 H1229 0.950 . S
H1226 C1222 0.950 . S
C1227 C1225 1.390 . S
C1227 C1228 1.387 . S
C1227 H1230 0.950 . S
C1228 C1227 1.387 . S
C1228 C1231 1.387 1_655 S
H1229 C1225 0.950 . S
H1230 C1227 0.950 . S
C1231 C1222 1.390 . S
C1231 H1224 0.950 . S
C1231 C1228 1.387 1_455 S
C1232 C1233 1.387 . S
C1232 H1236 0.950 . S
C1232 C1241 1.390 1_546 S
C1233 C1232 1.387 . S
C1233 C1235 1.387 . S
H1234 C1241 0.950 . S
C1235 C1233 1.387 . S
C1235 C1237 1.390 1_546 S
C1235 H1239 0.950 . S
H1236 C1232 0.950 . S
C1237 C1235 1.390 1_564 S
C1237 C1238 1.387 . S
C1237 H1240 0.950 . S
C1238 C1237 1.387 . S
C1238 C1241 1.387 . S
H1239 C1235 0.950 . S
H1240 C1237 0.950 . S
C1241 C1232 1.390 1_564 S
C1241 H1234 0.950 . S
C1241 C1238 1.387 . S
C1242 C1243 1.387 . S
C1242 H1246 0.950 . S
C1242 C1251 1.390 . S
C1243 C1242 1.387 . S
C1243 C1245 1.387 . S
H1244 C1251 0.950 . S
C1245 C1243 1.387 . S
C1245 C1247 1.390 . S
C1245 H1249 0.950 . S
H1246 C1242 0.950 . S
C1247 C1245 1.390 . S
C1247 C1248 1.387 . S
C1247 H1250 0.950 . S
C1248 C1247 1.387 . S
C1248 C1251 1.387 . S
H1249 C1245 0.950 . S
H1250 C1247 0.950 . S
C1251 C1242 1.390 . S
C1251 H1244 0.950 . S
C1251 C1248 1.387 . S
C1252 C1253 1.387 . S
C1252 H1256 0.950 . S
C1252 C1261 1.390 1_554 S
C1253 C1252 1.387 . S
C1253 C1255 1.387 1_455 S
H1254 C1261 0.950 . S
C1255 C1253 1.387 1_655 S
C1255 C1257 1.390 1_554 S
C1255 H1259 0.950 . S
H1256 C1252 0.950 . S
C1257 C1255 1.390 1_556 S
C1257 C1258 1.387 . S
C1257 H1260 0.950 . S
C1258 C1257 1.387 . S
C1258 C1261 1.387 1_655 S
H1259 C1255 0.950 . S
H1260 C1257 0.950 . S
C1261 C1252 1.390 1_556 S
C1261 H1254 0.950 . S
C1261 C1258 1.387 1_455 S
C1262 C1263 1.387 . S
C1262 H1266 0.950 . S
C1262 C1271 1.390 1_545 S
C1263 C1262 1.387 . S
C1263 C1265 1.387 . S
H1264 C1271 0.950 . S
C1265 C1263 1.387 . S
C1265 C1267 1.390 1_545 S
C1265 H1269 0.950 . S
H1266 C1262 0.950 . S
C1267 C1265 1.390 1_565 S
C1267 C1268 1.387 . S
C1267 H1270 0.950 . S
C1268 C1267 1.387 . S
C1268 C1271 1.387 . S
H1269 C1265 0.950 . S
H1270 C1267 0.950 . S
C1271 C1262 1.390 1_565 S
C1271 H1264 0.950 . S
C1271 C1268 1.387 . S
C1272 C1273 1.387 . S
C1272 H1276 0.950 . S
C1272 C1281 1.390 . S
C1273 C1272 1.387 . S
C1273 C1275 1.387 . S
H1274 C1281 0.950 . S
C1275 C1273 1.387 . S
C1275 C1277 1.390 . S
C1275 H1279 0.950 . S
H1276 C1272 0.950 . S
C1277 C1275 1.390 . S
C1277 C1278 1.387 . S
C1277 H1280 0.950 . S
C1278 C1277 1.387 . S
C1278 C1281 1.387 . S
H1279 C1275 0.950 . S
H1280 C1277 0.950 . S
C1281 C1272 1.390 . S
C1281 H1274 0.950 . S
C1281 C1278 1.387 . S
C1282 C1283 1.387 . S
C1282 H1286 0.950 . S
C1282 C1291 1.390 . S
C1283 C1282 1.387 . S
C1283 C1285 1.387 . S
H1284 C1291 0.950 . S
C1285 C1283 1.387 . S
C1285 C1287 1.390 1_455 S
C1285 H1289 0.950 . S
H1286 C1282 0.950 . S
C1287 C1285 1.390 1_655 S
C1287 C1288 1.397 1_655 S
C1287 H1290 0.950 . S
C1288 C1287 1.397 1_455 S
C1288 C1291 1.398 . S
H1289 C1285 0.950 . S
H1290 C1287 0.950 . S
C1291 C1282 1.390 . S
C1291 H1284 0.950 . S
C1291 C1288 1.398 . S
C1292 C1293 1.382 1_565 S
C1292 H1296 0.950 . S
C1292 C1301 1.390 1_565 S
C1293 C1292 1.382 1_545 S
C1293 C1295 1.399 . S
H1294 C1301 0.950 . S
C1295 C1293 1.399 . S
C1295 C1297 1.390 . S
C1295 H1299 0.950 . S
H1296 C1292 0.950 . S
C1297 C1295 1.390 . S
C1297 C1298 1.387 . S
C1297 H1300 0.950 . S
C1298 C1297 1.387 . S
C1298 C1301 1.387 . S
H1299 C1295 0.950 . S
H1300 C1297 0.950 . S
C1301 C1292 1.390 1_545 S
C1301 H1294 0.950 . S
C1301 C1298 1.387 . S
C1302 C1303 1.387 . S
C1302 H1306 0.950 . S
C1302 C1311 1.390 . S
C1303 C1302 1.387 . S
C1303 C1305 1.387 . S
H1304 C1311 0.950 . S
C1305 C1303 1.387 . S
C1305 C1307 1.390 . S
C1305 H1309 0.950 . S
H1306 C1302 0.950 . S
C1307 C1305 1.390 . S
C1307 C1308 1.387 . S
C1307 H1310 0.950 . S
C1308 C1307 1.387 . S
C1308 C1311 1.387 . S
H1309 C1305 0.950 . S
H1310 C1307 0.950 . S
C1311 C1302 1.390 . S
C1311 H1304 0.950 . S
C1311 C1308 1.387 . S
C1312 C1313 1.387 . S
C1312 H1316 0.950 . S
C1312 C1321 1.390 . S
C1313 C1312 1.387 . S
C1313 C1315 1.387 . S
H1314 C1321 0.950 1_455 S
C1315 C1313 1.387 . S
C1315 C1317 1.390 . S
C1315 H1319 0.950 . S
H1316 C1312 0.950 . S
C1317 C1315 1.390 . S
C1317 C1318 1.401 . S
C1317 H1320 0.950 . S
C1318 C1317 1.401 . S
C1318 C1321 1.402 . S
H1319 C1315 0.950 . S
H1320 C1317 0.950 . S
C1321 C1312 1.390 . S
C1321 H1314 0.950 1_655 S
C1321 C1318 1.402 . S
C1322 C1323 1.387 . S
C1322 H1326 0.950 . S
C1322 C1331 1.390 . S
C1323 C1322 1.387 . S
C1323 C1325 1.387 . S
H1324 C1331 0.950 . S
C1325 C1323 1.387 . S
C1325 C1327 1.390 . S
C1325 H1329 0.950 . S
H1326 C1322 0.950 . S
C1327 C1325 1.390 . S
C1327 C1328 1.384 . S
C1327 H1330 0.950 1_565 S
C1328 C1327 1.384 . S
C1328 C1331 1.399 . S
H1329 C1325 0.950 . S
H1330 C1327 0.950 1_545 S
C1331 C1322 1.390 . S
C1331 H1324 0.950 . S
C1331 C1328 1.399 . S
C1332 C1333 1.387 . S
C1332 H1336 0.950 . S
C1332 C1341 1.390 . S
C1333 C1332 1.387 . S
C1333 C1335 1.387 . S
H1334 C1341 0.950 . S
C1335 C1333 1.387 . S
C1335 C1337 1.390 . S
C1335 H1339 0.950 . S
H1336 C1332 0.950 . S
C1337 C1335 1.390 . S
C1337 C1338 1.387 . S
C1337 H1340 0.950 . S
C1338 C1337 1.387 . S
C1338 C1341 1.387 . S
H1339 C1335 0.950 . S
H1340 C1337 0.950 . S
C1341 C1332 1.390 . S
C1341 H1334 0.950 . S
C1341 C1338 1.387 . S
C1342 C1343 1.387 . S
C1342 H1346 0.950 . S
C1342 C1351 1.390 1_455 S
C1343 C1342 1.387 . S
C1343 C1345 1.387 . S
H1344 C1351 0.950 . S
C1345 C1343 1.387 . S
C1345 C1347 1.390 . S
C1345 H1349 0.950 . S
H1346 C1342 0.950 . S
C1347 C1345 1.390 . S
C1347 C1348 1.409 . S
C1347 H1350 0.950 . S
C1348 C1347 1.409 . S
C1348 C1351 1.373 1_455 S
H1349 C1345 0.950 . S
H1350 C1347 0.950 . S
C1351 C1342 1.390 1_655 S
C1351 H1344 0.950 . S
C1351 C1348 1.373 1_655 S
C1352 C1353 1.387 . S
C1352 H1356 0.950 . S
C1352 C1361 1.390 . S
C1353 C1352 1.387 . S
C1353 C1355 1.387 . S
H1354 C1361 0.950 1_565 S
C1355 C1353 1.387 . S
C1355 C1357 1.390 . S
C1355 H1359 0.950 . S
H1356 C1352 0.950 . S
C1357 C1355 1.390 . S
C1357 C1358 1.403 . S
C1357 H1360 0.950 . S
C1358 C1357 1.403 . S
C1358 C1361 1.391 . S
H1359 C1355 0.950 . S
H1360 C1357 0.950 . S
C1361 C1352 1.390 . S
C1361 H1354 0.950 1_545 S
C1361 C1358 1.391 . S
C1362 C1363 1.387 . S
C1362 H1366 0.950 . S
C1362 C1371 1.390 . S
C1363 C1362 1.387 . S
C1363 C1365 1.387 . S
H1364 C1371 0.950 . S
C1365 C1363 1.387 . S
C1365 C1367 1.390 . S
C1365 H1369 0.950 . S
H1366 C1362 0.950 . S
C1367 C1365 1.390 . S
C1367 C1368 1.387 . S
C1367 H1370 0.950 . S
C1368 C1367 1.387 . S
C1368 C1371 1.387 . S
H1369 C1365 0.950 . S
H1370 C1367 0.950 . S
C1371 C1362 1.390 . S
C1371 H1364 0.950 . S
C1371 C1368 1.387 . S
C1372 C1373 1.389 . S
C1372 H1376 0.950 1_655 S
C1372 C1381 1.390 . S
C1373 C1372 1.389 . S
C1373 C1375 1.392 . S
H1374 C1381 0.950 . S
C1375 C1373 1.392 . S
C1375 C1377 1.390 . S
C1375 H1379 0.950 . S
H1376 C1372 0.950 1_455 S
C1377 C1375 1.390 . S
C1377 C1378 1.387 . S
C1377 H1380 0.950 . S
C1378 C1377 1.387 . S
C1378 C1381 1.387 . S
H1379 C1375 0.950 . S
H1380 C1377 0.950 . S
C1381 C1372 1.390 . S
C1381 H1374 0.950 . S
C1381 C1378 1.387 . S
C1382 C1383 1.387 . S
C1382 H1386 0.950 . S
C1382 C1391 1.390 . S
C1383 C1382 1.387 . S
C1383 C1385 1.387 . S
H1384 C1391 0.950 . S
C1385 C1383 1.387 . S
C1385 C1387 1.390 . S
C1385 H1389 0.950 . S
H1386 C1382 0.950 . S
C1387 C1385 1.390 . S
C1387 C1388 1.393 . S
C1387 H1390 0.950 1_565 S
C1388 C1387 1.393 . S
C1388 C1391 1.410 . S
H1389 C1385 0.950 . S
H1390 C1387 0.950 1_545 S
C1391 C1382 1.390 . S
C1391 H1384 0.950 . S
C1391 C1388 1.410 . S
C973 C16 2.641 . S
C978 C342 2.442 . S
C983 C423 2.444 . S
C988 C97 2.643 . S
C993 C18 2.441 . S
C998 C178 2.641 . S
C1003 C99 2.443 . S
C1008 C259 2.641 . S
C1013 C340 2.642 . S
C1018 C180 2.440 . S
C1023 C261 2.442 . S
C1028 C421 2.643 . S
C1033 C502 2.642 . S
C1038 C666 2.441 . S
C1043 C583 2.642 . S
C1048 C747 2.443 . S
C1053 C828 2.441 . S
C1058 C664 2.641 . S
C1063 C909 2.444 . S
C1068 C745 2.643 . S
C1073 C504 2.442 . S
C1078 C826 2.641 . S
C1083 C907 2.642 . S
C1088 C585 2.443 . S
C1093 C860 1.717 . S
C1098 C50 1.717 . S
C1103 C941 1.716 . S
C1108 C131 1.717 . S
C1113 C536 1.716 . S
C1118 C212 1.717 . S
C1123 C617 1.716 . S
C1128 C293 1.716 . S
C1133 C374 1.716 . S
C1138 C698 1.717 . S
C1143 C779 1.716 . S
C1148 C455 1.717 . S
C1153 C788 1.194 . S
C1158 C59 1.197 . S
C1163 C869 1.194 . S
C1168 C140 1.195 . S
C1173 C221 1.194 . S
C1178 C950 1.194 . S
C1183 C545 1.198 . S
C1188 C302 1.194 . S
C1193 C626 1.200 . S
C1198 C383 1.197 . S
C1203 C707 1.194 . S
C1208 C464 1.194 . S
C1213 C601 1.693 . S
C1218 C196 1.691 . S
C1223 C682 1.693 . S
C1228 C277 1.691 . S
C1233 C763 1.692 . S
C1238 C358 1.692 . S
C1243 C844 1.693 . S
C1248 C439 1.691 . S
C1253 C34 1.692 . S
C1258 C925 1.691 . S
C1263 C115 1.692 . S
C1268 C520 1.692 . S
C1273 C376 1.501 . S
C1278 C37 1.627 . S
C1283 C457 1.500 . S
C1288 C118 1.604 1_455 S
C1293 C199 1.611 1_545 S
C1298 C52 1.503 . S
C1303 C133 1.505 . S
C1308 C280 1.626 . S
C1313 C214 1.506 . S
C1318 C361 1.600 1_655 S
C1323 C295 1.503 . S
C1328 C442 1.610 1_565 S
C1333 C523 1.626 . S
C1338 C700 1.500 . S
C1343 C781 1.505 . S
C1348 C604 1.610 1_455 S
C1353 C862 1.502 . S
C1358 C685 1.604 1_545 S
C1363 C766 1.625 . S
C1368 C943 1.500 . S
C1373 C847 1.611 1_655 S
C1378 C538 1.502 . S
C1383 C619 1.504 . S
C1388 C928 1.600 1_565 S
